# Generated by pormake.
# Topology bcu-j, (5)-cn, num edge types: 1
# Building blocks:
#     Node 0, Type 0, BuildingBlock: XOMCOT_clean_sbu_1, # of connection points: 5
#     Node 1, Type 0, BuildingBlock: XOMCOT_clean_sbu_1, # of connection points: 5
#     Node 2, Type 0, BuildingBlock: XOMCOT_clean_sbu_1, # of connection points: 5
#     Node 3, Type 0, BuildingBlock: XOMCOT_clean_sbu_1, # of connection points: 5
#     Node 4, Type 0, BuildingBlock: XOMCOT_clean_sbu_1, # of connection points: 5
#     Node 5, Type 0, BuildingBlock: XOMCOT_clean_sbu_1, # of connection points: 5
#     Node 6, Type 0, BuildingBlock: XOMCOT_clean_sbu_1, # of connection points: 5
#     Node 7, Type 0, BuildingBlock: XOMCOT_clean_sbu_1, # of connection points: 5
#     Node 8, Type 0, BuildingBlock: XOMCOT_clean_sbu_1, # of connection points: 5
#     Node 9, Type 0, BuildingBlock: XOMCOT_clean_sbu_1, # of connection points: 5
#     Node 10, Type 0, BuildingBlock: XOMCOT_clean_sbu_1, # of connection points: 5
#     Node 11, Type 0, BuildingBlock: XOMCOT_clean_sbu_1, # of connection points: 5
#     Node 12, Type 0, BuildingBlock: XOMCOT_clean_sbu_1, # of connection points: 5
#     Node 13, Type 0, BuildingBlock: XOMCOT_clean_sbu_1, # of connection points: 5
#     Node 14, Type 0, BuildingBlock: XOMCOT_clean_sbu_1, # of connection points: 5
#     Node 15, Type 0, BuildingBlock: XOMCOT_clean_sbu_1, # of connection points: 5
#     Edge 16, Type (0, 0), BuildingBlock: EZIPEK_clean_linker_0, # of connection points: 2
#     Edge 17, Type (0, 0), BuildingBlock: EZIPEK_clean_linker_0, # of connection points: 2
#     Edge 18, Type (0, 0), BuildingBlock: EZIPEK_clean_linker_0, # of connection points: 2
#     Edge 19, Type (0, 0), BuildingBlock: EZIPEK_clean_linker_0, # of connection points: 2
#     Edge 20, Type (0, 0), BuildingBlock: EZIPEK_clean_linker_0, # of connection points: 2
#     Edge 21, Type (0, 0), BuildingBlock: EZIPEK_clean_linker_0, # of connection points: 2
#     Edge 22, Type (0, 0), BuildingBlock: EZIPEK_clean_linker_0, # of connection points: 2
#     Edge 23, Type (0, 0), BuildingBlock: EZIPEK_clean_linker_0, # of connection points: 2
#     Edge 24, Type (0, 0), BuildingBlock: EZIPEK_clean_linker_0, # of connection points: 2
#     Edge 25, Type (0, 0), BuildingBlock: EZIPEK_clean_linker_0, # of connection points: 2
#     Edge 26, Type (0, 0), BuildingBlock: EZIPEK_clean_linker_0, # of connection points: 2
#     Edge 27, Type (0, 0), BuildingBlock: EZIPEK_clean_linker_0, # of connection points: 2
#     Edge 28, Type (0, 0), BuildingBlock: EZIPEK_clean_linker_0, # of connection points: 2
#     Edge 29, Type (0, 0), BuildingBlock: EZIPEK_clean_linker_0, # of connection points: 2
#     Edge 30, Type (0, 0), BuildingBlock: EZIPEK_clean_linker_0, # of connection points: 2
#     Edge 31, Type (0, 0), BuildingBlock: EZIPEK_clean_linker_0, # of connection points: 2
#     Edge 32, Type (0, 0), BuildingBlock: EZIPEK_clean_linker_0, # of connection points: 2
#     Edge 33, Type (0, 0), BuildingBlock: EZIPEK_clean_linker_0, # of connection points: 2
#     Edge 34, Type (0, 0), BuildingBlock: EZIPEK_clean_linker_0, # of connection points: 2
#     Edge 35, Type (0, 0), BuildingBlock: EZIPEK_clean_linker_0, # of connection points: 2
#     Edge 36, Type (0, 0), BuildingBlock: EZIPEK_clean_linker_0, # of connection points: 2
#     Edge 37, Type (0, 0), BuildingBlock: EZIPEK_clean_linker_0, # of connection points: 2
#     Edge 38, Type (0, 0), BuildingBlock: EZIPEK_clean_linker_0, # of connection points: 2
#     Edge 39, Type (0, 0), BuildingBlock: EZIPEK_clean_linker_0, # of connection points: 2
#     Edge 40, Type (0, 0), BuildingBlock: EZIPEK_clean_linker_0, # of connection points: 2
#     Edge 41, Type (0, 0), BuildingBlock: EZIPEK_clean_linker_0, # of connection points: 2
#     Edge 42, Type (0, 0), BuildingBlock: EZIPEK_clean_linker_0, # of connection points: 2
#     Edge 43, Type (0, 0), BuildingBlock: EZIPEK_clean_linker_0, # of connection points: 2
#     Edge 44, Type (0, 0), BuildingBlock: EZIPEK_clean_linker_0, # of connection points: 2
#     Edge 45, Type (0, 0), BuildingBlock: EZIPEK_clean_linker_0, # of connection points: 2
#     Edge 46, Type (0, 0), BuildingBlock: EZIPEK_clean_linker_0, # of connection points: 2
#     Edge 47, Type (0, 0), BuildingBlock: EZIPEK_clean_linker_0, # of connection points: 2
#     Edge 48, Type (0, 0), BuildingBlock: EZIPEK_clean_linker_0, # of connection points: 2
#     Edge 49, Type (0, 0), BuildingBlock: EZIPEK_clean_linker_0, # of connection points: 2
#     Edge 50, Type (0, 0), BuildingBlock: EZIPEK_clean_linker_0, # of connection points: 2
#     Edge 51, Type (0, 0), BuildingBlock: EZIPEK_clean_linker_0, # of connection points: 2
#     Edge 52, Type (0, 0), BuildingBlock: EZIPEK_clean_linker_0, # of connection points: 2
#     Edge 53, Type (0, 0), BuildingBlock: EZIPEK_clean_linker_0, # of connection points: 2
#     Edge 54, Type (0, 0), BuildingBlock: EZIPEK_clean_linker_0, # of connection points: 2
#     Edge 55, Type (0, 0), BuildingBlock: EZIPEK_clean_linker_0, # of connection points: 2
# Relax obj value: 0.644
# Max RMSD: 0.296
# Mean RMSD: 0.296
data_MOF--net-bcu-j--node1-XOMCOT_clean_sbu_1--edge1-EZIPEK_clean_linker_0
_symmetry_space_group_name_H-M    P1
_symmetry_Int_Tables_number       1
_symmetry_cell_setting            triclinic
loop_
_symmetry_equiv_pos_as_xyz
'x, y, z'
_cell_length_a     33.534869
_cell_length_b     33.550457
_cell_length_c     36.242572
_cell_angle_alpha  89.89317
_cell_angle_beta   89.961686
_cell_angle_gamma 90.045479
loop_
_atom_site_label
_atom_site_type_symbol
_atom_site_fract_x
_atom_site_fract_y
_atom_site_fract_z
_atom_type_partial_charge
C0 C 0.07559 0.17866 0.58859 0.0
C1 C 0.1126 0.16261 0.58143 0.0
N2 N 0.1128 0.12495 0.59424 0.0
N3 N 0.05303 0.15134 0.60632 0.0
C4 C 0.07643 0.11874 0.60879 0.0
H5 H 0.06647 0.20884 0.58275 0.0
Co6 Co 0.0036 0.15869 0.62848 0.0
C7 C 0.00924 0.10796 0.69835 0.0
O8 O 0.97135 0.10938 0.70731 0.0
N9 N 0.95381 0.16635 0.65096 0.0
C10 C 0.88878 0.17311 0.6625 0.0
C11 C 0.91676 0.15884 0.63788 0.0
C12 C 0.94755 0.18522 0.68328 0.0
N13 N 0.90861 0.18967 0.69077 0.0
O14 O 0.02466 0.20526 0.65123 0.0
H15 H 0.91026 0.14503 0.61165 0.0
H16 H 0.97116 0.19621 0.70091 0.0
O17 O 0.02224 0.12593 0.66966 0.0
C18 C 0.01171 0.23901 0.64044 0.0
O19 O 0.97671 0.2411 0.62427 0.0
N20 N 0.9845 0.11544 0.60235 0.0
C21 C 0.98133 0.05941 0.5469 0.0
C22 C 0.98515 0.0472 0.58366 0.0
C23 C 0.98681 0.07601 0.6113 0.0
C24 C 0.97676 0.12728 0.56712 0.0
C25 C 0.97523 0.09959 0.5387 0.0
H26 H 0.99383 0.06657 0.6388 0.0
H27 H 0.97566 0.15876 0.56068 0.0
H28 H 0.06791 0.09149 0.62274 0.0
H29 H 0.13776 0.17765 0.56887 0.0
H30 H 0.85668 0.17251 0.65947 0.0
H31 H 0.99008 0.01615 0.59049 0.0
H32 H 0.97225 0.10965 0.51041 0.0
C33 C 0.33774 0.06354 0.56741 0.0
C34 C 0.35671 0.09998 0.56617 0.0
N35 N 0.37278 0.10667 0.59956 0.0
N36 N 0.34175 0.04791 0.6015 0.0
C37 C 0.36322 0.07506 0.62051 0.0
H38 H 0.32266 0.04897 0.5448 0.0
Co39 Co 0.32281 -0.00122 0.61668 0.0
C40 C 0.35201 0.99076 0.69393 0.0
O41 O 0.36239 0.95362 0.6876 0.0
N42 N 0.30282 0.94924 0.63204 0.0
C43 C 0.28647 0.88557 0.64196 0.0
C44 C 0.30684 0.91161 0.61908 0.0
C45 C 0.27936 0.9453 0.66199 0.0
N46 N 0.26964 0.90727 0.66889 0.0
O47 O 0.27218 0.02264 0.62471 0.0
H48 H 0.32393 0.90314 0.59511 0.0
H49 H 0.27084 0.96986 0.67962 0.0
O50 O 0.33767 0.01111 0.66728 0.0
C51 C 0.24487 0.01621 0.6011 0.0
O52 O 0.25021 0.9885 0.57601 0.0
N53 N 0.37247 0.97732 0.60533 0.0
C54 C 0.44204 0.97655 0.56436 0.0
C55 C 0.44296 0.98825 0.60127 0.0
C56 C 0.40757 0.98885 0.62137 0.0
C57 C 0.37206 0.96253 0.57035 0.0
C58 C 0.40679 0.96144 0.54936 0.0
H59 H 0.40822 0.00372 0.64762 0.0
H60 H 0.34386 0.95643 0.55704 0.0
H61 H 0.37245 0.07183 0.6489 0.0
H62 H 0.35898 0.1198 0.54266 0.0
H63 H 0.28503 0.85344 0.63969 0.0
H64 H 0.46978 0.00095 0.6131 0.0
H65 H 0.40526 0.95302 0.52055 0.0
C66 C 0.40865 0.3361 0.58598 0.0
C67 C 0.37185 0.35431 0.58843 0.0
N68 N 0.3693 0.37149 0.62183 0.0
N69 N 0.42864 0.34178 0.61785 0.0
C70 C 0.40374 0.36357 0.63906 0.0
H71 H 0.42036 0.32031 0.56237 0.0
Co72 Co 0.48042 0.32599 0.62827 0.0
C73 C 0.49568 0.36238 0.7021 0.0
O74 O 0.53171 0.37415 0.693 0.0
N75 N 0.53281 0.30994 0.63921 0.0
C76 C 0.59865 0.30116 0.64374 0.0
C77 C 0.56858 0.31977 0.6243 0.0
C78 C 0.54205 0.28525 0.66734 0.0
N79 N 0.58151 0.27944 0.67052 0.0
O80 O 0.46055 0.27578 0.64395 0.0
H81 H 0.57315 0.33968 0.60128 0.0
H82 H 0.5203 0.27238 0.68596 0.0
O83 O 0.47451 0.34517 0.67775 0.0
C84 C 0.45879 0.25016 0.61827 0.0
O85 O 0.47408 0.25887 0.58587 0.0
N86 N 0.49766 0.37437 0.60978 0.0
C87 C 0.50058 0.43996 0.56365 0.0
C88 C 0.4915 0.44487 0.60103 0.0
C89 C 0.48961 0.41132 0.62379 0.0
C90 C 0.50764 0.36965 0.57364 0.0
C91 C 0.50981 0.40221 0.55009 0.0
H92 H 0.47807 0.41498 0.65132 0.0
H93 H 0.51121 0.33995 0.56256 0.0
H94 H 0.41073 0.37481 0.66616 0.0
H95 H 0.3491 0.3555 0.56729 0.0
H96 H 0.63041 0.30354 0.63886 0.0
H97 H 0.48326 0.47382 0.61178 0.0
H98 H 0.51624 0.3977 0.52109 0.0
C99 C 0.16535 0.41145 0.60274 0.0
C100 C 0.15005 0.37349 0.59917 0.0
N101 N 0.12349 0.36776 0.62654 0.0
N102 N 0.14842 0.42917 0.63223 0.0
C103 C 0.12306 0.40165 0.64606 0.0
H104 H 0.18663 0.42557 0.5845 0.0
Co105 Co 0.15698 0.48077 0.64895 0.0
C106 C 0.10126 0.48891 0.71176 0.0
O107 O 0.08966 0.52366 0.69905 0.0
N108 N 0.16599 0.53279 0.66684 0.0
C109 C 0.16402 0.59724 0.68221 0.0
C110 C 0.15309 0.5693 0.65613 0.0
C111 C 0.18493 0.53964 0.69905 0.0
N112 N 0.18434 0.5782 0.70886 0.0
O113 O 0.20397 0.46235 0.67251 0.0
H114 H 0.13511 0.5754 0.63209 0.0
H115 H 0.19729 0.51646 0.7164 0.0
O116 O 0.12664 0.46933 0.69294 0.0
C117 C 0.23323 0.46406 0.65034 0.0
O118 O 0.22876 0.48358 0.61915 0.0
N119 N 0.11265 0.49668 0.62208 0.0
C120 C 0.06001 0.49671 0.56336 0.0
C121 C 0.04795 0.4821 0.5977 0.0
C122 C 0.07493 0.48199 0.62683 0.0
C123 C 0.12406 0.51259 0.58909 0.0
C124 C 0.09787 0.51352 0.55934 0.0
H125 H 0.06644 0.46635 0.65157 0.0
H126 H 0.1547 0.52172 0.5851 0.0
H127 H 0.10313 0.40652 0.66904 0.0
H128 H 0.15642 0.35246 0.57733 0.0
H129 H 0.15668 0.62865 0.68219 0.0
H130 H 0.01891 0.4684 0.60118 0.0
H131 H 0.10793 0.52462 0.53283 0.0
C132 C 0.05633 0.36807 0.91742 0.0
C133 C 0.09529 0.38073 0.91424 0.0
N134 N 0.10589 0.37787 0.87865 0.0
N135 N 0.04203 0.35806 0.88372 0.0
C136 C 0.07392 0.363 0.86113 0.0
H137 H 0.04041 0.36572 0.94315 0.0
Co138 Co 0.99163 0.33788 0.86767 0.0
C139 C 0.00947 0.40407 0.81718 0.0
O140 O 0.01664 0.42591 0.84643 0.0
N141 N 0.94364 0.31701 0.85151 0.0
C142 C 0.88304 0.29015 0.84784 0.0
C143 C 0.90906 0.31128 0.86996 0.0
C144 C 0.93813 0.2993 0.81864 0.0
N145 N 0.90191 0.28243 0.81589 0.0
O146 O 0.01888 0.29404 0.8466 0.0
H147 H 0.90367 0.3204 0.89812 0.0
H148 H 0.961 0.29704 0.79764 0.0
O149 O 0.99747 0.36808 0.82111 0.0
C150 C 0.02564 0.26831 0.87154 0.0
O151 O 0.01281 0.27521 0.90519 0.0
N152 N 0.96385 0.37887 0.89129 0.0
C153 C 0.9492 0.44509 0.93291 0.0
C154 C 0.93804 0.44483 0.89566 0.0
C155 C 0.94387 0.40991 0.87539 0.0
C156 C 0.96498 0.37566 0.92865 0.0
C157 C 0.95859 0.40911 0.95035 0.0
H158 H 0.93705 0.40967 0.84628 0.0
H159 H 0.97535 0.34833 0.94125 0.0
H160 H 0.07392 0.35573 0.83221 0.0
H161 H 0.11459 0.39056 0.93636 0.0
H162 H 0.85358 0.27957 0.8552 0.0
H163 H 0.92873 0.47191 0.88184 0.0
H164 H 0.96548 0.40805 0.97953 0.0
C165 C 0.14784 0.0794 0.91271 0.0
C166 C 0.13071 0.11645 0.91665 0.0
N167 N 0.11539 0.12693 0.88381 0.0
N168 N 0.14304 0.06693 0.87759 0.0
C169 C 0.12327 0.09681 0.86063 0.0
H170 H 0.16141 0.06193 0.93442 0.0
Co171 Co 0.15631 0.01685 0.85963 0.0
C172 C 0.11086 0.0106 0.78906 0.0
O173 O 0.09999 0.97395 0.79696 0.0
N174 N 0.17027 0.96611 0.8417 0.0
C175 C 0.18022 0.90109 0.83225 0.0
C176 C 0.16537 0.9292 0.8563 0.0
C177 C 0.18866 0.95953 0.80913 0.0
N178 N 0.19472 0.92053 0.80279 0.0
O179 O 0.20498 0.03822 0.84159 0.0
H180 H 0.15167 0.92247 0.88248 0.0
H181 H 0.19686 0.98292 0.78994 0.0
O182 O 0.13125 0.02969 0.81287 0.0
C183 C 0.23033 0.04127 0.86745 0.0
O184 O 0.22236 0.02472 0.8995 0.0
N185 N 0.10968 -0.00233 0.88078 0.0
C186 C 0.05046 0.99551 0.93391 0.0
C187 C 0.04148 0.008 0.89804 0.0
C188 C 0.07189 0.00947 0.87176 0.0
C189 C 0.11795 0.98331 0.91512 0.0
C190 C 0.08858 0.98149 0.94208 0.0
H191 H 0.06571 0.02444 0.84609 0.0
H192 H 0.14853 0.9773 0.92278 0.0
H193 H 0.11307 0.09618 0.83239 0.0
H194 H 0.1284 0.13372 0.94176 0.0
H195 H 0.18011 0.86906 0.83585 0.0
H196 H 0.01237 0.02006 0.89151 0.0
H197 H 0.09639 0.97258 0.9699 0.0
C198 C 0.43124 0.15078 0.90214 0.0
C199 C 0.39222 0.14228 0.91138 0.0
N200 N 0.37274 0.1331 0.88016 0.0
N201 N 0.4364 0.14571 0.86539 0.0
C202 C 0.39928 0.13803 0.85286 0.0
H203 H 0.45437 0.1583 0.92158 0.0
Co204 Co 0.48322 0.14596 0.83582 0.0
C205 C 0.43821 0.07457 0.80711 0.0
O206 O 0.43095 0.06208 0.8408 0.0
N207 N 0.52884 0.14692 0.80666 0.0
C208 C 0.57637 0.13128 0.76685 0.0
C209 C 0.54424 0.1172 0.7863 0.0
C210 C 0.55237 0.17854 0.79943 0.0
N211 N 0.58213 0.17014 0.77524 0.0
O212 O 0.45958 0.18761 0.80749 0.0
H213 H 0.53168 0.08769 0.78381 0.0
H214 H 0.54564 0.20795 0.80965 0.0
O215 O 0.45955 0.10578 0.80203 0.0
C216 C 0.46342 0.21962 0.82592 0.0
O217 O 0.4862 0.21866 0.85544 0.0
N218 N 0.50752 0.10824 0.8664 0.0
C219 C 0.52153 0.06065 0.92674 0.0
C220 C 0.51655 0.04335 0.89196 0.0
C221 C 0.51106 0.06813 0.86148 0.0
C222 C 0.52053 0.12522 0.8983 0.0
C223 C 0.52716 0.1018 0.92944 0.0
H224 H 0.50668 0.05482 0.83486 0.0
H225 H 0.52125 0.15734 0.9007 0.0
H226 H 0.39193 0.13329 0.82425 0.0
H227 H 0.38008 0.13966 0.93896 0.0
H228 H 0.59164 0.11434 0.74593 0.0
H229 H 0.5142 0.01132 0.88887 0.0
H230 H 0.53253 0.11582 0.95587 0.0
C231 C 0.35032 0.3942 0.90797 0.0
C232 C 0.36537 0.356 0.90522 0.0
N233 N 0.36767 0.34665 0.86924 0.0
N234 N 0.34393 0.40915 0.87372 0.0
C235 C 0.35285 0.37829 0.85117 0.0
H236 H 0.34624 0.41009 0.93351 0.0
Co237 Co 0.33056 0.461 0.85541 0.0
C238 C 0.40422 0.43928 0.81448 0.0
O239 O 0.42105 0.43101 0.84622 0.0
N240 N 0.31764 0.51129 0.83637 0.0
C241 C 0.32152 0.56786 0.80506 0.0
C242 C 0.34187 0.5348 0.81623 0.0
C243 C 0.28243 0.53085 0.83672 0.0
N244 N 0.28371 0.56601 0.81791 0.0
O245 O 0.2877 0.43699 0.8282 0.0
H246 H 0.37171 0.52739 0.80759 0.0
H247 H 0.25588 0.51769 0.84828 0.0
O248 O 0.36845 0.45268 0.81386 0.0
C249 C 0.25977 0.43246 0.85184 0.0
O250 O 0.26541 0.44545 0.8856 0.0
N251 N 0.36833 0.48529 0.88616 0.0
C252 C 0.41967 0.50382 0.94282 0.0
C253 C 0.4313 0.51049 0.90629 0.0
C254 C 0.40435 0.50224 0.87808 0.0
C255 C 0.35445 0.48606 0.92147 0.0
C256 C 0.38003 0.49436 0.95062 0.0
H257 H 0.41391 0.50664 0.85008 0.0
H258 H 0.32424 0.47666 0.92723 0.0
H259 H 0.35064 0.37956 0.82158 0.0
H260 H 0.37662 0.33782 0.92761 0.0
H261 H 0.33323 0.58936 0.78565 0.0
H262 H 0.46147 0.51957 0.89963 0.0
H263 H 0.36987 0.49055 0.97879 0.0
C264 C 0.92495 0.85274 0.41771 0.0
C265 C 0.88787 0.87039 0.41976 0.0
N266 N 0.87864 0.88406 0.38594 0.0
N267 N 0.93848 0.85527 0.3827 0.0
C268 C 0.90945 0.87459 0.36406 0.0
H269 H 0.94119 0.83924 0.44026 0.0
Co270 Co 0.98729 0.83707 0.36545 0.0
C271 C 0.99524 0.87603 0.29213 0.0
O272 O 0.03283 0.88405 0.29911 0.0
N273 N 0.03639 0.8178 0.34767 0.0
C274 C 0.09943 0.80021 0.33623 0.0
C275 C 0.07452 0.82106 0.35964 0.0
C276 C 0.03904 0.79468 0.31733 0.0
N277 N 0.07667 0.78369 0.3099 0.0
O278 O 0.9628 0.78781 0.35348 0.0
H279 H 0.08415 0.83756 0.38354 0.0
H280 H 0.01374 0.7864 0.30044 0.0
O281 O 0.975 0.8579 0.31681 0.0
C282 C 0.966 0.76367 0.38041 0.0
O283 O 0.98707 0.77412 0.40935 0.0
N284 N 0.00977 0.88469 0.38137 0.0
C285 C 0.01349 0.94808 0.43 0.0
C286 C -0.00033 0.95405 0.39404 0.0
C287 C 0.99756 0.92167 0.37007 0.0
C288 C 0.02601 0.87941 0.41548 0.0
C289 C 0.02866 0.91094 0.44019 0.0
H290 H 0.98121 0.92576 0.34479 0.0
H291 H 0.03229 0.8496 0.42525 0.0
H292 H 0.91064 0.88238 0.3352 0.0
H293 H 0.86942 0.87353 0.4441 0.0
H294 H 0.13154 0.79766 0.33811 0.0
H295 H 0.98678 0.98235 0.38596 0.0
H296 H 0.03861 0.90543 0.46818 0.0
C297 C 0.64808 0.92867 0.4263 0.0
C298 C 0.633 0.89056 0.42883 0.0
N299 N 0.6236 0.87846 0.39455 0.0
N300 N 0.64762 0.94023 0.39063 0.0
C301 C 0.63319 0.90867 0.3719 0.0
H302 H 0.65752 0.94728 0.449 0.0
Co303 Co 0.65904 0.99052 0.37245 0.0
C304 C 0.60139 -0.00046 0.31063 0.0
O305 O 0.59274 0.03627 0.32014 0.0
N306 N 0.67139 0.04169 0.35327 0.0
C307 C 0.6797 0.10651 0.34052 0.0
C308 C 0.66087 0.07924 0.36319 0.0
C309 C 0.69586 0.04728 0.32408 0.0
N310 N 0.70171 0.08592 0.31628 0.0
O311 O 0.70507 0.96865 0.34956 0.0
H312 H 0.64076 0.08702 0.38524 0.0
H313 H 0.7096 0.02357 0.30843 0.0
O314 O 0.62734 0.97953 0.32855 0.0
C315 C 0.73381 0.96754 0.37238 0.0
O316 O 0.72914 0.9841 0.40491 0.0
N317 N 0.61542 0.00959 0.39879 0.0
C318 C 0.56123 0.01272 0.45635 0.0
C319 C 0.55112 0.99376 0.42349 0.0
C320 C 0.57893 0.99194 0.39523 0.0
C321 C 0.62517 0.02927 0.43046 0.0
C322 C 0.59801 0.032 0.45951 0.0
H323 H 0.57306 0.97159 0.37305 0.0
H324 H 0.65534 0.03986 0.43442 0.0
H325 H 0.62884 0.90788 0.34234 0.0
H326 H 0.62878 0.87325 0.45376 0.0
H327 H 0.67784 0.13867 0.34194 0.0
H328 H 0.52329 0.97754 0.42094 0.0
H329 H 0.60674 0.04609 0.48514 0.0
C330 C 0.58292 0.63748 0.42801 0.0
C331 C 0.62096 0.62276 0.43297 0.0
N332 N 0.63735 0.61787 0.3994 0.0
N333 N 0.57564 0.64092 0.3915 0.0
C334 C 0.60992 0.63008 0.37502 0.0
H335 H 0.56148 0.64367 0.44952 0.0
Co336 Co 0.52843 0.65332 0.36776 0.0
C337 C 0.52933 0.59926 0.30186 0.0
O338 O 0.49134 0.59098 0.30655 0.0
N339 N 0.48044 0.66656 0.34335 0.0
C340 C 0.41708 0.67807 0.32745 0.0
C341 C 0.44184 0.65919 0.35226 0.0
C342 C 0.47812 0.68942 0.3127 0.0
N343 N 0.44022 0.69712 0.30291 0.0
O344 O 0.5534 0.7005 0.34932 0.0
H345 H 0.43165 0.64198 0.37557 0.0
H346 H 0.50372 0.70125 0.29816 0.0
O347 O 0.54655 0.62321 0.32409 0.0
C348 C 0.54819 0.72904 0.37193 0.0
O349 O 0.52523 0.72332 0.40082 0.0
N350 N 0.5049 0.60922 0.39063 0.0
C351 C 0.49087 0.55506 0.44696 0.0
C352 C 0.50763 0.54234 0.41373 0.0
C353 C 0.51472 0.57006 0.38583 0.0
C354 C 0.48635 0.62132 0.42221 0.0
C355 C 0.47861 0.59456 0.45072 0.0
H356 H 0.53112 0.56016 0.36229 0.0
H357 H 0.48077 0.65272 0.42655 0.0
H358 H 0.61477 0.63027 0.34555 0.0
H359 H 0.63462 0.61417 0.45884 0.0
H360 H 0.38482 0.67882 0.32796 0.0
H361 H 0.51789 0.51193 0.41051 0.0
H362 H 0.46617 0.60521 0.47647 0.0
C363 C 0.86248 0.56002 0.42697 0.0
C364 C 0.87707 0.59739 0.43537 0.0
N365 N 0.88838 0.6147 0.40355 0.0
N366 N 0.86529 0.55416 0.39023 0.0
C367 C 0.88073 0.58831 0.37676 0.0
H368 H 0.85156 0.53808 0.44641 0.0
Co369 Co 0.8536 0.50787 0.3644 0.0
C370 C 0.90657 0.51249 0.29872 0.0
O371 O 0.917 0.475 0.30256 0.0
N372 N 0.84069 0.46127 0.3375 0.0
C373 C 0.83297 0.40064 0.31282 0.0
C374 C 0.85117 0.42233 0.34046 0.0
C375 C 0.81651 0.46216 0.30769 0.0
N376 N 0.81129 0.42612 0.29254 0.0
O377 O 0.80582 0.53239 0.34844 0.0
H378 H 0.87119 0.40995 0.3607 0.0
H379 H 0.80306 0.48886 0.29656 0.0
O380 O 0.88165 0.52838 0.32091 0.0
C381 C 0.7794 0.53031 0.37349 0.0
O382 O 0.78665 0.50867 0.40299 0.0
N383 N 0.89948 0.48515 0.38439 0.0
C384 C 0.95676 0.47412 0.4385 0.0
C385 C 0.96444 0.49914 0.40859 0.0
C386 C 0.93504 0.50483 0.38217 0.0
C387 C 0.89244 0.45906 0.41258 0.0
C388 C 0.92121 0.45236 0.4397 0.0
H389 H 0.93851 0.52972 0.36382 0.0
H390 H 0.86292 0.44666 0.41625 0.0
H391 H 0.88729 0.5938 0.34798 0.0
H392 H 0.87993 0.6105 0.4625 0.0
H393 H 0.83553 0.36894 0.30787 0.0
H394 H 0.99103 0.51753 0.40793 0.0
H395 H 0.91413 0.43379 0.46329 0.0
C396 C 0.91087 0.68493 0.07602 0.0
C397 C 0.87528 0.66883 0.06472 0.0
N398 N 0.87381 0.62993 0.07469 0.0
N399 N 0.93159 0.65714 0.09452 0.0
C400 C 0.90805 0.62462 0.09384 0.0
H401 H 0.92 0.71546 0.0724 0.0
Co402 Co 0.98096 0.66283 0.11771 0.0
C403 C 0.97989 0.60673 0.18277 0.0
O404 O 0.01857 0.60143 0.17969 0.0
N405 N 0.0304 0.66935 0.141 0.0
C406 C 0.09472 0.67899 0.15367 0.0
C407 C 0.06788 0.66486 0.12785 0.0
C408 C 0.03521 0.68591 0.17459 0.0
N409 N 0.07372 0.69215 0.18281 0.0
O410 O 0.96112 0.71029 0.14014 0.0
H411 H 0.0752 0.65402 0.10061 0.0
H412 H 0.01075 0.69509 0.19213 0.0
O413 O 0.96145 0.62926 0.15973 0.0
C414 C 0.97666 0.74237 0.12761 0.0
O415 O 0.01153 0.7407 0.11115 0.0
N416 N -0.00021 0.62002 0.09042 0.0
C417 C 0.99518 0.5689 0.03117 0.0
C418 C 0.99416 0.55379 0.06712 0.0
C419 C 0.99694 0.58003 0.09673 0.0
C420 C 0.00611 0.63429 0.05566 0.0
C421 C 0.00366 0.60911 0.0253 0.0
H422 H 0.99343 0.56806 0.12386 0.0
H423 H 0.0082 0.66614 0.05126 0.0
H424 H 0.9155 0.5984 0.10876 0.0
H425 H 0.85151 0.68585 0.05223 0.0
H426 H 0.12673 0.68144 0.15054 0.0
H427 H 0.98849 0.52245 0.07218 0.0
H428 H 0.00508 0.62134 -0.00235 0.0
C429 C 0.84371 0.93177 0.0886 0.0
C430 C 0.85662 0.89324 0.08291 0.0
N431 N 0.88348 0.88455 0.10928 0.0
N432 N 0.86211 0.9468 0.11864 0.0
C433 C 0.88666 0.91737 0.13013 0.0
H434 H 0.82173 0.94746 0.07232 0.0
Co435 Co 0.85235 0.99556 0.14159 0.0
C436 C 0.90025 0.98878 0.21243 0.0
O437 O 0.89964 0.02627 0.22274 0.0
N438 N 0.84197 0.04464 0.16519 0.0
C439 C 0.83578 0.10866 0.18133 0.0
C440 C 0.85408 0.08233 0.15749 0.0
C441 C 0.81687 0.04904 0.19405 0.0
N442 N 0.81243 0.08728 0.204 0.0
O443 O 0.80546 0.97316 0.16185 0.0
H444 H 0.87443 0.09073 0.13575 0.0
H445 H 0.80156 0.02477 0.20772 0.0
O446 O 0.88259 0.97754 0.18324 0.0
C447 C 0.77723 0.97871 0.13909 0.0
O448 O 0.78329 0.00272 0.11094 0.0
N449 N 0.89657 0.01603 0.11788 0.0
C450 C 0.94996 0.02189 0.06015 0.0
C451 C 0.96224 0.006 0.094 0.0
C452 C 0.93486 0.00333 0.12288 0.0
C453 C 0.88522 0.0341 0.08589 0.0
C454 C 0.9118 0.03803 0.05669 0.0
H455 H 0.94339 0.98707 0.14728 0.0
H456 H 0.8543 0.04218 0.0819 0.0
H457 H 0.90653 0.91929 0.15353 0.0
H458 H 0.84724 0.87323 0.06118 0.0
H459 H 0.83871 0.14079 0.18161 0.0
H460 H 0.99159 0.99293 0.09704 0.0
H461 H 0.90159 0.05004 0.03059 0.0
C462 C 0.58232 0.87796 0.07353 0.0
C463 C 0.62082 0.89234 0.07156 0.0
N464 N 0.63407 0.89702 0.10626 0.0
N465 N 0.57158 0.87449 0.10935 0.0
C466 C 0.60431 0.88531 0.12845 0.0
H467 H 0.56337 0.87111 0.0503 0.0
Co468 Co 0.52314 0.85888 0.12974 0.0
C469 C 0.51759 0.90852 0.19886 0.0
O470 O 0.47859 0.91161 0.19657 0.0
N471 N 0.47487 0.84225 0.15041 0.0
C472 C 0.41271 0.8209 0.15989 0.0
C473 C 0.4374 0.84222 0.13658 0.0
C474 C 0.47209 0.82128 0.18206 0.0
N475 N 0.43504 0.80756 0.18809 0.0
O476 O 0.54906 0.8126 0.14876 0.0
H477 H 0.42871 0.85496 0.11042 0.0
H478 H 0.49725 0.81447 0.19967 0.0
O479 O 0.53658 0.88865 0.17457 0.0
C480 C 0.54723 0.78501 0.12477 0.0
O481 O 0.52761 0.79155 0.09401 0.0
N482 N 0.49855 0.90238 0.10674 0.0
C483 C 0.49181 0.95907 0.05176 0.0
C484 C 0.49688 0.97094 0.08837 0.0
C485 C 0.5002 0.94189 0.11574 0.0
C486 C 0.48815 0.89101 0.07196 0.0
C487 C 0.48497 0.91899 0.04376 0.0
H488 H 0.50712 0.95181 0.14298 0.0
H489 H 0.48725 0.85965 0.06515 0.0
H490 H 0.60646 0.88533 0.15822 0.0
H491 H 0.63721 0.90015 0.04684 0.0
H492 H 0.38158 0.81379 0.15549 0.0
H493 H 0.50172 0.002 0.09518 0.0
H494 H 0.48075 0.90913 0.01558 0.0
C495 C 0.62802 0.583 0.06299 0.0
C496 C 0.61333 0.62131 0.06328 0.0
N497 N 0.61641 0.63523 0.09793 0.0
N498 N 0.63996 0.57324 0.0974 0.0
C499 C 0.63319 0.60602 0.11791 0.0
H500 H 0.62892 0.56314 0.03954 0.0
Co501 Co 0.65707 0.5241 0.11426 0.0
C502 C 0.61464 0.51483 0.18592 0.0
O503 O 0.60821 0.477 0.17879 0.0
N504 N 0.67546 0.47458 0.1322 0.0
C505 C 0.69225 0.41153 0.14475 0.0
C506 C 0.67093 0.43615 0.12144 0.0
C507 C 0.69957 0.47225 0.16196 0.0
N508 N 0.71019 0.43466 0.16994 0.0
O509 O 0.70754 0.54767 0.12552 0.0
H510 H 0.65343 0.42595 0.0984 0.0
H511 H 0.70922 0.4978 0.17782 0.0
O512 O 0.63505 0.53626 0.16351 0.0
C513 C 0.72801 0.54596 0.09589 0.0
O514 O 0.71271 0.52788 0.06705 0.0
N515 N 0.60882 0.50268 0.09822 0.0
C516 C 0.54249 0.49427 0.05323 0.0
C517 C 0.53923 0.51385 0.08701 0.0
C518 C 0.57317 0.519 0.10845 0.0
C519 C 0.61193 0.48232 0.06583 0.0
C520 C 0.57889 0.47727 0.04304 0.0
H521 H 0.57171 0.54057 0.1303 0.0
H522 H 0.641 0.47387 0.0556 0.0
H523 H 0.63924 0.60824 0.14716 0.0
H524 H 0.60062 0.63741 0.04021 0.0
H525 H 0.69456 0.37939 0.14332 0.0
H526 H 0.51179 0.52871 0.09473 0.0
H527 H 0.58246 0.46312 0.01639 0.0
C528 C 0.07183 0.09926 0.73537 0.0
C529 C 0.0371 0.08218 0.71943 0.0
C530 C 0.06064 0.01553 0.73696 0.0
C531 C 0.09171 0.0331 0.75782 0.0
N532 N 0.13812 0.08786 0.75981 0.0
N533 N 0.9967 0.02368 0.70739 0.0
C534 C 0.10072 0.074 0.75207 0.0
C535 C 0.031 0.04022 0.72081 0.0
N536 N 0.07615 0.13979 0.73637 0.0
N537 N 0.06172 0.97571 0.72937 0.0
H538 H 0.97442 0.03988 0.69421 0.0
H539 H 0.98878 0.99406 0.71202 0.0
H540 H 0.08636 0.95817 0.73582 0.0
H541 H 0.04177 0.96156 0.71169 0.0
H542 H 0.09837 0.15416 0.75136 0.0
H543 H 0.05536 0.15941 0.72503 0.0
H544 H 0.14758 0.1168 0.75418 0.0
H545 H 0.16146 0.0688 0.76694 0.0
C546 C 0.3889 0.99073 0.75467 0.0
C547 C 0.36648 0.01168 0.72792 0.0
C548 C 0.39146 0.07514 0.75212 0.0
C549 C 0.4175 0.05392 0.77626 0.0
N550 N 0.44566 0.99097 0.79552 0.0
N551 N 0.3302 0.07239 0.71699 0.0
C552 C 0.41731 0.01153 0.77625 0.0
C553 C 0.36304 0.05362 0.731 0.0
N554 N 0.38019 0.95178 0.76204 0.0
N555 N 0.39404 0.11559 0.74836 0.0
H556 H 0.30603 0.05666 0.70624 0.0
H557 H 0.32409 0.10249 0.72114 0.0
H558 H 0.41419 0.13332 0.76255 0.0
H559 H 0.37882 0.13134 0.72796 0.0
H560 H 0.39313 0.93567 0.78351 0.0
H561 H 0.35546 0.93771 0.75051 0.0
H562 H 0.44949 0.96024 0.79339 0.0
H563 H 0.46819 0.00498 0.8104 0.0
C564 C 0.46712 0.43399 0.77859 0.0
C565 C 0.4256 0.42598 0.78081 0.0
C566 C 0.43437 0.36797 0.74139 0.0
C567 C 0.47497 0.37809 0.73575 0.0
N568 N 0.53277 0.40939 0.76255 0.0
N569 N 0.36859 0.39325 0.75343 0.0
C570 C 0.49238 0.4082 0.75797 0.0
C571 C 0.40877 0.39543 0.75893 0.0
N572 N 0.48198 0.46727 0.79535 0.0
N573 N 0.42088 0.33078 0.73258 0.0
H574 H 0.34883 0.4147 0.76316 0.0
H575 H 0.3557 0.37303 0.73514 0.0
H576 H 0.44011 0.30819 0.72393 0.0
H577 H 0.39216 0.32098 0.73895 0.0
H578 H 0.51117 0.47727 0.79211 0.0
H579 H 0.46367 0.48733 0.8093 0.0
H580 H 0.54723 0.42884 0.78044 0.0
H581 H 0.55141 0.38689 0.75292 0.0
C582 C 0.01436 0.46076 0.77456 0.0
C583 C 0.02318 0.42033 0.78142 0.0
C584 C 0.08652 0.42711 0.74932 0.0
C585 C 0.07783 0.46777 0.74124 0.0
N586 N 0.03989 0.52599 0.75954 0.0
N587 N 0.05919 0.36199 0.76237 0.0
C588 C 0.04316 0.48549 0.75709 0.0
C589 C 0.05643 0.40247 0.76444 0.0
N590 N 0.97802 0.4752 0.78507 0.0
N591 N 0.12461 0.41298 0.74656 0.0
H592 H 0.0364 0.3432 0.77137 0.0
H593 H 0.08177 0.34761 0.74779 0.0
H594 H 0.14901 0.43161 0.74197 0.0
H595 H 0.13272 0.38434 0.75483 0.0
H596 H 0.96754 0.50339 0.778 0.0
H597 H 0.95669 0.45692 0.79756 0.0
H598 H 0.01665 0.54044 0.77303 0.0
H599 H 0.06324 0.54526 0.75341 0.0
C600 C 0.99157 0.93015 0.24331 0.0
C601 C 0.97318 0.89821 0.26249 0.0
C602 C 0.90727 0.92376 0.24551 0.0
C603 C 0.92545 0.95895 0.23155 0.0
N604 N 0.98519 0.99618 0.21683 0.0
N605 N 0.91618 0.85476 0.26359 0.0
C606 C 0.96772 0.96231 0.23029 0.0
C607 C 0.93167 0.89197 0.25809 0.0
N608 N 0.03103 0.92767 0.23426 0.0
N609 N 0.86666 0.92152 0.24842 0.0
H610 H 0.93432 0.83018 0.26907 0.0
H611 H 0.88663 0.84727 0.2582 0.0
H612 H 0.84773 0.94451 0.24011 0.0
H613 H 0.85191 0.89853 0.26215 0.0
H614 H 0.04583 0.94849 0.2179 0.0
H615 H 0.04744 0.90165 0.23832 0.0
H616 H 0.01549 0.00232 0.2195 0.0
H617 H 0.9692 0.01955 0.20504 0.0
C618 C 0.59683 0.97342 0.2462 0.0
C619 C 0.57877 0.97954 0.28091 0.0
C620 C 0.52443 0.93462 0.26366 0.0
C621 C 0.53974 0.93213 0.2272 0.0
N622 N 0.5852 0.96071 0.18203 0.0
N623 N 0.51892 0.97598 0.31785 0.0
C624 C 0.57464 0.95447 0.21789 0.0
C625 C 0.54054 0.96328 0.28823 0.0
N626 N 0.63498 0.98613 0.23986 0.0
N627 N 0.4957 0.90868 0.27549 0.0
H628 H 0.52819 -0.0004 0.33438 0.0
H629 H 0.48971 0.96679 0.32283 0.0
H630 H 0.48507 0.88535 0.25926 0.0
H631 H 0.486 0.90747 0.3028 0.0
H632 H 0.65101 0.97828 0.21629 0.0
H633 H 0.65146 0.00223 0.25917 0.0
H634 H 0.60712 0.98114 0.17447 0.0
H635 H 0.56938 0.94959 0.15978 0.0
C636 C 0.59142 0.56236 0.27885 0.0
C637 C 0.55248 0.57813 0.27236 0.0
C638 C 0.55169 0.54295 0.21339 0.0
C639 C 0.59295 0.53428 0.21675 0.0
N640 N 0.65371 0.54039 0.2518 0.0
N641 N 0.50094 0.59143 0.2273 0.0
C642 C 0.6135 0.54602 0.24898 0.0
C643 C 0.5342 0.57088 0.23774 0.0
N644 N 0.60607 0.55913 0.31375 0.0
N645 N 0.52851 0.52347 0.18834 0.0
H646 H 0.48899 0.61451 0.24301 0.0
H647 H 0.48853 0.58886 0.20102 0.0
H648 H 0.53904 0.49961 0.17284 0.0
H649 H 0.49771 0.52744 0.18682 0.0
H650 H 0.63267 0.5445 0.31983 0.0
H651 H 0.58929 0.56597 0.33688 0.0
H652 H 0.67053 0.55209 0.27343 0.0
H653 H 0.6705 0.52643 0.23133 0.0
C654 C 0.96169 0.55635 0.27476 0.0
C655 C 0.92465 0.53691 0.26907 0.0
C656 C 0.92524 0.55986 0.20529 0.0
C657 C 0.95847 0.58494 0.21279 0.0
N658 N 0.00205 0.61351 0.25886 0.0
N659 N 0.86746 0.52595 0.22999 0.0
C660 C 0.97461 0.5854 0.24895 0.0
C661 C 0.90487 0.54112 0.23488 0.0
N662 N 0.98593 0.54534 0.30317 0.0
N663 N 0.91594 0.54976 0.17004 0.0
H664 H 0.85225 0.51052 0.25063 0.0
H665 H 0.85064 0.53152 0.20635 0.0
H666 H 0.93466 0.55678 0.1483 0.0
H667 H 0.89413 0.5288 0.16358 0.0
H668 H 0.01432 0.5573 0.30704 0.0
H669 H 0.98026 0.52007 0.319 0.0
H670 H 0.01223 0.61665 0.28589 0.0
H671 H 0.01108 0.6363 0.24111 0.0
C672 C 0.96599 0.9801 0.47406 0.0
C673 C 0.00505 0.97782 0.45892 0.0
C674 C 0.02898 0.0265 0.50372 0.0
C675 C 0.98928 0.03116 0.5167 0.0
N676 N 0.91902 0.01742 0.51126 0.0
N677 N 0.07247 0.0022 0.45525 0.0
C678 C 0.95743 0.00951 0.50091 0.0
C679 C 0.03625 0.00199 0.4726 0.0
N680 N 0.93759 0.95298 0.46396 0.0
N681 N 0.05983 0.04468 0.52173 0.0
H682 H 0.0788 0.98421 0.43252 0.0
H683 H 0.09514 0.02234 0.46141 0.0
H684 H 0.05576 0.06408 0.54387 0.0
H685 H 0.08964 0.03811 0.5166 0.0
H686 H 0.90995 0.9504 0.47685 0.0
H687 H 0.94281 0.93069 0.44462 0.0
H688 H 0.89422 0.00589 0.49768 0.0
H689 H 0.91181 0.03797 0.53178 0.0
C690 C 0.50097 0.03279 0.49179 0.0
C691 C 0.53465 0.00774 0.48841 0.0
C692 C 0.50886 0.96297 0.53632 0.0
C693 C 0.47505 0.98793 0.53956 0.0
N694 N 0.441 0.04956 0.52555 0.0
N695 N 0.57491 0.95313 0.51054 0.0
C696 C 0.47183 0.02388 0.51891 0.0
C697 C 0.54003 0.97419 0.51187 0.0
N698 N 0.49626 0.06418 0.46803 0.0
N699 N 0.5102 0.92781 0.55545 0.0
H700 H 0.59796 0.9599 0.49228 0.0
H701 H 0.58246 0.93072 0.52913 0.0
H702 H 0.48811 0.91919 0.57412 0.0
H703 H 0.53177 0.90598 0.55146 0.0
H704 H 0.47013 0.08069 0.46566 0.0
H705 H 0.51818 0.07279 0.44917 0.0
H706 H 0.43927 0.07825 0.51471 0.0
H707 H 0.41811 0.04333 0.54411 0.0
C708 C 0.45974 0.47837 0.51852 0.0
C709 C 0.49649 0.47324 0.53738 0.0
C710 C 0.5271 0.52625 0.50082 0.0
C711 C 0.49169 0.52849 0.47941 0.0
N712 N 0.42504 0.50631 0.46569 0.0
N713 N 0.56575 0.48965 0.54614 0.0
C714 C 0.458 0.50471 0.48787 0.0
C715 C 0.53028 0.49673 0.52868 0.0
N716 N 0.42663 0.45801 0.53007 0.0
N717 N 0.55744 0.55271 0.49467 0.0
H718 H 0.56869 0.46932 0.5678 0.0
H719 H 0.59279 0.50214 0.53804 0.0
H720 H 0.55666 0.574 0.47375 0.0
H721 H 0.58222 0.55561 0.51172 0.0
H722 H 0.39799 0.46339 0.52022 0.0
H723 H 0.42722 0.43723 0.55149 0.0
H724 H 0.40112 0.48666 0.46766 0.0
H725 H 0.42247 0.52613 0.4436 0.0
C726 C 0.97271 0.50733 0.49814 0.0
C727 C 0.98212 0.47767 0.47157 0.0
C728 C 0.04213 0.45953 0.50589 0.0
C729 C 0.03407 0.49105 0.53097 0.0
N730 N 0.99594 0.54881 0.54843 0.0
N731 N 0.02699 0.42834 0.44715 0.0
C732 C 0.00046 0.51599 0.52645 0.0
C733 C 0.01719 0.45447 0.47461 0.0
N734 N 0.93698 0.52689 0.4965 0.0
N735 N 0.07301 0.4339 0.51254 0.0
H736 H 0.00843 0.42274 0.42465 0.0
H737 H 0.05439 0.41392 0.4454 0.0
H738 H 0.09289 0.43743 0.5344 0.0
H739 H 0.0776 0.40763 0.49791 0.0
H740 H 0.92641 0.5455 0.51725 0.0
H741 H 0.91622 0.52221 0.47564 0.0
H742 H 0.97458 0.57077 0.54393 0.0
H743 H 0.01577 0.556 0.56958 0.0
C744 C 0.00114 0.49198 0.95579 0.0
C745 C 0.95998 0.48261 0.95157 0.0
C746 C 0.94246 0.53845 0.99152 0.0
C747 C 0.98351 0.5431 0.0002 0.0
N748 N 0.05251 0.52774 0.98794 0.0
N749 N 0.89107 0.49601 0.96543 0.0
C750 C 0.01293 0.52112 0.98136 0.0
C751 C 0.93039 0.50602 0.96897 0.0
N752 N 0.0301 0.47288 0.9363 0.0
N753 N 0.91536 0.5655 0.0043 0.0
H754 H 0.88136 0.47303 0.94827 0.0
H755 H 0.86835 0.50889 0.98092 0.0
H756 H 0.92353 0.58982 0.0205 0.0
H757 H 0.88551 0.56591 -0.00356 0.0
H758 H 0.02453 0.45148 0.91612 0.0
H759 H 0.02453 0.45148 0.91612 0.0
H760 H 0.07499 0.51159 0.97479 0.0
H761 H 0.06272 0.54936 0.00632 0.0
C762 C 0.99425 0.97408 0.97472 0.0
C763 C 0.02253 0.00338 0.96449 0.0
C764 C 0.00404 0.04461 0.01755 0.0
C765 C 0.97461 0.0161 0.02689 0.0
N766 N 0.9367 0.95702 0.01193 0.0
N767 N 0.05087 0.06906 0.97186 0.0
C768 C 0.96817 0.9818 0.00469 0.0
C769 C 0.02634 0.03949 0.98463 0.0
N770 N 0.9933 0.9384 0.95654 0.0
N771 N 0.01121 0.07601 0.04064 0.0
H772 H 0.0685 0.06597 0.94837 0.0
H773 H 0.05171 0.0977 0.98281 0.0
H774 H 0.99444 0.08133 0.06438 0.0
H775 H 0.03526 0.09539 0.03772 0.0
H776 H 0.9768 0.9139 0.96545 0.0
H777 H 0.01116 0.9323 0.93365 0.0
H778 H 0.9276 0.93434 0.99427 0.0
H779 H 0.91778 0.9606 0.03452 0.0
C780 C 0.47611 0.0359 0.97637 0.0
C781 C 0.51484 0.03663 0.96031 0.0
C782 C 0.53932 0.99098 0.00762 0.0
C783 C 0.49976 0.98727 0.02138 0.0
N784 N 0.42977 0.00252 0.01754 0.0
N785 N 0.58263 0.01326 0.95802 0.0
C786 C 0.46793 0.00885 0.00549 0.0
C787 C 0.54634 0.01377 0.97526 0.0
N788 N 0.44735 0.06153 0.9641 0.0
N789 N 0.57018 0.97321 0.02595 0.0
H790 H 0.5892 0.03098 0.93512 0.0
H791 H 0.60551 0.99366 0.96489 0.0
H792 H 0.56599 0.95565 0.04933 0.0
H793 H 0.60011 0.97813 0.01984 0.0
H794 H 0.42012 0.06577 0.97731 0.0
H795 H 0.45167 0.08087 0.94198 0.0
H796 H 0.40463 0.01357 0.00418 0.0
H797 H 0.42293 0.98388 0.03974 0.0
C798 C 0.46788 0.53719 0.98522 0.0
C799 C 0.4499 0.5018 0.97221 0.0
C800 C 0.48881 0.46209 0.01589 0.0
C801 C 0.5098 0.49696 0.02609 0.0
N802 N 0.52486 0.56661 0.01548 0.0
N803 N 0.44813 0.42976 0.96972 0.0
C804 C 0.50083 0.53433 0.00948 0.0
C805 C 0.46162 0.46394 0.98606 0.0
N806 N 0.45302 0.57347 0.9749 0.0
N807 N 0.49423 0.42748 0.03521 0.0
H808 H 0.42861 0.42966 0.94733 0.0
H809 H 0.45909 0.40156 0.97615 0.0
H810 H 0.51399 0.42511 0.05733 0.0
H811 H 0.47663 0.40221 0.03145 0.0
H812 H 0.46226 0.60025 0.98663 0.0
H813 H 0.42894 0.57657 0.95691 0.0
H814 H 0.52216 0.59333 0.00102 0.0
H815 H 0.54993 0.56568 0.0324 0.0
C816 C 0.88639 0.25248 0.71879 0.0
C817 C 0.89312 0.21099 0.72184 0.0
C818 C 0.89374 0.21546 0.78906 0.0
C819 C 0.8896 0.25737 0.78595 0.0
N820 N 0.87218 0.31483 0.75029 0.0
N821 N 0.8934 0.15126 0.75795 0.0
C822 C 0.88215 0.27542 0.75142 0.0
C823 C 0.89303 0.19192 0.75656 0.0
N824 N 0.88689 0.27001 0.68476 0.0
N825 N 0.90128 0.19874 0.82271 0.0
H826 H 0.89323 0.13394 0.73405 0.0
H827 H 0.89059 0.13486 0.78222 0.0
H828 H 0.90111 0.21517 0.84705 0.0
H829 H 0.90933 0.16907 0.82648 0.0
H830 H 0.88649 0.30069 0.68053 0.0
H831 H 0.8894 0.25354 0.66049 0.0
H832 H 0.86369 0.32975 0.72636 0.0
H833 H 0.86936 0.33177 0.7743 0.0
C834 C 0.20709 0.89996 0.70283 0.0
C835 C 0.24879 0.89449 0.70132 0.0
C836 C 0.25292 0.89552 0.76855 0.0
C837 C 0.21166 0.90396 0.7699 0.0
N838 N 0.14753 0.90289 0.74086 0.0
N839 N 0.30956 0.87536 0.73118 0.0
C840 C 0.18803 0.90205 0.73771 0.0
C841 C 0.27097 0.8878 0.73387 0.0
N842 N 0.18651 0.9058 0.67081 0.0
N843 N 0.27501 0.89769 0.80011 0.0
H844 H 0.32328 0.87048 0.70575 0.0
H845 H 0.32671 0.86684 0.75379 0.0
H846 H 0.26213 0.90296 0.82585 0.0
H847 H 0.30602 0.89625 0.8006 0.0
H848 H 0.15677 0.91461 0.6698 0.0
H849 H 0.20015 0.90314 0.64502 0.0
H850 H 0.12823 0.89854 0.71874 0.0
H851 H 0.13339 0.90454 0.76648 0.0
C852 C 0.6203 0.18971 0.71925 0.0
C853 C 0.60536 0.19928 0.75456 0.0
C854 C 0.59872 0.26859 0.7356 0.0
C855 C 0.60016 0.25563 0.69846 0.0
N856 N 0.61683 0.20488 0.65412 0.0
N857 N 0.60699 0.25062 0.80028 0.0
C858 C 0.61347 0.21674 0.68994 0.0
C859 C 0.60334 0.23999 0.76418 0.0
N860 N 0.64311 0.15656 0.71465 0.0
N861 N 0.59061 0.30755 0.74303 0.0
H862 H 0.61272 0.22922 0.82058 0.0
H863 H 0.60781 0.28 0.80942 0.0
H864 H 0.58926 0.32888 0.72209 0.0
H865 H 0.58468 0.31835 0.76938 0.0
H866 H 0.657 0.14946 0.68978 0.0
H867 H 0.65209 0.1395 0.73731 0.0
H868 H 0.62229 0.17539 0.64666 0.0
H869 H 0.61206 0.22424 0.63204 0.0
C870 C 0.23455 0.61712 0.74341 0.0
C871 C 0.1998 0.59319 0.74312 0.0
C872 C 0.21085 0.57584 0.80789 0.0
C873 C 0.25045 0.58929 0.80358 0.0
N874 N 0.2859 0.64677 0.78175 0.0
N875 N 0.14818 0.56029 0.77729 0.0
C876 C 0.25762 0.61832 0.77608 0.0
C877 C 0.18535 0.57663 0.77659 0.0
N878 N 0.24728 0.63563 0.71205 0.0
N879 N 0.19779 0.56456 0.84193 0.0
H880 H 0.12929 0.56268 0.75457 0.0
H881 H 0.13632 0.5449 0.79969 0.0
H882 H 0.21581 0.56836 0.86517 0.0
H883 H 0.16881 0.55527 0.84759 0.0
H884 H 0.2749 0.64976 0.71006 0.0
H885 H 0.23096 0.63524 0.68762 0.0
H886 H 0.29076 0.67042 0.7636 0.0
H887 H 0.30135 0.6483 0.80675 0.0
C888 C 0.08753 0.75726 0.21096 0.0
C889 C 0.08725 0.71515 0.2137 0.0
C890 C 0.09145 0.71907 0.28098 0.0
C891 C 0.08874 0.76105 0.27826 0.0
N892 N 0.09339 0.82093 0.2425 0.0
N893 N 0.09627 0.65546 0.24891 0.0
C894 C 0.09021 0.78037 0.24363 0.0
C895 C 0.09214 0.69593 0.24812 0.0
N896 N 0.08264 0.77477 0.17722 0.0
N897 N 0.09124 0.7017 0.31507 0.0
H898 H 0.09637 0.63845 0.22481 0.0
H899 H 0.10174 0.63895 0.27268 0.0
H900 H 0.09187 0.71849 0.33926 0.0
H901 H 0.08961 0.67114 0.31964 0.0
H902 H 0.07806 0.80514 0.17328 0.0
H903 H 0.08175 0.75835 0.15283 0.0
H904 H 0.0972 0.83734 0.21837 0.0
H905 H 0.09523 0.83805 0.26645 0.0
C906 C 0.79841 0.10214 0.26895 0.0
C907 C 0.78542 0.10096 0.23189 0.0
C908 C 0.71574 0.10209 0.25159 0.0
C909 C 0.72871 0.10037 0.28865 0.0
N910 N 0.78043 0.10733 0.33379 0.0
N911 N 0.73375 0.10913 0.1869 0.0
C912 C 0.7696 0.10384 0.29764 0.0
C913 C 0.74455 0.10455 0.22296 0.0
N914 N 0.83821 0.099 0.27633 0.0
N915 N 0.67599 0.09866 0.24411 0.0
H916 H 0.7548 0.11035 0.1657 0.0
H917 H 0.70467 0.11441 0.17822 0.0
H918 H 0.65455 0.09779 0.265 0.0
H919 H 0.66434 0.09523 0.21771 0.0
H920 H 0.85001 0.09543 0.30266 0.0
H921 H 0.85962 0.09873 0.25541 0.0
H922 H 0.80952 0.11233 0.34261 0.0
H923 H 0.75946 0.10781 0.35506 0.0
C924 C 0.42357 0.76508 0.28241 0.0
C925 C 0.42809 0.72407 0.27427 0.0
C926 C 0.42601 0.73791 0.20811 0.0
C927 C 0.42467 0.77922 0.21621 0.0
N928 N 0.41466 0.83259 0.25887 0.0
N929 N 0.42447 0.66988 0.2316 0.0
C930 C 0.42055 0.79285 0.25287 0.0
C931 C 0.42597 0.71001 0.23765 0.0
N932 N 0.42383 0.77715 0.31838 0.0
N933 N 0.42978 0.7258 0.17231 0.0
H934 H 0.42436 0.64936 0.25328 0.0
H935 H 0.42056 0.65691 0.20582 0.0
H936 H 0.42988 0.74569 0.1502 0.0
H937 H 0.43459 0.69644 0.16434 0.0
H938 H 0.42339 0.80675 0.32681 0.0
H939 H 0.42556 0.75705 0.3403 0.0
H940 H 0.40995 0.84527 0.28465 0.0
H941 H 0.41238 0.85296 0.23715 0.0
C942 C 0.71918 0.41815 0.23548 0.0
C943 C 0.73568 0.42294 0.19982 0.0
C944 C 0.80323 0.42172 0.22528 0.0
C945 C 0.78668 0.41814 0.26105 0.0
N946 N 0.7308 0.40661 0.3009 0.0
N947 N 0.79197 0.42272 0.15899 0.0
C948 C 0.74509 0.41393 0.26625 0.0
C949 C 0.77742 0.42223 0.19418 0.0
N950 N 0.67873 0.4196 0.23972 0.0
N951 N 0.84344 0.42689 0.22157 0.0
H952 H 0.77332 0.42394 0.13598 0.0
H953 H 0.82198 0.41949 0.15236 0.0
H954 H 0.86281 0.42575 0.24407 0.0
H955 H 0.8575 0.434 0.19683 0.0
H956 H 0.66431 0.42039 0.26512 0.0
H957 H 0.65935 0.42146 0.21727 0.0
H958 H 0.70104 0.40068 0.30687 0.0
H959 H 0.74958 0.40398 0.32372 0.0
C960 C 0.18816 0.05254 0.63138 0.0
C961 C 0.20998 0.04329 0.59897 0.0
C962 C 0.16466 0.08534 0.56281 0.0
C963 C 0.14611 0.09802 0.59577 0.0
N964 N 0.14703 0.10138 0.66211 0.0
N965 N 0.2245 0.05922 0.53501 0.0
C966 C 0.15976 0.08378 0.63031 0.0
C967 C 0.19975 0.06187 0.56488 0.0
N968 N 0.1933 0.03061 0.66282 0.0
N969 N 0.14821 0.0949 0.52951 0.0
H970 H 0.25166 0.04426 0.53547 0.0
H971 H 0.22015 0.07561 0.5109 0.0
H972 H 0.12199 0.11138 0.52711 0.0
H973 H 0.15824 0.08302 0.50464 0.0
H974 H 0.17537 0.03396 0.68612 0.0
H975 H 0.21239 0.00618 0.66416 0.0
H976 H 0.15945 0.09485 0.68772 0.0
H977 H 0.12766 0.12567 0.66234 0.0
C978 C 0.3739 0.17561 0.62186 0.0
C979 C 0.39484 0.14114 0.61093 0.0
C980 C 0.45848 0.17604 0.61799 0.0
C981 C 0.4372 0.2121 0.623 0.0
N982 N 0.3748 0.24696 0.63118 0.0
N983 N 0.45617 0.10606 0.6009 0.0
C984 C 0.39494 0.21202 0.62615 0.0
C985 C 0.43701 0.1405 0.61015 0.0
N986 N 0.33384 0.17304 0.62841 0.0
N987 N 0.49909 0.17601 0.6214 0.0
H988 H 0.44096 0.07928 0.59717 0.0
H989 H 0.48662 0.10405 0.59574 0.0
H990 H 0.51521 0.20167 0.62798 0.0
H991 H 0.51656 0.15042 0.62074 0.0
H992 H 0.31702 0.19586 0.64002 0.0
H993 H 0.31788 0.14661 0.62486 0.0
H994 H 0.34405 0.24977 0.62842 0.0
H995 H 0.38898 0.27379 0.63692 0.0
C996 C 0.3033 0.37561 0.65098 0.0
C997 C 0.33707 0.39494 0.63611 0.0
C998 C 0.30679 0.4598 0.6482 0.0
C999 C 0.2701 0.44047 0.65571 0.0
N1000 N 0.23338 0.37925 0.66672 0.0
N1001 N 0.37293 0.45488 0.62139 0.0
C1002 C 0.26844 0.39815 0.6587 0.0
C1003 C 0.33966 0.43699 0.63553 0.0
N1004 N 0.30504 0.33567 0.65809 0.0
N1005 N 0.30987 0.50001 0.65342 0.0
H1006 H 0.39767 0.43871 0.61257 0.0
H1007 H 0.3752 0.48537 0.61642 0.0
H1008 H 0.28616 0.51694 0.66357 0.0
H1009 H 0.33651 0.51577 0.6512 0.0
H1010 H 0.28305 0.32007 0.67238 0.0
H1011 H 0.33041 0.3188 0.65244 0.0
H1012 H 0.22905 0.34873 0.66344 0.0
H1013 H 0.20798 0.3939 0.6759 0.0
C1014 C 0.09585 0.31155 0.66254 0.0
C1015 C 0.09546 0.33567 0.63047 0.0
C1016 C 0.04283 0.29483 0.604 0.0
C1017 C 0.03974 0.27312 0.63773 0.0
N1018 N 0.0587 0.26618 0.70177 0.0
N1019 N 0.06062 0.35777 0.57624 0.0
C1020 C 0.06501 0.28296 0.66788 0.0
C1021 C 0.06647 0.32961 0.6029 0.0
N1022 N 0.12618 0.3155 0.68735 0.0
N1023 N 0.02568 0.28117 0.57221 0.0
H1024 H 0.07624 0.38462 0.57588 0.0
H1025 H 0.03721 0.35644 0.55737 0.0
H1026 H 0.01125 0.2538 0.57004 0.0
H1027 H 0.03043 0.29467 0.54665 0.0
H1028 H 0.13028 0.29624 0.70961 0.0
H1029 H 0.14916 0.33615 0.68384 0.0
H1030 H 0.07412 0.27476 0.7254 0.0
H1031 H 0.03536 0.24642 0.70708 0.0
C1032 C 0.21595 0.37372 0.86239 0.0
C1033 C 0.22218 0.41079 0.84434 0.0
C1034 C 0.15028 0.42243 0.84258 0.0
C1035 C 0.14434 0.38677 0.86298 0.0
N1036 N 0.1689 0.32352 0.88367 0.0
N1037 N 0.19614 0.46399 0.80733 0.0
C1038 C 0.17647 0.36063 0.86979 0.0
C1039 C 0.18943 0.43276 0.83072 0.0
N1040 N 0.24803 0.35229 0.87426 0.0
N1041 N 0.11892 0.44756 0.83686 0.0
H1042 H 0.22481 0.47158 0.79851 0.0
H1043 H 0.17353 0.47957 0.79398 0.0
H1044 H 0.0903 0.44104 0.84619 0.0
H1045 H 0.12159 0.47573 0.82508 0.0
H1046 H 0.24615 0.32756 0.89155 0.0
H1047 H 0.27702 0.36037 0.86731 0.0
H1048 H 0.19044 0.30139 0.88639 0.0
H1049 H 0.14007 0.31385 0.88985 0.0
C1050 C 0.11083 0.19692 0.86445 0.0
C1051 C 0.09176 0.16139 0.8757 0.0
C1052 C 0.0268 0.19426 0.87389 0.0
C1053 C 0.04624 0.23032 0.86397 0.0
N1054 N 0.10392 0.26273 0.8378 0.0
N1055 N 0.03211 0.1229 0.88462 0.0
C1056 C 0.0874 0.23061 0.85519 0.0
C1057 C 0.04973 0.15897 0.8781 0.0
N1058 N 0.15148 0.1987 0.86412 0.0
N1059 N 0.98655 0.19431 0.87995 0.0
H1060 H 0.04856 0.09698 0.88897 0.0
H1061 H 0.00151 0.11797 0.88376 0.0
H1062 H 0.9688 0.21913 0.87432 0.0
H1063 H 0.97077 0.17044 0.89107 0.0
H1064 H 0.16758 0.22487 0.85992 0.0
H1065 H 0.16909 0.17426 0.8711 0.0
H1066 H 0.13316 0.26338 0.82813 0.0
H1067 H 0.08714 0.28707 0.82923 0.0
C1068 C 0.30245 0.12879 0.86124 0.0
C1069 C 0.33662 0.11035 0.87637 0.0
C1070 C 0.30365 0.04524 0.87356 0.0
C1071 C 0.26772 0.0643 0.86341 0.0
N1072 N 0.23213 0.12417 0.84627 0.0
N1073 N 0.36991 0.0514 0.89886 0.0
C1074 C 0.26696 0.10604 0.85626 0.0
C1075 C 0.33727 0.06864 0.88302 0.0
N1076 N 0.30429 0.16825 0.85197 0.0
N1077 N 0.30588 0.00454 0.87264 0.0
H1078 H 0.39605 0.06693 0.90423 0.0
H1079 H 0.37035 0.02224 0.90872 0.0
H1080 H 0.28193 0.9867 0.86451 0.0
H1081 H 0.33229 0.98867 0.87605 0.0
H1082 H 0.28245 0.18322 0.83704 0.0
H1083 H 0.3291 0.18587 0.85797 0.0
H1084 H 0.22883 0.1548 0.84346 0.0
H1085 H 0.20576 0.10873 0.84149 0.0
C1086 C 0.37239 0.2828 0.8354 0.0
C1087 C 0.39139 0.31584 0.85235 0.0
C1088 C 0.45605 0.29218 0.83012 0.0
C1089 C 0.43831 0.25564 0.82033 0.0
N1090 N 0.37934 0.22153 0.79981 0.0
N1091 N 0.45179 0.35139 0.86753 0.0
C1092 C 0.39617 0.25256 0.81847 0.0
C1093 C 0.43333 0.32079 0.84958 0.0
N1094 N 0.3318 0.27998 0.83701 0.0
N1095 N 0.49495 0.29891 0.82086 0.0
H1096 H 0.43649 0.37187 0.88371 0.0
H1097 H 0.48264 0.35441 0.86924 0.0
H1098 H 0.51148 0.27789 0.8061 0.0
H1099 H 0.50911 0.32633 0.82409 0.0
H1100 H 0.31531 0.25613 0.82694 0.0
H1101 H 0.31432 0.30158 0.84982 0.0
H1102 H 0.34886 0.21739 0.79643 0.0
H1103 H 0.39626 0.20173 0.78425 0.0
C1104 C 0.80942 0.88427 0.36378 0.0
C1105 C 0.84354 0.90556 0.37529 0.0
C1106 C 0.80765 0.96856 0.36898 0.0
C1107 C 0.77176 0.94684 0.36434 0.0
N1108 N 0.73794 0.8842 0.35418 0.0
N1109 N 0.87755 0.96728 0.38648 0.0
C1110 C 0.77254 0.90474 0.35997 0.0
C1111 C 0.84349 0.94766 0.37668 0.0
N1112 N 0.81268 0.84446 0.35653 0.0
N1113 N 0.80714 0.00913 0.36546 0.0
H1114 H 0.90455 0.95253 0.39053 0.0
H1115 H 0.87886 -0.00233 0.39204 0.0
H1116 H 0.78116 0.02473 0.35886 0.0
H1117 H 0.83258 0.0269 0.36572 0.0
H1118 H 0.79016 0.82734 0.3448 0.0
H1119 H 0.83943 0.82904 0.35976 0.0
H1120 H 0.73572 0.85329 0.35503 0.0
H1121 H 0.71081 0.8981 0.34918 0.0
C1122 C 0.56745 0.83926 0.36936 0.0
C1123 C 0.60656 0.84092 0.38408 0.0
C1124 C 0.61008 0.7684 0.38515 0.0
C1125 C 0.57126 0.7665 0.36958 0.0
N1126 N 0.51716 0.79936 0.33853 0.0
N1127 N 0.66874 0.80848 0.3971 0.0
C1128 C 0.55136 0.80181 0.35881 0.0
C1129 C 0.62905 0.80584 0.38905 0.0
N1130 N 0.54491 0.87308 0.36761 0.0
N1131 N 0.62795 0.73477 0.39821 0.0
H1132 H 0.6833 0.83573 0.40026 0.0
H1133 H 0.68782 0.78399 0.39731 0.0
H1134 H 0.61543 0.70677 0.39497 0.0
H1135 H 0.65373 0.73499 0.41423 0.0
H1136 H 0.5148 0.87316 0.36062 0.0
H1137 H 0.55539 0.90071 0.37642 0.0
H1138 H 0.50305 0.82404 0.32696 0.0
H1139 H 0.50527 0.77207 0.33024 0.0
C1140 C 0.70583 0.53228 0.37912 0.0
C1141 C 0.74172 0.55306 0.37162 0.0
C1142 C 0.70639 0.61679 0.37667 0.0
C1143 C 0.67265 0.59604 0.39006 0.0
N1144 N 0.63831 0.53457 0.40297 0.0
N1145 N 0.77658 0.61532 0.36126 0.0
C1146 C 0.6718 0.55385 0.39091 0.0
C1147 C 0.74203 0.59541 0.3691 0.0
N1148 N 0.70418 0.49201 0.37349 0.0
N1149 N 0.70403 0.65704 0.37137 0.0
H1150 H 0.80305 0.60127 0.35417 0.0
H1151 H 0.77964 0.64611 0.36257 0.0
H1152 H 0.67895 0.67349 0.37872 0.0
H1153 H 0.72555 0.67391 0.35776 0.0
H1154 H 0.67813 0.47525 0.37524 0.0
H1155 H 0.72842 0.47585 0.36336 0.0
H1156 H 0.63714 0.50412 0.4084 0.0
H1157 H 0.61183 0.54935 0.40918 0.0
C1158 C 0.94912 0.65324 0.39112 0.0
C1159 C 0.90768 0.65239 0.39838 0.0
C1160 C 0.90319 0.72444 0.38906 0.0
C1161 C 0.94468 0.72523 0.38114 0.0
N1162 N 0.00589 0.6907 0.368 0.0
N1163 N 0.84403 0.68462 0.40116 0.0
C1164 C 0.96731 0.68961 0.38019 0.0
C1165 C 0.88436 0.68736 0.3965 0.0
N1166 N 0.971 0.61928 0.39588 0.0
N1167 N 0.88221 0.75927 0.39065 0.0
H1168 H 0.83003 0.65804 0.40864 0.0
H1169 H 0.8242 0.70784 0.39616 0.0
H1170 H 0.89432 0.78647 0.38264 0.0
H1171 H 0.85327 0.76164 0.40075 0.0
H1172 H 0.00194 0.61812 0.39413 0.0
H1173 H 0.95819 0.59248 0.40449 0.0
H1174 H 0.02318 0.66545 0.36343 0.0
H1175 H 0.01965 0.71704 0.35943 0.0
C1176 C 0.83903 0.56564 0.09084 0.0
C1177 C 0.83971 0.60289 0.0722 0.0
C1178 C 0.76732 0.60025 0.06611 0.0
C1179 C 0.7661 0.56758 0.09108 0.0
N1180 N 0.80109 0.51885 0.12778 0.0
N1181 N 0.80752 0.6355 0.02142 0.0
C1182 C 0.80208 0.55021 0.10374 0.0
C1183 C 0.80463 0.61481 0.05373 0.0
N1184 N 0.87199 0.54192 0.09029 0.0
N1185 N 0.73288 0.61811 0.05484 0.0
H1186 H 0.83507 0.64046 0.00876 0.0
H1187 H 0.78306 0.64217 0.0048 0.0
H1188 H 0.70497 0.60879 0.06393 0.0
H1189 H 0.73241 0.64439 0.03947 0.0
H1190 H 0.87208 0.51268 0.10003 0.0
H1191 H 0.89704 0.54921 0.07464 0.0
H1192 H 0.8266 0.5074 0.14031 0.0
H1193 H 0.77451 0.50643 0.13732 0.0
C1194 C 0.92903 0.79354 0.15314 0.0
C1195 C 0.9521 0.77883 0.12329 0.0
C1196 C 0.93269 0.83653 0.08595 0.0
C1197 C 0.90599 0.84845 0.11387 0.0
N1198 N 0.87331 0.83493 0.17169 0.0
N1199 N 0.96613 0.78136 0.05737 0.0
C1200 C 0.90255 0.82594 0.14687 0.0
C1201 C 0.95131 0.79889 0.08854 0.0
N1202 N 0.93352 0.77778 0.18768 0.0
N1203 N 0.94139 0.86181 0.05751 0.0
H1204 H 0.97726 0.75242 0.05653 0.0
H1205 H 0.96263 0.79372 0.03116 0.0
H1206 H 0.92923 0.89028 0.05558 0.0
H1207 H 0.96384 0.85618 0.03831 0.0
H1208 H 0.91988 0.78966 0.21101 0.0
H1209 H 0.95385 0.75519 0.19369 0.0
H1210 H 0.86675 0.81719 0.19452 0.0
H1211 H 0.85309 0.85806 0.16747 0.0
C1212 C 0.70385 0.97845 0.13495 0.0
C1213 C 0.73925 0.95643 0.14085 0.0
C1214 C 0.70256 0.89426 0.13022 0.0
C1215 C 0.66959 0.91693 0.11814 0.0
N1216 N 0.63821 0.9803 0.10739 0.0
N1217 N 0.77288 0.89262 0.14466 0.0
C1218 C 0.66999 0.959 0.12022 0.0
C1219 C 0.73871 0.91401 0.13938 0.0
N1220 N 0.70264 0.01786 0.14435 0.0
N1221 N 0.69906 0.85381 0.13293 0.0
H1222 H 0.79929 0.90504 0.15417 0.0
H1223 H 0.77555 0.86247 0.13841 0.0
H1224 H 0.67334 0.83866 0.12492 0.0
H1225 H 0.7203 0.83562 0.14539 0.0
H1226 H 0.6767 0.0349 0.14388 0.0
H1227 H 0.72694 0.03229 0.15638 0.0
H1228 H 0.63854 0.01113 0.10406 0.0
H1229 H 0.61194 0.96681 0.0985 0.0
C1230 C 0.6246 0.70766 0.10111 0.0
C1231 C 0.6031 0.67318 0.11114 0.0
C1232 C 0.55396 0.71399 0.14363 0.0
C1233 C 0.57131 0.74836 0.12767 0.0
N1234 N 0.62382 0.77906 0.09222 0.0
N1235 N 0.54692 0.64211 0.14095 0.0
C1236 C 0.60725 0.74557 0.10714 0.0
C1237 C 0.56799 0.67584 0.13277 0.0
N1238 N 0.66177 0.70381 0.08613 0.0
N1239 N 0.5241 0.71804 0.16893 0.0
H1240 H 0.5562 0.61381 0.13283 0.0
H1241 H 0.51894 0.64234 0.15341 0.0
H1242 H 0.51381 0.74591 0.1773 0.0
H1243 H 0.51244 0.69434 0.1841 0.0
H1244 H 0.68081 0.72772 0.08106 0.0
H1245 H 0.6749 0.67606 0.0817 0.0
H1246 H 0.647 0.7788 0.07311 0.0
H1247 H 0.61321 0.80736 0.09832 0.0
loop_
_geom_bond_atom_site_label_1
_geom_bond_atom_site_label_2
_geom_bond_distance
_geom_bond_site_symmetry_2
_ccdc_geom_bond_type
C0 C1 1.351 . S
C0 N3 1.368 . S
C0 H5 0.931 . S
C1 C0 1.351 . S
C1 N2 1.373 . S
C1 H29 0.930 . S
N2 C1 1.373 . S
N2 C4 1.340 . S
N3 C0 1.368 . S
N3 C4 1.321 . S
N3 Co6 2.135 . S
C4 N2 1.340 . S
C4 N3 1.321 . S
C4 H28 0.930 . S
H5 C0 0.931 . S
Co6 N3 2.135 . S
Co6 N9 2.121 1_455 S
Co6 O14 2.055 . S
Co6 O17 2.039 . S
Co6 N20 2.140 1_455 S
C7 O8 1.227 . S
C7 O17 1.265 . S
O8 C7 1.227 . S
N9 Co6 2.121 1_655 S
N9 C11 1.375 . S
N9 C12 1.313 . S
C10 C11 1.338 . S
C10 N13 1.377 . S
C10 H30 0.930 . S
C11 N9 1.375 . S
C11 C10 1.338 . S
C11 H15 0.931 . S
C12 N9 1.313 . S
C12 N13 1.344 . S
C12 H16 0.930 . S
N13 C10 1.377 . S
N13 C12 1.344 . S
O14 Co6 2.055 . S
O14 C18 1.253 . S
H15 C11 0.931 . S
H16 C12 0.930 . S
O17 Co6 2.039 . S
O17 C7 1.265 . S
C18 O14 1.253 . S
C18 O19 1.227 . S
O19 C18 1.227 . S
N20 Co6 2.140 1_655 S
N20 C23 1.346 . S
N20 C24 1.345 . S
C21 C22 1.387 . S
C21 C25 1.391 . S
C22 C21 1.387 . S
C22 C23 1.369 . S
C22 H31 0.929 . S
C23 N20 1.346 . S
C23 C22 1.369 . S
C23 H26 0.928 1_655 S
C24 N20 1.345 . S
C24 C25 1.371 . S
C24 H27 0.931 . S
C25 C21 1.391 . S
C25 C24 1.371 . S
C25 H32 0.930 . S
H26 C23 0.928 1_455 S
H27 C24 0.931 . S
H28 C4 0.930 . S
H29 C1 0.930 . S
H30 C10 0.930 . S
H31 C22 0.929 . S
H32 C25 0.930 . S
C33 C34 1.351 . S
C33 N36 1.368 . S
C33 H38 0.931 . S
C34 C33 1.351 . S
C34 N35 1.373 . S
C34 H62 0.930 . S
N35 C34 1.373 . S
N35 C37 1.340 . S
N36 C33 1.368 . S
N36 C37 1.321 . S
N36 Co39 2.135 . S
C37 N35 1.340 . S
C37 N36 1.321 . S
C37 H61 0.930 . S
H38 C33 0.931 . S
Co39 N36 2.135 . S
Co39 N42 2.121 1_545 S
Co39 O47 2.055 . S
Co39 O50 2.039 . S
Co39 N53 2.140 1_545 S
C40 O41 1.227 . S
C40 O50 1.265 . S
O41 C40 1.227 . S
N42 Co39 2.121 1_565 S
N42 C44 1.375 . S
N42 C45 1.313 . S
C43 C44 1.338 . S
C43 N46 1.377 . S
C43 H63 0.930 . S
C44 N42 1.375 . S
C44 C43 1.338 . S
C44 H48 0.931 . S
C45 N42 1.313 . S
C45 N46 1.344 . S
C45 H49 0.930 . S
N46 C43 1.377 . S
N46 C45 1.344 . S
O47 Co39 2.055 . S
O47 C51 1.253 . S
H48 C44 0.931 . S
H49 C45 0.930 . S
O50 Co39 2.039 . S
O50 C40 1.265 . S
C51 O47 1.253 . S
C51 O52 1.227 . S
O52 C51 1.227 . S
N53 Co39 2.140 1_565 S
N53 C56 1.346 . S
N53 C57 1.345 . S
C54 C55 1.387 . S
C54 C58 1.391 . S
C55 C54 1.387 . S
C55 C56 1.369 . S
C55 H64 0.929 . S
C56 N53 1.346 . S
C56 C55 1.369 . S
C56 H59 0.928 1_565 S
C57 N53 1.345 . S
C57 C58 1.371 . S
C57 H60 0.931 . S
C58 C54 1.391 . S
C58 C57 1.371 . S
C58 H65 0.930 . S
H59 C56 0.928 1_545 S
H60 C57 0.931 . S
H61 C37 0.930 . S
H62 C34 0.930 . S
H63 C43 0.930 . S
H64 C55 0.929 . S
H65 C58 0.930 . S
C66 C67 1.351 . S
C66 N69 1.368 . S
C66 H71 0.931 . S
C67 C66 1.351 . S
C67 N68 1.373 . S
C67 H95 0.930 . S
N68 C67 1.373 . S
N68 C70 1.340 . S
N69 C66 1.368 . S
N69 C70 1.321 . S
N69 Co72 2.135 . S
C70 N68 1.340 . S
C70 N69 1.321 . S
C70 H94 0.930 . S
H71 C66 0.931 . S
Co72 N69 2.135 . S
Co72 N75 2.121 . S
Co72 O80 2.055 . S
Co72 O83 2.039 . S
Co72 N86 2.140 . S
C73 O74 1.227 . S
C73 O83 1.265 . S
O74 C73 1.227 . S
N75 Co72 2.121 . S
N75 C77 1.375 . S
N75 C78 1.313 . S
C76 C77 1.338 . S
C76 N79 1.377 . S
C76 H96 0.930 . S
C77 N75 1.375 . S
C77 C76 1.338 . S
C77 H81 0.931 . S
C78 N75 1.313 . S
C78 N79 1.344 . S
C78 H82 0.930 . S
N79 C76 1.377 . S
N79 C78 1.344 . S
O80 Co72 2.055 . S
O80 C84 1.253 . S
H81 C77 0.931 . S
H82 C78 0.930 . S
O83 Co72 2.039 . S
O83 C73 1.265 . S
C84 O80 1.253 . S
C84 O85 1.227 . S
O85 C84 1.227 . S
N86 Co72 2.140 . S
N86 C89 1.346 . S
N86 C90 1.345 . S
C87 C88 1.387 . S
C87 C91 1.391 . S
C88 C87 1.387 . S
C88 C89 1.369 . S
C88 H97 0.929 . S
C89 N86 1.346 . S
C89 C88 1.369 . S
C89 H92 0.928 . S
C90 N86 1.345 . S
C90 C91 1.371 . S
C90 H93 0.931 . S
C91 C87 1.391 . S
C91 C90 1.371 . S
C91 H98 0.930 . S
H92 C89 0.928 . S
H93 C90 0.931 . S
H94 C70 0.930 . S
H95 C67 0.930 . S
H96 C76 0.930 . S
H97 C88 0.929 . S
H98 C91 0.930 . S
C99 C100 1.351 . S
C99 N102 1.368 . S
C99 H104 0.931 . S
C100 C99 1.351 . S
C100 N101 1.373 . S
C100 H128 0.930 . S
N101 C100 1.373 . S
N101 C103 1.340 . S
N102 C99 1.368 . S
N102 C103 1.321 . S
N102 Co105 2.135 . S
C103 N101 1.340 . S
C103 N102 1.321 . S
C103 H127 0.930 . S
H104 C99 0.931 . S
Co105 N102 2.135 . S
Co105 N108 2.121 . S
Co105 O113 2.055 . S
Co105 O116 2.039 . S
Co105 N119 2.140 . S
C106 O107 1.227 . S
C106 O116 1.265 . S
O107 C106 1.227 . S
N108 Co105 2.121 . S
N108 C110 1.375 . S
N108 C111 1.313 . S
C109 C110 1.338 . S
C109 N112 1.377 . S
C109 H129 0.930 . S
C110 N108 1.375 . S
C110 C109 1.338 . S
C110 H114 0.931 . S
C111 N108 1.313 . S
C111 N112 1.344 . S
C111 H115 0.930 . S
N112 C109 1.377 . S
N112 C111 1.344 . S
O113 Co105 2.055 . S
O113 C117 1.253 . S
H114 C110 0.931 . S
H115 C111 0.930 . S
O116 Co105 2.039 . S
O116 C106 1.265 . S
C117 O113 1.253 . S
C117 O118 1.227 . S
O118 C117 1.227 . S
N119 Co105 2.140 . S
N119 C122 1.346 . S
N119 C123 1.345 . S
C120 C121 1.387 . S
C120 C124 1.391 . S
C121 C120 1.387 . S
C121 C122 1.369 . S
C121 H130 0.929 . S
C122 N119 1.346 . S
C122 C121 1.369 . S
C122 H125 0.928 . S
C123 N119 1.345 . S
C123 C124 1.371 . S
C123 H126 0.931 . S
C124 C120 1.391 . S
C124 C123 1.371 . S
C124 H131 0.930 . S
H125 C122 0.928 . S
H126 C123 0.931 . S
H127 C103 0.930 . S
H128 C100 0.930 . S
H129 C109 0.930 . S
H130 C121 0.929 . S
H131 C124 0.930 . S
C132 C133 1.351 . S
C132 N135 1.368 . S
C132 H137 0.931 . S
C133 C132 1.351 . S
C133 N134 1.373 . S
C133 H161 0.930 . S
N134 C133 1.373 . S
N134 C136 1.340 . S
N135 C132 1.368 . S
N135 C136 1.321 . S
N135 Co138 2.135 . S
C136 N134 1.340 . S
C136 N135 1.321 . S
C136 H160 0.930 . S
H137 C132 0.931 . S
Co138 N135 2.135 . S
Co138 N141 2.121 1_455 S
Co138 O146 2.055 . S
Co138 O149 2.039 . S
Co138 N152 2.140 1_455 S
C139 O140 1.227 . S
C139 O149 1.265 . S
O140 C139 1.227 . S
N141 Co138 2.121 1_655 S
N141 C143 1.375 . S
N141 C144 1.313 . S
C142 C143 1.338 . S
C142 N145 1.377 . S
C142 H162 0.930 . S
C143 N141 1.375 . S
C143 C142 1.338 . S
C143 H147 0.931 . S
C144 N141 1.313 . S
C144 N145 1.344 . S
C144 H148 0.930 . S
N145 C142 1.377 . S
N145 C144 1.344 . S
O146 Co138 2.055 . S
O146 C150 1.253 . S
H147 C143 0.931 . S
H148 C144 0.930 . S
O149 Co138 2.039 . S
O149 C139 1.265 . S
C150 O146 1.253 . S
C150 O151 1.227 . S
O151 C150 1.227 . S
N152 Co138 2.140 1_655 S
N152 C155 1.346 . S
N152 C156 1.345 . S
C153 C154 1.387 . S
C153 C157 1.391 . S
C154 C153 1.387 . S
C154 C155 1.369 . S
C154 H163 0.929 . S
C155 N152 1.346 . S
C155 C154 1.369 . S
C155 H158 0.928 1_655 S
C156 N152 1.345 . S
C156 C157 1.371 . S
C156 H159 0.931 . S
C157 C153 1.391 . S
C157 C156 1.371 . S
C157 H164 0.930 . S
H158 C155 0.928 1_455 S
H159 C156 0.931 . S
H160 C136 0.930 . S
H161 C133 0.930 . S
H162 C142 0.930 . S
H163 C154 0.929 . S
H164 C157 0.930 . S
C165 C166 1.351 . S
C165 N168 1.368 . S
C165 H170 0.931 . S
C166 C165 1.351 . S
C166 N167 1.373 . S
C166 H194 0.930 . S
N167 C166 1.373 . S
N167 C169 1.340 . S
N168 C165 1.368 . S
N168 C169 1.321 . S
N168 Co171 2.135 . S
C169 N167 1.340 . S
C169 N168 1.321 . S
C169 H193 0.930 . S
H170 C165 0.931 . S
Co171 N168 2.135 . S
Co171 N174 2.121 1_545 S
Co171 O179 2.055 . S
Co171 O182 2.039 . S
Co171 N185 2.140 1_545 S
C172 O173 1.227 . S
C172 O182 1.265 . S
O173 C172 1.227 . S
N174 Co171 2.121 1_565 S
N174 C176 1.375 . S
N174 C177 1.313 . S
C175 C176 1.338 . S
C175 N178 1.377 . S
C175 H195 0.930 . S
C176 N174 1.375 . S
C176 C175 1.338 . S
C176 H180 0.931 . S
C177 N174 1.313 . S
C177 N178 1.344 . S
C177 H181 0.930 . S
N178 C175 1.377 . S
N178 C177 1.344 . S
O179 Co171 2.055 . S
O179 C183 1.253 . S
H180 C176 0.931 . S
H181 C177 0.930 . S
O182 Co171 2.039 . S
O182 C172 1.265 . S
C183 O179 1.253 . S
C183 O184 1.227 . S
O184 C183 1.227 . S
N185 Co171 2.140 1_565 S
N185 C188 1.346 . S
N185 C189 1.345 . S
C186 C187 1.387 . S
C186 C190 1.391 . S
C187 C186 1.387 . S
C187 C188 1.369 . S
C187 H196 0.929 . S
C188 N185 1.346 . S
C188 C187 1.369 . S
C188 H191 0.928 1_565 S
C189 N185 1.345 . S
C189 C190 1.371 . S
C189 H192 0.931 . S
C190 C186 1.391 . S
C190 C189 1.371 . S
C190 H197 0.930 . S
H191 C188 0.928 1_545 S
H192 C189 0.931 . S
H193 C169 0.930 . S
H194 C166 0.930 . S
H195 C175 0.930 . S
H196 C187 0.929 . S
H197 C190 0.930 . S
C198 C199 1.351 . S
C198 N201 1.368 . S
C198 H203 0.931 . S
C199 C198 1.351 . S
C199 N200 1.373 . S
C199 H227 0.930 . S
N200 C199 1.373 . S
N200 C202 1.340 . S
N201 C198 1.368 . S
N201 C202 1.321 . S
N201 Co204 2.135 . S
C202 N200 1.340 . S
C202 N201 1.321 . S
C202 H226 0.930 . S
H203 C198 0.931 . S
Co204 N201 2.135 . S
Co204 N207 2.121 . S
Co204 O212 2.055 . S
Co204 O215 2.039 . S
Co204 N218 2.140 . S
C205 O206 1.227 . S
C205 O215 1.265 . S
O206 C205 1.227 . S
N207 Co204 2.121 . S
N207 C209 1.375 . S
N207 C210 1.313 . S
C208 C209 1.338 . S
C208 N211 1.377 . S
C208 H228 0.930 . S
C209 N207 1.375 . S
C209 C208 1.338 . S
C209 H213 0.931 . S
C210 N207 1.313 . S
C210 N211 1.344 . S
C210 H214 0.930 . S
N211 C208 1.377 . S
N211 C210 1.344 . S
O212 Co204 2.055 . S
O212 C216 1.253 . S
H213 C209 0.931 . S
H214 C210 0.930 . S
O215 Co204 2.039 . S
O215 C205 1.265 . S
C216 O212 1.253 . S
C216 O217 1.227 . S
O217 C216 1.227 . S
N218 Co204 2.140 . S
N218 C221 1.346 . S
N218 C222 1.345 . S
C219 C220 1.387 . S
C219 C223 1.391 . S
C220 C219 1.387 . S
C220 C221 1.369 . S
C220 H229 0.929 . S
C221 N218 1.346 . S
C221 C220 1.369 . S
C221 H224 0.928 . S
C222 N218 1.345 . S
C222 C223 1.371 . S
C222 H225 0.931 . S
C223 C219 1.391 . S
C223 C222 1.371 . S
C223 H230 0.930 . S
H224 C221 0.928 . S
H225 C222 0.931 . S
H226 C202 0.930 . S
H227 C199 0.930 . S
H228 C208 0.930 . S
H229 C220 0.929 . S
H230 C223 0.930 . S
C231 C232 1.351 . S
C231 N234 1.368 . S
C231 H236 0.931 . S
C232 C231 1.351 . S
C232 N233 1.373 . S
C232 H260 0.930 . S
N233 C232 1.373 . S
N233 C235 1.340 . S
N234 C231 1.368 . S
N234 C235 1.321 . S
N234 Co237 2.135 . S
C235 N233 1.340 . S
C235 N234 1.321 . S
C235 H259 0.930 . S
H236 C231 0.931 . S
Co237 N234 2.135 . S
Co237 N240 2.121 . S
Co237 O245 2.055 . S
Co237 O248 2.039 . S
Co237 N251 2.140 . S
C238 O239 1.227 . S
C238 O248 1.265 . S
O239 C238 1.227 . S
N240 Co237 2.121 . S
N240 C242 1.375 . S
N240 C243 1.313 . S
C241 C242 1.338 . S
C241 N244 1.377 . S
C241 H261 0.930 . S
C242 N240 1.375 . S
C242 C241 1.338 . S
C242 H246 0.931 . S
C243 N240 1.313 . S
C243 N244 1.344 . S
C243 H247 0.930 . S
N244 C241 1.377 . S
N244 C243 1.344 . S
O245 Co237 2.055 . S
O245 C249 1.253 . S
H246 C242 0.931 . S
H247 C243 0.930 . S
O248 Co237 2.039 . S
O248 C238 1.265 . S
C249 O245 1.253 . S
C249 O250 1.227 . S
O250 C249 1.227 . S
N251 Co237 2.140 . S
N251 C254 1.346 . S
N251 C255 1.345 . S
C252 C253 1.387 . S
C252 C256 1.391 . S
C253 C252 1.387 . S
C253 C254 1.369 . S
C253 H262 0.929 . S
C254 N251 1.346 . S
C254 C253 1.369 . S
C254 H257 0.928 . S
C255 N251 1.345 . S
C255 C256 1.371 . S
C255 H258 0.931 . S
C256 C252 1.391 . S
C256 C255 1.371 . S
C256 H263 0.930 . S
H257 C254 0.928 . S
H258 C255 0.931 . S
H259 C235 0.930 . S
H260 C232 0.930 . S
H261 C241 0.930 . S
H262 C253 0.929 . S
H263 C256 0.930 . S
C264 C265 1.351 . S
C264 N267 1.368 . S
C264 H269 0.931 . S
C265 C264 1.351 . S
C265 N266 1.373 . S
C265 H293 0.930 . S
N266 C265 1.373 . S
N266 C268 1.340 . S
N267 C264 1.368 . S
N267 C268 1.321 . S
N267 Co270 2.135 . S
C268 N266 1.340 . S
C268 N267 1.321 . S
C268 H292 0.930 . S
H269 C264 0.931 . S
Co270 N267 2.135 . S
Co270 N273 2.121 1_655 S
Co270 O278 2.055 . S
Co270 O281 2.039 . S
Co270 N284 2.140 1_655 S
C271 O272 1.227 . S
C271 O281 1.265 . S
O272 C271 1.227 . S
N273 Co270 2.121 1_455 S
N273 C275 1.375 . S
N273 C276 1.313 . S
C274 C275 1.338 . S
C274 N277 1.377 . S
C274 H294 0.930 . S
C275 N273 1.375 . S
C275 C274 1.338 . S
C275 H279 0.931 . S
C276 N273 1.313 . S
C276 N277 1.344 . S
C276 H280 0.930 . S
N277 C274 1.377 . S
N277 C276 1.344 . S
O278 Co270 2.055 . S
O278 C282 1.253 . S
H279 C275 0.931 . S
H280 C276 0.930 . S
O281 Co270 2.039 . S
O281 C271 1.265 . S
C282 O278 1.253 . S
C282 O283 1.227 . S
O283 C282 1.227 . S
N284 Co270 2.140 1_455 S
N284 C287 1.346 . S
N284 C288 1.345 . S
C285 C286 1.387 . S
C285 C289 1.391 . S
C286 C285 1.387 . S
C286 C287 1.369 . S
C286 H295 0.929 . S
C287 N284 1.346 . S
C287 C286 1.369 . S
C287 H290 0.928 1_455 S
C288 N284 1.345 . S
C288 C289 1.371 . S
C288 H291 0.931 . S
C289 C285 1.391 . S
C289 C288 1.371 . S
C289 H296 0.930 . S
H290 C287 0.928 1_655 S
H291 C288 0.931 . S
H292 C268 0.930 . S
H293 C265 0.930 . S
H294 C274 0.930 . S
H295 C286 0.929 . S
H296 C289 0.930 . S
C297 C298 1.351 . S
C297 N300 1.368 . S
C297 H302 0.931 . S
C298 C297 1.351 . S
C298 N299 1.373 . S
C298 H326 0.930 . S
N299 C298 1.373 . S
N299 C301 1.340 . S
N300 C297 1.368 . S
N300 C301 1.321 . S
N300 Co303 2.135 . S
C301 N299 1.340 . S
C301 N300 1.321 . S
C301 H325 0.930 . S
H302 C297 0.931 . S
Co303 N300 2.135 . S
Co303 N306 2.121 1_565 S
Co303 O311 2.055 . S
Co303 O314 2.039 . S
Co303 N317 2.140 1_565 S
C304 O305 1.227 . S
C304 O314 1.265 . S
O305 C304 1.227 . S
N306 Co303 2.121 1_545 S
N306 C308 1.375 . S
N306 C309 1.313 . S
C307 C308 1.338 . S
C307 N310 1.377 . S
C307 H327 0.930 . S
C308 N306 1.375 . S
C308 C307 1.338 . S
C308 H312 0.931 . S
C309 N306 1.313 . S
C309 N310 1.344 . S
C309 H313 0.930 . S
N310 C307 1.377 . S
N310 C309 1.344 . S
O311 Co303 2.055 . S
O311 C315 1.253 . S
H312 C308 0.931 . S
H313 C309 0.930 . S
O314 Co303 2.039 . S
O314 C304 1.265 . S
C315 O311 1.253 . S
C315 O316 1.227 . S
O316 C315 1.227 . S
N317 Co303 2.140 1_545 S
N317 C320 1.346 . S
N317 C321 1.345 . S
C318 C319 1.387 . S
C318 C322 1.391 . S
C319 C318 1.387 . S
C319 C320 1.369 . S
C319 H328 0.929 . S
C320 N317 1.346 . S
C320 C319 1.369 . S
C320 H323 0.928 1_545 S
C321 N317 1.345 . S
C321 C322 1.371 . S
C321 H324 0.931 . S
C322 C318 1.391 . S
C322 C321 1.371 . S
C322 H329 0.930 . S
H323 C320 0.928 1_565 S
H324 C321 0.931 . S
H325 C301 0.930 . S
H326 C298 0.930 . S
H327 C307 0.930 . S
H328 C319 0.929 . S
H329 C322 0.930 . S
C330 C331 1.351 . S
C330 N333 1.368 . S
C330 H335 0.931 . S
C331 C330 1.351 . S
C331 N332 1.373 . S
C331 H359 0.930 . S
N332 C331 1.373 . S
N332 C334 1.340 . S
N333 C330 1.368 . S
N333 C334 1.321 . S
N333 Co336 2.135 . S
C334 N332 1.340 . S
C334 N333 1.321 . S
C334 H358 0.930 . S
H335 C330 0.931 . S
Co336 N333 2.135 . S
Co336 N339 2.121 . S
Co336 O344 2.055 . S
Co336 O347 2.039 . S
Co336 N350 2.140 . S
C337 O338 1.227 . S
C337 O347 1.265 . S
O338 C337 1.227 . S
N339 Co336 2.121 . S
N339 C341 1.375 . S
N339 C342 1.313 . S
C340 C341 1.338 . S
C340 N343 1.377 . S
C340 H360 0.930 . S
C341 N339 1.375 . S
C341 C340 1.338 . S
C341 H345 0.931 . S
C342 N339 1.313 . S
C342 N343 1.344 . S
C342 H346 0.930 . S
N343 C340 1.377 . S
N343 C342 1.344 . S
O344 Co336 2.055 . S
O344 C348 1.253 . S
H345 C341 0.931 . S
H346 C342 0.930 . S
O347 Co336 2.039 . S
O347 C337 1.265 . S
C348 O344 1.253 . S
C348 O349 1.227 . S
O349 C348 1.227 . S
N350 Co336 2.140 . S
N350 C353 1.346 . S
N350 C354 1.345 . S
C351 C352 1.387 . S
C351 C355 1.391 . S
C352 C351 1.387 . S
C352 C353 1.369 . S
C352 H361 0.929 . S
C353 N350 1.346 . S
C353 C352 1.369 . S
C353 H356 0.928 . S
C354 N350 1.345 . S
C354 C355 1.371 . S
C354 H357 0.931 . S
C355 C351 1.391 . S
C355 C354 1.371 . S
C355 H362 0.930 . S
H356 C353 0.928 . S
H357 C354 0.931 . S
H358 C334 0.930 . S
H359 C331 0.930 . S
H360 C340 0.930 . S
H361 C352 0.929 . S
H362 C355 0.930 . S
C363 C364 1.351 . S
C363 N366 1.368 . S
C363 H368 0.931 . S
C364 C363 1.351 . S
C364 N365 1.373 . S
C364 H392 0.930 . S
N365 C364 1.373 . S
N365 C367 1.340 . S
N366 C363 1.368 . S
N366 C367 1.321 . S
N366 Co369 2.135 . S
C367 N365 1.340 . S
C367 N366 1.321 . S
C367 H391 0.930 . S
H368 C363 0.931 . S
Co369 N366 2.135 . S
Co369 N372 2.121 . S
Co369 O377 2.055 . S
Co369 O380 2.039 . S
Co369 N383 2.140 . S
C370 O371 1.227 . S
C370 O380 1.265 . S
O371 C370 1.227 . S
N372 Co369 2.121 . S
N372 C374 1.375 . S
N372 C375 1.313 . S
C373 C374 1.338 . S
C373 N376 1.377 . S
C373 H393 0.930 . S
C374 N372 1.375 . S
C374 C373 1.338 . S
C374 H378 0.931 . S
C375 N372 1.313 . S
C375 N376 1.344 . S
C375 H379 0.930 . S
N376 C373 1.377 . S
N376 C375 1.344 . S
O377 Co369 2.055 . S
O377 C381 1.253 . S
H378 C374 0.931 . S
H379 C375 0.930 . S
O380 Co369 2.039 . S
O380 C370 1.265 . S
C381 O377 1.253 . S
C381 O382 1.227 . S
O382 C381 1.227 . S
N383 Co369 2.140 . S
N383 C386 1.346 . S
N383 C387 1.345 . S
C384 C385 1.387 . S
C384 C388 1.391 . S
C385 C384 1.387 . S
C385 C386 1.369 . S
C385 H394 0.929 . S
C386 N383 1.346 . S
C386 C385 1.369 . S
C386 H389 0.928 . S
C387 N383 1.345 . S
C387 C388 1.371 . S
C387 H390 0.931 . S
C388 C384 1.391 . S
C388 C387 1.371 . S
C388 H395 0.930 . S
H389 C386 0.928 . S
H390 C387 0.931 . S
H391 C367 0.930 . S
H392 C364 0.930 . S
H393 C373 0.930 . S
H394 C385 0.929 . S
H395 C388 0.930 . S
C396 C397 1.351 . S
C396 N399 1.368 . S
C396 H401 0.931 . S
C397 C396 1.351 . S
C397 N398 1.373 . S
C397 H425 0.930 . S
N398 C397 1.373 . S
N398 C400 1.340 . S
N399 C396 1.368 . S
N399 C400 1.321 . S
N399 Co402 2.135 . S
C400 N398 1.340 . S
C400 N399 1.321 . S
C400 H424 0.930 . S
H401 C396 0.931 . S
Co402 N399 2.135 . S
Co402 N405 2.121 1_655 S
Co402 O410 2.055 . S
Co402 O413 2.039 . S
Co402 N416 2.140 1_655 S
C403 O404 1.227 . S
C403 O413 1.265 . S
O404 C403 1.227 . S
N405 Co402 2.121 1_455 S
N405 C407 1.375 . S
N405 C408 1.313 . S
C406 C407 1.338 . S
C406 N409 1.377 . S
C406 H426 0.930 . S
C407 N405 1.375 . S
C407 C406 1.338 . S
C407 H411 0.931 . S
C408 N405 1.313 . S
C408 N409 1.344 . S
C408 H412 0.930 . S
N409 C406 1.377 . S
N409 C408 1.344 . S
O410 Co402 2.055 . S
O410 C414 1.253 . S
H411 C407 0.931 . S
H412 C408 0.930 . S
O413 Co402 2.039 . S
O413 C403 1.265 . S
C414 O410 1.253 . S
C414 O415 1.227 . S
O415 C414 1.227 . S
N416 Co402 2.140 1_455 S
N416 C419 1.346 . S
N416 C420 1.345 . S
C417 C418 1.387 . S
C417 C421 1.391 . S
C418 C417 1.387 . S
C418 C419 1.369 . S
C418 H427 0.929 . S
C419 N416 1.346 . S
C419 C418 1.369 . S
C419 H422 0.928 1_455 S
C420 N416 1.345 . S
C420 C421 1.371 . S
C420 H423 0.931 . S
C421 C417 1.391 . S
C421 C420 1.371 . S
C421 H428 0.930 . S
H422 C419 0.928 1_655 S
H423 C420 0.931 . S
H424 C400 0.930 . S
H425 C397 0.930 . S
H426 C406 0.930 . S
H427 C418 0.929 . S
H428 C421 0.930 . S
C429 C430 1.351 . S
C429 N432 1.368 . S
C429 H434 0.931 . S
C430 C429 1.351 . S
C430 N431 1.373 . S
C430 H458 0.930 . S
N431 C430 1.373 . S
N431 C433 1.340 . S
N432 C429 1.368 . S
N432 C433 1.321 . S
N432 Co435 2.135 . S
C433 N431 1.340 . S
C433 N432 1.321 . S
C433 H457 0.930 . S
H434 C429 0.931 . S
Co435 N432 2.135 . S
Co435 N438 2.121 1_565 S
Co435 O443 2.055 . S
Co435 O446 2.039 . S
Co435 N449 2.140 1_565 S
C436 O437 1.227 . S
C436 O446 1.265 . S
O437 C436 1.227 . S
N438 Co435 2.121 1_545 S
N438 C440 1.375 . S
N438 C441 1.313 . S
C439 C440 1.338 . S
C439 N442 1.377 . S
C439 H459 0.930 . S
C440 N438 1.375 . S
C440 C439 1.338 . S
C440 H444 0.931 . S
C441 N438 1.313 . S
C441 N442 1.344 . S
C441 H445 0.930 . S
N442 C439 1.377 . S
N442 C441 1.344 . S
O443 Co435 2.055 . S
O443 C447 1.253 . S
H444 C440 0.931 . S
H445 C441 0.930 . S
O446 Co435 2.039 . S
O446 C436 1.265 . S
C447 O443 1.253 . S
C447 O448 1.227 . S
O448 C447 1.227 . S
N449 Co435 2.140 1_545 S
N449 C452 1.346 . S
N449 C453 1.345 . S
C450 C451 1.387 . S
C450 C454 1.391 . S
C451 C450 1.387 . S
C451 C452 1.369 . S
C451 H460 0.929 . S
C452 N449 1.346 . S
C452 C451 1.369 . S
C452 H455 0.928 1_545 S
C453 N449 1.345 . S
C453 C454 1.371 . S
C453 H456 0.931 . S
C454 C450 1.391 . S
C454 C453 1.371 . S
C454 H461 0.930 . S
H455 C452 0.928 1_565 S
H456 C453 0.931 . S
H457 C433 0.930 . S
H458 C430 0.930 . S
H459 C439 0.930 . S
H460 C451 0.929 . S
H461 C454 0.930 . S
C462 C463 1.351 . S
C462 N465 1.368 . S
C462 H467 0.931 . S
C463 C462 1.351 . S
C463 N464 1.373 . S
C463 H491 0.930 . S
N464 C463 1.373 . S
N464 C466 1.340 . S
N465 C462 1.368 . S
N465 C466 1.321 . S
N465 Co468 2.135 . S
C466 N464 1.340 . S
C466 N465 1.321 . S
C466 H490 0.930 . S
H467 C462 0.931 . S
Co468 N465 2.135 . S
Co468 N471 2.121 . S
Co468 O476 2.055 . S
Co468 O479 2.039 . S
Co468 N482 2.140 . S
C469 O470 1.227 . S
C469 O479 1.265 . S
O470 C469 1.227 . S
N471 Co468 2.121 . S
N471 C473 1.375 . S
N471 C474 1.313 . S
C472 C473 1.338 . S
C472 N475 1.377 . S
C472 H492 0.930 . S
C473 N471 1.375 . S
C473 C472 1.338 . S
C473 H477 0.931 . S
C474 N471 1.313 . S
C474 N475 1.344 . S
C474 H478 0.930 . S
N475 C472 1.377 . S
N475 C474 1.344 . S
O476 Co468 2.055 . S
O476 C480 1.253 . S
H477 C473 0.931 . S
H478 C474 0.930 . S
O479 Co468 2.039 . S
O479 C469 1.265 . S
C480 O476 1.253 . S
C480 O481 1.227 . S
O481 C480 1.227 . S
N482 Co468 2.140 . S
N482 C485 1.346 . S
N482 C486 1.345 . S
C483 C484 1.387 . S
C483 C487 1.391 . S
C484 C483 1.387 . S
C484 C485 1.369 . S
C484 H493 0.929 . S
C485 N482 1.346 . S
C485 C484 1.369 . S
C485 H488 0.928 . S
C486 N482 1.345 . S
C486 C487 1.371 . S
C486 H489 0.931 . S
C487 C483 1.391 . S
C487 C486 1.371 . S
C487 H494 0.930 . S
H488 C485 0.928 . S
H489 C486 0.931 . S
H490 C466 0.930 . S
H491 C463 0.930 . S
H492 C472 0.930 . S
H493 C484 0.929 . S
H494 C487 0.930 . S
C495 C496 1.351 . S
C495 N498 1.368 . S
C495 H500 0.931 . S
C496 C495 1.351 . S
C496 N497 1.373 . S
C496 H524 0.930 . S
N497 C496 1.373 . S
N497 C499 1.340 . S
N498 C495 1.368 . S
N498 C499 1.321 . S
N498 Co501 2.135 . S
C499 N497 1.340 . S
C499 N498 1.321 . S
C499 H523 0.930 . S
H500 C495 0.931 . S
Co501 N498 2.135 . S
Co501 N504 2.121 . S
Co501 O509 2.055 . S
Co501 O512 2.039 . S
Co501 N515 2.140 . S
C502 O503 1.227 . S
C502 O512 1.265 . S
O503 C502 1.227 . S
N504 Co501 2.121 . S
N504 C506 1.375 . S
N504 C507 1.313 . S
C505 C506 1.338 . S
C505 N508 1.377 . S
C505 H525 0.930 . S
C506 N504 1.375 . S
C506 C505 1.338 . S
C506 H510 0.931 . S
C507 N504 1.313 . S
C507 N508 1.344 . S
C507 H511 0.930 . S
N508 C505 1.377 . S
N508 C507 1.344 . S
O509 Co501 2.055 . S
O509 C513 1.253 . S
H510 C506 0.931 . S
H511 C507 0.930 . S
O512 Co501 2.039 . S
O512 C502 1.265 . S
C513 O509 1.253 . S
C513 O514 1.227 . S
O514 C513 1.227 . S
N515 Co501 2.140 . S
N515 C518 1.346 . S
N515 C519 1.345 . S
C516 C517 1.387 . S
C516 C520 1.391 . S
C517 C516 1.387 . S
C517 C518 1.369 . S
C517 H526 0.929 . S
C518 N515 1.346 . S
C518 C517 1.369 . S
C518 H521 0.928 . S
C519 N515 1.345 . S
C519 C520 1.371 . S
C519 H522 0.931 . S
C520 C516 1.391 . S
C520 C519 1.371 . S
C520 H527 0.930 . S
H521 C518 0.928 . S
H522 C519 0.931 . S
H523 C499 0.930 . S
H524 C496 0.930 . S
H525 C505 0.930 . S
H526 C517 0.929 . S
H527 C520 0.930 . S
C528 C529 1.363 . S
C528 C534 1.379 . S
C528 N536 1.356 . S
C529 C528 1.363 . S
C529 C535 1.363 . S
C530 C531 1.363 . S
C530 C535 1.379 . S
C530 N537 1.356 1_545 S
C531 C530 1.363 . S
C531 C534 1.363 . S
N532 C534 1.356 . S
N532 H544 0.984 . S
N532 H545 0.985 . S
N533 C535 1.356 1_655 S
N533 H538 0.984 . S
N533 H539 0.985 1_545 S
C534 C528 1.379 . S
C534 C531 1.363 . S
C534 N532 1.356 . S
C535 C529 1.363 . S
C535 C530 1.379 . S
C535 N533 1.356 1_455 S
N536 C528 1.356 . S
N536 H542 0.984 . S
N536 H543 0.984 . S
N537 C530 1.356 1_565 S
N537 H540 0.984 . S
N537 H541 0.985 . S
H538 N533 0.984 . S
H539 N533 0.985 1_565 S
H540 N537 0.984 . S
H541 N537 0.985 . S
H542 N536 0.984 . S
H543 N536 0.984 . S
H544 N532 0.984 . S
H545 N532 0.985 . S
C546 C547 1.363 . S
C546 C552 1.379 . S
C546 N554 1.356 1_545 S
C547 C546 1.363 . S
C547 C553 1.363 . S
C548 C549 1.363 . S
C548 C553 1.379 . S
C548 N555 1.356 . S
C549 C548 1.363 . S
C549 C552 1.363 . S
N550 C552 1.356 . S
N550 H562 0.984 1_545 S
N550 H563 0.985 . S
N551 C553 1.356 . S
N551 H556 0.984 . S
N551 H557 0.985 . S
C552 C546 1.379 . S
C552 C549 1.363 . S
C552 N550 1.356 . S
C553 C547 1.363 . S
C553 C548 1.379 . S
C553 N551 1.356 . S
N554 C546 1.356 1_565 S
N554 H560 0.984 . S
N554 H561 0.984 . S
N555 C548 1.356 . S
N555 H558 0.984 . S
N555 H559 0.985 . S
H556 N551 0.984 . S
H557 N551 0.985 . S
H558 N555 0.984 . S
H559 N555 0.985 . S
H560 N554 0.984 . S
H561 N554 0.984 . S
H562 N550 0.984 1_565 S
H563 N550 0.985 . S
C564 C565 1.363 . S
C564 C570 1.379 . S
C564 N572 1.356 . S
C565 C564 1.363 . S
C565 C571 1.363 . S
C566 C567 1.363 . S
C566 C571 1.379 . S
C566 N573 1.356 . S
C567 C566 1.363 . S
C567 C570 1.363 . S
N568 C570 1.356 . S
N568 H580 0.984 . S
N568 H581 0.985 . S
N569 C571 1.356 . S
N569 H574 0.984 . S
N569 H575 0.985 . S
C570 C564 1.379 . S
C570 C567 1.363 . S
C570 N568 1.356 . S
C571 C565 1.363 . S
C571 C566 1.379 . S
C571 N569 1.356 . S
N572 C564 1.356 . S
N572 H578 0.984 . S
N572 H579 0.984 . S
N573 C566 1.356 . S
N573 H576 0.984 . S
N573 H577 0.985 . S
H574 N569 0.984 . S
H575 N569 0.985 . S
H576 N573 0.984 . S
H577 N573 0.985 . S
H578 N572 0.984 . S
H579 N572 0.984 . S
H580 N568 0.984 . S
H581 N568 0.985 . S
C582 C583 1.363 . S
C582 C588 1.379 . S
C582 N590 1.356 1_455 S
C583 C582 1.363 . S
C583 C589 1.363 . S
C584 C585 1.363 . S
C584 C589 1.379 . S
C584 N591 1.356 . S
C585 C584 1.363 . S
C585 C588 1.363 . S
N586 C588 1.356 . S
N586 H598 0.984 . S
N586 H599 0.985 . S
N587 C589 1.356 . S
N587 H592 0.984 . S
N587 H593 0.985 . S
C588 C582 1.379 . S
C588 C585 1.363 . S
C588 N586 1.356 . S
C589 C583 1.363 . S
C589 C584 1.379 . S
C589 N587 1.356 . S
N590 C582 1.356 1_655 S
N590 H596 0.984 . S
N590 H597 0.984 . S
N591 C584 1.356 . S
N591 H594 0.984 . S
N591 H595 0.985 . S
H592 N587 0.984 . S
H593 N587 0.985 . S
H594 N591 0.984 . S
H595 N591 0.985 . S
H596 N590 0.984 . S
H597 N590 0.984 . S
H598 N586 0.984 . S
H599 N586 0.985 . S
C600 C601 1.363 . S
C600 C606 1.379 . S
C600 N608 1.356 1_655 S
C601 C600 1.363 . S
C601 C607 1.363 . S
C602 C603 1.363 . S
C602 C607 1.379 . S
C602 N609 1.356 . S
C603 C602 1.363 . S
C603 C606 1.363 . S
N604 C606 1.356 . S
N604 H616 0.984 1_655 S
N604 H617 0.985 . S
N605 C607 1.356 . S
N605 H610 0.984 . S
N605 H611 0.985 . S
C606 C600 1.379 . S
C606 C603 1.363 . S
C606 N604 1.356 . S
C607 C601 1.363 . S
C607 C602 1.379 . S
C607 N605 1.356 . S
N608 C600 1.356 1_455 S
N608 H614 0.984 . S
N608 H615 0.984 . S
N609 C602 1.356 . S
N609 H612 0.984 . S
N609 H613 0.985 . S
H610 N605 0.984 . S
H611 N605 0.985 . S
H612 N609 0.984 . S
H613 N609 0.985 . S
H614 N608 0.984 . S
H615 N608 0.984 . S
H616 N604 0.984 1_455 S
H617 N604 0.985 . S
C618 C619 1.363 . S
C618 C624 1.379 . S
C618 N626 1.358 . S
C619 C618 1.363 . S
C619 C625 1.363 . S
C620 C621 1.363 . S
C620 C625 1.379 . S
C620 N627 1.356 . S
C621 C620 1.363 . S
C621 C624 1.363 . S
N622 C624 1.356 . S
N622 H634 0.984 . S
N622 H635 0.985 . S
N623 C625 1.356 . S
N623 H628 0.984 . S
N623 H629 0.985 . S
C624 C618 1.379 . S
C624 C621 1.363 . S
C624 N622 1.356 . S
C625 C619 1.363 . S
C625 C620 1.379 . S
C625 N623 1.356 . S
N626 C618 1.358 . S
N626 H632 0.984 1_565 S
N626 H633 0.984 1_565 S
N627 C620 1.356 . S
N627 H630 0.984 . S
N627 H631 0.985 . S
H628 N623 0.984 . S
H629 N623 0.985 . S
H630 N627 0.984 . S
H631 N627 0.985 . S
H632 N626 0.984 1_545 S
H633 N626 0.984 1_545 S
H634 N622 0.984 . S
H635 N622 0.985 . S
C636 C637 1.363 . S
C636 C642 1.379 . S
C636 N644 1.356 . S
C637 C636 1.363 . S
C637 C643 1.363 . S
C638 C639 1.363 . S
C638 C643 1.379 . S
C638 N645 1.356 . S
C639 C638 1.363 . S
C639 C642 1.363 . S
N640 C642 1.356 . S
N640 H652 0.984 . S
N640 H653 0.985 . S
N641 C643 1.356 . S
N641 H646 0.984 . S
N641 H647 0.985 . S
C642 C636 1.379 . S
C642 C639 1.363 . S
C642 N640 1.356 . S
C643 C637 1.363 . S
C643 C638 1.379 . S
C643 N641 1.356 . S
N644 C636 1.356 . S
N644 H650 0.984 . S
N644 H651 0.984 . S
N645 C638 1.356 . S
N645 H648 0.984 . S
N645 H649 0.985 . S
H646 N641 0.984 . S
H647 N641 0.985 . S
H648 N645 0.984 . S
H649 N645 0.985 . S
H650 N644 0.984 . S
H651 N644 0.984 . S
H652 N640 0.984 . S
H653 N640 0.985 . S
C654 C655 1.363 . S
C654 C660 1.379 . S
C654 N662 1.356 . S
C655 C654 1.363 . S
C655 C661 1.363 . S
C656 C657 1.363 . S
C656 C661 1.379 . S
C656 N663 1.356 . S
C657 C656 1.363 . S
C657 C660 1.363 . S
N658 C660 1.356 . S
N658 H670 0.984 1_655 S
N658 H671 0.985 1_655 S
N659 C661 1.356 . S
N659 H664 0.984 . S
N659 H665 0.985 . S
C660 C654 1.379 . S
C660 C657 1.363 . S
C660 N658 1.356 . S
C661 C655 1.363 . S
C661 C656 1.379 . S
C661 N659 1.356 . S
N662 C654 1.356 . S
N662 H668 0.984 . S
N662 H669 0.984 . S
N663 C656 1.356 . S
N663 H666 0.984 . S
N663 H667 0.985 . S
H664 N659 0.984 . S
H665 N659 0.985 . S
H666 N663 0.984 . S
H667 N663 0.985 . S
H668 N662 0.984 . S
H669 N662 0.984 . S
H670 N658 0.984 1_455 S
H671 N658 0.985 1_455 S
C672 C673 1.363 . S
C672 C678 1.379 1_455 S
C672 N680 1.356 . S
C673 C672 1.363 . S
C673 C679 1.363 1_565 S
C674 C675 1.363 . S
C674 C679 1.379 1_655 S
C674 N681 1.356 . S
C675 C674 1.363 . S
C675 C678 1.363 1_545 S
N676 C678 1.356 . S
N676 H688 0.984 . S
N676 H689 0.985 1_565 S
N677 C679 1.356 . S
N677 H682 0.984 1_545 S
N677 H683 0.985 . S
C678 C672 1.379 1_655 S
C678 C675 1.363 1_565 S
C678 N676 1.356 . S
C679 C673 1.363 1_545 S
C679 C674 1.379 1_455 S
C679 N677 1.356 . S
N680 C672 1.356 . S
N680 H686 0.984 . S
N680 H687 0.984 . S
N681 C674 1.356 . S
N681 H684 0.984 . S
N681 H685 0.985 . S
H682 N677 0.984 1_565 S
H683 N677 0.985 . S
H684 N681 0.984 . S
H685 N681 0.985 . S
H686 N680 0.984 . S
H687 N680 0.984 . S
H688 N676 0.984 . S
H689 N676 0.985 1_545 S
C690 C691 1.363 . S
C690 C696 1.379 1_545 S
C690 N698 1.356 . S
C691 C690 1.363 . S
C691 C697 1.363 . S
C692 C693 1.363 . S
C692 C697 1.379 1_565 S
C692 N699 1.356 . S
C693 C692 1.363 . S
C693 C696 1.363 . S
N694 C696 1.356 . S
N694 H706 0.984 . S
N694 H707 0.985 . S
N695 C697 1.356 . S
N695 H700 0.984 . S
N695 H701 0.985 . S
C696 C690 1.379 1_565 S
C696 C693 1.363 . S
C696 N694 1.356 . S
C697 C691 1.363 . S
C697 C692 1.379 1_545 S
C697 N695 1.356 . S
N698 C690 1.356 . S
N698 H704 0.984 . S
N698 H705 0.984 . S
N699 C692 1.356 . S
N699 H702 0.984 . S
N699 H703 0.985 . S
H700 N695 0.984 . S
H701 N695 0.985 . S
H702 N699 0.984 . S
H703 N699 0.985 . S
H704 N698 0.984 . S
H705 N698 0.984 . S
H706 N694 0.984 . S
H707 N694 0.985 . S
C708 C709 1.363 . S
C708 C714 1.379 . S
C708 N716 1.356 . S
C709 C708 1.363 . S
C709 C715 1.363 . S
C710 C711 1.363 . S
C710 C715 1.379 . S
C710 N717 1.356 . S
C711 C710 1.363 . S
C711 C714 1.363 . S
N712 C714 1.356 . S
N712 H724 0.984 . S
N712 H725 0.985 . S
N713 C715 1.356 . S
N713 H718 0.984 . S
N713 H719 0.985 . S
C714 C708 1.379 . S
C714 C711 1.363 . S
C714 N712 1.356 . S
C715 C709 1.363 . S
C715 C710 1.379 . S
C715 N713 1.356 . S
N716 C708 1.356 . S
N716 H722 0.984 . S
N716 H723 0.984 . S
N717 C710 1.356 . S
N717 H720 0.984 . S
N717 H721 0.985 . S
H718 N713 0.984 . S
H719 N713 0.985 . S
H720 N717 0.984 . S
H721 N717 0.985 . S
H722 N716 0.984 . S
H723 N716 0.984 . S
H724 N712 0.984 . S
H725 N712 0.985 . S
C726 C727 1.363 . S
C726 C732 1.379 . S
C726 N734 1.356 . S
C727 C726 1.363 . S
C727 C733 1.363 1_655 S
C728 C729 1.363 . S
C728 C733 1.379 . S
C728 N735 1.356 . S
C729 C728 1.363 . S
C729 C732 1.363 1_455 S
N730 C732 1.356 . S
N730 H742 0.984 . S
N730 H743 0.985 1_655 S
N731 C733 1.356 . S
N731 H736 0.984 1_455 S
N731 H737 0.985 . S
C732 C726 1.379 . S
C732 C729 1.363 1_655 S
C732 N730 1.356 . S
C733 C727 1.363 1_455 S
C733 C728 1.379 . S
C733 N731 1.356 . S
N734 C726 1.356 . S
N734 H740 0.984 . S
N734 H741 0.984 . S
N735 C728 1.356 . S
N735 H738 0.984 . S
N735 H739 0.985 . S
H736 N731 0.984 1_655 S
H737 N731 0.985 . S
H738 N735 0.984 . S
H739 N735 0.985 . S
H740 N734 0.984 . S
H741 N734 0.984 . S
H742 N730 0.984 . S
H743 N730 0.985 1_455 S
C744 C745 1.363 1_455 S
C744 C750 1.379 . S
C744 N752 1.356 1_455 S
C745 C744 1.363 1_655 S
C745 C751 1.363 1_556 S
C746 C747 1.363 1_655 S
C746 C751 1.379 . S
C746 N753 1.356 1_655 S
C747 C746 1.363 1_455 S
C747 C750 1.363 1_554 S
N748 C750 1.356 . S
N748 H760 0.984 . S
N748 H761 0.985 . S
N749 C751 1.356 . S
N749 H754 0.984 . S
N749 H755 0.985 . S
C750 C744 1.379 . S
C750 C747 1.363 1_556 S
C750 N748 1.356 . S
C751 C745 1.363 1_554 S
C751 C746 1.379 . S
C751 N749 1.356 . S
N752 C744 1.356 1_655 S
N752 H758 0.984 1_655 S
N752 H759 0.984 . S
N753 C746 1.356 1_455 S
N753 H756 0.984 . S
N753 H757 0.985 1_455 S
H754 N749 0.984 . S
H755 N749 0.985 . S
H756 N753 0.984 . S
H757 N753 0.985 1_655 S
H758 N752 0.984 1_455 S
H759 N752 0.984 . S
H760 N748 0.984 . S
H761 N748 0.985 . S
C762 C763 1.363 1_554 S
C762 C768 1.379 1_455 S
C762 N770 1.356 . S
C763 C762 1.363 1_556 S
C763 C769 1.363 1_565 S
C764 C765 1.363 1_556 S
C764 C769 1.379 1_655 S
C764 N771 1.356 . S
C765 C764 1.363 1_554 S
C765 C768 1.363 1_545 S
N766 C768 1.356 . S
N766 H778 0.984 . S
N766 H779 0.985 1_565 S
N767 C769 1.356 . S
N767 H772 0.984 1_545 S
N767 H773 0.985 . S
C768 C762 1.379 1_655 S
C768 C765 1.363 1_565 S
C768 N766 1.356 . S
C769 C763 1.363 1_545 S
C769 C764 1.379 1_455 S
C769 N767 1.356 . S
N770 C762 1.356 . S
N770 H776 0.984 . S
N770 H777 0.984 . S
N771 C764 1.356 . S
N771 H774 0.984 . S
N771 H775 0.985 . S
H772 N767 0.984 1_565 S
H773 N767 0.985 . S
H774 N771 0.984 . S
H775 N771 0.985 . S
H776 N770 0.984 . S
H777 N770 0.984 . S
H778 N766 0.984 . S
H779 N766 0.985 1_545 S
C780 C781 1.363 . S
C780 C786 1.379 1_545 S
C780 N788 1.356 . S
C781 C780 1.363 . S
C781 C787 1.363 1_556 S
C782 C783 1.363 . S
C782 C787 1.379 1_565 S
C782 N789 1.356 . S
C783 C782 1.363 . S
C783 C786 1.363 1_554 S
N784 C786 1.356 . S
N784 H796 0.984 . S
N784 H797 0.985 . S
N785 C787 1.356 . S
N785 H790 0.984 . S
N785 H791 0.985 . S
C786 C780 1.379 1_565 S
C786 C783 1.363 1_556 S
C786 N784 1.356 . S
C787 C781 1.363 1_554 S
C787 C782 1.379 1_545 S
C787 N785 1.356 . S
N788 C780 1.356 . S
N788 H794 0.984 . S
N788 H795 0.984 . S
N789 C782 1.356 . S
N789 H792 0.984 . S
N789 H793 0.985 . S
H790 N785 0.984 . S
H791 N785 0.985 . S
H792 N789 0.984 . S
H793 N789 0.985 . S
H794 N788 0.984 . S
H795 N788 0.984 . S
H796 N784 0.984 . S
H797 N784 0.985 . S
C798 C799 1.363 1_554 S
C798 C804 1.379 . S
C798 N806 1.356 . S
C799 C798 1.363 1_556 S
C799 C805 1.363 . S
C800 C801 1.363 1_556 S
C800 C805 1.379 . S
C800 N807 1.356 . S
C801 C800 1.363 1_554 S
C801 C804 1.363 . S
N802 C804 1.356 . S
N802 H814 0.984 . S
N802 H815 0.985 . S
N803 C805 1.356 . S
N803 H808 0.984 . S
N803 H809 0.985 . S
C804 C798 1.379 . S
C804 C801 1.363 . S
C804 N802 1.356 . S
C805 C799 1.363 . S
C805 C800 1.379 . S
C805 N803 1.356 . S
N806 C798 1.356 . S
N806 H812 0.984 . S
N806 H813 0.984 1_554 S
N807 C800 1.356 . S
N807 H810 0.984 1_556 S
N807 H811 0.985 . S
H808 N803 0.984 . S
H809 N803 0.985 . S
H810 N807 0.984 1_554 S
H811 N807 0.985 . S
H812 N806 0.984 . S
H813 N806 0.984 1_556 S
H814 N802 0.984 . S
H815 N802 0.985 . S
C816 C817 1.363 . S
C816 C822 1.379 . S
C816 N824 1.356 . S
C817 C816 1.363 . S
C817 C823 1.363 . S
C818 C819 1.363 . S
C818 C823 1.379 . S
C818 N825 1.356 . S
C819 C818 1.363 . S
C819 C822 1.363 . S
N820 C822 1.356 . S
N820 H832 0.984 . S
N820 H833 0.985 . S
N821 C823 1.356 . S
N821 H826 0.984 . S
N821 H827 0.985 . S
C822 C816 1.379 . S
C822 C819 1.363 . S
C822 N820 1.356 . S
C823 C817 1.363 . S
C823 C818 1.379 . S
C823 N821 1.356 . S
N824 C816 1.356 . S
N824 H830 0.984 . S
N824 H831 0.984 . S
N825 C818 1.356 . S
N825 H828 0.984 . S
N825 H829 0.985 . S
H826 N821 0.984 . S
H827 N821 0.985 . S
H828 N825 0.984 . S
H829 N825 0.985 . S
H830 N824 0.984 . S
H831 N824 0.984 . S
H832 N820 0.984 . S
H833 N820 0.985 . S
C834 C835 1.363 . S
C834 C840 1.379 . S
C834 N842 1.356 . S
C835 C834 1.363 . S
C835 C841 1.363 . S
C836 C837 1.363 . S
C836 C841 1.379 . S
C836 N843 1.356 . S
C837 C836 1.363 . S
C837 C840 1.363 . S
N838 C840 1.356 . S
N838 H850 0.984 . S
N838 H851 0.985 . S
N839 C841 1.356 . S
N839 H844 0.984 . S
N839 H845 0.985 . S
C840 C834 1.379 . S
C840 C837 1.363 . S
C840 N838 1.356 . S
C841 C835 1.363 . S
C841 C836 1.379 . S
C841 N839 1.356 . S
N842 C834 1.356 . S
N842 H848 0.984 . S
N842 H849 0.984 . S
N843 C836 1.356 . S
N843 H846 0.984 . S
N843 H847 0.985 . S
H844 N839 0.984 . S
H845 N839 0.985 . S
H846 N843 0.984 . S
H847 N843 0.985 . S
H848 N842 0.984 . S
H849 N842 0.984 . S
H850 N838 0.984 . S
H851 N838 0.985 . S
C852 C853 1.363 . S
C852 C858 1.379 . S
C852 N860 1.356 . S
C853 C852 1.363 . S
C853 C859 1.363 . S
C854 C855 1.363 . S
C854 C859 1.379 . S
C854 N861 1.356 . S
C855 C854 1.363 . S
C855 C858 1.363 . S
N856 C858 1.356 . S
N856 H868 0.984 . S
N856 H869 0.985 . S
N857 C859 1.356 . S
N857 H862 0.984 . S
N857 H863 0.985 . S
C858 C852 1.379 . S
C858 C855 1.363 . S
C858 N856 1.356 . S
C859 C853 1.363 . S
C859 C854 1.379 . S
C859 N857 1.356 . S
N860 C852 1.356 . S
N860 H866 0.984 . S
N860 H867 0.984 . S
N861 C854 1.356 . S
N861 H864 0.984 . S
N861 H865 0.985 . S
H862 N857 0.984 . S
H863 N857 0.985 . S
H864 N861 0.984 . S
H865 N861 0.985 . S
H866 N860 0.984 . S
H867 N860 0.984 . S
H868 N856 0.984 . S
H869 N856 0.985 . S
C870 C871 1.363 . S
C870 C876 1.379 . S
C870 N878 1.356 . S
C871 C870 1.363 . S
C871 C877 1.363 . S
C872 C873 1.363 . S
C872 C877 1.379 . S
C872 N879 1.356 . S
C873 C872 1.363 . S
C873 C876 1.363 . S
N874 C876 1.356 . S
N874 H886 0.984 . S
N874 H887 0.985 . S
N875 C877 1.356 . S
N875 H880 0.984 . S
N875 H881 0.985 . S
C876 C870 1.379 . S
C876 C873 1.363 . S
C876 N874 1.356 . S
C877 C871 1.363 . S
C877 C872 1.379 . S
C877 N875 1.356 . S
N878 C870 1.356 . S
N878 H884 0.984 . S
N878 H885 0.984 . S
N879 C872 1.356 . S
N879 H882 0.984 . S
N879 H883 0.985 . S
H880 N875 0.984 . S
H881 N875 0.985 . S
H882 N879 0.984 . S
H883 N879 0.985 . S
H884 N878 0.984 . S
H885 N878 0.984 . S
H886 N874 0.984 . S
H887 N874 0.985 . S
C888 C889 1.363 . S
C888 C894 1.379 . S
C888 N896 1.356 . S
C889 C888 1.363 . S
C889 C895 1.363 . S
C890 C891 1.363 . S
C890 C895 1.379 . S
C890 N897 1.356 . S
C891 C890 1.363 . S
C891 C894 1.363 . S
N892 C894 1.356 . S
N892 H904 0.984 . S
N892 H905 0.985 . S
N893 C895 1.356 . S
N893 H898 0.984 . S
N893 H899 0.985 . S
C894 C888 1.379 . S
C894 C891 1.363 . S
C894 N892 1.356 . S
C895 C889 1.363 . S
C895 C890 1.379 . S
C895 N893 1.356 . S
N896 C888 1.356 . S
N896 H902 0.984 . S
N896 H903 0.984 . S
N897 C890 1.356 . S
N897 H900 0.984 . S
N897 H901 0.985 . S
H898 N893 0.984 . S
H899 N893 0.985 . S
H900 N897 0.984 . S
H901 N897 0.985 . S
H902 N896 0.984 . S
H903 N896 0.984 . S
H904 N892 0.984 . S
H905 N892 0.985 . S
C906 C907 1.363 . S
C906 C912 1.379 . S
C906 N914 1.356 . S
C907 C906 1.363 . S
C907 C913 1.363 . S
C908 C909 1.363 . S
C908 C913 1.379 . S
C908 N915 1.356 . S
C909 C908 1.363 . S
C909 C912 1.363 . S
N910 C912 1.356 . S
N910 H922 0.984 . S
N910 H923 0.985 . S
N911 C913 1.356 . S
N911 H916 0.984 . S
N911 H917 0.985 . S
C912 C906 1.379 . S
C912 C909 1.363 . S
C912 N910 1.356 . S
C913 C907 1.363 . S
C913 C908 1.379 . S
C913 N911 1.356 . S
N914 C906 1.356 . S
N914 H920 0.984 . S
N914 H921 0.984 . S
N915 C908 1.356 . S
N915 H918 0.984 . S
N915 H919 0.985 . S
H916 N911 0.984 . S
H917 N911 0.985 . S
H918 N915 0.984 . S
H919 N915 0.985 . S
H920 N914 0.984 . S
H921 N914 0.984 . S
H922 N910 0.984 . S
H923 N910 0.985 . S
C924 C925 1.363 . S
C924 C930 1.379 . S
C924 N932 1.356 . S
C925 C924 1.363 . S
C925 C931 1.363 . S
C926 C927 1.363 . S
C926 C931 1.379 . S
C926 N933 1.356 . S
C927 C926 1.363 . S
C927 C930 1.363 . S
N928 C930 1.356 . S
N928 H940 0.984 . S
N928 H941 0.985 . S
N929 C931 1.356 . S
N929 H934 0.984 . S
N929 H935 0.985 . S
C930 C924 1.379 . S
C930 C927 1.363 . S
C930 N928 1.356 . S
C931 C925 1.363 . S
C931 C926 1.379 . S
C931 N929 1.356 . S
N932 C924 1.356 . S
N932 H938 0.984 . S
N932 H939 0.984 . S
N933 C926 1.356 . S
N933 H936 0.984 . S
N933 H937 0.985 . S
H934 N929 0.984 . S
H935 N929 0.985 . S
H936 N933 0.984 . S
H937 N933 0.985 . S
H938 N932 0.984 . S
H939 N932 0.984 . S
H940 N928 0.984 . S
H941 N928 0.985 . S
C942 C943 1.363 . S
C942 C948 1.379 . S
C942 N950 1.356 . S
C943 C942 1.363 . S
C943 C949 1.363 . S
C944 C945 1.363 . S
C944 C949 1.379 . S
C944 N951 1.356 . S
C945 C944 1.363 . S
C945 C948 1.363 . S
N946 C948 1.356 . S
N946 H958 0.984 . S
N946 H959 0.985 . S
N947 C949 1.356 . S
N947 H952 0.984 . S
N947 H953 0.985 . S
C948 C942 1.379 . S
C948 C945 1.363 . S
C948 N946 1.356 . S
C949 C943 1.363 . S
C949 C944 1.379 . S
C949 N947 1.356 . S
N950 C942 1.356 . S
N950 H956 0.984 . S
N950 H957 0.984 . S
N951 C944 1.356 . S
N951 H954 0.984 . S
N951 H955 0.985 . S
H952 N947 0.984 . S
H953 N947 0.985 . S
H954 N951 0.984 . S
H955 N951 0.985 . S
H956 N950 0.984 . S
H957 N950 0.984 . S
H958 N946 0.984 . S
H959 N946 0.985 . S
C960 C961 1.363 . S
C960 C966 1.379 . S
C960 N968 1.356 . S
C961 C960 1.363 . S
C961 C967 1.363 . S
C962 C963 1.363 . S
C962 C967 1.379 . S
C962 N969 1.356 . S
C963 C962 1.363 . S
C963 C966 1.363 . S
N964 C966 1.356 . S
N964 H976 0.984 . S
N964 H977 0.985 . S
N965 C967 1.356 . S
N965 H970 0.984 . S
N965 H971 0.985 . S
C966 C960 1.379 . S
C966 C963 1.363 . S
C966 N964 1.356 . S
C967 C961 1.363 . S
C967 C962 1.379 . S
C967 N965 1.356 . S
N968 C960 1.356 . S
N968 H974 0.984 . S
N968 H975 0.984 . S
N969 C962 1.356 . S
N969 H972 0.984 . S
N969 H973 0.985 . S
H970 N965 0.984 . S
H971 N965 0.985 . S
H972 N969 0.984 . S
H973 N969 0.985 . S
H974 N968 0.984 . S
H975 N968 0.984 . S
H976 N964 0.984 . S
H977 N964 0.985 . S
C978 C979 1.363 . S
C978 C984 1.379 . S
C978 N986 1.356 . S
C979 C978 1.363 . S
C979 C985 1.363 . S
C980 C981 1.363 . S
C980 C985 1.379 . S
C980 N987 1.356 . S
C981 C980 1.363 . S
C981 C984 1.363 . S
N982 C984 1.356 . S
N982 H994 0.984 . S
N982 H995 0.985 . S
N983 C985 1.356 . S
N983 H988 0.984 . S
N983 H989 0.985 . S
C984 C978 1.379 . S
C984 C981 1.363 . S
C984 N982 1.356 . S
C985 C979 1.363 . S
C985 C980 1.379 . S
C985 N983 1.356 . S
N986 C978 1.356 . S
N986 H992 0.984 . S
N986 H993 0.984 . S
N987 C980 1.356 . S
N987 H990 0.984 . S
N987 H991 0.985 . S
H988 N983 0.984 . S
H989 N983 0.985 . S
H990 N987 0.984 . S
H991 N987 0.985 . S
H992 N986 0.984 . S
H993 N986 0.984 . S
H994 N982 0.984 . S
H995 N982 0.985 . S
C996 C997 1.363 . S
C996 C1002 1.379 . S
C996 N1004 1.356 . S
C997 C996 1.363 . S
C997 C1003 1.363 . S
C998 C999 1.363 . S
C998 C1003 1.379 . S
C998 N1005 1.356 . S
C999 C998 1.363 . S
C999 C1002 1.363 . S
N1000 C1002 1.356 . S
N1000 H1012 0.984 . S
N1000 H1013 0.985 . S
N1001 C1003 1.356 . S
N1001 H1006 0.984 . S
N1001 H1007 0.985 . S
C1002 C996 1.379 . S
C1002 C999 1.363 . S
C1002 N1000 1.356 . S
C1003 C997 1.363 . S
C1003 C998 1.379 . S
C1003 N1001 1.356 . S
N1004 C996 1.356 . S
N1004 H1010 0.984 . S
N1004 H1011 0.984 . S
N1005 C998 1.356 . S
N1005 H1008 0.984 . S
N1005 H1009 0.985 . S
H1006 N1001 0.984 . S
H1007 N1001 0.985 . S
H1008 N1005 0.984 . S
H1009 N1005 0.985 . S
H1010 N1004 0.984 . S
H1011 N1004 0.984 . S
H1012 N1000 0.984 . S
H1013 N1000 0.985 . S
C1014 C1015 1.363 . S
C1014 C1020 1.379 . S
C1014 N1022 1.356 . S
C1015 C1014 1.363 . S
C1015 C1021 1.363 . S
C1016 C1017 1.363 . S
C1016 C1021 1.379 . S
C1016 N1023 1.356 . S
C1017 C1016 1.363 . S
C1017 C1020 1.363 . S
N1018 C1020 1.356 . S
N1018 H1030 0.984 . S
N1018 H1031 0.985 . S
N1019 C1021 1.356 . S
N1019 H1024 0.984 . S
N1019 H1025 0.985 . S
C1020 C1014 1.379 . S
C1020 C1017 1.363 . S
C1020 N1018 1.356 . S
C1021 C1015 1.363 . S
C1021 C1016 1.379 . S
C1021 N1019 1.356 . S
N1022 C1014 1.356 . S
N1022 H1028 0.984 . S
N1022 H1029 0.984 . S
N1023 C1016 1.356 . S
N1023 H1026 0.984 . S
N1023 H1027 0.985 1_455 S
H1024 N1019 0.984 . S
H1025 N1019 0.985 . S
H1026 N1023 0.984 . S
H1027 N1023 0.985 1_655 S
H1028 N1022 0.984 . S
H1029 N1022 0.984 . S
H1030 N1018 0.984 . S
H1031 N1018 0.985 . S
C1032 C1033 1.363 . S
C1032 C1038 1.379 . S
C1032 N1040 1.356 . S
C1033 C1032 1.363 . S
C1033 C1039 1.363 . S
C1034 C1035 1.363 . S
C1034 C1039 1.379 . S
C1034 N1041 1.356 . S
C1035 C1034 1.363 . S
C1035 C1038 1.363 . S
N1036 C1038 1.356 . S
N1036 H1048 0.984 . S
N1036 H1049 0.985 . S
N1037 C1039 1.356 . S
N1037 H1042 0.984 . S
N1037 H1043 0.985 . S
C1038 C1032 1.379 . S
C1038 C1035 1.363 . S
C1038 N1036 1.356 . S
C1039 C1033 1.363 . S
C1039 C1034 1.379 . S
C1039 N1037 1.356 . S
N1040 C1032 1.356 . S
N1040 H1046 0.984 . S
N1040 H1047 0.984 . S
N1041 C1034 1.356 . S
N1041 H1044 0.984 . S
N1041 H1045 0.985 . S
H1042 N1037 0.984 . S
H1043 N1037 0.985 . S
H1044 N1041 0.984 . S
H1045 N1041 0.985 . S
H1046 N1040 0.984 . S
H1047 N1040 0.984 . S
H1048 N1036 0.984 . S
H1049 N1036 0.985 . S
C1050 C1051 1.363 . S
C1050 C1056 1.379 . S
C1050 N1058 1.356 . S
C1051 C1050 1.363 . S
C1051 C1057 1.363 . S
C1052 C1053 1.363 . S
C1052 C1057 1.379 . S
C1052 N1059 1.356 . S
C1053 C1052 1.363 . S
C1053 C1056 1.363 . S
N1054 C1056 1.356 . S
N1054 H1066 0.984 . S
N1054 H1067 0.985 . S
N1055 C1057 1.356 . S
N1055 H1060 0.984 . S
N1055 H1061 0.985 1_455 S
C1056 C1050 1.379 . S
C1056 C1053 1.363 . S
C1056 N1054 1.356 . S
C1057 C1051 1.363 . S
C1057 C1052 1.379 . S
C1057 N1055 1.356 . S
N1058 C1050 1.356 . S
N1058 H1064 0.984 . S
N1058 H1065 0.984 . S
N1059 C1052 1.356 . S
N1059 H1062 0.984 . S
N1059 H1063 0.985 1_455 S
H1060 N1055 0.984 . S
H1061 N1055 0.985 1_655 S
H1062 N1059 0.984 . S
H1063 N1059 0.985 1_655 S
H1064 N1058 0.984 . S
H1065 N1058 0.984 . S
H1066 N1054 0.984 . S
H1067 N1054 0.985 . S
C1068 C1069 1.363 . S
C1068 C1074 1.379 . S
C1068 N1076 1.356 . S
C1069 C1068 1.363 . S
C1069 C1075 1.363 . S
C1070 C1071 1.363 . S
C1070 C1075 1.379 . S
C1070 N1077 1.356 1_545 S
C1071 C1070 1.363 . S
C1071 C1074 1.363 . S
N1072 C1074 1.356 . S
N1072 H1084 0.984 . S
N1072 H1085 0.985 . S
N1073 C1075 1.356 1_565 S
N1073 H1078 0.984 1_565 S
N1073 H1079 0.985 . S
C1074 C1068 1.379 . S
C1074 C1071 1.363 . S
C1074 N1072 1.356 . S
C1075 C1069 1.363 . S
C1075 C1070 1.379 . S
C1075 N1073 1.356 1_545 S
N1076 C1068 1.356 . S
N1076 H1082 0.984 . S
N1076 H1083 0.984 . S
N1077 C1070 1.356 1_565 S
N1077 H1080 0.984 . S
N1077 H1081 0.985 . S
H1078 N1073 0.984 1_545 S
H1079 N1073 0.985 . S
H1080 N1077 0.984 . S
H1081 N1077 0.985 . S
H1082 N1076 0.984 . S
H1083 N1076 0.984 . S
H1084 N1072 0.984 . S
H1085 N1072 0.985 . S
C1086 C1087 1.363 . S
C1086 C1092 1.379 . S
C1086 N1094 1.356 . S
C1087 C1086 1.363 . S
C1087 C1093 1.363 . S
C1088 C1089 1.363 . S
C1088 C1093 1.379 . S
C1088 N1095 1.356 . S
C1089 C1088 1.363 . S
C1089 C1092 1.363 . S
N1090 C1092 1.356 . S
N1090 H1102 0.984 . S
N1090 H1103 0.985 . S
N1091 C1093 1.356 . S
N1091 H1096 0.984 . S
N1091 H1097 0.985 . S
C1092 C1086 1.379 . S
C1092 C1089 1.363 . S
C1092 N1090 1.356 . S
C1093 C1087 1.363 . S
C1093 C1088 1.379 . S
C1093 N1091 1.356 . S
N1094 C1086 1.356 . S
N1094 H1100 0.984 . S
N1094 H1101 0.984 . S
N1095 C1088 1.356 . S
N1095 H1098 0.984 . S
N1095 H1099 0.985 . S
H1096 N1091 0.984 . S
H1097 N1091 0.985 . S
H1098 N1095 0.984 . S
H1099 N1095 0.985 . S
H1100 N1094 0.984 . S
H1101 N1094 0.984 . S
H1102 N1090 0.984 . S
H1103 N1090 0.985 . S
C1104 C1105 1.363 . S
C1104 C1110 1.379 . S
C1104 N1112 1.356 . S
C1105 C1104 1.363 . S
C1105 C1111 1.363 . S
C1106 C1107 1.363 . S
C1106 C1111 1.379 . S
C1106 N1113 1.356 . S
C1107 C1106 1.363 . S
C1107 C1110 1.363 . S
N1108 C1110 1.356 . S
N1108 H1120 0.984 . S
N1108 H1121 0.985 . S
N1109 C1111 1.356 . S
N1109 H1114 0.984 . S
N1109 H1115 0.966 1_565 S
C1110 C1104 1.379 . S
C1110 C1107 1.363 . S
C1110 N1108 1.356 . S
C1111 C1105 1.363 . S
C1111 C1106 1.379 . S
C1111 N1109 1.356 . S
N1112 C1104 1.356 . S
N1112 H1118 0.984 . S
N1112 H1119 0.984 . S
N1113 C1106 1.356 . S
N1113 H1116 0.984 . S
N1113 H1117 0.985 1_565 S
H1114 N1109 0.984 . S
H1115 N1109 0.966 1_545 S
H1116 N1113 0.984 . S
H1117 N1113 0.985 1_545 S
H1118 N1112 0.984 . S
H1119 N1112 0.984 . S
H1120 N1108 0.984 . S
H1121 N1108 0.985 . S
C1122 C1123 1.363 . S
C1122 C1128 1.379 . S
C1122 N1130 1.356 . S
C1123 C1122 1.363 . S
C1123 C1129 1.363 . S
C1124 C1125 1.363 . S
C1124 C1129 1.379 . S
C1124 N1131 1.356 . S
C1125 C1124 1.363 . S
C1125 C1128 1.363 . S
N1126 C1128 1.356 . S
N1126 H1138 0.984 . S
N1126 H1139 0.985 . S
N1127 C1129 1.356 . S
N1127 H1132 0.984 . S
N1127 H1133 0.985 . S
C1128 C1122 1.379 . S
C1128 C1125 1.363 . S
C1128 N1126 1.356 . S
C1129 C1123 1.363 . S
C1129 C1124 1.379 . S
C1129 N1127 1.356 . S
N1130 C1122 1.356 . S
N1130 H1136 0.984 . S
N1130 H1137 0.984 . S
N1131 C1124 1.356 . S
N1131 H1134 0.984 . S
N1131 H1135 0.985 . S
H1132 N1127 0.984 . S
H1133 N1127 0.985 . S
H1134 N1131 0.984 . S
H1135 N1131 0.985 . S
H1136 N1130 0.984 . S
H1137 N1130 0.984 . S
H1138 N1126 0.984 . S
H1139 N1126 0.985 . S
C1140 C1141 1.363 . S
C1140 C1146 1.379 . S
C1140 N1148 1.356 . S
C1141 C1140 1.363 . S
C1141 C1147 1.363 . S
C1142 C1143 1.363 . S
C1142 C1147 1.379 . S
C1142 N1149 1.356 . S
C1143 C1142 1.363 . S
C1143 C1146 1.363 . S
N1144 C1146 1.356 . S
N1144 H1156 0.984 . S
N1144 H1157 0.985 . S
N1145 C1147 1.356 . S
N1145 H1150 0.984 . S
N1145 H1151 0.985 . S
C1146 C1140 1.379 . S
C1146 C1143 1.363 . S
C1146 N1144 1.356 . S
C1147 C1141 1.363 . S
C1147 C1142 1.379 . S
C1147 N1145 1.356 . S
N1148 C1140 1.356 . S
N1148 H1154 0.984 . S
N1148 H1155 0.984 . S
N1149 C1142 1.356 . S
N1149 H1152 0.984 . S
N1149 H1153 0.985 . S
H1150 N1145 0.984 . S
H1151 N1145 0.985 . S
H1152 N1149 0.984 . S
H1153 N1149 0.985 . S
H1154 N1148 0.984 . S
H1155 N1148 0.984 . S
H1156 N1144 0.984 . S
H1157 N1144 0.985 . S
C1158 C1159 1.363 . S
C1158 C1164 1.379 . S
C1158 N1166 1.356 . S
C1159 C1158 1.363 . S
C1159 C1165 1.363 . S
C1160 C1161 1.363 . S
C1160 C1165 1.379 . S
C1160 N1167 1.356 . S
C1161 C1160 1.363 . S
C1161 C1164 1.363 . S
N1162 C1164 1.356 . S
N1162 H1174 0.984 1_655 S
N1162 H1175 0.985 . S
N1163 C1165 1.356 . S
N1163 H1168 0.984 . S
N1163 H1169 0.985 . S
C1164 C1158 1.379 . S
C1164 C1161 1.363 . S
C1164 N1162 1.356 . S
C1165 C1159 1.363 . S
C1165 C1160 1.379 . S
C1165 N1163 1.356 . S
N1166 C1158 1.356 . S
N1166 H1172 0.984 . S
N1166 H1173 0.984 . S
N1167 C1160 1.356 . S
N1167 H1170 0.984 . S
N1167 H1171 0.985 . S
H1168 N1163 0.984 . S
H1169 N1163 0.985 . S
H1170 N1167 0.984 . S
H1171 N1167 0.985 . S
H1172 N1166 0.984 . S
H1173 N1166 0.984 . S
H1174 N1162 0.984 1_455 S
H1175 N1162 0.985 . S
C1176 C1177 1.363 . S
C1176 C1182 1.379 . S
C1176 N1184 1.356 . S
C1177 C1176 1.363 . S
C1177 C1183 1.363 . S
C1178 C1179 1.363 . S
C1178 C1183 1.379 . S
C1178 N1185 1.356 . S
C1179 C1178 1.363 . S
C1179 C1182 1.363 . S
N1180 C1182 1.356 . S
N1180 H1192 0.984 . S
N1180 H1193 0.985 . S
N1181 C1183 1.356 . S
N1181 H1186 0.984 . S
N1181 H1187 0.985 . S
C1182 C1176 1.379 . S
C1182 C1179 1.363 . S
C1182 N1180 1.356 . S
C1183 C1177 1.363 . S
C1183 C1178 1.379 . S
C1183 N1181 1.356 . S
N1184 C1176 1.356 . S
N1184 H1190 0.984 . S
N1184 H1191 0.984 . S
N1185 C1178 1.356 . S
N1185 H1188 0.984 . S
N1185 H1189 0.985 . S
H1186 N1181 0.984 . S
H1187 N1181 0.985 . S
H1188 N1185 0.984 . S
H1189 N1185 0.985 . S
H1190 N1184 0.984 . S
H1191 N1184 0.984 . S
H1192 N1180 0.984 . S
H1193 N1180 0.985 . S
C1194 C1195 1.363 . S
C1194 C1200 1.379 . S
C1194 N1202 1.356 . S
C1195 C1194 1.363 . S
C1195 C1201 1.363 . S
C1196 C1197 1.363 . S
C1196 C1201 1.379 . S
C1196 N1203 1.356 . S
C1197 C1196 1.363 . S
C1197 C1200 1.363 . S
N1198 C1200 1.356 . S
N1198 H1210 0.984 . S
N1198 H1211 0.985 . S
N1199 C1201 1.356 . S
N1199 H1204 0.984 . S
N1199 H1205 0.985 1_655 S
C1200 C1194 1.379 . S
C1200 C1197 1.363 . S
C1200 N1198 1.356 . S
C1201 C1195 1.363 . S
C1201 C1196 1.379 . S
C1201 N1199 1.356 . S
N1202 C1194 1.356 . S
N1202 H1208 0.984 . S
N1202 H1209 0.984 . S
N1203 C1196 1.356 . S
N1203 H1206 0.984 . S
N1203 H1207 0.985 . S
H1204 N1199 0.984 . S
H1205 N1199 0.985 1_455 S
H1206 N1203 0.984 . S
H1207 N1203 0.985 . S
H1208 N1202 0.984 . S
H1209 N1202 0.984 . S
H1210 N1198 0.984 . S
H1211 N1198 0.985 . S
C1212 C1213 1.363 . S
C1212 C1218 1.379 . S
C1212 N1220 1.356 1_565 S
C1213 C1212 1.363 . S
C1213 C1219 1.363 . S
C1214 C1215 1.363 . S
C1214 C1219 1.379 . S
C1214 N1221 1.356 . S
C1215 C1214 1.363 . S
C1215 C1218 1.363 . S
N1216 C1218 1.356 1_545 S
N1216 H1228 0.984 . S
N1216 H1229 0.985 1_545 S
N1217 C1219 1.356 . S
N1217 H1222 0.984 . S
N1217 H1223 0.985 . S
C1218 C1212 1.379 . S
C1218 C1215 1.363 . S
C1218 N1216 1.356 1_565 S
C1219 C1213 1.363 . S
C1219 C1214 1.379 . S
C1219 N1217 1.356 . S
N1220 C1212 1.356 1_545 S
N1220 H1226 0.984 . S
N1220 H1227 0.984 . S
N1221 C1214 1.356 . S
N1221 H1224 0.984 . S
N1221 H1225 0.985 . S
H1222 N1217 0.984 . S
H1223 N1217 0.985 . S
H1224 N1221 0.984 . S
H1225 N1221 0.985 . S
H1226 N1220 0.984 . S
H1227 N1220 0.984 . S
H1228 N1216 0.984 . S
H1229 N1216 0.985 1_565 S
C1230 C1231 1.363 . S
C1230 C1236 1.379 . S
C1230 N1238 1.356 . S
C1231 C1230 1.363 . S
C1231 C1237 1.363 . S
C1232 C1233 1.363 . S
C1232 C1237 1.379 . S
C1232 N1239 1.356 . S
C1233 C1232 1.363 . S
C1233 C1236 1.363 . S
N1234 C1236 1.356 . S
N1234 H1246 0.984 . S
N1234 H1247 0.985 . S
N1235 C1237 1.356 . S
N1235 H1240 0.984 . S
N1235 H1241 0.985 . S
C1236 C1230 1.379 . S
C1236 C1233 1.363 . S
C1236 N1234 1.356 . S
C1237 C1231 1.363 . S
C1237 C1232 1.379 . S
C1237 N1235 1.356 . S
N1238 C1230 1.356 . S
N1238 H1244 0.984 . S
N1238 H1245 0.984 . S
N1239 C1232 1.356 . S
N1239 H1242 0.984 . S
N1239 H1243 0.985 . S
H1240 N1235 0.984 . S
H1241 N1235 0.985 . S
H1242 N1239 0.984 . S
H1243 N1239 0.985 . S
H1244 N1238 0.984 . S
H1245 N1238 0.984 . S
H1246 N1234 0.984 . S
H1247 N1234 0.985 . S
C529 C7 0.698 . S
C531 C172 0.698 . S
C547 C40 0.698 . S
C549 C205 0.698 . S
C565 C238 0.699 . S
C567 C73 0.699 . S
C583 C139 0.698 . S
C585 C106 0.698 . S
C601 C271 0.698 . S
C603 C436 0.698 . S
C619 C304 0.698 . S
C621 C469 0.698 . S
C637 C337 0.699 . S
C639 C502 0.699 . S
C655 C370 0.698 . S
C657 C403 0.698 . S
C673 C285 1.996 . S
C675 C21 1.996 . S
C691 C318 1.996 . S
C693 C54 1.996 . S
C709 C87 1.996 . S
C711 C351 1.996 . S
C727 C384 1.996 . S
C729 C120 1.996 . S
C745 C153 1.996 . S
C747 C417 1.996 . S
C763 C186 1.996 . S
C765 C450 1.996 . S
C781 C219 1.996 . S
C783 C483 1.996 . S
C799 C252 1.996 . S
C801 C516 1.996 . S
C817 N13 1.735 . S
C819 N145 1.735 . S
C835 N46 1.735 . S
C837 N178 1.735 . S
C853 N211 1.735 . S
C855 N79 1.735 . S
C871 N112 1.735 . S
C873 N244 1.735 . S
C889 N409 1.735 . S
C891 N277 1.735 . S
C907 N442 1.735 . S
C909 N310 1.735 . S
C925 N343 1.735 . S
C927 N475 1.735 . S
C943 N508 1.735 . S
C945 N376 1.735 . S
C961 C51 1.542 . S
C963 N2 1.428 . S
C979 N35 1.428 . S
C981 C84 1.542 . S
C997 N68 1.428 . S
C999 C117 1.542 . S
C1015 N101 1.428 . S
C1017 C18 1.542 . S
C1033 C249 1.542 . S
C1035 N134 1.428 . S
C1051 N167 1.428 . S
C1053 C150 1.542 . S
C1069 N200 1.428 . S
C1071 C183 1.542 . S
C1087 N233 1.428 . S
C1089 C216 1.542 . S
C1105 N266 1.428 . S
C1107 C315 1.542 . S
C1123 N299 1.428 . S
C1125 C348 1.542 . S
C1141 C381 1.542 . S
C1143 N332 1.428 . S
C1159 N365 1.428 . S
C1161 C282 1.542 . S
C1177 N398 1.428 . S
C1179 C513 1.542 . S
C1195 C414 1.542 . S
C1197 N431 1.428 . S
C1213 C447 1.542 . S
C1215 N464 1.428 . S
C1231 N497 1.428 . S
C1233 C480 1.542 . S
