# Generated by pormake.
# Topology fcq, (5)-cn, num edge types: 1
# Building blocks:
#     Node 0, Type 0, BuildingBlock: XOMCOT_clean_sbu_1, # of connection points: 5
#     Node 1, Type 0, BuildingBlock: XOMCOT_clean_sbu_1, # of connection points: 5
#     Node 2, Type 0, BuildingBlock: XOMCOT_clean_sbu_1, # of connection points: 5
#     Node 3, Type 0, BuildingBlock: XOMCOT_clean_sbu_1, # of connection points: 5
#     Node 4, Type 0, BuildingBlock: XOMCOT_clean_sbu_1, # of connection points: 5
#     Node 5, Type 0, BuildingBlock: XOMCOT_clean_sbu_1, # of connection points: 5
#     Node 6, Type 0, BuildingBlock: XOMCOT_clean_sbu_1, # of connection points: 5
#     Node 7, Type 0, BuildingBlock: XOMCOT_clean_sbu_1, # of connection points: 5
#     Node 8, Type 0, BuildingBlock: XOMCOT_clean_sbu_1, # of connection points: 5
#     Node 9, Type 0, BuildingBlock: XOMCOT_clean_sbu_1, # of connection points: 5
#     Node 10, Type 0, BuildingBlock: XOMCOT_clean_sbu_1, # of connection points: 5
#     Node 11, Type 0, BuildingBlock: XOMCOT_clean_sbu_1, # of connection points: 5
#     Node 12, Type 0, BuildingBlock: XOMCOT_clean_sbu_1, # of connection points: 5
#     Node 13, Type 0, BuildingBlock: XOMCOT_clean_sbu_1, # of connection points: 5
#     Node 14, Type 0, BuildingBlock: XOMCOT_clean_sbu_1, # of connection points: 5
#     Node 15, Type 0, BuildingBlock: XOMCOT_clean_sbu_1, # of connection points: 5
#     Node 16, Type 0, BuildingBlock: XOMCOT_clean_sbu_1, # of connection points: 5
#     Node 17, Type 0, BuildingBlock: XOMCOT_clean_sbu_1, # of connection points: 5
#     Node 18, Type 0, BuildingBlock: XOMCOT_clean_sbu_1, # of connection points: 5
#     Node 19, Type 0, BuildingBlock: XOMCOT_clean_sbu_1, # of connection points: 5
#     Node 20, Type 0, BuildingBlock: XOMCOT_clean_sbu_1, # of connection points: 5
#     Node 21, Type 0, BuildingBlock: XOMCOT_clean_sbu_1, # of connection points: 5
#     Node 22, Type 0, BuildingBlock: XOMCOT_clean_sbu_1, # of connection points: 5
#     Node 23, Type 0, BuildingBlock: XOMCOT_clean_sbu_1, # of connection points: 5
#     Node 24, Type 0, BuildingBlock: XOMCOT_clean_sbu_1, # of connection points: 5
#     Node 25, Type 0, BuildingBlock: XOMCOT_clean_sbu_1, # of connection points: 5
#     Node 26, Type 0, BuildingBlock: XOMCOT_clean_sbu_1, # of connection points: 5
#     Node 27, Type 0, BuildingBlock: XOMCOT_clean_sbu_1, # of connection points: 5
#     Node 28, Type 0, BuildingBlock: XOMCOT_clean_sbu_1, # of connection points: 5
#     Node 29, Type 0, BuildingBlock: XOMCOT_clean_sbu_1, # of connection points: 5
#     Node 30, Type 0, BuildingBlock: XOMCOT_clean_sbu_1, # of connection points: 5
#     Node 31, Type 0, BuildingBlock: XOMCOT_clean_sbu_1, # of connection points: 5
#     Node 32, Type 0, BuildingBlock: XOMCOT_clean_sbu_1, # of connection points: 5
#     Node 33, Type 0, BuildingBlock: XOMCOT_clean_sbu_1, # of connection points: 5
#     Node 34, Type 0, BuildingBlock: XOMCOT_clean_sbu_1, # of connection points: 5
#     Node 35, Type 0, BuildingBlock: XOMCOT_clean_sbu_1, # of connection points: 5
#     Node 36, Type 0, BuildingBlock: XOMCOT_clean_sbu_1, # of connection points: 5
#     Node 37, Type 0, BuildingBlock: XOMCOT_clean_sbu_1, # of connection points: 5
#     Node 38, Type 0, BuildingBlock: XOMCOT_clean_sbu_1, # of connection points: 5
#     Node 39, Type 0, BuildingBlock: XOMCOT_clean_sbu_1, # of connection points: 5
#     Node 40, Type 0, BuildingBlock: XOMCOT_clean_sbu_1, # of connection points: 5
#     Node 41, Type 0, BuildingBlock: XOMCOT_clean_sbu_1, # of connection points: 5
#     Node 42, Type 0, BuildingBlock: XOMCOT_clean_sbu_1, # of connection points: 5
#     Node 43, Type 0, BuildingBlock: XOMCOT_clean_sbu_1, # of connection points: 5
#     Node 44, Type 0, BuildingBlock: XOMCOT_clean_sbu_1, # of connection points: 5
#     Node 45, Type 0, BuildingBlock: XOMCOT_clean_sbu_1, # of connection points: 5
#     Node 46, Type 0, BuildingBlock: XOMCOT_clean_sbu_1, # of connection points: 5
#     Node 47, Type 0, BuildingBlock: XOMCOT_clean_sbu_1, # of connection points: 5
#     Edge 48, Type (0, 0), BuildingBlock: AJUNOK_clean_linker_0, # of connection points: 2
#     Edge 49, Type (0, 0), BuildingBlock: AJUNOK_clean_linker_0, # of connection points: 2
#     Edge 50, Type (0, 0), BuildingBlock: AJUNOK_clean_linker_0, # of connection points: 2
#     Edge 51, Type (0, 0), BuildingBlock: AJUNOK_clean_linker_0, # of connection points: 2
#     Edge 52, Type (0, 0), BuildingBlock: AJUNOK_clean_linker_0, # of connection points: 2
#     Edge 53, Type (0, 0), BuildingBlock: AJUNOK_clean_linker_0, # of connection points: 2
#     Edge 54, Type (0, 0), BuildingBlock: AJUNOK_clean_linker_0, # of connection points: 2
#     Edge 55, Type (0, 0), BuildingBlock: AJUNOK_clean_linker_0, # of connection points: 2
#     Edge 56, Type (0, 0), BuildingBlock: AJUNOK_clean_linker_0, # of connection points: 2
#     Edge 57, Type (0, 0), BuildingBlock: AJUNOK_clean_linker_0, # of connection points: 2
#     Edge 58, Type (0, 0), BuildingBlock: AJUNOK_clean_linker_0, # of connection points: 2
#     Edge 59, Type (0, 0), BuildingBlock: AJUNOK_clean_linker_0, # of connection points: 2
#     Edge 60, Type (0, 0), BuildingBlock: AJUNOK_clean_linker_0, # of connection points: 2
#     Edge 61, Type (0, 0), BuildingBlock: AJUNOK_clean_linker_0, # of connection points: 2
#     Edge 62, Type (0, 0), BuildingBlock: AJUNOK_clean_linker_0, # of connection points: 2
#     Edge 63, Type (0, 0), BuildingBlock: AJUNOK_clean_linker_0, # of connection points: 2
#     Edge 64, Type (0, 0), BuildingBlock: AJUNOK_clean_linker_0, # of connection points: 2
#     Edge 65, Type (0, 0), BuildingBlock: AJUNOK_clean_linker_0, # of connection points: 2
#     Edge 66, Type (0, 0), BuildingBlock: AJUNOK_clean_linker_0, # of connection points: 2
#     Edge 67, Type (0, 0), BuildingBlock: AJUNOK_clean_linker_0, # of connection points: 2
#     Edge 68, Type (0, 0), BuildingBlock: AJUNOK_clean_linker_0, # of connection points: 2
#     Edge 69, Type (0, 0), BuildingBlock: AJUNOK_clean_linker_0, # of connection points: 2
#     Edge 70, Type (0, 0), BuildingBlock: AJUNOK_clean_linker_0, # of connection points: 2
#     Edge 71, Type (0, 0), BuildingBlock: AJUNOK_clean_linker_0, # of connection points: 2
#     Edge 72, Type (0, 0), BuildingBlock: AJUNOK_clean_linker_0, # of connection points: 2
#     Edge 73, Type (0, 0), BuildingBlock: AJUNOK_clean_linker_0, # of connection points: 2
#     Edge 74, Type (0, 0), BuildingBlock: AJUNOK_clean_linker_0, # of connection points: 2
#     Edge 75, Type (0, 0), BuildingBlock: AJUNOK_clean_linker_0, # of connection points: 2
#     Edge 76, Type (0, 0), BuildingBlock: AJUNOK_clean_linker_0, # of connection points: 2
#     Edge 77, Type (0, 0), BuildingBlock: AJUNOK_clean_linker_0, # of connection points: 2
#     Edge 78, Type (0, 0), BuildingBlock: AJUNOK_clean_linker_0, # of connection points: 2
#     Edge 79, Type (0, 0), BuildingBlock: AJUNOK_clean_linker_0, # of connection points: 2
#     Edge 80, Type (0, 0), BuildingBlock: AJUNOK_clean_linker_0, # of connection points: 2
#     Edge 81, Type (0, 0), BuildingBlock: AJUNOK_clean_linker_0, # of connection points: 2
#     Edge 82, Type (0, 0), BuildingBlock: AJUNOK_clean_linker_0, # of connection points: 2
#     Edge 83, Type (0, 0), BuildingBlock: AJUNOK_clean_linker_0, # of connection points: 2
#     Edge 84, Type (0, 0), BuildingBlock: AJUNOK_clean_linker_0, # of connection points: 2
#     Edge 85, Type (0, 0), BuildingBlock: AJUNOK_clean_linker_0, # of connection points: 2
#     Edge 86, Type (0, 0), BuildingBlock: AJUNOK_clean_linker_0, # of connection points: 2
#     Edge 87, Type (0, 0), BuildingBlock: AJUNOK_clean_linker_0, # of connection points: 2
#     Edge 88, Type (0, 0), BuildingBlock: AJUNOK_clean_linker_0, # of connection points: 2
#     Edge 89, Type (0, 0), BuildingBlock: AJUNOK_clean_linker_0, # of connection points: 2
#     Edge 90, Type (0, 0), BuildingBlock: AJUNOK_clean_linker_0, # of connection points: 2
#     Edge 91, Type (0, 0), BuildingBlock: AJUNOK_clean_linker_0, # of connection points: 2
#     Edge 92, Type (0, 0), BuildingBlock: AJUNOK_clean_linker_0, # of connection points: 2
#     Edge 93, Type (0, 0), BuildingBlock: AJUNOK_clean_linker_0, # of connection points: 2
#     Edge 94, Type (0, 0), BuildingBlock: AJUNOK_clean_linker_0, # of connection points: 2
#     Edge 95, Type (0, 0), BuildingBlock: AJUNOK_clean_linker_0, # of connection points: 2
#     Edge 96, Type (0, 0), BuildingBlock: AJUNOK_clean_linker_0, # of connection points: 2
#     Edge 97, Type (0, 0), BuildingBlock: AJUNOK_clean_linker_0, # of connection points: 2
#     Edge 98, Type (0, 0), BuildingBlock: AJUNOK_clean_linker_0, # of connection points: 2
#     Edge 99, Type (0, 0), BuildingBlock: AJUNOK_clean_linker_0, # of connection points: 2
#     Edge 100, Type (0, 0), BuildingBlock: AJUNOK_clean_linker_0, # of connection points: 2
#     Edge 101, Type (0, 0), BuildingBlock: AJUNOK_clean_linker_0, # of connection points: 2
#     Edge 102, Type (0, 0), BuildingBlock: AJUNOK_clean_linker_0, # of connection points: 2
#     Edge 103, Type (0, 0), BuildingBlock: AJUNOK_clean_linker_0, # of connection points: 2
#     Edge 104, Type (0, 0), BuildingBlock: AJUNOK_clean_linker_0, # of connection points: 2
#     Edge 105, Type (0, 0), BuildingBlock: AJUNOK_clean_linker_0, # of connection points: 2
#     Edge 106, Type (0, 0), BuildingBlock: AJUNOK_clean_linker_0, # of connection points: 2
#     Edge 107, Type (0, 0), BuildingBlock: AJUNOK_clean_linker_0, # of connection points: 2
#     Edge 108, Type (0, 0), BuildingBlock: AJUNOK_clean_linker_0, # of connection points: 2
#     Edge 109, Type (0, 0), BuildingBlock: AJUNOK_clean_linker_0, # of connection points: 2
#     Edge 110, Type (0, 0), BuildingBlock: AJUNOK_clean_linker_0, # of connection points: 2
#     Edge 111, Type (0, 0), BuildingBlock: AJUNOK_clean_linker_0, # of connection points: 2
#     Edge 112, Type (0, 0), BuildingBlock: AJUNOK_clean_linker_0, # of connection points: 2
#     Edge 113, Type (0, 0), BuildingBlock: AJUNOK_clean_linker_0, # of connection points: 2
#     Edge 114, Type (0, 0), BuildingBlock: AJUNOK_clean_linker_0, # of connection points: 2
#     Edge 115, Type (0, 0), BuildingBlock: AJUNOK_clean_linker_0, # of connection points: 2
#     Edge 116, Type (0, 0), BuildingBlock: AJUNOK_clean_linker_0, # of connection points: 2
#     Edge 117, Type (0, 0), BuildingBlock: AJUNOK_clean_linker_0, # of connection points: 2
#     Edge 118, Type (0, 0), BuildingBlock: AJUNOK_clean_linker_0, # of connection points: 2
#     Edge 119, Type (0, 0), BuildingBlock: AJUNOK_clean_linker_0, # of connection points: 2
#     Edge 120, Type (0, 0), BuildingBlock: AJUNOK_clean_linker_0, # of connection points: 2
#     Edge 121, Type (0, 0), BuildingBlock: AJUNOK_clean_linker_0, # of connection points: 2
#     Edge 122, Type (0, 0), BuildingBlock: AJUNOK_clean_linker_0, # of connection points: 2
#     Edge 123, Type (0, 0), BuildingBlock: AJUNOK_clean_linker_0, # of connection points: 2
#     Edge 124, Type (0, 0), BuildingBlock: AJUNOK_clean_linker_0, # of connection points: 2
#     Edge 125, Type (0, 0), BuildingBlock: AJUNOK_clean_linker_0, # of connection points: 2
#     Edge 126, Type (0, 0), BuildingBlock: AJUNOK_clean_linker_0, # of connection points: 2
#     Edge 127, Type (0, 0), BuildingBlock: AJUNOK_clean_linker_0, # of connection points: 2
#     Edge 128, Type (0, 0), BuildingBlock: AJUNOK_clean_linker_0, # of connection points: 2
#     Edge 129, Type (0, 0), BuildingBlock: AJUNOK_clean_linker_0, # of connection points: 2
#     Edge 130, Type (0, 0), BuildingBlock: AJUNOK_clean_linker_0, # of connection points: 2
#     Edge 131, Type (0, 0), BuildingBlock: AJUNOK_clean_linker_0, # of connection points: 2
#     Edge 132, Type (0, 0), BuildingBlock: AJUNOK_clean_linker_0, # of connection points: 2
#     Edge 133, Type (0, 0), BuildingBlock: AJUNOK_clean_linker_0, # of connection points: 2
#     Edge 134, Type (0, 0), BuildingBlock: AJUNOK_clean_linker_0, # of connection points: 2
#     Edge 135, Type (0, 0), BuildingBlock: AJUNOK_clean_linker_0, # of connection points: 2
#     Edge 136, Type (0, 0), BuildingBlock: AJUNOK_clean_linker_0, # of connection points: 2
#     Edge 137, Type (0, 0), BuildingBlock: AJUNOK_clean_linker_0, # of connection points: 2
#     Edge 138, Type (0, 0), BuildingBlock: AJUNOK_clean_linker_0, # of connection points: 2
#     Edge 139, Type (0, 0), BuildingBlock: AJUNOK_clean_linker_0, # of connection points: 2
#     Edge 140, Type (0, 0), BuildingBlock: AJUNOK_clean_linker_0, # of connection points: 2
#     Edge 141, Type (0, 0), BuildingBlock: AJUNOK_clean_linker_0, # of connection points: 2
#     Edge 142, Type (0, 0), BuildingBlock: AJUNOK_clean_linker_0, # of connection points: 2
#     Edge 143, Type (0, 0), BuildingBlock: AJUNOK_clean_linker_0, # of connection points: 2
#     Edge 144, Type (0, 0), BuildingBlock: AJUNOK_clean_linker_0, # of connection points: 2
#     Edge 145, Type (0, 0), BuildingBlock: AJUNOK_clean_linker_0, # of connection points: 2
#     Edge 146, Type (0, 0), BuildingBlock: AJUNOK_clean_linker_0, # of connection points: 2
#     Edge 147, Type (0, 0), BuildingBlock: AJUNOK_clean_linker_0, # of connection points: 2
#     Edge 148, Type (0, 0), BuildingBlock: AJUNOK_clean_linker_0, # of connection points: 2
#     Edge 149, Type (0, 0), BuildingBlock: AJUNOK_clean_linker_0, # of connection points: 2
#     Edge 150, Type (0, 0), BuildingBlock: AJUNOK_clean_linker_0, # of connection points: 2
#     Edge 151, Type (0, 0), BuildingBlock: AJUNOK_clean_linker_0, # of connection points: 2
#     Edge 152, Type (0, 0), BuildingBlock: AJUNOK_clean_linker_0, # of connection points: 2
#     Edge 153, Type (0, 0), BuildingBlock: AJUNOK_clean_linker_0, # of connection points: 2
#     Edge 154, Type (0, 0), BuildingBlock: AJUNOK_clean_linker_0, # of connection points: 2
#     Edge 155, Type (0, 0), BuildingBlock: AJUNOK_clean_linker_0, # of connection points: 2
#     Edge 156, Type (0, 0), BuildingBlock: AJUNOK_clean_linker_0, # of connection points: 2
#     Edge 157, Type (0, 0), BuildingBlock: AJUNOK_clean_linker_0, # of connection points: 2
#     Edge 158, Type (0, 0), BuildingBlock: AJUNOK_clean_linker_0, # of connection points: 2
#     Edge 159, Type (0, 0), BuildingBlock: AJUNOK_clean_linker_0, # of connection points: 2
#     Edge 160, Type (0, 0), BuildingBlock: AJUNOK_clean_linker_0, # of connection points: 2
#     Edge 161, Type (0, 0), BuildingBlock: AJUNOK_clean_linker_0, # of connection points: 2
#     Edge 162, Type (0, 0), BuildingBlock: AJUNOK_clean_linker_0, # of connection points: 2
#     Edge 163, Type (0, 0), BuildingBlock: AJUNOK_clean_linker_0, # of connection points: 2
#     Edge 164, Type (0, 0), BuildingBlock: AJUNOK_clean_linker_0, # of connection points: 2
#     Edge 165, Type (0, 0), BuildingBlock: AJUNOK_clean_linker_0, # of connection points: 2
#     Edge 166, Type (0, 0), BuildingBlock: AJUNOK_clean_linker_0, # of connection points: 2
#     Edge 167, Type (0, 0), BuildingBlock: AJUNOK_clean_linker_0, # of connection points: 2
# Relax obj value: 0.453
# Max RMSD: 0.267
# Mean RMSD: 0.267
data_MOF--net-fcq--node1-XOMCOT_clean_sbu_1--edge1-AJUNOK_clean_linker_0
_symmetry_space_group_name_H-M    P1
_symmetry_Int_Tables_number       1
_symmetry_cell_setting            triclinic
loop_
_symmetry_equiv_pos_as_xyz
'x, y, z'
_cell_length_a     50.780637
_cell_length_b     50.794026
_cell_length_c     50.743826
_cell_angle_alpha  89.989024
_cell_angle_beta   90.016538
_cell_angle_gamma 89.998106
loop_
_atom_site_label
_atom_site_type_symbol
_atom_site_fract_x
_atom_site_fract_y
_atom_site_fract_z
_atom_type_partial_charge
C0 C 0.20374 0.24412 0.41919 0.0
C1 C 0.22184 0.2485 0.4389 0.0
N2 N 0.21506 0.23389 0.45998 0.0
N3 N 0.1856 0.2267 0.4276 0.0
C4 C 0.19289 0.22096 0.45269 0.0
H5 H 0.20446 0.25211 0.39944 0.0
Co6 Co 0.16118 0.21137 0.40456 0.0
C7 C 0.13755 0.16712 0.43338 0.0
O8 O 0.13969 0.1535 0.41147 0.0
N9 N 0.13629 0.19659 0.38053 0.0
C10 C 0.1162 0.17593 0.34741 0.0
C11 C 0.13941 0.18703 0.35586 0.0
C12 C 0.11041 0.19253 0.38571 0.0
N13 N 0.09805 0.17885 0.36648 0.0
O14 O 0.13709 0.2399 0.41055 0.0
H15 H 0.15735 0.1872 0.3446 0.0
H16 H 0.10121 0.19846 0.40399 0.0
O17 O 0.14536 0.19113 0.43374 0.0
C18 C 0.13645 0.25611 0.39139 0.0
O19 O 0.15246 0.25206 0.37145 0.0
N20 N 0.18625 0.18459 0.39775 0.0
C21 C 0.22624 0.14882 0.38578 0.0
C22 C 0.21424 0.14869 0.41057 0.0
C23 C 0.19488 0.16713 0.4164 0.0
C24 C 0.1993 0.18642 0.37435 0.0
C25 C 0.21896 0.16834 0.36765 0.0
H26 H 0.18772 0.16774 0.43635 0.0
H27 H 0.19492 0.20245 0.36104 0.0
H28 H 0.18324 0.20634 0.46478 0.0
H29 H 0.23908 0.26098 0.43763 0.0
H30 H 0.11341 0.16512 0.32924 0.0
H31 H 0.22074 0.13532 0.4259 0.0
H32 H 0.22884 0.17004 0.34881 0.0
C33 C 0.49288 0.54511 0.84187 0.0
C34 C 0.49734 0.52664 0.82253 0.0
N35 N 0.48472 0.53431 0.8005 0.0
N36 N 0.47733 0.56434 0.83225 0.0
C37 C 0.47285 0.55733 0.80683 0.0
H38 H 0.49938 0.54393 0.86213 0.0
Co39 Co 0.46205 0.58977 0.85423 0.0
C40 C 0.41874 0.61275 0.82351 0.0
O41 O 0.40426 0.61117 0.84495 0.0
N42 N 0.44734 0.61573 0.8772 0.0
C43 C 0.42844 0.6374 0.91041 0.0
C44 C 0.43934 0.61391 0.90255 0.0
C45 C 0.44266 0.64127 0.87092 0.0
N46 N 0.43001 0.6545 0.89026 0.0
O47 O 0.49113 0.61306 0.84806 0.0
H48 H 0.44079 0.59676 0.91491 0.0
H49 H 0.4476 0.64971 0.85199 0.0
O50 O 0.44274 0.60497 0.82421 0.0
C51 C 0.50732 0.61298 0.86725 0.0
O52 O 0.50271 0.5969 0.88701 0.0
N53 N 0.43465 0.56541 0.86129 0.0
C54 C 0.39886 0.52532 0.87327 0.0
C55 C 0.39983 0.53627 0.84798 0.0
C56 C 0.41818 0.55578 0.84224 0.0
C57 C 0.4352 0.55366 0.88544 0.0
C58 C 0.41683 0.53433 0.89223 0.0
H59 H 0.41969 0.56215 0.82205 0.0
H60 H 0.45068 0.55845 0.89919 0.0
H61 H 0.45971 0.56781 0.79375 0.0
H62 H 0.50841 0.50855 0.8247 0.0
H63 H 0.41887 0.64116 0.9291 0.0
H64 H 0.38739 0.52889 0.83229 0.0
H65 H 0.4173 0.52599 0.91186 0.0
C66 C 0.80455 0.25413 0.42036 0.0
C67 C 0.78535 0.2485 0.43864 0.0
N68 N 0.78454 0.26811 0.45653 0.0
N69 N 0.81619 0.27709 0.42664 0.0
C70 C 0.80348 0.28526 0.44873 0.0
H71 H 0.80941 0.24242 0.40326 0.0
Co72 Co 0.84192 0.29326 0.40548 0.0
C73 C 0.86541 0.30226 0.45767 0.0
O74 O 0.8648 0.27707 0.46348 0.0
N75 N 0.86712 0.30926 0.38388 0.0
C76 C 0.88762 0.3239 0.34802 0.0
C77 C 0.86568 0.31103 0.3574 0.0
C78 C 0.89021 0.32098 0.39014 0.0
N79 N 0.90309 0.33006 0.36867 0.0
O80 O 0.86506 0.26384 0.41018 0.0
H81 H 0.84959 0.30356 0.34562 0.0
H82 H 0.89764 0.32274 0.41004 0.0
O83 O 0.85692 0.31023 0.4355 0.0
C84 C 0.86722 0.24777 0.39106 0.0
O85 O 0.85307 0.25192 0.36977 0.0
N86 N 0.81897 0.32139 0.39969 0.0
C87 C 0.77975 0.35807 0.38829 0.0
C88 C 0.79625 0.36142 0.41021 0.0
C89 C 0.81595 0.343 0.41546 0.0
C90 C 0.80341 0.31798 0.37814 0.0
C91 C 0.78389 0.33624 0.37186 0.0
H92 H 0.82786 0.34586 0.43281 0.0
H93 H 0.80581 0.30058 0.36609 0.0
H94 H 0.80818 0.30334 0.45895 0.0
H95 H 0.77261 0.23142 0.43845 0.0
H96 H 0.89143 0.32899 0.32767 0.0
H97 H 0.79323 0.37743 0.42398 0.0
H98 H 0.77162 0.33284 0.35474 0.0
C99 C 0.50659 0.95599 0.83785 0.0
C100 C 0.50232 0.97562 0.81958 0.0
N101 N 0.52067 0.9735 0.80054 0.0
N102 N 0.52745 0.94137 0.83038 0.0
C103 C 0.53561 0.95255 0.80749 0.0
H104 H 0.49559 0.95297 0.85583 0.0
Co105 Co 0.54279 0.91508 0.85144 0.0
C106 C 0.55431 0.89048 0.7995 0.0
O107 O 0.52948 0.8891 0.79234 0.0
N108 N 0.55825 0.8891 0.87274 0.0
C109 C 0.57827 0.8688 0.90593 0.0
C110 C 0.56579 0.89152 0.89808 0.0
C111 C 0.56558 0.86442 0.86592 0.0
N112 N 0.57841 0.85169 0.88559 0.0
O113 O 0.51314 0.89264 0.84594 0.0
H114 H 0.56297 0.90889 0.91003 0.0
H115 H 0.56135 0.85606 0.84682 0.0
O116 O 0.56044 0.90038 0.82165 0.0
C117 C 0.4968 0.89214 0.86494 0.0
O118 O 0.50162 0.90686 0.88569 0.0
N119 N 0.57101 0.9377 0.85808 0.0
C120 C 0.60732 0.97706 0.86989 0.0
C121 C 0.6113 0.96026 0.84834 0.0
C122 C 0.59297 0.94063 0.84279 0.0
C123 C 0.56699 0.95358 0.8793 0.0
C124 C 0.58507 0.97318 0.8858 0.0
H125 H 0.59609 0.92894 0.82541 0.0
H126 H 0.54922 0.95138 0.89085 0.0
H127 H 0.55277 0.94619 0.79658 0.0
H128 H 0.48686 0.99028 0.82021 0.0
H129 H 0.58743 0.8656 0.92491 0.0
H130 H 0.62759 0.96318 0.8349 0.0
H131 H 0.58115 0.98584 0.90252 0.0
C132 C 0.20549 0.75986 0.08972 0.0
C133 C 0.22393 0.75294 0.07116 0.0
N134 N 0.22104 0.76871 0.04999 0.0
N135 N 0.19084 0.77997 0.08058 0.0
C136 C 0.20105 0.78522 0.05637 0.0
H137 H 0.20341 0.75123 0.10908 0.0
Co138 Co 0.16512 0.79636 0.10165 0.0
C139 C 0.1395 0.80577 0.05007 0.0
O140 O 0.13779 0.78054 0.04463 0.0
N141 N 0.13976 0.81248 0.12332 0.0
C142 C 0.11782 0.82514 0.15914 0.0
C143 C 0.13972 0.81214 0.14993 0.0
C144 C 0.11744 0.82556 0.11686 0.0
N145 N 0.10373 0.83346 0.13828 0.0
O146 O 0.14217 0.76658 0.0977 0.0
H147 H 0.15457 0.80286 0.16201 0.0
H148 H 0.11095 0.82889 0.09686 0.0
O149 O 0.14988 0.81331 0.07158 0.0
C150 C 0.14249 0.75089 0.11729 0.0
O151 O 0.15879 0.75592 0.13676 0.0
N152 N 0.18812 0.82463 0.10693 0.0
C153 C 0.22847 0.86039 0.11749 0.0
C154 C 0.21483 0.86119 0.09344 0.0
C155 C 0.1946 0.8432 0.08855 0.0
C156 C 0.2007 0.824 0.13061 0.0
C157 C 0.22039 0.84216 0.13661 0.0
H158 H 0.18529 0.84355 0.06944 0.0
H159 H 0.19611 0.80868 0.14463 0.0
H160 H 0.19424 0.80096 0.04373 0.0
H161 H 0.2389 0.73796 0.0735 0.0
H162 H 0.11298 0.82861 0.17961 0.0
H163 H 0.22058 0.87471 0.07797 0.0
H164 H 0.22982 0.84122 0.15572 0.0
C165 C 0.00399 0.55725 0.17173 0.0
C166 C 0.99813 0.53859 0.19052 0.0
N167 N 0.01825 0.53725 0.20783 0.0
N168 N 0.02759 0.56802 0.17713 0.0
C169 C 0.03587 0.55538 0.19924 0.0
H170 H 0.99198 0.56234 0.15488 0.0
Co171 Co 0.04453 0.59266 0.15527 0.0
C172 C 0.05706 0.61776 0.20649 0.0
O173 O 0.03229 0.61987 0.21365 0.0
N174 N 0.06152 0.61714 0.13333 0.0
C175 C 0.08233 0.63639 0.09997 0.0
C176 C 0.06962 0.61392 0.10823 0.0
C177 C 0.06883 0.64198 0.13956 0.0
N178 N 0.08206 0.65406 0.11979 0.0
O179 O 0.01618 0.61714 0.16002 0.0
H180 H 0.0668 0.59633 0.09664 0.0
H181 H 0.06414 0.65102 0.15823 0.0
O182 O 0.06291 0.60721 0.18458 0.0
C183 C 1.00072 0.61994 0.14045 0.0
O184 O 0.00504 0.60574 0.11924 0.0
N185 N 0.07148 0.56818 0.14944 0.0
C186 C 0.1057 0.52664 0.13866 0.0
C187 C 0.11013 0.54327 0.16025 0.0
C188 C 0.09286 0.56401 0.16528 0.0
C189 C 0.06715 0.55256 0.12809 0.0
C190 C 0.08437 0.53208 0.12193 0.0
H191 H 0.09631 0.57568 0.18264 0.0
H192 H 0.04993 0.55585 0.11597 0.0
H193 H 0.0544 0.55952 0.20889 0.0
H194 H 0.98056 0.52654 0.19109 0.0
H195 H 0.09175 0.63915 0.08104 0.0
H196 H 0.12611 0.53958 0.1739 0.0
H197 H 0.08054 0.52019 0.10465 0.0
C198 C 0.79945 0.7446 0.08779 0.0
C199 C 0.78071 0.7485 0.0686 0.0
N200 N 0.78773 0.73467 0.04711 0.0
N201 N 0.81825 0.72826 0.07865 0.0
C202 C 0.81073 0.72274 0.05353 0.0
H203 H 0.79874 0.75209 0.10773 0.0
Co204 Co 0.84343 0.71416 0.10185 0.0
C205 C 0.86851 0.6701 0.07392 0.0
O206 O 0.86611 0.65638 0.09576 0.0
N207 N 0.86893 0.70094 0.12622 0.0
C208 C 0.88982 0.68493 0.16144 0.0
C209 C 0.86643 0.69483 0.15204 0.0
C210 C 0.89472 0.69619 0.1211 0.0
N211 N 0.90759 0.68552 0.14183 0.0
O212 O 0.86661 0.74313 0.09491 0.0
H213 H 0.8489 0.69692 0.16373 0.0
H214 H 0.90371 0.69937 0.10203 0.0
O215 O 0.85984 0.69381 0.07315 0.0
C216 C 0.86719 0.76062 0.1129 0.0
O217 O 0.85163 0.75764 0.13339 0.0
N218 N 0.81926 0.68667 0.10938 0.0
C219 C 0.77923 0.65073 0.1214 0.0
C220 C 0.79098 0.65099 0.09644 0.0
C221 C 0.81052 0.66933 0.09069 0.0
C222 C 0.80678 0.68785 0.13313 0.0
C223 C 0.78756 0.6694 0.14001 0.0
H224 H 0.81763 0.67012 0.07071 0.0
H225 H 0.81085 0.7039 0.14644 0.0
H226 H 0.82087 0.709 0.04081 0.0
H227 H 0.76286 0.76 0.07051 0.0
H228 H 0.89297 0.67653 0.18079 0.0
H229 H 0.78425 0.63794 0.08095 0.0
H230 H 0.77879 0.67036 0.15941 0.0
C231 C 0.99254 0.96326 0.16111 0.0
C232 C 0.9966 0.98223 0.18001 0.0
N233 N 0.98283 0.97557 0.20167 0.0
N234 N 0.97633 0.94458 0.17069 0.0
C235 C 0.97103 0.95241 0.1957 0.0
H236 H 0.99995 0.96367 0.14114 0.0
Co237 Co 0.96194 0.91883 0.14849 0.0
C238 C 0.91829 0.89495 0.17822 0.0
O239 O 0.90456 0.89631 0.1563 0.0
N240 N 0.94844 0.89271 0.12504 0.0
C241 C 0.93265 0.87124 0.09007 0.0
C242 C 0.94281 0.89468 0.09906 0.0
C243 C 0.94314 0.86715 0.13072 0.0
N244 N 0.9326 0.85397 0.11012 0.0
O245 O 0.99122 0.89618 0.15529 0.0
H246 H 0.94552 0.9119 0.08703 0.0
H247 H 0.9459 0.85855 0.15004 0.0
O248 O 0.94221 0.90312 0.17822 0.0
C249 C 0.00912 0.89731 0.13773 0.0
O250 O 0.00582 0.91363 0.11789 0.0
N251 N 0.93417 0.94265 0.14096 0.0
C252 C 0.89819 0.98263 0.12944 0.0
C253 C 0.89871 0.97094 0.15435 0.0
C254 C 0.91726 0.95165 0.15994 0.0
C255 C 0.93492 0.95494 0.11707 0.0
C256 C 0.9166 0.97446 0.11057 0.0
H257 H 0.9186 0.94508 0.18005 0.0
H258 H 0.9507 0.95074 0.10348 0.0
H259 H 0.95756 0.94229 0.20875 0.0
H260 H 0.00842 0.99984 0.17782 0.0
H261 H 0.92461 0.86771 0.07063 0.0
H262 H 0.88591 0.9778 0.17 0.0
H263 H 0.91754 0.98376 0.09139 0.0
C264 C 0.41891 0.2048 0.24448 0.0
C265 C 0.43699 0.22463 0.24844 0.0
N266 N 0.45784 0.22014 0.23272 0.0
N267 N 0.42821 0.18777 0.22634 0.0
C268 C 0.45213 0.1977 0.21956 0.0
H269 H 0.39964 0.2035 0.25343 0.0
Co270 Co 0.40699 0.16109 0.21162 0.0
C271 C 0.45849 0.13575 0.20196 0.0
O272 O 0.46439 0.13498 0.22715 0.0
N273 N 0.38519 0.13497 0.19699 0.0
C274 C 0.34925 0.11252 0.18573 0.0
C275 C 0.3587 0.13418 0.19898 0.0
C276 C 0.39137 0.11337 0.18266 0.0
N277 N 0.36989 0.09937 0.17554 0.0
O278 O 0.41212 0.13923 0.24204 0.0
H279 H 0.34685 0.14857 0.20925 0.0
H280 H 0.41123 0.1077 0.17764 0.0
O281 O 0.43676 0.14563 0.1944 0.0
C282 C 0.39315 0.13994 0.25844 0.0
O283 O 0.37371 0.1564 0.25398 0.0
N284 N 0.40054 0.18295 0.18272 0.0
C285 C 0.38868 0.2225 0.14653 0.0
C286 C 0.41279 0.20905 0.14529 0.0
C287 C 0.41834 0.18922 0.16352 0.0
C288 C 0.37669 0.19514 0.18362 0.0
C289 C 0.37007 0.21448 0.1653 0.0
H290 H 0.43753 0.18012 0.16289 0.0
H291 H 0.36309 0.1906 0.19933 0.0
H292 H 0.46455 0.18964 0.20425 0.0
H293 H 0.43482 0.24133 0.26151 0.0
H294 H 0.32874 0.10734 0.1832 0.0
H295 H 0.42784 0.21476 0.13128 0.0
H296 H 0.35094 0.22381 0.16657 0.0
C297 C 0.45297 0.33732 0.00843 0.0
C298 C 0.4711 0.31846 1.00151 0.0
N299 N 0.46799 0.29752 0.01749 0.0
N300 N 0.43834 0.32852 0.02872 0.0
C301 C 0.44799 0.30412 0.03391 0.0
H302 H 0.45106 0.35667 0.99974 0.0
Co303 Co 0.41366 0.3507 0.04485 0.0
C304 C 0.38924 0.31997 0.08762 0.0
O305 O 0.39075 0.34132 0.10218 0.0
N306 N 0.3886 0.37432 0.05995 0.0
C307 C 0.36872 0.40951 0.07719 0.0
C308 C 0.39176 0.39987 0.06673 0.0
C309 C 0.36278 0.3696 0.06499 0.0
N310 N 0.35052 0.39033 0.07632 0.0
O311 O 0.38972 0.34526 0.01601 0.0
H312 H 0.40953 0.41119 0.06449 0.0
H313 H 0.35332 0.35085 0.0614 0.0
O314 O 0.39781 0.32064 0.06384 0.0
C315 C 0.38749 0.36417 0.99965 0.0
O316 O 0.40178 0.38541 0.00344 0.0
N317 N 0.43839 0.35669 0.07239 0.0
C318 C 0.47415 0.36839 0.11237 0.0
C319 C 0.46303 0.34336 0.11054 0.0
C320 C 0.44602 0.33761 0.08987 0.0
C321 C 0.4513 0.38026 0.07231 0.0
C322 C 0.46897 0.38678 0.09248 0.0
H323 H 0.4393 0.3176 0.0881 0.0
H324 H 0.4482 0.39395 0.05632 0.0
H325 H 0.44084 0.29155 0.04954 0.0
H326 H 0.4861 0.32044 0.98648 0.0
H327 H 0.36604 0.42874 0.08599 0.0
H328 H 0.46803 0.32809 0.12461 0.0
H329 H 0.47853 0.40584 0.09249 0.0
C330 C 0.58565 0.30568 0.24795 0.0
C331 C 0.56714 0.28637 0.25263 0.0
N332 N 0.54879 0.28749 0.2335 0.0
N333 N 0.57911 0.31898 0.22592 0.0
C334 C 0.55656 0.30734 0.21749 0.0
H335 H 0.60322 0.3093 0.25943 0.0
Co336 Co 0.60074 0.34426 0.2097 0.0
C337 C 0.54906 0.36869 0.1975 0.0
O338 O 0.54188 0.37014 0.22233 0.0
N339 N 0.62258 0.36923 0.19338 0.0
C340 C 0.65652 0.38862 0.17373 0.0
C341 C 0.64808 0.36634 0.18663 0.0
C342 C 0.61623 0.39374 0.18511 0.0
N343 N 0.63639 0.40589 0.17254 0.0
O344 O 0.59566 0.368 0.23868 0.0
H345 H 0.65984 0.34905 0.19047 0.0
H346 H 0.59717 0.40249 0.18862 0.0
O347 O 0.57127 0.35891 0.19147 0.0
C348 C 0.61506 0.37009 0.25448 0.0
O349 O 0.63619 0.35587 0.24988 0.0
N350 N 0.60692 0.32045 0.1822 0.0
C351 C 0.61759 0.27903 0.14778 0.0
C352 C 0.59609 0.29576 0.14338 0.0
C353 C 0.5911 0.31643 0.16076 0.0
C354 C 0.62835 0.30489 0.18632 0.0
C355 C 0.63446 0.28449 0.169 0.0
H356 H 0.5737 0.32806 0.15745 0.0
H357 H 0.64042 0.30799 0.20362 0.0
H358 H 0.54663 0.3125 0.19935 0.0
H359 H 0.56724 0.27245 0.26879 0.0
H360 H 0.67583 0.39148 0.16518 0.0
H361 H 0.58237 0.29209 0.12745 0.0
H362 H 0.65168 0.2725 0.17279 0.0
C363 C 0.54727 0.1644 0.01016 0.0
C364 C 0.52922 0.18333 0.00324 0.0
N365 N 0.53394 0.20511 0.01762 0.0
N366 N 0.56344 0.17397 0.02888 0.0
C367 C 0.55486 0.19896 0.03305 0.0
H368 H 0.54804 0.14448 1.00268 0.0
Co369 Co 0.58836 0.15193 0.04492 0.0
C370 C 0.61188 0.18173 0.08839 0.0
O371 O 0.60966 0.15986 0.10205 0.0
N372 N 0.61388 0.12861 0.05997 0.0
C373 C 0.63509 0.0955 0.07955 0.0
C374 C 0.6116 0.10357 0.06874 0.0
C375 C 0.63966 0.13437 0.064 0.0
N376 N 0.65266 0.11515 0.0771 0.0
O377 O 0.61201 0.15728 0.01579 0.0
H378 H 0.59415 0.09161 0.06785 0.0
H379 H 0.64843 0.15293 0.05834 0.0
O380 O 0.60422 0.18199 0.06425 0.0
C381 C 0.61305 0.13788 0.99987 0.0
O382 O 0.59778 0.11753 0.00452 0.0
N383 N 0.56375 0.14598 0.07266 0.0
C384 C 0.53034 0.1351 0.11478 0.0
C385 C 0.53945 0.16066 0.11045 0.0
C386 C 0.55535 0.16585 0.08882 0.0
C387 C 0.55201 0.12188 0.07447 0.0
C388 C 0.5356 0.11575 0.09583 0.0
H389 H 0.56123 0.18596 0.08563 0.0
H390 H 0.55526 0.10735 0.05929 0.0
H391 H 0.56336 0.21224 0.04738 0.0
H392 H 0.51314 0.18086 0.98945 0.0
H393 H 0.63856 0.07703 0.08963 0.0
H394 H 0.53413 0.1766 0.12362 0.0
H395 H 0.52735 0.09617 0.09763 0.0
C396 C 0.42802 0.81791 0.25185 0.0
C397 C 0.44645 0.79898 0.2459 0.0
N398 N 0.45948 0.79231 0.2681 0.0
N399 N 0.42928 0.82356 0.27773 0.0
C400 C 0.44858 0.80757 0.28717 0.0
H401 H 0.41443 0.82684 0.23811 0.0
Co402 Co 0.40743 0.8479 0.29538 0.0
C403 C 0.4596 0.87045 0.30718 0.0
O404 O 0.46663 0.87074 0.28226 0.0
N405 N 0.38587 0.87206 0.31311 0.0
C406 C 0.35345 0.89017 0.33616 0.0
C407 C 0.36154 0.86799 0.32283 0.0
C408 C 0.39187 0.89702 0.32017 0.0
N409 N 0.37264 0.90848 0.33471 0.0
O410 O 0.41207 0.87297 0.26729 0.0
H411 H 0.35057 0.84985 0.32094 0.0
H412 H 0.41006 0.90647 0.31452 0.0
O413 O 0.43708 0.86176 0.31372 0.0
C414 C 0.39225 0.87619 0.2522 0.0
O415 O 0.37074 0.86269 0.25721 0.0
N416 N 0.40148 0.82301 0.32198 0.0
C417 C 0.39016 0.7818 0.35654 0.0
C418 C 0.40906 0.80086 0.36306 0.0
C419 C 0.41422 0.82151 0.34566 0.0
C420 C 0.38268 0.80505 0.31552 0.0
C421 C 0.3765 0.78444 0.33261 0.0
H422 H 0.4291 0.83557 0.35111 0.0
H423 H 0.37264 0.80664 0.29678 0.0
H424 H 0.45399 0.80676 0.30775 0.0
H425 H 0.45002 0.79087 0.22651 0.0
H426 H 0.33516 0.89222 0.34692 0.0
H427 H 0.42067 0.79927 0.38088 0.0
H428 H 0.36163 0.77031 0.32681 0.0
C429 C 0.05154 0.33726 0.9966 0.0
C430 C 0.03133 0.31958 1.00052 0.0
N431 N 0.03432 0.29952 0.98346 0.0
N432 N 0.06742 0.32846 0.97722 0.0
C433 C 0.05638 0.30527 0.96964 0.0
H434 H 0.05392 0.3559 0.00658 0.0
Co435 Co 0.09426 0.34923 0.962 0.0
C436 C 0.11837 0.2971 0.95323 0.0
O437 O 0.11857 0.29151 0.9785 0.0
N438 N 0.12048 0.37048 0.94675 0.0
C439 C 0.14293 0.4059 0.93394 0.0
C440 C 0.1214 0.39702 0.94784 0.0
C441 C 0.14185 0.36372 0.93233 0.0
N442 N 0.15565 0.3849 0.92398 0.0
O443 O 0.11635 0.34436 0.99231 0.0
H444 H 0.1072 0.40923 0.95792 0.0
H445 H 0.14755 0.34365 0.92832 0.0
O446 O 0.10924 0.31901 0.94526 0.0
C447 C 0.11615 0.36354 0.00846 0.0
O448 O 0.09999 0.3832 0.00385 0.0
N449 N 0.07228 0.35547 0.93321 0.0
C450 C 0.03236 0.36697 0.89738 0.0
C451 C 0.04657 0.34336 0.89549 0.0
C452 C 0.0666 0.33799 0.91355 0.0
C453 C 0.05949 0.37897 0.93463 0.0
C454 C 0.03986 0.3854 0.91654 0.0
H455 H 0.07634 0.31916 0.91236 0.0
H456 H 0.06383 0.39238 0.95057 0.0
H457 H 0.06348 0.29341 0.95343 0.0
H458 H 0.01549 0.32144 0.01468 0.0
H459 H 0.14849 0.42626 0.93092 0.0
H460 H 0.04132 0.32849 0.88111 0.0
H461 H 0.02994 0.40418 0.91828 0.0
C462 C 0.57654 0.69332 0.24979 0.0
C463 C 0.55694 0.71131 0.24459 0.0
N464 N 0.54429 0.71675 0.26725 0.0
N465 N 0.57611 0.68695 0.27558 0.0
C466 C 0.55627 0.70176 0.28579 0.0
H467 H 0.59022 0.68538 0.23555 0.0
Co468 Co 0.59927 0.66274 0.29177 0.0
C469 C 0.54822 0.63803 0.30351 0.0
O470 O 0.54098 0.63863 0.27866 0.0
N471 N 0.62241 0.63889 0.30783 0.0
C472 C 0.65841 0.62056 0.32481 0.0
C473 C 0.64836 0.64244 0.3123 0.0
C474 C 0.61726 0.61457 0.31735 0.0
N475 N 0.63878 0.603 0.32794 0.0
O476 O 0.59477 0.63847 0.26311 0.0
H477 H 0.65926 0.65996 0.30709 0.0
H478 H 0.59805 0.60541 0.31655 0.0
O479 O 0.57055 0.64707 0.31026 0.0
C480 C 0.61428 0.63627 0.24749 0.0
O481 O 0.63519 0.65089 0.25182 0.0
N482 N 0.60508 0.6867 0.31912 0.0
C483 C 0.61725 0.72622 0.3553 0.0
C484 C 0.59688 0.70824 0.36037 0.0
C485 C 0.59134 0.68836 0.34223 0.0
C486 C 0.62503 0.70378 0.31392 0.0
C487 C 0.63173 0.72342 0.33189 0.0
H488 H 0.57538 0.6751 0.34661 0.0
H489 H 0.63568 0.7022 0.29553 0.0
H490 H 0.55032 0.70118 0.30624 0.0
H491 H 0.55242 0.71993 0.2256 0.0
H492 H 0.67836 0.61827 0.33194 0.0
H493 H 0.58452 0.7101 0.37765 0.0
H494 H 0.64771 0.73672 0.32715 0.0
C495 C 0.9535 0.16835 0.99418 0.0
C496 C 0.97235 0.18727 0.99869 0.0
N497 N 0.96728 0.20812 0.9831 0.0
N498 N 0.93651 0.17697 0.97571 0.0
C499 C 0.94528 0.20147 0.96945 0.0
H500 H 0.95291 0.14892 1.00288 0.0
Co501 Co 0.91176 0.1539 0.96063 0.0
C502 C 0.88685 0.18236 0.91686 0.0
O503 O 0.88903 0.16065 0.90295 0.0
N504 N 0.8867 0.12968 0.94634 0.0
C505 C 0.86638 0.09521 0.92819 0.0
C506 C 0.88975 0.10448 0.93828 0.0
C507 C 0.86074 0.13451 0.9423 0.0
N508 N 0.84816 0.11426 0.93047 0.0
O509 O 0.88795 0.16011 0.98929 0.0
H510 H 0.90771 0.09327 0.93895 0.0
H511 H 0.85146 0.15319 0.94669 0.0
O512 O 0.89563 0.18284 0.94056 0.0
C513 C 0.88673 0.14096 0.00547 0.0
O514 O 0.90234 0.12068 1.00162 0.0
N515 N 0.93648 0.14696 0.9336 0.0
C516 C 0.97783 0.13534 0.89918 0.0
C517 C 0.96509 0.15974 0.89812 0.0
C518 C 0.94492 0.16536 0.9158 0.0
C519 C 0.94965 0.12368 0.93581 0.0
C520 C 0.96973 0.11703 0.91821 0.0
H521 H 0.93722 0.1851 0.91579 0.0
H522 H 0.94522 0.11055 0.95196 0.0
H523 H 0.93678 0.21352 0.95407 0.0
H524 H 0.98894 0.18558 0.012 0.0
H525 H 0.86354 0.07648 0.91843 0.0
H526 H 0.97163 0.17497 0.88468 0.0
H527 H 0.97938 0.09813 0.92013 0.0
C528 C 0.24472 0.41644 0.20866 0.0
C529 C 0.24911 0.43537 0.22755 0.0
N530 N 0.23405 0.45644 0.22191 0.0
N531 N 0.22698 0.42538 0.19107 0.0
C532 C 0.22111 0.45011 0.19942 0.0
H533 H 0.25293 0.39679 0.20849 0.0
Co534 Co 0.21168 0.40244 0.16648 0.0
C535 C 0.16705 0.43058 0.14289 0.0
O536 O 0.15393 0.40841 0.14524 0.0
N537 N 0.19714 0.37833 0.14151 0.0
C538 C 0.17735 0.34473 0.12134 0.0
C539 C 0.18819 0.35345 0.1446 0.0
C540 C 0.19299 0.38342 0.1156 0.0
N541 N 0.17984 0.36385 0.10319 0.0
O542 O 0.24012 0.4087 0.1424 0.0
H543 H 0.1887 0.34218 0.16254 0.0
H544 H 0.19844 0.40182 0.10636 0.0
O545 O 0.19112 0.4315 0.15061 0.0
C546 C 0.25698 0.39013 0.14148 0.0
O547 O 0.25356 0.36973 0.15705 0.0
N548 N 0.18485 0.39552 0.19157 0.0
C549 C 0.14867 0.38407 0.23133 0.0
C550 C 0.14892 0.4088 0.2193 0.0
C551 C 0.16759 0.41437 0.20012 0.0
C552 C 0.18635 0.37214 0.20472 0.0
C553 C 0.16807 0.36573 0.22433 0.0
H554 H 0.16845 0.4343 0.19296 0.0
H555 H 0.20229 0.35869 0.20053 0.0
H556 H 0.20647 0.4626 0.19027 0.0
H557 H 0.26193 0.43355 0.2445 0.0
H558 H 0.16706 0.32629 0.11848 0.0
H559 H 0.13563 0.42425 0.22562 0.0
H560 H 0.16948 0.34695 0.23434 0.0
C561 C 0.24455 0.59031 0.29853 0.0
C562 C 0.24922 0.57098 0.28014 0.0
N563 N 0.23353 0.55028 0.28548 0.0
N564 N 0.22592 0.58207 0.31551 0.0
C565 C 0.21968 0.55744 0.30719 0.0
H566 H 0.25339 0.60968 0.29889 0.0
Co567 Co 0.21107 0.60528 0.3401 0.0
C568 C 0.16888 0.57652 0.36756 0.0
O569 O 0.15488 0.59822 0.36588 0.0
N570 N 0.19702 0.62972 0.36498 0.0
C571 C 0.1762 0.6627 0.38505 0.0
C572 C 0.18603 0.65371 0.36147 0.0
C573 C 0.19514 0.62562 0.39132 0.0
N574 N 0.18138 0.64471 0.40382 0.0
O575 O 0.24073 0.60039 0.36309 0.0
H576 H 0.18428 0.66405 0.34305 0.0
H577 H 0.20264 0.6081 0.40081 0.0
O578 O 0.19221 0.57612 0.3578 0.0
C579 C 0.25686 0.61961 0.36349 0.0
O580 O 0.2523 0.63965 0.34776 0.0
N581 N 0.18284 0.61077 0.31619 0.0
C582 C 0.14261 0.62162 0.28051 0.0
C583 C 0.14394 0.59721 0.29301 0.0
C584 C 0.16469 0.59182 0.30999 0.0
C585 C 0.18326 0.63367 0.30212 0.0
C586 C 0.16298 0.63978 0.28443 0.0
H587 H 0.16606 0.57215 0.31771 0.0
H588 H 0.19942 0.64729 0.30466 0.0
H589 H 0.20432 0.54558 0.31593 0.0
H590 H 0.26283 0.57224 0.26377 0.0
H591 H 0.16462 0.68039 0.38776 0.0
H592 H 0.12942 0.58206 0.28904 0.0
H593 H 0.16323 0.65834 0.27393 0.0
C594 C 0.84533 0.51446 0.95749 0.0
C595 C 0.8267 0.51024 0.97671 0.0
N596 N 0.80509 0.52435 0.97065 0.0
N597 N 0.83565 0.53116 0.93928 0.0
C598 C 0.81081 0.53653 0.9476 0.0
H599 H 0.86526 0.50693 0.95747 0.0
Co600 Co 0.85764 0.54649 0.91387 0.0
C601 C 0.82829 0.59067 0.89111 0.0
O602 O 0.85031 0.60411 0.893 0.0
N603 N 0.88066 0.56115 0.88796 0.0
C604 C 0.91298 0.58144 0.86624 0.0
C605 C 0.90543 0.57072 0.88996 0.0
C606 C 0.87444 0.5649 0.86223 0.0
N607 N 0.89321 0.57829 0.84889 0.0
O608 O 0.85084 0.51784 0.89023 0.0
H609 H 0.91739 0.57078 0.90746 0.0
H610 H 0.8558 0.55896 0.85379 0.0
O611 O 0.82788 0.56661 0.89884 0.0
C612 C 0.86932 0.50091 0.88911 0.0
O613 O 0.89011 0.50448 0.90413 0.0
N614 N 0.86511 0.57348 0.93864 0.0
C615 C 0.87661 0.6084 0.9796 0.0
C616 C 0.85168 0.60807 0.96796 0.0
C617 C 0.84613 0.5901 0.94812 0.0
C618 C 0.88898 0.57236 0.95094 0.0
C619 C 0.89547 0.59017 0.97096 0.0
H620 H 0.82606 0.58904 0.94139 0.0
H621 H 0.90274 0.55694 0.94591 0.0
H622 H 0.79778 0.55039 0.938 0.0
H623 H 0.82907 0.49819 0.99415 0.0
H624 H 0.93107 0.59209 0.8625 0.0
H625 H 0.83604 0.62072 0.97508 0.0
H626 H 0.91474 0.58917 0.98005 0.0
C627 C 0.76056 0.91812 0.30066 0.0
C628 C 0.75585 0.93636 0.2811 0.0
N629 N 0.77358 0.95592 0.28345 0.0
N630 N 0.78112 0.92608 0.31546 0.0
C631 C 0.78861 0.9493 0.30446 0.0
H632 H 0.7502 0.89972 0.30339 0.0
Co633 Co 0.79729 0.90477 0.34119 0.0
C634 C 0.80547 0.95619 0.3665 0.0
O635 O 0.7801 0.96118 0.36705 0.0
N636 N 0.81345 0.8831 0.36641 0.0
C637 C 0.82843 0.84746 0.38705 0.0
C638 C 0.81584 0.85669 0.36487 0.0
C639 C 0.82447 0.88942 0.38987 0.0
N640 N 0.83375 0.86809 0.40284 0.0
O641 O 0.76756 0.90855 0.36415 0.0
H642 H 0.80888 0.84481 0.34864 0.0
H643 H 0.82545 0.90924 0.39756 0.0
O644 O 0.81387 0.93475 0.3567 0.0
C645 C 0.75213 0.88881 0.3649 0.0
O646 O 0.75712 0.86881 0.34928 0.0
N647 N 0.82554 0.89963 0.31823 0.0
C648 C 0.86005 0.8904 0.27657 0.0
C649 C 0.86351 0.91226 0.29313 0.0
C650 C 0.84609 0.9165 0.31402 0.0
C651 C 0.82261 0.87772 0.3031 0.0
C652 C 0.84 0.87238 0.28257 0.0
H653 H 0.84854 0.93406 0.32571 0.0
H654 H 0.80599 0.86483 0.30638 0.0
H655 H 0.80549 0.96061 0.31089 0.0
H656 H 0.74064 0.93527 0.26619 0.0
H657 H 0.83382 0.8272 0.39086 0.0
H658 H 0.87866 0.92673 0.28915 0.0
H659 H 0.83706 0.85482 0.27082 0.0
C660 C 0.66816 0.4978 0.45391 0.0
C661 C 0.68727 0.5032 0.47233 0.0
N662 N 0.70698 0.48569 0.46945 0.0
N663 N 0.67572 0.47712 0.43913 0.0
C664 C 0.6996 0.47019 0.449 0.0
H665 H 0.6495 0.50784 0.4519 0.0
Co666 Co 0.65318 0.46188 0.41413 0.0
C667 C 0.6835 0.41906 0.38915 0.0
O668 O 0.66194 0.40474 0.38952 0.0
N669 N 0.62948 0.44749 0.38878 0.0
C670 C 0.59477 0.42981 0.36848 0.0
C671 C 0.60422 0.43965 0.39188 0.0
C672 C 0.63422 0.44353 0.36277 0.0
N673 N 0.61377 0.43204 0.35018 0.0
O674 O 0.65917 0.49089 0.39075 0.0
H675 H 0.59308 0.44047 0.40989 0.0
H676 H 0.6529 0.44788 0.35345 0.0
O677 O 0.68287 0.44257 0.39831 0.0
C678 C 0.64046 0.5076 0.39061 0.0
O679 O 0.62011 0.50329 0.40602 0.0
N680 N 0.64636 0.43452 0.4385 0.0
C681 C 0.63398 0.39851 0.47816 0.0
C682 C 0.65847 0.39771 0.46561 0.0
C683 C 0.6645 0.41619 0.44634 0.0
C684 C 0.62324 0.4368 0.45195 0.0
C685 C 0.61634 0.41864 0.47147 0.0
H686 H 0.68431 0.41622 0.43888 0.0
H687 H 0.61037 0.4533 0.44806 0.0
H688 H 0.71123 0.45401 0.44155 0.0
H689 H 0.68634 0.51836 0.48729 0.0
H690 H 0.57587 0.42037 0.36561 0.0
H691 H 0.67348 0.38378 0.47162 0.0
H692 H 0.59774 0.42076 0.4817 0.0
C693 C 0.25982 0.58563 0.70222 0.0
C694 C 0.25571 0.56731 0.72185 0.0
N695 N 0.27512 0.54929 0.72068 0.0
N696 N 0.28164 0.57917 0.68854 0.0
C697 C 0.29054 0.55687 0.70031 0.0
H698 H 0.24799 0.60294 0.69854 0.0
Co699 Co 0.29715 0.60056 0.66257 0.0
C700 C 0.30699 0.54852 0.63877 0.0
O701 O 0.28171 0.54315 0.63803 0.0
N702 N 0.31262 0.62235 0.63723 0.0
C703 C 0.32635 0.65856 0.6168 0.0
C704 C 0.31382 0.64882 0.63879 0.0
C705 C 0.32442 0.61643 0.61407 0.0
N706 N 0.33292 0.63815 0.6012 0.0
O707 O 0.26768 0.59539 0.6396 0.0
H708 H 0.30622 0.66031 0.65502 0.0
H709 H 0.32669 0.5966 0.60664 0.0
O710 O 0.31477 0.5706 0.64776 0.0
C711 C 0.25131 0.61435 0.63857 0.0
O712 O 0.25535 0.6349 0.65378 0.0
N713 N 0.3251 0.60714 0.68543 0.0
C714 C 0.36054 0.61853 0.72571 0.0
C715 C 0.36571 0.59818 0.70777 0.0
C716 C 0.34781 0.59288 0.68761 0.0
C717 C 0.3202 0.62757 0.70207 0.0
C718 C 0.33775 0.63375 0.72226 0.0
H719 H 0.35192 0.5766 0.67468 0.0
H720 H 0.30205 0.63855 0.70012 0.0
H721 H 0.3085 0.54685 0.69474 0.0
H722 H 0.23962 0.56719 0.73585 0.0
H723 H 0.33095 0.67902 0.61303 0.0
H724 H 0.38267 0.58547 0.71012 0.0
H725 H 0.33302 0.64965 0.73567 0.0
C726 C 0.83869 0.4944 0.55088 0.0
C727 C 0.81951 0.5007 0.53284 0.0
N728 N 0.79941 0.48361 0.53557 0.0
N729 N 0.83085 0.47354 0.56525 0.0
C730 C 0.80669 0.46742 0.55554 0.0
H731 H 0.85757 0.50401 0.55297 0.0
Co732 Co 0.85368 0.45794 0.58975 0.0
C733 C 0.82296 0.41744 0.61812 0.0
O734 O 0.84396 0.4023 0.61747 0.0
N735 N 0.8779 0.4434 0.61447 0.0
C736 C 0.91257 0.42489 0.6341 0.0
C737 C 0.90259 0.43416 0.61068 0.0
C738 C 0.87419 0.44099 0.64082 0.0
N739 N 0.89454 0.42897 0.65305 0.0
O740 O 0.84977 0.48777 0.61262 0.0
H741 H 0.91296 0.43362 0.5922 0.0
H742 H 0.85619 0.44672 0.6507 0.0
O743 O 0.82394 0.44041 0.60763 0.0
C744 C 0.86946 0.50326 0.61383 0.0
O745 O 0.88996 0.49821 0.59887 0.0
N746 N 0.8581 0.42929 0.56611 0.0
C747 C 0.86802 0.38746 0.532 0.0
C748 C 0.84351 0.39005 0.5442 0.0
C749 C 0.83871 0.41142 0.56056 0.0
C750 C 0.88093 0.42871 0.55195 0.0
C751 C 0.88658 0.40763 0.53509 0.0
H752 H 0.81913 0.4134 0.56836 0.0
H753 H 0.89487 0.44469 0.55377 0.0
H754 H 0.79472 0.45141 0.56278 0.0
H755 H 0.8206 0.51623 0.51827 0.0
H756 H 0.93102 0.41452 0.6366 0.0
H757 H 0.82793 0.37589 0.54068 0.0
H758 H 0.90521 0.40703 0.52472 0.0
C759 C 0.16645 0.00684 0.55257 0.0
C760 C 0.18507 1.00103 0.53378 0.0
N761 N 0.20507 0.01832 0.53605 0.0
N762 N 0.17448 0.02769 0.56686 0.0
C763 C 0.198 0.03451 0.55606 0.0
H764 H 0.14784 0.99686 0.55516 0.0
Co765 Co 0.1534 0.04335 0.59302 0.0
C766 C 0.20512 0.0548 0.61837 0.0
O767 O 0.21179 0.02995 0.62096 0.0
N768 N 0.13185 0.05889 0.61888 0.0
C769 C 0.09626 0.07251 0.64057 0.0
C770 C 0.1053 0.05982 0.61839 0.0
C771 C 0.13845 0.0708 0.64183 0.0
N772 N 0.11717 0.07934 0.65538 0.0
O773 O 0.15833 0.01347 0.61562 0.0
H774 H 0.09313 0.05178 0.60288 0.0
H775 H 0.15845 0.07293 0.6488 0.0
O776 O 0.18328 0.06087 0.60776 0.0
C777 C 0.1391 0.99738 0.61447 0.0
O778 O 0.11941 0.00311 0.59869 0.0
N779 N 0.14707 0.07157 0.57027 0.0
C780 C 0.13522 0.10711 0.53018 0.0
C781 C 0.15857 0.10959 0.54472 0.0
C782 C 0.16419 0.09157 0.56469 0.0
C783 C 0.12398 0.06933 0.55683 0.0
C784 C 0.11737 0.08723 0.53709 0.0
H785 H 0.18298 0.09309 0.57443 0.0
H786 H 0.11106 0.05289 0.56075 0.0
H787 H 0.20966 0.05113 0.5625 0.0
H788 H 0.18358 0.9857 0.51905 0.0
H789 H 0.07591 0.07695 0.64504 0.0
H790 H 0.17308 0.1244 0.53972 0.0
H791 H 0.09894 0.08484 0.52662 0.0
C792 C 0.70408 0.75082 0.91783 0.0
C793 C 0.72317 0.75543 0.93663 0.0
N794 N 0.7225 0.73574 0.95442 0.0
N795 N 0.69133 0.72829 0.92362 0.0
C796 C 0.70312 0.71949 0.94596 0.0
H797 H 0.70014 0.76284 0.90069 0.0
Co798 Co 0.66589 0.71199 0.90208 0.0
C799 C 0.64142 0.70072 0.95383 0.0
O800 O 0.63995 0.72564 0.96061 0.0
N801 N 0.64062 0.69545 0.88057 0.0
C802 C 0.62066 0.6748 0.84752 0.0
C803 C 0.64326 0.68756 0.85534 0.0
C804 C 0.61594 0.68799 0.88731 0.0
N805 N 0.60344 0.67481 0.86774 0.0
O806 O 0.64234 0.74115 0.90674 0.0
H807 H 0.66062 0.69046 0.8434 0.0
H808 H 0.60735 0.69245 0.90625 0.0
O809 O 0.65128 0.6943 0.93176 0.0
C810 C 0.641 0.75606 0.88659 0.0
O811 O 0.65606 0.75052 0.86629 0.0
N812 N 0.68952 0.68437 0.89612 0.0
C813 C 0.73097 0.65002 0.88556 0.0
C814 C 0.7143 0.64573 0.90716 0.0
C815 C 0.69358 0.66307 0.91207 0.0
C816 C 0.70496 0.68835 0.87458 0.0
C817 C 0.72538 0.67104 0.86852 0.0
H818 H 0.68196 0.65987 0.92952 0.0
H819 H 0.70175 0.70551 0.86236 0.0
H820 H 0.69827 0.701 0.95534 0.0
H821 H 0.73653 0.77204 0.93719 0.0
H822 H 0.61756 0.66545 0.8286 0.0
H823 H 0.71805 0.62992 0.921 0.0
H824 H 0.73725 0.6747 0.85118 0.0
C825 C 0.99256 0.04868 0.33775 0.0
C826 C 0.99762 0.03087 0.31799 0.0
N827 N 0.98217 0.03666 0.2972 0.0
N828 N 0.97394 0.06574 0.32968 0.0
C829 C 0.9681 0.05807 0.30474 0.0
H830 H 1.00121 0.04865 0.35723 0.0
Co831 Co 0.95908 0.08998 0.35315 0.0
C832 C 0.91681 0.11751 0.3245 0.0
O833 O 0.90254 0.1153 0.346 0.0
N834 N 0.94521 0.11456 0.37792 0.0
C835 C 0.92702 0.13433 0.41266 0.0
C836 C 0.93669 0.11099 0.40292 0.0
C837 C 0.9421 0.14074 0.37382 0.0
N838 N 0.93015 0.15301 0.39416 0.0
O839 O 0.98856 0.11301 0.34837 0.0
H840 H 0.93678 0.0927 0.41361 0.0
H841 H 0.94711 0.15043 0.35549 0.0
O842 O 0.94021 0.10795 0.32418 0.0
C843 C 0.00464 0.11358 0.36762 0.0
O844 O 1.0004 0.09771 0.38763 0.0
N845 N 0.93079 0.0661 0.35843 0.0
C846 C 0.88935 0.03172 0.36896 0.0
C847 C 0.89188 0.04339 0.34417 0.0
C848 C 0.9131 0.05984 0.33906 0.0
C849 C 0.93037 0.05236 0.38154 0.0
C850 C 0.90945 0.0354 0.38751 0.0
H851 H 0.91506 0.06735 0.31934 0.0
H852 H 0.9464 0.05447 0.39539 0.0
H853 H 0.9529 0.06709 0.29287 0.0
H854 H 0.01135 0.01459 0.319 0.0
H855 H 0.91692 0.13689 0.43127 0.0
H856 H 0.8778 0.03941 0.32862 0.0
H857 H 0.90897 0.02536 0.40633 0.0
C858 C 0.30236 0.75533 0.91761 0.0
C859 C 0.28399 0.74898 0.93646 0.0
N860 N 0.28579 0.76649 0.95636 0.0
N861 N 0.31585 0.7768 0.92533 0.0
C862 C 0.30507 0.78339 0.94893 0.0
H863 H 0.30518 0.74537 0.899 0.0
Co864 Co 0.34074 0.79318 0.90342 0.0
C865 C 0.36713 0.80469 0.9543 0.0
O866 O 0.36923 0.77974 0.96082 0.0
N867 N 0.3653 0.80932 0.88096 0.0
C868 C 0.38538 0.82424 0.84493 0.0
C869 C 0.36344 0.81154 0.85451 0.0
C870 C 0.38883 0.82031 0.88688 0.0
N871 N 0.40139 0.82968 0.86536 0.0
O872 O 0.36449 0.76414 0.90775 0.0
H873 H 0.34724 0.80432 0.84278 0.0
H874 H 0.39694 0.82113 0.90656 0.0
O875 O 0.35614 0.81113 0.93274 0.0
C876 C 0.36538 0.74841 0.88822 0.0
O877 O 0.34962 0.7529 0.86819 0.0
N878 N 0.31702 0.82082 0.89788 0.0
C879 C 0.27666 0.85644 0.88689 0.0
C880 C 0.29179 0.8589 0.9099 0.0
C881 C 0.31198 0.84096 0.91502 0.0
C882 C 0.3028 0.81836 0.87528 0.0
C883 C 0.28309 0.83639 0.86899 0.0
H884 H 0.32253 0.84284 0.93336 0.0
H885 H 0.30635 0.80185 0.86234 0.0
H886 H 0.31097 0.80039 0.96033 0.0
H887 H 0.26977 0.73318 0.9351 0.0
H888 H 0.38888 0.82962 0.8246 0.0
H889 H 0.28733 0.87382 0.92447 0.0
H890 H 0.27248 0.83409 0.85063 0.0
C891 C 0.00945 0.45741 0.34083 0.0
C892 C 0.00364 0.47542 0.32146 0.0
N893 N 0.01965 0.47116 0.30071 0.0
N894 N 0.02896 0.44151 0.33254 0.0
C895 C 0.03476 0.4503 0.30791 0.0
H896 H 1.00054 0.45645 0.36015 0.0
Co897 Co 0.04423 0.4165 0.35522 0.0
C898 C 0.08666 0.39078 0.32538 0.0
O899 O 0.10117 0.39225 0.34679 0.0
N900 N 0.05874 0.39105 0.37891 0.0
C901 C 0.07936 0.37019 0.41162 0.0
C902 C 0.06922 0.39387 0.40325 0.0
C903 C 0.06139 0.36495 0.37386 0.0
N904 N 0.07494 0.35204 0.39286 0.0
O905 O 0.01492 0.39341 0.34971 0.0
H906 H 0.07037 0.41187 0.41434 0.0
H907 H 0.0545 0.3559 0.35584 0.0
O908 O 0.06318 0.40008 0.32564 0.0
C909 C 0.99789 0.39365 0.36816 0.0
O910 O 1.00191 0.40934 0.38836 0.0
N911 N 0.07187 0.44067 0.36148 0.0
C912 C 0.10718 0.48145 0.37243 0.0
C913 C 0.10748 0.46875 0.34796 0.0
C914 C 0.08939 0.44884 0.34269 0.0
C915 C 0.07039 0.45382 0.38484 0.0
C916 C 0.08845 0.47358 0.39115 0.0
H917 H 0.08886 0.44114 0.32293 0.0
H918 H 0.05458 0.44946 0.39841 0.0
H919 H 0.04993 0.44182 0.29567 0.0
H920 H 0.98924 0.49107 0.32292 0.0
H921 H 0.09053 0.36701 0.42951 0.0
H922 H 0.12067 0.47509 0.33243 0.0
H923 H 0.08718 0.48312 0.41018 0.0
C924 C 0.7013 0.25714 0.58726 0.0
C925 C 0.71944 0.25123 0.56805 0.0
N926 N 0.71672 0.26854 0.5481 0.0
N927 N 0.68689 0.27802 0.57964 0.0
C928 C 0.69664 0.28451 0.55557 0.0
H929 H 0.69927 0.24735 0.60608 0.0
Co930 Co 0.66268 0.29386 0.60262 0.0
C931 C 0.63769 0.33709 0.57289 0.0
O932 O 0.63928 0.3517 0.59421 0.0
N933 N 0.63816 0.30883 0.62675 0.0
C934 C 0.61871 0.32763 0.66134 0.0
C935 C 0.64174 0.31703 0.65185 0.0
C936 C 0.61222 0.31326 0.62221 0.0
N937 N 0.60019 0.3255 0.64253 0.0
O938 O 0.63837 0.26555 0.59688 0.0
H939 H 0.65986 0.31605 0.66281 0.0
H940 H 0.60258 0.30884 0.6037 0.0
O941 O 0.64664 0.31349 0.57334 0.0
C942 C 0.63633 0.2489 0.61555 0.0
O943 O 0.65121 0.25204 0.63651 0.0
N944 N 0.68776 0.32071 0.60897 0.0
C945 C 0.72771 0.35664 0.6208 0.0
C946 C 0.71509 0.35717 0.59629 0.0
C947 C 0.6956 0.33879 0.59059 0.0
C948 C 0.70137 0.31854 0.63203 0.0
C949 C 0.72095 0.33671 0.63869 0.0
H950 H 0.6878 0.33872 0.57087 0.0
H951 H 0.69742 0.30223 0.64512 0.0
H952 H 0.68941 0.30076 0.54393 0.0
H953 H 0.73415 0.23583 0.56913 0.0
H954 H 0.61627 0.33756 0.68006 0.0
H955 H 0.72109 0.37086 0.58107 0.0
H956 H 0.73113 0.33477 0.65735 0.0
C957 C 0.5115 0.04711 0.66501 0.0
C958 C 0.50746 0.02868 0.68444 0.0
N959 N 0.52067 0.03625 0.70616 0.0
N960 N 0.52733 0.0663 0.6742 0.0
C961 C 0.53245 0.05928 0.69951 0.0
H962 H 0.50435 0.046 0.64497 0.0
Co963 Co 0.54108 0.09191 0.65133 0.0
C964 C 0.58482 0.11707 0.67976 0.0
O965 O 0.59852 0.11509 0.65788 0.0
N966 N 0.55389 0.11791 0.6273 0.0
C967 C 0.56971 0.13939 0.59235 0.0
C968 C 0.55978 0.11588 0.60138 0.0
C969 C 0.55869 0.14361 0.63281 0.0
N970 N 0.56932 0.1568 0.61228 0.0
O971 O 0.51166 0.11435 0.65831 0.0
H972 H 0.55752 0.09856 0.58941 0.0
H973 H 0.55564 0.15227 0.65206 0.0
O974 O 0.5611 0.10834 0.68035 0.0
C975 C 0.49359 0.11311 0.64092 0.0
O976 O 0.49674 0.09669 0.62115 0.0
N977 N 0.56903 0.06833 0.6437 0.0
C978 C 0.60555 0.0288 0.63187 0.0
C979 C 0.60478 0.04027 0.65694 0.0
C980 C 0.58613 0.05951 0.6626 0.0
C981 C 0.56842 0.05617 0.61976 0.0
C982 C 0.58716 0.03717 0.61301 0.0
H983 H 0.58488 0.06627 0.68267 0.0
H984 H 0.55253 0.06015 0.60625 0.0
H985 H 0.54582 0.06985 0.71228 0.0
H986 H 0.49612 0.01072 0.68257 0.0
H987 H 0.57804 0.14282 0.57303 0.0
H988 H 0.61759 0.03344 0.6726 0.0
H989 H 0.58656 0.02851 0.59354 0.0
C990 C 0.29331 0.24538 0.59284 0.0
C991 C 0.27367 0.2494 0.57455 0.0
N992 N 0.27667 0.23171 0.55502 0.0
N993 N 0.3088 0.22535 0.58491 0.0
C994 C 0.29808 0.21735 0.56174 0.0
H995 H 0.29587 0.2561 0.61107 0.0
Co996 Co 0.3361 0.21124 0.60553 0.0
C997 C 0.3604 0.20534 0.55291 0.0
O998 O 0.35841 0.23058 0.54765 0.0
N999 N 0.36268 0.19724 0.62664 0.0
C1000 C 0.38399 0.18361 0.66239 0.0
C1001 C 0.36167 0.19595 0.65314 0.0
C1002 C 0.38579 0.18572 0.62018 0.0
N1003 N 0.39917 0.17722 0.64158 0.0
O1004 O 0.3564 0.2427 0.60132 0.0
H1005 H 0.34539 0.20299 0.66493 0.0
H1006 H 0.39272 0.18336 0.60017 0.0
O1007 O 0.3523 0.19641 0.57487 0.0
C1008 C 0.3566 0.25945 0.61998 0.0
O1009 O 0.34193 0.25495 0.64083 0.0
N1010 N 0.31605 0.18085 0.61085 0.0
C1011 C 0.282 0.13911 0.62137 0.0
C1012 C 0.30168 0.13673 0.60215 0.0
C1013 C 0.31868 0.15774 0.59731 0.0
C1014 C 0.29772 0.18322 0.63027 0.0
C1015 C 0.28061 0.16249 0.63605 0.0
H1016 H 0.33355 0.15522 0.58238 0.0
H1017 H 0.29626 0.20147 0.64115 0.0
H1018 H 0.30526 0.20083 0.55036 0.0
H1019 H 0.25846 0.2643 0.57541 0.0
H1020 H 0.38814 0.17874 0.68274 0.0
H1021 H 0.30346 0.11905 0.59036 0.0
H1022 H 0.26624 0.1649 0.65162 0.0
C1023 C 0.49734 0.45335 0.66923 0.0
C1024 C 0.50222 0.47282 0.6875 0.0
N1025 N 0.48326 0.47188 0.70602 0.0
N1026 N 0.47549 0.44002 0.67622 0.0
C1027 C 0.46729 0.45184 0.69875 0.0
H1028 H 0.50879 0.44938 0.65171 0.0
Co1029 Co 0.45982 0.41367 0.65559 0.0
C1030 C 0.45351 0.39011 0.70835 0.0
O1031 O 0.47881 0.39187 0.71342 0.0
N1032 N 0.44422 0.38804 0.63453 0.0
C1033 C 0.42786 0.36849 0.59896 0.0
C1034 C 0.44137 0.39008 0.60821 0.0
C1035 C 0.43244 0.36504 0.64089 0.0
N1036 N 0.4223 0.35272 0.61957 0.0
O1037 O 0.49027 0.39174 0.65948 0.0
H1038 H 0.4481 0.40663 0.5966 0.0
H1039 H 0.43104 0.35748 0.66077 0.0
O1040 O 0.44452 0.39807 0.68636 0.0
C1041 C 0.50606 0.38959 0.64013 0.0
O1042 O 0.50133 0.40334 0.6187 0.0
N1043 N 0.4304 0.43518 0.6506 0.0
C1044 C 0.38893 0.46926 0.63894 0.0
C1045 C 0.38588 0.44917 0.65766 0.0
C1046 C 0.40669 0.43206 0.66291 0.0
C1047 C 0.43379 0.45447 0.63228 0.0
C1048 C 0.41328 0.47171 0.62607 0.0
H1049 H 0.40344 0.41648 0.67696 0.0
H1050 H 0.45258 0.45638 0.62241 0.0
H1051 H 0.44961 0.44635 0.70931 0.0
H1052 H 0.51861 0.48646 0.68732 0.0
H1053 H 0.42166 0.36523 0.57882 0.0
H1054 H 0.36776 0.44696 0.66868 0.0
H1055 H 0.4165 0.48688 0.61142 0.0
C1056 C 0.91483 0.70693 0.73944 0.0
C1057 C 0.93372 0.72537 0.74545 0.0
N1058 N 0.9561 0.71888 0.73283 0.0
N1059 N 0.92504 0.68886 0.72292 0.0
C1060 C 0.9504 0.69655 0.71936 0.0
H1061 H 0.89451 0.70722 0.74581 0.0
Co1062 Co 0.90329 0.66359 0.70715 0.0
C1063 C 0.93447 0.63782 0.66575 0.0
O1064 O 0.91335 0.63914 0.6508 0.0
N1065 N 0.88022 0.63791 0.69223 0.0
C1066 C 0.84768 0.61686 0.67159 0.0
C1067 C 0.85578 0.64051 0.68198 0.0
C1068 C 0.88555 0.61189 0.68938 0.0
N1069 N 0.86672 0.59893 0.67571 0.0
O1070 O 0.90806 0.64074 0.73687 0.0
H1071 H 0.84436 0.65834 0.68136 0.0
H1072 H 0.90365 0.60295 0.69619 0.0
O1073 O 0.93361 0.64705 0.68928 0.0
C1074 C 0.88872 0.63987 0.75283 0.0
O1075 O 0.86821 0.65487 0.74795 0.0
N1076 N 0.89805 0.68743 0.67872 0.0
C1077 C 0.8884 0.72337 0.63823 0.0
C1078 C 0.9133 0.71212 0.64132 0.0
C1079 C 0.91796 0.69498 0.66217 0.0
C1080 C 0.87448 0.70027 0.67755 0.0
C1081 C 0.86894 0.71788 0.65704 0.0
H1082 H 0.93787 0.68825 0.66501 0.0
H1083 H 0.85998 0.69713 0.69281 0.0
H1084 H 0.96394 0.68697 0.70601 0.0
H1085 H 0.93107 0.74258 0.75775 0.0
H1086 H 0.82977 0.61354 0.66051 0.0
H1087 H 0.92932 0.71722 0.62817 0.0
H1088 H 0.8498 0.72723 0.65602 0.0
C1089 C 0.95704 0.8412 0.51173 0.0
C1090 C 0.97714 0.8234 0.50782 0.0
N1091 N 0.9751 0.80434 0.52614 0.0
N1092 N 0.94226 0.83344 0.53239 0.0
C1093 C 0.9538 0.81083 0.54078 0.0
H1094 H 0.95382 0.8591 0.50065 0.0
Co1095 Co 0.91525 0.85395 0.54731 0.0
C1096 C 0.89147 0.80118 0.55564 0.0
O1097 O 0.89239 0.7952 0.53047 0.0
N1098 N 0.88878 0.87468 0.56228 0.0
C1099 C 0.8689 0.90714 0.58366 0.0
C1100 C 0.89192 0.89919 0.57183 0.0
C1101 C 0.8635 0.8684 0.56787 0.0
N1102 N 0.85089 0.8877 0.58141 0.0
O1103 O 0.89394 0.84917 0.51648 0.0
H1104 H 0.91014 0.91019 0.57111 0.0
H1105 H 0.85481 0.8499 0.56204 0.0
O1106 O 0.9001 0.82331 0.56357 0.0
C1107 C 0.89351 0.86835 0.50029 0.0
O1108 O 0.90763 0.88934 0.50576 0.0
N1109 N 0.93656 0.85992 0.57677 0.0
C1110 C 0.97224 0.86979 0.61727 0.0
C1111 C 0.94986 0.85428 0.62174 0.0
C1112 C 0.93211 0.84978 0.60129 0.0
C1113 C 0.95749 0.87609 0.57236 0.0
C1114 C 0.97554 0.88143 0.5924 0.0
H1115 H 0.91503 0.83796 0.60531 0.0
H1116 H 0.96028 0.88466 0.55305 0.0
H1117 H 0.9474 0.79981 0.55787 0.0
H1118 H 0.9921 0.82433 0.49266 0.0
H1119 H 0.86615 0.92545 0.59418 0.0
H1120 H 0.94647 0.84505 0.64069 0.0
H1121 H 0.99209 0.89425 0.58835 0.0
C1122 C 0.08773 0.79933 0.75119 0.0
C1123 C 0.06941 0.77983 0.75571 0.0
N1124 N 0.04954 0.78283 0.73838 0.0
N1125 N 0.07949 0.81474 0.73121 0.0
C1126 C 0.05598 0.80428 0.72396 0.0
H1127 H 0.10635 0.80162 0.76127 0.0
Co1128 Co 0.10064 0.84079 0.7156 0.0
C1129 C 0.04957 0.86635 0.70144 0.0
O1130 O 0.04294 0.87156 0.72591 0.0
N1131 N 0.12226 0.86664 0.70009 0.0
C1132 C 0.15762 0.88936 0.68757 0.0
C1133 C 0.1488 0.8676 0.70115 0.0
C1134 C 0.11543 0.88838 0.68624 0.0
N1135 N 0.13658 0.90234 0.678 0.0
O1136 O 0.09412 0.86415 0.74446 0.0
H1137 H 0.16108 0.85352 0.71132 0.0
H1138 H 0.09532 0.89433 0.68285 0.0
O1139 O 0.07108 0.85451 0.69657 0.0
C1140 C 0.11244 0.86521 0.76156 0.0
O1141 O 0.13302 0.84983 0.75846 0.0
N1142 N 0.10827 0.81737 0.68802 0.0
C1143 C 0.12183 0.7786 0.65152 0.0
C1144 C 0.097 0.79058 0.65077 0.0
C1145 C 0.09053 0.80977 0.66925 0.0
C1146 C 0.13256 0.80602 0.689 0.0
C1147 C 0.13997 0.78694 0.67062 0.0
H1148 H 0.07074 0.81732 0.66901 0.0
H1149 H 0.14602 0.81117 0.70465 0.0
H1150 H 0.04428 0.81137 0.70764 0.0
H1151 H 0.07072 0.76453 0.77051 0.0
H1152 H 0.17798 0.895 0.68472 0.0
H1153 H 0.08213 0.78425 0.63682 0.0
H1154 H 0.15942 0.77831 0.67184 0.0
C1155 C 0.05365 0.67263 0.5111 0.0
C1156 C 0.03509 0.692 0.5073 0.0
N1157 N 0.04045 0.7121 0.52372 0.0
N1158 N 0.07069 0.68028 0.52995 0.0
C1159 C 0.06225 0.7046 0.53719 0.0
H1160 H 0.05398 0.65356 0.50164 0.0
Co1161 Co 0.09511 0.6566 0.54433 0.0
C1162 C 0.12049 0.68433 0.58868 0.0
O1163 O 0.11878 0.66236 0.60226 0.0
N1164 N 0.11975 0.63176 0.55796 0.0
C1165 C 0.13921 0.59616 0.5748 0.0
C1166 C 0.11615 0.60628 0.56482 0.0
C1167 C 0.14571 0.63597 0.56252 0.0
N1168 N 0.15775 0.615 0.57361 0.0
O1169 O 0.11894 0.66322 0.5158 0.0
H1170 H 0.098 0.59545 0.56334 0.0
H1171 H 0.15537 0.65465 0.55906 0.0
O1172 O 0.11151 0.68501 0.56506 0.0
C1173 C 0.11947 0.64432 0.49931 0.0
O1174 O 0.10327 0.62447 0.50292 0.0
N1175 N 0.07042 0.6491 0.57112 0.0
C1176 C 0.03035 0.63552 0.60617 0.0
C1177 C 0.04327 0.65974 0.60834 0.0
C1178 C 0.06271 0.66645 0.59024 0.0
C1179 C 0.05669 0.62632 0.56759 0.0
C1180 C 0.03695 0.61881 0.58522 0.0
H1181 H 0.07049 0.68613 0.59114 0.0
H1182 H 0.06054 0.61423 0.55049 0.0
H1183 H 0.07081 0.71587 0.5531 0.0
H1184 H 0.01851 0.69112 0.4939 0.0
H1185 H 0.14162 0.57697 0.58374 0.0
H1186 H 0.03737 0.67407 0.62302 0.0
H1187 H 0.02644 0.60053 0.58206 0.0
C1188 C 0.92011 0.30369 0.75697 0.0
C1189 C 0.93909 0.2852 0.75129 0.0
N1190 N 0.95865 0.28743 0.76908 0.0
N1191 N 0.92761 0.31783 0.77813 0.0
C1192 C 0.95136 0.30759 0.78498 0.0
H1193 H 0.90156 0.30617 0.7468 0.0
Co1194 Co 0.90518 0.34263 0.79395 0.0
C1195 C 0.93499 0.36533 0.83816 0.0
O1196 O 0.91329 0.36374 0.85218 0.0
N1197 N 0.88167 0.36792 0.80897 0.0
C1198 C 0.84706 0.38863 0.82643 0.0
C1199 C 0.85609 0.36536 0.81595 0.0
C1200 C 0.88708 0.39358 0.81411 0.0
N1201 N 0.86668 0.40635 0.82548 0.0
O1202 O 0.91184 0.36684 0.76582 0.0
H1203 H 0.84434 0.34785 0.81398 0.0
H1204 H 0.90609 0.40253 0.81056 0.0
O1205 O 0.93481 0.35738 0.81418 0.0
C1206 C 0.89295 0.36839 0.74936 0.0
O1207 O 0.87205 0.35363 0.75328 0.0
N1208 N 0.89764 0.31747 0.8204 0.0
C1209 C 0.8843 0.27669 0.85482 0.0
C1210 C 0.90925 0.28832 0.85579 0.0
C1211 C 0.91569 0.30823 0.83815 0.0
C1212 C 0.87394 0.3051 0.818 0.0
C1213 C 0.86643 0.28532 0.8356 0.0
H1214 H 0.93568 0.31523 0.83837 0.0
H1215 H 0.86104 0.31003 0.8018 0.0
H1216 H 0.96298 0.31455 0.80141 0.0
H1217 H 0.93816 0.27063 0.73575 0.0
H1218 H 0.82795 0.39179 0.83532 0.0
H1219 H 0.92419 0.28128 0.86931 0.0
H1220 H 0.84713 0.27648 0.8337 0.0
C1221 C 0.55125 0.83944 0.49408 0.0
C1222 C 0.53217 0.82084 0.49894 0.0
N1223 N 0.53685 0.79979 0.4835 0.0
N1224 N 0.56806 0.83027 0.47572 0.0
C1225 C 0.55902 0.80579 0.46994 0.0
H1226 H 0.55226 0.85891 0.50262 0.0
Co1227 Co 0.59346 0.85223 0.46048 0.0
C1228 C 0.61776 0.82178 0.41755 0.0
O1229 O 0.61702 0.84352 0.40348 0.0
N1230 N 0.61929 0.87543 0.44607 0.0
C1231 C 0.64035 0.9089 0.42701 0.0
C1232 C 0.61687 0.90056 0.4376 0.0
C1233 C 0.64509 0.86983 0.44205 0.0
N1234 N 0.658 0.88931 0.42926 0.0
O1235 O 0.61656 0.8462 0.48981 0.0
H1236 H 0.5993 0.91234 0.43848 0.0
H1237 H 0.65392 0.85119 0.44737 0.0
O1238 O 0.60917 0.82217 0.44133 0.0
C1239 C 0.618 0.86516 0.50619 0.0
O1240 O 0.60359 0.88622 0.50184 0.0
N1241 N 0.5694 0.85888 0.43252 0.0
C1242 C 0.53437 0.87114 0.3921 0.0
C1243 C 0.5449 0.84587 0.39421 0.0
C1244 C 0.56153 0.83988 0.41507 0.0
C1245 C 0.55701 0.88272 0.43235 0.0
C1246 C 0.53976 0.88954 0.41192 0.0
H1247 H 0.56774 0.81973 0.41701 0.0
H1248 H 0.56027 0.89643 0.4483 0.0
H1249 H 0.5676 0.79313 0.45511 0.0
H1250 H 0.51588 0.82281 0.51255 0.0
H1251 H 0.64372 0.92748 0.4171 0.0
H1252 H 0.53969 0.83062 0.38021 0.0
H1253 H 0.53066 0.90883 0.41168 0.0
C1254 C 0.09057 0.2065 0.76231 0.0
C1255 C 0.07148 0.2246 0.75596 0.0
N1256 N 0.05041 0.22045 0.77151 0.0
N1257 N 0.08172 0.19067 0.78166 0.0
C1258 C 0.057 0.19954 0.78679 0.0
H1259 H 0.11008 0.20541 0.75387 0.0
Co1260 Co 0.10407 0.16559 0.79718 0.0
C1261 C 0.07407 0.13961 0.83926 0.0
O1262 O 0.09558 0.14147 0.85355 0.0
N1263 N 0.12761 0.13998 0.81175 0.0
C1264 C 0.16 0.11916 0.83285 0.0
C1265 C 0.1519 0.14275 0.8223 0.0
C1266 C 0.12246 0.1139 0.81453 0.0
N1267 N 0.14118 0.10103 0.82853 0.0
O1268 O 0.0992 0.14279 0.76741 0.0
H1269 H 0.16315 0.16066 0.82315 0.0
H1270 H 0.10452 0.1049 0.80742 0.0
O1271 O 0.07413 0.14867 0.81561 0.0
C1272 C 0.1177 0.14281 0.75043 0.0
O1273 O 0.13806 0.15825 0.7545 0.0
N1274 N 0.10946 0.18943 0.82562 0.0
C1275 C 0.11983 0.22327 0.86756 0.0
C1276 C 0.09468 0.21278 0.86398 0.0
C1277 C 0.08969 0.19663 0.84248 0.0
C1278 C 0.13305 0.20223 0.82692 0.0
C1279 C 0.13893 0.21888 0.84814 0.0
H1280 H 0.06977 0.18996 0.83976 0.0
H1281 H 0.14741 0.1995 0.81144 0.0
H1282 H 0.04416 0.19105 0.80152 0.0
H1283 H 0.07329 0.24024 0.74157 0.0
H1284 H 0.17777 0.11607 0.84422 0.0
H1285 H 0.07881 0.21737 0.87751 0.0
H1286 H 0.15813 0.22808 0.84942 0.0
C1287 C 0.46134 0.66478 0.48963 0.0
C1288 C 0.48004 0.68371 0.49467 0.0
N1289 N 0.47336 0.70583 0.48166 0.0
N1290 N 0.44284 0.67472 0.47343 0.0
C1291 C 0.45056 0.69992 0.46904 0.0
H1292 H 0.46175 0.64462 0.49648 0.0
Co1293 Co 0.41677 0.65318 0.45859 0.0
C1294 C 0.39246 0.68437 0.41616 0.0
O1295 O 0.39312 0.66279 0.40185 0.0
N1296 N 0.39022 0.63048 0.44459 0.0
C1297 C 0.36821 0.59724 0.42616 0.0
C1298 C 0.39188 0.60511 0.4367 0.0
C1299 C 0.36457 0.63672 0.44038 0.0
N1300 N 0.35113 0.61739 0.42791 0.0
O1301 O 0.39456 0.65904 0.48853 0.0
H1302 H 0.40907 0.5928 0.438 0.0
H1303 H 0.35623 0.65566 0.44539 0.0
O1304 O 0.40098 0.68367 0.43998 0.0
C1305 C 0.39548 0.64065 0.50562 0.0
O1306 O 0.41138 0.6207 0.50123 0.0
N1307 N 0.44009 0.64655 0.43006 0.0
C1308 C 0.47432 0.63479 0.38886 0.0
C1309 C 0.46462 0.66027 0.39204 0.0
C1310 C 0.44841 0.66598 0.41331 0.0
C1311 C 0.45174 0.62237 0.42887 0.0
C1312 C 0.46857 0.61581 0.40802 0.0
H1313 H 0.44282 0.68622 0.41615 0.0
H1314 H 0.44848 0.60827 0.44445 0.0
H1315 H 0.44058 0.71317 0.45567 0.0
H1316 H 0.49753 0.68123 0.50662 0.0
H1317 H 0.36431 0.57856 0.41666 0.0
H1318 H 0.47019 0.67589 0.37859 0.0
H1319 H 0.47715 0.59631 0.40701 0.0
C1320 C 0.74427 0.91925 0.70515 0.0
C1321 C 0.75099 0.93839 0.72304 0.0
N1322 N 0.73518 0.95936 0.71934 0.0
N1323 N 0.72424 0.92782 0.69003 0.0
C1324 C 0.71896 0.95241 0.69923 0.0
H1325 H 0.75292 0.89985 0.70372 0.0
Co1326 Co 0.7087 0.90482 0.66558 0.0
C1327 C 0.66728 0.93437 0.63782 0.0
O1328 O 0.65257 0.91318 0.63987 0.0
N1329 N 0.69416 0.88039 0.64086 0.0
C1330 C 0.67553 0.84568 0.62141 0.0
C1331 C 0.68514 0.85563 0.64471 0.0
C1332 C 0.69123 0.88418 0.61455 0.0
N1333 N 0.67911 0.86381 0.60244 0.0
O1334 O 0.73848 0.9089 0.64252 0.0
H1335 H 0.68494 0.8452 0.66316 0.0
H1336 H 0.69665 0.90225 0.60463 0.0
O1337 O 0.69054 0.9343 0.64774 0.0
C1338 C 0.75376 0.88902 0.6415 0.0
O1339 O 0.74851 0.8687 0.65665 0.0
N1340 N 0.68039 0.90004 0.68951 0.0
C1341 C 0.63988 0.88965 0.72504 0.0
C1342 C 0.64159 0.91409 0.71258 0.0
C1343 C 0.66249 0.91923 0.69564 0.0
C1344 C 0.68047 0.87714 0.70357 0.0
C1345 C 0.66004 0.87124 0.72111 0.0
H1346 H 0.66417 0.93886 0.68785 0.0
H1347 H 0.69656 0.86341 0.70127 0.0
H1348 H 0.70343 0.96486 0.69164 0.0
H1349 H 0.76582 0.9366 0.73826 0.0
H1350 H 0.66524 0.82717 0.61904 0.0
H1351 H 0.62725 0.9294 0.71651 0.0
H1352 H 0.66002 0.85262 0.73152 0.0
C1353 C 0.74519 0.09204 0.80005 0.0
C1354 C 0.75177 0.0733 0.78165 0.0
N1355 N 0.73622 0.05209 0.78521 0.0
N1356 N 0.7255 0.08295 0.81529 0.0
C1357 C 0.72038 0.05847 0.80575 0.0
H1358 H 0.75356 0.11155 0.80163 0.0
Co1359 Co 0.70908 0.10482 0.84023 0.0
C1360 C 0.666 0.074 0.86323 0.0
O1361 O 0.65133 0.09526 0.86148 0.0
N1362 N 0.69334 0.12771 0.86571 0.0
C1363 C 0.67246 0.16021 0.88663 0.0
C1364 C 0.68353 0.15233 0.86317 0.0
C1365 C 0.68933 0.12192 0.89151 0.0
N1366 N 0.67563 0.14081 0.90437 0.0
O1367 O 0.73746 0.09886 0.86442 0.0
H1368 H 0.68365 0.16403 0.8455 0.0
H1369 H 0.69543 0.10353 0.90039 0.0
O1370 O 0.68989 0.07473 0.85514 0.0
C1371 C 0.75382 0.11775 0.8666 0.0
O1372 O 0.75003 0.13897 0.85226 0.0
N1373 N 0.68228 0.11142 0.81508 0.0
C1374 C 0.64732 0.12271 0.77406 0.0
C1375 C 0.64758 0.09786 0.78591 0.0
C1376 C 0.66553 0.09243 0.80587 0.0
C1377 C 0.68347 0.13515 0.80256 0.0
C1378 C 0.66561 0.14157 0.78258 0.0
H1379 H 0.66644 0.07247 0.81292 0.0
H1380 H 0.69886 0.14895 0.80758 0.0
H1381 H 0.70507 0.04574 0.81329 0.0
H1382 H 0.7662 0.07559 0.76612 0.0
H1383 H 0.66166 0.17828 0.88993 0.0
H1384 H 0.63483 0.08223 0.77895 0.0
H1385 H 0.66658 0.16084 0.7735 0.0
C1386 C 0.34035 0.01464 0.45993 0.0
C1387 C 0.32104 0.00727 0.4774 0.0
N1388 N 0.29937 0.02183 0.47268 0.0
N1389 N 0.33116 0.03384 0.44413 0.0
C1390 C 0.30606 0.03794 0.45245 0.0
H1391 H 0.36021 0.00699 0.45922 0.0
Co1392 Co 0.35353 0.05 0.41958 0.0
C1393 C 0.32212 0.08983 0.39148 0.0
O1394 O 0.34275 0.10542 0.39295 0.0
N1395 N 0.37726 0.06523 0.39466 0.0
C1396 C 0.41033 0.08606 0.37464 0.0
C1397 C 0.40128 0.07618 0.39818 0.0
C1398 C 0.37319 0.06721 0.3683 0.0
N1399 N 0.39236 0.08091 0.35587 0.0
O1400 O 0.35055 0.01983 0.39691 0.0
H1401 H 0.41179 0.07754 0.41654 0.0
H1402 H 0.35577 0.05964 0.35865 0.0
O1403 O 0.32336 0.06668 0.40154 0.0
C1404 C 0.37067 0.00487 0.39612 0.0
O1405 O 0.39091 0.0107 0.41116 0.0
N1406 N 0.35702 0.07888 0.44316 0.0
C1407 C 0.36512 0.12116 0.47729 0.0
C1408 C 0.34055 0.11711 0.46556 0.0
C1409 C 0.3367 0.09551 0.4492 0.0
C1410 C 0.38002 0.08073 0.45695 0.0
C1411 C 0.38477 0.10211 0.47374 0.0
H1412 H 0.31714 0.09232 0.4417 0.0
H1413 H 0.39479 0.06555 0.45493 0.0
H1414 H 0.29302 0.05259 0.44419 0.0
H1415 H 0.32314 0.9929 0.49302 0.0
H1416 H 0.42815 0.09742 0.37186 0.0
H1417 H 0.32421 0.13027 0.46945 0.0
H1418 H 0.40354 0.10374 0.48374 0.0
C1419 C 0.26888 0.41377 0.79417 0.0
C1420 C 0.26476 0.43308 0.77565 0.0
N1421 N 0.27698 0.45518 0.78369 0.0
N1422 N 0.28376 0.4234 0.81392 0.0
C1423 C 0.28824 0.44888 0.8071 0.0
H1424 H 0.26246 0.39352 0.79278 0.0
Co1425 Co 0.29729 0.40064 0.83974 0.0
C1426 C 0.33768 0.43047 0.86871 0.0
O1427 O 0.35236 0.40918 0.8674 0.0
N1428 N 0.30986 0.37651 0.86578 0.0
C1429 C 0.32685 0.34179 0.88668 0.0
C1430 C 0.31768 0.35122 0.86298 0.0
C1431 C 0.31271 0.3811 0.89197 0.0
N1432 N 0.32404 0.36077 0.90492 0.0
O1433 O 0.2662 0.4053 0.86064 0.0
H1434 H 0.31739 0.34006 0.84497 0.0
H1435 H 0.30794 0.39971 0.9012 0.0
O1436 O 0.31465 0.43025 0.85825 0.0
C1437 C 0.24913 0.38706 0.85826 0.0
O1438 O 0.25415 0.36774 0.84181 0.0
N1439 N 0.32716 0.39541 0.81773 0.0
C1440 C 0.36996 0.38602 0.78455 0.0
C1441 C 0.36607 0.41085 0.79571 0.0
C1442 C 0.34419 0.41536 0.81151 0.0
C1443 C 0.32906 0.37204 0.8046 0.0
C1444 C 0.35067 0.36666 0.78831 0.0
H1445 H 0.34098 0.43518 0.81832 0.0
H1446 H 0.31344 0.35772 0.80618 0.0
H1447 H 0.30079 0.46205 0.81816 0.0
H1448 H 0.25408 0.43088 0.75731 0.0
H1449 H 0.33642 0.323 0.88974 0.0
H1450 H 0.37944 0.42697 0.79159 0.0
H1451 H 0.35213 0.34774 0.77859 0.0
C1452 C 0.16809 0.99412 0.95845 0.0
C1453 C 0.18808 0.99887 0.97612 0.0
N1454 N 0.20876 0.9835 0.9698 0.0
N1455 N 0.17592 0.97576 0.941 0.0
C1456 C 0.20093 0.96982 0.94825 0.0
H1457 H 0.14861 0.00272 0.95888 0.0
Co1458 Co 0.15232 0.96082 0.91696 0.0
C1459 C 0.18082 0.91775 0.89057 0.0
O1460 O 0.15912 0.90383 0.89294 0.0
N1461 N 0.12743 0.94684 0.89253 0.0
C1462 C 0.09211 0.92937 0.87311 0.0
C1463 C 0.1021 0.93949 0.89619 0.0
C1464 C 0.13155 0.94264 0.86647 0.0
N1465 N 0.11084 0.93106 0.85447 0.0
O1466 O 0.15733 0.99014 0.89342 0.0
H1467 H 0.09128 0.94084 0.91436 0.0
H1468 H 0.15007 0.94666 0.85671 0.0
O1469 O 0.18121 0.94147 0.89931 0.0
C1470 C 0.13817 0.0063 0.89209 0.0
O1471 O 0.11776 1.00242 0.90752 0.0
N1472 N 0.14687 0.9327 0.94134 0.0
C1473 C 0.13656 0.89122 0.97587 0.0
C1474 C 0.16137 0.89403 0.96441 0.0
C1475 C 0.16638 0.9153 0.94797 0.0
C1476 C 0.12365 0.93201 0.95489 0.0
C1477 C 0.11782 0.91109 0.97196 0.0
H1478 H 0.18614 0.91743 0.94067 0.0
H1479 H 0.10967 0.94788 0.9527 0.0
H1480 H 0.21263 0.95472 0.93889 0.0
H1481 H 0.18727 0.01226 0.9927 0.0
H1482 H 0.07312 0.91999 0.87074 0.0
H1483 H 0.177 0.88008 0.96852 0.0
H1484 H 0.09896 0.9104 0.9819 0.0
C1485 C 0.76079 0.0896 0.20702 0.0
C1486 C 0.75677 0.07019 0.2255 0.0
N1487 N 0.77164 0.04921 0.21906 0.0
N1488 N 0.77826 0.08115 0.18893 0.0
C1489 C 0.78438 0.05627 0.19665 0.0
H1490 H 0.75254 0.10922 0.20746 0.0
Co1491 Co 0.79292 0.10454 0.16423 0.0
C1492 C 0.8367 0.07682 0.13881 0.0
O1493 O 0.85036 0.09864 0.14145 0.0
N1494 N 0.80699 0.12889 0.13911 0.0
C1495 C 0.82788 0.16154 0.11854 0.0
C1496 C 0.81757 0.15313 0.14212 0.0
C1497 C 0.8097 0.12399 0.11298 0.0
N1498 N 0.82348 0.14292 0.10022 0.0
O1499 O 0.76399 0.09842 0.14071 0.0
H1500 H 0.81884 0.16407 0.16022 0.0
H1501 H 0.80271 0.10608 0.10386 0.0
O1502 O 0.81303 0.07588 0.14758 0.0
C1503 C 0.74745 0.11729 0.14058 0.0
O1504 O 0.75148 0.13709 0.15675 0.0
N1505 N 0.82011 0.11137 0.18879 0.0
C1506 C 0.85514 0.12286 0.2297 0.0
C1507 C 0.85565 0.09832 0.21716 0.0
C1508 C 0.83772 0.09279 0.19718 0.0
C1509 C 0.81823 0.13469 0.20193 0.0
C1510 C 0.83619 0.14131 0.22171 0.0
H1511 H 0.83747 0.07305 0.18946 0.0
H1512 H 0.80228 0.14806 0.19743 0.0
H1513 H 0.7991 0.04421 0.1871 0.0
H1514 H 0.74434 0.07162 0.24277 0.0
H1515 H 0.83926 0.17932 0.11559 0.0
H1516 H 0.86898 0.08295 0.22359 0.0
H1517 H 0.83474 0.1604 0.23106 0.0
C1518 C 0.34536 0.98942 0.04261 0.0
C1519 C 0.32657 0.99397 0.02364 0.0
N1520 N 0.30469 0.98051 0.03016 0.0
N1521 N 0.33548 0.97325 0.06118 0.0
C1522 C 0.31044 0.96837 0.05323 0.0
H1523 H 0.36538 0.99667 0.04242 0.0
Co1524 Co 0.35731 0.95921 0.08733 0.0
C1525 C 0.32632 0.9187 0.11501 0.0
O1526 O 0.34772 0.90415 0.11496 0.0
N1527 N 0.38057 0.94616 0.11376 0.0
C1528 C 0.41478 0.92932 0.13558 0.0
C1529 C 0.40572 0.93775 0.11147 0.0
C1530 C 0.37554 0.94409 0.13994 0.0
N1531 N 0.39565 0.93309 0.1535 0.0
O1532 O 0.35179 0.98966 0.10875 0.0
H1533 H 0.41705 0.93725 0.09356 0.0
H1534 H 0.35688 0.94943 0.14877 0.0
O1535 O 0.32707 0.94167 0.1045 0.0
C1536 C 0.36955 0.00734 0.10803 0.0
O1537 O 0.38967 0.00398 0.09209 0.0
N1538 N 0.36329 0.92982 0.0649 0.0
C1539 C 0.37355 0.88869 0.03001 0.0
C1540 C 0.34888 0.89115 0.04178 0.0
C1541 C 0.34383 0.91235 0.05831 0.0
C1542 C 0.38671 0.92895 0.05174 0.0
C1543 C 0.39249 0.90823 0.03446 0.0
H1544 H 0.3239 0.91484 0.06505 0.0
H1545 H 0.40072 0.94479 0.05404 0.0
H1546 H 0.29711 0.95518 0.06331 0.0
H1547 H 0.32893 0.00605 0.00622 0.0
H1548 H 0.43347 0.91976 0.13924 0.0
H1549 H 0.3332 0.87736 0.03733 0.0
H1550 H 0.41128 0.9077 0.02438 0.0
C1551 C 0.67141 0.51362 0.04743 0.0
C1552 C 0.69083 0.5089 0.02917 0.0
N1553 N 0.7112 0.52513 0.03413 0.0
N1554 N 0.67927 0.53278 0.06399 0.0
C1555 C 0.70375 0.53936 0.05549 0.0
H1556 H 0.65225 0.50434 0.04802 0.0
Co1557 Co 0.6558 0.54732 0.08849 0.0
C1558 C 0.68484 0.58837 0.11763 0.0
O1559 O 0.66341 0.60282 0.11624 0.0
N1560 N 0.63095 0.56088 0.11316 0.0
C1561 C 0.59594 0.57891 0.13257 0.0
C1562 C 0.60621 0.56989 0.10919 0.0
C1563 C 0.6344 0.56312 0.13957 0.0
N1564 N 0.61385 0.57491 0.15168 0.0
O1565 O 0.65995 0.51715 0.11082 0.0
H1566 H 0.59607 0.57061 0.09058 0.0
H1567 H 0.65241 0.55761 0.14955 0.0
O1568 O 0.68493 0.56541 0.10705 0.0
C1569 C 0.64036 0.50149 0.11007 0.0
O1570 O 0.62103 0.50688 0.09372 0.0
N1571 N 0.65086 0.57608 0.06523 0.0
C1572 C 0.64013 0.61655 0.02979 0.0
C1573 C 0.66422 0.6156 0.043 0.0
C1574 C 0.66956 0.59473 0.0599 0.0
C1575 C 0.6283 0.57548 0.05065 0.0
C1576 C 0.62223 0.59585 0.03314 0.0
H1577 H 0.68907 0.59361 0.0681 0.0
H1578 H 0.615 0.55896 0.0525 0.0
H1579 H 0.71531 0.55515 0.06388 0.0
H1580 H 0.68986 0.49484 0.01316 0.0
H1581 H 0.57742 0.58919 0.13492 0.0
H1582 H 0.6792 0.6304 0.03955 0.0
H1583 H 0.60392 0.59534 0.02219 0.0
C1584 C 0.09193 0.31186 0.41478 0.0
C1585 C 0.08723 0.32634 0.39153 0.0
C1586 C 0.10706 0.28866 0.41456 0.0
C1587 C 0.11836 0.27917 0.3911 0.0
H1588 H 0.08429 0.31887 0.43342 0.0
H1589 H 0.11064 0.27862 0.43305 0.0
S1590 S 0.11065 0.30859 0.32447 0.0
N1591 N 0.0943 0.32857 0.34416 0.0
N1592 N 0.12225 0.28508 0.34366 0.0
C1593 C 0.11295 0.29286 0.36755 0.0
C1594 C 0.09749 0.31637 0.36776 0.0
C1595 C 0.54072 0.64189 0.8447 0.0
C1596 C 0.53077 0.63052 0.86792 0.0
C1597 C 0.56399 0.65693 0.84495 0.0
C1598 C 0.57819 0.66142 0.86846 0.0
H1599 H 0.53086 0.63862 0.82605 0.0
H1600 H 0.57101 0.66491 0.82648 0.0
S1601 S 0.55891 0.63782 0.93513 0.0
N1602 N 0.53583 0.6263 0.9154 0.0
N1603 N 0.57932 0.65416 0.91587 0.0
C1604 C 0.56774 0.65098 0.89198 0.0
C1605 C 0.54416 0.63561 0.89169 0.0
C1606 C 0.88849 0.20891 0.36968 0.0
C1607 C 0.88508 0.22461 0.3923 0.0
C1608 C 0.90416 0.18625 0.37018 0.0
C1609 C 0.91697 0.17815 0.39336 0.0
H1610 H 0.87864 0.21385 0.3514 0.0
H1611 H 0.90542 0.17444 0.35247 0.0
S1612 S 0.91647 0.2132 0.45744 0.0
N1613 N 0.89732 0.23118 0.43824 0.0
N1614 N 0.9267 0.18839 0.43907 0.0
C1615 C 0.91449 0.194 0.41592 0.0
C1616 C 0.89861 0.21727 0.41541 0.0
C1617 C 0.43164 0.86184 0.88551 0.0
C1618 C 0.42568 0.84441 0.86486 0.0
C1619 C 0.45459 0.87707 0.88522 0.0
C1620 C 0.47274 0.87548 0.86428 0.0
H1621 H 0.41817 0.86411 0.90184 0.0
H1622 H 0.45797 0.89033 0.90159 0.0
S1623 S 0.46729 0.83142 0.80616 0.0
N1624 N 0.44041 0.82538 0.82345 0.0
N1625 N 0.4836 0.85415 0.82274 0.0
C1626 C 0.46726 0.85781 0.84362 0.0
C1627 C 0.44375 0.84227 0.84393 0.0
C1628 C 0.11391 0.71678 0.0955 0.0
C1629 C 0.12527 0.72726 0.11849 0.0
C1630 C 0.09924 0.69331 0.09623 0.0
C1631 C 0.09513 0.67946 0.11999 0.0
H1632 H 0.11693 0.72637 0.07667 0.0
H1633 H 0.09125 0.68584 0.07793 0.0
S1634 S 0.11893 0.70004 0.18618 0.0
N1635 N 0.12993 0.72301 0.16602 0.0
N1636 N 0.10275 0.67911 0.16735 0.0
C1637 C 0.10556 0.6904 0.14327 0.0
C1638 C 0.12056 0.71419 0.14252 0.0
C1639 C 0.93936 0.65691 0.11883 0.0
C1640 C 0.93238 0.67163 0.14122 0.0
C1641 C 0.96162 0.64064 0.11879 0.0
C1642 C 0.97801 0.63846 0.14111 0.0
H1643 H 0.92697 0.65717 0.10148 0.0
H1644 H 0.96566 0.62933 0.10116 0.0
S1645 S 0.9698 0.67508 0.20391 0.0
N1646 N 0.94459 0.68455 0.18565 0.0
N1647 N 0.98654 0.65397 0.18569 0.0
C1648 C 0.97182 0.65386 0.16334 0.0
C1649 C 0.94899 0.67041 0.16337 0.0
C1650 C 0.90277 0.8233 0.13308 0.0
C1651 C 0.91842 0.82935 0.11106 0.0
C1652 C 0.88655 0.801 0.1334 0.0
C1653 C 0.88533 0.78363 0.11177 0.0
H1654 H 0.90234 0.83642 0.1499 0.0
H1655 H 0.87462 0.79762 0.15076 0.0
S1656 S 0.9241 0.7896 0.05002 0.0
N1657 N 0.93288 0.81553 0.0676 0.0
N1658 N 0.90241 0.77347 0.06812 0.0
C1659 C 0.9015 0.78903 0.08987 0.0
C1660 C 0.91797 0.81192 0.08952 0.0
C1661 C 0.05294 0.88399 0.11964 0.0
C1662 C 0.0331 0.88051 0.13875 0.0
C1663 C 0.07573 0.86845 0.11953 0.0
C1664 C 0.07978 0.8488 0.13859 0.0
H1665 H 0.051 0.89894 0.10454 0.0
H1666 H 0.09052 0.87215 0.10462 0.0
S1667 S 0.03342 0.83048 0.19209 0.0
N1668 N 0.01874 0.85516 0.17682 0.0
N1669 N 0.06154 0.8258 0.17644 0.0
C1670 C 0.06007 0.84484 0.1577 0.0
C1671 C 0.03676 0.8607 0.15781 0.0
C1672 C 0.41568 0.11173 0.29243 0.0
C1673 C 0.39241 0.12258 0.282 0.0
C1674 C 0.41535 0.09719 0.31602 0.0
C1675 C 0.39173 0.0926 0.32988 0.0
H1676 H 0.4344 0.11524 0.28281 0.0
H1677 H 0.43382 0.08989 0.32378 0.0
S1678 S 0.32506 0.11491 0.30955 0.0
N1679 N 0.34483 0.12617 0.28635 0.0
N1680 N 0.34428 0.09923 0.33052 0.0
C1681 C 0.36819 0.10239 0.31896 0.0
C1682 C 0.36854 0.1173 0.29511 0.0
C1683 C 0.36576 0.38545 0.96086 0.0
C1684 C 0.36928 0.36289 0.97666 0.0
C1685 C 0.34994 0.3849 0.93824 0.0
C1686 C 0.33707 0.36174 0.93023 0.0
H1687 H 0.37566 0.40371 0.96566 0.0
H1688 H 0.34866 0.40255 0.92637 0.0
S1689 S 0.33765 0.29789 0.96575 0.0
N1690 N 0.35699 0.31709 0.98352 0.0
N1691 N 0.32728 0.31616 0.94089 0.0
C1692 C 0.33958 0.33927 0.94628 0.0
C1693 C 0.35563 0.33984 0.9695 0.0
C1694 C 0.63699 0.39018 0.29379 0.0
C1695 C 0.61436 0.38779 0.27786 0.0
C1696 C 0.63695 0.40554 0.31672 0.0
C1697 C 0.61425 0.41912 0.32484 0.0
H1698 H 0.6549 0.37971 0.28885 0.0
H1699 H 0.65457 0.40593 0.32874 0.0
S1700 S 0.5505 0.42155 0.28922 0.0
N1701 N 0.56903 0.40186 0.27114 0.0
N1702 N 0.56907 0.43075 0.31431 0.0
C1703 C 0.59174 0.4177 0.30874 0.0
C1704 C 0.59177 0.40209 0.28524 0.0
C1705 C 0.65865 0.16178 0.94506 0.0
C1706 C 0.66248 0.13905 0.92961 0.0
C1707 C 0.64329 0.16119 0.96812 0.0
C1708 C 0.63084 0.13787 0.9765 0.0
H1709 H 0.66732 0.1803 0.93902 0.0
H1710 H 0.64061 0.1793 0.97906 0.0
S1711 S 0.63512 0.07265 0.94345 0.0
N1712 N 0.65282 0.09243 0.92474 0.0
N1713 N 0.62436 0.09113 0.96791 0.0
C1714 C 0.63509 0.11483 0.96157 0.0
C1715 C 0.6508 0.11544 0.93822 0.0
C1716 C 0.37143 0.90963 0.1885 0.0
C1717 C 0.39464 0.92186 0.17964 0.0
C1718 C 0.37083 0.8956 0.21226 0.0
C1719 C 0.39338 0.89319 0.2283 0.0
H1720 H 0.35385 0.90994 0.17643 0.0
H1721 H 0.35257 0.88601 0.21769 0.0
S1722 S 0.45839 0.92401 0.21529 0.0
N1723 N 0.44018 0.9325 0.18969 0.0
N1724 N 0.43917 0.906 0.23437 0.0
C1725 C 0.41645 0.90629 0.22022 0.0
C1726 C 0.41706 0.92058 0.1959 0.0
C1727 C 0.16272 0.34167 0.06324 0.0
C1728 C 0.16629 0.36482 0.07813 0.0
C1729 C 0.14702 0.34145 0.0404 0.0
C1730 C 0.13396 0.36432 0.03175 0.0
H1731 H 0.17189 0.32348 0.06953 0.0
H1732 H 0.1446 0.32307 0.02986 0.0
S1733 S 0.13749 0.43038 0.06311 0.0
N1734 N 0.15581 0.41138 0.08204 0.0
N1735 N 0.12667 0.41111 0.0393 0.0
C1736 C 0.13791 0.38776 0.04609 0.0
C1737 C 0.15399 0.388 0.06919 0.0
C1738 C 0.63691 0.61477 0.20947 0.0
C1739 C 0.61375 0.61836 0.22434 0.0
C1740 C 0.63704 0.5995 0.18651 0.0
C1741 C 0.61399 0.58727 0.17727 0.0
H1742 H 0.65512 0.62425 0.21526 0.0
H1743 H 0.65514 0.59821 0.17532 0.0
S1744 S 0.54869 0.58823 0.20996 0.0
N1745 N 0.56746 0.60678 0.22899 0.0
N1746 N 0.56783 0.57808 0.18569 0.0
C1747 C 0.59092 0.58979 0.19239 0.0
C1748 C 0.59077 0.60528 0.21595 0.0
C1749 C 0.8579 0.16465 0.03805 0.0
C1750 C 0.86812 0.14095 0.02807 0.0
C1751 C 0.84227 0.16497 0.06092 0.0
C1752 C 0.83605 0.14161 0.07461 0.0
H1753 H 0.86272 0.1832 0.02869 0.0
H1754 H 0.83549 0.18378 0.0683 0.0
S1755 S 0.85558 0.07392 0.05456 0.0
N1756 N 0.86895 0.09324 0.03213 0.0
N1757 N 0.84011 0.09381 0.07505 0.0
C1758 C 0.84508 0.11762 0.06394 0.0
C1759 C 0.86102 0.11732 0.04074 0.0
C1760 C 0.31845 0.36788 0.10502 0.0
C1761 C 0.32572 0.39009 0.09022 0.0
C1762 C 0.2961 0.36815 0.12119 0.0
C1763 C 0.27987 0.3906 0.12314 0.0
H1764 H 0.33069 0.35043 0.1049 0.0
H1765 H 0.2918 0.3506 0.13253 0.0
S1766 S 0.28913 0.45318 0.0865 0.0
N1767 N 0.31416 0.43463 0.07718 0.0
N1768 N 0.27199 0.43521 0.10752 0.0
C1769 C 0.28641 0.41269 0.1077 0.0
C1770 C 0.30937 0.41243 0.09131 0.0
C1771 C 0.31008 0.59678 0.41145 0.0
C1772 C 0.32617 0.6192 0.41424 0.0
C1773 C 0.2874 0.59716 0.39553 0.0
C1774 C 0.28006 0.61992 0.38148 0.0
H1775 H 0.31531 0.57865 0.42138 0.0
H1776 H 0.27591 0.57928 0.39378 0.0
S1777 S 0.31517 0.68419 0.38246 0.0
N1778 N 0.33277 0.66497 0.40185 0.0
N1779 N 0.29037 0.66585 0.37226 0.0
C1780 C 0.29565 0.64269 0.38462 0.0
C1781 C 0.3186 0.64231 0.40093 0.0
C1782 C 0.88994 0.43822 0.85378 0.0
C1783 C 0.86751 0.43127 0.83913 0.0
C1784 C 0.89027 0.46085 0.86954 0.0
C1785 C 0.86823 0.47767 0.87125 0.0
H1786 H 0.90708 0.42555 0.85382 0.0
H1787 H 0.90795 0.46492 0.88076 0.0
S1788 S 0.80531 0.46932 0.83492 0.0
N1789 N 0.82322 0.44368 0.82601 0.0
N1790 N 0.82376 0.48636 0.85561 0.0
C1791 C 0.84592 0.47139 0.856 0.0
C1792 C 0.84557 0.44816 0.84001 0.0
C1793 C 0.69843 0.91079 0.41256 0.0
C1794 C 0.683 0.88796 0.4157 0.0
C1795 C 0.72108 0.91082 0.39664 0.0
C1796 C 0.72904 0.88806 0.38296 0.0
H1797 H 0.69267 0.92892 0.42218 0.0
H1798 H 0.73202 0.929 0.39457 0.0
S1799 S 0.69589 0.82281 0.38504 0.0
N1800 N 0.67773 0.84181 0.4041 0.0
N1801 N 0.72013 0.84169 0.37452 0.0
C1802 C 0.71416 0.86489 0.38649 0.0
C1803 C 0.69123 0.86486 0.40279 0.0
C1804 C 0.6186 0.54803 0.37318 0.0
C1805 C 0.64082 0.53143 0.37355 0.0
C1806 C 0.618 0.57094 0.35789 0.0
C1807 C 0.63963 0.5785 0.34239 0.0
H1808 H 0.60139 0.54348 0.38494 0.0
H1809 H 0.60061 0.58313 0.35868 0.0
S1810 S 0.70204 0.54124 0.33482 0.0
N1811 N 0.68472 0.52364 0.356 0.0
N1812 N 0.68349 0.56683 0.32716 0.0
C1813 C 0.66186 0.56193 0.34211 0.0
C1814 C 0.66246 0.53838 0.35766 0.0
C1815 C 0.21229 0.63665 0.61853 0.0
C1816 C 0.22829 0.61406 0.62045 0.0
C1817 C 0.18996 0.63713 0.60236 0.0
C1818 C 0.1825 0.61498 0.58754 0.0
H1819 H 0.21678 0.65415 0.62986 0.0
H1820 H 0.1779 0.6547 0.60223 0.0
S1821 S 0.2184 0.55153 0.58385 0.0
N1822 N 0.23572 0.56934 0.60485 0.0
N1823 N 0.19354 0.57034 0.57453 0.0
C1824 C 0.19859 0.59248 0.58865 0.0
C1825 C 0.22152 0.592 0.60504 0.0
C1826 C 0.84548 0.55856 0.65854 0.0
C1827 C 0.86844 0.57346 0.66307 0.0
C1828 C 0.84602 0.5355 0.64325 0.0
C1829 C 0.86954 0.52656 0.6316 0.0
H1830 H 0.82681 0.56509 0.66651 0.0
H1831 H 0.82772 0.52506 0.63994 0.0
S1832 S 0.93548 0.5576 0.63838 0.0
N1833 N 0.91558 0.57693 0.65525 0.0
N1834 N 0.91672 0.5337 0.62691 0.0
C1835 C 0.89282 0.54078 0.6367 0.0
C1836 C 0.89226 0.56416 0.65235 0.0
C1837 C 0.15748 0.96803 0.65003 0.0
C1838 C 0.13837 0.97284 0.63051 0.0
C1839 C 0.15672 0.94506 0.66549 0.0
C1840 C 0.13685 0.92598 0.66208 0.0
H1841 H 0.17305 0.98217 0.65355 0.0
H1842 H 0.17167 0.94238 0.68047 0.0
S1843 S 0.08306 0.92831 0.61256 0.0
N1844 N 0.09938 0.95602 0.60814 0.0
N1845 N 0.09844 0.91292 0.63669 0.0
C1846 C 0.11786 0.93041 0.6424 0.0
C1847 C 0.11852 0.95377 0.62675 0.0
C1848 C 0.61203 0.78949 0.90893 0.0
C1849 C 0.62322 0.77934 0.88572 0.0
C1850 C 0.59673 0.81255 0.90854 0.0
C1851 C 0.59184 0.82644 0.88493 0.0
H1852 H 0.61562 0.77993 0.92768 0.0
H1853 H 0.5889 0.81968 0.92704 0.0
S1854 S 0.61468 0.80638 0.8182 0.0
N1855 N 0.62672 0.78373 0.83811 0.0
N1856 N 0.59839 0.82689 0.83738 0.0
C1857 C 0.60204 0.81573 0.8614 0.0
C1858 C 0.61765 0.79231 0.86182 0.0
C1859 C 0.03615 0.14416 0.34472 0.0
C1860 C 0.02737 0.13202 0.36804 0.0
C1861 C 0.05864 0.16028 0.34458 0.0
C1862 C 0.07308 0.16517 0.36779 0.0
H1863 H 0.02602 0.14063 0.32626 0.0
H1864 H 0.06507 0.16866 0.32605 0.0
S1865 S 0.05706 0.13963 0.43455 0.0
N1866 N 0.03393 0.12735 0.41533 0.0
N1867 N 0.07612 0.15723 0.415 0.0
C1868 C 0.06387 0.15394 0.39144 0.0
C1869 C 0.04108 0.13745 0.39156 0.0
C1870 C 0.41342 0.69538 0.91099 0.0
C1871 C 0.41626 0.67937 0.88851 0.0
C1872 C 0.39748 0.71801 0.91064 0.0
C1873 C 0.38351 0.72538 0.88783 0.0
H1874 H 0.42331 0.69011 0.92915 0.0
H1875 H 0.39564 0.72941 0.92858 0.0
S1876 S 0.38469 0.69051 0.8234 0.0
N1877 N 0.404 0.67286 0.84265 0.0
N1878 N 0.37445 0.71525 0.84178 0.0
C1879 C 0.38674 0.7099 0.86499 0.0
C1880 C 0.40302 0.68697 0.86536 0.0
C1881 C 0.93245 0.3634 0.38833 0.0
C1882 C 0.92722 0.3451 0.36824 0.0
C1883 C 0.95528 0.37888 0.38798 0.0
C1884 C 0.974 0.37668 0.36758 0.0
H1885 H 0.9185 0.36616 0.40422 0.0
H1886 H 0.9581 0.39283 0.40387 0.0
S1887 S 0.97045 0.33028 0.31117 0.0
N1888 N 0.94321 0.32463 0.32802 0.0
N1889 N 0.98611 0.35384 0.32721 0.0
C1890 C 0.96922 0.35813 0.34753 0.0
C1891 C 0.94586 0.34235 0.34788 0.0
C1892 C 0.59842 0.18769 0.63589 0.0
C1893 C 0.58359 0.18137 0.61337 0.0
C1894 C 0.61508 0.20966 0.63635 0.0
C1895 C 0.61753 0.22645 0.61437 0.0
H1896 H 0.59794 0.17501 0.65301 0.0
H1897 H 0.62643 0.21318 0.65408 0.0
S1898 S 0.58087 0.21998 0.55137 0.0
N1899 N 0.57094 0.19461 0.56915 0.0
N1900 N 0.60223 0.23604 0.56993 0.0
C1901 C 0.60203 0.22092 0.59202 0.0
C1902 C 0.58511 0.19837 0.59153 0.0
C1903 C 0.42765 0.14309 0.62206 0.0
C1904 C 0.42314 0.16195 0.6418 0.0
C1905 C 0.45036 0.12745 0.62217 0.0
C1906 C 0.46969 0.13005 0.64195 0.0
H1907 H 0.41325 0.14004 0.60662 0.0
H1908 H 0.45266 0.11313 0.60653 0.0
S1909 S 0.46794 0.17772 0.69738 0.0
N1910 N 0.44028 0.18317 0.68113 0.0
N1911 N 0.48303 0.15371 0.68146 0.0
C1912 C 0.46557 0.14908 0.6617 0.0
C1913 C 0.44231 0.165 0.66161 0.0
C1914 C 0.3725 0.30176 0.63968 0.0
C1915 C 0.3737 0.28323 0.61905 0.0
C1916 C 0.3886 0.32417 0.63984 0.0
C1917 C 0.40652 0.3291 0.61933 0.0
H1918 H 0.35894 0.29906 0.65593 0.0
H1919 H 0.38668 0.33801 0.65596 0.0
S1920 S 0.41863 0.28627 0.56137 0.0
N1921 N 0.39514 0.27104 0.5779 0.0
N1922 N 0.42542 0.31315 0.57836 0.0
C1923 C 0.40818 0.31071 0.59868 0.0
C1924 C 0.3918 0.28779 0.59851 0.0
C1925 C 0.54534 0.36896 0.61869 0.0
C1926 C 0.52931 0.37178 0.64119 0.0
C1927 C 0.56783 0.353 0.61899 0.0
C1928 C 0.57538 0.33928 0.64184 0.0
H1929 H 0.54074 0.37943 0.60067 0.0
H1930 H 0.57993 0.35217 0.60145 0.0
S1931 S 0.53944 0.33813 0.7054 0.0
N1932 N 0.52198 0.35813 0.68661 0.0
N1933 N 0.5644 0.32822 0.68705 0.0
C1934 C 0.55927 0.34129 0.66426 0.0
C1935 C 0.53621 0.35746 0.66396 0.0
C1936 C 0.9125 0.61008 0.78457 0.0
C1937 C 0.88905 0.62249 0.77647 0.0
C1938 C 0.91348 0.59493 0.80775 0.0
C1939 C 0.89101 0.5913 0.82361 0.0
H1940 H 0.93043 0.61258 0.77329 0.0
H1941 H 0.93208 0.58626 0.81353 0.0
S1942 S 0.82439 0.61865 0.81062 0.0
N1943 N 0.84248 0.62919 0.78578 0.0
N1944 N 0.84446 0.60109 0.82917 0.0
C1945 C 0.86726 0.60297 0.81532 0.0
C1946 C 0.86627 0.61847 0.79183 0.0
C1947 C 0.86523 0.88843 0.43383 0.0
C1948 C 0.84791 0.86779 0.42755 0.0
C1949 C 0.87978 0.88831 0.4573 0.0
C1950 C 0.87761 0.86755 0.47563 0.0
H1951 H 0.86795 0.90464 0.42023 0.0
H1952 H 0.893 0.90464 0.46095 0.0
S1953 S 0.8335 0.8096 0.46942 0.0
N1954 N 0.82832 0.82663 0.44218 0.0
N1955 N 0.85582 0.82623 0.48623 0.0
C1956 C 0.86005 0.84692 0.46978 0.0
C1957 C 0.8452 0.84706 0.44579 0.0
C1958 C 0.13389 0.90269 0.82259 0.0
C1959 C 0.11129 0.91692 0.82983 0.0
C1960 C 0.13397 0.88633 0.80041 0.0
C1961 C 0.11151 0.8836 0.78433 0.0
H1962 H 0.15142 0.90344 0.8347 0.0
H1963 H 0.15183 0.8755 0.7961 0.0
S1964 S 0.04786 0.91836 0.79366 0.0
N1965 N 0.06629 0.92847 0.81851 0.0
N1966 N 0.06637 0.89777 0.77658 0.0
C1967 C 0.08899 0.89842 0.79086 0.0
C1968 C 0.08888 0.915 0.81366 0.0
C1969 C 0.14798 0.66755 0.46612 0.0
C1970 C 0.13796 0.644 0.47665 0.0
C1971 C 0.16325 0.66749 0.44301 0.0
C1972 C 0.16934 0.64388 0.42968 0.0
H1973 H 0.14318 0.68625 0.47519 0.0
H1974 H 0.16983 0.68617 0.43512 0.0
S1975 S 0.15028 0.57654 0.45127 0.0
N1976 N 0.13721 0.59623 0.47353 0.0
N1977 N 0.16541 0.59608 0.43019 0.0
C1978 C 0.16056 0.62007 0.44094 0.0
C1979 C 0.14496 0.62017 0.46435 0.0
C1980 C 0.87099 0.40463 0.68779 0.0
C1981 C 0.89416 0.41673 0.6787 0.0
C1982 C 0.87085 0.38961 0.7109 0.0
C1983 C 0.89384 0.38611 0.72606 0.0
H1984 H 0.85302 0.40583 0.67636 0.0
H1985 H 0.85255 0.38024 0.71658 0.0
S1986 S 0.95912 0.41585 0.71209 0.0
N1987 N 0.94027 0.42585 0.68751 0.0
N1988 N 0.9401 0.39755 0.73112 0.0
C1989 C 0.91693 0.39903 0.71781 0.0
C1990 C 0.91708 0.41428 0.69408 0.0
C1991 C 0.63906 0.88728 0.54483 0.0
C1992 C 0.63555 0.86428 0.52968 0.0
C1993 C 0.65431 0.88721 0.56784 0.0
C1994 C 0.66653 0.86409 0.57691 0.0
H1995 H 0.62964 0.90555 0.53916 0.0
H1996 H 0.65566 0.90521 0.57916 0.0
S1997 S 0.66557 0.7991 0.5436 0.0
N1998 N 0.64709 0.81805 0.52467 0.0
N1999 N 0.67566 0.81799 0.5681 0.0
C2000 C 0.66397 0.84114 0.56159 0.0
C2001 C 0.64856 0.84123 0.53795 0.0
C2002 C 0.13679 0.12849 0.70726 0.0
C2003 C 0.11689 0.1259 0.72646 0.0
C2004 C 0.13689 0.11303 0.68437 0.0
C2005 C 0.11706 0.09434 0.67958 0.0
H2006 H 0.15246 0.14274 0.70973 0.0
H2007 H 0.15237 0.11612 0.67006 0.0
S2008 S 0.0614 0.07836 0.72423 0.0
N2009 N 0.07732 0.10224 0.73951 0.0
N2010 N 0.07768 0.07307 0.69657 0.0
C2011 C 0.09722 0.09119 0.69872 0.0
C2012 C 0.09711 0.10696 0.72212 0.0
C2013 C 0.36659 0.6196 0.57148 0.0
C2014 C 0.34775 0.6391 0.57692 0.0
C2015 C 0.38186 0.62047 0.54849 0.0
C2016 C 0.3789 0.64083 0.52982 0.0
H2017 H 0.36992 0.60375 0.58536 0.0
H2018 H 0.39621 0.60499 0.54548 0.0
S2019 S 0.33093 0.69583 0.53397 0.0
N2020 N 0.32601 0.67875 0.56123 0.0
N2021 N 0.3548 0.68054 0.51804 0.0
C2022 C 0.35983 0.66032 0.53485 0.0
C2023 C 0.34428 0.65943 0.55837 0.0
C2024 C 0.81241 0.91126 0.6004 0.0
C2025 C 0.82498 0.88737 0.59363 0.0
C2026 C 0.78896 0.91174 0.6151 0.0
C2027 C 0.77707 0.88834 0.6238 0.0
H2028 H 0.82094 0.92991 0.59463 0.0
H2029 H 0.78058 0.93063 0.62038 0.0
S2030 S 0.79925 0.82037 0.60858 0.0
N2031 N 0.82165 0.8395 0.59493 0.0
N2032 N 0.77782 0.84053 0.62229 0.0
C2033 C 0.78846 0.8643 0.61604 0.0
C2034 C 0.81226 0.86376 0.60097 0.0
C2035 C 0.81556 0.13824 0.90362 0.0
C2036 C 0.82313 0.11523 0.91701 0.0
C2037 C 0.79298 0.13881 0.88777 0.0
C2038 C 0.77683 0.11644 0.88474 0.0
H2039 H 0.82773 0.15571 0.90456 0.0
H2040 H 0.78847 0.15694 0.87749 0.0
S2041 S 0.7868 0.05189 0.91763 0.0
N2042 N 0.8119 0.06999 0.92766 0.0
N2043 N 0.76931 0.07097 0.8979 0.0
C2044 C 0.78366 0.09353 0.89882 0.0
C2045 C 0.80683 0.09294 0.91489 0.0
C2046 C 0.34833 0.96989 0.36905 0.0
C2047 C 0.37163 0.98134 0.3787 0.0
C2048 C 0.34892 0.94659 0.35411 0.0
C2049 C 0.37284 0.93383 0.34796 0.0
H2050 H 0.3294 0.97861 0.37362 0.0
H2051 H 0.33039 0.93841 0.3475 0.0
S2052 S 0.43968 0.95745 0.3665 0.0
N2053 N 0.41946 0.97929 0.37947 0.0
N2054 N 0.42062 0.93578 0.35162 0.0
C2055 C 0.39636 0.94581 0.3566 0.0
C2056 C 0.39573 0.96942 0.37194 0.0
C2057 C 0.19871 0.40402 0.91135 0.0
C2058 C 0.17871 0.38526 0.9073 0.0
C2059 C 0.22128 0.40469 0.89531 0.0
C2060 C 0.22469 0.38665 0.87451 0.0
H2061 H 0.19708 0.41807 0.92731 0.0
H2062 H 0.23626 0.41928 0.89947 0.0
S2063 S 0.17687 0.33495 0.85434 0.0
N2064 N 0.16298 0.34933 0.87996 0.0
N2065 N 0.20527 0.35017 0.85008 0.0
C2066 C 0.20453 0.36807 0.87 0.0
C2067 C 0.18161 0.36745 0.88632 0.0
C2068 C 0.16221 0.03875 0.86328 0.0
C2069 C 0.13838 0.02901 0.87353 0.0
C2070 C 0.16279 0.06158 0.84759 0.0
C2071 C 0.13958 0.0755 0.84126 0.0
H2072 H 0.18066 0.0292 0.86811 0.0
H2073 H 0.18169 0.06872 0.8408 0.0
S2074 S 0.07168 0.05632 0.86092 0.0
N2075 N 0.09072 0.03371 0.87437 0.0
N2076 N 0.0918 0.07651 0.84535 0.0
C2077 C 0.11548 0.06513 0.85036 0.0
C2078 C 0.11491 0.04198 0.8664 0.0
C2079 C 0.7161 0.09435 0.10973 0.0
C2080 C 0.72431 0.1175 0.12258 0.0
C2081 C 0.69321 0.09397 0.09411 0.0
C2082 C 0.67779 0.11676 0.09045 0.0
H2083 H 0.727 0.07621 0.11229 0.0
H2084 H 0.68727 0.07557 0.08514 0.0
S2085 S 0.69161 0.18287 0.11858 0.0
N2086 N 0.71585 0.16419 0.12945 0.0
N2087 N 0.67299 0.16333 0.10053 0.0
C2088 C 0.68633 0.14023 0.10249 0.0
C2089 C 0.7095 0.14061 0.11845 0.0
C2090 C 0.38725 0.07351 0.13821 0.0
C2091 C 0.36924 0.0762 0.15907 0.0
C2092 C 0.38692 0.05136 0.12175 0.0
C2093 C 0.36858 0.03086 0.12545 0.0
H2094 H 0.40154 0.08885 0.13434 0.0
H2095 H 0.40122 0.05039 0.10595 0.0
S2096 S 0.31812 0.02762 0.1783 0.0
N2097 N 0.33323 0.05597 0.18328 0.0
N2098 N 0.33238 0.01442 0.15222 0.0
C2099 C 0.3505 0.03322 0.14636 0.0
C2100 C 0.35088 0.05584 0.16317 0.0
C2101 C 0.66023 0.44486 0.15514 0.0
C2102 C 0.63645 0.43095 0.15879 0.0
C2103 C 0.66134 0.46793 0.13989 0.0
C2104 C 0.63872 0.478 0.12748 0.0
H2105 H 0.67828 0.43779 0.164 0.0
H2106 H 0.68018 0.4776 0.13736 0.0
S2107 S 0.57104 0.45058 0.13224 0.0
N2108 N 0.58941 0.43014 0.14956 0.0
N2109 N 0.59143 0.47336 0.12131 0.0
C2110 C 0.61464 0.46489 0.13167 0.0
C2111 C 0.6135 0.44147 0.14725 0.0
C2112 C 0.2964 0.12788 0.37448 0.0
C2113 C 0.2966 0.10178 0.38395 0.0
C2114 C 0.27307 0.14236 0.37302 0.0
C2115 C 0.24903 0.13131 0.38095 0.0
H2116 H 0.31461 0.13787 0.36965 0.0
H2117 H 0.27425 0.16294 0.36752 0.0
S2118 S 0.2378 0.06217 0.40161 0.0
N2119 N 0.26994 0.06418 0.39712 0.0
N2120 N 0.22596 0.09162 0.39451 0.0
C2121 C 0.24848 0.10451 0.38793 0.0
C2122 C 0.27229 0.08965 0.38931 0.0
C2123 C 0.34015 0.47968 0.86751 0.0
C2124 C 0.35053 0.45554 0.87623 0.0
C2125 C 0.35528 0.50274 0.86844 0.0
C2126 C 0.38125 0.5025 0.87822 0.0
H2127 H 0.32092 0.48054 0.85833 0.0
H2128 H 0.34709 0.52062 0.86017 0.0
S2129 S 0.41578 0.44519 0.9077 0.0
N2130 N 0.38682 0.43359 0.89865 0.0
N2131 N 0.41552 0.47662 0.89951 0.0
C2132 C 0.39093 0.47899 0.88917 0.0
C2133 C 0.37547 0.45559 0.88841 0.0
C2134 C 0.70873 0.37839 0.37878 0.0
C2135 C 0.70894 0.40552 0.38447 0.0
C2136 C 0.73187 0.36357 0.37895 0.0
C2137 C 0.75635 0.37524 0.38448 0.0
H2138 H 0.69038 0.36806 0.37538 0.0
H2139 H 0.73027 0.3425 0.37603 0.0
S2140 S 0.76843 0.44637 0.39615 0.0
N2141 N 0.73617 0.44408 0.39277 0.0
N2142 N 0.77992 0.41617 0.3925 0.0
C2143 C 0.75719 0.40268 0.38833 0.0
C2144 C 0.73346 0.41784 0.38834 0.0
C2145 C 0.62581 0.04875 0.87503 0.0
C2146 C 0.65299 0.04872 0.86956 0.0
C2147 C 0.61157 0.02534 0.87666 0.0
C2148 C 0.62391 1.00085 0.87312 0.0
H2149 H 0.61502 0.06706 0.87686 0.0
H2150 H 0.59043 0.02663 0.87918 0.0
S2151 S 0.69543 0.98957 0.86324 0.0
N2152 N 0.69235 0.02193 0.86395 0.0
N2153 N 0.66546 0.97768 0.8675 0.0
C2154 C 0.65142 1.00034 0.86972 0.0
C2155 C 0.66599 0.02432 0.86791 0.0
C2156 C 0.25335 0.90293 0.11264 0.0
C2157 C 0.25261 0.87658 0.12128 0.0
C2158 C 0.27697 0.91728 0.11242 0.0
C2159 C 0.30076 0.90577 0.1208 0.0
H2160 H 0.23568 0.91228 0.10516 0.0
H2161 H 0.27673 0.93704 0.10444 0.0
S2162 S 0.30903 0.83833 0.14798 0.0
N2163 N 0.27762 0.84016 0.13993 0.0
N2164 N 0.32152 0.86742 0.14077 0.0
C2165 C 0.2999 0.88011 0.13129 0.0
C2166 C 0.27599 0.86542 0.13118 0.0
C2167 C 0.16413 0.47984 0.14023 0.0
C2168 C 0.15214 0.45506 0.13719 0.0
C2169 C 0.1492 0.50307 0.13935 0.0
C2170 C 0.12175 0.50239 0.13541 0.0
H2171 H 0.185 0.48132 0.1444 0.0
H2172 H 0.15913 0.52167 0.14259 0.0
S2173 S 0.08108 0.44264 0.12435 0.0
N2174 N 0.11135 0.43146 0.12789 0.0
N2175 N 0.08338 0.47487 0.12734 0.0
C2176 C 0.10974 0.47783 0.13106 0.0
C2177 C 0.12492 0.45424 0.13167 0.0
C2178 C 0.73404 0.59149 0.11606 0.0
C2179 C 0.70982 0.60159 0.12488 0.0
C2180 C 0.75694 0.6069 0.11679 0.0
C2181 C 0.75645 0.63297 0.12632 0.0
H2182 H 0.73509 0.57222 0.10699 0.0
H2183 H 0.77489 0.5988 0.10859 0.0
S2184 S 0.69875 0.66697 0.15574 0.0
N2185 N 0.68754 0.63775 0.14711 0.0
N2186 N 0.73012 0.6671 0.1473 0.0
C2187 C 0.73282 0.64244 0.13724 0.0
C2188 C 0.70962 0.62663 0.13682 0.0
C2189 C 0.85446 0.00474 0.13332 0.0
C2190 C 0.88096 0.00574 0.12526 0.0
C2191 C 0.83947 0.02775 0.13583 0.0
C2192 C 0.85058 0.05256 0.1306 0.0
H2193 H 0.84571 0.98616 0.13911 0.0
H2194 H 0.81961 0.02612 0.14345 0.0
S2195 S 0.9181 0.06537 0.10538 0.0
N2196 N 0.91686 0.03318 0.10953 0.0
N2197 N 0.88875 0.0764 0.11388 0.0
C2198 C 0.87641 0.05357 0.12047 0.0
C2199 C 0.8916 0.03014 0.11785 0.0
C2200 C 0.39208 0.24711 0.10367 0.0
C2201 C 0.38439 0.24653 0.13033 0.0
C2202 C 0.39184 0.27066 0.0892 0.0
C2203 C 0.38398 0.29451 0.10091 0.0
H2204 H 0.39917 0.22938 0.09416 0.0
H2205 H 0.39913 0.27033 0.06915 0.0
S2206 S 0.35959 0.30322 0.16939 0.0
N2207 N 0.36734 0.27176 0.16738 0.0
N2208 N 0.36572 0.31555 0.13997 0.0
C2209 C 0.37453 0.29383 0.127 0.0
C2210 C 0.37507 0.26999 0.14178 0.0
C2211 C 0.50276 0.37227 0.181 0.0
C2212 C 0.52997 0.3737 0.17601 0.0
C2213 C 0.48453 0.37204 0.16024 0.0
C2214 C 0.49288 0.37384 0.13388 0.0
H2215 H 0.49553 0.36972 0.20093 0.0
H2216 H 0.46384 0.36939 0.16473 0.0
S2217 S 0.56151 0.37973 0.11015 0.0
N2218 N 0.56411 0.37833 0.14255 0.0
N2219 N 0.52966 0.37831 0.1038 0.0
C2220 C 0.51977 0.3768 0.12864 0.0
C2221 C 0.53837 0.37666 0.14966 0.0
C2222 C 0.61498 0.23106 0.09024 0.0
C2223 C 0.61773 0.2065 0.10276 0.0
C2224 C 0.61627 0.2546 0.10469 0.0
C2225 C 0.62036 0.25444 0.13215 0.0
H2226 H 0.61075 0.23214 0.06935 0.0
H2227 H 0.61327 0.27304 0.09439 0.0
S2228 S 0.63031 0.19539 0.17417 0.0
N2229 N 0.6266 0.18364 0.14412 0.0
N2230 N 0.62792 0.22761 0.17113 0.0
C2231 C 0.62427 0.23007 0.14469 0.0
C2232 C 0.62323 0.20619 0.13003 0.0
C2233 C 0.47026 0.12202 0.15636 0.0
C2234 C 0.47848 0.13016 0.18161 0.0
C2235 C 0.48776 0.12162 0.13505 0.0
C2236 C 0.51395 0.1298 0.13821 0.0
H2237 H 0.44985 0.11708 0.15271 0.0
H2238 H 0.48033 0.11657 0.11568 0.0
S2239 S 0.54589 0.15099 0.2004 0.0
N2240 N 0.51509 0.1448 0.20881 0.0
N2241 N 0.54793 0.14438 0.16859 0.0
C2242 C 0.52283 0.13656 0.16357 0.0
C2243 C 0.5051 0.13663 0.18535 0.0
C2244 C 0.38621 0.70968 0.37468 0.0
C2245 C 0.38796 0.70973 0.40238 0.0
C2246 C 0.38594 0.73306 0.36028 0.0
C2247 C 0.38701 0.75767 0.37287 0.0
H2248 H 0.38622 0.69139 0.36371 0.0
H2249 H 0.38611 0.7317 0.33898 0.0
S2250 S 0.3872 0.7689 0.44518 0.0
N2251 N 0.38795 0.73654 0.44208 0.0
N2252 N 0.38659 0.7808 0.41489 0.0
C2253 C 0.38703 0.75815 0.40065 0.0
C2254 C 0.38762 0.73415 0.41542 0.0
C2255 C 0.98431 0.36375 0.84003 0.0
C2256 C 0.96021 0.37052 0.85192 0.0
C2257 C 0.00785 0.36388 0.85449 0.0
C2258 C 0.00818 0.37086 0.88134 0.0
H2259 H 0.9849 0.35713 0.81975 0.0
H2260 H 0.02581 0.35768 0.84479 0.0
S2261 S 0.9507 0.39254 0.9211 0.0
N2262 N 0.93855 0.38683 0.89151 0.0
N2263 N 0.98242 0.38595 0.91887 0.0
C2264 C 0.98442 0.37901 0.89306 0.0
C2265 C 0.96055 0.37915 0.8783 0.0
C2266 C 0.62563 0.79727 0.37593 0.0
C2267 C 0.62201 0.7966 0.40343 0.0
C2268 C 0.62506 0.77434 0.36084 0.0
C2269 C 0.6213 0.74955 0.37256 0.0
H2270 H 0.62769 0.8158 0.36557 0.0
H2271 H 0.62629 0.77634 0.33963 0.0
S2272 S 0.61542 0.7364 0.44432 0.0
N2273 N 0.61741 0.76878 0.44219 0.0
N2274 N 0.61727 0.72532 0.41378 0.0
C2275 C 0.61955 0.7483 0.40026 0.0
C2276 C 0.6198 0.77187 0.4157 0.0
C2277 C 1.00139 0.13834 0.85589 0.0
C2278 C 1.00151 0.13091 0.88264 0.0
C2279 C 0.02476 0.1393 0.8412 0.0
C2280 C 0.0491 0.13297 0.85281 0.0
H2281 H 0.98324 0.1446 0.84658 0.0
H2282 H 0.02386 0.14647 0.82112 0.0
S2283 S 0.05965 0.10946 0.92143 0.0
N2284 N 0.02775 0.11521 0.91953 0.0
N2285 N 0.07146 0.11631 0.89195 0.0
C2286 C 0.04917 0.12364 0.879 0.0
C2287 C 0.02543 0.12277 0.89392 0.0
C2288 C 0.12597 0.37431 0.30118 0.0
C2289 C 0.09975 0.38339 0.30038 0.0
C2290 C 0.14113 0.37238 0.27829 0.0
C2291 C 0.13064 0.37952 0.25374 0.0
H2292 H 0.13546 0.36998 0.31981 0.0
H2293 H 0.16172 0.36711 0.28013 0.0
S2294 S 0.06173 0.39943 0.24 0.0
N2295 N 0.06283 0.39563 0.2723 0.0
N2296 N 0.09157 0.3923 0.2292 0.0
C2297 C 0.10383 0.38629 0.25225 0.0
C2298 C 0.08828 0.3881 0.27559 0.0
C2299 C 0.09478 0.62536 0.27038 0.0
C2300 C 0.12105 0.62647 0.26171 0.0
C2301 C 0.07389 0.62438 0.25234 0.0
C2302 C 0.07869 0.62389 0.22505 0.0
H2303 H 0.09045 0.62406 0.29125 0.0
H2304 H 0.05403 0.6224 0.25987 0.0
S2305 S 0.14422 0.62812 0.19261 0.0
N2306 N 0.15082 0.62869 0.22446 0.0
N2307 N 0.11184 0.62643 0.19036 0.0
C2308 C 0.10494 0.62636 0.21624 0.0
C2309 C 0.12608 0.62774 0.23463 0.0
C2310 C 0.87035 0.66717 0.02477 0.0
C2311 C 0.87655 0.65634 0.0495 0.0
C2312 C 0.87249 0.65209 1.00177 0.0
C2313 C 0.88104 0.62574 1.00266 0.0
H2314 H 0.86225 0.68683 0.02325 0.0
H2315 H 0.86602 0.66065 0.98331 0.0
S2316 S 0.90397 0.58965 0.06192 0.0
N2317 N 0.89522 0.6189 0.07303 0.0
N2318 N 0.89855 0.59045 0.02986 0.0
C2319 C 0.88952 0.61547 0.02691 0.0
C2320 C 0.88742 0.63082 0.05033 0.0
C2321 C 0.91685 0.89394 0.22771 0.0
C2322 C 0.90427 0.88966 0.20335 0.0
C2323 C 0.90268 0.89316 0.25146 0.0
C2324 C 0.87543 0.88804 0.25174 0.0
H2325 H 0.93758 0.89888 0.22844 0.0
H2326 H 0.91303 0.8972 0.26968 0.0
S2327 S 0.83336 0.87417 0.19347 0.0
N2328 N 0.86316 0.87832 0.18126 0.0
N2329 N 0.83653 0.87813 0.22556 0.0
C2330 C 0.86283 0.88277 0.22761 0.0
C2331 C 0.87726 0.88323 0.20353 0.0
C2332 C 0.62155 0.39159 0.52509 0.0
C2333 C 0.62897 0.38078 0.50074 0.0
C2334 C 0.62249 0.37653 0.54811 0.0
C2335 C 0.63099 0.35013 0.54768 0.0
H2336 H 0.61674 0.41231 0.52671 0.0
H2337 H 0.61794 0.38621 0.56658 0.0
S2338 S 0.64723 0.31126 0.48791 0.0
N2339 N 0.64112 0.34119 0.47675 0.0
N2340 N 0.64286 0.31271 0.52012 0.0
C2341 C 0.63597 0.33839 0.52307 0.0
C2342 C 0.63505 0.3538 0.49958 0.0
C2343 C 0.37792 0.6217 0.79798 0.0
C2344 C 0.40545 0.61843 0.79815 0.0
C2345 C 0.36383 0.62301 0.77442 0.0
C2346 C 0.37665 0.62132 0.74994 0.0
H2347 H 0.36682 0.62212 0.8162 0.0
H2348 H 0.34255 0.62399 0.77549 0.0
S2349 S 0.44881 0.61729 0.7393 0.0
N2350 N 0.44537 0.61671 0.77166 0.0
N2351 N 0.41872 0.61951 0.72713 0.0
C2352 C 0.40432 0.61987 0.7497 0.0
C2353 C 0.41876 0.61843 0.77383 0.0
C2354 C 0.87895 0.36882 0.48792 0.0
C2355 C 0.87279 0.36468 0.51454 0.0
C2356 C 0.87817 0.34799 0.46988 0.0
C2357 C 0.87141 0.32229 0.4779 0.0
H2358 H 0.88278 0.38852 0.48068 0.0
H2359 H 0.8817 0.35232 0.44927 0.0
S2360 S 0.85697 0.30085 0.54626 0.0
N2361 N 0.86234 0.33282 0.54869 0.0
N2362 N 0.86089 0.29355 0.51479 0.0
C2363 C 0.86714 0.3176 0.50484 0.0
C2364 C 0.86776 0.33886 0.52316 0.0
C2365 C 0.13665 0.15031 0.50621 0.0
C2366 C 0.13131 0.12312 0.50604 0.0
C2367 C 0.13692 0.16495 0.48277 0.0
C2368 C 0.13211 0.15284 0.45828 0.0
H2369 H 0.14146 0.16018 0.52452 0.0
H2370 H 0.14214 0.18559 0.4838 0.0
S2371 S 0.11511 0.08246 0.44744 0.0
N2372 N 0.11977 0.08496 0.4795 0.0
N2373 N 0.11968 0.11236 0.43566 0.0
C2374 C 0.12524 0.12595 0.45808 0.0
C2375 C 0.12502 0.11111 0.48189 0.0
C2376 C 0.77896 0.5926 0.88847 0.0
C2377 C 0.80352 0.60505 0.88535 0.0
C2378 C 0.75542 0.60702 0.8872 0.0
C2379 C 0.75556 0.63439 0.88277 0.0
H2380 H 0.77789 0.57178 0.89294 0.0
H2381 H 0.73701 0.59677 0.89048 0.0
S2382 S 0.81457 0.6761 0.87141 0.0
N2383 N 0.82634 0.64614 0.87553 0.0
N2384 N 0.78236 0.67318 0.87426 0.0
C2385 C 0.77992 0.64684 0.8784 0.0
C2386 C 0.80381 0.63218 0.87942 0.0
C2387 C 0.85079 0.96922 0.37976 0.0
C2388 C 0.82504 0.97675 0.37267 0.0
C2389 C 0.87132 0.9876 0.38055 0.0
C2390 C 0.8668 0.01405 0.37398 0.0
H2391 H 0.8554 0.94873 0.3835 0.0
H2392 H 0.89111 0.98074 0.38461 0.0
S2393 S 0.80262 0.04442 0.35688 0.0
N2394 N 0.7958 0.01293 0.36124 0.0
N2395 N 0.83448 0.04748 0.36264 0.0
C2396 C 0.84088 0.02218 0.36859 0.0
C2397 C 0.81993 0.00352 0.368 0.0
C2398 C 0.25332 0.90001 0.8898 0.0
C2399 C 0.25282 0.87308 0.88314 0.0
C2400 C 0.23016 0.91506 0.89033 0.0
C2401 C 0.20562 0.90372 0.88421 0.0
H2402 H 0.27164 0.90932 0.89553 0.0
H2403 H 0.23139 0.93532 0.89686 0.0
S2404 S 0.1939 0.8348 0.86262 0.0
N2405 N 0.22577 0.8362 0.86872 0.0
N2406 N 0.18268 0.86471 0.86832 0.0
C2407 C 0.20516 0.87736 0.87558 0.0
C2408 C 0.22862 0.86197 0.87542 0.0
C2409 C 0.15081 0.5042 0.36848 0.0
C2410 C 0.12431 0.50476 0.37665 0.0
C2411 C 0.16596 0.52726 0.36746 0.0
C2412 C 0.15507 0.55175 0.37445 0.0
H2413 H 0.15957 0.48596 0.36173 0.0
H2414 H 0.1858 0.52603 0.35972 0.0
S2415 S 0.08751 0.56337 0.40016 0.0
N2416 N 0.08852 0.53154 0.39384 0.0
N2417 N 0.11701 0.57465 0.39262 0.0
C2418 C 0.12921 0.55222 0.38455 0.0
C2419 C 0.11381 0.52879 0.38549 0.0
C2420 C 0.79734 0.37889 0.63413 0.0
C2421 C 0.79741 0.40496 0.62464 0.0
C2422 C 0.77426 0.36392 0.63458 0.0
C2423 C 0.75028 0.37449 0.62576 0.0
H2424 H 0.81554 0.3693 0.6398 0.0
H2425 H 0.77566 0.34339 0.6402 0.0
S2426 S 0.73856 0.44344 0.60463 0.0
N2427 N 0.77056 0.442 0.61027 0.0
N2428 N 0.72702 0.4138 0.61136 0.0
C2429 C 0.74951 0.40128 0.61871 0.0
C2430 C 0.77309 0.41658 0.6182 0.0
C2431 C 0.66452 0.98356 0.63853 0.0
C2432 C 0.65434 0.95929 0.63 0.0
C2433 C 0.64928 0.00654 0.63713 0.0
C2434 C 0.62336 0.00605 0.6272 0.0
H2435 H 0.68363 0.98459 0.64794 0.0
H2436 H 0.65734 0.02456 0.64522 0.0
S2437 S 0.58938 0.94814 0.59822 0.0
N2438 N 0.61836 0.93685 0.60759 0.0
N2439 N 0.58938 0.97966 0.60605 0.0
C2440 C 0.61389 0.98233 0.61649 0.0
C2441 C 0.6295 0.95904 0.61764 0.0
C2442 C 0.25146 0.07078 0.62437 0.0
C2443 C 0.22431 0.07619 0.62363 0.0
C2444 C 0.27004 0.09123 0.62482 0.0
C2445 C 0.26216 0.11783 0.62465 0.0
H2446 H 0.25849 0.05067 0.62337 0.0
H2447 H 0.29076 0.08617 0.62457 0.0
S2448 S 0.19334 0.14249 0.62523 0.0
N2449 N 0.19047 0.11015 0.62523 0.0
N2450 N 0.22528 0.14838 0.62501 0.0
C2451 C 0.23506 0.12346 0.62526 0.0
C2452 C 0.21618 0.1027 0.62502 0.0
C2453 C 0.37365 0.51574 0.63361 0.0
C2454 C 0.36753 0.48877 0.63449 0.0
C2455 C 0.35382 0.53482 0.63315 0.0
C2456 C 0.327 0.52779 0.634 0.0
H2457 H 0.39393 0.5223 0.63454 0.0
H2458 H 0.35967 0.55532 0.63314 0.0
S2459 S 0.30049 0.45972 0.63184 0.0
N2460 N 0.33277 0.45587 0.63227 0.0
N2461 N 0.29538 0.49181 0.63256 0.0
C2462 C 0.32055 0.50087 0.63301 0.0
C2463 C 0.34083 0.48137 0.63311 0.0
C2464 C 0.89045 0.73535 0.59052 0.0
C2465 C 0.88406 0.74238 0.61657 0.0
C2466 C 0.89094 0.7542 0.57032 0.0
C2467 C 0.88544 0.78081 0.57562 0.0
H2468 H 0.89613 0.7153 0.58595 0.0
H2469 H 0.89722 0.74814 0.55085 0.0
S2470 S 0.8656 0.80883 0.64025 0.0
N2471 N 0.87054 0.77728 0.64628 0.0
N2472 N 0.87125 0.81272 0.60845 0.0
C2473 C 0.87757 0.78774 0.60133 0.0
C2474 C 0.87692 0.76852 0.62179 0.0
C2475 C 0.00415 0.8763 0.68475 0.0
C2476 C 0.0308 0.87088 0.67946 0.0
C2477 C 0.98544 0.87696 0.66441 0.0
C2478 C 0.99268 0.87226 0.63804 0.0
H2479 H 0.99746 0.87908 0.70482 0.0
H2480 H 0.96503 0.88058 0.66945 0.0
S2481 S 0.06011 0.85865 0.6134 0.0
N2482 N 0.06373 0.86279 0.64543 0.0
N2483 N 0.02839 0.86262 0.60766 0.0
C2484 C 0.01938 0.86783 0.63236 0.0
C2485 C 0.03847 0.86751 0.65294 0.0
C2486 C 0.11954 0.75639 0.60752 0.0
C2487 C 0.12719 0.75569 0.63418 0.0
C2488 C 0.11938 0.7335 0.59211 0.0
C2489 C 0.12672 0.70905 0.60287 0.0
H2490 H 0.11247 0.77455 0.59883 0.0
H2491 H 0.11201 0.73481 0.57212 0.0
S2492 S 0.15202 0.69734 0.67057 0.0
N2493 N 0.14469 0.72897 0.66992 0.0
N2494 N 0.14523 0.6862 0.6408 0.0
C2495 C 0.13657 0.70853 0.62883 0.0
C2496 C 0.13658 0.73179 0.64454 0.0
C2497 C 0.98308 0.62403 0.61136 0.0
C2498 C 0.00733 0.63006 0.62314 0.0
C2499 C 0.9598 0.62462 0.62597 0.0
C2500 C 0.95985 0.63137 0.65291 0.0
H2501 H 0.98178 0.62062 0.59032 0.0
H2502 H 0.9415 0.62121 0.61555 0.0
S2503 S 0.01912 0.64284 0.69407 0.0
N2504 N 0.03077 0.63866 0.66398 0.0
N2505 N 0.98684 0.63973 0.69168 0.0
C2506 C 0.98428 0.63485 0.66548 0.0
C2507 C 0.00806 0.6343 0.65051 0.0
C2508 C 0.88657 0.25443 0.89869 0.0
C2509 C 0.8787 0.25381 0.87208 0.0
C2510 C 0.88717 0.23147 0.91394 0.0
C2511 C 0.87995 0.20706 0.90308 0.0
H2512 H 0.89366 0.27258 0.90739 0.0
H2513 H 0.89491 0.23268 0.93379 0.0
S2514 S 0.85345 0.19559 0.83581 0.0
N2515 N 0.86066 0.22726 0.83648 0.0
N2516 N 0.86082 0.18432 0.8654 0.0
C2517 C 0.86959 0.20663 0.87732 0.0
C2518 C 0.8692 0.22996 0.86174 0.0
C2519 C 0.50599 0.8731 0.32339 0.0
C2520 C 0.47889 0.87597 0.3283 0.0
C2521 C 0.52421 0.87323 0.34414 0.0
C2522 C 0.51597 0.87676 0.37036 0.0
H2523 H 0.51305 0.8691 0.30365 0.0
H2524 H 0.54474 0.86937 0.33981 0.0
S2525 S 0.44774 0.88737 0.39361 0.0
N2526 N 0.44505 0.88427 0.36134 0.0
N2527 N 0.47948 0.88471 0.4001 0.0
C2528 C 0.48927 0.88133 0.3754 0.0
C2529 C 0.47067 0.88089 0.3544 0.0
C2530 C 0.13159 0.28463 0.90766 0.0
C2531 C 0.12399 0.27678 0.93319 0.0
C2532 C 0.13221 0.26668 0.88674 0.0
C2533 C 0.12482 0.24035 0.89058 0.0
H2534 H 0.13593 0.30506 0.90349 0.0
H2535 H 0.13683 0.27383 0.86716 0.0
S2536 S 0.10549 0.20922 0.95378 0.0
N2537 N 0.11082 0.24038 0.96141 0.0
N2538 N 0.11171 0.20666 0.92194 0.0
C2539 C 0.11865 0.23187 0.91623 0.0
C2540 C 0.11833 0.25008 0.93761 0.0
C2541 C 0.50197 0.63457 0.31989 0.0
C2542 C 0.5291 0.63148 0.3245 0.0
C2543 C 0.48393 0.63385 0.34078 0.0
C2544 C 0.4924 0.62947 0.36679 0.0
H2545 H 0.49476 0.6393 0.30036 0.0
H2546 H 0.46339 0.638 0.33677 0.0
S2547 S 0.56073 0.61739 0.38902 0.0
N2548 N 0.56318 0.62169 0.35687 0.0
N2549 N 0.52908 0.62011 0.3959 0.0
C2550 C 0.5191 0.62449 0.37143 0.0
C2551 C 0.53752 0.62554 0.3503 0.0
C2552 C 0.57098 0.88714 0.75324 0.0
C2553 C 0.57576 0.88519 0.78047 0.0
C2554 C 0.59187 0.8872 0.73516 0.0
C2555 C 0.61812 0.88479 0.74368 0.0
H2556 H 0.55118 0.8902 0.74591 0.0
H2557 H 0.58756 0.89014 0.71445 0.0
S2558 S 0.64113 0.87701 0.81246 0.0
N2559 N 0.60878 0.87911 0.81481 0.0
N2560 N 0.64778 0.87896 0.78068 0.0
C2561 C 0.62308 0.88124 0.77059 0.0
C2562 C 0.60194 0.88149 0.78903 0.0
C2563 C 0.58818 0.11724 0.72897 0.0
C2564 C 0.59873 0.12435 0.70436 0.0
C2565 C 0.60351 0.11859 0.75189 0.0
C2566 C 0.62985 0.12724 0.75106 0.0
H2567 H 0.56852 0.10912 0.7304 0.0
H2568 H 0.59509 0.11158 0.77021 0.0
S2569 S 0.66531 0.15217 0.69221 0.0
N2570 N 0.63593 0.14381 0.68113 0.0
N2571 N 0.66486 0.14563 0.72405 0.0
C2572 C 0.63987 0.13649 0.72698 0.0
C2573 C 0.62426 0.13522 0.70366 0.0
C2574 C 0.37701 0.14024 0.52103 0.0
C2575 C 0.36896 0.14412 0.49485 0.0
C2576 C 0.37586 0.16082 0.53935 0.0
C2577 C 0.36686 0.18605 0.53209 0.0
H2578 H 0.38267 0.12082 0.52781 0.0
H2579 H 0.38091 0.15658 0.55966 0.0
S2580 S 0.34675 0.20699 0.46501 0.0
N2581 N 0.35424 0.17551 0.46182 0.0
N2582 N 0.35206 0.21425 0.49628 0.0
C2583 C 0.36062 0.19064 0.50551 0.0
C2584 C 0.36161 0.16962 0.48689 0.0
C2585 C 0.3886 0.37385 0.74075 0.0
C2586 C 0.39277 0.38178 0.76692 0.0
C2587 C 0.409 0.37496 0.72224 0.0
C2588 C 0.43434 0.38379 0.72931 0.0
H2589 H 0.36906 0.36837 0.73413 0.0
H2590 H 0.40455 0.37001 0.70196 0.0
S2591 S 0.45602 0.40356 0.79625 0.0
N2592 N 0.42452 0.39625 0.7997 0.0
N2593 N 0.46299 0.39827 0.7649 0.0
C2594 C 0.43923 0.38988 0.75587 0.0
C2595 C 0.41838 0.38895 0.77467 0.0
C2596 C 0.12644 0.87273 0.02022 0.0
C2597 C 0.13169 0.86851 0.99342 0.0
C2598 C 0.12751 0.85187 0.03825 0.0
C2599 C 0.13348 0.82603 0.03004 0.0
H2600 H 0.12317 0.8925 0.02754 0.0
H2601 H 0.12476 0.85626 0.05895 0.0
S2602 S 0.14603 0.80453 0.96134 0.0
N2603 N 0.14102 0.83658 0.95905 0.0
N2604 N 0.1427 0.79722 0.99289 0.0
C2605 C 0.13696 0.82133 1.00298 0.0
C2606 C 0.13619 0.84264 0.98468 0.0
C2607 C 0.89886 0.11886 0.25223 0.0
C2608 C 0.87247 0.12743 0.25284 0.0
C2609 C 0.91406 0.11769 0.27525 0.0
C2610 C 0.90337 0.12504 0.29973 0.0
H2611 H 0.90743 0.11175 0.23401 0.0
H2612 H 0.93368 0.10944 0.27403 0.0
S2613 S 0.83673 0.1529 0.31135 0.0
N2614 N 0.83728 0.14594 0.27961 0.0
N2615 N 0.86612 0.14482 0.32257 0.0
C2616 C 0.87788 0.13598 0.30018 0.0
C2617 C 0.86233 0.13691 0.27681 0.0
C2618 C 0.37562 0.84091 0.019 0.0
C2619 C 0.37771 0.86729 0.01085 0.0
C2620 C 0.374 0.82043 1.00053 0.0
C2621 C 0.37378 0.82577 0.97333 0.0
H2622 H 0.37409 0.83623 0.03977 0.0
H2623 H 0.37132 0.80051 0.00766 0.0
S2624 S 0.38031 0.89173 0.94221 0.0
N2625 N 0.38101 0.89768 0.97418 0.0
N2626 N 0.37751 0.85948 0.93931 0.0
C2627 C 0.3771 0.85208 0.96505 0.0
C2628 C 0.37916 0.87279 0.98386 0.0
C2629 C 0.63727 0.68486 1.00031 0.0
C2630 C 0.63611 0.67954 0.97314 0.0
C2631 C 0.63718 0.66433 0.01878 0.0
C2632 C 0.63538 0.6379 0.01069 0.0
H2633 H 0.63982 0.70483 0.00734 0.0
H2634 H 0.63953 0.66905 0.03947 0.0
S2635 S 0.63007 0.61347 0.94218 0.0
N2636 N 0.63165 0.64579 0.93927 0.0
N2637 N 0.63118 0.60747 0.97412 0.0
C2638 C 0.6327 0.63238 0.98379 0.0
C2639 C 0.63312 0.65316 0.96497 0.0
C2640 C 0.25782 0.23001 0.48327 0.0
C2641 C 0.23006 0.23111 0.48407 0.0
C2642 C 0.27292 0.22902 0.5065 0.0
C2643 C 0.26087 0.2297 0.53143 0.0
H2644 H 0.26793 0.23006 0.46449 0.0
H2645 H 0.29419 0.22872 0.50501 0.0
S2646 S 0.18903 0.23103 0.54447 0.0
N2647 N 0.19125 0.23146 0.51199 0.0
N2648 N 0.21961 0.23013 0.55558 0.0
C2649 C 0.23319 0.23013 0.53253 0.0
C2650 C 0.2178 0.23065 0.50889 0.0
C2651 C 0.47817 0.49189 0.77731 0.0
C2652 C 0.48238 0.51932 0.77639 0.0
C2653 C 0.4774 0.47664 0.75417 0.0
C2654 C 0.48142 0.48816 0.7293 0.0
H2655 H 0.47558 0.48215 0.79611 0.0
H2656 H 0.47457 0.45558 0.75578 0.0
S2657 S 0.49203 0.55917 0.716 0.0
N2658 N 0.48947 0.5574 0.74841 0.0
N2659 N 0.48856 0.52874 0.70502 0.0
C2660 C 0.48509 0.51559 0.72806 0.0
C2661 C 0.48538 0.53117 0.75157 0.0
C2662 C 0.74293 0.24578 0.51393 0.0
C2663 C 0.73282 0.26936 0.52446 0.0
C2664 C 0.75973 0.24571 0.492 0.0
C2665 C 0.76741 0.26921 0.47943 0.0
H2666 H 0.73774 0.22708 0.5227 0.0
H2667 H 0.76707 0.22695 0.48504 0.0
S2668 S 0.74633 0.33652 0.4988 0.0
N2669 N 0.73187 0.31709 0.52053 0.0
N2670 N 0.76298 0.3169 0.47889 0.0
C2671 C 0.75736 0.29304 0.48956 0.0
C2672 C 0.74013 0.29311 0.51205 0.0
C2673 C 0.52595 0.99359 0.72927 0.0
C2674 C 0.52312 0.0212 0.73027 0.0
C2675 C 0.52622 0.97823 0.75234 0.0
C2676 C 0.5231 0.98981 0.7773 0.0
H2677 H 0.52773 0.98376 0.71043 0.0
H2678 H 0.52792 0.95704 0.75062 0.0
S2679 S 0.51667 0.06127 0.79095 0.0
N2680 N 0.51857 0.0595 0.75849 0.0
N2681 N 0.51863 0.03065 0.80178 0.0
C2682 C 0.52098 0.01742 0.77866 0.0
C2683 C 0.52116 0.0331 0.75518 0.0
C2684 C 0.24461 0.79151 0.01344 0.0
C2685 C 0.2367 0.76809 0.02609 0.0
C2686 C 0.26102 0.79098 0.99097 0.0
C2687 C 0.26983 0.767 0.98008 0.0
H2688 H 0.23845 0.81036 0.02124 0.0
H2689 H 0.26653 0.80944 0.98183 0.0
S2690 S 0.25439 0.70021 0.00552 0.0
N2691 N 0.23849 0.7203 0.02551 0.0
N2692 N 0.26962 0.71933 0.98411 0.0
C2693 C 0.26195 0.74352 0.99255 0.0
C2694 C 0.24534 0.74406 0.0153 0.0
C2695 C 0.99657 0.49781 0.26702 0.0
C2696 C 0.02009 0.48661 0.27661 0.0
C2697 C 0.99628 0.51418 0.24474 0.0
C2698 C 0.0195 0.52036 0.23091 0.0
H2699 H 0.97808 0.49385 0.27685 0.0
H2700 H 0.97763 0.52242 0.23853 0.0
S2701 S 0.08644 0.49571 0.24717 0.0
N2702 N 0.0674 0.48278 0.27018 0.0
N2703 N 0.06676 0.51315 0.22798 0.0
C2704 C 0.04323 0.50912 0.24001 0.0
C2705 C 0.04352 0.49229 0.26281 0.0
C2706 C 0.76606 0.74043 0.97631 0.0
C2707 C 0.7393 0.73291 0.97737 0.0
C2708 C 0.78226 0.73965 0.99887 0.0
C2709 C 0.77218 0.73181 0.02343 0.0
H2710 H 0.77445 0.74721 0.95792 0.0
H2711 H 0.80249 0.74621 0.99737 0.0
S2712 S 0.70409 0.7091 0.03685 0.0
N2713 N 0.70399 0.71632 0.00511 0.0
N2714 N 0.73428 0.71526 0.04734 0.0
C2715 C 0.74575 0.72362 0.02466 0.0
C2716 C 0.72937 0.72402 1.00168 0.0
C2717 C 0.98302 0.9939 0.2736 0.0
C2718 C 0.98018 0.02155 0.27306 0.0
C2719 C 0.98289 0.97887 0.25031 0.0
C2720 C 0.98036 0.99093 0.22553 0.0
H2721 H 0.9855 0.98378 0.2922 0.0
H2722 H 0.98566 0.95777 0.25161 0.0
S2723 S 0.97036 0.06226 0.21317 0.0
N2724 N 0.97335 0.06007 0.24551 0.0
N2725 N 0.97308 0.03189 0.20187 0.0
C2726 C 0.97666 0.0184 0.22471 0.0
C2727 C 0.97652 0.03368 0.24843 0.0
C2728 C 0.50606 0.22659 0.23523 0.0
C2729 C 0.48081 0.2367 0.23013 0.0
C2730 C 0.52826 0.24321 0.23588 0.0
C2731 C 0.5261 0.27044 0.23078 0.0
H2732 H 0.50846 0.20588 0.23972 0.0
H2733 H 0.54727 0.23477 0.2406 0.0
S2734 S 0.46452 0.30608 0.21433 0.0
N2735 N 0.45502 0.27526 0.21871 0.0
N2736 N 0.49669 0.30634 0.21921 0.0
C2737 C 0.50107 0.2805 0.22453 0.0
C2738 C 0.47844 0.26369 0.22443 0.0
C2739 C 0.4934 0.263 0.04127 0.0
C2740 C 0.48401 0.27393 0.01752 0.0
C2741 C 0.5104 0.24099 0.04126 0.0
C2742 C 0.51824 0.2289 0.01752 0.0
H2743 H 0.48792 0.2718 0.05991 0.0
H2744 H 0.51703 0.23305 0.05992 0.0
S2745 S 0.49894 0.24976 0.95016 0.0
N2746 N 0.48369 0.27073 0.96977 0.0
N2747 N 0.51549 0.22977 0.96977 0.0
C2748 C 0.5089 0.23966 0.99375 0.0
C2749 C 0.49186 0.26205 0.99375 0.0
C2750 C 0.50116 0.73287 0.25183 0.0
C2751 C 0.522 0.73428 0.26998 0.0
C2752 C 0.48054 0.75126 0.25207 0.0
C2753 C 0.47995 0.77234 0.27019 0.0
H2754 H 0.50099 0.71746 0.23708 0.0
H2755 H 0.46503 0.74902 0.23763 0.0
S2756 S 0.53033 0.78494 0.32188 0.0
N2757 N 0.54082 0.758 0.30694 0.0
N2758 N 0.50259 0.79324 0.30701 0.0
C2759 C 0.50053 0.77368 0.28889 0.0
C2760 C 0.52141 0.75454 0.28885 0.0
C2761 C 0.02786 0.25129 0.9805 0.0
C2762 C 0.01726 0.27685 0.98071 0.0
C2763 C 0.01141 0.22897 0.9807 0.0
C2764 C 0.98371 0.23131 0.98049 0.0
H2765 H 0.04901 0.24857 0.9812 0.0
H2766 H 0.02044 0.20966 0.98129 0.0
S2767 S 0.94625 0.2939 0.97838 0.0
N2768 N 0.97742 0.30325 0.97905 0.0
N2769 N 0.9466 0.26137 0.97889 0.0
C2770 C 0.97293 0.25677 0.97942 0.0
C2771 C 0.98967 0.2795 0.97972 0.0
C2772 C 0.23324 0.50496 0.22637 0.0
C2773 C 0.23131 0.47988 0.23785 0.0
C2774 C 0.23343 0.52785 0.24201 0.0
C2775 C 0.2312 0.52659 0.26973 0.0
H2776 H 0.23558 0.50681 0.20524 0.0
H2777 H 0.23556 0.54673 0.23234 0.0
S2778 S 0.22307 0.46563 0.30911 0.0
N2779 N 0.22531 0.45513 0.27838 0.0
N2780 N 0.22549 0.49803 0.30768 0.0
C2781 C 0.22806 0.50164 0.28129 0.0
C2782 C 0.22821 0.47834 0.26539 0.0
C2783 C 0.73368 0.52429 0.99074 0.0
C2784 C 0.73488 0.52742 0.01836 0.0
C2785 C 0.75658 0.52433 0.97512 0.0
C2786 C 0.78162 0.527 0.98656 0.0
H2787 H 0.71485 0.52159 0.98111 0.0
H2788 H 0.75478 0.52133 0.95407 0.0
S2789 S 0.79567 0.53779 0.05752 0.0
N2790 N 0.7633 0.53479 0.05615 0.0
N2791 N 0.80624 0.53472 0.02689 0.0
C2792 C 0.7831 0.531 0.01399 0.0
C2793 C 0.75977 0.5313 0.02985 0.0
C2794 C 0.77604 0.02706 0.26243 0.0
C2795 C 0.77468 0.02551 0.23469 0.0
C2796 C 0.77683 0.00427 0.27822 0.0
C2797 C 0.77567 0.97903 0.26692 0.0
H2798 H 0.77626 0.0461 0.27201 0.0
H2799 H 0.77737 0.00637 0.29945 0.0
S2800 S 0.77368 0.96401 0.19541 0.0
N2801 N 0.7737 0.99652 0.19669 0.0
N2802 N 0.77463 0.95377 0.22631 0.0
C2803 C 0.77503 0.97717 0.23924 0.0
C2804 C 0.77474 1.00037 0.22315 0.0
C2805 C 0.74229 0.50762 0.49473 0.0
C2806 C 0.73046 0.48428 0.48562 0.0
C2807 C 0.76445 0.50711 0.51122 0.0
C2808 C 0.77571 0.48323 0.51966 0.0
H2809 H 0.73444 0.52655 0.48885 0.0
H2810 H 0.77281 0.52567 0.51757 0.0
S2811 S 0.75214 0.41637 0.50184 0.0
N2812 N 0.7315 0.43642 0.48664 0.0
N2813 N 0.77334 0.43546 0.51751 0.0
C2814 C 0.76403 0.45964 0.5109 0.0
C2815 C 0.74146 0.46016 0.49384 0.0
C2816 C 0.28274 0.50146 0.72577 0.0
C2817 C 0.27802 0.52624 0.73716 0.0
C2818 C 0.28296 0.47844 0.74119 0.0
C2819 C 0.27906 0.47934 0.76871 0.0
H2820 H 0.2853 0.49979 0.70464 0.0
H2821 H 0.28595 0.4597 0.73148 0.0
S2822 S 0.2683 0.53964 0.80836 0.0
N2823 N 0.27089 0.55051 0.77777 0.0
N2824 N 0.27179 0.50734 0.80676 0.0
C2825 C 0.27552 0.50413 0.78046 0.0
C2826 C 0.27481 0.52752 0.76469 0.0
C2827 C 0.23934 0.0433 0.51137 0.0
C2828 C 0.22871 0.01916 0.52006 0.0
C2829 C 0.26194 0.04413 0.49516 0.0
C2830 C 0.27497 0.02087 0.48744 0.0
H2831 H 0.22995 0.06161 0.5169 0.0
H2832 H 0.26963 0.06308 0.48914 0.0
S2833 S 0.25514 0.95274 0.50483 0.0
N2834 N 0.23322 0.97154 0.51974 0.0
N2835 N 0.2751 0.97311 0.48924 0.0
C2836 C 0.26441 0.99671 0.49591 0.0
C2837 C 0.24147 0.99585 0.5122 0.0
C2838 C 1.00157 0.77761 0.73144 0.0
C2839 C 0.02652 0.76628 0.7355 0.0
C2840 C 0.97875 0.76196 0.7302 0.0
C2841 C 0.98002 0.73432 0.73239 0.0
H2842 H 0.99962 0.79879 0.72997 0.0
H2843 H 0.95989 0.77156 0.72759 0.0
S2844 S 0.04069 0.69485 0.74153 0.0
N2845 N 0.05123 0.7256 0.74051 0.0
N2846 N 0.00837 0.6963 0.73798 0.0
C2847 C 0.00491 0.7227 0.73558 0.0
C2848 C 0.02812 0.73864 0.73724 0.0
C2849 C 0.99678 0.73351 0.5276 0.0
C2850 C 0.02449 0.73544 0.52723 0.0
C2851 C 0.98072 0.75607 0.52858 0.0
C2852 C 0.99177 0.78143 0.52857 0.0
H2853 H 0.98746 0.71435 0.52681 0.0
H2854 H 0.95952 0.75374 0.52824 0.0
S2855 S 0.06302 0.79735 0.5294 0.0
N2856 N 0.06214 0.76484 0.52848 0.0
N2857 N 0.032 0.80721 0.52959 0.0
C2858 C 0.01938 0.78365 0.52895 0.0
C2859 C 0.03573 0.76068 0.52852 0.0
C2860 C 0.01627 0.24576 0.74778 0.0
C2861 C 0.02666 0.23627 0.77169 0.0
C2862 C 0.99426 0.26248 0.7472 0.0
C2863 C 0.98183 0.27085 0.77053 0.0
H2864 H 0.02525 0.24012 0.72927 0.0
H2865 H 0.98705 0.26919 0.72827 0.0
S2866 S 1.00113 0.25169 0.83845 0.0
N2867 N 0.02275 0.23652 0.81942 0.0
N2868 N 0.98131 0.26792 0.81835 0.0
C2869 C 0.99195 0.26153 0.79466 0.0
C2870 C 0.01429 0.2442 0.79523 0.0
C2871 C 0.51662 0.72846 0.47984 0.0
C2872 C 0.48885 0.72974 0.48024 0.0
C2873 C 0.53219 0.75138 0.48004 0.0
C2874 C 0.52062 0.77649 0.48113 0.0
H2875 H 0.52642 0.70954 0.47944 0.0
H2876 H 0.55343 0.74945 0.48015 0.0
S2877 S 0.44894 0.79087 0.48079 0.0
N2878 N 0.45058 0.75839 0.48055 0.0
N2879 N 0.47972 0.80136 0.48087 0.0
C2880 C 0.49292 0.7781 0.48079 0.0
C2881 C 0.47708 0.75478 0.48031 0.0
C2882 C 0.71178 0.9947 0.74411 0.0
C2883 C 0.73537 0.9833 0.7349 0.0
C2884 C 0.71208 0.01678 0.76107 0.0
C2885 C 0.73596 0.0285 0.76909 0.0
H2886 H 0.69304 0.98614 0.7386 0.0
H2887 H 0.69353 0.025 0.76761 0.0
S2888 S 0.80301 0.00635 0.75024 0.0
N2889 N 0.78312 0.98578 0.73482 0.0
N2890 N 0.78369 0.02668 0.76666 0.0
C2891 C 0.75957 0.0173 0.75987 0.0
C2892 C 0.75927 0.99489 0.74282 0.0
C2893 C 0.25608 0.98197 0.02727 0.0
C2894 C 0.28067 0.97902 0.01495 0.0
C2895 C 0.23271 0.98309 0.01242 0.0
C2896 C 0.23296 0.98089 0.98469 0.0
H2897 H 0.25502 0.98426 0.04846 0.0
H2898 H 0.21426 0.98579 0.02276 0.0
S2899 S 0.29221 0.97049 0.94323 0.0
N2900 N 0.30379 0.97213 0.97361 0.0
N2901 N 0.26001 0.97431 0.94576 0.0
C2902 C 0.25738 0.9769 0.97227 0.0
C2903 C 0.28118 0.97601 0.98736 0.0
loop_
_geom_bond_atom_site_label_1
_geom_bond_atom_site_label_2
_geom_bond_distance
_geom_bond_site_symmetry_2
_ccdc_geom_bond_type
C0 C1 1.351 . S
C0 N3 1.368 . S
C0 H5 0.931 . S
C1 C0 1.351 . S
C1 N2 1.373 . S
C1 H29 0.930 . S
N2 C1 1.373 . S
N2 C4 1.340 . S
N3 C0 1.368 . S
N3 C4 1.321 . S
N3 Co6 2.135 . S
C4 N2 1.340 . S
C4 N3 1.321 . S
C4 H28 0.930 . S
H5 C0 0.931 . S
Co6 N3 2.135 . S
Co6 N9 2.121 . S
Co6 O14 2.055 . S
Co6 O17 2.039 . S
Co6 N20 2.140 . S
C7 O8 1.227 . S
C7 O17 1.265 . S
O8 C7 1.227 . S
N9 Co6 2.121 . S
N9 C11 1.375 . S
N9 C12 1.313 . S
C10 C11 1.338 . S
C10 N13 1.377 . S
C10 H30 0.930 . S
C11 N9 1.375 . S
C11 C10 1.338 . S
C11 H15 0.931 . S
C12 N9 1.313 . S
C12 N13 1.344 . S
C12 H16 0.930 . S
N13 C10 1.377 . S
N13 C12 1.344 . S
O14 Co6 2.055 . S
O14 C18 1.253 . S
H15 C11 0.931 . S
H16 C12 0.930 . S
O17 Co6 2.039 . S
O17 C7 1.265 . S
C18 O14 1.253 . S
C18 O19 1.227 . S
O19 C18 1.227 . S
N20 Co6 2.140 . S
N20 C23 1.346 . S
N20 C24 1.345 . S
C21 C22 1.387 . S
C21 C25 1.391 . S
C22 C21 1.387 . S
C22 C23 1.369 . S
C22 H31 0.929 . S
C23 N20 1.346 . S
C23 C22 1.369 . S
C23 H26 0.928 . S
C24 N20 1.345 . S
C24 C25 1.371 . S
C24 H27 0.931 . S
C25 C21 1.391 . S
C25 C24 1.371 . S
C25 H32 0.930 . S
H26 C23 0.928 . S
H27 C24 0.931 . S
H28 C4 0.930 . S
H29 C1 0.930 . S
H30 C10 0.930 . S
H31 C22 0.929 . S
H32 C25 0.930 . S
C33 C34 1.351 . S
C33 N36 1.368 . S
C33 H38 0.931 . S
C34 C33 1.351 . S
C34 N35 1.373 . S
C34 H62 0.930 . S
N35 C34 1.373 . S
N35 C37 1.340 . S
N36 C33 1.368 . S
N36 C37 1.321 . S
N36 Co39 2.135 . S
C37 N35 1.340 . S
C37 N36 1.321 . S
C37 H61 0.930 . S
H38 C33 0.931 . S
Co39 N36 2.135 . S
Co39 N42 2.121 . S
Co39 O47 2.055 . S
Co39 O50 2.039 . S
Co39 N53 2.140 . S
C40 O41 1.227 . S
C40 O50 1.265 . S
O41 C40 1.227 . S
N42 Co39 2.121 . S
N42 C44 1.375 . S
N42 C45 1.313 . S
C43 C44 1.338 . S
C43 N46 1.377 . S
C43 H63 0.930 . S
C44 N42 1.375 . S
C44 C43 1.338 . S
C44 H48 0.931 . S
C45 N42 1.313 . S
C45 N46 1.344 . S
C45 H49 0.930 . S
N46 C43 1.377 . S
N46 C45 1.344 . S
O47 Co39 2.055 . S
O47 C51 1.253 . S
H48 C44 0.931 . S
H49 C45 0.930 . S
O50 Co39 2.039 . S
O50 C40 1.265 . S
C51 O47 1.253 . S
C51 O52 1.227 . S
O52 C51 1.227 . S
N53 Co39 2.140 . S
N53 C56 1.346 . S
N53 C57 1.345 . S
C54 C55 1.387 . S
C54 C58 1.391 . S
C55 C54 1.387 . S
C55 C56 1.369 . S
C55 H64 0.929 . S
C56 N53 1.346 . S
C56 C55 1.369 . S
C56 H59 0.928 . S
C57 N53 1.345 . S
C57 C58 1.371 . S
C57 H60 0.931 . S
C58 C54 1.391 . S
C58 C57 1.371 . S
C58 H65 0.930 . S
H59 C56 0.928 . S
H60 C57 0.931 . S
H61 C37 0.930 . S
H62 C34 0.930 . S
H63 C43 0.930 . S
H64 C55 0.929 . S
H65 C58 0.930 . S
C66 C67 1.351 . S
C66 N69 1.368 . S
C66 H71 0.931 . S
C67 C66 1.351 . S
C67 N68 1.373 . S
C67 H95 0.930 . S
N68 C67 1.373 . S
N68 C70 1.340 . S
N69 C66 1.368 . S
N69 C70 1.321 . S
N69 Co72 2.135 . S
C70 N68 1.340 . S
C70 N69 1.321 . S
C70 H94 0.930 . S
H71 C66 0.931 . S
Co72 N69 2.135 . S
Co72 N75 2.121 . S
Co72 O80 2.055 . S
Co72 O83 2.039 . S
Co72 N86 2.140 . S
C73 O74 1.227 . S
C73 O83 1.265 . S
O74 C73 1.227 . S
N75 Co72 2.121 . S
N75 C77 1.375 . S
N75 C78 1.313 . S
C76 C77 1.338 . S
C76 N79 1.377 . S
C76 H96 0.930 . S
C77 N75 1.375 . S
C77 C76 1.338 . S
C77 H81 0.931 . S
C78 N75 1.313 . S
C78 N79 1.344 . S
C78 H82 0.930 . S
N79 C76 1.377 . S
N79 C78 1.344 . S
O80 Co72 2.055 . S
O80 C84 1.253 . S
H81 C77 0.931 . S
H82 C78 0.930 . S
O83 Co72 2.039 . S
O83 C73 1.265 . S
C84 O80 1.253 . S
C84 O85 1.227 . S
O85 C84 1.227 . S
N86 Co72 2.140 . S
N86 C89 1.346 . S
N86 C90 1.345 . S
C87 C88 1.387 . S
C87 C91 1.391 . S
C88 C87 1.387 . S
C88 C89 1.369 . S
C88 H97 0.929 . S
C89 N86 1.346 . S
C89 C88 1.369 . S
C89 H92 0.928 . S
C90 N86 1.345 . S
C90 C91 1.371 . S
C90 H93 0.931 . S
C91 C87 1.391 . S
C91 C90 1.371 . S
C91 H98 0.930 . S
H92 C89 0.928 . S
H93 C90 0.931 . S
H94 C70 0.930 . S
H95 C67 0.930 . S
H96 C76 0.930 . S
H97 C88 0.929 . S
H98 C91 0.930 . S
C99 C100 1.351 . S
C99 N102 1.368 . S
C99 H104 0.931 . S
C100 C99 1.351 . S
C100 N101 1.373 . S
C100 H128 0.930 . S
N101 C100 1.373 . S
N101 C103 1.340 . S
N102 C99 1.368 . S
N102 C103 1.321 . S
N102 Co105 2.135 . S
C103 N101 1.340 . S
C103 N102 1.321 . S
C103 H127 0.930 . S
H104 C99 0.931 . S
Co105 N102 2.135 . S
Co105 N108 2.121 . S
Co105 O113 2.055 . S
Co105 O116 2.039 . S
Co105 N119 2.140 . S
C106 O107 1.227 . S
C106 O116 1.265 . S
O107 C106 1.227 . S
N108 Co105 2.121 . S
N108 C110 1.375 . S
N108 C111 1.313 . S
C109 C110 1.338 . S
C109 N112 1.377 . S
C109 H129 0.930 . S
C110 N108 1.375 . S
C110 C109 1.338 . S
C110 H114 0.931 . S
C111 N108 1.313 . S
C111 N112 1.344 . S
C111 H115 0.930 . S
N112 C109 1.377 . S
N112 C111 1.344 . S
O113 Co105 2.055 . S
O113 C117 1.253 . S
H114 C110 0.931 . S
H115 C111 0.930 . S
O116 Co105 2.039 . S
O116 C106 1.265 . S
C117 O113 1.253 . S
C117 O118 1.227 . S
O118 C117 1.227 . S
N119 Co105 2.140 . S
N119 C122 1.346 . S
N119 C123 1.345 . S
C120 C121 1.387 . S
C120 C124 1.391 . S
C121 C120 1.387 . S
C121 C122 1.369 . S
C121 H130 0.929 . S
C122 N119 1.346 . S
C122 C121 1.369 . S
C122 H125 0.928 . S
C123 N119 1.345 . S
C123 C124 1.371 . S
C123 H126 0.931 . S
C124 C120 1.391 . S
C124 C123 1.371 . S
C124 H131 0.930 . S
H125 C122 0.928 . S
H126 C123 0.931 . S
H127 C103 0.930 . S
H128 C100 0.930 . S
H129 C109 0.930 . S
H130 C121 0.929 . S
H131 C124 0.930 . S
C132 C133 1.351 . S
C132 N135 1.368 . S
C132 H137 0.931 . S
C133 C132 1.351 . S
C133 N134 1.373 . S
C133 H161 0.930 . S
N134 C133 1.373 . S
N134 C136 1.340 . S
N135 C132 1.368 . S
N135 C136 1.321 . S
N135 Co138 2.135 . S
C136 N134 1.340 . S
C136 N135 1.321 . S
C136 H160 0.930 . S
H137 C132 0.931 . S
Co138 N135 2.135 . S
Co138 N141 2.121 . S
Co138 O146 2.055 . S
Co138 O149 2.039 . S
Co138 N152 2.140 . S
C139 O140 1.227 . S
C139 O149 1.265 . S
O140 C139 1.227 . S
N141 Co138 2.121 . S
N141 C143 1.375 . S
N141 C144 1.313 . S
C142 C143 1.338 . S
C142 N145 1.377 . S
C142 H162 0.930 . S
C143 N141 1.375 . S
C143 C142 1.338 . S
C143 H147 0.931 . S
C144 N141 1.313 . S
C144 N145 1.344 . S
C144 H148 0.930 . S
N145 C142 1.377 . S
N145 C144 1.344 . S
O146 Co138 2.055 . S
O146 C150 1.253 . S
H147 C143 0.931 . S
H148 C144 0.930 . S
O149 Co138 2.039 . S
O149 C139 1.265 . S
C150 O146 1.253 . S
C150 O151 1.227 . S
O151 C150 1.227 . S
N152 Co138 2.140 . S
N152 C155 1.346 . S
N152 C156 1.345 . S
C153 C154 1.387 . S
C153 C157 1.391 . S
C154 C153 1.387 . S
C154 C155 1.369 . S
C154 H163 0.929 . S
C155 N152 1.346 . S
C155 C154 1.369 . S
C155 H158 0.928 . S
C156 N152 1.345 . S
C156 C157 1.371 . S
C156 H159 0.931 . S
C157 C153 1.391 . S
C157 C156 1.371 . S
C157 H164 0.930 . S
H158 C155 0.928 . S
H159 C156 0.931 . S
H160 C136 0.930 . S
H161 C133 0.930 . S
H162 C142 0.930 . S
H163 C154 0.929 . S
H164 C157 0.930 . S
C165 C166 1.351 . S
C165 N168 1.368 . S
C165 H170 0.931 . S
C166 C165 1.351 . S
C166 N167 1.373 . S
C166 H194 0.930 . S
N167 C166 1.373 . S
N167 C169 1.340 . S
N168 C165 1.368 . S
N168 C169 1.321 . S
N168 Co171 2.135 . S
C169 N167 1.340 . S
C169 N168 1.321 . S
C169 H193 0.930 . S
H170 C165 0.931 . S
Co171 N168 2.135 . S
Co171 N174 2.121 . S
Co171 O179 2.055 . S
Co171 O182 2.039 . S
Co171 N185 2.140 . S
C172 O173 1.227 . S
C172 O182 1.265 . S
O173 C172 1.227 . S
N174 Co171 2.121 . S
N174 C176 1.375 . S
N174 C177 1.313 . S
C175 C176 1.338 . S
C175 N178 1.377 . S
C175 H195 0.930 . S
C176 N174 1.375 . S
C176 C175 1.338 . S
C176 H180 0.931 . S
C177 N174 1.313 . S
C177 N178 1.344 . S
C177 H181 0.930 . S
N178 C175 1.377 . S
N178 C177 1.344 . S
O179 Co171 2.055 . S
O179 C183 1.253 . S
H180 C176 0.931 . S
H181 C177 0.930 . S
O182 Co171 2.039 . S
O182 C172 1.265 . S
C183 O179 1.253 . S
C183 O184 1.227 . S
O184 C183 1.227 . S
N185 Co171 2.140 . S
N185 C188 1.346 . S
N185 C189 1.345 . S
C186 C187 1.387 . S
C186 C190 1.391 . S
C187 C186 1.387 . S
C187 C188 1.369 . S
C187 H196 0.929 . S
C188 N185 1.346 . S
C188 C187 1.369 . S
C188 H191 0.928 . S
C189 N185 1.345 . S
C189 C190 1.371 . S
C189 H192 0.931 . S
C190 C186 1.391 . S
C190 C189 1.371 . S
C190 H197 0.930 . S
H191 C188 0.928 . S
H192 C189 0.931 . S
H193 C169 0.930 . S
H194 C166 0.930 . S
H195 C175 0.930 . S
H196 C187 0.929 . S
H197 C190 0.930 . S
C198 C199 1.351 . S
C198 N201 1.368 . S
C198 H203 0.931 . S
C199 C198 1.351 . S
C199 N200 1.373 . S
C199 H227 0.930 . S
N200 C199 1.373 . S
N200 C202 1.340 . S
N201 C198 1.368 . S
N201 C202 1.321 . S
N201 Co204 2.135 . S
C202 N200 1.340 . S
C202 N201 1.321 . S
C202 H226 0.930 . S
H203 C198 0.931 . S
Co204 N201 2.135 . S
Co204 N207 2.121 . S
Co204 O212 2.055 . S
Co204 O215 2.039 . S
Co204 N218 2.140 . S
C205 O206 1.227 . S
C205 O215 1.265 . S
O206 C205 1.227 . S
N207 Co204 2.121 . S
N207 C209 1.375 . S
N207 C210 1.313 . S
C208 C209 1.338 . S
C208 N211 1.377 . S
C208 H228 0.930 . S
C209 N207 1.375 . S
C209 C208 1.338 . S
C209 H213 0.931 . S
C210 N207 1.313 . S
C210 N211 1.344 . S
C210 H214 0.930 . S
N211 C208 1.377 . S
N211 C210 1.344 . S
O212 Co204 2.055 . S
O212 C216 1.253 . S
H213 C209 0.931 . S
H214 C210 0.930 . S
O215 Co204 2.039 . S
O215 C205 1.265 . S
C216 O212 1.253 . S
C216 O217 1.227 . S
O217 C216 1.227 . S
N218 Co204 2.140 . S
N218 C221 1.346 . S
N218 C222 1.345 . S
C219 C220 1.387 . S
C219 C223 1.391 . S
C220 C219 1.387 . S
C220 C221 1.369 . S
C220 H229 0.929 . S
C221 N218 1.346 . S
C221 C220 1.369 . S
C221 H224 0.928 . S
C222 N218 1.345 . S
C222 C223 1.371 . S
C222 H225 0.931 . S
C223 C219 1.391 . S
C223 C222 1.371 . S
C223 H230 0.930 . S
H224 C221 0.928 . S
H225 C222 0.931 . S
H226 C202 0.930 . S
H227 C199 0.930 . S
H228 C208 0.930 . S
H229 C220 0.929 . S
H230 C223 0.930 . S
C231 C232 1.351 . S
C231 N234 1.368 . S
C231 H236 0.931 . S
C232 C231 1.351 . S
C232 N233 1.373 . S
C232 H260 0.930 . S
N233 C232 1.373 . S
N233 C235 1.340 . S
N234 C231 1.368 . S
N234 C235 1.321 . S
N234 Co237 2.135 . S
C235 N233 1.340 . S
C235 N234 1.321 . S
C235 H259 0.930 . S
H236 C231 0.931 . S
Co237 N234 2.135 . S
Co237 N240 2.121 . S
Co237 O245 2.055 . S
Co237 O248 2.039 . S
Co237 N251 2.140 . S
C238 O239 1.227 . S
C238 O248 1.265 . S
O239 C238 1.227 . S
N240 Co237 2.121 . S
N240 C242 1.375 . S
N240 C243 1.313 . S
C241 C242 1.338 . S
C241 N244 1.377 . S
C241 H261 0.930 . S
C242 N240 1.375 . S
C242 C241 1.338 . S
C242 H246 0.931 . S
C243 N240 1.313 . S
C243 N244 1.344 . S
C243 H247 0.930 . S
N244 C241 1.377 . S
N244 C243 1.344 . S
O245 Co237 2.055 . S
O245 C249 1.253 . S
H246 C242 0.931 . S
H247 C243 0.930 . S
O248 Co237 2.039 . S
O248 C238 1.265 . S
C249 O245 1.253 . S
C249 O250 1.227 . S
O250 C249 1.227 . S
N251 Co237 2.140 . S
N251 C254 1.346 . S
N251 C255 1.345 . S
C252 C253 1.387 . S
C252 C256 1.391 . S
C253 C252 1.387 . S
C253 C254 1.369 . S
C253 H262 0.929 . S
C254 N251 1.346 . S
C254 C253 1.369 . S
C254 H257 0.928 . S
C255 N251 1.345 . S
C255 C256 1.371 . S
C255 H258 0.931 . S
C256 C252 1.391 . S
C256 C255 1.371 . S
C256 H263 0.930 . S
H257 C254 0.928 . S
H258 C255 0.931 . S
H259 C235 0.930 . S
H260 C232 0.930 . S
H261 C241 0.930 . S
H262 C253 0.929 . S
H263 C256 0.930 . S
C264 C265 1.351 . S
C264 N267 1.368 . S
C264 H269 0.931 . S
C265 C264 1.351 . S
C265 N266 1.373 . S
C265 H293 0.930 . S
N266 C265 1.373 . S
N266 C268 1.340 . S
N267 C264 1.368 . S
N267 C268 1.321 . S
N267 Co270 2.135 . S
C268 N266 1.340 . S
C268 N267 1.321 . S
C268 H292 0.930 . S
H269 C264 0.931 . S
Co270 N267 2.135 . S
Co270 N273 2.121 . S
Co270 O278 2.055 . S
Co270 O281 2.039 . S
Co270 N284 2.140 . S
C271 O272 1.227 . S
C271 O281 1.265 . S
O272 C271 1.227 . S
N273 Co270 2.121 . S
N273 C275 1.375 . S
N273 C276 1.313 . S
C274 C275 1.338 . S
C274 N277 1.377 . S
C274 H294 0.930 . S
C275 N273 1.375 . S
C275 C274 1.338 . S
C275 H279 0.931 . S
C276 N273 1.313 . S
C276 N277 1.344 . S
C276 H280 0.930 . S
N277 C274 1.377 . S
N277 C276 1.344 . S
O278 Co270 2.055 . S
O278 C282 1.253 . S
H279 C275 0.931 . S
H280 C276 0.930 . S
O281 Co270 2.039 . S
O281 C271 1.265 . S
C282 O278 1.253 . S
C282 O283 1.227 . S
O283 C282 1.227 . S
N284 Co270 2.140 . S
N284 C287 1.346 . S
N284 C288 1.345 . S
C285 C286 1.387 . S
C285 C289 1.391 . S
C286 C285 1.387 . S
C286 C287 1.369 . S
C286 H295 0.929 . S
C287 N284 1.346 . S
C287 C286 1.369 . S
C287 H290 0.928 . S
C288 N284 1.345 . S
C288 C289 1.371 . S
C288 H291 0.931 . S
C289 C285 1.391 . S
C289 C288 1.371 . S
C289 H296 0.930 . S
H290 C287 0.928 . S
H291 C288 0.931 . S
H292 C268 0.930 . S
H293 C265 0.930 . S
H294 C274 0.930 . S
H295 C286 0.929 . S
H296 C289 0.930 . S
C297 C298 1.351 . S
C297 N300 1.368 . S
C297 H302 0.931 . S
C298 C297 1.351 . S
C298 N299 1.373 . S
C298 H326 0.930 . S
N299 C298 1.373 . S
N299 C301 1.340 . S
N300 C297 1.368 . S
N300 C301 1.321 . S
N300 Co303 2.135 . S
C301 N299 1.340 . S
C301 N300 1.321 . S
C301 H325 0.930 . S
H302 C297 0.931 . S
Co303 N300 2.135 . S
Co303 N306 2.121 . S
Co303 O311 2.055 . S
Co303 O314 2.039 . S
Co303 N317 2.140 . S
C304 O305 1.227 . S
C304 O314 1.265 . S
O305 C304 1.227 . S
N306 Co303 2.121 . S
N306 C308 1.375 . S
N306 C309 1.313 . S
C307 C308 1.338 . S
C307 N310 1.377 . S
C307 H327 0.930 . S
C308 N306 1.375 . S
C308 C307 1.338 . S
C308 H312 0.931 . S
C309 N306 1.313 . S
C309 N310 1.344 . S
C309 H313 0.930 . S
N310 C307 1.377 . S
N310 C309 1.344 . S
O311 Co303 2.055 . S
O311 C315 1.253 . S
H312 C308 0.931 . S
H313 C309 0.930 . S
O314 Co303 2.039 . S
O314 C304 1.265 . S
C315 O311 1.253 . S
C315 O316 1.227 . S
O316 C315 1.227 . S
N317 Co303 2.140 . S
N317 C320 1.346 . S
N317 C321 1.345 . S
C318 C319 1.387 . S
C318 C322 1.391 . S
C319 C318 1.387 . S
C319 C320 1.369 . S
C319 H328 0.929 . S
C320 N317 1.346 . S
C320 C319 1.369 . S
C320 H323 0.928 . S
C321 N317 1.345 . S
C321 C322 1.371 . S
C321 H324 0.931 . S
C322 C318 1.391 . S
C322 C321 1.371 . S
C322 H329 0.930 . S
H323 C320 0.928 . S
H324 C321 0.931 . S
H325 C301 0.930 . S
H326 C298 0.930 . S
H327 C307 0.930 . S
H328 C319 0.929 . S
H329 C322 0.930 . S
C330 C331 1.351 . S
C330 N333 1.368 . S
C330 H335 0.931 . S
C331 C330 1.351 . S
C331 N332 1.373 . S
C331 H359 0.930 . S
N332 C331 1.373 . S
N332 C334 1.340 . S
N333 C330 1.368 . S
N333 C334 1.321 . S
N333 Co336 2.135 . S
C334 N332 1.340 . S
C334 N333 1.321 . S
C334 H358 0.930 . S
H335 C330 0.931 . S
Co336 N333 2.135 . S
Co336 N339 2.121 . S
Co336 O344 2.055 . S
Co336 O347 2.039 . S
Co336 N350 2.140 . S
C337 O338 1.227 . S
C337 O347 1.265 . S
O338 C337 1.227 . S
N339 Co336 2.121 . S
N339 C341 1.375 . S
N339 C342 1.313 . S
C340 C341 1.338 . S
C340 N343 1.377 . S
C340 H360 0.930 . S
C341 N339 1.375 . S
C341 C340 1.338 . S
C341 H345 0.931 . S
C342 N339 1.313 . S
C342 N343 1.344 . S
C342 H346 0.930 . S
N343 C340 1.377 . S
N343 C342 1.344 . S
O344 Co336 2.055 . S
O344 C348 1.253 . S
H345 C341 0.931 . S
H346 C342 0.930 . S
O347 Co336 2.039 . S
O347 C337 1.265 . S
C348 O344 1.253 . S
C348 O349 1.227 . S
O349 C348 1.227 . S
N350 Co336 2.140 . S
N350 C353 1.346 . S
N350 C354 1.345 . S
C351 C352 1.387 . S
C351 C355 1.391 . S
C352 C351 1.387 . S
C352 C353 1.369 . S
C352 H361 0.929 . S
C353 N350 1.346 . S
C353 C352 1.369 . S
C353 H356 0.928 . S
C354 N350 1.345 . S
C354 C355 1.371 . S
C354 H357 0.931 . S
C355 C351 1.391 . S
C355 C354 1.371 . S
C355 H362 0.930 . S
H356 C353 0.928 . S
H357 C354 0.931 . S
H358 C334 0.930 . S
H359 C331 0.930 . S
H360 C340 0.930 . S
H361 C352 0.929 . S
H362 C355 0.930 . S
C363 C364 1.351 . S
C363 N366 1.368 . S
C363 H368 0.931 . S
C364 C363 1.351 . S
C364 N365 1.373 . S
C364 H392 0.930 . S
N365 C364 1.373 . S
N365 C367 1.340 . S
N366 C363 1.368 . S
N366 C367 1.321 . S
N366 Co369 2.135 . S
C367 N365 1.340 . S
C367 N366 1.321 . S
C367 H391 0.930 . S
H368 C363 0.931 . S
Co369 N366 2.135 . S
Co369 N372 2.121 . S
Co369 O377 2.055 . S
Co369 O380 2.039 . S
Co369 N383 2.140 . S
C370 O371 1.227 . S
C370 O380 1.265 . S
O371 C370 1.227 . S
N372 Co369 2.121 . S
N372 C374 1.375 . S
N372 C375 1.313 . S
C373 C374 1.338 . S
C373 N376 1.377 . S
C373 H393 0.930 . S
C374 N372 1.375 . S
C374 C373 1.338 . S
C374 H378 0.931 . S
C375 N372 1.313 . S
C375 N376 1.344 . S
C375 H379 0.930 . S
N376 C373 1.377 . S
N376 C375 1.344 . S
O377 Co369 2.055 . S
O377 C381 1.253 . S
H378 C374 0.931 . S
H379 C375 0.930 . S
O380 Co369 2.039 . S
O380 C370 1.265 . S
C381 O377 1.253 . S
C381 O382 1.227 . S
O382 C381 1.227 . S
N383 Co369 2.140 . S
N383 C386 1.346 . S
N383 C387 1.345 . S
C384 C385 1.387 . S
C384 C388 1.391 . S
C385 C384 1.387 . S
C385 C386 1.369 . S
C385 H394 0.929 . S
C386 N383 1.346 . S
C386 C385 1.369 . S
C386 H389 0.928 . S
C387 N383 1.345 . S
C387 C388 1.371 . S
C387 H390 0.931 . S
C388 C384 1.391 . S
C388 C387 1.371 . S
C388 H395 0.930 . S
H389 C386 0.928 . S
H390 C387 0.931 . S
H391 C367 0.930 . S
H392 C364 0.930 . S
H393 C373 0.930 . S
H394 C385 0.929 . S
H395 C388 0.930 . S
C396 C397 1.351 . S
C396 N399 1.368 . S
C396 H401 0.931 . S
C397 C396 1.351 . S
C397 N398 1.373 . S
C397 H425 0.930 . S
N398 C397 1.373 . S
N398 C400 1.340 . S
N399 C396 1.368 . S
N399 C400 1.321 . S
N399 Co402 2.135 . S
C400 N398 1.340 . S
C400 N399 1.321 . S
C400 H424 0.930 . S
H401 C396 0.931 . S
Co402 N399 2.135 . S
Co402 N405 2.121 . S
Co402 O410 2.055 . S
Co402 O413 2.039 . S
Co402 N416 2.140 . S
C403 O404 1.227 . S
C403 O413 1.265 . S
O404 C403 1.227 . S
N405 Co402 2.121 . S
N405 C407 1.375 . S
N405 C408 1.313 . S
C406 C407 1.338 . S
C406 N409 1.377 . S
C406 H426 0.930 . S
C407 N405 1.375 . S
C407 C406 1.338 . S
C407 H411 0.931 . S
C408 N405 1.313 . S
C408 N409 1.344 . S
C408 H412 0.930 . S
N409 C406 1.377 . S
N409 C408 1.344 . S
O410 Co402 2.055 . S
O410 C414 1.253 . S
H411 C407 0.931 . S
H412 C408 0.930 . S
O413 Co402 2.039 . S
O413 C403 1.265 . S
C414 O410 1.253 . S
C414 O415 1.227 . S
O415 C414 1.227 . S
N416 Co402 2.140 . S
N416 C419 1.346 . S
N416 C420 1.345 . S
C417 C418 1.387 . S
C417 C421 1.391 . S
C418 C417 1.387 . S
C418 C419 1.369 . S
C418 H427 0.929 . S
C419 N416 1.346 . S
C419 C418 1.369 . S
C419 H422 0.928 . S
C420 N416 1.345 . S
C420 C421 1.371 . S
C420 H423 0.931 . S
C421 C417 1.391 . S
C421 C420 1.371 . S
C421 H428 0.930 . S
H422 C419 0.928 . S
H423 C420 0.931 . S
H424 C400 0.930 . S
H425 C397 0.930 . S
H426 C406 0.930 . S
H427 C418 0.929 . S
H428 C421 0.930 . S
C429 C430 1.351 . S
C429 N432 1.368 . S
C429 H434 0.931 . S
C430 C429 1.351 . S
C430 N431 1.373 . S
C430 H458 0.930 . S
N431 C430 1.373 . S
N431 C433 1.340 . S
N432 C429 1.368 . S
N432 C433 1.321 . S
N432 Co435 2.135 . S
C433 N431 1.340 . S
C433 N432 1.321 . S
C433 H457 0.930 . S
H434 C429 0.931 . S
Co435 N432 2.135 . S
Co435 N438 2.121 . S
Co435 O443 2.055 . S
Co435 O446 2.039 . S
Co435 N449 2.140 . S
C436 O437 1.227 . S
C436 O446 1.265 . S
O437 C436 1.227 . S
N438 Co435 2.121 . S
N438 C440 1.375 . S
N438 C441 1.313 . S
C439 C440 1.338 . S
C439 N442 1.377 . S
C439 H459 0.930 . S
C440 N438 1.375 . S
C440 C439 1.338 . S
C440 H444 0.931 . S
C441 N438 1.313 . S
C441 N442 1.344 . S
C441 H445 0.930 . S
N442 C439 1.377 . S
N442 C441 1.344 . S
O443 Co435 2.055 . S
O443 C447 1.253 . S
H444 C440 0.931 . S
H445 C441 0.930 . S
O446 Co435 2.039 . S
O446 C436 1.265 . S
C447 O443 1.253 . S
C447 O448 1.227 . S
O448 C447 1.227 . S
N449 Co435 2.140 . S
N449 C452 1.346 . S
N449 C453 1.345 . S
C450 C451 1.387 . S
C450 C454 1.391 . S
C451 C450 1.387 . S
C451 C452 1.369 . S
C451 H460 0.929 . S
C452 N449 1.346 . S
C452 C451 1.369 . S
C452 H455 0.928 . S
C453 N449 1.345 . S
C453 C454 1.371 . S
C453 H456 0.931 . S
C454 C450 1.391 . S
C454 C453 1.371 . S
C454 H461 0.930 . S
H455 C452 0.928 . S
H456 C453 0.931 . S
H457 C433 0.930 . S
H458 C430 0.930 . S
H459 C439 0.930 . S
H460 C451 0.929 . S
H461 C454 0.930 . S
C462 C463 1.351 . S
C462 N465 1.368 . S
C462 H467 0.931 . S
C463 C462 1.351 . S
C463 N464 1.373 . S
C463 H491 0.930 . S
N464 C463 1.373 . S
N464 C466 1.340 . S
N465 C462 1.368 . S
N465 C466 1.321 . S
N465 Co468 2.135 . S
C466 N464 1.340 . S
C466 N465 1.321 . S
C466 H490 0.930 . S
H467 C462 0.931 . S
Co468 N465 2.135 . S
Co468 N471 2.121 . S
Co468 O476 2.055 . S
Co468 O479 2.039 . S
Co468 N482 2.140 . S
C469 O470 1.227 . S
C469 O479 1.265 . S
O470 C469 1.227 . S
N471 Co468 2.121 . S
N471 C473 1.375 . S
N471 C474 1.313 . S
C472 C473 1.338 . S
C472 N475 1.377 . S
C472 H492 0.930 . S
C473 N471 1.375 . S
C473 C472 1.338 . S
C473 H477 0.931 . S
C474 N471 1.313 . S
C474 N475 1.344 . S
C474 H478 0.930 . S
N475 C472 1.377 . S
N475 C474 1.344 . S
O476 Co468 2.055 . S
O476 C480 1.253 . S
H477 C473 0.931 . S
H478 C474 0.930 . S
O479 Co468 2.039 . S
O479 C469 1.265 . S
C480 O476 1.253 . S
C480 O481 1.227 . S
O481 C480 1.227 . S
N482 Co468 2.140 . S
N482 C485 1.346 . S
N482 C486 1.345 . S
C483 C484 1.387 . S
C483 C487 1.391 . S
C484 C483 1.387 . S
C484 C485 1.369 . S
C484 H493 0.929 . S
C485 N482 1.346 . S
C485 C484 1.369 . S
C485 H488 0.928 . S
C486 N482 1.345 . S
C486 C487 1.371 . S
C486 H489 0.931 . S
C487 C483 1.391 . S
C487 C486 1.371 . S
C487 H494 0.930 . S
H488 C485 0.928 . S
H489 C486 0.931 . S
H490 C466 0.930 . S
H491 C463 0.930 . S
H492 C472 0.930 . S
H493 C484 0.929 . S
H494 C487 0.930 . S
C495 C496 1.351 . S
C495 N498 1.368 . S
C495 H500 0.931 . S
C496 C495 1.351 . S
C496 N497 1.373 . S
C496 H524 0.930 . S
N497 C496 1.373 . S
N497 C499 1.340 . S
N498 C495 1.368 . S
N498 C499 1.321 . S
N498 Co501 2.135 . S
C499 N497 1.340 . S
C499 N498 1.321 . S
C499 H523 0.930 . S
H500 C495 0.931 . S
Co501 N498 2.135 . S
Co501 N504 2.121 . S
Co501 O509 2.055 . S
Co501 O512 2.039 . S
Co501 N515 2.140 . S
C502 O503 1.227 . S
C502 O512 1.265 . S
O503 C502 1.227 . S
N504 Co501 2.121 . S
N504 C506 1.375 . S
N504 C507 1.313 . S
C505 C506 1.338 . S
C505 N508 1.377 . S
C505 H525 0.930 . S
C506 N504 1.375 . S
C506 C505 1.338 . S
C506 H510 0.931 . S
C507 N504 1.313 . S
C507 N508 1.344 . S
C507 H511 0.930 . S
N508 C505 1.377 . S
N508 C507 1.344 . S
O509 Co501 2.055 . S
O509 C513 1.253 . S
H510 C506 0.931 . S
H511 C507 0.930 . S
O512 Co501 2.039 . S
O512 C502 1.265 . S
C513 O509 1.253 . S
C513 O514 1.227 . S
O514 C513 1.227 . S
N515 Co501 2.140 . S
N515 C518 1.346 . S
N515 C519 1.345 . S
C516 C517 1.387 . S
C516 C520 1.391 . S
C517 C516 1.387 . S
C517 C518 1.369 . S
C517 H526 0.929 . S
C518 N515 1.346 . S
C518 C517 1.369 . S
C518 H521 0.928 . S
C519 N515 1.345 . S
C519 C520 1.371 . S
C519 H522 0.931 . S
C520 C516 1.391 . S
C520 C519 1.371 . S
C520 H527 0.930 . S
H521 C518 0.928 . S
H522 C519 0.931 . S
H523 C499 0.930 . S
H524 C496 0.930 . S
H525 C505 0.930 . S
H526 C517 0.929 . S
H527 C520 0.930 . S
C528 C529 1.351 . S
C528 N531 1.368 . S
C528 H533 0.931 . S
C529 C528 1.351 . S
C529 N530 1.373 . S
C529 H557 0.930 . S
N530 C529 1.373 . S
N530 C532 1.340 . S
N531 C528 1.368 . S
N531 C532 1.321 . S
N531 Co534 2.135 . S
C532 N530 1.340 . S
C532 N531 1.321 . S
C532 H556 0.930 . S
H533 C528 0.931 . S
Co534 N531 2.135 . S
Co534 N537 2.121 . S
Co534 O542 2.055 . S
Co534 O545 2.039 . S
Co534 N548 2.140 . S
C535 O536 1.227 . S
C535 O545 1.265 . S
O536 C535 1.227 . S
N537 Co534 2.121 . S
N537 C539 1.375 . S
N537 C540 1.313 . S
C538 C539 1.338 . S
C538 N541 1.377 . S
C538 H558 0.930 . S
C539 N537 1.375 . S
C539 C538 1.338 . S
C539 H543 0.931 . S
C540 N537 1.313 . S
C540 N541 1.344 . S
C540 H544 0.930 . S
N541 C538 1.377 . S
N541 C540 1.344 . S
O542 Co534 2.055 . S
O542 C546 1.253 . S
H543 C539 0.931 . S
H544 C540 0.930 . S
O545 Co534 2.039 . S
O545 C535 1.265 . S
C546 O542 1.253 . S
C546 O547 1.227 . S
O547 C546 1.227 . S
N548 Co534 2.140 . S
N548 C551 1.346 . S
N548 C552 1.345 . S
C549 C550 1.387 . S
C549 C553 1.391 . S
C550 C549 1.387 . S
C550 C551 1.369 . S
C550 H559 0.929 . S
C551 N548 1.346 . S
C551 C550 1.369 . S
C551 H554 0.928 . S
C552 N548 1.345 . S
C552 C553 1.371 . S
C552 H555 0.931 . S
C553 C549 1.391 . S
C553 C552 1.371 . S
C553 H560 0.930 . S
H554 C551 0.928 . S
H555 C552 0.931 . S
H556 C532 0.930 . S
H557 C529 0.930 . S
H558 C538 0.930 . S
H559 C550 0.929 . S
H560 C553 0.930 . S
C561 C562 1.351 . S
C561 N564 1.368 . S
C561 H566 0.931 . S
C562 C561 1.351 . S
C562 N563 1.373 . S
C562 H590 0.930 . S
N563 C562 1.373 . S
N563 C565 1.340 . S
N564 C561 1.368 . S
N564 C565 1.321 . S
N564 Co567 2.135 . S
C565 N563 1.340 . S
C565 N564 1.321 . S
C565 H589 0.930 . S
H566 C561 0.931 . S
Co567 N564 2.135 . S
Co567 N570 2.121 . S
Co567 O575 2.055 . S
Co567 O578 2.039 . S
Co567 N581 2.140 . S
C568 O569 1.227 . S
C568 O578 1.265 . S
O569 C568 1.227 . S
N570 Co567 2.121 . S
N570 C572 1.375 . S
N570 C573 1.313 . S
C571 C572 1.338 . S
C571 N574 1.377 . S
C571 H591 0.930 . S
C572 N570 1.375 . S
C572 C571 1.338 . S
C572 H576 0.931 . S
C573 N570 1.313 . S
C573 N574 1.344 . S
C573 H577 0.930 . S
N574 C571 1.377 . S
N574 C573 1.344 . S
O575 Co567 2.055 . S
O575 C579 1.253 . S
H576 C572 0.931 . S
H577 C573 0.930 . S
O578 Co567 2.039 . S
O578 C568 1.265 . S
C579 O575 1.253 . S
C579 O580 1.227 . S
O580 C579 1.227 . S
N581 Co567 2.140 . S
N581 C584 1.346 . S
N581 C585 1.345 . S
C582 C583 1.387 . S
C582 C586 1.391 . S
C583 C582 1.387 . S
C583 C584 1.369 . S
C583 H592 0.929 . S
C584 N581 1.346 . S
C584 C583 1.369 . S
C584 H587 0.928 . S
C585 N581 1.345 . S
C585 C586 1.371 . S
C585 H588 0.931 . S
C586 C582 1.391 . S
C586 C585 1.371 . S
C586 H593 0.930 . S
H587 C584 0.928 . S
H588 C585 0.931 . S
H589 C565 0.930 . S
H590 C562 0.930 . S
H591 C571 0.930 . S
H592 C583 0.929 . S
H593 C586 0.930 . S
C594 C595 1.351 . S
C594 N597 1.368 . S
C594 H599 0.931 . S
C595 C594 1.351 . S
C595 N596 1.373 . S
C595 H623 0.930 . S
N596 C595 1.373 . S
N596 C598 1.340 . S
N597 C594 1.368 . S
N597 C598 1.321 . S
N597 Co600 2.135 . S
C598 N596 1.340 . S
C598 N597 1.321 . S
C598 H622 0.930 . S
H599 C594 0.931 . S
Co600 N597 2.135 . S
Co600 N603 2.121 . S
Co600 O608 2.055 . S
Co600 O611 2.039 . S
Co600 N614 2.140 . S
C601 O602 1.227 . S
C601 O611 1.265 . S
O602 C601 1.227 . S
N603 Co600 2.121 . S
N603 C605 1.375 . S
N603 C606 1.313 . S
C604 C605 1.338 . S
C604 N607 1.377 . S
C604 H624 0.930 . S
C605 N603 1.375 . S
C605 C604 1.338 . S
C605 H609 0.931 . S
C606 N603 1.313 . S
C606 N607 1.344 . S
C606 H610 0.930 . S
N607 C604 1.377 . S
N607 C606 1.344 . S
O608 Co600 2.055 . S
O608 C612 1.253 . S
H609 C605 0.931 . S
H610 C606 0.930 . S
O611 Co600 2.039 . S
O611 C601 1.265 . S
C612 O608 1.253 . S
C612 O613 1.227 . S
O613 C612 1.227 . S
N614 Co600 2.140 . S
N614 C617 1.346 . S
N614 C618 1.345 . S
C615 C616 1.387 . S
C615 C619 1.391 . S
C616 C615 1.387 . S
C616 C617 1.369 . S
C616 H625 0.929 . S
C617 N614 1.346 . S
C617 C616 1.369 . S
C617 H620 0.928 . S
C618 N614 1.345 . S
C618 C619 1.371 . S
C618 H621 0.931 . S
C619 C615 1.391 . S
C619 C618 1.371 . S
C619 H626 0.930 . S
H620 C617 0.928 . S
H621 C618 0.931 . S
H622 C598 0.930 . S
H623 C595 0.930 . S
H624 C604 0.930 . S
H625 C616 0.929 . S
H626 C619 0.930 . S
C627 C628 1.351 . S
C627 N630 1.368 . S
C627 H632 0.931 . S
C628 C627 1.351 . S
C628 N629 1.373 . S
C628 H656 0.930 . S
N629 C628 1.373 . S
N629 C631 1.340 . S
N630 C627 1.368 . S
N630 C631 1.321 . S
N630 Co633 2.135 . S
C631 N629 1.340 . S
C631 N630 1.321 . S
C631 H655 0.930 . S
H632 C627 0.931 . S
Co633 N630 2.135 . S
Co633 N636 2.121 . S
Co633 O641 2.055 . S
Co633 O644 2.039 . S
Co633 N647 2.140 . S
C634 O635 1.227 . S
C634 O644 1.265 . S
O635 C634 1.227 . S
N636 Co633 2.121 . S
N636 C638 1.375 . S
N636 C639 1.313 . S
C637 C638 1.338 . S
C637 N640 1.377 . S
C637 H657 0.930 . S
C638 N636 1.375 . S
C638 C637 1.338 . S
C638 H642 0.931 . S
C639 N636 1.313 . S
C639 N640 1.344 . S
C639 H643 0.930 . S
N640 C637 1.377 . S
N640 C639 1.344 . S
O641 Co633 2.055 . S
O641 C645 1.253 . S
H642 C638 0.931 . S
H643 C639 0.930 . S
O644 Co633 2.039 . S
O644 C634 1.265 . S
C645 O641 1.253 . S
C645 O646 1.227 . S
O646 C645 1.227 . S
N647 Co633 2.140 . S
N647 C650 1.346 . S
N647 C651 1.345 . S
C648 C649 1.387 . S
C648 C652 1.391 . S
C649 C648 1.387 . S
C649 C650 1.369 . S
C649 H658 0.929 . S
C650 N647 1.346 . S
C650 C649 1.369 . S
C650 H653 0.928 . S
C651 N647 1.345 . S
C651 C652 1.371 . S
C651 H654 0.931 . S
C652 C648 1.391 . S
C652 C651 1.371 . S
C652 H659 0.930 . S
H653 C650 0.928 . S
H654 C651 0.931 . S
H655 C631 0.930 . S
H656 C628 0.930 . S
H657 C637 0.930 . S
H658 C649 0.929 . S
H659 C652 0.930 . S
C660 C661 1.351 . S
C660 N663 1.368 . S
C660 H665 0.931 . S
C661 C660 1.351 . S
C661 N662 1.373 . S
C661 H689 0.930 . S
N662 C661 1.373 . S
N662 C664 1.340 . S
N663 C660 1.368 . S
N663 C664 1.321 . S
N663 Co666 2.135 . S
C664 N662 1.340 . S
C664 N663 1.321 . S
C664 H688 0.930 . S
H665 C660 0.931 . S
Co666 N663 2.135 . S
Co666 N669 2.121 . S
Co666 O674 2.055 . S
Co666 O677 2.039 . S
Co666 N680 2.140 . S
C667 O668 1.227 . S
C667 O677 1.265 . S
O668 C667 1.227 . S
N669 Co666 2.121 . S
N669 C671 1.375 . S
N669 C672 1.313 . S
C670 C671 1.338 . S
C670 N673 1.377 . S
C670 H690 0.930 . S
C671 N669 1.375 . S
C671 C670 1.338 . S
C671 H675 0.931 . S
C672 N669 1.313 . S
C672 N673 1.344 . S
C672 H676 0.930 . S
N673 C670 1.377 . S
N673 C672 1.344 . S
O674 Co666 2.055 . S
O674 C678 1.253 . S
H675 C671 0.931 . S
H676 C672 0.930 . S
O677 Co666 2.039 . S
O677 C667 1.265 . S
C678 O674 1.253 . S
C678 O679 1.227 . S
O679 C678 1.227 . S
N680 Co666 2.140 . S
N680 C683 1.346 . S
N680 C684 1.345 . S
C681 C682 1.387 . S
C681 C685 1.391 . S
C682 C681 1.387 . S
C682 C683 1.369 . S
C682 H691 0.929 . S
C683 N680 1.346 . S
C683 C682 1.369 . S
C683 H686 0.928 . S
C684 N680 1.345 . S
C684 C685 1.371 . S
C684 H687 0.931 . S
C685 C681 1.391 . S
C685 C684 1.371 . S
C685 H692 0.930 . S
H686 C683 0.928 . S
H687 C684 0.931 . S
H688 C664 0.930 . S
H689 C661 0.930 . S
H690 C670 0.930 . S
H691 C682 0.929 . S
H692 C685 0.930 . S
C693 C694 1.351 . S
C693 N696 1.368 . S
C693 H698 0.931 . S
C694 C693 1.351 . S
C694 N695 1.373 . S
C694 H722 0.930 . S
N695 C694 1.373 . S
N695 C697 1.340 . S
N696 C693 1.368 . S
N696 C697 1.321 . S
N696 Co699 2.135 . S
C697 N695 1.340 . S
C697 N696 1.321 . S
C697 H721 0.930 . S
H698 C693 0.931 . S
Co699 N696 2.135 . S
Co699 N702 2.121 . S
Co699 O707 2.055 . S
Co699 O710 2.039 . S
Co699 N713 2.140 . S
C700 O701 1.227 . S
C700 O710 1.265 . S
O701 C700 1.227 . S
N702 Co699 2.121 . S
N702 C704 1.375 . S
N702 C705 1.313 . S
C703 C704 1.338 . S
C703 N706 1.377 . S
C703 H723 0.930 . S
C704 N702 1.375 . S
C704 C703 1.338 . S
C704 H708 0.931 . S
C705 N702 1.313 . S
C705 N706 1.344 . S
C705 H709 0.930 . S
N706 C703 1.377 . S
N706 C705 1.344 . S
O707 Co699 2.055 . S
O707 C711 1.253 . S
H708 C704 0.931 . S
H709 C705 0.930 . S
O710 Co699 2.039 . S
O710 C700 1.265 . S
C711 O707 1.253 . S
C711 O712 1.227 . S
O712 C711 1.227 . S
N713 Co699 2.140 . S
N713 C716 1.346 . S
N713 C717 1.345 . S
C714 C715 1.387 . S
C714 C718 1.391 . S
C715 C714 1.387 . S
C715 C716 1.369 . S
C715 H724 0.929 . S
C716 N713 1.346 . S
C716 C715 1.369 . S
C716 H719 0.928 . S
C717 N713 1.345 . S
C717 C718 1.371 . S
C717 H720 0.931 . S
C718 C714 1.391 . S
C718 C717 1.371 . S
C718 H725 0.930 . S
H719 C716 0.928 . S
H720 C717 0.931 . S
H721 C697 0.930 . S
H722 C694 0.930 . S
H723 C703 0.930 . S
H724 C715 0.929 . S
H725 C718 0.930 . S
C726 C727 1.351 . S
C726 N729 1.368 . S
C726 H731 0.931 . S
C727 C726 1.351 . S
C727 N728 1.373 . S
C727 H755 0.930 . S
N728 C727 1.373 . S
N728 C730 1.340 . S
N729 C726 1.368 . S
N729 C730 1.321 . S
N729 Co732 2.135 . S
C730 N728 1.340 . S
C730 N729 1.321 . S
C730 H754 0.930 . S
H731 C726 0.931 . S
Co732 N729 2.135 . S
Co732 N735 2.121 . S
Co732 O740 2.055 . S
Co732 O743 2.039 . S
Co732 N746 2.140 . S
C733 O734 1.227 . S
C733 O743 1.265 . S
O734 C733 1.227 . S
N735 Co732 2.121 . S
N735 C737 1.375 . S
N735 C738 1.313 . S
C736 C737 1.338 . S
C736 N739 1.377 . S
C736 H756 0.930 . S
C737 N735 1.375 . S
C737 C736 1.338 . S
C737 H741 0.931 . S
C738 N735 1.313 . S
C738 N739 1.344 . S
C738 H742 0.930 . S
N739 C736 1.377 . S
N739 C738 1.344 . S
O740 Co732 2.055 . S
O740 C744 1.253 . S
H741 C737 0.931 . S
H742 C738 0.930 . S
O743 Co732 2.039 . S
O743 C733 1.265 . S
C744 O740 1.253 . S
C744 O745 1.227 . S
O745 C744 1.227 . S
N746 Co732 2.140 . S
N746 C749 1.346 . S
N746 C750 1.345 . S
C747 C748 1.387 . S
C747 C751 1.391 . S
C748 C747 1.387 . S
C748 C749 1.369 . S
C748 H757 0.929 . S
C749 N746 1.346 . S
C749 C748 1.369 . S
C749 H752 0.928 . S
C750 N746 1.345 . S
C750 C751 1.371 . S
C750 H753 0.931 . S
C751 C747 1.391 . S
C751 C750 1.371 . S
C751 H758 0.930 . S
H752 C749 0.928 . S
H753 C750 0.931 . S
H754 C730 0.930 . S
H755 C727 0.930 . S
H756 C736 0.930 . S
H757 C748 0.929 . S
H758 C751 0.930 . S
C759 C760 1.351 . S
C759 N762 1.368 . S
C759 H764 0.931 . S
C760 C759 1.351 . S
C760 N761 1.373 . S
C760 H788 0.930 . S
N761 C760 1.373 . S
N761 C763 1.340 . S
N762 C759 1.368 . S
N762 C763 1.321 . S
N762 Co765 2.135 . S
C763 N761 1.340 . S
C763 N762 1.321 . S
C763 H787 0.930 . S
H764 C759 0.931 . S
Co765 N762 2.135 . S
Co765 N768 2.121 . S
Co765 O773 2.055 . S
Co765 O776 2.039 . S
Co765 N779 2.140 . S
C766 O767 1.227 . S
C766 O776 1.265 . S
O767 C766 1.227 . S
N768 Co765 2.121 . S
N768 C770 1.375 . S
N768 C771 1.313 . S
C769 C770 1.338 . S
C769 N772 1.377 . S
C769 H789 0.930 . S
C770 N768 1.375 . S
C770 C769 1.338 . S
C770 H774 0.931 . S
C771 N768 1.313 . S
C771 N772 1.344 . S
C771 H775 0.930 . S
N772 C769 1.377 . S
N772 C771 1.344 . S
O773 Co765 2.055 . S
O773 C777 1.253 . S
H774 C770 0.931 . S
H775 C771 0.930 . S
O776 Co765 2.039 . S
O776 C766 1.265 . S
C777 O773 1.253 . S
C777 O778 1.227 . S
O778 C777 1.227 . S
N779 Co765 2.140 . S
N779 C782 1.346 . S
N779 C783 1.345 . S
C780 C781 1.387 . S
C780 C784 1.391 . S
C781 C780 1.387 . S
C781 C782 1.369 . S
C781 H790 0.929 . S
C782 N779 1.346 . S
C782 C781 1.369 . S
C782 H785 0.928 . S
C783 N779 1.345 . S
C783 C784 1.371 . S
C783 H786 0.931 . S
C784 C780 1.391 . S
C784 C783 1.371 . S
C784 H791 0.930 . S
H785 C782 0.928 . S
H786 C783 0.931 . S
H787 C763 0.930 . S
H788 C760 0.930 . S
H789 C769 0.930 . S
H790 C781 0.929 . S
H791 C784 0.930 . S
C792 C793 1.351 . S
C792 N795 1.368 . S
C792 H797 0.931 . S
C793 C792 1.351 . S
C793 N794 1.373 . S
C793 H821 0.930 . S
N794 C793 1.373 . S
N794 C796 1.340 . S
N795 C792 1.368 . S
N795 C796 1.321 . S
N795 Co798 2.135 . S
C796 N794 1.340 . S
C796 N795 1.321 . S
C796 H820 0.930 . S
H797 C792 0.931 . S
Co798 N795 2.135 . S
Co798 N801 2.121 . S
Co798 O806 2.055 . S
Co798 O809 2.039 . S
Co798 N812 2.140 . S
C799 O800 1.227 . S
C799 O809 1.265 . S
O800 C799 1.227 . S
N801 Co798 2.121 . S
N801 C803 1.375 . S
N801 C804 1.313 . S
C802 C803 1.338 . S
C802 N805 1.377 . S
C802 H822 0.930 . S
C803 N801 1.375 . S
C803 C802 1.338 . S
C803 H807 0.931 . S
C804 N801 1.313 . S
C804 N805 1.344 . S
C804 H808 0.930 . S
N805 C802 1.377 . S
N805 C804 1.344 . S
O806 Co798 2.055 . S
O806 C810 1.253 . S
H807 C803 0.931 . S
H808 C804 0.930 . S
O809 Co798 2.039 . S
O809 C799 1.265 . S
C810 O806 1.253 . S
C810 O811 1.227 . S
O811 C810 1.227 . S
N812 Co798 2.140 . S
N812 C815 1.346 . S
N812 C816 1.345 . S
C813 C814 1.387 . S
C813 C817 1.391 . S
C814 C813 1.387 . S
C814 C815 1.369 . S
C814 H823 0.929 . S
C815 N812 1.346 . S
C815 C814 1.369 . S
C815 H818 0.928 . S
C816 N812 1.345 . S
C816 C817 1.371 . S
C816 H819 0.931 . S
C817 C813 1.391 . S
C817 C816 1.371 . S
C817 H824 0.930 . S
H818 C815 0.928 . S
H819 C816 0.931 . S
H820 C796 0.930 . S
H821 C793 0.930 . S
H822 C802 0.930 . S
H823 C814 0.929 . S
H824 C817 0.930 . S
C825 C826 1.351 . S
C825 N828 1.368 . S
C825 H830 0.931 . S
C826 C825 1.351 . S
C826 N827 1.373 . S
C826 H854 0.930 . S
N827 C826 1.373 . S
N827 C829 1.340 . S
N828 C825 1.368 . S
N828 C829 1.321 . S
N828 Co831 2.135 . S
C829 N827 1.340 . S
C829 N828 1.321 . S
C829 H853 0.930 . S
H830 C825 0.931 . S
Co831 N828 2.135 . S
Co831 N834 2.121 . S
Co831 O839 2.055 . S
Co831 O842 2.039 . S
Co831 N845 2.140 . S
C832 O833 1.227 . S
C832 O842 1.265 . S
O833 C832 1.227 . S
N834 Co831 2.121 . S
N834 C836 1.375 . S
N834 C837 1.313 . S
C835 C836 1.338 . S
C835 N838 1.377 . S
C835 H855 0.930 . S
C836 N834 1.375 . S
C836 C835 1.338 . S
C836 H840 0.931 . S
C837 N834 1.313 . S
C837 N838 1.344 . S
C837 H841 0.930 . S
N838 C835 1.377 . S
N838 C837 1.344 . S
O839 Co831 2.055 . S
O839 C843 1.253 . S
H840 C836 0.931 . S
H841 C837 0.930 . S
O842 Co831 2.039 . S
O842 C832 1.265 . S
C843 O839 1.253 . S
C843 O844 1.227 . S
O844 C843 1.227 . S
N845 Co831 2.140 . S
N845 C848 1.346 . S
N845 C849 1.345 . S
C846 C847 1.387 . S
C846 C850 1.391 . S
C847 C846 1.387 . S
C847 C848 1.369 . S
C847 H856 0.929 . S
C848 N845 1.346 . S
C848 C847 1.369 . S
C848 H851 0.928 . S
C849 N845 1.345 . S
C849 C850 1.371 . S
C849 H852 0.931 . S
C850 C846 1.391 . S
C850 C849 1.371 . S
C850 H857 0.930 . S
H851 C848 0.928 . S
H852 C849 0.931 . S
H853 C829 0.930 . S
H854 C826 0.930 . S
H855 C835 0.930 . S
H856 C847 0.929 . S
H857 C850 0.930 . S
C858 C859 1.351 . S
C858 N861 1.368 . S
C858 H863 0.931 . S
C859 C858 1.351 . S
C859 N860 1.373 . S
C859 H887 0.930 . S
N860 C859 1.373 . S
N860 C862 1.340 . S
N861 C858 1.368 . S
N861 C862 1.321 . S
N861 Co864 2.135 . S
C862 N860 1.340 . S
C862 N861 1.321 . S
C862 H886 0.930 . S
H863 C858 0.931 . S
Co864 N861 2.135 . S
Co864 N867 2.121 . S
Co864 O872 2.055 . S
Co864 O875 2.039 . S
Co864 N878 2.140 . S
C865 O866 1.227 . S
C865 O875 1.265 . S
O866 C865 1.227 . S
N867 Co864 2.121 . S
N867 C869 1.375 . S
N867 C870 1.313 . S
C868 C869 1.338 . S
C868 N871 1.377 . S
C868 H888 0.930 . S
C869 N867 1.375 . S
C869 C868 1.338 . S
C869 H873 0.931 . S
C870 N867 1.313 . S
C870 N871 1.344 . S
C870 H874 0.930 . S
N871 C868 1.377 . S
N871 C870 1.344 . S
O872 Co864 2.055 . S
O872 C876 1.253 . S
H873 C869 0.931 . S
H874 C870 0.930 . S
O875 Co864 2.039 . S
O875 C865 1.265 . S
C876 O872 1.253 . S
C876 O877 1.227 . S
O877 C876 1.227 . S
N878 Co864 2.140 . S
N878 C881 1.346 . S
N878 C882 1.345 . S
C879 C880 1.387 . S
C879 C883 1.391 . S
C880 C879 1.387 . S
C880 C881 1.369 . S
C880 H889 0.929 . S
C881 N878 1.346 . S
C881 C880 1.369 . S
C881 H884 0.928 . S
C882 N878 1.345 . S
C882 C883 1.371 . S
C882 H885 0.931 . S
C883 C879 1.391 . S
C883 C882 1.371 . S
C883 H890 0.930 . S
H884 C881 0.928 . S
H885 C882 0.931 . S
H886 C862 0.930 . S
H887 C859 0.930 . S
H888 C868 0.930 . S
H889 C880 0.929 . S
H890 C883 0.930 . S
C891 C892 1.351 . S
C891 N894 1.368 . S
C891 H896 0.931 . S
C892 C891 1.351 . S
C892 N893 1.373 . S
C892 H920 0.930 . S
N893 C892 1.373 . S
N893 C895 1.340 . S
N894 C891 1.368 . S
N894 C895 1.321 . S
N894 Co897 2.135 . S
C895 N893 1.340 . S
C895 N894 1.321 . S
C895 H919 0.930 . S
H896 C891 0.931 . S
Co897 N894 2.135 . S
Co897 N900 2.121 . S
Co897 O905 2.055 . S
Co897 O908 2.039 . S
Co897 N911 2.140 . S
C898 O899 1.227 . S
C898 O908 1.265 . S
O899 C898 1.227 . S
N900 Co897 2.121 . S
N900 C902 1.375 . S
N900 C903 1.313 . S
C901 C902 1.338 . S
C901 N904 1.377 . S
C901 H921 0.930 . S
C902 N900 1.375 . S
C902 C901 1.338 . S
C902 H906 0.931 . S
C903 N900 1.313 . S
C903 N904 1.344 . S
C903 H907 0.930 . S
N904 C901 1.377 . S
N904 C903 1.344 . S
O905 Co897 2.055 . S
O905 C909 1.253 . S
H906 C902 0.931 . S
H907 C903 0.930 . S
O908 Co897 2.039 . S
O908 C898 1.265 . S
C909 O905 1.253 . S
C909 O910 1.227 . S
O910 C909 1.227 . S
N911 Co897 2.140 . S
N911 C914 1.346 . S
N911 C915 1.345 . S
C912 C913 1.387 . S
C912 C916 1.391 . S
C913 C912 1.387 . S
C913 C914 1.369 . S
C913 H922 0.929 . S
C914 N911 1.346 . S
C914 C913 1.369 . S
C914 H917 0.928 . S
C915 N911 1.345 . S
C915 C916 1.371 . S
C915 H918 0.931 . S
C916 C912 1.391 . S
C916 C915 1.371 . S
C916 H923 0.930 . S
H917 C914 0.928 . S
H918 C915 0.931 . S
H919 C895 0.930 . S
H920 C892 0.930 . S
H921 C901 0.930 . S
H922 C913 0.929 . S
H923 C916 0.930 . S
C924 C925 1.351 . S
C924 N927 1.368 . S
C924 H929 0.931 . S
C925 C924 1.351 . S
C925 N926 1.373 . S
C925 H953 0.930 . S
N926 C925 1.373 . S
N926 C928 1.340 . S
N927 C924 1.368 . S
N927 C928 1.321 . S
N927 Co930 2.135 . S
C928 N926 1.340 . S
C928 N927 1.321 . S
C928 H952 0.930 . S
H929 C924 0.931 . S
Co930 N927 2.135 . S
Co930 N933 2.121 . S
Co930 O938 2.055 . S
Co930 O941 2.039 . S
Co930 N944 2.140 . S
C931 O932 1.227 . S
C931 O941 1.265 . S
O932 C931 1.227 . S
N933 Co930 2.121 . S
N933 C935 1.375 . S
N933 C936 1.313 . S
C934 C935 1.338 . S
C934 N937 1.377 . S
C934 H954 0.930 . S
C935 N933 1.375 . S
C935 C934 1.338 . S
C935 H939 0.931 . S
C936 N933 1.313 . S
C936 N937 1.344 . S
C936 H940 0.930 . S
N937 C934 1.377 . S
N937 C936 1.344 . S
O938 Co930 2.055 . S
O938 C942 1.253 . S
H939 C935 0.931 . S
H940 C936 0.930 . S
O941 Co930 2.039 . S
O941 C931 1.265 . S
C942 O938 1.253 . S
C942 O943 1.227 . S
O943 C942 1.227 . S
N944 Co930 2.140 . S
N944 C947 1.346 . S
N944 C948 1.345 . S
C945 C946 1.387 . S
C945 C949 1.391 . S
C946 C945 1.387 . S
C946 C947 1.369 . S
C946 H955 0.929 . S
C947 N944 1.346 . S
C947 C946 1.369 . S
C947 H950 0.928 . S
C948 N944 1.345 . S
C948 C949 1.371 . S
C948 H951 0.931 . S
C949 C945 1.391 . S
C949 C948 1.371 . S
C949 H956 0.930 . S
H950 C947 0.928 . S
H951 C948 0.931 . S
H952 C928 0.930 . S
H953 C925 0.930 . S
H954 C934 0.930 . S
H955 C946 0.929 . S
H956 C949 0.930 . S
C957 C958 1.351 . S
C957 N960 1.368 . S
C957 H962 0.931 . S
C958 C957 1.351 . S
C958 N959 1.373 . S
C958 H986 0.930 . S
N959 C958 1.373 . S
N959 C961 1.340 . S
N960 C957 1.368 . S
N960 C961 1.321 . S
N960 Co963 2.135 . S
C961 N959 1.340 . S
C961 N960 1.321 . S
C961 H985 0.930 . S
H962 C957 0.931 . S
Co963 N960 2.135 . S
Co963 N966 2.121 . S
Co963 O971 2.055 . S
Co963 O974 2.039 . S
Co963 N977 2.140 . S
C964 O965 1.227 . S
C964 O974 1.265 . S
O965 C964 1.227 . S
N966 Co963 2.121 . S
N966 C968 1.375 . S
N966 C969 1.313 . S
C967 C968 1.338 . S
C967 N970 1.377 . S
C967 H987 0.930 . S
C968 N966 1.375 . S
C968 C967 1.338 . S
C968 H972 0.931 . S
C969 N966 1.313 . S
C969 N970 1.344 . S
C969 H973 0.930 . S
N970 C967 1.377 . S
N970 C969 1.344 . S
O971 Co963 2.055 . S
O971 C975 1.253 . S
H972 C968 0.931 . S
H973 C969 0.930 . S
O974 Co963 2.039 . S
O974 C964 1.265 . S
C975 O971 1.253 . S
C975 O976 1.227 . S
O976 C975 1.227 . S
N977 Co963 2.140 . S
N977 C980 1.346 . S
N977 C981 1.345 . S
C978 C979 1.387 . S
C978 C982 1.391 . S
C979 C978 1.387 . S
C979 C980 1.369 . S
C979 H988 0.929 . S
C980 N977 1.346 . S
C980 C979 1.369 . S
C980 H983 0.928 . S
C981 N977 1.345 . S
C981 C982 1.371 . S
C981 H984 0.931 . S
C982 C978 1.391 . S
C982 C981 1.371 . S
C982 H989 0.930 . S
H983 C980 0.928 . S
H984 C981 0.931 . S
H985 C961 0.930 . S
H986 C958 0.930 . S
H987 C967 0.930 . S
H988 C979 0.929 . S
H989 C982 0.930 . S
C990 C991 1.351 . S
C990 N993 1.368 . S
C990 H995 0.931 . S
C991 C990 1.351 . S
C991 N992 1.373 . S
C991 H1019 0.930 . S
N992 C991 1.373 . S
N992 C994 1.340 . S
N993 C990 1.368 . S
N993 C994 1.321 . S
N993 Co996 2.135 . S
C994 N992 1.340 . S
C994 N993 1.321 . S
C994 H1018 0.930 . S
H995 C990 0.931 . S
Co996 N993 2.135 . S
Co996 N999 2.121 . S
Co996 O1004 2.055 . S
Co996 O1007 2.039 . S
Co996 N1010 2.140 . S
C997 O998 1.227 . S
C997 O1007 1.265 . S
O998 C997 1.227 . S
N999 Co996 2.121 . S
N999 C1001 1.375 . S
N999 C1002 1.313 . S
C1000 C1001 1.338 . S
C1000 N1003 1.377 . S
C1000 H1020 0.930 . S
C1001 N999 1.375 . S
C1001 C1000 1.338 . S
C1001 H1005 0.931 . S
C1002 N999 1.313 . S
C1002 N1003 1.344 . S
C1002 H1006 0.930 . S
N1003 C1000 1.377 . S
N1003 C1002 1.344 . S
O1004 Co996 2.055 . S
O1004 C1008 1.253 . S
H1005 C1001 0.931 . S
H1006 C1002 0.930 . S
O1007 Co996 2.039 . S
O1007 C997 1.265 . S
C1008 O1004 1.253 . S
C1008 O1009 1.227 . S
O1009 C1008 1.227 . S
N1010 Co996 2.140 . S
N1010 C1013 1.346 . S
N1010 C1014 1.345 . S
C1011 C1012 1.387 . S
C1011 C1015 1.391 . S
C1012 C1011 1.387 . S
C1012 C1013 1.369 . S
C1012 H1021 0.929 . S
C1013 N1010 1.346 . S
C1013 C1012 1.369 . S
C1013 H1016 0.928 . S
C1014 N1010 1.345 . S
C1014 C1015 1.371 . S
C1014 H1017 0.931 . S
C1015 C1011 1.391 . S
C1015 C1014 1.371 . S
C1015 H1022 0.930 . S
H1016 C1013 0.928 . S
H1017 C1014 0.931 . S
H1018 C994 0.930 . S
H1019 C991 0.930 . S
H1020 C1000 0.930 . S
H1021 C1012 0.929 . S
H1022 C1015 0.930 . S
C1023 C1024 1.351 . S
C1023 N1026 1.368 . S
C1023 H1028 0.931 . S
C1024 C1023 1.351 . S
C1024 N1025 1.373 . S
C1024 H1052 0.930 . S
N1025 C1024 1.373 . S
N1025 C1027 1.340 . S
N1026 C1023 1.368 . S
N1026 C1027 1.321 . S
N1026 Co1029 2.135 . S
C1027 N1025 1.340 . S
C1027 N1026 1.321 . S
C1027 H1051 0.930 . S
H1028 C1023 0.931 . S
Co1029 N1026 2.135 . S
Co1029 N1032 2.121 . S
Co1029 O1037 2.055 . S
Co1029 O1040 2.039 . S
Co1029 N1043 2.140 . S
C1030 O1031 1.227 . S
C1030 O1040 1.265 . S
O1031 C1030 1.227 . S
N1032 Co1029 2.121 . S
N1032 C1034 1.375 . S
N1032 C1035 1.313 . S
C1033 C1034 1.338 . S
C1033 N1036 1.377 . S
C1033 H1053 0.930 . S
C1034 N1032 1.375 . S
C1034 C1033 1.338 . S
C1034 H1038 0.931 . S
C1035 N1032 1.313 . S
C1035 N1036 1.344 . S
C1035 H1039 0.930 . S
N1036 C1033 1.377 . S
N1036 C1035 1.344 . S
O1037 Co1029 2.055 . S
O1037 C1041 1.253 . S
H1038 C1034 0.931 . S
H1039 C1035 0.930 . S
O1040 Co1029 2.039 . S
O1040 C1030 1.265 . S
C1041 O1037 1.253 . S
C1041 O1042 1.227 . S
O1042 C1041 1.227 . S
N1043 Co1029 2.140 . S
N1043 C1046 1.346 . S
N1043 C1047 1.345 . S
C1044 C1045 1.387 . S
C1044 C1048 1.391 . S
C1045 C1044 1.387 . S
C1045 C1046 1.369 . S
C1045 H1054 0.929 . S
C1046 N1043 1.346 . S
C1046 C1045 1.369 . S
C1046 H1049 0.928 . S
C1047 N1043 1.345 . S
C1047 C1048 1.371 . S
C1047 H1050 0.931 . S
C1048 C1044 1.391 . S
C1048 C1047 1.371 . S
C1048 H1055 0.930 . S
H1049 C1046 0.928 . S
H1050 C1047 0.931 . S
H1051 C1027 0.930 . S
H1052 C1024 0.930 . S
H1053 C1033 0.930 . S
H1054 C1045 0.929 . S
H1055 C1048 0.930 . S
C1056 C1057 1.351 . S
C1056 N1059 1.368 . S
C1056 H1061 0.931 . S
C1057 C1056 1.351 . S
C1057 N1058 1.373 . S
C1057 H1085 0.930 . S
N1058 C1057 1.373 . S
N1058 C1060 1.340 . S
N1059 C1056 1.368 . S
N1059 C1060 1.321 . S
N1059 Co1062 2.135 . S
C1060 N1058 1.340 . S
C1060 N1059 1.321 . S
C1060 H1084 0.930 . S
H1061 C1056 0.931 . S
Co1062 N1059 2.135 . S
Co1062 N1065 2.121 . S
Co1062 O1070 2.055 . S
Co1062 O1073 2.039 . S
Co1062 N1076 2.140 . S
C1063 O1064 1.227 . S
C1063 O1073 1.265 . S
O1064 C1063 1.227 . S
N1065 Co1062 2.121 . S
N1065 C1067 1.375 . S
N1065 C1068 1.313 . S
C1066 C1067 1.338 . S
C1066 N1069 1.377 . S
C1066 H1086 0.930 . S
C1067 N1065 1.375 . S
C1067 C1066 1.338 . S
C1067 H1071 0.931 . S
C1068 N1065 1.313 . S
C1068 N1069 1.344 . S
C1068 H1072 0.930 . S
N1069 C1066 1.377 . S
N1069 C1068 1.344 . S
O1070 Co1062 2.055 . S
O1070 C1074 1.253 . S
H1071 C1067 0.931 . S
H1072 C1068 0.930 . S
O1073 Co1062 2.039 . S
O1073 C1063 1.265 . S
C1074 O1070 1.253 . S
C1074 O1075 1.227 . S
O1075 C1074 1.227 . S
N1076 Co1062 2.140 . S
N1076 C1079 1.346 . S
N1076 C1080 1.345 . S
C1077 C1078 1.387 . S
C1077 C1081 1.391 . S
C1078 C1077 1.387 . S
C1078 C1079 1.369 . S
C1078 H1087 0.929 . S
C1079 N1076 1.346 . S
C1079 C1078 1.369 . S
C1079 H1082 0.928 . S
C1080 N1076 1.345 . S
C1080 C1081 1.371 . S
C1080 H1083 0.931 . S
C1081 C1077 1.391 . S
C1081 C1080 1.371 . S
C1081 H1088 0.930 . S
H1082 C1079 0.928 . S
H1083 C1080 0.931 . S
H1084 C1060 0.930 . S
H1085 C1057 0.930 . S
H1086 C1066 0.930 . S
H1087 C1078 0.929 . S
H1088 C1081 0.930 . S
C1089 C1090 1.351 . S
C1089 N1092 1.368 . S
C1089 H1094 0.931 . S
C1090 C1089 1.351 . S
C1090 N1091 1.373 . S
C1090 H1118 0.930 . S
N1091 C1090 1.373 . S
N1091 C1093 1.340 . S
N1092 C1089 1.368 . S
N1092 C1093 1.321 . S
N1092 Co1095 2.135 . S
C1093 N1091 1.340 . S
C1093 N1092 1.321 . S
C1093 H1117 0.930 . S
H1094 C1089 0.931 . S
Co1095 N1092 2.135 . S
Co1095 N1098 2.121 . S
Co1095 O1103 2.055 . S
Co1095 O1106 2.039 . S
Co1095 N1109 2.140 . S
C1096 O1097 1.227 . S
C1096 O1106 1.265 . S
O1097 C1096 1.227 . S
N1098 Co1095 2.121 . S
N1098 C1100 1.375 . S
N1098 C1101 1.313 . S
C1099 C1100 1.338 . S
C1099 N1102 1.377 . S
C1099 H1119 0.930 . S
C1100 N1098 1.375 . S
C1100 C1099 1.338 . S
C1100 H1104 0.931 . S
C1101 N1098 1.313 . S
C1101 N1102 1.344 . S
C1101 H1105 0.930 . S
N1102 C1099 1.377 . S
N1102 C1101 1.344 . S
O1103 Co1095 2.055 . S
O1103 C1107 1.253 . S
H1104 C1100 0.931 . S
H1105 C1101 0.930 . S
O1106 Co1095 2.039 . S
O1106 C1096 1.265 . S
C1107 O1103 1.253 . S
C1107 O1108 1.227 . S
O1108 C1107 1.227 . S
N1109 Co1095 2.140 . S
N1109 C1112 1.346 . S
N1109 C1113 1.345 . S
C1110 C1111 1.387 . S
C1110 C1114 1.391 . S
C1111 C1110 1.387 . S
C1111 C1112 1.369 . S
C1111 H1120 0.929 . S
C1112 N1109 1.346 . S
C1112 C1111 1.369 . S
C1112 H1115 0.928 . S
C1113 N1109 1.345 . S
C1113 C1114 1.371 . S
C1113 H1116 0.931 . S
C1114 C1110 1.391 . S
C1114 C1113 1.371 . S
C1114 H1121 0.930 . S
H1115 C1112 0.928 . S
H1116 C1113 0.931 . S
H1117 C1093 0.930 . S
H1118 C1090 0.930 . S
H1119 C1099 0.930 . S
H1120 C1111 0.929 . S
H1121 C1114 0.930 . S
C1122 C1123 1.351 . S
C1122 N1125 1.368 . S
C1122 H1127 0.931 . S
C1123 C1122 1.351 . S
C1123 N1124 1.373 . S
C1123 H1151 0.930 . S
N1124 C1123 1.373 . S
N1124 C1126 1.340 . S
N1125 C1122 1.368 . S
N1125 C1126 1.321 . S
N1125 Co1128 2.135 . S
C1126 N1124 1.340 . S
C1126 N1125 1.321 . S
C1126 H1150 0.930 . S
H1127 C1122 0.931 . S
Co1128 N1125 2.135 . S
Co1128 N1131 2.121 . S
Co1128 O1136 2.055 . S
Co1128 O1139 2.039 . S
Co1128 N1142 2.140 . S
C1129 O1130 1.227 . S
C1129 O1139 1.265 . S
O1130 C1129 1.227 . S
N1131 Co1128 2.121 . S
N1131 C1133 1.375 . S
N1131 C1134 1.313 . S
C1132 C1133 1.338 . S
C1132 N1135 1.377 . S
C1132 H1152 0.930 . S
C1133 N1131 1.375 . S
C1133 C1132 1.338 . S
C1133 H1137 0.931 . S
C1134 N1131 1.313 . S
C1134 N1135 1.344 . S
C1134 H1138 0.930 . S
N1135 C1132 1.377 . S
N1135 C1134 1.344 . S
O1136 Co1128 2.055 . S
O1136 C1140 1.253 . S
H1137 C1133 0.931 . S
H1138 C1134 0.930 . S
O1139 Co1128 2.039 . S
O1139 C1129 1.265 . S
C1140 O1136 1.253 . S
C1140 O1141 1.227 . S
O1141 C1140 1.227 . S
N1142 Co1128 2.140 . S
N1142 C1145 1.346 . S
N1142 C1146 1.345 . S
C1143 C1144 1.387 . S
C1143 C1147 1.391 . S
C1144 C1143 1.387 . S
C1144 C1145 1.369 . S
C1144 H1153 0.929 . S
C1145 N1142 1.346 . S
C1145 C1144 1.369 . S
C1145 H1148 0.928 . S
C1146 N1142 1.345 . S
C1146 C1147 1.371 . S
C1146 H1149 0.931 . S
C1147 C1143 1.391 . S
C1147 C1146 1.371 . S
C1147 H1154 0.930 . S
H1148 C1145 0.928 . S
H1149 C1146 0.931 . S
H1150 C1126 0.930 . S
H1151 C1123 0.930 . S
H1152 C1132 0.930 . S
H1153 C1144 0.929 . S
H1154 C1147 0.930 . S
C1155 C1156 1.351 . S
C1155 N1158 1.368 . S
C1155 H1160 0.931 . S
C1156 C1155 1.351 . S
C1156 N1157 1.373 . S
C1156 H1184 0.930 . S
N1157 C1156 1.373 . S
N1157 C1159 1.340 . S
N1158 C1155 1.368 . S
N1158 C1159 1.321 . S
N1158 Co1161 2.135 . S
C1159 N1157 1.340 . S
C1159 N1158 1.321 . S
C1159 H1183 0.930 . S
H1160 C1155 0.931 . S
Co1161 N1158 2.135 . S
Co1161 N1164 2.121 . S
Co1161 O1169 2.055 . S
Co1161 O1172 2.039 . S
Co1161 N1175 2.140 . S
C1162 O1163 1.227 . S
C1162 O1172 1.265 . S
O1163 C1162 1.227 . S
N1164 Co1161 2.121 . S
N1164 C1166 1.375 . S
N1164 C1167 1.313 . S
C1165 C1166 1.338 . S
C1165 N1168 1.377 . S
C1165 H1185 0.930 . S
C1166 N1164 1.375 . S
C1166 C1165 1.338 . S
C1166 H1170 0.931 . S
C1167 N1164 1.313 . S
C1167 N1168 1.344 . S
C1167 H1171 0.930 . S
N1168 C1165 1.377 . S
N1168 C1167 1.344 . S
O1169 Co1161 2.055 . S
O1169 C1173 1.253 . S
H1170 C1166 0.931 . S
H1171 C1167 0.930 . S
O1172 Co1161 2.039 . S
O1172 C1162 1.265 . S
C1173 O1169 1.253 . S
C1173 O1174 1.227 . S
O1174 C1173 1.227 . S
N1175 Co1161 2.140 . S
N1175 C1178 1.346 . S
N1175 C1179 1.345 . S
C1176 C1177 1.387 . S
C1176 C1180 1.391 . S
C1177 C1176 1.387 . S
C1177 C1178 1.369 . S
C1177 H1186 0.929 . S
C1178 N1175 1.346 . S
C1178 C1177 1.369 . S
C1178 H1181 0.928 . S
C1179 N1175 1.345 . S
C1179 C1180 1.371 . S
C1179 H1182 0.931 . S
C1180 C1176 1.391 . S
C1180 C1179 1.371 . S
C1180 H1187 0.930 . S
H1181 C1178 0.928 . S
H1182 C1179 0.931 . S
H1183 C1159 0.930 . S
H1184 C1156 0.930 . S
H1185 C1165 0.930 . S
H1186 C1177 0.929 . S
H1187 C1180 0.930 . S
C1188 C1189 1.351 . S
C1188 N1191 1.368 . S
C1188 H1193 0.931 . S
C1189 C1188 1.351 . S
C1189 N1190 1.373 . S
C1189 H1217 0.930 . S
N1190 C1189 1.373 . S
N1190 C1192 1.340 . S
N1191 C1188 1.368 . S
N1191 C1192 1.321 . S
N1191 Co1194 2.135 . S
C1192 N1190 1.340 . S
C1192 N1191 1.321 . S
C1192 H1216 0.930 . S
H1193 C1188 0.931 . S
Co1194 N1191 2.135 . S
Co1194 N1197 2.121 . S
Co1194 O1202 2.055 . S
Co1194 O1205 2.039 . S
Co1194 N1208 2.140 . S
C1195 O1196 1.227 . S
C1195 O1205 1.265 . S
O1196 C1195 1.227 . S
N1197 Co1194 2.121 . S
N1197 C1199 1.375 . S
N1197 C1200 1.313 . S
C1198 C1199 1.338 . S
C1198 N1201 1.377 . S
C1198 H1218 0.930 . S
C1199 N1197 1.375 . S
C1199 C1198 1.338 . S
C1199 H1203 0.931 . S
C1200 N1197 1.313 . S
C1200 N1201 1.344 . S
C1200 H1204 0.930 . S
N1201 C1198 1.377 . S
N1201 C1200 1.344 . S
O1202 Co1194 2.055 . S
O1202 C1206 1.253 . S
H1203 C1199 0.931 . S
H1204 C1200 0.930 . S
O1205 Co1194 2.039 . S
O1205 C1195 1.265 . S
C1206 O1202 1.253 . S
C1206 O1207 1.227 . S
O1207 C1206 1.227 . S
N1208 Co1194 2.140 . S
N1208 C1211 1.346 . S
N1208 C1212 1.345 . S
C1209 C1210 1.387 . S
C1209 C1213 1.391 . S
C1210 C1209 1.387 . S
C1210 C1211 1.369 . S
C1210 H1219 0.929 . S
C1211 N1208 1.346 . S
C1211 C1210 1.369 . S
C1211 H1214 0.928 . S
C1212 N1208 1.345 . S
C1212 C1213 1.371 . S
C1212 H1215 0.931 . S
C1213 C1209 1.391 . S
C1213 C1212 1.371 . S
C1213 H1220 0.930 . S
H1214 C1211 0.928 . S
H1215 C1212 0.931 . S
H1216 C1192 0.930 . S
H1217 C1189 0.930 . S
H1218 C1198 0.930 . S
H1219 C1210 0.929 . S
H1220 C1213 0.930 . S
C1221 C1222 1.351 . S
C1221 N1224 1.368 . S
C1221 H1226 0.931 . S
C1222 C1221 1.351 . S
C1222 N1223 1.373 . S
C1222 H1250 0.930 . S
N1223 C1222 1.373 . S
N1223 C1225 1.340 . S
N1224 C1221 1.368 . S
N1224 C1225 1.321 . S
N1224 Co1227 2.135 . S
C1225 N1223 1.340 . S
C1225 N1224 1.321 . S
C1225 H1249 0.930 . S
H1226 C1221 0.931 . S
Co1227 N1224 2.135 . S
Co1227 N1230 2.121 . S
Co1227 O1235 2.055 . S
Co1227 O1238 2.039 . S
Co1227 N1241 2.140 . S
C1228 O1229 1.227 . S
C1228 O1238 1.265 . S
O1229 C1228 1.227 . S
N1230 Co1227 2.121 . S
N1230 C1232 1.375 . S
N1230 C1233 1.313 . S
C1231 C1232 1.338 . S
C1231 N1234 1.377 . S
C1231 H1251 0.930 . S
C1232 N1230 1.375 . S
C1232 C1231 1.338 . S
C1232 H1236 0.931 . S
C1233 N1230 1.313 . S
C1233 N1234 1.344 . S
C1233 H1237 0.930 . S
N1234 C1231 1.377 . S
N1234 C1233 1.344 . S
O1235 Co1227 2.055 . S
O1235 C1239 1.253 . S
H1236 C1232 0.931 . S
H1237 C1233 0.930 . S
O1238 Co1227 2.039 . S
O1238 C1228 1.265 . S
C1239 O1235 1.253 . S
C1239 O1240 1.227 . S
O1240 C1239 1.227 . S
N1241 Co1227 2.140 . S
N1241 C1244 1.346 . S
N1241 C1245 1.345 . S
C1242 C1243 1.387 . S
C1242 C1246 1.391 . S
C1243 C1242 1.387 . S
C1243 C1244 1.369 . S
C1243 H1252 0.929 . S
C1244 N1241 1.346 . S
C1244 C1243 1.369 . S
C1244 H1247 0.928 . S
C1245 N1241 1.345 . S
C1245 C1246 1.371 . S
C1245 H1248 0.931 . S
C1246 C1242 1.391 . S
C1246 C1245 1.371 . S
C1246 H1253 0.930 . S
H1247 C1244 0.928 . S
H1248 C1245 0.931 . S
H1249 C1225 0.930 . S
H1250 C1222 0.930 . S
H1251 C1231 0.930 . S
H1252 C1243 0.929 . S
H1253 C1246 0.930 . S
C1254 C1255 1.351 . S
C1254 N1257 1.368 . S
C1254 H1259 0.931 . S
C1255 C1254 1.351 . S
C1255 N1256 1.373 . S
C1255 H1283 0.930 . S
N1256 C1255 1.373 . S
N1256 C1258 1.340 . S
N1257 C1254 1.368 . S
N1257 C1258 1.321 . S
N1257 Co1260 2.135 . S
C1258 N1256 1.340 . S
C1258 N1257 1.321 . S
C1258 H1282 0.930 . S
H1259 C1254 0.931 . S
Co1260 N1257 2.135 . S
Co1260 N1263 2.121 . S
Co1260 O1268 2.055 . S
Co1260 O1271 2.039 . S
Co1260 N1274 2.140 . S
C1261 O1262 1.227 . S
C1261 O1271 1.265 . S
O1262 C1261 1.227 . S
N1263 Co1260 2.121 . S
N1263 C1265 1.375 . S
N1263 C1266 1.313 . S
C1264 C1265 1.338 . S
C1264 N1267 1.377 . S
C1264 H1284 0.930 . S
C1265 N1263 1.375 . S
C1265 C1264 1.338 . S
C1265 H1269 0.931 . S
C1266 N1263 1.313 . S
C1266 N1267 1.344 . S
C1266 H1270 0.930 . S
N1267 C1264 1.377 . S
N1267 C1266 1.344 . S
O1268 Co1260 2.055 . S
O1268 C1272 1.253 . S
H1269 C1265 0.931 . S
H1270 C1266 0.930 . S
O1271 Co1260 2.039 . S
O1271 C1261 1.265 . S
C1272 O1268 1.253 . S
C1272 O1273 1.227 . S
O1273 C1272 1.227 . S
N1274 Co1260 2.140 . S
N1274 C1277 1.346 . S
N1274 C1278 1.345 . S
C1275 C1276 1.387 . S
C1275 C1279 1.391 . S
C1276 C1275 1.387 . S
C1276 C1277 1.369 . S
C1276 H1285 0.929 . S
C1277 N1274 1.346 . S
C1277 C1276 1.369 . S
C1277 H1280 0.928 . S
C1278 N1274 1.345 . S
C1278 C1279 1.371 . S
C1278 H1281 0.931 . S
C1279 C1275 1.391 . S
C1279 C1278 1.371 . S
C1279 H1286 0.930 . S
H1280 C1277 0.928 . S
H1281 C1278 0.931 . S
H1282 C1258 0.930 . S
H1283 C1255 0.930 . S
H1284 C1264 0.930 . S
H1285 C1276 0.929 . S
H1286 C1279 0.930 . S
C1287 C1288 1.351 . S
C1287 N1290 1.368 . S
C1287 H1292 0.931 . S
C1288 C1287 1.351 . S
C1288 N1289 1.373 . S
C1288 H1316 0.930 . S
N1289 C1288 1.373 . S
N1289 C1291 1.340 . S
N1290 C1287 1.368 . S
N1290 C1291 1.321 . S
N1290 Co1293 2.135 . S
C1291 N1289 1.340 . S
C1291 N1290 1.321 . S
C1291 H1315 0.930 . S
H1292 C1287 0.931 . S
Co1293 N1290 2.135 . S
Co1293 N1296 2.121 . S
Co1293 O1301 2.055 . S
Co1293 O1304 2.039 . S
Co1293 N1307 2.140 . S
C1294 O1295 1.227 . S
C1294 O1304 1.265 . S
O1295 C1294 1.227 . S
N1296 Co1293 2.121 . S
N1296 C1298 1.375 . S
N1296 C1299 1.313 . S
C1297 C1298 1.338 . S
C1297 N1300 1.377 . S
C1297 H1317 0.930 . S
C1298 N1296 1.375 . S
C1298 C1297 1.338 . S
C1298 H1302 0.931 . S
C1299 N1296 1.313 . S
C1299 N1300 1.344 . S
C1299 H1303 0.930 . S
N1300 C1297 1.377 . S
N1300 C1299 1.344 . S
O1301 Co1293 2.055 . S
O1301 C1305 1.253 . S
H1302 C1298 0.931 . S
H1303 C1299 0.930 . S
O1304 Co1293 2.039 . S
O1304 C1294 1.265 . S
C1305 O1301 1.253 . S
C1305 O1306 1.227 . S
O1306 C1305 1.227 . S
N1307 Co1293 2.140 . S
N1307 C1310 1.346 . S
N1307 C1311 1.345 . S
C1308 C1309 1.387 . S
C1308 C1312 1.391 . S
C1309 C1308 1.387 . S
C1309 C1310 1.369 . S
C1309 H1318 0.929 . S
C1310 N1307 1.346 . S
C1310 C1309 1.369 . S
C1310 H1313 0.928 . S
C1311 N1307 1.345 . S
C1311 C1312 1.371 . S
C1311 H1314 0.931 . S
C1312 C1308 1.391 . S
C1312 C1311 1.371 . S
C1312 H1319 0.930 . S
H1313 C1310 0.928 . S
H1314 C1311 0.931 . S
H1315 C1291 0.930 . S
H1316 C1288 0.930 . S
H1317 C1297 0.930 . S
H1318 C1309 0.929 . S
H1319 C1312 0.930 . S
C1320 C1321 1.351 . S
C1320 N1323 1.368 . S
C1320 H1325 0.931 . S
C1321 C1320 1.351 . S
C1321 N1322 1.373 . S
C1321 H1349 0.930 . S
N1322 C1321 1.373 . S
N1322 C1324 1.340 . S
N1323 C1320 1.368 . S
N1323 C1324 1.321 . S
N1323 Co1326 2.135 . S
C1324 N1322 1.340 . S
C1324 N1323 1.321 . S
C1324 H1348 0.930 . S
H1325 C1320 0.931 . S
Co1326 N1323 2.135 . S
Co1326 N1329 2.121 . S
Co1326 O1334 2.055 . S
Co1326 O1337 2.039 . S
Co1326 N1340 2.140 . S
C1327 O1328 1.227 . S
C1327 O1337 1.265 . S
O1328 C1327 1.227 . S
N1329 Co1326 2.121 . S
N1329 C1331 1.375 . S
N1329 C1332 1.313 . S
C1330 C1331 1.338 . S
C1330 N1333 1.377 . S
C1330 H1350 0.930 . S
C1331 N1329 1.375 . S
C1331 C1330 1.338 . S
C1331 H1335 0.931 . S
C1332 N1329 1.313 . S
C1332 N1333 1.344 . S
C1332 H1336 0.930 . S
N1333 C1330 1.377 . S
N1333 C1332 1.344 . S
O1334 Co1326 2.055 . S
O1334 C1338 1.253 . S
H1335 C1331 0.931 . S
H1336 C1332 0.930 . S
O1337 Co1326 2.039 . S
O1337 C1327 1.265 . S
C1338 O1334 1.253 . S
C1338 O1339 1.227 . S
O1339 C1338 1.227 . S
N1340 Co1326 2.140 . S
N1340 C1343 1.346 . S
N1340 C1344 1.345 . S
C1341 C1342 1.387 . S
C1341 C1345 1.391 . S
C1342 C1341 1.387 . S
C1342 C1343 1.369 . S
C1342 H1351 0.929 . S
C1343 N1340 1.346 . S
C1343 C1342 1.369 . S
C1343 H1346 0.928 . S
C1344 N1340 1.345 . S
C1344 C1345 1.371 . S
C1344 H1347 0.931 . S
C1345 C1341 1.391 . S
C1345 C1344 1.371 . S
C1345 H1352 0.930 . S
H1346 C1343 0.928 . S
H1347 C1344 0.931 . S
H1348 C1324 0.930 . S
H1349 C1321 0.930 . S
H1350 C1330 0.930 . S
H1351 C1342 0.929 . S
H1352 C1345 0.930 . S
C1353 C1354 1.351 . S
C1353 N1356 1.368 . S
C1353 H1358 0.931 . S
C1354 C1353 1.351 . S
C1354 N1355 1.373 . S
C1354 H1382 0.930 . S
N1355 C1354 1.373 . S
N1355 C1357 1.340 . S
N1356 C1353 1.368 . S
N1356 C1357 1.321 . S
N1356 Co1359 2.135 . S
C1357 N1355 1.340 . S
C1357 N1356 1.321 . S
C1357 H1381 0.930 . S
H1358 C1353 0.931 . S
Co1359 N1356 2.135 . S
Co1359 N1362 2.121 . S
Co1359 O1367 2.055 . S
Co1359 O1370 2.039 . S
Co1359 N1373 2.140 . S
C1360 O1361 1.227 . S
C1360 O1370 1.265 . S
O1361 C1360 1.227 . S
N1362 Co1359 2.121 . S
N1362 C1364 1.375 . S
N1362 C1365 1.313 . S
C1363 C1364 1.338 . S
C1363 N1366 1.377 . S
C1363 H1383 0.930 . S
C1364 N1362 1.375 . S
C1364 C1363 1.338 . S
C1364 H1368 0.931 . S
C1365 N1362 1.313 . S
C1365 N1366 1.344 . S
C1365 H1369 0.930 . S
N1366 C1363 1.377 . S
N1366 C1365 1.344 . S
O1367 Co1359 2.055 . S
O1367 C1371 1.253 . S
H1368 C1364 0.931 . S
H1369 C1365 0.930 . S
O1370 Co1359 2.039 . S
O1370 C1360 1.265 . S
C1371 O1367 1.253 . S
C1371 O1372 1.227 . S
O1372 C1371 1.227 . S
N1373 Co1359 2.140 . S
N1373 C1376 1.346 . S
N1373 C1377 1.345 . S
C1374 C1375 1.387 . S
C1374 C1378 1.391 . S
C1375 C1374 1.387 . S
C1375 C1376 1.369 . S
C1375 H1384 0.929 . S
C1376 N1373 1.346 . S
C1376 C1375 1.369 . S
C1376 H1379 0.928 . S
C1377 N1373 1.345 . S
C1377 C1378 1.371 . S
C1377 H1380 0.931 . S
C1378 C1374 1.391 . S
C1378 C1377 1.371 . S
C1378 H1385 0.930 . S
H1379 C1376 0.928 . S
H1380 C1377 0.931 . S
H1381 C1357 0.930 . S
H1382 C1354 0.930 . S
H1383 C1363 0.930 . S
H1384 C1375 0.929 . S
H1385 C1378 0.930 . S
C1386 C1387 1.351 . S
C1386 N1389 1.368 . S
C1386 H1391 0.931 . S
C1387 C1386 1.351 . S
C1387 N1388 1.373 . S
C1387 H1415 0.930 . S
N1388 C1387 1.373 . S
N1388 C1390 1.340 . S
N1389 C1386 1.368 . S
N1389 C1390 1.321 . S
N1389 Co1392 2.135 . S
C1390 N1388 1.340 . S
C1390 N1389 1.321 . S
C1390 H1414 0.930 . S
H1391 C1386 0.931 . S
Co1392 N1389 2.135 . S
Co1392 N1395 2.121 . S
Co1392 O1400 2.055 . S
Co1392 O1403 2.039 . S
Co1392 N1406 2.140 . S
C1393 O1394 1.227 . S
C1393 O1403 1.265 . S
O1394 C1393 1.227 . S
N1395 Co1392 2.121 . S
N1395 C1397 1.375 . S
N1395 C1398 1.313 . S
C1396 C1397 1.338 . S
C1396 N1399 1.377 . S
C1396 H1416 0.930 . S
C1397 N1395 1.375 . S
C1397 C1396 1.338 . S
C1397 H1401 0.931 . S
C1398 N1395 1.313 . S
C1398 N1399 1.344 . S
C1398 H1402 0.930 . S
N1399 C1396 1.377 . S
N1399 C1398 1.344 . S
O1400 Co1392 2.055 . S
O1400 C1404 1.253 . S
H1401 C1397 0.931 . S
H1402 C1398 0.930 . S
O1403 Co1392 2.039 . S
O1403 C1393 1.265 . S
C1404 O1400 1.253 . S
C1404 O1405 1.227 . S
O1405 C1404 1.227 . S
N1406 Co1392 2.140 . S
N1406 C1409 1.346 . S
N1406 C1410 1.345 . S
C1407 C1408 1.387 . S
C1407 C1411 1.391 . S
C1408 C1407 1.387 . S
C1408 C1409 1.369 . S
C1408 H1417 0.929 . S
C1409 N1406 1.346 . S
C1409 C1408 1.369 . S
C1409 H1412 0.928 . S
C1410 N1406 1.345 . S
C1410 C1411 1.371 . S
C1410 H1413 0.931 . S
C1411 C1407 1.391 . S
C1411 C1410 1.371 . S
C1411 H1418 0.930 . S
H1412 C1409 0.928 . S
H1413 C1410 0.931 . S
H1414 C1390 0.930 . S
H1415 C1387 0.930 . S
H1416 C1396 0.930 . S
H1417 C1408 0.929 . S
H1418 C1411 0.930 . S
C1419 C1420 1.351 . S
C1419 N1422 1.368 . S
C1419 H1424 0.931 . S
C1420 C1419 1.351 . S
C1420 N1421 1.373 . S
C1420 H1448 0.930 . S
N1421 C1420 1.373 . S
N1421 C1423 1.340 . S
N1422 C1419 1.368 . S
N1422 C1423 1.321 . S
N1422 Co1425 2.135 . S
C1423 N1421 1.340 . S
C1423 N1422 1.321 . S
C1423 H1447 0.930 . S
H1424 C1419 0.931 . S
Co1425 N1422 2.135 . S
Co1425 N1428 2.121 . S
Co1425 O1433 2.055 . S
Co1425 O1436 2.039 . S
Co1425 N1439 2.140 . S
C1426 O1427 1.227 . S
C1426 O1436 1.265 . S
O1427 C1426 1.227 . S
N1428 Co1425 2.121 . S
N1428 C1430 1.375 . S
N1428 C1431 1.313 . S
C1429 C1430 1.338 . S
C1429 N1432 1.377 . S
C1429 H1449 0.930 . S
C1430 N1428 1.375 . S
C1430 C1429 1.338 . S
C1430 H1434 0.931 . S
C1431 N1428 1.313 . S
C1431 N1432 1.344 . S
C1431 H1435 0.930 . S
N1432 C1429 1.377 . S
N1432 C1431 1.344 . S
O1433 Co1425 2.055 . S
O1433 C1437 1.253 . S
H1434 C1430 0.931 . S
H1435 C1431 0.930 . S
O1436 Co1425 2.039 . S
O1436 C1426 1.265 . S
C1437 O1433 1.253 . S
C1437 O1438 1.227 . S
O1438 C1437 1.227 . S
N1439 Co1425 2.140 . S
N1439 C1442 1.346 . S
N1439 C1443 1.345 . S
C1440 C1441 1.387 . S
C1440 C1444 1.391 . S
C1441 C1440 1.387 . S
C1441 C1442 1.369 . S
C1441 H1450 0.929 . S
C1442 N1439 1.346 . S
C1442 C1441 1.369 . S
C1442 H1445 0.928 . S
C1443 N1439 1.345 . S
C1443 C1444 1.371 . S
C1443 H1446 0.931 . S
C1444 C1440 1.391 . S
C1444 C1443 1.371 . S
C1444 H1451 0.930 . S
H1445 C1442 0.928 . S
H1446 C1443 0.931 . S
H1447 C1423 0.930 . S
H1448 C1420 0.930 . S
H1449 C1429 0.930 . S
H1450 C1441 0.929 . S
H1451 C1444 0.930 . S
C1452 C1453 1.351 . S
C1452 N1455 1.368 . S
C1452 H1457 0.931 . S
C1453 C1452 1.351 . S
C1453 N1454 1.373 . S
C1453 H1481 0.930 . S
N1454 C1453 1.373 . S
N1454 C1456 1.340 . S
N1455 C1452 1.368 . S
N1455 C1456 1.321 . S
N1455 Co1458 2.135 . S
C1456 N1454 1.340 . S
C1456 N1455 1.321 . S
C1456 H1480 0.930 . S
H1457 C1452 0.931 . S
Co1458 N1455 2.135 . S
Co1458 N1461 2.121 . S
Co1458 O1466 2.055 . S
Co1458 O1469 2.039 . S
Co1458 N1472 2.140 . S
C1459 O1460 1.227 . S
C1459 O1469 1.265 . S
O1460 C1459 1.227 . S
N1461 Co1458 2.121 . S
N1461 C1463 1.375 . S
N1461 C1464 1.313 . S
C1462 C1463 1.338 . S
C1462 N1465 1.377 . S
C1462 H1482 0.930 . S
C1463 N1461 1.375 . S
C1463 C1462 1.338 . S
C1463 H1467 0.931 . S
C1464 N1461 1.313 . S
C1464 N1465 1.344 . S
C1464 H1468 0.930 . S
N1465 C1462 1.377 . S
N1465 C1464 1.344 . S
O1466 Co1458 2.055 . S
O1466 C1470 1.253 . S
H1467 C1463 0.931 . S
H1468 C1464 0.930 . S
O1469 Co1458 2.039 . S
O1469 C1459 1.265 . S
C1470 O1466 1.253 . S
C1470 O1471 1.227 . S
O1471 C1470 1.227 . S
N1472 Co1458 2.140 . S
N1472 C1475 1.346 . S
N1472 C1476 1.345 . S
C1473 C1474 1.387 . S
C1473 C1477 1.391 . S
C1474 C1473 1.387 . S
C1474 C1475 1.369 . S
C1474 H1483 0.929 . S
C1475 N1472 1.346 . S
C1475 C1474 1.369 . S
C1475 H1478 0.928 . S
C1476 N1472 1.345 . S
C1476 C1477 1.371 . S
C1476 H1479 0.931 . S
C1477 C1473 1.391 . S
C1477 C1476 1.371 . S
C1477 H1484 0.930 . S
H1478 C1475 0.928 . S
H1479 C1476 0.931 . S
H1480 C1456 0.930 . S
H1481 C1453 0.930 . S
H1482 C1462 0.930 . S
H1483 C1474 0.929 . S
H1484 C1477 0.930 . S
C1485 C1486 1.351 . S
C1485 N1488 1.368 . S
C1485 H1490 0.931 . S
C1486 C1485 1.351 . S
C1486 N1487 1.373 . S
C1486 H1514 0.930 . S
N1487 C1486 1.373 . S
N1487 C1489 1.340 . S
N1488 C1485 1.368 . S
N1488 C1489 1.321 . S
N1488 Co1491 2.135 . S
C1489 N1487 1.340 . S
C1489 N1488 1.321 . S
C1489 H1513 0.930 . S
H1490 C1485 0.931 . S
Co1491 N1488 2.135 . S
Co1491 N1494 2.121 . S
Co1491 O1499 2.055 . S
Co1491 O1502 2.039 . S
Co1491 N1505 2.140 . S
C1492 O1493 1.227 . S
C1492 O1502 1.265 . S
O1493 C1492 1.227 . S
N1494 Co1491 2.121 . S
N1494 C1496 1.375 . S
N1494 C1497 1.313 . S
C1495 C1496 1.338 . S
C1495 N1498 1.377 . S
C1495 H1515 0.930 . S
C1496 N1494 1.375 . S
C1496 C1495 1.338 . S
C1496 H1500 0.931 . S
C1497 N1494 1.313 . S
C1497 N1498 1.344 . S
C1497 H1501 0.930 . S
N1498 C1495 1.377 . S
N1498 C1497 1.344 . S
O1499 Co1491 2.055 . S
O1499 C1503 1.253 . S
H1500 C1496 0.931 . S
H1501 C1497 0.930 . S
O1502 Co1491 2.039 . S
O1502 C1492 1.265 . S
C1503 O1499 1.253 . S
C1503 O1504 1.227 . S
O1504 C1503 1.227 . S
N1505 Co1491 2.140 . S
N1505 C1508 1.346 . S
N1505 C1509 1.345 . S
C1506 C1507 1.387 . S
C1506 C1510 1.391 . S
C1507 C1506 1.387 . S
C1507 C1508 1.369 . S
C1507 H1516 0.929 . S
C1508 N1505 1.346 . S
C1508 C1507 1.369 . S
C1508 H1511 0.928 . S
C1509 N1505 1.345 . S
C1509 C1510 1.371 . S
C1509 H1512 0.931 . S
C1510 C1506 1.391 . S
C1510 C1509 1.371 . S
C1510 H1517 0.930 . S
H1511 C1508 0.928 . S
H1512 C1509 0.931 . S
H1513 C1489 0.930 . S
H1514 C1486 0.930 . S
H1515 C1495 0.930 . S
H1516 C1507 0.929 . S
H1517 C1510 0.930 . S
C1518 C1519 1.351 . S
C1518 N1521 1.368 . S
C1518 H1523 0.931 . S
C1519 C1518 1.351 . S
C1519 N1520 1.373 . S
C1519 H1547 0.930 . S
N1520 C1519 1.373 . S
N1520 C1522 1.340 . S
N1521 C1518 1.368 . S
N1521 C1522 1.321 . S
N1521 Co1524 2.135 . S
C1522 N1520 1.340 . S
C1522 N1521 1.321 . S
C1522 H1546 0.930 . S
H1523 C1518 0.931 . S
Co1524 N1521 2.135 . S
Co1524 N1527 2.121 . S
Co1524 O1532 2.055 . S
Co1524 O1535 2.039 . S
Co1524 N1538 2.140 . S
C1525 O1526 1.227 . S
C1525 O1535 1.265 . S
O1526 C1525 1.227 . S
N1527 Co1524 2.121 . S
N1527 C1529 1.375 . S
N1527 C1530 1.313 . S
C1528 C1529 1.338 . S
C1528 N1531 1.377 . S
C1528 H1548 0.930 . S
C1529 N1527 1.375 . S
C1529 C1528 1.338 . S
C1529 H1533 0.931 . S
C1530 N1527 1.313 . S
C1530 N1531 1.344 . S
C1530 H1534 0.930 . S
N1531 C1528 1.377 . S
N1531 C1530 1.344 . S
O1532 Co1524 2.055 . S
O1532 C1536 1.253 . S
H1533 C1529 0.931 . S
H1534 C1530 0.930 . S
O1535 Co1524 2.039 . S
O1535 C1525 1.265 . S
C1536 O1532 1.253 . S
C1536 O1537 1.227 . S
O1537 C1536 1.227 . S
N1538 Co1524 2.140 . S
N1538 C1541 1.346 . S
N1538 C1542 1.345 . S
C1539 C1540 1.387 . S
C1539 C1543 1.391 . S
C1540 C1539 1.387 . S
C1540 C1541 1.369 . S
C1540 H1549 0.929 . S
C1541 N1538 1.346 . S
C1541 C1540 1.369 . S
C1541 H1544 0.928 . S
C1542 N1538 1.345 . S
C1542 C1543 1.371 . S
C1542 H1545 0.931 . S
C1543 C1539 1.391 . S
C1543 C1542 1.371 . S
C1543 H1550 0.930 . S
H1544 C1541 0.928 . S
H1545 C1542 0.931 . S
H1546 C1522 0.930 . S
H1547 C1519 0.930 . S
H1548 C1528 0.930 . S
H1549 C1540 0.929 . S
H1550 C1543 0.930 . S
C1551 C1552 1.351 . S
C1551 N1554 1.368 . S
C1551 H1556 0.931 . S
C1552 C1551 1.351 . S
C1552 N1553 1.373 . S
C1552 H1580 0.930 . S
N1553 C1552 1.373 . S
N1553 C1555 1.340 . S
N1554 C1551 1.368 . S
N1554 C1555 1.321 . S
N1554 Co1557 2.135 . S
C1555 N1553 1.340 . S
C1555 N1554 1.321 . S
C1555 H1579 0.930 . S
H1556 C1551 0.931 . S
Co1557 N1554 2.135 . S
Co1557 N1560 2.121 . S
Co1557 O1565 2.055 . S
Co1557 O1568 2.039 . S
Co1557 N1571 2.140 . S
C1558 O1559 1.227 . S
C1558 O1568 1.265 . S
O1559 C1558 1.227 . S
N1560 Co1557 2.121 . S
N1560 C1562 1.375 . S
N1560 C1563 1.313 . S
C1561 C1562 1.338 . S
C1561 N1564 1.377 . S
C1561 H1581 0.930 . S
C1562 N1560 1.375 . S
C1562 C1561 1.338 . S
C1562 H1566 0.931 . S
C1563 N1560 1.313 . S
C1563 N1564 1.344 . S
C1563 H1567 0.930 . S
N1564 C1561 1.377 . S
N1564 C1563 1.344 . S
O1565 Co1557 2.055 . S
O1565 C1569 1.253 . S
H1566 C1562 0.931 . S
H1567 C1563 0.930 . S
O1568 Co1557 2.039 . S
O1568 C1558 1.265 . S
C1569 O1565 1.253 . S
C1569 O1570 1.227 . S
O1570 C1569 1.227 . S
N1571 Co1557 2.140 . S
N1571 C1574 1.346 . S
N1571 C1575 1.345 . S
C1572 C1573 1.387 . S
C1572 C1576 1.391 . S
C1573 C1572 1.387 . S
C1573 C1574 1.369 . S
C1573 H1582 0.929 . S
C1574 N1571 1.346 . S
C1574 C1573 1.369 . S
C1574 H1577 0.928 . S
C1575 N1571 1.345 . S
C1575 C1576 1.371 . S
C1575 H1578 0.931 . S
C1576 C1572 1.391 . S
C1576 C1575 1.371 . S
C1576 H1583 0.930 . S
H1577 C1574 0.928 . S
H1578 C1575 0.931 . S
H1579 C1555 0.930 . S
H1580 C1552 0.930 . S
H1581 C1561 0.930 . S
H1582 C1573 0.929 . S
H1583 C1576 0.930 . S
C1584 C1585 1.369 . S
C1584 C1586 1.419 . S
C1584 H1588 0.930 . S
C1585 C1584 1.369 . S
C1585 C1594 1.429 . S
C1586 C1584 1.419 . S
C1586 C1587 1.363 . S
C1586 H1589 0.929 . S
C1587 C1586 1.363 . S
C1587 C1593 1.428 . S
H1588 C1584 0.930 . S
H1589 C1586 0.929 . S
S1590 N1591 1.613 . S
S1590 N1592 1.610 . S
N1591 S1590 1.613 . S
N1591 C1594 1.350 . S
N1592 S1590 1.610 . S
N1592 C1593 1.351 . S
C1593 C1587 1.428 . S
C1593 N1592 1.351 . S
C1593 C1594 1.434 . S
C1594 C1585 1.429 . S
C1594 N1591 1.350 . S
C1594 C1593 1.434 . S
C1595 C1596 1.369 . S
C1595 C1597 1.419 . S
C1595 H1599 0.930 . S
C1596 C1595 1.369 . S
C1596 C1605 1.429 . S
C1597 C1595 1.419 . S
C1597 C1598 1.363 . S
C1597 H1600 0.929 . S
C1598 C1597 1.363 . S
C1598 C1604 1.428 . S
H1599 C1595 0.930 . S
H1600 C1597 0.929 . S
S1601 N1602 1.613 . S
S1601 N1603 1.610 . S
N1602 S1601 1.613 . S
N1602 C1605 1.350 . S
N1603 S1601 1.610 . S
N1603 C1604 1.351 . S
C1604 C1598 1.428 . S
C1604 N1603 1.351 . S
C1604 C1605 1.434 . S
C1605 C1596 1.429 . S
C1605 N1602 1.350 . S
C1605 C1604 1.434 . S
C1606 C1607 1.369 . S
C1606 C1608 1.419 . S
C1606 H1610 0.930 . S
C1607 C1606 1.369 . S
C1607 C1616 1.429 . S
C1608 C1606 1.419 . S
C1608 C1609 1.363 . S
C1608 H1611 0.929 . S
C1609 C1608 1.363 . S
C1609 C1615 1.428 . S
H1610 C1606 0.930 . S
H1611 C1608 0.929 . S
S1612 N1613 1.613 . S
S1612 N1614 1.610 . S
N1613 S1612 1.613 . S
N1613 C1616 1.350 . S
N1614 S1612 1.610 . S
N1614 C1615 1.351 . S
C1615 C1609 1.428 . S
C1615 N1614 1.351 . S
C1615 C1616 1.434 . S
C1616 C1607 1.429 . S
C1616 N1613 1.350 . S
C1616 C1615 1.434 . S
C1617 C1618 1.369 . S
C1617 C1619 1.419 . S
C1617 H1621 0.930 . S
C1618 C1617 1.369 . S
C1618 C1627 1.429 . S
C1619 C1617 1.419 . S
C1619 C1620 1.363 . S
C1619 H1622 0.929 . S
C1620 C1619 1.363 . S
C1620 C1626 1.428 . S
H1621 C1617 0.930 . S
H1622 C1619 0.929 . S
S1623 N1624 1.613 . S
S1623 N1625 1.610 . S
N1624 S1623 1.613 . S
N1624 C1627 1.350 . S
N1625 S1623 1.610 . S
N1625 C1626 1.351 . S
C1626 C1620 1.428 . S
C1626 N1625 1.351 . S
C1626 C1627 1.434 . S
C1627 C1618 1.429 . S
C1627 N1624 1.350 . S
C1627 C1626 1.434 . S
C1628 C1629 1.369 . S
C1628 C1630 1.419 . S
C1628 H1632 0.930 . S
C1629 C1628 1.369 . S
C1629 C1638 1.429 . S
C1630 C1628 1.419 . S
C1630 C1631 1.363 . S
C1630 H1633 0.929 . S
C1631 C1630 1.363 . S
C1631 C1637 1.428 . S
H1632 C1628 0.930 . S
H1633 C1630 0.929 . S
S1634 N1635 1.613 . S
S1634 N1636 1.610 . S
N1635 S1634 1.613 . S
N1635 C1638 1.350 . S
N1636 S1634 1.610 . S
N1636 C1637 1.351 . S
C1637 C1631 1.428 . S
C1637 N1636 1.351 . S
C1637 C1638 1.434 . S
C1638 C1629 1.429 . S
C1638 N1635 1.350 . S
C1638 C1637 1.434 . S
C1639 C1640 1.369 . S
C1639 C1641 1.419 . S
C1639 H1643 0.930 . S
C1640 C1639 1.369 . S
C1640 C1649 1.429 . S
C1641 C1639 1.419 . S
C1641 C1642 1.363 . S
C1641 H1644 0.929 . S
C1642 C1641 1.363 . S
C1642 C1648 1.428 . S
H1643 C1639 0.930 . S
H1644 C1641 0.929 . S
S1645 N1646 1.613 . S
S1645 N1647 1.610 . S
N1646 S1645 1.613 . S
N1646 C1649 1.350 . S
N1647 S1645 1.610 . S
N1647 C1648 1.351 . S
C1648 C1642 1.428 . S
C1648 N1647 1.351 . S
C1648 C1649 1.434 . S
C1649 C1640 1.429 . S
C1649 N1646 1.350 . S
C1649 C1648 1.434 . S
C1650 C1651 1.369 . S
C1650 C1652 1.419 . S
C1650 H1654 0.930 . S
C1651 C1650 1.369 . S
C1651 C1660 1.429 . S
C1652 C1650 1.419 . S
C1652 C1653 1.363 . S
C1652 H1655 0.929 . S
C1653 C1652 1.363 . S
C1653 C1659 1.428 . S
H1654 C1650 0.930 . S
H1655 C1652 0.929 . S
S1656 N1657 1.613 . S
S1656 N1658 1.610 . S
N1657 S1656 1.613 . S
N1657 C1660 1.350 . S
N1658 S1656 1.610 . S
N1658 C1659 1.351 . S
C1659 C1653 1.428 . S
C1659 N1658 1.351 . S
C1659 C1660 1.434 . S
C1660 C1651 1.429 . S
C1660 N1657 1.350 . S
C1660 C1659 1.434 . S
C1661 C1662 1.369 . S
C1661 C1663 1.419 . S
C1661 H1665 0.930 1_455 S
C1662 C1661 1.369 . S
C1662 C1671 1.429 . S
C1663 C1661 1.419 . S
C1663 C1664 1.363 . S
C1663 H1666 0.929 . S
C1664 C1663 1.363 . S
C1664 C1670 1.428 . S
H1665 C1661 0.930 1_655 S
H1666 C1663 0.929 . S
S1667 N1668 1.613 . S
S1667 N1669 1.610 . S
N1668 S1667 1.613 . S
N1668 C1671 1.350 . S
N1669 S1667 1.610 . S
N1669 C1670 1.351 . S
C1670 C1664 1.428 . S
C1670 N1669 1.351 . S
C1670 C1671 1.434 . S
C1671 C1662 1.429 . S
C1671 N1668 1.350 . S
C1671 C1670 1.434 . S
C1672 C1673 1.369 . S
C1672 C1674 1.419 . S
C1672 H1676 0.930 . S
C1673 C1672 1.369 . S
C1673 C1682 1.429 . S
C1674 C1672 1.419 . S
C1674 C1675 1.363 . S
C1674 H1677 0.929 . S
C1675 C1674 1.363 . S
C1675 C1681 1.428 . S
H1676 C1672 0.930 . S
H1677 C1674 0.929 . S
S1678 N1679 1.613 . S
S1678 N1680 1.610 . S
N1679 S1678 1.613 . S
N1679 C1682 1.350 . S
N1680 S1678 1.610 . S
N1680 C1681 1.351 . S
C1681 C1675 1.428 . S
C1681 N1680 1.351 . S
C1681 C1682 1.434 . S
C1682 C1673 1.429 . S
C1682 N1679 1.350 . S
C1682 C1681 1.434 . S
C1683 C1684 1.369 . S
C1683 C1685 1.419 . S
C1683 H1687 0.918 1_556 S
C1684 C1683 1.369 . S
C1684 C1693 1.429 . S
C1685 C1683 1.419 . S
C1685 C1686 1.363 . S
C1685 H1688 0.929 . S
C1686 C1685 1.363 . S
C1686 C1692 1.428 . S
H1687 C1683 0.918 1_554 S
H1688 C1685 0.929 . S
S1689 N1690 1.613 . S
S1689 N1691 1.610 . S
N1690 S1689 1.613 . S
N1690 C1693 1.350 . S
N1691 S1689 1.610 . S
N1691 C1692 1.351 . S
C1692 C1686 1.428 . S
C1692 N1691 1.351 . S
C1692 C1693 1.434 . S
C1693 C1684 1.429 . S
C1693 N1690 1.350 . S
C1693 C1692 1.434 . S
C1694 C1695 1.369 . S
C1694 C1696 1.419 . S
C1694 H1698 0.930 . S
C1695 C1694 1.369 . S
C1695 C1704 1.429 . S
C1696 C1694 1.419 . S
C1696 C1697 1.363 . S
C1696 H1699 0.929 . S
C1697 C1696 1.363 . S
C1697 C1703 1.428 . S
H1698 C1694 0.930 . S
H1699 C1696 0.929 . S
S1700 N1701 1.613 . S
S1700 N1702 1.610 . S
N1701 S1700 1.613 . S
N1701 C1704 1.350 . S
N1702 S1700 1.610 . S
N1702 C1703 1.351 . S
C1703 C1697 1.428 . S
C1703 N1702 1.351 . S
C1703 C1704 1.434 . S
C1704 C1695 1.429 . S
C1704 N1701 1.350 . S
C1704 C1703 1.434 . S
C1705 C1706 1.369 . S
C1705 C1707 1.419 . S
C1705 H1709 0.930 . S
C1706 C1705 1.369 . S
C1706 C1715 1.429 . S
C1707 C1705 1.419 . S
C1707 C1708 1.363 . S
C1707 H1710 0.929 . S
C1708 C1707 1.363 . S
C1708 C1714 1.428 . S
H1709 C1705 0.930 . S
H1710 C1707 0.929 . S
S1711 N1712 1.613 . S
S1711 N1713 1.610 1_556 S
N1712 S1711 1.613 . S
N1712 C1715 1.350 . S
N1713 S1711 1.610 1_554 S
N1713 C1714 1.351 1_554 S
C1714 C1708 1.428 . S
C1714 N1713 1.351 1_556 S
C1714 C1715 1.434 . S
C1715 C1706 1.429 . S
C1715 N1712 1.350 . S
C1715 C1714 1.434 . S
C1716 C1717 1.369 . S
C1716 C1718 1.419 . S
C1716 H1720 0.930 . S
C1717 C1716 1.369 . S
C1717 C1726 1.429 . S
C1718 C1716 1.419 . S
C1718 C1719 1.363 . S
C1718 H1721 0.929 . S
C1719 C1718 1.363 . S
C1719 C1725 1.428 . S
H1720 C1716 0.930 . S
H1721 C1718 0.929 . S
S1722 N1723 1.613 . S
S1722 N1724 1.610 . S
N1723 S1722 1.613 . S
N1723 C1726 1.350 . S
N1724 S1722 1.610 . S
N1724 C1725 1.351 . S
C1725 C1719 1.428 . S
C1725 N1724 1.351 . S
C1725 C1726 1.434 . S
C1726 C1717 1.429 . S
C1726 N1723 1.350 . S
C1726 C1725 1.434 . S
C1727 C1728 1.369 . S
C1727 C1729 1.419 . S
C1727 H1731 0.930 . S
C1728 C1727 1.369 . S
C1728 C1737 1.429 . S
C1729 C1727 1.419 . S
C1729 C1730 1.363 . S
C1729 H1732 0.929 . S
C1730 C1729 1.363 . S
C1730 C1736 1.428 . S
H1731 C1727 0.930 . S
H1732 C1729 0.929 . S
S1733 N1734 1.613 . S
S1733 N1735 1.610 1_554 S
N1734 S1733 1.613 . S
N1734 C1737 1.350 . S
N1735 S1733 1.610 1_556 S
N1735 C1736 1.351 1_556 S
C1736 C1730 1.428 . S
C1736 N1735 1.351 1_554 S
C1736 C1737 1.434 . S
C1737 C1728 1.429 . S
C1737 N1734 1.350 . S
C1737 C1736 1.434 . S
C1738 C1739 1.369 . S
C1738 C1740 1.419 . S
C1738 H1742 0.930 . S
C1739 C1738 1.369 . S
C1739 C1748 1.429 . S
C1740 C1738 1.419 . S
C1740 C1741 1.363 . S
C1740 H1743 0.929 . S
C1741 C1740 1.363 . S
C1741 C1747 1.428 . S
H1742 C1738 0.930 . S
H1743 C1740 0.929 . S
S1744 N1745 1.613 . S
S1744 N1746 1.610 . S
N1745 S1744 1.613 . S
N1745 C1748 1.350 . S
N1746 S1744 1.610 . S
N1746 C1747 1.351 . S
C1747 C1741 1.428 . S
C1747 N1746 1.351 . S
C1747 C1748 1.434 . S
C1748 C1739 1.429 . S
C1748 N1745 1.350 . S
C1748 C1747 1.434 . S
C1749 C1750 1.369 . S
C1749 C1751 1.419 . S
C1749 H1753 0.930 . S
C1750 C1749 1.369 . S
C1750 C1759 1.429 . S
C1751 C1749 1.419 . S
C1751 C1752 1.363 . S
C1751 H1754 0.929 . S
C1752 C1751 1.363 . S
C1752 C1758 1.428 . S
H1753 C1749 0.930 . S
H1754 C1751 0.929 . S
S1755 N1756 1.613 . S
S1755 N1757 1.610 . S
N1756 S1755 1.613 . S
N1756 C1759 1.350 . S
N1757 S1755 1.610 . S
N1757 C1758 1.351 . S
C1758 C1752 1.428 . S
C1758 N1757 1.351 . S
C1758 C1759 1.434 . S
C1759 C1750 1.429 . S
C1759 N1756 1.350 . S
C1759 C1758 1.434 . S
C1760 C1761 1.369 . S
C1760 C1762 1.419 . S
C1760 H1764 0.930 . S
C1761 C1760 1.369 . S
C1761 C1770 1.429 . S
C1762 C1760 1.419 . S
C1762 C1763 1.363 . S
C1762 H1765 0.929 . S
C1763 C1762 1.363 . S
C1763 C1769 1.428 . S
H1764 C1760 0.930 . S
H1765 C1762 0.929 . S
S1766 N1767 1.613 . S
S1766 N1768 1.610 . S
N1767 S1766 1.613 . S
N1767 C1770 1.350 . S
N1768 S1766 1.610 . S
N1768 C1769 1.351 . S
C1769 C1763 1.428 . S
C1769 N1768 1.351 . S
C1769 C1770 1.434 . S
C1770 C1761 1.429 . S
C1770 N1767 1.350 . S
C1770 C1769 1.434 . S
C1771 C1772 1.369 . S
C1771 C1773 1.419 . S
C1771 H1775 0.930 . S
C1772 C1771 1.369 . S
C1772 C1781 1.429 . S
C1773 C1771 1.419 . S
C1773 C1774 1.363 . S
C1773 H1776 0.929 . S
C1774 C1773 1.363 . S
C1774 C1780 1.428 . S
H1775 C1771 0.930 . S
H1776 C1773 0.929 . S
S1777 N1778 1.613 . S
S1777 N1779 1.610 . S
N1778 S1777 1.613 . S
N1778 C1781 1.350 . S
N1779 S1777 1.610 . S
N1779 C1780 1.351 . S
C1780 C1774 1.428 . S
C1780 N1779 1.351 . S
C1780 C1781 1.434 . S
C1781 C1772 1.429 . S
C1781 N1778 1.350 . S
C1781 C1780 1.434 . S
C1782 C1783 1.369 . S
C1782 C1784 1.419 . S
C1782 H1786 0.930 . S
C1783 C1782 1.369 . S
C1783 C1792 1.429 . S
C1784 C1782 1.419 . S
C1784 C1785 1.363 . S
C1784 H1787 0.929 . S
C1785 C1784 1.363 . S
C1785 C1791 1.428 . S
H1786 C1782 0.930 . S
H1787 C1784 0.929 . S
S1788 N1789 1.613 . S
S1788 N1790 1.610 . S
N1789 S1788 1.613 . S
N1789 C1792 1.350 . S
N1790 S1788 1.610 . S
N1790 C1791 1.351 . S
C1791 C1785 1.428 . S
C1791 N1790 1.351 . S
C1791 C1792 1.434 . S
C1792 C1783 1.429 . S
C1792 N1789 1.350 . S
C1792 C1791 1.434 . S
C1793 C1794 1.369 . S
C1793 C1795 1.419 . S
C1793 H1797 0.930 . S
C1794 C1793 1.369 . S
C1794 C1803 1.429 . S
C1795 C1793 1.419 . S
C1795 C1796 1.363 . S
C1795 H1798 0.929 . S
C1796 C1795 1.363 . S
C1796 C1802 1.428 . S
H1797 C1793 0.930 . S
H1798 C1795 0.929 . S
S1799 N1800 1.613 . S
S1799 N1801 1.610 . S
N1800 S1799 1.613 . S
N1800 C1803 1.350 . S
N1801 S1799 1.610 . S
N1801 C1802 1.351 . S
C1802 C1796 1.428 . S
C1802 N1801 1.351 . S
C1802 C1803 1.434 . S
C1803 C1794 1.429 . S
C1803 N1800 1.350 . S
C1803 C1802 1.434 . S
C1804 C1805 1.369 . S
C1804 C1806 1.419 . S
C1804 H1808 0.930 . S
C1805 C1804 1.369 . S
C1805 C1814 1.429 . S
C1806 C1804 1.419 . S
C1806 C1807 1.363 . S
C1806 H1809 0.929 . S
C1807 C1806 1.363 . S
C1807 C1813 1.428 . S
H1808 C1804 0.930 . S
H1809 C1806 0.929 . S
S1810 N1811 1.613 . S
S1810 N1812 1.610 . S
N1811 S1810 1.613 . S
N1811 C1814 1.350 . S
N1812 S1810 1.610 . S
N1812 C1813 1.351 . S
C1813 C1807 1.428 . S
C1813 N1812 1.351 . S
C1813 C1814 1.434 . S
C1814 C1805 1.429 . S
C1814 N1811 1.350 . S
C1814 C1813 1.434 . S
C1815 C1816 1.369 . S
C1815 C1817 1.419 . S
C1815 H1819 0.930 . S
C1816 C1815 1.369 . S
C1816 C1825 1.429 . S
C1817 C1815 1.419 . S
C1817 C1818 1.363 . S
C1817 H1820 0.929 . S
C1818 C1817 1.363 . S
C1818 C1824 1.428 . S
H1819 C1815 0.930 . S
H1820 C1817 0.929 . S
S1821 N1822 1.613 . S
S1821 N1823 1.610 . S
N1822 S1821 1.613 . S
N1822 C1825 1.350 . S
N1823 S1821 1.610 . S
N1823 C1824 1.351 . S
C1824 C1818 1.428 . S
C1824 N1823 1.351 . S
C1824 C1825 1.434 . S
C1825 C1816 1.429 . S
C1825 N1822 1.350 . S
C1825 C1824 1.434 . S
C1826 C1827 1.369 . S
C1826 C1828 1.419 . S
C1826 H1830 0.930 . S
C1827 C1826 1.369 . S
C1827 C1836 1.429 . S
C1828 C1826 1.419 . S
C1828 C1829 1.363 . S
C1828 H1831 0.929 . S
C1829 C1828 1.363 . S
C1829 C1835 1.428 . S
H1830 C1826 0.930 . S
H1831 C1828 0.929 . S
S1832 N1833 1.613 . S
S1832 N1834 1.610 . S
N1833 S1832 1.613 . S
N1833 C1836 1.350 . S
N1834 S1832 1.610 . S
N1834 C1835 1.351 . S
C1835 C1829 1.428 . S
C1835 N1834 1.351 . S
C1835 C1836 1.434 . S
C1836 C1827 1.429 . S
C1836 N1833 1.350 . S
C1836 C1835 1.434 . S
C1837 C1838 1.369 . S
C1837 C1839 1.419 . S
C1837 H1841 0.930 . S
C1838 C1837 1.369 . S
C1838 C1847 1.429 . S
C1839 C1837 1.419 . S
C1839 C1840 1.363 . S
C1839 H1842 0.929 . S
C1840 C1839 1.363 . S
C1840 C1846 1.428 . S
H1841 C1837 0.930 . S
H1842 C1839 0.929 . S
S1843 N1844 1.613 . S
S1843 N1845 1.610 1_545 S
N1844 S1843 1.613 . S
N1844 C1847 1.350 1_545 S
N1845 S1843 1.610 1_565 S
N1845 C1846 1.351 . S
C1846 C1840 1.428 . S
C1846 N1845 1.351 . S
C1846 C1847 1.434 . S
C1847 C1838 1.429 . S
C1847 N1844 1.350 1_565 S
C1847 C1846 1.434 . S
C1848 C1849 1.369 . S
C1848 C1850 1.419 . S
C1848 H1852 0.930 . S
C1849 C1848 1.369 . S
C1849 C1858 1.429 . S
C1850 C1848 1.419 . S
C1850 C1851 1.363 . S
C1850 H1853 0.929 . S
C1851 C1850 1.363 . S
C1851 C1857 1.428 . S
H1852 C1848 0.930 . S
H1853 C1850 0.929 . S
S1854 N1855 1.613 . S
S1854 N1856 1.610 . S
N1855 S1854 1.613 . S
N1855 C1858 1.350 . S
N1856 S1854 1.610 . S
N1856 C1857 1.351 . S
C1857 C1851 1.428 . S
C1857 N1856 1.351 . S
C1857 C1858 1.434 . S
C1858 C1849 1.429 . S
C1858 N1855 1.350 . S
C1858 C1857 1.434 . S
C1859 C1860 1.369 . S
C1859 C1861 1.419 . S
C1859 H1863 0.930 . S
C1860 C1859 1.369 . S
C1860 C1869 1.429 . S
C1861 C1859 1.419 . S
C1861 C1862 1.363 . S
C1861 H1864 0.929 . S
C1862 C1861 1.363 . S
C1862 C1868 1.428 . S
H1863 C1859 0.930 . S
H1864 C1861 0.929 . S
S1865 N1866 1.613 . S
S1865 N1867 1.610 1_655 S
N1866 S1865 1.613 . S
N1866 C1869 1.350 1_655 S
N1867 S1865 1.610 1_455 S
N1867 C1868 1.351 . S
C1868 C1862 1.428 . S
C1868 N1867 1.351 . S
C1868 C1869 1.434 . S
C1869 C1860 1.429 . S
C1869 N1866 1.350 1_455 S
C1869 C1868 1.434 . S
C1870 C1871 1.369 . S
C1870 C1872 1.419 . S
C1870 H1874 0.930 . S
C1871 C1870 1.369 . S
C1871 C1880 1.429 . S
C1872 C1870 1.419 . S
C1872 C1873 1.363 . S
C1872 H1875 0.929 . S
C1873 C1872 1.363 . S
C1873 C1879 1.428 . S
H1874 C1870 0.930 . S
H1875 C1872 0.929 . S
S1876 N1877 1.613 . S
S1876 N1878 1.610 . S
N1877 S1876 1.613 . S
N1877 C1880 1.350 . S
N1878 S1876 1.610 . S
N1878 C1879 1.351 . S
C1879 C1873 1.428 . S
C1879 N1878 1.351 . S
C1879 C1880 1.434 . S
C1880 C1871 1.429 . S
C1880 N1877 1.350 . S
C1880 C1879 1.434 . S
C1881 C1882 1.369 . S
C1881 C1883 1.419 . S
C1881 H1885 0.930 . S
C1882 C1881 1.369 . S
C1882 C1891 1.429 . S
C1883 C1881 1.419 . S
C1883 C1884 1.363 . S
C1883 H1886 0.929 1_655 S
C1884 C1883 1.363 . S
C1884 C1890 1.428 . S
H1885 C1881 0.930 . S
H1886 C1883 0.929 1_455 S
S1887 N1888 1.613 . S
S1887 N1889 1.610 . S
N1888 S1887 1.613 . S
N1888 C1891 1.350 . S
N1889 S1887 1.610 . S
N1889 C1890 1.351 . S
C1890 C1884 1.428 . S
C1890 N1889 1.351 . S
C1890 C1891 1.434 . S
C1891 C1882 1.429 . S
C1891 N1888 1.350 . S
C1891 C1890 1.434 . S
C1892 C1893 1.369 . S
C1892 C1894 1.419 . S
C1892 H1896 0.930 . S
C1893 C1892 1.369 . S
C1893 C1902 1.429 . S
C1894 C1892 1.419 . S
C1894 C1895 1.363 . S
C1894 H1897 0.929 . S
C1895 C1894 1.363 . S
C1895 C1901 1.428 . S
H1896 C1892 0.930 . S
H1897 C1894 0.929 . S
S1898 N1899 1.613 . S
S1898 N1900 1.610 . S
N1899 S1898 1.613 . S
N1899 C1902 1.350 . S
N1900 S1898 1.610 . S
N1900 C1901 1.351 . S
C1901 C1895 1.428 . S
C1901 N1900 1.351 . S
C1901 C1902 1.434 . S
C1902 C1893 1.429 . S
C1902 N1899 1.350 . S
C1902 C1901 1.434 . S
C1903 C1904 1.369 . S
C1903 C1905 1.419 . S
C1903 H1907 0.930 . S
C1904 C1903 1.369 . S
C1904 C1913 1.429 . S
C1905 C1903 1.419 . S
C1905 C1906 1.363 . S
C1905 H1908 0.929 . S
C1906 C1905 1.363 . S
C1906 C1912 1.428 . S
H1907 C1903 0.930 . S
H1908 C1905 0.929 . S
S1909 N1910 1.613 . S
S1909 N1911 1.610 . S
N1910 S1909 1.613 . S
N1910 C1913 1.350 . S
N1911 S1909 1.610 . S
N1911 C1912 1.351 . S
C1912 C1906 1.428 . S
C1912 N1911 1.351 . S
C1912 C1913 1.434 . S
C1913 C1904 1.429 . S
C1913 N1910 1.350 . S
C1913 C1912 1.434 . S
C1914 C1915 1.369 . S
C1914 C1916 1.419 . S
C1914 H1918 0.930 . S
C1915 C1914 1.369 . S
C1915 C1924 1.429 . S
C1916 C1914 1.419 . S
C1916 C1917 1.363 . S
C1916 H1919 0.929 . S
C1917 C1916 1.363 . S
C1917 C1923 1.428 . S
H1918 C1914 0.930 . S
H1919 C1916 0.929 . S
S1920 N1921 1.613 . S
S1920 N1922 1.610 . S
N1921 S1920 1.613 . S
N1921 C1924 1.350 . S
N1922 S1920 1.610 . S
N1922 C1923 1.351 . S
C1923 C1917 1.428 . S
C1923 N1922 1.351 . S
C1923 C1924 1.434 . S
C1924 C1915 1.429 . S
C1924 N1921 1.350 . S
C1924 C1923 1.434 . S
C1925 C1926 1.369 . S
C1925 C1927 1.419 . S
C1925 H1929 0.930 . S
C1926 C1925 1.369 . S
C1926 C1935 1.429 . S
C1927 C1925 1.419 . S
C1927 C1928 1.363 . S
C1927 H1930 0.929 . S
C1928 C1927 1.363 . S
C1928 C1934 1.428 . S
H1929 C1925 0.930 . S
H1930 C1927 0.929 . S
S1931 N1932 1.613 . S
S1931 N1933 1.610 . S
N1932 S1931 1.613 . S
N1932 C1935 1.350 . S
N1933 S1931 1.610 . S
N1933 C1934 1.351 . S
C1934 C1928 1.428 . S
C1934 N1933 1.351 . S
C1934 C1935 1.434 . S
C1935 C1926 1.429 . S
C1935 N1932 1.350 . S
C1935 C1934 1.434 . S
C1936 C1937 1.369 . S
C1936 C1938 1.419 . S
C1936 H1940 0.930 . S
C1937 C1936 1.369 . S
C1937 C1946 1.429 . S
C1938 C1936 1.419 . S
C1938 C1939 1.363 . S
C1938 H1941 0.929 . S
C1939 C1938 1.363 . S
C1939 C1945 1.428 . S
H1940 C1936 0.930 . S
H1941 C1938 0.929 . S
S1942 N1943 1.613 . S
S1942 N1944 1.610 . S
N1943 S1942 1.613 . S
N1943 C1946 1.350 . S
N1944 S1942 1.610 . S
N1944 C1945 1.351 . S
C1945 C1939 1.428 . S
C1945 N1944 1.351 . S
C1945 C1946 1.434 . S
C1946 C1937 1.429 . S
C1946 N1943 1.350 . S
C1946 C1945 1.434 . S
C1947 C1948 1.369 . S
C1947 C1949 1.419 . S
C1947 H1951 0.930 . S
C1948 C1947 1.369 . S
C1948 C1957 1.429 . S
C1949 C1947 1.419 . S
C1949 C1950 1.363 . S
C1949 H1952 0.929 . S
C1950 C1949 1.363 . S
C1950 C1956 1.428 . S
H1951 C1947 0.930 . S
H1952 C1949 0.929 . S
S1953 N1954 1.613 . S
S1953 N1955 1.610 . S
N1954 S1953 1.613 . S
N1954 C1957 1.350 . S
N1955 S1953 1.610 . S
N1955 C1956 1.351 . S
C1956 C1950 1.428 . S
C1956 N1955 1.351 . S
C1956 C1957 1.434 . S
C1957 C1948 1.429 . S
C1957 N1954 1.350 . S
C1957 C1956 1.434 . S
C1958 C1959 1.369 . S
C1958 C1960 1.419 . S
C1958 H1962 0.930 . S
C1959 C1958 1.369 . S
C1959 C1968 1.429 . S
C1960 C1958 1.419 . S
C1960 C1961 1.363 . S
C1960 H1963 0.929 . S
C1961 C1960 1.363 . S
C1961 C1967 1.428 . S
H1962 C1958 0.930 . S
H1963 C1960 0.929 . S
S1964 N1965 1.613 . S
S1964 N1966 1.610 . S
N1965 S1964 1.613 . S
N1965 C1968 1.350 . S
N1966 S1964 1.610 . S
N1966 C1967 1.351 . S
C1967 C1961 1.428 . S
C1967 N1966 1.351 . S
C1967 C1968 1.434 . S
C1968 C1959 1.429 . S
C1968 N1965 1.350 . S
C1968 C1967 1.434 . S
C1969 C1970 1.369 . S
C1969 C1971 1.419 . S
C1969 H1973 0.930 . S
C1970 C1969 1.369 . S
C1970 C1979 1.429 . S
C1971 C1969 1.419 . S
C1971 C1972 1.363 . S
C1971 H1974 0.929 . S
C1972 C1971 1.363 . S
C1972 C1978 1.428 . S
H1973 C1969 0.930 . S
H1974 C1971 0.929 . S
S1975 N1976 1.613 . S
S1975 N1977 1.610 . S
N1976 S1975 1.613 . S
N1976 C1979 1.350 . S
N1977 S1975 1.610 . S
N1977 C1978 1.351 . S
C1978 C1972 1.428 . S
C1978 N1977 1.351 . S
C1978 C1979 1.434 . S
C1979 C1970 1.429 . S
C1979 N1976 1.350 . S
C1979 C1978 1.434 . S
C1980 C1981 1.369 . S
C1980 C1982 1.419 . S
C1980 H1984 0.930 . S
C1981 C1980 1.369 . S
C1981 C1990 1.429 . S
C1982 C1980 1.419 . S
C1982 C1983 1.363 . S
C1982 H1985 0.929 . S
C1983 C1982 1.363 . S
C1983 C1989 1.428 . S
H1984 C1980 0.930 . S
H1985 C1982 0.929 . S
S1986 N1987 1.613 . S
S1986 N1988 1.610 . S
N1987 S1986 1.613 . S
N1987 C1990 1.350 . S
N1988 S1986 1.610 . S
N1988 C1989 1.351 . S
C1989 C1983 1.428 . S
C1989 N1988 1.351 . S
C1989 C1990 1.434 . S
C1990 C1981 1.429 . S
C1990 N1987 1.350 . S
C1990 C1989 1.434 . S
C1991 C1992 1.369 . S
C1991 C1993 1.419 . S
C1991 H1995 0.930 . S
C1992 C1991 1.369 . S
C1992 C2001 1.429 . S
C1993 C1991 1.419 . S
C1993 C1994 1.363 . S
C1993 H1996 0.929 . S
C1994 C1993 1.363 . S
C1994 C2000 1.428 . S
H1995 C1991 0.930 . S
H1996 C1993 0.929 . S
S1997 N1998 1.613 . S
S1997 N1999 1.610 . S
N1998 S1997 1.613 . S
N1998 C2001 1.350 . S
N1999 S1997 1.610 . S
N1999 C2000 1.351 . S
C2000 C1994 1.428 . S
C2000 N1999 1.351 . S
C2000 C2001 1.434 . S
C2001 C1992 1.429 . S
C2001 N1998 1.350 . S
C2001 C2000 1.434 . S
C2002 C2003 1.369 . S
C2002 C2004 1.419 . S
C2002 H2006 0.930 . S
C2003 C2002 1.369 . S
C2003 C2012 1.429 . S
C2004 C2002 1.419 . S
C2004 C2005 1.363 . S
C2004 H2007 0.929 . S
C2005 C2004 1.363 . S
C2005 C2011 1.428 . S
H2006 C2002 0.930 . S
H2007 C2004 0.929 . S
S2008 N2009 1.613 . S
S2008 N2010 1.610 . S
N2009 S2008 1.613 . S
N2009 C2012 1.350 . S
N2010 S2008 1.610 . S
N2010 C2011 1.351 . S
C2011 C2005 1.428 . S
C2011 N2010 1.351 . S
C2011 C2012 1.434 . S
C2012 C2003 1.429 . S
C2012 N2009 1.350 . S
C2012 C2011 1.434 . S
C2013 C2014 1.369 . S
C2013 C2015 1.419 . S
C2013 H2017 0.930 . S
C2014 C2013 1.369 . S
C2014 C2023 1.429 . S
C2015 C2013 1.419 . S
C2015 C2016 1.363 . S
C2015 H2018 0.929 . S
C2016 C2015 1.363 . S
C2016 C2022 1.428 . S
H2017 C2013 0.930 . S
H2018 C2015 0.929 . S
S2019 N2020 1.613 . S
S2019 N2021 1.610 . S
N2020 S2019 1.613 . S
N2020 C2023 1.350 . S
N2021 S2019 1.610 . S
N2021 C2022 1.351 . S
C2022 C2016 1.428 . S
C2022 N2021 1.351 . S
C2022 C2023 1.434 . S
C2023 C2014 1.429 . S
C2023 N2020 1.350 . S
C2023 C2022 1.434 . S
C2024 C2025 1.369 . S
C2024 C2026 1.419 . S
C2024 H2028 0.930 . S
C2025 C2024 1.369 . S
C2025 C2034 1.429 . S
C2026 C2024 1.419 . S
C2026 C2027 1.363 . S
C2026 H2029 0.929 . S
C2027 C2026 1.363 . S
C2027 C2033 1.428 . S
H2028 C2024 0.930 . S
H2029 C2026 0.929 . S
S2030 N2031 1.613 . S
S2030 N2032 1.610 . S
N2031 S2030 1.613 . S
N2031 C2034 1.350 . S
N2032 S2030 1.610 . S
N2032 C2033 1.351 . S
C2033 C2027 1.428 . S
C2033 N2032 1.351 . S
C2033 C2034 1.434 . S
C2034 C2025 1.429 . S
C2034 N2031 1.350 . S
C2034 C2033 1.434 . S
C2035 C2036 1.369 . S
C2035 C2037 1.419 . S
C2035 H2039 0.930 . S
C2036 C2035 1.369 . S
C2036 C2045 1.429 . S
C2037 C2035 1.419 . S
C2037 C2038 1.363 . S
C2037 H2040 0.929 . S
C2038 C2037 1.363 . S
C2038 C2044 1.428 . S
H2039 C2035 0.930 . S
H2040 C2037 0.929 . S
S2041 N2042 1.613 . S
S2041 N2043 1.610 . S
N2042 S2041 1.613 . S
N2042 C2045 1.350 . S
N2043 S2041 1.610 . S
N2043 C2044 1.351 . S
C2044 C2038 1.428 . S
C2044 N2043 1.351 . S
C2044 C2045 1.434 . S
C2045 C2036 1.429 . S
C2045 N2042 1.350 . S
C2045 C2044 1.434 . S
C2046 C2047 1.369 . S
C2046 C2048 1.419 . S
C2046 H2050 0.930 . S
C2047 C2046 1.369 . S
C2047 C2056 1.429 . S
C2048 C2046 1.419 . S
C2048 C2049 1.363 . S
C2048 H2051 0.929 . S
C2049 C2048 1.363 . S
C2049 C2055 1.428 . S
H2050 C2046 0.930 . S
H2051 C2048 0.929 . S
S2052 N2053 1.613 . S
S2052 N2054 1.610 1_545 S
N2053 S2052 1.613 . S
N2053 C2056 1.350 1_545 S
N2054 S2052 1.610 1_565 S
N2054 C2055 1.351 . S
C2055 C2049 1.428 . S
C2055 N2054 1.351 . S
C2055 C2056 1.434 . S
C2056 C2047 1.429 . S
C2056 N2053 1.350 1_565 S
C2056 C2055 1.434 . S
C2057 C2058 1.369 . S
C2057 C2059 1.419 . S
C2057 H2061 0.930 . S
C2058 C2057 1.369 . S
C2058 C2067 1.429 . S
C2059 C2057 1.419 . S
C2059 C2060 1.363 . S
C2059 H2062 0.929 . S
C2060 C2059 1.363 . S
C2060 C2066 1.428 . S
H2061 C2057 0.930 . S
H2062 C2059 0.929 . S
S2063 N2064 1.613 . S
S2063 N2065 1.610 . S
N2064 S2063 1.613 . S
N2064 C2067 1.350 . S
N2065 S2063 1.610 . S
N2065 C2066 1.351 . S
C2066 C2060 1.428 . S
C2066 N2065 1.351 . S
C2066 C2067 1.434 . S
C2067 C2058 1.429 . S
C2067 N2064 1.350 . S
C2067 C2066 1.434 . S
C2068 C2069 1.369 . S
C2068 C2070 1.419 . S
C2068 H2072 0.930 . S
C2069 C2068 1.369 . S
C2069 C2078 1.429 . S
C2070 C2068 1.419 . S
C2070 C2071 1.363 . S
C2070 H2073 0.929 . S
C2071 C2070 1.363 . S
C2071 C2077 1.428 . S
H2072 C2068 0.930 . S
H2073 C2070 0.929 . S
S2074 N2075 1.613 1_545 S
S2074 N2076 1.610 . S
N2075 S2074 1.613 1_565 S
N2075 C2078 1.350 1_565 S
N2076 S2074 1.610 . S
N2076 C2077 1.351 . S
C2077 C2071 1.428 . S
C2077 N2076 1.351 . S
C2077 C2078 1.434 . S
C2078 C2069 1.429 . S
C2078 N2075 1.350 1_545 S
C2078 C2077 1.434 . S
C2079 C2080 1.369 . S
C2079 C2081 1.419 . S
C2079 H2083 0.930 . S
C2080 C2079 1.369 . S
C2080 C2089 1.429 . S
C2081 C2079 1.419 . S
C2081 C2082 1.363 . S
C2081 H2084 0.929 . S
C2082 C2081 1.363 . S
C2082 C2088 1.428 . S
H2083 C2079 0.930 . S
H2084 C2081 0.929 . S
S2085 N2086 1.613 . S
S2085 N2087 1.610 . S
N2086 S2085 1.613 . S
N2086 C2089 1.350 . S
N2087 S2085 1.610 . S
N2087 C2088 1.351 . S
C2088 C2082 1.428 . S
C2088 N2087 1.351 . S
C2088 C2089 1.434 . S
C2089 C2080 1.429 . S
C2089 N2086 1.350 . S
C2089 C2088 1.434 . S
C2090 C2091 1.369 . S
C2090 C2092 1.419 . S
C2090 H2094 0.930 . S
C2091 C2090 1.369 . S
C2091 C2100 1.429 . S
C2092 C2090 1.419 . S
C2092 C2093 1.363 . S
C2092 H2095 0.955 . S
C2093 C2092 1.363 . S
C2093 C2099 1.428 . S
H2094 C2090 0.930 . S
H2095 C2092 0.955 . S
S2096 N2097 1.613 . S
S2096 N2098 1.610 . S
N2097 S2096 1.613 . S
N2097 C2100 1.350 . S
N2098 S2096 1.610 . S
N2098 C2099 1.351 . S
C2099 C2093 1.428 . S
C2099 N2098 1.351 . S
C2099 C2100 1.434 . S
C2100 C2091 1.429 . S
C2100 N2097 1.350 . S
C2100 C2099 1.434 . S
C2101 C2102 1.369 . S
C2101 C2103 1.419 . S
C2101 H2105 0.930 . S
C2102 C2101 1.369 . S
C2102 C2111 1.429 . S
C2103 C2101 1.419 . S
C2103 C2104 1.363 . S
C2103 H2106 0.929 . S
C2104 C2103 1.363 . S
C2104 C2110 1.428 . S
H2105 C2101 0.930 . S
H2106 C2103 0.929 . S
S2107 N2108 1.613 . S
S2107 N2109 1.610 . S
N2108 S2107 1.613 . S
N2108 C2111 1.350 . S
N2109 S2107 1.610 . S
N2109 C2110 1.351 . S
C2110 C2104 1.428 . S
C2110 N2109 1.351 . S
C2110 C2111 1.434 . S
C2111 C2102 1.429 . S
C2111 N2108 1.350 . S
C2111 C2110 1.434 . S
C2112 C2113 1.369 . S
C2112 C2114 1.419 . S
C2112 H2116 0.930 . S
C2113 C2112 1.369 . S
C2113 C2122 1.429 . S
C2114 C2112 1.419 . S
C2114 C2115 1.363 . S
C2114 H2117 0.929 . S
C2115 C2114 1.363 . S
C2115 C2121 1.428 . S
H2116 C2112 0.930 . S
H2117 C2114 0.929 . S
S2118 N2119 1.613 . S
S2118 N2120 1.610 . S
N2119 S2118 1.613 . S
N2119 C2122 1.350 . S
N2120 S2118 1.610 . S
N2120 C2121 1.351 . S
C2121 C2115 1.428 . S
C2121 N2120 1.351 . S
C2121 C2122 1.434 . S
C2122 C2113 1.429 . S
C2122 N2119 1.350 . S
C2122 C2121 1.434 . S
C2123 C2124 1.369 . S
C2123 C2125 1.419 . S
C2123 H2127 0.930 . S
C2124 C2123 1.369 . S
C2124 C2133 1.429 . S
C2125 C2123 1.419 . S
C2125 C2126 1.363 . S
C2125 H2128 0.929 . S
C2126 C2125 1.363 . S
C2126 C2132 1.428 . S
H2127 C2123 0.930 . S
H2128 C2125 0.929 . S
S2129 N2130 1.613 . S
S2129 N2131 1.610 . S
N2130 S2129 1.613 . S
N2130 C2133 1.350 . S
N2131 S2129 1.610 . S
N2131 C2132 1.351 . S
C2132 C2126 1.428 . S
C2132 N2131 1.351 . S
C2132 C2133 1.434 . S
C2133 C2124 1.429 . S
C2133 N2130 1.350 . S
C2133 C2132 1.434 . S
C2134 C2135 1.369 . S
C2134 C2136 1.419 . S
C2134 H2138 0.930 . S
C2135 C2134 1.369 . S
C2135 C2144 1.429 . S
C2136 C2134 1.419 . S
C2136 C2137 1.363 . S
C2136 H2139 0.929 . S
C2137 C2136 1.363 . S
C2137 C2143 1.428 . S
H2138 C2134 0.930 . S
H2139 C2136 0.929 . S
S2140 N2141 1.613 . S
S2140 N2142 1.610 . S
N2141 S2140 1.613 . S
N2141 C2144 1.350 . S
N2142 S2140 1.610 . S
N2142 C2143 1.351 . S
C2143 C2137 1.428 . S
C2143 N2142 1.351 . S
C2143 C2144 1.434 . S
C2144 C2135 1.429 . S
C2144 N2141 1.350 . S
C2144 C2143 1.434 . S
C2145 C2146 1.386 . S
C2145 C2147 1.383 1_545 S
C2145 H2149 0.951 . S
C2146 C2145 1.386 . S
C2146 C2155 1.429 1_545 S
C2147 C2145 1.383 1_565 S
C2147 C2148 1.363 . S
C2147 H2150 0.929 . S
C2148 C2147 1.363 . S
C2148 C2154 1.428 . S
H2149 C2145 0.951 . S
H2150 C2147 0.929 . S
S2151 N2152 1.613 1_565 S
S2151 N2153 1.610 . S
N2152 S2151 1.613 1_545 S
N2152 C2155 1.350 1_545 S
N2153 S2151 1.610 . S
N2153 C2154 1.351 . S
C2154 C2148 1.428 . S
C2154 N2153 1.351 . S
C2154 C2155 1.434 . S
C2155 C2146 1.429 1_565 S
C2155 N2152 1.350 1_565 S
C2155 C2154 1.434 . S
C2156 C2157 1.369 . S
C2156 C2158 1.419 . S
C2156 H2160 0.930 . S
C2157 C2156 1.369 . S
C2157 C2166 1.429 . S
C2158 C2156 1.419 . S
C2158 C2159 1.363 . S
C2158 H2161 0.929 . S
C2159 C2158 1.363 . S
C2159 C2165 1.428 . S
H2160 C2156 0.930 . S
H2161 C2158 0.929 . S
S2162 N2163 1.613 . S
S2162 N2164 1.610 . S
N2163 S2162 1.613 . S
N2163 C2166 1.350 . S
N2164 S2162 1.610 . S
N2164 C2165 1.351 . S
C2165 C2159 1.428 . S
C2165 N2164 1.351 . S
C2165 C2166 1.434 . S
C2166 C2157 1.429 . S
C2166 N2163 1.350 . S
C2166 C2165 1.434 . S
C2167 C2168 1.369 . S
C2167 C2169 1.419 . S
C2167 H2171 0.930 . S
C2168 C2167 1.369 . S
C2168 C2177 1.429 . S
C2169 C2167 1.419 . S
C2169 C2170 1.363 . S
C2169 H2172 0.929 . S
C2170 C2169 1.363 . S
C2170 C2176 1.428 . S
H2171 C2167 0.930 . S
H2172 C2169 0.929 . S
S2173 N2174 1.613 . S
S2173 N2175 1.610 . S
N2174 S2173 1.613 . S
N2174 C2177 1.350 . S
N2175 S2173 1.610 . S
N2175 C2176 1.351 . S
C2176 C2170 1.428 . S
C2176 N2175 1.351 . S
C2176 C2177 1.434 . S
C2177 C2168 1.429 . S
C2177 N2174 1.350 . S
C2177 C2176 1.434 . S
C2178 C2179 1.369 . S
C2178 C2180 1.419 . S
C2178 H2182 0.930 . S
C2179 C2178 1.369 . S
C2179 C2188 1.429 . S
C2180 C2178 1.419 . S
C2180 C2181 1.363 . S
C2180 H2183 0.929 . S
C2181 C2180 1.363 . S
C2181 C2187 1.428 . S
H2182 C2178 0.930 . S
H2183 C2180 0.929 . S
S2184 N2185 1.613 . S
S2184 N2186 1.610 . S
N2185 S2184 1.613 . S
N2185 C2188 1.350 . S
N2186 S2184 1.610 . S
N2186 C2187 1.351 . S
C2187 C2181 1.428 . S
C2187 N2186 1.351 . S
C2187 C2188 1.434 . S
C2188 C2179 1.429 . S
C2188 N2185 1.350 . S
C2188 C2187 1.434 . S
C2189 C2190 1.369 . S
C2189 C2191 1.453 . S
C2189 H2193 0.930 . S
C2190 C2189 1.369 . S
C2190 C2199 1.429 . S
C2191 C2189 1.453 . S
C2191 C2192 1.345 1_565 S
C2191 H2194 0.913 1_565 S
C2192 C2191 1.345 1_545 S
C2192 C2198 1.428 1_545 S
H2193 C2189 0.930 . S
H2194 C2191 0.913 1_545 S
S2195 N2196 1.613 . S
S2195 N2197 1.610 1_565 S
N2196 S2195 1.613 . S
N2196 C2199 1.350 . S
N2197 S2195 1.610 1_545 S
N2197 C2198 1.351 1_545 S
C2198 C2192 1.428 1_565 S
C2198 N2197 1.351 1_565 S
C2198 C2199 1.434 . S
C2199 C2190 1.429 . S
C2199 N2196 1.350 . S
C2199 C2198 1.434 . S
C2200 C2201 1.369 . S
C2200 C2202 1.419 . S
C2200 H2204 0.930 . S
C2201 C2200 1.369 . S
C2201 C2210 1.429 . S
C2202 C2200 1.419 . S
C2202 C2203 1.363 . S
C2202 H2205 0.929 . S
C2203 C2202 1.363 . S
C2203 C2209 1.428 . S
H2204 C2200 0.930 . S
H2205 C2202 0.929 . S
S2206 N2207 1.613 . S
S2206 N2208 1.610 . S
N2207 S2206 1.613 . S
N2207 C2210 1.350 . S
N2208 S2206 1.610 . S
N2208 C2209 1.351 . S
C2209 C2203 1.428 . S
C2209 N2208 1.351 . S
C2209 C2210 1.434 . S
C2210 C2201 1.429 . S
C2210 N2207 1.350 . S
C2210 C2209 1.434 . S
C2211 C2212 1.369 . S
C2211 C2213 1.419 . S
C2211 H2215 0.930 . S
C2212 C2211 1.369 . S
C2212 C2221 1.429 . S
C2213 C2211 1.419 . S
C2213 C2214 1.363 . S
C2213 H2216 0.929 . S
C2214 C2213 1.363 . S
C2214 C2220 1.428 . S
H2215 C2211 0.930 . S
H2216 C2213 0.929 . S
S2217 N2218 1.613 . S
S2217 N2219 1.610 . S
N2218 S2217 1.613 . S
N2218 C2221 1.350 . S
N2219 S2217 1.610 . S
N2219 C2220 1.351 . S
C2220 C2214 1.428 . S
C2220 N2219 1.351 . S
C2220 C2221 1.434 . S
C2221 C2212 1.429 . S
C2221 N2218 1.350 . S
C2221 C2220 1.434 . S
C2222 C2223 1.369 . S
C2222 C2224 1.419 . S
C2222 H2226 0.930 . S
C2223 C2222 1.369 . S
C2223 C2232 1.429 . S
C2224 C2222 1.419 . S
C2224 C2225 1.363 . S
C2224 H2227 0.929 . S
C2225 C2224 1.363 . S
C2225 C2231 1.428 . S
H2226 C2222 0.930 . S
H2227 C2224 0.929 . S
S2228 N2229 1.613 . S
S2228 N2230 1.610 . S
N2229 S2228 1.613 . S
N2229 C2232 1.350 . S
N2230 S2228 1.610 . S
N2230 C2231 1.351 . S
C2231 C2225 1.428 . S
C2231 N2230 1.351 . S
C2231 C2232 1.434 . S
C2232 C2223 1.429 . S
C2232 N2229 1.350 . S
C2232 C2231 1.434 . S
C2233 C2234 1.369 . S
C2233 C2235 1.419 . S
C2233 H2237 0.930 . S
C2234 C2233 1.369 . S
C2234 C2243 1.429 . S
C2235 C2233 1.419 . S
C2235 C2236 1.363 . S
C2235 H2238 0.929 . S
C2236 C2235 1.363 . S
C2236 C2242 1.428 . S
H2237 C2233 0.930 . S
H2238 C2235 0.929 . S
S2239 N2240 1.613 . S
S2239 N2241 1.610 . S
N2240 S2239 1.613 . S
N2240 C2243 1.350 . S
N2241 S2239 1.610 . S
N2241 C2242 1.351 . S
C2242 C2236 1.428 . S
C2242 N2241 1.351 . S
C2242 C2243 1.434 . S
C2243 C2234 1.429 . S
C2243 N2240 1.350 . S
C2243 C2242 1.434 . S
C2244 C2245 1.369 . S
C2244 C2246 1.419 . S
C2244 H2248 0.930 . S
C2245 C2244 1.369 . S
C2245 C2254 1.429 . S
C2246 C2244 1.419 . S
C2246 C2247 1.363 . S
C2246 H2249 0.929 . S
C2247 C2246 1.363 . S
C2247 C2253 1.428 . S
H2248 C2244 0.930 . S
H2249 C2246 0.929 . S
S2250 N2251 1.613 . S
S2250 N2252 1.610 . S
N2251 S2250 1.613 . S
N2251 C2254 1.350 . S
N2252 S2250 1.610 . S
N2252 C2253 1.351 . S
C2253 C2247 1.428 . S
C2253 N2252 1.351 . S
C2253 C2254 1.434 . S
C2254 C2245 1.429 . S
C2254 N2251 1.350 . S
C2254 C2253 1.434 . S
C2255 C2256 1.369 1_455 S
C2255 C2257 1.419 . S
C2255 H2259 0.930 . S
C2256 C2255 1.369 1_655 S
C2256 C2265 1.429 . S
C2257 C2255 1.419 . S
C2257 C2258 1.363 . S
C2257 H2260 0.929 . S
C2258 C2257 1.363 . S
C2258 C2264 1.428 . S
H2259 C2255 0.930 . S
H2260 C2257 0.929 . S
S2261 N2262 1.613 . S
S2261 N2263 1.610 1_655 S
N2262 S2261 1.613 . S
N2262 C2265 1.350 . S
N2263 S2261 1.610 1_455 S
N2263 C2264 1.351 . S
C2264 C2258 1.428 . S
C2264 N2263 1.351 . S
C2264 C2265 1.434 1_455 S
C2265 C2256 1.429 . S
C2265 N2262 1.350 . S
C2265 C2264 1.434 1_655 S
C2266 C2267 1.369 . S
C2266 C2268 1.419 . S
C2266 H2270 0.930 . S
C2267 C2266 1.369 . S
C2267 C2276 1.429 . S
C2268 C2266 1.419 . S
C2268 C2269 1.363 . S
C2268 H2271 0.929 . S
C2269 C2268 1.363 . S
C2269 C2275 1.428 . S
H2270 C2266 0.930 . S
H2271 C2268 0.929 . S
S2272 N2273 1.613 . S
S2272 N2274 1.610 . S
N2273 S2272 1.613 . S
N2273 C2276 1.350 . S
N2274 S2272 1.610 . S
N2274 C2275 1.351 . S
C2275 C2269 1.428 . S
C2275 N2274 1.351 . S
C2275 C2276 1.434 . S
C2276 C2267 1.429 . S
C2276 N2273 1.350 . S
C2276 C2275 1.434 . S
C2277 C2278 1.369 . S
C2277 C2279 1.419 . S
C2277 H2281 0.930 . S
C2278 C2277 1.369 . S
C2278 C2287 1.429 . S
C2279 C2277 1.419 . S
C2279 C2280 1.363 1_655 S
C2279 H2282 0.929 1_655 S
C2280 C2279 1.363 1_455 S
C2280 C2286 1.428 . S
H2281 C2277 0.930 . S
H2282 C2279 0.929 1_455 S
S2283 N2284 1.613 . S
S2283 N2285 1.610 1_655 S
N2284 S2283 1.613 . S
N2284 C2287 1.350 . S
N2285 S2283 1.610 1_455 S
N2285 C2286 1.351 . S
C2286 C2280 1.428 . S
C2286 N2285 1.351 . S
C2286 C2287 1.434 1_455 S
C2287 C2278 1.429 . S
C2287 N2284 1.350 . S
C2287 C2286 1.434 1_655 S
C2288 C2289 1.369 . S
C2288 C2290 1.419 . S
C2288 H2292 0.930 . S
C2289 C2288 1.369 . S
C2289 C2298 1.429 . S
C2290 C2288 1.419 . S
C2290 C2291 1.363 . S
C2290 H2293 0.929 . S
C2291 C2290 1.363 . S
C2291 C2297 1.428 . S
H2292 C2288 0.930 . S
H2293 C2290 0.929 . S
S2294 N2295 1.613 . S
S2294 N2296 1.610 . S
N2295 S2294 1.613 . S
N2295 C2298 1.350 . S
N2296 S2294 1.610 . S
N2296 C2297 1.351 . S
C2297 C2291 1.428 . S
C2297 N2296 1.351 . S
C2297 C2298 1.434 . S
C2298 C2289 1.429 . S
C2298 N2295 1.350 . S
C2298 C2297 1.434 . S
C2299 C2300 1.369 . S
C2299 C2301 1.419 . S
C2299 H2303 0.930 . S
C2300 C2299 1.369 . S
C2300 C2309 1.429 . S
C2301 C2299 1.419 . S
C2301 C2302 1.363 . S
C2301 H2304 0.929 . S
C2302 C2301 1.363 . S
C2302 C2308 1.428 . S
H2303 C2299 0.930 . S
H2304 C2301 0.929 . S
S2305 N2306 1.613 . S
S2305 N2307 1.610 . S
N2306 S2305 1.613 . S
N2306 C2309 1.350 . S
N2307 S2305 1.610 . S
N2307 C2308 1.351 . S
C2308 C2302 1.428 . S
C2308 N2307 1.351 . S
C2308 C2309 1.434 . S
C2309 C2300 1.429 . S
C2309 N2306 1.350 . S
C2309 C2308 1.434 . S
C2310 C2311 1.369 1_556 S
C2310 C2312 1.419 . S
C2310 H2314 0.929 . S
C2311 C2310 1.369 1_554 S
C2311 C2320 1.429 . S
C2312 C2310 1.419 . S
C2312 C2313 1.363 . S
C2312 H2315 0.929 . S
C2313 C2312 1.363 . S
C2313 C2319 1.428 . S
H2314 C2310 0.929 . S
H2315 C2312 0.929 . S
S2316 N2317 1.612 1_556 S
S2316 N2318 1.612 . S
N2317 S2316 1.612 1_554 S
N2317 C2320 1.350 . S
N2318 S2316 1.612 . S
N2318 C2319 1.351 . S
C2319 C2313 1.428 . S
C2319 N2318 1.351 . S
C2319 C2320 1.434 1_556 S
C2320 C2311 1.429 . S
C2320 N2317 1.350 . S
C2320 C2319 1.434 1_554 S
C2321 C2322 1.369 . S
C2321 C2323 1.419 . S
C2321 H2325 0.930 . S
C2322 C2321 1.369 . S
C2322 C2331 1.429 . S
C2323 C2321 1.419 . S
C2323 C2324 1.363 . S
C2323 H2326 0.929 . S
C2324 C2323 1.363 . S
C2324 C2330 1.428 . S
H2325 C2321 0.930 . S
H2326 C2323 0.929 . S
S2327 N2328 1.613 . S
S2327 N2329 1.610 . S
N2328 S2327 1.613 . S
N2328 C2331 1.350 . S
N2329 S2327 1.610 . S
N2329 C2330 1.351 . S
C2330 C2324 1.428 . S
C2330 N2329 1.351 . S
C2330 C2331 1.434 . S
C2331 C2322 1.429 . S
C2331 N2328 1.350 . S
C2331 C2330 1.434 . S
C2332 C2333 1.369 . S
C2332 C2334 1.419 . S
C2332 H2336 0.930 . S
C2333 C2332 1.369 . S
C2333 C2342 1.429 . S
C2334 C2332 1.419 . S
C2334 C2335 1.363 . S
C2334 H2337 0.929 . S
C2335 C2334 1.363 . S
C2335 C2341 1.428 . S
H2336 C2332 0.930 . S
H2337 C2334 0.929 . S
S2338 N2339 1.613 . S
S2338 N2340 1.610 . S
N2339 S2338 1.613 . S
N2339 C2342 1.350 . S
N2340 S2338 1.610 . S
N2340 C2341 1.351 . S
C2341 C2335 1.428 . S
C2341 N2340 1.351 . S
C2341 C2342 1.434 . S
C2342 C2333 1.429 . S
C2342 N2339 1.350 . S
C2342 C2341 1.434 . S
C2343 C2344 1.369 . S
C2343 C2345 1.419 . S
C2343 H2347 0.930 . S
C2344 C2343 1.369 . S
C2344 C2353 1.429 . S
C2345 C2343 1.419 . S
C2345 C2346 1.363 . S
C2345 H2348 0.929 . S
C2346 C2345 1.363 . S
C2346 C2352 1.428 . S
H2347 C2343 0.930 . S
H2348 C2345 0.929 . S
S2349 N2350 1.613 . S
S2349 N2351 1.610 . S
N2350 S2349 1.613 . S
N2350 C2353 1.350 . S
N2351 S2349 1.610 . S
N2351 C2352 1.351 . S
C2352 C2346 1.428 . S
C2352 N2351 1.351 . S
C2352 C2353 1.434 . S
C2353 C2344 1.429 . S
C2353 N2350 1.350 . S
C2353 C2352 1.434 . S
C2354 C2355 1.369 . S
C2354 C2356 1.419 . S
C2354 H2358 0.930 . S
C2355 C2354 1.369 . S
C2355 C2364 1.429 . S
C2356 C2354 1.419 . S
C2356 C2357 1.363 . S
C2356 H2359 0.929 . S
C2357 C2356 1.363 . S
C2357 C2363 1.428 . S
H2358 C2354 0.930 . S
H2359 C2356 0.929 . S
S2360 N2361 1.613 . S
S2360 N2362 1.610 . S
N2361 S2360 1.613 . S
N2361 C2364 1.350 . S
N2362 S2360 1.610 . S
N2362 C2363 1.351 . S
C2363 C2357 1.428 . S
C2363 N2362 1.351 . S
C2363 C2364 1.434 . S
C2364 C2355 1.429 . S
C2364 N2361 1.350 . S
C2364 C2363 1.434 . S
C2365 C2366 1.369 . S
C2365 C2367 1.419 . S
C2365 H2369 0.930 . S
C2366 C2365 1.369 . S
C2366 C2375 1.429 . S
C2367 C2365 1.419 . S
C2367 C2368 1.363 . S
C2367 H2370 0.929 . S
C2368 C2367 1.363 . S
C2368 C2374 1.428 . S
H2369 C2365 0.930 . S
H2370 C2367 0.929 . S
S2371 N2372 1.613 . S
S2371 N2373 1.610 . S
N2372 S2371 1.613 . S
N2372 C2375 1.350 . S
N2373 S2371 1.610 . S
N2373 C2374 1.351 . S
C2374 C2368 1.428 . S
C2374 N2373 1.351 . S
C2374 C2375 1.434 . S
C2375 C2366 1.429 . S
C2375 N2372 1.350 . S
C2375 C2374 1.434 . S
C2376 C2377 1.369 . S
C2376 C2378 1.419 . S
C2376 H2380 0.930 . S
C2377 C2376 1.369 . S
C2377 C2386 1.429 . S
C2378 C2376 1.419 . S
C2378 C2379 1.363 . S
C2378 H2381 0.929 . S
C2379 C2378 1.363 . S
C2379 C2385 1.428 . S
H2380 C2376 0.930 . S
H2381 C2378 0.929 . S
S2382 N2383 1.613 . S
S2382 N2384 1.610 . S
N2383 S2382 1.613 . S
N2383 C2386 1.350 . S
N2384 S2382 1.610 . S
N2384 C2385 1.351 . S
C2385 C2379 1.428 . S
C2385 N2384 1.351 . S
C2385 C2386 1.434 . S
C2386 C2377 1.429 . S
C2386 N2383 1.350 . S
C2386 C2385 1.434 . S
C2387 C2388 1.369 . S
C2387 C2389 1.419 1_565 S
C2387 H2391 0.930 . S
C2388 C2387 1.369 . S
C2388 C2397 1.429 1_565 S
C2389 C2387 1.419 1_545 S
C2389 C2390 1.363 . S
C2389 H2392 0.929 . S
C2390 C2389 1.363 . S
C2390 C2396 1.428 . S
H2391 C2387 0.930 . S
H2392 C2389 0.929 . S
S2393 N2394 1.613 1_545 S
S2393 N2395 1.610 . S
N2394 S2393 1.613 1_565 S
N2394 C2397 1.350 1_565 S
N2395 S2393 1.610 . S
N2395 C2396 1.351 . S
C2396 C2390 1.428 . S
C2396 N2395 1.351 . S
C2396 C2397 1.434 . S
C2397 C2388 1.429 1_545 S
C2397 N2394 1.350 1_545 S
C2397 C2396 1.434 . S
C2398 C2399 1.369 . S
C2398 C2400 1.419 . S
C2398 H2402 0.930 . S
C2399 C2398 1.369 . S
C2399 C2408 1.429 . S
C2400 C2398 1.419 . S
C2400 C2401 1.363 . S
C2400 H2403 0.929 . S
C2401 C2400 1.363 . S
C2401 C2407 1.428 . S
H2402 C2398 0.930 . S
H2403 C2400 0.929 . S
S2404 N2405 1.613 . S
S2404 N2406 1.610 . S
N2405 S2404 1.613 . S
N2405 C2408 1.350 . S
N2406 S2404 1.610 . S
N2406 C2407 1.351 . S
C2407 C2401 1.428 . S
C2407 N2406 1.351 . S
C2407 C2408 1.434 . S
C2408 C2399 1.429 . S
C2408 N2405 1.350 . S
C2408 C2407 1.434 . S
C2409 C2410 1.369 . S
C2409 C2411 1.419 . S
C2409 H2413 0.930 . S
C2410 C2409 1.369 . S
C2410 C2419 1.429 . S
C2411 C2409 1.419 . S
C2411 C2412 1.363 . S
C2411 H2414 0.929 . S
C2412 C2411 1.363 . S
C2412 C2418 1.428 . S
H2413 C2409 0.930 . S
H2414 C2411 0.929 . S
S2415 N2416 1.613 . S
S2415 N2417 1.610 . S
N2416 S2415 1.613 . S
N2416 C2419 1.350 . S
N2417 S2415 1.610 . S
N2417 C2418 1.351 . S
C2418 C2412 1.428 . S
C2418 N2417 1.351 . S
C2418 C2419 1.434 . S
C2419 C2410 1.429 . S
C2419 N2416 1.350 . S
C2419 C2418 1.434 . S
C2420 C2421 1.369 . S
C2420 C2422 1.419 . S
C2420 H2424 0.930 . S
C2421 C2420 1.369 . S
C2421 C2430 1.429 . S
C2422 C2420 1.419 . S
C2422 C2423 1.363 . S
C2422 H2425 0.929 . S
C2423 C2422 1.363 . S
C2423 C2429 1.428 . S
H2424 C2420 0.930 . S
H2425 C2422 0.929 . S
S2426 N2427 1.613 . S
S2426 N2428 1.610 . S
N2427 S2426 1.613 . S
N2427 C2430 1.350 . S
N2428 S2426 1.610 . S
N2428 C2429 1.351 . S
C2429 C2423 1.428 . S
C2429 N2428 1.351 . S
C2429 C2430 1.434 . S
C2430 C2421 1.429 . S
C2430 N2427 1.350 . S
C2430 C2429 1.434 . S
C2431 C2432 1.369 1_545 S
C2431 C2433 1.419 . S
C2431 H2435 0.930 . S
C2432 C2431 1.369 1_565 S
C2432 C2441 1.429 . S
C2433 C2431 1.419 . S
C2433 C2434 1.363 . S
C2433 H2436 0.929 . S
C2434 C2433 1.363 . S
C2434 C2440 1.428 . S
H2435 C2431 0.930 . S
H2436 C2433 0.929 . S
S2437 N2438 1.613 . S
S2437 N2439 1.610 1_565 S
N2438 S2437 1.613 . S
N2438 C2441 1.350 . S
N2439 S2437 1.610 1_545 S
N2439 C2440 1.351 . S
C2440 C2434 1.428 . S
C2440 N2439 1.351 . S
C2440 C2441 1.434 1_545 S
C2441 C2432 1.429 . S
C2441 N2438 1.350 . S
C2441 C2440 1.434 1_565 S
C2442 C2443 1.369 . S
C2442 C2444 1.419 . S
C2442 H2446 0.930 . S
C2443 C2442 1.369 . S
C2443 C2452 1.429 . S
C2444 C2442 1.419 . S
C2444 C2445 1.363 . S
C2444 H2447 0.929 . S
C2445 C2444 1.363 . S
C2445 C2451 1.428 . S
H2446 C2442 0.930 . S
H2447 C2444 0.929 . S
S2448 N2449 1.613 . S
S2448 N2450 1.610 . S
N2449 S2448 1.613 . S
N2449 C2452 1.350 . S
N2450 S2448 1.610 . S
N2450 C2451 1.351 . S
C2451 C2445 1.428 . S
C2451 N2450 1.351 . S
C2451 C2452 1.434 . S
C2452 C2443 1.429 . S
C2452 N2449 1.350 . S
C2452 C2451 1.434 . S
C2453 C2454 1.369 . S
C2453 C2455 1.419 . S
C2453 H2457 0.930 . S
C2454 C2453 1.369 . S
C2454 C2463 1.429 . S
C2455 C2453 1.419 . S
C2455 C2456 1.363 . S
C2455 H2458 0.929 . S
C2456 C2455 1.363 . S
C2456 C2462 1.428 . S
H2457 C2453 0.930 . S
H2458 C2455 0.929 . S
S2459 N2460 1.613 . S
S2459 N2461 1.610 . S
N2460 S2459 1.613 . S
N2460 C2463 1.350 . S
N2461 S2459 1.610 . S
N2461 C2462 1.351 . S
C2462 C2456 1.428 . S
C2462 N2461 1.351 . S
C2462 C2463 1.434 . S
C2463 C2454 1.429 . S
C2463 N2460 1.350 . S
C2463 C2462 1.434 . S
C2464 C2465 1.369 . S
C2464 C2466 1.419 . S
C2464 H2468 0.930 . S
C2465 C2464 1.369 . S
C2465 C2474 1.429 . S
C2466 C2464 1.419 . S
C2466 C2467 1.363 . S
C2466 H2469 0.929 . S
C2467 C2466 1.363 . S
C2467 C2473 1.428 . S
H2468 C2464 0.930 . S
H2469 C2466 0.929 . S
S2470 N2471 1.613 . S
S2470 N2472 1.610 . S
N2471 S2470 1.613 . S
N2471 C2474 1.350 . S
N2472 S2470 1.610 . S
N2472 C2473 1.351 . S
C2473 C2467 1.428 . S
C2473 N2472 1.351 . S
C2473 C2474 1.434 . S
C2474 C2465 1.429 . S
C2474 N2471 1.350 . S
C2474 C2473 1.434 . S
C2475 C2476 1.369 1_655 S
C2475 C2477 1.419 . S
C2475 H2479 0.930 . S
C2476 C2475 1.369 1_455 S
C2476 C2485 1.429 . S
C2477 C2475 1.419 . S
C2477 C2478 1.363 . S
C2477 H2480 0.929 . S
C2478 C2477 1.363 . S
C2478 C2484 1.428 . S
H2479 C2475 0.930 . S
H2480 C2477 0.929 . S
S2481 N2482 1.613 . S
S2481 N2483 1.610 1_455 S
N2482 S2481 1.613 . S
N2482 C2485 1.350 . S
N2483 S2481 1.610 1_655 S
N2483 C2484 1.351 . S
C2484 C2478 1.428 . S
C2484 N2483 1.351 . S
C2484 C2485 1.434 1_655 S
C2485 C2476 1.429 . S
C2485 N2482 1.350 . S
C2485 C2484 1.434 1_455 S
C2486 C2487 1.369 . S
C2486 C2488 1.419 . S
C2486 H2490 0.930 . S
C2487 C2486 1.369 . S
C2487 C2496 1.429 . S
C2488 C2486 1.419 . S
C2488 C2489 1.363 . S
C2488 H2491 0.929 . S
C2489 C2488 1.363 . S
C2489 C2495 1.428 . S
H2490 C2486 0.930 . S
H2491 C2488 0.929 . S
S2492 N2493 1.613 . S
S2492 N2494 1.610 . S
N2493 S2492 1.613 . S
N2493 C2496 1.350 . S
N2494 S2492 1.610 . S
N2494 C2495 1.351 . S
C2495 C2489 1.428 . S
C2495 N2494 1.351 . S
C2495 C2496 1.434 . S
C2496 C2487 1.429 . S
C2496 N2493 1.350 . S
C2496 C2495 1.434 . S
C2497 C2498 1.369 . S
C2497 C2499 1.419 1_455 S
C2497 H2501 0.930 . S
C2498 C2497 1.369 . S
C2498 C2507 1.429 . S
C2499 C2497 1.419 1_655 S
C2499 C2500 1.363 . S
C2499 H2502 0.929 . S
C2500 C2499 1.363 . S
C2500 C2506 1.428 1_655 S
H2501 C2497 0.930 . S
H2502 C2499 0.929 . S
S2503 N2504 1.613 . S
S2503 N2505 1.610 1_455 S
N2504 S2503 1.613 . S
N2504 C2507 1.350 . S
N2505 S2503 1.610 1_655 S
N2505 C2506 1.351 1_655 S
C2506 C2500 1.428 1_455 S
C2506 N2505 1.351 1_455 S
C2506 C2507 1.434 . S
C2507 C2498 1.429 . S
C2507 N2504 1.350 . S
C2507 C2506 1.434 . S
C2508 C2509 1.369 . S
C2508 C2510 1.419 . S
C2508 H2512 0.930 . S
C2509 C2508 1.369 . S
C2509 C2518 1.429 . S
C2510 C2508 1.419 . S
C2510 C2511 1.363 . S
C2510 H2513 0.929 . S
C2511 C2510 1.363 . S
C2511 C2517 1.428 . S
H2512 C2508 0.930 . S
H2513 C2510 0.929 . S
S2514 N2515 1.613 . S
S2514 N2516 1.610 . S
N2515 S2514 1.613 . S
N2515 C2518 1.350 . S
N2516 S2514 1.610 . S
N2516 C2517 1.351 . S
C2517 C2511 1.428 . S
C2517 N2516 1.351 . S
C2517 C2518 1.434 . S
C2518 C2509 1.429 . S
C2518 N2515 1.350 . S
C2518 C2517 1.434 . S
C2519 C2520 1.369 . S
C2519 C2521 1.419 . S
C2519 H2523 0.930 . S
C2520 C2519 1.369 . S
C2520 C2529 1.429 . S
C2521 C2519 1.419 . S
C2521 C2522 1.363 . S
C2521 H2524 0.929 . S
C2522 C2521 1.363 . S
C2522 C2528 1.428 . S
H2523 C2519 0.930 . S
H2524 C2521 0.929 . S
S2525 N2526 1.613 . S
S2525 N2527 1.610 . S
N2526 S2525 1.613 . S
N2526 C2529 1.350 . S
N2527 S2525 1.610 . S
N2527 C2528 1.351 . S
C2528 C2522 1.428 . S
C2528 N2527 1.351 . S
C2528 C2529 1.434 . S
C2529 C2520 1.429 . S
C2529 N2526 1.350 . S
C2529 C2528 1.434 . S
C2530 C2531 1.369 . S
C2530 C2532 1.419 . S
C2530 H2534 0.930 . S
C2531 C2530 1.369 . S
C2531 C2540 1.429 . S
C2532 C2530 1.419 . S
C2532 C2533 1.363 . S
C2532 H2535 0.929 . S
C2533 C2532 1.363 . S
C2533 C2539 1.428 . S
H2534 C2530 0.930 . S
H2535 C2532 0.929 . S
S2536 N2537 1.613 . S
S2536 N2538 1.610 . S
N2537 S2536 1.613 . S
N2537 C2540 1.350 . S
N2538 S2536 1.610 . S
N2538 C2539 1.351 . S
C2539 C2533 1.428 . S
C2539 N2538 1.351 . S
C2539 C2540 1.434 . S
C2540 C2531 1.429 . S
C2540 N2537 1.350 . S
C2540 C2539 1.434 . S
C2541 C2542 1.369 . S
C2541 C2543 1.419 . S
C2541 H2545 0.930 . S
C2542 C2541 1.369 . S
C2542 C2551 1.429 . S
C2543 C2541 1.419 . S
C2543 C2544 1.363 . S
C2543 H2546 0.929 . S
C2544 C2543 1.363 . S
C2544 C2550 1.428 . S
H2545 C2541 0.930 . S
H2546 C2543 0.929 . S
S2547 N2548 1.613 . S
S2547 N2549 1.610 . S
N2548 S2547 1.613 . S
N2548 C2551 1.350 . S
N2549 S2547 1.610 . S
N2549 C2550 1.351 . S
C2550 C2544 1.428 . S
C2550 N2549 1.351 . S
C2550 C2551 1.434 . S
C2551 C2542 1.429 . S
C2551 N2548 1.350 . S
C2551 C2550 1.434 . S
C2552 C2553 1.369 . S
C2552 C2554 1.419 . S
C2552 H2556 0.930 . S
C2553 C2552 1.369 . S
C2553 C2562 1.429 . S
C2554 C2552 1.419 . S
C2554 C2555 1.363 . S
C2554 H2557 0.929 . S
C2555 C2554 1.363 . S
C2555 C2561 1.428 . S
H2556 C2552 0.930 . S
H2557 C2554 0.929 . S
S2558 N2559 1.613 . S
S2558 N2560 1.610 . S
N2559 S2558 1.613 . S
N2559 C2562 1.350 . S
N2560 S2558 1.610 . S
N2560 C2561 1.351 . S
C2561 C2555 1.428 . S
C2561 N2560 1.351 . S
C2561 C2562 1.434 . S
C2562 C2553 1.429 . S
C2562 N2559 1.350 . S
C2562 C2561 1.434 . S
C2563 C2564 1.369 . S
C2563 C2565 1.419 . S
C2563 H2567 0.930 . S
C2564 C2563 1.369 . S
C2564 C2573 1.429 . S
C2565 C2563 1.419 . S
C2565 C2566 1.363 . S
C2565 H2568 0.929 . S
C2566 C2565 1.363 . S
C2566 C2572 1.428 . S
H2567 C2563 0.930 . S
H2568 C2565 0.929 . S
S2569 N2570 1.613 . S
S2569 N2571 1.610 . S
N2570 S2569 1.613 . S
N2570 C2573 1.350 . S
N2571 S2569 1.610 . S
N2571 C2572 1.351 . S
C2572 C2566 1.428 . S
C2572 N2571 1.351 . S
C2572 C2573 1.434 . S
C2573 C2564 1.429 . S
C2573 N2570 1.350 . S
C2573 C2572 1.434 . S
C2574 C2575 1.369 . S
C2574 C2576 1.419 . S
C2574 H2578 0.930 . S
C2575 C2574 1.369 . S
C2575 C2584 1.429 . S
C2576 C2574 1.419 . S
C2576 C2577 1.363 . S
C2576 H2579 0.929 . S
C2577 C2576 1.363 . S
C2577 C2583 1.428 . S
H2578 C2574 0.930 . S
H2579 C2576 0.929 . S
S2580 N2581 1.613 . S
S2580 N2582 1.610 . S
N2581 S2580 1.613 . S
N2581 C2584 1.350 . S
N2582 S2580 1.610 . S
N2582 C2583 1.351 . S
C2583 C2577 1.428 . S
C2583 N2582 1.351 . S
C2583 C2584 1.434 . S
C2584 C2575 1.429 . S
C2584 N2581 1.350 . S
C2584 C2583 1.434 . S
C2585 C2586 1.369 . S
C2585 C2587 1.419 . S
C2585 H2589 0.930 . S
C2586 C2585 1.369 . S
C2586 C2595 1.429 . S
C2587 C2585 1.419 . S
C2587 C2588 1.363 . S
C2587 H2590 0.929 . S
C2588 C2587 1.363 . S
C2588 C2594 1.428 . S
H2589 C2585 0.930 . S
H2590 C2587 0.929 . S
S2591 N2592 1.613 . S
S2591 N2593 1.610 . S
N2592 S2591 1.613 . S
N2592 C2595 1.350 . S
N2593 S2591 1.610 . S
N2593 C2594 1.351 . S
C2594 C2588 1.428 . S
C2594 N2593 1.351 . S
C2594 C2595 1.434 . S
C2595 C2586 1.429 . S
C2595 N2592 1.350 . S
C2595 C2594 1.434 . S
C2596 C2597 1.369 . S
C2596 C2598 1.419 1_556 S
C2596 H2600 0.930 . S
C2597 C2596 1.369 . S
C2597 C2606 1.429 . S
C2598 C2596 1.419 1_554 S
C2598 C2599 1.363 . S
C2598 H2601 0.929 . S
C2599 C2598 1.363 . S
C2599 C2605 1.428 1_554 S
H2600 C2596 0.930 . S
H2601 C2598 0.929 . S
S2602 N2603 1.613 . S
S2602 N2604 1.610 . S
N2603 S2602 1.613 . S
N2603 C2606 1.350 . S
N2604 S2602 1.610 . S
N2604 C2605 1.351 . S
C2605 C2599 1.428 1_556 S
C2605 N2604 1.351 . S
C2605 C2606 1.434 . S
C2606 C2597 1.429 . S
C2606 N2603 1.350 . S
C2606 C2605 1.434 . S
C2607 C2608 1.369 . S
C2607 C2609 1.419 . S
C2607 H2611 0.930 . S
C2608 C2607 1.369 . S
C2608 C2617 1.429 . S
C2609 C2607 1.419 . S
C2609 C2610 1.363 . S
C2609 H2612 0.929 . S
C2610 C2609 1.363 . S
C2610 C2616 1.428 . S
H2611 C2607 0.930 . S
H2612 C2609 0.929 . S
S2613 N2614 1.613 . S
S2613 N2615 1.610 . S
N2614 S2613 1.613 . S
N2614 C2617 1.350 . S
N2615 S2613 1.610 . S
N2615 C2616 1.351 . S
C2616 C2610 1.428 . S
C2616 N2615 1.351 . S
C2616 C2617 1.434 . S
C2617 C2608 1.429 . S
C2617 N2614 1.350 . S
C2617 C2616 1.434 . S
C2618 C2619 1.369 . S
C2618 C2620 1.419 . S
C2618 H2622 0.930 . S
C2619 C2618 1.369 . S
C2619 C2628 1.429 . S
C2620 C2618 1.419 . S
C2620 C2621 1.363 1_554 S
C2620 H2623 0.937 . S
C2621 C2620 1.363 1_556 S
C2621 C2627 1.428 . S
H2622 C2618 0.930 . S
H2623 C2620 0.937 . S
S2624 N2625 1.613 1_556 S
S2624 N2626 1.610 . S
N2625 S2624 1.613 1_554 S
N2625 C2628 1.350 . S
N2626 S2624 1.610 . S
N2626 C2627 1.351 . S
C2627 C2621 1.428 . S
C2627 N2626 1.351 . S
C2627 C2628 1.434 1_556 S
C2628 C2619 1.429 . S
C2628 N2625 1.350 . S
C2628 C2627 1.434 1_554 S
C2629 C2630 1.369 1_554 S
C2629 C2631 1.419 . S
C2629 H2633 0.930 . S
C2630 C2629 1.369 1_556 S
C2630 C2639 1.429 . S
C2631 C2629 1.419 . S
C2631 C2632 1.363 . S
C2631 H2634 0.929 . S
C2632 C2631 1.363 . S
C2632 C2638 1.428 . S
H2633 C2629 0.930 . S
H2634 C2631 0.929 . S
S2635 N2636 1.613 . S
S2635 N2637 1.610 1_556 S
N2636 S2635 1.613 . S
N2636 C2639 1.350 . S
N2637 S2635 1.610 1_554 S
N2637 C2638 1.351 . S
C2638 C2632 1.428 . S
C2638 N2637 1.351 . S
C2638 C2639 1.434 1_554 S
C2639 C2630 1.429 . S
C2639 N2636 1.350 . S
C2639 C2638 1.434 1_556 S
C2640 C2641 1.369 . S
C2640 C2642 1.419 . S
C2640 H2644 0.930 . S
C2641 C2640 1.369 . S
C2641 C2650 1.429 . S
C2642 C2640 1.419 . S
C2642 C2643 1.363 . S
C2642 H2645 0.929 . S
C2643 C2642 1.363 . S
C2643 C2649 1.428 . S
H2644 C2640 0.930 . S
H2645 C2642 0.929 . S
S2646 N2647 1.613 . S
S2646 N2648 1.610 . S
N2647 S2646 1.613 . S
N2647 C2650 1.350 . S
N2648 S2646 1.610 . S
N2648 C2649 1.351 . S
C2649 C2643 1.428 . S
C2649 N2648 1.351 . S
C2649 C2650 1.434 . S
C2650 C2641 1.429 . S
C2650 N2647 1.350 . S
C2650 C2649 1.434 . S
C2651 C2652 1.369 . S
C2651 C2653 1.419 . S
C2651 H2655 0.930 . S
C2652 C2651 1.369 . S
C2652 C2661 1.429 . S
C2653 C2651 1.419 . S
C2653 C2654 1.363 . S
C2653 H2656 0.929 . S
C2654 C2653 1.363 . S
C2654 C2660 1.428 . S
H2655 C2651 0.930 . S
H2656 C2653 0.929 . S
S2657 N2658 1.613 . S
S2657 N2659 1.610 . S
N2658 S2657 1.613 . S
N2658 C2661 1.350 . S
N2659 S2657 1.610 . S
N2659 C2660 1.351 . S
C2660 C2654 1.428 . S
C2660 N2659 1.351 . S
C2660 C2661 1.434 . S
C2661 C2652 1.429 . S
C2661 N2658 1.350 . S
C2661 C2660 1.434 . S
C2662 C2663 1.369 . S
C2662 C2664 1.419 . S
C2662 H2666 0.930 . S
C2663 C2662 1.369 . S
C2663 C2672 1.429 . S
C2664 C2662 1.419 . S
C2664 C2665 1.363 . S
C2664 H2667 0.929 . S
C2665 C2664 1.363 . S
C2665 C2671 1.428 . S
H2666 C2662 0.930 . S
H2667 C2664 0.929 . S
S2668 N2669 1.613 . S
S2668 N2670 1.610 . S
N2669 S2668 1.613 . S
N2669 C2672 1.350 . S
N2670 S2668 1.610 . S
N2670 C2671 1.351 . S
C2671 C2665 1.428 . S
C2671 N2670 1.351 . S
C2671 C2672 1.434 . S
C2672 C2663 1.429 . S
C2672 N2669 1.350 . S
C2672 C2671 1.434 . S
C2673 C2674 1.369 . S
C2673 C2675 1.419 1_545 S
C2673 H2677 0.930 . S
C2674 C2673 1.369 . S
C2674 C2683 1.429 . S
C2675 C2673 1.419 1_565 S
C2675 C2676 1.363 . S
C2675 H2678 0.929 . S
C2676 C2675 1.363 . S
C2676 C2682 1.428 . S
H2677 C2673 0.930 . S
H2678 C2675 0.929 . S
S2679 N2680 1.613 . S
S2679 N2681 1.610 1_545 S
N2680 S2679 1.613 . S
N2680 C2683 1.350 . S
N2681 S2679 1.610 1_565 S
N2681 C2682 1.351 . S
C2682 C2676 1.428 . S
C2682 N2681 1.351 . S
C2682 C2683 1.434 1_565 S
C2683 C2674 1.429 . S
C2683 N2680 1.350 . S
C2683 C2682 1.434 1_545 S
C2684 C2685 1.369 . S
C2684 C2686 1.419 . S
C2684 H2688 0.930 . S
C2685 C2684 1.369 . S
C2685 C2694 1.429 1_554 S
C2686 C2684 1.419 . S
C2686 C2687 1.363 1_554 S
C2686 H2689 0.929 . S
C2687 C2686 1.363 1_556 S
C2687 C2693 1.428 . S
H2688 C2684 0.930 . S
H2689 C2686 0.929 . S
S2690 N2691 1.613 . S
S2690 N2692 1.610 . S
N2691 S2690 1.613 . S
N2691 C2694 1.350 . S
N2692 S2690 1.610 . S
N2692 C2693 1.351 . S
C2693 C2687 1.428 . S
C2693 N2692 1.351 . S
C2693 C2694 1.434 . S
C2694 C2685 1.429 1_556 S
C2694 N2691 1.350 . S
C2694 C2693 1.434 . S
C2695 C2696 1.369 . S
C2695 C2697 1.419 . S
C2695 H2699 0.930 . S
C2696 C2695 1.369 . S
C2696 C2705 1.429 . S
C2697 C2695 1.419 . S
C2697 C2698 1.363 . S
C2697 H2700 0.929 . S
C2698 C2697 1.363 . S
C2698 C2704 1.428 . S
H2699 C2695 0.930 . S
H2700 C2697 0.929 . S
S2701 N2702 1.613 . S
S2701 N2703 1.610 . S
N2702 S2701 1.613 . S
N2702 C2705 1.350 . S
N2703 S2701 1.610 . S
N2703 C2704 1.351 . S
C2704 C2698 1.428 . S
C2704 N2703 1.351 . S
C2704 C2705 1.434 . S
C2705 C2696 1.429 . S
C2705 N2702 1.350 . S
C2705 C2704 1.434 . S
C2706 C2707 1.369 . S
C2706 C2708 1.419 . S
C2706 H2710 0.930 . S
C2707 C2706 1.369 . S
C2707 C2716 1.429 1_556 S
C2708 C2706 1.419 . S
C2708 C2709 1.363 1_556 S
C2708 H2711 0.929 . S
C2709 C2708 1.363 1_554 S
C2709 C2715 1.428 . S
H2710 C2706 0.930 . S
H2711 C2708 0.929 . S
S2712 N2713 1.613 . S
S2712 N2714 1.610 . S
N2713 S2712 1.613 . S
N2713 C2716 1.350 . S
N2714 S2712 1.610 . S
N2714 C2715 1.351 . S
C2715 C2709 1.428 . S
C2715 N2714 1.351 . S
C2715 C2716 1.434 . S
C2716 C2707 1.429 1_554 S
C2716 N2713 1.350 . S
C2716 C2715 1.434 . S
C2717 C2718 1.369 . S
C2717 C2719 1.419 1_545 S
C2717 H2721 0.930 . S
C2718 C2717 1.369 . S
C2718 C2727 1.429 . S
C2719 C2717 1.419 1_565 S
C2719 C2720 1.363 . S
C2719 H2722 0.929 . S
C2720 C2719 1.363 . S
C2720 C2726 1.428 . S
H2721 C2717 0.930 . S
H2722 C2719 0.929 . S
S2723 N2724 1.613 1_455 S
S2723 N2725 1.610 1_445 S
N2724 S2723 1.613 1_655 S
N2724 C2727 1.350 . S
N2725 S2723 1.610 1_665 S
N2725 C2726 1.351 . S
C2726 C2720 1.428 . S
C2726 N2725 1.351 . S
C2726 C2727 1.434 1_565 S
C2727 C2718 1.429 . S
C2727 N2724 1.350 . S
C2727 C2726 1.434 1_545 S
C2728 C2729 1.369 . S
C2728 C2730 1.419 . S
C2728 H2732 0.930 . S
C2729 C2728 1.369 . S
C2729 C2738 1.429 . S
C2730 C2728 1.419 . S
C2730 C2731 1.363 . S
C2730 H2733 0.929 . S
C2731 C2730 1.363 . S
C2731 C2737 1.428 . S
H2732 C2728 0.930 . S
H2733 C2730 0.929 . S
S2734 N2735 1.613 . S
S2734 N2736 1.610 . S
N2735 S2734 1.613 . S
N2735 C2738 1.350 . S
N2736 S2734 1.610 . S
N2736 C2737 1.351 . S
C2737 C2731 1.428 . S
C2737 N2736 1.351 . S
C2737 C2738 1.434 . S
C2738 C2729 1.429 . S
C2738 N2735 1.350 . S
C2738 C2737 1.434 . S
C2739 C2740 1.369 . S
C2739 C2741 1.419 . S
C2739 H2743 0.930 . S
C2740 C2739 1.369 . S
C2740 C2749 1.429 . S
C2741 C2739 1.419 . S
C2741 C2742 1.363 . S
C2741 H2744 0.929 . S
C2742 C2741 1.363 . S
C2742 C2748 1.428 . S
H2743 C2739 0.930 . S
H2744 C2741 0.929 . S
S2745 N2746 1.613 . S
S2745 N2747 1.610 . S
N2746 S2745 1.613 . S
N2746 C2749 1.350 1_556 S
N2747 S2745 1.610 . S
N2747 C2748 1.351 1_556 S
C2748 C2742 1.428 . S
C2748 N2747 1.351 1_554 S
C2748 C2749 1.434 . S
C2749 C2740 1.429 . S
C2749 N2746 1.350 1_554 S
C2749 C2748 1.434 . S
C2750 C2751 1.369 . S
C2750 C2752 1.419 . S
C2750 H2754 0.930 . S
C2751 C2750 1.369 . S
C2751 C2760 1.429 . S
C2752 C2750 1.419 . S
C2752 C2753 1.363 . S
C2752 H2755 0.929 . S
C2753 C2752 1.363 . S
C2753 C2759 1.428 . S
H2754 C2750 0.930 . S
H2755 C2752 0.929 . S
S2756 N2757 1.613 . S
S2756 N2758 1.610 . S
N2757 S2756 1.613 . S
N2757 C2760 1.350 . S
N2758 S2756 1.610 . S
N2758 C2759 1.351 . S
C2759 C2753 1.428 . S
C2759 N2758 1.351 . S
C2759 C2760 1.434 . S
C2760 C2751 1.429 . S
C2760 N2757 1.350 . S
C2760 C2759 1.434 . S
C2761 C2762 1.369 . S
C2761 C2763 1.419 1_455 S
C2761 H2765 0.930 . S
C2762 C2761 1.369 . S
C2762 C2771 1.429 . S
C2763 C2761 1.419 1_655 S
C2763 C2764 1.363 . S
C2763 H2766 0.929 . S
C2764 C2763 1.363 . S
C2764 C2770 1.428 . S
H2765 C2761 0.930 . S
H2766 C2763 0.929 . S
S2767 N2768 1.630 . S
S2767 N2769 1.610 . S
N2768 S2767 1.630 . S
N2768 C2771 1.349 1_655 S
N2769 S2767 1.610 . S
N2769 C2770 1.351 . S
C2770 C2764 1.428 . S
C2770 N2769 1.351 . S
C2770 C2771 1.434 1_655 S
C2771 C2762 1.429 . S
C2771 N2768 1.349 1_455 S
C2771 C2770 1.434 1_455 S
C2772 C2773 1.369 . S
C2772 C2774 1.419 . S
C2772 H2776 0.930 . S
C2773 C2772 1.369 . S
C2773 C2782 1.429 . S
C2774 C2772 1.419 . S
C2774 C2775 1.363 . S
C2774 H2777 0.929 . S
C2775 C2774 1.363 . S
C2775 C2781 1.428 . S
H2776 C2772 0.930 . S
H2777 C2774 0.929 . S
S2778 N2779 1.613 . S
S2778 N2780 1.610 . S
N2779 S2778 1.613 . S
N2779 C2782 1.350 . S
N2780 S2778 1.610 . S
N2780 C2781 1.351 . S
C2781 C2775 1.428 . S
C2781 N2780 1.351 . S
C2781 C2782 1.434 . S
C2782 C2773 1.429 . S
C2782 N2779 1.350 . S
C2782 C2781 1.434 . S
C2783 C2784 1.369 . S
C2783 C2785 1.419 1_554 S
C2783 H2787 0.930 . S
C2784 C2783 1.369 . S
C2784 C2793 1.429 . S
C2785 C2783 1.419 1_556 S
C2785 C2786 1.363 . S
C2785 H2788 0.929 . S
C2786 C2785 1.363 . S
C2786 C2792 1.428 . S
H2787 C2783 0.930 . S
H2788 C2785 0.929 . S
S2789 N2790 1.613 . S
S2789 N2791 1.610 . S
N2790 S2789 1.613 . S
N2790 C2793 1.350 . S
N2791 S2789 1.610 . S
N2791 C2792 1.351 1_554 S
C2792 C2786 1.428 . S
C2792 N2791 1.351 1_556 S
C2792 C2793 1.434 1_556 S
C2793 C2784 1.429 . S
C2793 N2790 1.350 . S
C2793 C2792 1.434 1_554 S
C2794 C2795 1.369 . S
C2794 C2796 1.419 . S
C2794 H2798 0.930 . S
C2795 C2794 1.369 . S
C2795 C2804 1.429 1_545 S
C2796 C2794 1.419 . S
C2796 C2797 1.363 1_545 S
C2796 H2799 0.929 . S
C2797 C2796 1.363 1_565 S
C2797 C2803 1.428 . S
H2798 C2794 0.930 . S
H2799 C2796 0.929 . S
S2800 N2801 1.613 . S
S2800 N2802 1.610 . S
N2801 S2800 1.613 . S
N2801 C2804 1.350 . S
N2802 S2800 1.610 . S
N2802 C2803 1.351 . S
C2803 C2797 1.428 . S
C2803 N2802 1.351 . S
C2803 C2804 1.434 . S
C2804 C2795 1.429 1_565 S
C2804 N2801 1.350 . S
C2804 C2803 1.434 . S
C2805 C2806 1.369 . S
C2805 C2807 1.419 . S
C2805 H2809 0.930 . S
C2806 C2805 1.369 . S
C2806 C2815 1.429 . S
C2807 C2805 1.419 . S
C2807 C2808 1.363 . S
C2807 H2810 0.929 . S
C2808 C2807 1.363 . S
C2808 C2814 1.428 . S
H2809 C2805 0.930 . S
H2810 C2807 0.929 . S
S2811 N2812 1.613 . S
S2811 N2813 1.610 . S
N2812 S2811 1.613 . S
N2812 C2815 1.350 . S
N2813 S2811 1.610 . S
N2813 C2814 1.351 . S
C2814 C2808 1.428 . S
C2814 N2813 1.351 . S
C2814 C2815 1.434 . S
C2815 C2806 1.429 . S
C2815 N2812 1.350 . S
C2815 C2814 1.434 . S
C2816 C2817 1.369 . S
C2816 C2818 1.419 . S
C2816 H2820 0.930 . S
C2817 C2816 1.369 . S
C2817 C2826 1.429 . S
C2818 C2816 1.419 . S
C2818 C2819 1.363 . S
C2818 H2821 0.929 . S
C2819 C2818 1.363 . S
C2819 C2825 1.428 . S
H2820 C2816 0.930 . S
H2821 C2818 0.929 . S
S2822 N2823 1.613 . S
S2822 N2824 1.610 . S
N2823 S2822 1.613 . S
N2823 C2826 1.350 . S
N2824 S2822 1.610 . S
N2824 C2825 1.351 . S
C2825 C2819 1.428 . S
C2825 N2824 1.351 . S
C2825 C2826 1.434 . S
C2826 C2817 1.429 . S
C2826 N2823 1.350 . S
C2826 C2825 1.434 . S
C2827 C2828 1.369 . S
C2827 C2829 1.419 . S
C2827 H2831 0.930 . S
C2828 C2827 1.369 . S
C2828 C2837 1.429 . S
C2829 C2827 1.419 . S
C2829 C2830 1.363 . S
C2829 H2832 0.929 . S
C2830 C2829 1.363 . S
C2830 C2836 1.428 . S
H2831 C2827 0.930 . S
H2832 C2829 0.929 . S
S2833 N2834 1.613 . S
S2833 N2835 1.610 . S
N2834 S2833 1.613 . S
N2834 C2837 1.350 1_565 S
N2835 S2833 1.610 . S
N2835 C2836 1.351 1_565 S
C2836 C2830 1.428 . S
C2836 N2835 1.351 1_545 S
C2836 C2837 1.434 . S
C2837 C2828 1.429 . S
C2837 N2834 1.350 1_545 S
C2837 C2836 1.434 . S
C2838 C2839 1.369 1_655 S
C2838 C2840 1.419 . S
C2838 H2842 0.930 . S
C2839 C2838 1.369 1_455 S
C2839 C2848 1.429 . S
C2840 C2838 1.419 . S
C2840 C2841 1.363 . S
C2840 H2843 0.929 . S
C2841 C2840 1.363 . S
C2841 C2847 1.428 1_655 S
H2842 C2838 0.930 . S
H2843 C2840 0.929 . S
S2844 N2845 1.613 . S
S2844 N2846 1.610 . S
N2845 S2844 1.613 . S
N2845 C2848 1.350 . S
N2846 S2844 1.610 . S
N2846 C2847 1.351 . S
C2847 C2841 1.428 1_455 S
C2847 N2846 1.351 . S
C2847 C2848 1.434 . S
C2848 C2839 1.429 . S
C2848 N2845 1.350 . S
C2848 C2847 1.434 . S
C2849 C2850 1.369 . S
C2849 C2851 1.419 1_455 S
C2849 H2853 0.930 . S
C2850 C2849 1.369 . S
C2850 C2859 1.429 . S
C2851 C2849 1.419 1_655 S
C2851 C2852 1.363 . S
C2851 H2854 0.929 . S
C2852 C2851 1.363 . S
C2852 C2858 1.428 . S
H2853 C2849 0.930 . S
H2854 C2851 0.929 . S
S2855 N2856 1.613 . S
S2855 N2857 1.610 1_455 S
N2856 S2855 1.613 . S
N2856 C2859 1.350 . S
N2857 S2855 1.610 1_655 S
N2857 C2858 1.351 . S
C2858 C2852 1.428 . S
C2858 N2857 1.351 . S
C2858 C2859 1.434 1_655 S
C2859 C2850 1.429 . S
C2859 N2856 1.350 . S
C2859 C2858 1.434 1_455 S
C2860 C2861 1.369 . S
C2860 C2862 1.419 1_455 S
C2860 H2864 0.930 . S
C2861 C2860 1.369 . S
C2861 C2870 1.429 . S
C2862 C2860 1.419 1_655 S
C2862 C2863 1.363 . S
C2862 H2865 0.929 . S
C2863 C2862 1.363 . S
C2863 C2869 1.428 . S
H2864 C2860 0.930 . S
H2865 C2862 0.929 . S
S2866 N2867 1.613 1_655 S
S2866 N2868 1.610 . S
N2867 S2866 1.613 1_455 S
N2867 C2870 1.350 . S
N2868 S2866 1.610 . S
N2868 C2869 1.351 . S
C2869 C2863 1.428 . S
C2869 N2868 1.351 . S
C2869 C2870 1.434 1_655 S
C2870 C2861 1.429 . S
C2870 N2867 1.350 . S
C2870 C2869 1.434 1_455 S
C2871 C2872 1.369 . S
C2871 C2873 1.419 . S
C2871 H2875 0.930 . S
C2872 C2871 1.369 . S
C2872 C2881 1.429 . S
C2873 C2871 1.419 . S
C2873 C2874 1.363 . S
C2873 H2876 0.929 . S
C2874 C2873 1.363 . S
C2874 C2880 1.428 . S
H2875 C2871 0.930 . S
H2876 C2873 0.929 . S
S2877 N2878 1.613 . S
S2877 N2879 1.610 . S
N2878 S2877 1.613 . S
N2878 C2881 1.350 . S
N2879 S2877 1.610 . S
N2879 C2880 1.351 . S
C2880 C2874 1.428 . S
C2880 N2879 1.351 . S
C2880 C2881 1.434 . S
C2881 C2872 1.429 . S
C2881 N2878 1.350 . S
C2881 C2880 1.434 . S
C2882 C2883 1.369 . S
C2882 C2884 1.419 1_565 S
C2882 H2886 0.930 . S
C2883 C2882 1.369 . S
C2883 C2892 1.429 . S
C2884 C2882 1.419 1_545 S
C2884 C2885 1.363 . S
C2884 H2887 0.929 . S
C2885 C2884 1.363 . S
C2885 C2891 1.428 . S
H2886 C2882 0.930 . S
H2887 C2884 0.929 . S
S2888 N2889 1.613 . S
S2888 N2890 1.610 1_565 S
N2889 S2888 1.613 . S
N2889 C2892 1.350 . S
N2890 S2888 1.610 1_545 S
N2890 C2891 1.351 . S
C2891 C2885 1.428 . S
C2891 N2890 1.351 . S
C2891 C2892 1.434 1_545 S
C2892 C2883 1.429 . S
C2892 N2889 1.350 . S
C2892 C2891 1.434 1_565 S
C2893 C2894 1.369 . S
C2893 C2895 1.419 1_554 S
C2893 H2897 0.930 . S
C2894 C2893 1.369 . S
C2894 C2903 1.429 . S
C2895 C2893 1.419 1_556 S
C2895 C2896 1.363 . S
C2895 H2898 0.929 . S
C2896 C2895 1.363 . S
C2896 C2902 1.428 . S
H2897 C2893 0.930 . S
H2898 C2895 0.929 . S
S2899 N2900 1.613 1_556 S
S2899 N2901 1.610 . S
N2900 S2899 1.613 1_554 S
N2900 C2903 1.350 . S
N2901 S2899 1.610 . S
N2901 C2902 1.351 . S
C2902 C2896 1.428 . S
C2902 N2901 1.351 . S
C2902 C2903 1.434 1_556 S
C2903 C2894 1.429 . S
C2903 N2900 1.350 . S
C2903 C2902 1.434 1_554 S
C1585 N904 1.289 . S
C1587 C18 1.342 . S
C1596 C51 1.342 . S
C1598 N805 1.293 . S
C1607 C84 1.344 . S
C1609 N838 1.297 . S
C1618 N871 1.296 . S
C1620 C117 1.344 . S
C1629 C150 1.342 . S
C1631 N178 1.290 . S
C1640 N211 1.298 . S
C1642 C183 1.343 1_655 S
C1651 N244 1.298 . S
C1653 C216 1.344 . S
C1662 C249 1.343 1_455 S
C1664 N145 1.290 . S
C1673 C282 1.343 . S
C1675 N1399 1.295 . S
C1684 C315 1.344 1_556 S
C1686 N1432 1.296 . S
C1695 C348 1.343 . S
C1697 N673 1.297 . S
C1706 N1366 1.288 . S
C1708 C381 1.343 1_556 S
C1717 N1531 1.298 . S
C1719 C414 1.344 . S
C1728 N541 1.295 . S
C1730 C447 1.343 1_554 S
C1739 C480 1.344 . S
C1741 N1564 1.292 . S
C1750 C513 1.342 1_554 S
C1752 N1498 1.289 . S
C1761 N310 1.290 . S
C1763 C546 1.343 . S
C1772 N1300 1.289 . S
C1774 C579 1.342 . S
C1783 N1201 1.297 . S
C1785 C612 1.343 . S
C1794 N1234 1.288 . S
C1796 C645 1.343 . S
C1805 C678 1.344 . S
C1807 N475 1.294 . S
C1816 C711 1.344 . S
C1818 N1168 1.296 . S
C1827 N1069 1.293 . S
C1829 C744 1.343 . S
C1838 C777 1.343 1_565 S
C1840 N1135 1.294 . S
C1849 C810 1.342 . S
C1851 N112 1.291 . S
C1860 C843 1.342 1_455 S
C1862 N13 1.293 . S
C1871 N46 1.290 . S
C1873 C876 1.342 . S
C1882 N79 1.293 . S
C1884 C909 1.344 1_655 S
C1893 N970 1.296 . S
C1895 C942 1.344 . S
C1904 N1003 1.296 . S
C1906 C975 1.344 . S
C1915 C1008 1.344 . S
C1917 N1036 1.296 . S
C1926 C1041 1.343 . S
C1928 N937 1.289 . S
C1937 C1074 1.343 . S
C1939 N607 1.290 . S
C1948 N640 1.296 . S
C1950 C1107 1.344 . S
C1959 N1465 1.298 . S
C1961 C1140 1.344 . S
C1970 C1173 1.342 . S
C1972 N574 1.289 . S
C1981 N739 1.297 . S
C1983 C1206 1.344 . S
C1992 C1239 1.344 . S
C1994 N1333 1.297 . S
C2003 C1272 1.344 . S
C2005 N772 1.295 . S
C2014 N706 1.297 . S
C2016 C1305 1.344 . S
C2025 N1102 1.294 . S
C2027 C1338 1.343 . S
C2036 N508 1.297 . S
C2038 C1371 1.344 . S
C2047 C1404 1.342 1_565 S
C2049 N409 1.292 . S
C2058 N442 1.294 . S
C2060 C1437 1.343 . S
C2069 C1470 1.343 1_545 S
C2071 N1267 1.296 . S
C2080 C1503 1.342 . S
C2082 N376 1.289 . S
C2091 N277 1.298 . S
C2093 C1536 1.344 1_545 S
C2102 N343 1.296 . S
C2104 C1569 1.343 . S
C2113 C1393 0.834 . S
C2115 C21 0.818 . S
C2124 C1426 0.835 . S
C2126 C54 0.818 . S
C2135 C667 0.834 . S
C2137 C87 0.818 . S
C2146 C1360 0.833 . S
C2148 C120 0.817 . S
C2157 C153 0.808 . S
C2159 C1525 0.831 . S
C2168 C535 0.833 . S
C2170 C186 0.811 . S
C2179 C1558 0.831 . S
C2181 C219 0.808 . S
C2190 C252 0.799 . S
C2192 C1492 0.827 . S
C2201 C285 0.812 . S
C2203 C304 0.832 . S
C2212 C337 0.830 . S
C2214 C318 0.805 . S
C2223 C370 0.828 . S
C2225 C351 0.802 . S
C2234 C271 0.827 . S
C2236 C384 0.805 . S
C2245 C1294 0.828 . S
C2247 C417 0.807 . S
C2256 C1195 0.830 . S
C2258 C450 0.804 . S
C2267 C1228 0.828 . S
C2269 C483 0.807 . S
C2278 C516 0.798 . S
C2280 C1261 0.828 . S
C2289 C898 0.834 . S
C2291 C549 0.818 . S
C2300 C582 0.821 . S
C2302 C172 0.833 . S
C2311 C205 0.829 . S
C2313 C615 0.803 . S
C2322 C238 0.827 . S
C2324 C648 0.801 . S
C2333 C681 0.808 . S
C2335 C931 0.829 . S
C2344 C40 0.835 . S
C2346 C714 0.818 . S
C2355 C747 0.809 . S
C2357 C73 0.829 . S
C2366 C780 0.798 . S
C2368 C7 0.828 . S
C2377 C601 0.827 . S
C2379 C813 0.801 . S
C2388 C634 0.827 . S
C2390 C846 0.801 . S
C2399 C879 0.820 . S
C2401 C1459 0.834 . S
C2410 C912 0.802 . S
C2412 C568 0.830 . S
C2421 C733 0.835 . S
C2423 C945 0.818 . S
C2432 C1327 0.831 . S
C2434 C978 0.806 . S
C2443 C766 0.834 . S
C2445 C1011 0.814 . S
C2454 C1044 0.821 . S
C2456 C700 0.833 . S
C2465 C1077 0.809 . S
C2467 C1096 0.831 . S
C2476 C1129 0.834 . S
C2478 C1110 0.815 . S
C2487 C1143 0.801 . S
C2489 C1162 0.829 . S
C2498 C1176 0.800 . S
C2500 C1063 0.828 . S
C2509 C1209 0.801 . S
C2511 C502 0.829 . S
C2520 C403 0.834 . S
C2522 C1242 0.815 . S
C2531 C436 0.829 . S
C2533 C1275 0.809 . S
C2542 C469 0.835 . S
C2544 C1308 0.818 . S
C2553 C106 0.835 . S
C2555 C1341 0.817 . S
C2564 C964 0.828 . S
C2566 C1374 0.801 . S
C2575 C1407 0.800 . S
C2577 C997 0.827 . S
C2586 C1440 0.802 . S
C2588 C1030 0.828 . S
C2597 C1473 0.803 . S
C2599 C139 0.828 . S
C2608 C1506 0.800 . S
C2610 C832 0.829 . S
C2619 C1539 0.818 . S
C2621 C865 0.834 . S
C2630 C799 0.834 . S
C2632 C1572 0.813 . S
C2641 N2 1.223 . S
C2643 N992 1.219 . S
C2652 N35 1.224 . S
C2654 N1025 1.219 . S
C2663 N926 1.223 . S
C2665 N68 1.221 . S
C2674 N959 1.224 . S
C2676 N101 1.219 . S
C2685 N134 1.221 . S
C2687 N860 1.220 . S
C2696 N893 1.219 . S
C2698 N167 1.223 . S
C2707 N794 1.223 . S
C2709 N200 1.219 . S
C2718 N827 1.224 . S
C2720 N233 1.219 . S
C2729 N266 1.219 . S
C2731 N332 1.224 . S
C2740 N299 1.219 . S
C2742 N365 1.222 . S
C2751 N464 1.221 . S
C2753 N398 1.223 . S
C2762 N431 1.218 . S
C2764 N497 1.223 . S
C2773 N530 1.218 . S
C2775 N563 1.223 . S
C2784 N1553 1.224 . S
C2786 N596 1.219 . S
C2795 N1487 1.224 . S
C2797 N629 1.219 . S
C2806 N662 1.220 . S
C2808 N728 1.223 . S
C2817 N695 1.218 . S
C2819 N1421 1.224 . S
C2828 N761 1.222 . S
C2830 N1388 1.220 . S
C2839 N1124 1.220 . S
C2841 N1058 1.223 . S
C2850 N1157 1.224 . S
C2852 N1091 1.219 . S
C2861 N1256 1.223 . S
C2863 N1190 1.221 . S
C2872 N1289 1.224 . S
C2874 N1223 1.219 . S
C2883 N1322 1.219 . S
C2885 N1355 1.221 . S
C2894 N1520 1.218 . S
C2896 N1454 1.224 . S
