# Generated by pormake.
# Topology ukt, (4)-cn, num edge types: 1
# Building blocks:
#     Node 0, Type 0, BuildingBlock: ICAMEG_clean_sbu_1, # of connection points: 4
#     Node 1, Type 0, BuildingBlock: ICAMEG_clean_sbu_1, # of connection points: 4
#     Node 2, Type 0, BuildingBlock: ICAMEG_clean_sbu_1, # of connection points: 4
#     Node 3, Type 0, BuildingBlock: ICAMEG_clean_sbu_1, # of connection points: 4
#     Node 4, Type 0, BuildingBlock: ICAMEG_clean_sbu_1, # of connection points: 4
#     Node 5, Type 0, BuildingBlock: ICAMEG_clean_sbu_1, # of connection points: 4
#     Node 6, Type 0, BuildingBlock: ICAMEG_clean_sbu_1, # of connection points: 4
#     Node 7, Type 0, BuildingBlock: ICAMEG_clean_sbu_1, # of connection points: 4
#     Node 8, Type 0, BuildingBlock: ICAMEG_clean_sbu_1, # of connection points: 4
#     Node 9, Type 0, BuildingBlock: ICAMEG_clean_sbu_1, # of connection points: 4
#     Node 10, Type 0, BuildingBlock: ICAMEG_clean_sbu_1, # of connection points: 4
#     Node 11, Type 0, BuildingBlock: ICAMEG_clean_sbu_1, # of connection points: 4
#     Node 12, Type 0, BuildingBlock: ICAMEG_clean_sbu_1, # of connection points: 4
#     Node 13, Type 0, BuildingBlock: ICAMEG_clean_sbu_1, # of connection points: 4
#     Node 14, Type 0, BuildingBlock: ICAMEG_clean_sbu_1, # of connection points: 4
#     Node 15, Type 0, BuildingBlock: ICAMEG_clean_sbu_1, # of connection points: 4
#     Edge 16, Type (0, 0), BuildingBlock: OJICUG_clean_linker_0, # of connection points: 2
#     Edge 17, Type (0, 0), BuildingBlock: OJICUG_clean_linker_0, # of connection points: 2
#     Edge 18, Type (0, 0), BuildingBlock: OJICUG_clean_linker_0, # of connection points: 2
#     Edge 19, Type (0, 0), BuildingBlock: OJICUG_clean_linker_0, # of connection points: 2
#     Edge 20, Type (0, 0), BuildingBlock: OJICUG_clean_linker_0, # of connection points: 2
#     Edge 21, Type (0, 0), BuildingBlock: OJICUG_clean_linker_0, # of connection points: 2
#     Edge 22, Type (0, 0), BuildingBlock: OJICUG_clean_linker_0, # of connection points: 2
#     Edge 23, Type (0, 0), BuildingBlock: OJICUG_clean_linker_0, # of connection points: 2
#     Edge 24, Type (0, 0), BuildingBlock: OJICUG_clean_linker_0, # of connection points: 2
#     Edge 25, Type (0, 0), BuildingBlock: OJICUG_clean_linker_0, # of connection points: 2
#     Edge 26, Type (0, 0), BuildingBlock: OJICUG_clean_linker_0, # of connection points: 2
#     Edge 27, Type (0, 0), BuildingBlock: OJICUG_clean_linker_0, # of connection points: 2
#     Edge 28, Type (0, 0), BuildingBlock: OJICUG_clean_linker_0, # of connection points: 2
#     Edge 29, Type (0, 0), BuildingBlock: OJICUG_clean_linker_0, # of connection points: 2
#     Edge 30, Type (0, 0), BuildingBlock: OJICUG_clean_linker_0, # of connection points: 2
#     Edge 31, Type (0, 0), BuildingBlock: OJICUG_clean_linker_0, # of connection points: 2
#     Edge 32, Type (0, 0), BuildingBlock: OJICUG_clean_linker_0, # of connection points: 2
#     Edge 33, Type (0, 0), BuildingBlock: OJICUG_clean_linker_0, # of connection points: 2
#     Edge 34, Type (0, 0), BuildingBlock: OJICUG_clean_linker_0, # of connection points: 2
#     Edge 35, Type (0, 0), BuildingBlock: OJICUG_clean_linker_0, # of connection points: 2
#     Edge 36, Type (0, 0), BuildingBlock: OJICUG_clean_linker_0, # of connection points: 2
#     Edge 37, Type (0, 0), BuildingBlock: OJICUG_clean_linker_0, # of connection points: 2
#     Edge 38, Type (0, 0), BuildingBlock: OJICUG_clean_linker_0, # of connection points: 2
#     Edge 39, Type (0, 0), BuildingBlock: OJICUG_clean_linker_0, # of connection points: 2
#     Edge 40, Type (0, 0), BuildingBlock: OJICUG_clean_linker_0, # of connection points: 2
#     Edge 41, Type (0, 0), BuildingBlock: OJICUG_clean_linker_0, # of connection points: 2
#     Edge 42, Type (0, 0), BuildingBlock: OJICUG_clean_linker_0, # of connection points: 2
#     Edge 43, Type (0, 0), BuildingBlock: OJICUG_clean_linker_0, # of connection points: 2
#     Edge 44, Type (0, 0), BuildingBlock: OJICUG_clean_linker_0, # of connection points: 2
#     Edge 45, Type (0, 0), BuildingBlock: OJICUG_clean_linker_0, # of connection points: 2
#     Edge 46, Type (0, 0), BuildingBlock: OJICUG_clean_linker_0, # of connection points: 2
#     Edge 47, Type (0, 0), BuildingBlock: OJICUG_clean_linker_0, # of connection points: 2
# Relax obj value: 0.215
# Max RMSD: 0.134
# Mean RMSD: 0.134
data_MOF--net-ukt--node1-ICAMEG_clean_sbu_1--edge1-OJICUG_clean_linker_0
_symmetry_space_group_name_H-M    P1
_symmetry_Int_Tables_number       1
_symmetry_cell_setting            triclinic
loop_
_symmetry_equiv_pos_as_xyz
'x, y, z'
_cell_length_a     33.344654
_cell_length_b     33.33745
_cell_length_c     30.360654
_cell_angle_alpha  90.000002
_cell_angle_beta   90.005532
_cell_angle_gamma 89.998357
loop_
_atom_site_label
_atom_site_type_symbol
_atom_site_fract_x
_atom_site_fract_y
_atom_site_fract_z
_atom_type_partial_charge
Co0 Co 0.58758 0.16726 0.11498 0.0
Co1 Co 0.52811 0.16329 0.02159 0.0
O2 O 0.53793 0.15369 0.08426 0.0
C3 C 0.52808 0.21573 0.16487 0.0
O4 O 0.51573 0.23189 0.12785 0.0
C5 C 0.52437 0.07594 0.02987 0.0
O6 O 0.55562 0.07911 0.05588 0.0
O7 O 0.58263 0.14408 0.00441 0.0
O8 O 0.61983 0.14423 0.06622 0.0
H9 H 0.55997 0.2166 0.87075 0.0
H10 H 0.52437 0.11995 0.16005 0.0
O11 O 0.55599 0.18977 0.165 0.0
H12 H 0.64513 0.03457 0.16269 0.0
H13 H 0.67575 0.18182 0.24893 0.0
H14 H 0.6665 0.20018 0.08807 0.0
H15 H 0.64731 0.10198 0.12932 0.0
H16 H 0.6139 0.16366 0.20903 0.0
O17 O 0.50769 0.1073 0.01443 0.0
H18 H 0.57253 0.20388 0.94957 0.0
H19 H 0.46122 0.14274 0.96048 0.0
H20 H 0.72933 0.2173 0.12644 0.0
H21 H 0.52094 0.05287 0.19417 0.0
H22 H 0.73411 0.20873 0.20756 0.0
H23 H 0.58159 0.00962 0.19547 0.0
O24 O 0.59002 0.22136 0.08625 0.0
H25 H 0.39528 0.15488 0.09911 0.0
H26 H 0.47982 0.23593 0.99991 0.0
H27 H 0.4128 0.26076 0.02091 0.0
H28 H 0.36999 0.22005 0.07076 0.0
H29 H 0.46267 0.13138 0.07755 0.0
H30 H 0.44763 0.15442 0.88162 0.0
H31 H 0.49714 0.19175 0.83626 0.0
O32 O 0.54922 0.21843 0.02733 0.0
C33 C 0.61515 0.13763 0.02524 0.0
C34 C 0.5381 0.2004 0.89019 0.0
C35 C 0.47508 0.16546 0.89629 0.0
N36 N 0.51748 0.1729 0.95967 0.0
C37 C 0.54499 0.19322 0.93488 0.0
C38 C 0.48297 0.15886 0.94089 0.0
C39 C 0.50286 0.18642 0.87086 0.0
C40 C 0.55096 0.10141 0.1608 0.0
N41 N 0.58601 0.11487 0.14275 0.0
C42 C 0.54881 0.06342 0.18004 0.0
C43 C 0.58284 0.03915 0.18072 0.0
C44 C 0.61849 0.05311 0.1623 0.0
C45 C 0.61952 0.09127 0.14335 0.0
C46 C 0.67402 0.18581 0.2136 0.0
C47 C 0.6685 0.19576 0.12327 0.0
C48 C 0.63901 0.17573 0.19083 0.0
N49 N 0.63663 0.18067 0.14619 0.0
C50 C 0.70408 0.20582 0.14489 0.0
C51 C 0.70676 0.20091 0.19038 0.0
C52 C 0.57371 0.23701 0.05223 0.0
C53 C 0.41361 0.17284 0.07728 0.0
C54 C 0.46143 0.21814 0.02176 0.0
C55 C 0.42347 0.2323 0.03345 0.0
C56 C 0.39946 0.20943 0.0614 0.0
N57 N 0.47502 0.18216 0.03735 0.0
C58 C 0.45172 0.15963 0.06486 0.0
Co59 Co 0.3291 0.58541 0.11594 0.0
Co60 Co 0.33244 0.5274 0.02143 0.0
O61 O 0.3425 0.53627 0.08416 0.0
C62 C 0.28139 0.52481 0.16517 0.0
O63 O 0.26511 0.51284 0.12806 0.0
C64 C 0.41978 0.52349 0.02904 0.0
O65 O 0.41674 0.55447 0.05545 0.0
O66 O 0.35152 0.5822 0.00511 0.0
O67 O 0.35166 0.61853 0.06755 0.0
H68 H 0.27796 0.56159 0.8717 0.0
H69 H 0.37699 0.52154 0.15915 0.0
O70 O 0.3071 0.55295 0.16557 0.0
H71 H 0.46191 0.64259 0.16369 0.0
H72 H 0.31487 0.67112 0.25185 0.0
H73 H 0.29572 0.66467 0.09093 0.0
H74 H 0.39422 0.64513 0.13104 0.0
H75 H 0.33335 0.61017 0.21047 0.0
O76 O 0.38835 0.50706 0.01346 0.0
H77 H 0.29124 0.5729 0.95064 0.0
H78 H 0.35261 0.46151 0.95886 0.0
H79 H 0.27825 0.72663 0.1308 0.0
H80 H 0.44435 0.51773 0.19252 0.0
H81 H 0.28721 0.72999 0.21194 0.0
H82 H 0.48737 0.57853 0.19477 0.0
O83 O 0.27477 0.58819 0.08781 0.0
H84 H 0.34133 0.39338 0.09645 0.0
H85 H 0.2597 0.47941 0.99937 0.0
H86 H 0.23503 0.41206 0.0193 0.0
H87 H 0.27603 0.3685 0.06809 0.0
H88 H 0.36468 0.46111 0.07597 0.0
H89 H 0.34038 0.44917 0.87985 0.0
H90 H 0.30265 0.49935 0.83578 0.0
O91 O 0.27735 0.54842 0.02803 0.0
C92 C 0.35803 0.61446 0.02643 0.0
C93 C 0.29434 0.53944 0.89058 0.0
C94 C 0.32941 0.47636 0.89515 0.0
N95 N 0.32238 0.51774 0.9594 0.0
C96 C 0.30184 0.54562 0.93532 0.0
C97 C 0.33632 0.48355 0.93984 0.0
C98 C 0.30823 0.50453 0.87044 0.0
C99 C 0.39543 0.54819 0.16031 0.0
N100 N 0.38171 0.58352 0.14317 0.0
C101 C 0.43359 0.54583 0.17912 0.0
C102 C 0.45772 0.57994 0.18033 0.0
C103 C 0.44347 0.61588 0.16287 0.0
C104 C 0.40517 0.61712 0.14431 0.0
C105 C 0.31072 0.67001 0.2165 0.0
C106 C 0.30034 0.66607 0.12613 0.0
C107 C 0.32098 0.63551 0.1929 0.0
N108 N 0.3158 0.6339 0.14825 0.0
C109 C 0.29008 0.70116 0.1486 0.0
C110 C 0.2952 0.70303 0.19411 0.0
C111 C 0.2589 0.57243 0.0536 0.0
C112 C 0.32324 0.41204 0.07509 0.0
C113 C 0.27762 0.4607 0.02076 0.0
C114 C 0.26354 0.42255 0.03185 0.0
C115 C 0.28657 0.39812 0.0592 0.0
N116 N 0.31367 0.47407 0.03636 0.0
C117 C 0.33637 0.45035 0.06328 0.0
Co118 Co 0.9068 0.33075 0.11585 0.0
Co119 Co 0.96778 0.33401 0.02362 0.0
O120 O 0.95687 0.34424 0.08594 0.0
C121 C 0.9664 0.28373 0.16701 0.0
O122 O 0.97975 0.26807 0.13016 0.0
C123 C 0.97136 0.42143 0.031 0.0
O124 O 0.93963 0.41851 0.05632 0.0
O125 O 0.91354 0.35302 0.0051 0.0
O126 O 0.87527 0.35313 0.06613 0.0
H127 H 0.93861 0.27921 0.87276 0.0
H128 H 0.969 0.37885 0.16163 0.0
O129 O 0.93773 0.30886 0.16672 0.0
H130 H 0.84781 0.46364 0.16061 0.0
H131 H 0.81639 0.31728 0.24812 0.0
H132 H 0.82849 0.29724 0.08773 0.0
H133 H 0.84654 0.39588 0.12805 0.0
H134 H 0.87891 0.33515 0.20931 0.0
O135 O 0.98829 0.38993 0.01625 0.0
H136 H 0.92464 0.2927 0.95115 0.0
H137 H 0.03572 0.35401 0.96372 0.0
H138 H 0.76503 0.28041 0.12496 0.0
H139 H 0.97151 0.44629 0.19497 0.0
H140 H 0.7588 0.28985 0.20585 0.0
H141 H 0.91064 0.48924 0.19443 0.0
O142 O 0.90509 0.27633 0.08782 0.0
H143 H 0.09915 0.34323 0.104 0.0
H144 H 0.01652 0.26122 0.0038 0.0
H145 H 0.08314 0.23662 0.02662 0.0
H146 H 0.12498 0.27781 0.07699 0.0
H147 H 0.03219 0.3665 0.08063 0.0
H148 H 0.05072 0.34155 0.88532 0.0
H149 H 0.00204 0.30374 0.83935 0.0
O150 O 0.94664 0.27888 0.02954 0.0
C151 C 0.88065 0.35948 0.0252 0.0
C152 C 0.96012 0.29561 0.89248 0.0
C153 C 0.02301 0.33065 0.89952 0.0
N154 N 0.9795 0.32381 0.96206 0.0
C155 C 0.95243 0.30324 0.93692 0.0
C156 C 0.01433 0.33768 0.94386 0.0
C157 C 0.99569 0.30941 0.87375 0.0
C158 C 0.94231 0.39725 0.16159 0.0
N159 N 0.90766 0.38343 0.14297 0.0
C160 C 0.94395 0.43546 0.18038 0.0
C161 C 0.90979 0.45956 0.18003 0.0
C162 C 0.87454 0.44522 0.16104 0.0
C163 C 0.87402 0.40687 0.14255 0.0
C164 C 0.81876 0.31292 0.21289 0.0
C165 C 0.82587 0.30202 0.12283 0.0
C166 C 0.85414 0.32282 0.19074 0.0
N167 N 0.8573 0.31743 0.14622 0.0
C168 C 0.78993 0.29212 0.14381 0.0
C169 C 0.78645 0.29752 0.18917 0.0
C170 C 0.92194 0.26041 0.05428 0.0
C171 C 0.08124 0.32506 0.08196 0.0
C172 C 0.0345 0.27923 0.02586 0.0
C173 C 0.07223 0.26519 0.03858 0.0
C174 C 0.0957 0.28833 0.06683 0.0
N175 N 0.0206 0.31534 0.04073 0.0
C176 C 0.04338 0.33815 0.06851 0.0
Co177 Co 0.16766 0.90829 0.11639 0.0
Co178 Co 0.16406 0.96879 0.02378 0.0
O179 O 0.15406 0.95821 0.08623 0.0
C180 C 0.21483 0.96808 0.16725 0.0
O181 O 0.23062 0.98119 0.13036 0.0
C182 C 0.07672 0.9724 0.0316 0.0
O183 O 0.0798 0.94077 0.05706 0.0
O184 O 0.14498 0.91444 0.00567 0.0
O185 O 0.14519 0.87647 0.06692 0.0
H186 H 0.21826 0.93881 0.87286 0.0
H187 H 0.11959 0.97068 0.1619 0.0
O188 O 0.1896 0.93948 0.16706 0.0
H189 H 0.035 0.84933 0.16196 0.0
H190 H 0.18176 0.81846 0.2491 0.0
H191 H 0.20121 0.82995 0.08857 0.0
H192 H 0.10267 0.84798 0.1292 0.0
H193 H 0.16356 0.88077 0.21003 0.0
O194 O 0.10813 0.98927 0.01655 0.0
H195 H 0.20508 0.92525 0.95139 0.0
H196 H 0.14384 0.03642 0.96353 0.0
H197 H 0.21839 0.76671 0.12604 0.0
H198 H 0.05224 0.97327 0.19542 0.0
H199 H 0.20924 0.76077 0.20699 0.0
H200 H 0.00939 0.91232 0.19543 0.0
O201 O 0.22197 0.90652 0.08822 0.0
H202 H 0.15519 0.10063 0.10331 0.0
H203 H 0.23678 0.0174 0.00331 0.0
H204 H 0.26147 0.08414 0.02556 0.0
H205 H 0.2205 0.12629 0.07583 0.0
H206 H 0.13182 0.03353 0.08051 0.0
H207 H 0.15598 0.051 0.88497 0.0
H208 H 0.1936 0.00207 0.83914 0.0
O209 O 0.21919 0.94765 0.02958 0.0
C210 C 0.13867 0.88162 0.02598 0.0
C211 C 0.20194 0.96042 0.89251 0.0
C212 C 0.16694 0.02337 0.8993 0.0
N213 N 0.17402 0.98018 0.96209 0.0
C214 C 0.19449 0.95297 0.93704 0.0
C215 C 0.16008 0.01492 0.94373 0.0
C216 C 0.18807 0.99591 0.87361 0.0
C217 C 0.10123 0.94396 0.16209 0.0
N218 N 0.11505 0.90921 0.14366 0.0
C219 C 0.06308 0.94564 0.18098 0.0
C220 C 0.03904 0.91144 0.18094 0.0
C221 C 0.05337 0.87609 0.16215 0.0
C222 C 0.09167 0.87554 0.14354 0.0
C223 C 0.18599 0.82069 0.21383 0.0
C224 C 0.19655 0.82746 0.1237 0.0
C225 C 0.17589 0.85596 0.19154 0.0
N226 N 0.18112 0.85895 0.14699 0.0
C227 C 0.20664 0.79164 0.14481 0.0
C228 C 0.20141 0.78833 0.19021 0.0
C229 C 0.23775 0.92312 0.05446 0.0
C230 C 0.17327 0.08259 0.08131 0.0
C231 C 0.21886 0.0355 0.02533 0.0
C232 C 0.23295 0.07331 0.03773 0.0
C233 C 0.20994 0.09695 0.06592 0.0
N234 N 0.18281 0.0217 0.04046 0.0
C235 C 0.16013 0.04465 0.06818 0.0
Co236 Co 0.58905 0.32971 0.38589 0.0
Co237 Co 0.52887 0.33318 0.47874 0.0
O238 O 0.53919 0.34314 0.41625 0.0
C239 C 0.52936 0.28206 0.33547 0.0
O240 O 0.51647 0.26626 0.37245 0.0
C241 C 0.52506 0.42056 0.47095 0.0
O242 O 0.55653 0.41755 0.44524 0.0
O243 O 0.58323 0.3524 0.49656 0.0
O244 O 0.62094 0.35247 0.43511 0.0
H245 H 0.55954 0.27902 0.62951 0.0
H246 H 0.52621 0.37733 0.34055 0.0
O247 O 0.55778 0.30747 0.33547 0.0
H248 H 0.64707 0.4626 0.33959 0.0
H249 H 0.67825 0.3159 0.25267 0.0
H250 H 0.66776 0.29662 0.41331 0.0
H251 H 0.64894 0.395 0.37253 0.0
H252 H 0.61607 0.33378 0.2921 0.0
O253 O 0.50832 0.38909 0.48605 0.0
H254 H 0.57276 0.29225 0.55092 0.0
H255 H 0.46146 0.3533 0.5393 0.0
H256 H 0.7309 0.27977 0.37543 0.0
H257 H 0.5231 0.4446 0.30684 0.0
H258 H 0.73632 0.28883 0.29442 0.0
H259 H 0.5838 0.48778 0.30638 0.0
O260 O 0.59126 0.27544 0.41425 0.0
H261 H 0.39674 0.34179 0.39981 0.0
H262 H 0.48049 0.26037 0.49947 0.0
H263 H 0.41371 0.23554 0.47754 0.0
H264 H 0.37131 0.27643 0.42744 0.0
H265 H 0.46387 0.36529 0.4223 0.0
H266 H 0.44721 0.34111 0.61793 0.0
H267 H 0.49638 0.30355 0.66352 0.0
O268 O 0.55009 0.27809 0.47286 0.0
C269 C 0.61591 0.35894 0.47608 0.0
C270 C 0.53782 0.29531 0.60996 0.0
C271 C 0.4748 0.3302 0.60347 0.0
N272 N 0.51775 0.32322 0.54048 0.0
C273 C 0.54509 0.30279 0.56541 0.0
C274 C 0.48307 0.33709 0.559 0.0
C275 C 0.5024 0.30912 0.62903 0.0
C276 C 0.55283 0.39584 0.34017 0.0
N277 N 0.58772 0.38225 0.35845 0.0
C278 C 0.55085 0.43394 0.32116 0.0
C279 C 0.58491 0.45817 0.32096 0.0
C280 C 0.62041 0.44407 0.3396 0.0
C281 C 0.62126 0.40582 0.35832 0.0
C282 C 0.67624 0.31171 0.28796 0.0
C283 C 0.67003 0.30124 0.37816 0.0
C284 C 0.64104 0.32162 0.31046 0.0
N285 N 0.63832 0.31644 0.35504 0.0
C286 C 0.70578 0.29133 0.35682 0.0
C287 C 0.70882 0.29652 0.31139 0.0
C288 C 0.57472 0.25962 0.44804 0.0
C289 C 0.41489 0.32375 0.42173 0.0
C290 C 0.46227 0.27824 0.47752 0.0
C291 C 0.42445 0.26408 0.46531 0.0
C292 C 0.40066 0.28705 0.43721 0.0
N293 N 0.47594 0.31432 0.46231 0.0
C294 C 0.45286 0.33696 0.43468 0.0
Co295 Co 0.16808 0.58595 0.38463 0.0
Co296 Co 0.16376 0.52812 0.47923 0.0
O297 O 0.15407 0.53698 0.41642 0.0
C298 C 0.21557 0.52496 0.33567 0.0
O299 O 0.23178 0.51301 0.37281 0.0
C300 C 0.07639 0.52477 0.47119 0.0
O301 O 0.07966 0.5557 0.44474 0.0
O302 O 0.14494 0.58306 0.4953 0.0
O303 O 0.1456 0.61937 0.43285 0.0
H304 H 0.21751 0.56225 0.62928 0.0
H305 H 0.11974 0.52245 0.34138 0.0
O306 O 0.18998 0.55322 0.33516 0.0
H307 H 0.03614 0.64437 0.33578 0.0
H308 H 0.18384 0.67135 0.24868 0.0
H309 H 0.20231 0.66481 0.40969 0.0
H310 H 0.10367 0.64631 0.36886 0.0
H311 H 0.16441 0.61069 0.29005 0.0
O312 O 0.10769 0.50818 0.48688 0.0
H313 H 0.20482 0.57349 0.55021 0.0
H314 H 0.14283 0.46245 0.54178 0.0
H315 H 0.2209 0.72643 0.36981 0.0
H316 H 0.05253 0.51924 0.30758 0.0
H317 H 0.21222 0.72986 0.28863 0.0
H318 H 0.01018 0.58048 0.30479 0.0
O319 O 0.2223 0.58824 0.41304 0.0
H320 H 0.15434 0.39403 0.40444 0.0
H321 H 0.23604 0.47966 0.50187 0.0
H322 H 0.26033 0.41208 0.48227 0.0
H323 H 0.21929 0.36872 0.43332 0.0
H324 H 0.13137 0.46197 0.42459 0.0
H325 H 0.15447 0.4502 0.62091 0.0
H326 H 0.19221 0.50024 0.66515 0.0
O327 O 0.21903 0.54874 0.47297 0.0
C328 C 0.13886 0.61537 0.47392 0.0
C329 C 0.20113 0.54016 0.61033 0.0
C330 C 0.16571 0.4773 0.60564 0.0
N331 N 0.1734 0.51849 0.54134 0.0
C332 C 0.19396 0.5463 0.56551 0.0
C333 C 0.15913 0.48443 0.56088 0.0
C334 C 0.1869 0.50538 0.63044 0.0
C335 C 0.10159 0.54928 0.34001 0.0
N336 N 0.11559 0.58452 0.3571 0.0
C337 C 0.06351 0.54726 0.32095 0.0
C338 C 0.03975 0.58162 0.31943 0.0
C339 C 0.05428 0.61747 0.33684 0.0
C340 C 0.09249 0.61836 0.35566 0.0
C341 C 0.18784 0.67022 0.28404 0.0
C342 C 0.19783 0.66624 0.37446 0.0
C343 C 0.17703 0.63589 0.30764 0.0
N344 N 0.18201 0.63426 0.35232 0.0
C345 C 0.20871 0.70114 0.35199 0.0
C346 C 0.20376 0.70304 0.30646 0.0
C347 C 0.23784 0.57247 0.44742 0.0
C348 C 0.17244 0.41261 0.42588 0.0
C349 C 0.21811 0.46103 0.48039 0.0
C350 C 0.23196 0.42276 0.4695 0.0
C351 C 0.20891 0.39844 0.44206 0.0
N352 N 0.18224 0.47464 0.46452 0.0
C353 C 0.15953 0.45103 0.4375 0.0
Co354 Co 0.91003 0.16829 0.38779 0.0
Co355 Co 0.96956 0.16462 0.48115 0.0
O356 O 0.95978 0.15501 0.41847 0.0
C357 C 0.96891 0.21746 0.33779 0.0
O358 O 0.98108 0.23385 0.37475 0.0
C359 C 0.97338 0.07731 0.47278 0.0
O360 O 0.94226 0.08057 0.4466 0.0
O361 O 0.91507 0.14535 0.49837 0.0
O362 O 0.87793 0.14501 0.43653 0.0
H363 H 0.9376 0.21791 0.63198 0.0
H364 H 0.97349 0.12145 0.34259 0.0
O365 O 0.94141 0.19107 0.33775 0.0
H366 H 0.85331 0.03527 0.33997 0.0
H367 H 0.82157 0.18233 0.25399 0.0
H368 H 0.83096 0.20075 0.41484 0.0
H369 H 0.8507 0.10264 0.37343 0.0
H370 H 0.8836 0.16457 0.29378 0.0
O371 O 0.99003 0.10864 0.48836 0.0
H372 H 0.92507 0.20517 0.55315 0.0
H373 H 0.03647 0.14419 0.54227 0.0
H374 H 0.76797 0.21748 0.3766 0.0
H375 H 0.97735 0.05443 0.30838 0.0
H376 H 0.7631 0.20886 0.29548 0.0
H377 H 0.91699 0.01078 0.30709 0.0
O378 O 0.90729 0.22233 0.41661 0.0
H379 H 0.10248 0.15631 0.4038 0.0
H380 H 0.0177 0.23737 0.50276 0.0
H381 H 0.08472 0.26226 0.48182 0.0
H382 H 0.12764 0.22154 0.4321 0.0
H383 H 0.03509 0.13275 0.42529 0.0
H384 H 0.05003 0.1559 0.62114 0.0
H385 H 0.00046 0.19316 0.66649 0.0
O386 O 0.94835 0.21975 0.47536 0.0
C387 C 0.88262 0.1386 0.47755 0.0
C388 C 0.95949 0.20174 0.61254 0.0
C389 C 0.02257 0.1669 0.60646 0.0
N390 N 0.98017 0.17427 0.54307 0.0
C391 C 0.95262 0.19455 0.56786 0.0
C392 C 0.01469 0.16028 0.56186 0.0
C393 C 0.99475 0.18782 0.63189 0.0
C394 C 0.94702 0.10274 0.34184 0.0
N395 N 0.91191 0.11594 0.35994 0.0
C396 C 0.94942 0.06478 0.32256 0.0
C397 C 0.91555 0.04029 0.32188 0.0
C398 C 0.87982 0.05399 0.34035 0.0
C399 C 0.87855 0.09212 0.35935 0.0
C400 C 0.82334 0.18634 0.28932 0.0
C401 C 0.82894 0.19632 0.37964 0.0
C402 C 0.85845 0.17649 0.31202 0.0
N403 N 0.86087 0.18143 0.35666 0.0
C404 C 0.79326 0.20616 0.35809 0.0
C405 C 0.79054 0.20122 0.31261 0.0
C406 C 0.92365 0.23814 0.45052 0.0
C407 C 0.08409 0.17428 0.42557 0.0
C408 C 0.03614 0.21958 0.48095 0.0
C409 C 0.0741 0.23377 0.46931 0.0
C410 C 0.09818 0.2109 0.44142 0.0
N411 N 0.02262 0.18356 0.4654 0.0
C412 C 0.04598 0.16103 0.43795 0.0
Co413 Co 0.3297 0.91144 0.38772 0.0
Co414 Co 0.33387 0.9697 0.48203 0.0
O415 O 0.34336 0.96069 0.41917 0.0
C416 C 0.28077 0.97094 0.33815 0.0
O417 O 0.26398 0.98257 0.37511 0.0
C418 C 0.42117 0.9735 0.47364 0.0
O419 O 0.41795 0.94244 0.44736 0.0
O420 O 0.35305 0.91493 0.49836 0.0
O421 O 0.35255 0.87847 0.43604 0.0
H422 H 0.28098 0.93582 0.63252 0.0
H423 H 0.37729 0.97505 0.34376 0.0
O424 O 0.30736 0.94363 0.33803 0.0
H425 H 0.46216 0.85397 0.33921 0.0
H426 H 0.31477 0.82481 0.25259 0.0
H427 H 0.29616 0.8325 0.41351 0.0
H428 H 0.3947 0.8516 0.37242 0.0
H429 H 0.33346 0.88605 0.29334 0.0
O430 O 0.38985 0.99002 0.48936 0.0
H431 H 0.2934 0.92435 0.55344 0.0
H432 H 0.35459 0.03577 0.54416 0.0
H433 H 0.27834 0.77033 0.37429 0.0
H434 H 0.44442 0.97869 0.30982 0.0
H435 H 0.28711 0.76629 0.29313 0.0
H436 H 0.48741 0.91788 0.30755 0.0
O437 O 0.2756 0.90887 0.41635 0.0
H438 H 0.34224 0.10365 0.40678 0.0
H439 H 0.26132 0.01773 0.50467 0.0
H440 H 0.23655 0.0851 0.48495 0.0
H441 H 0.2772 0.12861 0.43578 0.0
H442 H 0.36569 0.0359 0.42705 0.0
H443 H 0.3432 0.04827 0.62329 0.0
H444 H 0.306 0.99814 0.66796 0.0
O445 O 0.27871 0.94869 0.47608 0.0
C446 C 0.35928 0.88261 0.47707 0.0
C447 C 0.29712 0.95794 0.61338 0.0
C448 C 0.33209 0.02103 0.6082 0.0
N449 N 0.3244 0.97952 0.54414 0.0
C450 C 0.30413 0.95168 0.56855 0.0
C451 C 0.33852 0.01376 0.56344 0.0
C452 C 0.3112 0.9929 0.63325 0.0
C453 C 0.39572 0.9484 0.3426 0.0
N454 N 0.38211 0.91315 0.36004 0.0
C455 C 0.43374 0.95067 0.32346 0.0
C456 C 0.45786 0.91654 0.32224 0.0
C457 C 0.44373 0.88068 0.34002 0.0
C458 C 0.40556 0.87954 0.3589 0.0
C459 C 0.31073 0.82619 0.28793 0.0
C460 C 0.30065 0.83083 0.3783 0.0
C461 C 0.32112 0.86085 0.31118 0.0
N462 N 0.31611 0.8628 0.35584 0.0
C463 C 0.29021 0.79561 0.35619 0.0
C464 C 0.29521 0.79337 0.31069 0.0
C465 C 0.26003 0.92469 0.45069 0.0
C466 C 0.3243 0.08501 0.42832 0.0
C467 C 0.27907 0.03642 0.48309 0.0
C468 C 0.26495 0.07458 0.47214 0.0
C469 C 0.28779 0.09898 0.44456 0.0
N470 N 0.31499 0.02301 0.46716 0.0
C471 C 0.33749 0.04669 0.44001 0.0
Co472 Co 0.40662 0.82898 0.88829 0.0
Co473 Co 0.46813 0.83272 0.98011 0.0
O474 O 0.45709 0.84202 0.91762 0.0
C475 C 0.46464 0.77997 0.83694 0.0
O476 O 0.47749 0.76357 0.87362 0.0
C477 C 0.47296 0.91987 0.97083 0.0
O478 O 0.4412 0.91681 0.94556 0.0
O479 O 0.41435 0.85297 0.99856 0.0
O480 O 0.3757 0.85247 0.93783 0.0
H481 H 0.43869 0.7814 0.13237 0.0
H482 H 0.46929 0.87553 0.84136 0.0
O483 O 0.43688 0.80609 0.83748 0.0
H484 H 0.34943 0.96222 0.84188 0.0
H485 H 0.3152 0.81549 0.75685 0.0
H486 H 0.32792 0.79713 0.91743 0.0
H487 H 0.3473 0.8949 0.87548 0.0
H488 H 0.37826 0.83264 0.79496 0.0
O489 O 0.48958 0.88844 0.98621 0.0
H490 H 0.42459 0.79362 0.05376 0.0
H491 H 0.53674 0.85252 0.03914 0.0
H492 H 0.26388 0.78117 0.8809 0.0
H493 H 0.47264 0.9425 0.80697 0.0
H494 H 0.25735 0.78972 0.79992 0.0
H495 H 0.41245 0.98639 0.80725 0.0
O496 O 0.40428 0.77497 0.91723 0.0
H497 H 0.59934 0.83829 0.89904 0.0
H498 H 0.51559 0.75939 1.0011 0.0
H499 H 0.58168 0.73325 0.97854 0.0
H500 H 0.62409 0.77287 0.92724 0.0
H501 H 0.53287 0.86313 0.92219 0.0
H502 H 0.55189 0.84131 0.11774 0.0
H503 H 0.50273 0.80535 0.16486 0.0
O504 O 0.44593 0.77788 0.97546 0.0
C505 C 0.38142 0.85948 0.97856 0.0
C506 C 0.46041 0.79698 0.11215 0.0
C507 C 0.52392 0.83065 0.10395 0.0
N508 N 0.47998 0.82343 0.04182 0.0
C509 C 0.45265 0.80388 0.06758 0.0
C510 C 0.51515 0.83698 0.0595 0.0
C511 C 0.49633 0.81047 0.13036 0.0
C512 C 0.44288 0.89434 0.84129 0.0
N513 N 0.40812 0.8813 0.86035 0.0
C514 C 0.445 0.93228 0.8219 0.0
C515 C 0.41123 0.95691 0.82211 0.0
C516 C 0.37587 0.94338 0.84156 0.0
C517 C 0.37487 0.90527 0.86064 0.0
C518 C 0.3177 0.8115 0.79213 0.0
C519 C 0.32517 0.80154 0.88228 0.0
C520 C 0.3534 0.82098 0.81388 0.0
N521 N 0.35674 0.81607 0.85845 0.0
C522 C 0.28891 0.79212 0.86171 0.0
C523 C 0.28524 0.79704 0.8163 0.0
C524 C 0.42087 0.75939 0.95114 0.0
C525 C 0.58118 0.8208 0.9215 0.0
C526 C 0.53381 0.77671 0.97863 0.0
C527 C 0.57124 0.76181 0.96606 0.0
C528 C 0.59503 0.78407 0.93729 0.0
N529 N 0.52052 0.81283 0.96312 0.0
C530 C 0.54359 0.83477 0.93482 0.0
Co531 Co 0.66682 0.40712 0.88595 0.0
Co532 Co 0.66295 0.46796 0.97827 0.0
O533 O 0.65327 0.45719 0.91583 0.0
C534 C 0.71428 0.46676 0.83532 0.0
O535 O 0.72987 0.47995 0.87228 0.0
C536 C 0.57567 0.47193 0.96979 0.0
O537 O 0.57878 0.44028 0.94436 0.0
O538 O 0.64353 0.41377 0.99644 0.0
O539 O 0.64397 0.37555 0.93536 0.0
H540 H 0.71622 0.43828 0.12966 0.0
H541 H 0.61925 0.46959 0.83991 0.0
O542 O 0.68913 0.43811 0.83538 0.0
H543 H 0.53415 0.3486 0.83973 0.0
H544 H 0.68106 0.31708 0.75346 0.0
H545 H 0.69986 0.32858 0.91409 0.0
H546 H 0.60165 0.34706 0.87292 0.0
H547 H 0.66306 0.37951 0.79237 0.0
O548 O 0.60706 0.48869 0.98504 0.0
H549 H 0.70339 0.42451 0.0511 0.0
H550 H 0.64268 0.53589 0.0381 0.0
H551 H 0.7168 0.26517 0.87674 0.0
H552 H 0.55209 0.47237 0.80595 0.0
H553 H 0.708 0.25926 0.79574 0.0
H554 H 0.50899 0.4116 0.80588 0.0
O555 O 0.72102 0.40519 0.9145 0.0
H556 H 0.65505 0.59954 0.89809 0.0
H557 H 0.73575 0.51635 0.99903 0.0
H558 H 0.76083 0.58292 0.97665 0.0
H559 H 0.72031 0.62504 0.92591 0.0
H560 H 0.63128 0.53262 0.92104 0.0
H561 H 0.65448 0.55069 0.11668 0.0
H562 H 0.69165 0.50176 0.16295 0.0
O563 O 0.71801 0.44657 0.97292 0.0
C564 C 0.6372 0.38091 0.97622 0.0
C565 C 0.70009 0.4599 0.10981 0.0
C566 C 0.66539 0.52296 0.10253 0.0
N567 N 0.67262 0.47952 0.03997 0.0
C568 C 0.69284 0.45232 0.06528 0.0
C569 C 0.65873 0.51439 0.0581 0.0
C570 C 0.68627 0.4955 0.12848 0.0
C571 C 0.60078 0.44294 0.83969 0.0
N572 N 0.61436 0.4082 0.85833 0.0
C573 C 0.56274 0.44473 0.82054 0.0
C574 C 0.53855 0.41063 0.82056 0.0
C575 C 0.55264 0.37529 0.83956 0.0
C576 C 0.59084 0.37462 0.85841 0.0
C577 C 0.68515 0.31931 0.78875 0.0
C578 C 0.69535 0.32609 0.87894 0.0
C579 C 0.67518 0.35465 0.81095 0.0
N580 N 0.68022 0.35765 0.85553 0.0
C581 C 0.70531 0.29018 0.8579 0.0
C582 C 0.70027 0.28687 0.81248 0.0
C583 C 0.73664 0.42187 0.94832 0.0
C584 C 0.67293 0.58151 0.9203 0.0
C585 C 0.71803 0.53445 0.9768 0.0
C586 C 0.73234 0.57215 0.96433 0.0
C587 C 0.70957 0.59578 0.93588 0.0
N588 N 0.682 0.52074 0.96149 0.0
C589 C 0.65956 0.54367 0.93351 0.0
Co590 Co 0.09017 0.66724 0.88776 0.0
Co591 Co 0.02885 0.66415 0.97975 0.0
O592 O 0.03981 0.65426 0.91737 0.0
C593 C 0.03149 0.71508 0.83601 0.0
O594 O 0.01836 0.73145 0.87259 0.0
C595 C 0.02403 0.57692 0.97149 0.0
O596 O 0.05586 0.57972 0.9463 0.0
O597 O 0.08268 0.64408 0.99831 0.0
O598 O 0.12127 0.64438 0.93753 0.0
H599 H 0.05844 0.71725 0.13124 0.0
H600 H 0.02759 0.61988 0.84164 0.0
O601 O 0.05971 0.68945 0.83674 0.0
H602 H 0.14789 0.53382 0.84286 0.0
H603 H 0.18116 0.67987 0.75588 0.0
H604 H 0.16882 0.69972 0.91628 0.0
H605 H 0.14979 0.6015 0.87556 0.0
H606 H 0.11831 0.66276 0.7944 0.0
O607 O 0.00742 0.60849 0.9865 0.0
H608 H 0.07242 0.70416 0.05278 0.0
H609 H 0.96041 0.64478 0.0392 0.0
H610 H 0.23267 0.71568 0.87934 0.0
H611 H 0.02447 0.55252 0.80815 0.0
H612 H 0.239 0.70638 0.79843 0.0
H613 H 0.08488 0.50894 0.80879 0.0
O614 O 0.09234 0.7216 0.91599 0.0
H615 H 0.89756 0.65773 0.89888 0.0
H616 H 0.98128 0.73759 1.00009 0.0
H617 H 0.91513 0.76345 0.97732 0.0
H618 H 0.87274 0.72335 0.92645 0.0
H619 H 0.96409 0.63318 0.92222 0.0
H620 H 0.94538 0.65683 0.11768 0.0
H621 H 0.99452 0.69348 0.16419 0.0
O622 O 0.05094 0.71896 0.97442 0.0
C623 C 0.11561 0.63756 0.97832 0.0
C624 C 0.03673 0.70136 0.11128 0.0
C625 C 0.9733 0.66741 0.10368 0.0
N626 N 0.01711 0.67404 0.04137 0.0
C627 C 0.04442 0.69397 0.0668 0.0
C628 C 0.982 0.66059 0.0593 0.0
C629 C 0.00088 0.68798 0.12976 0.0
C630 C 0.0541 0.6012 0.84173 0.0
N631 N 0.08884 0.61462 0.86049 0.0
C632 C 0.05211 0.56305 0.82285 0.0
C633 C 0.08601 0.53859 0.82326 0.0
C634 C 0.12136 0.55252 0.84239 0.0
C635 C 0.12223 0.59083 0.86096 0.0
C636 C 0.17875 0.68419 0.79112 0.0
C637 C 0.17149 0.69498 0.88118 0.0
C638 C 0.14316 0.67473 0.8131 0.0
N639 N 0.13993 0.68006 0.85763 0.0
C640 C 0.20764 0.7044 0.86037 0.0
C641 C 0.21119 0.69906 0.815 0.0
C642 C 0.07577 0.73739 0.94979 0.0
C643 C 0.91572 0.67543 0.92114 0.0
C644 C 0.96307 0.72005 0.9778 0.0
C645 C 0.9256 0.7348 0.96511 0.0
C646 C 0.90183 0.71227 0.93658 0.0
N647 N 0.97641 0.68383 0.96263 0.0
C648 C 0.95333 0.66162 0.93457 0.0
Co649 Co 0.8303 0.0896 0.88862 0.0
Co650 Co 0.83363 0.0288 0.98102 0.0
O651 O 0.84344 0.03943 0.91854 0.0
C652 C 0.78186 0.03094 0.8376 0.0
O653 O 0.76565 0.01813 0.87439 0.0
C654 C 0.92089 0.02455 0.97274 0.0
O655 O 0.91788 0.05618 0.94727 0.0
O656 O 0.85319 0.08295 0.99921 0.0
O657 O 0.85326 0.12103 0.93805 0.0
H658 H 0.78028 0.05892 0.13227 0.0
H659 H 0.87746 0.02682 0.84263 0.0
O660 O 0.80784 0.05884 0.83794 0.0
H661 H 0.96353 0.14712 0.84281 0.0
H662 H 0.81706 0.17991 0.75622 0.0
H663 H 0.7977 0.16831 0.91676 0.0
H664 H 0.89598 0.14918 0.87582 0.0
H665 H 0.83448 0.11729 0.79507 0.0
O666 O 0.88944 0.00787 0.98796 0.0
H667 H 0.79323 0.07251 0.05369 0.0
H668 H 0.85354 0.96089 0.041 0.0
H669 H 0.78135 0.2319 0.87948 0.0
H670 H 0.94467 0.02353 0.80884 0.0
H671 H 0.79043 0.23787 0.79851 0.0
H672 H 0.98826 0.08395 0.80896 0.0
O673 O 0.77609 0.09187 0.91707 0.0
H674 H 0.84122 0.89699 0.90126 0.0
H675 H 0.76059 0.98076 0.00165 0.0
H676 H 0.73533 0.91422 0.97945 0.0
H677 H 0.77582 0.8718 0.92899 0.0
H678 H 0.86518 0.9639 0.92403 0.0
H679 H 0.84162 0.94626 0.1196 0.0
H680 H 0.80458 0.99541 0.16572 0.0
O681 O 0.77866 0.05041 0.97547 0.0
C682 C 0.8598 0.11573 0.97895 0.0
C683 C 0.79634 0.03721 0.11248 0.0
C684 C 0.83081 0.974 0.10538 0.0
N685 N 0.82381 0.01736 0.04272 0.0
C686 C 0.80366 0.04468 0.06794 0.0
C687 C 0.83755 0.98248 0.06093 0.0
C688 C 0.81002 0.00159 0.13124 0.0
C689 C 0.89614 0.05332 0.84248 0.0
N690 N 0.8828 0.08816 0.86112 0.0
C691 C 0.93421 0.05124 0.82344 0.0
C692 C 0.95867 0.08514 0.82356 0.0
C693 C 0.94482 0.12059 0.84256 0.0
C694 C 0.90659 0.12155 0.86131 0.0
C695 C 0.81285 0.17766 0.79149 0.0
C696 C 0.80233 0.17082 0.88163 0.0
C697 C 0.8225 0.14221 0.81366 0.0
N698 N 0.8173 0.13918 0.85822 0.0
C699 C 0.7927 0.20683 0.86062 0.0
C700 C 0.79791 0.21017 0.81523 0.0
C701 C 0.76026 0.07524 0.95079 0.0
C702 C 0.82335 0.91516 0.92334 0.0
C703 C 0.77829 0.96254 0.97954 0.0
C704 C 0.76388 0.92485 0.96717 0.0
C705 C 0.78663 0.90106 0.93888 0.0
N706 N 0.8144 0.97608 0.96429 0.0
C707 C 0.83682 0.95299 0.93645 0.0
Co708 Co 0.40668 0.66687 0.61349 0.0
Co709 Co 0.46809 0.66343 0.52158 0.0
O710 O 0.4571 0.65387 0.58404 0.0
C711 C 0.46482 0.71548 0.6651 0.0
O712 O 0.47776 0.73193 0.62849 0.0
C713 C 0.47298 0.57625 0.53041 0.0
O714 O 0.44118 0.57916 0.55563 0.0
O715 O 0.4143 0.64322 0.50308 0.0
O716 O 0.37568 0.64369 0.56382 0.0
H717 H 0.43848 0.71541 0.36962 0.0
H718 H 0.46929 0.61992 0.66002 0.0
O719 O 0.43699 0.68943 0.66443 0.0
H720 H 0.34922 0.53355 0.65917 0.0
H721 H 0.31531 0.67977 0.74503 0.0
H722 H 0.32805 0.69911 0.58459 0.0
H723 H 0.34719 0.60105 0.62602 0.0
H724 H 0.37833 0.66272 0.7068 0.0
O725 O 0.48956 0.60776 0.5152 0.0
H726 H 0.42449 0.70288 0.44819 0.0
H727 H 0.53664 0.64386 0.46237 0.0
H728 H 0.26407 0.71506 0.62124 0.0
H729 H 0.47254 0.55276 0.69396 0.0
H730 H 0.25752 0.70596 0.70216 0.0
H731 H 0.41224 0.50902 0.69352 0.0
O732 O 0.40446 0.72106 0.58492 0.0
H733 H 0.59935 0.65759 0.60255 0.0
H734 H 0.51554 0.73684 0.50086 0.0
H735 H 0.58164 0.7629 0.52349 0.0
H736 H 0.62408 0.7231 0.57461 0.0
H737 H 0.53287 0.63283 0.57933 0.0
H738 H 0.55169 0.65538 0.38381 0.0
H739 H 0.50248 0.69155 0.33693 0.0
O740 O 0.44591 0.71825 0.52654 0.0
C741 C 0.38137 0.63671 0.52307 0.0
C742 C 0.46023 0.69973 0.38974 0.0
C743 C 0.52374 0.666 0.39769 0.0
N744 N 0.47988 0.67299 0.45991 0.0
C745 C 0.45252 0.69266 0.43428 0.0
C746 C 0.51502 0.65949 0.44212 0.0
C747 C 0.49612 0.6863 0.37141 0.0
C748 C 0.44284 0.60117 0.66001 0.0
N749 N 0.40809 0.6144 0.64109 0.0
C750 C 0.4449 0.56313 0.67915 0.0
C751 C 0.41106 0.53858 0.67885 0.0
C752 C 0.3757 0.55231 0.65956 0.0
C753 C 0.37476 0.59052 0.64073 0.0
C754 C 0.31781 0.68398 0.70978 0.0
C755 C 0.3253 0.6945 0.6197 0.0
C756 C 0.35349 0.67456 0.68796 0.0
N757 N 0.35684 0.67973 0.64343 0.0
C758 C 0.28907 0.70389 0.64035 0.0
C759 C 0.2854 0.69868 0.68572 0.0
C760 C 0.42104 0.73674 0.55107 0.0
C761 C 0.58118 0.67515 0.58018 0.0
C762 C 0.53377 0.71944 0.52325 0.0
C763 C 0.57121 0.7343 0.53586 0.0
C764 C 0.59502 0.71194 0.56453 0.0
N765 N 0.52049 0.68327 0.53863 0.0
C766 C 0.54359 0.66123 0.56682 0.0
Co767 Co 0.82953 0.40956 0.61485 0.0
Co768 Co 0.83313 0.46931 0.52165 0.0
O769 O 0.84259 0.45945 0.58433 0.0
C770 C 0.78044 0.46854 0.66471 0.0
O771 O 0.76429 0.48084 0.62767 0.0
C772 C 0.92029 0.47403 0.53059 0.0
O773 O 0.9172 0.44278 0.55661 0.0
O774 O 0.85304 0.41504 0.50439 0.0
O775 O 0.85304 0.37767 0.56607 0.0
H776 H 0.78074 0.43719 0.37048 0.0
H777 H 0.87601 0.47321 0.66025 0.0
O778 O 0.80657 0.44078 0.66487 0.0
H779 H 0.96273 0.3534 0.66279 0.0
H780 H 0.8158 0.32089 0.74851 0.0
H781 H 0.79761 0.33028 0.58763 0.0
H782 H 0.89543 0.35052 0.62923 0.0
H783 H 0.83321 0.38308 0.70883 0.0
O784 O 0.88889 0.49038 0.51482 0.0
H785 H 0.79331 0.42459 0.44933 0.0
H786 H 0.85313 0.53658 0.46083 0.0
H787 H 0.78128 0.26711 0.62579 0.0
H788 H 0.94295 0.47733 0.69457 0.0
H789 H 0.78978 0.26225 0.70691 0.0
H790 H 0.98687 0.41716 0.69582 0.0
O791 O 0.77554 0.40659 0.58594 0.0
H792 H 0.83967 0.60206 0.59961 0.0
H793 H 0.76002 0.5168 0.49978 0.0
H794 H 0.73433 0.58348 0.52087 0.0
H795 H 0.77433 0.62665 0.57104 0.0
H796 H 0.86405 0.535 0.57795 0.0
H797 H 0.84158 0.55023 0.38196 0.0
H798 H 0.80499 0.5004 0.33629 0.0
O799 O 0.77822 0.44753 0.5271 0.0
C800 C 0.85977 0.38254 0.52515 0.0
C801 C 0.79661 0.4592 0.39006 0.0
C802 C 0.83081 0.52262 0.3965 0.0
N803 N 0.82362 0.47997 0.45972 0.0
C804 C 0.80371 0.45228 0.43476 0.0
C805 C 0.83733 0.51469 0.4411 0.0
C806 C 0.81026 0.49465 0.37089 0.0
C807 C 0.89483 0.44682 0.66099 0.0
N808 N 0.88182 0.41166 0.64279 0.0
C809 C 0.93275 0.44936 0.68033 0.0
C810 C 0.9574 0.4156 0.68098 0.0
C811 C 0.94389 0.37983 0.66243 0.0
C812 C 0.9058 0.3784 0.64337 0.0
C813 C 0.81185 0.32266 0.71318 0.0
C814 C 0.80198 0.32826 0.62284 0.0
C815 C 0.82149 0.35786 0.69053 0.0
N816 N 0.81662 0.36027 0.64588 0.0
C817 C 0.79237 0.29248 0.64433 0.0
C818 C 0.79725 0.28976 0.68983 0.0
C819 C 0.75982 0.42281 0.55189 0.0
C820 C 0.82202 0.58357 0.57764 0.0
C821 C 0.77751 0.53535 0.52177 0.0
C822 C 0.76286 0.57312 0.53351 0.0
C823 C 0.78533 0.59733 0.56164 0.0
N824 N 0.81358 0.52214 0.53748 0.0
C825 C 0.83573 0.54565 0.56517 0.0
Co826 Co 0.08912 0.82879 0.61398 0.0
Co827 Co 0.02897 0.83385 0.52116 0.0
O828 O 0.0391 0.84231 0.58397 0.0
C829 C 0.03069 0.77906 0.66414 0.0
O830 O 0.01868 0.76232 0.6273 0.0
C831 C 0.02395 0.92089 0.5316 0.0
O832 O 0.05542 0.9176 0.55727 0.0
O833 O 0.08297 0.85438 0.504 0.0
O834 O 0.12084 0.85266 0.56528 0.0
H835 H 0.06075 0.78488 0.36853 0.0
H836 H 0.02591 0.87515 0.66025 0.0
O837 O 0.05808 0.80557 0.66402 0.0
H838 H 0.14618 0.9612 0.66332 0.0
H839 H 0.17852 0.81345 0.74685 0.0
H840 H 0.16809 0.79682 0.58584 0.0
H841 H 0.14855 0.89424 0.62887 0.0
H842 H 0.11616 0.83141 0.70783 0.0
O843 O 0.00753 0.88961 0.51561 0.0
H844 H 0.07364 0.79588 0.44761 0.0
H845 H 0.96117 0.85437 0.46129 0.0
H846 H 0.23145 0.77999 0.62333 0.0
H847 H 0.02231 0.94175 0.69546 0.0
H848 H 0.23683 0.7877 0.70452 0.0
H849 H 0.08271 0.98533 0.69699 0.0
O850 O 0.09168 0.77507 0.58438 0.0
H851 H 0.89657 0.83816 0.59997 0.0
H852 H 0.98192 0.76077 0.4981 0.0
H853 H 0.91552 0.73426 0.51902 0.0
H854 H 0.87232 0.77312 0.57022 0.0
H855 H 0.96335 0.86337 0.57844 0.0
H856 H 0.94722 0.84437 0.38222 0.0
H857 H 0.99716 0.80925 0.33533 0.0
O858 O 0.05116 0.77897 0.52527 0.0
C859 C 0.11567 0.8604 0.52461 0.0
C860 C 0.0387 0.80011 0.38864 0.0
C861 C 0.975 0.83354 0.39632 0.0
N862 N 0.01802 0.82541 0.4591 0.0
C863 C 0.04577 0.8063 0.43347 0.0
C864 C 0.98309 0.83918 0.44104 0.0
C865 C 0.00303 0.81382 0.37003 0.0
C866 C 0.0524 0.89383 0.66109 0.0
N867 N 0.0874 0.88083 0.64255 0.0
C868 C 0.05015 0.93156 0.68094 0.0
C869 C 0.08404 0.95601 0.68175 0.0
C870 C 0.11965 0.9425 0.66284 0.0
C871 C 0.12078 0.90461 0.64327 0.0
C872 C 0.17653 0.80984 0.71148 0.0
C873 C 0.17034 0.80085 0.62108 0.0
C874 C 0.14122 0.81979 0.68921 0.0
N875 N 0.13851 0.81536 0.64452 0.0
C876 C 0.20622 0.79095 0.64219 0.0
C877 C 0.20924 0.79539 0.68772 0.0
C878 C 0.07571 0.76005 0.54982 0.0
C879 C 0.91508 0.821 0.57755 0.0
C880 C 0.96335 0.77776 0.52054 0.0
C881 C 0.92575 0.76265 0.53218 0.0
C882 C 0.90151 0.78448 0.56089 0.0
N883 N 0.97637 0.81367 0.5369 0.0
C884 C 0.95284 0.83519 0.56515 0.0
Co885 Co 0.66809 0.09092 0.61515 0.0
Co886 Co 0.66452 0.02921 0.5235 0.0
O887 O 0.65485 0.04049 0.58585 0.0
C888 C 0.71613 0.03224 0.66648 0.0
O889 O 0.73192 0.01892 0.62968 0.0
C890 C 0.57731 0.02501 0.53219 0.0
O891 O 0.58044 0.05684 0.55736 0.0
O892 O 0.64484 0.08314 0.50472 0.0
O893 O 0.64504 0.12189 0.56538 0.0
H894 H 0.71735 0.05777 0.37167 0.0
H895 H 0.62094 0.02866 0.66204 0.0
O896 O 0.69061 0.06057 0.66609 0.0
H897 H 0.53503 0.14907 0.66056 0.0
H898 H 0.6816 0.18253 0.74644 0.0
H899 H 0.70065 0.16933 0.58601 0.0
H900 H 0.6025 0.15069 0.62735 0.0
H901 H 0.66416 0.1195 0.70838 0.0
O902 O 0.60869 0.00819 0.517 0.0
H903 H 0.70458 0.07222 0.45009 0.0
H904 H 0.64456 0.96062 0.46449 0.0
H905 H 0.71703 0.2333 0.62247 0.0
H906 H 0.55381 0.02582 0.69605 0.0
H907 H 0.70808 0.24009 0.70338 0.0
H908 H 0.5103 0.08629 0.69528 0.0
O909 O 0.72223 0.09286 0.58656 0.0
H910 H 0.65734 0.89831 0.60507 0.0
H911 H 0.73757 0.98105 0.50327 0.0
H912 H 0.76303 0.91483 0.52637 0.0
H913 H 0.72274 0.87293 0.57754 0.0
H914 H 0.63319 0.96489 0.5814 0.0
H915 H 0.6563 0.94513 0.38607 0.0
H916 H 0.6931 0.99383 0.33915 0.0
O917 O 0.7195 0.05094 0.52856 0.0
C918 C 0.63833 0.11614 0.52458 0.0
C919 C 0.70139 0.03625 0.3918 0.0
C920 C 0.66708 0.97305 0.39987 0.0
N921 N 0.67417 0.01713 0.46192 0.0
C922 C 0.69418 0.04421 0.43626 0.0
C923 C 0.66045 0.98202 0.44422 0.0
C924 C 0.68774 0.00039 0.37357 0.0
C925 C 0.6023 0.05519 0.6619 0.0
N926 N 0.61564 0.08982 0.6428 0.0
C927 C 0.56427 0.05337 0.68107 0.0
C928 C 0.53985 0.0873 0.68059 0.0
C929 C 0.5537 0.12252 0.6611 0.0
C930 C 0.59189 0.12323 0.64224 0.0
C931 C 0.68575 0.17993 0.71119 0.0
C932 C 0.6961 0.17219 0.62112 0.0
C933 C 0.67609 0.14425 0.68947 0.0
N934 N 0.68119 0.14078 0.64494 0.0
C935 C 0.70573 0.20842 0.64166 0.0
C936 C 0.70061 0.21222 0.68703 0.0
C937 C 0.73796 0.07598 0.55293 0.0
C938 C 0.67512 0.91624 0.58268 0.0
C939 C 0.71995 0.96305 0.52568 0.0
C940 C 0.73447 0.92554 0.53856 0.0
C941 C 0.71184 0.90204 0.56726 0.0
N942 N 0.68385 0.97669 0.54084 0.0
C943 C 0.66154 0.95389 0.56906 0.0
C944 C 0.61705 0.29877 0.0592 0.0
C945 C 0.58611 0.2776 0.03779 0.0
H946 H 0.65751 0.34905 0.05643 0.0
C947 C 0.56968 0.29361 0.99887 0.0
H948 H 0.6303 0.28735 0.08926 0.0
C949 C 0.58566 0.32803 0.98002 0.0
C950 C 0.61791 0.3478 0.99995 0.0
H951 H 0.54551 0.27864 0.98161 0.0
H952 H 0.57329 0.33875 0.9492 0.0
C953 C 0.63266 0.33395 0.0405 0.0
C954 C 0.16272 0.63261 0.04242 0.0
C955 C 0.14834 0.61776 0.00215 0.0
H956 H 0.20967 0.62992 0.09075 0.0
C957 C 0.16735 0.58493 0.98245 0.0
H958 H 0.1482 0.6579 0.05817 0.0
C959 C 0.20163 0.56853 0.00114 0.0
C960 C 0.21826 0.5851 0.03968 0.0
H961 H 0.15618 0.57248 0.95185 0.0
H962 H 0.21608 0.54397 0.98401 0.0
C963 C 0.19775 0.61655 0.06098 0.0
C964 C 0.86365 0.16306 0.04292 0.0
C965 C 0.87891 0.1489 0.00274 0.0
H966 H 0.86522 0.21015 0.09114 0.0
C967 C 0.91133 0.1686 0.98305 0.0
H968 H 0.83864 0.14804 0.05863 0.0
C969 C 0.92694 0.20328 0.00171 0.0
C970 C 0.90996 0.2196 0.04018 0.0
H971 H 0.92406 0.15766 0.95249 0.0
H972 H 0.95123 0.21821 0.98462 0.0
C973 C 0.87888 0.19848 0.06142 0.0
C974 C 0.32898 0.91146 0.9826 0.0
C975 C 0.3486 0.87906 0.00245 0.0
H976 H 0.27966 0.95171 0.98422 0.0
C977 C 0.33467 0.86424 0.04292 0.0
H978 H 0.33977 0.92385 0.95182 0.0
C979 C 0.29951 0.87987 0.06158 0.0
C980 C 0.27843 0.91089 0.04021 0.0
H981 H 0.34965 0.83926 0.05875 0.0
H982 H 0.28799 0.86652 0.09154 0.0
C983 C 0.29457 0.92747 0.00143 0.0
C984 C 0.61844 0.19811 0.4414 0.0
C985 C 0.58707 0.21899 0.46239 0.0
H986 H 0.65929 0.14818 0.4447 0.0
C987 C 0.57021 0.20272 0.50096 0.0
H988 H 0.63202 0.20974 0.41162 0.0
C989 C 0.58622 0.16837 0.51995 0.0
C990 C 0.61892 0.14895 0.5005 0.0
H991 H 0.5457 0.21746 0.51787 0.0
H992 H 0.57357 0.15749 0.55057 0.0
C993 C 0.63408 0.16301 0.46023 0.0
C994 C 0.32907 0.58461 0.51916 0.0
C995 C 0.34859 0.61701 0.49922 0.0
H996 H 0.27986 0.54421 0.51771 0.0
C997 C 0.33464 0.63162 0.45865 0.0
H998 H 0.33988 0.57233 0.54999 0.0
C999 C 0.29954 0.61579 0.44001 0.0
C1000 C 0.27853 0.58481 0.46153 0.0
H1001 H 0.34956 0.65657 0.44271 0.0
H1002 H 0.28798 0.62899 0.40999 0.0
C1003 C 0.29471 0.56843 0.5004 0.0
C1004 C 0.91106 0.3293 0.52242 0.0
C1005 C 0.8792 0.34922 0.50188 0.0
H1006 H 0.95097 0.27968 0.52163 0.0
C1007 C 0.86493 0.33533 0.46115 0.0
H1008 H 0.92308 0.34003 0.5534 0.0
C1009 C 0.88059 0.30002 0.44283 0.0
C1010 C 0.91113 0.27874 0.46479 0.0
H1011 H 0.84039 0.35052 0.44475 0.0
H1012 H 0.86771 0.28861 0.41256 0.0
C1013 C 0.92711 0.29474 0.50394 0.0
C1014 C 0.16901 0.91156 0.52259 0.0
C1015 C 0.14891 0.8801 0.50156 0.0
H1016 H 0.21882 0.95123 0.52237 0.0
C1017 C 0.16258 0.86641 0.4605 0.0
H1018 H 0.15844 0.92315 0.55383 0.0
C1019 C 0.19789 0.88218 0.44234 0.0
C1020 C 0.21939 0.91225 0.4648 0.0
H1021 H 0.14722 0.84218 0.44372 0.0
H1022 H 0.20914 0.86971 0.4118 0.0
C1023 C 0.20359 0.92773 0.50429 0.0
C1024 C 0.42378 0.7037 0.00578 0.0
C1025 C 0.40828 0.71899 0.96605 0.0
H1026 H 0.41974 0.65884 0.05569 0.0
C1027 C 0.3783 0.69709 0.94389 0.0
H1028 H 0.44718 0.71925 0.02367 0.0
C1029 C 0.3629 0.66173 0.96237 0.0
C1030 C 0.3768 0.6484 0.00351 0.0
H1031 H 0.36579 0.70794 0.9132 0.0
H1032 H 0.33894 0.64593 0.94564 0.0
C1033 C 0.40795 0.6691 0.02442 0.0
C1034 C 0.79324 0.42661 0.0016 0.0
C1035 C 0.77725 0.40969 0.96292 0.0
H1036 H 0.83839 0.42364 0.05131 0.0
C1037 C 0.79846 0.37853 0.94195 0.0
H1038 H 0.77824 0.45096 0.01852 0.0
C1039 C 0.83367 0.3632 0.96085 0.0
C1040 C 0.84752 0.37845 0.00118 0.0
H1041 H 0.78705 0.3649 0.91208 0.0
H1042 H 0.84881 0.33818 0.94528 0.0
C1043 C 0.82769 0.4109 0.02066 0.0
C1044 C 0.07154 0.79402 0.00312 0.0
C1045 C 0.0882 0.77796 0.96433 0.0
H1046 H 0.07478 0.83927 0.0527 0.0
C1047 C 0.11926 0.79912 0.94313 0.0
H1048 H 0.04728 0.77906 0.02023 0.0
C1049 C 0.1347 0.83438 0.96185 0.0
C1050 C 0.11967 0.84832 0.00224 0.0
H1051 H 0.1327 0.78766 0.91318 0.0
H1052 H 0.15961 0.8495 0.94606 0.0
C1053 C 0.08736 0.82851 0.022 0.0
C1054 C 0.66882 0.08683 0.02243 0.0
C1055 C 0.64872 0.11864 0.00202 0.0
H1056 H 0.71873 0.0473 0.0216 0.0
C1057 C 0.66267 0.13328 0.96147 0.0
H1058 H 0.65806 0.07453 0.05327 0.0
C1059 C 0.69817 0.11801 0.94321 0.0
C1060 C 0.71958 0.08748 0.96504 0.0
H1061 H 0.64735 0.1578 0.94518 0.0
H1062 H 0.70959 0.13114 0.91308 0.0
C1063 C 0.70356 0.07116 0.00401 0.0
C1064 C 0.42452 0.79293 0.49711 0.0
C1065 C 0.40877 0.77737 0.53659 0.0
H1066 H 0.42094 0.83829 0.4477 0.0
C1067 C 0.37893 0.79931 0.55892 0.0
H1068 H 0.44783 0.77736 0.47909 0.0
C1069 C 0.36386 0.83497 0.5408 0.0
C1070 C 0.37797 0.84857 0.49987 0.0
H1071 H 0.36625 0.78825 0.58944 0.0
H1072 H 0.33993 0.85076 0.55759 0.0
C1073 C 0.40903 0.82784 0.47883 0.0
C1074 C 0.70333 0.42643 0.49837 0.0
C1075 C 0.71935 0.41013 0.53736 0.0
H1076 H 0.65816 0.42269 0.44877 0.0
C1077 C 0.69824 0.37919 0.55885 0.0
H1078 H 0.71826 0.45059 0.48105 0.0
C1079 C 0.66307 0.36351 0.54021 0.0
C1080 C 0.64916 0.37817 0.49965 0.0
H1081 H 0.70967 0.36605 0.58896 0.0
H1082 H 0.64798 0.3387 0.55624 0.0
C1083 C 0.66892 0.41037 0.4796 0.0
C1084 C 0.08976 0.6708 0.47524 0.0
C1085 C 0.12016 0.64945 0.49669 0.0
H1086 H 0.05099 0.7213 0.47572 0.0
C1087 C 0.13321 0.66209 0.53843 0.0
H1088 H 0.07856 0.66109 0.4435 0.0
C1089 C 0.11771 0.69735 0.55707 0.0
C1090 C 0.08845 0.71983 0.53447 0.0
H1091 H 0.15657 0.64579 0.55561 0.0
H1092 H 0.12956 0.70762 0.58832 0.0
C1093 C 0.07382 0.70529 0.49401 0.0
C1094 C 0.79426 0.07209 0.49917 0.0
C1095 C 0.77853 0.08826 0.53836 0.0
H1096 H 0.8394 0.07566 0.44952 0.0
C1097 C 0.8001 0.11872 0.56013 0.0
H1098 H 0.77897 0.0483 0.48162 0.0
C1099 C 0.83546 0.13406 0.54163 0.0
C1100 C 0.84912 0.11957 0.50089 0.0
H1101 H 0.78891 0.13174 0.59041 0.0
H1102 H 0.85091 0.1585 0.55792 0.0
C1103 C 0.82887 0.08784 0.48051 0.0
C1104 C 0.51834 0.9635 0.01555 0.0
C1105 C 0.48697 0.9598 0.98491 0.0
H1106 H 0.55442 0.0031 0.05423 0.0
C1107 C 0.46768 0.99457 0.96957 0.0
H1108 H 0.53364 0.93725 0.02819 0.0
C1109 C 0.47943 0.03229 0.98469 0.0
C1110 C 0.51073 0.03599 0.01541 0.0
H1111 H 0.44332 0.99271 0.94606 0.0
H1112 H 0.46408 0.05853 0.97209 0.0
C1113 C 0.53008 0.00123 0.03068 0.0
C1114 C 0.46328 0.47855 0.98367 0.0
C1115 C 0.45966 0.50979 0.01449 0.0
H1116 H 0.50278 0.44241 0.94496 0.0
C1117 C 0.49445 0.52898 0.02986 0.0
H1118 H 0.437 0.46331 0.97101 0.0
C1119 C 0.53214 0.51716 0.01473 0.0
C1120 C 0.53577 0.48587 0.98399 0.0
H1121 H 0.49265 0.55325 0.0535 0.0
H1122 H 0.55841 0.53238 0.02744 0.0
C1123 C 0.50097 0.46671 0.96856 0.0
C1124 C 0.02918 0.50221 0.97107 0.0
C1125 C 0.00979 0.53713 0.98578 0.0
H1126 H 0.03254 0.43826 0.97418 0.0
C1127 C 0.97799 0.53375 0.01592 0.0
H1128 H 0.05388 0.50383 0.94795 0.0
C1129 C 0.96591 0.49616 0.03115 0.0
C1130 C 0.98535 0.46124 0.01649 0.0
H1131 H 0.96258 0.56013 0.02806 0.0
H1132 H 0.94123 0.49453 0.05428 0.0
C1133 C 0.0171 0.46463 0.9863 0.0
C1134 C 0.00203 0.96692 0.03233 0.0
C1135 C 0.03683 0.98631 0.01729 0.0
H1136 H 0.93806 0.9635 0.0297 0.0
C1137 C 0.03324 0.01792 0.98693 0.0
H1138 H 0.00382 0.94236 0.05561 0.0
C1139 C 0.99557 0.02988 0.97188 0.0
C1140 C 0.96076 0.01051 0.98695 0.0
H1141 H 0.05952 0.03332 0.97453 0.0
H1142 H 0.99379 0.05445 0.94861 0.0
C1143 C 0.96435 0.97889 0.01728 0.0
C1144 C 0.51869 0.53291 0.48578 0.0
C1145 C 0.48712 0.53641 0.51619 0.0
H1146 H 0.5551 0.49355 0.44719 0.0
C1147 C 0.46781 0.50154 0.5312 0.0
H1148 H 0.53402 0.55924 0.4734 0.0
C1149 C 0.47973 0.46391 0.51598 0.0
C1150 C 0.51124 0.46041 0.48549 0.0
H1151 H 0.4433 0.50325 0.55454 0.0
H1152 H 0.46436 0.43759 0.52833 0.0
C1153 C 0.53061 0.49527 0.47056 0.0
C1154 C 0.03269 0.48043 0.51696 0.0
C1155 C 0.03643 0.51132 0.48574 0.0
H1156 H 0.99307 0.44479 0.55605 0.0
C1157 C 0.0017 0.5304 0.47001 0.0
H1158 H 0.0589 0.46529 0.52992 0.0
C1159 C 0.96395 0.51879 0.48518 0.0
C1160 C 0.96022 0.48784 0.51633 0.0
H1161 H 0.00361 0.55441 0.44606 0.0
H1162 H 0.93772 0.53388 0.47219 0.0
C1163 C 0.99495 0.46883 0.53213 0.0
C1164 C 0.97908 0.96483 0.48667 0.0
C1165 C 0.01013 0.96093 0.51765 0.0
H1166 H 0.94346 0.00464 0.44775 0.0
C1167 C 0.02932 0.9956 0.53341 0.0
H1168 H 0.96384 0.93867 0.4737 0.0
C1169 C 0.0178 0.03341 0.51833 0.0
C1170 C 0.98683 0.0373 0.48724 0.0
H1171 H 0.05346 0.99358 0.5572 0.0
H1172 H 0.03307 0.05958 0.53124 0.0
C1173 C 0.96756 0.00264 0.47159 0.0
C1174 C 0.53361 0.97967 0.48753 0.0
C1175 C 0.53736 0.01104 0.51816 0.0
H1176 H 0.49395 0.94354 0.449 0.0
C1177 C 0.50263 0.03029 0.53363 0.0
H1178 H 0.55984 0.96439 0.4748 0.0
C1179 C 0.46489 0.01848 0.51867 0.0
C1180 C 0.46114 0.98717 0.48796 0.0
H1181 H 0.50454 0.05465 0.55715 0.0
H1182 H 0.43868 0.0338 0.53137 0.0
C1183 C 0.49586 0.96788 0.47255 0.0
C1184 C 0.51388 0.22394 0.28708 0.0
C1185 C 0.51694 0.26556 0.2927 0.0
H1186 H 0.51525 0.17524 0.24103 0.0
C1187 C 0.51573 0.29072 0.25557 0.0
H1188 H 0.51513 0.20398 0.31521 0.0
C1189 C 0.51475 0.27436 0.21322 0.0
C1190 C 0.51613 0.23265 0.20759 0.0
H1191 H 0.51816 0.32297 0.25926 0.0
H1192 H 0.51673 0.29426 0.18509 0.0
C1193 C 0.51406 0.20755 0.24473 0.0
C1194 C 0.27377 0.50991 0.28731 0.0
C1195 C 0.23213 0.5122 0.29304 0.0
H1196 H 0.32232 0.51232 0.24114 0.0
C1197 C 0.20692 0.51039 0.25597 0.0
H1198 H 0.29378 0.51163 0.31537 0.0
C1199 C 0.22319 0.50981 0.21358 0.0
C1200 C 0.26484 0.51215 0.20784 0.0
H1201 H 0.17465 0.51224 0.25975 0.0
H1202 H 0.20318 0.51145 0.18551 0.0
C1203 C 0.29005 0.51044 0.24491 0.0
C1204 C 0.98278 0.22592 0.21554 0.0
C1205 C 0.97884 0.26747 0.20989 0.0
H1206 H 0.98249 0.17722 0.26162 0.0
C1207 C 0.97947 0.29266 0.24701 0.0
H1208 H 0.982 0.20593 0.18741 0.0
C1209 C 0.98083 0.27634 0.28937 0.0
C1210 C 0.9804 0.23461 0.29502 0.0
H1211 H 0.97637 0.32485 0.24331 0.0
H1212 H 0.97843 0.29621 0.31749 0.0
C1213 C 0.98296 0.20955 0.2579 0.0
C1214 C 0.2888 0.98509 0.25827 0.0
C1215 C 0.26369 0.9825 0.29535 0.0
H1216 H 0.29256 0.98398 0.1878 0.0
C1217 C 0.22198 0.98284 0.28959 0.0
H1218 H 0.32111 0.98469 0.26207 0.0
C1219 C 0.20574 0.98137 0.24719 0.0
C1220 C 0.23099 0.98069 0.21013 0.0
H1221 H 0.20206 0.98043 0.31766 0.0
H1222 H 0.17357 0.97819 0.24343 0.0
C1223 C 0.2725 0.98477 0.21587 0.0
C1224 C 0.47808 0.78921 0.75707 0.0
C1225 C 0.47638 0.76365 0.79385 0.0
H1226 H 0.47726 0.7936 0.68664 0.0
C1227 C 0.47845 0.72204 0.78763 0.0
H1228 H 0.47641 0.82146 0.76122 0.0
C1229 C 0.47791 0.70617 0.74504 0.0
C1230 C 0.47648 0.73173 0.70825 0.0
H1231 H 0.4768 0.70178 0.81548 0.0
H1232 H 0.47611 0.67393 0.74088 0.0
C1233 C 0.47871 0.77333 0.71448 0.0
C1234 C 0.78855 0.48273 0.74452 0.0
C1235 C 0.76345 0.48039 0.70741 0.0
H1236 H 0.7922 0.48173 0.815 0.0
C1237 C 0.72174 0.48136 0.71307 0.0
H1238 H 0.82086 0.48186 0.74078 0.0
C1239 C 0.70543 0.48024 0.75543 0.0
C1240 C 0.73063 0.47929 0.79254 0.0
H1241 H 0.70185 0.47917 0.68495 0.0
H1242 H 0.67322 0.4775 0.75915 0.0
C1243 C 0.7722 0.48277 0.78689 0.0
C1244 C 0.01785 0.72094 0.71344 0.0
C1245 C 0.01881 0.76257 0.7071 0.0
H1246 H 0.0214 0.67303 0.76034 0.0
C1247 C 0.01624 0.78817 0.74379 0.0
H1248 H 0.0202 0.70066 0.68567 0.0
C1249 C 0.01596 0.77239 0.78643 0.0
C1250 C 0.0194 0.7309 0.7928 0.0
H1251 H 0.01706 0.82044 0.73954 0.0
H1252 H 0.01678 0.79278 0.81421 0.0
C1253 C 0.01871 0.7052 0.75608 0.0
C1254 C 0.70725 0.01893 0.74641 0.0
C1255 C 0.73254 0.02019 0.7094 0.0
H1256 H 0.70343 0.01977 0.81687 0.0
C1257 C 0.77415 0.01731 0.71522 0.0
H1258 H 0.67502 0.02123 0.74255 0.0
C1259 C 0.79036 0.0175 0.75765 0.0
C1260 C 0.76512 0.01938 0.79467 0.0
H1261 H 0.79421 0.01861 0.68718 0.0
H1262 H 0.82265 0.01874 0.76152 0.0
C1263 C 0.72345 0.01793 0.78883 0.0
loop_
_geom_bond_atom_site_label_1
_geom_bond_atom_site_label_2
_geom_bond_distance
_geom_bond_site_symmetry_2
_ccdc_geom_bond_type
Co0 O2 2.143 . S
Co0 O8 2.074 . S
Co0 O11 2.093 . S
Co0 O24 2.097 . S
Co0 N41 2.151 . S
Co0 N49 2.214 . S
Co1 O2 2.160 . S
Co1 O7 2.058 1_554 S
Co1 O17 2.057 . S
Co1 O32 2.036 1_554 S
Co1 N36 2.145 1_554 S
Co1 N57 2.257 . S
O2 Co0 2.143 . S
O2 Co1 2.160 . S
C3 O4 1.278 . S
C3 O11 1.224 . S
O4 C3 1.278 . S
C5 O6 1.245 . S
C5 O17 1.232 . S
O6 C5 1.245 . S
O7 Co1 2.058 1_556 S
O7 C33 1.268 1_556 S
O8 Co0 2.074 . S
O8 C33 1.257 . S
H9 C34 0.930 . S
H10 C40 0.930 . S
O11 Co0 2.093 . S
O11 C3 1.224 . S
H12 C44 0.929 . S
H13 C46 0.930 . S
H14 C47 0.930 . S
H15 C45 0.929 . S
H16 C48 0.928 . S
O17 Co1 2.057 . S
O17 C5 1.232 . S
H18 C37 0.929 . S
H19 C38 0.929 . S
H20 C50 0.931 . S
H21 C42 0.929 . S
H22 C51 0.930 . S
H23 C43 0.931 . S
O24 Co0 2.097 . S
O24 C52 1.214 . S
H25 C53 0.929 . S
H26 C54 0.929 . S
H27 C55 0.941 . S
H28 C56 0.929 . S
H29 C58 0.930 . S
H30 C35 0.930 . S
H31 C39 0.930 . S
O32 Co1 2.036 1_556 S
O32 C52 1.227 1_556 S
C33 O7 1.268 1_554 S
C33 O8 1.257 . S
C34 H9 0.930 . S
C34 C37 1.388 . S
C34 C39 1.418 . S
C35 H30 0.930 . S
C35 C38 1.404 . S
C35 C39 1.353 . S
N36 Co1 2.145 1_556 S
N36 C37 1.397 . S
N36 C38 1.334 . S
C37 H18 0.929 . S
C37 C34 1.388 . S
C37 N36 1.397 . S
C38 H19 0.929 . S
C38 C35 1.404 . S
C38 N36 1.334 . S
C39 H31 0.930 . S
C39 C34 1.418 . S
C39 C35 1.353 . S
C40 H10 0.930 . S
C40 N41 1.330 . S
C40 C42 1.446 . S
N41 Co0 2.151 . S
N41 C40 1.330 . S
N41 C45 1.418 . S
C42 H21 0.929 . S
C42 C40 1.446 . S
C42 C43 1.332 . S
C43 H23 0.931 . S
C43 C42 1.332 . S
C43 C44 1.267 . S
C44 H12 0.929 . S
C44 C43 1.267 . S
C44 C45 1.251 . S
C45 H15 0.929 . S
C45 N41 1.418 . S
C45 C44 1.251 . S
C46 H13 0.930 . S
C46 C48 1.406 . S
C46 C51 1.261 . S
C47 H14 0.930 . S
C47 N49 1.325 . S
C47 C50 1.357 . S
C48 H16 0.928 . S
C48 C46 1.406 . S
C48 N49 1.261 . S
N49 Co0 2.214 . S
N49 C47 1.325 . S
N49 C48 1.261 . S
C50 H20 0.931 . S
C50 C47 1.357 . S
C50 C51 1.312 . S
C51 H22 0.930 . S
C51 C46 1.261 . S
C51 C50 1.312 . S
C52 O24 1.214 . S
C52 O32 1.227 1_554 S
C53 H25 0.929 . S
C53 C56 1.391 . S
C53 C58 1.391 . S
C54 H26 0.929 . S
C54 C55 1.394 . S
C54 N57 1.391 1_556 S
C55 H27 0.941 . S
C55 C54 1.394 . S
C55 C56 1.378 1_556 S
C56 H28 0.929 . S
C56 C53 1.391 . S
C56 C55 1.378 1_554 S
N57 Co1 2.257 . S
N57 C54 1.391 1_554 S
N57 C58 1.388 . S
C58 H29 0.930 . S
C58 C53 1.391 . S
C58 N57 1.388 . S
Co59 O61 2.143 . S
Co59 O67 2.074 . S
Co59 O70 2.093 . S
Co59 O83 2.097 . S
Co59 N100 2.151 . S
Co59 N108 2.214 . S
Co60 O61 2.160 . S
Co60 O66 2.058 1_554 S
Co60 O76 2.057 . S
Co60 O91 2.036 1_554 S
Co60 N95 2.145 1_554 S
Co60 N116 2.257 . S
O61 Co59 2.143 . S
O61 Co60 2.160 . S
C62 O63 1.278 . S
C62 O70 1.224 . S
O63 C62 1.278 . S
C64 O65 1.245 . S
C64 O76 1.232 . S
O65 C64 1.245 . S
O66 Co60 2.058 1_556 S
O66 C92 1.268 1_556 S
O67 Co59 2.074 . S
O67 C92 1.257 . S
H68 C93 0.930 . S
H69 C99 0.930 . S
O70 Co59 2.093 . S
O70 C62 1.224 . S
H71 C103 0.929 . S
H72 C105 0.930 . S
H73 C106 0.930 . S
H74 C104 0.929 . S
H75 C107 0.928 . S
O76 Co60 2.057 . S
O76 C64 1.232 . S
H77 C96 0.929 . S
H78 C97 0.929 . S
H79 C109 0.931 . S
H80 C101 0.929 . S
H81 C110 0.930 . S
H82 C102 0.931 . S
O83 Co59 2.097 . S
O83 C111 1.214 . S
H84 C112 0.929 . S
H85 C113 0.929 . S
H86 C114 0.940 . S
H87 C115 0.929 . S
H88 C117 0.930 . S
H89 C94 0.930 . S
H90 C98 0.930 . S
O91 Co60 2.036 1_556 S
O91 C111 1.227 1_556 S
C92 O66 1.268 1_554 S
C92 O67 1.257 . S
C93 H68 0.930 . S
C93 C96 1.388 . S
C93 C98 1.418 . S
C94 H89 0.930 . S
C94 C97 1.404 . S
C94 C98 1.353 . S
N95 Co60 2.145 1_556 S
N95 C96 1.397 . S
N95 C97 1.334 . S
C96 H77 0.929 . S
C96 C93 1.388 . S
C96 N95 1.397 . S
C97 H78 0.929 . S
C97 C94 1.404 . S
C97 N95 1.334 . S
C98 H90 0.930 . S
C98 C93 1.418 . S
C98 C94 1.353 . S
C99 H69 0.930 . S
C99 N100 1.330 . S
C99 C101 1.446 . S
N100 Co59 2.151 . S
N100 C99 1.330 . S
N100 C104 1.418 . S
C101 H80 0.929 . S
C101 C99 1.446 . S
C101 C102 1.332 . S
C102 H82 0.931 . S
C102 C101 1.332 . S
C102 C103 1.267 . S
C103 H71 0.929 . S
C103 C102 1.267 . S
C103 C104 1.251 . S
C104 H74 0.929 . S
C104 N100 1.418 . S
C104 C103 1.251 . S
C105 H72 0.930 . S
C105 C107 1.406 . S
C105 C110 1.261 . S
C106 H73 0.930 . S
C106 N108 1.325 . S
C106 C109 1.357 . S
C107 H75 0.928 . S
C107 C105 1.406 . S
C107 N108 1.261 . S
N108 Co59 2.214 . S
N108 C106 1.325 . S
N108 C107 1.261 . S
C109 H79 0.931 . S
C109 C106 1.357 . S
C109 C110 1.312 . S
C110 H81 0.930 . S
C110 C105 1.261 . S
C110 C109 1.312 . S
C111 O83 1.214 . S
C111 O91 1.227 1_554 S
C112 H84 0.929 . S
C112 C115 1.391 . S
C112 C117 1.391 . S
C113 H85 0.929 . S
C113 C114 1.394 . S
C113 N116 1.391 1_556 S
C114 H86 0.940 . S
C114 C113 1.394 . S
C114 C115 1.378 1_556 S
C115 H87 0.929 . S
C115 C112 1.391 . S
C115 C114 1.378 1_554 S
N116 Co60 2.257 . S
N116 C113 1.391 1_554 S
N116 C117 1.388 . S
C117 H88 0.930 . S
C117 C112 1.391 . S
C117 N116 1.388 . S
Co118 O120 2.143 . S
Co118 O126 2.074 . S
Co118 O129 2.093 . S
Co118 O142 2.097 . S
Co118 N159 2.151 . S
Co118 N167 2.214 . S
Co119 O120 2.160 . S
Co119 O125 2.058 1_554 S
Co119 O135 2.057 . S
Co119 O150 2.036 1_554 S
Co119 N154 2.145 1_554 S
Co119 N175 2.257 1_655 S
O120 Co118 2.143 . S
O120 Co119 2.160 . S
C121 O122 1.278 . S
C121 O129 1.224 . S
O122 C121 1.278 . S
C123 O124 1.244 . S
C123 O135 1.232 . S
O124 C123 1.244 . S
O125 Co119 2.058 1_556 S
O125 C151 1.268 1_556 S
O126 Co118 2.074 . S
O126 C151 1.257 . S
H127 C152 0.930 . S
H128 C158 0.930 . S
O129 Co118 2.093 . S
O129 C121 1.224 . S
H130 C162 0.929 . S
H131 C164 0.930 . S
H132 C165 0.930 . S
H133 C163 0.929 . S
H134 C166 0.928 . S
O135 Co119 2.057 . S
O135 C123 1.232 . S
H136 C155 0.929 . S
H137 C156 0.929 . S
H138 C168 0.931 . S
H139 C160 0.929 . S
H140 C169 0.930 . S
H141 C161 0.931 . S
O142 Co118 2.097 . S
O142 C170 1.214 . S
H143 C171 0.929 . S
H144 C172 0.929 . S
H145 C173 0.940 . S
H146 C174 0.929 . S
H147 C176 0.930 . S
H148 C153 0.930 . S
H149 C157 0.930 1_455 S
O150 Co119 2.036 1_556 S
O150 C170 1.227 1_556 S
C151 O125 1.268 1_554 S
C151 O126 1.257 . S
C152 H127 0.930 . S
C152 C155 1.388 . S
C152 C157 1.418 . S
C153 H148 0.930 . S
C153 C156 1.404 . S
C153 C157 1.353 1_455 S
N154 Co119 2.145 1_556 S
N154 C155 1.397 . S
N154 C156 1.334 1_655 S
C155 H136 0.929 . S
C155 C152 1.388 . S
C155 N154 1.397 . S
C156 H137 0.929 . S
C156 C153 1.404 . S
C156 N154 1.334 1_455 S
C157 H149 0.930 1_655 S
C157 C152 1.418 . S
C157 C153 1.353 1_655 S
C158 H128 0.930 . S
C158 N159 1.330 . S
C158 C160 1.446 . S
N159 Co118 2.151 . S
N159 C158 1.330 . S
N159 C163 1.418 . S
C160 H139 0.929 . S
C160 C158 1.446 . S
C160 C161 1.332 . S
C161 H141 0.931 . S
C161 C160 1.332 . S
C161 C162 1.267 . S
C162 H130 0.929 . S
C162 C161 1.267 . S
C162 C163 1.251 . S
C163 H133 0.929 . S
C163 N159 1.418 . S
C163 C162 1.251 . S
C164 H131 0.930 . S
C164 C166 1.406 . S
C164 C169 1.261 . S
C165 H132 0.930 . S
C165 N167 1.325 . S
C165 C168 1.357 . S
C166 H134 0.928 . S
C166 C164 1.406 . S
C166 N167 1.261 . S
N167 Co118 2.214 . S
N167 C165 1.325 . S
N167 C166 1.261 . S
C168 H138 0.931 . S
C168 C165 1.357 . S
C168 C169 1.312 . S
C169 H140 0.930 . S
C169 C164 1.261 . S
C169 C168 1.312 . S
C170 O142 1.214 . S
C170 O150 1.227 1_554 S
C171 H143 0.929 . S
C171 C174 1.391 . S
C171 C176 1.391 . S
C172 H144 0.929 . S
C172 C173 1.394 . S
C172 N175 1.391 1_556 S
C173 H145 0.940 . S
C173 C172 1.394 . S
C173 C174 1.378 1_556 S
C174 H146 0.929 . S
C174 C171 1.391 . S
C174 C173 1.378 1_554 S
N175 Co119 2.257 1_455 S
N175 C172 1.391 1_554 S
N175 C176 1.388 . S
C176 H147 0.930 . S
C176 C171 1.391 . S
C176 N175 1.388 . S
Co177 O179 2.143 . S
Co177 O185 2.074 . S
Co177 O188 2.093 . S
Co177 O201 2.097 . S
Co177 N218 2.151 . S
Co177 N226 2.214 . S
Co178 O179 2.160 . S
Co178 O184 2.058 1_554 S
Co178 O194 2.057 . S
Co178 O209 2.036 1_554 S
Co178 N213 2.145 1_554 S
Co178 N234 2.257 1_565 S
O179 Co177 2.143 . S
O179 Co178 2.160 . S
C180 O181 1.278 . S
C180 O188 1.224 . S
O181 C180 1.278 . S
C182 O183 1.244 . S
C182 O194 1.232 . S
O183 C182 1.244 . S
O184 Co178 2.058 1_556 S
O184 C210 1.268 1_556 S
O185 Co177 2.074 . S
O185 C210 1.257 . S
H186 C211 0.930 . S
H187 C217 0.930 . S
O188 Co177 2.093 . S
O188 C180 1.224 . S
H189 C221 0.929 . S
H190 C223 0.930 . S
H191 C224 0.930 . S
H192 C222 0.929 . S
H193 C225 0.928 . S
O194 Co178 2.057 . S
O194 C182 1.232 . S
H195 C214 0.929 . S
H196 C215 0.929 . S
H197 C227 0.931 . S
H198 C219 0.929 . S
H199 C228 0.930 . S
H200 C220 0.931 . S
O201 Co177 2.097 . S
O201 C229 1.214 . S
H202 C230 0.929 . S
H203 C231 0.929 . S
H204 C232 0.941 . S
H205 C233 0.929 . S
H206 C235 0.930 . S
H207 C212 0.930 . S
H208 C216 0.930 1_545 S
O209 Co178 2.036 1_556 S
O209 C229 1.227 1_556 S
C210 O184 1.268 1_554 S
C210 O185 1.257 . S
C211 H186 0.930 . S
C211 C214 1.388 . S
C211 C216 1.418 . S
C212 H207 0.930 . S
C212 C215 1.404 . S
C212 C216 1.353 1_545 S
N213 Co178 2.145 1_556 S
N213 C214 1.397 . S
N213 C215 1.334 1_565 S
C214 H195 0.929 . S
C214 C211 1.388 . S
C214 N213 1.397 . S
C215 H196 0.929 . S
C215 C212 1.404 . S
C215 N213 1.334 1_545 S
C216 H208 0.930 1_565 S
C216 C211 1.418 . S
C216 C212 1.353 1_565 S
C217 H187 0.930 . S
C217 N218 1.330 . S
C217 C219 1.446 . S
N218 Co177 2.151 . S
N218 C217 1.330 . S
N218 C222 1.418 . S
C219 H198 0.929 . S
C219 C217 1.446 . S
C219 C220 1.332 . S
C220 H200 0.931 . S
C220 C219 1.332 . S
C220 C221 1.267 . S
C221 H189 0.929 . S
C221 C220 1.267 . S
C221 C222 1.251 . S
C222 H192 0.929 . S
C222 N218 1.418 . S
C222 C221 1.251 . S
C223 H190 0.930 . S
C223 C225 1.406 . S
C223 C228 1.261 . S
C224 H191 0.930 . S
C224 N226 1.325 . S
C224 C227 1.357 . S
C225 H193 0.928 . S
C225 C223 1.406 . S
C225 N226 1.261 . S
N226 Co177 2.214 . S
N226 C224 1.325 . S
N226 C225 1.261 . S
C227 H197 0.931 . S
C227 C224 1.357 . S
C227 C228 1.312 . S
C228 H199 0.930 . S
C228 C223 1.261 . S
C228 C227 1.312 . S
C229 O201 1.214 . S
C229 O209 1.227 1_554 S
C230 H202 0.929 . S
C230 C233 1.391 . S
C230 C235 1.391 . S
C231 H203 0.929 . S
C231 C232 1.394 . S
C231 N234 1.391 1_556 S
C232 H204 0.941 . S
C232 C231 1.394 . S
C232 C233 1.378 1_556 S
C233 H205 0.929 . S
C233 C230 1.391 . S
C233 C232 1.378 1_554 S
N234 Co178 2.257 1_545 S
N234 C231 1.391 1_554 S
N234 C235 1.388 . S
C235 H206 0.930 . S
C235 C230 1.391 . S
C235 N234 1.388 . S
Co236 O238 2.143 . S
Co236 O244 2.074 . S
Co236 O247 2.093 . S
Co236 O260 2.097 . S
Co236 N277 2.151 . S
Co236 N285 2.214 . S
Co237 O238 2.160 . S
Co237 O243 2.058 . S
Co237 O253 2.057 . S
Co237 O268 2.037 . S
Co237 N272 2.145 . S
Co237 N293 2.257 . S
O238 Co236 2.143 . S
O238 Co237 2.160 . S
C239 O240 1.278 . S
C239 O247 1.224 . S
O240 C239 1.278 . S
C241 O242 1.245 . S
C241 O253 1.232 . S
O242 C241 1.245 . S
O243 Co237 2.058 . S
O243 C269 1.269 . S
O244 Co236 2.074 . S
O244 C269 1.257 . S
H245 C270 0.930 . S
H246 C276 0.930 . S
O247 Co236 2.093 . S
O247 C239 1.224 . S
H248 C280 0.929 . S
H249 C282 0.930 . S
H250 C283 0.930 . S
H251 C281 0.929 . S
H252 C284 0.928 . S
O253 Co237 2.057 . S
O253 C241 1.232 . S
H254 C273 0.929 . S
H255 C274 0.929 . S
H256 C286 0.931 . S
H257 C278 0.929 . S
H258 C287 0.930 . S
H259 C279 0.931 . S
O260 Co236 2.097 . S
O260 C288 1.214 . S
H261 C289 0.929 . S
H262 C290 0.929 . S
H263 C291 0.930 . S
H264 C292 0.929 . S
H265 C294 0.930 . S
H266 C271 0.930 . S
H267 C275 0.930 . S
O268 Co237 2.037 . S
O268 C288 1.234 . S
C269 O243 1.269 . S
C269 O244 1.257 . S
C270 H245 0.930 . S
C270 C273 1.388 . S
C270 C275 1.418 . S
C271 H266 0.930 . S
C271 C274 1.404 . S
C271 C275 1.353 . S
N272 Co237 2.145 . S
N272 C273 1.397 . S
N272 C274 1.334 . S
C273 H254 0.929 . S
C273 C270 1.388 . S
C273 N272 1.397 . S
C274 H255 0.929 . S
C274 C271 1.404 . S
C274 N272 1.334 . S
C275 H267 0.930 . S
C275 C270 1.418 . S
C275 C271 1.353 . S
C276 H246 0.930 . S
C276 N277 1.330 . S
C276 C278 1.446 . S
N277 Co236 2.151 . S
N277 C276 1.330 . S
N277 C281 1.418 . S
C278 H257 0.929 . S
C278 C276 1.446 . S
C278 C279 1.332 . S
C279 H259 0.931 . S
C279 C278 1.332 . S
C279 C280 1.267 . S
C280 H248 0.929 . S
C280 C279 1.267 . S
C280 C281 1.251 . S
C281 H251 0.929 . S
C281 N277 1.418 . S
C281 C280 1.251 . S
C282 H249 0.930 . S
C282 C284 1.406 . S
C282 C287 1.261 . S
C283 H250 0.930 . S
C283 N285 1.325 . S
C283 C286 1.357 . S
C284 H252 0.928 . S
C284 C282 1.406 . S
C284 N285 1.261 . S
N285 Co236 2.214 . S
N285 C283 1.325 . S
N285 C284 1.261 . S
C286 H256 0.931 . S
C286 C283 1.357 . S
C286 C287 1.312 . S
C287 H258 0.930 . S
C287 C282 1.261 . S
C287 C286 1.312 . S
C288 O260 1.214 . S
C288 O268 1.234 . S
C289 H261 0.929 . S
C289 C292 1.391 . S
C289 C294 1.391 . S
C290 H262 0.929 . S
C290 C291 1.390 . S
C290 N293 1.391 . S
C291 H263 0.930 . S
C291 C290 1.390 . S
C291 C292 1.392 . S
C292 H264 0.929 . S
C292 C289 1.391 . S
C292 C291 1.392 . S
N293 Co237 2.257 . S
N293 C290 1.391 . S
N293 C294 1.388 . S
C294 H265 0.930 . S
C294 C289 1.391 . S
C294 N293 1.388 . S
Co295 O297 2.143 . S
Co295 O303 2.074 . S
Co295 O306 2.093 . S
Co295 O319 2.097 . S
Co295 N336 2.151 . S
Co295 N344 2.214 . S
Co296 O297 2.160 . S
Co296 O302 2.058 . S
Co296 O312 2.057 . S
Co296 O327 2.037 . S
Co296 N331 2.145 . S
Co296 N352 2.257 . S
O297 Co295 2.143 . S
O297 Co296 2.160 . S
C298 O299 1.278 . S
C298 O306 1.224 . S
O299 C298 1.278 . S
C300 O301 1.245 . S
C300 O312 1.232 . S
O301 C300 1.245 . S
O302 Co296 2.058 . S
O302 C328 1.269 . S
O303 Co295 2.074 . S
O303 C328 1.257 . S
H304 C329 0.930 . S
H305 C335 0.930 . S
O306 Co295 2.093 . S
O306 C298 1.224 . S
H307 C339 0.929 . S
H308 C341 0.930 . S
H309 C342 0.930 . S
H310 C340 0.929 . S
H311 C343 0.928 . S
O312 Co296 2.057 . S
O312 C300 1.232 . S
H313 C332 0.929 . S
H314 C333 0.929 . S
H315 C345 0.931 . S
H316 C337 0.929 . S
H317 C346 0.930 . S
H318 C338 0.931 . S
O319 Co295 2.097 . S
O319 C347 1.214 . S
H320 C348 0.929 . S
H321 C349 0.929 . S
H322 C350 0.930 . S
H323 C351 0.929 . S
H324 C353 0.930 . S
H325 C330 0.930 . S
H326 C334 0.930 . S
O327 Co296 2.037 . S
O327 C347 1.234 . S
C328 O302 1.269 . S
C328 O303 1.257 . S
C329 H304 0.930 . S
C329 C332 1.388 . S
C329 C334 1.418 . S
C330 H325 0.930 . S
C330 C333 1.404 . S
C330 C334 1.353 . S
N331 Co296 2.145 . S
N331 C332 1.397 . S
N331 C333 1.334 . S
C332 H313 0.929 . S
C332 C329 1.388 . S
C332 N331 1.397 . S
C333 H314 0.929 . S
C333 C330 1.404 . S
C333 N331 1.334 . S
C334 H326 0.930 . S
C334 C329 1.418 . S
C334 C330 1.353 . S
C335 H305 0.930 . S
C335 N336 1.330 . S
C335 C337 1.446 . S
N336 Co295 2.151 . S
N336 C335 1.330 . S
N336 C340 1.418 . S
C337 H316 0.929 . S
C337 C335 1.446 . S
C337 C338 1.332 . S
C338 H318 0.931 . S
C338 C337 1.332 . S
C338 C339 1.267 . S
C339 H307 0.929 . S
C339 C338 1.267 . S
C339 C340 1.251 . S
C340 H310 0.929 . S
C340 N336 1.418 . S
C340 C339 1.251 . S
C341 H308 0.930 . S
C341 C343 1.406 . S
C341 C346 1.261 . S
C342 H309 0.930 . S
C342 N344 1.325 . S
C342 C345 1.357 . S
C343 H311 0.928 . S
C343 C341 1.406 . S
C343 N344 1.261 . S
N344 Co295 2.214 . S
N344 C342 1.325 . S
N344 C343 1.261 . S
C345 H315 0.931 . S
C345 C342 1.357 . S
C345 C346 1.312 . S
C346 H317 0.930 . S
C346 C341 1.261 . S
C346 C345 1.312 . S
C347 O319 1.214 . S
C347 O327 1.234 . S
C348 H320 0.929 . S
C348 C351 1.391 . S
C348 C353 1.391 . S
C349 H321 0.929 . S
C349 C350 1.390 . S
C349 N352 1.391 . S
C350 H322 0.930 . S
C350 C349 1.390 . S
C350 C351 1.392 . S
C351 H323 0.929 . S
C351 C348 1.391 . S
C351 C350 1.392 . S
N352 Co296 2.257 . S
N352 C349 1.391 . S
N352 C353 1.388 . S
C353 H324 0.930 . S
C353 C348 1.391 . S
C353 N352 1.388 . S
Co354 O356 2.143 . S
Co354 O362 2.074 . S
Co354 O365 2.093 . S
Co354 O378 2.097 . S
Co354 N395 2.151 . S
Co354 N403 2.214 . S
Co355 O356 2.160 . S
Co355 O361 2.058 . S
Co355 O371 2.057 . S
Co355 O386 2.037 . S
Co355 N390 2.145 . S
Co355 N411 2.257 1_655 S
O356 Co354 2.143 . S
O356 Co355 2.160 . S
C357 O358 1.278 . S
C357 O365 1.224 . S
O358 C357 1.278 . S
C359 O360 1.244 . S
C359 O371 1.232 . S
O360 C359 1.244 . S
O361 Co355 2.058 . S
O361 C387 1.269 . S
O362 Co354 2.074 . S
O362 C387 1.257 . S
H363 C388 0.930 . S
H364 C394 0.930 . S
O365 Co354 2.093 . S
O365 C357 1.224 . S
H366 C398 0.929 . S
H367 C400 0.930 . S
H368 C401 0.930 . S
H369 C399 0.929 . S
H370 C402 0.928 . S
O371 Co355 2.057 . S
O371 C359 1.232 . S
H372 C391 0.929 . S
H373 C392 0.929 . S
H374 C404 0.931 . S
H375 C396 0.929 . S
H376 C405 0.930 . S
H377 C397 0.931 . S
O378 Co354 2.097 . S
O378 C406 1.214 . S
H379 C407 0.929 . S
H380 C408 0.929 . S
H381 C409 0.930 . S
H382 C410 0.929 . S
H383 C412 0.930 . S
H384 C389 0.930 . S
H385 C393 0.930 1_455 S
O386 Co355 2.037 . S
O386 C406 1.234 . S
C387 O361 1.269 . S
C387 O362 1.257 . S
C388 H363 0.930 . S
C388 C391 1.388 . S
C388 C393 1.418 . S
C389 H384 0.930 . S
C389 C392 1.404 . S
C389 C393 1.353 1_455 S
N390 Co355 2.145 . S
N390 C391 1.397 . S
N390 C392 1.334 1_655 S
C391 H372 0.929 . S
C391 C388 1.388 . S
C391 N390 1.397 . S
C392 H373 0.929 . S
C392 C389 1.404 . S
C392 N390 1.334 1_455 S
C393 H385 0.930 1_655 S
C393 C388 1.418 . S
C393 C389 1.353 1_655 S
C394 H364 0.930 . S
C394 N395 1.330 . S
C394 C396 1.446 . S
N395 Co354 2.151 . S
N395 C394 1.330 . S
N395 C399 1.418 . S
C396 H375 0.929 . S
C396 C394 1.446 . S
C396 C397 1.332 . S
C397 H377 0.931 . S
C397 C396 1.332 . S
C397 C398 1.267 . S
C398 H366 0.929 . S
C398 C397 1.267 . S
C398 C399 1.251 . S
C399 H369 0.929 . S
C399 N395 1.418 . S
C399 C398 1.251 . S
C400 H367 0.930 . S
C400 C402 1.406 . S
C400 C405 1.261 . S
C401 H368 0.930 . S
C401 N403 1.325 . S
C401 C404 1.357 . S
C402 H370 0.928 . S
C402 C400 1.406 . S
C402 N403 1.261 . S
N403 Co354 2.214 . S
N403 C401 1.325 . S
N403 C402 1.261 . S
C404 H374 0.931 . S
C404 C401 1.357 . S
C404 C405 1.312 . S
C405 H376 0.930 . S
C405 C400 1.261 . S
C405 C404 1.312 . S
C406 O378 1.214 . S
C406 O386 1.234 . S
C407 H379 0.929 . S
C407 C410 1.391 . S
C407 C412 1.391 . S
C408 H380 0.929 . S
C408 C409 1.390 . S
C408 N411 1.391 . S
C409 H381 0.930 . S
C409 C408 1.390 . S
C409 C410 1.392 . S
C410 H382 0.929 . S
C410 C407 1.391 . S
C410 C409 1.392 . S
N411 Co355 2.257 1_455 S
N411 C408 1.391 . S
N411 C412 1.388 . S
C412 H383 0.930 . S
C412 C407 1.391 . S
C412 N411 1.388 . S
Co413 O415 2.143 . S
Co413 O421 2.074 . S
Co413 O424 2.093 . S
Co413 O437 2.097 . S
Co413 N454 2.151 . S
Co413 N462 2.214 . S
Co414 O415 2.160 . S
Co414 O420 2.058 . S
Co414 O430 2.057 . S
Co414 O445 2.037 . S
Co414 N449 2.145 . S
Co414 N470 2.257 1_565 S
O415 Co413 2.143 . S
O415 Co414 2.160 . S
C416 O417 1.278 . S
C416 O424 1.224 . S
O417 C416 1.278 . S
C418 O419 1.244 . S
C418 O430 1.232 . S
O419 C418 1.244 . S
O420 Co414 2.058 . S
O420 C446 1.269 . S
O421 Co413 2.074 . S
O421 C446 1.257 . S
H422 C447 0.930 . S
H423 C453 0.930 . S
O424 Co413 2.093 . S
O424 C416 1.224 . S
H425 C457 0.929 . S
H426 C459 0.930 . S
H427 C460 0.930 . S
H428 C458 0.929 . S
H429 C461 0.928 . S
O430 Co414 2.057 . S
O430 C418 1.232 . S
H431 C450 0.929 . S
H432 C451 0.929 . S
H433 C463 0.931 . S
H434 C455 0.929 . S
H435 C464 0.930 . S
H436 C456 0.931 . S
O437 Co413 2.097 . S
O437 C465 1.214 . S
H438 C466 0.929 . S
H439 C467 0.929 . S
H440 C468 0.930 . S
H441 C469 0.929 . S
H442 C471 0.930 . S
H443 C448 0.930 . S
H444 C452 0.930 1_545 S
O445 Co414 2.037 . S
O445 C465 1.234 . S
C446 O420 1.269 . S
C446 O421 1.257 . S
C447 H422 0.930 . S
C447 C450 1.388 . S
C447 C452 1.418 . S
C448 H443 0.930 . S
C448 C451 1.404 . S
C448 C452 1.353 1_545 S
N449 Co414 2.145 . S
N449 C450 1.397 . S
N449 C451 1.334 1_565 S
C450 H431 0.929 . S
C450 C447 1.388 . S
C450 N449 1.397 . S
C451 H432 0.929 . S
C451 C448 1.404 . S
C451 N449 1.334 1_545 S
C452 H444 0.930 1_565 S
C452 C447 1.418 . S
C452 C448 1.353 1_565 S
C453 H423 0.930 . S
C453 N454 1.330 . S
C453 C455 1.446 . S
N454 Co413 2.151 . S
N454 C453 1.330 . S
N454 C458 1.418 . S
C455 H434 0.929 . S
C455 C453 1.446 . S
C455 C456 1.332 . S
C456 H436 0.931 . S
C456 C455 1.332 . S
C456 C457 1.267 . S
C457 H425 0.929 . S
C457 C456 1.267 . S
C457 C458 1.251 . S
C458 H428 0.929 . S
C458 N454 1.418 . S
C458 C457 1.251 . S
C459 H426 0.930 . S
C459 C461 1.406 . S
C459 C464 1.261 . S
C460 H427 0.930 . S
C460 N462 1.325 . S
C460 C463 1.357 . S
C461 H429 0.928 . S
C461 C459 1.406 . S
C461 N462 1.261 . S
N462 Co413 2.214 . S
N462 C460 1.325 . S
N462 C461 1.261 . S
C463 H433 0.931 . S
C463 C460 1.357 . S
C463 C464 1.312 . S
C464 H435 0.930 . S
C464 C459 1.261 . S
C464 C463 1.312 . S
C465 O437 1.214 . S
C465 O445 1.234 . S
C466 H438 0.929 . S
C466 C469 1.391 . S
C466 C471 1.391 . S
C467 H439 0.929 . S
C467 C468 1.390 . S
C467 N470 1.391 . S
C468 H440 0.930 . S
C468 C467 1.390 . S
C468 C469 1.392 . S
C469 H441 0.929 . S
C469 C466 1.391 . S
C469 C468 1.392 . S
N470 Co414 2.257 1_545 S
N470 C467 1.391 . S
N470 C471 1.388 . S
C471 H442 0.930 . S
C471 C466 1.391 . S
C471 N470 1.388 . S
Co472 O474 2.143 . S
Co472 O480 2.074 . S
Co472 O483 2.093 . S
Co472 O496 2.097 . S
Co472 N513 2.151 . S
Co472 N521 2.214 . S
Co473 O474 2.160 . S
Co473 O479 2.058 1_556 S
Co473 O489 2.057 . S
Co473 O504 2.036 1_556 S
Co473 N508 2.145 1_556 S
Co473 N529 2.257 . S
O474 Co472 2.143 . S
O474 Co473 2.160 . S
C475 O476 1.278 . S
C475 O483 1.224 . S
O476 C475 1.278 . S
C477 O478 1.245 . S
C477 O489 1.232 . S
O478 C477 1.245 . S
O479 Co473 2.058 1_554 S
O479 C505 1.268 1_554 S
O480 Co472 2.074 . S
O480 C505 1.257 . S
H481 C506 0.930 . S
H482 C512 0.930 . S
O483 Co472 2.093 . S
O483 C475 1.224 . S
H484 C516 0.929 . S
H485 C518 0.930 . S
H486 C519 0.930 . S
H487 C517 0.929 . S
H488 C520 0.928 . S
O489 Co473 2.057 . S
O489 C477 1.232 . S
H490 C509 0.929 . S
H491 C510 0.929 . S
H492 C522 0.931 . S
H493 C514 0.929 . S
H494 C523 0.930 . S
H495 C515 0.931 . S
O496 Co472 2.097 . S
O496 C524 1.214 . S
H497 C525 0.929 . S
H498 C526 0.929 . S
H499 C527 0.941 . S
H500 C528 0.929 . S
H501 C530 0.930 . S
H502 C507 0.930 . S
H503 C511 0.930 . S
O504 Co473 2.036 1_554 S
O504 C524 1.227 1_554 S
C505 O479 1.268 1_556 S
C505 O480 1.257 . S
C506 H481 0.930 . S
C506 C509 1.388 . S
C506 C511 1.418 . S
C507 H502 0.930 . S
C507 C510 1.404 . S
C507 C511 1.353 . S
N508 Co473 2.145 1_554 S
N508 C509 1.397 . S
N508 C510 1.334 . S
C509 H490 0.929 . S
C509 C506 1.388 . S
C509 N508 1.397 . S
C510 H491 0.929 . S
C510 C507 1.404 . S
C510 N508 1.334 . S
C511 H503 0.930 . S
C511 C506 1.418 . S
C511 C507 1.353 . S
C512 H482 0.930 . S
C512 N513 1.330 . S
C512 C514 1.446 . S
N513 Co472 2.151 . S
N513 C512 1.330 . S
N513 C517 1.418 . S
C514 H493 0.929 . S
C514 C512 1.446 . S
C514 C515 1.332 . S
C515 H495 0.931 . S
C515 C514 1.332 . S
C515 C516 1.267 . S
C516 H484 0.929 . S
C516 C515 1.267 . S
C516 C517 1.251 . S
C517 H487 0.929 . S
C517 N513 1.418 . S
C517 C516 1.251 . S
C518 H485 0.930 . S
C518 C520 1.406 . S
C518 C523 1.261 . S
C519 H486 0.930 . S
C519 N521 1.325 . S
C519 C522 1.357 . S
C520 H488 0.928 . S
C520 C518 1.406 . S
C520 N521 1.261 . S
N521 Co472 2.214 . S
N521 C519 1.325 . S
N521 C520 1.261 . S
C522 H492 0.931 . S
C522 C519 1.357 . S
C522 C523 1.312 . S
C523 H494 0.930 . S
C523 C518 1.261 . S
C523 C522 1.312 . S
C524 O496 1.214 . S
C524 O504 1.227 1_556 S
C525 H497 0.929 . S
C525 C528 1.391 . S
C525 C530 1.391 . S
C526 H498 0.929 . S
C526 C527 1.394 . S
C526 N529 1.391 1_554 S
C527 H499 0.941 . S
C527 C526 1.394 . S
C527 C528 1.378 1_554 S
C528 H500 0.929 . S
C528 C525 1.391 . S
C528 C527 1.378 1_556 S
N529 Co473 2.257 . S
N529 C526 1.391 1_556 S
N529 C530 1.388 . S
C530 H501 0.930 . S
C530 C525 1.391 . S
C530 N529 1.388 . S
Co531 O533 2.143 . S
Co531 O539 2.074 . S
Co531 O542 2.093 . S
Co531 O555 2.097 . S
Co531 N572 2.151 . S
Co531 N580 2.214 . S
Co532 O533 2.160 . S
Co532 O538 2.058 1_556 S
Co532 O548 2.057 . S
Co532 O563 2.036 1_556 S
Co532 N567 2.145 1_556 S
Co532 N588 2.257 . S
O533 Co531 2.143 . S
O533 Co532 2.160 . S
C534 O535 1.278 . S
C534 O542 1.224 . S
O535 C534 1.278 . S
C536 O537 1.245 . S
C536 O548 1.232 . S
O537 C536 1.245 . S
O538 Co532 2.058 1_554 S
O538 C564 1.268 1_554 S
O539 Co531 2.074 . S
O539 C564 1.257 . S
H540 C565 0.930 . S
H541 C571 0.930 . S
O542 Co531 2.093 . S
O542 C534 1.224 . S
H543 C575 0.929 . S
H544 C577 0.930 . S
H545 C578 0.930 . S
H546 C576 0.929 . S
H547 C579 0.928 . S
O548 Co532 2.057 . S
O548 C536 1.232 . S
H549 C568 0.929 . S
H550 C569 0.929 . S
H551 C581 0.931 . S
H552 C573 0.929 . S
H553 C582 0.930 . S
H554 C574 0.931 . S
O555 Co531 2.097 . S
O555 C583 1.214 . S
H556 C584 0.929 . S
H557 C585 0.929 . S
H558 C586 0.940 . S
H559 C587 0.929 . S
H560 C589 0.930 . S
H561 C566 0.930 . S
H562 C570 0.930 . S
O563 Co532 2.036 1_554 S
O563 C583 1.227 1_554 S
C564 O538 1.268 1_556 S
C564 O539 1.257 . S
C565 H540 0.930 . S
C565 C568 1.388 . S
C565 C570 1.418 . S
C566 H561 0.930 . S
C566 C569 1.404 . S
C566 C570 1.353 . S
N567 Co532 2.145 1_554 S
N567 C568 1.397 . S
N567 C569 1.334 . S
C568 H549 0.929 . S
C568 C565 1.388 . S
C568 N567 1.397 . S
C569 H550 0.929 . S
C569 C566 1.404 . S
C569 N567 1.334 . S
C570 H562 0.930 . S
C570 C565 1.418 . S
C570 C566 1.353 . S
C571 H541 0.930 . S
C571 N572 1.330 . S
C571 C573 1.446 . S
N572 Co531 2.151 . S
N572 C571 1.330 . S
N572 C576 1.418 . S
C573 H552 0.929 . S
C573 C571 1.446 . S
C573 C574 1.332 . S
C574 H554 0.931 . S
C574 C573 1.332 . S
C574 C575 1.267 . S
C575 H543 0.929 . S
C575 C574 1.267 . S
C575 C576 1.251 . S
C576 H546 0.929 . S
C576 N572 1.418 . S
C576 C575 1.251 . S
C577 H544 0.930 . S
C577 C579 1.406 . S
C577 C582 1.261 . S
C578 H545 0.930 . S
C578 N580 1.325 . S
C578 C581 1.357 . S
C579 H547 0.928 . S
C579 C577 1.406 . S
C579 N580 1.261 . S
N580 Co531 2.214 . S
N580 C578 1.325 . S
N580 C579 1.261 . S
C581 H551 0.931 . S
C581 C578 1.357 . S
C581 C582 1.312 . S
C582 H553 0.930 . S
C582 C577 1.261 . S
C582 C581 1.312 . S
C583 O555 1.214 . S
C583 O563 1.227 1_556 S
C584 H556 0.929 . S
C584 C587 1.391 . S
C584 C589 1.391 . S
C585 H557 0.929 . S
C585 C586 1.394 . S
C585 N588 1.391 1_554 S
C586 H558 0.940 . S
C586 C585 1.394 . S
C586 C587 1.378 1_554 S
C587 H559 0.929 . S
C587 C584 1.391 . S
C587 C586 1.378 1_556 S
N588 Co532 2.257 . S
N588 C585 1.391 1_556 S
N588 C589 1.388 . S
C589 H560 0.930 . S
C589 C584 1.391 . S
C589 N588 1.388 . S
Co590 O592 2.143 . S
Co590 O598 2.074 . S
Co590 O601 2.093 . S
Co590 O614 2.097 . S
Co590 N631 2.151 . S
Co590 N639 2.214 . S
Co591 O592 2.160 . S
Co591 O597 2.058 1_556 S
Co591 O607 2.057 . S
Co591 O622 2.036 1_556 S
Co591 N626 2.145 1_556 S
Co591 N647 2.257 1_455 S
O592 Co590 2.143 . S
O592 Co591 2.160 . S
C593 O594 1.278 . S
C593 O601 1.224 . S
O594 C593 1.278 . S
C595 O596 1.244 . S
C595 O607 1.232 . S
O596 C595 1.244 . S
O597 Co591 2.058 1_554 S
O597 C623 1.268 1_554 S
O598 Co590 2.074 . S
O598 C623 1.257 . S
H599 C624 0.930 . S
H600 C630 0.930 . S
O601 Co590 2.093 . S
O601 C593 1.224 . S
H602 C634 0.929 . S
H603 C636 0.930 . S
H604 C637 0.930 . S
H605 C635 0.929 . S
H606 C638 0.928 . S
O607 Co591 2.057 . S
O607 C595 1.232 . S
H608 C627 0.929 . S
H609 C628 0.929 . S
H610 C640 0.931 . S
H611 C632 0.929 . S
H612 C641 0.930 . S
H613 C633 0.931 . S
O614 Co590 2.097 . S
O614 C642 1.214 . S
H615 C643 0.929 . S
H616 C644 0.929 . S
H617 C645 0.940 . S
H618 C646 0.929 . S
H619 C648 0.930 . S
H620 C625 0.930 . S
H621 C629 0.930 1_655 S
O622 Co591 2.036 1_554 S
O622 C642 1.227 1_554 S
C623 O597 1.268 1_556 S
C623 O598 1.257 . S
C624 H599 0.930 . S
C624 C627 1.388 . S
C624 C629 1.418 . S
C625 H620 0.930 . S
C625 C628 1.404 . S
C625 C629 1.353 1_655 S
N626 Co591 2.145 1_554 S
N626 C627 1.397 . S
N626 C628 1.334 1_455 S
C627 H608 0.929 . S
C627 C624 1.388 . S
C627 N626 1.397 . S
C628 H609 0.929 . S
C628 C625 1.404 . S
C628 N626 1.334 1_655 S
C629 H621 0.930 1_455 S
C629 C624 1.418 . S
C629 C625 1.353 1_455 S
C630 H600 0.930 . S
C630 N631 1.330 . S
C630 C632 1.446 . S
N631 Co590 2.151 . S
N631 C630 1.330 . S
N631 C635 1.418 . S
C632 H611 0.929 . S
C632 C630 1.446 . S
C632 C633 1.332 . S
C633 H613 0.931 . S
C633 C632 1.332 . S
C633 C634 1.267 . S
C634 H602 0.929 . S
C634 C633 1.267 . S
C634 C635 1.251 . S
C635 H605 0.929 . S
C635 N631 1.418 . S
C635 C634 1.251 . S
C636 H603 0.930 . S
C636 C638 1.406 . S
C636 C641 1.261 . S
C637 H604 0.930 . S
C637 N639 1.325 . S
C637 C640 1.357 . S
C638 H606 0.928 . S
C638 C636 1.406 . S
C638 N639 1.261 . S
N639 Co590 2.214 . S
N639 C637 1.325 . S
N639 C638 1.261 . S
C640 H610 0.931 . S
C640 C637 1.357 . S
C640 C641 1.312 . S
C641 H612 0.930 . S
C641 C636 1.261 . S
C641 C640 1.312 . S
C642 O614 1.214 . S
C642 O622 1.227 1_556 S
C643 H615 0.929 . S
C643 C646 1.391 . S
C643 C648 1.391 . S
C644 H616 0.929 . S
C644 C645 1.394 . S
C644 N647 1.391 1_554 S
C645 H617 0.940 . S
C645 C644 1.394 . S
C645 C646 1.378 1_554 S
C646 H618 0.929 . S
C646 C643 1.391 . S
C646 C645 1.378 1_556 S
N647 Co591 2.257 1_655 S
N647 C644 1.391 1_556 S
N647 C648 1.388 . S
C648 H619 0.930 . S
C648 C643 1.391 . S
C648 N647 1.388 . S
Co649 O651 2.143 . S
Co649 O657 2.074 . S
Co649 O660 2.093 . S
Co649 O673 2.097 . S
Co649 N690 2.151 . S
Co649 N698 2.214 . S
Co650 O651 2.160 . S
Co650 O656 2.058 1_556 S
Co650 O666 2.057 . S
Co650 O681 2.036 1_556 S
Co650 N685 2.145 1_556 S
Co650 N706 2.257 1_545 S
O651 Co649 2.143 . S
O651 Co650 2.160 . S
C652 O653 1.278 . S
C652 O660 1.224 . S
O653 C652 1.278 . S
C654 O655 1.244 . S
C654 O666 1.232 . S
O655 C654 1.244 . S
O656 Co650 2.058 1_554 S
O656 C682 1.268 1_554 S
O657 Co649 2.074 . S
O657 C682 1.257 . S
H658 C683 0.930 . S
H659 C689 0.930 . S
O660 Co649 2.093 . S
O660 C652 1.224 . S
H661 C693 0.929 . S
H662 C695 0.930 . S
H663 C696 0.930 . S
H664 C694 0.929 . S
H665 C697 0.928 . S
O666 Co650 2.057 . S
O666 C654 1.232 . S
H667 C686 0.929 . S
H668 C687 0.929 . S
H669 C699 0.931 . S
H670 C691 0.929 . S
H671 C700 0.930 . S
H672 C692 0.931 . S
O673 Co649 2.097 . S
O673 C701 1.214 . S
H674 C702 0.929 . S
H675 C703 0.929 . S
H676 C704 0.941 . S
H677 C705 0.929 . S
H678 C707 0.930 . S
H679 C684 0.930 . S
H680 C688 0.930 1_565 S
O681 Co650 2.036 1_554 S
O681 C701 1.227 1_554 S
C682 O656 1.268 1_556 S
C682 O657 1.257 . S
C683 H658 0.930 . S
C683 C686 1.388 . S
C683 C688 1.418 . S
C684 H679 0.930 . S
C684 C687 1.404 . S
C684 C688 1.353 1_565 S
N685 Co650 2.145 1_554 S
N685 C686 1.397 . S
N685 C687 1.334 1_545 S
C686 H667 0.929 . S
C686 C683 1.388 . S
C686 N685 1.397 . S
C687 H668 0.929 . S
C687 C684 1.404 . S
C687 N685 1.334 1_565 S
C688 H680 0.930 1_545 S
C688 C683 1.418 . S
C688 C684 1.353 1_545 S
C689 H659 0.930 . S
C689 N690 1.330 . S
C689 C691 1.446 . S
N690 Co649 2.151 . S
N690 C689 1.330 . S
N690 C694 1.418 . S
C691 H670 0.929 . S
C691 C689 1.446 . S
C691 C692 1.332 . S
C692 H672 0.931 . S
C692 C691 1.332 . S
C692 C693 1.267 . S
C693 H661 0.929 . S
C693 C692 1.267 . S
C693 C694 1.251 . S
C694 H664 0.929 . S
C694 N690 1.418 . S
C694 C693 1.251 . S
C695 H662 0.930 . S
C695 C697 1.406 . S
C695 C700 1.261 . S
C696 H663 0.930 . S
C696 N698 1.325 . S
C696 C699 1.357 . S
C697 H665 0.928 . S
C697 C695 1.406 . S
C697 N698 1.261 . S
N698 Co649 2.214 . S
N698 C696 1.325 . S
N698 C697 1.261 . S
C699 H669 0.931 . S
C699 C696 1.357 . S
C699 C700 1.312 . S
C700 H671 0.930 . S
C700 C695 1.261 . S
C700 C699 1.312 . S
C701 O673 1.214 . S
C701 O681 1.227 1_556 S
C702 H674 0.929 . S
C702 C705 1.391 . S
C702 C707 1.391 . S
C703 H675 0.929 . S
C703 C704 1.394 . S
C703 N706 1.391 1_554 S
C704 H676 0.941 . S
C704 C703 1.394 . S
C704 C705 1.378 1_554 S
C705 H677 0.929 . S
C705 C702 1.391 . S
C705 C704 1.378 1_556 S
N706 Co650 2.257 1_565 S
N706 C703 1.391 1_556 S
N706 C707 1.388 . S
C707 H678 0.930 . S
C707 C702 1.391 . S
C707 N706 1.388 . S
Co708 O710 2.143 . S
Co708 O716 2.074 . S
Co708 O719 2.093 . S
Co708 O732 2.097 . S
Co708 N749 2.151 . S
Co708 N757 2.214 . S
Co709 O710 2.160 . S
Co709 O715 2.058 . S
Co709 O725 2.057 . S
Co709 O740 2.037 . S
Co709 N744 2.145 . S
Co709 N765 2.257 . S
O710 Co708 2.143 . S
O710 Co709 2.160 . S
C711 O712 1.278 . S
C711 O719 1.224 . S
O712 C711 1.278 . S
C713 O714 1.245 . S
C713 O725 1.232 . S
O714 C713 1.245 . S
O715 Co709 2.058 . S
O715 C741 1.269 . S
O716 Co708 2.074 . S
O716 C741 1.257 . S
H717 C742 0.930 . S
H718 C748 0.930 . S
O719 Co708 2.093 . S
O719 C711 1.224 . S
H720 C752 0.929 . S
H721 C754 0.930 . S
H722 C755 0.930 . S
H723 C753 0.929 . S
H724 C756 0.928 . S
O725 Co709 2.057 . S
O725 C713 1.232 . S
H726 C745 0.929 . S
H727 C746 0.929 . S
H728 C758 0.931 . S
H729 C750 0.929 . S
H730 C759 0.930 . S
H731 C751 0.931 . S
O732 Co708 2.097 . S
O732 C760 1.214 . S
H733 C761 0.929 . S
H734 C762 0.929 . S
H735 C763 0.930 . S
H736 C764 0.929 . S
H737 C766 0.930 . S
H738 C743 0.930 . S
H739 C747 0.930 . S
O740 Co709 2.037 . S
O740 C760 1.234 . S
C741 O715 1.269 . S
C741 O716 1.257 . S
C742 H717 0.930 . S
C742 C745 1.388 . S
C742 C747 1.418 . S
C743 H738 0.930 . S
C743 C746 1.404 . S
C743 C747 1.353 . S
N744 Co709 2.145 . S
N744 C745 1.397 . S
N744 C746 1.334 . S
C745 H726 0.929 . S
C745 C742 1.388 . S
C745 N744 1.397 . S
C746 H727 0.929 . S
C746 C743 1.404 . S
C746 N744 1.334 . S
C747 H739 0.930 . S
C747 C742 1.418 . S
C747 C743 1.353 . S
C748 H718 0.930 . S
C748 N749 1.330 . S
C748 C750 1.446 . S
N749 Co708 2.151 . S
N749 C748 1.330 . S
N749 C753 1.418 . S
C750 H729 0.929 . S
C750 C748 1.446 . S
C750 C751 1.332 . S
C751 H731 0.931 . S
C751 C750 1.332 . S
C751 C752 1.267 . S
C752 H720 0.929 . S
C752 C751 1.267 . S
C752 C753 1.251 . S
C753 H723 0.929 . S
C753 N749 1.418 . S
C753 C752 1.251 . S
C754 H721 0.930 . S
C754 C756 1.406 . S
C754 C759 1.261 . S
C755 H722 0.930 . S
C755 N757 1.325 . S
C755 C758 1.357 . S
C756 H724 0.928 . S
C756 C754 1.406 . S
C756 N757 1.261 . S
N757 Co708 2.214 . S
N757 C755 1.325 . S
N757 C756 1.261 . S
C758 H728 0.931 . S
C758 C755 1.357 . S
C758 C759 1.312 . S
C759 H730 0.930 . S
C759 C754 1.261 . S
C759 C758 1.312 . S
C760 O732 1.214 . S
C760 O740 1.234 . S
C761 H733 0.929 . S
C761 C764 1.391 . S
C761 C766 1.391 . S
C762 H734 0.929 . S
C762 C763 1.390 . S
C762 N765 1.391 . S
C763 H735 0.930 . S
C763 C762 1.390 . S
C763 C764 1.392 . S
C764 H736 0.929 . S
C764 C761 1.391 . S
C764 C763 1.392 . S
N765 Co709 2.257 . S
N765 C762 1.391 . S
N765 C766 1.388 . S
C766 H737 0.930 . S
C766 C761 1.391 . S
C766 N765 1.388 . S
Co767 O769 2.143 . S
Co767 O775 2.074 . S
Co767 O778 2.093 . S
Co767 O791 2.097 . S
Co767 N808 2.151 . S
Co767 N816 2.214 . S
Co768 O769 2.160 . S
Co768 O774 2.058 . S
Co768 O784 2.057 . S
Co768 O799 2.037 . S
Co768 N803 2.145 . S
Co768 N824 2.257 . S
O769 Co767 2.143 . S
O769 Co768 2.160 . S
C770 O771 1.278 . S
C770 O778 1.224 . S
O771 C770 1.278 . S
C772 O773 1.245 . S
C772 O784 1.232 . S
O773 C772 1.245 . S
O774 Co768 2.058 . S
O774 C800 1.269 . S
O775 Co767 2.074 . S
O775 C800 1.257 . S
H776 C801 0.930 . S
H777 C807 0.930 . S
O778 Co767 2.093 . S
O778 C770 1.224 . S
H779 C811 0.929 . S
H780 C813 0.930 . S
H781 C814 0.930 . S
H782 C812 0.929 . S
H783 C815 0.928 . S
O784 Co768 2.057 . S
O784 C772 1.232 . S
H785 C804 0.929 . S
H786 C805 0.929 . S
H787 C817 0.931 . S
H788 C809 0.929 . S
H789 C818 0.930 . S
H790 C810 0.931 . S
O791 Co767 2.097 . S
O791 C819 1.214 . S
H792 C820 0.929 . S
H793 C821 0.929 . S
H794 C822 0.930 . S
H795 C823 0.929 . S
H796 C825 0.930 . S
H797 C802 0.930 . S
H798 C806 0.930 . S
O799 Co768 2.037 . S
O799 C819 1.234 . S
C800 O774 1.269 . S
C800 O775 1.257 . S
C801 H776 0.930 . S
C801 C804 1.388 . S
C801 C806 1.418 . S
C802 H797 0.930 . S
C802 C805 1.404 . S
C802 C806 1.353 . S
N803 Co768 2.145 . S
N803 C804 1.397 . S
N803 C805 1.334 . S
C804 H785 0.929 . S
C804 C801 1.388 . S
C804 N803 1.397 . S
C805 H786 0.929 . S
C805 C802 1.404 . S
C805 N803 1.334 . S
C806 H798 0.930 . S
C806 C801 1.418 . S
C806 C802 1.353 . S
C807 H777 0.930 . S
C807 N808 1.330 . S
C807 C809 1.446 . S
N808 Co767 2.151 . S
N808 C807 1.330 . S
N808 C812 1.418 . S
C809 H788 0.929 . S
C809 C807 1.446 . S
C809 C810 1.332 . S
C810 H790 0.931 . S
C810 C809 1.332 . S
C810 C811 1.267 . S
C811 H779 0.929 . S
C811 C810 1.267 . S
C811 C812 1.251 . S
C812 H782 0.929 . S
C812 N808 1.418 . S
C812 C811 1.251 . S
C813 H780 0.930 . S
C813 C815 1.406 . S
C813 C818 1.261 . S
C814 H781 0.930 . S
C814 N816 1.325 . S
C814 C817 1.357 . S
C815 H783 0.928 . S
C815 C813 1.406 . S
C815 N816 1.261 . S
N816 Co767 2.214 . S
N816 C814 1.325 . S
N816 C815 1.261 . S
C817 H787 0.931 . S
C817 C814 1.357 . S
C817 C818 1.312 . S
C818 H789 0.930 . S
C818 C813 1.261 . S
C818 C817 1.312 . S
C819 O791 1.214 . S
C819 O799 1.234 . S
C820 H792 0.929 . S
C820 C823 1.391 . S
C820 C825 1.391 . S
C821 H793 0.929 . S
C821 C822 1.390 . S
C821 N824 1.391 . S
C822 H794 0.930 . S
C822 C821 1.390 . S
C822 C823 1.392 . S
C823 H795 0.929 . S
C823 C820 1.391 . S
C823 C822 1.392 . S
N824 Co768 2.257 . S
N824 C821 1.391 . S
N824 C825 1.388 . S
C825 H796 0.930 . S
C825 C820 1.391 . S
C825 N824 1.388 . S
Co826 O828 2.143 . S
Co826 O834 2.074 . S
Co826 O837 2.093 . S
Co826 O850 2.097 . S
Co826 N867 2.151 . S
Co826 N875 2.214 . S
Co827 O828 2.160 . S
Co827 O833 2.058 . S
Co827 O843 2.057 . S
Co827 O858 2.037 . S
Co827 N862 2.145 . S
Co827 N883 2.257 1_455 S
O828 Co826 2.143 . S
O828 Co827 2.160 . S
C829 O830 1.278 . S
C829 O837 1.224 . S
O830 C829 1.278 . S
C831 O832 1.244 . S
C831 O843 1.232 . S
O832 C831 1.244 . S
O833 Co827 2.058 . S
O833 C859 1.269 . S
O834 Co826 2.074 . S
O834 C859 1.257 . S
H835 C860 0.930 . S
H836 C866 0.930 . S
O837 Co826 2.093 . S
O837 C829 1.224 . S
H838 C870 0.929 . S
H839 C872 0.930 . S
H840 C873 0.930 . S
H841 C871 0.929 . S
H842 C874 0.928 . S
O843 Co827 2.057 . S
O843 C831 1.232 . S
H844 C863 0.929 . S
H845 C864 0.929 . S
H846 C876 0.931 . S
H847 C868 0.929 . S
H848 C877 0.930 . S
H849 C869 0.931 . S
O850 Co826 2.097 . S
O850 C878 1.214 . S
H851 C879 0.929 . S
H852 C880 0.929 . S
H853 C881 0.930 . S
H854 C882 0.929 . S
H855 C884 0.930 . S
H856 C861 0.930 . S
H857 C865 0.930 1_655 S
O858 Co827 2.037 . S
O858 C878 1.234 . S
C859 O833 1.269 . S
C859 O834 1.257 . S
C860 H835 0.930 . S
C860 C863 1.388 . S
C860 C865 1.418 . S
C861 H856 0.930 . S
C861 C864 1.404 . S
C861 C865 1.353 1_655 S
N862 Co827 2.145 . S
N862 C863 1.397 . S
N862 C864 1.334 1_455 S
C863 H844 0.929 . S
C863 C860 1.388 . S
C863 N862 1.397 . S
C864 H845 0.929 . S
C864 C861 1.404 . S
C864 N862 1.334 1_655 S
C865 H857 0.930 1_455 S
C865 C860 1.418 . S
C865 C861 1.353 1_455 S
C866 H836 0.930 . S
C866 N867 1.330 . S
C866 C868 1.446 . S
N867 Co826 2.151 . S
N867 C866 1.330 . S
N867 C871 1.418 . S
C868 H847 0.929 . S
C868 C866 1.446 . S
C868 C869 1.332 . S
C869 H849 0.931 . S
C869 C868 1.332 . S
C869 C870 1.267 . S
C870 H838 0.929 . S
C870 C869 1.267 . S
C870 C871 1.251 . S
C871 H841 0.929 . S
C871 N867 1.418 . S
C871 C870 1.251 . S
C872 H839 0.930 . S
C872 C874 1.406 . S
C872 C877 1.261 . S
C873 H840 0.930 . S
C873 N875 1.325 . S
C873 C876 1.357 . S
C874 H842 0.928 . S
C874 C872 1.406 . S
C874 N875 1.261 . S
N875 Co826 2.214 . S
N875 C873 1.325 . S
N875 C874 1.261 . S
C876 H846 0.931 . S
C876 C873 1.357 . S
C876 C877 1.312 . S
C877 H848 0.930 . S
C877 C872 1.261 . S
C877 C876 1.312 . S
C878 O850 1.214 . S
C878 O858 1.234 . S
C879 H851 0.929 . S
C879 C882 1.391 . S
C879 C884 1.391 . S
C880 H852 0.929 . S
C880 C881 1.390 . S
C880 N883 1.391 . S
C881 H853 0.930 . S
C881 C880 1.390 . S
C881 C882 1.392 . S
C882 H854 0.929 . S
C882 C879 1.391 . S
C882 C881 1.392 . S
N883 Co827 2.257 1_655 S
N883 C880 1.391 . S
N883 C884 1.388 . S
C884 H855 0.930 . S
C884 C879 1.391 . S
C884 N883 1.388 . S
Co885 O887 2.143 . S
Co885 O893 2.074 . S
Co885 O896 2.093 . S
Co885 O909 2.097 . S
Co885 N926 2.151 . S
Co885 N934 2.214 . S
Co886 O887 2.160 . S
Co886 O892 2.058 . S
Co886 O902 2.057 . S
Co886 O917 2.037 . S
Co886 N921 2.145 . S
Co886 N942 2.257 1_545 S
O887 Co885 2.143 . S
O887 Co886 2.160 . S
C888 O889 1.278 . S
C888 O896 1.224 . S
O889 C888 1.278 . S
C890 O891 1.244 . S
C890 O902 1.232 . S
O891 C890 1.244 . S
O892 Co886 2.058 . S
O892 C918 1.269 . S
O893 Co885 2.074 . S
O893 C918 1.257 . S
H894 C919 0.930 . S
H895 C925 0.930 . S
O896 Co885 2.093 . S
O896 C888 1.224 . S
H897 C929 0.929 . S
H898 C931 0.930 . S
H899 C932 0.930 . S
H900 C930 0.929 . S
H901 C933 0.928 . S
O902 Co886 2.057 . S
O902 C890 1.232 . S
H903 C922 0.929 . S
H904 C923 0.929 . S
H905 C935 0.931 . S
H906 C927 0.929 . S
H907 C936 0.930 . S
H908 C928 0.931 . S
O909 Co885 2.097 . S
O909 C937 1.214 . S
H910 C938 0.929 . S
H911 C939 0.929 . S
H912 C940 0.930 . S
H913 C941 0.929 . S
H914 C943 0.930 . S
H915 C920 0.930 . S
H916 C924 0.930 1_565 S
O917 Co886 2.037 . S
O917 C937 1.234 . S
C918 O892 1.269 . S
C918 O893 1.257 . S
C919 H894 0.930 . S
C919 C922 1.388 . S
C919 C924 1.418 . S
C920 H915 0.930 . S
C920 C923 1.404 . S
C920 C924 1.353 1_565 S
N921 Co886 2.145 . S
N921 C922 1.397 . S
N921 C923 1.334 1_545 S
C922 H903 0.929 . S
C922 C919 1.388 . S
C922 N921 1.397 . S
C923 H904 0.929 . S
C923 C920 1.404 . S
C923 N921 1.334 1_565 S
C924 H916 0.930 1_545 S
C924 C919 1.418 . S
C924 C920 1.353 1_545 S
C925 H895 0.930 . S
C925 N926 1.330 . S
C925 C927 1.446 . S
N926 Co885 2.151 . S
N926 C925 1.330 . S
N926 C930 1.418 . S
C927 H906 0.929 . S
C927 C925 1.446 . S
C927 C928 1.332 . S
C928 H908 0.931 . S
C928 C927 1.332 . S
C928 C929 1.267 . S
C929 H897 0.929 . S
C929 C928 1.267 . S
C929 C930 1.251 . S
C930 H900 0.929 . S
C930 N926 1.418 . S
C930 C929 1.251 . S
C931 H898 0.930 . S
C931 C933 1.406 . S
C931 C936 1.261 . S
C932 H899 0.930 . S
C932 N934 1.325 . S
C932 C935 1.357 . S
C933 H901 0.928 . S
C933 C931 1.406 . S
C933 N934 1.261 . S
N934 Co885 2.214 . S
N934 C932 1.325 . S
N934 C933 1.261 . S
C935 H905 0.931 . S
C935 C932 1.357 . S
C935 C936 1.312 . S
C936 H907 0.930 . S
C936 C931 1.261 . S
C936 C935 1.312 . S
C937 O909 1.214 . S
C937 O917 1.234 . S
C938 H910 0.929 . S
C938 C941 1.391 . S
C938 C943 1.391 . S
C939 H911 0.929 . S
C939 C940 1.390 . S
C939 N942 1.391 . S
C940 H912 0.930 . S
C940 C939 1.390 . S
C940 C941 1.392 . S
C941 H913 0.929 . S
C941 C938 1.391 . S
C941 C940 1.392 . S
N942 Co886 2.257 1_565 S
N942 C939 1.391 . S
N942 C943 1.388 . S
C943 H914 0.930 . S
C943 C938 1.391 . S
C943 N942 1.388 . S
C944 C945 1.387 . S
C944 H948 0.950 . S
C944 C953 1.390 . S
C945 C944 1.387 . S
C945 C947 1.387 1_554 S
H946 C953 0.950 . S
C947 C945 1.387 1_556 S
C947 C949 1.390 . S
C947 H951 0.950 . S
H948 C944 0.950 . S
C949 C947 1.390 . S
C949 C950 1.387 . S
C949 H952 0.950 . S
C950 C949 1.387 . S
C950 C953 1.387 1_556 S
H951 C947 0.950 . S
H952 C949 0.950 . S
C953 C944 1.390 . S
C953 H946 0.950 . S
C953 C950 1.387 1_554 S
C954 C955 1.387 1_554 S
C954 H958 0.950 . S
C954 C963 1.390 . S
C955 C954 1.387 1_556 S
C955 C957 1.387 . S
H956 C963 0.950 . S
C957 C955 1.387 . S
C957 C959 1.390 . S
C957 H961 0.950 . S
H958 C954 0.950 . S
C959 C957 1.390 . S
C959 C960 1.387 1_556 S
C959 H962 0.950 . S
C960 C959 1.387 1_554 S
C960 C963 1.387 . S
H961 C957 0.950 . S
H962 C959 0.950 . S
C963 C954 1.390 . S
C963 H956 0.950 . S
C963 C960 1.387 . S
C964 C965 1.387 1_554 S
C964 H968 0.950 . S
C964 C973 1.390 . S
C965 C964 1.387 1_556 S
C965 C967 1.387 . S
H966 C973 0.950 . S
C967 C965 1.387 . S
C967 C969 1.390 . S
C967 H971 0.950 . S
H968 C964 0.950 . S
C969 C967 1.390 . S
C969 C970 1.387 1_556 S
C969 H972 0.950 . S
C970 C969 1.387 1_554 S
C970 C973 1.387 . S
H971 C967 0.950 . S
H972 C969 0.950 . S
C973 C964 1.390 . S
C973 H966 0.950 . S
C973 C970 1.387 . S
C974 C975 1.387 . S
C974 H978 0.950 . S
C974 C983 1.390 . S
C975 C974 1.387 . S
C975 C977 1.387 1_556 S
H976 C983 0.950 . S
C977 C975 1.387 1_554 S
C977 C979 1.390 . S
C977 H981 0.950 . S
H978 C974 0.950 . S
C979 C977 1.390 . S
C979 C980 1.387 . S
C979 H982 0.950 . S
C980 C979 1.387 . S
C980 C983 1.387 1_554 S
H981 C977 0.950 . S
H982 C979 0.950 . S
C983 C974 1.390 . S
C983 H976 0.950 . S
C983 C980 1.387 1_556 S
C984 C985 1.387 . S
C984 H988 0.950 . S
C984 C993 1.390 . S
C985 C984 1.387 . S
C985 C987 1.387 . S
H986 C993 0.950 . S
C987 C985 1.387 . S
C987 C989 1.390 . S
C987 H991 0.950 . S
H988 C984 0.950 . S
C989 C987 1.390 . S
C989 C990 1.387 . S
C989 H992 0.950 . S
C990 C989 1.387 . S
C990 C993 1.387 . S
H991 C987 0.950 . S
H992 C989 0.950 . S
C993 C984 1.390 . S
C993 H986 0.950 . S
C993 C990 1.387 . S
C994 C995 1.387 . S
C994 H998 0.950 . S
C994 C1003 1.390 . S
C995 C994 1.387 . S
C995 C997 1.387 . S
H996 C1003 0.950 . S
C997 C995 1.387 . S
C997 C999 1.390 . S
C997 H1001 0.950 . S
H998 C994 0.950 . S
C999 C997 1.390 . S
C999 C1000 1.387 . S
C999 H1002 0.950 . S
C1000 C999 1.387 . S
C1000 C1003 1.387 . S
H1001 C997 0.950 . S
H1002 C999 0.950 . S
C1003 C994 1.390 . S
C1003 H996 0.950 . S
C1003 C1000 1.387 . S
C1004 C1005 1.387 . S
C1004 H1008 0.950 . S
C1004 C1013 1.390 . S
C1005 C1004 1.387 . S
C1005 C1007 1.387 . S
H1006 C1013 0.950 . S
C1007 C1005 1.387 . S
C1007 C1009 1.390 . S
C1007 H1011 0.950 . S
H1008 C1004 0.950 . S
C1009 C1007 1.390 . S
C1009 C1010 1.387 . S
C1009 H1012 0.950 . S
C1010 C1009 1.387 . S
C1010 C1013 1.387 . S
H1011 C1007 0.950 . S
H1012 C1009 0.950 . S
C1013 C1004 1.390 . S
C1013 H1006 0.950 . S
C1013 C1010 1.387 . S
C1014 C1015 1.387 . S
C1014 H1018 0.950 . S
C1014 C1023 1.390 . S
C1015 C1014 1.387 . S
C1015 C1017 1.387 . S
H1016 C1023 0.950 . S
C1017 C1015 1.387 . S
C1017 C1019 1.390 . S
C1017 H1021 0.950 . S
H1018 C1014 0.950 . S
C1019 C1017 1.390 . S
C1019 C1020 1.387 . S
C1019 H1022 0.950 . S
C1020 C1019 1.387 . S
C1020 C1023 1.387 . S
H1021 C1017 0.950 . S
H1022 C1019 0.950 . S
C1023 C1014 1.390 . S
C1023 H1016 0.950 . S
C1023 C1020 1.387 . S
C1024 C1025 1.387 1_554 S
C1024 H1028 0.950 . S
C1024 C1033 1.390 . S
C1025 C1024 1.387 1_556 S
C1025 C1027 1.387 . S
H1026 C1033 0.950 . S
C1027 C1025 1.387 . S
C1027 C1029 1.390 . S
C1027 H1031 0.950 . S
H1028 C1024 0.950 . S
C1029 C1027 1.390 . S
C1029 C1030 1.387 1_556 S
C1029 H1032 0.950 . S
C1030 C1029 1.387 1_554 S
C1030 C1033 1.387 . S
H1031 C1027 0.950 . S
H1032 C1029 0.950 . S
C1033 C1024 1.390 . S
C1033 H1026 0.950 . S
C1033 C1030 1.387 . S
C1034 C1035 1.387 1_554 S
C1034 H1038 0.950 . S
C1034 C1043 1.390 . S
C1035 C1034 1.387 1_556 S
C1035 C1037 1.387 . S
H1036 C1043 0.950 . S
C1037 C1035 1.387 . S
C1037 C1039 1.390 . S
C1037 H1041 0.950 . S
H1038 C1034 0.950 . S
C1039 C1037 1.390 . S
C1039 C1040 1.387 1_556 S
C1039 H1042 0.950 . S
C1040 C1039 1.387 1_554 S
C1040 C1043 1.387 . S
H1041 C1037 0.950 . S
H1042 C1039 0.950 . S
C1043 C1034 1.390 . S
C1043 H1036 0.950 . S
C1043 C1040 1.387 . S
C1044 C1045 1.387 1_554 S
C1044 H1048 0.950 . S
C1044 C1053 1.390 . S
C1045 C1044 1.387 1_556 S
C1045 C1047 1.387 . S
H1046 C1053 0.950 . S
C1047 C1045 1.387 . S
C1047 C1049 1.390 . S
C1047 H1051 0.950 . S
H1048 C1044 0.950 . S
C1049 C1047 1.390 . S
C1049 C1050 1.387 1_556 S
C1049 H1052 0.950 . S
C1050 C1049 1.387 1_554 S
C1050 C1053 1.387 . S
H1051 C1047 0.950 . S
H1052 C1049 0.950 . S
C1053 C1044 1.390 . S
C1053 H1046 0.950 . S
C1053 C1050 1.387 . S
C1054 C1055 1.387 . S
C1054 H1058 0.950 . S
C1054 C1063 1.390 . S
C1055 C1054 1.387 . S
C1055 C1057 1.387 1_554 S
H1056 C1063 0.950 . S
C1057 C1055 1.387 1_556 S
C1057 C1059 1.390 . S
C1057 H1061 0.950 . S
H1058 C1054 0.950 . S
C1059 C1057 1.390 . S
C1059 C1060 1.387 . S
C1059 H1062 0.950 . S
C1060 C1059 1.387 . S
C1060 C1063 1.387 1_556 S
H1061 C1057 0.950 . S
H1062 C1059 0.950 . S
C1063 C1054 1.390 . S
C1063 H1056 0.950 . S
C1063 C1060 1.387 1_554 S
C1064 C1065 1.387 . S
C1064 H1068 0.950 . S
C1064 C1073 1.390 . S
C1065 C1064 1.387 . S
C1065 C1067 1.387 . S
H1066 C1073 0.950 . S
C1067 C1065 1.387 . S
C1067 C1069 1.390 . S
C1067 H1071 0.950 . S
H1068 C1064 0.950 . S
C1069 C1067 1.390 . S
C1069 C1070 1.387 . S
C1069 H1072 0.950 . S
C1070 C1069 1.387 . S
C1070 C1073 1.387 . S
H1071 C1067 0.950 . S
H1072 C1069 0.950 . S
C1073 C1064 1.390 . S
C1073 H1066 0.950 . S
C1073 C1070 1.387 . S
C1074 C1075 1.387 . S
C1074 H1078 0.950 . S
C1074 C1083 1.390 . S
C1075 C1074 1.387 . S
C1075 C1077 1.387 . S
H1076 C1083 0.950 . S
C1077 C1075 1.387 . S
C1077 C1079 1.390 . S
C1077 H1081 0.950 . S
H1078 C1074 0.950 . S
C1079 C1077 1.390 . S
C1079 C1080 1.387 . S
C1079 H1082 0.950 . S
C1080 C1079 1.387 . S
C1080 C1083 1.387 . S
H1081 C1077 0.950 . S
H1082 C1079 0.950 . S
C1083 C1074 1.390 . S
C1083 H1076 0.950 . S
C1083 C1080 1.387 . S
C1084 C1085 1.387 . S
C1084 H1088 0.950 . S
C1084 C1093 1.390 . S
C1085 C1084 1.387 . S
C1085 C1087 1.387 . S
H1086 C1093 0.950 . S
C1087 C1085 1.387 . S
C1087 C1089 1.390 . S
C1087 H1091 0.950 . S
H1088 C1084 0.950 . S
C1089 C1087 1.390 . S
C1089 C1090 1.387 . S
C1089 H1092 0.950 . S
C1090 C1089 1.387 . S
C1090 C1093 1.387 . S
H1091 C1087 0.950 . S
H1092 C1089 0.950 . S
C1093 C1084 1.390 . S
C1093 H1086 0.950 . S
C1093 C1090 1.387 . S
C1094 C1095 1.387 . S
C1094 H1098 0.950 . S
C1094 C1103 1.390 . S
C1095 C1094 1.387 . S
C1095 C1097 1.387 . S
H1096 C1103 0.950 . S
C1097 C1095 1.387 . S
C1097 C1099 1.390 . S
C1097 H1101 0.950 . S
H1098 C1094 0.950 . S
C1099 C1097 1.390 . S
C1099 C1100 1.387 . S
C1099 H1102 0.950 . S
C1100 C1099 1.387 . S
C1100 C1103 1.387 . S
H1101 C1097 0.950 . S
H1102 C1099 0.950 . S
C1103 C1094 1.390 . S
C1103 H1096 0.950 . S
C1103 C1100 1.387 . S
C1104 C1105 1.387 1_554 S
C1104 H1108 0.950 . S
C1104 C1113 1.390 1_565 S
C1105 C1104 1.387 1_556 S
C1105 C1107 1.387 . S
H1106 C1113 0.950 . S
C1107 C1105 1.387 . S
C1107 C1109 1.390 1_565 S
C1107 H1111 0.950 . S
H1108 C1104 0.950 . S
C1109 C1107 1.390 1_545 S
C1109 C1110 1.387 1_556 S
C1109 H1112 0.950 . S
C1110 C1109 1.387 1_554 S
C1110 C1113 1.387 . S
H1111 C1107 0.950 . S
H1112 C1109 0.950 . S
C1113 C1104 1.390 1_545 S
C1113 H1106 0.950 . S
C1113 C1110 1.387 . S
C1114 C1115 1.392 . S
C1114 H1118 0.950 . S
C1114 C1123 1.385 1_554 S
C1115 C1114 1.392 . S
C1115 C1117 1.387 . S
H1116 C1123 0.950 . S
C1117 C1115 1.387 . S
C1117 C1119 1.385 1_554 S
C1117 H1121 0.950 . S
H1118 C1114 0.950 . S
C1119 C1117 1.385 1_556 S
C1119 C1120 1.392 . S
C1119 H1122 0.950 . S
C1120 C1119 1.392 . S
C1120 C1123 1.387 . S
H1121 C1117 0.950 . S
H1122 C1119 0.950 . S
C1123 C1114 1.385 1_556 S
C1123 H1116 0.950 . S
C1123 C1120 1.387 . S
C1124 C1125 1.387 1_455 S
C1124 H1128 0.950 . S
C1124 C1133 1.390 1_556 S
C1125 C1124 1.387 1_655 S
C1125 C1127 1.387 . S
H1126 C1133 0.950 . S
C1127 C1125 1.387 . S
C1127 C1129 1.390 1_556 S
C1127 H1131 0.950 . S
H1128 C1124 0.950 . S
C1129 C1127 1.390 1_554 S
C1129 C1130 1.387 1_655 S
C1129 H1132 0.950 . S
C1130 C1129 1.387 1_455 S
C1130 C1133 1.387 . S
H1131 C1127 0.950 . S
H1132 C1129 0.950 . S
C1133 C1124 1.390 1_554 S
C1133 H1126 0.950 . S
C1133 C1130 1.387 . S
C1134 C1135 1.387 1_565 S
C1134 H1138 0.950 . S
C1134 C1143 1.390 1_454 S
C1135 C1134 1.387 1_545 S
C1135 C1137 1.387 . S
H1136 C1143 0.950 . S
C1137 C1135 1.387 . S
C1137 C1139 1.390 1_454 S
C1137 H1141 0.950 . S
H1138 C1134 0.950 . S
C1139 C1137 1.390 1_656 S
C1139 C1140 1.387 1_545 S
C1139 H1142 0.950 . S
C1140 C1139 1.387 1_565 S
C1140 C1143 1.387 . S
H1141 C1137 0.950 . S
H1142 C1139 0.950 . S
C1143 C1134 1.390 1_656 S
C1143 H1136 0.950 . S
C1143 C1140 1.387 . S
C1144 C1145 1.387 . S
C1144 H1148 0.950 . S
C1144 C1153 1.390 . S
C1145 C1144 1.387 . S
C1145 C1147 1.387 . S
H1146 C1153 0.950 . S
C1147 C1145 1.387 . S
C1147 C1149 1.390 . S
C1147 H1151 0.950 . S
H1148 C1144 0.950 . S
C1149 C1147 1.390 . S
C1149 C1150 1.387 . S
C1149 H1152 0.950 . S
C1150 C1149 1.387 . S
C1150 C1153 1.387 . S
H1151 C1147 0.950 . S
H1152 C1149 0.950 . S
C1153 C1144 1.390 . S
C1153 H1146 0.950 . S
C1153 C1150 1.387 . S
C1154 C1155 1.387 . S
C1154 H1158 0.950 . S
C1154 C1163 1.390 1_455 S
C1155 C1154 1.387 . S
C1155 C1157 1.387 . S
H1156 C1163 0.950 . S
C1157 C1155 1.387 . S
C1157 C1159 1.390 1_455 S
C1157 H1161 0.950 . S
H1158 C1154 0.950 . S
C1159 C1157 1.390 1_655 S
C1159 C1160 1.387 . S
C1159 H1162 0.950 . S
C1160 C1159 1.387 . S
C1160 C1163 1.387 . S
H1161 C1157 0.950 . S
H1162 C1159 0.950 . S
C1163 C1154 1.390 1_655 S
C1163 H1156 0.950 . S
C1163 C1160 1.387 . S
C1164 C1165 1.387 1_455 S
C1164 H1168 0.950 . S
C1164 C1173 1.390 1_565 S
C1165 C1164 1.387 1_655 S
C1165 C1167 1.387 . S
H1166 C1173 0.950 . S
C1167 C1165 1.387 . S
C1167 C1169 1.390 1_565 S
C1167 H1171 0.950 . S
H1168 C1164 0.950 . S
C1169 C1167 1.390 1_545 S
C1169 C1170 1.387 1_655 S
C1169 H1172 0.950 . S
C1170 C1169 1.387 1_455 S
C1170 C1173 1.387 . S
H1171 C1167 0.950 . S
H1172 C1169 0.950 . S
C1173 C1164 1.390 1_545 S
C1173 H1166 0.950 . S
C1173 C1170 1.387 . S
C1174 C1175 1.387 . S
C1174 H1178 0.950 . S
C1174 C1183 1.390 . S
C1175 C1174 1.387 . S
C1175 C1177 1.387 1_565 S
H1176 C1183 0.950 . S
C1177 C1175 1.387 1_545 S
C1177 C1179 1.390 . S
C1177 H1181 0.950 . S
H1178 C1174 0.950 . S
C1179 C1177 1.390 . S
C1179 C1180 1.387 . S
C1179 H1182 0.950 . S
C1180 C1179 1.387 . S
C1180 C1183 1.387 1_545 S
H1181 C1177 0.950 . S
H1182 C1179 0.950 . S
C1183 C1174 1.390 . S
C1183 H1176 0.950 . S
C1183 C1180 1.387 1_565 S
C1184 C1185 1.387 . S
C1184 H1188 0.950 . S
C1184 C1193 1.390 . S
C1185 C1184 1.387 . S
C1185 C1187 1.387 . S
H1186 C1193 0.950 . S
C1187 C1185 1.387 . S
C1187 C1189 1.390 . S
C1187 H1191 0.950 . S
H1188 C1184 0.950 . S
C1189 C1187 1.390 . S
C1189 C1190 1.387 . S
C1189 H1192 0.950 . S
C1190 C1189 1.387 . S
C1190 C1193 1.387 . S
H1191 C1187 0.950 . S
H1192 C1189 0.950 . S
C1193 C1184 1.390 . S
C1193 H1186 0.950 . S
C1193 C1190 1.387 . S
C1194 C1195 1.387 . S
C1194 H1198 0.950 . S
C1194 C1203 1.390 . S
C1195 C1194 1.387 . S
C1195 C1197 1.387 . S
H1196 C1203 0.950 . S
C1197 C1195 1.387 . S
C1197 C1199 1.390 . S
C1197 H1201 0.950 . S
H1198 C1194 0.950 . S
C1199 C1197 1.390 . S
C1199 C1200 1.387 . S
C1199 H1202 0.950 . S
C1200 C1199 1.387 . S
C1200 C1203 1.387 . S
H1201 C1197 0.950 . S
H1202 C1199 0.950 . S
C1203 C1194 1.390 . S
C1203 H1196 0.950 . S
C1203 C1200 1.387 . S
C1204 C1205 1.387 1_455 S
C1204 H1208 0.950 . S
C1204 C1213 1.390 . S
C1205 C1204 1.387 1_655 S
C1205 C1207 1.387 . S
H1206 C1213 0.950 . S
C1207 C1205 1.387 . S
C1207 C1209 1.390 . S
C1207 H1211 0.950 . S
H1208 C1204 0.950 . S
C1209 C1207 1.390 . S
C1209 C1210 1.387 . S
C1209 H1212 0.950 . S
C1210 C1209 1.387 . S
C1210 C1213 1.387 1_655 S
H1211 C1207 0.950 . S
H1212 C1209 0.950 . S
C1213 C1204 1.390 . S
C1213 H1206 0.950 . S
C1213 C1210 1.387 1_455 S
C1214 C1215 1.387 1_545 S
C1214 H1218 0.950 . S
C1214 C1223 1.390 . S
C1215 C1214 1.387 1_565 S
C1215 C1217 1.387 . S
H1216 C1223 0.950 . S
C1217 C1215 1.387 . S
C1217 C1219 1.390 . S
C1217 H1221 0.950 . S
H1218 C1214 0.950 . S
C1219 C1217 1.390 . S
C1219 C1220 1.387 . S
C1219 H1222 0.950 . S
C1220 C1219 1.387 . S
C1220 C1223 1.387 1_565 S
H1221 C1217 0.950 . S
H1222 C1219 0.950 . S
C1223 C1214 1.390 . S
C1223 H1216 0.950 . S
C1223 C1220 1.387 1_545 S
C1224 C1225 1.387 . S
C1224 H1228 0.950 . S
C1224 C1233 1.390 . S
C1225 C1224 1.387 . S
C1225 C1227 1.387 . S
H1226 C1233 0.950 . S
C1227 C1225 1.387 . S
C1227 C1229 1.390 . S
C1227 H1231 0.950 . S
H1228 C1224 0.950 . S
C1229 C1227 1.390 . S
C1229 C1230 1.387 . S
C1229 H1232 0.950 . S
C1230 C1229 1.387 . S
C1230 C1233 1.387 . S
H1231 C1227 0.950 . S
H1232 C1229 0.950 . S
C1233 C1224 1.390 . S
C1233 H1226 0.950 . S
C1233 C1230 1.387 . S
C1234 C1235 1.387 . S
C1234 H1238 0.950 . S
C1234 C1243 1.390 . S
C1235 C1234 1.387 . S
C1235 C1237 1.387 . S
H1236 C1243 0.950 . S
C1237 C1235 1.387 . S
C1237 C1239 1.390 . S
C1237 H1241 0.950 . S
H1238 C1234 0.950 . S
C1239 C1237 1.390 . S
C1239 C1240 1.387 . S
C1239 H1242 0.950 . S
C1240 C1239 1.387 . S
C1240 C1243 1.387 . S
H1241 C1237 0.950 . S
H1242 C1239 0.950 . S
C1243 C1234 1.390 . S
C1243 H1236 0.950 . S
C1243 C1240 1.387 . S
C1244 C1245 1.387 1_655 S
C1244 H1248 0.950 . S
C1244 C1253 1.390 . S
C1245 C1244 1.387 1_455 S
C1245 C1247 1.387 . S
H1246 C1253 0.950 . S
C1247 C1245 1.387 . S
C1247 C1249 1.390 . S
C1247 H1251 0.950 . S
H1248 C1244 0.950 . S
C1249 C1247 1.390 . S
C1249 C1250 1.387 . S
C1249 H1252 0.950 . S
C1250 C1249 1.387 . S
C1250 C1253 1.387 1_455 S
H1251 C1247 0.950 . S
H1252 C1249 0.950 . S
C1253 C1244 1.390 . S
C1253 H1246 0.950 . S
C1253 C1250 1.387 1_655 S
C1254 C1255 1.387 . S
C1254 H1258 0.950 . S
C1254 C1263 1.390 . S
C1255 C1254 1.387 . S
C1255 C1257 1.387 1_545 S
H1256 C1263 0.950 . S
C1257 C1255 1.387 1_565 S
C1257 C1259 1.390 . S
C1257 H1261 0.950 . S
H1258 C1254 0.950 . S
C1259 C1257 1.390 . S
C1259 C1260 1.387 1_565 S
C1259 H1262 0.950 . S
C1260 C1259 1.387 1_545 S
C1260 C1263 1.387 . S
H1261 C1257 0.950 . S
H1262 C1259 0.950 . S
C1263 C1254 1.390 . S
C1263 H1256 0.950 . S
C1263 C1260 1.387 . S
C945 C52 1.157 . S
C950 C564 1.170 . S
C955 C623 1.169 . S
C960 C111 1.157 . S
C965 C682 1.170 . S
C970 C170 1.158 . S
C975 C505 1.169 . S
C980 C229 1.156 . S
C985 C288 1.158 . S
C990 C918 1.170 . S
C995 C741 1.169 . S
C1000 C347 1.156 . S
C1005 C800 1.169 . S
C1010 C406 1.156 . S
C1015 C859 1.169 . S
C1020 C465 1.156 . S
C1025 C524 1.158 . S
C1030 C92 1.170 . S
C1035 C583 1.158 . S
C1040 C151 1.170 . S
C1045 C642 1.158 . S
C1050 C210 1.170 . S
C1055 C33 1.170 . S
C1060 C701 1.158 . S
C1065 C760 1.158 . S
C1070 C446 1.171 . S
C1075 C819 1.158 . S
C1080 C269 1.170 . S
C1085 C328 1.171 . S
C1090 C878 1.159 . S
C1095 C937 1.158 . S
C1100 C387 1.171 . S
C1105 C477 1.838 . S
C1110 C5 1.838 . S
C1115 C64 1.840 . S
C1120 C536 1.840 . S
C1125 C595 1.840 1_655 S
C1130 C123 1.840 1_455 S
C1135 C182 1.838 1_545 S
C1140 C654 1.838 1_565 S
C1145 C713 1.839 . S
C1150 C241 1.839 . S
C1155 C300 1.840 . S
C1160 C772 1.840 . S
C1165 C831 1.838 1_655 S
C1170 C359 1.838 1_455 S
C1175 C890 1.838 1_565 S
C1180 C418 1.838 1_545 S
C1185 C239 1.660 . S
C1190 C3 1.660 . S
C1195 C298 1.660 . S
C1200 C62 1.660 . S
C1205 C121 1.660 . S
C1210 C357 1.660 . S
C1215 C416 1.660 . S
C1220 C180 1.660 . S
C1225 C475 1.662 . S
C1230 C711 1.662 . S
C1235 C770 1.662 . S
C1240 C534 1.662 . S
C1245 C829 1.662 . S
C1250 C593 1.662 . S
C1255 C888 1.660 . S
C1260 C652 1.660 . S
