# Generated by pormake.
# Topology umw, (4)-cn, num edge types: 1
# Building blocks:
#     Node 0, Type 0, BuildingBlock: UXUYUI_clean_sbu_0, # of connection points: 4
#     Node 1, Type 0, BuildingBlock: UXUYUI_clean_sbu_0, # of connection points: 4
#     Node 2, Type 0, BuildingBlock: UXUYUI_clean_sbu_0, # of connection points: 4
#     Node 3, Type 0, BuildingBlock: UXUYUI_clean_sbu_0, # of connection points: 4
#     Node 4, Type 0, BuildingBlock: UXUYUI_clean_sbu_0, # of connection points: 4
#     Node 5, Type 0, BuildingBlock: UXUYUI_clean_sbu_0, # of connection points: 4
#     Node 6, Type 0, BuildingBlock: UXUYUI_clean_sbu_0, # of connection points: 4
#     Node 7, Type 0, BuildingBlock: UXUYUI_clean_sbu_0, # of connection points: 4
#     Edge 8, Type (0, 0), BuildingBlock: TEMPAE_clean_linker_10, # of connection points: 2
#     Edge 9, Type (0, 0), BuildingBlock: TEMPAE_clean_linker_10, # of connection points: 2
#     Edge 10, Type (0, 0), BuildingBlock: TEMPAE_clean_linker_10, # of connection points: 2
#     Edge 11, Type (0, 0), BuildingBlock: TEMPAE_clean_linker_10, # of connection points: 2
#     Edge 12, Type (0, 0), BuildingBlock: TEMPAE_clean_linker_10, # of connection points: 2
#     Edge 13, Type (0, 0), BuildingBlock: TEMPAE_clean_linker_10, # of connection points: 2
#     Edge 14, Type (0, 0), BuildingBlock: TEMPAE_clean_linker_10, # of connection points: 2
#     Edge 15, Type (0, 0), BuildingBlock: TEMPAE_clean_linker_10, # of connection points: 2
#     Edge 16, Type (0, 0), BuildingBlock: TEMPAE_clean_linker_10, # of connection points: 2
#     Edge 17, Type (0, 0), BuildingBlock: TEMPAE_clean_linker_10, # of connection points: 2
#     Edge 18, Type (0, 0), BuildingBlock: TEMPAE_clean_linker_10, # of connection points: 2
#     Edge 19, Type (0, 0), BuildingBlock: TEMPAE_clean_linker_10, # of connection points: 2
#     Edge 20, Type (0, 0), BuildingBlock: TEMPAE_clean_linker_10, # of connection points: 2
#     Edge 21, Type (0, 0), BuildingBlock: TEMPAE_clean_linker_10, # of connection points: 2
#     Edge 22, Type (0, 0), BuildingBlock: TEMPAE_clean_linker_10, # of connection points: 2
#     Edge 23, Type (0, 0), BuildingBlock: TEMPAE_clean_linker_10, # of connection points: 2
# Relax obj value: 0.239
# Max RMSD: 0.148
# Mean RMSD: 0.148
data_MOF--net-umw--node1-UXUYUI_clean_sbu_0--edge1-TEMPAE_clean_linker_10
_symmetry_space_group_name_H-M    P1
_symmetry_Int_Tables_number       1
_symmetry_cell_setting            triclinic
loop_
_symmetry_equiv_pos_as_xyz
'x, y, z'
_cell_length_a     63.682356
_cell_length_b     63.688016
_cell_length_c     35.213818
_cell_angle_alpha  89.982755
_cell_angle_beta   90.004142
_cell_angle_gamma 90.003414
loop_
_atom_site_label
_atom_site_type_symbol
_atom_site_fract_x
_atom_site_fract_y
_atom_site_fract_z
_atom_type_partial_charge
Li0 Li 0.38344 0.14878 0.26768 0.0
Li1 Li 0.40503 0.17475 0.2964 0.0
Li2 Li 0.37173 0.18478 0.27458 0.0
Li3 Li 0.40051 0.17699 0.22931 0.0
C4 C 0.3593 0.15672 0.32949 0.0
N5 N 0.32177 0.14201 0.35875 0.0
C6 C 0.35723 0.15299 0.36844 0.0
C7 C 0.34224 0.15287 0.30542 0.0
C8 C 0.33815 0.14558 0.38268 0.0
C9 C 0.32342 0.14547 0.32076 0.0
C10 C 0.43185 0.14517 0.26888 0.0
C11 C 0.46915 0.14048 0.26073 0.0
N12 N 0.46952 0.12781 0.29183 0.0
C13 C 0.43256 0.13202 0.30062 0.0
C14 C 0.45026 0.1494 0.24865 0.0
C15 C 0.45177 0.12344 0.31184 0.0
C16 C 0.37016 0.11011 0.23595 0.0
N17 N 0.37599 0.1201 0.26836 0.0
C18 C 0.3733 0.08833 0.30392 0.0
C19 C 0.37744 0.10976 0.30201 0.0
C20 C 0.36775 0.0774 0.2708 0.0
C21 C 0.36591 0.08858 0.23653 0.0
H22 H 0.36925 0.11878 0.20958 0.0
H23 H 0.38213 0.11812 0.32733 0.0
C24 C 0.41508 0.18049 0.37235 0.0
N25 N 0.42412 0.17909 0.33751 0.0
C26 C 0.42747 0.18226 0.40478 0.0
C27 C 0.45833 0.18222 0.3648 0.0
C28 C 0.44531 0.18035 0.33312 0.0
C29 C 0.4494 0.1828 0.40123 0.0
H30 H 0.3982 0.18005 0.37498 0.0
H31 H 0.45217 0.17965 0.30514 0.0
C32 C 0.35977 0.17668 0.19878 0.0
N33 N 0.33843 0.19647 0.14059 0.0
C34 C 0.36429 0.19757 0.18968 0.0
C35 C 0.3444 0.16586 0.17831 0.0
C36 C 0.35333 0.20729 0.16015 0.0
C37 C 0.33377 0.17615 0.149 0.0
C38 C 0.41285 0.21393 0.28038 0.0
C39 C 0.40745 0.22768 0.30972 0.0
C40 C 0.43332 0.214 0.26606 0.0
C41 C 0.42269 0.24118 0.32448 0.0
C42 C 0.4481 0.22777 0.28152 0.0
N43 N 0.44253 0.24094 0.3102 0.0
C44 C 0.35051 0.20773 0.32594 0.0
C45 C 0.33082 0.20561 0.26887 0.0
C46 C 0.33424 0.21825 0.34398 0.0
N47 N 0.34853 0.20154 0.28923 0.0
C48 C 0.31414 0.21646 0.28578 0.0
C49 C 0.31572 0.22257 0.324 0.0
H50 H 0.3646 0.20388 0.34159 0.0
H51 H 0.32935 0.20005 0.24003 0.0
C52 C 0.41947 0.16439 0.16278 0.0
N53 N 0.41395 0.18191 0.18231 0.0
C54 C 0.43237 0.16592 0.13096 0.0
C55 C 0.43275 0.20366 0.13872 0.0
C56 C 0.41979 0.20138 0.1705 0.0
C57 C 0.43967 0.1857 0.11921 0.0
H58 H 0.41456 0.14914 0.17298 0.0
H59 H 0.41515 0.21505 0.18668 0.0
O60 O 0.37796 0.16412 0.31535 0.0
O61 O 0.41324 0.15382 0.25751 0.0
O62 O 0.3703 0.1667 0.22742 0.0
O63 O 0.39821 0.20041 0.26583 0.0
H64 H 0.37025 0.15572 0.38754 0.0
H65 H 0.34339 0.15556 0.27524 0.0
H66 H 0.33635 0.14264 0.41276 0.0
H67 H 0.31011 0.14248 0.30245 0.0
H68 H 0.48354 0.14368 0.24546 0.0
H69 H 0.4185 0.12875 0.31677 0.0
H70 H 0.44999 0.15963 0.2241 0.0
H71 H 0.45259 0.11335 0.33651 0.0
H72 H 0.37462 0.08037 0.33099 0.0
H73 H 0.36188 0.08068 0.2103 0.0
H74 H 0.41999 0.18308 0.43237 0.0
H75 H 0.4752 0.18257 0.36092 0.0
H76 H 0.37601 0.20626 0.20532 0.0
H77 H 0.34073 0.14969 0.18504 0.0
H78 H 0.35665 0.22345 0.15282 0.0
H79 H 0.32183 0.16797 0.13292 0.0
H80 H 0.39167 0.22794 0.321 0.0
H81 H 0.4379 0.20322 0.24384 0.0
H82 H 0.41874 0.25185 0.34728 0.0
H83 H 0.46404 0.22788 0.27091 0.0
H84 H 0.33611 0.22295 0.37336 0.0
H85 H 0.29999 0.21952 0.26962 0.0
H86 H 0.43702 0.15172 0.11628 0.0
H87 H 0.43809 0.21918 0.13066 0.0
Li88 Li 0.83039 0.41145 0.55173 0.0
Li89 Li 0.85152 0.38636 0.51739 0.0
Li90 Li 0.82423 0.4058 0.48539 0.0
Li91 Li 0.81531 0.37878 0.52991 0.0
C92 C 0.86824 0.42631 0.522 0.0
N93 N 0.90512 0.44445 0.54725 0.0
C94 C 0.87614 0.4214 0.55797 0.0
C95 C 0.87908 0.4405 0.49894 0.0
C96 C 0.89481 0.43071 0.5702 0.0
C97 C 0.8977 0.4495 0.5122 0.0
C98 C 0.84312 0.36397 0.58359 0.0
C99 C 0.85024 0.32689 0.57833 0.0
N100 N 0.85299 0.32587 0.61659 0.0
C101 C 0.84596 0.36255 0.62284 0.0
C102 C 0.84523 0.346 0.56109 0.0
C103 C 0.85097 0.34315 0.63899 0.0
C104 C 0.81904 0.42356 0.62413 0.0
N105 N 0.8292 0.43065 0.59277 0.0
C106 C 0.83722 0.46307 0.62355 0.0
C107 C 0.83787 0.45014 0.59157 0.0
C108 C 0.82713 0.45603 0.65676 0.0
C109 C 0.81765 0.43609 0.65646 0.0
H110 H 0.81207 0.40809 0.624 0.0
H111 H 0.84554 0.45557 0.56602 0.0
C112 C 0.8875 0.3723 0.47797 0.0
N113 N 0.87919 0.37543 0.51307 0.0
C114 C 0.90847 0.36616 0.47407 0.0
C115 C 0.91164 0.36609 0.54249 0.0
C116 C 0.89074 0.37231 0.54504 0.0
C117 C 0.92085 0.3632 0.50667 0.0
H118 H 0.87797 0.3751 0.45304 0.0
H119 H 0.884 0.37532 0.57263 0.0
C120 C 0.79232 0.42587 0.52516 0.0
N121 N 0.77075 0.46347 0.52204 0.0
C122 C 0.77078 0.42642 0.53255 0.0
C123 C 0.80292 0.44446 0.51621 0.0
C124 C 0.76015 0.44558 0.53083 0.0
C125 C 0.79173 0.4633 0.51477 0.0
C126 C 0.81781 0.36652 0.45367 0.0
C127 C 0.79651 0.37177 0.45226 0.0
C128 C 0.82611 0.35263 0.42689 0.0
C129 C 0.78384 0.36299 0.42404 0.0
C130 C 0.81292 0.34416 0.39912 0.0
N131 N 0.79224 0.34948 0.39827 0.0
C132 C 0.83358 0.42769 0.41939 0.0
C133 C 0.79698 0.42342 0.42885 0.0
C134 C 0.82999 0.44031 0.38772 0.0
N135 N 0.81719 0.41987 0.43956 0.0
C136 C 0.79264 0.43583 0.3971 0.0
C137 C 0.80928 0.44479 0.37644 0.0
H138 H 0.84947 0.4246 0.42864 0.0
H139 H 0.78419 0.41711 0.44548 0.0
C140 C 0.7909 0.36137 0.58438 0.0
N141 N 0.79639 0.35795 0.54767 0.0
C142 C 0.77837 0.34703 0.60369 0.0
C143 C 0.77645 0.3262 0.54645 0.0
C144 C 0.78971 0.34065 0.52859 0.0
C145 C 0.77069 0.32918 0.58473 0.0
H146 H 0.79678 0.37508 0.599 0.0
H147 H 0.79474 0.33785 0.49978 0.0
O148 O 0.85006 0.4173 0.50911 0.0
O149 O 0.838 0.38285 0.56756 0.0
O150 O 0.80281 0.40713 0.52653 0.0
O151 O 0.8307 0.37514 0.48055 0.0
H152 H 0.86792 0.41061 0.57641 0.0
H153 H 0.87318 0.44456 0.47107 0.0
H154 H 0.90108 0.42703 0.59796 0.0
H155 H 0.90625 0.4605 0.49462 0.0
H156 H 0.85193 0.31287 0.56128 0.0
H157 H 0.84429 0.37632 0.64062 0.0
H158 H 0.843 0.34676 0.53068 0.0
H159 H 0.85323 0.34182 0.66935 0.0
H160 H 0.84493 0.4782 0.62242 0.0
H161 H 0.80923 0.43016 0.68092 0.0
H162 H 0.915 0.36406 0.44593 0.0
H163 H 0.92074 0.36444 0.56831 0.0
H164 H 0.76236 0.41215 0.53948 0.0
H165 H 0.81956 0.44438 0.51023 0.0
H166 H 0.74346 0.44623 0.53645 0.0
H167 H 0.79972 0.47779 0.50781 0.0
H168 H 0.78974 0.38229 0.47297 0.0
H169 H 0.84259 0.34848 0.42754 0.0
H170 H 0.76733 0.36688 0.42268 0.0
H171 H 0.81914 0.33338 0.37821 0.0
H172 H 0.84332 0.44711 0.37313 0.0
H173 H 0.77645 0.43863 0.3892 0.0
H174 H 0.7751 0.34985 0.6334 0.0
H175 H 0.77081 0.31291 0.53027 0.0
Li176 Li 0.5859 0.82563 0.80667 0.0
Li177 Li 0.61245 0.84808 0.77083 0.0
Li178 Li 0.58986 0.82125 0.73739 0.0
Li179 Li 0.61749 0.81077 0.77924 0.0
C180 C 0.56095 0.85373 0.76235 0.0
N181 N 0.52009 0.8676 0.75469 0.0
C182 C 0.55667 0.87522 0.76078 0.0
C183 C 0.5445 0.83928 0.75999 0.0
C184 C 0.53589 0.88193 0.75693 0.0
C185 C 0.52394 0.84661 0.75611 0.0
C186 C 0.63156 0.82768 0.84282 0.0
C187 C 0.66865 0.82675 0.85651 0.0
N188 N 0.66466 0.81532 0.88833 0.0
C189 C 0.62779 0.81606 0.8758 0.0
C190 C 0.65212 0.8332 0.83316 0.0
C191 C 0.64476 0.80991 0.89839 0.0
C192 C 0.56591 0.80639 0.86754 0.0
N193 N 0.56723 0.82474 0.84804 0.0
C194 C 0.54251 0.84098 0.88959 0.0
C195 C 0.55601 0.84194 0.85844 0.0
C196 C 0.54081 0.82222 0.91043 0.0
C197 C 0.55274 0.80477 0.89902 0.0
H198 H 0.57529 0.79309 0.8588 0.0
H199 H 0.55761 0.85642 0.84269 0.0
C200 C 0.622 0.88665 0.73588 0.0
N201 N 0.6235 0.8755 0.76864 0.0
C202 C 0.6274 0.90791 0.73533 0.0
C203 C 0.63651 0.90544 0.80187 0.0
C204 C 0.63084 0.8843 0.80116 0.0
C205 C 0.63433 0.91767 0.76889 0.0
H206 H 0.61577 0.87924 0.71063 0.0
H207 H 0.63156 0.8751 0.82693 0.0
C208 C 0.57969 0.78081 0.77043 0.0
N209 N 0.56115 0.74237 0.75618 0.0
C210 C 0.59141 0.76451 0.75434 0.0
C211 C 0.55861 0.77746 0.77971 0.0
C212 C 0.58173 0.74522 0.74725 0.0
C213 C 0.5495 0.75795 0.77214 0.0
C214 C 0.63417 0.81779 0.70743 0.0
C215 C 0.62891 0.79872 0.69033 0.0
C216 C 0.65359 0.82709 0.69977 0.0
C217 C 0.64338 0.78904 0.66621 0.0
C218 C 0.66762 0.81691 0.67546 0.0
N219 N 0.66228 0.79825 0.65936 0.0
C220 C 0.56783 0.83492 0.67388 0.0
C221 C 0.56769 0.79787 0.67988 0.0
C222 C 0.55392 0.83384 0.64337 0.0
N223 N 0.57395 0.81713 0.69211 0.0
C224 C 0.55388 0.79604 0.64927 0.0
C225 C 0.54645 0.81422 0.63121 0.0
H226 H 0.57328 0.85003 0.68381 0.0
H227 H 0.57297 0.7839 0.69418 0.0
C228 C 0.63046 0.7754 0.81724 0.0
N229 N 0.63755 0.78979 0.7918 0.0
C230 C 0.6442 0.76096 0.83341 0.0
C231 C 0.67236 0.77611 0.79636 0.0
C232 C 0.65802 0.79032 0.7809 0.0
C233 C 0.66552 0.76141 0.82346 0.0
H234 H 0.61426 0.77581 0.82639 0.0
H235 H 0.66347 0.80235 0.76172 0.0
O236 O 0.58121 0.84693 0.76605 0.0
O237 O 0.61525 0.83323 0.81965 0.0
O238 O 0.58892 0.79976 0.77801 0.0
O239 O 0.6203 0.82751 0.73123 0.0
H240 H 0.56929 0.88659 0.76253 0.0
H241 H 0.54761 0.82262 0.76088 0.0
H242 H 0.53232 0.89852 0.75571 0.0
H243 H 0.51104 0.8356 0.75417 0.0
H244 H 0.68467 0.83074 0.84921 0.0
H245 H 0.61197 0.81163 0.88359 0.0
H246 H 0.6553 0.84204 0.80753 0.0
H247 H 0.6421 0.80077 0.92383 0.0
H248 H 0.53345 0.85475 0.89714 0.0
H249 H 0.55221 0.79013 0.91462 0.0
H250 H 0.62518 0.91681 0.70943 0.0
H251 H 0.64197 0.91229 0.82823 0.0
H252 H 0.60777 0.76673 0.74721 0.0
H253 H 0.54938 0.78974 0.79276 0.0
H254 H 0.59059 0.73252 0.73464 0.0
H255 H 0.53319 0.75516 0.77906 0.0
H256 H 0.61384 0.7915 0.69564 0.0
H257 H 0.65781 0.84192 0.71271 0.0
H258 H 0.63957 0.77421 0.65289 0.0
H259 H 0.68277 0.82384 0.66942 0.0
H260 H 0.54887 0.84822 0.6297 0.0
H261 H 0.54849 0.78061 0.64073 0.0
H262 H 0.63834 0.75023 0.85478 0.0
H263 H 0.68869 0.77693 0.7879 0.0
Li264 Li 0.14678 0.61253 0.01724 0.0
Li265 Li 0.17205 0.58767 0.05023 0.0
Li266 Li 0.1831 0.62194 0.02669 0.0
Li267 Li 0.17559 0.59495 0.98225 0.0
C268 C 0.16373 0.63189 0.09065 0.0
N269 N 0.16995 0.66574 0.13834 0.0
C270 C 0.17657 0.62985 0.12262 0.0
C271 C 0.15387 0.65105 0.0831 0.0
C272 C 0.17957 0.64718 0.14633 0.0
C273 C 0.15726 0.66799 0.10754 0.0
C274 C 0.14395 0.56271 0.00055 0.0
C275 C 0.1495 0.52677 0.98144 0.0
N276 N 0.12846 0.52328 0.98354 0.0
C277 C 0.12238 0.55881 0.0023 0.0
C278 C 0.15763 0.54658 0.98994 0.0
C279 C 0.11486 0.53876 0.99371 0.0
C280 C 0.10975 0.63392 0.99253 0.0
N281 N 0.11846 0.62065 0.01831 0.0
C282 C 0.08569 0.61642 0.05007 0.0
C283 C 0.10704 0.61211 0.04695 0.0
C284 C 0.07606 0.62975 0.02353 0.0
C285 C 0.08837 0.6388 0.99472 0.0
H286 H 0.11933 0.6405 0.97012 0.0
H287 H 0.11456 0.60171 0.0671 0.0
C288 C 0.19193 0.56847 0.11174 0.0
N289 N 0.17436 0.56799 0.08988 0.0
C290 C 0.19399 0.5548 0.14245 0.0
C291 C 0.1598 0.54044 0.12747 0.0
C292 C 0.1584 0.55442 0.09709 0.0
C293 C 0.17773 0.54061 0.15071 0.0
H294 H 0.20427 0.57961 0.10542 0.0
H295 H 0.14442 0.55471 0.0797 0.0
C296 C 0.17765 0.63552 0.95208 0.0
N297 N 0.2007 0.65656 0.89756 0.0
C298 C 0.19865 0.63024 0.94573 0.0
C299 C 0.16837 0.65151 0.93072 0.0
C300 C 0.21004 0.64105 0.91804 0.0
C301 C 0.18028 0.66196 0.90328 0.0
C302 C 0.21536 0.58313 0.0186 0.0
C303 C 0.23445 0.59277 0.00952 0.0
C304 C 0.2147 0.56143 0.02439 0.0
C305 C 0.25248 0.58046 0.0057 0.0
C306 C 0.23308 0.54967 0.02033 0.0
N307 N 0.25142 0.55934 0.0111 0.0
C308 C 0.21675 0.63894 0.0647 0.0
C309 C 0.19694 0.66451 0.03127 0.0
C310 C 0.22912 0.65447 0.08109 0.0
N311 N 0.20092 0.64421 0.04073 0.0
C312 C 0.209 0.68063 0.04701 0.0
C313 C 0.22518 0.67566 0.07266 0.0
H314 H 0.21912 0.62267 0.07241 0.0
H315 H 0.18395 0.6682 0.01264 0.0
C316 C 0.16428 0.57872 0.91231 0.0
N317 N 0.18125 0.58152 0.9351 0.0
C318 C 0.1658 0.56634 0.87979 0.0
C319 C 0.20252 0.56068 0.89386 0.0
C320 C 0.20031 0.57334 0.92595 0.0
C321 C 0.18498 0.5566 0.87079 0.0
H322 H 0.14933 0.58549 0.92027 0.0
H323 H 0.21368 0.57596 0.94404 0.0
O324 O 0.16123 0.61538 0.0663 0.0
O325 O 0.15151 0.58228 0.00893 0.0
O326 O 0.16617 0.62528 0.97921 0.0
O327 O 0.19759 0.59502 0.02255 0.0
H328 H 0.18436 0.61513 0.12873 0.0
H329 H 0.14397 0.65287 0.05833 0.0
H330 H 0.18961 0.6459 0.171 0.0
H331 H 0.14987 0.68297 0.10191 0.0
H332 H 0.15991 0.51417 0.97308 0.0
H333 H 0.11155 0.57113 0.01028 0.0
H334 H 0.1743 0.54938 0.98774 0.0
H335 H 0.0982 0.5355 0.99508 0.0
H336 H 0.07677 0.60935 0.07294 0.0
H337 H 0.08144 0.64906 0.97363 0.0
H338 H 0.20812 0.55532 0.15954 0.0
H339 H 0.14677 0.52999 0.13329 0.0
H340 H 0.20609 0.61794 0.96193 0.0
H341 H 0.15213 0.65583 0.93536 0.0
H342 H 0.22631 0.6371 0.91284 0.0
H343 H 0.1733 0.67438 0.88654 0.0
H344 H 0.23532 0.60958 0.00532 0.0
H345 H 0.20024 0.55372 0.03224 0.0
H346 H 0.26732 0.5877 -0.00152 0.0
H347 H 0.23276 0.53285 0.02463 0.0
H348 H 0.2411 0.64994 0.10132 0.0
H349 H 0.20554 0.69677 0.03965 0.0
H350 H 0.15198 0.56404 0.86238 0.0
H351 H 0.21759 0.55346 0.8882 0.0
Li352 Li 0.39787 0.82259 0.31314 0.0
Li353 Li 0.37039 0.81225 0.27221 0.0
Li354 Li 0.40279 0.8245 0.24539 0.0
Li355 Li 0.37876 0.84858 0.27732 0.0
C356 C 0.41686 0.78805 0.27834 0.0
N357 N 0.45418 0.76602 0.28229 0.0
C358 C 0.41707 0.76637 0.27237 0.0
C359 C 0.43564 0.79854 0.28629 0.0
C360 C 0.4361 0.75551 0.27449 0.0
C361 C 0.45433 0.78713 0.28818 0.0
C362 C 0.35915 0.81872 0.34738 0.0
C363 C 0.33806 0.81658 0.40413 0.0
N364 N 0.34229 0.79568 0.4065 0.0
C365 C 0.36329 0.79722 0.35036 0.0
C366 C 0.34644 0.82849 0.37446 0.0
C367 C 0.35462 0.78586 0.38046 0.0
C368 C 0.42007 0.83609 0.37582 0.0
N369 N 0.41238 0.8184 0.35945 0.0
C370 C 0.42994 0.7969 0.40509 0.0
C371 C 0.41659 0.79903 0.37383 0.0
C372 C 0.43897 0.8149 0.4214 0.0
C373 C 0.43347 0.83471 0.40697 0.0
H374 H 0.41625 0.85126 0.36389 0.0
H375 H 0.41026 0.7852 0.36018 0.0
C376 C 0.3534 0.78138 0.22924 0.0
N377 N 0.3486 0.79351 0.25971 0.0
C378 C 0.33776 0.77003 0.21092 0.0
C379 C 0.31269 0.78284 0.25711 0.0
C380 C 0.32884 0.79429 0.27429 0.0
C381 C 0.31709 0.77106 0.2244 0.0
H382 H 0.36919 0.78153 0.21793 0.0
H383 H 0.32537 0.80462 0.29783 0.0
C384 C 0.41926 0.86333 0.26758 0.0
N385 N 0.43838 0.89798 0.23531 0.0
C386 C 0.41399 0.8696 0.23072 0.0
C387 C 0.4343 0.87466 0.28795 0.0
C388 C 0.42381 0.88716 0.21494 0.0
C389 C 0.44378 0.89213 0.27115 0.0
C390 C 0.35506 0.83413 0.21273 0.0
C391 C 0.35275 0.82784 0.17493 0.0
C392 C 0.3375 0.84101 0.23307 0.0
C393 C 0.33288 0.82848 0.15814 0.0
C394 C 0.31791 0.84146 0.21524 0.0
N395 N 0.31602 0.83521 0.17848 0.0
C396 C 0.41425 0.81179 0.17254 0.0
C397 C 0.442 0.82787 0.20676 0.0
C398 C 0.42694 0.80988 0.14047 0.0
N399 N 0.4218 0.82106 0.20446 0.0
C400 C 0.4553 0.82614 0.17547 0.0
C401 C 0.44767 0.81734 0.14162 0.0
H402 H 0.3983 0.80603 0.17198 0.0
H403 H 0.44771 0.83496 0.23267 0.0
C404 C 0.36956 0.88785 0.30966 0.0
N405 N 0.36946 0.87679 0.27668 0.0
C406 C 0.3656 0.90942 0.30929 0.0
C407 C 0.36089 0.90755 0.24122 0.0
C408 C 0.36498 0.88609 0.24289 0.0
C409 C 0.36164 0.91958 0.27459 0.0
H410 H 0.37352 0.88003 0.33599 0.0
H411 H 0.3654 0.87704 0.21697 0.0
O412 O 0.39827 0.79877 0.27621 0.0
O413 O 0.36746 0.83034 0.31833 0.0
O414 O 0.40973 0.84631 0.28394 0.0
O415 O 0.37419 0.83265 0.23031 0.0
H416 H 0.40266 0.75803 0.26615 0.0
H417 H 0.43583 0.81529 0.29115 0.0
H418 H 0.43649 0.73871 0.26994 0.0
H419 H 0.46897 0.79505 0.29436 0.0
H420 H 0.3282 0.82394 0.4253 0.0
H421 H 0.373 0.78931 0.32969 0.0
H422 H 0.3431 0.84513 0.37255 0.0
H423 H 0.35769 0.76921 0.38309 0.0
H424 H 0.43386 0.78135 0.41533 0.0
H425 H 0.43978 0.84898 0.41921 0.0
H426 H 0.34165 0.76096 0.18585 0.0
H427 H 0.29683 0.784 0.26799 0.0
H428 H 0.40249 0.86101 0.21437 0.0
H429 H 0.43863 0.87 0.31645 0.0
H430 H 0.41986 0.89219 0.18648 0.0
H431 H 0.45544 0.90104 0.28662 0.0
H432 H 0.3661 0.82241 0.15873 0.0
H433 H 0.33891 0.84562 0.26253 0.0
H434 H 0.33085 0.82357 0.12897 0.0
H435 H 0.30419 0.84664 0.23072 0.0
H436 H 0.42063 0.80269 0.11504 0.0
H437 H 0.47118 0.83215 0.17737 0.0
H438 H 0.36661 0.91817 0.33559 0.0
H439 H 0.35772 0.91475 0.21394 0.0
Li440 Li 0.17588 0.40362 0.5576 0.0
Li441 Li 0.18514 0.37378 0.52102 0.0
Li442 Li 0.1736 0.40521 0.48959 0.0
Li443 Li 0.14807 0.38174 0.5239 0.0
C444 C 0.21525 0.41162 0.53777 0.0
N445 N 0.24763 0.43249 0.57399 0.0
C446 C 0.23151 0.4003 0.55494 0.0
C447 C 0.21554 0.43356 0.53892 0.0
C448 C 0.24773 0.41114 0.57309 0.0
C449 C 0.23201 0.44382 0.55744 0.0
C450 C 0.17342 0.35727 0.5878 0.0
C451 C 0.1673 0.32291 0.61433 0.0
N452 N 0.18691 0.32316 0.62961 0.0
C453 C 0.19344 0.35728 0.60402 0.0
C454 C 0.16016 0.34004 0.59314 0.0
C455 C 0.20001 0.33984 0.62495 0.0
C456 C 0.16485 0.43553 0.60739 0.0
N457 N 0.17988 0.42076 0.60151 0.0
C458 C 0.19969 0.43365 0.6543 0.0
C459 C 0.19679 0.41915 0.62496 0.0
C460 C 0.18479 0.44964 0.65999 0.0
C461 C 0.16695 0.45011 0.63655 0.0
H462 H 0.15122 0.43613 0.5892 0.0
H463 H 0.20828 0.40696 0.62046 0.0
C464 C 0.22158 0.35538 0.49367 0.0
N465 N 0.20346 0.35067 0.51216 0.0
C466 C 0.2337 0.3395 0.47766 0.0
C467 C 0.20863 0.31405 0.50087 0.0
C468 C 0.19698 0.33047 0.51652 0.0
C469 C 0.22697 0.31857 0.48031 0.0
H470 H 0.22584 0.3716 0.48891 0.0
H471 H 0.18202 0.32714 0.52958 0.0
C472 C 0.14214 0.4298 0.50945 0.0
N473 N 0.1241 0.46351 0.4723 0.0
C474 C 0.12278 0.4275 0.49121 0.0
C475 C 0.15219 0.44931 0.50921 0.0
C476 C 0.11395 0.44472 0.47251 0.0
C477 C 0.14286 0.46614 0.49014 0.0
C478 C 0.17034 0.36136 0.45301 0.0
C479 C 0.18612 0.36558 0.4265 0.0
C480 C 0.161 0.34151 0.454 0.0
C481 C 0.19255 0.34968 0.40175 0.0
C482 C 0.16786 0.32605 0.42873 0.0
N483 N 0.18338 0.33041 0.4034 0.0
C484 C 0.19338 0.43382 0.43927 0.0
C485 C 0.15971 0.4217 0.42061 0.0
C486 C 0.19466 0.44651 0.40706 0.0
N487 N 0.17595 0.42202 0.4456 0.0
C488 C 0.16026 0.43424 0.3882 0.0
C489 C 0.17786 0.44695 0.38126 0.0
H490 H 0.20626 0.43339 0.45919 0.0
H491 H 0.14626 0.41177 0.42606 0.0
C492 C 0.10922 0.37097 0.55679 0.0
N493 N 0.12022 0.37197 0.52381 0.0
C494 C 0.0879 0.3659 0.55622 0.0
C495 C 0.0899 0.36249 0.48788 0.0
C496 C 0.11117 0.36759 0.4898 0.0
C497 C 0.07789 0.36197 0.52132 0.0
H498 H 0.1169 0.37466 0.58337 0.0
H499 H 0.12031 0.36885 0.46401 0.0
O500 O 0.19926 0.4013 0.51968 0.0
O501 O 0.16668 0.37416 0.56722 0.0
O502 O 0.15128 0.41301 0.52722 0.0
O503 O 0.16432 0.37649 0.47829 0.0
H504 H 0.23153 0.38333 0.55467 0.0
H505 H 0.2031 0.4426 0.52594 0.0
H506 H 0.26035 0.40258 0.5866 0.0
H507 H 0.23235 0.46079 0.55871 0.0
H508 H 0.15725 0.30941 0.61856 0.0
H509 H 0.20383 0.37052 0.6002 0.0
H510 H 0.14458 0.33985 0.58084 0.0
H511 H 0.21552 0.33956 0.63747 0.0
H512 H 0.21366 0.43262 0.67171 0.0
H513 H 0.15468 0.46167 0.64063 0.0
H514 H 0.24748 0.34372 0.4613 0.0
H515 H 0.2029 0.29811 0.50347 0.0
H516 H 0.11473 0.41256 0.49123 0.0
H517 H 0.16709 0.45141 0.5234 0.0
H518 H 0.09904 0.44313 0.45807 0.0
H519 H 0.15055 0.48128 0.4895 0.0
H520 H 0.19355 0.38086 0.42549 0.0
H521 H 0.14883 0.33799 0.47451 0.0
H522 H 0.20489 0.35264 0.38133 0.0
H523 H 0.16093 0.31055 0.42942 0.0
H524 H 0.20849 0.45612 0.40271 0.0
H525 H 0.14714 0.43387 0.36862 0.0
H526 H 0.07924 0.36545 0.58268 0.0
H527 H 0.08277 0.35992 0.46035 0.0
Li528 Li 0.62049 0.18267 0.7623 0.0
Li529 Li 0.59128 0.1751 0.8047 0.0
Li530 Li 0.61012 0.14606 0.77034 0.0
Li531 Li 0.58699 0.17042 0.73676 0.0
C532 C 0.63497 0.17381 0.83586 0.0
N533 N 0.66262 0.19036 0.88838 0.0
C534 C 0.63011 0.19247 0.85476 0.0
C535 C 0.65385 0.16351 0.84375 0.0
C536 C 0.64429 0.2006 0.88121 0.0
C537 C 0.66764 0.17216 0.87035 0.0
C538 C 0.58607 0.21567 0.7769 0.0
C539 C 0.55801 0.24005 0.79006 0.0
N540 N 0.57232 0.25425 0.8028 0.0
C541 C 0.60051 0.23055 0.78993 0.0
C542 C 0.56465 0.22048 0.77675 0.0
C543 C 0.59325 0.24994 0.80298 0.0
C544 C 0.64184 0.20495 0.70968 0.0
N545 N 0.64269 0.20085 0.74747 0.0
C546 C 0.67247 0.22339 0.75429 0.0
C547 C 0.6577 0.20961 0.76993 0.0
C548 C 0.672 0.22783 0.7151 0.0
C549 C 0.65657 0.21803 0.69275 0.0
H550 H 0.62961 0.19797 0.69254 0.0
H551 H 0.65807 0.20629 0.79993 0.0
C552 C 0.56607 0.1632 0.86455 0.0
N553 N 0.57554 0.18055 0.85 0.0
C554 C 0.55185 0.16497 0.89444 0.0
C555 C 0.55817 0.20236 0.89555 0.0
C556 C 0.57227 0.19986 0.86547 0.0
C557 C 0.5474 0.18481 0.90978 0.0
H558 H 0.56913 0.14797 0.85216 0.0
H559 H 0.58015 0.21346 0.85415 0.0
C560 C 0.63375 0.15387 0.70667 0.0
N561 N 0.67082 0.13973 0.67497 0.0
C562 C 0.63477 0.14935 0.66789 0.0
C563 C 0.65156 0.15118 0.72935 0.0
C564 C 0.65367 0.14223 0.65239 0.0
C565 C 0.67016 0.14402 0.71278 0.0
C566 C 0.55967 0.14415 0.76954 0.0
C567 C 0.55585 0.12395 0.75567 0.0
C568 C 0.54292 0.15799 0.77502 0.0
C569 C 0.53527 0.11802 0.74702 0.0
C570 C 0.52258 0.15147 0.76605 0.0
N571 N 0.51921 0.13179 0.75232 0.0
C572 C 0.62732 0.10847 0.80172 0.0
C573 C 0.61474 0.10677 0.7384 0.0
C574 C 0.63227 0.08709 0.80101 0.0
N575 N 0.61855 0.11771 0.77076 0.0
C576 C 0.61947 0.08546 0.73639 0.0
C577 C 0.62806 0.07526 0.76815 0.0
H578 H 0.63007 0.11762 0.82713 0.0
H579 H 0.60769 0.11461 0.7143 0.0
C580 C 0.56171 0.19196 0.68416 0.0
N581 N 0.56857 0.17268 0.69501 0.0
C582 C 0.54868 0.19409 0.65257 0.0
C583 C 0.55023 0.15645 0.64375 0.0
C584 C 0.56333 0.15509 0.67537 0.0
C585 C 0.54277 0.17617 0.6319 0.0
H586 H 0.56668 0.20574 0.69959 0.0
H587 H 0.56949 0.14003 0.68412 0.0
O588 O 0.62123 0.16546 0.81014 0.0
O589 O 0.59289 0.19666 0.7637 0.0
O590 O 0.61534 0.16086 0.72218 0.0
O591 O 0.57972 0.15034 0.7777 0.0
H592 H 0.61571 0.20072 0.84871 0.0
H593 H 0.65781 0.14898 0.8295 0.0
H594 H 0.64077 0.21508 0.89592 0.0
H595 H 0.68233 0.16438 0.8767 0.0
H596 H 0.54148 0.24395 0.79025 0.0
H597 H 0.61713 0.22714 0.7902 0.0
H598 H 0.55325 0.20921 0.76658 0.0
H599 H 0.60424 0.26157 0.81329 0.0
H600 H 0.68382 0.23075 0.77289 0.0
H601 H 0.65578 0.22037 0.66234 0.0
H602 H 0.54424 0.15096 0.90516 0.0
H603 H 0.55521 0.21794 0.90663 0.0
H604 H 0.62109 0.15135 0.64999 0.0
H605 H 0.65105 0.1546 0.75937 0.0
H606 H 0.65469 0.13868 0.6224 0.0
H607 H 0.68407 0.14189 0.73 0.0
H608 H 0.56865 0.11303 0.7514 0.0
H609 H 0.54563 0.17361 0.78599 0.0
H610 H 0.53208 0.10248 0.73607 0.0
H611 H 0.50947 0.16205 0.77001 0.0
H612 H 0.63868 0.07977 0.82624 0.0
H613 H 0.61624 0.07702 0.71034 0.0
H614 H 0.54368 0.20963 0.64397 0.0
H615 H 0.54595 0.14222 0.62881 0.0
Li616 Li 0.81402 0.62192 0.01814 0.0
Li617 Li 0.82239 0.59441 0.06624 0.0
Li618 Li 0.85029 0.61476 0.03341 0.0
Li619 Li 0.82955 0.58904 -0.00021 0.0
C620 C 0.83104 0.64599 0.07825 0.0
N621 N 0.83696 0.68762 0.09752 0.0
C622 C 0.82778 0.65264 0.11559 0.0
C623 C 0.83731 0.66049 0.05073 0.0
C624 C 0.83086 0.67377 0.12478 0.0
C625 C 0.84023 0.68146 0.06101 0.0
C626 C 0.78804 0.58171 0.00354 0.0
C627 C 0.77174 0.54843 0.98934 0.0
N628 N 0.76098 0.55758 0.96037 0.0
C629 C 0.77664 0.59083 0.97387 0.0
C630 C 0.78542 0.56038 0.01159 0.0
C631 C 0.76311 0.57836 0.95229 0.0
C632 C 0.80193 0.65614 0.97487 0.0
N633 N 0.79507 0.64291 0.00245 0.0
C634 C 0.76041 0.65698 -0.00167 0.0
C635 C 0.7749 0.64332 0.01501 0.0
C636 C 0.76689 0.67018 0.96855 0.0
C637 C 0.78807 0.67003 0.95757 0.0
H638 H 0.81805 0.65544 0.96548 0.0
H639 H 0.76989 0.63237 0.0367 0.0
C640 C 0.83052 0.57675 0.13697 0.0
N641 N 0.81486 0.58103 0.11199 0.0
C642 C 0.82668 0.564 0.16837 0.0
C643 C 0.79037 0.56124 0.14878 0.0
C644 C 0.79498 0.57393 0.1175 0.0
C645 C 0.80645 0.55574 0.17429 0.0
H646 H 0.84624 0.58242 0.13141 0.0
H647 H 0.78289 0.57752 0.09691 0.0
C648 C 0.85229 0.6158 0.95433 0.0
N649 N 0.88199 0.61194 0.89747 0.0
C650 C 0.86943 0.6023 0.95895 0.0
C651 C 0.85017 0.62715 0.92057 0.0
C652 C 0.8843 0.60063 0.92996 0.0
C653 C 0.86537 0.62503 0.89222 0.0
C654 C 0.85654 0.56469 0.04971 0.0
C655 C 0.8781 0.56092 0.04658 0.0
C656 C 0.84311 0.54828 0.05998 0.0
C657 C 0.88584 0.54077 0.05363 0.0
C658 C 0.85145 0.52836 0.06687 0.0
N659 N 0.87247 0.52504 0.06356 0.0
C660 C 0.89034 0.61793 0.06571 0.0
C661 C 0.88444 0.64148 0.01463 0.0
C662 C 0.91147 0.62366 0.0672 0.0
N663 N 0.87751 0.62645 0.03904 0.0
C664 C 0.90545 0.64763 0.01504 0.0
C665 C 0.91936 0.63826 0.0409 0.0
H666 H 0.88435 0.60598 0.08469 0.0
H667 H 0.8739 0.64806 0.99373 0.0
C668 C 0.8191 0.57625 0.92713 0.0
N669 N 0.82981 0.56962 0.95833 0.0
C670 C 0.8181 0.56377 0.89471 0.0
C671 C 0.84026 0.5383 0.92607 0.0
C672 C 0.84048 0.55111 0.95823 0.0
C673 C 0.82881 0.54458 0.89402 0.0
H674 H 0.81149 0.59142 0.92733 0.0
H675 H 0.84942 0.5463 0.98265 0.0
O676 O 0.8281 0.62536 0.0689 0.0
O677 O 0.80154 0.59364 0.02475 0.0
O678 O 0.83732 0.61752 0.98211 0.0
O679 O 0.84879 0.58442 0.04326 0.0
H680 H 0.82293 0.64158 0.13724 0.0
H681 H 0.83995 0.65558 0.02178 0.0
H682 H 0.82839 0.67914 0.15358 0.0
H683 H 0.84509 0.69285 0.03997 0.0
H684 H 0.76966 0.53188 0.99515 0.0
H685 H 0.77851 0.60727 0.96704 0.0
H686 H 0.79381 0.5531 0.03475 0.0
H687 H 0.75436 0.58518 0.92902 0.0
H688 H 0.74416 0.65653 0.00741 0.0
H689 H 0.79377 0.68023 0.93521 0.0
H690 H 0.83967 0.5599 0.18677 0.0
H691 H 0.77451 0.55545 0.15247 0.0
H692 H 0.8713 0.59321 0.98458 0.0
H693 H 0.83687 0.63743 0.91617 0.0
H694 H 0.89766 0.5903 0.93328 0.0
H695 H 0.86392 0.63376 0.86599 0.0
H696 H 0.88876 0.57342 0.0387 0.0
H697 H 0.82643 0.55086 0.06253 0.0
H698 H 0.90248 0.53763 0.05124 0.0
H699 H 0.84121 0.51554 0.07483 0.0
H700 H 0.92173 0.6159 0.08733 0.0
H701 H 0.91091 0.65909 0.99455 0.0
H702 H 0.80944 0.56925 0.87015 0.0
H703 H 0.84882 0.52361 0.92628 0.0
C704 C 0.48022 0.19655 0.43771 0.0
C705 C 0.46287 0.18307 0.43547 0.0
C706 C 0.49334 0.19644 0.46972 0.0
C707 C 0.48906 0.18238 0.49988 0.0
C708 C 0.47149 0.16884 0.49784 0.0
C709 C 0.45857 0.16939 0.46567 0.0
C710 C 0.51185 0.21125 0.47115 0.0
C711 C 0.46654 0.1535 0.52933 0.0
C712 C 0.53338 0.16604 0.56534 0.0
C713 C 0.52921 0.17809 0.59782 0.0
C714 C 0.52055 0.16746 0.53311 0.0
C715 C 0.50324 0.18139 0.53326 0.0
C716 C 0.4991 0.19383 0.56569 0.0
C717 C 0.5121 0.19197 0.59766 0.0
C718 C 0.5254 0.1539 0.49903 0.0
C719 C 0.48079 0.20889 0.56678 0.0
H720 H 0.48344 0.20727 0.41451 0.0
H721 H 0.44533 0.15874 0.46376 0.0
H722 H 0.51091 0.22119 0.49696 0.0
H723 H 0.52666 0.20214 0.47299 0.0
H724 H 0.51263 0.22162 0.44582 0.0
H725 H 0.45202 0.14436 0.52366 0.0
H726 H 0.47979 0.14236 0.53293 0.0
H727 H 0.46462 0.16199 0.55661 0.0
H728 H 0.54679 0.15557 0.565 0.0
H729 H 0.50864 0.20115 0.62281 0.0
H730 H 0.52782 0.16389 0.47359 0.0
H731 H 0.51189 0.14342 0.49294 0.0
H732 H 0.53961 0.14407 0.50333 0.0
H733 H 0.48169 0.21994 0.54248 0.0
H734 H 0.48029 0.2181 0.59355 0.0
H735 H 0.46585 0.20007 0.56397 0.0
C736 C 0.82839 0.45974 0.72768 0.0
C737 C 0.82684 0.46917 0.69172 0.0
C738 C 0.82819 0.47183 0.76091 0.0
C739 C 0.82696 0.49395 0.75818 0.0
C740 C 0.82554 0.50363 0.7221 0.0
C741 C 0.82525 0.49112 0.68933 0.0
C742 C 0.8294 0.46094 0.79897 0.0
C743 C 0.8245 0.52722 0.71811 0.0
C744 C 0.8091 0.52528 0.84389 0.0
C745 C 0.82834 0.5314 0.85961 0.0
C746 C 0.80841 0.51289 0.81101 0.0
C747 C 0.82742 0.50696 0.79312 0.0
C748 C 0.84689 0.51331 0.80878 0.0
C749 C 0.84712 0.52529 0.84217 0.0
C750 C 0.78738 0.506 0.7956 0.0
C751 C 0.86745 0.50763 0.79006 0.0
H752 H 0.83006 0.44286 0.72997 0.0
H753 H 0.82367 0.49858 0.66183 0.0
H754 H 0.84398 0.46565 0.81394 0.0
H755 H 0.81598 0.46577 0.81705 0.0
H756 H 0.82925 0.44356 0.79624 0.0
H757 H 0.82388 0.53231 0.68795 0.0
H758 H 0.81041 0.53335 0.73295 0.0
H759 H 0.83843 0.5345 0.73171 0.0
H760 H 0.79462 0.52997 0.85767 0.0
H761 H 0.86196 0.53026 0.85428 0.0
H762 H 0.78671 0.48861 0.79419 0.0
H763 H 0.78527 0.51198 0.76626 0.0
H764 H 0.77409 0.51166 0.8133 0.0
H765 H 0.86917 0.49032 0.78875 0.0
H766 H 0.88119 0.51423 0.80541 0.0
H767 H 0.86766 0.51354 0.76041 0.0
C768 C 0.45307 0.8235 0.07231 0.0
C769 C 0.46105 0.81666 0.10729 0.0
C770 C 0.46579 0.82394 0.03985 0.0
C771 C 0.48692 0.81722 0.04246 0.0
C772 C 0.49495 0.8099 0.07754 0.0
C773 C 0.48192 0.80982 0.10964 0.0
C774 C 0.45676 0.83203 0.00299 0.0
C775 C 0.51735 0.80239 0.08123 0.0
C776 C 0.51502 0.80279 0.95115 0.0
C777 C 0.52691 0.82093 0.94419 0.0
C778 C 0.50204 0.80128 0.98321 0.0
C779 C 0.50079 0.81841 0.00868 0.0
C780 C 0.51266 0.8368 0.00177 0.0
C781 C 0.52566 0.8378 0.96971 0.0
C782 C 0.48964 0.7814 0.98978 0.0
C783 C 0.51164 0.85541 0.02827 0.0
H784 H 0.437 0.82904 0.07057 0.0
H785 H 0.48803 0.80433 0.13662 0.0
H786 H 0.46552 0.8462 0.99374 0.0
H787 H 0.45854 0.82006 0.98035 0.0
H788 H 0.43986 0.83615 0.00553 0.0
H789 H 0.52092 0.79648 0.11021 0.0
H790 H 0.52043 0.78964 0.0605 0.0
H791 H 0.52831 0.81542 0.07456 0.0
H792 H 0.51567 0.7898 0.9313 0.0
H793 H 0.53506 0.85173 0.96488 0.0
H794 H 0.47259 0.78497 0.98996 0.0
H795 H 0.49359 0.77468 0.01797 0.0
H796 H 0.49272 0.76933 0.96769 0.0
H797 H 0.49521 0.86107 0.0306 0.0
H798 H 0.52168 0.86864 0.01857 0.0
H799 H 0.51675 0.85069 0.05715 0.0
C800 C 0.16103 0.47273 0.33733 0.0
C801 C 0.17859 0.46067 0.34734 0.0
C802 C 0.16139 0.48574 0.30524 0.0
C803 C 0.17973 0.48661 0.28259 0.0
C804 C 0.19753 0.47451 0.29258 0.0
C805 C 0.19676 0.46169 0.32495 0.0
C806 C 0.14216 0.49855 0.2956 0.0
C807 C 0.21731 0.475 0.26895 0.0
C808 C 0.17285 0.50547 0.18123 0.0
C809 C 0.17914 0.5265 0.18407 0.0
C810 C 0.17332 0.49218 0.21297 0.0
C811 C 0.18018 0.50018 0.24835 0.0
C812 C 0.18686 0.52131 0.25128 0.0
C813 C 0.18627 0.53423 0.21906 0.0
C814 C 0.16619 0.46968 0.20877 0.0
C815 C 0.1942 0.53038 0.28861 0.0
H816 H 0.14707 0.47218 0.35491 0.0
H817 H 0.21028 0.45221 0.33243 0.0
H818 H 0.14622 0.51549 0.29493 0.0
H819 H 0.13638 0.49428 0.2669 0.0
H820 H 0.12922 0.49617 0.31631 0.0
H821 H 0.22981 0.46473 0.28074 0.0
H822 H 0.21379 0.46986 0.23953 0.0
H823 H 0.22342 0.49129 0.26723 0.0
H824 H 0.16759 0.49938 0.1541 0.0
H825 H 0.1909 0.55055 0.22149 0.0
H826 H 0.15231 0.46681 0.22709 0.0
H827 H 0.17877 0.45886 0.21834 0.0
H828 H 0.16197 0.46574 0.17901 0.0
H829 H 0.18123 0.52983 0.30962 0.0
H830 H 0.19956 0.54691 0.28578 0.0
H831 H 0.20729 0.52086 0.30022 0.0
C832 C 0.29193 0.22679 0.37955 0.0
C833 C 0.29843 0.2336 0.34357 0.0
C834 C 0.27807 0.23884 0.40139 0.0
C835 C 0.27073 0.25822 0.38695 0.0
C836 C 0.27622 0.26452 0.34965 0.0
C837 C 0.28999 0.25204 0.32825 0.0
C838 C 0.2723 0.23143 0.44078 0.0
C839 C 0.26869 0.28511 0.33331 0.0
C840 C 0.22675 0.28737 0.43711 0.0
C841 C 0.2381 0.30196 0.45882 0.0
C842 C 0.23713 0.27277 0.41392 0.0
C843 C 0.25932 0.27291 0.4123 0.0
C844 C 0.27084 0.28732 0.43474 0.0
C845 C 0.26008 0.30163 0.45781 0.0
C846 C 0.22437 0.25754 0.39055 0.0
C847 C 0.29456 0.28788 0.43387 0.0
H848 H 0.29828 0.21235 0.39112 0.0
H849 H 0.29509 0.25729 0.30046 0.0
H850 H 0.28011 0.24155 0.46218 0.0
H851 H 0.25512 0.23273 0.44539 0.0
H852 H 0.27716 0.21491 0.44587 0.0
H853 H 0.27247 0.28662 0.30263 0.0
H854 H 0.25148 0.28675 0.33706 0.0
H855 H 0.27624 0.29828 0.34876 0.0
H856 H 0.20974 0.2878 0.43731 0.0
H857 H 0.26889 0.31274 0.47484 0.0
H858 H 0.22959 0.2412 0.39609 0.0
H859 H 0.22688 0.26066 0.35989 0.0
H860 H 0.20729 0.25868 0.39668 0.0
H861 H 0.30099 0.27235 0.44212 0.0
H862 H 0.30114 0.29998 0.45324 0.0
H863 H 0.30007 0.29124 0.40459 0.0
C864 C 0.75723 0.29243 0.59562 0.0
C865 C 0.75689 0.31389 0.60496 0.0
C866 C 0.74397 0.27806 0.614 0.0
C867 C 0.73064 0.28513 0.64347 0.0
C868 C 0.73064 0.30655 0.65392 0.0
C869 C 0.74335 0.32071 0.63399 0.0
C870 C 0.74391 0.25541 0.60132 0.0
C871 C 0.717 0.31459 0.68588 0.0
C872 C 0.68089 0.25524 0.66646 0.0
C873 C 0.68714 0.24275 0.69738 0.0
C874 C 0.69505 0.26864 0.64814 0.0
C875 C 0.7158 0.27038 0.66201 0.0
C876 C 0.72216 0.25837 0.69382 0.0
C877 C 0.70785 0.24445 0.71076 0.0
C878 C 0.68779 0.28089 0.6138 0.0
C879 C 0.74401 0.26034 0.71009 0.0
H880 H 0.76787 0.28675 0.57396 0.0
H881 H 0.7424 0.33723 0.64104 0.0
H882 H 0.748 0.24499 0.62544 0.0
H883 H 0.72792 0.25094 0.5917 0.0
H884 H 0.75513 0.25246 0.57777 0.0
H885 H 0.72044 0.33123 0.69302 0.0
H886 H 0.70021 0.31334 0.67784 0.0
H887 H 0.71933 0.30488 0.71173 0.0
H888 H 0.66482 0.25466 0.65646 0.0
H889 H 0.71302 0.23476 0.73425 0.0
H890 H 0.69847 0.27795 0.58947 0.0
H891 H 0.68831 0.29796 0.61991 0.0
H892 H 0.67154 0.27671 0.60514 0.0
H893 H 0.7558 0.25562 0.68855 0.0
H894 H 0.74623 0.2505 0.73583 0.0
H895 H 0.74724 0.27695 0.71758 0.0
C896 C 0.75241 0.68398 0.90763 0.0
C897 C 0.75157 0.6832 0.94741 0.0
C898 C 0.73833 0.69638 0.88691 0.0
C899 C 0.72299 0.70823 0.90646 0.0
C900 C 0.72184 0.70732 0.9466 0.0
C901 C 0.73617 0.69477 0.96665 0.0
C902 C 0.73995 0.69688 0.84412 0.0
C903 C 0.70563 0.71976 0.96832 0.0
C904 C 0.69987 0.75547 0.8561 0.0
C905 C 0.68063 0.74749 0.84321 0.0
C906 C 0.71382 0.74284 0.87674 0.0
C907 C 0.70832 0.72178 0.8848 0.0
C908 C 0.68899 0.71358 0.87169 0.0
C909 C 0.67539 0.72653 0.85094 0.0
C910 C 0.73436 0.75208 0.89018 0.0
C911 C 0.68264 0.69116 0.87972 0.0
H912 H 0.76402 0.67472 0.8926 0.0
H913 H 0.73555 0.69427 0.9974 0.0
H914 H 0.72488 0.69181 0.83125 0.0
H915 H 0.743 0.71316 0.83436 0.0
H916 H 0.75268 0.68657 0.83327 0.0
H917 H 0.70657 0.717 -0.00058 0.0
H918 H 0.70779 0.73678 0.96282 0.0
H919 H 0.68963 0.71554 0.95845 0.0
H920 H 0.70383 0.77177 0.85081 0.0
H921 H 0.66061 0.72024 0.84073 0.0
H922 H 0.74768 0.74282 0.87872 0.0
H923 H 0.73529 0.75124 0.92161 0.0
H924 H 0.73631 0.76871 0.88133 0.0
H925 H 0.6944 0.68021 0.86754 0.0
H926 H 0.66697 0.68727 0.86777 0.0
H927 H 0.68227 0.68838 0.91082 0.0
C928 C 0.22729 0.71014 0.10679 0.0
C929 C 0.23737 0.69231 0.09211 0.0
C930 C 0.23844 0.72504 0.12812 0.0
C931 C 0.26008 0.72186 0.13517 0.0
C932 C 0.27043 0.70417 0.11965 0.0
C933 C 0.25898 0.68971 0.09808 0.0
C934 C 0.22701 0.7439 0.14382 0.0
C935 C 0.29352 0.70026 0.1265 0.0
C936 C 0.29771 0.76479 0.1643 0.0
C937 C 0.30026 0.76049 0.20304 0.0
C938 C 0.28358 0.75319 0.14223 0.0
C939 C 0.27207 0.7367 0.15931 0.0
C940 C 0.27385 0.73301 0.19888 0.0
C941 C 0.28787 0.74512 0.22042 0.0
C942 C 0.2818 0.75786 0.10031 0.0
C943 C 0.26193 0.71545 0.21799 0.0
H944 H 0.21054 0.71212 0.10262 0.0
H945 H 0.26692 0.67616 0.08623 0.0
H946 H 0.22678 0.74313 0.17528 0.0
H947 H 0.23534 0.75855 0.13583 0.0
H948 H 0.21056 0.74486 0.13345 0.0
H949 H 0.29918 0.68575 0.11231 0.0
H950 H 0.3029 0.71373 0.11595 0.0
H951 H 0.29655 0.69884 0.15743 0.0
H952 H 0.30719 0.77692 0.15112 0.0
H953 H 0.28995 0.74188 0.25042 0.0
H954 H 0.26508 0.75877 0.09167 0.0
H955 H 0.28913 0.74496 0.08382 0.0
H956 H 0.28969 0.77282 0.09253 0.0
H957 H 0.24501 0.71627 0.21066 0.0
H958 H 0.26357 0.71589 0.24939 0.0
H959 H 0.26791 0.70012 0.20763 0.0
C960 C 0.37061 0.95386 0.24423 0.0
C961 C 0.35993 0.94277 0.27273 0.0
C962 C 0.37037 0.97583 0.24322 0.0
C963 C 0.35923 0.98701 0.27148 0.0
C964 C 0.34798 0.97595 0.29981 0.0
C965 C 0.3485 0.95392 0.30014 0.0
C966 C 0.38265 0.98708 0.21267 0.0
C967 C 0.3359 0.98739 0.33034 0.0
C968 C 0.3791 0.04181 0.29236 0.0
C969 C 0.36493 0.0543 0.27186 0.0
C970 C 0.37712 0.01993 0.29309 0.0
C971 C 0.36059 0.01026 0.27272 0.0
C972 C 0.34607 0.02274 0.25231 0.0
C973 C 0.34843 0.04466 0.25207 0.0
C974 C 0.39301 0.00712 0.31501 0.0
C975 C 0.32824 0.01293 0.23034 0.0
H976 H 0.37977 0.94535 0.22334 0.0
H977 H 0.34006 0.9454 0.32199 0.0
H978 H 0.37244 -0.00151 0.19765 0.0
H979 H 0.39568 0.99611 0.22577 0.0
H980 H 0.3894 0.97608 0.19146 0.0
H981 H 0.32687 0.9765 0.34879 0.0
H982 H 0.34694 0.99646 0.34838 0.0
H983 H 0.32486 -0.00121 0.31735 0.0
H984 H 0.39209 0.04915 0.3072 0.0
H985 H 0.33733 0.05427 0.23651 0.0
H986 H 0.40181 0.99679 0.29526 0.0
H987 H 0.38491 0.99683 0.33577 0.0
H988 H 0.40443 0.01712 0.33054 0.0
H989 H 0.33461 0.00275 0.20752 0.0
H990 H 0.31779 0.02488 0.21726 0.0
H991 H 0.31872 0.00278 0.24932 0.0
C992 C 0.95619 0.37035 0.47862 0.0
C993 C 0.94366 0.3588 0.50382 0.0
C994 C 0.97814 0.36867 0.47953 0.0
C995 C 0.98774 0.35512 0.50627 0.0
C996 C 0.97513 0.34252 0.53027 0.0
C997 C 0.95322 0.34453 0.52877 0.0
C998 C 0.99107 0.38234 0.45342 0.0
C999 C 0.98479 0.32778 0.55895 0.0
C1000 C 0.04601 0.34412 0.49458 0.0
C1001 C 0.05481 0.35894 0.51938 0.0
C1002 C 0.02415 0.34234 0.49049 0.0
C1003 C 0.01085 0.35574 0.51168 0.0
C1004 C 0.01964 0.37039 0.53739 0.0
C1005 C 0.0415 0.37182 0.54089 0.0
C1006 C 0.01529 0.32648 0.46297 0.0
C1007 C 0.00597 0.38497 0.56048 0.0
H1008 H 0.94891 0.38154 0.45953 0.0
H1009 H 0.94355 0.33535 0.54792 0.0
H1010 H -0.00056 0.39442 0.47037 0.0
H1011 H 0.00315 0.37283 0.43862 0.0
H1012 H 0.98127 0.39043 0.4318 0.0
H1013 H 0.97289 0.31743 0.57245 0.0
H1014 H 0.99694 0.31783 0.54532 0.0
H1015 H 0.99267 0.33702 0.58153 0.0
H1016 H 0.05623 0.33398 0.47817 0.0
H1017 H 0.04819 0.38355 0.55963 0.0
H1018 H 0.00678 0.33471 0.43985 0.0
H1019 H 0.00378 0.31618 0.47756 0.0
H1020 H 0.02771 0.3165 0.4501 0.0
H1021 H 0.9969 0.39537 0.54123 0.0
H1022 H 0.01526 0.39494 0.58018 0.0
H1023 H 0.99447 0.37578 0.57734 0.0
C1024 C 0.6469 0.95153 0.74017 0.0
C1025 C 0.63734 0.94078 0.77035 0.0
C1026 C 0.64783 0.97356 0.73976 0.0
C1027 C 0.63892 0.98505 0.77017 0.0
C1028 C 0.63005 0.97426 0.80142 0.0
C1029 C 0.62934 0.95228 0.80109 0.0
C1030 C 0.65753 0.98454 0.70606 0.0
C1031 C 0.62033 0.98595 0.83435 0.0
C1032 C 0.64965 0.04331 0.78336 0.0
C1033 C 0.63151 0.05221 0.76747 0.0
C1034 C 0.6526 0.02145 0.78365 0.0
C1035 C 0.63699 0.00826 0.76783 0.0
C1036 C 0.61881 0.01718 0.7513 0.0
C1037 C 0.61629 0.03902 0.75139 0.0
C1038 C 0.6722 0.01245 0.80141 0.0
C1039 C 0.60174 0.00364 0.7343 0.0
H1040 H 0.65335 0.94272 0.71657 0.0
H1041 H 0.62164 0.94413 0.82427 0.0
H1042 H 0.64512 0.99284 0.6898 0.0
H1043 H 0.66898 0.99655 0.71567 0.0
H1044 H 0.66562 0.97342 0.68667 0.0
H1045 H 0.61575 0.97527 0.85789 0.0
H1046 H 0.63143 0.99784 0.84555 0.0
H1047 H 0.60611 0.99443 0.82451 0.0
H1048 H 0.66157 0.05345 0.79547 0.0
H1049 H 0.60207 0.04576 0.73963 0.0
H1050 H 0.68033 0.002 0.78092 0.0
H1051 H 0.66794 0.00273 0.8264 0.0
H1052 H 0.68332 0.02486 0.81072 0.0
H1053 H 0.60845 0.99312 0.71231 0.0
H1054 H 0.589 0.0131 0.72118 0.0
H1055 H 0.59478 0.99352 0.75664 0.0
C1056 C 0.95455 0.64443 0.07076 0.0
C1057 C 0.94228 0.64197 0.03801 0.0
C1058 C 0.97653 0.64515 0.06847 0.0
C1059 C 0.9864 0.64315 0.03262 0.0
C1060 C 0.97406 0.64173 -0.00068 0.0
C1061 C 0.95213 0.6412 0.00242 0.0
C1062 C 0.98919 0.64692 0.10457 0.0
C1063 C 0.98399 0.63943 0.9606 0.0
C1064 C 0.04488 0.6538 0.02232 0.0
C1065 C 0.05314 0.63346 0.02537 0.0
C1066 C 0.02314 0.65731 0.02494 0.0
C1067 C 0.00947 0.64004 0.03031 0.0
C1068 C 0.01776 0.61947 0.03302 0.0
C1069 C 0.03949 0.61645 0.03061 0.0
C1070 C 0.01482 0.67945 0.02219 0.0
C1071 C 0.00367 0.6006 0.0383 0.0
H1072 H 0.94695 0.64528 0.09827 0.0
H1073 H 0.94273 0.63904 0.97705 0.0
H1074 H 0.9972 0.63177 0.11031 0.0
H1075 H 0.00155 0.65909 0.10152 0.0
H1076 H 0.97924 0.65088 0.12947 0.0
H1077 H 0.9723 0.6408 0.93732 0.0
H1078 H 0.99633 0.65149 0.95635 0.0
H1079 H 0.99168 0.62383 0.95848 0.0
H1080 H 0.05545 0.66698 0.01854 0.0
H1081 H 0.04583 0.60068 0.03242 0.0
H1082 H 0.00599 0.68345 0.04837 0.0
H1083 H 0.00369 0.68073 -0.00193 0.0
H1084 H 0.02756 0.69117 0.0182 0.0
H1085 H 0.99443 0.60228 0.06484 0.0
H1086 H 0.01265 0.58566 0.03974 0.0
H1087 H 0.99233 0.59956 0.01446 0.0
C1088 C 0.53462 0.19993 0.9714 0.0
C1089 C 0.53114 0.1871 0.93966 0.0
C1090 C 0.51959 0.20144 0.00045 0.0
C1091 C 0.50066 0.18987 0.99756 0.0
C1092 C 0.49682 0.17739 0.96506 0.0
C1093 C 0.5121 0.17617 0.93652 0.0
C1094 C 0.52422 0.21488 0.03474 0.0
C1095 C 0.47679 0.16489 0.96086 0.0
C1096 C 0.47232 0.17318 0.08717 0.0
C1097 C 0.45544 0.1873 0.08831 0.0
C1098 C 0.48733 0.17412 0.05815 0.0
C1099 C 0.48545 0.18961 0.02955 0.0
C1100 C 0.46867 0.20419 0.03084 0.0
C1101 C 0.45384 0.20287 0.06029 0.0
C1102 C 0.50505 0.15835 0.05786 0.0
C1103 C 0.46619 0.2209 0.00077 0.0
H1104 H 0.54935 0.20834 0.97402 0.0
H1105 H 0.50915 0.16657 0.91166 0.0
H1106 H 0.51109 0.22596 0.03997 0.0
H1107 H 0.52567 0.20479 0.06029 0.0
H1108 H 0.53897 0.22403 0.03143 0.0
H1109 H 0.47573 0.15689 0.93289 0.0
H1110 H 0.47591 0.15283 0.98355 0.0
H1111 H 0.46296 0.17531 0.96418 0.0
H1112 H 0.4739 0.1614 0.10923 0.0
H1113 H 0.44078 0.21378 0.06101 0.0
H1114 H 0.52039 0.1666 0.0576 0.0
H1115 H 0.50422 0.14869 0.03169 0.0
H1116 H 0.50459 0.1477 0.08284 0.0
H1117 H 0.48077 0.23036 -0.00143 0.0
H1118 H 0.45283 0.2316 0.00678 0.0
H1119 H 0.46359 0.21342 0.9727 0.0
C1120 C 0.8129 0.54261 0.24041 0.0
C1121 C 0.80272 0.54033 0.20531 0.0
C1122 C 0.81173 0.52689 0.26817 0.0
C1123 C 0.7998 0.50856 0.26095 0.0
C1124 C 0.78851 0.50666 0.22653 0.0
C1125 C 0.79024 0.52249 0.19897 0.0
C1126 C 0.82404 0.52948 0.30453 0.0
C1127 C 0.77534 0.48751 0.21812 0.0
C1128 C 0.81841 0.45987 0.31277 0.0
C1129 C 0.80524 0.45967 0.3447 0.0
C1130 C 0.81638 0.47535 0.28472 0.0
C1131 C 0.80054 0.49082 0.28831 0.0
C1132 C 0.78644 0.49005 0.31932 0.0
C1133 C 0.78906 0.47459 0.34734 0.0
C1134 C 0.83175 0.47566 0.25206 0.0
C1135 C 0.76912 0.50605 0.32372 0.0
H1136 H 0.8222 0.55654 0.24588 0.0
H1137 H 0.78247 0.52044 0.17184 0.0
H1138 H 0.8136 0.52742 0.32946 0.0
H1139 H 0.83636 0.51718 0.30625 0.0
H1140 H 0.83173 0.5451 0.30653 0.0
H1141 H 0.76553 0.48959 0.1923 0.0
H1142 H 0.78572 0.47373 0.21376 0.0
H1143 H 0.76491 0.48386 0.2425 0.0
H1144 H 0.83064 0.44813 0.31004 0.0
H1145 H 0.77891 0.47472 0.37203 0.0
H1146 H 0.84124 0.49026 0.2532 0.0
H1147 H 0.82322 0.47568 0.2246 0.0
H1148 H 0.84259 0.462 0.25257 0.0
H1149 H 0.77603 0.52163 0.33021 0.0
H1150 H 0.75803 0.50184 0.34685 0.0
H1151 H 0.76018 0.50764 0.29682 0.0
C1152 C 0.53233 0.798 0.57161 0.0
C1153 C 0.53044 0.81285 0.60079 0.0
C1154 C 0.51735 0.79686 0.54244 0.0
C1155 C 0.50006 0.81084 0.54269 0.0
C1156 C 0.49786 0.82556 0.57252 0.0
C1157 C 0.5131 0.82641 0.60116 0.0
C1158 C 0.52025 0.78104 0.51095 0.0
C1159 C 0.47956 0.84063 0.57388 0.0
C1160 C 0.47321 0.82521 0.45033 0.0
C1161 C 0.45482 0.81315 0.45206 0.0
C1162 C 0.48825 0.82424 0.47928 0.0
C1163 C 0.48481 0.8109 0.51079 0.0
C1164 C 0.46647 0.79835 0.51241 0.0
C1165 C 0.45168 0.79959 0.4829 0.0
C1166 C 0.5077 0.83774 0.47639 0.0
C1167 C 0.46227 0.78399 0.54567 0.0
H1168 H 0.54578 0.78756 0.57116 0.0
H1169 H 0.51139 0.83765 0.62408 0.0
H1170 H 0.50599 0.77117 0.50808 0.0
H1171 H 0.5225 0.78934 0.48354 0.0
H1172 H 0.53399 0.77064 0.5159 0.0
H1173 H 0.47967 0.85048 0.59991 0.0
H1174 H 0.47999 0.85112 0.54874 0.0
H1175 H 0.46453 0.83183 0.57278 0.0
H1176 H 0.47589 0.8354 0.42613 0.0
H1177 H 0.43744 0.7903 0.48437 0.0
H1178 H 0.52198 0.82784 0.4786 0.0
H1179 H 0.50811 0.84908 0.5003 0.0
H1180 H 0.50837 0.84667 0.44931 0.0
H1181 H 0.47568 0.77311 0.54984 0.0
H1182 H 0.44773 0.77459 0.54181 0.0
H1183 H 0.46071 0.79341 0.57202 0.0
C1184 C 0.16978 0.52731 0.83222 0.0
C1185 C 0.18635 0.54135 0.83893 0.0
C1186 C 0.17082 0.51254 0.80283 0.0
C1187 C 0.18903 0.51152 0.77988 0.0
C1188 C 0.20594 0.52544 0.78666 0.0
C1189 C 0.20434 0.54029 0.81598 0.0
C1190 C 0.15239 0.49805 0.79628 0.0
C1191 C 0.22567 0.52465 0.76294 0.0
C1192 C 0.1957 0.46043 0.72576 0.0
C1193 C 0.18761 0.46582 0.69 0.0
C1194 C 0.19711 0.47541 0.75491 0.0
C1195 C 0.19 0.49614 0.74824 0.0
C1196 C 0.18243 0.50184 0.71191 0.0
C1197 C 0.18152 0.48667 0.68317 0.0
C1198 C 0.20556 0.46886 0.79319 0.0
C1199 C 0.17458 0.52376 0.70376 0.0
H1200 H 0.15602 0.52765 0.85033 0.0
H1201 H 0.21715 0.55119 0.82072 0.0
H1202 H 0.14637 0.50005 0.76692 0.0
H1203 H 0.15744 0.48147 0.79927 0.0
H1204 H 0.13931 0.501 0.81648 0.0
H1205 H 0.23768 0.53608 0.77273 0.0
H1206 H 0.23253 0.50865 0.76392 0.0
H1207 H 0.22186 0.52806 0.73283 0.0
H1208 H 0.20033 0.44436 0.73142 0.0
H1209 H 0.17577 0.49112 0.65534 0.0
H1210 H 0.19275 0.46929 0.81453 0.0
H1211 H 0.21787 0.47999 0.80277 0.0
H1212 H 0.21229 0.45277 0.79269 0.0
H1213 H 0.16066 0.52714 0.72169 0.0
H1214 H 0.17012 0.52591 0.67351 0.0
H1215 H 0.18679 0.5355 0.7111 0.0
loop_
_geom_bond_atom_site_label_1
_geom_bond_atom_site_label_2
_geom_bond_distance
_geom_bond_site_symmetry_2
_ccdc_geom_bond_type
Li0 N17 1.990 . S
Li0 O60 1.956 . S
Li0 O61 1.970 . S
Li0 O62 1.961 . S
Li1 N25 1.990 . S
Li1 O60 1.970 . S
Li1 O61 1.956 . S
Li1 O63 1.961 . S
Li2 N47 1.990 . S
Li2 O60 1.961 . S
Li2 O62 1.956 . S
Li2 O63 1.970 . S
Li3 N53 1.990 . S
Li3 O61 1.961 . S
Li3 O62 1.970 . S
Li3 O63 1.956 . S
C4 C6 1.348 . S
C4 C7 1.356 . S
C4 O60 1.325 . S
N5 C8 1.314 . S
N5 C9 1.279 . S
C6 C4 1.348 . S
C6 C8 1.353 . S
C6 H64 0.929 . S
C7 C4 1.356 . S
C7 C9 1.358 . S
C7 H65 0.930 . S
C8 N5 1.314 . S
C8 C6 1.353 . S
C8 H66 0.930 . S
C9 N5 1.279 . S
C9 C7 1.358 . S
C9 H67 0.930 . S
C10 C13 1.348 . S
C10 C14 1.356 . S
C10 O61 1.325 . S
C11 N12 1.279 . S
C11 C14 1.358 . S
C11 H68 0.930 . S
N12 C11 1.279 . S
N12 C15 1.314 . S
C13 C10 1.348 . S
C13 C15 1.353 . S
C13 H69 0.929 . S
C14 C10 1.356 . S
C14 C11 1.358 . S
C14 H70 0.930 . S
C15 N12 1.314 . S
C15 C13 1.353 . S
C15 H71 0.930 . S
C16 N17 1.314 . S
C16 C21 1.353 . S
C16 H22 0.930 . S
N17 Li0 1.990 . S
N17 C16 1.314 . S
N17 C19 1.279 . S
C18 C19 1.358 . S
C18 C20 1.356 . S
C18 H72 0.930 . S
C19 N17 1.279 . S
C19 C18 1.358 . S
C19 H23 0.930 . S
C20 C18 1.356 . S
C20 C21 1.348 . S
C21 C16 1.353 . S
C21 C20 1.348 . S
C21 H73 0.929 . S
H22 C16 0.930 . S
H23 C19 0.930 . S
C24 N25 1.314 . S
C24 C26 1.353 . S
C24 H30 0.930 . S
N25 Li1 1.990 . S
N25 C24 1.314 . S
N25 C28 1.279 . S
C26 C24 1.353 . S
C26 C29 1.348 . S
C26 H74 0.929 . S
C27 C28 1.358 . S
C27 C29 1.356 . S
C27 H75 0.930 . S
C28 N25 1.279 . S
C28 C27 1.358 . S
C28 H31 0.930 . S
C29 C26 1.348 . S
C29 C27 1.356 . S
H30 C24 0.930 . S
H31 C28 0.930 . S
C32 C34 1.348 . S
C32 C35 1.356 . S
C32 O62 1.325 . S
N33 C36 1.314 . S
N33 C37 1.279 . S
C34 C32 1.348 . S
C34 C36 1.353 . S
C34 H76 0.929 . S
C35 C32 1.356 . S
C35 C37 1.358 . S
C35 H77 0.930 . S
C36 N33 1.314 . S
C36 C34 1.353 . S
C36 H78 0.930 . S
C37 N33 1.279 . S
C37 C35 1.358 . S
C37 H79 0.930 . S
C38 C39 1.348 . S
C38 C40 1.356 . S
C38 O63 1.325 . S
C39 C38 1.348 . S
C39 C41 1.353 . S
C39 H80 0.929 . S
C40 C38 1.356 . S
C40 C42 1.358 . S
C40 H81 0.930 . S
C41 C39 1.353 . S
C41 N43 1.314 . S
C41 H82 0.930 . S
C42 C40 1.358 . S
C42 N43 1.279 . S
C42 H83 0.930 . S
N43 C41 1.314 . S
N43 C42 1.279 . S
C44 C46 1.353 . S
C44 N47 1.314 . S
C44 H50 0.930 . S
C45 N47 1.279 . S
C45 C48 1.358 . S
C45 H51 0.930 . S
C46 C44 1.353 . S
C46 C49 1.348 . S
C46 H84 0.929 . S
N47 Li2 1.990 . S
N47 C44 1.314 . S
N47 C45 1.279 . S
C48 C45 1.358 . S
C48 C49 1.356 . S
C48 H85 0.930 . S
C49 C46 1.348 . S
C49 C48 1.356 . S
H50 C44 0.930 . S
H51 C45 0.930 . S
C52 N53 1.314 . S
C52 C54 1.353 . S
C52 H58 0.930 . S
N53 Li3 1.990 . S
N53 C52 1.314 . S
N53 C56 1.279 . S
C54 C52 1.353 . S
C54 C57 1.348 . S
C54 H86 0.929 . S
C55 C56 1.358 . S
C55 C57 1.356 . S
C55 H87 0.930 . S
C56 N53 1.279 . S
C56 C55 1.358 . S
C56 H59 0.930 . S
C57 C54 1.348 . S
C57 C55 1.356 . S
H58 C52 0.930 . S
H59 C56 0.930 . S
O60 Li0 1.956 . S
O60 Li1 1.970 . S
O60 Li2 1.961 . S
O60 C4 1.325 . S
O61 Li0 1.970 . S
O61 Li1 1.956 . S
O61 Li3 1.961 . S
O61 C10 1.325 . S
O62 Li0 1.961 . S
O62 Li2 1.956 . S
O62 Li3 1.970 . S
O62 C32 1.325 . S
O63 Li1 1.961 . S
O63 Li2 1.970 . S
O63 Li3 1.956 . S
O63 C38 1.325 . S
H64 C6 0.929 . S
H65 C7 0.930 . S
H66 C8 0.930 . S
H67 C9 0.930 . S
H68 C11 0.930 . S
H69 C13 0.929 . S
H70 C14 0.930 . S
H71 C15 0.930 . S
H72 C18 0.930 . S
H73 C21 0.929 . S
H74 C26 0.929 . S
H75 C27 0.930 . S
H76 C34 0.929 . S
H77 C35 0.930 . S
H78 C36 0.930 . S
H79 C37 0.930 . S
H80 C39 0.929 . S
H81 C40 0.930 . S
H82 C41 0.930 . S
H83 C42 0.930 . S
H84 C46 0.929 . S
H85 C48 0.930 . S
H86 C54 0.929 . S
H87 C55 0.930 . S
Li88 N105 1.990 . S
Li88 O148 1.956 . S
Li88 O149 1.970 . S
Li88 O150 1.961 . S
Li89 N113 1.990 . S
Li89 O148 1.970 . S
Li89 O149 1.956 . S
Li89 O151 1.961 . S
Li90 N135 1.990 . S
Li90 O148 1.961 . S
Li90 O150 1.956 . S
Li90 O151 1.970 . S
Li91 N141 1.990 . S
Li91 O149 1.961 . S
Li91 O150 1.970 . S
Li91 O151 1.956 . S
C92 C94 1.348 . S
C92 C95 1.356 . S
C92 O148 1.325 . S
N93 C96 1.314 . S
N93 C97 1.279 . S
C94 C92 1.348 . S
C94 C96 1.353 . S
C94 H152 0.929 . S
C95 C92 1.356 . S
C95 C97 1.358 . S
C95 H153 0.930 . S
C96 N93 1.314 . S
C96 C94 1.353 . S
C96 H154 0.930 . S
C97 N93 1.279 . S
C97 C95 1.358 . S
C97 H155 0.930 . S
C98 C101 1.348 . S
C98 C102 1.356 . S
C98 O149 1.325 . S
C99 N100 1.279 . S
C99 C102 1.358 . S
C99 H156 0.930 . S
N100 C99 1.279 . S
N100 C103 1.314 . S
C101 C98 1.348 . S
C101 C103 1.353 . S
C101 H157 0.929 . S
C102 C98 1.356 . S
C102 C99 1.358 . S
C102 H158 0.930 . S
C103 N100 1.314 . S
C103 C101 1.353 . S
C103 H159 0.930 . S
C104 N105 1.314 . S
C104 C109 1.353 . S
C104 H110 0.930 . S
N105 Li88 1.990 . S
N105 C104 1.314 . S
N105 C107 1.279 . S
C106 C107 1.358 . S
C106 C108 1.356 . S
C106 H160 0.930 . S
C107 N105 1.279 . S
C107 C106 1.358 . S
C107 H111 0.930 . S
C108 C106 1.356 . S
C108 C109 1.348 . S
C109 C104 1.353 . S
C109 C108 1.348 . S
C109 H161 0.929 . S
H110 C104 0.930 . S
H111 C107 0.930 . S
C112 N113 1.314 . S
C112 C114 1.353 . S
C112 H118 0.930 . S
N113 Li89 1.990 . S
N113 C112 1.314 . S
N113 C116 1.279 . S
C114 C112 1.353 . S
C114 C117 1.348 . S
C114 H162 0.929 . S
C115 C116 1.358 . S
C115 C117 1.356 . S
C115 H163 0.930 . S
C116 N113 1.279 . S
C116 C115 1.358 . S
C116 H119 0.930 . S
C117 C114 1.348 . S
C117 C115 1.356 . S
H118 C112 0.930 . S
H119 C116 0.930 . S
C120 C122 1.348 . S
C120 C123 1.356 . S
C120 O150 1.325 . S
N121 C124 1.314 . S
N121 C125 1.279 . S
C122 C120 1.348 . S
C122 C124 1.353 . S
C122 H164 0.929 . S
C123 C120 1.356 . S
C123 C125 1.358 . S
C123 H165 0.930 . S
C124 N121 1.314 . S
C124 C122 1.353 . S
C124 H166 0.930 . S
C125 N121 1.279 . S
C125 C123 1.358 . S
C125 H167 0.930 . S
C126 C127 1.348 . S
C126 C128 1.356 . S
C126 O151 1.325 . S
C127 C126 1.348 . S
C127 C129 1.353 . S
C127 H168 0.929 . S
C128 C126 1.356 . S
C128 C130 1.358 . S
C128 H169 0.930 . S
C129 C127 1.353 . S
C129 N131 1.314 . S
C129 H170 0.930 . S
C130 C128 1.358 . S
C130 N131 1.279 . S
C130 H171 0.930 . S
N131 C129 1.314 . S
N131 C130 1.279 . S
C132 C134 1.353 . S
C132 N135 1.314 . S
C132 H138 0.930 . S
C133 N135 1.279 . S
C133 C136 1.358 . S
C133 H139 0.930 . S
C134 C132 1.353 . S
C134 C137 1.348 . S
C134 H172 0.929 . S
N135 Li90 1.990 . S
N135 C132 1.314 . S
N135 C133 1.279 . S
C136 C133 1.358 . S
C136 C137 1.356 . S
C136 H173 0.930 . S
C137 C134 1.348 . S
C137 C136 1.356 . S
H138 C132 0.930 . S
H139 C133 0.930 . S
C140 N141 1.314 . S
C140 C142 1.353 . S
C140 H146 0.930 . S
N141 Li91 1.990 . S
N141 C140 1.314 . S
N141 C144 1.279 . S
C142 C140 1.353 . S
C142 C145 1.348 . S
C142 H174 0.929 . S
C143 C144 1.358 . S
C143 C145 1.356 . S
C143 H175 0.930 . S
C144 N141 1.279 . S
C144 C143 1.358 . S
C144 H147 0.930 . S
C145 C142 1.348 . S
C145 C143 1.356 . S
H146 C140 0.930 . S
H147 C144 0.930 . S
O148 Li88 1.956 . S
O148 Li89 1.970 . S
O148 Li90 1.961 . S
O148 C92 1.325 . S
O149 Li88 1.970 . S
O149 Li89 1.956 . S
O149 Li91 1.961 . S
O149 C98 1.325 . S
O150 Li88 1.961 . S
O150 Li90 1.956 . S
O150 Li91 1.970 . S
O150 C120 1.325 . S
O151 Li89 1.961 . S
O151 Li90 1.970 . S
O151 Li91 1.956 . S
O151 C126 1.325 . S
H152 C94 0.929 . S
H153 C95 0.930 . S
H154 C96 0.930 . S
H155 C97 0.930 . S
H156 C99 0.930 . S
H157 C101 0.929 . S
H158 C102 0.930 . S
H159 C103 0.930 . S
H160 C106 0.930 . S
H161 C109 0.929 . S
H162 C114 0.929 . S
H163 C115 0.930 . S
H164 C122 0.929 . S
H165 C123 0.930 . S
H166 C124 0.930 . S
H167 C125 0.930 . S
H168 C127 0.929 . S
H169 C128 0.930 . S
H170 C129 0.930 . S
H171 C130 0.930 . S
H172 C134 0.929 . S
H173 C136 0.930 . S
H174 C142 0.929 . S
H175 C143 0.930 . S
Li176 N193 1.990 . S
Li176 O236 1.956 . S
Li176 O237 1.970 . S
Li176 O238 1.961 . S
Li177 N201 1.990 . S
Li177 O236 1.970 . S
Li177 O237 1.956 . S
Li177 O239 1.961 . S
Li178 N223 1.990 . S
Li178 O236 1.961 . S
Li178 O238 1.956 . S
Li178 O239 1.970 . S
Li179 N229 1.990 . S
Li179 O237 1.961 . S
Li179 O238 1.970 . S
Li179 O239 1.956 . S
C180 C182 1.348 . S
C180 C183 1.356 . S
C180 O236 1.325 . S
N181 C184 1.314 . S
N181 C185 1.279 . S
C182 C180 1.348 . S
C182 C184 1.353 . S
C182 H240 0.929 . S
C183 C180 1.356 . S
C183 C185 1.358 . S
C183 H241 0.930 . S
C184 N181 1.314 . S
C184 C182 1.353 . S
C184 H242 0.930 . S
C185 N181 1.279 . S
C185 C183 1.358 . S
C185 H243 0.930 . S
C186 C189 1.348 . S
C186 C190 1.356 . S
C186 O237 1.325 . S
C187 N188 1.279 . S
C187 C190 1.358 . S
C187 H244 0.930 . S
N188 C187 1.279 . S
N188 C191 1.314 . S
C189 C186 1.348 . S
C189 C191 1.353 . S
C189 H245 0.929 . S
C190 C186 1.356 . S
C190 C187 1.358 . S
C190 H246 0.930 . S
C191 N188 1.314 . S
C191 C189 1.353 . S
C191 H247 0.930 . S
C192 N193 1.314 . S
C192 C197 1.353 . S
C192 H198 0.930 . S
N193 Li176 1.990 . S
N193 C192 1.314 . S
N193 C195 1.279 . S
C194 C195 1.358 . S
C194 C196 1.356 . S
C194 H248 0.930 . S
C195 N193 1.279 . S
C195 C194 1.358 . S
C195 H199 0.930 . S
C196 C194 1.356 . S
C196 C197 1.348 . S
C197 C192 1.353 . S
C197 C196 1.348 . S
C197 H249 0.929 . S
H198 C192 0.930 . S
H199 C195 0.930 . S
C200 N201 1.314 . S
C200 C202 1.353 . S
C200 H206 0.930 . S
N201 Li177 1.990 . S
N201 C200 1.314 . S
N201 C204 1.279 . S
C202 C200 1.353 . S
C202 C205 1.348 . S
C202 H250 0.929 . S
C203 C204 1.358 . S
C203 C205 1.356 . S
C203 H251 0.930 . S
C204 N201 1.279 . S
C204 C203 1.358 . S
C204 H207 0.930 . S
C205 C202 1.348 . S
C205 C203 1.356 . S
H206 C200 0.930 . S
H207 C204 0.930 . S
C208 C210 1.348 . S
C208 C211 1.356 . S
C208 O238 1.325 . S
N209 C212 1.314 . S
N209 C213 1.279 . S
C210 C208 1.348 . S
C210 C212 1.353 . S
C210 H252 0.929 . S
C211 C208 1.356 . S
C211 C213 1.358 . S
C211 H253 0.930 . S
C212 N209 1.314 . S
C212 C210 1.353 . S
C212 H254 0.930 . S
C213 N209 1.279 . S
C213 C211 1.358 . S
C213 H255 0.930 . S
C214 C215 1.348 . S
C214 C216 1.356 . S
C214 O239 1.325 . S
C215 C214 1.348 . S
C215 C217 1.353 . S
C215 H256 0.929 . S
C216 C214 1.356 . S
C216 C218 1.358 . S
C216 H257 0.930 . S
C217 C215 1.353 . S
C217 N219 1.314 . S
C217 H258 0.930 . S
C218 C216 1.358 . S
C218 N219 1.279 . S
C218 H259 0.930 . S
N219 C217 1.314 . S
N219 C218 1.279 . S
C220 C222 1.353 . S
C220 N223 1.314 . S
C220 H226 0.930 . S
C221 N223 1.279 . S
C221 C224 1.358 . S
C221 H227 0.930 . S
C222 C220 1.353 . S
C222 C225 1.348 . S
C222 H260 0.929 . S
N223 Li178 1.990 . S
N223 C220 1.314 . S
N223 C221 1.279 . S
C224 C221 1.358 . S
C224 C225 1.356 . S
C224 H261 0.930 . S
C225 C222 1.348 . S
C225 C224 1.356 . S
H226 C220 0.930 . S
H227 C221 0.930 . S
C228 N229 1.314 . S
C228 C230 1.353 . S
C228 H234 0.930 . S
N229 Li179 1.990 . S
N229 C228 1.314 . S
N229 C232 1.279 . S
C230 C228 1.353 . S
C230 C233 1.348 . S
C230 H262 0.929 . S
C231 C232 1.358 . S
C231 C233 1.356 . S
C231 H263 0.930 . S
C232 N229 1.279 . S
C232 C231 1.358 . S
C232 H235 0.930 . S
C233 C230 1.348 . S
C233 C231 1.356 . S
H234 C228 0.930 . S
H235 C232 0.930 . S
O236 Li176 1.956 . S
O236 Li177 1.970 . S
O236 Li178 1.961 . S
O236 C180 1.325 . S
O237 Li176 1.970 . S
O237 Li177 1.956 . S
O237 Li179 1.961 . S
O237 C186 1.325 . S
O238 Li176 1.961 . S
O238 Li178 1.956 . S
O238 Li179 1.970 . S
O238 C208 1.325 . S
O239 Li177 1.961 . S
O239 Li178 1.970 . S
O239 Li179 1.956 . S
O239 C214 1.325 . S
H240 C182 0.929 . S
H241 C183 0.930 . S
H242 C184 0.930 . S
H243 C185 0.930 . S
H244 C187 0.930 . S
H245 C189 0.929 . S
H246 C190 0.930 . S
H247 C191 0.930 . S
H248 C194 0.930 . S
H249 C197 0.929 . S
H250 C202 0.929 . S
H251 C203 0.930 . S
H252 C210 0.929 . S
H253 C211 0.930 . S
H254 C212 0.930 . S
H255 C213 0.930 . S
H256 C215 0.929 . S
H257 C216 0.930 . S
H258 C217 0.930 . S
H259 C218 0.930 . S
H260 C222 0.929 . S
H261 C224 0.930 . S
H262 C230 0.929 . S
H263 C231 0.930 . S
Li264 N281 1.990 . S
Li264 O324 1.956 . S
Li264 O325 1.970 . S
Li264 O326 1.961 1_554 S
Li265 N289 1.990 . S
Li265 O324 1.970 . S
Li265 O325 1.956 . S
Li265 O327 1.961 . S
Li266 N311 1.990 . S
Li266 O324 1.961 . S
Li266 O326 1.956 1_554 S
Li266 O327 1.970 . S
Li267 N317 1.990 . S
Li267 O325 1.961 1_556 S
Li267 O326 1.970 . S
Li267 O327 1.956 1_556 S
C268 C270 1.348 . S
C268 C271 1.356 . S
C268 O324 1.325 . S
N269 C272 1.314 . S
N269 C273 1.279 . S
C270 C268 1.348 . S
C270 C272 1.353 . S
C270 H328 0.929 . S
C271 C268 1.356 . S
C271 C273 1.358 . S
C271 H329 0.930 . S
C272 N269 1.314 . S
C272 C270 1.353 . S
C272 H330 0.930 . S
C273 N269 1.279 . S
C273 C271 1.358 . S
C273 H331 0.930 . S
C274 C277 1.348 . S
C274 C278 1.356 . S
C274 O325 1.325 . S
C275 N276 1.279 . S
C275 C278 1.358 . S
C275 H332 0.927 1_554 S
N276 C275 1.279 . S
N276 C279 1.314 . S
C277 C274 1.348 . S
C277 C279 1.353 . S
C277 H333 0.929 . S
C278 C274 1.356 . S
C278 C275 1.358 . S
C278 H334 0.930 . S
C279 N276 1.314 . S
C279 C277 1.353 . S
C279 H335 0.930 . S
C280 N281 1.314 1_556 S
C280 C285 1.353 . S
C280 H286 0.930 . S
N281 Li264 1.990 . S
N281 C280 1.314 1_554 S
N281 C283 1.279 . S
C282 C283 1.358 . S
C282 C284 1.356 . S
C282 H336 0.930 . S
C283 N281 1.279 . S
C283 C282 1.358 . S
C283 H287 0.930 . S
C284 C282 1.356 . S
C284 C285 1.348 1_554 S
C285 C280 1.353 . S
C285 C284 1.348 1_556 S
C285 H337 0.929 . S
H286 C280 0.930 . S
H287 C283 0.930 . S
C288 N289 1.314 . S
C288 C290 1.353 . S
C288 H294 0.930 . S
N289 Li265 1.990 . S
N289 C288 1.314 . S
N289 C292 1.279 . S
C290 C288 1.353 . S
C290 C293 1.348 . S
C290 H338 0.929 . S
C291 C292 1.358 . S
C291 C293 1.356 . S
C291 H339 0.930 . S
C292 N289 1.279 . S
C292 C291 1.358 . S
C292 H295 0.930 . S
C293 C290 1.348 . S
C293 C291 1.356 . S
H294 C288 0.930 . S
H295 C292 0.930 . S
C296 C298 1.348 . S
C296 C299 1.356 . S
C296 O326 1.325 . S
N297 C300 1.314 . S
N297 C301 1.279 . S
C298 C296 1.348 . S
C298 C300 1.353 . S
C298 H340 0.929 . S
C299 C296 1.356 . S
C299 C301 1.358 . S
C299 H341 0.930 . S
C300 N297 1.314 . S
C300 C298 1.353 . S
C300 H342 0.930 . S
C301 N297 1.279 . S
C301 C299 1.358 . S
C301 H343 0.930 . S
C302 C303 1.348 . S
C302 C304 1.356 . S
C302 O327 1.325 . S
C303 C302 1.348 . S
C303 C305 1.353 . S
C303 H344 0.929 . S
C304 C302 1.356 . S
C304 C306 1.358 . S
C304 H345 0.930 . S
C305 C303 1.353 . S
C305 N307 1.314 . S
C305 H346 0.930 . S
C306 C304 1.358 . S
C306 N307 1.279 . S
C306 H347 0.930 . S
N307 C305 1.314 . S
N307 C306 1.279 . S
C308 C310 1.353 . S
C308 N311 1.314 . S
C308 H314 0.930 . S
C309 N311 1.279 . S
C309 C312 1.358 . S
C309 H315 0.930 1_554 S
C310 C308 1.353 . S
C310 C313 1.348 . S
C310 H348 0.929 . S
N311 Li266 1.990 . S
N311 C308 1.314 . S
N311 C309 1.279 . S
C312 C309 1.358 . S
C312 C313 1.356 . S
C312 H349 0.930 . S
C313 C310 1.348 . S
C313 C312 1.356 . S
H314 C308 0.930 . S
H315 C309 0.930 1_556 S
C316 N317 1.314 . S
C316 C318 1.353 . S
C316 H322 0.930 . S
N317 Li267 1.990 . S
N317 C316 1.314 . S
N317 C320 1.279 . S
C318 C316 1.353 . S
C318 C321 1.348 . S
C318 H350 0.929 . S
C319 C320 1.358 . S
C319 C321 1.356 . S
C319 H351 0.930 . S
C320 N317 1.279 . S
C320 C319 1.358 . S
C320 H323 0.930 . S
C321 C318 1.348 . S
C321 C319 1.356 . S
H322 C316 0.930 . S
H323 C320 0.930 . S
O324 Li264 1.956 . S
O324 Li265 1.970 . S
O324 Li266 1.961 . S
O324 C268 1.325 . S
O325 Li264 1.970 . S
O325 Li265 1.956 . S
O325 Li267 1.961 1_554 S
O325 C274 1.325 . S
O326 Li264 1.961 1_556 S
O326 Li266 1.956 1_556 S
O326 Li267 1.970 . S
O326 C296 1.325 . S
O327 Li265 1.961 . S
O327 Li266 1.970 . S
O327 Li267 1.956 1_554 S
O327 C302 1.325 . S
H328 C270 0.929 . S
H329 C271 0.930 . S
H330 C272 0.930 . S
H331 C273 0.930 . S
H332 C275 0.927 1_556 S
H333 C277 0.929 . S
H334 C278 0.930 . S
H335 C279 0.930 . S
H336 C282 0.930 . S
H337 C285 0.929 . S
H338 C290 0.929 . S
H339 C291 0.930 . S
H340 C298 0.929 . S
H341 C299 0.930 . S
H342 C300 0.930 . S
H343 C301 0.930 . S
H344 C303 0.929 . S
H345 C304 0.930 . S
H346 C305 0.930 . S
H347 C306 0.930 . S
H348 C310 0.929 . S
H349 C312 0.930 . S
H350 C318 0.929 . S
H351 C319 0.930 . S
Li352 N369 1.990 . S
Li352 O412 1.956 . S
Li352 O413 1.970 . S
Li352 O414 1.961 . S
Li353 N377 1.990 . S
Li353 O412 1.970 . S
Li353 O413 1.956 . S
Li353 O415 1.961 . S
Li354 N399 1.990 . S
Li354 O412 1.961 . S
Li354 O414 1.956 . S
Li354 O415 1.970 . S
Li355 N405 1.990 . S
Li355 O413 1.961 . S
Li355 O414 1.970 . S
Li355 O415 1.956 . S
C356 C358 1.348 . S
C356 C359 1.356 . S
C356 O412 1.325 . S
N357 C360 1.314 . S
N357 C361 1.279 . S
C358 C356 1.348 . S
C358 C360 1.353 . S
C358 H416 0.929 . S
C359 C356 1.356 . S
C359 C361 1.358 . S
C359 H417 0.930 . S
C360 N357 1.314 . S
C360 C358 1.353 . S
C360 H418 0.930 . S
C361 N357 1.279 . S
C361 C359 1.358 . S
C361 H419 0.930 . S
C362 C365 1.348 . S
C362 C366 1.356 . S
C362 O413 1.325 . S
C363 N364 1.279 . S
C363 C366 1.358 . S
C363 H420 0.930 . S
N364 C363 1.279 . S
N364 C367 1.314 . S
C365 C362 1.348 . S
C365 C367 1.353 . S
C365 H421 0.929 . S
C366 C362 1.356 . S
C366 C363 1.358 . S
C366 H422 0.930 . S
C367 N364 1.314 . S
C367 C365 1.353 . S
C367 H423 0.930 . S
C368 N369 1.314 . S
C368 C373 1.353 . S
C368 H374 0.930 . S
N369 Li352 1.990 . S
N369 C368 1.314 . S
N369 C371 1.279 . S
C370 C371 1.358 . S
C370 C372 1.356 . S
C370 H424 0.930 . S
C371 N369 1.279 . S
C371 C370 1.358 . S
C371 H375 0.930 . S
C372 C370 1.356 . S
C372 C373 1.348 . S
C373 C368 1.353 . S
C373 C372 1.348 . S
C373 H425 0.929 . S
H374 C368 0.930 . S
H375 C371 0.930 . S
C376 N377 1.314 . S
C376 C378 1.353 . S
C376 H382 0.930 . S
N377 Li353 1.990 . S
N377 C376 1.314 . S
N377 C380 1.279 . S
C378 C376 1.353 . S
C378 C381 1.348 . S
C378 H426 0.929 . S
C379 C380 1.358 . S
C379 C381 1.356 . S
C379 H427 0.930 . S
C380 N377 1.279 . S
C380 C379 1.358 . S
C380 H383 0.930 . S
C381 C378 1.348 . S
C381 C379 1.356 . S
H382 C376 0.930 . S
H383 C380 0.930 . S
C384 C386 1.348 . S
C384 C387 1.356 . S
C384 O414 1.325 . S
N385 C388 1.314 . S
N385 C389 1.279 . S
C386 C384 1.348 . S
C386 C388 1.353 . S
C386 H428 0.929 . S
C387 C384 1.356 . S
C387 C389 1.358 . S
C387 H429 0.930 . S
C388 N385 1.314 . S
C388 C386 1.353 . S
C388 H430 0.930 . S
C389 N385 1.279 . S
C389 C387 1.358 . S
C389 H431 0.930 . S
C390 C391 1.348 . S
C390 C392 1.356 . S
C390 O415 1.325 . S
C391 C390 1.348 . S
C391 C393 1.353 . S
C391 H432 0.929 . S
C392 C390 1.356 . S
C392 C394 1.358 . S
C392 H433 0.930 . S
C393 C391 1.353 . S
C393 N395 1.314 . S
C393 H434 0.930 . S
C394 C392 1.358 . S
C394 N395 1.279 . S
C394 H435 0.930 . S
N395 C393 1.314 . S
N395 C394 1.279 . S
C396 C398 1.353 . S
C396 N399 1.314 . S
C396 H402 0.930 . S
C397 N399 1.279 . S
C397 C400 1.358 . S
C397 H403 0.930 . S
C398 C396 1.353 . S
C398 C401 1.348 . S
C398 H436 0.929 . S
N399 Li354 1.990 . S
N399 C396 1.314 . S
N399 C397 1.279 . S
C400 C397 1.358 . S
C400 C401 1.356 . S
C400 H437 0.930 . S
C401 C398 1.348 . S
C401 C400 1.356 . S
H402 C396 0.930 . S
H403 C397 0.930 . S
C404 N405 1.314 . S
C404 C406 1.353 . S
C404 H410 0.930 . S
N405 Li355 1.990 . S
N405 C404 1.314 . S
N405 C408 1.279 . S
C406 C404 1.353 . S
C406 C409 1.348 . S
C406 H438 0.929 . S
C407 C408 1.358 . S
C407 C409 1.356 . S
C407 H439 0.930 . S
C408 N405 1.279 . S
C408 C407 1.358 . S
C408 H411 0.930 . S
C409 C406 1.348 . S
C409 C407 1.356 . S
H410 C404 0.930 . S
H411 C408 0.930 . S
O412 Li352 1.956 . S
O412 Li353 1.970 . S
O412 Li354 1.961 . S
O412 C356 1.325 . S
O413 Li352 1.970 . S
O413 Li353 1.956 . S
O413 Li355 1.961 . S
O413 C362 1.325 . S
O414 Li352 1.961 . S
O414 Li354 1.956 . S
O414 Li355 1.970 . S
O414 C384 1.325 . S
O415 Li353 1.961 . S
O415 Li354 1.970 . S
O415 Li355 1.956 . S
O415 C390 1.325 . S
H416 C358 0.929 . S
H417 C359 0.930 . S
H418 C360 0.930 . S
H419 C361 0.930 . S
H420 C363 0.930 . S
H421 C365 0.929 . S
H422 C366 0.930 . S
H423 C367 0.930 . S
H424 C370 0.930 . S
H425 C373 0.929 . S
H426 C378 0.929 . S
H427 C379 0.930 . S
H428 C386 0.929 . S
H429 C387 0.930 . S
H430 C388 0.930 . S
H431 C389 0.930 . S
H432 C391 0.929 . S
H433 C392 0.930 . S
H434 C393 0.930 . S
H435 C394 0.930 . S
H436 C398 0.929 . S
H437 C400 0.930 . S
H438 C406 0.929 . S
H439 C407 0.930 . S
Li440 N457 1.990 . S
Li440 O500 1.956 . S
Li440 O501 1.970 . S
Li440 O502 1.961 . S
Li441 N465 1.990 . S
Li441 O500 1.970 . S
Li441 O501 1.956 . S
Li441 O503 1.961 . S
Li442 N487 1.990 . S
Li442 O500 1.961 . S
Li442 O502 1.956 . S
Li442 O503 1.970 . S
Li443 N493 1.990 . S
Li443 O501 1.961 . S
Li443 O502 1.970 . S
Li443 O503 1.956 . S
C444 C446 1.348 . S
C444 C447 1.356 . S
C444 O500 1.325 . S
N445 C448 1.314 . S
N445 C449 1.279 . S
C446 C444 1.348 . S
C446 C448 1.353 . S
C446 H504 0.929 . S
C447 C444 1.356 . S
C447 C449 1.358 . S
C447 H505 0.930 . S
C448 N445 1.314 . S
C448 C446 1.353 . S
C448 H506 0.930 . S
C449 N445 1.279 . S
C449 C447 1.358 . S
C449 H507 0.930 . S
C450 C453 1.348 . S
C450 C454 1.356 . S
C450 O501 1.325 . S
C451 N452 1.279 . S
C451 C454 1.358 . S
C451 H508 0.930 . S
N452 C451 1.279 . S
N452 C455 1.314 . S
C453 C450 1.348 . S
C453 C455 1.353 . S
C453 H509 0.929 . S
C454 C450 1.356 . S
C454 C451 1.358 . S
C454 H510 0.930 . S
C455 N452 1.314 . S
C455 C453 1.353 . S
C455 H511 0.930 . S
C456 N457 1.314 . S
C456 C461 1.353 . S
C456 H462 0.930 . S
N457 Li440 1.990 . S
N457 C456 1.314 . S
N457 C459 1.279 . S
C458 C459 1.358 . S
C458 C460 1.356 . S
C458 H512 0.930 . S
C459 N457 1.279 . S
C459 C458 1.358 . S
C459 H463 0.930 . S
C460 C458 1.356 . S
C460 C461 1.348 . S
C461 C456 1.353 . S
C461 C460 1.348 . S
C461 H513 0.929 . S
H462 C456 0.930 . S
H463 C459 0.930 . S
C464 N465 1.314 . S
C464 C466 1.353 . S
C464 H470 0.930 . S
N465 Li441 1.990 . S
N465 C464 1.314 . S
N465 C468 1.279 . S
C466 C464 1.353 . S
C466 C469 1.348 . S
C466 H514 0.929 . S
C467 C468 1.358 . S
C467 C469 1.356 . S
C467 H515 0.930 . S
C468 N465 1.279 . S
C468 C467 1.358 . S
C468 H471 0.930 . S
C469 C466 1.348 . S
C469 C467 1.356 . S
H470 C464 0.930 . S
H471 C468 0.930 . S
C472 C474 1.348 . S
C472 C475 1.356 . S
C472 O502 1.325 . S
N473 C476 1.314 . S
N473 C477 1.279 . S
C474 C472 1.348 . S
C474 C476 1.353 . S
C474 H516 0.929 . S
C475 C472 1.356 . S
C475 C477 1.358 . S
C475 H517 0.930 . S
C476 N473 1.314 . S
C476 C474 1.353 . S
C476 H518 0.930 . S
C477 N473 1.279 . S
C477 C475 1.358 . S
C477 H519 0.930 . S
C478 C479 1.348 . S
C478 C480 1.356 . S
C478 O503 1.325 . S
C479 C478 1.348 . S
C479 C481 1.353 . S
C479 H520 0.929 . S
C480 C478 1.356 . S
C480 C482 1.358 . S
C480 H521 0.930 . S
C481 C479 1.353 . S
C481 N483 1.314 . S
C481 H522 0.930 . S
C482 C480 1.358 . S
C482 N483 1.279 . S
C482 H523 0.930 . S
N483 C481 1.314 . S
N483 C482 1.279 . S
C484 C486 1.353 . S
C484 N487 1.314 . S
C484 H490 0.930 . S
C485 N487 1.279 . S
C485 C488 1.358 . S
C485 H491 0.930 . S
C486 C484 1.353 . S
C486 C489 1.348 . S
C486 H524 0.929 . S
N487 Li442 1.990 . S
N487 C484 1.314 . S
N487 C485 1.279 . S
C488 C485 1.358 . S
C488 C489 1.356 . S
C488 H525 0.930 . S
C489 C486 1.348 . S
C489 C488 1.356 . S
H490 C484 0.930 . S
H491 C485 0.930 . S
C492 N493 1.314 . S
C492 C494 1.353 . S
C492 H498 0.930 . S
N493 Li443 1.990 . S
N493 C492 1.314 . S
N493 C496 1.279 . S
C494 C492 1.353 . S
C494 C497 1.348 . S
C494 H526 0.929 . S
C495 C496 1.358 . S
C495 C497 1.356 . S
C495 H527 0.930 . S
C496 N493 1.279 . S
C496 C495 1.358 . S
C496 H499 0.930 . S
C497 C494 1.348 . S
C497 C495 1.356 . S
H498 C492 0.930 . S
H499 C496 0.930 . S
O500 Li440 1.956 . S
O500 Li441 1.970 . S
O500 Li442 1.961 . S
O500 C444 1.325 . S
O501 Li440 1.970 . S
O501 Li441 1.956 . S
O501 Li443 1.961 . S
O501 C450 1.325 . S
O502 Li440 1.961 . S
O502 Li442 1.956 . S
O502 Li443 1.970 . S
O502 C472 1.325 . S
O503 Li441 1.961 . S
O503 Li442 1.970 . S
O503 Li443 1.956 . S
O503 C478 1.325 . S
H504 C446 0.929 . S
H505 C447 0.930 . S
H506 C448 0.930 . S
H507 C449 0.930 . S
H508 C451 0.930 . S
H509 C453 0.929 . S
H510 C454 0.930 . S
H511 C455 0.930 . S
H512 C458 0.930 . S
H513 C461 0.929 . S
H514 C466 0.929 . S
H515 C467 0.930 . S
H516 C474 0.929 . S
H517 C475 0.930 . S
H518 C476 0.930 . S
H519 C477 0.930 . S
H520 C479 0.929 . S
H521 C480 0.930 . S
H522 C481 0.930 . S
H523 C482 0.930 . S
H524 C486 0.929 . S
H525 C488 0.930 . S
H526 C494 0.929 . S
H527 C495 0.930 . S
Li528 N545 1.990 . S
Li528 O588 1.956 . S
Li528 O589 1.970 . S
Li528 O590 1.961 . S
Li529 N553 1.990 . S
Li529 O588 1.970 . S
Li529 O589 1.956 . S
Li529 O591 1.961 . S
Li530 N575 1.990 . S
Li530 O588 1.961 . S
Li530 O590 1.956 . S
Li530 O591 1.970 . S
Li531 N581 1.990 . S
Li531 O589 1.961 . S
Li531 O590 1.970 . S
Li531 O591 1.956 . S
C532 C534 1.348 . S
C532 C535 1.356 . S
C532 O588 1.325 . S
N533 C536 1.314 . S
N533 C537 1.279 . S
C534 C532 1.348 . S
C534 C536 1.353 . S
C534 H592 0.929 . S
C535 C532 1.356 . S
C535 C537 1.358 . S
C535 H593 0.930 . S
C536 N533 1.314 . S
C536 C534 1.353 . S
C536 H594 0.930 . S
C537 N533 1.279 . S
C537 C535 1.358 . S
C537 H595 0.930 . S
C538 C541 1.348 . S
C538 C542 1.356 . S
C538 O589 1.325 . S
C539 N540 1.279 . S
C539 C542 1.358 . S
C539 H596 0.930 . S
N540 C539 1.279 . S
N540 C543 1.314 . S
C541 C538 1.348 . S
C541 C543 1.353 . S
C541 H597 0.929 . S
C542 C538 1.356 . S
C542 C539 1.358 . S
C542 H598 0.930 . S
C543 N540 1.314 . S
C543 C541 1.353 . S
C543 H599 0.930 . S
C544 N545 1.314 . S
C544 C549 1.353 . S
C544 H550 0.930 . S
N545 Li528 1.990 . S
N545 C544 1.314 . S
N545 C547 1.279 . S
C546 C547 1.358 . S
C546 C548 1.356 . S
C546 H600 0.930 . S
C547 N545 1.279 . S
C547 C546 1.358 . S
C547 H551 0.930 . S
C548 C546 1.356 . S
C548 C549 1.348 . S
C549 C544 1.353 . S
C549 C548 1.348 . S
C549 H601 0.929 . S
H550 C544 0.930 . S
H551 C547 0.930 . S
C552 N553 1.314 . S
C552 C554 1.353 . S
C552 H558 0.930 . S
N553 Li529 1.990 . S
N553 C552 1.314 . S
N553 C556 1.279 . S
C554 C552 1.353 . S
C554 C557 1.348 . S
C554 H602 0.929 . S
C555 C556 1.358 . S
C555 C557 1.356 . S
C555 H603 0.930 . S
C556 N553 1.279 . S
C556 C555 1.358 . S
C556 H559 0.930 . S
C557 C554 1.348 . S
C557 C555 1.356 . S
H558 C552 0.930 . S
H559 C556 0.930 . S
C560 C562 1.348 . S
C560 C563 1.356 . S
C560 O590 1.325 . S
N561 C564 1.314 . S
N561 C565 1.279 . S
C562 C560 1.348 . S
C562 C564 1.353 . S
C562 H604 0.929 . S
C563 C560 1.356 . S
C563 C565 1.358 . S
C563 H605 0.930 . S
C564 N561 1.314 . S
C564 C562 1.353 . S
C564 H606 0.930 . S
C565 N561 1.279 . S
C565 C563 1.358 . S
C565 H607 0.930 . S
C566 C567 1.348 . S
C566 C568 1.356 . S
C566 O591 1.325 . S
C567 C566 1.348 . S
C567 C569 1.353 . S
C567 H608 0.929 . S
C568 C566 1.356 . S
C568 C570 1.358 . S
C568 H609 0.930 . S
C569 C567 1.353 . S
C569 N571 1.314 . S
C569 H610 0.930 . S
C570 C568 1.358 . S
C570 N571 1.279 . S
C570 H611 0.930 . S
N571 C569 1.314 . S
N571 C570 1.279 . S
C572 C574 1.353 . S
C572 N575 1.314 . S
C572 H578 0.930 . S
C573 N575 1.279 . S
C573 C576 1.358 . S
C573 H579 0.930 . S
C574 C572 1.353 . S
C574 C577 1.348 . S
C574 H612 0.929 . S
N575 Li530 1.990 . S
N575 C572 1.314 . S
N575 C573 1.279 . S
C576 C573 1.358 . S
C576 C577 1.356 . S
C576 H613 0.930 . S
C577 C574 1.348 . S
C577 C576 1.356 . S
H578 C572 0.930 . S
H579 C573 0.930 . S
C580 N581 1.314 . S
C580 C582 1.353 . S
C580 H586 0.930 . S
N581 Li531 1.990 . S
N581 C580 1.314 . S
N581 C584 1.279 . S
C582 C580 1.353 . S
C582 C585 1.348 . S
C582 H614 0.929 . S
C583 C584 1.358 . S
C583 C585 1.356 . S
C583 H615 0.930 . S
C584 N581 1.279 . S
C584 C583 1.358 . S
C584 H587 0.930 . S
C585 C582 1.348 . S
C585 C583 1.356 . S
H586 C580 0.930 . S
H587 C584 0.930 . S
O588 Li528 1.956 . S
O588 Li529 1.970 . S
O588 Li530 1.961 . S
O588 C532 1.325 . S
O589 Li528 1.970 . S
O589 Li529 1.956 . S
O589 Li531 1.961 . S
O589 C538 1.325 . S
O590 Li528 1.961 . S
O590 Li530 1.956 . S
O590 Li531 1.970 . S
O590 C560 1.325 . S
O591 Li529 1.961 . S
O591 Li530 1.970 . S
O591 Li531 1.956 . S
O591 C566 1.325 . S
H592 C534 0.929 . S
H593 C535 0.930 . S
H594 C536 0.930 . S
H595 C537 0.930 . S
H596 C539 0.930 . S
H597 C541 0.929 . S
H598 C542 0.930 . S
H599 C543 0.930 . S
H600 C546 0.930 . S
H601 C549 0.929 . S
H602 C554 0.929 . S
H603 C555 0.930 . S
H604 C562 0.929 . S
H605 C563 0.930 . S
H606 C564 0.930 . S
H607 C565 0.930 . S
H608 C567 0.929 . S
H609 C568 0.930 . S
H610 C569 0.930 . S
H611 C570 0.930 . S
H612 C574 0.929 . S
H613 C576 0.930 . S
H614 C582 0.929 . S
H615 C583 0.930 . S
Li616 N633 1.990 . S
Li616 O676 1.956 . S
Li616 O677 1.970 . S
Li616 O678 1.961 1_554 S
Li617 N641 1.990 . S
Li617 O676 1.970 . S
Li617 O677 1.956 . S
Li617 O679 1.961 . S
Li618 N663 1.990 . S
Li618 O676 1.961 . S
Li618 O678 1.956 1_554 S
Li618 O679 1.970 . S
Li619 N669 1.990 . S
Li619 O677 1.961 1_556 S
Li619 O678 1.970 . S
Li619 O679 1.956 1_556 S
C620 C622 1.348 . S
C620 C623 1.356 . S
C620 O676 1.325 . S
N621 C624 1.314 . S
N621 C625 1.279 . S
C622 C620 1.348 . S
C622 C624 1.353 . S
C622 H680 0.929 . S
C623 C620 1.356 . S
C623 C625 1.358 . S
C623 H681 0.930 . S
C624 N621 1.314 . S
C624 C622 1.353 . S
C624 H682 0.930 . S
C625 N621 1.279 . S
C625 C623 1.358 . S
C625 H683 0.930 . S
C626 C629 1.348 . S
C626 C630 1.356 . S
C626 O677 1.325 . S
C627 N628 1.279 . S
C627 C630 1.358 . S
C627 H684 0.931 . S
N628 C627 1.279 . S
N628 C631 1.314 . S
C629 C626 1.348 . S
C629 C631 1.353 . S
C629 H685 0.929 . S
C630 C626 1.356 . S
C630 C627 1.358 . S
C630 H686 0.930 . S
C631 N628 1.314 . S
C631 C629 1.353 . S
C631 H687 0.930 . S
C632 N633 1.312 1_556 S
C632 C637 1.353 . S
C632 H638 0.930 . S
N633 Li616 1.990 . S
N633 C632 1.312 1_554 S
N633 C635 1.281 . S
C634 C635 1.358 . S
C634 C636 1.356 1_554 S
C634 H688 0.930 . S
C635 N633 1.281 . S
C635 C634 1.358 . S
C635 H639 0.930 . S
C636 C634 1.356 1_556 S
C636 C637 1.348 . S
C637 C632 1.353 . S
C637 C636 1.348 . S
C637 H689 0.929 . S
H638 C632 0.930 . S
H639 C635 0.930 . S
C640 N641 1.314 . S
C640 C642 1.353 . S
C640 H646 0.930 . S
N641 Li617 1.990 . S
N641 C640 1.314 . S
N641 C644 1.279 . S
C642 C640 1.353 . S
C642 C645 1.348 . S
C642 H690 0.929 . S
C643 C644 1.358 . S
C643 C645 1.356 . S
C643 H691 0.930 . S
C644 N641 1.279 . S
C644 C643 1.358 . S
C644 H647 0.930 . S
C645 C642 1.348 . S
C645 C643 1.356 . S
H646 C640 0.930 . S
H647 C644 0.930 . S
C648 C650 1.348 . S
C648 C651 1.356 . S
C648 O678 1.325 . S
N649 C652 1.314 . S
N649 C653 1.279 . S
C650 C648 1.348 . S
C650 C652 1.353 . S
C650 H692 0.929 . S
C651 C648 1.356 . S
C651 C653 1.358 . S
C651 H693 0.930 . S
C652 N649 1.314 . S
C652 C650 1.353 . S
C652 H694 0.930 . S
C653 N649 1.279 . S
C653 C651 1.358 . S
C653 H695 0.930 . S
C654 C655 1.348 . S
C654 C656 1.356 . S
C654 O679 1.325 . S
C655 C654 1.348 . S
C655 C657 1.353 . S
C655 H696 0.929 . S
C656 C654 1.356 . S
C656 C658 1.358 . S
C656 H697 0.930 . S
C657 C655 1.353 . S
C657 N659 1.314 . S
C657 H698 0.930 . S
C658 C656 1.358 . S
C658 N659 1.279 . S
C658 H699 0.930 . S
N659 C657 1.314 . S
N659 C658 1.279 . S
C660 C662 1.353 . S
C660 N663 1.314 . S
C660 H666 0.930 . S
C661 N663 1.279 1_556 S
C661 C664 1.358 . S
C661 H667 0.930 . S
C662 C660 1.353 . S
C662 C665 1.348 . S
C662 H700 0.929 . S
N663 Li618 1.990 . S
N663 C660 1.314 . S
N663 C661 1.279 1_554 S
C664 C661 1.358 . S
C664 C665 1.356 1_556 S
C664 H701 0.930 . S
C665 C662 1.348 . S
C665 C664 1.356 1_554 S
H666 C660 0.930 . S
H667 C661 0.930 . S
C668 N669 1.314 . S
C668 C670 1.353 . S
C668 H674 0.930 . S
N669 Li619 1.990 . S
N669 C668 1.314 . S
N669 C672 1.279 . S
C670 C668 1.353 . S
C670 C673 1.348 . S
C670 H702 0.929 . S
C671 C672 1.358 . S
C671 C673 1.356 . S
C671 H703 0.930 . S
C672 N669 1.279 . S
C672 C671 1.358 . S
C672 H675 0.930 . S
C673 C670 1.348 . S
C673 C671 1.356 . S
H674 C668 0.930 . S
H675 C672 0.930 . S
O676 Li616 1.956 . S
O676 Li617 1.970 . S
O676 Li618 1.961 . S
O676 C620 1.325 . S
O677 Li616 1.970 . S
O677 Li617 1.956 . S
O677 Li619 1.961 1_554 S
O677 C626 1.325 . S
O678 Li616 1.961 1_556 S
O678 Li618 1.956 1_556 S
O678 Li619 1.970 . S
O678 C648 1.325 . S
O679 Li617 1.961 . S
O679 Li618 1.970 . S
O679 Li619 1.956 1_554 S
O679 C654 1.325 . S
H680 C622 0.929 . S
H681 C623 0.930 . S
H682 C624 0.930 . S
H683 C625 0.930 . S
H684 C627 0.931 . S
H685 C629 0.929 . S
H686 C630 0.930 . S
H687 C631 0.930 . S
H688 C634 0.930 . S
H689 C637 0.929 . S
H690 C642 0.929 . S
H691 C643 0.930 . S
H692 C650 0.929 . S
H693 C651 0.930 . S
H694 C652 0.930 . S
H695 C653 0.930 . S
H696 C655 0.929 . S
H697 C656 0.930 . S
H698 C657 0.930 . S
H699 C658 0.930 . S
H700 C662 0.929 . S
H701 C664 0.930 . S
H702 C670 0.929 . S
H703 C671 0.930 . S
C704 C705 1.391 . S
C704 C706 1.394 . S
C704 H720 0.931 . S
C705 C704 1.391 . S
C705 C709 1.376 . S
C706 C704 1.394 . S
C706 C707 1.369 . S
C706 C710 1.531 . S
C707 C706 1.369 . S
C707 C708 1.410 . S
C707 C715 1.503 . S
C708 C707 1.410 . S
C708 C709 1.392 . S
C708 C711 1.511 . S
C709 C705 1.376 . S
C709 C708 1.392 . S
C709 H721 0.929 . S
C710 C706 1.531 . S
C710 H722 0.960 . S
C710 H723 0.962 . S
C710 H724 0.960 . S
C711 C708 1.511 . S
C711 H725 0.961 . S
C711 H726 0.961 . S
C711 H727 0.961 . S
C712 C713 1.370 . S
C712 C714 1.363 . S
C712 H728 0.931 . S
C713 C712 1.370 . S
C713 C717 1.408 . S
C714 C712 1.363 . S
C714 C715 1.370 . S
C714 C718 1.524 . S
C715 C707 1.503 . S
C715 C714 1.370 . S
C715 C716 1.403 . S
C716 C715 1.403 . S
C716 C717 1.404 . S
C716 C719 1.539 . S
C717 C713 1.408 . S
C717 C716 1.404 . S
C717 H729 0.930 . S
C718 C714 1.524 . S
C718 H730 0.956 . S
C718 H731 0.961 . S
C718 H732 0.961 . S
C719 C716 1.539 . S
C719 H733 0.958 . S
C719 H734 0.961 . S
C719 H735 0.960 . S
H720 C704 0.931 . S
H721 C709 0.929 . S
H722 C710 0.960 . S
H723 C710 0.962 . S
H724 C710 0.960 . S
H725 C711 0.961 . S
H726 C711 0.961 . S
H727 C711 0.961 . S
H728 C712 0.931 . S
H729 C717 0.930 . S
H730 C718 0.956 . S
H731 C718 0.961 . S
H732 C718 0.961 . S
H733 C719 0.958 . S
H734 C719 0.961 . S
H735 C719 0.960 . S
C736 C737 1.391 . S
C736 C738 1.394 . S
C736 H752 0.931 . S
C737 C736 1.391 . S
C737 C741 1.376 . S
C738 C736 1.394 . S
C738 C739 1.369 . S
C738 C742 1.531 . S
C739 C738 1.369 . S
C739 C740 1.410 . S
C739 C747 1.503 . S
C740 C739 1.410 . S
C740 C741 1.392 . S
C740 C743 1.511 . S
C741 C737 1.376 . S
C741 C740 1.392 . S
C741 H753 0.929 . S
C742 C738 1.531 . S
C742 H754 0.960 . S
C742 H755 0.962 . S
C742 H756 0.960 . S
C743 C740 1.511 . S
C743 H757 0.961 . S
C743 H758 0.961 . S
C743 H759 0.961 . S
C744 C745 1.370 . S
C744 C746 1.363 . S
C744 H760 0.931 . S
C745 C744 1.370 . S
C745 C749 1.408 . S
C746 C744 1.363 . S
C746 C747 1.370 . S
C746 C750 1.524 . S
C747 C739 1.503 . S
C747 C746 1.370 . S
C747 C748 1.403 . S
C748 C747 1.403 . S
C748 C749 1.404 . S
C748 C751 1.539 . S
C749 C745 1.408 . S
C749 C748 1.404 . S
C749 H761 0.930 . S
C750 C746 1.524 . S
C750 H762 0.956 . S
C750 H763 0.961 . S
C750 H764 0.961 . S
C751 C748 1.539 . S
C751 H765 0.958 . S
C751 H766 0.961 . S
C751 H767 0.960 . S
H752 C736 0.931 . S
H753 C741 0.929 . S
H754 C742 0.960 . S
H755 C742 0.962 . S
H756 C742 0.960 . S
H757 C743 0.961 . S
H758 C743 0.961 . S
H759 C743 0.961 . S
H760 C744 0.931 . S
H761 C749 0.930 . S
H762 C750 0.956 . S
H763 C750 0.961 . S
H764 C750 0.961 . S
H765 C751 0.958 . S
H766 C751 0.961 . S
H767 C751 0.960 . S
C768 C769 1.391 . S
C768 C770 1.394 . S
C768 H784 0.931 . S
C769 C768 1.391 . S
C769 C773 1.376 . S
C770 C768 1.394 . S
C770 C771 1.369 . S
C770 C774 1.531 . S
C771 C770 1.369 . S
C771 C772 1.410 . S
C771 C779 1.503 . S
C772 C771 1.410 . S
C772 C773 1.392 . S
C772 C775 1.511 . S
C773 C769 1.376 . S
C773 C772 1.392 . S
C773 H785 0.929 . S
C774 C770 1.531 . S
C774 H786 0.960 1_554 S
C774 H787 0.962 1_554 S
C774 H788 0.960 . S
C775 C772 1.511 . S
C775 H789 0.961 . S
C775 H790 0.961 . S
C775 H791 0.961 . S
C776 C777 1.370 . S
C776 C778 1.363 . S
C776 H792 0.931 . S
C777 C776 1.370 . S
C777 C781 1.408 . S
C778 C776 1.363 . S
C778 C779 1.370 1_556 S
C778 C782 1.524 . S
C779 C771 1.503 . S
C779 C778 1.370 1_554 S
C779 C780 1.403 1_554 S
C780 C779 1.403 1_556 S
C780 C781 1.404 . S
C780 C783 1.539 1_556 S
C781 C777 1.408 . S
C781 C780 1.404 . S
C781 H793 0.930 . S
C782 C778 1.524 . S
C782 H794 0.956 . S
C782 H795 0.961 1_556 S
C782 H796 0.961 . S
C783 C780 1.539 1_554 S
C783 H797 0.958 . S
C783 H798 0.961 . S
C783 H799 0.960 . S
H784 C768 0.931 . S
H785 C773 0.929 . S
H786 C774 0.960 1_556 S
H787 C774 0.962 1_556 S
H788 C774 0.960 . S
H789 C775 0.961 . S
H790 C775 0.961 . S
H791 C775 0.961 . S
H792 C776 0.931 . S
H793 C781 0.930 . S
H794 C782 0.956 . S
H795 C782 0.961 1_554 S
H796 C782 0.961 . S
H797 C783 0.958 . S
H798 C783 0.961 . S
H799 C783 0.960 . S
C800 C801 1.391 . S
C800 C802 1.394 . S
C800 H816 0.931 . S
C801 C800 1.391 . S
C801 C805 1.376 . S
C802 C800 1.394 . S
C802 C803 1.369 . S
C802 C806 1.531 . S
C803 C802 1.369 . S
C803 C804 1.410 . S
C803 C811 1.503 . S
C804 C803 1.410 . S
C804 C805 1.392 . S
C804 C807 1.511 . S
C805 C801 1.376 . S
C805 C804 1.392 . S
C805 H817 0.929 . S
C806 C802 1.531 . S
C806 H818 0.960 . S
C806 H819 0.962 . S
C806 H820 0.960 . S
C807 C804 1.511 . S
C807 H821 0.961 . S
C807 H822 0.961 . S
C807 H823 0.961 . S
C808 C809 1.370 . S
C808 C810 1.363 . S
C808 H824 0.931 . S
C809 C808 1.370 . S
C809 C813 1.408 . S
C810 C808 1.363 . S
C810 C811 1.370 . S
C810 C814 1.524 . S
C811 C803 1.503 . S
C811 C810 1.370 . S
C811 C812 1.403 . S
C812 C811 1.403 . S
C812 C813 1.404 . S
C812 C815 1.539 . S
C813 C809 1.408 . S
C813 C812 1.404 . S
C813 H825 0.930 . S
C814 C810 1.524 . S
C814 H826 0.956 . S
C814 H827 0.961 . S
C814 H828 0.961 . S
C815 C812 1.539 . S
C815 H829 0.958 . S
C815 H830 0.961 . S
C815 H831 0.960 . S
H816 C800 0.931 . S
H817 C805 0.929 . S
H818 C806 0.960 . S
H819 C806 0.962 . S
H820 C806 0.960 . S
H821 C807 0.961 . S
H822 C807 0.961 . S
H823 C807 0.961 . S
H824 C808 0.931 . S
H825 C813 0.930 . S
H826 C814 0.956 . S
H827 C814 0.961 . S
H828 C814 0.961 . S
H829 C815 0.958 . S
H830 C815 0.961 . S
H831 C815 0.960 . S
C832 C833 1.391 . S
C832 C834 1.394 . S
C832 H848 0.931 . S
C833 C832 1.391 . S
C833 C837 1.376 . S
C834 C832 1.394 . S
C834 C835 1.369 . S
C834 C838 1.531 . S
C835 C834 1.369 . S
C835 C836 1.410 . S
C835 C843 1.503 . S
C836 C835 1.410 . S
C836 C837 1.392 . S
C836 C839 1.511 . S
C837 C833 1.376 . S
C837 C836 1.392 . S
C837 H849 0.929 . S
C838 C834 1.531 . S
C838 H850 0.960 . S
C838 H851 0.962 . S
C838 H852 0.960 . S
C839 C836 1.511 . S
C839 H853 0.961 . S
C839 H854 0.961 . S
C839 H855 0.961 . S
C840 C841 1.370 . S
C840 C842 1.363 . S
C840 H856 0.931 . S
C841 C840 1.370 . S
C841 C845 1.408 . S
C842 C840 1.363 . S
C842 C843 1.370 . S
C842 C846 1.524 . S
C843 C835 1.503 . S
C843 C842 1.370 . S
C843 C844 1.403 . S
C844 C843 1.403 . S
C844 C845 1.404 . S
C844 C847 1.539 . S
C845 C841 1.408 . S
C845 C844 1.404 . S
C845 H857 0.930 . S
C846 C842 1.524 . S
C846 H858 0.956 . S
C846 H859 0.961 . S
C846 H860 0.961 . S
C847 C844 1.539 . S
C847 H861 0.958 . S
C847 H862 0.961 . S
C847 H863 0.960 . S
H848 C832 0.931 . S
H849 C837 0.929 . S
H850 C838 0.960 . S
H851 C838 0.962 . S
H852 C838 0.960 . S
H853 C839 0.961 . S
H854 C839 0.961 . S
H855 C839 0.961 . S
H856 C840 0.931 . S
H857 C845 0.930 . S
H858 C846 0.956 . S
H859 C846 0.961 . S
H860 C846 0.961 . S
H861 C847 0.958 . S
H862 C847 0.961 . S
H863 C847 0.960 . S
C864 C865 1.391 . S
C864 C866 1.394 . S
C864 H880 0.931 . S
C865 C864 1.391 . S
C865 C869 1.376 . S
C866 C864 1.394 . S
C866 C867 1.369 . S
C866 C870 1.531 . S
C867 C866 1.369 . S
C867 C868 1.410 . S
C867 C875 1.503 . S
C868 C867 1.410 . S
C868 C869 1.392 . S
C868 C871 1.511 . S
C869 C865 1.376 . S
C869 C868 1.392 . S
C869 H881 0.929 . S
C870 C866 1.531 . S
C870 H882 0.960 . S
C870 H883 0.962 . S
C870 H884 0.960 . S
C871 C868 1.511 . S
C871 H885 0.961 . S
C871 H886 0.961 . S
C871 H887 0.961 . S
C872 C873 1.370 . S
C872 C874 1.363 . S
C872 H888 0.931 . S
C873 C872 1.370 . S
C873 C877 1.408 . S
C874 C872 1.363 . S
C874 C875 1.370 . S
C874 C878 1.524 . S
C875 C867 1.503 . S
C875 C874 1.370 . S
C875 C876 1.403 . S
C876 C875 1.403 . S
C876 C877 1.404 . S
C876 C879 1.539 . S
C877 C873 1.408 . S
C877 C876 1.404 . S
C877 H889 0.930 . S
C878 C874 1.524 . S
C878 H890 0.956 . S
C878 H891 0.961 . S
C878 H892 0.961 . S
C879 C876 1.539 . S
C879 H893 0.958 . S
C879 H894 0.961 . S
C879 H895 0.960 . S
H880 C864 0.931 . S
H881 C869 0.929 . S
H882 C870 0.960 . S
H883 C870 0.962 . S
H884 C870 0.960 . S
H885 C871 0.961 . S
H886 C871 0.961 . S
H887 C871 0.961 . S
H888 C872 0.931 . S
H889 C877 0.930 . S
H890 C878 0.956 . S
H891 C878 0.961 . S
H892 C878 0.961 . S
H893 C879 0.958 . S
H894 C879 0.961 . S
H895 C879 0.960 . S
C896 C897 1.391 . S
C896 C898 1.394 . S
C896 H912 0.931 . S
C897 C896 1.391 . S
C897 C901 1.376 . S
C898 C896 1.394 . S
C898 C899 1.369 . S
C898 C902 1.531 . S
C899 C898 1.369 . S
C899 C900 1.410 . S
C899 C907 1.503 . S
C900 C899 1.410 . S
C900 C901 1.392 . S
C900 C903 1.511 . S
C901 C897 1.376 . S
C901 C900 1.392 . S
C901 H913 0.929 1_556 S
C902 C898 1.531 . S
C902 H914 0.960 . S
C902 H915 0.962 . S
C902 H916 0.960 . S
C903 C900 1.511 . S
C903 H917 0.961 . S
C903 H918 0.961 . S
C903 H919 0.961 . S
C904 C905 1.370 . S
C904 C906 1.363 . S
C904 H920 0.931 . S
C905 C904 1.370 . S
C905 C909 1.408 . S
C906 C904 1.363 . S
C906 C907 1.370 . S
C906 C910 1.524 . S
C907 C899 1.503 . S
C907 C906 1.370 . S
C907 C908 1.403 . S
C908 C907 1.403 . S
C908 C909 1.404 . S
C908 C911 1.539 . S
C909 C905 1.408 . S
C909 C908 1.404 . S
C909 H921 0.930 . S
C910 C906 1.524 . S
C910 H922 0.956 . S
C910 H923 0.961 . S
C910 H924 0.961 . S
C911 C908 1.539 . S
C911 H925 0.958 . S
C911 H926 0.961 . S
C911 H927 0.960 . S
H912 C896 0.931 . S
H913 C901 0.929 1_554 S
H914 C902 0.960 . S
H915 C902 0.962 . S
H916 C902 0.960 . S
H917 C903 0.961 . S
H918 C903 0.961 . S
H919 C903 0.961 . S
H920 C904 0.931 . S
H921 C909 0.930 . S
H922 C910 0.956 . S
H923 C910 0.961 . S
H924 C910 0.961 . S
H925 C911 0.958 . S
H926 C911 0.961 . S
H927 C911 0.960 . S
C928 C929 1.391 . S
C928 C930 1.394 . S
C928 H944 0.931 . S
C929 C928 1.391 . S
C929 C933 1.376 . S
C930 C928 1.394 . S
C930 C931 1.369 . S
C930 C934 1.531 . S
C931 C930 1.369 . S
C931 C932 1.410 . S
C931 C939 1.503 . S
C932 C931 1.410 . S
C932 C933 1.392 . S
C932 C935 1.511 . S
C933 C929 1.376 . S
C933 C932 1.392 . S
C933 H945 0.929 . S
C934 C930 1.531 . S
C934 H946 0.960 . S
C934 H947 0.962 . S
C934 H948 0.960 . S
C935 C932 1.511 . S
C935 H949 0.961 . S
C935 H950 0.961 . S
C935 H951 0.961 . S
C936 C937 1.370 . S
C936 C938 1.363 . S
C936 H952 0.931 . S
C937 C936 1.370 . S
C937 C941 1.408 . S
C938 C936 1.363 . S
C938 C939 1.370 . S
C938 C942 1.524 . S
C939 C931 1.503 . S
C939 C938 1.370 . S
C939 C940 1.403 . S
C940 C939 1.403 . S
C940 C941 1.404 . S
C940 C943 1.539 . S
C941 C937 1.408 . S
C941 C940 1.404 . S
C941 H953 0.930 . S
C942 C938 1.524 . S
C942 H954 0.956 . S
C942 H955 0.961 . S
C942 H956 0.961 . S
C943 C940 1.539 . S
C943 H957 0.958 . S
C943 H958 0.961 . S
C943 H959 0.960 . S
H944 C928 0.931 . S
H945 C933 0.929 . S
H946 C934 0.960 . S
H947 C934 0.962 . S
H948 C934 0.960 . S
H949 C935 0.961 . S
H950 C935 0.961 . S
H951 C935 0.961 . S
H952 C936 0.931 . S
H953 C941 0.930 . S
H954 C942 0.956 . S
H955 C942 0.961 . S
H956 C942 0.961 . S
H957 C943 0.958 . S
H958 C943 0.961 . S
H959 C943 0.960 . S
C960 C961 1.391 . S
C960 C962 1.394 . S
C960 H976 0.931 . S
C961 C960 1.391 . S
C961 C965 1.376 . S
C962 C960 1.394 . S
C962 C963 1.369 . S
C962 C966 1.531 . S
C963 C962 1.369 . S
C963 C964 1.410 . S
C963 C971 1.503 1_565 S
C964 C963 1.410 . S
C964 C965 1.392 . S
C964 C967 1.511 . S
C965 C961 1.376 . S
C965 C964 1.392 . S
C965 H977 0.929 . S
C966 C962 1.531 . S
C966 H978 0.960 1_565 S
C966 H979 0.962 . S
C966 H980 0.960 . S
C967 C964 1.511 . S
C967 H981 0.961 . S
C967 H982 0.961 1_565 S
C967 H983 0.961 . S
C968 C969 1.370 . S
C968 C970 1.363 . S
C968 H984 0.931 . S
C969 C968 1.370 . S
C969 C973 1.408 . S
C970 C968 1.363 . S
C970 C971 1.370 . S
C970 C974 1.524 . S
C971 C963 1.503 1_545 S
C971 C970 1.370 . S
C971 C972 1.403 . S
C972 C971 1.403 . S
C972 C973 1.404 . S
C972 C975 1.539 . S
C973 C969 1.408 . S
C973 C972 1.404 . S
C973 H985 0.930 . S
C974 C970 1.524 . S
C974 H986 0.982 . S
C974 H987 0.961 1_545 S
C974 H988 0.961 . S
C975 C972 1.539 . S
C975 H989 0.958 . S
C975 H990 0.961 . S
C975 H991 0.976 . S
H976 C960 0.931 . S
H977 C965 0.929 . S
H978 C966 0.960 1_545 S
H979 C966 0.962 . S
H980 C966 0.960 . S
H981 C967 0.961 . S
H982 C967 0.961 1_545 S
H983 C967 0.961 . S
H984 C968 0.931 . S
H985 C973 0.930 . S
H986 C974 0.982 . S
H987 C974 0.961 1_565 S
H988 C974 0.961 . S
H989 C975 0.958 . S
H990 C975 0.961 . S
H991 C975 0.976 . S
C992 C993 1.391 . S
C992 C994 1.394 . S
C992 H1008 0.931 . S
C993 C992 1.391 . S
C993 C997 1.376 . S
C994 C992 1.394 . S
C994 C995 1.369 . S
C994 C998 1.531 . S
C995 C994 1.369 . S
C995 C996 1.410 . S
C995 C1003 1.503 1_655 S
C996 C995 1.410 . S
C996 C997 1.392 . S
C996 C999 1.511 . S
C997 C993 1.376 . S
C997 C996 1.392 . S
C997 H1009 0.929 . S
C998 C994 1.531 . S
C998 H1010 0.960 1_655 S
C998 H1011 0.962 . S
C998 H1012 0.960 . S
C999 C996 1.511 . S
C999 H1013 0.961 . S
C999 H1014 0.961 1_655 S
C999 H1015 0.961 . S
C1000 C1001 1.370 . S
C1000 C1002 1.363 . S
C1000 H1016 0.931 . S
C1001 C1000 1.370 . S
C1001 C1005 1.408 . S
C1002 C1000 1.363 . S
C1002 C1003 1.370 . S
C1002 C1006 1.524 . S
C1003 C995 1.503 1_455 S
C1003 C1002 1.370 . S
C1003 C1004 1.403 . S
C1004 C1003 1.403 . S
C1004 C1005 1.404 . S
C1004 C1007 1.539 . S
C1005 C1001 1.408 . S
C1005 C1004 1.404 . S
C1005 H1017 0.930 . S
C1006 C1002 1.524 . S
C1006 H1018 0.976 . S
C1006 H1019 0.961 1_455 S
C1006 H1020 0.961 . S
C1007 C1004 1.539 . S
C1007 H1021 0.958 . S
C1007 H1022 0.961 . S
C1007 H1023 0.984 . S
H1008 C992 0.931 . S
H1009 C997 0.929 . S
H1010 C998 0.960 1_455 S
H1011 C998 0.962 . S
H1012 C998 0.960 . S
H1013 C999 0.961 . S
H1014 C999 0.961 1_455 S
H1015 C999 0.961 . S
H1016 C1000 0.931 . S
H1017 C1005 0.930 . S
H1018 C1006 0.976 . S
H1019 C1006 0.961 1_655 S
H1020 C1006 0.961 . S
H1021 C1007 0.958 . S
H1022 C1007 0.961 . S
H1023 C1007 0.984 . S
C1024 C1025 1.391 . S
C1024 C1026 1.394 . S
C1024 H1040 0.931 . S
C1025 C1024 1.391 . S
C1025 C1029 1.376 . S
C1026 C1024 1.394 . S
C1026 C1027 1.369 . S
C1026 C1030 1.531 . S
C1027 C1026 1.369 . S
C1027 C1028 1.410 . S
C1027 C1035 1.503 1_565 S
C1028 C1027 1.410 . S
C1028 C1029 1.392 . S
C1028 C1031 1.511 . S
C1029 C1025 1.376 . S
C1029 C1028 1.392 . S
C1029 H1041 0.929 . S
C1030 C1026 1.531 . S
C1030 H1042 0.960 1_565 S
C1030 H1043 0.962 . S
C1030 H1044 0.960 . S
C1031 C1028 1.511 . S
C1031 H1045 0.961 . S
C1031 H1046 0.961 1_565 S
C1031 H1047 0.961 . S
C1032 C1033 1.370 . S
C1032 C1034 1.363 . S
C1032 H1048 0.931 . S
C1033 C1032 1.370 . S
C1033 C1037 1.408 . S
C1034 C1032 1.363 . S
C1034 C1035 1.370 . S
C1034 C1038 1.524 . S
C1035 C1027 1.503 1_545 S
C1035 C1034 1.370 . S
C1035 C1036 1.403 . S
C1036 C1035 1.403 . S
C1036 C1037 1.404 . S
C1036 C1039 1.539 . S
C1037 C1033 1.408 . S
C1037 C1036 1.404 . S
C1037 H1049 0.930 . S
C1038 C1034 1.524 . S
C1038 H1050 0.956 . S
C1038 H1051 0.961 1_545 S
C1038 H1052 0.961 . S
C1039 C1036 1.539 . S
C1039 H1053 0.958 . S
C1039 H1054 0.961 . S
C1039 H1055 0.962 . S
H1040 C1024 0.931 . S
H1041 C1029 0.929 . S
H1042 C1030 0.960 1_545 S
H1043 C1030 0.962 . S
H1044 C1030 0.960 . S
H1045 C1031 0.961 . S
H1046 C1031 0.961 1_545 S
H1047 C1031 0.961 . S
H1048 C1032 0.931 . S
H1049 C1037 0.930 . S
H1050 C1038 0.956 . S
H1051 C1038 0.961 1_565 S
H1052 C1038 0.961 . S
H1053 C1039 0.958 . S
H1054 C1039 0.961 . S
H1055 C1039 0.962 . S
C1056 C1057 1.391 . S
C1056 C1058 1.394 . S
C1056 H1072 0.931 . S
C1057 C1056 1.391 . S
C1057 C1061 1.376 1_554 S
C1058 C1056 1.394 . S
C1058 C1059 1.369 . S
C1058 C1062 1.531 . S
C1059 C1058 1.369 . S
C1059 C1060 1.410 1_554 S
C1059 C1067 1.503 1_655 S
C1060 C1059 1.410 1_556 S
C1060 C1061 1.392 . S
C1060 C1063 1.511 . S
C1061 C1057 1.376 1_556 S
C1061 C1060 1.392 . S
C1061 H1073 0.929 . S
C1062 C1058 1.531 . S
C1062 H1074 0.960 1_655 S
C1062 H1075 0.962 . S
C1062 H1076 0.960 . S
C1063 C1060 1.511 . S
C1063 H1077 0.961 . S
C1063 H1078 0.961 1_655 S
C1063 H1079 0.961 . S
C1064 C1065 1.370 . S
C1064 C1066 1.363 . S
C1064 H1080 0.931 . S
C1065 C1064 1.370 . S
C1065 C1069 1.408 . S
C1066 C1064 1.363 . S
C1066 C1067 1.370 . S
C1066 C1070 1.524 . S
C1067 C1059 1.503 1_455 S
C1067 C1066 1.370 . S
C1067 C1068 1.403 . S
C1068 C1067 1.403 . S
C1068 C1069 1.404 . S
C1068 C1071 1.539 . S
C1069 C1065 1.408 . S
C1069 C1068 1.404 . S
C1069 H1081 0.930 . S
C1070 C1066 1.524 . S
C1070 H1082 0.982 . S
C1070 H1083 0.961 1_454 S
C1070 H1084 0.961 . S
C1071 C1068 1.539 . S
C1071 H1085 0.958 . S
C1071 H1086 0.961 . S
C1071 H1087 0.969 . S
H1072 C1056 0.931 . S
H1073 C1061 0.929 . S
H1074 C1062 0.960 1_455 S
H1075 C1062 0.962 . S
H1076 C1062 0.960 . S
H1077 C1063 0.961 . S
H1078 C1063 0.961 1_455 S
H1079 C1063 0.961 . S
H1080 C1064 0.931 . S
H1081 C1069 0.930 . S
H1082 C1070 0.982 . S
H1083 C1070 0.961 1_656 S
H1084 C1070 0.961 . S
H1085 C1071 0.958 . S
H1086 C1071 0.961 . S
H1087 C1071 0.969 . S
C1088 C1089 1.391 . S
C1088 C1090 1.394 1_556 S
C1088 H1104 0.931 1_556 S
C1089 C1088 1.391 . S
C1089 C1093 1.376 . S
C1090 C1088 1.394 1_554 S
C1090 C1091 1.369 . S
C1090 C1094 1.531 . S
C1091 C1090 1.369 . S
C1091 C1092 1.410 1_554 S
C1091 C1099 1.503 . S
C1092 C1091 1.410 1_556 S
C1092 C1093 1.392 . S
C1092 C1095 1.511 . S
C1093 C1089 1.376 . S
C1093 C1092 1.392 . S
C1093 H1105 0.929 . S
C1094 C1090 1.531 . S
C1094 H1106 0.960 . S
C1094 H1107 0.962 . S
C1094 H1108 0.960 . S
C1095 C1092 1.511 . S
C1095 H1109 0.961 . S
C1095 H1110 0.961 . S
C1095 H1111 0.961 . S
C1096 C1097 1.370 . S
C1096 C1098 1.363 . S
C1096 H1112 0.931 . S
C1097 C1096 1.370 . S
C1097 C1101 1.408 . S
C1098 C1096 1.363 . S
C1098 C1099 1.370 . S
C1098 C1102 1.524 . S
C1099 C1091 1.503 . S
C1099 C1098 1.370 . S
C1099 C1100 1.403 . S
C1100 C1099 1.403 . S
C1100 C1101 1.404 . S
C1100 C1103 1.539 . S
C1101 C1097 1.408 . S
C1101 C1100 1.404 . S
C1101 H1113 0.930 . S
C1102 C1098 1.524 . S
C1102 H1114 0.956 . S
C1102 H1115 0.961 . S
C1102 H1116 0.961 . S
C1103 C1100 1.539 . S
C1103 H1117 0.958 . S
C1103 H1118 0.961 . S
C1103 H1119 0.960 1_554 S
H1104 C1088 0.931 1_554 S
H1105 C1093 0.929 . S
H1106 C1094 0.960 . S
H1107 C1094 0.962 . S
H1108 C1094 0.960 . S
H1109 C1095 0.961 . S
H1110 C1095 0.961 . S
H1111 C1095 0.961 . S
H1112 C1096 0.931 . S
H1113 C1101 0.930 . S
H1114 C1102 0.956 . S
H1115 C1102 0.961 . S
H1116 C1102 0.961 . S
H1117 C1103 0.958 . S
H1118 C1103 0.961 . S
H1119 C1103 0.960 1_556 S
C1120 C1121 1.391 . S
C1120 C1122 1.394 . S
C1120 H1136 0.931 . S
C1121 C1120 1.391 . S
C1121 C1125 1.376 . S
C1122 C1120 1.394 . S
C1122 C1123 1.369 . S
C1122 C1126 1.531 . S
C1123 C1122 1.369 . S
C1123 C1124 1.410 . S
C1123 C1131 1.503 . S
C1124 C1123 1.410 . S
C1124 C1125 1.392 . S
C1124 C1127 1.511 . S
C1125 C1121 1.376 . S
C1125 C1124 1.392 . S
C1125 H1137 0.929 . S
C1126 C1122 1.531 . S
C1126 H1138 0.960 . S
C1126 H1139 0.962 . S
C1126 H1140 0.960 . S
C1127 C1124 1.511 . S
C1127 H1141 0.961 . S
C1127 H1142 0.961 . S
C1127 H1143 0.961 . S
C1128 C1129 1.370 . S
C1128 C1130 1.363 . S
C1128 H1144 0.931 . S
C1129 C1128 1.370 . S
C1129 C1133 1.408 . S
C1130 C1128 1.363 . S
C1130 C1131 1.370 . S
C1130 C1134 1.524 . S
C1131 C1123 1.503 . S
C1131 C1130 1.370 . S
C1131 C1132 1.403 . S
C1132 C1131 1.403 . S
C1132 C1133 1.404 . S
C1132 C1135 1.539 . S
C1133 C1129 1.408 . S
C1133 C1132 1.404 . S
C1133 H1145 0.930 . S
C1134 C1130 1.524 . S
C1134 H1146 0.956 . S
C1134 H1147 0.961 . S
C1134 H1148 0.961 . S
C1135 C1132 1.539 . S
C1135 H1149 0.958 . S
C1135 H1150 0.961 . S
C1135 H1151 0.960 . S
H1136 C1120 0.931 . S
H1137 C1125 0.929 . S
H1138 C1126 0.960 . S
H1139 C1126 0.962 . S
H1140 C1126 0.960 . S
H1141 C1127 0.961 . S
H1142 C1127 0.961 . S
H1143 C1127 0.961 . S
H1144 C1128 0.931 . S
H1145 C1133 0.930 . S
H1146 C1134 0.956 . S
H1147 C1134 0.961 . S
H1148 C1134 0.961 . S
H1149 C1135 0.958 . S
H1150 C1135 0.961 . S
H1151 C1135 0.960 . S
C1152 C1153 1.391 . S
C1152 C1154 1.394 . S
C1152 H1168 0.931 . S
C1153 C1152 1.391 . S
C1153 C1157 1.376 . S
C1154 C1152 1.394 . S
C1154 C1155 1.369 . S
C1154 C1158 1.531 . S
C1155 C1154 1.369 . S
C1155 C1156 1.410 . S
C1155 C1163 1.503 . S
C1156 C1155 1.410 . S
C1156 C1157 1.392 . S
C1156 C1159 1.511 . S
C1157 C1153 1.376 . S
C1157 C1156 1.392 . S
C1157 H1169 0.929 . S
C1158 C1154 1.531 . S
C1158 H1170 0.960 . S
C1158 H1171 0.962 . S
C1158 H1172 0.960 . S
C1159 C1156 1.511 . S
C1159 H1173 0.961 . S
C1159 H1174 0.961 . S
C1159 H1175 0.961 . S
C1160 C1161 1.370 . S
C1160 C1162 1.363 . S
C1160 H1176 0.931 . S
C1161 C1160 1.370 . S
C1161 C1165 1.408 . S
C1162 C1160 1.363 . S
C1162 C1163 1.370 . S
C1162 C1166 1.524 . S
C1163 C1155 1.503 . S
C1163 C1162 1.370 . S
C1163 C1164 1.403 . S
C1164 C1163 1.403 . S
C1164 C1165 1.404 . S
C1164 C1167 1.539 . S
C1165 C1161 1.408 . S
C1165 C1164 1.404 . S
C1165 H1177 0.930 . S
C1166 C1162 1.524 . S
C1166 H1178 0.956 . S
C1166 H1179 0.961 . S
C1166 H1180 0.961 . S
C1167 C1164 1.539 . S
C1167 H1181 0.958 . S
C1167 H1182 0.961 . S
C1167 H1183 0.960 . S
H1168 C1152 0.931 . S
H1169 C1157 0.929 . S
H1170 C1158 0.960 . S
H1171 C1158 0.962 . S
H1172 C1158 0.960 . S
H1173 C1159 0.961 . S
H1174 C1159 0.961 . S
H1175 C1159 0.961 . S
H1176 C1160 0.931 . S
H1177 C1165 0.930 . S
H1178 C1166 0.956 . S
H1179 C1166 0.961 . S
H1180 C1166 0.961 . S
H1181 C1167 0.958 . S
H1182 C1167 0.961 . S
H1183 C1167 0.960 . S
C1184 C1185 1.391 . S
C1184 C1186 1.394 . S
C1184 H1200 0.931 . S
C1185 C1184 1.391 . S
C1185 C1189 1.376 . S
C1186 C1184 1.394 . S
C1186 C1187 1.369 . S
C1186 C1190 1.531 . S
C1187 C1186 1.369 . S
C1187 C1188 1.410 . S
C1187 C1195 1.503 . S
C1188 C1187 1.410 . S
C1188 C1189 1.392 . S
C1188 C1191 1.511 . S
C1189 C1185 1.376 . S
C1189 C1188 1.392 . S
C1189 H1201 0.929 . S
C1190 C1186 1.531 . S
C1190 H1202 0.960 . S
C1190 H1203 0.962 . S
C1190 H1204 0.960 . S
C1191 C1188 1.511 . S
C1191 H1205 0.961 . S
C1191 H1206 0.961 . S
C1191 H1207 0.961 . S
C1192 C1193 1.370 . S
C1192 C1194 1.363 . S
C1192 H1208 0.931 . S
C1193 C1192 1.370 . S
C1193 C1197 1.408 . S
C1194 C1192 1.363 . S
C1194 C1195 1.370 . S
C1194 C1198 1.524 . S
C1195 C1187 1.503 . S
C1195 C1194 1.370 . S
C1195 C1196 1.403 . S
C1196 C1195 1.403 . S
C1196 C1197 1.404 . S
C1196 C1199 1.539 . S
C1197 C1193 1.408 . S
C1197 C1196 1.404 . S
C1197 H1209 0.930 . S
C1198 C1194 1.524 . S
C1198 H1210 0.956 . S
C1198 H1211 0.961 . S
C1198 H1212 0.961 . S
C1199 C1196 1.539 . S
C1199 H1213 0.958 . S
C1199 H1214 0.961 . S
C1199 H1215 0.960 . S
H1200 C1184 0.931 . S
H1201 C1189 0.929 . S
H1202 C1190 0.960 . S
H1203 C1190 0.962 . S
H1204 C1190 0.960 . S
H1205 C1191 0.961 . S
H1206 C1191 0.961 . S
H1207 C1191 0.961 . S
H1208 C1192 0.931 . S
H1209 C1197 0.930 . S
H1210 C1198 0.956 . S
H1211 C1198 0.961 . S
H1212 C1198 0.961 . S
H1213 C1199 0.958 . S
H1214 C1199 0.961 . S
H1215 C1199 0.960 . S
C705 C29 0.854 . S
C713 C585 0.849 . S
C737 C108 0.832 . S
C745 C673 0.839 . S
C769 C401 0.833 . S
C777 C196 0.839 . S
C801 C489 0.851 . S
C809 C293 0.846 . S
C833 C49 1.321 . S
C841 C469 1.371 . S
C865 C145 1.349 . S
C873 C548 1.372 . S
C897 C636 1.361 . S
C905 C233 1.352 . S
C929 C313 1.318 . S
C937 C381 1.374 . S
C961 C409 1.356 . S
C969 C20 1.353 . S
C993 C117 1.330 . S
C1001 C497 1.344 . S
C1025 C205 1.331 . S
C1033 C577 1.338 . S
C1057 C665 1.325 . S
C1065 C284 1.338 . S
C1089 C557 1.722 . S
C1097 C57 1.727 . S
C1121 C645 1.736 . S
C1129 C137 1.720 . S
C1153 C225 1.717 . S
C1161 C372 1.729 . S
C1185 C321 1.733 . S
C1193 C460 1.712 . S
