# Generated by pormake.
# Topology soe, (5)-cn, num edge types: 1
# Building blocks:
#     Node 0, Type 0, BuildingBlock: XOMCOT_clean_sbu_0, # of connection points: 5
#     Node 1, Type 0, BuildingBlock: XOMCOT_clean_sbu_0, # of connection points: 5
#     Node 2, Type 0, BuildingBlock: XOMCOT_clean_sbu_0, # of connection points: 5
#     Node 3, Type 0, BuildingBlock: XOMCOT_clean_sbu_0, # of connection points: 5
#     Node 4, Type 0, BuildingBlock: XOMCOT_clean_sbu_0, # of connection points: 5
#     Node 5, Type 0, BuildingBlock: XOMCOT_clean_sbu_0, # of connection points: 5
#     Node 6, Type 0, BuildingBlock: XOMCOT_clean_sbu_0, # of connection points: 5
#     Node 7, Type 0, BuildingBlock: XOMCOT_clean_sbu_0, # of connection points: 5
#     Edge 8, Type (0, 0), BuildingBlock: XIVTED_clean_linker_0, # of connection points: 2
#     Edge 9, Type (0, 0), BuildingBlock: XIVTED_clean_linker_0, # of connection points: 2
#     Edge 10, Type (0, 0), BuildingBlock: XIVTED_clean_linker_0, # of connection points: 2
#     Edge 11, Type (0, 0), BuildingBlock: XIVTED_clean_linker_0, # of connection points: 2
#     Edge 12, Type (0, 0), BuildingBlock: XIVTED_clean_linker_0, # of connection points: 2
#     Edge 13, Type (0, 0), BuildingBlock: XIVTED_clean_linker_0, # of connection points: 2
#     Edge 14, Type (0, 0), BuildingBlock: XIVTED_clean_linker_0, # of connection points: 2
#     Edge 15, Type (0, 0), BuildingBlock: XIVTED_clean_linker_0, # of connection points: 2
#     Edge 16, Type (0, 0), BuildingBlock: XIVTED_clean_linker_0, # of connection points: 2
#     Edge 17, Type (0, 0), BuildingBlock: XIVTED_clean_linker_0, # of connection points: 2
#     Edge 18, Type (0, 0), BuildingBlock: XIVTED_clean_linker_0, # of connection points: 2
#     Edge 19, Type (0, 0), BuildingBlock: XIVTED_clean_linker_0, # of connection points: 2
#     Edge 20, Type (0, 0), BuildingBlock: XIVTED_clean_linker_0, # of connection points: 2
#     Edge 21, Type (0, 0), BuildingBlock: XIVTED_clean_linker_0, # of connection points: 2
#     Edge 22, Type (0, 0), BuildingBlock: XIVTED_clean_linker_0, # of connection points: 2
#     Edge 23, Type (0, 0), BuildingBlock: XIVTED_clean_linker_0, # of connection points: 2
#     Edge 24, Type (0, 0), BuildingBlock: XIVTED_clean_linker_0, # of connection points: 2
#     Edge 25, Type (0, 0), BuildingBlock: XIVTED_clean_linker_0, # of connection points: 2
#     Edge 26, Type (0, 0), BuildingBlock: XIVTED_clean_linker_0, # of connection points: 2
#     Edge 27, Type (0, 0), BuildingBlock: XIVTED_clean_linker_0, # of connection points: 2
# Relax obj value: 0.034
# Max RMSD: 0.066
# Mean RMSD: 0.066
data_MOF--net-soe--node1-XOMCOT_clean_sbu_0--edge1-XIVTED_clean_linker_0
_symmetry_space_group_name_H-M    P1
_symmetry_Int_Tables_number       1
_symmetry_cell_setting            triclinic
loop_
_symmetry_equiv_pos_as_xyz
'x, y, z'
_cell_length_a     59.5691
_cell_length_b     43.910763
_cell_length_c     17.72514
_cell_angle_alpha  89.90145
_cell_angle_beta   89.852942
_cell_angle_gamma 90.094474
loop_
_atom_site_label
_atom_site_type_symbol
_atom_site_fract_x
_atom_site_fract_y
_atom_site_fract_z
_atom_type_partial_charge
Co0 Co 0.10631 0.11771 0.08971 0.0
C1 C 0.10664 0.1222 0.92135 0.0
C2 C 0.0968 0.1639 0.97388 0.0
C3 C 0.09492 0.16737 0.89709 0.0
N4 N 0.10493 0.13589 0.98942 0.0
N5 N 0.10107 0.14107 0.86415 0.0
H6 H 0.11052 0.09851 0.91331 0.0
H7 H 0.09133 0.18026 0.0155 0.0
C8 C 0.12667 0.17914 0.11246 0.0
O9 O 0.14014 0.17268 0.05588 0.0
N10 N 0.10671 0.09996 0.18918 0.0
C11 C 0.11304 0.07146 0.20734 0.0
C12 C 0.112 0.06829 0.28454 0.0
C13 C 0.10179 0.11372 0.25499 0.0
N14 N 0.105 0.09492 0.31441 0.0
C15 C 0.14476 0.08757 0.02906 0.0
C16 C 0.17456 0.10468 0.14035 0.0
C17 C 0.18133 0.08318 0.08651 0.0
C18 C 0.16619 0.07509 0.02977 0.0
C19 C 0.15288 0.11691 0.13712 0.0
N20 N 0.13825 0.10855 0.08135 0.0
H21 H 0.13293 0.07811 0.99016 0.0
H22 H 0.14745 0.13167 0.18228 0.0
H23 H 0.11858 0.05445 0.16736 0.0
H24 H 0.09611 0.13703 0.25921 0.0
O25 O 0.09499 0.07997 0.05005 0.0
O26 O 0.07374 0.11778 0.09186 0.0
O27 O 0.11223 0.15943 0.13472 0.0
C28 C 0.07502 0.0906 0.06246 0.0
H29 H 0.08831 0.18712 0.86811 0.0
H30 H 0.11679 0.04826 0.31625 0.0
H31 H 0.18562 0.11125 0.18593 0.0
H32 H 0.17026 0.05759 0.98899 0.0
Co33 Co 0.39883 0.93192 0.12014 0.0
C34 C 0.39803 0.92556 0.95153 0.0
C35 C 0.41475 0.88856 1.00616 0.0
C36 C 0.4165 0.88461 0.92936 0.0
N37 N 0.40268 0.9139 0.02043 0.0
N38 N 0.40596 0.90794 0.89498 0.0
H39 H 0.39041 0.94737 0.942 0.0
H40 H 0.42236 0.87433 0.04884 0.0
C41 C 0.3823 0.86787 0.13828 0.0
O42 O 0.37143 0.87099 0.07433 0.0
N43 N 0.39582 0.94961 0.21925 0.0
C44 C 0.38747 0.9773 0.23565 0.0
C45 C 0.38686 0.98056 0.31288 0.0
C46 C 0.40035 0.93647 0.28633 0.0
N47 N 0.39491 0.95484 0.34472 0.0
C48 C 0.36096 0.96162 0.05568 0.0
C49 C 0.32872 0.93728 0.15043 0.0
C50 C 0.32253 0.9599 0.09861 0.0
C51 C 0.33896 0.97178 0.05045 0.0
C52 C 0.35105 0.92728 0.15292 0.0
N53 N 0.36686 0.93905 0.10476 0.0
H54 H 0.37344 0.97386 0.02401 0.0
H55 H 0.35578 0.91153 0.19688 0.0
H56 H 0.38186 0.99374 0.19433 0.0
H57 H 0.40691 0.91364 0.29227 0.0
O58 O 0.40987 0.9702 0.08195 0.0
O59 O 0.43127 0.93366 0.12905 0.0
O60 O 0.39357 0.89012 0.16525 0.0
C61 C 0.42984 0.96059 0.09833 0.0
H62 H 0.42519 0.86621 0.90127 0.0
H63 H 0.38092 1.00037 0.34312 0.0
H64 H 0.31661 0.92808 0.19008 0.0
H65 H 0.33521 0.99036 0.0122 0.0
Co66 Co 0.09842 0.44453 0.39521 0.0
C67 C 0.10253 0.44046 0.56138 0.0
C68 C 0.09751 0.39655 0.51124 0.0
C69 C 0.09764 0.39319 0.58837 0.0
N70 N 0.1006 0.42617 0.4943 0.0
N71 N 0.10059 0.42085 0.62004 0.0
H72 H 0.10419 0.46488 0.56703 0.0
H73 H 0.09448 0.37863 0.47082 0.0
C74 C 0.12036 0.39502 0.30143 0.0
O75 O 0.13394 0.4153 0.27118 0.0
N76 N 0.09545 0.46297 0.29492 0.0
C77 C 0.09382 0.49295 0.27838 0.0
C78 C 0.09198 0.49659 0.20164 0.0
C79 C 0.09304 0.44888 0.22752 0.0
N80 N 0.09171 0.46884 0.16956 0.0
C81 C 0.13485 0.4865 0.39687 0.0
C82 C 0.16926 0.44542 0.41836 0.0
C83 C 0.17455 0.47633 0.40717 0.0
C84 C 0.15684 0.49695 0.39897 0.0
C85 C 0.14673 0.43593 0.41683 0.0
N86 N 0.12997 0.4562 0.40104 0.0
H87 H 0.12173 0.50314 0.3936 0.0
H88 H 0.14283 0.41224 0.4272 0.0
H89 H 0.09335 0.51127 0.31886 0.0
H90 H 0.09211 0.42455 0.22039 0.0
O91 O 0.08603 0.48063 0.44001 0.0
O92 O 0.06587 0.4413 0.40097 0.0
O93 O 0.10539 0.40329 0.34904 0.0
C94 C 0.06641 0.46826 0.43181 0.0
H95 H 0.09524 0.372 0.61855 0.0
H96 H 0.0906 0.51806 0.17194 0.0
H97 H 0.18231 0.42867 0.42718 0.0
H98 H 0.15984 0.52124 0.39524 0.0
Co99 Co 0.40409 0.60263 0.42408 0.0
C100 C 0.4033 0.60838 0.59257 0.0
C101 C 0.41584 0.64848 0.53835 0.0
C102 C 0.41745 0.65239 0.61516 0.0
N103 N 0.40628 0.62122 0.52379 0.0
N104 N 0.40952 0.62711 0.64928 0.0
H105 H 0.39849 0.58505 0.6017 0.0
H106 H 0.42207 0.6641 0.49597 0.0
C107 C 0.38511 0.66501 0.40091 0.0
O108 O 0.37304 0.66081 0.46223 0.0
N109 N 0.40278 0.58435 0.3251 0.0
C110 C 0.39601 0.55583 0.30909 0.0
C111 C 0.39584 0.55227 0.23195 0.0
C112 C 0.4068 0.59773 0.25781 0.0
N113 N 0.40254 0.57867 0.19969 0.0
C114 C 0.36561 0.57269 0.48719 0.0
C115 C 0.3352 0.59198 0.38018 0.0
C116 C 0.32833 0.57017 0.43356 0.0
C117 C 0.34379 0.56124 0.48871 0.0
C118 C 0.35714 0.60344 0.3818 0.0
N119 N 0.3721 0.59399 0.43537 0.0
H120 H 0.37759 0.5624 0.52431 0.0
H121 H 0.36247 0.61826 0.3365 0.0
H122 H 0.39103 0.53903 0.35061 0.0
H123 H 0.41203 0.62119 0.25148 0.0
O124 O 0.41557 0.56506 0.46452 0.0
O125 O 0.43663 0.60252 0.41904 0.0
O126 O 0.39818 0.64397 0.37726 0.0
C127 C 0.43549 0.57555 0.44985 0.0
H128 H 0.42436 0.6721 0.64339 0.0
H129 H 0.39101 0.53183 0.20207 0.0
H130 H 0.32422 0.59897 0.33482 0.0
H131 H 0.33947 0.54452 0.5313 0.0
Co132 Co 0.90475 0.94351 0.91607 0.0
C133 C 0.90375 0.93909 0.08211 0.0
C134 C 0.91477 0.89736 0.03131 0.0
C135 C 0.91588 0.89428 0.10858 0.0
N136 N 0.90712 0.92541 0.01497 0.0
N137 N 0.90901 0.92058 0.14051 0.0
H138 H 0.89843 0.96252 0.08784 0.0
H139 H 0.9198 0.88058 0.99004 0.0
C140 C 0.88408 0.89366 0.81997 0.0
O141 O 0.87131 0.91391 0.78631 0.0
N142 N 0.90286 0.96198 0.81644 0.0
C143 C 0.89514 0.98998 0.7993 0.0
C144 C 0.89619 0.99404 0.72249 0.0
C145 C 0.90948 0.94998 0.74977 0.0
N146 N 0.90491 0.96871 0.69106 0.0
C147 C 0.86937 0.98339 0.95985 0.0
C148 C 0.83362 0.94421 0.94245 0.0
C149 C 0.82931 0.9752 0.95655 0.0
C150 C 0.84772 0.99424 0.96978 0.0
C151 C 0.85588 0.93394 0.93604 0.0
N152 N 0.8734 0.95408 0.93787 0.0
H153 H 0.8828 0.99936 0.96847 0.0
H154 H 0.85872 0.9099 0.9292 0.0
H155 H 0.88928 1.00666 0.83925 0.0
H156 H 0.91665 0.92748 0.74422 0.0
O157 O 0.91828 0.98013 0.95349 0.0
O158 O 0.93745 0.94178 0.9055 0.0
O159 O 0.89726 0.90179 0.87326 0.0
C160 C 0.93759 0.96882 0.93584 0.0
H161 H 0.9215 0.87426 0.13871 0.0
H162 H 0.89087 1.0142 0.69232 0.0
H163 H 0.8201 0.92805 0.93484 0.0
H164 H 0.84561 1.01774 0.98665 0.0
Co165 Co 0.60006 0.10247 0.92021 0.0
C166 C 0.60245 0.10716 0.08614 0.0
C167 C 0.59372 0.14988 0.03512 0.0
C168 C 0.59305 0.15317 0.11234 0.0
N169 N 0.59965 0.12106 0.01886 0.0
N170 N 0.59842 0.12624 0.14448 0.0
H171 H 0.60633 0.08321 0.09201 0.0
H172 H 0.58942 0.16707 0.99391 0.0
C173 C 0.62158 0.15103 0.82177 0.0
O174 O 0.63418 0.13019 0.78964 0.0
N175 N 0.59994 0.08363 0.82062 0.0
C176 C 0.60487 0.05447 0.80358 0.0
C177 C 0.60343 0.05056 0.72686 0.0
C178 C 0.5944 0.09656 0.75385 0.0
N179 N 0.59716 0.07717 0.69527 0.0
C180 C 0.63536 0.06087 0.95269 0.0
C181 C 0.67115 0.10051 0.94362 0.0
C182 C 0.67542 0.06917 0.95238 0.0
C183 C 0.65698 0.04972 0.96091 0.0
C184 C 0.64891 0.11094 0.93841 0.0
N185 N 0.6314 0.09078 0.93635 0.0
H186 H 0.62185 0.04486 0.95963 0.0
H187 H 0.646 0.13513 0.9357 0.0
H188 H 0.60901 0.03684 0.84349 0.0
H189 H 0.58916 0.11999 0.74798 0.0
O190 O 0.58647 0.06659 0.96181 0.0
O191 O 0.56732 0.10546 0.91615 0.0
O192 O 0.6079 0.14362 0.87452 0.0
C193 C 0.56714 0.07863 0.94791 0.0
H194 H 0.58861 0.17375 0.14229 0.0
H195 H 0.60676 0.02961 0.69685 0.0
H196 H 0.6847 0.11687 0.93967 0.0
H197 H 0.65903 0.02578 0.97374 0.0
Co198 Co 0.89948 0.61538 0.61487 0.0
C199 C 0.89825 0.62067 0.44649 0.0
C200 C 0.91192 0.6603 0.49931 0.0
C201 C 0.91331 0.66408 0.4224 0.0
N202 N 0.9019 0.63339 0.51473 0.0
N203 N 0.90467 0.6391 0.38927 0.0
H204 H 0.89264 0.59766 0.43797 0.0
H205 H 0.91851 0.67577 0.5412 0.0
C206 C 0.87975 0.67736 0.63242 0.0
O207 O 0.86737 0.67101 0.5732 0.0
N208 N 0.89791 0.59774 0.71431 0.0
C209 C 0.89116 0.56928 0.73148 0.0
C210 C 0.89116 0.56604 0.80869 0.0
C211 C 0.90209 0.61141 0.78081 0.0
N212 N 0.89797 0.59256 0.83961 0.0
C213 C 0.86183 0.5837 0.55328 0.0
C214 C 0.83002 0.60467 0.65401 0.0
C215 C 0.82386 0.5824 0.6013 0.0
C216 C 0.8401 0.57215 0.55028 0.0
C217 C 0.85205 0.61596 0.65446 0.0
N218 N 0.8676 0.60602 0.6031 0.0
H219 H 0.8743 0.57267 0.51922 0.0
H220 H 0.85684 0.63145 0.69885 0.0
H221 H 0.88619 0.55228 0.6907 0.0
H222 H 0.90738 0.63489 0.78608 0.0
O223 O 0.91136 0.57769 0.57664 0.0
O224 O 0.93207 0.61562 0.62045 0.0
O225 O 0.89321 0.65725 0.65857 0.0
C226 C 0.93118 0.58846 0.59088 0.0
H227 H 0.92049 0.68349 0.39336 0.0
H228 H 0.88644 0.54573 0.83956 0.0
H229 H 0.81812 0.61272 0.69572 0.0
H230 H 0.83647 0.55387 0.51117 0.0
Co231 Co 0.60464 0.42864 0.60951 0.0
C232 C 0.60542 0.42392 0.44126 0.0
C233 C 0.59387 0.38299 0.4943 0.0
C234 C 0.59212 0.37948 0.41748 0.0
N235 N 0.60289 0.41054 0.5095 0.0
N236 N 0.59933 0.40531 0.38426 0.0
H237 H 0.6104 0.44722 0.43282 0.0
H238 H 0.58785 0.36703 0.53624 0.0
C239 C 0.62484 0.36699 0.63036 0.0
O240 O 0.63771 0.37317 0.57194 0.0
N241 N 0.60549 0.44633 0.70878 0.0
C242 C 0.61202 0.47479 0.72651 0.0
C243 C 0.61125 0.47792 0.80373 0.0
C244 C 0.60074 0.43255 0.77483 0.0
N245 N 0.60423 0.45131 0.83402 0.0
C246 C 0.64256 0.46028 0.54847 0.0
C247 C 0.67355 0.44085 0.65354 0.0
C248 C 0.67995 0.46302 0.60059 0.0
C249 C 0.66414 0.47242 0.54722 0.0
C250 C 0.65169 0.42902 0.65236 0.0
N251 N 0.63652 0.43831 0.59919 0.0
H252 H 0.63032 0.47062 0.51236 0.0
H253 H 0.64666 0.41371 0.69705 0.0
H254 H 0.61747 0.4918 0.68621 0.0
H255 H 0.59493 0.40927 0.77937 0.0
O256 O 0.59275 0.46617 0.5703 0.0
O257 O 0.57204 0.42799 0.61364 0.0
O258 O 0.61094 0.38699 0.65436 0.0
C259 C 0.57293 0.45516 0.58389 0.0
H260 H 0.58494 0.36008 0.38861 0.0
H261 H 0.6162 0.49794 0.83511 0.0
H262 H 0.6851 0.43332 0.69679 0.0
H263 H 0.66792 0.49053 0.50757 0.0
H264 H 0.2967 0.97403 0.97674 0.0
H265 H 0.20189 0.06078 0.21371 0.0
H266 H 0.29711 0.97808 0.2199 0.0
H267 H 0.20998 0.06764 0.97221 0.0
H268 H 0.23541 0.02855 0.21899 0.0
H269 H 0.26254 1.00451 0.97554 0.0
C270 C 0.28943 0.98111 0.02998 0.0
C271 C 0.29983 0.97371 0.09848 0.0
C272 C 0.22988 0.03725 0.16496 0.0
C273 C 0.26078 1.00892 0.09763 0.0
C274 C 0.2109 0.05592 0.16197 0.0
C275 C 0.20307 0.06686 0.09233 0.0
C276 C 0.24101 0.02941 0.09781 0.0
C277 C 0.21521 0.05938 0.02699 0.0
C278 C 0.26998 0.99863 0.02929 0.0
C279 C 0.28954 0.98313 0.16585 0.0
N280 N 0.23346 0.04103 0.03132 0.0
N281 N 0.27064 1.00049 0.16376 0.0
H282 H 0.19199 0.52172 0.31849 0.0
H283 H 0.31714 0.51076 0.46782 0.0
H284 H 0.21105 0.45709 0.49074 0.0
H285 H 0.28811 0.59482 0.38684 0.0
H286 H 0.28032 0.48671 0.46011 0.0
H287 H 0.22937 0.5441 0.32446 0.0
C288 C 0.20398 0.51223 0.35784 0.0
C289 C 0.1981 0.48777 0.40535 0.0
C290 C 0.28207 0.51043 0.44431 0.0
C291 C 0.24125 0.51301 0.41078 0.0
C292 C 0.30307 0.52439 0.44925 0.0
C293 C 0.30588 0.55518 0.42883 0.0
C294 C 0.26375 0.52709 0.41728 0.0
C295 C 0.28697 0.57104 0.40253 0.0
C296 C 0.22535 0.52502 0.3609 0.0
C297 C 0.21474 0.47583 0.45299 0.0
N298 N 0.26676 0.55679 0.39726 0.0
N299 N 0.23557 0.48863 0.45462 0.0
H300 H 0.71516 0.09589 1.00041 0.0
H301 H 0.78886 0.94737 0.99412 0.0
H302 H 0.68907 1.01266 0.90371 0.0
H303 H 0.81643 0.03321 0.91674 0.0
H304 H 0.75144 0.97044 0.99261 0.0
H305 H 0.7526 0.07287 1.00138 0.0
C306 C 0.71713 0.07295 0.9793 0.0
C307 C 0.69861 0.05624 0.95281 0.0
C308 C 0.76587 0.98405 0.9766 0.0
C309 C 0.74126 0.02957 0.95677 0.0
C310 C 0.78723 0.97091 0.97685 0.0
C311 C 0.80616 0.98829 0.95646 0.0
C312 C 0.76346 1.0149 0.95758 0.0
C313 C 0.8027 1.01895 0.93561 0.0
C314 C 0.73849 0.0598 0.98051 0.0
C315 C 0.70247 0.02629 0.92721 0.0
N316 N 0.78186 0.03132 0.93751 0.0
N317 N 0.72326 1.01383 0.93064 0.0
H318 H 0.79757 0.56737 0.48087 0.0
H319 H 0.7031 0.48248 0.72576 0.0
H320 H 0.7992 0.56327 0.72403 0.0
H321 H 0.70717 0.47945 0.48274 0.0
H322 H 0.73767 0.51279 0.72794 0.0
H323 H 0.7631 0.53741 0.48197 0.0
C324 C 0.79058 0.56029 0.5346 0.0
C325 C 0.80138 0.5677 0.60242 0.0
C326 C 0.73103 0.50535 0.67421 0.0
C327 C 0.76181 0.53318 0.6042 0.0
C328 C 0.71142 0.48779 0.67295 0.0
C329 C 0.70216 0.47846 0.6039 0.0
C330 C 0.74141 0.5137 0.60596 0.0
C331 C 0.7135 0.48647 0.53721 0.0
C332 C 0.7709 0.54312 0.53522 0.0
C333 C 0.79136 0.55829 0.67044 0.0
N334 N 0.73242 0.50369 0.53992 0.0
N335 N 0.77219 0.54135 0.6696 0.0
H336 H 0.93999 0.02599 0.9924 0.0
H337 H 0.07393 0.03382 1.00037 0.0
H338 H 0.98198 0.95223 0.91529 0.0
H339 H 0.03063 0.10582 0.07924 0.0
H340 H 0.04089 1.00377 0.96719 0.0
H341 H 0.97325 0.05545 0.02203 0.0
C342 C 0.95627 1.01593 0.98153 0.0
C343 C 0.95819 0.98649 0.95137 0.0
C344 C 0.0386 0.02612 0.99174 0.0
C345 C 0.99661 1.02042 0.98562 0.0
C346 C 0.05745 0.04333 0.01079 0.0
C347 C 0.05501 0.0724 0.04278 0.0
C348 C 0.01711 0.03804 1.00469 0.0
C349 C 0.03328 0.08353 0.05483 0.0
C350 C 0.97531 0.03287 0.99859 0.0
C351 C 0.97975 0.97482 0.93845 0.0
N352 N 0.01518 0.06632 0.03578 0.0
N353 N 0.99818 0.99184 0.95581 0.0
H354 H 0.43076 1.01724 0.03471 0.0
H355 H 0.56464 1.02312 0.0141 0.0
H356 H 0.47421 0.94628 0.11818 0.0
H357 H 0.52277 0.09615 0.9322 0.0
H358 H 0.53139 0.99531 0.05284 0.0
H359 H 0.46377 0.04696 0.99827 0.0
C360 C 0.44726 1.00794 0.0457 0.0
C361 C 0.44976 0.97918 0.07951 0.0
C362 C 0.52935 1.01739 0.02645 0.0
C363 C 0.48759 1.0131 0.03757 0.0
C364 C 0.54838 0.03337 1.00408 0.0
C365 C 0.5465 0.06208 0.96966 0.0
C366 C 0.50808 0.03004 0.01445 0.0
C367 C 0.52496 0.07408 0.95841 0.0
C368 C 0.46609 0.02495 0.02475 0.0
C369 C 0.47151 0.96831 0.09232 0.0
N370 N 0.50652 0.05795 0.98077 0.0
N371 N 0.48957 0.98526 0.07116 0.0
H372 H 0.02218 0.45025 0.42215 0.0
H373 H 0.97549 0.6046 0.60771 0.0
H374 H 0.06442 0.52382 0.49898 0.0
H375 H 0.93288 0.53155 0.53017 0.0
H376 H 0.00842 0.57463 0.57113 0.0
H377 H 0.98914 0.47904 0.46395 0.0
C378 C 0.0245 0.47239 0.44782 0.0
C379 C 0.04606 0.48466 0.45689 0.0
C380 C 0.99185 0.56513 0.56229 0.0
C381 C 0.00847 0.5177 0.50483 0.0
C382 C 0.97307 0.58224 0.58328 0.0
C383 C 0.95143 0.57059 0.57188 0.0
C384 C 0.98895 0.53619 0.52964 0.0
C385 C 0.94926 0.54147 0.5399 0.0
C386 C 0.00567 0.48883 0.47169 0.0
C387 C 0.04812 0.51347 0.49064 0.0
N388 N 0.96775 0.52533 0.51979 0.0
N389 N 0.0296 0.52898 0.51323 0.0
H390 H 0.43701 0.51908 0.51379 0.0
H391 H 0.57117 0.51161 0.52039 0.0
H392 H 0.47983 0.59095 0.42963 0.0
H393 H 0.52858 0.43925 0.60325 0.0
H394 H 0.53792 0.5409 0.48721 0.0
H395 H 0.47023 0.48956 0.54682 0.0
C396 C 0.45343 0.52867 0.50212 0.0
C397 C 0.45566 0.55756 0.46882 0.0
C398 C 0.53579 0.51864 0.51267 0.0
C399 C 0.49383 0.52379 0.50676 0.0
C400 C 0.55479 0.50186 0.53175 0.0
C401 C 0.55265 0.47291 0.56476 0.0
C402 C 0.51439 0.50645 0.52661 0.0
C403 C 0.531 0.46148 0.57798 0.0
C404 C 0.4724 0.51176 0.52109 0.0
C405 C 0.47734 0.56878 0.45514 0.0
N406 N 0.51269 0.47829 0.55884 0.0
N407 N 0.49559 0.55187 0.47422 0.0
H408 H 0.09502 0.08555 0.79892 0.0
H409 H 0.10807 0.15085 0.37932 0.0
H410 H 0.10567 0.1806 0.74746 0.0
H411 H 0.09732 0.05579 0.43058 0.0
H412 H 0.10585 0.16242 0.51361 0.0
H413 H 0.09497 0.07435 0.66421 0.0
C414 C 0.09748 0.10407 0.75943 0.0
C415 C 0.10049 0.13409 0.78474 0.0
C416 C 0.10391 0.13903 0.49548 0.0
C417 C 0.10018 0.12142 0.63003 0.0
C418 C 0.10503 0.13242 0.41861 0.0
C419 C 0.10291 0.10225 0.39338 0.0
C420 C 0.10067 0.11534 0.54774 0.0
C421 C 0.09936 0.07929 0.44738 0.0
C422 C 0.09729 0.09767 0.68236 0.0
C423 C 0.1031 0.1572 0.73058 0.0
N424 N 0.09839 0.08631 0.52194 0.0
N425 N 0.10295 0.15037 0.65586 0.0
H426 H 0.36961 0.97858 0.45795 0.0
H427 H 0.43335 0.88657 0.78341 0.0
H428 H 0.42342 0.91533 0.41397 0.0
H429 H 0.37519 0.94301 0.82232 0.0
H430 H 0.43059 0.89743 0.64863 0.0
H431 H 0.37234 0.96697 0.59214 0.0
C432 C 0.38212 0.96238 0.47643 0.0
C433 C 0.39637 0.94802 0.42429 0.0
C434 C 0.41843 0.90741 0.68671 0.0
C435 C 0.39944 0.93432 0.57854 0.0
C436 C 0.41992 0.9011 0.76386 0.0
C437 C 0.40451 0.91392 0.81488 0.0
C438 C 0.40144 0.92675 0.66007 0.0
C439 C 0.38767 0.93296 0.7857 0.0
C440 C 0.38356 0.95559 0.55321 0.0
C441 C 0.41196 0.92677 0.45184 0.0
N442 N 0.38662 0.93879 0.71046 0.0
N443 N 0.41312 0.92063 0.52703 0.0
H444 H 0.11719 0.47127 0.69008 0.0
H445 H 0.07696 0.41713 0.10078 0.0
H446 H 0.08145 0.38731 0.73266 0.0
H447 H 0.10705 0.50479 0.05569 0.0
H448 H 0.07924 0.40529 0.96637 0.0
H449 H 0.11432 0.48357 0.82411 0.0
C450 C 0.10869 0.45543 0.72729 0.0
C451 C 0.09959 0.42815 0.69947 0.0
C452 C 0.08527 0.42718 0.98587 0.0
C453 C 0.09641 0.44203 0.85357 0.0
C454 C 0.08405 0.43391 0.06278 0.0
C455 C 0.0918 0.46204 0.08989 0.0
C456 C 0.09443 0.44864 0.93552 0.0
C457 C 0.10057 0.483 0.03748 0.0
C458 C 0.10713 0.46244 0.80401 0.0
C459 C 0.08904 0.40837 0.7511 0.0
N460 N 0.10172 0.47584 0.96301 0.0
N461 N 0.08775 0.4157 0.82542 0.0
H462 H 0.37908 0.55152 0.0869 0.0
H463 H 0.43485 0.65289 0.76031 0.0
H464 H 0.42826 0.62163 0.12959 0.0
H465 H 0.3826 0.58649 0.72208 0.0
H466 H 0.4332 0.64147 0.8951 0.0
H467 H 0.381 0.56328 0.95271 0.0
C468 C 0.39043 0.56925 0.06816 0.0
C469 C 0.40361 0.58549 0.11999 0.0
C470 C 0.4221 0.6294 0.85717 0.0
C471 C 0.40569 0.5994 0.9656 0.0
C472 C 0.42295 0.63602 0.78003 0.0
C473 C 0.40886 0.62061 0.72925 0.0
C474 C 0.40707 0.60719 0.88402 0.0
C475 C 0.39402 0.59865 0.75857 0.0
C476 C 0.3914 0.57611 0.99133 0.0
C477 C 0.41765 0.60868 0.09201 0.0
N478 N 0.39353 0.59262 0.8338 0.0
N479 N 0.41836 0.61488 0.01677 0.0
H480 H 0.88338 0.96332 0.21037 0.0
H481 H 0.93196 0.92691 0.62234 0.0
H482 H 0.93353 0.89464 0.25309 0.0
H483 H 0.88146 0.99487 0.57656 0.0
H484 H 0.93323 0.91494 0.48759 0.0
H485 H 0.88307 0.97565 0.34453 0.0
C486 C 0.89441 0.95091 0.24775 0.0
C487 C 0.9085 0.92788 0.21998 0.0
C488 C 0.92194 0.93255 0.50717 0.0
C489 C 0.90809 0.94174 0.37446 0.0
C490 C 0.92115 0.93934 0.58425 0.0
C491 C 0.90664 0.96206 0.61137 0.0
C492 C 0.90809 0.94851 0.45667 0.0
C493 C 0.8932 0.97756 0.55874 0.0
C494 C 0.89415 0.95786 0.3246 0.0
C495 C 0.92218 0.91228 0.27175 0.0
N496 N 0.89423 0.97047 0.48426 0.0
N497 N 0.92165 0.9195 0.34634 0.0
H498 H 0.57428 0.12326 0.62628 0.0
H499 H 0.62068 0.08022 0.21484 0.0
H500 H 0.61816 0.04726 0.58088 0.0
H501 H 0.5757 0.15532 0.25691 0.0
H502 H 0.61966 0.06774 0.34904 0.0
H503 H 0.57444 0.13552 0.49155 0.0
C504 C 0.58393 0.10912 0.58828 0.0
C505 C 0.59615 0.08408 0.61551 0.0
C506 C 0.61001 0.08698 0.32892 0.0
C507 C 0.59635 0.09797 0.46078 0.0
C508 C 0.61051 0.09404 0.25205 0.0
C509 C 0.59828 0.1189 0.22404 0.0
C510 C 0.59717 0.10485 0.37857 0.0
C511 C 0.58567 0.13622 0.27566 0.0
C512 C 0.58395 0.11608 0.51119 0.0
C513 C 0.60816 0.06646 0.56295 0.0
N514 N 0.58543 0.12886 0.35024 0.0
N515 N 0.60799 0.07378 0.48846 0.0
H516 H 0.87605 0.60025 0.3192 0.0
H517 H 0.92478 0.63476 0.90645 0.0
H518 H 0.93053 0.66297 0.27665 0.0
H519 H 0.87427 0.56679 0.95411 0.0
H520 H 0.92643 0.64676 0.04103 0.0
H521 H 0.87464 0.58873 0.18491 0.0
C522 C 0.88783 0.61148 0.2818 0.0
C523 C 0.90351 0.63252 0.30965 0.0
C524 C 0.91502 0.62918 0.02198 0.0
C525 C 0.90178 0.6197 0.15507 0.0
C526 C 0.91398 0.62243 0.94509 0.0
C527 C 0.89939 0.59968 0.91882 0.0
C528 C 0.90128 0.61318 0.07299 0.0
C529 C 0.886 0.58417 0.97173 0.0
C530 C 0.88693 0.605 0.2049 0.0
C531 C 0.91802 0.64683 0.2579 0.0
N532 N 0.88724 0.59125 0.04614 0.0
N533 N 0.91682 0.64013 0.18316 0.0
H534 H 0.59506 0.46102 0.3184 0.0
H535 H 0.60683 0.39532 0.89942 0.0
H536 H 0.60301 0.36552 0.26808 0.0
H537 H 0.59718 0.49055 0.95 0.0
H538 H 0.60458 0.38378 0.03386 0.0
H539 H 0.59545 0.47219 0.18361 0.0
C540 C 0.59704 0.44239 0.27912 0.0
C541 C 0.59915 0.41226 0.30476 0.0
C542 C 0.60289 0.4072 0.01553 0.0
C543 C 0.59932 0.42489 0.14993 0.0
C544 C 0.60403 0.41381 0.93859 0.0
C545 C 0.60222 0.444 0.9131 0.0
C546 C 0.59994 0.43094 0.06759 0.0
C547 C 0.59898 0.46702 0.96695 0.0
C548 C 0.59709 0.44877 0.202 0.0
C549 C 0.60114 0.38902 0.25089 0.0
N550 N 0.59798 0.46001 0.04156 0.0
N551 N 0.60126 0.39582 0.17607 0.0
H552 H 0.15489 0.22629 0.07711 0.0
H553 H 0.09401 0.34696 0.34747 0.0
H554 H 0.09926 0.20302 0.22285 0.0
H555 H 0.14972 0.36906 0.20094 0.0
H556 H 0.09628 0.29396 0.30602 0.0
H557 H 0.15399 0.27817 0.1258 0.0
C558 C 0.14252 0.23201 0.11966 0.0
C559 C 0.12705 0.21019 0.1456 0.0
C560 C 0.10804 0.31039 0.28307 0.0
C561 C 0.12587 0.26992 0.2016 0.0
C562 C 0.10677 0.34071 0.30673 0.0
C563 C 0.12168 0.36264 0.27763 0.0
C564 C 0.12434 0.30181 0.2298 0.0
C565 C 0.13782 0.35307 0.2249 0.0
C566 C 0.14201 0.26174 0.14742 0.0
C567 C 0.11148 0.21907 0.20101 0.0
N568 N 0.13868 0.32345 0.20267 0.0
N569 N 0.11123 0.24826 0.2269 0.0
H570 H 0.38909 0.85691 0.28869 0.0
H571 H 0.39462 0.67677 0.25229 0.0
H572 H 0.37506 0.81134 0.07854 0.0
H573 H 0.37357 0.72056 0.45831 0.0
H574 H 0.39331 0.72629 0.18786 0.0
H575 H 0.38922 0.80732 0.35281 0.0
C576 C 0.38606 0.83648 0.25607 0.0
C577 C 0.38199 0.83822 0.17822 0.0
C578 C 0.38893 0.72497 0.24712 0.0
C579 C 0.38248 0.78154 0.25091 0.0
C580 C 0.38977 0.6968 0.28396 0.0
C581 C 0.38414 0.69457 0.36072 0.0
C582 C 0.38296 0.75118 0.28776 0.0
C583 C 0.37789 0.72123 0.39896 0.0
C584 C 0.38605 0.80825 0.29271 0.0
C585 C 0.37811 0.81103 0.13873 0.0
N586 N 0.37767 0.74848 0.3623 0.0
N587 N 0.37866 0.78377 0.17535 0.0
H588 H 0.90793 0.84504 0.8761 0.0
H589 H 0.85318 0.72504 0.58957 0.0
H590 H 0.85752 0.86798 0.71109 0.0
H591 H 0.90479 0.70093 0.74931 0.0
H592 H 0.85352 0.77693 0.63808 0.0
H593 H 0.90613 0.79191 0.8348 0.0
C594 C 0.89643 0.83895 0.83136 0.0
C595 C 0.88287 0.86115 0.79702 0.0
C596 C 0.86474 0.76033 0.66282 0.0
C597 C 0.88075 0.80021 0.74938 0.0
C598 C 0.86454 0.73058 0.63516 0.0
C599 C 0.87904 0.70849 0.66513 0.0
C600 C 0.87958 0.76829 0.72104 0.0
C601 C 0.89334 0.71717 0.72433 0.0
C602 C 0.89542 0.80856 0.80779 0.0
C603 C 0.86831 0.85178 0.73928 0.0
N604 N 0.8933 0.7464 0.75013 0.0
N605 N 0.86768 0.82212 0.71732 0.0
H606 H 0.64884 0.17526 0.71207 0.0
H607 H 0.5998 0.34471 0.74905 0.0
H608 H 0.59784 0.20044 0.87363 0.0
H609 H 0.65101 0.31857 0.58914 0.0
H610 H 0.59967 0.29263 0.79882 0.0
H611 H 0.65058 0.2281 0.66934 0.0
C612 C 0.63804 0.19188 0.7388 0.0
C613 C 0.62315 0.18327 0.79658 0.0
C614 C 0.61099 0.29833 0.75302 0.0
C615 C 0.62503 0.24408 0.74761 0.0
C616 C 0.61109 0.3281 0.7246 0.0
C617 C 0.62538 0.33609 0.66453 0.0
C618 C 0.62525 0.27631 0.72115 0.0
C619 C 0.63966 0.31354 0.63532 0.0
C620 C 0.63904 0.22212 0.7143 0.0
C621 C 0.60957 0.20595 0.82893 0.0
N622 N 0.63917 0.28475 0.66367 0.0
N623 N 0.6108 0.23525 0.80392 0.0
loop_
_geom_bond_atom_site_label_1
_geom_bond_atom_site_label_2
_geom_bond_distance
_geom_bond_site_symmetry_2
_ccdc_geom_bond_type
Co0 N4 2.148 1_554 S
Co0 N10 2.128 . S
Co0 N20 2.194 . S
Co0 O25 2.351 . S
Co0 O26 2.155 . S
Co0 O27 2.096 . S
C1 N4 1.301 . S
C1 N5 1.328 . S
C1 H6 0.930 . S
C2 C3 1.333 . S
C2 N4 1.317 . S
C2 H7 0.934 . S
C3 C2 1.333 . S
C3 N5 1.350 . S
C3 H29 0.931 . S
N4 Co0 2.148 1_556 S
N4 C1 1.301 . S
N4 C2 1.317 . S
N5 C1 1.328 . S
N5 C3 1.350 . S
H6 C1 0.930 . S
H7 C2 0.934 . S
C8 O9 1.224 . S
C8 O27 1.247 . S
O9 C8 1.224 . S
N10 Co0 2.128 . S
N10 C11 1.355 . S
N10 C13 1.311 . S
C11 N10 1.355 . S
C11 C12 1.363 . S
C11 H23 0.929 . S
C12 C11 1.363 . S
C12 N14 1.375 . S
C12 H30 0.931 . S
C13 N10 1.311 . S
C13 N14 1.347 . S
C13 H24 0.929 . S
N14 C12 1.375 . S
N14 C13 1.347 . S
C15 C18 1.365 . S
C15 N20 1.328 . S
C15 H21 0.929 . S
C16 C17 1.362 . S
C16 C19 1.378 . S
C16 H31 0.929 . S
C17 C16 1.362 . S
C17 C18 1.366 . S
C18 C15 1.365 . S
C18 C17 1.366 . S
C18 H32 0.930 . S
C19 C16 1.378 . S
C19 N20 1.315 . S
C19 H22 0.930 . S
N20 Co0 2.194 . S
N20 C15 1.328 . S
N20 C19 1.315 . S
H21 C15 0.929 . S
H22 C19 0.930 . S
H23 C11 0.929 . S
H24 C13 0.929 . S
O25 Co0 2.351 . S
O25 C28 1.244 . S
O26 Co0 2.155 . S
O26 C28 1.240 . S
O27 Co0 2.096 . S
O27 C8 1.247 . S
C28 O25 1.244 . S
C28 O26 1.240 . S
H29 C3 0.931 . S
H30 C12 0.931 . S
H31 C16 0.929 . S
H32 C18 0.930 . S
Co33 N37 2.148 1_554 S
Co33 N43 2.128 . S
Co33 N53 2.194 . S
Co33 O58 2.351 . S
Co33 O59 2.155 . S
Co33 O60 2.096 . S
C34 N37 1.301 . S
C34 N38 1.328 . S
C34 H39 0.930 . S
C35 C36 1.333 . S
C35 N37 1.317 . S
C35 H40 0.934 . S
C36 C35 1.333 . S
C36 N38 1.350 . S
C36 H62 0.931 . S
N37 Co33 2.148 1_556 S
N37 C34 1.301 . S
N37 C35 1.317 . S
N38 C34 1.328 . S
N38 C36 1.350 . S
H39 C34 0.930 . S
H40 C35 0.934 . S
C41 O42 1.224 . S
C41 O60 1.247 . S
O42 C41 1.224 . S
N43 Co33 2.128 . S
N43 C44 1.355 . S
N43 C46 1.311 . S
C44 N43 1.355 . S
C44 C45 1.363 . S
C44 H56 0.929 . S
C45 C44 1.363 . S
C45 N47 1.375 . S
C45 H63 0.931 . S
C46 N43 1.311 . S
C46 N47 1.347 . S
C46 H57 0.929 . S
N47 C45 1.375 . S
N47 C46 1.347 . S
C48 C51 1.365 . S
C48 N53 1.328 . S
C48 H54 0.929 . S
C49 C50 1.362 . S
C49 C52 1.378 . S
C49 H64 0.929 . S
C50 C49 1.362 . S
C50 C51 1.366 . S
C51 C48 1.365 . S
C51 C50 1.366 . S
C51 H65 0.930 . S
C52 C49 1.378 . S
C52 N53 1.315 . S
C52 H55 0.930 . S
N53 Co33 2.194 . S
N53 C48 1.328 . S
N53 C52 1.315 . S
H54 C48 0.929 . S
H55 C52 0.930 . S
H56 C44 0.929 . S
H57 C46 0.929 . S
O58 Co33 2.351 . S
O58 C61 1.244 . S
O59 Co33 2.155 . S
O59 C61 1.240 . S
O60 Co33 2.096 . S
O60 C41 1.247 . S
C61 O58 1.244 . S
C61 O59 1.240 . S
H62 C36 0.931 . S
H63 C45 0.931 . S
H64 C49 0.929 . S
H65 C51 0.930 . S
Co66 N70 2.148 . S
Co66 N76 2.128 . S
Co66 N86 2.194 . S
Co66 O91 2.351 . S
Co66 O92 2.155 . S
Co66 O93 2.096 . S
C67 N70 1.301 . S
C67 N71 1.328 . S
C67 H72 0.930 . S
C68 C69 1.333 . S
C68 N70 1.317 . S
C68 H73 0.930 . S
C69 C68 1.333 . S
C69 N71 1.350 . S
C69 H95 0.931 . S
N70 Co66 2.148 . S
N70 C67 1.301 . S
N70 C68 1.317 . S
N71 C67 1.328 . S
N71 C69 1.350 . S
H72 C67 0.930 . S
H73 C68 0.930 . S
C74 O75 1.224 . S
C74 O93 1.247 . S
O75 C74 1.224 . S
N76 Co66 2.128 . S
N76 C77 1.355 . S
N76 C79 1.311 . S
C77 N76 1.355 . S
C77 C78 1.363 . S
C77 H89 0.929 . S
C78 C77 1.363 . S
C78 N80 1.375 . S
C78 H96 0.931 . S
C79 N76 1.311 . S
C79 N80 1.347 . S
C79 H90 0.929 . S
N80 C78 1.375 . S
N80 C79 1.347 . S
C81 C84 1.365 . S
C81 N86 1.328 . S
C81 H87 0.929 . S
C82 C83 1.362 . S
C82 C85 1.378 . S
C82 H97 0.929 . S
C83 C82 1.362 . S
C83 C84 1.366 . S
C84 C81 1.365 . S
C84 C83 1.366 . S
C84 H98 0.930 . S
C85 C82 1.378 . S
C85 N86 1.315 . S
C85 H88 0.930 . S
N86 Co66 2.194 . S
N86 C81 1.328 . S
N86 C85 1.315 . S
H87 C81 0.929 . S
H88 C85 0.930 . S
H89 C77 0.929 . S
H90 C79 0.929 . S
O91 Co66 2.351 . S
O91 C94 1.244 . S
O92 Co66 2.155 . S
O92 C94 1.240 . S
O93 Co66 2.096 . S
O93 C74 1.247 . S
C94 O91 1.244 . S
C94 O92 1.240 . S
H95 C69 0.931 . S
H96 C78 0.931 . S
H97 C82 0.929 . S
H98 C84 0.930 . S
Co99 N103 2.148 . S
Co99 N109 2.128 . S
Co99 N119 2.194 . S
Co99 O124 2.351 . S
Co99 O125 2.155 . S
Co99 O126 2.096 . S
C100 N103 1.301 . S
C100 N104 1.328 . S
C100 H105 0.930 . S
C101 C102 1.333 . S
C101 N103 1.317 . S
C101 H106 0.930 . S
C102 C101 1.333 . S
C102 N104 1.350 . S
C102 H128 0.931 . S
N103 Co99 2.148 . S
N103 C100 1.301 . S
N103 C101 1.317 . S
N104 C100 1.328 . S
N104 C102 1.350 . S
H105 C100 0.930 . S
H106 C101 0.930 . S
C107 O108 1.224 . S
C107 O126 1.247 . S
O108 C107 1.224 . S
N109 Co99 2.128 . S
N109 C110 1.355 . S
N109 C112 1.311 . S
C110 N109 1.355 . S
C110 C111 1.363 . S
C110 H122 0.929 . S
C111 C110 1.363 . S
C111 N113 1.375 . S
C111 H129 0.931 . S
C112 N109 1.311 . S
C112 N113 1.347 . S
C112 H123 0.929 . S
N113 C111 1.375 . S
N113 C112 1.347 . S
C114 C117 1.365 . S
C114 N119 1.328 . S
C114 H120 0.929 . S
C115 C116 1.362 . S
C115 C118 1.378 . S
C115 H130 0.929 . S
C116 C115 1.362 . S
C116 C117 1.366 . S
C117 C114 1.365 . S
C117 C116 1.366 . S
C117 H131 0.930 . S
C118 C115 1.378 . S
C118 N119 1.315 . S
C118 H121 0.930 . S
N119 Co99 2.194 . S
N119 C114 1.328 . S
N119 C118 1.315 . S
H120 C114 0.929 . S
H121 C118 0.930 . S
H122 C110 0.929 . S
H123 C112 0.929 . S
O124 Co99 2.351 . S
O124 C127 1.244 . S
O125 Co99 2.155 . S
O125 C127 1.240 . S
O126 Co99 2.096 . S
O126 C107 1.247 . S
C127 O124 1.244 . S
C127 O125 1.240 . S
H128 C102 0.931 . S
H129 C111 0.931 . S
H130 C115 0.929 . S
H131 C117 0.930 . S
Co132 N136 2.148 1_556 S
Co132 N142 2.128 . S
Co132 N152 2.194 . S
Co132 O157 2.351 . S
Co132 O158 2.155 . S
Co132 O159 2.096 . S
C133 N136 1.301 . S
C133 N137 1.328 . S
C133 H138 0.930 . S
C134 C135 1.333 . S
C134 N136 1.317 . S
C134 H139 0.934 . S
C135 C134 1.333 . S
C135 N137 1.350 . S
C135 H161 0.931 . S
N136 Co132 2.148 1_554 S
N136 C133 1.301 . S
N136 C134 1.317 . S
N137 C133 1.328 . S
N137 C135 1.350 . S
H138 C133 0.930 . S
H139 C134 0.934 . S
C140 O141 1.224 . S
C140 O159 1.247 . S
O141 C140 1.224 . S
N142 Co132 2.128 . S
N142 C143 1.355 . S
N142 C145 1.311 . S
C143 N142 1.355 . S
C143 C144 1.363 . S
C143 H155 0.929 . S
C144 C143 1.363 . S
C144 N146 1.375 . S
C144 H162 0.931 . S
C145 N142 1.311 . S
C145 N146 1.347 . S
C145 H156 0.929 . S
N146 C144 1.375 . S
N146 C145 1.347 . S
C147 C150 1.365 . S
C147 N152 1.328 . S
C147 H153 0.929 . S
C148 C149 1.362 . S
C148 C151 1.378 . S
C148 H163 0.929 . S
C149 C148 1.362 . S
C149 C150 1.366 . S
C150 C147 1.365 . S
C150 C149 1.366 . S
C150 H164 0.930 . S
C151 C148 1.378 . S
C151 N152 1.315 . S
C151 H154 0.930 . S
N152 Co132 2.194 . S
N152 C147 1.328 . S
N152 C151 1.315 . S
H153 C147 0.929 . S
H154 C151 0.930 . S
H155 C143 0.929 . S
H156 C145 0.929 . S
O157 Co132 2.351 . S
O157 C160 1.244 . S
O158 Co132 2.155 . S
O158 C160 1.240 . S
O159 Co132 2.096 . S
O159 C140 1.247 . S
C160 O157 1.244 . S
C160 O158 1.240 . S
H161 C135 0.931 . S
H162 C144 0.931 . S
H163 C148 0.929 . S
H164 C150 0.930 . S
Co165 N169 2.148 1_556 S
Co165 N175 2.128 . S
Co165 N185 2.194 . S
Co165 O190 2.351 . S
Co165 O191 2.155 . S
Co165 O192 2.096 . S
C166 N169 1.301 . S
C166 N170 1.328 . S
C166 H171 0.930 . S
C167 C168 1.333 . S
C167 N169 1.317 . S
C167 H172 0.934 . S
C168 C167 1.333 . S
C168 N170 1.350 . S
C168 H194 0.931 . S
N169 Co165 2.148 1_554 S
N169 C166 1.301 . S
N169 C167 1.317 . S
N170 C166 1.328 . S
N170 C168 1.350 . S
H171 C166 0.930 . S
H172 C167 0.934 . S
C173 O174 1.224 . S
C173 O192 1.247 . S
O174 C173 1.224 . S
N175 Co165 2.128 . S
N175 C176 1.355 . S
N175 C178 1.311 . S
C176 N175 1.355 . S
C176 C177 1.363 . S
C176 H188 0.929 . S
C177 C176 1.363 . S
C177 N179 1.375 . S
C177 H195 0.931 . S
C178 N175 1.311 . S
C178 N179 1.347 . S
C178 H189 0.929 . S
N179 C177 1.375 . S
N179 C178 1.347 . S
C180 C183 1.365 . S
C180 N185 1.328 . S
C180 H186 0.929 . S
C181 C182 1.362 . S
C181 C184 1.378 . S
C181 H196 0.929 . S
C182 C181 1.362 . S
C182 C183 1.366 . S
C183 C180 1.365 . S
C183 C182 1.366 . S
C183 H197 0.930 . S
C184 C181 1.378 . S
C184 N185 1.315 . S
C184 H187 0.930 . S
N185 Co165 2.194 . S
N185 C180 1.328 . S
N185 C184 1.315 . S
H186 C180 0.929 . S
H187 C184 0.930 . S
H188 C176 0.929 . S
H189 C178 0.929 . S
O190 Co165 2.351 . S
O190 C193 1.244 . S
O191 Co165 2.155 . S
O191 C193 1.240 . S
O192 Co165 2.096 . S
O192 C173 1.247 . S
C193 O190 1.244 . S
C193 O191 1.240 . S
H194 C168 0.931 . S
H195 C177 0.931 . S
H196 C181 0.929 . S
H197 C183 0.930 . S
Co198 N202 2.148 . S
Co198 N208 2.128 . S
Co198 N218 2.194 . S
Co198 O223 2.351 . S
Co198 O224 2.155 . S
Co198 O225 2.096 . S
C199 N202 1.301 . S
C199 N203 1.328 . S
C199 H204 0.930 . S
C200 C201 1.333 . S
C200 N202 1.317 . S
C200 H205 0.930 . S
C201 C200 1.333 . S
C201 N203 1.350 . S
C201 H227 0.931 . S
N202 Co198 2.148 . S
N202 C199 1.301 . S
N202 C200 1.317 . S
N203 C199 1.328 . S
N203 C201 1.350 . S
H204 C199 0.930 . S
H205 C200 0.930 . S
C206 O207 1.224 . S
C206 O225 1.247 . S
O207 C206 1.224 . S
N208 Co198 2.128 . S
N208 C209 1.355 . S
N208 C211 1.311 . S
C209 N208 1.355 . S
C209 C210 1.363 . S
C209 H221 0.929 . S
C210 C209 1.363 . S
C210 N212 1.375 . S
C210 H228 0.931 . S
C211 N208 1.311 . S
C211 N212 1.347 . S
C211 H222 0.929 . S
N212 C210 1.375 . S
N212 C211 1.347 . S
C213 C216 1.365 . S
C213 N218 1.328 . S
C213 H219 0.929 . S
C214 C215 1.362 . S
C214 C217 1.378 . S
C214 H229 0.929 . S
C215 C214 1.362 . S
C215 C216 1.366 . S
C216 C213 1.365 . S
C216 C215 1.366 . S
C216 H230 0.930 . S
C217 C214 1.378 . S
C217 N218 1.315 . S
C217 H220 0.930 . S
N218 Co198 2.194 . S
N218 C213 1.328 . S
N218 C217 1.315 . S
H219 C213 0.929 . S
H220 C217 0.930 . S
H221 C209 0.929 . S
H222 C211 0.929 . S
O223 Co198 2.351 . S
O223 C226 1.244 . S
O224 Co198 2.155 . S
O224 C226 1.240 . S
O225 Co198 2.096 . S
O225 C206 1.247 . S
C226 O223 1.244 . S
C226 O224 1.240 . S
H227 C201 0.931 . S
H228 C210 0.931 . S
H229 C214 0.929 . S
H230 C216 0.930 . S
Co231 N235 2.148 . S
Co231 N241 2.128 . S
Co231 N251 2.194 . S
Co231 O256 2.351 . S
Co231 O257 2.155 . S
Co231 O258 2.096 . S
C232 N235 1.301 . S
C232 N236 1.328 . S
C232 H237 0.930 . S
C233 C234 1.333 . S
C233 N235 1.317 . S
C233 H238 0.930 . S
C234 C233 1.333 . S
C234 N236 1.350 . S
C234 H260 0.931 . S
N235 Co231 2.148 . S
N235 C232 1.301 . S
N235 C233 1.317 . S
N236 C232 1.328 . S
N236 C234 1.350 . S
H237 C232 0.930 . S
H238 C233 0.930 . S
C239 O240 1.224 . S
C239 O258 1.247 . S
O240 C239 1.224 . S
N241 Co231 2.128 . S
N241 C242 1.355 . S
N241 C244 1.311 . S
C242 N241 1.355 . S
C242 C243 1.363 . S
C242 H254 0.929 . S
C243 C242 1.363 . S
C243 N245 1.375 . S
C243 H261 0.931 . S
C244 N241 1.311 . S
C244 N245 1.347 . S
C244 H255 0.929 . S
N245 C243 1.375 . S
N245 C244 1.347 . S
C246 C249 1.365 . S
C246 N251 1.328 . S
C246 H252 0.929 . S
C247 C248 1.362 . S
C247 C250 1.378 . S
C247 H262 0.929 . S
C248 C247 1.362 . S
C248 C249 1.366 . S
C249 C246 1.365 . S
C249 C248 1.366 . S
C249 H263 0.930 . S
C250 C247 1.378 . S
C250 N251 1.315 . S
C250 H253 0.930 . S
N251 Co231 2.194 . S
N251 C246 1.328 . S
N251 C250 1.315 . S
H252 C246 0.929 . S
H253 C250 0.930 . S
H254 C242 0.929 . S
H255 C244 0.929 . S
O256 Co231 2.351 . S
O256 C259 1.244 . S
O257 Co231 2.155 . S
O257 C259 1.240 . S
O258 Co231 2.096 . S
O258 C239 1.247 . S
C259 O256 1.244 . S
C259 O257 1.240 . S
H260 C234 0.931 . S
H261 C243 0.931 . S
H262 C247 0.929 . S
H263 C249 0.930 . S
H264 C270 0.930 . S
H265 C274 0.930 . S
H266 C279 0.929 1_545 S
H267 C277 0.929 1_565 S
H268 C272 0.929 . S
H269 C278 0.929 . S
C270 H264 0.930 . S
C270 C271 1.367 . S
C270 C278 1.378 . S
C271 C270 1.367 . S
C271 C279 1.433 . S
C272 H268 0.929 . S
C272 C274 1.378 . S
C272 C276 1.350 . S
C273 C276 1.463 1_565 S
C273 C278 1.350 . S
C273 N281 1.427 1_565 S
C274 H265 0.930 . S
C274 C272 1.378 . S
C274 C275 1.367 . S
C275 C274 1.367 . S
C275 C277 1.433 . S
C276 C272 1.350 . S
C276 C273 1.463 1_545 S
C276 N280 1.427 1_545 S
C277 H267 0.929 1_545 S
C277 C275 1.433 . S
C277 N280 1.384 1_545 S
C278 H269 0.929 . S
C278 C270 1.378 . S
C278 C273 1.350 . S
C279 H266 0.929 1_565 S
C279 C271 1.433 . S
C279 N281 1.384 1_565 S
N280 C276 1.427 1_565 S
N280 C277 1.384 1_565 S
N281 C273 1.427 1_545 S
N281 C279 1.384 1_545 S
H282 C288 0.930 . S
H283 C292 0.930 . S
H284 C297 0.929 . S
H285 C295 0.929 . S
H286 C290 0.929 . S
H287 C296 0.929 . S
C288 H282 0.930 . S
C288 C289 1.367 . S
C288 C296 1.378 . S
C289 C288 1.367 . S
C289 C297 1.433 . S
C290 H286 0.929 . S
C290 C292 1.378 . S
C290 C294 1.350 . S
C291 C294 1.463 . S
C291 C296 1.350 . S
C291 N299 1.427 . S
C292 H283 0.930 . S
C292 C290 1.378 . S
C292 C293 1.367 . S
C293 C292 1.367 . S
C293 C295 1.433 . S
C294 C290 1.350 . S
C294 C291 1.463 . S
C294 N298 1.427 . S
C295 H285 0.929 . S
C295 C293 1.433 . S
C295 N298 1.384 . S
C296 H287 0.929 . S
C296 C288 1.378 . S
C296 C291 1.350 . S
C297 H284 0.929 . S
C297 C289 1.433 . S
C297 N299 1.384 . S
N298 C294 1.427 . S
N298 C295 1.384 . S
N299 C291 1.427 . S
N299 C297 1.384 . S
H300 C306 0.930 . S
H301 C310 0.930 . S
H302 C315 0.932 . S
H303 C313 0.932 . S
H304 C308 0.929 . S
H305 C314 0.929 . S
C306 H300 0.930 . S
C306 C307 1.367 . S
C306 C314 1.378 . S
C307 C306 1.367 . S
C307 C315 1.428 1_545 S
C308 H304 0.929 . S
C308 C310 1.378 . S
C308 C312 1.350 . S
C309 C312 1.463 1_545 S
C309 C314 1.350 . S
C309 N317 1.427 1_545 S
C310 H301 0.930 . S
C310 C308 1.378 . S
C310 C311 1.367 . S
C311 C310 1.367 . S
C311 C313 1.428 1_565 S
C312 C308 1.350 . S
C312 C309 1.463 1_565 S
C312 N316 1.427 1_565 S
C313 H303 0.932 . S
C313 C311 1.428 1_545 S
C313 N316 1.386 . S
C314 H305 0.929 . S
C314 C306 1.378 . S
C314 C309 1.350 . S
C315 H302 0.932 . S
C315 C307 1.428 1_565 S
C315 N317 1.386 . S
N316 C312 1.427 1_545 S
N316 C313 1.386 . S
N317 C309 1.427 1_565 S
N317 C315 1.386 . S
H318 C324 0.930 . S
H319 C328 0.930 . S
H320 C333 0.929 . S
H321 C331 0.929 . S
H322 C326 0.929 . S
H323 C332 0.929 . S
C324 H318 0.930 . S
C324 C325 1.367 . S
C324 C332 1.378 . S
C325 C324 1.367 . S
C325 C333 1.433 . S
C326 H322 0.929 . S
C326 C328 1.378 . S
C326 C330 1.350 . S
C327 C330 1.463 . S
C327 C332 1.350 . S
C327 N335 1.427 . S
C328 H319 0.930 . S
C328 C326 1.378 . S
C328 C329 1.367 . S
C329 C328 1.367 . S
C329 C331 1.433 . S
C330 C326 1.350 . S
C330 C327 1.463 . S
C330 N334 1.427 . S
C331 H321 0.929 . S
C331 C329 1.433 . S
C331 N334 1.384 . S
C332 H323 0.929 . S
C332 C324 1.378 . S
C332 C327 1.350 . S
C333 H320 0.929 . S
C333 C325 1.433 . S
C333 N335 1.384 . S
N334 C330 1.427 . S
N334 C331 1.384 . S
N335 C327 1.427 . S
N335 C333 1.384 . S
H336 C342 0.930 . S
H337 C346 0.930 . S
H338 C351 0.929 . S
H339 C349 0.929 . S
H340 C344 0.929 1_565 S
H341 C350 0.929 1_545 S
C342 H336 0.930 . S
C342 C343 1.367 . S
C342 C350 1.378 . S
C343 C342 1.367 . S
C343 C351 1.433 1_556 S
C344 H340 0.929 1_545 S
C344 C346 1.378 . S
C344 C348 1.350 . S
C345 C348 1.463 1_666 S
C345 C350 1.350 . S
C345 N353 1.427 1_556 S
C346 H337 0.930 . S
C346 C344 1.378 . S
C346 C347 1.367 . S
C347 C346 1.367 . S
C347 C349 1.433 1_554 S
C348 C344 1.350 . S
C348 C345 1.463 1_444 S
C348 N352 1.427 1_554 S
C349 H339 0.929 . S
C349 C347 1.433 1_556 S
C349 N352 1.384 . S
C350 H341 0.929 1_565 S
C350 C342 1.378 . S
C350 C345 1.350 . S
C351 H338 0.929 . S
C351 C343 1.433 1_554 S
C351 N353 1.384 . S
N352 C348 1.427 1_556 S
N352 C349 1.384 . S
N353 C345 1.427 1_554 S
N353 C351 1.384 . S
H354 C360 0.930 . S
H355 C364 0.930 . S
H356 C369 0.929 . S
H357 C367 0.929 . S
H358 C362 0.914 1_565 S
H359 C368 0.914 1_545 S
C360 H354 0.930 . S
C360 C361 1.367 1_556 S
C360 C368 1.378 . S
C361 C360 1.367 1_554 S
C361 C369 1.433 . S
C362 H358 0.914 1_545 S
C362 C364 1.378 . S
C362 C366 1.350 1_554 S
C363 C366 1.463 1_564 S
C363 C368 1.350 1_554 S
C363 N371 1.427 . S
C364 H355 0.930 . S
C364 C362 1.378 . S
C364 C365 1.367 1_554 S
C365 C364 1.367 1_556 S
C365 C367 1.433 . S
C366 C362 1.350 1_556 S
C366 C363 1.463 1_546 S
C366 N370 1.427 . S
C367 H357 0.929 . S
C367 C365 1.433 . S
C367 N370 1.384 . S
C368 H359 0.914 1_565 S
C368 C360 1.378 . S
C368 C363 1.350 1_556 S
C369 H356 0.929 . S
C369 C361 1.433 . S
C369 N371 1.384 . S
N370 C366 1.427 . S
N370 C367 1.384 . S
N371 C363 1.427 . S
N371 C369 1.384 . S
H372 C378 0.930 . S
H373 C382 0.930 . S
H374 C387 0.929 . S
H375 C385 0.929 . S
H376 C380 0.945 . S
H377 C386 0.945 . S
C378 H372 0.930 . S
C378 C379 1.367 . S
C378 C386 1.378 . S
C379 C378 1.367 . S
C379 C387 1.433 . S
C380 H376 0.945 . S
C380 C382 1.378 . S
C380 C384 1.350 . S
C381 C384 1.463 1_455 S
C381 C386 1.350 . S
C381 N389 1.427 . S
C382 H373 0.930 . S
C382 C380 1.378 . S
C382 C383 1.367 . S
C383 C382 1.367 . S
C383 C385 1.433 . S
C384 C380 1.350 . S
C384 C381 1.463 1_655 S
C384 N388 1.427 . S
C385 H375 0.929 . S
C385 C383 1.433 . S
C385 N388 1.384 . S
C386 H377 0.945 . S
C386 C378 1.378 . S
C386 C381 1.350 . S
C387 H374 0.929 . S
C387 C379 1.433 . S
C387 N389 1.384 . S
N388 C384 1.427 . S
N388 C385 1.384 . S
N389 C381 1.427 . S
N389 C387 1.384 . S
H390 C396 0.930 . S
H391 C400 0.930 . S
H392 C405 0.929 . S
H393 C403 0.929 . S
H394 C398 0.929 . S
H395 C404 0.929 . S
C396 H390 0.930 . S
C396 C397 1.367 . S
C396 C404 1.378 . S
C397 C396 1.367 . S
C397 C405 1.433 . S
C398 H394 0.929 . S
C398 C400 1.378 . S
C398 C402 1.350 . S
C399 C402 1.463 . S
C399 C404 1.350 . S
C399 N407 1.427 . S
C400 H391 0.930 . S
C400 C398 1.378 . S
C400 C401 1.367 . S
C401 C400 1.367 . S
C401 C403 1.433 . S
C402 C398 1.350 . S
C402 C399 1.463 . S
C402 N406 1.427 . S
C403 H393 0.929 . S
C403 C401 1.433 . S
C403 N406 1.384 . S
C404 H395 0.929 . S
C404 C396 1.378 . S
C404 C399 1.350 . S
C405 H392 0.929 . S
C405 C397 1.433 . S
C405 N407 1.384 . S
N406 C402 1.427 . S
N406 C403 1.384 . S
N407 C399 1.427 . S
N407 C405 1.384 . S
H408 C414 0.930 . S
H409 C418 0.930 . S
H410 C423 0.929 . S
H411 C421 0.929 . S
H412 C416 0.929 . S
H413 C422 0.929 . S
C414 H408 0.930 . S
C414 C415 1.367 . S
C414 C422 1.378 . S
C415 C414 1.367 . S
C415 C423 1.433 . S
C416 H412 0.929 . S
C416 C418 1.378 . S
C416 C420 1.350 . S
C417 C420 1.463 . S
C417 C422 1.350 . S
C417 N425 1.427 . S
C418 H409 0.930 . S
C418 C416 1.378 . S
C418 C419 1.367 . S
C419 C418 1.367 . S
C419 C421 1.433 . S
C420 C416 1.350 . S
C420 C417 1.463 . S
C420 N424 1.427 . S
C421 H411 0.929 . S
C421 C419 1.433 . S
C421 N424 1.384 . S
C422 H413 0.929 . S
C422 C414 1.378 . S
C422 C417 1.350 . S
C423 H410 0.929 . S
C423 C415 1.433 . S
C423 N425 1.384 . S
N424 C420 1.427 . S
N424 C421 1.384 . S
N425 C417 1.427 . S
N425 C423 1.384 . S
H426 C432 0.930 . S
H427 C436 0.930 . S
H428 C441 0.929 . S
H429 C439 0.929 . S
H430 C434 0.929 . S
H431 C440 0.929 . S
C432 H426 0.930 . S
C432 C433 1.367 . S
C432 C440 1.378 . S
C433 C432 1.367 . S
C433 C441 1.433 . S
C434 H430 0.929 . S
C434 C436 1.378 . S
C434 C438 1.350 . S
C435 C438 1.463 . S
C435 C440 1.350 . S
C435 N443 1.427 . S
C436 H427 0.930 . S
C436 C434 1.378 . S
C436 C437 1.367 . S
C437 C436 1.367 . S
C437 C439 1.433 . S
C438 C434 1.350 . S
C438 C435 1.463 . S
C438 N442 1.427 . S
C439 H429 0.929 . S
C439 C437 1.433 . S
C439 N442 1.384 . S
C440 H431 0.929 . S
C440 C432 1.378 . S
C440 C435 1.350 . S
C441 H428 0.929 . S
C441 C433 1.433 . S
C441 N443 1.384 . S
N442 C438 1.427 . S
N442 C439 1.384 . S
N443 C435 1.427 . S
N443 C441 1.384 . S
H444 C450 0.930 . S
H445 C454 0.930 . S
H446 C459 0.929 . S
H447 C457 0.929 . S
H448 C452 0.929 . S
H449 C458 0.929 . S
C450 H444 0.930 . S
C450 C451 1.367 . S
C450 C458 1.378 . S
C451 C450 1.367 . S
C451 C459 1.433 . S
C452 H448 0.929 . S
C452 C454 1.378 1_556 S
C452 C456 1.350 . S
C453 C456 1.463 . S
C453 C458 1.350 . S
C453 N461 1.427 . S
C454 H445 0.930 . S
C454 C452 1.378 1_554 S
C454 C455 1.367 . S
C455 C454 1.367 . S
C455 C457 1.433 . S
C456 C452 1.350 . S
C456 C453 1.463 . S
C456 N460 1.427 . S
C457 H447 0.929 . S
C457 C455 1.433 . S
C457 N460 1.384 1_554 S
C458 H449 0.929 . S
C458 C450 1.378 . S
C458 C453 1.350 . S
C459 H446 0.929 . S
C459 C451 1.433 . S
C459 N461 1.384 . S
N460 C456 1.427 . S
N460 C457 1.384 1_556 S
N461 C453 1.427 . S
N461 C459 1.384 . S
H462 C468 0.930 . S
H463 C472 0.930 . S
H464 C477 0.929 . S
H465 C475 0.929 . S
H466 C470 0.929 . S
H467 C476 0.929 . S
C468 H462 0.930 . S
C468 C469 1.367 . S
C468 C476 1.378 1_554 S
C469 C468 1.367 . S
C469 C477 1.433 . S
C470 H466 0.929 . S
C470 C472 1.378 . S
C470 C474 1.350 . S
C471 C474 1.463 . S
C471 C476 1.350 . S
C471 N479 1.427 . S
C472 H463 0.930 . S
C472 C470 1.378 . S
C472 C473 1.367 . S
C473 C472 1.367 . S
C473 C475 1.433 . S
C474 C470 1.350 . S
C474 C471 1.463 . S
C474 N478 1.427 . S
C475 H465 0.929 . S
C475 C473 1.433 . S
C475 N478 1.384 . S
C476 H467 0.929 . S
C476 C468 1.378 1_556 S
C476 C471 1.350 . S
C477 H464 0.929 . S
C477 C469 1.433 . S
C477 N479 1.384 1_554 S
N478 C474 1.427 . S
N478 C475 1.384 . S
N479 C471 1.427 . S
N479 C477 1.384 1_556 S
H480 C486 0.930 . S
H481 C490 0.930 . S
H482 C495 0.929 . S
H483 C493 0.929 . S
H484 C488 0.929 . S
H485 C494 0.929 . S
C486 H480 0.930 . S
C486 C487 1.367 . S
C486 C494 1.378 . S
C487 C486 1.367 . S
C487 C495 1.433 . S
C488 H484 0.929 . S
C488 C490 1.378 . S
C488 C492 1.350 . S
C489 C492 1.463 . S
C489 C494 1.350 . S
C489 N497 1.427 . S
C490 H481 0.930 . S
C490 C488 1.378 . S
C490 C491 1.367 . S
C491 C490 1.367 . S
C491 C493 1.433 . S
C492 C488 1.350 . S
C492 C489 1.463 . S
C492 N496 1.427 . S
C493 H483 0.929 . S
C493 C491 1.433 . S
C493 N496 1.384 . S
C494 H485 0.929 . S
C494 C486 1.378 . S
C494 C489 1.350 . S
C495 H482 0.929 . S
C495 C487 1.433 . S
C495 N497 1.384 . S
N496 C492 1.427 . S
N496 C493 1.384 . S
N497 C489 1.427 . S
N497 C495 1.384 . S
H498 C504 0.930 . S
H499 C508 0.930 . S
H500 C513 0.929 . S
H501 C511 0.929 . S
H502 C506 0.929 . S
H503 C512 0.929 . S
C504 H498 0.930 . S
C504 C505 1.367 . S
C504 C512 1.378 . S
C505 C504 1.367 . S
C505 C513 1.433 . S
C506 H502 0.929 . S
C506 C508 1.378 . S
C506 C510 1.350 . S
C507 C510 1.463 . S
C507 C512 1.350 . S
C507 N515 1.427 . S
C508 H499 0.930 . S
C508 C506 1.378 . S
C508 C509 1.367 . S
C509 C508 1.367 . S
C509 C511 1.433 . S
C510 C506 1.350 . S
C510 C507 1.463 . S
C510 N514 1.427 . S
C511 H501 0.929 . S
C511 C509 1.433 . S
C511 N514 1.384 . S
C512 H503 0.929 . S
C512 C504 1.378 . S
C512 C507 1.350 . S
C513 H500 0.929 . S
C513 C505 1.433 . S
C513 N515 1.384 . S
N514 C510 1.427 . S
N514 C511 1.384 . S
N515 C507 1.427 . S
N515 C513 1.384 . S
H516 C522 0.930 . S
H517 C526 0.930 . S
H518 C531 0.929 . S
H519 C529 0.929 . S
H520 C524 0.929 . S
H521 C530 0.929 . S
C522 H516 0.930 . S
C522 C523 1.367 . S
C522 C530 1.378 . S
C523 C522 1.367 . S
C523 C531 1.433 . S
C524 H520 0.929 . S
C524 C526 1.378 1_554 S
C524 C528 1.350 . S
C525 C528 1.463 . S
C525 C530 1.350 . S
C525 N533 1.427 . S
C526 H517 0.930 . S
C526 C524 1.378 1_556 S
C526 C527 1.367 . S
C527 C526 1.367 . S
C527 C529 1.433 . S
C528 C524 1.350 . S
C528 C525 1.463 . S
C528 N532 1.427 . S
C529 H519 0.929 . S
C529 C527 1.433 . S
C529 N532 1.384 1_556 S
C530 H521 0.929 . S
C530 C522 1.378 . S
C530 C525 1.350 . S
C531 H518 0.929 . S
C531 C523 1.433 . S
C531 N533 1.384 . S
N532 C528 1.427 . S
N532 C529 1.384 1_554 S
N533 C525 1.427 . S
N533 C531 1.384 . S
H534 C540 0.930 . S
H535 C544 0.930 . S
H536 C549 0.929 . S
H537 C547 0.929 . S
H538 C542 0.929 . S
H539 C548 0.929 . S
C540 H534 0.930 . S
C540 C541 1.367 . S
C540 C548 1.378 . S
C541 C540 1.367 . S
C541 C549 1.433 . S
C542 H538 0.929 . S
C542 C544 1.378 1_554 S
C542 C546 1.350 . S
C543 C546 1.463 . S
C543 C548 1.350 . S
C543 N551 1.427 . S
C544 H535 0.930 . S
C544 C542 1.378 1_556 S
C544 C545 1.367 . S
C545 C544 1.367 . S
C545 C547 1.433 . S
C546 C542 1.350 . S
C546 C543 1.463 . S
C546 N550 1.427 . S
C547 H537 0.929 . S
C547 C545 1.433 . S
C547 N550 1.384 1_556 S
C548 H539 0.929 . S
C548 C540 1.378 . S
C548 C543 1.350 . S
C549 H536 0.929 . S
C549 C541 1.433 . S
C549 N551 1.384 . S
N550 C546 1.427 . S
N550 C547 1.384 1_554 S
N551 C543 1.427 . S
N551 C549 1.384 . S
H552 C558 0.930 . S
H553 C562 0.930 . S
H554 C567 0.929 . S
H555 C565 0.929 . S
H556 C560 0.929 . S
H557 C566 0.929 . S
C558 H552 0.930 . S
C558 C559 1.367 . S
C558 C566 1.378 . S
C559 C558 1.367 . S
C559 C567 1.433 . S
C560 H556 0.929 . S
C560 C562 1.378 . S
C560 C564 1.350 . S
C561 C564 1.463 . S
C561 C566 1.350 . S
C561 N569 1.427 . S
C562 H553 0.930 . S
C562 C560 1.378 . S
C562 C563 1.367 . S
C563 C562 1.367 . S
C563 C565 1.433 . S
C564 C560 1.350 . S
C564 C561 1.463 . S
C564 N568 1.427 . S
C565 H555 0.929 . S
C565 C563 1.433 . S
C565 N568 1.384 . S
C566 H557 0.929 . S
C566 C558 1.378 . S
C566 C561 1.350 . S
C567 H554 0.929 . S
C567 C559 1.433 . S
C567 N569 1.384 . S
N568 C564 1.427 . S
N568 C565 1.384 . S
N569 C561 1.427 . S
N569 C567 1.384 . S
H570 C576 0.930 . S
H571 C580 0.930 . S
H572 C585 0.929 . S
H573 C583 0.929 . S
H574 C578 0.929 . S
H575 C584 0.929 . S
C576 H570 0.930 . S
C576 C577 1.367 . S
C576 C584 1.378 . S
C577 C576 1.367 . S
C577 C585 1.433 . S
C578 H574 0.929 . S
C578 C580 1.378 . S
C578 C582 1.350 . S
C579 C582 1.463 . S
C579 C584 1.350 . S
C579 N587 1.427 . S
C580 H571 0.930 . S
C580 C578 1.378 . S
C580 C581 1.367 . S
C581 C580 1.367 . S
C581 C583 1.433 . S
C582 C578 1.350 . S
C582 C579 1.463 . S
C582 N586 1.427 . S
C583 H573 0.929 . S
C583 C581 1.433 . S
C583 N586 1.384 . S
C584 H575 0.929 . S
C584 C576 1.378 . S
C584 C579 1.350 . S
C585 H572 0.929 . S
C585 C577 1.433 . S
C585 N587 1.384 . S
N586 C582 1.427 . S
N586 C583 1.384 . S
N587 C579 1.427 . S
N587 C585 1.384 . S
H588 C594 0.930 . S
H589 C598 0.930 . S
H590 C603 0.929 . S
H591 C601 0.929 . S
H592 C596 0.929 . S
H593 C602 0.929 . S
C594 H588 0.930 . S
C594 C595 1.367 . S
C594 C602 1.378 . S
C595 C594 1.367 . S
C595 C603 1.433 . S
C596 H592 0.929 . S
C596 C598 1.378 . S
C596 C600 1.350 . S
C597 C600 1.463 . S
C597 C602 1.350 . S
C597 N605 1.427 . S
C598 H589 0.930 . S
C598 C596 1.378 . S
C598 C599 1.367 . S
C599 C598 1.367 . S
C599 C601 1.433 . S
C600 C596 1.350 . S
C600 C597 1.463 . S
C600 N604 1.427 . S
C601 H591 0.929 . S
C601 C599 1.433 . S
C601 N604 1.384 . S
C602 H593 0.929 . S
C602 C594 1.378 . S
C602 C597 1.350 . S
C603 H590 0.929 . S
C603 C595 1.433 . S
C603 N605 1.384 . S
N604 C600 1.427 . S
N604 C601 1.384 . S
N605 C597 1.427 . S
N605 C603 1.384 . S
H606 C612 0.930 . S
H607 C616 0.930 . S
H608 C621 0.929 . S
H609 C619 0.929 . S
H610 C614 0.929 . S
H611 C620 0.929 . S
C612 H606 0.930 . S
C612 C613 1.367 . S
C612 C620 1.378 . S
C613 C612 1.367 . S
C613 C621 1.433 . S
C614 H610 0.929 . S
C614 C616 1.378 . S
C614 C618 1.350 . S
C615 C618 1.463 . S
C615 C620 1.350 . S
C615 N623 1.427 . S
C616 H607 0.930 . S
C616 C614 1.378 . S
C616 C617 1.367 . S
C617 C616 1.367 . S
C617 C619 1.433 . S
C618 C614 1.350 . S
C618 C615 1.463 . S
C618 N622 1.427 . S
C619 H609 0.929 . S
C619 C617 1.433 . S
C619 N622 1.384 . S
C620 H611 0.929 . S
C620 C612 1.378 . S
C620 C615 1.350 . S
C621 H608 0.929 . S
C621 C613 1.433 . S
C621 N623 1.384 . S
N622 C618 1.427 . S
N622 C619 1.384 . S
N623 C615 1.427 . S
N623 C621 1.384 . S
C271 C50 1.510 . S
C275 C17 1.511 . S
C289 C83 1.513 . S
C293 C116 1.511 . S
C307 C182 1.510 . S
C311 C149 1.510 . S
C325 C215 1.510 . S
C329 C248 1.512 . S
C343 C160 1.527 . S
C347 C28 1.527 . S
C361 C61 1.527 . S
C365 C193 1.527 . S
C379 C94 1.527 . S
C383 C226 1.527 . S
C397 C127 1.527 . S
C401 C259 1.527 . S
C415 N5 1.363 . S
C419 N14 1.358 . S
C433 N47 1.350 . S
C437 N38 1.356 . S
C451 N71 1.363 . S
C455 N80 1.359 . S
C469 N113 1.350 . S
C473 N104 1.356 . S
C487 N137 1.362 . S
C491 N146 1.357 . S
C505 N179 1.359 . S
C509 N170 1.363 . S
C523 N203 1.364 . S
C527 N212 1.360 . S
C541 N236 1.365 . S
C545 N245 1.361 . S
C559 C8 1.527 . S
C563 C74 1.529 . S
C577 C41 1.528 . S
C581 C107 1.527 . S
C595 C140 1.530 . S
C599 C206 1.528 . S
C613 C173 1.529 . S
C617 C239 1.531 . S
