# Generated by pormake.
# Topology yfy, (5)-cn, num edge types: 1
# Building blocks:
#     Node 0, Type 0, BuildingBlock: XOMCOT_clean_sbu_1, # of connection points: 5
#     Node 1, Type 0, BuildingBlock: XOMCOT_clean_sbu_1, # of connection points: 5
#     Node 2, Type 0, BuildingBlock: XOMCOT_clean_sbu_1, # of connection points: 5
#     Node 3, Type 0, BuildingBlock: XOMCOT_clean_sbu_1, # of connection points: 5
#     Node 4, Type 0, BuildingBlock: XOMCOT_clean_sbu_1, # of connection points: 5
#     Node 5, Type 0, BuildingBlock: XOMCOT_clean_sbu_1, # of connection points: 5
#     Node 6, Type 0, BuildingBlock: XOMCOT_clean_sbu_1, # of connection points: 5
#     Node 7, Type 0, BuildingBlock: XOMCOT_clean_sbu_1, # of connection points: 5
#     Node 8, Type 0, BuildingBlock: XOMCOT_clean_sbu_1, # of connection points: 5
#     Node 9, Type 0, BuildingBlock: XOMCOT_clean_sbu_1, # of connection points: 5
#     Node 10, Type 0, BuildingBlock: XOMCOT_clean_sbu_1, # of connection points: 5
#     Node 11, Type 0, BuildingBlock: XOMCOT_clean_sbu_1, # of connection points: 5
#     Node 12, Type 0, BuildingBlock: XOMCOT_clean_sbu_1, # of connection points: 5
#     Node 13, Type 0, BuildingBlock: XOMCOT_clean_sbu_1, # of connection points: 5
#     Node 14, Type 0, BuildingBlock: XOMCOT_clean_sbu_1, # of connection points: 5
#     Node 15, Type 0, BuildingBlock: XOMCOT_clean_sbu_1, # of connection points: 5
#     Edge 16, Type (0, 0), BuildingBlock: MIFKUJ_clean_linker_0, # of connection points: 2
#     Edge 17, Type (0, 0), BuildingBlock: MIFKUJ_clean_linker_0, # of connection points: 2
#     Edge 18, Type (0, 0), BuildingBlock: MIFKUJ_clean_linker_0, # of connection points: 2
#     Edge 19, Type (0, 0), BuildingBlock: MIFKUJ_clean_linker_0, # of connection points: 2
#     Edge 20, Type (0, 0), BuildingBlock: MIFKUJ_clean_linker_0, # of connection points: 2
#     Edge 21, Type (0, 0), BuildingBlock: MIFKUJ_clean_linker_0, # of connection points: 2
#     Edge 22, Type (0, 0), BuildingBlock: MIFKUJ_clean_linker_0, # of connection points: 2
#     Edge 23, Type (0, 0), BuildingBlock: MIFKUJ_clean_linker_0, # of connection points: 2
#     Edge 24, Type (0, 0), BuildingBlock: MIFKUJ_clean_linker_0, # of connection points: 2
#     Edge 25, Type (0, 0), BuildingBlock: MIFKUJ_clean_linker_0, # of connection points: 2
#     Edge 26, Type (0, 0), BuildingBlock: MIFKUJ_clean_linker_0, # of connection points: 2
#     Edge 27, Type (0, 0), BuildingBlock: MIFKUJ_clean_linker_0, # of connection points: 2
#     Edge 28, Type (0, 0), BuildingBlock: MIFKUJ_clean_linker_0, # of connection points: 2
#     Edge 29, Type (0, 0), BuildingBlock: MIFKUJ_clean_linker_0, # of connection points: 2
#     Edge 30, Type (0, 0), BuildingBlock: MIFKUJ_clean_linker_0, # of connection points: 2
#     Edge 31, Type (0, 0), BuildingBlock: MIFKUJ_clean_linker_0, # of connection points: 2
#     Edge 32, Type (0, 0), BuildingBlock: MIFKUJ_clean_linker_0, # of connection points: 2
#     Edge 33, Type (0, 0), BuildingBlock: MIFKUJ_clean_linker_0, # of connection points: 2
#     Edge 34, Type (0, 0), BuildingBlock: MIFKUJ_clean_linker_0, # of connection points: 2
#     Edge 35, Type (0, 0), BuildingBlock: MIFKUJ_clean_linker_0, # of connection points: 2
#     Edge 36, Type (0, 0), BuildingBlock: MIFKUJ_clean_linker_0, # of connection points: 2
#     Edge 37, Type (0, 0), BuildingBlock: MIFKUJ_clean_linker_0, # of connection points: 2
#     Edge 38, Type (0, 0), BuildingBlock: MIFKUJ_clean_linker_0, # of connection points: 2
#     Edge 39, Type (0, 0), BuildingBlock: MIFKUJ_clean_linker_0, # of connection points: 2
#     Edge 40, Type (0, 0), BuildingBlock: MIFKUJ_clean_linker_0, # of connection points: 2
#     Edge 41, Type (0, 0), BuildingBlock: MIFKUJ_clean_linker_0, # of connection points: 2
#     Edge 42, Type (0, 0), BuildingBlock: MIFKUJ_clean_linker_0, # of connection points: 2
#     Edge 43, Type (0, 0), BuildingBlock: MIFKUJ_clean_linker_0, # of connection points: 2
#     Edge 44, Type (0, 0), BuildingBlock: MIFKUJ_clean_linker_0, # of connection points: 2
#     Edge 45, Type (0, 0), BuildingBlock: MIFKUJ_clean_linker_0, # of connection points: 2
#     Edge 46, Type (0, 0), BuildingBlock: MIFKUJ_clean_linker_0, # of connection points: 2
#     Edge 47, Type (0, 0), BuildingBlock: MIFKUJ_clean_linker_0, # of connection points: 2
#     Edge 48, Type (0, 0), BuildingBlock: MIFKUJ_clean_linker_0, # of connection points: 2
#     Edge 49, Type (0, 0), BuildingBlock: MIFKUJ_clean_linker_0, # of connection points: 2
#     Edge 50, Type (0, 0), BuildingBlock: MIFKUJ_clean_linker_0, # of connection points: 2
#     Edge 51, Type (0, 0), BuildingBlock: MIFKUJ_clean_linker_0, # of connection points: 2
#     Edge 52, Type (0, 0), BuildingBlock: MIFKUJ_clean_linker_0, # of connection points: 2
#     Edge 53, Type (0, 0), BuildingBlock: MIFKUJ_clean_linker_0, # of connection points: 2
#     Edge 54, Type (0, 0), BuildingBlock: MIFKUJ_clean_linker_0, # of connection points: 2
#     Edge 55, Type (0, 0), BuildingBlock: MIFKUJ_clean_linker_0, # of connection points: 2
# Relax obj value: 0.167
# Max RMSD: 0.199
# Mean RMSD: 0.199
data_MOF--net-yfy--node1-XOMCOT_clean_sbu_1--edge1-MIFKUJ_clean_linker_0
_symmetry_space_group_name_H-M    P1
_symmetry_Int_Tables_number       1
_symmetry_cell_setting            triclinic
loop_
_symmetry_equiv_pos_as_xyz
'x, y, z'
_cell_length_a     55.470664
_cell_length_b     55.39487
_cell_length_c     62.886062
_cell_angle_alpha  89.934156
_cell_angle_beta   89.978734
_cell_angle_gamma 90.217725
loop_
_atom_site_label
_atom_site_type_symbol
_atom_site_fract_x
_atom_site_fract_y
_atom_site_fract_z
_atom_type_partial_charge
C0 C 0.99444 0.29329 0.3381 0.0
C1 C 0.977 0.27561 0.33736 0.0
N2 N 0.98131 0.26152 0.32037 0.0
N3 N 1.00995 0.29019 0.32182 0.0
C4 C 1.00129 0.27082 0.31108 0.0
H5 H 0.9961 0.30722 0.35006 0.0
Co6 Co 0.03795 0.30867 0.31751 0.0
C7 C 0.06609 0.27654 0.28941 0.0
O8 O 0.06485 0.29208 0.27366 0.0
N9 N 0.06638 0.32698 0.31316 0.0
C10 C 0.10527 0.33687 0.31386 0.0
C11 C 0.08848 0.31986 0.31958 0.0
C12 C 0.07033 0.34846 0.30335 0.0
N13 N 0.09393 0.35491 0.30364 0.0
O14 O 0.02584 0.31836 0.29023 0.0
H15 H 0.09224 0.3031 0.32775 0.0
H16 H 0.05626 0.35919 0.29618 0.0
O17 O 0.05477 0.28069 0.30667 0.0
C18 C 1.01095 0.3352 0.29452 0.0
O19 O 1.00842 0.34198 0.31441 0.0
N20 N 0.04785 0.3012 0.34513 0.0
C21 C 0.05401 0.29445 0.38871 0.0
C22 C 0.05334 0.27458 0.37486 0.0
C23 C 0.05007 0.27834 0.35304 0.0
C24 C 0.04913 0.32068 0.35825 0.0
C25 C 0.05247 0.31774 0.38004 0.0
H26 H 0.0479 0.26289 0.34273 0.0
H27 H 0.04666 0.33862 0.35182 0.0
H28 H 1.00988 0.26321 0.29718 0.0
H29 H 0.96232 0.27319 0.34853 0.0
H30 H 0.12452 0.33569 0.31651 0.0
H31 H 0.05405 0.25629 0.38092 0.0
H32 H 0.05319 0.3336 0.39007 0.0
C33 C 0.79844 0.98745 0.31912 0.0
C34 C 0.8161 0.97031 0.31729 0.0
N35 N 0.83754 0.98158 0.31498 0.0
N36 N 0.80848 1.00957 0.31785 0.0
C37 C 0.83237 1.00548 0.31533 0.0
H38 H 0.77941 0.98399 0.32131 0.0
Co39 Co 0.79033 0.03779 0.3199 0.0
C40 C 0.81942 0.0646 0.28646 0.0
O41 O 0.80402 0.06211 0.27074 0.0
N42 N 0.77145 0.06604 0.32195 0.0
C43 C 0.74704 0.09404 0.33515 0.0
C44 C 0.76218 0.07527 0.34003 0.0
C45 C 0.76143 0.07947 0.30626 0.0
N46 N 0.74633 0.09659 0.31385 0.0
O47 O 0.77323 0.02813 0.29463 0.0
H48 H 0.76544 0.06825 0.35581 0.0
H49 H 0.76401 0.07578 0.28954 0.0
O50 O 0.81481 0.05543 0.30458 0.0
C51 C 0.75224 0.02029 0.29948 0.0
O52 O 0.74479 0.02285 0.31919 0.0
N53 N 0.80577 0.0454 0.34553 0.0
C54 C 0.82382 0.0538 0.38626 0.0
C55 C 0.8283 0.07028 0.36971 0.0
C56 C 0.81904 0.06578 0.34939 0.0
C57 C 0.80116 0.02933 0.36142 0.0
C58 C 0.81014 0.03307 0.38183 0.0
H59 H 0.82181 0.07908 0.33704 0.0
H60 H 0.78991 0.01375 0.35834 0.0
H61 H 0.8457 0.01973 0.31414 0.0
H62 H 0.8132 0.95099 0.31737 0.0
H63 H 0.73694 0.1046 0.34652 0.0
H64 H 0.8386 0.08662 0.3725 0.0
H65 H 0.80563 0.02021 0.39421 0.0
C66 C 0.11157 0.81278 0.3376 0.0
C67 C 0.12966 0.82975 0.33635 0.0
N68 N 0.12543 0.84397 0.31935 0.0
N69 N 0.09587 0.81635 0.32156 0.0
C70 C 0.10491 0.83533 0.31056 0.0
H71 H 0.10967 0.79896 0.34965 0.0
Co72 Co 0.06746 0.79887 0.31753 0.0
C73 C 0.04018 0.82858 0.28711 0.0
O74 O 0.03761 0.80997 0.27438 0.0
N75 N 0.03855 0.78133 0.31348 0.0
C76 C 0.99959 0.77145 0.31413 0.0
C77 C 0.01646 0.78832 0.32012 0.0
C78 C 0.0345 0.76024 0.30316 0.0
N79 N 1.01095 0.75387 0.3034 0.0
O80 O 0.08041 0.78649 0.29138 0.0
H81 H 0.01271 0.80495 0.32847 0.0
H82 H 0.04841 0.74975 0.29551 0.0
O83 O 0.05269 0.82648 0.304 0.0
C84 C 0.09451 0.76935 0.29674 0.0
O85 O 0.09598 0.76339 0.31692 0.0
N86 N 0.05671 0.80935 0.34415 0.0
C87 C 0.04973 0.82076 0.38689 0.0
C88 C 0.05118 0.83907 0.37145 0.0
C89 C 0.05477 0.83297 0.35009 0.0
C90 C 0.05449 0.79135 0.35877 0.0
C91 C 0.0506 0.79663 0.38014 0.0
H92 H 0.05745 0.84725 0.33861 0.0
H93 H 0.05661 0.77276 0.35388 0.0
H94 H 0.09626 0.84311 0.29675 0.0
H95 H 0.14476 0.83151 0.34714 0.0
H96 H 0.98034 0.77241 0.31682 0.0
H97 H 0.0509 0.85794 0.37591 0.0
H98 H 0.04909 0.78186 0.39136 0.0
C99 C 0.30837 0.11445 0.32793 0.0
C100 C 0.29178 0.13286 0.32762 0.0
N101 N 0.27465 0.12743 0.31317 0.0
N102 N 0.30169 0.09738 0.31387 0.0
C103 C 0.28123 0.10591 0.30491 0.0
H104 H 0.32399 0.11322 0.33816 0.0
Co105 Co 0.3173 0.0679 0.3101 0.0
C106 C 0.28425 0.04184 0.28133 0.0
O107 O 0.30104 0.04056 0.26664 0.0
N108 N 0.33286 0.03777 0.30619 0.0
C109 C 0.33852 0.99801 0.3064 0.0
C110 C 0.3236 0.01638 0.31262 0.0
C111 C 0.35358 0.03178 0.29604 0.0
N112 N 0.35739 1.00762 0.29583 0.0
O113 O 0.3288 0.07934 0.28319 0.0
H114 H 0.30672 0.01418 0.32103 0.0
H115 H 0.36531 0.04473 0.28838 0.0
O116 O 0.28833 0.05364 0.29835 0.0
C117 C 0.34843 0.09047 0.28736 0.0
O118 O 0.35681 0.08984 0.30688 0.0
N119 N 0.30775 0.05873 0.33748 0.0
C120 C 0.29776 0.05309 0.38067 0.0
C121 C 0.27904 0.05657 0.36597 0.0
C122 C 0.28444 0.05948 0.3444 0.0
C123 C 0.32611 0.05486 0.35142 0.0
C124 C 0.3215 0.05165 0.37303 0.0
H125 H 0.27004 0.06381 0.33352 0.0
H126 H 0.34455 0.05504 0.34579 0.0
H127 H 0.27083 0.09614 0.29317 0.0
H128 H 0.29221 0.14891 0.33741 0.0
H129 H 0.33559 0.97901 0.30948 0.0
H130 H 0.26052 0.05834 0.37116 0.0
H131 H 0.33651 0.04873 0.38372 0.0
C132 C 0.98474 0.80758 0.67938 0.0
C133 C 0.96884 0.82577 0.68382 0.0
N134 N 0.9814 0.84494 0.69101 0.0
N135 N 1.0073 0.81504 0.68384 0.0
C136 C 1.00481 0.83808 0.69074 0.0
H137 H 0.98017 0.7898 0.67351 0.0
Co138 Co 0.03291 0.79377 0.68112 0.0
C139 C 0.07771 0.81985 0.69211 0.0
O140 O 0.08843 0.80718 0.67725 0.0
N141 N 0.05836 0.77071 0.67851 0.0
C142 C 0.08271 0.74156 0.66723 0.0
C143 C 0.0654 0.75786 0.66137 0.0
C144 C 0.07169 0.76145 0.69468 0.0
N145 N 0.08684 0.74371 0.68827 0.0
O146 O 0.02319 0.77876 0.70743 0.0
H147 H 0.05817 0.7593 0.64555 0.0
H148 H 0.07005 0.76765 0.7109 0.0
O149 O 0.05507 0.81692 0.69563 0.0
C150 C 0.01269 0.75879 0.70306 0.0
O151 O 0.01198 0.75161 0.68316 0.0
N152 N 0.03938 0.80715 0.65422 0.0
C153 C 0.0425 0.82195 0.61195 0.0
C154 C 0.05087 0.83699 0.62829 0.0
C155 C 0.04881 0.82938 0.64948 0.0
C156 C 0.02906 0.79361 0.63861 0.0
C157 C 0.03105 0.80025 0.61733 0.0
H158 H 0.05424 0.84167 0.66186 0.0
H159 H 0.01955 0.77718 0.64276 0.0
H160 H 0.01964 0.84935 0.69594 0.0
H161 H 0.94946 0.82502 0.68182 0.0
H162 H 0.09093 0.7286 0.65667 0.0
H163 H 0.05901 0.85433 0.62472 0.0
H164 H 0.02348 0.78862 0.60519 0.0
C165 C 0.3035 0.98901 0.66918 0.0
C166 C 0.28513 0.97319 0.67365 0.0
N167 N 0.26805 0.98506 0.68461 0.0
N168 N 0.29827 1.01083 0.67736 0.0
C169 C 0.27631 1.008 0.68659 0.0
H170 H 0.31993 0.98479 0.66075 0.0
Co171 Co 0.32104 0.03559 0.67564 0.0
C172 C 0.29761 0.0813 0.68672 0.0
O173 O 0.31098 0.09148 0.67198 0.0
N174 N 0.34562 0.06002 0.674 0.0
C175 C 0.37388 0.08616 0.66336 0.0
C176 C 0.35746 0.06908 0.65691 0.0
C177 C 0.35579 0.07178 0.69074 0.0
N178 N 0.37285 0.0879 0.68465 0.0
O179 O 0.3343 0.02508 0.70209 0.0
H180 H 0.3547 0.06401 0.64058 0.0
H181 H 0.35041 0.06893 0.70709 0.0
O182 O 0.29894 0.05847 0.68996 0.0
C183 C 0.35209 1.01153 0.69757 0.0
O184 O 0.35802 1.0085 0.67753 0.0
N185 N 0.30897 0.04318 0.6486 0.0
C186 C 0.29545 0.04795 0.60618 0.0
C187 C 0.28028 0.05626 0.62242 0.0
C188 C 0.28724 0.05336 0.64368 0.0
C189 C 0.32257 0.03295 0.63302 0.0
C190 C 0.31656 0.03573 0.61169 0.0
H191 H 0.27486 0.0588 0.65598 0.0
H192 H 0.33864 0.02304 0.63726 0.0
H193 H 0.26696 0.0221 0.69512 0.0
H194 H 0.28437 0.95431 0.66924 0.0
H195 H 0.38598 0.09625 0.65314 0.0
H196 H 0.26336 0.065 0.61871 0.0
H197 H 0.32824 0.02819 0.5996 0.0
C198 C 0.12282 0.30965 0.67314 0.0
C199 C 0.14171 0.29373 0.67466 0.0
N200 N 0.13424 0.27431 0.68584 0.0
N201 N 0.10356 0.3004 0.68338 0.0
C202 C 0.11104 0.27881 0.69093 0.0
H203 H 0.12304 0.32687 0.66503 0.0
Co204 Co 0.07407 0.31591 0.68591 0.0
C205 C 0.04648 0.28537 0.7154 0.0
O206 O 0.04398 0.30401 0.7281 0.0
N207 N 0.0438 0.33159 0.68846 0.0
C208 C 1.00424 0.33757 0.68618 0.0
C209 C 0.02284 0.3225 0.68093 0.0
C210 C 0.03726 0.35227 0.6984 0.0
N211 N 0.01322 0.35629 0.69733 0.0
O212 O 0.08491 0.32898 0.71258 0.0
H213 H 0.02101 0.30562 0.67246 0.0
H214 H 0.04965 0.36381 0.7069 0.0
O215 O 0.05955 0.28741 0.6988 0.0
C216 C 0.09505 0.34911 0.70815 0.0
O217 O 0.09365 0.35732 0.68858 0.0
N218 N 0.06575 0.30503 0.65885 0.0
C219 C 0.05809 0.29394 0.6162 0.0
C220 C 0.06018 0.27548 0.63141 0.0
C221 C 0.06406 0.28142 0.65277 0.0
C222 C 0.06402 0.32312 0.64428 0.0
C223 C 0.05994 0.318 0.62292 0.0
H224 H 0.06641 0.26709 0.66423 0.0
H225 H 0.06623 0.34167 0.6493 0.0
H226 H 0.09984 0.26669 0.70018 0.0
H227 H 0.15944 0.29605 0.66774 0.0
H228 H 0.98553 0.33481 0.68206 0.0
H229 H 0.05904 0.25668 0.6268 0.0
H230 H 0.05907 0.33278 0.61165 0.0
C231 C 0.80367 0.12832 0.67929 0.0
C232 C 0.82151 0.14483 0.68356 0.0
N233 N 0.84159 0.13277 0.68908 0.0
N234 N 0.81224 0.10585 0.68227 0.0
C235 C 0.83558 0.10906 0.68803 0.0
H236 H 0.78545 0.13245 0.67445 0.0
Co237 Co 0.79228 0.07895 0.67913 0.0
C238 C 0.81957 0.03562 0.69224 0.0
O239 O 0.80773 0.02347 0.67767 0.0
N240 N 0.77076 0.05218 0.67608 0.0
C241 C 0.74495 0.02452 0.66397 0.0
C242 C 0.76063 0.04275 0.65838 0.0
C243 C 0.76064 0.03935 0.69221 0.0
N244 N 0.74488 0.02238 0.68531 0.0
O245 O 0.77584 0.08796 0.70491 0.0
H246 H 0.76405 0.04862 0.64231 0.0
H247 H 0.76458 0.04271 0.70879 0.0
O248 O 0.81588 0.05834 0.69457 0.0
C249 C 0.75591 0.09763 0.69935 0.0
O250 O 0.75044 0.09801 0.67901 0.0
N251 N 0.80671 0.0731 0.65266 0.0
C252 C 0.8232 0.0736 0.61073 0.0
C253 C 0.83685 0.06263 0.62683 0.0
C254 C 0.82856 0.06311 0.64789 0.0
C255 C 0.79376 0.08452 0.63728 0.0
C256 C 0.80146 0.08474 0.61623 0.0
H257 H 0.84017 0.05621 0.66015 0.0
H258 H 0.77716 0.09351 0.64149 0.0
H259 H 0.84776 0.09446 0.69181 0.0
H260 H 0.81989 0.16427 0.68253 0.0
H261 H 0.7345 0.01364 0.65304 0.0
H262 H 0.8541 0.05448 0.62327 0.0
H263 H 0.79037 0.09346 0.60433 0.0
C264 C 0.48602 0.80788 0.81366 0.0
C265 C 0.46945 0.78951 0.81176 0.0
N266 N 0.48144 0.76879 0.80837 0.0
N267 N 0.50842 0.79883 0.81171 0.0
C268 C 0.50508 0.77489 0.80833 0.0
H269 H 0.48203 0.82669 0.81656 0.0
Co270 Co 0.53614 0.81789 0.81427 0.0
C271 C 0.56372 0.78692 0.78332 0.0
O272 O 0.55872 0.79982 0.76636 0.0
N273 N 0.56392 0.83746 0.81662 0.0
C274 C 0.59082 0.86398 0.82868 0.0
C275 C 0.5718 0.84916 0.8341 0.0
C276 C 0.57835 0.8456 0.80076 0.0
N277 N 0.59484 0.86188 0.80763 0.0
O278 O 0.52819 0.83289 0.78775 0.0
H279 H 0.56357 0.84789 0.84965 0.0
H280 H 0.57619 0.84036 0.78432 0.0
O281 O 0.55531 0.79296 0.80138 0.0
C282 C 0.52048 0.85416 0.79138 0.0
O283 O 0.52103 0.86238 0.81097 0.0
N284 N 0.54199 0.80469 0.84116 0.0
C285 C 0.54645 0.78878 0.88304 0.0
C286 C 0.56459 0.78393 0.86807 0.0
C287 C 0.56203 0.79211 0.8471 0.0
C288 C 0.52462 0.81013 0.85568 0.0
C289 C 0.52632 0.80211 0.87659 0.0
H290 H 0.57642 0.78897 0.83589 0.0
H291 H 0.50944 0.82112 0.85105 0.0
H292 H 0.51961 0.7621 0.80637 0.0
H293 H 0.45004 0.79125 0.81266 0.0
H294 H 0.60007 0.87634 0.83924 0.0
H295 H 0.5806 0.77401 0.87253 0.0
H296 H 0.5123 0.80694 0.88778 0.0
C297 C 0.30382 0.48739 0.82814 0.0
C298 C 0.32039 0.46917 0.8258 0.0
N299 N 0.33918 0.47777 0.81446 0.0
N300 N 0.312 0.50739 0.81825 0.0
C301 C 0.33363 0.501 0.81007 0.0
H302 H 0.28683 0.48616 0.83651 0.0
Co303 Co 0.29469 0.53617 0.8167 0.0
C304 C 0.33117 0.56052 0.78803 0.0
O305 O 0.32156 0.55349 0.76997 0.0
N306 N 0.27726 0.56561 0.81492 0.0
C307 C 0.268 0.60451 0.81881 0.0
C308 C 0.28398 0.58662 0.82417 0.0
C309 C 0.2573 0.5715 0.8036 0.0
N310 N 0.25127 0.595 0.8058 0.0
O311 O 0.28314 0.52634 0.78925 0.0
H312 H 0.2999 0.58905 0.83386 0.0
H313 H 0.2474 0.55906 0.79366 0.0
O314 O 0.32209 0.55363 0.80561 0.0
C315 C 0.26385 0.51429 0.79278 0.0
O316 O 0.25533 0.51345 0.81226 0.0
N317 N 0.30451 0.54352 0.84444 0.0
C318 C 0.31594 0.54956 0.88722 0.0
C319 C 0.33422 0.54769 0.87193 0.0
C320 C 0.32813 0.54471 0.85054 0.0
C321 C 0.28652 0.54493 0.85914 0.0
C322 C 0.29183 0.54837 0.88061 0.0
H323 H 0.34241 0.54262 0.83901 0.0
H324 H 0.26794 0.54312 0.85414 0.0
H325 H 0.34499 0.51295 0.80083 0.0
H326 H 0.31888 0.45108 0.83221 0.0
H327 H 0.26917 0.6233 0.82342 0.0
H328 H 0.35304 0.54838 0.8765 0.0
H329 H 0.27724 0.54932 0.89204 0.0
C330 C 0.61256 0.32063 0.84262 0.0
C331 C 0.62592 0.34127 0.84015 0.0
N332 N 0.61803 0.35294 0.82273 0.0
N333 N 0.59604 0.31916 0.82696 0.0
C334 C 0.59997 0.33905 0.81483 0.0
H335 H 0.61474 0.30743 0.85514 0.0
Co336 Co 0.57414 0.2934 0.82591 0.0
C337 C 0.52843 0.31264 0.80943 0.0
O338 O 0.51744 0.29783 0.82261 0.0
N339 N 0.55281 0.26618 0.82482 0.0
C340 C 0.53109 0.23332 0.83238 0.0
C341 C 0.54523 0.25136 0.84061 0.0
C342 C 0.54317 0.25616 0.80699 0.0
N343 N 0.52972 0.23624 0.81119 0.0
O344 O 0.59035 0.28088 0.80137 0.0
H345 H 0.54949 0.25291 0.85721 0.0
H346 H 0.54605 0.26337 0.79119 0.0
O347 O 0.55156 0.31289 0.80855 0.0
C348 C 0.6079 0.26836 0.8084 0.0
O349 O 0.61097 0.26699 0.82908 0.0
N350 N 0.5606 0.30505 0.85147 0.0
C351 C 0.55098 0.32269 0.89209 0.0
C352 C 0.54481 0.33622 0.87413 0.0
C353 C 0.54996 0.32716 0.85388 0.0
C354 C 0.56816 0.29267 0.86898 0.0
C355 C 0.56277 0.30068 0.88941 0.0
H356 H 0.5468 0.33874 0.84039 0.0
H357 H 0.57947 0.27696 0.86707 0.0
H358 H 0.58965 0.34344 0.80074 0.0
H359 H 0.64064 0.34708 0.85025 0.0
H360 H 0.52218 0.2193 0.84149 0.0
H361 H 0.5368 0.3539 0.87578 0.0
H362 H 0.56888 0.29038 0.90303 0.0
C363 C 0.7978 0.61964 0.83539 0.0
C364 C 0.7811 0.63793 0.83461 0.0
N365 N 0.76663 0.63408 0.81775 0.0
N366 N 0.79361 0.60416 0.81927 0.0
C367 C 0.77471 0.61363 0.80859 0.0
H368 H 0.81164 0.6173 0.84731 0.0
Co369 Co 0.80966 0.57515 0.81481 0.0
C370 C 0.7761 0.54948 0.78576 0.0
O371 O 0.79242 0.5489 0.77063 0.0
N372 N 0.82565 0.54559 0.81017 0.0
C373 C 0.83191 0.506 0.8086 0.0
C374 C 0.8168 0.52375 0.81579 0.0
C375 C 0.84637 0.54056 0.79967 0.0
N376 N 0.85047 0.51655 0.79835 0.0
O377 O 0.82078 0.58741 0.78796 0.0
H378 H 0.79997 0.52083 0.82412 0.0
H379 H 0.85776 0.55407 0.79234 0.0
O380 O 0.78064 0.56068 0.80303 0.0
C381 C 0.83981 0.59953 0.7922 0.0
O382 O 0.84785 0.5997 0.81185 0.0
N383 N 0.80056 0.56502 0.84208 0.0
C384 C 0.79113 0.55771 0.88519 0.0
C385 C 0.77219 0.56116 0.87071 0.0
C386 C 0.7773 0.56496 0.84919 0.0
C387 C 0.81915 0.56117 0.8558 0.0
C388 C 0.81483 0.5572 0.87736 0.0
H389 H 0.76269 0.56933 0.83853 0.0
H390 H 0.83752 0.56199 0.85005 0.0
H391 H 0.76643 0.60521 0.79488 0.0
H392 H 0.77951 0.65275 0.84572 0.0
H393 H 0.82924 0.48676 0.81056 0.0
H394 H 0.75367 0.56223 0.87609 0.0
H395 H 0.83001 0.55437 0.88789 0.0
C396 C 0.48503 0.30878 0.17581 0.0
C397 C 0.46798 0.32639 0.1783 0.0
N398 N 0.47836 0.34568 0.1877 0.0
N399 N 0.50624 0.31669 0.18352 0.0
C400 C 0.50174 0.33935 0.19061 0.0
H401 H 0.48226 0.29126 0.16863 0.0
Co402 Co 0.53321 0.29689 0.18235 0.0
C403 C 0.57534 0.32509 0.19633 0.0
O404 O 0.58793 0.31344 0.18199 0.0
N405 N 0.56017 0.2754 0.18115 0.0
C406 C 0.58842 0.24941 0.17085 0.0
C407 C 0.57035 0.26447 0.16417 0.0
C408 C 0.5724 0.26622 0.19803 0.0
N409 N 0.58981 0.25048 0.1922 0.0
O410 O 0.52241 0.2811 0.20788 0.0
H411 H 0.56508 0.26669 0.14782 0.0
H412 H 0.56867 0.27122 0.21433 0.0
O413 O 0.55267 0.3209 0.19833 0.0
C414 C 0.51335 0.2607 0.20269 0.0
O415 O 0.5144 0.25391 0.1827 0.0
N416 N 0.54092 0.311 0.15605 0.0
C417 C 0.54149 0.32819 0.11424 0.0
C418 C 0.54973 0.34273 0.13105 0.0
C419 C 0.54885 0.33395 0.15196 0.0
C420 C 0.53201 0.29715 0.14 0.0
C421 C 0.53275 0.30503 0.11902 0.0
H422 H 0.55337 0.34614 0.1647 0.0
H423 H 0.52407 0.27976 0.14362 0.0
H424 H 0.51521 0.35087 0.19785 0.0
H425 H 0.44941 0.32517 0.17314 0.0
H426 H 0.59925 0.23802 0.16069 0.0
H427 H 0.55582 0.36105 0.12823 0.0
H428 H 0.52627 0.29302 0.1067 0.0
C429 C 0.80375 0.48066 0.17396 0.0
C430 C 0.78454 0.46569 0.1781 0.0
N431 N 0.76676 0.47893 0.18678 0.0
N432 N 0.79829 0.50326 0.18009 0.0
C433 C 0.77549 0.50176 0.18771 0.0
H434 H 0.82079 0.4754 0.16706 0.0
Co435 Co 0.82073 0.52811 0.17785 0.0
C436 C 0.79737 0.57318 0.19189 0.0
O437 O 0.80994 0.58434 0.17714 0.0
N438 N 0.84477 0.55287 0.17567 0.0
C439 C 0.87252 0.57927 0.16472 0.0
C440 C 0.85563 0.5626 0.1584 0.0
C441 C 0.85581 0.56393 0.1923 0.0
N442 N 0.87279 0.58014 0.18613 0.0
O443 O 0.83631 0.51619 0.20311 0.0
H444 H 0.85183 0.55828 0.14206 0.0
H445 H 0.8514 0.55999 0.20868 0.0
O446 O 0.79943 0.55023 0.1942 0.0
C447 C 0.85531 0.50505 0.19722 0.0
O448 O 0.86081 0.50485 0.17689 0.0
N449 N 0.80667 0.5368 0.15185 0.0
C450 C 0.79107 0.54336 0.1102 0.0
C451 C 0.7768 0.55114 0.12725 0.0
C452 C 0.78482 0.5474 0.14814 0.0
C453 C 0.81933 0.52705 0.13545 0.0
C454 C 0.81229 0.53073 0.11448 0.0
H455 H 0.77319 0.55256 0.16109 0.0
H456 H 0.83553 0.51689 0.13874 0.0
H457 H 0.76567 0.51687 0.19422 0.0
H458 H 0.78366 0.44652 0.17484 0.0
H459 H 0.8835 0.59006 0.15412 0.0
H460 H 0.7598 0.56015 0.12445 0.0
H461 H 0.8233 0.52365 0.10171 0.0
C462 C 0.62016 0.7819 0.15859 0.0
C463 C 0.63473 0.76233 0.16194 0.0
N464 N 0.62863 0.75225 0.18065 0.0
N465 N 0.60484 0.78428 0.17512 0.0
C466 C 0.61038 0.76582 0.18839 0.0
H467 H 0.62137 0.79433 0.14536 0.0
Co468 Co 0.58511 0.81146 0.17807 0.0
C469 C 0.53743 0.7909 0.18852 0.0
O470 O 0.52832 0.80593 0.1745 0.0
N471 N 0.56671 0.8401 0.18135 0.0
C472 C 0.56039 0.87986 0.18127 0.0
C473 C 0.5743 0.8615 0.17342 0.0
C474 C 0.54892 0.84639 0.19515 0.0
N475 N 0.54433 0.87037 0.19495 0.0
O476 O 0.60071 0.81966 0.20432 0.0
H477 H 0.59026 0.86406 0.16385 0.0
H478 H 0.54061 0.83406 0.20631 0.0
O479 O 0.56015 0.79135 0.19238 0.0
C480 C 0.62068 0.83 0.19975 0.0
O481 O 0.62746 0.83069 0.17973 0.0
N482 N 0.57172 0.80461 0.15085 0.0
C483 C 0.56284 0.79342 0.10817 0.0
C484 C 0.55772 0.7766 0.12421 0.0
C485 C 0.56276 0.78236 0.14543 0.0
C486 C 0.57666 0.82105 0.13528 0.0
C487 C 0.57202 0.81602 0.11399 0.0
H488 H 0.56088 0.76833 0.15727 0.0
H489 H 0.58603 0.8375 0.13891 0.0
H490 H 0.60227 0.76326 0.2039 0.0
H491 H 0.64928 0.75639 0.15174 0.0
H492 H 0.5625 0.89886 0.17765 0.0
H493 H 0.55128 0.75866 0.1203 0.0
H494 H 0.57655 0.82943 0.10207 0.0
C495 C 0.30348 0.62768 0.17487 0.0
C496 C 0.32154 0.64423 0.17802 0.0
N497 N 0.34009 0.63315 0.18779 0.0
N498 N 0.31036 0.6061 0.18256 0.0
C499 C 0.33289 0.60988 0.19027 0.0
H500 H 0.28626 0.63112 0.16742 0.0
Co501 Co 0.28922 0.57995 0.18126 0.0
C502 C 0.31525 0.5361 0.1951 0.0
O503 O 0.30169 0.52377 0.18188 0.0
N504 N 0.26626 0.55402 0.17985 0.0
C505 C 0.23834 0.5277 0.16903 0.0
C506 C 0.25531 0.54428 0.16264 0.0
C507 C 0.25537 0.54284 0.19656 0.0
N508 N 0.23825 0.52683 0.1904 0.0
O509 O 0.27433 0.59096 0.20714 0.0
H510 H 0.2589 0.5488 0.14629 0.0
H511 H 0.25955 0.54681 0.213 0.0
O512 O 0.31265 0.55907 0.19665 0.0
C513 C 0.25465 0.6013 0.20189 0.0
O514 O 0.24834 0.60137 0.18174 0.0
N515 N 0.30239 0.57209 0.15467 0.0
C516 C 0.31754 0.5691 0.11236 0.0
C517 C 0.33182 0.55973 0.12885 0.0
C518 C 0.32413 0.56179 0.15 0.0
C519 C 0.28905 0.58237 0.13895 0.0
C520 C 0.29589 0.58057 0.11775 0.0
H521 H 0.33614 0.55594 0.16241 0.0
H522 H 0.27262 0.59179 0.14298 0.0
H523 H 0.34361 0.59604 0.19784 0.0
H524 H 0.32113 0.66299 0.1732 0.0
H525 H 0.22694 0.51706 0.15865 0.0
H526 H 0.34912 0.55156 0.12552 0.0
H527 H 0.28412 0.58803 0.10571 0.0
H528 H 0.08094 0.26225 0.412 0.0
H529 H 0.082 0.25782 0.45084 0.0
H530 H 0.02936 0.31451 0.45696 0.0
H531 H 0.02801 0.31885 0.41844 0.0
H532 H 0.06702 0.32152 0.48323 0.0
H533 H 0.01393 0.25577 0.46402 0.0
H534 H 1.00278 0.21829 0.44527 0.0
H535 H 0.06143 0.18111 0.4753 0.0
H536 H 0.07314 0.21849 0.49401 0.0
H537 H 0.02766 0.31539 0.58796 0.0
H538 H 0.02736 0.31093 0.54932 0.0
H539 H 0.08213 0.2561 0.55373 0.0
H540 H 0.08253 0.26049 0.59255 0.0
H541 H 0.04759 0.24605 0.52236 0.0
H542 H 0.0994 0.31125 0.54293 0.0
H543 H 0.11027 0.34862 0.56196 0.0
H544 H 0.05431 0.38686 0.52909 0.0
H545 H 0.04284 0.34959 0.51011 0.0
C546 C 0.06946 0.2736 0.42165 0.0
C547 C 0.05461 0.2911 0.41215 0.0
C548 C 0.07008 0.27106 0.44381 0.0
C549 C 0.05575 0.28585 0.45677 0.0
C550 C 0.04071 0.30305 0.44727 0.0
C551 C 0.04008 0.30559 0.42524 0.0
C552 C 0.05671 0.28414 0.48029 0.0
C553 C 0.06256 0.30506 0.49176 0.0
C554 C 0.05163 0.26247 0.49142 0.0
C555 C 0.04458 0.23999 0.48021 0.0
C556 C 0.02458 0.23966 0.46648 0.0
C557 C 0.01813 0.21842 0.45589 0.0
C558 C 0.03143 0.19735 0.45904 0.0
C559 C 0.05117 0.19746 0.47284 0.0
C560 C 0.05771 0.21866 0.48345 0.0
C561 C 0.03947 0.3022 0.58072 0.0
C562 C 0.05535 0.28851 0.59324 0.0
C563 C 0.03925 0.29965 0.55867 0.0
C564 C 0.05505 0.28351 0.54867 0.0
C565 C 0.06986 0.2687 0.56116 0.0
C566 C 0.07003 0.2712 0.58332 0.0
C567 C 0.05726 0.2836 0.52518 0.0
C568 C 0.05218 0.26243 0.51377 0.0
C569 C 0.0631 0.30503 0.51402 0.0
C570 C 0.07014 0.32757 0.52522 0.0
C571 C 0.0893 0.32758 0.53987 0.0
C572 C 0.09559 0.34875 0.55063 0.0
C573 C 0.08296 0.37009 0.54677 0.0
C574 C 0.06406 0.37031 0.53208 0.0
C575 C 0.05768 0.34917 0.5213 0.0
H576 H 0.08785 0.38646 0.55512 0.0
H577 H 0.0264 0.18092 0.45084 0.0
H578 H 0.82423 0.1118 0.58342 0.0
H579 H 0.83158 0.11096 0.54512 0.0
H580 H 0.84728 0.03485 0.54875 0.0
H581 H 0.84014 0.03567 0.58727 0.0
H582 H 0.87634 0.05837 0.51943 0.0
H583 H 0.79188 0.05244 0.53602 0.0
H584 H 0.75392 0.06508 0.55303 0.0
H585 H 0.757 0.13271 0.51968 0.0
H586 H 0.79522 0.12061 0.50272 0.0
H587 H 0.84266 0.02184 0.41493 0.0
H588 H 0.84958 0.02832 0.45284 0.0
H589 H 0.83014 0.10324 0.44572 0.0
H590 H 0.82243 0.09667 0.40786 0.0
H591 H 0.8051 0.08242 0.47677 0.0
H592 H 0.88836 0.08623 0.45751 0.0
H593 H 0.92595 0.07262 0.44046 0.0
H594 H 0.92482 1.00798 0.47821 0.0
H595 H 0.88702 0.02104 0.49527 0.0
C596 C 0.82953 0.09495 0.57609 0.0
C597 C 0.83124 0.0737 0.58824 0.0
C598 C 0.83377 0.0945 0.55423 0.0
C599 C 0.83951 0.07275 0.54403 0.0
C600 C 0.8428 0.05182 0.55631 0.0
C601 C 0.83872 0.05229 0.57828 0.0
C602 C 0.83988 0.07149 0.52046 0.0
C603 C 0.86074 0.06343 0.51006 0.0
C604 C 0.81964 0.07851 0.50826 0.0
C605 C 0.79654 0.08573 0.51828 0.0
C606 C 0.78456 0.07008 0.53243 0.0
C607 C 0.76299 0.07714 0.54205 0.0
C608 C 0.75309 0.09971 0.53748 0.0
C609 C 0.76471 0.11525 0.52323 0.0
C610 C 0.78632 0.1083 0.51361 0.0
C611 C 0.84009 0.03976 0.4214 0.0
C612 C 0.83177 0.05869 0.40842 0.0
C613 C 0.8443 0.0435 0.44304 0.0
C614 C 0.84048 0.0663 0.45213 0.0
C615 C 0.83324 0.0855 0.43903 0.0
C616 C 0.82901 0.08177 0.41735 0.0
C617 C 0.84163 0.06942 0.47557 0.0
C618 C 0.82089 0.07766 0.48602 0.0
C619 C 0.86194 0.06243 0.48773 0.0
C620 C 0.88473 0.05454 0.47755 0.0
C621 C 0.89602 0.06903 0.46206 0.0
C622 C 0.91739 0.06142 0.45241 0.0
C623 C 0.92774 0.03943 0.45822 0.0
C624 C 0.91677 0.02501 0.47372 0.0
C625 C 0.89539 0.03252 0.4834 0.0
H626 H 0.94429 0.03357 0.45073 0.0
H627 H 0.73638 0.10514 0.54494 0.0
H628 H 0.06256 0.79469 0.581 0.0
H629 H 0.06501 0.80359 0.54297 0.0
H630 H 0.03094 0.87242 0.55352 0.0
H631 H 0.02876 0.86364 0.5919 0.0
H632 H 1.00993 0.84273 0.52007 0.0
H633 H 0.08606 0.87531 0.54076 0.0
H634 H 0.12522 0.87572 0.55928 0.0
H635 H 0.14768 0.8135 0.52389 0.0
H636 H 0.10851 0.81247 0.50538 0.0
H637 H 0.0259 0.85777 0.40735 0.0
H638 H 0.02583 0.86671 0.44551 0.0
H639 H 0.07213 0.80559 0.45674 0.0
H640 H 0.07328 0.79733 0.41886 0.0
H641 H 0.08678 0.84195 0.47969 0.0
H642 H 1.00956 0.80398 0.46499 0.0
H643 H 0.97007 0.80048 0.44722 0.0
H644 H 0.94951 0.86971 0.4718 0.0
H645 H 0.98904 0.87373 0.48952 0.0
C646 C 0.05581 0.81181 0.57522 0.0
C647 C 0.04548 0.8285 0.58929 0.0
C648 C 0.05728 0.81691 0.55355 0.0
C649 C 0.04824 0.83869 0.54549 0.0
C650 C 0.03807 0.85555 0.5595 0.0
C651 C 0.03695 0.85059 0.58134 0.0
C652 C 0.04866 0.84297 0.52225 0.0
C653 C 0.02671 0.84321 0.51119 0.0
C654 C 0.07057 0.84311 0.51077 0.0
C655 C 0.09427 0.84376 0.52175 0.0
C656 C 0.09928 0.86161 0.53703 0.0
C657 C 0.1215 0.86197 0.54751 0.0
C658 C 0.13892 0.84463 0.54278 0.0
C659 C 0.13417 0.82692 0.52753 0.0
C660 C 0.11197 0.82647 0.51701 0.0
C661 C 0.0362 0.84635 0.41794 0.0
C662 C 0.04925 0.82655 0.41001 0.0
C663 C 0.03602 0.8514 0.43977 0.0
C664 C 0.04876 0.83666 0.45405 0.0
C665 C 0.06212 0.81722 0.44609 0.0
C666 C 0.06245 0.81229 0.42437 0.0
C667 C 0.04802 0.84079 0.47739 0.0
C668 C 0.06996 0.84212 0.4885 0.0
C669 C 0.02609 0.84174 0.4889 0.0
C670 C 1.00234 0.83929 0.47833 0.0
C671 C 0.99668 0.81853 0.46647 0.0
C672 C 0.97429 0.81644 0.45643 0.0
C673 C 0.95733 0.8349 0.45831 0.0
C674 C 0.96269 0.85545 0.47031 0.0
C675 C 0.98508 0.85765 0.48035 0.0
H676 H 0.94 0.83325 0.45053 0.0
H677 H 0.15611 0.84494 0.55092 0.0
H678 H 0.25367 0.03641 0.58525 0.0
H679 H 0.24624 0.03907 0.54672 0.0
H680 H 0.31685 0.07043 0.53784 0.0
H681 H 0.32434 0.06764 0.57607 0.0
H682 H 0.28041 0.09318 0.51388 0.0
H683 H 0.30991 0.01242 0.53044 0.0
H684 H 0.30769 0.97303 0.54867 0.0
H685 H 0.23816 0.95973 0.52095 0.0
H686 H 0.23984 0.99924 0.50278 0.0
H687 H 0.32454 0.07404 0.41212 0.0
H688 H 0.31666 0.07429 0.45013 0.0
H689 H 0.25132 0.03335 0.44022 0.0
H690 H 0.25973 0.03199 0.40196 0.0
H691 H 0.2753 0.01634 0.4736 0.0
H692 H 0.24882 0.09375 0.45188 0.0
H693 H 0.25063 0.13305 0.4335 0.0
H694 H 0.31236 0.1533 0.47069 0.0
H695 H 0.31116 0.11398 0.48907 0.0
C696 C 0.26738 0.04419 0.57503 0.0
C697 C 0.28961 0.05171 0.58349 0.0
C698 C 0.26318 0.04561 0.55311 0.0
C699 C 0.28107 0.05483 0.53948 0.0
C700 C 0.30282 0.0633 0.5481 0.0
C701 C 0.30712 0.06159 0.56987 0.0
C702 C 0.27807 0.05449 0.5161 0.0
C703 C 0.27927 0.07643 0.50501 0.0
C704 C 0.27579 0.03264 0.50465 0.0
C705 C 0.27485 1.00889 0.51549 0.0
C706 C 0.29405 1.00118 0.52839 0.0
C707 C 0.29291 0.97883 0.53868 0.0
C708 C 0.27276 0.96392 0.53603 0.0
C709 C 0.25373 0.97132 0.52303 0.0
C710 C 0.25477 0.99369 0.51273 0.0
C711 C 0.30866 0.06474 0.41796 0.0
C712 C 0.29284 0.05286 0.40393 0.0
C713 C 0.30396 0.06525 0.43972 0.0
C714 C 0.28314 0.05427 0.448 0.0
C715 C 0.26739 0.04213 0.43415 0.0
C716 C 0.27215 0.0415 0.41228 0.0
C717 C 0.27845 0.05505 0.47124 0.0
C718 C 0.27582 0.0332 0.48234 0.0
C719 C 0.27922 0.07704 0.48271 0.0
C720 C 0.27996 0.10083 0.47179 0.0
C721 C 0.26288 0.10652 0.45605 0.0
C722 C 0.26378 0.12881 0.44564 0.0
C723 C 0.28161 0.14565 0.45091 0.0
C724 C 0.29855 0.14024 0.46663 0.0
C725 C 0.29774 0.11796 0.47707 0.0
H726 H 0.28229 0.1629 0.44282 0.0
H727 H 0.27191 0.94661 0.544 0.0
H728 H 0.58589 0.7931 0.90881 0.0
H729 H 0.58776 0.78616 0.94718 0.0
H730 H 0.51399 0.76114 0.94667 0.0
H731 H 0.51198 0.7683 0.90833 0.0
H732 H 0.51982 0.79402 0.97616 0.0
H733 H 0.56148 0.72232 0.95673 0.0
H734 H 0.59187 0.69768 0.93823 0.0
H735 H 0.64862 0.73668 0.96961 0.0
H736 H 0.61859 0.76181 0.98808 0.0
H737 H 0.52507 0.77106 0.08792 0.0
H738 H 0.52123 0.76275 0.04968 0.0
H739 H 0.59201 0.79299 0.03905 0.0
H740 H 0.59604 0.80099 0.07703 0.0
H741 H 0.58468 0.75193 0.01564 0.0
H742 H 0.54312 0.82672 0.03081 0.0
H743 H 0.51298 0.85202 0.04896 0.0
H744 H 0.45605 0.80686 0.02508 0.0
H745 H 0.48591 0.78108 0.00701 0.0
C746 C 0.57028 0.78557 0.91681 0.0
C747 C 0.54876 0.78135 0.90561 0.0
C748 C 0.57135 0.7816 0.93875 0.0
C749 C 0.55103 0.77301 0.94983 0.0
C750 C 0.52985 0.76784 0.93849 0.0
C751 C 0.52873 0.77196 0.9166 0.0
C752 C 0.55125 0.77145 0.97341 0.0
C753 C 0.5337 0.78433 0.98477 0.0
C754 C 0.56961 0.75921 0.98469 0.0
C755 C 0.58776 0.74407 0.97368 0.0
C756 C 0.58044 0.72577 0.95957 0.0
C757 C 0.59761 0.71169 0.94911 0.0
C758 C 0.62216 0.71564 0.95271 0.0
C759 C 0.6296 0.73365 0.96682 0.0
C760 C 0.61251 0.74779 0.97732 0.0
C761 C 0.53986 0.77567 0.0774 0.0
C762 C 0.56069 0.787 0.08537 0.0
C763 C 0.53764 0.77099 0.05561 0.0
C764 C 0.55627 0.77746 0.04152 0.0
C765 C 0.57742 0.78788 0.04961 0.0
C766 C 0.57958 0.79268 0.07129 0.0
C767 C 0.55346 0.77472 0.01821 0.0
C768 C 0.57055 0.76116 0.00695 0.0
C769 C 0.53469 0.78631 0.00697 0.0
C770 C 0.51675 0.80181 0.0178 0.0
C771 C 0.52418 0.82207 0.02959 0.0
C772 C 0.50716 0.83651 0.03983 0.0
C773 C 0.48262 0.831 0.03824 0.0
C774 C 0.47506 0.81107 0.02635 0.0
C775 C 0.49203 0.79654 0.0161 0.0
H776 H 0.46946 0.84222 0.04617 0.0
H777 H 0.63542 0.70472 0.94459 0.0
H778 H 0.29862 0.58252 0.91542 0.0
H779 H 0.30683 0.58491 0.95368 0.0
H780 H 0.35414 0.52355 0.94891 0.0
H781 H 0.34628 0.52134 0.91051 0.0
H782 H 0.31686 0.52115 0.98189 0.0
H783 H 0.38043 0.57273 0.95686 0.0
H784 H 0.39777 0.60625 0.93597 0.0
H785 H 0.35294 0.65669 0.96927 0.0
H786 H 0.33505 0.62342 0.99014 0.0
H787 H 0.34024 0.53138 0.09222 0.0
H788 H 0.34842 0.5272 0.05417 0.0
H789 H 0.31837 0.59784 0.043 0.0
H790 H 0.31183 0.60284 0.08093 0.0
H791 H 0.35354 0.59227 0.0174 0.0
H792 H 0.28516 0.54282 0.0374 0.0
H793 H 0.26416 0.51073 0.05746 0.0
H794 H 0.31355 0.45811 0.03296 0.0
H795 H 0.33502 0.48998 0.01295 0.0
C796 C 0.3109 0.56968 0.92254 0.0
C797 C 0.32186 0.55178 0.91008 0.0
C798 C 0.31564 0.5711 0.94431 0.0
C799 C 0.33116 0.55446 0.95403 0.0
C800 C 0.34219 0.53659 0.94164 0.0
C801 C 0.33778 0.53543 0.91976 0.0
C802 C 0.33489 0.55521 0.97732 0.0
C803 C 0.32534 0.53643 0.9897 0.0
C804 C 0.34543 0.57545 0.98739 0.0
C805 C 0.35628 0.59554 0.97496 0.0
C806 C 0.37413 0.59094 0.95962 0.0
C807 C 0.38408 0.60991 0.9478 0.0
C808 C 0.37643 0.63358 0.95126 0.0
C809 C 0.35884 0.63834 0.96659 0.0
C810 C 0.34881 0.61944 0.97844 0.0
C811 C 0.33589 0.54625 0.08172 0.0
C812 C 0.32489 0.56725 0.08964 0.0
C813 C 0.34032 0.54372 0.05991 0.0
C814 C 0.33343 0.56195 0.04558 0.0
C815 C 0.32368 0.58341 0.05363 0.0
C816 C 0.31962 0.5861 0.07537 0.0
C817 C 0.33495 0.55843 0.02216 0.0
C818 C 0.34545 0.57673 0.00968 0.0
C819 C 0.3248 0.53796 0.01197 0.0
C820 C 0.31186 0.5188 0.02391 0.0
C821 C 0.29163 0.52442 0.03642 0.0
C822 C 0.27963 0.50628 0.04775 0.0
C823 C 0.28757 0.48241 0.04654 0.0
C824 C 0.30746 0.47662 0.03392 0.0
C825 C 0.31955 0.49471 0.02258 0.0
H826 H 0.27825 0.46839 0.05533 0.0
H827 H 0.38415 0.64824 0.94209 0.0
H828 H 0.52146 0.30436 0.92246 0.0
H829 H 0.51907 0.31667 0.95988 0.0
H830 H 0.57095 0.37332 0.94807 0.0
H831 H 0.57279 0.36144 0.91038 0.0
H832 H 0.58164 0.33764 0.98253 0.0
H833 H 0.52111 0.39286 0.95912 0.0
H834 H 0.48443 0.4048 0.93972 0.0
H835 H 0.44231 0.35544 0.97725 0.0
H836 H 0.47881 0.34289 0.99664 0.0
H837 H 0.57504 0.35675 0.09373 0.0
H838 H 0.57608 0.36736 0.05593 0.0
H839 H 0.50908 0.32904 0.04628 0.0
H840 H 0.507 0.32004 0.084 0.0
H841 H 0.50912 0.36533 0.02155 0.0
H842 H 0.56752 0.30314 0.03805 0.0
H843 H 0.60299 0.28608 0.05625 0.0
H844 H 0.64749 0.34281 0.03088 0.0
H845 H 0.61218 0.36036 0.01272 0.0
C846 C 0.53187 0.31979 0.92781 0.0
C847 C 0.54716 0.33213 0.91372 0.0
C848 C 0.53052 0.32679 0.94909 0.0
C849 C 0.54478 0.34593 0.95663 0.0
C850 C 0.55973 0.35861 0.94246 0.0
C851 C 0.56069 0.35191 0.92103 0.0
C852 C 0.54544 0.35107 0.97969 0.0
C853 C 0.56604 0.34431 0.9911 0.0
C854 C 0.52483 0.35914 0.99073 0.0
C855 C 0.50276 0.36684 0.97926 0.0
C856 C 0.50406 0.38441 0.96314 0.0
C857 C 0.48329 0.39131 0.95215 0.0
C858 C 0.46106 0.38086 0.95723 0.0
C859 C 0.45954 0.36352 0.97334 0.0
C860 C 0.48027 0.35653 0.98435 0.0
C861 C 0.56026 0.35107 0.08363 0.0
C862 C 0.54125 0.33698 0.09185 0.0
C863 C 0.561 0.35695 0.06196 0.0
C864 C 0.54298 0.34846 0.04808 0.0
C865 C 0.52332 0.33566 0.05654 0.0
C866 C 0.52237 0.33017 0.07815 0.0
C867 C 0.54511 0.35116 0.02461 0.0
C868 C 0.52501 0.35931 0.01306 0.0
C869 C 0.56599 0.34374 0.0134 0.0
C870 C 0.58719 0.33323 0.02428 0.0
C871 C 0.58484 0.31206 0.03648 0.0
C872 C 0.60491 0.30229 0.04677 0.0
C873 C 0.62746 0.31341 0.04479 0.0
C874 C 0.63 0.33427 0.03245 0.0
C875 C 0.60997 0.34413 0.02216 0.0
H876 H 0.64298 0.30582 0.05275 0.0
H877 H 0.44499 0.38622 0.94871 0.0
H878 H 0.81808 0.56614 0.08052 0.0
H879 H 0.80958 0.57043 0.04257 0.0
H880 H 0.74095 0.53489 0.0513 0.0
H881 H 0.74935 0.53085 0.08963 0.0
H882 H 0.77054 0.5152 0.01824 0.0
H883 H 0.73889 0.59123 0.03937 0.0
H884 H 0.73851 0.63017 0.05829 0.0
H885 H 0.80153 0.65301 0.02397 0.0
H886 H 0.80252 0.61405 0.00506 0.0
H887 H 0.75432 0.53414 0.90608 0.0
H888 H 0.74658 0.5332 0.94446 0.0
H889 H 0.80978 0.57717 0.95513 0.0
H890 H 0.81706 0.57897 0.91698 0.0
H891 H 0.77349 0.59273 0.97874 0.0
H892 H 0.80983 0.51553 0.96306 0.0
H893 H 0.81297 0.47616 0.94501 0.0
H894 H 0.74375 0.45535 0.9697 0.0
H895 H 0.74008 0.49476 0.98768 0.0
C896 C 0.80103 0.55959 0.07438 0.0
C897 C 0.78434 0.5482 0.08788 0.0
C898 C 0.79616 0.56209 0.05275 0.0
C899 C 0.7746 0.55306 0.04418 0.0
C900 C 0.75764 0.54204 0.05768 0.0
C901 C 0.76237 0.53986 0.07949 0.0
C902 C 0.77089 0.55395 0.02087 0.0
C903 C 0.77052 0.53214 0.00956 0.0
C904 C 0.77143 0.57606 0.00964 0.0
C905 C 0.77084 0.59963 0.02087 0.0
C906 C 0.75277 0.60448 0.03596 0.0
C907 C 0.75243 0.62657 0.04667 0.0
C908 C 0.77 0.64404 0.04235 0.0
C909 C 0.78793 0.63946 0.02729 0.0
C910 C 0.78836 0.61739 0.01654 0.0
C911 C 0.76646 0.54373 0.91662 0.0
C912 C 0.78645 0.55644 0.90845 0.0
C913 C 0.7621 0.54305 0.93854 0.0
C914 C 0.77771 0.55496 0.95269 0.0
C915 C 0.79749 0.56783 0.94454 0.0
C916 C 0.80181 0.56858 0.9227 0.0
C917 C 0.77388 0.55397 0.97605 0.0
C918 C 0.77288 0.57578 0.98737 0.0
C919 C 0.77237 0.53184 0.98729 0.0
C920 C 0.77453 0.50819 0.97646 0.0
C921 C 0.79518 0.50264 0.96447 0.0
C922 C 0.79708 0.48031 0.95429 0.0
C923 C 0.77853 0.4633 0.95614 0.0
C924 C 0.75807 0.46857 0.96824 0.0
C925 C 0.75608 0.49089 0.97843 0.0
H926 H 0.78003 0.44601 0.94826 0.0
H927 H 0.76971 0.66114 0.05066 0.0
H928 H 0.09 0.25735 0.25504 0.0
H929 H 0.12444 0.22947 0.2558 0.0
H930 H 0.11968 0.22587 0.32412 0.0
H931 H 0.08525 0.25299 0.32354 0.0
H932 H 0.16727 0.24062 0.30397 0.0
H933 H 0.10366 0.17998 0.303 0.0
H934 H 0.06783 0.16031 0.28745 0.0
H935 H 0.10743 0.14558 0.23026 0.0
H936 H 0.1434 0.16557 0.24536 0.0
H937 H 0.2496 0.15526 0.34064 0.0
H938 H 0.21347 0.17873 0.33326 0.0
H939 H 0.21424 0.15413 0.26819 0.0
H940 H 0.25035 0.13008 0.27572 0.0
H941 H 0.16945 0.15467 0.28194 0.0
H942 H 0.23332 0.2119 0.28187 0.0
H943 H 0.26955 0.23315 0.29486 0.0
H944 H 0.2308 0.25658 0.35018 0.0
H945 H 0.19441 0.23517 0.33769 0.0
C946 C 0.09602 0.25023 0.27017 0.0
C947 C 0.08475 0.25737 0.28921 0.0
C948 C 0.11568 0.23435 0.27058 0.0
C949 C 0.12459 0.2257 0.29003 0.0
C950 C 0.11305 0.23233 0.30895 0.0
C951 C 0.09321 0.24776 0.30854 0.0
C952 C 0.14688 0.21101 0.29104 0.0
C953 C 0.16776 0.22177 0.29932 0.0
C954 C 0.14765 0.18674 0.28418 0.0
C955 C 0.12611 0.17456 0.2752 0.0
C956 C 0.10465 0.17279 0.28702 0.0
C957 C 0.08434 0.16153 0.27831 0.0
C958 C 0.08533 0.15178 0.25785 0.0
C959 C 0.10667 0.1532 0.24609 0.0
C960 C 0.12703 0.16448 0.25472 0.0
C961 C 0.24222 0.15497 0.32471 0.0
C962 C 0.25305 0.14103 0.3087 0.0
C963 C 0.22151 0.16842 0.32048 0.0
C964 C 0.21132 0.16869 0.30002 0.0
C965 C 0.22177 0.15434 0.28408 0.0
C966 C 0.24241 0.1406 0.28839 0.0
C967 C 0.18989 0.18408 0.29549 0.0
C968 C 0.16917 0.17356 0.28646 0.0
C969 C 0.18934 0.2088 0.30131 0.0
C970 C 0.21118 0.22175 0.30891 0.0
C971 C 0.23256 0.22143 0.29688 0.0
C972 C 0.25313 0.23353 0.30415 0.0
C973 C 0.25249 0.24617 0.32335 0.0
C974 C 0.23127 0.24677 0.33532 0.0
C975 C 0.21066 0.23468 0.32814 0.0
H976 H 0.26843 0.25553 0.32895 0.0
H977 H 0.06958 0.14308 0.25113 0.0
H978 H 0.85787 0.06796 0.31326 0.0
H979 H 0.88811 0.09997 0.31468 0.0
H980 H 0.85921 0.13119 0.25735 0.0
H981 H 0.82842 0.09921 0.25591 0.0
H982 H 0.91474 0.13169 0.26364 0.0
H983 H 0.83868 0.15476 0.29736 0.0
H984 H 0.80486 0.14472 0.32132 0.0
H985 H 0.8542 0.13665 0.37342 0.0
H986 H 0.88836 0.14628 0.34967 0.0
H987 H 0.967 0.24853 0.28083 0.0
H988 H 0.94129 0.21398 0.2714 0.0
H989 H 0.94058 0.19149 0.33719 0.0
H990 H 0.96498 0.22671 0.34658 0.0
H991 H 0.89873 0.18662 0.32427 0.0
H992 H 0.97413 0.16211 0.29462 0.0
H993 H 1.0109 0.16543 0.27272 0.0
H994 H 0.9677 0.17044 0.21625 0.0
H995 H 0.93066 0.16744 0.23785 0.0
C996 C 0.85808 0.08138 0.30072 0.0
C997 C 0.8404 0.08125 0.28467 0.0
C998 C 0.87552 0.0996 0.30151 0.0
C999 C 0.87577 0.11806 0.28624 0.0
C1000 C 0.85934 0.11706 0.26926 0.0
C1001 C 0.84174 0.09879 0.26849 0.0
C1002 C 0.89108 0.13976 0.28973 0.0
C1003 C 0.91113 0.14401 0.27664 0.0
C1004 C 0.88674 0.15528 0.30714 0.0
C1005 C 0.86607 0.15116 0.32172 0.0
C1006 C 0.84231 0.15086 0.31393 0.0
C1007 C 0.82309 0.1452 0.32746 0.0
C1008 C 0.82739 0.14003 0.34888 0.0
C1009 C 0.8509 0.14069 0.35684 0.0
C1010 C 0.87019 0.14629 0.34335 0.0
C1011 C 0.96144 0.23602 0.29315 0.0
C1012 C 0.96789 0.24024 0.31441 0.0
C1013 C 0.94683 0.21619 0.28778 0.0
C1014 C 0.93903 0.19976 0.30351 0.0
C1015 C 0.94605 0.20384 0.3247 0.0
C1016 C 0.96009 0.22393 0.3301 0.0
C1017 C 0.92292 0.17882 0.29825 0.0
C1018 C 0.90252 0.17462 0.31108 0.0
C1019 C 0.92739 0.16302 0.28092 0.0
C1020 C 0.94962 0.16483 0.26788 0.0
C1021 C 0.97247 0.16411 0.27755 0.0
C1022 C 0.99336 0.16589 0.26519 0.0
C1023 C 0.99163 0.16822 0.24312 0.0
C1024 C 0.96901 0.16869 0.23335 0.0
C1025 C 0.94806 0.16692 0.24564 0.0
H1026 H 1.00782 0.1696 0.23358 0.0
H1027 H 0.81251 0.1355 0.3593 0.0
H1028 H 0.87819 1.00004 0.29652 0.0
H1029 H 0.91646 0.97903 0.29073 0.0
H1030 H 0.88743 0.91554 0.32136 0.0
H1031 H 0.84991 0.93662 0.32804 0.0
H1032 H 0.93149 0.92062 0.33321 0.0
H1033 H 0.89025 0.92232 0.26575 0.0
H1034 H 0.87052 0.94162 0.235 0.0
H1035 H 0.93581 0.98023 0.22066 0.0
H1036 H 0.95584 0.96136 0.2515 0.0
H1037 H 0.99992 0.8332 0.26222 0.0
H1038 H 0.96912 0.86452 0.26482 0.0
H1039 H 0.01322 0.90338 0.3098 0.0
H1040 H 0.04396 0.87202 0.30748 0.0
H1041 H 0.96378 0.91308 0.25991 0.0
H1042 H 0.97781 0.92093 0.35051 0.0
H1043 H 0.99515 0.89682 0.37979 0.0
H1044 H 0.97872 0.83147 0.34605 0.0
H1045 H 0.96102 0.85514 0.31676 0.0
C1046 C 0.88008 0.98174 0.30229 0.0
C1047 C 0.86072 0.96998 0.3125 0.0
C1048 C 0.90193 0.96964 0.29879 0.0
C1049 C 0.90479 0.9455 0.3053 0.0
C1050 C 0.88575 0.93409 0.31609 0.0
C1051 C 0.86409 0.94615 0.31969 0.0
C1052 C 0.92718 0.93164 0.30053 0.0
C1053 C 0.93863 0.91923 0.3172 0.0
C1054 C 0.93642 0.92935 0.2796 0.0
C1055 C 0.92444 0.94066 0.26105 0.0
C1056 C 0.90033 0.93506 0.25612 0.0
C1057 C 0.88911 0.9459 0.23867 0.0
C1058 C 0.90188 0.9622 0.22592 0.0
C1059 C 0.92593 0.96764 0.23057 0.0
C1060 C 0.93722 0.95687 0.24803 0.0
C1061 C 1.00336 0.8487 0.27226 0.0
C1062 C 0.02422 0.84988 0.28494 0.0
C1063 C 0.98571 0.86664 0.27371 0.0
C1064 C 0.98863 0.88606 0.28783 0.0
C1065 C 1.01038 0.88833 0.29909 0.0
C1066 C 0.02794 0.87037 0.29774 0.0
C1067 C 0.96795 0.90224 0.29258 0.0
C1068 C 0.95685 0.91495 0.27596 0.0
C1069 C 0.95854 0.90425 0.31344 0.0
C1070 C 0.96832 0.88984 0.33137 0.0
C1071 C 0.97778 0.90142 0.34942 0.0
C1072 C 0.9877 0.88783 0.36599 0.0
C1073 C 0.98811 0.86264 0.36474 0.0
C1074 C 0.97848 0.85098 0.34697 0.0
C1075 C 0.9685 0.86447 0.33039 0.0
H1076 H 0.99581 0.85215 0.37755 0.0
H1077 H 0.89316 0.97056 0.21241 0.0
H1078 H 0.26932 0.01244 0.24855 0.0
H1079 H 0.23927 0.97977 0.25048 0.0
H1080 H 0.22302 0.99948 0.31515 0.0
H1081 H 0.25224 0.03224 0.3133 0.0
H1082 H 0.24105 0.9476 0.30399 0.0
H1083 H 0.18219 1.01042 0.28822 0.0
H1084 H 0.16525 0.04282 0.26592 0.0
H1085 H 0.15752 0.99324 0.21391 0.0
H1086 H 0.17478 0.96061 0.23584 0.0
H1087 H 0.14976 0.87477 0.3448 0.0
H1088 H 0.17461 0.90902 0.33397 0.0
H1089 H 0.15791 0.89463 0.26818 0.0
H1090 H 0.13243 0.86041 0.27911 0.0
H1091 H 0.15815 0.94187 0.27475 0.0
H1092 H 0.21275 0.87832 0.28961 0.0
H1093 H 0.23098 0.84491 0.30985 0.0
H1094 H 0.24937 0.89376 0.36032 0.0
H1095 H 0.23093 0.92743 0.34052 0.0
C1096 C 0.25893 1.01019 0.263 0.0
C1097 C 0.26337 0.02496 0.28081 0.0
C1098 C 0.2418 0.99151 0.26407 0.0
C1099 C 0.22906 0.98723 0.28299 0.0
C1100 C 0.23269 1.00254 0.3004 0.0
C1101 C 0.24942 0.02135 0.29926 0.0
C1102 C 0.21374 0.96548 0.2856 0.0
C1103 C 0.22286 0.94635 0.29773 0.0
C1104 C 0.19044 0.96358 0.27671 0.0
C1105 C 0.1801 0.98318 0.26356 0.0
C1106 C 0.17716 1.0065 0.27195 0.0
C1107 C 0.16743 0.02489 0.2594 0.0
C1108 C 0.1604 0.02012 0.23848 0.0
C1109 C 0.16302 0.99692 0.2301 0.0
C1110 C 0.17277 0.97848 0.24258 0.0
C1111 C 0.15146 0.8788 0.32802 0.0
C1112 C 0.1394 0.86469 0.31279 0.0
C1113 C 0.16569 0.89841 0.32182 0.0
C1114 C 0.16863 0.90413 0.3002 0.0
C1115 C 0.15604 0.89052 0.28494 0.0
C1116 C 0.1415 0.87099 0.29119 0.0
C1117 C 0.18516 0.92413 0.2938 0.0
C1118 C 0.1764 0.94289 0.28088 0.0
C1119 C 0.20907 0.92555 0.30167 0.0
C1120 C 0.22029 0.90537 0.31363 0.0
C1121 C 0.22053 0.88192 0.30509 0.0
C1122 C 0.23093 0.86293 0.31648 0.0
C1123 C 0.24129 0.8672 0.33637 0.0
C1124 C 0.24132 0.89048 0.34491 0.0
C1125 C 0.23093 0.90953 0.3336 0.0
H1126 H 0.24933 0.85248 0.34516 0.0
H1127 H 0.15285 0.03437 0.22879 0.0
H1128 H 0.26457 0.94311 0.70565 0.0
H1129 H 0.22777 0.92019 0.71291 0.0
H1130 H 0.18512 0.97878 0.68816 0.0
H1131 H 0.22236 1.0021 0.68125 0.0
H1132 H 0.16223 0.95283 0.72303 0.0
H1133 H 0.19823 0.93661 0.65528 0.0
H1134 H 0.23175 0.92735 0.6309 0.0
H1135 H 0.24404 0.86041 0.66356 0.0
H1136 H 0.21084 0.86947 0.68838 0.0
H1137 H 0.06596 0.86791 0.69412 0.0
H1138 H 0.09488 0.90129 0.69853 0.0
H1139 H 0.15043 0.85007 0.71452 0.0
H1140 H 0.12192 0.81695 0.70937 0.0
H1141 H 0.16382 0.87638 0.68206 0.0
H1142 H 0.12781 0.89315 0.75045 0.0
H1143 H 0.09431 0.90285 0.77473 0.0
H1144 H 0.08102 0.96848 0.74035 0.0
H1145 H 0.11425 0.95901 0.71568 0.0
C1146 C 0.24731 0.95133 0.70226 0.0
C1147 C 0.24625 0.97423 0.69272 0.0
C1148 C 0.22629 0.93825 0.7064 0.0
C1149 C 0.20368 0.94756 0.70073 0.0
C1150 C 0.20237 0.97122 0.69266 0.0
C1151 C 0.22357 0.98453 0.68872 0.0
C1152 C 0.18226 0.93121 0.7008 0.0
C1153 C 0.16236 0.93625 0.71389 0.0
C1154 C 0.18243 0.90952 0.68893 0.0
C1155 C 0.20215 0.90381 0.67378 0.0
C1156 C 0.20817 0.91999 0.65735 0.0
C1157 C 0.22712 0.91477 0.64344 0.0
C1158 C 0.24005 0.89333 0.6457 0.0
C1159 C 0.23402 0.87702 0.66184 0.0
C1160 C 0.21513 0.88218 0.67582 0.0
C1161 C 0.0841 0.86395 0.6994 0.0
C1162 C 0.09175 0.83989 0.70148 0.0
C1163 C 0.10068 0.88303 0.70183 0.0
C1164 C 0.12499 0.87825 0.70668 0.0
C1165 C 0.1319 0.85428 0.71058 0.0
C1166 C 0.11554 0.83534 0.70784 0.0
C1167 C 0.14402 0.89732 0.705 0.0
C1168 C 0.16351 0.89291 0.69129 0.0
C1169 C 0.14325 0.9195 0.71621 0.0
C1170 C 0.12335 0.92524 0.73108 0.0
C1171 C 0.11761 0.90955 0.74795 0.0
C1172 C 0.0987 0.91503 0.76181 0.0
C1173 C 0.0855 0.93623 0.75905 0.0
C1174 C 0.09123 0.95204 0.74246 0.0
C1175 C 0.11012 0.94664 0.72854 0.0
H1176 H 0.07086 0.94044 0.76979 0.0
H1177 H 0.25471 0.88932 0.63493 0.0
H1178 H 0.18208 0.27231 0.69336 0.0
H1179 H 0.20639 0.23617 0.6987 0.0
H1180 H 0.14247 0.19184 0.69454 0.0
H1181 H 0.11792 0.22821 0.6895 0.0
H1182 H 0.17358 0.17403 0.72432 0.0
H1183 H 0.17798 0.19797 0.65167 0.0
H1184 H 0.18366 0.22591 0.62152 0.0
H1185 H 0.25667 0.23919 0.64108 0.0
H1186 H 0.25131 0.2116 0.67155 0.0
H1187 H 0.24962 0.07085 0.69274 0.0
H1188 H 0.21768 0.10096 0.69843 0.0
H1189 H 0.27184 0.15612 0.70731 0.0
H1190 H 0.30344 0.1264 0.7014 0.0
H1191 H 0.24148 0.16497 0.67364 0.0
H1192 H 0.23543 0.1403 0.74742 0.0
H1193 H 0.22854 0.11103 0.77637 0.0
H1194 H 0.15735 0.09665 0.75263 0.0
H1195 H 0.16395 0.12561 0.72334 0.0
C1196 C 0.17319 0.25489 0.69364 0.0
C1197 C 0.14815 0.25308 0.6907 0.0
C1198 C 0.18708 0.23423 0.69676 0.0
C1199 C 0.17633 0.21122 0.69661 0.0
C1200 C 0.15117 0.20938 0.69466 0.0
C1201 C 0.13717 0.23015 0.69176 0.0
C1202 C 0.19173 0.1893 0.69711 0.0
C1203 C 0.18825 0.17185 0.71309 0.0
C1204 C 0.21081 0.18635 0.6824 0.0
C1205 C 0.21418 0.20285 0.66399 0.0
C1206 C 0.1952 0.20697 0.64963 0.0
C1207 C 0.19836 0.22273 0.63247 0.0
C1208 C 0.22049 0.23435 0.62941 0.0
C1209 C 0.23953 0.23019 0.64348 0.0
C1210 C 0.23644 0.21447 0.66068 0.0
C1211 C 0.25459 0.08921 0.6968 0.0
C1212 C 0.27891 0.09642 0.69659 0.0
C1213 C 0.23638 0.10641 0.69993 0.0
C1214 C 0.24241 0.13084 0.70305 0.0
C1215 C 0.26677 0.13743 0.70477 0.0
C1216 C 0.28481 0.12042 0.70151 0.0
C1217 C 0.22405 0.15021 0.70139 0.0
C1218 C 0.22681 0.16708 0.6849 0.0
C1219 C 0.20424 0.15229 0.71543 0.0
C1220 C 0.20029 0.13492 0.73304 0.0
C1221 C 0.21839 0.13072 0.74824 0.0
C1222 C 0.21452 0.11423 0.76475 0.0
C1223 C 0.19255 0.10193 0.7663 0.0
C1224 C 0.17438 0.10615 0.75139 0.0
C1225 C 0.17817 0.12262 0.73484 0.0
H1226 H 0.18958 0.08917 0.77909 0.0
H1227 H 0.22291 0.24655 0.61611 0.0
H1228 H 0.88666 0.11731 0.67923 0.0
H1229 H 0.92466 0.13911 0.68573 0.0
H1230 H 0.88546 0.19454 0.71913 0.0
H1231 H 0.84775 0.17322 0.71212 0.0
H1232 H 0.91379 0.21493 0.69239 0.0
H1233 H 0.92386 0.15165 0.74418 0.0
H1234 H 0.9265 0.10954 0.75674 0.0
H1235 H 0.9867 0.09723 0.71527 0.0
H1236 H 0.98423 0.13919 0.70224 0.0
H1237 H 1.00612 0.28168 0.74016 0.0
H1238 H 0.97436 0.25114 0.73784 0.0
H1239 H 0.01629 0.21148 0.69206 0.0
H1240 H 0.04824 0.24212 0.69415 0.0
H1241 H 0.98896 0.18166 0.72328 0.0
H1242 H 0.97853 0.24569 0.67219 0.0
H1243 H 0.97604 0.28823 0.66086 0.0
H1244 H 0.91575 0.29912 0.70256 0.0
H1245 H 0.91817 0.25672 0.71444 0.0
C1246 C 0.88633 0.13395 0.68823 0.0
C1247 C 0.86427 0.14368 0.69502 0.0
C1248 C 0.90803 0.14642 0.69198 0.0
C1249 C 0.90805 0.16858 0.70296 0.0
C1250 C 0.88603 0.17767 0.71045 0.0
C1251 C 0.86445 0.16545 0.70646 0.0
C1252 C 0.93053 0.18323 0.70567 0.0
C1253 C 0.93006 0.2076 0.69941 0.0
C1254 C 0.95216 0.17369 0.71423 0.0
C1255 C 0.95369 0.14849 0.72207 0.0
C1256 C 0.93754 0.13991 0.73761 0.0
C1257 C 0.93902 0.11608 0.74484 0.0
C1258 C 0.95671 0.10072 0.73676 0.0
C1259 C 0.97299 0.10915 0.72148 0.0
C1260 C 0.97156 0.13296 0.71418 0.0
C1261 C 1.00894 0.26619 0.72997 0.0
C1262 C 0.02967 0.26451 0.71718 0.0
C1263 C 0.9907 0.24876 0.72863 0.0
C1264 C 0.99286 0.22917 0.71462 0.0
C1265 C 0.01426 0.22645 0.70297 0.0
C1266 C 0.03245 0.24405 0.70413 0.0
C1267 C 0.97174 0.21324 0.7105 0.0
C1268 C 0.97257 0.18877 0.71631 0.0
C1269 C 0.95031 0.22264 0.70163 0.0
C1270 C 0.94867 0.24808 0.69435 0.0
C1271 C 0.96487 0.2572 0.67908 0.0
C1272 C 0.96346 0.28129 0.67254 0.0
C1273 C 0.94575 0.29637 0.681 0.0
C1274 C 0.92945 0.28741 0.69603 0.0
C1275 C 0.93083 0.26335 0.70266 0.0
H1276 H 0.94462 0.31499 0.67588 0.0
H1277 H 0.95786 0.0823 0.74239 0.0
H1278 H 0.94063 0.85074 0.71344 0.0
H1279 H 0.91883 0.88833 0.71927 0.0
H1280 H 0.97633 0.9282 0.68905 0.0
H1281 H 0.9985 0.8902 0.68337 0.0
H1282 H 0.95272 0.95367 0.7245 0.0
H1283 H 0.93288 0.91417 0.65896 0.0
H1284 H 0.92209 0.87938 0.63642 0.0
H1285 H 0.85678 0.86917 0.67204 0.0
H1286 H 0.86739 0.90368 0.69503 0.0
H1287 H 0.86744 0.04807 0.69246 0.0
H1288 H 0.90084 0.0197 0.69806 0.0
H1289 H 0.85018 0.96575 0.71979 0.0
H1290 H 0.817 0.99367 0.71354 0.0
H1291 H 0.87449 0.95035 0.68637 0.0
H1292 H 0.89469 0.99002 0.75235 0.0
H1293 H 0.90584 0.0247 0.77487 0.0
H1294 H 0.97014 0.03563 0.738 0.0
H1295 H 0.95919 1.0012 0.71505 0.0
C1296 C 0.94883 0.86755 0.70837 0.0
C1297 C 0.97105 0.86755 0.69764 0.0
C1298 C 0.93642 0.88904 0.71179 0.0
C1299 C 0.94575 0.91104 0.7043 0.0
C1300 C 0.96879 0.91142 0.69496 0.0
C1301 C 0.98142 0.88976 0.69169 0.0
C1302 C 0.92986 0.93263 0.70391 0.0
C1303 C 0.93575 0.95318 0.71595 0.0
C1304 C 0.90768 0.93193 0.69283 0.0
C1305 C 0.90103 0.9114 0.67881 0.0
C1306 C 0.9163 0.90441 0.66207 0.0
C1307 C 0.91021 0.88475 0.64921 0.0
C1308 C 0.88878 0.87204 0.65283 0.0
C1309 C 0.87338 0.87902 0.66927 0.0
C1310 C 0.87941 0.89864 0.68221 0.0
C1311 C 0.86365 0.03051 0.69932 0.0
C1312 C 0.83971 0.023 0.70267 0.0
C1313 C 0.88273 0.01425 0.70242 0.0
C1314 C 0.87803 0.99044 0.70914 0.0
C1315 C 0.85428 0.98391 0.71443 0.0
C1316 C 0.83533 0.99994 0.71106 0.0
C1317 C 0.89672 0.97122 0.70768 0.0
C1318 C 0.89144 0.95106 0.69497 0.0
C1319 C 0.91938 0.97251 0.71805 0.0
C1320 C 0.92598 0.99319 0.73183 0.0
C1321 C 0.91109 0.99995 0.74891 0.0
C1322 C 0.9174 0.01954 0.76178 0.0
C1323 C 0.93865 0.0324 0.75783 0.0
C1324 C 0.95366 0.02567 0.74102 0.0
C1325 C 0.94742 1.00611 0.72809 0.0
H1326 H 0.94351 0.04754 0.76784 0.0
H1327 H 0.8841 0.85682 0.64285 0.0
H1328 H 0.59574 0.77612 0.7512 0.0
H1329 H 0.62969 0.74777 0.75307 0.0
H1330 H 0.60718 0.72593 0.81582 0.0
H1331 H 0.57296 0.75328 0.81384 0.0
H1332 H 0.65707 0.74483 0.81096 0.0
H1333 H 0.60002 0.68739 0.78104 0.0
H1334 H 0.57156 0.67307 0.75367 0.0
H1335 H 0.62777 0.67572 0.70674 0.0
H1336 H 0.65649 0.69042 0.7338 0.0
H1337 H 0.7337 0.653 0.8443 0.0
H1338 H 0.69858 0.67714 0.8348 0.0
H1339 H 0.71752 0.67134 0.7684 0.0
H1340 H 0.75215 0.64599 0.77802 0.0
H1341 H 0.67137 0.66887 0.77128 0.0
H1342 H 0.72908 0.72403 0.79919 0.0
H1343 H 0.75877 0.74028 0.82465 0.0
H1344 H 0.70374 0.74549 0.87245 0.0
H1345 H 0.67377 0.72895 0.84737 0.0
C1346 C 0.59773 0.76488 0.76519 0.0
C1347 C 0.58191 0.76735 0.78256 0.0
C1348 C 0.61715 0.74876 0.76624 0.0
C1349 C 0.62104 0.735 0.78469 0.0
C1350 C 0.6046 0.73657 0.80154 0.0
C1351 C 0.58511 0.75234 0.80039 0.0
C1352 C 0.64317 0.72039 0.78739 0.0
C1353 C 0.66016 0.72811 0.80242 0.0
C1354 C 0.64757 0.69916 0.7756 0.0
C1355 C 0.63032 0.6903 0.75938 0.0
C1356 C 0.60625 0.68518 0.76484 0.0
C1357 C 0.59009 0.67693 0.74939 0.0
C1358 C 0.59783 0.67357 0.72846 0.0
C1359 C 0.62178 0.67838 0.72295 0.0
C1360 C 0.63801 0.68666 0.73834 0.0
C1361 C 0.73036 0.65695 0.8277 0.0
C1362 C 0.74575 0.64794 0.8119 0.0
C1363 C 0.71033 0.67082 0.82224 0.0
C1364 C 0.70567 0.67673 0.80088 0.0
C1365 C 0.72075 0.66722 0.785 0.0
C1366 C 0.74053 0.6528 0.79046 0.0
C1367 C 0.68518 0.69295 0.79536 0.0
C1368 C 0.66852 0.68567 0.77974 0.0
C1369 C 0.68128 0.71497 0.80631 0.0
C1370 C 0.69921 0.72508 0.82143 0.0
C1371 C 0.72334 0.72851 0.81517 0.0
C1372 C 0.74021 0.73779 0.82953 0.0
C1373 C 0.73315 0.74387 0.85017 0.0
C1374 C 0.70918 0.74075 0.85646 0.0
C1375 C 0.69224 0.73146 0.84217 0.0
H1376 H 0.74625 0.75105 0.86126 0.0
H1377 H 0.5853 0.66717 0.71653 0.0
H1378 H 0.44372 0.75051 0.83008 0.0
H1379 H 0.42356 0.71165 0.82425 0.0
H1380 H 0.47402 0.69514 0.77425 0.0
H1381 H 0.49469 0.73402 0.78043 0.0
H1382 H 0.41836 0.69039 0.76599 0.0
H1383 H 0.48334 0.66449 0.81192 0.0
H1384 H 0.50879 0.66735 0.84396 0.0
H1385 H 0.44638 0.65805 0.88359 0.0
H1386 H 0.4205 0.65552 0.85177 0.0
H1387 H 0.36147 0.57488 0.75555 0.0
H1388 H 0.39224 0.60682 0.75671 0.0
H1389 H 0.37454 0.62055 0.82244 0.0
H1390 H 0.34499 0.58818 0.82166 0.0
H1391 H 0.41936 0.6244 0.81936 0.0
H1392 H 0.3538 0.65638 0.77807 0.0
H1393 H 0.32447 0.65747 0.74861 0.0
H1394 H 0.38243 0.65944 0.70334 0.0
H1395 H 0.41211 0.65811 0.73256 0.0
C1396 C 0.45058 0.73853 0.81793 0.0
C1397 C 0.47073 0.74524 0.80569 0.0
C1398 C 0.43909 0.71636 0.81463 0.0
C1399 C 0.44726 0.70058 0.79879 0.0
C1400 C 0.46745 0.70711 0.78654 0.0
C1401 C 0.47931 0.72916 0.79016 0.0
C1402 C 0.43422 0.67752 0.79505 0.0
C1403 C 0.41894 0.67565 0.77735 0.0
C1404 C 0.43438 0.65877 0.8103 0.0
C1405 C 0.44997 0.66 0.82945 0.0
C1406 C 0.47502 0.66326 0.82746 0.0
C1407 C 0.48953 0.66478 0.84559 0.0
C1408 C 0.47921 0.66293 0.8658 0.0
C1409 C 0.45435 0.65949 0.86792 0.0
C1410 C 0.43976 0.65798 0.84985 0.0
C1411 C 0.36434 0.58461 0.77027 0.0
C1412 C 0.35071 0.57895 0.78848 0.0
C1413 C 0.38183 0.603 0.7709 0.0
C1414 C 0.38559 0.6165 0.78959 0.0
C1415 C 0.37222 0.61048 0.80782 0.0
C1416 C 0.35517 0.5919 0.80732 0.0
C1417 C 0.40294 0.63722 0.79039 0.0
C1418 C 0.41901 0.63879 0.80765 0.0
C1419 C 0.40293 0.65604 0.77505 0.0
C1420 C 0.38515 0.65684 0.75747 0.0
C1421 C 0.36028 0.65687 0.76182 0.0
C1422 C 0.34359 0.65757 0.74518 0.0
C1423 C 0.35158 0.65844 0.72411 0.0
C1424 C 0.37627 0.6587 0.71966 0.0
C1425 C 0.39303 0.658 0.73626 0.0
H1426 H 0.33864 0.65897 0.71125 0.0
H1427 H 0.49047 0.66412 0.87981 0.0
H1428 H 0.54113 0.36001 0.80245 0.0
H1429 H 0.51312 0.39351 0.79598 0.0
H1430 H 0.45446 0.34266 0.78973 0.0
H1431 H 0.48221 0.30939 0.79618 0.0
H1432 H 0.4486 0.38057 0.76278 0.0
H1433 H 0.46611 0.36752 0.83746 0.0
H1434 H 0.49268 0.3642 0.86874 0.0
H1435 H 0.51841 0.43645 0.85819 0.0
H1436 H 0.49199 0.44013 0.82674 0.0
H1437 H 0.34238 0.43024 0.80533 0.0
H1438 H 0.37889 0.40739 0.79742 0.0
H1439 H 0.42132 0.47253 0.80236 0.0
H1440 H 0.38463 0.49556 0.8104 0.0
H1441 H 0.44032 0.43407 0.82559 0.0
H1442 H 0.41387 0.44862 0.75474 0.0
H1443 H 0.38482 0.4503 0.72512 0.0
H1444 H 0.3741 0.37364 0.72931 0.0
H1445 H 0.40281 0.37153 0.75918 0.0
C1446 C 0.52242 0.35599 0.79894 0.0
C1447 C 0.51379 0.33212 0.79992 0.0
C1448 C 0.50639 0.37514 0.79544 0.0
C1449 C 0.48159 0.37063 0.79271 0.0
C1450 C 0.47345 0.34664 0.79184 0.0
C1451 C 0.48934 0.32762 0.79554 0.0
C1452 C 0.46357 0.39049 0.79313 0.0
C1453 C 0.44683 0.39234 0.77647 0.0
C1454 C 0.46143 0.40614 0.81082 0.0
C1455 C 0.47734 0.40399 0.82964 0.0
C1456 C 0.47758 0.38262 0.84173 0.0
C1457 C 0.49257 0.38069 0.8595 0.0
C1458 C 0.50732 0.40006 0.8654 0.0
C1459 C 0.50703 0.42144 0.85357 0.0
C1460 C 0.49202 0.42347 0.83579 0.0
C1461 C 0.35946 0.43972 0.80468 0.0
C1462 C 0.36062 0.46469 0.80855 0.0
C1463 C 0.38031 0.42668 0.79998 0.0
C1464 C 0.40285 0.43827 0.79911 0.0
C1465 C 0.40411 0.46325 0.80283 0.0
C1466 C 0.38314 0.47639 0.8073 0.0
C1467 C 0.42504 0.42383 0.79542 0.0
C1468 C 0.44247 0.42287 0.81157 0.0
C1469 C 0.42762 0.40883 0.77735 0.0
C1470 C 0.41042 0.40995 0.7593 0.0
C1471 C 0.4052 0.43214 0.74945 0.0
C1472 C 0.38881 0.43316 0.7326 0.0
C1473 C 0.3776 0.41209 0.72536 0.0
C1474 C 0.38279 0.38994 0.73494 0.0
C1475 C 0.39916 0.38882 0.75181 0.0
H1476 H 0.36491 0.41292 0.71231 0.0
H1477 H 0.51892 0.39854 0.87917 0.0
H1478 H 0.75853 0.52367 0.75162 0.0
H1479 H 0.72745 0.49187 0.75234 0.0
H1480 H 0.71589 0.50501 0.81908 0.0
H1481 H 0.74623 0.53679 0.81849 0.0
H1482 H 0.72887 0.45528 0.8062 0.0
H1483 H 0.6742 0.52099 0.79039 0.0
H1484 H 0.65906 0.5549 0.76885 0.0
H1485 H 0.649 0.5074 0.71564 0.0
H1486 H 0.66445 0.47325 0.73681 0.0
H1487 H 0.63336 0.39049 0.84617 0.0
H1488 H 0.65658 0.42527 0.8339 0.0
H1489 H 0.64872 0.40134 0.76904 0.0
H1490 H 0.62522 0.3661 0.78145 0.0
H1491 H 0.64682 0.45384 0.77471 0.0
H1492 H 0.69807 0.38748 0.79072 0.0
H1493 H 0.71319 0.35318 0.81178 0.0
H1494 H 0.73104 0.40111 0.86307 0.0
H1495 H 0.71563 0.43568 0.84245 0.0
C1496 C 0.749 0.52012 0.76634 0.0
C1497 C 0.75498 0.53285 0.78501 0.0
C1498 C 0.73126 0.50195 0.76671 0.0
C1499 C 0.71945 0.49606 0.78579 0.0
C1500 C 0.72478 0.50929 0.80419 0.0
C1501 C 0.74214 0.52759 0.80377 0.0
C1502 C 0.70311 0.47482 0.78735 0.0
C1503 C 0.71091 0.455 0.79936 0.0
C1504 C 0.68002 0.47413 0.7778 0.0
C1505 C 0.67082 0.49465 0.76508 0.0
C1506 C 0.66905 0.51783 0.77402 0.0
C1507 C 0.66033 0.53708 0.7619 0.0
C1508 C 0.65316 0.53333 0.74086 0.0
C1509 C 0.65462 0.5103 0.73192 0.0
C1510 C 0.66334 0.49099 0.74397 0.0
C1511 C 0.6363 0.39276 0.82927 0.0
C1512 C 0.62783 0.37538 0.8148 0.0
C1513 C 0.64951 0.41269 0.82226 0.0
C1514 C 0.65477 0.41568 0.8006 0.0
C1515 C 0.64493 0.39932 0.78585 0.0
C1516 C 0.6315 0.37925 0.79292 0.0
C1517 C 0.67238 0.43464 0.79411 0.0
C1518 C 0.66493 0.45395 0.78121 0.0
C1519 C 0.69601 0.43484 0.80265 0.0
C1520 C 0.70553 0.41415 0.81508 0.0
C1521 C 0.70505 0.39069 0.80655 0.0
C1522 C 0.71369 0.3712 0.81841 0.0
C1523 C 0.72303 0.37496 0.83877 0.0
C1524 C 0.72379 0.39823 0.8473 0.0
C1525 C 0.71512 0.41778 0.83552 0.0
H1526 H 0.72972 0.35984 0.84792 0.0
H1527 H 0.6464 0.54826 0.7315 0.0
H1528 H 0.55957 0.37178 0.19954 0.0
H1529 H 0.58554 0.40712 0.20608 0.0
H1530 H 0.64453 0.35981 0.22179 0.0
H1531 H 0.61885 0.3248 0.21508 0.0
H1532 H 0.64607 0.40199 0.24523 0.0
H1533 H 0.63535 0.37614 0.17148 0.0
H1534 H 0.61004 0.36783 0.14005 0.0
H1535 H 0.5859 0.44139 0.1398 0.0
H1536 H 0.61072 0.44999 0.17153 0.0
H1537 H 0.75789 0.4356 0.20465 0.0
H1538 H 0.71876 0.41826 0.21369 0.0
H1539 H 0.68381 0.484 0.19397 0.0
H1540 H 0.72338 0.50152 0.18472 0.0
H1541 H 0.66272 0.44298 0.17653 0.0
H1542 H 0.68339 0.47023 0.24553 0.0
H1543 H 0.70935 0.477 0.27678 0.0
H1544 H 0.71558 0.40047 0.286 0.0
H1545 H 0.68996 0.3932 0.25461 0.0
C1546 C 0.57776 0.36904 0.2053 0.0
C1547 C 0.5873 0.34565 0.20683 0.0
C1548 C 0.59263 0.3892 0.20886 0.0
C1549 C 0.61709 0.38609 0.21413 0.0
C1550 C 0.62577 0.36269 0.21776 0.0
C1551 C 0.61108 0.34267 0.21394 0.0
C1552 C 0.63475 0.40631 0.21275 0.0
C1553 C 0.64962 0.41114 0.23029 0.0
C1554 C 0.63906 0.41864 0.19335 0.0
C1555 C 0.62464 0.41363 0.174 0.0
C1556 C 0.62453 0.3905 0.16479 0.0
C1557 C 0.61028 0.38573 0.14693 0.0
C1558 C 0.59633 0.40406 0.13797 0.0
C1559 C 0.59667 0.4272 0.1468 0.0
C1560 C 0.6108 0.43203 0.16473 0.0
C1561 C 0.74191 0.44644 0.20234 0.0
C1562 C 0.74369 0.46986 0.19385 0.0
C1563 C 0.71954 0.43659 0.2077 0.0
C1564 C 0.69831 0.44988 0.2047 0.0
C1565 C 0.69997 0.47347 0.19653 0.0
C1566 C 0.72253 0.4835 0.19136 0.0
C1567 C 0.67459 0.4381 0.20886 0.0
C1568 C 0.65869 0.43466 0.19175 0.0
C1569 C 0.66943 0.42695 0.22864 0.0
C1570 C 0.68478 0.43118 0.24764 0.0
C1571 C 0.69041 0.45483 0.25414 0.0
C1572 C 0.70506 0.45876 0.27189 0.0
C1573 C 0.71412 0.43918 0.28336 0.0
C1574 C 0.70853 0.41562 0.27711 0.0
C1575 C 0.6939 0.41159 0.25936 0.0
H1576 H 0.72546 0.44226 0.2971 0.0
H1577 H 0.58531 0.40034 0.12414 0.0
H1578 H 0.75245 0.55779 0.20521 0.0
H1579 H 0.71817 0.58389 0.21416 0.0
H1580 H 0.76458 0.64642 0.21006 0.0
H1581 H 0.7986 0.62058 0.20159 0.0
H1582 H 0.73172 0.6538 0.23964 0.0
H1583 H 0.73242 0.62535 0.16647 0.0
H1584 H 0.73211 0.59351 0.13908 0.0
H1585 H 0.66451 0.56692 0.163 0.0
H1586 H 0.66458 0.59851 0.1907 0.0
H1587 H 0.67643 0.74962 0.18604 0.0
H1588 H 0.69947 0.71486 0.19857 0.0
H1589 H 0.63326 0.67577 0.20978 0.0
H1590 H 0.61004 0.71111 0.19742 0.0
H1591 H 0.66807 0.65075 0.18428 0.0
H1592 H 0.66473 0.68988 0.25161 0.0
H1593 H 0.66744 0.72425 0.27637 0.0
H1594 H 0.74237 0.73336 0.26107 0.0
H1595 H 0.74005 0.69927 0.23598 0.0
C1596 C 0.75544 0.577 0.20697 0.0
C1597 C 0.77814 0.58718 0.2025 0.0
C1598 C 0.73581 0.59195 0.2119 0.0
C1599 C 0.73864 0.61723 0.21237 0.0
C1600 C 0.7618 0.62705 0.20974 0.0
C1601 C 0.78128 0.61223 0.20481 0.0
C1602 C 0.71758 0.63388 0.21301 0.0
C1603 C 0.71769 0.65303 0.22765 0.0
C1604 C 0.69896 0.63274 0.1976 0.0
C1605 C 0.69864 0.61406 0.18077 0.0
C1606 C 0.71755 0.61263 0.16593 0.0
C1607 C 0.71743 0.59463 0.15037 0.0
C1608 C 0.69835 0.57813 0.14935 0.0
C1609 C 0.6793 0.57967 0.16385 0.0
C1610 C 0.67937 0.59762 0.17947 0.0
C1611 C 0.66682 0.73376 0.19157 0.0
C1612 C 0.64154 0.73296 0.19085 0.0
C1613 C 0.67995 0.71394 0.19878 0.0
C1614 C 0.66811 0.69273 0.20522 0.0
C1615 C 0.64275 0.69201 0.20498 0.0
C1616 C 0.62952 0.71215 0.19808 0.0
C1617 C 0.68268 0.67103 0.21051 0.0
C1618 C 0.68148 0.65104 0.19684 0.0
C1619 C 0.70058 0.67166 0.22654 0.0
C1620 C 0.70218 0.69202 0.24184 0.0
C1621 C 0.68176 0.69928 0.25343 0.0
C1622 C 0.68323 0.71872 0.26754 0.0
C1623 C 0.70506 0.731 0.27028 0.0
C1624 C 0.72548 0.72382 0.25895 0.0
C1625 C 0.7241 0.70441 0.24481 0.0
H1626 H 0.70615 0.74605 0.28119 0.0
H1627 H 0.6983 0.56419 0.13731 0.0
H1628 H 0.48994 0.79472 0.19749 0.0
H1629 H 0.46138 0.76216 0.20478 0.0
H1630 H 0.51956 0.71072 0.20472 0.0
H1631 H 0.54848 0.74363 0.19756 0.0
H1632 H 0.48158 0.69773 0.17782 0.0
H1633 H 0.49062 0.72031 0.2502 0.0
H1634 H 0.49335 0.7481 0.2807 0.0
H1635 H 0.42092 0.77187 0.26925 0.0
H1636 H 0.41785 0.74448 0.23848 0.0
H1637 H 0.38456 0.61253 0.19079 0.0
H1638 H 0.42288 0.63341 0.1981 0.0
H1639 H 0.3846 0.70053 0.20551 0.0
H1640 H 0.34663 0.67978 0.19902 0.0
H1641 H 0.41885 0.69831 0.23404 0.0
H1642 H 0.41339 0.68355 0.15797 0.0
H1643 H 0.41012 0.65782 0.12609 0.0
H1644 H 0.47526 0.62116 0.14359 0.0
H1645 H 0.47873 0.64651 0.17572 0.0
C1646 C 0.49676 0.77656 0.19956 0.0
C1647 C 0.52144 0.77173 0.19707 0.0
C1648 C 0.4804 0.75794 0.20375 0.0
C1649 C 0.48827 0.73395 0.20539 0.0
C1650 C 0.51308 0.7291 0.20361 0.0
C1651 C 0.5296 0.74791 0.19972 0.0
C1652 C 0.47009 0.71414 0.20712 0.0
C1653 C 0.46824 0.69741 0.19043 0.0
C1654 C 0.45239 0.71396 0.22335 0.0
C1655 C 0.45406 0.73038 0.24195 0.0
C1656 C 0.47532 0.73157 0.25409 0.0
C1657 C 0.47692 0.74724 0.27145 0.0
C1658 C 0.45733 0.76176 0.27689 0.0
C1659 C 0.43608 0.7606 0.26502 0.0
C1660 C 0.43439 0.74497 0.24763 0.0
C1661 C 0.38435 0.63164 0.19434 0.0
C1662 C 0.36253 0.64453 0.19399 0.0
C1663 C 0.40628 0.64362 0.19835 0.0
C1664 C 0.40677 0.6687 0.20205 0.0
C1665 C 0.38485 0.68125 0.20264 0.0
C1666 C 0.36309 0.66936 0.19868 0.0
C1667 C 0.42984 0.68248 0.20432 0.0
C1668 C 0.43257 0.69814 0.22174 0.0
C1669 C 0.44821 0.68185 0.18866 0.0
C1670 C 0.44614 0.66667 0.16936 0.0
C1671 C 0.42691 0.66987 0.15509 0.0
C1672 C 0.42503 0.65538 0.13697 0.0
C1673 C 0.44242 0.63781 0.13286 0.0
C1674 C 0.46177 0.63474 0.14683 0.0
C1675 C 0.4637 0.64915 0.16499 0.0
H1676 H 0.44095 0.62661 0.11882 0.0
H1677 H 0.45861 0.77388 0.29033 0.0
H1678 H 0.49835 0.39069 0.19144 0.0
H1679 H 0.47661 0.42884 0.19704 0.0
H1680 H 0.40956 0.38952 0.20105 0.0
H1681 H 0.43092 0.35174 0.19606 0.0
H1682 H 0.40823 0.42707 0.17177 0.0
H1683 H 0.43406 0.41253 0.24455 0.0
H1684 H 0.46447 0.40652 0.27263 0.0
H1685 H 0.49579 0.47567 0.25834 0.0
H1686 H 0.46573 0.48195 0.22996 0.0
H1687 H 0.31521 0.49132 0.21161 0.0
H1688 H 0.34995 0.46482 0.21529 0.0
H1689 H 0.39758 0.52437 0.20116 0.0
H1690 H 0.36252 0.55126 0.19758 0.0
H1691 H 0.41515 0.48312 0.23303 0.0
H1692 H 0.38791 0.49906 0.16167 0.0
H1693 H 0.35642 0.50559 0.13462 0.0
H1694 H 0.32866 0.43423 0.14578 0.0
H1695 H 0.35972 0.42746 0.17323 0.0
C1696 C 0.47904 0.39018 0.19386 0.0
C1697 C 0.46638 0.36809 0.19292 0.0
C1698 C 0.46663 0.412 0.197 0.0
C1699 C 0.4414 0.41206 0.19925 0.0
C1700 C 0.42896 0.38999 0.19907 0.0
C1701 C 0.44126 0.36834 0.19609 0.0
C1702 C 0.42734 0.43486 0.20079 0.0
C1703 C 0.40988 0.43933 0.18514 0.0
C1704 C 0.42986 0.45134 0.21789 0.0
C1705 C 0.44786 0.44757 0.23496 0.0
C1706 C 0.44757 0.42635 0.24726 0.0
C1707 C 0.46471 0.42292 0.26326 0.0
C1708 C 0.4821 0.44066 0.26722 0.0
C1709 C 0.48234 0.46192 0.25523 0.0
C1710 C 0.46525 0.46542 0.23919 0.0
C1711 C 0.33312 0.49904 0.21018 0.0
C1712 C 0.33617 0.5233 0.20425 0.0
C1713 C 0.35298 0.48386 0.21227 0.0
C1714 C 0.37632 0.49255 0.20826 0.0
C1715 C 0.37971 0.51734 0.20442 0.0
C1716 C 0.35968 0.5327 0.20245 0.0
C1717 C 0.39581 0.47477 0.20428 0.0
C1718 C 0.41407 0.47119 0.2194 0.0
C1719 C 0.3943 0.45913 0.18655 0.0
C1720 C 0.37603 0.46282 0.16961 0.0
C1721 C 0.37499 0.48482 0.15846 0.0
C1722 C 0.35723 0.48857 0.14305 0.0
C1723 C 0.34052 0.47036 0.13851 0.0
C1724 C 0.34161 0.44833 0.14932 0.0
C1725 C 0.3593 0.44452 0.1648 0.0
H1726 H 0.32678 0.4733 0.12659 0.0
H1727 H 0.49535 0.43798 0.27962 0.0
H1728 H 0.19316 0.51133 0.18082 0.0
H1729 H 0.16736 0.48485 0.20196 0.0
H1730 H 0.22128 0.48287 0.25131 0.0
H1731 H 0.24755 0.50907 0.22988 0.0
H1732 H 0.20455 0.43818 0.24227 0.0
H1733 H 0.16939 0.51475 0.25784 0.0
H1734 H 0.15168 0.55446 0.24973 0.0
H1735 H 0.09358 0.51998 0.21624 0.0
H1736 H 0.11114 0.48005 0.22387 0.0
H1737 H 0.13366 0.37793 0.31811 0.0
H1738 H 0.15637 0.40986 0.3003 0.0
H1739 H 0.10356 0.41146 0.25001 0.0
H1740 H 0.08057 0.37933 0.26797 0.0
H1741 H 0.11954 0.45706 0.26019 0.0
H1742 H 0.15555 0.3808 0.2434 0.0
H1743 H 0.17324 0.34103 0.25138 0.0
H1744 H 0.22991 0.37519 0.28696 0.0
H1745 H 0.21235 0.41516 0.27945 0.0
C1746 C 0.19962 0.50524 0.19614 0.0
C1747 C 0.22254 0.51225 0.20358 0.0
C1748 C 0.18469 0.49028 0.20834 0.0
C1749 C 0.19223 0.48199 0.22835 0.0
C1750 C 0.21502 0.48909 0.23595 0.0
C1751 C 0.22996 0.5042 0.22375 0.0
C1752 C 0.17671 0.4651 0.24082 0.0
C1753 C 0.1861 0.44251 0.24651 0.0
C1754 C 0.15237 0.47041 0.24584 0.0
C1755 C 0.14171 0.4944 0.24127 0.0
C1756 C 0.15294 0.51563 0.24859 0.0
C1757 C 0.14292 0.53818 0.24411 0.0
C1758 C 0.12155 0.53974 0.23243 0.0
C1759 C 0.11015 0.51875 0.22526 0.0
C1760 C 0.12012 0.49615 0.22968 0.0
C1761 C 0.1268 0.3851 0.30329 0.0
C1762 C 0.10549 0.3758 0.29429 0.0
C1763 C 0.13981 0.4034 0.29312 0.0
C1764 C 0.132 0.41273 0.27356 0.0
C1765 C 0.11003 0.40445 0.26504 0.0
C1766 C 0.09687 0.38613 0.27532 0.0
C1767 C 0.14745 0.43022 0.26166 0.0
C1768 C 0.13803 0.45283 0.25603 0.0
C1769 C 0.17178 0.42496 0.25664 0.0
C1770 C 0.1825 0.40096 0.26103 0.0
C1771 C 0.17169 0.37982 0.25305 0.0
C1772 C 0.1817 0.35724 0.25747 0.0
C1773 C 0.20265 0.35558 0.26971 0.0
C1774 C 0.21366 0.3765 0.27751 0.0
C1775 C 0.2037 0.39913 0.27316 0.0
H1776 H 0.21037 0.33809 0.27312 0.0
H1777 H 0.11381 0.55722 0.22898 0.0
H1778 H 0.75247 0.11227 0.2731 0.0
H1779 H 0.72591 0.13906 0.25297 0.0
H1780 H 0.6788 0.14478 0.30728 0.0
H1781 H 0.70458 0.1174 0.32713 0.0
H1782 H 0.65288 0.13924 0.2725 0.0
H1783 H 0.71872 0.19046 0.29334 0.0
H1784 H 0.76143 0.20244 0.29648 0.0
H1785 H 0.76788 0.20407 0.22844 0.0
H1786 H 0.72527 0.19174 0.2249 0.0
H1787 H 0.5837 0.2381 0.23386 0.0
H1788 H 0.61066 0.21347 0.25568 0.0
H1789 H 0.6595 0.20666 0.20266 0.0
H1790 H 0.6333 0.23201 0.18116 0.0
H1791 H 0.68435 0.21331 0.23767 0.0
H1792 H 0.61837 0.16163 0.21699 0.0
H1793 H 0.57565 0.14963 0.21407 0.0
H1794 H 0.56948 0.14862 0.28212 0.0
H1795 H 0.61202 0.16115 0.28545 0.0
C1796 C 0.73639 0.11907 0.28073 0.0
C1797 C 0.73089 0.11269 0.30186 0.0
C1798 C 0.7213 0.1346 0.26925 0.0
C1799 C 0.70045 0.14426 0.27867 0.0
C1800 C 0.69479 0.1377 0.29964 0.0
C1801 C 0.70979 0.12216 0.31109 0.0
C1802 C 0.68442 0.16111 0.26675 0.0
C1803 C 0.65973 0.1556 0.26512 0.0
C1804 C 0.69332 0.18229 0.25678 0.0
C1805 C 0.71887 0.18996 0.25886 0.0
C1806 C 0.72929 0.19321 0.27905 0.0
C1807 C 0.75348 0.20008 0.2809 0.0
C1808 C 0.76738 0.20395 0.26267 0.0
C1809 C 0.7571 0.20103 0.24255 0.0
C1810 C 0.73293 0.19412 0.24061 0.0
C1811 C 0.60032 0.23166 0.22692 0.0
C1812 C 0.60611 0.23691 0.20561 0.0
C1813 C 0.61564 0.21733 0.23937 0.0
C1814 C 0.63698 0.20779 0.23074 0.0
C1815 C 0.64312 0.21363 0.2097 0.0
C1816 C 0.62792 0.22798 0.19731 0.0
C1817 C 0.65282 0.19139 0.24334 0.0
C1818 C 0.67749 0.19698 0.24509 0.0
C1819 C 0.64388 0.1703 0.25345 0.0
C1820 C 0.61832 0.16261 0.25146 0.0
C1821 C 0.60785 0.15907 0.23133 0.0
C1822 C 0.58365 0.15217 0.2296 0.0
C1823 C 0.56981 0.1485 0.2479 0.0
C1824 C 0.58017 0.15161 0.26796 0.0
C1825 C 0.60432 0.15861 0.26978 0.0
H1826 H 0.55109 0.14314 0.24652 0.0
H1827 H 0.7861 0.20926 0.26414 0.0
H1828 H 0.86806 0.5893 0.22871 0.0
H1829 H 0.89321 0.61563 0.25042 0.0
H1830 H 0.93667 0.63297 0.1956 0.0
H1831 H 0.91269 0.60573 0.17406 0.0
H1832 H 0.9647 0.62783 0.22848 0.0
H1833 H 0.89054 0.67103 0.21517 0.0
H1834 H 0.84639 0.67623 0.2157 0.0
H1835 H 0.84618 0.66929 0.28372 0.0
H1836 H 0.8903 0.66373 0.28356 0.0
H1837 H 0.02032 0.73652 0.26413 0.0
H1838 H 0.99794 0.70482 0.24538 0.0
H1839 H 0.95389 0.69335 0.30116 0.0
H1840 H 0.97545 0.72598 0.31934 0.0
H1841 H 0.92622 0.69383 0.26928 0.0
H1842 H 1.00113 0.65291 0.28276 0.0
H1843 H 0.0453 0.64828 0.28193 0.0
H1844 H 0.04439 0.65089 0.21368 0.0
H1845 H 1.00023 0.65592 0.21412 0.0
C1846 C 0.88308 0.5984 0.2212 0.0
C1847 C 0.88794 0.59535 0.19936 0.0
C1848 C 0.89738 0.61372 0.23369 0.0
C1849 C 0.91662 0.62672 0.2246 0.0
C1850 C 0.92188 0.62328 0.20301 0.0
C1851 C 0.90783 0.60779 0.19059 0.0
C1852 C 0.93104 0.64428 0.23733 0.0
C1853 C 0.9563 0.64238 0.23728 0.0
C1854 C 0.92014 0.663 0.24921 0.0
C1855 C 0.89367 0.66674 0.24933 0.0
C1856 C 0.88105 0.67049 0.23023 0.0
C1857 C 0.85604 0.67351 0.23046 0.0
C1858 C 0.84348 0.67303 0.24973 0.0
C1859 C 0.85592 0.66963 0.26881 0.0
C1860 C 0.88093 0.66656 0.26865 0.0
C1861 C 1.00607 0.72694 0.2724 0.0
C1862 C 0.99961 0.73357 0.29316 0.0
C1863 C 0.99331 0.70876 0.26174 0.0
C1864 C 0.97434 0.69629 0.2719 0.0
C1865 C 0.96834 0.70263 0.29288 0.0
C1866 C 0.9807 0.72119 0.30331 0.0
C1867 C 0.96 0.67749 0.26046 0.0
C1868 C 0.93471 0.67917 0.26069 0.0
C1869 C 0.97089 0.65857 0.24876 0.0
C1870 C 0.99739 0.65497 0.24849 0.0
C1871 C 1.01036 0.65259 0.26758 0.0
C1872 C 0.03541 0.6499 0.26718 0.0
C1873 C 0.04766 0.64934 0.24776 0.0
C1874 C 0.03488 0.65135 0.22871 0.0
C1875 C 1.00984 0.65409 0.22903 0.0
H1876 H 0.06705 0.64734 0.24743 0.0
H1877 H 0.82411 0.67534 0.24987 0.0
H1878 H 0.35659 0.96103 0.28239 0.0
H1879 H 0.38952 0.93825 0.26677 0.0
H1880 H 0.43546 1.00108 0.27016 0.0
H1881 H 0.40247 0.02412 0.28617 0.0
H1882 H 0.43958 0.97801 0.23201 0.0
H1883 H 0.44224 0.95534 0.30548 0.0
H1884 H 0.42574 0.94066 0.33955 0.0
H1885 H 0.40646 0.87327 0.31035 0.0
H1886 H 0.42254 0.88768 0.27601 0.0
H1887 H 0.54774 0.91653 0.20899 0.0
H1888 H 0.51674 0.93984 0.22716 0.0
H1889 H 0.46972 0.87765 0.22712 0.0
H1890 H 0.50091 0.8541 0.20894 0.0
H1891 H 0.46687 0.90102 0.26429 0.0
H1892 H 0.46277 0.92375 0.19078 0.0
H1893 H 0.47861 0.93822 0.15639 0.0
H1894 H 0.49984 1.0052 0.18528 0.0
H1895 H 0.48442 0.991 0.21993 0.0
C1896 C 0.37372 0.97005 0.28012 0.0
C1897 C 0.37685 0.99444 0.28587 0.0
C1898 C 0.39258 0.95694 0.27109 0.0
C1899 C 0.41513 0.96779 0.26759 0.0
C1900 C 0.41824 0.99228 0.27279 0.0
C1901 C 0.39932 1.00546 0.28189 0.0
C1902 C 0.43526 0.9535 0.25832 0.0
C1903 C 0.44583 0.96139 0.23926 0.0
C1904 C 0.44299 0.93145 0.26746 0.0
C1905 C 0.43341 0.92268 0.28812 0.0
C1906 C 0.43432 0.93746 0.30628 0.0
C1907 C 0.42507 0.92917 0.32565 0.0
C1908 C 0.41501 0.90607 0.3271 0.0
C1909 C 0.41424 0.89117 0.3092 0.0
C1910 C 0.42344 0.89938 0.28978 0.0
C1911 C 0.53079 0.90779 0.21276 0.0
C1912 C 0.52669 0.8835 0.20723 0.0
C1913 C 0.51305 0.92117 0.22318 0.0
C1914 C 0.49065 0.9107 0.22814 0.0
C1915 C 0.4868 0.88619 0.22338 0.0
C1916 C 0.50465 0.87271 0.21303 0.0
C1917 C 0.47118 0.92549 0.23793 0.0
C1918 C 0.4607 0.91769 0.25708 0.0
C1919 C 0.46345 0.94759 0.22883 0.0
C1920 C 0.47266 0.95621 0.208 0.0
C1921 C 0.47098 0.9415 0.18984 0.0
C1922 C 0.47986 0.94966 0.17029 0.0
C1923 C 0.49029 0.97259 0.16866 0.0
C1924 C 0.4918 0.98743 0.18657 0.0
C1925 C 0.48298 0.97934 0.20616 0.0
H1926 H 0.49714 0.97888 0.15352 0.0
H1927 H 0.40786 0.89969 0.34211 0.0
H1928 H 0.23549 0.58866 0.76543 0.0
H1929 H 0.20606 0.61369 0.74639 0.0
H1930 H 0.19485 0.65594 0.80304 0.0
H1931 H 0.2245 0.63119 0.82201 0.0
H1932 H 0.15091 0.64257 0.77925 0.0
H1933 H 0.22955 0.67912 0.76975 0.0
H1934 H 0.27257 0.67859 0.75986 0.0
H1935 H 0.25386 0.65753 0.69627 0.0
H1936 H 0.21072 0.65753 0.70589 0.0
H1937 H 0.09069 0.74206 0.73175 0.0
H1938 H 0.11785 0.71708 0.75269 0.0
H1939 H 0.14692 0.68649 0.69516 0.0
H1940 H 0.12108 0.71218 0.67412 0.0
H1941 H 0.1819 0.69392 0.72052 0.0
H1942 H 0.10447 0.65636 0.72834 0.0
H1943 H 0.06114 0.65439 0.737 0.0
H1944 H 0.07649 0.67409 0.80162 0.0
H1945 H 0.11991 0.67652 0.79327 0.0
C1946 C 0.22646 0.60304 0.77388 0.0
C1947 C 0.23233 0.60806 0.79516 0.0
C1948 C 0.20976 0.61738 0.76299 0.0
C1949 C 0.19837 0.63673 0.7733 0.0
C1950 C 0.20343 0.64111 0.7948 0.0
C1951 C 0.22044 0.62707 0.80557 0.0
C1952 C 0.18224 0.65324 0.76134 0.0
C1953 C 0.15766 0.65403 0.76655 0.0
C1954 C 0.19101 0.66775 0.74449 0.0
C1955 C 0.21692 0.66807 0.73861 0.0
C1956 C 0.23462 0.67417 0.75371 0.0
C1957 C 0.25902 0.674 0.74815 0.0
C1958 C 0.26595 0.66797 0.72747 0.0
C1959 C 0.24847 0.66216 0.71229 0.0
C1960 C 0.22404 0.66226 0.71779 0.0
C1961 C 0.10292 0.73024 0.72341 0.0
C1962 C 0.1032 0.72923 0.701 0.0
C1963 C 0.11837 0.71569 0.73552 0.0
C1964 C 0.13422 0.69946 0.72558 0.0
C1965 C 0.13484 0.69872 0.7033 0.0
C1966 C 0.11969 0.71342 0.69121 0.0
C1967 C 0.15027 0.68326 0.73821 0.0
C1968 C 0.17496 0.68252 0.73317 0.0
C1969 C 0.14148 0.66851 0.75499 0.0
C1970 C 0.11541 0.66687 0.76012 0.0
C1971 C 0.09859 0.66043 0.74436 0.0
C1972 C 0.07402 0.65922 0.74922 0.0
C1973 C 0.06606 0.66418 0.76983 0.0
C1974 C 0.08268 0.67029 0.78565 0.0
C1975 C 0.10727 0.67158 0.78087 0.0
H1976 H 0.04703 0.66324 0.77356 0.0
H1977 H 0.28486 0.66784 0.72319 0.0
H1978 H 0.38916 0.13248 0.6745 0.0
H1979 H 0.41578 0.15829 0.6955 0.0
H1980 H 0.41655 0.1049 0.74551 0.0
H1981 H 0.3894 0.07915 0.72456 0.0
H1982 H 0.41387 0.1482 0.76229 0.0
H1983 H 0.4644 0.11214 0.70944 0.0
H1984 H 0.47697 0.10084 0.67319 0.0
H1985 H 0.48197 0.1757 0.6559 0.0
H1986 H 0.46911 0.18745 0.69198 0.0
H1987 H 0.51762 0.18912 0.81628 0.0
H1988 H 0.49081 0.1651 0.79401 0.0
H1989 H 0.48382 0.22477 0.75043 0.0
H1990 H 0.51041 0.24932 0.77303 0.0
H1991 H 0.48954 0.17946 0.73012 0.0
H1992 H 0.43976 0.21495 0.78402 0.0
H1993 H 0.42817 0.22532 0.82073 0.0
H1994 H 0.42294 0.15004 0.83648 0.0
H1995 H 0.43486 0.13921 0.79992 0.0
C1996 C 0.39504 0.1262 0.68995 0.0
C1997 C 0.38736 0.10365 0.69778 0.0
C1998 C 0.41033 0.14097 0.70195 0.0
C1999 C 0.41871 0.13338 0.72194 0.0
C2000 C 0.41047 0.11116 0.7301 0.0
C2001 C 0.3949 0.09646 0.71816 0.0
C2002 C 0.4361 0.14859 0.7342 0.0
C2003 C 0.43055 0.15473 0.7553 0.0
C2004 C 0.45771 0.15767 0.72503 0.0
C2005 C 0.46556 0.15066 0.70335 0.0
C2006 C 0.46802 0.12619 0.69786 0.0
C2007 C 0.47522 0.1197 0.67735 0.0
C2008 C 0.48021 0.13754 0.66223 0.0
C2009 C 0.47807 0.16191 0.66762 0.0
C2010 C 0.47084 0.16849 0.6881 0.0
C2011 C 0.51034 0.19729 0.80204 0.0
C2012 C 0.51591 0.22137 0.79669 0.0
C2013 C 0.49505 0.18344 0.78926 0.0
C2014 C 0.48495 0.19324 0.77074 0.0
C2015 C 0.49132 0.21687 0.76472 0.0
C2016 C 0.5066 0.23086 0.77761 0.0
C2017 C 0.46728 0.17889 0.75813 0.0
C2018 C 0.47281 0.17293 0.73702 0.0
C2019 C 0.44575 0.16982 0.76732 0.0
C2020 C 0.43842 0.17627 0.78928 0.0
C2021 C 0.43632 0.2006 0.79535 0.0
C2022 C 0.42967 0.20657 0.81613 0.0
C2023 C 0.42488 0.18835 0.83094 0.0
C2024 C 0.42668 0.16413 0.82499 0.0
C2025 C 0.43337 0.15807 0.80424 0.0
H2026 H 0.41973 0.19301 0.84702 0.0
H2027 H 0.48578 0.13248 0.64636 0.0
H2028 H 0.02976 0.40059 0.7098 0.0
H2029 H 1.00612 0.43322 0.72569 0.0
H2030 H 0.94216 0.38897 0.72218 0.0
H2031 H 0.96545 0.35629 0.7069 0.0
H2032 H 0.93447 0.43493 0.70719 0.0
H2033 H 0.97149 0.39625 0.76848 0.0
H2034 H 1.00613 0.38244 0.78979 0.0
H2035 H 0.03295 0.45515 0.79325 0.0
H2036 H 0.9986 0.46933 0.7717 0.0
H2037 H 0.8475 0.47317 0.77894 0.0
H2038 H 0.87939 0.45186 0.76023 0.0
H2039 H 0.92848 0.51078 0.77245 0.0
H2040 H 0.89639 0.53227 0.79164 0.0
H2041 H 0.94887 0.46519 0.78035 0.0
H2042 H 0.90865 0.50488 0.72391 0.0
H2043 H 0.87405 0.519 0.70275 0.0
H2044 H 0.85386 0.44564 0.68954 0.0
H2045 H 0.88813 0.43104 0.71089 0.0
C2046 C 1.01072 0.39769 0.71256 0.0
C2047 C 0.99959 0.37571 0.70687 0.0
C2048 C 0.99722 0.41643 0.72159 0.0
C2049 C 0.97235 0.41355 0.72507 0.0
C2050 C 0.96127 0.3917 0.71944 0.0
C2051 C 0.97469 0.37299 0.71058 0.0
C2052 C 0.95754 0.43302 0.73465 0.0
C2053 C 0.93759 0.44152 0.7232 0.0
C2054 C 0.96213 0.4423 0.75523 0.0
C2055 C 0.98267 0.43379 0.76826 0.0
C2056 C 0.98489 0.40925 0.77363 0.0
C2057 C 1.00444 0.40137 0.78578 0.0
C2058 C 0.02178 0.4179 0.7928 0.0
C2059 C 0.01954 0.44236 0.78775 0.0
C2060 C 1.00003 0.45033 0.77558 0.0
C2061 C 0.86509 0.48159 0.77783 0.0
C2062 C 0.86942 0.50438 0.7869 0.0
C2063 C 0.88327 0.46946 0.76694 0.0
C2064 C 0.90627 0.4798 0.76478 0.0
C2065 C 0.91083 0.50251 0.77389 0.0
C2066 C 0.89247 0.51481 0.78471 0.0
C2067 C 0.9253 0.46639 0.75315 0.0
C2068 C 0.94603 0.45904 0.76417 0.0
C2069 C 0.92153 0.45822 0.73209 0.0
C2070 C 0.90092 0.46687 0.71912 0.0
C2071 C 0.89674 0.49175 0.71662 0.0
C2072 C 0.8772 0.49984 0.70457 0.0
C2073 C 0.86175 0.48323 0.69483 0.0
C2074 C 0.86584 0.45849 0.69709 0.0
C2075 C 0.88535 0.45029 0.70914 0.0
H2076 H 0.84662 0.48953 0.68551 0.0
H2077 H 0.0369 0.41176 0.80221 0.0
H2078 H 0.63725 0.88162 0.82033 0.0
H2079 H 0.66388 0.90799 0.79971 0.0
H2080 H 0.61656 0.90141 0.74561 0.0
H2081 H 0.58989 0.87497 0.76614 0.0
H2082 H 0.66234 0.89912 0.73311 0.0
H2083 H 0.61633 0.95199 0.77768 0.0
H2084 H 0.59983 0.96727 0.81147 0.0
H2085 H 0.67155 0.97987 0.83474 0.0
H2086 H 0.68849 0.96434 0.80117 0.0
H2087 H 0.70284 1.00049 0.67402 0.0
H2088 H 0.67898 0.97214 0.69501 0.0
H2089 H 0.72979 0.97828 0.7466 0.0
H2090 H 0.75404 1.00653 0.72555 0.0
H2091 H 0.68348 0.98033 0.7608 0.0
H2092 H 0.72926 0.92847 0.71527 0.0
H2093 H 0.74518 0.9137 0.68108 0.0
H2094 H 0.67315 0.89975 0.65921 0.0
H2095 H 0.65676 0.91476 0.69317 0.0
C2096 C 0.63247 0.88581 0.80406 0.0
C2097 C 0.61133 0.87622 0.79498 0.0
C2098 C 0.64773 0.90092 0.79227 0.0
C2099 C 0.64208 0.90706 0.77117 0.0
C2100 C 0.62134 0.89699 0.76185 0.0
C2101 C 0.60612 0.88176 0.77361 0.0
C2102 C 0.65761 0.92419 0.75891 0.0
C2103 C 0.66671 0.91698 0.73907 0.0
C2104 C 0.66382 0.94735 0.76682 0.0
C2105 C 0.65368 0.95677 0.78699 0.0
C2106 C 0.62859 0.95785 0.79006 0.0
C2107 C 0.61916 0.96658 0.80917 0.0
C2108 C 0.63464 0.97448 0.82527 0.0
C2109 C 0.65958 0.97371 0.82227 0.0
C2110 C 0.66911 0.96496 0.8032 0.0
C2111 C 0.70919 0.99567 0.68972 0.0
C2112 C 0.73056 1.0058 0.69795 0.0
C2113 C 0.69543 0.97944 0.70175 0.0
C2114 C 0.7027 0.9728 0.72232 0.0
C2115 C 0.7238 0.98311 0.73077 0.0
C2116 C 0.73763 0.99935 0.71871 0.0
C2117 C 0.68812 0.95527 0.735 0.0
C2118 C 0.67918 0.96243 0.75489 0.0
C2119 C 0.68197 0.9321 0.7271 0.0
C2120 C 0.69178 0.92294 0.7067 0.0
C2121 C 0.7168 0.92242 0.70311 0.0
C2122 C 0.72591 0.91398 0.68378 0.0
C2123 C 0.71018 0.90585 0.66796 0.0
C2124 C 0.68531 0.90608 0.67147 0.0
C2125 C 0.6761 0.91453 0.69076 0.0
H2126 H 0.71727 0.89932 0.65301 0.0
H2127 H 0.6273 0.98124 0.84005 0.0
H2128 H 0.97389 0.7737 0.72596 0.0
H2129 H 0.943 0.74716 0.74141 0.0
H2130 H 0.98809 0.68537 0.72912 0.0
H2131 H 0.01835 0.71183 0.71292 0.0
H2132 H 0.94634 0.67716 0.71332 0.0
H2133 H 0.97318 0.70641 0.78109 0.0
H2134 H 0.98367 0.737 0.80804 0.0
H2135 H 0.91137 0.76434 0.80618 0.0
H2136 H 0.90052 0.7341 0.77901 0.0
H2137 H 0.88174 0.58815 0.77293 0.0
H2138 H 0.91003 0.61675 0.75666 0.0
H2139 H 0.85725 0.67336 0.76242 0.0
H2140 H 0.82887 0.64456 0.77865 0.0
H2141 H 0.9006 0.68561 0.78061 0.0
H2142 H 0.87392 0.65399 0.71377 0.0
H2143 H 0.86415 0.62213 0.68779 0.0
H2144 H 0.93755 0.59784 0.68909 0.0
H2145 H 0.94771 0.62937 0.71531 0.0
C2146 C 0.97757 0.75457 0.72747 0.0
C2147 C 0.99862 0.74479 0.71866 0.0
C2148 C 0.95983 0.73934 0.73614 0.0
C2149 C 0.96307 0.71412 0.73642 0.0
C2150 C 0.98498 0.70467 0.72898 0.0
C2151 C 1.00245 0.71981 0.72001 0.0
C2152 C 0.94299 0.69741 0.74246 0.0
C2153 C 0.93662 0.67886 0.72822 0.0
C2154 C 0.92963 0.69995 0.76152 0.0
C2155 C 0.93611 0.71816 0.77785 0.0
C2156 C 0.95957 0.71908 0.7863 0.0
C2157 C 0.96557 0.73632 0.80164 0.0
C2158 C 0.94822 0.75264 0.80877 0.0
C2159 C 0.9248 0.75171 0.80062 0.0
C2160 C 0.91871 0.73451 0.78526 0.0
C2161 C 0.87582 0.60643 0.76977 0.0
C2162 C 0.85293 0.61405 0.77639 0.0
C2163 C 0.89206 0.62283 0.76066 0.0
C2164 C 0.8858 0.64725 0.75829 0.0
C2165 C 0.86247 0.65463 0.76403 0.0
C2166 C 0.84613 0.63812 0.77298 0.0
C2167 C 0.90433 0.66528 0.75163 0.0
C2168 C 0.91033 0.68405 0.76572 0.0
C2169 C 0.91754 0.66282 0.73253 0.0
C2170 C 0.91153 0.64394 0.71664 0.0
C2171 C 0.88794 0.64175 0.70864 0.0
C2172 C 0.88234 0.62377 0.69384 0.0
C2173 C 0.9002 0.60794 0.68683 0.0
C2174 C 0.92373 0.61011 0.69455 0.0
C2175 C 0.92942 0.62805 0.70936 0.0
H2176 H 0.89583 0.59402 0.67538 0.0
H2177 H 0.9529 0.76598 0.82066 0.0
H2178 H 0.34349 0.96536 0.70827 0.0
H2179 H 0.37237 0.93784 0.72475 0.0
H2180 H 0.42019 0.99786 0.73716 0.0
H2181 H 0.39131 0.02531 0.72019 0.0
H2182 H 0.4431 0.9637 0.71643 0.0
H2183 H 0.39266 0.96527 0.77797 0.0
H2184 H 0.35478 0.96245 0.79834 0.0
H2185 H 0.34593 0.88871 0.77881 0.0
H2186 H 0.38361 0.89117 0.75807 0.0
H2187 H 0.52544 0.9018 0.78402 0.0
H2188 H 0.49648 0.92787 0.76594 0.0
H2189 H 0.45563 0.86522 0.7466 0.0
H2190 H 0.48499 0.83896 0.76453 0.0
H2191 H 0.42893 0.89935 0.76992 0.0
H2192 H 0.48093 0.89812 0.70937 0.0
H2193 H 0.51953 0.90151 0.69014 0.0
H2194 H 0.52612 0.97561 0.70931 0.0
H2195 H 0.48771 0.97258 0.72893 0.0
C2196 C 0.35969 0.97274 0.71542 0.0
C2197 C 0.36503 0.9974 0.71355 0.0
C2198 C 0.37627 0.95702 0.72471 0.0
C2199 C 0.39849 0.96575 0.73226 0.0
C2200 C 0.40317 0.99071 0.73147 0.0
C2201 C 0.38658 1.00643 0.7221 0.0
C2202 C 0.41769 0.9486 0.73879 0.0
C2203 C 0.4401 0.94989 0.7284 0.0
C2204 C 0.41356 0.93003 0.75385 0.0
C2205 C 0.39085 0.92849 0.76629 0.0
C2206 C 0.38254 0.94851 0.77786 0.0
C2207 C 0.36112 0.94697 0.78951 0.0
C2208 C 0.34792 0.92544 0.78983 0.0
C2209 C 0.35615 0.90538 0.77853 0.0
C2210 C 0.37756 0.90683 0.76684 0.0
C2211 C 0.51079 0.89358 0.77517 0.0
C2212 C 0.5075 0.86845 0.7754 0.0
C2213 C 0.49422 0.90847 0.76494 0.0
C2214 C 0.47387 0.89848 0.755 0.0
C2215 C 0.47126 0.87325 0.75416 0.0
C2216 C 0.48815 0.85827 0.76414 0.0
C2217 C 0.45427 0.91461 0.74766 0.0
C2218 C 0.43182 0.91313 0.75791 0.0
C2219 C 0.45842 0.93313 0.73261 0.0
C2220 C 0.48152 0.93505 0.72078 0.0
C2221 C 0.49071 0.91509 0.70965 0.0
C2222 C 0.51254 0.91696 0.69864 0.0
C2223 C 0.5253 0.93875 0.69855 0.0
C2224 C 0.51623 0.95873 0.70942 0.0
C2225 C 0.49441 0.95696 0.72046 0.0
H2226 H 0.5422 0.94016 0.69002 0.0
H2227 H 0.33134 0.92427 0.79886 0.0
H2228 H 0.08836 0.3951 0.72061 0.0
H2229 H 0.11919 0.42207 0.73515 0.0
H2230 H 0.16781 0.36188 0.74151 0.0
H2231 H 0.13644 0.33467 0.7276 0.0
H2232 H 0.17598 0.39449 0.77264 0.0
H2233 H 0.16898 0.39682 0.69717 0.0
H2234 H 0.14793 0.40042 0.66279 0.0
H2235 H 0.1267 0.47271 0.67844 0.0
H2236 H 0.14729 0.46941 0.71309 0.0
H2237 H 0.2781 0.47167 0.77594 0.0
H2238 H 0.25118 0.44146 0.75982 0.0
H2239 H 0.19351 0.49345 0.75924 0.0
H2240 H 0.22029 0.52342 0.77555 0.0
H2241 H 0.19322 0.46254 0.72337 0.0
H2242 H 0.1988 0.45785 0.80034 0.0
H2243 H 0.22136 0.45366 0.83392 0.0
H2244 H 0.24748 0.38445 0.81387 0.0
H2245 H 0.22538 0.38844 0.77999 0.0
C2246 C 0.10526 0.38749 0.72602 0.0
C2247 C 0.10996 0.36282 0.72331 0.0
C2248 C 0.12301 0.40295 0.73403 0.0
C2249 C 0.14612 0.39416 0.73884 0.0
C2250 C 0.1502 0.36914 0.7378 0.0
C2251 C 0.13221 0.35354 0.73007 0.0
C2252 C 0.16634 0.41138 0.74299 0.0
C2253 C 0.17995 0.40913 0.7617 0.0
C2254 C 0.17167 0.43059 0.72875 0.0
C2255 C 0.15952 0.43279 0.7078 0.0
C2256 C 0.1597 0.41343 0.69334 0.0
C2257 C 0.14785 0.41542 0.6738 0.0
C2258 C 0.13595 0.43677 0.66845 0.0
C2259 C 0.13591 0.45619 0.68262 0.0
C2260 C 0.14768 0.45427 0.7022 0.0
C2261 C 0.26002 0.47692 0.77138 0.0
C2262 C 0.25135 0.49997 0.77648 0.0
C2263 C 0.24456 0.45958 0.76246 0.0
C2264 C 0.22023 0.46511 0.75857 0.0
C2265 C 0.21219 0.48878 0.76206 0.0
C2266 C 0.22754 0.50597 0.7712 0.0
C2267 C 0.20247 0.44586 0.75314 0.0
C2268 C 0.18935 0.44774 0.73418 0.0
C2269 C 0.19781 0.42619 0.76701 0.0
C2270 C 0.21066 0.42356 0.78755 0.0
C2271 C 0.20948 0.44181 0.80304 0.0
C2272 C 0.22217 0.43947 0.82213 0.0
C2273 C 0.2359 0.41883 0.826 0.0
C2274 C 0.23688 0.40045 0.81083 0.0
C2275 C 0.22427 0.40274 0.79168 0.0
H2276 H 0.24573 0.41706 0.84078 0.0
H2277 H 0.12679 0.43827 0.65332 0.0
H2278 H 0.5985 0.24843 0.7691 0.0
H2279 H 0.62406 0.2194 0.74994 0.0
H2280 H 0.67908 0.22725 0.79794 0.0
H2281 H 0.6539 0.25604 0.81688 0.0
H2282 H 0.69878 0.22368 0.75838 0.0
H2283 H 0.63896 0.18179 0.80099 0.0
H2284 H 0.59723 0.17276 0.81209 0.0
H2285 H 0.58013 0.14947 0.74874 0.0
H2286 H 0.6217 0.15872 0.7372 0.0
H2287 H 0.76707 0.11854 0.73795 0.0
H2288 H 0.74161 0.14684 0.75795 0.0
H2289 H 0.68367 0.13508 0.71333 0.0
H2290 H 0.70855 0.10662 0.69387 0.0
H2291 H 0.66538 0.14085 0.75124 0.0
H2292 H 0.72395 0.18238 0.70801 0.0
H2293 H 0.7651 0.19198 0.69569 0.0
H2294 H 0.78388 0.2168 0.75821 0.0
H2295 H 0.74293 0.20693 0.771 0.0
C2296 C 0.61628 0.24434 0.77521 0.0
C2297 C 0.62415 0.25432 0.79453 0.0
C2298 C 0.63079 0.22766 0.76438 0.0
C2299 C 0.65336 0.2209 0.7727 0.0
C2300 C 0.66175 0.23209 0.79125 0.0
C2301 C 0.64727 0.24849 0.80209 0.0
C2302 C 0.66765 0.20097 0.76321 0.0
C2303 C 0.69155 0.20553 0.75696 0.0
C2304 C 0.65815 0.17734 0.76113 0.0
C2305 C 0.63336 0.17117 0.76819 0.0
C2306 C 0.62627 0.17486 0.78941 0.0
C2307 C 0.60265 0.1697 0.79578 0.0
C2308 C 0.58602 0.16061 0.78112 0.0
C2309 C 0.59302 0.15655 0.76007 0.0
C2310 C 0.61661 0.16173 0.75361 0.0
C2311 C 0.74868 0.12151 0.73284 0.0
C2312 C 0.73989 0.11058 0.71424 0.0
C2313 C 0.73421 0.13786 0.74412 0.0
C2314 C 0.71087 0.14353 0.73686 0.0
C2315 C 0.7016 0.13118 0.71921 0.0
C2316 C 0.71594 0.11495 0.70804 0.0
C2317 C 0.69659 0.16351 0.74638 0.0
C2318 C 0.67267 0.15898 0.75265 0.0
C2319 C 0.706 0.18723 0.74828 0.0
C2320 C 0.73046 0.19368 0.74052 0.0
C2321 C 0.7369 0.18976 0.71916 0.0
C2322 C 0.76018 0.19524 0.71209 0.0
C2323 C 0.77711 0.20493 0.72617 0.0
C2324 C 0.77076 0.20925 0.74733 0.0
C2325 C 0.74751 0.20371 0.7545 0.0
H2326 H 0.79514 0.20914 0.72067 0.0
H2327 H 0.56773 0.15668 0.78607 0.0
H2328 H 0.96278 0.33222 0.29259 0.0
H2329 H 0.93584 0.36056 0.27479 0.0
H2330 H 0.99706 0.39462 0.24464 0.0
H2331 H 0.02413 0.36607 0.2627 0.0
H2332 H 0.96985 0.42694 0.26561 0.0
H2333 H 0.95443 0.36434 0.21526 0.0
H2334 H 0.94403 0.32333 0.20305 0.0
H2335 H 0.87486 0.32856 0.23332 0.0
H2336 H 0.88497 0.3695 0.24598 0.0
H2337 H 0.90377 0.5038 0.19682 0.0
H2338 H 0.92976 0.4745 0.21441 0.0
H2339 H 0.86807 0.44451 0.24699 0.0
H2340 H 0.84183 0.47423 0.22933 0.0
H2341 H 0.89486 0.41004 0.22525 0.0
H2342 H 0.91027 0.47301 0.27513 0.0
H2343 H 0.92073 0.51414 0.28696 0.0
H2344 H 0.99012 0.50824 0.25717 0.0
H2345 H 0.97994 0.46718 0.24487 0.0
C2346 C 0.97034 0.34509 0.28141 0.0
C2347 C 0.99539 0.34669 0.27858 0.0
C2348 C 0.95496 0.36139 0.27133 0.0
C2349 C 0.96436 0.37975 0.25831 0.0
C2350 C 0.98939 0.38056 0.25457 0.0
C2351 C 1.00481 0.36407 0.2646 0.0
C2352 C 0.9483 0.39938 0.25058 0.0
C2353 C 0.95368 0.42327 0.25644 0.0
C2354 C 0.92671 0.39455 0.23932 0.0
C2355 C 0.92056 0.36992 0.23174 0.0
C2356 C 0.93708 0.35668 0.21948 0.0
C2357 C 0.93122 0.33346 0.21244 0.0
C2358 C 0.90882 0.32332 0.21746 0.0
C2359 C 0.89221 0.33642 0.22947 0.0
C2360 C 0.89799 0.35965 0.23656 0.0
C2361 C 0.89585 0.49143 0.20824 0.0
C2362 C 0.87087 0.49136 0.21189 0.0
C2363 C 0.91072 0.47466 0.21826 0.0
C2364 C 0.9009 0.45728 0.23202 0.0
C2365 C 0.87602 0.4578 0.23644 0.0
C2366 C 0.8611 0.47492 0.22658 0.0
C2367 C 0.91649 0.43755 0.24021 0.0
C2368 C 0.91102 0.41366 0.23444 0.0
C2369 C 0.93803 0.44237 0.25152 0.0
C2370 C 0.94425 0.46707 0.25891 0.0
C2371 C 0.92768 0.48055 0.27094 0.0
C2372 C 0.93358 0.50384 0.27776 0.0
C2373 C 0.95605 0.51382 0.27278 0.0
C2374 C 0.9727 0.5005 0.261 0.0
C2375 C 0.96689 0.4772 0.25412 0.0
H2376 H 0.96058 0.53186 0.27808 0.0
H2377 H 0.90432 0.30534 0.21199 0.0
H2378 H 0.66875 0.83735 0.20005 0.0
H2379 H 0.69074 0.86915 0.21856 0.0
H2380 H 0.62572 0.88929 0.25166 0.0
H2381 H 0.60345 0.8573 0.23283 0.0
H2382 H 0.64676 0.92774 0.23237 0.0
H2383 H 0.67346 0.86482 0.27848 0.0
H2384 H 0.69048 0.82514 0.28779 0.0
H2385 H 0.75691 0.84416 0.25684 0.0
H2386 H 0.74017 0.88383 0.24707 0.0
H2387 H 0.7041 0.01247 0.30059 0.0
H2388 H 0.68169 0.97995 0.28348 0.0
H2389 H 0.74592 0.95839 0.24991 0.0
H2390 H 0.76865 0.99104 0.26733 0.0
H2391 H 0.72492 0.92052 0.27008 0.0
H2392 H 0.69808 0.98306 0.22346 0.0
H2393 H 0.68104 0.02261 0.21378 0.0
H2394 H 0.61487 1.00421 0.24545 0.0
H2395 H 0.63165 0.96466 0.25559 0.0
C2396 C 0.65928 0.84807 0.21176 0.0
C2397 C 0.63444 0.84475 0.21513 0.0
C2398 C 0.67189 0.86628 0.22235 0.0
C2399 C 0.65995 0.88165 0.23657 0.0
C2400 C 0.63533 0.87762 0.24078 0.0
C2401 C 0.62268 0.85917 0.23025 0.0
C2402 C 0.67283 0.90308 0.24535 0.0
C2403 C 0.66361 0.92614 0.24099 0.0
C2404 C 0.69528 0.90107 0.25593 0.0
C2405 C 0.70547 0.87725 0.26189 0.0
C2406 C 0.69163 0.86048 0.27351 0.0
C2407 C 0.70124 0.838 0.2789 0.0
C2408 C 0.72474 0.83211 0.27287 0.0
C2409 C 0.7387 0.84873 0.26149 0.0
C2410 C 0.72917 0.87124 0.25604 0.0
C2411 C 0.71335 1.0012 0.28915 0.0
C2412 C 0.73812 1.00436 0.28524 0.0
C2413 C 0.70048 0.98258 0.27936 0.0
C2414 C 0.71206 0.96667 0.26537 0.0
C2415 C 0.7366 0.97044 0.26066 0.0
C2416 C 0.74951 0.98926 0.27041 0.0
C2417 C 0.69886 0.94518 0.25707 0.0
C2418 C 0.70803 0.92211 0.26151 0.0
C2419 C 0.67638 0.94719 0.24655 0.0
C2420 C 0.66622 0.97097 0.24046 0.0
C2421 C 0.67997 0.98752 0.22852 0.0
C2422 C 0.67035 1.00993 0.22292 0.0
C2423 C 0.64691 0.01594 0.22904 0.0
C2424 C 0.63304 0.99953 0.24074 0.0
C2425 C 0.64259 0.97711 0.2464 0.0
H2426 H 0.63949 0.0333 0.22468 0.0
H2427 H 0.73214 0.81469 0.27705 0.0
H2428 H 0.08283 0.73606 0.26645 0.0
H2429 H 0.111 0.70726 0.25017 0.0
H2430 H 0.17075 0.74482 0.27925 0.0
H2431 H 0.14269 0.77345 0.29534 0.0
H2432 H 0.18346 0.72847 0.24077 0.0
H2433 H 0.14437 0.69763 0.30277 0.0
H2434 H 0.1106 0.68525 0.32584 0.0
H2435 H 0.08935 0.63167 0.28021 0.0
H2436 H 0.12233 0.64446 0.2564 0.0
H2437 H 0.26804 0.63264 0.23357 0.0
H2438 H 0.24134 0.6617 0.25146 0.0
H2439 H 0.17973 0.62905 0.22087 0.0
H2440 H 0.20619 0.60031 0.20312 0.0
H2441 H 0.16922 0.64313 0.26149 0.0
H2442 H 0.20722 0.67669 0.1986 0.0
H2443 H 0.24237 0.68813 0.17673 0.0
H2444 H 0.26732 0.73536 0.22622 0.0
H2445 H 0.23248 0.72388 0.24853 0.0
C2446 C 0.10205 0.73867 0.26855 0.0
C2447 C 0.11073 0.75713 0.28177 0.0
C2448 C 0.11811 0.72206 0.25953 0.0
C2449 C 0.143 0.72363 0.26378 0.0
C2450 C 0.1517 0.74319 0.27573 0.0
C2451 C 0.13568 0.75964 0.28481 0.0
C2452 C 0.15981 0.70398 0.25743 0.0
C2453 C 0.18041 0.70986 0.24547 0.0
C2454 C 0.15591 0.67961 0.26354 0.0
C2455 C 0.13564 0.67229 0.27762 0.0
C2456 C 0.13224 0.68351 0.29746 0.0
C2457 C 0.11321 0.67642 0.31067 0.0
C2458 C 0.0977 0.65783 0.30441 0.0
C2459 C 0.10121 0.64626 0.28493 0.0
C2460 C 0.12002 0.65348 0.27153 0.0
C2461 C 0.24872 0.63121 0.23134 0.0
C2462 C 0.23911 0.61428 0.21704 0.0
C2463 C 0.23351 0.64794 0.24133 0.0
C2464 C 0.20855 0.6478 0.23721 0.0
C2465 C 0.19888 0.6296 0.22426 0.0
C2466 C 0.21402 0.61316 0.21414 0.0
C2467 C 0.19259 0.66761 0.24465 0.0
C2468 C 0.17219 0.66177 0.25683 0.0
C2469 C 0.19672 0.692 0.23887 0.0
C2470 C 0.2174 0.69923 0.22532 0.0
C2471 C 0.22029 0.68939 0.20487 0.0
C2472 C 0.24014 0.69589 0.19239 0.0
C2473 C 0.25711 0.71241 0.2001 0.0
C2474 C 0.25419 0.72253 0.22028 0.0
C2475 C 0.23439 0.71604 0.23285 0.0
H2476 H 0.27248 0.7174 0.19042 0.0
H2477 H 0.08304 0.65228 0.31469 0.0
H2478 H 0.33639 0.13603 0.27666 0.0
H2479 H 0.36405 0.16657 0.26243 0.0
H2480 H 0.41734 0.11137 0.25136 0.0
H2481 H 0.38992 0.0811 0.26648 0.0
H2482 H 0.43698 0.14563 0.27256 0.0
H2483 H 0.38777 0.1443 0.20995 0.0
H2484 H 0.35011 0.1462 0.18921 0.0
H2485 H 0.33751 0.21819 0.21176 0.0
H2486 H 0.37496 0.21661 0.23286 0.0
H2487 H 0.51865 0.21287 0.20832 0.0
H2488 H 0.48963 0.18518 0.22462 0.0
H2489 H 0.44664 0.2457 0.24484 0.0
H2490 H 0.4761 0.2736 0.22867 0.0
H2491 H 0.42099 0.21119 0.22077 0.0
H2492 H 0.47253 0.21246 0.2816 0.0
H2493 H 0.51117 0.21002 0.30082 0.0
H2494 H 0.5203 0.13693 0.27976 0.0
H2495 H 0.4819 0.13905 0.26009 0.0
C2496 C 0.35359 0.13034 0.27023 0.0
C2497 C 0.36085 0.1062 0.27205 0.0
C2498 C 0.36951 0.14782 0.26224 0.0
C2499 C 0.39289 0.14137 0.25572 0.0
C2500 C 0.39948 0.11688 0.25631 0.0
C2501 C 0.38369 0.0995 0.2646 0.0
C2502 C 0.41121 0.16025 0.25037 0.0
C2503 C 0.43354 0.15972 0.26097 0.0
C2504 C 0.40658 0.17924 0.23583 0.0
C2505 C 0.38405 0.18024 0.22316 0.0
C2506 C 0.37687 0.16047 0.21062 0.0
C2507 C 0.35558 0.1615 0.19878 0.0
C2508 C 0.34139 0.18228 0.19922 0.0
C2509 C 0.3485 0.2021 0.21146 0.0
C2510 C 0.36977 0.20115 0.22335 0.0
C2511 C 0.50347 0.22027 0.21695 0.0
C2512 C 0.49974 0.24531 0.21757 0.0
C2513 C 0.48683 0.20445 0.22617 0.0
C2514 C 0.46592 0.21335 0.23591 0.0
C2515 C 0.46269 0.23847 0.23743 0.0
C2516 C 0.47964 0.25438 0.22847 0.0
C2517 C 0.4467 0.19622 0.24272 0.0
C2518 C 0.42426 0.19711 0.23241 0.0
C2519 C 0.45131 0.17739 0.25734 0.0
C2520 C 0.47439 0.17599 0.26923 0.0
C2521 C 0.48287 0.19593 0.28091 0.0
C2522 C 0.50472 0.1946 0.2919 0.0
C2523 C 0.5182 0.17336 0.29147 0.0
C2524 C 0.50984 0.15338 0.28006 0.0
C2525 C 0.48802 0.15463 0.269 0.0
H2526 H 0.5351 0.17236 0.30002 0.0
H2527 H 0.32491 0.18304 0.19003 0.0
loop_
_geom_bond_atom_site_label_1
_geom_bond_atom_site_label_2
_geom_bond_distance
_geom_bond_site_symmetry_2
_ccdc_geom_bond_type
C0 C1 1.351 . S
C0 N3 1.368 . S
C0 H5 0.931 . S
C1 C0 1.351 . S
C1 N2 1.373 . S
C1 H29 0.930 . S
N2 C1 1.373 . S
N2 C4 1.340 . S
N3 C0 1.368 . S
N3 C4 1.321 . S
N3 Co6 2.135 1_655 S
C4 N2 1.340 . S
C4 N3 1.321 . S
C4 H28 0.930 1_655 S
H5 C0 0.931 . S
Co6 N3 2.135 1_455 S
Co6 N9 2.121 . S
Co6 O14 2.055 . S
Co6 O17 2.039 . S
Co6 N20 2.140 . S
C7 O8 1.227 . S
C7 O17 1.265 . S
O8 C7 1.227 . S
N9 Co6 2.121 . S
N9 C11 1.375 . S
N9 C12 1.313 . S
C10 C11 1.338 . S
C10 N13 1.377 . S
C10 H30 0.930 . S
C11 N9 1.375 . S
C11 C10 1.338 . S
C11 H15 0.931 . S
C12 N9 1.313 . S
C12 N13 1.344 . S
C12 H16 0.930 . S
N13 C10 1.377 . S
N13 C12 1.344 . S
O14 Co6 2.055 . S
O14 C18 1.253 1_455 S
H15 C11 0.931 . S
H16 C12 0.930 . S
O17 Co6 2.039 . S
O17 C7 1.265 . S
C18 O14 1.253 1_655 S
C18 O19 1.227 . S
O19 C18 1.227 . S
N20 Co6 2.140 . S
N20 C23 1.346 . S
N20 C24 1.345 . S
C21 C22 1.387 . S
C21 C25 1.391 . S
C22 C21 1.387 . S
C22 C23 1.369 . S
C22 H31 0.929 . S
C23 N20 1.346 . S
C23 C22 1.369 . S
C23 H26 0.928 . S
C24 N20 1.345 . S
C24 C25 1.371 . S
C24 H27 0.931 . S
C25 C21 1.391 . S
C25 C24 1.371 . S
C25 H32 0.930 . S
H26 C23 0.928 . S
H27 C24 0.931 . S
H28 C4 0.930 1_455 S
H29 C1 0.930 . S
H30 C10 0.930 . S
H31 C22 0.929 . S
H32 C25 0.930 . S
C33 C34 1.351 . S
C33 N36 1.368 . S
C33 H38 0.931 . S
C34 C33 1.351 . S
C34 N35 1.373 . S
C34 H62 0.930 . S
N35 C34 1.373 . S
N35 C37 1.340 . S
N36 C33 1.368 . S
N36 C37 1.321 . S
N36 Co39 2.135 1_565 S
C37 N35 1.340 . S
C37 N36 1.321 . S
C37 H61 0.930 1_565 S
H38 C33 0.931 . S
Co39 N36 2.135 1_545 S
Co39 N42 2.121 . S
Co39 O47 2.055 . S
Co39 O50 2.039 . S
Co39 N53 2.140 . S
C40 O41 1.227 . S
C40 O50 1.265 . S
O41 C40 1.227 . S
N42 Co39 2.121 . S
N42 C44 1.375 . S
N42 C45 1.313 . S
C43 C44 1.338 . S
C43 N46 1.377 . S
C43 H63 0.930 . S
C44 N42 1.375 . S
C44 C43 1.338 . S
C44 H48 0.931 . S
C45 N42 1.313 . S
C45 N46 1.344 . S
C45 H49 0.930 . S
N46 C43 1.377 . S
N46 C45 1.344 . S
O47 Co39 2.055 . S
O47 C51 1.253 1_545 S
H48 C44 0.931 . S
H49 C45 0.930 . S
O50 Co39 2.039 . S
O50 C40 1.265 . S
C51 O47 1.253 1_565 S
C51 O52 1.227 . S
O52 C51 1.227 . S
N53 Co39 2.140 . S
N53 C56 1.346 . S
N53 C57 1.345 . S
C54 C55 1.387 . S
C54 C58 1.391 . S
C55 C54 1.387 . S
C55 C56 1.369 . S
C55 H64 0.929 . S
C56 N53 1.346 . S
C56 C55 1.369 . S
C56 H59 0.928 . S
C57 N53 1.345 . S
C57 C58 1.371 . S
C57 H60 0.931 . S
C58 C54 1.391 . S
C58 C57 1.371 . S
C58 H65 0.930 . S
H59 C56 0.928 . S
H60 C57 0.931 . S
H61 C37 0.930 1_545 S
H62 C34 0.930 . S
H63 C43 0.930 . S
H64 C55 0.929 . S
H65 C58 0.930 . S
C66 C67 1.351 . S
C66 N69 1.368 . S
C66 H71 0.931 . S
C67 C66 1.351 . S
C67 N68 1.373 . S
C67 H95 0.930 . S
N68 C67 1.373 . S
N68 C70 1.340 . S
N69 C66 1.368 . S
N69 C70 1.321 . S
N69 Co72 2.135 . S
C70 N68 1.340 . S
C70 N69 1.321 . S
C70 H94 0.930 . S
H71 C66 0.931 . S
Co72 N69 2.135 . S
Co72 N75 2.121 . S
Co72 O80 2.055 . S
Co72 O83 2.039 . S
Co72 N86 2.140 . S
C73 O74 1.227 . S
C73 O83 1.265 . S
O74 C73 1.227 . S
N75 Co72 2.121 . S
N75 C77 1.375 . S
N75 C78 1.313 . S
C76 C77 1.338 1_655 S
C76 N79 1.377 1_655 S
C76 H96 0.930 . S
C77 N75 1.375 . S
C77 C76 1.338 1_455 S
C77 H81 0.931 . S
C78 N75 1.313 . S
C78 N79 1.344 . S
C78 H82 0.930 . S
N79 C76 1.377 1_455 S
N79 C78 1.344 . S
O80 Co72 2.055 . S
O80 C84 1.253 . S
H81 C77 0.931 . S
H82 C78 0.930 . S
O83 Co72 2.039 . S
O83 C73 1.265 . S
C84 O80 1.253 . S
C84 O85 1.227 . S
O85 C84 1.227 . S
N86 Co72 2.140 . S
N86 C89 1.346 . S
N86 C90 1.345 . S
C87 C88 1.387 . S
C87 C91 1.391 . S
C88 C87 1.387 . S
C88 C89 1.369 . S
C88 H97 0.929 . S
C89 N86 1.346 . S
C89 C88 1.369 . S
C89 H92 0.928 . S
C90 N86 1.345 . S
C90 C91 1.371 . S
C90 H93 0.931 . S
C91 C87 1.391 . S
C91 C90 1.371 . S
C91 H98 0.930 . S
H92 C89 0.928 . S
H93 C90 0.931 . S
H94 C70 0.930 . S
H95 C67 0.930 . S
H96 C76 0.930 . S
H97 C88 0.929 . S
H98 C91 0.930 . S
C99 C100 1.351 . S
C99 N102 1.368 . S
C99 H104 0.931 . S
C100 C99 1.351 . S
C100 N101 1.373 . S
C100 H128 0.930 . S
N101 C100 1.373 . S
N101 C103 1.340 . S
N102 C99 1.368 . S
N102 C103 1.321 . S
N102 Co105 2.135 . S
C103 N101 1.340 . S
C103 N102 1.321 . S
C103 H127 0.930 . S
H104 C99 0.931 . S
Co105 N102 2.135 . S
Co105 N108 2.121 . S
Co105 O113 2.055 . S
Co105 O116 2.039 . S
Co105 N119 2.140 . S
C106 O107 1.227 . S
C106 O116 1.265 . S
O107 C106 1.227 . S
N108 Co105 2.121 . S
N108 C110 1.375 . S
N108 C111 1.313 . S
C109 C110 1.338 1_565 S
C109 N112 1.377 1_565 S
C109 H129 0.930 . S
C110 N108 1.375 . S
C110 C109 1.338 1_545 S
C110 H114 0.931 . S
C111 N108 1.313 . S
C111 N112 1.344 . S
C111 H115 0.930 . S
N112 C109 1.377 1_545 S
N112 C111 1.344 . S
O113 Co105 2.055 . S
O113 C117 1.253 . S
H114 C110 0.931 . S
H115 C111 0.930 . S
O116 Co105 2.039 . S
O116 C106 1.265 . S
C117 O113 1.253 . S
C117 O118 1.227 . S
O118 C117 1.227 . S
N119 Co105 2.140 . S
N119 C122 1.346 . S
N119 C123 1.345 . S
C120 C121 1.387 . S
C120 C124 1.391 . S
C121 C120 1.387 . S
C121 C122 1.369 . S
C121 H130 0.929 . S
C122 N119 1.346 . S
C122 C121 1.369 . S
C122 H125 0.928 . S
C123 N119 1.345 . S
C123 C124 1.371 . S
C123 H126 0.931 . S
C124 C120 1.391 . S
C124 C123 1.371 . S
C124 H131 0.930 . S
H125 C122 0.928 . S
H126 C123 0.931 . S
H127 C103 0.930 . S
H128 C100 0.930 . S
H129 C109 0.930 . S
H130 C121 0.929 . S
H131 C124 0.930 . S
C132 C133 1.351 . S
C132 N135 1.368 . S
C132 H137 0.931 . S
C133 C132 1.351 . S
C133 N134 1.373 . S
C133 H161 0.930 . S
N134 C133 1.373 . S
N134 C136 1.340 . S
N135 C132 1.368 . S
N135 C136 1.321 . S
N135 Co138 2.135 1_655 S
C136 N134 1.340 . S
C136 N135 1.321 . S
C136 H160 0.930 1_655 S
H137 C132 0.931 . S
Co138 N135 2.135 1_455 S
Co138 N141 2.121 . S
Co138 O146 2.055 . S
Co138 O149 2.039 . S
Co138 N152 2.140 . S
C139 O140 1.227 . S
C139 O149 1.265 . S
O140 C139 1.227 . S
N141 Co138 2.121 . S
N141 C143 1.375 . S
N141 C144 1.313 . S
C142 C143 1.338 . S
C142 N145 1.377 . S
C142 H162 0.930 . S
C143 N141 1.375 . S
C143 C142 1.338 . S
C143 H147 0.931 . S
C144 N141 1.313 . S
C144 N145 1.344 . S
C144 H148 0.930 . S
N145 C142 1.377 . S
N145 C144 1.344 . S
O146 Co138 2.055 . S
O146 C150 1.253 1_455 S
H147 C143 0.931 . S
H148 C144 0.930 . S
O149 Co138 2.039 . S
O149 C139 1.265 . S
C150 O146 1.253 1_655 S
C150 O151 1.227 . S
O151 C150 1.227 . S
N152 Co138 2.140 . S
N152 C155 1.346 . S
N152 C156 1.345 . S
C153 C154 1.387 . S
C153 C157 1.391 . S
C154 C153 1.387 . S
C154 C155 1.369 . S
C154 H163 0.929 . S
C155 N152 1.346 . S
C155 C154 1.369 . S
C155 H158 0.928 . S
C156 N152 1.345 . S
C156 C157 1.371 . S
C156 H159 0.931 . S
C157 C153 1.391 . S
C157 C156 1.371 . S
C157 H164 0.930 . S
H158 C155 0.928 . S
H159 C156 0.931 . S
H160 C136 0.930 1_455 S
H161 C133 0.930 . S
H162 C142 0.930 . S
H163 C154 0.929 . S
H164 C157 0.930 . S
C165 C166 1.351 . S
C165 N168 1.368 . S
C165 H170 0.931 . S
C166 C165 1.351 . S
C166 N167 1.373 . S
C166 H194 0.930 . S
N167 C166 1.373 . S
N167 C169 1.340 . S
N168 C165 1.368 . S
N168 C169 1.321 . S
N168 Co171 2.135 1_565 S
C169 N167 1.340 . S
C169 N168 1.321 . S
C169 H193 0.930 1_565 S
H170 C165 0.931 . S
Co171 N168 2.135 1_545 S
Co171 N174 2.121 . S
Co171 O179 2.055 . S
Co171 O182 2.039 . S
Co171 N185 2.140 . S
C172 O173 1.227 . S
C172 O182 1.265 . S
O173 C172 1.227 . S
N174 Co171 2.121 . S
N174 C176 1.375 . S
N174 C177 1.313 . S
C175 C176 1.338 . S
C175 N178 1.377 . S
C175 H195 0.930 . S
C176 N174 1.375 . S
C176 C175 1.338 . S
C176 H180 0.931 . S
C177 N174 1.313 . S
C177 N178 1.344 . S
C177 H181 0.930 . S
N178 C175 1.377 . S
N178 C177 1.344 . S
O179 Co171 2.055 . S
O179 C183 1.253 1_545 S
H180 C176 0.931 . S
H181 C177 0.930 . S
O182 Co171 2.039 . S
O182 C172 1.265 . S
C183 O179 1.253 1_565 S
C183 O184 1.227 . S
O184 C183 1.227 . S
N185 Co171 2.140 . S
N185 C188 1.346 . S
N185 C189 1.345 . S
C186 C187 1.387 . S
C186 C190 1.391 . S
C187 C186 1.387 . S
C187 C188 1.369 . S
C187 H196 0.929 . S
C188 N185 1.346 . S
C188 C187 1.369 . S
C188 H191 0.928 . S
C189 N185 1.345 . S
C189 C190 1.371 . S
C189 H192 0.931 . S
C190 C186 1.391 . S
C190 C189 1.371 . S
C190 H197 0.930 . S
H191 C188 0.928 . S
H192 C189 0.931 . S
H193 C169 0.930 1_545 S
H194 C166 0.930 . S
H195 C175 0.930 . S
H196 C187 0.929 . S
H197 C190 0.930 . S
C198 C199 1.351 . S
C198 N201 1.368 . S
C198 H203 0.931 . S
C199 C198 1.351 . S
C199 N200 1.373 . S
C199 H227 0.930 . S
N200 C199 1.373 . S
N200 C202 1.340 . S
N201 C198 1.368 . S
N201 C202 1.321 . S
N201 Co204 2.135 . S
C202 N200 1.340 . S
C202 N201 1.321 . S
C202 H226 0.930 . S
H203 C198 0.931 . S
Co204 N201 2.135 . S
Co204 N207 2.121 . S
Co204 O212 2.055 . S
Co204 O215 2.039 . S
Co204 N218 2.140 . S
C205 O206 1.227 . S
C205 O215 1.265 . S
O206 C205 1.227 . S
N207 Co204 2.121 . S
N207 C209 1.375 . S
N207 C210 1.313 . S
C208 C209 1.338 1_655 S
C208 N211 1.377 1_655 S
C208 H228 0.930 . S
C209 N207 1.375 . S
C209 C208 1.338 1_455 S
C209 H213 0.931 . S
C210 N207 1.313 . S
C210 N211 1.344 . S
C210 H214 0.930 . S
N211 C208 1.377 1_455 S
N211 C210 1.344 . S
O212 Co204 2.055 . S
O212 C216 1.253 . S
H213 C209 0.931 . S
H214 C210 0.930 . S
O215 Co204 2.039 . S
O215 C205 1.265 . S
C216 O212 1.253 . S
C216 O217 1.227 . S
O217 C216 1.227 . S
N218 Co204 2.140 . S
N218 C221 1.346 . S
N218 C222 1.345 . S
C219 C220 1.387 . S
C219 C223 1.391 . S
C220 C219 1.387 . S
C220 C221 1.369 . S
C220 H229 0.929 . S
C221 N218 1.346 . S
C221 C220 1.369 . S
C221 H224 0.928 . S
C222 N218 1.345 . S
C222 C223 1.371 . S
C222 H225 0.931 . S
C223 C219 1.391 . S
C223 C222 1.371 . S
C223 H230 0.930 . S
H224 C221 0.928 . S
H225 C222 0.931 . S
H226 C202 0.930 . S
H227 C199 0.930 . S
H228 C208 0.930 . S
H229 C220 0.929 . S
H230 C223 0.930 . S
C231 C232 1.351 . S
C231 N234 1.368 . S
C231 H236 0.931 . S
C232 C231 1.351 . S
C232 N233 1.373 . S
C232 H260 0.930 . S
N233 C232 1.373 . S
N233 C235 1.340 . S
N234 C231 1.368 . S
N234 C235 1.321 . S
N234 Co237 2.135 . S
C235 N233 1.340 . S
C235 N234 1.321 . S
C235 H259 0.930 . S
H236 C231 0.931 . S
Co237 N234 2.135 . S
Co237 N240 2.121 . S
Co237 O245 2.055 . S
Co237 O248 2.039 . S
Co237 N251 2.140 . S
C238 O239 1.227 . S
C238 O248 1.265 . S
O239 C238 1.227 . S
N240 Co237 2.121 . S
N240 C242 1.375 . S
N240 C243 1.313 . S
C241 C242 1.338 1_565 S
C241 N244 1.377 1_565 S
C241 H261 0.930 . S
C242 N240 1.375 . S
C242 C241 1.338 1_545 S
C242 H246 0.931 . S
C243 N240 1.313 . S
C243 N244 1.344 . S
C243 H247 0.930 . S
N244 C241 1.377 1_545 S
N244 C243 1.344 . S
O245 Co237 2.055 . S
O245 C249 1.253 . S
H246 C242 0.931 . S
H247 C243 0.930 . S
O248 Co237 2.039 . S
O248 C238 1.265 . S
C249 O245 1.253 . S
C249 O250 1.227 . S
O250 C249 1.227 . S
N251 Co237 2.140 . S
N251 C254 1.346 . S
N251 C255 1.345 . S
C252 C253 1.387 . S
C252 C256 1.391 . S
C253 C252 1.387 . S
C253 C254 1.369 . S
C253 H262 0.929 . S
C254 N251 1.346 . S
C254 C253 1.369 . S
C254 H257 0.928 . S
C255 N251 1.345 . S
C255 C256 1.371 . S
C255 H258 0.931 . S
C256 C252 1.391 . S
C256 C255 1.371 . S
C256 H263 0.930 . S
H257 C254 0.928 . S
H258 C255 0.931 . S
H259 C235 0.930 . S
H260 C232 0.930 . S
H261 C241 0.930 . S
H262 C253 0.929 . S
H263 C256 0.930 . S
C264 C265 1.351 . S
C264 N267 1.368 . S
C264 H269 0.931 . S
C265 C264 1.351 . S
C265 N266 1.373 . S
C265 H293 0.930 . S
N266 C265 1.373 . S
N266 C268 1.340 . S
N267 C264 1.368 . S
N267 C268 1.321 . S
N267 Co270 2.135 . S
C268 N266 1.340 . S
C268 N267 1.321 . S
C268 H292 0.930 . S
H269 C264 0.931 . S
Co270 N267 2.135 . S
Co270 N273 2.121 . S
Co270 O278 2.055 . S
Co270 O281 2.039 . S
Co270 N284 2.140 . S
C271 O272 1.227 . S
C271 O281 1.265 . S
O272 C271 1.227 . S
N273 Co270 2.121 . S
N273 C275 1.375 . S
N273 C276 1.313 . S
C274 C275 1.338 . S
C274 N277 1.377 . S
C274 H294 0.930 . S
C275 N273 1.375 . S
C275 C274 1.338 . S
C275 H279 0.931 . S
C276 N273 1.313 . S
C276 N277 1.344 . S
C276 H280 0.930 . S
N277 C274 1.377 . S
N277 C276 1.344 . S
O278 Co270 2.055 . S
O278 C282 1.253 . S
H279 C275 0.931 . S
H280 C276 0.930 . S
O281 Co270 2.039 . S
O281 C271 1.265 . S
C282 O278 1.253 . S
C282 O283 1.227 . S
O283 C282 1.227 . S
N284 Co270 2.140 . S
N284 C287 1.346 . S
N284 C288 1.345 . S
C285 C286 1.387 . S
C285 C289 1.391 . S
C286 C285 1.387 . S
C286 C287 1.369 . S
C286 H295 0.929 . S
C287 N284 1.346 . S
C287 C286 1.369 . S
C287 H290 0.928 . S
C288 N284 1.345 . S
C288 C289 1.371 . S
C288 H291 0.931 . S
C289 C285 1.391 . S
C289 C288 1.371 . S
C289 H296 0.930 . S
H290 C287 0.928 . S
H291 C288 0.931 . S
H292 C268 0.930 . S
H293 C265 0.930 . S
H294 C274 0.930 . S
H295 C286 0.929 . S
H296 C289 0.930 . S
C297 C298 1.351 . S
C297 N300 1.368 . S
C297 H302 0.931 . S
C298 C297 1.351 . S
C298 N299 1.373 . S
C298 H326 0.930 . S
N299 C298 1.373 . S
N299 C301 1.340 . S
N300 C297 1.368 . S
N300 C301 1.321 . S
N300 Co303 2.135 . S
C301 N299 1.340 . S
C301 N300 1.321 . S
C301 H325 0.930 . S
H302 C297 0.931 . S
Co303 N300 2.135 . S
Co303 N306 2.121 . S
Co303 O311 2.055 . S
Co303 O314 2.039 . S
Co303 N317 2.140 . S
C304 O305 1.227 . S
C304 O314 1.265 . S
O305 C304 1.227 . S
N306 Co303 2.121 . S
N306 C308 1.375 . S
N306 C309 1.313 . S
C307 C308 1.338 . S
C307 N310 1.377 . S
C307 H327 0.930 . S
C308 N306 1.375 . S
C308 C307 1.338 . S
C308 H312 0.931 . S
C309 N306 1.313 . S
C309 N310 1.344 . S
C309 H313 0.930 . S
N310 C307 1.377 . S
N310 C309 1.344 . S
O311 Co303 2.055 . S
O311 C315 1.253 . S
H312 C308 0.931 . S
H313 C309 0.930 . S
O314 Co303 2.039 . S
O314 C304 1.265 . S
C315 O311 1.253 . S
C315 O316 1.227 . S
O316 C315 1.227 . S
N317 Co303 2.140 . S
N317 C320 1.346 . S
N317 C321 1.345 . S
C318 C319 1.387 . S
C318 C322 1.391 . S
C319 C318 1.387 . S
C319 C320 1.369 . S
C319 H328 0.929 . S
C320 N317 1.346 . S
C320 C319 1.369 . S
C320 H323 0.928 . S
C321 N317 1.345 . S
C321 C322 1.371 . S
C321 H324 0.931 . S
C322 C318 1.391 . S
C322 C321 1.371 . S
C322 H329 0.930 . S
H323 C320 0.928 . S
H324 C321 0.931 . S
H325 C301 0.930 . S
H326 C298 0.930 . S
H327 C307 0.930 . S
H328 C319 0.929 . S
H329 C322 0.930 . S
C330 C331 1.351 . S
C330 N333 1.368 . S
C330 H335 0.931 . S
C331 C330 1.351 . S
C331 N332 1.373 . S
C331 H359 0.930 . S
N332 C331 1.373 . S
N332 C334 1.340 . S
N333 C330 1.368 . S
N333 C334 1.321 . S
N333 Co336 2.135 . S
C334 N332 1.340 . S
C334 N333 1.321 . S
C334 H358 0.930 . S
H335 C330 0.931 . S
Co336 N333 2.135 . S
Co336 N339 2.121 . S
Co336 O344 2.055 . S
Co336 O347 2.039 . S
Co336 N350 2.140 . S
C337 O338 1.227 . S
C337 O347 1.265 . S
O338 C337 1.227 . S
N339 Co336 2.121 . S
N339 C341 1.375 . S
N339 C342 1.313 . S
C340 C341 1.338 . S
C340 N343 1.377 . S
C340 H360 0.930 . S
C341 N339 1.375 . S
C341 C340 1.338 . S
C341 H345 0.931 . S
C342 N339 1.313 . S
C342 N343 1.344 . S
C342 H346 0.930 . S
N343 C340 1.377 . S
N343 C342 1.344 . S
O344 Co336 2.055 . S
O344 C348 1.253 . S
H345 C341 0.931 . S
H346 C342 0.930 . S
O347 Co336 2.039 . S
O347 C337 1.265 . S
C348 O344 1.253 . S
C348 O349 1.227 . S
O349 C348 1.227 . S
N350 Co336 2.140 . S
N350 C353 1.346 . S
N350 C354 1.345 . S
C351 C352 1.387 . S
C351 C355 1.391 . S
C352 C351 1.387 . S
C352 C353 1.369 . S
C352 H361 0.929 . S
C353 N350 1.346 . S
C353 C352 1.369 . S
C353 H356 0.928 . S
C354 N350 1.345 . S
C354 C355 1.371 . S
C354 H357 0.931 . S
C355 C351 1.391 . S
C355 C354 1.371 . S
C355 H362 0.930 . S
H356 C353 0.928 . S
H357 C354 0.931 . S
H358 C334 0.930 . S
H359 C331 0.930 . S
H360 C340 0.930 . S
H361 C352 0.929 . S
H362 C355 0.930 . S
C363 C364 1.351 . S
C363 N366 1.368 . S
C363 H368 0.931 . S
C364 C363 1.351 . S
C364 N365 1.373 . S
C364 H392 0.930 . S
N365 C364 1.373 . S
N365 C367 1.340 . S
N366 C363 1.368 . S
N366 C367 1.321 . S
N366 Co369 2.135 . S
C367 N365 1.340 . S
C367 N366 1.321 . S
C367 H391 0.930 . S
H368 C363 0.931 . S
Co369 N366 2.135 . S
Co369 N372 2.121 . S
Co369 O377 2.055 . S
Co369 O380 2.039 . S
Co369 N383 2.140 . S
C370 O371 1.227 . S
C370 O380 1.265 . S
O371 C370 1.227 . S
N372 Co369 2.121 . S
N372 C374 1.375 . S
N372 C375 1.313 . S
C373 C374 1.338 . S
C373 N376 1.377 . S
C373 H393 0.930 . S
C374 N372 1.375 . S
C374 C373 1.338 . S
C374 H378 0.931 . S
C375 N372 1.313 . S
C375 N376 1.344 . S
C375 H379 0.930 . S
N376 C373 1.377 . S
N376 C375 1.344 . S
O377 Co369 2.055 . S
O377 C381 1.253 . S
H378 C374 0.931 . S
H379 C375 0.930 . S
O380 Co369 2.039 . S
O380 C370 1.265 . S
C381 O377 1.253 . S
C381 O382 1.227 . S
O382 C381 1.227 . S
N383 Co369 2.140 . S
N383 C386 1.346 . S
N383 C387 1.345 . S
C384 C385 1.387 . S
C384 C388 1.391 . S
C385 C384 1.387 . S
C385 C386 1.369 . S
C385 H394 0.929 . S
C386 N383 1.346 . S
C386 C385 1.369 . S
C386 H389 0.928 . S
C387 N383 1.345 . S
C387 C388 1.371 . S
C387 H390 0.931 . S
C388 C384 1.391 . S
C388 C387 1.371 . S
C388 H395 0.930 . S
H389 C386 0.928 . S
H390 C387 0.931 . S
H391 C367 0.930 . S
H392 C364 0.930 . S
H393 C373 0.930 . S
H394 C385 0.929 . S
H395 C388 0.930 . S
C396 C397 1.351 . S
C396 N399 1.368 . S
C396 H401 0.931 . S
C397 C396 1.351 . S
C397 N398 1.373 . S
C397 H425 0.930 . S
N398 C397 1.373 . S
N398 C400 1.340 . S
N399 C396 1.368 . S
N399 C400 1.321 . S
N399 Co402 2.135 . S
C400 N398 1.340 . S
C400 N399 1.321 . S
C400 H424 0.930 . S
H401 C396 0.931 . S
Co402 N399 2.135 . S
Co402 N405 2.121 . S
Co402 O410 2.055 . S
Co402 O413 2.039 . S
Co402 N416 2.140 . S
C403 O404 1.227 . S
C403 O413 1.265 . S
O404 C403 1.227 . S
N405 Co402 2.121 . S
N405 C407 1.375 . S
N405 C408 1.313 . S
C406 C407 1.338 . S
C406 N409 1.377 . S
C406 H426 0.930 . S
C407 N405 1.375 . S
C407 C406 1.338 . S
C407 H411 0.931 . S
C408 N405 1.313 . S
C408 N409 1.344 . S
C408 H412 0.930 . S
N409 C406 1.377 . S
N409 C408 1.344 . S
O410 Co402 2.055 . S
O410 C414 1.253 . S
H411 C407 0.931 . S
H412 C408 0.930 . S
O413 Co402 2.039 . S
O413 C403 1.265 . S
C414 O410 1.253 . S
C414 O415 1.227 . S
O415 C414 1.227 . S
N416 Co402 2.140 . S
N416 C419 1.346 . S
N416 C420 1.345 . S
C417 C418 1.387 . S
C417 C421 1.391 . S
C418 C417 1.387 . S
C418 C419 1.369 . S
C418 H427 0.929 . S
C419 N416 1.346 . S
C419 C418 1.369 . S
C419 H422 0.928 . S
C420 N416 1.345 . S
C420 C421 1.371 . S
C420 H423 0.931 . S
C421 C417 1.391 . S
C421 C420 1.371 . S
C421 H428 0.930 . S
H422 C419 0.928 . S
H423 C420 0.931 . S
H424 C400 0.930 . S
H425 C397 0.930 . S
H426 C406 0.930 . S
H427 C418 0.929 . S
H428 C421 0.930 . S
C429 C430 1.351 . S
C429 N432 1.368 . S
C429 H434 0.931 . S
C430 C429 1.351 . S
C430 N431 1.373 . S
C430 H458 0.930 . S
N431 C430 1.373 . S
N431 C433 1.340 . S
N432 C429 1.368 . S
N432 C433 1.321 . S
N432 Co435 2.135 . S
C433 N431 1.340 . S
C433 N432 1.321 . S
C433 H457 0.930 . S
H434 C429 0.931 . S
Co435 N432 2.135 . S
Co435 N438 2.121 . S
Co435 O443 2.055 . S
Co435 O446 2.039 . S
Co435 N449 2.140 . S
C436 O437 1.227 . S
C436 O446 1.265 . S
O437 C436 1.227 . S
N438 Co435 2.121 . S
N438 C440 1.375 . S
N438 C441 1.313 . S
C439 C440 1.338 . S
C439 N442 1.377 . S
C439 H459 0.930 . S
C440 N438 1.375 . S
C440 C439 1.338 . S
C440 H444 0.931 . S
C441 N438 1.313 . S
C441 N442 1.344 . S
C441 H445 0.930 . S
N442 C439 1.377 . S
N442 C441 1.344 . S
O443 Co435 2.055 . S
O443 C447 1.253 . S
H444 C440 0.931 . S
H445 C441 0.930 . S
O446 Co435 2.039 . S
O446 C436 1.265 . S
C447 O443 1.253 . S
C447 O448 1.227 . S
O448 C447 1.227 . S
N449 Co435 2.140 . S
N449 C452 1.346 . S
N449 C453 1.345 . S
C450 C451 1.387 . S
C450 C454 1.391 . S
C451 C450 1.387 . S
C451 C452 1.369 . S
C451 H460 0.929 . S
C452 N449 1.346 . S
C452 C451 1.369 . S
C452 H455 0.928 . S
C453 N449 1.345 . S
C453 C454 1.371 . S
C453 H456 0.931 . S
C454 C450 1.391 . S
C454 C453 1.371 . S
C454 H461 0.930 . S
H455 C452 0.928 . S
H456 C453 0.931 . S
H457 C433 0.930 . S
H458 C430 0.930 . S
H459 C439 0.930 . S
H460 C451 0.929 . S
H461 C454 0.930 . S
C462 C463 1.351 . S
C462 N465 1.368 . S
C462 H467 0.931 . S
C463 C462 1.351 . S
C463 N464 1.373 . S
C463 H491 0.930 . S
N464 C463 1.373 . S
N464 C466 1.340 . S
N465 C462 1.368 . S
N465 C466 1.321 . S
N465 Co468 2.135 . S
C466 N464 1.340 . S
C466 N465 1.321 . S
C466 H490 0.930 . S
H467 C462 0.931 . S
Co468 N465 2.135 . S
Co468 N471 2.121 . S
Co468 O476 2.055 . S
Co468 O479 2.039 . S
Co468 N482 2.140 . S
C469 O470 1.227 . S
C469 O479 1.265 . S
O470 C469 1.227 . S
N471 Co468 2.121 . S
N471 C473 1.375 . S
N471 C474 1.313 . S
C472 C473 1.338 . S
C472 N475 1.377 . S
C472 H492 0.930 . S
C473 N471 1.375 . S
C473 C472 1.338 . S
C473 H477 0.931 . S
C474 N471 1.313 . S
C474 N475 1.344 . S
C474 H478 0.930 . S
N475 C472 1.377 . S
N475 C474 1.344 . S
O476 Co468 2.055 . S
O476 C480 1.253 . S
H477 C473 0.931 . S
H478 C474 0.930 . S
O479 Co468 2.039 . S
O479 C469 1.265 . S
C480 O476 1.253 . S
C480 O481 1.227 . S
O481 C480 1.227 . S
N482 Co468 2.140 . S
N482 C485 1.346 . S
N482 C486 1.345 . S
C483 C484 1.387 . S
C483 C487 1.391 . S
C484 C483 1.387 . S
C484 C485 1.369 . S
C484 H493 0.929 . S
C485 N482 1.346 . S
C485 C484 1.369 . S
C485 H488 0.928 . S
C486 N482 1.345 . S
C486 C487 1.371 . S
C486 H489 0.931 . S
C487 C483 1.391 . S
C487 C486 1.371 . S
C487 H494 0.930 . S
H488 C485 0.928 . S
H489 C486 0.931 . S
H490 C466 0.930 . S
H491 C463 0.930 . S
H492 C472 0.930 . S
H493 C484 0.929 . S
H494 C487 0.930 . S
C495 C496 1.351 . S
C495 N498 1.368 . S
C495 H500 0.931 . S
C496 C495 1.351 . S
C496 N497 1.373 . S
C496 H524 0.930 . S
N497 C496 1.373 . S
N497 C499 1.340 . S
N498 C495 1.368 . S
N498 C499 1.321 . S
N498 Co501 2.135 . S
C499 N497 1.340 . S
C499 N498 1.321 . S
C499 H523 0.930 . S
H500 C495 0.931 . S
Co501 N498 2.135 . S
Co501 N504 2.121 . S
Co501 O509 2.055 . S
Co501 O512 2.039 . S
Co501 N515 2.140 . S
C502 O503 1.227 . S
C502 O512 1.265 . S
O503 C502 1.227 . S
N504 Co501 2.121 . S
N504 C506 1.375 . S
N504 C507 1.313 . S
C505 C506 1.338 . S
C505 N508 1.377 . S
C505 H525 0.930 . S
C506 N504 1.375 . S
C506 C505 1.338 . S
C506 H510 0.931 . S
C507 N504 1.313 . S
C507 N508 1.344 . S
C507 H511 0.930 . S
N508 C505 1.377 . S
N508 C507 1.344 . S
O509 Co501 2.055 . S
O509 C513 1.253 . S
H510 C506 0.931 . S
H511 C507 0.930 . S
O512 Co501 2.039 . S
O512 C502 1.265 . S
C513 O509 1.253 . S
C513 O514 1.227 . S
O514 C513 1.227 . S
N515 Co501 2.140 . S
N515 C518 1.346 . S
N515 C519 1.345 . S
C516 C517 1.387 . S
C516 C520 1.391 . S
C517 C516 1.387 . S
C517 C518 1.369 . S
C517 H526 0.929 . S
C518 N515 1.346 . S
C518 C517 1.369 . S
C518 H521 0.928 . S
C519 N515 1.345 . S
C519 C520 1.371 . S
C519 H522 0.931 . S
C520 C516 1.391 . S
C520 C519 1.371 . S
C520 H527 0.930 . S
H521 C518 0.928 . S
H522 C519 0.931 . S
H523 C499 0.930 . S
H524 C496 0.930 . S
H525 C505 0.930 . S
H526 C517 0.929 . S
H527 C520 0.930 . S
H528 C546 0.951 . S
H529 C548 0.951 . S
H530 C550 0.950 . S
H531 C551 0.950 . S
H532 C553 0.950 . S
H533 C556 0.950 . S
H534 C557 0.950 1_655 S
H535 C559 0.950 . S
H536 C560 0.950 . S
H537 C561 0.951 . S
H538 C563 0.951 . S
H539 C565 0.950 . S
H540 C566 0.950 . S
H541 C568 0.950 . S
H542 C571 0.950 . S
H543 C572 0.950 . S
H544 C574 0.950 . S
H545 C575 0.950 . S
C546 H528 0.951 . S
C546 C547 1.366 . S
C546 C548 1.388 . S
C547 C546 1.366 . S
C547 C551 1.385 . S
C548 H529 0.951 . S
C548 C546 1.388 . S
C548 C549 1.366 . S
C549 C548 1.366 . S
C549 C550 1.414 . S
C549 C552 1.499 . S
C550 H530 0.950 . S
C550 C549 1.414 . S
C550 C551 1.374 . S
C551 H531 0.950 . S
C551 C547 1.385 . S
C551 C550 1.374 . S
C552 C549 1.499 . S
C552 C553 1.373 . S
C552 C554 1.389 . S
C553 H532 0.950 . S
C553 C552 1.373 . S
C553 C569 1.377 . S
C554 C552 1.389 . S
C554 C555 1.524 . S
C554 C568 1.377 . S
C555 C554 1.524 . S
C555 C556 1.397 . S
C555 C560 1.363 . S
C556 H533 0.950 . S
C556 C555 1.397 . S
C556 C557 1.334 . S
C557 H534 0.950 1_455 S
C557 C556 1.334 . S
C557 C558 1.287 . S
C558 C557 1.287 . S
C558 C559 1.524 . S
C558 H577 0.913 . S
C559 H535 0.950 . S
C559 C558 1.524 . S
C559 C560 1.415 . S
C560 H536 0.950 . S
C560 C555 1.363 . S
C560 C559 1.415 . S
C561 H537 0.951 . S
C561 C562 1.366 . S
C561 C563 1.388 . S
C562 C561 1.366 . S
C562 C566 1.385 . S
C563 H538 0.951 . S
C563 C561 1.388 . S
C563 C564 1.366 . S
C564 C563 1.366 . S
C564 C565 1.414 . S
C564 C567 1.499 . S
C565 H539 0.950 . S
C565 C564 1.414 . S
C565 C566 1.374 . S
C566 H540 0.950 . S
C566 C562 1.385 . S
C566 C565 1.374 . S
C567 C564 1.499 . S
C567 C568 1.373 . S
C567 C569 1.389 . S
C568 H541 0.950 . S
C568 C554 1.377 . S
C568 C567 1.373 . S
C569 C553 1.377 . S
C569 C567 1.389 . S
C569 C570 1.524 . S
C570 C569 1.524 . S
C570 C571 1.397 . S
C570 C575 1.363 . S
C571 H542 0.950 . S
C571 C570 1.397 . S
C571 C572 1.334 . S
C572 H543 0.950 . S
C572 C571 1.334 . S
C572 C573 1.287 . S
C573 C572 1.287 . S
C573 C574 1.524 . S
C573 H576 0.999 . S
C574 H544 0.950 . S
C574 C573 1.524 . S
C574 C575 1.415 . S
C575 H545 0.950 . S
C575 C570 1.363 . S
C575 C574 1.415 . S
H576 C573 0.999 . S
H577 C558 0.913 . S
H578 C596 0.951 . S
H579 C598 0.951 . S
H580 C600 0.950 . S
H581 C601 0.950 . S
H582 C603 0.950 . S
H583 C606 0.950 . S
H584 C607 0.950 . S
H585 C609 0.950 . S
H586 C610 0.950 . S
H587 C611 0.951 . S
H588 C613 0.951 . S
H589 C615 0.950 . S
H590 C616 0.950 . S
H591 C618 0.950 . S
H592 C621 0.950 . S
H593 C622 0.950 . S
H594 C624 0.950 . S
H595 C625 0.950 . S
C596 H578 0.951 . S
C596 C597 1.366 . S
C596 C598 1.388 . S
C597 C596 1.366 . S
C597 C601 1.385 . S
C598 H579 0.951 . S
C598 C596 1.388 . S
C598 C599 1.366 . S
C599 C598 1.366 . S
C599 C600 1.414 . S
C599 C602 1.499 . S
C600 H580 0.950 . S
C600 C599 1.414 . S
C600 C601 1.374 . S
C601 H581 0.950 . S
C601 C597 1.385 . S
C601 C600 1.374 . S
C602 C599 1.499 . S
C602 C603 1.373 . S
C602 C604 1.389 . S
C603 H582 0.950 . S
C603 C602 1.373 . S
C603 C619 1.377 . S
C604 C602 1.389 . S
C604 C605 1.524 . S
C604 C618 1.377 . S
C605 C604 1.524 . S
C605 C606 1.397 . S
C605 C610 1.363 . S
C606 H583 0.950 . S
C606 C605 1.397 . S
C606 C607 1.334 . S
C607 H584 0.950 . S
C607 C606 1.334 . S
C607 C608 1.287 . S
C608 C607 1.287 . S
C608 C609 1.524 . S
C608 H627 0.913 . S
C609 H585 0.950 . S
C609 C608 1.524 . S
C609 C610 1.415 . S
C610 H586 0.950 . S
C610 C605 1.363 . S
C610 C609 1.415 . S
C611 H587 0.951 . S
C611 C612 1.366 . S
C611 C613 1.388 . S
C612 C611 1.366 . S
C612 C616 1.385 . S
C613 H588 0.951 . S
C613 C611 1.388 . S
C613 C614 1.366 . S
C614 C613 1.366 . S
C614 C615 1.414 . S
C614 C617 1.499 . S
C615 H589 0.950 . S
C615 C614 1.414 . S
C615 C616 1.374 . S
C616 H590 0.950 . S
C616 C612 1.385 . S
C616 C615 1.374 . S
C617 C614 1.499 . S
C617 C618 1.373 . S
C617 C619 1.389 . S
C618 H591 0.950 . S
C618 C604 1.377 . S
C618 C617 1.373 . S
C619 C603 1.377 . S
C619 C617 1.389 . S
C619 C620 1.524 . S
C620 C619 1.524 . S
C620 C621 1.397 . S
C620 C625 1.363 . S
C621 H592 0.950 . S
C621 C620 1.397 . S
C621 C622 1.334 . S
C622 H593 0.950 . S
C622 C621 1.334 . S
C622 C623 1.287 . S
C623 C622 1.287 . S
C623 C624 1.524 . S
C623 H626 0.999 . S
C624 H594 0.950 . S
C624 C623 1.524 . S
C624 C625 1.415 . S
C625 H595 0.950 . S
C625 C620 1.363 . S
C625 C624 1.415 . S
H626 C623 0.999 . S
H627 C608 0.913 . S
H628 C646 0.951 . S
H629 C648 0.951 . S
H630 C650 0.950 . S
H631 C651 0.950 . S
H632 C653 0.950 . S
H633 C656 0.950 . S
H634 C657 0.950 . S
H635 C659 0.950 . S
H636 C660 0.950 . S
H637 C661 0.951 . S
H638 C663 0.951 . S
H639 C665 0.950 . S
H640 C666 0.950 . S
H641 C668 0.950 . S
H642 C671 0.950 . S
H643 C672 0.950 . S
H644 C674 0.950 . S
H645 C675 0.950 . S
C646 H628 0.951 . S
C646 C647 1.366 . S
C646 C648 1.388 . S
C647 C646 1.366 . S
C647 C651 1.385 . S
C648 H629 0.951 . S
C648 C646 1.388 . S
C648 C649 1.366 . S
C649 C648 1.366 . S
C649 C650 1.414 . S
C649 C652 1.499 . S
C650 H630 0.950 . S
C650 C649 1.414 . S
C650 C651 1.374 . S
C651 H631 0.950 . S
C651 C647 1.385 . S
C651 C650 1.374 . S
C652 C649 1.499 . S
C652 C653 1.373 . S
C652 C654 1.389 . S
C653 H632 0.950 . S
C653 C652 1.373 . S
C653 C669 1.377 . S
C654 C652 1.389 . S
C654 C655 1.524 . S
C654 C668 1.377 . S
C655 C654 1.524 . S
C655 C656 1.397 . S
C655 C660 1.363 . S
C656 H633 0.950 . S
C656 C655 1.397 . S
C656 C657 1.334 . S
C657 H634 0.950 . S
C657 C656 1.334 . S
C657 C658 1.287 . S
C658 C657 1.287 . S
C658 C659 1.524 . S
C658 H677 0.913 . S
C659 H635 0.950 . S
C659 C658 1.524 . S
C659 C660 1.415 . S
C660 H636 0.950 . S
C660 C655 1.363 . S
C660 C659 1.415 . S
C661 H637 0.951 . S
C661 C662 1.366 . S
C661 C663 1.388 . S
C662 C661 1.366 . S
C662 C666 1.385 . S
C663 H638 0.951 . S
C663 C661 1.388 . S
C663 C664 1.366 . S
C664 C663 1.366 . S
C664 C665 1.414 . S
C664 C667 1.499 . S
C665 H639 0.950 . S
C665 C664 1.414 . S
C665 C666 1.374 . S
C666 H640 0.950 . S
C666 C662 1.385 . S
C666 C665 1.374 . S
C667 C664 1.499 . S
C667 C668 1.373 . S
C667 C669 1.389 . S
C668 H641 0.950 . S
C668 C654 1.377 . S
C668 C667 1.373 . S
C669 C653 1.377 . S
C669 C667 1.389 . S
C669 C670 1.524 . S
C670 C669 1.524 . S
C670 C671 1.397 . S
C670 C675 1.363 1_455 S
C671 H642 0.950 . S
C671 C670 1.397 . S
C671 C672 1.334 1_455 S
C672 H643 0.950 . S
C672 C671 1.334 1_655 S
C672 C673 1.287 . S
C673 C672 1.287 . S
C673 C674 1.524 . S
C673 H676 0.999 . S
C674 H644 0.950 . S
C674 C673 1.524 . S
C674 C675 1.415 . S
C675 H645 0.950 . S
C675 C670 1.363 1_655 S
C675 C674 1.415 . S
H676 C673 0.999 . S
H677 C658 0.913 . S
H678 C696 0.951 . S
H679 C698 0.951 . S
H680 C700 0.950 . S
H681 C701 0.950 . S
H682 C703 0.950 . S
H683 C706 0.950 . S
H684 C707 0.950 . S
H685 C709 0.950 . S
H686 C710 0.953 1_545 S
H687 C711 0.951 . S
H688 C713 0.951 . S
H689 C715 0.950 . S
H690 C716 0.950 . S
H691 C718 0.950 . S
H692 C721 0.950 . S
H693 C722 0.950 . S
H694 C724 0.950 . S
H695 C725 0.950 . S
C696 H678 0.951 . S
C696 C697 1.366 . S
C696 C698 1.388 . S
C697 C696 1.366 . S
C697 C701 1.385 . S
C698 H679 0.951 . S
C698 C696 1.388 . S
C698 C699 1.366 . S
C699 C698 1.366 . S
C699 C700 1.414 . S
C699 C702 1.499 . S
C700 H680 0.950 . S
C700 C699 1.414 . S
C700 C701 1.374 . S
C701 H681 0.950 . S
C701 C697 1.385 . S
C701 C700 1.374 . S
C702 C699 1.499 . S
C702 C703 1.373 . S
C702 C704 1.389 . S
C703 H682 0.950 . S
C703 C702 1.373 . S
C703 C719 1.377 . S
C704 C702 1.389 . S
C704 C705 1.524 1_545 S
C704 C718 1.377 . S
C705 C704 1.524 1_565 S
C705 C706 1.397 . S
C705 C710 1.363 . S
C706 H683 0.950 . S
C706 C705 1.397 . S
C706 C707 1.334 . S
C707 H684 0.950 . S
C707 C706 1.334 . S
C707 C708 1.287 . S
C708 C707 1.287 . S
C708 C709 1.524 . S
C708 H727 0.913 . S
C709 H685 0.950 . S
C709 C708 1.524 . S
C709 C710 1.415 . S
C710 H686 0.953 1_565 S
C710 C705 1.363 . S
C710 C709 1.415 . S
C711 H687 0.951 . S
C711 C712 1.366 . S
C711 C713 1.388 . S
C712 C711 1.366 . S
C712 C716 1.385 . S
C713 H688 0.951 . S
C713 C711 1.388 . S
C713 C714 1.366 . S
C714 C713 1.366 . S
C714 C715 1.414 . S
C714 C717 1.499 . S
C715 H689 0.950 . S
C715 C714 1.414 . S
C715 C716 1.374 . S
C716 H690 0.950 . S
C716 C712 1.385 . S
C716 C715 1.374 . S
C717 C714 1.499 . S
C717 C718 1.373 . S
C717 C719 1.389 . S
C718 H691 0.950 . S
C718 C704 1.377 . S
C718 C717 1.373 . S
C719 C703 1.377 . S
C719 C717 1.389 . S
C719 C720 1.524 . S
C720 C719 1.524 . S
C720 C721 1.397 . S
C720 C725 1.363 . S
C721 H692 0.950 . S
C721 C720 1.397 . S
C721 C722 1.334 . S
C722 H693 0.950 . S
C722 C721 1.334 . S
C722 C723 1.287 . S
C723 C722 1.287 . S
C723 C724 1.524 . S
C723 H726 0.999 . S
C724 H694 0.950 . S
C724 C723 1.524 . S
C724 C725 1.415 . S
C725 H695 0.950 . S
C725 C720 1.363 . S
C725 C724 1.415 . S
H726 C723 0.999 . S
H727 C708 0.913 . S
H728 C746 0.951 . S
H729 C748 0.951 . S
H730 C750 0.950 . S
H731 C751 0.950 . S
H732 C753 0.950 . S
H733 C756 0.950 . S
H734 C757 0.950 . S
H735 C759 0.950 . S
H736 C760 0.950 . S
H737 C761 0.951 . S
H738 C763 0.951 . S
H739 C765 0.950 . S
H740 C766 0.950 . S
H741 C768 0.950 . S
H742 C771 0.950 . S
H743 C772 0.950 . S
H744 C774 0.950 . S
H745 C775 0.950 . S
C746 H728 0.951 . S
C746 C747 1.366 . S
C746 C748 1.388 . S
C747 C746 1.366 . S
C747 C751 1.385 . S
C748 H729 0.951 . S
C748 C746 1.388 . S
C748 C749 1.366 . S
C749 C748 1.366 . S
C749 C750 1.414 . S
C749 C752 1.499 . S
C750 H730 0.950 . S
C750 C749 1.414 . S
C750 C751 1.374 . S
C751 H731 0.950 . S
C751 C747 1.385 . S
C751 C750 1.374 . S
C752 C749 1.499 . S
C752 C753 1.373 . S
C752 C754 1.389 . S
C753 H732 0.950 . S
C753 C752 1.373 . S
C753 C769 1.377 1_556 S
C754 C752 1.389 . S
C754 C755 1.524 . S
C754 C768 1.377 1_556 S
C755 C754 1.524 . S
C755 C756 1.397 . S
C755 C760 1.363 . S
C756 H733 0.950 . S
C756 C755 1.397 . S
C756 C757 1.334 . S
C757 H734 0.950 . S
C757 C756 1.334 . S
C757 C758 1.287 . S
C758 C757 1.287 . S
C758 C759 1.524 . S
C758 H777 0.913 . S
C759 H735 0.950 . S
C759 C758 1.524 . S
C759 C760 1.415 . S
C760 H736 0.950 . S
C760 C755 1.363 . S
C760 C759 1.415 . S
C761 H737 0.951 . S
C761 C762 1.366 . S
C761 C763 1.388 . S
C762 C761 1.366 . S
C762 C766 1.385 . S
C763 H738 0.951 . S
C763 C761 1.388 . S
C763 C764 1.366 . S
C764 C763 1.366 . S
C764 C765 1.414 . S
C764 C767 1.499 . S
C765 H739 0.950 . S
C765 C764 1.414 . S
C765 C766 1.374 . S
C766 H740 0.950 . S
C766 C762 1.385 . S
C766 C765 1.374 . S
C767 C764 1.499 . S
C767 C768 1.373 . S
C767 C769 1.389 . S
C768 H741 0.950 . S
C768 C754 1.377 1_554 S
C768 C767 1.373 . S
C769 C753 1.377 1_554 S
C769 C767 1.389 . S
C769 C770 1.524 . S
C770 C769 1.524 . S
C770 C771 1.397 . S
C770 C775 1.363 . S
C771 H742 0.950 . S
C771 C770 1.397 . S
C771 C772 1.334 . S
C772 H743 0.950 . S
C772 C771 1.334 . S
C772 C773 1.287 . S
C773 C772 1.287 . S
C773 C774 1.524 . S
C773 H776 0.999 . S
C774 H744 0.950 . S
C774 C773 1.524 . S
C774 C775 1.415 . S
C775 H745 0.950 . S
C775 C770 1.363 . S
C775 C774 1.415 . S
H776 C773 0.999 . S
H777 C758 0.913 . S
H778 C796 0.951 . S
H779 C798 0.951 . S
H780 C800 0.950 . S
H781 C801 0.950 . S
H782 C803 0.950 . S
H783 C806 0.950 . S
H784 C807 0.950 . S
H785 C809 0.950 . S
H786 C810 0.950 . S
H787 C811 0.951 . S
H788 C813 0.951 . S
H789 C815 0.950 . S
H790 C816 0.950 . S
H791 C818 0.950 . S
H792 C821 0.950 . S
H793 C822 0.950 . S
H794 C824 0.950 . S
H795 C825 0.950 . S
C796 H778 0.951 . S
C796 C797 1.366 . S
C796 C798 1.388 . S
C797 C796 1.366 . S
C797 C801 1.385 . S
C798 H779 0.951 . S
C798 C796 1.388 . S
C798 C799 1.366 . S
C799 C798 1.366 . S
C799 C800 1.414 . S
C799 C802 1.499 . S
C800 H780 0.950 . S
C800 C799 1.414 . S
C800 C801 1.374 . S
C801 H781 0.950 . S
C801 C797 1.385 . S
C801 C800 1.374 . S
C802 C799 1.499 . S
C802 C803 1.373 . S
C802 C804 1.389 . S
C803 H782 0.950 . S
C803 C802 1.373 . S
C803 C819 1.377 1_556 S
C804 C802 1.389 . S
C804 C805 1.524 . S
C804 C818 1.377 1_556 S
C805 C804 1.524 . S
C805 C806 1.397 . S
C805 C810 1.363 . S
C806 H783 0.950 . S
C806 C805 1.397 . S
C806 C807 1.334 . S
C807 H784 0.950 . S
C807 C806 1.334 . S
C807 C808 1.287 . S
C808 C807 1.287 . S
C808 C809 1.524 . S
C808 H827 0.913 . S
C809 H785 0.950 . S
C809 C808 1.524 . S
C809 C810 1.415 . S
C810 H786 0.950 . S
C810 C805 1.363 . S
C810 C809 1.415 . S
C811 H787 0.951 . S
C811 C812 1.366 . S
C811 C813 1.388 . S
C812 C811 1.366 . S
C812 C816 1.385 . S
C813 H788 0.951 . S
C813 C811 1.388 . S
C813 C814 1.366 . S
C814 C813 1.366 . S
C814 C815 1.414 . S
C814 C817 1.499 . S
C815 H789 0.950 . S
C815 C814 1.414 . S
C815 C816 1.374 . S
C816 H790 0.950 . S
C816 C812 1.385 . S
C816 C815 1.374 . S
C817 C814 1.499 . S
C817 C818 1.373 . S
C817 C819 1.389 . S
C818 H791 0.950 . S
C818 C804 1.377 1_554 S
C818 C817 1.373 . S
C819 C803 1.377 1_554 S
C819 C817 1.389 . S
C819 C820 1.524 . S
C820 C819 1.524 . S
C820 C821 1.397 . S
C820 C825 1.363 . S
C821 H792 0.950 . S
C821 C820 1.397 . S
C821 C822 1.334 . S
C822 H793 0.950 . S
C822 C821 1.334 . S
C822 C823 1.287 . S
C823 C822 1.287 . S
C823 C824 1.524 . S
C823 H826 0.999 . S
C824 H794 0.950 . S
C824 C823 1.524 . S
C824 C825 1.415 . S
C825 H795 0.950 . S
C825 C820 1.363 . S
C825 C824 1.415 . S
H826 C823 0.999 . S
H827 C808 0.913 . S
H828 C846 0.951 . S
H829 C848 0.951 . S
H830 C850 0.950 . S
H831 C851 0.950 . S
H832 C853 0.950 . S
H833 C856 0.950 . S
H834 C857 0.950 . S
H835 C859 0.950 . S
H836 C860 0.950 . S
H837 C861 0.951 . S
H838 C863 0.951 . S
H839 C865 0.950 . S
H840 C866 0.950 . S
H841 C868 0.950 . S
H842 C871 0.950 . S
H843 C872 0.950 . S
H844 C874 0.950 . S
H845 C875 0.950 . S
C846 H828 0.951 . S
C846 C847 1.366 . S
C846 C848 1.388 . S
C847 C846 1.366 . S
C847 C851 1.385 . S
C848 H829 0.951 . S
C848 C846 1.388 . S
C848 C849 1.366 . S
C849 C848 1.366 . S
C849 C850 1.414 . S
C849 C852 1.499 . S
C850 H830 0.950 . S
C850 C849 1.414 . S
C850 C851 1.374 . S
C851 H831 0.950 . S
C851 C847 1.385 . S
C851 C850 1.374 . S
C852 C849 1.499 . S
C852 C853 1.373 . S
C852 C854 1.389 . S
C853 H832 0.950 . S
C853 C852 1.373 . S
C853 C869 1.377 1_556 S
C854 C852 1.389 . S
C854 C855 1.524 . S
C854 C868 1.377 1_556 S
C855 C854 1.524 . S
C855 C856 1.397 . S
C855 C860 1.363 . S
C856 H833 0.950 . S
C856 C855 1.397 . S
C856 C857 1.334 . S
C857 H834 0.950 . S
C857 C856 1.334 . S
C857 C858 1.287 . S
C858 C857 1.287 . S
C858 C859 1.524 . S
C858 H877 0.913 . S
C859 H835 0.950 . S
C859 C858 1.524 . S
C859 C860 1.415 . S
C860 H836 0.950 . S
C860 C855 1.363 . S
C860 C859 1.415 . S
C861 H837 0.951 . S
C861 C862 1.366 . S
C861 C863 1.388 . S
C862 C861 1.366 . S
C862 C866 1.385 . S
C863 H838 0.951 . S
C863 C861 1.388 . S
C863 C864 1.366 . S
C864 C863 1.366 . S
C864 C865 1.414 . S
C864 C867 1.499 . S
C865 H839 0.950 . S
C865 C864 1.414 . S
C865 C866 1.374 . S
C866 H840 0.950 . S
C866 C862 1.385 . S
C866 C865 1.374 . S
C867 C864 1.499 . S
C867 C868 1.373 . S
C867 C869 1.389 . S
C868 H841 0.950 . S
C868 C854 1.377 1_554 S
C868 C867 1.373 . S
C869 C853 1.377 1_554 S
C869 C867 1.389 . S
C869 C870 1.524 . S
C870 C869 1.524 . S
C870 C871 1.397 . S
C870 C875 1.363 . S
C871 H842 0.950 . S
C871 C870 1.397 . S
C871 C872 1.334 . S
C872 H843 0.950 . S
C872 C871 1.334 . S
C872 C873 1.287 . S
C873 C872 1.287 . S
C873 C874 1.524 . S
C873 H876 0.999 . S
C874 H844 0.950 . S
C874 C873 1.524 . S
C874 C875 1.415 . S
C875 H845 0.950 . S
C875 C870 1.363 . S
C875 C874 1.415 . S
H876 C873 0.999 . S
H877 C858 0.913 . S
H878 C896 0.951 . S
H879 C898 0.951 . S
H880 C900 0.950 . S
H881 C901 0.950 . S
H882 C903 0.950 . S
H883 C906 0.950 . S
H884 C907 0.950 . S
H885 C909 0.950 . S
H886 C910 0.950 . S
H887 C911 0.951 . S
H888 C913 0.951 . S
H889 C915 0.950 . S
H890 C916 0.950 . S
H891 C918 0.950 . S
H892 C921 0.950 . S
H893 C922 0.950 . S
H894 C924 0.950 . S
H895 C925 0.950 . S
C896 H878 0.951 . S
C896 C897 1.366 . S
C896 C898 1.388 . S
C897 C896 1.366 . S
C897 C901 1.385 . S
C898 H879 0.951 . S
C898 C896 1.388 . S
C898 C899 1.366 . S
C899 C898 1.366 . S
C899 C900 1.414 . S
C899 C902 1.499 . S
C900 H880 0.950 . S
C900 C899 1.414 . S
C900 C901 1.374 . S
C901 H881 0.950 . S
C901 C897 1.385 . S
C901 C900 1.374 . S
C902 C899 1.499 . S
C902 C903 1.373 . S
C902 C904 1.389 . S
C903 H882 0.950 . S
C903 C902 1.373 . S
C903 C919 1.377 1_554 S
C904 C902 1.389 . S
C904 C905 1.524 . S
C904 C918 1.377 1_554 S
C905 C904 1.524 . S
C905 C906 1.397 . S
C905 C910 1.363 . S
C906 H883 0.950 . S
C906 C905 1.397 . S
C906 C907 1.334 . S
C907 H884 0.950 . S
C907 C906 1.334 . S
C907 C908 1.287 . S
C908 C907 1.287 . S
C908 C909 1.524 . S
C908 H927 0.913 . S
C909 H885 0.950 . S
C909 C908 1.524 . S
C909 C910 1.415 . S
C910 H886 0.950 . S
C910 C905 1.363 . S
C910 C909 1.415 . S
C911 H887 0.951 . S
C911 C912 1.366 . S
C911 C913 1.388 . S
C912 C911 1.366 . S
C912 C916 1.385 . S
C913 H888 0.951 . S
C913 C911 1.388 . S
C913 C914 1.366 . S
C914 C913 1.366 . S
C914 C915 1.414 . S
C914 C917 1.499 . S
C915 H889 0.950 . S
C915 C914 1.414 . S
C915 C916 1.374 . S
C916 H890 0.950 . S
C916 C912 1.385 . S
C916 C915 1.374 . S
C917 C914 1.499 . S
C917 C918 1.373 . S
C917 C919 1.389 . S
C918 H891 0.950 . S
C918 C904 1.377 1_556 S
C918 C917 1.373 . S
C919 C903 1.377 1_556 S
C919 C917 1.389 . S
C919 C920 1.524 . S
C920 C919 1.524 . S
C920 C921 1.397 . S
C920 C925 1.363 . S
C921 H892 0.950 . S
C921 C920 1.397 . S
C921 C922 1.334 . S
C922 H893 0.950 . S
C922 C921 1.334 . S
C922 C923 1.287 . S
C923 C922 1.287 . S
C923 C924 1.524 . S
C923 H926 0.999 . S
C924 H894 0.950 . S
C924 C923 1.524 . S
C924 C925 1.415 . S
C925 H895 0.950 . S
C925 C920 1.363 . S
C925 C924 1.415 . S
H926 C923 0.999 . S
H927 C908 0.913 . S
H928 C946 0.951 . S
H929 C948 0.951 . S
H930 C950 0.950 . S
H931 C951 0.950 . S
H932 C953 0.950 . S
H933 C956 0.950 . S
H934 C957 0.950 . S
H935 C959 0.950 . S
H936 C960 0.950 . S
H937 C961 0.951 . S
H938 C963 0.951 . S
H939 C965 0.950 . S
H940 C966 0.950 . S
H941 C968 0.950 . S
H942 C971 0.950 . S
H943 C972 0.950 . S
H944 C974 0.950 . S
H945 C975 0.950 . S
C946 H928 0.951 . S
C946 C947 1.366 . S
C946 C948 1.388 . S
C947 C946 1.366 . S
C947 C951 1.385 . S
C948 H929 0.951 . S
C948 C946 1.388 . S
C948 C949 1.366 . S
C949 C948 1.366 . S
C949 C950 1.414 . S
C949 C952 1.499 . S
C950 H930 0.950 . S
C950 C949 1.414 . S
C950 C951 1.374 . S
C951 H931 0.950 . S
C951 C947 1.385 . S
C951 C950 1.374 . S
C952 C949 1.499 . S
C952 C953 1.373 . S
C952 C954 1.389 . S
C953 H932 0.950 . S
C953 C952 1.373 . S
C953 C969 1.377 . S
C954 C952 1.389 . S
C954 C955 1.524 . S
C954 C968 1.377 . S
C955 C954 1.524 . S
C955 C956 1.397 . S
C955 C960 1.363 . S
C956 H933 0.950 . S
C956 C955 1.397 . S
C956 C957 1.334 . S
C957 H934 0.950 . S
C957 C956 1.334 . S
C957 C958 1.287 . S
C958 C957 1.287 . S
C958 C959 1.524 . S
C958 H977 0.913 . S
C959 H935 0.950 . S
C959 C958 1.524 . S
C959 C960 1.415 . S
C960 H936 0.950 . S
C960 C955 1.363 . S
C960 C959 1.415 . S
C961 H937 0.951 . S
C961 C962 1.366 . S
C961 C963 1.388 . S
C962 C961 1.366 . S
C962 C966 1.385 . S
C963 H938 0.951 . S
C963 C961 1.388 . S
C963 C964 1.366 . S
C964 C963 1.366 . S
C964 C965 1.414 . S
C964 C967 1.499 . S
C965 H939 0.950 . S
C965 C964 1.414 . S
C965 C966 1.374 . S
C966 H940 0.950 . S
C966 C962 1.385 . S
C966 C965 1.374 . S
C967 C964 1.499 . S
C967 C968 1.373 . S
C967 C969 1.389 . S
C968 H941 0.950 . S
C968 C954 1.377 . S
C968 C967 1.373 . S
C969 C953 1.377 . S
C969 C967 1.389 . S
C969 C970 1.524 . S
C970 C969 1.524 . S
C970 C971 1.397 . S
C970 C975 1.363 . S
C971 H942 0.950 . S
C971 C970 1.397 . S
C971 C972 1.334 . S
C972 H943 0.950 . S
C972 C971 1.334 . S
C972 C973 1.287 . S
C973 C972 1.287 . S
C973 C974 1.524 . S
C973 H976 0.999 . S
C974 H944 0.950 . S
C974 C973 1.524 . S
C974 C975 1.415 . S
C975 H945 0.950 . S
C975 C970 1.363 . S
C975 C974 1.415 . S
H976 C973 0.999 . S
H977 C958 0.913 . S
H978 C996 0.951 . S
H979 C998 0.951 . S
H980 C1000 0.950 . S
H981 C1001 0.950 . S
H982 C1003 0.950 . S
H983 C1006 0.950 . S
H984 C1007 0.950 . S
H985 C1009 0.950 . S
H986 C1010 0.950 . S
H987 C1011 0.951 . S
H988 C1013 0.951 . S
H989 C1015 0.950 . S
H990 C1016 0.950 . S
H991 C1018 0.950 . S
H992 C1021 0.950 . S
H993 C1022 0.950 . S
H994 C1024 0.950 . S
H995 C1025 0.950 . S
C996 H978 0.951 . S
C996 C997 1.366 . S
C996 C998 1.388 . S
C997 C996 1.366 . S
C997 C1001 1.385 . S
C998 H979 0.951 . S
C998 C996 1.388 . S
C998 C999 1.366 . S
C999 C998 1.366 . S
C999 C1000 1.414 . S
C999 C1002 1.499 . S
C1000 H980 0.950 . S
C1000 C999 1.414 . S
C1000 C1001 1.374 . S
C1001 H981 0.950 . S
C1001 C997 1.385 . S
C1001 C1000 1.374 . S
C1002 C999 1.499 . S
C1002 C1003 1.373 . S
C1002 C1004 1.389 . S
C1003 H982 0.950 . S
C1003 C1002 1.373 . S
C1003 C1019 1.377 . S
C1004 C1002 1.389 . S
C1004 C1005 1.524 . S
C1004 C1018 1.377 . S
C1005 C1004 1.524 . S
C1005 C1006 1.397 . S
C1005 C1010 1.363 . S
C1006 H983 0.950 . S
C1006 C1005 1.397 . S
C1006 C1007 1.334 . S
C1007 H984 0.950 . S
C1007 C1006 1.334 . S
C1007 C1008 1.287 . S
C1008 C1007 1.287 . S
C1008 C1009 1.524 . S
C1008 H1027 0.913 . S
C1009 H985 0.950 . S
C1009 C1008 1.524 . S
C1009 C1010 1.415 . S
C1010 H986 0.950 . S
C1010 C1005 1.363 . S
C1010 C1009 1.415 . S
C1011 H987 0.951 . S
C1011 C1012 1.366 . S
C1011 C1013 1.388 . S
C1012 C1011 1.366 . S
C1012 C1016 1.385 . S
C1013 H988 0.951 . S
C1013 C1011 1.388 . S
C1013 C1014 1.366 . S
C1014 C1013 1.366 . S
C1014 C1015 1.414 . S
C1014 C1017 1.499 . S
C1015 H989 0.950 . S
C1015 C1014 1.414 . S
C1015 C1016 1.374 . S
C1016 H990 0.950 . S
C1016 C1012 1.385 . S
C1016 C1015 1.374 . S
C1017 C1014 1.499 . S
C1017 C1018 1.373 . S
C1017 C1019 1.389 . S
C1018 H991 0.950 . S
C1018 C1004 1.377 . S
C1018 C1017 1.373 . S
C1019 C1003 1.377 . S
C1019 C1017 1.389 . S
C1019 C1020 1.524 . S
C1020 C1019 1.524 . S
C1020 C1021 1.397 . S
C1020 C1025 1.363 . S
C1021 H992 0.950 . S
C1021 C1020 1.397 . S
C1021 C1022 1.334 . S
C1022 H993 0.950 . S
C1022 C1021 1.334 . S
C1022 C1023 1.287 . S
C1023 C1022 1.287 . S
C1023 C1024 1.524 . S
C1023 H1026 0.999 . S
C1024 H994 0.950 . S
C1024 C1023 1.524 . S
C1024 C1025 1.415 . S
C1025 H995 0.950 . S
C1025 C1020 1.363 . S
C1025 C1024 1.415 . S
H1026 C1023 0.999 . S
H1027 C1008 0.913 . S
H1028 C1046 0.951 . S
H1029 C1048 0.951 . S
H1030 C1050 0.950 . S
H1031 C1051 0.950 . S
H1032 C1053 0.950 . S
H1033 C1056 0.950 . S
H1034 C1057 0.950 . S
H1035 C1059 0.950 . S
H1036 C1060 0.950 . S
H1037 C1061 0.951 . S
H1038 C1063 0.951 . S
H1039 C1065 0.950 . S
H1040 C1066 0.950 . S
H1041 C1068 0.950 . S
H1042 C1071 0.950 . S
H1043 C1072 0.950 . S
H1044 C1074 0.950 . S
H1045 C1075 0.950 . S
C1046 H1028 0.951 . S
C1046 C1047 1.366 . S
C1046 C1048 1.388 . S
C1047 C1046 1.366 . S
C1047 C1051 1.385 . S
C1048 H1029 0.951 . S
C1048 C1046 1.388 . S
C1048 C1049 1.366 . S
C1049 C1048 1.366 . S
C1049 C1050 1.414 . S
C1049 C1052 1.499 . S
C1050 H1030 0.950 . S
C1050 C1049 1.414 . S
C1050 C1051 1.374 . S
C1051 H1031 0.950 . S
C1051 C1047 1.385 . S
C1051 C1050 1.374 . S
C1052 C1049 1.499 . S
C1052 C1053 1.373 . S
C1052 C1054 1.389 . S
C1053 H1032 0.950 . S
C1053 C1052 1.373 . S
C1053 C1069 1.377 . S
C1054 C1052 1.389 . S
C1054 C1055 1.524 . S
C1054 C1068 1.377 . S
C1055 C1054 1.524 . S
C1055 C1056 1.397 . S
C1055 C1060 1.363 . S
C1056 H1033 0.950 . S
C1056 C1055 1.397 . S
C1056 C1057 1.334 . S
C1057 H1034 0.950 . S
C1057 C1056 1.334 . S
C1057 C1058 1.287 . S
C1058 C1057 1.287 . S
C1058 C1059 1.524 . S
C1058 H1077 0.913 . S
C1059 H1035 0.950 . S
C1059 C1058 1.524 . S
C1059 C1060 1.415 . S
C1060 H1036 0.950 . S
C1060 C1055 1.363 . S
C1060 C1059 1.415 . S
C1061 H1037 0.951 . S
C1061 C1062 1.366 1_655 S
C1061 C1063 1.388 . S
C1062 C1061 1.366 1_455 S
C1062 C1066 1.385 . S
C1063 H1038 0.951 . S
C1063 C1061 1.388 . S
C1063 C1064 1.366 . S
C1064 C1063 1.366 . S
C1064 C1065 1.414 . S
C1064 C1067 1.499 . S
C1065 H1039 0.950 . S
C1065 C1064 1.414 . S
C1065 C1066 1.374 1_655 S
C1066 H1040 0.950 . S
C1066 C1062 1.385 . S
C1066 C1065 1.374 1_455 S
C1067 C1064 1.499 . S
C1067 C1068 1.373 . S
C1067 C1069 1.389 . S
C1068 H1041 0.950 . S
C1068 C1054 1.377 . S
C1068 C1067 1.373 . S
C1069 C1053 1.377 . S
C1069 C1067 1.389 . S
C1069 C1070 1.524 . S
C1070 C1069 1.524 . S
C1070 C1071 1.397 . S
C1070 C1075 1.363 . S
C1071 H1042 0.950 . S
C1071 C1070 1.397 . S
C1071 C1072 1.334 . S
C1072 H1043 0.950 . S
C1072 C1071 1.334 . S
C1072 C1073 1.287 . S
C1073 C1072 1.287 . S
C1073 C1074 1.524 . S
C1073 H1076 0.999 . S
C1074 H1044 0.950 . S
C1074 C1073 1.524 . S
C1074 C1075 1.415 . S
C1075 H1045 0.950 . S
C1075 C1070 1.363 . S
C1075 C1074 1.415 . S
H1076 C1073 0.999 . S
H1077 C1058 0.913 . S
H1078 C1096 0.951 . S
H1079 C1098 0.951 . S
H1080 C1100 0.950 . S
H1081 C1101 0.947 1_545 S
H1082 C1103 0.950 . S
H1083 C1106 0.950 . S
H1084 C1107 0.950 . S
H1085 C1109 0.950 . S
H1086 C1110 0.950 . S
H1087 C1111 0.951 . S
H1088 C1113 0.951 . S
H1089 C1115 0.950 . S
H1090 C1116 0.950 . S
H1091 C1118 0.950 . S
H1092 C1121 0.950 . S
H1093 C1122 0.950 . S
H1094 C1124 0.950 . S
H1095 C1125 0.950 . S
C1096 H1078 0.951 . S
C1096 C1097 1.366 . S
C1096 C1098 1.388 1_545 S
C1097 C1096 1.366 . S
C1097 C1101 1.378 1_545 S
C1098 H1079 0.951 . S
C1098 C1096 1.388 1_565 S
C1098 C1099 1.366 . S
C1099 C1098 1.366 . S
C1099 C1100 1.414 . S
C1099 C1102 1.499 . S
C1100 H1080 0.950 . S
C1100 C1099 1.414 . S
C1100 C1101 1.384 . S
C1101 H1081 0.947 1_565 S
C1101 C1097 1.378 1_565 S
C1101 C1100 1.384 . S
C1102 C1099 1.499 . S
C1102 C1103 1.373 . S
C1102 C1104 1.389 . S
C1103 H1082 0.950 . S
C1103 C1102 1.373 . S
C1103 C1119 1.377 . S
C1104 C1102 1.389 . S
C1104 C1105 1.524 . S
C1104 C1118 1.377 . S
C1105 C1104 1.524 . S
C1105 C1106 1.397 . S
C1105 C1110 1.363 . S
C1106 H1083 0.950 . S
C1106 C1105 1.397 . S
C1106 C1107 1.334 1_565 S
C1107 H1084 0.950 . S
C1107 C1106 1.334 1_545 S
C1107 C1108 1.287 . S
C1108 C1107 1.287 . S
C1108 C1109 1.524 . S
C1108 H1127 0.913 . S
C1109 H1085 0.950 . S
C1109 C1108 1.524 . S
C1109 C1110 1.415 1_545 S
C1110 H1086 0.950 . S
C1110 C1105 1.363 . S
C1110 C1109 1.415 1_565 S
C1111 H1087 0.951 . S
C1111 C1112 1.366 . S
C1111 C1113 1.388 . S
C1112 C1111 1.366 . S
C1112 C1116 1.385 . S
C1113 H1088 0.951 . S
C1113 C1111 1.388 . S
C1113 C1114 1.366 . S
C1114 C1113 1.366 . S
C1114 C1115 1.414 . S
C1114 C1117 1.499 . S
C1115 H1089 0.950 . S
C1115 C1114 1.414 . S
C1115 C1116 1.374 . S
C1116 H1090 0.950 . S
C1116 C1112 1.385 . S
C1116 C1115 1.374 . S
C1117 C1114 1.499 . S
C1117 C1118 1.373 . S
C1117 C1119 1.389 . S
C1118 H1091 0.950 . S
C1118 C1104 1.377 . S
C1118 C1117 1.373 . S
C1119 C1103 1.377 . S
C1119 C1117 1.389 . S
C1119 C1120 1.524 . S
C1120 C1119 1.524 . S
C1120 C1121 1.397 . S
C1120 C1125 1.363 . S
C1121 H1092 0.950 . S
C1121 C1120 1.397 . S
C1121 C1122 1.334 . S
C1122 H1093 0.950 . S
C1122 C1121 1.334 . S
C1122 C1123 1.287 . S
C1123 C1122 1.287 . S
C1123 C1124 1.524 . S
C1123 H1126 0.999 . S
C1124 H1094 0.950 . S
C1124 C1123 1.524 . S
C1124 C1125 1.415 . S
C1125 H1095 0.950 . S
C1125 C1120 1.363 . S
C1125 C1124 1.415 . S
H1126 C1123 0.999 . S
H1127 C1108 0.913 . S
H1128 C1146 0.951 . S
H1129 C1148 0.951 . S
H1130 C1150 0.950 . S
H1131 C1151 0.950 . S
H1132 C1153 0.950 . S
H1133 C1156 0.950 . S
H1134 C1157 0.950 . S
H1135 C1159 0.950 . S
H1136 C1160 0.950 . S
H1137 C1161 0.951 . S
H1138 C1163 0.951 . S
H1139 C1165 0.950 . S
H1140 C1166 0.950 . S
H1141 C1168 0.950 . S
H1142 C1171 0.950 . S
H1143 C1172 0.950 . S
H1144 C1174 0.950 . S
H1145 C1175 0.950 . S
C1146 H1128 0.951 . S
C1146 C1147 1.366 . S
C1146 C1148 1.388 . S
C1147 C1146 1.366 . S
C1147 C1151 1.385 . S
C1148 H1129 0.951 . S
C1148 C1146 1.388 . S
C1148 C1149 1.366 . S
C1149 C1148 1.366 . S
C1149 C1150 1.414 . S
C1149 C1152 1.499 . S
C1150 H1130 0.950 . S
C1150 C1149 1.414 . S
C1150 C1151 1.374 . S
C1151 H1131 0.950 . S
C1151 C1147 1.385 . S
C1151 C1150 1.374 . S
C1152 C1149 1.499 . S
C1152 C1153 1.373 . S
C1152 C1154 1.389 . S
C1153 H1132 0.950 . S
C1153 C1152 1.373 . S
C1153 C1169 1.377 . S
C1154 C1152 1.389 . S
C1154 C1155 1.524 . S
C1154 C1168 1.377 . S
C1155 C1154 1.524 . S
C1155 C1156 1.397 . S
C1155 C1160 1.363 . S
C1156 H1133 0.950 . S
C1156 C1155 1.397 . S
C1156 C1157 1.334 . S
C1157 H1134 0.950 . S
C1157 C1156 1.334 . S
C1157 C1158 1.287 . S
C1158 C1157 1.287 . S
C1158 C1159 1.524 . S
C1158 H1177 0.913 . S
C1159 H1135 0.950 . S
C1159 C1158 1.524 . S
C1159 C1160 1.415 . S
C1160 H1136 0.950 . S
C1160 C1155 1.363 . S
C1160 C1159 1.415 . S
C1161 H1137 0.951 . S
C1161 C1162 1.366 . S
C1161 C1163 1.388 . S
C1162 C1161 1.366 . S
C1162 C1166 1.385 . S
C1163 H1138 0.951 . S
C1163 C1161 1.388 . S
C1163 C1164 1.366 . S
C1164 C1163 1.366 . S
C1164 C1165 1.414 . S
C1164 C1167 1.499 . S
C1165 H1139 0.950 . S
C1165 C1164 1.414 . S
C1165 C1166 1.374 . S
C1166 H1140 0.950 . S
C1166 C1162 1.385 . S
C1166 C1165 1.374 . S
C1167 C1164 1.499 . S
C1167 C1168 1.373 . S
C1167 C1169 1.389 . S
C1168 H1141 0.950 . S
C1168 C1154 1.377 . S
C1168 C1167 1.373 . S
C1169 C1153 1.377 . S
C1169 C1167 1.389 . S
C1169 C1170 1.524 . S
C1170 C1169 1.524 . S
C1170 C1171 1.397 . S
C1170 C1175 1.363 . S
C1171 H1142 0.950 . S
C1171 C1170 1.397 . S
C1171 C1172 1.334 . S
C1172 H1143 0.950 . S
C1172 C1171 1.334 . S
C1172 C1173 1.287 . S
C1173 C1172 1.287 . S
C1173 C1174 1.524 . S
C1173 H1176 0.999 . S
C1174 H1144 0.950 . S
C1174 C1173 1.524 . S
C1174 C1175 1.415 . S
C1175 H1145 0.950 . S
C1175 C1170 1.363 . S
C1175 C1174 1.415 . S
H1176 C1173 0.999 . S
H1177 C1158 0.913 . S
H1178 C1196 0.951 . S
H1179 C1198 0.951 . S
H1180 C1200 0.950 . S
H1181 C1201 0.950 . S
H1182 C1203 0.950 . S
H1183 C1206 0.950 . S
H1184 C1207 0.950 . S
H1185 C1209 0.950 . S
H1186 C1210 0.950 . S
H1187 C1211 0.951 . S
H1188 C1213 0.951 . S
H1189 C1215 0.950 . S
H1190 C1216 0.950 . S
H1191 C1218 0.950 . S
H1192 C1221 0.950 . S
H1193 C1222 0.950 . S
H1194 C1224 0.950 . S
H1195 C1225 0.950 . S
C1196 H1178 0.951 . S
C1196 C1197 1.366 . S
C1196 C1198 1.388 . S
C1197 C1196 1.366 . S
C1197 C1201 1.385 . S
C1198 H1179 0.951 . S
C1198 C1196 1.388 . S
C1198 C1199 1.366 . S
C1199 C1198 1.366 . S
C1199 C1200 1.414 . S
C1199 C1202 1.499 . S
C1200 H1180 0.950 . S
C1200 C1199 1.414 . S
C1200 C1201 1.374 . S
C1201 H1181 0.950 . S
C1201 C1197 1.385 . S
C1201 C1200 1.374 . S
C1202 C1199 1.499 . S
C1202 C1203 1.373 . S
C1202 C1204 1.389 . S
C1203 H1182 0.950 . S
C1203 C1202 1.373 . S
C1203 C1219 1.377 . S
C1204 C1202 1.389 . S
C1204 C1205 1.524 . S
C1204 C1218 1.377 . S
C1205 C1204 1.524 . S
C1205 C1206 1.397 . S
C1205 C1210 1.363 . S
C1206 H1183 0.950 . S
C1206 C1205 1.397 . S
C1206 C1207 1.334 . S
C1207 H1184 0.950 . S
C1207 C1206 1.334 . S
C1207 C1208 1.287 . S
C1208 C1207 1.287 . S
C1208 C1209 1.524 . S
C1208 H1227 0.913 . S
C1209 H1185 0.950 . S
C1209 C1208 1.524 . S
C1209 C1210 1.415 . S
C1210 H1186 0.950 . S
C1210 C1205 1.363 . S
C1210 C1209 1.415 . S
C1211 H1187 0.951 . S
C1211 C1212 1.366 . S
C1211 C1213 1.388 . S
C1212 C1211 1.366 . S
C1212 C1216 1.385 . S
C1213 H1188 0.951 . S
C1213 C1211 1.388 . S
C1213 C1214 1.366 . S
C1214 C1213 1.366 . S
C1214 C1215 1.414 . S
C1214 C1217 1.499 . S
C1215 H1189 0.950 . S
C1215 C1214 1.414 . S
C1215 C1216 1.374 . S
C1216 H1190 0.950 . S
C1216 C1212 1.385 . S
C1216 C1215 1.374 . S
C1217 C1214 1.499 . S
C1217 C1218 1.373 . S
C1217 C1219 1.389 . S
C1218 H1191 0.950 . S
C1218 C1204 1.377 . S
C1218 C1217 1.373 . S
C1219 C1203 1.377 . S
C1219 C1217 1.389 . S
C1219 C1220 1.524 . S
C1220 C1219 1.524 . S
C1220 C1221 1.397 . S
C1220 C1225 1.363 . S
C1221 H1192 0.950 . S
C1221 C1220 1.397 . S
C1221 C1222 1.334 . S
C1222 H1193 0.950 . S
C1222 C1221 1.334 . S
C1222 C1223 1.287 . S
C1223 C1222 1.287 . S
C1223 C1224 1.524 . S
C1223 H1226 0.999 . S
C1224 H1194 0.950 . S
C1224 C1223 1.524 . S
C1224 C1225 1.415 . S
C1225 H1195 0.950 . S
C1225 C1220 1.363 . S
C1225 C1224 1.415 . S
H1226 C1223 0.999 . S
H1227 C1208 0.913 . S
H1228 C1246 0.951 . S
H1229 C1248 0.951 . S
H1230 C1250 0.950 . S
H1231 C1251 0.950 . S
H1232 C1253 0.950 . S
H1233 C1256 0.950 . S
H1234 C1257 0.950 . S
H1235 C1259 0.950 . S
H1236 C1260 0.950 . S
H1237 C1261 0.951 . S
H1238 C1263 0.951 . S
H1239 C1265 0.945 1_455 S
H1240 C1266 0.950 . S
H1241 C1268 0.950 . S
H1242 C1271 0.950 . S
H1243 C1272 0.950 . S
H1244 C1274 0.950 . S
H1245 C1275 0.950 . S
C1246 H1228 0.951 . S
C1246 C1247 1.366 . S
C1246 C1248 1.388 . S
C1247 C1246 1.366 . S
C1247 C1251 1.385 . S
C1248 H1229 0.951 . S
C1248 C1246 1.388 . S
C1248 C1249 1.366 . S
C1249 C1248 1.366 . S
C1249 C1250 1.414 . S
C1249 C1252 1.499 . S
C1250 H1230 0.950 . S
C1250 C1249 1.414 . S
C1250 C1251 1.374 . S
C1251 H1231 0.950 . S
C1251 C1247 1.385 . S
C1251 C1250 1.374 . S
C1252 C1249 1.499 . S
C1252 C1253 1.373 . S
C1252 C1254 1.389 . S
C1253 H1232 0.950 . S
C1253 C1252 1.373 . S
C1253 C1269 1.377 . S
C1254 C1252 1.389 . S
C1254 C1255 1.524 . S
C1254 C1268 1.377 . S
C1255 C1254 1.524 . S
C1255 C1256 1.397 . S
C1255 C1260 1.363 . S
C1256 H1233 0.950 . S
C1256 C1255 1.397 . S
C1256 C1257 1.334 . S
C1257 H1234 0.950 . S
C1257 C1256 1.334 . S
C1257 C1258 1.287 . S
C1258 C1257 1.287 . S
C1258 C1259 1.524 . S
C1258 H1277 0.913 . S
C1259 H1235 0.950 . S
C1259 C1258 1.524 . S
C1259 C1260 1.415 . S
C1260 H1236 0.950 . S
C1260 C1255 1.363 . S
C1260 C1259 1.415 . S
C1261 H1237 0.951 . S
C1261 C1262 1.366 1_655 S
C1261 C1263 1.388 . S
C1262 C1261 1.366 1_455 S
C1262 C1266 1.385 . S
C1263 H1238 0.951 . S
C1263 C1261 1.388 . S
C1263 C1264 1.366 . S
C1264 C1263 1.366 . S
C1264 C1265 1.414 . S
C1264 C1267 1.499 . S
C1265 H1239 0.945 1_655 S
C1265 C1264 1.414 . S
C1265 C1266 1.374 1_655 S
C1266 H1240 0.950 . S
C1266 C1262 1.385 . S
C1266 C1265 1.374 1_455 S
C1267 C1264 1.499 . S
C1267 C1268 1.373 . S
C1267 C1269 1.389 . S
C1268 H1241 0.950 . S
C1268 C1254 1.377 . S
C1268 C1267 1.373 . S
C1269 C1253 1.377 . S
C1269 C1267 1.389 . S
C1269 C1270 1.524 . S
C1270 C1269 1.524 . S
C1270 C1271 1.397 . S
C1270 C1275 1.363 . S
C1271 H1242 0.950 . S
C1271 C1270 1.397 . S
C1271 C1272 1.334 . S
C1272 H1243 0.950 . S
C1272 C1271 1.334 . S
C1272 C1273 1.287 . S
C1273 C1272 1.287 . S
C1273 C1274 1.524 . S
C1273 H1276 0.999 . S
C1274 H1244 0.950 . S
C1274 C1273 1.524 . S
C1274 C1275 1.415 . S
C1275 H1245 0.950 . S
C1275 C1270 1.363 . S
C1275 C1274 1.415 . S
H1276 C1273 0.999 . S
H1277 C1258 0.913 . S
H1278 C1296 0.951 . S
H1279 C1298 0.951 . S
H1280 C1300 0.950 . S
H1281 C1301 0.950 . S
H1282 C1303 0.950 . S
H1283 C1306 0.950 . S
H1284 C1307 0.950 . S
H1285 C1309 0.950 . S
H1286 C1310 0.950 . S
H1287 C1311 0.951 . S
H1288 C1313 0.951 . S
H1289 C1315 0.950 . S
H1290 C1316 0.950 . S
H1291 C1318 0.950 . S
H1292 C1321 0.950 . S
H1293 C1322 0.950 . S
H1294 C1324 0.950 . S
H1295 C1325 0.950 . S
C1296 H1278 0.951 . S
C1296 C1297 1.366 . S
C1296 C1298 1.388 . S
C1297 C1296 1.366 . S
C1297 C1301 1.385 . S
C1298 H1279 0.951 . S
C1298 C1296 1.388 . S
C1298 C1299 1.366 . S
C1299 C1298 1.366 . S
C1299 C1300 1.414 . S
C1299 C1302 1.499 . S
C1300 H1280 0.950 . S
C1300 C1299 1.414 . S
C1300 C1301 1.374 . S
C1301 H1281 0.950 . S
C1301 C1297 1.385 . S
C1301 C1300 1.374 . S
C1302 C1299 1.499 . S
C1302 C1303 1.373 . S
C1302 C1304 1.389 . S
C1303 H1282 0.950 . S
C1303 C1302 1.373 . S
C1303 C1319 1.377 . S
C1304 C1302 1.389 . S
C1304 C1305 1.524 . S
C1304 C1318 1.377 . S
C1305 C1304 1.524 . S
C1305 C1306 1.397 . S
C1305 C1310 1.363 . S
C1306 H1283 0.950 . S
C1306 C1305 1.397 . S
C1306 C1307 1.334 . S
C1307 H1284 0.950 . S
C1307 C1306 1.334 . S
C1307 C1308 1.287 . S
C1308 C1307 1.287 . S
C1308 C1309 1.524 . S
C1308 H1327 0.913 . S
C1309 H1285 0.950 . S
C1309 C1308 1.524 . S
C1309 C1310 1.415 . S
C1310 H1286 0.950 . S
C1310 C1305 1.363 . S
C1310 C1309 1.415 . S
C1311 H1287 0.951 . S
C1311 C1312 1.366 . S
C1311 C1313 1.388 1_545 S
C1312 C1311 1.366 . S
C1312 C1316 1.385 1_545 S
C1313 H1288 0.951 . S
C1313 C1311 1.388 1_565 S
C1313 C1314 1.366 . S
C1314 C1313 1.366 . S
C1314 C1315 1.414 . S
C1314 C1317 1.499 . S
C1315 H1289 0.950 . S
C1315 C1314 1.414 . S
C1315 C1316 1.374 . S
C1316 H1290 0.950 . S
C1316 C1312 1.385 1_565 S
C1316 C1315 1.374 . S
C1317 C1314 1.499 . S
C1317 C1318 1.373 . S
C1317 C1319 1.389 . S
C1318 H1291 0.950 . S
C1318 C1304 1.377 . S
C1318 C1317 1.373 . S
C1319 C1303 1.377 . S
C1319 C1317 1.389 . S
C1319 C1320 1.524 . S
C1320 C1319 1.524 . S
C1320 C1321 1.397 . S
C1320 C1325 1.363 . S
C1321 H1292 0.950 . S
C1321 C1320 1.397 . S
C1321 C1322 1.334 1_565 S
C1322 H1293 0.950 . S
C1322 C1321 1.334 1_545 S
C1322 C1323 1.287 . S
C1323 C1322 1.287 . S
C1323 C1324 1.524 . S
C1323 H1326 0.999 . S
C1324 H1294 0.950 . S
C1324 C1323 1.524 . S
C1324 C1325 1.415 1_545 S
C1325 H1295 0.950 . S
C1325 C1320 1.363 . S
C1325 C1324 1.415 1_565 S
H1326 C1323 0.999 . S
H1327 C1308 0.913 . S
H1328 C1346 0.951 . S
H1329 C1348 0.951 . S
H1330 C1350 0.950 . S
H1331 C1351 0.950 . S
H1332 C1353 0.950 . S
H1333 C1356 0.950 . S
H1334 C1357 0.950 . S
H1335 C1359 0.950 . S
H1336 C1360 0.950 . S
H1337 C1361 0.951 . S
H1338 C1363 0.951 . S
H1339 C1365 0.950 . S
H1340 C1366 0.950 . S
H1341 C1368 0.950 . S
H1342 C1371 0.950 . S
H1343 C1372 0.950 . S
H1344 C1374 0.950 . S
H1345 C1375 0.950 . S
C1346 H1328 0.951 . S
C1346 C1347 1.366 . S
C1346 C1348 1.388 . S
C1347 C1346 1.366 . S
C1347 C1351 1.385 . S
C1348 H1329 0.951 . S
C1348 C1346 1.388 . S
C1348 C1349 1.366 . S
C1349 C1348 1.366 . S
C1349 C1350 1.414 . S
C1349 C1352 1.499 . S
C1350 H1330 0.950 . S
C1350 C1349 1.414 . S
C1350 C1351 1.374 . S
C1351 H1331 0.950 . S
C1351 C1347 1.385 . S
C1351 C1350 1.374 . S
C1352 C1349 1.499 . S
C1352 C1353 1.373 . S
C1352 C1354 1.389 . S
C1353 H1332 0.950 . S
C1353 C1352 1.373 . S
C1353 C1369 1.377 . S
C1354 C1352 1.389 . S
C1354 C1355 1.524 . S
C1354 C1368 1.377 . S
C1355 C1354 1.524 . S
C1355 C1356 1.397 . S
C1355 C1360 1.363 . S
C1356 H1333 0.950 . S
C1356 C1355 1.397 . S
C1356 C1357 1.334 . S
C1357 H1334 0.950 . S
C1357 C1356 1.334 . S
C1357 C1358 1.287 . S
C1358 C1357 1.287 . S
C1358 C1359 1.524 . S
C1358 H1377 0.913 . S
C1359 H1335 0.950 . S
C1359 C1358 1.524 . S
C1359 C1360 1.415 . S
C1360 H1336 0.950 . S
C1360 C1355 1.363 . S
C1360 C1359 1.415 . S
C1361 H1337 0.951 . S
C1361 C1362 1.366 . S
C1361 C1363 1.388 . S
C1362 C1361 1.366 . S
C1362 C1366 1.385 . S
C1363 H1338 0.951 . S
C1363 C1361 1.388 . S
C1363 C1364 1.366 . S
C1364 C1363 1.366 . S
C1364 C1365 1.414 . S
C1364 C1367 1.499 . S
C1365 H1339 0.950 . S
C1365 C1364 1.414 . S
C1365 C1366 1.374 . S
C1366 H1340 0.950 . S
C1366 C1362 1.385 . S
C1366 C1365 1.374 . S
C1367 C1364 1.499 . S
C1367 C1368 1.373 . S
C1367 C1369 1.389 . S
C1368 H1341 0.950 . S
C1368 C1354 1.377 . S
C1368 C1367 1.373 . S
C1369 C1353 1.377 . S
C1369 C1367 1.389 . S
C1369 C1370 1.524 . S
C1370 C1369 1.524 . S
C1370 C1371 1.397 . S
C1370 C1375 1.363 . S
C1371 H1342 0.950 . S
C1371 C1370 1.397 . S
C1371 C1372 1.334 . S
C1372 H1343 0.950 . S
C1372 C1371 1.334 . S
C1372 C1373 1.287 . S
C1373 C1372 1.287 . S
C1373 C1374 1.524 . S
C1373 H1376 0.999 . S
C1374 H1344 0.950 . S
C1374 C1373 1.524 . S
C1374 C1375 1.415 . S
C1375 H1345 0.950 . S
C1375 C1370 1.363 . S
C1375 C1374 1.415 . S
H1376 C1373 0.999 . S
H1377 C1358 0.913 . S
H1378 C1396 0.951 . S
H1379 C1398 0.951 . S
H1380 C1400 0.950 . S
H1381 C1401 0.950 . S
H1382 C1403 0.950 . S
H1383 C1406 0.950 . S
H1384 C1407 0.950 . S
H1385 C1409 0.950 . S
H1386 C1410 0.950 . S
H1387 C1411 0.951 . S
H1388 C1413 0.951 . S
H1389 C1415 0.950 . S
H1390 C1416 0.950 . S
H1391 C1418 0.950 . S
H1392 C1421 0.950 . S
H1393 C1422 0.950 . S
H1394 C1424 0.950 . S
H1395 C1425 0.950 . S
C1396 H1378 0.951 . S
C1396 C1397 1.366 . S
C1396 C1398 1.388 . S
C1397 C1396 1.366 . S
C1397 C1401 1.385 . S
C1398 H1379 0.951 . S
C1398 C1396 1.388 . S
C1398 C1399 1.366 . S
C1399 C1398 1.366 . S
C1399 C1400 1.414 . S
C1399 C1402 1.499 . S
C1400 H1380 0.950 . S
C1400 C1399 1.414 . S
C1400 C1401 1.374 . S
C1401 H1381 0.950 . S
C1401 C1397 1.385 . S
C1401 C1400 1.374 . S
C1402 C1399 1.499 . S
C1402 C1403 1.373 . S
C1402 C1404 1.389 . S
C1403 H1382 0.950 . S
C1403 C1402 1.373 . S
C1403 C1419 1.377 . S
C1404 C1402 1.389 . S
C1404 C1405 1.524 . S
C1404 C1418 1.377 . S
C1405 C1404 1.524 . S
C1405 C1406 1.397 . S
C1405 C1410 1.363 . S
C1406 H1383 0.950 . S
C1406 C1405 1.397 . S
C1406 C1407 1.334 . S
C1407 H1384 0.950 . S
C1407 C1406 1.334 . S
C1407 C1408 1.287 . S
C1408 C1407 1.287 . S
C1408 C1409 1.524 . S
C1408 H1427 0.913 . S
C1409 H1385 0.950 . S
C1409 C1408 1.524 . S
C1409 C1410 1.415 . S
C1410 H1386 0.950 . S
C1410 C1405 1.363 . S
C1410 C1409 1.415 . S
C1411 H1387 0.951 . S
C1411 C1412 1.366 . S
C1411 C1413 1.388 . S
C1412 C1411 1.366 . S
C1412 C1416 1.385 . S
C1413 H1388 0.951 . S
C1413 C1411 1.388 . S
C1413 C1414 1.366 . S
C1414 C1413 1.366 . S
C1414 C1415 1.414 . S
C1414 C1417 1.499 . S
C1415 H1389 0.950 . S
C1415 C1414 1.414 . S
C1415 C1416 1.374 . S
C1416 H1390 0.950 . S
C1416 C1412 1.385 . S
C1416 C1415 1.374 . S
C1417 C1414 1.499 . S
C1417 C1418 1.373 . S
C1417 C1419 1.389 . S
C1418 H1391 0.950 . S
C1418 C1404 1.377 . S
C1418 C1417 1.373 . S
C1419 C1403 1.377 . S
C1419 C1417 1.389 . S
C1419 C1420 1.524 . S
C1420 C1419 1.524 . S
C1420 C1421 1.397 . S
C1420 C1425 1.363 . S
C1421 H1392 0.950 . S
C1421 C1420 1.397 . S
C1421 C1422 1.334 . S
C1422 H1393 0.950 . S
C1422 C1421 1.334 . S
C1422 C1423 1.287 . S
C1423 C1422 1.287 . S
C1423 C1424 1.524 . S
C1423 H1426 0.999 . S
C1424 H1394 0.950 . S
C1424 C1423 1.524 . S
C1424 C1425 1.415 . S
C1425 H1395 0.950 . S
C1425 C1420 1.363 . S
C1425 C1424 1.415 . S
H1426 C1423 0.999 . S
H1427 C1408 0.913 . S
H1428 C1446 0.951 . S
H1429 C1448 0.951 . S
H1430 C1450 0.950 . S
H1431 C1451 0.950 . S
H1432 C1453 0.950 . S
H1433 C1456 0.950 . S
H1434 C1457 0.950 . S
H1435 C1459 0.950 . S
H1436 C1460 0.950 . S
H1437 C1461 0.951 . S
H1438 C1463 0.951 . S
H1439 C1465 0.950 . S
H1440 C1466 0.950 . S
H1441 C1468 0.950 . S
H1442 C1471 0.950 . S
H1443 C1472 0.950 . S
H1444 C1474 0.950 . S
H1445 C1475 0.950 . S
C1446 H1428 0.951 . S
C1446 C1447 1.366 . S
C1446 C1448 1.388 . S
C1447 C1446 1.366 . S
C1447 C1451 1.385 . S
C1448 H1429 0.951 . S
C1448 C1446 1.388 . S
C1448 C1449 1.366 . S
C1449 C1448 1.366 . S
C1449 C1450 1.414 . S
C1449 C1452 1.499 . S
C1450 H1430 0.950 . S
C1450 C1449 1.414 . S
C1450 C1451 1.374 . S
C1451 H1431 0.950 . S
C1451 C1447 1.385 . S
C1451 C1450 1.374 . S
C1452 C1449 1.499 . S
C1452 C1453 1.373 . S
C1452 C1454 1.389 . S
C1453 H1432 0.950 . S
C1453 C1452 1.373 . S
C1453 C1469 1.377 . S
C1454 C1452 1.389 . S
C1454 C1455 1.524 . S
C1454 C1468 1.377 . S
C1455 C1454 1.524 . S
C1455 C1456 1.397 . S
C1455 C1460 1.363 . S
C1456 H1433 0.950 . S
C1456 C1455 1.397 . S
C1456 C1457 1.334 . S
C1457 H1434 0.950 . S
C1457 C1456 1.334 . S
C1457 C1458 1.287 . S
C1458 C1457 1.287 . S
C1458 C1459 1.524 . S
C1458 H1477 0.913 . S
C1459 H1435 0.950 . S
C1459 C1458 1.524 . S
C1459 C1460 1.415 . S
C1460 H1436 0.950 . S
C1460 C1455 1.363 . S
C1460 C1459 1.415 . S
C1461 H1437 0.951 . S
C1461 C1462 1.366 . S
C1461 C1463 1.388 . S
C1462 C1461 1.366 . S
C1462 C1466 1.385 . S
C1463 H1438 0.951 . S
C1463 C1461 1.388 . S
C1463 C1464 1.366 . S
C1464 C1463 1.366 . S
C1464 C1465 1.414 . S
C1464 C1467 1.499 . S
C1465 H1439 0.950 . S
C1465 C1464 1.414 . S
C1465 C1466 1.374 . S
C1466 H1440 0.950 . S
C1466 C1462 1.385 . S
C1466 C1465 1.374 . S
C1467 C1464 1.499 . S
C1467 C1468 1.373 . S
C1467 C1469 1.389 . S
C1468 H1441 0.950 . S
C1468 C1454 1.377 . S
C1468 C1467 1.373 . S
C1469 C1453 1.377 . S
C1469 C1467 1.389 . S
C1469 C1470 1.524 . S
C1470 C1469 1.524 . S
C1470 C1471 1.397 . S
C1470 C1475 1.363 . S
C1471 H1442 0.950 . S
C1471 C1470 1.397 . S
C1471 C1472 1.334 . S
C1472 H1443 0.950 . S
C1472 C1471 1.334 . S
C1472 C1473 1.287 . S
C1473 C1472 1.287 . S
C1473 C1474 1.524 . S
C1473 H1476 0.999 . S
C1474 H1444 0.950 . S
C1474 C1473 1.524 . S
C1474 C1475 1.415 . S
C1475 H1445 0.950 . S
C1475 C1470 1.363 . S
C1475 C1474 1.415 . S
H1476 C1473 0.999 . S
H1477 C1458 0.913 . S
H1478 C1496 0.951 . S
H1479 C1498 0.951 . S
H1480 C1500 0.950 . S
H1481 C1501 0.950 . S
H1482 C1503 0.950 . S
H1483 C1506 0.950 . S
H1484 C1507 0.950 . S
H1485 C1509 0.950 . S
H1486 C1510 0.950 . S
H1487 C1511 0.951 . S
H1488 C1513 0.951 . S
H1489 C1515 0.950 . S
H1490 C1516 0.950 . S
H1491 C1518 0.950 . S
H1492 C1521 0.950 . S
H1493 C1522 0.950 . S
H1494 C1524 0.950 . S
H1495 C1525 0.950 . S
C1496 H1478 0.951 . S
C1496 C1497 1.366 . S
C1496 C1498 1.388 . S
C1497 C1496 1.366 . S
C1497 C1501 1.385 . S
C1498 H1479 0.951 . S
C1498 C1496 1.388 . S
C1498 C1499 1.366 . S
C1499 C1498 1.366 . S
C1499 C1500 1.414 . S
C1499 C1502 1.499 . S
C1500 H1480 0.950 . S
C1500 C1499 1.414 . S
C1500 C1501 1.374 . S
C1501 H1481 0.950 . S
C1501 C1497 1.385 . S
C1501 C1500 1.374 . S
C1502 C1499 1.499 . S
C1502 C1503 1.373 . S
C1502 C1504 1.389 . S
C1503 H1482 0.950 . S
C1503 C1502 1.373 . S
C1503 C1519 1.377 . S
C1504 C1502 1.389 . S
C1504 C1505 1.524 . S
C1504 C1518 1.377 . S
C1505 C1504 1.524 . S
C1505 C1506 1.397 . S
C1505 C1510 1.363 . S
C1506 H1483 0.950 . S
C1506 C1505 1.397 . S
C1506 C1507 1.334 . S
C1507 H1484 0.950 . S
C1507 C1506 1.334 . S
C1507 C1508 1.287 . S
C1508 C1507 1.287 . S
C1508 C1509 1.524 . S
C1508 H1527 0.913 . S
C1509 H1485 0.950 . S
C1509 C1508 1.524 . S
C1509 C1510 1.415 . S
C1510 H1486 0.950 . S
C1510 C1505 1.363 . S
C1510 C1509 1.415 . S
C1511 H1487 0.951 . S
C1511 C1512 1.366 . S
C1511 C1513 1.388 . S
C1512 C1511 1.366 . S
C1512 C1516 1.385 . S
C1513 H1488 0.951 . S
C1513 C1511 1.388 . S
C1513 C1514 1.366 . S
C1514 C1513 1.366 . S
C1514 C1515 1.414 . S
C1514 C1517 1.499 . S
C1515 H1489 0.950 . S
C1515 C1514 1.414 . S
C1515 C1516 1.374 . S
C1516 H1490 0.950 . S
C1516 C1512 1.385 . S
C1516 C1515 1.374 . S
C1517 C1514 1.499 . S
C1517 C1518 1.373 . S
C1517 C1519 1.389 . S
C1518 H1491 0.950 . S
C1518 C1504 1.377 . S
C1518 C1517 1.373 . S
C1519 C1503 1.377 . S
C1519 C1517 1.389 . S
C1519 C1520 1.524 . S
C1520 C1519 1.524 . S
C1520 C1521 1.397 . S
C1520 C1525 1.363 . S
C1521 H1492 0.950 . S
C1521 C1520 1.397 . S
C1521 C1522 1.334 . S
C1522 H1493 0.950 . S
C1522 C1521 1.334 . S
C1522 C1523 1.287 . S
C1523 C1522 1.287 . S
C1523 C1524 1.524 . S
C1523 H1526 0.999 . S
C1524 H1494 0.950 . S
C1524 C1523 1.524 . S
C1524 C1525 1.415 . S
C1525 H1495 0.950 . S
C1525 C1520 1.363 . S
C1525 C1524 1.415 . S
H1526 C1523 0.999 . S
H1527 C1508 0.913 . S
H1528 C1546 0.951 . S
H1529 C1548 0.951 . S
H1530 C1550 0.950 . S
H1531 C1551 0.950 . S
H1532 C1553 0.950 . S
H1533 C1556 0.950 . S
H1534 C1557 0.950 . S
H1535 C1559 0.950 . S
H1536 C1560 0.950 . S
H1537 C1561 0.951 . S
H1538 C1563 0.951 . S
H1539 C1565 0.950 . S
H1540 C1566 0.950 . S
H1541 C1568 0.950 . S
H1542 C1571 0.950 . S
H1543 C1572 0.950 . S
H1544 C1574 0.950 . S
H1545 C1575 0.950 . S
C1546 H1528 0.951 . S
C1546 C1547 1.366 . S
C1546 C1548 1.388 . S
C1547 C1546 1.366 . S
C1547 C1551 1.385 . S
C1548 H1529 0.951 . S
C1548 C1546 1.388 . S
C1548 C1549 1.366 . S
C1549 C1548 1.366 . S
C1549 C1550 1.414 . S
C1549 C1552 1.499 . S
C1550 H1530 0.950 . S
C1550 C1549 1.414 . S
C1550 C1551 1.374 . S
C1551 H1531 0.950 . S
C1551 C1547 1.385 . S
C1551 C1550 1.374 . S
C1552 C1549 1.499 . S
C1552 C1553 1.373 . S
C1552 C1554 1.389 . S
C1553 H1532 0.950 . S
C1553 C1552 1.373 . S
C1553 C1569 1.377 . S
C1554 C1552 1.389 . S
C1554 C1555 1.524 . S
C1554 C1568 1.377 . S
C1555 C1554 1.524 . S
C1555 C1556 1.397 . S
C1555 C1560 1.363 . S
C1556 H1533 0.950 . S
C1556 C1555 1.397 . S
C1556 C1557 1.334 . S
C1557 H1534 0.950 . S
C1557 C1556 1.334 . S
C1557 C1558 1.287 . S
C1558 C1557 1.287 . S
C1558 C1559 1.524 . S
C1558 H1577 0.913 . S
C1559 H1535 0.950 . S
C1559 C1558 1.524 . S
C1559 C1560 1.415 . S
C1560 H1536 0.950 . S
C1560 C1555 1.363 . S
C1560 C1559 1.415 . S
C1561 H1537 0.951 . S
C1561 C1562 1.366 . S
C1561 C1563 1.388 . S
C1562 C1561 1.366 . S
C1562 C1566 1.385 . S
C1563 H1538 0.951 . S
C1563 C1561 1.388 . S
C1563 C1564 1.366 . S
C1564 C1563 1.366 . S
C1564 C1565 1.414 . S
C1564 C1567 1.499 . S
C1565 H1539 0.950 . S
C1565 C1564 1.414 . S
C1565 C1566 1.374 . S
C1566 H1540 0.950 . S
C1566 C1562 1.385 . S
C1566 C1565 1.374 . S
C1567 C1564 1.499 . S
C1567 C1568 1.373 . S
C1567 C1569 1.389 . S
C1568 H1541 0.950 . S
C1568 C1554 1.377 . S
C1568 C1567 1.373 . S
C1569 C1553 1.377 . S
C1569 C1567 1.389 . S
C1569 C1570 1.524 . S
C1570 C1569 1.524 . S
C1570 C1571 1.397 . S
C1570 C1575 1.363 . S
C1571 H1542 0.950 . S
C1571 C1570 1.397 . S
C1571 C1572 1.334 . S
C1572 H1543 0.950 . S
C1572 C1571 1.334 . S
C1572 C1573 1.287 . S
C1573 C1572 1.287 . S
C1573 C1574 1.524 . S
C1573 H1576 0.999 . S
C1574 H1544 0.950 . S
C1574 C1573 1.524 . S
C1574 C1575 1.415 . S
C1575 H1545 0.950 . S
C1575 C1570 1.363 . S
C1575 C1574 1.415 . S
H1576 C1573 0.999 . S
H1577 C1558 0.913 . S
H1578 C1596 0.951 . S
H1579 C1598 0.951 . S
H1580 C1600 0.950 . S
H1581 C1601 0.950 . S
H1582 C1603 0.950 . S
H1583 C1606 0.950 . S
H1584 C1607 0.950 . S
H1585 C1609 0.950 . S
H1586 C1610 0.950 . S
H1587 C1611 0.951 . S
H1588 C1613 0.951 . S
H1589 C1615 0.950 . S
H1590 C1616 0.950 . S
H1591 C1618 0.950 . S
H1592 C1621 0.950 . S
H1593 C1622 0.950 . S
H1594 C1624 0.950 . S
H1595 C1625 0.950 . S
C1596 H1578 0.951 . S
C1596 C1597 1.366 . S
C1596 C1598 1.388 . S
C1597 C1596 1.366 . S
C1597 C1601 1.385 . S
C1598 H1579 0.951 . S
C1598 C1596 1.388 . S
C1598 C1599 1.366 . S
C1599 C1598 1.366 . S
C1599 C1600 1.414 . S
C1599 C1602 1.499 . S
C1600 H1580 0.950 . S
C1600 C1599 1.414 . S
C1600 C1601 1.374 . S
C1601 H1581 0.950 . S
C1601 C1597 1.385 . S
C1601 C1600 1.374 . S
C1602 C1599 1.499 . S
C1602 C1603 1.373 . S
C1602 C1604 1.389 . S
C1603 H1582 0.950 . S
C1603 C1602 1.373 . S
C1603 C1619 1.377 . S
C1604 C1602 1.389 . S
C1604 C1605 1.524 . S
C1604 C1618 1.377 . S
C1605 C1604 1.524 . S
C1605 C1606 1.397 . S
C1605 C1610 1.363 . S
C1606 H1583 0.950 . S
C1606 C1605 1.397 . S
C1606 C1607 1.334 . S
C1607 H1584 0.950 . S
C1607 C1606 1.334 . S
C1607 C1608 1.287 . S
C1608 C1607 1.287 . S
C1608 C1609 1.524 . S
C1608 H1627 0.913 . S
C1609 H1585 0.950 . S
C1609 C1608 1.524 . S
C1609 C1610 1.415 . S
C1610 H1586 0.950 . S
C1610 C1605 1.363 . S
C1610 C1609 1.415 . S
C1611 H1587 0.951 . S
C1611 C1612 1.366 . S
C1611 C1613 1.388 . S
C1612 C1611 1.366 . S
C1612 C1616 1.385 . S
C1613 H1588 0.951 . S
C1613 C1611 1.388 . S
C1613 C1614 1.366 . S
C1614 C1613 1.366 . S
C1614 C1615 1.414 . S
C1614 C1617 1.499 . S
C1615 H1589 0.950 . S
C1615 C1614 1.414 . S
C1615 C1616 1.374 . S
C1616 H1590 0.950 . S
C1616 C1612 1.385 . S
C1616 C1615 1.374 . S
C1617 C1614 1.499 . S
C1617 C1618 1.373 . S
C1617 C1619 1.389 . S
C1618 H1591 0.950 . S
C1618 C1604 1.377 . S
C1618 C1617 1.373 . S
C1619 C1603 1.377 . S
C1619 C1617 1.389 . S
C1619 C1620 1.524 . S
C1620 C1619 1.524 . S
C1620 C1621 1.397 . S
C1620 C1625 1.363 . S
C1621 H1592 0.950 . S
C1621 C1620 1.397 . S
C1621 C1622 1.334 . S
C1622 H1593 0.950 . S
C1622 C1621 1.334 . S
C1622 C1623 1.287 . S
C1623 C1622 1.287 . S
C1623 C1624 1.524 . S
C1623 H1626 0.999 . S
C1624 H1594 0.950 . S
C1624 C1623 1.524 . S
C1624 C1625 1.415 . S
C1625 H1595 0.950 . S
C1625 C1620 1.363 . S
C1625 C1624 1.415 . S
H1626 C1623 0.999 . S
H1627 C1608 0.913 . S
H1628 C1646 0.951 . S
H1629 C1648 0.951 . S
H1630 C1650 0.950 . S
H1631 C1651 0.950 . S
H1632 C1653 0.950 . S
H1633 C1656 0.950 . S
H1634 C1657 0.950 . S
H1635 C1659 0.950 . S
H1636 C1660 0.950 . S
H1637 C1661 0.951 . S
H1638 C1663 0.951 . S
H1639 C1665 0.950 . S
H1640 C1666 0.950 . S
H1641 C1668 0.950 . S
H1642 C1671 0.950 . S
H1643 C1672 0.950 . S
H1644 C1674 0.950 . S
H1645 C1675 0.950 . S
C1646 H1628 0.951 . S
C1646 C1647 1.366 . S
C1646 C1648 1.388 . S
C1647 C1646 1.366 . S
C1647 C1651 1.385 . S
C1648 H1629 0.951 . S
C1648 C1646 1.388 . S
C1648 C1649 1.366 . S
C1649 C1648 1.366 . S
C1649 C1650 1.414 . S
C1649 C1652 1.499 . S
C1650 H1630 0.950 . S
C1650 C1649 1.414 . S
C1650 C1651 1.374 . S
C1651 H1631 0.950 . S
C1651 C1647 1.385 . S
C1651 C1650 1.374 . S
C1652 C1649 1.499 . S
C1652 C1653 1.373 . S
C1652 C1654 1.389 . S
C1653 H1632 0.950 . S
C1653 C1652 1.373 . S
C1653 C1669 1.377 . S
C1654 C1652 1.389 . S
C1654 C1655 1.524 . S
C1654 C1668 1.377 . S
C1655 C1654 1.524 . S
C1655 C1656 1.397 . S
C1655 C1660 1.363 . S
C1656 H1633 0.950 . S
C1656 C1655 1.397 . S
C1656 C1657 1.334 . S
C1657 H1634 0.950 . S
C1657 C1656 1.334 . S
C1657 C1658 1.287 . S
C1658 C1657 1.287 . S
C1658 C1659 1.524 . S
C1658 H1677 0.913 . S
C1659 H1635 0.950 . S
C1659 C1658 1.524 . S
C1659 C1660 1.415 . S
C1660 H1636 0.950 . S
C1660 C1655 1.363 . S
C1660 C1659 1.415 . S
C1661 H1637 0.951 . S
C1661 C1662 1.366 . S
C1661 C1663 1.388 . S
C1662 C1661 1.366 . S
C1662 C1666 1.385 . S
C1663 H1638 0.951 . S
C1663 C1661 1.388 . S
C1663 C1664 1.366 . S
C1664 C1663 1.366 . S
C1664 C1665 1.414 . S
C1664 C1667 1.499 . S
C1665 H1639 0.950 . S
C1665 C1664 1.414 . S
C1665 C1666 1.374 . S
C1666 H1640 0.950 . S
C1666 C1662 1.385 . S
C1666 C1665 1.374 . S
C1667 C1664 1.499 . S
C1667 C1668 1.373 . S
C1667 C1669 1.389 . S
C1668 H1641 0.950 . S
C1668 C1654 1.377 . S
C1668 C1667 1.373 . S
C1669 C1653 1.377 . S
C1669 C1667 1.389 . S
C1669 C1670 1.524 . S
C1670 C1669 1.524 . S
C1670 C1671 1.397 . S
C1670 C1675 1.363 . S
C1671 H1642 0.950 . S
C1671 C1670 1.397 . S
C1671 C1672 1.334 . S
C1672 H1643 0.950 . S
C1672 C1671 1.334 . S
C1672 C1673 1.287 . S
C1673 C1672 1.287 . S
C1673 C1674 1.524 . S
C1673 H1676 0.999 . S
C1674 H1644 0.950 . S
C1674 C1673 1.524 . S
C1674 C1675 1.415 . S
C1675 H1645 0.950 . S
C1675 C1670 1.363 . S
C1675 C1674 1.415 . S
H1676 C1673 0.999 . S
H1677 C1658 0.913 . S
H1678 C1696 0.951 . S
H1679 C1698 0.951 . S
H1680 C1700 0.950 . S
H1681 C1701 0.950 . S
H1682 C1703 0.950 . S
H1683 C1706 0.950 . S
H1684 C1707 0.950 . S
H1685 C1709 0.950 . S
H1686 C1710 0.950 . S
H1687 C1711 0.951 . S
H1688 C1713 0.951 . S
H1689 C1715 0.950 . S
H1690 C1716 0.950 . S
H1691 C1718 0.950 . S
H1692 C1721 0.950 . S
H1693 C1722 0.950 . S
H1694 C1724 0.950 . S
H1695 C1725 0.950 . S
C1696 H1678 0.951 . S
C1696 C1697 1.366 . S
C1696 C1698 1.388 . S
C1697 C1696 1.366 . S
C1697 C1701 1.385 . S
C1698 H1679 0.951 . S
C1698 C1696 1.388 . S
C1698 C1699 1.366 . S
C1699 C1698 1.366 . S
C1699 C1700 1.414 . S
C1699 C1702 1.499 . S
C1700 H1680 0.950 . S
C1700 C1699 1.414 . S
C1700 C1701 1.374 . S
C1701 H1681 0.950 . S
C1701 C1697 1.385 . S
C1701 C1700 1.374 . S
C1702 C1699 1.499 . S
C1702 C1703 1.373 . S
C1702 C1704 1.389 . S
C1703 H1682 0.950 . S
C1703 C1702 1.373 . S
C1703 C1719 1.377 . S
C1704 C1702 1.389 . S
C1704 C1705 1.524 . S
C1704 C1718 1.377 . S
C1705 C1704 1.524 . S
C1705 C1706 1.397 . S
C1705 C1710 1.363 . S
C1706 H1683 0.950 . S
C1706 C1705 1.397 . S
C1706 C1707 1.334 . S
C1707 H1684 0.950 . S
C1707 C1706 1.334 . S
C1707 C1708 1.287 . S
C1708 C1707 1.287 . S
C1708 C1709 1.524 . S
C1708 H1727 0.913 . S
C1709 H1685 0.950 . S
C1709 C1708 1.524 . S
C1709 C1710 1.415 . S
C1710 H1686 0.950 . S
C1710 C1705 1.363 . S
C1710 C1709 1.415 . S
C1711 H1687 0.951 . S
C1711 C1712 1.366 . S
C1711 C1713 1.388 . S
C1712 C1711 1.366 . S
C1712 C1716 1.385 . S
C1713 H1688 0.951 . S
C1713 C1711 1.388 . S
C1713 C1714 1.366 . S
C1714 C1713 1.366 . S
C1714 C1715 1.414 . S
C1714 C1717 1.499 . S
C1715 H1689 0.950 . S
C1715 C1714 1.414 . S
C1715 C1716 1.374 . S
C1716 H1690 0.950 . S
C1716 C1712 1.385 . S
C1716 C1715 1.374 . S
C1717 C1714 1.499 . S
C1717 C1718 1.373 . S
C1717 C1719 1.389 . S
C1718 H1691 0.950 . S
C1718 C1704 1.377 . S
C1718 C1717 1.373 . S
C1719 C1703 1.377 . S
C1719 C1717 1.389 . S
C1719 C1720 1.524 . S
C1720 C1719 1.524 . S
C1720 C1721 1.397 . S
C1720 C1725 1.363 . S
C1721 H1692 0.950 . S
C1721 C1720 1.397 . S
C1721 C1722 1.334 . S
C1722 H1693 0.950 . S
C1722 C1721 1.334 . S
C1722 C1723 1.287 . S
C1723 C1722 1.287 . S
C1723 C1724 1.524 . S
C1723 H1726 0.999 . S
C1724 H1694 0.950 . S
C1724 C1723 1.524 . S
C1724 C1725 1.415 . S
C1725 H1695 0.950 . S
C1725 C1720 1.363 . S
C1725 C1724 1.415 . S
H1726 C1723 0.999 . S
H1727 C1708 0.913 . S
H1728 C1746 0.951 . S
H1729 C1748 0.951 . S
H1730 C1750 0.950 . S
H1731 C1751 0.950 . S
H1732 C1753 0.950 . S
H1733 C1756 0.950 . S
H1734 C1757 0.950 . S
H1735 C1759 0.950 . S
H1736 C1760 0.950 . S
H1737 C1761 0.951 . S
H1738 C1763 0.951 . S
H1739 C1765 0.950 . S
H1740 C1766 0.950 . S
H1741 C1768 0.950 . S
H1742 C1771 0.950 . S
H1743 C1772 0.950 . S
H1744 C1774 0.950 . S
H1745 C1775 0.950 . S
C1746 H1728 0.951 . S
C1746 C1747 1.366 . S
C1746 C1748 1.388 . S
C1747 C1746 1.366 . S
C1747 C1751 1.385 . S
C1748 H1729 0.951 . S
C1748 C1746 1.388 . S
C1748 C1749 1.366 . S
C1749 C1748 1.366 . S
C1749 C1750 1.414 . S
C1749 C1752 1.499 . S
C1750 H1730 0.950 . S
C1750 C1749 1.414 . S
C1750 C1751 1.374 . S
C1751 H1731 0.950 . S
C1751 C1747 1.385 . S
C1751 C1750 1.374 . S
C1752 C1749 1.499 . S
C1752 C1753 1.373 . S
C1752 C1754 1.389 . S
C1753 H1732 0.950 . S
C1753 C1752 1.373 . S
C1753 C1769 1.377 . S
C1754 C1752 1.389 . S
C1754 C1755 1.524 . S
C1754 C1768 1.377 . S
C1755 C1754 1.524 . S
C1755 C1756 1.397 . S
C1755 C1760 1.363 . S
C1756 H1733 0.950 . S
C1756 C1755 1.397 . S
C1756 C1757 1.334 . S
C1757 H1734 0.950 . S
C1757 C1756 1.334 . S
C1757 C1758 1.287 . S
C1758 C1757 1.287 . S
C1758 C1759 1.524 . S
C1758 H1777 0.913 . S
C1759 H1735 0.950 . S
C1759 C1758 1.524 . S
C1759 C1760 1.415 . S
C1760 H1736 0.950 . S
C1760 C1755 1.363 . S
C1760 C1759 1.415 . S
C1761 H1737 0.951 . S
C1761 C1762 1.366 . S
C1761 C1763 1.388 . S
C1762 C1761 1.366 . S
C1762 C1766 1.385 . S
C1763 H1738 0.951 . S
C1763 C1761 1.388 . S
C1763 C1764 1.366 . S
C1764 C1763 1.366 . S
C1764 C1765 1.414 . S
C1764 C1767 1.499 . S
C1765 H1739 0.950 . S
C1765 C1764 1.414 . S
C1765 C1766 1.374 . S
C1766 H1740 0.950 . S
C1766 C1762 1.385 . S
C1766 C1765 1.374 . S
C1767 C1764 1.499 . S
C1767 C1768 1.373 . S
C1767 C1769 1.389 . S
C1768 H1741 0.950 . S
C1768 C1754 1.377 . S
C1768 C1767 1.373 . S
C1769 C1753 1.377 . S
C1769 C1767 1.389 . S
C1769 C1770 1.524 . S
C1770 C1769 1.524 . S
C1770 C1771 1.397 . S
C1770 C1775 1.363 . S
C1771 H1742 0.950 . S
C1771 C1770 1.397 . S
C1771 C1772 1.334 . S
C1772 H1743 0.950 . S
C1772 C1771 1.334 . S
C1772 C1773 1.287 . S
C1773 C1772 1.287 . S
C1773 C1774 1.524 . S
C1773 H1776 0.999 . S
C1774 H1744 0.950 . S
C1774 C1773 1.524 . S
C1774 C1775 1.415 . S
C1775 H1745 0.950 . S
C1775 C1770 1.363 . S
C1775 C1774 1.415 . S
H1776 C1773 0.999 . S
H1777 C1758 0.913 . S
H1778 C1796 0.951 . S
H1779 C1798 0.951 . S
H1780 C1800 0.950 . S
H1781 C1801 0.950 . S
H1782 C1803 0.950 . S
H1783 C1806 0.950 . S
H1784 C1807 0.950 . S
H1785 C1809 0.950 . S
H1786 C1810 0.950 . S
H1787 C1811 0.951 . S
H1788 C1813 0.951 . S
H1789 C1815 0.950 . S
H1790 C1816 0.950 . S
H1791 C1818 0.950 . S
H1792 C1821 0.950 . S
H1793 C1822 0.950 . S
H1794 C1824 0.950 . S
H1795 C1825 0.950 . S
C1796 H1778 0.951 . S
C1796 C1797 1.366 . S
C1796 C1798 1.388 . S
C1797 C1796 1.366 . S
C1797 C1801 1.385 . S
C1798 H1779 0.951 . S
C1798 C1796 1.388 . S
C1798 C1799 1.366 . S
C1799 C1798 1.366 . S
C1799 C1800 1.414 . S
C1799 C1802 1.499 . S
C1800 H1780 0.950 . S
C1800 C1799 1.414 . S
C1800 C1801 1.374 . S
C1801 H1781 0.950 . S
C1801 C1797 1.385 . S
C1801 C1800 1.374 . S
C1802 C1799 1.499 . S
C1802 C1803 1.373 . S
C1802 C1804 1.389 . S
C1803 H1782 0.950 . S
C1803 C1802 1.373 . S
C1803 C1819 1.377 . S
C1804 C1802 1.389 . S
C1804 C1805 1.524 . S
C1804 C1818 1.377 . S
C1805 C1804 1.524 . S
C1805 C1806 1.397 . S
C1805 C1810 1.363 . S
C1806 H1783 0.950 . S
C1806 C1805 1.397 . S
C1806 C1807 1.334 . S
C1807 H1784 0.950 . S
C1807 C1806 1.334 . S
C1807 C1808 1.287 . S
C1808 C1807 1.287 . S
C1808 C1809 1.524 . S
C1808 H1827 0.913 . S
C1809 H1785 0.950 . S
C1809 C1808 1.524 . S
C1809 C1810 1.415 . S
C1810 H1786 0.950 . S
C1810 C1805 1.363 . S
C1810 C1809 1.415 . S
C1811 H1787 0.951 . S
C1811 C1812 1.366 . S
C1811 C1813 1.388 . S
C1812 C1811 1.366 . S
C1812 C1816 1.385 . S
C1813 H1788 0.951 . S
C1813 C1811 1.388 . S
C1813 C1814 1.366 . S
C1814 C1813 1.366 . S
C1814 C1815 1.414 . S
C1814 C1817 1.499 . S
C1815 H1789 0.950 . S
C1815 C1814 1.414 . S
C1815 C1816 1.374 . S
C1816 H1790 0.950 . S
C1816 C1812 1.385 . S
C1816 C1815 1.374 . S
C1817 C1814 1.499 . S
C1817 C1818 1.373 . S
C1817 C1819 1.389 . S
C1818 H1791 0.950 . S
C1818 C1804 1.377 . S
C1818 C1817 1.373 . S
C1819 C1803 1.377 . S
C1819 C1817 1.389 . S
C1819 C1820 1.524 . S
C1820 C1819 1.524 . S
C1820 C1821 1.397 . S
C1820 C1825 1.363 . S
C1821 H1792 0.950 . S
C1821 C1820 1.397 . S
C1821 C1822 1.334 . S
C1822 H1793 0.950 . S
C1822 C1821 1.334 . S
C1822 C1823 1.287 . S
C1823 C1822 1.287 . S
C1823 C1824 1.524 . S
C1823 H1826 0.999 . S
C1824 H1794 0.950 . S
C1824 C1823 1.524 . S
C1824 C1825 1.415 . S
C1825 H1795 0.950 . S
C1825 C1820 1.363 . S
C1825 C1824 1.415 . S
H1826 C1823 0.999 . S
H1827 C1808 0.913 . S
H1828 C1846 0.951 . S
H1829 C1848 0.951 . S
H1830 C1850 0.950 . S
H1831 C1851 0.950 . S
H1832 C1853 0.950 . S
H1833 C1856 0.950 . S
H1834 C1857 0.950 . S
H1835 C1859 0.950 . S
H1836 C1860 0.950 . S
H1837 C1861 0.951 1_455 S
H1838 C1863 0.951 . S
H1839 C1865 0.950 . S
H1840 C1866 0.950 . S
H1841 C1868 0.950 . S
H1842 C1871 0.950 . S
H1843 C1872 0.950 . S
H1844 C1874 0.950 . S
H1845 C1875 0.950 . S
C1846 H1828 0.951 . S
C1846 C1847 1.366 . S
C1846 C1848 1.388 . S
C1847 C1846 1.366 . S
C1847 C1851 1.385 . S
C1848 H1829 0.951 . S
C1848 C1846 1.388 . S
C1848 C1849 1.366 . S
C1849 C1848 1.366 . S
C1849 C1850 1.414 . S
C1849 C1852 1.499 . S
C1850 H1830 0.950 . S
C1850 C1849 1.414 . S
C1850 C1851 1.374 . S
C1851 H1831 0.950 . S
C1851 C1847 1.385 . S
C1851 C1850 1.374 . S
C1852 C1849 1.499 . S
C1852 C1853 1.373 . S
C1852 C1854 1.389 . S
C1853 H1832 0.950 . S
C1853 C1852 1.373 . S
C1853 C1869 1.377 . S
C1854 C1852 1.389 . S
C1854 C1855 1.524 . S
C1854 C1868 1.377 . S
C1855 C1854 1.524 . S
C1855 C1856 1.397 . S
C1855 C1860 1.363 . S
C1856 H1833 0.950 . S
C1856 C1855 1.397 . S
C1856 C1857 1.334 . S
C1857 H1834 0.950 . S
C1857 C1856 1.334 . S
C1857 C1858 1.287 . S
C1858 C1857 1.287 . S
C1858 C1859 1.524 . S
C1858 H1877 0.913 . S
C1859 H1835 0.950 . S
C1859 C1858 1.524 . S
C1859 C1860 1.415 . S
C1860 H1836 0.950 . S
C1860 C1855 1.363 . S
C1860 C1859 1.415 . S
C1861 H1837 0.951 1_655 S
C1861 C1862 1.358 1_655 S
C1861 C1863 1.388 . S
C1862 C1861 1.358 1_455 S
C1862 C1866 1.367 1_455 S
C1863 H1838 0.951 . S
C1863 C1861 1.388 . S
C1863 C1864 1.366 . S
C1864 C1863 1.366 . S
C1864 C1865 1.414 . S
C1864 C1867 1.499 . S
C1865 H1839 0.950 . S
C1865 C1864 1.414 . S
C1865 C1866 1.374 . S
C1866 H1840 0.950 . S
C1866 C1862 1.367 1_655 S
C1866 C1865 1.374 . S
C1867 C1864 1.499 . S
C1867 C1868 1.373 . S
C1867 C1869 1.389 . S
C1868 H1841 0.950 . S
C1868 C1854 1.377 . S
C1868 C1867 1.373 . S
C1869 C1853 1.377 . S
C1869 C1867 1.389 . S
C1869 C1870 1.524 . S
C1870 C1869 1.524 . S
C1870 C1871 1.397 1_655 S
C1870 C1875 1.363 . S
C1871 H1842 0.950 . S
C1871 C1870 1.397 1_455 S
C1871 C1872 1.334 . S
C1872 H1843 0.950 . S
C1872 C1871 1.334 . S
C1872 C1873 1.287 . S
C1873 C1872 1.287 . S
C1873 C1874 1.524 . S
C1873 H1876 0.999 . S
C1874 H1844 0.950 . S
C1874 C1873 1.524 . S
C1874 C1875 1.415 1_455 S
C1875 H1845 0.950 . S
C1875 C1870 1.363 . S
C1875 C1874 1.415 1_655 S
H1876 C1873 0.999 . S
H1877 C1858 0.913 . S
H1878 C1896 0.951 . S
H1879 C1898 0.951 . S
H1880 C1900 0.950 . S
H1881 C1901 0.950 . S
H1882 C1903 0.950 . S
H1883 C1906 0.950 . S
H1884 C1907 0.950 . S
H1885 C1909 0.950 . S
H1886 C1910 0.950 . S
H1887 C1911 0.951 . S
H1888 C1913 0.951 . S
H1889 C1915 0.950 . S
H1890 C1916 0.950 . S
H1891 C1918 0.950 . S
H1892 C1921 0.950 . S
H1893 C1922 0.950 . S
H1894 C1924 0.950 1_545 S
H1895 C1925 0.950 . S
C1896 H1878 0.951 . S
C1896 C1897 1.325 1_565 S
C1896 C1898 1.388 . S
C1897 C1896 1.325 1_545 S
C1897 C1901 1.397 . S
C1898 H1879 0.951 . S
C1898 C1896 1.388 . S
C1898 C1899 1.366 . S
C1899 C1898 1.366 . S
C1899 C1900 1.414 . S
C1899 C1902 1.499 . S
C1900 H1880 0.950 . S
C1900 C1899 1.414 . S
C1900 C1901 1.374 1_565 S
C1901 H1881 0.950 . S
C1901 C1897 1.397 . S
C1901 C1900 1.374 1_545 S
C1902 C1899 1.499 . S
C1902 C1903 1.373 . S
C1902 C1904 1.389 . S
C1903 H1882 0.950 . S
C1903 C1902 1.373 . S
C1903 C1919 1.377 . S
C1904 C1902 1.389 . S
C1904 C1905 1.524 . S
C1904 C1918 1.377 . S
C1905 C1904 1.524 . S
C1905 C1906 1.397 . S
C1905 C1910 1.363 . S
C1906 H1883 0.950 . S
C1906 C1905 1.397 . S
C1906 C1907 1.334 . S
C1907 H1884 0.950 . S
C1907 C1906 1.334 . S
C1907 C1908 1.287 . S
C1908 C1907 1.287 . S
C1908 C1909 1.524 . S
C1908 H1927 0.913 . S
C1909 H1885 0.950 . S
C1909 C1908 1.524 . S
C1909 C1910 1.415 . S
C1910 H1886 0.950 . S
C1910 C1905 1.363 . S
C1910 C1909 1.415 . S
C1911 H1887 0.951 . S
C1911 C1912 1.366 . S
C1911 C1913 1.388 . S
C1912 C1911 1.366 . S
C1912 C1916 1.385 . S
C1913 H1888 0.951 . S
C1913 C1911 1.388 . S
C1913 C1914 1.366 . S
C1914 C1913 1.366 . S
C1914 C1915 1.414 . S
C1914 C1917 1.499 . S
C1915 H1889 0.950 . S
C1915 C1914 1.414 . S
C1915 C1916 1.374 . S
C1916 H1890 0.950 . S
C1916 C1912 1.385 . S
C1916 C1915 1.374 . S
C1917 C1914 1.499 . S
C1917 C1918 1.373 . S
C1917 C1919 1.389 . S
C1918 H1891 0.950 . S
C1918 C1904 1.377 . S
C1918 C1917 1.373 . S
C1919 C1903 1.377 . S
C1919 C1917 1.389 . S
C1919 C1920 1.524 . S
C1920 C1919 1.524 . S
C1920 C1921 1.397 . S
C1920 C1925 1.363 . S
C1921 H1892 0.950 . S
C1921 C1920 1.397 . S
C1921 C1922 1.334 . S
C1922 H1893 0.950 . S
C1922 C1921 1.334 . S
C1922 C1923 1.287 . S
C1923 C1922 1.287 . S
C1923 C1924 1.524 . S
C1923 H1926 0.999 . S
C1924 H1894 0.950 1_565 S
C1924 C1923 1.524 . S
C1924 C1925 1.415 . S
C1925 H1895 0.950 . S
C1925 C1920 1.363 . S
C1925 C1924 1.415 . S
H1926 C1923 0.999 . S
H1927 C1908 0.913 . S
H1928 C1946 0.951 . S
H1929 C1948 0.951 . S
H1930 C1950 0.950 . S
H1931 C1951 0.950 . S
H1932 C1953 0.950 . S
H1933 C1956 0.950 . S
H1934 C1957 0.950 . S
H1935 C1959 0.950 . S
H1936 C1960 0.950 . S
H1937 C1961 0.951 . S
H1938 C1963 0.951 . S
H1939 C1965 0.950 . S
H1940 C1966 0.950 . S
H1941 C1968 0.950 . S
H1942 C1971 0.950 . S
H1943 C1972 0.950 . S
H1944 C1974 0.950 . S
H1945 C1975 0.950 . S
C1946 H1928 0.951 . S
C1946 C1947 1.366 . S
C1946 C1948 1.388 . S
C1947 C1946 1.366 . S
C1947 C1951 1.385 . S
C1948 H1929 0.951 . S
C1948 C1946 1.388 . S
C1948 C1949 1.366 . S
C1949 C1948 1.366 . S
C1949 C1950 1.414 . S
C1949 C1952 1.499 . S
C1950 H1930 0.950 . S
C1950 C1949 1.414 . S
C1950 C1951 1.374 . S
C1951 H1931 0.950 . S
C1951 C1947 1.385 . S
C1951 C1950 1.374 . S
C1952 C1949 1.499 . S
C1952 C1953 1.373 . S
C1952 C1954 1.389 . S
C1953 H1932 0.950 . S
C1953 C1952 1.373 . S
C1953 C1969 1.377 . S
C1954 C1952 1.389 . S
C1954 C1955 1.524 . S
C1954 C1968 1.377 . S
C1955 C1954 1.524 . S
C1955 C1956 1.397 . S
C1955 C1960 1.363 . S
C1956 H1933 0.950 . S
C1956 C1955 1.397 . S
C1956 C1957 1.334 . S
C1957 H1934 0.950 . S
C1957 C1956 1.334 . S
C1957 C1958 1.287 . S
C1958 C1957 1.287 . S
C1958 C1959 1.524 . S
C1958 H1977 0.913 . S
C1959 H1935 0.950 . S
C1959 C1958 1.524 . S
C1959 C1960 1.415 . S
C1960 H1936 0.950 . S
C1960 C1955 1.363 . S
C1960 C1959 1.415 . S
C1961 H1937 0.951 . S
C1961 C1962 1.366 . S
C1961 C1963 1.388 . S
C1962 C1961 1.366 . S
C1962 C1966 1.385 . S
C1963 H1938 0.951 . S
C1963 C1961 1.388 . S
C1963 C1964 1.366 . S
C1964 C1963 1.366 . S
C1964 C1965 1.414 . S
C1964 C1967 1.499 . S
C1965 H1939 0.950 . S
C1965 C1964 1.414 . S
C1965 C1966 1.374 . S
C1966 H1940 0.950 . S
C1966 C1962 1.385 . S
C1966 C1965 1.374 . S
C1967 C1964 1.499 . S
C1967 C1968 1.373 . S
C1967 C1969 1.389 . S
C1968 H1941 0.950 . S
C1968 C1954 1.377 . S
C1968 C1967 1.373 . S
C1969 C1953 1.377 . S
C1969 C1967 1.389 . S
C1969 C1970 1.524 . S
C1970 C1969 1.524 . S
C1970 C1971 1.397 . S
C1970 C1975 1.363 . S
C1971 H1942 0.950 . S
C1971 C1970 1.397 . S
C1971 C1972 1.334 . S
C1972 H1943 0.950 . S
C1972 C1971 1.334 . S
C1972 C1973 1.287 . S
C1973 C1972 1.287 . S
C1973 C1974 1.524 . S
C1973 H1976 0.999 . S
C1974 H1944 0.950 . S
C1974 C1973 1.524 . S
C1974 C1975 1.415 . S
C1975 H1945 0.950 . S
C1975 C1970 1.363 . S
C1975 C1974 1.415 . S
H1976 C1973 0.999 . S
H1977 C1958 0.913 . S
H1978 C1996 0.951 . S
H1979 C1998 0.951 . S
H1980 C2000 0.950 . S
H1981 C2001 0.950 . S
H1982 C2003 0.950 . S
H1983 C2006 0.950 . S
H1984 C2007 0.950 . S
H1985 C2009 0.950 . S
H1986 C2010 0.950 . S
H1987 C2011 0.951 . S
H1988 C2013 0.951 . S
H1989 C2015 0.950 . S
H1990 C2016 0.950 . S
H1991 C2018 0.950 . S
H1992 C2021 0.950 . S
H1993 C2022 0.950 . S
H1994 C2024 0.950 . S
H1995 C2025 0.950 . S
C1996 H1978 0.951 . S
C1996 C1997 1.366 . S
C1996 C1998 1.388 . S
C1997 C1996 1.366 . S
C1997 C2001 1.385 . S
C1998 H1979 0.951 . S
C1998 C1996 1.388 . S
C1998 C1999 1.366 . S
C1999 C1998 1.366 . S
C1999 C2000 1.414 . S
C1999 C2002 1.499 . S
C2000 H1980 0.950 . S
C2000 C1999 1.414 . S
C2000 C2001 1.374 . S
C2001 H1981 0.950 . S
C2001 C1997 1.385 . S
C2001 C2000 1.374 . S
C2002 C1999 1.499 . S
C2002 C2003 1.373 . S
C2002 C2004 1.389 . S
C2003 H1982 0.950 . S
C2003 C2002 1.373 . S
C2003 C2019 1.377 . S
C2004 C2002 1.389 . S
C2004 C2005 1.524 . S
C2004 C2018 1.377 . S
C2005 C2004 1.524 . S
C2005 C2006 1.397 . S
C2005 C2010 1.363 . S
C2006 H1983 0.950 . S
C2006 C2005 1.397 . S
C2006 C2007 1.334 . S
C2007 H1984 0.950 . S
C2007 C2006 1.334 . S
C2007 C2008 1.287 . S
C2008 C2007 1.287 . S
C2008 C2009 1.524 . S
C2008 H2027 0.913 . S
C2009 H1985 0.950 . S
C2009 C2008 1.524 . S
C2009 C2010 1.415 . S
C2010 H1986 0.950 . S
C2010 C2005 1.363 . S
C2010 C2009 1.415 . S
C2011 H1987 0.951 . S
C2011 C2012 1.366 . S
C2011 C2013 1.388 . S
C2012 C2011 1.366 . S
C2012 C2016 1.385 . S
C2013 H1988 0.951 . S
C2013 C2011 1.388 . S
C2013 C2014 1.366 . S
C2014 C2013 1.366 . S
C2014 C2015 1.414 . S
C2014 C2017 1.499 . S
C2015 H1989 0.950 . S
C2015 C2014 1.414 . S
C2015 C2016 1.374 . S
C2016 H1990 0.950 . S
C2016 C2012 1.385 . S
C2016 C2015 1.374 . S
C2017 C2014 1.499 . S
C2017 C2018 1.373 . S
C2017 C2019 1.389 . S
C2018 H1991 0.950 . S
C2018 C2004 1.377 . S
C2018 C2017 1.373 . S
C2019 C2003 1.377 . S
C2019 C2017 1.389 . S
C2019 C2020 1.524 . S
C2020 C2019 1.524 . S
C2020 C2021 1.397 . S
C2020 C2025 1.363 . S
C2021 H1992 0.950 . S
C2021 C2020 1.397 . S
C2021 C2022 1.334 . S
C2022 H1993 0.950 . S
C2022 C2021 1.334 . S
C2022 C2023 1.287 . S
C2023 C2022 1.287 . S
C2023 C2024 1.524 . S
C2023 H2026 0.999 . S
C2024 H1994 0.950 . S
C2024 C2023 1.524 . S
C2024 C2025 1.415 . S
C2025 H1995 0.950 . S
C2025 C2020 1.363 . S
C2025 C2024 1.415 . S
H2026 C2023 0.999 . S
H2027 C2008 0.913 . S
H2028 C2046 0.951 . S
H2029 C2048 0.939 1_455 S
H2030 C2050 0.950 . S
H2031 C2051 0.950 . S
H2032 C2053 0.950 . S
H2033 C2056 0.950 . S
H2034 C2057 0.950 . S
H2035 C2059 0.950 . S
H2036 C2060 0.950 . S
H2037 C2061 0.951 . S
H2038 C2063 0.951 . S
H2039 C2065 0.950 . S
H2040 C2066 0.950 . S
H2041 C2068 0.950 . S
H2042 C2071 0.950 . S
H2043 C2072 0.950 . S
H2044 C2074 0.950 . S
H2045 C2075 0.950 . S
C2046 H2028 0.951 . S
C2046 C2047 1.382 . S
C2046 C2048 1.388 1_455 S
C2047 C2046 1.382 . S
C2047 C2051 1.340 1_455 S
C2048 H2029 0.939 1_655 S
C2048 C2046 1.388 1_655 S
C2048 C2049 1.366 . S
C2049 C2048 1.366 . S
C2049 C2050 1.414 . S
C2049 C2052 1.499 . S
C2050 H2030 0.950 . S
C2050 C2049 1.414 . S
C2050 C2051 1.374 . S
C2051 H2031 0.950 . S
C2051 C2047 1.340 1_655 S
C2051 C2050 1.374 . S
C2052 C2049 1.499 . S
C2052 C2053 1.373 . S
C2052 C2054 1.389 . S
C2053 H2032 0.950 . S
C2053 C2052 1.373 . S
C2053 C2069 1.377 . S
C2054 C2052 1.389 . S
C2054 C2055 1.524 . S
C2054 C2068 1.377 . S
C2055 C2054 1.524 . S
C2055 C2056 1.397 . S
C2055 C2060 1.363 . S
C2056 H2033 0.950 . S
C2056 C2055 1.397 . S
C2056 C2057 1.334 . S
C2057 H2034 0.950 . S
C2057 C2056 1.334 . S
C2057 C2058 1.287 1_655 S
C2058 C2057 1.287 1_455 S
C2058 C2059 1.524 . S
C2058 H2077 0.913 . S
C2059 H2035 0.950 . S
C2059 C2058 1.524 . S
C2059 C2060 1.415 1_455 S
C2060 H2036 0.950 . S
C2060 C2055 1.363 . S
C2060 C2059 1.415 1_655 S
C2061 H2037 0.951 . S
C2061 C2062 1.366 . S
C2061 C2063 1.388 . S
C2062 C2061 1.366 . S
C2062 C2066 1.385 . S
C2063 H2038 0.951 . S
C2063 C2061 1.388 . S
C2063 C2064 1.366 . S
C2064 C2063 1.366 . S
C2064 C2065 1.414 . S
C2064 C2067 1.499 . S
C2065 H2039 0.950 . S
C2065 C2064 1.414 . S
C2065 C2066 1.374 . S
C2066 H2040 0.950 . S
C2066 C2062 1.385 . S
C2066 C2065 1.374 . S
C2067 C2064 1.499 . S
C2067 C2068 1.373 . S
C2067 C2069 1.389 . S
C2068 H2041 0.950 . S
C2068 C2054 1.377 . S
C2068 C2067 1.373 . S
C2069 C2053 1.377 . S
C2069 C2067 1.389 . S
C2069 C2070 1.524 . S
C2070 C2069 1.524 . S
C2070 C2071 1.397 . S
C2070 C2075 1.363 . S
C2071 H2042 0.950 . S
C2071 C2070 1.397 . S
C2071 C2072 1.334 . S
C2072 H2043 0.950 . S
C2072 C2071 1.334 . S
C2072 C2073 1.287 . S
C2073 C2072 1.287 . S
C2073 C2074 1.524 . S
C2073 H2076 0.999 . S
C2074 H2044 0.950 . S
C2074 C2073 1.524 . S
C2074 C2075 1.415 . S
C2075 H2045 0.950 . S
C2075 C2070 1.363 . S
C2075 C2074 1.415 . S
H2076 C2073 0.999 . S
H2077 C2058 0.913 . S
H2078 C2096 0.951 . S
H2079 C2098 0.951 . S
H2080 C2100 0.950 . S
H2081 C2101 0.950 . S
H2082 C2103 0.950 . S
H2083 C2106 0.950 . S
H2084 C2107 0.950 . S
H2085 C2109 0.950 . S
H2086 C2110 0.950 . S
H2087 C2111 0.951 1_545 S
H2088 C2113 0.951 . S
H2089 C2115 0.950 . S
H2090 C2116 0.950 . S
H2091 C2118 0.950 . S
H2092 C2121 0.950 . S
H2093 C2122 0.950 . S
H2094 C2124 0.950 . S
H2095 C2125 0.950 . S
C2096 H2078 0.951 . S
C2096 C2097 1.366 . S
C2096 C2098 1.388 . S
C2097 C2096 1.366 . S
C2097 C2101 1.385 . S
C2098 H2079 0.951 . S
C2098 C2096 1.388 . S
C2098 C2099 1.366 . S
C2099 C2098 1.366 . S
C2099 C2100 1.414 . S
C2099 C2102 1.499 . S
C2100 H2080 0.950 . S
C2100 C2099 1.414 . S
C2100 C2101 1.374 . S
C2101 H2081 0.950 . S
C2101 C2097 1.385 . S
C2101 C2100 1.374 . S
C2102 C2099 1.499 . S
C2102 C2103 1.373 . S
C2102 C2104 1.389 . S
C2103 H2082 0.950 . S
C2103 C2102 1.373 . S
C2103 C2119 1.377 . S
C2104 C2102 1.389 . S
C2104 C2105 1.524 . S
C2104 C2118 1.377 . S
C2105 C2104 1.524 . S
C2105 C2106 1.397 . S
C2105 C2110 1.363 . S
C2106 H2083 0.950 . S
C2106 C2105 1.397 . S
C2106 C2107 1.334 . S
C2107 H2084 0.950 . S
C2107 C2106 1.334 . S
C2107 C2108 1.287 . S
C2108 C2107 1.287 . S
C2108 C2109 1.524 . S
C2108 H2127 0.913 . S
C2109 H2085 0.950 . S
C2109 C2108 1.524 . S
C2109 C2110 1.415 . S
C2110 H2086 0.950 . S
C2110 C2105 1.363 . S
C2110 C2109 1.415 . S
C2111 H2087 0.951 1_565 S
C2111 C2112 1.360 1_565 S
C2111 C2113 1.388 . S
C2112 C2111 1.360 1_545 S
C2112 C2116 1.361 1_545 S
C2113 H2088 0.951 . S
C2113 C2111 1.388 . S
C2113 C2114 1.366 . S
C2114 C2113 1.366 . S
C2114 C2115 1.414 . S
C2114 C2117 1.499 . S
C2115 H2089 0.950 . S
C2115 C2114 1.414 . S
C2115 C2116 1.374 . S
C2116 H2090 0.950 . S
C2116 C2112 1.361 1_565 S
C2116 C2115 1.374 . S
C2117 C2114 1.499 . S
C2117 C2118 1.373 . S
C2117 C2119 1.389 . S
C2118 H2091 0.950 . S
C2118 C2104 1.377 . S
C2118 C2117 1.373 . S
C2119 C2103 1.377 . S
C2119 C2117 1.389 . S
C2119 C2120 1.524 . S
C2120 C2119 1.524 . S
C2120 C2121 1.397 . S
C2120 C2125 1.363 . S
C2121 H2092 0.950 . S
C2121 C2120 1.397 . S
C2121 C2122 1.334 . S
C2122 H2093 0.950 . S
C2122 C2121 1.334 . S
C2122 C2123 1.287 . S
C2123 C2122 1.287 . S
C2123 C2124 1.524 . S
C2123 H2126 0.999 . S
C2124 H2094 0.950 . S
C2124 C2123 1.524 . S
C2124 C2125 1.415 . S
C2125 H2095 0.950 . S
C2125 C2120 1.363 . S
C2125 C2124 1.415 . S
H2126 C2123 0.999 . S
H2127 C2108 0.913 . S
H2128 C2146 0.951 . S
H2129 C2148 0.951 . S
H2130 C2150 0.950 . S
H2131 C2151 0.950 1_455 S
H2132 C2153 0.950 . S
H2133 C2156 0.950 . S
H2134 C2157 0.950 . S
H2135 C2159 0.950 . S
H2136 C2160 0.950 . S
H2137 C2161 0.951 . S
H2138 C2163 0.951 . S
H2139 C2165 0.950 . S
H2140 C2166 0.950 . S
H2141 C2168 0.950 . S
H2142 C2171 0.950 . S
H2143 C2172 0.950 . S
H2144 C2174 0.950 . S
H2145 C2175 0.950 . S
C2146 H2128 0.951 . S
C2146 C2147 1.366 . S
C2146 C2148 1.388 . S
C2147 C2146 1.366 . S
C2147 C2151 1.385 . S
C2148 H2129 0.951 . S
C2148 C2146 1.388 . S
C2148 C2149 1.366 . S
C2149 C2148 1.366 . S
C2149 C2150 1.414 . S
C2149 C2152 1.499 . S
C2150 H2130 0.950 . S
C2150 C2149 1.414 . S
C2150 C2151 1.374 . S
C2151 H2131 0.950 1_655 S
C2151 C2147 1.385 . S
C2151 C2150 1.374 . S
C2152 C2149 1.499 . S
C2152 C2153 1.373 . S
C2152 C2154 1.389 . S
C2153 H2132 0.950 . S
C2153 C2152 1.373 . S
C2153 C2169 1.377 . S
C2154 C2152 1.389 . S
C2154 C2155 1.524 . S
C2154 C2168 1.377 . S
C2155 C2154 1.524 . S
C2155 C2156 1.397 . S
C2155 C2160 1.363 . S
C2156 H2133 0.950 . S
C2156 C2155 1.397 . S
C2156 C2157 1.334 . S
C2157 H2134 0.950 . S
C2157 C2156 1.334 . S
C2157 C2158 1.287 . S
C2158 C2157 1.287 . S
C2158 C2159 1.524 . S
C2158 H2177 0.913 . S
C2159 H2135 0.950 . S
C2159 C2158 1.524 . S
C2159 C2160 1.415 . S
C2160 H2136 0.950 . S
C2160 C2155 1.363 . S
C2160 C2159 1.415 . S
C2161 H2137 0.951 . S
C2161 C2162 1.366 . S
C2161 C2163 1.388 . S
C2162 C2161 1.366 . S
C2162 C2166 1.385 . S
C2163 H2138 0.951 . S
C2163 C2161 1.388 . S
C2163 C2164 1.366 . S
C2164 C2163 1.366 . S
C2164 C2165 1.414 . S
C2164 C2167 1.499 . S
C2165 H2139 0.950 . S
C2165 C2164 1.414 . S
C2165 C2166 1.374 . S
C2166 H2140 0.950 . S
C2166 C2162 1.385 . S
C2166 C2165 1.374 . S
C2167 C2164 1.499 . S
C2167 C2168 1.373 . S
C2167 C2169 1.389 . S
C2168 H2141 0.950 . S
C2168 C2154 1.377 . S
C2168 C2167 1.373 . S
C2169 C2153 1.377 . S
C2169 C2167 1.389 . S
C2169 C2170 1.524 . S
C2170 C2169 1.524 . S
C2170 C2171 1.397 . S
C2170 C2175 1.363 . S
C2171 H2142 0.950 . S
C2171 C2170 1.397 . S
C2171 C2172 1.334 . S
C2172 H2143 0.950 . S
C2172 C2171 1.334 . S
C2172 C2173 1.287 . S
C2173 C2172 1.287 . S
C2173 C2174 1.524 . S
C2173 H2176 0.999 . S
C2174 H2144 0.950 . S
C2174 C2173 1.524 . S
C2174 C2175 1.415 . S
C2175 H2145 0.950 . S
C2175 C2170 1.363 . S
C2175 C2174 1.415 . S
H2176 C2173 0.999 . S
H2177 C2158 0.913 . S
H2178 C2196 0.951 . S
H2179 C2198 0.951 . S
H2180 C2200 0.950 . S
H2181 C2201 0.950 1_545 S
H2182 C2203 0.950 . S
H2183 C2206 0.950 . S
H2184 C2207 0.950 . S
H2185 C2209 0.950 . S
H2186 C2210 0.950 . S
H2187 C2211 0.951 . S
H2188 C2213 0.951 . S
H2189 C2215 0.950 . S
H2190 C2216 0.950 . S
H2191 C2218 0.950 . S
H2192 C2221 0.950 . S
H2193 C2222 0.950 . S
H2194 C2224 0.950 . S
H2195 C2225 0.950 . S
C2196 H2178 0.951 . S
C2196 C2197 1.366 . S
C2196 C2198 1.388 . S
C2197 C2196 1.366 . S
C2197 C2201 1.385 . S
C2198 H2179 0.951 . S
C2198 C2196 1.388 . S
C2198 C2199 1.366 . S
C2199 C2198 1.366 . S
C2199 C2200 1.414 . S
C2199 C2202 1.499 . S
C2200 H2180 0.950 . S
C2200 C2199 1.414 . S
C2200 C2201 1.374 . S
C2201 H2181 0.950 1_565 S
C2201 C2197 1.385 . S
C2201 C2200 1.374 . S
C2202 C2199 1.499 . S
C2202 C2203 1.373 . S
C2202 C2204 1.389 . S
C2203 H2182 0.950 . S
C2203 C2202 1.373 . S
C2203 C2219 1.377 . S
C2204 C2202 1.389 . S
C2204 C2205 1.524 . S
C2204 C2218 1.377 . S
C2205 C2204 1.524 . S
C2205 C2206 1.397 . S
C2205 C2210 1.363 . S
C2206 H2183 0.950 . S
C2206 C2205 1.397 . S
C2206 C2207 1.334 . S
C2207 H2184 0.950 . S
C2207 C2206 1.334 . S
C2207 C2208 1.287 . S
C2208 C2207 1.287 . S
C2208 C2209 1.524 . S
C2208 H2227 0.913 . S
C2209 H2185 0.950 . S
C2209 C2208 1.524 . S
C2209 C2210 1.415 . S
C2210 H2186 0.950 . S
C2210 C2205 1.363 . S
C2210 C2209 1.415 . S
C2211 H2187 0.951 . S
C2211 C2212 1.366 . S
C2211 C2213 1.388 . S
C2212 C2211 1.366 . S
C2212 C2216 1.385 . S
C2213 H2188 0.951 . S
C2213 C2211 1.388 . S
C2213 C2214 1.366 . S
C2214 C2213 1.366 . S
C2214 C2215 1.414 . S
C2214 C2217 1.499 . S
C2215 H2189 0.950 . S
C2215 C2214 1.414 . S
C2215 C2216 1.374 . S
C2216 H2190 0.950 . S
C2216 C2212 1.385 . S
C2216 C2215 1.374 . S
C2217 C2214 1.499 . S
C2217 C2218 1.373 . S
C2217 C2219 1.389 . S
C2218 H2191 0.950 . S
C2218 C2204 1.377 . S
C2218 C2217 1.373 . S
C2219 C2203 1.377 . S
C2219 C2217 1.389 . S
C2219 C2220 1.524 . S
C2220 C2219 1.524 . S
C2220 C2221 1.397 . S
C2220 C2225 1.363 . S
C2221 H2192 0.950 . S
C2221 C2220 1.397 . S
C2221 C2222 1.334 . S
C2222 H2193 0.950 . S
C2222 C2221 1.334 . S
C2222 C2223 1.287 . S
C2223 C2222 1.287 . S
C2223 C2224 1.524 . S
C2223 H2226 0.999 . S
C2224 H2194 0.950 . S
C2224 C2223 1.524 . S
C2224 C2225 1.415 . S
C2225 H2195 0.950 . S
C2225 C2220 1.363 . S
C2225 C2224 1.415 . S
H2226 C2223 0.999 . S
H2227 C2208 0.913 . S
H2228 C2246 0.951 . S
H2229 C2248 0.951 . S
H2230 C2250 0.950 . S
H2231 C2251 0.950 . S
H2232 C2253 0.950 . S
H2233 C2256 0.950 . S
H2234 C2257 0.950 . S
H2235 C2259 0.950 . S
H2236 C2260 0.950 . S
H2237 C2261 0.951 . S
H2238 C2263 0.951 . S
H2239 C2265 0.950 . S
H2240 C2266 0.950 . S
H2241 C2268 0.950 . S
H2242 C2271 0.950 . S
H2243 C2272 0.950 . S
H2244 C2274 0.950 . S
H2245 C2275 0.950 . S
C2246 H2228 0.951 . S
C2246 C2247 1.366 . S
C2246 C2248 1.388 . S
C2247 C2246 1.366 . S
C2247 C2251 1.385 . S
C2248 H2229 0.951 . S
C2248 C2246 1.388 . S
C2248 C2249 1.366 . S
C2249 C2248 1.366 . S
C2249 C2250 1.414 . S
C2249 C2252 1.499 . S
C2250 H2230 0.950 . S
C2250 C2249 1.414 . S
C2250 C2251 1.374 . S
C2251 H2231 0.950 . S
C2251 C2247 1.385 . S
C2251 C2250 1.374 . S
C2252 C2249 1.499 . S
C2252 C2253 1.373 . S
C2252 C2254 1.389 . S
C2253 H2232 0.950 . S
C2253 C2252 1.373 . S
C2253 C2269 1.377 . S
C2254 C2252 1.389 . S
C2254 C2255 1.524 . S
C2254 C2268 1.377 . S
C2255 C2254 1.524 . S
C2255 C2256 1.397 . S
C2255 C2260 1.363 . S
C2256 H2233 0.950 . S
C2256 C2255 1.397 . S
C2256 C2257 1.334 . S
C2257 H2234 0.950 . S
C2257 C2256 1.334 . S
C2257 C2258 1.287 . S
C2258 C2257 1.287 . S
C2258 C2259 1.524 . S
C2258 H2277 0.913 . S
C2259 H2235 0.950 . S
C2259 C2258 1.524 . S
C2259 C2260 1.415 . S
C2260 H2236 0.950 . S
C2260 C2255 1.363 . S
C2260 C2259 1.415 . S
C2261 H2237 0.951 . S
C2261 C2262 1.366 . S
C2261 C2263 1.388 . S
C2262 C2261 1.366 . S
C2262 C2266 1.385 . S
C2263 H2238 0.951 . S
C2263 C2261 1.388 . S
C2263 C2264 1.366 . S
C2264 C2263 1.366 . S
C2264 C2265 1.414 . S
C2264 C2267 1.499 . S
C2265 H2239 0.950 . S
C2265 C2264 1.414 . S
C2265 C2266 1.374 . S
C2266 H2240 0.950 . S
C2266 C2262 1.385 . S
C2266 C2265 1.374 . S
C2267 C2264 1.499 . S
C2267 C2268 1.373 . S
C2267 C2269 1.389 . S
C2268 H2241 0.950 . S
C2268 C2254 1.377 . S
C2268 C2267 1.373 . S
C2269 C2253 1.377 . S
C2269 C2267 1.389 . S
C2269 C2270 1.524 . S
C2270 C2269 1.524 . S
C2270 C2271 1.397 . S
C2270 C2275 1.363 . S
C2271 H2242 0.950 . S
C2271 C2270 1.397 . S
C2271 C2272 1.334 . S
C2272 H2243 0.950 . S
C2272 C2271 1.334 . S
C2272 C2273 1.287 . S
C2273 C2272 1.287 . S
C2273 C2274 1.524 . S
C2273 H2276 0.999 . S
C2274 H2244 0.950 . S
C2274 C2273 1.524 . S
C2274 C2275 1.415 . S
C2275 H2245 0.950 . S
C2275 C2270 1.363 . S
C2275 C2274 1.415 . S
H2276 C2273 0.999 . S
H2277 C2258 0.913 . S
H2278 C2296 0.951 . S
H2279 C2298 0.951 . S
H2280 C2300 0.950 . S
H2281 C2301 0.950 . S
H2282 C2303 0.950 . S
H2283 C2306 0.950 . S
H2284 C2307 0.950 . S
H2285 C2309 0.950 . S
H2286 C2310 0.950 . S
H2287 C2311 0.951 . S
H2288 C2313 0.951 . S
H2289 C2315 0.950 . S
H2290 C2316 0.950 . S
H2291 C2318 0.950 . S
H2292 C2321 0.950 . S
H2293 C2322 0.950 . S
H2294 C2324 0.950 . S
H2295 C2325 0.950 . S
C2296 H2278 0.951 . S
C2296 C2297 1.366 . S
C2296 C2298 1.388 . S
C2297 C2296 1.366 . S
C2297 C2301 1.385 . S
C2298 H2279 0.951 . S
C2298 C2296 1.388 . S
C2298 C2299 1.366 . S
C2299 C2298 1.366 . S
C2299 C2300 1.414 . S
C2299 C2302 1.499 . S
C2300 H2280 0.950 . S
C2300 C2299 1.414 . S
C2300 C2301 1.374 . S
C2301 H2281 0.950 . S
C2301 C2297 1.385 . S
C2301 C2300 1.374 . S
C2302 C2299 1.499 . S
C2302 C2303 1.373 . S
C2302 C2304 1.389 . S
C2303 H2282 0.950 . S
C2303 C2302 1.373 . S
C2303 C2319 1.377 . S
C2304 C2302 1.389 . S
C2304 C2305 1.524 . S
C2304 C2318 1.377 . S
C2305 C2304 1.524 . S
C2305 C2306 1.397 . S
C2305 C2310 1.363 . S
C2306 H2283 0.950 . S
C2306 C2305 1.397 . S
C2306 C2307 1.334 . S
C2307 H2284 0.950 . S
C2307 C2306 1.334 . S
C2307 C2308 1.287 . S
C2308 C2307 1.287 . S
C2308 C2309 1.524 . S
C2308 H2327 0.913 . S
C2309 H2285 0.950 . S
C2309 C2308 1.524 . S
C2309 C2310 1.415 . S
C2310 H2286 0.950 . S
C2310 C2305 1.363 . S
C2310 C2309 1.415 . S
C2311 H2287 0.951 . S
C2311 C2312 1.366 . S
C2311 C2313 1.388 . S
C2312 C2311 1.366 . S
C2312 C2316 1.385 . S
C2313 H2288 0.951 . S
C2313 C2311 1.388 . S
C2313 C2314 1.366 . S
C2314 C2313 1.366 . S
C2314 C2315 1.414 . S
C2314 C2317 1.499 . S
C2315 H2289 0.950 . S
C2315 C2314 1.414 . S
C2315 C2316 1.374 . S
C2316 H2290 0.950 . S
C2316 C2312 1.385 . S
C2316 C2315 1.374 . S
C2317 C2314 1.499 . S
C2317 C2318 1.373 . S
C2317 C2319 1.389 . S
C2318 H2291 0.950 . S
C2318 C2304 1.377 . S
C2318 C2317 1.373 . S
C2319 C2303 1.377 . S
C2319 C2317 1.389 . S
C2319 C2320 1.524 . S
C2320 C2319 1.524 . S
C2320 C2321 1.397 . S
C2320 C2325 1.363 . S
C2321 H2292 0.950 . S
C2321 C2320 1.397 . S
C2321 C2322 1.334 . S
C2322 H2293 0.950 . S
C2322 C2321 1.334 . S
C2322 C2323 1.287 . S
C2323 C2322 1.287 . S
C2323 C2324 1.524 . S
C2323 H2326 0.999 . S
C2324 H2294 0.950 . S
C2324 C2323 1.524 . S
C2324 C2325 1.415 . S
C2325 H2295 0.950 . S
C2325 C2320 1.363 . S
C2325 C2324 1.415 . S
H2326 C2323 0.999 . S
H2327 C2308 0.913 . S
H2328 C2346 0.951 . S
H2329 C2348 0.951 . S
H2330 C2350 0.950 . S
H2331 C2351 0.950 1_455 S
H2332 C2353 0.950 . S
H2333 C2356 0.950 . S
H2334 C2357 0.950 . S
H2335 C2359 0.950 . S
H2336 C2360 0.950 . S
H2337 C2361 0.951 . S
H2338 C2363 0.951 . S
H2339 C2365 0.950 . S
H2340 C2366 0.950 . S
H2341 C2368 0.950 . S
H2342 C2371 0.950 . S
H2343 C2372 0.950 . S
H2344 C2374 0.950 . S
H2345 C2375 0.950 . S
C2346 H2328 0.951 . S
C2346 C2347 1.366 . S
C2346 C2348 1.388 . S
C2347 C2346 1.366 . S
C2347 C2351 1.385 . S
C2348 H2329 0.951 . S
C2348 C2346 1.388 . S
C2348 C2349 1.366 . S
C2349 C2348 1.366 . S
C2349 C2350 1.414 . S
C2349 C2352 1.499 . S
C2350 H2330 0.950 . S
C2350 C2349 1.414 . S
C2350 C2351 1.374 . S
C2351 H2331 0.950 1_655 S
C2351 C2347 1.385 . S
C2351 C2350 1.374 . S
C2352 C2349 1.499 . S
C2352 C2353 1.373 . S
C2352 C2354 1.389 . S
C2353 H2332 0.950 . S
C2353 C2352 1.373 . S
C2353 C2369 1.377 . S
C2354 C2352 1.389 . S
C2354 C2355 1.524 . S
C2354 C2368 1.377 . S
C2355 C2354 1.524 . S
C2355 C2356 1.397 . S
C2355 C2360 1.363 . S
C2356 H2333 0.950 . S
C2356 C2355 1.397 . S
C2356 C2357 1.334 . S
C2357 H2334 0.950 . S
C2357 C2356 1.334 . S
C2357 C2358 1.287 . S
C2358 C2357 1.287 . S
C2358 C2359 1.524 . S
C2358 H2377 0.913 . S
C2359 H2335 0.950 . S
C2359 C2358 1.524 . S
C2359 C2360 1.415 . S
C2360 H2336 0.950 . S
C2360 C2355 1.363 . S
C2360 C2359 1.415 . S
C2361 H2337 0.951 . S
C2361 C2362 1.366 . S
C2361 C2363 1.388 . S
C2362 C2361 1.366 . S
C2362 C2366 1.385 . S
C2363 H2338 0.951 . S
C2363 C2361 1.388 . S
C2363 C2364 1.366 . S
C2364 C2363 1.366 . S
C2364 C2365 1.414 . S
C2364 C2367 1.499 . S
C2365 H2339 0.950 . S
C2365 C2364 1.414 . S
C2365 C2366 1.374 . S
C2366 H2340 0.950 . S
C2366 C2362 1.385 . S
C2366 C2365 1.374 . S
C2367 C2364 1.499 . S
C2367 C2368 1.373 . S
C2367 C2369 1.389 . S
C2368 H2341 0.950 . S
C2368 C2354 1.377 . S
C2368 C2367 1.373 . S
C2369 C2353 1.377 . S
C2369 C2367 1.389 . S
C2369 C2370 1.524 . S
C2370 C2369 1.524 . S
C2370 C2371 1.397 . S
C2370 C2375 1.363 . S
C2371 H2342 0.950 . S
C2371 C2370 1.397 . S
C2371 C2372 1.334 . S
C2372 H2343 0.950 . S
C2372 C2371 1.334 . S
C2372 C2373 1.287 . S
C2373 C2372 1.287 . S
C2373 C2374 1.524 . S
C2373 H2376 0.999 . S
C2374 H2344 0.950 . S
C2374 C2373 1.524 . S
C2374 C2375 1.415 . S
C2375 H2345 0.950 . S
C2375 C2370 1.363 . S
C2375 C2374 1.415 . S
H2376 C2373 0.999 . S
H2377 C2358 0.913 . S
H2378 C2396 0.951 . S
H2379 C2398 0.951 . S
H2380 C2400 0.950 . S
H2381 C2401 0.950 . S
H2382 C2403 0.950 . S
H2383 C2406 0.950 . S
H2384 C2407 0.950 . S
H2385 C2409 0.950 . S
H2386 C2410 0.950 . S
H2387 C2411 0.951 . S
H2388 C2413 0.951 . S
H2389 C2415 0.950 . S
H2390 C2416 0.950 . S
H2391 C2418 0.950 . S
H2392 C2421 0.950 . S
H2393 C2422 0.950 . S
H2394 C2424 0.947 1_545 S
H2395 C2425 0.950 . S
C2396 H2378 0.951 . S
C2396 C2397 1.366 . S
C2396 C2398 1.388 . S
C2397 C2396 1.366 . S
C2397 C2401 1.385 . S
C2398 H2379 0.951 . S
C2398 C2396 1.388 . S
C2398 C2399 1.366 . S
C2399 C2398 1.366 . S
C2399 C2400 1.414 . S
C2399 C2402 1.499 . S
C2400 H2380 0.950 . S
C2400 C2399 1.414 . S
C2400 C2401 1.374 . S
C2401 H2381 0.950 . S
C2401 C2397 1.385 . S
C2401 C2400 1.374 . S
C2402 C2399 1.499 . S
C2402 C2403 1.373 . S
C2402 C2404 1.389 . S
C2403 H2382 0.950 . S
C2403 C2402 1.373 . S
C2403 C2419 1.377 . S
C2404 C2402 1.389 . S
C2404 C2405 1.524 . S
C2404 C2418 1.377 . S
C2405 C2404 1.524 . S
C2405 C2406 1.397 . S
C2405 C2410 1.363 . S
C2406 H2383 0.950 . S
C2406 C2405 1.397 . S
C2406 C2407 1.334 . S
C2407 H2384 0.950 . S
C2407 C2406 1.334 . S
C2407 C2408 1.287 . S
C2408 C2407 1.287 . S
C2408 C2409 1.524 . S
C2408 H2427 0.913 . S
C2409 H2385 0.950 . S
C2409 C2408 1.524 . S
C2409 C2410 1.415 . S
C2410 H2386 0.950 . S
C2410 C2405 1.363 . S
C2410 C2409 1.415 . S
C2411 H2387 0.951 . S
C2411 C2412 1.366 . S
C2411 C2413 1.388 . S
C2412 C2411 1.366 . S
C2412 C2416 1.385 . S
C2413 H2388 0.951 . S
C2413 C2411 1.388 . S
C2413 C2414 1.366 . S
C2414 C2413 1.366 . S
C2414 C2415 1.414 . S
C2414 C2417 1.499 . S
C2415 H2389 0.950 . S
C2415 C2414 1.414 . S
C2415 C2416 1.374 . S
C2416 H2390 0.950 . S
C2416 C2412 1.385 . S
C2416 C2415 1.374 . S
C2417 C2414 1.499 . S
C2417 C2418 1.373 . S
C2417 C2419 1.389 . S
C2418 H2391 0.950 . S
C2418 C2404 1.377 . S
C2418 C2417 1.373 . S
C2419 C2403 1.377 . S
C2419 C2417 1.389 . S
C2419 C2420 1.524 . S
C2420 C2419 1.524 . S
C2420 C2421 1.397 . S
C2420 C2425 1.363 . S
C2421 H2392 0.950 . S
C2421 C2420 1.397 . S
C2421 C2422 1.334 1_565 S
C2422 H2393 0.950 . S
C2422 C2421 1.334 1_545 S
C2422 C2423 1.287 . S
C2423 C2422 1.287 . S
C2423 C2424 1.524 1_545 S
C2423 H2426 0.999 . S
C2424 H2394 0.947 1_565 S
C2424 C2423 1.524 1_565 S
C2424 C2425 1.415 . S
C2425 H2395 0.950 . S
C2425 C2420 1.363 . S
C2425 C2424 1.415 . S
H2426 C2423 0.999 . S
H2427 C2408 0.913 . S
H2428 C2446 0.951 . S
H2429 C2448 0.951 . S
H2430 C2450 0.950 . S
H2431 C2451 0.950 . S
H2432 C2453 0.950 . S
H2433 C2456 0.950 . S
H2434 C2457 0.950 . S
H2435 C2459 0.950 . S
H2436 C2460 0.950 . S
H2437 C2461 0.951 . S
H2438 C2463 0.951 . S
H2439 C2465 0.950 . S
H2440 C2466 0.950 . S
H2441 C2468 0.950 . S
H2442 C2471 0.950 . S
H2443 C2472 0.950 . S
H2444 C2474 0.950 . S
H2445 C2475 0.950 . S
C2446 H2428 0.951 . S
C2446 C2447 1.366 . S
C2446 C2448 1.388 . S
C2447 C2446 1.366 . S
C2447 C2451 1.385 . S
C2448 H2429 0.951 . S
C2448 C2446 1.388 . S
C2448 C2449 1.366 . S
C2449 C2448 1.366 . S
C2449 C2450 1.414 . S
C2449 C2452 1.499 . S
C2450 H2430 0.950 . S
C2450 C2449 1.414 . S
C2450 C2451 1.374 . S
C2451 H2431 0.950 . S
C2451 C2447 1.385 . S
C2451 C2450 1.374 . S
C2452 C2449 1.499 . S
C2452 C2453 1.373 . S
C2452 C2454 1.389 . S
C2453 H2432 0.950 . S
C2453 C2452 1.373 . S
C2453 C2469 1.377 . S
C2454 C2452 1.389 . S
C2454 C2455 1.524 . S
C2454 C2468 1.377 . S
C2455 C2454 1.524 . S
C2455 C2456 1.397 . S
C2455 C2460 1.363 . S
C2456 H2433 0.950 . S
C2456 C2455 1.397 . S
C2456 C2457 1.334 . S
C2457 H2434 0.950 . S
C2457 C2456 1.334 . S
C2457 C2458 1.287 . S
C2458 C2457 1.287 . S
C2458 C2459 1.524 . S
C2458 H2477 0.913 . S
C2459 H2435 0.950 . S
C2459 C2458 1.524 . S
C2459 C2460 1.415 . S
C2460 H2436 0.950 . S
C2460 C2455 1.363 . S
C2460 C2459 1.415 . S
C2461 H2437 0.951 . S
C2461 C2462 1.366 . S
C2461 C2463 1.388 . S
C2462 C2461 1.366 . S
C2462 C2466 1.385 . S
C2463 H2438 0.951 . S
C2463 C2461 1.388 . S
C2463 C2464 1.366 . S
C2464 C2463 1.366 . S
C2464 C2465 1.414 . S
C2464 C2467 1.499 . S
C2465 H2439 0.950 . S
C2465 C2464 1.414 . S
C2465 C2466 1.374 . S
C2466 H2440 0.950 . S
C2466 C2462 1.385 . S
C2466 C2465 1.374 . S
C2467 C2464 1.499 . S
C2467 C2468 1.373 . S
C2467 C2469 1.389 . S
C2468 H2441 0.950 . S
C2468 C2454 1.377 . S
C2468 C2467 1.373 . S
C2469 C2453 1.377 . S
C2469 C2467 1.389 . S
C2469 C2470 1.524 . S
C2470 C2469 1.524 . S
C2470 C2471 1.397 . S
C2470 C2475 1.363 . S
C2471 H2442 0.950 . S
C2471 C2470 1.397 . S
C2471 C2472 1.334 . S
C2472 H2443 0.950 . S
C2472 C2471 1.334 . S
C2472 C2473 1.287 . S
C2473 C2472 1.287 . S
C2473 C2474 1.524 . S
C2473 H2476 0.999 . S
C2474 H2444 0.950 . S
C2474 C2473 1.524 . S
C2474 C2475 1.415 . S
C2475 H2445 0.950 . S
C2475 C2470 1.363 . S
C2475 C2474 1.415 . S
H2476 C2473 0.999 . S
H2477 C2458 0.913 . S
H2478 C2496 0.951 . S
H2479 C2498 0.951 . S
H2480 C2500 0.950 . S
H2481 C2501 0.950 . S
H2482 C2503 0.950 . S
H2483 C2506 0.950 . S
H2484 C2507 0.950 . S
H2485 C2509 0.950 . S
H2486 C2510 0.950 . S
H2487 C2511 0.951 . S
H2488 C2513 0.951 . S
H2489 C2515 0.950 . S
H2490 C2516 0.950 . S
H2491 C2518 0.950 . S
H2492 C2521 0.950 . S
H2493 C2522 0.950 . S
H2494 C2524 0.950 . S
H2495 C2525 0.950 . S
C2496 H2478 0.951 . S
C2496 C2497 1.366 . S
C2496 C2498 1.388 . S
C2497 C2496 1.366 . S
C2497 C2501 1.385 . S
C2498 H2479 0.951 . S
C2498 C2496 1.388 . S
C2498 C2499 1.366 . S
C2499 C2498 1.366 . S
C2499 C2500 1.414 . S
C2499 C2502 1.499 . S
C2500 H2480 0.950 . S
C2500 C2499 1.414 . S
C2500 C2501 1.374 . S
C2501 H2481 0.950 . S
C2501 C2497 1.385 . S
C2501 C2500 1.374 . S
C2502 C2499 1.499 . S
C2502 C2503 1.373 . S
C2502 C2504 1.389 . S
C2503 H2482 0.950 . S
C2503 C2502 1.373 . S
C2503 C2519 1.377 . S
C2504 C2502 1.389 . S
C2504 C2505 1.524 . S
C2504 C2518 1.377 . S
C2505 C2504 1.524 . S
C2505 C2506 1.397 . S
C2505 C2510 1.363 . S
C2506 H2483 0.950 . S
C2506 C2505 1.397 . S
C2506 C2507 1.334 . S
C2507 H2484 0.950 . S
C2507 C2506 1.334 . S
C2507 C2508 1.287 . S
C2508 C2507 1.287 . S
C2508 C2509 1.524 . S
C2508 H2527 0.913 . S
C2509 H2485 0.950 . S
C2509 C2508 1.524 . S
C2509 C2510 1.415 . S
C2510 H2486 0.950 . S
C2510 C2505 1.363 . S
C2510 C2509 1.415 . S
C2511 H2487 0.951 . S
C2511 C2512 1.366 . S
C2511 C2513 1.388 . S
C2512 C2511 1.366 . S
C2512 C2516 1.385 . S
C2513 H2488 0.951 . S
C2513 C2511 1.388 . S
C2513 C2514 1.366 . S
C2514 C2513 1.366 . S
C2514 C2515 1.414 . S
C2514 C2517 1.499 . S
C2515 H2489 0.950 . S
C2515 C2514 1.414 . S
C2515 C2516 1.374 . S
C2516 H2490 0.950 . S
C2516 C2512 1.385 . S
C2516 C2515 1.374 . S
C2517 C2514 1.499 . S
C2517 C2518 1.373 . S
C2517 C2519 1.389 . S
C2518 H2491 0.950 . S
C2518 C2504 1.377 . S
C2518 C2517 1.373 . S
C2519 C2503 1.377 . S
C2519 C2517 1.389 . S
C2519 C2520 1.524 . S
C2520 C2519 1.524 . S
C2520 C2521 1.397 . S
C2520 C2525 1.363 . S
C2521 H2492 0.950 . S
C2521 C2520 1.397 . S
C2521 C2522 1.334 . S
C2522 H2493 0.950 . S
C2522 C2521 1.334 . S
C2522 C2523 1.287 . S
C2523 C2522 1.287 . S
C2523 C2524 1.524 . S
C2523 H2526 0.999 . S
C2524 H2494 0.950 . S
C2524 C2523 1.524 . S
C2524 C2525 1.415 . S
C2525 H2495 0.950 . S
C2525 C2520 1.363 . S
C2525 C2524 1.415 . S
H2526 C2523 0.999 . S
H2527 C2508 0.913 . S
C547 C21 1.433 . S
C562 C219 1.433 . S
C597 C252 1.433 . S
C612 C54 1.433 . S
C647 C153 1.433 . S
C662 C87 1.433 . S
C697 C186 1.433 . S
C712 C120 1.433 . S
C747 C285 1.433 . S
C762 C483 1.433 . S
C797 C318 1.433 . S
C812 C516 1.433 . S
C847 C351 1.433 . S
C862 C417 1.433 . S
C897 C450 1.434 . S
C912 C384 1.433 . S
C947 C7 1.367 . S
C962 N101 1.359 . S
C997 C40 1.367 . S
C1012 N2 1.359 . S
C1047 N35 1.359 . S
C1062 C73 1.367 . S
C1097 C106 1.367 . S
C1112 N68 1.359 . S
C1147 N167 1.359 . S
C1162 C139 1.367 . S
C1197 N200 1.359 . S
C1212 C172 1.366 . S
C1247 N233 1.359 . S
C1262 C205 1.367 . S
C1297 N134 1.359 . S
C1312 C238 1.366 . S
C1347 C271 1.366 . S
C1362 N365 1.359 . S
C1397 N266 1.358 . S
C1412 C304 1.366 . S
C1447 C337 1.367 . S
C1462 N299 1.359 . S
C1497 C370 1.367 . S
C1512 N332 1.359 . S
C1547 C403 1.367 . S
C1562 N431 1.359 . S
C1597 C436 1.367 . S
C1612 N464 1.359 . S
C1647 C469 1.366 . S
C1662 N497 1.358 . S
C1697 N398 1.359 . S
C1712 C502 1.367 . S
C1747 N508 1.253 . S
C1762 N13 1.255 . S
C1797 N46 1.255 . S
C1812 N409 1.253 . S
C1847 N442 1.255 . S
C1862 N79 1.272 . S
C1897 N112 1.274 . S
C1912 N475 1.253 . S
C1947 N310 1.255 . S
C1962 N145 1.253 . S
C1997 N178 1.253 . S
C2012 N343 1.254 . S
C2047 N211 1.273 . S
C2062 N376 1.254 . S
C2097 N277 1.253 . S
C2112 N244 1.274 . S
C2147 C150 1.337 . S
C2162 C381 1.337 . S
C2197 C183 1.338 . S
C2212 C282 1.338 . S
C2247 C216 1.338 . S
C2262 C315 1.338 . S
C2297 C348 1.337 . S
C2312 C249 1.337 . S
C2347 C18 1.338 . S
C2362 C447 1.338 . S
C2397 C480 1.337 . S
C2412 C51 1.338 . S
C2447 C84 1.338 . S
C2462 C513 1.337 . S
C2497 C117 1.337 . S
C2512 C414 1.337 . S
