# Generated by pormake.
# Topology uot, (4)-cn, num edge types: 1
# Building blocks:
#     Node 0, Type 0, BuildingBlock: ICAMEG_clean_sbu_1, # of connection points: 4
#     Node 1, Type 0, BuildingBlock: ICAMEG_clean_sbu_1, # of connection points: 4
#     Node 2, Type 0, BuildingBlock: ICAMEG_clean_sbu_1, # of connection points: 4
#     Node 3, Type 0, BuildingBlock: ICAMEG_clean_sbu_1, # of connection points: 4
#     Node 4, Type 0, BuildingBlock: ICAMEG_clean_sbu_1, # of connection points: 4
#     Node 5, Type 0, BuildingBlock: ICAMEG_clean_sbu_1, # of connection points: 4
#     Node 6, Type 0, BuildingBlock: ICAMEG_clean_sbu_1, # of connection points: 4
#     Node 7, Type 0, BuildingBlock: ICAMEG_clean_sbu_1, # of connection points: 4
#     Node 8, Type 0, BuildingBlock: ICAMEG_clean_sbu_1, # of connection points: 4
#     Node 9, Type 0, BuildingBlock: ICAMEG_clean_sbu_1, # of connection points: 4
#     Node 10, Type 0, BuildingBlock: ICAMEG_clean_sbu_1, # of connection points: 4
#     Node 11, Type 0, BuildingBlock: ICAMEG_clean_sbu_1, # of connection points: 4
#     Node 12, Type 0, BuildingBlock: ICAMEG_clean_sbu_1, # of connection points: 4
#     Node 13, Type 0, BuildingBlock: ICAMEG_clean_sbu_1, # of connection points: 4
#     Node 14, Type 0, BuildingBlock: ICAMEG_clean_sbu_1, # of connection points: 4
#     Node 15, Type 0, BuildingBlock: ICAMEG_clean_sbu_1, # of connection points: 4
#     Edge 16, Type (0, 0), BuildingBlock: ZUJKAS_clean_linker_0, # of connection points: 2
#     Edge 17, Type (0, 0), BuildingBlock: ZUJKAS_clean_linker_0, # of connection points: 2
#     Edge 18, Type (0, 0), BuildingBlock: ZUJKAS_clean_linker_0, # of connection points: 2
#     Edge 19, Type (0, 0), BuildingBlock: ZUJKAS_clean_linker_0, # of connection points: 2
#     Edge 20, Type (0, 0), BuildingBlock: ZUJKAS_clean_linker_0, # of connection points: 2
#     Edge 21, Type (0, 0), BuildingBlock: ZUJKAS_clean_linker_0, # of connection points: 2
#     Edge 22, Type (0, 0), BuildingBlock: ZUJKAS_clean_linker_0, # of connection points: 2
#     Edge 23, Type (0, 0), BuildingBlock: ZUJKAS_clean_linker_0, # of connection points: 2
#     Edge 24, Type (0, 0), BuildingBlock: ZUJKAS_clean_linker_0, # of connection points: 2
#     Edge 25, Type (0, 0), BuildingBlock: ZUJKAS_clean_linker_0, # of connection points: 2
#     Edge 26, Type (0, 0), BuildingBlock: ZUJKAS_clean_linker_0, # of connection points: 2
#     Edge 27, Type (0, 0), BuildingBlock: ZUJKAS_clean_linker_0, # of connection points: 2
#     Edge 28, Type (0, 0), BuildingBlock: ZUJKAS_clean_linker_0, # of connection points: 2
#     Edge 29, Type (0, 0), BuildingBlock: ZUJKAS_clean_linker_0, # of connection points: 2
#     Edge 30, Type (0, 0), BuildingBlock: ZUJKAS_clean_linker_0, # of connection points: 2
#     Edge 31, Type (0, 0), BuildingBlock: ZUJKAS_clean_linker_0, # of connection points: 2
#     Edge 32, Type (0, 0), BuildingBlock: ZUJKAS_clean_linker_0, # of connection points: 2
#     Edge 33, Type (0, 0), BuildingBlock: ZUJKAS_clean_linker_0, # of connection points: 2
#     Edge 34, Type (0, 0), BuildingBlock: ZUJKAS_clean_linker_0, # of connection points: 2
#     Edge 35, Type (0, 0), BuildingBlock: ZUJKAS_clean_linker_0, # of connection points: 2
#     Edge 36, Type (0, 0), BuildingBlock: ZUJKAS_clean_linker_0, # of connection points: 2
#     Edge 37, Type (0, 0), BuildingBlock: ZUJKAS_clean_linker_0, # of connection points: 2
#     Edge 38, Type (0, 0), BuildingBlock: ZUJKAS_clean_linker_0, # of connection points: 2
#     Edge 39, Type (0, 0), BuildingBlock: ZUJKAS_clean_linker_0, # of connection points: 2
#     Edge 40, Type (0, 0), BuildingBlock: ZUJKAS_clean_linker_0, # of connection points: 2
#     Edge 41, Type (0, 0), BuildingBlock: ZUJKAS_clean_linker_0, # of connection points: 2
#     Edge 42, Type (0, 0), BuildingBlock: ZUJKAS_clean_linker_0, # of connection points: 2
#     Edge 43, Type (0, 0), BuildingBlock: ZUJKAS_clean_linker_0, # of connection points: 2
#     Edge 44, Type (0, 0), BuildingBlock: ZUJKAS_clean_linker_0, # of connection points: 2
#     Edge 45, Type (0, 0), BuildingBlock: ZUJKAS_clean_linker_0, # of connection points: 2
#     Edge 46, Type (0, 0), BuildingBlock: ZUJKAS_clean_linker_0, # of connection points: 2
#     Edge 47, Type (0, 0), BuildingBlock: ZUJKAS_clean_linker_0, # of connection points: 2
# Relax obj value: 0.030
# Max RMSD: 0.051
# Mean RMSD: 0.051
data_MOF--net-uot--node1-ICAMEG_clean_sbu_1--edge1-ZUJKAS_clean_linker_0
_symmetry_space_group_name_H-M    P1
_symmetry_Int_Tables_number       1
_symmetry_cell_setting            triclinic
loop_
_symmetry_equiv_pos_as_xyz
'x, y, z'
_cell_length_a     59.852603
_cell_length_b     59.841339
_cell_length_c     59.041022
_cell_angle_alpha  90.001866
_cell_angle_beta   89.990931
_cell_angle_gamma 89.974703
loop_
_atom_site_label
_atom_site_type_symbol
_atom_site_fract_x
_atom_site_fract_y
_atom_site_fract_z
_atom_type_partial_charge
Co0 Co 0.16528 0.43668 0.35679 0.0
Co1 Co 0.20659 0.43499 0.31617 0.0
O2 O 0.19598 0.43082 0.34723 0.0
C3 C 0.19204 0.46306 0.38968 0.0
O4 O 0.20387 0.47069 0.37262 0.0
C5 C 0.21941 0.38822 0.32661 0.0
O6 O 0.19886 0.38508 0.33373 0.0
O7 O 0.18134 0.41697 0.30375 0.0
O8 O 0.15329 0.42428 0.32786 0.0
H9 H 0.19874 0.45276 0.23338 0.0
H10 H 0.19558 0.41104 0.38677 0.0
O11 O 0.17629 0.44918 0.3862 0.0
H12 H 0.13261 0.36035 0.37071 0.0
H13 H 0.102 0.43898 0.41297 0.0
H14 H 0.12497 0.45525 0.33447 0.0
H15 H 0.13323 0.39848 0.3549 0.0
H16 H 0.14046 0.43108 0.40026 0.0
O17 O 0.22527 0.40724 0.31895 0.0
H18 H 0.18551 0.44788 0.27264 0.0
H19 H 0.25097 0.43003 0.29374 0.0
H20 H 0.0863 0.46326 0.34642 0.0
H21 H 0.19555 0.37309 0.4031 0.0
H22 H 0.0746 0.45511 0.38593 0.0
H23 H 0.16392 0.34744 0.39503 0.0
O24 O 0.16611 0.46709 0.3431 0.0
H25 H 0.27006 0.45116 0.36941 0.0
H26 H 0.22628 0.47938 0.30469 0.0
H27 H 0.25674 0.50241 0.32034 0.0
H28 H 0.2789 0.4883 0.35291 0.0
H29 H 0.2393 0.42876 0.35336 0.0
H30 H 0.26488 0.43455 0.25467 0.0
H31 H 0.23869 0.44607 0.22419 0.0
O32 O 0.18835 0.46287 0.31274 0.0
C33 C 0.16078 0.41609 0.30942 0.0
C34 C 0.21032 0.4478 0.24652 0.0
C35 C 0.24744 0.43754 0.25847 0.0
N36 N 0.21749 0.43884 0.28548 0.0
C37 C 0.20295 0.44507 0.2688 0.0
C38 C 0.23946 0.43497 0.28055 0.0
C39 C 0.23274 0.44402 0.24138 0.0
C40 C 0.18166 0.40004 0.38337 0.0
N41 N 0.16439 0.407 0.36998 0.0
C42 C 0.18178 0.37854 0.39258 0.0
C43 C 0.16404 0.36415 0.38802 0.0
C44 C 0.14648 0.37137 0.37436 0.0
C45 C 0.14695 0.39297 0.36541 0.0
C46 C 0.10689 0.44257 0.3957 0.0
C47 C 0.11997 0.45155 0.35166 0.0
C48 C 0.12866 0.43818 0.38842 0.0
N49 N 0.13491 0.44257 0.36661 0.0
C50 C 0.09807 0.45617 0.35834 0.0
C51 C 0.09152 0.45161 0.38052 0.0
C52 C 0.17455 0.4742 0.3246 0.0
C53 C 0.26056 0.45746 0.35518 0.0
C54 C 0.23578 0.47316 0.31892 0.0
C55 C 0.25306 0.48625 0.32767 0.0
C56 C 0.26549 0.47831 0.34593 0.0
N57 N 0.23107 0.45271 0.32806 0.0
C58 C 0.24319 0.44482 0.34596 0.0
Co59 Co 0.43533 0.84169 0.65121 0.0
Co60 Co 0.43375 0.79949 0.69113 0.0
O61 O 0.42949 0.81085 0.66036 0.0
C62 C 0.46239 0.81521 0.61865 0.0
O63 O 0.46958 0.80317 0.63575 0.0
C64 C 0.38654 0.78805 0.68093 0.0
O65 O 0.38377 0.80871 0.67397 0.0
O66 O 0.4167 0.82507 0.70447 0.0
O67 O 0.42228 0.8532 0.67996 0.0
H68 H 0.4533 0.80513 0.77368 0.0
H69 H 0.41061 0.81139 0.62044 0.0
O70 O 0.44853 0.83103 0.62197 0.0
H71 H 0.35897 0.87376 0.63602 0.0
H72 H 0.43819 0.90543 0.5956 0.0
H73 H 0.45266 0.88211 0.67436 0.0
H74 H 0.39679 0.87335 0.6526 0.0
H75 H 0.43054 0.86676 0.6078 0.0
O76 O 0.40546 0.78172 0.68845 0.0
H77 H 0.44817 0.81926 0.73478 0.0
H78 H 0.42767 0.75486 0.7128 0.0
H79 H 0.46037 0.92099 0.66294 0.0
H80 H 0.37299 0.81121 0.60336 0.0
H81 H 0.45314 0.93287 0.62329 0.0
H82 H 0.34687 0.84253 0.61118 0.0
O83 O 0.46549 0.84113 0.66557 0.0
H84 H 0.44716 0.73706 0.63583 0.0
H85 H 0.47733 0.7776 0.70176 0.0
H86 H 0.49913 0.74681 0.68496 0.0
H87 H 0.48403 0.72628 0.65176 0.0
H88 H 0.42604 0.76813 0.65304 0.0
H89 H 0.4324 0.74008 0.75151 0.0
H90 H 0.44539 0.76527 0.78225 0.0
O91 O 0.46221 0.81673 0.69435 0.0
C92 C 0.41501 0.84557 0.69872 0.0
C93 C 0.4477 0.79397 0.76042 0.0
C94 C 0.43593 0.75747 0.74798 0.0
N95 N 0.43778 0.78787 0.72152 0.0
C96 C 0.44482 0.80186 0.73835 0.0
C97 C 0.43323 0.76595 0.72611 0.0
C98 C 0.44323 0.77161 0.76522 0.0
C99 C 0.3994 0.82518 0.62375 0.0
N100 N 0.40592 0.8424 0.63742 0.0
C101 C 0.3781 0.82494 0.6141 0.0
C102 C 0.36343 0.8425 0.61853 0.0
C103 C 0.37021 0.86002 0.63248 0.0
C104 C 0.39163 0.85968 0.64186 0.0
C105 C 0.44139 0.90046 0.61293 0.0
C106 C 0.44936 0.88718 0.65711 0.0
C107 C 0.43715 0.87857 0.61992 0.0
N108 N 0.44106 0.87221 0.6418 0.0
C109 C 0.45381 0.9092 0.65073 0.0
C110 C 0.44977 0.91585 0.62848 0.0
C111 C 0.47307 0.83148 0.68326 0.0
C112 C 0.45391 0.74586 0.65031 0.0
C113 C 0.47073 0.76886 0.68724 0.0
C114 C 0.4831 0.75137 0.67784 0.0
C115 C 0.47461 0.73984 0.65923 0.0
N116 N 0.45045 0.77468 0.67839 0.0
C117 C 0.44199 0.76342 0.66017 0.0
Co118 Co 0.8411 0.56868 0.3547 0.0
Co119 Co 0.79905 0.57198 0.31502 0.0
O120 O 0.81051 0.57584 0.34575 0.0
C121 C 0.81444 0.54309 0.38831 0.0
O122 O 0.80324 0.53427 0.37141 0.0
C123 C 0.7882 0.61932 0.32547 0.0
O124 O 0.80896 0.62186 0.33221 0.0
O125 O 0.82482 0.58892 0.30199 0.0
O126 O 0.85309 0.58004 0.32535 0.0
H127 H 0.80441 0.55327 0.23224 0.0
H128 H 0.8127 0.59609 0.38509 0.0
O129 O 0.82991 0.55721 0.38448 0.0
H130 H 0.87749 0.64361 0.36664 0.0
H131 H 0.90501 0.56419 0.40996 0.0
H132 H 0.88023 0.54806 0.33201 0.0
H133 H 0.87471 0.60535 0.35138 0.0
H134 H 0.86673 0.57358 0.39773 0.0
O135 O 0.7816 0.60046 0.31803 0.0
H136 H 0.81862 0.55781 0.27119 0.0
H137 H 0.7545 0.57888 0.29344 0.0
H138 H 0.91871 0.53856 0.34346 0.0
H139 H 0.8149 0.63419 0.40087 0.0
H140 H 0.93132 0.54664 0.3827 0.0
H141 H 0.84745 0.65825 0.3916 0.0
O142 O 0.83873 0.53822 0.34128 0.0
H143 H 0.73673 0.55861 0.3704 0.0
H144 H 0.77648 0.52891 0.30374 0.0
H145 H 0.74546 0.50731 0.32033 0.0
H146 H 0.72532 0.52218 0.3539 0.0
H147 H 0.76801 0.57954 0.35338 0.0
H148 H 0.73964 0.57476 0.2547 0.0
H149 H 0.76465 0.56178 0.2238 0.0
O150 O 0.81595 0.54326 0.31142 0.0
C151 C 0.84555 0.58859 0.30709 0.0
C152 C 0.79333 0.55888 0.24558 0.0
C153 C 0.75699 0.57097 0.25817 0.0
N154 N 0.78737 0.56845 0.28459 0.0
C155 C 0.80127 0.56142 0.26767 0.0
C156 C 0.76551 0.57333 0.28006 0.0
C157 C 0.77103 0.56368 0.24085 0.0
C158 C 0.82702 0.60638 0.38116 0.0
N159 N 0.84361 0.59846 0.36743 0.0
C160 C 0.82813 0.62797 0.39007 0.0
C161 C 0.84638 0.64148 0.38483 0.0
C162 C 0.86323 0.63328 0.37082 0.0
C163 C 0.86155 0.61161 0.36219 0.0
C164 C 0.89973 0.56064 0.3928 0.0
C165 C 0.88564 0.55176 0.34906 0.0
C166 C 0.87806 0.56588 0.38579 0.0
N167 N 0.87132 0.56154 0.36411 0.0
C168 C 0.90743 0.54628 0.35547 0.0
C169 C 0.91448 0.5508 0.3775 0.0
C170 C 0.82957 0.53143 0.323 0.0
C171 C 0.74536 0.55196 0.35576 0.0
C172 C 0.76791 0.5354 0.31843 0.0
C173 C 0.75029 0.52315 0.3277 0.0
C174 C 0.73898 0.53151 0.34651 0.0
N175 N 0.77408 0.55544 0.32759 0.0
C176 C 0.76304 0.56377 0.34602 0.0
Co177 Co 0.5685 0.16368 0.64888 0.0
Co178 Co 0.57054 0.20601 0.68834 0.0
O179 O 0.57493 0.1944 0.65777 0.0
C180 C 0.54274 0.19053 0.61576 0.0
O181 O 0.53524 0.20239 0.63286 0.0
C182 C 0.61856 0.21732 0.68134 0.0
O183 O 0.62293 0.19591 0.67937 0.0
O184 O 0.58765 0.18061 0.70183 0.0
O185 O 0.5806 0.15212 0.67811 0.0
H186 H 0.55167 0.20139 0.77114 0.0
H187 H 0.59493 0.19299 0.61858 0.0
O188 O 0.55631 0.17448 0.61923 0.0
H189 H 0.64412 0.12907 0.63576 0.0
H190 H 0.56503 0.09946 0.59389 0.0
H191 H 0.54931 0.12411 0.67199 0.0
H192 H 0.60598 0.13084 0.65146 0.0
H193 H 0.57357 0.13801 0.60587 0.0
O194 O 0.59867 0.22406 0.68495 0.0
H195 H 0.55664 0.18673 0.73242 0.0
H196 H 0.57641 0.25095 0.7093 0.0
H197 H 0.54067 0.08536 0.66079 0.0
H198 H 0.63291 0.19182 0.60238 0.0
H199 H 0.54853 0.07281 0.62148 0.0
H200 H 0.6578 0.1597 0.61099 0.0
O201 O 0.53808 0.16531 0.66246 0.0
H202 H 0.55624 0.26802 0.63277 0.0
H203 H 0.52652 0.22706 0.69869 0.0
H204 H 0.5043 0.2575 0.68179 0.0
H205 H 0.51916 0.27824 0.6486 0.0
H206 H 0.57781 0.23733 0.65007 0.0
H207 H 0.57183 0.26628 0.74782 0.0
H208 H 0.55929 0.24144 0.77904 0.0
O209 O 0.54227 0.18851 0.69208 0.0
C210 C 0.58847 0.15992 0.69657 0.0
C211 C 0.55708 0.2124 0.75767 0.0
C212 C 0.56842 0.24881 0.74458 0.0
N213 N 0.56664 0.21801 0.7186 0.0
C214 C 0.55986 0.2042 0.7357 0.0
C215 C 0.57103 0.24003 0.72282 0.0
C216 C 0.56137 0.23487 0.76209 0.0
C217 C 0.60561 0.17888 0.62226 0.0
N218 N 0.59821 0.16196 0.63584 0.0
C219 C 0.62712 0.17835 0.6131 0.0
C220 C 0.64109 0.16033 0.61796 0.0
C221 C 0.63343 0.14315 0.63187 0.0
C222 C 0.61183 0.14426 0.64075 0.0
C223 C 0.56156 0.10471 0.61108 0.0
C224 C 0.5529 0.11873 0.65489 0.0
C225 C 0.56631 0.12653 0.61794 0.0
N226 N 0.56208 0.13325 0.63965 0.0
C227 C 0.54792 0.09679 0.64863 0.0
C228 C 0.55231 0.08977 0.62657 0.0
C229 C 0.53091 0.17444 0.6806 0.0
C230 C 0.54961 0.25916 0.64727 0.0
C231 C 0.53308 0.23596 0.68421 0.0
C232 C 0.52044 0.25322 0.67475 0.0
C233 C 0.5288 0.26485 0.65614 0.0
N234 N 0.5535 0.23049 0.67544 0.0
C235 C 0.5618 0.24183 0.6572 0.0
Co236 Co 0.16272 0.56955 0.65077 0.0
Co237 Co 0.20423 0.57132 0.69119 0.0
O238 O 0.19335 0.57577 0.66028 0.0
C239 C 0.18999 0.54402 0.61767 0.0
O240 O 0.20194 0.53657 0.63472 0.0
C241 C 0.21604 0.61844 0.68124 0.0
O242 O 0.19541 0.62126 0.67426 0.0
O243 O 0.17869 0.58864 0.70404 0.0
O244 O 0.15063 0.58145 0.6799 0.0
H245 H 0.19723 0.55212 0.77373 0.0
H246 H 0.19248 0.59596 0.62093 0.0
O247 O 0.17389 0.5575 0.6212 0.0
H248 H 0.12878 0.64551 0.63784 0.0
H249 H 0.09936 0.56684 0.59473 0.0
H250 H 0.12276 0.55019 0.67302 0.0
H251 H 0.13008 0.60723 0.65323 0.0
H252 H 0.13773 0.57516 0.60742 0.0
O253 O 0.22231 0.59946 0.68872 0.0
H254 H 0.18368 0.55733 0.73463 0.0
H255 H 0.24862 0.57682 0.71342 0.0
H256 H 0.08417 0.54176 0.66111 0.0
H257 H 0.19177 0.63407 0.60502 0.0
H258 H 0.07226 0.55009 0.6217 0.0
H259 H 0.15978 0.65916 0.61352 0.0
O260 O 0.16408 0.53901 0.66411 0.0
H261 H 0.26769 0.55724 0.6373 0.0
H262 H 0.2249 0.52716 0.70183 0.0
H263 H 0.25573 0.50498 0.68562 0.0
H264 H 0.27739 0.52002 0.65313 0.0
H265 H 0.23658 0.57878 0.6539 0.0
H266 H 0.26285 0.57199 0.75233 0.0
H267 H 0.23709 0.55947 0.78278 0.0
O268 O 0.1866 0.54303 0.69427 0.0
C269 C 0.1581 0.58938 0.69847 0.0
C270 C 0.20864 0.55752 0.76059 0.0
C271 C 0.24546 0.5687 0.74859 0.0
N272 N 0.21538 0.56721 0.72174 0.0
C273 C 0.20107 0.56044 0.73841 0.0
C274 C 0.2373 0.57145 0.72661 0.0
C275 C 0.231 0.56166 0.76567 0.0
C276 C 0.17841 0.60671 0.62452 0.0
N277 N 0.16131 0.59934 0.63791 0.0
C278 C 0.17814 0.6283 0.61555 0.0
C279 C 0.1602 0.64238 0.62035 0.0
C280 C 0.14281 0.63474 0.63401 0.0
C281 C 0.14366 0.61306 0.64272 0.0
C282 C 0.10434 0.56316 0.61196 0.0
C283 C 0.11766 0.55398 0.65588 0.0
C284 C 0.12606 0.56779 0.61922 0.0
N285 N 0.13243 0.5633 0.64098 0.0
C286 C 0.09581 0.54912 0.64922 0.0
C287 C 0.08914 0.55378 0.6271 0.0
C288 C 0.17286 0.5317 0.68236 0.0
C289 C 0.25841 0.55053 0.65149 0.0
C290 C 0.23419 0.53379 0.68765 0.0
C291 C 0.25167 0.52118 0.67858 0.0
C292 C 0.26382 0.52964 0.66036 0.0
N293 N 0.229 0.55428 0.67887 0.0
C294 C 0.24084 0.56269 0.66102 0.0
Co295 Co 0.56771 0.84287 0.35696 0.0
Co296 Co 0.57133 0.80158 0.31668 0.0
O297 O 0.57513 0.8124 0.34769 0.0
C298 C 0.54355 0.81512 0.39067 0.0
O299 O 0.53611 0.8029 0.37382 0.0
C300 C 0.61837 0.78972 0.32723 0.0
O301 O 0.62119 0.81033 0.3343 0.0
O302 O 0.58892 0.82721 0.30448 0.0
O303 O 0.57863 0.85524 0.3275 0.0
H304 H 0.55395 0.80891 0.23376 0.0
H305 H 0.59582 0.81473 0.38685 0.0
O306 O 0.5566 0.8315 0.38682 0.0
H307 H 0.64224 0.88028 0.36824 0.0
H308 H 0.56307 0.90669 0.41235 0.0
H309 H 0.54591 0.88159 0.33473 0.0
H310 H 0.60386 0.87706 0.35341 0.0
H311 H 0.57299 0.8686 0.3999 0.0
O312 O 0.59943 0.7835 0.31965 0.0
H313 H 0.5583 0.82231 0.27302 0.0
H314 H 0.57739 0.75726 0.29437 0.0
H315 H 0.53586 0.91987 0.34641 0.0
H316 H 0.63406 0.81738 0.40222 0.0
H317 H 0.54445 0.93264 0.38548 0.0
H318 H 0.65756 0.85031 0.39286 0.0
O319 O 0.53717 0.83997 0.34405 0.0
H320 H 0.55624 0.73785 0.36993 0.0
H321 H 0.52749 0.78083 0.3049 0.0
H322 H 0.50507 0.74986 0.32044 0.0
H323 H 0.51945 0.7281 0.35317 0.0
H324 H 0.57802 0.7691 0.35398 0.0
H325 H 0.57343 0.7432 0.2553 0.0
H326 H 0.56154 0.76908 0.22469 0.0
O327 O 0.54301 0.81917 0.31297 0.0
C328 C 0.58795 0.84792 0.30954 0.0
C329 C 0.55908 0.79745 0.24696 0.0
C330 C 0.57004 0.76058 0.25904 0.0
N331 N 0.56794 0.79055 0.28598 0.0
C332 C 0.56152 0.80493 0.26923 0.0
C333 C 0.57231 0.76865 0.28112 0.0
C334 C 0.56336 0.77511 0.24188 0.0
C335 C 0.60588 0.82921 0.38289 0.0
N336 N 0.59758 0.84576 0.36935 0.0
C337 C 0.62754 0.83058 0.39156 0.0
C338 C 0.64074 0.84904 0.38628 0.0
C339 C 0.63215 0.86586 0.37245 0.0
C340 C 0.61043 0.86391 0.36406 0.0
C341 C 0.55929 0.90134 0.39527 0.0
C342 C 0.54984 0.88708 0.35171 0.0
C343 C 0.56483 0.87978 0.38813 0.0
N344 N 0.56021 0.87296 0.36655 0.0
C345 C 0.54405 0.90875 0.35825 0.0
C346 C 0.54885 0.91589 0.38018 0.0
C347 C 0.53074 0.83183 0.32518 0.0
C348 C 0.54982 0.74717 0.35563 0.0
C349 C 0.53383 0.7715 0.3192 0.0
C350 C 0.52108 0.75394 0.32789 0.0
C351 C 0.52917 0.74173 0.34624 0.0
N352 N 0.55408 0.77672 0.32848 0.0
C353 C 0.56212 0.76482 0.34647 0.0
Co354 Co 0.84096 0.43882 0.6506 0.0
Co355 Co 0.80107 0.4349 0.69236 0.0
O356 O 0.81074 0.43157 0.66084 0.0
C357 C 0.81351 0.46482 0.61776 0.0
O358 O 0.80337 0.47452 0.63486 0.0
C359 C 0.78802 0.38867 0.67998 0.0
O360 O 0.80721 0.38676 0.66942 0.0
O361 O 0.82701 0.41702 0.70327 0.0
O362 O 0.85431 0.42748 0.67947 0.0
H363 H 0.81176 0.45125 0.77512 0.0
H364 H 0.81195 0.4115 0.62075 0.0
O365 O 0.82857 0.45019 0.62128 0.0
H366 H 0.87752 0.3642 0.63693 0.0
H367 H 0.90275 0.44378 0.59291 0.0
H368 H 0.88064 0.45997 0.67169 0.0
H369 H 0.87484 0.40224 0.65276 0.0
H370 H 0.86506 0.43403 0.60661 0.0
O371 O 0.78289 0.4068 0.69002 0.0
H372 H 0.82355 0.44735 0.73527 0.0
H373 H 0.75767 0.4287 0.71641 0.0
H374 H 0.91854 0.46986 0.65874 0.0
H375 H 0.81411 0.37367 0.60431 0.0
H376 H 0.92982 0.46175 0.61909 0.0
H377 H 0.84704 0.34971 0.61246 0.0
O378 O 0.83879 0.46921 0.66407 0.0
H379 H 0.73572 0.45104 0.64155 0.0
H380 H 0.78077 0.47855 0.70566 0.0
H381 H 0.74933 0.50129 0.69158 0.0
H382 H 0.72653 0.48753 0.65932 0.0
H383 H 0.76743 0.42892 0.65607 0.0
H384 H 0.7452 0.43221 0.75608 0.0
H385 H 0.77233 0.44365 0.78573 0.0
O386 O 0.81884 0.46312 0.69568 0.0
C387 C 0.84754 0.41797 0.69755 0.0
C388 C 0.79977 0.44632 0.76234 0.0
C389 C 0.76242 0.43561 0.75166 0.0
N390 N 0.79128 0.43797 0.72352 0.0
C391 C 0.80634 0.44414 0.73974 0.0
C392 C 0.76959 0.4336 0.72923 0.0
C393 C 0.77765 0.44203 0.76828 0.0
C394 C 0.82645 0.40127 0.62416 0.0
N395 N 0.84326 0.4091 0.63766 0.0
C396 C 0.82753 0.37982 0.61489 0.0
C397 C 0.84599 0.36637 0.61951 0.0
C398 C 0.86309 0.37448 0.63326 0.0
C399 C 0.86143 0.39601 0.64225 0.0
C400 C 0.89806 0.44734 0.61025 0.0
C401 C 0.88547 0.45625 0.65446 0.0
C402 C 0.87673 0.44188 0.6181 0.0
N403 N 0.87073 0.44622 0.64 0.0
C404 C 0.90693 0.46195 0.6472 0.0
C405 C 0.91324 0.45742 0.62494 0.0
C406 C 0.83123 0.47545 0.68326 0.0
C407 C 0.74549 0.45718 0.65565 0.0
C408 C 0.77097 0.47248 0.69158 0.0
C409 C 0.75316 0.48541 0.68371 0.0
C410 C 0.74036 0.47767 0.66561 0.0
N411 N 0.77586 0.45237 0.68175 0.0
C412 C 0.76341 0.4447 0.66399 0.0
Co413 Co 0.43948 0.16453 0.3545 0.0
Co414 Co 0.4361 0.20528 0.31369 0.0
O415 O 0.43212 0.19486 0.34481 0.0
C416 C 0.46341 0.19258 0.38809 0.0
O417 O 0.47127 0.20441 0.37113 0.0
C418 C 0.3891 0.21739 0.32408 0.0
O419 O 0.3862 0.1968 0.33121 0.0
O420 O 0.41853 0.17951 0.30173 0.0
O421 O 0.42895 0.15179 0.32507 0.0
H422 H 0.45389 0.1969 0.23095 0.0
H423 H 0.41099 0.19294 0.38377 0.0
O424 O 0.45023 0.1763 0.38433 0.0
H425 H 0.36492 0.12708 0.36543 0.0
H426 H 0.44363 0.1014 0.41073 0.0
H427 H 0.4617 0.12562 0.33303 0.0
H428 H 0.40344 0.13023 0.35096 0.0
H429 H 0.43377 0.1393 0.39769 0.0
O430 O 0.40803 0.22347 0.31637 0.0
H431 H 0.44933 0.184 0.27036 0.0
H432 H 0.43019 0.24931 0.29079 0.0
H433 H 0.4717 0.08751 0.34529 0.0
H434 H 0.37261 0.19037 0.39877 0.0
H435 H 0.46266 0.07518 0.38441 0.0
H436 H 0.34928 0.15729 0.38956 0.0
O437 O 0.47013 0.16738 0.34187 0.0
H438 H 0.45116 0.26957 0.36626 0.0
H439 H 0.48001 0.22582 0.3018 0.0
H440 H 0.50245 0.25691 0.31706 0.0
H441 H 0.48802 0.27906 0.3495 0.0
H442 H 0.42936 0.23819 0.35061 0.0
H443 H 0.43437 0.26289 0.25157 0.0
H444 H 0.44639 0.23662 0.22135 0.0
O445 O 0.46444 0.18758 0.31034 0.0
C446 C 0.41968 0.15886 0.30698 0.0
C447 C 0.44871 0.20853 0.24398 0.0
C448 C 0.43772 0.24556 0.25554 0.0
N449 N 0.43966 0.21592 0.28287 0.0
C450 C 0.44615 0.20133 0.26633 0.0
C451 C 0.43533 0.23776 0.27771 0.0
C452 C 0.44447 0.23081 0.2386 0.0
C453 C 0.40101 0.17839 0.37988 0.0
N454 N 0.40948 0.16171 0.3666 0.0
C455 C 0.37926 0.17707 0.38834 0.0
C456 C 0.36617 0.15852 0.38313 0.0
C457 C 0.37493 0.14157 0.36958 0.0
C458 C 0.39674 0.14347 0.36139 0.0
C459 C 0.44761 0.10655 0.39362 0.0
C460 C 0.45756 0.12032 0.35002 0.0
C461 C 0.44209 0.12801 0.38616 0.0
N462 N 0.44696 0.13459 0.36454 0.0
C463 C 0.46333 0.09875 0.35689 0.0
C464 C 0.45828 0.09185 0.37885 0.0
C465 C 0.47667 0.1752 0.32289 0.0
C466 C 0.4576 0.26008 0.35208 0.0
C467 C 0.47365 0.23531 0.31597 0.0
C468 C 0.48641 0.25294 0.3245 0.0
C469 C 0.47829 0.26537 0.34269 0.0
N470 N 0.45336 0.23024 0.32526 0.0
C471 C 0.44529 0.24235 0.34309 0.0
Co472 Co 0.66422 0.93958 0.85583 0.0
Co473 Co 0.70512 0.93585 0.81524 0.0
O474 O 0.69459 0.9321 0.84635 0.0
C475 C 0.69217 0.96346 0.88957 0.0
O476 O 0.70426 0.97111 0.87271 0.0
C477 C 0.71731 0.88895 0.82598 0.0
O478 O 0.6967 0.88601 0.83297 0.0
O479 O 0.67947 0.9181 0.80335 0.0
O480 O 0.65164 0.92896 0.82634 0.0
H481 H 0.69701 0.95287 0.73231 0.0
H482 H 0.69236 0.91112 0.88537 0.0
O483 O 0.6758 0.95042 0.88569 0.0
H484 H 0.6265 0.86516 0.86681 0.0
H485 H 0.60072 0.94414 0.91159 0.0
H486 H 0.62554 0.96184 0.834 0.0
H487 H 0.62984 0.90362 0.85221 0.0
H488 H 0.63867 0.93409 0.89885 0.0
O489 O 0.72338 0.90788 0.81824 0.0
H490 H 0.68396 0.9486 0.77171 0.0
H491 H 0.74926 0.92992 0.79257 0.0
H492 H 0.5874 0.97203 0.84597 0.0
H493 H 0.6896 0.87279 0.9005 0.0
H494 H 0.57476 0.96317 0.88503 0.0
H495 H 0.65651 0.84952 0.89117 0.0
O496 O 0.66724 0.97018 0.84308 0.0
H497 H 0.76922 0.95154 0.86783 0.0
H498 H 0.7255 0.97977 0.80308 0.0
H499 H 0.75649 1.00243 0.81822 0.0
H500 H 0.77862 0.98831 0.85081 0.0
H501 H 0.73795 0.92952 0.85229 0.0
H502 H 0.76298 0.9338 0.75336 0.0
H503 H 0.73679 0.94544 0.72293 0.0
O504 O 0.68733 0.96407 0.81156 0.0
C505 C 0.65878 0.91945 0.80841 0.0
C506 C 0.7086 0.94785 0.74543 0.0
C507 C 0.74562 0.93712 0.75724 0.0
N508 N 0.71587 0.93918 0.78444 0.0
C509 C 0.70132 0.94546 0.76778 0.0
C510 C 0.73775 0.9349 0.7794 0.0
C511 C 0.73092 0.94366 0.74018 0.0
C512 C 0.67781 0.90117 0.88143 0.0
N513 N 0.66124 0.90963 0.86802 0.0
C514 C 0.67639 0.87945 0.88996 0.0
C515 C 0.65783 0.86638 0.88469 0.0
C516 C 0.64099 0.87514 0.87101 0.0
C517 C 0.643 0.89692 0.86275 0.0
C518 C 0.60601 0.94803 0.89451 0.0
C519 C 0.62011 0.95778 0.85097 0.0
C520 C 0.62749 0.94242 0.88722 0.0
N521 N 0.63423 0.94718 0.86563 0.0
C522 C 0.59852 0.96366 0.85767 0.0
C523 C 0.59145 0.95871 0.8796 0.0
C524 C 0.67497 0.97646 0.82398 0.0
C525 C 0.75974 0.95784 0.85359 0.0
C526 C 0.73499 0.97354 0.81732 0.0
C527 C 0.75256 0.98643 0.82578 0.0
C528 C 0.76498 0.97849 0.84405 0.0
N529 N 0.72997 0.9533 0.82675 0.0
C530 C 0.74207 0.9454 0.84466 0.0
Co531 Co 0.93956 0.34263 0.14983 0.0
Co532 Co 0.93555 0.30116 0.18982 0.0
O533 O 0.9321 0.31211 0.15883 0.0
C534 C 0.96399 0.31507 0.11616 0.0
O535 O 0.97152 0.30293 0.13305 0.0
C536 C 0.88873 0.28918 0.17857 0.0
O537 O 0.88586 0.3099 0.17183 0.0
O538 O 0.91763 0.32664 0.20187 0.0
O539 O 0.92841 0.35484 0.1793 0.0
H540 H 0.95173 0.30815 0.27302 0.0
H541 H 0.91165 0.31468 0.11958 0.0
O542 O 0.95086 0.33139 0.11998 0.0
H543 H 0.86512 0.38018 0.13821 0.0
H544 H 0.94462 0.40676 0.09486 0.0
H545 H 0.96117 0.38121 0.17247 0.0
H546 H 0.90339 0.37684 0.1533 0.0
H547 H 0.93463 0.3686 0.107 0.0
O548 O 0.90761 0.28295 0.1863 0.0
H549 H 0.94783 0.32173 0.23377 0.0
H550 H 0.92942 0.25671 0.21181 0.0
H551 H 0.97129 0.41955 0.16111 0.0
H552 H 0.87352 0.31745 0.10395 0.0
H553 H 0.96301 0.43255 0.12204 0.0
H554 H 0.84996 0.35036 0.11331 0.0
O555 O 0.96998 0.33962 0.16299 0.0
H556 H 0.95182 0.23778 0.13649 0.0
H557 H 0.97935 0.28061 0.20215 0.0
H558 H 1.00218 0.24983 0.18679 0.0
H559 H 0.98842 0.22815 0.15374 0.0
H560 H 0.92961 0.26883 0.15226 0.0
H561 H 0.93293 0.24246 0.25086 0.0
H562 H 0.94425 0.26825 0.28177 0.0
O563 O 0.9637 0.3189 0.19404 0.0
C564 C 0.91876 0.34739 0.19703 0.0
C565 C 0.94685 0.29674 0.25969 0.0
C566 C 0.93627 0.25988 0.24726 0.0
N567 N 0.93857 0.29 0.22051 0.0
C568 C 0.94467 0.30432 0.23743 0.0
C569 C 0.93426 0.26805 0.22519 0.0
C570 C 0.94263 0.27435 0.26459 0.0
C571 C 0.90157 0.32915 0.12354 0.0
N572 N 0.90977 0.34562 0.13723 0.0
C573 C 0.87997 0.33059 0.11472 0.0
C574 C 0.86674 0.34904 0.12001 0.0
C575 C 0.87523 0.36577 0.13399 0.0
C576 C 0.8969 0.36376 0.14253 0.0
C577 C 0.94827 0.40131 0.11194 0.0
C578 C 0.95737 0.3868 0.1555 0.0
C579 C 0.94268 0.37971 0.1189 0.0
N580 N 0.94713 0.37276 0.14049 0.0
C581 C 0.9632 0.4085 0.14913 0.0
C582 C 0.95858 0.41577 0.12721 0.0
C583 C 0.97613 0.33155 0.18199 0.0
C584 C 0.95797 0.24706 0.15093 0.0
C585 C 0.97328 0.27131 0.18771 0.0
C586 C 0.98626 0.25386 0.17913 0.0
C587 C 0.97852 0.24169 0.1606 0.0
N588 N 0.95312 0.27647 0.17815 0.0
C589 C 0.94542 0.26461 0.15998 0.0
Co590 Co 0.3434 0.06961 0.85674 0.0
Co591 Co 0.30157 0.07145 0.81664 0.0
O592 O 0.31268 0.07583 0.84748 0.0
C593 C 0.31642 0.04391 0.88991 0.0
O594 O 0.30439 0.03648 0.87291 0.0
C595 C 0.28989 0.11857 0.82674 0.0
O596 O 0.31054 0.12129 0.83371 0.0
O597 O 0.32701 0.08877 0.80363 0.0
O598 O 0.35525 0.08167 0.82758 0.0
H599 H 0.30795 0.05238 0.73402 0.0
H600 H 0.31377 0.09584 0.88691 0.0
O601 O 0.33246 0.05744 0.88633 0.0
H602 H 0.37721 0.14559 0.86976 0.0
H603 H 0.40715 0.06677 0.9123 0.0
H604 H 0.38325 0.05042 0.83411 0.0
H605 H 0.37591 0.10737 0.85421 0.0
H606 H 0.36867 0.07509 0.89993 0.0
O607 O 0.28353 0.09962 0.81927 0.0
H608 H 0.32179 0.05752 0.77302 0.0
H609 H 0.25701 0.07702 0.79476 0.0
H610 H 0.42193 0.042 0.84571 0.0
H611 H 0.31448 0.13389 0.90298 0.0
H612 H 0.4341 0.05018 0.88507 0.0
H613 H 0.34635 0.15907 0.89436 0.0
O614 O 0.34204 0.03912 0.84327 0.0
H615 H 0.23851 0.05736 0.87099 0.0
H616 H 0.28083 0.02732 0.8061 0.0
H617 H 0.25012 0.00515 0.82252 0.0
H618 H 0.2287 0.02017 0.85518 0.0
H619 H 0.26949 0.07889 0.85418 0.0
H620 H 0.24249 0.07225 0.75596 0.0
H621 H 0.26802 0.05977 0.72529 0.0
O622 O 0.31918 0.04317 0.81338 0.0
C623 C 0.34763 0.08958 0.80906 0.0
C624 C 0.29664 0.05776 0.74725 0.0
C625 C 0.25991 0.06895 0.75956 0.0
N626 N 0.29019 0.0674 0.78617 0.0
C627 C 0.30437 0.06064 0.76938 0.0
C628 C 0.26823 0.07166 0.78149 0.0
C629 C 0.27424 0.06193 0.74236 0.0
C630 C 0.32779 0.10663 0.88326 0.0
N631 N 0.34482 0.09936 0.86972 0.0
C632 C 0.32806 0.12819 0.89233 0.0
C633 C 0.34593 0.14232 0.88746 0.0
C634 C 0.36324 0.13477 0.87365 0.0
C635 C 0.36239 0.11313 0.86485 0.0
C636 C 0.40206 0.06317 0.8951 0.0
C637 C 0.38846 0.05415 0.85123 0.0
C638 C 0.38028 0.06779 0.88801 0.0
N639 N 0.37377 0.06338 0.86628 0.0
C640 C 0.41037 0.04929 0.85772 0.0
C641 C 0.41718 0.05386 0.87981 0.0
C642 C 0.3331 0.03184 0.82509 0.0
C643 C 0.24768 0.05066 0.85672 0.0
C644 C 0.27164 0.03394 0.82036 0.0
C645 C 0.25423 0.02133 0.82955 0.0
C646 C 0.2422 0.02978 0.84787 0.0
N647 N 0.2769 0.05442 0.82913 0.0
C648 C 0.26518 0.06282 0.84707 0.0
Co649 Co 0.06921 0.66313 0.15027 0.0
Co650 Co 0.07132 0.70546 0.19003 0.0
O651 O 0.0756 0.69388 0.15937 0.0
C652 C 0.04295 0.69019 0.11757 0.0
O653 O 0.03583 0.70225 0.1347 0.0
C654 C 0.11886 0.71592 0.18011 0.0
O655 O 0.12129 0.69521 0.17317 0.0
O656 O 0.08772 0.67957 0.20359 0.0
O657 O 0.08188 0.65144 0.17913 0.0
H658 H 0.05104 0.70054 0.27245 0.0
H659 H 0.09472 0.69286 0.11957 0.0
O660 O 0.05641 0.67404 0.12092 0.0
H661 H 0.145 0.62951 0.13562 0.0
H662 H 0.06537 0.59938 0.09474 0.0
H663 H 0.05102 0.62309 0.17341 0.0
H664 H 0.1071 0.63071 0.15197 0.0
H665 H 0.07369 0.63792 0.10691 0.0
O666 O 0.10001 0.72259 0.18754 0.0
H667 H 0.05613 0.68618 0.23363 0.0
H668 H 0.07823 0.75002 0.21162 0.0
H669 H 0.04263 0.58434 0.16201 0.0
H670 H 0.13243 0.69224 0.10271 0.0
H671 H 0.0498 0.57227 0.12241 0.0
H672 H 0.15788 0.66042 0.11078 0.0
O673 O 0.03897 0.66432 0.16444 0.0
H674 H 0.05972 0.7678 0.13423 0.0
H675 H 0.0283 0.72857 0.20037 0.0
H676 H 0.00733 0.75975 0.18323 0.0
H677 H 0.02306 0.77962 0.14991 0.0
H678 H 0.08 0.73636 0.15178 0.0
H679 H 0.07356 0.76503 0.25024 0.0
H680 H 0.05979 0.74023 0.28096 0.0
O681 O 0.04242 0.6889 0.19306 0.0
C682 C 0.08915 0.65902 0.19791 0.0
C683 C 0.05699 0.71152 0.2592 0.0
C684 C 0.06966 0.74771 0.24674 0.0
N685 N 0.06731 0.71728 0.22035 0.0
C686 C 0.05984 0.7035 0.23717 0.0
C687 C 0.07233 0.73911 0.22492 0.0
C688 C 0.06193 0.73379 0.26397 0.0
C689 C 0.10563 0.67886 0.12298 0.0
N690 N 0.09868 0.6618 0.13665 0.0
C691 C 0.12699 0.67864 0.11346 0.0
C692 C 0.14127 0.6608 0.11802 0.0
C693 C 0.13406 0.64345 0.13197 0.0
C694 C 0.1126 0.64425 0.14122 0.0
C695 C 0.06219 0.60443 0.11205 0.0
C696 C 0.05429 0.61793 0.15617 0.0
C697 C 0.06681 0.62625 0.11902 0.0
N698 N 0.06293 0.63272 0.14087 0.0
C699 C 0.04946 0.59598 0.14981 0.0
C700 C 0.05347 0.58923 0.12758 0.0
C701 C 0.03138 0.67429 0.18195 0.0
C702 C 0.05269 0.75928 0.14875 0.0
C703 C 0.03516 0.73701 0.18579 0.0
C704 C 0.02327 0.75473 0.17621 0.0
C705 C 0.03212 0.76589 0.15754 0.0
N706 N 0.05531 0.7306 0.17706 0.0
C707 C 0.06413 0.74151 0.1588 0.0
Co708 Co 0.66527 0.06958 0.15084 0.0
Co709 Co 0.70793 0.07183 0.19018 0.0
O710 O 0.69616 0.07579 0.15954 0.0
C711 C 0.69173 0.04277 0.11807 0.0
O712 O 0.70402 0.03579 0.13508 0.0
C713 C 0.71891 0.11907 0.1795 0.0
O714 O 0.69816 0.12164 0.17277 0.0
O715 O 0.68241 0.08885 0.20366 0.0
O716 O 0.65399 0.08262 0.17968 0.0
H717 H 0.70339 0.053 0.27298 0.0
H718 H 0.69485 0.09453 0.11952 0.0
O719 O 0.67573 0.05639 0.12152 0.0
H720 H 0.63214 0.14552 0.13585 0.0
H721 H 0.6009 0.06577 0.09607 0.0
H722 H 0.62535 0.05189 0.17458 0.0
H723 H 0.63322 0.10778 0.15258 0.0
H724 H 0.63962 0.0739 0.10774 0.0
O725 O 0.72546 0.10023 0.18706 0.0
H726 H 0.68877 0.05769 0.2342 0.0
H727 H 0.75276 0.07838 0.21125 0.0
H728 H 0.58643 0.04369 0.16369 0.0
H729 H 0.69434 0.13208 0.10229 0.0
H730 H 0.57398 0.05062 0.12417 0.0
H731 H 0.66285 0.15789 0.11048 0.0
O732 O 0.66635 0.03948 0.1653 0.0
H733 H 0.76973 0.0584 0.13419 0.0
H734 H 0.73029 0.02852 0.20094 0.0
H735 H 0.76101 0.00679 0.18392 0.0
H736 H 0.78099 0.02174 0.1503 0.0
H737 H 0.73874 0.07945 0.15163 0.0
H738 H 0.76803 0.07409 0.24981 0.0
H739 H 0.74329 0.06124 0.28098 0.0
O740 O 0.69093 0.04325 0.19387 0.0
C741 C 0.66181 0.09022 0.19822 0.0
C742 C 0.71435 0.05855 0.25953 0.0
C743 C 0.75062 0.07042 0.24653 0.0
N744 N 0.71994 0.06814 0.22046 0.0
C745 C 0.70619 0.06117 0.23753 0.0
C746 C 0.74187 0.07287 0.22474 0.0
C747 C 0.73674 0.0632 0.26401 0.0
C748 C 0.68098 0.10559 0.12299 0.0
N749 N 0.66404 0.09893 0.13694 0.0
C750 C 0.68083 0.12687 0.11326 0.0
C751 C 0.66317 0.14135 0.11789 0.0
C752 C 0.64594 0.13443 0.13214 0.0
C753 C 0.64667 0.11305 0.1416 0.0
C754 C 0.60612 0.06269 0.11334 0.0
C755 C 0.62003 0.05505 0.15738 0.0
C756 C 0.62804 0.06721 0.12003 0.0
N757 N 0.63471 0.06346 0.14184 0.0
C758 C 0.59799 0.05033 0.1513 0.0
C759 C 0.59102 0.05421 0.12912 0.0
C760 C 0.67622 0.03215 0.18298 0.0
C761 C 0.76117 0.05171 0.14885 0.0
C762 C 0.73879 0.03505 0.18624 0.0
C763 C 0.75624 0.02272 0.17672 0.0
C764 C 0.76746 0.03113 0.15787 0.0
N765 N 0.73269 0.05521 0.17727 0.0
C766 C 0.74366 0.06359 0.15884 0.0
Co767 Co 0.07062 0.3422 0.85572 0.0
Co768 Co 0.07249 0.29968 0.81614 0.0
O769 O 0.07677 0.31135 0.84678 0.0
C770 C 0.04391 0.31562 0.88843 0.0
O771 O 0.03666 0.30364 0.87132 0.0
C772 C 0.11989 0.28871 0.82617 0.0
O773 O 0.1225 0.30936 0.83322 0.0
O774 O 0.08919 0.32534 0.80253 0.0
O775 O 0.08347 0.35363 0.82684 0.0
H776 H 0.05256 0.30452 0.73363 0.0
H777 H 0.09574 0.31239 0.88669 0.0
O778 O 0.05763 0.33155 0.88507 0.0
H779 H 0.14666 0.37513 0.87043 0.0
H780 H 0.06718 0.40622 0.91096 0.0
H781 H 0.05292 0.38234 0.83234 0.0
H782 H 0.10883 0.37419 0.85393 0.0
H783 H 0.07517 0.36754 0.89898 0.0
O784 O 0.10099 0.28224 0.81875 0.0
H785 H 0.05767 0.31898 0.77241 0.0
H786 H 0.07895 0.25495 0.79477 0.0
H787 H 0.04486 0.42122 0.84354 0.0
H788 H 0.13338 0.31274 0.90371 0.0
H789 H 0.05198 0.43338 0.88311 0.0
H790 H 0.15915 0.34425 0.89555 0.0
O791 O 0.04043 0.34129 0.84143 0.0
H792 H 0.06005 0.23769 0.87215 0.0
H793 H 0.02923 0.27708 0.8058 0.0
H794 H 0.00787 0.24621 0.82301 0.0
H795 H 0.0233 0.22626 0.85643 0.0
H796 H 0.08072 0.26882 0.85453 0.0
H797 H 0.07425 0.23984 0.75619 0.0
H798 H 0.06089 0.26468 0.72532 0.0
O799 O 0.04381 0.31656 0.81294 0.0
C800 C 0.09072 0.3459 0.80811 0.0
C801 C 0.05833 0.29351 0.74695 0.0
C802 C 0.07054 0.25722 0.7596 0.0
N803 N 0.06845 0.28779 0.78586 0.0
C804 C 0.0612 0.30159 0.76895 0.0
C805 C 0.07322 0.26588 0.7814 0.0
C806 C 0.06303 0.27117 0.74229 0.0
C807 C 0.10679 0.32626 0.88323 0.0
N808 N 0.10006 0.34329 0.86942 0.0
C809 C 0.12811 0.32632 0.89284 0.0
C810 C 0.14257 0.34399 0.88823 0.0
C811 C 0.13558 0.36131 0.87413 0.0
C812 C 0.11416 0.36067 0.86479 0.0
C813 C 0.06402 0.40113 0.89366 0.0
C814 C 0.05616 0.38753 0.84956 0.0
C815 C 0.06845 0.37923 0.8868 0.0
N816 N 0.0646 0.37272 0.86496 0.0
C817 C 0.05152 0.40956 0.85582 0.0
C818 C 0.0555 0.41636 0.87803 0.0
C819 C 0.03287 0.33135 0.8239 0.0
C820 C 0.05316 0.24624 0.85758 0.0
C821 C 0.03596 0.2686 0.82042 0.0
C822 C 0.02384 0.25106 0.83004 0.0
C823 C 0.03252 0.23986 0.84877 0.0
N824 N 0.05617 0.27479 0.82917 0.0
C825 C 0.06482 0.26383 0.84749 0.0
Co826 Co 0.34216 0.93499 0.15025 0.0
Co827 Co 0.29973 0.93335 0.1899 0.0
O828 O 0.31128 0.92913 0.1592 0.0
C829 C 0.31581 0.96203 0.11759 0.0
O830 O 0.30366 0.96917 0.13464 0.0
C831 C 0.28853 0.8861 0.17959 0.0
O832 O 0.30925 0.88344 0.17279 0.0
O833 O 0.32523 0.9163 0.20336 0.0
O834 O 0.35351 0.9219 0.17904 0.0
H835 H 0.30481 0.95281 0.27251 0.0
H836 H 0.31208 0.91029 0.11925 0.0
O837 O 0.33166 0.94823 0.12097 0.0
H838 H 0.37436 0.85866 0.13517 0.0
H839 H 0.40621 0.93798 0.09501 0.0
H840 H 0.38242 0.95232 0.17366 0.0
H841 H 0.37383 0.89646 0.15179 0.0
H842 H 0.36748 0.93028 0.10698 0.0
O843 O 0.28204 0.905 0.18707 0.0
H844 H 0.31919 0.94774 0.23369 0.0
H845 H 0.25499 0.92715 0.21129 0.0
H846 H 0.42136 0.96009 0.16247 0.0
H847 H 0.31202 0.87269 0.10212 0.0
H848 H 0.43347 0.95292 0.12288 0.0
H849 H 0.3433 0.84656 0.11011 0.0
O850 O 0.3415 0.96514 0.16465 0.0
H851 H 0.2376 0.94672 0.13428 0.0
H852 H 0.27775 0.9769 0.20044 0.0
H853 H 0.24703 0.99869 0.18349 0.0
H854 H 0.2267 0.98358 0.15017 0.0
H855 H 0.26859 0.92561 0.15164 0.0
H856 H 0.23995 0.93181 0.24991 0.0
H857 H 0.26492 0.94482 0.28082 0.0
O858 O 0.31691 0.96183 0.19327 0.0
C859 C 0.34576 0.9146 0.19774 0.0
C860 C 0.29375 0.9472 0.25917 0.0
C861 C 0.25736 0.93538 0.24649 0.0
N862 N 0.28791 0.93731 0.22022 0.0
C863 C 0.30178 0.94436 0.23715 0.0
C864 C 0.26598 0.93272 0.22467 0.0
C865 C 0.27137 0.94269 0.26383 0.0
C866 C 0.32585 0.89909 0.12263 0.0
N867 N 0.34298 0.9056 0.13641 0.0
C868 C 0.32568 0.87779 0.11296 0.0
C869 C 0.34322 0.86312 0.11748 0.0
C870 C 0.36064 0.86989 0.13154 0.0
C871 C 0.36023 0.89131 0.14095 0.0
C872 C 0.40114 0.94115 0.11231 0.0
C873 C 0.3876 0.94906 0.15643 0.0
C874 C 0.37922 0.93689 0.11917 0.0
N875 N 0.37273 0.94076 0.14102 0.0
C876 C 0.40965 0.95353 0.15018 0.0
C877 C 0.41643 0.94952 0.12796 0.0
C878 C 0.33173 0.97271 0.18228 0.0
C879 C 0.24632 0.95347 0.14881 0.0
C880 C 0.26909 0.97029 0.18587 0.0
C881 C 0.25164 0.98266 0.17639 0.0
C882 C 0.24023 0.97416 0.15771 0.0
N883 N 0.27498 0.95002 0.17703 0.0
C884 C 0.26383 0.94156 0.15876 0.0
Co885 Co 0.93615 0.66499 0.85738 0.0
Co886 Co 0.93435 0.70638 0.81683 0.0
O887 O 0.93014 0.69567 0.84784 0.0
C888 C 0.9623 0.69193 0.89026 0.0
O889 O 0.97005 0.70359 0.87314 0.0
C890 C 0.88748 0.71876 0.82718 0.0
O891 O 0.88453 0.69816 0.83425 0.0
O892 O 0.9166 0.68101 0.80429 0.0
O893 O 0.9239 0.65295 0.8284 0.0
H894 H 0.95252 0.69885 0.7341 0.0
H895 H 0.91025 0.69512 0.88734 0.0
O896 O 0.94848 0.67611 0.88683 0.0
H897 H 0.85999 0.63185 0.87106 0.0
H898 H 0.93869 0.60172 0.91356 0.0
H899 H 0.95495 0.62477 0.83508 0.0
H900 H 0.89815 0.63272 0.85535 0.0
H901 H 0.93064 0.64016 0.90084 0.0
O902 O 0.90646 0.72482 0.81956 0.0
H903 H 0.9476 0.68549 0.77331 0.0
H904 H 0.92913 0.75077 0.7945 0.0
H905 H 0.9631 0.58612 0.84702 0.0
H906 H 0.87227 0.69484 0.90357 0.0
H907 H 0.95497 0.57438 0.88653 0.0
H908 H 0.84683 0.66307 0.89538 0.0
O909 O 0.96658 0.66599 0.84374 0.0
H910 H 0.94984 0.76981 0.87034 0.0
H911 H 0.97862 0.72644 0.80557 0.0
H912 H 1.00136 0.75703 0.82141 0.0
H913 H 0.98697 0.77898 0.85401 0.0
H914 H 0.92774 0.73894 0.8541 0.0
H915 H 0.9337 0.7648 0.75548 0.0
H916 H 0.94555 0.73877 0.72498 0.0
O917 O 0.96237 0.68836 0.81348 0.0
C918 C 0.91579 0.66044 0.80992 0.0
C919 C 0.94742 0.71037 0.74725 0.0
C920 C 0.93682 0.74738 0.75925 0.0
N921 N 0.93825 0.71737 0.78619 0.0
C922 C 0.94466 0.70292 0.76949 0.0
C923 C 0.93422 0.73933 0.78129 0.0
C924 C 0.94348 0.73277 0.74214 0.0
C925 C 0.89935 0.68113 0.88388 0.0
N926 N 0.90645 0.66392 0.87049 0.0
C927 C 0.87783 0.68111 0.89304 0.0
C928 C 0.86355 0.66329 0.88842 0.0
C929 C 0.87092 0.64578 0.87475 0.0
C930 C 0.89254 0.64639 0.86586 0.0
C931 C 0.94228 0.60663 0.89629 0.0
C932 C 0.95125 0.61975 0.85226 0.0
C933 C 0.9378 0.62838 0.88901 0.0
N934 N 0.94219 0.63465 0.8672 0.0
C935 C 0.95595 0.59786 0.85894 0.0
C936 C 0.9514 0.59129 0.88112 0.0
C937 C 0.97371 0.67455 0.82531 0.0
C938 C 0.95627 0.7604 0.8561 0.0
C939 C 0.97227 0.73586 0.81981 0.0
C940 C 0.9852 0.7532 0.82867 0.0
C941 C 0.97711 0.76552 0.84695 0.0
N942 N 0.95183 0.73096 0.82885 0.0
C943 C 0.94379 0.74297 0.84677 0.0
H944 H 0.21351 0.34551 0.34259 0.0
H945 H 0.24125 0.31537 0.34414 0.0
H946 H 0.29033 0.35893 0.31403 0.0
H947 H 0.26294 0.38911 0.31261 0.0
H948 H 0.26539 0.29544 0.30862 0.0
H949 H 0.32256 0.33553 0.37027 0.0
H950 H 0.29434 0.3452 0.36568 0.0
H951 H 0.31623 0.35286 0.34631 0.0
C952 C 0.23023 0.3487 0.33636 0.0
C953 C 0.236 0.36978 0.32756 0.0
C954 C 0.24605 0.33145 0.33725 0.0
C955 C 0.26797 0.335 0.32954 0.0
C956 C 0.27367 0.35593 0.32053 0.0
H957 H 0.38962 0.261 0.31033 0.0
H958 H 0.35934 0.28826 0.31228 0.0
C959 C 0.25791 0.37315 0.31962 0.0
C960 C 0.28482 0.31676 0.33039 0.0
H961 H 0.33671 0.30376 0.35057 0.0
C962 C 0.28089 0.29713 0.31798 0.0
C963 C 0.30502 0.31898 0.34263 0.0
C964 C 0.30975 0.33918 0.35716 0.0
C965 C 0.29699 0.28003 0.31679 0.0
C966 C 0.3174 0.28249 0.32865 0.0
C967 C 0.32111 0.30192 0.34143 0.0
C968 C 0.33551 0.26552 0.32736 0.0
C969 C 0.29237 0.25985 0.3022 0.0
C970 C 0.33227 0.24366 0.33537 0.0
C971 C 0.34961 0.22793 0.33425 0.0
C972 C 0.37054 0.23383 0.32519 0.0
C973 C 0.37372 0.25581 0.31735 0.0
C974 C 0.35642 0.27147 0.31847 0.0
H975 H 0.27832 0.26282 0.29027 0.0
H976 H 0.30742 0.25512 0.2923 0.0
H977 H 0.28785 0.24552 0.3132 0.0
H978 H 0.31642 0.23881 0.34271 0.0
H979 H 0.34663 0.21122 0.3406 0.0
H980 H 0.38688 0.74438 0.69441 0.0
H981 H 0.3565 0.71732 0.69241 0.0
H982 H 0.31351 0.76726 0.66288 0.0
H983 H 0.34389 0.79471 0.66499 0.0
H984 H 0.29326 0.74242 0.69803 0.0
H985 H 0.33331 0.68648 0.63518 0.0
H986 H 0.35068 0.69229 0.65925 0.0
H987 H 0.34298 0.71459 0.64037 0.0
C988 C 0.371 0.74969 0.68742 0.0
C989 C 0.36787 0.77175 0.67978 0.0
C990 C 0.35367 0.73411 0.68618 0.0
C991 C 0.33285 0.74015 0.67713 0.0
C992 C 0.3295 0.76222 0.66978 0.0
H993 H 0.20942 0.66101 0.66518 0.0
H994 H 0.23672 0.69148 0.66329 0.0
C995 C 0.34689 0.77787 0.671 0.0
C996 C 0.31456 0.72341 0.67586 0.0
H997 H 0.3017 0.67182 0.6548 0.0
C998 C 0.29495 0.7271 0.68838 0.0
C999 C 0.31681 0.70344 0.66323 0.0
C1000 C 0.33698 0.69901 0.64856 0.0
C1001 C 0.27792 0.71092 0.68934 0.0
C1002 C 0.28044 0.6907 0.67716 0.0
C1003 C 0.29982 0.68728 0.66421 0.0
C1004 C 0.26365 0.67245 0.67832 0.0
C1005 C 0.25778 0.71523 0.70408 0.0
C1006 C 0.26983 0.6515 0.68697 0.0
C1007 C 0.25434 0.63405 0.68797 0.0
C1008 C 0.23231 0.63713 0.68025 0.0
C1009 C 0.22618 0.65811 0.67143 0.0
C1010 C 0.24174 0.67559 0.67044 0.0
H1011 H 0.26065 0.72919 0.71613 0.0
H1012 H 0.24335 0.71971 0.69319 0.0
H1013 H 0.25325 0.70003 0.71386 0.0
H1014 H 0.28667 0.64866 0.69306 0.0
H1015 H 0.2597 0.61813 0.69481 0.0
H1016 H 0.66121 0.79636 0.3426 0.0
H1017 H 0.69216 0.76944 0.3426 0.0
H1018 H 0.64887 0.71954 0.31352 0.0
H1019 H 0.61805 0.7462 0.31322 0.0
H1020 H 0.69528 0.72705 0.36364 0.0
H1021 H 0.70245 0.71981 0.27033 0.0
H1022 H 0.68723 0.74217 0.2839 0.0
H1023 H 0.67466 0.71505 0.28069 0.0
C1024 C 0.6583 0.77967 0.33613 0.0
C1025 C 0.63717 0.77353 0.32773 0.0
C1026 C 0.676 0.76431 0.33618 0.0
C1027 C 0.67293 0.74261 0.32768 0.0
C1028 C 0.65177 0.73633 0.31969 0.0
H1029 H 0.74454 0.61957 0.31203 0.0
H1030 H 0.71804 0.65052 0.31343 0.0
C1031 C 0.63411 0.75161 0.31965 0.0
C1032 C 0.69165 0.72629 0.32739 0.0
H1033 H 0.72146 0.69218 0.29216 0.0
C1034 C 0.70122 0.71959 0.34802 0.0
C1035 C 0.6994 0.71663 0.30696 0.0
C1036 C 0.69057 0.72391 0.28419 0.0
C1037 C 0.71767 0.7028 0.34884 0.0
C1038 C 0.72497 0.69272 0.32844 0.0
C1039 C 0.71579 0.69985 0.30779 0.0
C1040 C 0.74133 0.67403 0.32814 0.0
C1041 C 0.72646 0.69536 0.37157 0.0
C1042 C 0.76335 0.67698 0.33582 0.0
C1043 C 0.77864 0.65923 0.33505 0.0
C1044 C 0.77219 0.63826 0.32648 0.0
C1045 C 0.75012 0.63546 0.31875 0.0
C1046 C 0.73492 0.65316 0.31951 0.0
H1047 H 0.71576 0.70129 0.38573 0.0
H1048 H 0.7276 0.67685 0.37239 0.0
H1049 H 0.74349 0.70225 0.37407 0.0
H1050 H 0.76878 0.69305 0.34219 0.0
H1051 H 0.7955 0.66198 0.3411 0.0
H1052 H 0.66151 0.21277 0.6961 0.0
H1053 H 0.69082 0.24134 0.69639 0.0
H1054 H 0.64643 0.28707 0.66209 0.0
H1055 H 0.61668 0.25914 0.66342 0.0
H1056 H 0.71356 0.26195 0.66726 0.0
H1057 H 0.66447 0.32676 0.71141 0.0
H1058 H 0.6543 0.29865 0.70807 0.0
H1059 H 0.6509 0.31886 0.68562 0.0
C1060 C 0.65806 0.22898 0.68872 0.0
C1061 C 0.63679 0.23388 0.68 0.0
C1062 C 0.67481 0.24532 0.68886 0.0
C1063 C 0.67076 0.26672 0.67985 0.0
C1064 C 0.64979 0.27113 0.67006 0.0
H1065 H 0.77984 0.35865 0.64621 0.0
H1066 H 0.7517 0.32897 0.64586 0.0
C1067 C 0.63284 0.25506 0.67058 0.0
C1068 C 0.68849 0.28426 0.68051 0.0
H1069 H 0.69791 0.33911 0.6933 0.0
C1070 C 0.71016 0.27876 0.67319 0.0
C1071 C 0.68436 0.30616 0.68868 0.0
C1072 C 0.66232 0.31286 0.69912 0.0
C1073 C 0.72763 0.29447 0.67357 0.0
C1074 C 0.72311 0.31677 0.68033 0.0
C1075 C 0.70148 0.32218 0.68782 0.0
C1076 C 0.74049 0.33469 0.68031 0.0
C1077 C 0.75083 0.28665 0.66741 0.0
C1078 C 0.74306 0.34861 0.69935 0.0
C1079 C 0.75845 0.36617 0.69916 0.0
C1080 C 0.77205 0.36987 0.68016 0.0
C1081 C 0.76979 0.35589 0.66121 0.0
C1082 C 0.75383 0.33876 0.66111 0.0
H1083 H 0.75286 0.26846 0.67061 0.0
H1084 H 0.75371 0.28949 0.64907 0.0
H1085 H 0.76383 0.29573 0.67717 0.0
H1086 H 0.73305 0.34597 0.7144 0.0
H1087 H 0.75989 0.37673 0.714 0.0
H1088 H 0.7111 0.84637 0.84221 0.0
H1089 H 0.73882 0.81624 0.84451 0.0
H1090 H 0.78835 0.85949 0.8147 0.0
H1091 H 0.76099 0.88964 0.81253 0.0
H1092 H 0.7637 0.796 0.8095 0.0
H1093 H 0.81953 0.83681 0.87192 0.0
H1094 H 0.79135 0.8463 0.86672 0.0
H1095 H 0.81356 0.85394 0.84771 0.0
C1096 C 0.72791 0.84948 0.83619 0.0
C1097 C 0.73382 0.87047 0.82728 0.0
C1098 C 0.74372 0.83224 0.83752 0.0
C1099 C 0.76575 0.83573 0.83013 0.0
C1100 C 0.77159 0.85656 0.82096 0.0
H1101 H 0.88801 0.76234 0.81334 0.0
H1102 H 0.85755 0.78945 0.81477 0.0
C1103 C 0.75585 0.87376 0.81962 0.0
C1104 C 0.78262 0.81755 0.83148 0.0
H1105 H 0.83423 0.805 0.85268 0.0
C1106 C 0.77902 0.79782 0.81914 0.0
C1107 C 0.80259 0.81998 0.84408 0.0
C1108 C 0.80695 0.8403 0.85854 0.0
C1109 C 0.79524 0.78082 0.81835 0.0
C1110 C 0.81542 0.78348 0.83054 0.0
C1111 C 0.81879 0.80301 0.84327 0.0
C1112 C 0.83367 0.76665 0.82965 0.0
C1113 C 0.791 0.76053 0.8038 0.0
C1114 C 0.83045 0.74482 0.83775 0.0
C1115 C 0.84788 0.72919 0.83693 0.0
C1116 C 0.86888 0.73515 0.8281 0.0
C1117 C 0.87206 0.75712 0.82019 0.0
C1118 C 0.85466 0.77268 0.82102 0.0
H1119 H 0.77711 0.76331 0.79164 0.0
H1120 H 0.80623 0.75586 0.79416 0.0
H1121 H 0.78642 0.74622 0.81482 0.0
H1122 H 0.81452 0.73991 0.84489 0.0
H1123 H 0.8449 0.71248 0.84332 0.0
H1124 H 0.76273 0.1191 0.19242 0.0
H1125 H 0.78945 0.14979 0.19026 0.0
H1126 H 0.73884 0.19224 0.16109 0.0
H1127 H 0.71176 0.16158 0.16339 0.0
H1128 H 0.80382 0.17301 0.15174 0.0
H1129 H 0.76324 0.23007 0.21371 0.0
H1130 H 0.75602 0.20086 0.21154 0.0
H1131 H 0.74576 0.22044 0.19097 0.0
C1132 C 0.75717 0.13497 0.18563 0.0
C1133 C 0.73501 0.13789 0.17819 0.0
C1134 C 0.77252 0.1525 0.18438 0.0
C1135 C 0.7661 0.17339 0.17578 0.0
C1136 C 0.74406 0.17638 0.16818 0.0
H1137 H 0.84606 0.29589 0.16278 0.0
H1138 H 0.81572 0.26842 0.16048 0.0
C1139 C 0.72863 0.1588 0.16942 0.0
C1140 C 0.78277 0.19174 0.17442 0.0
H1141 H 0.79575 0.24332 0.19551 0.0
C1142 C 0.80202 0.18842 0.16125 0.0
C1143 C 0.78034 0.21188 0.18674 0.0
C1144 C 0.76033 0.21608 0.2017 0.0
C1145 C 0.81899 0.20458 0.16022 0.0
C1146 C 0.81686 0.22446 0.17302 0.0
C1147 C 0.79736 0.22806 0.18573 0.0
C1148 C 0.83518 0.24117 0.17429 0.0
C1149 C 0.83904 0.20024 0.14534 0.0
C1150 C 0.85607 0.23505 0.18311 0.0
C1151 C 0.87339 0.25064 0.18446 0.0
C1152 C 0.87017 0.27279 0.17714 0.0
C1153 C 0.84913 0.27897 0.16852 0.0
C1154 C 0.83177 0.26331 0.1672 0.0
H1155 H 0.83524 0.18784 0.13188 0.0
H1156 H 0.84499 0.21589 0.13724 0.0
H1157 H 0.85281 0.19341 0.15585 0.0
H1158 H 0.85896 0.21819 0.18913 0.0
H1159 H 0.88931 0.24529 0.1913 0.0
H1160 H 0.16261 0.29559 0.84185 0.0
H1161 H 0.19365 0.26876 0.84217 0.0
H1162 H 0.15083 0.21872 0.81263 0.0
H1163 H 0.11994 0.24528 0.812 0.0
H1164 H 0.19642 0.22632 0.86337 0.0
H1165 H 0.20501 0.21899 0.77019 0.0
H1166 H 0.18963 0.24139 0.7835 0.0
H1167 H 0.17704 0.21431 0.7801 0.0
C1168 C 0.15984 0.2789 0.83533 0.0
C1169 C 0.13881 0.27267 0.82672 0.0
C1170 C 0.17758 0.26359 0.83556 0.0
C1171 C 0.17466 0.24187 0.82705 0.0
C1172 C 0.15361 0.23554 0.81882 0.0
H1173 H 0.2464 0.11865 0.81263 0.0
H1174 H 0.21981 0.14957 0.8136 0.0
C1175 C 0.13591 0.25075 0.81859 0.0
C1176 C 0.19337 0.22555 0.82706 0.0
H1177 H 0.22354 0.19127 0.79234 0.0
C1178 C 0.20258 0.21883 0.84784 0.0
C1179 C 0.20137 0.21583 0.80677 0.0
C1180 C 0.19292 0.22313 0.78385 0.0
C1181 C 0.21892 0.20195 0.84894 0.0
C1182 C 0.22648 0.19182 0.82867 0.0
C1183 C 0.21766 0.19897 0.80787 0.0
C1184 C 0.24284 0.17313 0.82865 0.0
C1185 C 0.22732 0.19449 0.87182 0.0
C1186 C 0.26473 0.17612 0.83666 0.0
C1187 C 0.28005 0.15841 0.83615 0.0
C1188 C 0.27378 0.13742 0.82749 0.0
C1189 C 0.25184 0.13456 0.81943 0.0
C1190 C 0.23659 0.15224 0.81994 0.0
H1191 H 0.21639 0.20043 0.88579 0.0
H1192 H 0.22844 0.17598 0.87265 0.0
H1193 H 0.24431 0.20137 0.87462 0.0
H1194 H 0.27004 0.19222 0.84309 0.0
H1195 H 0.29681 0.16121 0.84244 0.0
H1196 H 0.2956 0.84346 0.16381 0.0
H1197 H 0.26839 0.81288 0.16154 0.0
H1198 H 0.21791 0.85562 0.19051 0.0
H1199 H 0.24475 0.8862 0.19267 0.0
H1200 H 0.24333 0.79255 0.19654 0.0
H1201 H 0.18781 0.83207 0.13301 0.0
H1202 H 0.21582 0.84191 0.13843 0.0
H1203 H 0.1933 0.8496 0.15704 0.0
C1204 C 0.2787 0.84636 0.16966 0.0
C1205 C 0.27236 0.86734 0.17834 0.0
C1206 C 0.26318 0.82887 0.16835 0.0
C1207 C 0.24103 0.83209 0.1755 0.0
C1208 C 0.23478 0.85289 0.18444 0.0
H1209 H 0.11914 0.75961 0.19345 0.0
H1210 H 0.14993 0.78622 0.19144 0.0
C1211 C 0.25022 0.87034 0.18578 0.0
C1212 C 0.22443 0.81368 0.17412 0.0
H1213 H 0.17303 0.80059 0.15279 0.0
C1214 C 0.22808 0.79414 0.18676 0.0
C1215 C 0.20456 0.81579 0.1613 0.0
C1216 C 0.20018 0.83588 0.14649 0.0
C1217 C 0.21193 0.77708 0.18771 0.0
C1218 C 0.19178 0.77951 0.17542 0.0
C1219 C 0.18844 0.79878 0.16229 0.0
C1220 C 0.17342 0.76285 0.1768 0.0
C1221 C 0.21616 0.75703 0.2026 0.0
C1222 C 0.17633 0.74083 0.16909 0.0
C1223 C 0.15869 0.72546 0.17024 0.0
C1224 C 0.1378 0.73189 0.17904 0.0
C1225 C 0.13498 0.75402 0.18663 0.0
C1226 C 0.15258 0.7693 0.18546 0.0
H1227 H 0.23022 0.75987 0.21454 0.0
H1228 H 0.20099 0.75273 0.2125 0.0
H1229 H 0.22043 0.74246 0.19181 0.0
H1230 H 0.19216 0.7356 0.16195 0.0
H1231 H 0.16139 0.70862 0.16409 0.0
H1232 H 0.14388 0.50332 0.34293 0.0
H1233 H 0.13017 0.5383 0.3265 0.0
H1234 H 0.17459 0.5299 0.26965 0.0
H1235 H 0.18868 0.49525 0.28598 0.0
H1236 H 0.1729 0.57401 0.28555 0.0
H1237 H 0.08791 0.53887 0.27191 0.0
H1238 H 0.09795 0.53808 0.30057 0.0
H1239 H 0.11155 0.5216 0.27918 0.0
C1240 C 0.15091 0.50899 0.32703 0.0
C1241 C 0.16729 0.49629 0.31573 0.0
C1242 C 0.14295 0.52896 0.31762 0.0
C1243 C 0.15112 0.53654 0.29668 0.0
C1244 C 0.16802 0.52435 0.2858 0.0
H1245 H 0.09599 0.61443 0.19093 0.0
H1246 H 0.11118 0.58704 0.21708 0.0
C1247 C 0.176 0.50446 0.29517 0.0
C1248 C 0.14147 0.55653 0.28541 0.0
H1249 H 0.09403 0.57576 0.25983 0.0
C1250 C 0.15559 0.57454 0.28013 0.0
C1251 C 0.11893 0.55706 0.27818 0.0
C1252 C 0.10319 0.53784 0.28254 0.0
C1253 C 0.14791 0.59285 0.26736 0.0
C1254 C 0.12545 0.59322 0.25991 0.0
C1255 C 0.1112 0.57549 0.26571 0.0
C1256 C 0.11692 0.61062 0.24421 0.0
C1257 C 0.16408 0.61115 0.26106 0.0
C1258 C 0.11512 0.63313 0.25073 0.0
C1259 C 0.10642 0.64906 0.23568 0.0
C1260 C 0.0993 0.64269 0.21387 0.0
C1261 C 0.1013 0.62009 0.20749 0.0
C1262 C 0.10995 0.6043 0.22247 0.0
H1263 H 0.18165 0.60652 0.26492 0.0
H1264 H 0.16275 0.61514 0.24274 0.0
H1265 H 0.15991 0.6265 0.27072 0.0
H1266 H 0.12013 0.63831 0.26756 0.0
H1267 H 0.105 0.66626 0.24123 0.0
H1268 H 0.49972 0.80898 0.71319 0.0
H1269 H 0.53401 0.82203 0.73105 0.0
H1270 H 0.53026 0.88334 0.69286 0.0
H1271 H 0.49637 0.86994 0.67405 0.0
H1272 H 0.57304 0.86943 0.69697 0.0
H1273 H 0.53195 0.86726 0.78105 0.0
H1274 H 0.53227 0.84047 0.76748 0.0
H1275 H 0.5167 0.86314 0.75508 0.0
C1276 C 0.50629 0.82512 0.70832 0.0
C1277 C 0.49511 0.83849 0.69232 0.0
C1278 C 0.52585 0.83264 0.71871 0.0
C1279 C 0.53438 0.85393 0.7138 0.0
C1280 C 0.5239 0.86691 0.69706 0.0
H1281 H 0.61495 0.93095 0.80539 0.0
H1282 H 0.58641 0.91516 0.78089 0.0
C1283 C 0.50449 0.85923 0.68633 0.0
C1284 C 0.55353 0.86306 0.72692 0.0
H1285 H 0.57076 0.87466 0.78076 0.0
C1286 C 0.57257 0.87063 0.71529 0.0
C1287 C 0.55276 0.86495 0.75082 0.0
C1288 C 0.53224 0.85875 0.76433 0.0
C1289 C 0.59086 0.87997 0.72691 0.0
C1290 C 0.59032 0.88122 0.75087 0.0
C1291 C 0.5713 0.87355 0.76243 0.0
C1292 C 0.60854 0.89158 0.76443 0.0
C1293 C 0.61021 0.88904 0.71336 0.0
C1294 C 0.63069 0.88378 0.76329 0.0
C1295 C 0.64728 0.89311 0.77716 0.0
C1296 C 0.64187 0.91004 0.79276 0.0
C1297 C 0.61971 0.91781 0.79374 0.0
C1298 C 0.60332 0.90879 0.77969 0.0
H1299 H 0.60539 0.89242 0.69551 0.0
H1300 H 0.61673 0.90472 0.72093 0.0
H1301 H 0.62389 0.87652 0.7132 0.0
H1302 H 0.63507 0.87016 0.75208 0.0
H1303 H 0.66417 0.88667 0.77612 0.0
H1304 H 0.88581 0.34088 0.22888 0.0
H1305 H 0.86778 0.36946 0.25254 0.0
H1306 H 0.91163 0.41957 0.22461 0.0
H1307 H 0.929 0.39154 0.20052 0.0
H1308 H 0.8822 0.39769 0.28503 0.0
H1309 H 0.85194 0.44716 0.21224 0.0
H1310 H 0.86348 0.41952 0.20894 0.0
H1311 H 0.88163 0.44347 0.21099 0.0
C1312 C 0.89156 0.35801 0.22781 0.0
C1313 C 0.90858 0.36399 0.21254 0.0
C1314 C 0.88127 0.37431 0.24134 0.0
C1315 C 0.88794 0.39679 0.23991 0.0
C1316 C 0.90565 0.40251 0.22546 0.0
H1317 H 0.8666 0.50629 0.33316 0.0
H1318 H 0.87907 0.47208 0.31448 0.0
C1319 C 0.91566 0.38639 0.21176 0.0
C1320 C 0.87647 0.41446 0.25328 0.0
H1321 H 0.85243 0.4659 0.24807 0.0
C1322 C 0.87543 0.4125 0.27696 0.0
C1323 C 0.86717 0.43358 0.24276 0.0
C1324 C 0.86587 0.43595 0.21732 0.0
C1325 C 0.86614 0.42954 0.29044 0.0
C1326 C 0.85829 0.44936 0.27997 0.0
C1327 C 0.85865 0.45089 0.25623 0.0
C1328 C 0.84985 0.46894 0.29304 0.0
C1329 C 0.86462 0.42594 0.31568 0.0
C1330 C 0.82945 0.47893 0.28706 0.0
C1331 C 0.82262 0.49886 0.29723 0.0
C1332 C 0.83585 0.50917 0.31391 0.0
C1333 C 0.85588 0.49873 0.32053 0.0
C1334 C 0.86295 0.47899 0.30998 0.0
H1335 H 0.8638 0.40785 0.31988 0.0
H1336 H 0.8798 0.43284 0.32388 0.0
H1337 H 0.84973 0.43435 0.32297 0.0
H1338 H 0.81902 0.47158 0.27405 0.0
H1339 H 0.80713 0.50639 0.29165 0.0
H1340 H 0.50189 0.14325 0.66319 0.0
H1341 H 0.46676 0.13024 0.6798 0.0
H1342 H 0.47493 0.17651 0.73516 0.0
H1343 H 0.5097 0.1899 0.71861 0.0
H1344 H 0.4619 0.11009 0.7205 0.0
H1345 H 0.41007 0.18658 0.71876 0.0
H1346 H 0.43543 0.18383 0.70242 0.0
H1347 H 0.43665 0.19135 0.73192 0.0
C1348 C 0.49605 0.15095 0.6787 0.0
C1349 C 0.50869 0.16768 0.68951 0.0
C1350 C 0.47595 0.14346 0.68818 0.0
C1351 C 0.468 0.15263 0.70854 0.0
C1352 C 0.48039 0.16957 0.71915 0.0
H1353 H 0.39256 0.09491 0.8152 0.0
H1354 H 0.41981 0.10979 0.78865 0.0
C1355 C 0.50043 0.17708 0.70971 0.0
C1356 C 0.44789 0.14325 0.71982 0.0
H1357 H 0.39852 0.15784 0.74492 0.0
C1358 C 0.44789 0.12047 0.72552 0.0
C1359 C 0.42943 0.15669 0.72613 0.0
C1360 C 0.42775 0.18092 0.71928 0.0
C1361 C 0.43053 0.11106 0.73834 0.0
C1362 C 0.41287 0.12486 0.74599 0.0
C1363 C 0.41222 0.14735 0.73929 0.0
C1364 C 0.39581 0.1165 0.76213 0.0
C1365 C 0.43142 0.08645 0.74386 0.0
C1366 C 0.37306 0.116 0.75632 0.0
C1367 C 0.35724 0.10753 0.7716 0.0
C1368 C 0.36392 0.0996 0.79302 0.0
C1369 C 0.38671 0.10071 0.79887 0.0
C1370 C 0.40241 0.10912 0.78364 0.0
H1371 H 0.44192 0.07716 0.73152 0.0
H1372 H 0.43888 0.0842 0.76092 0.0
H1373 H 0.41443 0.07901 0.744 0.0
H1374 H 0.36762 0.12179 0.73984 0.0
H1375 H 0.33986 0.10696 0.76652 0.0
H1376 H 0.18811 0.50995 0.72014 0.0
H1377 H 0.17525 0.47452 0.73564 0.0
H1378 H 0.12964 0.46689 0.67965 0.0
H1379 H 0.14217 0.50266 0.66405 0.0
H1380 H 0.10932 0.46061 0.7203 0.0
H1381 H 0.18674 0.41024 0.71732 0.0
H1382 H 0.19101 0.43661 0.73108 0.0
H1383 H 0.1835 0.43591 0.70156 0.0
C1384 C 0.17555 0.50068 0.71088 0.0
C1385 C 0.16621 0.50925 0.69078 0.0
C1386 C 0.16834 0.48026 0.71971 0.0
C1387 C 0.15177 0.46782 0.70861 0.0
C1388 C 0.1426 0.47612 0.6884 0.0
H1389 H 0.10692 0.33826 0.76499 0.0
H1390 H 0.12137 0.36614 0.73815 0.0
C1391 C 0.14981 0.49658 0.6795 0.0
C1392 C 0.14272 0.44721 0.71927 0.0
H1393 H 0.15825 0.39761 0.74331 0.0
C1394 C 0.11996 0.44668 0.72498 0.0
C1395 C 0.1565 0.42886 0.72513 0.0
C1396 C 0.18075 0.42779 0.71824 0.0
C1397 C 0.11091 0.42891 0.73749 0.0
C1398 C 0.12504 0.41136 0.74475 0.0
C1399 C 0.1475 0.41121 0.73795 0.0
C1400 C 0.11712 0.39414 0.76092 0.0
C1401 C 0.08635 0.42931 0.74327 0.0
C1402 C 0.1105 0.4006 0.78272 0.0
C1403 C 0.10237 0.38484 0.79803 0.0
C1404 C 0.10072 0.36213 0.79196 0.0
C1405 C 0.10793 0.35557 0.77024 0.0
C1406 C 0.11616 0.37146 0.75488 0.0
H1407 H 0.07679 0.43999 0.73131 0.0
H1408 H 0.07917 0.4122 0.74302 0.0
H1409 H 0.08417 0.43627 0.76055 0.0
H1410 H 0.1115 0.41795 0.78787 0.0
H1411 H 0.09714 0.39063 0.81458 0.0
H1412 H 0.39027 0.90728 0.19085 0.0
H1413 H 0.41748 0.89209 0.21719 0.0
H1414 H 0.36597 0.88348 0.26747 0.0
H1415 H 0.33819 0.89869 0.24097 0.0
H1416 H 0.42785 0.91002 0.26053 0.0
H1417 H 0.39856 0.82179 0.26476 0.0
H1418 H 0.39037 0.84046 0.2422 0.0
H1419 H 0.3782 0.84339 0.26981 0.0
C1420 C 0.3845 0.90204 0.20741 0.0
C1421 C 0.36191 0.90421 0.21371 0.0
C1422 C 0.40019 0.89338 0.22248 0.0
C1423 C 0.39375 0.88656 0.24422 0.0
C1424 C 0.37122 0.88841 0.25064 0.0
H1425 H 0.50018 0.86073 0.34396 0.0
H1426 H 0.46493 0.87353 0.32739 0.0
C1427 C 0.3554 0.89715 0.2355 0.0
C1428 C 0.41107 0.87823 0.26009 0.0
H1429 H 0.431 0.83089 0.28533 0.0
C1430 C 0.42842 0.89279 0.26624 0.0
C1431 C 0.41181 0.85572 0.26729 0.0
C1432 C 0.39386 0.83929 0.26064 0.0
C1433 C 0.44685 0.8853 0.27882 0.0
C1434 C 0.44779 0.86269 0.28577 0.0
C1435 C 0.43015 0.84825 0.28013 0.0
C1436 C 0.46787 0.85337 0.29712 0.0
C1437 C 0.46568 0.9014 0.28363 0.0
C1438 C 0.4808 0.83721 0.28597 0.0
C1439 C 0.50087 0.82977 0.2954 0.0
C1440 C 0.50844 0.8383 0.31626 0.0
C1441 C 0.49497 0.85387 0.32783 0.0
C1442 C 0.47484 0.86129 0.31835 0.0
H1443 H 0.46436 0.91688 0.27332 0.0
H1444 H 0.46525 0.90623 0.30177 0.0
H1445 H 0.48212 0.89347 0.28018 0.0
H1446 H 0.4757 0.83085 0.26959 0.0
H1447 H 0.5107 0.81771 0.28602 0.0
H1448 H 0.85972 0.50617 0.66411 0.0
H1449 H 0.87293 0.54123 0.68077 0.0
H1450 H 0.83176 0.52979 0.73955 0.0
H1451 H 0.81821 0.49501 0.72305 0.0
H1452 H 0.83111 0.57445 0.72442 0.0
H1453 H 0.91768 0.54169 0.73356 0.0
H1454 H 0.9063 0.5411 0.7054 0.0
H1455 H 0.89426 0.52383 0.72708 0.0
C1456 C 0.85329 0.5112 0.68048 0.0
C1457 C 0.83801 0.49761 0.69228 0.0
C1458 C 0.86095 0.53121 0.69002 0.0
C1459 C 0.85357 0.53794 0.71153 0.0
C1460 C 0.83771 0.52488 0.72294 0.0
H1461 H 0.91033 0.61562 0.81667 0.0
H1462 H 0.8949 0.58814 0.79073 0.0
C1463 C 0.83003 0.50493 0.71346 0.0
C1464 C 0.86304 0.55796 0.72285 0.0
H1465 H 0.91086 0.57804 0.74692 0.0
C1466 C 0.84859 0.5754 0.72913 0.0
C1467 C 0.88582 0.55901 0.72916 0.0
C1468 C 0.90195 0.54037 0.72365 0.0
C1469 C 0.85623 0.59365 0.74199 0.0
C1470 C 0.87895 0.59452 0.74851 0.0
C1471 C 0.89349 0.57737 0.74175 0.0
C1472 C 0.8876 0.6119 0.76415 0.0
C1473 C 0.8398 0.61133 0.74936 0.0
C1474 C 0.88857 0.63451 0.75784 0.0
C1475 C 0.89742 0.65046 0.77275 0.0
C1476 C 0.90548 0.64402 0.7942 0.0
C1477 C 0.90428 0.62132 0.80038 0.0
C1478 C 0.8955 0.60549 0.78552 0.0
H1479 H 0.82223 0.60628 0.74609 0.0
H1480 H 0.84173 0.61496 0.7677 0.0
H1481 H 0.84314 0.627 0.7399 0.0
H1482 H 0.88283 0.63975 0.74128 0.0
H1483 H 0.8982 0.66775 0.76737 0.0
H1484 H 0.66989 0.10836 0.24046 0.0
H1485 H 0.64224 0.12378 0.26701 0.0
H1486 H 0.5898 0.11086 0.21874 0.0
H1487 H 0.61688 0.09557 0.19231 0.0
H1488 H 0.60986 0.1602 0.25987 0.0
H1489 H 0.56953 0.07875 0.27788 0.0
H1490 H 0.59716 0.08098 0.26576 0.0
H1491 H 0.57287 0.0844 0.24819 0.0
C1492 C 0.65248 0.10888 0.23547 0.0
C1493 C 0.64568 0.10059 0.21423 0.0
C1494 C 0.63673 0.11768 0.25067 0.0
C1495 C 0.61396 0.11811 0.24494 0.0
C1496 C 0.60724 0.11032 0.22364 0.0
H1497 H 0.49704 0.18866 0.28364 0.0
H1498 H 0.53251 0.17583 0.26812 0.0
C1499 C 0.62285 0.10166 0.20849 0.0
C1500 C 0.5969 0.12667 0.26094 0.0
H1501 H 0.54852 0.11147 0.28738 0.0
C1502 C 0.59662 0.14952 0.26622 0.0
C1503 C 0.57983 0.11265 0.26945 0.0
C1504 C 0.5799 0.08778 0.26524 0.0
C1505 C 0.57901 0.15894 0.27877 0.0
C1506 C 0.56112 0.14516 0.28593 0.0
C1507 C 0.5621 0.12209 0.28172 0.0
C1508 C 0.54056 0.15438 0.29649 0.0
C1509 C 0.57957 0.18361 0.28399 0.0
C1510 C 0.53304 0.14638 0.3175 0.0
C1511 C 0.51259 0.15356 0.32642 0.0
C1512 C 0.49914 0.16879 0.31438 0.0
C1513 C 0.50693 0.17703 0.29348 0.0
C1514 C 0.52736 0.16984 0.28462 0.0
H1515 H 0.59696 0.1901 0.28401 0.0
H1516 H 0.57012 0.19278 0.27076 0.0
H1517 H 0.57181 0.18724 0.30068 0.0
H1518 H 0.54287 0.13429 0.32686 0.0
H1519 H 0.50713 0.14679 0.3425 0.0
H1520 H 0.64676 0.00731 0.84333 0.0
H1521 H 0.63332 0.04227 0.82667 0.0
H1522 H 0.67398 0.03065 0.76755 0.0
H1523 H 0.6878 0.99597 0.78409 0.0
H1524 H 0.67442 0.07539 0.78213 0.0
H1525 H 0.58796 0.04206 0.77459 0.0
H1526 H 0.59964 0.04184 0.80262 0.0
H1527 H 0.61157 0.02441 0.781 0.0
C1528 C 0.65305 0.01228 0.82689 0.0
C1529 C 0.66824 0.99865 0.81499 0.0
C1530 C 0.64525 0.03224 0.81735 0.0
C1531 C 0.65239 0.03888 0.79572 0.0
C1532 C 0.66821 0.02582 0.78424 0.0
H1533 H 0.59362 0.11495 0.69069 0.0
H1534 H 0.60941 0.08793 0.71689 0.0
C1535 C 0.67604 0.00592 0.79373 0.0
C1536 C 0.64262 0.05875 0.78437 0.0
H1537 H 0.59428 0.07839 0.76096 0.0
C1538 C 0.65685 0.07621 0.7777 0.0
C1539 C 0.61973 0.05963 0.77844 0.0
C1540 C 0.60381 0.04095 0.78433 0.0
C1541 C 0.64889 0.09431 0.76482 0.0
C1542 C 0.62606 0.09502 0.75868 0.0
C1543 C 0.61174 0.07785 0.76585 0.0
C1544 C 0.61707 0.11214 0.74294 0.0
C1545 C 0.6651 0.112 0.75701 0.0
C1546 C 0.61613 0.13485 0.74888 0.0
C1547 C 0.60708 0.15056 0.7338 0.0
C1548 C 0.59876 0.14375 0.71258 0.0
C1549 C 0.59986 0.12094 0.7068 0.0
C1550 C 0.60886 0.10537 0.72181 0.0
H1551 H 0.68275 0.10708 0.76004 0.0
H1552 H 0.66285 0.11544 0.73867 0.0
H1553 H 0.66181 0.12775 0.76636 0.0
H1554 H 0.62211 0.14038 0.76526 0.0
H1555 H 0.60639 0.16794 0.73887 0.0
H1556 H 0.11605 0.41036 0.31639 0.0
H1557 H 0.08855 0.39472 0.29061 0.0
H1558 H 0.14 0.38284 0.24094 0.0
H1559 H 0.16803 0.39841 0.26688 0.0
H1560 H 0.0782 0.41067 0.24698 0.0
H1561 H 0.10674 0.32213 0.24569 0.0
H1562 H 0.11548 0.34162 0.26729 0.0
H1563 H 0.12737 0.3431 0.23943 0.0
C1564 C 0.12172 0.4043 0.30009 0.0
C1565 C 0.14438 0.40562 0.2938 0.0
C1566 C 0.10588 0.39539 0.28533 0.0
C1567 C 0.11223 0.38749 0.26393 0.0
C1568 C 0.1348 0.38857 0.25752 0.0
H1569 H 0.00701 0.36024 0.16347 0.0
H1570 H 0.0419 0.37326 0.18057 0.0
C1571 C 0.15078 0.39753 0.27235 0.0
C1572 C 0.09482 0.37881 0.24835 0.0
H1573 H 0.07492 0.33102 0.22398 0.0
C1574 C 0.07758 0.39331 0.24172 0.0
C1575 C 0.09401 0.35612 0.24172 0.0
C1576 C 0.11176 0.33971 0.24896 0.0
C1577 C 0.05925 0.38564 0.2291 0.0
C1578 C 0.0583 0.3629 0.22262 0.0
C1579 C 0.07579 0.34848 0.22883 0.0
C1580 C 0.03842 0.35347 0.21103 0.0
C1581 C 0.04055 0.40174 0.22372 0.0
C1582 C 0.02531 0.33741 0.2221 0.0
C1583 C 0.00543 0.32984 0.21236 0.0
C1584 C 0.99825 0.33812 0.19126 0.0
C1585 C 0.01191 0.35358 0.17978 0.0
C1586 C 0.03183 0.36113 0.18957 0.0
H1587 H 0.04172 0.41733 0.23388 0.0
H1588 H 0.04137 0.40637 0.20555 0.0
H1589 H 0.02403 0.39391 0.22693 0.0
H1590 H 0.0301 0.33125 0.23866 0.0
H1591 H 0.99546 0.31786 0.22169 0.0
H1592 H 0.36378 1.00262 0.84321 0.0
H1593 H 0.37674 0.96726 0.827 0.0
H1594 H 0.33116 0.97532 0.77106 0.0
H1595 H 0.31783 0.01037 0.78717 0.0
H1596 H 0.33291 0.93131 0.78762 0.0
H1597 H 0.41772 0.96584 0.77135 0.0
H1598 H 0.40832 0.96708 0.80022 0.0
H1599 H 0.39433 0.98333 0.77893 0.0
C1600 C 0.35634 0.99679 0.82757 0.0
C1601 C 0.33986 0.00952 0.81643 0.0
C1602 C 0.36385 0.9766 0.81828 0.0
C1603 C 0.35515 0.96882 0.79766 0.0
C1604 C 0.33814 0.98102 0.78697 0.0
H1605 H 0.40704 0.88988 0.69129 0.0
H1606 H 0.39226 0.91739 0.71755 0.0
C1607 C 0.3306 1.00115 0.79621 0.0
C1608 C 0.3644 0.94863 0.78642 0.0
H1609 H 0.41106 0.92889 0.75979 0.0
C1610 C 0.35007 0.93062 0.78174 0.0
C1611 C 0.38674 0.9479 0.7786 0.0
C1612 C 0.40269 0.9671 0.78232 0.0
C1613 C 0.35734 0.91214 0.76899 0.0
C1614 C 0.37958 0.91159 0.76093 0.0
C1615 C 0.39406 0.92931 0.76614 0.0
C1616 C 0.3876 0.89406 0.74511 0.0
C1617 C 0.34095 0.89382 0.76335 0.0
C1618 C 0.38978 0.87164 0.75182 0.0
C1619 C 0.39825 0.85563 0.7367 0.0
C1620 C 0.40475 0.86186 0.71465 0.0
C1621 C 0.40224 0.88434 0.70805 0.0
C1622 C 0.39382 0.90019 0.72309 0.0
H1623 H 0.32353 0.89844 0.76786 0.0
H1624 H 0.34162 0.8898 0.745 0.0
H1625 H 0.34549 0.87848 0.77286 0.0
H1626 H 0.38533 0.86661 0.76886 0.0
H1627 H 0.40008 0.83853 0.74242 0.0
H1628 H 0.89011 0.57987 0.30529 0.0
H1629 H 0.91809 0.59674 0.28091 0.0
H1630 H 0.86722 0.63676 0.24878 0.0
H1631 H 0.83865 0.61922 0.27289 0.0
H1632 H 0.89751 0.62084 0.21807 0.0
H1633 H 0.94248 0.65859 0.29024 0.0
H1634 H 0.93975 0.62897 0.29374 0.0
H1635 H 0.91513 0.64632 0.29324 0.0
C1636 C 0.88474 0.59225 0.29308 0.0
C1637 C 0.86212 0.59842 0.29129 0.0
C1638 C 0.90085 0.60198 0.27918 0.0
C1639 C 0.89489 0.61849 0.26346 0.0
C1640 C 0.87223 0.6242 0.26099 0.0
H1641 H 0.00422 0.69852 0.20994 0.0
H1642 H 0.96893 0.68712 0.22684 0.0
C1643 C 0.85594 0.61419 0.27476 0.0
C1644 C 0.91257 0.62974 0.24994 0.0
H1645 H 0.96291 0.65588 0.25543 0.0
C1646 C 0.91169 0.62878 0.22619 0.0
C1647 C 0.93085 0.64054 0.26049 0.0
C1648 C 0.932 0.6439 0.28581 0.0
C1649 C 0.92908 0.63748 0.21276 0.0
C1650 C 0.94813 0.64681 0.22342 0.0
C1651 C 0.94851 0.6485 0.24715 0.0
C1652 C 0.9681 0.65468 0.21061 0.0
C1653 C 0.92668 0.63673 0.18734 0.0
C1654 C 0.97938 0.64046 0.19547 0.0
C1655 C 0.99944 0.64719 0.18532 0.0
C1656 C 0.00895 0.66805 0.19059 0.0
C1657 C 0.99745 0.68236 0.20547 0.0
C1658 C 0.97721 0.67582 0.21521 0.0
H1659 H 0.90881 0.63661 0.18223 0.0
H1660 H 0.93501 0.65122 0.17917 0.0
H1661 H 0.93442 0.62114 0.18085 0.0
H1662 H 0.97314 0.62381 0.1921 0.0
H1663 H 0.00796 0.63566 0.17413 0.0
H1664 H 0.69948 0.00575 0.21253 0.0
H1665 H 0.68739 0.97103 0.23019 0.0
H1666 H 0.62516 0.97447 0.19346 0.0
H1667 H 0.63769 0.00866 0.17479 0.0
H1668 H 0.65511 0.96584 0.25799 0.0
H1669 H 0.63831 0.90989 0.18555 0.0
H1670 H 0.65306 0.93599 0.18235 0.0
H1671 H 0.62295 0.93548 0.18304 0.0
C1672 C 0.68342 0.99891 0.2078 0.0
C1673 C 0.66961 0.01001 0.19214 0.0
C1674 C 0.67648 0.97902 0.21798 0.0
C1675 C 0.65544 0.96986 0.21302 0.0
C1676 C 0.64172 0.98074 0.19713 0.0
H1677 H 0.57879 0.89243 0.30754 0.0
H1678 H 0.59582 0.92054 0.28334 0.0
C1679 C 0.64885 1.00045 0.18658 0.0
C1680 C 0.64714 0.95023 0.22608 0.0
H1681 H 0.62164 0.89934 0.22114 0.0
C1682 C 0.64806 0.95121 0.24984 0.0
C1683 C 0.63822 0.93089 0.2156 0.0
C1684 C 0.6383 0.92787 0.19024 0.0
C1685 C 0.63978 0.93381 0.26335 0.0
C1686 C 0.62946 0.91519 0.25291 0.0
C1687 C 0.62921 0.91377 0.22916 0.0
C1688 C 0.61821 0.89752 0.26646 0.0
C1689 C 0.64239 0.93556 0.28873 0.0
C1690 C 0.62425 0.87492 0.26425 0.0
C1691 C 0.61416 0.85858 0.27787 0.0
C1692 C 0.59795 0.86463 0.29401 0.0
C1693 C 0.5915 0.88719 0.29561 0.0
C1694 C 0.60132 0.90336 0.28184 0.0
H1695 H 0.65681 0.94633 0.29335 0.0
H1696 H 0.62715 0.94329 0.29604 0.0
H1697 H 0.6448 0.91888 0.2966 0.0
H1698 H 0.6371 0.86999 0.25232 0.0
H1699 H 0.61943 0.84134 0.27616 0.0
H1700 H 0.89233 0.42614 0.69756 0.0
H1701 H 0.92085 0.4096 0.72163 0.0
H1702 H 0.87063 0.37022 0.75554 0.0
H1703 H 0.84161 0.38744 0.7319 0.0
H1704 H 0.9004 0.38655 0.78536 0.0
H1705 H 0.94629 0.34826 0.71403 0.0
H1706 H 0.94349 0.37783 0.71023 0.0
H1707 H 0.91893 0.36041 0.7106 0.0
C1708 C 0.88725 0.41392 0.71007 0.0
C1709 C 0.86466 0.40792 0.71259 0.0
C1710 C 0.90366 0.40437 0.72377 0.0
C1711 C 0.89801 0.3882 0.73999 0.0
C1712 C 0.87542 0.38252 0.74299 0.0
H1713 H 0.00572 0.30752 0.7956 0.0
H1714 H 0.97103 0.31961 0.77793 0.0
C1715 C 0.85886 0.39234 0.72945 0.0
C1716 C 0.91582 0.3774 0.75373 0.0
H1717 H 0.96617 0.35106 0.74908 0.0
C1718 C 0.91467 0.37855 0.77747 0.0
C1719 C 0.93425 0.36653 0.74348 0.0
C1720 C 0.9357 0.36295 0.7182 0.0
C1721 C 0.93183 0.36984 0.79117 0.0
C1722 C 0.95096 0.36031 0.78083 0.0
C1723 C 0.9517 0.35857 0.75711 0.0
C1724 C 0.97056 0.35213 0.79399 0.0
C1725 C 0.92907 0.3707 0.81656 0.0
C1726 C 0.9818 0.36617 0.80932 0.0
C1727 C 1.0015 0.35905 0.81991 0.0
C1728 C 0.01068 0.33797 0.81492 0.0
C1729 C 0.99919 0.32384 0.79987 0.0
C1730 C 0.97931 0.33078 0.78967 0.0
H1731 H 0.91114 0.37115 0.82142 0.0
H1732 H 0.93703 0.35609 0.82488 0.0
H1733 H 0.93698 0.38616 0.82312 0.0
H1734 H 0.97583 0.38296 0.81249 0.0
H1735 H 0.01003 0.37045 0.83122 0.0
H1736 H 0.43088 0.11491 0.30439 0.0
H1737 H 0.41501 0.08628 0.28003 0.0
H1738 H 0.37055 0.13504 0.25056 0.0
H1739 H 0.38715 0.16422 0.27445 0.0
H1740 H 0.37446 0.07086 0.27973 0.0
H1741 H 0.39289 0.10482 0.19436 0.0
H1742 H 0.4051 0.11628 0.21977 0.0
H1743 H 0.37699 0.12353 0.21182 0.0
C1744 C 0.41784 0.11967 0.29261 0.0
C1745 C 0.41025 0.14188 0.2914 0.0
C1746 C 0.40878 0.10323 0.27865 0.0
C1747 C 0.3917 0.10845 0.26325 0.0
C1748 C 0.38407 0.13065 0.26188 0.0
H1749 H 0.3091 0.99939 0.21212 0.0
H1750 H 0.32206 0.03373 0.22998 0.0
C1751 C 0.39346 0.14729 0.27566 0.0
C1752 C 0.38129 0.09019 0.24975 0.0
H1753 H 0.36974 0.0726 0.1959 0.0
C1754 C 0.37346 0.07128 0.26139 0.0
C1755 C 0.38018 0.09057 0.22579 0.0
C1756 C 0.38943 0.10978 0.21215 0.0
C1757 C 0.36484 0.0527 0.24986 0.0
C1758 C 0.36311 0.05331 0.22594 0.0
C1759 C 0.37082 0.07224 0.21424 0.0
C1760 C 0.35405 0.03408 0.21288 0.0
C1761 C 0.35849 0.0323 0.26347 0.0
C1762 C 0.3671 0.02355 0.19621 0.0
C1763 C 0.35947 0.00412 0.18549 0.0
C1764 C 0.33871 0.99475 0.19139 0.0
C1765 C 0.32527 0.00595 0.20733 0.0
C1766 C 0.33273 0.02554 0.21771 0.0
H1767 H 0.3669 0.03208 0.28025 0.0
H1768 H 0.34019 0.03241 0.26652 0.0
H1769 H 0.36288 0.01667 0.25436 0.0
H1770 H 0.38354 0.02991 0.19207 0.0
H1771 H 0.37023 0.99598 0.17327 0.0
H1772 H 0.16553 0.60692 0.74101 0.0
H1773 H 0.13754 0.62164 0.76752 0.0
H1774 H 0.08566 0.6091 0.71852 0.0
H1775 H 0.11314 0.59434 0.69214 0.0
H1776 H 0.10643 0.65749 0.76206 0.0
H1777 H 0.06344 0.57668 0.77574 0.0
H1778 H 0.091 0.57859 0.76341 0.0
H1779 H 0.06661 0.58355 0.74632 0.0
C1780 C 0.14817 0.60734 0.73586 0.0
C1781 C 0.14165 0.59931 0.71443 0.0
C1782 C 0.13221 0.61574 0.75104 0.0
C1783 C 0.10948 0.61607 0.74513 0.0
C1784 C 0.10304 0.60856 0.72361 0.0
H1785 H 0.99495 0.68923 0.78702 0.0
H1786 H 0.02983 0.67565 0.77086 0.0
C1787 C 0.11888 0.60023 0.70848 0.0
C1788 C 0.09229 0.62443 0.76113 0.0
H1789 H 0.04318 0.60958 0.7864 0.0
C1790 C 0.09275 0.64697 0.76767 0.0
C1791 C 0.07466 0.61059 0.76876 0.0
C1792 C 0.07396 0.58595 0.7634 0.0
C1793 C 0.0754 0.65632 0.78064 0.0
C1794 C 0.05698 0.64282 0.78691 0.0
C1795 C 0.05716 0.62 0.7814 0.0
C1796 C 0.0367 0.65222 0.7979 0.0
C1797 C 0.07687 0.6806 0.7873 0.0
C1798 C 0.02867 0.64333 0.81835 0.0
C1799 C 0.00852 0.65095 0.82763 0.0
C1800 C 0.9959 0.6675 0.81652 0.0
C1801 C 0.00421 0.67656 0.79617 0.0
C1802 C 0.0243 0.66894 0.78695 0.0
H1803 H 0.0945 0.68638 0.78788 0.0
H1804 H 0.06797 0.69088 0.77451 0.0
H1805 H 0.06906 0.68361 0.80409 0.0
H1806 H 0.03787 0.63027 0.82699 0.0
H1807 H 1.00263 0.64351 0.84326 0.0
H1808 H 0.16457 0.5514 0.58008 0.0
H1809 H 0.17074 0.5376 0.54179 0.0
H1810 H 0.2319 0.50592 0.56334 0.0
H1811 H 0.22551 0.51924 0.60211 0.0
H1812 H 0.20393 0.54459 0.51178 0.0
H1813 H 0.19942 0.45439 0.53377 0.0
H1814 H 0.19164 0.47607 0.55347 0.0
H1815 H 0.22062 0.46983 0.54853 0.0
C1816 C 0.17937 0.5415 0.57677 0.0
C1817 C 0.19446 0.53626 0.59425 0.0
C1818 C 0.18289 0.53365 0.5548 0.0
C1819 C 0.20161 0.52045 0.54971 0.0
C1820 C 0.21707 0.51566 0.56696 0.0
H1821 H 0.2265 0.48934 0.40523 0.0
H1822 H 0.23221 0.50304 0.44397 0.0
C1823 C 0.21345 0.52337 0.58908 0.0
C1824 C 0.20446 0.51162 0.52634 0.0
H1825 H 0.20578 0.46333 0.49551 0.0
C1826 C 0.20453 0.52682 0.5082 0.0
C1827 C 0.20505 0.48841 0.5217 0.0
C1828 C 0.20399 0.47118 0.54034 0.0
C1829 C 0.20447 0.5195 0.48558 0.0
C1830 C 0.20493 0.49629 0.48095 0.0
C1831 C 0.20558 0.4811 0.49909 0.0
C1832 C 0.20251 0.48733 0.45758 0.0
C1833 C 0.20276 0.53666 0.46693 0.0
C1834 C 0.18438 0.47337 0.45249 0.0
C1835 C 0.18125 0.46531 0.43054 0.0
C1836 C 0.19616 0.47108 0.41308 0.0
C1837 C 0.21459 0.48476 0.41824 0.0
C1838 C 0.21781 0.4927 0.44035 0.0
H1839 H 0.1975 0.55326 0.47347 0.0
H1840 H 0.21933 0.53865 0.45877 0.0
H1841 H 0.19064 0.53127 0.45378 0.0
H1842 H 0.17236 0.46897 0.46547 0.0
H1843 H 0.16688 0.45481 0.42724 0.0
H1844 H 0.51886 0.77977 0.40673 0.0
H1845 H 0.5057 0.77382 0.44562 0.0
H1846 H 0.53786 0.83493 0.46647 0.0
H1847 H 0.5515 0.84068 0.42806 0.0
H1848 H 0.54454 0.80187 0.4969 0.0
H1849 H 0.45445 0.80733 0.47472 0.0
H1850 H 0.46968 0.78583 0.46017 0.0
H1851 H 0.47624 0.81469 0.455 0.0
C1852 C 0.52316 0.7919 0.41963 0.0
C1853 C 0.5361 0.81078 0.41422 0.0
C1854 C 0.51553 0.78853 0.44183 0.0
C1855 C 0.52047 0.80413 0.45891 0.0
C1856 C 0.5338 0.82269 0.4536 0.0
H1857 H 0.45496 0.84059 0.58106 0.0
H1858 H 0.46934 0.83487 0.54293 0.0
C1859 C 0.54155 0.82597 0.43156 0.0
C1860 C 0.51159 0.80163 0.4823 0.0
H1861 H 0.46325 0.80124 0.51305 0.0
C1862 C 0.52676 0.80154 0.50045 0.0
C1863 C 0.48838 0.8014 0.4869 0.0
C1864 C 0.47119 0.8025 0.46822 0.0
C1865 C 0.5194 0.8019 0.52306 0.0
C1866 C 0.49619 0.80179 0.52765 0.0
C1867 C 0.48103 0.80118 0.5095 0.0
C1868 C 0.48722 0.80445 0.55099 0.0
C1869 C 0.53654 0.80353 0.54173 0.0
C1870 C 0.49227 0.78911 0.56828 0.0
C1871 C 0.4842 0.79246 0.59032 0.0
C1872 C 0.47071 0.81107 0.59536 0.0
C1873 C 0.46531 0.82608 0.57785 0.0
C1874 C 0.47349 0.82281 0.55596 0.0
H1875 H 0.55322 0.8085 0.53519 0.0
H1876 H 0.53128 0.81582 0.55477 0.0
H1877 H 0.53829 0.78699 0.55004 0.0
H1878 H 0.50243 0.77455 0.56474 0.0
H1879 H 0.48849 0.78048 0.60336 0.0
H1880 H 0.83048 0.56207 0.42702 0.0
H1881 H 0.82632 0.54867 0.4658 0.0
H1882 H 0.78517 0.4943 0.44226 0.0
H1883 H 0.78887 0.5079 0.40322 0.0
H1884 H 0.76954 0.5136 0.48269 0.0
H1885 H 0.85985 0.49362 0.48819 0.0
H1886 H 0.85443 0.52217 0.48069 0.0
H1887 H 0.84626 0.5001 0.46173 0.0
C1888 C 0.82042 0.54732 0.43003 0.0
C1889 C 0.81024 0.53587 0.41195 0.0
C1890 C 0.81813 0.53965 0.45224 0.0
C1891 C 0.80585 0.52021 0.45687 0.0
C1892 C 0.79485 0.50926 0.43903 0.0
H1893 H 0.82524 0.4429 0.57913 0.0
H1894 H 0.8208 0.45549 0.54013 0.0
C1895 C 0.79701 0.51703 0.41674 0.0
C1896 C 0.80533 0.51094 0.4802 0.0
H1897 H 0.83925 0.49193 0.52247 0.0
C1898 C 0.78474 0.50875 0.4914 0.0
C1899 C 0.82515 0.5043 0.49139 0.0
C1900 C 0.84765 0.50493 0.47983 0.0
C1901 C 0.78352 0.50051 0.5137 0.0
C1902 C 0.80346 0.49467 0.52517 0.0
C1903 C 0.82397 0.49655 0.51377 0.0
C1904 C 0.80369 0.48618 0.54884 0.0
C1905 C 0.76089 0.49776 0.52458 0.0
C1906 C 0.79525 0.49907 0.56682 0.0
C1907 C 0.79759 0.49178 0.58927 0.0
C1908 C 0.80874 0.47165 0.59412 0.0
C1909 C 0.81668 0.45856 0.57603 0.0
C1910 C 0.81415 0.46573 0.55368 0.0
H1911 H 0.74737 0.49685 0.51172 0.0
H1912 H 0.76027 0.48246 0.53521 0.0
H1913 H 0.7575 0.51239 0.53561 0.0
H1914 H 0.78756 0.51513 0.56359 0.0
H1915 H 0.79143 0.5023 0.60283 0.0
H1916 H 0.45357 0.16846 0.42599 0.0
H1917 H 0.46666 0.17468 0.46449 0.0
H1918 H 0.50234 0.23344 0.4426 0.0
H1919 H 0.48966 0.22702 0.40362 0.0
H1920 H 0.52805 0.20737 0.4688 0.0
H1921 H 0.44679 0.21902 0.51143 0.0
H1922 H 0.4472 0.19345 0.49564 0.0
H1923 H 0.44965 0.21976 0.481 0.0
C1924 C 0.46401 0.18287 0.42931 0.0
C1925 C 0.47053 0.19728 0.41167 0.0
C1926 C 0.47135 0.1865 0.45144 0.0
C1927 C 0.48509 0.2048 0.45658 0.0
C1928 C 0.49157 0.21932 0.43906 0.0
H1929 H 0.51718 0.22566 0.6007 0.0
H1930 H 0.50432 0.23267 0.56189 0.0
C1931 C 0.48432 0.21562 0.4168 0.0
C1932 C 0.49378 0.2077 0.47999 0.0
H1933 H 0.47757 0.20792 0.53545 0.0
C1934 C 0.517 0.20787 0.48336 0.0
C1935 C 0.47943 0.20882 0.49903 0.0
C1936 C 0.45439 0.21051 0.49658 0.0
C1937 C 0.52621 0.20779 0.50524 0.0
C1938 C 0.51182 0.20698 0.52426 0.0
C1939 C 0.48863 0.20816 0.5209 0.0
C1940 C 0.5204 0.20347 0.54762 0.0
C1941 C 0.5513 0.20841 0.5077 0.0
C1942 C 0.53348 0.18463 0.55257 0.0
C1943 C 0.54093 0.18066 0.57461 0.0
C1944 C 0.53517 0.19527 0.59234 0.0
C1945 C 0.52192 0.21408 0.58744 0.0
C1946 C 0.51457 0.21812 0.56527 0.0
H1947 H 0.55925 0.21676 0.49295 0.0
H1948 H 0.5564 0.21729 0.52338 0.0
H1949 H 0.55779 0.19105 0.50846 0.0
H1950 H 0.53765 0.17271 0.53942 0.0
H1951 H 0.55093 0.16589 0.57778 0.0
H1952 H 0.66587 0.04958 0.08071 0.0
H1953 H 0.67176 0.03556 0.04248 0.0
H1954 H 0.73308 0.00402 0.06375 0.0
H1955 H 0.727 0.0176 0.10248 0.0
H1956 H 0.70514 0.04285 0.01252 0.0
H1957 H 0.7004 0.95251 0.03395 0.0
H1958 H 0.69254 0.97409 0.05374 0.0
H1959 H 0.72154 0.96793 0.04884 0.0
C1960 C 0.68063 0.03964 0.07736 0.0
C1961 C 0.69589 0.03458 0.09475 0.0
C1962 C 0.68399 0.03167 0.05542 0.0
C1963 C 0.7027 0.01849 0.05026 0.0
C1964 C 0.71827 0.01376 0.06743 0.0
H1965 H 0.72722 0.98862 0.90557 0.0
H1966 H 0.73325 1.00151 0.94454 0.0
C1967 C 0.71482 0.02162 0.08953 0.0
C1968 C 0.70552 0.00978 0.02685 0.0
H1969 H 0.70652 0.96168 0.99569 0.0
C1970 C 0.70564 0.0251 0.00882 0.0
C1971 C 0.70599 0.98661 0.02206 0.0
C1972 C 0.70493 0.96928 0.04061 0.0
C1973 C 0.70551 0.01793 0.98616 0.0
C1974 C 0.70584 0.99475 0.98137 0.0
C1975 C 0.70642 0.97944 0.9994 0.0
C1976 C 0.70335 0.98601 0.95794 0.0
C1977 C 0.70386 0.03523 0.96763 0.0
C1978 C 0.68502 0.97237 0.95266 0.0
C1979 C 0.6817 0.96478 0.93057 0.0
C1980 C 0.69662 0.9707 0.91316 0.0
C1981 C 0.7153 0.98394 0.91854 0.0
C1982 C 0.71871 0.99142 0.94078 0.0
H1983 H 0.69874 0.05183 0.97429 0.0
H1984 H 0.72043 0.03716 0.95942 0.0
H1985 H 0.69167 0.03002 0.95448 0.0
H1986 H 0.67297 0.96795 0.9656 0.0
H1987 H 0.66715 0.95458 0.92711 0.0
H1988 H 0.0523 0.34017 0.92641 0.0
H1989 H 0.03871 0.33373 0.9647 0.0
H1990 H 0.00418 0.27451 0.9422 0.0
H1991 H 0.01739 0.28114 0.90342 0.0
H1992 H 0.97791 0.30011 0.96873 0.0
H1993 H 0.0594 0.289 0.01108 0.0
H1994 H 0.05858 0.3147 0.9955 0.0
H1995 H 0.05646 0.28847 0.98066 0.0
C1996 C 0.04196 0.32565 0.92954 0.0
C1997 C 0.036 0.31112 0.9118 0.0
C1998 C 0.03433 0.3219 0.95155 0.0
C1999 C 0.02083 0.30336 0.95648 0.0
C2000 C 0.01476 0.28882 0.93883 0.0
H2001 H 0.98957 0.28019 0.10043 0.0
H2002 H 1.00214 0.27372 0.06142 0.0
C2003 C 0.02231 0.29263 0.91668 0.0
C2004 C 0.01218 0.30006 0.97985 0.0
H2005 H 0.02849 0.29918 0.03528 0.0
C2006 C 0.98898 0.29954 0.98326 0.0
C2007 C 0.02658 0.29884 0.99885 0.0
C2008 C 0.05163 0.29753 0.99633 0.0
C2009 C 0.9798 0.29915 0.00516 0.0
C2010 C 0.99421 0.29984 0.02417 0.0
C2011 C 0.0174 0.29902 0.02074 0.0
C2012 C 0.98564 0.30289 0.04762 0.0
C2013 C 0.95473 0.29819 0.00766 0.0
C2014 C 0.97238 0.32152 0.05288 0.0
C2015 C 0.9651 0.32519 0.07504 0.0
C2016 C 0.9712 0.31048 0.09258 0.0
C2017 C 0.98456 0.29183 0.08733 0.0
C2018 C 0.99175 0.2881 0.06505 0.0
H2019 H 0.94686 0.28996 0.9928 0.0
H2020 H 0.94976 0.28902 0.02321 0.0
H2021 H 0.94803 0.31545 0.00869 0.0
H2022 H 0.96799 0.33354 0.03991 0.0
H2023 H 0.955 0.33983 0.07845 0.0
H2024 H 0.34183 0.05159 0.92743 0.0
H2025 H 0.33596 0.03766 0.96572 0.0
H2026 H 0.27519 0.00521 0.94431 0.0
H2027 H 0.28127 0.01867 0.90555 0.0
H2028 H 0.30261 0.04415 0.99586 0.0
H2029 H 0.30872 0.95408 0.97362 0.0
H2030 H 0.31613 0.97594 0.95398 0.0
H2031 H 0.28726 0.96924 0.95892 0.0
C2032 C 0.32718 0.04149 0.93078 0.0
C2033 C 0.31211 0.03608 0.91333 0.0
C2034 C 0.32383 0.03358 0.95275 0.0
C2035 C 0.30532 0.02012 0.95787 0.0
C2036 C 0.28987 0.01516 0.94066 0.0
H2037 H 0.28097 0.98789 0.10215 0.0
H2038 H 0.27514 1.00179 0.0635 0.0
C2039 C 0.29331 0.02295 0.91854 0.0
C2040 C 0.30268 0.0112 0.98122 0.0
H2041 H 0.30237 0.96282 0.01192 0.0
C2042 C 0.30236 0.02636 0.99939 0.0
C2043 C 0.30254 0.98798 0.9858 0.0
C2044 C 0.30387 0.97082 0.96711 0.0
C2045 C 0.30261 0.01898 0.02199 0.0
C2046 C 0.30261 0.99576 0.02656 0.0
C2047 C 0.30222 0.98061 0.00839 0.0
C2048 C 0.30522 0.9868 0.04989 0.0
C2049 C 0.304 0.03612 0.04069 0.0
C2050 C 0.32365 0.97321 0.05496 0.0
C2051 C 0.32687 0.96505 0.07685 0.0
C2052 C 0.31174 0.97034 0.09429 0.0
C2053 C 0.29305 0.98369 0.08916 0.0
C2054 C 0.28975 0.99173 0.06711 0.0
H2055 H 0.30889 0.05285 0.03419 0.0
H2056 H 0.2874 0.03775 0.0489 0.0
H2057 H 0.31626 0.03094 0.05379 0.0
H2058 H 0.3358 0.96915 0.04199 0.0
H2059 H 0.34144 0.95481 0.08014 0.0
H2060 H 0.95292 0.66785 0.9283 0.0
H2061 H 0.96639 0.67411 0.96665 0.0
H2062 H 1.00229 0.73253 0.94421 0.0
H2063 H 0.98923 0.72605 0.90536 0.0
H2064 H 0.02794 0.70658 0.97064 0.0
H2065 H 0.94678 0.71893 0.01325 0.0
H2066 H 0.94704 0.69324 0.99765 0.0
H2067 H 0.94962 0.71943 0.98281 0.0
C2068 C 0.96353 0.68217 0.93146 0.0
C2069 C 0.96995 0.69649 0.91371 0.0
C2070 C 0.97107 0.68584 0.95351 0.0
C2071 C 0.98495 0.70408 0.95847 0.0
C2072 C 0.99142 0.71846 0.94082 0.0
H2073 H 0.01744 0.72543 0.10255 0.0
H2074 H 0.00447 0.73242 0.06375 0.0
C2075 C 0.98396 0.71473 0.91863 0.0
C2076 C 0.99368 0.70713 0.98185 0.0
H2077 H 0.97751 0.70779 0.03733 0.0
C2078 C 0.0169 0.70722 0.98521 0.0
C2079 C 0.97935 0.70846 1.00089 0.0
C2080 C 0.95432 0.71027 0.99846 0.0
C2081 C 0.02613 0.70724 0.00708 0.0
C2082 C 0.01175 0.7066 0.02613 0.0
C2083 C 0.98856 0.7079 0.02277 0.0
C2084 C 0.02033 0.7031 0.04949 0.0
C2085 C 0.05122 0.70775 0.00952 0.0
C2086 C 0.03329 0.68418 0.05445 0.0
C2087 C 0.04078 0.68021 0.07647 0.0
C2088 C 0.0352 0.69491 0.09419 0.0
C2089 C 0.02204 0.71379 0.08929 0.0
C2090 C 0.01464 0.71782 0.06713 0.0
H2091 H 0.05919 0.71601 0.99473 0.0
H2092 H 0.05638 0.71666 0.02517 0.0
H2093 H 0.05763 0.69037 0.01033 0.0
H2094 H 0.03734 0.6722 0.04132 0.0
H2095 H 0.0507 0.66539 0.07962 0.0
loop_
_geom_bond_atom_site_label_1
_geom_bond_atom_site_label_2
_geom_bond_distance
_geom_bond_site_symmetry_2
_ccdc_geom_bond_type
Co0 O2 2.143 . S
Co0 O8 2.074 . S
Co0 O11 2.093 . S
Co0 O24 2.097 . S
Co0 N41 2.151 . S
Co0 N49 2.214 . S
Co1 O2 2.160 . S
Co1 O7 2.058 . S
Co1 O17 2.057 . S
Co1 O32 2.037 . S
Co1 N36 2.145 . S
Co1 N57 2.257 . S
O2 Co0 2.143 . S
O2 Co1 2.160 . S
C3 O4 1.278 . S
C3 O11 1.224 . S
O4 C3 1.278 . S
C5 O6 1.245 . S
C5 O17 1.232 . S
O6 C5 1.245 . S
O7 Co1 2.058 . S
O7 C33 1.269 . S
O8 Co0 2.074 . S
O8 C33 1.257 . S
H9 C34 0.930 . S
H10 C40 0.930 . S
O11 Co0 2.093 . S
O11 C3 1.224 . S
H12 C44 0.929 . S
H13 C46 0.930 . S
H14 C47 0.930 . S
H15 C45 0.929 . S
H16 C48 0.928 . S
O17 Co1 2.057 . S
O17 C5 1.232 . S
H18 C37 0.929 . S
H19 C38 0.929 . S
H20 C50 0.931 . S
H21 C42 0.929 . S
H22 C51 0.930 . S
H23 C43 0.931 . S
O24 Co0 2.097 . S
O24 C52 1.214 . S
H25 C53 0.929 . S
H26 C54 0.929 . S
H27 C55 0.930 . S
H28 C56 0.929 . S
H29 C58 0.930 . S
H30 C35 0.930 . S
H31 C39 0.930 . S
O32 Co1 2.037 . S
O32 C52 1.234 . S
C33 O7 1.269 . S
C33 O8 1.257 . S
C34 H9 0.930 . S
C34 C37 1.388 . S
C34 C39 1.418 . S
C35 H30 0.930 . S
C35 C38 1.404 . S
C35 C39 1.353 . S
N36 Co1 2.145 . S
N36 C37 1.397 . S
N36 C38 1.334 . S
C37 H18 0.929 . S
C37 C34 1.388 . S
C37 N36 1.397 . S
C38 H19 0.929 . S
C38 C35 1.404 . S
C38 N36 1.334 . S
C39 H31 0.930 . S
C39 C34 1.418 . S
C39 C35 1.353 . S
C40 H10 0.930 . S
C40 N41 1.330 . S
C40 C42 1.446 . S
N41 Co0 2.151 . S
N41 C40 1.330 . S
N41 C45 1.418 . S
C42 H21 0.929 . S
C42 C40 1.446 . S
C42 C43 1.332 . S
C43 H23 0.931 . S
C43 C42 1.332 . S
C43 C44 1.267 . S
C44 H12 0.929 . S
C44 C43 1.267 . S
C44 C45 1.251 . S
C45 H15 0.929 . S
C45 N41 1.418 . S
C45 C44 1.251 . S
C46 H13 0.930 . S
C46 C48 1.406 . S
C46 C51 1.261 . S
C47 H14 0.930 . S
C47 N49 1.325 . S
C47 C50 1.357 . S
C48 H16 0.928 . S
C48 C46 1.406 . S
C48 N49 1.261 . S
N49 Co0 2.214 . S
N49 C47 1.325 . S
N49 C48 1.261 . S
C50 H20 0.931 . S
C50 C47 1.357 . S
C50 C51 1.312 . S
C51 H22 0.930 . S
C51 C46 1.261 . S
C51 C50 1.312 . S
C52 O24 1.214 . S
C52 O32 1.234 . S
C53 H25 0.929 . S
C53 C56 1.391 . S
C53 C58 1.391 . S
C54 H26 0.929 . S
C54 C55 1.390 . S
C54 N57 1.391 . S
C55 H27 0.930 . S
C55 C54 1.390 . S
C55 C56 1.392 . S
C56 H28 0.929 . S
C56 C53 1.391 . S
C56 C55 1.392 . S
N57 Co1 2.257 . S
N57 C54 1.391 . S
N57 C58 1.388 . S
C58 H29 0.930 . S
C58 C53 1.391 . S
C58 N57 1.388 . S
Co59 O61 2.143 . S
Co59 O67 2.074 . S
Co59 O70 2.093 . S
Co59 O83 2.097 . S
Co59 N100 2.151 . S
Co59 N108 2.214 . S
Co60 O61 2.160 . S
Co60 O66 2.058 . S
Co60 O76 2.057 . S
Co60 O91 2.037 . S
Co60 N95 2.145 . S
Co60 N116 2.257 . S
O61 Co59 2.143 . S
O61 Co60 2.160 . S
C62 O63 1.278 . S
C62 O70 1.224 . S
O63 C62 1.278 . S
C64 O65 1.245 . S
C64 O76 1.232 . S
O65 C64 1.245 . S
O66 Co60 2.058 . S
O66 C92 1.269 . S
O67 Co59 2.074 . S
O67 C92 1.257 . S
H68 C93 0.930 . S
H69 C99 0.930 . S
O70 Co59 2.093 . S
O70 C62 1.224 . S
H71 C103 0.929 . S
H72 C105 0.930 . S
H73 C106 0.930 . S
H74 C104 0.929 . S
H75 C107 0.928 . S
O76 Co60 2.057 . S
O76 C64 1.232 . S
H77 C96 0.929 . S
H78 C97 0.929 . S
H79 C109 0.931 . S
H80 C101 0.929 . S
H81 C110 0.930 . S
H82 C102 0.931 . S
O83 Co59 2.097 . S
O83 C111 1.214 . S
H84 C112 0.929 . S
H85 C113 0.929 . S
H86 C114 0.930 . S
H87 C115 0.929 . S
H88 C117 0.930 . S
H89 C94 0.930 . S
H90 C98 0.930 . S
O91 Co60 2.037 . S
O91 C111 1.234 . S
C92 O66 1.269 . S
C92 O67 1.257 . S
C93 H68 0.930 . S
C93 C96 1.388 . S
C93 C98 1.418 . S
C94 H89 0.930 . S
C94 C97 1.404 . S
C94 C98 1.353 . S
N95 Co60 2.145 . S
N95 C96 1.397 . S
N95 C97 1.334 . S
C96 H77 0.929 . S
C96 C93 1.388 . S
C96 N95 1.397 . S
C97 H78 0.929 . S
C97 C94 1.404 . S
C97 N95 1.334 . S
C98 H90 0.930 . S
C98 C93 1.418 . S
C98 C94 1.353 . S
C99 H69 0.930 . S
C99 N100 1.330 . S
C99 C101 1.446 . S
N100 Co59 2.151 . S
N100 C99 1.330 . S
N100 C104 1.418 . S
C101 H80 0.929 . S
C101 C99 1.446 . S
C101 C102 1.332 . S
C102 H82 0.931 . S
C102 C101 1.332 . S
C102 C103 1.267 . S
C103 H71 0.929 . S
C103 C102 1.267 . S
C103 C104 1.251 . S
C104 H74 0.929 . S
C104 N100 1.418 . S
C104 C103 1.251 . S
C105 H72 0.930 . S
C105 C107 1.406 . S
C105 C110 1.261 . S
C106 H73 0.930 . S
C106 N108 1.325 . S
C106 C109 1.357 . S
C107 H75 0.928 . S
C107 C105 1.406 . S
C107 N108 1.261 . S
N108 Co59 2.214 . S
N108 C106 1.325 . S
N108 C107 1.261 . S
C109 H79 0.931 . S
C109 C106 1.357 . S
C109 C110 1.312 . S
C110 H81 0.930 . S
C110 C105 1.261 . S
C110 C109 1.312 . S
C111 O83 1.214 . S
C111 O91 1.234 . S
C112 H84 0.929 . S
C112 C115 1.391 . S
C112 C117 1.391 . S
C113 H85 0.929 . S
C113 C114 1.390 . S
C113 N116 1.391 . S
C114 H86 0.930 . S
C114 C113 1.390 . S
C114 C115 1.392 . S
C115 H87 0.929 . S
C115 C112 1.391 . S
C115 C114 1.392 . S
N116 Co60 2.257 . S
N116 C113 1.391 . S
N116 C117 1.388 . S
C117 H88 0.930 . S
C117 C112 1.391 . S
C117 N116 1.388 . S
Co118 O120 2.143 . S
Co118 O126 2.074 . S
Co118 O129 2.093 . S
Co118 O142 2.097 . S
Co118 N159 2.151 . S
Co118 N167 2.214 . S
Co119 O120 2.160 . S
Co119 O125 2.058 . S
Co119 O135 2.057 . S
Co119 O150 2.037 . S
Co119 N154 2.145 . S
Co119 N175 2.257 . S
O120 Co118 2.143 . S
O120 Co119 2.160 . S
C121 O122 1.278 . S
C121 O129 1.224 . S
O122 C121 1.278 . S
C123 O124 1.245 . S
C123 O135 1.232 . S
O124 C123 1.245 . S
O125 Co119 2.058 . S
O125 C151 1.269 . S
O126 Co118 2.074 . S
O126 C151 1.257 . S
H127 C152 0.930 . S
H128 C158 0.930 . S
O129 Co118 2.093 . S
O129 C121 1.224 . S
H130 C162 0.929 . S
H131 C164 0.930 . S
H132 C165 0.930 . S
H133 C163 0.929 . S
H134 C166 0.928 . S
O135 Co119 2.057 . S
O135 C123 1.232 . S
H136 C155 0.929 . S
H137 C156 0.929 . S
H138 C168 0.931 . S
H139 C160 0.929 . S
H140 C169 0.930 . S
H141 C161 0.931 . S
O142 Co118 2.097 . S
O142 C170 1.214 . S
H143 C171 0.929 . S
H144 C172 0.929 . S
H145 C173 0.930 . S
H146 C174 0.929 . S
H147 C176 0.930 . S
H148 C153 0.930 . S
H149 C157 0.930 . S
O150 Co119 2.037 . S
O150 C170 1.234 . S
C151 O125 1.269 . S
C151 O126 1.257 . S
C152 H127 0.930 . S
C152 C155 1.388 . S
C152 C157 1.418 . S
C153 H148 0.930 . S
C153 C156 1.404 . S
C153 C157 1.353 . S
N154 Co119 2.145 . S
N154 C155 1.397 . S
N154 C156 1.334 . S
C155 H136 0.929 . S
C155 C152 1.388 . S
C155 N154 1.397 . S
C156 H137 0.929 . S
C156 C153 1.404 . S
C156 N154 1.334 . S
C157 H149 0.930 . S
C157 C152 1.418 . S
C157 C153 1.353 . S
C158 H128 0.930 . S
C158 N159 1.330 . S
C158 C160 1.446 . S
N159 Co118 2.151 . S
N159 C158 1.330 . S
N159 C163 1.418 . S
C160 H139 0.929 . S
C160 C158 1.446 . S
C160 C161 1.332 . S
C161 H141 0.931 . S
C161 C160 1.332 . S
C161 C162 1.267 . S
C162 H130 0.929 . S
C162 C161 1.267 . S
C162 C163 1.251 . S
C163 H133 0.929 . S
C163 N159 1.418 . S
C163 C162 1.251 . S
C164 H131 0.930 . S
C164 C166 1.406 . S
C164 C169 1.261 . S
C165 H132 0.930 . S
C165 N167 1.325 . S
C165 C168 1.357 . S
C166 H134 0.928 . S
C166 C164 1.406 . S
C166 N167 1.261 . S
N167 Co118 2.214 . S
N167 C165 1.325 . S
N167 C166 1.261 . S
C168 H138 0.931 . S
C168 C165 1.357 . S
C168 C169 1.312 . S
C169 H140 0.930 . S
C169 C164 1.261 . S
C169 C168 1.312 . S
C170 O142 1.214 . S
C170 O150 1.234 . S
C171 H143 0.929 . S
C171 C174 1.391 . S
C171 C176 1.391 . S
C172 H144 0.929 . S
C172 C173 1.390 . S
C172 N175 1.391 . S
C173 H145 0.930 . S
C173 C172 1.390 . S
C173 C174 1.392 . S
C174 H146 0.929 . S
C174 C171 1.391 . S
C174 C173 1.392 . S
N175 Co119 2.257 . S
N175 C172 1.391 . S
N175 C176 1.388 . S
C176 H147 0.930 . S
C176 C171 1.391 . S
C176 N175 1.388 . S
Co177 O179 2.143 . S
Co177 O185 2.074 . S
Co177 O188 2.093 . S
Co177 O201 2.097 . S
Co177 N218 2.151 . S
Co177 N226 2.214 . S
Co178 O179 2.160 . S
Co178 O184 2.058 . S
Co178 O194 2.057 . S
Co178 O209 2.037 . S
Co178 N213 2.145 . S
Co178 N234 2.257 . S
O179 Co177 2.143 . S
O179 Co178 2.160 . S
C180 O181 1.278 . S
C180 O188 1.224 . S
O181 C180 1.278 . S
C182 O183 1.245 . S
C182 O194 1.232 . S
O183 C182 1.245 . S
O184 Co178 2.058 . S
O184 C210 1.269 . S
O185 Co177 2.074 . S
O185 C210 1.257 . S
H186 C211 0.930 . S
H187 C217 0.930 . S
O188 Co177 2.093 . S
O188 C180 1.224 . S
H189 C221 0.929 . S
H190 C223 0.930 . S
H191 C224 0.930 . S
H192 C222 0.929 . S
H193 C225 0.928 . S
O194 Co178 2.057 . S
O194 C182 1.232 . S
H195 C214 0.929 . S
H196 C215 0.929 . S
H197 C227 0.931 . S
H198 C219 0.929 . S
H199 C228 0.930 . S
H200 C220 0.931 . S
O201 Co177 2.097 . S
O201 C229 1.214 . S
H202 C230 0.929 . S
H203 C231 0.929 . S
H204 C232 0.930 . S
H205 C233 0.929 . S
H206 C235 0.930 . S
H207 C212 0.930 . S
H208 C216 0.930 . S
O209 Co178 2.037 . S
O209 C229 1.234 . S
C210 O184 1.269 . S
C210 O185 1.257 . S
C211 H186 0.930 . S
C211 C214 1.388 . S
C211 C216 1.418 . S
C212 H207 0.930 . S
C212 C215 1.404 . S
C212 C216 1.353 . S
N213 Co178 2.145 . S
N213 C214 1.397 . S
N213 C215 1.334 . S
C214 H195 0.929 . S
C214 C211 1.388 . S
C214 N213 1.397 . S
C215 H196 0.929 . S
C215 C212 1.404 . S
C215 N213 1.334 . S
C216 H208 0.930 . S
C216 C211 1.418 . S
C216 C212 1.353 . S
C217 H187 0.930 . S
C217 N218 1.330 . S
C217 C219 1.446 . S
N218 Co177 2.151 . S
N218 C217 1.330 . S
N218 C222 1.418 . S
C219 H198 0.929 . S
C219 C217 1.446 . S
C219 C220 1.332 . S
C220 H200 0.931 . S
C220 C219 1.332 . S
C220 C221 1.267 . S
C221 H189 0.929 . S
C221 C220 1.267 . S
C221 C222 1.251 . S
C222 H192 0.929 . S
C222 N218 1.418 . S
C222 C221 1.251 . S
C223 H190 0.930 . S
C223 C225 1.406 . S
C223 C228 1.261 . S
C224 H191 0.930 . S
C224 N226 1.325 . S
C224 C227 1.357 . S
C225 H193 0.928 . S
C225 C223 1.406 . S
C225 N226 1.261 . S
N226 Co177 2.214 . S
N226 C224 1.325 . S
N226 C225 1.261 . S
C227 H197 0.931 . S
C227 C224 1.357 . S
C227 C228 1.312 . S
C228 H199 0.930 . S
C228 C223 1.261 . S
C228 C227 1.312 . S
C229 O201 1.214 . S
C229 O209 1.234 . S
C230 H202 0.929 . S
C230 C233 1.391 . S
C230 C235 1.391 . S
C231 H203 0.929 . S
C231 C232 1.390 . S
C231 N234 1.391 . S
C232 H204 0.930 . S
C232 C231 1.390 . S
C232 C233 1.392 . S
C233 H205 0.929 . S
C233 C230 1.391 . S
C233 C232 1.392 . S
N234 Co178 2.257 . S
N234 C231 1.391 . S
N234 C235 1.388 . S
C235 H206 0.930 . S
C235 C230 1.391 . S
C235 N234 1.388 . S
Co236 O238 2.143 . S
Co236 O244 2.074 . S
Co236 O247 2.093 . S
Co236 O260 2.097 . S
Co236 N277 2.151 . S
Co236 N285 2.214 . S
Co237 O238 2.160 . S
Co237 O243 2.058 . S
Co237 O253 2.057 . S
Co237 O268 2.037 . S
Co237 N272 2.145 . S
Co237 N293 2.257 . S
O238 Co236 2.143 . S
O238 Co237 2.160 . S
C239 O240 1.278 . S
C239 O247 1.224 . S
O240 C239 1.278 . S
C241 O242 1.245 . S
C241 O253 1.232 . S
O242 C241 1.245 . S
O243 Co237 2.058 . S
O243 C269 1.269 . S
O244 Co236 2.074 . S
O244 C269 1.257 . S
H245 C270 0.930 . S
H246 C276 0.930 . S
O247 Co236 2.093 . S
O247 C239 1.224 . S
H248 C280 0.929 . S
H249 C282 0.930 . S
H250 C283 0.930 . S
H251 C281 0.929 . S
H252 C284 0.928 . S
O253 Co237 2.057 . S
O253 C241 1.232 . S
H254 C273 0.929 . S
H255 C274 0.929 . S
H256 C286 0.931 . S
H257 C278 0.929 . S
H258 C287 0.930 . S
H259 C279 0.931 . S
O260 Co236 2.097 . S
O260 C288 1.214 . S
H261 C289 0.929 . S
H262 C290 0.929 . S
H263 C291 0.930 . S
H264 C292 0.929 . S
H265 C294 0.930 . S
H266 C271 0.930 . S
H267 C275 0.930 . S
O268 Co237 2.037 . S
O268 C288 1.234 . S
C269 O243 1.269 . S
C269 O244 1.257 . S
C270 H245 0.930 . S
C270 C273 1.388 . S
C270 C275 1.418 . S
C271 H266 0.930 . S
C271 C274 1.404 . S
C271 C275 1.353 . S
N272 Co237 2.145 . S
N272 C273 1.397 . S
N272 C274 1.334 . S
C273 H254 0.929 . S
C273 C270 1.388 . S
C273 N272 1.397 . S
C274 H255 0.929 . S
C274 C271 1.404 . S
C274 N272 1.334 . S
C275 H267 0.930 . S
C275 C270 1.418 . S
C275 C271 1.353 . S
C276 H246 0.930 . S
C276 N277 1.330 . S
C276 C278 1.446 . S
N277 Co236 2.151 . S
N277 C276 1.330 . S
N277 C281 1.418 . S
C278 H257 0.929 . S
C278 C276 1.446 . S
C278 C279 1.332 . S
C279 H259 0.931 . S
C279 C278 1.332 . S
C279 C280 1.267 . S
C280 H248 0.929 . S
C280 C279 1.267 . S
C280 C281 1.251 . S
C281 H251 0.929 . S
C281 N277 1.418 . S
C281 C280 1.251 . S
C282 H249 0.930 . S
C282 C284 1.406 . S
C282 C287 1.261 . S
C283 H250 0.930 . S
C283 N285 1.325 . S
C283 C286 1.357 . S
C284 H252 0.928 . S
C284 C282 1.406 . S
C284 N285 1.261 . S
N285 Co236 2.214 . S
N285 C283 1.325 . S
N285 C284 1.261 . S
C286 H256 0.931 . S
C286 C283 1.357 . S
C286 C287 1.312 . S
C287 H258 0.930 . S
C287 C282 1.261 . S
C287 C286 1.312 . S
C288 O260 1.214 . S
C288 O268 1.234 . S
C289 H261 0.929 . S
C289 C292 1.391 . S
C289 C294 1.391 . S
C290 H262 0.929 . S
C290 C291 1.390 . S
C290 N293 1.391 . S
C291 H263 0.930 . S
C291 C290 1.390 . S
C291 C292 1.392 . S
C292 H264 0.929 . S
C292 C289 1.391 . S
C292 C291 1.392 . S
N293 Co237 2.257 . S
N293 C290 1.391 . S
N293 C294 1.388 . S
C294 H265 0.930 . S
C294 C289 1.391 . S
C294 N293 1.388 . S
Co295 O297 2.143 . S
Co295 O303 2.074 . S
Co295 O306 2.093 . S
Co295 O319 2.097 . S
Co295 N336 2.151 . S
Co295 N344 2.214 . S
Co296 O297 2.160 . S
Co296 O302 2.058 . S
Co296 O312 2.057 . S
Co296 O327 2.037 . S
Co296 N331 2.145 . S
Co296 N352 2.257 . S
O297 Co295 2.143 . S
O297 Co296 2.160 . S
C298 O299 1.278 . S
C298 O306 1.224 . S
O299 C298 1.278 . S
C300 O301 1.245 . S
C300 O312 1.232 . S
O301 C300 1.245 . S
O302 Co296 2.058 . S
O302 C328 1.269 . S
O303 Co295 2.074 . S
O303 C328 1.257 . S
H304 C329 0.930 . S
H305 C335 0.930 . S
O306 Co295 2.093 . S
O306 C298 1.224 . S
H307 C339 0.929 . S
H308 C341 0.930 . S
H309 C342 0.930 . S
H310 C340 0.929 . S
H311 C343 0.928 . S
O312 Co296 2.057 . S
O312 C300 1.232 . S
H313 C332 0.929 . S
H314 C333 0.929 . S
H315 C345 0.931 . S
H316 C337 0.929 . S
H317 C346 0.930 . S
H318 C338 0.931 . S
O319 Co295 2.097 . S
O319 C347 1.214 . S
H320 C348 0.929 . S
H321 C349 0.929 . S
H322 C350 0.930 . S
H323 C351 0.929 . S
H324 C353 0.930 . S
H325 C330 0.930 . S
H326 C334 0.930 . S
O327 Co296 2.037 . S
O327 C347 1.234 . S
C328 O302 1.269 . S
C328 O303 1.257 . S
C329 H304 0.930 . S
C329 C332 1.388 . S
C329 C334 1.418 . S
C330 H325 0.930 . S
C330 C333 1.404 . S
C330 C334 1.353 . S
N331 Co296 2.145 . S
N331 C332 1.397 . S
N331 C333 1.334 . S
C332 H313 0.929 . S
C332 C329 1.388 . S
C332 N331 1.397 . S
C333 H314 0.929 . S
C333 C330 1.404 . S
C333 N331 1.334 . S
C334 H326 0.930 . S
C334 C329 1.418 . S
C334 C330 1.353 . S
C335 H305 0.930 . S
C335 N336 1.330 . S
C335 C337 1.446 . S
N336 Co295 2.151 . S
N336 C335 1.330 . S
N336 C340 1.418 . S
C337 H316 0.929 . S
C337 C335 1.446 . S
C337 C338 1.332 . S
C338 H318 0.931 . S
C338 C337 1.332 . S
C338 C339 1.267 . S
C339 H307 0.929 . S
C339 C338 1.267 . S
C339 C340 1.251 . S
C340 H310 0.929 . S
C340 N336 1.418 . S
C340 C339 1.251 . S
C341 H308 0.930 . S
C341 C343 1.406 . S
C341 C346 1.261 . S
C342 H309 0.930 . S
C342 N344 1.325 . S
C342 C345 1.357 . S
C343 H311 0.928 . S
C343 C341 1.406 . S
C343 N344 1.261 . S
N344 Co295 2.214 . S
N344 C342 1.325 . S
N344 C343 1.261 . S
C345 H315 0.931 . S
C345 C342 1.357 . S
C345 C346 1.312 . S
C346 H317 0.930 . S
C346 C341 1.261 . S
C346 C345 1.312 . S
C347 O319 1.214 . S
C347 O327 1.234 . S
C348 H320 0.929 . S
C348 C351 1.391 . S
C348 C353 1.391 . S
C349 H321 0.929 . S
C349 C350 1.390 . S
C349 N352 1.391 . S
C350 H322 0.930 . S
C350 C349 1.390 . S
C350 C351 1.392 . S
C351 H323 0.929 . S
C351 C348 1.391 . S
C351 C350 1.392 . S
N352 Co296 2.257 . S
N352 C349 1.391 . S
N352 C353 1.388 . S
C353 H324 0.930 . S
C353 C348 1.391 . S
C353 N352 1.388 . S
Co354 O356 2.143 . S
Co354 O362 2.074 . S
Co354 O365 2.093 . S
Co354 O378 2.097 . S
Co354 N395 2.151 . S
Co354 N403 2.214 . S
Co355 O356 2.160 . S
Co355 O361 2.058 . S
Co355 O371 2.057 . S
Co355 O386 2.037 . S
Co355 N390 2.145 . S
Co355 N411 2.257 . S
O356 Co354 2.143 . S
O356 Co355 2.160 . S
C357 O358 1.278 . S
C357 O365 1.224 . S
O358 C357 1.278 . S
C359 O360 1.245 . S
C359 O371 1.232 . S
O360 C359 1.245 . S
O361 Co355 2.058 . S
O361 C387 1.269 . S
O362 Co354 2.074 . S
O362 C387 1.257 . S
H363 C388 0.930 . S
H364 C394 0.930 . S
O365 Co354 2.093 . S
O365 C357 1.224 . S
H366 C398 0.929 . S
H367 C400 0.930 . S
H368 C401 0.930 . S
H369 C399 0.929 . S
H370 C402 0.928 . S
O371 Co355 2.057 . S
O371 C359 1.232 . S
H372 C391 0.929 . S
H373 C392 0.929 . S
H374 C404 0.931 . S
H375 C396 0.929 . S
H376 C405 0.930 . S
H377 C397 0.931 . S
O378 Co354 2.097 . S
O378 C406 1.214 . S
H379 C407 0.929 . S
H380 C408 0.929 . S
H381 C409 0.930 . S
H382 C410 0.929 . S
H383 C412 0.930 . S
H384 C389 0.930 . S
H385 C393 0.930 . S
O386 Co355 2.037 . S
O386 C406 1.234 . S
C387 O361 1.269 . S
C387 O362 1.257 . S
C388 H363 0.930 . S
C388 C391 1.388 . S
C388 C393 1.418 . S
C389 H384 0.930 . S
C389 C392 1.404 . S
C389 C393 1.353 . S
N390 Co355 2.145 . S
N390 C391 1.397 . S
N390 C392 1.334 . S
C391 H372 0.929 . S
C391 C388 1.388 . S
C391 N390 1.397 . S
C392 H373 0.929 . S
C392 C389 1.404 . S
C392 N390 1.334 . S
C393 H385 0.930 . S
C393 C388 1.418 . S
C393 C389 1.353 . S
C394 H364 0.930 . S
C394 N395 1.330 . S
C394 C396 1.446 . S
N395 Co354 2.151 . S
N395 C394 1.330 . S
N395 C399 1.418 . S
C396 H375 0.929 . S
C396 C394 1.446 . S
C396 C397 1.332 . S
C397 H377 0.931 . S
C397 C396 1.332 . S
C397 C398 1.267 . S
C398 H366 0.929 . S
C398 C397 1.267 . S
C398 C399 1.251 . S
C399 H369 0.929 . S
C399 N395 1.418 . S
C399 C398 1.251 . S
C400 H367 0.930 . S
C400 C402 1.406 . S
C400 C405 1.261 . S
C401 H368 0.930 . S
C401 N403 1.325 . S
C401 C404 1.357 . S
C402 H370 0.928 . S
C402 C400 1.406 . S
C402 N403 1.261 . S
N403 Co354 2.214 . S
N403 C401 1.325 . S
N403 C402 1.261 . S
C404 H374 0.931 . S
C404 C401 1.357 . S
C404 C405 1.312 . S
C405 H376 0.930 . S
C405 C400 1.261 . S
C405 C404 1.312 . S
C406 O378 1.214 . S
C406 O386 1.234 . S
C407 H379 0.929 . S
C407 C410 1.391 . S
C407 C412 1.391 . S
C408 H380 0.929 . S
C408 C409 1.390 . S
C408 N411 1.391 . S
C409 H381 0.930 . S
C409 C408 1.390 . S
C409 C410 1.392 . S
C410 H382 0.929 . S
C410 C407 1.391 . S
C410 C409 1.392 . S
N411 Co355 2.257 . S
N411 C408 1.391 . S
N411 C412 1.388 . S
C412 H383 0.930 . S
C412 C407 1.391 . S
C412 N411 1.388 . S
Co413 O415 2.143 . S
Co413 O421 2.074 . S
Co413 O424 2.093 . S
Co413 O437 2.097 . S
Co413 N454 2.151 . S
Co413 N462 2.214 . S
Co414 O415 2.160 . S
Co414 O420 2.058 . S
Co414 O430 2.057 . S
Co414 O445 2.037 . S
Co414 N449 2.145 . S
Co414 N470 2.257 . S
O415 Co413 2.143 . S
O415 Co414 2.160 . S
C416 O417 1.278 . S
C416 O424 1.224 . S
O417 C416 1.278 . S
C418 O419 1.245 . S
C418 O430 1.232 . S
O419 C418 1.245 . S
O420 Co414 2.058 . S
O420 C446 1.269 . S
O421 Co413 2.074 . S
O421 C446 1.257 . S
H422 C447 0.930 . S
H423 C453 0.930 . S
O424 Co413 2.093 . S
O424 C416 1.224 . S
H425 C457 0.929 . S
H426 C459 0.930 . S
H427 C460 0.930 . S
H428 C458 0.929 . S
H429 C461 0.928 . S
O430 Co414 2.057 . S
O430 C418 1.232 . S
H431 C450 0.929 . S
H432 C451 0.929 . S
H433 C463 0.931 . S
H434 C455 0.929 . S
H435 C464 0.930 . S
H436 C456 0.931 . S
O437 Co413 2.097 . S
O437 C465 1.214 . S
H438 C466 0.929 . S
H439 C467 0.929 . S
H440 C468 0.930 . S
H441 C469 0.929 . S
H442 C471 0.930 . S
H443 C448 0.930 . S
H444 C452 0.930 . S
O445 Co414 2.037 . S
O445 C465 1.234 . S
C446 O420 1.269 . S
C446 O421 1.257 . S
C447 H422 0.930 . S
C447 C450 1.388 . S
C447 C452 1.418 . S
C448 H443 0.930 . S
C448 C451 1.404 . S
C448 C452 1.353 . S
N449 Co414 2.145 . S
N449 C450 1.397 . S
N449 C451 1.334 . S
C450 H431 0.929 . S
C450 C447 1.388 . S
C450 N449 1.397 . S
C451 H432 0.929 . S
C451 C448 1.404 . S
C451 N449 1.334 . S
C452 H444 0.930 . S
C452 C447 1.418 . S
C452 C448 1.353 . S
C453 H423 0.930 . S
C453 N454 1.330 . S
C453 C455 1.446 . S
N454 Co413 2.151 . S
N454 C453 1.330 . S
N454 C458 1.418 . S
C455 H434 0.929 . S
C455 C453 1.446 . S
C455 C456 1.332 . S
C456 H436 0.931 . S
C456 C455 1.332 . S
C456 C457 1.267 . S
C457 H425 0.929 . S
C457 C456 1.267 . S
C457 C458 1.251 . S
C458 H428 0.929 . S
C458 N454 1.418 . S
C458 C457 1.251 . S
C459 H426 0.930 . S
C459 C461 1.406 . S
C459 C464 1.261 . S
C460 H427 0.930 . S
C460 N462 1.325 . S
C460 C463 1.357 . S
C461 H429 0.928 . S
C461 C459 1.406 . S
C461 N462 1.261 . S
N462 Co413 2.214 . S
N462 C460 1.325 . S
N462 C461 1.261 . S
C463 H433 0.931 . S
C463 C460 1.357 . S
C463 C464 1.312 . S
C464 H435 0.930 . S
C464 C459 1.261 . S
C464 C463 1.312 . S
C465 O437 1.214 . S
C465 O445 1.234 . S
C466 H438 0.929 . S
C466 C469 1.391 . S
C466 C471 1.391 . S
C467 H439 0.929 . S
C467 C468 1.390 . S
C467 N470 1.391 . S
C468 H440 0.930 . S
C468 C467 1.390 . S
C468 C469 1.392 . S
C469 H441 0.929 . S
C469 C466 1.391 . S
C469 C468 1.392 . S
N470 Co414 2.257 . S
N470 C467 1.391 . S
N470 C471 1.388 . S
C471 H442 0.930 . S
C471 C466 1.391 . S
C471 N470 1.388 . S
Co472 O474 2.143 . S
Co472 O480 2.074 . S
Co472 O483 2.093 . S
Co472 O496 2.097 . S
Co472 N513 2.151 . S
Co472 N521 2.214 . S
Co473 O474 2.160 . S
Co473 O479 2.058 . S
Co473 O489 2.057 . S
Co473 O504 2.037 . S
Co473 N508 2.145 . S
Co473 N529 2.257 . S
O474 Co472 2.143 . S
O474 Co473 2.160 . S
C475 O476 1.278 . S
C475 O483 1.224 . S
O476 C475 1.278 . S
C477 O478 1.245 . S
C477 O489 1.232 . S
O478 C477 1.245 . S
O479 Co473 2.058 . S
O479 C505 1.269 . S
O480 Co472 2.074 . S
O480 C505 1.257 . S
H481 C506 0.930 . S
H482 C512 0.930 . S
O483 Co472 2.093 . S
O483 C475 1.224 . S
H484 C516 0.929 . S
H485 C518 0.930 . S
H486 C519 0.930 . S
H487 C517 0.929 . S
H488 C520 0.928 . S
O489 Co473 2.057 . S
O489 C477 1.232 . S
H490 C509 0.929 . S
H491 C510 0.929 . S
H492 C522 0.931 . S
H493 C514 0.929 . S
H494 C523 0.930 . S
H495 C515 0.931 . S
O496 Co472 2.097 . S
O496 C524 1.214 . S
H497 C525 0.929 . S
H498 C526 0.929 . S
H499 C527 0.930 1_545 S
H500 C528 0.929 1_545 S
H501 C530 0.930 . S
H502 C507 0.930 . S
H503 C511 0.930 . S
O504 Co473 2.037 . S
O504 C524 1.234 . S
C505 O479 1.269 . S
C505 O480 1.257 . S
C506 H481 0.930 . S
C506 C509 1.388 . S
C506 C511 1.418 . S
C507 H502 0.930 . S
C507 C510 1.404 . S
C507 C511 1.353 . S
N508 Co473 2.145 . S
N508 C509 1.397 . S
N508 C510 1.334 . S
C509 H490 0.929 . S
C509 C506 1.388 . S
C509 N508 1.397 . S
C510 H491 0.929 . S
C510 C507 1.404 . S
C510 N508 1.334 . S
C511 H503 0.930 . S
C511 C506 1.418 . S
C511 C507 1.353 . S
C512 H482 0.930 . S
C512 N513 1.330 . S
C512 C514 1.446 . S
N513 Co472 2.151 . S
N513 C512 1.330 . S
N513 C517 1.418 . S
C514 H493 0.929 . S
C514 C512 1.446 . S
C514 C515 1.332 . S
C515 H495 0.931 . S
C515 C514 1.332 . S
C515 C516 1.267 . S
C516 H484 0.929 . S
C516 C515 1.267 . S
C516 C517 1.251 . S
C517 H487 0.929 . S
C517 N513 1.418 . S
C517 C516 1.251 . S
C518 H485 0.930 . S
C518 C520 1.406 . S
C518 C523 1.261 . S
C519 H486 0.930 . S
C519 N521 1.325 . S
C519 C522 1.357 . S
C520 H488 0.928 . S
C520 C518 1.406 . S
C520 N521 1.261 . S
N521 Co472 2.214 . S
N521 C519 1.325 . S
N521 C520 1.261 . S
C522 H492 0.931 . S
C522 C519 1.357 . S
C522 C523 1.312 . S
C523 H494 0.930 . S
C523 C518 1.261 . S
C523 C522 1.312 . S
C524 O496 1.214 . S
C524 O504 1.234 . S
C525 H497 0.929 . S
C525 C528 1.391 . S
C525 C530 1.391 . S
C526 H498 0.929 . S
C526 C527 1.390 . S
C526 N529 1.391 . S
C527 H499 0.930 1_565 S
C527 C526 1.390 . S
C527 C528 1.392 . S
C528 H500 0.929 1_565 S
C528 C525 1.391 . S
C528 C527 1.392 . S
N529 Co473 2.257 . S
N529 C526 1.391 . S
N529 C530 1.388 . S
C530 H501 0.930 . S
C530 C525 1.391 . S
C530 N529 1.388 . S
Co531 O533 2.143 . S
Co531 O539 2.074 . S
Co531 O542 2.093 . S
Co531 O555 2.097 . S
Co531 N572 2.151 . S
Co531 N580 2.214 . S
Co532 O533 2.160 . S
Co532 O538 2.058 . S
Co532 O548 2.057 . S
Co532 O563 2.037 . S
Co532 N567 2.145 . S
Co532 N588 2.257 . S
O533 Co531 2.143 . S
O533 Co532 2.160 . S
C534 O535 1.278 . S
C534 O542 1.224 . S
O535 C534 1.278 . S
C536 O537 1.245 . S
C536 O548 1.232 . S
O537 C536 1.245 . S
O538 Co532 2.058 . S
O538 C564 1.269 . S
O539 Co531 2.074 . S
O539 C564 1.257 . S
H540 C565 0.930 . S
H541 C571 0.930 . S
O542 Co531 2.093 . S
O542 C534 1.224 . S
H543 C575 0.929 . S
H544 C577 0.930 . S
H545 C578 0.930 . S
H546 C576 0.929 . S
H547 C579 0.928 . S
O548 Co532 2.057 . S
O548 C536 1.232 . S
H549 C568 0.929 . S
H550 C569 0.929 . S
H551 C581 0.931 . S
H552 C573 0.929 . S
H553 C582 0.930 . S
H554 C574 0.931 . S
O555 Co531 2.097 . S
O555 C583 1.214 . S
H556 C584 0.929 . S
H557 C585 0.929 . S
H558 C586 0.930 1_455 S
H559 C587 0.929 1_455 S
H560 C589 0.930 . S
H561 C566 0.930 . S
H562 C570 0.930 . S
O563 Co532 2.037 . S
O563 C583 1.234 . S
C564 O538 1.269 . S
C564 O539 1.257 . S
C565 H540 0.930 . S
C565 C568 1.388 . S
C565 C570 1.418 . S
C566 H561 0.930 . S
C566 C569 1.404 . S
C566 C570 1.353 . S
N567 Co532 2.145 . S
N567 C568 1.397 . S
N567 C569 1.334 . S
C568 H549 0.929 . S
C568 C565 1.388 . S
C568 N567 1.397 . S
C569 H550 0.929 . S
C569 C566 1.404 . S
C569 N567 1.334 . S
C570 H562 0.930 . S
C570 C565 1.418 . S
C570 C566 1.353 . S
C571 H541 0.930 . S
C571 N572 1.330 . S
C571 C573 1.446 . S
N572 Co531 2.151 . S
N572 C571 1.330 . S
N572 C576 1.418 . S
C573 H552 0.929 . S
C573 C571 1.446 . S
C573 C574 1.332 . S
C574 H554 0.931 . S
C574 C573 1.332 . S
C574 C575 1.267 . S
C575 H543 0.929 . S
C575 C574 1.267 . S
C575 C576 1.251 . S
C576 H546 0.929 . S
C576 N572 1.418 . S
C576 C575 1.251 . S
C577 H544 0.930 . S
C577 C579 1.406 . S
C577 C582 1.261 . S
C578 H545 0.930 . S
C578 N580 1.325 . S
C578 C581 1.357 . S
C579 H547 0.928 . S
C579 C577 1.406 . S
C579 N580 1.261 . S
N580 Co531 2.214 . S
N580 C578 1.325 . S
N580 C579 1.261 . S
C581 H551 0.931 . S
C581 C578 1.357 . S
C581 C582 1.312 . S
C582 H553 0.930 . S
C582 C577 1.261 . S
C582 C581 1.312 . S
C583 O555 1.214 . S
C583 O563 1.234 . S
C584 H556 0.929 . S
C584 C587 1.391 . S
C584 C589 1.391 . S
C585 H557 0.929 . S
C585 C586 1.390 . S
C585 N588 1.391 . S
C586 H558 0.930 1_655 S
C586 C585 1.390 . S
C586 C587 1.392 . S
C587 H559 0.929 1_655 S
C587 C584 1.391 . S
C587 C586 1.392 . S
N588 Co532 2.257 . S
N588 C585 1.391 . S
N588 C589 1.388 . S
C589 H560 0.930 . S
C589 C584 1.391 . S
C589 N588 1.388 . S
Co590 O592 2.143 . S
Co590 O598 2.074 . S
Co590 O601 2.093 . S
Co590 O614 2.097 . S
Co590 N631 2.151 . S
Co590 N639 2.214 . S
Co591 O592 2.160 . S
Co591 O597 2.058 . S
Co591 O607 2.057 . S
Co591 O622 2.037 . S
Co591 N626 2.145 . S
Co591 N647 2.257 . S
O592 Co590 2.143 . S
O592 Co591 2.160 . S
C593 O594 1.278 . S
C593 O601 1.224 . S
O594 C593 1.278 . S
C595 O596 1.245 . S
C595 O607 1.232 . S
O596 C595 1.245 . S
O597 Co591 2.058 . S
O597 C623 1.269 . S
O598 Co590 2.074 . S
O598 C623 1.257 . S
H599 C624 0.930 . S
H600 C630 0.930 . S
O601 Co590 2.093 . S
O601 C593 1.224 . S
H602 C634 0.929 . S
H603 C636 0.930 . S
H604 C637 0.930 . S
H605 C635 0.929 . S
H606 C638 0.928 . S
O607 Co591 2.057 . S
O607 C595 1.232 . S
H608 C627 0.929 . S
H609 C628 0.929 . S
H610 C640 0.931 . S
H611 C632 0.929 . S
H612 C641 0.930 . S
H613 C633 0.931 . S
O614 Co590 2.097 . S
O614 C642 1.214 . S
H615 C643 0.929 . S
H616 C644 0.929 . S
H617 C645 0.930 1_565 S
H618 C646 0.929 1_565 S
H619 C648 0.930 . S
H620 C625 0.930 . S
H621 C629 0.930 . S
O622 Co591 2.037 . S
O622 C642 1.234 . S
C623 O597 1.269 . S
C623 O598 1.257 . S
C624 H599 0.930 . S
C624 C627 1.388 . S
C624 C629 1.418 . S
C625 H620 0.930 . S
C625 C628 1.404 . S
C625 C629 1.353 . S
N626 Co591 2.145 . S
N626 C627 1.397 . S
N626 C628 1.334 . S
C627 H608 0.929 . S
C627 C624 1.388 . S
C627 N626 1.397 . S
C628 H609 0.929 . S
C628 C625 1.404 . S
C628 N626 1.334 . S
C629 H621 0.930 . S
C629 C624 1.418 . S
C629 C625 1.353 . S
C630 H600 0.930 . S
C630 N631 1.330 . S
C630 C632 1.446 . S
N631 Co590 2.151 . S
N631 C630 1.330 . S
N631 C635 1.418 . S
C632 H611 0.929 . S
C632 C630 1.446 . S
C632 C633 1.332 . S
C633 H613 0.931 . S
C633 C632 1.332 . S
C633 C634 1.267 . S
C634 H602 0.929 . S
C634 C633 1.267 . S
C634 C635 1.251 . S
C635 H605 0.929 . S
C635 N631 1.418 . S
C635 C634 1.251 . S
C636 H603 0.930 . S
C636 C638 1.406 . S
C636 C641 1.261 . S
C637 H604 0.930 . S
C637 N639 1.325 . S
C637 C640 1.357 . S
C638 H606 0.928 . S
C638 C636 1.406 . S
C638 N639 1.261 . S
N639 Co590 2.214 . S
N639 C637 1.325 . S
N639 C638 1.261 . S
C640 H610 0.931 . S
C640 C637 1.357 . S
C640 C641 1.312 . S
C641 H612 0.930 . S
C641 C636 1.261 . S
C641 C640 1.312 . S
C642 O614 1.214 . S
C642 O622 1.234 . S
C643 H615 0.929 . S
C643 C646 1.391 . S
C643 C648 1.391 . S
C644 H616 0.929 . S
C644 C645 1.390 . S
C644 N647 1.391 . S
C645 H617 0.930 1_545 S
C645 C644 1.390 . S
C645 C646 1.392 . S
C646 H618 0.929 1_545 S
C646 C643 1.391 . S
C646 C645 1.392 . S
N647 Co591 2.257 . S
N647 C644 1.391 . S
N647 C648 1.388 . S
C648 H619 0.930 . S
C648 C643 1.391 . S
C648 N647 1.388 . S
Co649 O651 2.143 . S
Co649 O657 2.074 . S
Co649 O660 2.093 . S
Co649 O673 2.097 . S
Co649 N690 2.151 . S
Co649 N698 2.214 . S
Co650 O651 2.160 . S
Co650 O656 2.058 . S
Co650 O666 2.057 . S
Co650 O681 2.037 . S
Co650 N685 2.145 . S
Co650 N706 2.257 . S
O651 Co649 2.143 . S
O651 Co650 2.160 . S
C652 O653 1.278 . S
C652 O660 1.224 . S
O653 C652 1.278 . S
C654 O655 1.245 . S
C654 O666 1.232 . S
O655 C654 1.245 . S
O656 Co650 2.058 . S
O656 C682 1.269 . S
O657 Co649 2.074 . S
O657 C682 1.257 . S
H658 C683 0.930 . S
H659 C689 0.930 . S
O660 Co649 2.093 . S
O660 C652 1.224 . S
H661 C693 0.929 . S
H662 C695 0.930 . S
H663 C696 0.930 . S
H664 C694 0.929 . S
H665 C697 0.928 . S
O666 Co650 2.057 . S
O666 C654 1.232 . S
H667 C686 0.929 . S
H668 C687 0.929 . S
H669 C699 0.931 . S
H670 C691 0.929 . S
H671 C700 0.930 . S
H672 C692 0.931 . S
O673 Co649 2.097 . S
O673 C701 1.214 . S
H674 C702 0.929 . S
H675 C703 0.929 . S
H676 C704 0.930 1_655 S
H677 C705 0.929 1_655 S
H678 C707 0.930 . S
H679 C684 0.930 . S
H680 C688 0.930 . S
O681 Co650 2.037 . S
O681 C701 1.234 . S
C682 O656 1.269 . S
C682 O657 1.257 . S
C683 H658 0.930 . S
C683 C686 1.388 . S
C683 C688 1.418 . S
C684 H679 0.930 . S
C684 C687 1.404 . S
C684 C688 1.353 . S
N685 Co650 2.145 . S
N685 C686 1.397 . S
N685 C687 1.334 . S
C686 H667 0.929 . S
C686 C683 1.388 . S
C686 N685 1.397 . S
C687 H668 0.929 . S
C687 C684 1.404 . S
C687 N685 1.334 . S
C688 H680 0.930 . S
C688 C683 1.418 . S
C688 C684 1.353 . S
C689 H659 0.930 . S
C689 N690 1.330 . S
C689 C691 1.446 . S
N690 Co649 2.151 . S
N690 C689 1.330 . S
N690 C694 1.418 . S
C691 H670 0.929 . S
C691 C689 1.446 . S
C691 C692 1.332 . S
C692 H672 0.931 . S
C692 C691 1.332 . S
C692 C693 1.267 . S
C693 H661 0.929 . S
C693 C692 1.267 . S
C693 C694 1.251 . S
C694 H664 0.929 . S
C694 N690 1.418 . S
C694 C693 1.251 . S
C695 H662 0.930 . S
C695 C697 1.406 . S
C695 C700 1.261 . S
C696 H663 0.930 . S
C696 N698 1.325 . S
C696 C699 1.357 . S
C697 H665 0.928 . S
C697 C695 1.406 . S
C697 N698 1.261 . S
N698 Co649 2.214 . S
N698 C696 1.325 . S
N698 C697 1.261 . S
C699 H669 0.931 . S
C699 C696 1.357 . S
C699 C700 1.312 . S
C700 H671 0.930 . S
C700 C695 1.261 . S
C700 C699 1.312 . S
C701 O673 1.214 . S
C701 O681 1.234 . S
C702 H674 0.929 . S
C702 C705 1.391 . S
C702 C707 1.391 . S
C703 H675 0.929 . S
C703 C704 1.390 . S
C703 N706 1.391 . S
C704 H676 0.930 1_455 S
C704 C703 1.390 . S
C704 C705 1.392 . S
C705 H677 0.929 1_455 S
C705 C702 1.391 . S
C705 C704 1.392 . S
N706 Co650 2.257 . S
N706 C703 1.391 . S
N706 C707 1.388 . S
C707 H678 0.930 . S
C707 C702 1.391 . S
C707 N706 1.388 . S
Co708 O710 2.143 . S
Co708 O716 2.074 . S
Co708 O719 2.093 . S
Co708 O732 2.097 . S
Co708 N749 2.151 . S
Co708 N757 2.214 . S
Co709 O710 2.160 . S
Co709 O715 2.058 . S
Co709 O725 2.057 . S
Co709 O740 2.037 . S
Co709 N744 2.145 . S
Co709 N765 2.257 . S
O710 Co708 2.143 . S
O710 Co709 2.160 . S
C711 O712 1.278 . S
C711 O719 1.224 . S
O712 C711 1.278 . S
C713 O714 1.245 . S
C713 O725 1.232 . S
O714 C713 1.245 . S
O715 Co709 2.058 . S
O715 C741 1.269 . S
O716 Co708 2.074 . S
O716 C741 1.257 . S
H717 C742 0.930 . S
H718 C748 0.930 . S
O719 Co708 2.093 . S
O719 C711 1.224 . S
H720 C752 0.929 . S
H721 C754 0.930 . S
H722 C755 0.930 . S
H723 C753 0.929 . S
H724 C756 0.928 . S
O725 Co709 2.057 . S
O725 C713 1.232 . S
H726 C745 0.929 . S
H727 C746 0.929 . S
H728 C758 0.931 . S
H729 C750 0.929 . S
H730 C759 0.930 . S
H731 C751 0.931 . S
O732 Co708 2.097 . S
O732 C760 1.214 . S
H733 C761 0.929 . S
H734 C762 0.929 . S
H735 C763 0.930 1_565 S
H736 C764 0.929 1_565 S
H737 C766 0.930 . S
H738 C743 0.930 . S
H739 C747 0.930 . S
O740 Co709 2.037 . S
O740 C760 1.234 . S
C741 O715 1.269 . S
C741 O716 1.257 . S
C742 H717 0.930 . S
C742 C745 1.388 . S
C742 C747 1.418 . S
C743 H738 0.930 . S
C743 C746 1.404 . S
C743 C747 1.353 . S
N744 Co709 2.145 . S
N744 C745 1.397 . S
N744 C746 1.334 . S
C745 H726 0.929 . S
C745 C742 1.388 . S
C745 N744 1.397 . S
C746 H727 0.929 . S
C746 C743 1.404 . S
C746 N744 1.334 . S
C747 H739 0.930 . S
C747 C742 1.418 . S
C747 C743 1.353 . S
C748 H718 0.930 . S
C748 N749 1.330 . S
C748 C750 1.446 . S
N749 Co708 2.151 . S
N749 C748 1.330 . S
N749 C753 1.418 . S
C750 H729 0.929 . S
C750 C748 1.446 . S
C750 C751 1.332 . S
C751 H731 0.931 . S
C751 C750 1.332 . S
C751 C752 1.267 . S
C752 H720 0.929 . S
C752 C751 1.267 . S
C752 C753 1.251 . S
C753 H723 0.929 . S
C753 N749 1.418 . S
C753 C752 1.251 . S
C754 H721 0.930 . S
C754 C756 1.406 . S
C754 C759 1.261 . S
C755 H722 0.930 . S
C755 N757 1.325 . S
C755 C758 1.357 . S
C756 H724 0.928 . S
C756 C754 1.406 . S
C756 N757 1.261 . S
N757 Co708 2.214 . S
N757 C755 1.325 . S
N757 C756 1.261 . S
C758 H728 0.931 . S
C758 C755 1.357 . S
C758 C759 1.312 . S
C759 H730 0.930 . S
C759 C754 1.261 . S
C759 C758 1.312 . S
C760 O732 1.214 . S
C760 O740 1.234 . S
C761 H733 0.929 . S
C761 C764 1.391 . S
C761 C766 1.391 . S
C762 H734 0.929 . S
C762 C763 1.390 . S
C762 N765 1.391 . S
C763 H735 0.930 1_545 S
C763 C762 1.390 . S
C763 C764 1.392 . S
C764 H736 0.929 1_545 S
C764 C761 1.391 . S
C764 C763 1.392 . S
N765 Co709 2.257 . S
N765 C762 1.391 . S
N765 C766 1.388 . S
C766 H737 0.930 . S
C766 C761 1.391 . S
C766 N765 1.388 . S
Co767 O769 2.143 . S
Co767 O775 2.074 . S
Co767 O778 2.093 . S
Co767 O791 2.097 . S
Co767 N808 2.151 . S
Co767 N816 2.214 . S
Co768 O769 2.160 . S
Co768 O774 2.058 . S
Co768 O784 2.057 . S
Co768 O799 2.037 . S
Co768 N803 2.145 . S
Co768 N824 2.257 . S
O769 Co767 2.143 . S
O769 Co768 2.160 . S
C770 O771 1.278 . S
C770 O778 1.224 . S
O771 C770 1.278 . S
C772 O773 1.245 . S
C772 O784 1.232 . S
O773 C772 1.245 . S
O774 Co768 2.058 . S
O774 C800 1.269 . S
O775 Co767 2.074 . S
O775 C800 1.257 . S
H776 C801 0.930 . S
H777 C807 0.930 . S
O778 Co767 2.093 . S
O778 C770 1.224 . S
H779 C811 0.929 . S
H780 C813 0.930 . S
H781 C814 0.930 . S
H782 C812 0.929 . S
H783 C815 0.928 . S
O784 Co768 2.057 . S
O784 C772 1.232 . S
H785 C804 0.929 . S
H786 C805 0.929 . S
H787 C817 0.931 . S
H788 C809 0.929 . S
H789 C818 0.930 . S
H790 C810 0.931 . S
O791 Co767 2.097 . S
O791 C819 1.214 . S
H792 C820 0.929 . S
H793 C821 0.929 . S
H794 C822 0.930 1_655 S
H795 C823 0.929 1_655 S
H796 C825 0.930 . S
H797 C802 0.930 . S
H798 C806 0.930 . S
O799 Co768 2.037 . S
O799 C819 1.234 . S
C800 O774 1.269 . S
C800 O775 1.257 . S
C801 H776 0.930 . S
C801 C804 1.388 . S
C801 C806 1.418 . S
C802 H797 0.930 . S
C802 C805 1.404 . S
C802 C806 1.353 . S
N803 Co768 2.145 . S
N803 C804 1.397 . S
N803 C805 1.334 . S
C804 H785 0.929 . S
C804 C801 1.388 . S
C804 N803 1.397 . S
C805 H786 0.929 . S
C805 C802 1.404 . S
C805 N803 1.334 . S
C806 H798 0.930 . S
C806 C801 1.418 . S
C806 C802 1.353 . S
C807 H777 0.930 . S
C807 N808 1.330 . S
C807 C809 1.446 . S
N808 Co767 2.151 . S
N808 C807 1.330 . S
N808 C812 1.418 . S
C809 H788 0.929 . S
C809 C807 1.446 . S
C809 C810 1.332 . S
C810 H790 0.931 . S
C810 C809 1.332 . S
C810 C811 1.267 . S
C811 H779 0.929 . S
C811 C810 1.267 . S
C811 C812 1.251 . S
C812 H782 0.929 . S
C812 N808 1.418 . S
C812 C811 1.251 . S
C813 H780 0.930 . S
C813 C815 1.406 . S
C813 C818 1.261 . S
C814 H781 0.930 . S
C814 N816 1.325 . S
C814 C817 1.357 . S
C815 H783 0.928 . S
C815 C813 1.406 . S
C815 N816 1.261 . S
N816 Co767 2.214 . S
N816 C814 1.325 . S
N816 C815 1.261 . S
C817 H787 0.931 . S
C817 C814 1.357 . S
C817 C818 1.312 . S
C818 H789 0.930 . S
C818 C813 1.261 . S
C818 C817 1.312 . S
C819 O791 1.214 . S
C819 O799 1.234 . S
C820 H792 0.929 . S
C820 C823 1.391 . S
C820 C825 1.391 . S
C821 H793 0.929 . S
C821 C822 1.390 . S
C821 N824 1.391 . S
C822 H794 0.930 1_455 S
C822 C821 1.390 . S
C822 C823 1.392 . S
C823 H795 0.929 1_455 S
C823 C820 1.391 . S
C823 C822 1.392 . S
N824 Co768 2.257 . S
N824 C821 1.391 . S
N824 C825 1.388 . S
C825 H796 0.930 . S
C825 C820 1.391 . S
C825 N824 1.388 . S
Co826 O828 2.143 . S
Co826 O834 2.074 . S
Co826 O837 2.093 . S
Co826 O850 2.097 . S
Co826 N867 2.151 . S
Co826 N875 2.214 . S
Co827 O828 2.160 . S
Co827 O833 2.058 . S
Co827 O843 2.057 . S
Co827 O858 2.037 . S
Co827 N862 2.145 . S
Co827 N883 2.257 . S
O828 Co826 2.143 . S
O828 Co827 2.160 . S
C829 O830 1.278 . S
C829 O837 1.224 . S
O830 C829 1.278 . S
C831 O832 1.245 . S
C831 O843 1.232 . S
O832 C831 1.245 . S
O833 Co827 2.058 . S
O833 C859 1.269 . S
O834 Co826 2.074 . S
O834 C859 1.257 . S
H835 C860 0.930 . S
H836 C866 0.930 . S
O837 Co826 2.093 . S
O837 C829 1.224 . S
H838 C870 0.929 . S
H839 C872 0.930 . S
H840 C873 0.930 . S
H841 C871 0.929 . S
H842 C874 0.928 . S
O843 Co827 2.057 . S
O843 C831 1.232 . S
H844 C863 0.929 . S
H845 C864 0.929 . S
H846 C876 0.931 . S
H847 C868 0.929 . S
H848 C877 0.930 . S
H849 C869 0.931 . S
O850 Co826 2.097 . S
O850 C878 1.214 . S
H851 C879 0.929 . S
H852 C880 0.929 . S
H853 C881 0.930 1_545 S
H854 C882 0.929 1_545 S
H855 C884 0.930 . S
H856 C861 0.930 . S
H857 C865 0.930 . S
O858 Co827 2.037 . S
O858 C878 1.234 . S
C859 O833 1.269 . S
C859 O834 1.257 . S
C860 H835 0.930 . S
C860 C863 1.388 . S
C860 C865 1.418 . S
C861 H856 0.930 . S
C861 C864 1.404 . S
C861 C865 1.353 . S
N862 Co827 2.145 . S
N862 C863 1.397 . S
N862 C864 1.334 . S
C863 H844 0.929 . S
C863 C860 1.388 . S
C863 N862 1.397 . S
C864 H845 0.929 . S
C864 C861 1.404 . S
C864 N862 1.334 . S
C865 H857 0.930 . S
C865 C860 1.418 . S
C865 C861 1.353 . S
C866 H836 0.930 . S
C866 N867 1.330 . S
C866 C868 1.446 . S
N867 Co826 2.151 . S
N867 C866 1.330 . S
N867 C871 1.418 . S
C868 H847 0.929 . S
C868 C866 1.446 . S
C868 C869 1.332 . S
C869 H849 0.931 . S
C869 C868 1.332 . S
C869 C870 1.267 . S
C870 H838 0.929 . S
C870 C869 1.267 . S
C870 C871 1.251 . S
C871 H841 0.929 . S
C871 N867 1.418 . S
C871 C870 1.251 . S
C872 H839 0.930 . S
C872 C874 1.406 . S
C872 C877 1.261 . S
C873 H840 0.930 . S
C873 N875 1.325 . S
C873 C876 1.357 . S
C874 H842 0.928 . S
C874 C872 1.406 . S
C874 N875 1.261 . S
N875 Co826 2.214 . S
N875 C873 1.325 . S
N875 C874 1.261 . S
C876 H846 0.931 . S
C876 C873 1.357 . S
C876 C877 1.312 . S
C877 H848 0.930 . S
C877 C872 1.261 . S
C877 C876 1.312 . S
C878 O850 1.214 . S
C878 O858 1.234 . S
C879 H851 0.929 . S
C879 C882 1.391 . S
C879 C884 1.391 . S
C880 H852 0.929 . S
C880 C881 1.390 . S
C880 N883 1.391 . S
C881 H853 0.930 1_565 S
C881 C880 1.390 . S
C881 C882 1.392 . S
C882 H854 0.929 1_565 S
C882 C879 1.391 . S
C882 C881 1.392 . S
N883 Co827 2.257 . S
N883 C880 1.391 . S
N883 C884 1.388 . S
C884 H855 0.930 . S
C884 C879 1.391 . S
C884 N883 1.388 . S
Co885 O887 2.143 . S
Co885 O893 2.074 . S
Co885 O896 2.093 . S
Co885 O909 2.097 . S
Co885 N926 2.151 . S
Co885 N934 2.214 . S
Co886 O887 2.160 . S
Co886 O892 2.058 . S
Co886 O902 2.057 . S
Co886 O917 2.037 . S
Co886 N921 2.145 . S
Co886 N942 2.257 . S
O887 Co885 2.143 . S
O887 Co886 2.160 . S
C888 O889 1.278 . S
C888 O896 1.224 . S
O889 C888 1.278 . S
C890 O891 1.245 . S
C890 O902 1.232 . S
O891 C890 1.245 . S
O892 Co886 2.058 . S
O892 C918 1.269 . S
O893 Co885 2.074 . S
O893 C918 1.257 . S
H894 C919 0.930 . S
H895 C925 0.930 . S
O896 Co885 2.093 . S
O896 C888 1.224 . S
H897 C929 0.929 . S
H898 C931 0.930 . S
H899 C932 0.930 . S
H900 C930 0.929 . S
H901 C933 0.928 . S
O902 Co886 2.057 . S
O902 C890 1.232 . S
H903 C922 0.929 . S
H904 C923 0.929 . S
H905 C935 0.931 . S
H906 C927 0.929 . S
H907 C936 0.930 . S
H908 C928 0.931 . S
O909 Co885 2.097 . S
O909 C937 1.214 . S
H910 C938 0.929 . S
H911 C939 0.929 . S
H912 C940 0.930 1_455 S
H913 C941 0.929 1_455 S
H914 C943 0.930 . S
H915 C920 0.930 . S
H916 C924 0.930 . S
O917 Co886 2.037 . S
O917 C937 1.234 . S
C918 O892 1.269 . S
C918 O893 1.257 . S
C919 H894 0.930 . S
C919 C922 1.388 . S
C919 C924 1.418 . S
C920 H915 0.930 . S
C920 C923 1.404 . S
C920 C924 1.353 . S
N921 Co886 2.145 . S
N921 C922 1.397 . S
N921 C923 1.334 . S
C922 H903 0.929 . S
C922 C919 1.388 . S
C922 N921 1.397 . S
C923 H904 0.929 . S
C923 C920 1.404 . S
C923 N921 1.334 . S
C924 H916 0.930 . S
C924 C919 1.418 . S
C924 C920 1.353 . S
C925 H895 0.930 . S
C925 N926 1.330 . S
C925 C927 1.446 . S
N926 Co885 2.151 . S
N926 C925 1.330 . S
N926 C930 1.418 . S
C927 H906 0.929 . S
C927 C925 1.446 . S
C927 C928 1.332 . S
C928 H908 0.931 . S
C928 C927 1.332 . S
C928 C929 1.267 . S
C929 H897 0.929 . S
C929 C928 1.267 . S
C929 C930 1.251 . S
C930 H900 0.929 . S
C930 N926 1.418 . S
C930 C929 1.251 . S
C931 H898 0.930 . S
C931 C933 1.406 . S
C931 C936 1.261 . S
C932 H899 0.930 . S
C932 N934 1.325 . S
C932 C935 1.357 . S
C933 H901 0.928 . S
C933 C931 1.406 . S
C933 N934 1.261 . S
N934 Co885 2.214 . S
N934 C932 1.325 . S
N934 C933 1.261 . S
C935 H905 0.931 . S
C935 C932 1.357 . S
C935 C936 1.312 . S
C936 H907 0.930 . S
C936 C931 1.261 . S
C936 C935 1.312 . S
C937 O909 1.214 . S
C937 O917 1.234 . S
C938 H910 0.929 . S
C938 C941 1.391 . S
C938 C943 1.391 . S
C939 H911 0.929 . S
C939 C940 1.390 . S
C939 N942 1.391 . S
C940 H912 0.930 1_655 S
C940 C939 1.390 . S
C940 C941 1.392 . S
C941 H913 0.929 1_655 S
C941 C938 1.391 . S
C941 C940 1.392 . S
N942 Co886 2.257 . S
N942 C939 1.391 . S
N942 C943 1.388 . S
C943 H914 0.930 . S
C943 C938 1.391 . S
C943 N942 1.388 . S
H944 C952 0.929 . S
H945 C954 0.930 . S
H946 C956 0.930 . S
H947 C959 0.929 . S
H948 C962 0.930 . S
H949 C964 0.960 . S
H950 C964 0.960 . S
H951 C964 0.960 . S
C952 H944 0.929 . S
C952 C953 1.377 . S
C952 C954 1.384 . S
C953 C952 1.377 . S
C953 C959 1.390 . S
C954 H945 0.930 . S
C954 C952 1.384 . S
C954 C955 1.372 . S
C955 C954 1.372 . S
C955 C956 1.400 . S
C955 C960 1.490 . S
C956 H946 0.930 . S
C956 C955 1.400 . S
C956 C959 1.386 . S
H957 C973 0.930 . S
H958 C974 0.931 . S
C959 H947 0.929 . S
C959 C953 1.390 . S
C959 C956 1.386 . S
C960 C955 1.490 . S
C960 C962 1.395 . S
C960 C963 1.403 . S
H961 C967 0.930 . S
C962 H948 0.930 . S
C962 C960 1.395 . S
C962 C965 1.403 . S
C963 C960 1.403 . S
C963 C964 1.524 . S
C963 C967 1.400 . S
C964 H949 0.960 . S
C964 H950 0.960 . S
C964 H951 0.960 . S
C964 C963 1.524 . S
C965 C962 1.403 . S
C965 C966 1.392 . S
C965 C969 1.495 . S
C966 C965 1.392 . S
C966 C967 1.385 . S
C966 C968 1.478 . S
C967 H961 0.930 . S
C967 C963 1.400 . S
C967 C966 1.385 . S
C968 C966 1.478 . S
C968 C970 1.381 . S
C968 C974 1.383 . S
C969 C965 1.495 . S
C969 H975 0.959 . S
C969 H976 0.961 . S
C969 H977 0.960 . S
C970 C968 1.381 . S
C970 C971 1.394 . S
C970 H978 0.930 . S
C971 C970 1.394 . S
C971 C972 1.383 . S
C971 H979 0.929 . S
C972 C971 1.383 . S
C972 C973 1.377 . S
C973 H957 0.930 . S
C973 C972 1.377 . S
C973 C974 1.379 . S
C974 H958 0.931 . S
C974 C968 1.383 . S
C974 C973 1.379 . S
H975 C969 0.959 . S
H976 C969 0.961 . S
H977 C969 0.960 . S
H978 C970 0.930 . S
H979 C971 0.929 . S
H980 C988 0.929 . S
H981 C990 0.930 . S
H982 C992 0.930 . S
H983 C995 0.929 . S
H984 C998 0.930 . S
H985 C1000 0.960 . S
H986 C1000 0.960 . S
H987 C1000 0.960 . S
C988 H980 0.929 . S
C988 C989 1.377 . S
C988 C990 1.384 . S
C989 C988 1.377 . S
C989 C995 1.390 . S
C990 H981 0.930 . S
C990 C988 1.384 . S
C990 C991 1.372 . S
C991 C990 1.372 . S
C991 C992 1.400 . S
C991 C996 1.490 . S
C992 H982 0.930 . S
C992 C991 1.400 . S
C992 C995 1.386 . S
H993 C1009 0.930 . S
H994 C1010 0.931 . S
C995 H983 0.929 . S
C995 C989 1.390 . S
C995 C992 1.386 . S
C996 C991 1.490 . S
C996 C998 1.395 . S
C996 C999 1.403 . S
H997 C1003 0.930 . S
C998 H984 0.930 . S
C998 C996 1.395 . S
C998 C1001 1.403 . S
C999 C996 1.403 . S
C999 C1000 1.524 . S
C999 C1003 1.400 . S
C1000 H985 0.960 . S
C1000 H986 0.960 . S
C1000 H987 0.960 . S
C1000 C999 1.524 . S
C1001 C998 1.403 . S
C1001 C1002 1.392 . S
C1001 C1005 1.495 . S
C1002 C1001 1.392 . S
C1002 C1003 1.385 . S
C1002 C1004 1.478 . S
C1003 H997 0.930 . S
C1003 C999 1.400 . S
C1003 C1002 1.385 . S
C1004 C1002 1.478 . S
C1004 C1006 1.381 . S
C1004 C1010 1.383 . S
C1005 C1001 1.495 . S
C1005 H1011 0.959 . S
C1005 H1012 0.961 . S
C1005 H1013 0.960 . S
C1006 C1004 1.381 . S
C1006 C1007 1.394 . S
C1006 H1014 0.930 . S
C1007 C1006 1.394 . S
C1007 C1008 1.383 . S
C1007 H1015 0.929 . S
C1008 C1007 1.383 . S
C1008 C1009 1.377 . S
C1009 H993 0.930 . S
C1009 C1008 1.377 . S
C1009 C1010 1.379 . S
C1010 H994 0.931 . S
C1010 C1004 1.383 . S
C1010 C1009 1.379 . S
H1011 C1005 0.959 . S
H1012 C1005 0.961 . S
H1013 C1005 0.960 . S
H1014 C1006 0.930 . S
H1015 C1007 0.929 . S
H1016 C1024 0.929 . S
H1017 C1026 0.930 . S
H1018 C1028 0.930 . S
H1019 C1031 0.929 . S
H1020 C1034 0.930 . S
H1021 C1036 0.960 . S
H1022 C1036 0.960 . S
H1023 C1036 0.960 . S
C1024 H1016 0.929 . S
C1024 C1025 1.377 . S
C1024 C1026 1.384 . S
C1025 C1024 1.377 . S
C1025 C1031 1.390 . S
C1026 H1017 0.930 . S
C1026 C1024 1.384 . S
C1026 C1027 1.372 . S
C1027 C1026 1.372 . S
C1027 C1028 1.400 . S
C1027 C1032 1.490 . S
C1028 H1018 0.930 . S
C1028 C1027 1.400 . S
C1028 C1031 1.386 . S
H1029 C1045 0.930 . S
H1030 C1046 0.931 . S
C1031 H1019 0.929 . S
C1031 C1025 1.390 . S
C1031 C1028 1.386 . S
C1032 C1027 1.490 . S
C1032 C1034 1.395 . S
C1032 C1035 1.403 . S
H1033 C1039 0.930 . S
C1034 H1020 0.930 . S
C1034 C1032 1.395 . S
C1034 C1037 1.403 . S
C1035 C1032 1.403 . S
C1035 C1036 1.524 . S
C1035 C1039 1.400 . S
C1036 H1021 0.960 . S
C1036 H1022 0.960 . S
C1036 H1023 0.960 . S
C1036 C1035 1.524 . S
C1037 C1034 1.403 . S
C1037 C1038 1.392 . S
C1037 C1041 1.495 . S
C1038 C1037 1.392 . S
C1038 C1039 1.385 . S
C1038 C1040 1.478 . S
C1039 H1033 0.930 . S
C1039 C1035 1.400 . S
C1039 C1038 1.385 . S
C1040 C1038 1.478 . S
C1040 C1042 1.381 . S
C1040 C1046 1.383 . S
C1041 C1037 1.495 . S
C1041 H1047 0.959 . S
C1041 H1048 0.961 . S
C1041 H1049 0.960 . S
C1042 C1040 1.381 . S
C1042 C1043 1.394 . S
C1042 H1050 0.930 . S
C1043 C1042 1.394 . S
C1043 C1044 1.383 . S
C1043 H1051 0.929 . S
C1044 C1043 1.383 . S
C1044 C1045 1.377 . S
C1045 H1029 0.930 . S
C1045 C1044 1.377 . S
C1045 C1046 1.379 . S
C1046 H1030 0.931 . S
C1046 C1040 1.383 . S
C1046 C1045 1.379 . S
H1047 C1041 0.959 . S
H1048 C1041 0.961 . S
H1049 C1041 0.960 . S
H1050 C1042 0.930 . S
H1051 C1043 0.929 . S
H1052 C1060 0.929 . S
H1053 C1062 0.930 . S
H1054 C1064 0.930 . S
H1055 C1067 0.929 . S
H1056 C1070 0.930 . S
H1057 C1072 0.960 . S
H1058 C1072 0.960 . S
H1059 C1072 0.960 . S
C1060 H1052 0.929 . S
C1060 C1061 1.377 . S
C1060 C1062 1.384 . S
C1061 C1060 1.377 . S
C1061 C1067 1.390 . S
C1062 H1053 0.930 . S
C1062 C1060 1.384 . S
C1062 C1063 1.372 . S
C1063 C1062 1.372 . S
C1063 C1064 1.400 . S
C1063 C1068 1.490 . S
C1064 H1054 0.930 . S
C1064 C1063 1.400 . S
C1064 C1067 1.386 . S
H1065 C1081 0.930 . S
H1066 C1082 0.931 . S
C1067 H1055 0.929 . S
C1067 C1061 1.390 . S
C1067 C1064 1.386 . S
C1068 C1063 1.490 . S
C1068 C1070 1.395 . S
C1068 C1071 1.403 . S
H1069 C1075 0.930 . S
C1070 H1056 0.930 . S
C1070 C1068 1.395 . S
C1070 C1073 1.403 . S
C1071 C1068 1.403 . S
C1071 C1072 1.524 . S
C1071 C1075 1.400 . S
C1072 H1057 0.960 . S
C1072 H1058 0.960 . S
C1072 H1059 0.960 . S
C1072 C1071 1.524 . S
C1073 C1070 1.403 . S
C1073 C1074 1.392 . S
C1073 C1077 1.495 . S
C1074 C1073 1.392 . S
C1074 C1075 1.385 . S
C1074 C1076 1.478 . S
C1075 H1069 0.930 . S
C1075 C1071 1.400 . S
C1075 C1074 1.385 . S
C1076 C1074 1.478 . S
C1076 C1078 1.381 . S
C1076 C1082 1.383 . S
C1077 C1073 1.495 . S
C1077 H1083 0.959 . S
C1077 H1084 0.961 . S
C1077 H1085 0.960 . S
C1078 C1076 1.381 . S
C1078 C1079 1.394 . S
C1078 H1086 0.930 . S
C1079 C1078 1.394 . S
C1079 C1080 1.383 . S
C1079 H1087 0.929 . S
C1080 C1079 1.383 . S
C1080 C1081 1.377 . S
C1081 H1065 0.930 . S
C1081 C1080 1.377 . S
C1081 C1082 1.379 . S
C1082 H1066 0.931 . S
C1082 C1076 1.383 . S
C1082 C1081 1.379 . S
H1083 C1077 0.959 . S
H1084 C1077 0.961 . S
H1085 C1077 0.960 . S
H1086 C1078 0.930 . S
H1087 C1079 0.929 . S
H1088 C1096 0.929 . S
H1089 C1098 0.930 . S
H1090 C1100 0.930 . S
H1091 C1103 0.929 . S
H1092 C1106 0.930 . S
H1093 C1108 0.960 . S
H1094 C1108 0.960 . S
H1095 C1108 0.960 . S
C1096 H1088 0.929 . S
C1096 C1097 1.377 . S
C1096 C1098 1.384 . S
C1097 C1096 1.377 . S
C1097 C1103 1.390 . S
C1098 H1089 0.930 . S
C1098 C1096 1.384 . S
C1098 C1099 1.372 . S
C1099 C1098 1.372 . S
C1099 C1100 1.400 . S
C1099 C1104 1.490 . S
C1100 H1090 0.930 . S
C1100 C1099 1.400 . S
C1100 C1103 1.386 . S
H1101 C1117 0.930 . S
H1102 C1118 0.931 . S
C1103 H1091 0.929 . S
C1103 C1097 1.390 . S
C1103 C1100 1.386 . S
C1104 C1099 1.490 . S
C1104 C1106 1.395 . S
C1104 C1107 1.403 . S
H1105 C1111 0.930 . S
C1106 H1092 0.930 . S
C1106 C1104 1.395 . S
C1106 C1109 1.403 . S
C1107 C1104 1.403 . S
C1107 C1108 1.524 . S
C1107 C1111 1.400 . S
C1108 H1093 0.960 . S
C1108 H1094 0.960 . S
C1108 H1095 0.960 . S
C1108 C1107 1.524 . S
C1109 C1106 1.403 . S
C1109 C1110 1.392 . S
C1109 C1113 1.495 . S
C1110 C1109 1.392 . S
C1110 C1111 1.385 . S
C1110 C1112 1.478 . S
C1111 H1105 0.930 . S
C1111 C1107 1.400 . S
C1111 C1110 1.385 . S
C1112 C1110 1.478 . S
C1112 C1114 1.381 . S
C1112 C1118 1.383 . S
C1113 C1109 1.495 . S
C1113 H1119 0.959 . S
C1113 H1120 0.961 . S
C1113 H1121 0.960 . S
C1114 C1112 1.381 . S
C1114 C1115 1.394 . S
C1114 H1122 0.930 . S
C1115 C1114 1.394 . S
C1115 C1116 1.383 . S
C1115 H1123 0.929 . S
C1116 C1115 1.383 . S
C1116 C1117 1.377 . S
C1117 H1101 0.930 . S
C1117 C1116 1.377 . S
C1117 C1118 1.379 . S
C1118 H1102 0.931 . S
C1118 C1112 1.383 . S
C1118 C1117 1.379 . S
H1119 C1113 0.959 . S
H1120 C1113 0.961 . S
H1121 C1113 0.960 . S
H1122 C1114 0.930 . S
H1123 C1115 0.929 . S
H1124 C1132 0.929 . S
H1125 C1134 0.930 . S
H1126 C1136 0.930 . S
H1127 C1139 0.929 . S
H1128 C1142 0.930 . S
H1129 C1144 0.960 . S
H1130 C1144 0.960 . S
H1131 C1144 0.960 . S
C1132 H1124 0.929 . S
C1132 C1133 1.377 . S
C1132 C1134 1.384 . S
C1133 C1132 1.377 . S
C1133 C1139 1.390 . S
C1134 H1125 0.930 . S
C1134 C1132 1.384 . S
C1134 C1135 1.372 . S
C1135 C1134 1.372 . S
C1135 C1136 1.400 . S
C1135 C1140 1.490 . S
C1136 H1126 0.930 . S
C1136 C1135 1.400 . S
C1136 C1139 1.386 . S
H1137 C1153 0.930 . S
H1138 C1154 0.931 . S
C1139 H1127 0.929 . S
C1139 C1133 1.390 . S
C1139 C1136 1.386 . S
C1140 C1135 1.490 . S
C1140 C1142 1.395 . S
C1140 C1143 1.403 . S
H1141 C1147 0.930 . S
C1142 H1128 0.930 . S
C1142 C1140 1.395 . S
C1142 C1145 1.403 . S
C1143 C1140 1.403 . S
C1143 C1144 1.524 . S
C1143 C1147 1.400 . S
C1144 H1129 0.960 . S
C1144 H1130 0.960 . S
C1144 H1131 0.960 . S
C1144 C1143 1.524 . S
C1145 C1142 1.403 . S
C1145 C1146 1.392 . S
C1145 C1149 1.495 . S
C1146 C1145 1.392 . S
C1146 C1147 1.385 . S
C1146 C1148 1.478 . S
C1147 H1141 0.930 . S
C1147 C1143 1.400 . S
C1147 C1146 1.385 . S
C1148 C1146 1.478 . S
C1148 C1150 1.381 . S
C1148 C1154 1.383 . S
C1149 C1145 1.495 . S
C1149 H1155 0.959 . S
C1149 H1156 0.961 . S
C1149 H1157 0.960 . S
C1150 C1148 1.381 . S
C1150 C1151 1.394 . S
C1150 H1158 0.930 . S
C1151 C1150 1.394 . S
C1151 C1152 1.383 . S
C1151 H1159 0.929 . S
C1152 C1151 1.383 . S
C1152 C1153 1.377 . S
C1153 H1137 0.930 . S
C1153 C1152 1.377 . S
C1153 C1154 1.379 . S
C1154 H1138 0.931 . S
C1154 C1148 1.383 . S
C1154 C1153 1.379 . S
H1155 C1149 0.959 . S
H1156 C1149 0.961 . S
H1157 C1149 0.960 . S
H1158 C1150 0.930 . S
H1159 C1151 0.929 . S
H1160 C1168 0.929 . S
H1161 C1170 0.930 . S
H1162 C1172 0.930 . S
H1163 C1175 0.929 . S
H1164 C1178 0.930 . S
H1165 C1180 0.960 . S
H1166 C1180 0.960 . S
H1167 C1180 0.960 . S
C1168 H1160 0.929 . S
C1168 C1169 1.377 . S
C1168 C1170 1.384 . S
C1169 C1168 1.377 . S
C1169 C1175 1.390 . S
C1170 H1161 0.930 . S
C1170 C1168 1.384 . S
C1170 C1171 1.372 . S
C1171 C1170 1.372 . S
C1171 C1172 1.400 . S
C1171 C1176 1.490 . S
C1172 H1162 0.930 . S
C1172 C1171 1.400 . S
C1172 C1175 1.386 . S
H1173 C1189 0.930 . S
H1174 C1190 0.931 . S
C1175 H1163 0.929 . S
C1175 C1169 1.390 . S
C1175 C1172 1.386 . S
C1176 C1171 1.490 . S
C1176 C1178 1.395 . S
C1176 C1179 1.403 . S
H1177 C1183 0.930 . S
C1178 H1164 0.930 . S
C1178 C1176 1.395 . S
C1178 C1181 1.403 . S
C1179 C1176 1.403 . S
C1179 C1180 1.524 . S
C1179 C1183 1.400 . S
C1180 H1165 0.960 . S
C1180 H1166 0.960 . S
C1180 H1167 0.960 . S
C1180 C1179 1.524 . S
C1181 C1178 1.403 . S
C1181 C1182 1.392 . S
C1181 C1185 1.495 . S
C1182 C1181 1.392 . S
C1182 C1183 1.385 . S
C1182 C1184 1.478 . S
C1183 H1177 0.930 . S
C1183 C1179 1.400 . S
C1183 C1182 1.385 . S
C1184 C1182 1.478 . S
C1184 C1186 1.381 . S
C1184 C1190 1.383 . S
C1185 C1181 1.495 . S
C1185 H1191 0.959 . S
C1185 H1192 0.961 . S
C1185 H1193 0.960 . S
C1186 C1184 1.381 . S
C1186 C1187 1.394 . S
C1186 H1194 0.930 . S
C1187 C1186 1.394 . S
C1187 C1188 1.383 . S
C1187 H1195 0.929 . S
C1188 C1187 1.383 . S
C1188 C1189 1.377 . S
C1189 H1173 0.930 . S
C1189 C1188 1.377 . S
C1189 C1190 1.379 . S
C1190 H1174 0.931 . S
C1190 C1184 1.383 . S
C1190 C1189 1.379 . S
H1191 C1185 0.959 . S
H1192 C1185 0.961 . S
H1193 C1185 0.960 . S
H1194 C1186 0.930 . S
H1195 C1187 0.929 . S
H1196 C1204 0.929 . S
H1197 C1206 0.930 . S
H1198 C1208 0.930 . S
H1199 C1211 0.929 . S
H1200 C1214 0.930 . S
H1201 C1216 0.960 . S
H1202 C1216 0.960 . S
H1203 C1216 0.960 . S
C1204 H1196 0.929 . S
C1204 C1205 1.377 . S
C1204 C1206 1.384 . S
C1205 C1204 1.377 . S
C1205 C1211 1.390 . S
C1206 H1197 0.930 . S
C1206 C1204 1.384 . S
C1206 C1207 1.372 . S
C1207 C1206 1.372 . S
C1207 C1208 1.400 . S
C1207 C1212 1.490 . S
C1208 H1198 0.930 . S
C1208 C1207 1.400 . S
C1208 C1211 1.386 . S
H1209 C1225 0.930 . S
H1210 C1226 0.931 . S
C1211 H1199 0.929 . S
C1211 C1205 1.390 . S
C1211 C1208 1.386 . S
C1212 C1207 1.490 . S
C1212 C1214 1.395 . S
C1212 C1215 1.403 . S
H1213 C1219 0.930 . S
C1214 H1200 0.930 . S
C1214 C1212 1.395 . S
C1214 C1217 1.403 . S
C1215 C1212 1.403 . S
C1215 C1216 1.524 . S
C1215 C1219 1.400 . S
C1216 H1201 0.960 . S
C1216 H1202 0.960 . S
C1216 H1203 0.960 . S
C1216 C1215 1.524 . S
C1217 C1214 1.403 . S
C1217 C1218 1.392 . S
C1217 C1221 1.495 . S
C1218 C1217 1.392 . S
C1218 C1219 1.385 . S
C1218 C1220 1.478 . S
C1219 H1213 0.930 . S
C1219 C1215 1.400 . S
C1219 C1218 1.385 . S
C1220 C1218 1.478 . S
C1220 C1222 1.381 . S
C1220 C1226 1.383 . S
C1221 C1217 1.495 . S
C1221 H1227 0.959 . S
C1221 H1228 0.961 . S
C1221 H1229 0.960 . S
C1222 C1220 1.381 . S
C1222 C1223 1.394 . S
C1222 H1230 0.930 . S
C1223 C1222 1.394 . S
C1223 C1224 1.383 . S
C1223 H1231 0.929 . S
C1224 C1223 1.383 . S
C1224 C1225 1.377 . S
C1225 H1209 0.930 . S
C1225 C1224 1.377 . S
C1225 C1226 1.379 . S
C1226 H1210 0.931 . S
C1226 C1220 1.383 . S
C1226 C1225 1.379 . S
H1227 C1221 0.959 . S
H1228 C1221 0.961 . S
H1229 C1221 0.960 . S
H1230 C1222 0.930 . S
H1231 C1223 0.929 . S
H1232 C1240 0.929 . S
H1233 C1242 0.930 . S
H1234 C1244 0.930 . S
H1235 C1247 0.929 . S
H1236 C1250 0.930 . S
H1237 C1252 0.960 . S
H1238 C1252 0.960 . S
H1239 C1252 0.960 . S
C1240 H1232 0.929 . S
C1240 C1241 1.377 . S
C1240 C1242 1.384 . S
C1241 C1240 1.377 . S
C1241 C1247 1.390 . S
C1242 H1233 0.930 . S
C1242 C1240 1.384 . S
C1242 C1243 1.372 . S
C1243 C1242 1.372 . S
C1243 C1244 1.400 . S
C1243 C1248 1.490 . S
C1244 H1234 0.930 . S
C1244 C1243 1.400 . S
C1244 C1247 1.386 . S
H1245 C1261 0.930 . S
H1246 C1262 0.931 . S
C1247 H1235 0.929 . S
C1247 C1241 1.390 . S
C1247 C1244 1.386 . S
C1248 C1243 1.490 . S
C1248 C1250 1.395 . S
C1248 C1251 1.403 . S
H1249 C1255 0.930 . S
C1250 H1236 0.930 . S
C1250 C1248 1.395 . S
C1250 C1253 1.403 . S
C1251 C1248 1.403 . S
C1251 C1252 1.524 . S
C1251 C1255 1.400 . S
C1252 H1237 0.960 . S
C1252 H1238 0.960 . S
C1252 H1239 0.960 . S
C1252 C1251 1.524 . S
C1253 C1250 1.403 . S
C1253 C1254 1.392 . S
C1253 C1257 1.495 . S
C1254 C1253 1.392 . S
C1254 C1255 1.385 . S
C1254 C1256 1.478 . S
C1255 H1249 0.930 . S
C1255 C1251 1.400 . S
C1255 C1254 1.385 . S
C1256 C1254 1.478 . S
C1256 C1258 1.381 . S
C1256 C1262 1.383 . S
C1257 C1253 1.495 . S
C1257 H1263 0.959 . S
C1257 H1264 0.961 . S
C1257 H1265 0.960 . S
C1258 C1256 1.381 . S
C1258 C1259 1.394 . S
C1258 H1266 0.930 . S
C1259 C1258 1.394 . S
C1259 C1260 1.383 . S
C1259 H1267 0.929 . S
C1260 C1259 1.383 . S
C1260 C1261 1.377 . S
C1261 H1245 0.930 . S
C1261 C1260 1.377 . S
C1261 C1262 1.379 . S
C1262 H1246 0.931 . S
C1262 C1256 1.383 . S
C1262 C1261 1.379 . S
H1263 C1257 0.959 . S
H1264 C1257 0.961 . S
H1265 C1257 0.960 . S
H1266 C1258 0.930 . S
H1267 C1259 0.929 . S
H1268 C1276 0.929 . S
H1269 C1278 0.930 . S
H1270 C1280 0.930 . S
H1271 C1283 0.929 . S
H1272 C1286 0.930 . S
H1273 C1288 0.960 . S
H1274 C1288 0.960 . S
H1275 C1288 0.960 . S
C1276 H1268 0.929 . S
C1276 C1277 1.377 . S
C1276 C1278 1.384 . S
C1277 C1276 1.377 . S
C1277 C1283 1.390 . S
C1278 H1269 0.930 . S
C1278 C1276 1.384 . S
C1278 C1279 1.372 . S
C1279 C1278 1.372 . S
C1279 C1280 1.400 . S
C1279 C1284 1.490 . S
C1280 H1270 0.930 . S
C1280 C1279 1.400 . S
C1280 C1283 1.386 . S
H1281 C1297 0.930 . S
H1282 C1298 0.931 . S
C1283 H1271 0.929 . S
C1283 C1277 1.390 . S
C1283 C1280 1.386 . S
C1284 C1279 1.490 . S
C1284 C1286 1.395 . S
C1284 C1287 1.403 . S
H1285 C1291 0.930 . S
C1286 H1272 0.930 . S
C1286 C1284 1.395 . S
C1286 C1289 1.403 . S
C1287 C1284 1.403 . S
C1287 C1288 1.524 . S
C1287 C1291 1.400 . S
C1288 H1273 0.960 . S
C1288 H1274 0.960 . S
C1288 H1275 0.960 . S
C1288 C1287 1.524 . S
C1289 C1286 1.403 . S
C1289 C1290 1.392 . S
C1289 C1293 1.495 . S
C1290 C1289 1.392 . S
C1290 C1291 1.385 . S
C1290 C1292 1.478 . S
C1291 H1285 0.930 . S
C1291 C1287 1.400 . S
C1291 C1290 1.385 . S
C1292 C1290 1.478 . S
C1292 C1294 1.381 . S
C1292 C1298 1.383 . S
C1293 C1289 1.495 . S
C1293 H1299 0.959 . S
C1293 H1300 0.961 . S
C1293 H1301 0.960 . S
C1294 C1292 1.381 . S
C1294 C1295 1.394 . S
C1294 H1302 0.930 . S
C1295 C1294 1.394 . S
C1295 C1296 1.383 . S
C1295 H1303 0.929 . S
C1296 C1295 1.383 . S
C1296 C1297 1.377 . S
C1297 H1281 0.930 . S
C1297 C1296 1.377 . S
C1297 C1298 1.379 . S
C1298 H1282 0.931 . S
C1298 C1292 1.383 . S
C1298 C1297 1.379 . S
H1299 C1293 0.959 . S
H1300 C1293 0.961 . S
H1301 C1293 0.960 . S
H1302 C1294 0.930 . S
H1303 C1295 0.929 . S
H1304 C1312 0.929 . S
H1305 C1314 0.930 . S
H1306 C1316 0.930 . S
H1307 C1319 0.929 . S
H1308 C1322 0.930 . S
H1309 C1324 0.960 . S
H1310 C1324 0.960 . S
H1311 C1324 0.960 . S
C1312 H1304 0.929 . S
C1312 C1313 1.377 . S
C1312 C1314 1.384 . S
C1313 C1312 1.377 . S
C1313 C1319 1.390 . S
C1314 H1305 0.930 . S
C1314 C1312 1.384 . S
C1314 C1315 1.372 . S
C1315 C1314 1.372 . S
C1315 C1316 1.400 . S
C1315 C1320 1.490 . S
C1316 H1306 0.930 . S
C1316 C1315 1.400 . S
C1316 C1319 1.386 . S
H1317 C1333 0.930 . S
H1318 C1334 0.931 . S
C1319 H1307 0.929 . S
C1319 C1313 1.390 . S
C1319 C1316 1.386 . S
C1320 C1315 1.490 . S
C1320 C1322 1.395 . S
C1320 C1323 1.403 . S
H1321 C1327 0.930 . S
C1322 H1308 0.930 . S
C1322 C1320 1.395 . S
C1322 C1325 1.403 . S
C1323 C1320 1.403 . S
C1323 C1324 1.524 . S
C1323 C1327 1.400 . S
C1324 H1309 0.960 . S
C1324 H1310 0.960 . S
C1324 H1311 0.960 . S
C1324 C1323 1.524 . S
C1325 C1322 1.403 . S
C1325 C1326 1.392 . S
C1325 C1329 1.495 . S
C1326 C1325 1.392 . S
C1326 C1327 1.385 . S
C1326 C1328 1.478 . S
C1327 H1321 0.930 . S
C1327 C1323 1.400 . S
C1327 C1326 1.385 . S
C1328 C1326 1.478 . S
C1328 C1330 1.381 . S
C1328 C1334 1.383 . S
C1329 C1325 1.495 . S
C1329 H1335 0.959 . S
C1329 H1336 0.961 . S
C1329 H1337 0.960 . S
C1330 C1328 1.381 . S
C1330 C1331 1.394 . S
C1330 H1338 0.930 . S
C1331 C1330 1.394 . S
C1331 C1332 1.383 . S
C1331 H1339 0.929 . S
C1332 C1331 1.383 . S
C1332 C1333 1.377 . S
C1333 H1317 0.930 . S
C1333 C1332 1.377 . S
C1333 C1334 1.379 . S
C1334 H1318 0.931 . S
C1334 C1328 1.383 . S
C1334 C1333 1.379 . S
H1335 C1329 0.959 . S
H1336 C1329 0.961 . S
H1337 C1329 0.960 . S
H1338 C1330 0.930 . S
H1339 C1331 0.929 . S
H1340 C1348 0.929 . S
H1341 C1350 0.930 . S
H1342 C1352 0.930 . S
H1343 C1355 0.929 . S
H1344 C1358 0.930 . S
H1345 C1360 0.960 . S
H1346 C1360 0.960 . S
H1347 C1360 0.960 . S
C1348 H1340 0.929 . S
C1348 C1349 1.377 . S
C1348 C1350 1.384 . S
C1349 C1348 1.377 . S
C1349 C1355 1.390 . S
C1350 H1341 0.930 . S
C1350 C1348 1.384 . S
C1350 C1351 1.372 . S
C1351 C1350 1.372 . S
C1351 C1352 1.400 . S
C1351 C1356 1.490 . S
C1352 H1342 0.930 . S
C1352 C1351 1.400 . S
C1352 C1355 1.386 . S
H1353 C1369 0.930 . S
H1354 C1370 0.931 . S
C1355 H1343 0.929 . S
C1355 C1349 1.390 . S
C1355 C1352 1.386 . S
C1356 C1351 1.490 . S
C1356 C1358 1.395 . S
C1356 C1359 1.403 . S
H1357 C1363 0.930 . S
C1358 H1344 0.930 . S
C1358 C1356 1.395 . S
C1358 C1361 1.403 . S
C1359 C1356 1.403 . S
C1359 C1360 1.524 . S
C1359 C1363 1.400 . S
C1360 H1345 0.960 . S
C1360 H1346 0.960 . S
C1360 H1347 0.960 . S
C1360 C1359 1.524 . S
C1361 C1358 1.403 . S
C1361 C1362 1.392 . S
C1361 C1365 1.495 . S
C1362 C1361 1.392 . S
C1362 C1363 1.385 . S
C1362 C1364 1.478 . S
C1363 H1357 0.930 . S
C1363 C1359 1.400 . S
C1363 C1362 1.385 . S
C1364 C1362 1.478 . S
C1364 C1366 1.381 . S
C1364 C1370 1.383 . S
C1365 C1361 1.495 . S
C1365 H1371 0.959 . S
C1365 H1372 0.961 . S
C1365 H1373 0.960 . S
C1366 C1364 1.381 . S
C1366 C1367 1.394 . S
C1366 H1374 0.930 . S
C1367 C1366 1.394 . S
C1367 C1368 1.383 . S
C1367 H1375 0.929 . S
C1368 C1367 1.383 . S
C1368 C1369 1.377 . S
C1369 H1353 0.930 . S
C1369 C1368 1.377 . S
C1369 C1370 1.379 . S
C1370 H1354 0.931 . S
C1370 C1364 1.383 . S
C1370 C1369 1.379 . S
H1371 C1365 0.959 . S
H1372 C1365 0.961 . S
H1373 C1365 0.960 . S
H1374 C1366 0.930 . S
H1375 C1367 0.929 . S
H1376 C1384 0.929 . S
H1377 C1386 0.930 . S
H1378 C1388 0.930 . S
H1379 C1391 0.929 . S
H1380 C1394 0.930 . S
H1381 C1396 0.960 . S
H1382 C1396 0.960 . S
H1383 C1396 0.960 . S
C1384 H1376 0.929 . S
C1384 C1385 1.377 . S
C1384 C1386 1.384 . S
C1385 C1384 1.377 . S
C1385 C1391 1.390 . S
C1386 H1377 0.930 . S
C1386 C1384 1.384 . S
C1386 C1387 1.372 . S
C1387 C1386 1.372 . S
C1387 C1388 1.400 . S
C1387 C1392 1.490 . S
C1388 H1378 0.930 . S
C1388 C1387 1.400 . S
C1388 C1391 1.386 . S
H1389 C1405 0.930 . S
H1390 C1406 0.931 . S
C1391 H1379 0.929 . S
C1391 C1385 1.390 . S
C1391 C1388 1.386 . S
C1392 C1387 1.490 . S
C1392 C1394 1.395 . S
C1392 C1395 1.403 . S
H1393 C1399 0.930 . S
C1394 H1380 0.930 . S
C1394 C1392 1.395 . S
C1394 C1397 1.403 . S
C1395 C1392 1.403 . S
C1395 C1396 1.524 . S
C1395 C1399 1.400 . S
C1396 H1381 0.960 . S
C1396 H1382 0.960 . S
C1396 H1383 0.960 . S
C1396 C1395 1.524 . S
C1397 C1394 1.403 . S
C1397 C1398 1.392 . S
C1397 C1401 1.495 . S
C1398 C1397 1.392 . S
C1398 C1399 1.385 . S
C1398 C1400 1.478 . S
C1399 H1393 0.930 . S
C1399 C1395 1.400 . S
C1399 C1398 1.385 . S
C1400 C1398 1.478 . S
C1400 C1402 1.381 . S
C1400 C1406 1.383 . S
C1401 C1397 1.495 . S
C1401 H1407 0.959 . S
C1401 H1408 0.961 . S
C1401 H1409 0.960 . S
C1402 C1400 1.381 . S
C1402 C1403 1.394 . S
C1402 H1410 0.930 . S
C1403 C1402 1.394 . S
C1403 C1404 1.383 . S
C1403 H1411 0.929 . S
C1404 C1403 1.383 . S
C1404 C1405 1.377 . S
C1405 H1389 0.930 . S
C1405 C1404 1.377 . S
C1405 C1406 1.379 . S
C1406 H1390 0.931 . S
C1406 C1400 1.383 . S
C1406 C1405 1.379 . S
H1407 C1401 0.959 . S
H1408 C1401 0.961 . S
H1409 C1401 0.960 . S
H1410 C1402 0.930 . S
H1411 C1403 0.929 . S
H1412 C1420 0.929 . S
H1413 C1422 0.930 . S
H1414 C1424 0.930 . S
H1415 C1427 0.929 . S
H1416 C1430 0.930 . S
H1417 C1432 0.960 . S
H1418 C1432 0.960 . S
H1419 C1432 0.960 . S
C1420 H1412 0.929 . S
C1420 C1421 1.377 . S
C1420 C1422 1.384 . S
C1421 C1420 1.377 . S
C1421 C1427 1.390 . S
C1422 H1413 0.930 . S
C1422 C1420 1.384 . S
C1422 C1423 1.372 . S
C1423 C1422 1.372 . S
C1423 C1424 1.400 . S
C1423 C1428 1.490 . S
C1424 H1414 0.930 . S
C1424 C1423 1.400 . S
C1424 C1427 1.386 . S
H1425 C1441 0.930 . S
H1426 C1442 0.931 . S
C1427 H1415 0.929 . S
C1427 C1421 1.390 . S
C1427 C1424 1.386 . S
C1428 C1423 1.490 . S
C1428 C1430 1.395 . S
C1428 C1431 1.403 . S
H1429 C1435 0.930 . S
C1430 H1416 0.930 . S
C1430 C1428 1.395 . S
C1430 C1433 1.403 . S
C1431 C1428 1.403 . S
C1431 C1432 1.524 . S
C1431 C1435 1.400 . S
C1432 H1417 0.960 . S
C1432 H1418 0.960 . S
C1432 H1419 0.960 . S
C1432 C1431 1.524 . S
C1433 C1430 1.403 . S
C1433 C1434 1.392 . S
C1433 C1437 1.495 . S
C1434 C1433 1.392 . S
C1434 C1435 1.385 . S
C1434 C1436 1.478 . S
C1435 H1429 0.930 . S
C1435 C1431 1.400 . S
C1435 C1434 1.385 . S
C1436 C1434 1.478 . S
C1436 C1438 1.381 . S
C1436 C1442 1.383 . S
C1437 C1433 1.495 . S
C1437 H1443 0.959 . S
C1437 H1444 0.961 . S
C1437 H1445 0.960 . S
C1438 C1436 1.381 . S
C1438 C1439 1.394 . S
C1438 H1446 0.930 . S
C1439 C1438 1.394 . S
C1439 C1440 1.383 . S
C1439 H1447 0.929 . S
C1440 C1439 1.383 . S
C1440 C1441 1.377 . S
C1441 H1425 0.930 . S
C1441 C1440 1.377 . S
C1441 C1442 1.379 . S
C1442 H1426 0.931 . S
C1442 C1436 1.383 . S
C1442 C1441 1.379 . S
H1443 C1437 0.959 . S
H1444 C1437 0.961 . S
H1445 C1437 0.960 . S
H1446 C1438 0.930 . S
H1447 C1439 0.929 . S
H1448 C1456 0.929 . S
H1449 C1458 0.930 . S
H1450 C1460 0.930 . S
H1451 C1463 0.929 . S
H1452 C1466 0.930 . S
H1453 C1468 0.960 . S
H1454 C1468 0.960 . S
H1455 C1468 0.960 . S
C1456 H1448 0.929 . S
C1456 C1457 1.377 . S
C1456 C1458 1.384 . S
C1457 C1456 1.377 . S
C1457 C1463 1.390 . S
C1458 H1449 0.930 . S
C1458 C1456 1.384 . S
C1458 C1459 1.372 . S
C1459 C1458 1.372 . S
C1459 C1460 1.400 . S
C1459 C1464 1.490 . S
C1460 H1450 0.930 . S
C1460 C1459 1.400 . S
C1460 C1463 1.386 . S
H1461 C1477 0.930 . S
H1462 C1478 0.931 . S
C1463 H1451 0.929 . S
C1463 C1457 1.390 . S
C1463 C1460 1.386 . S
C1464 C1459 1.490 . S
C1464 C1466 1.395 . S
C1464 C1467 1.403 . S
H1465 C1471 0.930 . S
C1466 H1452 0.930 . S
C1466 C1464 1.395 . S
C1466 C1469 1.403 . S
C1467 C1464 1.403 . S
C1467 C1468 1.524 . S
C1467 C1471 1.400 . S
C1468 H1453 0.960 . S
C1468 H1454 0.960 . S
C1468 H1455 0.960 . S
C1468 C1467 1.524 . S
C1469 C1466 1.403 . S
C1469 C1470 1.392 . S
C1469 C1473 1.495 . S
C1470 C1469 1.392 . S
C1470 C1471 1.385 . S
C1470 C1472 1.478 . S
C1471 H1465 0.930 . S
C1471 C1467 1.400 . S
C1471 C1470 1.385 . S
C1472 C1470 1.478 . S
C1472 C1474 1.381 . S
C1472 C1478 1.383 . S
C1473 C1469 1.495 . S
C1473 H1479 0.959 . S
C1473 H1480 0.961 . S
C1473 H1481 0.960 . S
C1474 C1472 1.381 . S
C1474 C1475 1.394 . S
C1474 H1482 0.930 . S
C1475 C1474 1.394 . S
C1475 C1476 1.383 . S
C1475 H1483 0.929 . S
C1476 C1475 1.383 . S
C1476 C1477 1.377 . S
C1477 H1461 0.930 . S
C1477 C1476 1.377 . S
C1477 C1478 1.379 . S
C1478 H1462 0.931 . S
C1478 C1472 1.383 . S
C1478 C1477 1.379 . S
H1479 C1473 0.959 . S
H1480 C1473 0.961 . S
H1481 C1473 0.960 . S
H1482 C1474 0.930 . S
H1483 C1475 0.929 . S
H1484 C1492 0.929 . S
H1485 C1494 0.930 . S
H1486 C1496 0.930 . S
H1487 C1499 0.929 . S
H1488 C1502 0.930 . S
H1489 C1504 0.960 . S
H1490 C1504 0.960 . S
H1491 C1504 0.960 . S
C1492 H1484 0.929 . S
C1492 C1493 1.377 . S
C1492 C1494 1.384 . S
C1493 C1492 1.377 . S
C1493 C1499 1.390 . S
C1494 H1485 0.930 . S
C1494 C1492 1.384 . S
C1494 C1495 1.372 . S
C1495 C1494 1.372 . S
C1495 C1496 1.400 . S
C1495 C1500 1.490 . S
C1496 H1486 0.930 . S
C1496 C1495 1.400 . S
C1496 C1499 1.386 . S
H1497 C1513 0.930 . S
H1498 C1514 0.931 . S
C1499 H1487 0.929 . S
C1499 C1493 1.390 . S
C1499 C1496 1.386 . S
C1500 C1495 1.490 . S
C1500 C1502 1.395 . S
C1500 C1503 1.403 . S
H1501 C1507 0.930 . S
C1502 H1488 0.930 . S
C1502 C1500 1.395 . S
C1502 C1505 1.403 . S
C1503 C1500 1.403 . S
C1503 C1504 1.524 . S
C1503 C1507 1.400 . S
C1504 H1489 0.960 . S
C1504 H1490 0.960 . S
C1504 H1491 0.960 . S
C1504 C1503 1.524 . S
C1505 C1502 1.403 . S
C1505 C1506 1.392 . S
C1505 C1509 1.495 . S
C1506 C1505 1.392 . S
C1506 C1507 1.385 . S
C1506 C1508 1.478 . S
C1507 H1501 0.930 . S
C1507 C1503 1.400 . S
C1507 C1506 1.385 . S
C1508 C1506 1.478 . S
C1508 C1510 1.381 . S
C1508 C1514 1.383 . S
C1509 C1505 1.495 . S
C1509 H1515 0.959 . S
C1509 H1516 0.961 . S
C1509 H1517 0.960 . S
C1510 C1508 1.381 . S
C1510 C1511 1.394 . S
C1510 H1518 0.930 . S
C1511 C1510 1.394 . S
C1511 C1512 1.383 . S
C1511 H1519 0.929 . S
C1512 C1511 1.383 . S
C1512 C1513 1.377 . S
C1513 H1497 0.930 . S
C1513 C1512 1.377 . S
C1513 C1514 1.379 . S
C1514 H1498 0.931 . S
C1514 C1508 1.383 . S
C1514 C1513 1.379 . S
H1515 C1509 0.959 . S
H1516 C1509 0.961 . S
H1517 C1509 0.960 . S
H1518 C1510 0.930 . S
H1519 C1511 0.929 . S
H1520 C1528 0.929 . S
H1521 C1530 0.930 . S
H1522 C1532 0.930 . S
H1523 C1535 0.929 1_565 S
H1524 C1538 0.930 . S
H1525 C1540 0.960 . S
H1526 C1540 0.960 . S
H1527 C1540 0.960 . S
C1528 H1520 0.929 . S
C1528 C1529 1.350 1_545 S
C1528 C1530 1.384 . S
C1529 C1528 1.350 1_565 S
C1529 C1535 1.382 1_565 S
C1530 H1521 0.930 . S
C1530 C1528 1.384 . S
C1530 C1531 1.372 . S
C1531 C1530 1.372 . S
C1531 C1532 1.400 . S
C1531 C1536 1.490 . S
C1532 H1522 0.930 . S
C1532 C1531 1.400 . S
C1532 C1535 1.386 . S
H1533 C1549 0.930 . S
H1534 C1550 0.931 . S
C1535 H1523 0.929 1_545 S
C1535 C1529 1.382 1_545 S
C1535 C1532 1.386 . S
C1536 C1531 1.490 . S
C1536 C1538 1.395 . S
C1536 C1539 1.403 . S
H1537 C1543 0.930 . S
C1538 H1524 0.930 . S
C1538 C1536 1.395 . S
C1538 C1541 1.403 . S
C1539 C1536 1.403 . S
C1539 C1540 1.524 . S
C1539 C1543 1.400 . S
C1540 H1525 0.960 . S
C1540 H1526 0.960 . S
C1540 H1527 0.960 . S
C1540 C1539 1.524 . S
C1541 C1538 1.403 . S
C1541 C1542 1.392 . S
C1541 C1545 1.495 . S
C1542 C1541 1.392 . S
C1542 C1543 1.385 . S
C1542 C1544 1.478 . S
C1543 H1537 0.930 . S
C1543 C1539 1.400 . S
C1543 C1542 1.385 . S
C1544 C1542 1.478 . S
C1544 C1546 1.381 . S
C1544 C1550 1.383 . S
C1545 C1541 1.495 . S
C1545 H1551 0.959 . S
C1545 H1552 0.961 . S
C1545 H1553 0.960 . S
C1546 C1544 1.381 . S
C1546 C1547 1.394 . S
C1546 H1554 0.930 . S
C1547 C1546 1.394 . S
C1547 C1548 1.383 . S
C1547 H1555 0.929 . S
C1548 C1547 1.383 . S
C1548 C1549 1.377 . S
C1549 H1533 0.930 . S
C1549 C1548 1.377 . S
C1549 C1550 1.379 . S
C1550 H1534 0.931 . S
C1550 C1544 1.383 . S
C1550 C1549 1.379 . S
H1551 C1545 0.959 . S
H1552 C1545 0.961 . S
H1553 C1545 0.960 . S
H1554 C1546 0.930 . S
H1555 C1547 0.929 . S
H1556 C1564 0.929 . S
H1557 C1566 0.930 . S
H1558 C1568 0.930 . S
H1559 C1571 0.929 . S
H1560 C1574 0.930 . S
H1561 C1576 0.960 . S
H1562 C1576 0.960 . S
H1563 C1576 0.960 . S
C1564 H1556 0.929 . S
C1564 C1565 1.377 . S
C1564 C1566 1.384 . S
C1565 C1564 1.377 . S
C1565 C1571 1.390 . S
C1566 H1557 0.930 . S
C1566 C1564 1.384 . S
C1566 C1567 1.372 . S
C1567 C1566 1.372 . S
C1567 C1568 1.400 . S
C1567 C1572 1.490 . S
C1568 H1558 0.930 . S
C1568 C1567 1.400 . S
C1568 C1571 1.386 . S
H1569 C1585 0.930 . S
H1570 C1586 0.931 . S
C1571 H1559 0.929 . S
C1571 C1565 1.390 . S
C1571 C1568 1.386 . S
C1572 C1567 1.490 . S
C1572 C1574 1.395 . S
C1572 C1575 1.403 . S
H1573 C1579 0.930 . S
C1574 H1560 0.930 . S
C1574 C1572 1.395 . S
C1574 C1577 1.403 . S
C1575 C1572 1.403 . S
C1575 C1576 1.524 . S
C1575 C1579 1.400 . S
C1576 H1561 0.960 . S
C1576 H1562 0.960 . S
C1576 H1563 0.960 . S
C1576 C1575 1.524 . S
C1577 C1574 1.403 . S
C1577 C1578 1.392 . S
C1577 C1581 1.495 . S
C1578 C1577 1.392 . S
C1578 C1579 1.385 . S
C1578 C1580 1.478 . S
C1579 H1573 0.930 . S
C1579 C1575 1.400 . S
C1579 C1578 1.385 . S
C1580 C1578 1.478 . S
C1580 C1582 1.381 . S
C1580 C1586 1.383 . S
C1581 C1577 1.495 . S
C1581 H1587 0.959 . S
C1581 H1588 0.961 . S
C1581 H1589 0.960 . S
C1582 C1580 1.381 . S
C1582 C1583 1.394 1_455 S
C1582 H1590 0.930 . S
C1583 C1582 1.394 1_655 S
C1583 C1584 1.388 . S
C1583 H1591 0.929 . S
C1584 C1583 1.388 . S
C1584 C1585 1.345 1_655 S
C1585 H1569 0.930 . S
C1585 C1584 1.345 1_455 S
C1585 C1586 1.379 . S
C1586 H1570 0.931 . S
C1586 C1580 1.383 . S
C1586 C1585 1.379 . S
H1587 C1581 0.959 . S
H1588 C1581 0.961 . S
H1589 C1581 0.960 . S
H1590 C1582 0.930 . S
H1591 C1583 0.929 . S
H1592 C1600 0.929 . S
H1593 C1602 0.930 . S
H1594 C1604 0.930 . S
H1595 C1607 0.929 . S
H1596 C1610 0.930 . S
H1597 C1612 0.960 . S
H1598 C1612 0.960 . S
H1599 C1612 0.960 . S
C1600 H1592 0.929 . S
C1600 C1601 1.346 1_565 S
C1600 C1602 1.384 . S
C1601 C1600 1.346 1_545 S
C1601 C1607 1.394 . S
C1602 H1593 0.930 . S
C1602 C1600 1.384 . S
C1602 C1603 1.372 . S
C1603 C1602 1.372 . S
C1603 C1604 1.400 . S
C1603 C1608 1.490 . S
C1604 H1594 0.930 . S
C1604 C1603 1.400 . S
C1604 C1607 1.386 1_565 S
H1605 C1621 0.930 . S
H1606 C1622 0.931 . S
C1607 H1595 0.929 . S
C1607 C1601 1.394 . S
C1607 C1604 1.386 1_545 S
C1608 C1603 1.490 . S
C1608 C1610 1.395 . S
C1608 C1611 1.403 . S
H1609 C1615 0.930 . S
C1610 H1596 0.930 . S
C1610 C1608 1.395 . S
C1610 C1613 1.403 . S
C1611 C1608 1.403 . S
C1611 C1612 1.524 . S
C1611 C1615 1.400 . S
C1612 H1597 0.960 . S
C1612 H1598 0.960 . S
C1612 H1599 0.960 . S
C1612 C1611 1.524 . S
C1613 C1610 1.403 . S
C1613 C1614 1.392 . S
C1613 C1617 1.495 . S
C1614 C1613 1.392 . S
C1614 C1615 1.385 . S
C1614 C1616 1.478 . S
C1615 H1609 0.930 . S
C1615 C1611 1.400 . S
C1615 C1614 1.385 . S
C1616 C1614 1.478 . S
C1616 C1618 1.381 . S
C1616 C1622 1.383 . S
C1617 C1613 1.495 . S
C1617 H1623 0.959 . S
C1617 H1624 0.961 . S
C1617 H1625 0.960 . S
C1618 C1616 1.381 . S
C1618 C1619 1.394 . S
C1618 H1626 0.930 . S
C1619 C1618 1.394 . S
C1619 C1620 1.383 . S
C1619 H1627 0.929 . S
C1620 C1619 1.383 . S
C1620 C1621 1.377 . S
C1621 H1605 0.930 . S
C1621 C1620 1.377 . S
C1621 C1622 1.379 . S
C1622 H1606 0.931 . S
C1622 C1616 1.383 . S
C1622 C1621 1.379 . S
H1623 C1617 0.959 . S
H1624 C1617 0.961 . S
H1625 C1617 0.960 . S
H1626 C1618 0.930 . S
H1627 C1619 0.929 . S
H1628 C1636 0.929 . S
H1629 C1638 0.930 . S
H1630 C1640 0.930 . S
H1631 C1643 0.929 . S
H1632 C1646 0.930 . S
H1633 C1648 0.960 . S
H1634 C1648 0.960 . S
H1635 C1648 0.960 . S
C1636 H1628 0.929 . S
C1636 C1637 1.377 . S
C1636 C1638 1.384 . S
C1637 C1636 1.377 . S
C1637 C1643 1.390 . S
C1638 H1629 0.930 . S
C1638 C1636 1.384 . S
C1638 C1639 1.372 . S
C1639 C1638 1.372 . S
C1639 C1640 1.400 . S
C1639 C1644 1.490 . S
C1640 H1630 0.930 . S
C1640 C1639 1.400 . S
C1640 C1643 1.386 . S
H1641 C1657 0.930 . S
H1642 C1658 0.931 . S
C1643 H1631 0.929 . S
C1643 C1637 1.390 . S
C1643 C1640 1.386 . S
C1644 C1639 1.490 . S
C1644 C1646 1.395 . S
C1644 C1647 1.403 . S
H1645 C1651 0.930 . S
C1646 H1632 0.930 . S
C1646 C1644 1.395 . S
C1646 C1649 1.403 . S
C1647 C1644 1.403 . S
C1647 C1648 1.524 . S
C1647 C1651 1.400 . S
C1648 H1633 0.960 . S
C1648 H1634 0.960 . S
C1648 H1635 0.960 . S
C1648 C1647 1.524 . S
C1649 C1646 1.403 . S
C1649 C1650 1.392 . S
C1649 C1653 1.495 . S
C1650 C1649 1.392 . S
C1650 C1651 1.385 . S
C1650 C1652 1.478 . S
C1651 H1645 0.930 . S
C1651 C1647 1.400 . S
C1651 C1650 1.385 . S
C1652 C1650 1.478 . S
C1652 C1654 1.381 . S
C1652 C1658 1.383 . S
C1653 C1649 1.495 . S
C1653 H1659 0.959 . S
C1653 H1660 0.961 . S
C1653 H1661 0.960 . S
C1654 C1652 1.381 . S
C1654 C1655 1.372 1_655 S
C1654 H1662 0.930 . S
C1655 C1654 1.372 1_455 S
C1655 C1656 1.383 . S
C1655 H1663 0.952 . S
C1656 C1655 1.383 . S
C1656 C1657 1.363 1_455 S
C1657 H1641 0.930 . S
C1657 C1656 1.363 1_655 S
C1657 C1658 1.379 . S
C1658 H1642 0.931 . S
C1658 C1652 1.383 . S
C1658 C1657 1.379 . S
H1659 C1653 0.959 . S
H1660 C1653 0.961 . S
H1661 C1653 0.960 . S
H1662 C1654 0.930 . S
H1663 C1655 0.952 . S
H1664 C1672 0.929 . S
H1665 C1674 0.930 . S
H1666 C1676 0.930 . S
H1667 C1679 0.929 1_545 S
H1668 C1682 0.930 . S
H1669 C1684 0.960 . S
H1670 C1684 0.960 . S
H1671 C1684 0.960 . S
C1672 H1664 0.929 . S
C1672 C1673 1.362 1_565 S
C1672 C1674 1.384 . S
C1673 C1672 1.362 1_545 S
C1673 C1679 1.383 1_545 S
C1674 H1665 0.930 . S
C1674 C1672 1.384 . S
C1674 C1675 1.372 . S
C1675 C1674 1.372 . S
C1675 C1676 1.400 . S
C1675 C1680 1.490 . S
C1676 H1666 0.930 . S
C1676 C1675 1.400 . S
C1676 C1679 1.386 . S
H1677 C1693 0.930 . S
H1678 C1694 0.931 . S
C1679 H1667 0.929 1_565 S
C1679 C1673 1.383 1_565 S
C1679 C1676 1.386 . S
C1680 C1675 1.490 . S
C1680 C1682 1.395 . S
C1680 C1683 1.403 . S
H1681 C1687 0.930 . S
C1682 H1668 0.930 . S
C1682 C1680 1.395 . S
C1682 C1685 1.403 . S
C1683 C1680 1.403 . S
C1683 C1684 1.524 . S
C1683 C1687 1.400 . S
C1684 H1669 0.960 . S
C1684 H1670 0.960 . S
C1684 H1671 0.960 . S
C1684 C1683 1.524 . S
C1685 C1682 1.403 . S
C1685 C1686 1.392 . S
C1685 C1689 1.495 . S
C1686 C1685 1.392 . S
C1686 C1687 1.385 . S
C1686 C1688 1.478 . S
C1687 H1681 0.930 . S
C1687 C1683 1.400 . S
C1687 C1686 1.385 . S
C1688 C1686 1.478 . S
C1688 C1690 1.381 . S
C1688 C1694 1.383 . S
C1689 C1685 1.495 . S
C1689 H1695 0.959 . S
C1689 H1696 0.961 . S
C1689 H1697 0.960 . S
C1690 C1688 1.381 . S
C1690 C1691 1.394 . S
C1690 H1698 0.930 . S
C1691 C1690 1.394 . S
C1691 C1692 1.383 . S
C1691 H1699 0.929 . S
C1692 C1691 1.383 . S
C1692 C1693 1.377 . S
C1693 H1677 0.930 . S
C1693 C1692 1.377 . S
C1693 C1694 1.379 . S
C1694 H1678 0.931 . S
C1694 C1688 1.383 . S
C1694 C1693 1.379 . S
H1695 C1689 0.959 . S
H1696 C1689 0.961 . S
H1697 C1689 0.960 . S
H1698 C1690 0.930 . S
H1699 C1691 0.929 . S
H1700 C1708 0.929 . S
H1701 C1710 0.930 . S
H1702 C1712 0.930 . S
H1703 C1715 0.929 . S
H1704 C1718 0.930 . S
H1705 C1720 0.960 . S
H1706 C1720 0.960 . S
H1707 C1720 0.960 . S
C1708 H1700 0.929 . S
C1708 C1709 1.377 . S
C1708 C1710 1.384 . S
C1709 C1708 1.377 . S
C1709 C1715 1.390 . S
C1710 H1701 0.930 . S
C1710 C1708 1.384 . S
C1710 C1711 1.372 . S
C1711 C1710 1.372 . S
C1711 C1712 1.400 . S
C1711 C1716 1.490 . S
C1712 H1702 0.930 . S
C1712 C1711 1.400 . S
C1712 C1715 1.386 . S
H1713 C1729 0.930 . S
H1714 C1730 0.931 . S
C1715 H1703 0.929 . S
C1715 C1709 1.390 . S
C1715 C1712 1.386 . S
C1716 C1711 1.490 . S
C1716 C1718 1.395 . S
C1716 C1719 1.403 . S
H1717 C1723 0.930 . S
C1718 H1704 0.930 . S
C1718 C1716 1.395 . S
C1718 C1721 1.403 . S
C1719 C1716 1.403 . S
C1719 C1720 1.524 . S
C1719 C1723 1.400 . S
C1720 H1705 0.960 . S
C1720 H1706 0.960 . S
C1720 H1707 0.960 . S
C1720 C1719 1.524 . S
C1721 C1718 1.403 . S
C1721 C1722 1.392 . S
C1721 C1725 1.495 . S
C1722 C1721 1.392 . S
C1722 C1723 1.385 . S
C1722 C1724 1.478 . S
C1723 H1717 0.930 . S
C1723 C1719 1.400 . S
C1723 C1722 1.385 . S
C1724 C1722 1.478 . S
C1724 C1726 1.381 . S
C1724 C1730 1.383 . S
C1725 C1721 1.495 . S
C1725 H1731 0.959 . S
C1725 H1732 0.961 . S
C1725 H1733 0.960 . S
C1726 C1724 1.381 . S
C1726 C1727 1.394 . S
C1726 H1734 0.930 . S
C1727 C1726 1.394 . S
C1727 C1728 1.384 1_655 S
C1727 H1735 0.929 1_655 S
C1728 C1727 1.384 1_455 S
C1728 C1729 1.378 1_455 S
C1729 H1713 0.930 . S
C1729 C1728 1.378 1_655 S
C1729 C1730 1.379 . S
C1730 H1714 0.931 . S
C1730 C1724 1.383 . S
C1730 C1729 1.379 . S
H1731 C1725 0.959 . S
H1732 C1725 0.961 . S
H1733 C1725 0.960 . S
H1734 C1726 0.930 . S
H1735 C1727 0.929 1_455 S
H1736 C1744 0.929 . S
H1737 C1746 0.930 . S
H1738 C1748 0.930 . S
H1739 C1751 0.929 . S
H1740 C1754 0.930 . S
H1741 C1756 0.960 . S
H1742 C1756 0.960 . S
H1743 C1756 0.960 . S
C1744 H1736 0.929 . S
C1744 C1745 1.377 . S
C1744 C1746 1.384 . S
C1745 C1744 1.377 . S
C1745 C1751 1.390 . S
C1746 H1737 0.930 . S
C1746 C1744 1.384 . S
C1746 C1747 1.372 . S
C1747 C1746 1.372 . S
C1747 C1748 1.400 . S
C1747 C1752 1.490 . S
C1748 H1738 0.930 . S
C1748 C1747 1.400 . S
C1748 C1751 1.386 . S
H1749 C1765 0.930 . S
H1750 C1766 0.931 . S
C1751 H1739 0.929 . S
C1751 C1745 1.390 . S
C1751 C1748 1.386 . S
C1752 C1747 1.490 . S
C1752 C1754 1.395 . S
C1752 C1755 1.403 . S
H1753 C1759 0.930 . S
C1754 H1740 0.930 . S
C1754 C1752 1.395 . S
C1754 C1757 1.403 . S
C1755 C1752 1.403 . S
C1755 C1756 1.524 . S
C1755 C1759 1.400 . S
C1756 H1741 0.960 . S
C1756 H1742 0.960 . S
C1756 H1743 0.960 . S
C1756 C1755 1.524 . S
C1757 C1754 1.403 . S
C1757 C1758 1.392 . S
C1757 C1761 1.495 . S
C1758 C1757 1.392 . S
C1758 C1759 1.385 . S
C1758 C1760 1.478 . S
C1759 H1753 0.930 . S
C1759 C1755 1.400 . S
C1759 C1758 1.385 . S
C1760 C1758 1.478 . S
C1760 C1762 1.381 . S
C1760 C1766 1.383 . S
C1761 C1757 1.495 . S
C1761 H1767 0.959 . S
C1761 H1768 0.961 . S
C1761 H1769 0.960 . S
C1762 C1760 1.381 . S
C1762 C1763 1.394 . S
C1762 H1770 0.930 . S
C1763 C1762 1.394 . S
C1763 C1764 1.383 1_545 S
C1763 H1771 0.929 1_545 S
C1764 C1763 1.383 1_565 S
C1764 C1765 1.377 1_565 S
C1765 H1749 0.930 . S
C1765 C1764 1.377 1_545 S
C1765 C1766 1.379 . S
C1766 H1750 0.931 . S
C1766 C1760 1.383 . S
C1766 C1765 1.379 . S
H1767 C1761 0.959 . S
H1768 C1761 0.961 . S
H1769 C1761 0.960 . S
H1770 C1762 0.930 . S
H1771 C1763 0.929 1_565 S
H1772 C1780 0.929 . S
H1773 C1782 0.930 . S
H1774 C1784 0.930 . S
H1775 C1787 0.929 . S
H1776 C1790 0.930 . S
H1777 C1792 0.960 . S
H1778 C1792 0.960 . S
H1779 C1792 0.960 . S
C1780 H1772 0.929 . S
C1780 C1781 1.377 . S
C1780 C1782 1.384 . S
C1781 C1780 1.377 . S
C1781 C1787 1.390 . S
C1782 H1773 0.930 . S
C1782 C1780 1.384 . S
C1782 C1783 1.372 . S
C1783 C1782 1.372 . S
C1783 C1784 1.400 . S
C1783 C1788 1.490 . S
C1784 H1774 0.930 . S
C1784 C1783 1.400 . S
C1784 C1787 1.386 . S
H1785 C1801 0.930 1_655 S
H1786 C1802 0.931 . S
C1787 H1775 0.929 . S
C1787 C1781 1.390 . S
C1787 C1784 1.386 . S
C1788 C1783 1.490 . S
C1788 C1790 1.395 . S
C1788 C1791 1.403 . S
H1789 C1795 0.930 . S
C1790 H1776 0.930 . S
C1790 C1788 1.395 . S
C1790 C1793 1.403 . S
C1791 C1788 1.403 . S
C1791 C1792 1.524 . S
C1791 C1795 1.400 . S
C1792 H1777 0.960 . S
C1792 H1778 0.960 . S
C1792 H1779 0.960 . S
C1792 C1791 1.524 . S
C1793 C1790 1.403 . S
C1793 C1794 1.392 . S
C1793 C1797 1.495 . S
C1794 C1793 1.392 . S
C1794 C1795 1.385 . S
C1794 C1796 1.478 . S
C1795 H1789 0.930 . S
C1795 C1791 1.400 . S
C1795 C1794 1.385 . S
C1796 C1794 1.478 . S
C1796 C1798 1.381 . S
C1796 C1802 1.383 . S
C1797 C1793 1.495 . S
C1797 H1803 0.959 . S
C1797 H1804 0.961 . S
C1797 H1805 0.960 . S
C1798 C1796 1.381 . S
C1798 C1799 1.394 . S
C1798 H1806 0.930 . S
C1799 C1798 1.394 . S
C1799 C1800 1.387 . S
C1799 H1807 0.929 . S
C1800 C1799 1.387 . S
C1800 C1801 1.378 . S
C1801 H1785 0.930 1_455 S
C1801 C1800 1.378 . S
C1801 C1802 1.379 . S
C1802 H1786 0.931 . S
C1802 C1796 1.383 . S
C1802 C1801 1.379 . S
H1803 C1797 0.959 . S
H1804 C1797 0.961 . S
H1805 C1797 0.960 . S
H1806 C1798 0.930 . S
H1807 C1799 0.929 . S
H1808 C1816 0.929 . S
H1809 C1818 0.930 . S
H1810 C1820 0.930 . S
H1811 C1823 0.929 . S
H1812 C1826 0.930 . S
H1813 C1828 0.960 . S
H1814 C1828 0.960 . S
H1815 C1828 0.960 . S
C1816 H1808 0.929 . S
C1816 C1817 1.377 . S
C1816 C1818 1.384 . S
C1817 C1816 1.377 . S
C1817 C1823 1.390 . S
C1818 H1809 0.930 . S
C1818 C1816 1.384 . S
C1818 C1819 1.372 . S
C1819 C1818 1.372 . S
C1819 C1820 1.400 . S
C1819 C1824 1.490 . S
C1820 H1810 0.930 . S
C1820 C1819 1.400 . S
C1820 C1823 1.386 . S
H1821 C1837 0.930 . S
H1822 C1838 0.931 . S
C1823 H1811 0.929 . S
C1823 C1817 1.390 . S
C1823 C1820 1.386 . S
C1824 C1819 1.490 . S
C1824 C1826 1.395 . S
C1824 C1827 1.403 . S
H1825 C1831 0.930 . S
C1826 H1812 0.930 . S
C1826 C1824 1.395 . S
C1826 C1829 1.403 . S
C1827 C1824 1.403 . S
C1827 C1828 1.524 . S
C1827 C1831 1.400 . S
C1828 H1813 0.960 . S
C1828 H1814 0.960 . S
C1828 H1815 0.960 . S
C1828 C1827 1.524 . S
C1829 C1826 1.403 . S
C1829 C1830 1.392 . S
C1829 C1833 1.495 . S
C1830 C1829 1.392 . S
C1830 C1831 1.385 . S
C1830 C1832 1.478 . S
C1831 H1825 0.930 . S
C1831 C1827 1.400 . S
C1831 C1830 1.385 . S
C1832 C1830 1.478 . S
C1832 C1834 1.381 . S
C1832 C1838 1.383 . S
C1833 C1829 1.495 . S
C1833 H1839 0.959 . S
C1833 H1840 0.961 . S
C1833 H1841 0.960 . S
C1834 C1832 1.381 . S
C1834 C1835 1.394 . S
C1834 H1842 0.930 . S
C1835 C1834 1.394 . S
C1835 C1836 1.383 . S
C1835 H1843 0.929 . S
C1836 C1835 1.383 . S
C1836 C1837 1.377 . S
C1837 H1821 0.930 . S
C1837 C1836 1.377 . S
C1837 C1838 1.379 . S
C1838 H1822 0.931 . S
C1838 C1832 1.383 . S
C1838 C1837 1.379 . S
H1839 C1833 0.959 . S
H1840 C1833 0.961 . S
H1841 C1833 0.960 . S
H1842 C1834 0.930 . S
H1843 C1835 0.929 . S
H1844 C1852 0.929 . S
H1845 C1854 0.930 . S
H1846 C1856 0.930 . S
H1847 C1859 0.929 . S
H1848 C1862 0.930 . S
H1849 C1864 0.960 . S
H1850 C1864 0.960 . S
H1851 C1864 0.960 . S
C1852 H1844 0.929 . S
C1852 C1853 1.377 . S
C1852 C1854 1.384 . S
C1853 C1852 1.377 . S
C1853 C1859 1.390 . S
C1854 H1845 0.930 . S
C1854 C1852 1.384 . S
C1854 C1855 1.372 . S
C1855 C1854 1.372 . S
C1855 C1856 1.400 . S
C1855 C1860 1.490 . S
C1856 H1846 0.930 . S
C1856 C1855 1.400 . S
C1856 C1859 1.386 . S
H1857 C1873 0.930 . S
H1858 C1874 0.931 . S
C1859 H1847 0.929 . S
C1859 C1853 1.390 . S
C1859 C1856 1.386 . S
C1860 C1855 1.490 . S
C1860 C1862 1.395 . S
C1860 C1863 1.403 . S
H1861 C1867 0.930 . S
C1862 H1848 0.930 . S
C1862 C1860 1.395 . S
C1862 C1865 1.403 . S
C1863 C1860 1.403 . S
C1863 C1864 1.524 . S
C1863 C1867 1.400 . S
C1864 H1849 0.960 . S
C1864 H1850 0.960 . S
C1864 H1851 0.960 . S
C1864 C1863 1.524 . S
C1865 C1862 1.403 . S
C1865 C1866 1.392 . S
C1865 C1869 1.495 . S
C1866 C1865 1.392 . S
C1866 C1867 1.385 . S
C1866 C1868 1.478 . S
C1867 H1861 0.930 . S
C1867 C1863 1.400 . S
C1867 C1866 1.385 . S
C1868 C1866 1.478 . S
C1868 C1870 1.381 . S
C1868 C1874 1.383 . S
C1869 C1865 1.495 . S
C1869 H1875 0.959 . S
C1869 H1876 0.961 . S
C1869 H1877 0.960 . S
C1870 C1868 1.381 . S
C1870 C1871 1.394 . S
C1870 H1878 0.930 . S
C1871 C1870 1.394 . S
C1871 C1872 1.383 . S
C1871 H1879 0.929 . S
C1872 C1871 1.383 . S
C1872 C1873 1.377 . S
C1873 H1857 0.930 . S
C1873 C1872 1.377 . S
C1873 C1874 1.379 . S
C1874 H1858 0.931 . S
C1874 C1868 1.383 . S
C1874 C1873 1.379 . S
H1875 C1869 0.959 . S
H1876 C1869 0.961 . S
H1877 C1869 0.960 . S
H1878 C1870 0.930 . S
H1879 C1871 0.929 . S
H1880 C1888 0.929 . S
H1881 C1890 0.930 . S
H1882 C1892 0.930 . S
H1883 C1895 0.929 . S
H1884 C1898 0.930 . S
H1885 C1900 0.960 . S
H1886 C1900 0.960 . S
H1887 C1900 0.960 . S
C1888 H1880 0.929 . S
C1888 C1889 1.377 . S
C1888 C1890 1.384 . S
C1889 C1888 1.377 . S
C1889 C1895 1.390 . S
C1890 H1881 0.930 . S
C1890 C1888 1.384 . S
C1890 C1891 1.372 . S
C1891 C1890 1.372 . S
C1891 C1892 1.400 . S
C1891 C1896 1.490 . S
C1892 H1882 0.930 . S
C1892 C1891 1.400 . S
C1892 C1895 1.386 . S
H1893 C1909 0.930 . S
H1894 C1910 0.931 . S
C1895 H1883 0.929 . S
C1895 C1889 1.390 . S
C1895 C1892 1.386 . S
C1896 C1891 1.490 . S
C1896 C1898 1.395 . S
C1896 C1899 1.403 . S
H1897 C1903 0.930 . S
C1898 H1884 0.930 . S
C1898 C1896 1.395 . S
C1898 C1901 1.403 . S
C1899 C1896 1.403 . S
C1899 C1900 1.524 . S
C1899 C1903 1.400 . S
C1900 H1885 0.960 . S
C1900 H1886 0.960 . S
C1900 H1887 0.960 . S
C1900 C1899 1.524 . S
C1901 C1898 1.403 . S
C1901 C1902 1.392 . S
C1901 C1905 1.495 . S
C1902 C1901 1.392 . S
C1902 C1903 1.385 . S
C1902 C1904 1.478 . S
C1903 H1897 0.930 . S
C1903 C1899 1.400 . S
C1903 C1902 1.385 . S
C1904 C1902 1.478 . S
C1904 C1906 1.381 . S
C1904 C1910 1.383 . S
C1905 C1901 1.495 . S
C1905 H1911 0.959 . S
C1905 H1912 0.961 . S
C1905 H1913 0.960 . S
C1906 C1904 1.381 . S
C1906 C1907 1.394 . S
C1906 H1914 0.930 . S
C1907 C1906 1.394 . S
C1907 C1908 1.383 . S
C1907 H1915 0.929 . S
C1908 C1907 1.383 . S
C1908 C1909 1.377 . S
C1909 H1893 0.930 . S
C1909 C1908 1.377 . S
C1909 C1910 1.379 . S
C1910 H1894 0.931 . S
C1910 C1904 1.383 . S
C1910 C1909 1.379 . S
H1911 C1905 0.959 . S
H1912 C1905 0.961 . S
H1913 C1905 0.960 . S
H1914 C1906 0.930 . S
H1915 C1907 0.929 . S
H1916 C1924 0.929 . S
H1917 C1926 0.930 . S
H1918 C1928 0.930 . S
H1919 C1931 0.929 . S
H1920 C1934 0.930 . S
H1921 C1936 0.960 . S
H1922 C1936 0.960 . S
H1923 C1936 0.960 . S
C1924 H1916 0.929 . S
C1924 C1925 1.377 . S
C1924 C1926 1.384 . S
C1925 C1924 1.377 . S
C1925 C1931 1.390 . S
C1926 H1917 0.930 . S
C1926 C1924 1.384 . S
C1926 C1927 1.372 . S
C1927 C1926 1.372 . S
C1927 C1928 1.400 . S
C1927 C1932 1.490 . S
C1928 H1918 0.930 . S
C1928 C1927 1.400 . S
C1928 C1931 1.386 . S
H1929 C1945 0.930 . S
H1930 C1946 0.931 . S
C1931 H1919 0.929 . S
C1931 C1925 1.390 . S
C1931 C1928 1.386 . S
C1932 C1927 1.490 . S
C1932 C1934 1.395 . S
C1932 C1935 1.403 . S
H1933 C1939 0.930 . S
C1934 H1920 0.930 . S
C1934 C1932 1.395 . S
C1934 C1937 1.403 . S
C1935 C1932 1.403 . S
C1935 C1936 1.524 . S
C1935 C1939 1.400 . S
C1936 H1921 0.960 . S
C1936 H1922 0.960 . S
C1936 H1923 0.960 . S
C1936 C1935 1.524 . S
C1937 C1934 1.403 . S
C1937 C1938 1.392 . S
C1937 C1941 1.495 . S
C1938 C1937 1.392 . S
C1938 C1939 1.385 . S
C1938 C1940 1.478 . S
C1939 H1933 0.930 . S
C1939 C1935 1.400 . S
C1939 C1938 1.385 . S
C1940 C1938 1.478 . S
C1940 C1942 1.381 . S
C1940 C1946 1.383 . S
C1941 C1937 1.495 . S
C1941 H1947 0.959 . S
C1941 H1948 0.961 . S
C1941 H1949 0.960 . S
C1942 C1940 1.381 . S
C1942 C1943 1.394 . S
C1942 H1950 0.930 . S
C1943 C1942 1.394 . S
C1943 C1944 1.383 . S
C1943 H1951 0.929 . S
C1944 C1943 1.383 . S
C1944 C1945 1.377 . S
C1945 H1929 0.930 . S
C1945 C1944 1.377 . S
C1945 C1946 1.379 . S
C1946 H1930 0.931 . S
C1946 C1940 1.383 . S
C1946 C1945 1.379 . S
H1947 C1941 0.959 . S
H1948 C1941 0.961 . S
H1949 C1941 0.960 . S
H1950 C1942 0.930 . S
H1951 C1943 0.929 . S
H1952 C1960 0.923 1_565 S
H1953 C1962 0.930 1_565 S
H1954 C1964 0.930 . S
H1955 C1967 0.929 . S
H1956 C1970 0.930 . S
H1957 C1972 0.962 . S
H1958 C1972 0.965 . S
H1959 C1972 0.954 1_545 S
C1960 H1952 0.923 1_545 S
C1960 C1961 1.377 . S
C1960 C1962 1.384 . S
C1961 C1960 1.377 . S
C1961 C1967 1.390 . S
C1962 H1953 0.930 1_545 S
C1962 C1960 1.384 . S
C1962 C1963 1.372 . S
C1963 C1962 1.372 . S
C1963 C1964 1.400 . S
C1963 C1968 1.490 . S
C1964 H1954 0.930 . S
C1964 C1963 1.400 . S
C1964 C1967 1.386 . S
H1965 C1981 0.930 1_545 S
H1966 C1982 0.924 1_545 S
C1967 H1955 0.929 . S
C1967 C1961 1.390 . S
C1967 C1964 1.386 . S
C1968 C1963 1.490 . S
C1968 C1970 1.395 . S
C1968 C1971 1.402 . S
H1969 C1975 0.930 . S
C1970 H1956 0.930 . S
C1970 C1968 1.395 . S
C1970 C1973 1.403 1_544 S
C1971 C1968 1.402 . S
C1971 C1972 1.524 1_545 S
C1971 C1975 1.400 1_544 S
C1972 H1957 0.962 . S
C1972 H1958 0.965 . S
C1972 H1959 0.954 1_565 S
C1972 C1971 1.524 1_565 S
C1973 C1970 1.403 1_566 S
C1973 C1974 1.392 . S
C1973 C1977 1.495 . S
C1974 C1973 1.392 . S
C1974 C1975 1.385 . S
C1974 C1976 1.478 . S
C1975 H1969 0.930 . S
C1975 C1971 1.400 1_566 S
C1975 C1974 1.385 . S
C1976 C1974 1.478 . S
C1976 C1978 1.381 . S
C1976 C1982 1.387 . S
C1977 C1973 1.495 . S
C1977 H1983 0.959 1_565 S
C1977 H1984 0.961 1_565 S
C1977 H1985 0.960 . S
C1978 C1976 1.381 . S
C1978 C1979 1.394 . S
C1978 H1986 0.930 . S
C1979 C1978 1.394 . S
C1979 C1980 1.383 . S
C1979 H1987 0.929 . S
C1980 C1979 1.383 . S
C1980 C1981 1.377 . S
C1981 H1965 0.930 1_565 S
C1981 C1980 1.377 . S
C1981 C1982 1.382 . S
C1982 H1966 0.924 1_565 S
C1982 C1976 1.387 . S
C1982 C1981 1.382 . S
H1983 C1977 0.959 1_545 S
H1984 C1977 0.961 1_545 S
H1985 C1977 0.960 . S
H1986 C1978 0.930 . S
H1987 C1979 0.929 . S
H1988 C1996 0.929 . S
H1989 C1998 0.930 . S
H1990 C2000 0.930 . S
H1991 C2003 0.929 . S
H1992 C2006 0.930 . S
H1993 C2008 0.960 1_554 S
H1994 C2008 0.960 . S
H1995 C2008 0.960 . S
C1996 H1988 0.929 . S
C1996 C1997 1.377 . S
C1996 C1998 1.384 . S
C1997 C1996 1.377 . S
C1997 C2003 1.390 . S
C1998 H1989 0.930 . S
C1998 C1996 1.384 . S
C1998 C1999 1.372 . S
C1999 C1998 1.372 . S
C1999 C2000 1.400 . S
C1999 C2004 1.490 . S
C2000 H1990 0.930 . S
C2000 C1999 1.400 . S
C2000 C2003 1.386 . S
H2001 C2017 0.930 . S
H2002 C2018 0.931 . S
C2003 H1991 0.929 . S
C2003 C1997 1.390 . S
C2003 C2000 1.386 . S
C2004 C1999 1.490 . S
C2004 C2006 1.395 1_455 S
C2004 C2007 1.403 . S
H2005 C2011 0.930 . S
C2006 H1992 0.930 . S
C2006 C2004 1.395 1_655 S
C2006 C2009 1.403 1_556 S
C2007 C2004 1.403 . S
C2007 C2008 1.524 . S
C2007 C2011 1.400 1_556 S
C2008 H1993 0.960 1_556 S
C2008 H1994 0.960 . S
C2008 H1995 0.960 . S
C2008 C2007 1.524 . S
C2009 C2006 1.403 1_554 S
C2009 C2010 1.392 . S
C2009 C2013 1.495 . S
C2010 C2009 1.392 . S
C2010 C2011 1.385 1_655 S
C2010 C2012 1.478 . S
C2011 H2005 0.930 . S
C2011 C2007 1.400 1_554 S
C2011 C2010 1.385 1_455 S
C2012 C2010 1.478 . S
C2012 C2014 1.381 . S
C2012 C2018 1.383 . S
C2013 C2009 1.495 . S
C2013 H2019 0.959 1_554 S
C2013 H2020 0.961 . S
C2013 H2021 0.960 . S
C2014 C2012 1.381 . S
C2014 C2015 1.394 . S
C2014 H2022 0.930 . S
C2015 C2014 1.394 . S
C2015 C2016 1.383 . S
C2015 H2023 0.929 . S
C2016 C2015 1.383 . S
C2016 C2017 1.377 . S
C2017 H2001 0.930 . S
C2017 C2016 1.377 . S
C2017 C2018 1.379 . S
C2018 H2002 0.931 . S
C2018 C2012 1.383 . S
C2018 C2017 1.379 . S
H2019 C2013 0.959 1_556 S
H2020 C2013 0.961 . S
H2021 C2013 0.960 . S
H2022 C2014 0.930 . S
H2023 C2015 0.929 . S
H2024 C2032 0.929 . S
H2025 C2034 0.930 . S
H2026 C2036 0.930 . S
H2027 C2039 0.929 . S
H2028 C2042 0.930 . S
H2029 C2044 0.960 . S
H2030 C2044 0.960 . S
H2031 C2044 0.960 . S
C2032 H2024 0.929 . S
C2032 C2033 1.377 . S
C2032 C2034 1.384 . S
C2033 C2032 1.377 . S
C2033 C2039 1.390 . S
C2034 H2025 0.930 . S
C2034 C2032 1.384 . S
C2034 C2035 1.372 . S
C2035 C2034 1.372 . S
C2035 C2036 1.400 . S
C2035 C2040 1.490 . S
C2036 H2026 0.930 . S
C2036 C2035 1.400 . S
C2036 C2039 1.386 . S
H2037 C2053 0.930 . S
H2038 C2054 0.931 1_545 S
C2039 H2027 0.929 . S
C2039 C2033 1.390 . S
C2039 C2036 1.386 . S
C2040 C2035 1.490 . S
C2040 C2042 1.395 . S
C2040 C2043 1.403 1_545 S
H2041 C2047 0.930 . S
C2042 H2028 0.930 . S
C2042 C2040 1.395 . S
C2042 C2045 1.403 1_556 S
C2043 C2040 1.403 1_565 S
C2043 C2044 1.524 . S
C2043 C2047 1.400 1_556 S
C2044 H2029 0.960 . S
C2044 H2030 0.960 . S
C2044 H2031 0.960 . S
C2044 C2043 1.524 . S
C2045 C2042 1.403 1_554 S
C2045 C2046 1.392 1_545 S
C2045 C2049 1.495 . S
C2046 C2045 1.392 1_565 S
C2046 C2047 1.385 . S
C2046 C2048 1.478 . S
C2047 H2041 0.930 . S
C2047 C2043 1.400 1_554 S
C2047 C2046 1.385 . S
C2048 C2046 1.478 . S
C2048 C2050 1.381 . S
C2048 C2054 1.383 . S
C2049 C2045 1.495 . S
C2049 H2055 0.959 . S
C2049 H2056 0.961 . S
C2049 H2057 0.960 . S
C2050 C2048 1.381 . S
C2050 C2051 1.394 . S
C2050 H2058 0.930 . S
C2051 C2050 1.394 . S
C2051 C2052 1.383 . S
C2051 H2059 0.929 . S
C2052 C2051 1.383 . S
C2052 C2053 1.377 . S
C2053 H2037 0.930 . S
C2053 C2052 1.377 . S
C2053 C2054 1.379 . S
C2054 H2038 0.931 1_565 S
C2054 C2048 1.383 . S
C2054 C2053 1.379 . S
H2055 C2049 0.959 . S
H2056 C2049 0.961 . S
H2057 C2049 0.960 . S
H2058 C2050 0.930 . S
H2059 C2051 0.929 . S
H2060 C2068 0.929 . S
H2061 C2070 0.930 1_455 S
H2062 C2072 0.930 . S
H2063 C2075 0.929 . S
H2064 C2078 0.930 . S
H2065 C2080 0.960 1_554 S
H2066 C2080 0.960 . S
H2067 C2080 0.960 . S
C2068 H2060 0.929 . S
C2068 C2069 1.377 . S
C2068 C2070 1.384 . S
C2069 C2068 1.377 . S
C2069 C2075 1.390 . S
C2070 H2061 0.930 1_655 S
C2070 C2068 1.384 . S
C2070 C2071 1.372 . S
C2071 C2070 1.372 . S
C2071 C2072 1.400 . S
C2071 C2076 1.490 . S
C2072 H2062 0.930 . S
C2072 C2071 1.400 . S
C2072 C2075 1.386 . S
H2073 C2089 0.930 . S
H2074 C2090 0.953 . S
C2075 H2063 0.929 . S
C2075 C2069 1.390 . S
C2075 C2072 1.386 . S
C2076 C2071 1.490 . S
C2076 C2078 1.395 1_655 S
C2076 C2079 1.403 . S
H2077 C2083 0.930 . S
C2078 H2064 0.930 . S
C2078 C2076 1.395 1_455 S
C2078 C2081 1.403 1_556 S
C2079 C2076 1.403 . S
C2079 C2080 1.524 . S
C2079 C2083 1.400 1_556 S
C2080 H2065 0.960 1_556 S
C2080 H2066 0.960 . S
C2080 H2067 0.960 . S
C2080 C2079 1.524 . S
C2081 C2078 1.403 1_554 S
C2081 C2082 1.392 . S
C2081 C2085 1.495 . S
C2082 C2081 1.392 . S
C2082 C2083 1.385 1_455 S
C2082 C2084 1.478 . S
C2083 H2077 0.930 . S
C2083 C2079 1.400 1_554 S
C2083 C2082 1.385 1_655 S
C2084 C2082 1.478 . S
C2084 C2086 1.381 . S
C2084 C2090 1.383 . S
C2085 C2081 1.495 . S
C2085 H2091 0.959 1_554 S
C2085 H2092 0.961 . S
C2085 H2093 0.960 . S
C2086 C2084 1.381 . S
C2086 C2087 1.394 . S
C2086 H2094 0.930 . S
C2087 C2086 1.394 . S
C2087 C2088 1.383 . S
C2087 H2095 0.929 . S
C2088 C2087 1.383 . S
C2088 C2089 1.377 . S
C2089 H2073 0.930 . S
C2089 C2088 1.377 . S
C2089 C2090 1.379 . S
C2090 H2074 0.953 . S
C2090 C2084 1.383 . S
C2090 C2089 1.379 . S
H2091 C2085 0.959 1_556 S
H2092 C2085 0.961 . S
H2093 C2085 0.960 . S
H2094 C2086 0.930 . S
H2095 C2087 0.929 . S
C953 C5 1.329 . S
C972 C418 1.320 . S
C989 C64 1.328 . S
C1008 C241 1.319 . S
C1025 C300 1.327 . S
C1044 C123 1.323 . S
C1061 C182 1.328 . S
C1080 C359 1.320 . S
C1097 C477 1.329 . S
C1116 C890 1.319 . S
C1133 C713 1.328 . S
C1152 C536 1.332 . S
C1169 C772 1.328 . S
C1188 C595 1.321 . S
C1205 C831 1.329 . S
C1224 C654 1.318 . S
C1241 C52 1.521 . S
C1260 C682 1.524 . S
C1277 C111 1.523 . S
C1296 C505 1.523 . S
C1313 C564 1.521 . S
C1332 C170 1.517 . S
C1349 C229 1.521 . S
C1368 C623 1.511 . S
C1385 C288 1.523 . S
C1404 C800 1.511 . S
C1421 C859 1.522 . S
C1440 C347 1.519 . S
C1457 C406 1.521 . S
C1476 C918 1.524 . S
C1493 C741 1.521 . S
C1512 C465 1.523 . S
C1529 C524 1.557 . S
C1548 C210 1.524 . S
C1565 C33 1.520 . S
C1584 C583 1.542 . S
C1601 C642 1.549 . S
C1620 C92 1.523 . S
C1637 C151 1.519 . S
C1656 C701 1.528 . S
C1673 C760 1.544 . S
C1692 C328 1.514 . S
C1709 C387 1.519 . S
C1728 C819 1.514 . S
C1745 C446 1.521 . S
C1764 C878 1.517 . S
C1781 C269 1.520 . S
C1800 C937 1.517 1_455 S
C1817 C239 1.661 . S
C1836 C3 1.649 . S
C1853 C298 1.665 . S
C1872 C62 1.649 . S
C1889 C121 1.662 . S
C1908 C357 1.666 . S
C1925 C416 1.664 . S
C1944 C180 1.650 . S
C1961 C711 1.662 . S
C1980 C475 1.649 . S
C1997 C770 1.662 . S
C2016 C534 1.659 . S
C2033 C593 1.661 . S
C2052 C829 1.649 . S
C2069 C888 1.661 . S
C2088 C652 1.667 . S
