# Generated by pormake.
# Topology lvt, (4)-cn, num edge types: 1
# Building blocks:
#     Node 0, Type 0, BuildingBlock: ESEHIV_clean_sbu_0, # of connection points: 4
#     Node 1, Type 0, BuildingBlock: ESEHIV_clean_sbu_0, # of connection points: 4
#     Node 2, Type 0, BuildingBlock: ESEHIV_clean_sbu_0, # of connection points: 4
#     Node 3, Type 0, BuildingBlock: ESEHIV_clean_sbu_0, # of connection points: 4
#     Node 4, Type 0, BuildingBlock: ESEHIV_clean_sbu_0, # of connection points: 4
#     Node 5, Type 0, BuildingBlock: ESEHIV_clean_sbu_0, # of connection points: 4
#     Node 6, Type 0, BuildingBlock: ESEHIV_clean_sbu_0, # of connection points: 4
#     Node 7, Type 0, BuildingBlock: ESEHIV_clean_sbu_0, # of connection points: 4
#     Edge 8, Type (0, 0), BuildingBlock: UVAHIK_clean_linker_0, # of connection points: 2
#     Edge 9, Type (0, 0), BuildingBlock: UVAHIK_clean_linker_0, # of connection points: 2
#     Edge 10, Type (0, 0), BuildingBlock: UVAHIK_clean_linker_0, # of connection points: 2
#     Edge 11, Type (0, 0), BuildingBlock: UVAHIK_clean_linker_0, # of connection points: 2
#     Edge 12, Type (0, 0), BuildingBlock: UVAHIK_clean_linker_0, # of connection points: 2
#     Edge 13, Type (0, 0), BuildingBlock: UVAHIK_clean_linker_0, # of connection points: 2
#     Edge 14, Type (0, 0), BuildingBlock: UVAHIK_clean_linker_0, # of connection points: 2
#     Edge 15, Type (0, 0), BuildingBlock: UVAHIK_clean_linker_0, # of connection points: 2
#     Edge 16, Type (0, 0), BuildingBlock: UVAHIK_clean_linker_0, # of connection points: 2
#     Edge 17, Type (0, 0), BuildingBlock: UVAHIK_clean_linker_0, # of connection points: 2
#     Edge 18, Type (0, 0), BuildingBlock: UVAHIK_clean_linker_0, # of connection points: 2
#     Edge 19, Type (0, 0), BuildingBlock: UVAHIK_clean_linker_0, # of connection points: 2
#     Edge 20, Type (0, 0), BuildingBlock: UVAHIK_clean_linker_0, # of connection points: 2
#     Edge 21, Type (0, 0), BuildingBlock: UVAHIK_clean_linker_0, # of connection points: 2
#     Edge 22, Type (0, 0), BuildingBlock: UVAHIK_clean_linker_0, # of connection points: 2
#     Edge 23, Type (0, 0), BuildingBlock: UVAHIK_clean_linker_0, # of connection points: 2
# Relax obj value: 0.002
# Max RMSD: 0.097
# Mean RMSD: 0.093
data_MOF--net-lvt--node1-ESEHIV_clean_sbu_0--edge1-UVAHIK_clean_linker_0
_symmetry_space_group_name_H-M    P1
_symmetry_Int_Tables_number       1
_symmetry_cell_setting            triclinic
loop_
_symmetry_equiv_pos_as_xyz
'x, y, z'
_cell_length_a     49.442513
_cell_length_b     49.282668
_cell_length_c     41.152175
_cell_angle_alpha  95.055215
_cell_angle_beta   90.365641
_cell_angle_gamma 94.714683
loop_
_atom_site_label
_atom_site_type_symbol
_atom_site_fract_x
_atom_site_fract_y
_atom_site_fract_z
_atom_type_partial_charge
Cu0 Cu 0.04923 0.01807 0.51317 0.0
N1 N 0.06758 0.9868 0.51734 0.0
N2 N 0.08898 0.95577 0.54205 0.0
C3 C 0.07761 0.97986 0.54568 0.0
C4 C 0.08596 0.9473 0.50999 0.0
C5 C 0.07266 0.96642 0.49486 0.0
O6 O 0.02614 0.02072 0.55133 0.0
C7 C 0.09066 0.04585 0.48359 0.0
O8 O 0.08859 0.02194 0.46652 0.0
H9 H 0.07659 0.9924 0.56851 0.0
H10 H 0.06687 0.96538 0.46936 0.0
N11 N 0.02732 1.01509 0.47565 0.0
N12 N 1.00223 0.02995 0.43653 0.0
C13 C 0.02033 0.03692 0.4611 0.0
C14 C 1.01345 0.99331 0.4595 0.0
C15 C 0.99799 1.00245 0.43515 0.0
C16 C 1.00176 0.02726 0.55081 0.0
O17 O 0.9929 0.03845 0.52541 0.0
H18 H 0.02779 0.05769 0.46924 0.0
H19 H 1.01376 0.97247 0.46573 0.0
O20 O 0.07544 0.04924 0.50827 0.0
H21 H 0.09234 0.92836 0.49837 0.0
H22 H 0.98378 0.99 0.41884 0.0
Cu23 Cu 0.27599 0.77721 0.81964 0.0
N24 N 0.24504 0.79626 0.81601 0.0
N25 N 0.21476 0.8193 0.79141 0.0
C26 C 0.23908 0.80867 0.78931 0.0
C27 C 0.2051 0.81338 0.82084 0.0
C28 C 0.22377 0.79902 0.83589 0.0
O29 O 0.27253 0.74876 0.78345 0.0
C30 C 0.3073 0.82478 0.83922 0.0
O31 O 0.28427 0.8297 0.85339 0.0
H32 H 0.2524 0.8096 0.76861 0.0
H33 H 0.22165 0.79063 0.85924 0.0
N34 N 0.27848 0.75965 0.85786 0.0
N35 N 0.2947 0.73055 0.89037 0.0
C36 C 0.29225 0.73737 0.85954 0.0
C37 C 0.27207 0.76749 0.88881 0.0
C38 C 0.28206 0.7495 0.90899 0.0
C39 C 0.25466 0.72926 0.78778 0.0
O40 O 0.24132 0.72973 0.81528 0.0
H41 H 0.30163 0.72729 0.83861 0.0
H42 H 0.26202 0.78564 0.89634 0.0
O43 O 0.30838 0.80276 0.82066 0.0
H44 H 0.18558 0.81825 0.83042 0.0
H45 H 0.28072 0.7507 0.93531 0.0
Cu46 Cu 0.54621 0.04457 0.04175 0.0
N47 N 0.57616 0.04695 0.01432 0.0
N48 N 0.61299 0.03387 0.98797 0.0
C49 C 0.59267 0.02678 1.00812 0.0
C50 C 0.60902 0.0596 0.98124 0.0
C51 C 0.58632 0.06766 0.99764 0.0
O52 O 0.5233 1.01166 0.02616 0.0
C53 C 0.5737 0.07011 0.09402 0.0
O54 O 0.5758 0.08822 0.0724 0.0
H55 H 0.5895 1.00713 0.01795 0.0
H56 H 0.578 0.08727 0.99761 0.0
N57 N 0.52493 0.07427 0.04122 0.0
N58 N 0.49915 0.1069 0.06146 0.0
C59 C 0.51243 0.08503 0.06771 0.0
C60 C 0.51921 0.08964 0.01705 0.0
C61 C 0.50334 0.10983 0.02947 0.0
C62 C 0.51766 1.01018 0.9957 0.0
O63 O 0.52766 0.03 0.97881 0.0
H64 H 0.51386 0.0773 0.09141 0.0
H65 H 0.52624 0.08659 0.99227 0.0
O66 O 0.56108 0.0468 0.08607 0.0
H67 H 0.62179 0.07191 0.96597 0.0
H68 H 0.4955 0.12535 0.01587 0.0
Cu69 Cu 0.28903 0.30121 0.28211 0.0
N70 N 0.25883 0.27568 0.27908 0.0
N71 N 0.22801 0.24443 0.29605 0.0
C72 C 0.24693 0.26507 0.30501 0.0
C73 C 0.22792 0.24202 0.2631 0.0
C74 C 0.24691 0.26142 0.25268 0.0
O75 O 0.28504 0.32482 0.322 0.0
C76 C 0.32604 0.27163 0.24942 0.0
O77 O 0.30841 0.27467 0.22629 0.0
H78 H 0.25318 0.27134 0.32999 0.0
H79 H 0.2524 0.26416 0.22772 0.0
N80 N 0.29136 0.32465 0.24859 0.0
N81 N 0.31058 0.35711 0.21951 0.0
C82 C 0.31342 0.34183 0.24473 0.0
C83 C 0.27372 0.3291 0.22497 0.0
C84 C 0.28553 0.3493 0.20701 0.0
C85 C 0.26508 0.33939 0.31979 0.0
O86 O 0.25 0.33603 0.29313 0.0
H87 H 0.33113 0.34327 0.26058 0.0
H88 H 0.25373 0.31859 0.2212 0.0
O89 O 0.32164 0.28134 0.2785 0.0
H90 H 0.21551 0.22688 0.24768 0.0
H91 H 0.27655 0.35731 0.18618 0.0
Cu92 Cu 0.80308 0.27571 0.28348 0.0
N93 N 0.79886 0.3021 0.2541 0.0
N94 N 0.78105 0.32959 0.22063 0.0
C95 C 0.7766 0.3071 0.23712 0.0
C96 C 0.80714 0.33882 0.22727 0.0
C97 C 0.81802 0.32184 0.24779 0.0
O98 O 0.77218 0.24861 0.28232 0.0
C99 C 0.80668 0.31719 0.33734 0.0
O100 O 0.79023 0.3301 0.32011 0.0
H101 H 0.75734 0.29507 0.23763 0.0
H102 H 0.83835 0.32405 0.25808 0.0
N103 N 0.83238 0.2558 0.27145 0.0
N104 N 0.86367 0.22602 0.27577 0.0
C105 C 0.8455 0.24115 0.29164 0.0
C106 C 0.84257 0.24989 0.24167 0.0
C107 C 0.86192 0.23144 0.24425 0.0
C108 C 0.74717 0.25223 0.28596 0.0
O109 O 0.73974 0.27701 0.2932 0.0
H110 H 0.84073 0.24055 0.31722 0.0
H111 H 0.83574 0.25768 0.21954 0.0
O112 O 0.81256 0.29336 0.32676 0.0
H113 H 0.81762 0.35667 0.21808 0.0
H114 H 0.87341 0.22239 0.22442 0.0
Cu115 Cu 0.78107 0.80366 0.77089 0.0
N116 N 0.7491 0.78059 0.77217 0.0
N117 N 0.71809 0.75123 0.79249 0.0
C118 C 0.74011 0.76901 0.79899 0.0
C119 C 0.71295 0.75176 0.76029 0.0
C120 C 0.73207 0.76992 0.74785 0.0
O121 O 0.78148 0.82915 0.80996 0.0
C122 C 0.81044 0.76711 0.73713 0.0
O123 O 0.78903 0.76831 0.71841 0.0
H124 H 0.75034 0.77262 0.82249 0.0
H125 H 0.73394 0.77419 0.72262 0.0
N126 N 0.78305 0.82527 0.73554 0.0
N127 N 0.80235 0.85513 0.70292 0.0
C128 C 0.80563 0.84085 0.72899 0.0
C129 C 0.76461 0.82977 0.71285 0.0
C130 C 0.77647 0.84822 0.69268 0.0
C131 C 0.76335 0.84601 0.80871 0.0
O132 O 0.74702 0.84387 0.78316 0.0
H133 H 0.82396 0.84202 0.74372 0.0
H134 H 0.74394 0.82069 0.7113 0.0
O135 O 0.81159 0.781 0.76485 0.0
H136 H 0.69685 0.73952 0.74658 0.0
H137 H 0.76678 0.8558 0.67204 0.0
Cu138 Cu 0.5474 0.52312 0.01938 0.0
N139 N 0.51774 0.52147 0.99075 0.0
N140 N 0.48143 0.53713 0.96825 0.0
C141 C 0.50431 0.54353 0.9863 0.0
C142 C 0.48053 0.50982 0.9608 0.0
C143 C 0.50286 0.50015 0.975 0.0
O144 O 0.57095 0.555 1.00941 0.0
C145 C 0.52162 0.50176 0.07164 0.0
O146 O 0.5252 0.47927 0.05319 0.0
H147 H 0.51092 0.56385 0.99705 0.0
H148 H 0.50712 0.479 0.97518 0.0
N149 N 0.56782 0.49251 0.01444 0.0
N150 N 0.59603 0.46185 0.02786 0.0
C151 C 0.58575 0.48594 0.03669 0.0
C152 C 0.56698 0.47204 0.99043 0.0
C153 C 0.58427 0.45305 0.99871 0.0
C154 C 0.57928 0.55305 0.9801 0.0
O155 O 0.57187 0.53059 0.96146 0.0
H156 H 0.59032 0.49814 0.05953 0.0
H157 H 0.5545 0.47083 0.96862 0.0
O158 O 0.53098 0.52469 0.06243 0.0
H159 H 0.46422 0.49753 0.94752 0.0
H160 H 0.5879 0.43424 0.98438 0.0
Cu161 Cu 0.03098 0.53346 0.54373 0.0
N162 N 1.01517 0.56638 0.5417 0.0
N163 N 0.99342 0.60279 0.55933 0.0
C164 C 1.00265 0.57909 0.56694 0.0
C165 C 1.00048 0.60507 0.52796 0.0
C166 C 1.01403 0.58263 0.5172 0.0
O167 O 0.05715 0.54016 0.57976 0.0
C168 C 1.00385 0.48003 0.53899 0.0
O169 O 0.02818 0.4719 0.5335 0.0
H170 H 1.00016 0.57087 0.59037 0.0
H171 H 0.02267 0.57869 0.49337 0.0
N172 N 0.05024 0.52348 0.50615 0.0
N173 N 0.08213 0.50456 0.47556 0.0
C174 C 0.07336 0.51081 0.50605 0.0
C175 C 0.04392 0.52508 0.47457 0.0
C176 C 0.0637 0.51359 0.45561 0.0
C177 C 0.07742 0.55662 0.57374 0.0
O178 O 0.07862 0.56674 0.54525 0.0
H179 H 0.08343 0.50616 0.52806 0.0
H180 H 0.02588 0.53332 0.4659 0.0
O181 O 1.00142 0.50522 0.54729 0.0
H182 H 0.99655 0.62194 0.51396 0.0
H183 H 0.06399 0.51128 0.42921 0.0
C184 C 0.12495 0.06291 0.44453 0.0
C185 C 0.10816 0.06858 0.4713 0.0
C186 C 0.13946 0.08393 0.42994 0.0
C187 C 0.14007 0.15783 0.4197 0.0
H188 H 0.20862 0.14469 0.3783 0.0
C189 C 0.20541 0.23699 0.34842 0.0
C190 C 0.21365 0.22669 0.3174 0.0
C191 C 0.19283 0.21948 0.36988 0.0
C192 C 0.18946 0.14862 0.38968 0.0
H193 H 0.09419 0.10099 0.50441 0.0
H194 H 0.12021 0.13803 0.47922 0.0
H195 H 0.18796 0.11167 0.41331 0.0
H196 H 0.21516 0.19 0.2846 0.0
H197 H 0.1936 0.15937 0.32221 0.0
H198 H 0.14206 0.19513 0.39609 0.0
C199 C 0.1217 0.11714 0.46921 0.0
C200 C 0.17753 0.12967 0.4097 0.0
C201 C 0.10698 0.09593 0.48386 0.0
C202 C 0.20881 0.19857 0.30818 0.0
C203 C 0.19671 0.18102 0.32982 0.0
C204 C 0.15229 0.17705 0.39998 0.0
C205 C 0.1379 0.11139 0.44177 0.0
C206 C 0.15227 0.13357 0.42426 0.0
C207 C 0.18875 0.19126 0.36096 0.0
C208 C 0.17676 0.17226 0.38412 0.0
H209 H 0.12639 0.04213 0.4341 0.0
H210 H 0.15118 0.07856 0.40855 0.0
H211 H 0.12055 0.16148 0.43022 0.0
H212 H 0.20877 0.2586 0.35606 0.0
H213 H 0.18692 0.2279 0.39374 0.0
C214 C 0.09407 0.94693 0.60013 0.0
C215 C 0.10129 0.94192 0.56724 0.0
C216 C 0.10608 0.9337 0.62456 0.0
C217 C 0.16651 0.89728 0.64204 0.0
H218 H 0.123 0.87108 0.7127 0.0
C219 C 0.20829 0.82823 0.73361 0.0
C220 C 0.2016 0.83298 0.7667 0.0
C221 C 0.19587 0.84162 0.70967 0.0
C222 C 0.13553 0.87855 0.69337 0.0
H223 H 0.127 0.91897 0.53451 0.0
H224 H 0.1476 0.89559 0.57696 0.0
H225 H 0.10176 0.89396 0.67021 0.0
H226 H 0.17645 0.85575 0.80034 0.0
H227 H 0.15478 0.87914 0.75856 0.0
H228 H 0.20028 0.88189 0.66515 0.0
C229 C 0.13283 0.91001 0.58391 0.0
C230 C 0.12333 0.89168 0.66896 0.0
C231 C 0.12077 0.92321 0.55946 0.0
C232 C 0.18192 0.85135 0.77513 0.0
C233 C 0.16947 0.86477 0.75112 0.0
C234 C 0.1787 0.88417 0.66643 0.0
C235 C 0.12567 0.9151 0.6168 0.0
C236 C 0.13865 0.90117 0.64291 0.0
C237 C 0.17637 0.86015 0.71807 0.0
C238 C 0.16337 0.87454 0.69239 0.0
H239 H 0.07893 0.96091 0.60709 0.0
H240 H 0.10024 0.93834 0.64962 0.0
H241 H 0.17906 0.90474 0.62271 0.0
H242 H 0.22287 0.81383 0.726 0.0
H243 H 0.20131 0.83711 0.68443 0.0
C244 C 0.48427 0.96832 0.99595 0.0
C245 C 0.49946 0.98771 0.97886 0.0
C246 C 0.46563 0.94877 0.97924 0.0
C247 C 0.4239 0.93951 0.90392 0.0
H248 H 0.41333 0.86335 0.92135 0.0
C249 C 0.32877 0.87025 0.86108 0.0
C250 C 0.33181 0.84321 0.84865 0.0
C251 C 0.35088 0.88698 0.87459 0.0
C252 C 0.41626 0.88451 0.91601 0.0
H253 H 0.5079 1.00076 0.93061 0.0
H254 H 0.47585 0.967 0.90196 0.0
H255 H 0.44896 0.89355 0.95097 0.0
H256 H 0.36065 0.81263 0.84007 0.0
H257 H 0.39959 0.84204 0.86399 0.0
H258 H 0.39123 0.93073 0.86926 0.0
C259 C 0.47783 0.96709 0.9282 0.0
C260 C 0.43643 0.90185 0.93323 0.0
C261 C 0.49633 0.98644 0.94474 0.0
C262 C 0.35774 0.83347 0.84917 0.0
C263 C 0.37993 0.85018 0.86319 0.0
C264 C 0.40369 0.92231 0.88699 0.0
C265 C 0.46183 0.94836 0.94522 0.0
C266 C 0.44046 0.92957 0.92737 0.0
C267 C 0.37663 0.87704 0.87639 0.0
C268 C 0.3995 0.89465 0.8929 0.0
H269 H 0.48624 0.96871 0.02221 0.0
H270 H 0.45354 0.93463 0.99307 0.0
H271 H 0.42625 0.9608 0.89901 0.0
H272 H 0.30904 0.87833 0.86112 0.0
H273 H 0.34757 0.90745 0.88474 0.0
C274 C 0.36361 0.26518 0.21098 0.0
C275 C 0.35097 0.25862 0.24003 0.0
C276 C 0.38416 0.25004 0.19785 0.0
C277 C 0.40461 0.18091 0.19227 0.0
H278 H 0.46677 0.2127 0.14775 0.0
C279 C 0.47547 0.11422 0.11415 0.0
C280 C 0.48459 0.12393 0.0846 0.0
C281 C 0.46197 0.13083 0.13692 0.0
C282 C 0.44939 0.20347 0.15982 0.0
H283 H 0.35037 0.23175 0.27889 0.0
H284 H 0.38638 0.2046 0.25548 0.0
H285 H 0.43971 0.24211 0.18285 0.0
H286 H 0.48648 0.15909 0.05621 0.0
H287 H 0.46223 0.18765 0.0953 0.0
H288 H 0.41351 0.14244 0.16825 0.0
C289 C 0.38042 0.22172 0.24308 0.0
C290 C 0.43402 0.22032 0.18014 0.0
C291 C 0.36006 0.23733 0.25662 0.0
C292 C 0.47963 0.15072 0.07844 0.0
C293 C 0.46602 0.1673 0.10118 0.0
C294 C 0.41989 0.16405 0.17177 0.0
C295 C 0.39228 0.22762 0.21318 0.0
C296 C 0.41112 0.20932 0.19604 0.0
C297 C 0.45706 0.15761 0.13077 0.0
C298 C 0.44214 0.1752 0.15471 0.0
H299 H 0.35688 0.28149 0.19771 0.0
H300 H 0.39262 0.25497 0.17466 0.0
H301 H 0.38687 0.17186 0.20383 0.0
H302 H 0.47851 0.09365 0.11975 0.0
H303 H 0.45559 0.12271 0.15951 0.0
C304 C 0.99026 0.99908 0.59752 0.0
C305 C 0.98204 1.01624 0.5744 0.0
C306 C 0.97101 0.98424 0.61518 0.0
C307 C 0.89823 0.97691 0.63778 0.0
H308 H 0.9109 0.90034 0.63831 0.0
C309 C 0.81449 0.89477 0.67099 0.0
C310 C 0.82235 0.874 0.68952 0.0
C311 C 0.83398 0.9133 0.65866 0.0
C312 C 0.90715 0.92172 0.63885 0.0
H313 H 0.94713 0.03271 0.55355 0.0
H314 H 0.91364 1.00686 0.58437 0.0
H315 H 0.94505 0.93175 0.61626 0.0
H316 H 0.85717 0.85631 0.70894 0.0
H317 H 0.89085 0.88883 0.68831 0.0
H318 H 0.86019 0.96675 0.66026 0.0
C319 C 0.93496 1.00485 0.58882 0.0
C320 C 0.92681 0.93978 0.62622 0.0
C321 C 0.95421 0.01965 0.57108 0.0
C322 C 0.85022 0.87219 0.69521 0.0
C323 C 0.86965 0.8907 0.68298 0.0
C324 C 0.87856 0.95883 0.65056 0.0
C325 C 0.9431 0.98627 0.61027 0.0
C326 C 0.9226 0.96758 0.62543 0.0
C327 C 0.86183 0.91151 0.66451 0.0
C328 C 0.88274 0.93096 0.65116 0.0
H329 H 1.01151 0.99603 0.60087 0.0
H330 H 0.97799 0.97053 0.63202 0.0
H331 H 0.89444 0.99824 0.63776 0.0
H332 H 0.79327 0.89697 0.66631 0.0
H333 H 0.82721 0.92885 0.64421 0.0
C334 C 0.98329 0.07446 0.43317 0.0
C335 C 0.98822 0.0485 0.4185 0.0
C336 C 0.96966 0.09255 0.4161 0.0
C337 C 0.95255 0.10976 0.33388 0.0
H338 H 0.89758 0.14961 0.37932 0.0
C339 C 0.88601 0.18263 0.27089 0.0
C340 C 0.87954 0.20646 0.28956 0.0
C341 C 0.89955 0.1627 0.2852 0.0
C342 C 0.91311 0.13895 0.36635 0.0
H343 H 0.98277 0.02128 0.37428 0.0
H344 H 0.95884 0.05314 0.34418 0.0
H345 H 0.92006 0.1157 0.40666 0.0
H346 H 0.88351 0.2287 0.33737 0.0
H347 H 0.90741 0.19435 0.36217 0.0
H348 H 0.94585 0.13339 0.29369 0.0
C349 C 0.96567 0.05938 0.36897 0.0
C350 C 0.92593 0.11941 0.38202 0.0
C351 C 0.97916 0.04108 0.38624 0.0
C352 C 0.88772 0.21033 0.32251 0.0
C353 C 0.90135 0.19056 0.33673 0.0
C354 C 0.93979 0.12948 0.3182 0.0
C355 C 0.96066 0.08527 0.38383 0.0
C356 C 0.946 0.1048 0.36614 0.0
C357 C 0.90703 0.16625 0.31845 0.0
C358 C 0.92013 0.14456 0.33441 0.0
H359 H 0.98961 0.0807 0.45812 0.0
H360 H 0.96636 0.11243 0.42816 0.0
H361 H 0.96809 0.09897 0.3211 0.0
H362 H 0.87978 0.17892 0.24552 0.0
H363 H 0.90339 0.14417 0.27043 0.0
C364 C 0.69931 0.23283 0.27264 0.0
C365 C 0.7267 0.22874 0.27817 0.0
C366 C 0.68088 0.21088 0.26122 0.0
C367 C 0.68034 0.14322 0.21474 0.0
H368 H 0.60366 0.13892 0.23454 0.0
C369 C 0.60586 0.06598 0.14013 0.0
C370 C 0.58439 0.07864 0.1271 0.0
C371 C 0.62126 0.07925 0.16655 0.0
C372 C 0.62505 0.13975 0.22885 0.0
H373 H 0.75578 0.19806 0.27801 0.0
H374 H 0.72365 0.15989 0.2588 0.0
H375 H 0.63487 0.17265 0.26572 0.0
H376 H 0.5608 0.1138 0.13241 0.0
H377 H 0.58709 0.13665 0.17852 0.0
H378 H 0.67049 0.11105 0.17718 0.0
C379 C 0.71648 0.1801 0.26245 0.0
C380 C 0.64293 0.15918 0.24662 0.0
C381 C 0.7349 0.20202 0.27365 0.0
C382 C 0.57714 0.10354 0.14236 0.0
C383 C 0.59223 0.11661 0.16883 0.0
C384 C 0.6625 0.12379 0.19705 0.0
C385 C 0.68938 0.18432 0.25525 0.0
C386 C 0.67072 0.16163 0.23925 0.0
C387 C 0.61521 0.10524 0.18037 0.0
C388 C 0.63452 0.12228 0.20328 0.0
H389 H 0.69233 0.25314 0.2758 0.0
H390 H 0.66025 0.21499 0.25567 0.0
H391 H 0.70151 0.14468 0.20799 0.0
H392 H 0.61205 0.04698 0.12837 0.0
H393 H 0.6387 0.06984 0.17509 0.0
C394 C 0.64204 0.99582 0.9935 0.0
C395 C 0.63409 0.01715 0.97593 0.0
C396 C 0.66164 0.97886 0.9812 0.0
C397 C 0.71597 0.97355 0.91932 0.0
H398 H 0.70032 0.89547 0.92287 0.0
C399 C 0.75357 0.89355 0.82527 0.0
C400 C 0.75986 0.86805 0.83455 0.0
C401 C 0.74456 0.91322 0.84815 0.0
C402 C 0.70538 0.91722 0.9223 0.0
H403 H 0.64082 0.03742 0.93168 0.0
H404 H 0.6748 1.00784 0.91014 0.0
H405 H 0.67142 0.92706 0.95175 0.0
H406 H 0.76281 0.84336 0.87516 0.0
H407 H 0.74656 0.87793 0.91564 0.0
H408 H 0.74927 0.96358 0.88872 0.0
C409 C 0.66622 1.00447 0.93374 0.0
C410 C 0.68875 0.93538 0.9388 0.0
C411 C 0.64665 0.02144 0.94606 0.0
C412 C 0.75836 0.86302 0.86755 0.0
C413 C 0.74884 0.88267 0.89055 0.0
C414 C 0.73255 0.9554 0.90279 0.0
C415 C 0.67381 0.98281 0.95101 0.0
C416 C 0.69339 0.96375 0.93677 0.0
C417 C 0.7412 0.90773 0.88086 0.0
C418 C 0.72699 0.927 0.90333 0.0
H419 H 0.63321 0.99222 0.01687 0.0
H420 H 0.66727 0.96266 0.99539 0.0
H421 H 0.72051 0.99528 0.91784 0.0
H422 H 0.75448 0.89784 0.7999 0.0
H423 H 0.73859 0.93209 0.83971 0.0
C424 C 0.60327 0.60075 0.98344 0.0
C425 C 0.59615 0.57531 0.96593 0.0
C426 C 0.6186 0.62149 0.96862 0.0
C427 C 0.66367 0.63162 0.89757 0.0
H428 H 0.64336 0.70621 0.90629 0.0
C429 C 0.69372 0.70712 0.80307 0.0
C430 C 0.70475 0.73342 0.81457 0.0
C431 C 0.682 0.68929 0.82461 0.0
C432 C 0.64944 0.68552 0.90392 0.0
H433 H 0.59965 0.55187 0.91912 0.0
H434 H 0.6256 0.5876 0.89362 0.0
H435 H 0.62074 0.6723 0.93939 0.0
H436 H 0.7114 0.76189 0.85762 0.0
H437 H 0.69049 0.73071 0.89536 0.0
H438 H 0.69162 0.6445 0.86138 0.0
C439 C 0.61997 0.59162 0.91888 0.0
C440 C 0.63657 0.66612 0.92296 0.0
C441 C 0.6048 0.57109 0.93354 0.0
C442 C 0.70326 0.74167 0.84809 0.0
C443 C 0.69116 0.72392 0.86964 0.0
C444 C 0.67627 0.65086 0.87842 0.0
C445 C 0.62719 0.61708 0.93612 0.0
C446 C 0.64308 0.63874 0.91939 0.0
C447 C 0.68073 0.6974 0.85815 0.0
C448 C 0.66889 0.67786 0.88082 0.0
H449 H 0.59687 0.60467 1.00842 0.0
H450 H 0.62388 0.64086 0.98265 0.0
H451 H 0.66975 0.61094 0.89478 0.0
H452 H 0.69475 0.70003 0.7775 0.0
H453 H 0.67388 0.66907 0.81498 0.0
C454 C 0.76425 0.37058 0.19931 0.0
C455 C 0.76182 0.34217 0.20138 0.0
C456 C 0.746 0.3829 0.18038 0.0
C457 C 0.67814 0.37117 0.13911 0.0
H458 H 0.70531 0.43298 0.09312 0.0
C459 C 0.61368 0.41927 0.04405 0.0
C460 C 0.61467 0.44799 0.04646 0.0
C461 C 0.63137 0.40586 0.06265 0.0
C462 C 0.69735 0.41588 0.10601 0.0
H463 H 0.7382 0.30442 0.18509 0.0
H464 H 0.70657 0.32578 0.15141 0.0
H465 H 0.73643 0.41029 0.12562 0.0
H466 H 0.63538 0.48508 0.06996 0.0
H467 H 0.66633 0.46174 0.10227 0.0
H468 H 0.63907 0.37665 0.11887 0.0
C469 C 0.72231 0.33869 0.16497 0.0
C470 C 0.71519 0.40287 0.12479 0.0
C471 C 0.74049 0.32638 0.18422 0.0
C472 C 0.63394 0.46296 0.06771 0.0
C473 C 0.65182 0.44958 0.08602 0.0
C474 C 0.66033 0.38405 0.12005 0.0
C475 C 0.72489 0.36715 0.16266 0.0
C476 C 0.70584 0.38046 0.14187 0.0
C477 C 0.65071 0.42086 0.0838 0.0
C478 C 0.66969 0.40669 0.10346 0.0
H479 H 0.78008 0.38344 0.21274 0.0
H480 H 0.74831 0.40491 0.17998 0.0
H481 H 0.67003 0.35427 0.15222 0.0
H482 H 0.59891 0.40712 0.02817 0.0
H483 H 0.63011 0.38373 0.0602 0.0
C484 C 0.84378 0.32054 0.37987 0.0
C485 C 0.82162 0.3318 0.36606 0.0
C486 C 0.86013 0.33572 0.40402 0.0
C487 C 0.87952 0.40771 0.43517 0.0
H488 H 0.91713 0.37408 0.50209 0.0
C489 C 0.95395 0.47171 0.52585 0.0
C490 C 0.97948 0.4614 0.52888 0.0
C491 C 0.93207 0.45528 0.51097 0.0
C492 C 0.9068 0.38376 0.4835 0.0
H493 H 0.79845 0.36739 0.36821 0.0
H494 H 0.82644 0.39354 0.41093 0.0
H495 H 0.88316 0.34663 0.46722 0.0
H496 H 1.00142 0.42515 0.52037 0.0
H497 H 0.96323 0.3965 0.49471 0.0
H498 H 0.90329 0.44477 0.4513 0.0
C499 C 0.83169 0.37324 0.40248 0.0
C500 C 0.88736 0.36801 0.4634 0.0
C501 C 0.81546 0.35813 0.37812 0.0
C502 C 0.98209 0.43379 0.51843 0.0
C503 C 0.96014 0.41731 0.50378 0.0
C504 C 0.89877 0.42348 0.45541 0.0
C505 C 0.85466 0.36251 0.41524 0.0
C506 C 0.87372 0.37966 0.43859 0.0
C507 C 0.93508 0.42807 0.49902 0.0
C508 C 0.91293 0.41164 0.47954 0.0
H509 H 0.84922 0.30036 0.37112 0.0
H510 H 0.87775 0.32678 0.41286 0.0
H511 H 0.86992 0.4174 0.41603 0.0
H512 H 0.95115 0.49285 0.53363 0.0
H513 H 0.91292 0.46408 0.50811 0.0
C514 C 0.83304 0.74341 0.69027 0.0
C515 C 0.83317 0.75185 0.72384 0.0
C516 C 0.8541 0.72953 0.67639 0.0
C517 C 0.90527 0.68393 0.69098 0.0
H518 H 0.93513 0.70832 0.61054 0.0
C519 C 0.98267 0.62351 0.61435 0.0
C520 C 0.97885 0.62147 0.58027 0.0
C521 C 0.96813 0.64124 0.63468 0.0
C522 C 0.9269 0.70106 0.63282 0.0
H523 H 0.85559 0.75188 0.76927 0.0
H524 H 0.89261 0.72666 0.74473 0.0
H525 H 0.90422 0.73606 0.64195 0.0
H526 H 0.95651 0.63631 0.54097 0.0
H527 H 0.93092 0.66682 0.57619 0.0
H528 H 0.92694 0.64826 0.68109 0.0
C529 C 0.87603 0.73126 0.72937 0.0
C530 C 0.90937 0.7171 0.65094 0.0
C531 C 0.85494 0.7457 0.74335 0.0
C532 C 0.96026 0.63768 0.56702 0.0
C533 C 0.94562 0.65526 0.58731 0.0
C534 C 0.9227 0.66769 0.67265 0.0
C535 C 0.87587 0.72335 0.69563 0.0
C536 C 0.89783 0.7084 0.67976 0.0
C537 C 0.94934 0.65731 0.62143 0.0
C538 C 0.93317 0.67573 0.64286 0.0
H539 H 0.8167 0.74776 0.67437 0.0
H540 H 0.85321 0.72335 0.65045 0.0
H541 H 0.89649 0.67666 0.71299 0.0
H542 H 0.99714 0.61161 0.62533 0.0
H543 H 0.97182 0.64252 0.66075 0.0
C544 C 0.47983 0.51433 0.10111 0.0
C545 C 0.503 0.49962 0.09923 0.0
C546 C 0.45803 0.50613 0.12065 0.0
C547 C 0.43681 0.4611 0.18539 0.0
H548 H 0.37083 0.44417 0.13353 0.0
C549 C 0.35832 0.37462 0.21342 0.0
C550 C 0.33053 0.37725 0.2086 0.0
C551 C 0.37783 0.39434 0.20387 0.0
C552 C 0.38883 0.44921 0.1487 0.0
H553 H 0.52257 0.46635 0.11776 0.0
H554 H 0.48519 0.45269 0.15265 0.0
H555 H 0.40835 0.47269 0.11278 0.0
H556 H 0.30146 0.40274 0.18987 0.0
H557 H 0.33565 0.43743 0.17319 0.0
H558 H 0.41767 0.43712 0.22096 0.0
C559 C 0.48358 0.47038 0.13909 0.0
C560 C 0.41034 0.46563 0.13681 0.0
C561 C 0.50503 0.4782 0.11916 0.0
C562 C 0.32272 0.40002 0.19365 0.0
C563 C 0.34232 0.4199 0.18417 0.0
C564 C 0.41527 0.44486 0.19738 0.0
C565 C 0.45937 0.48346 0.13899 0.0
C566 C 0.43488 0.47101 0.15456 0.0
C567 C 0.37015 0.41736 0.18933 0.0
C568 C 0.39135 0.4379 0.17868 0.0
H569 H 0.47763 0.5306 0.08546 0.0
H570 H 0.43966 0.51666 0.12023 0.0
H571 H 0.45535 0.46516 0.19978 0.0
H572 H 0.36508 0.35706 0.22419 0.0
H573 H 0.39904 0.39121 0.2074 0.0
C574 C 0.32389 0.71234 0.93111 0.0
C575 C 0.31025 0.70924 0.90077 0.0
C576 C 0.34099 0.69274 0.93969 0.0
C577 C 0.3578 0.62124 0.91941 0.0
H578 H 0.42813 0.64799 0.95685 0.0
C579 C 0.44468 0.5504 0.93307 0.0
C580 C 0.46119 0.55541 0.96124 0.0
C581 C 0.42544 0.56854 0.92617 0.0
C582 C 0.40845 0.64009 0.94683 0.0
H583 H 0.30286 0.68248 0.85638 0.0
H584 H 0.33273 0.64845 0.8712 0.0
H585 H 0.39549 0.68034 0.9452 0.0
H586 H 0.46956 0.5829 1.00491 0.0
H587 H 0.43609 0.61421 0.99313 0.0
H588 H 0.37078 0.58096 0.92106 0.0
C589 C 0.33027 0.66599 0.88839 0.0
C590 C 0.38971 0.65869 0.94016 0.0
C591 C 0.31334 0.68563 0.87976 0.0
C592 C 0.45768 0.57871 0.9826 0.0
C593 C 0.43842 0.59672 0.97582 0.0
C594 C 0.37653 0.6026 0.92621 0.0
C595 C 0.34466 0.6695 0.91824 0.0
C596 C 0.36416 0.64952 0.92632 0.0
C597 C 0.42217 0.59204 0.9474 0.0
C598 C 0.40213 0.61178 0.93999 0.0
H599 H 0.32209 0.73034 0.94776 0.0
H600 H 0.35152 0.6959 0.96304 0.0
H601 H 0.33819 0.61348 0.90905 0.0
H602 H 0.44701 0.53276 0.91603 0.0
H603 H 0.4135 0.56442 0.90387 0.0
C604 C 0.24111 0.68063 0.7706 0.0
C605 C 0.24642 0.70745 0.76204 0.0
C606 C 0.2272 0.66072 0.74908 0.0
C607 C 0.19876 0.64674 0.66406 0.0
H608 H 0.14719 0.59813 0.70627 0.0
C609 C 0.12591 0.56964 0.58719 0.0
C610 C 0.09911 0.56575 0.59791 0.0
C611 C 0.14616 0.58312 0.60785 0.0
C612 C 0.16127 0.61164 0.69399 0.0
H613 H 0.24231 0.73448 0.72401 0.0
H614 H 0.21712 0.70006 0.68658 0.0
H615 H 0.17873 0.62956 0.7392 0.0
H616 H 0.07243 0.57202 0.63882 0.0
H617 H 0.10754 0.59657 0.67485 0.0
H618 H 0.18004 0.63018 0.61897 0.0
C619 C 0.22434 0.69396 0.70951 0.0
C620 C 0.17983 0.62945 0.71293 0.0
C621 C 0.23885 0.71377 0.73088 0.0
C622 C 0.09307 0.57447 0.63019 0.0
C623 C 0.11327 0.58856 0.65076 0.0
C624 C 0.17994 0.62922 0.64515 0.0
C625 C 0.21753 0.66737 0.71879 0.0
C626 C 0.1988 0.64736 0.69827 0.0
C627 C 0.13997 0.59373 0.63954 0.0
C628 C 0.16082 0.61147 0.65982 0.0
H629 H 0.24679 0.67533 0.79458 0.0
H630 H 0.22321 0.64034 0.75677 0.0
H631 H 0.21316 0.65991 0.65175 0.0
H632 H 0.13106 0.56293 0.56238 0.0
H633 H 0.16655 0.58583 0.59857 0.0
C634 C 0.25086 0.3854 0.33562 0.0
C635 C 0.25848 0.36052 0.34533 0.0
C636 C 0.23856 0.40362 0.35745 0.0
C637 C 0.19346 0.40184 0.42659 0.0
H638 H 0.19909 0.4803 0.42133 0.0
C639 C 0.11547 0.47156 0.48665 0.0
C640 C 0.10564 0.49026 0.46643 0.0
C641 C 0.13802 0.4574 0.47763 0.0
C642 C 0.19726 0.45842 0.42307 0.0
H643 H 0.2606 0.33556 0.38581 0.0
H644 H 0.23869 0.3676 0.4245 0.0
H645 H 0.23423 0.45312 0.39738 0.0
H646 H 0.11217 0.50907 0.4212 0.0
H647 H 0.15136 0.48417 0.40525 0.0
H648 H 0.15601 0.40704 0.45132 0.0
C649 C 0.24237 0.37299 0.39987 0.0
C650 C 0.21744 0.44286 0.40947 0.0
C651 C 0.25513 0.35481 0.37793 0.0
C652 C 0.11908 0.49466 0.43716 0.0
C653 C 0.14174 0.48063 0.42824 0.0
C654 C 0.17332 0.41743 0.44032 0.0
C655 C 0.23323 0.39723 0.38951 0.0
C656 C 0.21529 0.41427 0.41006 0.0
C657 C 0.15139 0.46173 0.44829 0.0
C658 C 0.17455 0.44578 0.43775 0.0
H659 H 0.25318 0.39017 0.31052 0.0
H660 H 0.23153 0.42184 0.34842 0.0
H661 H 0.19098 0.37985 0.42715 0.0
H662 H 0.10543 0.46744 0.5092 0.0
H663 H 0.145 0.44304 0.49365 0.0
loop_
_geom_bond_atom_site_label_1
_geom_bond_atom_site_label_2
_geom_bond_distance
_geom_bond_site_symmetry_2
_ccdc_geom_bond_type
Cu0 N1 1.999 1_545 S
Cu0 O6 1.974 1_445 S
Cu0 N11 1.985 1_455 S
Cu0 O20 1.959 . S
N1 Cu0 1.999 1_565 S
N1 C3 1.263 . S
N1 C5 1.389 1_565 S
N2 C3 1.358 . S
N2 C4 1.400 . S
C3 N1 1.263 . S
C3 N2 1.358 . S
C3 H9 0.930 . S
C4 N2 1.400 . S
C4 C5 1.351 1_565 S
C4 H21 0.930 . S
C5 N1 1.389 1_545 S
C5 C4 1.351 1_545 S
C5 H10 0.930 . S
O6 Cu0 1.974 1_665 S
O6 C16 1.282 . S
C7 O8 1.261 . S
C7 O20 1.251 . S
O8 C7 1.261 . S
H9 C3 0.930 . S
H10 C5 0.930 . S
N11 Cu0 1.985 1_655 S
N11 C13 1.335 . S
N11 C14 1.390 . S
N12 C13 1.345 . S
N12 C15 1.336 . S
C13 N11 1.335 . S
C13 N12 1.345 . S
C13 H18 0.930 1_655 S
C14 N11 1.390 . S
C14 C15 1.346 . S
C14 H19 0.930 1_545 S
C15 N12 1.336 . S
C15 C14 1.346 . S
C15 H22 0.929 . S
C16 O6 1.282 . S
C16 O17 1.216 . S
O17 C16 1.216 . S
H18 C13 0.930 1_455 S
H19 C14 0.930 1_565 S
O20 Cu0 1.959 . S
O20 C7 1.251 . S
H21 C4 0.930 . S
H22 C15 0.929 . S
Cu23 N24 1.999 . S
Cu23 O29 1.974 . S
Cu23 N34 1.985 . S
Cu23 O43 1.959 . S
N24 Cu23 1.999 . S
N24 C26 1.263 . S
N24 C28 1.389 . S
N25 C26 1.358 . S
N25 C27 1.400 . S
C26 N24 1.263 . S
C26 N25 1.358 . S
C26 H32 0.930 . S
C27 N25 1.400 . S
C27 C28 1.351 . S
C27 H44 0.930 . S
C28 N24 1.389 . S
C28 C27 1.351 . S
C28 H33 0.930 . S
O29 Cu23 1.974 . S
O29 C39 1.282 . S
C30 O31 1.261 . S
C30 O43 1.251 . S
O31 C30 1.261 . S
H32 C26 0.930 . S
H33 C28 0.930 . S
N34 Cu23 1.985 . S
N34 C36 1.335 . S
N34 C37 1.390 . S
N35 C36 1.345 . S
N35 C38 1.336 . S
C36 N34 1.335 . S
C36 N35 1.345 . S
C36 H41 0.930 . S
C37 N34 1.390 . S
C37 C38 1.346 . S
C37 H42 0.930 . S
C38 N35 1.336 . S
C38 C37 1.346 . S
C38 H45 0.929 . S
C39 O29 1.282 . S
C39 O40 1.216 . S
O40 C39 1.216 . S
H41 C36 0.930 . S
H42 C37 0.930 . S
O43 Cu23 1.959 . S
O43 C30 1.251 . S
H44 C27 0.930 . S
H45 C38 0.929 . S
Cu46 N47 1.999 1_554 S
Cu46 O52 1.974 1_554 S
Cu46 N57 1.985 . S
Cu46 O66 1.959 . S
N47 Cu46 1.999 1_556 S
N47 C49 1.263 1_545 S
N47 C51 1.390 1_556 S
N48 C49 1.358 . S
N48 C50 1.400 . S
C49 N47 1.263 1_565 S
C49 N48 1.358 . S
C49 H55 0.930 . S
C50 N48 1.400 . S
C50 C51 1.348 1_566 S
C50 H67 0.930 . S
C51 N47 1.390 1_554 S
C51 C50 1.348 1_544 S
C51 H56 0.931 . S
O52 Cu46 1.974 1_556 S
O52 C62 1.282 . S
C53 O54 1.261 1_554 S
C53 O66 1.251 . S
O54 C53 1.261 1_556 S
H55 C49 0.930 . S
H56 C51 0.931 . S
N57 Cu46 1.985 . S
N57 C59 1.335 . S
N57 C60 1.390 . S
N58 C59 1.345 . S
N58 C61 1.336 . S
C59 N57 1.335 . S
C59 N58 1.345 . S
C59 H64 0.930 . S
C60 N57 1.390 . S
C60 C61 1.346 . S
C60 H65 0.930 1_554 S
C61 N58 1.336 . S
C61 C60 1.346 . S
C61 H68 0.929 . S
C62 O52 1.282 . S
C62 O63 1.216 . S
O63 C62 1.216 . S
H64 C59 0.930 . S
H65 C60 0.930 1_556 S
O66 Cu46 1.959 . S
O66 C53 1.251 . S
H67 C50 0.930 . S
H68 C61 0.929 . S
Cu69 N70 1.999 . S
Cu69 O75 1.974 . S
Cu69 N80 1.985 . S
Cu69 O89 1.959 . S
N70 Cu69 1.999 . S
N70 C72 1.263 . S
N70 C74 1.389 . S
N71 C72 1.358 . S
N71 C73 1.400 . S
C72 N70 1.263 . S
C72 N71 1.358 . S
C72 H78 0.930 . S
C73 N71 1.400 . S
C73 C74 1.351 . S
C73 H90 0.930 . S
C74 N70 1.389 . S
C74 C73 1.351 . S
C74 H79 0.930 . S
O75 Cu69 1.974 . S
O75 C85 1.282 . S
C76 O77 1.261 . S
C76 O89 1.251 . S
O77 C76 1.261 . S
H78 C72 0.930 . S
H79 C74 0.930 . S
N80 Cu69 1.985 . S
N80 C82 1.335 . S
N80 C83 1.390 . S
N81 C82 1.345 . S
N81 C84 1.336 . S
C82 N80 1.335 . S
C82 N81 1.345 . S
C82 H87 0.930 . S
C83 N80 1.390 . S
C83 C84 1.346 . S
C83 H88 0.930 . S
C84 N81 1.336 . S
C84 C83 1.346 . S
C84 H91 0.929 . S
C85 O75 1.282 . S
C85 O86 1.216 . S
O86 C85 1.216 . S
H87 C82 0.930 . S
H88 C83 0.930 . S
O89 Cu69 1.959 . S
O89 C76 1.251 . S
H90 C73 0.930 . S
H91 C84 0.929 . S
Cu92 N93 1.999 . S
Cu92 O98 1.974 . S
Cu92 N103 1.985 . S
Cu92 O112 1.959 . S
N93 Cu92 1.999 . S
N93 C95 1.263 . S
N93 C97 1.389 . S
N94 C95 1.358 . S
N94 C96 1.400 . S
C95 N93 1.263 . S
C95 N94 1.358 . S
C95 H101 0.930 . S
C96 N94 1.400 . S
C96 C97 1.351 . S
C96 H113 0.930 . S
C97 N93 1.389 . S
C97 C96 1.351 . S
C97 H102 0.930 . S
O98 Cu92 1.974 . S
O98 C108 1.282 . S
C99 O100 1.261 . S
C99 O112 1.251 . S
O100 C99 1.261 . S
H101 C95 0.930 . S
H102 C97 0.930 . S
N103 Cu92 1.985 . S
N103 C105 1.335 . S
N103 C106 1.390 . S
N104 C105 1.345 . S
N104 C107 1.336 . S
C105 N103 1.335 . S
C105 N104 1.345 . S
C105 H110 0.930 . S
C106 N103 1.390 . S
C106 C107 1.346 . S
C106 H111 0.930 . S
C107 N104 1.336 . S
C107 C106 1.346 . S
C107 H114 0.929 . S
C108 O98 1.282 . S
C108 O109 1.216 . S
O109 C108 1.216 . S
H110 C105 0.930 . S
H111 C106 0.930 . S
O112 Cu92 1.959 . S
O112 C99 1.251 . S
H113 C96 0.930 . S
H114 C107 0.929 . S
Cu115 N116 1.999 . S
Cu115 O121 1.974 . S
Cu115 N126 1.985 . S
Cu115 O135 1.959 . S
N116 Cu115 1.999 . S
N116 C118 1.263 . S
N116 C120 1.389 . S
N117 C118 1.358 . S
N117 C119 1.400 . S
C118 N116 1.263 . S
C118 N117 1.358 . S
C118 H124 0.930 . S
C119 N117 1.400 . S
C119 C120 1.351 . S
C119 H136 0.930 . S
C120 N116 1.389 . S
C120 C119 1.351 . S
C120 H125 0.930 . S
O121 Cu115 1.974 . S
O121 C131 1.282 . S
C122 O123 1.261 . S
C122 O135 1.251 . S
O123 C122 1.261 . S
H124 C118 0.930 . S
H125 C120 0.930 . S
N126 Cu115 1.985 . S
N126 C128 1.335 . S
N126 C129 1.390 . S
N127 C128 1.345 . S
N127 C130 1.336 . S
C128 N126 1.335 . S
C128 N127 1.345 . S
C128 H133 0.930 . S
C129 N126 1.390 . S
C129 C130 1.346 . S
C129 H134 0.930 . S
C130 N127 1.336 . S
C130 C129 1.346 . S
C130 H137 0.929 . S
C131 O121 1.282 . S
C131 O132 1.216 . S
O132 C131 1.216 . S
H133 C128 0.930 . S
H134 C129 0.930 . S
O135 Cu115 1.959 . S
O135 C122 1.251 . S
H136 C119 0.930 . S
H137 C130 0.929 . S
Cu138 N139 1.999 . S
Cu138 O144 1.974 . S
Cu138 N149 1.985 . S
Cu138 O158 1.959 . S
N139 Cu138 1.999 . S
N139 C141 1.263 . S
N139 C143 1.389 . S
N140 C141 1.358 . S
N140 C142 1.400 . S
C141 N139 1.263 . S
C141 N140 1.358 . S
C141 H147 0.930 . S
C142 N140 1.400 . S
C142 C143 1.351 . S
C142 H159 0.930 . S
C143 N139 1.389 . S
C143 C142 1.351 . S
C143 H148 0.930 . S
O144 Cu138 1.974 . S
O144 C154 1.282 . S
C145 O146 1.261 . S
C145 O158 1.251 . S
O146 C145 1.261 . S
H147 C141 0.930 . S
H148 C143 0.930 . S
N149 Cu138 1.985 . S
N149 C151 1.335 . S
N149 C152 1.390 . S
N150 C151 1.345 . S
N150 C153 1.336 . S
C151 N149 1.335 . S
C151 N150 1.345 . S
C151 H156 0.930 . S
C152 N149 1.390 . S
C152 C153 1.346 . S
C152 H157 0.930 . S
C153 N150 1.336 . S
C153 C152 1.346 . S
C153 H160 0.929 . S
C154 O144 1.282 . S
C154 O155 1.216 1_554 S
O155 C154 1.216 1_556 S
H156 C151 0.930 . S
H157 C152 0.930 . S
O158 Cu138 1.959 . S
O158 C145 1.251 . S
H159 C142 0.930 . S
H160 C153 0.929 . S
Cu161 N162 1.999 1_455 S
Cu161 O167 1.974 . S
Cu161 N172 1.985 . S
Cu161 O181 1.959 1_455 S
N162 Cu161 1.999 1_655 S
N162 C164 1.263 . S
N162 C166 1.389 . S
N163 C164 1.358 . S
N163 C165 1.400 . S
C164 N162 1.263 . S
C164 N163 1.358 . S
C164 H170 0.930 1_655 S
C165 N163 1.400 . S
C165 C166 1.351 . S
C165 H182 0.930 . S
C166 N162 1.389 . S
C166 C165 1.351 . S
C166 H171 0.930 . S
O167 Cu161 1.974 . S
O167 C177 1.282 . S
C168 O169 1.261 . S
C168 O181 1.251 . S
O169 C168 1.261 . S
H170 C164 0.930 1_455 S
H171 C166 0.930 . S
N172 Cu161 1.985 . S
N172 C174 1.335 . S
N172 C175 1.390 . S
N173 C174 1.345 . S
N173 C176 1.336 . S
C174 N172 1.335 . S
C174 N173 1.345 . S
C174 H179 0.930 . S
C175 N172 1.390 . S
C175 C176 1.346 . S
C175 H180 0.930 . S
C176 N173 1.336 . S
C176 C175 1.346 . S
C176 H183 0.929 . S
C177 O167 1.282 . S
C177 O178 1.216 . S
O178 C177 1.216 . S
H179 C174 0.930 . S
H180 C175 0.930 . S
O181 Cu161 1.959 1_655 S
O181 C168 1.251 . S
H182 C165 0.930 . S
H183 C176 0.929 . S
C184 C185 1.349 . S
C184 C186 1.327 . S
C184 H209 0.950 . S
C185 C184 1.349 . S
C185 C201 1.349 . S
C186 C184 1.327 . S
C186 C205 1.429 . S
C186 H210 0.950 . S
C187 C204 1.574 . S
C187 C206 1.368 . S
C187 H211 0.949 . S
H188 C192 0.949 . S
C189 C190 1.349 . S
C189 C191 1.327 . S
C189 H212 0.950 . S
C190 C189 1.349 . S
C190 C202 1.349 . S
C191 C189 1.327 . S
C191 C207 1.429 . S
C191 H213 0.950 . S
C192 H188 0.949 . S
C192 C200 1.574 . S
C192 C208 1.368 . S
H193 C201 0.950 . S
H194 C199 0.950 . S
H195 C200 0.949 . S
H196 C202 0.950 . S
H197 C203 0.950 . S
H198 C204 0.949 . S
C199 H194 0.950 . S
C199 C201 1.327 . S
C199 C205 1.429 . S
C200 C192 1.574 . S
C200 H195 0.949 . S
C200 C206 1.368 . S
C201 C185 1.349 . S
C201 H193 0.950 . S
C201 C199 1.327 . S
C202 C190 1.349 . S
C202 H196 0.950 . S
C202 C203 1.327 . S
C203 H197 0.950 . S
C203 C202 1.327 . S
C203 C207 1.429 . S
C204 C187 1.574 . S
C204 H198 0.949 . S
C204 C208 1.368 . S
C205 C186 1.429 . S
C205 C199 1.429 . S
C205 C206 1.523 . S
C206 C187 1.368 . S
C206 C200 1.368 . S
C206 C205 1.523 . S
C207 C191 1.429 . S
C207 C203 1.429 . S
C207 C208 1.523 . S
C208 C192 1.368 . S
C208 C204 1.368 . S
C208 C207 1.523 . S
H209 C184 0.950 . S
H210 C186 0.950 . S
H211 C187 0.949 . S
H212 C189 0.950 . S
H213 C191 0.950 . S
C214 C215 1.349 . S
C214 C216 1.327 . S
C214 H239 0.950 . S
C215 C214 1.349 . S
C215 C231 1.349 . S
C216 C214 1.327 . S
C216 C235 1.429 . S
C216 H240 0.950 . S
C217 C234 1.574 . S
C217 C236 1.368 . S
C217 H241 0.949 . S
H218 C222 0.949 . S
C219 C220 1.349 . S
C219 C221 1.327 . S
C219 H242 0.950 . S
C220 C219 1.349 . S
C220 C232 1.349 . S
C221 C219 1.327 . S
C221 C237 1.429 . S
C221 H243 0.950 . S
C222 H218 0.949 . S
C222 C230 1.574 . S
C222 C238 1.368 . S
H223 C231 0.950 . S
H224 C229 0.950 . S
H225 C230 0.949 . S
H226 C232 0.950 . S
H227 C233 0.950 . S
H228 C234 0.949 . S
C229 H224 0.950 . S
C229 C231 1.327 . S
C229 C235 1.429 . S
C230 C222 1.574 . S
C230 H225 0.949 . S
C230 C236 1.368 . S
C231 C215 1.349 . S
C231 H223 0.950 . S
C231 C229 1.327 . S
C232 C220 1.349 . S
C232 H226 0.950 . S
C232 C233 1.327 . S
C233 H227 0.950 . S
C233 C232 1.327 . S
C233 C237 1.429 . S
C234 C217 1.574 . S
C234 H228 0.949 . S
C234 C238 1.368 . S
C235 C216 1.429 . S
C235 C229 1.429 . S
C235 C236 1.523 . S
C236 C217 1.368 . S
C236 C230 1.368 . S
C236 C235 1.523 . S
C237 C221 1.429 . S
C237 C233 1.429 . S
C237 C238 1.523 . S
C238 C222 1.368 . S
C238 C234 1.368 . S
C238 C237 1.523 . S
H239 C214 0.950 . S
H240 C216 0.950 . S
H241 C217 0.949 . S
H242 C219 0.950 . S
H243 C221 0.950 . S
C244 C245 1.349 . S
C244 C246 1.327 . S
C244 H269 0.950 . S
C245 C244 1.349 . S
C245 C261 1.349 . S
C246 C244 1.327 . S
C246 C265 1.429 . S
C246 H270 0.950 . S
C247 C264 1.574 . S
C247 C266 1.368 . S
C247 H271 0.949 . S
H248 C252 0.949 . S
C249 C250 1.349 . S
C249 C251 1.327 . S
C249 H272 0.950 . S
C250 C249 1.349 . S
C250 C262 1.349 . S
C251 C249 1.327 . S
C251 C267 1.429 . S
C251 H273 0.950 . S
C252 H248 0.949 . S
C252 C260 1.574 . S
C252 C268 1.368 . S
H253 C261 0.950 1_545 S
H254 C259 0.950 . S
H255 C260 0.949 . S
H256 C262 0.950 . S
H257 C263 0.950 . S
H258 C264 0.949 . S
C259 H254 0.950 . S
C259 C261 1.327 . S
C259 C265 1.429 . S
C260 C252 1.574 . S
C260 H255 0.949 . S
C260 C266 1.368 . S
C261 C245 1.349 . S
C261 H253 0.950 1_565 S
C261 C259 1.327 . S
C262 C250 1.349 . S
C262 H256 0.950 . S
C262 C263 1.327 . S
C263 H257 0.950 . S
C263 C262 1.327 . S
C263 C267 1.429 . S
C264 C247 1.574 . S
C264 H258 0.949 . S
C264 C268 1.368 . S
C265 C246 1.429 . S
C265 C259 1.429 . S
C265 C266 1.523 . S
C266 C247 1.368 . S
C266 C260 1.368 . S
C266 C265 1.523 . S
C267 C251 1.429 . S
C267 C263 1.429 . S
C267 C268 1.523 . S
C268 C252 1.368 . S
C268 C264 1.368 . S
C268 C267 1.523 . S
H269 C244 0.950 . S
H270 C246 0.950 . S
H271 C247 0.949 . S
H272 C249 0.950 . S
H273 C251 0.950 . S
C274 C275 1.349 . S
C274 C276 1.327 . S
C274 H299 0.950 . S
C275 C274 1.349 . S
C275 C291 1.349 . S
C276 C274 1.327 . S
C276 C295 1.429 . S
C276 H300 0.950 . S
C277 C294 1.574 . S
C277 C296 1.368 . S
C277 H301 0.949 . S
H278 C282 0.949 . S
C279 C280 1.349 . S
C279 C281 1.327 . S
C279 H302 0.950 . S
C280 C279 1.349 . S
C280 C292 1.349 . S
C281 C279 1.327 . S
C281 C297 1.429 . S
C281 H303 0.950 . S
C282 H278 0.949 . S
C282 C290 1.574 . S
C282 C298 1.368 . S
H283 C291 0.950 . S
H284 C289 0.950 . S
H285 C290 0.949 . S
H286 C292 0.950 . S
H287 C293 0.950 . S
H288 C294 0.949 . S
C289 H284 0.950 . S
C289 C291 1.327 . S
C289 C295 1.429 . S
C290 C282 1.574 . S
C290 H285 0.949 . S
C290 C296 1.368 . S
C291 C275 1.349 . S
C291 H283 0.950 . S
C291 C289 1.327 . S
C292 C280 1.349 . S
C292 H286 0.950 . S
C292 C293 1.327 . S
C293 H287 0.950 . S
C293 C292 1.327 . S
C293 C297 1.429 . S
C294 C277 1.574 . S
C294 H288 0.949 . S
C294 C298 1.368 . S
C295 C276 1.429 . S
C295 C289 1.429 . S
C295 C296 1.523 . S
C296 C277 1.368 . S
C296 C290 1.368 . S
C296 C295 1.523 . S
C297 C281 1.429 . S
C297 C293 1.429 . S
C297 C298 1.523 . S
C298 C282 1.368 . S
C298 C294 1.368 . S
C298 C297 1.523 . S
H299 C274 0.950 . S
H300 C276 0.950 . S
H301 C277 0.949 . S
H302 C279 0.950 . S
H303 C281 0.950 . S
C304 C305 1.349 . S
C304 C306 1.327 . S
C304 H329 0.964 . S
C305 C304 1.349 . S
C305 C321 1.349 . S
C306 C304 1.327 . S
C306 C325 1.429 . S
C306 H330 0.950 . S
C307 C324 1.574 . S
C307 C326 1.368 . S
C307 H331 0.949 . S
H308 C312 0.949 . S
C309 C310 1.349 . S
C309 C311 1.327 . S
C309 H332 0.950 . S
C310 C309 1.349 . S
C310 C322 1.349 . S
C311 C309 1.327 . S
C311 C327 1.429 . S
C311 H333 0.950 . S
C312 H308 0.949 . S
C312 C320 1.574 . S
C312 C328 1.368 . S
H313 C321 0.950 . S
H314 C319 0.950 . S
H315 C320 0.949 . S
H316 C322 0.950 . S
H317 C323 0.950 . S
H318 C324 0.949 . S
C319 H314 0.950 . S
C319 C321 1.327 . S
C319 C325 1.429 . S
C320 C312 1.574 . S
C320 H315 0.949 . S
C320 C326 1.368 . S
C321 C305 1.349 . S
C321 H313 0.950 . S
C321 C319 1.327 . S
C322 C310 1.349 . S
C322 H316 0.950 . S
C322 C323 1.327 . S
C323 H317 0.950 . S
C323 C322 1.327 . S
C323 C327 1.429 . S
C324 C307 1.574 . S
C324 H318 0.949 . S
C324 C328 1.368 . S
C325 C306 1.429 . S
C325 C319 1.429 . S
C325 C326 1.523 . S
C326 C307 1.368 . S
C326 C320 1.368 . S
C326 C325 1.523 . S
C327 C311 1.429 . S
C327 C323 1.429 . S
C327 C328 1.523 . S
C328 C312 1.368 . S
C328 C324 1.368 . S
C328 C327 1.523 . S
H329 C304 0.964 . S
H330 C306 0.950 . S
H331 C307 0.949 . S
H332 C309 0.950 . S
H333 C311 0.950 . S
C334 C335 1.349 . S
C334 C336 1.327 . S
C334 H359 0.950 . S
C335 C334 1.349 . S
C335 C351 1.349 . S
C336 C334 1.327 . S
C336 C355 1.429 . S
C336 H360 0.950 . S
C337 C354 1.574 . S
C337 C356 1.368 . S
C337 H361 0.949 . S
H338 C342 0.949 . S
C339 C340 1.349 . S
C339 C341 1.327 . S
C339 H362 0.950 . S
C340 C339 1.349 . S
C340 C352 1.349 . S
C341 C339 1.327 . S
C341 C357 1.429 . S
C341 H363 0.950 . S
C342 H338 0.949 . S
C342 C350 1.574 . S
C342 C358 1.368 . S
H343 C351 0.950 . S
H344 C349 0.950 . S
H345 C350 0.949 . S
H346 C352 0.950 . S
H347 C353 0.950 . S
H348 C354 0.949 . S
C349 H344 0.950 . S
C349 C351 1.327 . S
C349 C355 1.429 . S
C350 C342 1.574 . S
C350 H345 0.949 . S
C350 C356 1.368 . S
C351 C335 1.349 . S
C351 H343 0.950 . S
C351 C349 1.327 . S
C352 C340 1.349 . S
C352 H346 0.950 . S
C352 C353 1.327 . S
C353 H347 0.950 . S
C353 C352 1.327 . S
C353 C357 1.429 . S
C354 C337 1.574 . S
C354 H348 0.949 . S
C354 C358 1.368 . S
C355 C336 1.429 . S
C355 C349 1.429 . S
C355 C356 1.523 . S
C356 C337 1.368 . S
C356 C350 1.368 . S
C356 C355 1.523 . S
C357 C341 1.429 . S
C357 C353 1.429 . S
C357 C358 1.523 . S
C358 C342 1.368 . S
C358 C354 1.368 . S
C358 C357 1.523 . S
H359 C334 0.950 . S
H360 C336 0.950 . S
H361 C337 0.949 . S
H362 C339 0.950 . S
H363 C341 0.950 . S
C364 C365 1.349 . S
C364 C366 1.327 . S
C364 H389 0.950 . S
C365 C364 1.349 . S
C365 C381 1.349 . S
C366 C364 1.327 . S
C366 C385 1.429 . S
C366 H390 0.950 . S
C367 C384 1.574 . S
C367 C386 1.368 . S
C367 H391 0.949 . S
H368 C372 0.949 . S
C369 C370 1.349 . S
C369 C371 1.327 . S
C369 H392 0.950 . S
C370 C369 1.349 . S
C370 C382 1.349 . S
C371 C369 1.327 . S
C371 C387 1.429 . S
C371 H393 0.950 . S
C372 H368 0.949 . S
C372 C380 1.574 . S
C372 C388 1.368 . S
H373 C381 0.950 . S
H374 C379 0.950 . S
H375 C380 0.949 . S
H376 C382 0.950 . S
H377 C383 0.950 . S
H378 C384 0.949 . S
C379 H374 0.950 . S
C379 C381 1.327 . S
C379 C385 1.429 . S
C380 C372 1.574 . S
C380 H375 0.949 . S
C380 C386 1.368 . S
C381 C365 1.349 . S
C381 H373 0.950 . S
C381 C379 1.327 . S
C382 C370 1.349 . S
C382 H376 0.950 . S
C382 C383 1.327 . S
C383 H377 0.950 . S
C383 C382 1.327 . S
C383 C387 1.429 . S
C384 C367 1.574 . S
C384 H378 0.949 . S
C384 C388 1.368 . S
C385 C366 1.429 . S
C385 C379 1.429 . S
C385 C386 1.523 . S
C386 C367 1.368 . S
C386 C380 1.368 . S
C386 C385 1.523 . S
C387 C371 1.429 . S
C387 C383 1.429 . S
C387 C388 1.523 . S
C388 C372 1.368 . S
C388 C384 1.368 . S
C388 C387 1.523 . S
H389 C364 0.950 . S
H390 C366 0.950 . S
H391 C367 0.949 . S
H392 C369 0.950 . S
H393 C371 0.950 . S
C394 C395 1.349 . S
C394 C396 1.327 . S
C394 H419 0.950 . S
C395 C394 1.349 . S
C395 C411 1.349 . S
C396 C394 1.327 . S
C396 C415 1.429 . S
C396 H420 0.950 . S
C397 C414 1.574 . S
C397 C416 1.368 . S
C397 H421 0.949 . S
H398 C402 0.949 . S
C399 C400 1.349 . S
C399 C401 1.327 . S
C399 H422 0.950 . S
C400 C399 1.349 . S
C400 C412 1.349 . S
C401 C399 1.327 . S
C401 C417 1.429 . S
C401 H423 0.950 . S
C402 H398 0.949 . S
C402 C410 1.574 . S
C402 C418 1.368 . S
H403 C411 0.950 . S
H404 C409 0.950 . S
H405 C410 0.949 . S
H406 C412 0.950 . S
H407 C413 0.950 . S
H408 C414 0.949 . S
C409 H404 0.950 . S
C409 C411 1.327 . S
C409 C415 1.429 . S
C410 C402 1.574 . S
C410 H405 0.949 . S
C410 C416 1.368 . S
C411 C395 1.349 . S
C411 H403 0.950 . S
C411 C409 1.327 . S
C412 C400 1.349 . S
C412 H406 0.950 . S
C412 C413 1.327 . S
C413 H407 0.950 . S
C413 C412 1.327 . S
C413 C417 1.429 . S
C414 C397 1.574 . S
C414 H408 0.949 . S
C414 C418 1.368 . S
C415 C396 1.429 . S
C415 C409 1.429 . S
C415 C416 1.523 . S
C416 C397 1.368 . S
C416 C410 1.368 . S
C416 C415 1.523 . S
C417 C401 1.429 . S
C417 C413 1.429 . S
C417 C418 1.523 . S
C418 C402 1.368 . S
C418 C414 1.368 . S
C418 C417 1.523 . S
H419 C394 0.950 . S
H420 C396 0.950 . S
H421 C397 0.949 . S
H422 C399 0.950 . S
H423 C401 0.950 . S
C424 C425 1.357 . S
C424 C426 1.342 . S
C424 H449 0.927 1_556 S
C425 C424 1.357 . S
C425 C441 1.349 . S
C426 C424 1.342 . S
C426 C445 1.429 . S
C426 H450 0.950 . S
C427 C444 1.574 . S
C427 C446 1.368 . S
C427 H451 0.949 . S
H428 C432 0.949 . S
C429 C430 1.349 . S
C429 C431 1.327 . S
C429 H452 0.950 . S
C430 C429 1.349 . S
C430 C442 1.349 . S
C431 C429 1.327 . S
C431 C447 1.429 . S
C431 H453 0.950 . S
C432 H428 0.949 . S
C432 C440 1.574 . S
C432 C448 1.368 . S
H433 C441 0.950 . S
H434 C439 0.950 . S
H435 C440 0.949 . S
H436 C442 0.950 . S
H437 C443 0.950 . S
H438 C444 0.949 . S
C439 H434 0.950 . S
C439 C441 1.327 . S
C439 C445 1.429 . S
C440 C432 1.574 . S
C440 H435 0.949 . S
C440 C446 1.368 . S
C441 C425 1.349 . S
C441 H433 0.950 . S
C441 C439 1.327 . S
C442 C430 1.349 . S
C442 H436 0.950 . S
C442 C443 1.327 . S
C443 H437 0.950 . S
C443 C442 1.327 . S
C443 C447 1.429 . S
C444 C427 1.574 . S
C444 H438 0.949 . S
C444 C448 1.368 . S
C445 C426 1.429 . S
C445 C439 1.429 . S
C445 C446 1.523 . S
C446 C427 1.368 . S
C446 C440 1.368 . S
C446 C445 1.523 . S
C447 C431 1.429 . S
C447 C443 1.429 . S
C447 C448 1.523 . S
C448 C432 1.368 . S
C448 C444 1.368 . S
C448 C447 1.523 . S
H449 C424 0.927 1_554 S
H450 C426 0.950 . S
H451 C427 0.949 . S
H452 C429 0.950 . S
H453 C431 0.950 . S
C454 C455 1.349 . S
C454 C456 1.327 . S
C454 H479 0.950 . S
C455 C454 1.349 . S
C455 C471 1.349 . S
C456 C454 1.327 . S
C456 C475 1.429 . S
C456 H480 0.950 . S
C457 C474 1.574 . S
C457 C476 1.368 . S
C457 H481 0.949 . S
H458 C462 0.949 . S
C459 C460 1.349 . S
C459 C461 1.327 . S
C459 H482 0.950 . S
C460 C459 1.349 . S
C460 C472 1.349 . S
C461 C459 1.327 . S
C461 C477 1.429 . S
C461 H483 0.950 . S
C462 H458 0.949 . S
C462 C470 1.574 . S
C462 C478 1.368 . S
H463 C471 0.950 . S
H464 C469 0.950 . S
H465 C470 0.949 . S
H466 C472 0.950 . S
H467 C473 0.950 . S
H468 C474 0.949 . S
C469 H464 0.950 . S
C469 C471 1.327 . S
C469 C475 1.429 . S
C470 C462 1.574 . S
C470 H465 0.949 . S
C470 C476 1.368 . S
C471 C455 1.349 . S
C471 H463 0.950 . S
C471 C469 1.327 . S
C472 C460 1.349 . S
C472 H466 0.950 . S
C472 C473 1.327 . S
C473 H467 0.950 . S
C473 C472 1.327 . S
C473 C477 1.429 . S
C474 C457 1.574 . S
C474 H468 0.949 . S
C474 C478 1.368 . S
C475 C456 1.429 . S
C475 C469 1.429 . S
C475 C476 1.523 . S
C476 C457 1.368 . S
C476 C470 1.368 . S
C476 C475 1.523 . S
C477 C461 1.429 . S
C477 C473 1.429 . S
C477 C478 1.523 . S
C478 C462 1.368 . S
C478 C474 1.368 . S
C478 C477 1.523 . S
H479 C454 0.950 . S
H480 C456 0.950 . S
H481 C457 0.949 . S
H482 C459 0.950 . S
H483 C461 0.950 . S
C484 C485 1.349 . S
C484 C486 1.327 . S
C484 H509 0.950 . S
C485 C484 1.349 . S
C485 C501 1.349 . S
C486 C484 1.327 . S
C486 C505 1.429 . S
C486 H510 0.950 . S
C487 C504 1.574 . S
C487 C506 1.368 . S
C487 H511 0.949 . S
H488 C492 0.949 . S
C489 C490 1.349 . S
C489 C491 1.327 . S
C489 H512 0.950 . S
C490 C489 1.349 . S
C490 C502 1.349 . S
C491 C489 1.327 . S
C491 C507 1.429 . S
C491 H513 0.950 . S
C492 H488 0.949 . S
C492 C500 1.574 . S
C492 C508 1.368 . S
H493 C501 0.950 . S
H494 C499 0.950 . S
H495 C500 0.949 . S
H496 C502 0.978 . S
H497 C503 0.950 . S
H498 C504 0.949 . S
C499 H494 0.950 . S
C499 C501 1.327 . S
C499 C505 1.429 . S
C500 C492 1.574 . S
C500 H495 0.949 . S
C500 C506 1.368 . S
C501 C485 1.349 . S
C501 H493 0.950 . S
C501 C499 1.327 . S
C502 C490 1.349 . S
C502 H496 0.978 . S
C502 C503 1.327 . S
C503 H497 0.950 . S
C503 C502 1.327 . S
C503 C507 1.429 . S
C504 C487 1.574 . S
C504 H498 0.949 . S
C504 C508 1.368 . S
C505 C486 1.429 . S
C505 C499 1.429 . S
C505 C506 1.523 . S
C506 C487 1.368 . S
C506 C500 1.368 . S
C506 C505 1.523 . S
C507 C491 1.429 . S
C507 C503 1.429 . S
C507 C508 1.523 . S
C508 C492 1.368 . S
C508 C504 1.368 . S
C508 C507 1.523 . S
H509 C484 0.950 . S
H510 C486 0.950 . S
H511 C487 0.949 . S
H512 C489 0.950 . S
H513 C491 0.950 . S
C514 C515 1.349 . S
C514 C516 1.327 . S
C514 H539 0.950 . S
C515 C514 1.349 . S
C515 C531 1.349 . S
C516 C514 1.327 . S
C516 C535 1.429 . S
C516 H540 0.950 . S
C517 C534 1.574 . S
C517 C536 1.368 . S
C517 H541 0.949 . S
H518 C522 0.949 . S
C519 C520 1.349 . S
C519 C521 1.327 . S
C519 H542 0.950 . S
C520 C519 1.349 . S
C520 C532 1.349 . S
C521 C519 1.327 . S
C521 C537 1.429 . S
C521 H543 0.950 . S
C522 H518 0.949 . S
C522 C530 1.574 . S
C522 C538 1.368 . S
H523 C531 0.950 . S
H524 C529 0.950 . S
H525 C530 0.949 . S
H526 C532 0.950 . S
H527 C533 0.950 . S
H528 C534 0.949 . S
C529 H524 0.950 . S
C529 C531 1.327 . S
C529 C535 1.429 . S
C530 C522 1.574 . S
C530 H525 0.949 . S
C530 C536 1.368 . S
C531 C515 1.349 . S
C531 H523 0.950 . S
C531 C529 1.327 . S
C532 C520 1.349 . S
C532 H526 0.950 . S
C532 C533 1.327 . S
C533 H527 0.950 . S
C533 C532 1.327 . S
C533 C537 1.429 . S
C534 C517 1.574 . S
C534 H528 0.949 . S
C534 C538 1.368 . S
C535 C516 1.429 . S
C535 C529 1.429 . S
C535 C536 1.523 . S
C536 C517 1.368 . S
C536 C530 1.368 . S
C536 C535 1.523 . S
C537 C521 1.429 . S
C537 C533 1.429 . S
C537 C538 1.523 . S
C538 C522 1.368 . S
C538 C534 1.368 . S
C538 C537 1.523 . S
H539 C514 0.950 . S
H540 C516 0.950 . S
H541 C517 0.949 . S
H542 C519 0.950 . S
H543 C521 0.950 . S
C544 C545 1.349 . S
C544 C546 1.327 . S
C544 H569 0.950 . S
C545 C544 1.349 . S
C545 C561 1.349 . S
C546 C544 1.327 . S
C546 C565 1.429 . S
C546 H570 0.950 . S
C547 C564 1.574 . S
C547 C566 1.368 . S
C547 H571 0.949 . S
H548 C552 0.949 . S
C549 C550 1.349 . S
C549 C551 1.327 . S
C549 H572 0.950 . S
C550 C549 1.349 . S
C550 C562 1.349 . S
C551 C549 1.327 . S
C551 C567 1.429 . S
C551 H573 0.950 . S
C552 H548 0.949 . S
C552 C560 1.574 . S
C552 C568 1.368 . S
H553 C561 0.950 . S
H554 C559 0.950 . S
H555 C560 0.949 . S
H556 C562 0.950 . S
H557 C563 0.950 . S
H558 C564 0.949 . S
C559 H554 0.950 . S
C559 C561 1.327 . S
C559 C565 1.429 . S
C560 C552 1.574 . S
C560 H555 0.949 . S
C560 C566 1.368 . S
C561 C545 1.349 . S
C561 H553 0.950 . S
C561 C559 1.327 . S
C562 C550 1.349 . S
C562 H556 0.950 . S
C562 C563 1.327 . S
C563 H557 0.950 . S
C563 C562 1.327 . S
C563 C567 1.429 . S
C564 C547 1.574 . S
C564 H558 0.949 . S
C564 C568 1.368 . S
C565 C546 1.429 . S
C565 C559 1.429 . S
C565 C566 1.523 . S
C566 C547 1.368 . S
C566 C560 1.368 . S
C566 C565 1.523 . S
C567 C551 1.429 . S
C567 C563 1.429 . S
C567 C568 1.523 . S
C568 C552 1.368 . S
C568 C564 1.368 . S
C568 C567 1.523 . S
H569 C544 0.950 . S
H570 C546 0.950 . S
H571 C547 0.949 . S
H572 C549 0.950 . S
H573 C551 0.950 . S
C574 C575 1.349 . S
C574 C576 1.327 . S
C574 H599 0.950 . S
C575 C574 1.349 . S
C575 C591 1.349 . S
C576 C574 1.327 . S
C576 C595 1.429 . S
C576 H600 0.950 . S
C577 C594 1.574 . S
C577 C596 1.368 . S
C577 H601 0.949 . S
H578 C582 0.949 . S
C579 C580 1.349 . S
C579 C581 1.327 . S
C579 H602 0.950 . S
C580 C579 1.349 . S
C580 C592 1.349 1_556 S
C581 C579 1.327 . S
C581 C597 1.429 . S
C581 H603 0.950 . S
C582 H578 0.949 . S
C582 C590 1.574 . S
C582 C598 1.368 . S
H583 C591 0.950 . S
H584 C589 0.950 . S
H585 C590 0.949 . S
H586 C592 0.950 . S
H587 C593 0.950 . S
H588 C594 0.949 . S
C589 H584 0.950 . S
C589 C591 1.327 . S
C589 C595 1.429 . S
C590 C582 1.574 . S
C590 H585 0.949 . S
C590 C596 1.368 . S
C591 C575 1.349 . S
C591 H583 0.950 . S
C591 C589 1.327 . S
C592 C580 1.349 1_554 S
C592 H586 0.950 . S
C592 C593 1.327 1_554 S
C593 H587 0.950 . S
C593 C592 1.327 1_556 S
C593 C597 1.429 . S
C594 C577 1.574 . S
C594 H588 0.949 . S
C594 C598 1.368 . S
C595 C576 1.429 . S
C595 C589 1.429 . S
C595 C596 1.523 . S
C596 C577 1.368 . S
C596 C590 1.368 . S
C596 C595 1.523 . S
C597 C581 1.429 . S
C597 C593 1.429 . S
C597 C598 1.523 . S
C598 C582 1.368 . S
C598 C594 1.368 . S
C598 C597 1.523 . S
H599 C574 0.950 . S
H600 C576 0.950 . S
H601 C577 0.949 . S
H602 C579 0.950 . S
H603 C581 0.950 . S
C604 C605 1.349 . S
C604 C606 1.327 . S
C604 H629 0.950 . S
C605 C604 1.349 . S
C605 C621 1.349 . S
C606 C604 1.327 . S
C606 C625 1.429 . S
C606 H630 0.950 . S
C607 C624 1.574 . S
C607 C626 1.368 . S
C607 H631 0.949 . S
H608 C612 0.949 . S
C609 C610 1.349 . S
C609 C611 1.327 . S
C609 H632 0.950 . S
C610 C609 1.349 . S
C610 C622 1.349 . S
C611 C609 1.327 . S
C611 C627 1.429 . S
C611 H633 0.950 . S
C612 H608 0.949 . S
C612 C620 1.574 . S
C612 C628 1.368 . S
H613 C621 0.950 . S
H614 C619 0.950 . S
H615 C620 0.949 . S
H616 C622 0.950 . S
H617 C623 0.950 . S
H618 C624 0.949 . S
C619 H614 0.950 . S
C619 C621 1.327 . S
C619 C625 1.429 . S
C620 C612 1.574 . S
C620 H615 0.949 . S
C620 C626 1.368 . S
C621 C605 1.349 . S
C621 H613 0.950 . S
C621 C619 1.327 . S
C622 C610 1.349 . S
C622 H616 0.950 . S
C622 C623 1.327 . S
C623 H617 0.950 . S
C623 C622 1.327 . S
C623 C627 1.429 . S
C624 C607 1.574 . S
C624 H618 0.949 . S
C624 C628 1.368 . S
C625 C606 1.429 . S
C625 C619 1.429 . S
C625 C626 1.523 . S
C626 C607 1.368 . S
C626 C620 1.368 . S
C626 C625 1.523 . S
C627 C611 1.429 . S
C627 C623 1.429 . S
C627 C628 1.523 . S
C628 C612 1.368 . S
C628 C624 1.368 . S
C628 C627 1.523 . S
H629 C604 0.950 . S
H630 C606 0.950 . S
H631 C607 0.949 . S
H632 C609 0.950 . S
H633 C611 0.950 . S
C634 C635 1.349 . S
C634 C636 1.327 . S
C634 H659 0.950 . S
C635 C634 1.349 . S
C635 C651 1.349 . S
C636 C634 1.327 . S
C636 C655 1.429 . S
C636 H660 0.950 . S
C637 C654 1.574 . S
C637 C656 1.368 . S
C637 H661 0.949 . S
H638 C642 0.949 . S
C639 C640 1.349 . S
C639 C641 1.327 . S
C639 H662 0.950 . S
C640 C639 1.349 . S
C640 C652 1.349 . S
C641 C639 1.327 . S
C641 C657 1.429 . S
C641 H663 0.950 . S
C642 H638 0.949 . S
C642 C650 1.574 . S
C642 C658 1.368 . S
H643 C651 0.950 . S
H644 C649 0.950 . S
H645 C650 0.949 . S
H646 C652 0.950 . S
H647 C653 0.950 . S
H648 C654 0.949 . S
C649 H644 0.950 . S
C649 C651 1.327 . S
C649 C655 1.429 . S
C650 C642 1.574 . S
C650 H645 0.949 . S
C650 C656 1.368 . S
C651 C635 1.349 . S
C651 H643 0.950 . S
C651 C649 1.327 . S
C652 C640 1.349 . S
C652 H646 0.950 . S
C652 C653 1.327 . S
C653 H647 0.950 . S
C653 C652 1.327 . S
C653 C657 1.429 . S
C654 C637 1.574 . S
C654 H648 0.949 . S
C654 C658 1.368 . S
C655 C636 1.429 . S
C655 C649 1.429 . S
C655 C656 1.523 . S
C656 C637 1.368 . S
C656 C650 1.368 . S
C656 C655 1.523 . S
C657 C641 1.429 . S
C657 C653 1.429 . S
C657 C658 1.523 . S
C658 C642 1.368 . S
C658 C654 1.368 . S
C658 C657 1.523 . S
H659 C634 0.950 . S
H660 C636 0.950 . S
H661 C637 0.949 . S
H662 C639 0.950 . S
H663 C641 0.950 . S
C185 C7 1.498 . S
C190 N71 1.471 . S
C215 N2 1.406 . S
C220 N25 1.401 . S
C245 C62 1.582 1_565 S
C250 C30 1.584 . S
C275 C76 1.538 . S
C280 N58 1.496 . S
C305 C16 1.434 . S
C310 N127 1.408 . S
C335 N12 1.409 . S
C340 N104 1.394 . S
C365 C108 1.585 . S
C370 C53 1.588 . S
C395 N48 1.552 . S
C400 C131 1.593 . S
C425 C154 1.390 1_556 S
C430 N117 1.358 . S
C455 N94 1.434 . S
C460 N150 1.419 . S
C485 C99 1.568 . S
C490 C168 1.567 . S
C515 C122 1.625 . S
C520 N163 1.596 . S
C545 C145 1.476 . S
C550 N81 1.434 . S
C575 N35 1.452 . S
C580 N140 1.458 1_556 S
C605 C39 1.548 . S
C610 C177 1.540 . S
C635 C85 1.558 . S
C640 N173 1.518 . S
