# Generated by pormake.
# Topology yft, (5)-cn, num edge types: 1
# Building blocks:
#     Node 0, Type 0, BuildingBlock: XOMCOT_clean_sbu_0, # of connection points: 5
#     Node 1, Type 0, BuildingBlock: XOMCOT_clean_sbu_0, # of connection points: 5
#     Node 2, Type 0, BuildingBlock: XOMCOT_clean_sbu_0, # of connection points: 5
#     Node 3, Type 0, BuildingBlock: XOMCOT_clean_sbu_0, # of connection points: 5
#     Node 4, Type 0, BuildingBlock: XOMCOT_clean_sbu_0, # of connection points: 5
#     Node 5, Type 0, BuildingBlock: XOMCOT_clean_sbu_0, # of connection points: 5
#     Node 6, Type 0, BuildingBlock: XOMCOT_clean_sbu_0, # of connection points: 5
#     Node 7, Type 0, BuildingBlock: XOMCOT_clean_sbu_0, # of connection points: 5
#     Node 8, Type 0, BuildingBlock: XOMCOT_clean_sbu_0, # of connection points: 5
#     Node 9, Type 0, BuildingBlock: XOMCOT_clean_sbu_0, # of connection points: 5
#     Node 10, Type 0, BuildingBlock: XOMCOT_clean_sbu_0, # of connection points: 5
#     Node 11, Type 0, BuildingBlock: XOMCOT_clean_sbu_0, # of connection points: 5
#     Node 12, Type 0, BuildingBlock: XOMCOT_clean_sbu_0, # of connection points: 5
#     Node 13, Type 0, BuildingBlock: XOMCOT_clean_sbu_0, # of connection points: 5
#     Node 14, Type 0, BuildingBlock: XOMCOT_clean_sbu_0, # of connection points: 5
#     Node 15, Type 0, BuildingBlock: XOMCOT_clean_sbu_0, # of connection points: 5
#     Node 16, Type 0, BuildingBlock: XOMCOT_clean_sbu_0, # of connection points: 5
#     Node 17, Type 0, BuildingBlock: XOMCOT_clean_sbu_0, # of connection points: 5
#     Node 18, Type 0, BuildingBlock: XOMCOT_clean_sbu_0, # of connection points: 5
#     Node 19, Type 0, BuildingBlock: XOMCOT_clean_sbu_0, # of connection points: 5
#     Node 20, Type 0, BuildingBlock: XOMCOT_clean_sbu_0, # of connection points: 5
#     Node 21, Type 0, BuildingBlock: XOMCOT_clean_sbu_0, # of connection points: 5
#     Node 22, Type 0, BuildingBlock: XOMCOT_clean_sbu_0, # of connection points: 5
#     Node 23, Type 0, BuildingBlock: XOMCOT_clean_sbu_0, # of connection points: 5
#     Node 24, Type 0, BuildingBlock: XOMCOT_clean_sbu_0, # of connection points: 5
#     Node 25, Type 0, BuildingBlock: XOMCOT_clean_sbu_0, # of connection points: 5
#     Node 26, Type 0, BuildingBlock: XOMCOT_clean_sbu_0, # of connection points: 5
#     Node 27, Type 0, BuildingBlock: XOMCOT_clean_sbu_0, # of connection points: 5
#     Node 28, Type 0, BuildingBlock: XOMCOT_clean_sbu_0, # of connection points: 5
#     Node 29, Type 0, BuildingBlock: XOMCOT_clean_sbu_0, # of connection points: 5
#     Node 30, Type 0, BuildingBlock: XOMCOT_clean_sbu_0, # of connection points: 5
#     Node 31, Type 0, BuildingBlock: XOMCOT_clean_sbu_0, # of connection points: 5
#     Edge 32, Type (0, 0), BuildingBlock: EZIPEK_clean_linker_0, # of connection points: 2
#     Edge 33, Type (0, 0), BuildingBlock: EZIPEK_clean_linker_0, # of connection points: 2
#     Edge 34, Type (0, 0), BuildingBlock: EZIPEK_clean_linker_0, # of connection points: 2
#     Edge 35, Type (0, 0), BuildingBlock: EZIPEK_clean_linker_0, # of connection points: 2
#     Edge 36, Type (0, 0), BuildingBlock: EZIPEK_clean_linker_0, # of connection points: 2
#     Edge 37, Type (0, 0), BuildingBlock: EZIPEK_clean_linker_0, # of connection points: 2
#     Edge 38, Type (0, 0), BuildingBlock: EZIPEK_clean_linker_0, # of connection points: 2
#     Edge 39, Type (0, 0), BuildingBlock: EZIPEK_clean_linker_0, # of connection points: 2
#     Edge 40, Type (0, 0), BuildingBlock: EZIPEK_clean_linker_0, # of connection points: 2
#     Edge 41, Type (0, 0), BuildingBlock: EZIPEK_clean_linker_0, # of connection points: 2
#     Edge 42, Type (0, 0), BuildingBlock: EZIPEK_clean_linker_0, # of connection points: 2
#     Edge 43, Type (0, 0), BuildingBlock: EZIPEK_clean_linker_0, # of connection points: 2
#     Edge 44, Type (0, 0), BuildingBlock: EZIPEK_clean_linker_0, # of connection points: 2
#     Edge 45, Type (0, 0), BuildingBlock: EZIPEK_clean_linker_0, # of connection points: 2
#     Edge 46, Type (0, 0), BuildingBlock: EZIPEK_clean_linker_0, # of connection points: 2
#     Edge 47, Type (0, 0), BuildingBlock: EZIPEK_clean_linker_0, # of connection points: 2
#     Edge 48, Type (0, 0), BuildingBlock: EZIPEK_clean_linker_0, # of connection points: 2
#     Edge 49, Type (0, 0), BuildingBlock: EZIPEK_clean_linker_0, # of connection points: 2
#     Edge 50, Type (0, 0), BuildingBlock: EZIPEK_clean_linker_0, # of connection points: 2
#     Edge 51, Type (0, 0), BuildingBlock: EZIPEK_clean_linker_0, # of connection points: 2
#     Edge 52, Type (0, 0), BuildingBlock: EZIPEK_clean_linker_0, # of connection points: 2
#     Edge 53, Type (0, 0), BuildingBlock: EZIPEK_clean_linker_0, # of connection points: 2
#     Edge 54, Type (0, 0), BuildingBlock: EZIPEK_clean_linker_0, # of connection points: 2
#     Edge 55, Type (0, 0), BuildingBlock: EZIPEK_clean_linker_0, # of connection points: 2
#     Edge 56, Type (0, 0), BuildingBlock: EZIPEK_clean_linker_0, # of connection points: 2
#     Edge 57, Type (0, 0), BuildingBlock: EZIPEK_clean_linker_0, # of connection points: 2
#     Edge 58, Type (0, 0), BuildingBlock: EZIPEK_clean_linker_0, # of connection points: 2
#     Edge 59, Type (0, 0), BuildingBlock: EZIPEK_clean_linker_0, # of connection points: 2
#     Edge 60, Type (0, 0), BuildingBlock: EZIPEK_clean_linker_0, # of connection points: 2
#     Edge 61, Type (0, 0), BuildingBlock: EZIPEK_clean_linker_0, # of connection points: 2
#     Edge 62, Type (0, 0), BuildingBlock: EZIPEK_clean_linker_0, # of connection points: 2
#     Edge 63, Type (0, 0), BuildingBlock: EZIPEK_clean_linker_0, # of connection points: 2
#     Edge 64, Type (0, 0), BuildingBlock: EZIPEK_clean_linker_0, # of connection points: 2
#     Edge 65, Type (0, 0), BuildingBlock: EZIPEK_clean_linker_0, # of connection points: 2
#     Edge 66, Type (0, 0), BuildingBlock: EZIPEK_clean_linker_0, # of connection points: 2
#     Edge 67, Type (0, 0), BuildingBlock: EZIPEK_clean_linker_0, # of connection points: 2
#     Edge 68, Type (0, 0), BuildingBlock: EZIPEK_clean_linker_0, # of connection points: 2
#     Edge 69, Type (0, 0), BuildingBlock: EZIPEK_clean_linker_0, # of connection points: 2
#     Edge 70, Type (0, 0), BuildingBlock: EZIPEK_clean_linker_0, # of connection points: 2
#     Edge 71, Type (0, 0), BuildingBlock: EZIPEK_clean_linker_0, # of connection points: 2
#     Edge 72, Type (0, 0), BuildingBlock: EZIPEK_clean_linker_0, # of connection points: 2
#     Edge 73, Type (0, 0), BuildingBlock: EZIPEK_clean_linker_0, # of connection points: 2
#     Edge 74, Type (0, 0), BuildingBlock: EZIPEK_clean_linker_0, # of connection points: 2
#     Edge 75, Type (0, 0), BuildingBlock: EZIPEK_clean_linker_0, # of connection points: 2
#     Edge 76, Type (0, 0), BuildingBlock: EZIPEK_clean_linker_0, # of connection points: 2
#     Edge 77, Type (0, 0), BuildingBlock: EZIPEK_clean_linker_0, # of connection points: 2
#     Edge 78, Type (0, 0), BuildingBlock: EZIPEK_clean_linker_0, # of connection points: 2
#     Edge 79, Type (0, 0), BuildingBlock: EZIPEK_clean_linker_0, # of connection points: 2
#     Edge 80, Type (0, 0), BuildingBlock: EZIPEK_clean_linker_0, # of connection points: 2
#     Edge 81, Type (0, 0), BuildingBlock: EZIPEK_clean_linker_0, # of connection points: 2
#     Edge 82, Type (0, 0), BuildingBlock: EZIPEK_clean_linker_0, # of connection points: 2
#     Edge 83, Type (0, 0), BuildingBlock: EZIPEK_clean_linker_0, # of connection points: 2
#     Edge 84, Type (0, 0), BuildingBlock: EZIPEK_clean_linker_0, # of connection points: 2
#     Edge 85, Type (0, 0), BuildingBlock: EZIPEK_clean_linker_0, # of connection points: 2
#     Edge 86, Type (0, 0), BuildingBlock: EZIPEK_clean_linker_0, # of connection points: 2
#     Edge 87, Type (0, 0), BuildingBlock: EZIPEK_clean_linker_0, # of connection points: 2
#     Edge 88, Type (0, 0), BuildingBlock: EZIPEK_clean_linker_0, # of connection points: 2
#     Edge 89, Type (0, 0), BuildingBlock: EZIPEK_clean_linker_0, # of connection points: 2
#     Edge 90, Type (0, 0), BuildingBlock: EZIPEK_clean_linker_0, # of connection points: 2
#     Edge 91, Type (0, 0), BuildingBlock: EZIPEK_clean_linker_0, # of connection points: 2
#     Edge 92, Type (0, 0), BuildingBlock: EZIPEK_clean_linker_0, # of connection points: 2
#     Edge 93, Type (0, 0), BuildingBlock: EZIPEK_clean_linker_0, # of connection points: 2
#     Edge 94, Type (0, 0), BuildingBlock: EZIPEK_clean_linker_0, # of connection points: 2
#     Edge 95, Type (0, 0), BuildingBlock: EZIPEK_clean_linker_0, # of connection points: 2
#     Edge 96, Type (0, 0), BuildingBlock: EZIPEK_clean_linker_0, # of connection points: 2
#     Edge 97, Type (0, 0), BuildingBlock: EZIPEK_clean_linker_0, # of connection points: 2
#     Edge 98, Type (0, 0), BuildingBlock: EZIPEK_clean_linker_0, # of connection points: 2
#     Edge 99, Type (0, 0), BuildingBlock: EZIPEK_clean_linker_0, # of connection points: 2
#     Edge 100, Type (0, 0), BuildingBlock: EZIPEK_clean_linker_0, # of connection points: 2
#     Edge 101, Type (0, 0), BuildingBlock: EZIPEK_clean_linker_0, # of connection points: 2
#     Edge 102, Type (0, 0), BuildingBlock: EZIPEK_clean_linker_0, # of connection points: 2
#     Edge 103, Type (0, 0), BuildingBlock: EZIPEK_clean_linker_0, # of connection points: 2
#     Edge 104, Type (0, 0), BuildingBlock: EZIPEK_clean_linker_0, # of connection points: 2
#     Edge 105, Type (0, 0), BuildingBlock: EZIPEK_clean_linker_0, # of connection points: 2
#     Edge 106, Type (0, 0), BuildingBlock: EZIPEK_clean_linker_0, # of connection points: 2
#     Edge 107, Type (0, 0), BuildingBlock: EZIPEK_clean_linker_0, # of connection points: 2
#     Edge 108, Type (0, 0), BuildingBlock: EZIPEK_clean_linker_0, # of connection points: 2
#     Edge 109, Type (0, 0), BuildingBlock: EZIPEK_clean_linker_0, # of connection points: 2
#     Edge 110, Type (0, 0), BuildingBlock: EZIPEK_clean_linker_0, # of connection points: 2
#     Edge 111, Type (0, 0), BuildingBlock: EZIPEK_clean_linker_0, # of connection points: 2
# Relax obj value: 0.369
# Max RMSD: 0.264
# Mean RMSD: 0.264
data_MOF--net-yft--node1-XOMCOT_clean_sbu_0--edge1-EZIPEK_clean_linker_0
_symmetry_space_group_name_H-M    P1
_symmetry_Int_Tables_number       1
_symmetry_cell_setting            triclinic
loop_
_symmetry_equiv_pos_as_xyz
'x, y, z'
_cell_length_a     33.240725
_cell_length_b     33.244816
_cell_length_c     73.279371
_cell_angle_alpha  89.913532
_cell_angle_beta   89.988536
_cell_angle_gamma 89.96746
loop_
_atom_site_label
_atom_site_type_symbol
_atom_site_fract_x
_atom_site_fract_y
_atom_site_fract_z
_atom_type_partial_charge
Co0 Co 0.31563 0.20644 0.16286 0.0
C1 C 0.23922 0.16817 0.15153 0.0
C2 C 0.25292 0.21919 0.13483 0.0
C3 C 0.21821 0.20163 0.12832 0.0
N4 N 0.26532 0.19915 0.14981 0.0
N5 N 0.20996 0.16934 0.13879 0.0
H6 H 0.24267 0.14365 0.16107 0.0
H7 H 0.26953 0.24291 0.12822 0.0
C8 C 0.29477 0.29511 0.15503 0.0
O9 O 0.25785 0.29124 0.16116 0.0
N10 N 0.36531 0.21236 0.17587 0.0
C11 C 0.37476 0.19256 0.19121 0.0
C12 C 0.41001 0.20779 0.19778 0.0
C13 C 0.39482 0.2394 0.17326 0.0
N14 N 0.42203 0.23891 0.18708 0.0
C15 C 0.26576 0.19094 0.19483 0.0
C16 C 0.28677 0.2612 0.21265 0.0
C17 C 0.2643 0.23246 0.22208 0.0
C18 C 0.25335 0.19706 0.21296 0.0
C19 C 0.29885 0.25369 0.19474 0.0
N20 N 0.28796 0.2193 0.18579 0.0
H21 H 0.25992 0.1622 0.18865 0.0
H22 H 0.32021 0.27392 0.18867 0.0
H23 H 0.35692 0.16892 0.19732 0.0
H24 H 0.39633 0.25803 0.16122 0.0
O25 O 0.32127 0.14807 0.16504 0.0
O26 O 0.3445 0.18502 0.14224 0.0
O27 O 0.31915 0.26529 0.15514 0.0
C28 C 0.3416 0.14983 0.14982 0.0
H29 H 0.20179 0.21024 0.11617 0.0
H30 H 0.42581 0.19525 0.20932 0.0
H31 H 0.29696 0.28825 0.21946 0.0
H32 H 0.23686 0.17368 0.22004 0.0
Co33 Co 0.04432 0.05674 0.41386 0.0
C34 C 0.0718 0.97709 0.40193 0.0
C35 C 0.04008 0.00766 0.38055 0.0
C36 C 0.05809 0.97383 0.37331 0.0
N37 N 0.04837 0.00949 0.39855 0.0
N38 N 0.07811 0.9549 0.3868 0.0
H39 H 0.08742 0.97199 0.41466 0.0
H40 H 0.02531 0.03124 0.37289 0.0
C41 C 0.95753 0.04263 0.40135 0.0
O42 O 0.96304 0.00355 0.40049 0.0
N43 N 0.04232 0.10354 0.42927 0.0
C44 C 0.0652 0.10922 0.44425 0.0
C45 C 0.06213 0.1485 0.44959 0.0
C46 C 0.02533 0.13953 0.4257 0.0
N47 N 0.03723 0.16739 0.43794 0.0
C48 C 0.06564 0.01187 0.44628 0.0
C49 C 0.98879 0.00628 0.4604 0.0
C50 C 0.02132 0.99841 0.47189 0.0
C51 C 0.06017 0.99972 0.46449 0.0
C52 C 0.99559 0.01861 0.44242 0.0
N53 N 0.0337 0.02349 0.4357 0.0
H54 H 0.09598 0.01524 0.44124 0.0
H55 H 0.96974 0.02592 0.43453 0.0
H56 H 0.08533 0.08739 0.45018 0.0
H57 H 0.00677 0.1458 0.4139 0.0
O58 O 0.10321 0.06014 0.4143 0.0
O59 O 0.06396 0.08982 0.39408 0.0
O60 O 0.98522 0.06545 0.40766 0.0
C61 C 0.09999 0.08423 0.4003 0.0
H62 H 0.05932 0.96567 0.35903 0.0
H63 H 0.07817 0.16268 0.46071 0.0
H64 H 0.95828 0.00492 0.46557 0.0
H65 H 0.08611 0.99341 0.47296 0.0
Co66 Co 0.18884 0.8016 0.66466 0.0
C67 C 0.26688 0.83405 0.65367 0.0
C68 C 0.24437 0.79295 0.63353 0.0
C69 C 0.27891 0.81082 0.62684 0.0
N70 N 0.23702 0.80765 0.65034 0.0
N71 N 0.29278 0.83656 0.63957 0.0
H72 H 0.2682 0.85312 0.66561 0.0
H73 H 0.22476 0.7726 0.62624 0.0
C74 C 0.16424 0.71363 0.66275 0.0
O75 O 0.14852 0.71525 0.67918 0.0
N76 N 0.14056 0.79799 0.67932 0.0
C77 C 0.13472 0.81769 0.69522 0.0
C78 C 0.09493 0.81619 0.69977 0.0
C79 C 0.10361 0.78542 0.67422 0.0
N80 N 0.07558 0.79562 0.68669 0.0
C81 C 0.2306 0.81977 0.69816 0.0
C82 C 0.24284 0.74104 0.70894 0.0
C83 C 0.24625 0.77158 0.72195 0.0
C84 C 0.24218 0.81156 0.71618 0.0
C85 C 0.23128 0.75063 0.69107 0.0
N86 N 0.22156 0.78928 0.68635 0.0
H87 H 0.22515 0.85065 0.69429 0.0
H88 H 0.229 0.72644 0.68144 0.0
H89 H 0.15677 0.835 0.70251 0.0
H90 H 0.09714 0.77024 0.6615 0.0
O91 O 0.18376 0.86022 0.66627 0.0
O92 O 0.15701 0.82242 0.64474 0.0
O93 O 0.18512 0.74308 0.65661 0.0
C94 C 0.16093 0.85786 0.65182 0.0
H95 H 0.29171 0.80683 0.61338 0.0
H96 H 0.08093 0.82973 0.71161 0.0
H97 H 0.24745 0.70987 0.71273 0.0
H98 H 0.24575 0.83606 0.72577 0.0
Co99 Co 0.45433 0.94678 0.91069 0.0
C100 C 0.41997 0.0251 0.90144 0.0
C101 C 0.46309 0.00669 0.88127 0.0
C102 C 0.44462 0.04159 0.87533 0.0
N103 N 0.44748 0.99654 0.89761 0.0
N104 N 0.41761 0.05285 0.88807 0.0
H105 H 0.40007 0.02409 0.91313 0.0
H106 H 0.48449 0.98873 0.8737 0.0
C107 C 0.54303 0.9259 0.9091 0.0
O108 O 0.54204 0.91371 0.92617 0.0
N109 N 0.45927 0.89663 0.92402 0.0
C110 C 0.43887 0.88691 0.93921 0.0
C111 C 0.4476 0.84814 0.94383 0.0
C112 C 0.47831 0.86245 0.91913 0.0
N113 N 0.47496 0.83312 0.93196 0.0
C114 C 0.43727 0.981 0.94589 0.0
C115 C 0.5154 0.0015 0.95467 0.0
C116 C 0.48658 0.99979 0.96861 0.0
C117 C 0.44665 0.99155 0.96387 0.0
C118 C 0.50454 0.99103 0.93681 0.0
N119 N 0.46675 0.97703 0.93302 0.0
H120 H 0.40656 0.97324 0.9427 0.0
H121 H 0.52715 0.99291 0.92632 0.0
H122 H 0.41668 0.90533 0.94589 0.0
H123 H 0.49295 0.85904 0.90608 0.0
O124 O 0.39607 0.94157 0.91277 0.0
O125 O 0.43272 0.91704 0.89031 0.0
O126 O 0.51274 0.94438 0.9023 0.0
C127 C 0.3976 0.92025 0.89789 0.0
H128 H 0.4489 0.05623 0.86227 0.0
H129 H 0.43223 0.83199 0.95453 0.0
H130 H 0.54627 0.00951 0.95769 0.0
H131 H 0.42327 0.99137 0.97417 0.0
Co132 Co 0.30243 0.7942 0.35556 0.0
C133 C 0.22389 0.82877 0.36446 0.0
C134 C 0.24058 0.78356 0.38401 0.0
C135 C 0.2063 0.80286 0.39014 0.0
N136 N 0.25149 0.79994 0.36793 0.0
N137 N 0.19611 0.83129 0.37784 0.0
H138 H 0.2259 0.8497 0.35318 0.0
H139 H 0.25786 0.76126 0.39138 0.0
C140 C 0.32594 0.70598 0.35617 0.0
O141 O 0.34367 0.70963 0.34023 0.0
N142 N 0.35354 0.79145 0.34298 0.0
C143 C 0.36335 0.81479 0.32855 0.0
C144 C 0.40408 0.81413 0.32613 0.0
C145 C 0.38902 0.77729 0.34932 0.0
N146 N 0.42008 0.79021 0.33901 0.0
C147 C 0.26807 0.81737 0.32083 0.0
C148 C 0.25291 0.74044 0.3084 0.0
C149 C 0.25177 0.77232 0.29593 0.0
C150 C 0.25763 0.81143 0.30247 0.0
C151 C 0.26331 0.74774 0.32661 0.0
N152 N 0.27406 0.78543 0.33231 0.0
H153 H 0.27423 0.84758 0.32545 0.0
H154 H 0.26358 0.72253 0.3358 0.0
H155 H 0.34319 0.83403 0.32109 0.0
H156 H 0.39224 0.75918 0.36152 0.0
O157 O 0.3093 0.85286 0.35577 0.0
O158 O 0.33025 0.81127 0.37724 0.0
O159 O 0.30371 0.73453 0.36224 0.0
C160 C 0.32888 0.84769 0.37104 0.0
H161 H 0.19143 0.79812 0.40311 0.0
H162 H 0.42093 0.83039 0.31585 0.0
H163 H 0.24706 0.70994 0.30395 0.0
H164 H 0.25598 0.83695 0.2933 0.0
Co165 Co 0.46864 0.053 0.61104 0.0
C166 C 0.42511 0.97923 0.62044 0.0
C167 C 0.46808 0.99411 0.64125 0.0
C168 C 0.44589 0.96136 0.64704 0.0
N169 N 0.45489 0.0052 0.6246 0.0
N170 N 0.41899 0.95228 0.63392 0.0
H171 H 0.40673 0.98132 0.6083 0.0
H172 H 0.49084 0.00976 0.64901 0.0
C173 C 0.55943 0.06351 0.61408 0.0
O174 O 0.56281 0.07528 0.59702 0.0
N175 N 0.48031 0.10103 0.59696 0.0
C176 C 0.46137 0.1109 0.5814 0.0
C177 C 0.47307 0.14833 0.57613 0.0
C178 C 0.50214 0.13393 0.60128 0.0
N179 N 0.50083 0.16249 0.58798 0.0
C180 C 0.44528 0.01789 0.57683 0.0
C181 C 0.52149 0.99475 0.56609 0.0
C182 C 0.49132 0.9985 0.55288 0.0
C183 C 0.45228 0.00792 0.55856 0.0
C184 C 0.51311 0.00507 0.58424 0.0
N185 N 0.47639 0.02042 0.58898 0.0
H186 H 0.41548 0.02751 0.58073 0.0
H187 H 0.53686 0.00219 0.59411 0.0
H188 H 0.43751 0.09411 0.57506 0.0
H189 H 0.51666 0.13746 0.61436 0.0
O190 O 0.4114 0.06682 0.60921 0.0
O191 O 0.45229 0.08606 0.63128 0.0
O192 O 0.52662 0.04762 0.61967 0.0
C193 C 0.41673 0.08749 0.62414 0.0
H194 H 0.44819 0.94635 0.66012 0.0
H195 H 0.45888 0.16467 0.56515 0.0
H196 H 0.55167 0.98581 0.56227 0.0
H197 H 0.42793 0.00985 0.54878 0.0
Co198 Co 0.19067 0.20734 0.8581 0.0
C199 C 0.27207 0.18076 0.86815 0.0
C200 C 0.24198 0.20809 0.8908 0.0
C201 C 0.27642 0.18963 0.89712 0.0
N202 N 0.23932 0.20281 0.87257 0.0
N203 N 0.29501 0.17233 0.88284 0.0
H204 H 0.27691 0.16712 0.855 0.0
H205 H 0.21873 0.2211 0.89922 0.0
C206 C 0.20085 0.29239 0.87381 0.0
O207 O 0.23975 0.2888 0.87643 0.0
N208 N 0.14264 0.21001 0.84356 0.0
C209 C 0.13678 0.18954 0.82792 0.0
C210 C 0.09731 0.19324 0.82289 0.0
C211 C 0.10679 0.2265 0.84777 0.0
N212 N 0.07864 0.2164 0.83533 0.0
C213 C 0.23644 0.19387 0.82528 0.0
C214 C 0.2283 0.27105 0.81165 0.0
C215 C 0.24207 0.24074 0.80006 0.0
C216 C 0.24739 0.20199 0.80716 0.0
C217 C 0.21772 0.26177 0.82962 0.0
N218 N 0.22082 0.2233 0.83624 0.0
H219 H 0.23718 0.16305 0.82991 0.0
H220 H 0.20406 0.28538 0.83746 0.0
H221 H 0.15901 0.17118 0.82115 0.0
H222 H 0.10095 0.24378 0.86 0.0
O223 O 0.18921 0.14867 0.85568 0.0
O224 O 0.16014 0.18345 0.87768 0.0
O225 O 0.1807 0.26457 0.866 0.0
C226 C 0.16619 0.14882 0.87011 0.0
H227 H 0.28519 0.18603 0.91126 0.0
H228 H 0.083 0.17927 0.81124 0.0
H229 H 0.22356 0.30127 0.80652 0.0
H230 H 0.25758 0.17773 0.79846 0.0
Co231 Co 0.05574 0.93923 0.10676 0.0
C232 C 0.09479 0.01216 0.12188 0.0
C233 C 0.03094 0.01965 0.12185 0.0
C234 C 0.0483 0.05523 0.1274 0.0
N235 N 0.06003 0.99232 0.11827 0.0
N236 N 0.0884 0.05034 0.12737 0.0
H237 H 0.12456 1.00003 0.11971 0.0
H238 H 0.99926 0.01547 0.12005 0.0
C239 C 0.9634 0.94615 0.11288 0.0
O240 O 0.9582 0.97511 0.1009 0.0
N241 N 0.05448 0.88775 0.09485 0.0
C242 C 0.07618 0.87993 0.07969 0.0
C243 C 0.07153 0.84041 0.07517 0.0
C244 C 0.03692 0.85273 0.09955 0.0
N245 N 0.04704 0.82359 0.0876 0.0
C246 C 0.06158 0.99249 0.07556 0.0
C247 C 1.00009 0.9566 0.05595 0.0
C248 C 0.0231 0.9864 0.04751 0.0
C249 C 0.05396 0.00488 0.05753 0.0
C250 C 0.00869 0.94516 0.07384 0.0
N251 N 0.03886 0.96317 0.08357 0.0
H252 H 0.08698 0.00486 0.08277 0.0
H253 H 0.9921 0.9203 0.07962 0.0
H254 H 0.09436 0.90172 0.07245 0.0
H255 H 0.01759 0.84859 0.11129 0.0
O256 O 0.11398 0.93697 0.10358 0.0
O257 O 0.08101 0.91435 0.12756 0.0
O258 O 0.99834 0.93132 0.116 0.0
C259 C 0.11513 0.9175 0.11907 0.0
H260 H 0.03281 0.08302 0.13057 0.0
H261 H 0.08474 0.82505 0.06361 0.0
H262 H 0.97652 0.94121 0.04851 0.0
H263 H 0.07286 0.02753 0.05126 0.0
Co264 Co 0.69883 0.79036 0.85755 0.0
C265 C 0.77574 0.82813 0.86702 0.0
C266 C 0.7571 0.78628 0.88773 0.0
C267 C 0.79081 0.80646 0.89384 0.0
N268 N 0.74777 0.80001 0.87094 0.0
N269 N 0.80225 0.83272 0.8808 0.0
H270 H 0.77514 0.84682 0.85492 0.0
H271 H 0.73928 0.76495 0.89541 0.0
C272 C 0.68121 0.70082 0.85957 0.0
O273 O 0.66959 0.70058 0.84243 0.0
N274 N 0.64956 0.78266 0.84388 0.0
C275 C 0.64031 0.80076 0.82803 0.0
C276 C 0.60266 0.78923 0.82285 0.0
C277 C 0.61607 0.76222 0.84856 0.0
N278 N 0.58805 0.76245 0.83509 0.0
C279 C 0.73425 0.81059 0.82286 0.0
C280 C 0.7537 0.73302 0.81269 0.0
C281 C 0.75172 0.76289 0.79923 0.0
C282 C 0.74419 0.80253 0.80465 0.0
C283 C 0.74391 0.74255 0.83079 0.0
N284 N 0.73027 0.7801 0.83527 0.0
H285 H 0.72614 0.84097 0.82653 0.0
H286 H 0.74581 0.71907 0.84087 0.0
H287 H 0.65815 0.82317 0.82117 0.0
H288 H 0.61232 0.74833 0.86178 0.0
O289 O 0.6897 0.84846 0.85569 0.0
O290 O 0.66758 0.8095 0.87795 0.0
O291 O 0.69952 0.73166 0.86597 0.0
C292 C 0.66878 0.84496 0.87066 0.0
H293 H 0.80468 0.80357 0.90714 0.0
H294 H 0.58685 0.80219 0.81141 0.0
H295 H 0.76117 0.70231 0.80911 0.0
H296 H 0.7436 0.82664 0.79469 0.0
Co297 Co 0.94472 0.94288 0.60952 0.0
C298 C 0.91588 0.02533 0.61564 0.0
C299 C 0.96328 0.01148 0.63435 0.0
C300 C 0.94677 0.04802 0.63915 0.0
N301 N 0.94434 0.99731 0.61937 0.0
N302 N 0.91699 0.05647 0.62734 0.0
H303 H 0.89197 0.02141 0.60584 0.0
H304 H 0.98534 0.99543 0.64222 0.0
C305 C 0.03395 0.95199 0.61948 0.0
O306 O 0.0355 0.98893 0.61314 0.0
N307 N 0.94224 0.88991 0.59938 0.0
C308 C 0.91618 0.87931 0.58613 0.0
C309 C 0.92006 0.83905 0.58291 0.0
C310 C 0.96227 0.85618 0.60393 0.0
N311 N 0.94901 0.82478 0.594 0.0
C312 C 0.93831 0.98439 0.57468 0.0
C313 C 0.00859 0.95319 0.56018 0.0
C314 C 0.98389 0.97668 0.549 0.0
C315 C 0.94848 0.99267 0.55645 0.0
C316 C 0.99733 0.9456 0.57824 0.0
N317 N 0.96292 0.96165 0.58551 0.0
H318 H 0.90956 0.99441 0.57967 0.0
H319 H 0.01532 0.92463 0.58595 0.0
H320 H 0.89563 0.89956 0.5793 0.0
H321 H 0.9857 0.85447 0.61415 0.0
O322 O 0.88612 0.94495 0.60714 0.0
O323 O 0.91902 0.92345 0.63129 0.0
O324 O 0.00154 0.93155 0.61835 0.0
C325 C 0.88458 0.92865 0.62335 0.0
H326 H 0.95386 0.06544 0.6512 0.0
H327 H 0.9037 0.82156 0.57291 0.0
H328 H 0.03564 0.9395 0.55476 0.0
H329 H 0.92815 0.01016 0.54804 0.0
Co330 Co 0.80949 0.19745 0.35986 0.0
C331 C 0.73392 0.15747 0.37138 0.0
C332 C 0.72863 0.22118 0.37466 0.0
C333 C 0.69268 0.20372 0.37964 0.0
N334 N 0.75471 0.19225 0.36934 0.0
N335 N 0.69629 0.16374 0.37758 0.0
H336 H 0.74544 0.12793 0.36814 0.0
H337 H 0.73439 0.25285 0.37503 0.0
C338 C 0.80013 0.28989 0.36509 0.0
O339 O 0.7708 0.29447 0.35325 0.0
N340 N 0.86329 0.20082 0.35021 0.0
C341 C 0.87782 0.1774 0.33682 0.0
C342 C 0.91302 0.19376 0.3307 0.0
C343 C 0.89031 0.23054 0.35232 0.0
N344 N 0.91992 0.22873 0.33963 0.0
C345 C 0.76268 0.18922 0.32674 0.0
C346 C 0.7987 0.25283 0.30856 0.0
C347 C 0.77173 0.2285 0.29905 0.0
C348 C 0.75317 0.19652 0.30833 0.0
C349 C 0.8075 0.24438 0.32673 0.0
N350 N 0.78953 0.21311 0.33576 0.0
H351 H 0.74978 0.16341 0.33353 0.0
H352 H 0.83006 0.26244 0.33334 0.0
H353 H 0.86299 0.15117 0.3313 0.0
H354 H 0.88752 0.25279 0.36287 0.0
O355 O 0.8135 0.13925 0.35707 0.0
O356 O 0.83058 0.17319 0.38166 0.0
O357 O 0.81432 0.25507 0.36886 0.0
C358 C 0.82904 0.13866 0.37343 0.0
H359 H 0.66596 0.21907 0.38442 0.0
H360 H 0.93186 0.18053 0.32029 0.0
H361 H 0.81393 0.27748 0.30176 0.0
H362 H 0.7325 0.17677 0.30127 0.0
Co363 Co 0.54513 0.05983 0.10682 0.0
C364 C 0.58903 0.98798 0.12033 0.0
C365 C 0.52548 0.97817 0.12166 0.0
C366 C 0.5447 0.94364 0.12738 0.0
N367 N 0.55321 0.00624 0.11721 0.0
N368 N 0.58455 0.95006 0.12652 0.0
H369 H 0.61807 0.00139 0.11773 0.0
H370 H 0.49349 0.9815 0.12063 0.0
C371 C 0.45267 0.04736 0.11239 0.0
O372 O 0.44803 0.01835 0.10043 0.0
N373 N 0.53868 0.11238 0.09613 0.0
C374 C 0.5597 0.12552 0.08168 0.0
C375 C 0.54266 0.16035 0.07557 0.0
C376 C 0.50922 0.13958 0.09873 0.0
N377 N 0.50944 0.1685 0.08563 0.0
C378 C 0.55793 0.01212 0.0744 0.0
C379 C 0.49312 0.04313 0.05522 0.0
C380 C 0.52048 0.01851 0.04604 0.0
C381 C 0.553 0.00236 0.05586 0.0
C382 C 0.49938 0.05243 0.07354 0.0
N383 N 0.53138 0.03708 0.08302 0.0
H384 H 0.58423 0.00138 0.08157 0.0
H385 H 0.47956 0.07406 0.07979 0.0
H386 H 0.58462 0.1098 0.07544 0.0
H387 H 0.48851 0.13749 0.10996 0.0
O388 O 0.60324 0.06707 0.10414 0.0
O389 O 0.56743 0.08398 0.12839 0.0
O390 O 0.4873 0.06233 0.11577 0.0
C391 C 0.60199 0.08411 0.12019 0.0
H392 H 0.53062 0.91577 0.13159 0.0
H393 H 0.55433 0.17822 0.06443 0.0
H394 H 0.46801 0.0566 0.04803 0.0
H395 H 0.57504 0.98355 0.04911 0.0
Co396 Co 0.69907 0.22377 0.66284 0.0
C397 C 0.76507 0.18534 0.64133 0.0
C398 C 0.78618 0.23456 0.65744 0.0
C399 C 0.81897 0.21422 0.65076 0.0
N400 N 0.75207 0.21628 0.6518 0.0
N401 N 0.80567 0.18299 0.64087 0.0
H402 H 0.74571 0.16304 0.63536 0.0
H403 H 0.78784 0.25788 0.66759 0.0
C404 C 0.71558 0.31471 0.65552 0.0
O405 O 0.74779 0.31776 0.66574 0.0
N406 N 0.64797 0.23099 0.67467 0.0
C407 C 0.63507 0.20836 0.68867 0.0
C408 C 0.60062 0.22499 0.69536 0.0
C409 C 0.62135 0.26139 0.67312 0.0
N410 N 0.59235 0.25941 0.68614 0.0
C411 C 0.74514 0.20857 0.6954 0.0
C412 C 0.71982 0.27684 0.71373 0.0
C413 C 0.74106 0.24742 0.72334 0.0
C414 C 0.75459 0.21323 0.71395 0.0
C415 C 0.71087 0.27092 0.69535 0.0
N416 N 0.72325 0.2371 0.68635 0.0
H417 H 0.75352 0.18111 0.6885 0.0
H418 H 0.69114 0.29215 0.68881 0.0
H419 H 0.65 0.18179 0.69383 0.0
H420 H 0.62324 0.28328 0.66235 0.0
O421 O 0.69158 0.1653 0.66547 0.0
O422 O 0.67222 0.20111 0.64168 0.0
O423 O 0.69669 0.28146 0.65381 0.0
C424 C 0.67209 0.16664 0.65 0.0
H425 H 0.85009 0.21945 0.65442 0.0
H426 H 0.58256 0.21166 0.70604 0.0
H427 H 0.70831 0.30323 0.72065 0.0
H428 H 0.77072 0.18967 0.72108 0.0
Co429 Co 0.54557 0.93694 0.41619 0.0
C430 C 0.58373 0.0107 0.40243 0.0
C431 C 0.52457 0.00406 0.3911 0.0
C432 C 0.54141 0.03894 0.38429 0.0
N433 N 0.55118 0.98646 0.40252 0.0
N434 N 0.57856 0.04273 0.39141 0.0
H435 H 0.61085 0.00521 0.4102 0.0
H436 H 0.4951 0.99254 0.38775 0.0
C437 C 0.45819 0.90944 0.41215 0.0
O438 O 0.46056 0.88674 0.42678 0.0
N439 N 0.54255 0.88793 0.43026 0.0
C440 C 0.5602 0.88282 0.44671 0.0
C441 C 0.56185 0.84267 0.4507 0.0
C442 C 0.53427 0.85043 0.42434 0.0
N443 N 0.54491 0.82253 0.4368 0.0
C444 C 0.56512 0.98246 0.44834 0.0
C445 C 0.48941 0.97872 0.46388 0.0
C446 C 0.52215 0.98876 0.4749 0.0
C447 C 0.56013 0.99261 0.46679 0.0
C448 C 0.49569 0.96884 0.44558 0.0
N449 N 0.53362 0.96779 0.43835 0.0
H450 H 0.59507 0.98273 0.44264 0.0
H451 H 0.46992 0.96025 0.43777 0.0
H452 H 0.57392 0.90612 0.45477 0.0
H453 H 0.52154 0.84366 0.41111 0.0
O454 O 0.60413 0.93175 0.41794 0.0
O455 O 0.56658 0.90687 0.3958 0.0
O456 O 0.48671 0.93388 0.40818 0.0
C457 C 0.60196 0.91031 0.40309 0.0
H458 H 0.52775 0.05967 0.37471 0.0
H459 H 0.57465 0.82911 0.46282 0.0
H460 H 0.45944 0.97659 0.46961 0.0
H461 H 0.58604 1.00099 0.47489 0.0
Co462 Co 0.81543 0.80518 0.16681 0.0
C463 C 0.74098 0.84243 0.15329 0.0
C464 C 0.74871 0.78353 0.14181 0.0
C465 C 0.71358 0.79991 0.13503 0.0
N466 N 0.76577 0.81026 0.15328 0.0
N467 N 0.70908 0.83691 0.14223 0.0
H468 H 0.74611 0.86949 0.16114 0.0
H469 H 0.76088 0.75435 0.13839 0.0
C470 C 0.83984 0.71707 0.16627 0.0
O471 O 0.85568 0.71999 0.18264 0.0
N472 N 0.86499 0.80224 0.1806 0.0
C473 C 0.87328 0.82117 0.19649 0.0
C474 C 0.91357 0.81754 0.20021 0.0
C475 C 0.90071 0.78833 0.17467 0.0
N476 N 0.93036 0.79629 0.18663 0.0
C477 C 0.77731 0.82535 0.20096 0.0
C478 C 0.75986 0.74728 0.21129 0.0
C479 C 0.75808 0.77769 0.22442 0.0
C480 C 0.76489 0.81749 0.2189 0.0
C481 C 0.7722 0.75652 0.19355 0.0
N482 N 0.78435 0.79458 0.18904 0.0
H483 H 0.78441 0.85592 0.19713 0.0
H484 H 0.77288 0.73247 0.18377 0.0
H485 H 0.85251 0.83869 0.20446 0.0
H486 H 0.90506 0.77293 0.16181 0.0
O487 O 0.82135 0.8639 0.16742 0.0
O488 O 0.84531 0.8238 0.146 0.0
O489 O 0.81878 0.74601 0.15978 0.0
C490 C 0.84257 0.85982 0.15253 0.0
H491 H 0.69325 0.78612 0.12535 0.0
H492 H 0.92943 0.82956 0.2119 0.0
H493 H 0.75311 0.71639 0.2149 0.0
H494 H 0.76254 0.84195 0.22859 0.0
Co495 Co 0.95081 0.06179 0.91189 0.0
C496 C 0.92626 0.97935 0.90266 0.0
C497 C 0.9631 0.00424 0.88159 0.0
C498 C 0.94627 0.96909 0.87522 0.0
N499 N 0.95093 0.01068 0.89893 0.0
N500 N 0.92295 0.95374 0.88849 0.0
H501 H 0.90709 0.97757 0.9145 0.0
H502 H 0.97968 0.02529 0.8734 0.0
C503 C 0.0383 0.05378 0.89994 0.0
O504 O 0.03783 0.01481 0.90289 0.0
N505 N 0.94792 0.11152 0.92505 0.0
C506 C 0.92311 0.11745 0.93937 0.0
C507 C 0.92399 0.15724 0.94403 0.0
C508 C 0.96404 0.14768 0.92121 0.0
N509 N 0.94974 0.17598 0.9327 0.0
C510 C 0.9416 0.01593 0.94525 0.0
C511 C 0.01515 0.03713 0.96004 0.0
C512 C 0.98779 0.01608 0.97088 0.0
C513 C 0.95074 0.00503 0.9633 0.0
C514 C 0.00474 0.04774 0.94219 0.0
N515 N 0.9686 0.03667 0.93475 0.0
H516 H 0.91161 0.01032 0.9403 0.0
H517 H 0.02479 0.06767 0.93506 0.0
H518 H 0.90453 0.09457 0.9456 0.0
H519 H 0.98456 0.15347 0.91004 0.0
O520 O 0.89226 0.05847 0.914 0.0
O521 O 0.92526 0.087 0.89136 0.0
O522 O 0.00764 0.07539 0.90375 0.0
C523 C 0.89083 0.0791 0.89885 0.0
H524 H 0.94796 0.95773 0.8614 0.0
H525 H 0.90699 0.17156 0.95482 0.0
H526 H 0.04356 0.0472 0.96565 0.0
H527 H 0.92842 0.98967 0.97151 0.0
Co528 Co 0.81011 0.71404 0.6615 0.0
C529 C 0.73303 0.67863 0.65038 0.0
C530 C 0.75457 0.72051 0.63036 0.0
C531 C 0.72007 0.70277 0.62379 0.0
N532 N 0.76196 0.70626 0.64724 0.0
N533 N 0.70698 0.67601 0.6363 0.0
H534 H 0.7324 0.65906 0.66218 0.0
H535 H 0.77438 0.74029 0.62287 0.0
C536 C 0.78783 0.80143 0.65022 0.0
O537 O 0.74892 0.79453 0.64997 0.0
N538 N 0.85788 0.72088 0.67589 0.0
C539 C 0.8684 0.69954 0.69067 0.0
C540 C 0.90306 0.71538 0.69759 0.0
C541 C 0.88644 0.74917 0.67392 0.0
N542 N 0.9139 0.748 0.68761 0.0
C543 C 0.7738 0.68726 0.69505 0.0
C544 C 0.75987 0.7626 0.70952 0.0
C545 C 0.76012 0.72948 0.72126 0.0
C546 C 0.76536 0.69117 0.71374 0.0
C547 C 0.76881 0.75735 0.69101 0.0
N548 N 0.77849 0.72039 0.68412 0.0
H549 H 0.78023 0.65762 0.68984 0.0
H550 H 0.76954 0.78361 0.68273 0.0
H551 H 0.85283 0.6734 0.69582 0.0
H552 H 0.88748 0.76864 0.66217 0.0
O553 O 0.81856 0.65573 0.66164 0.0
O554 O 0.84276 0.69727 0.64088 0.0
O555 O 0.81245 0.77423 0.65564 0.0
C556 C 0.84024 0.66069 0.647 0.0
H557 H 0.70729 0.70689 0.61032 0.0
H558 H 0.91983 0.70204 0.70869 0.0
H559 H 0.75487 0.79261 0.71479 0.0
H560 H 0.76503 0.66471 0.72238 0.0
Co561 Co 0.54008 0.55239 0.91339 0.0
C562 C 0.58393 0.48202 0.89871 0.0
C563 C 0.52058 0.47075 0.90056 0.0
C564 C 0.53964 0.43533 0.89597 0.0
N565 N 0.54839 0.50003 0.90239 0.0
N566 N 0.5794 0.44262 0.89484 0.0
H567 H 0.61296 0.49636 0.90003 0.0
H568 H 0.48889 0.47405 0.90347 0.0
C569 C 0.4498 0.56755 0.91165 0.0
O570 O 0.45181 0.58611 0.92745 0.0
N571 N 0.53309 0.60441 0.92472 0.0
C572 C 0.55128 0.61649 0.94025 0.0
C573 C 0.54472 0.65664 0.94263 0.0
C574 C 0.5162 0.63796 0.91764 0.0
N575 N 0.52266 0.66999 0.92851 0.0
C576 C 0.55948 0.52296 0.94941 0.0
C577 C 0.48229 0.50246 0.95978 0.0
C578 C 0.51197 0.50574 0.97322 0.0
C579 C 0.55143 0.51416 0.96776 0.0
C580 C 0.4917 0.51162 0.94161 0.0
N581 N 0.52904 0.5256 0.9369 0.0
H582 H 0.58985 0.53077 0.9456 0.0
H583 H 0.46839 0.50802 0.9316 0.0
H584 H 0.57028 0.59847 0.94886 0.0
H585 H 0.49986 0.63895 0.90489 0.0
O586 O 0.59816 0.56125 0.91526 0.0
O587 O 0.56056 0.57907 0.89179 0.0
O588 O 0.48163 0.55147 0.90506 0.0
C589 C 0.59564 0.57952 0.89955 0.0
H590 H 0.52572 0.4061 0.89445 0.0
H591 H 0.5555 0.67495 0.95381 0.0
H592 H 0.45182 0.49408 0.96339 0.0
H593 H 0.57549 0.5155 0.97771 0.0
Co594 Co 0.69759 0.29695 0.16423 0.0
C595 C 0.76674 0.33809 0.14696 0.0
C596 C 0.77633 0.2745 0.14912 0.0
C597 C 0.81206 0.29243 0.14406 0.0
N598 N 0.7479 0.30317 0.15109 0.0
N599 N 0.80591 0.33239 0.14279 0.0
H600 H 0.7534 0.36756 0.14847 0.0
H601 H 0.77244 0.24315 0.15263 0.0
C602 C 0.67217 0.20946 0.16077 0.0
O603 O 0.65408 0.21069 0.17669 0.0
N604 N 0.64805 0.2929 0.17798 0.0
C605 C 0.64188 0.3108 0.19429 0.0
C606 C 0.60191 0.30937 0.19848 0.0
C607 C 0.61109 0.28163 0.17225 0.0
N608 N 0.58276 0.29066 0.18478 0.0
C609 C 0.73905 0.31445 0.19783 0.0
C610 C 0.74669 0.23565 0.20942 0.0
C611 C 0.75208 0.26656 0.22207 0.0
C612 C 0.75024 0.30646 0.21593 0.0
C613 C 0.73554 0.24498 0.19153 0.0
N614 N 0.72829 0.28389 0.18636 0.0
H615 H 0.73548 0.34536 0.19357 0.0
H616 H 0.73187 0.22043 0.18222 0.0
H617 H 0.66413 0.3263 0.20227 0.0
H618 H 0.605 0.26752 0.15924 0.0
O619 O 0.69154 0.3554 0.16641 0.0
O620 O 0.66753 0.3183 0.144 0.0
O621 O 0.69442 0.23878 0.15556 0.0
C622 C 0.66956 0.35334 0.15167 0.0
H623 H 0.84092 0.27768 0.14261 0.0
H624 H 0.58777 0.321 0.2107 0.0
H625 H 0.74955 0.20445 0.21352 0.0
H626 H 0.75537 0.33115 0.22527 0.0
Co627 Co 0.9593 0.43462 0.41306 0.0
C628 C 0.92268 0.51125 0.40161 0.0
C629 C 0.96199 0.48805 0.38095 0.0
C630 C 0.94354 0.52221 0.3743 0.0
N631 N 0.9498 0.48188 0.39826 0.0
N632 N 0.91845 0.5364 0.38725 0.0
H633 H 0.90465 0.51296 0.41386 0.0
H634 H 0.9808 0.46764 0.3733 0.0
C635 C 0.04534 0.45611 0.3999 0.0
O636 O 0.03839 0.49502 0.39978 0.0
N637 N 0.96766 0.3878 0.42802 0.0
C638 C 0.94841 0.37905 0.44361 0.0
C639 C 0.96359 0.34387 0.45037 0.0
C640 C 0.99411 0.35769 0.42545 0.0
N641 N 0.9939 0.33088 0.43947 0.0
C642 C 0.93574 0.47537 0.44601 0.0
C643 C 0.01241 0.48613 0.45964 0.0
C644 C 0.97981 0.48943 0.47153 0.0
C645 C 0.94093 0.48583 0.46441 0.0
C646 C 0.00588 0.47568 0.44141 0.0
N647 N 0.96812 0.46777 0.43497 0.0
H648 H 0.90559 0.46987 0.4412 0.0
H649 H 0.03171 0.4722 0.43304 0.0
H650 H 0.92378 0.39604 0.44934 0.0
H651 H 0.01131 0.35496 0.41304 0.0
O652 O 0.90113 0.42623 0.41464 0.0
O653 O 0.94056 0.40074 0.39335 0.0
O654 O 0.01868 0.43156 0.40585 0.0
C655 C 0.90474 0.40354 0.40026 0.0
H656 H 0.94616 0.53412 0.36059 0.0
H657 H 0.95105 0.32823 0.46197 0.0
H658 H 0.0429 0.48962 0.46461 0.0
H659 H 0.91492 0.4887 0.47322 0.0
Co660 Co 0.81017 0.29282 0.86011 0.0
C661 C 0.73251 0.32623 0.87165 0.0
C662 C 0.7568 0.2869 0.89208 0.0
C663 C 0.72211 0.30408 0.89882 0.0
N664 N 0.7626 0.29989 0.87486 0.0
N665 N 0.7073 0.32925 0.88602 0.0
H666 H 0.73035 0.34465 0.85951 0.0
H667 H 0.77775 0.26842 0.89962 0.0
C668 C 0.79172 0.2056 0.87266 0.0
O669 O 0.75264 0.21142 0.87321 0.0
N670 N 0.85753 0.28662 0.84527 0.0
C671 C 0.86629 0.30657 0.82987 0.0
C672 C 0.90197 0.29229 0.82322 0.0
C673 C 0.88813 0.26071 0.84784 0.0
N674 N 0.91522 0.2618 0.83397 0.0
C675 C 0.77003 0.31598 0.82701 0.0
C676 C 0.75863 0.2394 0.81348 0.0
C677 C 0.75589 0.27202 0.80154 0.0
C678 C 0.7598 0.31086 0.80862 0.0
C679 C 0.76907 0.24589 0.83172 0.0
N680 N 0.77747 0.2836 0.83809 0.0
H681 H 0.7754 0.34615 0.83181 0.0
H682 H 0.77181 0.22008 0.84018 0.0
H683 H 0.8489 0.33095 0.82414 0.0
H684 H 0.89088 0.24315 0.86015 0.0
O685 O 0.81594 0.35124 0.85881 0.0
O686 O 0.84313 0.31263 0.87999 0.0
O687 O 0.81527 0.23329 0.86683 0.0
C688 C 0.83859 0.34848 0.87322 0.0
H689 H 0.71025 0.30065 0.91249 0.0
H690 H 0.91764 0.30547 0.81177 0.0
H691 H 0.7547 0.20895 0.80854 0.0
H692 H 0.75714 0.33688 0.79979 0.0
Co693 Co 0.96313 0.55908 0.11028 0.0
C694 C 0.92891 0.48179 0.1212 0.0
C695 C 0.96908 0.50362 0.14181 0.0
C696 C 0.95058 0.46924 0.14822 0.0
N697 N 0.95634 0.51075 0.12465 0.0
N698 N 0.92485 0.45599 0.13532 0.0
H699 H 0.91032 0.4811 0.10908 0.0
H700 H 0.98852 0.52335 0.14952 0.0
C701 C 0.05123 0.5396 0.12133 0.0
O702 O 0.04464 0.50111 0.12407 0.0
N703 N 0.96803 0.607 0.09563 0.0
C704 C 0.94295 0.6186 0.08228 0.0
C705 C 0.95635 0.65413 0.07521 0.0
C706 C 0.99624 0.63594 0.09657 0.0
N707 N 0.99119 0.66461 0.08354 0.0
C708 C 0.9363 0.52514 0.07623 0.0
C709 C 0.01152 0.50309 0.06374 0.0
C710 C 0.97997 0.50599 0.05124 0.0
C711 C 0.94145 0.51519 0.05778 0.0
C712 C 0.00499 0.51324 0.08199 0.0
N713 N 0.96852 0.52726 0.0878 0.0
H714 H 0.90679 0.53411 0.08085 0.0
H715 H 0.03003 0.51103 0.09099 0.0
H716 H 0.91567 0.60338 0.07836 0.0
H717 H 0.01836 0.63681 0.10733 0.0
O718 O 0.90479 0.56742 0.11123 0.0
O719 O 0.94856 0.59153 0.13107 0.0
O720 O 0.02364 0.56234 0.11482 0.0
C721 C 0.91154 0.58938 0.12564 0.0
H722 H 0.95357 0.45657 0.16177 0.0
H723 H 0.9395 0.67172 0.06548 0.0
H724 H 0.04143 0.49463 0.05928 0.0
H725 H 0.91605 0.51659 0.04855 0.0
Co726 Co 0.69162 0.70291 0.361 0.0
C727 C 0.76439 0.65958 0.37419 0.0
C728 C 0.77634 0.72253 0.37167 0.0
C729 C 0.81175 0.70318 0.37607 0.0
N730 N 0.7464 0.69523 0.3703 0.0
N731 N 0.80407 0.66362 0.37763 0.0
H732 H 0.74968 0.63066 0.37358 0.0
H733 H 0.77375 0.75414 0.369 0.0
C734 C 0.70222 0.79493 0.36699 0.0
O735 O 0.72952 0.79995 0.35424 0.0
N736 N 0.63772 0.70898 0.35164 0.0
C737 C 0.62233 0.6873 0.33789 0.0
C738 C 0.58607 0.7034 0.33315 0.0
C739 C 0.61051 0.73804 0.35513 0.0
N740 N 0.57914 0.73669 0.34332 0.0
C741 C 0.73943 0.69669 0.32816 0.0
C742 C 0.70338 0.76045 0.31012 0.0
C743 C 0.73139 0.73701 0.30074 0.0
C744 C 0.74981 0.70484 0.30994 0.0
C745 C 0.69363 0.75102 0.32811 0.0
N746 N 0.71191 0.71991 0.33713 0.0
H747 H 0.75217 0.67074 0.33485 0.0
H748 H 0.67038 0.76836 0.33464 0.0
H749 H 0.63739 0.66277 0.33107 0.0
H750 H 0.61496 0.75984 0.36569 0.0
O751 O 0.68652 0.64526 0.35691 0.0
O752 O 0.6695 0.67671 0.38226 0.0
O753 O 0.68869 0.75995 0.37104 0.0
C754 C 0.66987 0.64336 0.37301 0.0
H755 H 0.84115 0.71686 0.37739 0.0
H756 H 0.56667 0.69176 0.32255 0.0
H757 H 0.68813 0.78515 0.30337 0.0
H758 H 0.77116 0.68564 0.30296 0.0
Co759 Co 0.55296 0.44481 0.60724 0.0
C760 C 0.59052 0.51989 0.62079 0.0
C761 C 0.52666 0.52688 0.61999 0.0
C762 C 0.54357 0.56319 0.62488 0.0
N763 N 0.55611 0.49946 0.61723 0.0
N764 N 0.58371 0.55854 0.62539 0.0
H765 H 0.62046 0.50777 0.61923 0.0
H766 H 0.49506 0.52212 0.61821 0.0
C767 C 0.46084 0.45057 0.61287 0.0
O768 O 0.45562 0.47815 0.60025 0.0
N769 N 0.55235 0.39148 0.59711 0.0
C770 C 0.57368 0.38121 0.58218 0.0
C771 C 0.56991 0.34081 0.57939 0.0
C772 C 0.53539 0.35721 0.60323 0.0
N773 N 0.54594 0.32589 0.59255 0.0
C774 C 0.55566 0.49517 0.57494 0.0
C775 C 0.49612 0.45414 0.55618 0.0
C776 C 0.5169 0.48487 0.54725 0.0
C777 C 0.5468 0.50587 0.55682 0.0
C778 C 0.50586 0.44447 0.57416 0.0
N779 N 0.53503 0.46504 0.58348 0.0
H780 H 0.58018 0.50985 0.58187 0.0
H781 H 0.49062 0.41936 0.58046 0.0
H782 H 0.59086 0.40192 0.57387 0.0
H783 H 0.516 0.35516 0.61506 0.0
O784 O 0.61123 0.44395 0.60372 0.0
O785 O 0.57949 0.42361 0.62857 0.0
O786 O 0.49591 0.43697 0.61672 0.0
C787 C 0.6132 0.42663 0.61971 0.0
H788 H 0.52776 0.59112 0.62737 0.0
H789 H 0.58296 0.32362 0.56833 0.0
H790 H 0.47327 0.43694 0.5491 0.0
H791 H 0.56394 0.52938 0.55016 0.0
Co792 Co 0.18883 0.29947 0.35818 0.0
C793 C 0.26745 0.33146 0.36927 0.0
C794 C 0.25681 0.276 0.38326 0.0
C795 C 0.29274 0.29183 0.38935 0.0
N796 N 0.24108 0.30054 0.37036 0.0
N797 N 0.29899 0.3268 0.38057 0.0
H798 H 0.26321 0.35795 0.36092 0.0
H799 H 0.24311 0.2493 0.38865 0.0
C800 C 0.19511 0.20916 0.36694 0.0
O801 O 0.23136 0.20623 0.35991 0.0
N802 N 0.1382 0.3012 0.3458 0.0
C803 C 0.13065 0.32467 0.33116 0.0
C804 C 0.0909 0.32098 0.32663 0.0
C805 C 0.10323 0.28324 0.35003 0.0
N806 N 0.07407 0.29493 0.33843 0.0
C807 C 0.24016 0.30482 0.3262 0.0
C808 C 0.20667 0.2392 0.3086 0.0
C809 C 0.23414 0.26318 0.29913 0.0
C810 C 0.25151 0.29602 0.30817 0.0
C811 C 0.19616 0.249 0.32651 0.0
N812 N 0.21279 0.28141 0.3352 0.0
H813 H 0.2517 0.33173 0.33247 0.0
H814 H 0.17247 0.23189 0.33293 0.0
H815 H 0.1526 0.3435 0.32439 0.0
H816 H 0.09899 0.26269 0.36133 0.0
O817 O 0.19042 0.35801 0.35551 0.0
O818 O 0.16472 0.32521 0.37891 0.0
O819 O 0.17632 0.24267 0.36669 0.0
C820 C 0.17092 0.35952 0.37096 0.0
H821 H 0.31187 0.27962 0.39995 0.0
H822 H 0.07545 0.33583 0.3155 0.0
H823 H 0.19212 0.21406 0.30193 0.0
H824 H 0.27239 0.3156 0.3011 0.0
Co825 Co 0.45342 0.43732 0.10937 0.0
C826 C 0.42867 0.51729 0.12197 0.0
C827 C 0.46158 0.48574 0.14266 0.0
C828 C 0.4446 0.51959 0.15037 0.0
N829 N 0.4518 0.48447 0.1248 0.0
N830 N 0.42385 0.53913 0.13731 0.0
H831 H 0.41203 0.52292 0.10957 0.0
H832 H 0.47638 0.46163 0.14997 0.0
C833 C 0.54093 0.44867 0.12106 0.0
O834 O 0.53743 0.48798 0.12011 0.0
N835 N 0.45312 0.39083 0.09392 0.0
C836 C 0.42953 0.38618 0.07909 0.0
C837 C 0.43115 0.34687 0.07365 0.0
C838 C 0.46925 0.35444 0.09723 0.0
N839 N 0.45611 0.32719 0.08501 0.0
C840 C 0.43446 0.48498 0.07749 0.0
C841 C 0.50969 0.47957 0.06166 0.0
C842 C 0.47737 0.4918 0.05087 0.0
C843 C 0.43957 0.496 0.0591 0.0
C844 C 0.50327 0.4687 0.07984 0.0
N845 N 0.46577 0.46973 0.08751 0.0
H846 H 0.4044 0.48514 0.08306 0.0
H847 H 0.5284 0.45686 0.08701 0.0
H848 H 0.41026 0.40902 0.07331 0.0
H849 H 0.48825 0.34751 0.10882 0.0
O850 O 0.39444 0.43704 0.10882 0.0
O851 O 0.43185 0.4051 0.12903 0.0
O852 O 0.51204 0.42601 0.11583 0.0
C853 C 0.39619 0.41263 0.12276 0.0
H854 H 0.44443 0.52729 0.16472 0.0
H855 H 0.4145 0.33333 0.06254 0.0
H856 H 0.53939 0.47611 0.05576 0.0
H857 H 0.41378 0.50534 0.05112 0.0
Co858 Co 0.31065 0.70426 0.85903 0.0
C859 C 0.23374 0.66806 0.87045 0.0
C860 C 0.23979 0.72594 0.88281 0.0
C861 C 0.20454 0.70867 0.88891 0.0
N862 N 0.25809 0.70071 0.87096 0.0
N863 N 0.20112 0.67219 0.88118 0.0
H864 H 0.23994 0.64105 0.86275 0.0
H865 H 0.25108 0.75438 0.88741 0.0
C866 C 0.30072 0.79476 0.86667 0.0
O867 O 0.26491 0.79657 0.85912 0.0
N868 N 0.36169 0.70516 0.84689 0.0
C869 C 0.36958 0.68423 0.83156 0.0
C870 C 0.40926 0.68902 0.82722 0.0
C871 C 0.39647 0.72294 0.85168 0.0
N872 N 0.42591 0.71326 0.83982 0.0
C873 C 0.26047 0.69575 0.82682 0.0
C874 C 0.29217 0.76199 0.80891 0.0
C875 C 0.26664 0.73625 0.79931 0.0
C876 C 0.25006 0.70311 0.80852 0.0
C877 C 0.30198 0.75347 0.82701 0.0
N878 N 0.28637 0.72068 0.83585 0.0
H879 H 0.24963 0.66874 0.83333 0.0
H880 H 0.32471 0.77175 0.83343 0.0
H881 H 0.3479 0.66625 0.82419 0.0
H882 H 0.40034 0.74186 0.86355 0.0
O883 O 0.31208 0.64558 0.85663 0.0
O884 O 0.33551 0.68028 0.88005 0.0
O885 O 0.32015 0.76166 0.86724 0.0
C886 C 0.33126 0.64567 0.8722 0.0
H887 H 0.18373 0.72125 0.89874 0.0
H888 H 0.42487 0.67599 0.81568 0.0
H889 H 0.30609 0.78744 0.80215 0.0
H890 H 0.2306 0.68225 0.8014 0.0
Co891 Co 0.04243 0.55446 0.60791 0.0
C892 C 0.08855 0.48496 0.62215 0.0
C893 C 0.02497 0.47494 0.62419 0.0
C894 C 0.04462 0.4403 0.62949 0.0
N895 N 0.05252 0.50304 0.61962 0.0
N896 N 0.08447 0.44682 0.62818 0.0
H897 H 0.11726 0.49847 0.61893 0.0
H898 H 0.99281 0.47836 0.62292 0.0
C899 C 0.95141 0.56466 0.60721 0.0
O900 O 0.95425 0.57704 0.59021 0.0
N901 N 0.03343 0.60563 0.59599 0.0
C902 C 0.05138 0.61946 0.5808 0.0
C903 C 0.03632 0.65664 0.57688 0.0
C904 C 0.00945 0.63583 0.6016 0.0
N905 N 0.00768 0.66624 0.58926 0.0
C906 C 0.06392 0.528 0.57176 0.0
C907 C 0.99006 0.4958 0.56264 0.0
C908 C 0.0178 0.50386 0.54873 0.0
C909 C 0.05593 0.51812 0.55355 0.0
C910 C 0.99939 0.50626 0.58067 0.0
N911 N 0.03432 0.52614 0.58467 0.0
H912 H 0.0932 0.53978 0.57519 0.0
H913 H 0.9776 0.49978 0.59113 0.0
H914 H 0.07535 0.605 0.57345 0.0
H915 H 0.99477 0.63519 0.6147 0.0
O916 O 0.1001 0.56595 0.60679 0.0
O917 O 0.05969 0.58282 0.62947 0.0
O918 O 0.98324 0.55204 0.61531 0.0
C919 C 0.09529 0.58456 0.6223 0.0
H920 H 0.03082 0.41209 0.6334 0.0
H921 H 0.04718 0.67569 0.56597 0.0
H922 H 0.96092 0.48301 0.55949 0.0
H923 H 0.07872 0.52312 0.54323 0.0
Co924 Co 0.19537 0.69902 0.1583 0.0
C925 C 0.27911 0.67266 0.15513 0.0
C926 C 0.25857 0.70129 0.13062 0.0
C927 C 0.29437 0.68222 0.12693 0.0
N928 N 0.2492 0.69592 0.14838 0.0
N929 N 0.30696 0.66394 0.14228 0.0
H930 H 0.2778 0.65817 0.16835 0.0
H931 H 0.23857 0.71422 0.12057 0.0
C932 C 0.21107 0.78581 0.1446 0.0
O933 O 0.2499 0.78036 0.14256 0.0
N934 N 0.14121 0.70039 0.16811 0.0
C935 C 0.11748 0.66851 0.17211 0.0
C936 C 0.0802 0.68209 0.17708 0.0
C937 C 0.11818 0.73304 0.17134 0.0
N938 N 0.08077 0.72247 0.17646 0.0
C939 C 0.2045 0.68658 0.19655 0.0
C940 C 0.24575 0.75647 0.20463 0.0
C941 C 0.23238 0.73202 0.21902 0.0
C942 C 0.2122 0.69632 0.21478 0.0
C943 C 0.23733 0.74559 0.1865 0.0
N944 N 0.21574 0.71167 0.18267 0.0
H945 H 0.18803 0.65937 0.1936 0.0
H946 H 0.24764 0.76491 0.17572 0.0
H947 H 0.12609 0.63728 0.17148 0.0
H948 H 0.12785 0.76385 0.16964 0.0
O949 O 0.19518 0.64065 0.15963 0.0
O950 O 0.17421 0.67588 0.13605 0.0
O951 O 0.18858 0.75814 0.15126 0.0
C952 C 0.17938 0.64054 0.14335 0.0
H953 H 0.30776 0.67827 0.11358 0.0
H954 H 0.05445 0.66386 0.18076 0.0
H955 H 0.2619 0.78408 0.2074 0.0
H956 H 0.2018 0.67647 0.22553 0.0
Co957 Co 0.03722 0.44522 0.91305 0.0
C958 C 0.08256 0.51764 0.90135 0.0
C959 C 0.01968 0.52526 0.89616 0.0
C960 C 0.03931 0.55993 0.89102 0.0
N961 N 0.04671 0.49851 0.90269 0.0
N962 N 0.07879 0.55493 0.89426 0.0
H963 H 0.11085 0.50533 0.90596 0.0
H964 H 0.98782 0.52081 0.89527 0.0
C965 C 0.94506 0.46053 0.90759 0.0
O966 O 0.94123 0.49105 0.91882 0.0
N967 N 0.02918 0.39291 0.92394 0.0
C968 C 0.05233 0.37743 0.93722 0.0
C969 C 0.03551 0.34222 0.94301 0.0
C970 C 0.99838 0.36696 0.92191 0.0
N971 N 1.00056 0.33596 0.93394 0.0
C972 C 0.05183 0.49186 0.9458 0.0
C973 C 0.98456 0.46412 0.96426 0.0
C974 C 0.01244 0.48753 0.97369 0.0
C975 C 0.04627 0.50203 0.96426 0.0
C976 C 0.99148 0.45434 0.94607 0.0
N977 N 0.02457 0.46818 0.93692 0.0
H978 H 0.07899 0.50127 0.93893 0.0
H979 H 0.97114 0.43351 0.9397 0.0
H980 H 0.07941 0.39108 0.94253 0.0
H981 H 0.97602 0.37089 0.91149 0.0
O982 O 0.09519 0.43517 0.91517 0.0
O983 O 0.05791 0.42055 0.89118 0.0
O984 O 0.97923 0.44434 0.90449 0.0
C985 C 0.09233 0.41745 0.89931 0.0
H986 H 0.02573 0.58683 0.88539 0.0
H987 H 0.04884 0.32232 0.95302 0.0
H988 H 0.95851 0.45181 0.97118 0.0
H989 H 0.06878 0.51976 0.97127 0.0
Co990 Co 0.317 0.30364 0.6652 0.0
C991 C 0.24176 0.33862 0.65178 0.0
C992 C 0.25306 0.28207 0.63862 0.0
C993 C 0.21754 0.29782 0.63189 0.0
N994 N 0.26804 0.30773 0.65113 0.0
N995 N 0.21085 0.3334 0.64016 0.0
H996 H 0.24512 0.36462 0.66052 0.0
H997 H 0.26695 0.25413 0.63448 0.0
C998 C 0.34519 0.21673 0.66377 0.0
O999 O 0.36204 0.21966 0.67992 0.0
N1000 N 0.36564 0.30217 0.67971 0.0
C1001 C 0.37044 0.32184 0.69569 0.0
C1002 C 0.41035 0.32306 0.70004 0.0
C1003 C 0.40329 0.29214 0.67443 0.0
N1004 N 0.43084 0.30402 0.68682 0.0
C1005 C 0.27362 0.32283 0.69812 0.0
C1006 C 0.26551 0.24463 0.71043 0.0
C1007 C 0.25983 0.2762 0.72273 0.0
C1008 C 0.26189 0.31576 0.71622 0.0
C1009 C 0.27741 0.25307 0.69252 0.0
N1010 N 0.28496 0.29172 0.68707 0.0
H1011 H 0.27742 0.35353 0.69361 0.0
H1012 H 0.28167 0.22808 0.68348 0.0
H1013 H 0.34737 0.33736 0.70316 0.0
H1014 H 0.41049 0.27753 0.66165 0.0
O1015 O 0.32086 0.36247 0.66621 0.0
O1016 O 0.34746 0.32379 0.64487 0.0
O1017 O 0.32243 0.24489 0.65777 0.0
C1018 C 0.34291 0.35953 0.65153 0.0
H1019 H 0.19845 0.28462 0.62154 0.0
H1020 H 0.42359 0.33726 0.71189 0.0
H1021 H 0.26258 0.21367 0.71485 0.0
H1022 H 0.25661 0.34091 0.72529 0.0
Co1023 Co 0.45822 0.55645 0.40959 0.0
C1024 C 0.41612 0.48254 0.39735 0.0
C1025 C 0.47986 0.47453 0.39564 0.0
C1026 C 0.46158 0.4389 0.39088 0.0
N1027 N 0.45145 0.50214 0.39982 0.0
N1028 N 0.42159 0.44415 0.39199 0.0
H1029 H 0.38678 0.49528 0.39998 0.0
H1030 H 0.51175 0.47883 0.39624 0.0
C1031 C 0.55071 0.54372 0.40609 0.0
O1032 O 0.55305 0.51472 0.41824 0.0
N1033 N 0.46336 0.60974 0.41961 0.0
C1034 C 0.44035 0.62373 0.43324 0.0
C1035 C 0.45726 0.65812 0.43978 0.0
C1036 C 0.49392 0.63611 0.41791 0.0
N1037 N 0.49231 0.66513 0.43089 0.0
C1038 C 0.44537 0.50879 0.44224 0.0
C1039 C 0.50886 0.54119 0.46178 0.0
C1040 C 0.48312 0.51424 0.47052 0.0
C1041 C 0.45103 0.49772 0.4606 0.0
C1042 C 0.50194 0.55165 0.44363 0.0
N1043 N 0.47098 0.53515 0.43387 0.0
H1044 H 0.41953 0.49745 0.43497 0.0
H1045 H 0.52109 0.57412 0.43761 0.0
H1046 H 0.4145 0.60853 0.43891 0.0
H1047 H 0.51687 0.63281 0.40771 0.0
O1048 O 0.3999 0.56292 0.41156 0.0
O1049 O 0.43634 0.57929 0.38748 0.0
O1050 O 0.51681 0.55897 0.4015 0.0
C1051 C 0.40139 0.57938 0.39539 0.0
H1052 H 0.4764 0.41106 0.38721 0.0
H1053 H 0.44469 0.67612 0.45066 0.0
H1054 H 0.53353 0.55502 0.46912 0.0
H1055 H 0.43013 0.47722 0.46708 0.0
C1056 C 0.52748 0.25572 0.19987 0.0
C1057 C 0.54115 0.27949 0.18513 0.0
C1058 C 0.47129 0.29074 0.17568 0.0
C1059 C 0.45903 0.26204 0.18894 0.0
N1060 N 0.47216 0.2471 0.2205 0.0
N1061 N 0.52674 0.32286 0.15959 0.0
C1062 C 0.48603 0.25299 0.20321 0.0
C1063 C 0.51322 0.29803 0.17312 0.0
N1064 N 0.55409 0.23507 0.21052 0.0
N1065 N 0.44316 0.31517 0.16786 0.0
H1066 H 0.55694 0.33082 0.15826 0.0
H1067 H 0.50846 0.33402 0.14922 0.0
H1068 H 0.41366 0.31601 0.17273 0.0
H1069 H 0.4498 0.33828 0.15876 0.0
H1070 H 0.54475 0.21519 0.22071 0.0
H1071 H 0.58493 0.23458 0.20786 0.0
H1072 H 0.49127 0.24335 0.23167 0.0
H1073 H 0.442 0.25203 0.22382 0.0
C1074 C 0.04526 0.23571 0.42498 0.0
C1075 C 0.02859 0.20963 0.43835 0.0
C1076 C 0.00832 0.2676 0.45638 0.0
C1077 C 0.01546 0.29283 0.44118 0.0
N1078 N 0.06549 0.30402 0.41807 0.0
N1079 N 0.99215 0.20055 0.46647 0.0
C1080 C 0.04081 0.27803 0.42713 0.0
C1081 C 0.00968 0.22558 0.45402 0.0
N1082 N 0.06593 0.22013 0.41051 0.0
N1083 N 0.0053 0.28377 0.4734 0.0
H1084 H 0.99145 0.16939 0.46482 0.0
H1085 H 0.97509 0.21119 0.47739 0.0
H1086 H 0.01072 0.31429 0.47571 0.0
H1087 H 0.00328 0.26633 0.48521 0.0
H1088 H 0.07476 0.23719 0.39927 0.0
H1089 H 0.07271 0.18964 0.40936 0.0
H1090 H 0.08665 0.29526 0.40838 0.0
H1091 H 0.06914 0.33356 0.42252 0.0
C1092 C 0.01807 0.76535 0.70228 0.0
C1093 C 0.03354 0.78621 0.68698 0.0
C1094 C 0.96491 0.79778 0.67604 0.0
C1095 C 0.9508 0.77111 0.68975 0.0
N1096 N 0.96018 0.75792 0.7217 0.0
N1097 N 0.02212 0.82506 0.65963 0.0
C1098 C 0.9762 0.76326 0.70475 0.0
C1099 C 0.00709 0.80326 0.67388 0.0
N1100 N 0.04336 0.74611 0.71409 0.0
N1101 N 0.93837 0.82262 0.66742 0.0
H1102 H 0.05246 0.83242 0.65847 0.0
H1103 H 0.00478 0.83419 0.64854 0.0
H1104 H 0.90889 0.82546 0.67207 0.0
H1105 H 0.94662 0.84467 0.65804 0.0
H1106 H 0.03292 0.72789 0.72467 0.0
H1107 H 0.07442 0.7449 0.71209 0.0
H1108 H 0.97776 0.75522 0.73342 0.0
H1109 H 0.92943 0.76174 0.7241 0.0
C1110 C 0.4825 0.72349 0.94153 0.0
C1111 C 0.50725 0.71011 0.92718 0.0
C1112 C 0.52051 0.78005 0.9185 0.0
C1113 C 0.49258 0.79286 0.93206 0.0
N1114 N 0.47664 0.77652 0.9633 0.0
N1115 N 0.54947 0.7245 0.90138 0.0
C1116 C 0.48118 0.7647 0.94561 0.0
C1117 C 0.52585 0.73809 0.9153 0.0
N1118 N 0.46156 0.6964 0.95179 0.0
N1119 N 0.54688 0.80713 0.91124 0.0
H1120 H 0.55571 0.69406 0.8995 0.0
H1121 H 0.56049 0.74296 0.89104 0.0
H1122 H 0.55039 0.83568 0.91685 0.0
H1123 H 0.56951 0.79978 0.90201 0.0
H1124 H 0.44112 0.70525 0.96182 0.0
H1125 H 0.4619 0.66563 0.94894 0.0
H1126 H 0.47118 0.75631 0.97391 0.0
H1127 H 0.48533 0.80514 0.96761 0.0
C1128 C 0.48479 0.79064 0.35597 0.0
C1129 C 0.46193 0.77997 0.34031 0.0
C1130 C 0.52341 0.76153 0.32441 0.0
C1131 C 0.54466 0.7632 0.34103 0.0
N1132 N 0.55136 0.8054 0.36745 0.0
N1133 N 0.45913 0.74975 0.31042 0.0
C1134 C 0.52724 0.78465 0.35576 0.0
C1135 C 0.48124 0.76436 0.32464 0.0
N1136 N 0.46623 0.8071 0.37079 0.0
N1137 N 0.54408 0.75894 0.30838 0.0
H1138 H 0.4278 0.74819 0.31073 0.0
H1139 H 0.47207 0.73502 0.29932 0.0
H1140 H 0.57549 0.75987 0.30808 0.0
H1141 H 0.53021 0.76072 0.29564 0.0
H1142 H 0.48039 0.81086 0.38335 0.0
H1143 H 0.43604 0.81544 0.3708 0.0
H1144 H 0.54067 0.82307 0.37812 0.0
H1145 H 0.5811 0.81176 0.36409 0.0
C1146 C 0.50948 0.27165 0.57789 0.0
C1147 C 0.53205 0.28518 0.59295 0.0
C1148 C 0.54603 0.21535 0.60152 0.0
C1149 C 0.519 0.20242 0.58773 0.0
N1150 N 0.50542 0.21807 0.55621 0.0
N1151 N 0.57181 0.27085 0.61958 0.0
C1152 C 0.5087 0.23033 0.57389 0.0
C1153 C 0.5502 0.25726 0.60501 0.0
N1154 N 0.48962 0.29858 0.5671 0.0
N1155 N 0.57279 0.18863 0.60871 0.0
H1156 H 0.5764 0.3014 0.62203 0.0
H1157 H 0.58247 0.25197 0.62986 0.0
H1158 H 0.57548 0.15944 0.60366 0.0
H1159 H 0.59659 0.19717 0.61707 0.0
H1160 H 0.47051 0.28962 0.55658 0.0
H1161 H 0.48937 0.32937 0.56991 0.0
H1162 H 0.50099 0.23801 0.5454 0.0
H1163 H 0.51377 0.18909 0.55224 0.0
C1164 C 0.02092 0.2463 0.81966 0.0
C1165 C 0.03658 0.2261 0.83509 0.0
C1166 C 0.96798 0.21437 0.84612 0.0
C1167 C 0.95345 0.24049 0.83226 0.0
N1168 N 0.96304 0.25219 0.80017 0.0
N1169 N 0.02541 0.18823 0.86275 0.0
C1170 C 0.97893 0.24825 0.81722 0.0
C1171 C 0.01023 0.20941 0.84833 0.0
N1172 N 0.0462 0.26455 0.80754 0.0
N1173 N 0.94181 0.18932 0.85485 0.0
H1174 H 0.05575 0.18084 0.86393 0.0
H1175 H 0.00813 0.17958 0.87394 0.0
H1176 H 0.91238 0.18592 0.85023 0.0
H1177 H 0.95039 0.16757 0.86432 0.0
H1178 H 0.03577 0.28244 0.79683 0.0
H1179 H 0.07734 0.26509 0.80932 0.0
H1180 H 0.9807 0.25471 0.78846 0.0
H1181 H 0.93257 0.24687 0.79767 0.0
C1182 C 0.05585 0.75269 0.09593 0.0
C1183 C 0.03353 0.78292 0.08683 0.0
C1184 C 0.99908 0.73191 0.06904 0.0
C1185 C 0.01326 0.70214 0.08124 0.0
N1186 N 0.07355 0.68199 0.09681 0.0
N1187 N 0.98346 0.80213 0.06479 0.0
C1188 C 0.04704 0.71163 0.09227 0.0
C1189 C 0.00485 0.77271 0.07344 0.0
N1190 N 0.08579 0.76355 0.10769 0.0
N1191 N 0.98595 0.72126 0.05211 0.0
H1192 H 0.98722 0.8326 0.06776 0.0
H1193 H 0.95983 0.79579 0.05589 0.0
H1194 H 0.98897 0.69181 0.04735 0.0
H1195 H 0.97818 0.74218 0.0421 0.0
H1196 H 0.10175 0.74324 0.11572 0.0
H1197 H 0.09318 0.79357 0.11015 0.0
H1198 H 0.09985 0.6866 0.1042 0.0
H1199 H 0.07166 0.65359 0.09084 0.0
C1200 C 0.52137 0.75081 0.8205 0.0
C1201 C 0.54904 0.74246 0.83467 0.0
C1202 C 0.49497 0.70944 0.85183 0.0
C1203 C 0.46683 0.72639 0.83951 0.0
N1204 N 0.45275 0.76703 0.81308 0.0
N1205 N 0.56452 0.69068 0.85654 0.0
C1206 C 0.47998 0.74854 0.82422 0.0
C1207 C 0.53677 0.71545 0.84866 0.0
N1208 N 0.53426 0.75387 0.8029 0.0
N1209 N 0.48173 0.68687 0.8662 0.0
H1210 H 0.59355 0.68825 0.8513 0.0
H1211 H 0.55763 0.66832 0.86599 0.0
H1212 H 0.45149 0.67988 0.86819 0.0
H1213 H 0.50042 0.67703 0.87667 0.0
H1214 H 0.51462 0.75701 0.79189 0.0
H1215 H 0.56368 0.74637 0.79922 0.0
H1216 H 0.46144 0.7859 0.8024 0.0
H1217 H 0.42188 0.76651 0.81571 0.0
C1218 C 0.98508 0.72907 0.57417 0.0
C1219 C 0.98398 0.70309 0.58945 0.0
C1220 C 0.95506 0.75742 0.60775 0.0
C1221 C 0.96425 0.78461 0.59346 0.0
N1222 N 0.99249 0.7974 0.56378 0.0
N1223 N 0.94133 0.68806 0.61507 0.0
C1224 C 0.9806 0.77068 0.57686 0.0
C1225 C 0.96196 0.71569 0.60503 0.0
N1226 N 0.98523 0.71352 0.55695 0.0
N1227 N 0.93887 0.77132 0.62365 0.0
H1228 H 0.9365 0.65914 0.61009 0.0
H1229 H 0.92301 0.6953 0.62612 0.0
H1230 H 0.93108 0.80139 0.6256 0.0
H1231 H 0.93575 0.75349 0.63527 0.0
H1232 H 0.98271 0.73127 0.54527 0.0
H1233 H 0.982 0.6827 0.55464 0.0
H1234 H 0.0076 0.78857 0.55197 0.0
H1235 H 0.9909 0.82847 0.56567 0.0
C1236 C 0.96453 0.28567 0.3494 0.0
C1237 C 0.95341 0.25602 0.33649 0.0
C1238 C 0.01997 0.25897 0.32286 0.0
C1239 C 0.03329 0.28171 0.33797 0.0
N1240 N 0.01876 0.31946 0.36523 0.0
N1241 N 0.96232 0.24061 0.30473 0.0
C1242 C 0.00571 0.29588 0.3512 0.0
C1243 C 0.97867 0.25027 0.32121 0.0
N1244 N 0.93566 0.30891 0.3573 0.0
N1245 N 0.047 0.24425 0.31053 0.0
H1246 H 0.93119 0.23948 0.30286 0.0
H1247 H 0.97903 0.23922 0.29271 0.0
H1248 H 0.07792 0.24893 0.31173 0.0
H1249 H 0.03895 0.22437 0.30017 0.0
H1250 H 0.94184 0.33274 0.36607 0.0
H1251 H 0.90635 0.30891 0.35226 0.0
H1252 H 1.00066 0.327 0.37634 0.0
H1253 H 0.04835 0.32962 0.36624 0.0
C1254 C 0.48727 0.22685 0.06723 0.0
C1255 C 0.48311 0.20305 0.08308 0.0
C1256 C 0.45024 0.25924 0.09849 0.0
C1257 C 0.4645 0.285 0.08443 0.0
N1258 N 0.49796 0.29366 0.05547 0.0
N1259 N 0.43465 0.19046 0.1067 0.0
C1260 C 0.48284 0.26884 0.06865 0.0
C1261 C 0.45737 0.21719 0.09707 0.0
N1262 N 0.49223 0.20882 0.05069 0.0
N1263 N 0.42938 0.27482 0.11289 0.0
H1264 H 0.43176 0.16076 0.10235 0.0
H1265 H 0.41362 0.19869 0.11654 0.0
H1266 H 0.4203 0.30481 0.11345 0.0
H1267 H 0.42244 0.25829 0.12456 0.0
H1268 H 0.49225 0.22468 0.0384 0.0
H1269 H 0.49115 0.17756 0.04933 0.0
H1270 H 0.51479 0.28308 0.04447 0.0
H1271 H 0.49703 0.32494 0.05649 0.0
C1272 C 0.53245 0.27679 0.70425 0.0
C1273 C 0.55658 0.28396 0.68878 0.0
C1274 C 0.49864 0.31431 0.67342 0.0
C1275 C 0.47341 0.29702 0.68699 0.0
N1276 N 0.46658 0.25783 0.7146 0.0
N1277 N 0.5668 0.33373 0.66548 0.0
C1278 C 0.49043 0.2776 0.70235 0.0
C1279 C 0.54114 0.30945 0.67493 0.0
N1280 N 0.55 0.27139 0.72088 0.0
N1281 N 0.48208 0.33583 0.65943 0.0
H1282 H 0.59624 0.33819 0.66997 0.0
H1283 H 0.55783 0.3542 0.65552 0.0
H1284 H 0.45155 0.34278 0.65883 0.0
H1285 H 0.49829 0.34552 0.6481 0.0
H1286 H 0.53353 0.26901 0.73295 0.0
H1287 H 0.58109 0.27418 0.72259 0.0
H1288 H 0.4783 0.24058 0.72524 0.0
H1289 H 0.43556 0.25497 0.71291 0.0
C1290 C 0.5142 0.71947 0.45128 0.0
C1291 C 0.51976 0.69797 0.43495 0.0
C1292 C 0.55454 0.75615 0.42199 0.0
C1293 C 0.53794 0.77999 0.43622 0.0
N1294 N 0.49783 0.78409 0.46373 0.0
N1295 N 0.56919 0.68849 0.41146 0.0
C1296 C 0.51727 0.76154 0.4509 0.0
C1297 C 0.54665 0.71399 0.42181 0.0
N1298 N 0.50727 0.69929 0.46718 0.0
N1299 N 0.57829 0.77365 0.40903 0.0
H1300 H 0.57203 0.65829 0.41505 0.0
H1301 H 0.59008 0.69767 0.40174 0.0
H1302 H 0.58765 0.80349 0.40983 0.0
H1303 H 0.58796 0.75898 0.39729 0.0
H1304 H 0.50579 0.71362 0.47981 0.0
H1305 H 0.5078 0.66787 0.46768 0.0
H1306 H 0.47981 0.77131 0.47384 0.0
H1307 H 0.49574 0.81533 0.46299 0.0
C1308 C 0.02777 0.74447 0.19723 0.0
C1309 C 0.04708 0.74805 0.18016 0.0
C1310 C 0.99407 0.79333 0.16973 0.0
C1311 C 0.97126 0.78309 0.18534 0.0
N1312 N 0.96389 0.74344 0.2128 0.0
N1313 N 0.04645 0.77214 0.14905 0.0
C1314 C 0.98756 0.75761 0.19898 0.0
C1315 C 0.03004 0.77199 0.16612 0.0
N1316 N 0.04799 0.7281 0.21165 0.0
N1317 N 0.98128 0.82347 0.15847 0.0
H1318 H 0.07191 0.75554 0.14568 0.0
H1319 H 0.0327 0.78588 0.13789 0.0
H1320 H 0.95531 0.84008 0.16114 0.0
H1321 H 0.99844 0.83455 0.14767 0.0
H1322 H 0.03648 0.72761 0.22488 0.0
H1323 H 0.07797 0.71896 0.21063 0.0
H1324 H 0.97359 0.72174 0.22209 0.0
H1325 H 0.93335 0.75003 0.21389 0.0
C1326 C 0.98057 0.27557 0.95134 0.0
C1327 C 0.97537 0.30043 0.93589 0.0
C1328 C 0.94544 0.24409 0.91938 0.0
C1329 C 0.95922 0.21794 0.93334 0.0
N1330 N 0.9921 0.20814 0.96232 0.0
N1331 N 0.92731 0.31259 0.91209 0.0
C1332 C 0.97691 0.23356 0.94939 0.0
C1333 C 0.95085 0.28622 0.92148 0.0
N1334 N 0.98634 0.29268 0.96804 0.0
N1335 N 0.92647 0.22879 0.90439 0.0
H1336 H 0.922 0.34135 0.91717 0.0
H1337 H 0.90742 0.30419 0.90183 0.0
H1338 H 0.91906 0.19845 0.90314 0.0
H1339 H 0.91997 0.2459 0.89285 0.0
H1340 H 0.9871 0.27622 0.98015 0.0
H1341 H 0.9854 0.32386 0.96977 0.0
H1342 H 0.00858 0.21813 0.97352 0.0
H1343 H 0.99166 0.17693 0.96086 0.0
C1344 C 0.41726 0.06487 0.14152 0.0
C1345 C 0.41735 0.06477 0.12217 0.0
C1346 C 0.35739 0.10806 0.12235 0.0
C1347 C 0.36234 0.11453 0.14136 0.0
N1348 N 0.39762 0.09864 0.16932 0.0
N1349 N 0.38779 0.08733 0.09383 0.0
C1350 C 0.39191 0.09221 0.15111 0.0
C1351 C 0.38699 0.08599 0.11247 0.0
N1352 N 0.44112 0.03825 0.15075 0.0
N1353 N 0.32394 0.12279 0.11381 0.0
H1354 H 0.40824 0.07112 0.08599 0.0
H1355 H 0.36984 0.10663 0.08614 0.0
H1356 H 0.30152 0.13837 0.12083 0.0
H1357 H 0.31638 0.11604 0.10037 0.0
H1358 H 0.43962 0.03379 0.1648 0.0
H1359 H 0.4596 0.01759 0.14411 0.0
H1360 H 0.42255 0.08813 0.17649 0.0
H1361 H 0.37843 0.116 0.17723 0.0
C1362 C 0.16631 0.17468 0.39489 0.0
C1363 C 0.17571 0.17363 0.37592 0.0
C1364 C 0.1417 0.10795 0.37366 0.0
C1365 C 0.13384 0.10868 0.39271 0.0
N1366 N 0.15112 0.13624 0.42208 0.0
N1367 N 0.17778 0.13599 0.34776 0.0
C1368 C 0.15038 0.13982 0.40352 0.0
C1369 C 0.16554 0.13896 0.36551 0.0
N1370 N 0.17098 0.20929 0.4047 0.0
N1371 N 0.12522 0.07815 0.36324 0.0
H1372 H 0.19275 0.15899 0.34089 0.0
H1373 H 0.17527 0.10976 0.3401 0.0
H1374 H 0.11004 0.05374 0.36894 0.0
H1375 H 0.12509 0.07837 0.34904 0.0
H1376 H 0.15984 0.21283 0.41789 0.0
H1377 H 0.18219 0.23588 0.39926 0.0
H1378 H 0.16577 0.15664 0.43056 0.0
H1379 H 0.14186 0.11034 0.42883 0.0
C1380 C 0.13648 0.90082 0.62573 0.0
C1381 C 0.13572 0.89166 0.64468 0.0
C1382 C 0.06894 0.92255 0.64713 0.0
C1383 C 0.07002 0.93323 0.6283 0.0
N1384 N 0.1081 0.93839 0.60033 0.0
N1385 N 0.10714 0.90611 0.67422 0.0
C1386 C 0.10508 0.92465 0.61786 0.0
C1387 C 0.10403 0.90678 0.65564 0.0
N1388 N 0.16665 0.88556 0.61512 0.0
N1389 N 0.03402 0.92572 0.65686 0.0
H1390 H 0.13292 0.89659 0.68099 0.0
H1391 H 0.0863 0.91979 0.68283 0.0
H1392 H 0.00723 0.93634 0.65138 0.0
H1393 H 0.0305 0.91382 0.66993 0.0
H1394 H 0.16654 0.88649 0.60092 0.0
H1395 H 0.1912 0.87015 0.6206 0.0
H1396 H 0.13449 0.93694 0.59271 0.0
H1397 H 0.08498 0.9537 0.59369 0.0
C1398 C 0.33034 0.86468 0.86414 0.0
C1399 C 0.31927 0.83116 0.87514 0.0
C1400 C 0.3452 0.86643 0.90218 0.0
C1401 C 0.36313 0.89596 0.89079 0.0
N1402 N 0.37215 0.92422 0.8608 0.0
N1403 N 0.32189 0.79799 0.9046 0.0
C1404 C 0.35508 0.89558 0.87173 0.0
C1405 C 0.32817 0.83149 0.89415 0.0
N1406 N 0.31808 0.86665 0.84636 0.0
N1407 N 0.34392 0.87151 0.92066 0.0
H1408 H 0.30916 0.77163 0.89969 0.0
H1409 H 0.33282 0.79504 0.91786 0.0
H1410 H 0.35375 0.89739 0.9272 0.0
H1411 H 0.32805 0.85241 0.92935 0.0
H1412 H 0.32133 0.89216 0.83824 0.0
H1413 H 0.30219 0.8437 0.83993 0.0
H1414 H 0.3722 0.92292 0.84661 0.0
H1415 H 0.3879 0.94877 0.86602 0.0
C1416 C 0.42393 0.90238 0.38111 0.0
C1417 C 0.42131 0.90642 0.40046 0.0
C1418 C 0.35101 0.88393 0.3993 0.0
C1419 C 0.354 0.87901 0.38012 0.0
N1420 N 0.38762 0.89916 0.35245 0.0
N1421 N 0.37782 0.91579 0.42643 0.0
C1422 C 0.38839 0.89398 0.37092 0.0
C1423 C 0.38324 0.90212 0.40904 0.0
N1424 N 0.46039 0.90289 0.37248 0.0
N1425 N 0.31805 0.86964 0.40834 0.0
H1426 H 0.40041 0.93078 0.43359 0.0
H1427 H 0.34988 0.91635 0.43288 0.0
H1428 H 0.29334 0.85744 0.40156 0.0
H1429 H 0.31628 0.86792 0.42252 0.0
H1430 H 0.46392 0.89531 0.35878 0.0
H1431 H 0.48772 0.9067 0.37913 0.0
H1432 H 0.41098 0.91266 0.34521 0.0
H1433 H 0.36169 0.89476 0.34475 0.0
C1434 C 0.37718 0.15144 0.62312 0.0
C1435 C 0.38612 0.11492 0.63221 0.0
C1436 C 0.35469 0.14193 0.65998 0.0
C1437 C 0.35445 0.181 0.6521 0.0
N1438 N 0.37234 0.22343 0.62634 0.0
N1439 N 0.38418 0.07519 0.65971 0.0
C1440 C 0.36682 0.18592 0.63359 0.0
C1441 C 0.37473 0.10998 0.65075 0.0
N1442 N 0.37957 0.15363 0.60456 0.0
N1443 N 0.33518 0.13519 0.6761 0.0
H1444 H 0.39733 0.05066 0.65315 0.0
H1445 H 0.38101 0.0716 0.67376 0.0
H1446 H 0.31891 0.15758 0.68281 0.0
H1447 H 0.33148 0.10664 0.68173 0.0
H1448 H 0.3704 0.17879 0.59715 0.0
H1449 H 0.38587 0.12866 0.5965 0.0
H1450 H 0.38555 0.22827 0.61363 0.0
H1451 H 0.36819 0.24991 0.63363 0.0
C1452 C 0.11038 0.07811 0.90215 0.0
C1453 C 0.07459 0.07325 0.89177 0.0
C1454 C 0.10941 0.10122 0.86512 0.0
C1455 C 0.1417 0.11378 0.8763 0.0
N1456 N 0.17283 0.1152 0.90593 0.0
N1457 N 0.03806 0.08894 0.86407 0.0
C1458 C 0.14233 0.10214 0.89496 0.0
C1459 C 0.07353 0.08712 0.87342 0.0
N1460 N 0.11367 0.06049 0.91893 0.0
N1461 N 0.11272 0.10293 0.84659 0.0
H1462 H 0.0105 0.08227 0.87002 0.0
H1463 H 0.03545 0.10211 0.85121 0.0
H1464 H 0.13959 0.11027 0.84011 0.0
H1465 H 0.09077 0.09171 0.83781 0.0
H1466 H 0.14037 0.05985 0.92637 0.0
H1467 H 0.09054 0.0438 0.92484 0.0
H1468 H 0.17272 0.11198 0.92007 0.0
H1469 H 0.19745 0.13111 0.90086 0.0
C1470 C 0.19247 0.83438 0.11947 0.0
C1471 C 0.19252 0.82444 0.13837 0.0
C1472 C 0.15388 0.88607 0.14482 0.0
C1473 C 0.15062 0.89364 0.12579 0.0
N1474 N 0.18209 0.88544 0.09634 0.0
N1475 N 0.17491 0.8412 0.16933 0.0
C1476 C 0.17464 0.87109 0.11348 0.0
C1477 C 0.17403 0.85071 0.15117 0.0
N1478 N 0.20716 0.80752 0.10703 0.0
N1479 N 0.1391 0.91408 0.15671 0.0
H1480 H 0.19125 0.81695 0.17449 0.0
H1481 H 0.15854 0.85619 0.17931 0.0
H1482 H 0.12694 0.94131 0.1522 0.0
H1483 H 0.14198 0.91251 0.17082 0.0
H1484 H 0.20297 0.8105 0.093 0.0
H1485 H 0.22047 0.78032 0.11068 0.0
H1486 H 0.20186 0.87172 0.08725 0.0
H1487 H 0.17365 0.91409 0.09212 0.0
C1488 C 0.57297 0.90026 0.87912 0.0
C1489 C 0.57822 0.91438 0.89738 0.0
C1490 C 0.64794 0.88976 0.89668 0.0
C1491 C 0.64291 0.87743 0.8783 0.0
N1492 N 0.60541 0.88514 0.85038 0.0
N1493 N 0.62553 0.93469 0.92061 0.0
C1494 C 0.60722 0.88796 0.86893 0.0
C1495 C 0.61734 0.91309 0.90522 0.0
N1496 N 0.53551 0.89475 0.87185 0.0
N1497 N 0.68134 0.87826 0.90618 0.0
H1498 H 0.60451 0.95393 0.92658 0.0
H1499 H 0.65435 0.93716 0.92609 0.0
H1500 H 0.70474 0.86202 0.90022 0.0
H1501 H 0.68446 0.88266 0.92019 0.0
H1502 H 0.53085 0.88046 0.85938 0.0
H1503 H 0.50884 0.89961 0.87887 0.0
H1504 H 0.58083 0.89526 0.84283 0.0
H1505 H 0.63034 0.87772 0.84249 0.0
C1506 C 0.84825 0.8997 0.65026 0.0
C1507 C 0.84795 0.90894 0.63139 0.0
C1508 C 0.79838 0.8555 0.62616 0.0
C1509 C 0.80398 0.84167 0.64444 0.0
N1510 N 0.83147 0.85301 0.67452 0.0
N1511 N 0.80769 0.90945 0.60414 0.0
C1512 C 0.82763 0.8649 0.65676 0.0
C1513 C 0.81832 0.89116 0.62012 0.0
N1514 N 0.86733 0.92541 0.66194 0.0
N1515 N 0.77614 0.83331 0.61415 0.0
H1516 H 0.81828 0.93784 0.60052 0.0
H1517 H 0.78419 0.89968 0.59588 0.0
H1518 H 0.75973 0.80802 0.61792 0.0
H1519 H 0.77585 0.83855 0.60014 0.0
H1520 H 0.86678 0.92291 0.67608 0.0
H1521 H 0.88057 0.95205 0.65738 0.0
H1522 H 0.85147 0.8657 0.68377 0.0
H1523 H 0.81557 0.82907 0.68003 0.0
C1524 C 0.8597 0.10423 0.40042 0.0
C1525 C 0.85051 0.10314 0.3816 0.0
C1526 C 0.90509 0.05453 0.37676 0.0
C1527 C 0.91854 0.06074 0.39506 0.0
N1528 N 0.90842 0.0932 0.42432 0.0
N1529 N 0.85112 0.06194 0.35465 0.0
C1530 C 0.89549 0.08566 0.40697 0.0
C1531 C 0.86909 0.07359 0.37054 0.0
N1532 N 0.83273 0.1214 0.41214 0.0
N1533 N 0.92818 0.03295 0.36483 0.0
H1534 H 0.82246 0.07161 0.35096 0.0
H1535 H 0.86146 0.0383 0.34662 0.0
H1536 H 0.95473 0.01851 0.36851 0.0
H1537 H 0.92284 0.03203 0.35084 0.0
H1538 H 0.8353 0.12017 0.42629 0.0
H1539 H 0.80506 0.13252 0.40763 0.0
H1540 H 0.89599 0.11536 0.43263 0.0
H1541 H 0.93327 0.07938 0.43016 0.0
C1542 C 0.65604 0.1786 0.12984 0.0
C1543 C 0.66555 0.17379 0.14869 0.0
C1544 C 0.64562 0.10274 0.14678 0.0
C1545 C 0.63548 0.10816 0.12815 0.0
N1546 N 0.64885 0.14539 0.10064 0.0
N1547 N 0.68264 0.1277 0.17296 0.0
C1548 C 0.64708 0.14403 0.11921 0.0
C1549 C 0.6647 0.13458 0.15648 0.0
N1550 N 0.65189 0.21596 0.12226 0.0
N1551 N 0.63597 0.06748 0.15528 0.0
H1552 H 0.69842 0.15 0.17995 0.0
H1553 H 0.68564 0.09915 0.17867 0.0
H1554 H 0.62444 0.04289 0.14815 0.0
H1555 H 0.63798 0.0633 0.16934 0.0
H1556 H 0.64086 0.22044 0.1091 0.0
H1557 H 0.65494 0.24263 0.12951 0.0
H1558 H 0.65958 0.17029 0.09348 0.0
H1559 H 0.64506 0.11978 0.09266 0.0
C1560 C 0.60231 0.13739 0.64635 0.0
C1561 C 0.64456 0.13365 0.64372 0.0
C1562 C 0.63166 0.07487 0.62424 0.0
C1563 C 0.5897 0.07848 0.62762 0.0
N1564 N 0.54022 0.10113 0.64966 0.0
N1565 N 0.69911 0.08973 0.63521 0.0
C1566 C 0.57676 0.10533 0.6414 0.0
C1567 C 0.6593 0.09934 0.6343 0.0
N1568 N 0.58564 0.17242 0.65228 0.0
N1569 N 0.64503 0.04823 0.61147 0.0
H1570 H 0.71889 0.10519 0.6437 0.0
H1571 H 0.71112 0.06372 0.62946 0.0
H1572 H 0.62567 0.0282 0.60491 0.0
H1573 H 0.67478 0.04723 0.60702 0.0
H1574 H 0.55464 0.177 0.65307 0.0
H1575 H 0.6021 0.19864 0.65327 0.0
H1576 H 0.53107 0.11948 0.66043 0.0
H1577 H 0.52218 0.07593 0.64798 0.0
C1578 C 0.66364 0.86073 0.36638 0.0
C1579 C 0.6844 0.83049 0.37643 0.0
C1580 C 0.65821 0.8587 0.40508 0.0
C1581 C 0.63677 0.88833 0.39496 0.0
N1582 N 0.62956 0.92531 0.36696 0.0
N1583 N 0.71062 0.80774 0.40525 0.0
C1584 C 0.64304 0.89181 0.37591 0.0
C1585 C 0.68457 0.83179 0.39578 0.0
N1586 N 0.66122 0.85856 0.34779 0.0
N1587 N 0.65186 0.85455 0.42339 0.0
H1588 H 0.73071 0.78824 0.39881 0.0
H1589 H 0.71518 0.80994 0.41927 0.0
H1590 H 0.63522 0.87488 0.43104 0.0
H1591 H 0.66159 0.82976 0.4309 0.0
H1592 H 0.64197 0.87651 0.34006 0.0
H1593 H 0.67621 0.83709 0.34005 0.0
H1594 H 0.63644 0.93169 0.35339 0.0
H1595 H 0.61512 0.94889 0.37371 0.0
C1596 C 0.89862 0.91121 0.15296 0.0
C1597 C 0.86606 0.89267 0.14366 0.0
C1598 C 0.89503 0.91291 0.11418 0.0
C1599 C 0.9282 0.93063 0.12341 0.0
N1600 N 0.9564 0.95565 0.15151 0.0
N1601 N 0.82702 0.88648 0.11627 0.0
C1602 C 0.92836 0.93255 0.14279 0.0
C1603 C 0.86228 0.89723 0.12451 0.0
N1604 N 0.90241 0.90678 0.17141 0.0
N1605 N 0.89588 0.90861 0.09564 0.0
H1606 H 0.80251 0.8755 0.12367 0.0
H1607 H 0.8206 0.89228 0.10261 0.0
H1608 H 0.9194 0.91903 0.08751 0.0
H1609 H 0.87485 0.89181 0.08839 0.0
H1610 H 0.92858 0.91359 0.17857 0.0
H1611 H 0.87973 0.89498 0.17957 0.0
H1612 H 0.95562 0.96186 0.16542 0.0
H1613 H 0.97857 0.97169 0.14459 0.0
C1614 C 0.8534 0.10797 0.87245 0.0
C1615 C 0.85387 0.0989 0.89131 0.0
C1616 C 0.80469 0.15262 0.89691 0.0
C1617 C 0.8092 0.16599 0.8785 0.0
N1618 N 0.8367 0.15492 0.84835 0.0
N1619 N 0.81615 0.0999 0.91933 0.0
C1620 C 0.83272 0.14281 0.86607 0.0
C1621 C 0.82518 0.11723 0.90293 0.0
N1622 N 0.8721 0.08219 0.86065 0.0
N1623 N 0.78307 0.17516 0.90904 0.0
H1624 H 0.82738 0.07196 0.92323 0.0
H1625 H 0.79333 0.10999 0.92791 0.0
H1626 H 0.76644 0.20036 0.90531 0.0
H1627 H 0.78357 0.17047 0.92308 0.0
H1628 H 0.87057 0.08435 0.84651 0.0
H1629 H 0.88601 0.05581 0.86515 0.0
H1630 H 0.8567 0.14218 0.83909 0.0
H1631 H 0.82153 0.1794 0.84292 0.0
C1632 C 0.91486 0.57509 0.6374 0.0
C1633 C 0.9142 0.57518 0.61807 0.0
C1634 C 0.85526 0.61992 0.61872 0.0
C1635 C 0.86175 0.62683 0.63767 0.0
N1636 N 0.89824 0.61012 0.66524 0.0
N1637 N 0.87066 0.57928 0.59202 0.0
C1638 C 0.89108 0.60352 0.64715 0.0
C1639 C 0.8803 0.5921 0.60917 0.0
N1640 N 0.93583 0.54594 0.64645 0.0
N1641 N 0.82586 0.64075 0.60975 0.0
H1642 H 0.8861 0.55571 0.58574 0.0
H1643 H 0.8448 0.58796 0.58505 0.0
H1644 H 0.80502 0.65881 0.61649 0.0
H1645 H 0.82293 0.64136 0.59561 0.0
H1646 H 0.93507 0.54228 0.66056 0.0
H1647 H 0.9488 0.52168 0.63965 0.0
H1648 H 0.92302 0.59836 0.67213 0.0
H1649 H 0.88097 0.62935 0.67316 0.0
C1650 C 0.64215 0.59755 0.87351 0.0
C1651 C 0.62875 0.60445 0.89161 0.0
C1652 C 0.65377 0.67361 0.8899 0.0
C1653 C 0.66847 0.66673 0.87183 0.0
N1654 N 0.68846 0.61721 0.84953 0.0
N1655 N 0.6372 0.64361 0.91902 0.0
C1656 C 0.66641 0.62705 0.86461 0.0
C1657 C 0.6401 0.64048 0.90051 0.0
N1658 N 0.63135 0.56305 0.86472 0.0
N1659 N 0.64918 0.71164 0.89663 0.0
H1660 H 0.62938 0.61943 0.9273 0.0
H1661 H 0.64789 0.66841 0.92623 0.0
H1662 H 0.65477 0.73763 0.88924 0.0
H1663 H 0.63488 0.7176 0.90899 0.0
H1664 H 0.63619 0.55846 0.85083 0.0
H1665 H 0.61576 0.53986 0.87121 0.0
H1666 H 0.69051 0.58799 0.8445 0.0
H1667 H 0.70842 0.63732 0.84339 0.0
C1668 C 0.63945 0.38905 0.12512 0.0
C1669 C 0.64424 0.38696 0.1443 0.0
C1670 C 0.58827 0.43514 0.14746 0.0
C1671 C 0.57843 0.43 0.12869 0.0
N1672 N 0.59308 0.39665 0.10008 0.0
N1673 N 0.62005 0.40678 0.1742 0.0
C1674 C 0.60364 0.40554 0.11761 0.0
C1675 C 0.61829 0.41019 0.15564 0.0
N1676 N 0.66952 0.37544 0.11401 0.0
N1677 N 0.56874 0.46342 0.15768 0.0
H1678 H 0.64232 0.39114 0.18113 0.0
H1679 H 0.59773 0.41786 0.18282 0.0
H1680 H 0.54577 0.48151 0.15262 0.0
H1681 H 0.57786 0.47146 0.17078 0.0
H1682 H 0.6693 0.37932 0.09989 0.0
H1683 H 0.69674 0.3646 0.11916 0.0
H1684 H 0.60832 0.37546 0.09221 0.0
H1685 H 0.56708 0.40734 0.09394 0.0
C1686 C 0.83902 0.35538 0.36393 0.0
C1687 C 0.8187 0.32538 0.37426 0.0
C1688 C 0.84928 0.35134 0.40243 0.0
C1689 C 0.87047 0.3807 0.39208 0.0
N1690 N 0.87713 0.41765 0.364 0.0
N1691 N 0.7952 0.30245 0.40354 0.0
C1692 C 0.86253 0.38492 0.37314 0.0
C1693 C 0.82091 0.3259 0.39359 0.0
N1694 N 0.83818 0.35424 0.34529 0.0
N1695 N 0.85778 0.34596 0.4205 0.0
H1696 H 0.77374 0.28395 0.39748 0.0
H1697 H 0.79224 0.30438 0.41766 0.0
H1698 H 0.87671 0.36482 0.42779 0.0
H1699 H 0.84785 0.32135 0.42806 0.0
H1700 H 0.8568 0.3717 0.33705 0.0
H1701 H 0.82089 0.33392 0.3379 0.0
H1702 H 0.86914 0.42496 0.35066 0.0
H1703 H 0.89423 0.43977 0.3704 0.0
C1704 C 0.85522 0.39114 0.90056 0.0
C1705 C 0.85924 0.38396 0.88153 0.0
C1706 C 0.90774 0.43965 0.87964 0.0
C1707 C 0.90936 0.44137 0.89891 0.0
N1708 N 0.88419 0.41924 0.9281 0.0
N1709 N 0.89137 0.40072 0.85287 0.0
C1710 C 0.88241 0.41781 0.90949 0.0
C1711 C 0.88548 0.40854 0.87096 0.0
N1712 N 0.82483 0.37297 0.91004 0.0
N1713 N 0.92732 0.46824 0.86961 0.0
H1714 H 0.87547 0.37899 0.84576 0.0
H1715 H 0.91413 0.41391 0.84515 0.0
H1716 H 0.94296 0.49182 0.8757 0.0
H1717 H 0.92435 0.47123 0.85553 0.0
H1718 H 0.81764 0.37984 0.9235 0.0
H1719 H 0.80419 0.35376 0.90386 0.0
H1720 H 0.86982 0.3986 0.93658 0.0
H1721 H 0.9015 0.44017 0.93514 0.0
C1722 C 0.87314 0.611 0.15359 0.0
C1723 C 0.88049 0.61499 0.13462 0.0
C1724 C 0.85811 0.68489 0.13578 0.0
C1725 C 0.84924 0.68097 0.15477 0.0
N1726 N 0.83568 0.63537 0.17973 0.0
N1727 N 0.86349 0.6501 0.10694 0.0
C1728 C 0.85271 0.64238 0.16307 0.0
C1729 C 0.86703 0.64991 0.12547 0.0
N1730 N 0.88633 0.57758 0.16262 0.0
N1731 N 0.86188 0.7218 0.12773 0.0
H1732 H 0.8671 0.62407 0.09925 0.0
H1733 H 0.85144 0.67431 0.09971 0.0
H1734 H 0.86034 0.74883 0.13478 0.0
H1735 H 0.87194 0.72545 0.11435 0.0
H1736 H 0.8859 0.57493 0.17679 0.0
H1737 H 0.89956 0.5534 0.15584 0.0
H1738 H 0.83477 0.60697 0.18575 0.0
H1739 H 0.81834 0.65687 0.18648 0.0
C1740 C 0.61741 0.58013 0.40827 0.0
C1741 C 0.58791 0.56031 0.39751 0.0
C1742 C 0.62118 0.58439 0.36953 0.0
C1743 C 0.64877 0.60685 0.38037 0.0
N1744 N 0.68252 0.61309 0.40921 0.0
N1745 N 0.56851 0.53382 0.36828 0.0
C1746 C 0.64984 0.60037 0.3995 0.0
C1747 C 0.59194 0.55949 0.37824 0.0
N1748 N 0.6133 0.58193 0.4268 0.0
N1749 N 0.62169 0.58764 0.35096 0.0
H1750 H 0.54724 0.51494 0.37425 0.0
H1751 H 0.57253 0.52836 0.35442 0.0
H1752 H 0.64621 0.59842 0.34369 0.0
H1753 H 0.59781 0.57897 0.34266 0.0
H1754 H 0.63065 0.6006 0.43505 0.0
H1755 H 0.59089 0.56679 0.43394 0.0
H1756 H 0.68712 0.60621 0.42292 0.0
H1757 H 0.70724 0.62667 0.40295 0.0
C1758 C 0.69869 0.35133 0.62666 0.0
C1759 C 0.699 0.35065 0.64599 0.0
C1760 C 0.65747 0.41173 0.64642 0.0
C1761 C 0.65039 0.40756 0.62742 0.0
N1762 N 0.66776 0.37548 0.59884 0.0
N1763 N 0.67986 0.38075 0.67461 0.0
C1764 C 0.67269 0.37854 0.61728 0.0
C1765 C 0.67939 0.3815 0.65597 0.0
N1766 N 0.72399 0.32628 0.61731 0.0
N1767 N 0.64351 0.44513 0.65523 0.0
H1768 H 0.69724 0.36056 0.6821 0.0
H1769 H 0.66157 0.39887 0.6827 0.0
H1770 H 0.62829 0.4681 0.6484 0.0
H1771 H 0.65047 0.4521 0.66871 0.0
H1772 H 0.72847 0.32768 0.60327 0.0
H1773 H 0.74347 0.30631 0.62387 0.0
H1774 H 0.67709 0.35072 0.59125 0.0
H1775 H 0.65419 0.39763 0.59098 0.0
C1776 C 0.09554 0.44443 0.37431 0.0
C1777 C 0.08475 0.43984 0.39307 0.0
C1778 C 0.14471 0.39745 0.39766 0.0
C1779 C 0.15095 0.39629 0.3786 0.0
N1780 N 0.14416 0.43188 0.35014 0.0
N1781 N 0.10001 0.41191 0.4228 0.0
C1782 C 0.13006 0.4239 0.36727 0.0
C1783 C 0.11 0.41684 0.40486 0.0
N1784 N 0.07137 0.46628 0.36291 0.0
N1785 N 0.17307 0.3807 0.40885 0.0
H1786 H 0.07576 0.42623 0.42886 0.0
H1787 H 0.11427 0.39169 0.43152 0.0
H1788 H 0.19946 0.36797 0.40369 0.0
H1789 H 0.17289 0.38327 0.423 0.0
H1790 H 0.07372 0.46587 0.34876 0.0
H1791 H 0.04732 0.48357 0.36746 0.0
H1792 H 0.13221 0.45377 0.34156 0.0
H1793 H 0.17132 0.42056 0.34531 0.0
C1794 C 0.33354 0.36875 0.1201 0.0
C1795 C 0.36049 0.39191 0.13099 0.0
C1796 C 0.33298 0.36002 0.15869 0.0
C1797 C 0.30937 0.33439 0.14764 0.0
N1798 N 0.27446 0.32576 0.11933 0.0
N1799 N 0.37739 0.41791 0.16068 0.0
C1800 C 0.30561 0.34244 0.12879 0.0
C1801 C 0.35746 0.39012 0.15035 0.0
N1802 N 0.33599 0.36972 0.10151 0.0
N1803 N 0.33172 0.35545 0.17718 0.0
H1804 H 0.39431 0.44101 0.1549 0.0
H1805 H 0.37474 0.42039 0.17477 0.0
H1806 H 0.30934 0.33846 0.18349 0.0
H1807 H 0.35201 0.36859 0.18618 0.0
H1808 H 0.32155 0.34902 0.09311 0.0
H1809 H 0.35374 0.38998 0.09435 0.0
H1810 H 0.26779 0.33281 0.10581 0.0
H1811 H 0.25224 0.30883 0.12582 0.0
C1812 C 0.34526 0.60272 0.89943 0.0
C1813 C 0.35111 0.60978 0.8805 0.0
C1814 C 0.41162 0.56728 0.88139 0.0
C1815 C 0.41142 0.56998 0.90073 0.0
N1816 N 0.36888 0.56999 0.92719 0.0
N1817 N 0.38694 0.59397 0.85275 0.0
C1818 C 0.37515 0.58139 0.90951 0.0
C1819 C 0.38286 0.58979 0.87118 0.0
N1820 N 0.31181 0.61802 0.90776 0.0
N1821 N 0.43723 0.54126 0.87287 0.0
H1822 H 0.36442 0.60591 0.84453 0.0
H1823 H 0.41297 0.58617 0.84568 0.0
H1824 H 0.45418 0.52013 0.88001 0.0
H1825 H 0.43707 0.53612 0.85886 0.0
H1826 H 0.30737 0.61836 0.92181 0.0
H1827 H 0.28842 0.63117 0.90034 0.0
H1828 H 0.34243 0.57528 0.93438 0.0
H1829 H 0.38899 0.55117 0.93407 0.0
C1830 C 0.15651 0.63854 0.65852 0.0
C1831 C 0.15562 0.67795 0.65092 0.0
C1832 C 0.13454 0.64861 0.6217 0.0
C1833 C 0.12602 0.6117 0.63052 0.0
N1834 N 0.12976 0.57058 0.65748 0.0
N1835 N 0.13625 0.72053 0.6254 0.0
C1836 C 0.13757 0.60631 0.64898 0.0
C1837 C 0.14327 0.68307 0.63243 0.0
N1838 N 0.17622 0.63174 0.67458 0.0
N1839 N 0.13363 0.65112 0.60313 0.0
H1840 H 0.13867 0.74692 0.63291 0.0
H1841 H 0.12324 0.72511 0.61262 0.0
H1842 H 0.12958 0.62598 0.5949 0.0
H1843 H 0.14231 0.67685 0.596 0.0
H1844 H 0.1806 0.60313 0.68004 0.0
H1845 H 0.19199 0.65427 0.68142 0.0
H1846 H 0.13297 0.56628 0.67149 0.0
H1847 H 0.1184 0.54573 0.65049 0.0
C1848 C 0.14563 0.60485 0.117 0.0
C1849 C 0.15953 0.60397 0.13529 0.0
C1850 C 0.10897 0.55338 0.14306 0.0
C1851 C 0.09163 0.55743 0.12539 0.0
N1852 N 0.10099 0.57704 0.09396 0.0
N1853 N 0.16946 0.56039 0.16118 0.0
C1854 C 0.11239 0.58011 0.11181 0.0
C1855 C 0.14616 0.57266 0.14689 0.0
N1856 N 0.16474 0.62905 0.10468 0.0
N1857 N 0.08904 0.53344 0.15664 0.0
H1858 H 0.19881 0.57072 0.16295 0.0
H1859 H 0.16215 0.53583 0.16938 0.0
H1860 H 0.0613 0.51953 0.15482 0.0
H1861 H 0.09856 0.53383 0.17019 0.0
H1862 H 0.15396 0.63538 0.09166 0.0
H1863 H 0.19224 0.64272 0.10764 0.0
H1864 H 0.11627 0.59026 0.08312 0.0
H1865 H 0.07756 0.55859 0.08972 0.0
C1866 C 0.16123 0.39759 0.88686 0.0
C1867 C 0.12211 0.3867 0.893 0.0
C1868 C 0.14157 0.31586 0.89151 0.0
C1869 C 0.1775 0.32595 0.88225 0.0
N1870 N 0.21985 0.37751 0.8692 0.0
N1871 N 0.07236 0.33313 0.89533 0.0
C1872 C 0.18726 0.36721 0.87954 0.0
C1873 C 0.11142 0.34525 0.89364 0.0
N1874 N 0.17317 0.4368 0.88758 0.0
N1875 N 0.13618 0.27816 0.89855 0.0
H1876 H 0.0481 0.35261 0.89483 0.0
H1877 H 0.06368 0.30305 0.89446 0.0
H1878 H 0.15842 0.25611 0.8981 0.0
H1879 H 0.11171 0.27064 0.90679 0.0
H1880 H 0.2026 0.44597 0.88502 0.0
H1881 H 0.15414 0.45978 0.89192 0.0
H1882 H 0.22601 0.40695 0.86521 0.0
H1883 H 0.23898 0.35629 0.86336 0.0
C1884 C 0.42482 0.43681 0.64243 0.0
C1885 C 0.42547 0.4346 0.62307 0.0
C1886 C 0.36122 0.39822 0.62376 0.0
C1887 C 0.36483 0.39364 0.6429 0.0
N1888 N 0.39961 0.40948 0.67087 0.0
N1889 N 0.39511 0.41083 0.5951 0.0
C1890 C 0.39605 0.41386 0.65242 0.0
C1891 C 0.39348 0.41534 0.61363 0.0
N1892 N 0.45117 0.46163 0.65126 0.0
N1893 N 0.32667 0.38598 0.61533 0.0
H1894 H 0.41828 0.42227 0.58707 0.0
H1895 H 0.37512 0.39293 0.58779 0.0
H1896 H 0.30251 0.37386 0.6226 0.0
H1897 H 0.32033 0.39165 0.60165 0.0
H1898 H 0.44972 0.46772 0.66517 0.0
H1899 H 0.47226 0.47923 0.64438 0.0
H1900 H 0.42513 0.41784 0.67818 0.0
H1901 H 0.3775 0.39615 0.67888 0.0
C1902 C 0.34306 0.67254 0.38665 0.0
C1903 C 0.3346 0.6694 0.3676 0.0
C1904 C 0.3592 0.5995 0.3683 0.0
C1905 C 0.36776 0.60328 0.38717 0.0
N1906 N 0.349 0.63632 0.41516 0.0
N1907 N 0.32162 0.62486 0.3423 0.0
C1908 C 0.35309 0.63729 0.39665 0.0
C1909 C 0.33848 0.63116 0.35904 0.0
N1910 N 0.34525 0.70909 0.39508 0.0
N1911 N 0.37144 0.56587 0.35919 0.0
H1912 H 0.30443 0.64672 0.33567 0.0
H1913 H 0.32085 0.59682 0.33598 0.0
H1914 H 0.38386 0.54112 0.36594 0.0
H1915 H 0.37053 0.56324 0.34503 0.0
H1916 H 0.35531 0.71238 0.40848 0.0
H1917 H 0.34195 0.73643 0.38838 0.0
H1918 H 0.33613 0.65983 0.42253 0.0
H1919 H 0.35277 0.60998 0.42265 0.0
C1920 C 0.14354 0.09307 0.11561 0.0
C1921 C 0.11841 0.08106 0.13023 0.0
C1922 C 0.15069 0.13118 0.1499 0.0
C1923 C 0.17898 0.13955 0.13589 0.0
N1924 N 0.20756 0.12145 0.10679 0.0
N1925 N 0.10183 0.08405 0.16213 0.0
C1926 C 0.17688 0.11853 0.11909 0.0
C1927 C 0.12302 0.09888 0.14765 0.0
N1928 N 0.13445 0.08153 0.09824 0.0
N1929 N 0.14932 0.15508 0.16501 0.0
H1930 H 0.08185 0.06003 0.16087 0.0
H1931 H 0.10669 0.09316 0.17554 0.0
H1932 H 0.16827 0.17978 0.16674 0.0
H1933 H 0.12701 0.15279 0.17494 0.0
H1934 H 0.1497 0.09223 0.08679 0.0
H1935 H 0.10871 0.06502 0.09518 0.0
H1936 H 0.20929 0.10374 0.09509 0.0
H1937 H 0.23336 0.13837 0.10922 0.0
C1938 C 0.17854 0.90258 0.38365 0.0
C1939 C 0.16625 0.86248 0.38012 0.0
C1940 C 0.09545 0.88322 0.38231 0.0
C1941 C 0.10785 0.92366 0.38453 0.0
N1942 N 0.16048 0.97325 0.38435 0.0
N1943 N 0.11381 0.81491 0.37381 0.0
C1944 C 0.14926 0.93373 0.38438 0.0
C1945 C 0.12481 0.85286 0.37886 0.0
N1946 N 0.21815 0.91054 0.38697 0.0
N1947 N 0.05558 0.87401 0.38392 0.0
H1948 H 0.13486 0.79237 0.37116 0.0
H1949 H 0.08431 0.80651 0.37098 0.0
H1950 H 0.03371 0.89593 0.38628 0.0
H1951 H 0.04449 0.84474 0.38416 0.0
H1952 H 0.22867 0.93823 0.39155 0.0
H1953 H 0.24025 0.88837 0.38662 0.0
H1954 H 0.18993 0.98288 0.38229 0.0
H1955 H 0.13974 0.99673 0.38488 0.0
C1956 C 0.31518 0.90694 0.63588 0.0
C1957 C 0.32469 0.86555 0.63747 0.0
C1958 C 0.39652 0.88137 0.63479 0.0
C1959 C 0.38712 0.92294 0.63502 0.0
N1960 N 0.33827 0.97573 0.63877 0.0
N1961 N 0.37386 0.81309 0.64069 0.0
C1962 C 0.34659 0.93587 0.63634 0.0
C1963 C 0.3653 0.85264 0.63749 0.0
N1964 N 0.27612 0.9184 0.63336 0.0
N1965 N 0.43515 0.86955 0.63143 0.0
H1966 H 0.35145 0.7916 0.64274 0.0
H1967 H 0.40289 0.80217 0.64267 0.0
H1968 H 0.45837 0.89009 0.62923 0.0
H1969 H 0.44355 0.83973 0.62937 0.0
H1970 H 0.26749 0.94775 0.63029 0.0
H1971 H 0.25259 0.89776 0.63267 0.0
H1972 H 0.30965 0.98669 0.64172 0.0
H1973 H 0.36065 0.99757 0.63946 0.0
C1974 C 0.31597 0.101 0.88241 0.0
C1975 C 0.32617 0.14227 0.88387 0.0
C1976 C 0.39691 0.12426 0.88884 0.0
C1977 C 0.38702 0.08327 0.88618 0.0
N1978 N 0.33913 0.03273 0.87743 0.0
N1979 N 0.3759 0.19419 0.88638 0.0
C1980 C 0.34704 0.07168 0.88211 0.0
C1981 C 0.36663 0.15419 0.88651 0.0
N1982 N 0.27644 0.08984 0.88201 0.0
N1983 N 0.43504 0.13416 0.89409 0.0
H1984 H 0.354 0.21645 0.88482 0.0
H1985 H 0.40517 0.20526 0.88659 0.0
H1986 H 0.4576 0.11262 0.89575 0.0
H1987 H 0.44369 0.16301 0.89793 0.0
H1988 H 0.26679 0.06012 0.88292 0.0
H1989 H 0.25295 0.11056 0.8823 0.0
H1990 H 0.31146 0.02297 0.87249 0.0
H1991 H 0.36142 0.01071 0.87702 0.0
C1992 C 0.85173 0.93451 0.88422 0.0
C1993 C 0.8926 0.92318 0.88622 0.0
C1994 C 0.87397 0.85219 0.88277 0.0
C1995 C 0.83281 0.86334 0.88244 0.0
N1996 N 0.78185 0.91424 0.8858 0.0
N1997 N 0.94293 0.87193 0.88933 0.0
C1998 C 0.8215 0.90433 0.88393 0.0
C1999 C 0.90382 0.88211 0.886 0.0
N2000 N 0.84204 0.97414 0.88198 0.0
N2001 N 0.88434 0.81315 0.87942 0.0
H2002 H 0.9652 0.89348 0.89158 0.0
H2003 H 0.95277 0.84245 0.89112 0.0
H2004 H 0.86296 0.79091 0.87685 0.0
H2005 H 0.91389 0.80341 0.8778 0.0
H2006 H 0.81331 0.98415 0.87858 0.0
H2007 H 0.86356 0.9969 0.8819 0.0
H2008 H 0.77185 0.94311 0.88893 0.0
H2009 H 0.75902 0.89285 0.88579 0.0
C2010 C 0.88724 0.12191 0.61861 0.0
C2011 C 0.88639 0.0868 0.62954 0.0
C2012 C 0.83005 0.11395 0.6472 0.0
C2013 C 0.83001 0.14875 0.63595 0.0
N2014 N 0.85384 0.18404 0.60955 0.0
N2015 N 0.85202 0.04494 0.65124 0.0
C2016 C 0.85721 0.15204 0.62115 0.0
C2017 C 0.85611 0.08145 0.6429 0.0
N2018 N 0.91758 0.1267 0.60624 0.0
N2019 N 0.80699 0.11295 0.66262 0.0
H2020 H 0.87082 0.02069 0.64831 0.0
H2021 H 0.828 0.0376 0.65975 0.0
H2022 H 0.78807 0.13641 0.66646 0.0
H2023 H 0.80904 0.09035 0.67243 0.0
H2024 H 0.92247 0.15302 0.59887 0.0
H2025 H 0.93942 0.10465 0.60407 0.0
H2026 H 0.87049 0.18719 0.59761 0.0
H2027 H 0.83197 0.20625 0.6113 0.0
C2028 C 0.61991 0.09975 0.40209 0.0
C2029 C 0.60748 0.07399 0.38778 0.0
C2030 C 0.65049 0.11073 0.36635 0.0
C2031 C 0.66596 0.13372 0.38101 0.0
N2032 N 0.67093 0.14557 0.4133 0.0
N2033 N 0.61631 0.04968 0.35713 0.0
C2034 C 0.65213 0.12703 0.39904 0.0
C2035 C 0.62421 0.07805 0.37009 0.0
N2036 N 0.60003 0.09886 0.41839 0.0
N2037 N 0.65991 0.12107 0.34883 0.0
H2038 H 0.59811 0.02475 0.35966 0.0
H2039 H 0.63073 0.04883 0.34452 0.0
H2040 H 0.67817 0.14564 0.34569 0.0
H2041 H 0.64664 0.10779 0.33746 0.0
H2042 H 0.60517 0.11945 0.42882 0.0
H2043 H 0.57571 0.07975 0.42082 0.0
H2044 H 0.66481 0.13899 0.42692 0.0
H2045 H 0.69532 0.16489 0.41149 0.0
C2046 C 0.65093 0.87776 0.15231 0.0
C2047 C 0.67765 0.86556 0.1383 0.0
C2048 C 0.6404 0.90655 0.1162 0.0
C2049 C 0.61601 0.92153 0.1305 0.0
N2050 N 0.6021 0.92711 0.16257 0.0
N2051 N 0.70311 0.87424 0.10781 0.0
C2052 C 0.62241 0.9087 0.14871 0.0
C2053 C 0.67384 0.88159 0.12045 0.0
N2054 N 0.65197 0.85873 0.16882 0.0
N2055 N 0.63066 0.91507 0.09851 0.0
H2056 H 0.7286 0.8571 0.11072 0.0
H2057 H 0.70404 0.88821 0.09509 0.0
H2058 H 0.60568 0.93242 0.095 0.0
H2059 H 0.64498 0.90192 0.08737 0.0
H2060 H 0.63083 0.86361 0.17907 0.0
H2061 H 0.67197 0.83536 0.17167 0.0
H2062 H 0.60817 0.92191 0.17632 0.0
H2063 H 0.58154 0.9503 0.16029 0.0
C2064 C 0.61549 0.61108 0.64472 0.0
C2065 C 0.61376 0.58933 0.6281 0.0
C2066 C 0.67675 0.62062 0.61838 0.0
C2067 C 0.67582 0.64622 0.63382 0.0
N2068 N 0.64 0.67075 0.66012 0.0
N2069 N 0.63698 0.58201 0.59716 0.0
C2070 C 0.64392 0.64285 0.6466 0.0
C2071 C 0.64275 0.59663 0.61434 0.0
N2072 N 0.59111 0.60041 0.6589 0.0
N2073 N 0.71077 0.61768 0.60805 0.0
H2074 H 0.61078 0.56695 0.59345 0.0
H2075 H 0.65572 0.5892 0.58623 0.0
H2076 H 0.73733 0.63251 0.61141 0.0
H2077 H 0.71397 0.59684 0.59753 0.0
H2078 H 0.59369 0.61276 0.67191 0.0
H2079 H 0.57093 0.57648 0.65811 0.0
H2080 H 0.61527 0.67188 0.66884 0.0
H2081 H 0.65955 0.69508 0.66147 0.0
C2082 C 0.67525 0.38533 0.90294 0.0
C2083 C 0.67485 0.35777 0.88818 0.0
C2084 C 0.61307 0.38932 0.87674 0.0
C2085 C 0.61106 0.41328 0.8927 0.0
N2086 N 0.6349 0.42597 0.92321 0.0
N2087 N 0.63913 0.32845 0.8629 0.0
C2088 C 0.64062 0.40892 0.90648 0.0
C2089 C 0.6425 0.35832 0.87557 0.0
N2090 N 0.70934 0.39052 0.91302 0.0
N2091 N 0.5879 0.39716 0.86246 0.0
H2092 H 0.65938 0.30454 0.86216 0.0
H2093 H 0.6142 0.3253 0.85441 0.0
H2094 H 0.56693 0.4205 0.86272 0.0
H2095 H 0.5905 0.38312 0.84982 0.0
H2096 H 0.71217 0.41284 0.92292 0.0
H2097 H 0.73621 0.37586 0.91002 0.0
H2098 H 0.65408 0.42078 0.93422 0.0
H2099 H 0.60865 0.44135 0.92668 0.0
C2100 C 0.89297 0.39302 0.12419 0.0
C2101 C 0.89494 0.42461 0.13717 0.0
C2102 C 0.84212 0.39162 0.15507 0.0
C2103 C 0.83647 0.36307 0.14096 0.0
N2104 N 0.85205 0.34061 0.11058 0.0
N2105 N 0.86359 0.459 0.16243 0.0
C2106 C 0.86071 0.36487 0.12506 0.0
C2107 C 0.86731 0.42535 0.15193 0.0
N2108 N 0.92271 0.38906 0.11148 0.0
N2109 N 0.82485 0.38568 0.17176 0.0
H2110 H 0.8795 0.48531 0.15976 0.0
H2111 H 0.84134 0.46226 0.17234 0.0
H2112 H 0.80842 0.35992 0.17495 0.0
H2113 H 0.83086 0.40394 0.18298 0.0
H2114 H 0.92483 0.36454 0.1027 0.0
H2115 H 0.94746 0.40828 0.11094 0.0
H2116 H 0.86628 0.34318 0.09797 0.0
H2117 H 0.82801 0.32047 0.11069 0.0
C2118 C 0.85729 0.63039 0.39611 0.0
C2119 C 0.83311 0.63168 0.38018 0.0
C2120 C 0.8611 0.56698 0.37058 0.0
C2121 C 0.88905 0.5682 0.38519 0.0
N2122 N 0.91838 0.60505 0.41012 0.0
N2123 N 0.81995 0.60611 0.35003 0.0
C2124 C 0.88842 0.60105 0.39753 0.0
C2125 C 0.83724 0.60131 0.36677 0.0
N2126 N 0.84961 0.65626 0.41012 0.0
N2127 N 0.85602 0.53244 0.36082 0.0
H2128 H 0.80474 0.63227 0.34634 0.0
H2129 H 0.82491 0.58639 0.33921 0.0
H2130 H 0.87113 0.50591 0.364 0.0
H2131 H 0.83348 0.52894 0.35107 0.0
H2132 H 0.86381 0.65431 0.42277 0.0
H2133 H 0.82625 0.67719 0.40968 0.0
H2134 H 0.92153 0.63034 0.41838 0.0
H2135 H 0.94231 0.58486 0.41107 0.0
C2136 C 0.33397 0.37509 0.40076 0.0
C2137 C 0.33066 0.35559 0.38364 0.0
C2138 C 0.38512 0.39757 0.37157 0.0
C2139 C 0.39104 0.41404 0.38917 0.0
N2140 N 0.3769 0.41243 0.42136 0.0
N2141 N 0.35693 0.3432 0.35361 0.0
C2142 C 0.36707 0.40107 0.40404 0.0
C2143 C 0.3574 0.36542 0.36926 0.0
N2144 N 0.30452 0.3702 0.41356 0.0
N2145 N 0.40495 0.41374 0.35698 0.0
H2146 H 0.33742 0.31897 0.35174 0.0
H2147 H 0.37812 0.34641 0.34324 0.0
H2148 H 0.42474 0.43791 0.35827 0.0
H2149 H 0.39911 0.40566 0.34352 0.0
H2150 H 0.30335 0.38672 0.42561 0.0
H2151 H 0.27907 0.35257 0.4113 0.0
H2152 H 0.36272 0.401 0.43293 0.0
H2153 H 0.40201 0.4301 0.42421 0.0
C2154 C 0.40696 0.61082 0.14204 0.0
C2155 C 0.39438 0.57037 0.14009 0.0
C2156 C 0.32374 0.59164 0.14026 0.0
C2157 C 0.33624 0.63199 0.14286 0.0
N2158 N 0.38828 0.6802 0.14852 0.0
N2159 N 0.34165 0.52092 0.14084 0.0
C2160 C 0.37756 0.64158 0.1445 0.0
C2161 C 0.35293 0.5604 0.14027 0.0
N2162 N 0.44699 0.61966 0.14087 0.0
N2163 N 0.28411 0.5835 0.13697 0.0
H2164 H 0.36242 0.49745 0.14083 0.0
H2165 H 0.31215 0.51142 0.14286 0.0
H2166 H 0.26194 0.60566 0.13688 0.0
H2167 H 0.2735 0.55539 0.133 0.0
H2168 H 0.4584 0.64878 0.14051 0.0
H2169 H 0.46887 0.59745 0.13919 0.0
H2170 H 0.41758 0.68914 0.1514 0.0
H2171 H 0.367 0.70302 0.15016 0.0
C2172 C 0.14567 0.6292 0.86998 0.0
C2173 C 0.17041 0.6424 0.88452 0.0
C2174 C 0.13252 0.59984 0.90579 0.0
C2175 C 0.1103 0.5839 0.89097 0.0
N2176 N 0.10105 0.57733 0.85857 0.0
N2177 N 0.19329 0.63392 0.91545 0.0
C2178 C 0.1184 0.5969 0.87292 0.0
C2179 C 0.1655 0.62592 0.90224 0.0
N2180 N 0.14728 0.64856 0.85355 0.0
N2181 N 0.12106 0.59133 0.92326 0.0
H2182 H 0.2185 0.65182 0.91309 0.0
H2183 H 0.19345 0.61968 0.92813 0.0
H2184 H 0.0962 0.57341 0.92629 0.0
H2185 H 0.13374 0.6051 0.93465 0.0
H2186 H 0.12732 0.64284 0.84291 0.0
H2187 H 0.16621 0.67302 0.85116 0.0
H2188 H 0.10863 0.58288 0.84501 0.0
H2189 H 0.08192 0.55277 0.86033 0.0
C2190 C 0.1741 0.37996 0.61967 0.0
C2191 C 0.17825 0.36117 0.63694 0.0
C2192 C 0.12266 0.40195 0.64882 0.0
C2193 C 0.11606 0.41777 0.63112 0.0
N2194 N 0.13004 0.4158 0.59891 0.0
N2195 N 0.15234 0.34871 0.66706 0.0
C2196 C 0.14028 0.40506 0.61629 0.0
C2197 C 0.1513 0.37062 0.65129 0.0
N2198 N 0.20341 0.37521 0.6068 0.0
N2199 N 0.10257 0.41799 0.66334 0.0
H2200 H 0.17234 0.32489 0.66903 0.0
H2201 H 0.1311 0.35163 0.67742 0.0
H2202 H 0.08212 0.44161 0.66195 0.0
H2203 H 0.10883 0.41047 0.67685 0.0
H2204 H 0.20402 0.39133 0.5946 0.0
H2205 H 0.22918 0.35805 0.60908 0.0
H2206 H 0.14436 0.40436 0.58738 0.0
H2207 H 0.10465 0.43306 0.59595 0.0
C2208 C 0.2852 0.22768 0.25511 0.0
C2209 C 0.25567 0.23836 0.24192 0.0
C2210 C 0.21378 0.26814 0.26606 0.0
C2211 C 0.24218 0.25535 0.27937 0.0
N2212 N 0.30205 0.21829 0.28712 0.0
N2213 N 0.18969 0.26379 0.23479 0.0
C2214 C 0.27715 0.23385 0.27403 0.0
C2215 C 0.21927 0.2571 0.24741 0.0
N2216 N 0.32134 0.21238 0.24949 0.0
N2217 N 0.18222 0.292 0.2712 0.0
H2218 H 0.19312 0.25702 0.22098 0.0
H2219 H 0.16075 0.27322 0.23812 0.0
H2220 H 0.17704 0.30047 0.2847 0.0
H2221 H 0.16285 0.30602 0.26202 0.0
H2222 H 0.34599 0.20857 0.25807 0.0
H2223 H 0.32768 0.20564 0.23589 0.0
H2224 H 0.32553 0.19851 0.28434 0.0
H2225 H 0.29755 0.22292 0.30105 0.0
C2226 C 0.98771 0.95014 0.51677 0.0
C2227 C 0.99406 0.98222 0.52926 0.0
C2228 C 0.01806 0.02503 0.50409 0.0
C2229 C 0.01427 0.99209 0.49185 0.0
N2230 N 1.0014 0.92175 0.48685 0.0
N2231 N 0.02113 0.04796 0.53552 0.0
C2232 C 1.00083 0.95415 0.49831 0.0
C2233 C 0.01091 0.01906 0.52311 0.0
N2234 N 0.96785 0.91633 0.52242 0.0
N2235 N 0.02712 0.06241 0.49745 0.0
H2236 H 0.01584 0.04489 0.54949 0.0
H2237 H 0.03763 0.07356 0.53222 0.0
H2238 H 0.03337 0.06796 0.48373 0.0
H2239 H 0.02563 0.08851 0.50526 0.0
H2240 H 0.95836 0.8937 0.51362 0.0
H2241 H 0.95786 0.91223 0.53579 0.0
H2242 H 0.9961 0.89235 0.49112 0.0
H2243 H 0.01048 0.92379 0.47325 0.0
C2244 C 0.29223 0.73499 0.76694 0.0
C2245 C 0.26022 0.74279 0.77932 0.0
C2246 C 0.21784 0.76512 0.75375 0.0
C2247 C 0.25126 0.76154 0.74172 0.0
N2248 N 0.32172 0.74793 0.73718 0.0
N2249 N 0.19425 0.77009 0.78502 0.0
C2250 C 0.28886 0.74769 0.7484 0.0
C2251 C 0.22341 0.75907 0.77285 0.0
N2252 N 0.32545 0.71445 0.77281 0.0
N2253 N 0.18045 0.77308 0.74683 0.0
H2254 H 0.19699 0.76562 0.79906 0.0
H2255 H 0.16874 0.78642 0.78138 0.0
H2256 H 0.17505 0.77768 0.73296 0.0
H2257 H 0.15423 0.77172 0.75458 0.0
H2258 H 0.34796 0.70416 0.76411 0.0
H2259 H 0.32888 0.70445 0.78623 0.0
H2260 H 0.3509 0.74247 0.74171 0.0
H2261 H 0.32032 0.75686 0.72354 0.0
C2262 C 0.50928 0.04225 0.99532 0.0
C2263 C 0.4983 0.00413 0.98821 0.0
C2264 C 0.50278 0.97473 0.019 0.0
C2265 C 0.51589 0.01234 0.02593 0.0
N2266 N 0.54001 0.07954 0.02012 0.0
N2267 N 0.49323 0.93231 0.99244 0.0
C2268 C 0.52172 0.0454 0.01388 0.0
C2269 C 0.49767 0.96981 0.99982 0.0
N2270 N 0.5063 0.07574 0.98456 0.0
N2271 N 0.49355 0.94417 0.03077 0.0
H2272 H 0.48976 0.92739 0.97847 0.0
H2273 H 0.49671 0.90587 0.99992 0.0
H2274 H 0.49712 0.94647 0.04487 0.0
H2275 H 0.47939 0.91771 0.02673 0.0
H2276 H 0.50949 0.10491 0.98951 0.0
H2277 H 0.49735 0.07463 0.97093 0.0
H2278 H 0.54875 0.10314 0.01164 0.0
H2279 H 0.54994 0.08274 0.03354 0.0
C2280 C 0.28153 0.75476 0.26532 0.0
C2281 C 0.24699 0.7642 0.27597 0.0
C2282 C 0.20443 0.75654 0.24875 0.0
C2283 C 0.23827 0.744 0.23855 0.0
N2284 N 0.30831 0.72589 0.23736 0.0
N2285 N 0.17509 0.77079 0.27856 0.0
C2286 C 0.27675 0.74188 0.24686 0.0
C2287 C 0.20817 0.76434 0.26786 0.0
N2288 N 0.31902 0.75877 0.27279 0.0
N2289 N 0.16929 0.76165 0.23946 0.0
H2290 H 0.17711 0.77777 0.2924 0.0
H2291 H 0.14562 0.76679 0.27416 0.0
H2292 H 0.14285 0.77319 0.24503 0.0
H2293 H 0.14285 0.77319 0.24503 0.0
H2294 H 0.34553 0.7567 0.26529 0.0
H2295 H 0.32375 0.76723 0.28633 0.0
H2296 H 0.33611 0.71927 0.24317 0.0
H2297 H 0.3058 0.71624 0.22387 0.0
C2298 C 0.5041 0.95778 0.52443 0.0
C2299 C 0.50108 0.99583 0.53304 0.0
C2300 C 0.51177 0.02964 0.50352 0.0
C2301 C 0.51683 0.99161 0.49508 0.0
N2302 N 0.5244 0.91968 0.49773 0.0
N2303 N 0.50848 0.06796 0.53167 0.0
C2304 C 0.51495 0.95571 0.50563 0.0
C2305 C 0.50681 0.03179 0.52282 0.0
N2306 N 0.49532 0.9237 0.53411 0.0
N2307 N 0.51044 0.0636 0.49299 0.0
H2308 H 0.50454 0.07085 0.54573 0.0
H2309 H 0.51683 0.09477 0.52538 0.0
H2310 H 0.51494 0.0632 0.4789 0.0
H2311 H 0.50219 0.09175 0.49794 0.0
H2312 H 0.4924 0.89539 0.52821 0.0
H2313 H 0.48803 0.92408 0.54795 0.0
H2314 H 0.52788 0.89301 0.50502 0.0
H2315 H 0.53195 0.91686 0.48398 0.0
C2316 C 0.28962 0.26724 0.75405 0.0
C2317 C 0.25506 0.26764 0.74261 0.0
C2318 C 0.21292 0.24664 0.76847 0.0
C2319 C 0.24698 0.249 0.78017 0.0
N2320 N 0.31656 0.26612 0.78488 0.0
N2321 N 0.18329 0.26265 0.73901 0.0
C2322 C 0.28504 0.26056 0.77316 0.0
C2323 C 0.21653 0.25867 0.74985 0.0
N2324 N 0.32698 0.27218 0.74653 0.0
N2325 N 0.17733 0.23203 0.77511 0.0
H2326 H 0.18499 0.27069 0.72526 0.0
H2327 H 0.1539 0.2609 0.74383 0.0
H2328 H 0.17326 0.22374 0.78872 0.0
H2329 H 0.1526 0.22535 0.76696 0.0
H2330 H 0.35367 0.26764 0.75367 0.0
H2331 H 0.33158 0.27814 0.73271 0.0
H2332 H 0.34383 0.27898 0.78105 0.0
H2333 H 0.31457 0.26035 0.79885 0.0
C2334 C 0.99185 0.02908 0.02276 0.0
C2335 C 0.01615 0.99576 0.02782 0.0
C2336 C 0.01931 0.97411 0.99574 0.0
C2337 C 0.99695 0.00866 0.99056 0.0
N2338 N 0.96676 0.07223 0.99851 0.0
N2339 N 0.05826 0.93994 0.01915 0.0
C2340 C 0.98461 0.0371 1.00391 0.0
C2341 C 0.0314 0.96924 0.01428 0.0
N2342 N 0.9746 0.05228 0.03602 0.0
N2343 N 0.02811 0.94547 0.98297 0.0
H2344 H 0.06759 0.93535 0.03259 0.0
H2345 H 0.07381 0.92225 1.00981 0.0
H2346 H 0.02042 0.94844 0.96923 0.0
H2347 H 0.04035 0.91749 0.98613 0.0
H2348 H 0.95283 0.07406 0.03341 0.0
H2349 H 0.98007 0.04796 0.0499 0.0
H2350 H 0.96123 0.09623 1.00726 0.0
H2351 H 0.9599 0.07868 0.98492 0.0
C2352 C 0.72044 0.73468 0.75056 0.0
C2353 C 0.75813 0.73556 0.74147 0.0
C2354 C 0.79223 0.75001 0.77062 0.0
C2355 C 0.75425 0.75236 0.77941 0.0
N2356 N 0.68181 0.74982 0.77788 0.0
N2357 N 0.8298 0.7467 0.74218 0.0
C2358 C 0.71823 0.74536 0.7694 0.0
C2359 C 0.79404 0.74381 0.75135 0.0
N2360 N 0.68688 0.72291 0.74119 0.0
N2361 N 0.82656 0.75311 0.7808 0.0
H2362 H 0.83268 0.74071 0.72827 0.0
H2363 H 0.85632 0.75718 0.74801 0.0
H2364 H 0.82627 0.75894 0.79478 0.0
H2365 H 0.85526 0.74737 0.77576 0.0
H2366 H 0.65918 0.71732 0.74729 0.0
H2367 H 0.68732 0.71594 0.72732 0.0
H2368 H 0.65437 0.74995 0.77105 0.0
H2369 H 0.67887 0.75576 0.79179 0.0
C2370 C 0.72402 0.26181 0.25395 0.0
C2371 C 0.75705 0.25681 0.24183 0.0
C2372 C 0.79671 0.22687 0.26665 0.0
C2373 C 0.76527 0.23579 0.27916 0.0
N2374 N 0.70113 0.2668 0.28532 0.0
N2375 N 0.82663 0.23965 0.23698 0.0
C2376 C 0.72942 0.25457 0.27297 0.0
C2377 C 0.79392 0.24066 0.24828 0.0
N2378 N 0.68707 0.27223 0.24722 0.0
N2379 N 0.82881 0.20426 0.27226 0.0
H2380 H 0.82562 0.24946 0.22346 0.0
H2381 H 0.8555 0.23231 0.24138 0.0
H2382 H 0.83172 0.19338 0.28556 0.0
H2383 H 0.85069 0.19323 0.26342 0.0
H2384 H 0.6609 0.27195 0.25503 0.0
H2385 H 0.68181 0.27793 0.23342 0.0
H2386 H 0.67663 0.28483 0.28189 0.0
H2387 H 0.70372 0.26154 0.2993 0.0
C2388 C 0.71188 0.24509 0.75498 0.0
C2389 C 0.74579 0.25135 0.74349 0.0
C2390 C 0.78702 0.2675 0.7703 0.0
C2391 C 0.75218 0.26519 0.78151 0.0
N2392 N 0.68055 0.2566 0.78446 0.0
N2393 N 0.81435 0.27327 0.73968 0.0
C2394 C 0.71433 0.25523 0.77383 0.0
C2395 C 0.78309 0.26375 0.75101 0.0
N2396 N 0.67765 0.22843 0.74792 0.0
N2397 N 0.82407 0.27213 0.77814 0.0
H2398 H 0.8128 0.27021 0.72553 0.0
H2399 H 0.84075 0.28694 0.74413 0.0
H2400 H 0.82823 0.2754 0.79217 0.0
H2401 H 0.85098 0.26955 0.77097 0.0
H2402 H 0.65335 0.21924 0.75586 0.0
H2403 H 0.67476 0.2205 0.73421 0.0
H2404 H 0.65149 0.25406 0.7793 0.0
H2405 H 0.68134 0.26348 0.79834 0.0
C2406 C 0.7837 0.76988 0.25662 0.0
C2407 C 0.75129 0.76733 0.24401 0.0
C2408 C 0.70845 0.73855 0.268 0.0
C2409 C 0.73935 0.74539 0.28104 0.0
N2410 N 0.80432 0.77333 0.28832 0.0
N2411 N 0.68102 0.75497 0.23823 0.0
C2412 C 0.77648 0.76258 0.2755 0.0
C2413 C 0.71313 0.75319 0.24985 0.0
N2414 N 0.82173 0.77786 0.25049 0.0
N2415 N 0.6751 0.71698 0.27284 0.0
H2416 H 0.68327 0.76576 0.22489 0.0
H2417 H 0.65155 0.74917 0.24228 0.0
H2418 H 0.67088 0.70524 0.28592 0.0
H2419 H 0.65346 0.70747 0.26353 0.0
H2420 H 0.84719 0.77574 0.25872 0.0
H2421 H 0.82845 0.78311 0.23679 0.0
H2422 H 0.82991 0.79014 0.28531 0.0
H2423 H 0.80027 0.76836 0.30226 0.0
C2424 C 0.48421 0.4608 0.0197 0.0
C2425 C 0.48294 0.49598 0.03071 0.0
C2426 C 0.49617 0.53762 1.0036 0.0
C2427 C 0.50142 0.50219 0.99299 0.0
N2428 N 0.50486 0.42997 0.99115 0.0
N2429 N 0.49158 0.56753 0.03377 0.0
C2430 C 0.49649 0.46372 1.0011 0.0
C2431 C 0.48982 0.53435 0.02281 0.0
N2432 N 0.47286 0.42464 0.027 0.0
N2433 N 0.49624 0.57439 0.9952 0.0
H2434 H 0.48598 0.56638 0.04777 0.0
H2435 H 0.50114 0.59567 0.02929 0.0
H2436 H 0.50127 0.57806 0.98124 0.0
H2437 H 0.48828 0.60102 1.00172 0.0
H2438 H 0.46901 0.39861 0.01933 0.0
H2439 H 0.46398 0.42126 0.04057 0.0
H2440 H 0.50634 0.40121 0.99674 0.0
H2441 H 0.51336 0.43098 0.97745 0.0
C2442 C 0.00792 0.4616 0.52049 0.0
C2443 C 0.00628 0.49972 0.52913 0.0
C2444 C 0.9872 0.53145 0.5 0.0
C2445 C 0.98694 0.49306 0.49158 0.0
N2446 N 0.99072 0.42083 0.49414 0.0
N2447 N 0.98826 0.56998 0.52814 0.0
C2448 C 0.99541 0.45788 0.50196 0.0
C2449 C 0.99412 0.5344 0.51916 0.0
N2450 N 0.02268 0.4292 0.52987 0.0
N2451 N 0.982 0.56517 0.48956 0.0
H2452 H 0.99352 0.5735 0.54208 0.0
H2453 H 0.97528 0.59526 0.52215 0.0
H2454 H 0.97575 0.56403 0.47562 0.0
H2455 H 0.98648 0.59427 0.49437 0.0
H2456 H 0.02903 0.40158 0.52385 0.0
H2457 H 0.03137 0.43071 0.54353 0.0
H2458 H 0.99218 0.39392 0.50139 0.0
H2459 H 0.98224 0.41689 0.48056 0.0
C2460 C 0.01127 0.46003 1.00566 0.0
C2461 C 0.00704 0.49353 0.99374 0.0
C2462 C 0.98837 0.53601 0.01981 0.0
C2463 C 0.98815 0.50148 0.03131 0.0
N2464 N 0.99367 0.4296 0.03469 0.0
N2465 N 0.9863 0.56221 0.9889 0.0
C2466 C 0.99809 0.46318 0.02409 0.0
C2467 C 0.99424 0.53127 1.00067 0.0
N2468 N 0.0289 0.42548 0.99946 0.0
N2469 N 0.98436 0.57349 0.02726 0.0
H2470 H 0.99075 0.56007 0.97484 0.0
H2471 H 0.97245 0.5889 0.99288 0.0
H2472 H 0.9801 0.57834 0.04119 0.0
H2473 H 0.9887 0.59995 0.01989 0.0
H2474 H 0.03654 0.40146 1.00791 0.0
H2475 H 0.03942 0.42224 0.98613 0.0
H2476 H 0.99626 0.40043 0.02966 0.0
H2477 H 0.98386 0.43074 0.04821 0.0
C2478 C 0.51431 0.4724 0.49543 0.0
C2479 C 0.48944 0.50521 0.49027 0.0
C2480 C 0.4812 0.52392 0.52255 0.0
C2481 C 0.50852 0.49301 0.52758 0.0
N2482 N 0.55497 0.44069 0.51896 0.0
N2483 N 0.45231 0.56487 0.49839 0.0
C2484 C 0.52609 0.46796 0.51404 0.0
C2485 C 0.47369 0.5317 0.50371 0.0
N2486 N 0.52617 0.44517 0.48254 0.0
N2487 N 0.46158 0.54509 0.53584 0.0
H2488 H 0.44458 0.57056 0.48483 0.0
H2489 H 0.44419 0.58802 0.5072 0.0
H2490 H 0.46711 0.54093 0.54973 0.0
H2491 H 0.43793 0.56482 0.53325 0.0
H2492 H 0.54064 0.41822 0.48558 0.0
H2493 H 0.51886 0.44803 0.46875 0.0
H2494 H 0.57217 0.42448 0.50966 0.0
H2495 H 0.56406 0.43632 0.53245 0.0
loop_
_geom_bond_atom_site_label_1
_geom_bond_atom_site_label_2
_geom_bond_distance
_geom_bond_site_symmetry_2
_ccdc_geom_bond_type
Co0 N4 2.148 . S
Co0 N10 2.128 . S
Co0 N20 2.194 . S
Co0 O25 2.351 . S
Co0 O26 2.155 . S
Co0 O27 2.096 . S
C1 N4 1.301 . S
C1 N5 1.328 . S
C1 H6 0.930 . S
C2 C3 1.333 . S
C2 N4 1.317 . S
C2 H7 0.930 . S
C3 C2 1.333 . S
C3 N5 1.350 . S
C3 H29 0.931 . S
N4 Co0 2.148 . S
N4 C1 1.301 . S
N4 C2 1.317 . S
N5 C1 1.328 . S
N5 C3 1.350 . S
H6 C1 0.930 . S
H7 C2 0.930 . S
C8 O9 1.224 . S
C8 O27 1.247 . S
O9 C8 1.224 . S
N10 Co0 2.128 . S
N10 C11 1.355 . S
N10 C13 1.311 . S
C11 N10 1.355 . S
C11 C12 1.363 . S
C11 H23 0.929 . S
C12 C11 1.363 . S
C12 N14 1.375 . S
C12 H30 0.931 . S
C13 N10 1.311 . S
C13 N14 1.347 . S
C13 H24 0.929 . S
N14 C12 1.375 . S
N14 C13 1.347 . S
C15 C18 1.365 . S
C15 N20 1.328 . S
C15 H21 0.929 . S
C16 C17 1.362 . S
C16 C19 1.378 . S
C16 H31 0.929 . S
C17 C16 1.362 . S
C17 C18 1.366 . S
C18 C15 1.365 . S
C18 C17 1.366 . S
C18 H32 0.930 . S
C19 C16 1.378 . S
C19 N20 1.315 . S
C19 H22 0.930 . S
N20 Co0 2.194 . S
N20 C15 1.328 . S
N20 C19 1.315 . S
H21 C15 0.929 . S
H22 C19 0.930 . S
H23 C11 0.929 . S
H24 C13 0.929 . S
O25 Co0 2.351 . S
O25 C28 1.244 . S
O26 Co0 2.155 . S
O26 C28 1.240 . S
O27 Co0 2.096 . S
O27 C8 1.247 . S
C28 O25 1.244 . S
C28 O26 1.240 . S
H29 C3 0.931 . S
H30 C12 0.931 . S
H31 C16 0.929 . S
H32 C18 0.930 . S
Co33 N37 2.148 . S
Co33 N43 2.128 . S
Co33 N53 2.194 . S
Co33 O58 2.351 . S
Co33 O59 2.155 . S
Co33 O60 2.096 1_455 S
C34 N37 1.301 1_565 S
C34 N38 1.328 . S
C34 H39 0.930 . S
C35 C36 1.333 . S
C35 N37 1.317 1_565 S
C35 H40 0.929 1_465 S
C36 C35 1.333 . S
C36 N38 1.350 . S
C36 H62 0.931 . S
N37 Co33 2.148 . S
N37 C34 1.301 1_545 S
N37 C35 1.317 1_545 S
N38 C34 1.328 . S
N38 C36 1.350 . S
H39 C34 0.930 . S
H40 C35 0.929 1_645 S
C41 O42 1.224 . S
C41 O60 1.247 . S
O42 C41 1.224 . S
N43 Co33 2.128 . S
N43 C44 1.355 . S
N43 C46 1.311 1_455 S
C44 N43 1.355 . S
C44 C45 1.363 . S
C44 H56 0.929 . S
C45 C44 1.363 . S
C45 N47 1.375 1_455 S
C45 H63 0.931 . S
C46 N43 1.311 1_655 S
C46 N47 1.347 . S
C46 H57 0.929 . S
N47 C45 1.375 1_655 S
N47 C46 1.347 . S
C48 C51 1.365 . S
C48 N53 1.328 . S
C48 H54 0.929 . S
C49 C50 1.362 1_655 S
C49 C52 1.378 . S
C49 H64 0.929 . S
C50 C49 1.362 1_455 S
C50 C51 1.366 . S
C51 C48 1.365 . S
C51 C50 1.366 . S
C51 H65 0.930 . S
C52 C49 1.378 . S
C52 N53 1.315 1_655 S
C52 H55 0.930 . S
N53 Co33 2.194 . S
N53 C48 1.328 . S
N53 C52 1.315 1_455 S
H54 C48 0.929 . S
H55 C52 0.930 . S
H56 C44 0.929 . S
H57 C46 0.929 . S
O58 Co33 2.351 . S
O58 C61 1.244 . S
O59 Co33 2.155 . S
O59 C61 1.240 . S
O60 Co33 2.096 1_655 S
O60 C41 1.247 . S
C61 O58 1.244 . S
C61 O59 1.240 . S
H62 C36 0.931 . S
H63 C45 0.931 . S
H64 C49 0.929 . S
H65 C51 0.930 . S
Co66 N70 2.148 . S
Co66 N76 2.128 . S
Co66 N86 2.194 . S
Co66 O91 2.351 . S
Co66 O92 2.155 . S
Co66 O93 2.096 . S
C67 N70 1.301 . S
C67 N71 1.328 . S
C67 H72 0.930 . S
C68 C69 1.333 . S
C68 N70 1.317 . S
C68 H73 0.930 . S
C69 C68 1.333 . S
C69 N71 1.350 . S
C69 H95 0.931 . S
N70 Co66 2.148 . S
N70 C67 1.301 . S
N70 C68 1.317 . S
N71 C67 1.328 . S
N71 C69 1.350 . S
H72 C67 0.930 . S
H73 C68 0.930 . S
C74 O75 1.224 . S
C74 O93 1.247 . S
O75 C74 1.224 . S
N76 Co66 2.128 . S
N76 C77 1.355 . S
N76 C79 1.311 . S
C77 N76 1.355 . S
C77 C78 1.363 . S
C77 H89 0.929 . S
C78 C77 1.363 . S
C78 N80 1.375 . S
C78 H96 0.931 . S
C79 N76 1.311 . S
C79 N80 1.347 . S
C79 H90 0.929 . S
N80 C78 1.375 . S
N80 C79 1.347 . S
C81 C84 1.365 . S
C81 N86 1.328 . S
C81 H87 0.929 . S
C82 C83 1.362 . S
C82 C85 1.378 . S
C82 H97 0.929 . S
C83 C82 1.362 . S
C83 C84 1.366 . S
C84 C81 1.365 . S
C84 C83 1.366 . S
C84 H98 0.930 . S
C85 C82 1.378 . S
C85 N86 1.315 . S
C85 H88 0.930 . S
N86 Co66 2.194 . S
N86 C81 1.328 . S
N86 C85 1.315 . S
H87 C81 0.929 . S
H88 C85 0.930 . S
H89 C77 0.929 . S
H90 C79 0.929 . S
O91 Co66 2.351 . S
O91 C94 1.244 . S
O92 Co66 2.155 . S
O92 C94 1.240 . S
O93 Co66 2.096 . S
O93 C74 1.247 . S
C94 O91 1.244 . S
C94 O92 1.240 . S
H95 C69 0.931 . S
H96 C78 0.931 . S
H97 C82 0.929 . S
H98 C84 0.930 . S
Co99 N103 2.148 . S
Co99 N109 2.128 . S
Co99 N119 2.194 . S
Co99 O124 2.351 . S
Co99 O125 2.155 . S
Co99 O126 2.096 . S
C100 N103 1.301 1_545 S
C100 N104 1.328 . S
C100 H105 0.930 . S
C101 C102 1.333 . S
C101 N103 1.317 1_545 S
C101 H106 0.929 1_545 S
C102 C101 1.333 . S
C102 N104 1.350 . S
C102 H128 0.931 . S
N103 Co99 2.148 . S
N103 C100 1.301 1_565 S
N103 C101 1.317 1_565 S
N104 C100 1.328 . S
N104 C102 1.350 . S
H105 C100 0.930 . S
H106 C101 0.929 1_565 S
C107 O108 1.224 . S
C107 O126 1.247 . S
O108 C107 1.224 . S
N109 Co99 2.128 . S
N109 C110 1.355 . S
N109 C112 1.311 . S
C110 N109 1.355 . S
C110 C111 1.363 . S
C110 H122 0.929 . S
C111 C110 1.363 . S
C111 N113 1.375 . S
C111 H129 0.931 . S
C112 N109 1.311 . S
C112 N113 1.347 . S
C112 H123 0.929 . S
N113 C111 1.375 . S
N113 C112 1.347 . S
C114 C117 1.365 . S
C114 N119 1.328 . S
C114 H120 0.929 . S
C115 C116 1.362 . S
C115 C118 1.378 . S
C115 H130 0.929 . S
C116 C115 1.362 . S
C116 C117 1.366 . S
C117 C114 1.365 . S
C117 C116 1.366 . S
C117 H131 0.930 . S
C118 C115 1.378 . S
C118 N119 1.315 . S
C118 H121 0.930 . S
N119 Co99 2.194 . S
N119 C114 1.328 . S
N119 C118 1.315 . S
H120 C114 0.929 . S
H121 C118 0.930 . S
H122 C110 0.929 . S
H123 C112 0.929 . S
O124 Co99 2.351 . S
O124 C127 1.244 . S
O125 Co99 2.155 . S
O125 C127 1.240 . S
O126 Co99 2.096 . S
O126 C107 1.247 . S
C127 O124 1.244 . S
C127 O125 1.240 . S
H128 C102 0.931 . S
H129 C111 0.931 . S
H130 C115 0.929 . S
H131 C117 0.930 . S
Co132 N136 2.148 . S
Co132 N142 2.128 . S
Co132 N152 2.194 . S
Co132 O157 2.351 . S
Co132 O158 2.155 . S
Co132 O159 2.096 . S
C133 N136 1.301 . S
C133 N137 1.328 . S
C133 H138 0.930 . S
C134 C135 1.333 . S
C134 N136 1.317 . S
C134 H139 0.930 . S
C135 C134 1.333 . S
C135 N137 1.350 . S
C135 H161 0.931 . S
N136 Co132 2.148 . S
N136 C133 1.301 . S
N136 C134 1.317 . S
N137 C133 1.328 . S
N137 C135 1.350 . S
H138 C133 0.930 . S
H139 C134 0.930 . S
C140 O141 1.224 . S
C140 O159 1.247 . S
O141 C140 1.224 . S
N142 Co132 2.128 . S
N142 C143 1.355 . S
N142 C145 1.311 . S
C143 N142 1.355 . S
C143 C144 1.363 . S
C143 H155 0.929 . S
C144 C143 1.363 . S
C144 N146 1.375 . S
C144 H162 0.931 . S
C145 N142 1.311 . S
C145 N146 1.347 . S
C145 H156 0.929 . S
N146 C144 1.375 . S
N146 C145 1.347 . S
C147 C150 1.365 . S
C147 N152 1.328 . S
C147 H153 0.929 . S
C148 C149 1.362 . S
C148 C151 1.378 . S
C148 H163 0.929 . S
C149 C148 1.362 . S
C149 C150 1.366 . S
C150 C147 1.365 . S
C150 C149 1.366 . S
C150 H164 0.930 . S
C151 C148 1.378 . S
C151 N152 1.315 . S
C151 H154 0.930 . S
N152 Co132 2.194 . S
N152 C147 1.328 . S
N152 C151 1.315 . S
H153 C147 0.929 . S
H154 C151 0.930 . S
H155 C143 0.929 . S
H156 C145 0.929 . S
O157 Co132 2.351 . S
O157 C160 1.244 . S
O158 Co132 2.155 . S
O158 C160 1.240 . S
O159 Co132 2.096 . S
O159 C140 1.247 . S
C160 O157 1.244 . S
C160 O158 1.240 . S
H161 C135 0.931 . S
H162 C144 0.931 . S
H163 C148 0.929 . S
H164 C150 0.930 . S
Co165 N169 2.148 . S
Co165 N175 2.128 . S
Co165 N185 2.194 . S
Co165 O190 2.351 . S
Co165 O191 2.155 . S
Co165 O192 2.096 . S
C166 N169 1.301 1_565 S
C166 N170 1.328 . S
C166 H171 0.930 . S
C167 C168 1.333 . S
C167 N169 1.317 1_565 S
C167 H172 0.929 1_565 S
C168 C167 1.333 . S
C168 N170 1.350 . S
C168 H194 0.931 . S
N169 Co165 2.148 . S
N169 C166 1.301 1_545 S
N169 C167 1.317 1_545 S
N170 C166 1.328 . S
N170 C168 1.350 . S
H171 C166 0.930 . S
H172 C167 0.929 1_545 S
C173 O174 1.224 . S
C173 O192 1.247 . S
O174 C173 1.224 . S
N175 Co165 2.128 . S
N175 C176 1.355 . S
N175 C178 1.311 . S
C176 N175 1.355 . S
C176 C177 1.363 . S
C176 H188 0.929 . S
C177 C176 1.363 . S
C177 N179 1.375 . S
C177 H195 0.931 . S
C178 N175 1.311 . S
C178 N179 1.347 . S
C178 H189 0.929 . S
N179 C177 1.375 . S
N179 C178 1.347 . S
C180 C183 1.365 . S
C180 N185 1.328 . S
C180 H186 0.929 . S
C181 C182 1.362 . S
C181 C184 1.378 . S
C181 H196 0.929 . S
C182 C181 1.362 . S
C182 C183 1.366 . S
C183 C180 1.365 . S
C183 C182 1.366 . S
C183 H197 0.930 . S
C184 C181 1.378 . S
C184 N185 1.315 . S
C184 H187 0.930 . S
N185 Co165 2.194 . S
N185 C180 1.328 . S
N185 C184 1.315 . S
H186 C180 0.929 . S
H187 C184 0.930 . S
H188 C176 0.929 . S
H189 C178 0.929 . S
O190 Co165 2.351 . S
O190 C193 1.244 . S
O191 Co165 2.155 . S
O191 C193 1.240 . S
O192 Co165 2.096 . S
O192 C173 1.247 . S
C193 O190 1.244 . S
C193 O191 1.240 . S
H194 C168 0.931 . S
H195 C177 0.931 . S
H196 C181 0.929 . S
H197 C183 0.930 . S
Co198 N202 2.148 . S
Co198 N208 2.128 . S
Co198 N218 2.194 . S
Co198 O223 2.351 . S
Co198 O224 2.155 . S
Co198 O225 2.096 . S
C199 N202 1.301 . S
C199 N203 1.328 . S
C199 H204 0.930 . S
C200 C201 1.333 . S
C200 N202 1.317 . S
C200 H205 0.930 . S
C201 C200 1.333 . S
C201 N203 1.350 . S
C201 H227 0.931 . S
N202 Co198 2.148 . S
N202 C199 1.301 . S
N202 C200 1.317 . S
N203 C199 1.328 . S
N203 C201 1.350 . S
H204 C199 0.930 . S
H205 C200 0.930 . S
C206 O207 1.224 . S
C206 O225 1.247 . S
O207 C206 1.224 . S
N208 Co198 2.128 . S
N208 C209 1.355 . S
N208 C211 1.311 . S
C209 N208 1.355 . S
C209 C210 1.363 . S
C209 H221 0.929 . S
C210 C209 1.363 . S
C210 N212 1.375 . S
C210 H228 0.931 . S
C211 N208 1.311 . S
C211 N212 1.347 . S
C211 H222 0.929 . S
N212 C210 1.375 . S
N212 C211 1.347 . S
C213 C216 1.365 . S
C213 N218 1.328 . S
C213 H219 0.929 . S
C214 C215 1.362 . S
C214 C217 1.378 . S
C214 H229 0.929 . S
C215 C214 1.362 . S
C215 C216 1.366 . S
C216 C213 1.365 . S
C216 C215 1.366 . S
C216 H230 0.930 . S
C217 C214 1.378 . S
C217 N218 1.315 . S
C217 H220 0.930 . S
N218 Co198 2.194 . S
N218 C213 1.328 . S
N218 C217 1.315 . S
H219 C213 0.929 . S
H220 C217 0.930 . S
H221 C209 0.929 . S
H222 C211 0.929 . S
O223 Co198 2.351 . S
O223 C226 1.244 . S
O224 Co198 2.155 . S
O224 C226 1.240 . S
O225 Co198 2.096 . S
O225 C206 1.247 . S
C226 O223 1.244 . S
C226 O224 1.240 . S
H227 C201 0.931 . S
H228 C210 0.931 . S
H229 C214 0.929 . S
H230 C216 0.930 . S
Co231 N235 2.148 . S
Co231 N241 2.128 . S
Co231 N251 2.194 . S
Co231 O256 2.351 . S
Co231 O257 2.155 . S
Co231 O258 2.096 1_455 S
C232 N235 1.301 1_545 S
C232 N236 1.328 . S
C232 H237 0.930 . S
C233 C234 1.333 . S
C233 N235 1.317 1_545 S
C233 H238 0.929 1_445 S
C234 C233 1.333 . S
C234 N236 1.350 . S
C234 H260 0.931 . S
N235 Co231 2.148 . S
N235 C232 1.301 1_565 S
N235 C233 1.317 1_565 S
N236 C232 1.328 . S
N236 C234 1.350 . S
H237 C232 0.930 . S
H238 C233 0.929 1_665 S
C239 O240 1.224 . S
C239 O258 1.247 . S
O240 C239 1.224 . S
N241 Co231 2.128 . S
N241 C242 1.355 . S
N241 C244 1.311 1_455 S
C242 N241 1.355 . S
C242 C243 1.363 . S
C242 H254 0.929 . S
C243 C242 1.363 . S
C243 N245 1.375 1_455 S
C243 H261 0.931 . S
C244 N241 1.311 1_655 S
C244 N245 1.347 . S
C244 H255 0.929 . S
N245 C243 1.375 1_655 S
N245 C244 1.347 . S
C246 C249 1.365 . S
C246 N251 1.328 . S
C246 H252 0.929 . S
C247 C248 1.362 1_655 S
C247 C250 1.378 . S
C247 H262 0.929 . S
C248 C247 1.362 1_455 S
C248 C249 1.366 . S
C249 C246 1.365 . S
C249 C248 1.366 . S
C249 H263 0.930 . S
C250 C247 1.378 . S
C250 N251 1.315 1_655 S
C250 H253 0.930 . S
N251 Co231 2.194 . S
N251 C246 1.328 . S
N251 C250 1.315 1_455 S
H252 C246 0.929 . S
H253 C250 0.930 . S
H254 C242 0.929 . S
H255 C244 0.929 . S
O256 Co231 2.351 . S
O256 C259 1.244 . S
O257 Co231 2.155 . S
O257 C259 1.240 . S
O258 Co231 2.096 1_655 S
O258 C239 1.247 . S
C259 O256 1.244 . S
C259 O257 1.240 . S
H260 C234 0.931 . S
H261 C243 0.931 . S
H262 C247 0.929 . S
H263 C249 0.930 . S
Co264 N268 2.148 . S
Co264 N274 2.128 . S
Co264 N284 2.194 . S
Co264 O289 2.351 . S
Co264 O290 2.155 . S
Co264 O291 2.096 . S
C265 N268 1.301 . S
C265 N269 1.328 . S
C265 H270 0.930 . S
C266 C267 1.333 . S
C266 N268 1.317 . S
C266 H271 0.930 . S
C267 C266 1.333 . S
C267 N269 1.350 . S
C267 H293 0.931 . S
N268 Co264 2.148 . S
N268 C265 1.301 . S
N268 C266 1.317 . S
N269 C265 1.328 . S
N269 C267 1.350 . S
H270 C265 0.930 . S
H271 C266 0.930 . S
C272 O273 1.224 . S
C272 O291 1.247 . S
O273 C272 1.224 . S
N274 Co264 2.128 . S
N274 C275 1.355 . S
N274 C277 1.311 . S
C275 N274 1.355 . S
C275 C276 1.363 . S
C275 H287 0.929 . S
C276 C275 1.363 . S
C276 N278 1.375 . S
C276 H294 0.931 . S
C277 N274 1.311 . S
C277 N278 1.347 . S
C277 H288 0.929 . S
N278 C276 1.375 . S
N278 C277 1.347 . S
C279 C282 1.365 . S
C279 N284 1.328 . S
C279 H285 0.929 . S
C280 C281 1.362 . S
C280 C283 1.378 . S
C280 H295 0.929 . S
C281 C280 1.362 . S
C281 C282 1.366 . S
C282 C279 1.365 . S
C282 C281 1.366 . S
C282 H296 0.930 . S
C283 C280 1.378 . S
C283 N284 1.315 . S
C283 H286 0.930 . S
N284 Co264 2.194 . S
N284 C279 1.328 . S
N284 C283 1.315 . S
H285 C279 0.929 . S
H286 C283 0.930 . S
H287 C275 0.929 . S
H288 C277 0.929 . S
O289 Co264 2.351 . S
O289 C292 1.244 . S
O290 Co264 2.155 . S
O290 C292 1.240 . S
O291 Co264 2.096 . S
O291 C272 1.247 . S
C292 O289 1.244 . S
C292 O290 1.240 . S
H293 C267 0.931 . S
H294 C276 0.931 . S
H295 C280 0.929 . S
H296 C282 0.930 . S
Co297 N301 2.148 . S
Co297 N307 2.128 . S
Co297 N317 2.194 . S
Co297 O322 2.351 . S
Co297 O323 2.155 . S
Co297 O324 2.096 1_655 S
C298 N301 1.301 1_545 S
C298 N302 1.328 . S
C298 H303 0.930 . S
C299 C300 1.333 . S
C299 N301 1.317 1_545 S
C299 H304 0.929 1_645 S
C300 C299 1.333 . S
C300 N302 1.350 . S
C300 H326 0.931 . S
N301 Co297 2.148 . S
N301 C298 1.301 1_565 S
N301 C299 1.317 1_565 S
N302 C298 1.328 . S
N302 C300 1.350 . S
H303 C298 0.930 . S
H304 C299 0.929 1_465 S
C305 O306 1.224 . S
C305 O324 1.247 . S
O306 C305 1.224 . S
N307 Co297 2.128 . S
N307 C308 1.355 . S
N307 C310 1.311 1_655 S
C308 N307 1.355 . S
C308 C309 1.363 . S
C308 H320 0.929 . S
C309 C308 1.363 . S
C309 N311 1.375 1_655 S
C309 H327 0.931 . S
C310 N307 1.311 1_455 S
C310 N311 1.347 . S
C310 H321 0.929 . S
N311 C309 1.375 1_455 S
N311 C310 1.347 . S
C312 C315 1.365 . S
C312 N317 1.328 . S
C312 H318 0.929 . S
C313 C314 1.362 1_455 S
C313 C316 1.378 . S
C313 H328 0.929 . S
C314 C313 1.362 1_655 S
C314 C315 1.366 . S
C315 C312 1.365 . S
C315 C314 1.366 . S
C315 H329 0.930 . S
C316 C313 1.378 . S
C316 N317 1.315 1_455 S
C316 H319 0.930 . S
N317 Co297 2.194 . S
N317 C312 1.328 . S
N317 C316 1.315 1_655 S
H318 C312 0.929 . S
H319 C316 0.930 . S
H320 C308 0.929 . S
H321 C310 0.929 . S
O322 Co297 2.351 . S
O322 C325 1.244 . S
O323 Co297 2.155 . S
O323 C325 1.240 . S
O324 Co297 2.096 1_455 S
O324 C305 1.247 . S
C325 O322 1.244 . S
C325 O323 1.240 . S
H326 C300 0.931 . S
H327 C309 0.931 . S
H328 C313 0.929 . S
H329 C315 0.930 . S
Co330 N334 2.148 . S
Co330 N340 2.128 . S
Co330 N350 2.194 . S
Co330 O355 2.351 . S
Co330 O356 2.155 . S
Co330 O357 2.096 . S
C331 N334 1.301 . S
C331 N335 1.328 . S
C331 H336 0.930 . S
C332 C333 1.333 . S
C332 N334 1.317 . S
C332 H337 0.930 . S
C333 C332 1.333 . S
C333 N335 1.350 . S
C333 H359 0.931 . S
N334 Co330 2.148 . S
N334 C331 1.301 . S
N334 C332 1.317 . S
N335 C331 1.328 . S
N335 C333 1.350 . S
H336 C331 0.930 . S
H337 C332 0.930 . S
C338 O339 1.224 . S
C338 O357 1.247 . S
O339 C338 1.224 . S
N340 Co330 2.128 . S
N340 C341 1.355 . S
N340 C343 1.311 . S
C341 N340 1.355 . S
C341 C342 1.363 . S
C341 H353 0.929 . S
C342 C341 1.363 . S
C342 N344 1.375 . S
C342 H360 0.931 . S
C343 N340 1.311 . S
C343 N344 1.347 . S
C343 H354 0.929 . S
N344 C342 1.375 . S
N344 C343 1.347 . S
C345 C348 1.365 . S
C345 N350 1.328 . S
C345 H351 0.929 . S
C346 C347 1.362 . S
C346 C349 1.378 . S
C346 H361 0.929 . S
C347 C346 1.362 . S
C347 C348 1.366 . S
C348 C345 1.365 . S
C348 C347 1.366 . S
C348 H362 0.930 . S
C349 C346 1.378 . S
C349 N350 1.315 . S
C349 H352 0.930 . S
N350 Co330 2.194 . S
N350 C345 1.328 . S
N350 C349 1.315 . S
H351 C345 0.929 . S
H352 C349 0.930 . S
H353 C341 0.929 . S
H354 C343 0.929 . S
O355 Co330 2.351 . S
O355 C358 1.244 . S
O356 Co330 2.155 . S
O356 C358 1.240 . S
O357 Co330 2.096 . S
O357 C338 1.247 . S
C358 O355 1.244 . S
C358 O356 1.240 . S
H359 C333 0.931 . S
H360 C342 0.931 . S
H361 C346 0.929 . S
H362 C348 0.930 . S
Co363 N367 2.148 . S
Co363 N373 2.128 . S
Co363 N383 2.194 . S
Co363 O388 2.351 . S
Co363 O389 2.155 . S
Co363 O390 2.096 . S
C364 N367 1.301 1_565 S
C364 N368 1.328 . S
C364 H369 0.930 . S
C365 C366 1.333 . S
C365 N367 1.317 1_565 S
C365 H370 0.929 1_565 S
C366 C365 1.333 . S
C366 N368 1.350 . S
C366 H392 0.931 . S
N367 Co363 2.148 . S
N367 C364 1.301 1_545 S
N367 C365 1.317 1_545 S
N368 C364 1.328 . S
N368 C366 1.350 . S
H369 C364 0.930 . S
H370 C365 0.929 1_545 S
C371 O372 1.224 . S
C371 O390 1.247 . S
O372 C371 1.224 . S
N373 Co363 2.128 . S
N373 C374 1.355 . S
N373 C376 1.311 . S
C374 N373 1.355 . S
C374 C375 1.363 . S
C374 H386 0.929 . S
C375 C374 1.363 . S
C375 N377 1.375 . S
C375 H393 0.931 . S
C376 N373 1.311 . S
C376 N377 1.347 . S
C376 H387 0.929 . S
N377 C375 1.375 . S
N377 C376 1.347 . S
C378 C381 1.365 . S
C378 N383 1.328 . S
C378 H384 0.929 . S
C379 C380 1.362 . S
C379 C382 1.378 . S
C379 H394 0.929 . S
C380 C379 1.362 . S
C380 C381 1.366 . S
C381 C378 1.365 . S
C381 C380 1.366 . S
C381 H395 0.930 . S
C382 C379 1.378 . S
C382 N383 1.315 . S
C382 H385 0.930 . S
N383 Co363 2.194 . S
N383 C378 1.328 . S
N383 C382 1.315 . S
H384 C378 0.929 . S
H385 C382 0.930 . S
H386 C374 0.929 . S
H387 C376 0.929 . S
O388 Co363 2.351 . S
O388 C391 1.244 . S
O389 Co363 2.155 . S
O389 C391 1.240 . S
O390 Co363 2.096 . S
O390 C371 1.247 . S
C391 O388 1.244 . S
C391 O389 1.240 . S
H392 C366 0.931 . S
H393 C375 0.931 . S
H394 C379 0.929 . S
H395 C381 0.930 . S
Co396 N400 2.148 . S
Co396 N406 2.128 . S
Co396 N416 2.194 . S
Co396 O421 2.351 . S
Co396 O422 2.155 . S
Co396 O423 2.096 . S
C397 N400 1.301 . S
C397 N401 1.328 . S
C397 H402 0.930 . S
C398 C399 1.333 . S
C398 N400 1.317 . S
C398 H403 0.930 . S
C399 C398 1.333 . S
C399 N401 1.350 . S
C399 H425 0.931 . S
N400 Co396 2.148 . S
N400 C397 1.301 . S
N400 C398 1.317 . S
N401 C397 1.328 . S
N401 C399 1.350 . S
H402 C397 0.930 . S
H403 C398 0.930 . S
C404 O405 1.224 . S
C404 O423 1.247 . S
O405 C404 1.224 . S
N406 Co396 2.128 . S
N406 C407 1.355 . S
N406 C409 1.311 . S
C407 N406 1.355 . S
C407 C408 1.363 . S
C407 H419 0.929 . S
C408 C407 1.363 . S
C408 N410 1.375 . S
C408 H426 0.931 . S
C409 N406 1.311 . S
C409 N410 1.347 . S
C409 H420 0.929 . S
N410 C408 1.375 . S
N410 C409 1.347 . S
C411 C414 1.365 . S
C411 N416 1.328 . S
C411 H417 0.929 . S
C412 C413 1.362 . S
C412 C415 1.378 . S
C412 H427 0.929 . S
C413 C412 1.362 . S
C413 C414 1.366 . S
C414 C411 1.365 . S
C414 C413 1.366 . S
C414 H428 0.930 . S
C415 C412 1.378 . S
C415 N416 1.315 . S
C415 H418 0.930 . S
N416 Co396 2.194 . S
N416 C411 1.328 . S
N416 C415 1.315 . S
H417 C411 0.929 . S
H418 C415 0.930 . S
H419 C407 0.929 . S
H420 C409 0.929 . S
O421 Co396 2.351 . S
O421 C424 1.244 . S
O422 Co396 2.155 . S
O422 C424 1.240 . S
O423 Co396 2.096 . S
O423 C404 1.247 . S
C424 O421 1.244 . S
C424 O422 1.240 . S
H425 C399 0.931 . S
H426 C408 0.931 . S
H427 C412 0.929 . S
H428 C414 0.930 . S
Co429 N433 2.148 . S
Co429 N439 2.128 . S
Co429 N449 2.194 . S
Co429 O454 2.351 . S
Co429 O455 2.155 . S
Co429 O456 2.096 . S
C430 N433 1.301 1_545 S
C430 N434 1.328 . S
C430 H435 0.930 . S
C431 C432 1.333 . S
C431 N433 1.317 1_545 S
C431 H436 0.929 1_545 S
C432 C431 1.333 . S
C432 N434 1.350 . S
C432 H458 0.931 . S
N433 Co429 2.148 . S
N433 C430 1.301 1_565 S
N433 C431 1.317 1_565 S
N434 C430 1.328 . S
N434 C432 1.350 . S
H435 C430 0.930 . S
H436 C431 0.929 1_565 S
C437 O438 1.224 . S
C437 O456 1.247 . S
O438 C437 1.224 . S
N439 Co429 2.128 . S
N439 C440 1.355 . S
N439 C442 1.311 . S
C440 N439 1.355 . S
C440 C441 1.363 . S
C440 H452 0.929 . S
C441 C440 1.363 . S
C441 N443 1.375 . S
C441 H459 0.931 . S
C442 N439 1.311 . S
C442 N443 1.347 . S
C442 H453 0.929 . S
N443 C441 1.375 . S
N443 C442 1.347 . S
C444 C447 1.365 . S
C444 N449 1.328 . S
C444 H450 0.929 . S
C445 C446 1.362 . S
C445 C448 1.378 . S
C445 H460 0.929 . S
C446 C445 1.362 . S
C446 C447 1.366 . S
C447 C444 1.365 . S
C447 C446 1.366 . S
C447 H461 0.930 . S
C448 C445 1.378 . S
C448 N449 1.315 . S
C448 H451 0.930 . S
N449 Co429 2.194 . S
N449 C444 1.328 . S
N449 C448 1.315 . S
H450 C444 0.929 . S
H451 C448 0.930 . S
H452 C440 0.929 . S
H453 C442 0.929 . S
O454 Co429 2.351 . S
O454 C457 1.244 . S
O455 Co429 2.155 . S
O455 C457 1.240 . S
O456 Co429 2.096 . S
O456 C437 1.247 . S
C457 O454 1.244 . S
C457 O455 1.240 . S
H458 C432 0.931 . S
H459 C441 0.931 . S
H460 C445 0.929 . S
H461 C447 0.930 . S
Co462 N466 2.148 . S
Co462 N472 2.128 . S
Co462 N482 2.194 . S
Co462 O487 2.351 . S
Co462 O488 2.155 . S
Co462 O489 2.096 . S
C463 N466 1.301 . S
C463 N467 1.328 . S
C463 H468 0.930 . S
C464 C465 1.333 . S
C464 N466 1.317 . S
C464 H469 0.930 . S
C465 C464 1.333 . S
C465 N467 1.350 . S
C465 H491 0.931 . S
N466 Co462 2.148 . S
N466 C463 1.301 . S
N466 C464 1.317 . S
N467 C463 1.328 . S
N467 C465 1.350 . S
H468 C463 0.930 . S
H469 C464 0.930 . S
C470 O471 1.224 . S
C470 O489 1.247 . S
O471 C470 1.224 . S
N472 Co462 2.128 . S
N472 C473 1.355 . S
N472 C475 1.311 . S
C473 N472 1.355 . S
C473 C474 1.363 . S
C473 H485 0.929 . S
C474 C473 1.363 . S
C474 N476 1.375 . S
C474 H492 0.931 . S
C475 N472 1.311 . S
C475 N476 1.347 . S
C475 H486 0.929 . S
N476 C474 1.375 . S
N476 C475 1.347 . S
C477 C480 1.365 . S
C477 N482 1.328 . S
C477 H483 0.929 . S
C478 C479 1.362 . S
C478 C481 1.378 . S
C478 H493 0.929 . S
C479 C478 1.362 . S
C479 C480 1.366 . S
C480 C477 1.365 . S
C480 C479 1.366 . S
C480 H494 0.930 . S
C481 C478 1.378 . S
C481 N482 1.315 . S
C481 H484 0.930 . S
N482 Co462 2.194 . S
N482 C477 1.328 . S
N482 C481 1.315 . S
H483 C477 0.929 . S
H484 C481 0.930 . S
H485 C473 0.929 . S
H486 C475 0.929 . S
O487 Co462 2.351 . S
O487 C490 1.244 . S
O488 Co462 2.155 . S
O488 C490 1.240 . S
O489 Co462 2.096 . S
O489 C470 1.247 . S
C490 O487 1.244 . S
C490 O488 1.240 . S
H491 C465 0.931 . S
H492 C474 0.931 . S
H493 C478 0.929 . S
H494 C480 0.930 . S
Co495 N499 2.148 . S
Co495 N505 2.128 . S
Co495 N515 2.194 . S
Co495 O520 2.351 . S
Co495 O521 2.155 . S
Co495 O522 2.096 1_655 S
C496 N499 1.301 1_565 S
C496 N500 1.328 . S
C496 H501 0.930 . S
C497 C498 1.333 . S
C497 N499 1.317 1_565 S
C497 H502 0.929 1_665 S
C498 C497 1.333 . S
C498 N500 1.350 . S
C498 H524 0.931 . S
N499 Co495 2.148 . S
N499 C496 1.301 1_545 S
N499 C497 1.317 1_545 S
N500 C496 1.328 . S
N500 C498 1.350 . S
H501 C496 0.930 . S
H502 C497 0.929 1_445 S
C503 O504 1.224 . S
C503 O522 1.247 . S
O504 C503 1.224 . S
N505 Co495 2.128 . S
N505 C506 1.355 . S
N505 C508 1.311 1_655 S
C506 N505 1.355 . S
C506 C507 1.363 . S
C506 H518 0.929 . S
C507 C506 1.363 . S
C507 N509 1.375 1_655 S
C507 H525 0.931 . S
C508 N505 1.311 1_455 S
C508 N509 1.347 . S
C508 H519 0.929 . S
N509 C507 1.375 1_455 S
N509 C508 1.347 . S
C510 C513 1.365 . S
C510 N515 1.328 . S
C510 H516 0.929 . S
C511 C512 1.362 1_455 S
C511 C514 1.378 . S
C511 H526 0.929 . S
C512 C511 1.362 1_655 S
C512 C513 1.366 . S
C513 C510 1.365 . S
C513 C512 1.366 . S
C513 H527 0.930 . S
C514 C511 1.378 . S
C514 N515 1.315 1_455 S
C514 H517 0.930 . S
N515 Co495 2.194 . S
N515 C510 1.328 . S
N515 C514 1.315 1_655 S
H516 C510 0.929 . S
H517 C514 0.930 . S
H518 C506 0.929 . S
H519 C508 0.929 . S
O520 Co495 2.351 . S
O520 C523 1.244 . S
O521 Co495 2.155 . S
O521 C523 1.240 . S
O522 Co495 2.096 1_455 S
O522 C503 1.247 . S
C523 O520 1.244 . S
C523 O521 1.240 . S
H524 C498 0.931 . S
H525 C507 0.931 . S
H526 C511 0.929 . S
H527 C513 0.930 . S
Co528 N532 2.148 . S
Co528 N538 2.128 . S
Co528 N548 2.194 . S
Co528 O553 2.351 . S
Co528 O554 2.155 . S
Co528 O555 2.096 . S
C529 N532 1.301 . S
C529 N533 1.328 . S
C529 H534 0.930 . S
C530 C531 1.333 . S
C530 N532 1.317 . S
C530 H535 0.930 . S
C531 C530 1.333 . S
C531 N533 1.350 . S
C531 H557 0.931 . S
N532 Co528 2.148 . S
N532 C529 1.301 . S
N532 C530 1.317 . S
N533 C529 1.328 . S
N533 C531 1.350 . S
H534 C529 0.930 . S
H535 C530 0.930 . S
C536 O537 1.224 . S
C536 O555 1.247 . S
O537 C536 1.224 . S
N538 Co528 2.128 . S
N538 C539 1.355 . S
N538 C541 1.311 . S
C539 N538 1.355 . S
C539 C540 1.363 . S
C539 H551 0.929 . S
C540 C539 1.363 . S
C540 N542 1.375 . S
C540 H558 0.931 . S
C541 N538 1.311 . S
C541 N542 1.347 . S
C541 H552 0.929 . S
N542 C540 1.375 . S
N542 C541 1.347 . S
C543 C546 1.365 . S
C543 N548 1.328 . S
C543 H549 0.929 . S
C544 C545 1.362 . S
C544 C547 1.378 . S
C544 H559 0.929 . S
C545 C544 1.362 . S
C545 C546 1.366 . S
C546 C543 1.365 . S
C546 C545 1.366 . S
C546 H560 0.930 . S
C547 C544 1.378 . S
C547 N548 1.315 . S
C547 H550 0.930 . S
N548 Co528 2.194 . S
N548 C543 1.328 . S
N548 C547 1.315 . S
H549 C543 0.929 . S
H550 C547 0.930 . S
H551 C539 0.929 . S
H552 C541 0.929 . S
O553 Co528 2.351 . S
O553 C556 1.244 . S
O554 Co528 2.155 . S
O554 C556 1.240 . S
O555 Co528 2.096 . S
O555 C536 1.247 . S
C556 O553 1.244 . S
C556 O554 1.240 . S
H557 C531 0.931 . S
H558 C540 0.931 . S
H559 C544 0.929 . S
H560 C546 0.930 . S
Co561 N565 2.148 . S
Co561 N571 2.128 . S
Co561 N581 2.194 . S
Co561 O586 2.351 . S
Co561 O587 2.155 . S
Co561 O588 2.096 . S
C562 N565 1.301 . S
C562 N566 1.328 . S
C562 H567 0.930 . S
C563 C564 1.333 . S
C563 N565 1.317 . S
C563 H568 0.930 . S
C564 C563 1.333 . S
C564 N566 1.350 . S
C564 H590 0.931 . S
N565 Co561 2.148 . S
N565 C562 1.301 . S
N565 C563 1.317 . S
N566 C562 1.328 . S
N566 C564 1.350 . S
H567 C562 0.930 . S
H568 C563 0.930 . S
C569 O570 1.224 . S
C569 O588 1.247 . S
O570 C569 1.224 . S
N571 Co561 2.128 . S
N571 C572 1.355 . S
N571 C574 1.311 . S
C572 N571 1.355 . S
C572 C573 1.363 . S
C572 H584 0.929 . S
C573 C572 1.363 . S
C573 N575 1.375 . S
C573 H591 0.931 . S
C574 N571 1.311 . S
C574 N575 1.347 . S
C574 H585 0.929 . S
N575 C573 1.375 . S
N575 C574 1.347 . S
C576 C579 1.365 . S
C576 N581 1.328 . S
C576 H582 0.929 . S
C577 C578 1.362 . S
C577 C580 1.378 . S
C577 H592 0.929 . S
C578 C577 1.362 . S
C578 C579 1.366 . S
C579 C576 1.365 . S
C579 C578 1.366 . S
C579 H593 0.930 . S
C580 C577 1.378 . S
C580 N581 1.315 . S
C580 H583 0.930 . S
N581 Co561 2.194 . S
N581 C576 1.328 . S
N581 C580 1.315 . S
H582 C576 0.929 . S
H583 C580 0.930 . S
H584 C572 0.929 . S
H585 C574 0.929 . S
O586 Co561 2.351 . S
O586 C589 1.244 . S
O587 Co561 2.155 . S
O587 C589 1.240 . S
O588 Co561 2.096 . S
O588 C569 1.247 . S
C589 O586 1.244 . S
C589 O587 1.240 . S
H590 C564 0.931 . S
H591 C573 0.931 . S
H592 C577 0.929 . S
H593 C579 0.930 . S
Co594 N598 2.148 . S
Co594 N604 2.128 . S
Co594 N614 2.194 . S
Co594 O619 2.351 . S
Co594 O620 2.155 . S
Co594 O621 2.096 . S
C595 N598 1.301 . S
C595 N599 1.328 . S
C595 H600 0.930 . S
C596 C597 1.333 . S
C596 N598 1.317 . S
C596 H601 0.930 . S
C597 C596 1.333 . S
C597 N599 1.350 . S
C597 H623 0.931 . S
N598 Co594 2.148 . S
N598 C595 1.301 . S
N598 C596 1.317 . S
N599 C595 1.328 . S
N599 C597 1.350 . S
H600 C595 0.930 . S
H601 C596 0.930 . S
C602 O603 1.224 . S
C602 O621 1.247 . S
O603 C602 1.224 . S
N604 Co594 2.128 . S
N604 C605 1.355 . S
N604 C607 1.311 . S
C605 N604 1.355 . S
C605 C606 1.363 . S
C605 H617 0.929 . S
C606 C605 1.363 . S
C606 N608 1.375 . S
C606 H624 0.931 . S
C607 N604 1.311 . S
C607 N608 1.347 . S
C607 H618 0.929 . S
N608 C606 1.375 . S
N608 C607 1.347 . S
C609 C612 1.365 . S
C609 N614 1.328 . S
C609 H615 0.929 . S
C610 C611 1.362 . S
C610 C613 1.378 . S
C610 H625 0.929 . S
C611 C610 1.362 . S
C611 C612 1.366 . S
C612 C609 1.365 . S
C612 C611 1.366 . S
C612 H626 0.930 . S
C613 C610 1.378 . S
C613 N614 1.315 . S
C613 H616 0.930 . S
N614 Co594 2.194 . S
N614 C609 1.328 . S
N614 C613 1.315 . S
H615 C609 0.929 . S
H616 C613 0.930 . S
H617 C605 0.929 . S
H618 C607 0.929 . S
O619 Co594 2.351 . S
O619 C622 1.244 . S
O620 Co594 2.155 . S
O620 C622 1.240 . S
O621 Co594 2.096 . S
O621 C602 1.247 . S
C622 O619 1.244 . S
C622 O620 1.240 . S
H623 C597 0.931 . S
H624 C606 0.931 . S
H625 C610 0.929 . S
H626 C612 0.930 . S
Co627 N631 2.148 . S
Co627 N637 2.128 . S
Co627 N647 2.194 . S
Co627 O652 2.351 . S
Co627 O653 2.155 . S
Co627 O654 2.096 1_655 S
C628 N631 1.301 . S
C628 N632 1.328 . S
C628 H633 0.930 . S
C629 C630 1.333 . S
C629 N631 1.317 . S
C629 H634 0.930 1_655 S
C630 C629 1.333 . S
C630 N632 1.350 . S
C630 H656 0.931 . S
N631 Co627 2.148 . S
N631 C628 1.301 . S
N631 C629 1.317 . S
N632 C628 1.328 . S
N632 C630 1.350 . S
H633 C628 0.930 . S
H634 C629 0.930 1_455 S
C635 O636 1.224 . S
C635 O654 1.247 . S
O636 C635 1.224 . S
N637 Co627 2.128 . S
N637 C638 1.355 . S
N637 C640 1.311 1_655 S
C638 N637 1.355 . S
C638 C639 1.363 . S
C638 H650 0.929 . S
C639 C638 1.363 . S
C639 N641 1.375 1_655 S
C639 H657 0.931 . S
C640 N637 1.311 1_455 S
C640 N641 1.347 . S
C640 H651 0.929 . S
N641 C639 1.375 1_455 S
N641 C640 1.347 . S
C642 C645 1.365 . S
C642 N647 1.328 . S
C642 H648 0.929 . S
C643 C644 1.362 1_455 S
C643 C646 1.378 . S
C643 H658 0.929 . S
C644 C643 1.362 1_655 S
C644 C645 1.366 . S
C645 C642 1.365 . S
C645 C644 1.366 . S
C645 H659 0.930 . S
C646 C643 1.378 . S
C646 N647 1.315 1_455 S
C646 H649 0.930 . S
N647 Co627 2.194 . S
N647 C642 1.328 . S
N647 C646 1.315 1_655 S
H648 C642 0.929 . S
H649 C646 0.930 . S
H650 C638 0.929 . S
H651 C640 0.929 . S
O652 Co627 2.351 . S
O652 C655 1.244 . S
O653 Co627 2.155 . S
O653 C655 1.240 . S
O654 Co627 2.096 1_455 S
O654 C635 1.247 . S
C655 O652 1.244 . S
C655 O653 1.240 . S
H656 C630 0.931 . S
H657 C639 0.931 . S
H658 C643 0.929 . S
H659 C645 0.930 . S
Co660 N664 2.148 . S
Co660 N670 2.128 . S
Co660 N680 2.194 . S
Co660 O685 2.351 . S
Co660 O686 2.155 . S
Co660 O687 2.096 . S
C661 N664 1.301 . S
C661 N665 1.328 . S
C661 H666 0.930 . S
C662 C663 1.333 . S
C662 N664 1.317 . S
C662 H667 0.930 . S
C663 C662 1.333 . S
C663 N665 1.350 . S
C663 H689 0.931 . S
N664 Co660 2.148 . S
N664 C661 1.301 . S
N664 C662 1.317 . S
N665 C661 1.328 . S
N665 C663 1.350 . S
H666 C661 0.930 . S
H667 C662 0.930 . S
C668 O669 1.224 . S
C668 O687 1.247 . S
O669 C668 1.224 . S
N670 Co660 2.128 . S
N670 C671 1.355 . S
N670 C673 1.311 . S
C671 N670 1.355 . S
C671 C672 1.363 . S
C671 H683 0.929 . S
C672 C671 1.363 . S
C672 N674 1.375 . S
C672 H690 0.931 . S
C673 N670 1.311 . S
C673 N674 1.347 . S
C673 H684 0.929 . S
N674 C672 1.375 . S
N674 C673 1.347 . S
C675 C678 1.365 . S
C675 N680 1.328 . S
C675 H681 0.929 . S
C676 C677 1.362 . S
C676 C679 1.378 . S
C676 H691 0.929 . S
C677 C676 1.362 . S
C677 C678 1.366 . S
C678 C675 1.365 . S
C678 C677 1.366 . S
C678 H692 0.930 . S
C679 C676 1.378 . S
C679 N680 1.315 . S
C679 H682 0.930 . S
N680 Co660 2.194 . S
N680 C675 1.328 . S
N680 C679 1.315 . S
H681 C675 0.929 . S
H682 C679 0.930 . S
H683 C671 0.929 . S
H684 C673 0.929 . S
O685 Co660 2.351 . S
O685 C688 1.244 . S
O686 Co660 2.155 . S
O686 C688 1.240 . S
O687 Co660 2.096 . S
O687 C668 1.247 . S
C688 O685 1.244 . S
C688 O686 1.240 . S
H689 C663 0.931 . S
H690 C672 0.931 . S
H691 C676 0.929 . S
H692 C678 0.930 . S
Co693 N697 2.148 . S
Co693 N703 2.128 . S
Co693 N713 2.194 . S
Co693 O718 2.351 . S
Co693 O719 2.155 . S
Co693 O720 2.096 1_655 S
C694 N697 1.301 . S
C694 N698 1.328 . S
C694 H699 0.930 . S
C695 C696 1.333 . S
C695 N697 1.317 . S
C695 H700 0.930 1_655 S
C696 C695 1.333 . S
C696 N698 1.350 . S
C696 H722 0.931 . S
N697 Co693 2.148 . S
N697 C694 1.301 . S
N697 C695 1.317 . S
N698 C694 1.328 . S
N698 C696 1.350 . S
H699 C694 0.930 . S
H700 C695 0.930 1_455 S
C701 O702 1.224 . S
C701 O720 1.247 . S
O702 C701 1.224 . S
N703 Co693 2.128 . S
N703 C704 1.355 . S
N703 C706 1.311 1_655 S
C704 N703 1.355 . S
C704 C705 1.363 . S
C704 H716 0.929 . S
C705 C704 1.363 . S
C705 N707 1.375 1_655 S
C705 H723 0.931 . S
C706 N703 1.311 1_455 S
C706 N707 1.347 . S
C706 H717 0.929 . S
N707 C705 1.375 1_455 S
N707 C706 1.347 . S
C708 C711 1.365 . S
C708 N713 1.328 . S
C708 H714 0.929 . S
C709 C710 1.362 1_455 S
C709 C712 1.378 . S
C709 H724 0.929 . S
C710 C709 1.362 1_655 S
C710 C711 1.366 . S
C711 C708 1.365 . S
C711 C710 1.366 . S
C711 H725 0.930 . S
C712 C709 1.378 . S
C712 N713 1.315 1_455 S
C712 H715 0.930 . S
N713 Co693 2.194 . S
N713 C708 1.328 . S
N713 C712 1.315 1_655 S
H714 C708 0.929 . S
H715 C712 0.930 . S
H716 C704 0.929 . S
H717 C706 0.929 . S
O718 Co693 2.351 . S
O718 C721 1.244 . S
O719 Co693 2.155 . S
O719 C721 1.240 . S
O720 Co693 2.096 1_455 S
O720 C701 1.247 . S
C721 O718 1.244 . S
C721 O719 1.240 . S
H722 C696 0.931 . S
H723 C705 0.931 . S
H724 C709 0.929 . S
H725 C711 0.930 . S
Co726 N730 2.148 . S
Co726 N736 2.128 . S
Co726 N746 2.194 . S
Co726 O751 2.351 . S
Co726 O752 2.155 . S
Co726 O753 2.096 . S
C727 N730 1.301 . S
C727 N731 1.328 . S
C727 H732 0.930 . S
C728 C729 1.333 . S
C728 N730 1.317 . S
C728 H733 0.930 . S
C729 C728 1.333 . S
C729 N731 1.350 . S
C729 H755 0.931 . S
N730 Co726 2.148 . S
N730 C727 1.301 . S
N730 C728 1.317 . S
N731 C727 1.328 . S
N731 C729 1.350 . S
H732 C727 0.930 . S
H733 C728 0.930 . S
C734 O735 1.224 . S
C734 O753 1.247 . S
O735 C734 1.224 . S
N736 Co726 2.128 . S
N736 C737 1.355 . S
N736 C739 1.311 . S
C737 N736 1.355 . S
C737 C738 1.363 . S
C737 H749 0.929 . S
C738 C737 1.363 . S
C738 N740 1.375 . S
C738 H756 0.931 . S
C739 N736 1.311 . S
C739 N740 1.347 . S
C739 H750 0.929 . S
N740 C738 1.375 . S
N740 C739 1.347 . S
C741 C744 1.365 . S
C741 N746 1.328 . S
C741 H747 0.929 . S
C742 C743 1.362 . S
C742 C745 1.378 . S
C742 H757 0.929 . S
C743 C742 1.362 . S
C743 C744 1.366 . S
C744 C741 1.365 . S
C744 C743 1.366 . S
C744 H758 0.930 . S
C745 C742 1.378 . S
C745 N746 1.315 . S
C745 H748 0.930 . S
N746 Co726 2.194 . S
N746 C741 1.328 . S
N746 C745 1.315 . S
H747 C741 0.929 . S
H748 C745 0.930 . S
H749 C737 0.929 . S
H750 C739 0.929 . S
O751 Co726 2.351 . S
O751 C754 1.244 . S
O752 Co726 2.155 . S
O752 C754 1.240 . S
O753 Co726 2.096 . S
O753 C734 1.247 . S
C754 O751 1.244 . S
C754 O752 1.240 . S
H755 C729 0.931 . S
H756 C738 0.931 . S
H757 C742 0.929 . S
H758 C744 0.930 . S
Co759 N763 2.148 . S
Co759 N769 2.128 . S
Co759 N779 2.194 . S
Co759 O784 2.351 . S
Co759 O785 2.155 . S
Co759 O786 2.096 . S
C760 N763 1.301 . S
C760 N764 1.328 . S
C760 H765 0.930 . S
C761 C762 1.333 . S
C761 N763 1.317 . S
C761 H766 0.930 . S
C762 C761 1.333 . S
C762 N764 1.350 . S
C762 H788 0.931 . S
N763 Co759 2.148 . S
N763 C760 1.301 . S
N763 C761 1.317 . S
N764 C760 1.328 . S
N764 C762 1.350 . S
H765 C760 0.930 . S
H766 C761 0.930 . S
C767 O768 1.224 . S
C767 O786 1.247 . S
O768 C767 1.224 . S
N769 Co759 2.128 . S
N769 C770 1.355 . S
N769 C772 1.311 . S
C770 N769 1.355 . S
C770 C771 1.363 . S
C770 H782 0.929 . S
C771 C770 1.363 . S
C771 N773 1.375 . S
C771 H789 0.931 . S
C772 N769 1.311 . S
C772 N773 1.347 . S
C772 H783 0.929 . S
N773 C771 1.375 . S
N773 C772 1.347 . S
C774 C777 1.365 . S
C774 N779 1.328 . S
C774 H780 0.929 . S
C775 C776 1.362 . S
C775 C778 1.378 . S
C775 H790 0.929 . S
C776 C775 1.362 . S
C776 C777 1.366 . S
C777 C774 1.365 . S
C777 C776 1.366 . S
C777 H791 0.930 . S
C778 C775 1.378 . S
C778 N779 1.315 . S
C778 H781 0.930 . S
N779 Co759 2.194 . S
N779 C774 1.328 . S
N779 C778 1.315 . S
H780 C774 0.929 . S
H781 C778 0.930 . S
H782 C770 0.929 . S
H783 C772 0.929 . S
O784 Co759 2.351 . S
O784 C787 1.244 . S
O785 Co759 2.155 . S
O785 C787 1.240 . S
O786 Co759 2.096 . S
O786 C767 1.247 . S
C787 O784 1.244 . S
C787 O785 1.240 . S
H788 C762 0.931 . S
H789 C771 0.931 . S
H790 C775 0.929 . S
H791 C777 0.930 . S
Co792 N796 2.148 . S
Co792 N802 2.128 . S
Co792 N812 2.194 . S
Co792 O817 2.351 . S
Co792 O818 2.155 . S
Co792 O819 2.096 . S
C793 N796 1.301 . S
C793 N797 1.328 . S
C793 H798 0.930 . S
C794 C795 1.333 . S
C794 N796 1.317 . S
C794 H799 0.930 . S
C795 C794 1.333 . S
C795 N797 1.350 . S
C795 H821 0.931 . S
N796 Co792 2.148 . S
N796 C793 1.301 . S
N796 C794 1.317 . S
N797 C793 1.328 . S
N797 C795 1.350 . S
H798 C793 0.930 . S
H799 C794 0.930 . S
C800 O801 1.224 . S
C800 O819 1.247 . S
O801 C800 1.224 . S
N802 Co792 2.128 . S
N802 C803 1.355 . S
N802 C805 1.311 . S
C803 N802 1.355 . S
C803 C804 1.363 . S
C803 H815 0.929 . S
C804 C803 1.363 . S
C804 N806 1.375 . S
C804 H822 0.931 . S
C805 N802 1.311 . S
C805 N806 1.347 . S
C805 H816 0.929 . S
N806 C804 1.375 . S
N806 C805 1.347 . S
C807 C810 1.365 . S
C807 N812 1.328 . S
C807 H813 0.929 . S
C808 C809 1.362 . S
C808 C811 1.378 . S
C808 H823 0.929 . S
C809 C808 1.362 . S
C809 C810 1.366 . S
C810 C807 1.365 . S
C810 C809 1.366 . S
C810 H824 0.930 . S
C811 C808 1.378 . S
C811 N812 1.315 . S
C811 H814 0.930 . S
N812 Co792 2.194 . S
N812 C807 1.328 . S
N812 C811 1.315 . S
H813 C807 0.929 . S
H814 C811 0.930 . S
H815 C803 0.929 . S
H816 C805 0.929 . S
O817 Co792 2.351 . S
O817 C820 1.244 . S
O818 Co792 2.155 . S
O818 C820 1.240 . S
O819 Co792 2.096 . S
O819 C800 1.247 . S
C820 O817 1.244 . S
C820 O818 1.240 . S
H821 C795 0.931 . S
H822 C804 0.931 . S
H823 C808 0.929 . S
H824 C810 0.930 . S
Co825 N829 2.148 . S
Co825 N835 2.128 . S
Co825 N845 2.194 . S
Co825 O850 2.351 . S
Co825 O851 2.155 . S
Co825 O852 2.096 . S
C826 N829 1.301 . S
C826 N830 1.328 . S
C826 H831 0.930 . S
C827 C828 1.333 . S
C827 N829 1.317 . S
C827 H832 0.930 . S
C828 C827 1.333 . S
C828 N830 1.350 . S
C828 H854 0.931 . S
N829 Co825 2.148 . S
N829 C826 1.301 . S
N829 C827 1.317 . S
N830 C826 1.328 . S
N830 C828 1.350 . S
H831 C826 0.930 . S
H832 C827 0.930 . S
C833 O834 1.224 . S
C833 O852 1.247 . S
O834 C833 1.224 . S
N835 Co825 2.128 . S
N835 C836 1.355 . S
N835 C838 1.311 . S
C836 N835 1.355 . S
C836 C837 1.363 . S
C836 H848 0.929 . S
C837 C836 1.363 . S
C837 N839 1.375 . S
C837 H855 0.931 . S
C838 N835 1.311 . S
C838 N839 1.347 . S
C838 H849 0.929 . S
N839 C837 1.375 . S
N839 C838 1.347 . S
C840 C843 1.365 . S
C840 N845 1.328 . S
C840 H846 0.929 . S
C841 C842 1.362 . S
C841 C844 1.378 . S
C841 H856 0.929 . S
C842 C841 1.362 . S
C842 C843 1.366 . S
C843 C840 1.365 . S
C843 C842 1.366 . S
C843 H857 0.930 . S
C844 C841 1.378 . S
C844 N845 1.315 . S
C844 H847 0.930 . S
N845 Co825 2.194 . S
N845 C840 1.328 . S
N845 C844 1.315 . S
H846 C840 0.929 . S
H847 C844 0.930 . S
H848 C836 0.929 . S
H849 C838 0.929 . S
O850 Co825 2.351 . S
O850 C853 1.244 . S
O851 Co825 2.155 . S
O851 C853 1.240 . S
O852 Co825 2.096 . S
O852 C833 1.247 . S
C853 O850 1.244 . S
C853 O851 1.240 . S
H854 C828 0.931 . S
H855 C837 0.931 . S
H856 C841 0.929 . S
H857 C843 0.930 . S
Co858 N862 2.148 . S
Co858 N868 2.128 . S
Co858 N878 2.194 . S
Co858 O883 2.351 . S
Co858 O884 2.155 . S
Co858 O885 2.096 . S
C859 N862 1.301 . S
C859 N863 1.328 . S
C859 H864 0.930 . S
C860 C861 1.333 . S
C860 N862 1.317 . S
C860 H865 0.930 . S
C861 C860 1.333 . S
C861 N863 1.350 . S
C861 H887 0.931 . S
N862 Co858 2.148 . S
N862 C859 1.301 . S
N862 C860 1.317 . S
N863 C859 1.328 . S
N863 C861 1.350 . S
H864 C859 0.930 . S
H865 C860 0.930 . S
C866 O867 1.224 . S
C866 O885 1.247 . S
O867 C866 1.224 . S
N868 Co858 2.128 . S
N868 C869 1.355 . S
N868 C871 1.311 . S
C869 N868 1.355 . S
C869 C870 1.363 . S
C869 H881 0.929 . S
C870 C869 1.363 . S
C870 N872 1.375 . S
C870 H888 0.931 . S
C871 N868 1.311 . S
C871 N872 1.347 . S
C871 H882 0.929 . S
N872 C870 1.375 . S
N872 C871 1.347 . S
C873 C876 1.365 . S
C873 N878 1.328 . S
C873 H879 0.929 . S
C874 C875 1.362 . S
C874 C877 1.378 . S
C874 H889 0.929 . S
C875 C874 1.362 . S
C875 C876 1.366 . S
C876 C873 1.365 . S
C876 C875 1.366 . S
C876 H890 0.930 . S
C877 C874 1.378 . S
C877 N878 1.315 . S
C877 H880 0.930 . S
N878 Co858 2.194 . S
N878 C873 1.328 . S
N878 C877 1.315 . S
H879 C873 0.929 . S
H880 C877 0.930 . S
H881 C869 0.929 . S
H882 C871 0.929 . S
O883 Co858 2.351 . S
O883 C886 1.244 . S
O884 Co858 2.155 . S
O884 C886 1.240 . S
O885 Co858 2.096 . S
O885 C866 1.247 . S
C886 O883 1.244 . S
C886 O884 1.240 . S
H887 C861 0.931 . S
H888 C870 0.931 . S
H889 C874 0.929 . S
H890 C876 0.930 . S
Co891 N895 2.148 . S
Co891 N901 2.128 . S
Co891 N911 2.194 . S
Co891 O916 2.351 . S
Co891 O917 2.155 . S
Co891 O918 2.096 1_455 S
C892 N895 1.301 . S
C892 N896 1.328 . S
C892 H897 0.930 . S
C893 C894 1.333 . S
C893 N895 1.317 . S
C893 H898 0.930 1_455 S
C894 C893 1.333 . S
C894 N896 1.350 . S
C894 H920 0.931 . S
N895 Co891 2.148 . S
N895 C892 1.301 . S
N895 C893 1.317 . S
N896 C892 1.328 . S
N896 C894 1.350 . S
H897 C892 0.930 . S
H898 C893 0.930 1_655 S
C899 O900 1.224 . S
C899 O918 1.247 . S
O900 C899 1.224 . S
N901 Co891 2.128 . S
N901 C902 1.355 . S
N901 C904 1.311 1_455 S
C902 N901 1.355 . S
C902 C903 1.363 . S
C902 H914 0.929 . S
C903 C902 1.363 . S
C903 N905 1.375 1_455 S
C903 H921 0.931 . S
C904 N901 1.311 1_655 S
C904 N905 1.347 . S
C904 H915 0.929 . S
N905 C903 1.375 1_655 S
N905 C904 1.347 . S
C906 C909 1.365 . S
C906 N911 1.328 . S
C906 H912 0.929 . S
C907 C908 1.362 1_655 S
C907 C910 1.378 . S
C907 H922 0.929 . S
C908 C907 1.362 1_455 S
C908 C909 1.366 . S
C909 C906 1.365 . S
C909 C908 1.366 . S
C909 H923 0.930 . S
C910 C907 1.378 . S
C910 N911 1.315 1_655 S
C910 H913 0.930 . S
N911 Co891 2.194 . S
N911 C906 1.328 . S
N911 C910 1.315 1_455 S
H912 C906 0.929 . S
H913 C910 0.930 . S
H914 C902 0.929 . S
H915 C904 0.929 . S
O916 Co891 2.351 . S
O916 C919 1.244 . S
O917 Co891 2.155 . S
O917 C919 1.240 . S
O918 Co891 2.096 1_655 S
O918 C899 1.247 . S
C919 O916 1.244 . S
C919 O917 1.240 . S
H920 C894 0.931 . S
H921 C903 0.931 . S
H922 C907 0.929 . S
H923 C909 0.930 . S
Co924 N928 2.148 . S
Co924 N934 2.128 . S
Co924 N944 2.194 . S
Co924 O949 2.351 . S
Co924 O950 2.155 . S
Co924 O951 2.096 . S
C925 N928 1.301 . S
C925 N929 1.328 . S
C925 H930 0.930 . S
C926 C927 1.333 . S
C926 N928 1.317 . S
C926 H931 0.930 . S
C927 C926 1.333 . S
C927 N929 1.350 . S
C927 H953 0.931 . S
N928 Co924 2.148 . S
N928 C925 1.301 . S
N928 C926 1.317 . S
N929 C925 1.328 . S
N929 C927 1.350 . S
H930 C925 0.930 . S
H931 C926 0.930 . S
C932 O933 1.224 . S
C932 O951 1.247 . S
O933 C932 1.224 . S
N934 Co924 2.128 . S
N934 C935 1.355 . S
N934 C937 1.311 . S
C935 N934 1.355 . S
C935 C936 1.363 . S
C935 H947 0.929 . S
C936 C935 1.363 . S
C936 N938 1.375 . S
C936 H954 0.931 . S
C937 N934 1.311 . S
C937 N938 1.347 . S
C937 H948 0.929 . S
N938 C936 1.375 . S
N938 C937 1.347 . S
C939 C942 1.365 . S
C939 N944 1.328 . S
C939 H945 0.929 . S
C940 C941 1.362 . S
C940 C943 1.378 . S
C940 H955 0.929 . S
C941 C940 1.362 . S
C941 C942 1.366 . S
C942 C939 1.365 . S
C942 C941 1.366 . S
C942 H956 0.930 . S
C943 C940 1.378 . S
C943 N944 1.315 . S
C943 H946 0.930 . S
N944 Co924 2.194 . S
N944 C939 1.328 . S
N944 C943 1.315 . S
H945 C939 0.929 . S
H946 C943 0.930 . S
H947 C935 0.929 . S
H948 C937 0.929 . S
O949 Co924 2.351 . S
O949 C952 1.244 . S
O950 Co924 2.155 . S
O950 C952 1.240 . S
O951 Co924 2.096 . S
O951 C932 1.247 . S
C952 O949 1.244 . S
C952 O950 1.240 . S
H953 C927 0.931 . S
H954 C936 0.931 . S
H955 C940 0.929 . S
H956 C942 0.930 . S
Co957 N961 2.148 . S
Co957 N967 2.128 . S
Co957 N977 2.194 . S
Co957 O982 2.351 . S
Co957 O983 2.155 . S
Co957 O984 2.096 1_455 S
C958 N961 1.301 . S
C958 N962 1.328 . S
C958 H963 0.930 . S
C959 C960 1.333 . S
C959 N961 1.317 . S
C959 H964 0.930 1_455 S
C960 C959 1.333 . S
C960 N962 1.350 . S
C960 H986 0.931 . S
N961 Co957 2.148 . S
N961 C958 1.301 . S
N961 C959 1.317 . S
N962 C958 1.328 . S
N962 C960 1.350 . S
H963 C958 0.930 . S
H964 C959 0.930 1_655 S
C965 O966 1.224 . S
C965 O984 1.247 . S
O966 C965 1.224 . S
N967 Co957 2.128 . S
N967 C968 1.355 . S
N967 C970 1.311 1_455 S
C968 N967 1.355 . S
C968 C969 1.363 . S
C968 H980 0.929 . S
C969 C968 1.363 . S
C969 N971 1.375 1_455 S
C969 H987 0.931 . S
C970 N967 1.311 1_655 S
C970 N971 1.347 . S
C970 H981 0.929 . S
N971 C969 1.375 1_655 S
N971 C970 1.347 . S
C972 C975 1.365 . S
C972 N977 1.328 . S
C972 H978 0.929 . S
C973 C974 1.362 1_655 S
C973 C976 1.378 . S
C973 H988 0.929 . S
C974 C973 1.362 1_455 S
C974 C975 1.366 . S
C975 C972 1.365 . S
C975 C974 1.366 . S
C975 H989 0.930 . S
C976 C973 1.378 . S
C976 N977 1.315 1_655 S
C976 H979 0.930 . S
N977 Co957 2.194 . S
N977 C972 1.328 . S
N977 C976 1.315 1_455 S
H978 C972 0.929 . S
H979 C976 0.930 . S
H980 C968 0.929 . S
H981 C970 0.929 . S
O982 Co957 2.351 . S
O982 C985 1.244 . S
O983 Co957 2.155 . S
O983 C985 1.240 . S
O984 Co957 2.096 1_655 S
O984 C965 1.247 . S
C985 O982 1.244 . S
C985 O983 1.240 . S
H986 C960 0.931 . S
H987 C969 0.931 . S
H988 C973 0.929 . S
H989 C975 0.930 . S
Co990 N994 2.148 . S
Co990 N1000 2.128 . S
Co990 N1010 2.194 . S
Co990 O1015 2.351 . S
Co990 O1016 2.155 . S
Co990 O1017 2.096 . S
C991 N994 1.301 . S
C991 N995 1.328 . S
C991 H996 0.930 . S
C992 C993 1.333 . S
C992 N994 1.317 . S
C992 H997 0.930 . S
C993 C992 1.333 . S
C993 N995 1.350 . S
C993 H1019 0.931 . S
N994 Co990 2.148 . S
N994 C991 1.301 . S
N994 C992 1.317 . S
N995 C991 1.328 . S
N995 C993 1.350 . S
H996 C991 0.930 . S
H997 C992 0.930 . S
C998 O999 1.224 . S
C998 O1017 1.247 . S
O999 C998 1.224 . S
N1000 Co990 2.128 . S
N1000 C1001 1.355 . S
N1000 C1003 1.311 . S
C1001 N1000 1.355 . S
C1001 C1002 1.363 . S
C1001 H1013 0.929 . S
C1002 C1001 1.363 . S
C1002 N1004 1.375 . S
C1002 H1020 0.931 . S
C1003 N1000 1.311 . S
C1003 N1004 1.347 . S
C1003 H1014 0.929 . S
N1004 C1002 1.375 . S
N1004 C1003 1.347 . S
C1005 C1008 1.365 . S
C1005 N1010 1.328 . S
C1005 H1011 0.929 . S
C1006 C1007 1.362 . S
C1006 C1009 1.378 . S
C1006 H1021 0.929 . S
C1007 C1006 1.362 . S
C1007 C1008 1.366 . S
C1008 C1005 1.365 . S
C1008 C1007 1.366 . S
C1008 H1022 0.930 . S
C1009 C1006 1.378 . S
C1009 N1010 1.315 . S
C1009 H1012 0.930 . S
N1010 Co990 2.194 . S
N1010 C1005 1.328 . S
N1010 C1009 1.315 . S
H1011 C1005 0.929 . S
H1012 C1009 0.930 . S
H1013 C1001 0.929 . S
H1014 C1003 0.929 . S
O1015 Co990 2.351 . S
O1015 C1018 1.244 . S
O1016 Co990 2.155 . S
O1016 C1018 1.240 . S
O1017 Co990 2.096 . S
O1017 C998 1.247 . S
C1018 O1015 1.244 . S
C1018 O1016 1.240 . S
H1019 C993 0.931 . S
H1020 C1002 0.931 . S
H1021 C1006 0.929 . S
H1022 C1008 0.930 . S
Co1023 N1027 2.148 . S
Co1023 N1033 2.128 . S
Co1023 N1043 2.194 . S
Co1023 O1048 2.351 . S
Co1023 O1049 2.155 . S
Co1023 O1050 2.096 . S
C1024 N1027 1.301 . S
C1024 N1028 1.328 . S
C1024 H1029 0.930 . S
C1025 C1026 1.333 . S
C1025 N1027 1.317 . S
C1025 H1030 0.930 . S
C1026 C1025 1.333 . S
C1026 N1028 1.350 . S
C1026 H1052 0.931 . S
N1027 Co1023 2.148 . S
N1027 C1024 1.301 . S
N1027 C1025 1.317 . S
N1028 C1024 1.328 . S
N1028 C1026 1.350 . S
H1029 C1024 0.930 . S
H1030 C1025 0.930 . S
C1031 O1032 1.224 . S
C1031 O1050 1.247 . S
O1032 C1031 1.224 . S
N1033 Co1023 2.128 . S
N1033 C1034 1.355 . S
N1033 C1036 1.311 . S
C1034 N1033 1.355 . S
C1034 C1035 1.363 . S
C1034 H1046 0.929 . S
C1035 C1034 1.363 . S
C1035 N1037 1.375 . S
C1035 H1053 0.931 . S
C1036 N1033 1.311 . S
C1036 N1037 1.347 . S
C1036 H1047 0.929 . S
N1037 C1035 1.375 . S
N1037 C1036 1.347 . S
C1038 C1041 1.365 . S
C1038 N1043 1.328 . S
C1038 H1044 0.929 . S
C1039 C1040 1.362 . S
C1039 C1042 1.378 . S
C1039 H1054 0.929 . S
C1040 C1039 1.362 . S
C1040 C1041 1.366 . S
C1041 C1038 1.365 . S
C1041 C1040 1.366 . S
C1041 H1055 0.930 . S
C1042 C1039 1.378 . S
C1042 N1043 1.315 . S
C1042 H1045 0.930 . S
N1043 Co1023 2.194 . S
N1043 C1038 1.328 . S
N1043 C1042 1.315 . S
H1044 C1038 0.929 . S
H1045 C1042 0.930 . S
H1046 C1034 0.929 . S
H1047 C1036 0.929 . S
O1048 Co1023 2.351 . S
O1048 C1051 1.244 . S
O1049 Co1023 2.155 . S
O1049 C1051 1.240 . S
O1050 Co1023 2.096 . S
O1050 C1031 1.247 . S
C1051 O1048 1.244 . S
C1051 O1049 1.240 . S
H1052 C1026 0.931 . S
H1053 C1035 0.931 . S
H1054 C1039 0.929 . S
H1055 C1041 0.930 . S
C1056 C1057 1.363 . S
C1056 C1062 1.379 . S
C1056 N1064 1.356 . S
C1057 C1056 1.363 . S
C1057 C1063 1.363 . S
C1058 C1059 1.363 . S
C1058 C1063 1.379 . S
C1058 N1065 1.356 . S
C1059 C1058 1.363 . S
C1059 C1062 1.363 . S
N1060 C1062 1.356 . S
N1060 H1072 0.984 . S
N1060 H1073 0.985 . S
N1061 C1063 1.356 . S
N1061 H1066 0.984 . S
N1061 H1067 0.985 . S
C1062 C1056 1.379 . S
C1062 C1059 1.363 . S
C1062 N1060 1.356 . S
C1063 C1057 1.363 . S
C1063 C1058 1.379 . S
C1063 N1061 1.356 . S
N1064 C1056 1.356 . S
N1064 H1070 0.984 . S
N1064 H1071 0.984 . S
N1065 C1058 1.356 . S
N1065 H1068 0.984 . S
N1065 H1069 0.985 . S
H1066 N1061 0.984 . S
H1067 N1061 0.985 . S
H1068 N1065 0.984 . S
H1069 N1065 0.985 . S
H1070 N1064 0.984 . S
H1071 N1064 0.984 . S
H1072 N1060 0.984 . S
H1073 N1060 0.985 . S
C1074 C1075 1.363 1_455 S
C1074 C1080 1.379 . S
C1074 N1082 1.356 . S
C1075 C1074 1.363 1_655 S
C1075 C1081 1.363 . S
C1076 C1077 1.363 1_655 S
C1076 C1081 1.379 . S
C1076 N1083 1.356 . S
C1077 C1076 1.363 1_455 S
C1077 C1080 1.363 . S
N1078 C1080 1.356 . S
N1078 H1090 0.984 . S
N1078 H1091 0.985 . S
N1079 C1081 1.356 . S
N1079 H1084 0.984 . S
N1079 H1085 0.985 . S
C1080 C1074 1.379 . S
C1080 C1077 1.363 . S
C1080 N1078 1.356 . S
C1081 C1075 1.363 . S
C1081 C1076 1.379 . S
C1081 N1079 1.356 . S
N1082 C1074 1.356 . S
N1082 H1088 0.984 . S
N1082 H1089 0.984 1_455 S
N1083 C1076 1.356 . S
N1083 H1086 0.984 1_655 S
N1083 H1087 0.985 . S
H1084 N1079 0.984 . S
H1085 N1079 0.985 . S
H1086 N1083 0.984 1_455 S
H1087 N1083 0.985 . S
H1088 N1082 0.984 . S
H1089 N1082 0.984 1_655 S
H1090 N1078 0.984 . S
H1091 N1078 0.985 . S
C1092 C1093 1.363 . S
C1092 C1098 1.379 1_455 S
C1092 N1100 1.356 . S
C1093 C1092 1.363 . S
C1093 C1099 1.363 . S
C1094 C1095 1.363 . S
C1094 C1099 1.379 1_655 S
C1094 N1101 1.356 . S
C1095 C1094 1.363 . S
C1095 C1098 1.363 . S
N1096 C1098 1.356 . S
N1096 H1108 0.984 . S
N1096 H1109 0.985 . S
N1097 C1099 1.356 . S
N1097 H1102 0.984 . S
N1097 H1103 0.985 . S
C1098 C1092 1.379 1_655 S
C1098 C1095 1.363 . S
C1098 N1096 1.356 . S
C1099 C1093 1.363 . S
C1099 C1094 1.379 1_455 S
C1099 N1097 1.356 . S
N1100 C1092 1.356 . S
N1100 H1106 0.984 . S
N1100 H1107 0.984 . S
N1101 C1094 1.356 . S
N1101 H1104 0.984 . S
N1101 H1105 0.985 . S
H1102 N1097 0.984 . S
H1103 N1097 0.985 . S
H1104 N1101 0.984 . S
H1105 N1101 0.985 . S
H1106 N1100 0.984 . S
H1107 N1100 0.984 . S
H1108 N1096 0.984 . S
H1109 N1096 0.985 . S
C1110 C1111 1.363 . S
C1110 C1116 1.379 . S
C1110 N1118 1.356 . S
C1111 C1110 1.363 . S
C1111 C1117 1.363 . S
C1112 C1113 1.363 . S
C1112 C1117 1.379 . S
C1112 N1119 1.356 . S
C1113 C1112 1.363 . S
C1113 C1116 1.363 . S
N1114 C1116 1.356 . S
N1114 H1126 0.984 . S
N1114 H1127 0.985 . S
N1115 C1117 1.356 . S
N1115 H1120 0.984 . S
N1115 H1121 0.985 . S
C1116 C1110 1.379 . S
C1116 C1113 1.363 . S
C1116 N1114 1.356 . S
C1117 C1111 1.363 . S
C1117 C1112 1.379 . S
C1117 N1115 1.356 . S
N1118 C1110 1.356 . S
N1118 H1124 0.984 . S
N1118 H1125 0.984 . S
N1119 C1112 1.356 . S
N1119 H1122 0.984 . S
N1119 H1123 0.985 . S
H1120 N1115 0.984 . S
H1121 N1115 0.985 . S
H1122 N1119 0.984 . S
H1123 N1119 0.985 . S
H1124 N1118 0.984 . S
H1125 N1118 0.984 . S
H1126 N1114 0.984 . S
H1127 N1114 0.985 . S
C1128 C1129 1.363 . S
C1128 C1134 1.379 . S
C1128 N1136 1.356 . S
C1129 C1128 1.363 . S
C1129 C1135 1.363 . S
C1130 C1131 1.363 . S
C1130 C1135 1.379 . S
C1130 N1137 1.356 . S
C1131 C1130 1.363 . S
C1131 C1134 1.363 . S
N1132 C1134 1.356 . S
N1132 H1144 0.984 . S
N1132 H1145 0.985 . S
N1133 C1135 1.356 . S
N1133 H1138 0.984 . S
N1133 H1139 0.985 . S
C1134 C1128 1.379 . S
C1134 C1131 1.363 . S
C1134 N1132 1.356 . S
C1135 C1129 1.363 . S
C1135 C1130 1.379 . S
C1135 N1133 1.356 . S
N1136 C1128 1.356 . S
N1136 H1142 0.984 . S
N1136 H1143 0.984 . S
N1137 C1130 1.356 . S
N1137 H1140 0.984 . S
N1137 H1141 0.985 . S
H1138 N1133 0.984 . S
H1139 N1133 0.985 . S
H1140 N1137 0.984 . S
H1141 N1137 0.985 . S
H1142 N1136 0.984 . S
H1143 N1136 0.984 . S
H1144 N1132 0.984 . S
H1145 N1132 0.985 . S
C1146 C1147 1.363 . S
C1146 C1152 1.379 . S
C1146 N1154 1.356 . S
C1147 C1146 1.363 . S
C1147 C1153 1.363 . S
C1148 C1149 1.363 . S
C1148 C1153 1.379 . S
C1148 N1155 1.356 . S
C1149 C1148 1.363 . S
C1149 C1152 1.363 . S
N1150 C1152 1.356 . S
N1150 H1162 0.984 . S
N1150 H1163 0.985 . S
N1151 C1153 1.356 . S
N1151 H1156 0.984 . S
N1151 H1157 0.985 . S
C1152 C1146 1.379 . S
C1152 C1149 1.363 . S
C1152 N1150 1.356 . S
C1153 C1147 1.363 . S
C1153 C1148 1.379 . S
C1153 N1151 1.356 . S
N1154 C1146 1.356 . S
N1154 H1160 0.984 . S
N1154 H1161 0.984 . S
N1155 C1148 1.356 . S
N1155 H1158 0.984 . S
N1155 H1159 0.985 . S
H1156 N1151 0.984 . S
H1157 N1151 0.985 . S
H1158 N1155 0.984 . S
H1159 N1155 0.985 . S
H1160 N1154 0.984 . S
H1161 N1154 0.984 . S
H1162 N1150 0.984 . S
H1163 N1150 0.985 . S
C1164 C1165 1.363 . S
C1164 C1170 1.379 1_455 S
C1164 N1172 1.356 . S
C1165 C1164 1.363 . S
C1165 C1171 1.363 . S
C1166 C1167 1.363 . S
C1166 C1171 1.379 1_655 S
C1166 N1173 1.356 . S
C1167 C1166 1.363 . S
C1167 C1170 1.363 . S
N1168 C1170 1.356 . S
N1168 H1180 0.984 . S
N1168 H1181 0.985 . S
N1169 C1171 1.356 . S
N1169 H1174 0.984 . S
N1169 H1175 0.985 . S
C1170 C1164 1.379 1_655 S
C1170 C1167 1.363 . S
C1170 N1168 1.356 . S
C1171 C1165 1.363 . S
C1171 C1166 1.379 1_455 S
C1171 N1169 1.356 . S
N1172 C1164 1.356 . S
N1172 H1178 0.984 . S
N1172 H1179 0.984 . S
N1173 C1166 1.356 . S
N1173 H1176 0.984 . S
N1173 H1177 0.985 . S
H1174 N1169 0.984 . S
H1175 N1169 0.985 . S
H1176 N1173 0.984 . S
H1177 N1173 0.985 . S
H1178 N1172 0.984 . S
H1179 N1172 0.984 . S
H1180 N1168 0.984 . S
H1181 N1168 0.985 . S
C1182 C1183 1.363 1_455 S
C1182 C1188 1.379 . S
C1182 N1190 1.356 . S
C1183 C1182 1.363 1_655 S
C1183 C1189 1.363 . S
C1184 C1185 1.363 1_655 S
C1184 C1189 1.379 . S
C1184 N1191 1.356 . S
C1185 C1184 1.363 1_455 S
C1185 C1188 1.363 . S
N1186 C1188 1.356 . S
N1186 H1198 0.984 . S
N1186 H1199 0.985 . S
N1187 C1189 1.356 . S
N1187 H1192 0.984 . S
N1187 H1193 0.985 . S
C1188 C1182 1.379 . S
C1188 C1185 1.363 . S
C1188 N1186 1.356 . S
C1189 C1183 1.363 . S
C1189 C1184 1.379 . S
C1189 N1187 1.356 . S
N1190 C1182 1.356 . S
N1190 H1196 0.984 . S
N1190 H1197 0.984 1_455 S
N1191 C1184 1.356 . S
N1191 H1194 0.984 1_655 S
N1191 H1195 0.985 . S
H1192 N1187 0.984 . S
H1193 N1187 0.985 . S
H1194 N1191 0.984 1_455 S
H1195 N1191 0.985 . S
H1196 N1190 0.984 . S
H1197 N1190 0.984 1_655 S
H1198 N1186 0.984 . S
H1199 N1186 0.985 . S
C1200 C1201 1.363 . S
C1200 C1206 1.379 . S
C1200 N1208 1.356 . S
C1201 C1200 1.363 . S
C1201 C1207 1.363 . S
C1202 C1203 1.363 . S
C1202 C1207 1.379 . S
C1202 N1209 1.356 . S
C1203 C1202 1.363 . S
C1203 C1206 1.363 . S
N1204 C1206 1.356 . S
N1204 H1216 0.984 . S
N1204 H1217 0.985 . S
N1205 C1207 1.356 . S
N1205 H1210 0.984 . S
N1205 H1211 0.985 . S
C1206 C1200 1.379 . S
C1206 C1203 1.363 . S
C1206 N1204 1.356 . S
C1207 C1201 1.363 . S
C1207 C1202 1.379 . S
C1207 N1205 1.356 . S
N1208 C1200 1.356 . S
N1208 H1214 0.984 . S
N1208 H1215 0.984 . S
N1209 C1202 1.356 . S
N1209 H1212 0.984 . S
N1209 H1213 0.985 . S
H1210 N1205 0.984 . S
H1211 N1205 0.985 . S
H1212 N1209 0.984 . S
H1213 N1209 0.985 . S
H1214 N1208 0.984 . S
H1215 N1208 0.984 . S
H1216 N1204 0.984 . S
H1217 N1204 0.985 . S
C1218 C1219 1.363 1_455 S
C1218 C1224 1.379 . S
C1218 N1226 1.356 . S
C1219 C1218 1.363 1_655 S
C1219 C1225 1.363 . S
C1220 C1221 1.363 1_655 S
C1220 C1225 1.379 . S
C1220 N1227 1.356 . S
C1221 C1220 1.363 1_455 S
C1221 C1224 1.363 . S
N1222 C1224 1.356 . S
N1222 H1234 0.984 . S
N1222 H1235 0.985 . S
N1223 C1225 1.356 . S
N1223 H1228 0.984 . S
N1223 H1229 0.985 . S
C1224 C1218 1.379 . S
C1224 C1221 1.363 . S
C1224 N1222 1.356 . S
C1225 C1219 1.363 . S
C1225 C1220 1.379 . S
C1225 N1223 1.356 . S
N1226 C1218 1.356 . S
N1226 H1232 0.984 . S
N1226 H1233 0.984 1_455 S
N1227 C1220 1.356 . S
N1227 H1230 0.984 1_655 S
N1227 H1231 0.985 . S
H1228 N1223 0.984 . S
H1229 N1223 0.985 . S
H1230 N1227 0.984 1_455 S
H1231 N1227 0.985 . S
H1232 N1226 0.984 . S
H1233 N1226 0.984 1_655 S
H1234 N1222 0.984 . S
H1235 N1222 0.985 . S
C1236 C1237 1.363 . S
C1236 C1242 1.379 1_655 S
C1236 N1244 1.356 . S
C1237 C1236 1.363 . S
C1237 C1243 1.363 . S
C1238 C1239 1.363 . S
C1238 C1243 1.379 1_455 S
C1238 N1245 1.356 . S
C1239 C1238 1.363 . S
C1239 C1242 1.363 . S
N1240 C1242 1.356 . S
N1240 H1252 0.984 . S
N1240 H1253 0.985 . S
N1241 C1243 1.356 . S
N1241 H1246 0.984 . S
N1241 H1247 0.985 . S
C1242 C1236 1.379 1_455 S
C1242 C1239 1.363 . S
C1242 N1240 1.356 . S
C1243 C1237 1.363 . S
C1243 C1238 1.379 1_655 S
C1243 N1241 1.356 . S
N1244 C1236 1.356 . S
N1244 H1250 0.984 . S
N1244 H1251 0.984 . S
N1245 C1238 1.356 . S
N1245 H1248 0.984 . S
N1245 H1249 0.985 . S
H1246 N1241 0.984 . S
H1247 N1241 0.985 . S
H1248 N1245 0.984 . S
H1249 N1245 0.985 . S
H1250 N1244 0.984 . S
H1251 N1244 0.984 . S
H1252 N1240 0.984 . S
H1253 N1240 0.985 . S
C1254 C1255 1.363 . S
C1254 C1260 1.379 . S
C1254 N1262 1.356 . S
C1255 C1254 1.363 . S
C1255 C1261 1.363 . S
C1256 C1257 1.363 . S
C1256 C1261 1.379 . S
C1256 N1263 1.356 . S
C1257 C1256 1.363 . S
C1257 C1260 1.363 . S
N1258 C1260 1.356 . S
N1258 H1270 0.984 . S
N1258 H1271 0.985 . S
N1259 C1261 1.356 . S
N1259 H1264 0.984 . S
N1259 H1265 0.985 . S
C1260 C1254 1.379 . S
C1260 C1257 1.363 . S
C1260 N1258 1.356 . S
C1261 C1255 1.363 . S
C1261 C1256 1.379 . S
C1261 N1259 1.356 . S
N1262 C1254 1.356 . S
N1262 H1268 0.984 . S
N1262 H1269 0.984 . S
N1263 C1256 1.356 . S
N1263 H1266 0.984 . S
N1263 H1267 0.985 . S
H1264 N1259 0.984 . S
H1265 N1259 0.985 . S
H1266 N1263 0.984 . S
H1267 N1263 0.985 . S
H1268 N1262 0.984 . S
H1269 N1262 0.984 . S
H1270 N1258 0.984 . S
H1271 N1258 0.985 . S
C1272 C1273 1.363 . S
C1272 C1278 1.379 . S
C1272 N1280 1.356 . S
C1273 C1272 1.363 . S
C1273 C1279 1.363 . S
C1274 C1275 1.363 . S
C1274 C1279 1.379 . S
C1274 N1281 1.356 . S
C1275 C1274 1.363 . S
C1275 C1278 1.363 . S
N1276 C1278 1.356 . S
N1276 H1288 0.984 . S
N1276 H1289 0.985 . S
N1277 C1279 1.356 . S
N1277 H1282 0.984 . S
N1277 H1283 0.985 . S
C1278 C1272 1.379 . S
C1278 C1275 1.363 . S
C1278 N1276 1.356 . S
C1279 C1273 1.363 . S
C1279 C1274 1.379 . S
C1279 N1277 1.356 . S
N1280 C1272 1.356 . S
N1280 H1286 0.984 . S
N1280 H1287 0.984 . S
N1281 C1274 1.356 . S
N1281 H1284 0.984 . S
N1281 H1285 0.985 . S
H1282 N1277 0.984 . S
H1283 N1277 0.985 . S
H1284 N1281 0.984 . S
H1285 N1281 0.985 . S
H1286 N1280 0.984 . S
H1287 N1280 0.984 . S
H1288 N1276 0.984 . S
H1289 N1276 0.985 . S
C1290 C1291 1.363 . S
C1290 C1296 1.379 . S
C1290 N1298 1.356 . S
C1291 C1290 1.363 . S
C1291 C1297 1.363 . S
C1292 C1293 1.363 . S
C1292 C1297 1.379 . S
C1292 N1299 1.356 . S
C1293 C1292 1.363 . S
C1293 C1296 1.363 . S
N1294 C1296 1.356 . S
N1294 H1306 0.984 . S
N1294 H1307 0.985 . S
N1295 C1297 1.356 . S
N1295 H1300 0.984 . S
N1295 H1301 0.985 . S
C1296 C1290 1.379 . S
C1296 C1293 1.363 . S
C1296 N1294 1.356 . S
C1297 C1291 1.363 . S
C1297 C1292 1.379 . S
C1297 N1295 1.356 . S
N1298 C1290 1.356 . S
N1298 H1304 0.984 . S
N1298 H1305 0.984 . S
N1299 C1292 1.356 . S
N1299 H1302 0.984 . S
N1299 H1303 0.985 . S
H1300 N1295 0.984 . S
H1301 N1295 0.985 . S
H1302 N1299 0.984 . S
H1303 N1299 0.985 . S
H1304 N1298 0.984 . S
H1305 N1298 0.984 . S
H1306 N1294 0.984 . S
H1307 N1294 0.985 . S
C1308 C1309 1.363 . S
C1308 C1314 1.379 1_455 S
C1308 N1316 1.356 . S
C1309 C1308 1.363 . S
C1309 C1315 1.363 . S
C1310 C1311 1.363 . S
C1310 C1315 1.379 1_655 S
C1310 N1317 1.356 . S
C1311 C1310 1.363 . S
C1311 C1314 1.363 . S
N1312 C1314 1.356 . S
N1312 H1324 0.984 . S
N1312 H1325 0.985 . S
N1313 C1315 1.356 . S
N1313 H1318 0.984 . S
N1313 H1319 0.985 . S
C1314 C1308 1.379 1_655 S
C1314 C1311 1.363 . S
C1314 N1312 1.356 . S
C1315 C1309 1.363 . S
C1315 C1310 1.379 1_455 S
C1315 N1313 1.356 . S
N1316 C1308 1.356 . S
N1316 H1322 0.984 . S
N1316 H1323 0.984 . S
N1317 C1310 1.356 . S
N1317 H1320 0.984 . S
N1317 H1321 0.985 . S
H1318 N1313 0.984 . S
H1319 N1313 0.985 . S
H1320 N1317 0.984 . S
H1321 N1317 0.985 . S
H1322 N1316 0.984 . S
H1323 N1316 0.984 . S
H1324 N1312 0.984 . S
H1325 N1312 0.985 . S
C1326 C1327 1.363 1_455 S
C1326 C1332 1.379 . S
C1326 N1334 1.356 . S
C1327 C1326 1.363 1_655 S
C1327 C1333 1.363 . S
C1328 C1329 1.363 1_655 S
C1328 C1333 1.379 . S
C1328 N1335 1.356 . S
C1329 C1328 1.363 1_455 S
C1329 C1332 1.363 . S
N1330 C1332 1.356 . S
N1330 H1342 0.984 . S
N1330 H1343 0.985 . S
N1331 C1333 1.356 . S
N1331 H1336 0.984 . S
N1331 H1337 0.985 . S
C1332 C1326 1.379 . S
C1332 C1329 1.363 . S
C1332 N1330 1.356 . S
C1333 C1327 1.363 . S
C1333 C1328 1.379 . S
C1333 N1331 1.356 . S
N1334 C1326 1.356 . S
N1334 H1340 0.984 . S
N1334 H1341 0.984 1_455 S
N1335 C1328 1.356 . S
N1335 H1338 0.984 1_655 S
N1335 H1339 0.985 . S
H1336 N1331 0.984 . S
H1337 N1331 0.985 . S
H1338 N1335 0.984 1_455 S
H1339 N1335 0.985 . S
H1340 N1334 0.984 . S
H1341 N1334 0.984 1_655 S
H1342 N1330 0.984 . S
H1343 N1330 0.985 . S
C1344 C1345 1.363 . S
C1344 C1350 1.379 . S
C1344 N1352 1.356 . S
C1345 C1344 1.363 . S
C1345 C1351 1.363 . S
C1346 C1347 1.363 . S
C1346 C1351 1.379 . S
C1346 N1353 1.356 . S
C1347 C1346 1.363 . S
C1347 C1350 1.363 . S
N1348 C1350 1.356 . S
N1348 H1360 0.984 . S
N1348 H1361 0.985 . S
N1349 C1351 1.356 . S
N1349 H1354 0.984 . S
N1349 H1355 0.985 1_545 S
C1350 C1344 1.379 . S
C1350 C1347 1.363 . S
C1350 N1348 1.356 . S
C1351 C1345 1.363 . S
C1351 C1346 1.379 . S
C1351 N1349 1.356 . S
N1352 C1344 1.356 . S
N1352 H1358 0.984 . S
N1352 H1359 0.984 . S
N1353 C1346 1.356 . S
N1353 H1356 0.984 . S
N1353 H1357 0.985 . S
H1354 N1349 0.984 . S
H1355 N1349 0.985 1_565 S
H1356 N1353 0.984 . S
H1357 N1353 0.985 . S
H1358 N1352 0.984 . S
H1359 N1352 0.984 . S
H1360 N1348 0.984 . S
H1361 N1348 0.985 . S
C1362 C1363 1.363 . S
C1362 C1368 1.379 . S
C1362 N1370 1.356 . S
C1363 C1362 1.363 . S
C1363 C1369 1.363 . S
C1364 C1365 1.363 . S
C1364 C1369 1.379 . S
C1364 N1371 1.356 . S
C1365 C1364 1.363 . S
C1365 C1368 1.363 . S
N1366 C1368 1.356 . S
N1366 H1378 0.984 . S
N1366 H1379 0.985 . S
N1367 C1369 1.356 . S
N1367 H1372 0.984 . S
N1367 H1373 0.985 . S
C1368 C1362 1.379 . S
C1368 C1365 1.363 . S
C1368 N1366 1.356 . S
C1369 C1363 1.363 . S
C1369 C1364 1.379 . S
C1369 N1367 1.356 . S
N1370 C1362 1.356 . S
N1370 H1376 0.984 . S
N1370 H1377 0.984 . S
N1371 C1364 1.356 . S
N1371 H1374 0.984 . S
N1371 H1375 0.985 . S
H1372 N1367 0.984 . S
H1373 N1367 0.985 . S
H1374 N1371 0.984 . S
H1375 N1371 0.985 . S
H1376 N1370 0.984 . S
H1377 N1370 0.984 . S
H1378 N1366 0.984 . S
H1379 N1366 0.985 . S
C1380 C1381 1.363 . S
C1380 C1386 1.379 . S
C1380 N1388 1.356 . S
C1381 C1380 1.363 . S
C1381 C1387 1.363 . S
C1382 C1383 1.363 . S
C1382 C1387 1.379 . S
C1382 N1389 1.356 . S
C1383 C1382 1.363 . S
C1383 C1386 1.363 . S
N1384 C1386 1.356 . S
N1384 H1396 0.984 . S
N1384 H1397 0.985 . S
N1385 C1387 1.356 . S
N1385 H1390 0.984 . S
N1385 H1391 0.985 . S
C1386 C1380 1.379 . S
C1386 C1383 1.363 . S
C1386 N1384 1.356 . S
C1387 C1381 1.363 . S
C1387 C1382 1.379 . S
C1387 N1385 1.356 . S
N1388 C1380 1.356 . S
N1388 H1394 0.984 . S
N1388 H1395 0.984 . S
N1389 C1382 1.356 . S
N1389 H1392 0.984 . S
N1389 H1393 0.985 . S
H1390 N1385 0.984 . S
H1391 N1385 0.985 . S
H1392 N1389 0.984 . S
H1393 N1389 0.985 . S
H1394 N1388 0.984 . S
H1395 N1388 0.984 . S
H1396 N1384 0.984 . S
H1397 N1384 0.985 . S
C1398 C1399 1.363 . S
C1398 C1404 1.379 . S
C1398 N1406 1.356 . S
C1399 C1398 1.363 . S
C1399 C1405 1.363 . S
C1400 C1401 1.363 . S
C1400 C1405 1.379 . S
C1400 N1407 1.356 . S
C1401 C1400 1.363 . S
C1401 C1404 1.363 . S
N1402 C1404 1.356 . S
N1402 H1414 0.984 . S
N1402 H1415 0.985 . S
N1403 C1405 1.356 . S
N1403 H1408 0.984 . S
N1403 H1409 0.985 . S
C1404 C1398 1.379 . S
C1404 C1401 1.363 . S
C1404 N1402 1.356 . S
C1405 C1399 1.363 . S
C1405 C1400 1.379 . S
C1405 N1403 1.356 . S
N1406 C1398 1.356 . S
N1406 H1412 0.984 . S
N1406 H1413 0.984 . S
N1407 C1400 1.356 . S
N1407 H1410 0.984 . S
N1407 H1411 0.985 . S
H1408 N1403 0.984 . S
H1409 N1403 0.985 . S
H1410 N1407 0.984 . S
H1411 N1407 0.985 . S
H1412 N1406 0.984 . S
H1413 N1406 0.984 . S
H1414 N1402 0.984 . S
H1415 N1402 0.985 . S
C1416 C1417 1.363 . S
C1416 C1422 1.379 . S
C1416 N1424 1.356 . S
C1417 C1416 1.363 . S
C1417 C1423 1.363 . S
C1418 C1419 1.363 . S
C1418 C1423 1.379 . S
C1418 N1425 1.356 . S
C1419 C1418 1.363 . S
C1419 C1422 1.363 . S
N1420 C1422 1.356 . S
N1420 H1432 0.984 . S
N1420 H1433 0.985 . S
N1421 C1423 1.356 . S
N1421 H1426 0.984 . S
N1421 H1427 0.985 . S
C1422 C1416 1.379 . S
C1422 C1419 1.363 . S
C1422 N1420 1.356 . S
C1423 C1417 1.363 . S
C1423 C1418 1.379 . S
C1423 N1421 1.356 . S
N1424 C1416 1.356 . S
N1424 H1430 0.984 . S
N1424 H1431 0.984 . S
N1425 C1418 1.356 . S
N1425 H1428 0.984 . S
N1425 H1429 0.985 . S
H1426 N1421 0.984 . S
H1427 N1421 0.985 . S
H1428 N1425 0.984 . S
H1429 N1425 0.985 . S
H1430 N1424 0.984 . S
H1431 N1424 0.984 . S
H1432 N1420 0.984 . S
H1433 N1420 0.985 . S
C1434 C1435 1.363 . S
C1434 C1440 1.379 . S
C1434 N1442 1.356 . S
C1435 C1434 1.363 . S
C1435 C1441 1.363 . S
C1436 C1437 1.363 . S
C1436 C1441 1.379 . S
C1436 N1443 1.356 . S
C1437 C1436 1.363 . S
C1437 C1440 1.363 . S
N1438 C1440 1.356 . S
N1438 H1450 0.984 . S
N1438 H1451 0.985 . S
N1439 C1441 1.356 . S
N1439 H1444 0.984 . S
N1439 H1445 0.985 . S
C1440 C1434 1.379 . S
C1440 C1437 1.363 . S
C1440 N1438 1.356 . S
C1441 C1435 1.363 . S
C1441 C1436 1.379 . S
C1441 N1439 1.356 . S
N1442 C1434 1.356 . S
N1442 H1448 0.984 . S
N1442 H1449 0.984 . S
N1443 C1436 1.356 . S
N1443 H1446 0.984 . S
N1443 H1447 0.985 . S
H1444 N1439 0.984 . S
H1445 N1439 0.985 . S
H1446 N1443 0.984 . S
H1447 N1443 0.985 . S
H1448 N1442 0.984 . S
H1449 N1442 0.984 . S
H1450 N1438 0.984 . S
H1451 N1438 0.985 . S
C1452 C1453 1.363 . S
C1452 C1458 1.379 . S
C1452 N1460 1.356 . S
C1453 C1452 1.363 . S
C1453 C1459 1.363 . S
C1454 C1455 1.363 . S
C1454 C1459 1.379 . S
C1454 N1461 1.356 . S
C1455 C1454 1.363 . S
C1455 C1458 1.363 . S
N1456 C1458 1.356 . S
N1456 H1468 0.984 . S
N1456 H1469 0.985 . S
N1457 C1459 1.356 . S
N1457 H1462 0.984 . S
N1457 H1463 0.985 . S
C1458 C1452 1.379 . S
C1458 C1455 1.363 . S
C1458 N1456 1.356 . S
C1459 C1453 1.363 . S
C1459 C1454 1.379 . S
C1459 N1457 1.356 . S
N1460 C1452 1.356 . S
N1460 H1466 0.984 . S
N1460 H1467 0.984 . S
N1461 C1454 1.356 . S
N1461 H1464 0.984 . S
N1461 H1465 0.985 . S
H1462 N1457 0.984 . S
H1463 N1457 0.985 . S
H1464 N1461 0.984 . S
H1465 N1461 0.985 . S
H1466 N1460 0.984 . S
H1467 N1460 0.984 . S
H1468 N1456 0.984 . S
H1469 N1456 0.985 . S
C1470 C1471 1.363 . S
C1470 C1476 1.379 . S
C1470 N1478 1.356 . S
C1471 C1470 1.363 . S
C1471 C1477 1.363 . S
C1472 C1473 1.363 . S
C1472 C1477 1.379 . S
C1472 N1479 1.356 . S
C1473 C1472 1.363 . S
C1473 C1476 1.363 . S
N1474 C1476 1.356 . S
N1474 H1486 0.984 . S
N1474 H1487 0.985 . S
N1475 C1477 1.356 . S
N1475 H1480 0.984 . S
N1475 H1481 0.985 . S
C1476 C1470 1.379 . S
C1476 C1473 1.363 . S
C1476 N1474 1.356 . S
C1477 C1471 1.363 . S
C1477 C1472 1.379 . S
C1477 N1475 1.356 . S
N1478 C1470 1.356 . S
N1478 H1484 0.984 . S
N1478 H1485 0.984 . S
N1479 C1472 1.356 . S
N1479 H1482 0.984 . S
N1479 H1483 0.985 . S
H1480 N1475 0.984 . S
H1481 N1475 0.985 . S
H1482 N1479 0.984 . S
H1483 N1479 0.985 . S
H1484 N1478 0.984 . S
H1485 N1478 0.984 . S
H1486 N1474 0.984 . S
H1487 N1474 0.985 . S
C1488 C1489 1.363 . S
C1488 C1494 1.379 . S
C1488 N1496 1.356 . S
C1489 C1488 1.363 . S
C1489 C1495 1.363 . S
C1490 C1491 1.363 . S
C1490 C1495 1.379 . S
C1490 N1497 1.356 . S
C1491 C1490 1.363 . S
C1491 C1494 1.363 . S
N1492 C1494 1.356 . S
N1492 H1504 0.984 . S
N1492 H1505 0.985 . S
N1493 C1495 1.356 . S
N1493 H1498 0.984 . S
N1493 H1499 0.985 . S
C1494 C1488 1.379 . S
C1494 C1491 1.363 . S
C1494 N1492 1.356 . S
C1495 C1489 1.363 . S
C1495 C1490 1.379 . S
C1495 N1493 1.356 . S
N1496 C1488 1.356 . S
N1496 H1502 0.984 . S
N1496 H1503 0.984 . S
N1497 C1490 1.356 . S
N1497 H1500 0.984 . S
N1497 H1501 0.985 . S
H1498 N1493 0.984 . S
H1499 N1493 0.985 . S
H1500 N1497 0.984 . S
H1501 N1497 0.985 . S
H1502 N1496 0.984 . S
H1503 N1496 0.984 . S
H1504 N1492 0.984 . S
H1505 N1492 0.985 . S
C1506 C1507 1.363 . S
C1506 C1512 1.379 . S
C1506 N1514 1.356 . S
C1507 C1506 1.363 . S
C1507 C1513 1.363 . S
C1508 C1509 1.363 . S
C1508 C1513 1.379 . S
C1508 N1515 1.356 . S
C1509 C1508 1.363 . S
C1509 C1512 1.363 . S
N1510 C1512 1.356 . S
N1510 H1522 0.984 . S
N1510 H1523 0.985 . S
N1511 C1513 1.356 . S
N1511 H1516 0.984 . S
N1511 H1517 0.985 . S
C1512 C1506 1.379 . S
C1512 C1509 1.363 . S
C1512 N1510 1.356 . S
C1513 C1507 1.363 . S
C1513 C1508 1.379 . S
C1513 N1511 1.356 . S
N1514 C1506 1.356 . S
N1514 H1520 0.984 . S
N1514 H1521 0.984 . S
N1515 C1508 1.356 . S
N1515 H1518 0.984 . S
N1515 H1519 0.985 . S
H1516 N1511 0.984 . S
H1517 N1511 0.985 . S
H1518 N1515 0.984 . S
H1519 N1515 0.985 . S
H1520 N1514 0.984 . S
H1521 N1514 0.984 . S
H1522 N1510 0.984 . S
H1523 N1510 0.985 . S
C1524 C1525 1.363 . S
C1524 C1530 1.379 . S
C1524 N1532 1.356 . S
C1525 C1524 1.363 . S
C1525 C1531 1.363 . S
C1526 C1527 1.363 . S
C1526 C1531 1.379 . S
C1526 N1533 1.356 . S
C1527 C1526 1.363 . S
C1527 C1530 1.363 . S
N1528 C1530 1.356 . S
N1528 H1540 0.984 . S
N1528 H1541 0.985 . S
N1529 C1531 1.356 . S
N1529 H1534 0.984 . S
N1529 H1535 0.985 . S
C1530 C1524 1.379 . S
C1530 C1527 1.363 . S
C1530 N1528 1.356 . S
C1531 C1525 1.363 . S
C1531 C1526 1.379 . S
C1531 N1529 1.356 . S
N1532 C1524 1.356 . S
N1532 H1538 0.984 . S
N1532 H1539 0.984 . S
N1533 C1526 1.356 . S
N1533 H1536 0.984 . S
N1533 H1537 0.985 . S
H1534 N1529 0.984 . S
H1535 N1529 0.985 . S
H1536 N1533 0.984 . S
H1537 N1533 0.985 . S
H1538 N1532 0.984 . S
H1539 N1532 0.984 . S
H1540 N1528 0.984 . S
H1541 N1528 0.985 . S
C1542 C1543 1.363 . S
C1542 C1548 1.379 . S
C1542 N1550 1.356 . S
C1543 C1542 1.363 . S
C1543 C1549 1.363 . S
C1544 C1545 1.363 . S
C1544 C1549 1.379 . S
C1544 N1551 1.356 . S
C1545 C1544 1.363 . S
C1545 C1548 1.363 . S
N1546 C1548 1.356 . S
N1546 H1558 0.984 . S
N1546 H1559 0.985 . S
N1547 C1549 1.356 . S
N1547 H1552 0.984 . S
N1547 H1553 0.985 . S
C1548 C1542 1.379 . S
C1548 C1545 1.363 . S
C1548 N1546 1.356 . S
C1549 C1543 1.363 . S
C1549 C1544 1.379 . S
C1549 N1547 1.356 . S
N1550 C1542 1.356 . S
N1550 H1556 0.984 . S
N1550 H1557 0.984 . S
N1551 C1544 1.356 . S
N1551 H1554 0.984 . S
N1551 H1555 0.985 . S
H1552 N1547 0.984 . S
H1553 N1547 0.985 . S
H1554 N1551 0.984 . S
H1555 N1551 0.985 . S
H1556 N1550 0.984 . S
H1557 N1550 0.984 . S
H1558 N1546 0.984 . S
H1559 N1546 0.985 . S
C1560 C1561 1.363 . S
C1560 C1566 1.379 . S
C1560 N1568 1.356 . S
C1561 C1560 1.363 . S
C1561 C1567 1.363 . S
C1562 C1563 1.363 . S
C1562 C1567 1.379 . S
C1562 N1569 1.356 . S
C1563 C1562 1.363 . S
C1563 C1566 1.363 . S
N1564 C1566 1.356 . S
N1564 H1576 0.984 . S
N1564 H1577 0.985 . S
N1565 C1567 1.356 . S
N1565 H1570 0.984 . S
N1565 H1571 0.985 . S
C1566 C1560 1.379 . S
C1566 C1563 1.363 . S
C1566 N1564 1.356 . S
C1567 C1561 1.363 . S
C1567 C1562 1.379 . S
C1567 N1565 1.356 . S
N1568 C1560 1.356 . S
N1568 H1574 0.984 . S
N1568 H1575 0.984 . S
N1569 C1562 1.356 . S
N1569 H1572 0.984 . S
N1569 H1573 0.985 1_545 S
H1570 N1565 0.984 . S
H1571 N1565 0.985 . S
H1572 N1569 0.984 . S
H1573 N1569 0.985 1_565 S
H1574 N1568 0.984 . S
H1575 N1568 0.984 . S
H1576 N1564 0.984 . S
H1577 N1564 0.985 . S
C1578 C1579 1.363 . S
C1578 C1584 1.379 . S
C1578 N1586 1.356 . S
C1579 C1578 1.363 . S
C1579 C1585 1.363 . S
C1580 C1581 1.363 . S
C1580 C1585 1.379 . S
C1580 N1587 1.356 . S
C1581 C1580 1.363 . S
C1581 C1584 1.363 . S
N1582 C1584 1.356 . S
N1582 H1594 0.984 . S
N1582 H1595 0.985 . S
N1583 C1585 1.356 . S
N1583 H1588 0.984 . S
N1583 H1589 0.985 . S
C1584 C1578 1.379 . S
C1584 C1581 1.363 . S
C1584 N1582 1.356 . S
C1585 C1579 1.363 . S
C1585 C1580 1.379 . S
C1585 N1583 1.356 . S
N1586 C1578 1.356 . S
N1586 H1592 0.984 . S
N1586 H1593 0.984 . S
N1587 C1580 1.356 . S
N1587 H1590 0.984 . S
N1587 H1591 0.985 . S
H1588 N1583 0.984 . S
H1589 N1583 0.985 . S
H1590 N1587 0.984 . S
H1591 N1587 0.985 . S
H1592 N1586 0.984 . S
H1593 N1586 0.984 . S
H1594 N1582 0.984 . S
H1595 N1582 0.985 . S
C1596 C1597 1.363 . S
C1596 C1602 1.379 . S
C1596 N1604 1.356 . S
C1597 C1596 1.363 . S
C1597 C1603 1.363 . S
C1598 C1599 1.363 . S
C1598 C1603 1.379 . S
C1598 N1605 1.356 . S
C1599 C1598 1.363 . S
C1599 C1602 1.363 . S
N1600 C1602 1.356 . S
N1600 H1612 0.984 . S
N1600 H1613 0.985 . S
N1601 C1603 1.356 . S
N1601 H1606 0.984 . S
N1601 H1607 0.985 . S
C1602 C1596 1.379 . S
C1602 C1599 1.363 . S
C1602 N1600 1.356 . S
C1603 C1597 1.363 . S
C1603 C1598 1.379 . S
C1603 N1601 1.356 . S
N1604 C1596 1.356 . S
N1604 H1610 0.984 . S
N1604 H1611 0.984 . S
N1605 C1598 1.356 . S
N1605 H1608 0.984 . S
N1605 H1609 0.985 . S
H1606 N1601 0.984 . S
H1607 N1601 0.985 . S
H1608 N1605 0.984 . S
H1609 N1605 0.985 . S
H1610 N1604 0.984 . S
H1611 N1604 0.984 . S
H1612 N1600 0.984 . S
H1613 N1600 0.985 . S
C1614 C1615 1.363 . S
C1614 C1620 1.379 . S
C1614 N1622 1.356 . S
C1615 C1614 1.363 . S
C1615 C1621 1.363 . S
C1616 C1617 1.363 . S
C1616 C1621 1.379 . S
C1616 N1623 1.356 . S
C1617 C1616 1.363 . S
C1617 C1620 1.363 . S
N1618 C1620 1.356 . S
N1618 H1630 0.984 . S
N1618 H1631 0.985 . S
N1619 C1621 1.356 . S
N1619 H1624 0.984 . S
N1619 H1625 0.985 . S
C1620 C1614 1.379 . S
C1620 C1617 1.363 . S
C1620 N1618 1.356 . S
C1621 C1615 1.363 . S
C1621 C1616 1.379 . S
C1621 N1619 1.356 . S
N1622 C1614 1.356 . S
N1622 H1628 0.984 . S
N1622 H1629 0.984 . S
N1623 C1616 1.356 . S
N1623 H1626 0.984 . S
N1623 H1627 0.985 . S
H1624 N1619 0.984 . S
H1625 N1619 0.985 . S
H1626 N1623 0.984 . S
H1627 N1623 0.985 . S
H1628 N1622 0.984 . S
H1629 N1622 0.984 . S
H1630 N1618 0.984 . S
H1631 N1618 0.985 . S
C1632 C1633 1.363 . S
C1632 C1638 1.379 . S
C1632 N1640 1.356 . S
C1633 C1632 1.363 . S
C1633 C1639 1.363 . S
C1634 C1635 1.363 . S
C1634 C1639 1.379 . S
C1634 N1641 1.356 . S
C1635 C1634 1.363 . S
C1635 C1638 1.363 . S
N1636 C1638 1.356 . S
N1636 H1648 0.984 . S
N1636 H1649 0.985 . S
N1637 C1639 1.356 . S
N1637 H1642 0.984 . S
N1637 H1643 0.985 . S
C1638 C1632 1.379 . S
C1638 C1635 1.363 . S
C1638 N1636 1.356 . S
C1639 C1633 1.363 . S
C1639 C1634 1.379 . S
C1639 N1637 1.356 . S
N1640 C1632 1.356 . S
N1640 H1646 0.984 . S
N1640 H1647 0.984 . S
N1641 C1634 1.356 . S
N1641 H1644 0.984 . S
N1641 H1645 0.985 . S
H1642 N1637 0.984 . S
H1643 N1637 0.985 . S
H1644 N1641 0.984 . S
H1645 N1641 0.985 . S
H1646 N1640 0.984 . S
H1647 N1640 0.984 . S
H1648 N1636 0.984 . S
H1649 N1636 0.985 . S
C1650 C1651 1.363 . S
C1650 C1656 1.379 . S
C1650 N1658 1.356 . S
C1651 C1650 1.363 . S
C1651 C1657 1.363 . S
C1652 C1653 1.363 . S
C1652 C1657 1.379 . S
C1652 N1659 1.356 . S
C1653 C1652 1.363 . S
C1653 C1656 1.363 . S
N1654 C1656 1.356 . S
N1654 H1666 0.984 . S
N1654 H1667 0.985 . S
N1655 C1657 1.356 . S
N1655 H1660 0.984 . S
N1655 H1661 0.985 . S
C1656 C1650 1.379 . S
C1656 C1653 1.363 . S
C1656 N1654 1.356 . S
C1657 C1651 1.363 . S
C1657 C1652 1.379 . S
C1657 N1655 1.356 . S
N1658 C1650 1.356 . S
N1658 H1664 0.984 . S
N1658 H1665 0.984 . S
N1659 C1652 1.356 . S
N1659 H1662 0.984 . S
N1659 H1663 0.985 . S
H1660 N1655 0.984 . S
H1661 N1655 0.985 . S
H1662 N1659 0.984 . S
H1663 N1659 0.985 . S
H1664 N1658 0.984 . S
H1665 N1658 0.984 . S
H1666 N1654 0.984 . S
H1667 N1654 0.985 . S
C1668 C1669 1.363 . S
C1668 C1674 1.379 . S
C1668 N1676 1.356 . S
C1669 C1668 1.363 . S
C1669 C1675 1.363 . S
C1670 C1671 1.363 . S
C1670 C1675 1.379 . S
C1670 N1677 1.356 . S
C1671 C1670 1.363 . S
C1671 C1674 1.363 . S
N1672 C1674 1.356 . S
N1672 H1684 0.984 . S
N1672 H1685 0.985 . S
N1673 C1675 1.356 . S
N1673 H1678 0.984 . S
N1673 H1679 0.985 . S
C1674 C1668 1.379 . S
C1674 C1671 1.363 . S
C1674 N1672 1.356 . S
C1675 C1669 1.363 . S
C1675 C1670 1.379 . S
C1675 N1673 1.356 . S
N1676 C1668 1.356 . S
N1676 H1682 0.984 . S
N1676 H1683 0.984 . S
N1677 C1670 1.356 . S
N1677 H1680 0.984 . S
N1677 H1681 0.985 . S
H1678 N1673 0.984 . S
H1679 N1673 0.985 . S
H1680 N1677 0.984 . S
H1681 N1677 0.985 . S
H1682 N1676 0.984 . S
H1683 N1676 0.984 . S
H1684 N1672 0.984 . S
H1685 N1672 0.985 . S
C1686 C1687 1.363 . S
C1686 C1692 1.379 . S
C1686 N1694 1.356 . S
C1687 C1686 1.363 . S
C1687 C1693 1.363 . S
C1688 C1689 1.363 . S
C1688 C1693 1.379 . S
C1688 N1695 1.356 . S
C1689 C1688 1.363 . S
C1689 C1692 1.363 . S
N1690 C1692 1.356 . S
N1690 H1702 0.984 . S
N1690 H1703 0.985 . S
N1691 C1693 1.356 . S
N1691 H1696 0.984 . S
N1691 H1697 0.985 . S
C1692 C1686 1.379 . S
C1692 C1689 1.363 . S
C1692 N1690 1.356 . S
C1693 C1687 1.363 . S
C1693 C1688 1.379 . S
C1693 N1691 1.356 . S
N1694 C1686 1.356 . S
N1694 H1700 0.984 . S
N1694 H1701 0.984 . S
N1695 C1688 1.356 . S
N1695 H1698 0.984 . S
N1695 H1699 0.985 . S
H1696 N1691 0.984 . S
H1697 N1691 0.985 . S
H1698 N1695 0.984 . S
H1699 N1695 0.985 . S
H1700 N1694 0.984 . S
H1701 N1694 0.984 . S
H1702 N1690 0.984 . S
H1703 N1690 0.985 . S
C1704 C1705 1.363 . S
C1704 C1710 1.379 . S
C1704 N1712 1.356 . S
C1705 C1704 1.363 . S
C1705 C1711 1.363 . S
C1706 C1707 1.363 . S
C1706 C1711 1.379 . S
C1706 N1713 1.356 . S
C1707 C1706 1.363 . S
C1707 C1710 1.363 . S
N1708 C1710 1.356 . S
N1708 H1720 0.984 . S
N1708 H1721 0.985 . S
N1709 C1711 1.356 . S
N1709 H1714 0.984 . S
N1709 H1715 0.985 . S
C1710 C1704 1.379 . S
C1710 C1707 1.363 . S
C1710 N1708 1.356 . S
C1711 C1705 1.363 . S
C1711 C1706 1.379 . S
C1711 N1709 1.356 . S
N1712 C1704 1.356 . S
N1712 H1718 0.984 . S
N1712 H1719 0.984 . S
N1713 C1706 1.356 . S
N1713 H1716 0.984 . S
N1713 H1717 0.985 . S
H1714 N1709 0.984 . S
H1715 N1709 0.985 . S
H1716 N1713 0.984 . S
H1717 N1713 0.985 . S
H1718 N1712 0.984 . S
H1719 N1712 0.984 . S
H1720 N1708 0.984 . S
H1721 N1708 0.985 . S
C1722 C1723 1.363 . S
C1722 C1728 1.379 . S
C1722 N1730 1.356 . S
C1723 C1722 1.363 . S
C1723 C1729 1.363 . S
C1724 C1725 1.363 . S
C1724 C1729 1.379 . S
C1724 N1731 1.356 . S
C1725 C1724 1.363 . S
C1725 C1728 1.363 . S
N1726 C1728 1.356 . S
N1726 H1738 0.984 . S
N1726 H1739 0.985 . S
N1727 C1729 1.356 . S
N1727 H1732 0.984 . S
N1727 H1733 0.985 . S
C1728 C1722 1.379 . S
C1728 C1725 1.363 . S
C1728 N1726 1.356 . S
C1729 C1723 1.363 . S
C1729 C1724 1.379 . S
C1729 N1727 1.356 . S
N1730 C1722 1.356 . S
N1730 H1736 0.984 . S
N1730 H1737 0.984 . S
N1731 C1724 1.356 . S
N1731 H1734 0.984 . S
N1731 H1735 0.985 . S
H1732 N1727 0.984 . S
H1733 N1727 0.985 . S
H1734 N1731 0.984 . S
H1735 N1731 0.985 . S
H1736 N1730 0.984 . S
H1737 N1730 0.984 . S
H1738 N1726 0.984 . S
H1739 N1726 0.985 . S
C1740 C1741 1.363 . S
C1740 C1746 1.379 . S
C1740 N1748 1.356 . S
C1741 C1740 1.363 . S
C1741 C1747 1.363 . S
C1742 C1743 1.363 . S
C1742 C1747 1.379 . S
C1742 N1749 1.356 . S
C1743 C1742 1.363 . S
C1743 C1746 1.363 . S
N1744 C1746 1.356 . S
N1744 H1756 0.984 . S
N1744 H1757 0.985 . S
N1745 C1747 1.356 . S
N1745 H1750 0.984 . S
N1745 H1751 0.985 . S
C1746 C1740 1.379 . S
C1746 C1743 1.363 . S
C1746 N1744 1.356 . S
C1747 C1741 1.363 . S
C1747 C1742 1.379 . S
C1747 N1745 1.356 . S
N1748 C1740 1.356 . S
N1748 H1754 0.984 . S
N1748 H1755 0.984 . S
N1749 C1742 1.356 . S
N1749 H1752 0.984 . S
N1749 H1753 0.985 . S
H1750 N1745 0.984 . S
H1751 N1745 0.985 . S
H1752 N1749 0.984 . S
H1753 N1749 0.985 . S
H1754 N1748 0.984 . S
H1755 N1748 0.984 . S
H1756 N1744 0.984 . S
H1757 N1744 0.985 . S
C1758 C1759 1.363 . S
C1758 C1764 1.379 . S
C1758 N1766 1.356 . S
C1759 C1758 1.363 . S
C1759 C1765 1.363 . S
C1760 C1761 1.363 . S
C1760 C1765 1.379 . S
C1760 N1767 1.356 . S
C1761 C1760 1.363 . S
C1761 C1764 1.363 . S
N1762 C1764 1.356 . S
N1762 H1774 0.984 . S
N1762 H1775 0.985 . S
N1763 C1765 1.356 . S
N1763 H1768 0.984 . S
N1763 H1769 0.985 . S
C1764 C1758 1.379 . S
C1764 C1761 1.363 . S
C1764 N1762 1.356 . S
C1765 C1759 1.363 . S
C1765 C1760 1.379 . S
C1765 N1763 1.356 . S
N1766 C1758 1.356 . S
N1766 H1772 0.984 . S
N1766 H1773 0.984 . S
N1767 C1760 1.356 . S
N1767 H1770 0.984 . S
N1767 H1771 0.985 . S
H1768 N1763 0.984 . S
H1769 N1763 0.985 . S
H1770 N1767 0.984 . S
H1771 N1767 0.985 . S
H1772 N1766 0.984 . S
H1773 N1766 0.984 . S
H1774 N1762 0.984 . S
H1775 N1762 0.985 . S
C1776 C1777 1.363 . S
C1776 C1782 1.379 . S
C1776 N1784 1.356 . S
C1777 C1776 1.363 . S
C1777 C1783 1.363 . S
C1778 C1779 1.363 . S
C1778 C1783 1.379 . S
C1778 N1785 1.356 . S
C1779 C1778 1.363 . S
C1779 C1782 1.363 . S
N1780 C1782 1.356 . S
N1780 H1792 0.984 . S
N1780 H1793 0.985 . S
N1781 C1783 1.356 . S
N1781 H1786 0.984 . S
N1781 H1787 0.985 . S
C1782 C1776 1.379 . S
C1782 C1779 1.363 . S
C1782 N1780 1.356 . S
C1783 C1777 1.363 . S
C1783 C1778 1.379 . S
C1783 N1781 1.356 . S
N1784 C1776 1.356 . S
N1784 H1790 0.984 . S
N1784 H1791 0.984 . S
N1785 C1778 1.356 . S
N1785 H1788 0.984 . S
N1785 H1789 0.985 . S
H1786 N1781 0.984 . S
H1787 N1781 0.985 . S
H1788 N1785 0.984 . S
H1789 N1785 0.985 . S
H1790 N1784 0.984 . S
H1791 N1784 0.984 . S
H1792 N1780 0.984 . S
H1793 N1780 0.985 . S
C1794 C1795 1.363 . S
C1794 C1800 1.379 . S
C1794 N1802 1.356 . S
C1795 C1794 1.363 . S
C1795 C1801 1.363 . S
C1796 C1797 1.363 . S
C1796 C1801 1.379 . S
C1796 N1803 1.356 . S
C1797 C1796 1.363 . S
C1797 C1800 1.363 . S
N1798 C1800 1.356 . S
N1798 H1810 0.984 . S
N1798 H1811 0.985 . S
N1799 C1801 1.356 . S
N1799 H1804 0.984 . S
N1799 H1805 0.985 . S
C1800 C1794 1.379 . S
C1800 C1797 1.363 . S
C1800 N1798 1.356 . S
C1801 C1795 1.363 . S
C1801 C1796 1.379 . S
C1801 N1799 1.356 . S
N1802 C1794 1.356 . S
N1802 H1808 0.984 . S
N1802 H1809 0.984 . S
N1803 C1796 1.356 . S
N1803 H1806 0.984 . S
N1803 H1807 0.985 . S
H1804 N1799 0.984 . S
H1805 N1799 0.985 . S
H1806 N1803 0.984 . S
H1807 N1803 0.985 . S
H1808 N1802 0.984 . S
H1809 N1802 0.984 . S
H1810 N1798 0.984 . S
H1811 N1798 0.985 . S
C1812 C1813 1.363 . S
C1812 C1818 1.379 . S
C1812 N1820 1.356 . S
C1813 C1812 1.363 . S
C1813 C1819 1.363 . S
C1814 C1815 1.363 . S
C1814 C1819 1.379 . S
C1814 N1821 1.356 . S
C1815 C1814 1.363 . S
C1815 C1818 1.363 . S
N1816 C1818 1.356 . S
N1816 H1828 0.984 . S
N1816 H1829 0.985 . S
N1817 C1819 1.356 . S
N1817 H1822 0.984 . S
N1817 H1823 0.985 . S
C1818 C1812 1.379 . S
C1818 C1815 1.363 . S
C1818 N1816 1.356 . S
C1819 C1813 1.363 . S
C1819 C1814 1.379 . S
C1819 N1817 1.356 . S
N1820 C1812 1.356 . S
N1820 H1826 0.984 . S
N1820 H1827 0.984 . S
N1821 C1814 1.356 . S
N1821 H1824 0.984 . S
N1821 H1825 0.985 . S
H1822 N1817 0.984 . S
H1823 N1817 0.985 . S
H1824 N1821 0.984 . S
H1825 N1821 0.985 . S
H1826 N1820 0.984 . S
H1827 N1820 0.984 . S
H1828 N1816 0.984 . S
H1829 N1816 0.985 . S
C1830 C1831 1.363 . S
C1830 C1836 1.379 . S
C1830 N1838 1.356 . S
C1831 C1830 1.363 . S
C1831 C1837 1.363 . S
C1832 C1833 1.363 . S
C1832 C1837 1.379 . S
C1832 N1839 1.356 . S
C1833 C1832 1.363 . S
C1833 C1836 1.363 . S
N1834 C1836 1.356 . S
N1834 H1846 0.984 . S
N1834 H1847 0.985 . S
N1835 C1837 1.356 . S
N1835 H1840 0.984 . S
N1835 H1841 0.985 . S
C1836 C1830 1.379 . S
C1836 C1833 1.363 . S
C1836 N1834 1.356 . S
C1837 C1831 1.363 . S
C1837 C1832 1.379 . S
C1837 N1835 1.356 . S
N1838 C1830 1.356 . S
N1838 H1844 0.984 . S
N1838 H1845 0.984 . S
N1839 C1832 1.356 . S
N1839 H1842 0.984 . S
N1839 H1843 0.985 . S
H1840 N1835 0.984 . S
H1841 N1835 0.985 . S
H1842 N1839 0.984 . S
H1843 N1839 0.985 . S
H1844 N1838 0.984 . S
H1845 N1838 0.984 . S
H1846 N1834 0.984 . S
H1847 N1834 0.985 . S
C1848 C1849 1.363 . S
C1848 C1854 1.379 . S
C1848 N1856 1.356 . S
C1849 C1848 1.363 . S
C1849 C1855 1.363 . S
C1850 C1851 1.363 . S
C1850 C1855 1.379 . S
C1850 N1857 1.356 . S
C1851 C1850 1.363 . S
C1851 C1854 1.363 . S
N1852 C1854 1.356 . S
N1852 H1864 0.984 . S
N1852 H1865 0.985 . S
N1853 C1855 1.356 . S
N1853 H1858 0.984 . S
N1853 H1859 0.985 . S
C1854 C1848 1.379 . S
C1854 C1851 1.363 . S
C1854 N1852 1.356 . S
C1855 C1849 1.363 . S
C1855 C1850 1.379 . S
C1855 N1853 1.356 . S
N1856 C1848 1.356 . S
N1856 H1862 0.984 . S
N1856 H1863 0.984 . S
N1857 C1850 1.356 . S
N1857 H1860 0.984 . S
N1857 H1861 0.985 . S
H1858 N1853 0.984 . S
H1859 N1853 0.985 . S
H1860 N1857 0.984 . S
H1861 N1857 0.985 . S
H1862 N1856 0.984 . S
H1863 N1856 0.984 . S
H1864 N1852 0.984 . S
H1865 N1852 0.985 . S
C1866 C1867 1.363 . S
C1866 C1872 1.379 . S
C1866 N1874 1.356 . S
C1867 C1866 1.363 . S
C1867 C1873 1.363 . S
C1868 C1869 1.363 . S
C1868 C1873 1.379 . S
C1868 N1875 1.356 . S
C1869 C1868 1.363 . S
C1869 C1872 1.363 . S
N1870 C1872 1.356 . S
N1870 H1882 0.984 . S
N1870 H1883 0.985 . S
N1871 C1873 1.356 . S
N1871 H1876 0.984 . S
N1871 H1877 0.985 . S
C1872 C1866 1.379 . S
C1872 C1869 1.363 . S
C1872 N1870 1.356 . S
C1873 C1867 1.363 . S
C1873 C1868 1.379 . S
C1873 N1871 1.356 . S
N1874 C1866 1.356 . S
N1874 H1880 0.984 . S
N1874 H1881 0.984 . S
N1875 C1868 1.356 . S
N1875 H1878 0.984 . S
N1875 H1879 0.985 . S
H1876 N1871 0.984 . S
H1877 N1871 0.985 . S
H1878 N1875 0.984 . S
H1879 N1875 0.985 . S
H1880 N1874 0.984 . S
H1881 N1874 0.984 . S
H1882 N1870 0.984 . S
H1883 N1870 0.985 . S
C1884 C1885 1.363 . S
C1884 C1890 1.379 . S
C1884 N1892 1.356 . S
C1885 C1884 1.363 . S
C1885 C1891 1.363 . S
C1886 C1887 1.363 . S
C1886 C1891 1.379 . S
C1886 N1893 1.356 . S
C1887 C1886 1.363 . S
C1887 C1890 1.363 . S
N1888 C1890 1.356 . S
N1888 H1900 0.984 . S
N1888 H1901 0.985 . S
N1889 C1891 1.356 . S
N1889 H1894 0.984 . S
N1889 H1895 0.985 . S
C1890 C1884 1.379 . S
C1890 C1887 1.363 . S
C1890 N1888 1.356 . S
C1891 C1885 1.363 . S
C1891 C1886 1.379 . S
C1891 N1889 1.356 . S
N1892 C1884 1.356 . S
N1892 H1898 0.984 . S
N1892 H1899 0.984 . S
N1893 C1886 1.356 . S
N1893 H1896 0.984 . S
N1893 H1897 0.985 . S
H1894 N1889 0.984 . S
H1895 N1889 0.985 . S
H1896 N1893 0.984 . S
H1897 N1893 0.985 . S
H1898 N1892 0.984 . S
H1899 N1892 0.984 . S
H1900 N1888 0.984 . S
H1901 N1888 0.985 . S
C1902 C1903 1.363 . S
C1902 C1908 1.379 . S
C1902 N1910 1.356 . S
C1903 C1902 1.363 . S
C1903 C1909 1.363 . S
C1904 C1905 1.363 . S
C1904 C1909 1.379 . S
C1904 N1911 1.356 . S
C1905 C1904 1.363 . S
C1905 C1908 1.363 . S
N1906 C1908 1.356 . S
N1906 H1918 0.984 . S
N1906 H1919 0.985 . S
N1907 C1909 1.356 . S
N1907 H1912 0.984 . S
N1907 H1913 0.985 . S
C1908 C1902 1.379 . S
C1908 C1905 1.363 . S
C1908 N1906 1.356 . S
C1909 C1903 1.363 . S
C1909 C1904 1.379 . S
C1909 N1907 1.356 . S
N1910 C1902 1.356 . S
N1910 H1916 0.984 . S
N1910 H1917 0.984 . S
N1911 C1904 1.356 . S
N1911 H1914 0.984 . S
N1911 H1915 0.985 . S
H1912 N1907 0.984 . S
H1913 N1907 0.985 . S
H1914 N1911 0.984 . S
H1915 N1911 0.985 . S
H1916 N1910 0.984 . S
H1917 N1910 0.984 . S
H1918 N1906 0.984 . S
H1919 N1906 0.985 . S
C1920 C1921 1.363 . S
C1920 C1926 1.379 . S
C1920 N1928 1.356 . S
C1921 C1920 1.363 . S
C1921 C1927 1.363 . S
C1922 C1923 1.363 . S
C1922 C1927 1.379 . S
C1922 N1929 1.356 . S
C1923 C1922 1.363 . S
C1923 C1926 1.363 . S
N1924 C1926 1.356 . S
N1924 H1936 0.984 . S
N1924 H1937 0.985 . S
N1925 C1927 1.356 . S
N1925 H1930 0.984 . S
N1925 H1931 0.985 . S
C1926 C1920 1.379 . S
C1926 C1923 1.363 . S
C1926 N1924 1.356 . S
C1927 C1921 1.363 . S
C1927 C1922 1.379 . S
C1927 N1925 1.356 . S
N1928 C1920 1.356 . S
N1928 H1934 0.984 . S
N1928 H1935 0.984 . S
N1929 C1922 1.356 . S
N1929 H1932 0.984 . S
N1929 H1933 0.985 . S
H1930 N1925 0.984 . S
H1931 N1925 0.985 . S
H1932 N1929 0.984 . S
H1933 N1929 0.985 . S
H1934 N1928 0.984 . S
H1935 N1928 0.984 . S
H1936 N1924 0.984 . S
H1937 N1924 0.985 . S
C1938 C1939 1.363 . S
C1938 C1944 1.379 . S
C1938 N1946 1.356 . S
C1939 C1938 1.363 . S
C1939 C1945 1.363 . S
C1940 C1941 1.363 . S
C1940 C1945 1.379 . S
C1940 N1947 1.356 . S
C1941 C1940 1.363 . S
C1941 C1944 1.363 . S
N1942 C1944 1.356 . S
N1942 H1954 0.984 . S
N1942 H1955 0.985 . S
N1943 C1945 1.356 . S
N1943 H1948 0.984 . S
N1943 H1949 0.985 . S
C1944 C1938 1.379 . S
C1944 C1941 1.363 . S
C1944 N1942 1.356 . S
C1945 C1939 1.363 . S
C1945 C1940 1.379 . S
C1945 N1943 1.356 . S
N1946 C1938 1.356 . S
N1946 H1952 0.984 . S
N1946 H1953 0.984 . S
N1947 C1940 1.356 . S
N1947 H1950 0.984 . S
N1947 H1951 0.985 . S
H1948 N1943 0.984 . S
H1949 N1943 0.985 . S
H1950 N1947 0.984 . S
H1951 N1947 0.985 . S
H1952 N1946 0.984 . S
H1953 N1946 0.984 . S
H1954 N1942 0.984 . S
H1955 N1942 0.985 . S
C1956 C1957 1.363 . S
C1956 C1962 1.379 . S
C1956 N1964 1.356 . S
C1957 C1956 1.363 . S
C1957 C1963 1.363 . S
C1958 C1959 1.363 . S
C1958 C1963 1.379 . S
C1958 N1965 1.356 . S
C1959 C1958 1.363 . S
C1959 C1962 1.363 . S
N1960 C1962 1.356 . S
N1960 H1972 0.984 . S
N1960 H1973 0.985 . S
N1961 C1963 1.356 . S
N1961 H1966 0.984 . S
N1961 H1967 0.985 . S
C1962 C1956 1.379 . S
C1962 C1959 1.363 . S
C1962 N1960 1.356 . S
C1963 C1957 1.363 . S
C1963 C1958 1.379 . S
C1963 N1961 1.356 . S
N1964 C1956 1.356 . S
N1964 H1970 0.984 . S
N1964 H1971 0.984 . S
N1965 C1958 1.356 . S
N1965 H1968 0.984 . S
N1965 H1969 0.985 . S
H1966 N1961 0.984 . S
H1967 N1961 0.985 . S
H1968 N1965 0.984 . S
H1969 N1965 0.985 . S
H1970 N1964 0.984 . S
H1971 N1964 0.984 . S
H1972 N1960 0.984 . S
H1973 N1960 0.985 . S
C1974 C1975 1.363 . S
C1974 C1980 1.379 . S
C1974 N1982 1.356 . S
C1975 C1974 1.363 . S
C1975 C1981 1.363 . S
C1976 C1977 1.363 . S
C1976 C1981 1.379 . S
C1976 N1983 1.356 . S
C1977 C1976 1.363 . S
C1977 C1980 1.363 . S
N1978 C1980 1.356 . S
N1978 H1990 0.984 . S
N1978 H1991 0.985 . S
N1979 C1981 1.356 . S
N1979 H1984 0.984 . S
N1979 H1985 0.985 . S
C1980 C1974 1.379 . S
C1980 C1977 1.363 . S
C1980 N1978 1.356 . S
C1981 C1975 1.363 . S
C1981 C1976 1.379 . S
C1981 N1979 1.356 . S
N1982 C1974 1.356 . S
N1982 H1988 0.984 . S
N1982 H1989 0.984 . S
N1983 C1976 1.356 . S
N1983 H1986 0.984 . S
N1983 H1987 0.985 . S
H1984 N1979 0.984 . S
H1985 N1979 0.985 . S
H1986 N1983 0.984 . S
H1987 N1983 0.985 . S
H1988 N1982 0.984 . S
H1989 N1982 0.984 . S
H1990 N1978 0.984 . S
H1991 N1978 0.985 . S
C1992 C1993 1.363 . S
C1992 C1998 1.379 . S
C1992 N2000 1.356 . S
C1993 C1992 1.363 . S
C1993 C1999 1.363 . S
C1994 C1995 1.363 . S
C1994 C1999 1.379 . S
C1994 N2001 1.356 . S
C1995 C1994 1.363 . S
C1995 C1998 1.363 . S
N1996 C1998 1.356 . S
N1996 H2008 0.984 . S
N1996 H2009 0.985 . S
N1997 C1999 1.356 . S
N1997 H2002 0.984 . S
N1997 H2003 0.985 . S
C1998 C1992 1.379 . S
C1998 C1995 1.363 . S
C1998 N1996 1.356 . S
C1999 C1993 1.363 . S
C1999 C1994 1.379 . S
C1999 N1997 1.356 . S
N2000 C1992 1.356 . S
N2000 H2006 0.984 . S
N2000 H2007 0.984 . S
N2001 C1994 1.356 . S
N2001 H2004 0.984 . S
N2001 H2005 0.985 . S
H2002 N1997 0.984 . S
H2003 N1997 0.985 . S
H2004 N2001 0.984 . S
H2005 N2001 0.985 . S
H2006 N2000 0.984 . S
H2007 N2000 0.984 . S
H2008 N1996 0.984 . S
H2009 N1996 0.985 . S
C2010 C2011 1.363 . S
C2010 C2016 1.379 . S
C2010 N2018 1.356 . S
C2011 C2010 1.363 . S
C2011 C2017 1.363 . S
C2012 C2013 1.363 . S
C2012 C2017 1.379 . S
C2012 N2019 1.356 . S
C2013 C2012 1.363 . S
C2013 C2016 1.363 . S
N2014 C2016 1.356 . S
N2014 H2026 0.984 . S
N2014 H2027 0.985 . S
N2015 C2017 1.356 . S
N2015 H2020 0.984 . S
N2015 H2021 0.985 . S
C2016 C2010 1.379 . S
C2016 C2013 1.363 . S
C2016 N2014 1.356 . S
C2017 C2011 1.363 . S
C2017 C2012 1.379 . S
C2017 N2015 1.356 . S
N2018 C2010 1.356 . S
N2018 H2024 0.984 . S
N2018 H2025 0.984 . S
N2019 C2012 1.356 . S
N2019 H2022 0.984 . S
N2019 H2023 0.985 . S
H2020 N2015 0.984 . S
H2021 N2015 0.985 . S
H2022 N2019 0.984 . S
H2023 N2019 0.985 . S
H2024 N2018 0.984 . S
H2025 N2018 0.984 . S
H2026 N2014 0.984 . S
H2027 N2014 0.985 . S
C2028 C2029 1.363 . S
C2028 C2034 1.379 . S
C2028 N2036 1.356 . S
C2029 C2028 1.363 . S
C2029 C2035 1.363 . S
C2030 C2031 1.363 . S
C2030 C2035 1.379 . S
C2030 N2037 1.356 . S
C2031 C2030 1.363 . S
C2031 C2034 1.363 . S
N2032 C2034 1.356 . S
N2032 H2044 0.984 . S
N2032 H2045 0.985 . S
N2033 C2035 1.356 . S
N2033 H2038 0.984 . S
N2033 H2039 0.985 . S
C2034 C2028 1.379 . S
C2034 C2031 1.363 . S
C2034 N2032 1.356 . S
C2035 C2029 1.363 . S
C2035 C2030 1.379 . S
C2035 N2033 1.356 . S
N2036 C2028 1.356 . S
N2036 H2042 0.984 . S
N2036 H2043 0.984 . S
N2037 C2030 1.356 . S
N2037 H2040 0.984 . S
N2037 H2041 0.985 . S
H2038 N2033 0.984 . S
H2039 N2033 0.985 . S
H2040 N2037 0.984 . S
H2041 N2037 0.985 . S
H2042 N2036 0.984 . S
H2043 N2036 0.984 . S
H2044 N2032 0.984 . S
H2045 N2032 0.985 . S
C2046 C2047 1.363 . S
C2046 C2052 1.379 . S
C2046 N2054 1.356 . S
C2047 C2046 1.363 . S
C2047 C2053 1.363 . S
C2048 C2049 1.363 . S
C2048 C2053 1.379 . S
C2048 N2055 1.356 . S
C2049 C2048 1.363 . S
C2049 C2052 1.363 . S
N2050 C2052 1.356 . S
N2050 H2062 0.984 . S
N2050 H2063 0.985 . S
N2051 C2053 1.356 . S
N2051 H2056 0.984 . S
N2051 H2057 0.985 . S
C2052 C2046 1.379 . S
C2052 C2049 1.363 . S
C2052 N2050 1.356 . S
C2053 C2047 1.363 . S
C2053 C2048 1.379 . S
C2053 N2051 1.356 . S
N2054 C2046 1.356 . S
N2054 H2060 0.984 . S
N2054 H2061 0.984 . S
N2055 C2048 1.356 . S
N2055 H2058 0.984 . S
N2055 H2059 0.985 . S
H2056 N2051 0.984 . S
H2057 N2051 0.985 . S
H2058 N2055 0.984 . S
H2059 N2055 0.985 . S
H2060 N2054 0.984 . S
H2061 N2054 0.984 . S
H2062 N2050 0.984 . S
H2063 N2050 0.985 . S
C2064 C2065 1.363 . S
C2064 C2070 1.379 . S
C2064 N2072 1.356 . S
C2065 C2064 1.363 . S
C2065 C2071 1.363 . S
C2066 C2067 1.363 . S
C2066 C2071 1.379 . S
C2066 N2073 1.356 . S
C2067 C2066 1.363 . S
C2067 C2070 1.363 . S
N2068 C2070 1.356 . S
N2068 H2080 0.984 . S
N2068 H2081 0.985 . S
N2069 C2071 1.356 . S
N2069 H2074 0.984 . S
N2069 H2075 0.985 . S
C2070 C2064 1.379 . S
C2070 C2067 1.363 . S
C2070 N2068 1.356 . S
C2071 C2065 1.363 . S
C2071 C2066 1.379 . S
C2071 N2069 1.356 . S
N2072 C2064 1.356 . S
N2072 H2078 0.984 . S
N2072 H2079 0.984 . S
N2073 C2066 1.356 . S
N2073 H2076 0.984 . S
N2073 H2077 0.985 . S
H2074 N2069 0.984 . S
H2075 N2069 0.985 . S
H2076 N2073 0.984 . S
H2077 N2073 0.985 . S
H2078 N2072 0.984 . S
H2079 N2072 0.984 . S
H2080 N2068 0.984 . S
H2081 N2068 0.985 . S
C2082 C2083 1.363 . S
C2082 C2088 1.379 . S
C2082 N2090 1.356 . S
C2083 C2082 1.363 . S
C2083 C2089 1.363 . S
C2084 C2085 1.363 . S
C2084 C2089 1.379 . S
C2084 N2091 1.356 . S
C2085 C2084 1.363 . S
C2085 C2088 1.363 . S
N2086 C2088 1.356 . S
N2086 H2098 0.984 . S
N2086 H2099 0.985 . S
N2087 C2089 1.356 . S
N2087 H2092 0.984 . S
N2087 H2093 0.985 . S
C2088 C2082 1.379 . S
C2088 C2085 1.363 . S
C2088 N2086 1.356 . S
C2089 C2083 1.363 . S
C2089 C2084 1.379 . S
C2089 N2087 1.356 . S
N2090 C2082 1.356 . S
N2090 H2096 0.984 . S
N2090 H2097 0.984 . S
N2091 C2084 1.356 . S
N2091 H2094 0.984 . S
N2091 H2095 0.985 . S
H2092 N2087 0.984 . S
H2093 N2087 0.985 . S
H2094 N2091 0.984 . S
H2095 N2091 0.985 . S
H2096 N2090 0.984 . S
H2097 N2090 0.984 . S
H2098 N2086 0.984 . S
H2099 N2086 0.985 . S
C2100 C2101 1.363 . S
C2100 C2106 1.379 . S
C2100 N2108 1.356 . S
C2101 C2100 1.363 . S
C2101 C2107 1.363 . S
C2102 C2103 1.363 . S
C2102 C2107 1.379 . S
C2102 N2109 1.356 . S
C2103 C2102 1.363 . S
C2103 C2106 1.363 . S
N2104 C2106 1.356 . S
N2104 H2116 0.984 . S
N2104 H2117 0.985 . S
N2105 C2107 1.356 . S
N2105 H2110 0.984 . S
N2105 H2111 0.985 . S
C2106 C2100 1.379 . S
C2106 C2103 1.363 . S
C2106 N2104 1.356 . S
C2107 C2101 1.363 . S
C2107 C2102 1.379 . S
C2107 N2105 1.356 . S
N2108 C2100 1.356 . S
N2108 H2114 0.984 . S
N2108 H2115 0.984 . S
N2109 C2102 1.356 . S
N2109 H2112 0.984 . S
N2109 H2113 0.985 . S
H2110 N2105 0.984 . S
H2111 N2105 0.985 . S
H2112 N2109 0.984 . S
H2113 N2109 0.985 . S
H2114 N2108 0.984 . S
H2115 N2108 0.984 . S
H2116 N2104 0.984 . S
H2117 N2104 0.985 . S
C2118 C2119 1.363 . S
C2118 C2124 1.379 . S
C2118 N2126 1.356 . S
C2119 C2118 1.363 . S
C2119 C2125 1.363 . S
C2120 C2121 1.363 . S
C2120 C2125 1.379 . S
C2120 N2127 1.356 . S
C2121 C2120 1.363 . S
C2121 C2124 1.363 . S
N2122 C2124 1.356 . S
N2122 H2134 0.984 . S
N2122 H2135 0.985 . S
N2123 C2125 1.356 . S
N2123 H2128 0.984 . S
N2123 H2129 0.985 . S
C2124 C2118 1.379 . S
C2124 C2121 1.363 . S
C2124 N2122 1.356 . S
C2125 C2119 1.363 . S
C2125 C2120 1.379 . S
C2125 N2123 1.356 . S
N2126 C2118 1.356 . S
N2126 H2132 0.984 . S
N2126 H2133 0.984 . S
N2127 C2120 1.356 . S
N2127 H2130 0.984 . S
N2127 H2131 0.985 . S
H2128 N2123 0.984 . S
H2129 N2123 0.985 . S
H2130 N2127 0.984 . S
H2131 N2127 0.985 . S
H2132 N2126 0.984 . S
H2133 N2126 0.984 . S
H2134 N2122 0.984 . S
H2135 N2122 0.985 . S
C2136 C2137 1.363 . S
C2136 C2142 1.379 . S
C2136 N2144 1.356 . S
C2137 C2136 1.363 . S
C2137 C2143 1.363 . S
C2138 C2139 1.363 . S
C2138 C2143 1.379 . S
C2138 N2145 1.356 . S
C2139 C2138 1.363 . S
C2139 C2142 1.363 . S
N2140 C2142 1.356 . S
N2140 H2152 0.984 . S
N2140 H2153 0.985 . S
N2141 C2143 1.356 . S
N2141 H2146 0.984 . S
N2141 H2147 0.985 . S
C2142 C2136 1.379 . S
C2142 C2139 1.363 . S
C2142 N2140 1.356 . S
C2143 C2137 1.363 . S
C2143 C2138 1.379 . S
C2143 N2141 1.356 . S
N2144 C2136 1.356 . S
N2144 H2150 0.984 . S
N2144 H2151 0.984 . S
N2145 C2138 1.356 . S
N2145 H2148 0.984 . S
N2145 H2149 0.985 . S
H2146 N2141 0.984 . S
H2147 N2141 0.985 . S
H2148 N2145 0.984 . S
H2149 N2145 0.985 . S
H2150 N2144 0.984 . S
H2151 N2144 0.984 . S
H2152 N2140 0.984 . S
H2153 N2140 0.985 . S
C2154 C2155 1.363 . S
C2154 C2160 1.379 . S
C2154 N2162 1.356 . S
C2155 C2154 1.363 . S
C2155 C2161 1.363 . S
C2156 C2157 1.363 . S
C2156 C2161 1.379 . S
C2156 N2163 1.356 . S
C2157 C2156 1.363 . S
C2157 C2160 1.363 . S
N2158 C2160 1.356 . S
N2158 H2170 0.984 . S
N2158 H2171 0.985 . S
N2159 C2161 1.356 . S
N2159 H2164 0.984 . S
N2159 H2165 0.985 . S
C2160 C2154 1.379 . S
C2160 C2157 1.363 . S
C2160 N2158 1.356 . S
C2161 C2155 1.363 . S
C2161 C2156 1.379 . S
C2161 N2159 1.356 . S
N2162 C2154 1.356 . S
N2162 H2168 0.984 . S
N2162 H2169 0.984 . S
N2163 C2156 1.356 . S
N2163 H2166 0.984 . S
N2163 H2167 0.985 . S
H2164 N2159 0.984 . S
H2165 N2159 0.985 . S
H2166 N2163 0.984 . S
H2167 N2163 0.985 . S
H2168 N2162 0.984 . S
H2169 N2162 0.984 . S
H2170 N2158 0.984 . S
H2171 N2158 0.985 . S
C2172 C2173 1.363 . S
C2172 C2178 1.379 . S
C2172 N2180 1.356 . S
C2173 C2172 1.363 . S
C2173 C2179 1.363 . S
C2174 C2175 1.363 . S
C2174 C2179 1.379 . S
C2174 N2181 1.356 . S
C2175 C2174 1.363 . S
C2175 C2178 1.363 . S
N2176 C2178 1.356 . S
N2176 H2188 0.984 . S
N2176 H2189 0.985 . S
N2177 C2179 1.356 . S
N2177 H2182 0.984 . S
N2177 H2183 0.985 . S
C2178 C2172 1.379 . S
C2178 C2175 1.363 . S
C2178 N2176 1.356 . S
C2179 C2173 1.363 . S
C2179 C2174 1.379 . S
C2179 N2177 1.356 . S
N2180 C2172 1.356 . S
N2180 H2186 0.984 . S
N2180 H2187 0.984 . S
N2181 C2174 1.356 . S
N2181 H2184 0.984 . S
N2181 H2185 0.985 . S
H2182 N2177 0.984 . S
H2183 N2177 0.985 . S
H2184 N2181 0.984 . S
H2185 N2181 0.985 . S
H2186 N2180 0.984 . S
H2187 N2180 0.984 . S
H2188 N2176 0.984 . S
H2189 N2176 0.985 . S
C2190 C2191 1.363 . S
C2190 C2196 1.379 . S
C2190 N2198 1.356 . S
C2191 C2190 1.363 . S
C2191 C2197 1.363 . S
C2192 C2193 1.363 . S
C2192 C2197 1.379 . S
C2192 N2199 1.356 . S
C2193 C2192 1.363 . S
C2193 C2196 1.363 . S
N2194 C2196 1.356 . S
N2194 H2206 0.984 . S
N2194 H2207 0.985 . S
N2195 C2197 1.356 . S
N2195 H2200 0.984 . S
N2195 H2201 0.985 . S
C2196 C2190 1.379 . S
C2196 C2193 1.363 . S
C2196 N2194 1.356 . S
C2197 C2191 1.363 . S
C2197 C2192 1.379 . S
C2197 N2195 1.356 . S
N2198 C2190 1.356 . S
N2198 H2204 0.984 . S
N2198 H2205 0.984 . S
N2199 C2192 1.356 . S
N2199 H2202 0.984 . S
N2199 H2203 0.985 . S
H2200 N2195 0.984 . S
H2201 N2195 0.985 . S
H2202 N2199 0.984 . S
H2203 N2199 0.985 . S
H2204 N2198 0.984 . S
H2205 N2198 0.984 . S
H2206 N2194 0.984 . S
H2207 N2194 0.985 . S
C2208 C2209 1.363 . S
C2208 C2214 1.379 . S
C2208 N2216 1.356 . S
C2209 C2208 1.363 . S
C2209 C2215 1.363 . S
C2210 C2211 1.363 . S
C2210 C2215 1.379 . S
C2210 N2217 1.356 . S
C2211 C2210 1.363 . S
C2211 C2214 1.363 . S
N2212 C2214 1.356 . S
N2212 H2224 0.984 . S
N2212 H2225 0.985 . S
N2213 C2215 1.356 . S
N2213 H2218 0.984 . S
N2213 H2219 0.985 . S
C2214 C2208 1.379 . S
C2214 C2211 1.363 . S
C2214 N2212 1.356 . S
C2215 C2209 1.363 . S
C2215 C2210 1.379 . S
C2215 N2213 1.356 . S
N2216 C2208 1.356 . S
N2216 H2222 0.984 . S
N2216 H2223 0.984 . S
N2217 C2210 1.356 . S
N2217 H2220 0.984 . S
N2217 H2221 0.985 . S
H2218 N2213 0.984 . S
H2219 N2213 0.985 . S
H2220 N2217 0.984 . S
H2221 N2217 0.985 . S
H2222 N2216 0.984 . S
H2223 N2216 0.984 . S
H2224 N2212 0.984 . S
H2225 N2212 0.985 . S
C2226 C2227 1.363 1_455 S
C2226 C2232 1.379 . S
C2226 N2234 1.356 . S
C2227 C2226 1.363 1_655 S
C2227 C2233 1.363 1_565 S
C2228 C2229 1.363 1_655 S
C2228 C2233 1.379 . S
C2228 N2235 1.356 . S
C2229 C2228 1.363 1_455 S
C2229 C2232 1.363 1_545 S
N2230 C2232 1.356 . S
N2230 H2242 0.984 . S
N2230 H2243 0.985 . S
N2231 C2233 1.356 . S
N2231 H2236 0.984 . S
N2231 H2237 0.985 . S
C2232 C2226 1.379 . S
C2232 C2229 1.363 1_565 S
C2232 N2230 1.356 . S
C2233 C2227 1.363 1_545 S
C2233 C2228 1.379 . S
C2233 N2231 1.356 . S
N2234 C2226 1.356 . S
N2234 H2240 0.984 . S
N2234 H2241 0.984 1_455 S
N2235 C2228 1.356 . S
N2235 H2238 0.984 1_655 S
N2235 H2239 0.985 . S
H2236 N2231 0.984 . S
H2237 N2231 0.985 . S
H2238 N2235 0.984 1_455 S
H2239 N2235 0.985 . S
H2240 N2234 0.984 . S
H2241 N2234 0.984 1_655 S
H2242 N2230 0.984 . S
H2243 N2230 0.985 . S
C2244 C2245 1.363 . S
C2244 C2250 1.379 . S
C2244 N2252 1.356 . S
C2245 C2244 1.363 . S
C2245 C2251 1.363 . S
C2246 C2247 1.363 . S
C2246 C2251 1.379 . S
C2246 N2253 1.356 . S
C2247 C2246 1.363 . S
C2247 C2250 1.363 . S
N2248 C2250 1.356 . S
N2248 H2260 0.984 . S
N2248 H2261 0.985 . S
N2249 C2251 1.356 . S
N2249 H2254 0.984 . S
N2249 H2255 0.985 . S
C2250 C2244 1.379 . S
C2250 C2247 1.363 . S
C2250 N2248 1.356 . S
C2251 C2245 1.363 . S
C2251 C2246 1.379 . S
C2251 N2249 1.356 . S
N2252 C2244 1.356 . S
N2252 H2258 0.984 . S
N2252 H2259 0.984 . S
N2253 C2246 1.356 . S
N2253 H2256 0.984 . S
N2253 H2257 0.985 . S
H2254 N2249 0.984 . S
H2255 N2249 0.985 . S
H2256 N2253 0.984 . S
H2257 N2253 0.985 . S
H2258 N2252 0.984 . S
H2259 N2252 0.984 . S
H2260 N2248 0.984 . S
H2261 N2248 0.985 . S
C2262 C2263 1.363 1_545 S
C2262 C2268 1.379 1_556 S
C2262 N2270 1.356 . S
C2263 C2262 1.363 1_565 S
C2263 C2269 1.363 . S
C2264 C2265 1.363 1_565 S
C2264 C2269 1.379 1_554 S
C2264 N2271 1.356 . S
C2265 C2264 1.363 1_545 S
C2265 C2268 1.363 . S
N2266 C2268 1.356 . S
N2266 H2278 0.984 . S
N2266 H2279 0.985 . S
N2267 C2269 1.356 . S
N2267 H2272 0.984 . S
N2267 H2273 0.985 . S
C2268 C2262 1.379 1_554 S
C2268 C2265 1.363 . S
C2268 N2266 1.356 . S
C2269 C2263 1.363 . S
C2269 C2264 1.379 1_556 S
C2269 N2267 1.356 . S
N2270 C2262 1.356 . S
N2270 H2276 0.984 . S
N2270 H2277 0.984 . S
N2271 C2264 1.356 . S
N2271 H2274 0.984 . S
N2271 H2275 0.985 . S
H2272 N2267 0.984 . S
H2273 N2267 0.985 . S
H2274 N2271 0.984 . S
H2275 N2271 0.985 . S
H2276 N2270 0.984 . S
H2277 N2270 0.984 . S
H2278 N2266 0.984 . S
H2279 N2266 0.985 . S
C2280 C2281 1.363 . S
C2280 C2286 1.379 . S
C2280 N2288 1.356 . S
C2281 C2280 1.363 . S
C2281 C2287 1.363 . S
C2282 C2283 1.363 . S
C2282 C2287 1.379 . S
C2282 N2289 1.356 . S
C2283 C2282 1.363 . S
C2283 C2286 1.363 . S
N2284 C2286 1.356 . S
N2284 H2296 0.984 . S
N2284 H2297 0.985 . S
N2285 C2287 1.356 . S
N2285 H2290 0.984 . S
N2285 H2291 0.985 . S
C2286 C2280 1.379 . S
C2286 C2283 1.363 . S
C2286 N2284 1.356 . S
C2287 C2281 1.363 . S
C2287 C2282 1.379 . S
C2287 N2285 1.356 . S
N2288 C2280 1.356 . S
N2288 H2294 0.984 . S
N2288 H2295 0.984 . S
N2289 C2282 1.356 . S
N2289 H2292 0.984 . S
N2289 H2293 0.985 . S
H2290 N2285 0.984 . S
H2291 N2285 0.985 . S
H2292 N2289 0.984 . S
H2293 N2289 0.985 . S
H2294 N2288 0.984 . S
H2295 N2288 0.984 . S
H2296 N2284 0.984 . S
H2297 N2284 0.985 . S
C2298 C2299 1.363 1_565 S
C2298 C2304 1.379 . S
C2298 N2306 1.356 . S
C2299 C2298 1.363 1_545 S
C2299 C2305 1.363 . S
C2300 C2301 1.363 1_545 S
C2300 C2305 1.379 . S
C2300 N2307 1.356 . S
C2301 C2300 1.363 1_565 S
C2301 C2304 1.363 . S
N2302 C2304 1.356 . S
N2302 H2314 0.984 . S
N2302 H2315 0.985 . S
N2303 C2305 1.356 . S
N2303 H2308 0.984 . S
N2303 H2309 0.985 . S
C2304 C2298 1.379 . S
C2304 C2301 1.363 . S
C2304 N2302 1.356 . S
C2305 C2299 1.363 . S
C2305 C2300 1.379 . S
C2305 N2303 1.356 . S
N2306 C2298 1.356 . S
N2306 H2312 0.984 . S
N2306 H2313 0.984 . S
N2307 C2300 1.356 . S
N2307 H2310 0.984 . S
N2307 H2311 0.985 . S
H2308 N2303 0.984 . S
H2309 N2303 0.985 . S
H2310 N2307 0.984 . S
H2311 N2307 0.985 . S
H2312 N2306 0.984 . S
H2313 N2306 0.984 . S
H2314 N2302 0.984 . S
H2315 N2302 0.985 . S
C2316 C2317 1.363 . S
C2316 C2322 1.379 . S
C2316 N2324 1.356 . S
C2317 C2316 1.363 . S
C2317 C2323 1.363 . S
C2318 C2319 1.363 . S
C2318 C2323 1.379 . S
C2318 N2325 1.356 . S
C2319 C2318 1.363 . S
C2319 C2322 1.363 . S
N2320 C2322 1.356 . S
N2320 H2332 0.984 . S
N2320 H2333 0.985 . S
N2321 C2323 1.356 . S
N2321 H2326 0.984 . S
N2321 H2327 0.985 . S
C2322 C2316 1.379 . S
C2322 C2319 1.363 . S
C2322 N2320 1.356 . S
C2323 C2317 1.363 . S
C2323 C2318 1.379 . S
C2323 N2321 1.356 . S
N2324 C2316 1.356 . S
N2324 H2330 0.984 . S
N2324 H2331 0.984 . S
N2325 C2318 1.356 . S
N2325 H2328 0.984 . S
N2325 H2329 0.985 . S
H2326 N2321 0.984 . S
H2327 N2321 0.985 . S
H2328 N2325 0.984 . S
H2329 N2325 0.985 . S
H2330 N2324 0.984 . S
H2331 N2324 0.984 . S
H2332 N2320 0.984 . S
H2333 N2320 0.985 . S
C2334 C2335 1.363 1_645 S
C2334 C2340 1.379 1_554 S
C2334 N2342 1.356 . S
C2335 C2334 1.363 1_465 S
C2335 C2341 1.363 . S
C2336 C2337 1.363 1_465 S
C2336 C2341 1.379 1_556 S
C2336 N2343 1.356 . S
C2337 C2336 1.363 1_645 S
C2337 C2340 1.363 . S
N2338 C2340 1.356 . S
N2338 H2350 0.984 . S
N2338 H2351 0.985 . S
N2339 C2341 1.356 . S
N2339 H2344 0.984 . S
N2339 H2345 0.985 . S
C2340 C2334 1.379 1_556 S
C2340 C2337 1.363 . S
C2340 N2338 1.356 . S
C2341 C2335 1.363 . S
C2341 C2336 1.379 1_554 S
C2341 N2339 1.356 . S
N2342 C2334 1.356 . S
N2342 H2348 0.984 . S
N2342 H2349 0.987 . S
N2343 C2336 1.356 . S
N2343 H2346 0.987 . S
N2343 H2347 0.985 . S
H2344 N2339 0.984 . S
H2345 N2339 0.985 . S
H2346 N2343 0.987 . S
H2347 N2343 0.985 . S
H2348 N2342 0.984 . S
H2349 N2342 0.987 . S
H2350 N2338 0.984 . S
H2351 N2338 0.985 . S
C2352 C2353 1.363 . S
C2352 C2358 1.379 . S
C2352 N2360 1.356 . S
C2353 C2352 1.363 . S
C2353 C2359 1.363 . S
C2354 C2355 1.363 . S
C2354 C2359 1.379 . S
C2354 N2361 1.356 . S
C2355 C2354 1.363 . S
C2355 C2358 1.363 . S
N2356 C2358 1.356 . S
N2356 H2368 0.984 . S
N2356 H2369 0.985 . S
N2357 C2359 1.356 . S
N2357 H2362 0.984 . S
N2357 H2363 0.985 . S
C2358 C2352 1.379 . S
C2358 C2355 1.363 . S
C2358 N2356 1.356 . S
C2359 C2353 1.363 . S
C2359 C2354 1.379 . S
C2359 N2357 1.356 . S
N2360 C2352 1.356 . S
N2360 H2366 0.984 . S
N2360 H2367 0.984 . S
N2361 C2354 1.356 . S
N2361 H2364 0.984 . S
N2361 H2365 0.985 . S
H2362 N2357 0.984 . S
H2363 N2357 0.985 . S
H2364 N2361 0.984 . S
H2365 N2361 0.985 . S
H2366 N2360 0.984 . S
H2367 N2360 0.984 . S
H2368 N2356 0.984 . S
H2369 N2356 0.985 . S
C2370 C2371 1.363 . S
C2370 C2376 1.379 . S
C2370 N2378 1.356 . S
C2371 C2370 1.363 . S
C2371 C2377 1.363 . S
C2372 C2373 1.363 . S
C2372 C2377 1.379 . S
C2372 N2379 1.356 . S
C2373 C2372 1.363 . S
C2373 C2376 1.363 . S
N2374 C2376 1.356 . S
N2374 H2386 0.984 . S
N2374 H2387 0.985 . S
N2375 C2377 1.356 . S
N2375 H2380 0.984 . S
N2375 H2381 0.985 . S
C2376 C2370 1.379 . S
C2376 C2373 1.363 . S
C2376 N2374 1.356 . S
C2377 C2371 1.363 . S
C2377 C2372 1.379 . S
C2377 N2375 1.356 . S
N2378 C2370 1.356 . S
N2378 H2384 0.984 . S
N2378 H2385 0.984 . S
N2379 C2372 1.356 . S
N2379 H2382 0.984 . S
N2379 H2383 0.985 . S
H2380 N2375 0.984 . S
H2381 N2375 0.985 . S
H2382 N2379 0.984 . S
H2383 N2379 0.985 . S
H2384 N2378 0.984 . S
H2385 N2378 0.984 . S
H2386 N2374 0.984 . S
H2387 N2374 0.985 . S
C2388 C2389 1.363 . S
C2388 C2394 1.379 . S
C2388 N2396 1.356 . S
C2389 C2388 1.363 . S
C2389 C2395 1.363 . S
C2390 C2391 1.363 . S
C2390 C2395 1.379 . S
C2390 N2397 1.356 . S
C2391 C2390 1.363 . S
C2391 C2394 1.363 . S
N2392 C2394 1.356 . S
N2392 H2404 0.984 . S
N2392 H2405 0.985 . S
N2393 C2395 1.356 . S
N2393 H2398 0.984 . S
N2393 H2399 0.985 . S
C2394 C2388 1.379 . S
C2394 C2391 1.363 . S
C2394 N2392 1.356 . S
C2395 C2389 1.363 . S
C2395 C2390 1.379 . S
C2395 N2393 1.356 . S
N2396 C2388 1.356 . S
N2396 H2402 0.984 . S
N2396 H2403 0.984 . S
N2397 C2390 1.356 . S
N2397 H2400 0.984 . S
N2397 H2401 0.985 . S
H2398 N2393 0.984 . S
H2399 N2393 0.985 . S
H2400 N2397 0.984 . S
H2401 N2397 0.985 . S
H2402 N2396 0.984 . S
H2403 N2396 0.984 . S
H2404 N2392 0.984 . S
H2405 N2392 0.985 . S
C2406 C2407 1.363 . S
C2406 C2412 1.379 . S
C2406 N2414 1.356 . S
C2407 C2406 1.363 . S
C2407 C2413 1.363 . S
C2408 C2409 1.363 . S
C2408 C2413 1.379 . S
C2408 N2415 1.356 . S
C2409 C2408 1.363 . S
C2409 C2412 1.363 . S
N2410 C2412 1.356 . S
N2410 H2422 0.984 . S
N2410 H2423 0.985 . S
N2411 C2413 1.356 . S
N2411 H2416 0.984 . S
N2411 H2417 0.985 . S
C2412 C2406 1.379 . S
C2412 C2409 1.363 . S
C2412 N2410 1.356 . S
C2413 C2407 1.363 . S
C2413 C2408 1.379 . S
C2413 N2411 1.356 . S
N2414 C2406 1.356 . S
N2414 H2420 0.984 . S
N2414 H2421 0.984 . S
N2415 C2408 1.356 . S
N2415 H2418 0.984 . S
N2415 H2419 0.985 . S
H2416 N2411 0.984 . S
H2417 N2411 0.985 . S
H2418 N2415 0.984 . S
H2419 N2415 0.985 . S
H2420 N2414 0.984 . S
H2421 N2414 0.984 . S
H2422 N2410 0.984 . S
H2423 N2410 0.985 . S
C2424 C2425 1.363 . S
C2424 C2430 1.379 1_554 S
C2424 N2432 1.356 . S
C2425 C2424 1.363 . S
C2425 C2431 1.363 . S
C2426 C2427 1.363 . S
C2426 C2431 1.379 1_556 S
C2426 N2433 1.356 . S
C2427 C2426 1.363 . S
C2427 C2430 1.363 . S
N2428 C2430 1.356 . S
N2428 H2440 0.984 . S
N2428 H2441 0.985 . S
N2429 C2431 1.356 . S
N2429 H2434 0.984 . S
N2429 H2435 0.985 . S
C2430 C2424 1.379 1_556 S
C2430 C2427 1.363 . S
C2430 N2428 1.356 . S
C2431 C2425 1.363 . S
C2431 C2426 1.379 1_554 S
C2431 N2429 1.356 . S
N2432 C2424 1.356 . S
N2432 H2438 0.984 . S
N2432 H2439 0.984 . S
N2433 C2426 1.356 . S
N2433 H2436 0.984 . S
N2433 H2437 0.985 . S
H2434 N2429 0.984 . S
H2435 N2429 0.985 . S
H2436 N2433 0.984 . S
H2437 N2433 0.985 . S
H2438 N2432 0.984 . S
H2439 N2432 0.984 . S
H2440 N2428 0.984 . S
H2441 N2428 0.985 . S
C2442 C2443 1.363 . S
C2442 C2448 1.379 . S
C2442 N2450 1.356 . S
C2443 C2442 1.363 . S
C2443 C2449 1.363 1_455 S
C2444 C2445 1.363 . S
C2444 C2449 1.379 . S
C2444 N2451 1.356 . S
C2445 C2444 1.363 . S
C2445 C2448 1.363 1_655 S
N2446 C2448 1.356 . S
N2446 H2458 0.984 . S
N2446 H2459 0.997 . S
N2447 C2449 1.356 . S
N2447 H2452 0.997 . S
N2447 H2453 0.985 . S
C2448 C2442 1.379 . S
C2448 C2445 1.363 1_455 S
C2448 N2446 1.356 . S
C2449 C2443 1.363 1_655 S
C2449 C2444 1.379 . S
C2449 N2447 1.356 . S
N2450 C2442 1.356 . S
N2450 H2456 0.984 . S
N2450 H2457 0.984 . S
N2451 C2444 1.356 . S
N2451 H2454 0.984 . S
N2451 H2455 0.985 . S
H2452 N2447 0.997 . S
H2453 N2447 0.985 . S
H2454 N2451 0.984 . S
H2455 N2451 0.985 . S
H2456 N2450 0.984 . S
H2457 N2450 0.984 . S
H2458 N2446 0.984 . S
H2459 N2446 0.997 . S
C2460 C2461 1.363 1_655 S
C2460 C2466 1.379 1_556 S
C2460 N2468 1.356 . S
C2461 C2460 1.363 1_455 S
C2461 C2467 1.363 . S
C2462 C2463 1.363 1_455 S
C2462 C2467 1.379 1_554 S
C2462 N2469 1.356 . S
C2463 C2462 1.363 1_655 S
C2463 C2466 1.363 . S
N2464 C2466 1.356 . S
N2464 H2476 0.984 . S
N2464 H2477 0.985 . S
N2465 C2467 1.356 . S
N2465 H2470 0.984 . S
N2465 H2471 0.985 . S
C2466 C2460 1.379 1_554 S
C2466 C2463 1.363 . S
C2466 N2464 1.356 . S
C2467 C2461 1.363 . S
C2467 C2462 1.379 1_556 S
C2467 N2465 1.356 . S
N2468 C2460 1.356 . S
N2468 H2474 0.984 . S
N2468 H2475 0.984 1_655 S
N2469 C2462 1.356 . S
N2469 H2472 0.984 1_455 S
N2469 H2473 0.985 . S
H2470 N2465 0.984 . S
H2471 N2465 0.985 . S
H2472 N2469 0.984 1_655 S
H2473 N2469 0.985 . S
H2474 N2468 0.984 . S
H2475 N2468 0.984 1_455 S
H2476 N2464 0.984 . S
H2477 N2464 0.985 . S
C2478 C2479 1.363 . S
C2478 C2484 1.379 . S
C2478 N2486 1.356 . S
C2479 C2478 1.363 . S
C2479 C2485 1.363 . S
C2480 C2481 1.363 . S
C2480 C2485 1.379 . S
C2480 N2487 1.356 . S
C2481 C2480 1.363 . S
C2481 C2484 1.363 . S
N2482 C2484 1.356 . S
N2482 H2494 0.984 . S
N2482 H2495 0.985 . S
N2483 C2485 1.356 . S
N2483 H2488 0.984 . S
N2483 H2489 0.985 . S
C2484 C2478 1.379 . S
C2484 C2481 1.363 . S
C2484 N2482 1.356 . S
C2485 C2479 1.363 . S
C2485 C2480 1.379 . S
C2485 N2483 1.356 . S
N2486 C2478 1.356 . S
N2486 H2492 0.984 . S
N2486 H2493 0.984 . S
N2487 C2480 1.356 . S
N2487 H2490 0.984 . S
N2487 H2491 0.985 . S
H2488 N2483 0.984 . S
H2489 N2483 0.985 . S
H2490 N2487 0.984 . S
H2491 N2487 0.985 . S
H2492 N2486 0.984 . S
H2493 N2486 0.984 . S
H2494 N2482 0.984 . S
H2495 N2482 0.985 . S
C1057 N608 1.199 . S
C1059 N14 1.199 . S
C1075 N47 1.198 . S
C1077 N641 1.198 . S
C1093 N80 1.199 . S
C1095 N542 1.199 . S
C1111 N575 1.199 . S
C1113 N113 1.199 . S
C1129 N146 1.199 . S
C1131 N740 1.199 . S
C1147 N773 1.199 . S
C1149 N179 1.199 . S
C1165 N212 1.199 . S
C1167 N674 1.199 . S
C1183 N245 1.198 . S
C1185 N707 1.198 . S
C1201 N278 1.199 . S
C1203 N872 1.199 . S
C1219 N905 1.198 . S
C1221 N311 1.198 . S
C1237 N344 1.199 . S
C1239 N806 1.199 . S
C1255 N377 1.199 . S
C1257 N839 1.199 . S
C1273 N410 1.199 . S
C1275 N1004 1.199 . S
C1291 N1037 1.199 . S
C1293 N443 1.199 . S
C1309 N938 1.199 . S
C1311 N476 1.199 . S
C1327 N971 1.198 . S
C1329 N509 1.198 . S
C1345 C371 1.211 . S
C1347 C28 1.205 . S
C1363 C800 1.210 . S
C1365 C61 1.204 . S
C1381 C94 1.205 . S
C1383 C305 1.211 . S
C1399 C866 1.211 . S
C1401 C127 1.205 . S
C1417 C437 1.211 . S
C1419 C160 1.205 . S
C1435 C193 1.205 . S
C1437 C998 1.211 . S
C1453 C503 1.211 . S
C1455 C226 1.205 . S
C1471 C932 1.211 . S
C1473 C259 1.205 . S
C1489 C107 1.211 . S
C1491 C292 1.205 . S
C1507 C325 1.204 . S
C1509 C536 1.210 . S
C1525 C358 1.205 . S
C1527 C41 1.211 . S
C1543 C602 1.211 . S
C1545 C391 1.205 . S
C1561 C424 1.205 . S
C1563 C173 1.211 . S
C1579 C734 1.211 . S
C1581 C457 1.205 . S
C1597 C490 1.205 . S
C1599 C239 1.211 . S
C1615 C523 1.205 . S
C1617 C668 1.211 . S
C1633 C899 1.211 . S
C1635 C556 1.205 . S
C1651 C589 1.205 . S
C1653 C272 1.211 . S
C1669 C622 1.205 . S
C1671 C833 1.211 . S
C1687 C338 1.211 . S
C1689 C655 1.205 . S
C1705 C688 1.205 . S
C1707 C965 1.211 . S
C1723 C721 1.204 . S
C1725 C470 1.210 . S
C1741 C1031 1.211 . S
C1743 C754 1.205 . S
C1759 C404 1.211 . S
C1761 C787 1.205 . S
C1777 C635 1.211 . S
C1779 C820 1.205 . S
C1795 C853 1.205 . S
C1797 C8 1.211 . S
C1813 C886 1.205 . S
C1815 C569 1.211 . S
C1831 C74 1.211 . S
C1833 C919 1.205 . S
C1849 C952 1.205 . S
C1851 C701 1.211 . S
C1867 C985 1.204 . S
C1869 C206 1.210 . S
C1885 C767 1.211 . S
C1887 C1018 1.205 . S
C1903 C140 1.211 . S
C1905 C1051 1.205 . S
C1921 N236 1.818 . S
C1923 N5 1.818 . S
C1939 N137 1.818 . S
C1941 N38 1.818 . S
C1957 N71 1.818 . S
C1959 N170 1.818 . S
C1975 N203 1.818 . S
C1977 N104 1.818 . S
C1993 N500 1.818 . S
C1995 N269 1.818 . S
C2011 N302 1.818 . S
C2013 N401 1.818 . S
C2029 N434 1.818 . S
C2031 N335 1.818 . S
C2047 N467 1.818 . S
C2049 N368 1.818 . S
C2065 N764 1.818 . S
C2067 N533 1.818 . S
C2083 N665 1.818 . S
C2085 N566 1.818 . S
C2101 N698 1.818 . S
C2103 N599 1.818 . S
C2119 N731 1.818 . S
C2121 N632 1.818 . S
C2137 N797 1.818 . S
C2139 N1028 1.818 . S
C2155 N830 1.818 . S
C2157 N929 1.818 . S
C2173 N863 1.818 . S
C2175 N962 1.818 . S
C2191 N995 1.818 . S
C2193 N896 1.818 . S
C2209 C17 1.493 . S
C2211 C809 1.493 . S
C2227 C314 1.492 . S
C2229 C50 1.492 . S
C2245 C875 1.492 . S
C2247 C83 1.492 . S
C2263 C116 1.493 . S
C2265 C380 1.493 . S
C2281 C149 1.492 . S
C2283 C941 1.492 . S
C2299 C182 1.492 . S
C2301 C446 1.492 . S
C2317 C1007 1.492 . S
C2319 C215 1.492 . S
C2335 C248 1.492 . S
C2337 C512 1.492 . S
C2353 C545 1.493 . S
C2355 C281 1.493 . S
C2371 C611 1.492 . S
C2373 C347 1.492 . S
C2389 C413 1.492 . S
C2391 C677 1.492 . S
C2407 C479 1.492 . S
C2409 C743 1.492 . S
C2425 C842 1.492 . S
C2427 C578 1.492 . S
C2443 C908 1.492 . S
C2445 C644 1.492 . S
C2461 C974 1.493 . S
C2463 C710 1.493 . S
C2479 C1040 1.492 . S
C2481 C776 1.492 . S
