# Generated by pormake.
# Topology ukf, (4)-cn, num edge types: 1
# Building blocks:
#     Node 0, Type 0, BuildingBlock: ESEHIV_clean_sbu_0, # of connection points: 4
#     Node 1, Type 0, BuildingBlock: ESEHIV_clean_sbu_0, # of connection points: 4
#     Node 2, Type 0, BuildingBlock: ESEHIV_clean_sbu_0, # of connection points: 4
#     Node 3, Type 0, BuildingBlock: ESEHIV_clean_sbu_0, # of connection points: 4
#     Node 4, Type 0, BuildingBlock: ESEHIV_clean_sbu_0, # of connection points: 4
#     Node 5, Type 0, BuildingBlock: ESEHIV_clean_sbu_0, # of connection points: 4
#     Node 6, Type 0, BuildingBlock: ESEHIV_clean_sbu_0, # of connection points: 4
#     Node 7, Type 0, BuildingBlock: ESEHIV_clean_sbu_0, # of connection points: 4
#     Node 8, Type 0, BuildingBlock: ESEHIV_clean_sbu_0, # of connection points: 4
#     Node 9, Type 0, BuildingBlock: ESEHIV_clean_sbu_0, # of connection points: 4
#     Node 10, Type 0, BuildingBlock: ESEHIV_clean_sbu_0, # of connection points: 4
#     Node 11, Type 0, BuildingBlock: ESEHIV_clean_sbu_0, # of connection points: 4
#     Edge 12, Type (0, 0), BuildingBlock: OJICUG_clean_linker_0, # of connection points: 2
#     Edge 13, Type (0, 0), BuildingBlock: OJICUG_clean_linker_0, # of connection points: 2
#     Edge 14, Type (0, 0), BuildingBlock: OJICUG_clean_linker_0, # of connection points: 2
#     Edge 15, Type (0, 0), BuildingBlock: OJICUG_clean_linker_0, # of connection points: 2
#     Edge 16, Type (0, 0), BuildingBlock: OJICUG_clean_linker_0, # of connection points: 2
#     Edge 17, Type (0, 0), BuildingBlock: OJICUG_clean_linker_0, # of connection points: 2
#     Edge 18, Type (0, 0), BuildingBlock: OJICUG_clean_linker_0, # of connection points: 2
#     Edge 19, Type (0, 0), BuildingBlock: OJICUG_clean_linker_0, # of connection points: 2
#     Edge 20, Type (0, 0), BuildingBlock: OJICUG_clean_linker_0, # of connection points: 2
#     Edge 21, Type (0, 0), BuildingBlock: OJICUG_clean_linker_0, # of connection points: 2
#     Edge 22, Type (0, 0), BuildingBlock: OJICUG_clean_linker_0, # of connection points: 2
#     Edge 23, Type (0, 0), BuildingBlock: OJICUG_clean_linker_0, # of connection points: 2
#     Edge 24, Type (0, 0), BuildingBlock: OJICUG_clean_linker_0, # of connection points: 2
#     Edge 25, Type (0, 0), BuildingBlock: OJICUG_clean_linker_0, # of connection points: 2
#     Edge 26, Type (0, 0), BuildingBlock: OJICUG_clean_linker_0, # of connection points: 2
#     Edge 27, Type (0, 0), BuildingBlock: OJICUG_clean_linker_0, # of connection points: 2
#     Edge 28, Type (0, 0), BuildingBlock: OJICUG_clean_linker_0, # of connection points: 2
#     Edge 29, Type (0, 0), BuildingBlock: OJICUG_clean_linker_0, # of connection points: 2
#     Edge 30, Type (0, 0), BuildingBlock: OJICUG_clean_linker_0, # of connection points: 2
#     Edge 31, Type (0, 0), BuildingBlock: OJICUG_clean_linker_0, # of connection points: 2
#     Edge 32, Type (0, 0), BuildingBlock: OJICUG_clean_linker_0, # of connection points: 2
#     Edge 33, Type (0, 0), BuildingBlock: OJICUG_clean_linker_0, # of connection points: 2
#     Edge 34, Type (0, 0), BuildingBlock: OJICUG_clean_linker_0, # of connection points: 2
#     Edge 35, Type (0, 0), BuildingBlock: OJICUG_clean_linker_0, # of connection points: 2
# Relax obj value: 0.082
# Max RMSD: 0.295
# Mean RMSD: 0.294
data_MOF--net-ukf--node1-ESEHIV_clean_sbu_0--edge1-OJICUG_clean_linker_0
_symmetry_space_group_name_H-M    P1
_symmetry_Int_Tables_number       1
_symmetry_cell_setting            triclinic
loop_
_symmetry_equiv_pos_as_xyz
'x, y, z'
_cell_length_a     27.635471
_cell_length_b     27.918773
_cell_length_c     51.141959
_cell_angle_alpha  90.024701
_cell_angle_beta   89.852156
_cell_angle_gamma 119.71588
loop_
_atom_site_label
_atom_site_type_symbol
_atom_site_fract_x
_atom_site_fract_y
_atom_site_fract_z
_atom_type_partial_charge
Cu0 Cu 0.49763 0.27037 0.07975 0.0
N1 N 0.43126 0.20436 0.07395 0.0
N2 N 0.36825 0.12391 0.05662 0.0
C3 C 0.42122 0.16599 0.05555 0.0
C4 C 0.34372 0.13657 0.07618 0.0
C5 C 0.38277 0.18623 0.08686 0.0
O6 O 0.55849 0.27014 0.06067 0.0
C7 C 0.50654 0.24316 0.13232 0.0
O8 O 0.4887 0.19357 0.12273 0.0
H9 H 0.45179 0.1692 0.04136 0.0
H10 H 0.37637 0.20771 0.10292 0.0
N11 N 0.48911 0.32778 0.06636 0.0
N12 N 0.50204 0.41177 0.05785 0.0
C13 C 0.51499 0.38113 0.07375 0.0
C14 C 0.4586 0.32455 0.0453 0.0
C15 C 0.46657 0.3763 0.03996 0.0
C16 C 0.56621 0.22887 0.0598 0.0
O17 O 0.53394 0.1846 0.07358 0.0
H18 H 0.54441 0.39751 0.08972 0.0
H19 H 0.43347 0.28732 0.03422 0.0
O20 O 0.51352 0.28202 0.11699 0.0
H21 H 0.30098 0.1113 0.08257 0.0
H22 H 0.44823 0.38715 1.02397 0.0
Cu23 Cu 0.25791 0.48028 0.41868 0.0
N24 N 0.18581 0.46499 0.41023 0.0
N25 N 0.11091 0.47395 0.40324 0.0
C26 C 0.16157 0.49599 0.41461 0.0
C27 C 0.10296 0.42741 0.39143 0.0
C28 C 0.14906 0.42188 0.39587 0.0
O29 O 0.26978 0.49102 0.45611 0.0
C30 C 0.30305 0.55404 0.37606 0.0
O31 O 0.2538 0.52216 0.36575 0.0
H32 H 0.18163 0.53507 0.4248 0.0
H33 H 0.15618 0.38962 0.38842 0.0
N34 N 0.26558 0.41938 0.41029 0.0
N35 N 0.29234 0.36435 0.39109 0.0
C36 C 0.29193 0.41252 0.38965 0.0
C37 C 0.24855 0.3741 0.42517 0.0
C38 C 0.26503 0.3401 0.41342 0.0
C39 C 0.27647 0.53303 0.4688 0.0
O40 O 0.27599 0.57386 0.45627 0.0
H41 H 0.31178 0.44292 0.37433 0.0
H42 H 0.22644 0.36684 0.44353 0.0
O43 O 0.31318 0.54373 0.39903 0.0
H44 H 0.06675 0.39985 0.38004 0.0
H45 H 0.25739 0.30055 0.42071 0.0
Cu46 Cu 0.80059 0.23957 0.75048 0.0
N47 N 0.87187 0.24961 0.74453 0.0
N48 N 0.95423 0.2722 0.72641 0.0
C49 C 0.90313 0.26629 0.72258 0.0
C50 C 0.95463 0.2579 0.75158 0.0
C51 C 0.90385 0.24385 0.76263 0.0
O52 O 0.79022 0.29621 0.73358 0.0
C53 C 0.81856 0.27653 0.80319 0.0
O54 O 0.85886 0.32241 0.79319 0.0
H55 H 0.88944 0.27592 0.70451 0.0
H56 H 0.89135 0.23119 0.78264 0.0
N57 N 0.74736 0.17276 0.73623 0.0
N58 N 0.66388 0.10113 0.72688 0.0
C59 C 0.69347 0.14341 0.74341 0.0
C60 C 0.75221 0.14818 0.71454 0.0
C61 C 0.70067 0.10392 0.70869 0.0
C62 C 0.82894 0.34397 0.72706 0.0
O63 O 0.88065 0.3596 0.73348 0.0
H64 H 0.67574 0.15465 0.75957 0.0
H65 H 0.79007 0.16277 0.70322 0.0
O66 O 0.78785 0.23696 0.78797 0.0
H67 H 0.98927 0.25783 0.76137 0.0
H68 H 0.69078 0.07662 0.69208 0.0
Cu69 Cu 0.59409 0.78491 0.08282 0.0
N70 N 0.65977 0.85153 0.07673 0.0
N71 N 0.72225 0.93137 0.05854 0.0
C72 C 0.66957 0.8887 0.05772 0.0
C73 C 0.74683 0.92034 0.07859 0.0
C74 C 0.70811 0.87107 0.0898 0.0
O75 O 0.53224 0.7844 0.06447 0.0
C76 C 0.58423 0.80995 0.13577 0.0
O77 O 0.5985 0.859 0.12639 0.0
H78 H 0.63909 0.88414 0.04324 0.0
H79 H 0.71468 0.85071 0.10628 0.0
N80 N 0.60323 0.72836 0.06872 0.0
N81 N 0.5906 0.64488 0.05919 0.0
C82 C 0.57724 0.67464 0.07552 0.0
C83 C 0.63422 0.73273 0.04759 0.0
C84 C 0.62644 0.6813 0.04162 0.0
C85 C 0.5248 0.82581 0.06316 0.0
O86 O 0.55785 0.87082 0.07623 0.0
H87 H 0.54742 0.6574 0.09138 0.0
H88 H 0.65952 0.77052 0.03686 0.0
O89 O 0.57952 0.77232 0.12018 0.0
H90 H 0.78942 0.94642 0.0849 0.0
H91 H 0.64515 0.67131 0.02542 0.0
Cu92 Cu 0.83192 0.57759 0.41793 0.0
N93 N 0.89639 0.58136 0.40418 0.0
N94 N 0.96639 0.56482 0.39648 0.0
C95 C 0.92677 0.55953 0.41367 0.0
C96 C 0.96087 0.59116 0.37558 0.0
C97 C 0.91784 0.60144 0.38042 0.0
O98 O 0.828 0.56775 0.45566 0.0
C99 C 0.76465 0.47805 0.38951 0.0
O100 O 0.80611 0.4683 0.39279 0.0
H101 H 0.91806 0.5376 0.43208 0.0
H102 H 0.90177 0.62034 0.36716 0.0
N103 N 0.83272 0.64351 0.41115 0.0
N104 N 0.8116 0.70337 0.39278 0.0
C105 C 0.81102 0.65496 0.39011 0.0
C106 C 0.84784 0.68615 0.42762 0.0
C107 C 0.83476 0.72317 0.41635 0.0
C108 C 0.7954 0.5234 0.46776 0.0
O109 O 0.7627 0.47875 0.45437 0.0
H110 H 0.79256 0.62699 0.3738 0.0
H111 H 0.86518 0.68903 0.44688 0.0
O112 O 0.76706 0.52061 0.39989 0.0
H113 H 0.98542 0.60114 0.35783 0.0
H114 H 0.84085 0.76115 0.42501 0.0
Cu115 Cu 0.29368 0.81669 0.753 0.0
N116 N 0.22177 0.8052 0.74754 0.0
N117 N 0.13927 0.78208 0.72969 0.0
C118 C 0.19103 0.78987 0.7255 0.0
C119 C 0.13783 0.7937 0.75519 0.0
C120 C 0.18872 0.80809 0.76609 0.0
O121 O 0.30502 0.76088 0.73584 0.0
C122 C 0.27741 0.77866 0.80547 0.0
O123 O 0.23846 0.73224 0.79533 0.0
H124 H 0.20562 0.78255 0.70707 0.0
H125 H 0.20057 0.81904 0.78628 0.0
N126 N 0.34588 0.88393 0.73859 0.0
N127 N 0.42873 0.95587 0.72845 0.0
C128 C 0.40014 0.91329 0.74502 0.0
C129 C 0.33978 0.90881 0.71735 0.0
C130 C 0.39093 0.95326 0.71101 0.0
C131 C 0.26663 0.71304 0.7293 0.0
O132 O 0.2148 0.69693 0.73585 0.0
H133 H 0.41881 0.90182 0.76063 0.0
H134 H 0.30133 0.89429 0.70662 0.0
O135 O 0.30684 0.81914 0.7904 0.0
H136 H 0.10244 0.79174 0.76531 0.0
H137 H 0.39986 0.9808 0.69455 0.0
Cu138 Cu 0.81087 0.58013 0.63079 0.0
N139 N 0.75112 0.58633 0.64418 0.0
N140 N 0.66564 0.57224 0.65287 0.0
C141 C 0.69726 0.56077 0.63659 0.0
C142 C 0.70109 0.60657 0.6711 0.0
C143 C 0.7536 0.6152 0.66567 0.0
O144 O 0.80646 0.57142 0.59305 0.0
C145 C 0.77836 0.48277 0.66161 0.0
O146 O 0.72844 0.47751 0.66212 0.0
H147 H 0.68119 0.53247 0.62027 0.0
H148 H 0.7909 0.63969 0.67701 0.0
N149 N 0.87719 0.64453 0.63824 0.0
N150 N 0.95824 0.70153 0.65747 0.0
C151 C 0.91 0.65311 0.65914 0.0
C152 C 0.90538 0.689 0.62282 0.0
C153 C 0.9555 0.72429 0.63463 0.0
C154 C 0.78193 0.52558 0.58101 0.0
O155 O 0.75527 0.47956 0.59445 0.0
H156 H 0.89965 0.6233 0.67471 0.0
H157 H 0.89116 0.69456 0.60397 0.0
O158 O 0.81686 0.52153 0.64834 0.0
H159 H 0.68971 0.62368 0.68744 0.0
H160 H 0.98759 0.76335 0.62691 0.0
Cu161 Cu 0.25445 0.78336 0.97041 0.0
N162 N 0.25407 0.8493 0.97634 0.0
N163 N 0.27135 0.92963 0.99377 0.0
C164 C 0.28231 0.88764 0.99474 0.0
C165 C 0.23422 0.91694 0.97425 0.0
C166 C 0.22371 0.86736 0.96351 0.0
O167 O 0.31543 0.78349 0.98939 0.0
C168 C 0.29032 0.81086 0.91775 0.0
O169 O 0.32222 0.86039 0.92738 0.0
H170 H 0.30964 0.88447 1.00888 0.0
H171 H 0.1959 0.84587 0.94746 0.0
N172 N 0.18841 0.72589 0.98384 0.0
N173 N 0.11746 0.64181 0.99247 0.0
C174 C 0.16113 0.6725 0.97653 0.0
C175 C 0.16094 0.72909 1.00491 0.0
C176 C 0.11721 0.67728 1.01033 0.0
C177 C 0.36447 0.82475 0.99036 0.0
O178 O 0.37674 0.86913 0.97665 0.0
H179 H 0.17439 0.65615 0.96058 0.0
H180 H 0.17288 0.76635 1.01596 0.0
O181 O 0.25861 0.77187 0.93311 0.0
H182 H 0.21672 0.94214 0.96793 0.0
H183 H 0.08791 0.66638 0.02634 0.0
Cu184 Cu 0.50489 0.23751 0.29687 0.0
N185 N 0.44589 0.25141 0.30186 0.0
N186 N 0.38963 0.27913 0.31932 0.0
C187 C 0.43189 0.26888 0.32369 0.0
C188 C 0.37615 0.26689 0.29391 0.0
C189 C 0.41074 0.24967 0.28325 0.0
O190 O 0.57141 0.29184 0.31503 0.0
C191 C 0.52815 0.27624 0.24447 0.0
O192 O 0.5349 0.3224 0.25461 0.0
H193 H 0.45377 0.27605 0.34207 0.0
H194 H 0.41103 0.23774 0.26315 0.0
N195 N 0.48635 0.16891 0.31086 0.0
N196 N 0.49206 0.09409 0.32108 0.0
C197 C 0.51115 0.13891 0.30549 0.0
C198 C 0.4502 0.14214 0.33038 0.0
C199 C 0.45367 0.09596 0.33676 0.0
C200 C 0.58222 0.34075 0.32023 0.0
O201 O 0.54919 0.35835 0.31142 0.0
H202 H 0.54433 0.15112 0.29128 0.0
H203 H 0.42442 0.15619 0.33983 0.0
O204 O 0.51728 0.23584 0.25954 0.0
H205 H 0.34373 0.27035 0.28372 0.0
H206 H 0.43036 0.0665 0.352 0.0
Cu207 Cu 0.28666 0.48072 0.63081 0.0
N208 N 0.34494 0.47258 0.64441 0.0
N209 N 0.42964 0.48471 0.65299 0.0
C210 C 0.39887 0.49736 0.63686 0.0
C211 C 0.39356 0.45044 0.67115 0.0
C212 C 0.3415 0.443 0.66578 0.0
O213 O 0.29581 0.49428 0.59335 0.0
C214 C 0.31864 0.57681 0.66254 0.0
O215 O 0.36928 0.58386 0.6618 0.0
H216 H 0.41559 0.52594 0.62063 0.0
H217 H 0.30388 0.41882 0.67705 0.0
N218 N 0.21932 0.41604 0.63645 0.0
N219 N 0.13715 0.35772 0.65462 0.0
C220 C 0.18611 0.40498 0.65751 0.0
C221 C 0.19062 0.37439 0.61963 0.0
C222 C 0.13981 0.33829 0.63079 0.0
C223 C 0.28999 0.53156 0.58188 0.0
O224 O 0.28008 0.56526 0.59586 0.0
H225 H 0.19676 0.4324 0.67412 0.0
H226 H 0.20497 0.37143 0.60032 0.0
O227 O 0.2799 0.53744 0.64977 0.0
H228 H 0.40421 0.43256 0.68738 0.0
H229 H 0.1072 0.30102 0.62195 0.0
Cu230 Cu 0.83736 0.26798 0.96824 0.0
N231 N 0.83638 0.20149 0.97454 0.0
N232 N 0.81844 0.12164 0.99282 0.0
C233 C 0.80812 0.16407 0.99337 0.0
C234 C 0.85516 0.13305 0.97313 0.0
C235 C 0.86608 0.18234 0.96187 0.0
O236 O 0.77596 0.26866 0.98657 0.0
C237 C 0.80309 0.24174 0.91537 0.0
O238 O 0.76957 0.19238 0.92486 0.0
H239 H 0.78136 0.16832 1.00755 0.0
H240 H 0.89388 0.20298 0.94563 0.0
N241 N 0.90307 0.3248 0.98213 0.0
N242 N 0.97376 0.40851 0.99147 0.0
C243 C 0.93059 0.37849 0.97526 0.0
C244 C 0.92987 0.32074 1.00319 0.0
C245 C 0.97342 0.37231 1.00904 0.0
C246 C 0.72685 0.22749 0.98759 0.0
O247 O 0.71485 0.18266 0.97435 0.0
H248 H 0.91783 0.39551 0.95946 0.0
H249 H 0.91754 0.28304 1.01395 0.0
O250 O 0.83519 0.28004 0.93087 0.0
H251 H 0.87223 0.10726 0.96711 0.0
H252 H 1.0022 0.38255 0.02517 0.0
Cu253 Cu 0.5843 0.81063 0.30062 0.0
N254 N 0.65016 0.80882 0.30568 0.0
N255 N 0.71253 0.78929 0.32295 0.0
C256 C 0.66442 0.78983 0.32681 0.0
C257 C 0.72917 0.80885 0.29851 0.0
C258 C 0.69067 0.82101 0.28794 0.0
O259 O 0.52437 0.74635 0.31747 0.0
C260 C 0.56725 0.77495 0.24795 0.0
O261 O 0.56612 0.73094 0.25779 0.0
H262 H 0.63887 0.77461 0.34423 0.0
H263 H 0.6913 0.83623 0.26842 0.0
N264 N 0.58931 0.87292 0.31656 0.0
N265 N 0.57359 0.94212 0.32607 0.0
C266 C 0.56688 0.90347 0.30831 0.0
C267 C 0.61109 0.89297 0.34022 0.0
C268 C 0.60142 0.93565 0.34616 0.0
C269 C 0.47333 0.73182 0.31424 0.0
O270 O 0.45989 0.75929 0.2977 0.0
H271 H 0.5441 0.89597 0.29018 0.0
H272 H 0.63122 0.87661 0.35256 0.0
O273 O 0.57269 0.81317 0.26331 0.0
H274 H 0.7662 0.81352 0.28889 0.0
H275 H 0.61345 0.9597 0.36398 0.0
C276 C 0.35148 1.00279 1.01763 0.0
C277 C 0.29559 0.97853 1.00973 0.0
H278 H 0.41859 0.06863 0.03858 0.0
C279 C 0.26396 1.00297 1.01745 0.0
H280 H 0.37691 0.98506 1.01177 0.0
C281 C 0.28762 0.05041 0.03302 0.0
C282 C 0.34368 0.07496 0.04069 0.0
H283 H 0.22072 0.9849 1.01173 0.0
H284 H 0.26236 0.06839 0.03877 0.0
C285 C 0.37543 0.0508 0.03275 0.0
C286 C 0.32105 0.35604 0.34625 0.0
C287 C 0.31765 0.34353 0.37302 0.0
H288 H 0.34657 0.34528 0.30817 0.0
C289 C 0.33894 0.30994 0.38187 0.0
H290 H 0.30474 0.3815 0.33883 0.0
C291 C 0.36299 0.28924 0.36433 0.0
C292 C 0.36567 0.30112 0.33751 0.0
H293 H 0.33751 0.30006 0.40242 0.0
H294 H 0.3787 0.26323 0.37169 0.0
C295 C 0.34449 0.33481 0.32867 0.0
C296 C 0.0554 0.32257 0.71722 0.0
C297 C 1.00019 0.29297 0.70819 0.0
H298 H 0.14207 0.36608 0.7073 0.0
C299 C 0.99079 0.2844 0.68116 0.0
H300 H 0.06411 0.33046 0.73788 0.0
C301 C 1.03564 0.30486 0.66359 0.0
C302 C 0.09082 0.33493 0.67266 0.0
H303 H 0.94877 0.26148 0.67362 0.0
H304 H 1.02707 0.29804 0.64287 0.0
C305 C 0.10011 0.34348 0.69968 0.0
C306 C 0.80261 1.00341 0.03402 0.0
C307 C 0.74659 0.97925 0.04186 0.0
H308 H 0.86929 0.06761 1.01189 0.0
C309 C 0.71468 1.00276 0.03334 0.0
H310 H 0.82797 0.98588 0.04021 0.0
C311 C 0.73847 0.04984 1.01752 0.0
C312 C 0.79433 0.07368 1.00945 0.0
H313 H 0.67155 0.98519 0.03928 0.0
H314 H 0.71299 0.06717 1.01125 0.0
C315 C 0.82608 0.04983 1.01773 0.0
C316 C 0.73662 0.77523 0.36771 0.0
C317 C 0.73866 0.76875 0.34056 0.0
H318 H 0.75884 0.7599 0.40565 0.0
C319 C 0.76592 0.74122 0.33087 0.0
H320 H 0.71617 0.79655 0.37568 0.0
C321 C 0.78989 0.71986 0.34799 0.0
C322 C 0.78795 0.72642 0.37514 0.0
H323 H 0.76769 0.73519 0.31006 0.0
H324 H 0.81027 0.69847 0.34002 0.0
C325 C 0.76145 0.75471 0.38482 0.0
C326 C 0.05934 0.75519 0.66693 0.0
C327 C 1.00405 0.72271 0.67566 0.0
H328 H 0.14587 0.79934 0.67732 0.0
C329 C 0.99417 0.7104 0.70243 0.0
H330 H 0.06834 0.76491 0.64638 0.0
C331 C 1.03844 0.73015 0.72008 0.0
C332 C 0.09376 0.76225 0.71137 0.0
H333 H 0.95208 0.68583 0.70978 0.0
H334 H 1.02935 0.7195 0.74054 0.0
C335 C 0.10376 0.77444 0.68458 0.0
C336 C 0.69088 0.27831 1.01453 0.0
C337 C 0.68523 0.22818 1.00559 0.0
H338 H 0.6573 0.31788 0.03855 0.0
C339 C 0.6405 0.17844 1.01481 0.0
H340 H 0.725 0.31729 1.00779 0.0
C341 C 0.60253 0.17878 0.0328 0.0
C342 C 0.60787 0.22887 0.04159 0.0
H343 H 0.63531 0.13914 1.00845 0.0
H344 H 0.56852 0.13974 0.03955 0.0
C345 C 0.6522 0.27865 0.03214 0.0
C346 C 0.33222 0.6197 0.33827 0.0
C347 C 0.34667 0.60013 0.36056 0.0
H348 H 0.36075 0.67683 0.30628 0.0
C349 C 0.40313 0.62407 0.36745 0.0
H350 H 0.28906 0.60218 0.33247 0.0
C351 C 0.44429 0.66629 0.3522 0.0
C352 C 0.4298 0.68608 0.32996 0.0
H353 H 0.41562 0.6097 0.38443 0.0
H354 H 0.48745 0.68379 0.35799 0.0
C355 C 0.37329 0.6625 0.32325 0.0
C356 C 0.76042 0.36657 0.70632 0.0
C357 C 0.81598 0.38002 0.71072 0.0
H358 H 0.70494 0.38834 0.68738 0.0
C359 C 0.85894 0.42716 0.69858 0.0
H360 H 0.72631 0.33048 0.71534 0.0
C361 C 0.84663 0.45992 0.68229 0.0
C362 C 0.79109 0.44661 0.67797 0.0
H363 H 0.90215 0.43854 0.70143 0.0
H364 H 0.88078 0.49604 0.67331 0.0
C365 C 0.74814 0.39967 0.69024 0.0
C366 C 0.39988 0.77485 1.01824 0.0
C367 C 0.40577 0.82466 1.00868 0.0
H368 H 0.43323 0.73609 0.04284 0.0
C369 C 0.45053 0.8747 1.01749 0.0
H370 H 0.36573 0.73565 1.01182 0.0
C371 C 0.4884 0.87497 0.03564 0.0
C372 C 0.48293 0.82519 0.04499 0.0
H373 H 0.45591 0.91378 1.01067 0.0
H374 H 0.52252 0.91424 0.04201 0.0
C375 C 0.43845 0.7751 0.03601 0.0
C376 C 0.66791 0.3598 0.34539 0.0
C377 C 0.62943 0.37615 0.33764 0.0
H378 H 0.74066 0.37901 0.36784 0.0
C379 C 0.63541 0.42585 0.34742 0.0
H380 H 0.66444 0.32168 0.33827 0.0
C381 C 0.6787 0.45837 0.3646 0.0
C382 C 0.71736 0.4422 0.37224 0.0
H383 H 0.60635 0.43953 0.342 0.0
H384 H 0.68215 0.49652 0.37166 0.0
C385 C 0.71153 0.3926 0.3624 0.0
C386 C 0.2499 0.59776 0.68436 0.0
C387 C 0.30559 0.61207 0.67946 0.0
H388 H 0.19394 0.61783 0.70416 0.0
C389 C 0.34836 0.65937 0.69148 0.0
H390 H 0.21588 0.56136 0.67556 0.0
C391 C 0.33573 0.69188 0.70785 0.0
C392 C 0.28002 0.6775 0.71277 0.0
H393 H 0.39167 0.67147 0.68818 0.0
H394 H 0.36969 0.72831 0.71665 0.0
C395 C 0.23727 0.62994 0.70091 0.0
C396 C 0.5303 0.30459 0.17173 0.0
C397 C 0.51579 0.25292 0.16086 0.0
H398 H 0.54589 0.35261 0.20658 0.0
C399 C 0.5085 0.20996 0.17767 0.0
H400 H 0.53638 0.33863 0.15936 0.0
C401 C 0.51413 0.21802 0.20473 0.0
C402 C 0.52706 0.26921 0.21567 0.0
H403 H 0.49756 0.1697 0.16998 0.0
H404 H 0.50716 0.18367 0.21709 0.0
C405 C 0.53581 0.31262 0.19883 0.0
C406 C 0.28284 0.57686 0.51259 0.0
C407 C 0.28293 0.53462 0.49765 0.0
H408 H 0.28506 0.60914 0.55087 0.0
C409 C 0.28787 0.49282 0.51061 0.0
H410 H 0.2792 0.60972 0.50324 0.0
C411 C 0.29157 0.49266 0.53787 0.0
C412 C 0.29007 0.53409 0.55288 0.0
H413 H 0.28832 0.45975 0.49974 0.0
H414 H 0.29449 0.45934 0.54718 0.0
C415 C 0.28619 0.5765 0.53991 0.0
C416 C 0.76899 0.20964 0.8698 0.0
C417 C 0.80505 0.25189 0.88679 0.0
H418 H 0.74459 0.18431 0.83024 0.0
C419 C 0.84385 0.30325 0.87609 0.0
H420 H 0.73844 0.16964 0.87734 0.0
C421 C 0.8474 0.31168 0.849 0.0
C422 C 0.81216 0.269 0.83198 0.0
H423 H 0.87217 0.33675 0.8886 0.0
H424 H 0.87842 0.35142 0.8414 0.0
C425 C 0.77245 0.2181 0.84274 0.0
C426 C 0.5801 0.84072 0.18144 0.0
C427 C 0.57636 0.79953 0.16436 0.0
H428 H 0.57967 0.8652 0.22108 0.0
C429 C 0.56674 0.74908 0.17498 0.0
H430 H 0.58726 0.88 0.17396 0.0
C431 C 0.56247 0.74061 0.20207 0.0
C432 C 0.56751 0.7823 0.21918 0.0
H433 H 0.56351 0.7164 0.1624 0.0
H434 H 0.55611 0.70165 0.2096 0.0
C435 C 0.57562 0.83218 0.20851 0.0
C436 C 0.81855 0.57343 0.53804 0.0
C437 C 0.78513 0.5245 0.55203 0.0
H438 H 0.84834 0.6114 0.50073 0.0
C439 C 0.7556 0.47484 0.53806 0.0
H440 H 0.84206 0.61243 0.54813 0.0
C441 C 0.75913 0.47427 0.51072 0.0
C442 C 0.79253 0.52329 0.49677 0.0
H443 H 0.72954 0.43639 0.54822 0.0
H444 H 0.73561 0.43541 0.50054 0.0
C445 C 0.82233 0.57281 0.5108 0.0
C446 C 0.32463 0.84455 0.8723 0.0
C447 C 0.28934 0.80137 0.88915 0.0
H448 H 0.34894 0.87123 0.83282 0.0
C449 C 0.25203 0.74976 0.87827 0.0
H450 H 0.35404 0.88478 0.87999 0.0
C451 C 0.24909 0.74197 0.85115 0.0
C452 C 0.28345 0.78557 0.83428 0.0
H453 H 0.22433 0.71555 0.89067 0.0
H454 H 0.21914 0.70199 0.8434 0.0
C455 C 0.32177 0.83674 0.84521 0.0
C456 C 0.5566 0.55627 0.08261 0.0
C457 C 0.56815 0.58602 0.05909 0.0
H458 H 0.52705 0.47702 0.10063 0.0
C459 C 0.55757 0.55748 0.03528 0.0
H460 H 0.56467 0.57739 0.10121 0.0
C461 C 0.53558 0.50041 0.03495 0.0
C462 C 0.52449 0.47062 0.05842 0.0
H463 H 0.56559 0.57927 1.01686 0.0
H464 H 0.52797 0.47961 1.01629 0.0
C465 C 0.53552 0.49911 0.08228 0.0
C466 C 1.02971 0.54406 0.42212 0.0
C467 C 1.00284 0.5419 0.39849 0.0
H468 H 0.08657 0.52488 0.44198 0.0
C469 C 1.01227 0.51723 0.37659 0.0
H470 H 1.02322 0.56309 0.43922 0.0
C471 C 0.0474 0.49473 0.37828 0.0
C472 C 0.07483 0.49738 0.40176 0.0
H473 H 0.99174 0.51465 0.35821 0.0
H474 H 0.05377 0.47586 0.36109 0.0
C475 C 0.06605 0.52263 0.42364 0.0
C476 C 0.57579 0.04621 0.75117 0.0
C477 C 0.60459 0.06411 0.7273 0.0
H478 H 0.49692 0.99722 0.77019 0.0
C479 C 0.57451 0.0461 0.70383 0.0
H480 H 0.59803 0.0593 0.76952 0.0
C481 C 0.51677 1.01125 0.70422 0.0
C482 C 0.48801 0.99294 0.72808 0.0
H483 H 0.59554 0.05969 0.68517 0.0
H484 H 0.4947 0.99787 0.68584 0.0
C485 C 0.51813 1.01055 0.75155 0.0
C486 C 0.57665 0.5388 0.62886 0.0
C487 C 0.60598 0.54943 0.65254 0.0
H488 H 0.49714 0.51048 0.61044 0.0
C489 C 0.57623 0.53815 0.67617 0.0
H490 H 0.5986 0.54737 0.61038 0.0
C491 C 0.51861 0.51675 0.67621 0.0
C492 C 0.48919 0.50667 0.65262 0.0
H493 H 0.5975 0.54536 0.69472 0.0
H494 H 0.49714 0.50887 0.69479 0.0
C495 C 0.51882 0.51815 0.6289 0.0
C496 C 0.06264 0.55324 1.01551 0.0
C497 C 0.08126 0.58292 0.99199 0.0
H498 H 1.01405 0.47441 0.03371 0.0
C499 C 0.06394 0.55427 0.96817 0.0
H500 H 0.07573 0.57417 0.03414 0.0
C501 C 1.02806 0.49705 0.96793 0.0
C502 C 1.00995 0.46742 0.9915 0.0
H503 H 0.07751 0.57627 0.94979 0.0
H504 H 1.01511 0.47581 0.94936 0.0
C505 C 1.02777 0.49611 1.01526 0.0
C506 C 0.53467 0.99506 0.34743 0.0
C507 C 0.55253 0.98008 0.32467 0.0
H508 H 0.50112 0.04282 0.36408 0.0
C509 C 0.54953 1.00275 0.3006 0.0
H510 H 0.53595 0.97785 0.36621 0.0
C511 C 0.52984 0.04025 0.29941 0.0
C512 C 0.51183 0.05506 0.32219 0.0
H513 H 0.56328 0.99214 0.28279 0.0
H514 H 0.52817 0.05729 0.28064 0.0
C515 C 0.51418 0.03181 0.34618 0.0
loop_
_geom_bond_atom_site_label_1
_geom_bond_atom_site_label_2
_geom_bond_distance
_geom_bond_site_symmetry_2
_ccdc_geom_bond_type
Cu0 N1 1.999 . S
Cu0 O6 1.974 . S
Cu0 N11 1.985 . S
Cu0 O20 1.959 . S
N1 Cu0 1.999 . S
N1 C3 1.263 . S
N1 C5 1.389 . S
N2 C3 1.358 . S
N2 C4 1.400 . S
C3 N1 1.263 . S
C3 N2 1.358 . S
C3 H9 0.930 . S
C4 N2 1.400 . S
C4 C5 1.351 . S
C4 H21 0.930 . S
C5 N1 1.389 . S
C5 C4 1.351 . S
C5 H10 0.930 . S
O6 Cu0 1.974 . S
O6 C16 1.282 . S
C7 O8 1.261 . S
C7 O20 1.251 . S
O8 C7 1.261 . S
H9 C3 0.930 . S
H10 C5 0.930 . S
N11 Cu0 1.985 . S
N11 C13 1.335 . S
N11 C14 1.390 . S
N12 C13 1.345 . S
N12 C15 1.336 . S
C13 N11 1.335 . S
C13 N12 1.345 . S
C13 H18 0.930 . S
C14 N11 1.390 . S
C14 C15 1.346 . S
C14 H19 0.930 . S
C15 N12 1.336 . S
C15 C14 1.346 . S
C15 H22 0.929 . S
C16 O6 1.282 . S
C16 O17 1.216 . S
O17 C16 1.216 . S
H18 C13 0.930 . S
H19 C14 0.930 . S
O20 Cu0 1.959 . S
O20 C7 1.251 . S
H21 C4 0.930 . S
H22 C15 0.929 . S
Cu23 N24 1.999 . S
Cu23 O29 1.974 . S
Cu23 N34 1.985 . S
Cu23 O43 1.959 . S
N24 Cu23 1.999 . S
N24 C26 1.263 . S
N24 C28 1.389 . S
N25 C26 1.358 . S
N25 C27 1.400 . S
C26 N24 1.263 . S
C26 N25 1.358 . S
C26 H32 0.930 . S
C27 N25 1.400 . S
C27 C28 1.351 . S
C27 H44 0.930 . S
C28 N24 1.389 . S
C28 C27 1.351 . S
C28 H33 0.930 . S
O29 Cu23 1.974 . S
O29 C39 1.282 . S
C30 O31 1.261 . S
C30 O43 1.251 . S
O31 C30 1.261 . S
H32 C26 0.930 . S
H33 C28 0.930 . S
N34 Cu23 1.985 . S
N34 C36 1.335 . S
N34 C37 1.390 . S
N35 C36 1.345 . S
N35 C38 1.336 . S
C36 N34 1.335 . S
C36 N35 1.345 . S
C36 H41 0.930 . S
C37 N34 1.390 . S
C37 C38 1.346 . S
C37 H42 0.930 . S
C38 N35 1.336 . S
C38 C37 1.346 . S
C38 H45 0.929 . S
C39 O29 1.282 . S
C39 O40 1.216 . S
O40 C39 1.216 . S
H41 C36 0.930 . S
H42 C37 0.930 . S
O43 Cu23 1.959 . S
O43 C30 1.251 . S
H44 C27 0.930 . S
H45 C38 0.929 . S
Cu46 N47 1.999 . S
Cu46 O52 1.974 . S
Cu46 N57 1.985 . S
Cu46 O66 1.959 . S
N47 Cu46 1.999 . S
N47 C49 1.263 . S
N47 C51 1.389 . S
N48 C49 1.358 . S
N48 C50 1.400 . S
C49 N47 1.263 . S
C49 N48 1.358 . S
C49 H55 0.930 . S
C50 N48 1.400 . S
C50 C51 1.351 . S
C50 H67 0.930 . S
C51 N47 1.389 . S
C51 C50 1.351 . S
C51 H56 0.930 . S
O52 Cu46 1.974 . S
O52 C62 1.282 . S
C53 O54 1.261 . S
C53 O66 1.251 . S
O54 C53 1.261 . S
H55 C49 0.930 . S
H56 C51 0.930 . S
N57 Cu46 1.985 . S
N57 C59 1.335 . S
N57 C60 1.390 . S
N58 C59 1.345 . S
N58 C61 1.336 . S
C59 N57 1.335 . S
C59 N58 1.345 . S
C59 H64 0.930 . S
C60 N57 1.390 . S
C60 C61 1.346 . S
C60 H65 0.930 . S
C61 N58 1.336 . S
C61 C60 1.346 . S
C61 H68 0.929 . S
C62 O52 1.282 . S
C62 O63 1.216 . S
O63 C62 1.216 . S
H64 C59 0.930 . S
H65 C60 0.930 . S
O66 Cu46 1.959 . S
O66 C53 1.251 . S
H67 C50 0.930 . S
H68 C61 0.929 . S
Cu69 N70 1.999 . S
Cu69 O75 1.974 . S
Cu69 N80 1.985 . S
Cu69 O89 1.959 . S
N70 Cu69 1.999 . S
N70 C72 1.263 . S
N70 C74 1.389 . S
N71 C72 1.358 . S
N71 C73 1.400 . S
C72 N70 1.263 . S
C72 N71 1.358 . S
C72 H78 0.930 . S
C73 N71 1.400 . S
C73 C74 1.351 . S
C73 H90 0.930 . S
C74 N70 1.389 . S
C74 C73 1.351 . S
C74 H79 0.930 . S
O75 Cu69 1.974 . S
O75 C85 1.282 . S
C76 O77 1.261 . S
C76 O89 1.251 . S
O77 C76 1.261 . S
H78 C72 0.930 . S
H79 C74 0.930 . S
N80 Cu69 1.985 . S
N80 C82 1.335 . S
N80 C83 1.390 . S
N81 C82 1.345 . S
N81 C84 1.336 . S
C82 N80 1.335 . S
C82 N81 1.345 . S
C82 H87 0.930 . S
C83 N80 1.390 . S
C83 C84 1.346 . S
C83 H88 0.930 . S
C84 N81 1.336 . S
C84 C83 1.346 . S
C84 H91 0.929 . S
C85 O75 1.282 . S
C85 O86 1.216 . S
O86 C85 1.216 . S
H87 C82 0.930 . S
H88 C83 0.930 . S
O89 Cu69 1.959 . S
O89 C76 1.251 . S
H90 C73 0.930 . S
H91 C84 0.929 . S
Cu92 N93 1.999 . S
Cu92 O98 1.974 . S
Cu92 N103 1.985 . S
Cu92 O112 1.959 . S
N93 Cu92 1.999 . S
N93 C95 1.263 . S
N93 C97 1.389 . S
N94 C95 1.358 . S
N94 C96 1.400 . S
C95 N93 1.263 . S
C95 N94 1.358 . S
C95 H101 0.930 . S
C96 N94 1.400 . S
C96 C97 1.351 . S
C96 H113 0.930 . S
C97 N93 1.389 . S
C97 C96 1.351 . S
C97 H102 0.930 . S
O98 Cu92 1.974 . S
O98 C108 1.282 . S
C99 O100 1.261 . S
C99 O112 1.251 . S
O100 C99 1.261 . S
H101 C95 0.930 . S
H102 C97 0.930 . S
N103 Cu92 1.985 . S
N103 C105 1.335 . S
N103 C106 1.390 . S
N104 C105 1.345 . S
N104 C107 1.336 . S
C105 N103 1.335 . S
C105 N104 1.345 . S
C105 H110 0.930 . S
C106 N103 1.390 . S
C106 C107 1.346 . S
C106 H111 0.930 . S
C107 N104 1.336 . S
C107 C106 1.346 . S
C107 H114 0.929 . S
C108 O98 1.282 . S
C108 O109 1.216 . S
O109 C108 1.216 . S
H110 C105 0.930 . S
H111 C106 0.930 . S
O112 Cu92 1.959 . S
O112 C99 1.251 . S
H113 C96 0.930 . S
H114 C107 0.929 . S
Cu115 N116 1.999 . S
Cu115 O121 1.974 . S
Cu115 N126 1.985 . S
Cu115 O135 1.959 . S
N116 Cu115 1.999 . S
N116 C118 1.263 . S
N116 C120 1.389 . S
N117 C118 1.358 . S
N117 C119 1.400 . S
C118 N116 1.263 . S
C118 N117 1.358 . S
C118 H124 0.930 . S
C119 N117 1.400 . S
C119 C120 1.351 . S
C119 H136 0.930 . S
C120 N116 1.389 . S
C120 C119 1.351 . S
C120 H125 0.930 . S
O121 Cu115 1.974 . S
O121 C131 1.282 . S
C122 O123 1.261 . S
C122 O135 1.251 . S
O123 C122 1.261 . S
H124 C118 0.930 . S
H125 C120 0.930 . S
N126 Cu115 1.985 . S
N126 C128 1.335 . S
N126 C129 1.390 . S
N127 C128 1.345 . S
N127 C130 1.336 . S
C128 N126 1.335 . S
C128 N127 1.345 . S
C128 H133 0.930 . S
C129 N126 1.390 . S
C129 C130 1.346 . S
C129 H134 0.930 . S
C130 N127 1.336 . S
C130 C129 1.346 . S
C130 H137 0.929 . S
C131 O121 1.282 . S
C131 O132 1.216 . S
O132 C131 1.216 . S
H133 C128 0.930 . S
H134 C129 0.930 . S
O135 Cu115 1.959 . S
O135 C122 1.251 . S
H136 C119 0.930 . S
H137 C130 0.929 . S
Cu138 N139 1.999 . S
Cu138 O144 1.974 . S
Cu138 N149 1.985 . S
Cu138 O158 1.959 . S
N139 Cu138 1.999 . S
N139 C141 1.263 . S
N139 C143 1.389 . S
N140 C141 1.358 . S
N140 C142 1.400 . S
C141 N139 1.263 . S
C141 N140 1.358 . S
C141 H147 0.930 . S
C142 N140 1.400 . S
C142 C143 1.351 . S
C142 H159 0.930 . S
C143 N139 1.389 . S
C143 C142 1.351 . S
C143 H148 0.930 . S
O144 Cu138 1.974 . S
O144 C154 1.282 . S
C145 O146 1.261 . S
C145 O158 1.251 . S
O146 C145 1.261 . S
H147 C141 0.930 . S
H148 C143 0.930 . S
N149 Cu138 1.985 . S
N149 C151 1.335 . S
N149 C152 1.390 . S
N150 C151 1.345 . S
N150 C153 1.336 . S
C151 N149 1.335 . S
C151 N150 1.345 . S
C151 H156 0.930 . S
C152 N149 1.390 . S
C152 C153 1.346 . S
C152 H157 0.930 . S
C153 N150 1.336 . S
C153 C152 1.346 . S
C153 H160 0.929 . S
C154 O144 1.282 . S
C154 O155 1.216 . S
O155 C154 1.216 . S
H156 C151 0.930 . S
H157 C152 0.930 . S
O158 Cu138 1.959 . S
O158 C145 1.251 . S
H159 C142 0.930 . S
H160 C153 0.929 . S
Cu161 N162 1.999 . S
Cu161 O167 1.974 . S
Cu161 N172 1.985 . S
Cu161 O181 1.959 . S
N162 Cu161 1.999 . S
N162 C164 1.263 . S
N162 C166 1.389 . S
N163 C164 1.358 . S
N163 C165 1.400 . S
C164 N162 1.263 . S
C164 N163 1.358 . S
C164 H170 0.930 . S
C165 N163 1.400 . S
C165 C166 1.351 . S
C165 H182 0.930 . S
C166 N162 1.389 . S
C166 C165 1.351 . S
C166 H171 0.930 . S
O167 Cu161 1.974 . S
O167 C177 1.282 . S
C168 O169 1.261 . S
C168 O181 1.251 . S
O169 C168 1.261 . S
H170 C164 0.930 . S
H171 C166 0.930 . S
N172 Cu161 1.985 . S
N172 C174 1.335 . S
N172 C175 1.390 . S
N173 C174 1.345 . S
N173 C176 1.336 . S
C174 N172 1.335 . S
C174 N173 1.345 . S
C174 H179 0.930 . S
C175 N172 1.390 . S
C175 C176 1.346 . S
C175 H180 0.930 . S
C176 N173 1.336 . S
C176 C175 1.346 . S
C176 H183 0.929 . S
C177 O167 1.282 . S
C177 O178 1.216 . S
O178 C177 1.216 . S
H179 C174 0.930 . S
H180 C175 0.930 . S
O181 Cu161 1.959 . S
O181 C168 1.251 . S
H182 C165 0.930 . S
H183 C176 0.929 . S
Cu184 N185 1.999 . S
Cu184 O190 1.974 . S
Cu184 N195 1.985 . S
Cu184 O204 1.959 . S
N185 Cu184 1.999 . S
N185 C187 1.263 . S
N185 C189 1.389 . S
N186 C187 1.358 . S
N186 C188 1.400 . S
C187 N185 1.263 . S
C187 N186 1.358 . S
C187 H193 0.930 . S
C188 N186 1.400 . S
C188 C189 1.351 . S
C188 H205 0.930 . S
C189 N185 1.389 . S
C189 C188 1.351 . S
C189 H194 0.930 . S
O190 Cu184 1.974 . S
O190 C200 1.282 . S
C191 O192 1.261 . S
C191 O204 1.251 . S
O192 C191 1.261 . S
H193 C187 0.930 . S
H194 C189 0.930 . S
N195 Cu184 1.985 . S
N195 C197 1.335 . S
N195 C198 1.390 . S
N196 C197 1.345 . S
N196 C199 1.336 . S
C197 N195 1.335 . S
C197 N196 1.345 . S
C197 H202 0.930 . S
C198 N195 1.390 . S
C198 C199 1.346 . S
C198 H203 0.930 . S
C199 N196 1.336 . S
C199 C198 1.346 . S
C199 H206 0.929 . S
C200 O190 1.282 . S
C200 O201 1.216 . S
O201 C200 1.216 . S
H202 C197 0.930 . S
H203 C198 0.930 . S
O204 Cu184 1.959 . S
O204 C191 1.251 . S
H205 C188 0.930 . S
H206 C199 0.929 . S
Cu207 N208 1.999 . S
Cu207 O213 1.974 . S
Cu207 N218 1.985 . S
Cu207 O227 1.959 . S
N208 Cu207 1.999 . S
N208 C210 1.263 . S
N208 C212 1.389 . S
N209 C210 1.358 . S
N209 C211 1.400 . S
C210 N208 1.263 . S
C210 N209 1.358 . S
C210 H216 0.930 . S
C211 N209 1.400 . S
C211 C212 1.351 . S
C211 H228 0.930 . S
C212 N208 1.389 . S
C212 C211 1.351 . S
C212 H217 0.930 . S
O213 Cu207 1.974 . S
O213 C223 1.282 . S
C214 O215 1.261 . S
C214 O227 1.251 . S
O215 C214 1.261 . S
H216 C210 0.930 . S
H217 C212 0.930 . S
N218 Cu207 1.985 . S
N218 C220 1.335 . S
N218 C221 1.390 . S
N219 C220 1.345 . S
N219 C222 1.336 . S
C220 N218 1.335 . S
C220 N219 1.345 . S
C220 H225 0.930 . S
C221 N218 1.390 . S
C221 C222 1.346 . S
C221 H226 0.930 . S
C222 N219 1.336 . S
C222 C221 1.346 . S
C222 H229 0.929 . S
C223 O213 1.282 . S
C223 O224 1.216 . S
O224 C223 1.216 . S
H225 C220 0.930 . S
H226 C221 0.930 . S
O227 Cu207 1.959 . S
O227 C214 1.251 . S
H228 C211 0.930 . S
H229 C222 0.929 . S
Cu230 N231 1.999 . S
Cu230 O236 1.974 . S
Cu230 N241 1.985 . S
Cu230 O250 1.959 . S
N231 Cu230 1.999 . S
N231 C233 1.263 . S
N231 C235 1.389 . S
N232 C233 1.358 . S
N232 C234 1.400 . S
C233 N231 1.263 . S
C233 N232 1.358 . S
C233 H239 0.930 . S
C234 N232 1.400 . S
C234 C235 1.351 . S
C234 H251 0.930 . S
C235 N231 1.389 . S
C235 C234 1.351 . S
C235 H240 0.930 . S
O236 Cu230 1.974 . S
O236 C246 1.282 . S
C237 O238 1.261 . S
C237 O250 1.251 . S
O238 C237 1.261 . S
H239 C233 0.930 . S
H240 C235 0.930 . S
N241 Cu230 1.985 . S
N241 C243 1.335 . S
N241 C244 1.390 . S
N242 C243 1.345 . S
N242 C245 1.336 . S
C243 N241 1.335 . S
C243 N242 1.345 . S
C243 H248 0.930 . S
C244 N241 1.390 . S
C244 C245 1.346 . S
C244 H249 0.930 . S
C245 N242 1.336 . S
C245 C244 1.346 . S
C245 H252 0.929 . S
C246 O236 1.282 . S
C246 O247 1.216 . S
O247 C246 1.216 . S
H248 C243 0.930 . S
H249 C244 0.930 . S
O250 Cu230 1.959 . S
O250 C237 1.251 . S
H251 C234 0.930 . S
H252 C245 0.929 . S
Cu253 N254 1.999 . S
Cu253 O259 1.974 . S
Cu253 N264 1.985 . S
Cu253 O273 1.959 . S
N254 Cu253 1.999 . S
N254 C256 1.263 . S
N254 C258 1.389 . S
N255 C256 1.358 . S
N255 C257 1.400 . S
C256 N254 1.263 . S
C256 N255 1.358 . S
C256 H262 0.930 . S
C257 N255 1.400 . S
C257 C258 1.351 . S
C257 H274 0.930 . S
C258 N254 1.389 . S
C258 C257 1.351 . S
C258 H263 0.930 . S
O259 Cu253 1.974 . S
O259 C269 1.282 . S
C260 O261 1.261 . S
C260 O273 1.251 . S
O261 C260 1.261 . S
H262 C256 0.930 . S
H263 C258 0.930 . S
N264 Cu253 1.985 . S
N264 C266 1.335 . S
N264 C267 1.390 . S
N265 C266 1.345 . S
N265 C268 1.336 . S
C266 N264 1.335 . S
C266 N265 1.345 . S
C266 H271 0.930 . S
C267 N264 1.390 . S
C267 C268 1.346 . S
C267 H272 0.930 . S
C268 N265 1.336 . S
C268 C267 1.346 . S
C268 H275 0.929 . S
C269 O259 1.282 . S
C269 O270 1.216 . S
O270 C269 1.216 . S
H271 C266 0.930 . S
H272 C267 0.930 . S
O273 Cu253 1.959 . S
O273 C260 1.251 . S
H274 C257 0.930 . S
H275 C268 0.929 . S
C276 C277 1.387 . S
C276 H280 0.950 . S
C276 C285 1.390 1_566 S
C277 C276 1.387 . S
C277 C279 1.387 . S
H278 C285 0.950 . S
C279 C277 1.387 . S
C279 C281 1.390 1_566 S
C279 H283 0.950 . S
H280 C276 0.950 . S
C281 C279 1.390 1_544 S
C281 C282 1.387 . S
C281 H284 0.950 . S
C282 C281 1.387 . S
C282 C285 1.387 . S
H283 C279 0.950 . S
H284 C281 0.950 . S
C285 C276 1.390 1_544 S
C285 H278 0.950 . S
C285 C282 1.387 . S
C286 C287 1.387 . S
C286 H290 0.950 . S
C286 C295 1.390 . S
C287 C286 1.387 . S
C287 C289 1.387 . S
H288 C295 0.950 . S
C289 C287 1.387 . S
C289 C291 1.390 . S
C289 H293 0.950 . S
H290 C286 0.950 . S
C291 C289 1.390 . S
C291 C292 1.387 . S
C291 H294 0.950 . S
C292 C291 1.387 . S
C292 C295 1.387 . S
H293 C289 0.950 . S
H294 C291 0.950 . S
C295 C286 1.390 . S
C295 H288 0.950 . S
C295 C292 1.387 . S
C296 C297 1.387 1_455 S
C296 H300 0.950 . S
C296 C305 1.390 . S
C297 C296 1.387 1_655 S
C297 C299 1.387 . S
H298 C305 0.950 . S
C299 C297 1.387 . S
C299 C301 1.390 . S
C299 H303 0.950 . S
H300 C296 0.950 . S
C301 C299 1.390 . S
C301 C302 1.387 1_655 S
C301 H304 0.950 . S
C302 C301 1.387 1_455 S
C302 C305 1.387 . S
H303 C299 0.950 . S
H304 C301 0.950 . S
C305 C296 1.390 . S
C305 H298 0.950 . S
C305 C302 1.387 . S
C306 C307 1.387 . S
C306 H310 0.950 . S
C306 C315 1.390 1_564 S
C307 C306 1.387 . S
C307 C309 1.387 . S
H308 C315 0.950 . S
C309 C307 1.387 . S
C309 C311 1.390 1_564 S
C309 H313 0.950 . S
H310 C306 0.950 . S
C311 C309 1.390 1_546 S
C311 C312 1.387 . S
C311 H314 0.950 . S
C312 C311 1.387 . S
C312 C315 1.387 . S
H313 C309 0.950 . S
H314 C311 0.950 . S
C315 C306 1.390 1_546 S
C315 H308 0.950 . S
C315 C312 1.387 . S
C316 C317 1.387 . S
C316 H320 0.950 . S
C316 C325 1.390 . S
C317 C316 1.387 . S
C317 C319 1.387 . S
H318 C325 0.950 . S
C319 C317 1.387 . S
C319 C321 1.390 . S
C319 H323 0.950 . S
H320 C316 0.950 . S
C321 C319 1.390 . S
C321 C322 1.387 . S
C321 H324 0.950 . S
C322 C321 1.387 . S
C322 C325 1.387 . S
H323 C319 0.950 . S
H324 C321 0.950 . S
C325 C316 1.390 . S
C325 H318 0.950 . S
C325 C322 1.387 . S
C326 C327 1.387 1_455 S
C326 H330 0.950 . S
C326 C335 1.390 . S
C327 C326 1.387 1_655 S
C327 C329 1.387 . S
H328 C335 0.950 . S
C329 C327 1.387 . S
C329 C331 1.390 . S
C329 H333 0.950 . S
H330 C326 0.950 . S
C331 C329 1.390 . S
C331 C332 1.387 1_655 S
C331 H334 0.950 . S
C332 C331 1.387 1_455 S
C332 C335 1.387 . S
H333 C329 0.950 . S
H334 C331 0.950 . S
C335 C326 1.390 . S
C335 H328 0.950 . S
C335 C332 1.387 . S
C336 C337 1.387 . S
C336 H340 0.950 . S
C336 C345 1.390 1_556 S
C337 C336 1.387 . S
C337 C339 1.387 . S
H338 C345 0.950 . S
C339 C337 1.387 . S
C339 C341 1.390 1_556 S
C339 H343 0.950 . S
H340 C336 0.950 . S
C341 C339 1.390 1_554 S
C341 C342 1.387 . S
C341 H344 0.950 . S
C342 C341 1.387 . S
C342 C345 1.387 . S
H343 C339 0.950 . S
H344 C341 0.950 . S
C345 C336 1.390 1_554 S
C345 H338 0.950 . S
C345 C342 1.387 . S
C346 C347 1.387 . S
C346 H350 0.950 . S
C346 C355 1.390 . S
C347 C346 1.387 . S
C347 C349 1.387 . S
H348 C355 0.950 . S
C349 C347 1.387 . S
C349 C351 1.390 . S
C349 H353 0.950 . S
H350 C346 0.950 . S
C351 C349 1.390 . S
C351 C352 1.387 . S
C351 H354 0.950 . S
C352 C351 1.387 . S
C352 C355 1.387 . S
H353 C349 0.950 . S
H354 C351 0.950 . S
C355 C346 1.390 . S
C355 H348 0.950 . S
C355 C352 1.387 . S
C356 C357 1.387 . S
C356 H360 0.950 . S
C356 C365 1.390 . S
C357 C356 1.387 . S
C357 C359 1.387 . S
H358 C365 0.950 . S
C359 C357 1.387 . S
C359 C361 1.390 . S
C359 H363 0.950 . S
H360 C356 0.950 . S
C361 C359 1.390 . S
C361 C362 1.387 . S
C361 H364 0.950 . S
C362 C361 1.387 . S
C362 C365 1.387 . S
H363 C359 0.950 . S
H364 C361 0.950 . S
C365 C356 1.390 . S
C365 H358 0.950 . S
C365 C362 1.387 . S
C366 C367 1.387 . S
C366 H370 0.950 . S
C366 C375 1.390 1_556 S
C367 C366 1.387 . S
C367 C369 1.387 . S
H368 C375 0.950 . S
C369 C367 1.387 . S
C369 C371 1.390 1_556 S
C369 H373 0.950 . S
H370 C366 0.950 . S
C371 C369 1.390 1_554 S
C371 C372 1.387 . S
C371 H374 0.950 . S
C372 C371 1.387 . S
C372 C375 1.387 . S
H373 C369 0.950 . S
H374 C371 0.950 . S
C375 C366 1.390 1_554 S
C375 H368 0.950 . S
C375 C372 1.387 . S
C376 C377 1.387 . S
C376 H380 0.950 . S
C376 C385 1.390 . S
C377 C376 1.387 . S
C377 C379 1.387 . S
H378 C385 0.950 . S
C379 C377 1.387 . S
C379 C381 1.390 . S
C379 H383 0.950 . S
H380 C376 0.950 . S
C381 C379 1.390 . S
C381 C382 1.387 . S
C381 H384 0.950 . S
C382 C381 1.387 . S
C382 C385 1.387 . S
H383 C379 0.950 . S
H384 C381 0.950 . S
C385 C376 1.390 . S
C385 H378 0.950 . S
C385 C382 1.387 . S
C386 C387 1.387 . S
C386 H390 0.950 . S
C386 C395 1.390 . S
C387 C386 1.387 . S
C387 C389 1.387 . S
H388 C395 0.950 . S
C389 C387 1.387 . S
C389 C391 1.390 . S
C389 H393 0.950 . S
H390 C386 0.950 . S
C391 C389 1.390 . S
C391 C392 1.387 . S
C391 H394 0.950 . S
C392 C391 1.387 . S
C392 C395 1.387 . S
H393 C389 0.950 . S
H394 C391 0.950 . S
C395 C386 1.390 . S
C395 H388 0.950 . S
C395 C392 1.387 . S
C396 C397 1.387 . S
C396 H400 0.950 . S
C396 C405 1.390 . S
C397 C396 1.387 . S
C397 C399 1.387 . S
H398 C405 0.950 . S
C399 C397 1.387 . S
C399 C401 1.390 . S
C399 H403 0.950 . S
H400 C396 0.950 . S
C401 C399 1.390 . S
C401 C402 1.387 . S
C401 H404 0.950 . S
C402 C401 1.387 . S
C402 C405 1.387 . S
H403 C399 0.950 . S
H404 C401 0.950 . S
C405 C396 1.390 . S
C405 H398 0.950 . S
C405 C402 1.387 . S
C406 C407 1.387 . S
C406 H410 0.950 . S
C406 C415 1.390 . S
C407 C406 1.387 . S
C407 C409 1.387 . S
H408 C415 0.950 . S
C409 C407 1.387 . S
C409 C411 1.390 . S
C409 H413 0.950 . S
H410 C406 0.950 . S
C411 C409 1.390 . S
C411 C412 1.387 . S
C411 H414 0.950 . S
C412 C411 1.387 . S
C412 C415 1.387 . S
H413 C409 0.950 . S
H414 C411 0.950 . S
C415 C406 1.390 . S
C415 H408 0.950 . S
C415 C412 1.387 . S
C416 C417 1.387 . S
C416 H420 0.950 . S
C416 C425 1.390 . S
C417 C416 1.387 . S
C417 C419 1.387 . S
H418 C425 0.950 . S
C419 C417 1.387 . S
C419 C421 1.390 . S
C419 H423 0.950 . S
H420 C416 0.950 . S
C421 C419 1.390 . S
C421 C422 1.387 . S
C421 H424 0.950 . S
C422 C421 1.387 . S
C422 C425 1.387 . S
H423 C419 0.950 . S
H424 C421 0.950 . S
C425 C416 1.390 . S
C425 H418 0.950 . S
C425 C422 1.387 . S
C426 C427 1.387 . S
C426 H430 0.950 . S
C426 C435 1.390 . S
C427 C426 1.387 . S
C427 C429 1.387 . S
H428 C435 0.950 . S
C429 C427 1.387 . S
C429 C431 1.390 . S
C429 H433 0.950 . S
H430 C426 0.950 . S
C431 C429 1.390 . S
C431 C432 1.387 . S
C431 H434 0.950 . S
C432 C431 1.387 . S
C432 C435 1.387 . S
H433 C429 0.950 . S
H434 C431 0.950 . S
C435 C426 1.390 . S
C435 H428 0.950 . S
C435 C432 1.387 . S
C436 C437 1.387 . S
C436 H440 0.950 . S
C436 C445 1.390 . S
C437 C436 1.387 . S
C437 C439 1.387 . S
H438 C445 0.950 . S
C439 C437 1.387 . S
C439 C441 1.390 . S
C439 H443 0.950 . S
H440 C436 0.950 . S
C441 C439 1.390 . S
C441 C442 1.387 . S
C441 H444 0.950 . S
C442 C441 1.387 . S
C442 C445 1.387 . S
H443 C439 0.950 . S
H444 C441 0.950 . S
C445 C436 1.390 . S
C445 H438 0.950 . S
C445 C442 1.387 . S
C446 C447 1.387 . S
C446 H450 0.950 . S
C446 C455 1.390 . S
C447 C446 1.387 . S
C447 C449 1.387 . S
H448 C455 0.950 . S
C449 C447 1.387 . S
C449 C451 1.390 . S
C449 H453 0.950 . S
H450 C446 0.950 . S
C451 C449 1.390 . S
C451 C452 1.387 . S
C451 H454 0.950 . S
C452 C451 1.387 . S
C452 C455 1.387 . S
H453 C449 0.950 . S
H454 C451 0.950 . S
C455 C446 1.390 . S
C455 H448 0.950 . S
C455 C452 1.387 . S
C456 C457 1.387 . S
C456 H460 0.950 . S
C456 C465 1.390 . S
C457 C456 1.387 . S
C457 C459 1.387 . S
H458 C465 0.950 . S
C459 C457 1.387 . S
C459 C461 1.390 . S
C459 H463 0.950 . S
H460 C456 0.950 . S
C461 C459 1.390 . S
C461 C462 1.387 . S
C461 H464 0.950 . S
C462 C461 1.387 . S
C462 C465 1.387 . S
H463 C459 0.950 . S
H464 C461 0.950 . S
C465 C456 1.390 . S
C465 H458 0.950 . S
C465 C462 1.387 . S
C466 C467 1.387 . S
C466 H470 0.950 . S
C466 C475 1.390 1_655 S
C467 C466 1.387 . S
C467 C469 1.387 . S
H468 C475 0.950 . S
C469 C467 1.387 . S
C469 C471 1.390 1_655 S
C469 H473 0.950 . S
H470 C466 0.950 . S
C471 C469 1.390 1_455 S
C471 C472 1.387 . S
C471 H474 0.950 . S
C472 C471 1.387 . S
C472 C475 1.387 . S
H473 C469 0.950 . S
H474 C471 0.950 . S
C475 C466 1.390 1_455 S
C475 H468 0.950 . S
C475 C472 1.387 . S
C476 C477 1.387 . S
C476 H480 0.950 . S
C476 C485 1.390 1_545 S
C477 C476 1.387 . S
C477 C479 1.387 . S
H478 C485 0.950 . S
C479 C477 1.387 . S
C479 C481 1.390 1_545 S
C479 H483 0.950 . S
H480 C476 0.950 . S
C481 C479 1.390 1_565 S
C481 C482 1.387 . S
C481 H484 0.950 . S
C482 C481 1.387 . S
C482 C485 1.387 . S
H483 C479 0.950 . S
H484 C481 0.950 . S
C485 C476 1.390 1_565 S
C485 H478 0.950 . S
C485 C482 1.387 . S
C486 C487 1.387 . S
C486 H490 0.950 . S
C486 C495 1.390 . S
C487 C486 1.387 . S
C487 C489 1.387 . S
H488 C495 0.950 . S
C489 C487 1.387 . S
C489 C491 1.390 . S
C489 H493 0.950 . S
H490 C486 0.950 . S
C491 C489 1.390 . S
C491 C492 1.387 . S
C491 H494 0.950 . S
C492 C491 1.387 . S
C492 C495 1.387 . S
H493 C489 0.950 . S
H494 C491 0.950 . S
C495 C486 1.390 . S
C495 H488 0.950 . S
C495 C492 1.387 . S
C496 C497 1.387 . S
C496 H500 0.950 . S
C496 C505 1.390 1_455 S
C497 C496 1.387 . S
C497 C499 1.387 . S
H498 C505 0.950 . S
C499 C497 1.387 . S
C499 C501 1.390 1_455 S
C499 H503 0.950 . S
H500 C496 0.950 . S
C501 C499 1.390 1_655 S
C501 C502 1.387 . S
C501 H504 0.950 . S
C502 C501 1.387 . S
C502 C505 1.387 . S
H503 C499 0.950 . S
H504 C501 0.950 . S
C505 C496 1.390 1_655 S
C505 H498 0.950 . S
C505 C502 1.387 . S
C506 C507 1.387 . S
C506 H510 0.950 . S
C506 C515 1.390 1_565 S
C507 C506 1.387 . S
C507 C509 1.387 . S
H508 C515 0.950 . S
C509 C507 1.387 . S
C509 C511 1.390 1_565 S
C509 H513 0.950 . S
H510 C506 0.950 . S
C511 C509 1.390 1_545 S
C511 C512 1.387 . S
C511 H514 0.950 . S
C512 C511 1.387 . S
C512 C515 1.387 . S
H513 C509 0.950 . S
H514 C511 0.950 . S
C515 C506 1.390 1_545 S
C515 H508 0.950 . S
C515 C512 1.387 . S
C277 N163 1.839 . S
C282 N2 1.839 . S
C287 N35 1.922 . S
C292 N186 1.803 . S
C297 N48 1.803 . S
C302 N219 1.921 . S
C307 N71 1.841 . S
C312 N232 1.841 . S
C317 N255 1.801 . S
C322 N104 1.921 . S
C327 N150 1.922 . S
C332 N117 1.803 . S
C337 C246 1.660 . S
C342 C16 1.660 . S
C347 C30 1.749 . S
C352 C269 1.677 . S
C357 C62 1.676 . S
C362 C145 1.748 . S
C367 C177 1.660 . S
C372 C85 1.660 . S
C377 C200 1.676 . S
C382 C99 1.748 . S
C387 C214 1.748 . S
C392 C131 1.675 . S
C397 C7 1.801 . S
C402 C191 1.809 . S
C407 C39 1.776 . S
C412 C223 1.776 . S
C417 C237 1.804 . S
C422 C53 1.808 . S
C427 C76 1.804 . S
C432 C260 1.809 . S
C437 C154 1.778 . S
C442 C108 1.778 . S
C447 C168 1.804 . S
C452 C122 1.808 . S
C457 N81 1.951 . S
C462 N12 1.951 . S
C467 N94 1.861 . S
C472 N25 1.861 . S
C477 N58 1.962 . S
C482 N127 1.962 . S
C487 N140 1.862 . S
C492 N209 1.862 . S
C497 N173 1.952 . S
C502 N242 1.952 . S
C507 N265 1.963 . S
C512 N196 1.962 . S
