# Generated by pormake.
# Topology ukh, (4)-cn, num edge types: 1
# Building blocks:
#     Node 0, Type 0, BuildingBlock: NAHDIM_clean_sbu_0, # of connection points: 4
#     Node 1, Type 0, BuildingBlock: NAHDIM_clean_sbu_0, # of connection points: 4
#     Node 2, Type 0, BuildingBlock: NAHDIM_clean_sbu_0, # of connection points: 4
#     Node 3, Type 0, BuildingBlock: NAHDIM_clean_sbu_0, # of connection points: 4
#     Node 4, Type 0, BuildingBlock: NAHDIM_clean_sbu_0, # of connection points: 4
#     Node 5, Type 0, BuildingBlock: NAHDIM_clean_sbu_0, # of connection points: 4
#     Node 6, Type 0, BuildingBlock: NAHDIM_clean_sbu_0, # of connection points: 4
#     Node 7, Type 0, BuildingBlock: NAHDIM_clean_sbu_0, # of connection points: 4
#     Node 8, Type 0, BuildingBlock: NAHDIM_clean_sbu_0, # of connection points: 4
#     Node 9, Type 0, BuildingBlock: NAHDIM_clean_sbu_0, # of connection points: 4
#     Node 10, Type 0, BuildingBlock: NAHDIM_clean_sbu_0, # of connection points: 4
#     Node 11, Type 0, BuildingBlock: NAHDIM_clean_sbu_0, # of connection points: 4
#     Edge 12, Type (0, 0), BuildingBlock: UVAHIK_clean_linker_0, # of connection points: 2
#     Edge 13, Type (0, 0), BuildingBlock: UVAHIK_clean_linker_0, # of connection points: 2
#     Edge 14, Type (0, 0), BuildingBlock: UVAHIK_clean_linker_0, # of connection points: 2
#     Edge 15, Type (0, 0), BuildingBlock: UVAHIK_clean_linker_0, # of connection points: 2
#     Edge 16, Type (0, 0), BuildingBlock: UVAHIK_clean_linker_0, # of connection points: 2
#     Edge 17, Type (0, 0), BuildingBlock: UVAHIK_clean_linker_0, # of connection points: 2
#     Edge 18, Type (0, 0), BuildingBlock: UVAHIK_clean_linker_0, # of connection points: 2
#     Edge 19, Type (0, 0), BuildingBlock: UVAHIK_clean_linker_0, # of connection points: 2
#     Edge 20, Type (0, 0), BuildingBlock: UVAHIK_clean_linker_0, # of connection points: 2
#     Edge 21, Type (0, 0), BuildingBlock: UVAHIK_clean_linker_0, # of connection points: 2
#     Edge 22, Type (0, 0), BuildingBlock: UVAHIK_clean_linker_0, # of connection points: 2
#     Edge 23, Type (0, 0), BuildingBlock: UVAHIK_clean_linker_0, # of connection points: 2
#     Edge 24, Type (0, 0), BuildingBlock: UVAHIK_clean_linker_0, # of connection points: 2
#     Edge 25, Type (0, 0), BuildingBlock: UVAHIK_clean_linker_0, # of connection points: 2
#     Edge 26, Type (0, 0), BuildingBlock: UVAHIK_clean_linker_0, # of connection points: 2
#     Edge 27, Type (0, 0), BuildingBlock: UVAHIK_clean_linker_0, # of connection points: 2
#     Edge 28, Type (0, 0), BuildingBlock: UVAHIK_clean_linker_0, # of connection points: 2
#     Edge 29, Type (0, 0), BuildingBlock: UVAHIK_clean_linker_0, # of connection points: 2
#     Edge 30, Type (0, 0), BuildingBlock: UVAHIK_clean_linker_0, # of connection points: 2
#     Edge 31, Type (0, 0), BuildingBlock: UVAHIK_clean_linker_0, # of connection points: 2
#     Edge 32, Type (0, 0), BuildingBlock: UVAHIK_clean_linker_0, # of connection points: 2
#     Edge 33, Type (0, 0), BuildingBlock: UVAHIK_clean_linker_0, # of connection points: 2
#     Edge 34, Type (0, 0), BuildingBlock: UVAHIK_clean_linker_0, # of connection points: 2
#     Edge 35, Type (0, 0), BuildingBlock: UVAHIK_clean_linker_0, # of connection points: 2
# Relax obj value: 0.181
# Max RMSD: 0.212
# Mean RMSD: 0.212
data_MOF--net-ukh--node1-NAHDIM_clean_sbu_0--edge1-UVAHIK_clean_linker_0
_symmetry_space_group_name_H-M    P1
_symmetry_Int_Tables_number       1
_symmetry_cell_setting            triclinic
loop_
_symmetry_equiv_pos_as_xyz
'x, y, z'
_cell_length_a     41.315691
_cell_length_b     41.366755
_cell_length_c     77.029002
_cell_angle_alpha  89.993793
_cell_angle_beta   90.018064
_cell_angle_gamma 120.08578
loop_
_atom_site_label
_atom_site_type_symbol
_atom_site_fract_x
_atom_site_fract_y
_atom_site_fract_z
_atom_type_partial_charge
C0 C 0.36522 0.29669 0.04599 0.0
O1 O 0.33313 0.28211 0.05427 0.0
O2 O 0.28993 0.21206 0.03035 0.0
Zn3 Zn 0.33755 0.22051 0.04173 0.0
O4 O 0.32921 0.20783 0.06713 0.0
C5 C 0.34748 0.17726 0.01509 0.0
O6 O 0.33054 0.19038 0.00536 0.0
O7 O 0.375 0.27493 0.03917 0.0
C8 C 0.31717 0.17453 0.07228 0.0
O9 O 0.30947 0.1482 0.06077 0.0
C10 C 0.25747 0.19341 0.03695 0.0
O11 O 0.25335 0.17706 0.05205 0.0
O12 O 0.35502 0.18797 0.03075 0.0
C13 C 0.10037 0.40255 0.37718 0.0
O14 O 0.12055 0.40458 0.39076 0.0
O15 O 0.06219 0.28753 0.36021 0.0
Zn16 Zn 0.10106 0.33453 0.37196 0.0
O17 O 0.0988 0.32719 0.39778 0.0
C18 C 0.16206 0.3466 0.349 0.0
O19 O 0.13791 0.34016 0.3365 0.0
O20 O 0.0902 0.37558 0.36662 0.0
C21 C 0.09328 0.29714 0.4049 0.0
O22 O 0.08736 0.26866 0.39513 0.0
C23 C 0.02945 0.26984 0.3666 0.0
O24 O 0.022 0.28258 0.38077 0.0
O25 O 0.15243 0.34676 0.36463 0.0
C26 C 0.68995 0.06431 0.71622 0.0
O27 O 0.70392 0.04968 0.7269 0.0
O28 O 0.77487 0.06853 0.69983 0.0
Zn29 Zn 0.76668 0.10898 0.70986 0.0
O30 O 0.78058 0.11727 0.73509 0.0
C31 C 0.8117 0.15915 0.68248 0.0
O32 O 0.79895 0.12806 0.67354 0.0
O33 O 0.71222 0.09239 0.70712 0.0
C34 C 0.81314 0.12508 0.73989 0.0
O35 O 0.83702 0.12639 0.72826 0.0
C36 C 0.77662 0.04368 0.70883 0.0
O37 O 0.77394 0.04412 0.7258 0.0
O38 O 0.80003 0.15766 0.69786 0.0
C39 C 0.59137 0.69623 0.03715 0.0
O40 O 0.58311 0.71636 0.04746 0.0
O41 O 0.71039 0.7762 0.02453 0.0
Zn42 Zn 0.66064 0.7652 0.03418 0.0
O43 O 0.66435 0.77431 0.05996 0.0
C44 C 0.65355 0.81103 0.00801 0.0
O45 O 0.66999 0.79753 -0.00181 0.0
O46 O 0.62288 0.71165 0.02956 0.0
C47 C 0.69501 0.79104 0.06828 0.0
O48 O 0.72673 0.80268 0.05999 0.0
C49 C 0.72314 0.75475 0.02821 0.0
O50 O 0.70341 0.72572 0.03828 0.0
O51 O 0.64549 0.79983 0.02359 0.0
C52 C 0.89676 0.59777 0.38848 0.0
O53 O 0.9003 0.61574 0.40306 0.0
O54 O 0.90493 0.68926 0.36793 0.0
Zn55 Zn 0.86397 0.64103 0.37802 0.0
O56 O 0.85551 0.64869 0.40304 0.0
C57 C 0.81696 0.63283 0.34903 0.0
O58 O 0.84811 0.64353 0.34037 0.0
O59 O 0.87996 0.60254 0.37577 0.0
C60 C 0.86325 0.68052 0.40887 0.0
O61 O 0.87756 0.70946 0.39839 0.0
C62 C 0.93791 0.70499 0.37406 0.0
O63 O 0.94515 0.68974 0.38736 0.0
O64 O 0.81652 0.62718 0.36525 0.0
C65 C 0.29086 0.89689 0.7095 0.0
O66 O 0.27118 0.87247 0.72159 0.0
O67 O 0.21663 0.94084 0.6945 0.0
Zn68 Zn 0.22404 0.9014 0.70612 0.0
O69 O 0.21857 0.90275 0.73208 0.0
C70 C 0.18442 0.83347 0.6841 0.0
O71 O 0.21241 0.84927 0.6731 0.0
O72 O 0.27585 0.91194 0.70075 0.0
C73 C 0.18678 0.88205 0.73902 0.0
O74 O 0.1579 0.86127 0.72903 0.0
C75 C 0.20012 0.95624 0.70172 0.0
O76 O 0.18651 0.94589 0.71744 0.0
O77 O 0.18505 0.85063 0.69788 0.0
C78 C 0.69819 0.5888 0.61887 0.0
O79 O 0.71663 0.58604 0.6056 0.0
O80 O 0.775 0.70499 0.63487 0.0
Zn81 Zn 0.76674 0.65758 0.62355 0.0
O82 O 0.7717 0.66434 0.5977 0.0
C83 C 0.81546 0.64538 0.64672 0.0
O84 O 0.79744 0.65133 0.65922 0.0
O85 O 0.71474 0.61657 0.62904 0.0
C86 C 0.79803 0.69355 0.59074 0.0
O87 O 0.8222 0.7208 0.60069 0.0
C88 C 0.76092 0.72294 0.62784 0.0
O89 O 0.7416 0.71008 0.61343 0.0
O90 O 0.806 0.64567 0.63107 0.0
C91 C 0.06754 0.69552 0.9471 0.0
O92 O 0.05046 0.71076 0.93904 0.0
O93 O 0.07619 0.77828 0.96446 0.0
Zn94 Zn 0.11592 0.77126 0.95295 0.0
O95 O 0.12053 0.78643 0.92782 0.0
C96 C 0.16794 0.813 0.98036 0.0
O97 O 0.13733 0.79965 0.98974 0.0
O98 O 0.09881 0.7167 0.95437 0.0
C99 C 0.1465 0.8182 0.92276 0.0
O100 O 0.17045 0.84156 0.93416 0.0
C101 C 0.0682 0.80314 0.96023 0.0
O102 O 0.08737 0.82702 0.94787 0.0
O103 O 0.16549 0.80281 0.96464 0.0
C104 C 0.39 0.09887 0.28575 0.0
O105 O 0.39416 0.12343 0.27385 0.0
O106 O 0.27085 0.04667 0.30046 0.0
Zn107 Zn 0.31603 0.08951 0.28949 0.0
O108 O 0.30857 0.08959 0.26357 0.0
C109 C 0.34109 0.15614 0.31228 0.0
O110 O 0.35792 0.14332 0.32226 0.0
O111 O 0.35973 0.08246 0.29434 0.0
C112 C 0.32158 0.12081 0.25582 0.0
O113 O 0.33993 0.1518 0.26482 0.0
C114 C 0.23767 0.03538 0.29531 0.0
O115 O 0.23207 0.05248 0.28227 0.0
O116 O 0.32303 0.13767 0.29902 0.0
C117 C 0.29851 0.3855 0.60694 0.0
O118 O 0.28421 0.36481 0.59302 0.0
O119 O 0.21177 0.29829 0.62651 0.0
Zn120 Zn 0.22164 0.34727 0.61628 0.0
O121 O 0.20649 0.34025 0.59116 0.0
C122 C 0.17925 0.35491 0.64402 0.0
O123 O 0.19396 0.33855 0.65308 0.0
O124 O 0.27663 0.38422 0.61887 0.0
C125 C 0.17777 0.31047 0.58604 0.0
O126 O 0.15834 0.28376 0.59728 0.0
C127 C 0.22157 0.27745 0.61875 0.0
O128 O 0.238 0.28776 0.60354 0.0
O129 O 0.18913 0.36353 0.62831 0.0
C130 C 0.89033 0.29562 0.95258 0.0
O131 O 0.8628 0.276 0.94171 0.0
O132 O 0.92955 0.21617 0.96517 0.0
Zn133 Zn 0.89123 0.22703 0.95491 0.0
O134 O 0.88877 0.22033 0.92902 0.0
C135 C 0.83605 0.17956 0.97992 0.0
O136 O 0.86502 0.19367 0.99042 0.0
O137 O 0.90603 0.27997 0.96026 0.0
C138 C 0.89899 0.1999 0.92119 0.0
O139 O 0.91271 0.18252 0.93017 0.0
C140 C 0.96341 0.23487 0.96027 0.0
O141 O 0.97272 0.26096 0.94843 0.0
O142 O 0.84053 0.19099 0.96434 0.0
C143 C 0.6205 0.93189 0.27382 0.0
O144 O 0.64955 0.94739 0.26339 0.0
O145 O 0.70097 0.92819 0.28941 0.0
Zn146 Zn 0.65262 0.88746 0.2792 0.0
O147 O 0.65834 0.8804 0.25386 0.0
C148 C 0.64703 0.8385 0.30689 0.0
O149 O 0.66111 0.86953 0.31597 0.0
O150 O 0.61426 0.90308 0.2824 0.0
C151 C 0.68228 0.87166 0.24888 0.0
O152 O 0.7038 0.86835 0.26047 0.0
C153 C 0.72845 0.95282 0.28072 0.0
O154 O 0.72671 0.95222 0.26369 0.0
O155 O 0.63881 0.83909 0.29106 0.0
C156 C 0.5319 0.63775 0.04473 0.0
C157 C 0.56591 0.65547 0.0356 0.0
C158 C 0.5093 0.59889 0.04435 0.0
C159 C 0.51514 0.51419 0.03747 0.0
H160 H 0.407 0.46519 0.03487 0.0
C161 C 0.42149 0.35358 0.03416 0.0
C162 C 0.38864 0.33765 0.04417 0.0
C163 C 0.44292 0.39232 0.03215 0.0
C164 C 0.43716 0.47848 0.03577 0.0
H165 H 0.60227 0.64641 0.01843 0.0
H166 H 0.56269 0.57866 0.01769 0.0
H167 H 0.44421 0.53309 0.03269 0.0
H168 H 0.35273 0.34988 0.06007 0.0
H169 H 0.39036 0.41732 0.05678 0.0
H170 H 0.50815 0.45971 0.04081 0.0
C171 C 0.55377 0.59479 0.02533 0.0
C172 C 0.45844 0.51735 0.03449 0.0
C173 C 0.57632 0.63362 0.02568 0.0
C174 C 0.37781 0.36124 0.05221 0.0
C175 C 0.39924 0.39991 0.05023 0.0
C176 C 0.49387 0.47534 0.03879 0.0
C177 C 0.52029 0.57697 0.03485 0.0
C178 C 0.49765 0.53562 0.03544 0.0
C179 C 0.43195 0.4159 0.04012 0.0
C180 C 0.45463 0.45707 0.03808 0.0
H181 H 0.52308 0.65378 0.0525 0.0
H182 H 0.4838 0.58594 0.05194 0.0
H183 H 0.54529 0.52751 0.03852 0.0
H184 H 0.4305 0.33613 0.02775 0.0
H185 H 0.46779 0.40376 0.02414 0.0
C186 C 0.06257 0.42519 0.36131 0.0
C187 C 0.08512 0.428 0.37555 0.0
C188 C 0.04441 0.44599 0.36084 0.0
C189 C 0.04173 0.52565 0.38169 0.0
H190 H 0.9375 0.47193 0.36765 0.0
C191 C 0.93953 0.57613 0.39954 0.0
C192 C 0.91611 0.57614 0.38631 0.0
C193 C 0.9606 0.5587 0.39703 0.0
C194 C 0.96668 0.48741 0.37142 0.0
H195 H 0.10757 0.45604 0.40012 0.0
H196 H 0.07551 0.49178 0.39945 0.0
H197 H 0.97536 0.44211 0.36486 0.0
H198 H 0.89557 0.55686 0.36024 0.0
H199 H 0.93225 0.52598 0.35594 0.0
H200 H 0.03266 0.57056 0.38868 0.0
C201 C 0.07215 0.4739 0.38852 0.0
C202 C 0.98845 0.47043 0.36976 0.0
C203 C 0.09043 0.45324 0.38895 0.0
C204 C 0.91335 0.55733 0.37069 0.0
C205 C 0.93428 0.53962 0.36823 0.0
C206 C 0.0199 0.54251 0.38345 0.0
C207 C 0.04833 0.46997 0.37463 0.0
C208 C 0.02612 0.48919 0.37508 0.0
C209 C 0.95855 0.54066 0.38128 0.0
C210 C 0.98205 0.52338 0.37854 0.0
H211 H 0.05812 0.40618 0.35071 0.0
H212 H 0.02683 0.44285 0.3498 0.0
H213 H 0.0708 0.54114 0.38561 0.0
H214 H 0.94226 0.59029 0.41174 0.0
H215 H 0.97859 0.55938 0.40743 0.0
C216 C 0.35264 0.93797 0.69522 0.0
C217 C 0.33114 0.90994 0.70737 0.0
C218 C 0.39134 0.95305 0.69438 0.0
C219 C 0.46835 0.93717 0.70754 0.0
H220 H 0.52815 0.0453 0.7058 0.0
C221 C 0.62491 0.01617 0.72459 0.0
C222 C 0.64898 0.04712 0.71435 0.0
C223 C 0.58622 -0.00106 0.72255 0.0
C224 C 0.5119 0.01507 0.70604 0.0
H225 H 0.33323 0.87474 0.7277 0.0
H226 H 0.4008 0.90122 0.7263 0.0
H227 H 0.46026 0.01499 0.70383 0.0
H228 H 0.65129 0.08441 0.69396 0.0
H229 H 0.58356 0.0541 0.69031 0.0
H230 H 0.51999 0.93728 0.70993 0.0
C231 C 0.3877 0.91137 0.71735 0.0
C232 C 0.47299 -0.00231 0.7049 0.0
C233 C 0.34898 0.89631 0.7182 0.0
C234 C 0.63348 0.06068 0.70209 0.0
C235 C 0.59469 0.0434 0.70004 0.0
C236 C 0.50726 0.95455 0.70866 0.0
C237 C 0.40937 0.94038 0.70565 0.0
C238 C 0.45077 0.95857 0.7058 0.0
C239 C 0.57065 0.01222 0.7102 0.0
C240 C 0.52945 0.99372 0.70811 0.0
H241 H 0.33974 0.94895 0.6866 0.0
H242 H 0.40721 0.97495 0.68504 0.0
H243 H 0.45201 0.90696 0.70802 0.0
H244 H 0.63592 0.00509 0.7342 0.0
H245 H 0.56846 0.97541 0.73079 0.0
C246 C 0.63796 0.53579 0.6078 0.0
C247 C 0.65749 0.56291 0.62059 0.0
C248 C 0.59898 0.51436 0.60826 0.0
C249 C 0.51748 0.51792 0.62508 0.0
H250 H 0.46327 0.41485 0.60966 0.0
C251 C 0.35545 0.42882 0.62429 0.0
C252 C 0.33954 0.40711 0.60932 0.0
C253 C 0.39415 0.44723 0.6269 0.0
C254 C 0.47807 0.4437 0.6139 0.0
H255 H 0.65155 0.58748 0.64442 0.0
H256 H 0.58353 0.54961 0.64536 0.0
H257 H 0.5311 0.4464 0.61276 0.0
H258 H 0.35186 0.38826 0.58521 0.0
H259 H 0.41918 0.42045 0.58976 0.0
H260 H 0.46436 0.51521 0.62609 0.0
C261 C 0.59832 0.54547 0.63477 0.0
C262 C 0.5169 0.46177 0.61568 0.0
C263 C 0.63732 0.56698 0.63429 0.0
C264 C 0.36316 0.40468 0.59691 0.0
C265 C 0.40173 0.42288 0.59957 0.0
C266 C 0.4786 0.49978 0.62337 0.0
C267 C 0.57866 0.51948 0.62156 0.0
C268 C 0.53713 0.49925 0.62105 0.0
C269 C 0.41762 0.44405 0.61466 0.0
C270 C 0.45857 0.46267 0.6175 0.0
H271 H 0.65264 0.53196 0.59707 0.0
H272 H 0.58472 0.49486 0.59778 0.0
H273 H 0.53224 0.54698 0.629 0.0
H274 H 0.33799 0.4312 0.6341 0.0
H275 H 0.40562 0.46325 0.63869 0.0
C276 C 0.88993 0.35438 0.94519 0.0
C277 C 0.9055 0.33626 0.95451 0.0
C278 C 0.90639 0.39323 0.94585 0.0
C279 C -0.00292 0.47728 0.95384 0.0
H280 H 0.93879 0.52705 0.9558 0.0
C281 C 0.06572 0.63779 0.95839 0.0
C282 C 0.04963 0.65445 0.94834 0.0
C283 C 0.04788 0.59895 0.95999 0.0
C284 C 0.95543 0.51354 0.95507 0.0
H285 H 0.94971 0.34456 0.97236 0.0
H286 H 0.97822 0.41227 0.97355 0.0
H287 H 0.9072 0.45904 0.95755 0.0
H288 H 0.0025 0.64344 0.93191 0.0
H289 H 0.97181 0.57581 0.93446 0.0
H290 H 0.04525 0.53163 0.95109 0.0
C291 C 0.95362 0.39648 0.96556 0.0
C292 C 0.93733 0.47462 0.95611 0.0
C293 C 0.93712 0.35767 0.96494 0.0
C294 C 0.01557 0.63149 0.93981 0.0
C295 C -0.00219 0.59271 0.94138 0.0
C296 C 0.01517 0.51617 0.95275 0.0
C297 C 0.93878 0.41472 0.9558 0.0
C298 C 0.95796 0.45608 0.95542 0.0
C299 C 0.01364 0.57599 0.95155 0.0
C300 C 0.99453 0.53473 0.95324 0.0
H301 H 0.86557 0.33869 0.93704 0.0
H302 H 0.89449 0.40653 0.93808 0.0
H303 H 0.01368 0.46375 0.95299 0.0
H304 H 0.09186 0.65474 0.96519 0.0
H305 H 0.06062 0.58693 0.96807 0.0
C306 C 0.41206 0.05864 0.29959 0.0
C307 C 0.4179 0.08667 0.28758 0.0
C308 C 0.43585 0.04381 0.29994 0.0
C309 C 0.52798 0.05968 0.28545 0.0
H310 H 0.47868 0.95146 0.28633 0.0
C311 C 0.60388 0.98048 0.26625 0.0
C312 C 0.59691 0.94909 0.27614 0.0
C313 C 0.58274 -0.00217 0.26879 0.0
C314 C 0.49295 0.9817 0.28632 0.0
H315 H 0.45434 0.12236 0.26711 0.0
H316 H 0.49578 0.09631 0.26768 0.0
H317 H 0.44169 0.98205 0.28937 0.0
H318 H 0.56212 0.91113 0.2964 0.0
H319 H 0.5253 0.94167 0.30094 0.0
H320 H 0.57921 0.0593 0.28223 0.0
C321 C 0.47289 0.08594 0.27687 0.0
C322 C 0.47176 -0.00075 0.28808 0.0
C323 C 0.44905 0.10077 0.2765 0.0
C324 C 0.56807 0.93518 0.28853 0.0
C325 C 0.54692 0.95262 0.29109 0.0
C326 C 0.54919 0.04213 0.28372 0.0
C327 C 0.46604 0.05674 0.28834 0.0
C328 C 0.489 0.03841 0.28751 0.0
C329 C 0.55417 0.98425 0.28131 0.0
C330 C 0.53186 0.00293 0.28396 0.0
H331 H 0.38848 0.04735 0.30841 0.0
H332 H 0.43026 0.02178 0.30913 0.0
H333 H 0.54209 0.08991 0.28518 0.0
H334 H 0.62579 0.99181 0.25655 0.0
H335 H 0.58857 0.02172 0.26082 0.0
C336 C 0.32754 0.15727 0.22902 0.0
C337 C 0.31635 0.12264 0.23694 0.0
C338 C 0.32301 0.1595 0.21121 0.0
C339 C 0.31472 0.11134 0.17025 0.0
H340 H 0.28072 0.17715 0.15269 0.0
C341 C 0.29871 0.12883 0.09681 0.0
C342 C 0.31235 0.16565 0.09102 0.0
C343 C 0.29514 0.1207 0.11455 0.0
C344 C 0.2905 0.15885 0.15738 0.0
H345 H 0.29147 0.06311 0.23238 0.0
H346 H 0.28371 0.06711 0.20109 0.0
H347 H 0.28174 0.16789 0.1839 0.0
H348 H 0.33265 0.22278 0.09932 0.0
H349 H 0.32695 0.20871 0.1302 0.0
H350 H 0.32436 0.103 0.14376 0.0
C351 C 0.29608 0.09249 0.20875 0.0
C352 C 0.29101 0.15351 0.17525 0.0
C353 C 0.3004 0.0902 0.22664 0.0
C354 C 0.32196 0.19409 0.10334 0.0
C355 C 0.31844 0.18598 0.12106 0.0
C356 C 0.31434 0.11679 0.15236 0.0
C357 C 0.30732 0.12719 0.20087 0.0
C358 C 0.30371 0.13018 0.18188 0.0
C359 C 0.30514 0.14923 0.12688 0.0
C360 C 0.3028 0.14109 0.14575 0.0
H361 H 0.33993 0.1828 0.23656 0.0
H362 H 0.33245 0.1867 0.20547 0.0
H363 H 0.32498 0.09347 0.175 0.0
H364 H 0.29092 0.10625 0.08764 0.0
H365 H 0.28442 0.09204 0.11862 0.0
C366 C 0.11098 0.32819 0.4339 0.0
C367 C 0.09588 0.29532 0.42397 0.0
C368 C 0.1156 0.32709 0.45178 0.0
C369 C 0.12318 0.26835 0.48598 0.0
H370 H 0.11506 0.33872 0.51637 0.0
C371 C 0.14011 0.27114 0.56094 0.0
C372 C 0.1658 0.30641 0.56773 0.0
C373 C 0.12861 0.26748 0.54363 0.0
C374 C 0.11744 0.31896 0.508 0.0
H375 H 0.0726 0.23532 0.42506 0.0
H376 H 0.07955 0.23317 0.45643 0.0
H377 H 0.09825 0.33553 0.48583 0.0
H378 H 0.19937 0.3655 0.56179 0.0
H379 H 0.17872 0.3591 0.53166 0.0
H380 H 0.14193 0.25159 0.50839 0.0
C381 C 0.08878 0.25998 0.45033 0.0
C382 C 0.108 0.3172 0.4905 0.0
C383 C 0.08458 0.26115 0.43236 0.0
C384 C 0.17962 0.33794 0.55692 0.0
C385 C 0.16765 0.33435 0.53972 0.0
C386 C 0.13209 0.26975 0.50357 0.0
C387 C 0.10475 0.29301 0.46023 0.0
C388 C 0.11147 0.29241 0.47918 0.0
C389 C 0.1421 0.29911 0.53293 0.0
C390 C 0.12995 0.29555 0.51464 0.0
H391 H 0.12019 0.35502 0.4278 0.0
H392 H 0.12867 0.3532 0.45887 0.0
H393 H 0.12671 0.24927 0.47764 0.0
H394 H 0.12906 0.24634 0.56896 0.0
H395 H 0.10881 0.24003 0.53866 0.0
C396 C 0.80353 0.14253 0.76969 0.0
C397 C 0.82414 0.1332 0.7583 0.0
C398 C 0.81442 0.15122 0.78701 0.0
C399 C 0.86288 0.13481 0.82207 0.0
H400 H 0.87322 0.2258 0.84176 0.0
C401 C 0.91131 0.1783 0.89287 0.0
C402 C 0.89393 0.19457 0.90222 0.0
C403 C 0.90567 0.17252 0.87498 0.0
C404 C 0.87 0.20003 0.83656 0.0
H405 H 0.87189 0.12501 0.75614 0.0
H406 H 0.89038 0.13939 0.78663 0.0
H407 H 0.85691 0.21154 0.81121 0.0
H408 H 0.8569 0.2174 0.90021 0.0
H409 H 0.846 0.20617 0.86926 0.0
H410 H 0.87444 0.12236 0.84747 0.0
C411 C 0.86606 0.14028 0.78204 0.0
C412 C 0.86085 0.19203 0.81905 0.0
C413 C 0.85555 0.13222 0.76462 0.0
C414 C 0.87093 0.20506 0.89334 0.0
C415 C 0.86489 0.19883 0.87553 0.0
C416 C 0.87148 0.1425 0.83967 0.0
C417 C 0.84573 0.15014 0.79332 0.0
C418 C 0.85697 0.15925 0.81169 0.0
C419 C 0.88214 0.18245 0.8661 0.0
C420 C 0.87485 0.17509 0.84719 0.0
H421 H 0.77925 0.14361 0.76519 0.0
H422 H 0.79813 0.15844 0.79552 0.0
H423 H 0.85975 0.1092 0.81669 0.0
H424 H 0.9294 0.17016 0.89935 0.0
H425 H 0.91992 0.16042 0.86811 0.0
C426 C 0.72755 0.81151 0.097 0.0
C427 C 0.69494 0.79885 0.08698 0.0
C428 C 0.72758 0.81983 0.11459 0.0
C429 C 0.68079 0.8488 0.14581 0.0
H430 H 0.71817 0.80829 0.18076 0.0
C431 C 0.65733 0.85991 0.21859 0.0
C432 C 0.68552 0.86493 0.23031 0.0
C433 C 0.65986 0.85272 0.20109 0.0
C434 C 0.70821 0.82038 0.17117 0.0
H435 H 0.6368 0.78482 0.08755 0.0
H436 H 0.63712 0.79985 0.1182 0.0
H437 H 0.72049 0.7942 0.15017 0.0
H438 H 0.7388 0.86702 0.23287 0.0
H439 H 0.74386 0.85568 0.2022 0.0
H440 H 0.66913 0.87562 0.16658 0.0
C441 C 0.66257 0.80329 0.11242 0.0
C442 C 0.70941 0.81214 0.15367 0.0
C443 C 0.66237 0.7945 0.09492 0.0
C444 C 0.7165 0.86302 0.22415 0.0
C445 C 0.71928 0.85629 0.20659 0.0
C446 C 0.68001 0.85744 0.16326 0.0
C447 C 0.69518 0.81613 0.1224 0.0
C448 C 0.69533 0.82595 0.14087 0.0
C449 C 0.69089 0.85089 0.19484 0.0
C450 C 0.6933 0.84299 0.17619 0.0
H451 H 0.75305 0.81507 0.09125 0.0
H452 H 0.75313 0.82984 0.12201 0.0
H453 H 0.67026 0.86024 0.13615 0.0
H454 H 0.63294 0.86092 0.22297 0.0
H455 H 0.63709 0.84798 0.19254 0.0
C456 C 0.78129 0.66397 0.56139 0.0
C457 C 0.8024 0.69584 0.57167 0.0
C458 C 0.78668 0.66536 0.54347 0.0
C459 C 0.85641 0.72005 0.50966 0.0
H460 H 0.77362 0.65953 0.47875 0.0
C461 C 0.87094 0.72036 0.43476 0.0
C462 C 0.85571 0.68473 0.42722 0.0
C463 C 0.86385 0.72421 0.45216 0.0
C464 C 0.79698 0.6765 0.48726 0.0
H465 H 0.84492 0.7545 0.57117 0.0
H466 H 0.85366 0.75723 0.53977 0.0
H467 H 0.76162 0.66275 0.50951 0.0
H468 H 0.82083 0.62523 0.43192 0.0
H469 H 0.80811 0.63206 0.46222 0.0
H470 H 0.89163 0.73392 0.48724 0.0
C471 C 0.83356 0.73089 0.54561 0.0
C472 C 0.79018 0.67826 0.50488 0.0
C473 C 0.82841 0.7294 0.5636 0.0
C474 C 0.83302 0.65306 0.43737 0.0
C475 C 0.82553 0.65695 0.45467 0.0
C476 C 0.86313 0.71862 0.49198 0.0
C477 C 0.81304 0.69877 0.53535 0.0
C478 C 0.81989 0.6995 0.51637 0.0
C479 C 0.84095 0.69253 0.46223 0.0
C480 C 0.83355 0.69632 0.48069 0.0
H481 H 0.76115 0.63761 0.56722 0.0
H482 H 0.77085 0.63989 0.53607 0.0
H483 H 0.88004 0.73627 0.51813 0.0
H484 H 0.88859 0.74528 0.42727 0.0
H485 H 0.87594 0.75195 0.45769 0.0
C486 C 0.18205 0.86086 0.89817 0.0
C487 C 0.15018 0.82847 0.9042 0.0
C488 C 0.18612 0.86996 0.88054 0.0
C489 C 0.13339 0.85341 0.83993 0.0
H490 H 0.22737 0.87865 0.8177 0.0
C491 C 0.14858 0.85343 0.76569 0.0
C492 C 0.18246 0.88017 0.7581 0.0
C493 C 0.14485 0.85026 0.78371 0.0
C494 C 0.20117 0.87232 0.82373 0.0
H495 H 0.09726 0.78062 0.89653 0.0
H496 H 0.10435 0.79666 0.86575 0.0
H497 H 0.22039 0.86757 0.8489 0.0
H498 H 0.23873 0.92527 0.76344 0.0
H499 H 0.23197 0.92026 0.79494 0.0
H500 H 0.1141 0.85818 0.81482 0.0
C501 C 0.12611 0.81501 0.87468 0.0
C502 C 0.19716 0.86587 0.84161 0.0
C503 C 0.12217 0.80572 0.89228 0.0
C504 C 0.21232 0.90422 0.76891 0.0
C505 C 0.20851 0.9012 0.78695 0.0
C506 C 0.13747 0.86014 0.82208 0.0
C507 C 0.15825 0.84705 0.86862 0.0
C508 C 0.16309 0.85592 0.84984 0.0
C509 C 0.17483 0.87393 0.79457 0.0
C510 C 0.17126 0.86921 0.81372 0.0
H511 H 0.20411 0.87898 0.90703 0.0
H512 H 0.21104 0.89499 0.87623 0.0
H513 H 0.10699 0.8463 0.846 0.0
H514 H 0.12508 0.83435 0.75773 0.0
H515 H 0.11873 0.82854 0.7891 0.0
C516 C 0.23572 0.86021 0.97636 0.0
C517 C 0.20321 0.84525 0.98661 0.0
C518 C 0.26653 0.89508 0.98031 0.0
C519 C 0.30327 0.97283 0.01292 0.0
H520 H 0.33414 0.03506 0.97173 0.0
C521 C 0.36838 0.13059 0.01971 0.0
C522 C 0.35078 0.14502 0.00918 0.0
C523 C 0.36489 0.09593 0.01597 0.0
C524 C 0.326 0.01812 0.98338 0.0
H525 H 0.17883 0.85352 0.00992 0.0
H526 H 0.23176 0.91445 0.01652 0.0
H527 H 0.29983 0.9676 0.96871 0.0
H528 H 0.31854 0.13599 0.98564 0.0
H529 H 0.31152 0.0754 0.97938 0.0
H530 H 0.3263 0.02332 0.02757 0.0
C531 C 0.23398 0.89931 0.00556 0.0
C532 C 0.30673 0.97928 0.98166 0.0
C533 C 0.20335 0.86433 0.0017 0.0
C534 C 0.33229 0.12559 0.99407 0.0
C535 C 0.32851 0.09082 0.99041 0.0
C536 C 0.32213 0.01166 0.01464 0.0
C537 C 0.26533 0.91583 0.9945 0.0
C538 C 0.29357 0.95616 0.99642 0.0
C539 C 0.34348 0.07486 0.00169 0.0
C540 C 0.33215 0.03474 -0.00013 0.0
H541 H 0.23667 0.8459 0.96476 0.0
H542 H 0.29055 0.90656 0.97175 0.0
H543 H 0.29437 0.95588 0.02456 0.0
H544 H 0.38331 0.14518 0.03134 0.0
H545 H 0.37751 0.08488 0.02471 0.0
C546 C 0.20527 0.33919 0.32872 0.0
C547 C 0.19753 0.34721 0.34541 0.0
C548 C 0.23512 0.33291 0.32606 0.0
C549 C 0.30524 0.32699 0.3228 0.0
H550 H 0.29881 0.2535 0.35599 0.0
C551 C 0.32766 0.20665 0.30442 0.0
C552 C 0.34097 0.19088 0.31665 0.0
C553 C 0.32327 0.23686 0.30886 0.0
C554 C 0.30193 0.27472 0.34682 0.0
H555 H 0.21719 0.35848 0.37208 0.0
H556 H 0.26929 0.34763 0.36738 0.0
H557 H 0.26721 0.28833 0.36202 0.0
H558 H 0.36241 0.19595 0.3428 0.0
H559 H 0.35459 0.24902 0.35063 0.0
H560 H 0.33853 0.3119 0.30722 0.0
C561 C 0.25188 0.34552 0.35643 0.0
C562 C 0.28371 0.29473 0.35027 0.0
C563 C 0.22205 0.3518 0.35909 0.0
C564 C 0.35183 0.20734 0.33315 0.0
C565 C 0.34726 0.23763 0.33763 0.0
C566 C 0.32361 0.30705 0.31938 0.0
C567 C 0.25785 0.33459 0.34004 0.0
C568 C 0.28388 0.31994 0.33797 0.0
C569 C 0.33205 0.2521 0.32565 0.0
C570 C 0.32075 0.27951 0.33101 0.0
H571 H 0.18705 0.33566 0.31789 0.0
H572 H 0.23879 0.32428 0.31328 0.0
H573 H 0.3064 0.34673 0.31323 0.0
H574 H 0.31939 0.19489 0.29152 0.0
H575 H 0.311 0.24686 0.29937 0.0
C576 C 0.8591 0.22696 0.68613 0.0
C577 C 0.84435 0.19407 0.67618 0.0
C578 C 0.89385 0.2578 0.682 0.0
C579 C 0.97033 0.29513 0.64885 0.0
H580 H 0.03463 0.33046 0.68936 0.0
C581 C 0.12802 0.33616 0.66575 0.0
C582 C 0.1459 0.35555 0.65053 0.0
C583 C 0.09226 0.32943 0.66988 0.0
C584 C 0.01707 0.32108 0.6779 0.0
H585 H 0.85306 0.16886 0.65329 0.0
H586 H 0.91376 0.22201 0.64633 0.0
H587 H 0.9673 0.293 0.6931 0.0
H588 H 0.14208 0.38663 0.62869 0.0
H589 H 0.07998 0.37556 0.63612 0.0
H590 H 0.02022 0.32047 0.63366 0.0
C591 C 0.8985 0.2244 0.65721 0.0
C592 C 0.97833 0.29996 0.68004 0.0
C593 C 0.86368 0.19369 0.66127 0.0
C594 C 0.12878 0.37109 0.64039 0.0
C595 C 0.09309 0.36457 0.64459 0.0
C596 C 0.00908 0.31596 0.64672 0.0
C597 C 0.91464 0.25632 0.66789 0.0
C598 C 0.95458 0.2854 0.66553 0.0
C599 C 0.07372 0.34222 0.65895 0.0
C600 C 0.03299 0.32785 0.66124 0.0
H601 H 0.84465 0.22833 0.69759 0.0
H602 H 0.9051 0.28222 0.69028 0.0
H603 H 0.95281 0.28503 0.6374 0.0
H604 H 0.14048 0.32396 0.67389 0.0
H605 H 0.07822 0.31187 0.68098 0.0
C606 C 0.67121 0.86439 0.9877 0.0
C607 C 0.65117 0.8439 0.00233 0.0
C608 C 0.67558 0.89953 0.98439 0.0
C609 C 0.67985 0.977 0.0093 0.0
H610 H 0.70687 0.02459 0.96418 0.0
C611 C 0.79916 0.12574 -0.00015 0.0
C612 C 0.80061 0.14603 0.98499 0.0
C613 C 0.76852 0.09021 0.00276 0.0
C614 C 0.69865 0.0119 0.97689 0.0
H615 H 0.61657 0.84227 0.02387 0.0
H616 H 0.62338 0.90322 0.01781 0.0
H617 H 0.67227 0.95693 0.96605 0.0
H618 H 0.76939 0.14681 0.9625 0.0
H619 H 0.71542 0.08517 0.96782 0.0
H620 H 0.70651 0.03197 0.02015 0.0
C621 C 0.63677 0.89273 0.00922 0.0
C622 C 0.67922 0.97296 0.97796 0.0
C623 C 0.63272 0.85771 0.01265 0.0
C624 C 0.76934 0.13155 0.97393 0.0
C625 C 0.73848 0.09614 0.97694 0.0
C626 C 0.69886 0.01593 0.00823 0.0
C627 C 0.65965 0.91479 0.99551 0.0
C628 C 0.67133 0.95507 0.99419 0.0
C629 C 0.73842 0.07436 0.99097 0.0
C630 C 0.71023 0.03386 0.99205 0.0
H631 H 0.68566 0.85448 0.97946 0.0
H632 H 0.6937 0.91571 0.97379 0.0
H633 H 0.67433 0.96435 0.02206 0.0
H634 H 0.82274 0.13616 0.00866 0.0
H635 H 0.76977 0.07427 0.01362 0.0
C636 C 0.63454 0.77293 0.30373 0.0
C637 C 0.64886 0.80595 0.31359 0.0
C638 C 0.64348 0.74549 0.30804 0.0
C639 C 0.72317 0.7439 0.32418 0.0
H640 H 0.66194 0.63632 0.32907 0.0
C641 C 0.79191 0.65518 0.32526 0.0
C642 C 0.78637 0.63672 0.34123 0.0
C643 C 0.76779 0.66778 0.32002 0.0
C644 C 0.6792 0.6663 0.32758 0.0
H645 H 0.68081 0.83445 0.3366 0.0
H646 H 0.69688 0.78682 0.34386 0.0
H647 H 0.63185 0.67454 0.32569 0.0
H648 H 0.74868 0.61292 0.36317 0.0
H649 H 0.70642 0.6348 0.35387 0.0
H650 H 0.77042 0.73616 0.32586 0.0
C651 C 0.67884 0.78233 0.33282 0.0
C652 C 0.66209 0.68804 0.32571 0.0
C653 C 0.66957 0.80952 0.32866 0.0
C654 C 0.75394 0.62748 0.35089 0.0
C655 C 0.72962 0.63981 0.34555 0.0
C656 C 0.74014 0.72227 0.32568 0.0
C657 C 0.66711 0.75087 0.32215 0.0
C658 C 0.68407 0.72706 0.32424 0.0
C659 C 0.73749 0.66172 0.33054 0.0
C660 C 0.71841 0.68334 0.32749 0.0
H661 H 0.61824 0.76924 0.29213 0.0
H662 H 0.63418 0.72144 0.29963 0.0
H663 H 0.74067 0.7739 0.32283 0.0
H664 H 0.81639 0.66243 0.31743 0.0
H665 H 0.77414 0.68429 0.30828 0.0
C666 C 0.1215 0.78092 0.69229 0.0
C667 C 0.15015 0.79788 0.67988 0.0
C668 C 0.08681 0.75069 0.6878 0.0
C669 C 0.02714 0.71539 0.64962 0.0
H670 H 0.9584 0.64272 0.68272 0.0
C671 C 0.87019 0.64003 0.63674 0.0
C672 C 0.85016 0.64449 0.65039 0.0
C673 C 0.90614 0.64587 0.63951 0.0
C674 C 0.97732 0.66266 0.67328 0.0
H675 H 0.16588 0.79442 0.65339 0.0
H676 H 0.10508 0.74115 0.64553 0.0
H677 H 0.02546 0.67641 0.68886 0.0
H678 H 0.85085 0.65539 0.67797 0.0
H679 H 0.91373 0.66603 0.68276 0.0
H680 H 0.97909 0.70295 0.6344 0.0
C681 C 0.10937 0.75179 0.65868 0.0
C682 C 0.0157 0.68198 0.67679 0.0
C683 C 0.14423 0.7822 0.66319 0.0
C684 C 0.86563 0.65198 0.66716 0.0
C685 C 0.90162 0.65783 0.66993 0.0
C686 C 0.98887 0.69594 0.64607 0.0
C687 C 0.07987 0.73652 0.67079 0.0
C688 C 0.04087 0.70974 0.66534 0.0
C689 C 0.92278 0.65625 0.65599 0.0
C690 C 0.96341 0.67048 0.65819 0.0
H691 H 0.12523 0.79203 0.70533 0.0
H692 H 0.06476 0.74004 0.69743 0.0
H693 H 0.04554 0.73682 0.64058 0.0
H694 H 0.85887 0.63375 0.6237 0.0
H695 H 0.92154 0.64387 0.62858 0.0
C696 C 0.98282 0.20191 0.98153 0.0
C697 C 0.99187 0.22713 0.96767 0.0
C698 C 0.00987 0.19499 0.98865 0.0
C699 C 0.10031 0.20138 0.97914 0.0
H700 H 0.11017 0.20194 0.02922 0.0
C701 C 0.23008 0.21231 0.0127 0.0
C702 C 0.22507 0.19233 0.02818 0.0
C703 C 0.20001 0.21321 0.00493 0.0
C704 C 0.10743 0.20106 0.01522 0.0
H705 H 0.03629 0.26452 0.95029 0.0
H706 H 0.08347 0.25243 0.96275 0.0
H707 H 0.0606 0.20981 0.0164 0.0
H708 H 0.18427 0.15674 0.04736 0.0
H709 H 0.13164 0.15788 0.03364 0.0
H710 H 0.14719 0.19278 0.97793 0.0
C711 C 0.05539 0.23786 0.96803 0.0
C712 C 0.07906 0.20566 0.00788 0.0
C713 C 0.02842 0.24497 0.96097 0.0
C714 C 0.18912 0.17255 0.03549 0.0
C715 C 0.15899 0.17339 0.02768 0.0
C716 C 0.12858 0.19662 0.98647 0.0
C717 C 0.04645 0.21292 0.98199 0.0
C718 C 0.07545 0.20626 0.98977 0.0
C719 C 0.16417 0.19406 0.01241 0.0
C720 C 0.13273 0.19682 0.0046 0.0
H721 H 0.95488 0.18766 0.98697 0.0
H722 H 0.00208 0.17537 -0.0007 0.0
H723 H 0.09785 0.20114 0.96514 0.0
H724 H 0.25742 0.22792 0.00673 0.0
H725 H 0.20512 0.22982 0.9933 0.0
C726 C 0.79343 0.00813 0.28054 0.0
C727 C 0.76115 0.9831 0.2898 0.0
C728 C 0.82363 0.03772 0.28908 0.0
C729 C 0.84519 0.09754 0.32718 0.0
H730 H 0.94778 0.12219 0.31939 0.0
C731 C 0.96623 0.21239 0.36681 0.0
C732 C -4e-05 0.23564 0.35812 0.0
C733 C 0.93793 0.18049 0.35871 0.0
C734 C 0.91935 0.11601 0.32155 0.0
H735 H 0.7355 0.96908 0.31534 0.0
H736 H 0.78805 0.02092 0.33015 0.0
H737 H 0.89694 0.06849 0.3046 0.0
H738 H 0.0306 0.24362 0.33415 0.0
H739 H 0.98083 0.18858 0.31981 0.0
H740 H 0.86724 0.14535 0.34372 0.0
C741 C 0.78991 0.01769 0.31629 0.0
C742 C 0.89026 0.08517 0.31312 0.0
C743 C 0.75992 0.98791 0.30781 0.0
C744 C 0.00495 0.22616 0.34121 0.0
C745 C 0.97647 0.19445 0.33303 0.0
C746 C 0.87422 0.12855 0.33546 0.0
C747 C 0.82193 0.04304 0.30699 0.0
C748 C 0.85291 0.07559 0.31591 0.0
C749 C 0.94251 0.1713 0.34165 0.0
C750 C 0.91168 0.13814 0.33281 0.0
H751 H 0.79527 0.00511 0.26667 0.0
H752 H 0.8479 0.05701 0.28159 0.0
H753 H 0.81667 0.09113 0.32935 0.0
H754 H 0.96167 0.21873 0.37991 0.0
H755 H 0.91251 0.16294 0.3659 0.0
C756 C 0.75647 0.78095 0.62646 0.0
C757 C 0.76579 0.75761 0.63581 0.0
C758 C 0.76022 0.81331 0.63404 0.0
C759 C 0.80466 0.87877 0.67104 0.0
H760 H 0.7285 0.90474 0.661 0.0
C761 C 0.78576 0.98824 0.70991 0.0
C762 C 0.77946 0.0133 0.70017 0.0
C763 C 0.78659 0.95844 0.7018 0.0
C764 C 0.75017 0.89804 0.66379 0.0
H765 H 0.78655 0.74996 0.66043 0.0
H766 H 0.79204 0.80584 0.67386 0.0
H767 H 0.72475 0.84976 0.64752 0.0
H768 H 0.76979 0.02714 0.67422 0.0
H769 H 0.77088 0.97488 0.66013 0.0
H770 H 0.82938 0.92674 0.68772 0.0
C771 C 0.78262 0.79966 0.66052 0.0
C772 C 0.74813 0.86659 0.65603 0.0
C773 C 0.77926 0.76747 0.65286 0.0
C774 C 0.77464 0.0083 0.68211 0.0
C775 C 0.77508 0.97829 0.67404 0.0
C776 C 0.80646 0.91006 0.67895 0.0
C777 C 0.77295 0.8229 0.65123 0.0
C778 C 0.77539 0.85657 0.65951 0.0
C779 C 0.78075 0.9529 0.68382 0.0
C780 C 0.77928 0.92002 0.67536 0.0
H781 H 0.74638 0.77432 0.61322 0.0
H782 H 0.75325 0.8309 0.62635 0.0
H783 H 0.82645 0.87226 0.67383 0.0
H784 H 0.78967 0.9914 0.72384 0.0
H785 H 0.79079 0.93913 0.70966 0.0
C786 C 0.77557 0.74099 0.02691 0.0
C787 C 0.76016 0.76296 0.02168 0.0
C788 C 0.81064 0.74884 0.02086 0.0
C789 C 0.87729 0.79488 0.98518 0.0
H790 H 0.94738 0.78879 0.01661 0.0
C791 C 0.0247 0.82871 0.96301 0.0
C792 C 0.036 0.80345 0.96847 0.0
C793 C 0.99291 0.82733 0.97016 0.0
C794 C 0.92802 0.79036 0.00764 0.0
H795 H 0.76951 0.81047 0.00599 0.0
H796 H 0.8308 0.82415 0.99543 0.0
H797 H 0.88792 0.77919 0.02771 0.0
H798 H 0.02322 0.75745 0.98599 0.0
H799 H 0.96779 0.75483 -0.00173 0.0
H800 H 0.91708 0.80539 0.96505 0.0
C801 C 0.81561 0.80071 0.00413 0.0
C802 C 0.89397 0.78485 0.014 0.0
C803 C 0.78057 0.79295 0.01024 0.0
C804 C 0.01533 0.77735 0.98149 0.0
C805 C 0.98364 0.776 0.98863 0.0
C806 C 0.91133 0.80032 0.97881 0.0
C807 C 0.83104 0.77877 0.0094 0.0
C808 C 0.86803 0.78661 0.0028 0.0
C809 C 0.97183 0.80072 0.98294 0.0
C810 C 0.93689 0.79766 0.98993 0.0
H811 H 0.76058 0.71767 0.03569 0.0
H812 H 0.82155 0.7311 0.02496 0.0
H813 H 0.85772 0.79602 0.97619 0.0
H814 H 0.04007 0.84923 0.95305 0.0
H815 H 0.98478 0.84705 0.96566 0.0
C816 C 0.0046 0.75658 0.37267 0.0
C817 C 0.96788 0.73984 0.36621 0.0
C818 C 0.03312 0.78903 0.36505 0.0
C819 C 0.05063 0.86907 0.33744 0.0
H820 H 0.14666 0.87599 0.32972 0.0
C821 C 0.16927 0.98801 0.29738 0.0
C822 C 0.20592 0.00264 0.30367 0.0
C823 C 0.1396 0.95635 0.30503 0.0
C824 C 0.12016 0.87471 0.33196 0.0
H825 H 0.93223 0.74428 0.3468 0.0
H826 H 0.98214 0.80087 0.33344 0.0
H827 H 0.09611 0.82012 0.3431 0.0
H828 H 0.24003 0.99593 0.32319 0.0
H829 H 0.18836 0.94117 0.33662 0.0
H830 H 0.0748 0.92378 0.32631 0.0
C831 C 0.98877 0.78903 0.34449 0.0
C832 C 0.09119 0.84267 0.33963 0.0
C833 C 0.96023 0.7565 0.35209 0.0
C834 C 0.21218 0.98526 0.31793 0.0
C835 C 0.18258 0.95371 0.32558 0.0
C836 C 0.07968 0.90119 0.32978 0.0
C837 C 0.02557 0.80553 0.35082 0.0
C838 C 0.05615 0.83953 0.34252 0.0
C839 C 0.14599 0.93869 0.31914 0.0
C840 C 0.11482 0.90443 0.32703 0.0
H841 H 0.01142 0.74455 0.38357 0.0
H842 H 0.06109 0.80138 0.37038 0.0
H843 H 0.02407 0.86764 0.33967 0.0
H844 H 0.16352 0.00072 0.2864 0.0
H845 H 0.11179 0.94526 0.29967 0.0
C846 C 0.18213 0.00575 0.70122 0.0
C847 C 0.19772 0.98662 0.69278 0.0
C848 C 0.18133 0.03551 0.69305 0.0
C849 C 0.18813 0.07842 0.65012 0.0
H850 H 0.2183 0.16844 0.67695 0.0
C851 C 0.22664 0.21964 0.61847 0.0
C852 C 0.21519 0.24236 0.62689 0.0
C853 C 0.22166 0.18707 0.62638 0.0
C854 C 0.20928 0.14335 0.66933 0.0
H855 H 0.22406 0.98328 0.66901 0.0
H856 H 0.22286 0.03529 0.65482 0.0
H857 H 0.21436 0.1138 0.69099 0.0
H858 H 0.18889 0.24834 0.65011 0.0
H859 H 0.17993 0.19132 0.66383 0.0
H860 H 0.18338 0.10812 0.62842 0.0
C861 C 0.21096 0.0271 0.66769 0.0
C862 C 0.20703 0.11203 0.67738 0.0
C863 C 0.21186 -0.00257 0.67588 0.0
C864 C 0.19818 0.23154 0.6433 0.0
C865 C 0.19322 0.19896 0.65121 0.0
C866 C 0.19034 0.10974 0.64207 0.0
C867 C 0.19599 0.04668 0.67624 0.0
C868 C 0.19671 0.07932 0.66784 0.0
C869 C 0.20512 0.17649 0.64289 0.0
C870 C 0.20122 0.14265 0.65156 0.0
H871 H 0.17088 -0.00194 0.71423 0.0
H872 H 0.1692 0.04976 0.69989 0.0
H873 H 0.17956 0.05344 0.64248 0.0
H874 H 0.23987 0.22719 0.60583 0.0
H875 H 0.23156 0.17062 0.61971 0.0
loop_
_geom_bond_atom_site_label_1
_geom_bond_atom_site_label_2
_geom_bond_distance
_geom_bond_site_symmetry_2
_ccdc_geom_bond_type
C0 O1 1.160 . S
C0 O7 1.185 . S
O1 C0 1.160 . S
O2 Zn3 1.899 . S
O2 C10 1.284 . S
Zn3 O2 1.899 . S
Zn3 O4 2.032 . S
Zn3 O7 2.086 . S
Zn3 O12 1.977 . S
O4 Zn3 2.032 . S
O4 C8 1.278 . S
C5 O6 1.203 . S
C5 O12 1.267 . S
O6 C5 1.203 . S
O7 C0 1.185 . S
O7 Zn3 2.086 . S
C8 O4 1.278 . S
C8 O9 1.211 . S
O9 C8 1.211 . S
C10 O2 1.284 . S
C10 O11 1.273 . S
O11 C10 1.273 . S
O12 Zn3 1.977 . S
O12 C5 1.267 . S
C13 O14 1.160 . S
C13 O20 1.185 . S
O14 C13 1.160 . S
O15 Zn16 1.899 . S
O15 C23 1.284 . S
Zn16 O15 1.899 . S
Zn16 O17 2.032 . S
Zn16 O20 2.086 . S
Zn16 O25 1.977 . S
O17 Zn16 2.032 . S
O17 C21 1.278 . S
C18 O19 1.203 . S
C18 O25 1.267 . S
O19 C18 1.203 . S
O20 C13 1.185 . S
O20 Zn16 2.086 . S
C21 O17 1.278 . S
C21 O22 1.211 . S
O22 C21 1.211 . S
C23 O15 1.284 . S
C23 O24 1.273 . S
O24 C23 1.273 . S
O25 Zn16 1.977 . S
O25 C18 1.267 . S
C26 O27 1.160 . S
C26 O33 1.185 . S
O27 C26 1.160 . S
O28 Zn29 1.899 . S
O28 C36 1.284 . S
Zn29 O28 1.899 . S
Zn29 O30 2.032 . S
Zn29 O33 2.086 . S
Zn29 O38 1.977 . S
O30 Zn29 2.032 . S
O30 C34 1.278 . S
C31 O32 1.203 . S
C31 O38 1.267 . S
O32 C31 1.203 . S
O33 C26 1.185 . S
O33 Zn29 2.086 . S
C34 O30 1.278 . S
C34 O35 1.211 . S
O35 C34 1.211 . S
C36 O28 1.284 . S
C36 O37 1.273 . S
O37 C36 1.273 . S
O38 Zn29 1.977 . S
O38 C31 1.267 . S
C39 O40 1.160 . S
C39 O46 1.185 . S
O40 C39 1.160 . S
O41 Zn42 1.899 . S
O41 C49 1.284 . S
Zn42 O41 1.899 . S
Zn42 O43 2.032 . S
Zn42 O46 2.086 . S
Zn42 O51 1.977 . S
O43 Zn42 2.032 . S
O43 C47 1.278 . S
C44 O45 1.203 . S
C44 O51 1.267 . S
O45 C44 1.203 . S
O46 C39 1.185 . S
O46 Zn42 2.086 . S
C47 O43 1.278 . S
C47 O48 1.211 . S
O48 C47 1.211 . S
C49 O41 1.284 . S
C49 O50 1.273 . S
O50 C49 1.273 . S
O51 Zn42 1.977 . S
O51 C44 1.267 . S
C52 O53 1.160 . S
C52 O59 1.185 . S
O53 C52 1.160 . S
O54 Zn55 1.899 . S
O54 C62 1.284 . S
Zn55 O54 1.899 . S
Zn55 O56 2.032 . S
Zn55 O59 2.086 . S
Zn55 O64 1.977 . S
O56 Zn55 2.032 . S
O56 C60 1.278 . S
C57 O58 1.203 . S
C57 O64 1.267 . S
O58 C57 1.203 . S
O59 C52 1.185 . S
O59 Zn55 2.086 . S
C60 O56 1.278 . S
C60 O61 1.211 . S
O61 C60 1.211 . S
C62 O54 1.284 . S
C62 O63 1.273 . S
O63 C62 1.273 . S
O64 Zn55 1.977 . S
O64 C57 1.267 . S
C65 O66 1.160 . S
C65 O72 1.185 . S
O66 C65 1.160 . S
O67 Zn68 1.899 . S
O67 C75 1.284 . S
Zn68 O67 1.899 . S
Zn68 O69 2.032 . S
Zn68 O72 2.086 . S
Zn68 O77 1.977 . S
O69 Zn68 2.032 . S
O69 C73 1.278 . S
C70 O71 1.203 . S
C70 O77 1.267 . S
O71 C70 1.203 . S
O72 C65 1.185 . S
O72 Zn68 2.086 . S
C73 O69 1.278 . S
C73 O74 1.211 . S
O74 C73 1.211 . S
C75 O67 1.284 . S
C75 O76 1.273 . S
O76 C75 1.273 . S
O77 Zn68 1.977 . S
O77 C70 1.267 . S
C78 O79 1.160 . S
C78 O85 1.185 . S
O79 C78 1.160 . S
O80 Zn81 1.899 . S
O80 C88 1.284 . S
Zn81 O80 1.899 . S
Zn81 O82 2.032 . S
Zn81 O85 2.086 . S
Zn81 O90 1.977 . S
O82 Zn81 2.032 . S
O82 C86 1.278 . S
C83 O84 1.203 . S
C83 O90 1.267 . S
O84 C83 1.203 . S
O85 C78 1.185 . S
O85 Zn81 2.086 . S
C86 O82 1.278 . S
C86 O87 1.211 . S
O87 C86 1.211 . S
C88 O80 1.284 . S
C88 O89 1.273 . S
O89 C88 1.273 . S
O90 Zn81 1.977 . S
O90 C83 1.267 . S
C91 O92 1.160 . S
C91 O98 1.185 . S
O92 C91 1.160 . S
O93 Zn94 1.899 . S
O93 C101 1.284 . S
Zn94 O93 1.899 . S
Zn94 O95 2.032 . S
Zn94 O98 2.086 . S
Zn94 O103 1.977 . S
O95 Zn94 2.032 . S
O95 C99 1.278 . S
C96 O97 1.203 . S
C96 O103 1.267 . S
O97 C96 1.203 . S
O98 C91 1.185 . S
O98 Zn94 2.086 . S
C99 O95 1.278 . S
C99 O100 1.211 . S
O100 C99 1.211 . S
C101 O93 1.284 . S
C101 O102 1.273 . S
O102 C101 1.273 . S
O103 Zn94 1.977 . S
O103 C96 1.267 . S
C104 O105 1.160 . S
C104 O111 1.185 . S
O105 C104 1.160 . S
O106 Zn107 1.899 . S
O106 C114 1.284 . S
Zn107 O106 1.899 . S
Zn107 O108 2.032 . S
Zn107 O111 2.086 . S
Zn107 O116 1.977 . S
O108 Zn107 2.032 . S
O108 C112 1.278 . S
C109 O110 1.203 . S
C109 O116 1.267 . S
O110 C109 1.203 . S
O111 C104 1.185 . S
O111 Zn107 2.086 . S
C112 O108 1.278 . S
C112 O113 1.211 . S
O113 C112 1.211 . S
C114 O106 1.284 . S
C114 O115 1.273 . S
O115 C114 1.273 . S
O116 Zn107 1.977 . S
O116 C109 1.267 . S
C117 O118 1.160 . S
C117 O124 1.185 . S
O118 C117 1.160 . S
O119 Zn120 1.899 . S
O119 C127 1.284 . S
Zn120 O119 1.899 . S
Zn120 O121 2.032 . S
Zn120 O124 2.086 . S
Zn120 O129 1.977 . S
O121 Zn120 2.032 . S
O121 C125 1.278 . S
C122 O123 1.203 . S
C122 O129 1.267 . S
O123 C122 1.203 . S
O124 C117 1.185 . S
O124 Zn120 2.086 . S
C125 O121 1.278 . S
C125 O126 1.211 . S
O126 C125 1.211 . S
C127 O119 1.284 . S
C127 O128 1.273 . S
O128 C127 1.273 . S
O129 Zn120 1.977 . S
O129 C122 1.267 . S
C130 O131 1.160 . S
C130 O137 1.185 . S
O131 C130 1.160 . S
O132 Zn133 1.899 . S
O132 C140 1.284 . S
Zn133 O132 1.899 . S
Zn133 O134 2.032 . S
Zn133 O137 2.086 . S
Zn133 O142 1.977 . S
O134 Zn133 2.032 . S
O134 C138 1.278 . S
C135 O136 1.203 . S
C135 O142 1.267 . S
O136 C135 1.203 . S
O137 C130 1.185 . S
O137 Zn133 2.086 . S
C138 O134 1.278 . S
C138 O139 1.211 . S
O139 C138 1.211 . S
C140 O132 1.284 . S
C140 O141 1.273 . S
O141 C140 1.273 . S
O142 Zn133 1.977 . S
O142 C135 1.267 . S
C143 O144 1.160 . S
C143 O150 1.185 . S
O144 C143 1.160 . S
O145 Zn146 1.899 . S
O145 C153 1.284 . S
Zn146 O145 1.899 . S
Zn146 O147 2.032 . S
Zn146 O150 2.086 . S
Zn146 O155 1.977 . S
O147 Zn146 2.032 . S
O147 C151 1.278 . S
C148 O149 1.203 . S
C148 O155 1.267 . S
O149 C148 1.203 . S
O150 C143 1.185 . S
O150 Zn146 2.086 . S
C151 O147 1.278 . S
C151 O152 1.211 . S
O152 C151 1.211 . S
C153 O145 1.284 . S
C153 O154 1.273 . S
O154 C153 1.273 . S
O155 Zn146 1.977 . S
O155 C148 1.267 . S
C156 C157 1.349 . S
C156 C158 1.327 . S
C156 H181 0.950 . S
C157 C156 1.349 . S
C157 C173 1.349 . S
C158 C156 1.327 . S
C158 C177 1.429 . S
C158 H182 0.950 . S
C159 C176 1.574 . S
C159 C178 1.368 . S
C159 H183 0.949 . S
H160 C164 0.949 . S
C161 C162 1.349 . S
C161 C163 1.327 . S
C161 H184 0.950 . S
C162 C161 1.349 . S
C162 C174 1.349 . S
C163 C161 1.327 . S
C163 C179 1.429 . S
C163 H185 0.950 . S
C164 H160 0.949 . S
C164 C172 1.574 . S
C164 C180 1.368 . S
H165 C173 0.950 . S
H166 C171 0.950 . S
H167 C172 0.949 . S
H168 C174 0.950 . S
H169 C175 0.950 . S
H170 C176 0.949 . S
C171 H166 0.950 . S
C171 C173 1.327 . S
C171 C177 1.429 . S
C172 C164 1.574 . S
C172 H167 0.949 . S
C172 C178 1.368 . S
C173 C157 1.349 . S
C173 H165 0.950 . S
C173 C171 1.327 . S
C174 C162 1.349 . S
C174 H168 0.950 . S
C174 C175 1.327 . S
C175 H169 0.950 . S
C175 C174 1.327 . S
C175 C179 1.429 . S
C176 C159 1.574 . S
C176 H170 0.949 . S
C176 C180 1.368 . S
C177 C158 1.429 . S
C177 C171 1.429 . S
C177 C178 1.523 . S
C178 C159 1.368 . S
C178 C172 1.368 . S
C178 C177 1.523 . S
C179 C163 1.429 . S
C179 C175 1.429 . S
C179 C180 1.523 . S
C180 C164 1.368 . S
C180 C176 1.368 . S
C180 C179 1.523 . S
H181 C156 0.950 . S
H182 C158 0.950 . S
H183 C159 0.949 . S
H184 C161 0.950 . S
H185 C163 0.950 . S
C186 C187 1.349 . S
C186 C188 1.327 . S
C186 H211 0.950 . S
C187 C186 1.349 . S
C187 C203 1.349 . S
C188 C186 1.327 . S
C188 C207 1.429 . S
C188 H212 0.950 . S
C189 C206 1.574 . S
C189 C208 1.368 . S
C189 H213 0.949 . S
H190 C194 0.949 . S
C191 C192 1.349 . S
C191 C193 1.327 . S
C191 H214 0.950 . S
C192 C191 1.349 . S
C192 C204 1.349 . S
C193 C191 1.327 . S
C193 C209 1.429 . S
C193 H215 0.950 . S
C194 H190 0.949 . S
C194 C202 1.574 . S
C194 C210 1.368 . S
H195 C203 0.950 . S
H196 C201 0.950 . S
H197 C202 0.949 . S
H198 C204 0.950 . S
H199 C205 0.950 . S
H200 C206 0.949 . S
C201 H196 0.950 . S
C201 C203 1.327 . S
C201 C207 1.429 . S
C202 C194 1.574 . S
C202 H197 0.949 . S
C202 C208 1.368 1_655 S
C203 C187 1.349 . S
C203 H195 0.950 . S
C203 C201 1.327 . S
C204 C192 1.349 . S
C204 H198 0.950 . S
C204 C205 1.327 . S
C205 H199 0.950 . S
C205 C204 1.327 . S
C205 C209 1.429 . S
C206 C189 1.574 . S
C206 H200 0.949 . S
C206 C210 1.368 1_455 S
C207 C188 1.429 . S
C207 C201 1.429 . S
C207 C208 1.523 . S
C208 C189 1.368 . S
C208 C202 1.368 1_455 S
C208 C207 1.523 . S
C209 C193 1.429 . S
C209 C205 1.429 . S
C209 C210 1.523 . S
C210 C194 1.368 . S
C210 C206 1.368 1_655 S
C210 C209 1.523 . S
H211 C186 0.950 . S
H212 C188 0.950 . S
H213 C189 0.949 . S
H214 C191 0.950 . S
H215 C193 0.950 . S
C216 C217 1.349 . S
C216 C218 1.327 . S
C216 H241 0.950 . S
C217 C216 1.349 . S
C217 C233 1.349 . S
C218 C216 1.327 . S
C218 C237 1.429 . S
C218 H242 0.950 . S
C219 C236 1.574 . S
C219 C238 1.368 . S
C219 H243 0.949 . S
H220 C224 0.949 . S
C221 C222 1.349 . S
C221 C223 1.327 . S
C221 H244 0.950 . S
C222 C221 1.349 . S
C222 C234 1.349 . S
C223 C221 1.327 . S
C223 C239 1.429 . S
C223 H245 0.950 . S
C224 H220 0.949 . S
C224 C232 1.574 . S
C224 C240 1.368 . S
H225 C233 0.950 . S
H226 C231 0.950 . S
H227 C232 0.949 . S
H228 C234 0.950 . S
H229 C235 0.950 . S
H230 C236 0.949 . S
C231 H226 0.950 . S
C231 C233 1.327 . S
C231 C237 1.429 . S
C232 C224 1.574 . S
C232 H227 0.949 . S
C232 C238 1.368 1_545 S
C233 C217 1.349 . S
C233 H225 0.950 . S
C233 C231 1.327 . S
C234 C222 1.349 . S
C234 H228 0.950 . S
C234 C235 1.327 . S
C235 H229 0.950 . S
C235 C234 1.327 . S
C235 C239 1.429 . S
C236 C219 1.574 . S
C236 H230 0.949 . S
C236 C240 1.368 1_565 S
C237 C218 1.429 . S
C237 C231 1.429 . S
C237 C238 1.523 . S
C238 C219 1.368 . S
C238 C232 1.368 1_565 S
C238 C237 1.523 . S
C239 C223 1.429 . S
C239 C235 1.429 . S
C239 C240 1.523 . S
C240 C224 1.368 . S
C240 C236 1.368 1_545 S
C240 C239 1.523 . S
H241 C216 0.950 . S
H242 C218 0.950 . S
H243 C219 0.949 . S
H244 C221 0.950 . S
H245 C223 0.950 . S
C246 C247 1.349 . S
C246 C248 1.327 . S
C246 H271 0.950 . S
C247 C246 1.349 . S
C247 C263 1.349 . S
C248 C246 1.327 . S
C248 C267 1.429 . S
C248 H272 0.950 . S
C249 C266 1.574 . S
C249 C268 1.368 . S
C249 H273 0.949 . S
H250 C254 0.949 . S
C251 C252 1.349 . S
C251 C253 1.327 . S
C251 H274 0.950 . S
C252 C251 1.349 . S
C252 C264 1.349 . S
C253 C251 1.327 . S
C253 C269 1.429 . S
C253 H275 0.950 . S
C254 H250 0.949 . S
C254 C262 1.574 . S
C254 C270 1.368 . S
H255 C263 0.950 . S
H256 C261 0.950 . S
H257 C262 0.949 . S
H258 C264 0.950 . S
H259 C265 0.950 . S
H260 C266 0.949 . S
C261 H256 0.950 . S
C261 C263 1.327 . S
C261 C267 1.429 . S
C262 C254 1.574 . S
C262 H257 0.949 . S
C262 C268 1.368 . S
C263 C247 1.349 . S
C263 H255 0.950 . S
C263 C261 1.327 . S
C264 C252 1.349 . S
C264 H258 0.950 . S
C264 C265 1.327 . S
C265 H259 0.950 . S
C265 C264 1.327 . S
C265 C269 1.429 . S
C266 C249 1.574 . S
C266 H260 0.949 . S
C266 C270 1.368 . S
C267 C248 1.429 . S
C267 C261 1.429 . S
C267 C268 1.523 . S
C268 C249 1.368 . S
C268 C262 1.368 . S
C268 C267 1.523 . S
C269 C253 1.429 . S
C269 C265 1.429 . S
C269 C270 1.523 . S
C270 C254 1.368 . S
C270 C266 1.368 . S
C270 C269 1.523 . S
H271 C246 0.950 . S
H272 C248 0.950 . S
H273 C249 0.949 . S
H274 C251 0.950 . S
H275 C253 0.950 . S
C276 C277 1.349 . S
C276 C278 1.327 . S
C276 H301 0.950 . S
C277 C276 1.349 . S
C277 C293 1.349 . S
C278 C276 1.327 . S
C278 C297 1.429 . S
C278 H302 0.950 . S
C279 C296 1.574 . S
C279 C298 1.368 1_455 S
C279 H303 0.949 . S
H280 C284 0.949 . S
C281 C282 1.349 . S
C281 C283 1.327 . S
C281 H304 0.950 . S
C282 C281 1.349 . S
C282 C294 1.349 . S
C283 C281 1.327 . S
C283 C299 1.429 . S
C283 H305 0.950 . S
C284 H280 0.949 . S
C284 C292 1.574 . S
C284 C300 1.368 1_655 S
H285 C293 0.950 . S
H286 C291 0.950 . S
H287 C292 0.949 . S
H288 C294 0.950 . S
H289 C295 0.950 . S
H290 C296 0.949 . S
C291 H286 0.950 . S
C291 C293 1.327 . S
C291 C297 1.429 . S
C292 C284 1.574 . S
C292 H287 0.949 . S
C292 C298 1.368 . S
C293 C277 1.349 . S
C293 H285 0.950 . S
C293 C291 1.327 . S
C294 C282 1.349 . S
C294 H288 0.950 . S
C294 C295 1.327 . S
C295 H289 0.950 . S
C295 C294 1.327 . S
C295 C299 1.429 . S
C296 C279 1.574 . S
C296 H290 0.949 . S
C296 C300 1.368 . S
C297 C278 1.429 . S
C297 C291 1.429 . S
C297 C298 1.523 . S
C298 C279 1.368 1_655 S
C298 C292 1.368 . S
C298 C297 1.523 . S
C299 C283 1.429 . S
C299 C295 1.429 . S
C299 C300 1.523 . S
C300 C284 1.368 1_455 S
C300 C296 1.368 . S
C300 C299 1.523 . S
H301 C276 0.950 . S
H302 C278 0.950 . S
H303 C279 0.949 . S
H304 C281 0.950 . S
H305 C283 0.950 . S
C306 C307 1.349 . S
C306 C308 1.327 . S
C306 H331 0.950 . S
C307 C306 1.349 . S
C307 C323 1.349 . S
C308 C306 1.327 . S
C308 C327 1.429 . S
C308 H332 0.950 . S
C309 C326 1.574 . S
C309 C328 1.368 . S
C309 H333 0.949 . S
H310 C314 0.949 . S
C311 C312 1.349 . S
C311 C313 1.327 . S
C311 H334 0.950 . S
C312 C311 1.349 . S
C312 C324 1.349 . S
C313 C311 1.327 . S
C313 C329 1.429 . S
C313 H335 0.950 . S
C314 H310 0.949 . S
C314 C322 1.574 . S
C314 C330 1.368 . S
H315 C323 0.950 . S
H316 C321 0.950 . S
H317 C322 0.949 . S
H318 C324 0.950 . S
H319 C325 0.950 . S
H320 C326 0.949 . S
C321 H316 0.950 . S
C321 C323 1.327 . S
C321 C327 1.429 . S
C322 C314 1.574 . S
C322 H317 0.949 . S
C322 C328 1.368 1_565 S
C323 C307 1.349 . S
C323 H315 0.950 . S
C323 C321 1.327 . S
C324 C312 1.349 . S
C324 H318 0.950 . S
C324 C325 1.327 . S
C325 H319 0.950 . S
C325 C324 1.327 . S
C325 C329 1.429 . S
C326 C309 1.574 . S
C326 H320 0.949 . S
C326 C330 1.368 1_545 S
C327 C308 1.429 . S
C327 C321 1.429 . S
C327 C328 1.523 . S
C328 C309 1.368 . S
C328 C322 1.368 1_545 S
C328 C327 1.523 . S
C329 C313 1.429 . S
C329 C325 1.429 . S
C329 C330 1.523 . S
C330 C314 1.368 . S
C330 C326 1.368 1_565 S
C330 C329 1.523 . S
H331 C306 0.950 . S
H332 C308 0.950 . S
H333 C309 0.949 . S
H334 C311 0.950 . S
H335 C313 0.950 . S
C336 C337 1.349 . S
C336 C338 1.327 . S
C336 H361 0.950 . S
C337 C336 1.349 . S
C337 C353 1.349 . S
C338 C336 1.327 . S
C338 C357 1.429 . S
C338 H362 0.950 . S
C339 C356 1.574 . S
C339 C358 1.368 . S
C339 H363 0.949 . S
H340 C344 0.949 . S
C341 C342 1.349 . S
C341 C343 1.327 . S
C341 H364 0.950 . S
C342 C341 1.349 . S
C342 C354 1.349 . S
C343 C341 1.327 . S
C343 C359 1.429 . S
C343 H365 0.950 . S
C344 H340 0.949 . S
C344 C352 1.574 . S
C344 C360 1.368 . S
H345 C353 0.950 . S
H346 C351 0.950 . S
H347 C352 0.949 . S
H348 C354 0.950 . S
H349 C355 0.950 . S
H350 C356 0.949 . S
C351 H346 0.950 . S
C351 C353 1.327 . S
C351 C357 1.429 . S
C352 C344 1.574 . S
C352 H347 0.949 . S
C352 C358 1.368 . S
C353 C337 1.349 . S
C353 H345 0.950 . S
C353 C351 1.327 . S
C354 C342 1.349 . S
C354 H348 0.950 . S
C354 C355 1.327 . S
C355 H349 0.950 . S
C355 C354 1.327 . S
C355 C359 1.429 . S
C356 C339 1.574 . S
C356 H350 0.949 . S
C356 C360 1.368 . S
C357 C338 1.429 . S
C357 C351 1.429 . S
C357 C358 1.523 . S
C358 C339 1.368 . S
C358 C352 1.368 . S
C358 C357 1.523 . S
C359 C343 1.429 . S
C359 C355 1.429 . S
C359 C360 1.523 . S
C360 C344 1.368 . S
C360 C356 1.368 . S
C360 C359 1.523 . S
H361 C336 0.950 . S
H362 C338 0.950 . S
H363 C339 0.949 . S
H364 C341 0.950 . S
H365 C343 0.950 . S
C366 C367 1.349 . S
C366 C368 1.327 . S
C366 H391 0.950 . S
C367 C366 1.349 . S
C367 C383 1.349 . S
C368 C366 1.327 . S
C368 C387 1.429 . S
C368 H392 0.950 . S
C369 C386 1.574 . S
C369 C388 1.368 . S
C369 H393 0.949 . S
H370 C374 0.949 . S
C371 C372 1.349 . S
C371 C373 1.327 . S
C371 H394 0.950 . S
C372 C371 1.349 . S
C372 C384 1.349 . S
C373 C371 1.327 . S
C373 C389 1.429 . S
C373 H395 0.950 . S
C374 H370 0.949 . S
C374 C382 1.574 . S
C374 C390 1.368 . S
H375 C383 0.950 . S
H376 C381 0.950 . S
H377 C382 0.949 . S
H378 C384 0.950 . S
H379 C385 0.950 . S
H380 C386 0.949 . S
C381 H376 0.950 . S
C381 C383 1.327 . S
C381 C387 1.429 . S
C382 C374 1.574 . S
C382 H377 0.949 . S
C382 C388 1.368 . S
C383 C367 1.349 . S
C383 H375 0.950 . S
C383 C381 1.327 . S
C384 C372 1.349 . S
C384 H378 0.950 . S
C384 C385 1.327 . S
C385 H379 0.950 . S
C385 C384 1.327 . S
C385 C389 1.429 . S
C386 C369 1.574 . S
C386 H380 0.949 . S
C386 C390 1.368 . S
C387 C368 1.429 . S
C387 C381 1.429 . S
C387 C388 1.523 . S
C388 C369 1.368 . S
C388 C382 1.368 . S
C388 C387 1.523 . S
C389 C373 1.429 . S
C389 C385 1.429 . S
C389 C390 1.523 . S
C390 C374 1.368 . S
C390 C386 1.368 . S
C390 C389 1.523 . S
H391 C366 0.950 . S
H392 C368 0.950 . S
H393 C369 0.949 . S
H394 C371 0.950 . S
H395 C373 0.950 . S
C396 C397 1.349 . S
C396 C398 1.327 . S
C396 H421 0.950 . S
C397 C396 1.349 . S
C397 C413 1.349 . S
C398 C396 1.327 . S
C398 C417 1.429 . S
C398 H422 0.950 . S
C399 C416 1.574 . S
C399 C418 1.368 . S
C399 H423 0.949 . S
H400 C404 0.949 . S
C401 C402 1.349 . S
C401 C403 1.327 . S
C401 H424 0.950 . S
C402 C401 1.349 . S
C402 C414 1.349 . S
C403 C401 1.327 . S
C403 C419 1.429 . S
C403 H425 0.950 . S
C404 H400 0.949 . S
C404 C412 1.574 . S
C404 C420 1.368 . S
H405 C413 0.950 . S
H406 C411 0.950 . S
H407 C412 0.949 . S
H408 C414 0.950 . S
H409 C415 0.950 . S
H410 C416 0.949 . S
C411 H406 0.950 . S
C411 C413 1.327 . S
C411 C417 1.429 . S
C412 C404 1.574 . S
C412 H407 0.949 . S
C412 C418 1.368 . S
C413 C397 1.349 . S
C413 H405 0.950 . S
C413 C411 1.327 . S
C414 C402 1.349 . S
C414 H408 0.950 . S
C414 C415 1.327 . S
C415 H409 0.950 . S
C415 C414 1.327 . S
C415 C419 1.429 . S
C416 C399 1.574 . S
C416 H410 0.949 . S
C416 C420 1.368 . S
C417 C398 1.429 . S
C417 C411 1.429 . S
C417 C418 1.523 . S
C418 C399 1.368 . S
C418 C412 1.368 . S
C418 C417 1.523 . S
C419 C403 1.429 . S
C419 C415 1.429 . S
C419 C420 1.523 . S
C420 C404 1.368 . S
C420 C416 1.368 . S
C420 C419 1.523 . S
H421 C396 0.950 . S
H422 C398 0.950 . S
H423 C399 0.949 . S
H424 C401 0.950 . S
H425 C403 0.950 . S
C426 C427 1.349 . S
C426 C428 1.327 . S
C426 H451 0.950 . S
C427 C426 1.349 . S
C427 C443 1.349 . S
C428 C426 1.327 . S
C428 C447 1.429 . S
C428 H452 0.950 . S
C429 C446 1.574 . S
C429 C448 1.368 . S
C429 H453 0.949 . S
H430 C434 0.949 . S
C431 C432 1.349 . S
C431 C433 1.327 . S
C431 H454 0.950 . S
C432 C431 1.349 . S
C432 C444 1.349 . S
C433 C431 1.327 . S
C433 C449 1.429 . S
C433 H455 0.950 . S
C434 H430 0.949 . S
C434 C442 1.574 . S
C434 C450 1.368 . S
H435 C443 0.950 . S
H436 C441 0.950 . S
H437 C442 0.949 . S
H438 C444 0.950 . S
H439 C445 0.950 . S
H440 C446 0.949 . S
C441 H436 0.950 . S
C441 C443 1.327 . S
C441 C447 1.429 . S
C442 C434 1.574 . S
C442 H437 0.949 . S
C442 C448 1.368 . S
C443 C427 1.349 . S
C443 H435 0.950 . S
C443 C441 1.327 . S
C444 C432 1.349 . S
C444 H438 0.950 . S
C444 C445 1.327 . S
C445 H439 0.950 . S
C445 C444 1.327 . S
C445 C449 1.429 . S
C446 C429 1.574 . S
C446 H440 0.949 . S
C446 C450 1.368 . S
C447 C428 1.429 . S
C447 C441 1.429 . S
C447 C448 1.523 . S
C448 C429 1.368 . S
C448 C442 1.368 . S
C448 C447 1.523 . S
C449 C433 1.429 . S
C449 C445 1.429 . S
C449 C450 1.523 . S
C450 C434 1.368 . S
C450 C446 1.368 . S
C450 C449 1.523 . S
H451 C426 0.950 . S
H452 C428 0.950 . S
H453 C429 0.949 . S
H454 C431 0.950 . S
H455 C433 0.950 . S
C456 C457 1.349 . S
C456 C458 1.327 . S
C456 H481 0.950 . S
C457 C456 1.349 . S
C457 C473 1.349 . S
C458 C456 1.327 . S
C458 C477 1.429 . S
C458 H482 0.950 . S
C459 C476 1.574 . S
C459 C478 1.368 . S
C459 H483 0.949 . S
H460 C464 0.949 . S
C461 C462 1.349 . S
C461 C463 1.327 . S
C461 H484 0.950 . S
C462 C461 1.349 . S
C462 C474 1.349 . S
C463 C461 1.327 . S
C463 C479 1.429 . S
C463 H485 0.950 . S
C464 H460 0.949 . S
C464 C472 1.574 . S
C464 C480 1.368 . S
H465 C473 0.950 . S
H466 C471 0.950 . S
H467 C472 0.949 . S
H468 C474 0.950 . S
H469 C475 0.950 . S
H470 C476 0.949 . S
C471 H466 0.950 . S
C471 C473 1.327 . S
C471 C477 1.429 . S
C472 C464 1.574 . S
C472 H467 0.949 . S
C472 C478 1.368 . S
C473 C457 1.349 . S
C473 H465 0.950 . S
C473 C471 1.327 . S
C474 C462 1.349 . S
C474 H468 0.950 . S
C474 C475 1.327 . S
C475 H469 0.950 . S
C475 C474 1.327 . S
C475 C479 1.429 . S
C476 C459 1.574 . S
C476 H470 0.949 . S
C476 C480 1.368 . S
C477 C458 1.429 . S
C477 C471 1.429 . S
C477 C478 1.523 . S
C478 C459 1.368 . S
C478 C472 1.368 . S
C478 C477 1.523 . S
C479 C463 1.429 . S
C479 C475 1.429 . S
C479 C480 1.523 . S
C480 C464 1.368 . S
C480 C476 1.368 . S
C480 C479 1.523 . S
H481 C456 0.950 . S
H482 C458 0.950 . S
H483 C459 0.949 . S
H484 C461 0.950 . S
H485 C463 0.950 . S
C486 C487 1.349 . S
C486 C488 1.327 . S
C486 H511 0.950 . S
C487 C486 1.349 . S
C487 C503 1.349 . S
C488 C486 1.327 . S
C488 C507 1.429 . S
C488 H512 0.950 . S
C489 C506 1.574 . S
C489 C508 1.368 . S
C489 H513 0.949 . S
H490 C494 0.949 . S
C491 C492 1.349 . S
C491 C493 1.327 . S
C491 H514 0.950 . S
C492 C491 1.349 . S
C492 C504 1.349 . S
C493 C491 1.327 . S
C493 C509 1.429 . S
C493 H515 0.950 . S
C494 H490 0.949 . S
C494 C502 1.574 . S
C494 C510 1.368 . S
H495 C503 0.950 . S
H496 C501 0.950 . S
H497 C502 0.949 . S
H498 C504 0.950 . S
H499 C505 0.950 . S
H500 C506 0.949 . S
C501 H496 0.950 . S
C501 C503 1.327 . S
C501 C507 1.429 . S
C502 C494 1.574 . S
C502 H497 0.949 . S
C502 C508 1.368 . S
C503 C487 1.349 . S
C503 H495 0.950 . S
C503 C501 1.327 . S
C504 C492 1.349 . S
C504 H498 0.950 . S
C504 C505 1.327 . S
C505 H499 0.950 . S
C505 C504 1.327 . S
C505 C509 1.429 . S
C506 C489 1.574 . S
C506 H500 0.949 . S
C506 C510 1.368 . S
C507 C488 1.429 . S
C507 C501 1.429 . S
C507 C508 1.523 . S
C508 C489 1.368 . S
C508 C502 1.368 . S
C508 C507 1.523 . S
C509 C493 1.429 . S
C509 C505 1.429 . S
C509 C510 1.523 . S
C510 C494 1.368 . S
C510 C506 1.368 . S
C510 C509 1.523 . S
H511 C486 0.950 . S
H512 C488 0.950 . S
H513 C489 0.949 . S
H514 C491 0.950 . S
H515 C493 0.950 . S
C516 C517 1.349 . S
C516 C518 1.327 . S
C516 H541 0.950 . S
C517 C516 1.349 . S
C517 C533 1.349 . S
C518 C516 1.327 . S
C518 C537 1.429 . S
C518 H542 0.950 . S
C519 C536 1.574 1_565 S
C519 C538 1.368 1_554 S
C519 H543 0.949 . S
H520 C524 0.949 . S
C521 C522 1.349 . S
C521 C523 1.327 . S
C521 H544 0.950 . S
C522 C521 1.349 . S
C522 C534 1.349 . S
C523 C521 1.327 . S
C523 C539 1.429 . S
C523 H545 0.950 . S
C524 H520 0.949 . S
C524 C532 1.574 1_545 S
C524 C540 1.368 1_556 S
H525 C533 0.950 1_554 S
H526 C531 1.014 . S
H527 C532 0.949 . S
H528 C534 0.950 1_556 S
H529 C535 1.014 . S
H530 C536 0.949 . S
C531 H526 1.014 . S
C531 C533 1.308 1_554 S
C531 C537 1.387 1_554 S
C532 C524 1.574 1_565 S
C532 H527 0.949 . S
C532 C538 1.368 . S
C533 C517 1.349 . S
C533 H525 0.950 1_556 S
C533 C531 1.308 1_556 S
C534 C522 1.349 . S
C534 H528 0.950 1_554 S
C534 C535 1.308 1_554 S
C535 H529 1.014 . S
C535 C534 1.308 1_556 S
C535 C539 1.387 1_556 S
C536 C519 1.574 1_545 S
C536 H530 0.949 . S
C536 C540 1.368 . S
C537 C518 1.429 . S
C537 C531 1.387 1_556 S
C537 C538 1.523 . S
C538 C519 1.368 1_556 S
C538 C532 1.368 . S
C538 C537 1.523 . S
C539 C523 1.429 . S
C539 C535 1.387 1_554 S
C539 C540 1.523 . S
C540 C524 1.368 1_554 S
C540 C536 1.368 . S
C540 C539 1.523 . S
H541 C516 0.950 . S
H542 C518 0.950 . S
H543 C519 0.949 . S
H544 C521 0.950 . S
H545 C523 0.950 . S
C546 C547 1.349 . S
C546 C548 1.327 . S
C546 H571 0.950 . S
C547 C546 1.349 . S
C547 C563 1.349 . S
C548 C546 1.327 . S
C548 C567 1.429 . S
C548 H572 0.950 . S
C549 C566 1.574 . S
C549 C568 1.368 . S
C549 H573 0.949 . S
H550 C554 0.949 . S
C551 C552 1.349 . S
C551 C553 1.327 . S
C551 H574 0.950 . S
C552 C551 1.349 . S
C552 C564 1.349 . S
C553 C551 1.327 . S
C553 C569 1.429 . S
C553 H575 0.950 . S
C554 H550 0.949 . S
C554 C562 1.574 . S
C554 C570 1.368 . S
H555 C563 0.950 . S
H556 C561 0.950 . S
H557 C562 0.949 . S
H558 C564 0.950 . S
H559 C565 0.950 . S
H560 C566 0.949 . S
C561 H556 0.950 . S
C561 C563 1.327 . S
C561 C567 1.429 . S
C562 C554 1.574 . S
C562 H557 0.949 . S
C562 C568 1.368 . S
C563 C547 1.349 . S
C563 H555 0.950 . S
C563 C561 1.327 . S
C564 C552 1.349 . S
C564 H558 0.950 . S
C564 C565 1.327 . S
C565 H559 0.950 . S
C565 C564 1.327 . S
C565 C569 1.429 . S
C566 C549 1.574 . S
C566 H560 0.949 . S
C566 C570 1.368 . S
C567 C548 1.429 . S
C567 C561 1.429 . S
C567 C568 1.523 . S
C568 C549 1.368 . S
C568 C562 1.368 . S
C568 C567 1.523 . S
C569 C553 1.429 . S
C569 C565 1.429 . S
C569 C570 1.523 . S
C570 C554 1.368 . S
C570 C566 1.368 . S
C570 C569 1.523 . S
H571 C546 0.950 . S
H572 C548 0.950 . S
H573 C549 0.949 . S
H574 C551 0.950 . S
H575 C553 0.950 . S
C576 C577 1.349 . S
C576 C578 1.327 . S
C576 H601 0.950 . S
C577 C576 1.349 . S
C577 C593 1.349 . S
C578 C576 1.327 . S
C578 C597 1.429 . S
C578 H602 0.950 . S
C579 C596 1.574 1_655 S
C579 C598 1.368 . S
C579 H603 0.949 . S
H580 C584 0.949 . S
C581 C582 1.349 . S
C581 C583 1.327 . S
C581 H604 0.950 . S
C582 C581 1.349 . S
C582 C594 1.349 . S
C583 C581 1.327 . S
C583 C599 1.429 . S
C583 H605 0.950 . S
C584 H580 0.949 . S
C584 C592 1.574 1_455 S
C584 C600 1.368 . S
H585 C593 0.950 . S
H586 C591 0.950 . S
H587 C592 0.949 . S
H588 C594 0.950 . S
H589 C595 0.950 . S
H590 C596 0.949 . S
C591 H586 0.950 . S
C591 C593 1.327 . S
C591 C597 1.429 . S
C592 C584 1.574 1_655 S
C592 H587 0.949 . S
C592 C598 1.368 . S
C593 C577 1.349 . S
C593 H585 0.950 . S
C593 C591 1.327 . S
C594 C582 1.349 . S
C594 H588 0.950 . S
C594 C595 1.327 . S
C595 H589 0.950 . S
C595 C594 1.327 . S
C595 C599 1.429 . S
C596 C579 1.574 1_455 S
C596 H590 0.949 . S
C596 C600 1.368 . S
C597 C578 1.429 . S
C597 C591 1.429 . S
C597 C598 1.523 . S
C598 C579 1.368 . S
C598 C592 1.368 . S
C598 C597 1.523 . S
C599 C583 1.429 . S
C599 C595 1.429 . S
C599 C600 1.523 . S
C600 C584 1.368 . S
C600 C596 1.368 . S
C600 C599 1.523 . S
H601 C576 0.950 . S
H602 C578 0.950 . S
H603 C579 0.949 . S
H604 C581 0.950 . S
H605 C583 0.950 . S
C606 C607 1.349 . S
C606 C608 1.309 1_554 S
C606 H631 0.950 1_554 S
C607 C606 1.349 . S
C607 C623 1.349 . S
C608 C606 1.309 1_556 S
C608 C627 1.390 1_556 S
C608 H632 1.010 . S
C609 C626 1.574 1_565 S
C609 C628 1.368 . S
C609 H633 0.949 . S
H610 C614 0.949 . S
C611 C612 1.349 . S
C611 C613 1.309 1_556 S
C611 H634 0.950 1_556 S
C612 C611 1.349 . S
C612 C624 1.349 . S
C613 C611 1.309 1_554 S
C613 C629 1.390 1_554 S
C613 H635 1.010 . S
C614 H610 0.949 . S
C614 C622 1.574 1_545 S
C614 C630 1.368 . S
H615 C623 0.950 . S
H616 C621 0.950 . S
H617 C622 0.949 . S
H618 C624 0.950 . S
H619 C625 0.950 . S
H620 C626 0.949 . S
C621 H616 0.950 . S
C621 C623 1.327 . S
C621 C627 1.429 . S
C622 C614 1.574 1_565 S
C622 H617 0.949 . S
C622 C628 1.368 1_556 S
C623 C607 1.349 . S
C623 H615 0.950 . S
C623 C621 1.327 . S
C624 C612 1.349 . S
C624 H618 0.950 . S
C624 C625 1.327 . S
C625 H619 0.950 . S
C625 C624 1.327 . S
C625 C629 1.429 . S
C626 C609 1.574 1_545 S
C626 H620 0.949 . S
C626 C630 1.368 1_554 S
C627 C608 1.390 1_554 S
C627 C621 1.429 . S
C627 C628 1.523 . S
C628 C609 1.368 . S
C628 C622 1.368 1_554 S
C628 C627 1.523 . S
C629 C613 1.390 1_556 S
C629 C625 1.429 . S
C629 C630 1.523 . S
C630 C614 1.368 . S
C630 C626 1.368 1_556 S
C630 C629 1.523 . S
H631 C606 0.950 1_556 S
H632 C608 1.010 . S
H633 C609 0.949 . S
H634 C611 0.950 1_554 S
H635 C613 1.010 . S
C636 C637 1.349 . S
C636 C638 1.327 . S
C636 H661 0.950 . S
C637 C636 1.349 . S
C637 C653 1.349 . S
C638 C636 1.327 . S
C638 C657 1.429 . S
C638 H662 0.950 . S
C639 C656 1.574 . S
C639 C658 1.368 . S
C639 H663 0.949 . S
H640 C644 0.949 . S
C641 C642 1.349 . S
C641 C643 1.327 . S
C641 H664 0.950 . S
C642 C641 1.349 . S
C642 C654 1.349 . S
C643 C641 1.327 . S
C643 C659 1.429 . S
C643 H665 0.950 . S
C644 H640 0.949 . S
C644 C652 1.574 . S
C644 C660 1.368 . S
H645 C653 0.950 . S
H646 C651 0.950 . S
H647 C652 0.949 . S
H648 C654 0.950 . S
H649 C655 0.950 . S
H650 C656 0.949 . S
C651 H646 0.950 . S
C651 C653 1.327 . S
C651 C657 1.429 . S
C652 C644 1.574 . S
C652 H647 0.949 . S
C652 C658 1.368 . S
C653 C637 1.349 . S
C653 H645 0.950 . S
C653 C651 1.327 . S
C654 C642 1.349 . S
C654 H648 0.950 . S
C654 C655 1.327 . S
C655 H649 0.950 . S
C655 C654 1.327 . S
C655 C659 1.429 . S
C656 C639 1.574 . S
C656 H650 0.949 . S
C656 C660 1.368 . S
C657 C638 1.429 . S
C657 C651 1.429 . S
C657 C658 1.523 . S
C658 C639 1.368 . S
C658 C652 1.368 . S
C658 C657 1.523 . S
C659 C643 1.429 . S
C659 C655 1.429 . S
C659 C660 1.523 . S
C660 C644 1.368 . S
C660 C656 1.368 . S
C660 C659 1.523 . S
H661 C636 0.950 . S
H662 C638 0.950 . S
H663 C639 0.949 . S
H664 C641 0.950 . S
H665 C643 0.950 . S
C666 C667 1.349 . S
C666 C668 1.327 . S
C666 H691 0.950 . S
C667 C666 1.349 . S
C667 C683 1.349 . S
C668 C666 1.327 . S
C668 C687 1.429 . S
C668 H692 0.950 . S
C669 C686 1.574 1_455 S
C669 C688 1.368 . S
C669 H693 0.949 . S
H670 C674 0.949 . S
C671 C672 1.349 . S
C671 C673 1.327 . S
C671 H694 0.950 . S
C672 C671 1.349 . S
C672 C684 1.349 . S
C673 C671 1.327 . S
C673 C689 1.429 . S
C673 H695 0.950 . S
C674 H670 0.949 . S
C674 C682 1.574 1_655 S
C674 C690 1.368 . S
H675 C683 0.950 . S
H676 C681 0.950 . S
H677 C682 0.949 . S
H678 C684 0.950 . S
H679 C685 0.950 . S
H680 C686 0.949 . S
C681 H676 0.950 . S
C681 C683 1.327 . S
C681 C687 1.429 . S
C682 C674 1.574 1_455 S
C682 H677 0.949 . S
C682 C688 1.368 . S
C683 C667 1.349 . S
C683 H675 0.950 . S
C683 C681 1.327 . S
C684 C672 1.349 . S
C684 H678 0.950 . S
C684 C685 1.327 . S
C685 H679 0.950 . S
C685 C684 1.327 . S
C685 C689 1.429 . S
C686 C669 1.574 1_655 S
C686 H680 0.949 . S
C686 C690 1.368 . S
C687 C668 1.429 . S
C687 C681 1.429 . S
C687 C688 1.523 . S
C688 C669 1.368 . S
C688 C682 1.368 . S
C688 C687 1.523 . S
C689 C673 1.429 . S
C689 C685 1.429 . S
C689 C690 1.523 . S
C690 C674 1.368 . S
C690 C686 1.368 . S
C690 C689 1.523 . S
H691 C666 0.950 . S
H692 C668 0.950 . S
H693 C669 0.949 . S
H694 C671 0.950 . S
H695 C673 0.950 . S
C696 C697 1.349 1_455 S
C696 C698 1.327 . S
C696 H721 0.950 . S
C697 C696 1.349 1_655 S
C697 C713 1.331 1_655 S
C698 C696 1.327 . S
C698 C717 1.429 . S
C698 H722 0.950 . S
C699 C716 1.574 . S
C699 C718 1.368 . S
C699 H723 0.949 . S
H700 C704 0.949 . S
C701 C702 1.349 . S
C701 C703 1.327 . S
C701 H724 0.950 . S
C702 C701 1.349 . S
C702 C714 1.349 . S
C703 C701 1.327 . S
C703 C719 1.429 . S
C703 H725 0.950 . S
C704 H700 0.949 . S
C704 C712 1.574 . S
C704 C720 1.368 . S
H705 C713 0.943 1_655 S
H706 C711 0.950 . S
H707 C712 0.949 . S
H708 C714 0.950 . S
H709 C715 0.950 . S
H710 C716 0.949 . S
C711 H706 0.950 . S
C711 C713 1.352 . S
C711 C717 1.429 . S
C712 C704 1.574 . S
C712 H707 0.949 . S
C712 C718 1.368 1_554 S
C713 C697 1.331 1_455 S
C713 H705 0.943 1_455 S
C713 C711 1.352 . S
C714 C702 1.349 . S
C714 H708 0.950 . S
C714 C715 1.327 . S
C715 H709 0.950 . S
C715 C714 1.327 . S
C715 C719 1.429 . S
C716 C699 1.574 . S
C716 H710 0.949 . S
C716 C720 1.368 1_556 S
C717 C698 1.429 . S
C717 C711 1.429 . S
C717 C718 1.523 . S
C718 C699 1.368 . S
C718 C712 1.368 1_556 S
C718 C717 1.523 . S
C719 C703 1.429 . S
C719 C715 1.429 . S
C719 C720 1.523 . S
C720 C704 1.368 . S
C720 C716 1.368 1_554 S
C720 C719 1.523 . S
H721 C696 0.950 . S
H722 C698 0.950 . S
H723 C699 0.949 . S
H724 C701 0.950 . S
H725 C703 0.950 . S
C726 C727 1.349 1_545 S
C726 C728 1.327 . S
C726 H751 0.950 . S
C727 C726 1.349 1_565 S
C727 C743 1.342 1_565 S
C728 C726 1.327 . S
C728 C747 1.429 . S
C728 H752 0.950 . S
C729 C746 1.574 . S
C729 C748 1.368 . S
C729 H753 0.949 . S
H730 C734 0.949 . S
C731 C732 1.349 1_655 S
C731 C733 1.327 . S
C731 H754 0.950 . S
C732 C731 1.349 1_455 S
C732 C744 1.349 . S
C733 C731 1.327 . S
C733 C749 1.429 . S
C733 H755 0.950 . S
C734 H730 0.949 . S
C734 C742 1.574 . S
C734 C750 1.368 . S
H735 C743 0.946 1_565 S
H736 C741 0.950 . S
H737 C742 0.949 . S
H738 C744 0.950 . S
H739 C745 0.950 . S
H740 C746 0.949 . S
C741 H736 0.950 . S
C741 C743 1.338 . S
C741 C747 1.429 . S
C742 C734 1.574 . S
C742 H737 0.949 . S
C742 C748 1.368 . S
C743 C727 1.342 1_545 S
C743 H735 0.946 1_545 S
C743 C741 1.338 . S
C744 C732 1.349 . S
C744 H738 0.950 . S
C744 C745 1.327 1_455 S
C745 H739 0.950 . S
C745 C744 1.327 1_655 S
C745 C749 1.429 . S
C746 C729 1.574 . S
C746 H740 0.949 . S
C746 C750 1.368 . S
C747 C728 1.429 . S
C747 C741 1.429 . S
C747 C748 1.523 . S
C748 C729 1.368 . S
C748 C742 1.368 . S
C748 C747 1.523 . S
C749 C733 1.429 . S
C749 C745 1.429 . S
C749 C750 1.523 . S
C750 C734 1.368 . S
C750 C746 1.368 . S
C750 C749 1.523 . S
H751 C726 0.950 . S
H752 C728 0.950 . S
H753 C729 0.949 . S
H754 C731 0.950 . S
H755 C733 0.950 . S
C756 C757 1.349 . S
C756 C758 1.327 . S
C756 H781 0.950 . S
C757 C756 1.349 . S
C757 C773 1.349 . S
C758 C756 1.327 . S
C758 C777 1.429 . S
C758 H782 0.950 . S
C759 C776 1.574 . S
C759 C778 1.368 . S
C759 H783 0.949 . S
H760 C764 0.949 . S
C761 C762 1.349 1_565 S
C761 C763 1.327 . S
C761 H784 0.950 . S
C762 C761 1.349 1_545 S
C762 C774 1.349 1_545 S
C763 C761 1.327 . S
C763 C779 1.429 . S
C763 H785 0.950 . S
C764 H760 0.949 . S
C764 C772 1.574 . S
C764 C780 1.368 . S
H765 C773 0.950 . S
H766 C771 0.950 . S
H767 C772 0.949 . S
H768 C774 0.950 1_545 S
H769 C775 0.950 . S
H770 C776 0.949 . S
C771 H766 0.950 . S
C771 C773 1.327 . S
C771 C777 1.429 . S
C772 C764 1.574 . S
C772 H767 0.949 . S
C772 C778 1.368 . S
C773 C757 1.349 . S
C773 H765 0.950 . S
C773 C771 1.327 . S
C774 C762 1.349 1_565 S
C774 H768 0.950 1_565 S
C774 C775 1.327 . S
C775 H769 0.950 . S
C775 C774 1.327 . S
C775 C779 1.429 . S
C776 C759 1.574 . S
C776 H770 0.949 . S
C776 C780 1.368 . S
C777 C758 1.429 . S
C777 C771 1.429 . S
C777 C778 1.523 . S
C778 C759 1.368 . S
C778 C772 1.368 . S
C778 C777 1.523 . S
C779 C763 1.429 . S
C779 C775 1.429 . S
C779 C780 1.523 . S
C780 C764 1.368 . S
C780 C776 1.368 . S
C780 C779 1.523 . S
H781 C756 0.950 . S
H782 C758 0.950 . S
H783 C759 0.949 . S
H784 C761 0.950 . S
H785 C763 0.950 . S
C786 C787 1.349 . S
C786 C788 1.327 . S
C786 H811 0.950 . S
C787 C786 1.349 . S
C787 C803 1.349 . S
C788 C786 1.327 . S
C788 C807 1.429 . S
C788 H812 0.950 . S
C789 C806 1.574 . S
C789 C808 1.368 1_556 S
C789 H813 0.949 . S
H790 C794 0.949 . S
C791 C792 1.349 1_655 S
C791 C793 1.327 . S
C791 H814 0.950 . S
C792 C791 1.349 1_455 S
C792 C804 1.349 . S
C793 C791 1.327 . S
C793 C809 1.429 . S
C793 H815 0.950 . S
C794 H790 0.949 . S
C794 C802 1.574 . S
C794 C810 1.368 1_554 S
H795 C803 0.950 . S
H796 C801 0.950 . S
H797 C802 0.949 . S
H798 C804 0.950 . S
H799 C805 0.950 . S
H800 C806 0.949 . S
C801 H796 0.950 . S
C801 C803 1.327 . S
C801 C807 1.429 . S
C802 C794 1.574 . S
C802 H797 0.949 . S
C802 C808 1.368 . S
C803 C787 1.349 . S
C803 H795 0.950 . S
C803 C801 1.327 . S
C804 C792 1.349 . S
C804 H798 0.950 . S
C804 C805 1.327 1_455 S
C805 H799 0.950 . S
C805 C804 1.327 1_655 S
C805 C809 1.429 . S
C806 C789 1.574 . S
C806 H800 0.949 . S
C806 C810 1.368 . S
C807 C788 1.429 . S
C807 C801 1.429 . S
C807 C808 1.523 . S
C808 C789 1.368 1_554 S
C808 C802 1.368 . S
C808 C807 1.523 . S
C809 C793 1.429 . S
C809 C805 1.429 . S
C809 C810 1.523 . S
C810 C794 1.368 1_556 S
C810 C806 1.368 . S
C810 C809 1.523 . S
H811 C786 0.950 . S
H812 C788 0.950 . S
H813 C789 0.949 . S
H814 C791 0.950 . S
H815 C793 0.950 . S
C816 C817 1.349 1_455 S
C816 C818 1.327 . S
C816 H841 0.950 . S
C817 C816 1.349 1_655 S
C817 C833 1.349 . S
C818 C816 1.327 . S
C818 C837 1.429 . S
C818 H842 0.950 . S
C819 C836 1.574 . S
C819 C838 1.368 . S
C819 H843 0.949 . S
H820 C824 0.949 . S
C821 C822 1.349 1_565 S
C821 C823 1.327 . S
C821 H844 0.940 1_565 S
C822 C821 1.349 1_545 S
C822 C834 1.349 1_545 S
C823 C821 1.327 . S
C823 C839 1.429 . S
C823 H845 0.950 . S
C824 H820 0.949 . S
C824 C832 1.574 . S
C824 C840 1.368 . S
H825 C833 0.950 . S
H826 C831 0.950 . S
H827 C832 0.949 . S
H828 C834 0.950 1_545 S
H829 C835 0.950 . S
H830 C836 0.949 . S
C831 H826 0.950 . S
C831 C833 1.327 1_455 S
C831 C837 1.429 . S
C832 C824 1.574 . S
C832 H827 0.949 . S
C832 C838 1.368 . S
C833 C817 1.349 . S
C833 H825 0.950 . S
C833 C831 1.327 1_655 S
C834 C822 1.349 1_565 S
C834 H828 0.950 1_565 S
C834 C835 1.327 . S
C835 H829 0.950 . S
C835 C834 1.327 . S
C835 C839 1.429 . S
C836 C819 1.574 . S
C836 H830 0.949 . S
C836 C840 1.368 . S
C837 C818 1.429 . S
C837 C831 1.429 . S
C837 C838 1.523 . S
C838 C819 1.368 . S
C838 C832 1.368 . S
C838 C837 1.523 . S
C839 C823 1.429 . S
C839 C835 1.429 . S
C839 C840 1.523 . S
C840 C824 1.368 . S
C840 C836 1.368 . S
C840 C839 1.523 . S
H841 C816 0.950 . S
H842 C818 0.950 . S
H843 C819 0.949 . S
H844 C821 0.940 1_545 S
H845 C823 0.950 . S
C846 C847 1.349 1_545 S
C846 C848 1.327 . S
C846 H871 0.950 . S
C847 C846 1.349 1_565 S
C847 C863 1.349 . S
C848 C846 1.327 . S
C848 C867 1.429 . S
C848 H872 0.950 . S
C849 C866 1.574 . S
C849 C868 1.368 . S
C849 H873 0.949 . S
H850 C854 0.949 . S
C851 C852 1.349 . S
C851 C853 1.327 . S
C851 H874 0.950 . S
C852 C851 1.349 . S
C852 C864 1.349 . S
C853 C851 1.327 . S
C853 C869 1.429 . S
C853 H875 0.950 . S
C854 H850 0.949 . S
C854 C862 1.574 . S
C854 C870 1.368 . S
H855 C863 0.950 . S
H856 C861 0.950 . S
H857 C862 0.949 . S
H858 C864 0.950 . S
H859 C865 0.950 . S
H860 C866 0.949 . S
C861 H856 0.950 . S
C861 C863 1.327 1_545 S
C861 C867 1.429 . S
C862 C854 1.574 . S
C862 H857 0.949 . S
C862 C868 1.368 . S
C863 C847 1.349 . S
C863 H855 0.950 . S
C863 C861 1.327 1_565 S
C864 C852 1.349 . S
C864 H858 0.950 . S
C864 C865 1.327 . S
C865 H859 0.950 . S
C865 C864 1.327 . S
C865 C869 1.429 . S
C866 C849 1.574 . S
C866 H860 0.949 . S
C866 C870 1.368 . S
C867 C848 1.429 . S
C867 C861 1.429 . S
C867 C868 1.523 . S
C868 C849 1.368 . S
C868 C862 1.368 . S
C868 C867 1.523 . S
C869 C853 1.429 . S
C869 C865 1.429 . S
C869 C870 1.523 . S
C870 C854 1.368 . S
C870 C866 1.368 . S
C870 C869 1.523 . S
H871 C846 0.950 . S
H872 C848 0.950 . S
H873 C849 0.949 . S
H874 C851 0.950 . S
H875 C853 0.950 . S
C157 C39 1.335 . S
C162 C0 1.335 . S
C187 C13 1.335 . S
C192 C52 1.335 . S
C217 C65 1.335 . S
C222 C26 1.335 . S
C247 C78 1.335 . S
C252 C117 1.335 . S
C277 C130 1.335 . S
C282 C91 1.335 . S
C307 C104 1.335 . S
C312 C143 1.335 . S
C337 C112 1.518 . S
C342 C8 1.518 . S
C367 C21 1.518 . S
C372 C125 1.518 . S
C397 C34 1.518 . S
C402 C138 1.518 . S
C427 C47 1.518 . S
C432 C151 1.518 . S
C457 C86 1.518 . S
C462 C60 1.518 . S
C487 C99 1.518 . S
C492 C73 1.518 . S
C517 C96 0.741 . S
C522 C5 0.741 . S
C547 C18 0.741 . S
C552 C109 0.741 . S
C577 C31 0.741 . S
C582 C122 0.741 . S
C607 C44 0.741 . S
C612 C135 0.741 . S
C637 C148 0.741 . S
C642 C57 0.741 . S
C667 C70 0.741 . S
C672 C83 0.741 . S
C697 C140 1.193 . S
C702 C10 1.193 . S
C727 C153 1.193 . S
C732 C23 1.193 . S
C757 C88 1.193 . S
C762 C36 1.193 . S
C787 C49 1.193 . S
C792 C101 1.193 . S
C817 C62 1.193 . S
C822 C114 1.193 . S
C847 C75 1.193 . S
C852 C127 1.193 . S
