# Generated by pormake.
# Topology ukv, (4)-cn, num edge types: 1
# Building blocks:
#     Node 0, Type 0, BuildingBlock: CEKHIL_clean_sbu_0, # of connection points: 4
#     Node 1, Type 0, BuildingBlock: CEKHIL_clean_sbu_0, # of connection points: 4
#     Node 2, Type 0, BuildingBlock: CEKHIL_clean_sbu_0, # of connection points: 4
#     Node 3, Type 0, BuildingBlock: CEKHIL_clean_sbu_0, # of connection points: 4
#     Node 4, Type 0, BuildingBlock: CEKHIL_clean_sbu_0, # of connection points: 4
#     Node 5, Type 0, BuildingBlock: CEKHIL_clean_sbu_0, # of connection points: 4
#     Node 6, Type 0, BuildingBlock: CEKHIL_clean_sbu_0, # of connection points: 4
#     Node 7, Type 0, BuildingBlock: CEKHIL_clean_sbu_0, # of connection points: 4
#     Node 8, Type 0, BuildingBlock: CEKHIL_clean_sbu_0, # of connection points: 4
#     Node 9, Type 0, BuildingBlock: CEKHIL_clean_sbu_0, # of connection points: 4
#     Node 10, Type 0, BuildingBlock: CEKHIL_clean_sbu_0, # of connection points: 4
#     Node 11, Type 0, BuildingBlock: CEKHIL_clean_sbu_0, # of connection points: 4
#     Node 12, Type 0, BuildingBlock: CEKHIL_clean_sbu_0, # of connection points: 4
#     Node 13, Type 0, BuildingBlock: CEKHIL_clean_sbu_0, # of connection points: 4
#     Node 14, Type 0, BuildingBlock: CEKHIL_clean_sbu_0, # of connection points: 4
#     Node 15, Type 0, BuildingBlock: CEKHIL_clean_sbu_0, # of connection points: 4
#     Node 16, Type 0, BuildingBlock: CEKHIL_clean_sbu_0, # of connection points: 4
#     Node 17, Type 0, BuildingBlock: CEKHIL_clean_sbu_0, # of connection points: 4
#     Node 18, Type 0, BuildingBlock: CEKHIL_clean_sbu_0, # of connection points: 4
#     Node 19, Type 0, BuildingBlock: CEKHIL_clean_sbu_0, # of connection points: 4
#     Node 20, Type 0, BuildingBlock: CEKHIL_clean_sbu_0, # of connection points: 4
#     Node 21, Type 0, BuildingBlock: CEKHIL_clean_sbu_0, # of connection points: 4
#     Node 22, Type 0, BuildingBlock: CEKHIL_clean_sbu_0, # of connection points: 4
#     Node 23, Type 0, BuildingBlock: CEKHIL_clean_sbu_0, # of connection points: 4
#     Node 24, Type 0, BuildingBlock: CEKHIL_clean_sbu_0, # of connection points: 4
#     Node 25, Type 0, BuildingBlock: CEKHIL_clean_sbu_0, # of connection points: 4
#     Node 26, Type 0, BuildingBlock: CEKHIL_clean_sbu_0, # of connection points: 4
#     Node 27, Type 0, BuildingBlock: CEKHIL_clean_sbu_0, # of connection points: 4
#     Node 28, Type 0, BuildingBlock: CEKHIL_clean_sbu_0, # of connection points: 4
#     Node 29, Type 0, BuildingBlock: CEKHIL_clean_sbu_0, # of connection points: 4
#     Node 30, Type 0, BuildingBlock: CEKHIL_clean_sbu_0, # of connection points: 4
#     Node 31, Type 0, BuildingBlock: CEKHIL_clean_sbu_0, # of connection points: 4
#     Node 32, Type 0, BuildingBlock: CEKHIL_clean_sbu_0, # of connection points: 4
#     Node 33, Type 0, BuildingBlock: CEKHIL_clean_sbu_0, # of connection points: 4
#     Node 34, Type 0, BuildingBlock: CEKHIL_clean_sbu_0, # of connection points: 4
#     Node 35, Type 0, BuildingBlock: CEKHIL_clean_sbu_0, # of connection points: 4
#     Edge 36, Type (0, 0), BuildingBlock: EZIPEK_clean_linker_0, # of connection points: 2
#     Edge 37, Type (0, 0), BuildingBlock: EZIPEK_clean_linker_0, # of connection points: 2
#     Edge 38, Type (0, 0), BuildingBlock: EZIPEK_clean_linker_0, # of connection points: 2
#     Edge 39, Type (0, 0), BuildingBlock: EZIPEK_clean_linker_0, # of connection points: 2
#     Edge 40, Type (0, 0), BuildingBlock: EZIPEK_clean_linker_0, # of connection points: 2
#     Edge 41, Type (0, 0), BuildingBlock: EZIPEK_clean_linker_0, # of connection points: 2
#     Edge 42, Type (0, 0), BuildingBlock: EZIPEK_clean_linker_0, # of connection points: 2
#     Edge 43, Type (0, 0), BuildingBlock: EZIPEK_clean_linker_0, # of connection points: 2
#     Edge 44, Type (0, 0), BuildingBlock: EZIPEK_clean_linker_0, # of connection points: 2
#     Edge 45, Type (0, 0), BuildingBlock: EZIPEK_clean_linker_0, # of connection points: 2
#     Edge 46, Type (0, 0), BuildingBlock: EZIPEK_clean_linker_0, # of connection points: 2
#     Edge 47, Type (0, 0), BuildingBlock: EZIPEK_clean_linker_0, # of connection points: 2
#     Edge 48, Type (0, 0), BuildingBlock: EZIPEK_clean_linker_0, # of connection points: 2
#     Edge 49, Type (0, 0), BuildingBlock: EZIPEK_clean_linker_0, # of connection points: 2
#     Edge 50, Type (0, 0), BuildingBlock: EZIPEK_clean_linker_0, # of connection points: 2
#     Edge 51, Type (0, 0), BuildingBlock: EZIPEK_clean_linker_0, # of connection points: 2
#     Edge 52, Type (0, 0), BuildingBlock: EZIPEK_clean_linker_0, # of connection points: 2
#     Edge 53, Type (0, 0), BuildingBlock: EZIPEK_clean_linker_0, # of connection points: 2
#     Edge 54, Type (0, 0), BuildingBlock: EZIPEK_clean_linker_0, # of connection points: 2
#     Edge 55, Type (0, 0), BuildingBlock: EZIPEK_clean_linker_0, # of connection points: 2
#     Edge 56, Type (0, 0), BuildingBlock: EZIPEK_clean_linker_0, # of connection points: 2
#     Edge 57, Type (0, 0), BuildingBlock: EZIPEK_clean_linker_0, # of connection points: 2
#     Edge 58, Type (0, 0), BuildingBlock: EZIPEK_clean_linker_0, # of connection points: 2
#     Edge 59, Type (0, 0), BuildingBlock: EZIPEK_clean_linker_0, # of connection points: 2
#     Edge 60, Type (0, 0), BuildingBlock: EZIPEK_clean_linker_0, # of connection points: 2
#     Edge 61, Type (0, 0), BuildingBlock: EZIPEK_clean_linker_0, # of connection points: 2
#     Edge 62, Type (0, 0), BuildingBlock: EZIPEK_clean_linker_0, # of connection points: 2
#     Edge 63, Type (0, 0), BuildingBlock: EZIPEK_clean_linker_0, # of connection points: 2
#     Edge 64, Type (0, 0), BuildingBlock: EZIPEK_clean_linker_0, # of connection points: 2
#     Edge 65, Type (0, 0), BuildingBlock: EZIPEK_clean_linker_0, # of connection points: 2
#     Edge 66, Type (0, 0), BuildingBlock: EZIPEK_clean_linker_0, # of connection points: 2
#     Edge 67, Type (0, 0), BuildingBlock: EZIPEK_clean_linker_0, # of connection points: 2
#     Edge 68, Type (0, 0), BuildingBlock: EZIPEK_clean_linker_0, # of connection points: 2
#     Edge 69, Type (0, 0), BuildingBlock: EZIPEK_clean_linker_0, # of connection points: 2
#     Edge 70, Type (0, 0), BuildingBlock: EZIPEK_clean_linker_0, # of connection points: 2
#     Edge 71, Type (0, 0), BuildingBlock: EZIPEK_clean_linker_0, # of connection points: 2
#     Edge 72, Type (0, 0), BuildingBlock: EZIPEK_clean_linker_0, # of connection points: 2
#     Edge 73, Type (0, 0), BuildingBlock: EZIPEK_clean_linker_0, # of connection points: 2
#     Edge 74, Type (0, 0), BuildingBlock: EZIPEK_clean_linker_0, # of connection points: 2
#     Edge 75, Type (0, 0), BuildingBlock: EZIPEK_clean_linker_0, # of connection points: 2
#     Edge 76, Type (0, 0), BuildingBlock: EZIPEK_clean_linker_0, # of connection points: 2
#     Edge 77, Type (0, 0), BuildingBlock: EZIPEK_clean_linker_0, # of connection points: 2
#     Edge 78, Type (0, 0), BuildingBlock: EZIPEK_clean_linker_0, # of connection points: 2
#     Edge 79, Type (0, 0), BuildingBlock: EZIPEK_clean_linker_0, # of connection points: 2
#     Edge 80, Type (0, 0), BuildingBlock: EZIPEK_clean_linker_0, # of connection points: 2
#     Edge 81, Type (0, 0), BuildingBlock: EZIPEK_clean_linker_0, # of connection points: 2
#     Edge 82, Type (0, 0), BuildingBlock: EZIPEK_clean_linker_0, # of connection points: 2
#     Edge 83, Type (0, 0), BuildingBlock: EZIPEK_clean_linker_0, # of connection points: 2
#     Edge 84, Type (0, 0), BuildingBlock: EZIPEK_clean_linker_0, # of connection points: 2
#     Edge 85, Type (0, 0), BuildingBlock: EZIPEK_clean_linker_0, # of connection points: 2
#     Edge 86, Type (0, 0), BuildingBlock: EZIPEK_clean_linker_0, # of connection points: 2
#     Edge 87, Type (0, 0), BuildingBlock: EZIPEK_clean_linker_0, # of connection points: 2
#     Edge 88, Type (0, 0), BuildingBlock: EZIPEK_clean_linker_0, # of connection points: 2
#     Edge 89, Type (0, 0), BuildingBlock: EZIPEK_clean_linker_0, # of connection points: 2
#     Edge 90, Type (0, 0), BuildingBlock: EZIPEK_clean_linker_0, # of connection points: 2
#     Edge 91, Type (0, 0), BuildingBlock: EZIPEK_clean_linker_0, # of connection points: 2
#     Edge 92, Type (0, 0), BuildingBlock: EZIPEK_clean_linker_0, # of connection points: 2
#     Edge 93, Type (0, 0), BuildingBlock: EZIPEK_clean_linker_0, # of connection points: 2
#     Edge 94, Type (0, 0), BuildingBlock: EZIPEK_clean_linker_0, # of connection points: 2
#     Edge 95, Type (0, 0), BuildingBlock: EZIPEK_clean_linker_0, # of connection points: 2
#     Edge 96, Type (0, 0), BuildingBlock: EZIPEK_clean_linker_0, # of connection points: 2
#     Edge 97, Type (0, 0), BuildingBlock: EZIPEK_clean_linker_0, # of connection points: 2
#     Edge 98, Type (0, 0), BuildingBlock: EZIPEK_clean_linker_0, # of connection points: 2
#     Edge 99, Type (0, 0), BuildingBlock: EZIPEK_clean_linker_0, # of connection points: 2
#     Edge 100, Type (0, 0), BuildingBlock: EZIPEK_clean_linker_0, # of connection points: 2
#     Edge 101, Type (0, 0), BuildingBlock: EZIPEK_clean_linker_0, # of connection points: 2
#     Edge 102, Type (0, 0), BuildingBlock: EZIPEK_clean_linker_0, # of connection points: 2
#     Edge 103, Type (0, 0), BuildingBlock: EZIPEK_clean_linker_0, # of connection points: 2
#     Edge 104, Type (0, 0), BuildingBlock: EZIPEK_clean_linker_0, # of connection points: 2
#     Edge 105, Type (0, 0), BuildingBlock: EZIPEK_clean_linker_0, # of connection points: 2
#     Edge 106, Type (0, 0), BuildingBlock: EZIPEK_clean_linker_0, # of connection points: 2
#     Edge 107, Type (0, 0), BuildingBlock: EZIPEK_clean_linker_0, # of connection points: 2
# Relax obj value: 0.232
# Max RMSD: 0.138
# Mean RMSD: 0.138
data_MOF--net-ukv--node1-CEKHIL_clean_sbu_0--edge1-EZIPEK_clean_linker_0
_symmetry_space_group_name_H-M    P1
_symmetry_Int_Tables_number       1
_symmetry_cell_setting            triclinic
loop_
_symmetry_equiv_pos_as_xyz
'x, y, z'
_cell_length_a     69.201414
_cell_length_b     69.257322
_cell_length_c     15.530439
_cell_angle_alpha  89.934548
_cell_angle_beta   89.985797
_cell_angle_gamma 119.90185
loop_
_atom_site_label
_atom_site_type_symbol
_atom_site_fract_x
_atom_site_fract_y
_atom_site_fract_z
_atom_type_partial_charge
Co0 Co 0.27168 0.0637 0.08579 0.0
O1 O 0.26575 0.0423 0.17429 0.0
O2 O 0.24084 0.03973 0.07859 0.0
C3 C 0.3045 0.06657 0.04168 0.0
O4 O 0.273 0.0832 0.98476 0.0
Co5 Co 0.31455 0.11021 0.11176 0.0
O6 O 0.30449 0.11637 0.00124 0.0
C7 C 0.27356 0.09909 0.20706 0.0
C8 C 0.24563 0.03125 0.14464 0.0
C9 C 0.28664 0.10334 0.96054 0.0
O10 O 0.26261 0.08081 0.16513 0.0
O11 O 0.2946 0.11215 0.20027 0.0
O12 O 0.2855 0.05074 0.01382 0.0
O13 O 0.30263 0.07858 0.10101 0.0
Co14 Co 0.93638 0.19625 0.08873 0.0
O15 O 0.96081 0.21312 0.16487 0.0
O16 O 0.95703 0.1849 0.08491 0.0
C17 C 0.93482 0.22435 0.02237 0.0
O18 O 0.91272 0.17589 0.00221 0.0
Co19 Co 0.89396 0.19993 0.12836 0.0
O20 O 0.88167 0.17711 0.03665 0.0
C21 C 0.90347 0.17118 0.23493 0.0
C22 C 0.96849 0.20028 0.14164 0.0
C23 C 0.89202 0.16996 0.99038 0.0
O24 O 0.91947 0.17444 0.18419 0.0
O25 O 0.89269 0.18165 0.22954 0.0
O26 O 0.94973 0.21923 -0.00083 0.0
O27 O 0.92483 0.21549 0.09397 0.0
Co28 Co 0.80551 0.74102 0.09127 0.0
O29 O 0.78938 0.74821 0.1734 0.0
O30 O 0.81514 0.77259 0.08467 0.0
C31 C 0.77704 0.70987 0.03309 0.0
O32 O 0.82482 0.73837 -0.00224 0.0
Co33 Co 0.8052 0.69625 0.12879 0.0
O34 O 0.82541 0.70675 0.02813 0.0
C35 C 0.83492 0.73598 0.22675 0.0
C36 C 0.8008 0.76856 0.14618 0.0
C37 C 0.83119 0.72409 0.98216 0.0
O38 O 0.82968 0.74784 0.17902 0.0
O39 O 0.82539 0.71478 0.22302 0.0
O40 O 0.78046 0.72934 0.00978 0.0
O41 O 0.78785 0.71013 0.10117 0.0
Co42 Co 0.07768 0.26451 0.40634 0.0
O43 O 0.05775 0.26005 0.31228 0.0
O44 O 0.05764 0.23294 0.38864 0.0
C45 C 0.07397 0.29164 0.47368 0.0
O46 O 0.09514 0.26254 0.50843 0.0
Co47 Co 0.12094 0.3107 0.43125 0.0
O48 O 0.12441 0.29657 0.53658 0.0
C49 C 0.11987 0.27923 0.30071 0.0
C50 C 0.04882 0.23888 0.32759 0.0
C51 C 0.11254 0.27581 0.5523 0.0
O52 O 0.10028 0.26416 0.32511 0.0
O53 O 0.13002 0.29914 0.33006 0.0
O54 O 0.05912 0.27081 0.48422 0.0
O55 O 0.08901 0.29529 0.41679 0.0
Co56 Co 0.73484 0.81175 0.40715 0.0
O57 O 0.74075 0.79649 0.31669 0.0
O58 O 0.7668 0.82518 0.38952 0.0
C59 C 0.70907 0.78063 0.47791 0.0
O60 O 0.73474 0.8312 0.5055 0.0
Co61 Co 0.68634 0.80393 0.42604 0.0
O62 O 0.69908 0.82198 0.53157 0.0
C63 C 0.71661 0.83517 0.29485 0.0
C64 C 0.76174 0.81001 0.33073 0.0
C65 C 0.71984 0.83322 0.54784 0.0
O66 O 0.73303 0.8329 0.32168 0.0
O67 O 0.6966 0.82364 0.32254 0.0
O68 O 0.7302 0.78824 0.4906 0.0
O69 O 0.70477 0.79066 0.41769 0.0
Co70 Co 0.17815 0.92339 0.44284 0.0
O71 O 0.19583 0.93503 0.34069 0.0
O72 O 0.18142 0.95215 0.41474 0.0
C73 C 0.20106 0.91331 0.51108 0.0
O74 O 0.1597 0.91638 0.55206 0.0
Co75 Co 0.15732 0.87313 0.4804 0.0
O76 O 0.13844 0.87914 0.55977 0.0
C77 C 0.13866 0.88735 0.34433 0.0
C78 C 0.19356 0.9524 0.35018 0.0
C79 C 0.14387 0.89859 0.58614 0.0
O80 O 0.15015 0.90764 0.37014 0.0
O81 O 0.14144 0.87163 0.37288 0.0
O82 O 0.20499 0.93367 0.51458 0.0
O83 O 0.18499 0.90051 0.46003 0.0
Co84 Co 0.7297 0.93143 0.90883 0.0
O85 O 0.73681 0.95328 0.81995 0.0
O86 O 0.76169 0.95046 0.90127 0.0
C87 C 0.70247 0.93551 0.97317 0.0
O88 O 0.72859 0.91158 0.00758 0.0
Co89 Co 0.68196 0.8894 0.91577 0.0
O90 O 0.69349 0.88278 0.02192 0.0
C91 C 0.71533 0.891 0.79298 0.0
C92 C 0.75749 0.96095 0.84126 0.0
C93 C 0.71388 0.89358 0.04469 0.0
O94 O 0.73048 0.90972 0.82399 0.0
O95 O 0.69482 0.88132 0.81582 0.0
O96 O 0.7233 0.94937 0.98878 0.0
O97 O 0.69905 0.92148 0.91229 0.0
Co98 Co 0.07093 0.80506 0.92949 0.0
O99 O 0.05632 0.78767 0.82871 0.0
O100 O 0.04467 0.80686 0.90521 0.0
C101 C 0.07615 0.77863 0.99331 0.0
O102 O 0.08018 0.82494 0.03566 0.0
Co103 Co 0.11873 0.81839 0.9864 0.0
O104 O 0.11259 0.83057 0.09029 0.0
C105 C 0.11103 0.84663 0.86168 0.0
C106 C 0.04124 0.79333 0.84185 0.0
C107 C 0.09575 0.83328 0.09213 0.0
O108 O 0.09021 0.83189 0.85594 0.0
O109 O 0.12418 0.8446 0.91379 0.0
O110 O 0.05715 0.77805 0.00034 0.0
O111 O 0.09085 0.79422 0.94518 0.0
Co112 Co 0.19903 0.26143 0.90933 0.0
O113 O 0.21474 0.25626 0.81838 0.0
O114 O 0.18902 0.2298 0.90072 0.0
C115 C 0.22961 0.29038 0.97014 0.0
O116 O 0.18005 0.26118 0.01011 0.0
Co117 Co 0.20136 0.3079 0.91355 0.0
O118 O 0.18454 0.29573 0.02229 0.0
C119 C 0.16973 0.27267 0.79684 0.0
C120 C 0.20383 0.23542 0.83977 0.0
C121 C 0.17617 0.27556 0.04698 0.0
O122 O 0.17461 0.25841 0.82857 0.0
O123 O 0.18077 0.29353 0.81399 0.0
O124 O 0.22444 0.27004 0.98723 0.0
O125 O 0.21772 0.29227 0.91058 0.0
Co126 Co 0.92439 0.73385 0.58904 0.0
O127 O 0.94311 0.73117 0.67367 0.0
O128 O 0.94894 0.76298 0.61697 0.0
C129 C 0.92241 0.70634 0.50518 0.0
O130 O 0.90913 0.74338 0.49978 0.0
Co131 Co 0.87745 0.69424 0.54033 0.0
O132 O 0.88019 0.71308 0.44108 0.0
C133 C 0.88353 0.72235 0.6956 0.0
C134 C 0.95589 0.75258 0.66673 0.0
C135 C 0.89334 0.73399 0.44427 0.0
O136 O 0.90465 0.73492 0.68271 0.0
O137 O 0.87079 0.70605 0.64655 0.0
O138 O 0.93934 0.72635 0.49838 0.0
O139 O 0.90808 0.7035 0.56374 0.0
Co140 Co 0.2644 0.18183 0.58458 0.0
O141 O 0.26395 0.20127 0.67233 0.0
O142 O 0.234 0.17191 0.61909 0.0
C143 C 0.28875 0.20983 0.49859 0.0
O144 O 0.25755 0.15815 0.49269 0.0
Co145 Co 0.30711 0.18172 0.52437 0.0
O146 O 0.28907 0.16569 0.42374 0.0
C147 C 0.282 0.15542 0.67878 0.0
C148 C 0.2424 0.18911 0.66981 0.0
C149 C 0.268 0.15477 0.4314 0.0
O150 O 0.26799 0.16257 0.67438 0.0
O151 O 0.29765 0.16068 0.62389 0.0
O152 O 0.26767 0.20357 0.49568 0.0
O153 O 0.29444 0.19994 0.55478 0.0
Co154 Co 0.81338 0.07484 0.59371 0.0
O155 O 0.79246 0.05279 0.67168 0.0
O156 O 0.82312 0.05385 0.62256 0.0
C157 C 0.78735 0.07358 0.50242 0.0
O158 O 0.83869 0.09455 0.51164 0.0
Co159 Co 0.81296 0.11899 0.55605 0.0
O160 O 0.83386 0.12253 0.4632 0.0
C161 C 0.83645 0.11512 0.71059 0.0
C162 C 0.80508 0.04388 0.66884 0.0
C163 C 0.84408 0.11153 0.46295 0.0
O164 O 0.83066 0.09475 0.69333 0.0
O165 O 0.83083 0.12685 0.66435 0.0
O166 O 0.7938 0.05893 0.49595 0.0
O167 O 0.79546 0.08714 0.56617 0.0
Co168 Co 0.94165 0.40457 0.42636 0.0
O169 O 0.93545 0.38215 0.5102 0.0
O170 O 0.91215 0.37918 0.40622 0.0
C171 C 0.9766 0.41092 0.39348 0.0
O172 O 0.94345 0.42478 0.32812 0.0
Co173 Co 0.98083 0.45215 0.46889 0.0
O174 O 0.97039 0.45957 0.36201 0.0
C175 C 0.93689 0.43641 0.54832 0.0
C176 C 0.91645 0.37031 0.4722 0.0
C177 C 0.95481 0.44584 0.31294 0.0
O178 O 0.92847 0.41846 0.50352 0.0
O179 O 0.95762 0.45101 0.54875 0.0
O180 O 0.95892 0.39484 0.35807 0.0
O181 O 0.97223 0.42129 0.45259 0.0
Co182 Co 0.59033 0.52627 0.40492 0.0
O183 O 0.6045 0.54282 0.50713 0.0
O184 O 0.61468 0.52154 0.43729 0.0
C185 C 0.58987 0.55453 0.33212 0.0
O186 O 0.57967 0.50694 0.29749 0.0
Co187 Co 0.54372 0.51931 0.35528 0.0
O188 O 0.54852 0.50629 0.25005 0.0
C189 C 0.54752 0.49282 0.49581 0.0
C190 C 0.61856 0.53571 0.49906 0.0
C191 C 0.56373 0.50114 0.24298 0.0
O192 O 0.56813 0.50006 0.47643 0.0
O193 O 0.53579 0.50033 0.46124 0.0
O194 O 0.60773 0.55291 0.33398 0.0
O195 O 0.57407 0.54081 0.38222 0.0
Co196 Co 0.48192 0.07741 0.4093 0.0
O197 O 0.46153 0.07698 0.49457 0.0
O198 O 0.49078 0.10754 0.44345 0.0
C199 C 0.45484 0.05281 0.32167 0.0
O200 O 0.50632 0.08491 0.32013 0.0
Co201 Co 0.48327 0.03502 0.35171 0.0
O202 O 0.50004 0.05359 0.25296 0.0
C203 C 0.50764 0.05994 0.50935 0.0
C204 C 0.47321 0.09855 0.49248 0.0
C205 C 0.51045 0.07466 0.26038 0.0
O206 O 0.5009 0.07422 0.50159 0.0
O207 O 0.5026 0.04404 0.456 0.0
O208 O 0.46056 0.07374 0.31809 0.0
O209 O 0.46471 0.04748 0.37917 0.0
Co210 Co 0.73703 0.60118 0.73807 0.0
O211 O 0.71441 0.6001 0.6642 0.0
O212 O 0.71236 0.5708 0.72998 0.0
C213 C 0.74206 0.63098 0.81697 0.0
O214 O 0.75755 0.59644 0.81835 0.0
Co215 Co 0.78442 0.64391 0.73333 0.0
O216 O 0.78891 0.62957 0.83561 0.0
C217 C 0.77175 0.60857 0.60202 0.0
C218 C 0.70303 0.5789 0.67999 0.0
C219 C 0.7767 0.60896 0.8532 0.0
O220 O 0.7525 0.5964 0.63682 0.0
O221 O 0.78594 0.62819 0.62743 0.0
O222 O 0.72582 0.61116 0.83462 0.0
O223 O 0.75297 0.63234 0.74772 0.0
Co224 Co 0.40901 0.14517 0.77051 0.0
O225 O 0.40864 0.12698 0.67579 0.0
O226 O 0.43913 0.15422 0.7362 0.0
C227 C 0.38341 0.11624 0.85005 0.0
O228 O 0.41705 0.16697 0.87043 0.0
Co229 Co 0.36825 0.14762 0.8374 0.0
O230 O 0.38607 0.15974 0.94234 0.0
C231 C 0.39389 0.17506 0.68631 0.0
C232 C 0.43026 0.13807 0.68086 0.0
C233 C 0.40715 0.16956 0.93559 0.0
O234 O 0.40718 0.16701 0.68806 0.0
O235 O 0.37836 0.16988 0.7417 0.0
O236 O 0.40417 0.12127 0.85062 0.0
O237 O 0.3786 0.1279 0.79891 0.0
Co238 Co 0.86046 0.25899 0.74689 0.0
O239 O 0.87633 0.27217 0.64282 0.0
O240 O 0.85683 0.2841 0.71589 0.0
C241 C 0.88857 0.25704 0.81363 0.0
O242 O 0.842 0.249 0.85666 0.0
Co243 Co 0.8523 0.2115 0.79314 0.0
O244 O 0.84075 0.21729 0.90079 0.0
C245 C 0.82497 0.21695 0.65986 0.0
C246 C 0.87018 0.28691 0.65194 0.0
C247 C 0.83621 0.23288 0.9104 0.0
O248 O 0.83322 0.23765 0.67924 0.0
O249 O 0.83203 0.20453 0.69168 0.0
O250 O 0.88802 0.27547 0.81431 0.0
O251 O 0.87382 0.24167 0.76522 0.0
Co252 Co 0.4012 0.26104 0.25715 0.0
O253 O 0.40497 0.27964 0.15972 0.0
O254 O 0.43126 0.28661 0.25566 0.0
C255 C 0.36787 0.25617 0.30143 0.0
O256 O 0.40174 0.24473 0.36715 0.0
Co257 Co 0.36044 0.21236 0.24411 0.0
O258 O 0.37158 0.21017 0.35852 0.0
C259 C 0.40305 0.22336 0.16142 0.0
C260 C 0.4251 0.29269 0.18615 0.0
C261 C 0.38904 0.22484 0.39713 0.0
O262 O 0.41213 0.24344 0.18952 0.0
O263 O 0.38236 0.20909 0.17093 0.0
O264 O 0.38613 0.27437 0.31984 0.0
O265 O 0.37024 0.24365 0.24596 0.0
Co266 Co 0.74334 0.13967 0.24283 0.0
O267 O 0.72925 0.12515 0.13766 0.0
O268 O 0.71766 0.14318 0.2217 0.0
C269 C 0.74676 0.11121 0.29835 0.0
O270 O 0.75416 0.15669 0.35577 0.0
Co271 Co 0.79187 0.14865 0.27676 0.0
O272 O 0.78727 0.15945 0.3886 0.0
C273 C 0.78397 0.17692 0.15532 0.0
C274 C 0.71453 0.13105 0.15346 0.0
C275 C 0.7712 0.1629 0.40511 0.0
O276 O 0.76344 0.16788 0.17836 0.0
O277 O 0.79724 0.17023 0.18096 0.0
O278 O 0.72805 0.11116 0.30458 0.0
O279 O 0.76153 0.12689 0.25074 0.0
Co280 Co 0.85804 0.59669 0.23415 0.0
O281 O 0.87809 0.59394 0.15757 0.0
O282 O 0.85161 0.56592 0.23113 0.0
C283 C 0.88453 0.62699 0.30408 0.0
O284 O 0.83416 0.59415 0.3188 0.0
Co285 Co 0.85544 0.64078 0.22488 0.0
O286 O 0.83719 0.6281 0.32964 0.0
C287 C 0.83127 0.60436 0.09854 0.0
C288 C 0.86845 0.57307 0.17836 0.0
C289 C 0.82841 0.60768 0.35159 0.0
O290 O 0.83697 0.59146 0.13646 0.0
O291 O 0.83819 0.62462 0.1199 0.0
O292 O 0.88058 0.60724 0.32531 0.0
O293 O 0.87412 0.62779 0.23666 0.0
Co294 Co 0.59763 0.06578 0.91516 0.0
O295 O 0.61892 0.07008 0.00158 0.0
O296 O 0.6233 0.09564 0.90536 0.0
C297 C 0.59136 0.03223 0.86855 0.0
O298 O 0.57819 0.06571 0.81576 0.0
Co299 Co 0.54959 0.02534 0.94826 0.0
O300 O 0.54372 0.03647 0.83989 0.0
C301 C 0.56452 0.06748 0.03985 0.0
C302 C 0.63135 0.08978 0.96975 0.0
C303 C 0.55743 0.05332 0.7956 0.0
O304 O 0.58256 0.07703 0.99542 0.0
O305 O 0.55028 0.04668 0.03611 0.0
O306 O 0.60875 0.05036 0.8426 0.0
O307 O 0.5806 0.03492 0.93091 0.0
Co308 Co 0.9276 0.5166 0.91823 0.0
O309 O 0.93087 0.53698 0.00793 0.0
O310 O 0.89856 0.51078 0.95732 0.0
C311 C 0.953 0.54311 0.83042 0.0
O312 O 0.91763 0.49252 0.82577 0.0
Co313 Co 0.96787 0.51192 0.85386 0.0
O314 O 0.948 0.49659 0.75634 0.0
C315 C 0.9445 0.49052 0.01764 0.0
C316 C 0.90934 0.52784 0.00793 0.0
C317 C 0.92699 0.48769 0.76439 0.0
O318 O 0.92952 0.49622 0.00677 0.0
O319 O 0.96071 0.49568 0.9656 0.0
O320 O 0.93261 0.53925 0.83054 0.0
O321 O 0.95738 0.53186 0.88495 0.0
Co322 Co 0.47242 0.40489 0.9152 0.0
O323 O 0.45795 0.38714 0.0152 0.0
O324 O 0.47927 0.381 0.92596 0.0
C325 C 0.44194 0.40589 0.86594 0.0
O326 O 0.48947 0.41982 0.80499 0.0
Co327 Co 0.4763 0.45178 0.90063 0.0
O328 O 0.48788 0.45132 0.7846 0.0
C329 C 0.50928 0.44608 0.00327 0.0
C330 C 0.46643 0.37487 0.99371 0.0
C331 C 0.49373 0.43735 0.76127 0.0
O332 O 0.49983 0.42535 0.9834 0.0
O333 O 0.50128 0.45864 0.98274 0.0
O334 O 0.44468 0.38905 0.84967 0.0
O335 O 0.45664 0.42037 0.91741 0.0
Co336 Co 0.60253 0.7453 0.75278 0.0
O337 O 0.5975 0.72444 0.84336 0.0
O338 O 0.57096 0.72308 0.76027 0.0
C339 C 0.63251 0.74545 0.69283 0.0
O340 O 0.60299 0.76452 0.65109 0.0
Co341 Co 0.64794 0.79016 0.76712 0.0
O342 O 0.63557 0.79682 0.66392 0.0
C343 C 0.60938 0.78445 0.86681 0.0
C344 C 0.57658 0.71444 0.82346 0.0
C345 C 0.61705 0.78451 0.6258 0.0
O346 O 0.59711 0.76514 0.83316 0.0
O347 O 0.63041 0.79617 0.85432 0.0
O348 O 0.6125 0.72946 0.67603 0.0
O349 O 0.63365 0.75838 0.75471 0.0
Co350 Co 0.25985 0.85092 0.74048 0.0
O351 O 0.27266 0.86837 0.842 0.0
O352 O 0.28945 0.85542 0.75724 0.0
C353 C 0.24674 0.87244 0.68163 0.0
O354 O 0.25198 0.83314 0.63011 0.0
Co355 Co 0.20887 0.82736 0.71808 0.0
O356 O 0.21495 0.80995 0.63155 0.0
C357 C 0.22723 0.80958 0.8412 0.0
C358 C 0.29016 0.86674 0.82516 0.0
C359 C 0.23417 0.81679 0.59902 0.0
O360 O 0.24693 0.82263 0.81187 0.0
O361 O 0.21015 0.81086 0.81938 0.0
O362 O 0.2674 0.87764 0.67172 0.0
O363 O 0.23551 0.85602 0.73396 0.0
Co364 Co 0.1389 0.40012 0.72684 0.0
O365 O 0.12227 0.40426 0.81737 0.0
O366 O 0.14814 0.43149 0.73787 0.0
C367 C 0.10911 0.37098 0.662 0.0
O368 O 0.15903 0.40203 0.62697 0.0
Co369 Co 0.13893 0.35495 0.7162 0.0
O370 O 0.15648 0.36844 0.61014 0.0
C371 C 0.1682 0.38935 0.84078 0.0
C372 C 0.13322 0.42528 0.79847 0.0
C373 C 0.1642 0.38874 0.58855 0.0
O374 O 0.16267 0.40328 0.81089 0.0
O375 O 0.15921 0.36899 0.81689 0.0
O376 O 0.11387 0.3913 0.64699 0.0
O377 O 0.12097 0.36901 0.72171 0.0
Co378 Co 0.40328 0.93929 0.08494 0.0
O379 O 0.38322 0.93501 0.99321 0.0
O380 O 0.37767 0.90951 0.09181 0.0
C381 C 0.40928 0.97292 0.12866 0.0
O382 O 0.42118 0.93908 0.18941 0.0
Co383 Co 0.45195 0.97933 0.06022 0.0
O384 O 0.45608 0.96816 0.17179 0.0
C385 C 0.43795 0.93707 0.97085 0.0
C386 C 0.37059 0.9152 0.02392 0.0
C387 C 0.44164 0.95122 0.21377 0.0
O388 O 0.41922 0.92782 0.01071 0.0
O389 O 0.45246 0.95776 0.97632 0.0
O390 O 0.39137 0.9549 0.15195 0.0
O391 O 0.4208 0.97009 0.06973 0.0
Co392 Co 0.07263 0.47722 0.06874 0.0
O393 O 0.07283 0.45495 0.99502 0.0
O394 O 0.10269 0.48711 0.02846 0.0
C395 C 0.05113 0.45337 0.1737 0.0
O396 O 0.07921 0.5041 0.1433 0.0
Co397 Co 0.02782 0.47553 0.11507 0.0
O398 O 0.0468 0.49977 0.19461 0.0
C399 C 0.05152 0.49702 0.95239 0.0
C400 C 0.09417 0.46817 0.98804 0.0
C401 C 0.06797 0.51039 0.18986 0.0
O402 O 0.06672 0.49183 0.96686 0.0
O403 O 0.03498 0.49172 0.00285 0.0
O404 O 0.07241 0.46051 0.17183 0.0
O405 O 0.0434 0.45911 0.10936 0.0
Co406 Co 0.52793 0.60057 0.06355 0.0
O407 O 0.5437 0.62299 0.97819 0.0
O408 O 0.51795 0.6223 0.06531 0.0
C409 C 0.55824 0.60035 0.12059 0.0
O410 O 0.50906 0.57972 0.16033 0.0
Co411 Co 0.52954 0.55647 0.03936 0.0
O412 O 0.51191 0.54875 0.14693 0.0
C413 C 0.49883 0.56431 0.93485 0.0
C414 C 0.53234 0.63214 0.00349 0.0
C415 C 0.50459 0.56014 0.18513 0.0
O416 O 0.50395 0.58212 0.97734 0.0
O417 O 0.5084 0.55273 0.94474 0.0
O418 O 0.55297 0.61511 0.14388 0.0
O419 O 0.54654 0.58821 0.05677 0.0
Co420 Co 0.06356 0.59363 0.5691 0.0
O421 O 0.07039 0.61788 0.49311 0.0
O422 O 0.09466 0.6162 0.58215 0.0
C423 C 0.03146 0.58912 0.62401 0.0
O424 O 0.06113 0.57059 0.65747 0.0
Co425 Co 0.02076 0.54877 0.522 0.0
O426 O 0.03095 0.53798 0.62039 0.0
C427 C 0.06137 0.56332 0.42236 0.0
C428 C 0.09048 0.62701 0.52318 0.0
C429 C 0.0477 0.54954 0.66886 0.0
O430 O 0.07227 0.57886 0.47715 0.0
O431 O 0.04018 0.551 0.42298 0.0
O432 O 0.05045 0.60496 0.65212 0.0
O433 O 0.0327 0.57952 0.55464 0.0
Co434 Co 0.40928 0.47498 0.56409 0.0
O435 O 0.39084 0.45432 0.47701 0.0
O436 O 0.38601 0.48123 0.52943 0.0
C437 C 0.40866 0.44868 0.65256 0.0
O438 O 0.42457 0.49957 0.6543 0.0
Co439 Co 0.45457 0.4797 0.62137 0.0
O440 O 0.45199 0.49641 0.71854 0.0
C441 C 0.45211 0.50457 0.4679 0.0
C442 C 0.37884 0.46393 0.47957 0.0
C443 C 0.43976 0.50522 0.71215 0.0
O444 O 0.43071 0.4953 0.47311 0.0
O445 O 0.46385 0.50091 0.5222 0.0
O446 O 0.39242 0.45298 0.65385 0.0
O447 O 0.42385 0.45922 0.59546 0.0
Co448 Co 0.51738 0.92687 0.59429 0.0
O449 O 0.5372 0.9281 0.50481 0.0
O450 O 0.50904 0.89703 0.55821 0.0
C451 C 0.54503 0.95193 0.67871 0.0
O452 O 0.49382 0.91841 0.68785 0.0
Co453 Co 0.51481 0.96795 0.65982 0.0
O454 O 0.50066 0.94907 0.76111 0.0
C455 C 0.48975 0.94343 0.50268 0.0
C456 C 0.52618 0.90649 0.50714 0.0
C457 C 0.49042 0.92806 0.75188 0.0
O458 O 0.49712 0.92959 0.50667 0.0
O459 O 0.49455 0.95882 0.55822 0.0
O460 O 0.53997 0.93116 0.68094 0.0
O461 O 0.53406 0.95682 0.62472 0.0
Co462 Co 0.26194 0.39858 0.22624 0.0
O463 O 0.28026 0.39954 0.3204 0.0
O464 O 0.28573 0.42903 0.24626 0.0
C465 C 0.26251 0.36999 0.15665 0.0
O466 O 0.24603 0.40344 0.12465 0.0
Co467 Co 0.21615 0.35477 0.20099 0.0
O468 O 0.21418 0.37104 0.09954 0.0
C469 C 0.22104 0.38725 0.33483 0.0
C470 C 0.2928 0.42061 0.30509 0.0
C471 C 0.22775 0.39147 0.08291 0.0
O472 O 0.24069 0.40153 0.30759 0.0
O473 O 0.20998 0.36719 0.3072 0.0
O474 O 0.27878 0.39022 0.14782 0.0
O475 O 0.2478 0.36751 0.21323 0.0
Co476 Co 0.59918 0.86706 0.24949 0.0
O477 O 0.5956 0.88439 0.33829 0.0
O478 O 0.56785 0.85572 0.27083 0.0
C479 C 0.62528 0.89685 0.17431 0.0
O480 O 0.59577 0.84561 0.15295 0.0
Co481 Co 0.64426 0.86929 0.20864 0.0
O482 O 0.62945 0.85391 0.10167 0.0
C483 C 0.61488 0.83983 0.34989 0.0
C484 C 0.57431 0.87177 0.32638 0.0
C485 C 0.6083 0.84309 0.09825 0.0
O486 O 0.60059 0.8464 0.33897 0.0
O487 O 0.63226 0.84657 0.30271 0.0
O488 O 0.60424 0.89018 0.16462 0.0
O489 O 0.62979 0.88633 0.23214 0.0
Co490 Co 0.14585 0.73668 0.24403 0.0
O491 O 0.12734 0.72068 0.34114 0.0
O492 O 0.15125 0.713 0.27583 0.0
C493 C 0.11854 0.73836 0.17071 0.0
O494 O 0.16749 0.74777 0.14307 0.0
Co495 Co 0.15494 0.78281 0.18028 0.0
O496 O 0.16917 0.77773 0.08008 0.0
C497 C 0.18329 0.77922 0.31645 0.0
C498 C 0.13615 0.70797 0.33462 0.0
C499 C 0.17457 0.7627 0.08404 0.0
O500 O 0.17029 0.75803 0.32215 0.0
O501 O 0.18052 0.79125 0.26084 0.0
O502 O 0.12028 0.72051 0.16658 0.0
O503 O 0.13241 0.7539 0.22071 0.0
C504 C 0.19535 0.98381 0.25965 0.0
C505 C 0.20575 0.97207 0.29274 0.0
C506 C 0.23837 0.99498 0.2033 0.0
C507 C 0.22994 0.00935 0.18365 0.0
N508 N 0.20103 0.01888 0.20296 0.0
N509 N 0.23999 0.97098 0.31138 0.0
C510 C 0.20849 0.00414 0.21388 0.0
C511 C 0.22801 0.97878 0.26849 0.0
N512 N 0.17293 0.97529 0.26902 0.0
N513 N 0.25626 0.99669 0.15928 0.0
H514 H 0.23404 0.9608 0.36561 0.0
H515 H 0.2569 0.977 0.29998 0.0
H516 H 0.26372 0.0078 0.10823 0.0
H517 H 0.26186 0.98532 0.16686 0.0
H518 H 0.16431 0.98222 0.23923 0.0
H519 H 0.16258 0.96002 0.29864 0.0
H520 H 0.18657 0.01687 0.23213 0.0
H521 H 0.21015 0.034 0.17071 0.0
C522 C 0.98795 0.19931 0.27402 0.0
C523 C 0.98879 0.20285 0.18399 0.0
C524 C 0.02951 0.22178 0.18909 0.0
C525 C 0.02856 0.22269 0.28009 0.0
N526 N 0.00673 0.21225 0.41094 0.0
N527 N 0.01011 0.21667 0.05343 0.0
C528 C 0.00777 0.21097 0.3234 0.0
C529 C 0.00951 0.21347 0.14039 0.0
N530 N 0.96806 0.18487 0.31191 0.0
N531 N 0.04956 0.22867 0.14991 0.0
H532 H 0.9957 0.2101 0.01595 0.0
H533 H 0.02473 0.22661 0.01926 0.0
H534 H 0.0641 0.23377 0.18543 0.0
H535 H 0.05136 0.22705 0.08418 0.0
H536 H 0.96649 0.18007 0.37627 0.0
H537 H 0.95347 0.17591 0.27618 0.0
H538 H 0.99184 0.20637 0.44478 0.0
H539 H 0.0208 0.22046 0.4498 0.0
C540 C 0.79077 0.79827 0.32696 0.0
C541 C 0.77864 0.80688 0.28364 0.0
C542 C 0.78691 0.79597 0.14432 0.0
C543 C 0.79779 0.78611 0.1881 0.0
N544 N 0.81691 0.78466 0.31487 0.0
N545 N 0.77191 0.82103 0.15288 0.0
C546 C 0.80204 0.78962 0.2776 0.0
C547 C 0.77902 0.8081 0.19256 0.0
N548 N 0.79031 0.79696 0.41479 0.0
N549 N 0.78297 0.79265 0.05794 0.0
H550 H 0.76712 0.83077 0.1882 0.0
H551 H 0.77312 0.82401 0.08682 0.0
H552 H 0.789 0.7843 0.02053 0.0
H553 H 0.77282 0.79718 0.0243 0.0
H554 H 0.79648 0.78831 0.44938 0.0
H555 H 0.78267 0.80355 0.45326 0.0
H556 H 0.82217 0.78841 0.37855 0.0
H557 H 0.82575 0.77889 0.27891 0.0
C558 C 0.78053 0.98216 0.71496 0.0
C559 C 0.77505 0.98195 0.80286 0.0
C560 C 0.79661 0.02271 0.80636 0.0
C561 C 0.79844 0.02288 0.71551 0.0
N562 N 0.79217 0.00305 0.58137 0.0
N563 N 0.77764 0.00164 0.93423 0.0
C564 C 0.79083 0.00269 0.66923 0.0
C565 C 0.7834 0.00212 0.84971 0.0
N566 N 0.7759 0.96266 0.6758 0.0
N567 N 0.80763 0.04229 0.85082 0.0
H568 H 0.76858 0.98688 0.96888 0.0
H569 H 0.7808 0.01577 0.96892 0.0
H570 H 0.81757 0.05757 0.8203 0.0
H571 H 0.80865 0.04323 0.9177 0.0
H572 H 0.78107 0.96174 0.61373 0.0
H573 H 0.76871 0.94753 0.709 0.0
H574 H 0.78452 0.9888 0.54334 0.0
H575 H 0.7999 0.01776 0.54565 0.0
C576 C 0.01001 0.79652 0.77216 0.0
C577 C 0.0202 0.78356 0.79147 0.0
C578 C 0.99084 0.75272 0.71058 0.0
C579 C 0.97838 0.76394 0.70692 0.0
N580 N 0.97497 0.79562 0.75156 0.0
N581 N 0.01582 0.74653 0.79833 0.0
C582 C 0.98763 0.78566 0.74233 0.0
C583 C 0.00943 0.76085 0.76611 0.0
N584 N 0.0218 0.81918 0.77919 0.0
N585 N 0.98567 0.73485 0.65883 0.0
H586 H 0.0278 0.75085 0.84622 0.0
H587 H 0.00701 0.72947 0.7856 0.0
H588 H 0.97356 0.7295 0.61083 0.0
H589 H 0.99552 0.72736 0.65589 0.0
H590 H 0.01549 0.82933 0.75911 0.0
H591 H 0.0387 0.82793 0.79476 0.0
H592 H 0.98066 0.81066 0.784 0.0
H593 H 0.9581 0.78778 0.73599 0.0
C594 C 0.21936 0.20769 0.66383 0.0
C595 C 0.22826 0.19668 0.71303 0.0
C596 C 0.21821 0.20832 0.84697 0.0
C597 C 0.20931 0.21943 0.79779 0.0
N598 N 0.19755 0.22623 0.66055 0.0
N599 N 0.23189 0.18206 0.84856 0.0
C600 C 0.20862 0.21792 0.70651 0.0
C601 C 0.22623 0.19552 0.80383 0.0
N602 N 0.22231 0.2095 0.57646 0.0
N603 N 0.22053 0.21128 0.93417 0.0
H604 H 0.2379 0.17264 0.8183 0.0
H605 H 0.22879 0.17865 0.91401 0.0
H606 H 0.21509 0.22058 0.96854 0.0
H607 H 0.22932 0.20587 0.97209 0.0
H608 H 0.21909 0.21992 0.53817 0.0
H609 H 0.22922 0.20152 0.54203 0.0
H610 H 0.19399 0.22334 0.59515 0.0
H611 H 0.1904 0.23471 0.68931 0.0
C612 C 0.90357 0.31721 0.57711 0.0
C613 C 0.88059 0.30739 0.59824 0.0
C614 C 0.87961 0.33852 0.52642 0.0
C615 C 0.90205 0.34696 0.50005 0.0
N616 N 0.93193 0.33936 0.47319 0.0
N617 N 0.84541 0.30596 0.57319 0.0
C618 C 0.91275 0.33448 0.51584 0.0
C619 C 0.86811 0.31717 0.56684 0.0
N620 N 0.91728 0.31158 0.62031 0.0
N621 N 0.86962 0.35111 0.51679 0.0
H622 H 0.83641 0.28996 0.59899 0.0
H623 H 0.83548 0.31158 0.54471 0.0
H624 H 0.87745 0.36669 0.48718 0.0
H625 H 0.85415 0.3467 0.54358 0.0
H626 H 0.93447 0.31979 0.61055 0.0
H627 H 0.91226 0.30113 0.67386 0.0
H628 H 0.93941 0.32953 0.47831 0.0
H629 H 0.93874 0.35158 0.42543 0.0
C630 C 0.64954 0.5681 0.578 0.0
C631 C 0.63934 0.54545 0.5518 0.0
C632 C 0.67141 0.54377 0.61097 0.0
C633 C 0.67996 0.56556 0.64545 0.0
N634 N 0.67128 0.59387 0.6896 0.0
N635 N 0.63806 0.51005 0.56747 0.0
C636 C 0.66705 0.57617 0.63837 0.0
C637 C 0.64946 0.53269 0.57565 0.0
N638 N 0.64402 0.58262 0.54106 0.0
N639 N 0.68431 0.53399 0.60745 0.0
H640 H 0.62149 0.50119 0.54743 0.0
H641 H 0.64419 0.50001 0.59054 0.0
H642 H 0.70073 0.54169 0.62897 0.0
H643 H 0.67934 0.51904 0.57519 0.0
H644 H 0.6524 0.59958 0.55566 0.0
H645 H 0.6337 0.57872 0.48747 0.0
H646 H 0.66113 0.60106 0.68961 0.0
H647 H 0.68298 0.59934 0.73927 0.0
C648 C 0.45474 0.12092 0.67756 0.0
C649 C 0.444 0.13086 0.63258 0.0
C650 C 0.45462 0.12171 0.49451 0.0
C651 C 0.46559 0.11207 0.53963 0.0
N652 N 0.48044 0.10665 0.67161 0.0
N653 N 0.43745 0.14491 0.50058 0.0
C654 C 0.46704 0.11304 0.63052 0.0
C655 C 0.44511 0.13256 0.5416 0.0
N656 N 0.45215 0.11786 0.76474 0.0
N657 N 0.45239 0.11959 0.407 0.0
H658 H 0.43041 0.15304 0.53352 0.0
H659 H 0.43974 0.14871 0.43519 0.0
H660 H 0.45967 0.11236 0.36999 0.0
H661 H 0.44227 0.12379 0.37139 0.0
H662 H 0.45724 0.10833 0.79958 0.0
H663 H 0.44344 0.12348 0.80208 0.0
H664 H 0.48407 0.10905 0.73709 0.0
H665 H 0.48961 0.10077 0.63862 0.0
C666 C 0.44066 0.31313 0.04698 0.0
C667 C 0.43962 0.31376 0.13844 0.0
C668 C 0.4617 0.35459 0.13307 0.0
C669 C 0.45992 0.35393 0.04183 0.0
N670 N 0.44461 0.33227 0.91228 0.0
N671 N 0.44655 0.33556 0.26811 0.0
C672 C 0.44892 0.33314 -0.00139 0.0
C673 C 0.44978 0.3346 0.18168 0.0
N674 N 0.43361 0.29331 0.00578 0.0
N675 N 0.47477 0.37444 0.17354 0.0
H676 H 0.4374 0.32156 0.30651 0.0
H677 H 0.45122 0.35037 0.30079 0.0
H678 H 0.48299 0.3895 0.14047 0.0
H679 H 0.47894 0.37575 0.23855 0.0
H680 H 0.43667 0.29212 0.94087 0.0
H681 H 0.42627 0.2781 0.03773 0.0
H682 H 0.4341 0.31754 0.87981 0.0
H683 H 0.44976 0.34631 0.87377 0.0
C684 C 0.68376 0.09942 0.07325 0.0
C685 C 0.69393 0.12193 0.10074 0.0
C686 C 0.6633 0.12494 0.03424 0.0
C687 C 0.65457 0.10308 0.00102 0.0
N688 N 0.66151 0.07331 0.96319 0.0
N689 N 0.69608 0.15777 0.08851 0.0
C690 C 0.66659 0.09168 0.01168 0.0
C691 C 0.68454 0.13528 0.07562 0.0
N692 N 0.68912 0.08478 0.11031 0.0
N693 N 0.65107 0.13544 0.02985 0.0
H694 H 0.71201 0.16601 0.11518 0.0
H695 H 0.69079 0.16843 0.0646 0.0
H696 H 0.63558 0.12844 -0.00032 0.0
H697 H 0.65565 0.15038 0.06144 0.0
H698 H 0.68063 0.06781 0.09619 0.0
H699 H 0.6997 0.08876 0.16314 0.0
H700 H 0.67106 0.06548 0.96443 0.0
H701 H 0.6495 0.06766 0.91468 0.0
C702 C 0.86501 0.53666 0.12163 0.0
C703 C 0.87812 0.55933 0.14703 0.0
C704 C 0.91008 0.56145 0.07294 0.0
C705 C 0.89819 0.53815 0.0569 0.0
N706 N 0.86556 0.50267 0.09082 0.0
N707 N 0.91552 0.58926 0.17726 0.0
C708 C 0.87598 0.52537 0.0887 0.0
C709 C 0.90145 0.57036 0.13301 0.0
N710 N 0.8423 0.52608 0.12475 0.0
N711 N 0.92868 0.57559 0.02691 0.0
H712 H 0.91007 0.59537 0.22749 0.0
H713 H 0.93281 0.59693 0.17133 0.0
H714 H 0.93391 0.57074 0.9723 0.0
H715 H 0.93677 0.59283 0.03508 0.0
H716 H 0.83225 0.51024 0.099 0.0
H717 H 0.83346 0.53377 0.14508 0.0
H718 H 0.85004 0.49291 0.11969 0.0
H719 H 0.87349 0.4938 0.07381 0.0
C720 C 0.56228 0.69411 0.96406 0.0
C721 C 0.56048 0.69413 0.87246 0.0
C722 C 0.53229 0.65435 0.87785 0.0
C723 C 0.53731 0.65375 0.9657 0.0
N724 N 0.55689 0.67263 0.09432 0.0
N725 N 0.54482 0.67329 0.741 0.0
C726 C 0.55185 0.6736 0.00984 0.0
C727 C 0.54536 0.6741 0.82897 0.0
N728 N 0.57405 0.71373 0.00762 0.0
N729 N 0.51513 0.63578 0.84126 0.0
H730 H 0.55456 0.68695 0.70182 0.0
H731 H 0.53606 0.65856 0.7063 0.0
H732 H 0.50537 0.62126 0.87662 0.0
H733 H 0.50917 0.6355 0.77943 0.0
H734 H 0.5736 0.71507 0.07427 0.0
H735 H 0.58305 0.72905 0.97709 0.0
H736 H 0.56982 0.68588 0.12709 0.0
H737 H 0.54881 0.65808 0.13091 0.0
C738 C 0.33509 0.91052 0.9669 0.0
C739 C 0.34851 0.90086 0.98451 0.0
C740 C 0.32143 0.86694 0.90967 0.0
C741 C 0.31031 0.87824 0.87977 0.0
N742 N 0.3102 0.91301 0.86502 0.0
N743 N 0.3561 0.87074 0.96251 0.0
C744 C 0.31805 0.90063 0.90454 0.0
C745 C 0.34211 0.87921 0.9537 0.0
N746 N 0.33838 0.92902 0.01078 0.0
N747 N 0.31198 0.84445 0.89896 0.0
H748 H 0.37146 0.87924 0.99354 0.0
H749 H 0.35324 0.85607 0.93271 0.0
H750 H 0.29651 0.83473 0.8698 0.0
H751 H 0.31841 0.83516 0.92689 0.0
H752 H 0.32771 0.93552 0.00544 0.0
H753 H 0.35018 0.93625 0.05974 0.0
H754 H 0.31696 0.93003 0.87577 0.0
H755 H 0.2989 0.90708 0.81413 0.0
C756 C 0.13441 0.44785 0.92612 0.0
C757 C 0.12735 0.44089 0.84053 0.0
C758 C 0.1036 0.45789 0.84619 0.0
C759 C 0.10788 0.46156 0.93573 0.0
N760 N 0.12659 0.45931 0.06323 0.0
N761 N 0.10497 0.43862 0.71794 0.0
C762 C 0.12338 0.4567 0.97621 0.0
C763 C 0.1121 0.446 0.79975 0.0
N764 N 0.15181 0.44613 0.95893 0.0
N765 N 0.09172 0.46613 0.80549 0.0
H766 H 0.11149 0.43069 0.68074 0.0
H767 H 0.09179 0.43927 0.68847 0.0
H768 H 0.08552 0.47512 0.83772 0.0
H769 H 0.08974 0.46591 0.73899 0.0
H770 H 0.15916 0.45262 0.01828 0.0
H771 H 0.16032 0.44004 0.92269 0.0
H772 H 0.13561 0.45362 0.09809 0.0
H773 H 0.11899 0.4659 0.10197 0.0
C774 C 0.11483 0.66856 0.52618 0.0
C775 C 0.10782 0.64796 0.48439 0.0
C776 C 0.12068 0.66672 0.34594 0.0
C777 C 0.12804 0.68755 0.38724 0.0
N778 N 0.13751 0.70884 0.51882 0.0
N779 N 0.11049 0.62803 0.3627 0.0
C780 C 0.12684 0.68867 0.47829 0.0
C781 C 0.11307 0.64733 0.39697 0.0
N782 N 0.10918 0.66883 0.61024 0.0
N783 N 0.11918 0.66503 0.25816 0.0
H784 H 0.10529 0.61369 0.39973 0.0
H785 H 0.11584 0.627 0.30102 0.0
H786 H 0.12318 0.67846 0.21737 0.0
H787 H 0.11168 0.64983 0.22589 0.0
H788 H 0.11145 0.68312 0.64145 0.0
H789 H 0.10113 0.65439 0.64756 0.0
H790 H 0.13885 0.71058 0.58549 0.0
H791 H 0.14686 0.7238 0.48561 0.0
C792 C 0.3444 0.43036 0.42439 0.0
C793 C 0.35682 0.45383 0.43467 0.0
C794 C 0.32572 0.45602 0.36765 0.0
C795 C 0.31541 0.43307 0.34534 0.0
N796 N 0.32136 0.40165 0.32472 0.0
N797 N 0.36088 0.48955 0.39542 0.0
C798 C 0.32668 0.4212 0.36505 0.0
C799 C 0.34799 0.46693 0.4004 0.0
N800 N 0.3485 0.41648 0.47391 0.0
N801 N 0.31427 0.46727 0.36119 0.0
H802 H 0.37764 0.49811 0.41292 0.0
H803 H 0.35562 0.49947 0.36435 0.0
H804 H 0.29766 0.45974 0.34204 0.0
H805 H 0.32059 0.48348 0.38394 0.0
H806 H 0.33863 0.39918 0.47048 0.0
H807 H 0.35933 0.42198 0.52633 0.0
H808 H 0.33035 0.39343 0.33485 0.0
H809 H 0.31039 0.39548 0.27282 0.0
C810 C 0.53474 0.89388 0.36905 0.0
C811 C 0.53453 0.89355 0.4602 0.0
C812 C 0.55527 0.87333 0.4604 0.0
C813 C 0.55833 0.87669 0.37041 0.0
N814 N 0.55203 0.89089 0.23774 0.0
N815 N 0.54557 0.88423 0.59451 0.0
C816 C 0.54807 0.88687 0.324 0.0
C817 C 0.54475 0.8833 0.50653 0.0
N818 N 0.52194 0.90067 0.32585 0.0
N819 N 0.56223 0.86039 0.50137 0.0
H820 H 0.5378 0.89102 0.63109 0.0
H821 H 0.55516 0.87959 0.63136 0.0
H822 H 0.56999 0.85289 0.46897 0.0
H823 H 0.55857 0.85542 0.5654 0.0
H824 H 0.51961 0.89934 0.25945 0.0
H825 H 0.51198 0.90581 0.3575 0.0
H826 H 0.54731 0.90063 0.20231 0.0
H827 H 0.5613 0.88561 0.20204 0.0
C828 C 0.26121 0.12397 0.78857 0.0
C829 C 0.28143 0.14115 0.75201 0.0
C830 C 0.30173 0.12624 0.82951 0.0
C831 C 0.28278 0.11259 0.88011 0.0
N832 N 0.24433 0.10098 0.9146 0.0
N833 N 0.32176 0.16246 0.76576 0.0
C834 C 0.26233 0.11199 0.86161 0.0
C835 C 0.30197 0.1434 0.78038 0.0
N836 N 0.24109 0.11832 0.75248 0.0
N837 N 0.31964 0.12302 0.82873 0.0
H838 H 0.32275 0.17682 0.73974 0.0
H839 H 0.33681 0.16488 0.7907 0.0
H840 H 0.31972 0.10994 0.86197 0.0
H841 H 0.33296 0.13166 0.78644 0.0
H842 H 0.22622 0.10465 0.77321 0.0
H843 H 0.23945 0.12555 0.6962 0.0
H844 H 0.22997 0.10218 0.90804 0.0
H845 H 0.24434 0.0922 0.96901 0.0
C846 C 0.86894 0.12489 0.8138 0.0
C847 C 0.84985 0.12627 0.78868 0.0
C848 C 0.86233 0.15885 0.87923 0.0
C849 C 0.87915 0.15545 0.91649 0.0
N850 N 0.89456 0.13086 0.93026 0.0
N851 N 0.82476 0.1398 0.82629 0.0
C852 C 0.88142 0.13717 0.88726 0.0
C853 C 0.84531 0.14161 0.83121 0.0
N854 N 0.87597 0.11297 0.76633 0.0
N855 N 0.86303 0.17885 0.88543 0.0
H856 H 0.81124 0.12634 0.79653 0.0
H857 H 0.82068 0.15017 0.86102 0.0
H858 H 0.87668 0.19309 0.91043 0.0
H859 H 0.85137 0.18185 0.85494 0.0
H860 H 0.89099 0.11338 0.77849 0.0
H861 H 0.86818 0.10458 0.70999 0.0
H862 H 0.895 0.11644 0.91476 0.0
H863 H 0.90305 0.13845 0.98668 0.0
C864 C 0.85598 0.70498 0.81287 0.0
C865 C 0.87267 0.72484 0.77408 0.0
C866 C 0.86344 0.74609 0.87657 0.0
C867 C 0.84441 0.72589 0.90386 0.0
N868 N 0.81883 0.68724 0.86885 0.0
N869 N 0.88947 0.76487 0.75979 0.0
C870 C 0.83948 0.70571 0.86264 0.0
C871 C 0.87573 0.74568 0.80318 0.0
N872 N 0.85607 0.68539 0.80402 0.0
N873 N 0.87039 0.76536 0.9215 0.0
H874 H 0.8984 0.76535 0.70509 0.0
H875 H 0.89041 0.78002 0.7739 0.0
H876 H 0.86226 0.76645 0.97606 0.0
H877 H 0.88543 0.77983 0.90867 0.0
H878 H 0.84471 0.67086 0.83616 0.0
H879 H 0.86904 0.68444 0.77373 0.0
H880 H 0.81442 0.67284 0.8335 0.0
H881 H 0.80553 0.68731 0.90003 0.0
C882 C 0.14393 0.25227 0.6716 0.0
C883 C 0.14865 0.26518 0.74749 0.0
C884 C 0.11995 0.27454 0.70806 0.0
C885 C 0.12003 0.26697 0.62373 0.0
N886 N 0.12979 0.24628 0.52539 0.0
N887 N 0.13696 0.28357 0.8497 0.0
C888 C 0.13095 0.25468 0.60593 0.0
C889 C 0.135 0.27444 0.76988 0.0
N890 N 0.15116 0.23731 0.66353 0.0
N891 N 0.10549 0.2819 0.72779 0.0
H892 H 0.14654 0.28213 0.89839 0.0
H893 H 0.12943 0.29269 0.86809 0.0
H894 H 0.09422 0.28155 0.68257 0.0
H895 H 0.10331 0.28661 0.78895 0.0
H896 H 0.1472 0.22648 0.61164 0.0
H897 H 0.15832 0.23348 0.71471 0.0
H898 H 0.13974 0.2398 0.50502 0.0
H899 H 0.11948 0.24669 0.47733 0.0
C900 C 0.73461 0.87252 0.59538 0.0
C901 C 0.72637 0.84986 0.61754 0.0
C902 C 0.71796 0.85703 0.76311 0.0
C903 C 0.72199 0.8783 0.73547 0.0
N904 N 0.73365 0.90643 0.62506 0.0
N905 N 0.71121 0.82042 0.72238 0.0
C906 C 0.73069 0.88634 0.65212 0.0
C907 C 0.71871 0.84222 0.70205 0.0
N908 N 0.74573 0.8806 0.51943 0.0
N909 N 0.7135 0.8511 0.8479 0.0
H910 H 0.71303 0.80972 0.68035 0.0
H911 H 0.70253 0.81277 0.77857 0.0
H912 H 0.71241 0.86138 0.89425 0.0
H913 H 0.71268 0.83684 0.87387 0.0
H914 H 0.75381 0.89739 0.50258 0.0
H915 H 0.74864 0.87077 0.47646 0.0
H916 H 0.73756 0.91214 0.56192 0.0
H917 H 0.73065 0.91684 0.66447 0.0
C918 C 0.1515 0.89921 0.73657 0.0
C919 C 0.13679 0.89924 0.67467 0.0
C920 C 0.10605 0.87373 0.7666 0.0
C921 C 0.12043 0.86694 0.80552 0.0
N922 N 0.1586 0.873 0.80945 0.0
N923 N 0.0994 0.88878 0.63583 0.0
C924 C 0.14388 0.87996 0.78807 0.0
C925 C 0.11378 0.88759 0.69252 0.0
N926 N 0.17327 0.91564 0.73631 0.0
N927 N 0.08562 0.86765 0.80065 0.0
H928 H 0.10522 0.89936 0.58236 0.0
H929 H 0.08214 0.8787 0.64045 0.0
H930 H 0.08044 0.85977 0.86024 0.0
H931 H 0.07528 0.87322 0.77555 0.0
H932 H 0.18464 0.91654 0.78249 0.0
H933 H 0.17895 0.92938 0.69535 0.0
H934 H 0.17547 0.88211 0.79346 0.0
H935 H 0.15397 0.8569 0.8288 0.0
C936 C 0.73157 0.87177 0.09483 0.0
C937 C 0.72064 0.88389 0.11528 0.0
C938 C 0.71439 0.8692 0.26198 0.0
C939 C 0.72094 0.85365 0.23571 0.0
N940 N 0.73345 0.83839 0.12358 0.0
N941 N 0.70114 0.89409 0.21768 0.0
C942 C 0.72934 0.85469 0.15165 0.0
C943 C 0.71212 0.88279 0.19913 0.0
N944 N 0.74365 0.87622 0.02063 0.0
N945 N 0.71048 0.87104 0.34708 0.0
H946 H 0.70006 0.90494 0.17395 0.0
H947 H 0.69209 0.89176 0.27414 0.0
H948 H 0.71217 0.86145 0.3951 0.0
H949 H 0.70765 0.88346 0.37102 0.0
H950 H 0.75348 0.86915 0.00622 0.0
H951 H 0.74554 0.88858 0.97742 0.0
H952 H 0.73735 0.83704 0.05989 0.0
H953 H 0.73091 0.82499 0.1621 0.0
C954 C 0.11245 0.87296 0.12899 0.0
C955 C 0.09713 0.85058 0.15088 0.0
C956 C 0.10022 0.86092 0.30152 0.0
C957 C 0.12046 0.88057 0.28142 0.0
N958 N 0.14362 0.90809 0.17658 0.0
N959 N 0.07241 0.82389 0.25371 0.0
C960 C 0.1255 0.88788 0.19512 0.0
C961 C 0.08924 0.8449 0.23591 0.0
N962 N 0.11478 0.87941 0.04487 0.0
N963 N 0.09261 0.85738 0.38434 0.0
H964 H 0.06373 0.81255 0.20464 0.0
H965 H 0.06731 0.81776 0.31577 0.0
H966 H 0.10095 0.86926 0.43226 0.0
H967 H 0.07748 0.84386 0.40354 0.0
H968 H 0.12488 0.89574 0.02405 0.0
H969 H 0.10459 0.86848 0.99721 0.0
H970 H 0.1498 0.9132 0.11458 0.0
H971 H 0.15269 0.91971 0.22414 0.0
C972 C 0.16769 0.27492 0.20318 0.0
C973 C 0.1599 0.26861 0.11808 0.0
C974 C 0.12444 0.26613 0.15506 0.0
C975 C 0.13238 0.2731 0.23996 0.0
N976 N 0.15893 0.2784 0.35143 0.0
N977 N 0.12886 0.25078 0.02109 0.0
C978 C 0.15318 0.27557 0.26627 0.0
C979 C 0.13747 0.26153 0.09709 0.0
N980 N 0.18924 0.28109 0.22234 0.0
N981 N 0.10549 0.26572 0.12755 0.0
H982 H 0.13823 0.24717 0.97811 0.0
H983 H 0.11207 0.24364 0.00496 0.0
H984 H 0.09605 0.27005 0.16699 0.0
H985 H 0.10021 0.263 0.06367 0.0
H986 H 0.19706 0.28864 0.27989 0.0
H987 H 0.19948 0.27916 0.17812 0.0
H988 H 0.17285 0.27818 0.37559 0.0
H989 H 0.14878 0.27916 0.3993 0.0
C990 C 0.85231 0.74868 0.37101 0.0
C991 C 0.85487 0.74706 0.28149 0.0
C992 C 0.89098 0.74954 0.30371 0.0
C993 C 0.88661 0.74751 0.3929 0.0
N994 N 0.86867 0.75357 0.51358 0.0
N995 N 0.87889 0.75304 0.16036 0.0
C996 C 0.86928 0.7504 0.42711 0.0
C997 C 0.87526 0.75029 0.24709 0.0
N998 N 0.83299 0.74687 0.40192 0.0
N999 N 0.90942 0.74928 0.27412 0.0
H1000 H 0.86736 0.75353 0.1185 0.0
H1001 H 0.89371 0.75637 0.13064 0.0
H1002 H 0.92143 0.74989 0.31644 0.0
H1003 H 0.91279 0.7484 0.20943 0.0
H1004 H 0.82896 0.74566 0.46699 0.0
H1005 H 0.82055 0.74588 0.36111 0.0
H1006 H 0.85717 0.75695 0.54307 0.0
H1007 H 0.8811 0.75469 0.55474 0.0
C1008 C 0.25721 0.10035 0.34812 0.0
C1009 C 0.26133 0.10691 0.2608 0.0
C1010 C 0.25448 0.13765 0.28923 0.0
C1011 C 0.25646 0.13463 0.37779 0.0
N1012 N 0.25514 0.11133 0.49501 0.0
N1013 N 0.26018 0.12898 0.14318 0.0
C1014 C 0.25563 0.11494 0.40836 0.0
C1015 C 0.25824 0.12441 0.22938 0.0
N1016 N 0.25563 0.08069 0.37287 0.0
N1017 N 0.24956 0.15356 0.26383 0.0
H1018 H 0.2621 0.11887 0.09818 0.0
H1019 H 0.26035 0.14284 0.11641 0.0
H1020 H 0.24605 0.16254 0.30902 0.0
H1021 H 0.24695 0.15636 0.20016 0.0
H1022 H 0.25145 0.07416 0.43482 0.0
H1023 H 0.25688 0.06999 0.32879 0.0
H1024 H 0.25702 0.09871 0.52299 0.0
H1025 H 0.25306 0.12142 0.53947 0.0
C1026 C 0.86465 0.11476 0.32808 0.0
C1027 C 0.86509 0.12149 0.41393 0.0
C1028 C 0.89872 0.15711 0.38493 0.0
C1029 C 0.89482 0.15245 0.29607 0.0
N1030 N 0.87629 0.12636 0.18066 0.0
N1031 N 0.88446 0.14635 0.53081 0.0
C1032 C 0.87884 0.13085 0.2669 0.0
C1033 C 0.88317 0.14167 0.44484 0.0
N1034 N 0.85038 0.09316 0.30589 0.0
N1035 N 0.9169 0.17653 0.41071 0.0
H1036 H 0.87371 0.13463 0.57549 0.0
H1037 H 0.89586 0.16155 0.55797 0.0
H1038 H 0.92832 0.18789 0.36663 0.0
H1039 H 0.92155 0.18076 0.47462 0.0
H1040 H 0.8498 0.08658 0.24512 0.0
H1041 H 0.84061 0.0813 0.35201 0.0
H1042 H 0.86332 0.11188 0.15431 0.0
H1043 H 0.88695 0.13762 0.13468 0.0
C1044 C 0.92885 0.44932 0.205 0.0
C1045 C 0.95071 0.45529 0.2337 0.0
C1046 C 0.96622 0.48721 0.13728 0.0
C1047 C 0.94515 0.47932 0.09795 0.0
N1048 N 0.90671 0.45006 0.08544 0.0
N1049 N 0.99027 0.47575 0.20281 0.0
C1050 C 0.92644 0.45955 0.12913 0.0
C1051 C 0.96943 0.47295 0.19232 0.0
N1052 N 0.91047 0.43485 0.25123 0.0
N1053 N 0.98313 0.50851 0.12363 0.0
H1054 H 0.99322 0.46442 0.23647 0.0
H1055 H 0.00402 0.48773 0.16867 0.0
H1056 H 0.98101 0.52011 0.08804 0.0
H1057 H 0.99828 0.51528 0.15641 0.0
H1058 H 0.89451 0.43187 0.23674 0.0
H1059 H 0.91124 0.42749 0.30861 0.0
H1060 H 0.89336 0.43443 0.10115 0.0
H1061 H 0.90435 0.4568 0.02912 0.0
C1062 C 0.5468 0.46208 0.1935 0.0
C1063 C 0.56026 0.48502 0.17487 0.0
C1064 C 0.54737 0.47892 0.02666 0.0
C1065 C 0.53097 0.45686 0.04981 0.0
N1066 N 0.52453 0.425 0.13501 0.0
N1067 N 0.58096 0.51283 0.06948 0.0
C1068 C 0.53373 0.44747 0.12668 0.0
C1069 C 0.56321 0.49256 0.08919 0.0
N1070 N 0.54546 0.45461 0.27585 0.0
N1071 N 0.54722 0.48685 0.94627 0.0
H1072 H 0.59303 0.52183 0.11585 0.0
H1073 H 0.58494 0.51939 0.00749 0.0
H1074 H 0.5366 0.47665 0.8979 0.0
H1075 H 0.55721 0.50341 0.92799 0.0
H1076 H 0.53376 0.43857 0.29556 0.0
H1077 H 0.55561 0.46495 0.32503 0.0
H1078 H 0.52703 0.41747 0.18869 0.0
H1079 H 0.51733 0.41425 0.08316 0.0
C1080 C 0.54133 0.08517 0.05992 0.0
C1081 C 0.55821 0.08118 0.09189 0.0
C1082 C 0.55027 0.08715 0.23904 0.0
C1083 C 0.53076 0.08662 0.208 0.0
N1084 N 0.51208 0.09381 0.09402 0.0
N1085 N 0.58381 0.08557 0.20434 0.0
C1086 C 0.52802 0.08892 0.11951 0.0
C1087 C 0.56463 0.085 0.17926 0.0
N1088 N 0.53733 0.08391 0.97339 0.0
N1089 N 0.5538 0.08784 0.32578 0.0
H1090 H 0.5943 0.08397 0.16014 0.0
H1091 H 0.59012 0.08907 0.26666 0.0
H1092 H 0.54367 0.09012 0.36955 0.0
H1093 H 0.56646 0.08616 0.35448 0.0
H1094 H 0.52403 0.08463 0.94558 0.0
H1095 H 0.54751 0.08189 0.92904 0.0
H1096 H 0.50926 0.0964 0.03037 0.0
H1097 H 0.50286 0.09704 0.13917 0.0
C1098 C 0.77836 0.58872 0.98589 0.0
C1099 C 0.78738 0.59901 0.90549 0.0
C1100 C 0.82359 0.60313 0.94275 0.0
C1101 C 0.81543 0.59577 0.02663 0.0
N1102 N 0.78436 0.57439 0.12039 0.0
N1103 N 0.81542 0.60847 0.79586 0.0
C1104 C 0.79242 0.58592 0.04524 0.0
C1105 C 0.80896 0.6035 0.87993 0.0
N1106 N 0.75704 0.58301 0.00746 0.0
N1107 N 0.84564 0.61104 0.92542 0.0
H1108 H 0.80503 0.60915 0.74881 0.0
H1109 H 0.83017 0.61013 0.77128 0.0
H1110 H 0.85629 0.6098 0.96989 0.0
H1111 H 0.8535 0.61931 0.86887 0.0
H1112 H 0.75042 0.57813 0.06902 0.0
H1113 H 0.74598 0.58367 0.96376 0.0
H1114 H 0.76751 0.56548 0.13617 0.0
H1115 H 0.79462 0.57224 0.16398 0.0
C1116 C 0.41713 0.18097 0.08629 0.0
C1117 C 0.41977 0.18728 -0.00117 0.0
C1118 C 0.42756 0.22435 0.041 0.0
C1119 C 0.4169 0.21518 0.12008 0.0
N1120 N 0.40765 0.18747 0.22995 0.0
N1121 N 0.43152 0.21643 0.89234 0.0
C1122 C 0.41412 0.19444 0.1473 0.0
C1123 C 0.42694 0.20969 0.9761 0.0
N1124 N 0.41692 0.16187 0.10895 0.0
N1125 N 0.43843 0.2468 0.02915 0.0
H1126 H 0.4321 0.20631 0.844 0.0
H1127 H 0.43408 0.23179 0.87085 0.0
H1128 H 0.44098 0.25751 0.08041 0.0
H1129 H 0.44746 0.2546 0.97373 0.0
H1130 H 0.41571 0.15633 0.1721 0.0
H1131 H 0.4203 0.1529 0.06336 0.0
H1132 H 0.40316 0.1716 0.25223 0.0
H1133 H 0.40662 0.1979 0.27607 0.0
C1134 C 0.79761 0.21417 0.959 0.0
C1135 C 0.82008 0.22917 0.979 0.0
C1136 C 0.81366 0.21608 0.12735 0.0
C1137 C 0.7936 0.197 0.10015 0.0
N1138 N 0.76537 0.17838 0.99034 0.0
N1139 N 0.84833 0.2488 0.08378 0.0
C1140 C 0.78476 0.19649 0.01694 0.0
C1141 C 0.82752 0.23184 0.06469 0.0
N1142 N 0.78924 0.21632 0.88236 0.0
N1143 N 0.81941 0.21878 0.21244 0.0
H1144 H 0.85749 0.26116 0.03844 0.0
H1145 H 0.8563 0.25062 0.14249 0.0
H1146 H 0.80944 0.20736 0.25934 0.0
H1147 H 0.83305 0.23294 0.23751 0.0
H1148 H 0.77249 0.2069 0.86549 0.0
H1149 H 0.79896 0.22917 0.83941 0.0
H1150 H 0.75965 0.17614 0.92712 0.0
H1151 H 0.75552 0.1648 0.02973 0.0
C1152 C 0.37431 0.20398 0.53272 0.0
C1153 C 0.39331 0.21747 0.48181 0.0
C1154 C 0.41483 0.20658 0.5765 0.0
C1155 C 0.39459 0.18956 0.6135 0.0
N1156 N 0.3543 0.16808 0.59907 0.0
N1157 N 0.43191 0.22943 0.44998 0.0
C1158 C 0.37408 0.18718 0.5842 0.0
C1159 C 0.4138 0.21838 0.5024 0.0
N1160 N 0.35606 0.20661 0.52967 0.0
N1161 N 0.43487 0.21206 0.6128 0.0
H1162 H 0.43195 0.23822 0.3955 0.0
H1163 H 0.44636 0.22845 0.45752 0.0
H1164 H 0.43631 0.20469 0.6691 0.0
H1165 H 0.44984 0.2256 0.59205 0.0
H1166 H 0.34271 0.19831 0.57214 0.0
H1167 H 0.35556 0.21877 0.49179 0.0
H1168 H 0.33927 0.16542 0.57308 0.0
H1169 H 0.35329 0.15383 0.62626 0.0
C1170 C 0.7874 0.18477 0.62693 0.0
C1171 C 0.80533 0.20596 0.60209 0.0
C1172 C 0.78811 0.20102 0.4605 0.0
C1173 C 0.77496 0.17803 0.47775 0.0
N1174 N 0.75911 0.14804 0.57914 0.0
N1175 N 0.82244 0.23478 0.49292 0.0
C1176 C 0.77333 0.17001 0.56232 0.0
C1177 C 0.80528 0.21464 0.51907 0.0
N1178 N 0.78401 0.17887 0.71191 0.0
N1179 N 0.78469 0.20943 0.38632 0.0
H1180 H 0.8358 0.24522 0.53202 0.0
H1181 H 0.82426 0.24047 0.42968 0.0
H1182 H 0.77221 0.19936 0.34278 0.0
H1183 H 0.7926 0.22642 0.37263 0.0
H1184 H 0.77031 0.16431 0.73445 0.0
H1185 H 0.79383 0.18968 0.76062 0.0
H1186 H 0.75894 0.14028 0.63683 0.0
H1187 H 0.74779 0.13762 0.53293 0.0
C1188 C 0.79138 0.58895 0.55019 0.0
C1189 C 0.77888 0.59951 0.53059 0.0
C1190 C 0.79159 0.60425 0.38173 0.0
C1191 C 0.80837 0.59927 0.40725 0.0
N1192 N 0.82299 0.58447 0.51311 0.0
N1193 N 0.76475 0.61508 0.42689 0.0
C1194 C 0.80757 0.59033 0.49015 0.0
C1195 C 0.7779 0.60607 0.44542 0.0
N1196 N 0.78775 0.57781 0.62637 0.0
N1197 N 0.78907 0.60744 0.29654 0.0
H1198 H 0.75378 0.61553 0.47194 0.0
H1199 H 0.76527 0.62275 0.36855 0.0
H1200 H 0.79893 0.60609 0.24876 0.0
H1201 H 0.77607 0.60936 0.27261 0.0
H1202 H 0.79512 0.56836 0.64255 0.0
H1203 H 0.77568 0.57646 0.67014 0.0
H1204 H 0.82512 0.58062 0.57595 0.0
H1205 H 0.83422 0.58416 0.4693 0.0
C1206 C 0.5325 0.03803 0.66952 0.0
C1207 C 0.54812 0.05718 0.71521 0.0
C1208 C 0.53918 0.07989 0.619 0.0
C1209 C 0.52075 0.0601 0.58575 0.0
N1210 N 0.49613 0.02042 0.60581 0.0
N1211 N 0.5637 0.09669 0.74123 0.0
C1212 C 0.51628 0.03918 0.61899 0.0
C1213 C 0.55087 0.07833 0.69218 0.0
N1214 N 0.53311 0.01865 0.674 0.0
N1215 N 0.54617 0.09993 0.57965 0.0
H1216 H 0.57234 0.09639 0.79557 0.0
H1217 H 0.56419 0.11183 0.73177 0.0
H1218 H 0.53872 0.10179 0.52445 0.0
H1219 H 0.56079 0.11433 0.59711 0.0
H1220 H 0.52295 0.00489 0.6358 0.0
H1221 H 0.54543 0.01733 0.70774 0.0
H1222 H 0.49193 0.00514 0.63405 0.0
H1223 H 0.48274 0.02077 0.57653 0.0
C1224 C 0.91851 0.45915 0.56195 0.0
C1225 C 0.92195 0.44208 0.5958 0.0
C1226 C 0.91111 0.44776 0.73871 0.0
C1227 C 0.91382 0.46825 0.70892 0.0
N1228 N 0.91208 0.49003 0.59355 0.0
N1229 N 0.91665 0.4163 0.70918 0.0
C1230 C 0.91427 0.47243 0.62003 0.0
C1231 C 0.91602 0.43472 0.68174 0.0
N1232 N 0.92053 0.46316 0.47535 0.0
N1233 N 0.90532 0.44189 0.82265 0.0
H1234 H 0.91974 0.40643 0.66692 0.0
H1235 H 0.91412 0.41072 0.77258 0.0
H1236 H 0.90172 0.45163 0.86358 0.0
H1237 H 0.90267 0.42705 0.85002 0.0
H1238 H 0.91874 0.4756 0.44535 0.0
H1239 H 0.92338 0.45321 0.43266 0.0
H1240 H 0.91307 0.4951 0.5299 0.0
H1241 H 0.90839 0.49911 0.63763 0.0
C1242 C 0.54494 0.47399 0.63951 0.0
C1243 C 0.53584 0.47392 0.55729 0.0
C1244 C 0.49957 0.44301 0.60281 0.0
C1245 C 0.50849 0.44381 0.68528 0.0
N1246 N 0.5409 0.4534 0.77117 0.0
N1247 N 0.50729 0.45274 0.452 0.0
C1248 C 0.53171 0.4569 0.69933 0.0
C1249 C 0.51402 0.4565 0.536 0.0
N1250 N 0.56523 0.49119 0.66388 0.0
N1251 N 0.47716 0.43006 0.58954 0.0
H1252 H 0.51787 0.46172 0.40123 0.0
H1253 H 0.4922 0.43925 0.43227 0.0
H1254 H 0.46646 0.41923 0.63664 0.0
H1255 H 0.46921 0.43083 0.53375 0.0
H1256 H 0.5713 0.49308 0.72652 0.0
H1257 H 0.57524 0.50471 0.6245 0.0
H1258 H 0.55804 0.46121 0.78156 0.0
H1259 H 0.53139 0.44102 0.81598 0.0
C1260 C 0.59245 0.80685 0.45435 0.0
C1261 C 0.61298 0.82497 0.4235 0.0
C1262 C 0.63271 0.80966 0.50064 0.0
C1263 C 0.61337 0.79467 0.54674 0.0
N1264 N 0.57428 0.78165 0.57431 0.0
N1265 N 0.65264 0.84741 0.45212 0.0
C1266 C 0.59291 0.79385 0.52566 0.0
C1267 C 0.63312 0.82758 0.45742 0.0
N1268 N 0.57278 0.80138 0.41484 0.0
N1269 N 0.65089 0.80699 0.49769 0.0
H1270 H 0.65337 0.86202 0.43028 0.0
H1271 H 0.66736 0.8498 0.48047 0.0
H1272 H 0.65102 0.79327 0.52493 0.0
H1273 H 0.66445 0.81713 0.45848 0.0
H1274 H 0.55783 0.78715 0.43108 0.0
H1275 H 0.5717 0.80958 0.36044 0.0
H1276 H 0.55973 0.78242 0.56577 0.0
H1277 H 0.57388 0.77228 0.62739 0.0
C1278 C 0.23027 0.82392 0.45085 0.0
C1279 C 0.23391 0.81052 0.5089 0.0
C1280 C 0.21236 0.77881 0.41485 0.0
C1281 C 0.20238 0.79056 0.37714 0.0
N1282 N 0.19996 0.82464 0.38035 0.0
N1283 N 0.23 0.77508 0.544 0.0
C1284 C 0.2111 0.81348 0.39881 0.0
C1285 C 0.22578 0.78792 0.48927 0.0
N1286 N 0.24317 0.84652 0.45409 0.0
N1287 N 0.20961 0.75957 0.37944 0.0
H1288 H 0.24046 0.78197 0.59726 0.0
H1289 H 0.22243 0.75782 0.53811 0.0
H1290 H 0.20176 0.75349 0.32042 0.0
H1291 H 0.21767 0.75135 0.40315 0.0
H1292 H 0.24134 0.85697 0.41049 0.0
H1293 H 0.25703 0.85431 0.49446 0.0
H1294 H 0.20564 0.84096 0.40049 0.0
H1295 H 0.18359 0.81692 0.35834 0.0
C1296 C 0.17211 0.38897 0.43208 0.0
C1297 C 0.18014 0.3968 0.51576 0.0
C1298 C 0.2173 0.40382 0.47531 0.0
C1299 C 0.20883 0.39449 0.39307 0.0
N1300 N 0.18085 0.38582 0.28374 0.0
N1301 N 0.21149 0.41936 0.60653 0.0
C1302 C 0.18709 0.38967 0.3683 0.0
C1303 C 0.20322 0.40697 0.53358 0.0
N1304 N 0.14993 0.37995 0.41505 0.0
N1305 N 0.23801 0.40815 0.50027 0.0
H1306 H 0.20135 0.42202 0.64896 0.0
H1307 H 0.22845 0.42866 0.62027 0.0
H1308 H 0.24875 0.40586 0.46008 0.0
H1309 H 0.24394 0.41256 0.56293 0.0
H1310 H 0.14232 0.37127 0.35891 0.0
H1311 H 0.13902 0.38054 0.45982 0.0
H1312 H 0.16602 0.38427 0.2606 0.0
H1313 H 0.19148 0.38627 0.23524 0.0
C1314 C 0.45862 0.92391 0.39132 0.0
C1315 C 0.4765 0.94363 0.4274 0.0
C1316 C 0.46449 0.96572 0.34503 0.0
C1317 C 0.44975 0.94685 0.29616 0.0
N1318 N 0.43508 0.90765 0.26618 0.0
N1319 N 0.50034 0.98365 0.41285 0.0
C1320 C 0.44727 0.92572 0.3175 0.0
C1321 C 0.48056 0.96467 0.39689 0.0
N1322 N 0.45187 0.90366 0.42847 0.0
N1323 N 0.4634 0.98485 0.34124 0.0
H1324 H 0.51384 0.98352 0.44212 0.0
H1325 H 0.50426 0.99906 0.38656 0.0
H1326 H 0.45138 0.98612 0.30509 0.0
H1327 H 0.47278 0.99832 0.38186 0.0
H1328 H 0.43763 0.88917 0.40877 0.0
H1329 H 0.45907 0.90167 0.48417 0.0
H1330 H 0.43489 0.89262 0.27435 0.0
H1331 H 0.4266 0.90813 0.21162 0.0
C1332 C 0.07195 0.56212 0.27077 0.0
C1333 C 0.07371 0.55791 0.35864 0.0
C1334 C 0.08719 0.53258 0.31865 0.0
C1335 C 0.07915 0.53196 0.23489 0.0
N1336 N 0.06894 0.54909 0.12326 0.0
N1337 N 0.08576 0.54156 0.46849 0.0
C1338 C 0.07379 0.54825 0.20794 0.0
C1339 C 0.08287 0.54439 0.38335 0.0
N1340 N 0.06785 0.57884 0.24875 0.0
N1341 N 0.09836 0.52144 0.33567 0.0
H1342 H 0.08317 0.5504 0.51711 0.0
H1343 H 0.08989 0.52993 0.49107 0.0
H1344 H 0.10185 0.51324 0.28697 0.0
H1345 H 0.10586 0.52213 0.39456 0.0
H1346 H 0.06741 0.58366 0.18565 0.0
H1347 H 0.06658 0.58907 0.29508 0.0
H1348 H 0.06267 0.55891 0.09935 0.0
H1349 H 0.07108 0.53942 0.07679 0.0
C1350 C 0.4847 0.52084 0.36777 0.0
C1351 C 0.46456 0.51973 0.39467 0.0
C1352 C 0.47051 0.5474 0.28279 0.0
C1353 C 0.4919 0.55011 0.26563 0.0
N1354 N 0.5221 0.54596 0.32166 0.0
N1355 N 0.44189 0.53752 0.39114 0.0
C1356 C 0.49993 0.53913 0.31868 0.0
C1357 C 0.45837 0.53462 0.35625 0.0
N1358 N 0.48886 0.50382 0.38313 0.0
N1359 N 0.4614 0.55622 0.22865 0.0
H1360 H 0.43372 0.52996 0.44823 0.0
H1361 H 0.43822 0.54952 0.36866 0.0
H1362 H 0.46971 0.56573 0.17482 0.0
H1363 H 0.44491 0.55262 0.2341 0.0
H1364 H 0.50306 0.504 0.35944 0.0
H1365 H 0.47687 0.48843 0.40775 0.0
H1366 H 0.52857 0.53965 0.36718 0.0
H1367 H 0.53389 0.55975 0.28716 0.0
C1368 C 0.07132 0.54096 0.77219 0.0
C1369 C 0.05027 0.53758 0.7441 0.0
C1370 C 0.0319 0.50425 0.83365 0.0
C1371 C 0.05238 0.50973 0.87368 0.0
N1372 N 0.09153 0.53708 0.89178 0.0
N1373 N 0.01074 0.52004 0.77552 0.0
C1374 C 0.0722 0.52913 0.84605 0.0
C1375 C 0.0306 0.52044 0.78308 0.0
N1376 N 0.09034 0.55459 0.72758 0.0
N1377 N 0.01368 0.48353 0.84287 0.0
H1378 H 0.00934 0.53298 0.74733 0.0
H1379 H 0.9964 0.5083 0.8074 0.0
H1380 H 0.01437 0.47062 0.87487 0.0
H1381 H 0.99883 0.47857 0.80962 0.0
H1382 H 0.10562 0.55579 0.74184 0.0
H1383 H 0.09053 0.56285 0.67128 0.0
H1384 H 0.10564 0.55235 0.87799 0.0
H1385 H 0.09289 0.5298 0.94841 0.0
C1386 C 0.45868 0.53725 0.91046 0.0
C1387 C 0.47912 0.55489 0.87853 0.0
C1388 C 0.46576 0.5454 0.73085 0.0
C1389 C 0.44717 0.52571 0.76264 0.0
N1390 N 0.42119 0.50744 0.87649 0.0
N1391 N 0.49987 0.58001 0.76372 0.0
C1392 C 0.44197 0.52333 0.85093 0.0
C1393 C 0.48175 0.56059 0.79017 0.0
N1394 N 0.45591 0.53317 0.99698 0.0
N1395 N 0.46869 0.54845 0.64391 0.0
H1396 H 0.5118 0.59106 0.80697 0.0
H1397 H 0.50246 0.58589 0.70073 0.0
H1398 H 0.4565 0.53781 0.60056 0.0
H1399 H 0.48285 0.56118 0.61469 0.0
H1400 H 0.44242 0.51921 0.0241 0.0
H1401 H 0.46766 0.54365 0.04194 0.0
H1402 H 0.41559 0.50513 0.93989 0.0
H1403 H 0.40889 0.498 0.83133 0.0
C1404 C 0.47492 0.91572 0.89672 0.0
C1405 C 0.47088 0.91556 0.8078 0.0
C1406 C 0.43725 0.91761 0.83498 0.0
C1407 C 0.44436 0.92305 0.92136 0.0
N1408 N 0.46503 0.92094 0.04188 0.0
N1409 N 0.44455 0.90725 0.69382 0.0
C1410 C 0.4614 0.91955 0.95504 0.0
C1411 C 0.45043 0.91295 0.77778 0.0
N1412 N 0.49248 0.91345 0.92314 0.0
N1413 N 0.41897 0.9185 0.80732 0.0
H1414 H 0.45419 0.90363 0.65246 0.0
H1415 H 0.42963 0.90448 0.66687 0.0
H1416 H 0.40889 0.92132 0.84946 0.0
H1417 H 0.41377 0.91658 0.74353 0.0
H1418 H 0.49753 0.9144 0.98677 0.0
H1419 H 0.50155 0.90972 0.87907 0.0
H1420 H 0.47735 0.91893 0.0718 0.0
H1421 H 0.45484 0.92338 0.08488 0.0
C1422 C 0.18785 0.40506 0.98202 0.0
C1423 C 0.18798 0.39746 0.89733 0.0
C1424 C 0.22228 0.39661 0.92859 0.0
C1425 C 0.22051 0.40153 0.01525 0.0
N1426 N 0.20791 0.41876 0.11716 0.0
N1427 N 0.20825 0.39193 0.78251 0.0
C1428 C 0.20545 0.40877 0.03913 0.0
C1429 C 0.20633 0.39535 0.86801 0.0
N1430 N 0.17018 0.40702 0.0098 0.0
N1431 N 0.23874 0.39222 0.90608 0.0
H1432 H 0.19654 0.39046 0.73697 0.0
H1433 H 0.222 0.39193 0.75538 0.0
H1434 H 0.25149 0.39518 0.94901 0.0
H1435 H 0.23984 0.38581 0.84688 0.0
H1436 H 0.168 0.41022 0.07348 0.0
H1437 H 0.15686 0.40408 0.96998 0.0
H1438 H 0.19856 0.42596 0.13689 0.0
H1439 H 0.22089 0.42154 0.15884 0.0
C1440 C 0.60368 0.817 0.88553 0.0
C1441 C 0.59889 0.79556 0.91345 0.0
C1442 C 0.59041 0.80287 0.05775 0.0
C1443 C 0.59836 0.82532 0.03318 0.0
N1444 N 0.60422 0.85145 0.92111 0.0
N1445 N 0.57654 0.76505 0.00812 0.0
C1446 C 0.60207 0.83155 0.94552 0.0
C1447 C 0.58853 0.7874 0.99395 0.0
N1448 N 0.61033 0.82342 0.80253 0.0
N1449 N 0.58601 0.79666 0.14218 0.0
H1450 H 0.57282 0.75386 0.95773 0.0
H1451 H 0.56762 0.75797 0.0645 0.0
H1452 H 0.58661 0.80741 0.19036 0.0
H1453 H 0.58278 0.78115 0.16475 0.0
H1454 H 0.61642 0.83957 0.77976 0.0
H1455 H 0.60988 0.81228 0.75626 0.0
H1456 H 0.60598 0.8569 0.85763 0.0
H1457 H 0.60203 0.86152 0.96531 0.0
C1458 C 0.20485 0.77021 0.87951 0.0
C1459 C 0.22293 0.7914 0.90113 0.0
C1460 C 0.21479 0.78288 0.05302 0.0
C1461 C 0.19322 0.76587 0.02899 0.0
N1462 N 0.16906 0.7393 0.92501 0.0
N1463 N 0.24889 0.81581 0.00691 0.0
C1464 C 0.18891 0.75779 0.94394 0.0
C1465 C 0.22959 0.79671 0.98778 0.0
N1466 N 0.20243 0.76317 0.79617 0.0
N1467 N 0.2204 0.78615 0.13806 0.0
H1468 H 0.26021 0.82554 0.9593 0.0
H1469 H 0.2536 0.82207 0.06896 0.0
H1470 H 0.20952 0.77562 0.18529 0.0
H1471 H 0.23614 0.79768 0.16083 0.0
H1472 H 0.19003 0.7476 0.77529 0.0
H1473 H 0.21419 0.77274 0.74926 0.0
H1474 H 0.16374 0.73356 0.86278 0.0
H1475 H 0.15789 0.72976 0.97347 0.0
C1476 C 0.34599 0.08185 0.86165 0.0
C1477 C 0.36564 0.09825 0.90303 0.0
C1478 C 0.34672 0.08705 0.04288 0.0
C1479 C 0.32638 0.07283 -0.00039 0.0
N1480 N 0.31077 0.0478 0.87863 0.0
N1481 N 0.38699 0.11025 0.03428 0.0
C1482 C 0.32716 0.06738 0.91213 0.0
C1483 C 0.36681 0.09885 0.9943 0.0
N1484 N 0.34529 0.08009 0.77393 0.0
N1485 N 0.34678 0.08903 0.13038 0.0
H1486 H 0.40196 0.11815 0.00061 0.0
H1487 H 0.38923 0.11009 0.10045 0.0
H1488 H 0.33338 0.07795 0.1685 0.0
H1489 H 0.35999 0.10142 0.16516 0.0
H1490 H 0.33055 0.07063 0.73977 0.0
H1491 H 0.35937 0.08879 0.73515 0.0
H1492 H 0.31127 0.04249 0.81636 0.0
H1493 H 0.29869 0.0352 0.91684 0.0
C1494 C 0.92229 0.23027 0.87594 0.0
C1495 C 0.92693 0.23613 0.96449 0.0
C1496 C 0.909 0.25897 0.95284 0.0
C1497 C 0.90467 0.25325 0.86418 0.0
N1498 N 0.91514 0.24094 0.73649 0.0
N1499 N 0.93098 0.2615 0.07836 0.0
C1500 C 0.91392 0.24133 0.82426 0.0
C1501 C 0.92226 0.25223 0.00011 0.0
N1502 N 0.9242 0.21315 0.84149 0.0
N1503 N 0.89973 0.26985 0.99362 0.0
H1504 H 0.94133 0.25744 0.11345 0.0
H1505 H 0.93001 0.2749 0.10387 0.0
H1506 H 0.89053 0.27585 0.96234 0.0
H1507 H 0.89997 0.27168 0.06025 0.0
H1508 H 0.91821 0.20669 0.78045 0.0
H1509 H 0.92962 0.2038 0.87531 0.0
H1510 H 0.9236 0.23418 0.70419 0.0
H1511 H 0.91012 0.24976 0.69658 0.0
C1512 C 0.75536 0.67173 0.83515 0.0
C1513 C 0.74847 0.6507 0.87348 0.0
C1514 C 0.75436 0.66825 0.01555 0.0
C1515 C 0.76558 0.6897 0.97693 0.0
N1516 N 0.78132 0.71095 0.84503 0.0
N1517 N 0.7457 0.63005 0.0035 0.0
C1518 C 0.76719 0.69133 0.8853 0.0
C1519 C 0.74898 0.64916 0.96472 0.0
N1520 N 0.75033 0.67315 0.75116 0.0
N1521 N 0.74832 0.66592 0.10032 0.0
H1522 H 0.74297 0.616 0.96949 0.0
H1523 H 0.7482 0.62908 0.06919 0.0
H1524 H 0.75076 0.67932 0.13858 0.0
H1525 H 0.73849 0.65043 0.12929 0.0
H1526 H 0.75345 0.6881 0.72291 0.0
H1527 H 0.74064 0.65916 0.7133 0.0
H1528 H 0.78431 0.71197 0.77891 0.0
H1529 H 0.79232 0.72551 0.87702 0.0
C1530 C 0.08023 0.33065 0.65838 0.0
C1531 C 0.09227 0.35104 0.61294 0.0
C1532 C 0.0805 0.33047 0.47675 0.0
C1533 C 0.07453 0.31051 0.52246 0.0
N1534 N 0.063 0.29041 0.65758 0.0
N1535 N 0.09813 0.37074 0.47788 0.0
C1536 C 0.07217 0.3101 0.61355 0.0
C1537 C 0.09031 0.35115 0.52174 0.0
N1538 N 0.07605 0.33119 0.74415 0.0
N1539 N 0.07601 0.3293 0.39054 0.0
H1540 H 0.10275 0.38588 0.50735 0.0
H1541 H 0.10018 0.3722 0.41139 0.0
H1542 H 0.06776 0.31414 0.35782 0.0
H1543 H 0.07827 0.34273 0.35309 0.0
H1544 H 0.06598 0.31717 0.78114 0.0
H1545 H 0.08087 0.34611 0.77654 0.0
H1546 H 0.06343 0.28926 0.72426 0.0
H1547 H 0.05526 0.27492 0.62803 0.0
C1548 C 0.69247 0.7639 0.62556 0.0
C1549 C 0.69051 0.76445 0.53459 0.0
C1550 C 0.65032 0.74926 0.547 0.0
C1551 C 0.65211 0.75008 0.63833 0.0
N1552 N 0.67341 0.75147 0.76344 0.0
N1553 N 0.66681 0.74716 0.41257 0.0
C1554 C 0.6728 0.75538 0.67746 0.0
C1555 C 0.66908 0.75343 0.49698 0.0
N1556 N 0.71289 0.77158 0.66255 0.0
N1557 N 0.63149 0.74641 0.50688 0.0
H1558 H 0.68042 0.7495 0.37556 0.0
H1559 H 0.65136 0.73743 0.38324 0.0
H1560 H 0.61766 0.74494 0.53918 0.0
H1561 H 0.63059 0.74813 0.44055 0.0
H1562 H 0.71592 0.77489 0.72803 0.0
H1563 H 0.72696 0.77457 0.62777 0.0
H1564 H 0.68743 0.75312 0.79493 0.0
H1565 H 0.65922 0.74446 0.80225 0.0
C1566 C 0.2021 0.88284 0.59305 0.0
C1567 C 0.21374 0.9049 0.56191 0.0
C1568 C 0.24799 0.90761 0.62143 0.0
C1569 C 0.23645 0.88413 0.63565 0.0
N1570 N 0.20395 0.84948 0.59633 0.0
N1571 N 0.2498 0.93748 0.534 0.0
C1572 C 0.21387 0.87172 0.61058 0.0
C1573 C 0.23735 0.91723 0.57258 0.0
N1574 N 0.17995 0.87272 0.6104 0.0
N1575 N 0.26851 0.92091 0.65669 0.0
H1576 H 0.24298 0.94481 0.49518 0.0
H1577 H 0.26717 0.94592 0.53381 0.0
H1578 H 0.2764 0.9149 0.69668 0.0
H1579 H 0.27653 0.93825 0.65384 0.0
H1580 H 0.1711 0.85672 0.63657 0.0
H1581 H 0.17195 0.88198 0.61251 0.0
H1582 H 0.18757 0.84007 0.57435 0.0
H1583 H 0.21355 0.84192 0.59101 0.0
C1584 C 0.68453 0.93632 0.11636 0.0
C1585 C 0.68351 0.93391 0.02508 0.0
C1586 C 0.6426 0.91525 0.03025 0.0
C1587 C 0.64369 0.91438 0.12137 0.0
N1588 N 0.66425 0.93297 0.24843 0.0
N1589 N 0.66281 0.93104 0.89683 0.0
C1590 C 0.66428 0.9279 0.16341 0.0
C1591 C 0.66285 0.92657 0.98256 0.0
N1592 N 0.70438 0.94553 0.15923 0.0
N1593 N 0.62257 0.90481 0.98885 0.0
H1594 H 0.67755 0.94032 0.86207 0.0
H1595 H 0.64859 0.92787 0.86267 0.0
H1596 H 0.60735 0.89835 0.02039 0.0
H1597 H 0.62096 0.90222 0.9226 0.0
H1598 H 0.70555 0.94413 0.22555 0.0
H1599 H 0.71986 0.95428 0.12983 0.0
H1600 H 0.67843 0.94439 0.28178 0.0
H1601 H 0.64946 0.92757 0.2829 0.0
C1602 C 0.08857 0.74807 0.16983 0.0
C1603 C 0.10198 0.7417 0.12233 0.0
C1604 C 0.09062 0.75205 0.98886 0.0
C1605 C 0.08144 0.76285 0.0379 0.0
N1606 N 0.07239 0.77194 0.17691 0.0
N1607 N 0.11608 0.73758 0.98574 0.0
C1608 C 0.08013 0.7607 0.1289 0.0
C1609 C 0.10275 0.74323 0.0313 0.0
N1610 N 0.08404 0.74206 0.25446 0.0
N1611 N 0.08749 0.75005 0.90173 0.0
H1612 H 0.12459 0.73039 0.01425 0.0
H1613 H 0.11963 0.74112 0.92054 0.0
H1614 H 0.07818 0.75586 0.86925 0.0
H1615 H 0.09208 0.74068 0.86328 0.0
H1616 H 0.07277 0.74446 0.29085 0.0
H1617 H 0.08984 0.73254 0.28543 0.0
H1618 H 0.07373 0.77321 0.24372 0.0
H1619 H 0.06606 0.7814 0.15002 0.0
C1620 C 0.26342 0.35103 0.01792 0.0
C1621 C 0.26112 0.35066 0.10902 0.0
C1622 C 0.24758 0.31039 0.11066 0.0
C1623 C 0.24604 0.31038 0.0194 0.0
N1624 N 0.26213 0.33059 0.88892 0.0
N1625 N 0.25966 0.33233 0.2425 0.0
C1626 C 0.25716 0.33078 0.97401 0.0
C1627 C 0.25586 0.33097 0.15567 0.0
N1628 N 0.27047 0.3703 0.97258 0.0
N1629 N 0.24109 0.29096 0.15412 0.0
H1630 H 0.26697 0.34744 0.27559 0.0
H1631 H 0.25756 0.31911 0.28091 0.0
H1632 H 0.23824 0.27637 0.12405 0.0
H1633 H 0.23886 0.28919 0.22046 0.0
H1634 H 0.26929 0.37085 0.9059 0.0
H1635 H 0.27688 0.38585 0.00103 0.0
H1636 H 0.27195 0.34489 0.85286 0.0
H1637 H 0.25841 0.31587 0.85701 0.0
C1638 C 0.89762 0.64656 0.44791 0.0
C1639 C 0.89847 0.6472 0.3564 0.0
C1640 C 0.91949 0.68805 0.36053 0.0
C1641 C 0.91891 0.68717 0.45176 0.0
N1642 N 0.91561 0.66585 0.57914 0.0
N1643 N 0.91733 0.66835 0.22908 0.0
C1644 C 0.91082 0.66646 0.49418 0.0
C1645 C 0.91172 0.66791 0.3137 0.0
N1646 N 0.88305 0.62768 0.49143 0.0
N1647 N 0.92624 0.70766 0.31811 0.0
H1648 H 0.91302 0.65391 0.19408 0.0
H1649 H 0.92845 0.68297 0.19706 0.0
H1650 H 0.93248 0.7229 0.34923 0.0
H1651 H 0.92423 0.70852 0.25196 0.0
H1652 H 0.88048 0.62746 0.55766 0.0
H1653 H 0.87172 0.6129 0.46172 0.0
H1654 H 0.91158 0.65109 0.61131 0.0
H1655 H 0.92588 0.68028 0.61407 0.0
C1656 C 0.30595 0.22378 0.35173 0.0
C1657 C 0.3061 0.22691 0.44185 0.0
C1658 C 0.34636 0.25213 0.43948 0.0
C1659 C 0.34656 0.24868 0.34897 0.0
N1660 N 0.32555 0.23773 0.21641 0.0
N1661 N 0.32422 0.25044 0.56326 0.0
C1662 C 0.32599 0.23657 0.30416 0.0
C1663 C 0.32559 0.24348 0.48237 0.0
N1664 N 0.28707 0.20799 0.31208 0.0
N1665 N 0.36556 0.26152 0.4869 0.0
H1666 H 0.30903 0.24424 0.5956 0.0
H1667 H 0.33756 0.26394 0.59347 0.0
H1668 H 0.38121 0.26608 0.46228 0.0
H1669 H 0.36565 0.26214 0.55393 0.0
H1670 H 0.28679 0.20285 0.24885 0.0
H1671 H 0.27184 0.19941 0.34387 0.0
H1672 H 0.31083 0.23072 0.18088 0.0
H1673 H 0.33974 0.24782 0.17996 0.0
C1674 C 0.77751 0.08068 0.35338 0.0
C1675 C 0.77202 0.0757 0.44152 0.0
C1676 C 0.74539 0.08914 0.43242 0.0
C1677 C 0.75178 0.09537 0.34497 0.0
N1678 N 0.76659 0.08848 0.21532 0.0
N1679 N 0.74508 0.06693 0.55397 0.0
C1680 C 0.7655 0.08833 0.30319 0.0
C1681 C 0.75396 0.07712 0.47704 0.0
N1682 N 0.79486 0.07928 0.31845 0.0
N1683 N 0.7325 0.0958 0.47549 0.0
H1684 H 0.75099 0.05778 0.58709 0.0
H1685 H 0.73049 0.06543 0.5797 0.0
H1686 H 0.7254 0.10442 0.44774 0.0
H1687 H 0.73006 0.09414 0.54188 0.0
H1688 H 0.80151 0.08564 0.25794 0.0
H1689 H 0.8033 0.0727 0.3517 0.0
H1690 H 0.77487 0.08184 0.18108 0.0
H1691 H 0.75701 0.09282 0.17666 0.0
C1692 C 0.0182 0.43906 0.38295 0.0
C1693 C 0.99947 0.4186 0.35749 0.0
C1694 C 0.01953 0.41768 0.22904 0.0
C1695 C 0.0362 0.43999 0.24526 0.0
N1696 N 0.05364 0.47107 0.34237 0.0
N1697 N 0.98896 0.38372 0.28751 0.0
C1698 C 0.03642 0.45029 0.32459 0.0
C1699 C 0.0021 0.40636 0.2898 0.0
N1700 N 0.01927 0.44676 0.46472 0.0
N1701 N 0.01999 0.40753 0.15427 0.0
H1702 H 0.97806 0.37482 0.33758 0.0
H1703 H 0.99107 0.37363 0.24332 0.0
H1704 H 0.03329 0.41482 0.11098 0.0
H1705 H 0.00678 0.39238 0.13351 0.0
H1706 H 0.03286 0.46104 0.48928 0.0
H1707 H 0.00777 0.4372 0.51208 0.0
H1708 H 0.0536 0.48101 0.39252 0.0
H1709 H 0.06797 0.47859 0.30465 0.0
C1710 C 0.58255 0.58274 0.13338 0.0
C1711 C 0.57341 0.59501 0.17189 0.0
C1712 C 0.58071 0.58523 0.31526 0.0
C1713 C 0.58751 0.57094 0.27714 0.0
N1714 N 0.60314 0.56319 0.15124 0.0
N1715 N 0.5762 0.61739 0.29581 0.0
C1716 C 0.5911 0.57193 0.18657 0.0
C1717 C 0.57625 0.59925 0.26183 0.0
N1718 N 0.58327 0.58161 0.04571 0.0
N1719 N 0.57866 0.58562 0.40268 0.0
H1720 H 0.57665 0.62999 0.25777 0.0
H1721 H 0.57951 0.62192 0.36035 0.0
H1722 H 0.58411 0.57762 0.44494 0.0
H1723 H 0.57073 0.59321 0.43288 0.0
H1724 H 0.58605 0.57008 0.01316 0.0
H1725 H 0.58096 0.59233 0.00532 0.0
H1726 H 0.60822 0.56542 0.08717 0.0
H1727 H 0.61001 0.55543 0.1869 0.0
C1728 C 0.42888 0.01489 0.12897 0.0
C1729 C 0.41752 0.99441 0.17501 0.0
C1730 C 0.4223 0.01542 0.3073 0.0
C1731 C 0.43812 0.03513 0.26558 0.0
N1732 N 0.45675 0.05408 0.13494 0.0
N1733 N 0.40721 0.97587 0.31463 0.0
C1734 C 0.44129 0.03514 0.1755 0.0
C1735 C 0.41478 0.99474 0.26585 0.0
N1736 N 0.42735 0.01511 0.04132 0.0
N1737 N 0.41515 0.0165 0.38818 0.0
H1738 H 0.40413 0.9606 0.2906 0.0
H1739 H 0.407 0.97607 0.38172 0.0
H1740 H 0.4205 0.03166 0.4196 0.0
H1741 H 0.40222 0.00275 0.41915 0.0
H1742 H 0.43382 0.02974 0.00537 0.0
H1743 H 0.41747 0.00077 0.0055 0.0
H1744 H 0.46185 0.0543 0.07163 0.0
H1745 H 0.46519 0.06938 0.16612 0.0
C1746 C 0.57302 0.99031 0.86851 0.0
C1747 C 0.58287 0.01075 0.82198 0.0
C1748 C 0.57679 0.98988 0.68843 0.0
C1749 C 0.56229 0.96995 0.7321 0.0
N1750 N 0.5466 0.95066 0.8655 0.0
N1751 N 0.5902 0.02916 0.68235 0.0
C1752 C 0.56062 0.96988 0.82298 0.0
C1753 C 0.58415 0.01045 0.73049 0.0
N1754 N 0.57599 0.99033 0.95547 0.0
N1755 N 0.58281 0.98908 0.60533 0.0
H1756 H 0.59315 0.04426 0.70784 0.0
H1757 H 0.58927 0.0289 0.61534 0.0
H1758 H 0.57758 0.974 0.57346 0.0
H1759 H 0.59481 0.00308 0.57238 0.0
H1760 H 0.57073 0.97583 0.99131 0.0
H1761 H 0.58587 0.00486 0.99025 0.0
H1762 H 0.54248 0.9502 0.9303 0.0
H1763 H 0.5384 0.93528 0.83476 0.0
C1764 C 0.01166 0.57969 0.76759 0.0
C1765 C 0.01069 0.58022 0.67608 0.0
C1766 C 0.96978 0.55893 0.68396 0.0
C1767 C 0.97116 0.55962 0.77508 0.0
N1768 N 0.99289 0.57828 0.90042 0.0
N1769 N 0.98842 0.57608 0.54997 0.0
C1770 C 0.99197 0.57283 0.81543 0.0
C1771 C 0.9896 0.57163 0.63491 0.0
N1772 N 0.03062 0.58355 0.80961 0.0
N1773 N 0.94995 0.54553 0.64402 0.0
H1774 H 0.00249 0.58628 0.51315 0.0
H1775 H 0.97344 0.57172 0.51899 0.0
H1776 H 0.935 0.53667 0.67743 0.0
H1777 H 0.94865 0.5423 0.57812 0.0
H1778 H 0.03105 0.58131 0.87584 0.0
H1779 H 0.04494 0.58584 0.77877 0.0
H1780 H 0.00775 0.58932 0.93116 0.0
H1781 H 0.97854 0.57374 0.93673 0.0
C1782 C 0.41339 0.43793 0.80289 0.0
C1783 C 0.41049 0.43314 0.7134 0.0
C1784 C 0.41832 0.40255 0.73506 0.0
C1785 C 0.42565 0.41046 0.8198 0.0
N1786 N 0.41981 0.42735 0.94462 0.0
N1787 N 0.40836 0.40994 0.59399 0.0
C1788 C 0.41997 0.42564 0.85698 0.0
C1789 C 0.41218 0.41497 0.67964 0.0
N1790 N 0.41135 0.45516 0.8352 0.0
N1791 N 0.41568 0.38251 0.70954 0.0
H1792 H 0.40186 0.41727 0.55322 0.0
H1793 H 0.41248 0.39921 0.56251 0.0
H1794 H 0.41662 0.37141 0.75215 0.0
H1795 H 0.40919 0.37525 0.65011 0.0
H1796 H 0.41635 0.46159 0.89688 0.0
H1797 H 0.40555 0.4638 0.79871 0.0
H1798 H 0.41413 0.43671 0.97708 0.0
H1799 H 0.42292 0.41718 0.98524 0.0
loop_
_geom_bond_atom_site_label_1
_geom_bond_atom_site_label_2
_geom_bond_distance
_geom_bond_site_symmetry_2
_ccdc_geom_bond_type
Co0 O1 2.216 . S
Co0 O2 2.091 . S
Co0 O4 2.004 1_554 S
Co0 O10 2.021 . S
Co0 O12 2.137 1_554 S
Co0 O13 2.244 . S
O1 Co0 2.216 . S
O1 C8 1.247 . S
O2 Co0 2.091 . S
O2 C8 1.261 . S
C3 O12 1.247 . S
C3 O13 1.272 1_556 S
O4 Co0 2.004 1_556 S
O4 C9 1.259 . S
Co5 O6 2.061 1_554 S
Co5 O11 2.052 . S
Co5 O13 2.135 . S
O6 Co5 2.061 1_556 S
O6 C9 1.235 . S
C7 O10 1.238 . S
C7 O11 1.241 . S
C8 O1 1.247 . S
C8 O2 1.261 . S
C9 O4 1.259 . S
C9 O6 1.235 . S
O10 Co0 2.021 . S
O10 C7 1.238 . S
O11 Co5 2.052 . S
O11 C7 1.241 . S
O12 Co0 2.137 1_556 S
O12 C3 1.247 . S
O13 Co0 2.244 . S
O13 C3 1.272 1_554 S
O13 Co5 2.135 . S
Co14 O15 2.216 . S
Co14 O16 2.091 . S
Co14 O18 2.004 1_554 S
Co14 O24 2.021 . S
Co14 O26 2.137 1_554 S
Co14 O27 2.244 . S
O15 Co14 2.216 . S
O15 C22 1.247 . S
O16 Co14 2.091 . S
O16 C22 1.261 . S
C17 O26 1.247 . S
C17 O27 1.272 1_556 S
O18 Co14 2.004 1_556 S
O18 C23 1.259 . S
Co19 O20 2.061 1_554 S
Co19 O25 2.052 . S
Co19 O27 2.135 . S
O20 Co19 2.061 1_556 S
O20 C23 1.235 . S
C21 O24 1.238 . S
C21 O25 1.241 . S
C22 O15 1.247 . S
C22 O16 1.261 . S
C23 O18 1.259 . S
C23 O20 1.235 . S
O24 Co14 2.021 . S
O24 C21 1.238 . S
O25 Co19 2.052 . S
O25 C21 1.241 . S
O26 Co14 2.137 1_556 S
O26 C17 1.247 . S
O27 Co14 2.244 . S
O27 C17 1.272 1_554 S
O27 Co19 2.135 . S
Co28 O29 2.216 . S
Co28 O30 2.091 . S
Co28 O32 2.004 1_554 S
Co28 O38 2.021 . S
Co28 O40 2.137 1_554 S
Co28 O41 2.244 . S
O29 Co28 2.216 . S
O29 C36 1.247 . S
O30 Co28 2.091 . S
O30 C36 1.261 . S
C31 O40 1.247 . S
C31 O41 1.272 1_556 S
O32 Co28 2.004 1_556 S
O32 C37 1.259 . S
Co33 O34 2.061 1_554 S
Co33 O39 2.052 . S
Co33 O41 2.135 . S
O34 Co33 2.061 1_556 S
O34 C37 1.235 . S
C35 O38 1.238 . S
C35 O39 1.241 . S
C36 O29 1.247 . S
C36 O30 1.261 . S
C37 O32 1.259 . S
C37 O34 1.235 . S
O38 Co28 2.021 . S
O38 C35 1.238 . S
O39 Co33 2.052 . S
O39 C35 1.241 . S
O40 Co28 2.137 1_556 S
O40 C31 1.247 . S
O41 Co28 2.244 . S
O41 C31 1.272 1_554 S
O41 Co33 2.135 . S
Co42 O43 2.216 . S
Co42 O44 2.091 . S
Co42 O46 2.004 . S
Co42 O52 2.021 . S
Co42 O54 2.137 . S
Co42 O55 2.244 . S
O43 Co42 2.216 . S
O43 C50 1.247 . S
O44 Co42 2.091 . S
O44 C50 1.261 . S
C45 O54 1.247 . S
C45 O55 1.272 . S
O46 Co42 2.004 . S
O46 C51 1.259 . S
Co47 O48 2.061 . S
Co47 O53 2.052 . S
Co47 O55 2.135 . S
O48 Co47 2.061 . S
O48 C51 1.235 . S
C49 O52 1.238 . S
C49 O53 1.241 . S
C50 O43 1.247 . S
C50 O44 1.261 . S
C51 O46 1.259 . S
C51 O48 1.235 . S
O52 Co42 2.021 . S
O52 C49 1.238 . S
O53 Co47 2.052 . S
O53 C49 1.241 . S
O54 Co42 2.137 . S
O54 C45 1.247 . S
O55 Co42 2.244 . S
O55 C45 1.272 . S
O55 Co47 2.135 . S
Co56 O57 2.216 . S
Co56 O58 2.091 . S
Co56 O60 2.004 . S
Co56 O66 2.021 . S
Co56 O68 2.137 . S
Co56 O69 2.244 . S
O57 Co56 2.216 . S
O57 C64 1.247 . S
O58 Co56 2.091 . S
O58 C64 1.261 . S
C59 O68 1.247 . S
C59 O69 1.272 . S
O60 Co56 2.004 . S
O60 C65 1.259 . S
Co61 O62 2.061 . S
Co61 O67 2.052 . S
Co61 O69 2.135 . S
O62 Co61 2.061 . S
O62 C65 1.235 . S
C63 O66 1.238 . S
C63 O67 1.241 . S
C64 O57 1.247 . S
C64 O58 1.261 . S
C65 O60 1.259 . S
C65 O62 1.235 . S
O66 Co56 2.021 . S
O66 C63 1.238 . S
O67 Co61 2.052 . S
O67 C63 1.241 . S
O68 Co56 2.137 . S
O68 C59 1.247 . S
O69 Co56 2.244 . S
O69 C59 1.272 . S
O69 Co61 2.135 . S
Co70 O71 2.216 . S
Co70 O72 2.091 . S
Co70 O74 2.004 . S
Co70 O80 2.021 . S
Co70 O82 2.137 . S
Co70 O83 2.244 . S
O71 Co70 2.216 . S
O71 C78 1.247 . S
O72 Co70 2.091 . S
O72 C78 1.261 . S
C73 O82 1.247 . S
C73 O83 1.272 . S
O74 Co70 2.004 . S
O74 C79 1.259 . S
Co75 O76 2.061 . S
Co75 O81 2.052 . S
Co75 O83 2.135 . S
O76 Co75 2.061 . S
O76 C79 1.235 . S
C77 O80 1.238 . S
C77 O81 1.241 . S
C78 O71 1.247 . S
C78 O72 1.261 . S
C79 O74 1.259 . S
C79 O76 1.235 . S
O80 Co70 2.021 . S
O80 C77 1.238 . S
O81 Co75 2.052 . S
O81 C77 1.241 . S
O82 Co70 2.137 . S
O82 C73 1.247 . S
O83 Co70 2.244 . S
O83 C73 1.272 . S
O83 Co75 2.135 . S
Co84 O85 2.216 . S
Co84 O86 2.091 . S
Co84 O88 2.004 1_556 S
Co84 O94 2.021 . S
Co84 O96 2.137 1_556 S
Co84 O97 2.244 . S
O85 Co84 2.216 . S
O85 C92 1.247 . S
O86 Co84 2.091 . S
O86 C92 1.261 . S
C87 O96 1.247 . S
C87 O97 1.272 1_554 S
O88 Co84 2.004 1_554 S
O88 C93 1.259 . S
Co89 O90 2.061 1_556 S
Co89 O95 2.052 . S
Co89 O97 2.135 . S
O90 Co89 2.061 1_554 S
O90 C93 1.235 . S
C91 O94 1.238 . S
C91 O95 1.241 . S
C92 O85 1.247 . S
C92 O86 1.261 . S
C93 O88 1.259 . S
C93 O90 1.235 . S
O94 Co84 2.021 . S
O94 C91 1.238 . S
O95 Co89 2.052 . S
O95 C91 1.241 . S
O96 Co84 2.137 1_554 S
O96 C87 1.247 . S
O97 Co84 2.244 . S
O97 C87 1.272 1_556 S
O97 Co89 2.135 . S
Co98 O99 2.216 . S
Co98 O100 2.091 . S
Co98 O102 2.004 1_556 S
Co98 O108 2.021 . S
Co98 O110 2.137 1_556 S
Co98 O111 2.244 . S
O99 Co98 2.216 . S
O99 C106 1.247 . S
O100 Co98 2.091 . S
O100 C106 1.261 . S
C101 O110 1.247 . S
C101 O111 1.272 1_554 S
O102 Co98 2.004 1_554 S
O102 C107 1.259 . S
Co103 O104 2.061 1_556 S
Co103 O109 2.052 . S
Co103 O111 2.135 . S
O104 Co103 2.061 1_554 S
O104 C107 1.235 . S
C105 O108 1.238 . S
C105 O109 1.241 . S
C106 O99 1.247 . S
C106 O100 1.261 . S
C107 O102 1.259 . S
C107 O104 1.235 . S
O108 Co98 2.021 . S
O108 C105 1.238 . S
O109 Co103 2.052 . S
O109 C105 1.241 . S
O110 Co98 2.137 1_554 S
O110 C101 1.247 . S
O111 Co98 2.244 . S
O111 C101 1.272 1_556 S
O111 Co103 2.135 . S
Co112 O113 2.216 . S
Co112 O114 2.091 . S
Co112 O116 2.004 1_556 S
Co112 O122 2.021 . S
Co112 O124 2.137 1_556 S
Co112 O125 2.244 . S
O113 Co112 2.216 . S
O113 C120 1.247 . S
O114 Co112 2.091 . S
O114 C120 1.261 . S
C115 O124 1.247 . S
C115 O125 1.272 1_554 S
O116 Co112 2.004 1_554 S
O116 C121 1.259 . S
Co117 O118 2.061 1_556 S
Co117 O123 2.052 . S
Co117 O125 2.135 . S
O118 Co117 2.061 1_554 S
O118 C121 1.235 . S
C119 O122 1.238 . S
C119 O123 1.241 . S
C120 O113 1.247 . S
C120 O114 1.261 . S
C121 O116 1.259 . S
C121 O118 1.235 . S
O122 Co112 2.021 . S
O122 C119 1.238 . S
O123 Co117 2.052 . S
O123 C119 1.241 . S
O124 Co112 2.137 1_554 S
O124 C115 1.247 . S
O125 Co112 2.244 . S
O125 C115 1.272 1_556 S
O125 Co117 2.135 . S
Co126 O127 2.216 . S
Co126 O128 2.091 . S
Co126 O130 2.004 . S
Co126 O136 2.021 . S
Co126 O138 2.137 . S
Co126 O139 2.244 . S
O127 Co126 2.216 . S
O127 C134 1.247 . S
O128 Co126 2.091 . S
O128 C134 1.261 . S
C129 O138 1.247 . S
C129 O139 1.272 . S
O130 Co126 2.004 . S
O130 C135 1.259 . S
Co131 O132 2.061 . S
Co131 O137 2.052 . S
Co131 O139 2.135 . S
O132 Co131 2.061 . S
O132 C135 1.235 . S
C133 O136 1.238 . S
C133 O137 1.241 . S
C134 O127 1.247 . S
C134 O128 1.261 . S
C135 O130 1.259 . S
C135 O132 1.235 . S
O136 Co126 2.021 . S
O136 C133 1.238 . S
O137 Co131 2.052 . S
O137 C133 1.241 . S
O138 Co126 2.137 . S
O138 C129 1.247 . S
O139 Co126 2.244 . S
O139 C129 1.272 . S
O139 Co131 2.135 . S
Co140 O141 2.216 . S
Co140 O142 2.091 . S
Co140 O144 2.004 . S
Co140 O150 2.021 . S
Co140 O152 2.137 . S
Co140 O153 2.244 . S
O141 Co140 2.216 . S
O141 C148 1.247 . S
O142 Co140 2.091 . S
O142 C148 1.261 . S
C143 O152 1.247 . S
C143 O153 1.272 . S
O144 Co140 2.004 . S
O144 C149 1.259 . S
Co145 O146 2.061 . S
Co145 O151 2.052 . S
Co145 O153 2.135 . S
O146 Co145 2.061 . S
O146 C149 1.235 . S
C147 O150 1.238 . S
C147 O151 1.241 . S
C148 O141 1.247 . S
C148 O142 1.261 . S
C149 O144 1.259 . S
C149 O146 1.235 . S
O150 Co140 2.021 . S
O150 C147 1.238 . S
O151 Co145 2.052 . S
O151 C147 1.241 . S
O152 Co140 2.137 . S
O152 C143 1.247 . S
O153 Co140 2.244 . S
O153 C143 1.272 . S
O153 Co145 2.135 . S
Co154 O155 2.216 . S
Co154 O156 2.091 . S
Co154 O158 2.004 . S
Co154 O164 2.021 . S
Co154 O166 2.137 . S
Co154 O167 2.244 . S
O155 Co154 2.216 . S
O155 C162 1.247 . S
O156 Co154 2.091 . S
O156 C162 1.261 . S
C157 O166 1.247 . S
C157 O167 1.272 . S
O158 Co154 2.004 . S
O158 C163 1.259 . S
Co159 O160 2.061 . S
Co159 O165 2.052 . S
Co159 O167 2.135 . S
O160 Co159 2.061 . S
O160 C163 1.235 . S
C161 O164 1.238 . S
C161 O165 1.241 . S
C162 O155 1.247 . S
C162 O156 1.261 . S
C163 O158 1.259 . S
C163 O160 1.235 . S
O164 Co154 2.021 . S
O164 C161 1.238 . S
O165 Co159 2.052 . S
O165 C161 1.241 . S
O166 Co154 2.137 . S
O166 C157 1.247 . S
O167 Co154 2.244 . S
O167 C157 1.272 . S
O167 Co159 2.135 . S
Co168 O169 2.216 . S
Co168 O170 2.091 . S
Co168 O172 2.004 . S
Co168 O178 2.021 . S
Co168 O180 2.137 . S
Co168 O181 2.244 . S
O169 Co168 2.216 . S
O169 C176 1.247 . S
O170 Co168 2.091 . S
O170 C176 1.261 . S
C171 O180 1.247 . S
C171 O181 1.272 . S
O172 Co168 2.004 . S
O172 C177 1.259 . S
Co173 O174 2.061 . S
Co173 O179 2.052 . S
Co173 O181 2.135 . S
O174 Co173 2.061 . S
O174 C177 1.235 . S
C175 O178 1.238 . S
C175 O179 1.241 . S
C176 O169 1.247 . S
C176 O170 1.261 . S
C177 O172 1.259 . S
C177 O174 1.235 . S
O178 Co168 2.021 . S
O178 C175 1.238 . S
O179 Co173 2.052 . S
O179 C175 1.241 . S
O180 Co168 2.137 . S
O180 C171 1.247 . S
O181 Co168 2.244 . S
O181 C171 1.272 . S
O181 Co173 2.135 . S
Co182 O183 2.216 . S
Co182 O184 2.091 . S
Co182 O186 2.004 . S
Co182 O192 2.021 . S
Co182 O194 2.137 . S
Co182 O195 2.244 . S
O183 Co182 2.216 . S
O183 C190 1.247 . S
O184 Co182 2.091 . S
O184 C190 1.261 . S
C185 O194 1.247 . S
C185 O195 1.272 . S
O186 Co182 2.004 . S
O186 C191 1.259 . S
Co187 O188 2.061 . S
Co187 O193 2.052 . S
Co187 O195 2.135 . S
O188 Co187 2.061 . S
O188 C191 1.235 . S
C189 O192 1.238 . S
C189 O193 1.241 . S
C190 O183 1.247 . S
C190 O184 1.261 . S
C191 O186 1.259 . S
C191 O188 1.235 . S
O192 Co182 2.021 . S
O192 C189 1.238 . S
O193 Co187 2.052 . S
O193 C189 1.241 . S
O194 Co182 2.137 . S
O194 C185 1.247 . S
O195 Co182 2.244 . S
O195 C185 1.272 . S
O195 Co187 2.135 . S
Co196 O197 2.216 . S
Co196 O198 2.091 . S
Co196 O200 2.004 . S
Co196 O206 2.021 . S
Co196 O208 2.137 . S
Co196 O209 2.244 . S
O197 Co196 2.216 . S
O197 C204 1.247 . S
O198 Co196 2.091 . S
O198 C204 1.261 . S
C199 O208 1.247 . S
C199 O209 1.272 . S
O200 Co196 2.004 . S
O200 C205 1.259 . S
Co201 O202 2.061 . S
Co201 O207 2.052 . S
Co201 O209 2.135 . S
O202 Co201 2.061 . S
O202 C205 1.235 . S
C203 O206 1.238 . S
C203 O207 1.241 . S
C204 O197 1.247 . S
C204 O198 1.261 . S
C205 O200 1.259 . S
C205 O202 1.235 . S
O206 Co196 2.021 . S
O206 C203 1.238 . S
O207 Co201 2.052 . S
O207 C203 1.241 . S
O208 Co196 2.137 . S
O208 C199 1.247 . S
O209 Co196 2.244 . S
O209 C199 1.272 . S
O209 Co201 2.135 . S
Co210 O211 2.216 . S
Co210 O212 2.091 . S
Co210 O214 2.004 . S
Co210 O220 2.021 . S
Co210 O222 2.137 . S
Co210 O223 2.244 . S
O211 Co210 2.216 . S
O211 C218 1.247 . S
O212 Co210 2.091 . S
O212 C218 1.261 . S
C213 O222 1.247 . S
C213 O223 1.272 . S
O214 Co210 2.004 . S
O214 C219 1.259 . S
Co215 O216 2.061 . S
Co215 O221 2.052 . S
Co215 O223 2.135 . S
O216 Co215 2.061 . S
O216 C219 1.235 . S
C217 O220 1.238 . S
C217 O221 1.241 . S
C218 O211 1.247 . S
C218 O212 1.261 . S
C219 O214 1.259 . S
C219 O216 1.235 . S
O220 Co210 2.021 . S
O220 C217 1.238 . S
O221 Co215 2.052 . S
O221 C217 1.241 . S
O222 Co210 2.137 . S
O222 C213 1.247 . S
O223 Co210 2.244 . S
O223 C213 1.272 . S
O223 Co215 2.135 . S
Co224 O225 2.216 . S
Co224 O226 2.091 . S
Co224 O228 2.004 . S
Co224 O234 2.021 . S
Co224 O236 2.137 . S
Co224 O237 2.244 . S
O225 Co224 2.216 . S
O225 C232 1.247 . S
O226 Co224 2.091 . S
O226 C232 1.261 . S
C227 O236 1.247 . S
C227 O237 1.272 . S
O228 Co224 2.004 . S
O228 C233 1.259 . S
Co229 O230 2.061 . S
Co229 O235 2.052 . S
Co229 O237 2.135 . S
O230 Co229 2.061 . S
O230 C233 1.235 . S
C231 O234 1.238 . S
C231 O235 1.241 . S
C232 O225 1.247 . S
C232 O226 1.261 . S
C233 O228 1.259 . S
C233 O230 1.235 . S
O234 Co224 2.021 . S
O234 C231 1.238 . S
O235 Co229 2.052 . S
O235 C231 1.241 . S
O236 Co224 2.137 . S
O236 C227 1.247 . S
O237 Co224 2.244 . S
O237 C227 1.272 . S
O237 Co229 2.135 . S
Co238 O239 2.216 . S
Co238 O240 2.091 . S
Co238 O242 2.004 . S
Co238 O248 2.021 . S
Co238 O250 2.137 . S
Co238 O251 2.244 . S
O239 Co238 2.216 . S
O239 C246 1.247 . S
O240 Co238 2.091 . S
O240 C246 1.261 . S
C241 O250 1.247 . S
C241 O251 1.272 . S
O242 Co238 2.004 . S
O242 C247 1.259 . S
Co243 O244 2.061 . S
Co243 O249 2.052 . S
Co243 O251 2.135 . S
O244 Co243 2.061 . S
O244 C247 1.235 . S
C245 O248 1.238 . S
C245 O249 1.241 . S
C246 O239 1.247 . S
C246 O240 1.261 . S
C247 O242 1.259 . S
C247 O244 1.235 . S
O248 Co238 2.021 . S
O248 C245 1.238 . S
O249 Co243 2.052 . S
O249 C245 1.241 . S
O250 Co238 2.137 . S
O250 C241 1.247 . S
O251 Co238 2.244 . S
O251 C241 1.272 . S
O251 Co243 2.135 . S
Co252 O253 2.216 . S
Co252 O254 2.091 . S
Co252 O256 2.004 . S
Co252 O262 2.021 . S
Co252 O264 2.137 . S
Co252 O265 2.244 . S
O253 Co252 2.216 . S
O253 C260 1.247 . S
O254 Co252 2.091 . S
O254 C260 1.261 . S
C255 O264 1.247 . S
C255 O265 1.272 . S
O256 Co252 2.004 . S
O256 C261 1.259 . S
Co257 O258 2.061 . S
Co257 O263 2.052 . S
Co257 O265 2.135 . S
O258 Co257 2.061 . S
O258 C261 1.235 . S
C259 O262 1.238 . S
C259 O263 1.241 . S
C260 O253 1.247 . S
C260 O254 1.261 . S
C261 O256 1.259 . S
C261 O258 1.235 . S
O262 Co252 2.021 . S
O262 C259 1.238 . S
O263 Co257 2.052 . S
O263 C259 1.241 . S
O264 Co252 2.137 . S
O264 C255 1.247 . S
O265 Co252 2.244 . S
O265 C255 1.272 . S
O265 Co257 2.135 . S
Co266 O267 2.216 . S
Co266 O268 2.091 . S
Co266 O270 2.004 . S
Co266 O276 2.021 . S
Co266 O278 2.137 . S
Co266 O279 2.244 . S
O267 Co266 2.216 . S
O267 C274 1.247 . S
O268 Co266 2.091 . S
O268 C274 1.261 . S
C269 O278 1.247 . S
C269 O279 1.272 . S
O270 Co266 2.004 . S
O270 C275 1.259 . S
Co271 O272 2.061 . S
Co271 O277 2.052 . S
Co271 O279 2.135 . S
O272 Co271 2.061 . S
O272 C275 1.235 . S
C273 O276 1.238 . S
C273 O277 1.241 . S
C274 O267 1.247 . S
C274 O268 1.261 . S
C275 O270 1.259 . S
C275 O272 1.235 . S
O276 Co266 2.021 . S
O276 C273 1.238 . S
O277 Co271 2.052 . S
O277 C273 1.241 . S
O278 Co266 2.137 . S
O278 C269 1.247 . S
O279 Co266 2.244 . S
O279 C269 1.272 . S
O279 Co271 2.135 . S
Co280 O281 2.216 . S
Co280 O282 2.091 . S
Co280 O284 2.004 . S
Co280 O290 2.021 . S
Co280 O292 2.137 . S
Co280 O293 2.244 . S
O281 Co280 2.216 . S
O281 C288 1.247 . S
O282 Co280 2.091 . S
O282 C288 1.261 . S
C283 O292 1.247 . S
C283 O293 1.272 . S
O284 Co280 2.004 . S
O284 C289 1.259 . S
Co285 O286 2.061 . S
Co285 O291 2.052 . S
Co285 O293 2.135 . S
O286 Co285 2.061 . S
O286 C289 1.235 . S
C287 O290 1.238 . S
C287 O291 1.241 . S
C288 O281 1.247 . S
C288 O282 1.261 . S
C289 O284 1.259 . S
C289 O286 1.235 . S
O290 Co280 2.021 . S
O290 C287 1.238 . S
O291 Co285 2.052 . S
O291 C287 1.241 . S
O292 Co280 2.137 . S
O292 C283 1.247 . S
O293 Co280 2.244 . S
O293 C283 1.272 . S
O293 Co285 2.135 . S
Co294 O295 2.216 . S
Co294 O296 2.091 . S
Co294 O298 2.004 . S
Co294 O304 2.021 . S
Co294 O306 2.137 . S
Co294 O307 2.244 . S
O295 Co294 2.216 . S
O295 C302 1.247 . S
O296 Co294 2.091 . S
O296 C302 1.261 . S
C297 O306 1.247 . S
C297 O307 1.272 . S
O298 Co294 2.004 . S
O298 C303 1.259 . S
Co299 O300 2.061 . S
Co299 O305 2.052 . S
Co299 O307 2.135 . S
O300 Co299 2.061 . S
O300 C303 1.235 . S
C301 O304 1.238 1_554 S
C301 O305 1.241 1_554 S
C302 O295 1.247 . S
C302 O296 1.261 . S
C303 O298 1.259 . S
C303 O300 1.235 . S
O304 Co294 2.021 . S
O304 C301 1.238 1_556 S
O305 Co299 2.052 . S
O305 C301 1.241 1_556 S
O306 Co294 2.137 . S
O306 C297 1.247 . S
O307 Co294 2.244 . S
O307 C297 1.272 . S
O307 Co299 2.135 . S
Co308 O309 2.216 . S
Co308 O310 2.091 . S
Co308 O312 2.004 . S
Co308 O318 2.021 . S
Co308 O320 2.137 . S
Co308 O321 2.244 . S
O309 Co308 2.216 . S
O309 C316 1.247 . S
O310 Co308 2.091 . S
O310 C316 1.261 . S
C311 O320 1.247 . S
C311 O321 1.272 . S
O312 Co308 2.004 . S
O312 C317 1.259 . S
Co313 O314 2.061 . S
Co313 O319 2.052 . S
Co313 O321 2.135 . S
O314 Co313 2.061 . S
O314 C317 1.235 . S
C315 O318 1.238 1_554 S
C315 O319 1.241 1_554 S
C316 O309 1.247 . S
C316 O310 1.261 . S
C317 O312 1.259 . S
C317 O314 1.235 . S
O318 Co308 2.021 . S
O318 C315 1.238 1_556 S
O319 Co313 2.052 . S
O319 C315 1.241 1_556 S
O320 Co308 2.137 . S
O320 C311 1.247 . S
O321 Co308 2.244 . S
O321 C311 1.272 . S
O321 Co313 2.135 . S
Co322 O323 2.216 . S
Co322 O324 2.091 . S
Co322 O326 2.004 . S
Co322 O332 2.021 . S
Co322 O334 2.137 . S
Co322 O335 2.244 . S
O323 Co322 2.216 . S
O323 C330 1.247 . S
O324 Co322 2.091 . S
O324 C330 1.261 . S
C325 O334 1.247 . S
C325 O335 1.272 . S
O326 Co322 2.004 . S
O326 C331 1.259 . S
Co327 O328 2.061 . S
Co327 O333 2.052 . S
Co327 O335 2.135 . S
O328 Co327 2.061 . S
O328 C331 1.235 . S
C329 O332 1.238 1_554 S
C329 O333 1.241 1_554 S
C330 O323 1.247 . S
C330 O324 1.261 . S
C331 O326 1.259 . S
C331 O328 1.235 . S
O332 Co322 2.021 . S
O332 C329 1.238 1_556 S
O333 Co327 2.052 . S
O333 C329 1.241 1_556 S
O334 Co322 2.137 . S
O334 C325 1.247 . S
O335 Co322 2.244 . S
O335 C325 1.272 . S
O335 Co327 2.135 . S
Co336 O337 2.216 . S
Co336 O338 2.091 . S
Co336 O340 2.004 . S
Co336 O346 2.021 . S
Co336 O348 2.137 . S
Co336 O349 2.244 . S
O337 Co336 2.216 . S
O337 C344 1.247 . S
O338 Co336 2.091 . S
O338 C344 1.261 . S
C339 O348 1.247 . S
C339 O349 1.272 . S
O340 Co336 2.004 . S
O340 C345 1.259 . S
Co341 O342 2.061 . S
Co341 O347 2.052 . S
Co341 O349 2.135 . S
O342 Co341 2.061 . S
O342 C345 1.235 . S
C343 O346 1.238 . S
C343 O347 1.241 . S
C344 O337 1.247 . S
C344 O338 1.261 . S
C345 O340 1.259 . S
C345 O342 1.235 . S
O346 Co336 2.021 . S
O346 C343 1.238 . S
O347 Co341 2.052 . S
O347 C343 1.241 . S
O348 Co336 2.137 . S
O348 C339 1.247 . S
O349 Co336 2.244 . S
O349 C339 1.272 . S
O349 Co341 2.135 . S
Co350 O351 2.216 . S
Co350 O352 2.091 . S
Co350 O354 2.004 . S
Co350 O360 2.021 . S
Co350 O362 2.137 . S
Co350 O363 2.244 . S
O351 Co350 2.216 . S
O351 C358 1.247 . S
O352 Co350 2.091 . S
O352 C358 1.261 . S
C353 O362 1.247 . S
C353 O363 1.272 . S
O354 Co350 2.004 . S
O354 C359 1.259 . S
Co355 O356 2.061 . S
Co355 O361 2.052 . S
Co355 O363 2.135 . S
O356 Co355 2.061 . S
O356 C359 1.235 . S
C357 O360 1.238 . S
C357 O361 1.241 . S
C358 O351 1.247 . S
C358 O352 1.261 . S
C359 O354 1.259 . S
C359 O356 1.235 . S
O360 Co350 2.021 . S
O360 C357 1.238 . S
O361 Co355 2.052 . S
O361 C357 1.241 . S
O362 Co350 2.137 . S
O362 C353 1.247 . S
O363 Co350 2.244 . S
O363 C353 1.272 . S
O363 Co355 2.135 . S
Co364 O365 2.216 . S
Co364 O366 2.091 . S
Co364 O368 2.004 . S
Co364 O374 2.021 . S
Co364 O376 2.137 . S
Co364 O377 2.244 . S
O365 Co364 2.216 . S
O365 C372 1.247 . S
O366 Co364 2.091 . S
O366 C372 1.261 . S
C367 O376 1.247 . S
C367 O377 1.272 . S
O368 Co364 2.004 . S
O368 C373 1.259 . S
Co369 O370 2.061 . S
Co369 O375 2.052 . S
Co369 O377 2.135 . S
O370 Co369 2.061 . S
O370 C373 1.235 . S
C371 O374 1.238 . S
C371 O375 1.241 . S
C372 O365 1.247 . S
C372 O366 1.261 . S
C373 O368 1.259 . S
C373 O370 1.235 . S
O374 Co364 2.021 . S
O374 C371 1.238 . S
O375 Co369 2.052 . S
O375 C371 1.241 . S
O376 Co364 2.137 . S
O376 C367 1.247 . S
O377 Co364 2.244 . S
O377 C367 1.272 . S
O377 Co369 2.135 . S
Co378 O379 2.216 . S
Co378 O380 2.091 . S
Co378 O382 2.004 . S
Co378 O388 2.021 . S
Co378 O390 2.137 . S
Co378 O391 2.244 . S
O379 Co378 2.216 . S
O379 C386 1.247 . S
O380 Co378 2.091 . S
O380 C386 1.261 . S
C381 O390 1.247 . S
C381 O391 1.272 . S
O382 Co378 2.004 . S
O382 C387 1.259 . S
Co383 O384 2.061 . S
Co383 O389 2.052 . S
Co383 O391 2.135 . S
O384 Co383 2.061 . S
O384 C387 1.235 . S
C385 O388 1.238 1_556 S
C385 O389 1.241 1_556 S
C386 O379 1.247 . S
C386 O380 1.261 . S
C387 O382 1.259 . S
C387 O384 1.235 . S
O388 Co378 2.021 . S
O388 C385 1.238 1_554 S
O389 Co383 2.052 . S
O389 C385 1.241 1_554 S
O390 Co378 2.137 . S
O390 C381 1.247 . S
O391 Co378 2.244 . S
O391 C381 1.272 . S
O391 Co383 2.135 . S
Co392 O393 2.216 . S
Co392 O394 2.091 . S
Co392 O396 2.004 . S
Co392 O402 2.021 . S
Co392 O404 2.137 . S
Co392 O405 2.244 . S
O393 Co392 2.216 . S
O393 C400 1.247 . S
O394 Co392 2.091 . S
O394 C400 1.261 . S
C395 O404 1.247 . S
C395 O405 1.272 . S
O396 Co392 2.004 . S
O396 C401 1.259 . S
Co397 O398 2.061 . S
Co397 O403 2.052 . S
Co397 O405 2.135 . S
O398 Co397 2.061 . S
O398 C401 1.235 . S
C399 O402 1.238 1_556 S
C399 O403 1.241 1_556 S
C400 O393 1.247 . S
C400 O394 1.261 . S
C401 O396 1.259 . S
C401 O398 1.235 . S
O402 Co392 2.021 . S
O402 C399 1.238 1_554 S
O403 Co397 2.052 . S
O403 C399 1.241 1_554 S
O404 Co392 2.137 . S
O404 C395 1.247 . S
O405 Co392 2.244 . S
O405 C395 1.272 . S
O405 Co397 2.135 . S
Co406 O407 2.216 . S
Co406 O408 2.091 . S
Co406 O410 2.004 . S
Co406 O416 2.021 . S
Co406 O418 2.137 . S
Co406 O419 2.244 . S
O407 Co406 2.216 . S
O407 C414 1.247 . S
O408 Co406 2.091 . S
O408 C414 1.261 . S
C409 O418 1.247 . S
C409 O419 1.272 . S
O410 Co406 2.004 . S
O410 C415 1.259 . S
Co411 O412 2.061 . S
Co411 O417 2.052 . S
Co411 O419 2.135 . S
O412 Co411 2.061 . S
O412 C415 1.235 . S
C413 O416 1.238 1_556 S
C413 O417 1.241 1_556 S
C414 O407 1.247 . S
C414 O408 1.261 . S
C415 O410 1.259 . S
C415 O412 1.235 . S
O416 Co406 2.021 . S
O416 C413 1.238 1_554 S
O417 Co411 2.052 . S
O417 C413 1.241 1_554 S
O418 Co406 2.137 . S
O418 C409 1.247 . S
O419 Co406 2.244 . S
O419 C409 1.272 . S
O419 Co411 2.135 . S
Co420 O421 2.216 . S
Co420 O422 2.091 . S
Co420 O424 2.004 . S
Co420 O430 2.021 . S
Co420 O432 2.137 . S
Co420 O433 2.244 . S
O421 Co420 2.216 . S
O421 C428 1.247 . S
O422 Co420 2.091 . S
O422 C428 1.261 . S
C423 O432 1.247 . S
C423 O433 1.272 . S
O424 Co420 2.004 . S
O424 C429 1.259 . S
Co425 O426 2.061 . S
Co425 O431 2.052 . S
Co425 O433 2.135 . S
O426 Co425 2.061 . S
O426 C429 1.235 . S
C427 O430 1.238 . S
C427 O431 1.241 . S
C428 O421 1.247 . S
C428 O422 1.261 . S
C429 O424 1.259 . S
C429 O426 1.235 . S
O430 Co420 2.021 . S
O430 C427 1.238 . S
O431 Co425 2.052 . S
O431 C427 1.241 . S
O432 Co420 2.137 . S
O432 C423 1.247 . S
O433 Co420 2.244 . S
O433 C423 1.272 . S
O433 Co425 2.135 . S
Co434 O435 2.216 . S
Co434 O436 2.091 . S
Co434 O438 2.004 . S
Co434 O444 2.021 . S
Co434 O446 2.137 . S
Co434 O447 2.244 . S
O435 Co434 2.216 . S
O435 C442 1.247 . S
O436 Co434 2.091 . S
O436 C442 1.261 . S
C437 O446 1.247 . S
C437 O447 1.272 . S
O438 Co434 2.004 . S
O438 C443 1.259 . S
Co439 O440 2.061 . S
Co439 O445 2.052 . S
Co439 O447 2.135 . S
O440 Co439 2.061 . S
O440 C443 1.235 . S
C441 O444 1.238 . S
C441 O445 1.241 . S
C442 O435 1.247 . S
C442 O436 1.261 . S
C443 O438 1.259 . S
C443 O440 1.235 . S
O444 Co434 2.021 . S
O444 C441 1.238 . S
O445 Co439 2.052 . S
O445 C441 1.241 . S
O446 Co434 2.137 . S
O446 C437 1.247 . S
O447 Co434 2.244 . S
O447 C437 1.272 . S
O447 Co439 2.135 . S
Co448 O449 2.216 . S
Co448 O450 2.091 . S
Co448 O452 2.004 . S
Co448 O458 2.021 . S
Co448 O460 2.137 . S
Co448 O461 2.244 . S
O449 Co448 2.216 . S
O449 C456 1.247 . S
O450 Co448 2.091 . S
O450 C456 1.261 . S
C451 O460 1.247 . S
C451 O461 1.272 . S
O452 Co448 2.004 . S
O452 C457 1.259 . S
Co453 O454 2.061 . S
Co453 O459 2.052 . S
Co453 O461 2.135 . S
O454 Co453 2.061 . S
O454 C457 1.235 . S
C455 O458 1.238 . S
C455 O459 1.241 . S
C456 O449 1.247 . S
C456 O450 1.261 . S
C457 O452 1.259 . S
C457 O454 1.235 . S
O458 Co448 2.021 . S
O458 C455 1.238 . S
O459 Co453 2.052 . S
O459 C455 1.241 . S
O460 Co448 2.137 . S
O460 C451 1.247 . S
O461 Co448 2.244 . S
O461 C451 1.272 . S
O461 Co453 2.135 . S
Co462 O463 2.216 . S
Co462 O464 2.091 . S
Co462 O466 2.004 . S
Co462 O472 2.021 . S
Co462 O474 2.137 . S
Co462 O475 2.244 . S
O463 Co462 2.216 . S
O463 C470 1.247 . S
O464 Co462 2.091 . S
O464 C470 1.261 . S
C465 O474 1.247 . S
C465 O475 1.272 . S
O466 Co462 2.004 . S
O466 C471 1.259 . S
Co467 O468 2.061 . S
Co467 O473 2.052 . S
Co467 O475 2.135 . S
O468 Co467 2.061 . S
O468 C471 1.235 . S
C469 O472 1.238 . S
C469 O473 1.241 . S
C470 O463 1.247 . S
C470 O464 1.261 . S
C471 O466 1.259 . S
C471 O468 1.235 . S
O472 Co462 2.021 . S
O472 C469 1.238 . S
O473 Co467 2.052 . S
O473 C469 1.241 . S
O474 Co462 2.137 . S
O474 C465 1.247 . S
O475 Co462 2.244 . S
O475 C465 1.272 . S
O475 Co467 2.135 . S
Co476 O477 2.216 . S
Co476 O478 2.091 . S
Co476 O480 2.004 . S
Co476 O486 2.021 . S
Co476 O488 2.137 . S
Co476 O489 2.244 . S
O477 Co476 2.216 . S
O477 C484 1.247 . S
O478 Co476 2.091 . S
O478 C484 1.261 . S
C479 O488 1.247 . S
C479 O489 1.272 . S
O480 Co476 2.004 . S
O480 C485 1.259 . S
Co481 O482 2.061 . S
Co481 O487 2.052 . S
Co481 O489 2.135 . S
O482 Co481 2.061 . S
O482 C485 1.235 . S
C483 O486 1.238 . S
C483 O487 1.241 . S
C484 O477 1.247 . S
C484 O478 1.261 . S
C485 O480 1.259 . S
C485 O482 1.235 . S
O486 Co476 2.021 . S
O486 C483 1.238 . S
O487 Co481 2.052 . S
O487 C483 1.241 . S
O488 Co476 2.137 . S
O488 C479 1.247 . S
O489 Co476 2.244 . S
O489 C479 1.272 . S
O489 Co481 2.135 . S
Co490 O491 2.216 . S
Co490 O492 2.091 . S
Co490 O494 2.004 . S
Co490 O500 2.021 . S
Co490 O502 2.137 . S
Co490 O503 2.244 . S
O491 Co490 2.216 . S
O491 C498 1.247 . S
O492 Co490 2.091 . S
O492 C498 1.261 . S
C493 O502 1.247 . S
C493 O503 1.272 . S
O494 Co490 2.004 . S
O494 C499 1.259 . S
Co495 O496 2.061 . S
Co495 O501 2.052 . S
Co495 O503 2.135 . S
O496 Co495 2.061 . S
O496 C499 1.235 . S
C497 O500 1.238 . S
C497 O501 1.241 . S
C498 O491 1.247 . S
C498 O492 1.261 . S
C499 O494 1.259 . S
C499 O496 1.235 . S
O500 Co490 2.021 . S
O500 C497 1.238 . S
O501 Co495 2.052 . S
O501 C497 1.241 . S
O502 Co490 2.137 . S
O502 C493 1.247 . S
O503 Co490 2.244 . S
O503 C493 1.272 . S
O503 Co495 2.135 . S
C504 C505 1.363 1_545 S
C504 C510 1.379 . S
C504 N512 1.354 . S
C505 C504 1.363 1_565 S
C505 C511 1.363 . S
C506 C507 1.363 1_565 S
C506 C511 1.379 . S
C506 N513 1.354 . S
C507 C506 1.363 1_545 S
C507 C510 1.363 . S
N508 C510 1.356 . S
N508 H520 0.984 . S
N508 H521 0.985 . S
N509 C511 1.356 . S
N509 H514 0.984 . S
N509 H515 0.985 . S
C510 C504 1.379 . S
C510 C507 1.363 . S
C510 N508 1.356 . S
C511 C505 1.363 . S
C511 C506 1.379 . S
C511 N509 1.356 . S
N512 C504 1.354 . S
N512 H518 1.000 . S
N512 H519 0.972 1_545 S
N513 C506 1.354 . S
N513 H516 0.972 1_565 S
N513 H517 1.000 . S
H514 N509 0.984 . S
H515 N509 0.985 . S
H516 N513 0.972 1_545 S
H517 N513 1.000 . S
H518 N512 1.000 . S
H519 N512 0.972 1_565 S
H520 N508 0.984 . S
H521 N508 0.985 . S
C522 C523 1.363 . S
C522 C528 1.379 . S
C522 N530 1.356 . S
C523 C522 1.363 . S
C523 C529 1.363 1_655 S
C524 C525 1.363 . S
C524 C529 1.379 . S
C524 N531 1.356 . S
C525 C524 1.363 . S
C525 C528 1.363 1_455 S
N526 C528 1.356 . S
N526 H538 0.984 . S
N526 H539 0.985 1_655 S
N527 C529 1.356 . S
N527 H532 0.984 1_455 S
N527 H533 0.985 . S
C528 C522 1.379 . S
C528 C525 1.363 1_655 S
C528 N526 1.356 . S
C529 C523 1.363 1_455 S
C529 C524 1.379 . S
C529 N527 1.356 . S
N530 C522 1.356 . S
N530 H536 0.984 . S
N530 H537 0.984 . S
N531 C524 1.356 . S
N531 H534 0.984 . S
N531 H535 0.985 . S
H532 N527 0.984 1_655 S
H533 N527 0.985 . S
H534 N531 0.984 . S
H535 N531 0.985 . S
H536 N530 0.984 . S
H537 N530 0.984 . S
H538 N526 0.984 . S
H539 N526 0.985 1_455 S
C540 C541 1.363 . S
C540 C546 1.379 . S
C540 N548 1.356 . S
C541 C540 1.363 . S
C541 C547 1.363 . S
C542 C543 1.363 . S
C542 C547 1.379 . S
C542 N549 1.356 . S
C543 C542 1.363 . S
C543 C546 1.363 . S
N544 C546 1.356 . S
N544 H556 0.984 . S
N544 H557 0.985 . S
N545 C547 1.356 . S
N545 H550 0.984 . S
N545 H551 0.985 . S
C546 C540 1.379 . S
C546 C543 1.363 . S
C546 N544 1.356 . S
C547 C541 1.363 . S
C547 C542 1.379 . S
C547 N545 1.356 . S
N548 C540 1.356 . S
N548 H554 0.984 . S
N548 H555 0.984 . S
N549 C542 1.356 . S
N549 H552 0.984 . S
N549 H553 0.985 . S
H550 N545 0.984 . S
H551 N545 0.985 . S
H552 N549 0.984 . S
H553 N549 0.985 . S
H554 N548 0.984 . S
H555 N548 0.984 . S
H556 N544 0.984 . S
H557 N544 0.985 . S
C558 C559 1.363 . S
C558 C564 1.379 . S
C558 N566 1.356 . S
C559 C558 1.363 . S
C559 C565 1.363 1_565 S
C560 C561 1.363 . S
C560 C565 1.379 . S
C560 N567 1.356 . S
C561 C560 1.363 . S
C561 C564 1.363 1_545 S
N562 C564 1.356 . S
N562 H574 0.984 . S
N562 H575 0.985 1_565 S
N563 C565 1.356 . S
N563 H568 0.984 1_545 S
N563 H569 0.985 . S
C564 C558 1.379 . S
C564 C561 1.363 1_565 S
C564 N562 1.356 . S
C565 C559 1.363 1_545 S
C565 C560 1.379 . S
C565 N563 1.356 . S
N566 C558 1.356 . S
N566 H572 0.984 . S
N566 H573 0.984 . S
N567 C560 1.356 . S
N567 H570 0.984 . S
N567 H571 0.985 . S
H568 N563 0.984 1_565 S
H569 N563 0.985 . S
H570 N567 0.984 . S
H571 N567 0.985 . S
H572 N566 0.984 . S
H573 N566 0.984 . S
H574 N562 0.984 . S
H575 N562 0.985 1_545 S
C576 C577 1.363 . S
C576 C582 1.379 1_455 S
C576 N584 1.356 . S
C577 C576 1.363 . S
C577 C583 1.363 . S
C578 C579 1.363 . S
C578 C583 1.379 1_655 S
C578 N585 1.356 . S
C579 C578 1.363 . S
C579 C582 1.363 . S
N580 C582 1.356 . S
N580 H592 0.984 . S
N580 H593 0.985 . S
N581 C583 1.356 . S
N581 H586 0.984 . S
N581 H587 0.985 . S
C582 C576 1.379 1_655 S
C582 C579 1.363 . S
C582 N580 1.356 . S
C583 C577 1.363 . S
C583 C578 1.379 1_455 S
C583 N581 1.356 . S
N584 C576 1.356 . S
N584 H590 0.984 . S
N584 H591 0.984 . S
N585 C578 1.356 . S
N585 H588 0.984 . S
N585 H589 0.985 . S
H586 N581 0.984 . S
H587 N581 0.985 . S
H588 N585 0.984 . S
H589 N585 0.985 . S
H590 N584 0.984 . S
H591 N584 0.984 . S
H592 N580 0.984 . S
H593 N580 0.985 . S
C594 C595 1.363 . S
C594 C600 1.379 . S
C594 N602 1.356 . S
C595 C594 1.363 . S
C595 C601 1.363 . S
C596 C597 1.363 . S
C596 C601 1.379 . S
C596 N603 1.356 . S
C597 C596 1.363 . S
C597 C600 1.363 . S
N598 C600 1.356 . S
N598 H610 0.984 . S
N598 H611 0.985 . S
N599 C601 1.356 . S
N599 H604 0.984 . S
N599 H605 0.985 . S
C600 C594 1.379 . S
C600 C597 1.363 . S
C600 N598 1.356 . S
C601 C595 1.363 . S
C601 C596 1.379 . S
C601 N599 1.356 . S
N602 C594 1.356 . S
N602 H608 0.984 . S
N602 H609 0.984 . S
N603 C596 1.356 . S
N603 H606 0.984 . S
N603 H607 0.985 . S
H604 N599 0.984 . S
H605 N599 0.985 . S
H606 N603 0.984 . S
H607 N603 0.985 . S
H608 N602 0.984 . S
H609 N602 0.984 . S
H610 N598 0.984 . S
H611 N598 0.985 . S
C612 C613 1.363 . S
C612 C618 1.379 . S
C612 N620 1.356 . S
C613 C612 1.363 . S
C613 C619 1.363 . S
C614 C615 1.363 . S
C614 C619 1.379 . S
C614 N621 1.356 . S
C615 C614 1.363 . S
C615 C618 1.363 . S
N616 C618 1.356 . S
N616 H628 0.984 . S
N616 H629 0.985 . S
N617 C619 1.356 . S
N617 H622 0.984 . S
N617 H623 0.985 . S
C618 C612 1.379 . S
C618 C615 1.363 . S
C618 N616 1.356 . S
C619 C613 1.363 . S
C619 C614 1.379 . S
C619 N617 1.356 . S
N620 C612 1.356 . S
N620 H626 0.984 . S
N620 H627 0.984 . S
N621 C614 1.356 . S
N621 H624 0.984 . S
N621 H625 0.985 . S
H622 N617 0.984 . S
H623 N617 0.985 . S
H624 N621 0.984 . S
H625 N621 0.985 . S
H626 N620 0.984 . S
H627 N620 0.984 . S
H628 N616 0.984 . S
H629 N616 0.985 . S
C630 C631 1.363 . S
C630 C636 1.379 . S
C630 N638 1.356 . S
C631 C630 1.363 . S
C631 C637 1.363 . S
C632 C633 1.363 . S
C632 C637 1.379 . S
C632 N639 1.356 . S
C633 C632 1.363 . S
C633 C636 1.363 . S
N634 C636 1.356 . S
N634 H646 0.984 . S
N634 H647 0.985 . S
N635 C637 1.356 . S
N635 H640 0.984 . S
N635 H641 0.985 . S
C636 C630 1.379 . S
C636 C633 1.363 . S
C636 N634 1.356 . S
C637 C631 1.363 . S
C637 C632 1.379 . S
C637 N635 1.356 . S
N638 C630 1.356 . S
N638 H644 0.984 . S
N638 H645 0.984 . S
N639 C632 1.356 . S
N639 H642 0.984 . S
N639 H643 0.985 . S
H640 N635 0.984 . S
H641 N635 0.985 . S
H642 N639 0.984 . S
H643 N639 0.985 . S
H644 N638 0.984 . S
H645 N638 0.984 . S
H646 N634 0.984 . S
H647 N634 0.985 . S
C648 C649 1.363 . S
C648 C654 1.379 . S
C648 N656 1.356 . S
C649 C648 1.363 . S
C649 C655 1.363 . S
C650 C651 1.363 . S
C650 C655 1.379 . S
C650 N657 1.356 . S
C651 C650 1.363 . S
C651 C654 1.363 . S
N652 C654 1.356 . S
N652 H664 0.984 . S
N652 H665 0.985 . S
N653 C655 1.356 . S
N653 H658 0.984 . S
N653 H659 0.985 . S
C654 C648 1.379 . S
C654 C651 1.363 . S
C654 N652 1.356 . S
C655 C649 1.363 . S
C655 C650 1.379 . S
C655 N653 1.356 . S
N656 C648 1.356 . S
N656 H662 0.984 . S
N656 H663 0.984 . S
N657 C650 1.356 . S
N657 H660 0.984 . S
N657 H661 0.985 . S
H658 N653 0.984 . S
H659 N653 0.985 . S
H660 N657 0.984 . S
H661 N657 0.985 . S
H662 N656 0.984 . S
H663 N656 0.984 . S
H664 N652 0.984 . S
H665 N652 0.985 . S
C666 C667 1.363 . S
C666 C672 1.379 . S
C666 N674 1.356 . S
C667 C666 1.363 . S
C667 C673 1.363 . S
C668 C669 1.363 . S
C668 C673 1.379 . S
C668 N675 1.356 . S
C669 C668 1.363 . S
C669 C672 1.363 . S
N670 C672 1.356 1_556 S
N670 H682 0.984 . S
N670 H683 0.985 . S
N671 C673 1.356 . S
N671 H676 0.984 . S
N671 H677 0.985 . S
C672 C666 1.379 . S
C672 C669 1.363 . S
C672 N670 1.356 1_554 S
C673 C667 1.363 . S
C673 C668 1.379 . S
C673 N671 1.356 . S
N674 C666 1.356 . S
N674 H680 0.984 . S
N674 H681 0.984 . S
N675 C668 1.356 . S
N675 H678 0.984 . S
N675 H679 0.985 . S
H676 N671 0.984 . S
H677 N671 0.985 . S
H678 N675 0.984 . S
H679 N675 0.985 . S
H680 N674 0.984 . S
H681 N674 0.984 . S
H682 N670 0.984 . S
H683 N670 0.985 . S
C684 C685 1.363 . S
C684 C690 1.379 . S
C684 N692 1.356 . S
C685 C684 1.363 . S
C685 C691 1.363 . S
C686 C687 1.363 . S
C686 C691 1.379 . S
C686 N693 1.356 . S
C687 C686 1.363 . S
C687 C690 1.363 . S
N688 C690 1.356 1_556 S
N688 H700 0.984 . S
N688 H701 0.985 . S
N689 C691 1.356 . S
N689 H694 0.984 . S
N689 H695 0.985 . S
C690 C684 1.379 . S
C690 C687 1.363 . S
C690 N688 1.356 1_554 S
C691 C685 1.363 . S
C691 C686 1.379 . S
C691 N689 1.356 . S
N692 C684 1.356 . S
N692 H698 0.984 . S
N692 H699 0.984 . S
N693 C686 1.356 . S
N693 H696 0.984 1_554 S
N693 H697 0.985 . S
H694 N689 0.984 . S
H695 N689 0.985 . S
H696 N693 0.984 1_556 S
H697 N693 0.985 . S
H698 N692 0.984 . S
H699 N692 0.984 . S
H700 N688 0.984 . S
H701 N688 0.985 . S
C702 C703 1.363 . S
C702 C708 1.379 . S
C702 N710 1.356 . S
C703 C702 1.363 . S
C703 C709 1.363 . S
C704 C705 1.363 . S
C704 C709 1.379 . S
C704 N711 1.356 . S
C705 C704 1.363 . S
C705 C708 1.363 . S
N706 C708 1.356 1_556 S
N706 H718 0.984 . S
N706 H719 0.985 . S
N707 C709 1.356 . S
N707 H712 0.984 . S
N707 H713 0.985 . S
C708 C702 1.379 . S
C708 C705 1.363 . S
C708 N706 1.356 1_554 S
C709 C703 1.363 . S
C709 C704 1.379 . S
C709 N707 1.356 . S
N710 C702 1.356 . S
N710 H716 0.984 . S
N710 H717 0.984 . S
N711 C704 1.356 . S
N711 H714 0.984 1_554 S
N711 H715 0.985 . S
H712 N707 0.984 . S
H713 N707 0.985 . S
H714 N711 0.984 1_556 S
H715 N711 0.985 . S
H716 N710 0.984 . S
H717 N710 0.984 . S
H718 N706 0.984 . S
H719 N706 0.985 . S
C720 C721 1.363 . S
C720 C726 1.379 . S
C720 N728 1.356 . S
C721 C720 1.363 . S
C721 C727 1.363 . S
C722 C723 1.363 . S
C722 C727 1.379 . S
C722 N729 1.356 . S
C723 C722 1.363 . S
C723 C726 1.363 . S
N724 C726 1.356 1_554 S
N724 H736 0.984 . S
N724 H737 0.985 . S
N725 C727 1.356 . S
N725 H730 0.984 . S
N725 H731 0.985 . S
C726 C720 1.379 . S
C726 C723 1.363 . S
C726 N724 1.356 1_556 S
C727 C721 1.363 . S
C727 C722 1.379 . S
C727 N725 1.356 . S
N728 C720 1.356 . S
N728 H734 0.984 . S
N728 H735 0.984 . S
N729 C722 1.356 . S
N729 H732 0.984 . S
N729 H733 0.985 . S
H730 N725 0.984 . S
H731 N725 0.985 . S
H732 N729 0.984 . S
H733 N729 0.985 . S
H734 N728 0.984 . S
H735 N728 0.984 . S
H736 N724 0.984 . S
H737 N724 0.985 . S
C738 C739 1.363 . S
C738 C744 1.379 . S
C738 N746 1.356 1_556 S
C739 C738 1.363 . S
C739 C745 1.363 . S
C740 C741 1.363 . S
C740 C745 1.379 . S
C740 N747 1.356 . S
C741 C740 1.363 . S
C741 C744 1.363 . S
N742 C744 1.356 . S
N742 H754 0.984 . S
N742 H755 0.985 . S
N743 C745 1.356 . S
N743 H748 0.984 1_556 S
N743 H749 0.985 . S
C744 C738 1.379 . S
C744 C741 1.363 . S
C744 N742 1.356 . S
C745 C739 1.363 . S
C745 C740 1.379 . S
C745 N743 1.356 . S
N746 C738 1.356 1_554 S
N746 H752 0.984 . S
N746 H753 0.984 . S
N747 C740 1.356 . S
N747 H750 0.984 . S
N747 H751 0.985 . S
H748 N743 0.984 1_554 S
H749 N743 0.985 . S
H750 N747 0.984 . S
H751 N747 0.985 . S
H752 N746 0.984 . S
H753 N746 0.984 . S
H754 N742 0.984 . S
H755 N742 0.985 . S
C756 C757 1.363 . S
C756 C762 1.379 . S
C756 N764 1.356 . S
C757 C756 1.363 . S
C757 C763 1.363 . S
C758 C759 1.363 . S
C758 C763 1.379 . S
C758 N765 1.356 . S
C759 C758 1.363 . S
C759 C762 1.363 . S
N760 C762 1.356 1_554 S
N760 H772 0.984 . S
N760 H773 0.985 . S
N761 C763 1.356 . S
N761 H766 0.984 . S
N761 H767 0.985 . S
C762 C756 1.379 . S
C762 C759 1.363 . S
C762 N760 1.356 1_556 S
C763 C757 1.363 . S
C763 C758 1.379 . S
C763 N761 1.356 . S
N764 C756 1.356 . S
N764 H770 0.984 . S
N764 H771 0.984 . S
N765 C758 1.356 . S
N765 H768 0.984 . S
N765 H769 0.985 . S
H766 N761 0.984 . S
H767 N761 0.985 . S
H768 N765 0.984 . S
H769 N765 0.985 . S
H770 N764 0.984 . S
H771 N764 0.984 . S
H772 N760 0.984 . S
H773 N760 0.985 . S
C774 C775 1.363 . S
C774 C780 1.379 . S
C774 N782 1.356 . S
C775 C774 1.363 . S
C775 C781 1.363 . S
C776 C777 1.363 . S
C776 C781 1.379 . S
C776 N783 1.356 . S
C777 C776 1.363 . S
C777 C780 1.363 . S
N778 C780 1.356 . S
N778 H790 0.984 . S
N778 H791 0.985 . S
N779 C781 1.356 . S
N779 H784 0.984 . S
N779 H785 0.985 . S
C780 C774 1.379 . S
C780 C777 1.363 . S
C780 N778 1.356 . S
C781 C775 1.363 . S
C781 C776 1.379 . S
C781 N779 1.356 . S
N782 C774 1.356 . S
N782 H788 0.984 . S
N782 H789 0.984 . S
N783 C776 1.356 . S
N783 H786 0.984 . S
N783 H787 0.985 . S
H784 N779 0.984 . S
H785 N779 0.985 . S
H786 N783 0.984 . S
H787 N783 0.985 . S
H788 N782 0.984 . S
H789 N782 0.984 . S
H790 N778 0.984 . S
H791 N778 0.985 . S
C792 C793 1.363 . S
C792 C798 1.379 . S
C792 N800 1.356 . S
C793 C792 1.363 . S
C793 C799 1.363 . S
C794 C795 1.363 . S
C794 C799 1.379 . S
C794 N801 1.356 . S
C795 C794 1.363 . S
C795 C798 1.363 . S
N796 C798 1.356 . S
N796 H808 0.984 . S
N796 H809 0.985 . S
N797 C799 1.356 . S
N797 H802 0.984 . S
N797 H803 0.985 . S
C798 C792 1.379 . S
C798 C795 1.363 . S
C798 N796 1.356 . S
C799 C793 1.363 . S
C799 C794 1.379 . S
C799 N797 1.356 . S
N800 C792 1.356 . S
N800 H806 0.984 . S
N800 H807 0.984 . S
N801 C794 1.356 . S
N801 H804 0.984 . S
N801 H805 0.985 . S
H802 N797 0.984 . S
H803 N797 0.985 . S
H804 N801 0.984 . S
H805 N801 0.985 . S
H806 N800 0.984 . S
H807 N800 0.984 . S
H808 N796 0.984 . S
H809 N796 0.985 . S
C810 C811 1.363 . S
C810 C816 1.379 . S
C810 N818 1.356 . S
C811 C810 1.363 . S
C811 C817 1.363 . S
C812 C813 1.363 . S
C812 C817 1.379 . S
C812 N819 1.356 . S
C813 C812 1.363 . S
C813 C816 1.363 . S
N814 C816 1.356 . S
N814 H826 0.984 . S
N814 H827 0.985 . S
N815 C817 1.356 . S
N815 H820 0.984 . S
N815 H821 0.985 . S
C816 C810 1.379 . S
C816 C813 1.363 . S
C816 N814 1.356 . S
C817 C811 1.363 . S
C817 C812 1.379 . S
C817 N815 1.356 . S
N818 C810 1.356 . S
N818 H824 0.984 . S
N818 H825 0.984 . S
N819 C812 1.356 . S
N819 H822 0.984 . S
N819 H823 0.985 . S
H820 N815 0.984 . S
H821 N815 0.985 . S
H822 N819 0.984 . S
H823 N819 0.985 . S
H824 N818 0.984 . S
H825 N818 0.984 . S
H826 N814 0.984 . S
H827 N814 0.985 . S
C828 C829 1.363 . S
C828 C834 1.379 . S
C828 N836 1.356 . S
C829 C828 1.363 . S
C829 C835 1.363 . S
C830 C831 1.363 . S
C830 C835 1.379 . S
C830 N837 1.356 . S
C831 C830 1.363 . S
C831 C834 1.363 . S
N832 C834 1.356 . S
N832 H844 0.984 . S
N832 H845 0.985 . S
N833 C835 1.356 . S
N833 H838 0.984 . S
N833 H839 0.985 . S
C834 C828 1.379 . S
C834 C831 1.363 . S
C834 N832 1.356 . S
C835 C829 1.363 . S
C835 C830 1.379 . S
C835 N833 1.356 . S
N836 C828 1.356 . S
N836 H842 0.984 . S
N836 H843 0.984 . S
N837 C830 1.356 . S
N837 H840 0.984 . S
N837 H841 0.985 . S
H838 N833 0.984 . S
H839 N833 0.985 . S
H840 N837 0.984 . S
H841 N837 0.985 . S
H842 N836 0.984 . S
H843 N836 0.984 . S
H844 N832 0.984 . S
H845 N832 0.985 . S
C846 C847 1.363 . S
C846 C852 1.379 . S
C846 N854 1.356 . S
C847 C846 1.363 . S
C847 C853 1.363 . S
C848 C849 1.363 . S
C848 C853 1.379 . S
C848 N855 1.356 . S
C849 C848 1.363 . S
C849 C852 1.363 . S
N850 C852 1.356 . S
N850 H862 0.984 . S
N850 H863 0.985 . S
N851 C853 1.356 . S
N851 H856 0.984 . S
N851 H857 0.985 . S
C852 C846 1.379 . S
C852 C849 1.363 . S
C852 N850 1.356 . S
C853 C847 1.363 . S
C853 C848 1.379 . S
C853 N851 1.356 . S
N854 C846 1.356 . S
N854 H860 0.984 . S
N854 H861 0.984 . S
N855 C848 1.356 . S
N855 H858 0.984 . S
N855 H859 0.985 . S
H856 N851 0.984 . S
H857 N851 0.985 . S
H858 N855 0.984 . S
H859 N855 0.985 . S
H860 N854 0.984 . S
H861 N854 0.984 . S
H862 N850 0.984 . S
H863 N850 0.985 . S
C864 C865 1.363 . S
C864 C870 1.379 . S
C864 N872 1.356 . S
C865 C864 1.363 . S
C865 C871 1.363 . S
C866 C867 1.363 . S
C866 C871 1.379 . S
C866 N873 1.356 . S
C867 C866 1.363 . S
C867 C870 1.363 . S
N868 C870 1.356 . S
N868 H880 0.984 . S
N868 H881 0.985 . S
N869 C871 1.356 . S
N869 H874 0.984 . S
N869 H875 0.985 . S
C870 C864 1.379 . S
C870 C867 1.363 . S
C870 N868 1.356 . S
C871 C865 1.363 . S
C871 C866 1.379 . S
C871 N869 1.356 . S
N872 C864 1.356 . S
N872 H878 0.984 . S
N872 H879 0.984 . S
N873 C866 1.356 . S
N873 H876 0.984 . S
N873 H877 0.985 . S
H874 N869 0.984 . S
H875 N869 0.985 . S
H876 N873 0.984 . S
H877 N873 0.985 . S
H878 N872 0.984 . S
H879 N872 0.984 . S
H880 N868 0.984 . S
H881 N868 0.985 . S
C882 C883 1.363 . S
C882 C888 1.379 . S
C882 N890 1.356 . S
C883 C882 1.363 . S
C883 C889 1.363 . S
C884 C885 1.363 . S
C884 C889 1.379 . S
C884 N891 1.356 . S
C885 C884 1.363 . S
C885 C888 1.363 . S
N886 C888 1.356 . S
N886 H898 0.984 . S
N886 H899 0.985 . S
N887 C889 1.356 . S
N887 H892 0.984 . S
N887 H893 0.985 . S
C888 C882 1.379 . S
C888 C885 1.363 . S
C888 N886 1.356 . S
C889 C883 1.363 . S
C889 C884 1.379 . S
C889 N887 1.356 . S
N890 C882 1.356 . S
N890 H896 0.984 . S
N890 H897 0.984 . S
N891 C884 1.356 . S
N891 H894 0.984 . S
N891 H895 0.985 . S
H892 N887 0.984 . S
H893 N887 0.985 . S
H894 N891 0.984 . S
H895 N891 0.985 . S
H896 N890 0.984 . S
H897 N890 0.984 . S
H898 N886 0.984 . S
H899 N886 0.985 . S
C900 C901 1.363 . S
C900 C906 1.379 . S
C900 N908 1.356 . S
C901 C900 1.363 . S
C901 C907 1.363 . S
C902 C903 1.363 . S
C902 C907 1.379 . S
C902 N909 1.356 . S
C903 C902 1.363 . S
C903 C906 1.363 . S
N904 C906 1.356 . S
N904 H916 0.984 . S
N904 H917 0.985 . S
N905 C907 1.356 . S
N905 H910 0.984 . S
N905 H911 0.985 . S
C906 C900 1.379 . S
C906 C903 1.363 . S
C906 N904 1.356 . S
C907 C901 1.363 . S
C907 C902 1.379 . S
C907 N905 1.356 . S
N908 C900 1.356 . S
N908 H914 0.984 . S
N908 H915 0.984 . S
N909 C902 1.356 . S
N909 H912 0.984 . S
N909 H913 0.985 . S
H910 N905 0.984 . S
H911 N905 0.985 . S
H912 N909 0.984 . S
H913 N909 0.985 . S
H914 N908 0.984 . S
H915 N908 0.984 . S
H916 N904 0.984 . S
H917 N904 0.985 . S
C918 C919 1.363 . S
C918 C924 1.379 . S
C918 N926 1.356 . S
C919 C918 1.363 . S
C919 C925 1.363 . S
C920 C921 1.363 . S
C920 C925 1.379 . S
C920 N927 1.356 . S
C921 C920 1.363 . S
C921 C924 1.363 . S
N922 C924 1.356 . S
N922 H934 0.984 . S
N922 H935 0.985 . S
N923 C925 1.356 . S
N923 H928 0.984 . S
N923 H929 0.985 . S
C924 C918 1.379 . S
C924 C921 1.363 . S
C924 N922 1.356 . S
C925 C919 1.363 . S
C925 C920 1.379 . S
C925 N923 1.356 . S
N926 C918 1.356 . S
N926 H932 0.984 . S
N926 H933 0.984 . S
N927 C920 1.356 . S
N927 H930 0.984 . S
N927 H931 0.985 . S
H928 N923 0.984 . S
H929 N923 0.985 . S
H930 N927 0.984 . S
H931 N927 0.985 . S
H932 N926 0.984 . S
H933 N926 0.984 . S
H934 N922 0.984 . S
H935 N922 0.985 . S
C936 C937 1.363 . S
C936 C942 1.379 . S
C936 N944 1.356 . S
C937 C936 1.363 . S
C937 C943 1.363 . S
C938 C939 1.363 . S
C938 C943 1.379 . S
C938 N945 1.356 . S
C939 C938 1.363 . S
C939 C942 1.363 . S
N940 C942 1.356 . S
N940 H952 0.984 . S
N940 H953 0.985 . S
N941 C943 1.356 . S
N941 H946 0.984 . S
N941 H947 0.985 . S
C942 C936 1.379 . S
C942 C939 1.363 . S
C942 N940 1.356 . S
C943 C937 1.363 . S
C943 C938 1.379 . S
C943 N941 1.356 . S
N944 C936 1.356 . S
N944 H950 0.984 . S
N944 H951 0.984 . S
N945 C938 1.356 . S
N945 H948 0.984 . S
N945 H949 0.985 . S
H946 N941 0.984 . S
H947 N941 0.985 . S
H948 N945 0.984 . S
H949 N945 0.985 . S
H950 N944 0.984 . S
H951 N944 0.984 . S
H952 N940 0.984 . S
H953 N940 0.985 . S
C954 C955 1.363 . S
C954 C960 1.379 . S
C954 N962 1.356 . S
C955 C954 1.363 . S
C955 C961 1.363 . S
C956 C957 1.363 . S
C956 C961 1.379 . S
C956 N963 1.356 . S
C957 C956 1.363 . S
C957 C960 1.363 . S
N958 C960 1.356 . S
N958 H970 0.984 . S
N958 H971 0.985 . S
N959 C961 1.356 . S
N959 H964 0.984 . S
N959 H965 0.985 . S
C960 C954 1.379 . S
C960 C957 1.363 . S
C960 N958 1.356 . S
C961 C955 1.363 . S
C961 C956 1.379 . S
C961 N959 1.356 . S
N962 C954 1.356 . S
N962 H968 0.984 1_554 S
N962 H969 0.984 . S
N963 C956 1.356 . S
N963 H966 0.984 . S
N963 H967 0.985 . S
H964 N959 0.984 . S
H965 N959 0.985 . S
H966 N963 0.984 . S
H967 N963 0.985 . S
H968 N962 0.984 1_556 S
H969 N962 0.984 . S
H970 N958 0.984 . S
H971 N958 0.985 . S
C972 C973 1.363 . S
C972 C978 1.379 . S
C972 N980 1.356 . S
C973 C972 1.363 . S
C973 C979 1.363 . S
C974 C975 1.363 . S
C974 C979 1.379 . S
C974 N981 1.356 . S
C975 C974 1.363 . S
C975 C978 1.363 . S
N976 C978 1.356 . S
N976 H988 0.984 . S
N976 H989 0.985 . S
N977 C979 1.356 . S
N977 H982 0.984 . S
N977 H983 0.985 1_554 S
C978 C972 1.379 . S
C978 C975 1.363 . S
C978 N976 1.356 . S
C979 C973 1.363 . S
C979 C974 1.379 . S
C979 N977 1.356 . S
N980 C972 1.356 . S
N980 H986 0.984 . S
N980 H987 0.984 . S
N981 C974 1.356 . S
N981 H984 0.984 . S
N981 H985 0.985 . S
H982 N977 0.984 . S
H983 N977 0.985 1_556 S
H984 N981 0.984 . S
H985 N981 0.985 . S
H986 N980 0.984 . S
H987 N980 0.984 . S
H988 N976 0.984 . S
H989 N976 0.985 . S
C990 C991 1.363 . S
C990 C996 1.379 . S
C990 N998 1.356 . S
C991 C990 1.363 . S
C991 C997 1.363 . S
C992 C993 1.363 . S
C992 C997 1.379 . S
C992 N999 1.356 . S
C993 C992 1.363 . S
C993 C996 1.363 . S
N994 C996 1.356 . S
N994 H1006 0.984 . S
N994 H1007 0.985 . S
N995 C997 1.356 . S
N995 H1000 0.984 . S
N995 H1001 0.985 . S
C996 C990 1.379 . S
C996 C993 1.363 . S
C996 N994 1.356 . S
C997 C991 1.363 . S
C997 C992 1.379 . S
C997 N995 1.356 . S
N998 C990 1.356 . S
N998 H1004 0.984 . S
N998 H1005 0.984 . S
N999 C992 1.356 . S
N999 H1002 0.984 . S
N999 H1003 0.985 . S
H1000 N995 0.984 . S
H1001 N995 0.985 . S
H1002 N999 0.984 . S
H1003 N999 0.985 . S
H1004 N998 0.984 . S
H1005 N998 0.984 . S
H1006 N994 0.984 . S
H1007 N994 0.985 . S
C1008 C1009 1.363 . S
C1008 C1014 1.379 . S
C1008 N1016 1.356 . S
C1009 C1008 1.363 . S
C1009 C1015 1.363 . S
C1010 C1011 1.363 . S
C1010 C1015 1.379 . S
C1010 N1017 1.356 . S
C1011 C1010 1.363 . S
C1011 C1014 1.363 . S
N1012 C1014 1.356 . S
N1012 H1024 0.984 . S
N1012 H1025 0.985 . S
N1013 C1015 1.356 . S
N1013 H1018 0.984 . S
N1013 H1019 0.985 . S
C1014 C1008 1.379 . S
C1014 C1011 1.363 . S
C1014 N1012 1.356 . S
C1015 C1009 1.363 . S
C1015 C1010 1.379 . S
C1015 N1013 1.356 . S
N1016 C1008 1.356 . S
N1016 H1022 0.984 . S
N1016 H1023 0.984 . S
N1017 C1010 1.356 . S
N1017 H1020 0.984 . S
N1017 H1021 0.985 . S
H1018 N1013 0.984 . S
H1019 N1013 0.985 . S
H1020 N1017 0.984 . S
H1021 N1017 0.985 . S
H1022 N1016 0.984 . S
H1023 N1016 0.984 . S
H1024 N1012 0.984 . S
H1025 N1012 0.985 . S
C1026 C1027 1.363 . S
C1026 C1032 1.379 . S
C1026 N1034 1.356 . S
C1027 C1026 1.363 . S
C1027 C1033 1.363 . S
C1028 C1029 1.363 . S
C1028 C1033 1.379 . S
C1028 N1035 1.356 . S
C1029 C1028 1.363 . S
C1029 C1032 1.363 . S
N1030 C1032 1.356 . S
N1030 H1042 0.984 . S
N1030 H1043 0.985 . S
N1031 C1033 1.356 . S
N1031 H1036 0.984 . S
N1031 H1037 0.985 . S
C1032 C1026 1.379 . S
C1032 C1029 1.363 . S
C1032 N1030 1.356 . S
C1033 C1027 1.363 . S
C1033 C1028 1.379 . S
C1033 N1031 1.356 . S
N1034 C1026 1.356 . S
N1034 H1040 0.984 . S
N1034 H1041 0.984 . S
N1035 C1028 1.356 . S
N1035 H1038 0.984 . S
N1035 H1039 0.985 . S
H1036 N1031 0.984 . S
H1037 N1031 0.985 . S
H1038 N1035 0.984 . S
H1039 N1035 0.985 . S
H1040 N1034 0.984 . S
H1041 N1034 0.984 . S
H1042 N1030 0.984 . S
H1043 N1030 0.985 . S
C1044 C1045 1.363 . S
C1044 C1050 1.379 . S
C1044 N1052 1.356 . S
C1045 C1044 1.363 . S
C1045 C1051 1.363 . S
C1046 C1047 1.363 . S
C1046 C1051 1.379 . S
C1046 N1053 1.356 . S
C1047 C1046 1.363 . S
C1047 C1050 1.363 . S
N1048 C1050 1.356 . S
N1048 H1060 0.984 . S
N1048 H1061 0.985 1_554 S
N1049 C1051 1.356 . S
N1049 H1054 0.984 . S
N1049 H1055 0.985 . S
C1050 C1044 1.379 . S
C1050 C1047 1.363 . S
C1050 N1048 1.356 . S
C1051 C1045 1.363 . S
C1051 C1046 1.379 . S
C1051 N1049 1.356 . S
N1052 C1044 1.356 . S
N1052 H1058 0.984 . S
N1052 H1059 0.984 . S
N1053 C1046 1.356 . S
N1053 H1056 0.984 . S
N1053 H1057 0.985 . S
H1054 N1049 0.984 . S
H1055 N1049 0.985 . S
H1056 N1053 0.984 . S
H1057 N1053 0.985 . S
H1058 N1052 0.984 . S
H1059 N1052 0.984 . S
H1060 N1048 0.984 . S
H1061 N1048 0.985 1_556 S
C1062 C1063 1.363 . S
C1062 C1068 1.379 . S
C1062 N1070 1.356 . S
C1063 C1062 1.363 . S
C1063 C1069 1.363 . S
C1064 C1065 1.363 . S
C1064 C1069 1.379 . S
C1064 N1071 1.356 1_554 S
C1065 C1064 1.363 . S
C1065 C1068 1.363 . S
N1066 C1068 1.356 . S
N1066 H1078 0.984 . S
N1066 H1079 0.985 . S
N1067 C1069 1.356 . S
N1067 H1072 0.984 . S
N1067 H1073 0.985 . S
C1068 C1062 1.379 . S
C1068 C1065 1.363 . S
C1068 N1066 1.356 . S
C1069 C1063 1.363 . S
C1069 C1064 1.379 . S
C1069 N1067 1.356 . S
N1070 C1062 1.356 . S
N1070 H1076 0.984 . S
N1070 H1077 0.984 . S
N1071 C1064 1.356 1_556 S
N1071 H1074 0.984 . S
N1071 H1075 0.985 . S
H1072 N1067 0.984 . S
H1073 N1067 0.985 . S
H1074 N1071 0.984 . S
H1075 N1071 0.985 . S
H1076 N1070 0.984 . S
H1077 N1070 0.984 . S
H1078 N1066 0.984 . S
H1079 N1066 0.985 . S
C1080 C1081 1.363 . S
C1080 C1086 1.379 . S
C1080 N1088 1.356 . S
C1081 C1080 1.363 . S
C1081 C1087 1.363 . S
C1082 C1083 1.363 . S
C1082 C1087 1.379 . S
C1082 N1089 1.356 . S
C1083 C1082 1.363 . S
C1083 C1086 1.363 . S
N1084 C1086 1.356 . S
N1084 H1096 0.984 . S
N1084 H1097 0.985 . S
N1085 C1087 1.356 . S
N1085 H1090 0.984 . S
N1085 H1091 0.985 . S
C1086 C1080 1.379 . S
C1086 C1083 1.363 . S
C1086 N1084 1.356 . S
C1087 C1081 1.363 . S
C1087 C1082 1.379 . S
C1087 N1085 1.356 . S
N1088 C1080 1.356 . S
N1088 H1094 0.984 . S
N1088 H1095 0.984 1_554 S
N1089 C1082 1.356 . S
N1089 H1092 0.984 . S
N1089 H1093 0.985 . S
H1090 N1085 0.984 . S
H1091 N1085 0.985 . S
H1092 N1089 0.984 . S
H1093 N1089 0.985 . S
H1094 N1088 0.984 . S
H1095 N1088 0.984 1_556 S
H1096 N1084 0.984 . S
H1097 N1084 0.985 . S
C1098 C1099 1.363 1_554 S
C1098 C1104 1.379 . S
C1098 N1106 1.356 . S
C1099 C1098 1.363 1_556 S
C1099 C1105 1.363 . S
C1100 C1101 1.363 . S
C1100 C1105 1.379 1_554 S
C1100 N1107 1.356 . S
C1101 C1100 1.363 . S
C1101 C1104 1.363 . S
N1102 C1104 1.356 . S
N1102 H1114 0.984 . S
N1102 H1115 0.985 . S
N1103 C1105 1.356 . S
N1103 H1108 0.984 . S
N1103 H1109 0.985 . S
C1104 C1098 1.379 . S
C1104 C1101 1.363 . S
C1104 N1102 1.356 . S
C1105 C1099 1.363 . S
C1105 C1100 1.379 1_556 S
C1105 N1103 1.356 . S
N1106 C1098 1.356 . S
N1106 H1112 0.984 . S
N1106 H1113 0.984 1_554 S
N1107 C1100 1.356 . S
N1107 H1110 0.984 . S
N1107 H1111 0.985 1_554 S
H1108 N1103 0.984 . S
H1109 N1103 0.985 . S
H1110 N1107 0.984 . S
H1111 N1107 0.985 1_556 S
H1112 N1106 0.984 . S
H1113 N1106 0.984 1_556 S
H1114 N1102 0.984 . S
H1115 N1102 0.985 . S
C1116 C1117 1.363 1_554 S
C1116 C1122 1.379 . S
C1116 N1124 1.356 1_554 S
C1117 C1116 1.363 1_556 S
C1117 C1123 1.363 . S
C1118 C1119 1.363 . S
C1118 C1123 1.379 1_554 S
C1118 N1125 1.356 . S
C1119 C1118 1.363 . S
C1119 C1122 1.363 . S
N1120 C1122 1.356 . S
N1120 H1132 0.984 . S
N1120 H1133 0.985 . S
N1121 C1123 1.356 . S
N1121 H1126 0.984 . S
N1121 H1127 0.985 . S
C1122 C1116 1.379 . S
C1122 C1119 1.363 . S
C1122 N1120 1.356 . S
C1123 C1117 1.363 . S
C1123 C1118 1.379 1_556 S
C1123 N1121 1.356 . S
N1124 C1116 1.356 1_556 S
N1124 H1130 0.984 1_556 S
N1124 H1131 0.984 . S
N1125 C1118 1.356 . S
N1125 H1128 0.984 . S
N1125 H1129 0.985 . S
H1126 N1121 0.984 . S
H1127 N1121 0.985 . S
H1128 N1125 0.984 . S
H1129 N1125 0.985 . S
H1130 N1124 0.984 1_554 S
H1131 N1124 0.984 . S
H1132 N1120 0.984 . S
H1133 N1120 0.985 . S
C1134 C1135 1.363 . S
C1134 C1140 1.379 1_556 S
C1134 N1142 1.356 . S
C1135 C1134 1.363 . S
C1135 C1141 1.363 1_556 S
C1136 C1137 1.363 . S
C1136 C1141 1.379 . S
C1136 N1143 1.356 . S
C1137 C1136 1.363 . S
C1137 C1140 1.363 . S
N1138 C1140 1.356 . S
N1138 H1150 0.984 1_554 S
N1138 H1151 0.985 . S
N1139 C1141 1.356 . S
N1139 H1144 0.984 1_554 S
N1139 H1145 0.985 . S
C1140 C1134 1.379 1_554 S
C1140 C1137 1.363 . S
C1140 N1138 1.356 . S
C1141 C1135 1.363 1_554 S
C1141 C1136 1.379 . S
C1141 N1139 1.356 . S
N1142 C1134 1.356 . S
N1142 H1148 0.984 . S
N1142 H1149 0.984 . S
N1143 C1136 1.356 . S
N1143 H1146 0.984 . S
N1143 H1147 0.985 . S
H1144 N1139 0.984 1_556 S
H1145 N1139 0.985 . S
H1146 N1143 0.984 . S
H1147 N1143 0.985 . S
H1148 N1142 0.984 . S
H1149 N1142 0.984 . S
H1150 N1138 0.984 1_556 S
H1151 N1138 0.985 . S
C1152 C1153 1.363 . S
C1152 C1158 1.379 . S
C1152 N1160 1.356 . S
C1153 C1152 1.363 . S
C1153 C1159 1.363 . S
C1154 C1155 1.363 . S
C1154 C1159 1.379 . S
C1154 N1161 1.356 . S
C1155 C1154 1.363 . S
C1155 C1158 1.363 . S
N1156 C1158 1.356 . S
N1156 H1168 0.984 . S
N1156 H1169 0.985 . S
N1157 C1159 1.356 . S
N1157 H1162 0.984 . S
N1157 H1163 0.985 . S
C1158 C1152 1.379 . S
C1158 C1155 1.363 . S
C1158 N1156 1.356 . S
C1159 C1153 1.363 . S
C1159 C1154 1.379 . S
C1159 N1157 1.356 . S
N1160 C1152 1.356 . S
N1160 H1166 0.984 . S
N1160 H1167 0.984 . S
N1161 C1154 1.356 . S
N1161 H1164 0.984 . S
N1161 H1165 0.985 . S
H1162 N1157 0.984 . S
H1163 N1157 0.985 . S
H1164 N1161 0.984 . S
H1165 N1161 0.985 . S
H1166 N1160 0.984 . S
H1167 N1160 0.984 . S
H1168 N1156 0.984 . S
H1169 N1156 0.985 . S
C1170 C1171 1.363 . S
C1170 C1176 1.379 . S
C1170 N1178 1.356 . S
C1171 C1170 1.363 . S
C1171 C1177 1.363 . S
C1172 C1173 1.363 . S
C1172 C1177 1.379 . S
C1172 N1179 1.356 . S
C1173 C1172 1.363 . S
C1173 C1176 1.363 . S
N1174 C1176 1.356 . S
N1174 H1186 0.984 . S
N1174 H1187 0.985 . S
N1175 C1177 1.356 . S
N1175 H1180 0.984 . S
N1175 H1181 0.985 . S
C1176 C1170 1.379 . S
C1176 C1173 1.363 . S
C1176 N1174 1.356 . S
C1177 C1171 1.363 . S
C1177 C1172 1.379 . S
C1177 N1175 1.356 . S
N1178 C1170 1.356 . S
N1178 H1184 0.984 . S
N1178 H1185 0.984 . S
N1179 C1172 1.356 . S
N1179 H1182 0.984 . S
N1179 H1183 0.985 . S
H1180 N1175 0.984 . S
H1181 N1175 0.985 . S
H1182 N1179 0.984 . S
H1183 N1179 0.985 . S
H1184 N1178 0.984 . S
H1185 N1178 0.984 . S
H1186 N1174 0.984 . S
H1187 N1174 0.985 . S
C1188 C1189 1.363 . S
C1188 C1194 1.379 . S
C1188 N1196 1.356 . S
C1189 C1188 1.363 . S
C1189 C1195 1.363 . S
C1190 C1191 1.363 . S
C1190 C1195 1.379 . S
C1190 N1197 1.356 . S
C1191 C1190 1.363 . S
C1191 C1194 1.363 . S
N1192 C1194 1.356 . S
N1192 H1204 0.984 . S
N1192 H1205 0.985 . S
N1193 C1195 1.356 . S
N1193 H1198 0.984 . S
N1193 H1199 0.985 . S
C1194 C1188 1.379 . S
C1194 C1191 1.363 . S
C1194 N1192 1.356 . S
C1195 C1189 1.363 . S
C1195 C1190 1.379 . S
C1195 N1193 1.356 . S
N1196 C1188 1.356 . S
N1196 H1202 0.984 . S
N1196 H1203 0.984 . S
N1197 C1190 1.356 . S
N1197 H1200 0.984 . S
N1197 H1201 0.985 . S
H1198 N1193 0.984 . S
H1199 N1193 0.985 . S
H1200 N1197 0.984 . S
H1201 N1197 0.985 . S
H1202 N1196 0.984 . S
H1203 N1196 0.984 . S
H1204 N1192 0.984 . S
H1205 N1192 0.985 . S
C1206 C1207 1.363 . S
C1206 C1212 1.379 . S
C1206 N1214 1.356 . S
C1207 C1206 1.363 . S
C1207 C1213 1.363 . S
C1208 C1209 1.363 . S
C1208 C1213 1.379 . S
C1208 N1215 1.356 . S
C1209 C1208 1.363 . S
C1209 C1212 1.363 . S
N1210 C1212 1.356 . S
N1210 H1222 0.984 . S
N1210 H1223 0.985 . S
N1211 C1213 1.356 . S
N1211 H1216 0.984 . S
N1211 H1217 0.985 . S
C1212 C1206 1.379 . S
C1212 C1209 1.363 . S
C1212 N1210 1.356 . S
C1213 C1207 1.363 . S
C1213 C1208 1.379 . S
C1213 N1211 1.356 . S
N1214 C1206 1.356 . S
N1214 H1220 0.984 . S
N1214 H1221 0.984 . S
N1215 C1208 1.356 . S
N1215 H1218 0.984 . S
N1215 H1219 0.985 . S
H1216 N1211 0.984 . S
H1217 N1211 0.985 . S
H1218 N1215 0.984 . S
H1219 N1215 0.985 . S
H1220 N1214 0.984 . S
H1221 N1214 0.984 . S
H1222 N1210 0.984 . S
H1223 N1210 0.985 . S
C1224 C1225 1.363 . S
C1224 C1230 1.379 . S
C1224 N1232 1.356 . S
C1225 C1224 1.363 . S
C1225 C1231 1.363 . S
C1226 C1227 1.363 . S
C1226 C1231 1.379 . S
C1226 N1233 1.356 . S
C1227 C1226 1.363 . S
C1227 C1230 1.363 . S
N1228 C1230 1.356 . S
N1228 H1240 0.984 . S
N1228 H1241 0.985 . S
N1229 C1231 1.356 . S
N1229 H1234 0.984 . S
N1229 H1235 0.985 . S
C1230 C1224 1.379 . S
C1230 C1227 1.363 . S
C1230 N1228 1.356 . S
C1231 C1225 1.363 . S
C1231 C1226 1.379 . S
C1231 N1229 1.356 . S
N1232 C1224 1.356 . S
N1232 H1238 0.984 . S
N1232 H1239 0.984 . S
N1233 C1226 1.356 . S
N1233 H1236 0.984 . S
N1233 H1237 0.985 . S
H1234 N1229 0.984 . S
H1235 N1229 0.985 . S
H1236 N1233 0.984 . S
H1237 N1233 0.985 . S
H1238 N1232 0.984 . S
H1239 N1232 0.984 . S
H1240 N1228 0.984 . S
H1241 N1228 0.985 . S
C1242 C1243 1.363 . S
C1242 C1248 1.379 . S
C1242 N1250 1.356 . S
C1243 C1242 1.363 . S
C1243 C1249 1.363 . S
C1244 C1245 1.363 . S
C1244 C1249 1.379 . S
C1244 N1251 1.356 . S
C1245 C1244 1.363 . S
C1245 C1248 1.363 . S
N1246 C1248 1.356 . S
N1246 H1258 0.984 . S
N1246 H1259 0.985 . S
N1247 C1249 1.356 . S
N1247 H1252 0.984 . S
N1247 H1253 0.985 . S
C1248 C1242 1.379 . S
C1248 C1245 1.363 . S
C1248 N1246 1.356 . S
C1249 C1243 1.363 . S
C1249 C1244 1.379 . S
C1249 N1247 1.356 . S
N1250 C1242 1.356 . S
N1250 H1256 0.984 . S
N1250 H1257 0.984 . S
N1251 C1244 1.356 . S
N1251 H1254 0.984 . S
N1251 H1255 0.985 . S
H1252 N1247 0.984 . S
H1253 N1247 0.985 . S
H1254 N1251 0.984 . S
H1255 N1251 0.985 . S
H1256 N1250 0.984 . S
H1257 N1250 0.984 . S
H1258 N1246 0.984 . S
H1259 N1246 0.985 . S
C1260 C1261 1.363 . S
C1260 C1266 1.379 . S
C1260 N1268 1.356 . S
C1261 C1260 1.363 . S
C1261 C1267 1.363 . S
C1262 C1263 1.363 . S
C1262 C1267 1.379 . S
C1262 N1269 1.356 . S
C1263 C1262 1.363 . S
C1263 C1266 1.363 . S
N1264 C1266 1.356 . S
N1264 H1276 0.984 . S
N1264 H1277 0.985 . S
N1265 C1267 1.356 . S
N1265 H1270 0.984 . S
N1265 H1271 0.985 . S
C1266 C1260 1.379 . S
C1266 C1263 1.363 . S
C1266 N1264 1.356 . S
C1267 C1261 1.363 . S
C1267 C1262 1.379 . S
C1267 N1265 1.356 . S
N1268 C1260 1.356 . S
N1268 H1274 0.984 . S
N1268 H1275 0.984 . S
N1269 C1262 1.356 . S
N1269 H1272 0.984 . S
N1269 H1273 0.985 . S
H1270 N1265 0.984 . S
H1271 N1265 0.985 . S
H1272 N1269 0.984 . S
H1273 N1269 0.985 . S
H1274 N1268 0.984 . S
H1275 N1268 0.984 . S
H1276 N1264 0.984 . S
H1277 N1264 0.985 . S
C1278 C1279 1.363 . S
C1278 C1284 1.379 . S
C1278 N1286 1.356 . S
C1279 C1278 1.363 . S
C1279 C1285 1.363 . S
C1280 C1281 1.363 . S
C1280 C1285 1.379 . S
C1280 N1287 1.356 . S
C1281 C1280 1.363 . S
C1281 C1284 1.363 . S
N1282 C1284 1.356 . S
N1282 H1294 0.984 . S
N1282 H1295 0.985 . S
N1283 C1285 1.356 . S
N1283 H1288 0.984 . S
N1283 H1289 0.985 . S
C1284 C1278 1.379 . S
C1284 C1281 1.363 . S
C1284 N1282 1.356 . S
C1285 C1279 1.363 . S
C1285 C1280 1.379 . S
C1285 N1283 1.356 . S
N1286 C1278 1.356 . S
N1286 H1292 0.984 . S
N1286 H1293 0.984 . S
N1287 C1280 1.356 . S
N1287 H1290 0.984 . S
N1287 H1291 0.985 . S
H1288 N1283 0.984 . S
H1289 N1283 0.985 . S
H1290 N1287 0.984 . S
H1291 N1287 0.985 . S
H1292 N1286 0.984 . S
H1293 N1286 0.984 . S
H1294 N1282 0.984 . S
H1295 N1282 0.985 . S
C1296 C1297 1.363 . S
C1296 C1302 1.379 . S
C1296 N1304 1.356 . S
C1297 C1296 1.363 . S
C1297 C1303 1.363 . S
C1298 C1299 1.363 . S
C1298 C1303 1.379 . S
C1298 N1305 1.356 . S
C1299 C1298 1.363 . S
C1299 C1302 1.363 . S
N1300 C1302 1.356 . S
N1300 H1312 0.984 . S
N1300 H1313 0.985 . S
N1301 C1303 1.356 . S
N1301 H1306 0.984 . S
N1301 H1307 0.985 . S
C1302 C1296 1.379 . S
C1302 C1299 1.363 . S
C1302 N1300 1.356 . S
C1303 C1297 1.363 . S
C1303 C1298 1.379 . S
C1303 N1301 1.356 . S
N1304 C1296 1.356 . S
N1304 H1310 0.984 . S
N1304 H1311 0.984 . S
N1305 C1298 1.356 . S
N1305 H1308 0.984 . S
N1305 H1309 0.985 . S
H1306 N1301 0.984 . S
H1307 N1301 0.985 . S
H1308 N1305 0.984 . S
H1309 N1305 0.985 . S
H1310 N1304 0.984 . S
H1311 N1304 0.984 . S
H1312 N1300 0.984 . S
H1313 N1300 0.985 . S
C1314 C1315 1.363 . S
C1314 C1320 1.379 . S
C1314 N1322 1.356 . S
C1315 C1314 1.363 . S
C1315 C1321 1.363 . S
C1316 C1317 1.363 . S
C1316 C1321 1.379 . S
C1316 N1323 1.356 . S
C1317 C1316 1.363 . S
C1317 C1320 1.363 . S
N1318 C1320 1.356 . S
N1318 H1330 0.984 . S
N1318 H1331 0.985 . S
N1319 C1321 1.356 . S
N1319 H1324 0.984 . S
N1319 H1325 0.985 . S
C1320 C1314 1.379 . S
C1320 C1317 1.363 . S
C1320 N1318 1.356 . S
C1321 C1315 1.363 . S
C1321 C1316 1.379 . S
C1321 N1319 1.356 . S
N1322 C1314 1.356 . S
N1322 H1328 0.984 . S
N1322 H1329 0.984 . S
N1323 C1316 1.356 . S
N1323 H1326 0.984 . S
N1323 H1327 0.985 . S
H1324 N1319 0.984 . S
H1325 N1319 0.985 . S
H1326 N1323 0.984 . S
H1327 N1323 0.985 . S
H1328 N1322 0.984 . S
H1329 N1322 0.984 . S
H1330 N1318 0.984 . S
H1331 N1318 0.985 . S
C1332 C1333 1.363 . S
C1332 C1338 1.379 . S
C1332 N1340 1.356 . S
C1333 C1332 1.363 . S
C1333 C1339 1.363 . S
C1334 C1335 1.363 . S
C1334 C1339 1.379 . S
C1334 N1341 1.356 . S
C1335 C1334 1.363 . S
C1335 C1338 1.363 . S
N1336 C1338 1.356 . S
N1336 H1348 0.984 . S
N1336 H1349 0.985 . S
N1337 C1339 1.356 . S
N1337 H1342 0.984 . S
N1337 H1343 0.985 . S
C1338 C1332 1.379 . S
C1338 C1335 1.363 . S
C1338 N1336 1.356 . S
C1339 C1333 1.363 . S
C1339 C1334 1.379 . S
C1339 N1337 1.356 . S
N1340 C1332 1.356 . S
N1340 H1346 0.984 . S
N1340 H1347 0.984 . S
N1341 C1334 1.356 . S
N1341 H1344 0.984 . S
N1341 H1345 0.985 . S
H1342 N1337 0.984 . S
H1343 N1337 0.985 . S
H1344 N1341 0.984 . S
H1345 N1341 0.985 . S
H1346 N1340 0.984 . S
H1347 N1340 0.984 . S
H1348 N1336 0.984 . S
H1349 N1336 0.985 . S
C1350 C1351 1.363 . S
C1350 C1356 1.379 . S
C1350 N1358 1.356 . S
C1351 C1350 1.363 . S
C1351 C1357 1.363 . S
C1352 C1353 1.363 . S
C1352 C1357 1.379 . S
C1352 N1359 1.356 . S
C1353 C1352 1.363 . S
C1353 C1356 1.363 . S
N1354 C1356 1.356 . S
N1354 H1366 0.984 . S
N1354 H1367 0.985 . S
N1355 C1357 1.356 . S
N1355 H1360 0.984 . S
N1355 H1361 0.985 . S
C1356 C1350 1.379 . S
C1356 C1353 1.363 . S
C1356 N1354 1.356 . S
C1357 C1351 1.363 . S
C1357 C1352 1.379 . S
C1357 N1355 1.356 . S
N1358 C1350 1.356 . S
N1358 H1364 0.984 . S
N1358 H1365 0.984 . S
N1359 C1352 1.356 . S
N1359 H1362 0.984 . S
N1359 H1363 0.985 . S
H1360 N1355 0.984 . S
H1361 N1355 0.985 . S
H1362 N1359 0.984 . S
H1363 N1359 0.985 . S
H1364 N1358 0.984 . S
H1365 N1358 0.984 . S
H1366 N1354 0.984 . S
H1367 N1354 0.985 . S
C1368 C1369 1.363 . S
C1368 C1374 1.379 . S
C1368 N1376 1.356 . S
C1369 C1368 1.363 . S
C1369 C1375 1.363 . S
C1370 C1371 1.363 . S
C1370 C1375 1.379 . S
C1370 N1377 1.356 . S
C1371 C1370 1.363 . S
C1371 C1374 1.363 . S
N1372 C1374 1.356 . S
N1372 H1384 0.984 . S
N1372 H1385 0.985 1_556 S
N1373 C1375 1.356 . S
N1373 H1378 0.984 . S
N1373 H1379 0.985 . S
C1374 C1368 1.379 . S
C1374 C1371 1.363 . S
C1374 N1372 1.356 . S
C1375 C1369 1.363 . S
C1375 C1370 1.379 . S
C1375 N1373 1.356 . S
N1376 C1368 1.356 . S
N1376 H1382 0.984 . S
N1376 H1383 0.984 . S
N1377 C1370 1.356 . S
N1377 H1380 0.984 . S
N1377 H1381 0.985 . S
H1378 N1373 0.984 . S
H1379 N1373 0.985 . S
H1380 N1377 0.984 . S
H1381 N1377 0.985 . S
H1382 N1376 0.984 . S
H1383 N1376 0.984 . S
H1384 N1372 0.984 . S
H1385 N1372 0.985 1_554 S
C1386 C1387 1.363 . S
C1386 C1392 1.379 . S
C1386 N1394 1.356 . S
C1387 C1386 1.363 . S
C1387 C1393 1.363 . S
C1388 C1389 1.363 . S
C1388 C1393 1.379 . S
C1388 N1395 1.356 . S
C1389 C1388 1.363 . S
C1389 C1392 1.363 . S
N1390 C1392 1.356 . S
N1390 H1402 0.984 . S
N1390 H1403 0.985 . S
N1391 C1393 1.356 . S
N1391 H1396 0.984 . S
N1391 H1397 0.985 . S
C1392 C1386 1.379 . S
C1392 C1389 1.363 . S
C1392 N1390 1.356 . S
C1393 C1387 1.363 . S
C1393 C1388 1.379 . S
C1393 N1391 1.356 . S
N1394 C1386 1.356 . S
N1394 H1400 0.984 1_556 S
N1394 H1401 0.984 1_556 S
N1395 C1388 1.356 . S
N1395 H1398 0.984 . S
N1395 H1399 0.985 . S
H1396 N1391 0.984 . S
H1397 N1391 0.985 . S
H1398 N1395 0.984 . S
H1399 N1395 0.985 . S
H1400 N1394 0.984 1_554 S
H1401 N1394 0.984 1_554 S
H1402 N1390 0.984 . S
H1403 N1390 0.985 . S
C1404 C1405 1.363 . S
C1404 C1410 1.379 . S
C1404 N1412 1.356 . S
C1405 C1404 1.363 . S
C1405 C1411 1.363 . S
C1406 C1407 1.363 . S
C1406 C1411 1.379 . S
C1406 N1413 1.356 . S
C1407 C1406 1.363 . S
C1407 C1410 1.363 . S
N1408 C1410 1.356 . S
N1408 H1420 0.984 . S
N1408 H1421 0.985 1_556 S
N1409 C1411 1.356 . S
N1409 H1414 0.984 . S
N1409 H1415 0.985 . S
C1410 C1404 1.379 . S
C1410 C1407 1.363 . S
C1410 N1408 1.356 . S
C1411 C1405 1.363 . S
C1411 C1406 1.379 . S
C1411 N1409 1.356 . S
N1412 C1404 1.356 . S
N1412 H1418 0.984 . S
N1412 H1419 0.984 . S
N1413 C1406 1.356 . S
N1413 H1416 0.984 . S
N1413 H1417 0.985 . S
H1414 N1409 0.984 . S
H1415 N1409 0.985 . S
H1416 N1413 0.984 . S
H1417 N1413 0.985 . S
H1418 N1412 0.984 . S
H1419 N1412 0.984 . S
H1420 N1408 0.984 . S
H1421 N1408 0.985 1_554 S
C1422 C1423 1.363 . S
C1422 C1428 1.379 1_556 S
C1422 N1430 1.356 . S
C1423 C1422 1.363 . S
C1423 C1429 1.363 . S
C1424 C1425 1.363 1_556 S
C1424 C1429 1.379 . S
C1424 N1431 1.356 . S
C1425 C1424 1.363 1_554 S
C1425 C1428 1.363 . S
N1426 C1428 1.356 . S
N1426 H1438 0.984 . S
N1426 H1439 0.985 . S
N1427 C1429 1.356 . S
N1427 H1432 0.984 . S
N1427 H1433 0.985 . S
C1428 C1422 1.379 1_554 S
C1428 C1425 1.363 . S
C1428 N1426 1.356 . S
C1429 C1423 1.363 . S
C1429 C1424 1.379 . S
C1429 N1427 1.356 . S
N1430 C1422 1.356 . S
N1430 H1436 0.984 1_556 S
N1430 H1437 0.984 . S
N1431 C1424 1.356 . S
N1431 H1434 0.984 . S
N1431 H1435 0.985 . S
H1432 N1427 0.984 . S
H1433 N1427 0.985 . S
H1434 N1431 0.984 . S
H1435 N1431 0.985 . S
H1436 N1430 0.984 1_554 S
H1437 N1430 0.984 . S
H1438 N1426 0.984 . S
H1439 N1426 0.985 . S
C1440 C1441 1.363 . S
C1440 C1446 1.379 . S
C1440 N1448 1.356 . S
C1441 C1440 1.363 . S
C1441 C1447 1.363 . S
C1442 C1443 1.363 . S
C1442 C1447 1.379 1_554 S
C1442 N1449 1.356 . S
C1443 C1442 1.363 . S
C1443 C1446 1.363 1_554 S
N1444 C1446 1.356 . S
N1444 H1456 0.984 . S
N1444 H1457 0.985 1_556 S
N1445 C1447 1.356 . S
N1445 H1450 0.984 . S
N1445 H1451 0.985 1_556 S
C1446 C1440 1.379 . S
C1446 C1443 1.363 1_556 S
C1446 N1444 1.356 . S
C1447 C1441 1.363 . S
C1447 C1442 1.379 1_556 S
C1447 N1445 1.356 . S
N1448 C1440 1.356 . S
N1448 H1454 0.984 . S
N1448 H1455 0.984 . S
N1449 C1442 1.356 . S
N1449 H1452 0.984 . S
N1449 H1453 0.985 . S
H1450 N1445 0.984 . S
H1451 N1445 0.985 1_554 S
H1452 N1449 0.984 . S
H1453 N1449 0.985 . S
H1454 N1448 0.984 . S
H1455 N1448 0.984 . S
H1456 N1444 0.984 . S
H1457 N1444 0.985 1_554 S
C1458 C1459 1.363 . S
C1458 C1464 1.379 . S
C1458 N1466 1.356 . S
C1459 C1458 1.363 . S
C1459 C1465 1.363 . S
C1460 C1461 1.363 . S
C1460 C1465 1.379 1_554 S
C1460 N1467 1.356 . S
C1461 C1460 1.363 . S
C1461 C1464 1.363 1_554 S
N1462 C1464 1.356 . S
N1462 H1474 0.984 . S
N1462 H1475 0.985 . S
N1463 C1465 1.356 . S
N1463 H1468 0.984 . S
N1463 H1469 0.985 1_556 S
C1464 C1458 1.379 . S
C1464 C1461 1.363 1_556 S
C1464 N1462 1.356 . S
C1465 C1459 1.363 . S
C1465 C1460 1.379 1_556 S
C1465 N1463 1.356 . S
N1466 C1458 1.356 . S
N1466 H1472 0.984 . S
N1466 H1473 0.984 . S
N1467 C1460 1.356 . S
N1467 H1470 0.984 . S
N1467 H1471 0.985 . S
H1468 N1463 0.984 . S
H1469 N1463 0.985 1_554 S
H1470 N1467 0.984 . S
H1471 N1467 0.985 . S
H1472 N1466 0.984 . S
H1473 N1466 0.984 . S
H1474 N1462 0.984 . S
H1475 N1462 0.985 . S
C1476 C1477 1.363 . S
C1476 C1482 1.379 . S
C1476 N1484 1.356 . S
C1477 C1476 1.363 . S
C1477 C1483 1.363 . S
C1478 C1479 1.363 . S
C1478 C1483 1.379 . S
C1478 N1485 1.356 1_556 S
C1479 C1478 1.363 . S
C1479 C1482 1.363 . S
N1480 C1482 1.356 . S
N1480 H1492 0.984 . S
N1480 H1493 0.985 . S
N1481 C1483 1.356 . S
N1481 H1486 0.984 . S
N1481 H1487 0.985 1_556 S
C1482 C1476 1.379 . S
C1482 C1479 1.363 . S
C1482 N1480 1.356 . S
C1483 C1477 1.363 . S
C1483 C1478 1.379 . S
C1483 N1481 1.356 . S
N1484 C1476 1.356 . S
N1484 H1490 0.984 . S
N1484 H1491 0.984 . S
N1485 C1478 1.356 1_554 S
N1485 H1488 0.984 . S
N1485 H1489 0.985 . S
H1486 N1481 0.984 . S
H1487 N1481 0.985 1_554 S
H1488 N1485 0.984 . S
H1489 N1485 0.985 . S
H1490 N1484 0.984 . S
H1491 N1484 0.984 . S
H1492 N1480 0.984 . S
H1493 N1480 0.985 . S
C1494 C1495 1.363 . S
C1494 C1500 1.379 . S
C1494 N1502 1.356 . S
C1495 C1494 1.363 . S
C1495 C1501 1.363 1_556 S
C1496 C1497 1.363 . S
C1496 C1501 1.379 1_556 S
C1496 N1503 1.356 . S
C1497 C1496 1.363 . S
C1497 C1500 1.363 . S
N1498 C1500 1.356 . S
N1498 H1510 0.984 . S
N1498 H1511 0.985 . S
N1499 C1501 1.356 . S
N1499 H1504 0.984 . S
N1499 H1505 0.985 . S
C1500 C1494 1.379 . S
C1500 C1497 1.363 . S
C1500 N1498 1.356 . S
C1501 C1495 1.363 1_554 S
C1501 C1496 1.379 1_554 S
C1501 N1499 1.356 . S
N1502 C1494 1.356 . S
N1502 H1508 0.984 . S
N1502 H1509 0.984 . S
N1503 C1496 1.356 . S
N1503 H1506 0.984 . S
N1503 H1507 0.985 1_556 S
H1504 N1499 0.984 . S
H1505 N1499 0.985 . S
H1506 N1503 0.984 . S
H1507 N1503 0.985 1_554 S
H1508 N1502 0.984 . S
H1509 N1502 0.984 . S
H1510 N1498 0.984 . S
H1511 N1498 0.985 . S
C1512 C1513 1.363 . S
C1512 C1518 1.379 . S
C1512 N1520 1.356 . S
C1513 C1512 1.363 . S
C1513 C1519 1.363 . S
C1514 C1515 1.363 . S
C1514 C1519 1.379 . S
C1514 N1521 1.356 1_556 S
C1515 C1514 1.363 . S
C1515 C1518 1.363 . S
N1516 C1518 1.356 . S
N1516 H1528 0.984 . S
N1516 H1529 0.985 . S
N1517 C1519 1.356 . S
N1517 H1522 0.984 . S
N1517 H1523 0.985 1_556 S
C1518 C1512 1.379 . S
C1518 C1515 1.363 . S
C1518 N1516 1.356 . S
C1519 C1513 1.363 . S
C1519 C1514 1.379 . S
C1519 N1517 1.356 . S
N1520 C1512 1.356 . S
N1520 H1526 0.984 . S
N1520 H1527 0.984 . S
N1521 C1514 1.356 1_554 S
N1521 H1524 0.984 . S
N1521 H1525 0.985 . S
H1522 N1517 0.984 . S
H1523 N1517 0.985 1_554 S
H1524 N1521 0.984 . S
H1525 N1521 0.985 . S
H1526 N1520 0.984 . S
H1527 N1520 0.984 . S
H1528 N1516 0.984 . S
H1529 N1516 0.985 . S
C1530 C1531 1.363 . S
C1530 C1536 1.379 . S
C1530 N1538 1.356 . S
C1531 C1530 1.363 . S
C1531 C1537 1.363 . S
C1532 C1533 1.363 . S
C1532 C1537 1.379 . S
C1532 N1539 1.356 . S
C1533 C1532 1.363 . S
C1533 C1536 1.363 . S
N1534 C1536 1.356 . S
N1534 H1546 0.984 . S
N1534 H1547 0.985 . S
N1535 C1537 1.356 . S
N1535 H1540 0.984 . S
N1535 H1541 0.985 . S
C1536 C1530 1.379 . S
C1536 C1533 1.363 . S
C1536 N1534 1.356 . S
C1537 C1531 1.363 . S
C1537 C1532 1.379 . S
C1537 N1535 1.356 . S
N1538 C1530 1.356 . S
N1538 H1544 0.984 . S
N1538 H1545 0.984 . S
N1539 C1532 1.356 . S
N1539 H1542 0.984 . S
N1539 H1543 0.985 . S
H1540 N1535 0.984 . S
H1541 N1535 0.985 . S
H1542 N1539 0.984 . S
H1543 N1539 0.985 . S
H1544 N1538 0.984 . S
H1545 N1538 0.984 . S
H1546 N1534 0.984 . S
H1547 N1534 0.985 . S
C1548 C1549 1.363 . S
C1548 C1554 1.379 . S
C1548 N1556 1.356 . S
C1549 C1548 1.363 . S
C1549 C1555 1.363 . S
C1550 C1551 1.363 . S
C1550 C1555 1.379 . S
C1550 N1557 1.356 . S
C1551 C1550 1.363 . S
C1551 C1554 1.363 . S
N1552 C1554 1.356 . S
N1552 H1564 0.984 . S
N1552 H1565 0.985 . S
N1553 C1555 1.356 . S
N1553 H1558 0.984 . S
N1553 H1559 0.985 . S
C1554 C1548 1.379 . S
C1554 C1551 1.363 . S
C1554 N1552 1.356 . S
C1555 C1549 1.363 . S
C1555 C1550 1.379 . S
C1555 N1553 1.356 . S
N1556 C1548 1.356 . S
N1556 H1562 0.984 . S
N1556 H1563 0.984 . S
N1557 C1550 1.356 . S
N1557 H1560 0.984 . S
N1557 H1561 0.985 . S
H1558 N1553 0.984 . S
H1559 N1553 0.985 . S
H1560 N1557 0.984 . S
H1561 N1557 0.985 . S
H1562 N1556 0.984 . S
H1563 N1556 0.984 . S
H1564 N1552 0.984 . S
H1565 N1552 0.985 . S
C1566 C1567 1.363 . S
C1566 C1572 1.379 . S
C1566 N1574 1.356 . S
C1567 C1566 1.363 . S
C1567 C1573 1.363 . S
C1568 C1569 1.363 . S
C1568 C1573 1.379 . S
C1568 N1575 1.356 . S
C1569 C1568 1.363 . S
C1569 C1572 1.363 . S
N1570 C1572 1.356 . S
N1570 H1582 0.984 . S
N1570 H1583 0.985 . S
N1571 C1573 1.356 . S
N1571 H1576 0.984 . S
N1571 H1577 0.985 . S
C1572 C1566 1.379 . S
C1572 C1569 1.363 . S
C1572 N1570 1.356 . S
C1573 C1567 1.363 . S
C1573 C1568 1.379 . S
C1573 N1571 1.356 . S
N1574 C1566 1.356 . S
N1574 H1580 0.984 . S
N1574 H1581 0.984 . S
N1575 C1568 1.356 . S
N1575 H1578 0.984 . S
N1575 H1579 0.985 . S
H1576 N1571 0.984 . S
H1577 N1571 0.985 . S
H1578 N1575 0.984 . S
H1579 N1575 0.985 . S
H1580 N1574 0.984 . S
H1581 N1574 0.984 . S
H1582 N1570 0.984 . S
H1583 N1570 0.985 . S
C1584 C1585 1.363 . S
C1584 C1590 1.379 . S
C1584 N1592 1.356 . S
C1585 C1584 1.363 . S
C1585 C1591 1.363 1_554 S
C1586 C1587 1.363 . S
C1586 C1591 1.379 1_554 S
C1586 N1593 1.356 . S
C1587 C1586 1.363 . S
C1587 C1590 1.363 . S
N1588 C1590 1.356 . S
N1588 H1600 0.984 . S
N1588 H1601 0.985 . S
N1589 C1591 1.356 . S
N1589 H1594 0.984 . S
N1589 H1595 0.985 . S
C1590 C1584 1.379 . S
C1590 C1587 1.363 . S
C1590 N1588 1.356 . S
C1591 C1585 1.363 1_556 S
C1591 C1586 1.379 1_556 S
C1591 N1589 1.356 . S
N1592 C1584 1.356 . S
N1592 H1598 0.984 . S
N1592 H1599 0.984 . S
N1593 C1586 1.356 . S
N1593 H1596 0.984 . S
N1593 H1597 0.985 1_554 S
H1594 N1589 0.984 . S
H1595 N1589 0.985 . S
H1596 N1593 0.984 . S
H1597 N1593 0.985 1_556 S
H1598 N1592 0.984 . S
H1599 N1592 0.984 . S
H1600 N1588 0.984 . S
H1601 N1588 0.985 . S
C1602 C1603 1.363 . S
C1602 C1608 1.379 . S
C1602 N1610 1.356 . S
C1603 C1602 1.363 . S
C1603 C1609 1.363 . S
C1604 C1605 1.359 1_556 S
C1604 C1609 1.376 1_556 S
C1604 N1611 1.363 . S
C1605 C1604 1.359 1_554 S
C1605 C1608 1.363 . S
N1606 C1608 1.356 . S
N1606 H1618 0.984 . S
N1606 H1619 0.985 . S
N1607 C1609 1.356 . S
N1607 H1612 0.984 . S
N1607 H1613 0.985 1_554 S
C1608 C1602 1.379 . S
C1608 C1605 1.363 . S
C1608 N1606 1.356 . S
C1609 C1603 1.363 . S
C1609 C1604 1.376 1_554 S
C1609 N1607 1.356 . S
N1610 C1602 1.356 . S
N1610 H1616 0.984 . S
N1610 H1617 0.984 . S
N1611 C1604 1.363 . S
N1611 H1614 0.984 . S
N1611 H1615 0.985 . S
H1612 N1607 0.984 . S
H1613 N1607 0.985 1_556 S
H1614 N1611 0.984 . S
H1615 N1611 0.985 . S
H1616 N1610 0.984 . S
H1617 N1610 0.984 . S
H1618 N1606 0.984 . S
H1619 N1606 0.985 . S
C1620 C1621 1.363 . S
C1620 C1626 1.379 . S
C1620 N1628 1.356 . S
C1621 C1620 1.363 . S
C1621 C1627 1.363 . S
C1622 C1623 1.363 . S
C1622 C1627 1.379 . S
C1622 N1629 1.356 . S
C1623 C1622 1.363 . S
C1623 C1626 1.363 . S
N1624 C1626 1.356 1_556 S
N1624 H1636 0.984 . S
N1624 H1637 0.985 . S
N1625 C1627 1.356 . S
N1625 H1630 0.984 . S
N1625 H1631 0.985 . S
C1626 C1620 1.379 . S
C1626 C1623 1.363 . S
C1626 N1624 1.356 1_554 S
C1627 C1621 1.363 . S
C1627 C1622 1.379 . S
C1627 N1625 1.356 . S
N1628 C1620 1.356 . S
N1628 H1634 0.984 1_554 S
N1628 H1635 0.984 . S
N1629 C1622 1.356 . S
N1629 H1632 0.984 . S
N1629 H1633 0.985 . S
H1630 N1625 0.984 . S
H1631 N1625 0.985 . S
H1632 N1629 0.984 . S
H1633 N1629 0.985 . S
H1634 N1628 0.984 1_556 S
H1635 N1628 0.984 . S
H1636 N1624 0.984 . S
H1637 N1624 0.985 . S
C1638 C1639 1.363 . S
C1638 C1644 1.379 . S
C1638 N1646 1.356 . S
C1639 C1638 1.363 . S
C1639 C1645 1.363 . S
C1640 C1641 1.363 . S
C1640 C1645 1.379 . S
C1640 N1647 1.356 . S
C1641 C1640 1.363 . S
C1641 C1644 1.363 . S
N1642 C1644 1.356 . S
N1642 H1654 0.984 . S
N1642 H1655 0.985 . S
N1643 C1645 1.356 . S
N1643 H1648 0.984 . S
N1643 H1649 0.985 . S
C1644 C1638 1.379 . S
C1644 C1641 1.363 . S
C1644 N1642 1.356 . S
C1645 C1639 1.363 . S
C1645 C1640 1.379 . S
C1645 N1643 1.356 . S
N1646 C1638 1.356 . S
N1646 H1652 0.984 . S
N1646 H1653 0.984 . S
N1647 C1640 1.356 . S
N1647 H1650 0.984 . S
N1647 H1651 0.985 . S
H1648 N1643 0.984 . S
H1649 N1643 0.985 . S
H1650 N1647 0.984 . S
H1651 N1647 0.985 . S
H1652 N1646 0.984 . S
H1653 N1646 0.984 . S
H1654 N1642 0.984 . S
H1655 N1642 0.985 . S
C1656 C1657 1.363 . S
C1656 C1662 1.379 . S
C1656 N1664 1.356 . S
C1657 C1656 1.363 . S
C1657 C1663 1.363 . S
C1658 C1659 1.363 . S
C1658 C1663 1.379 . S
C1658 N1665 1.356 . S
C1659 C1658 1.363 . S
C1659 C1662 1.363 . S
N1660 C1662 1.356 . S
N1660 H1672 0.984 . S
N1660 H1673 0.985 . S
N1661 C1663 1.356 . S
N1661 H1666 0.984 . S
N1661 H1667 0.985 . S
C1662 C1656 1.379 . S
C1662 C1659 1.363 . S
C1662 N1660 1.356 . S
C1663 C1657 1.363 . S
C1663 C1658 1.379 . S
C1663 N1661 1.356 . S
N1664 C1656 1.356 . S
N1664 H1670 0.984 . S
N1664 H1671 0.984 . S
N1665 C1658 1.356 . S
N1665 H1668 0.984 . S
N1665 H1669 0.985 . S
H1666 N1661 0.984 . S
H1667 N1661 0.985 . S
H1668 N1665 0.984 . S
H1669 N1665 0.985 . S
H1670 N1664 0.984 . S
H1671 N1664 0.984 . S
H1672 N1660 0.984 . S
H1673 N1660 0.985 . S
C1674 C1675 1.363 . S
C1674 C1680 1.379 . S
C1674 N1682 1.356 . S
C1675 C1674 1.363 . S
C1675 C1681 1.363 . S
C1676 C1677 1.363 . S
C1676 C1681 1.379 . S
C1676 N1683 1.356 . S
C1677 C1676 1.363 . S
C1677 C1680 1.363 . S
N1678 C1680 1.356 . S
N1678 H1690 0.984 . S
N1678 H1691 0.985 . S
N1679 C1681 1.356 . S
N1679 H1684 0.984 . S
N1679 H1685 0.985 . S
C1680 C1674 1.379 . S
C1680 C1677 1.363 . S
C1680 N1678 1.356 . S
C1681 C1675 1.363 . S
C1681 C1676 1.379 . S
C1681 N1679 1.356 . S
N1682 C1674 1.356 . S
N1682 H1688 0.984 . S
N1682 H1689 0.984 . S
N1683 C1676 1.356 . S
N1683 H1686 0.984 . S
N1683 H1687 0.985 . S
H1684 N1679 0.984 . S
H1685 N1679 0.985 . S
H1686 N1683 0.984 . S
H1687 N1683 0.985 . S
H1688 N1682 0.984 . S
H1689 N1682 0.984 . S
H1690 N1678 0.984 . S
H1691 N1678 0.985 . S
C1692 C1693 1.363 . S
C1692 C1698 1.379 1_655 S
C1692 N1700 1.356 . S
C1693 C1692 1.363 . S
C1693 C1699 1.363 . S
C1694 C1695 1.363 . S
C1694 C1699 1.379 1_455 S
C1694 N1701 1.356 . S
C1695 C1694 1.363 . S
C1695 C1698 1.363 . S
N1696 C1698 1.356 . S
N1696 H1708 0.984 . S
N1696 H1709 0.985 . S
N1697 C1699 1.356 . S
N1697 H1702 0.984 . S
N1697 H1703 0.985 . S
C1698 C1692 1.379 1_455 S
C1698 C1695 1.363 . S
C1698 N1696 1.356 . S
C1699 C1693 1.363 . S
C1699 C1694 1.379 1_655 S
C1699 N1697 1.356 . S
N1700 C1692 1.356 . S
N1700 H1706 0.984 . S
N1700 H1707 0.984 . S
N1701 C1694 1.356 . S
N1701 H1704 0.984 . S
N1701 H1705 0.985 . S
H1702 N1697 0.984 . S
H1703 N1697 0.985 . S
H1704 N1701 0.984 . S
H1705 N1701 0.985 . S
H1706 N1700 0.984 . S
H1707 N1700 0.984 . S
H1708 N1696 0.984 . S
H1709 N1696 0.985 . S
C1710 C1711 1.363 . S
C1710 C1716 1.379 . S
C1710 N1718 1.356 . S
C1711 C1710 1.363 . S
C1711 C1717 1.363 . S
C1712 C1713 1.363 . S
C1712 C1717 1.379 . S
C1712 N1719 1.356 . S
C1713 C1712 1.363 . S
C1713 C1716 1.363 . S
N1714 C1716 1.356 . S
N1714 H1726 0.984 . S
N1714 H1727 0.985 . S
N1715 C1717 1.356 . S
N1715 H1720 0.984 . S
N1715 H1721 0.985 . S
C1716 C1710 1.379 . S
C1716 C1713 1.363 . S
C1716 N1714 1.356 . S
C1717 C1711 1.363 . S
C1717 C1712 1.379 . S
C1717 N1715 1.356 . S
N1718 C1710 1.356 . S
N1718 H1724 0.984 . S
N1718 H1725 0.984 . S
N1719 C1712 1.356 . S
N1719 H1722 0.984 . S
N1719 H1723 0.985 . S
H1720 N1715 0.984 . S
H1721 N1715 0.985 . S
H1722 N1719 0.984 . S
H1723 N1719 0.985 . S
H1724 N1718 0.984 . S
H1725 N1718 0.984 . S
H1726 N1714 0.984 . S
H1727 N1714 0.985 . S
C1728 C1729 1.363 . S
C1728 C1734 1.379 1_565 S
C1728 N1736 1.356 . S
C1729 C1728 1.363 . S
C1729 C1735 1.363 . S
C1730 C1731 1.363 . S
C1730 C1735 1.379 1_545 S
C1730 N1737 1.356 . S
C1731 C1730 1.363 . S
C1731 C1734 1.363 . S
N1732 C1734 1.356 . S
N1732 H1744 0.984 . S
N1732 H1745 0.985 . S
N1733 C1735 1.356 . S
N1733 H1738 0.984 . S
N1733 H1739 0.985 . S
C1734 C1728 1.379 1_545 S
C1734 C1731 1.363 . S
C1734 N1732 1.356 . S
C1735 C1729 1.363 . S
C1735 C1730 1.379 1_565 S
C1735 N1733 1.356 . S
N1736 C1728 1.356 . S
N1736 H1742 0.984 . S
N1736 H1743 0.984 . S
N1737 C1730 1.356 . S
N1737 H1740 0.984 . S
N1737 H1741 0.985 . S
H1738 N1733 0.984 . S
H1739 N1733 0.985 . S
H1740 N1737 0.984 . S
H1741 N1737 0.985 . S
H1742 N1736 0.984 . S
H1743 N1736 0.984 . S
H1744 N1732 0.984 . S
H1745 N1732 0.985 . S
C1746 C1747 1.363 . S
C1746 C1752 1.379 1_545 S
C1746 N1754 1.356 . S
C1747 C1746 1.363 . S
C1747 C1753 1.363 . S
C1748 C1749 1.363 . S
C1748 C1753 1.379 1_565 S
C1748 N1755 1.356 . S
C1749 C1748 1.363 . S
C1749 C1752 1.363 . S
N1750 C1752 1.356 . S
N1750 H1762 0.984 . S
N1750 H1763 0.985 . S
N1751 C1753 1.356 . S
N1751 H1756 0.984 . S
N1751 H1757 0.985 . S
C1752 C1746 1.379 1_565 S
C1752 C1749 1.363 . S
C1752 N1750 1.356 . S
C1753 C1747 1.363 . S
C1753 C1748 1.379 1_545 S
C1753 N1751 1.356 . S
N1754 C1746 1.356 . S
N1754 H1760 0.984 . S
N1754 H1761 0.984 . S
N1755 C1748 1.356 . S
N1755 H1758 0.984 . S
N1755 H1759 0.985 . S
H1756 N1751 0.984 . S
H1757 N1751 0.985 . S
H1758 N1755 0.984 . S
H1759 N1755 0.985 . S
H1760 N1754 0.984 . S
H1761 N1754 0.984 . S
H1762 N1750 0.984 . S
H1763 N1750 0.985 . S
C1764 C1765 1.363 . S
C1764 C1770 1.379 1_455 S
C1764 N1772 1.356 . S
C1765 C1764 1.363 . S
C1765 C1771 1.363 . S
C1766 C1767 1.363 . S
C1766 C1771 1.379 1_655 S
C1766 N1773 1.356 . S
C1767 C1766 1.363 . S
C1767 C1770 1.363 . S
N1768 C1770 1.356 . S
N1768 H1780 0.984 . S
N1768 H1781 0.985 . S
N1769 C1771 1.356 . S
N1769 H1774 0.984 . S
N1769 H1775 0.985 . S
C1770 C1764 1.379 1_655 S
C1770 C1767 1.363 . S
C1770 N1768 1.356 . S
C1771 C1765 1.363 . S
C1771 C1766 1.379 1_455 S
C1771 N1769 1.356 . S
N1772 C1764 1.356 . S
N1772 H1778 0.984 . S
N1772 H1779 0.984 . S
N1773 C1766 1.356 . S
N1773 H1776 0.984 . S
N1773 H1777 0.985 . S
H1774 N1769 0.984 . S
H1775 N1769 0.985 . S
H1776 N1773 0.984 . S
H1777 N1773 0.985 . S
H1778 N1772 0.984 . S
H1779 N1772 0.984 . S
H1780 N1768 0.984 . S
H1781 N1768 0.985 . S
C1782 C1783 1.363 . S
C1782 C1788 1.379 . S
C1782 N1790 1.356 . S
C1783 C1782 1.363 . S
C1783 C1789 1.363 . S
C1784 C1785 1.363 . S
C1784 C1789 1.379 . S
C1784 N1791 1.356 . S
C1785 C1784 1.363 . S
C1785 C1788 1.363 . S
N1786 C1788 1.356 . S
N1786 H1798 0.984 . S
N1786 H1799 0.985 . S
N1787 C1789 1.356 . S
N1787 H1792 0.984 . S
N1787 H1793 0.985 . S
C1788 C1782 1.379 . S
C1788 C1785 1.363 . S
C1788 N1786 1.356 . S
C1789 C1783 1.363 . S
C1789 C1784 1.379 . S
C1789 N1787 1.356 . S
N1790 C1782 1.356 . S
N1790 H1796 0.984 . S
N1790 H1797 0.984 . S
N1791 C1784 1.356 . S
N1791 H1794 0.984 . S
N1791 H1795 0.985 . S
H1792 N1787 0.984 . S
H1793 N1787 0.985 . S
H1794 N1791 0.984 . S
H1795 N1791 0.985 . S
H1796 N1790 0.984 . S
H1797 N1790 0.984 . S
H1798 N1786 0.984 . S
H1799 N1786 0.985 . S
C505 C78 1.348 . S
C507 C8 1.348 . S
C523 C22 1.348 . S
C525 C50 1.348 . S
C541 C64 1.348 . S
C543 C36 1.348 . S
C559 C92 1.348 . S
C561 C162 1.348 . S
C577 C106 1.348 . S
C579 C134 1.348 . S
C595 C148 1.348 . S
C597 C120 1.348 . S
C613 C246 1.348 . S
C615 C176 1.348 . S
C631 C190 1.348 . S
C633 C218 1.348 . S
C649 C232 1.348 . S
C651 C204 1.348 . S
C667 C260 1.348 . S
C669 C330 1.348 1_554 S
C685 C274 1.348 . S
C687 C302 1.348 1_554 S
C703 C288 1.348 . S
C705 C316 1.348 1_554 S
C721 C344 1.348 . S
C723 C414 1.348 1_556 S
C739 C386 1.348 1_556 S
C741 C358 1.348 . S
C757 C372 1.348 . S
C759 C400 1.348 1_556 S
C775 C428 1.348 . S
C777 C498 1.348 . S
C793 C442 1.348 . S
C795 C470 1.348 . S
C811 C456 1.348 . S
C813 C484 1.348 . S
C829 C147 1.349 . S
C831 C9 1.318 . S
C847 C161 1.349 . S
C849 C23 1.318 . S
C865 C133 1.349 . S
C867 C37 1.319 . S
C883 C119 1.349 . S
C885 C51 1.318 . S
C901 C65 1.318 . S
C903 C91 1.349 . S
C919 C79 1.318 . S
C921 C105 1.349 . S
C937 C93 1.318 . S
C939 C63 1.349 . S
C955 C107 1.318 . S
C957 C77 1.349 . S
C973 C121 1.319 . S
C975 C49 1.349 . S
C991 C35 1.349 . S
C993 C135 1.318 . S
C1009 C7 1.349 . S
C1011 C149 1.318 . S
C1027 C163 1.318 . S
C1029 C21 1.349 . S
C1045 C177 1.318 . S
C1047 C315 1.349 . S
C1063 C191 1.319 . S
C1065 C329 1.349 . S
C1081 C301 1.349 . S
C1083 C205 1.318 . S
C1099 C219 1.318 . S
C1101 C287 1.349 . S
C1117 C233 1.318 . S
C1119 C259 1.349 . S
C1135 C247 1.318 . S
C1137 C273 1.349 . S
C1153 C261 1.319 . S
C1155 C231 1.349 . S
C1171 C245 1.349 . S
C1173 C275 1.319 . S
C1189 C217 1.349 . S
C1191 C289 1.318 . S
C1207 C303 1.318 . S
C1209 C203 1.349 . S
C1225 C175 1.349 . S
C1227 C317 1.319 . S
C1243 C189 1.349 . S
C1245 C331 1.318 . S
C1261 C483 1.349 . S
C1263 C345 1.318 . S
C1279 C359 1.319 . S
C1281 C497 1.349 . S
C1297 C373 1.318 . S
C1299 C469 1.349 . S
C1315 C455 1.349 . S
C1317 C387 1.319 . S
C1333 C427 1.349 . S
C1335 C401 1.318 . S
C1351 C441 1.349 . S
C1353 C415 1.318 . S
C1369 C429 1.318 . S
C1371 C399 1.349 . S
C1387 C413 1.349 . S
C1389 C443 1.319 . S
C1405 C457 1.319 . S
C1407 C385 1.349 . S
C1423 C371 1.349 . S
C1425 C471 1.318 . S
C1441 C343 1.349 . S
C1443 C485 1.318 . S
C1459 C357 1.349 . S
C1461 C499 1.318 . S
C1477 C227 1.445 . S
C1479 C3 1.445 . S
C1495 C17 1.444 . S
C1497 C241 1.445 . S
C1513 C213 1.444 . S
C1515 C31 1.444 . S
C1531 C367 1.444 . S
C1533 C45 1.444 . S
C1549 C59 1.445 . S
C1551 C339 1.445 . S
C1567 C73 1.445 . S
C1569 C353 1.444 . S
C1585 C87 1.445 . S
C1587 C479 1.445 . S
C1603 C493 1.445 . S
C1605 C101 1.444 . S
C1621 C465 1.444 . S
C1623 C115 1.444 . S
C1639 C283 1.444 . S
C1641 C129 1.444 . S
C1657 C143 1.445 . S
C1659 C255 1.445 . S
C1675 C157 1.445 . S
C1677 C269 1.444 . S
C1693 C171 1.445 . S
C1695 C395 1.445 . S
C1711 C409 1.445 . S
C1713 C185 1.445 . S
C1729 C381 1.444 . S
C1731 C199 1.444 . S
C1747 C297 1.444 . S
C1749 C451 1.444 . S
C1765 C423 1.445 . S
C1767 C311 1.445 . S
C1783 C437 1.445 . S
C1785 C325 1.445 . S
