# Generated by pormake.
# Topology skb, (5)-cn, num edge types: 1
# Building blocks:
#     Node 0, Type 0, BuildingBlock: XOMCOT_clean_sbu_0, # of connection points: 5
#     Node 1, Type 0, BuildingBlock: XOMCOT_clean_sbu_0, # of connection points: 5
#     Node 2, Type 0, BuildingBlock: XOMCOT_clean_sbu_0, # of connection points: 5
#     Node 3, Type 0, BuildingBlock: XOMCOT_clean_sbu_0, # of connection points: 5
#     Node 4, Type 0, BuildingBlock: XOMCOT_clean_sbu_0, # of connection points: 5
#     Node 5, Type 0, BuildingBlock: XOMCOT_clean_sbu_0, # of connection points: 5
#     Node 6, Type 0, BuildingBlock: XOMCOT_clean_sbu_0, # of connection points: 5
#     Node 7, Type 0, BuildingBlock: XOMCOT_clean_sbu_0, # of connection points: 5
#     Node 8, Type 0, BuildingBlock: XOMCOT_clean_sbu_0, # of connection points: 5
#     Node 9, Type 0, BuildingBlock: XOMCOT_clean_sbu_0, # of connection points: 5
#     Node 10, Type 0, BuildingBlock: XOMCOT_clean_sbu_0, # of connection points: 5
#     Node 11, Type 0, BuildingBlock: XOMCOT_clean_sbu_0, # of connection points: 5
#     Node 12, Type 0, BuildingBlock: XOMCOT_clean_sbu_0, # of connection points: 5
#     Node 13, Type 0, BuildingBlock: XOMCOT_clean_sbu_0, # of connection points: 5
#     Node 14, Type 0, BuildingBlock: XOMCOT_clean_sbu_0, # of connection points: 5
#     Node 15, Type 0, BuildingBlock: XOMCOT_clean_sbu_0, # of connection points: 5
#     Edge 16, Type (0, 0), BuildingBlock: XIVTED_clean_linker_0, # of connection points: 2
#     Edge 17, Type (0, 0), BuildingBlock: XIVTED_clean_linker_0, # of connection points: 2
#     Edge 18, Type (0, 0), BuildingBlock: XIVTED_clean_linker_0, # of connection points: 2
#     Edge 19, Type (0, 0), BuildingBlock: XIVTED_clean_linker_0, # of connection points: 2
#     Edge 20, Type (0, 0), BuildingBlock: XIVTED_clean_linker_0, # of connection points: 2
#     Edge 21, Type (0, 0), BuildingBlock: XIVTED_clean_linker_0, # of connection points: 2
#     Edge 22, Type (0, 0), BuildingBlock: XIVTED_clean_linker_0, # of connection points: 2
#     Edge 23, Type (0, 0), BuildingBlock: XIVTED_clean_linker_0, # of connection points: 2
#     Edge 24, Type (0, 0), BuildingBlock: XIVTED_clean_linker_0, # of connection points: 2
#     Edge 25, Type (0, 0), BuildingBlock: XIVTED_clean_linker_0, # of connection points: 2
#     Edge 26, Type (0, 0), BuildingBlock: XIVTED_clean_linker_0, # of connection points: 2
#     Edge 27, Type (0, 0), BuildingBlock: XIVTED_clean_linker_0, # of connection points: 2
#     Edge 28, Type (0, 0), BuildingBlock: XIVTED_clean_linker_0, # of connection points: 2
#     Edge 29, Type (0, 0), BuildingBlock: XIVTED_clean_linker_0, # of connection points: 2
#     Edge 30, Type (0, 0), BuildingBlock: XIVTED_clean_linker_0, # of connection points: 2
#     Edge 31, Type (0, 0), BuildingBlock: XIVTED_clean_linker_0, # of connection points: 2
#     Edge 32, Type (0, 0), BuildingBlock: XIVTED_clean_linker_0, # of connection points: 2
#     Edge 33, Type (0, 0), BuildingBlock: XIVTED_clean_linker_0, # of connection points: 2
#     Edge 34, Type (0, 0), BuildingBlock: XIVTED_clean_linker_0, # of connection points: 2
#     Edge 35, Type (0, 0), BuildingBlock: XIVTED_clean_linker_0, # of connection points: 2
#     Edge 36, Type (0, 0), BuildingBlock: XIVTED_clean_linker_0, # of connection points: 2
#     Edge 37, Type (0, 0), BuildingBlock: XIVTED_clean_linker_0, # of connection points: 2
#     Edge 38, Type (0, 0), BuildingBlock: XIVTED_clean_linker_0, # of connection points: 2
#     Edge 39, Type (0, 0), BuildingBlock: XIVTED_clean_linker_0, # of connection points: 2
#     Edge 40, Type (0, 0), BuildingBlock: XIVTED_clean_linker_0, # of connection points: 2
#     Edge 41, Type (0, 0), BuildingBlock: XIVTED_clean_linker_0, # of connection points: 2
#     Edge 42, Type (0, 0), BuildingBlock: XIVTED_clean_linker_0, # of connection points: 2
#     Edge 43, Type (0, 0), BuildingBlock: XIVTED_clean_linker_0, # of connection points: 2
#     Edge 44, Type (0, 0), BuildingBlock: XIVTED_clean_linker_0, # of connection points: 2
#     Edge 45, Type (0, 0), BuildingBlock: XIVTED_clean_linker_0, # of connection points: 2
#     Edge 46, Type (0, 0), BuildingBlock: XIVTED_clean_linker_0, # of connection points: 2
#     Edge 47, Type (0, 0), BuildingBlock: XIVTED_clean_linker_0, # of connection points: 2
#     Edge 48, Type (0, 0), BuildingBlock: XIVTED_clean_linker_0, # of connection points: 2
#     Edge 49, Type (0, 0), BuildingBlock: XIVTED_clean_linker_0, # of connection points: 2
#     Edge 50, Type (0, 0), BuildingBlock: XIVTED_clean_linker_0, # of connection points: 2
#     Edge 51, Type (0, 0), BuildingBlock: XIVTED_clean_linker_0, # of connection points: 2
#     Edge 52, Type (0, 0), BuildingBlock: XIVTED_clean_linker_0, # of connection points: 2
#     Edge 53, Type (0, 0), BuildingBlock: XIVTED_clean_linker_0, # of connection points: 2
#     Edge 54, Type (0, 0), BuildingBlock: XIVTED_clean_linker_0, # of connection points: 2
#     Edge 55, Type (0, 0), BuildingBlock: XIVTED_clean_linker_0, # of connection points: 2
# Relax obj value: 0.087
# Max RMSD: 0.137
# Mean RMSD: 0.137
data_MOF--net-skb--node1-XOMCOT_clean_sbu_0--edge1-XIVTED_clean_linker_0
_symmetry_space_group_name_H-M    P1
_symmetry_Int_Tables_number       1
_symmetry_cell_setting            triclinic
loop_
_symmetry_equiv_pos_as_xyz
'x, y, z'
_cell_length_a     50.061902
_cell_length_b     27.530359
_cell_length_c     69.053313
_cell_angle_alpha  89.992573
_cell_angle_beta   90.076548
_cell_angle_gamma 89.932936
loop_
_atom_site_label
_atom_site_type_symbol
_atom_site_fract_x
_atom_site_fract_y
_atom_site_fract_z
_atom_type_partial_charge
Co0 Co 0.19262 0.0258 0.14687 0.0
C1 C 0.18458 0.0357 0.10328 0.0
C2 C 0.22302 0.05777 0.11373 0.0
C3 C 0.2222 0.06557 0.09413 0.0
N4 N 0.19948 0.03933 0.11965 0.0
N5 N 0.19804 0.05186 0.08751 0.0
H6 H 0.16438 0.02237 0.10267 0.0
H7 H 0.23981 0.06513 0.12315 0.0
C8 C 0.20744 0.1217 0.16688 0.0
O9 O 0.1959 0.1101 0.1833 0.0
N10 N 0.18752 0.01249 0.17424 0.0
C11 C 0.16528 0.99788 0.18352 0.0
C12 C 0.17158 0.98925 0.20269 0.0
C13 C 0.2071 0.01105 0.18772 0.0
N14 N 0.19792 0.99768 0.20534 0.0
C15 C 0.13876 0.01313 0.13568 0.0
C16 C 0.11672 0.08968 0.15589 0.0
C17 C 0.09988 0.05367 0.1483 0.0
C18 C 0.11123 0.01651 0.1373 0.0
C19 C 0.14452 0.08521 0.15372 0.0
N20 N 0.15531 0.04601 0.14438 0.0
H21 H 0.14661 0.9821 0.12809 0.0
H22 H 0.15694 0.11189 0.16052 0.0
H23 H 0.14594 0.99286 0.17686 0.0
H24 H 0.22758 0.0208 0.18465 0.0
O25 O 0.18714 0.95819 0.1417 0.0
O26 O 0.22651 0.99083 0.14807 0.0
O27 O 0.20611 0.09365 0.15216 0.0
C28 C 0.2125 0.95209 0.14424 0.0
H29 H 0.23839 0.07948 0.08536 0.0
H30 H 0.15783 0.97677 0.21368 0.0
H31 H 0.10866 0.11945 0.16431 0.0
H32 H 0.09895 0.98881 0.1306 0.0
Co33 Co 0.80844 0.04387 0.14815 0.0
C34 C 0.81493 0.0282 0.10451 0.0
C35 C 0.77615 0.01239 0.11595 0.0
C36 C 0.77592 0.00212 0.09655 0.0
N37 N 0.80055 0.02859 0.12115 0.0
N38 N 0.80027 0.01198 0.08935 0.0
H39 H 0.83564 0.03804 0.10324 0.0
H40 H 0.75958 0.00763 0.1258 0.0
C41 C 0.80375 0.93743 0.14625 0.0
O42 O 0.8212 0.94011 0.13209 0.0
N43 N 0.81389 0.05823 0.1752 0.0
C44 C 0.8329 0.08571 0.18357 0.0
C45 C 0.82641 0.09184 0.20285 0.0
C46 C 0.79613 0.04839 0.18928 0.0
N47 N 0.80313 0.06862 0.20636 0.0
C48 C 0.86166 0.0554 0.13518 0.0
C49 C 0.88532 0.99191 0.16099 0.0
C50 C 0.90148 0.02348 0.15017 0.0
C51 C 0.88928 0.05413 0.13666 0.0
C52 C 0.85747 0.99395 0.15889 0.0
N53 N 0.84591 0.02567 0.1461 0.0
H54 H 0.85296 0.08308 0.1261 0.0
H55 H 0.84521 0.97277 0.16859 0.0
H56 H 0.84964 0.10178 0.17603 0.0
H57 H 0.77797 0.02805 0.1868 0.0
O58 O 0.81317 0.11097 0.14203 0.0
O59 O 0.77427 0.07796 0.14958 0.0
O60 O 0.79679 0.976 0.15524 0.0
C61 C 0.78788 0.11671 0.14499 0.0
H62 H 0.75897 0.98913 0.0883 0.0
H63 H 0.83731 0.11371 0.21321 0.0
H64 H 0.89395 0.96815 0.17183 0.0
H65 H 0.90093 0.07883 0.12786 0.0
Co66 Co 0.19067 0.04544 0.88754 0.0
C67 C 0.17851 0.04825 0.93032 0.0
C68 C 0.18711 0.97631 0.92026 0.0
C69 C 0.18236 0.97415 0.93976 0.0
N70 N 0.1844 0.02265 0.91406 0.0
N71 N 0.17704 0.01925 0.94616 0.0
H72 H 0.1757 0.08719 0.93073 0.0
H73 H 0.19246 0.94545 0.91146 0.0
C74 C 0.20055 0.94489 0.86988 0.0
O75 O 0.1806 0.94977 0.85766 0.0
N76 N 0.19824 0.06818 0.86105 0.0
C77 C 0.19348 0.1134 0.8541 0.0
C78 C 0.20554 0.11883 0.83644 0.0
C79 C 0.21406 0.0474 0.84736 0.0
N80 N 0.21853 0.07746 0.8322 0.0
C81 C 0.1389 0.06429 0.87272 0.0
C82 C 0.11363 0.98098 0.88499 0.0
C83 C 0.09811 0.01936 0.87758 0.0
C84 C 0.11134 0.06071 0.87095 0.0
C85 C 0.14161 0.98572 0.88616 0.0
N86 N 0.15398 0.02765 0.88039 0.0
H87 H 0.14759 0.09869 0.86928 0.0
H88 H 0.15297 0.95629 0.89233 0.0
H89 H 0.18321 0.14221 0.86166 0.0
H90 H 0.22382 0.01266 0.84891 0.0
O91 O 0.18266 0.11098 0.89531 0.0
O92 O 0.2231 0.07847 0.89597 0.0
O93 O 0.20673 0.9796 0.88135 0.0
C94 C 0.208 0.11667 0.89851 0.0
H95 H 0.18384 0.94198 0.94872 0.0
H96 H 0.2055 0.15142 0.82766 0.0
H97 H 0.10421 0.94816 0.89028 0.0
H98 H 0.10034 0.09193 0.86566 0.0
Co99 Co 0.80584 0.02054 0.88951 0.0
C100 C 0.81145 0.01595 0.93265 0.0
C101 C 0.80403 0.08825 0.92234 0.0
C102 C 0.80816 0.09034 0.94192 0.0
N103 N 0.80607 0.04167 0.91637 0.0
N104 N 0.81287 0.04506 0.9484 0.0
H105 H 0.81508 0.97722 0.93297 0.0
H106 H 0.80057 0.11943 0.9132 0.0
C107 C 0.79731 0.11755 0.86837 0.0
O108 O 0.81653 0.10819 0.85597 0.0
N109 N 0.80545 1.00028 0.86255 0.0
C110 C 0.82233 0.96943 0.85355 0.0
C111 C 0.81453 0.96433 0.83459 0.0
C112 C 0.78703 0.01212 0.84899 0.0
N113 N 0.79242 0.99131 0.8317 0.0
C114 C 0.86138 0.99945 0.88889 0.0
C115 C 0.88174 0.09238 0.88852 0.0
C116 C 0.89941 0.05271 0.88891 0.0
C117 C 0.8888 0.00607 0.88918 0.0
C118 C 0.85391 0.08405 0.88857 0.0
N119 N 0.84394 0.03771 0.88799 0.0
H120 H 0.85457 0.96257 0.88968 0.0
H121 H 0.84074 0.11488 0.88967 0.0
H122 H 0.83881 0.95052 0.86013 0.0
H123 H 0.77019 0.03584 0.85168 0.0
O124 O 0.81053 0.9538 0.8973 0.0
O125 O 0.77124 0.98803 0.89306 0.0
O126 O 0.79172 0.08721 0.8818 0.0
C127 C 0.78488 0.94899 0.8972 0.0
H128 H 0.80769 0.1228 0.95077 0.0
H129 H 0.82409 0.94155 0.82386 0.0
H130 H 0.88932 0.1292 0.88878 0.0
H131 H 0.90172 0.97446 0.88965 0.0
Co132 Co 0.19936 0.50682 0.65014 0.0
C133 C 0.1976 0.50787 0.60594 0.0
C134 C 0.23384 0.53386 0.61891 0.0
C135 C 0.23647 0.53674 0.59927 0.0
N136 N 0.2096 0.51583 0.62329 0.0
N137 N 0.21383 0.52023 0.59103 0.0
H138 H 0.17789 0.49285 0.60402 0.0
H139 H 0.24876 0.54429 0.62945 0.0
C140 C 0.21075 0.60654 0.66824 0.0
O141 O 0.19762 0.59702 0.68423 0.0
N142 N 0.19115 0.49838 0.67734 0.0
C143 C 0.16801 0.48638 0.68608 0.0
C144 C 0.17281 0.48075 0.70569 0.0
C145 C 0.20963 0.49863 0.69156 0.0
N146 N 0.19906 0.48837 0.70903 0.0
C147 C 0.1475 0.48946 0.6357 0.0
C148 C 0.12201 0.56928 0.65125 0.0
C149 C 0.1068 0.53113 0.64358 0.0
C150 C 0.11988 0.4919 0.63512 0.0
C151 C 0.14999 0.56526 0.65167 0.0
N152 N 0.16238 0.52468 0.64455 0.0
H153 H 0.15669 0.45749 0.62969 0.0
H154 H 0.16116 0.59362 0.65857 0.0
H155 H 0.14912 0.48105 0.67878 0.0
H156 H 0.23043 0.50725 0.68913 0.0
O157 O 0.19523 0.43826 0.64665 0.0
O158 O 0.2334 0.4735 0.65441 0.0
O159 O 0.21135 0.5761 0.65427 0.0
C160 C 0.22026 0.43365 0.65078 0.0
H161 H 0.25375 0.55049 0.59163 0.0
H162 H 0.15824 0.47066 0.71652 0.0
H163 H 0.11238 0.60052 0.65775 0.0
H164 H 0.10875 0.46227 0.62866 0.0
Co165 Co 0.81563 0.54164 0.64441 0.0
C166 C 0.81695 0.55382 0.60103 0.0
C167 C 0.8166 0.47931 0.61016 0.0
C168 C 0.81894 0.48035 0.59044 0.0
N169 N 0.81541 0.52523 0.61699 0.0
N170 N 0.81923 0.52699 0.58467 0.0
H171 H 0.8172 0.59311 0.60131 0.0
H172 H 0.81651 0.44666 0.6188 0.0
C173 C 0.80434 0.44357 0.66358 0.0
O174 O 0.82127 0.45134 0.6778 0.0
N175 N 0.81574 0.55659 0.67194 0.0
C176 C 0.83564 0.57565 0.68272 0.0
C177 C 0.82777 0.57695 0.70177 0.0
C178 C 0.7957 0.54795 0.68459 0.0
N179 N 0.80275 0.55931 0.70294 0.0
C180 C 0.87112 0.56071 0.64401 0.0
C181 C 0.89043 0.46691 0.64352 0.0
C182 C 0.90838 0.5059 0.64229 0.0
C183 C 0.89831 0.55302 0.64279 0.0
C184 C 0.86281 0.47631 0.64466 0.0
N185 N 0.85341 0.52306 0.64521 0.0
H186 H 0.86469 0.59792 0.64428 0.0
H187 H 0.84935 0.44589 0.64446 0.0
H188 H 0.85472 0.58783 0.67748 0.0
H189 H 0.77677 0.53189 0.68056 0.0
O190 O 0.82059 0.60927 0.63864 0.0
O191 O 0.78117 0.57469 0.64202 0.0
O192 O 0.80142 0.47469 0.65003 0.0
C193 C 0.79494 0.61411 0.639 0.0
H194 H 0.82029 0.44905 0.58099 0.0
H195 H 0.83953 0.59005 0.71385 0.0
H196 H 0.89756 0.42978 0.64301 0.0
H197 H 0.91146 0.58425 0.64227 0.0
Co198 Co 0.18974 0.53331 0.38889 0.0
C199 C 0.18917 0.53083 0.4333 0.0
C200 C 0.22201 0.49452 0.41961 0.0
C201 C 0.22585 0.49258 0.43917 0.0
N202 N 0.19888 0.51774 0.41567 0.0
N203 N 0.20533 0.51544 0.4478 0.0
H204 H 0.17192 0.55337 0.43574 0.0
H205 H 0.23585 0.48131 0.40881 0.0
C206 C 0.19406 0.42647 0.39 0.0
O207 O 0.17728 0.42879 0.4046 0.0
N208 N 0.18335 0.54802 0.36199 0.0
C209 C 0.16397 0.575 0.35375 0.0
C210 C 0.1704 0.58187 0.33445 0.0
C211 C 0.20121 0.53926 0.34788 0.0
N212 N 0.194 0.55972 0.33092 0.0
C213 C 0.13719 0.54246 0.40383 0.0
C214 C 0.11249 0.47926 0.37844 0.0
C215 C 0.09677 0.50743 0.39096 0.0
C216 C 0.10955 0.53865 0.40395 0.0
C217 C 0.14039 0.48359 0.37904 0.0
N218 N 0.15245 0.51476 0.39177 0.0
H219 H 0.14597 0.57094 0.41232 0.0
H220 H 0.15215 0.46414 0.36846 0.0
H221 H 0.14709 0.59034 0.36137 0.0
H222 H 0.2197 0.51974 0.35028 0.0
O223 O 0.18534 0.60044 0.39525 0.0
O224 O 0.22386 0.56681 0.38686 0.0
O225 O 0.20091 0.4654 0.38122 0.0
C226 C 0.21055 0.60574 0.39174 0.0
H227 H 0.24287 0.47673 0.44653 0.0
H228 H 0.15933 0.60365 0.32415 0.0
H229 H 0.10332 0.45534 0.36792 0.0
H230 H 0.0982 0.56269 0.41326 0.0
Co231 Co 0.80644 0.52342 0.38463 0.0
C232 C 0.81168 0.53824 0.42843 0.0
C233 C 0.77208 0.54612 0.41713 0.0
C234 C 0.77134 0.55533 0.43663 0.0
N235 N 0.7973 0.5352 0.41178 0.0
N236 N 0.79623 0.55049 0.44376 0.0
H237 H 0.83296 0.53368 0.42954 0.0
H238 H 0.75524 0.5482 0.40734 0.0
C239 C 0.79948 0.62934 0.38816 0.0
O240 O 0.81602 0.62656 0.4029 0.0
N241 N 0.81323 0.51235 0.35748 0.0
C242 C 0.83315 0.48701 0.34915 0.0
C243 C 0.82739 0.48183 0.32968 0.0
C244 C 0.79568 0.52189 0.34317 0.0
N245 N 0.80367 0.50348 0.32599 0.0
C246 C 0.85903 0.51342 0.39911 0.0
C247 C 0.883 0.58365 0.3765 0.0
C248 C 0.8989 0.55417 0.38845 0.0
C249 C 0.88651 0.5191 0.39993 0.0
C250 C 0.85517 0.57746 0.37647 0.0
N251 N 0.84346 0.54311 0.388 0.0
H252 H 0.85033 0.48377 0.40713 0.0
H253 H 0.84322 0.59847 0.36647 0.0
H254 H 0.84998 0.47152 0.35682 0.0
H255 H 0.77693 0.5405 0.34557 0.0
O256 O 0.81185 0.45577 0.38965 0.0
O257 O 0.77288 0.48831 0.38173 0.0
O258 O 0.79397 0.59128 0.37837 0.0
C259 C 0.78675 0.44959 0.386 0.0
H260 H 0.75372 0.56448 0.44493 0.0
H261 H 0.8391 0.46147 0.31931 0.0
H262 H 0.89202 0.61038 0.36705 0.0
H263 H 0.89812 0.49439 0.40881 0.0
Co264 Co 0.69797 0.02352 0.64565 0.0
C265 C 0.69271 0.0331 0.60185 0.0
C266 C 0.72944 0.06016 0.61355 0.0
C267 C 0.72952 0.06807 0.59392 0.0
N268 N 0.70617 0.03913 0.61873 0.0
N269 N 0.70645 0.05103 0.58662 0.0
H270 H 0.67342 0.01648 0.60033 0.0
H271 H 0.7453 0.06956 0.62351 0.0
C272 C 0.70465 0.1304 0.64478 0.0
O273 O 0.68755 0.12988 0.63032 0.0
N274 N 0.69159 0.00859 0.67252 0.0
C275 C 0.6712 0.98358 0.68039 0.0
C276 C 0.67566 0.9796 0.70007 0.0
C277 C 0.70819 0.01903 0.68728 0.0
N278 N 0.699 0.00175 0.70432 0.0
C279 C 0.64464 0.01536 0.63223 0.0
C280 C 0.62188 0.08357 0.65644 0.0
C281 C 0.60538 0.05523 0.64454 0.0
C282 C 0.61716 0.02127 0.63222 0.0
C283 C 0.64969 0.07728 0.65563 0.0
N284 N 0.66083 0.04395 0.64331 0.0
H285 H 0.65259 0.98513 0.62422 0.0
H286 H 0.66206 0.09705 0.66574 0.0
H287 H 0.65457 0.96858 0.67237 0.0
H288 H 0.72678 0.03851 0.68547 0.0
O289 O 0.69259 0.95655 0.63915 0.0
O290 O 0.73171 0.98812 0.64713 0.0
O291 O 0.71067 0.09067 0.65336 0.0
C292 C 0.71783 0.94994 0.64219 0.0
H293 H 0.74552 0.0842 0.58558 0.0
H294 H 0.66316 0.96044 0.7103 0.0
H295 H 0.61336 0.10923 0.6666 0.0
H296 H 0.60509 0.99699 0.6235 0.0
Co297 Co 0.3159 0.02422 0.64923 0.0
C298 C 0.3176 0.01882 0.60501 0.0
C299 C 0.28236 0.98903 0.61792 0.0
C300 C 0.28066 0.98272 0.59824 0.0
N301 N 0.30574 0.01073 0.62239 0.0
N302 N 0.30278 0.00146 0.59015 0.0
H303 H 0.33652 0.03641 0.60286 0.0
H304 H 0.26754 0.97799 0.62842 0.0
C305 C 0.31082 0.91758 0.64688 0.0
O306 O 0.32683 0.92038 0.63185 0.0
N307 N 0.32414 0.03715 0.6761 0.0
C308 C 0.34454 0.06358 0.68318 0.0
C309 C 0.34098 0.069 0.70285 0.0
C310 C 0.30842 0.02704 0.69143 0.0
N311 N 0.31819 0.04618 0.70803 0.0
C312 C 0.3679 0.03638 0.6338 0.0
C313 C 0.39361 0.96845 0.65661 0.0
C314 C 0.40875 0.99884 0.64458 0.0
C315 C 0.39548 0.03253 0.63292 0.0
C316 C 0.36568 0.97272 0.65669 0.0
N317 N 0.35308 0.0061 0.64513 0.0
H318 H 0.35881 0.0665 0.62636 0.0
H319 H 0.35439 0.95144 0.66696 0.0
H320 H 0.36038 0.07919 0.67456 0.0
H321 H 0.28947 0.00837 0.69024 0.0
O322 O 0.31977 0.09182 0.64358 0.0
O323 O 0.28185 0.05735 0.65269 0.0
O324 O 0.30495 0.95599 0.65637 0.0
C325 C 0.29479 0.09673 0.64794 0.0
H326 H 0.26421 0.96637 0.59042 0.0
H327 H 0.35391 0.08915 0.7125 0.0
H328 H 0.40328 0.94279 0.66623 0.0
H329 H 0.40647 0.05823 0.62411 0.0
Co330 Co 0.68948 0.04128 0.38583 0.0
C331 C 0.68455 0.04205 0.42964 0.0
C332 C 0.71788 0.00144 0.41875 0.0
C333 C 0.71761 0.99704 0.43851 0.0
N334 N 0.69684 0.02851 0.413 0.0
N335 N 0.6967 0.02246 0.4453 0.0
H336 H 0.66735 0.06549 0.43056 0.0
H337 H 0.73283 0.98645 0.40918 0.0
C338 C 0.70288 0.94399 0.36604 0.0
O339 O 0.69233 0.95634 0.34934 0.0
N340 N 0.68385 0.0538 0.35851 0.0
C341 C 0.66135 0.06652 0.34904 0.0
C342 C 0.66756 0.0742 0.32979 0.0
C343 C 0.70341 0.05539 0.34511 0.0
N344 N 0.69405 0.06713 0.32738 0.0
C345 C 0.63623 0.05497 0.3985 0.0
C346 C 0.61293 0.97584 0.38077 0.0
C347 C 0.59676 0.0095 0.39049 0.0
C348 C 0.60882 0.04887 0.39966 0.0
C349 C 0.64074 0.98265 0.38039 0.0
N350 N 0.65211 0.02236 0.38901 0.0
H351 H 0.64435 0.08751 0.40477 0.0
H352 H 0.65258 0.95698 0.37248 0.0
H353 H 0.64188 0.07059 0.35559 0.0
H354 H 0.72402 0.04651 0.34824 0.0
O355 O 0.68485 0.10913 0.3907 0.0
O356 O 0.72376 0.07477 0.38417 0.0
O357 O 0.70176 0.97246 0.38065 0.0
C358 C 0.71022 0.11416 0.38795 0.0
H359 H 0.73202 0.97764 0.44731 0.0
H360 H 0.65368 0.08489 0.31854 0.0
H361 H 0.60416 0.94505 0.37337 0.0
H362 H 0.59698 0.0763 0.40695 0.0
Co363 Co 0.30581 0.01563 0.3885 0.0
C364 C 0.3122 0.01502 0.43231 0.0
C365 C 0.27807 0.05438 0.42196 0.0
C366 C 0.27901 0.05883 0.44172 0.0
N367 N 0.29917 0.02802 0.41586 0.0
N368 N 0.30042 0.03418 0.44821 0.0
H369 H 0.32975 0.99238 0.43294 0.0
H370 H 0.26268 0.0689 0.41263 0.0
C371 C 0.29234 0.11316 0.36895 0.0
O372 O 0.30346 0.10127 0.35241 0.0
N373 N 0.31087 0.00338 0.36107 0.0
C374 C 0.33316 0.9896 0.35164 0.0
C375 C 0.32689 0.98237 0.33237 0.0
C376 C 0.29131 0.00289 0.34758 0.0
N377 N 0.30052 0.99091 0.32981 0.0
C378 C 0.35939 0.00128 0.40047 0.0
C379 C 0.38234 0.08123 0.38313 0.0
C380 C 0.39868 0.04709 0.39245 0.0
C381 C 0.38682 0.00731 0.40143 0.0
C382 C 0.35452 0.07449 0.38297 0.0
N383 N 0.3433 0.03435 0.39138 0.0
H384 H 0.35139 0.96855 0.40665 0.0
H385 H 0.34254 0.10074 0.37548 0.0
H386 H 0.35255 0.98444 0.35824 0.0
H387 H 0.27084 0.01262 0.35073 0.0
O388 O 0.31044 0.94766 0.3932 0.0
O389 O 0.27146 0.98233 0.3871 0.0
O390 O 0.29331 0.08453 0.38354 0.0
C391 C 0.285 0.94283 0.39072 0.0
H392 H 0.26472 0.07781 0.45074 0.0
H393 H 0.3407 0.97094 0.32122 0.0
H394 H 0.39097 0.1124 0.37591 0.0
H395 H 0.39883 0.97965 0.40846 0.0
Co396 Co 0.69216 0.52679 0.14485 0.0
C397 C 0.68464 0.53399 0.10119 0.0
C398 C 0.72186 0.56182 0.11179 0.0
C399 C 0.72094 0.56906 0.09216 0.0
N400 N 0.69905 0.54044 0.11765 0.0
N401 N 0.69754 0.55171 0.08548 0.0
H402 H 0.66521 0.51734 0.10046 0.0
H403 H 0.73823 0.57145 0.12127 0.0
C404 C 0.70652 0.62267 0.1651 0.0
O405 O 0.69477 0.61074 0.1814 0.0
N406 N 0.68698 0.51342 0.17217 0.0
C407 C 0.66456 0.50041 0.1816 0.0
C408 C 0.67079 0.49288 0.20086 0.0
C409 C 0.70657 0.51203 0.18562 0.0
N410 N 0.69724 0.50037 0.20336 0.0
C411 C 0.6384 0.51443 0.1332 0.0
C412 C 0.61616 0.59311 0.15195 0.0
C413 C 0.59939 0.55902 0.14304 0.0
C414 C 0.61091 0.52005 0.13323 0.0
C415 C 0.64398 0.58676 0.15113 0.0
N416 N 0.65485 0.54698 0.14221 0.0
H417 H 0.64621 0.48233 0.12635 0.0
H418 H 0.65627 0.61287 0.15839 0.0
H419 H 0.64508 0.49625 0.17504 0.0
H420 H 0.72712 0.52123 0.18251 0.0
O421 O 0.68683 0.45918 0.13962 0.0
O422 O 0.72612 0.49199 0.14607 0.0
O423 O 0.70549 0.59477 0.15031 0.0
C424 C 0.71218 0.45318 0.1422 0.0
H425 H 0.73654 0.58503 0.08339 0.0
H426 H 0.65691 0.48221 0.21207 0.0
H427 H 0.60786 0.62381 0.1597 0.0
H428 H 0.59869 0.49243 0.12642 0.0
Co429 Co 0.30935 0.54372 0.15158 0.0
C430 C 0.31479 0.53949 0.1076 0.0
C431 C 0.28023 0.5038 0.11902 0.0
C432 C 0.28014 0.49812 0.09931 0.0
N433 N 0.30232 0.52845 0.12445 0.0
N434 N 0.30183 0.52052 0.09218 0.0
H435 H 0.33257 0.56106 0.1062 0.0
H436 H 0.26503 0.49082 0.12885 0.0
C437 C 0.30523 0.43673 0.15019 0.0
O438 O 0.3229 0.43886 0.13615 0.0
N439 N 0.31395 0.55806 0.17868 0.0
C440 C 0.33323 0.58374 0.18763 0.0
C441 C 0.32617 0.58924 0.20686 0.0
C442 C 0.29548 0.54877 0.19233 0.0
N443 N 0.3023 0.56752 0.20969 0.0
C444 C 0.36275 0.55423 0.13866 0.0
C445 C 0.38626 0.48629 0.16267 0.0
C446 C 0.40231 0.51403 0.15026 0.0
C447 C 0.3902 0.54816 0.13819 0.0
C448 C 0.35842 0.49275 0.16231 0.0
N449 N 0.34691 0.52556 0.14993 0.0
H450 H 0.35458 0.58436 0.13074 0.0
H451 H 0.34629 0.4729 0.17254 0.0
H452 H 0.35066 0.5987 0.18057 0.0
H453 H 0.27707 0.52956 0.18939 0.0
O454 O 0.31402 0.61078 0.14552 0.0
O455 O 0.27499 0.57722 0.15237 0.0
O456 O 0.29783 0.47572 0.15871 0.0
C457 C 0.2886 0.61613 0.14797 0.0
H458 H 0.26492 0.48012 0.09079 0.0
H459 H 0.33718 0.60944 0.21768 0.0
H460 H 0.39513 0.46059 0.17267 0.0
H461 H 0.40205 0.57197 0.12912 0.0
Co462 Co 0.69216 0.53897 0.88606 0.0
C463 C 0.67996 0.5374 0.92862 0.0
C464 C 0.70181 0.47439 0.91943 0.0
C465 C 0.69703 0.4704 0.9389 0.0
N466 N 0.69083 0.51605 0.91278 0.0
N467 N 0.6834 0.50991 0.94471 0.0
H468 H 0.6699 0.5722 0.92847 0.0
H469 H 0.71301 0.44846 0.91099 0.0
C470 C 0.69822 0.43747 0.86854 0.0
O471 O 0.67501 0.44125 0.85981 0.0
N472 N 0.69488 0.56207 0.85917 0.0
C473 C 0.68913 0.6073 0.85264 0.0
C474 C 0.69554 0.61075 0.8334 0.0
C475 C 0.70609 0.53961 0.8437 0.0
N476 N 0.70623 0.56824 0.82779 0.0
C477 C 0.63841 0.55308 0.87379 0.0
C478 C 0.61589 0.47163 0.89023 0.0
C479 C 0.59921 0.50574 0.88106 0.0
C480 C 0.61098 0.54643 0.87262 0.0
C481 C 0.64374 0.47913 0.89062 0.0
N482 N 0.65481 0.51951 0.88225 0.0
H483 H 0.64596 0.58727 0.86892 0.0
H484 H 0.65622 0.45297 0.89798 0.0
H485 H 0.68121 0.63673 0.86126 0.0
H486 H 0.7148 0.50379 0.844 0.0
O487 O 0.68465 0.60412 0.89466 0.0
O488 O 0.72531 0.57345 0.89172 0.0
O489 O 0.70769 0.47331 0.87818 0.0
C490 C 0.71025 0.61084 0.89584 0.0
H491 H 0.704 0.44148 0.94827 0.0
H492 H 0.69363 0.64283 0.82443 0.0
H493 H 0.60748 0.43995 0.89723 0.0
H494 H 0.59886 0.57476 0.86614 0.0
Co495 Co 0.3061 0.52414 0.89175 0.0
C496 C 0.31206 0.53191 0.93536 0.0
C497 C 0.27923 0.5725 0.92375 0.0
C498 C 0.27972 0.57927 0.94342 0.0
N499 N 0.3 0.54412 0.91847 0.0
N500 N 0.30034 0.55375 0.95067 0.0
H501 H 0.32848 0.50698 0.93685 0.0
H502 H 0.26435 0.58684 0.91392 0.0
C503 C 0.30256 0.63237 0.88984 0.0
O504 O 0.32103 0.63266 0.90339 0.0
N505 N 0.31025 0.50486 0.8651 0.0
C506 C 0.32905 0.476 0.85724 0.0
C507 C 0.32243 0.46781 0.83811 0.0
C508 C 0.29243 0.51344 0.85087 0.0
N509 N 0.29929 0.4912 0.83417 0.0
C510 C 0.35991 0.5122 0.9042 0.0
C511 C 0.38402 0.57456 0.87834 0.0
C512 C 0.4002 0.54616 0.8906 0.0
C513 C 0.3876 0.51505 0.90369 0.0
C514 C 0.35598 0.57106 0.87954 0.0
N515 N 0.34416 0.54073 0.89271 0.0
H516 H 0.35146 0.48388 0.91291 0.0
H517 H 0.34391 0.59086 0.86923 0.0
H518 H 0.34589 0.46084 0.865 0.0
H519 H 0.27453 0.53488 0.85292 0.0
O520 O 0.30998 0.45765 0.89963 0.0
O521 O 0.27131 0.49144 0.89214 0.0
O522 O 0.29475 0.59171 0.88278 0.0
C523 C 0.28447 0.45271 0.89754 0.0
H524 H 0.26544 0.59987 0.95186 0.0
H525 H 0.3333 0.44484 0.82813 0.0
H526 H 0.39289 0.59836 0.86766 0.0
H527 H 0.39905 0.4905 0.91273 0.0
H528 H 0.25197 0.98887 0.20955 0.0
H529 H 0.24649 0.98281 0.32543 0.0
H530 H 0.17875 0.99841 0.24233 0.0
H531 H 0.31977 0.99501 0.29287 0.0
H532 H 0.22145 0.9832 0.29514 0.0
H533 H 0.27704 0.98586 0.23981 0.0
C534 C 0.24107 0.99054 0.22304 0.0
C535 C 0.21303 0.99418 0.22321 0.0
C536 C 0.24302 0.98575 0.29462 0.0
C537 C 0.24188 0.99003 0.25814 0.0
C538 C 0.25742 0.98577 0.31198 0.0
C539 C 0.28545 0.98917 0.31189 0.0
C540 C 0.25664 0.98894 0.2769 0.0
C541 C 0.29829 0.99187 0.29381 0.0
C542 C 0.25548 0.98857 0.24038 0.0
C543 C 0.20022 0.99516 0.24132 0.0
N544 N 0.28381 0.99177 0.27711 0.0
N545 N 0.21471 0.99317 0.258 0.0
H546 H 0.8213 0.08212 0.24313 0.0
H547 H 0.67585 0.05532 0.29052 0.0
H548 H 0.74939 0.05655 0.21014 0.0
H549 H 0.74727 0.08473 0.32355 0.0
H550 H 0.70243 0.05667 0.26087 0.0
H551 H 0.79458 0.08369 0.27275 0.0
C552 C 0.79993 0.07697 0.24207 0.0
C553 C 0.78769 0.06901 0.22404 0.0
C554 C 0.71228 0.06289 0.27461 0.0
C555 C 0.7569 0.0705 0.25797 0.0
C556 C 0.69706 0.06243 0.29157 0.0
C557 C 0.70928 0.06972 0.30964 0.0
C558 C 0.73999 0.07076 0.27568 0.0
C559 C 0.73698 0.07813 0.31003 0.0
C560 C 0.78466 0.07769 0.25902 0.0
C561 C 0.75987 0.062 0.22366 0.0
N562 N 0.75136 0.07835 0.29334 0.0
N563 N 0.74547 0.06294 0.24033 0.0
H564 H 0.28382 0.97941 0.72307 0.0
H565 H 0.25097 0.14332 0.81541 0.0
H566 H 0.32324 0.11485 0.73602 0.0
H567 H 0.22483 0.99465 0.81115 0.0
H568 H 0.27679 0.1331 0.78579 0.0
H569 H 0.26106 0.98375 0.75451 0.0
C570 C 0.28773 0.00998 0.7325 0.0
C571 C 0.3055 0.04684 0.72682 0.0
C572 C 0.26558 0.10248 0.79132 0.0
C573 C 0.27954 0.05199 0.76281 0.0
C574 C 0.25072 0.10841 0.8082 0.0
C575 C 0.23557 0.06988 0.81564 0.0
C576 C 0.26512 0.05779 0.78152 0.0
C577 C 0.23633 0.02516 0.80588 0.0
C578 C 0.27486 0.01226 0.75049 0.0
C579 C 0.31001 0.08531 0.73978 0.0
N580 N 0.25064 0.02044 0.78917 0.0
N581 N 0.29701 0.087 0.75702 0.0
H582 H 0.75233 0.00745 0.71092 0.0
H583 H 0.7392 0.00761 0.82655 0.0
H584 H 0.6763 0.99997 0.74012 0.0
H585 H 0.8132 0.98779 0.79563 0.0
H586 H 0.71558 0.01337 0.7954 0.0
H587 H 0.77473 0.00893 0.74221 0.0
C588 C 0.74028 0.00657 0.72391 0.0
C589 C 0.71234 0.00361 0.72284 0.0
C590 C 0.73699 0.00779 0.79549 0.0
C591 C 0.73801 0.00472 0.75891 0.0
C592 C 0.75048 0.0048 0.81323 0.0
C593 C 0.77817 0.99678 0.81367 0.0
C594 C 0.7514 0.00327 0.77811 0.0
C595 C 0.7918 0.9931 0.79598 0.0
C596 C 0.75313 0.00705 0.74182 0.0
C597 C 0.69788 0.00172 0.74026 0.0
N598 N 0.77831 0.99638 0.77898 0.0
N599 N 0.71087 0.00234 0.75759 0.0
H600 H 0.25163 0.46803 0.71452 0.0
H601 H 0.24584 0.50608 0.82937 0.0
H602 H 0.17918 0.50343 0.74525 0.0
H603 H 0.31816 0.47395 0.79788 0.0
H604 H 0.22095 0.50433 0.79898 0.0
H605 H 0.27596 0.46851 0.74508 0.0
C606 C 0.2408 0.47614 0.72768 0.0
C607 C 0.21328 0.48615 0.72723 0.0
C608 C 0.24227 0.49765 0.79872 0.0
C609 C 0.24115 0.48623 0.7625 0.0
C610 C 0.25659 0.49898 0.81609 0.0
C611 C 0.28428 0.49031 0.81628 0.0
C612 C 0.25565 0.4876 0.78131 0.0
C613 C 0.29687 0.48036 0.79855 0.0
C614 C 0.25474 0.47615 0.74519 0.0
C615 C 0.20031 0.49524 0.74489 0.0
N616 N 0.28249 0.47936 0.78183 0.0
N617 N 0.21437 0.49526 0.76178 0.0
H618 H 0.82165 0.53301 0.73807 0.0
H619 H 0.68761 0.59855 0.79311 0.0
H620 H 0.74926 0.57023 0.70764 0.0
H621 H 0.7509 0.51597 0.8198 0.0
H622 H 0.70968 0.58939 0.7617 0.0
H623 H 0.79631 0.52754 0.76824 0.0
C624 C 0.80036 0.53995 0.73777 0.0
C625 C 0.78753 0.55259 0.72041 0.0
C626 C 0.7186 0.57275 0.77437 0.0
C627 C 0.75839 0.5465 0.75487 0.0
C628 C 0.70608 0.57816 0.79229 0.0
C629 C 0.71757 0.55826 0.80906 0.0
C630 C 0.74306 0.54798 0.77325 0.0
C631 C 0.74135 0.53169 0.80721 0.0
C632 C 0.78588 0.53647 0.75495 0.0
C633 C 0.75985 0.56036 0.72074 0.0
N634 N 0.75352 0.5279 0.78966 0.0
N635 N 0.74622 0.55784 0.73776 0.0
H636 H 0.24817 0.56329 0.21227 0.0
H637 H 0.24808 0.55661 0.32805 0.0
H638 H 0.31978 0.57151 0.24693 0.0
H639 H 0.17619 0.56782 0.29383 0.0
H640 H 0.27453 0.55879 0.29847 0.0
H641 H 0.22152 0.56171 0.24182 0.0
C642 C 0.25835 0.56443 0.2261 0.0
C643 C 0.28635 0.56723 0.22709 0.0
C644 C 0.25297 0.56079 0.29739 0.0
C645 C 0.25579 0.56592 0.26109 0.0
C646 C 0.2378 0.55914 0.3143 0.0
C647 C 0.20978 0.56162 0.31345 0.0
C648 C 0.24014 0.56472 0.27938 0.0
C649 C 0.19769 0.56605 0.29518 0.0
C650 C 0.24306 0.5639 0.24299 0.0
C651 C 0.2983 0.56966 0.24546 0.0
N652 N 0.21293 0.56724 0.27886 0.0
N653 N 0.28297 0.56874 0.26172 0.0
H654 H 0.67826 0.51118 0.24005 0.0
H655 H 0.82305 0.49259 0.2894 0.0
H656 H 0.7508 0.48623 0.20781 0.0
H657 H 0.7498 0.5123 0.32137 0.0
H658 H 0.79713 0.49015 0.25935 0.0
H659 H 0.70424 0.51116 0.26997 0.0
C660 C 0.6996 0.5053 0.23922 0.0
C661 C 0.71227 0.49879 0.22126 0.0
C662 C 0.78675 0.49507 0.27296 0.0
C663 C 0.74234 0.49936 0.25563 0.0
C664 C 0.80156 0.4963 0.29016 0.0
C665 C 0.78871 0.50284 0.30805 0.0
C666 C 0.75883 0.50034 0.2736 0.0
C667 C 0.76075 0.50799 0.30801 0.0
C668 C 0.71449 0.50562 0.25635 0.0
C669 C 0.74013 0.4921 0.22121 0.0
N670 N 0.74682 0.50659 0.2911 0.0
N671 N 0.75419 0.4926 0.23809 0.0
H672 H 0.23823 0.15201 0.13664 0.0
H673 H 0.26856 0.41618 0.17875 0.0
H674 H 0.20977 0.19781 0.19277 0.0
H675 H 0.31155 0.35062 0.13127 0.0
H676 H 0.24483 0.33917 0.18369 0.0
H677 H 0.26268 0.2278 0.13367 0.0
C678 C 0.23705 0.17803 0.14837 0.0
C679 C 0.22188 0.16838 0.16501 0.0
C680 C 0.2596 0.34171 0.17229 0.0
C681 C 0.25002 0.25576 0.16165 0.0
C682 C 0.27314 0.38559 0.16946 0.0
C683 C 0.29203 0.38993 0.15453 0.0
C684 C 0.26481 0.30222 0.15997 0.0
C685 C 0.29717 0.34911 0.14295 0.0
C686 C 0.25116 0.22134 0.14668 0.0
C687 C 0.22124 0.20367 0.1797 0.0
N688 N 0.28353 0.3072 0.14583 0.0
N689 N 0.23504 0.24597 0.17765 0.0
H690 H 0.70832 0.69811 0.19131 0.0
H691 H 0.81086 0.85171 0.12727 0.0
H692 H 0.73718 0.6545 0.13503 0.0
H693 H 0.76724 0.91558 0.17481 0.0
H694 H 0.78767 0.77544 0.1327 0.0
H695 H 0.73281 0.77488 0.18793 0.0
C696 C 0.71976 0.70458 0.17827 0.0
C697 C 0.72067 0.6697 0.16342 0.0
C698 C 0.78315 0.80605 0.142 0.0
C699 C 0.74883 0.757 0.15959 0.0
C700 C 0.7965 0.84968 0.13896 0.0
C701 C 0.79091 0.89028 0.15054 0.0
C702 C 0.76408 0.8026 0.15681 0.0
C703 C 0.77209 0.88522 0.16549 0.0
C704 C 0.73369 0.74839 0.17635 0.0
C705 C 0.73581 0.68012 0.14685 0.0
N706 N 0.75928 0.84212 0.16819 0.0
N707 N 0.74932 0.72264 0.14543 0.0
H708 H 0.19137 0.85806 0.85081 0.0
H709 H 0.31542 0.72388 0.9019 0.0
H710 H 0.24555 0.92607 0.89117 0.0
H711 H 0.25868 0.64745 0.86605 0.0
H712 H 0.29154 0.7993 0.89569 0.0
H713 H 0.21688 0.78207 0.85396 0.0
C714 C 0.20867 0.85721 0.86023 0.0
C715 C 0.21622 0.89877 0.87075 0.0
C716 C 0.28428 0.76618 0.88907 0.0
C717 C 0.24554 0.81176 0.87441 0.0
C718 C 0.298 0.72288 0.89259 0.0
C719 C 0.28907 0.6789 0.88456 0.0
C720 C 0.26125 0.76607 0.87741 0.0
C721 C 0.26633 0.68038 0.87256 0.0
C722 C 0.2232 0.81373 0.86205 0.0
C723 C 0.23883 0.89521 0.88277 0.0
N724 N 0.25315 0.72316 0.86942 0.0
N725 N 0.25256 0.85271 0.88426 0.0
H726 H 0.75252 0.42334 0.87156 0.0
H727 H 0.74616 0.13621 0.88018 0.0
H728 H 0.67872 0.34546 0.86324 0.0
H729 H 0.81469 0.20611 0.85475 0.0
H730 H 0.72215 0.21398 0.87929 0.0
H731 H 0.77688 0.34565 0.87052 0.0
C732 C 0.74144 0.38996 0.8695 0.0
C733 C 0.7135 0.39101 0.8674 0.0
C734 C 0.74242 0.21224 0.87386 0.0
C735 C 0.74124 0.30197 0.86663 0.0
C736 C 0.75618 0.16792 0.87442 0.0
C737 C 0.78247 0.1645 0.86745 0.0
C738 C 0.75522 0.254 0.86679 0.0
C739 C 0.79439 0.20694 0.86013 0.0
C740 C 0.75537 0.34571 0.86884 0.0
C741 C 0.70023 0.34651 0.86477 0.0
N742 N 0.78082 0.25 0.8602 0.0
N743 N 0.71414 0.30388 0.86469 0.0
H744 H 0.81096 0.86535 0.90623 0.0
H745 H 0.682 0.6947 0.90086 0.0
H746 H 0.73184 0.92075 0.89476 0.0
H747 H 0.76281 0.64042 0.89837 0.0
H748 H 0.69926 0.77739 0.9033 0.0
H749 H 0.79287 0.78348 0.90812 0.0
C750 C 0.78967 0.86043 0.90426 0.0
C751 C 0.77291 0.90021 0.90022 0.0
C752 C 0.71323 0.74743 0.90234 0.0
C753 C 0.75201 0.80572 0.90235 0.0
C754 C 0.70343 0.70005 0.90104 0.0
C755 C 0.72101 0.66035 0.89937 0.0
C756 C 0.74088 0.75549 0.90212 0.0
C757 C 0.74853 0.66979 0.89964 0.0
C758 C 0.77939 0.81345 0.90528 0.0
C759 C 0.7455 0.89126 0.89789 0.0
N760 N 0.75761 0.71636 0.90094 0.0
N761 N 0.73591 0.84492 0.89892 0.0
H762 H 0.30971 0.36925 0.90784 0.0
H763 H 0.17997 0.20117 0.90191 0.0
H764 H 0.23154 0.42503 0.89348 0.0
H765 H 0.26048 0.14498 0.90282 0.0
H766 H 0.19766 0.28363 0.90353 0.0
H767 H 0.29103 0.28808 0.91055 0.0
C768 C 0.2885 0.36456 0.90535 0.0
C769 C 0.27217 0.40421 0.90032 0.0
C770 C 0.21146 0.25331 0.90353 0.0
C771 C 0.2506 0.31056 0.90346 0.0
C772 C 0.20141 0.20608 0.90271 0.0
C773 C 0.2188 0.16594 0.90218 0.0
C774 C 0.23915 0.2607 0.90393 0.0
C775 C 0.24634 0.17475 0.90322 0.0
C776 C 0.27788 0.31798 0.90688 0.0
C777 C 0.24486 0.39559 0.89735 0.0
N778 N 0.25566 0.22119 0.90398 0.0
N779 N 0.23492 0.34962 0.89892 0.0
H780 H 0.68506 0.36843 0.13836 0.0
H781 H 0.81473 0.20124 0.14017 0.0
H782 H 0.76482 0.42524 0.14554 0.0
H783 H 0.73506 0.14447 0.14783 0.0
H784 H 0.79663 0.28308 0.13926 0.0
H785 H 0.70299 0.28629 0.13893 0.0
C786 C 0.70643 0.36366 0.13998 0.0
C787 C 0.72354 0.4038 0.14187 0.0
C788 C 0.78307 0.25283 0.14116 0.0
C789 C 0.74412 0.30954 0.14255 0.0
C790 C 0.79333 0.20594 0.1416 0.0
C791 C 0.77631 0.16588 0.14405 0.0
C792 C 0.75551 0.25995 0.14302 0.0
C793 C 0.74884 0.17434 0.14591 0.0
C794 C 0.71659 0.31664 0.14038 0.0
C795 C 0.75097 0.39532 0.144 0.0
N796 N 0.73924 0.2206 0.14529 0.0
N797 N 0.76045 0.34899 0.14424 0.0
H798 H 0.18531 0.86732 0.14061 0.0
H799 H 0.31518 0.70063 0.14247 0.0
H800 H 0.26512 0.92422 0.14738 0.0
H801 H 0.23567 0.64351 0.15061 0.0
H802 H 0.29691 0.78225 0.14117 0.0
H803 H 0.20328 0.78515 0.14121 0.0
C804 C 0.2067 0.86255 0.14214 0.0
C805 C 0.22382 0.90271 0.14392 0.0
C806 C 0.28342 0.75198 0.14325 0.0
C807 C 0.24443 0.8085 0.14463 0.0
C808 C 0.29378 0.7052 0.14393 0.0
C809 C 0.27686 0.66511 0.14666 0.0
C810 C 0.25586 0.75897 0.14517 0.0
C811 C 0.24937 0.67342 0.14849 0.0
C812 C 0.21687 0.81554 0.14256 0.0
C813 C 0.25126 0.89428 0.14594 0.0
N814 N 0.23967 0.71959 0.14767 0.0
N815 N 0.26075 0.84798 0.1462 0.0
H816 H 0.21215 0.68453 0.69327 0.0
H817 H 0.31619 0.8315 0.62776 0.0
H818 H 0.24231 0.6351 0.63811 0.0
H819 H 0.27538 0.89702 0.67625 0.0
H820 H 0.29216 0.75625 0.63365 0.0
H821 H 0.23739 0.76024 0.6892 0.0
C822 C 0.224 0.68954 0.68032 0.0
C823 C 0.22508 0.65328 0.66602 0.0
C824 C 0.28845 0.78699 0.64306 0.0
C825 C 0.25412 0.73944 0.66139 0.0
C826 C 0.30229 0.83003 0.63975 0.0
C827 C 0.29774 0.8708 0.65148 0.0
C828 C 0.2699 0.78436 0.65825 0.0
C829 C 0.27946 0.86651 0.66681 0.0
C830 C 0.23839 0.73273 0.67802 0.0
C831 C 0.24079 0.66183 0.64954 0.0
N832 N 0.26613 0.82404 0.66974 0.0
N833 N 0.2547 0.70383 0.64774 0.0
H834 H 0.76424 0.42221 0.63836 0.0
H835 H 0.74441 0.14631 0.67185 0.0
H836 H 0.80888 0.36025 0.68588 0.0
H837 H 0.69581 0.22005 0.62931 0.0
H838 H 0.76821 0.22291 0.67795 0.0
H839 H 0.73929 0.34722 0.63541 0.0
C840 C 0.76884 0.39279 0.64824 0.0
C841 C 0.78885 0.39769 0.66237 0.0
C842 C 0.75221 0.22223 0.66739 0.0
C843 C 0.76003 0.31074 0.659 0.0
C844 C 0.7386 0.17857 0.66391 0.0
C845 C 0.71813 0.1766 0.64996 0.0
C846 C 0.74534 0.26405 0.65679 0.0
C847 C 0.71149 0.21955 0.64012 0.0
C848 C 0.75445 0.34979 0.64656 0.0
C849 C 0.79366 0.35811 0.67477 0.0
N850 N 0.7251 0.26121 0.64366 0.0
N851 N 0.77944 0.31613 0.67274 0.0
H852 H 0.18932 0.34101 0.40955 0.0
H853 H 0.28663 0.18629 0.34192 0.0
H854 H 0.22875 0.40512 0.36019 0.0
H855 H 0.2669 0.14887 0.40091 0.0
H856 H 0.2621 0.26301 0.34589 0.0
H857 H 0.21324 0.26558 0.40367 0.0
C858 C 0.20288 0.33919 0.39736 0.0
C859 C 0.20711 0.37963 0.3854 0.0
C860 C 0.26324 0.23784 0.35791 0.0
C861 C 0.23476 0.29293 0.37862 0.0
C862 C 0.27721 0.19408 0.35568 0.0
C863 C 0.27869 0.1607 0.37106 0.0
C864 C 0.25043 0.24787 0.37555 0.0
C865 C 0.26613 0.17292 0.38856 0.0
C866 C 0.21667 0.29607 0.39408 0.0
C867 C 0.22497 0.37486 0.36982 0.0
N868 N 0.25246 0.21522 0.39027 0.0
N869 N 0.23819 0.33222 0.36686 0.0
H870 H 0.80089 0.71223 0.40962 0.0
H871 H 0.71108 0.87272 0.33858 0.0
H872 H 0.76752 0.65292 0.35701 0.0
H873 H 0.72451 0.90543 0.39897 0.0
H874 H 0.73489 0.7954 0.34305 0.0
H875 H 0.77714 0.78783 0.4036 0.0
C876 C 0.78867 0.71515 0.39671 0.0
C877 C 0.78614 0.67605 0.38383 0.0
C878 C 0.73253 0.81968 0.35527 0.0
C879 C 0.75872 0.76289 0.37687 0.0
C880 C 0.71896 0.86376 0.35275 0.0
C881 C 0.71601 0.89604 0.36837 0.0
C882 C 0.74341 0.8082 0.37347 0.0
C883 C 0.72657 0.88235 0.38641 0.0
C884 C 0.77498 0.75834 0.39334 0.0
C885 C 0.76995 0.68212 0.36736 0.0
N886 N 0.73989 0.83975 0.3884 0.0
N887 N 0.75683 0.72483 0.36431 0.0
H888 H 0.81402 0.36466 0.38887 0.0
H889 H 0.68389 0.19949 0.39234 0.0
H890 H 0.73407 0.42203 0.38331 0.0
H891 H 0.76298 0.14069 0.38368 0.0
H892 H 0.70227 0.28104 0.39154 0.0
H893 H 0.79592 0.28267 0.38927 0.0
C894 C 0.79259 0.36002 0.38776 0.0
C895 C 0.77545 0.40025 0.38613 0.0
C896 C 0.71564 0.25041 0.38979 0.0
C897 C 0.75468 0.30626 0.3866 0.0
C898 C 0.70522 0.20369 0.39033 0.0
C899 C 0.72199 0.16316 0.38809 0.0
C900 C 0.74312 0.25687 0.38714 0.0
C901 C 0.74939 0.17096 0.38548 0.0
C902 C 0.78233 0.31311 0.38792 0.0
C903 C 0.74794 0.392 0.38462 0.0
N904 N 0.75916 0.21706 0.38512 0.0
N905 N 0.73836 0.34581 0.38498 0.0
H906 H 0.26316 0.63177 0.3869 0.0
H907 H 0.23186 0.91728 0.38889 0.0
H908 H 0.18461 0.69121 0.39724 0.0
H909 H 0.31131 0.85701 0.39332 0.0
H910 H 0.21371 0.83441 0.38927 0.0
H911 H 0.28117 0.71463 0.38662 0.0
C912 C 0.24978 0.66216 0.38918 0.0
C913 C 0.22244 0.65465 0.39217 0.0
C914 C 0.23512 0.83952 0.39021 0.0
C915 C 0.24266 0.74911 0.39166 0.0
C916 C 0.24542 0.88671 0.38997 0.0
C917 C 0.27305 0.89397 0.39115 0.0
C918 C 0.25266 0.79962 0.39143 0.0
C919 C 0.28982 0.85313 0.39246 0.0
C920 C 0.26 0.70938 0.38902 0.0
C921 C 0.20588 0.6953 0.39497 0.0
N922 N 0.27938 0.80777 0.39251 0.0
N923 N 0.21623 0.74076 0.39458 0.0
H924 H 0.8211 0.69917 0.63324 0.0
H925 H 0.69075 0.86542 0.63713 0.0
H926 H 0.74188 0.64085 0.64131 0.0
H927 H 0.77065 0.9218 0.64389 0.0
H928 H 0.70891 0.78348 0.6351 0.0
H929 H 0.80258 0.78087 0.63325 0.0
C930 C 0.79971 0.70348 0.63489 0.0
C931 C 0.78298 0.66301 0.63735 0.0
C932 C 0.72249 0.8137 0.63702 0.0
C933 C 0.76168 0.75696 0.63742 0.0
C934 C 0.71219 0.86062 0.63813 0.0
C935 C 0.72926 0.9006 0.64069 0.0
C936 C 0.75014 0.80653 0.63831 0.0
C937 C 0.7568 0.89203 0.64195 0.0
C938 C 0.78921 0.75029 0.63497 0.0
C939 C 0.75547 0.671 0.63937 0.0
N940 N 0.76641 0.84585 0.6407 0.0
N941 N 0.74565 0.71717 0.63939 0.0
H942 H 0.27343 0.40827 0.65262 0.0
H943 H 0.24254 0.12239 0.65495 0.0
H944 H 0.1939 0.34789 0.65102 0.0
H945 H 0.32037 0.18255 0.64282 0.0
H946 H 0.22457 0.20524 0.65688 0.0
H947 H 0.29166 0.32535 0.65266 0.0
C948 C 0.25987 0.37764 0.65237 0.0
C949 C 0.2322 0.38483 0.65166 0.0
C950 C 0.24558 0.20014 0.65376 0.0
C951 C 0.25267 0.2905 0.65178 0.0
C952 C 0.25577 0.15294 0.65264 0.0
C953 C 0.28289 0.14564 0.64862 0.0
C954 C 0.26272 0.24004 0.65101 0.0
C955 C 0.29926 0.18648 0.64585 0.0
C956 C 0.27021 0.33043 0.65233 0.0
C957 C 0.21541 0.34398 0.65138 0.0
N958 N 0.28895 0.23188 0.64714 0.0
N959 N 0.2259 0.29861 0.65144 0.0
H960 H 0.93815 0.95034 0.15586 0.0
H961 H 0.06353 0.12883 0.14761 0.0
H962 H 0.93117 0.10641 0.15263 0.0
H963 H 0.07022 0.97501 0.15864 0.0
H964 H 0.01494 0.12237 0.15135 0.0
H965 H 0.98668 0.95902 0.15881 0.0
C966 C 0.9468 0.98638 0.15595 0.0
C967 C 0.93065 0.02759 0.15362 0.0
C968 C 0.02709 0.09011 0.15308 0.0
C969 C 0.98606 0.03793 0.15682 0.0
C970 C 0.0548 0.09389 0.15102 0.0
C971 C 0.07084 0.05228 0.15244 0.0
C972 C 0.01545 0.0444 0.15657 0.0
C973 C 0.05851 0.00782 0.1569 0.0
C974 C 0.97449 0.99139 0.15756 0.0
C975 C 0.94293 0.07352 0.15384 0.0
N976 N 0.03158 0.00497 0.15862 0.0
N977 N 0.96987 0.07742 0.15522 0.0
H978 H 0.06298 0.05176 0.8499 0.0
H979 H 0.93347 0.01981 0.91659 0.0
H980 H 0.06538 0.98979 0.90726 0.0
H981 H 0.93214 0.09308 0.86149 0.0
H982 H 0.98188 0.01016 0.91379 0.0
H983 H 0.01503 0.06552 0.85357 0.0
C984 C 0.05337 0.0406 0.86322 0.0
C985 C 0.06834 0.01973 0.87834 0.0
C986 C 0.97116 0.02897 0.90241 0.0
C987 C 0.01327 0.03583 0.88269 0.0
C988 C 0.94357 0.03492 0.90411 0.0
C989 C 0.92889 0.05765 0.88932 0.0
C990 C 0.98423 0.04534 0.88566 0.0
C991 C 0.94281 0.07597 0.87331 0.0
C992 C 0.02598 0.04871 0.86533 0.0
C993 C 0.05468 0.00553 0.89515 0.0
N994 N 0.96969 0.06899 0.87181 0.0
N995 N 0.02798 0.01409 0.89691 0.0
H996 H 0.94187 0.44985 0.6646 0.0
H997 H 0.07048 0.59607 0.62917 0.0
H998 H 0.94132 0.54974 0.61648 0.0
H999 H 0.07684 0.46154 0.66079 0.0
H1000 H 0.02178 0.58546 0.62792 0.0
H1001 H 0.99089 0.45587 0.66571 0.0
C1002 C 0.95211 0.47207 0.65401 0.0
C1003 C 0.93763 0.49967 0.64055 0.0
C1004 C 0.03385 0.55838 0.63521 0.0
C1005 C 0.99315 0.50804 0.64213 0.0
C1006 C 0.0615 0.56479 0.6361 0.0
C1007 C 0.07744 0.52959 0.64504 0.0
C1008 C 0.02223 0.51677 0.64352 0.0
C1009 C 0.06504 0.48934 0.65369 0.0
C1010 C 0.97997 0.47598 0.65478 0.0
C1011 C 0.95179 0.5284 0.62726 0.0
N1012 N 0.03813 0.48395 0.65272 0.0
N1013 N 0.9787 0.53238 0.62856 0.0
H1014 H 0.93223 0.55884 0.41944 0.0
H1015 H 0.06567 0.5132 0.35824 0.0
H1016 H 0.93243 0.55153 0.35707 0.0
H1017 H 0.06081 0.50667 0.42056 0.0
H1018 H 0.01742 0.5288 0.35689 0.0
H1019 H 0.98036 0.54565 0.41958 0.0
C1020 C 0.94258 0.55517 0.40574 0.0
C1021 C 0.92841 0.55611 0.38823 0.0
C1022 C 0.02692 0.52362 0.37083 0.0
C1023 C 0.9835 0.53999 0.38823 0.0
C1024 C 0.05437 0.51413 0.3716 0.0
C1025 C 0.06724 0.50879 0.38955 0.0
C1026 C 0.01238 0.52785 0.38814 0.0
C1027 C 0.05173 0.51109 0.40643 0.0
C1028 C 0.97002 0.54727 0.40581 0.0
C1029 C 0.94272 0.55137 0.37087 0.0
N1030 N 0.02521 0.52071 0.40531 0.0
N1031 N 0.96954 0.54304 0.3713 0.0
H1032 H 0.4429 0.9986 0.61405 0.0
H1033 H 0.57426 0.0487 0.67709 0.0
H1034 H 0.4414 0.00416 0.67645 0.0
H1035 H 0.56979 0.06137 0.61493 0.0
H1036 H 0.52602 0.03224 0.67792 0.0
H1037 H 0.49049 0.01678 0.61469 0.0
C1038 C 0.45277 0.00298 0.62792 0.0
C1039 C 0.43826 1.00001 0.64521 0.0
C1040 C 0.53558 0.03922 0.66414 0.0
C1041 C 0.49272 0.02179 0.64611 0.0
C1042 C 0.56297 0.04923 0.66369 0.0
C1043 C 0.57592 0.05626 0.6459 0.0
C1044 C 0.52125 0.03611 0.64666 0.0
C1045 C 0.56055 0.0558 0.62893 0.0
C1046 C 0.47989 0.01377 0.62829 0.0
C1047 C 0.45199 0.00577 0.6628 0.0
N1048 N 0.53412 0.04544 0.62971 0.0
N1049 N 0.47849 0.01679 0.66282 0.0
H1050 H 0.43229 0.04559 0.42326 0.0
H1051 H 0.56346 0.0027 0.35914 0.0
H1052 H 0.43158 0.05143 0.3609 0.0
H1053 H 0.56339 0.01335 0.42142 0.0
H1054 H 0.51484 0.01544 0.35912 0.0
H1055 H 0.48051 0.03284 0.42261 0.0
C1056 C 0.4425 0.04511 0.40944 0.0
C1057 C 0.42812 0.04982 0.39212 0.0
C1058 C 0.52546 0.01453 0.37279 0.0
C1059 C 0.48318 0.03383 0.39115 0.0
C1060 C 0.55307 0.00657 0.37281 0.0
C1061 C 0.56729 0.0069 0.39031 0.0
C1062 C 0.51215 0.02267 0.39042 0.0
C1063 C 0.55308 0.01294 0.40762 0.0
C1064 C 0.46997 0.03742 0.40903 0.0
C1065 C 0.44212 0.04854 0.37456 0.0
N1066 N 0.52635 0.0208 0.40723 0.0
N1067 N 0.46893 0.04019 0.37449 0.0
H1068 H 0.56935 0.56791 0.17601 0.0
H1069 H 0.43481 0.49855 0.1196 0.0
H1070 H 0.56285 0.55106 0.11411 0.0
H1071 H 0.43632 0.52676 0.18097 0.0
H1072 H 0.4828 0.51264 0.11819 0.0
H1073 H 0.5211 0.55287 0.17887 0.0
C1074 C 0.55762 0.56221 0.16302 0.0
C1075 C 0.56998 0.56064 0.1448 0.0
C1076 C 0.47281 0.51535 0.13205 0.0
C1077 C 0.5153 0.54207 0.14796 0.0
C1078 C 0.44548 0.50678 0.13286 0.0
C1079 C 0.43175 0.51143 0.15042 0.0
C1080 C 0.48659 0.52906 0.14892 0.0
C1081 C 0.44635 0.52239 0.1672 0.0
C1082 C 0.53023 0.55298 0.16466 0.0
C1083 C 0.55407 0.55229 0.12843 0.0
N1084 N 0.47306 0.53133 0.16603 0.0
N1085 N 0.52764 0.54299 0.13041 0.0
H1086 H 0.43688 0.5419 0.92003 0.0
H1087 H 0.56433 0.51761 0.85094 0.0
H1088 H 0.43136 0.54563 0.85769 0.0
H1089 H 0.56666 0.49009 0.91237 0.0
H1090 H 0.51591 0.52889 0.85291 0.0
H1091 H 0.48479 0.52689 0.91743 0.0
C1092 C 0.44577 0.53986 0.90576 0.0
C1093 C 0.42992 0.54472 0.88904 0.0
C1094 C 0.52691 0.51984 0.86594 0.0
C1095 C 0.48506 0.52738 0.88597 0.0
C1096 C 0.55453 0.51313 0.8648 0.0
C1097 C 0.56955 0.50283 0.88152 0.0
C1098 C 0.51413 0.51678 0.88397 0.0
C1099 C 0.55585 0.4975 0.8991 0.0
C1100 C 0.47316 0.53111 0.9043 0.0
C1101 C 0.44273 0.54253 0.87097 0.0
N1102 N 0.52897 0.50504 0.8999 0.0
N1103 N 0.4695 0.53381 0.86992 0.0
H1104 H 0.19481 0.10074 0.96432 0.0
H1105 H 0.16293 0.9913 0.06953 0.0
H1106 H 0.15217 0.96702 0.97391 0.0
H1107 H 0.21349 0.1156 0.05976 0.0
H1108 H 0.15252 0.9895 0.03484 0.0
H1109 H 0.1954 0.11474 0.99945 0.0
C1110 C 0.1851 0.07489 0.97379 0.0
C1111 C 0.17369 0.03241 0.96623 0.0
C1112 C 0.16573 0.01743 0.04032 0.0
C1113 C 0.17453 0.0477 1.00638 0.0
C1114 C 0.17155 0.0186 0.06015 0.0
C1115 C 0.1894 0.05321 0.06755 0.0
C1116 C 0.17776 0.05127 0.02778 0.0
C1117 C 0.20009 0.08759 0.05465 0.0
C1118 C 0.18562 0.08261 0.99384 0.0
C1119 C 0.16157 0.99983 0.97918 0.0
N1120 N 0.19426 0.08556 0.03543 0.0
N1121 N 0.1625 0.00792 0.99858 0.0
H1122 H 0.84139 0.09603 0.97458 0.0
H1123 H 0.78249 0.94636 0.06313 0.0
H1124 H 0.79544 0.96501 0.9675 0.0
H1125 H 0.8355 0.06854 0.06978 0.0
H1126 H 0.7909 0.94694 0.0283 0.0
H1127 H 0.84372 0.081 1.00938 0.0
C1128 C 0.83201 0.06376 0.9804 0.0
C1129 C 0.81787 0.03204 0.96825 0.0
C1130 C 0.80098 0.97327 0.03737 0.0
C1131 C 0.82023 0.01468 1.00811 0.0
C1132 C 0.79607 0.97312 0.05725 0.0
C1133 C 0.808 0.00797 0.06932 0.0
C1134 C 0.81776 0.00886 0.02943 0.0
C1135 C 0.82588 0.04109 0.06101 0.0
C1136 C 0.8334 0.0551 1.00025 0.0
C1137 C 0.80649 0.99032 0.97642 0.0
N1138 N 0.82993 0.04116 0.04153 0.0
N1139 N 0.80754 0.98321 0.99592 0.0
H1140 H 0.16659 0.52938 0.57126 0.0
H1141 H 0.24536 0.54291 0.47109 0.0
H1142 H 0.25084 0.50264 0.56368 0.0
H1143 H 0.16148 0.50827 0.47108 0.0
H1144 H 0.24499 0.54477 0.50627 0.0
H1145 H 0.16155 0.53254 0.53561 0.0
C1146 C 0.1839 0.52373 0.56215 0.0
C1147 C 0.20928 0.51666 0.57044 0.0
C1148 C 0.22654 0.53687 0.49868 0.0
C1149 C 0.20378 0.52122 0.5301 0.0
C1150 C 0.22676 0.53603 0.4786 0.0
C1151 C 0.20354 0.52465 0.46826 0.0
C1152 C 0.20292 0.52605 0.5087 0.0
C1153 C 0.17979 0.51705 0.47864 0.0
C1154 C 0.18104 0.52583 0.5419 0.0
C1155 C 0.23105 0.50959 0.55801 0.0
N1156 N 0.18009 0.51736 0.49844 0.0
N1157 N 0.22783 0.51247 0.53859 0.0
H1158 H 0.838 0.5072 0.46216 0.0
H1159 H 0.79178 0.59965 0.56696 0.0
H1160 H 0.77257 0.60674 0.47121 0.0
H1161 H 0.85103 0.48882 0.55719 0.0
H1162 H 0.7898 0.61425 0.53181 0.0
H1163 H 0.84827 0.51121 0.49671 0.0
C1164 C 0.826 0.5304 0.47134 0.0
C1165 C 0.80414 0.55609 0.46376 0.0
C1166 C 0.80352 0.58722 0.5374 0.0
C1167 C 0.81561 0.56053 0.50347 0.0
C1168 C 0.80478 0.57927 0.55743 0.0
C1169 C 0.82134 0.54264 0.56485 0.0
C1170 C 0.81907 0.55847 0.52485 0.0
C1171 C 0.83769 0.51686 0.55194 0.0
C1172 C 0.83178 0.5325 0.49112 0.0
C1173 C 0.78921 0.58539 0.47646 0.0
N1174 N 0.83598 0.52493 0.5326 0.0
N1175 N 0.79507 0.5865 0.49569 0.0
H1176 H 0.7152 0.12168 0.56025 0.0
H1177 H 0.69077 0.95069 0.47122 0.0
H1178 H 0.68069 0.97948 0.56722 0.0
H1179 H 0.68874 0.10617 0.465 0.0
H1180 H 0.6871 0.95987 0.50642 0.0
H1181 H 0.70623 0.11731 0.52537 0.0
C1182 C 0.70554 0.08971 0.55439 0.0
C1183 C 0.69885 0.05071 0.56652 0.0
C1184 C 0.68693 0.99202 0.49738 0.0
C1185 C 0.68876 0.04522 0.52675 0.0
C1186 C 0.68904 0.98674 0.47737 0.0
C1187 C 0.69001 0.02776 0.46538 0.0
C1188 C 0.68656 0.03876 0.50549 0.0
C1189 C 0.68784 0.0738 0.47387 0.0
C1190 C 0.70026 0.08736 0.53456 0.0
C1191 C 0.68609 0.0103 0.55833 0.0
N1192 N 0.68673 0.07817 0.4935 0.0
N1193 N 0.68185 0.00822 0.53888 0.0
H1194 H 0.30447 0.10603 0.4744 0.0
H1195 H 0.29402 0.9308 0.5638 0.0
H1196 H 0.3125 0.95133 0.46755 0.0
H1197 H 0.32418 0.07643 0.56999 0.0
H1198 H 0.29938 0.9372 0.52859 0.0
H1199 H 0.31072 0.09677 0.50944 0.0
C1200 C 0.30797 0.07017 0.48035 0.0
C1201 C 0.308 0.02936 0.46821 0.0
C1202 C 0.30518 0.96753 0.53765 0.0
C1203 C 0.31449 0.01823 0.50821 0.0
C1204 C 0.30198 0.96398 0.55769 0.0
C1205 C 0.30854 0.00327 0.56973 0.0
C1206 C 0.3144 0.01113 0.52954 0.0
C1207 C 0.31899 0.04533 0.56117 0.0
C1208 C 0.31158 0.06488 0.50028 0.0
C1209 C 0.31255 0.98361 0.47649 0.0
N1210 N 0.32118 0.0485 0.54155 0.0
N1211 N 0.31513 0.97911 0.49606 0.0
H1212 H 0.70814 0.61963 0.05824 0.0
H1213 H 0.66445 0.44807 0.9716 0.0
H1214 H 0.66788 0.48313 0.06703 0.0
H1215 H 0.68895 0.59641 0.96313 0.0
H1216 H 0.66209 0.46244 1.00652 0.0
H1217 H 0.69845 0.61435 0.02361 0.0
C1218 C 0.69709 0.58865 0.05286 0.0
C1219 C 0.6891 0.55143 0.06549 0.0
C1220 C 0.66755 0.49219 0.99706 0.0
C1221 C 0.67793 0.54505 0.02578 0.0
C1222 C 0.66888 0.48397 0.97715 0.0
C1223 C 0.67705 0.52105 0.96455 0.0
C1224 C 0.67493 0.53767 1.00453 0.0
C1225 C 0.68245 0.56698 0.97238 0.0
C1226 C 0.69142 0.58579 0.0331 0.0
C1227 C 0.6744 0.51258 0.05781 0.0
N1228 N 0.68174 0.5738 0.99192 0.0
N1229 N 0.66963 0.51004 0.03841 0.0
H1230 H 0.31595 0.47205 0.96941 0.0
H1231 H 0.31942 0.60066 0.07339 0.0
H1232 H 0.29957 0.62428 0.97776 0.0
H1233 H 0.2989 0.45015 0.06519 0.0
H1234 H 0.32484 0.60923 0.03813 0.0
H1235 H 0.32235 0.46316 1.00454 0.0
C1236 C 0.31418 0.50368 0.97863 0.0
C1237 C 0.30699 0.54884 0.97082 0.0
C1238 C 0.3195 0.57421 0.04412 0.0
C1239 C 0.31439 0.53917 1.01072 0.0
C1240 C 0.31659 0.5693 0.06416 0.0
C1241 C 0.30849 0.52478 0.07203 0.0
C1242 C 0.31474 0.53406 0.03204 0.0
C1243 C 0.30484 0.48518 0.05954 0.0
C1244 C 0.31767 0.4986 0.99861 0.0
C1245 C 0.30473 0.58876 0.98334 0.0
N1246 N 0.30793 0.49073 0.04013 0.0
N1247 N 0.30836 0.58301 1.0027 0.0
loop_
_geom_bond_atom_site_label_1
_geom_bond_atom_site_label_2
_geom_bond_distance
_geom_bond_site_symmetry_2
_ccdc_geom_bond_type
Co0 N4 2.148 . S
Co0 N10 2.128 . S
Co0 N20 2.194 . S
Co0 O25 2.351 1_545 S
Co0 O26 2.155 1_545 S
Co0 O27 2.096 . S
C1 N4 1.301 . S
C1 N5 1.328 . S
C1 H6 0.930 1_545 S
C2 C3 1.333 . S
C2 N4 1.317 . S
C2 H7 0.930 . S
C3 C2 1.333 . S
C3 N5 1.350 . S
C3 H29 0.931 . S
N4 Co0 2.148 . S
N4 C1 1.301 . S
N4 C2 1.317 . S
N5 C1 1.328 . S
N5 C3 1.350 . S
H6 C1 0.930 1_565 S
H7 C2 0.930 . S
C8 O9 1.224 . S
C8 O27 1.247 . S
O9 C8 1.224 . S
N10 Co0 2.128 . S
N10 C11 1.355 . S
N10 C13 1.311 . S
C11 N10 1.355 . S
C11 C12 1.363 . S
C11 H23 0.929 1_545 S
C12 C11 1.363 . S
C12 N14 1.375 . S
C12 H30 0.931 . S
C13 N10 1.311 . S
C13 N14 1.347 . S
C13 H24 0.929 . S
N14 C12 1.375 . S
N14 C13 1.347 . S
C15 C18 1.365 . S
C15 N20 1.328 . S
C15 H21 0.929 1_545 S
C16 C17 1.362 . S
C16 C19 1.378 . S
C16 H31 0.929 . S
C17 C16 1.362 . S
C17 C18 1.366 . S
C18 C15 1.365 . S
C18 C17 1.366 . S
C18 H32 0.930 1_545 S
C19 C16 1.378 . S
C19 N20 1.315 . S
C19 H22 0.930 . S
N20 Co0 2.194 . S
N20 C15 1.328 . S
N20 C19 1.315 . S
H21 C15 0.929 1_565 S
H22 C19 0.930 . S
H23 C11 0.929 1_565 S
H24 C13 0.929 . S
O25 Co0 2.351 1_565 S
O25 C28 1.244 . S
O26 Co0 2.155 1_565 S
O26 C28 1.240 . S
O27 Co0 2.096 . S
O27 C8 1.247 . S
C28 O25 1.244 . S
C28 O26 1.240 . S
H29 C3 0.931 . S
H30 C12 0.931 . S
H31 C16 0.929 . S
H32 C18 0.930 1_565 S
Co33 N37 2.148 . S
Co33 N43 2.128 . S
Co33 N53 2.194 . S
Co33 O58 2.351 . S
Co33 O59 2.155 . S
Co33 O60 2.096 1_545 S
C34 N37 1.301 . S
C34 N38 1.328 . S
C34 H39 0.930 . S
C35 C36 1.333 . S
C35 N37 1.317 1_565 S
C35 H40 0.930 . S
C36 C35 1.333 . S
C36 N38 1.350 1_565 S
C36 H62 0.931 . S
N37 Co33 2.148 . S
N37 C34 1.301 . S
N37 C35 1.317 1_545 S
N38 C34 1.328 . S
N38 C36 1.350 1_545 S
H39 C34 0.930 . S
H40 C35 0.930 . S
C41 O42 1.224 . S
C41 O60 1.247 . S
O42 C41 1.224 . S
N43 Co33 2.128 . S
N43 C44 1.355 . S
N43 C46 1.312 1_545 S
C44 N43 1.355 . S
C44 C45 1.363 . S
C44 H56 0.929 . S
C45 C44 1.363 . S
C45 N47 1.375 . S
C45 H63 0.931 . S
C46 N43 1.312 1_565 S
C46 N47 1.348 1_565 S
C46 H57 0.927 . S
N47 C45 1.375 . S
N47 C46 1.348 1_545 S
C48 C51 1.365 . S
C48 N53 1.328 . S
C48 H54 0.929 . S
C49 C50 1.362 1_565 S
C49 C52 1.378 . S
C49 H64 0.929 . S
C50 C49 1.362 1_545 S
C50 C51 1.366 . S
C51 C48 1.365 . S
C51 C50 1.366 . S
C51 H65 0.930 . S
C52 C49 1.378 . S
C52 N53 1.315 1_565 S
C52 H55 0.930 . S
N53 Co33 2.194 . S
N53 C48 1.328 . S
N53 C52 1.315 1_545 S
H54 C48 0.929 . S
H55 C52 0.930 . S
H56 C44 0.929 . S
H57 C46 0.927 . S
O58 Co33 2.351 . S
O58 C61 1.244 . S
O59 Co33 2.155 . S
O59 C61 1.240 . S
O60 Co33 2.096 1_565 S
O60 C41 1.247 . S
C61 O58 1.244 . S
C61 O59 1.240 . S
H62 C36 0.931 . S
H63 C45 0.931 . S
H64 C49 0.929 . S
H65 C51 0.930 . S
Co66 N70 2.148 . S
Co66 N76 2.128 . S
Co66 N86 2.194 . S
Co66 O91 2.351 . S
Co66 O92 2.155 . S
Co66 O93 2.096 1_545 S
C67 N70 1.301 . S
C67 N71 1.328 . S
C67 H72 0.930 . S
C68 C69 1.333 . S
C68 N70 1.317 1_565 S
C68 H73 0.930 . S
C69 C68 1.333 . S
C69 N71 1.350 1_565 S
C69 H95 0.931 . S
N70 Co66 2.148 . S
N70 C67 1.301 . S
N70 C68 1.317 1_545 S
N71 C67 1.328 . S
N71 C69 1.350 1_545 S
H72 C67 0.930 . S
H73 C68 0.930 . S
C74 O75 1.224 . S
C74 O93 1.247 . S
O75 C74 1.224 . S
N76 Co66 2.128 . S
N76 C77 1.355 . S
N76 C79 1.312 1_545 S
C77 N76 1.355 . S
C77 C78 1.363 . S
C77 H89 0.929 . S
C78 C77 1.363 . S
C78 N80 1.375 . S
C78 H96 0.931 . S
C79 N76 1.312 1_565 S
C79 N80 1.348 1_565 S
C79 H90 0.927 . S
N80 C78 1.375 . S
N80 C79 1.348 1_545 S
C81 C84 1.365 . S
C81 N86 1.328 . S
C81 H87 0.929 . S
C82 C83 1.362 1_565 S
C82 C85 1.378 . S
C82 H97 0.929 . S
C83 C82 1.362 1_545 S
C83 C84 1.366 . S
C84 C81 1.365 . S
C84 C83 1.366 . S
C84 H98 0.930 . S
C85 C82 1.378 . S
C85 N86 1.315 1_565 S
C85 H88 0.930 . S
N86 Co66 2.194 . S
N86 C81 1.328 . S
N86 C85 1.315 1_545 S
H87 C81 0.929 . S
H88 C85 0.930 . S
H89 C77 0.929 . S
H90 C79 0.927 . S
O91 Co66 2.351 . S
O91 C94 1.244 . S
O92 Co66 2.155 . S
O92 C94 1.240 . S
O93 Co66 2.096 1_565 S
O93 C74 1.247 . S
C94 O91 1.244 . S
C94 O92 1.240 . S
H95 C69 0.931 . S
H96 C78 0.931 . S
H97 C82 0.929 . S
H98 C84 0.930 . S
Co99 N103 2.148 . S
Co99 N109 2.128 . S
Co99 N119 2.194 . S
Co99 O124 2.351 1_545 S
Co99 O125 2.155 1_545 S
Co99 O126 2.096 . S
C100 N103 1.301 . S
C100 N104 1.328 . S
C100 H105 0.930 1_545 S
C101 C102 1.333 . S
C101 N103 1.317 . S
C101 H106 0.930 . S
C102 C101 1.333 . S
C102 N104 1.350 . S
C102 H128 0.931 . S
N103 Co99 2.148 . S
N103 C100 1.301 . S
N103 C101 1.317 . S
N104 C100 1.328 . S
N104 C102 1.350 . S
H105 C100 0.930 1_565 S
H106 C101 0.930 . S
C107 O108 1.224 . S
C107 O126 1.247 . S
O108 C107 1.224 . S
N109 Co99 2.128 . S
N109 C110 1.355 . S
N109 C112 1.311 . S
C110 N109 1.355 . S
C110 C111 1.363 . S
C110 H122 0.929 1_545 S
C111 C110 1.363 . S
C111 N113 1.375 . S
C111 H129 0.931 . S
C112 N109 1.311 . S
C112 N113 1.347 . S
C112 H123 0.929 . S
N113 C111 1.375 . S
N113 C112 1.347 . S
C114 C117 1.365 . S
C114 N119 1.328 . S
C114 H120 0.929 1_545 S
C115 C116 1.362 . S
C115 C118 1.378 . S
C115 H130 0.929 . S
C116 C115 1.362 . S
C116 C117 1.366 . S
C117 C114 1.365 . S
C117 C116 1.366 . S
C117 H131 0.930 1_545 S
C118 C115 1.378 . S
C118 N119 1.315 . S
C118 H121 0.930 . S
N119 Co99 2.194 . S
N119 C114 1.328 . S
N119 C118 1.315 . S
H120 C114 0.929 1_565 S
H121 C118 0.930 . S
H122 C110 0.929 1_565 S
H123 C112 0.929 . S
O124 Co99 2.351 1_565 S
O124 C127 1.244 . S
O125 Co99 2.155 1_565 S
O125 C127 1.240 . S
O126 Co99 2.096 . S
O126 C107 1.247 . S
C127 O124 1.244 . S
C127 O125 1.240 . S
H128 C102 0.931 . S
H129 C111 0.931 . S
H130 C115 0.929 . S
H131 C117 0.930 1_565 S
Co132 N136 2.148 . S
Co132 N142 2.128 . S
Co132 N152 2.194 . S
Co132 O157 2.351 . S
Co132 O158 2.155 . S
Co132 O159 2.096 . S
C133 N136 1.301 . S
C133 N137 1.328 . S
C133 H138 0.930 . S
C134 C135 1.333 . S
C134 N136 1.317 . S
C134 H139 0.930 . S
C135 C134 1.333 . S
C135 N137 1.350 . S
C135 H161 0.931 . S
N136 Co132 2.148 . S
N136 C133 1.301 . S
N136 C134 1.317 . S
N137 C133 1.328 . S
N137 C135 1.350 . S
H138 C133 0.930 . S
H139 C134 0.930 . S
C140 O141 1.224 . S
C140 O159 1.247 . S
O141 C140 1.224 . S
N142 Co132 2.128 . S
N142 C143 1.355 . S
N142 C145 1.311 . S
C143 N142 1.355 . S
C143 C144 1.363 . S
C143 H155 0.929 . S
C144 C143 1.363 . S
C144 N146 1.375 . S
C144 H162 0.931 . S
C145 N142 1.311 . S
C145 N146 1.347 . S
C145 H156 0.929 . S
N146 C144 1.375 . S
N146 C145 1.347 . S
C147 C150 1.365 . S
C147 N152 1.328 . S
C147 H153 0.929 . S
C148 C149 1.362 . S
C148 C151 1.378 . S
C148 H163 0.929 . S
C149 C148 1.362 . S
C149 C150 1.366 . S
C150 C147 1.365 . S
C150 C149 1.366 . S
C150 H164 0.930 . S
C151 C148 1.378 . S
C151 N152 1.315 . S
C151 H154 0.930 . S
N152 Co132 2.194 . S
N152 C147 1.328 . S
N152 C151 1.315 . S
H153 C147 0.929 . S
H154 C151 0.930 . S
H155 C143 0.929 . S
H156 C145 0.929 . S
O157 Co132 2.351 . S
O157 C160 1.244 . S
O158 Co132 2.155 . S
O158 C160 1.240 . S
O159 Co132 2.096 . S
O159 C140 1.247 . S
C160 O157 1.244 . S
C160 O158 1.240 . S
H161 C135 0.931 . S
H162 C144 0.931 . S
H163 C148 0.929 . S
H164 C150 0.930 . S
Co165 N169 2.148 . S
Co165 N175 2.128 . S
Co165 N185 2.194 . S
Co165 O190 2.351 . S
Co165 O191 2.155 . S
Co165 O192 2.096 . S
C166 N169 1.301 . S
C166 N170 1.328 . S
C166 H171 0.930 . S
C167 C168 1.333 . S
C167 N169 1.317 . S
C167 H172 0.930 . S
C168 C167 1.333 . S
C168 N170 1.350 . S
C168 H194 0.931 . S
N169 Co165 2.148 . S
N169 C166 1.301 . S
N169 C167 1.317 . S
N170 C166 1.328 . S
N170 C168 1.350 . S
H171 C166 0.930 . S
H172 C167 0.930 . S
C173 O174 1.224 . S
C173 O192 1.247 . S
O174 C173 1.224 . S
N175 Co165 2.128 . S
N175 C176 1.355 . S
N175 C178 1.311 . S
C176 N175 1.355 . S
C176 C177 1.363 . S
C176 H188 0.929 . S
C177 C176 1.363 . S
C177 N179 1.375 . S
C177 H195 0.931 . S
C178 N175 1.311 . S
C178 N179 1.347 . S
C178 H189 0.929 . S
N179 C177 1.375 . S
N179 C178 1.347 . S
C180 C183 1.365 . S
C180 N185 1.328 . S
C180 H186 0.929 . S
C181 C182 1.362 . S
C181 C184 1.378 . S
C181 H196 0.929 . S
C182 C181 1.362 . S
C182 C183 1.366 . S
C183 C180 1.365 . S
C183 C182 1.366 . S
C183 H197 0.930 . S
C184 C181 1.378 . S
C184 N185 1.315 . S
C184 H187 0.930 . S
N185 Co165 2.194 . S
N185 C180 1.328 . S
N185 C184 1.315 . S
H186 C180 0.929 . S
H187 C184 0.930 . S
H188 C176 0.929 . S
H189 C178 0.929 . S
O190 Co165 2.351 . S
O190 C193 1.244 . S
O191 Co165 2.155 . S
O191 C193 1.240 . S
O192 Co165 2.096 . S
O192 C173 1.247 . S
C193 O190 1.244 . S
C193 O191 1.240 . S
H194 C168 0.931 . S
H195 C177 0.931 . S
H196 C181 0.929 . S
H197 C183 0.930 . S
Co198 N202 2.148 . S
Co198 N208 2.128 . S
Co198 N218 2.194 . S
Co198 O223 2.351 . S
Co198 O224 2.155 . S
Co198 O225 2.096 . S
C199 N202 1.301 . S
C199 N203 1.328 . S
C199 H204 0.930 . S
C200 C201 1.333 . S
C200 N202 1.317 . S
C200 H205 0.930 . S
C201 C200 1.333 . S
C201 N203 1.350 . S
C201 H227 0.931 . S
N202 Co198 2.148 . S
N202 C199 1.301 . S
N202 C200 1.317 . S
N203 C199 1.328 . S
N203 C201 1.350 . S
H204 C199 0.930 . S
H205 C200 0.930 . S
C206 O207 1.224 . S
C206 O225 1.247 . S
O207 C206 1.224 . S
N208 Co198 2.128 . S
N208 C209 1.355 . S
N208 C211 1.311 . S
C209 N208 1.355 . S
C209 C210 1.363 . S
C209 H221 0.929 . S
C210 C209 1.363 . S
C210 N212 1.375 . S
C210 H228 0.931 . S
C211 N208 1.311 . S
C211 N212 1.347 . S
C211 H222 0.929 . S
N212 C210 1.375 . S
N212 C211 1.347 . S
C213 C216 1.365 . S
C213 N218 1.328 . S
C213 H219 0.929 . S
C214 C215 1.362 . S
C214 C217 1.378 . S
C214 H229 0.929 . S
C215 C214 1.362 . S
C215 C216 1.366 . S
C216 C213 1.365 . S
C216 C215 1.366 . S
C216 H230 0.930 . S
C217 C214 1.378 . S
C217 N218 1.315 . S
C217 H220 0.930 . S
N218 Co198 2.194 . S
N218 C213 1.328 . S
N218 C217 1.315 . S
H219 C213 0.929 . S
H220 C217 0.930 . S
H221 C209 0.929 . S
H222 C211 0.929 . S
O223 Co198 2.351 . S
O223 C226 1.244 . S
O224 Co198 2.155 . S
O224 C226 1.240 . S
O225 Co198 2.096 . S
O225 C206 1.247 . S
C226 O223 1.244 . S
C226 O224 1.240 . S
H227 C201 0.931 . S
H228 C210 0.931 . S
H229 C214 0.929 . S
H230 C216 0.930 . S
Co231 N235 2.148 . S
Co231 N241 2.128 . S
Co231 N251 2.194 . S
Co231 O256 2.351 . S
Co231 O257 2.155 . S
Co231 O258 2.096 . S
C232 N235 1.301 . S
C232 N236 1.328 . S
C232 H237 0.930 . S
C233 C234 1.333 . S
C233 N235 1.317 . S
C233 H238 0.930 . S
C234 C233 1.333 . S
C234 N236 1.350 . S
C234 H260 0.931 . S
N235 Co231 2.148 . S
N235 C232 1.301 . S
N235 C233 1.317 . S
N236 C232 1.328 . S
N236 C234 1.350 . S
H237 C232 0.930 . S
H238 C233 0.930 . S
C239 O240 1.224 . S
C239 O258 1.247 . S
O240 C239 1.224 . S
N241 Co231 2.128 . S
N241 C242 1.355 . S
N241 C244 1.311 . S
C242 N241 1.355 . S
C242 C243 1.363 . S
C242 H254 0.929 . S
C243 C242 1.363 . S
C243 N245 1.375 . S
C243 H261 0.931 . S
C244 N241 1.311 . S
C244 N245 1.347 . S
C244 H255 0.929 . S
N245 C243 1.375 . S
N245 C244 1.347 . S
C246 C249 1.365 . S
C246 N251 1.328 . S
C246 H252 0.929 . S
C247 C248 1.362 . S
C247 C250 1.378 . S
C247 H262 0.929 . S
C248 C247 1.362 . S
C248 C249 1.366 . S
C249 C246 1.365 . S
C249 C248 1.366 . S
C249 H263 0.930 . S
C250 C247 1.378 . S
C250 N251 1.315 . S
C250 H253 0.930 . S
N251 Co231 2.194 . S
N251 C246 1.328 . S
N251 C250 1.315 . S
H252 C246 0.929 . S
H253 C250 0.930 . S
H254 C242 0.929 . S
H255 C244 0.929 . S
O256 Co231 2.351 . S
O256 C259 1.244 . S
O257 Co231 2.155 . S
O257 C259 1.240 . S
O258 Co231 2.096 . S
O258 C239 1.247 . S
C259 O256 1.244 . S
C259 O257 1.240 . S
H260 C234 0.931 . S
H261 C243 0.931 . S
H262 C247 0.929 . S
H263 C249 0.930 . S
Co264 N268 2.148 . S
Co264 N274 2.128 . S
Co264 N284 2.194 . S
Co264 O289 2.351 1_545 S
Co264 O290 2.155 1_545 S
Co264 O291 2.096 . S
C265 N268 1.301 . S
C265 N269 1.328 . S
C265 H270 0.930 1_545 S
C266 C267 1.333 . S
C266 N268 1.317 . S
C266 H271 0.930 . S
C267 C266 1.333 . S
C267 N269 1.350 . S
C267 H293 0.931 . S
N268 Co264 2.148 . S
N268 C265 1.301 . S
N268 C266 1.317 . S
N269 C265 1.328 . S
N269 C267 1.350 . S
H270 C265 0.930 1_565 S
H271 C266 0.930 . S
C272 O273 1.224 . S
C272 O291 1.247 . S
O273 C272 1.224 . S
N274 Co264 2.128 . S
N274 C275 1.355 . S
N274 C277 1.311 . S
C275 N274 1.355 . S
C275 C276 1.363 . S
C275 H287 0.929 1_545 S
C276 C275 1.363 . S
C276 N278 1.375 . S
C276 H294 0.931 . S
C277 N274 1.311 . S
C277 N278 1.347 . S
C277 H288 0.929 . S
N278 C276 1.375 . S
N278 C277 1.347 . S
C279 C282 1.365 . S
C279 N284 1.328 . S
C279 H285 0.929 1_545 S
C280 C281 1.362 . S
C280 C283 1.378 . S
C280 H295 0.929 . S
C281 C280 1.362 . S
C281 C282 1.366 . S
C282 C279 1.365 . S
C282 C281 1.366 . S
C282 H296 0.930 1_545 S
C283 C280 1.378 . S
C283 N284 1.315 . S
C283 H286 0.930 . S
N284 Co264 2.194 . S
N284 C279 1.328 . S
N284 C283 1.315 . S
H285 C279 0.929 1_565 S
H286 C283 0.930 . S
H287 C275 0.929 1_565 S
H288 C277 0.929 . S
O289 Co264 2.351 1_565 S
O289 C292 1.244 . S
O290 Co264 2.155 1_565 S
O290 C292 1.240 . S
O291 Co264 2.096 . S
O291 C272 1.247 . S
C292 O289 1.244 . S
C292 O290 1.240 . S
H293 C267 0.931 . S
H294 C276 0.931 . S
H295 C280 0.929 . S
H296 C282 0.930 1_565 S
Co297 N301 2.148 . S
Co297 N307 2.128 . S
Co297 N317 2.194 . S
Co297 O322 2.351 . S
Co297 O323 2.155 . S
Co297 O324 2.096 1_545 S
C298 N301 1.301 . S
C298 N302 1.328 . S
C298 H303 0.930 . S
C299 C300 1.333 . S
C299 N301 1.317 1_565 S
C299 H304 0.930 . S
C300 C299 1.333 . S
C300 N302 1.350 1_565 S
C300 H326 0.931 . S
N301 Co297 2.148 . S
N301 C298 1.301 . S
N301 C299 1.317 1_545 S
N302 C298 1.328 . S
N302 C300 1.350 1_545 S
H303 C298 0.930 . S
H304 C299 0.930 . S
C305 O306 1.224 . S
C305 O324 1.247 . S
O306 C305 1.224 . S
N307 Co297 2.128 . S
N307 C308 1.355 . S
N307 C310 1.312 1_545 S
C308 N307 1.355 . S
C308 C309 1.363 . S
C308 H320 0.929 . S
C309 C308 1.363 . S
C309 N311 1.375 . S
C309 H327 0.931 . S
C310 N307 1.312 1_565 S
C310 N311 1.348 1_565 S
C310 H321 0.927 . S
N311 C309 1.375 . S
N311 C310 1.348 1_545 S
C312 C315 1.365 . S
C312 N317 1.328 . S
C312 H318 0.929 . S
C313 C314 1.362 1_565 S
C313 C316 1.378 . S
C313 H328 0.929 . S
C314 C313 1.362 1_545 S
C314 C315 1.366 . S
C315 C312 1.365 . S
C315 C314 1.366 . S
C315 H329 0.930 . S
C316 C313 1.378 . S
C316 N317 1.315 1_565 S
C316 H319 0.930 . S
N317 Co297 2.194 . S
N317 C312 1.328 . S
N317 C316 1.315 1_545 S
H318 C312 0.929 . S
H319 C316 0.930 . S
H320 C308 0.929 . S
H321 C310 0.927 . S
O322 Co297 2.351 . S
O322 C325 1.244 . S
O323 Co297 2.155 . S
O323 C325 1.240 . S
O324 Co297 2.096 1_565 S
O324 C305 1.247 . S
C325 O322 1.244 . S
C325 O323 1.240 . S
H326 C300 0.931 . S
H327 C309 0.931 . S
H328 C313 0.929 . S
H329 C315 0.930 . S
Co330 N334 2.148 . S
Co330 N340 2.128 . S
Co330 N350 2.194 . S
Co330 O355 2.351 . S
Co330 O356 2.155 . S
Co330 O357 2.096 1_545 S
C331 N334 1.301 . S
C331 N335 1.328 . S
C331 H336 0.930 . S
C332 C333 1.333 . S
C332 N334 1.317 1_565 S
C332 H337 0.930 . S
C333 C332 1.333 . S
C333 N335 1.350 1_565 S
C333 H359 0.931 . S
N334 Co330 2.148 . S
N334 C331 1.301 . S
N334 C332 1.317 1_545 S
N335 C331 1.328 . S
N335 C333 1.350 1_545 S
H336 C331 0.930 . S
H337 C332 0.930 . S
C338 O339 1.224 . S
C338 O357 1.247 . S
O339 C338 1.224 . S
N340 Co330 2.128 . S
N340 C341 1.355 . S
N340 C343 1.312 1_545 S
C341 N340 1.355 . S
C341 C342 1.363 . S
C341 H353 0.929 . S
C342 C341 1.363 . S
C342 N344 1.375 . S
C342 H360 0.931 . S
C343 N340 1.312 1_565 S
C343 N344 1.348 1_565 S
C343 H354 0.927 . S
N344 C342 1.375 . S
N344 C343 1.348 1_545 S
C345 C348 1.365 . S
C345 N350 1.328 . S
C345 H351 0.929 . S
C346 C347 1.362 1_565 S
C346 C349 1.378 . S
C346 H361 0.929 . S
C347 C346 1.362 1_545 S
C347 C348 1.366 . S
C348 C345 1.365 . S
C348 C347 1.366 . S
C348 H362 0.930 . S
C349 C346 1.378 . S
C349 N350 1.315 1_565 S
C349 H352 0.930 . S
N350 Co330 2.194 . S
N350 C345 1.328 . S
N350 C349 1.315 1_545 S
H351 C345 0.929 . S
H352 C349 0.930 . S
H353 C341 0.929 . S
H354 C343 0.927 . S
O355 Co330 2.351 . S
O355 C358 1.244 . S
O356 Co330 2.155 . S
O356 C358 1.240 . S
O357 Co330 2.096 1_565 S
O357 C338 1.247 . S
C358 O355 1.244 . S
C358 O356 1.240 . S
H359 C333 0.931 . S
H360 C342 0.931 . S
H361 C346 0.929 . S
H362 C348 0.930 . S
Co363 N367 2.148 . S
Co363 N373 2.128 . S
Co363 N383 2.194 . S
Co363 O388 2.351 1_545 S
Co363 O389 2.155 1_545 S
Co363 O390 2.096 . S
C364 N367 1.301 . S
C364 N368 1.328 . S
C364 H369 0.930 1_545 S
C365 C366 1.333 . S
C365 N367 1.317 . S
C365 H370 0.930 . S
C366 C365 1.333 . S
C366 N368 1.350 . S
C366 H392 0.931 . S
N367 Co363 2.148 . S
N367 C364 1.301 . S
N367 C365 1.317 . S
N368 C364 1.328 . S
N368 C366 1.350 . S
H369 C364 0.930 1_565 S
H370 C365 0.930 . S
C371 O372 1.224 . S
C371 O390 1.247 . S
O372 C371 1.224 . S
N373 Co363 2.128 . S
N373 C374 1.355 . S
N373 C376 1.311 . S
C374 N373 1.355 . S
C374 C375 1.363 . S
C374 H386 0.929 1_545 S
C375 C374 1.363 . S
C375 N377 1.375 . S
C375 H393 0.931 . S
C376 N373 1.311 . S
C376 N377 1.347 . S
C376 H387 0.929 . S
N377 C375 1.375 . S
N377 C376 1.347 . S
C378 C381 1.365 . S
C378 N383 1.328 . S
C378 H384 0.929 1_545 S
C379 C380 1.362 . S
C379 C382 1.378 . S
C379 H394 0.929 . S
C380 C379 1.362 . S
C380 C381 1.366 . S
C381 C378 1.365 . S
C381 C380 1.366 . S
C381 H395 0.930 1_545 S
C382 C379 1.378 . S
C382 N383 1.315 . S
C382 H385 0.930 . S
N383 Co363 2.194 . S
N383 C378 1.328 . S
N383 C382 1.315 . S
H384 C378 0.929 1_565 S
H385 C382 0.930 . S
H386 C374 0.929 1_565 S
H387 C376 0.929 . S
O388 Co363 2.351 1_565 S
O388 C391 1.244 . S
O389 Co363 2.155 1_565 S
O389 C391 1.240 . S
O390 Co363 2.096 . S
O390 C371 1.247 . S
C391 O388 1.244 . S
C391 O389 1.240 . S
H392 C366 0.931 . S
H393 C375 0.931 . S
H394 C379 0.929 . S
H395 C381 0.930 1_565 S
Co396 N400 2.148 . S
Co396 N406 2.128 . S
Co396 N416 2.194 . S
Co396 O421 2.351 . S
Co396 O422 2.155 . S
Co396 O423 2.096 . S
C397 N400 1.301 . S
C397 N401 1.328 . S
C397 H402 0.930 . S
C398 C399 1.333 . S
C398 N400 1.317 . S
C398 H403 0.930 . S
C399 C398 1.333 . S
C399 N401 1.350 . S
C399 H425 0.931 . S
N400 Co396 2.148 . S
N400 C397 1.301 . S
N400 C398 1.317 . S
N401 C397 1.328 . S
N401 C399 1.350 . S
H402 C397 0.930 . S
H403 C398 0.930 . S
C404 O405 1.224 . S
C404 O423 1.247 . S
O405 C404 1.224 . S
N406 Co396 2.128 . S
N406 C407 1.355 . S
N406 C409 1.311 . S
C407 N406 1.355 . S
C407 C408 1.363 . S
C407 H419 0.929 . S
C408 C407 1.363 . S
C408 N410 1.375 . S
C408 H426 0.931 . S
C409 N406 1.311 . S
C409 N410 1.347 . S
C409 H420 0.929 . S
N410 C408 1.375 . S
N410 C409 1.347 . S
C411 C414 1.365 . S
C411 N416 1.328 . S
C411 H417 0.929 . S
C412 C413 1.362 . S
C412 C415 1.378 . S
C412 H427 0.929 . S
C413 C412 1.362 . S
C413 C414 1.366 . S
C414 C411 1.365 . S
C414 C413 1.366 . S
C414 H428 0.930 . S
C415 C412 1.378 . S
C415 N416 1.315 . S
C415 H418 0.930 . S
N416 Co396 2.194 . S
N416 C411 1.328 . S
N416 C415 1.315 . S
H417 C411 0.929 . S
H418 C415 0.930 . S
H419 C407 0.929 . S
H420 C409 0.929 . S
O421 Co396 2.351 . S
O421 C424 1.244 . S
O422 Co396 2.155 . S
O422 C424 1.240 . S
O423 Co396 2.096 . S
O423 C404 1.247 . S
C424 O421 1.244 . S
C424 O422 1.240 . S
H425 C399 0.931 . S
H426 C408 0.931 . S
H427 C412 0.929 . S
H428 C414 0.930 . S
Co429 N433 2.148 . S
Co429 N439 2.128 . S
Co429 N449 2.194 . S
Co429 O454 2.351 . S
Co429 O455 2.155 . S
Co429 O456 2.096 . S
C430 N433 1.301 . S
C430 N434 1.328 . S
C430 H435 0.930 . S
C431 C432 1.333 . S
C431 N433 1.317 . S
C431 H436 0.930 . S
C432 C431 1.333 . S
C432 N434 1.350 . S
C432 H458 0.931 . S
N433 Co429 2.148 . S
N433 C430 1.301 . S
N433 C431 1.317 . S
N434 C430 1.328 . S
N434 C432 1.350 . S
H435 C430 0.930 . S
H436 C431 0.930 . S
C437 O438 1.224 . S
C437 O456 1.247 . S
O438 C437 1.224 . S
N439 Co429 2.128 . S
N439 C440 1.355 . S
N439 C442 1.311 . S
C440 N439 1.355 . S
C440 C441 1.363 . S
C440 H452 0.929 . S
C441 C440 1.363 . S
C441 N443 1.375 . S
C441 H459 0.931 . S
C442 N439 1.311 . S
C442 N443 1.347 . S
C442 H453 0.929 . S
N443 C441 1.375 . S
N443 C442 1.347 . S
C444 C447 1.365 . S
C444 N449 1.328 . S
C444 H450 0.929 . S
C445 C446 1.362 . S
C445 C448 1.378 . S
C445 H460 0.929 . S
C446 C445 1.362 . S
C446 C447 1.366 . S
C447 C444 1.365 . S
C447 C446 1.366 . S
C447 H461 0.930 . S
C448 C445 1.378 . S
C448 N449 1.315 . S
C448 H451 0.930 . S
N449 Co429 2.194 . S
N449 C444 1.328 . S
N449 C448 1.315 . S
H450 C444 0.929 . S
H451 C448 0.930 . S
H452 C440 0.929 . S
H453 C442 0.929 . S
O454 Co429 2.351 . S
O454 C457 1.244 . S
O455 Co429 2.155 . S
O455 C457 1.240 . S
O456 Co429 2.096 . S
O456 C437 1.247 . S
C457 O454 1.244 . S
C457 O455 1.240 . S
H458 C432 0.931 . S
H459 C441 0.931 . S
H460 C445 0.929 . S
H461 C447 0.930 . S
Co462 N466 2.148 . S
Co462 N472 2.128 . S
Co462 N482 2.194 . S
Co462 O487 2.351 . S
Co462 O488 2.155 . S
Co462 O489 2.096 . S
C463 N466 1.301 . S
C463 N467 1.328 . S
C463 H468 0.930 . S
C464 C465 1.333 . S
C464 N466 1.317 . S
C464 H469 0.930 . S
C465 C464 1.333 . S
C465 N467 1.350 . S
C465 H491 0.931 . S
N466 Co462 2.148 . S
N466 C463 1.301 . S
N466 C464 1.317 . S
N467 C463 1.328 . S
N467 C465 1.350 . S
H468 C463 0.930 . S
H469 C464 0.930 . S
C470 O471 1.224 . S
C470 O489 1.247 . S
O471 C470 1.224 . S
N472 Co462 2.128 . S
N472 C473 1.355 . S
N472 C475 1.311 . S
C473 N472 1.355 . S
C473 C474 1.363 . S
C473 H485 0.929 . S
C474 C473 1.363 . S
C474 N476 1.375 . S
C474 H492 0.931 . S
C475 N472 1.311 . S
C475 N476 1.347 . S
C475 H486 0.929 . S
N476 C474 1.375 . S
N476 C475 1.347 . S
C477 C480 1.365 . S
C477 N482 1.328 . S
C477 H483 0.929 . S
C478 C479 1.362 . S
C478 C481 1.378 . S
C478 H493 0.929 . S
C479 C478 1.362 . S
C479 C480 1.366 . S
C480 C477 1.365 . S
C480 C479 1.366 . S
C480 H494 0.930 . S
C481 C478 1.378 . S
C481 N482 1.315 . S
C481 H484 0.930 . S
N482 Co462 2.194 . S
N482 C477 1.328 . S
N482 C481 1.315 . S
H483 C477 0.929 . S
H484 C481 0.930 . S
H485 C473 0.929 . S
H486 C475 0.929 . S
O487 Co462 2.351 . S
O487 C490 1.244 . S
O488 Co462 2.155 . S
O488 C490 1.240 . S
O489 Co462 2.096 . S
O489 C470 1.247 . S
C490 O487 1.244 . S
C490 O488 1.240 . S
H491 C465 0.931 . S
H492 C474 0.931 . S
H493 C478 0.929 . S
H494 C480 0.930 . S
Co495 N499 2.148 . S
Co495 N505 2.128 . S
Co495 N515 2.194 . S
Co495 O520 2.351 . S
Co495 O521 2.155 . S
Co495 O522 2.096 . S
C496 N499 1.301 . S
C496 N500 1.328 . S
C496 H501 0.930 . S
C497 C498 1.333 . S
C497 N499 1.317 . S
C497 H502 0.930 . S
C498 C497 1.333 . S
C498 N500 1.350 . S
C498 H524 0.931 . S
N499 Co495 2.148 . S
N499 C496 1.301 . S
N499 C497 1.317 . S
N500 C496 1.328 . S
N500 C498 1.350 . S
H501 C496 0.930 . S
H502 C497 0.930 . S
C503 O504 1.224 . S
C503 O522 1.247 . S
O504 C503 1.224 . S
N505 Co495 2.128 . S
N505 C506 1.355 . S
N505 C508 1.311 . S
C506 N505 1.355 . S
C506 C507 1.363 . S
C506 H518 0.929 . S
C507 C506 1.363 . S
C507 N509 1.375 . S
C507 H525 0.931 . S
C508 N505 1.311 . S
C508 N509 1.347 . S
C508 H519 0.929 . S
N509 C507 1.375 . S
N509 C508 1.347 . S
C510 C513 1.365 . S
C510 N515 1.328 . S
C510 H516 0.929 . S
C511 C512 1.362 . S
C511 C514 1.378 . S
C511 H526 0.929 . S
C512 C511 1.362 . S
C512 C513 1.366 . S
C513 C510 1.365 . S
C513 C512 1.366 . S
C513 H527 0.930 . S
C514 C511 1.378 . S
C514 N515 1.315 . S
C514 H517 0.930 . S
N515 Co495 2.194 . S
N515 C510 1.328 . S
N515 C514 1.315 . S
H516 C510 0.929 . S
H517 C514 0.930 . S
H518 C506 0.929 . S
H519 C508 0.929 . S
O520 Co495 2.351 . S
O520 C523 1.244 . S
O521 Co495 2.155 . S
O521 C523 1.240 . S
O522 Co495 2.096 . S
O522 C503 1.247 . S
C523 O520 1.244 . S
C523 O521 1.240 . S
H524 C498 0.931 . S
H525 C507 0.931 . S
H526 C511 0.929 . S
H527 C513 0.930 . S
H528 C534 0.930 1_565 S
H529 C538 0.930 . S
H530 C543 0.929 . S
H531 C541 0.929 1_565 S
H532 C536 0.929 . S
H533 C542 0.929 1_565 S
C534 H528 0.930 1_545 S
C534 C535 1.367 . S
C534 C542 1.378 . S
C535 C534 1.367 . S
C535 C543 1.433 . S
C536 H532 0.929 . S
C536 C538 1.378 . S
C536 C540 1.350 . S
C537 C540 1.463 . S
C537 C542 1.350 . S
C537 N545 1.427 . S
C538 H529 0.930 . S
C538 C536 1.378 . S
C538 C539 1.367 . S
C539 C538 1.367 . S
C539 C541 1.433 . S
C540 C536 1.350 . S
C540 C537 1.463 . S
C540 N544 1.427 . S
C541 H531 0.929 1_545 S
C541 C539 1.433 . S
C541 N544 1.384 . S
C542 H533 0.929 1_545 S
C542 C534 1.378 . S
C542 C537 1.350 . S
C543 H530 0.929 . S
C543 C535 1.433 . S
C543 N545 1.384 . S
N544 C540 1.427 . S
N544 C541 1.384 . S
N545 C537 1.427 . S
N545 C543 1.384 . S
H546 C552 0.930 . S
H547 C556 0.930 . S
H548 C561 0.929 . S
H549 C559 0.929 . S
H550 C554 0.929 . S
H551 C560 0.929 . S
C552 H546 0.930 . S
C552 C553 1.367 . S
C552 C560 1.378 . S
C553 C552 1.367 . S
C553 C561 1.433 1_565 S
C554 H550 0.929 . S
C554 C556 1.378 . S
C554 C558 1.350 1_545 S
C555 C558 1.463 . S
C555 C560 1.350 . S
C555 N563 1.427 1_565 S
C556 H547 0.930 . S
C556 C554 1.378 . S
C556 C557 1.367 1_545 S
C557 C556 1.367 1_565 S
C557 C559 1.433 . S
C558 C554 1.350 1_565 S
C558 C555 1.463 . S
C558 N562 1.427 . S
C559 H549 0.929 . S
C559 C557 1.433 . S
C559 N562 1.384 . S
C560 H551 0.929 . S
C560 C552 1.378 . S
C560 C555 1.350 . S
C561 H548 0.929 . S
C561 C553 1.433 1_545 S
C561 N563 1.384 . S
N562 C558 1.427 . S
N562 C559 1.384 . S
N563 C555 1.427 1_545 S
N563 C561 1.384 . S
H564 C570 0.930 . S
H565 C574 0.930 . S
H566 C579 0.929 . S
H567 C577 0.929 . S
H568 C572 0.929 . S
H569 C578 0.929 . S
C570 H564 0.930 . S
C570 C571 1.367 . S
C570 C578 1.378 . S
C571 C570 1.367 . S
C571 C579 1.433 1_565 S
C572 H568 0.929 . S
C572 C574 1.378 . S
C572 C576 1.332 1_545 S
C573 C576 1.464 . S
C573 C578 1.350 . S
C573 N581 1.427 1_565 S
C574 H565 0.930 . S
C574 C572 1.378 . S
C574 C575 1.367 1_545 S
C575 C574 1.367 1_565 S
C575 C577 1.433 . S
C576 C572 1.332 1_565 S
C576 C573 1.464 . S
C576 N580 1.446 . S
C577 H567 0.929 . S
C577 C575 1.433 . S
C577 N580 1.384 . S
C578 H569 0.929 . S
C578 C570 1.378 . S
C578 C573 1.350 . S
C579 H566 0.929 . S
C579 C571 1.433 1_545 S
C579 N581 1.384 . S
N580 C576 1.446 . S
N580 C577 1.384 . S
N581 C573 1.427 1_545 S
N581 C579 1.384 . S
H582 C588 0.930 . S
H583 C592 0.930 . S
H584 C597 0.929 . S
H585 C595 0.929 . S
H586 C590 0.929 . S
H587 C596 0.929 . S
C588 H582 0.930 . S
C588 C589 1.367 . S
C588 C596 1.378 . S
C589 C588 1.367 . S
C589 C597 1.433 . S
C590 H586 0.929 . S
C590 C592 1.378 . S
C590 C594 1.350 . S
C591 C594 1.463 . S
C591 C596 1.350 . S
C591 N599 1.427 . S
C592 H583 0.930 . S
C592 C590 1.378 . S
C592 C593 1.367 . S
C593 C592 1.367 . S
C593 C595 1.433 . S
C594 C590 1.350 . S
C594 C591 1.463 . S
C594 N598 1.427 . S
C595 H585 0.929 . S
C595 C593 1.433 . S
C595 N598 1.384 . S
C596 H587 0.929 . S
C596 C588 1.378 . S
C596 C591 1.350 . S
C597 H584 0.929 . S
C597 C589 1.433 . S
C597 N599 1.384 . S
N598 C594 1.427 . S
N598 C595 1.384 . S
N599 C591 1.427 . S
N599 C597 1.384 . S
H600 C606 0.930 . S
H601 C610 0.930 . S
H602 C615 0.929 . S
H603 C613 0.929 . S
H604 C608 0.929 . S
H605 C614 0.929 . S
C606 H600 0.930 . S
C606 C607 1.367 . S
C606 C614 1.378 . S
C607 C606 1.367 . S
C607 C615 1.433 . S
C608 H604 0.929 . S
C608 C610 1.378 . S
C608 C612 1.350 . S
C609 C612 1.463 . S
C609 C614 1.350 . S
C609 N617 1.427 . S
C610 H601 0.930 . S
C610 C608 1.378 . S
C610 C611 1.367 . S
C611 C610 1.367 . S
C611 C613 1.433 . S
C612 C608 1.350 . S
C612 C609 1.463 . S
C612 N616 1.427 . S
C613 H603 0.929 . S
C613 C611 1.433 . S
C613 N616 1.384 . S
C614 H605 0.929 . S
C614 C606 1.378 . S
C614 C609 1.350 . S
C615 H602 0.929 . S
C615 C607 1.433 . S
C615 N617 1.384 . S
N616 C612 1.427 . S
N616 C613 1.384 . S
N617 C609 1.427 . S
N617 C615 1.384 . S
H618 C624 0.930 . S
H619 C628 0.930 . S
H620 C633 0.929 . S
H621 C631 0.929 . S
H622 C626 0.929 . S
H623 C632 0.929 . S
C624 H618 0.930 . S
C624 C625 1.367 . S
C624 C632 1.378 . S
C625 C624 1.367 . S
C625 C633 1.433 . S
C626 H622 0.929 . S
C626 C628 1.378 . S
C626 C630 1.350 . S
C627 C630 1.463 . S
C627 C632 1.350 . S
C627 N635 1.427 . S
C628 H619 0.930 . S
C628 C626 1.378 . S
C628 C629 1.367 . S
C629 C628 1.367 . S
C629 C631 1.433 . S
C630 C626 1.350 . S
C630 C627 1.463 . S
C630 N634 1.427 . S
C631 H621 0.929 . S
C631 C629 1.433 . S
C631 N634 1.384 . S
C632 H623 0.929 . S
C632 C624 1.378 . S
C632 C627 1.350 . S
C633 H620 0.929 . S
C633 C625 1.433 . S
C633 N635 1.384 . S
N634 C630 1.427 . S
N634 C631 1.384 . S
N635 C627 1.427 . S
N635 C633 1.384 . S
H636 C642 0.930 . S
H637 C646 0.930 . S
H638 C651 0.929 . S
H639 C649 0.929 . S
H640 C644 0.929 . S
H641 C650 0.929 . S
C642 H636 0.930 . S
C642 C643 1.367 . S
C642 C650 1.378 . S
C643 C642 1.367 . S
C643 C651 1.433 . S
C644 H640 0.929 . S
C644 C646 1.378 . S
C644 C648 1.350 . S
C645 C648 1.463 . S
C645 C650 1.350 . S
C645 N653 1.427 . S
C646 H637 0.930 . S
C646 C644 1.378 . S
C646 C647 1.367 . S
C647 C646 1.367 . S
C647 C649 1.433 . S
C648 C644 1.350 . S
C648 C645 1.463 . S
C648 N652 1.427 . S
C649 H639 0.929 . S
C649 C647 1.433 . S
C649 N652 1.384 . S
C650 H641 0.929 . S
C650 C642 1.378 . S
C650 C645 1.350 . S
C651 H638 0.929 . S
C651 C643 1.433 . S
C651 N653 1.384 . S
N652 C648 1.427 . S
N652 C649 1.384 . S
N653 C645 1.427 . S
N653 C651 1.384 . S
H654 C660 0.930 . S
H655 C664 0.930 . S
H656 C669 0.929 . S
H657 C667 0.929 . S
H658 C662 0.929 . S
H659 C668 0.929 . S
C660 H654 0.930 . S
C660 C661 1.367 . S
C660 C668 1.378 . S
C661 C660 1.367 . S
C661 C669 1.433 . S
C662 H658 0.929 . S
C662 C664 1.378 . S
C662 C666 1.350 . S
C663 C666 1.463 . S
C663 C668 1.350 . S
C663 N671 1.427 . S
C664 H655 0.930 . S
C664 C662 1.378 . S
C664 C665 1.367 . S
C665 C664 1.367 . S
C665 C667 1.433 . S
C666 C662 1.350 . S
C666 C663 1.463 . S
C666 N670 1.427 . S
C667 H657 0.929 . S
C667 C665 1.433 . S
C667 N670 1.384 . S
C668 H659 0.929 . S
C668 C660 1.378 . S
C668 C663 1.350 . S
C669 H656 0.929 . S
C669 C661 1.433 . S
C669 N671 1.384 . S
N670 C666 1.427 . S
N670 C667 1.384 . S
N671 C663 1.427 . S
N671 C669 1.384 . S
H672 C678 0.930 . S
H673 C682 0.930 . S
H674 C687 0.929 . S
H675 C685 0.929 . S
H676 C680 0.929 . S
H677 C686 0.929 . S
C678 H672 0.930 . S
C678 C679 1.367 . S
C678 C686 1.378 . S
C679 C678 1.367 . S
C679 C687 1.433 . S
C680 H676 0.929 . S
C680 C682 1.378 . S
C680 C684 1.350 . S
C681 C684 1.463 . S
C681 C686 1.350 . S
C681 N689 1.427 . S
C682 H673 0.930 . S
C682 C680 1.378 . S
C682 C683 1.367 . S
C683 C682 1.367 . S
C683 C685 1.433 . S
C684 C680 1.350 . S
C684 C681 1.463 . S
C684 N688 1.427 . S
C685 H675 0.929 . S
C685 C683 1.433 . S
C685 N688 1.384 . S
C686 H677 0.929 . S
C686 C678 1.378 . S
C686 C681 1.350 . S
C687 H674 0.929 . S
C687 C679 1.433 . S
C687 N689 1.384 . S
N688 C684 1.427 . S
N688 C685 1.384 . S
N689 C681 1.427 . S
N689 C687 1.384 . S
H690 C696 0.930 . S
H691 C700 0.930 . S
H692 C705 0.929 . S
H693 C703 0.929 . S
H694 C698 0.929 . S
H695 C704 0.929 . S
C696 H690 0.930 . S
C696 C697 1.367 . S
C696 C704 1.378 . S
C697 C696 1.367 . S
C697 C705 1.433 . S
C698 H694 0.929 . S
C698 C700 1.378 . S
C698 C702 1.350 . S
C699 C702 1.463 . S
C699 C704 1.350 . S
C699 N707 1.427 . S
C700 H691 0.930 . S
C700 C698 1.378 . S
C700 C701 1.367 . S
C701 C700 1.367 . S
C701 C703 1.433 . S
C702 C698 1.350 . S
C702 C699 1.463 . S
C702 N706 1.427 . S
C703 H693 0.929 . S
C703 C701 1.433 . S
C703 N706 1.384 . S
C704 H695 0.929 . S
C704 C696 1.378 . S
C704 C699 1.350 . S
C705 H692 0.929 . S
C705 C697 1.433 . S
C705 N707 1.384 . S
N706 C702 1.427 . S
N706 C703 1.384 . S
N707 C699 1.427 . S
N707 C705 1.384 . S
H708 C714 0.930 . S
H709 C718 0.930 . S
H710 C723 0.929 . S
H711 C721 0.929 . S
H712 C716 0.929 . S
H713 C722 0.929 . S
C714 H708 0.930 . S
C714 C715 1.367 . S
C714 C722 1.378 . S
C715 C714 1.367 . S
C715 C723 1.433 . S
C716 H712 0.929 . S
C716 C718 1.378 . S
C716 C720 1.350 . S
C717 C720 1.463 . S
C717 C722 1.350 . S
C717 N725 1.427 . S
C718 H709 0.930 . S
C718 C716 1.378 . S
C718 C719 1.367 . S
C719 C718 1.367 . S
C719 C721 1.433 . S
C720 C716 1.350 . S
C720 C717 1.463 . S
C720 N724 1.427 . S
C721 H711 0.929 . S
C721 C719 1.433 . S
C721 N724 1.384 . S
C722 H713 0.929 . S
C722 C714 1.378 . S
C722 C717 1.350 . S
C723 H710 0.929 . S
C723 C715 1.433 . S
C723 N725 1.384 . S
N724 C720 1.427 . S
N724 C721 1.384 . S
N725 C717 1.427 . S
N725 C723 1.384 . S
H726 C732 0.930 . S
H727 C736 0.930 . S
H728 C741 0.929 . S
H729 C739 0.929 . S
H730 C734 0.929 . S
H731 C740 0.929 . S
C732 H726 0.930 . S
C732 C733 1.367 . S
C732 C740 1.378 . S
C733 C732 1.367 . S
C733 C741 1.433 . S
C734 H730 0.929 . S
C734 C736 1.378 . S
C734 C738 1.350 . S
C735 C738 1.463 . S
C735 C740 1.350 . S
C735 N743 1.427 . S
C736 H727 0.930 . S
C736 C734 1.378 . S
C736 C737 1.367 . S
C737 C736 1.367 . S
C737 C739 1.433 . S
C738 C734 1.350 . S
C738 C735 1.463 . S
C738 N742 1.427 . S
C739 H729 0.929 . S
C739 C737 1.433 . S
C739 N742 1.384 . S
C740 H731 0.929 . S
C740 C732 1.378 . S
C740 C735 1.350 . S
C741 H728 0.929 . S
C741 C733 1.433 . S
C741 N743 1.384 . S
N742 C738 1.427 . S
N742 C739 1.384 . S
N743 C735 1.427 . S
N743 C741 1.384 . S
H744 C750 0.930 . S
H745 C754 0.930 . S
H746 C759 0.929 . S
H747 C757 0.929 . S
H748 C752 0.929 . S
H749 C758 0.929 . S
C750 H744 0.930 . S
C750 C751 1.367 . S
C750 C758 1.378 . S
C751 C750 1.367 . S
C751 C759 1.433 . S
C752 H748 0.929 . S
C752 C754 1.378 . S
C752 C756 1.350 . S
C753 C756 1.463 . S
C753 C758 1.350 . S
C753 N761 1.427 . S
C754 H745 0.930 . S
C754 C752 1.378 . S
C754 C755 1.367 . S
C755 C754 1.367 . S
C755 C757 1.433 . S
C756 C752 1.350 . S
C756 C753 1.463 . S
C756 N760 1.427 . S
C757 H747 0.929 . S
C757 C755 1.433 . S
C757 N760 1.384 . S
C758 H749 0.929 . S
C758 C750 1.378 . S
C758 C753 1.350 . S
C759 H746 0.929 . S
C759 C751 1.433 . S
C759 N761 1.384 . S
N760 C756 1.427 . S
N760 C757 1.384 . S
N761 C753 1.427 . S
N761 C759 1.384 . S
H762 C768 0.930 . S
H763 C772 0.930 . S
H764 C777 0.929 . S
H765 C775 0.929 . S
H766 C770 0.929 . S
H767 C776 0.929 . S
C768 H762 0.930 . S
C768 C769 1.367 . S
C768 C776 1.378 . S
C769 C768 1.367 . S
C769 C777 1.433 . S
C770 H766 0.929 . S
C770 C772 1.378 . S
C770 C774 1.350 . S
C771 C774 1.463 . S
C771 C776 1.350 . S
C771 N779 1.427 . S
C772 H763 0.930 . S
C772 C770 1.378 . S
C772 C773 1.367 . S
C773 C772 1.367 . S
C773 C775 1.433 . S
C774 C770 1.350 . S
C774 C771 1.463 . S
C774 N778 1.427 . S
C775 H765 0.929 . S
C775 C773 1.433 . S
C775 N778 1.384 . S
C776 H767 0.929 . S
C776 C768 1.378 . S
C776 C771 1.350 . S
C777 H764 0.929 . S
C777 C769 1.433 . S
C777 N779 1.384 . S
N778 C774 1.427 . S
N778 C775 1.384 . S
N779 C771 1.427 . S
N779 C777 1.384 . S
H780 C786 0.930 . S
H781 C790 0.930 . S
H782 C795 0.929 . S
H783 C793 0.929 . S
H784 C788 0.929 . S
H785 C794 0.929 . S
C786 H780 0.930 . S
C786 C787 1.367 . S
C786 C794 1.378 . S
C787 C786 1.367 . S
C787 C795 1.433 . S
C788 H784 0.929 . S
C788 C790 1.378 . S
C788 C792 1.350 . S
C789 C792 1.463 . S
C789 C794 1.350 . S
C789 N797 1.427 . S
C790 H781 0.930 . S
C790 C788 1.378 . S
C790 C791 1.367 . S
C791 C790 1.367 . S
C791 C793 1.433 . S
C792 C788 1.350 . S
C792 C789 1.463 . S
C792 N796 1.427 . S
C793 H783 0.929 . S
C793 C791 1.433 . S
C793 N796 1.384 . S
C794 H785 0.929 . S
C794 C786 1.378 . S
C794 C789 1.350 . S
C795 H782 0.929 . S
C795 C787 1.433 . S
C795 N797 1.384 . S
N796 C792 1.427 . S
N796 C793 1.384 . S
N797 C789 1.427 . S
N797 C795 1.384 . S
H798 C804 0.930 . S
H799 C808 0.930 . S
H800 C813 0.929 . S
H801 C811 0.929 . S
H802 C806 0.929 . S
H803 C812 0.929 . S
C804 H798 0.930 . S
C804 C805 1.367 . S
C804 C812 1.378 . S
C805 C804 1.367 . S
C805 C813 1.433 . S
C806 H802 0.929 . S
C806 C808 1.378 . S
C806 C810 1.350 . S
C807 C810 1.463 . S
C807 C812 1.350 . S
C807 N815 1.427 . S
C808 H799 0.930 . S
C808 C806 1.378 . S
C808 C809 1.367 . S
C809 C808 1.367 . S
C809 C811 1.433 . S
C810 C806 1.350 . S
C810 C807 1.463 . S
C810 N814 1.427 . S
C811 H801 0.929 . S
C811 C809 1.433 . S
C811 N814 1.384 . S
C812 H803 0.929 . S
C812 C804 1.378 . S
C812 C807 1.350 . S
C813 H800 0.929 . S
C813 C805 1.433 . S
C813 N815 1.384 . S
N814 C810 1.427 . S
N814 C811 1.384 . S
N815 C807 1.427 . S
N815 C813 1.384 . S
H816 C822 0.930 . S
H817 C826 0.930 . S
H818 C831 0.929 . S
H819 C829 0.929 . S
H820 C824 0.929 . S
H821 C830 0.929 . S
C822 H816 0.930 . S
C822 C823 1.367 . S
C822 C830 1.378 . S
C823 C822 1.367 . S
C823 C831 1.433 . S
C824 H820 0.929 . S
C824 C826 1.378 . S
C824 C828 1.350 . S
C825 C828 1.463 . S
C825 C830 1.350 . S
C825 N833 1.427 . S
C826 H817 0.930 . S
C826 C824 1.378 . S
C826 C827 1.367 . S
C827 C826 1.367 . S
C827 C829 1.433 . S
C828 C824 1.350 . S
C828 C825 1.463 . S
C828 N832 1.427 . S
C829 H819 0.929 . S
C829 C827 1.433 . S
C829 N832 1.384 . S
C830 H821 0.929 . S
C830 C822 1.378 . S
C830 C825 1.350 . S
C831 H818 0.929 . S
C831 C823 1.433 . S
C831 N833 1.384 . S
N832 C828 1.427 . S
N832 C829 1.384 . S
N833 C825 1.427 . S
N833 C831 1.384 . S
H834 C840 0.930 . S
H835 C844 0.930 . S
H836 C849 0.929 . S
H837 C847 0.929 . S
H838 C842 0.929 . S
H839 C848 0.929 . S
C840 H834 0.930 . S
C840 C841 1.367 . S
C840 C848 1.378 . S
C841 C840 1.367 . S
C841 C849 1.433 . S
C842 H838 0.929 . S
C842 C844 1.378 . S
C842 C846 1.350 . S
C843 C846 1.463 . S
C843 C848 1.350 . S
C843 N851 1.427 . S
C844 H835 0.930 . S
C844 C842 1.378 . S
C844 C845 1.367 . S
C845 C844 1.367 . S
C845 C847 1.433 . S
C846 C842 1.350 . S
C846 C843 1.463 . S
C846 N850 1.427 . S
C847 H837 0.929 . S
C847 C845 1.433 . S
C847 N850 1.384 . S
C848 H839 0.929 . S
C848 C840 1.378 . S
C848 C843 1.350 . S
C849 H836 0.929 . S
C849 C841 1.433 . S
C849 N851 1.384 . S
N850 C846 1.427 . S
N850 C847 1.384 . S
N851 C843 1.427 . S
N851 C849 1.384 . S
H852 C858 0.930 . S
H853 C862 0.930 . S
H854 C867 0.929 . S
H855 C865 0.929 . S
H856 C860 0.929 . S
H857 C866 0.929 . S
C858 H852 0.930 . S
C858 C859 1.367 . S
C858 C866 1.378 . S
C859 C858 1.367 . S
C859 C867 1.433 . S
C860 H856 0.929 . S
C860 C862 1.378 . S
C860 C864 1.350 . S
C861 C864 1.463 . S
C861 C866 1.350 . S
C861 N869 1.427 . S
C862 H853 0.930 . S
C862 C860 1.378 . S
C862 C863 1.367 . S
C863 C862 1.367 . S
C863 C865 1.433 . S
C864 C860 1.350 . S
C864 C861 1.463 . S
C864 N868 1.427 . S
C865 H855 0.929 . S
C865 C863 1.433 . S
C865 N868 1.384 . S
C866 H857 0.929 . S
C866 C858 1.378 . S
C866 C861 1.350 . S
C867 H854 0.929 . S
C867 C859 1.433 . S
C867 N869 1.384 . S
N868 C864 1.427 . S
N868 C865 1.384 . S
N869 C861 1.427 . S
N869 C867 1.384 . S
H870 C876 0.930 . S
H871 C880 0.930 . S
H872 C885 0.929 . S
H873 C883 0.929 . S
H874 C878 0.929 . S
H875 C884 0.929 . S
C876 H870 0.930 . S
C876 C877 1.367 . S
C876 C884 1.378 . S
C877 C876 1.367 . S
C877 C885 1.433 . S
C878 H874 0.929 . S
C878 C880 1.378 . S
C878 C882 1.350 . S
C879 C882 1.463 . S
C879 C884 1.350 . S
C879 N887 1.427 . S
C880 H871 0.930 . S
C880 C878 1.378 . S
C880 C881 1.367 . S
C881 C880 1.367 . S
C881 C883 1.433 . S
C882 C878 1.350 . S
C882 C879 1.463 . S
C882 N886 1.427 . S
C883 H873 0.929 . S
C883 C881 1.433 . S
C883 N886 1.384 . S
C884 H875 0.929 . S
C884 C876 1.378 . S
C884 C879 1.350 . S
C885 H872 0.929 . S
C885 C877 1.433 . S
C885 N887 1.384 . S
N886 C882 1.427 . S
N886 C883 1.384 . S
N887 C879 1.427 . S
N887 C885 1.384 . S
H888 C894 0.930 . S
H889 C898 0.930 . S
H890 C903 0.929 . S
H891 C901 0.929 . S
H892 C896 0.929 . S
H893 C902 0.929 . S
C894 H888 0.930 . S
C894 C895 1.367 . S
C894 C902 1.378 . S
C895 C894 1.367 . S
C895 C903 1.433 . S
C896 H892 0.929 . S
C896 C898 1.378 . S
C896 C900 1.350 . S
C897 C900 1.463 . S
C897 C902 1.350 . S
C897 N905 1.427 . S
C898 H889 0.930 . S
C898 C896 1.378 . S
C898 C899 1.367 . S
C899 C898 1.367 . S
C899 C901 1.433 . S
C900 C896 1.350 . S
C900 C897 1.463 . S
C900 N904 1.427 . S
C901 H891 0.929 . S
C901 C899 1.433 . S
C901 N904 1.384 . S
C902 H893 0.929 . S
C902 C894 1.378 . S
C902 C897 1.350 . S
C903 H890 0.929 . S
C903 C895 1.433 . S
C903 N905 1.384 . S
N904 C900 1.427 . S
N904 C901 1.384 . S
N905 C897 1.427 . S
N905 C903 1.384 . S
H906 C912 0.930 . S
H907 C916 0.930 . S
H908 C921 0.929 . S
H909 C919 0.929 . S
H910 C914 0.929 . S
H911 C920 0.929 . S
C912 H906 0.930 . S
C912 C913 1.367 . S
C912 C920 1.378 . S
C913 C912 1.367 . S
C913 C921 1.433 . S
C914 H910 0.929 . S
C914 C916 1.378 . S
C914 C918 1.350 . S
C915 C918 1.463 . S
C915 C920 1.350 . S
C915 N923 1.427 . S
C916 H907 0.930 . S
C916 C914 1.378 . S
C916 C917 1.367 . S
C917 C916 1.367 . S
C917 C919 1.433 . S
C918 C914 1.350 . S
C918 C915 1.463 . S
C918 N922 1.427 . S
C919 H909 0.929 . S
C919 C917 1.433 . S
C919 N922 1.384 . S
C920 H911 0.929 . S
C920 C912 1.378 . S
C920 C915 1.350 . S
C921 H908 0.929 . S
C921 C913 1.433 . S
C921 N923 1.384 . S
N922 C918 1.427 . S
N922 C919 1.384 . S
N923 C915 1.427 . S
N923 C921 1.384 . S
H924 C930 0.930 . S
H925 C934 0.930 . S
H926 C939 0.929 . S
H927 C937 0.929 . S
H928 C932 0.929 . S
H929 C938 0.929 . S
C930 H924 0.930 . S
C930 C931 1.367 . S
C930 C938 1.378 . S
C931 C930 1.367 . S
C931 C939 1.433 . S
C932 H928 0.929 . S
C932 C934 1.378 . S
C932 C936 1.350 . S
C933 C936 1.463 . S
C933 C938 1.350 . S
C933 N941 1.427 . S
C934 H925 0.930 . S
C934 C932 1.378 . S
C934 C935 1.367 . S
C935 C934 1.367 . S
C935 C937 1.433 . S
C936 C932 1.350 . S
C936 C933 1.463 . S
C936 N940 1.427 . S
C937 H927 0.929 . S
C937 C935 1.433 . S
C937 N940 1.384 . S
C938 H929 0.929 . S
C938 C930 1.378 . S
C938 C933 1.350 . S
C939 H926 0.929 . S
C939 C931 1.433 . S
C939 N941 1.384 . S
N940 C936 1.427 . S
N940 C937 1.384 . S
N941 C933 1.427 . S
N941 C939 1.384 . S
H942 C948 0.930 . S
H943 C952 0.930 . S
H944 C957 0.929 . S
H945 C955 0.929 . S
H946 C950 0.929 . S
H947 C956 0.929 . S
C948 H942 0.930 . S
C948 C949 1.367 . S
C948 C956 1.378 . S
C949 C948 1.367 . S
C949 C957 1.433 . S
C950 H946 0.929 . S
C950 C952 1.378 . S
C950 C954 1.350 . S
C951 C954 1.463 . S
C951 C956 1.350 . S
C951 N959 1.427 . S
C952 H943 0.930 . S
C952 C950 1.378 . S
C952 C953 1.367 . S
C953 C952 1.367 . S
C953 C955 1.433 . S
C954 C950 1.350 . S
C954 C951 1.463 . S
C954 N958 1.427 . S
C955 H945 0.929 . S
C955 C953 1.433 . S
C955 N958 1.384 . S
C956 H947 0.929 . S
C956 C948 1.378 . S
C956 C951 1.350 . S
C957 H944 0.929 . S
C957 C949 1.433 . S
C957 N959 1.384 . S
N958 C954 1.427 . S
N958 C955 1.384 . S
N959 C951 1.427 . S
N959 C957 1.384 . S
H960 C966 0.930 . S
H961 C970 0.930 . S
H962 C975 0.929 . S
H963 C973 0.929 . S
H964 C968 0.929 . S
H965 C974 0.929 . S
C966 H960 0.930 . S
C966 C967 1.367 1_565 S
C966 C974 1.378 . S
C967 C966 1.367 1_545 S
C967 C975 1.433 . S
C968 H964 0.929 . S
C968 C970 1.378 . S
C968 C972 1.350 . S
C969 C972 1.463 1_655 S
C969 C974 1.350 1_545 S
C969 N977 1.427 . S
C970 H961 0.930 . S
C970 C968 1.378 . S
C970 C971 1.367 . S
C971 C970 1.367 . S
C971 C973 1.433 1_545 S
C972 C968 1.350 . S
C972 C969 1.463 1_455 S
C972 N976 1.427 1_545 S
C973 H963 0.929 . S
C973 C971 1.433 1_565 S
C973 N976 1.384 . S
C974 H965 0.929 . S
C974 C966 1.378 . S
C974 C969 1.350 1_565 S
C975 H962 0.929 . S
C975 C967 1.433 . S
C975 N977 1.384 . S
N976 C972 1.427 1_565 S
N976 C973 1.384 . S
N977 C969 1.427 . S
N977 C975 1.384 . S
H978 C984 0.930 . S
H979 C988 0.930 1_565 S
H980 C993 0.929 . S
H981 C991 0.929 . S
H982 C986 0.929 1_565 S
H983 C992 0.929 . S
C984 H978 0.930 . S
C984 C985 1.367 . S
C984 C992 1.378 . S
C985 C984 1.367 . S
C985 C993 1.433 1_545 S
C986 H982 0.929 1_545 S
C986 C988 1.378 . S
C986 C990 1.350 . S
C987 C990 1.463 1_455 S
C987 C992 1.350 . S
C987 N995 1.427 1_545 S
C988 H979 0.930 1_545 S
C988 C986 1.378 . S
C988 C989 1.367 . S
C989 C988 1.367 . S
C989 C991 1.433 . S
C990 C986 1.350 . S
C990 C987 1.463 1_655 S
C990 N994 1.427 . S
C991 H981 0.929 . S
C991 C989 1.433 . S
C991 N994 1.384 . S
C992 H983 0.929 . S
C992 C984 1.378 . S
C992 C987 1.350 . S
C993 H980 0.929 . S
C993 C985 1.433 1_565 S
C993 N995 1.384 . S
N994 C990 1.427 . S
N994 C991 1.384 . S
N995 C987 1.427 1_565 S
N995 C993 1.384 . S
H996 C1002 0.930 . S
H997 C1006 0.930 . S
H998 C1011 0.929 . S
H999 C1009 0.929 . S
H1000 C1004 0.929 . S
H1001 C1010 0.929 . S
C1002 H996 0.930 . S
C1002 C1003 1.367 . S
C1002 C1010 1.378 . S
C1003 C1002 1.367 . S
C1003 C1011 1.433 . S
C1004 H1000 0.929 . S
C1004 C1006 1.378 . S
C1004 C1008 1.350 . S
C1005 C1008 1.463 1_655 S
C1005 C1010 1.350 . S
C1005 N1013 1.427 . S
C1006 H997 0.930 . S
C1006 C1004 1.378 . S
C1006 C1007 1.367 . S
C1007 C1006 1.367 . S
C1007 C1009 1.433 . S
C1008 C1004 1.350 . S
C1008 C1005 1.463 1_455 S
C1008 N1012 1.427 . S
C1009 H999 0.929 . S
C1009 C1007 1.433 . S
C1009 N1012 1.384 . S
C1010 H1001 0.929 . S
C1010 C1002 1.378 . S
C1010 C1005 1.350 . S
C1011 H998 0.929 . S
C1011 C1003 1.433 . S
C1011 N1013 1.384 . S
N1012 C1008 1.427 . S
N1012 C1009 1.384 . S
N1013 C1005 1.427 . S
N1013 C1011 1.384 . S
H1014 C1020 0.930 . S
H1015 C1024 0.930 . S
H1016 C1029 0.929 . S
H1017 C1027 0.929 . S
H1018 C1022 0.929 . S
H1019 C1028 0.929 . S
C1020 H1014 0.930 . S
C1020 C1021 1.367 . S
C1020 C1028 1.378 . S
C1021 C1020 1.367 . S
C1021 C1029 1.433 . S
C1022 H1018 0.929 . S
C1022 C1024 1.378 . S
C1022 C1026 1.350 . S
C1023 C1026 1.463 1_655 S
C1023 C1028 1.350 . S
C1023 N1031 1.427 . S
C1024 H1015 0.930 . S
C1024 C1022 1.378 . S
C1024 C1025 1.367 . S
C1025 C1024 1.367 . S
C1025 C1027 1.433 . S
C1026 C1022 1.350 . S
C1026 C1023 1.463 1_455 S
C1026 N1030 1.427 . S
C1027 H1017 0.929 . S
C1027 C1025 1.433 . S
C1027 N1030 1.384 . S
C1028 H1019 0.929 . S
C1028 C1020 1.378 . S
C1028 C1023 1.350 . S
C1029 H1016 0.929 . S
C1029 C1021 1.433 . S
C1029 N1031 1.384 . S
N1030 C1026 1.427 . S
N1030 C1027 1.384 . S
N1031 C1023 1.427 . S
N1031 C1029 1.384 . S
H1032 C1038 0.930 . S
H1033 C1042 0.930 . S
H1034 C1047 0.929 . S
H1035 C1045 0.929 . S
H1036 C1040 0.933 . S
H1037 C1046 0.929 . S
C1038 H1032 0.930 . S
C1038 C1039 1.367 . S
C1038 C1046 1.378 . S
C1039 C1038 1.367 . S
C1039 C1047 1.433 1_545 S
C1040 H1036 0.933 . S
C1040 C1042 1.378 . S
C1040 C1044 1.350 . S
C1041 C1044 1.463 . S
C1041 C1046 1.350 . S
C1041 N1049 1.427 . S
C1042 H1033 0.930 . S
C1042 C1040 1.378 . S
C1042 C1043 1.367 . S
C1043 C1042 1.367 . S
C1043 C1045 1.433 . S
C1044 C1040 1.350 . S
C1044 C1041 1.463 . S
C1044 N1048 1.427 . S
C1045 H1035 0.929 . S
C1045 C1043 1.433 . S
C1045 N1048 1.384 . S
C1046 H1037 0.929 . S
C1046 C1038 1.378 . S
C1046 C1041 1.350 . S
C1047 H1034 0.929 . S
C1047 C1039 1.433 1_565 S
C1047 N1049 1.384 1_565 S
N1048 C1044 1.427 . S
N1048 C1045 1.384 . S
N1049 C1041 1.427 . S
N1049 C1047 1.384 1_545 S
H1050 C1056 0.944 . S
H1051 C1060 0.930 . S
H1052 C1065 0.929 . S
H1053 C1063 0.929 . S
H1054 C1058 0.929 . S
H1055 C1064 0.929 . S
C1056 H1050 0.944 . S
C1056 C1057 1.351 1_565 S
C1056 C1064 1.380 . S
C1057 C1056 1.351 1_545 S
C1057 C1065 1.433 . S
C1058 H1054 0.929 . S
C1058 C1060 1.378 . S
C1058 C1062 1.350 . S
C1059 C1062 1.463 . S
C1059 C1064 1.350 1_545 S
C1059 N1067 1.427 . S
C1060 H1051 0.930 . S
C1060 C1058 1.378 . S
C1060 C1061 1.367 . S
C1061 C1060 1.367 . S
C1061 C1063 1.433 1_545 S
C1062 C1058 1.350 . S
C1062 C1059 1.463 . S
C1062 N1066 1.427 1_545 S
C1063 H1053 0.929 . S
C1063 C1061 1.433 1_565 S
C1063 N1066 1.384 . S
C1064 H1055 0.929 . S
C1064 C1056 1.380 . S
C1064 C1059 1.350 1_565 S
C1065 H1052 0.929 . S
C1065 C1057 1.433 . S
C1065 N1067 1.384 . S
N1066 C1062 1.427 1_565 S
N1066 C1063 1.384 . S
N1067 C1059 1.427 . S
N1067 C1065 1.384 . S
H1068 C1074 0.930 . S
H1069 C1078 0.930 . S
H1070 C1083 0.929 . S
H1071 C1081 0.929 . S
H1072 C1076 0.929 . S
H1073 C1082 0.929 . S
C1074 H1068 0.930 . S
C1074 C1075 1.367 . S
C1074 C1082 1.378 . S
C1075 C1074 1.367 . S
C1075 C1083 1.433 . S
C1076 H1072 0.929 . S
C1076 C1078 1.378 . S
C1076 C1080 1.350 . S
C1077 C1080 1.463 . S
C1077 C1082 1.350 . S
C1077 N1085 1.427 . S
C1078 H1069 0.930 . S
C1078 C1076 1.378 . S
C1078 C1079 1.367 . S
C1079 C1078 1.367 . S
C1079 C1081 1.433 . S
C1080 C1076 1.350 . S
C1080 C1077 1.463 . S
C1080 N1084 1.427 . S
C1081 H1071 0.929 . S
C1081 C1079 1.433 . S
C1081 N1084 1.384 . S
C1082 H1073 0.929 . S
C1082 C1074 1.378 . S
C1082 C1077 1.350 . S
C1083 H1070 0.929 . S
C1083 C1075 1.433 . S
C1083 N1085 1.384 . S
N1084 C1080 1.427 . S
N1084 C1081 1.384 . S
N1085 C1077 1.427 . S
N1085 C1083 1.384 . S
H1086 C1092 0.930 . S
H1087 C1096 0.930 . S
H1088 C1101 0.929 . S
H1089 C1099 0.929 . S
H1090 C1094 0.929 . S
H1091 C1100 0.929 . S
C1092 H1086 0.930 . S
C1092 C1093 1.367 . S
C1092 C1100 1.378 . S
C1093 C1092 1.367 . S
C1093 C1101 1.433 . S
C1094 H1090 0.929 . S
C1094 C1096 1.378 . S
C1094 C1098 1.350 . S
C1095 C1098 1.463 . S
C1095 C1100 1.350 . S
C1095 N1103 1.427 . S
C1096 H1087 0.930 . S
C1096 C1094 1.378 . S
C1096 C1097 1.367 . S
C1097 C1096 1.367 . S
C1097 C1099 1.433 . S
C1098 C1094 1.350 . S
C1098 C1095 1.463 . S
C1098 N1102 1.427 . S
C1099 H1089 0.929 . S
C1099 C1097 1.433 . S
C1099 N1102 1.384 . S
C1100 H1091 0.929 . S
C1100 C1092 1.378 . S
C1100 C1095 1.350 . S
C1101 H1088 0.929 . S
C1101 C1093 1.433 . S
C1101 N1103 1.384 . S
N1102 C1098 1.427 . S
N1102 C1099 1.384 . S
N1103 C1095 1.427 . S
N1103 C1101 1.384 . S
H1104 C1110 0.930 1_565 S
H1105 C1114 0.930 . S
H1106 C1119 0.929 . S
H1107 C1117 0.929 . S
H1108 C1112 0.929 . S
H1109 C1118 0.929 . S
C1110 H1104 0.930 1_545 S
C1110 C1111 1.367 . S
C1110 C1118 1.378 1_545 S
C1111 C1110 1.367 . S
C1111 C1119 1.433 . S
C1112 H1108 0.929 . S
C1112 C1114 1.378 . S
C1112 C1116 1.350 . S
C1113 C1116 1.463 1_556 S
C1113 C1118 1.350 1_545 S
C1113 N1121 1.427 . S
C1114 H1105 0.930 . S
C1114 C1112 1.378 . S
C1114 C1115 1.367 . S
C1115 C1114 1.367 . S
C1115 C1117 1.433 1_545 S
C1116 C1112 1.350 . S
C1116 C1113 1.463 1_554 S
C1116 N1120 1.427 1_545 S
C1117 H1107 0.929 . S
C1117 C1115 1.433 1_565 S
C1117 N1120 1.384 . S
C1118 H1109 0.929 . S
C1118 C1110 1.378 1_565 S
C1118 C1113 1.350 1_565 S
C1119 H1106 0.929 . S
C1119 C1111 1.433 . S
C1119 N1121 1.384 . S
N1120 C1116 1.427 1_565 S
N1120 C1117 1.384 . S
N1121 C1113 1.427 . S
N1121 C1119 1.384 . S
H1122 C1128 0.930 . S
H1123 C1132 0.930 . S
H1124 C1137 0.929 . S
H1125 C1135 0.929 . S
H1126 C1130 0.929 . S
H1127 C1136 0.929 . S
C1128 H1122 0.930 . S
C1128 C1129 1.367 . S
C1128 C1136 1.378 . S
C1129 C1128 1.367 . S
C1129 C1137 1.433 1_545 S
C1130 H1126 0.929 . S
C1130 C1132 1.378 . S
C1130 C1134 1.350 1_565 S
C1131 C1134 1.463 1_556 S
C1131 C1136 1.350 . S
C1131 N1139 1.427 1_545 S
C1132 H1123 0.930 . S
C1132 C1130 1.378 . S
C1132 C1133 1.367 1_565 S
C1133 C1132 1.367 1_545 S
C1133 C1135 1.433 . S
C1134 C1130 1.350 1_545 S
C1134 C1131 1.463 1_554 S
C1134 N1138 1.427 . S
C1135 H1125 0.929 . S
C1135 C1133 1.433 . S
C1135 N1138 1.384 . S
C1136 H1127 0.929 . S
C1136 C1128 1.378 . S
C1136 C1131 1.350 . S
C1137 H1124 0.929 . S
C1137 C1129 1.433 1_565 S
C1137 N1139 1.384 . S
N1138 C1134 1.427 . S
N1138 C1135 1.384 . S
N1139 C1131 1.427 1_565 S
N1139 C1137 1.384 . S
H1140 C1146 0.930 . S
H1141 C1150 0.930 . S
H1142 C1155 0.929 . S
H1143 C1153 0.929 . S
H1144 C1148 0.929 . S
H1145 C1154 0.929 . S
C1146 H1140 0.930 . S
C1146 C1147 1.367 . S
C1146 C1154 1.378 . S
C1147 C1146 1.367 . S
C1147 C1155 1.433 . S
C1148 H1144 0.929 . S
C1148 C1150 1.378 . S
C1148 C1152 1.350 . S
C1149 C1152 1.463 . S
C1149 C1154 1.350 . S
C1149 N1157 1.427 . S
C1150 H1141 0.930 . S
C1150 C1148 1.378 . S
C1150 C1151 1.367 . S
C1151 C1150 1.367 . S
C1151 C1153 1.433 . S
C1152 C1148 1.350 . S
C1152 C1149 1.463 . S
C1152 N1156 1.427 . S
C1153 H1143 0.929 . S
C1153 C1151 1.433 . S
C1153 N1156 1.384 . S
C1154 H1145 0.929 . S
C1154 C1146 1.378 . S
C1154 C1149 1.350 . S
C1155 H1142 0.929 . S
C1155 C1147 1.433 . S
C1155 N1157 1.384 . S
N1156 C1152 1.427 . S
N1156 C1153 1.384 . S
N1157 C1149 1.427 . S
N1157 C1155 1.384 . S
H1158 C1164 0.930 . S
H1159 C1168 0.930 . S
H1160 C1173 0.929 . S
H1161 C1171 0.929 . S
H1162 C1166 0.929 . S
H1163 C1172 0.929 . S
C1164 H1158 0.930 . S
C1164 C1165 1.367 . S
C1164 C1172 1.378 . S
C1165 C1164 1.367 . S
C1165 C1173 1.433 . S
C1166 H1162 0.929 . S
C1166 C1168 1.378 . S
C1166 C1170 1.350 . S
C1167 C1170 1.463 . S
C1167 C1172 1.350 . S
C1167 N1175 1.427 . S
C1168 H1159 0.930 . S
C1168 C1166 1.378 . S
C1168 C1169 1.367 . S
C1169 C1168 1.367 . S
C1169 C1171 1.433 . S
C1170 C1166 1.350 . S
C1170 C1167 1.463 . S
C1170 N1174 1.427 . S
C1171 H1161 0.929 . S
C1171 C1169 1.433 . S
C1171 N1174 1.384 . S
C1172 H1163 0.929 . S
C1172 C1164 1.378 . S
C1172 C1167 1.350 . S
C1173 H1160 0.929 . S
C1173 C1165 1.433 . S
C1173 N1175 1.384 . S
N1174 C1170 1.427 . S
N1174 C1171 1.384 . S
N1175 C1167 1.427 . S
N1175 C1173 1.384 . S
H1176 C1182 0.930 . S
H1177 C1186 0.930 1_565 S
H1178 C1191 0.929 . S
H1179 C1189 0.929 . S
H1180 C1184 0.929 . S
H1181 C1190 0.929 . S
C1182 H1176 0.930 . S
C1182 C1183 1.367 . S
C1182 C1190 1.378 . S
C1183 C1182 1.367 . S
C1183 C1191 1.433 1_545 S
C1184 H1180 0.929 . S
C1184 C1186 1.378 1_565 S
C1184 C1188 1.350 1_565 S
C1185 C1188 1.463 . S
C1185 C1190 1.350 . S
C1185 N1193 1.427 1_545 S
C1186 H1177 0.930 1_545 S
C1186 C1184 1.378 1_545 S
C1186 C1187 1.368 . S
C1187 C1186 1.368 . S
C1187 C1189 1.433 . S
C1188 C1184 1.350 1_545 S
C1188 C1185 1.463 . S
C1188 N1192 1.427 . S
C1189 H1179 0.929 . S
C1189 C1187 1.433 . S
C1189 N1192 1.384 . S
C1190 H1181 0.929 . S
C1190 C1182 1.378 . S
C1190 C1185 1.350 . S
C1191 H1178 0.929 . S
C1191 C1183 1.433 1_565 S
C1191 N1193 1.384 . S
N1192 C1188 1.427 . S
N1192 C1189 1.384 . S
N1193 C1185 1.427 1_565 S
N1193 C1191 1.384 . S
H1194 C1200 0.930 . S
H1195 C1204 0.930 . S
H1196 C1209 0.929 . S
H1197 C1207 0.929 . S
H1198 C1202 0.929 . S
H1199 C1208 0.929 . S
C1200 H1194 0.930 . S
C1200 C1201 1.367 . S
C1200 C1208 1.378 . S
C1201 C1200 1.367 . S
C1201 C1209 1.433 1_545 S
C1202 H1198 0.929 . S
C1202 C1204 1.378 . S
C1202 C1206 1.350 1_565 S
C1203 C1206 1.463 . S
C1203 C1208 1.350 . S
C1203 N1211 1.427 1_545 S
C1204 H1195 0.930 . S
C1204 C1202 1.378 . S
C1204 C1205 1.367 1_565 S
C1205 C1204 1.367 1_545 S
C1205 C1207 1.433 . S
C1206 C1202 1.350 1_545 S
C1206 C1203 1.463 . S
C1206 N1210 1.427 . S
C1207 H1197 0.929 . S
C1207 C1205 1.433 . S
C1207 N1210 1.384 . S
C1208 H1199 0.929 . S
C1208 C1200 1.378 . S
C1208 C1203 1.350 . S
C1209 H1196 0.929 . S
C1209 C1201 1.433 1_565 S
C1209 N1211 1.384 . S
N1210 C1206 1.427 . S
N1210 C1207 1.384 . S
N1211 C1203 1.427 1_565 S
N1211 C1209 1.384 . S
H1212 C1218 0.930 . S
H1213 C1222 0.930 . S
H1214 C1227 0.929 . S
H1215 C1225 0.929 . S
H1216 C1220 0.929 . S
H1217 C1226 0.929 . S
C1218 H1212 0.930 . S
C1218 C1219 1.367 . S
C1218 C1226 1.378 . S
C1219 C1218 1.367 . S
C1219 C1227 1.433 . S
C1220 H1216 0.929 . S
C1220 C1222 1.378 . S
C1220 C1224 1.350 . S
C1221 C1224 1.463 1_554 S
C1221 C1226 1.350 . S
C1221 N1229 1.427 . S
C1222 H1213 0.930 . S
C1222 C1220 1.378 . S
C1222 C1223 1.367 . S
C1223 C1222 1.367 . S
C1223 C1225 1.433 . S
C1224 C1220 1.350 . S
C1224 C1221 1.463 1_556 S
C1224 N1228 1.427 . S
C1225 H1215 0.929 . S
C1225 C1223 1.433 . S
C1225 N1228 1.384 . S
C1226 H1217 0.929 . S
C1226 C1218 1.378 . S
C1226 C1221 1.350 . S
C1227 H1214 0.929 . S
C1227 C1219 1.433 . S
C1227 N1229 1.384 . S
N1228 C1224 1.427 . S
N1228 C1225 1.384 . S
N1229 C1221 1.427 . S
N1229 C1227 1.384 . S
H1230 C1236 0.930 . S
H1231 C1240 0.930 . S
H1232 C1245 0.929 . S
H1233 C1243 0.929 . S
H1234 C1238 0.929 . S
H1235 C1244 0.929 . S
C1236 H1230 0.930 . S
C1236 C1237 1.367 . S
C1236 C1244 1.378 . S
C1237 C1236 1.367 . S
C1237 C1245 1.433 . S
C1238 H1234 0.929 . S
C1238 C1240 1.378 . S
C1238 C1242 1.350 . S
C1239 C1242 1.463 1_556 S
C1239 C1244 1.350 . S
C1239 N1247 1.427 . S
C1240 H1231 0.930 . S
C1240 C1238 1.378 . S
C1240 C1241 1.367 . S
C1241 C1240 1.367 . S
C1241 C1243 1.433 . S
C1242 C1238 1.350 . S
C1242 C1239 1.463 1_554 S
C1242 N1246 1.427 . S
C1243 H1233 0.929 . S
C1243 C1241 1.433 . S
C1243 N1246 1.384 . S
C1244 H1235 0.929 . S
C1244 C1236 1.378 . S
C1244 C1239 1.350 . S
C1245 H1232 0.929 . S
C1245 C1237 1.433 . S
C1245 N1247 1.384 . S
N1246 C1242 1.427 . S
N1246 C1243 1.384 . S
N1247 C1239 1.427 . S
N1247 C1245 1.384 . S
C535 N14 1.648 . S
C539 N377 1.658 . S
C553 N47 1.660 1_565 S
C557 N344 1.650 1_565 S
C571 N311 1.660 1_565 S
C575 N80 1.648 1_565 S
C589 N278 1.650 . S
C593 N113 1.654 . S
C607 N146 1.649 . S
C611 N509 1.656 . S
C625 N179 1.657 . S
C629 N476 1.654 . S
C643 N443 1.648 . S
C647 N212 1.658 . S
C661 N410 1.659 . S
C665 N245 1.650 . S
C679 C8 0.998 . S
C683 C437 0.999 . S
C697 C404 1.004 . S
C701 C41 1.003 . S
C715 C74 1.004 . S
C719 C503 1.003 . S
C733 C470 1.005 . S
C737 C107 1.005 . S
C751 C127 1.571 . S
C755 C490 1.570 . S
C769 C523 1.572 . S
C773 C94 1.569 . S
C787 C424 1.569 . S
C791 C61 1.573 . S
C805 C28 1.574 . S
C809 C457 1.569 . S
C823 C140 1.003 . S
C827 C305 1.002 . S
C841 C173 1.005 . S
C845 C272 1.005 . S
C859 C206 1.003 . S
C863 C371 1.004 . S
C877 C239 1.003 . S
C881 C338 1.004 . S
C895 C259 1.570 . S
C899 C358 1.571 . S
C913 C226 1.574 . S
C917 C391 1.569 . S
C931 C193 1.569 . S
C935 C292 1.572 . S
C949 C160 1.574 . S
C953 C325 1.572 . S
C967 C50 1.494 . S
C971 C17 1.492 . S
C985 C83 1.492 . S
C989 C116 1.488 . S
C1003 C182 1.495 . S
C1007 C149 1.491 . S
C1021 C248 1.488 . S
C1025 C215 1.493 . S
C1039 C314 1.488 . S
C1043 C281 1.493 . S
C1057 C380 1.489 . S
C1061 C347 1.491 . S
C1075 C413 1.494 . S
C1079 C446 1.489 . S
C1093 C512 1.488 . S
C1097 C479 1.494 . S
C1111 N71 1.518 . S
C1115 N5 1.523 . S
C1129 N104 1.518 . S
C1133 N38 1.522 . S
C1147 N137 1.533 . S
C1151 N203 1.527 . S
C1165 N236 1.523 . S
C1169 N170 1.518 . S
C1183 N269 1.518 . S
C1187 N335 1.523 . S
C1201 N368 1.518 . S
C1205 N302 1.522 . S
C1219 N401 1.518 . S
C1223 N467 1.521 . S
C1237 N500 1.533 . S
C1241 N434 1.530 . S
