# Generated by pormake.
# Topology uot, (4)-cn, num edge types: 1
# Building blocks:
#     Node 0, Type 0, BuildingBlock: ESEHIV_clean_sbu_0, # of connection points: 4
#     Node 1, Type 0, BuildingBlock: ESEHIV_clean_sbu_0, # of connection points: 4
#     Node 2, Type 0, BuildingBlock: ESEHIV_clean_sbu_0, # of connection points: 4
#     Node 3, Type 0, BuildingBlock: ESEHIV_clean_sbu_0, # of connection points: 4
#     Node 4, Type 0, BuildingBlock: ESEHIV_clean_sbu_0, # of connection points: 4
#     Node 5, Type 0, BuildingBlock: ESEHIV_clean_sbu_0, # of connection points: 4
#     Node 6, Type 0, BuildingBlock: ESEHIV_clean_sbu_0, # of connection points: 4
#     Node 7, Type 0, BuildingBlock: ESEHIV_clean_sbu_0, # of connection points: 4
#     Node 8, Type 0, BuildingBlock: ESEHIV_clean_sbu_0, # of connection points: 4
#     Node 9, Type 0, BuildingBlock: ESEHIV_clean_sbu_0, # of connection points: 4
#     Node 10, Type 0, BuildingBlock: ESEHIV_clean_sbu_0, # of connection points: 4
#     Node 11, Type 0, BuildingBlock: ESEHIV_clean_sbu_0, # of connection points: 4
#     Node 12, Type 0, BuildingBlock: ESEHIV_clean_sbu_0, # of connection points: 4
#     Node 13, Type 0, BuildingBlock: ESEHIV_clean_sbu_0, # of connection points: 4
#     Node 14, Type 0, BuildingBlock: ESEHIV_clean_sbu_0, # of connection points: 4
#     Node 15, Type 0, BuildingBlock: ESEHIV_clean_sbu_0, # of connection points: 4
#     Edge 16, Type (0, 0), BuildingBlock: XIVTED_clean_linker_0, # of connection points: 2
#     Edge 17, Type (0, 0), BuildingBlock: XIVTED_clean_linker_0, # of connection points: 2
#     Edge 18, Type (0, 0), BuildingBlock: XIVTED_clean_linker_0, # of connection points: 2
#     Edge 19, Type (0, 0), BuildingBlock: XIVTED_clean_linker_0, # of connection points: 2
#     Edge 20, Type (0, 0), BuildingBlock: XIVTED_clean_linker_0, # of connection points: 2
#     Edge 21, Type (0, 0), BuildingBlock: XIVTED_clean_linker_0, # of connection points: 2
#     Edge 22, Type (0, 0), BuildingBlock: XIVTED_clean_linker_0, # of connection points: 2
#     Edge 23, Type (0, 0), BuildingBlock: XIVTED_clean_linker_0, # of connection points: 2
#     Edge 24, Type (0, 0), BuildingBlock: XIVTED_clean_linker_0, # of connection points: 2
#     Edge 25, Type (0, 0), BuildingBlock: XIVTED_clean_linker_0, # of connection points: 2
#     Edge 26, Type (0, 0), BuildingBlock: XIVTED_clean_linker_0, # of connection points: 2
#     Edge 27, Type (0, 0), BuildingBlock: XIVTED_clean_linker_0, # of connection points: 2
#     Edge 28, Type (0, 0), BuildingBlock: XIVTED_clean_linker_0, # of connection points: 2
#     Edge 29, Type (0, 0), BuildingBlock: XIVTED_clean_linker_0, # of connection points: 2
#     Edge 30, Type (0, 0), BuildingBlock: XIVTED_clean_linker_0, # of connection points: 2
#     Edge 31, Type (0, 0), BuildingBlock: XIVTED_clean_linker_0, # of connection points: 2
#     Edge 32, Type (0, 0), BuildingBlock: XIVTED_clean_linker_0, # of connection points: 2
#     Edge 33, Type (0, 0), BuildingBlock: XIVTED_clean_linker_0, # of connection points: 2
#     Edge 34, Type (0, 0), BuildingBlock: XIVTED_clean_linker_0, # of connection points: 2
#     Edge 35, Type (0, 0), BuildingBlock: XIVTED_clean_linker_0, # of connection points: 2
#     Edge 36, Type (0, 0), BuildingBlock: XIVTED_clean_linker_0, # of connection points: 2
#     Edge 37, Type (0, 0), BuildingBlock: XIVTED_clean_linker_0, # of connection points: 2
#     Edge 38, Type (0, 0), BuildingBlock: XIVTED_clean_linker_0, # of connection points: 2
#     Edge 39, Type (0, 0), BuildingBlock: XIVTED_clean_linker_0, # of connection points: 2
#     Edge 40, Type (0, 0), BuildingBlock: XIVTED_clean_linker_0, # of connection points: 2
#     Edge 41, Type (0, 0), BuildingBlock: XIVTED_clean_linker_0, # of connection points: 2
#     Edge 42, Type (0, 0), BuildingBlock: XIVTED_clean_linker_0, # of connection points: 2
#     Edge 43, Type (0, 0), BuildingBlock: XIVTED_clean_linker_0, # of connection points: 2
#     Edge 44, Type (0, 0), BuildingBlock: XIVTED_clean_linker_0, # of connection points: 2
#     Edge 45, Type (0, 0), BuildingBlock: XIVTED_clean_linker_0, # of connection points: 2
#     Edge 46, Type (0, 0), BuildingBlock: XIVTED_clean_linker_0, # of connection points: 2
#     Edge 47, Type (0, 0), BuildingBlock: XIVTED_clean_linker_0, # of connection points: 2
# Relax obj value: 0.100
# Max RMSD: 0.253
# Mean RMSD: 0.253
data_MOF--net-uot--node1-ESEHIV_clean_sbu_0--edge1-XIVTED_clean_linker_0
_symmetry_space_group_name_H-M    P1
_symmetry_Int_Tables_number       1
_symmetry_cell_setting            triclinic
loop_
_symmetry_equiv_pos_as_xyz
'x, y, z'
_cell_length_a     48.496844
_cell_length_b     48.679392
_cell_length_c     46.791521
_cell_angle_alpha  89.818506
_cell_angle_beta   89.960753
_cell_angle_gamma 90.027534
loop_
_atom_site_label
_atom_site_type_symbol
_atom_site_fract_x
_atom_site_fract_y
_atom_site_fract_z
_atom_type_partial_charge
Cu0 Cu 0.19715 0.44885 0.36356 0.0
N1 N 0.19428 0.48471 0.34943 0.0
N2 N 0.18204 0.52197 0.32434 0.0
C3 C 0.17816 0.49468 0.32836 0.0
C4 C 0.20148 0.52919 0.34359 0.0
C5 C 0.20891 0.50625 0.35897 0.0
O6 O 0.17113 0.425 0.3439 0.0
C7 C 0.17444 0.4672 0.41573 0.0
O8 O 0.15982 0.48299 0.39871 0.0
H9 H 0.16373 0.48219 0.31651 0.0
H10 H 0.22404 0.50523 0.3759 0.0
N11 N 0.23305 0.437 0.35568 0.0
N12 N 0.27317 0.41435 0.35493 0.0
C13 C 0.24711 0.41486 0.36532 0.0
C14 C 0.25069 0.45056 0.33851 0.0
C15 C 0.27536 0.43677 0.33806 0.0
C16 C 0.14526 0.42944 0.34334 0.0
O17 O 0.13515 0.45027 0.35767 0.0
H18 H 0.23862 0.39978 0.37993 0.0
H19 H 0.24592 0.46928 0.32705 0.0
O20 O 0.19123 0.45001 0.40483 0.0
H21 H 0.2101 0.54952 0.34627 0.0
H22 H 0.29346 0.44261 0.32592 0.0
Cu23 Cu 0.45383 0.8227 0.67312 0.0
N24 N 0.48616 0.81383 0.69242 0.0
N25 N 0.52268 0.81784 0.72123 0.0
C26 C 0.49941 0.82983 0.71136 0.0
C27 C 0.52393 0.79326 0.70793 0.0
C28 C 0.50137 0.79088 0.69016 0.0
O29 O 0.44425 0.85977 0.68409 0.0
C30 C 0.47763 0.83498 0.62018 0.0
O31 O 0.48977 0.85417 0.63536 0.0
H32 H 0.49198 0.84983 0.71776 0.0
H33 H 0.49653 0.77379 0.67632 0.0
N34 N 0.42572 0.79967 0.68604 0.0
N35 N 0.3919 0.76858 0.68919 0.0
C36 C 0.41146 0.77999 0.67222 0.0
C37 C 0.41496 0.80065 0.71249 0.0
C38 C 0.39415 0.78156 0.71452 0.0
C39 C 0.42111 0.87083 0.67861 0.0
O40 O 0.40345 0.85785 0.66219 0.0
H41 H 0.41502 0.77455 0.65011 0.0
H42 H 0.42179 0.81447 0.72911 0.0
O43 O 0.46022 0.81923 0.63233 0.0
H44 H 0.54026 0.7783 0.71029 0.0
H45 H 0.38185 0.77738 0.73335 0.0
Cu46 Cu 0.81711 0.56084 0.35654 0.0
N47 N 0.8175 0.52603 0.33983 0.0
N48 N 0.83001 0.49018 0.31297 0.0
C49 C 0.83699 0.51545 0.32254 0.0
C50 C 0.80515 0.48482 0.32476 0.0
C51 C 0.7975 0.50693 0.34121 0.0
O52 O 0.848 0.58107 0.34042 0.0
C53 C 0.80258 0.54446 0.41239 0.0
O54 O 0.77925 0.53785 0.39994 0.0
H55 H 0.85582 0.52617 0.31705 0.0
H56 H 0.7783 0.50922 0.35269 0.0
N57 N 0.78365 0.5776 0.34662 0.0
N58 N 0.74506 0.60272 0.34555 0.0
C59 C 0.76886 0.5975 0.35966 0.0
C60 C 0.76882 0.5704 0.32355 0.0
C61 C 0.74505 0.58568 0.3229 0.0
C62 C 0.84895 0.6071 0.33832 0.0
O63 O 0.82858 0.62184 0.34862 0.0
H64 H 0.77509 0.6075 0.37926 0.0
H65 H 0.77487 0.55489 0.30828 0.0
O66 O 0.82132 0.55614 0.39765 0.0
H67 H 0.79288 0.4666 0.32111 0.0
H68 H 0.72901 0.58453 0.30685 0.0
Cu69 Cu 0.5672 0.1866 0.66463 0.0
N70 N 0.53866 0.19717 0.68886 0.0
N71 N 0.5051 0.19312 0.72138 0.0
C72 C 0.52585 0.18038 0.7075 0.0
C73 C 0.50488 0.21905 0.71099 0.0
C74 C 0.5257 0.2215 0.69094 0.0
O75 O 0.57589 0.14931 0.6758 0.0
C76 C 0.56935 0.19461 0.60379 0.0
O77 O 0.59567 0.1998 0.60755 0.0
H78 H 0.53115 0.15893 0.71013 0.0
H79 H 0.53079 0.23957 0.6785 0.0
N80 N 0.59881 0.20751 0.67222 0.0
N81 N 0.63243 0.23899 0.67308 0.0
C82 C 0.60729 0.23231 0.66255 0.0
C83 C 0.61895 0.19872 0.68976 0.0
C84 C 0.63966 0.2179 0.69024 0.0
C85 C 0.5964 0.13558 0.6668 0.0
O86 O 0.6111 0.14517 0.64538 0.0
H87 H 0.59563 0.24487 0.64775 0.0
H88 H 0.61859 0.17953 0.70145 0.0
O89 O 0.55438 0.18849 0.62522 0.0
H90 H 0.49071 0.23508 0.71734 0.0
H91 H 0.65846 0.21659 0.70262 0.0
Cu92 Cu 0.19091 0.56988 0.66016 0.0
N93 N 0.19738 0.54506 0.68987 0.0
N94 N 0.18921 0.51547 0.72552 0.0
C95 C 0.17801 0.53227 0.70566 0.0
C96 C 0.21676 0.51781 0.72201 0.0
C97 C 0.22173 0.53617 0.70006 0.0
O98 O 0.1639 0.59625 0.67366 0.0
C99 C 0.18925 0.52811 0.61881 0.0
O100 O 0.20918 0.51788 0.63457 0.0
H101 H 0.15611 0.5349 0.70228 0.0
H102 H 0.24165 0.54256 0.69203 0.0
N103 N 0.22352 0.58778 0.64977 0.0
N104 N 0.25941 0.61671 0.64815 0.0
C105 C 0.2368 0.60853 0.66295 0.0
C106 C 0.23811 0.58272 0.62592 0.0
C107 C 0.26016 0.60042 0.62485 0.0
C108 C 0.13835 0.59032 0.67372 0.0
O109 O 0.13031 0.56693 0.66251 0.0
H110 H 0.22994 0.61738 0.6829 0.0
H111 H 0.23281 0.56751 0.61007 0.0
O112 O 0.17766 0.55033 0.62663 0.0
H113 H 0.23223 0.50725 0.73456 0.0
H114 H 0.27513 0.60162 0.60774 0.0
Cu115 Cu 0.55698 0.81501 0.36215 0.0
N116 N 0.52284 0.81954 0.34404 0.0
N117 N 0.48948 0.83338 0.31422 0.0
C118 C 0.51667 0.83461 0.32063 0.0
C119 C 0.47829 0.81687 0.33436 0.0
C120 C 0.49883 0.80844 0.35263 0.0
O121 O 0.58307 0.84113 0.34622 0.0
C122 C 0.54069 0.802 0.4183 0.0
O123 O 0.53508 0.77815 0.4066 0.0
H124 H 0.53181 0.84618 0.3086 0.0
H125 H 0.49633 0.79532 0.37112 0.0
N126 N 0.5697 0.77935 0.35523 0.0
N127 N 0.59509 0.74094 0.35439 0.0
C128 C 0.59355 0.76733 0.36335 0.0
C129 C 0.55586 0.76006 0.34057 0.0
C130 C 0.57137 0.73645 0.34001 0.0
C131 C 0.57815 0.8668 0.3454 0.0
O132 O 0.55537 0.87618 0.35703 0.0
H133 H 0.60924 0.77763 0.37579 0.0
H134 H 0.53586 0.76303 0.33084 0.0
O135 O 0.55149 0.82081 0.40295 0.0
H136 H 0.45664 0.8118 0.3363 0.0
H137 H 0.56576 0.71758 0.32932 0.0
Cu138 Cu 0.81986 0.45126 0.66497 0.0
N139 N 0.82169 0.48465 0.68451 0.0
N140 N 0.83318 0.51781 0.71528 0.0
C141 C 0.837 0.49133 0.7075 0.0
C142 C 0.81467 0.52798 0.69647 0.0
C143 C 0.80764 0.50752 0.6776 0.0
O144 O 0.849 0.42671 0.67827 0.0
C145 C 0.83594 0.47809 0.61323 0.0
O146 O 0.85211 0.49261 0.62988 0.0
H147 H 0.85059 0.47706 0.71828 0.0
H148 H 0.79353 0.50922 0.6598 0.0
N149 N 0.78557 0.43529 0.67261 0.0
N150 N 0.74981 0.40621 0.67287 0.0
C151 C 0.77622 0.4104 0.66455 0.0
C152 C 0.76446 0.44718 0.68653 0.0
C153 C 0.74242 0.42935 0.68673 0.0
C154 C 0.87419 0.43402 0.67914 0.0
O155 O 0.88111 0.4584 0.6694 0.0
H156 H 0.78841 0.39591 0.65242 0.0
H157 H 0.76502 0.46747 0.69583 0.0
O158 O 0.82162 0.4587 0.62401 0.0
H159 H 0.80723 0.54892 0.69583 0.0
H160 H 0.72263 0.43302 0.69671 0.0
Cu161 Cu 0.46706 0.20612 0.35459 0.0
N162 N 0.50057 0.20347 0.33475 0.0
N163 N 0.53496 0.1885 0.30682 0.0
C164 C 0.50918 0.18359 0.31678 0.0
C165 C 0.54264 0.21243 0.31897 0.0
C166 C 0.52155 0.22149 0.33613 0.0
O167 O 0.44156 0.17906 0.33964 0.0
C168 C 0.48728 0.22038 0.40833 0.0
O169 O 0.4923 0.24345 0.39465 0.0
H170 H 0.49694 0.16576 0.31146 0.0
H171 H 0.52147 0.24015 0.34856 0.0
N172 N 0.45185 0.24093 0.3479 0.0
N173 N 0.4246 0.27799 0.34902 0.0
C174 C 0.42892 0.2523 0.35922 0.0
C175 C 0.46203 0.25989 0.32976 0.0
C176 C 0.44542 0.28273 0.33051 0.0
C177 C 0.44464 0.15317 0.34166 0.0
O178 O 0.46555 0.14327 0.35627 0.0
H179 H 0.41586 0.24208 0.37472 0.0
H180 H 0.48013 0.25723 0.3166 0.0
O181 O 0.47488 0.20111 0.39519 0.0
H182 H 0.562 0.22298 0.31551 0.0
H183 H 0.44813 0.30122 0.3179 0.0
Cu184 Cu 0.70537 0.94739 0.8536 0.0
N185 N 0.7044 0.98194 0.83659 0.0
N186 N 0.69129 0.01655 0.80846 0.0
C187 C 0.6908 0.98913 0.81263 0.0
C188 C 0.7058 0.02696 0.8305 0.0
C189 C 0.714 1.0055 0.84776 0.0
O190 O 0.6718 0.92855 0.84266 0.0
C191 C 0.68951 0.96627 0.90765 0.0
O192 O 0.66793 0.97489 0.89322 0.0
H193 H 0.67945 0.97478 0.79949 0.0
H194 H 0.72511 1.00703 0.86773 0.0
N195 N 0.73565 0.92815 0.83946 0.0
N196 N 0.77076 0.89869 0.83541 0.0
C197 C 0.75222 0.91032 0.85328 0.0
C198 C 0.74403 0.92793 0.81206 0.0
C199 C 0.76566 0.90979 0.80948 0.0
C200 C 0.6696 0.90253 0.84182 0.0
O201 O 0.69015 0.88723 0.85083 0.0
H202 H 0.75005 0.90528 0.87572 0.0
H203 H 0.73467 0.9398 0.79507 0.0
O204 O 0.70802 0.95257 0.89467 0.0
H205 H 0.70951 0.04858 0.83423 0.0
H206 H 0.77672 0.90513 0.79 0.0
Cu207 Cu 0.95361 0.31532 0.16098 0.0
N208 N 0.98937 0.32065 0.17453 0.0
N209 N 0.02518 0.33346 0.20148 0.0
C210 C 0.9974 0.333 0.19888 0.0
C211 C 0.03483 0.32083 0.17783 0.0
C212 C 0.01272 0.31299 0.1613 0.0
O213 O 0.9292 0.34065 0.18042 0.0
C214 C 0.95841 0.30253 0.10228 0.0
O215 O 0.96054 0.27727 0.11194 0.0
H216 H 0.98311 0.34136 0.21434 0.0
H217 H 0.01356 0.30264 0.1409 0.0
N218 N 0.943 0.27926 0.16961 0.0
N219 N 0.92023 0.23932 0.17218 0.0
C220 C 0.91948 0.26576 0.16313 0.0
C221 C 0.95888 0.26089 0.18341 0.0
C222 C 0.94498 0.23633 0.18501 0.0
C223 C 0.93377 0.36638 0.18041 0.0
O224 O 0.95467 0.3761 0.1656 0.0
H225 H 0.90257 0.2749 0.15139 0.0
H226 H 0.97931 0.26506 0.19156 0.0
O227 O 0.95437 0.32202 0.11987 0.0
H228 H 0.05633 0.31799 0.17243 0.0
H229 H 0.95249 0.21772 0.19504 0.0
Cu230 Cu 0.31835 0.07121 0.85802 0.0
N231 N 0.32451 0.03619 0.84309 0.0
N232 N 0.34055 1.00223 0.81582 0.0
C233 C 0.33507 0.02938 0.81737 0.0
C234 C 0.33305 0.99159 0.84127 0.0
C235 C 0.32312 0.01253 0.85799 0.0
O236 O 0.34632 0.09585 0.84305 0.0
C237 C 0.30185 0.05617 0.91363 0.0
O238 O 0.27945 0.04824 0.90018 0.0
H239 H 0.34018 0.04418 0.80088 0.0
H240 H 0.31659 0.01073 0.87999 0.0
N241 N 0.28396 0.08434 0.84641 0.0
N242 N 0.24689 0.1113 0.84195 0.0
C243 C 0.26961 0.10545 0.85755 0.0
C244 C 0.26984 0.07651 0.82307 0.0
C245 C 0.24697 0.09311 0.82024 0.0
C246 C 0.37185 0.09 0.84436 0.0
O247 O 0.37952 0.06734 0.85744 0.0
H248 H 0.27628 0.11693 0.87608 0.0
H249 H 0.27616 0.06032 0.80872 0.0
O250 O 0.32082 0.06818 0.89948 0.0
H251 H 0.3354 0.9703 0.84759 0.0
H252 H 0.23169 0.09197 0.80344 0.0
Cu253 Cu 0.06505 0.7019 0.17118 0.0
N254 N 0.02882 0.70055 0.18475 0.0
N255 N 0.99113 0.69113 0.2105 0.0
C256 C 0.01819 0.68564 0.20645 0.0
C257 C 0.98461 0.71011 0.19052 0.0
C258 C 1.00785 0.71584 0.17472 0.0
O259 O 0.08754 0.67544 0.19186 0.0
C260 C 0.04698 0.67925 0.11881 0.0
O261 O 0.0295 0.66612 0.13539 0.0
H262 H 0.03015 0.67149 0.21931 0.0
H263 H 1.00948 0.73027 0.15718 0.0
N264 N 0.0784 0.73724 0.17858 0.0
N265 N 0.10305 0.77612 0.17904 0.0
C266 C 0.10117 0.75021 0.16874 0.0
C267 C 0.06579 0.7554 0.19578 0.0
C268 C 0.08082 0.7793 0.19607 0.0
C269 C 0.08377 0.6496 0.1906 0.0
O270 O 0.06444 0.63982 0.17385 0.0
H271 H 0.11577 0.74102 0.15411 0.0
H272 H 0.04692 0.75148 0.20742 0.0
O273 O 0.06469 0.69526 0.13006 0.0
H274 H 0.9644 0.71903 0.18733 0.0
H275 H 0.07595 0.79752 0.20827 0.0
Cu276 Cu 0.70623 0.05105 0.16369 0.0
N277 N 0.70176 0.01698 0.18167 0.0
N278 N 0.68785 0.98355 0.21131 0.0
C279 C 0.68662 0.01067 0.20498 0.0
C280 C 0.70442 0.97254 0.19118 0.0
C281 C 0.7129 0.99313 0.17301 0.0
O282 O 0.68019 0.07695 0.17988 0.0
C283 C 0.71973 0.03515 0.10774 0.0
O284 O 0.74377 0.03035 0.11967 0.0
H285 H 0.67498 0.02567 0.217 0.0
H286 H 0.72606 0.99079 0.15454 0.0
N287 N 0.74199 0.06375 0.17078 0.0
N288 N 0.78016 0.08958 0.17228 0.0
C289 C 0.75352 0.08812 0.16379 0.0
C290 C 0.76187 0.0495 0.18426 0.0
C291 C 0.78536 0.06528 0.18519 0.0
C292 C 0.65428 0.07283 0.18035 0.0
O293 O 0.64418 0.05085 0.16794 0.0
H294 H 0.74271 0.10423 0.1524 0.0
H295 H 0.75942 0.02899 0.19286 0.0
O296 O 0.70051 0.0455 0.12285 0.0
H297 H 0.70951 0.95099 0.18917 0.0
H298 H 0.80468 0.05942 0.19502 0.0
Cu299 Cu 0.0652 0.33073 0.86118 0.0
N300 N 0.04246 0.32221 0.83015 0.0
N301 N 0.01216 0.32892 0.79476 0.0
C302 C 0.02846 0.34083 0.81455 0.0
C303 C 0.01608 0.30163 0.79804 0.0
C304 C 0.03489 0.29755 0.81985 0.0
O305 O 0.08948 0.36041 0.8495 0.0
C306 C 0.02451 0.32239 0.90144 0.0
O307 O 0.02159 0.30031 0.88565 0.0
H308 H 0.02947 0.3627 0.81834 0.0
H309 H 0.04204 0.27802 0.82803 0.0
N310 N 0.08684 0.30115 0.87342 0.0
N311 N 0.11455 0.26447 0.87715 0.0
C312 C 0.10017 0.28104 0.85914 0.0
C313 C 0.09312 0.29725 0.90109 0.0
C314 C 0.11007 0.27485 0.90349 0.0
C315 C 0.0818 0.38536 0.84803 0.0
O316 O 0.05694 0.39202 0.85675 0.0
H317 H 0.09939 0.27875 0.83617 0.0
H318 H 0.08619 0.31026 0.91836 0.0
O319 O 0.04226 0.34029 0.89388 0.0
H320 H 1.00601 0.28577 0.78569 0.0
H321 H 0.11902 0.2674 0.9232 0.0
Cu322 Cu 0.31803 0.96287 0.16639 0.0
N323 N 0.32135 0.99709 0.18417 0.0
N324 N 0.33479 0.03217 0.21174 0.0
C325 C 0.33885 1.00547 0.20479 0.0
C326 C 0.31374 0.04058 0.19493 0.0
C327 C 0.30562 0.01902 0.17803 0.0
O328 O 0.34628 0.93773 0.18025 0.0
C329 C 0.3342 0.98722 0.11383 0.0
O330 O 0.35166 1.0007 0.13002 0.0
H331 H 0.3544 0.99235 0.21417 0.0
H332 H 0.28928 0.01921 0.1623 0.0
N333 N 0.28352 0.94854 0.17638 0.0
N334 N 0.24526 0.92292 0.17867 0.0
C335 C 0.27055 0.9258 0.16676 0.0
C336 C 0.26601 0.9601 0.19511 0.0
C337 C 0.24246 0.94446 0.19651 0.0
C338 C 0.37195 0.94313 0.18112 0.0
O339 O 0.38098 0.96644 0.17044 0.0
H340 H 0.27921 0.91202 0.15103 0.0
H341 H 0.27007 0.9787 0.20694 0.0
O342 O 0.31889 0.96886 0.12513 0.0
H343 H 0.30455 0.06082 0.19486 0.0
H344 H 0.22471 0.94849 0.2099 0.0
Cu345 Cu 0.95756 0.68687 0.86886 0.0
N346 N 0.98231 0.69681 0.84005 0.0
N347 N 0.01212 0.69261 0.80386 0.0
C348 C 0.99492 0.67941 0.82198 0.0
C349 C 0.01024 0.71943 0.81084 0.0
C350 C 0.99171 0.72197 0.83311 0.0
O351 O 0.93304 0.65905 0.85359 0.0
C352 C 0.99705 0.68809 0.91228 0.0
O353 O 1.00441 0.71056 0.89863 0.0
H354 H 0.99198 0.65739 0.82255 0.0
H355 H 0.98568 0.74078 0.84365 0.0
N356 N 0.93681 0.71698 0.88089 0.0
N357 N 0.90852 0.75327 0.88257 0.0
C358 C 0.92144 0.7348 0.86557 0.0
C359 C 0.93345 0.72431 0.90834 0.0
C360 C 0.91612 0.74658 0.90947 0.0
C361 C 0.94029 0.63406 0.85109 0.0
O362 O 0.96449 0.62633 0.86084 0.0
H363 H 0.91978 0.73412 0.84252 0.0
H364 H 0.94259 0.7138 0.92638 0.0
O365 O 0.97753 0.67358 0.90217 0.0
H366 H 0.0213 0.73603 0.80051 0.0
H367 H 0.90907 0.7565 0.92879 0.0
H368 H 0.32776 0.42437 0.35817 0.0
H369 H 0.37124 0.26559 0.36229 0.0
H370 H 0.26785 0.35914 0.36356 0.0
H371 H 0.42745 0.33334 0.35068 0.0
H372 H 0.33332 0.29864 0.3687 0.0
H373 H 0.36462 0.39065 0.36146 0.0
C374 C 0.32238 0.40286 0.3601 0.0
C375 C 0.29471 0.39453 0.36014 0.0
C376 C 0.35401 0.30621 0.36496 0.0
C377 C 0.33701 0.35547 0.36389 0.0
C378 C 0.37564 0.28738 0.36145 0.0
C379 C 0.40247 0.29675 0.35559 0.0
C380 C 0.35938 0.33454 0.36281 0.0
C381 C 0.40703 0.32519 0.35459 0.0
C382 C 0.34346 0.38355 0.36207 0.0
C383 C 0.28894 0.3664 0.36341 0.0
N384 N 0.38576 0.34297 0.35802 0.0
N385 N 0.30994 0.34778 0.36482 0.0
H386 H 0.39812 0.72807 0.6498 0.0
H387 H 0.25068 0.66058 0.68318 0.0
H388 H 0.34136 0.75985 0.71255 0.0
H389 H 0.31187 0.62336 0.62854 0.0
H390 H 0.28284 0.69802 0.69295 0.0
H391 H 0.36559 0.69092 0.63963 0.0
C392 C 0.37877 0.72736 0.66131 0.0
C393 C 0.37258 0.74706 0.68217 0.0
C394 C 0.2892 0.68162 0.67882 0.0
C395 C 0.33527 0.70446 0.67082 0.0
C396 C 0.27087 0.6601 0.67335 0.0
C397 C 0.27839 0.63867 0.65488 0.0
C398 C 0.31528 0.68184 0.6657 0.0
C399 C 0.30484 0.63954 0.64252 0.0
C400 C 0.36026 0.70603 0.65564 0.0
C401 C 0.34724 0.7449 0.69663 0.0
N402 N 0.32224 0.66074 0.6481 0.0
N403 N 0.32956 0.72403 0.69068 0.0
H404 H 0.6498 0.75155 0.36314 0.0
H405 H 0.69045 0.59423 0.34101 0.0
H406 H 0.5911 0.6854 0.35515 0.0
H407 H 0.75049 0.65491 0.36561 0.0
H408 H 0.65392 0.62797 0.3475 0.0
H409 H 0.68711 0.71748 0.36582 0.0
C410 C 0.64469 0.72993 0.36225 0.0
C411 C 0.61722 0.72141 0.35845 0.0
C412 C 0.675 0.63402 0.35176 0.0
C413 C 0.6598 0.68238 0.36127 0.0
C414 C 0.69586 0.61472 0.34797 0.0
C415 C 0.72348 0.62187 0.3526 0.0
C416 C 0.6817 0.66098 0.35985 0.0
C417 C 0.72939 0.64863 0.36193 0.0
C418 C 0.66601 0.7105 0.3637 0.0
C419 C 0.61191 0.69307 0.35733 0.0
N420 N 0.70868 0.66739 0.36491 0.0
N421 N 0.63293 0.67471 0.35851 0.0
H422 H 0.61413 0.29098 0.6631 0.0
H423 H 0.76727 0.35359 0.66585 0.0
H424 H 0.68804 0.24241 0.67116 0.0
H425 H 0.69385 0.40343 0.6701 0.0
H426 H 0.73837 0.31271 0.66141 0.0
H427 H 0.64279 0.3325 0.65917 0.0
C428 C 0.63636 0.28904 0.66368 0.0
C429 C 0.64872 0.26329 0.66782 0.0
C430 C 0.72856 0.33261 0.6632 0.0
C431 C 0.68159 0.3105 0.66348 0.0
C432 C 0.74509 0.35601 0.66557 0.0
C433 C 0.73303 0.38203 0.66861 0.0
C434 C 0.69968 0.33518 0.66375 0.0
C435 C 0.70408 0.38378 0.66835 0.0
C436 C 0.65271 0.31271 0.66163 0.0
C437 C 0.67764 0.26192 0.66857 0.0
N438 N 0.68842 0.3607 0.66608 0.0
N439 N 0.69304 0.28514 0.66655 0.0
H440 H 0.79631 0.89041 0.88631 0.0
H441 H 0.87905 0.75782 0.83305 0.0
H442 H 0.79156 0.85961 0.80012 0.0
H443 H 0.89463 0.79859 0.91328 0.0
H444 H 0.84581 0.79375 0.82095 0.0
H445 H 0.83064 0.85519 0.89738 0.0
C446 C 0.8024 0.87618 0.86975 0.0
C447 C 0.79105 0.87803 0.84224 0.0
C448 C 0.85658 0.79481 0.84118 0.0
C449 C 0.83048 0.83767 0.85469 0.0
C450 C 0.87571 0.77433 0.84807 0.0
C451 C 0.88966 0.7749 0.87437 0.0
C452 C 0.85123 0.81598 0.86076 0.0
C453 C 0.8841 0.79682 0.89302 0.0
C454 C 0.82214 0.85618 0.87601 0.0
C455 C 0.8 0.8592 0.8215 0.0
N456 N 0.86529 0.81634 0.88592 0.0
N457 N 0.81909 0.83976 0.82817 0.0
H458 H 0.7687 0.14435 0.1681 0.0
H459 H 0.92898 0.18464 0.16753 0.0
H460 H 0.83574 0.08615 0.16809 0.0
H461 H 0.8644 0.2455 0.16845 0.0
H462 H 0.89433 0.14866 0.16478 0.0
H463 H 0.80244 0.18194 0.16501 0.0
C464 C 0.79045 0.13945 0.1672 0.0
C465 C 0.79938 0.11201 0.16868 0.0
C466 C 0.88759 0.16985 0.16552 0.0
C467 C 0.83805 0.15486 0.1653 0.0
C468 C 0.90745 0.19046 0.16725 0.0
C469 C 0.89963 0.21817 0.16862 0.0
C470 C 0.85948 0.17679 0.16526 0.0
C471 C 0.87135 0.22442 0.16741 0.0
C472 C 0.8097 0.16091 0.16558 0.0
C473 C 0.82785 0.10692 0.16761 0.0
N474 N 0.85226 0.20387 0.16603 0.0
N475 N 0.84606 0.12806 0.16609 0.0
H476 H 0.13766 0.25122 0.82558 0.0
H477 H 0.23104 0.13239 0.89286 0.0
H478 H 0.13159 0.224 0.91331 0.0
H479 H 0.21799 0.13999 0.80204 0.0
H480 H 0.19777 0.16935 0.90071 0.0
H481 H 0.16947 0.21317 0.81614 0.0
C482 C 0.14278 0.23729 0.84282 0.0
C483 C 0.13205 0.24127 0.87043 0.0
C484 C 0.20211 0.1629 0.87905 0.0
C485 C 0.16883 0.19793 0.85981 0.0
C486 C 0.22124 0.14192 0.87458 0.0
C487 C 0.22726 0.13306 0.84679 0.0
C488 C 0.1891 0.17542 0.85554 0.0
C489 C 0.21371 0.14598 0.82384 0.0
C490 C 0.16106 0.21562 0.83742 0.0
C491 C 0.13972 0.22244 0.89188 0.0
N492 N 0.19537 0.16662 0.8287 0.0
N493 N 0.15771 0.20183 0.88617 0.0
H494 H 0.18997 0.92888 0.17935 0.0
H495 H 0.15768 0.76789 0.16778 0.0
H496 H 0.25403 0.86882 0.1666 0.0
H497 H 0.09635 0.8312 0.17799 0.0
H498 H 0.19331 0.80372 0.1634 0.0
H499 H 0.1555 0.89282 0.17526 0.0
C500 C 0.19677 0.90801 0.17567 0.0
C501 C 0.22493 0.90181 0.17368 0.0
C502 C 0.172 0.8097 0.16641 0.0
C503 C 0.18537 0.86005 0.16894 0.0
C504 C 0.15167 0.78928 0.16877 0.0
C505 C 0.12404 0.79656 0.17367 0.0
C506 C 0.16455 0.83753 0.16884 0.0
C507 C 0.11743 0.82459 0.17488 0.0
C508 C 0.17705 0.88737 0.17321 0.0
C509 C 0.23252 0.87446 0.16825 0.0
N510 N 0.13747 0.84392 0.17265 0.0
N511 N 0.21285 0.85448 0.16636 0.0
H512 H 0.15362 0.50739 0.2763 0.0
H513 H 0.12112 0.66309 0.23217 0.0
H514 H 0.17863 0.57783 0.3259 0.0
H515 H 0.08293 0.59327 0.19152 0.0
H516 H 0.14574 0.63181 0.26409 0.0
H517 H 0.13041 0.53822 0.24284 0.0
C518 C 0.15422 0.52924 0.28033 0.0
C519 C 0.16826 0.53985 0.30415 0.0
C520 C 0.13201 0.62332 0.24815 0.0
C521 C 0.14194 0.57538 0.2655 0.0
C522 C 0.118 0.64118 0.22984 0.0
C523 C 0.09984 0.63082 0.20916 0.0
C524 C 0.12798 0.59483 0.24574 0.0
C525 C 0.09664 0.6022 0.20719 0.0
C526 C 0.14103 0.54687 0.26107 0.0
C527 C 0.16853 0.56853 0.30778 0.0
N528 N 0.11055 0.58521 0.22526 0.0
N529 N 0.15563 0.58521 0.2887 0.0
H530 H 0.56016 0.79032 0.7539 0.0
H531 H 0.62493 0.92833 0.81807 0.0
H532 H 0.53074 0.87183 0.73385 0.0
H533 H 0.65939 0.84776 0.83285 0.0
H534 H 0.58764 0.90737 0.79078 0.0
H535 H 0.59441 0.81044 0.78585 0.0
C536 C 0.56086 0.81242 0.75611 0.0
C537 C 0.54247 0.82933 0.74094 0.0
C538 C 0.60326 0.89423 0.80012 0.0
C539 C 0.58155 0.85253 0.77787 0.0
C540 C 0.62455 0.90619 0.81581 0.0
C541 C 0.64546 0.88981 0.82766 0.0
C542 C 0.60281 0.86564 0.79617 0.0
C543 C 0.64379 0.86122 0.82402 0.0
C544 C 0.58036 0.82389 0.77452 0.0
C545 C 0.54417 0.85786 0.7452 0.0
N546 N 0.62293 0.85007 0.80847 0.0
N547 N 0.56338 0.86851 0.76315 0.0
H548 H 0.89079 0.35271 0.21575 0.0
H549 H 0.86926 0.50571 0.27437 0.0
H550 H 0.93899 0.42212 0.18708 0.0
H551 H 0.82567 0.43482 0.30682 0.0
H552 H 0.89411 0.4759 0.24129 0.0
H553 H 0.86531 0.38305 0.2477 0.0
C554 C 0.89595 0.37436 0.21604 0.0
C555 C 0.91713 0.38485 0.1987 0.0
C556 C 0.87908 0.46689 0.25566 0.0
C557 C 0.88804 0.41977 0.23544 0.0
C558 C 0.86498 0.4839 0.27473 0.0
C559 C 0.84523 0.47285 0.29352 0.0
C560 C 0.87344 0.43858 0.25531 0.0
C561 C 0.84035 0.44441 0.29256 0.0
C562 C 0.88141 0.39169 0.23438 0.0
C563 C 0.92286 0.41311 0.20006 0.0
N564 N 0.85433 0.42832 0.27381 0.0
N565 N 0.90844 0.42956 0.21815 0.0
H566 H 0.45218 0.20818 0.73289 0.0
H567 H 0.42764 0.08204 0.84048 0.0
H568 H 0.51516 0.14986 0.75661 0.0
H569 H 0.36302 0.13735 0.81364 0.0
H570 H 0.46076 0.10902 0.81285 0.0
H571 H 0.42011 0.18505 0.76543 0.0
C572 C 0.45937 0.1907 0.74512 0.0
C573 C 0.48639 0.18084 0.74177 0.0
C574 C 0.43936 0.11536 0.8131 0.0
C575 C 0.44969 0.15408 0.77893 0.0
C576 C 0.42041 0.09996 0.82894 0.0
C577 C 0.39244 0.10733 0.8293 0.0
C578 C 0.43034 0.13833 0.79744 0.0
C579 C 0.38435 0.13082 0.81392 0.0
C580 C 0.44099 0.17739 0.76359 0.0
C581 C 0.49443 0.1579 0.75805 0.0
N582 N 0.40318 0.1454 0.79853 0.0
N583 N 0.47617 0.14529 0.7758 0.0
H584 H 0.13815 0.52385 0.74778 0.0
H585 H 0.13492 0.37905 0.82903 0.0
H586 H 0.20692 0.46768 0.74951 0.0
H587 H 0.06909 0.43854 0.83366 0.0
H588 H 0.16226 0.41188 0.80138 0.0
H589 H 0.11303 0.49342 0.78021 0.0
C590 C 0.14797 0.50509 0.75492 0.0
C591 C 0.17466 0.49825 0.74569 0.0
C592 C 0.14191 0.41784 0.80861 0.0
C593 C 0.14601 0.4633 0.78309 0.0
C594 C 0.12627 0.3991 0.82445 0.0
C595 C 0.09957 0.40597 0.8336 0.0
C596 C 0.13075 0.44364 0.80167 0.0
C597 C 0.08954 0.4323 0.82704 0.0
C598 C 0.13367 0.48779 0.77361 0.0
C599 C 0.1865 0.4739 0.75615 0.0
N600 N 0.10504 0.45007 0.81131 0.0
N601 N 0.17204 0.45724 0.77412 0.0
H602 H 0.3609 0.89226 0.20361 0.0
H603 H 0.50451 0.88071 0.28698 0.0
H604 H 0.42623 0.952 0.1951 0.0
H605 H 0.44087 0.81877 0.28978 0.0
H606 H 0.47758 0.90594 0.25132 0.0
H607 H 0.39111 0.86401 0.23324 0.0
C608 C 0.38168 0.89937 0.20778 0.0
C609 C 0.39095 0.92466 0.19693 0.0
C610 C 0.4696 0.88674 0.25965 0.0
C611 C 0.42571 0.89239 0.23118 0.0
C612 C 0.48506 0.87223 0.27993 0.0
C613 C 0.47487 0.84764 0.29171 0.0
C614 C 0.44375 0.87664 0.25105 0.0
C615 C 0.44934 0.83786 0.28184 0.0
C616 C 0.39895 0.8832 0.22475 0.0
C617 C 0.41816 0.93269 0.20302 0.0
N618 N 0.43465 0.85243 0.26227 0.0
N619 N 0.43449 0.91673 0.21991 0.0
H620 H 0.8149 0.56356 0.74249 0.0
H621 H 0.95246 0.58121 0.83525 0.0
H622 H 0.88279 0.50632 0.73995 0.0
H623 H 0.88861 0.64271 0.82915 0.0
H624 H 0.9251 0.55107 0.8046 0.0
H625 H 0.8396 0.59037 0.77815 0.0
C626 C 0.83501 0.5566 0.74936 0.0
C627 C 0.84684 0.53273 0.73785 0.0
C628 C 0.91701 0.57109 0.81012 0.0
C629 C 0.87525 0.56333 0.77912 0.0
C630 C 0.93258 0.5883 0.8277 0.0
C631 C 0.92291 0.61464 0.83468 0.0
C632 C 0.89152 0.58021 0.79947 0.0
C633 C 0.89699 0.62267 0.82424 0.0
C634 C 0.84908 0.57189 0.76989 0.0
C635 C 0.87275 0.52445 0.74823 0.0
N636 N 0.88228 0.60559 0.80709 0.0
N637 N 0.88614 0.53981 0.76813 0.0
H638 H 0.66903 0.11827 0.21106 0.0
H639 H 0.51689 0.14922 0.26962 0.0
H640 H 0.59815 0.06945 0.18803 0.0
H641 H 0.5907 0.18917 0.30013 0.0
H642 H 0.54531 0.12153 0.23747 0.0
H643 H 0.63952 0.14675 0.24095 0.0
C644 C 0.64722 0.1136 0.21214 0.0
C645 C 0.63611 0.09133 0.19703 0.0
C646 C 0.55521 0.13642 0.25121 0.0
C647 C 0.60207 0.12393 0.2315 0.0
C648 C 0.53899 0.15218 0.26972 0.0
C649 C 0.55128 0.17177 0.2877 0.0
C650 C 0.58392 0.14029 0.25059 0.0
C651 C 0.58009 0.17479 0.28647 0.0
C652 C 0.63035 0.12986 0.22933 0.0
C653 C 0.60764 0.08637 0.19932 0.0
N654 N 0.59533 0.15929 0.26829 0.0
N655 N 0.5916 0.10249 0.21628 0.0
H656 H 0.66166 0.06262 0.8167 0.0
H657 H 0.63844 0.09931 0.65491 0.0
H658 H 0.68678 1.00499 0.75205 0.0
H659 H 0.57944 0.12084 0.72029 0.0
H660 H 0.66038 0.06735 0.68879 0.0
H661 H 0.63596 0.08843 0.78049 0.0
C662 C 0.66183 0.05555 0.79479 0.0
C663 C 0.67634 0.03181 0.7872 0.0
C664 C 0.64237 0.07884 0.69541 0.0
C665 C 0.64723 0.06117 0.74573 0.0
C666 C 0.62984 0.09703 0.67616 0.0
C667 C 0.60718 0.11293 0.6848 0.0
C668 C 0.63249 0.07712 0.72357 0.0
C669 C 0.5969 0.10913 0.71263 0.0
C670 C 0.64702 0.07008 0.77422 0.0
C671 C 0.6757 0.02321 0.7586 0.0
N672 N 0.60992 0.092 0.73113 0.0
N673 N 0.66162 0.0381 0.7387 0.0
H674 H 0.15904 0.38522 0.30999 0.0
H675 H 1.00971 0.37421 0.23791 0.0
H676 H 0.08988 0.43598 0.33401 0.0
H677 H 0.07779 0.32087 0.21685 0.0
H678 H 0.03813 0.39579 0.27457 0.0
H679 H 0.12909 0.36022 0.27707 0.0
C680 C 0.13753 0.39102 0.30849 0.0
C681 C 0.12702 0.41284 0.32474 0.0
C682 C 0.04682 0.37929 0.26199 0.0
C683 C 0.0926 0.38436 0.28691 0.0
C684 C 0.03051 0.36682 0.2411 0.0
C685 C 0.04133 0.34571 0.22404 0.0
C686 C 0.0742 0.37066 0.26591 0.0
C687 C 0.06865 0.33734 0.22906 0.0
C688 C 0.12042 0.37674 0.28965 0.0
C689 C 0.09894 0.41936 0.32189 0.0
N690 N 0.08412 0.34987 0.24942 0.0
N691 N 0.08276 0.4053 0.30325 0.0
H692 H 0.33003 1.00459 0.75898 0.0
H693 H 0.4484 0.89598 0.72239 0.0
H694 H 0.38282 0.96702 0.82188 0.0
H695 H 0.37408 0.90182 0.67195 0.0
H696 H 0.43093 0.93212 0.7535 0.0
H697 H 0.35212 0.97627 0.72169 0.0
C698 C 0.34651 0.99064 0.76476 0.0
C699 C 0.35457 0.9878 0.79339 0.0
C700 C 0.4186 0.92569 0.73542 0.0
C701 C 0.37997 0.95602 0.75132 0.0
C702 C 0.42859 0.90514 0.71754 0.0
C703 C 0.41251 0.89556 0.6947 0.0
C704 C 0.39248 0.93704 0.73034 0.0
C705 C 0.38703 0.90838 0.68949 0.0
C706 C 0.35896 0.97449 0.74365 0.0
C707 C 0.37589 0.96946 0.80004 0.0
N708 N 0.37768 0.92839 0.70731 0.0
N709 N 0.38789 0.9543 0.77918 0.0
H710 H 0.85511 0.66166 0.32515 0.0
H711 H 0.99393 0.64032 0.23467 0.0
H712 H 0.89497 0.58299 0.31519 0.0
H713 H 0.94629 0.71512 0.23442 0.0
H714 H 0.96096 0.62018 0.26851 0.0
H715 H 0.89141 0.68276 0.29627 0.0
C716 C 0.87158 0.64883 0.31707 0.0
C717 C 0.87186 0.62046 0.3225 0.0
C718 C 0.95779 0.64104 0.2611 0.0
C719 C 0.91354 0.64453 0.28928 0.0
C720 C 0.97669 0.65258 0.24191 0.0
C721 C 0.97275 0.67937 0.2315 0.0
C722 C 0.9349 0.65647 0.27011 0.0
C723 C 0.94989 0.69425 0.24146 0.0
C724 C 0.89229 0.66089 0.30049 0.0
C725 C 0.89381 0.60491 0.31145 0.0
N726 N 0.93185 0.6826 0.26013 0.0
N727 N 0.91371 0.61713 0.29531 0.0
H728 H 0.64058 0.99855 0.23873 0.0
H729 H 0.62827 0.85496 0.3214 0.0
H730 H 0.70232 0.9348 0.2354 0.0
H731 H 0.56981 0.92103 0.33173 0.0
H732 H 0.6565 0.88484 0.29132 0.0
H733 H 0.61532 0.97163 0.27439 0.0
C734 C 0.64901 0.97907 0.24565 0.0
C735 C 0.67355 0.96887 0.23374 0.0
C736 C 0.6376 0.8929 0.3003 0.0
C737 C 0.64451 0.93775 0.27438 0.0
C738 C 0.62144 0.87582 0.31751 0.0
C739 C 0.59653 0.88543 0.32903 0.0
C740 C 0.62875 0.9198 0.29432 0.0
C741 C 0.58883 0.91272 0.32329 0.0
C742 C 0.63448 0.96362 0.26594 0.0
C743 C 0.68325 0.9433 0.24346 0.0
N744 N 0.60476 0.92887 0.30617 0.0
N745 N 0.66866 0.92861 0.26303 0.0
H746 H 0.8679 0.38194 0.70134 0.0
H747 H 0.01818 0.37976 0.77183 0.0
H748 H 0.92835 0.44612 0.68962 0.0
H749 H 0.96353 0.30987 0.77354 0.0
H750 H 0.98528 0.40417 0.74157 0.0
H751 H 0.90233 0.35489 0.72743 0.0
C752 C 0.88843 0.39029 0.70407 0.0
C753 C 0.89517 0.41643 0.69332 0.0
C754 C 0.98048 0.38344 0.74841 0.0
C755 C 0.93463 0.38563 0.72336 0.0
C756 C 0.99923 0.36954 0.76584 0.0
C757 C 0.99355 0.34277 0.77543 0.0
C758 C 0.95564 0.37065 0.74059 0.0
C759 C 0.96883 0.33039 0.76653 0.0
C760 C 0.90809 0.37482 0.71897 0.0
C761 C 0.92214 0.42613 0.69752 0.0
N762 N 0.95069 0.3445 0.74981 0.0
N763 N 0.94076 0.41084 0.71233 0.0
H764 H 0.40124 0.16745 0.30747 0.0
H765 H 0.36867 0.01447 0.25484 0.0
H766 H 0.4465 0.09676 0.33772 0.0
H767 H 0.33619 0.08802 0.21539 0.0
H768 H 0.39442 0.04321 0.28831 0.0
H769 H 0.37366 0.13746 0.27731 0.0
C770 C 0.4053 0.14557 0.30794 0.0
C771 C 0.42638 0.13467 0.32509 0.0
C772 C 0.38156 0.05295 0.27232 0.0
C773 C 0.39478 0.10006 0.2903 0.0
C774 C 0.36689 0.03655 0.25305 0.0
C775 C 0.35001 0.04866 0.23206 0.0
C776 C 0.37927 0.08168 0.27073 0.0
C777 C 0.34844 0.0775 0.23127 0.0
C778 C 0.38956 0.12843 0.29058 0.0
C779 C 0.43053 0.10609 0.32478 0.0
N780 N 0.36281 0.09291 0.25026 0.0
N781 N 0.41494 0.08977 0.30757 0.0
H782 H 0.08328 0.58105 0.68203 0.0
H783 H 0.06138 0.71128 0.78389 0.0
H784 H 0.14772 0.63945 0.70088 0.0
H785 H 1.00231 0.64566 0.7745 0.0
H786 H 0.09134 0.6885 0.74908 0.0
H787 H 0.05147 0.60779 0.71123 0.0
C788 C 0.09072 0.59964 0.6921 0.0
C789 C 0.11831 0.60789 0.68912 0.0
C790 C 0.07176 0.67916 0.75457 0.0
C791 C 0.0819 0.63862 0.7228 0.0
C792 C 0.05459 0.69223 0.77432 0.0
C793 C 0.02938 0.68026 0.78232 0.0
C794 C 0.06359 0.65402 0.74256 0.0
C795 C 0.02175 0.6554 0.76938 0.0
C796 C 0.07253 0.61487 0.70887 0.0
C797 C 0.12668 0.63222 0.70267 0.0
N798 N 0.03878 0.64311 0.75022 0.0
N799 N 0.10858 0.64666 0.71903 0.0
H800 H 0.1508 0.54477 0.57933 0.0
H801 H 0.20567 0.44287 0.45791 0.0
H802 H 0.21363 0.48351 0.5938 0.0
H803 H 0.1408 0.5023 0.44493 0.0
H804 H 0.20631 0.45467 0.50876 0.0
H805 H 0.14421 0.52679 0.53109 0.0
C806 C 0.16304 0.52738 0.57248 0.0
C807 C 0.18296 0.5158 0.59061 0.0
C808 C 0.19178 0.46495 0.4948 0.0
C809 C 0.17567 0.49519 0.53525 0.0
C810 C 0.19137 0.45818 0.46577 0.0
C811 C 0.17333 0.47177 0.44703 0.0
C812 C 0.17406 0.48552 0.50517 0.0
C813 C 0.15524 0.49141 0.45848 0.0
C814 C 0.15929 0.51713 0.54489 0.0
C815 C 0.19814 0.49322 0.58054 0.0
N816 N 0.15622 0.49783 0.48669 0.0
N817 N 0.19435 0.48382 0.5535 0.0
H818 H 0.55009 0.8482 0.45067 0.0
H819 H 0.46227 0.7931 0.58441 0.0
H820 H 0.51206 0.76806 0.4543 0.0
H821 H 0.51156 0.86691 0.58701 0.0
H822 H 0.47781 0.78526 0.53539 0.0
H823 H 0.53421 0.85684 0.49957 0.0
C824 C 0.53851 0.83238 0.46175 0.0
C825 C 0.53245 0.80735 0.44832 0.0
C826 C 0.48521 0.8032 0.54666 0.0
C827 C 0.51398 0.81721 0.50418 0.0
C828 C 0.47624 0.80775 0.57464 0.0
C829 C 0.48565 0.83068 0.58992 0.0
C830 C 0.50363 0.82177 0.53372 0.0
C831 C 0.50381 0.84891 0.57611 0.0
C832 C 0.52942 0.83734 0.48966 0.0
C833 C 0.51731 0.78764 0.46375 0.0
N834 N 0.51219 0.84407 0.54883 0.0
N835 N 0.50854 0.79303 0.49074 0.0
H836 H 0.84726 0.55653 0.44635 0.0
H837 H 0.79777 0.45895 0.57485 0.0
H838 H 0.77011 0.51227 0.44664 0.0
H839 H 0.86546 0.51608 0.58244 0.0
H840 H 0.78988 0.47529 0.52607 0.0
H841 H 0.85636 0.53963 0.49483 0.0
C842 C 0.83218 0.54339 0.45662 0.0
C843 C 0.80785 0.53587 0.44236 0.0
C844 C 0.80651 0.48421 0.53838 0.0
C845 C 0.81831 0.51618 0.49772 0.0
C846 C 0.81114 0.47477 0.56621 0.0
C847 C 0.83228 0.48619 0.58286 0.0
C848 C 0.82325 0.50511 0.52695 0.0
C849 C 0.84886 0.50672 0.57046 0.0
C850 C 0.8374 0.53371 0.48429 0.0
C851 C 0.7891 0.51871 0.45676 0.0
N852 N 0.84399 0.51552 0.5433 0.0
N853 N 0.79477 0.50937 0.48353 0.0
H854 H 0.52561 0.25174 0.43545 0.0
H855 H 0.51968 0.17422 0.58524 0.0
H856 H 0.47457 0.18001 0.44782 0.0
H857 H 0.5905 0.2205 0.55667 0.0
H858 H 0.49905 0.1797 0.53766 0.0
H859 H 0.54543 0.24463 0.48274 0.0
C860 C 0.51841 0.23455 0.44818 0.0
C861 C 0.49836 0.21642 0.43759 0.0
C862 C 0.51914 0.18852 0.54184 0.0
C863 C 0.52106 0.20825 0.49201 0.0
C864 C 0.5309 0.1855 0.56898 0.0
C865 C 0.55688 0.19694 0.57496 0.0
C866 C 0.53322 0.20353 0.52073 0.0
C867 C 0.5705 0.21126 0.55303 0.0
C868 C 0.5299 0.23043 0.47514 0.0
C869 C 0.49001 0.19443 0.45511 0.0
N870 N 0.55842 0.21434 0.52701 0.0
N871 N 0.50131 0.19103 0.48157 0.0
H872 H 0.67227 0.04006 0.07577 0.0
H873 H 0.73426 0.95723 0.94233 0.0
H874 H 0.75566 0.00933 0.07174 0.0
H875 H 0.65384 0.99521 0.94163 0.0
H876 H 0.74138 0.97426 0.99084 0.0
H877 H 0.66427 0.02259 0.02739 0.0
C878 C 0.68893 0.02979 0.0647 0.0
C879 C 0.71468 0.0262 0.0779 0.0
C880 C 0.72214 0.97883 0.98012 0.0
C881 C 0.7056 1.00591 0.02263 0.0
C882 C 0.71801 0.96899 0.95242 0.0
C883 C 0.69342 0.97481 0.9378 0.0
C884 C 0.70152 0.99457 0.99343 0.0
C885 C 0.67315 0.99024 0.95202 0.0
C886 C 0.68434 0.01975 0.0371 0.0
C887 C 0.73547 0.01263 0.0625 0.0
N888 N 0.67766 0.9996 0.97899 0.0
N889 N 0.73045 1.00295 0.0358 0.0
H890 H 0.03004 0.36115 0.94411 0.0
H891 H 0.95343 0.26668 0.05811 0.0
H892 H 0.98647 0.28664 0.92276 0.0
H893 H 0.97471 0.35083 0.07655 0.0
H894 H 0.96564 0.27432 1.00819 0.0
H895 H 1.01004 0.35894 0.99236 0.0
C896 C 0.01602 0.34456 0.9494 0.0
C897 C 0.01016 0.3239 0.9294 0.0
C898 C 0.96741 0.29126 0.02302 0.0
C899 C 0.98754 0.32111 0.98451 0.0
C900 C 0.96048 0.28687 0.05158 0.0
C901 C 0.96314 0.30811 0.07154 0.0
C902 C 0.97759 0.31698 0.01428 0.0
C903 C 0.97229 0.3339 0.06182 0.0
C904 C 1.00464 0.34331 0.97693 0.0
C905 C 0.99184 0.3029 0.93746 0.0
N906 N 0.97954 0.33754 0.03391 0.0
N907 N 0.98147 0.30191 0.96439 0.0
H908 H 0.34599 0.06799 0.94839 0.0
H909 H 0.29423 0.97037 0.0761 0.0
H910 H 0.26858 0.02419 0.94738 0.0
H911 H 0.36506 0.02371 0.08263 0.0
H912 H 0.28623 0.98758 0.02761 0.0
H913 H 0.35456 0.05048 0.99669 0.0
C914 C 0.3307 0.05487 0.95837 0.0
C915 C 0.3065 0.04762 0.94374 0.0
C916 C 0.30357 0.99546 0.03963 0.0
C917 C 0.31637 0.02718 0.99896 0.0
C918 C 0.30825 0.98551 0.06728 0.0
C919 C 0.33033 0.99562 0.08355 0.0
C920 C 0.32116 0.01559 0.02803 0.0
C921 C 0.34773 0.01535 0.07096 0.0
C922 C 0.33565 0.0448 0.98593 0.0
C923 C 0.2875 0.03042 0.95778 0.0
N924 N 0.34276 0.02469 0.04402 0.0
N925 N 0.29289 0.02072 0.98449 0.0
H926 H 0.98164 0.64786 0.95042 0.0
H927 H 0.07436 0.70854 0.07715 0.0
H928 H 0.0386 0.7153 0.9398 0.0
H929 H 0.01303 0.64515 0.08867 0.0
H930 H 0.06584 0.70737 0.02559 0.0
H931 H 0.99731 0.64252 0.9998 0.0
C932 C 0.99767 0.66133 0.95833 0.0
C933 C 1.00861 0.68224 0.94098 0.0
C934 C 0.05441 0.69356 0.0394 0.0
C935 C 0.02653 0.67637 0.99761 0.0
C936 C 0.05932 0.69419 0.06885 0.0
C937 C 0.04421 0.67711 0.08734 0.0
C938 C 0.03428 0.67572 0.02835 0.0
C939 C 0.02501 0.65888 0.0753 0.0
C940 C 1.00656 0.65833 0.98658 0.0
C941 C 0.02939 0.69905 0.95244 0.0
N942 N 0.02048 0.6588 0.04665 0.0
N943 N 0.0375 0.69589 0.98006 0.0
loop_
_geom_bond_atom_site_label_1
_geom_bond_atom_site_label_2
_geom_bond_distance
_geom_bond_site_symmetry_2
_ccdc_geom_bond_type
Cu0 N1 1.999 . S
Cu0 O6 1.974 . S
Cu0 N11 1.985 . S
Cu0 O20 1.959 . S
N1 Cu0 1.999 . S
N1 C3 1.263 . S
N1 C5 1.389 . S
N2 C3 1.358 . S
N2 C4 1.400 . S
C3 N1 1.263 . S
C3 N2 1.358 . S
C3 H9 0.930 . S
C4 N2 1.400 . S
C4 C5 1.351 . S
C4 H21 0.930 . S
C5 N1 1.389 . S
C5 C4 1.351 . S
C5 H10 0.930 . S
O6 Cu0 1.974 . S
O6 C16 1.282 . S
C7 O8 1.261 . S
C7 O20 1.251 . S
O8 C7 1.261 . S
H9 C3 0.930 . S
H10 C5 0.930 . S
N11 Cu0 1.985 . S
N11 C13 1.335 . S
N11 C14 1.390 . S
N12 C13 1.345 . S
N12 C15 1.336 . S
C13 N11 1.335 . S
C13 N12 1.345 . S
C13 H18 0.930 . S
C14 N11 1.390 . S
C14 C15 1.346 . S
C14 H19 0.930 . S
C15 N12 1.336 . S
C15 C14 1.346 . S
C15 H22 0.929 . S
C16 O6 1.282 . S
C16 O17 1.216 . S
O17 C16 1.216 . S
H18 C13 0.930 . S
H19 C14 0.930 . S
O20 Cu0 1.959 . S
O20 C7 1.251 . S
H21 C4 0.930 . S
H22 C15 0.929 . S
Cu23 N24 1.999 . S
Cu23 O29 1.974 . S
Cu23 N34 1.985 . S
Cu23 O43 1.959 . S
N24 Cu23 1.999 . S
N24 C26 1.263 . S
N24 C28 1.389 . S
N25 C26 1.358 . S
N25 C27 1.400 . S
C26 N24 1.263 . S
C26 N25 1.358 . S
C26 H32 0.930 . S
C27 N25 1.400 . S
C27 C28 1.351 . S
C27 H44 0.930 . S
C28 N24 1.389 . S
C28 C27 1.351 . S
C28 H33 0.930 . S
O29 Cu23 1.974 . S
O29 C39 1.282 . S
C30 O31 1.261 . S
C30 O43 1.251 . S
O31 C30 1.261 . S
H32 C26 0.930 . S
H33 C28 0.930 . S
N34 Cu23 1.985 . S
N34 C36 1.335 . S
N34 C37 1.390 . S
N35 C36 1.345 . S
N35 C38 1.336 . S
C36 N34 1.335 . S
C36 N35 1.345 . S
C36 H41 0.930 . S
C37 N34 1.390 . S
C37 C38 1.346 . S
C37 H42 0.930 . S
C38 N35 1.336 . S
C38 C37 1.346 . S
C38 H45 0.929 . S
C39 O29 1.282 . S
C39 O40 1.216 . S
O40 C39 1.216 . S
H41 C36 0.930 . S
H42 C37 0.930 . S
O43 Cu23 1.959 . S
O43 C30 1.251 . S
H44 C27 0.930 . S
H45 C38 0.929 . S
Cu46 N47 1.999 . S
Cu46 O52 1.974 . S
Cu46 N57 1.985 . S
Cu46 O66 1.959 . S
N47 Cu46 1.999 . S
N47 C49 1.263 . S
N47 C51 1.389 . S
N48 C49 1.358 . S
N48 C50 1.400 . S
C49 N47 1.263 . S
C49 N48 1.358 . S
C49 H55 0.930 . S
C50 N48 1.400 . S
C50 C51 1.351 . S
C50 H67 0.930 . S
C51 N47 1.389 . S
C51 C50 1.351 . S
C51 H56 0.930 . S
O52 Cu46 1.974 . S
O52 C62 1.282 . S
C53 O54 1.261 . S
C53 O66 1.251 . S
O54 C53 1.261 . S
H55 C49 0.930 . S
H56 C51 0.930 . S
N57 Cu46 1.985 . S
N57 C59 1.335 . S
N57 C60 1.390 . S
N58 C59 1.345 . S
N58 C61 1.336 . S
C59 N57 1.335 . S
C59 N58 1.345 . S
C59 H64 0.930 . S
C60 N57 1.390 . S
C60 C61 1.346 . S
C60 H65 0.930 . S
C61 N58 1.336 . S
C61 C60 1.346 . S
C61 H68 0.929 . S
C62 O52 1.282 . S
C62 O63 1.216 . S
O63 C62 1.216 . S
H64 C59 0.930 . S
H65 C60 0.930 . S
O66 Cu46 1.959 . S
O66 C53 1.251 . S
H67 C50 0.930 . S
H68 C61 0.929 . S
Cu69 N70 1.999 . S
Cu69 O75 1.974 . S
Cu69 N80 1.985 . S
Cu69 O89 1.959 . S
N70 Cu69 1.999 . S
N70 C72 1.263 . S
N70 C74 1.389 . S
N71 C72 1.358 . S
N71 C73 1.400 . S
C72 N70 1.263 . S
C72 N71 1.358 . S
C72 H78 0.930 . S
C73 N71 1.400 . S
C73 C74 1.351 . S
C73 H90 0.930 . S
C74 N70 1.389 . S
C74 C73 1.351 . S
C74 H79 0.930 . S
O75 Cu69 1.974 . S
O75 C85 1.282 . S
C76 O77 1.261 . S
C76 O89 1.251 . S
O77 C76 1.261 . S
H78 C72 0.930 . S
H79 C74 0.930 . S
N80 Cu69 1.985 . S
N80 C82 1.335 . S
N80 C83 1.390 . S
N81 C82 1.345 . S
N81 C84 1.336 . S
C82 N80 1.335 . S
C82 N81 1.345 . S
C82 H87 0.930 . S
C83 N80 1.390 . S
C83 C84 1.346 . S
C83 H88 0.930 . S
C84 N81 1.336 . S
C84 C83 1.346 . S
C84 H91 0.929 . S
C85 O75 1.282 . S
C85 O86 1.216 . S
O86 C85 1.216 . S
H87 C82 0.930 . S
H88 C83 0.930 . S
O89 Cu69 1.959 . S
O89 C76 1.251 . S
H90 C73 0.930 . S
H91 C84 0.929 . S
Cu92 N93 1.999 . S
Cu92 O98 1.974 . S
Cu92 N103 1.985 . S
Cu92 O112 1.959 . S
N93 Cu92 1.999 . S
N93 C95 1.263 . S
N93 C97 1.389 . S
N94 C95 1.358 . S
N94 C96 1.400 . S
C95 N93 1.263 . S
C95 N94 1.358 . S
C95 H101 0.930 . S
C96 N94 1.400 . S
C96 C97 1.351 . S
C96 H113 0.930 . S
C97 N93 1.389 . S
C97 C96 1.351 . S
C97 H102 0.930 . S
O98 Cu92 1.974 . S
O98 C108 1.282 . S
C99 O100 1.261 . S
C99 O112 1.251 . S
O100 C99 1.261 . S
H101 C95 0.930 . S
H102 C97 0.930 . S
N103 Cu92 1.985 . S
N103 C105 1.335 . S
N103 C106 1.390 . S
N104 C105 1.345 . S
N104 C107 1.336 . S
C105 N103 1.335 . S
C105 N104 1.345 . S
C105 H110 0.930 . S
C106 N103 1.390 . S
C106 C107 1.346 . S
C106 H111 0.930 . S
C107 N104 1.336 . S
C107 C106 1.346 . S
C107 H114 0.929 . S
C108 O98 1.282 . S
C108 O109 1.216 . S
O109 C108 1.216 . S
H110 C105 0.930 . S
H111 C106 0.930 . S
O112 Cu92 1.959 . S
O112 C99 1.251 . S
H113 C96 0.930 . S
H114 C107 0.929 . S
Cu115 N116 1.999 . S
Cu115 O121 1.974 . S
Cu115 N126 1.985 . S
Cu115 O135 1.959 . S
N116 Cu115 1.999 . S
N116 C118 1.263 . S
N116 C120 1.389 . S
N117 C118 1.358 . S
N117 C119 1.400 . S
C118 N116 1.263 . S
C118 N117 1.358 . S
C118 H124 0.930 . S
C119 N117 1.400 . S
C119 C120 1.351 . S
C119 H136 0.930 . S
C120 N116 1.389 . S
C120 C119 1.351 . S
C120 H125 0.930 . S
O121 Cu115 1.974 . S
O121 C131 1.282 . S
C122 O123 1.261 . S
C122 O135 1.251 . S
O123 C122 1.261 . S
H124 C118 0.930 . S
H125 C120 0.930 . S
N126 Cu115 1.985 . S
N126 C128 1.335 . S
N126 C129 1.390 . S
N127 C128 1.345 . S
N127 C130 1.336 . S
C128 N126 1.335 . S
C128 N127 1.345 . S
C128 H133 0.930 . S
C129 N126 1.390 . S
C129 C130 1.346 . S
C129 H134 0.930 . S
C130 N127 1.336 . S
C130 C129 1.346 . S
C130 H137 0.929 . S
C131 O121 1.282 . S
C131 O132 1.216 . S
O132 C131 1.216 . S
H133 C128 0.930 . S
H134 C129 0.930 . S
O135 Cu115 1.959 . S
O135 C122 1.251 . S
H136 C119 0.930 . S
H137 C130 0.929 . S
Cu138 N139 1.999 . S
Cu138 O144 1.974 . S
Cu138 N149 1.985 . S
Cu138 O158 1.959 . S
N139 Cu138 1.999 . S
N139 C141 1.263 . S
N139 C143 1.389 . S
N140 C141 1.358 . S
N140 C142 1.400 . S
C141 N139 1.263 . S
C141 N140 1.358 . S
C141 H147 0.930 . S
C142 N140 1.400 . S
C142 C143 1.351 . S
C142 H159 0.930 . S
C143 N139 1.389 . S
C143 C142 1.351 . S
C143 H148 0.930 . S
O144 Cu138 1.974 . S
O144 C154 1.282 . S
C145 O146 1.261 . S
C145 O158 1.251 . S
O146 C145 1.261 . S
H147 C141 0.930 . S
H148 C143 0.930 . S
N149 Cu138 1.985 . S
N149 C151 1.335 . S
N149 C152 1.390 . S
N150 C151 1.345 . S
N150 C153 1.336 . S
C151 N149 1.335 . S
C151 N150 1.345 . S
C151 H156 0.930 . S
C152 N149 1.390 . S
C152 C153 1.346 . S
C152 H157 0.930 . S
C153 N150 1.336 . S
C153 C152 1.346 . S
C153 H160 0.929 . S
C154 O144 1.282 . S
C154 O155 1.216 . S
O155 C154 1.216 . S
H156 C151 0.930 . S
H157 C152 0.930 . S
O158 Cu138 1.959 . S
O158 C145 1.251 . S
H159 C142 0.930 . S
H160 C153 0.929 . S
Cu161 N162 1.999 . S
Cu161 O167 1.974 . S
Cu161 N172 1.985 . S
Cu161 O181 1.959 . S
N162 Cu161 1.999 . S
N162 C164 1.263 . S
N162 C166 1.389 . S
N163 C164 1.358 . S
N163 C165 1.400 . S
C164 N162 1.263 . S
C164 N163 1.358 . S
C164 H170 0.930 . S
C165 N163 1.400 . S
C165 C166 1.351 . S
C165 H182 0.930 . S
C166 N162 1.389 . S
C166 C165 1.351 . S
C166 H171 0.930 . S
O167 Cu161 1.974 . S
O167 C177 1.282 . S
C168 O169 1.261 . S
C168 O181 1.251 . S
O169 C168 1.261 . S
H170 C164 0.930 . S
H171 C166 0.930 . S
N172 Cu161 1.985 . S
N172 C174 1.335 . S
N172 C175 1.390 . S
N173 C174 1.345 . S
N173 C176 1.336 . S
C174 N172 1.335 . S
C174 N173 1.345 . S
C174 H179 0.930 . S
C175 N172 1.390 . S
C175 C176 1.346 . S
C175 H180 0.930 . S
C176 N173 1.336 . S
C176 C175 1.346 . S
C176 H183 0.929 . S
C177 O167 1.282 . S
C177 O178 1.216 . S
O178 C177 1.216 . S
H179 C174 0.930 . S
H180 C175 0.930 . S
O181 Cu161 1.959 . S
O181 C168 1.251 . S
H182 C165 0.930 . S
H183 C176 0.929 . S
Cu184 N185 1.999 1_565 S
Cu184 O190 1.974 . S
Cu184 N195 1.985 . S
Cu184 O204 1.959 . S
N185 Cu184 1.999 1_545 S
N185 C187 1.263 . S
N185 C189 1.389 . S
N186 C187 1.358 . S
N186 C188 1.400 . S
C187 N185 1.263 . S
C187 N186 1.358 . S
C187 H193 0.930 1_545 S
C188 N186 1.400 . S
C188 C189 1.351 . S
C188 H205 0.930 . S
C189 N185 1.389 . S
C189 C188 1.351 . S
C189 H194 0.930 . S
O190 Cu184 1.974 . S
O190 C200 1.282 . S
C191 O192 1.261 . S
C191 O204 1.251 . S
O192 C191 1.261 . S
H193 C187 0.930 1_565 S
H194 C189 0.930 . S
N195 Cu184 1.985 . S
N195 C197 1.335 . S
N195 C198 1.390 . S
N196 C197 1.345 . S
N196 C199 1.336 . S
C197 N195 1.335 . S
C197 N196 1.345 . S
C197 H202 0.930 . S
C198 N195 1.390 . S
C198 C199 1.346 . S
C198 H203 0.930 . S
C199 N196 1.336 . S
C199 C198 1.346 . S
C199 H206 0.929 . S
C200 O190 1.282 . S
C200 O201 1.216 . S
O201 C200 1.216 . S
H202 C197 0.930 . S
H203 C198 0.930 . S
O204 Cu184 1.959 . S
O204 C191 1.251 . S
H205 C188 0.930 . S
H206 C199 0.929 . S
Cu207 N208 1.999 1_655 S
Cu207 O213 1.974 . S
Cu207 N218 1.985 . S
Cu207 O227 1.959 . S
N208 Cu207 1.999 1_455 S
N208 C210 1.263 . S
N208 C212 1.389 . S
N209 C210 1.358 . S
N209 C211 1.400 . S
C210 N208 1.263 . S
C210 N209 1.358 . S
C210 H216 0.930 1_455 S
C211 N209 1.400 . S
C211 C212 1.351 . S
C211 H228 0.930 . S
C212 N208 1.389 . S
C212 C211 1.351 . S
C212 H217 0.930 . S
O213 Cu207 1.974 . S
O213 C223 1.282 . S
C214 O215 1.261 . S
C214 O227 1.251 . S
O215 C214 1.261 . S
H216 C210 0.930 1_655 S
H217 C212 0.930 . S
N218 Cu207 1.985 . S
N218 C220 1.335 . S
N218 C221 1.390 . S
N219 C220 1.345 . S
N219 C222 1.336 . S
C220 N218 1.335 . S
C220 N219 1.345 . S
C220 H225 0.930 . S
C221 N218 1.390 . S
C221 C222 1.346 . S
C221 H226 0.930 . S
C222 N219 1.336 . S
C222 C221 1.346 . S
C222 H229 0.929 . S
C223 O213 1.282 . S
C223 O224 1.216 . S
O224 C223 1.216 . S
H225 C220 0.930 . S
H226 C221 0.930 . S
O227 Cu207 1.959 . S
O227 C214 1.251 . S
H228 C211 0.930 . S
H229 C222 0.929 . S
Cu230 N231 1.999 1_545 S
Cu230 O236 1.974 . S
Cu230 N241 1.985 . S
Cu230 O250 1.959 . S
N231 Cu230 1.999 1_565 S
N231 C233 1.263 . S
N231 C235 1.389 . S
N232 C233 1.358 . S
N232 C234 1.400 . S
C233 N231 1.263 . S
C233 N232 1.358 . S
C233 H239 0.930 1_565 S
C234 N232 1.400 . S
C234 C235 1.351 . S
C234 H251 0.930 . S
C235 N231 1.389 . S
C235 C234 1.351 . S
C235 H240 0.930 . S
O236 Cu230 1.974 . S
O236 C246 1.282 . S
C237 O238 1.261 . S
C237 O250 1.251 . S
O238 C237 1.261 . S
H239 C233 0.930 1_545 S
H240 C235 0.930 . S
N241 Cu230 1.985 . S
N241 C243 1.335 . S
N241 C244 1.390 . S
N242 C243 1.345 . S
N242 C245 1.336 . S
C243 N241 1.335 . S
C243 N242 1.345 . S
C243 H248 0.930 . S
C244 N241 1.390 . S
C244 C245 1.346 . S
C244 H249 0.930 . S
C245 N242 1.336 . S
C245 C244 1.346 . S
C245 H252 0.929 . S
C246 O236 1.282 . S
C246 O247 1.216 . S
O247 C246 1.216 . S
H248 C243 0.930 . S
H249 C244 0.930 . S
O250 Cu230 1.959 . S
O250 C237 1.251 . S
H251 C234 0.930 . S
H252 C245 0.929 . S
Cu253 N254 1.999 1_455 S
Cu253 O259 1.974 . S
Cu253 N264 1.985 . S
Cu253 O273 1.959 . S
N254 Cu253 1.999 1_655 S
N254 C256 1.263 . S
N254 C258 1.389 . S
N255 C256 1.358 . S
N255 C257 1.400 . S
C256 N254 1.263 . S
C256 N255 1.358 . S
C256 H262 0.930 1_655 S
C257 N255 1.400 . S
C257 C258 1.351 . S
C257 H274 0.930 . S
C258 N254 1.389 . S
C258 C257 1.351 . S
C258 H263 0.930 . S
O259 Cu253 1.974 . S
O259 C269 1.282 . S
C260 O261 1.261 . S
C260 O273 1.251 . S
O261 C260 1.261 . S
H262 C256 0.930 1_455 S
H263 C258 0.930 . S
N264 Cu253 1.985 . S
N264 C266 1.335 . S
N264 C267 1.390 . S
N265 C266 1.345 . S
N265 C268 1.336 . S
C266 N264 1.335 . S
C266 N265 1.345 . S
C266 H271 0.930 . S
C267 N264 1.390 . S
C267 C268 1.346 . S
C267 H272 0.930 . S
C268 N265 1.336 . S
C268 C267 1.346 . S
C268 H275 0.929 . S
C269 O259 1.282 . S
C269 O270 1.216 . S
O270 C269 1.216 . S
H271 C266 0.930 . S
H272 C267 0.930 . S
O273 Cu253 1.959 . S
O273 C260 1.251 . S
H274 C257 0.930 . S
H275 C268 0.929 . S
Cu276 N277 1.999 1_545 S
Cu276 O282 1.974 . S
Cu276 N287 1.985 . S
Cu276 O296 1.959 . S
N277 Cu276 1.999 1_565 S
N277 C279 1.263 . S
N277 C281 1.389 . S
N278 C279 1.358 . S
N278 C280 1.400 . S
C279 N277 1.263 . S
C279 N278 1.358 . S
C279 H285 0.930 1_565 S
C280 N278 1.400 . S
C280 C281 1.351 . S
C280 H297 0.930 . S
C281 N277 1.389 . S
C281 C280 1.351 . S
C281 H286 0.930 . S
O282 Cu276 1.974 . S
O282 C292 1.282 . S
C283 O284 1.261 . S
C283 O296 1.251 . S
O284 C283 1.261 . S
H285 C279 0.930 1_545 S
H286 C281 0.930 . S
N287 Cu276 1.985 . S
N287 C289 1.335 . S
N287 C290 1.390 . S
N288 C289 1.345 . S
N288 C291 1.336 . S
C289 N287 1.335 . S
C289 N288 1.345 . S
C289 H294 0.930 . S
C290 N287 1.390 . S
C290 C291 1.346 . S
C290 H295 0.930 . S
C291 N288 1.336 . S
C291 C290 1.346 . S
C291 H298 0.929 . S
C292 O282 1.282 . S
C292 O293 1.216 . S
O293 C292 1.216 . S
H294 C289 0.930 . S
H295 C290 0.930 . S
O296 Cu276 1.959 . S
O296 C283 1.251 . S
H297 C280 0.930 . S
H298 C291 0.929 . S
Cu299 N300 1.999 1_455 S
Cu299 O305 1.974 . S
Cu299 N310 1.985 . S
Cu299 O319 1.959 . S
N300 Cu299 1.999 1_655 S
N300 C302 1.263 . S
N300 C304 1.389 . S
N301 C302 1.358 . S
N301 C303 1.400 . S
C302 N300 1.263 . S
C302 N301 1.358 . S
C302 H308 0.930 1_655 S
C303 N301 1.400 . S
C303 C304 1.351 . S
C303 H320 0.930 . S
C304 N300 1.389 . S
C304 C303 1.351 . S
C304 H309 0.930 . S
O305 Cu299 1.974 . S
O305 C315 1.282 . S
C306 O307 1.261 . S
C306 O319 1.251 . S
O307 C306 1.261 . S
H308 C302 0.930 1_455 S
H309 C304 0.930 . S
N310 Cu299 1.985 . S
N310 C312 1.335 . S
N310 C313 1.390 . S
N311 C312 1.345 . S
N311 C314 1.336 . S
C312 N310 1.335 . S
C312 N311 1.345 . S
C312 H317 0.930 . S
C313 N310 1.390 . S
C313 C314 1.346 . S
C313 H318 0.930 . S
C314 N311 1.336 . S
C314 C313 1.346 . S
C314 H321 0.929 . S
C315 O305 1.282 . S
C315 O316 1.216 . S
O316 C315 1.216 . S
H317 C312 0.930 . S
H318 C313 0.930 . S
O319 Cu299 1.959 . S
O319 C306 1.251 . S
H320 C303 0.930 . S
H321 C314 0.929 . S
Cu322 N323 1.999 1_565 S
Cu322 O328 1.974 . S
Cu322 N333 1.985 . S
Cu322 O342 1.959 . S
N323 Cu322 1.999 1_545 S
N323 C325 1.263 . S
N323 C327 1.389 . S
N324 C325 1.358 . S
N324 C326 1.400 . S
C325 N323 1.263 . S
C325 N324 1.358 . S
C325 H331 0.930 1_545 S
C326 N324 1.400 . S
C326 C327 1.351 . S
C326 H343 0.930 . S
C327 N323 1.389 . S
C327 C326 1.351 . S
C327 H332 0.930 . S
O328 Cu322 1.974 . S
O328 C338 1.282 . S
C329 O330 1.261 . S
C329 O342 1.251 . S
O330 C329 1.261 . S
H331 C325 0.930 1_565 S
H332 C327 0.930 . S
N333 Cu322 1.985 . S
N333 C335 1.335 . S
N333 C336 1.390 . S
N334 C335 1.345 . S
N334 C337 1.336 . S
C335 N333 1.335 . S
C335 N334 1.345 . S
C335 H340 0.930 . S
C336 N333 1.390 . S
C336 C337 1.346 . S
C336 H341 0.930 . S
C337 N334 1.336 . S
C337 C336 1.346 . S
C337 H344 0.929 . S
C338 O328 1.282 . S
C338 O339 1.216 . S
O339 C338 1.216 . S
H340 C335 0.930 . S
H341 C336 0.930 . S
O342 Cu322 1.959 . S
O342 C329 1.251 . S
H343 C326 0.930 . S
H344 C337 0.929 . S
Cu345 N346 1.999 1_655 S
Cu345 O351 1.974 . S
Cu345 N356 1.985 . S
Cu345 O365 1.959 . S
N346 Cu345 1.999 1_455 S
N346 C348 1.263 . S
N346 C350 1.389 . S
N347 C348 1.358 . S
N347 C349 1.400 . S
C348 N346 1.263 . S
C348 N347 1.358 . S
C348 H354 0.930 1_455 S
C349 N347 1.400 . S
C349 C350 1.351 . S
C349 H366 0.930 . S
C350 N346 1.389 . S
C350 C349 1.351 . S
C350 H355 0.930 . S
O351 Cu345 1.974 . S
O351 C361 1.282 . S
C352 O353 1.261 . S
C352 O365 1.251 . S
O353 C352 1.261 . S
H354 C348 0.930 1_655 S
H355 C350 0.930 . S
N356 Cu345 1.985 . S
N356 C358 1.335 . S
N356 C359 1.390 . S
N357 C358 1.345 . S
N357 C360 1.336 . S
C358 N356 1.335 . S
C358 N357 1.345 . S
C358 H363 0.930 . S
C359 N356 1.390 . S
C359 C360 1.346 . S
C359 H364 0.930 . S
C360 N357 1.336 . S
C360 C359 1.346 . S
C360 H367 0.929 . S
C361 O351 1.282 . S
C361 O362 1.216 . S
O362 C361 1.216 . S
H363 C358 0.930 . S
H364 C359 0.930 . S
O365 Cu345 1.959 . S
O365 C352 1.251 . S
H366 C349 0.930 . S
H367 C360 0.929 . S
H368 C374 0.930 . S
H369 C378 0.930 . S
H370 C383 0.929 . S
H371 C381 0.929 . S
H372 C376 0.929 . S
H373 C382 0.929 . S
C374 H368 0.930 . S
C374 C375 1.367 . S
C374 C382 1.378 . S
C375 C374 1.367 . S
C375 C383 1.433 . S
C376 H372 0.929 . S
C376 C378 1.378 . S
C376 C380 1.350 . S
C377 C380 1.463 . S
C377 C382 1.350 . S
C377 N385 1.427 . S
C378 H369 0.930 . S
C378 C376 1.378 . S
C378 C379 1.367 . S
C379 C378 1.367 . S
C379 C381 1.433 . S
C380 C376 1.350 . S
C380 C377 1.463 . S
C380 N384 1.427 . S
C381 H371 0.929 . S
C381 C379 1.433 . S
C381 N384 1.384 . S
C382 H373 0.929 . S
C382 C374 1.378 . S
C382 C377 1.350 . S
C383 H370 0.929 . S
C383 C375 1.433 . S
C383 N385 1.384 . S
N384 C380 1.427 . S
N384 C381 1.384 . S
N385 C377 1.427 . S
N385 C383 1.384 . S
H386 C392 0.930 . S
H387 C396 0.930 . S
H388 C401 0.929 . S
H389 C399 0.929 . S
H390 C394 0.929 . S
H391 C400 0.929 . S
C392 H386 0.930 . S
C392 C393 1.367 . S
C392 C400 1.378 . S
C393 C392 1.367 . S
C393 C401 1.433 . S
C394 H390 0.929 . S
C394 C396 1.378 . S
C394 C398 1.350 . S
C395 C398 1.463 . S
C395 C400 1.350 . S
C395 N403 1.427 . S
C396 H387 0.930 . S
C396 C394 1.378 . S
C396 C397 1.367 . S
C397 C396 1.367 . S
C397 C399 1.433 . S
C398 C394 1.350 . S
C398 C395 1.463 . S
C398 N402 1.427 . S
C399 H389 0.929 . S
C399 C397 1.433 . S
C399 N402 1.384 . S
C400 H391 0.929 . S
C400 C392 1.378 . S
C400 C395 1.350 . S
C401 H388 0.929 . S
C401 C393 1.433 . S
C401 N403 1.384 . S
N402 C398 1.427 . S
N402 C399 1.384 . S
N403 C395 1.427 . S
N403 C401 1.384 . S
H404 C410 0.930 . S
H405 C414 0.930 . S
H406 C419 0.929 . S
H407 C417 0.929 . S
H408 C412 0.929 . S
H409 C418 0.929 . S
C410 H404 0.930 . S
C410 C411 1.367 . S
C410 C418 1.378 . S
C411 C410 1.367 . S
C411 C419 1.433 . S
C412 H408 0.929 . S
C412 C414 1.378 . S
C412 C416 1.350 . S
C413 C416 1.463 . S
C413 C418 1.350 . S
C413 N421 1.427 . S
C414 H405 0.930 . S
C414 C412 1.378 . S
C414 C415 1.367 . S
C415 C414 1.367 . S
C415 C417 1.433 . S
C416 C412 1.350 . S
C416 C413 1.463 . S
C416 N420 1.427 . S
C417 H407 0.929 . S
C417 C415 1.433 . S
C417 N420 1.384 . S
C418 H409 0.929 . S
C418 C410 1.378 . S
C418 C413 1.350 . S
C419 H406 0.929 . S
C419 C411 1.433 . S
C419 N421 1.384 . S
N420 C416 1.427 . S
N420 C417 1.384 . S
N421 C413 1.427 . S
N421 C419 1.384 . S
H422 C428 0.930 . S
H423 C432 0.930 . S
H424 C437 0.929 . S
H425 C435 0.929 . S
H426 C430 0.929 . S
H427 C436 0.929 . S
C428 H422 0.930 . S
C428 C429 1.367 . S
C428 C436 1.378 . S
C429 C428 1.367 . S
C429 C437 1.433 . S
C430 H426 0.929 . S
C430 C432 1.378 . S
C430 C434 1.350 . S
C431 C434 1.463 . S
C431 C436 1.350 . S
C431 N439 1.427 . S
C432 H423 0.930 . S
C432 C430 1.378 . S
C432 C433 1.367 . S
C433 C432 1.367 . S
C433 C435 1.433 . S
C434 C430 1.350 . S
C434 C431 1.463 . S
C434 N438 1.427 . S
C435 H425 0.929 . S
C435 C433 1.433 . S
C435 N438 1.384 . S
C436 H427 0.929 . S
C436 C428 1.378 . S
C436 C431 1.350 . S
C437 H424 0.929 . S
C437 C429 1.433 . S
C437 N439 1.384 . S
N438 C434 1.427 . S
N438 C435 1.384 . S
N439 C431 1.427 . S
N439 C437 1.384 . S
H440 C446 0.930 . S
H441 C450 0.930 . S
H442 C455 0.929 . S
H443 C453 0.929 . S
H444 C448 0.929 . S
H445 C454 0.929 . S
C446 H440 0.930 . S
C446 C447 1.367 . S
C446 C454 1.378 . S
C447 C446 1.367 . S
C447 C455 1.433 . S
C448 H444 0.929 . S
C448 C450 1.378 . S
C448 C452 1.350 . S
C449 C452 1.463 . S
C449 C454 1.350 . S
C449 N457 1.427 . S
C450 H441 0.930 . S
C450 C448 1.378 . S
C450 C451 1.367 . S
C451 C450 1.367 . S
C451 C453 1.433 . S
C452 C448 1.350 . S
C452 C449 1.463 . S
C452 N456 1.427 . S
C453 H443 0.929 . S
C453 C451 1.433 . S
C453 N456 1.384 . S
C454 H445 0.929 . S
C454 C446 1.378 . S
C454 C449 1.350 . S
C455 H442 0.929 . S
C455 C447 1.433 . S
C455 N457 1.384 . S
N456 C452 1.427 . S
N456 C453 1.384 . S
N457 C449 1.427 . S
N457 C455 1.384 . S
H458 C464 0.930 . S
H459 C468 0.930 . S
H460 C473 0.929 . S
H461 C471 0.929 . S
H462 C466 0.929 . S
H463 C472 0.929 . S
C464 H458 0.930 . S
C464 C465 1.367 . S
C464 C472 1.378 . S
C465 C464 1.367 . S
C465 C473 1.433 . S
C466 H462 0.929 . S
C466 C468 1.378 . S
C466 C470 1.350 . S
C467 C470 1.463 . S
C467 C472 1.350 . S
C467 N475 1.427 . S
C468 H459 0.930 . S
C468 C466 1.378 . S
C468 C469 1.367 . S
C469 C468 1.367 . S
C469 C471 1.433 . S
C470 C466 1.350 . S
C470 C467 1.463 . S
C470 N474 1.427 . S
C471 H461 0.929 . S
C471 C469 1.433 . S
C471 N474 1.384 . S
C472 H463 0.929 . S
C472 C464 1.378 . S
C472 C467 1.350 . S
C473 H460 0.929 . S
C473 C465 1.433 . S
C473 N475 1.384 . S
N474 C470 1.427 . S
N474 C471 1.384 . S
N475 C467 1.427 . S
N475 C473 1.384 . S
H476 C482 0.930 . S
H477 C486 0.930 . S
H478 C491 0.929 . S
H479 C489 0.929 . S
H480 C484 0.929 . S
H481 C490 0.929 . S
C482 H476 0.930 . S
C482 C483 1.367 . S
C482 C490 1.378 . S
C483 C482 1.367 . S
C483 C491 1.433 . S
C484 H480 0.929 . S
C484 C486 1.378 . S
C484 C488 1.350 . S
C485 C488 1.463 . S
C485 C490 1.350 . S
C485 N493 1.427 . S
C486 H477 0.930 . S
C486 C484 1.378 . S
C486 C487 1.367 . S
C487 C486 1.367 . S
C487 C489 1.433 . S
C488 C484 1.350 . S
C488 C485 1.463 . S
C488 N492 1.427 . S
C489 H479 0.929 . S
C489 C487 1.433 . S
C489 N492 1.384 . S
C490 H481 0.929 . S
C490 C482 1.378 . S
C490 C485 1.350 . S
C491 H478 0.929 . S
C491 C483 1.433 . S
C491 N493 1.384 . S
N492 C488 1.427 . S
N492 C489 1.384 . S
N493 C485 1.427 . S
N493 C491 1.384 . S
H494 C500 0.930 . S
H495 C504 0.930 . S
H496 C509 0.929 . S
H497 C507 0.929 . S
H498 C502 0.929 . S
H499 C508 0.929 . S
C500 H494 0.930 . S
C500 C501 1.367 . S
C500 C508 1.378 . S
C501 C500 1.367 . S
C501 C509 1.433 . S
C502 H498 0.929 . S
C502 C504 1.378 . S
C502 C506 1.350 . S
C503 C506 1.463 . S
C503 C508 1.350 . S
C503 N511 1.427 . S
C504 H495 0.930 . S
C504 C502 1.378 . S
C504 C505 1.367 . S
C505 C504 1.367 . S
C505 C507 1.433 . S
C506 C502 1.350 . S
C506 C503 1.463 . S
C506 N510 1.427 . S
C507 H497 0.929 . S
C507 C505 1.433 . S
C507 N510 1.384 . S
C508 H499 0.929 . S
C508 C500 1.378 . S
C508 C503 1.350 . S
C509 H496 0.929 . S
C509 C501 1.433 . S
C509 N511 1.384 . S
N510 C506 1.427 . S
N510 C507 1.384 . S
N511 C503 1.427 . S
N511 C509 1.384 . S
H512 C518 0.930 . S
H513 C522 0.930 . S
H514 C527 0.929 . S
H515 C525 0.929 . S
H516 C520 0.929 . S
H517 C526 0.929 . S
C518 H512 0.930 . S
C518 C519 1.367 . S
C518 C526 1.378 . S
C519 C518 1.367 . S
C519 C527 1.433 . S
C520 H516 0.929 . S
C520 C522 1.378 . S
C520 C524 1.350 . S
C521 C524 1.463 . S
C521 C526 1.350 . S
C521 N529 1.427 . S
C522 H513 0.930 . S
C522 C520 1.378 . S
C522 C523 1.367 . S
C523 C522 1.367 . S
C523 C525 1.433 . S
C524 C520 1.350 . S
C524 C521 1.463 . S
C524 N528 1.427 . S
C525 H515 0.929 . S
C525 C523 1.433 . S
C525 N528 1.384 . S
C526 H517 0.929 . S
C526 C518 1.378 . S
C526 C521 1.350 . S
C527 H514 0.929 . S
C527 C519 1.433 . S
C527 N529 1.384 . S
N528 C524 1.427 . S
N528 C525 1.384 . S
N529 C521 1.427 . S
N529 C527 1.384 . S
H530 C536 0.930 . S
H531 C540 0.930 . S
H532 C545 0.929 . S
H533 C543 0.929 . S
H534 C538 0.929 . S
H535 C544 0.929 . S
C536 H530 0.930 . S
C536 C537 1.367 . S
C536 C544 1.378 . S
C537 C536 1.367 . S
C537 C545 1.433 . S
C538 H534 0.929 . S
C538 C540 1.378 . S
C538 C542 1.350 . S
C539 C542 1.463 . S
C539 C544 1.350 . S
C539 N547 1.427 . S
C540 H531 0.930 . S
C540 C538 1.378 . S
C540 C541 1.367 . S
C541 C540 1.367 . S
C541 C543 1.433 . S
C542 C538 1.350 . S
C542 C539 1.463 . S
C542 N546 1.427 . S
C543 H533 0.929 . S
C543 C541 1.433 . S
C543 N546 1.384 . S
C544 H535 0.929 . S
C544 C536 1.378 . S
C544 C539 1.350 . S
C545 H532 0.929 . S
C545 C537 1.433 . S
C545 N547 1.384 . S
N546 C542 1.427 . S
N546 C543 1.384 . S
N547 C539 1.427 . S
N547 C545 1.384 . S
H548 C554 0.930 . S
H549 C558 0.930 . S
H550 C563 0.929 . S
H551 C561 0.929 . S
H552 C556 0.929 . S
H553 C562 0.929 . S
C554 H548 0.930 . S
C554 C555 1.367 . S
C554 C562 1.378 . S
C555 C554 1.367 . S
C555 C563 1.433 . S
C556 H552 0.929 . S
C556 C558 1.378 . S
C556 C560 1.350 . S
C557 C560 1.463 . S
C557 C562 1.350 . S
C557 N565 1.427 . S
C558 H549 0.930 . S
C558 C556 1.378 . S
C558 C559 1.367 . S
C559 C558 1.367 . S
C559 C561 1.433 . S
C560 C556 1.350 . S
C560 C557 1.463 . S
C560 N564 1.427 . S
C561 H551 0.929 . S
C561 C559 1.433 . S
C561 N564 1.384 . S
C562 H553 0.929 . S
C562 C554 1.378 . S
C562 C557 1.350 . S
C563 H550 0.929 . S
C563 C555 1.433 . S
C563 N565 1.384 . S
N564 C560 1.427 . S
N564 C561 1.384 . S
N565 C557 1.427 . S
N565 C563 1.384 . S
H566 C572 0.930 . S
H567 C576 0.930 . S
H568 C581 0.929 . S
H569 C579 0.929 . S
H570 C574 0.929 . S
H571 C580 0.929 . S
C572 H566 0.930 . S
C572 C573 1.367 . S
C572 C580 1.378 . S
C573 C572 1.367 . S
C573 C581 1.433 . S
C574 H570 0.929 . S
C574 C576 1.378 . S
C574 C578 1.350 . S
C575 C578 1.463 . S
C575 C580 1.350 . S
C575 N583 1.427 . S
C576 H567 0.930 . S
C576 C574 1.378 . S
C576 C577 1.367 . S
C577 C576 1.367 . S
C577 C579 1.433 . S
C578 C574 1.350 . S
C578 C575 1.463 . S
C578 N582 1.427 . S
C579 H569 0.929 . S
C579 C577 1.433 . S
C579 N582 1.384 . S
C580 H571 0.929 . S
C580 C572 1.378 . S
C580 C575 1.350 . S
C581 H568 0.929 . S
C581 C573 1.433 . S
C581 N583 1.384 . S
N582 C578 1.427 . S
N582 C579 1.384 . S
N583 C575 1.427 . S
N583 C581 1.384 . S
H584 C590 0.930 . S
H585 C594 0.930 . S
H586 C599 0.929 . S
H587 C597 0.929 . S
H588 C592 0.929 . S
H589 C598 0.929 . S
C590 H584 0.930 . S
C590 C591 1.367 . S
C590 C598 1.378 . S
C591 C590 1.367 . S
C591 C599 1.433 . S
C592 H588 0.929 . S
C592 C594 1.378 . S
C592 C596 1.350 . S
C593 C596 1.463 . S
C593 C598 1.350 . S
C593 N601 1.427 . S
C594 H585 0.930 . S
C594 C592 1.378 . S
C594 C595 1.367 . S
C595 C594 1.367 . S
C595 C597 1.433 . S
C596 C592 1.350 . S
C596 C593 1.463 . S
C596 N600 1.427 . S
C597 H587 0.929 . S
C597 C595 1.433 . S
C597 N600 1.384 . S
C598 H589 0.929 . S
C598 C590 1.378 . S
C598 C593 1.350 . S
C599 H586 0.929 . S
C599 C591 1.433 . S
C599 N601 1.384 . S
N600 C596 1.427 . S
N600 C597 1.384 . S
N601 C593 1.427 . S
N601 C599 1.384 . S
H602 C608 0.930 . S
H603 C612 0.930 . S
H604 C617 0.929 . S
H605 C615 0.929 . S
H606 C610 0.929 . S
H607 C616 0.929 . S
C608 H602 0.930 . S
C608 C609 1.367 . S
C608 C616 1.378 . S
C609 C608 1.367 . S
C609 C617 1.433 . S
C610 H606 0.929 . S
C610 C612 1.378 . S
C610 C614 1.350 . S
C611 C614 1.463 . S
C611 C616 1.350 . S
C611 N619 1.427 . S
C612 H603 0.930 . S
C612 C610 1.378 . S
C612 C613 1.367 . S
C613 C612 1.367 . S
C613 C615 1.433 . S
C614 C610 1.350 . S
C614 C611 1.463 . S
C614 N618 1.427 . S
C615 H605 0.929 . S
C615 C613 1.433 . S
C615 N618 1.384 . S
C616 H607 0.929 . S
C616 C608 1.378 . S
C616 C611 1.350 . S
C617 H604 0.929 . S
C617 C609 1.433 . S
C617 N619 1.384 . S
N618 C614 1.427 . S
N618 C615 1.384 . S
N619 C611 1.427 . S
N619 C617 1.384 . S
H620 C626 0.930 . S
H621 C630 0.930 . S
H622 C635 0.929 . S
H623 C633 0.929 . S
H624 C628 0.929 . S
H625 C634 0.929 . S
C626 H620 0.930 . S
C626 C627 1.367 . S
C626 C634 1.378 . S
C627 C626 1.367 . S
C627 C635 1.433 . S
C628 H624 0.929 . S
C628 C630 1.378 . S
C628 C632 1.350 . S
C629 C632 1.463 . S
C629 C634 1.350 . S
C629 N637 1.427 . S
C630 H621 0.930 . S
C630 C628 1.378 . S
C630 C631 1.367 . S
C631 C630 1.367 . S
C631 C633 1.433 . S
C632 C628 1.350 . S
C632 C629 1.463 . S
C632 N636 1.427 . S
C633 H623 0.929 . S
C633 C631 1.433 . S
C633 N636 1.384 . S
C634 H625 0.929 . S
C634 C626 1.378 . S
C634 C629 1.350 . S
C635 H622 0.929 . S
C635 C627 1.433 . S
C635 N637 1.384 . S
N636 C632 1.427 . S
N636 C633 1.384 . S
N637 C629 1.427 . S
N637 C635 1.384 . S
H638 C644 0.930 . S
H639 C648 0.930 . S
H640 C653 0.929 . S
H641 C651 0.929 . S
H642 C646 0.929 . S
H643 C652 0.929 . S
C644 H638 0.930 . S
C644 C645 1.367 . S
C644 C652 1.378 . S
C645 C644 1.367 . S
C645 C653 1.433 . S
C646 H642 0.929 . S
C646 C648 1.378 . S
C646 C650 1.350 . S
C647 C650 1.463 . S
C647 C652 1.350 . S
C647 N655 1.427 . S
C648 H639 0.930 . S
C648 C646 1.378 . S
C648 C649 1.367 . S
C649 C648 1.367 . S
C649 C651 1.433 . S
C650 C646 1.350 . S
C650 C647 1.463 . S
C650 N654 1.427 . S
C651 H641 0.929 . S
C651 C649 1.433 . S
C651 N654 1.384 . S
C652 H643 0.929 . S
C652 C644 1.378 . S
C652 C647 1.350 . S
C653 H640 0.929 . S
C653 C645 1.433 . S
C653 N655 1.384 . S
N654 C650 1.427 . S
N654 C651 1.384 . S
N655 C647 1.427 . S
N655 C653 1.384 . S
H656 C662 0.930 . S
H657 C666 0.930 . S
H658 C671 0.929 . S
H659 C669 0.929 . S
H660 C664 0.929 . S
H661 C670 0.929 . S
C662 H656 0.930 . S
C662 C663 1.367 . S
C662 C670 1.378 . S
C663 C662 1.367 . S
C663 C671 1.433 . S
C664 H660 0.929 . S
C664 C666 1.378 . S
C664 C668 1.350 . S
C665 C668 1.463 . S
C665 C670 1.350 . S
C665 N673 1.427 . S
C666 H657 0.930 . S
C666 C664 1.378 . S
C666 C667 1.367 . S
C667 C666 1.367 . S
C667 C669 1.433 . S
C668 C664 1.350 . S
C668 C665 1.463 . S
C668 N672 1.427 . S
C669 H659 0.929 . S
C669 C667 1.433 . S
C669 N672 1.384 . S
C670 H661 0.929 . S
C670 C662 1.378 . S
C670 C665 1.350 . S
C671 H658 0.929 . S
C671 C663 1.433 . S
C671 N673 1.384 . S
N672 C668 1.427 . S
N672 C669 1.384 . S
N673 C665 1.427 . S
N673 C671 1.384 . S
H674 C680 0.930 . S
H675 C684 0.930 . S
H676 C689 0.929 . S
H677 C687 0.929 . S
H678 C682 0.929 . S
H679 C688 0.929 . S
C680 H674 0.930 . S
C680 C681 1.367 . S
C680 C688 1.378 . S
C681 C680 1.367 . S
C681 C689 1.433 . S
C682 H678 0.929 . S
C682 C684 1.378 . S
C682 C686 1.350 . S
C683 C686 1.463 . S
C683 C688 1.350 . S
C683 N691 1.427 . S
C684 H675 0.930 . S
C684 C682 1.378 . S
C684 C685 1.367 . S
C685 C684 1.367 . S
C685 C687 1.433 . S
C686 C682 1.350 . S
C686 C683 1.463 . S
C686 N690 1.427 . S
C687 H677 0.929 . S
C687 C685 1.433 . S
C687 N690 1.384 . S
C688 H679 0.929 . S
C688 C680 1.378 . S
C688 C683 1.350 . S
C689 H676 0.929 . S
C689 C681 1.433 . S
C689 N691 1.384 . S
N690 C686 1.427 . S
N690 C687 1.384 . S
N691 C683 1.427 . S
N691 C689 1.384 . S
H692 C698 0.930 . S
H693 C702 0.930 . S
H694 C707 0.929 . S
H695 C705 0.929 . S
H696 C700 0.929 . S
H697 C706 0.929 . S
C698 H692 0.930 . S
C698 C699 1.367 . S
C698 C706 1.378 . S
C699 C698 1.367 . S
C699 C707 1.433 . S
C700 H696 0.929 . S
C700 C702 1.378 . S
C700 C704 1.350 . S
C701 C704 1.463 . S
C701 C706 1.350 . S
C701 N709 1.427 . S
C702 H693 0.930 . S
C702 C700 1.378 . S
C702 C703 1.367 . S
C703 C702 1.367 . S
C703 C705 1.433 . S
C704 C700 1.350 . S
C704 C701 1.463 . S
C704 N708 1.427 . S
C705 H695 0.929 . S
C705 C703 1.433 . S
C705 N708 1.384 . S
C706 H697 0.929 . S
C706 C698 1.378 . S
C706 C701 1.350 . S
C707 H694 0.929 . S
C707 C699 1.433 . S
C707 N709 1.384 . S
N708 C704 1.427 . S
N708 C705 1.384 . S
N709 C701 1.427 . S
N709 C707 1.384 . S
H710 C716 0.930 . S
H711 C720 0.930 . S
H712 C725 0.929 . S
H713 C723 0.929 . S
H714 C718 0.929 . S
H715 C724 0.929 . S
C716 H710 0.930 . S
C716 C717 1.367 . S
C716 C724 1.378 . S
C717 C716 1.367 . S
C717 C725 1.433 . S
C718 H714 0.929 . S
C718 C720 1.378 . S
C718 C722 1.350 . S
C719 C722 1.463 . S
C719 C724 1.350 . S
C719 N727 1.427 . S
C720 H711 0.930 . S
C720 C718 1.378 . S
C720 C721 1.367 . S
C721 C720 1.367 . S
C721 C723 1.433 . S
C722 C718 1.350 . S
C722 C719 1.463 . S
C722 N726 1.427 . S
C723 H713 0.929 . S
C723 C721 1.433 . S
C723 N726 1.384 . S
C724 H715 0.929 . S
C724 C716 1.378 . S
C724 C719 1.350 . S
C725 H712 0.929 . S
C725 C717 1.433 . S
C725 N727 1.384 . S
N726 C722 1.427 . S
N726 C723 1.384 . S
N727 C719 1.427 . S
N727 C725 1.384 . S
H728 C734 0.930 . S
H729 C738 0.930 . S
H730 C743 0.929 . S
H731 C741 0.929 . S
H732 C736 0.929 . S
H733 C742 0.929 . S
C734 H728 0.930 . S
C734 C735 1.367 . S
C734 C742 1.378 . S
C735 C734 1.367 . S
C735 C743 1.433 . S
C736 H732 0.929 . S
C736 C738 1.378 . S
C736 C740 1.350 . S
C737 C740 1.463 . S
C737 C742 1.350 . S
C737 N745 1.427 . S
C738 H729 0.930 . S
C738 C736 1.378 . S
C738 C739 1.367 . S
C739 C738 1.367 . S
C739 C741 1.433 . S
C740 C736 1.350 . S
C740 C737 1.463 . S
C740 N744 1.427 . S
C741 H731 0.929 . S
C741 C739 1.433 . S
C741 N744 1.384 . S
C742 H733 0.929 . S
C742 C734 1.378 . S
C742 C737 1.350 . S
C743 H730 0.929 . S
C743 C735 1.433 . S
C743 N745 1.384 . S
N744 C740 1.427 . S
N744 C741 1.384 . S
N745 C737 1.427 . S
N745 C743 1.384 . S
H746 C752 0.930 . S
H747 C756 0.930 . S
H748 C761 0.929 . S
H749 C759 0.929 . S
H750 C754 0.929 . S
H751 C760 0.929 . S
C752 H746 0.930 . S
C752 C753 1.367 . S
C752 C760 1.378 . S
C753 C752 1.367 . S
C753 C761 1.433 . S
C754 H750 0.929 . S
C754 C756 1.378 . S
C754 C758 1.350 . S
C755 C758 1.463 . S
C755 C760 1.350 . S
C755 N763 1.427 . S
C756 H747 0.930 . S
C756 C754 1.378 . S
C756 C757 1.367 . S
C757 C756 1.367 . S
C757 C759 1.433 . S
C758 C754 1.350 . S
C758 C755 1.463 . S
C758 N762 1.427 . S
C759 H749 0.929 . S
C759 C757 1.433 . S
C759 N762 1.384 . S
C760 H751 0.929 . S
C760 C752 1.378 . S
C760 C755 1.350 . S
C761 H748 0.929 . S
C761 C753 1.433 . S
C761 N763 1.384 . S
N762 C758 1.427 . S
N762 C759 1.384 . S
N763 C755 1.427 . S
N763 C761 1.384 . S
H764 C770 0.930 . S
H765 C774 0.930 . S
H766 C779 0.929 . S
H767 C777 0.929 . S
H768 C772 0.929 . S
H769 C778 0.929 . S
C770 H764 0.930 . S
C770 C771 1.367 . S
C770 C778 1.378 . S
C771 C770 1.367 . S
C771 C779 1.433 . S
C772 H768 0.929 . S
C772 C774 1.378 . S
C772 C776 1.350 . S
C773 C776 1.463 . S
C773 C778 1.350 . S
C773 N781 1.427 . S
C774 H765 0.930 . S
C774 C772 1.378 . S
C774 C775 1.367 . S
C775 C774 1.367 . S
C775 C777 1.433 . S
C776 C772 1.350 . S
C776 C773 1.463 . S
C776 N780 1.427 . S
C777 H767 0.929 . S
C777 C775 1.433 . S
C777 N780 1.384 . S
C778 H769 0.929 . S
C778 C770 1.378 . S
C778 C773 1.350 . S
C779 H766 0.929 . S
C779 C771 1.433 . S
C779 N781 1.384 . S
N780 C776 1.427 . S
N780 C777 1.384 . S
N781 C773 1.427 . S
N781 C779 1.384 . S
H782 C788 0.930 . S
H783 C792 0.930 . S
H784 C797 0.929 . S
H785 C795 0.929 . S
H786 C790 0.929 . S
H787 C796 0.929 . S
C788 H782 0.930 . S
C788 C789 1.367 . S
C788 C796 1.378 . S
C789 C788 1.367 . S
C789 C797 1.433 . S
C790 H786 0.929 . S
C790 C792 1.378 . S
C790 C794 1.350 . S
C791 C794 1.463 . S
C791 C796 1.350 . S
C791 N799 1.427 . S
C792 H783 0.930 . S
C792 C790 1.378 . S
C792 C793 1.367 . S
C793 C792 1.367 . S
C793 C795 1.433 . S
C794 C790 1.350 . S
C794 C791 1.463 . S
C794 N798 1.427 . S
C795 H785 0.929 . S
C795 C793 1.433 . S
C795 N798 1.384 . S
C796 H787 0.929 . S
C796 C788 1.378 . S
C796 C791 1.350 . S
C797 H784 0.929 . S
C797 C789 1.433 . S
C797 N799 1.384 . S
N798 C794 1.427 . S
N798 C795 1.384 . S
N799 C791 1.427 . S
N799 C797 1.384 . S
H800 C806 0.930 . S
H801 C810 0.930 . S
H802 C815 0.929 . S
H803 C813 0.929 . S
H804 C808 0.929 . S
H805 C814 0.929 . S
C806 H800 0.930 . S
C806 C807 1.367 . S
C806 C814 1.378 . S
C807 C806 1.367 . S
C807 C815 1.433 . S
C808 H804 0.929 . S
C808 C810 1.378 . S
C808 C812 1.350 . S
C809 C812 1.463 . S
C809 C814 1.350 . S
C809 N817 1.427 . S
C810 H801 0.930 . S
C810 C808 1.378 . S
C810 C811 1.367 . S
C811 C810 1.367 . S
C811 C813 1.433 . S
C812 C808 1.350 . S
C812 C809 1.463 . S
C812 N816 1.427 . S
C813 H803 0.929 . S
C813 C811 1.433 . S
C813 N816 1.384 . S
C814 H805 0.929 . S
C814 C806 1.378 . S
C814 C809 1.350 . S
C815 H802 0.929 . S
C815 C807 1.433 . S
C815 N817 1.384 . S
N816 C812 1.427 . S
N816 C813 1.384 . S
N817 C809 1.427 . S
N817 C815 1.384 . S
H818 C824 0.930 . S
H819 C828 0.930 . S
H820 C833 0.929 . S
H821 C831 0.929 . S
H822 C826 0.929 . S
H823 C832 0.929 . S
C824 H818 0.930 . S
C824 C825 1.367 . S
C824 C832 1.378 . S
C825 C824 1.367 . S
C825 C833 1.433 . S
C826 H822 0.929 . S
C826 C828 1.378 . S
C826 C830 1.350 . S
C827 C830 1.463 . S
C827 C832 1.350 . S
C827 N835 1.427 . S
C828 H819 0.930 . S
C828 C826 1.378 . S
C828 C829 1.367 . S
C829 C828 1.367 . S
C829 C831 1.433 . S
C830 C826 1.350 . S
C830 C827 1.463 . S
C830 N834 1.427 . S
C831 H821 0.929 . S
C831 C829 1.433 . S
C831 N834 1.384 . S
C832 H823 0.929 . S
C832 C824 1.378 . S
C832 C827 1.350 . S
C833 H820 0.929 . S
C833 C825 1.433 . S
C833 N835 1.384 . S
N834 C830 1.427 . S
N834 C831 1.384 . S
N835 C827 1.427 . S
N835 C833 1.384 . S
H836 C842 0.930 . S
H837 C846 0.930 . S
H838 C851 0.929 . S
H839 C849 0.929 . S
H840 C844 0.929 . S
H841 C850 0.929 . S
C842 H836 0.930 . S
C842 C843 1.367 . S
C842 C850 1.378 . S
C843 C842 1.367 . S
C843 C851 1.433 . S
C844 H840 0.929 . S
C844 C846 1.378 . S
C844 C848 1.350 . S
C845 C848 1.463 . S
C845 C850 1.350 . S
C845 N853 1.427 . S
C846 H837 0.930 . S
C846 C844 1.378 . S
C846 C847 1.367 . S
C847 C846 1.367 . S
C847 C849 1.433 . S
C848 C844 1.350 . S
C848 C845 1.463 . S
C848 N852 1.427 . S
C849 H839 0.929 . S
C849 C847 1.433 . S
C849 N852 1.384 . S
C850 H841 0.929 . S
C850 C842 1.378 . S
C850 C845 1.350 . S
C851 H838 0.929 . S
C851 C843 1.433 . S
C851 N853 1.384 . S
N852 C848 1.427 . S
N852 C849 1.384 . S
N853 C845 1.427 . S
N853 C851 1.384 . S
H854 C860 0.930 . S
H855 C864 0.930 . S
H856 C869 0.929 . S
H857 C867 0.929 . S
H858 C862 0.929 . S
H859 C868 0.929 . S
C860 H854 0.930 . S
C860 C861 1.367 . S
C860 C868 1.378 . S
C861 C860 1.367 . S
C861 C869 1.433 . S
C862 H858 0.929 . S
C862 C864 1.378 . S
C862 C866 1.350 . S
C863 C866 1.463 . S
C863 C868 1.350 . S
C863 N871 1.427 . S
C864 H855 0.930 . S
C864 C862 1.378 . S
C864 C865 1.367 . S
C865 C864 1.367 . S
C865 C867 1.433 . S
C866 C862 1.350 . S
C866 C863 1.463 . S
C866 N870 1.427 . S
C867 H857 0.929 . S
C867 C865 1.433 . S
C867 N870 1.384 . S
C868 H859 0.929 . S
C868 C860 1.378 . S
C868 C863 1.350 . S
C869 H856 0.929 . S
C869 C861 1.433 . S
C869 N871 1.384 . S
N870 C866 1.427 . S
N870 C867 1.384 . S
N871 C863 1.427 . S
N871 C869 1.384 . S
H872 C878 0.930 . S
H873 C882 0.930 . S
H874 C887 0.929 . S
H875 C885 0.929 . S
H876 C880 0.929 . S
H877 C886 0.929 . S
C878 H872 0.930 . S
C878 C879 1.367 1_565 S
C878 C886 1.378 . S
C879 C878 1.367 1_545 S
C879 C887 1.433 . S
C880 H876 0.929 . S
C880 C882 1.378 . S
C880 C884 1.330 1_545 S
C881 C884 1.461 1_544 S
C881 C886 1.330 1_545 S
C881 N889 1.450 . S
C882 H873 0.930 . S
C882 C880 1.378 . S
C882 C883 1.367 1_545 S
C883 C882 1.367 1_565 S
C883 C885 1.433 . S
C884 C880 1.330 1_565 S
C884 C881 1.461 1_566 S
C884 N888 1.450 . S
C885 H875 0.929 . S
C885 C883 1.433 . S
C885 N888 1.384 . S
C886 H877 0.929 . S
C886 C878 1.378 . S
C886 C881 1.330 1_565 S
C887 H874 0.929 . S
C887 C879 1.433 . S
C887 N889 1.384 . S
N888 C884 1.450 . S
N888 C885 1.384 . S
N889 C881 1.450 . S
N889 C887 1.384 . S
H890 C896 0.930 . S
H891 C900 0.930 . S
H892 C905 0.929 . S
H893 C903 0.929 . S
H894 C898 0.929 . S
H895 C904 0.929 . S
C896 H890 0.930 . S
C896 C897 1.367 . S
C896 C904 1.378 . S
C897 C896 1.367 . S
C897 C905 1.433 1_455 S
C898 H894 0.929 . S
C898 C900 1.378 . S
C898 C902 1.350 . S
C899 C902 1.463 1_456 S
C899 C904 1.350 . S
C899 N907 1.427 1_455 S
C900 H891 0.930 . S
C900 C898 1.378 . S
C900 C901 1.367 . S
C901 C900 1.367 . S
C901 C903 1.433 1_655 S
C902 C898 1.350 . S
C902 C899 1.463 1_654 S
C902 N906 1.427 1_655 S
C903 H893 0.929 . S
C903 C901 1.433 1_455 S
C903 N906 1.384 . S
C904 H895 0.929 . S
C904 C896 1.378 . S
C904 C899 1.350 . S
C905 H892 0.929 . S
C905 C897 1.433 1_655 S
C905 N907 1.384 . S
N906 C902 1.427 1_455 S
N906 C903 1.384 . S
N907 C899 1.427 1_655 S
N907 C905 1.384 . S
H908 C914 0.930 . S
H909 C918 0.930 . S
H910 C923 0.929 . S
H911 C921 0.929 . S
H912 C916 0.929 . S
H913 C922 0.929 . S
C914 H908 0.930 . S
C914 C915 1.367 1_565 S
C914 C922 1.378 . S
C915 C914 1.367 1_545 S
C915 C923 1.433 . S
C916 H912 0.929 . S
C916 C918 1.378 . S
C916 C920 1.331 1_545 S
C917 C920 1.460 1_546 S
C917 C922 1.331 1_545 S
C917 N925 1.451 . S
C918 H909 0.930 . S
C918 C916 1.378 . S
C918 C919 1.367 1_545 S
C919 C918 1.367 1_565 S
C919 C921 1.433 . S
C920 C916 1.331 1_565 S
C920 C917 1.460 1_564 S
C920 N924 1.451 . S
C921 H911 0.929 . S
C921 C919 1.433 . S
C921 N924 1.384 . S
C922 H913 0.929 . S
C922 C914 1.378 . S
C922 C917 1.331 1_565 S
C923 H910 0.929 . S
C923 C915 1.433 . S
C923 N925 1.384 . S
N924 C920 1.451 . S
N924 C921 1.384 . S
N925 C917 1.451 . S
N925 C923 1.384 . S
H926 C932 0.930 . S
H927 C936 0.930 . S
H928 C941 0.929 . S
H929 C939 0.929 . S
H930 C934 0.929 . S
H931 C940 0.929 . S
C932 H926 0.930 . S
C932 C933 1.367 1_455 S
C932 C940 1.378 . S
C933 C932 1.367 1_655 S
C933 C941 1.433 . S
C934 H930 0.929 . S
C934 C936 1.378 . S
C934 C938 1.329 1_655 S
C935 C938 1.461 1_656 S
C935 C940 1.329 1_655 S
C935 N943 1.451 . S
C936 H927 0.930 . S
C936 C934 1.378 . S
C936 C937 1.367 1_655 S
C937 C936 1.367 1_455 S
C937 C939 1.433 . S
C938 C934 1.329 1_455 S
C938 C935 1.461 1_454 S
C938 N942 1.451 . S
C939 H929 0.929 . S
C939 C937 1.433 . S
C939 N942 1.384 . S
C940 H931 0.929 . S
C940 C932 1.378 . S
C940 C935 1.329 1_455 S
C941 H928 0.929 . S
C941 C933 1.433 . S
C941 N943 1.384 . S
N942 C938 1.451 . S
N942 C939 1.384 . S
N943 C935 1.451 . S
N943 C941 1.384 . S
C375 N12 1.699 . S
C379 N173 1.712 . S
C393 N35 1.713 . S
C397 N104 1.698 . S
C411 N127 1.700 . S
C415 N58 1.712 . S
C429 N81 1.710 . S
C433 N150 1.701 . S
C447 N196 1.713 . S
C451 N357 1.698 . S
C465 N288 1.706 . S
C469 N219 1.705 . S
C483 N311 1.699 . S
C487 N242 1.713 . S
C501 N334 1.700 . S
C505 N265 1.712 . S
C519 N2 1.766 . S
C523 C269 1.773 . S
C537 N25 1.765 . S
C541 C200 1.771 . S
C555 C223 1.773 . S
C559 N48 1.771 . S
C573 N71 1.774 . S
C577 C246 1.760 . S
C591 N94 1.776 . S
C595 C315 1.769 . S
C609 C338 1.765 . S
C613 N117 1.777 . S
C627 N140 1.766 . S
C631 C361 1.763 . S
C645 C292 1.767 . S
C649 N163 1.777 . S
C663 N186 1.774 . S
C667 C85 1.760 . S
C681 C16 1.768 . S
C685 N209 1.776 . S
C699 N232 1.766 . S
C703 C39 1.773 . S
C717 C62 1.761 . S
C721 N255 1.775 . S
C735 N278 1.777 . S
C739 C131 1.763 . S
C753 C154 1.773 . S
C757 N301 1.771 . S
C771 C177 1.773 . S
C775 N324 1.767 . S
C789 C108 1.760 . S
C793 N347 1.773 . S
C807 C99 1.954 . S
C811 C7 1.960 . S
C825 C122 1.951 . S
C829 C30 1.960 . S
C843 C53 1.954 . S
C847 C145 1.960 . S
C861 C168 1.959 . S
C865 C76 1.949 . S
C879 C283 1.957 . S
C883 C191 1.958 . S
C897 C306 1.949 . S
C901 C214 1.959 . S
C915 C237 1.952 . S
C919 C329 1.960 . S
C933 C352 1.955 . S
C937 C260 1.959 . S
