# Generated by pormake.
# Topology wlu, (5)-cn, num edge types: 1
# Building blocks:
#     Node 0, Type 0, BuildingBlock: XOMCOT_clean_sbu_0, # of connection points: 5
#     Node 1, Type 0, BuildingBlock: XOMCOT_clean_sbu_0, # of connection points: 5
#     Node 2, Type 0, BuildingBlock: XOMCOT_clean_sbu_0, # of connection points: 5
#     Node 3, Type 0, BuildingBlock: XOMCOT_clean_sbu_0, # of connection points: 5
#     Node 4, Type 0, BuildingBlock: XOMCOT_clean_sbu_0, # of connection points: 5
#     Node 5, Type 0, BuildingBlock: XOMCOT_clean_sbu_0, # of connection points: 5
#     Node 6, Type 0, BuildingBlock: XOMCOT_clean_sbu_0, # of connection points: 5
#     Node 7, Type 0, BuildingBlock: XOMCOT_clean_sbu_0, # of connection points: 5
#     Node 8, Type 0, BuildingBlock: XOMCOT_clean_sbu_0, # of connection points: 5
#     Node 9, Type 0, BuildingBlock: XOMCOT_clean_sbu_0, # of connection points: 5
#     Node 10, Type 0, BuildingBlock: XOMCOT_clean_sbu_0, # of connection points: 5
#     Node 11, Type 0, BuildingBlock: XOMCOT_clean_sbu_0, # of connection points: 5
#     Node 12, Type 0, BuildingBlock: XOMCOT_clean_sbu_0, # of connection points: 5
#     Node 13, Type 0, BuildingBlock: XOMCOT_clean_sbu_0, # of connection points: 5
#     Node 14, Type 0, BuildingBlock: XOMCOT_clean_sbu_0, # of connection points: 5
#     Node 15, Type 0, BuildingBlock: XOMCOT_clean_sbu_0, # of connection points: 5
#     Node 16, Type 0, BuildingBlock: XOMCOT_clean_sbu_0, # of connection points: 5
#     Node 17, Type 0, BuildingBlock: XOMCOT_clean_sbu_0, # of connection points: 5
#     Node 18, Type 0, BuildingBlock: XOMCOT_clean_sbu_0, # of connection points: 5
#     Node 19, Type 0, BuildingBlock: XOMCOT_clean_sbu_0, # of connection points: 5
#     Node 20, Type 0, BuildingBlock: XOMCOT_clean_sbu_0, # of connection points: 5
#     Node 21, Type 0, BuildingBlock: XOMCOT_clean_sbu_0, # of connection points: 5
#     Node 22, Type 0, BuildingBlock: XOMCOT_clean_sbu_0, # of connection points: 5
#     Node 23, Type 0, BuildingBlock: XOMCOT_clean_sbu_0, # of connection points: 5
#     Node 24, Type 0, BuildingBlock: XOMCOT_clean_sbu_0, # of connection points: 5
#     Node 25, Type 0, BuildingBlock: XOMCOT_clean_sbu_0, # of connection points: 5
#     Node 26, Type 0, BuildingBlock: XOMCOT_clean_sbu_0, # of connection points: 5
#     Node 27, Type 0, BuildingBlock: XOMCOT_clean_sbu_0, # of connection points: 5
#     Node 28, Type 0, BuildingBlock: XOMCOT_clean_sbu_0, # of connection points: 5
#     Node 29, Type 0, BuildingBlock: XOMCOT_clean_sbu_0, # of connection points: 5
#     Node 30, Type 0, BuildingBlock: XOMCOT_clean_sbu_0, # of connection points: 5
#     Node 31, Type 0, BuildingBlock: XOMCOT_clean_sbu_0, # of connection points: 5
#     Node 32, Type 0, BuildingBlock: XOMCOT_clean_sbu_0, # of connection points: 5
#     Node 33, Type 0, BuildingBlock: XOMCOT_clean_sbu_0, # of connection points: 5
#     Node 34, Type 0, BuildingBlock: XOMCOT_clean_sbu_0, # of connection points: 5
#     Node 35, Type 0, BuildingBlock: XOMCOT_clean_sbu_0, # of connection points: 5
#     Edge 36, Type (0, 0), BuildingBlock: AJUNOK_clean_linker_0, # of connection points: 2
#     Edge 37, Type (0, 0), BuildingBlock: AJUNOK_clean_linker_0, # of connection points: 2
#     Edge 38, Type (0, 0), BuildingBlock: AJUNOK_clean_linker_0, # of connection points: 2
#     Edge 39, Type (0, 0), BuildingBlock: AJUNOK_clean_linker_0, # of connection points: 2
#     Edge 40, Type (0, 0), BuildingBlock: AJUNOK_clean_linker_0, # of connection points: 2
#     Edge 41, Type (0, 0), BuildingBlock: AJUNOK_clean_linker_0, # of connection points: 2
#     Edge 42, Type (0, 0), BuildingBlock: AJUNOK_clean_linker_0, # of connection points: 2
#     Edge 43, Type (0, 0), BuildingBlock: AJUNOK_clean_linker_0, # of connection points: 2
#     Edge 44, Type (0, 0), BuildingBlock: AJUNOK_clean_linker_0, # of connection points: 2
#     Edge 45, Type (0, 0), BuildingBlock: AJUNOK_clean_linker_0, # of connection points: 2
#     Edge 46, Type (0, 0), BuildingBlock: AJUNOK_clean_linker_0, # of connection points: 2
#     Edge 47, Type (0, 0), BuildingBlock: AJUNOK_clean_linker_0, # of connection points: 2
#     Edge 48, Type (0, 0), BuildingBlock: AJUNOK_clean_linker_0, # of connection points: 2
#     Edge 49, Type (0, 0), BuildingBlock: AJUNOK_clean_linker_0, # of connection points: 2
#     Edge 50, Type (0, 0), BuildingBlock: AJUNOK_clean_linker_0, # of connection points: 2
#     Edge 51, Type (0, 0), BuildingBlock: AJUNOK_clean_linker_0, # of connection points: 2
#     Edge 52, Type (0, 0), BuildingBlock: AJUNOK_clean_linker_0, # of connection points: 2
#     Edge 53, Type (0, 0), BuildingBlock: AJUNOK_clean_linker_0, # of connection points: 2
#     Edge 54, Type (0, 0), BuildingBlock: AJUNOK_clean_linker_0, # of connection points: 2
#     Edge 55, Type (0, 0), BuildingBlock: AJUNOK_clean_linker_0, # of connection points: 2
#     Edge 56, Type (0, 0), BuildingBlock: AJUNOK_clean_linker_0, # of connection points: 2
#     Edge 57, Type (0, 0), BuildingBlock: AJUNOK_clean_linker_0, # of connection points: 2
#     Edge 58, Type (0, 0), BuildingBlock: AJUNOK_clean_linker_0, # of connection points: 2
#     Edge 59, Type (0, 0), BuildingBlock: AJUNOK_clean_linker_0, # of connection points: 2
#     Edge 60, Type (0, 0), BuildingBlock: AJUNOK_clean_linker_0, # of connection points: 2
#     Edge 61, Type (0, 0), BuildingBlock: AJUNOK_clean_linker_0, # of connection points: 2
#     Edge 62, Type (0, 0), BuildingBlock: AJUNOK_clean_linker_0, # of connection points: 2
#     Edge 63, Type (0, 0), BuildingBlock: AJUNOK_clean_linker_0, # of connection points: 2
#     Edge 64, Type (0, 0), BuildingBlock: AJUNOK_clean_linker_0, # of connection points: 2
#     Edge 65, Type (0, 0), BuildingBlock: AJUNOK_clean_linker_0, # of connection points: 2
#     Edge 66, Type (0, 0), BuildingBlock: AJUNOK_clean_linker_0, # of connection points: 2
#     Edge 67, Type (0, 0), BuildingBlock: AJUNOK_clean_linker_0, # of connection points: 2
#     Edge 68, Type (0, 0), BuildingBlock: AJUNOK_clean_linker_0, # of connection points: 2
#     Edge 69, Type (0, 0), BuildingBlock: AJUNOK_clean_linker_0, # of connection points: 2
#     Edge 70, Type (0, 0), BuildingBlock: AJUNOK_clean_linker_0, # of connection points: 2
#     Edge 71, Type (0, 0), BuildingBlock: AJUNOK_clean_linker_0, # of connection points: 2
#     Edge 72, Type (0, 0), BuildingBlock: AJUNOK_clean_linker_0, # of connection points: 2
#     Edge 73, Type (0, 0), BuildingBlock: AJUNOK_clean_linker_0, # of connection points: 2
#     Edge 74, Type (0, 0), BuildingBlock: AJUNOK_clean_linker_0, # of connection points: 2
#     Edge 75, Type (0, 0), BuildingBlock: AJUNOK_clean_linker_0, # of connection points: 2
#     Edge 76, Type (0, 0), BuildingBlock: AJUNOK_clean_linker_0, # of connection points: 2
#     Edge 77, Type (0, 0), BuildingBlock: AJUNOK_clean_linker_0, # of connection points: 2
#     Edge 78, Type (0, 0), BuildingBlock: AJUNOK_clean_linker_0, # of connection points: 2
#     Edge 79, Type (0, 0), BuildingBlock: AJUNOK_clean_linker_0, # of connection points: 2
#     Edge 80, Type (0, 0), BuildingBlock: AJUNOK_clean_linker_0, # of connection points: 2
#     Edge 81, Type (0, 0), BuildingBlock: AJUNOK_clean_linker_0, # of connection points: 2
#     Edge 82, Type (0, 0), BuildingBlock: AJUNOK_clean_linker_0, # of connection points: 2
#     Edge 83, Type (0, 0), BuildingBlock: AJUNOK_clean_linker_0, # of connection points: 2
#     Edge 84, Type (0, 0), BuildingBlock: AJUNOK_clean_linker_0, # of connection points: 2
#     Edge 85, Type (0, 0), BuildingBlock: AJUNOK_clean_linker_0, # of connection points: 2
#     Edge 86, Type (0, 0), BuildingBlock: AJUNOK_clean_linker_0, # of connection points: 2
#     Edge 87, Type (0, 0), BuildingBlock: AJUNOK_clean_linker_0, # of connection points: 2
#     Edge 88, Type (0, 0), BuildingBlock: AJUNOK_clean_linker_0, # of connection points: 2
#     Edge 89, Type (0, 0), BuildingBlock: AJUNOK_clean_linker_0, # of connection points: 2
#     Edge 90, Type (0, 0), BuildingBlock: AJUNOK_clean_linker_0, # of connection points: 2
#     Edge 91, Type (0, 0), BuildingBlock: AJUNOK_clean_linker_0, # of connection points: 2
#     Edge 92, Type (0, 0), BuildingBlock: AJUNOK_clean_linker_0, # of connection points: 2
#     Edge 93, Type (0, 0), BuildingBlock: AJUNOK_clean_linker_0, # of connection points: 2
#     Edge 94, Type (0, 0), BuildingBlock: AJUNOK_clean_linker_0, # of connection points: 2
#     Edge 95, Type (0, 0), BuildingBlock: AJUNOK_clean_linker_0, # of connection points: 2
#     Edge 96, Type (0, 0), BuildingBlock: AJUNOK_clean_linker_0, # of connection points: 2
#     Edge 97, Type (0, 0), BuildingBlock: AJUNOK_clean_linker_0, # of connection points: 2
#     Edge 98, Type (0, 0), BuildingBlock: AJUNOK_clean_linker_0, # of connection points: 2
#     Edge 99, Type (0, 0), BuildingBlock: AJUNOK_clean_linker_0, # of connection points: 2
#     Edge 100, Type (0, 0), BuildingBlock: AJUNOK_clean_linker_0, # of connection points: 2
#     Edge 101, Type (0, 0), BuildingBlock: AJUNOK_clean_linker_0, # of connection points: 2
#     Edge 102, Type (0, 0), BuildingBlock: AJUNOK_clean_linker_0, # of connection points: 2
#     Edge 103, Type (0, 0), BuildingBlock: AJUNOK_clean_linker_0, # of connection points: 2
#     Edge 104, Type (0, 0), BuildingBlock: AJUNOK_clean_linker_0, # of connection points: 2
#     Edge 105, Type (0, 0), BuildingBlock: AJUNOK_clean_linker_0, # of connection points: 2
#     Edge 106, Type (0, 0), BuildingBlock: AJUNOK_clean_linker_0, # of connection points: 2
#     Edge 107, Type (0, 0), BuildingBlock: AJUNOK_clean_linker_0, # of connection points: 2
#     Edge 108, Type (0, 0), BuildingBlock: AJUNOK_clean_linker_0, # of connection points: 2
#     Edge 109, Type (0, 0), BuildingBlock: AJUNOK_clean_linker_0, # of connection points: 2
#     Edge 110, Type (0, 0), BuildingBlock: AJUNOK_clean_linker_0, # of connection points: 2
#     Edge 111, Type (0, 0), BuildingBlock: AJUNOK_clean_linker_0, # of connection points: 2
#     Edge 112, Type (0, 0), BuildingBlock: AJUNOK_clean_linker_0, # of connection points: 2
#     Edge 113, Type (0, 0), BuildingBlock: AJUNOK_clean_linker_0, # of connection points: 2
#     Edge 114, Type (0, 0), BuildingBlock: AJUNOK_clean_linker_0, # of connection points: 2
#     Edge 115, Type (0, 0), BuildingBlock: AJUNOK_clean_linker_0, # of connection points: 2
#     Edge 116, Type (0, 0), BuildingBlock: AJUNOK_clean_linker_0, # of connection points: 2
#     Edge 117, Type (0, 0), BuildingBlock: AJUNOK_clean_linker_0, # of connection points: 2
#     Edge 118, Type (0, 0), BuildingBlock: AJUNOK_clean_linker_0, # of connection points: 2
#     Edge 119, Type (0, 0), BuildingBlock: AJUNOK_clean_linker_0, # of connection points: 2
#     Edge 120, Type (0, 0), BuildingBlock: AJUNOK_clean_linker_0, # of connection points: 2
#     Edge 121, Type (0, 0), BuildingBlock: AJUNOK_clean_linker_0, # of connection points: 2
#     Edge 122, Type (0, 0), BuildingBlock: AJUNOK_clean_linker_0, # of connection points: 2
#     Edge 123, Type (0, 0), BuildingBlock: AJUNOK_clean_linker_0, # of connection points: 2
#     Edge 124, Type (0, 0), BuildingBlock: AJUNOK_clean_linker_0, # of connection points: 2
#     Edge 125, Type (0, 0), BuildingBlock: AJUNOK_clean_linker_0, # of connection points: 2
# Relax obj value: 0.117
# Max RMSD: 0.161
# Mean RMSD: 0.159
data_MOF--net-wlu--node1-XOMCOT_clean_sbu_0--edge1-AJUNOK_clean_linker_0
_symmetry_space_group_name_H-M    P1
_symmetry_Int_Tables_number       1
_symmetry_cell_setting            triclinic
loop_
_symmetry_equiv_pos_as_xyz
'x, y, z'
_cell_length_a     50.53065
_cell_length_b     50.465701
_cell_length_c     43.079962
_cell_angle_alpha  89.994066
_cell_angle_beta   89.953864
_cell_angle_gamma 119.99353
loop_
_atom_site_label
_atom_site_type_symbol
_atom_site_fract_x
_atom_site_fract_y
_atom_site_fract_z
_atom_type_partial_charge
Co0 Co 0.30173 0.20758 0.01929 0.0
C1 C 0.27811 0.14199 1.00284 0.0
C2 C 0.24274 0.15371 1.00168 0.0
C3 C 0.23057 0.12371 0.99236 0.0
N4 N 0.27254 0.16522 1.00847 0.0
N5 N 0.2528 0.11632 0.9928 0.0
H6 H 0.30028 0.14395 1.00581 0.0
H7 H 0.23072 0.16638 1.00242 0.0
C8 C 0.26047 0.22729 0.0547 0.0
O9 O 0.27985 0.24075 0.07753 0.0
N10 N 0.33176 0.25013 0.02994 0.0
C11 C 0.36122 0.25988 0.03694 0.0
C12 C 0.37509 0.28976 0.04673 0.0
C13 C 0.32864 0.27512 0.03444 0.0
N14 N 0.35459 0.29941 0.0457 0.0
C15 C 0.33441 0.19006 0.06072 0.0
C16 C 0.30512 0.18863 0.11518 0.0
C17 C 0.33265 0.18812 0.1167 0.0
C18 C 0.34636 0.1873 0.08889 0.0
C19 C 0.2934 0.19058 0.08611 0.0
N20 N 0.30954 0.19404 0.05946 0.0
H21 H 0.34657 0.19057 0.04002 0.0
H22 H 0.2716 0.18944 0.0854 0.0
H23 H 0.37197 0.24603 0.0359 0.0
H24 H 0.3079 0.27561 0.0298 0.0
O25 O 0.33247 0.20485 0.99471 0.0
O26 O 0.30111 0.21962 0.97656 0.0
O27 O 0.26612 0.21293 0.03359 0.0
C28 C 0.323 0.21378 0.97115 0.0
H29 H 0.2073 0.10877 0.98476 0.0
H30 H 0.39817 0.30288 0.05554 0.0
H31 H 0.29293 0.18774 0.1362 0.0
H32 H 0.36719 0.18611 0.0889 0.0
Co33 Co 0.84249 0.10133 0.0296 0.0
C34 C 0.90915 0.14646 0.01608 0.0
C35 C 0.90191 0.10332 0.03272 0.0
C36 C 0.93227 0.1214 0.0255 0.0
N37 N 0.88702 0.11875 0.02685 0.0
N38 N 0.93714 0.14871 0.01524 0.0
H39 H 0.90495 0.1645 1.00868 0.0
H40 H 0.89163 0.08009 0.04101 0.0
C41 C 0.81949 0.03795 0.05876 0.0
O42 O 0.80321 0.04223 0.07974 0.0
N43 N 0.79763 0.083 0.03204 0.0
C44 C 0.77764 0.06843 1.00875 0.0
C45 C 0.74824 0.05453 0.02016 0.0
C46 C 0.77952 0.07756 0.0574 0.0
N47 N 0.74935 0.06009 0.05083 0.0
C48 C 0.83786 0.13826 0.0764 0.0
C49 C 0.86497 0.12483 0.12484 0.0
C50 C 0.85504 0.14609 0.12966 0.0
C51 C 0.84123 0.1525 0.10502 0.0
C52 C 0.86057 0.11042 0.09565 0.0
N53 N 0.84688 0.11709 0.07194 0.0
H54 H 0.82723 0.14383 0.05775 0.0
H55 H 0.8685 0.09434 0.09201 0.0
H56 H 0.78367 0.06653 0.98514 0.0
H57 H 0.7881 0.08386 0.08075 0.0
O58 O 0.8459 0.13669 1.00791 0.0
O59 O 0.8398 0.09476 0.98508 0.0
O60 O 0.83765 0.05994 0.04104 0.0
C61 C 0.84288 0.12183 0.98229 0.0
H62 H 0.9492 0.11428 0.02657 0.0
H63 H 0.72763 0.04053 1.00696 0.0
H64 H 0.87597 0.11946 0.14338 0.0
H65 H 0.83339 0.16882 0.10775 0.0
Co66 Co 0.94484 0.74452 0.01183 0.0
C67 C 0.90548 0.77352 1.00367 0.0
C68 C 0.95187 0.80304 0.98981 0.0
C69 C 0.9354 0.8174 0.9835 0.0
N70 N 0.93344 0.77573 1.00322 0.0
N71 N 0.90607 0.79892 0.99213 0.0
H72 H 0.8848 0.75311 0.01033 0.0
H73 H 0.97557 0.81161 0.98386 0.0
C74 C 0.99895 0.80264 0.03852 0.0
O75 O 0.98102 0.81073 0.05265 0.0
N76 N 0.95651 0.71351 0.02009 0.0
C77 C 0.94088 0.68355 0.0125 0.0
C78 C 0.95551 0.66913 0.02496 0.0
C79 C 0.98042 0.71663 0.03732 0.0
N80 N 0.98039 0.68993 0.04058 0.0
C81 C 0.89623 0.71933 0.0558 0.0
C82 C 0.9311 0.72873 0.10832 0.0
C83 C 0.89936 0.70905 0.11013 0.0
C84 C 0.8819 0.70549 0.08366 0.0
C85 C 0.94466 0.74238 0.07981 0.0
N86 N 0.9273 0.73706 0.05367 0.0
H87 H 0.88209 0.71372 0.03547 0.0
H88 H 0.96923 0.75538 0.07858 0.0
H89 H 0.91964 0.67243 0.99974 0.0
H90 H 0.99722 0.7378 0.04802 0.0
O91 O 0.90887 0.71507 0.98902 0.0
O92 O 0.95438 0.74469 0.96829 0.0
O93 O 0.98748 0.777 0.02446 0.0
C94 C 0.92597 0.72379 0.96433 0.0
H95 H 0.94441 0.8397 0.97286 0.0
H96 H 0.94753 0.64485 0.0239 0.0
H97 H 0.94548 0.73214 0.12827 0.0
H98 H 0.85727 0.69098 0.08411 0.0
Co99 Co 0.22074 0.277 0.48299 0.0
C100 C 0.282 0.30947 0.45144 0.0
C101 C 0.28493 0.31343 0.50112 0.0
C102 C 0.31402 0.32899 0.48908 0.0
N103 N 0.26481 0.30138 0.47762 0.0
N104 N 0.31224 0.3265 0.45788 0.0
H105 H 0.27263 0.30344 0.42825 0.0
H106 H 0.27883 0.3113 0.52543 0.0
C107 C 0.21837 0.32802 0.52022 0.0
O108 O 0.20614 0.33604 0.49791 0.0
N109 N 0.17629 0.25184 0.48981 0.0
C110 C 0.15851 0.22189 0.4828 0.0
C111 C 0.12916 0.21181 0.4929 0.0
C112 C 0.15693 0.25935 0.50412 0.0
N113 N 0.12805 0.23527 0.50651 0.0
C114 C 0.19146 0.28467 0.42871 0.0
C115 C 0.23013 0.34692 0.42128 0.0
C116 C 0.20589 0.3317 0.40033 0.0
C117 C 0.18653 0.30007 0.40423 0.0
C118 C 0.23406 0.33076 0.44564 0.0
N119 N 0.21449 0.30004 0.44965 0.0
H120 H 0.17688 0.26019 0.43052 0.0
H121 H 0.25264 0.34326 0.46171 0.0
H122 H 0.16604 0.20785 0.47119 0.0
H123 H 0.16346 0.28195 0.51218 0.0
O124 O 0.2212 0.24441 0.45881 0.0
O125 O 0.22711 0.2498 0.50962 0.0
O126 O 0.22372 0.30598 0.51699 0.0
C127 C 0.22643 0.23466 0.48496 0.0
H128 H 0.33485 0.34206 0.50225 0.0
H129 H 0.11015 0.18869 0.49079 0.0
H130 H 0.24583 0.37126 0.41906 0.0
H131 H 0.16812 0.28714 0.38802 0.0
Co132 Co 0.7669 0.95031 0.48913 0.0
C133 C 0.73487 0.98054 0.4609 0.0
C134 C 0.73549 0.98276 0.51069 0.0
C135 C 0.72029 0.99708 0.49951 0.0
N136 N 0.74445 0.97223 0.48653 0.0
N137 N 0.71998 0.99578 0.4682 0.0
H138 H 0.73847 0.97531 0.43744 0.0
H139 H 0.73943 0.97991 0.53482 0.0
C140 C 0.7219 0.89738 0.53016 0.0
O141 O 0.72047 0.87631 0.51119 0.0
N142 N 0.79061 0.92892 0.49184 0.0
C143 C 0.81446 0.93477 0.47314 0.0
C144 C 0.82688 0.91716 0.48191 0.0
C145 C 0.7896 0.90793 0.51248 0.0
N146 N 0.81128 0.90022 0.50655 0.0
C147 C 0.75132 0.91558 0.43192 0.0
C148 C 0.68864 0.88953 0.43789 0.0
C149 C 0.70037 0.8827 0.41159 0.0
C150 C 0.73211 0.89585 0.40879 0.0
C151 C 0.70859 0.90889 0.46076 0.0
N152 N 0.73957 0.92139 0.4579 0.0
H153 H 0.77563 0.92675 0.42841 0.0
H154 H 0.69906 0.91434 0.48057 0.0
H155 H 0.8227 0.95091 0.45415 0.0
H156 H 0.77446 0.89923 0.53218 0.0
O157 O 0.79838 0.982 0.46288 0.0
O158 O 0.79733 0.983 0.51412 0.0
O159 O 0.73919 0.92577 0.52435 0.0
C160 C 0.81084 0.99675 0.48855 0.0
H161 H 0.70939 1.00675 0.51345 0.0
H162 H 0.84585 0.91662 0.47084 0.0
H163 H 0.66424 0.88007 0.44071 0.0
H164 H 0.74204 0.89167 0.38839 0.0
Co165 Co 0.0949 0.82809 0.48083 0.0
C166 C 0.06702 0.76823 0.44728 0.0
C167 C 0.0634 0.76283 0.49682 0.0
C168 C 0.04992 0.73425 0.48339 0.0
N169 N 0.0743 0.78413 0.47424 0.0
N170 N 0.05235 0.73761 0.45227 0.0
H171 H 0.07236 0.77886 0.42458 0.0
H172 H 0.06529 0.76776 0.52141 0.0
C173 C 0.14855 0.8336 0.51885 0.0
O174 O 0.16917 0.85457 0.50051 0.0
N175 N 0.11502 0.87278 0.48793 0.0
C176 C 0.1078 0.89175 0.4727 0.0
C177 C 0.12546 0.9211 0.48342 0.0
C178 C 0.1369 0.89148 0.50858 0.0
N179 N 0.14397 0.92113 0.50583 0.0
C180 C 0.12937 0.85403 0.4244 0.0
C181 C 0.15786 0.81938 0.42289 0.0
C182 C 0.16438 0.84095 0.39932 0.0
C183 C 0.14968 0.85827 0.40022 0.0
C184 C 0.13779 0.81623 0.44696 0.0
N185 N 0.12422 0.83387 0.44793 0.0
H186 H 0.11729 0.86655 0.42369 0.0
H187 H 0.13287 0.79922 0.4647 0.0
H188 H 0.09086 0.88503 0.45459 0.0
H189 H 0.14677 0.88385 0.52611 0.0
O190 O 0.06275 0.82905 0.45663 0.0
O191 O 0.06148 0.82226 0.50737 0.0
O192 O 0.12007 0.82278 0.51396 0.0
C193 C 0.04765 0.8239 0.48264 0.0
H194 H 0.0398 0.71262 0.49561 0.0
H195 H 0.12509 0.94112 0.47497 0.0
H196 H 0.16826 0.8051 0.42275 0.0
H197 H 0.15321 0.87439 0.38188 0.0
Co198 Co 0.75131 0.82476 1.00641 0.0
C199 C 0.77667 0.89197 0.01873 0.0
C200 C 0.80854 0.87714 0.02971 0.0
C201 C 0.82124 0.90748 0.03793 0.0
N202 N 0.78083 0.8674 0.01685 0.0
N203 N 0.80113 0.91678 0.03128 0.0
H204 H 0.75597 0.89169 0.0121 0.0
H205 H 0.81838 0.86281 0.03426 0.0
C206 C 0.81104 0.83214 0.97921 0.0
O207 O 0.81858 0.85855 0.96624 0.0
N208 N 0.72194 0.78206 0.99655 0.0
C209 C 0.69317 0.7649 1.00754 0.0
C210 C 0.68008 0.73618 0.99457 0.0
C211 C 0.72563 0.76331 0.97665 0.0
N212 N 0.70042 0.73529 0.97509 0.0
C213 C 0.72502 0.84893 0.96425 0.0
C214 C 0.73859 0.83016 0.90936 0.0
C215 C 0.71868 0.84209 0.90844 0.0
C216 C 0.71297 0.85249 0.93639 0.0
C217 C 0.75071 0.82743 0.93792 0.0
N218 N 0.7435 0.83634 0.96517 0.0
H219 H 0.71796 0.85508 0.98531 0.0
H220 H 0.76454 0.81671 0.93798 0.0
H221 H 0.68185 0.77252 0.02344 0.0
H222 H 0.74617 0.76985 0.96341 0.0
O223 O 0.72031 0.8281 0.03004 0.0
O224 O 0.7516 0.81379 0.04956 0.0
O225 O 0.78524 0.8168 0.99282 0.0
C226 C 0.72928 0.81914 0.05412 0.0
H227 H 0.84302 0.92127 0.04935 0.0
H228 H 0.65695 0.71767 0.99828 0.0
H229 H 0.74377 0.82178 0.8884 0.0
H230 H 0.69855 0.8627 0.93701 0.0
Co231 Co 0.21511 0.93365 0.98483 0.0
C232 C 0.15049 0.8941 1.00723 0.0
C233 C 0.1675 0.94168 0.01586 0.0
C234 C 0.13765 0.92544 0.02593 0.0
N235 N 0.17552 0.92216 1.00354 0.0
N236 N 0.12673 0.89544 0.02032 0.0
H237 H 0.14985 0.87305 1.00139 0.0
H238 H 0.18231 0.96614 0.01755 0.0
C239 C 0.23673 0.99784 0.95604 0.0
O240 O 0.25384 0.99545 0.93455 0.0
N241 N 0.25449 0.94419 0.96631 0.0
C242 C 0.25896 0.92492 0.94825 0.0
C243 C 0.28793 0.94002 0.93631 0.0
C244 C 0.28192 0.97045 0.9667 0.0
N245 N 0.30228 0.96879 0.94739 0.0
C246 C 0.1827 0.88067 0.94648 0.0
C247 C 0.19386 0.91063 0.89032 0.0
C248 C 0.18406 0.87917 0.89027 0.0
C249 C 0.17702 0.86408 0.91893 0.0
C250 C 0.19865 0.92637 0.91859 0.0
N251 N 0.19492 0.91176 0.94635 0.0
H252 H 0.18011 0.86855 0.96784 0.0
H253 H 0.20715 0.95053 0.91775 0.0
H254 H 0.24221 0.90141 0.94353 0.0
H255 H 0.28628 0.99081 0.97926 0.0
O256 O 0.21622 0.90049 1.00666 0.0
O257 O 0.23406 0.94726 0.02518 0.0
O258 O 0.21848 0.97454 0.97251 0.0
C259 C 0.22938 0.91973 0.02926 0.0
H260 H 0.12479 0.93516 0.03608 0.0
H261 H 0.29771 0.93061 0.92042 0.0
H262 H 0.19963 0.92349 0.86886 0.0
H263 H 0.16882 0.83975 0.92024 0.0
Co264 Co 0.11881 0.29478 0.99016 0.0
C265 C 0.15756 0.2674 0.01102 0.0
C266 C 0.11853 0.25473 0.03988 0.0
C267 C 0.13556 0.24311 0.05278 0.0
N268 N 0.13224 0.27022 0.01369 0.0
N269 N 0.16024 0.25125 0.03474 0.0
H270 H 0.17437 0.27742 0.99287 0.0
H271 H 0.09792 0.2528 0.04964 0.0
C272 C 0.05343 0.24795 0.96834 0.0
O273 O 0.05276 0.26556 0.94633 0.0
N274 N 0.10607 0.3201 0.96741 0.0
C275 C 0.12243 0.34008 0.94464 0.0
C276 C 0.10649 0.35332 0.93328 0.0
C277 C 0.08104 0.3232 0.97093 0.0
N278 N 0.08047 0.34259 0.94957 0.0
C279 C 0.17056 0.31186 0.95116 0.0
C280 C 0.13835 0.2901 0.89654 0.0
C281 C 0.16959 0.31205 0.89508 0.0
C282 C 0.186 0.32145 0.92283 0.0
C283 C 0.12385 0.28021 0.92555 0.0
N284 N 0.13957 0.2926 0.95246 0.0
H285 H 0.18332 0.32249 0.97199 0.0
H286 H 0.09953 0.26506 0.926 0.0
H287 H 0.14467 0.34512 0.93663 0.0
H288 H 0.06319 0.31075 0.98785 0.0
O289 O 0.15209 0.3317 1.00812 0.0
O290 O 0.10572 0.30469 0.02843 0.0
O291 O 0.07863 0.25506 0.98221 0.0
C292 C 0.13324 0.32788 0.03051 0.0
H293 H 0.13025 0.22982 0.07393 0.0
H294 H 0.11352 0.3698 0.91455 0.0
H295 H 0.12491 0.28206 0.8755 0.0
H296 H 0.2101 0.33843 0.92275 0.0
Co297 Co 0.8314 0.74699 0.51762 0.0
C298 C 0.89949 0.77736 0.50818 0.0
C299 C 0.88001 0.80213 0.48711 0.0
C300 C 0.91054 0.81625 0.47933 0.0
N301 N 0.87297 0.77787 0.50556 0.0
N302 N 0.92276 0.80051 0.49237 0.0
H303 H 0.90173 0.75974 0.51995 0.0
H304 H 0.86378 0.80865 0.47911 0.0
C305 C 0.83996 0.80697 0.54201 0.0
O306 O 0.86733 0.81394 0.55172 0.0
N307 N 0.78965 0.71581 0.52887 0.0
C308 C 0.77337 0.68722 0.51707 0.0
C309 C 0.74502 0.6724 0.53074 0.0
C310 C 0.77069 0.71761 0.55003 0.0
N311 N 0.74338 0.6914 0.55149 0.0
C312 C 0.85864 0.72404 0.56023 0.0
C313 C 0.84345 0.74194 0.6148 0.0
C314 C 0.85793 0.72444 0.61638 0.0
C315 C 0.86581 0.71581 0.58863 0.0
C316 C 0.83741 0.7505 0.58573 0.0
N317 N 0.84508 0.74164 0.5587 0.0
H318 H 0.86342 0.71537 0.5394 0.0
H319 H 0.82549 0.76319 0.58529 0.0
H320 H 0.78134 0.67713 0.50004 0.0
H321 H 0.77654 0.7375 0.56415 0.0
O322 O 0.83671 0.71694 0.49416 0.0
O323 O 0.81853 0.74523 0.47493 0.0
O324 O 0.82213 0.78017 0.53124 0.0
C325 C 0.82592 0.72431 0.47033 0.0
H326 H 0.92271 0.83642 0.46496 0.0
H327 H 0.72728 0.64898 0.52661 0.0
H328 H 0.83655 0.74863 0.63583 0.0
H329 H 0.87641 0.70171 0.58887 0.0
Co330 Co 0.29913 0.09264 0.52657 0.0
C331 C 0.26944 0.13075 0.51525 0.0
C332 C 0.24533 0.08678 0.49355 0.0
C333 C 0.23214 0.10377 0.48446 0.0
N334 N 0.26858 0.10345 0.51324 0.0
N335 N 0.24749 0.13157 0.49791 0.0
H336 H 0.28665 0.15039 0.52758 0.0
H337 H 0.23903 0.0641 0.48542 0.0
C338 C 0.23839 0.04028 0.54808 0.0
O339 O 0.23049 0.06021 0.55721 0.0
N340 N 0.33028 0.08233 0.53902 0.0
C341 C 0.35941 0.09583 0.52855 0.0
C342 C 0.37425 0.08234 0.5422 0.0
C343 C 0.32819 0.06091 0.55957 0.0
N344 N 0.35471 0.06043 0.56162 0.0
C345 C 0.32026 0.14214 0.56965 0.0
C346 C 0.30148 0.10829 0.62369 0.0
C347 C 0.31924 0.14028 0.62571 0.0
C348 C 0.32809 0.15715 0.5982 0.0
C349 C 0.29337 0.09406 0.5944 0.0
N350 N 0.30281 0.11098 0.56767 0.0
H351 H 0.32944 0.15593 0.54911 0.0
H352 H 0.28077 0.06943 0.59353 0.0
H353 H 0.36987 0.11467 0.51241 0.0
H354 H 0.30788 0.046 0.57275 0.0
O355 O 0.32961 0.12851 0.50439 0.0
O356 O 0.30262 0.08225 0.48405 0.0
O357 O 0.26579 0.04979 0.53891 0.0
C358 C 0.32324 0.11081 0.48032 0.0
H359 H 0.21295 0.0963 0.46884 0.0
H360 H 0.39797 0.08879 0.53889 0.0
H361 H 0.2945 0.09439 0.64452 0.0
H362 H 0.34238 0.18184 0.59872 0.0
Co363 Co 0.95087 0.20791 0.53892 0.0
C364 C 0.91211 0.1426 0.51784 0.0
C365 C 0.95363 0.16682 0.49191 0.0
C366 C 0.93709 0.13742 0.48031 0.0
N367 N 0.93807 0.17013 0.51561 0.0
N368 N 0.91095 0.12225 0.4967 0.0
H369 H 0.89388 0.13717 0.53399 0.0
H370 H 0.97549 0.18467 0.48344 0.0
C371 C 1.01775 0.2291 0.557 0.0
O372 O 1.01915 0.24873 0.5778 0.0
N373 N 0.96287 0.24574 0.56203 0.0
C374 C 0.94757 0.24777 0.58685 0.0
C375 C 0.96211 0.27711 0.59779 0.0
C376 C 0.98581 0.27493 0.55717 0.0
N377 N 0.98619 0.29415 0.57941 0.0
C378 C 0.9024 0.17163 0.58107 0.0
C379 C 0.93834 0.17987 0.63243 0.0
C380 C 0.90692 0.1683 0.63645 0.0
C381 C 0.88876 0.16287 0.61022 0.0
C382 C 0.95108 0.18735 0.60246 0.0
N383 N 0.93334 0.1846 0.5773 0.0
H384 H 0.8881 0.17054 0.56199 0.0
H385 H 0.97545 0.19778 0.6002 0.0
H386 H 0.92687 0.22942 0.59658 0.0
H387 H 1.00233 0.28172 0.53852 0.0
O388 O 0.91541 0.20913 0.52346 0.0
O389 O 0.96059 0.23035 0.50027 0.0
O390 O 0.99223 0.2105 0.5441 0.0
C391 C 0.93241 0.2243 0.49995 0.0
H392 H 0.94406 0.12785 0.46167 0.0
H393 H 0.95531 0.28553 0.61761 0.0
H394 H 0.95309 0.18453 0.65235 0.0
H395 H 0.86447 0.15443 0.61252 0.0
Co396 Co 0.96911 0.54062 0.35611 0.0
C397 C 0.94007 0.47482 0.33455 0.0
C398 C 0.91031 0.48269 0.3637 0.0
C399 C 0.8956 0.45227 0.35558 0.0
N400 N 0.93824 0.4972 0.35043 0.0
N401 N 0.91426 0.44714 0.33739 0.0
H402 H 0.9599 0.4785 0.32148 0.0
H403 H 0.90124 0.49297 0.37913 0.0
C404 C 0.9188 0.55164 0.38665 0.0
O405 O 0.92108 0.54387 0.41516 0.0
N406 N 0.9999 0.58373 0.36191 0.0
C407 C 0.03008 0.59426 0.36529 0.0
C408 C 0.04436 0.62444 0.37415 0.0
C409 C 0.9963 0.60793 0.36917 0.0
N410 N 1.02319 0.63308 0.37676 0.0
C411 C 0.98273 0.50979 0.40317 0.0
C412 C 0.99379 0.55043 0.45099 0.0
C413 C 1.00176 0.52767 0.45523 0.0
C414 C 0.99565 0.507 0.43081 0.0
C415 C 0.98128 0.5527 0.4227 0.0
N416 N 0.97592 0.53256 0.39903 0.0
H417 H 0.98032 0.49483 0.38414 0.0
H418 H 0.97751 0.57175 0.41949 0.0
H419 H 0.0408 0.58037 0.36396 0.0
H420 H 0.97442 0.60679 0.37089 0.0
O421 O 1.00001 0.53414 0.3363 0.0
O422 O 0.96955 0.54709 0.31184 0.0
O423 O 0.93531 0.55034 0.36481 0.0
C424 C 0.99183 0.54127 0.31038 0.0
H425 H 0.8732 0.43491 0.3635 0.0
H426 H 0.06811 0.63814 0.38084 0.0
H427 H 0.9981 0.56705 0.46904 0.0
H428 H 1.00241 0.48979 0.43218 0.0
Co429 Co 0.50617 0.43834 0.35186 0.0
C430 C 0.57252 0.47797 0.33613 0.0
C431 C 0.55749 0.43046 0.32995 0.0
C432 C 0.58741 0.44729 0.32008 0.0
N433 N 0.54821 0.44956 0.34093 0.0
N434 N 0.59675 0.47718 0.32369 0.0
H435 H 0.57229 0.49893 0.34016 0.0
H436 H 0.54307 0.40602 0.32735 0.0
C437 C 0.51017 0.38415 0.37963 0.0
O438 O 0.53597 0.40191 0.39413 0.0
N439 N 0.46429 0.42733 0.3622 0.0
C440 C 0.45292 0.44648 0.36289 0.0
C441 C 0.42375 0.4312 0.37497 0.0
C442 C 0.44176 0.40064 0.37405 0.0
N443 N 0.41685 0.40247 0.38228 0.0
C444 C 0.53394 0.48812 0.39489 0.0
C445 C 0.50903 0.45473 0.44841 0.0
C446 C 0.52438 0.48688 0.45023 0.0
C447 C 0.53752 0.50343 0.423 0.0
C448 C 0.50608 0.4402 0.41968 0.0
N449 N 0.51839 0.45688 0.39319 0.0
H450 H 0.54189 0.50176 0.37417 0.0
H451 H 0.49227 0.4156 0.41861 0.0
H452 H 0.46537 0.47037 0.35642 0.0
H453 H 0.44367 0.38044 0.37739 0.0
O454 O 0.51137 0.47372 0.32867 0.0
O455 O 0.49455 0.4275 0.30911 0.0
O456 O 0.49655 0.39587 0.36501 0.0
C457 C 0.50145 0.45569 0.30465 0.0
H458 H 0.6007 0.43833 0.30937 0.0
H459 H 0.40936 0.44098 0.37962 0.0
H460 H 0.49862 0.44085 0.46883 0.0
H461 H 0.54903 0.52819 0.42297 0.0
Co462 Co 0.61049 0.0815 0.36256 0.0
C463 C 0.57089 0.10786 0.34523 0.0
C464 C 0.61831 0.14127 0.34157 0.0
C465 C 0.60144 0.15401 0.33082 0.0
N466 N 0.59925 0.11245 0.35157 0.0
N467 N 0.57161 0.13288 0.33284 0.0
H468 H 0.55006 0.08627 0.34805 0.0
H469 H 0.64283 0.15187 0.33995 0.0
C470 C 0.66705 0.13934 0.38804 0.0
O471 O 0.65048 0.14715 0.4051 0.0
N472 N 0.62129 0.05035 0.37286 0.0
C473 C 0.60188 0.01986 0.37361 0.0
C474 C 0.61672 1.00561 0.38577 0.0
C475 C 0.64776 0.05409 0.38487 0.0
N476 N 0.64548 0.02711 0.39317 0.0
C477 C 0.5634 0.06401 0.40789 0.0
C478 C 0.5976 0.07009 0.46005 0.0
C479 C 0.56561 0.05596 0.46317 0.0
C480 C 0.54873 0.05338 0.43644 0.0
C481 C 0.61152 0.08054 0.43075 0.0
N482 N 0.59439 0.07735 0.40493 0.0
H483 H 0.5492 0.05923 0.38777 0.0
H484 H 0.63585 0.08962 0.42869 0.0
H485 H 0.57803 1.0086 0.36719 0.0
H486 H 0.66805 0.07608 0.38831 0.0
O487 O 0.57347 0.05054 0.34242 0.0
O488 O 0.61813 0.07868 0.31905 0.0
O489 O 0.65407 0.11441 0.37257 0.0
C490 C 0.58954 0.05768 0.31707 0.0
H491 H 0.61045 0.17649 0.32056 0.0
H492 H 0.60657 0.98137 0.39043 0.0
H493 H 0.6117 0.07233 0.4799 0.0
H494 H 0.52401 0.04152 0.43706 0.0
Co495 Co 0.88945 0.61219 0.8089 0.0
C496 C 0.95018 0.6435 0.77659 0.0
C497 C 0.9541 0.64582 0.82626 0.0
C498 C 0.98297 0.66133 0.81367 0.0
N499 N 0.93351 0.63479 0.80311 0.0
N500 N 0.98066 0.6601 0.78242 0.0
H501 H 0.94015 0.63779 0.75367 0.0
H502 H 0.94845 0.64315 0.85071 0.0
C503 C 0.88322 0.6601 0.84693 0.0
O504 O 0.86153 0.65904 0.82926 0.0
N505 N 0.8448 0.58874 0.81544 0.0
C506 C 0.82494 0.56488 0.79783 0.0
C507 C 0.79563 0.55478 0.80788 0.0
C508 C 0.82679 0.59142 0.83735 0.0
N509 N 0.79665 0.57151 0.83262 0.0
C510 C 0.86706 0.62064 0.75008 0.0
C511 C 0.89745 0.68386 0.75091 0.0
C512 C 0.87779 0.66853 0.72599 0.0
C513 C 0.86273 0.63648 0.72575 0.0
C514 C 0.90089 0.66707 0.77502 0.0
N515 N 0.8849 0.63574 0.77505 0.0
H516 H 0.85648 0.59618 0.74836 0.0
H517 H 0.91668 0.67938 0.79358 0.0
H518 H 0.83103 0.55515 0.7787 0.0
H519 H 0.83512 0.6074 0.85638 0.0
O520 O 0.88772 0.57802 0.78579 0.0
O521 O 0.89383 0.58444 0.83649 0.0
O522 O 0.89488 0.64327 0.84137 0.0
C523 C 0.89174 0.56808 0.81235 0.0
H524 H 1.00408 0.67344 0.82661 0.0
H525 H 0.77499 0.53652 0.79761 0.0
H526 H 0.90991 0.70861 0.75192 0.0
H527 H 0.84818 0.6237 0.70646 0.0
Co528 Co 0.43494 0.28558 0.81549 0.0
C529 C 0.40266 0.31349 0.7825 0.0
C530 C 0.40434 0.32008 0.83184 0.0
C531 C 0.38856 0.33298 0.8188 0.0
N532 N 0.41301 0.30767 0.80917 0.0
N533 N 0.38727 0.32866 0.78781 0.0
H534 H 0.40619 0.30664 0.75978 0.0
H535 H 0.40874 0.3193 0.8563 0.0
C536 C 0.38645 0.23226 0.85406 0.0
O537 O 0.38801 0.21103 0.83784 0.0
N538 N 0.45786 0.26383 0.8223 0.0
C539 C 0.48153 0.26736 0.80471 0.0
C540 C 0.4923 0.24905 0.81584 0.0
C541 C 0.4558 0.24419 0.84513 0.0
N542 N 0.4761 0.23415 0.84123 0.0
C543 C 0.42611 0.25407 0.75695 0.0
C544 C 0.36295 0.22174 0.7584 0.0
C545 C 0.37802 0.21651 0.73389 0.0
C546 C 0.41 0.23332 0.73314 0.0
C547 C 0.37999 0.24226 0.78212 0.0
N548 N 0.41128 0.2574 0.78184 0.0
H549 H 0.45052 0.26782 0.75492 0.0
H550 H 0.3679 0.2463 0.80052 0.0
H551 H 0.49099 0.2826 0.78509 0.0
H552 H 0.44074 0.23824 0.86486 0.0
O553 O 0.46954 0.31799 0.79264 0.0
O554 O 0.46242 0.31715 0.84337 0.0
O555 O 0.40349 0.26054 0.84777 0.0
C556 C 0.47913 0.33146 0.81949 0.0
H557 H 0.37795 0.34386 0.83129 0.0
H558 H 0.51055 0.24666 0.80558 0.0
H559 H 0.33822 0.20989 0.75934 0.0
H560 H 0.42247 0.23093 0.7139 0.0
Co561 Co 0.76874 0.15757 0.82495 0.0
C562 C 0.73927 0.09609 0.79503 0.0
C563 C 0.73996 0.09315 0.84471 0.0
C564 C 0.7268 0.06402 0.83258 0.0
N565 N 0.74801 0.11326 0.82118 0.0
N566 N 0.72646 0.06575 0.80129 0.0
H567 H 0.74224 0.10577 0.77203 0.0
H568 H 0.74376 0.09924 0.86902 0.0
C569 C 0.82208 0.16681 0.86615 0.0
O570 O 0.84286 0.18818 0.84827 0.0
N571 N 0.78906 0.20264 0.82869 0.0
C572 C 0.7835 0.22062 0.80963 0.0
C573 C 0.79985 0.2505 0.8192 0.0
C574 C 0.80857 0.2225 0.8504 0.0
N575 N 0.8157 0.25183 0.84472 0.0
C576 C 0.80174 0.17716 0.76682 0.0
C577 C 0.83232 0.14475 0.77282 0.0
C578 C 0.83718 0.16236 0.74601 0.0
C579 C 0.82154 0.17868 0.74323 0.0
C580 C 0.81244 0.14398 0.79594 0.0
N581 N 0.79796 0.16067 0.79322 0.0
H582 H 0.78884 0.18859 0.76332 0.0
H583 H 0.80825 0.12939 0.81585 0.0
H584 H 0.76813 0.21276 0.79004 0.0
H585 H 0.81648 0.21591 0.87062 0.0
O586 O 0.73674 0.15734 0.79924 0.0
O587 O 0.73558 0.15375 0.85041 0.0
O588 O 0.79371 0.15433 0.85972 0.0
C589 C 0.72191 0.1542 0.82507 0.0
H590 H 0.71884 0.04318 0.84585 0.0
H591 H 0.80013 0.26993 0.80818 0.0
H592 H 0.84375 0.13163 0.77593 0.0
H593 H 0.82393 0.1919 0.72253 0.0
Co594 Co 0.42557 0.16765 0.32464 0.0
C595 C 0.45074 0.23258 0.34632 0.0
C596 C 0.4811 0.21549 0.35566 0.0
C597 C 0.49455 0.24534 0.36581 0.0
N598 N 0.4538 0.2075 0.3429 0.0
N599 N 0.4756 0.25633 0.35981 0.0
H600 H 0.43043 0.23319 0.34004 0.0
H601 H 0.49062 0.20059 0.35776 0.0
C602 C 0.46798 0.1461 0.29567 0.0
O603 O 0.4479 0.1281 0.2751 0.0
N604 N 0.39644 0.12793 0.30681 0.0
C605 C 0.37088 0.12277 0.29175 0.0
C606 C 0.35451 0.09268 0.28313 0.0
C607 C 0.39448 0.10008 0.30818 0.0
N608 N 0.36938 0.07846 0.2931 0.0
C609 C 0.40403 0.19883 0.28592 0.0
C610 C 0.42333 0.18784 0.23003 0.0
C611 C 0.4008 0.19645 0.22979 0.0
C612 C 0.39224 0.20318 0.25831 0.0
C613 C 0.4346 0.1837 0.25837 0.0
N614 N 0.42354 0.18739 0.28603 0.0
H615 H 0.39452 0.20154 0.30724 0.0
H616 H 0.45085 0.17595 0.2577 0.0
H617 H 0.36407 0.13958 0.2876 0.0
H618 H 0.41096 0.09572 0.31969 0.0
O619 O 0.39188 0.16724 0.34664 0.0
O620 O 0.4201 0.14849 0.36489 0.0
O621 O 0.46292 0.16431 0.31212 0.0
C622 C 0.39754 0.15357 0.36902 0.0
H623 H 0.51689 0.2581 0.3764 0.0
H624 H 0.33337 0.08202 0.27008 0.0
H625 H 0.43127 0.18309 0.20852 0.0
H626 H 0.37461 0.20935 0.25967 0.0
Co627 Co 0.88608 0.26929 0.33825 0.0
C628 C 0.81822 0.23087 0.35076 0.0
C629 C 0.83678 0.2777 0.36406 0.0
C630 C 0.80653 0.26173 0.37282 0.0
N631 N 0.8442 0.25867 0.34949 0.0
N632 N 0.79463 0.23212 0.36461 0.0
H633 H 0.81705 0.20986 0.34361 0.0
H634 H 0.85263 0.30151 0.36904 0.0
C635 C 0.87936 0.32119 0.30988 0.0
O636 O 0.85142 0.30201 0.30055 0.0
N637 N 0.92805 0.28006 0.32781 0.0
C638 C 0.94432 0.26774 0.33955 0.0
C639 C 0.97309 0.28213 0.32659 0.0
C640 C 0.94738 0.30163 0.30748 0.0
N641 N 0.97492 0.3033 0.30636 0.0
C642 C 0.85962 0.21682 0.29838 0.0
C643 C 0.87873 0.24735 0.24246 0.0
C644 C 0.8657 0.21537 0.24265 0.0
C645 C 0.85536 0.20015 0.27105 0.0
C646 C 0.88199 0.26321 0.27039 0.0
N647 N 0.8729 0.24801 0.29814 0.0
H648 H 0.85359 0.20441 0.31999 0.0
H649 H 0.8933 0.28782 0.26958 0.0
H650 H 0.93607 0.24929 0.35619 0.0
H651 H 0.94161 0.31592 0.29369 0.0
O652 O 0.88135 0.23555 0.36404 0.0
O653 O 0.89886 0.28301 0.38033 0.0
O654 O 0.8955 0.31092 0.32205 0.0
C655 C 0.89205 0.25516 0.38675 0.0
H656 H 0.79441 0.27127 0.38486 0.0
H657 H 0.99102 0.27681 0.33095 0.0
H658 H 0.88688 0.26008 0.22099 0.0
H659 H 0.84544 0.17555 0.2724 0.0
Co660 Co 0.78017 0.62067 0.315 0.0
C661 C 0.81786 0.59828 0.3478 0.0
C662 C 0.77651 0.56159 0.32888 0.0
C663 C 0.79396 0.54976 0.33992 0.0
N664 N 0.79127 0.59211 0.33371 0.0
N665 N 0.81993 0.57272 0.35178 0.0
H666 H 0.83631 0.62109 0.35288 0.0
H667 H 0.7556 0.54871 0.31602 0.0
C668 C 0.71517 0.57925 0.28741 0.0
O669 O 0.71753 0.59909 0.26634 0.0
N670 N 0.77059 0.64996 0.2958 0.0
C671 C 0.78959 0.67228 0.27618 0.0
C672 C 0.77508 0.68685 0.2644 0.0
C673 C 0.7453 0.6528 0.29727 0.0
N674 N 0.74701 0.6742 0.27704 0.0
C675 C 0.83236 0.63569 0.2778 0.0
C676 C 0.80322 0.62229 0.22102 0.0
C677 C 0.83516 0.64104 0.22181 0.0
C678 C 0.84974 0.6464 0.25065 0.0
C679 C 0.78666 0.61187 0.24881 0.0
N680 N 0.80113 0.62037 0.27685 0.0
H681 H 0.84413 0.64219 0.29977 0.0
H682 H 0.76223 0.59903 0.24751 0.0
H683 H 0.81245 0.67745 0.27028 0.0
H684 H 0.72544 0.63838 0.31132 0.0
O685 O 0.81415 0.65493 0.3361 0.0
O686 O 0.76718 0.62777 0.35476 0.0
O687 O 0.73847 0.58394 0.30359 0.0
C688 C 0.79488 0.65033 0.35835 0.0
H689 H 0.78879 0.52627 0.33771 0.0
H690 H 0.78443 0.70536 0.24768 0.0
H691 H 0.79087 0.61742 0.19931 0.0
H692 H 0.87438 0.66019 0.25238 0.0
Co693 Co 0.51289 0.09218 0.87414 0.0
C694 C 0.5758 0.11375 0.84972 0.0
C695 C 0.56022 0.14487 0.83795 0.0
C696 C 0.58972 0.15653 0.82695 0.0
N697 N 0.55159 0.11817 0.85271 0.0
N698 N 0.59947 0.13692 0.83454 0.0
H699 H 0.57639 0.09394 0.85801 0.0
H700 H 0.54631 0.15548 0.83563 0.0
C701 C 0.49013 0.13608 0.89524 0.0
O702 O 0.4717 0.1173 0.91649 0.0
N703 N 0.47459 0.06501 0.89573 0.0
C704 C 0.47239 0.04561 0.91854 0.0
C705 C 0.44334 0.03083 0.93011 0.0
C706 C 0.44568 0.05996 0.89238 0.0
N707 N 0.42665 0.04011 0.91413 0.0
C708 C 0.54884 0.07909 0.91578 0.0
C709 C 0.53868 0.10386 0.96844 0.0
C710 C 0.55097 0.08448 0.97149 0.0
C711 C 0.55734 0.07328 0.94461 0.0
C712 C 0.53147 0.11009 0.93881 0.0
N713 N 0.53503 0.0964 0.91297 0.0
H714 H 0.55019 0.06644 0.89639 0.0
H715 H 0.52093 0.12396 0.93727 0.0
H716 H 0.49055 0.04199 0.92646 0.0
H717 H 0.43906 0.07144 0.87547 0.0
O718 O 0.51193 0.0559 0.85745 0.0
O719 O 0.49232 0.08144 0.83441 0.0
O720 O 0.50919 0.13044 0.88115 0.0
C721 C 0.49782 0.05891 0.83369 0.0
H722 H 0.60328 0.17826 0.81532 0.0
H723 H 0.43491 1.01418 0.94874 0.0
H724 H 0.53344 0.11297 0.98881 0.0
H725 H 0.56616 0.05766 0.94601 0.0
Co726 Co 0.96272 0.42901 0.86409 0.0
C727 C 0.9308 0.46366 0.84798 0.0
C728 C 0.91054 0.42016 0.82531 0.0
C729 C 0.8967 0.43606 0.81448 0.0
N730 N 0.93184 0.43736 0.84661 0.0
N731 N 0.90965 0.46354 0.82869 0.0
H732 H 0.9461 0.48341 0.86136 0.0
H733 H 0.90606 0.39795 0.8174 0.0
C734 C 0.90213 0.37519 0.8834 0.0
O735 O 0.89289 0.39452 0.89074 0.0
N736 N 0.99422 0.42204 0.88132 0.0
C737 C 1.02155 0.4449 0.89099 0.0
C738 C 0.03637 0.43272 0.90707 0.0
C739 C 0.99286 0.396 0.89159 0.0
N740 N 1.01832 0.40211 0.9077 0.0
C741 C 0.97789 0.47803 0.90666 0.0
C742 C 0.96272 0.44351 0.96028 0.0
C743 C 0.97871 0.4755 0.96265 0.0
C744 C 0.98563 0.49271 0.9354 0.0
C745 C 0.95452 0.42959 0.9309 0.0
N746 N 0.96218 0.44682 0.90435 0.0
H747 H 0.98692 0.49211 0.88626 0.0
H748 H 0.94432 0.40506 0.92965 0.0
H749 H 0.0297 0.469 0.88771 0.0
H750 H 0.97341 0.3733 0.88847 0.0
O751 O 0.99397 0.46547 0.84291 0.0
O752 O 0.9705 0.4188 0.8231 0.0
O753 O 0.93005 0.38558 0.87562 0.0
C754 C 0.99051 0.44759 0.81965 0.0
H755 H 0.87874 0.42809 0.79728 0.0
H756 H 0.05874 0.4454 0.91766 0.0
H757 H 0.95763 0.42943 0.98086 0.0
H758 H 0.99892 0.51747 0.93618 0.0
Co759 Co 0.62055 0.5439 0.86398 0.0
C760 C 0.58338 0.47892 0.8417 0.0
C761 C 0.62831 0.48925 0.85513 0.0
C762 C 0.61184 0.45886 0.84695 0.0
N763 N 0.61046 0.50206 0.85244 0.0
N764 N 0.58363 0.45239 0.83855 0.0
H765 H 0.56322 0.48078 0.83787 0.0
H766 H 0.65152 0.50043 0.86314 0.0
C767 C 0.6835 0.55314 0.88755 0.0
O768 O 0.67349 0.53774 0.91358 0.0
N769 N 0.62997 0.58538 0.87513 0.0
C770 C 0.60931 0.59491 0.87663 0.0
C771 C 0.62299 0.62402 0.88844 0.0
C772 C 0.6561 0.60915 0.88664 0.0
N773 N 0.65229 0.63295 0.89474 0.0
C774 C 0.57817 0.50798 0.91088 0.0
C775 C 0.60938 0.54419 0.96101 0.0
C776 C 0.57852 0.52172 0.9648 0.0
C777 C 0.56339 0.50278 0.93949 0.0
C778 C 0.62348 0.54854 0.93185 0.0
N779 N 0.60761 0.53106 0.90687 0.0
H780 H 0.5648 0.49492 0.89132 0.0
H781 H 0.64655 0.56718 0.92914 0.0
H782 H 0.58527 0.58117 0.8714 0.0
H783 H 0.67683 0.60846 0.89093 0.0
O784 O 0.58153 0.53615 0.84744 0.0
O785 O 0.62472 0.5548 0.82064 0.0
O786 O 0.66523 0.55628 0.86937 0.0
C787 C 0.59596 0.54664 0.82129 0.0
H788 H 0.61966 0.44244 0.84808 0.0
H789 H 0.6117 0.63683 0.89419 0.0
H790 H 0.6222 0.55908 0.98007 0.0
H791 H 0.5395 0.48536 0.94109 0.0
Co792 Co 0.6339 0.87091 0.69372 0.0
C793 C 0.60338 0.80356 0.67903 0.0
C794 C 0.57476 0.82256 0.66922 0.0
C795 C 0.56022 0.79267 0.65917 0.0
N796 N 0.60163 0.82947 0.68244 0.0
N797 N 0.57837 0.7807 0.66482 0.0
H798 H 0.62324 0.80188 0.68486 0.0
H799 H 0.56674 0.83855 0.66555 0.0
C800 C 0.57641 0.86946 0.71954 0.0
O801 O 0.56693 0.84289 0.73312 0.0
N802 N 0.66623 0.91234 0.7043 0.0
C803 C 0.69646 0.92459 0.69904 0.0
C804 C 0.71177 0.9538 0.71097 0.0
C805 C 0.66378 0.93444 0.71984 0.0
N806 N 0.69124 0.96006 0.72397 0.0
C807 C 0.65418 0.84192 0.73707 0.0
C808 C 0.64409 0.8653 0.79081 0.0
C809 C 0.66071 0.84981 0.79273 0.0
C810 C 0.66517 0.83767 0.76533 0.0
C811 C 0.63357 0.86926 0.76183 0.0
N812 N 0.63874 0.85771 0.73522 0.0
H813 H 0.65998 0.83399 0.71639 0.0
H814 H 0.62293 0.88319 0.76079 0.0
H815 H 0.70705 0.91302 0.68797 0.0
H816 H 0.64252 0.93189 0.72844 0.0
O817 O 0.66292 0.86352 0.67102 0.0
O818 O 0.63613 0.88298 0.65079 0.0
O819 O 0.60245 0.88294 0.70611 0.0
C820 C 0.65606 0.8742 0.64674 0.0
H821 H 0.53803 0.78093 0.64816 0.0
H822 H 0.7363 0.96881 0.7112 0.0
H823 H 0.64058 0.87564 0.81127 0.0
H824 H 0.6779 0.82563 0.76556 0.0
Co825 Co 0.17699 0.76956 0.67958 0.0
C826 C 0.24531 0.80846 0.66965 0.0
C827 C 0.22719 0.76202 0.65512 0.0
C828 C 0.25774 0.77811 0.64764 0.0
N829 N 0.21926 0.78069 0.66965 0.0
N830 N 0.26921 0.80753 0.6563 0.0
H831 H 0.24666 0.82933 0.67766 0.0
H832 H 0.21158 0.73832 0.64945 0.0
C833 C 0.18371 0.71779 0.70701 0.0
O834 O 0.20992 0.73803 0.71929 0.0
N835 N 0.13478 0.75848 0.68876 0.0
C836 C 0.12267 0.77688 0.68579 0.0
C837 C 0.09313 0.76187 0.69679 0.0
C838 C 0.11227 0.73252 0.70197 0.0
N839 N 0.0865 0.73393 0.70688 0.0
C840 C 0.20189 0.81864 0.72326 0.0
C841 C 0.17545 0.78407 0.77583 0.0
C842 C 0.18845 0.81597 0.77759 0.0
C843 C 0.20259 0.83324 0.75105 0.0
C844 C 0.17505 0.77022 0.74734 0.0
N845 N 0.1879 0.78746 0.72124 0.0
H846 H 0.21061 0.83267 0.70284 0.0
H847 H 0.16238 0.74559 0.746 0.0
H848 H 0.13469 0.80015 0.67734 0.0
H849 H 0.11475 0.71323 0.70868 0.0
O850 O 0.18323 0.80551 0.65695 0.0
O851 O 0.16642 0.75981 0.63616 0.0
O852 O 0.16741 0.72692 0.69295 0.0
C853 C 0.1739 0.78829 0.6324 0.0
H854 H 0.27038 0.76862 0.63659 0.0
H855 H 0.07823 0.77146 0.6987 0.0
H856 H 0.16404 0.76983 0.79579 0.0
H857 H 0.21307 0.85794 0.75139 0.0
Co858 Co 0.27774 0.41348 0.68428 0.0
C859 C 0.24095 0.44478 0.67126 0.0
C860 C 0.28875 0.47358 0.66268 0.0
C861 C 0.27403 0.48915 0.65431 0.0
N862 N 0.26835 0.44593 0.67424 0.0
N863 N 0.24378 0.47098 0.65915 0.0
H864 H 0.21916 0.42475 0.67605 0.0
H865 H 0.31276 0.48166 0.65912 0.0
C866 C 0.33344 0.47004 0.71133 0.0
O867 O 0.31621 0.47786 0.72724 0.0
N868 N 0.28716 0.38121 0.6937 0.0
C869 C 0.26655 0.35115 0.69636 0.0
C870 C 0.2809 0.33603 0.70755 0.0
C871 C 0.31383 0.38389 0.70374 0.0
N872 N 0.31064 0.35658 0.71222 0.0
C873 C 0.23006 0.394 0.72914 0.0
C874 C 0.26428 0.39766 0.78054 0.0
C875 C 0.23225 0.38205 0.78334 0.0
C876 C 0.2153 0.38087 0.75712 0.0
C877 C 0.27825 0.4104 0.75187 0.0
N878 N 0.26113 0.40823 0.72638 0.0
H879 H 0.216 0.39013 0.70903 0.0
H880 H 0.30263 0.41996 0.7498 0.0
H881 H 0.24229 0.34105 0.69237 0.0
H882 H 0.33492 0.4054 0.70614 0.0
O883 O 0.24088 0.38393 0.66295 0.0
O884 O 0.2862 0.41166 0.64079 0.0
O885 O 0.32114 0.44509 0.69594 0.0
C886 C 0.25756 0.39093 0.63802 0.0
H887 H 0.28506 0.5122 0.64521 0.0
H888 H 0.26978 0.31207 0.71387 0.0
H889 H 0.27845 0.39904 0.80002 0.0
H890 H 0.19057 0.36808 0.75745 0.0
Co891 Co 0.55553 0.95177 0.15784 0.0
C892 C 0.6177 0.98536 0.12956 0.0
C893 C 0.61944 0.98855 0.17929 0.0
C894 C 0.64876 1.00543 0.16776 0.0
N895 N 0.59993 0.97622 0.15534 0.0
N896 N 0.64767 1.00371 0.13647 0.0
H897 H 0.60876 0.9795 0.10622 0.0
H898 H 0.61281 0.98563 0.20347 0.0
C899 C 0.54708 0.99657 0.19902 0.0
O900 O 0.53143 1.00196 0.17814 0.0
N901 N 0.51051 0.92627 0.16036 0.0
C902 C 0.49351 0.90068 0.14342 0.0
C903 C 0.46332 0.88775 0.15168 0.0
C904 C 0.48972 0.92808 0.17915 0.0
N905 N 0.46075 0.90491 0.17404 0.0
C906 C 0.53412 0.96633 0.10158 0.0
C907 C 0.57151 0.02915 0.10574 0.0
C908 C 0.55233 1.01695 0.07997 0.0
C909 C 0.53324 0.98514 0.07815 0.0
C910 C 0.57137 1.00962 0.12883 0.0
N911 N 0.55262 0.97857 0.12683 0.0
H912 H 0.5205 0.94188 0.09888 0.0
H913 H 0.58672 1.01956 0.14828 0.0
H914 H 0.50217 0.89173 0.12584 0.0
H915 H 0.49535 0.94511 0.1969 0.0
O916 O 0.55754 0.92138 0.13124 0.0
O917 O 0.5594 0.92215 0.18253 0.0
O918 O 0.55643 0.97771 0.19382 0.0
C919 C 0.56029 0.90913 0.15689 0.0
H920 H 0.66935 1.01773 0.18149 0.0
H921 H 0.4445 0.86733 0.14167 0.0
H922 H 0.58665 0.0536 0.10795 0.0
H923 H 0.51853 0.97483 0.05824 0.0
Co924 Co 0.10093 0.61885 0.15161 0.0
C925 C 0.06896 0.64719 0.11939 0.0
C926 C 0.06171 0.64459 0.16866 0.0
C927 C 0.04528 0.65664 0.15518 0.0
N928 N 0.07633 0.63839 0.14621 0.0
N929 N 0.04958 0.65813 0.12411 0.0
H930 H 0.07758 0.64536 0.09699 0.0
H931 H 0.06241 0.64008 0.1931 0.0
C932 C 0.05409 0.56553 0.19188 0.0
O933 O 0.04914 0.5444 0.17125 0.0
N934 N 0.12643 0.59959 0.15716 0.0
C935 C 0.15318 0.60831 0.14239 0.0
C936 C 0.16528 0.59073 0.15234 0.0
C937 C 0.12306 0.5766 0.17636 0.0
N938 N 0.14636 0.57065 0.1736 0.0
C939 C 0.09033 0.58315 0.09567 0.0
C940 C 1.02728 0.55564 0.09617 0.0
C941 C 0.04128 0.54911 0.07155 0.0
C942 C 0.07329 0.56312 0.07162 0.0
C943 C 0.04513 0.57583 0.11968 0.0
N944 N 0.07627 0.58887 0.11971 0.0
H945 H 0.11491 0.59463 0.09448 0.0
H946 H 0.03378 0.58096 0.13801 0.0
H947 H 0.16347 0.62619 0.12514 0.0
H948 H 0.10474 0.56494 0.19277 0.0
O949 O 0.13261 0.65125 0.126 0.0
O950 O 0.12917 0.6529 0.17697 0.0
O951 O 0.07318 0.59374 0.18679 0.0
C952 C 0.14355 0.66663 0.15173 0.0
H953 H 0.03047 0.66291 0.16735 0.0
H954 H 0.18629 0.59229 0.14419 0.0
H955 H 1.00266 0.54521 0.09738 0.0
H956 H 0.08518 0.55931 0.05276 0.0
Co957 Co 0.42709 0.49538 0.14887 0.0
C958 C 0.39979 0.43587 0.11428 0.0
C959 C 0.39045 0.4298 0.16321 0.0
C960 C 0.37653 0.40145 0.14925 0.0
N961 N 0.40506 0.45143 0.14137 0.0
N962 N 0.38234 0.40525 0.11851 0.0
H963 H 0.40837 0.44662 0.09195 0.0
H964 H 0.39002 0.43436 0.18768 0.0
C965 C 0.47952 0.50017 0.18873 0.0
O966 O 0.50076 0.52314 0.17272 0.0
N967 N 0.44876 0.53996 0.15651 0.0
C968 C 0.44657 0.56062 0.1384 0.0
C969 C 0.46521 0.58957 0.14975 0.0
C970 C 0.46791 0.55714 0.17981 0.0
N971 N 0.47902 0.58767 0.1757 0.0
C972 C 0.45936 0.51796 0.09056 0.0
C973 C 0.49304 0.48858 0.09414 0.0
C974 C 0.49816 0.50821 0.06898 0.0
C975 C 0.48044 0.52248 0.06709 0.0
C976 C 0.47173 0.4847 0.11709 0.0
N977 N 0.45613 0.50039 0.11594 0.0
H978 H 0.44516 0.52809 0.08782 0.0
H979 H 0.46751 0.46865 0.13562 0.0
H980 H 0.43221 0.55529 0.11816 0.0
H981 H 0.47293 0.54768 0.19989 0.0
O982 O 0.39545 0.49828 0.12542 0.0
O983 O 0.39454 0.49063 0.17594 0.0
O984 O 0.45131 0.48841 0.18178 0.0
C985 C 0.38078 0.49326 0.15173 0.0
H986 H 0.36371 0.37962 0.16091 0.0
H987 H 0.46876 0.61056 0.13918 0.0
H988 H 0.50548 0.47632 0.09617 0.0
H989 H 0.4823 0.53648 0.04725 0.0
Co990 Co 0.0915 0.49989 0.66227 0.0
C991 C 0.12591 0.56774 0.67658 0.0
C992 C 0.14183 0.5424 0.70275 0.0
C993 C 0.1574 0.57247 0.71241 0.0
N994 N 0.12202 0.53923 0.68015 0.0
N995 N 0.14753 0.58856 0.69585 0.0
H996 H 0.11329 0.57353 0.66054 0.0
H997 H 0.14414 0.52383 0.71229 0.0
C998 C 0.15244 0.508 0.64168 0.0
O999 O 0.16204 0.53673 0.63466 0.0
N1000 N 0.06087 0.46113 0.64456 0.0
C1001 C 0.03354 0.45571 0.63383 0.0
C1002 C 1.01998 0.42862 0.61767 0.0
C1003 C 0.06344 0.43695 0.63493 0.0
N1004 N 0.03884 0.41696 0.61811 0.0
C1005 C 0.07469 0.53355 0.62135 0.0
C1006 C 0.08677 0.51262 0.56695 0.0
C1007 C 0.06917 0.527 0.56569 0.0
C1008 C 0.0642 0.53856 0.59317 0.0
C1009 C 0.09766 0.50881 0.59564 0.0
N1010 N 0.09099 0.51859 0.62263 0.0
H1011 H 0.06731 0.53948 0.64242 0.0
H1012 H 0.10873 0.49526 0.59627 0.0
H1013 H 1.02457 0.47104 0.63651 0.0
H1014 H 0.0832 0.43446 0.63911 0.0
O1015 O 0.0595 0.50321 0.6843 0.0
O1016 O 0.08451 0.48105 0.70269 0.0
O1017 O 0.12473 0.49052 0.64999 0.0
C1018 C 0.0636 0.48845 0.70685 0.0
H1019 H 0.17379 0.58137 0.73117 0.0
H1020 H 0.99786 0.41821 0.60646 0.0
H1021 H 0.09069 0.50296 0.54619 0.0
H1022 H 0.05016 0.54922 0.59322 0.0
Co1023 Co 0.55203 0.60055 0.66419 0.0
C1024 C 0.48436 0.56222 0.67666 0.0
C1025 C 0.50283 0.6089 0.69038 0.0
C1026 C 0.47253 0.59291 0.6989 0.0
N1027 N 0.5103 0.58998 0.67563 0.0
N1028 N 0.46073 0.56342 0.69034 0.0
H1029 H 0.48321 0.5412 0.66961 0.0
H1030 H 0.51866 0.63259 0.69585 0.0
C1031 C 0.5473 0.65477 0.63953 0.0
O1032 O 0.52102 0.63625 0.62621 0.0
N1033 N 0.59401 0.61143 0.65358 0.0
C1034 C 0.6091 0.59695 0.66272 0.0
C1035 C 0.63816 0.61181 0.65056 0.0
C1036 C 0.61436 0.63484 0.63551 0.0
N1037 N 0.64145 0.63561 0.63352 0.0
C1038 C 0.52414 0.55184 0.62024 0.0
C1039 C 0.5459 0.58583 0.56659 0.0
C1040 C 0.53054 0.55372 0.56438 0.0
C1041 C 0.51931 0.53688 0.59178 0.0
C1042 C 0.54994 0.60006 0.59576 0.0
N1043 N 0.53928 0.58307 0.62236 0.0
H1044 H 0.51715 0.53784 0.64076 0.0
H1045 H 0.56295 0.62468 0.59683 0.0
H1046 H 0.59981 0.57657 0.67682 0.0
H1047 H 0.6096 0.65096 0.62382 0.0
O1048 O 0.54606 0.56409 0.68549 0.0
O1049 O 0.5635 0.60935 0.70746 0.0
O1050 O 0.56236 0.6438 0.6528 0.0
C1051 C 0.55614 0.58081 0.71033 0.0
H1052 H 0.46031 0.60229 0.71104 0.0
H1053 H 0.65522 0.60495 0.65303 0.0
H1054 H 0.55528 0.59985 0.54604 0.0
H1055 H 0.50827 0.51214 0.59156 0.0
Co1056 Co 0.44818 0.96217 0.67463 0.0
C1057 C 0.48749 0.93336 0.68738 0.0
C1058 C 0.44042 0.90439 0.69926 0.0
C1059 C 0.45621 0.8898 0.70743 0.0
N1060 N 0.45968 0.9315 0.68592 0.0
N1061 N 0.48596 0.9079 0.70009 0.0
H1062 H 0.50862 0.95346 0.68108 0.0
H1063 H 0.41648 0.89606 0.70376 0.0
C1064 C 0.39684 0.90364 0.64589 0.0
O1065 O 0.41669 0.89738 0.63308 0.0
N1066 N 0.43614 0.99249 0.66404 0.0
C1067 C 0.45007 0.02217 0.67282 0.0
C1068 C 0.43482 0.0358 0.6602 0.0
C1069 C 0.41263 0.98879 0.64577 0.0
N1070 N 0.41142 1.01488 0.6431 0.0
C1071 C 0.49882 0.98569 0.63243 0.0
C1072 C 0.46646 0.97581 0.57801 0.0
C1073 C 0.49852 0.99357 0.57689 0.0
C1074 C 0.51462 0.99762 0.60454 0.0
C1075 C 0.45147 0.96378 0.60646 0.0
N1076 N 0.46759 0.96905 0.63349 0.0
H1077 H 0.51202 0.99177 0.65348 0.0
H1078 H 0.42686 0.95172 0.6067 0.0
H1079 H 0.47042 0.0337 0.68685 0.0
H1080 H 0.39686 0.96767 0.63427 0.0
O1081 O 0.48289 0.99285 0.69797 0.0
O1082 O 0.43692 0.96282 0.71757 0.0
O1083 O 0.40618 0.92862 0.66084 0.0
C1084 C 0.46482 0.98478 0.72195 0.0
H1085 H 0.4464 0.86755 0.71833 0.0
H1086 H 0.44119 0.05965 0.66232 0.0
H1087 H 0.453 0.97192 0.5572 0.0
H1088 H 0.5393 1.01152 0.60499 0.0
Co1089 Co 0.16617 0.41785 0.19293 0.0
C1090 C 0.23414 0.44895 0.18299 0.0
C1091 C 0.21419 0.47364 0.16277 0.0
C1092 C 0.24445 0.48755 0.15398 0.0
N1093 N 0.20761 0.44957 0.18136 0.0
N1094 N 0.25695 0.47185 0.16645 0.0
H1095 H 0.23654 0.43124 0.19433 0.0
H1096 H 0.19771 0.47993 0.15503 0.0
C1097 C 0.17273 0.47731 0.21659 0.0
O1098 O 0.20047 0.48567 0.22628 0.0
N1099 N 0.1246 0.3857 0.20353 0.0
C1100 C 0.10936 0.35721 0.19135 0.0
C1101 C 0.08075 0.34145 0.20434 0.0
C1102 C 0.10478 0.38649 0.22433 0.0
N1103 N 0.07783 0.3598 0.22498 0.0
C1104 C 0.19331 0.39452 0.23507 0.0
C1105 C 0.17656 0.4103 0.28996 0.0
C1106 C 0.19035 0.39206 0.2912 0.0
C1107 C 0.19925 0.3848 0.26322 0.0
C1108 C 0.17153 0.42018 0.26109 0.0
N1109 N 0.17972 0.41212 0.23391 0.0
H1110 H 0.19877 0.38668 0.21407 0.0
H1111 H 0.15982 0.4331 0.26081 0.0
H1112 H 0.1182 0.34784 0.17444 0.0
H1113 H 0.10978 0.40602 0.23869 0.0
O1114 O 0.17267 0.3889 0.16912 0.0
O1115 O 0.15374 0.41664 0.15019 0.0
O1116 O 0.15554 0.44999 0.2068 0.0
C1117 C 0.16215 0.39652 0.14527 0.0
H1118 H 0.25616 0.50742 0.13913 0.0
H1119 H 0.06366 0.31789 0.19971 0.0
H1120 H 0.16928 0.41647 0.31107 0.0
H1121 H 0.20951 0.3704 0.26295 0.0
Co1122 Co 0.62441 0.76411 0.20814 0.0
C1123 C 0.6029 0.80535 0.1829 0.0
C1124 C 0.57358 0.75885 0.16915 0.0
C1125 C 0.56195 0.77647 0.15742 0.0
N1126 N 0.5991 0.77692 0.18559 0.0
N1127 N 0.58044 0.8057 0.16624 0.0
H1128 H 0.62172 0.82573 0.1925 0.0
H1129 H 0.56375 0.73444 0.16618 0.0
C1130 C 0.57942 0.69803 0.22955 0.0
O1131 O 0.59838 0.69767 0.25008 0.0
N1132 N 0.65086 0.75264 0.23076 0.0
C1133 C 0.66959 0.76946 0.25412 0.0
C1134 C 0.68462 0.75538 0.26551 0.0
C1135 C 0.65654 0.72918 0.22705 0.0
N1136 N 0.67632 0.72993 0.24887 0.0
C1137 C 0.63837 0.81441 0.24848 0.0
C1138 C 0.61249 0.7807 0.30162 0.0
C1139 C 0.63229 0.81237 0.30414 0.0
C1140 C 0.64408 0.82934 0.27697 0.0
C1141 C 0.60636 0.76664 0.27228 0.0
N1142 N 0.62047 0.78329 0.24622 0.0
H1143 H 0.65148 0.82784 0.22896 0.0
H1144 H 0.59238 0.74216 0.2712 0.0
H1145 H 0.67283 0.79099 0.26243 0.0
H1146 H 0.64568 0.71148 0.20965 0.0
O1147 O 0.66106 0.79855 0.1909 0.0
O1148 O 0.63486 0.75285 0.16903 0.0
O1149 O 0.58551 0.723 0.21578 0.0
C1150 C 0.65766 0.78069 0.16766 0.0
H1151 H 0.54094 0.7682 0.14445 0.0
H1152 H 0.70103 0.76359 0.28432 0.0
H1153 H 0.60306 0.76679 0.32222 0.0
H1154 H 0.66008 0.85372 0.27799 0.0
Co1155 Co 0.28494 0.88111 0.1904 0.0
C1156 C 0.24787 0.81347 0.17863 0.0
C1157 C 0.29072 0.83428 0.15466 0.0
C1158 C 0.27391 0.80402 0.14565 0.0
N1159 N 0.27457 0.84029 0.17563 0.0
N1160 N 0.24683 0.79098 0.16059 0.0
H1161 H 0.22876 0.81044 0.19238 0.0
H1162 H 0.31291 0.85104 0.14577 0.0
C1163 C 0.33777 0.87282 0.21072 0.0
O1164 O 0.31832 0.8443 0.21819 0.0
N1165 N 0.29423 0.92154 0.20494 0.0
C1166 C 0.27405 0.93168 0.20481 0.0
C1167 C 0.28549 0.95799 0.22194 0.0
C1168 C 0.31788 0.94216 0.22261 0.0
N1169 N 0.3129 0.96457 0.23329 0.0
C1170 C 0.23537 0.85183 0.23329 0.0
C1171 C 0.26948 0.86789 0.28714 0.0
C1172 C 0.23756 0.85399 0.28937 0.0
C1173 C 0.22053 0.84535 0.26196 0.0
C1174 C 0.28351 0.87334 0.25779 0.0
N1175 N 0.26647 0.86535 0.23116 0.0
H1176 H 0.22161 0.84718 0.21273 0.0
H1177 H 0.30812 0.88568 0.25672 0.0
H1178 H 0.25156 0.92003 0.19455 0.0
H1179 H 0.33731 0.93992 0.22919 0.0
O1180 O 0.24939 0.87677 0.16818 0.0
O1181 O 0.29577 0.89628 0.14826 0.0
O1182 O 0.32771 0.89055 0.20264 0.0
C1183 C 0.26743 0.88892 0.14447 0.0
H1184 H 0.28107 0.79263 0.1292 0.0
H1185 H 0.27406 0.9709 0.22655 0.0
H1186 H 0.2835 0.87529 0.30783 0.0
H1187 H 0.19591 0.83522 0.2626 0.0
C1188 C 0.36583 0.20363 0.90384 0.0
C1189 C 0.36652 0.22434 0.88166 0.0
C1190 C 0.35126 0.20003 0.9326 0.0
C1191 C 0.3364 0.2166 0.93989 0.0
H1192 H 0.37784 0.19124 0.89958 0.0
H1193 H 0.35202 0.18445 0.9494 0.0
S1194 S 0.32932 0.27154 0.88826 0.0
N1195 N 0.34954 0.26016 0.86794 0.0
N1196 N 0.32169 0.25299 0.92161 0.0
C1197 C 0.33564 0.2362 0.91721 0.0
C1198 C 0.35085 0.2402 0.8882 0.0
C1199 C 0.82169 0.11381 0.92861 0.0
C1200 C 0.84067 0.13407 0.95171 0.0
C1201 C 0.8165 0.12473 0.90065 0.0
C1202 C 0.83085 0.15627 0.89431 0.0
H1203 H 0.80975 0.08935 0.93261 0.0
H1204 H 0.8008 0.10833 0.88398 0.0
S1205 S 0.88458 0.21876 0.94598 0.0
N1206 N 0.87492 0.18718 0.96583 0.0
N1207 N 0.86604 0.20759 0.91265 0.0
C1208 C 0.85102 0.17674 0.91651 0.0
C1209 C 0.85567 0.16567 0.94541 0.0
C1210 C 0.92462 0.69515 0.88266 0.0
C1211 C 0.89335 0.67911 0.87525 0.0
C1212 C 0.93495 0.71042 0.91107 0.0
C1213 C 0.91432 0.70954 0.93356 0.0
H1214 H 0.94124 0.69549 0.8665 0.0
H1215 H 0.95924 0.72209 0.91585 0.0
S1216 S 0.82997 0.67084 0.92528 0.0
N1217 N 0.84182 0.6638 0.89218 0.0
N1218 N 0.86106 0.69182 0.94608 0.0
C1219 C 0.88295 0.69395 0.92624 0.0
C1220 C 0.8725 0.67893 0.89693 0.0
C1221 C 0.24442 0.37601 0.55151 0.0
C1222 C 0.22557 0.34406 0.55027 0.0
C1223 C 0.25449 0.39118 0.58011 0.0
C1224 C 0.24511 0.37497 0.6083 0.0
H1225 H 0.25245 0.38916 0.53025 0.0
H1226 H 0.26983 0.41571 0.58018 0.0
S1227 S 0.19463 0.29121 0.61735 0.0
N1228 N 0.19767 0.29677 0.57943 0.0
N1229 N 0.21504 0.32542 0.63314 0.0
C1230 C 0.22527 0.34319 0.6073 0.0
C1231 C 0.21591 0.32767 0.57825 0.0
C1232 C 0.67451 0.90125 0.59617 0.0
C1233 C 0.67136 0.87799 0.6164 0.0
C1234 C 0.69044 0.90685 0.5681 0.0
C1235 C 0.70322 0.88894 0.55877 0.0
H1236 H 0.66536 0.91589 0.60244 0.0
H1237 H 0.69289 0.9255 0.55362 0.0
S1238 S 0.69992 0.82409 0.60245 0.0
N1239 N 0.68155 0.83625 0.62477 0.0
N1240 N 0.71083 0.84631 0.5714 0.0
C1241 C 0.69938 0.86492 0.57821 0.0
C1242 C 0.68368 0.85961 0.60722 0.0
C1243 C 0.14034 0.79138 0.55473 0.0
C1244 C 0.1577 0.82243 0.5463 0.0
C1245 C 0.14662 0.78033 0.58198 0.0
C1246 C 0.16996 0.80006 0.60228 0.0
H1247 H 0.12152 0.77551 0.54025 0.0
H1248 H 0.13231 0.75634 0.58774 0.0
S1249 S 0.22264 0.88319 0.59042 0.0
N1250 N 0.20001 0.87253 0.55976 0.0
N1251 N 0.21125 0.85201 0.61157 0.0
C1252 C 0.18785 0.83108 0.59388 0.0
C1253 C 0.1819 0.8422 0.56571 0.0
C1254 C 0.68145 0.80382 0.08427 0.0
C1255 C 0.71243 0.81175 0.08403 0.0
C1256 C 0.66394 0.79376 0.11153 0.0
C1257 C 0.67697 0.7921 0.13971 0.0
H1258 H 0.67032 0.80444 0.06302 0.0
H1259 H 0.64 0.78721 0.11058 0.0
S1260 S 0.7572 0.81172 0.15229 0.0
N1261 N 0.75547 0.81785 0.11485 0.0
N1262 N 0.72264 0.80006 0.16631 0.0
C1263 C 0.70803 0.80086 0.14018 0.0
C1264 C 0.72574 0.8104 0.11226 0.0
C1265 C 0.23278 0.92009 0.08717 0.0
C1266 C 0.23842 0.91078 0.05833 0.0
C1267 C 0.24128 0.91198 0.1151 0.0
C1268 C 0.25669 0.89525 0.11502 0.0
H1269 H 0.22144 0.93348 0.08815 0.0
H1270 H 0.23653 0.91958 0.13683 0.0
S1271 S 0.27705 0.86563 0.04577 0.0
N1272 N 0.25974 0.88338 0.03145 0.0
N1273 N 0.27715 0.86955 0.08386 0.0
C1274 C 0.26263 0.88598 0.08638 0.0
C1275 C 0.25309 0.89336 0.05802 0.0
C1276 C 0.12738 0.36286 0.06693 0.0
C1277 C 0.14293 0.3475 0.05819 0.0
C1278 C 0.13466 0.3797 0.09461 0.0
C1279 C 0.15709 0.38094 0.11492 0.0
H1280 H 0.10931 0.36163 0.05237 0.0
H1281 H 0.12186 0.39094 0.10062 0.0
S1282 S 0.20386 0.3439 0.10242 0.0
N1283 N 0.18178 0.33458 0.07141 0.0
N1284 N 0.19489 0.36533 0.12403 0.0
C1285 C 0.17287 0.36568 0.10624 0.0
C1286 C 0.16592 0.34917 0.07769 0.0
C1287 C 0.83789 0.69624 0.42956 0.0
C1288 C 0.81885 0.70709 0.44075 0.0
C1289 C 0.83059 0.67863 0.40224 0.0
C1290 C 0.80346 0.6704 0.38592 0.0
H1291 H 0.85859 0.70146 0.44196 0.0
H1292 H 0.84577 0.67065 0.39437 0.0
S1293 S 0.74587 0.69279 0.40554 0.0
N1294 N 0.77202 0.70868 0.43296 0.0
N1295 N 0.75777 0.67465 0.38257 0.0
C1296 C 0.78428 0.68106 0.39689 0.0
C1297 C 0.79212 0.69966 0.42406 0.0
C1298 C 0.35158 0.1039 0.43671 0.0
C1299 C 0.3411 0.12182 0.4514 0.0
C1300 C 0.37036 0.11464 0.41034 0.0
C1301 C 0.37846 0.14323 0.39725 0.0
H1302 H 0.34587 0.08175 0.44612 0.0
H1303 H 0.37823 0.10029 0.39986 0.0
S1304 S 0.3562 0.19842 0.42653 0.0
N1305 N 0.34016 0.16945 0.45113 0.0
N1306 N 0.37428 0.18907 0.40064 0.0
C1307 C 0.36763 0.16109 0.41137 0.0
C1308 C 0.34927 0.15054 0.43875 0.0
C1309 C 0.93668 0.26173 0.45974 0.0
C1310 C 0.92 0.23246 0.47297 0.0
C1311 C 0.92659 0.26923 0.43256 0.0
C1312 C 0.90004 0.24737 0.4171 0.0
H1313 H 0.95779 0.27888 0.47037 0.0
H1314 H 0.94038 0.29195 0.4229 0.0
S1315 S 0.8484 0.16742 0.44235 0.0
N1316 N 0.87536 0.1817 0.46917 0.0
N1317 N 0.85709 0.19537 0.41725 0.0
C1318 C 0.88307 0.21806 0.43021 0.0
C1319 C 0.89287 0.21072 0.45841 0.0
C1320 C 0.99194 0.53157 0.25341 0.0
C1321 C 1.00824 0.54473 0.28093 0.0
C1322 C 1.00709 0.53709 0.22468 0.0
C1323 C 0.03884 0.55685 0.22249 0.0
H1324 H 0.96731 0.51719 0.25407 0.0
H1325 H 0.99374 0.52692 0.20391 0.0
S1326 S 0.09183 0.59674 0.28777 0.0
N1327 N 0.05787 0.57741 0.3043 0.0
N1328 N 0.0861 0.58903 0.25031 0.0
C1329 C 0.05535 0.56983 0.24991 0.0
C1330 C 0.0401 0.56343 0.27916 0.0
C1331 C 0.50954 0.50837 0.23765 0.0
C1332 C 0.48747 0.4883 0.21644 0.0
C1333 C 0.51417 0.49767 0.26612 0.0
C1334 C 0.49735 0.46642 0.27399 0.0
H1335 H 0.52241 0.53262 0.23279 0.0
H1336 H 0.53086 0.51401 0.28214 0.0
S1337 S 0.43859 0.40424 0.22515 0.0
N1338 N 0.44981 0.43561 0.20446 0.0
N1339 N 0.45885 0.41537 0.25744 0.0
C1340 C 0.47615 0.44598 0.25234 0.0
C1341 C 0.47112 0.45695 0.2237 0.0
C1342 C 0.55335 0.9958 0.25628 0.0
C1343 C 0.55443 1.01219 0.2294 0.0
C1344 C 0.56359 1.01055 0.28498 0.0
C1345 C 0.57613 0.04231 0.28748 0.0
H1346 H 0.54494 0.97142 0.25502 0.0
H1347 H 0.56283 0.99723 0.30504 0.0
S1348 S 0.58287 0.09549 0.22471 0.0
N1349 N 0.56746 0.06168 0.20761 0.0
N1350 N 0.58788 0.0896 0.26143 0.0
C1351 C 0.57675 0.05891 0.26108 0.0
C1352 C 0.56553 0.04377 0.23202 0.0
C1353 C 0.49729 0.0334 0.75099 0.0
C1354 C 0.47444 1.0023 0.75144 0.0
C1355 C 0.50467 0.05153 0.7778 0.0
C1356 C 0.49016 0.03902 0.80622 0.0
H1357 H 0.50889 0.04413 0.72953 0.0
H1358 H 0.52185 0.07555 0.7763 0.0
S1359 S 0.43031 0.9587 0.82061 0.0
N1360 N 0.43798 0.95971 0.78318 0.0
N1361 N 0.45296 0.99368 0.83382 0.0
C1362 C 0.46814 1.00784 0.8074 0.0
C1363 C 0.45999 0.9895 0.77993 0.0
C1364 C 0.03704 0.45075 0.74928 0.0
C1365 C 0.04461 0.47888 0.73533 0.0
C1366 C 1.01918 0.44074 0.77629 0.0
C1367 C 1.00901 0.4589 0.79097 0.0
H1368 H 0.04465 0.43611 0.73899 0.0
H1369 H 1.01373 0.41879 0.78606 0.0
S1370 S 1.02271 0.53453 0.76405 0.0
N1371 N 0.04019 0.52462 0.73797 0.0
N1372 N 1.00763 0.50633 0.78961 0.0
C1373 C 1.01662 0.48722 0.77751 0.0
C1374 C 0.03412 0.49706 0.74942 0.0
C1375 C 0.57679 0.57716 0.79423 0.0
C1376 C 0.58147 0.55199 0.79433 0.0
C1377 C 0.56749 0.58568 0.76718 0.0
C1378 C 0.56215 0.56904 0.73943 0.0
H1379 H 0.58165 0.59119 0.81478 0.0
H1380 H 0.56521 0.6059 0.76784 0.0
S1381 S 0.56922 0.49975 0.72878 0.0
N1382 N 0.57908 0.50975 0.7653 0.0
N1383 N 0.56058 0.52488 0.71453 0.0
C1384 C 0.56538 0.54284 0.7398 0.0
C1385 C 0.5754 0.53459 0.76724 0.0
C1386 C 0.39572 0.38029 0.07668 0.0
C1387 C 0.37368 0.38097 0.09605 0.0
C1388 C 0.38873 0.35423 0.05878 0.0
C1389 C 0.35932 0.3279 0.05917 0.0
H1390 H 0.41893 0.39934 0.07674 0.0
H1391 H 0.40686 0.35424 0.04535 0.0
S1392 S 0.29246 0.3204 0.10283 0.0
N1393 N 0.32064 0.3547 0.11224 0.0
N1394 N 0.30729 0.30603 0.07851 0.0
C1395 C 0.33657 0.32938 0.07678 0.0
C1396 C 0.34384 0.35577 0.09529 0.0
C1397 C 0.69869 1.01714 0.06704 0.0
C1398 C 0.72386 0.04662 0.07245 0.0
C1399 C 0.67386 1.00346 0.08779 0.0
C1400 C 0.67313 1.01852 0.11498 0.0
H1401 H 0.69838 1.00423 0.04687 0.0
H1402 H 0.65534 0.98061 0.08281 0.0
S1403 S 0.73177 0.09711 0.13865 0.0
N1404 N 0.74535 0.09113 0.10617 0.0
N1405 N 0.69897 0.06547 0.14511 0.0
C1406 C 0.69786 0.04821 0.12044 0.0
C1407 C 0.72311 0.06218 0.09924 0.0
C1408 C 1.00922 0.69736 0.08947 0.0
C1409 C 1.0002 0.68384 0.05997 0.0
C1410 C 1.02598 0.68945 0.10979 0.0
C1411 C 0.0347 0.6678 0.1015 0.0
H1412 H 1.00238 0.71343 0.09734 0.0
H1413 H 0.0319 0.70022 0.13239 0.0
S1414 S 1.01927 0.62817 0.02537 0.0
N1415 N 1.00326 0.64966 0.02242 0.0
N1416 N 0.0341 0.63426 0.06055 0.0
C1417 C 1.02677 0.655 0.07149 0.0
C1418 C 1.00964 0.66307 0.05084 0.0
C1419 C 0.33541 0.35827 0.41101 0.0
C1420 C 0.33753 0.34203 0.43652 0.0
C1421 C 0.36123 0.37725 0.39281 0.0
C1422 C 0.39002 0.38033 0.39911 0.0
H1423 H 0.31399 0.35741 0.406 0.0
H1424 H 0.35882 0.39012 0.374 0.0
S1425 S 0.40706 0.34092 0.46209 0.0
N1426 N 0.37024 0.32884 0.46604 0.0
N1427 N 0.41863 0.36453 0.43216 0.0
C1428 C 0.39207 0.36318 0.42379 0.0
C1429 C 0.36589 0.34408 0.44241 0.0
C1430 C 0.68722 0.98745 0.42226 0.0
C1431 C 0.7042 1.00583 0.44745 0.0
C1432 C 0.66892 0.99511 0.40404 0.0
C1433 C 0.66716 0.02168 0.40996 0.0
H1434 H 0.68709 0.96633 0.4174 0.0
H1435 H 0.65556 0.97981 0.38546 0.0
S1436 S 0.70906 0.07868 0.4718 0.0
N1437 N 0.71965 0.05279 0.47611 0.0
N1438 N 0.68506 0.06695 0.44226 0.0
C1439 C 0.685 0.04087 0.43432 0.0
C1440 C 0.7035 0.03298 0.45298 0.0
C1441 C 1.00848 0.65934 0.41588 0.0
C1442 C 1.02806 0.66076 0.39189 0.0
C1443 C 1.01597 0.68494 0.43468 0.0
C1444 C 0.04309 0.71308 0.42998 0.0
H1445 H 0.9881 0.63786 0.42126 0.0
H1446 H 1.00083 0.68249 0.45365 0.0
S1447 S 0.10074 0.72936 0.36856 0.0
N1448 N 0.07466 0.69311 0.36313 0.0
N1449 N 0.08871 0.74108 0.39838 0.0
C1450 C 0.06202 0.7152 0.40503 0.0
C1451 C 0.05453 0.68908 0.38608 0.0
C1452 C 0.66945 0.65484 0.94661 0.0
C1453 C 0.6713 0.65861 0.91422 0.0
C1454 C 0.68063 0.68022 0.96654 0.0
C1455 C 0.69441 0.71022 0.95474 0.0
H1456 H 0.65737 0.63203 0.95644 0.0
H1457 H 0.67732 0.67638 0.99132 0.0
S1458 S 0.70559 0.73213 0.87167 0.0
N1459 N 0.68838 0.69435 0.87124 0.0
N1460 N 0.71024 0.74219 0.90865 0.0
C1461 C 0.69785 0.7143 0.92243 0.0
C1462 C 0.68601 0.68843 0.90217 0.0
C1463 C 0.34198 0.99354 0.90694 0.0
C1464 C 0.33238 0.99239 0.93797 0.0
C1465 C 0.37274 1.01188 0.89825 0.0
C1466 C 0.39495 0.02956 0.92034 0.0
H1467 H 0.32577 0.97893 0.88956 0.0
H1468 H 0.37957 1.01036 0.87478 0.0
S1469 S 0.38146 0.03791 1.00344 0.0
N1470 N 0.34727 1.01311 0.98993 0.0
N1471 N 0.40508 0.04751 0.97362 0.0
C1472 C 0.38532 0.03054 0.95078 0.0
C1473 C 0.35402 1.01202 0.95961 0.0
C1474 C 0.04305 0.34382 0.91415 0.0
C1475 C 0.05739 0.35056 0.9434 0.0
C1476 C 1.02749 0.35866 0.90359 0.0
C1477 C 1.02641 0.38122 0.92172 0.0
H1478 H 0.04573 0.32846 0.89858 0.0
H1479 H 1.01853 0.3544 0.88017 0.0
S1480 S 0.05763 0.40485 1.00114 0.0
N1481 N 0.06718 0.37908 0.99127 0.0
N1482 N 0.03836 0.40741 0.97142 0.0
C1483 C 0.03882 0.38656 0.95184 0.0
C1484 C 0.05423 0.37111 0.96269 0.0
C1485 C 0.66317 0.65642 0.58192 0.0
C1486 C 0.66726 0.65464 0.61397 0.0
C1487 C 0.68836 0.67 0.56165 0.0
C1488 C 0.71849 0.683 0.57285 0.0
H1489 H 0.64032 0.64557 0.57231 0.0
H1490 H 0.68433 0.66938 0.53691 0.0
S1491 S 0.74144 0.6863 0.65497 0.0
N1492 N 0.70369 0.66831 0.6561 0.0
N1493 N 0.75098 0.69459 0.61807 0.0
C1494 C 0.72289 0.68291 0.60498 0.0
C1495 C 0.69728 0.66851 0.62552 0.0
C1496 C 0.37795 0.03697 0.63463 0.0
C1497 C 0.39224 0.02109 0.62313 0.0
C1498 C 0.36323 0.0476 0.6146 0.0
C1499 C 0.36295 0.0433 0.58234 0.0
H1500 H 0.37915 0.04211 0.65916 0.0
H1501 H 0.35379 0.06098 0.62411 0.0
S1502 S 0.39646 1.00274 0.54068 0.0
N1503 N 0.40411 1.0007 0.57759 0.0
N1504 N 0.37729 0.02137 0.53996 0.0
C1505 C 0.37625 0.02661 0.57074 0.0
C1506 C 0.39066 1.01529 0.59112 0.0
C1507 C 0.03496 0.36642 0.623 0.0
C1508 C 0.03235 0.38809 0.60479 0.0
C1509 C 1.02218 0.33592 0.61308 0.0
C1510 C 1.00699 0.32621 0.58437 0.0
H1511 H 0.04478 0.37252 0.64602 0.0
H1512 H 1.02232 0.31925 0.62882 0.0
S1513 S 0.99798 0.37503 0.52625 0.0
N1514 N 1.0164 0.39854 0.55525 0.0
N1515 N 0.99268 0.3412 0.53672 0.0
C1516 C 1.00654 0.34819 0.5649 0.0
C1517 C 1.01914 0.37914 0.5751 0.0
C1518 C 0.03499 0.67953 0.76857 0.0
C1519 C 1.00602 0.67546 0.76089 0.0
C1520 C 0.06092 0.69745 0.75013 0.0
C1521 C 0.05907 0.7123 0.72329 0.0
H1522 H 0.03779 0.66923 0.78944 0.0
H1523 H 0.08281 0.70077 0.75766 0.0
S1524 S 0.98852 0.70689 0.69099 0.0
N1525 N 0.97702 0.6865 0.72322 0.0
N1526 N 1.02555 0.7196 0.68841 0.0
C1527 C 0.03009 0.70732 0.71451 0.0
C1528 C 1.00364 0.68901 0.73325 0.0
C1529 C 0.37004 0.36425 0.77004 0.0
C1530 C 0.3707 0.33686 0.76606 0.0
C1531 C 0.3515 0.37126 0.75143 0.0
C1532 C 0.33251 0.35095 0.72832 0.0
H1533 H 0.38359 0.38015 0.78813 0.0
H1534 H 0.35104 0.3921 0.75608 0.0
S1535 S 0.32684 0.27694 0.70734 0.0
N1536 N 0.35147 0.28987 0.73635 0.0
N1537 N 0.31684 0.30308 0.70132 0.0
C1538 C 0.33369 0.32396 0.72341 0.0
C1539 C 0.35276 0.31693 0.74221 0.0
C1540 C 0.69233 1.01079 0.78885 0.0
C1541 C 0.71589 0.04014 0.77993 0.0
C1542 C 0.68351 0.98494 0.76997 0.0
C1543 C 0.69804 0.98726 0.74144 0.0
H1544 H 0.68079 1.00764 0.81087 0.0
H1545 H 0.66597 0.9628 0.7783 0.0
S1546 S 0.7588 0.05875 0.70556 0.0
N1547 N 0.75228 0.06987 0.73935 0.0
N1548 N 0.73524 0.02146 0.70386 0.0
C1549 C 0.72069 1.01652 0.73158 0.0
C1550 C 0.72967 0.04289 0.75074 0.0
C1551 C 0.33029 0.02425 0.29364 0.0
C1552 C 0.36003 0.04715 0.28575 0.0
C1553 C 0.31602 0.99597 0.27831 0.0
C1554 C 0.33085 0.98952 0.25428 0.0
H1555 H 0.31714 0.02924 0.31008 0.0
H1556 H 0.29238 0.97979 0.28376 0.0
S1557 S 0.41008 0.0405 0.22713 0.0
N1558 N 0.40487 0.06054 0.25436 0.0
N1559 N 0.37801 1.00719 0.22546 0.0
C1560 C 0.36153 1.01112 0.24804 0.0
C1561 C 0.37612 0.04003 0.26377 0.0
C1562 C 0.05586 0.35135 0.27775 0.0
C1563 C 0.05203 0.35053 0.24539 0.0
C1564 C 0.03046 0.33678 0.29772 0.0
C1565 C 1.00038 0.32153 0.28603 0.0
H1566 H 0.07864 0.36177 0.2875 0.0
H1567 H 0.0343 0.33669 0.32244 0.0
S1568 S 0.97826 0.31446 0.20319 0.0
N1569 N 1.016 0.33428 0.20266 0.0
N1570 N 0.96837 0.30761 0.24014 0.0
C1571 C 0.99631 0.3219 0.25384 0.0
C1572 C 1.02211 0.3362 0.23354 0.0
C1573 C 0.70859 0.68824 0.29255 0.0
C1574 C 0.72401 0.68201 0.26914 0.0
C1575 C 0.69096 0.70185 0.28537 0.0
C1576 C 0.68778 0.70931 0.25453 0.0
H1577 H 0.71188 0.6845 0.31665 0.0
H1578 H 0.68098 0.70809 0.30424 0.0
S1579 S 0.71966 0.69309 0.18448 0.0
N1580 N 0.73193 0.68075 0.21358 0.0
N1581 N 0.6989 0.70648 0.2003 0.0
C1582 C 0.70097 0.70083 0.23076 0.0
C1583 C 0.71912 0.6872 0.23804 0.0
C1584 C 0.35676 0.16776 0.1536 0.0
C1585 C 0.34818 0.18969 0.14663 0.0
C1586 C 0.37412 0.17044 0.18013 0.0
C1587 C 0.38406 0.1954 0.20066 0.0
H1588 H 0.34998 0.14835 0.13835 0.0
H1589 H 0.37943 0.15251 0.1848 0.0
S1590 S 0.36995 0.26052 0.19116 0.0
N1591 N 0.35206 0.23787 0.16148 0.0
N1592 N 0.38529 0.24346 0.21084 0.0
C1593 C 0.37599 0.21776 0.19359 0.0
C1594 C 0.35796 0.21477 0.16676 0.0
C1595 C 0.83331 0.1549 0.17847 0.0
C1596 C 0.85894 0.16221 0.15979 0.0
C1597 C 0.83571 0.17205 0.20519 0.0
C1598 C 0.86369 0.19774 0.21388 0.0
H1599 H 0.81113 0.13595 0.17213 0.0
H1600 H 0.81535 0.16551 0.21886 0.0
S1601 S 0.93763 0.22636 0.17275 0.0
N1602 N 0.91319 0.1966 0.15194 0.0
N1603 N 0.91773 0.22911 0.20176 0.0
C1604 C 0.8895 0.20522 0.19536 0.0
C1605 C 0.88712 0.18742 0.16845 0.0
C1606 C 0.87401 0.68905 0.19452 0.0
C1607 C 0.85287 0.65735 0.1934 0.0
C1608 C 0.88952 0.70552 0.16777 0.0
C1609 C 0.88439 0.69101 0.13875 0.0
H1610 H 0.87798 0.70146 0.21612 0.0
H1611 H 0.90496 0.72995 0.16966 0.0
S1612 S 0.83429 0.60793 0.1238 0.0
N1613 N 0.82973 0.61178 0.16117 0.0
N1614 N 0.85867 0.6426 0.11101 0.0
C1615 C 0.86413 0.65918 0.1375 0.0
C1616 C 0.84841 0.64242 0.16472 0.0
C1617 C 0.22647 0.3672 0.35432 0.0
C1618 C 0.20167 0.34851 0.37386 0.0
C1619 C 0.2228 0.3819 0.32827 0.0
C1620 C 0.19431 0.37903 0.32092 0.0
H1621 H 0.24875 0.36978 0.35866 0.0
H1622 H 0.24239 0.39534 0.31348 0.0
S1623 S 0.12242 0.33406 0.36542 0.0
N1624 N 0.14781 0.32893 0.38461 0.0
N1625 N 0.141 0.35662 0.33586 0.0
C1626 C 0.16953 0.36116 0.34077 0.0
C1627 C 0.17317 0.34586 0.36709 0.0
C1628 C 0.6802 0.83637 0.37738 0.0
C1629 C 0.67982 0.86297 0.38645 0.0
C1630 C 0.66282 0.81876 0.35202 0.0
C1631 C 0.64488 0.82743 0.33448 0.0
H1632 H 0.69452 0.8295 0.38961 0.0
H1633 H 0.6647 0.79913 0.34507 0.0
S1634 S 0.63551 0.89467 0.34915 0.0
N1635 N 0.65916 0.8965 0.37662 0.0
N1636 N 0.62714 0.86386 0.32851 0.0
C1637 C 0.64373 0.85353 0.34381 0.0
C1638 C 0.66101 0.87116 0.36991 0.0
C1639 C 0.17962 0.8188 0.35511 0.0
C1640 C 0.18518 0.84439 0.37308 0.0
C1641 C 0.19732 0.82191 0.32867 0.0
C1642 C 0.2217 0.85061 0.31956 0.0
H1643 H 0.16075 0.79638 0.3609 0.0
H1644 H 0.19154 0.80178 0.31489 0.0
S1645 S 0.24671 0.92445 0.35957 0.0
N1646 N 0.2175 0.8992 0.38047 0.0
N1647 N 0.25094 0.90493 0.33112 0.0
C1648 C 0.22815 0.87617 0.33793 0.0
C1649 C 0.20984 0.8731 0.36455 0.0
C1650 C 0.70593 0.85554 0.82339 0.0
C1651 C 0.67489 0.84759 0.82252 0.0
C1652 C 0.7198 0.85341 0.85096 0.0
C1653 C 0.70325 0.84315 0.87894 0.0
H1654 H 0.7198 0.8639 0.80262 0.0
H1655 H 0.74385 0.86039 0.85043 0.0
S1656 S 0.62044 0.81634 0.88834 0.0
N1657 N 0.62762 0.82724 0.85169 0.0
N1658 N 0.65321 0.82261 0.90314 0.0
C1659 C 0.67196 0.8344 0.87813 0.0
C1660 C 0.65795 0.83681 0.85012 0.0
C1661 C 0.19561 0.84238 0.86178 0.0
C1662 C 0.18377 0.86252 0.86125 0.0
C1663 C 0.19651 0.82697 0.83492 0.0
C1664 C 0.18597 0.83129 0.80625 0.0
H1665 H 0.20489 0.83891 0.88304 0.0
H1666 H 0.20621 0.81212 0.83646 0.0
S1667 S 0.15029 0.87912 0.79243 0.0
N1668 N 0.15929 0.88404 0.82965 0.0
N1669 N 0.1616 0.85566 0.77921 0.0
C1670 C 0.17358 0.85086 0.8054 0.0
C1671 C 0.1724 0.86635 0.8328 0.0
C1672 C 0.22647 0.34706 0.82814 0.0
C1673 C 0.21632 0.36485 0.81233 0.0
C1674 C 0.21096 0.32948 0.85442 0.0
C1675 C 0.18433 0.32849 0.86568 0.0
H1676 H 0.24637 0.34636 0.81992 0.0
H1677 H 0.21982 0.31647 0.866 0.0
S1678 S 0.14966 0.37286 0.83508 0.0
N1679 N 0.179 0.38196 0.81185 0.0
N1680 N 0.14956 0.34823 0.86038 0.0
C1681 C 0.17409 0.34633 0.85044 0.0
C1682 C 0.19009 0.3646 0.82402 0.0
C1683 C 0.8436 0.67711 0.68976 0.0
C1684 C 0.87333 0.68545 0.69983 0.0
C1685 C 0.83874 0.691 0.66371 0.0
C1686 C 0.86343 0.71342 0.64643 0.0
H1687 H 0.82391 0.65937 0.7019 0.0
H1688 H 0.81552 0.68332 0.65634 0.0
S1689 S 0.94557 0.74427 0.66325 0.0
N1690 N 0.92775 0.71859 0.6908 0.0
N1691 N 0.91851 0.74405 0.64159 0.0
C1692 C 0.89317 0.72246 0.65655 0.0
C1693 C 0.89816 0.70871 0.68333 0.0
C1694 C 0.33974 0.19876 0.69044 0.0
C1695 C 0.36066 0.19467 0.70844 0.0
C1696 C 0.32543 0.18026 0.6644 0.0
C1697 C 0.33094 0.15649 0.65583 0.0
H1698 H 0.33534 0.21718 0.69581 0.0
H1699 H 0.31046 0.185 0.65041 0.0
S1700 S 0.3823 0.13518 0.69638 0.0
N1701 N 0.38522 0.16437 0.71657 0.0
N1702 N 0.35791 0.12929 0.66807 0.0
C1703 C 0.35084 0.1514 0.67437 0.0
C1704 C 0.36582 0.17058 0.70052 0.0
C1705 C 0.89689 0.19297 0.68153 0.0
C1706 C 0.89323 0.16622 0.66744 0.0
C1707 C 0.87936 0.19152 0.70749 0.0
C1708 C 0.85768 0.16326 0.72052 0.0
H1709 H 0.91237 0.21513 0.67148 0.0
H1710 H 0.88231 0.21269 0.71703 0.0
S1711 S 0.84083 0.08667 0.69292 0.0
N1712 N 0.86729 0.11084 0.66873 0.0
N1713 N 0.83473 0.1079 0.7179 0.0
C1714 C 0.85483 0.13639 0.70735 0.0
C1715 C 0.87244 0.13792 0.68066 0.0
C1716 C 0.05861 0.55431 0.52281 0.0
C1717 C 0.05282 0.52678 0.53686 0.0
C1718 C 0.04196 0.55438 0.49665 0.0
C1719 C 1.01842 0.52692 0.48379 0.0
H1720 H 0.07625 0.57596 0.53206 0.0
H1721 H 0.04788 0.57619 0.48623 0.0
S1722 S 0.99237 0.44881 0.51445 0.0
N1723 N 1.0211 0.47151 0.53727 0.0
N1724 N 0.98903 0.47147 0.48903 0.0
C1725 C 1.01204 0.49924 0.49826 0.0
C1726 C 0.02936 0.49922 0.52455 0.0
C1727 C 0.55405 0.54623 0.51577 0.0
C1728 C 0.52804 0.53748 0.53441 0.0
C1729 C 0.55275 0.5296 0.48898 0.0
C1730 C 0.52541 0.50344 0.47959 0.0
H1731 H 0.57579 0.56567 0.52236 0.0
H1732 H 0.57351 0.53712 0.47568 0.0
S1733 S 0.4501 0.47273 0.51854 0.0
N1734 N 0.47363 0.50202 0.54036 0.0
N1735 N 0.47117 0.47104 0.49015 0.0
C1736 C 0.49909 0.49487 0.49767 0.0
C1737 C 0.50041 0.51179 0.52494 0.0
C1738 C 0.55758 0.02354 0.51102 0.0
C1739 C 0.54935 0.04174 0.49317 0.0
C1740 C 0.541 1.00793 0.53779 0.0
C1741 C 0.51527 1.00955 0.54779 0.0
H1742 H 0.57658 0.02071 0.50387 0.0
H1743 H 0.54816 0.99408 0.55054 0.0
S1744 S 0.48603 0.05662 0.51157 0.0
N1745 N 0.51502 0.06234 0.48926 0.0
N1746 N 0.48379 0.03268 0.53894 0.0
C1747 C 0.50719 0.02817 0.53061 0.0
C1748 C 0.52421 0.0443 0.50355 0.0
C1749 C 0.52618 0.03632 0.04468 0.0
C1750 C 0.55316 0.03712 0.05436 0.0
C1751 C 0.52615 0.05361 0.0191 0.0
C1752 C 0.553 0.0719 1.002 0.0
H1753 H 0.50485 0.0218 0.05664 0.0
H1754 H 0.50466 0.05143 0.01168 0.0
S1755 S 0.6297 0.08242 0.01824 0.0
N1756 N 0.60758 0.05849 0.04545 0.0
N1757 N 0.60735 0.09043 0.99706 0.0
C1758 C 0.58023 0.07346 0.01192 0.0
C1759 C 0.58036 0.05624 0.03819 0.0
C1760 C 1.0134 0.48753 1.00859 0.0
C1761 C 0.99125 0.49141 0.9927 0.0
C1762 C 0.02905 0.50586 0.03434 0.0
C1763 C 1.02289 0.52853 0.04544 0.0
H1764 H 1.01954 0.47104 1.0003 0.0
H1765 H 0.04636 0.50248 0.04543 0.0
S1766 S 0.96547 0.54628 0.01279 0.0
N1767 N 0.96304 0.51858 0.99045 0.0
N1768 N 0.99197 0.55275 0.03888 0.0
C1769 C 0.99993 0.53176 0.03032 0.0
C1770 C 0.9843 0.51334 1.00394 0.0
C1771 C 0.52105 0.4871 0.03118 0.0
C1772 C 0.52069 0.51257 0.0441 0.0
C1773 C 0.54063 0.49039 1.00644 0.0
C1774 C 0.56093 0.5193 0.99366 0.0
H1775 H 0.50537 0.46427 0.0396 0.0
H1776 H 0.53947 0.46999 0.99683 0.0
S1777 S 0.57033 0.59353 0.02024 0.0
N1778 N 0.5437 0.56793 0.04331 0.0
N1779 N 0.57996 0.57403 0.99653 0.0
C1780 C 0.5615 0.54507 1.007 0.0
C1781 C 0.54149 0.54171 0.03217 0.0
C1782 C 0.22221 0.05966 0.98968 0.0
C1783 C 0.24949 0.08718 0.98334 0.0
C1784 C 0.21801 0.03109 0.98024 0.0
C1785 C 0.24074 0.02866 0.96363 0.0
H1786 H 0.20402 0.06017 1.00246 0.0
H1787 H 0.19669 1.01075 0.98601 0.0
S1788 S 0.31604 0.09399 0.93984 0.0
N1789 N 0.29923 0.11021 0.95841 0.0
N1790 N 0.29162 0.05683 0.94082 0.0
C1791 C 0.268 0.05612 0.95667 0.0
C1792 C 0.27234 0.08522 0.96654 0.0
C1793 C 0.96742 0.19204 0.97886 0.0
C1794 C 0.96614 0.17376 1.00417 0.0
C1795 C 0.99561 0.21519 0.96685 0.0
C1796 C 1.02389 0.2212 0.97958 0.0
H1797 H 0.94647 0.18815 0.96794 0.0
H1798 H 0.99513 0.2287 0.94756 0.0
S1799 S 0.03309 0.18076 0.04724 0.0
N1800 N 0.99578 0.16443 0.04257 0.0
N1801 N 0.04824 0.20668 0.01952 0.0
C1802 C 1.02278 0.20301 1.00496 0.0
C1803 C 0.99415 0.17972 0.01735 0.0
C1804 C 0.85954 0.83361 0.96169 0.0
C1805 C 0.83393 0.82148 0.98145 0.0
C1806 C 0.88237 0.82552 0.96482 0.0
C1807 C 0.88102 0.80517 0.98817 0.0
H1808 H 0.86212 0.84968 0.94364 0.0
H1809 H 0.90135 0.8355 0.94873 0.0
S1810 S 0.81913 0.76755 0.04678 0.0
N1811 N 0.80861 0.78784 0.02542 0.0
N1812 N 0.85177 0.77355 0.03185 0.0
C1813 C 0.85537 0.79267 1.00798 0.0
C1814 C 0.83188 0.8006 1.00453 0.0
C1815 C 0.04523 0.21153 0.52096 0.0
C1816 C 0.04643 0.23 0.54609 0.0
C1817 C 0.07183 0.21357 0.50828 0.0
C1818 C 0.10109 0.2341 0.52007 0.0
H1819 H 1.02356 0.19559 0.51047 0.0
H1820 H 0.06938 0.19919 0.4886 0.0
S1821 S 0.1172 0.28625 0.58715 0.0
N1822 N 0.07972 0.26888 0.58313 0.0
N1823 N 0.12942 0.27216 0.55969 0.0
C1824 C 0.10271 0.25231 0.54562 0.0
C1825 C 0.07554 0.25033 0.55854 0.0
C1826 C 0.80154 0.8239 0.52993 0.0
C1827 C 0.8315 0.83145 0.53862 0.0
C1828 C 0.79431 0.84666 0.52176 0.0
C1829 C 0.81681 0.87782 0.5216 0.0
H1830 H 0.78375 0.80015 0.52824 0.0
H1831 H 0.77147 0.83977 0.51372 0.0
S1832 S 0.8977 0.91047 0.54507 0.0
N1833 N 0.88309 0.87317 0.54891 0.0
N1834 N 0.86941 0.91529 0.53295 0.0
C1835 C 0.84628 0.88579 0.5317 0.0
C1836 C 0.85363 0.86283 0.5404 0.0
C1837 C 0.18323 1.00002 0.54102 0.0
C1838 C 0.21412 1.00763 0.54256 0.0
C1839 C 0.1603 0.97116 0.53064 0.0
C1840 C 0.16694 0.94825 0.52179 0.0
H1841 H 0.17677 1.017 0.54633 0.0
H1842 H 0.13718 0.96703 0.52851 0.0
S1843 S 0.24333 0.9548 0.52453 0.0
N1844 N 0.24959 0.98857 0.5365 0.0
N1845 N 0.20631 0.93432 0.51738 0.0
C1846 C 0.19729 0.95471 0.52503 0.0
C1847 C 0.22087 0.98434 0.53525 0.0
C1848 C 0.83768 1.00264 0.03906 0.0
C1849 C 0.81468 1.00653 0.05321 0.0
C1850 C 0.83307 0.97335 0.03209 0.0
C1851 C 0.80499 0.94665 0.03816 0.0
H1852 H 0.85954 0.02241 0.03338 0.0
H1853 H 0.85151 0.97155 0.02141 0.0
S1854 S 0.73713 0.94381 0.0747 0.0
N1855 N 0.76257 0.98068 0.07307 0.0
N1856 N 0.75396 0.92596 0.0595 0.0
C1857 C 0.78173 0.95011 0.05213 0.0
C1858 C 0.78658 0.9799 0.0598 0.0
C1859 C 0.04703 0.85087 0.05437 0.0
C1860 C 0.03247 0.82483 0.03525 0.0
C1861 C 0.07792 0.87322 0.04995 0.0
C1862 C 0.09569 0.87077 0.026 0.0
H1863 H 0.03439 0.85424 0.07277 0.0
H1864 H 0.08789 0.89276 0.06535 0.0
S1865 S 0.06833 0.80738 0.96876 0.0
N1866 N 0.03849 0.79791 0.99129 0.0
N1867 N 0.09584 0.84015 0.9825 0.0
C1868 C 0.08149 0.84465 1.0069 0.0
C1869 C 0.05014 0.82171 0.01162 0.0
C1870 C 0.2207 0.22931 0.021 0.0
C1871 C 0.23372 0.23213 0.05069 0.0
C1872 C 0.19702 0.23586 0.01591 0.0
C1873 C 0.18489 0.24499 0.04034 0.0
H1874 H 0.22929 0.22258 1.00127 0.0
H1875 H 0.18791 0.23349 0.99269 0.0
S1876 S 0.21051 0.25603 0.12244 0.0
N1877 N 0.23232 0.24482 0.10489 0.0
N1878 N 0.18793 0.25695 0.09529 0.0
C1879 C 0.19744 0.2477 0.07016 0.0
C1880 C 0.22179 0.24135 0.07531 0.0
C1881 C 0.96899 0.80274 0.51481 0.0
C1882 C 0.95387 0.80651 0.48926 0.0
C1883 C 0.99932 0.80886 0.51246 0.0
C1884 C 1.01582 0.81868 0.48434 0.0
H1885 H 0.95737 0.79535 0.53693 0.0
H1886 H 1.0098 0.8056 0.53293 0.0
S1887 S 0.98607 0.83057 0.41001 0.0
N1888 N 0.95736 0.81971 0.43457 0.0
N1889 N 1.01416 0.83115 0.43013 0.0
C1890 C 1.00082 0.82224 0.4585 0.0
C1891 C 0.96997 0.81622 0.46097 0.0
C1892 C 0.24528 0.17609 0.51917 0.0
C1893 C 0.24235 0.15722 0.49385 0.0
C1894 C 0.23986 0.20074 0.51598 0.0
C1895 C 0.23159 0.20795 0.48722 0.0
H1896 H 0.25138 0.17147 0.5418 0.0
H1897 H 0.2423 0.21433 0.53637 0.0
S1898 S 0.22279 0.16683 0.41309 0.0
N1899 N 0.23189 0.14827 0.43861 0.0
N1900 N 0.22176 0.19446 0.43261 0.0
C1901 C 0.22903 0.18951 0.46156 0.0
C1902 C 0.23435 0.16423 0.46488 0.0
C1903 C 0.84871 0.04291 0.51827 0.0
C1904 C 0.83783 0.02837 0.48936 0.0
C1905 C 0.87263 0.0733 0.52035 0.0
C1906 C 0.88704 0.0906 0.49367 0.0
H1907 H 0.83839 0.03088 0.53967 0.0
H1908 H 0.87999 0.08335 0.54315 0.0
S1909 S 0.86748 0.0638 0.41227 0.0
N1910 N 0.8436 0.03391 0.43329 0.0
N1911 N 0.88861 0.09107 0.43729 0.0
C1912 C 0.87681 0.07637 0.46457 0.0
C1913 C 0.85222 0.04531 0.46241 0.0
C1914 C 0.86933 0.36538 0.30945 0.0
C1915 C 0.89033 0.35483 0.31194 0.0
C1916 C 0.87774 0.39584 0.31646 0.0
C1917 C 0.90763 0.41737 0.32592 0.0
H1918 H 0.84573 0.34968 0.30344 0.0
H1919 H 0.86041 0.40245 0.31526 0.0
S1920 S 0.97222 0.40257 0.33362 0.0
N1921 N 0.94322 0.36937 0.3226 0.0
N1922 N 0.95877 0.42635 0.3357 0.0
C1923 C 0.92933 0.40768 0.32691 0.0
C1924 C 0.92074 0.37655 0.31998 0.0
C1925 C 0.65319 0.50268 0.32058 0.0
C1926 C 0.62588 0.50261 0.31398 0.0
C1927 C 0.68181 0.52719 0.31155 0.0
C1928 C 0.68438 0.55241 0.29483 0.0
H1929 H 0.65241 0.48384 0.33339 0.0
H1930 H 0.70205 0.5263 0.31786 0.0
S1931 S 0.61925 0.56235 0.27032 0.0
N1932 N 0.60297 0.5293 0.28889 0.0
N1933 N 0.65637 0.57511 0.27155 0.0
C1934 C 0.657 0.55219 0.28749 0.0
C1935 C 0.62792 0.52743 0.29717 0.0
C1936 C 0.5205 0.16648 0.31899 0.0
C1937 C 0.49562 0.1433 0.30241 0.0
C1938 C 0.54533 0.16308 0.3284 0.0
C1939 C 0.54622 0.13616 0.32209 0.0
H1940 H 0.52079 0.18744 0.32498 0.0
H1941 H 0.5637 0.18139 0.34139 0.0
S1942 S 0.48849 0.06947 0.2773 0.0
N1943 N 0.47467 0.09298 0.27859 0.0
N1944 N 0.5212 0.08681 0.29634 0.0
C1945 C 0.52205 0.11315 0.30482 0.0
C1946 C 0.49689 0.1167 0.29491 0.0
C1947 C 0.71853 0.56245 0.84248 0.0
C1948 C 0.71421 0.5609 0.87492 0.0
C1949 C 0.7457 0.56666 0.82917 0.0
C1950 C 0.77023 0.57008 0.84751 0.0
H1951 H 0.70033 0.55931 0.82695 0.0
H1952 H 0.74743 0.56691 0.8041 0.0
S1953 S 0.77221 0.57051 0.93354 0.0
N1954 N 0.73782 0.56482 0.92518 0.0
N1955 N 0.78925 0.5734 0.89992 0.0
C1956 C 0.76698 0.56998 0.87997 0.0
C1957 C 0.73891 0.56513 0.89368 0.0
C1958 C 0.50821 0.21233 0.85868 0.0
C1959 C 0.47977 0.2114 0.85862 0.0
C1960 C 0.51164 0.18852 0.8714 0.0
C1961 C 0.48694 0.1628 0.88526 0.0
H1962 H 0.52804 0.23141 0.84819 0.0
H1963 H 0.53379 0.19013 0.86995 0.0
S1964 S 0.40768 0.14898 0.89221 0.0
N1965 N 0.42644 0.18223 0.87419 0.0
N1966 N 0.43307 0.13818 0.89895 0.0
C1967 C 0.45865 0.16206 0.88662 0.0
C1968 C 0.45503 0.18614 0.8732 0.0
C1969 C 0.8679 0.29043 0.86181 0.0
C1970 C 0.83633 0.27979 0.86092 0.0
C1971 C 0.88899 0.32081 0.87069 0.0
C1972 C 0.87932 0.34171 0.87926 0.0
H1973 H 0.87643 0.27577 0.85375 0.0
H1974 H 0.91313 0.32829 0.86953 0.0
S1975 S 0.79839 0.32338 0.884 0.0
N1976 N 0.7962 0.29141 0.87155 0.0
N1977 N 0.83515 0.34788 0.88878 0.0
C1978 C 0.84751 0.33044 0.88034 0.0
C1979 C 0.82625 0.29972 0.87099 0.0
C1980 C 0.50181 0.30489 0.39006 0.0
C1981 C 0.4818 0.28733 0.3659 0.0
C1982 C 0.51023 0.33575 0.39489 0.0
C1983 C 0.49883 0.35055 0.376 0.0
H1984 H 0.51135 0.2948 0.40534 0.0
H1985 H 0.52611 0.3482 0.41343 0.0
S1986 S 0.44581 0.31525 0.30925 0.0
N1987 N 0.45115 0.28762 0.32257 0.0
N1988 N 0.46601 0.34486 0.33211 0.0
C1989 C 0.47817 0.33305 0.3522 0.0
C1990 C 0.46989 0.30173 0.34707 0.0
C1991 C 0.74703 0.20962 0.39654 0.0
C1992 C 0.76361 0.20747 0.37116 0.0
C1993 C 0.71631 0.18732 0.40223 0.0
C1994 C 0.70056 0.16147 0.38302 0.0
H1995 H 0.75779 0.22886 0.41226 0.0
H1996 H 0.70475 0.19059 0.42178 0.0
S1997 S 0.73315 0.14439 0.31341 0.0
N1998 N 0.76145 0.17702 0.32652 0.0
N1999 N 0.70439 0.13489 0.33753 0.0
C2000 C 0.71706 0.15855 0.35796 0.0
C2001 C 0.74831 0.18148 0.352 0.0
C2002 C 0.85732 0.55632 0.33993 0.0
C2003 C 0.84632 0.57036 0.36035 0.0
C2004 C 0.88107 0.55102 0.34853 0.0
C2005 C 0.89443 0.55886 0.37825 0.0
H2006 H 0.84721 0.54914 0.31713 0.0
H2007 H 0.88845 0.53989 0.33194 0.0
S2008 S 0.87434 0.59705 0.44005 0.0
N2009 N 0.8511 0.59298 0.41113 0.0
N2010 N 0.89532 0.58236 0.42784 0.0
C2011 C 0.88384 0.57326 0.39883 0.0
C2012 C 0.85997 0.57924 0.38973 0.0
C2013 C 0.64325 0.13376 0.8557 0.0
C2014 C 0.62992 0.14129 0.8311 0.0
C2015 C 0.67293 0.13828 0.85341 0.0
C2016 C 0.69055 0.1501 0.82623 0.0
H2017 H 0.63076 0.12474 0.87717 0.0
H2018 H 0.68203 0.13218 0.87319 0.0
S2019 S 0.66588 0.17266 0.75468 0.0
N2020 N 0.63641 0.1608 0.77845 0.0
N2021 N 0.6921 0.1689 0.7739 0.0
C2022 C 0.67739 0.15744 0.80125 0.0
C2023 C 0.64718 0.15321 0.80378 0.0
C2024 C 0.90046 0.53195 0.84504 0.0
C2025 C 0.89486 0.54024 0.81553 0.0
C2026 C 0.90486 0.5068 0.84907 0.0
C2027 C 0.90365 0.48851 0.82386 0.0
H2028 H 0.9018 0.54521 0.86536 0.0
H2029 H 0.90923 0.50156 0.87223 0.0
S2030 S 0.89024 0.50035 0.74158 0.0
N2031 N 0.88853 0.52793 0.76049 0.0
N2032 N 0.8969 0.48076 0.7681 0.0
C2033 C 0.8978 0.49626 0.79421 0.0
C2034 C 0.89344 0.52206 0.79005 0.0
C2035 C 0.51643 0.38478 0.80042 0.0
C2036 C 0.50709 0.36193 0.82342 0.0
C2037 C 0.54121 0.41459 0.80554 0.0
C2038 C 0.55782 0.42222 0.83349 0.0
H2039 H 0.50403 0.37986 0.77873 0.0
H2040 H 0.54761 0.43171 0.78754 0.0
S2041 S 0.54321 0.37089 0.90066 0.0
N2042 N 0.51683 0.34932 0.8751 0.0
N2043 N 0.56342 0.40477 0.88414 0.0
C2044 C 0.54901 0.39953 0.85631 0.0
C2045 C 0.52365 0.36954 0.85142 0.0
C2046 C 0.57602 0.7045 0.66908 0.0
C2047 C 0.55735 0.68799 0.6437 0.0
C2048 C 0.58334 0.73485 0.67541 0.0
C2049 C 0.57249 0.75021 0.65658 0.0
H2050 H 0.58424 0.69356 0.68492 0.0
H2051 H 0.59684 0.74603 0.69581 0.0
S2052 S 0.52675 0.71895 0.58448 0.0
N2053 N 0.53055 0.69044 0.59805 0.0
N2054 N 0.54501 0.74744 0.60917 0.0
C2055 C 0.55509 0.73446 0.63021 0.0
C2056 C 0.54737 0.70346 0.62399 0.0
C2057 C 0.34474 0.87985 0.67097 0.0
C2058 C 0.36354 0.8801 0.64656 0.0
C2059 C 0.31393 0.85657 0.67364 0.0
C2060 C 0.30039 0.83255 0.65192 0.0
H2061 H 0.35414 0.89728 0.68881 0.0
H2062 H 0.30088 0.85692 0.69341 0.0
S2063 S 0.33834 0.82513 0.58105 0.0
N2064 N 0.36545 0.85564 0.59879 0.0
N2065 N 0.30762 0.8127 0.60306 0.0
C2066 C 0.31856 0.83339 0.62656 0.0
C2067 C 0.35003 0.8569 0.62408 0.0
C2068 C 0.17098 0.47488 0.66637 0.0
C2069 C 0.17464 0.49663 0.64367 0.0
C2070 C 0.19316 0.46603 0.6708 0.0
C2071 C 0.21986 0.47829 0.65251 0.0
H2072 H 0.15134 0.46542 0.68169 0.0
H2073 H 0.1898 0.4502 0.68938 0.0
S2074 S 0.23772 0.53217 0.58638 0.0
N2075 N 0.20558 0.52798 0.60083 0.0
N2076 N 0.24635 0.5105 0.60793 0.0
C2077 C 0.22284 0.49877 0.62853 0.0
C2078 C 0.20052 0.50814 0.62444 0.0
C2079 C 0.38008 0.86063 0.20448 0.0
C2080 C 0.37098 0.88282 0.20636 0.0
C2081 C 0.40984 0.86835 0.19544 0.0
C2082 C 0.43218 0.8987 0.18833 0.0
H2083 H 0.3637 0.83672 0.20855 0.0
H2084 H 0.41522 0.8502 0.19309 0.0
S2085 S 0.42156 0.96619 0.19248 0.0
N2086 N 0.38789 0.93715 0.20237 0.0
N2087 N 0.44379 0.95146 0.18578 0.0
C2088 C 0.42411 0.92146 0.19184 0.0
C2089 C 0.39357 0.91358 0.2007 0.0
C2090 C 0.18045 0.55493 0.19865 0.0
C2091 C 0.15095 0.54768 0.18903 0.0
C2092 C 0.18673 0.53232 0.20942 0.0
C2093 C 0.16389 0.5012 0.21061 0.0
H2094 H 0.19911 0.57829 0.19701 0.0
H2095 H 0.21012 0.53926 0.21539 0.0
S2096 S 0.0822 0.47033 0.19012 0.0
N2097 N 0.09818 0.5074 0.18322 0.0
N2098 N 0.10983 0.46478 0.20305 0.0
C2099 C 0.13391 0.49381 0.20235 0.0
C2100 C 0.12747 0.51703 0.19173 0.0
C2101 C 0.52674 0.66857 0.20602 0.0
C2102 C 0.55201 0.66859 0.21976 0.0
C2103 C 0.50238 0.64175 0.19327 0.0
C2104 C 0.50224 0.61368 0.19314 0.0
H2105 H 0.52598 0.68961 0.2046 0.0
H2106 H 0.48373 0.64326 0.18276 0.0
S2107 S 0.56327 0.60143 0.22594 0.0
N2108 N 0.57514 0.63783 0.23294 0.0
N2109 N 0.53004 0.58794 0.2082 0.0
C2110 C 0.52705 0.61322 0.20752 0.0
C2111 C 0.55171 0.64048 0.22092 0.0
C2112 C 0.14453 0.6622 0.69753 0.0
C2113 C 0.17453 0.68453 0.70598 0.0
C2114 C 0.1359 0.63109 0.69431 0.0
C2115 C 0.15687 0.62078 0.69925 0.0
H2116 H 0.12748 0.66879 0.69324 0.0
H2117 H 0.11249 0.61494 0.68812 0.0
S2118 S 0.2388 0.67001 0.71968 0.0
N2119 N 0.22549 0.69392 0.71824 0.0
N2120 N 0.2095 0.63597 0.71158 0.0
C2121 C 0.18698 0.64288 0.70749 0.0
C2122 C 0.19572 0.67451 0.71099 0.0
C2123 C 0.38218 0.5177 0.72686 0.0
C2124 C 0.36687 0.49229 0.70705 0.0
C2125 C 0.41287 0.54024 0.72172 0.0
C2126 C 0.42974 0.53869 0.6963 0.0
H2127 H 0.37028 0.52042 0.74644 0.0
H2128 H 0.4234 0.55916 0.73784 0.0
S2129 S 0.40028 0.47717 0.63685 0.0
N2130 N 0.37127 0.4669 0.66084 0.0
N2131 N 0.4283 0.50953 0.6508 0.0
C2132 C 0.41482 0.5132 0.67647 0.0
C2133 C 0.38365 0.49004 0.6819 0.0
C2134 C 0.52903 0.87126 0.73484 0.0
C2135 C 0.55513 0.88201 0.71593 0.0
C2136 C 0.50732 0.88062 0.73015 0.0
C2137 C 0.51029 0.90093 0.70601 0.0
H2138 H 0.52509 0.85516 0.75335 0.0
H2139 H 0.48782 0.87154 0.74558 0.0
S2140 S 0.57441 0.93579 0.64952 0.0
N2141 N 0.58294 0.91474 0.67216 0.0
N2142 N 0.54184 0.93143 0.66287 0.0
C2143 C 0.53659 0.91231 0.68721 0.0
C2144 C 0.55896 0.90306 0.69223 0.0
C2145 C 0.30371 0.47384 0.18685 0.0
C2146 C 0.28779 0.47746 0.162 0.0
C2147 C 0.33377 0.47952 0.18326 0.0
C2148 C 0.34926 0.48875 0.15452 0.0
H2149 H 0.29293 0.46689 0.20941 0.0
H2150 H 0.34484 0.47636 0.20329 0.0
S2151 S 0.31709 0.49993 0.08154 0.0
N2152 N 0.28939 0.48985 0.10723 0.0
N2153 N 0.34574 0.50044 0.10048 0.0
C2154 C 0.33347 0.49216 0.12935 0.0
C2155 C 0.30285 0.48658 0.13308 0.0
C2156 C 0.58115 0.85135 0.18777 0.0
C2157 C 0.57543 0.83138 0.1627 0.0
C2158 C 0.57602 0.87613 0.18544 0.0
C2159 C 0.5653 0.88241 0.15777 0.0
H2160 H 0.5892 0.84748 0.20966 0.0
H2161 H 0.5807 0.8906 0.20564 0.0
S2162 S 0.54769 0.83762 0.08484 0.0
N2163 N 0.55891 0.81976 0.10902 0.0
N2164 N 0.54959 0.86667 0.10445 0.0
C2165 C 0.55981 0.86285 0.1323 0.0
C2166 C 0.5647 0.83724 0.13483 0.0
C2167 C 0.17918 0.71416 0.18147 0.0
C2168 C 0.17056 0.69837 0.15291 0.0
C2169 C 0.20393 0.74422 0.1837 0.0
C2170 C 0.22151 0.75989 0.15756 0.0
H2171 H 0.16658 0.70332 0.20246 0.0
H2172 H 0.20956 0.75522 0.20621 0.0
S2173 S 0.20822 0.72963 0.07703 0.0
N2174 N 0.18152 0.70124 0.09766 0.0
N2175 N 0.22793 0.75762 0.10187 0.0
C2176 C 0.21323 0.74449 0.1288 0.0
C2177 C 0.18782 0.71385 0.12648 0.0
loop_
_geom_bond_atom_site_label_1
_geom_bond_atom_site_label_2
_geom_bond_distance
_geom_bond_site_symmetry_2
_ccdc_geom_bond_type
Co0 N4 2.148 . S
Co0 N10 2.128 . S
Co0 N20 2.194 . S
Co0 O25 2.352 1_554 S
Co0 O26 2.155 1_554 S
Co0 O27 2.096 . S
C1 N4 1.301 . S
C1 N5 1.328 1_554 S
C1 H6 0.930 . S
C2 C3 1.333 1_554 S
C2 N4 1.317 . S
C2 H7 0.930 . S
C3 C2 1.333 1_556 S
C3 N5 1.350 . S
C3 H29 0.931 . S
N4 Co0 2.148 . S
N4 C1 1.301 . S
N4 C2 1.317 . S
N5 C1 1.328 1_556 S
N5 C3 1.350 . S
H6 C1 0.930 . S
H7 C2 0.930 . S
C8 O9 1.224 . S
C8 O27 1.247 . S
O9 C8 1.224 . S
N10 Co0 2.128 . S
N10 C11 1.355 . S
N10 C13 1.311 . S
C11 N10 1.355 . S
C11 C12 1.363 . S
C11 H23 0.929 . S
C12 C11 1.363 . S
C12 N14 1.375 . S
C12 H30 0.931 . S
C13 N10 1.311 . S
C13 N14 1.347 . S
C13 H24 0.929 . S
N14 C12 1.375 . S
N14 C13 1.347 . S
C15 C18 1.365 . S
C15 N20 1.328 . S
C15 H21 0.929 . S
C16 C17 1.362 . S
C16 C19 1.378 . S
C16 H31 0.929 . S
C17 C16 1.362 . S
C17 C18 1.366 . S
C18 C15 1.365 . S
C18 C17 1.366 . S
C18 H32 0.930 . S
C19 C16 1.378 . S
C19 N20 1.315 . S
C19 H22 0.930 . S
N20 Co0 2.194 . S
N20 C15 1.328 . S
N20 C19 1.315 . S
H21 C15 0.929 . S
H22 C19 0.930 . S
H23 C11 0.929 . S
H24 C13 0.929 . S
O25 Co0 2.352 1_556 S
O25 C28 1.242 . S
O26 Co0 2.155 1_556 S
O26 C28 1.240 . S
O27 Co0 2.096 . S
O27 C8 1.247 . S
C28 O25 1.242 . S
C28 O26 1.240 . S
H29 C3 0.931 . S
H30 C12 0.931 . S
H31 C16 0.929 . S
H32 C18 0.930 . S
Co33 N37 2.148 . S
Co33 N43 2.128 . S
Co33 N53 2.194 . S
Co33 O58 2.352 1_554 S
Co33 O59 2.155 1_554 S
Co33 O60 2.096 . S
C34 N37 1.301 . S
C34 N38 1.328 1_554 S
C34 H39 0.930 . S
C35 C36 1.333 1_554 S
C35 N37 1.317 . S
C35 H40 0.930 . S
C36 C35 1.333 1_556 S
C36 N38 1.350 . S
C36 H62 0.931 . S
N37 Co33 2.148 . S
N37 C34 1.301 . S
N37 C35 1.317 . S
N38 C34 1.328 1_556 S
N38 C36 1.350 . S
H39 C34 0.930 . S
H40 C35 0.930 . S
C41 O42 1.224 . S
C41 O60 1.247 . S
O42 C41 1.224 . S
N43 Co33 2.128 . S
N43 C44 1.355 . S
N43 C46 1.311 . S
C44 N43 1.355 . S
C44 C45 1.363 . S
C44 H56 0.929 . S
C45 C44 1.363 . S
C45 N47 1.375 . S
C45 H63 0.931 . S
C46 N43 1.311 . S
C46 N47 1.347 . S
C46 H57 0.929 . S
N47 C45 1.375 . S
N47 C46 1.347 . S
C48 C51 1.365 . S
C48 N53 1.328 . S
C48 H54 0.929 . S
C49 C50 1.362 . S
C49 C52 1.378 . S
C49 H64 0.929 . S
C50 C49 1.362 . S
C50 C51 1.366 . S
C51 C48 1.365 . S
C51 C50 1.366 . S
C51 H65 0.930 . S
C52 C49 1.378 . S
C52 N53 1.315 . S
C52 H55 0.930 . S
N53 Co33 2.194 . S
N53 C48 1.328 . S
N53 C52 1.315 . S
H54 C48 0.929 . S
H55 C52 0.930 . S
H56 C44 0.929 . S
H57 C46 0.929 . S
O58 Co33 2.352 1_556 S
O58 C61 1.242 . S
O59 Co33 2.155 1_556 S
O59 C61 1.240 . S
O60 Co33 2.096 . S
O60 C41 1.247 . S
C61 O58 1.242 . S
C61 O59 1.240 . S
H62 C36 0.931 . S
H63 C45 0.931 . S
H64 C49 0.929 . S
H65 C51 0.930 . S
Co66 N70 2.148 . S
Co66 N76 2.128 . S
Co66 N86 2.194 . S
Co66 O91 2.352 1_554 S
Co66 O92 2.155 1_554 S
Co66 O93 2.096 . S
C67 N70 1.301 . S
C67 N71 1.328 1_554 S
C67 H72 0.930 . S
C68 C69 1.333 1_554 S
C68 N70 1.317 . S
C68 H73 0.930 . S
C69 C68 1.333 1_556 S
C69 N71 1.350 . S
C69 H95 0.931 . S
N70 Co66 2.148 . S
N70 C67 1.301 . S
N70 C68 1.317 . S
N71 C67 1.328 1_556 S
N71 C69 1.350 . S
H72 C67 0.930 . S
H73 C68 0.930 . S
C74 O75 1.224 . S
C74 O93 1.247 . S
O75 C74 1.224 . S
N76 Co66 2.128 . S
N76 C77 1.355 . S
N76 C79 1.311 . S
C77 N76 1.355 . S
C77 C78 1.363 . S
C77 H89 0.929 . S
C78 C77 1.363 . S
C78 N80 1.375 . S
C78 H96 0.931 . S
C79 N76 1.311 . S
C79 N80 1.347 . S
C79 H90 0.929 . S
N80 C78 1.375 . S
N80 C79 1.347 . S
C81 C84 1.365 . S
C81 N86 1.328 . S
C81 H87 0.929 . S
C82 C83 1.362 . S
C82 C85 1.378 . S
C82 H97 0.929 . S
C83 C82 1.362 . S
C83 C84 1.366 . S
C84 C81 1.365 . S
C84 C83 1.366 . S
C84 H98 0.930 . S
C85 C82 1.378 . S
C85 N86 1.315 . S
C85 H88 0.930 . S
N86 Co66 2.194 . S
N86 C81 1.328 . S
N86 C85 1.315 . S
H87 C81 0.929 . S
H88 C85 0.930 . S
H89 C77 0.929 . S
H90 C79 0.929 . S
O91 Co66 2.352 1_556 S
O91 C94 1.242 . S
O92 Co66 2.155 1_556 S
O92 C94 1.240 . S
O93 Co66 2.096 . S
O93 C74 1.247 . S
C94 O91 1.242 . S
C94 O92 1.240 . S
H95 C69 0.931 . S
H96 C78 0.931 . S
H97 C82 0.929 . S
H98 C84 0.930 . S
Co99 N103 2.148 . S
Co99 N109 2.128 . S
Co99 N119 2.194 . S
Co99 O124 2.351 . S
Co99 O125 2.155 . S
Co99 O126 2.096 . S
C100 N103 1.301 . S
C100 N104 1.328 . S
C100 H105 0.930 . S
C101 C102 1.333 . S
C101 N103 1.317 . S
C101 H106 0.930 . S
C102 C101 1.333 . S
C102 N104 1.350 . S
C102 H128 0.931 . S
N103 Co99 2.148 . S
N103 C100 1.301 . S
N103 C101 1.317 . S
N104 C100 1.328 . S
N104 C102 1.350 . S
H105 C100 0.930 . S
H106 C101 0.930 . S
C107 O108 1.224 . S
C107 O126 1.247 . S
O108 C107 1.224 . S
N109 Co99 2.128 . S
N109 C110 1.355 . S
N109 C112 1.311 . S
C110 N109 1.355 . S
C110 C111 1.363 . S
C110 H122 0.929 . S
C111 C110 1.363 . S
C111 N113 1.375 . S
C111 H129 0.931 . S
C112 N109 1.311 . S
C112 N113 1.347 . S
C112 H123 0.929 . S
N113 C111 1.375 . S
N113 C112 1.347 . S
C114 C117 1.365 . S
C114 N119 1.328 . S
C114 H120 0.929 . S
C115 C116 1.362 . S
C115 C118 1.378 . S
C115 H130 0.929 . S
C116 C115 1.362 . S
C116 C117 1.366 . S
C117 C114 1.365 . S
C117 C116 1.366 . S
C117 H131 0.930 . S
C118 C115 1.378 . S
C118 N119 1.315 . S
C118 H121 0.930 . S
N119 Co99 2.194 . S
N119 C114 1.328 . S
N119 C118 1.315 . S
H120 C114 0.929 . S
H121 C118 0.930 . S
H122 C110 0.929 . S
H123 C112 0.929 . S
O124 Co99 2.351 . S
O124 C127 1.244 . S
O125 Co99 2.155 . S
O125 C127 1.240 . S
O126 Co99 2.096 . S
O126 C107 1.247 . S
C127 O124 1.244 . S
C127 O125 1.240 . S
H128 C102 0.931 . S
H129 C111 0.931 . S
H130 C115 0.929 . S
H131 C117 0.930 . S
Co132 N136 2.148 . S
Co132 N142 2.128 . S
Co132 N152 2.194 . S
Co132 O157 2.351 . S
Co132 O158 2.155 . S
Co132 O159 2.096 . S
C133 N136 1.301 . S
C133 N137 1.328 . S
C133 H138 0.930 . S
C134 C135 1.333 . S
C134 N136 1.317 . S
C134 H139 0.930 . S
C135 C134 1.333 . S
C135 N137 1.350 . S
C135 H161 0.931 . S
N136 Co132 2.148 . S
N136 C133 1.301 . S
N136 C134 1.317 . S
N137 C133 1.328 . S
N137 C135 1.350 . S
H138 C133 0.930 . S
H139 C134 0.930 . S
C140 O141 1.224 . S
C140 O159 1.247 . S
O141 C140 1.224 . S
N142 Co132 2.128 . S
N142 C143 1.355 . S
N142 C145 1.311 . S
C143 N142 1.355 . S
C143 C144 1.363 . S
C143 H155 0.929 . S
C144 C143 1.363 . S
C144 N146 1.375 . S
C144 H162 0.931 . S
C145 N142 1.311 . S
C145 N146 1.347 . S
C145 H156 0.929 . S
N146 C144 1.375 . S
N146 C145 1.347 . S
C147 C150 1.365 . S
C147 N152 1.328 . S
C147 H153 0.929 . S
C148 C149 1.362 . S
C148 C151 1.378 . S
C148 H163 0.929 . S
C149 C148 1.362 . S
C149 C150 1.366 . S
C150 C147 1.365 . S
C150 C149 1.366 . S
C150 H164 0.930 . S
C151 C148 1.378 . S
C151 N152 1.315 . S
C151 H154 0.930 . S
N152 Co132 2.194 . S
N152 C147 1.328 . S
N152 C151 1.315 . S
H153 C147 0.929 . S
H154 C151 0.930 . S
H155 C143 0.929 . S
H156 C145 0.929 . S
O157 Co132 2.351 . S
O157 C160 1.244 . S
O158 Co132 2.155 . S
O158 C160 1.240 . S
O159 Co132 2.096 . S
O159 C140 1.247 . S
C160 O157 1.244 . S
C160 O158 1.240 . S
H161 C135 0.931 . S
H162 C144 0.931 . S
H163 C148 0.929 . S
H164 C150 0.930 . S
Co165 N169 2.148 . S
Co165 N175 2.128 . S
Co165 N185 2.194 . S
Co165 O190 2.351 . S
Co165 O191 2.155 . S
Co165 O192 2.096 . S
C166 N169 1.301 . S
C166 N170 1.328 . S
C166 H171 0.930 . S
C167 C168 1.333 . S
C167 N169 1.317 . S
C167 H172 0.930 . S
C168 C167 1.333 . S
C168 N170 1.350 . S
C168 H194 0.931 . S
N169 Co165 2.148 . S
N169 C166 1.301 . S
N169 C167 1.317 . S
N170 C166 1.328 . S
N170 C168 1.350 . S
H171 C166 0.930 . S
H172 C167 0.930 . S
C173 O174 1.224 . S
C173 O192 1.247 . S
O174 C173 1.224 . S
N175 Co165 2.128 . S
N175 C176 1.355 . S
N175 C178 1.311 . S
C176 N175 1.355 . S
C176 C177 1.363 . S
C176 H188 0.929 . S
C177 C176 1.363 . S
C177 N179 1.375 . S
C177 H195 0.931 . S
C178 N175 1.311 . S
C178 N179 1.347 . S
C178 H189 0.929 . S
N179 C177 1.375 . S
N179 C178 1.347 . S
C180 C183 1.365 . S
C180 N185 1.328 . S
C180 H186 0.929 . S
C181 C182 1.362 . S
C181 C184 1.378 . S
C181 H196 0.929 . S
C182 C181 1.362 . S
C182 C183 1.366 . S
C183 C180 1.365 . S
C183 C182 1.366 . S
C183 H197 0.930 . S
C184 C181 1.378 . S
C184 N185 1.315 . S
C184 H187 0.930 . S
N185 Co165 2.194 . S
N185 C180 1.328 . S
N185 C184 1.315 . S
H186 C180 0.929 . S
H187 C184 0.930 . S
H188 C176 0.929 . S
H189 C178 0.929 . S
O190 Co165 2.351 . S
O190 C193 1.244 . S
O191 Co165 2.155 . S
O191 C193 1.240 . S
O192 Co165 2.096 . S
O192 C173 1.247 . S
C193 O190 1.244 . S
C193 O191 1.240 . S
H194 C168 0.931 . S
H195 C177 0.931 . S
H196 C181 0.929 . S
H197 C183 0.930 . S
Co198 N202 2.148 . S
Co198 N208 2.128 . S
Co198 N218 2.194 . S
Co198 O223 2.351 . S
Co198 O224 2.155 1_556 S
Co198 O225 2.096 . S
C199 N202 1.301 . S
C199 N203 1.325 1_556 S
C199 H204 0.930 . S
C200 C201 1.329 1_556 S
C200 N202 1.317 . S
C200 H205 0.930 . S
C201 C200 1.329 1_554 S
C201 N203 1.350 . S
C201 H227 0.936 . S
N202 Co198 2.148 . S
N202 C199 1.301 . S
N202 C200 1.317 . S
N203 C199 1.325 1_554 S
N203 C201 1.350 . S
H204 C199 0.930 . S
H205 C200 0.930 . S
C206 O207 1.224 . S
C206 O225 1.247 . S
O207 C206 1.224 . S
N208 Co198 2.128 . S
N208 C209 1.355 . S
N208 C211 1.311 . S
C209 N208 1.355 . S
C209 C210 1.363 . S
C209 H221 0.929 . S
C210 C209 1.363 . S
C210 N212 1.375 . S
C210 H228 0.931 . S
C211 N208 1.311 . S
C211 N212 1.347 . S
C211 H222 0.929 . S
N212 C210 1.375 . S
N212 C211 1.347 . S
C213 C216 1.365 . S
C213 N218 1.328 . S
C213 H219 0.929 . S
C214 C215 1.362 . S
C214 C217 1.378 . S
C214 H229 0.929 . S
C215 C214 1.362 . S
C215 C216 1.366 . S
C216 C213 1.365 . S
C216 C215 1.366 . S
C216 H230 0.930 . S
C217 C214 1.378 . S
C217 N218 1.315 . S
C217 H220 0.930 . S
N218 Co198 2.194 . S
N218 C213 1.328 . S
N218 C217 1.315 . S
H219 C213 0.929 . S
H220 C217 0.930 . S
H221 C209 0.929 . S
H222 C211 0.929 . S
O223 Co198 2.351 . S
O223 C226 1.244 1_556 S
O224 Co198 2.155 1_554 S
O224 C226 1.240 . S
O225 Co198 2.096 . S
O225 C206 1.247 . S
C226 O223 1.244 1_554 S
C226 O224 1.240 . S
H227 C201 0.936 . S
H228 C210 0.931 . S
H229 C214 0.929 . S
H230 C216 0.930 . S
Co231 N235 2.148 . S
Co231 N241 2.128 . S
Co231 N251 2.194 . S
Co231 O256 2.351 . S
Co231 O257 2.155 1_556 S
Co231 O258 2.096 . S
C232 N235 1.301 . S
C232 N236 1.325 1_556 S
C232 H237 0.930 . S
C233 C234 1.329 1_556 S
C233 N235 1.317 . S
C233 H238 0.930 . S
C234 C233 1.329 1_554 S
C234 N236 1.350 . S
C234 H260 0.936 . S
N235 Co231 2.148 . S
N235 C232 1.301 . S
N235 C233 1.317 . S
N236 C232 1.325 1_554 S
N236 C234 1.350 . S
H237 C232 0.930 . S
H238 C233 0.930 . S
C239 O240 1.224 . S
C239 O258 1.247 . S
O240 C239 1.224 . S
N241 Co231 2.128 . S
N241 C242 1.355 . S
N241 C244 1.311 . S
C242 N241 1.355 . S
C242 C243 1.363 . S
C242 H254 0.929 . S
C243 C242 1.363 . S
C243 N245 1.375 . S
C243 H261 0.931 . S
C244 N241 1.311 . S
C244 N245 1.347 . S
C244 H255 0.929 . S
N245 C243 1.375 . S
N245 C244 1.347 . S
C246 C249 1.365 . S
C246 N251 1.328 . S
C246 H252 0.929 . S
C247 C248 1.362 . S
C247 C250 1.378 . S
C247 H262 0.929 . S
C248 C247 1.362 . S
C248 C249 1.366 . S
C249 C246 1.365 . S
C249 C248 1.366 . S
C249 H263 0.930 . S
C250 C247 1.378 . S
C250 N251 1.315 . S
C250 H253 0.930 . S
N251 Co231 2.194 . S
N251 C246 1.328 . S
N251 C250 1.315 . S
H252 C246 0.929 . S
H253 C250 0.930 . S
H254 C242 0.929 . S
H255 C244 0.929 . S
O256 Co231 2.351 . S
O256 C259 1.244 1_556 S
O257 Co231 2.155 1_554 S
O257 C259 1.240 . S
O258 Co231 2.096 . S
O258 C239 1.247 . S
C259 O256 1.244 1_554 S
C259 O257 1.240 . S
H260 C234 0.936 . S
H261 C243 0.931 . S
H262 C247 0.929 . S
H263 C249 0.930 . S
Co264 N268 2.148 . S
Co264 N274 2.128 . S
Co264 N284 2.194 . S
Co264 O289 2.351 . S
Co264 O290 2.155 1_556 S
Co264 O291 2.096 . S
C265 N268 1.301 . S
C265 N269 1.325 1_556 S
C265 H270 0.930 . S
C266 C267 1.329 1_556 S
C266 N268 1.317 . S
C266 H271 0.930 . S
C267 C266 1.329 1_554 S
C267 N269 1.350 . S
C267 H293 0.935 . S
N268 Co264 2.148 . S
N268 C265 1.301 . S
N268 C266 1.317 . S
N269 C265 1.325 1_554 S
N269 C267 1.350 . S
H270 C265 0.930 . S
H271 C266 0.930 . S
C272 O273 1.224 . S
C272 O291 1.247 . S
O273 C272 1.224 . S
N274 Co264 2.128 . S
N274 C275 1.355 . S
N274 C277 1.311 . S
C275 N274 1.355 . S
C275 C276 1.363 . S
C275 H287 0.929 . S
C276 C275 1.363 . S
C276 N278 1.375 . S
C276 H294 0.931 . S
C277 N274 1.311 . S
C277 N278 1.347 . S
C277 H288 0.929 . S
N278 C276 1.375 . S
N278 C277 1.347 . S
C279 C282 1.365 . S
C279 N284 1.328 . S
C279 H285 0.929 . S
C280 C281 1.362 . S
C280 C283 1.378 . S
C280 H295 0.929 . S
C281 C280 1.362 . S
C281 C282 1.366 . S
C282 C279 1.365 . S
C282 C281 1.366 . S
C282 H296 0.930 . S
C283 C280 1.378 . S
C283 N284 1.315 . S
C283 H286 0.930 . S
N284 Co264 2.194 . S
N284 C279 1.328 . S
N284 C283 1.315 . S
H285 C279 0.929 . S
H286 C283 0.930 . S
H287 C275 0.929 . S
H288 C277 0.929 . S
O289 Co264 2.351 . S
O289 C292 1.244 1_556 S
O290 Co264 2.155 1_554 S
O290 C292 1.240 . S
O291 Co264 2.096 . S
O291 C272 1.247 . S
C292 O289 1.244 1_554 S
C292 O290 1.240 . S
H293 C267 0.935 . S
H294 C276 0.931 . S
H295 C280 0.929 . S
H296 C282 0.930 . S
Co297 N301 2.148 . S
Co297 N307 2.128 . S
Co297 N317 2.194 . S
Co297 O322 2.351 . S
Co297 O323 2.155 . S
Co297 O324 2.096 . S
C298 N301 1.301 . S
C298 N302 1.328 . S
C298 H303 0.930 . S
C299 C300 1.333 . S
C299 N301 1.317 . S
C299 H304 0.930 . S
C300 C299 1.333 . S
C300 N302 1.350 . S
C300 H326 0.931 . S
N301 Co297 2.148 . S
N301 C298 1.301 . S
N301 C299 1.317 . S
N302 C298 1.328 . S
N302 C300 1.350 . S
H303 C298 0.930 . S
H304 C299 0.930 . S
C305 O306 1.224 . S
C305 O324 1.247 . S
O306 C305 1.224 . S
N307 Co297 2.128 . S
N307 C308 1.355 . S
N307 C310 1.311 . S
C308 N307 1.355 . S
C308 C309 1.363 . S
C308 H320 0.929 . S
C309 C308 1.363 . S
C309 N311 1.375 . S
C309 H327 0.931 . S
C310 N307 1.311 . S
C310 N311 1.347 . S
C310 H321 0.929 . S
N311 C309 1.375 . S
N311 C310 1.347 . S
C312 C315 1.365 . S
C312 N317 1.328 . S
C312 H318 0.929 . S
C313 C314 1.362 . S
C313 C316 1.378 . S
C313 H328 0.929 . S
C314 C313 1.362 . S
C314 C315 1.366 . S
C315 C312 1.365 . S
C315 C314 1.366 . S
C315 H329 0.930 . S
C316 C313 1.378 . S
C316 N317 1.315 . S
C316 H319 0.930 . S
N317 Co297 2.194 . S
N317 C312 1.328 . S
N317 C316 1.315 . S
H318 C312 0.929 . S
H319 C316 0.930 . S
H320 C308 0.929 . S
H321 C310 0.929 . S
O322 Co297 2.351 . S
O322 C325 1.244 . S
O323 Co297 2.155 . S
O323 C325 1.240 . S
O324 Co297 2.096 . S
O324 C305 1.247 . S
C325 O322 1.244 . S
C325 O323 1.240 . S
H326 C300 0.931 . S
H327 C309 0.931 . S
H328 C313 0.929 . S
H329 C315 0.930 . S
Co330 N334 2.148 . S
Co330 N340 2.128 . S
Co330 N350 2.194 . S
Co330 O355 2.351 . S
Co330 O356 2.155 . S
Co330 O357 2.096 . S
C331 N334 1.301 . S
C331 N335 1.328 . S
C331 H336 0.930 . S
C332 C333 1.333 . S
C332 N334 1.317 . S
C332 H337 0.930 . S
C333 C332 1.333 . S
C333 N335 1.350 . S
C333 H359 0.931 . S
N334 Co330 2.148 . S
N334 C331 1.301 . S
N334 C332 1.317 . S
N335 C331 1.328 . S
N335 C333 1.350 . S
H336 C331 0.930 . S
H337 C332 0.930 . S
C338 O339 1.224 . S
C338 O357 1.247 . S
O339 C338 1.224 . S
N340 Co330 2.128 . S
N340 C341 1.355 . S
N340 C343 1.311 . S
C341 N340 1.355 . S
C341 C342 1.363 . S
C341 H353 0.929 . S
C342 C341 1.363 . S
C342 N344 1.375 . S
C342 H360 0.931 . S
C343 N340 1.311 . S
C343 N344 1.347 . S
C343 H354 0.929 . S
N344 C342 1.375 . S
N344 C343 1.347 . S
C345 C348 1.365 . S
C345 N350 1.328 . S
C345 H351 0.929 . S
C346 C347 1.362 . S
C346 C349 1.378 . S
C346 H361 0.929 . S
C347 C346 1.362 . S
C347 C348 1.366 . S
C348 C345 1.365 . S
C348 C347 1.366 . S
C348 H362 0.930 . S
C349 C346 1.378 . S
C349 N350 1.315 . S
C349 H352 0.930 . S
N350 Co330 2.194 . S
N350 C345 1.328 . S
N350 C349 1.315 . S
H351 C345 0.929 . S
H352 C349 0.930 . S
H353 C341 0.929 . S
H354 C343 0.929 . S
O355 Co330 2.351 . S
O355 C358 1.244 . S
O356 Co330 2.155 . S
O356 C358 1.240 . S
O357 Co330 2.096 . S
O357 C338 1.247 . S
C358 O355 1.244 . S
C358 O356 1.240 . S
H359 C333 0.931 . S
H360 C342 0.931 . S
H361 C346 0.929 . S
H362 C348 0.930 . S
Co363 N367 2.148 . S
Co363 N373 2.128 . S
Co363 N383 2.194 . S
Co363 O388 2.351 . S
Co363 O389 2.155 . S
Co363 O390 2.096 . S
C364 N367 1.301 . S
C364 N368 1.328 . S
C364 H369 0.930 . S
C365 C366 1.333 . S
C365 N367 1.317 . S
C365 H370 0.930 . S
C366 C365 1.333 . S
C366 N368 1.350 . S
C366 H392 0.931 . S
N367 Co363 2.148 . S
N367 C364 1.301 . S
N367 C365 1.317 . S
N368 C364 1.328 . S
N368 C366 1.350 . S
H369 C364 0.930 . S
H370 C365 0.930 . S
C371 O372 1.224 . S
C371 O390 1.247 . S
O372 C371 1.224 . S
N373 Co363 2.128 . S
N373 C374 1.355 . S
N373 C376 1.311 . S
C374 N373 1.355 . S
C374 C375 1.363 . S
C374 H386 0.929 . S
C375 C374 1.363 . S
C375 N377 1.375 . S
C375 H393 0.931 . S
C376 N373 1.311 . S
C376 N377 1.347 . S
C376 H387 0.929 . S
N377 C375 1.375 . S
N377 C376 1.347 . S
C378 C381 1.365 . S
C378 N383 1.328 . S
C378 H384 0.929 . S
C379 C380 1.362 . S
C379 C382 1.378 . S
C379 H394 0.929 . S
C380 C379 1.362 . S
C380 C381 1.366 . S
C381 C378 1.365 . S
C381 C380 1.366 . S
C381 H395 0.930 . S
C382 C379 1.378 . S
C382 N383 1.315 . S
C382 H385 0.930 . S
N383 Co363 2.194 . S
N383 C378 1.328 . S
N383 C382 1.315 . S
H384 C378 0.929 . S
H385 C382 0.930 . S
H386 C374 0.929 . S
H387 C376 0.929 . S
O388 Co363 2.351 . S
O388 C391 1.244 . S
O389 Co363 2.155 . S
O389 C391 1.240 . S
O390 Co363 2.096 . S
O390 C371 1.247 . S
C391 O388 1.244 . S
C391 O389 1.240 . S
H392 C366 0.931 . S
H393 C375 0.931 . S
H394 C379 0.929 . S
H395 C381 0.930 . S
Co396 N400 2.148 . S
Co396 N406 2.128 . S
Co396 N416 2.194 . S
Co396 O421 2.351 . S
Co396 O422 2.155 . S
Co396 O423 2.096 . S
C397 N400 1.301 . S
C397 N401 1.328 . S
C397 H402 0.930 . S
C398 C399 1.333 . S
C398 N400 1.317 . S
C398 H403 0.930 . S
C399 C398 1.333 . S
C399 N401 1.350 . S
C399 H425 0.931 . S
N400 Co396 2.148 . S
N400 C397 1.301 . S
N400 C398 1.317 . S
N401 C397 1.328 . S
N401 C399 1.350 . S
H402 C397 0.930 . S
H403 C398 0.930 . S
C404 O405 1.224 . S
C404 O423 1.247 . S
O405 C404 1.224 . S
N406 Co396 2.128 . S
N406 C407 1.355 . S
N406 C409 1.311 . S
C407 N406 1.355 . S
C407 C408 1.363 . S
C407 H419 0.929 . S
C408 C407 1.363 . S
C408 N410 1.375 . S
C408 H426 0.931 1_655 S
C409 N406 1.311 . S
C409 N410 1.347 . S
C409 H420 0.929 . S
N410 C408 1.375 . S
N410 C409 1.347 . S
C411 C414 1.365 . S
C411 N416 1.328 . S
C411 H417 0.929 . S
C412 C413 1.362 . S
C412 C415 1.378 . S
C412 H427 0.929 . S
C413 C412 1.362 . S
C413 C414 1.366 . S
C414 C411 1.365 . S
C414 C413 1.366 . S
C414 H428 0.930 . S
C415 C412 1.378 . S
C415 N416 1.315 . S
C415 H418 0.930 . S
N416 Co396 2.194 . S
N416 C411 1.328 . S
N416 C415 1.315 . S
H417 C411 0.929 . S
H418 C415 0.930 . S
H419 C407 0.929 . S
H420 C409 0.929 . S
O421 Co396 2.351 . S
O421 C424 1.244 . S
O422 Co396 2.155 . S
O422 C424 1.240 . S
O423 Co396 2.096 . S
O423 C404 1.247 . S
C424 O421 1.244 . S
C424 O422 1.240 . S
H425 C399 0.931 . S
H426 C408 0.931 1_455 S
H427 C412 0.929 . S
H428 C414 0.930 . S
Co429 N433 2.148 . S
Co429 N439 2.128 . S
Co429 N449 2.194 . S
Co429 O454 2.351 . S
Co429 O455 2.155 . S
Co429 O456 2.096 . S
C430 N433 1.301 . S
C430 N434 1.328 . S
C430 H435 0.930 . S
C431 C432 1.333 . S
C431 N433 1.317 . S
C431 H436 0.930 . S
C432 C431 1.333 . S
C432 N434 1.350 . S
C432 H458 0.931 . S
N433 Co429 2.148 . S
N433 C430 1.301 . S
N433 C431 1.317 . S
N434 C430 1.328 . S
N434 C432 1.350 . S
H435 C430 0.930 . S
H436 C431 0.930 . S
C437 O438 1.224 . S
C437 O456 1.247 . S
O438 C437 1.224 . S
N439 Co429 2.128 . S
N439 C440 1.355 . S
N439 C442 1.311 . S
C440 N439 1.355 . S
C440 C441 1.363 . S
C440 H452 0.929 . S
C441 C440 1.363 . S
C441 N443 1.375 . S
C441 H459 0.931 . S
C442 N439 1.311 . S
C442 N443 1.347 . S
C442 H453 0.929 . S
N443 C441 1.375 . S
N443 C442 1.347 . S
C444 C447 1.365 . S
C444 N449 1.328 . S
C444 H450 0.929 . S
C445 C446 1.362 . S
C445 C448 1.378 . S
C445 H460 0.929 . S
C446 C445 1.362 . S
C446 C447 1.366 . S
C447 C444 1.365 . S
C447 C446 1.366 . S
C447 H461 0.930 . S
C448 C445 1.378 . S
C448 N449 1.315 . S
C448 H451 0.930 . S
N449 Co429 2.194 . S
N449 C444 1.328 . S
N449 C448 1.315 . S
H450 C444 0.929 . S
H451 C448 0.930 . S
H452 C440 0.929 . S
H453 C442 0.929 . S
O454 Co429 2.351 . S
O454 C457 1.244 . S
O455 Co429 2.155 . S
O455 C457 1.240 . S
O456 Co429 2.096 . S
O456 C437 1.247 . S
C457 O454 1.244 . S
C457 O455 1.240 . S
H458 C432 0.931 . S
H459 C441 0.931 . S
H460 C445 0.929 . S
H461 C447 0.930 . S
Co462 N466 2.148 . S
Co462 N472 2.128 . S
Co462 N482 2.194 . S
Co462 O487 2.351 . S
Co462 O488 2.155 . S
Co462 O489 2.096 . S
C463 N466 1.301 . S
C463 N467 1.328 . S
C463 H468 0.930 . S
C464 C465 1.333 . S
C464 N466 1.317 . S
C464 H469 0.930 . S
C465 C464 1.333 . S
C465 N467 1.350 . S
C465 H491 0.931 . S
N466 Co462 2.148 . S
N466 C463 1.301 . S
N466 C464 1.317 . S
N467 C463 1.328 . S
N467 C465 1.350 . S
H468 C463 0.930 . S
H469 C464 0.930 . S
C470 O471 1.224 . S
C470 O489 1.247 . S
O471 C470 1.224 . S
N472 Co462 2.128 . S
N472 C473 1.355 . S
N472 C475 1.311 . S
C473 N472 1.355 . S
C473 C474 1.363 . S
C473 H485 0.929 . S
C474 C473 1.363 . S
C474 N476 1.375 . S
C474 H492 0.931 1_545 S
C475 N472 1.311 . S
C475 N476 1.347 . S
C475 H486 0.929 . S
N476 C474 1.375 . S
N476 C475 1.347 . S
C477 C480 1.365 . S
C477 N482 1.328 . S
C477 H483 0.929 . S
C478 C479 1.362 . S
C478 C481 1.378 . S
C478 H493 0.929 . S
C479 C478 1.362 . S
C479 C480 1.366 . S
C480 C477 1.365 . S
C480 C479 1.366 . S
C480 H494 0.930 . S
C481 C478 1.378 . S
C481 N482 1.315 . S
C481 H484 0.930 . S
N482 Co462 2.194 . S
N482 C477 1.328 . S
N482 C481 1.315 . S
H483 C477 0.929 . S
H484 C481 0.930 . S
H485 C473 0.929 . S
H486 C475 0.929 . S
O487 Co462 2.351 . S
O487 C490 1.244 . S
O488 Co462 2.155 . S
O488 C490 1.240 . S
O489 Co462 2.096 . S
O489 C470 1.247 . S
C490 O487 1.244 . S
C490 O488 1.240 . S
H491 C465 0.931 . S
H492 C474 0.931 1_565 S
H493 C478 0.929 . S
H494 C480 0.930 . S
Co495 N499 2.148 . S
Co495 N505 2.128 . S
Co495 N515 2.194 . S
Co495 O520 2.351 . S
Co495 O521 2.155 . S
Co495 O522 2.096 . S
C496 N499 1.301 . S
C496 N500 1.328 . S
C496 H501 0.930 . S
C497 C498 1.333 . S
C497 N499 1.317 . S
C497 H502 0.930 . S
C498 C497 1.333 . S
C498 N500 1.350 . S
C498 H524 0.931 . S
N499 Co495 2.148 . S
N499 C496 1.301 . S
N499 C497 1.317 . S
N500 C496 1.328 . S
N500 C498 1.350 . S
H501 C496 0.930 . S
H502 C497 0.930 . S
C503 O504 1.224 . S
C503 O522 1.247 . S
O504 C503 1.224 . S
N505 Co495 2.128 . S
N505 C506 1.355 . S
N505 C508 1.311 . S
C506 N505 1.355 . S
C506 C507 1.363 . S
C506 H518 0.929 . S
C507 C506 1.363 . S
C507 N509 1.375 . S
C507 H525 0.931 . S
C508 N505 1.311 . S
C508 N509 1.347 . S
C508 H519 0.929 . S
N509 C507 1.375 . S
N509 C508 1.347 . S
C510 C513 1.365 . S
C510 N515 1.328 . S
C510 H516 0.929 . S
C511 C512 1.362 . S
C511 C514 1.378 . S
C511 H526 0.929 . S
C512 C511 1.362 . S
C512 C513 1.366 . S
C513 C510 1.365 . S
C513 C512 1.366 . S
C513 H527 0.930 . S
C514 C511 1.378 . S
C514 N515 1.315 . S
C514 H517 0.930 . S
N515 Co495 2.194 . S
N515 C510 1.328 . S
N515 C514 1.315 . S
H516 C510 0.929 . S
H517 C514 0.930 . S
H518 C506 0.929 . S
H519 C508 0.929 . S
O520 Co495 2.351 . S
O520 C523 1.244 . S
O521 Co495 2.155 . S
O521 C523 1.240 . S
O522 Co495 2.096 . S
O522 C503 1.247 . S
C523 O520 1.244 . S
C523 O521 1.240 . S
H524 C498 0.931 . S
H525 C507 0.931 . S
H526 C511 0.929 . S
H527 C513 0.930 . S
Co528 N532 2.148 . S
Co528 N538 2.128 . S
Co528 N548 2.194 . S
Co528 O553 2.351 . S
Co528 O554 2.155 . S
Co528 O555 2.096 . S
C529 N532 1.301 . S
C529 N533 1.328 . S
C529 H534 0.930 . S
C530 C531 1.333 . S
C530 N532 1.317 . S
C530 H535 0.930 . S
C531 C530 1.333 . S
C531 N533 1.350 . S
C531 H557 0.931 . S
N532 Co528 2.148 . S
N532 C529 1.301 . S
N532 C530 1.317 . S
N533 C529 1.328 . S
N533 C531 1.350 . S
H534 C529 0.930 . S
H535 C530 0.930 . S
C536 O537 1.224 . S
C536 O555 1.247 . S
O537 C536 1.224 . S
N538 Co528 2.128 . S
N538 C539 1.355 . S
N538 C541 1.311 . S
C539 N538 1.355 . S
C539 C540 1.363 . S
C539 H551 0.929 . S
C540 C539 1.363 . S
C540 N542 1.375 . S
C540 H558 0.931 . S
C541 N538 1.311 . S
C541 N542 1.347 . S
C541 H552 0.929 . S
N542 C540 1.375 . S
N542 C541 1.347 . S
C543 C546 1.365 . S
C543 N548 1.328 . S
C543 H549 0.929 . S
C544 C545 1.362 . S
C544 C547 1.378 . S
C544 H559 0.929 . S
C545 C544 1.362 . S
C545 C546 1.366 . S
C546 C543 1.365 . S
C546 C545 1.366 . S
C546 H560 0.930 . S
C547 C544 1.378 . S
C547 N548 1.315 . S
C547 H550 0.930 . S
N548 Co528 2.194 . S
N548 C543 1.328 . S
N548 C547 1.315 . S
H549 C543 0.929 . S
H550 C547 0.930 . S
H551 C539 0.929 . S
H552 C541 0.929 . S
O553 Co528 2.351 . S
O553 C556 1.244 . S
O554 Co528 2.155 . S
O554 C556 1.240 . S
O555 Co528 2.096 . S
O555 C536 1.247 . S
C556 O553 1.244 . S
C556 O554 1.240 . S
H557 C531 0.931 . S
H558 C540 0.931 . S
H559 C544 0.929 . S
H560 C546 0.930 . S
Co561 N565 2.148 . S
Co561 N571 2.128 . S
Co561 N581 2.194 . S
Co561 O586 2.351 . S
Co561 O587 2.155 . S
Co561 O588 2.096 . S
C562 N565 1.301 . S
C562 N566 1.328 . S
C562 H567 0.930 . S
C563 C564 1.333 . S
C563 N565 1.317 . S
C563 H568 0.930 . S
C564 C563 1.333 . S
C564 N566 1.350 . S
C564 H590 0.931 . S
N565 Co561 2.148 . S
N565 C562 1.301 . S
N565 C563 1.317 . S
N566 C562 1.328 . S
N566 C564 1.350 . S
H567 C562 0.930 . S
H568 C563 0.930 . S
C569 O570 1.224 . S
C569 O588 1.247 . S
O570 C569 1.224 . S
N571 Co561 2.128 . S
N571 C572 1.355 . S
N571 C574 1.311 . S
C572 N571 1.355 . S
C572 C573 1.363 . S
C572 H584 0.929 . S
C573 C572 1.363 . S
C573 N575 1.375 . S
C573 H591 0.931 . S
C574 N571 1.311 . S
C574 N575 1.347 . S
C574 H585 0.929 . S
N575 C573 1.375 . S
N575 C574 1.347 . S
C576 C579 1.365 . S
C576 N581 1.328 . S
C576 H582 0.929 . S
C577 C578 1.362 . S
C577 C580 1.378 . S
C577 H592 0.929 . S
C578 C577 1.362 . S
C578 C579 1.366 . S
C579 C576 1.365 . S
C579 C578 1.366 . S
C579 H593 0.930 . S
C580 C577 1.378 . S
C580 N581 1.315 . S
C580 H583 0.930 . S
N581 Co561 2.194 . S
N581 C576 1.328 . S
N581 C580 1.315 . S
H582 C576 0.929 . S
H583 C580 0.930 . S
H584 C572 0.929 . S
H585 C574 0.929 . S
O586 Co561 2.351 . S
O586 C589 1.244 . S
O587 Co561 2.155 . S
O587 C589 1.240 . S
O588 Co561 2.096 . S
O588 C569 1.247 . S
C589 O586 1.244 . S
C589 O587 1.240 . S
H590 C564 0.931 . S
H591 C573 0.931 . S
H592 C577 0.929 . S
H593 C579 0.930 . S
Co594 N598 2.148 . S
Co594 N604 2.128 . S
Co594 N614 2.194 . S
Co594 O619 2.351 . S
Co594 O620 2.155 . S
Co594 O621 2.096 . S
C595 N598 1.301 . S
C595 N599 1.328 . S
C595 H600 0.930 . S
C596 C597 1.333 . S
C596 N598 1.317 . S
C596 H601 0.930 . S
C597 C596 1.333 . S
C597 N599 1.350 . S
C597 H623 0.931 . S
N598 Co594 2.148 . S
N598 C595 1.301 . S
N598 C596 1.317 . S
N599 C595 1.328 . S
N599 C597 1.350 . S
H600 C595 0.930 . S
H601 C596 0.930 . S
C602 O603 1.224 . S
C602 O621 1.247 . S
O603 C602 1.224 . S
N604 Co594 2.128 . S
N604 C605 1.355 . S
N604 C607 1.311 . S
C605 N604 1.355 . S
C605 C606 1.363 . S
C605 H617 0.929 . S
C606 C605 1.363 . S
C606 N608 1.375 . S
C606 H624 0.931 . S
C607 N604 1.311 . S
C607 N608 1.347 . S
C607 H618 0.929 . S
N608 C606 1.375 . S
N608 C607 1.347 . S
C609 C612 1.365 . S
C609 N614 1.328 . S
C609 H615 0.929 . S
C610 C611 1.362 . S
C610 C613 1.378 . S
C610 H625 0.929 . S
C611 C610 1.362 . S
C611 C612 1.366 . S
C612 C609 1.365 . S
C612 C611 1.366 . S
C612 H626 0.930 . S
C613 C610 1.378 . S
C613 N614 1.315 . S
C613 H616 0.930 . S
N614 Co594 2.194 . S
N614 C609 1.328 . S
N614 C613 1.315 . S
H615 C609 0.929 . S
H616 C613 0.930 . S
H617 C605 0.929 . S
H618 C607 0.929 . S
O619 Co594 2.351 . S
O619 C622 1.244 . S
O620 Co594 2.155 . S
O620 C622 1.240 . S
O621 Co594 2.096 . S
O621 C602 1.247 . S
C622 O619 1.244 . S
C622 O620 1.240 . S
H623 C597 0.931 . S
H624 C606 0.931 . S
H625 C610 0.929 . S
H626 C612 0.930 . S
Co627 N631 2.148 . S
Co627 N637 2.128 . S
Co627 N647 2.194 . S
Co627 O652 2.351 . S
Co627 O653 2.155 . S
Co627 O654 2.096 . S
C628 N631 1.301 . S
C628 N632 1.328 . S
C628 H633 0.930 . S
C629 C630 1.333 . S
C629 N631 1.317 . S
C629 H634 0.930 . S
C630 C629 1.333 . S
C630 N632 1.350 . S
C630 H656 0.931 . S
N631 Co627 2.148 . S
N631 C628 1.301 . S
N631 C629 1.317 . S
N632 C628 1.328 . S
N632 C630 1.350 . S
H633 C628 0.930 . S
H634 C629 0.930 . S
C635 O636 1.224 . S
C635 O654 1.247 . S
O636 C635 1.224 . S
N637 Co627 2.128 . S
N637 C638 1.355 . S
N637 C640 1.311 . S
C638 N637 1.355 . S
C638 C639 1.363 . S
C638 H650 0.929 . S
C639 C638 1.363 . S
C639 N641 1.375 . S
C639 H657 0.931 . S
C640 N637 1.311 . S
C640 N641 1.347 . S
C640 H651 0.929 . S
N641 C639 1.375 . S
N641 C640 1.347 . S
C642 C645 1.365 . S
C642 N647 1.328 . S
C642 H648 0.929 . S
C643 C644 1.362 . S
C643 C646 1.378 . S
C643 H658 0.929 . S
C644 C643 1.362 . S
C644 C645 1.366 . S
C645 C642 1.365 . S
C645 C644 1.366 . S
C645 H659 0.930 . S
C646 C643 1.378 . S
C646 N647 1.315 . S
C646 H649 0.930 . S
N647 Co627 2.194 . S
N647 C642 1.328 . S
N647 C646 1.315 . S
H648 C642 0.929 . S
H649 C646 0.930 . S
H650 C638 0.929 . S
H651 C640 0.929 . S
O652 Co627 2.351 . S
O652 C655 1.244 . S
O653 Co627 2.155 . S
O653 C655 1.240 . S
O654 Co627 2.096 . S
O654 C635 1.247 . S
C655 O652 1.244 . S
C655 O653 1.240 . S
H656 C630 0.931 . S
H657 C639 0.931 . S
H658 C643 0.929 . S
H659 C645 0.930 . S
Co660 N664 2.148 . S
Co660 N670 2.128 . S
Co660 N680 2.194 . S
Co660 O685 2.351 . S
Co660 O686 2.155 . S
Co660 O687 2.096 . S
C661 N664 1.301 . S
C661 N665 1.328 . S
C661 H666 0.930 . S
C662 C663 1.333 . S
C662 N664 1.317 . S
C662 H667 0.930 . S
C663 C662 1.333 . S
C663 N665 1.350 . S
C663 H689 0.931 . S
N664 Co660 2.148 . S
N664 C661 1.301 . S
N664 C662 1.317 . S
N665 C661 1.328 . S
N665 C663 1.350 . S
H666 C661 0.930 . S
H667 C662 0.930 . S
C668 O669 1.224 . S
C668 O687 1.247 . S
O669 C668 1.224 . S
N670 Co660 2.128 . S
N670 C671 1.355 . S
N670 C673 1.311 . S
C671 N670 1.355 . S
C671 C672 1.363 . S
C671 H683 0.929 . S
C672 C671 1.363 . S
C672 N674 1.375 . S
C672 H690 0.931 . S
C673 N670 1.311 . S
C673 N674 1.347 . S
C673 H684 0.929 . S
N674 C672 1.375 . S
N674 C673 1.347 . S
C675 C678 1.365 . S
C675 N680 1.328 . S
C675 H681 0.929 . S
C676 C677 1.362 . S
C676 C679 1.378 . S
C676 H691 0.929 . S
C677 C676 1.362 . S
C677 C678 1.366 . S
C678 C675 1.365 . S
C678 C677 1.366 . S
C678 H692 0.930 . S
C679 C676 1.378 . S
C679 N680 1.315 . S
C679 H682 0.930 . S
N680 Co660 2.194 . S
N680 C675 1.328 . S
N680 C679 1.315 . S
H681 C675 0.929 . S
H682 C679 0.930 . S
H683 C671 0.929 . S
H684 C673 0.929 . S
O685 Co660 2.351 . S
O685 C688 1.244 . S
O686 Co660 2.155 . S
O686 C688 1.240 . S
O687 Co660 2.096 . S
O687 C668 1.247 . S
C688 O685 1.244 . S
C688 O686 1.240 . S
H689 C663 0.931 . S
H690 C672 0.931 . S
H691 C676 0.929 . S
H692 C678 0.930 . S
Co693 N697 2.148 . S
Co693 N703 2.128 . S
Co693 N713 2.194 . S
Co693 O718 2.351 . S
Co693 O719 2.155 . S
Co693 O720 2.096 . S
C694 N697 1.301 . S
C694 N698 1.328 . S
C694 H699 0.930 . S
C695 C696 1.333 . S
C695 N697 1.317 . S
C695 H700 0.930 . S
C696 C695 1.333 . S
C696 N698 1.350 . S
C696 H722 0.931 . S
N697 Co693 2.148 . S
N697 C694 1.301 . S
N697 C695 1.317 . S
N698 C694 1.328 . S
N698 C696 1.350 . S
H699 C694 0.930 . S
H700 C695 0.930 . S
C701 O702 1.224 . S
C701 O720 1.247 . S
O702 C701 1.224 . S
N703 Co693 2.128 . S
N703 C704 1.355 . S
N703 C706 1.311 . S
C704 N703 1.355 . S
C704 C705 1.363 . S
C704 H716 0.929 . S
C705 C704 1.363 . S
C705 N707 1.375 . S
C705 H723 0.931 1_545 S
C706 N703 1.311 . S
C706 N707 1.347 . S
C706 H717 0.929 . S
N707 C705 1.375 . S
N707 C706 1.347 . S
C708 C711 1.365 . S
C708 N713 1.328 . S
C708 H714 0.929 . S
C709 C710 1.362 . S
C709 C712 1.378 . S
C709 H724 0.929 . S
C710 C709 1.362 . S
C710 C711 1.366 . S
C711 C708 1.365 . S
C711 C710 1.366 . S
C711 H725 0.930 . S
C712 C709 1.378 . S
C712 N713 1.315 . S
C712 H715 0.930 . S
N713 Co693 2.194 . S
N713 C708 1.328 . S
N713 C712 1.315 . S
H714 C708 0.929 . S
H715 C712 0.930 . S
H716 C704 0.929 . S
H717 C706 0.929 . S
O718 Co693 2.351 . S
O718 C721 1.244 . S
O719 Co693 2.155 . S
O719 C721 1.240 . S
O720 Co693 2.096 . S
O720 C701 1.247 . S
C721 O718 1.244 . S
C721 O719 1.240 . S
H722 C696 0.931 . S
H723 C705 0.931 1_565 S
H724 C709 0.929 . S
H725 C711 0.930 . S
Co726 N730 2.148 . S
Co726 N736 2.128 . S
Co726 N746 2.194 . S
Co726 O751 2.351 . S
Co726 O752 2.155 . S
Co726 O753 2.096 . S
C727 N730 1.301 . S
C727 N731 1.328 . S
C727 H732 0.930 . S
C728 C729 1.333 . S
C728 N730 1.317 . S
C728 H733 0.930 . S
C729 C728 1.333 . S
C729 N731 1.350 . S
C729 H755 0.931 . S
N730 Co726 2.148 . S
N730 C727 1.301 . S
N730 C728 1.317 . S
N731 C727 1.328 . S
N731 C729 1.350 . S
H732 C727 0.930 . S
H733 C728 0.930 . S
C734 O735 1.224 . S
C734 O753 1.247 . S
O735 C734 1.224 . S
N736 Co726 2.128 . S
N736 C737 1.355 . S
N736 C739 1.311 . S
C737 N736 1.355 . S
C737 C738 1.363 . S
C737 H749 0.929 . S
C738 C737 1.363 . S
C738 N740 1.375 . S
C738 H756 0.931 1_655 S
C739 N736 1.311 . S
C739 N740 1.347 . S
C739 H750 0.929 . S
N740 C738 1.375 . S
N740 C739 1.347 . S
C741 C744 1.365 . S
C741 N746 1.328 . S
C741 H747 0.929 . S
C742 C743 1.362 . S
C742 C745 1.378 . S
C742 H757 0.929 . S
C743 C742 1.362 . S
C743 C744 1.366 . S
C744 C741 1.365 . S
C744 C743 1.366 . S
C744 H758 0.930 . S
C745 C742 1.378 . S
C745 N746 1.315 . S
C745 H748 0.930 . S
N746 Co726 2.194 . S
N746 C741 1.328 . S
N746 C745 1.315 . S
H747 C741 0.929 . S
H748 C745 0.930 . S
H749 C737 0.929 . S
H750 C739 0.929 . S
O751 Co726 2.351 . S
O751 C754 1.244 . S
O752 Co726 2.155 . S
O752 C754 1.240 . S
O753 Co726 2.096 . S
O753 C734 1.247 . S
C754 O751 1.244 . S
C754 O752 1.240 . S
H755 C729 0.931 . S
H756 C738 0.931 1_455 S
H757 C742 0.929 . S
H758 C744 0.930 . S
Co759 N763 2.148 . S
Co759 N769 2.128 . S
Co759 N779 2.194 . S
Co759 O784 2.351 . S
Co759 O785 2.155 . S
Co759 O786 2.096 . S
C760 N763 1.301 . S
C760 N764 1.328 . S
C760 H765 0.930 . S
C761 C762 1.333 . S
C761 N763 1.317 . S
C761 H766 0.930 . S
C762 C761 1.333 . S
C762 N764 1.350 . S
C762 H788 0.931 . S
N763 Co759 2.148 . S
N763 C760 1.301 . S
N763 C761 1.317 . S
N764 C760 1.328 . S
N764 C762 1.350 . S
H765 C760 0.930 . S
H766 C761 0.930 . S
C767 O768 1.224 . S
C767 O786 1.247 . S
O768 C767 1.224 . S
N769 Co759 2.128 . S
N769 C770 1.355 . S
N769 C772 1.311 . S
C770 N769 1.355 . S
C770 C771 1.363 . S
C770 H782 0.929 . S
C771 C770 1.363 . S
C771 N773 1.375 . S
C771 H789 0.931 . S
C772 N769 1.311 . S
C772 N773 1.347 . S
C772 H783 0.929 . S
N773 C771 1.375 . S
N773 C772 1.347 . S
C774 C777 1.365 . S
C774 N779 1.328 . S
C774 H780 0.929 . S
C775 C776 1.362 . S
C775 C778 1.378 . S
C775 H790 0.929 . S
C776 C775 1.362 . S
C776 C777 1.366 . S
C777 C774 1.365 . S
C777 C776 1.366 . S
C777 H791 0.930 . S
C778 C775 1.378 . S
C778 N779 1.315 . S
C778 H781 0.930 . S
N779 Co759 2.194 . S
N779 C774 1.328 . S
N779 C778 1.315 . S
H780 C774 0.929 . S
H781 C778 0.930 . S
H782 C770 0.929 . S
H783 C772 0.929 . S
O784 Co759 2.351 . S
O784 C787 1.244 . S
O785 Co759 2.155 . S
O785 C787 1.240 . S
O786 Co759 2.096 . S
O786 C767 1.247 . S
C787 O784 1.244 . S
C787 O785 1.240 . S
H788 C762 0.931 . S
H789 C771 0.931 . S
H790 C775 0.929 . S
H791 C777 0.930 . S
Co792 N796 2.148 . S
Co792 N802 2.128 . S
Co792 N812 2.194 . S
Co792 O817 2.351 . S
Co792 O818 2.155 . S
Co792 O819 2.096 . S
C793 N796 1.301 . S
C793 N797 1.328 . S
C793 H798 0.930 . S
C794 C795 1.333 . S
C794 N796 1.317 . S
C794 H799 0.930 . S
C795 C794 1.333 . S
C795 N797 1.350 . S
C795 H821 0.931 . S
N796 Co792 2.148 . S
N796 C793 1.301 . S
N796 C794 1.317 . S
N797 C793 1.328 . S
N797 C795 1.350 . S
H798 C793 0.930 . S
H799 C794 0.930 . S
C800 O801 1.224 . S
C800 O819 1.247 . S
O801 C800 1.224 . S
N802 Co792 2.128 . S
N802 C803 1.355 . S
N802 C805 1.311 . S
C803 N802 1.355 . S
C803 C804 1.363 . S
C803 H815 0.929 . S
C804 C803 1.363 . S
C804 N806 1.375 . S
C804 H822 0.931 . S
C805 N802 1.311 . S
C805 N806 1.347 . S
C805 H816 0.929 . S
N806 C804 1.375 . S
N806 C805 1.347 . S
C807 C810 1.365 . S
C807 N812 1.328 . S
C807 H813 0.929 . S
C808 C809 1.362 . S
C808 C811 1.378 . S
C808 H823 0.929 . S
C809 C808 1.362 . S
C809 C810 1.366 . S
C810 C807 1.365 . S
C810 C809 1.366 . S
C810 H824 0.930 . S
C811 C808 1.378 . S
C811 N812 1.315 . S
C811 H814 0.930 . S
N812 Co792 2.194 . S
N812 C807 1.328 . S
N812 C811 1.315 . S
H813 C807 0.929 . S
H814 C811 0.930 . S
H815 C803 0.929 . S
H816 C805 0.929 . S
O817 Co792 2.351 . S
O817 C820 1.244 . S
O818 Co792 2.155 . S
O818 C820 1.240 . S
O819 Co792 2.096 . S
O819 C800 1.247 . S
C820 O817 1.244 . S
C820 O818 1.240 . S
H821 C795 0.931 . S
H822 C804 0.931 . S
H823 C808 0.929 . S
H824 C810 0.930 . S
Co825 N829 2.148 . S
Co825 N835 2.128 . S
Co825 N845 2.194 . S
Co825 O850 2.351 . S
Co825 O851 2.155 . S
Co825 O852 2.096 . S
C826 N829 1.301 . S
C826 N830 1.328 . S
C826 H831 0.930 . S
C827 C828 1.333 . S
C827 N829 1.317 . S
C827 H832 0.930 . S
C828 C827 1.333 . S
C828 N830 1.350 . S
C828 H854 0.931 . S
N829 Co825 2.148 . S
N829 C826 1.301 . S
N829 C827 1.317 . S
N830 C826 1.328 . S
N830 C828 1.350 . S
H831 C826 0.930 . S
H832 C827 0.930 . S
C833 O834 1.224 . S
C833 O852 1.247 . S
O834 C833 1.224 . S
N835 Co825 2.128 . S
N835 C836 1.355 . S
N835 C838 1.311 . S
C836 N835 1.355 . S
C836 C837 1.363 . S
C836 H848 0.929 . S
C837 C836 1.363 . S
C837 N839 1.375 . S
C837 H855 0.931 . S
C838 N835 1.311 . S
C838 N839 1.347 . S
C838 H849 0.929 . S
N839 C837 1.375 . S
N839 C838 1.347 . S
C840 C843 1.365 . S
C840 N845 1.328 . S
C840 H846 0.929 . S
C841 C842 1.362 . S
C841 C844 1.378 . S
C841 H856 0.929 . S
C842 C841 1.362 . S
C842 C843 1.366 . S
C843 C840 1.365 . S
C843 C842 1.366 . S
C843 H857 0.930 . S
C844 C841 1.378 . S
C844 N845 1.315 . S
C844 H847 0.930 . S
N845 Co825 2.194 . S
N845 C840 1.328 . S
N845 C844 1.315 . S
H846 C840 0.929 . S
H847 C844 0.930 . S
H848 C836 0.929 . S
H849 C838 0.929 . S
O850 Co825 2.351 . S
O850 C853 1.244 . S
O851 Co825 2.155 . S
O851 C853 1.240 . S
O852 Co825 2.096 . S
O852 C833 1.247 . S
C853 O850 1.244 . S
C853 O851 1.240 . S
H854 C828 0.931 . S
H855 C837 0.931 . S
H856 C841 0.929 . S
H857 C843 0.930 . S
Co858 N862 2.148 . S
Co858 N868 2.128 . S
Co858 N878 2.194 . S
Co858 O883 2.351 . S
Co858 O884 2.155 . S
Co858 O885 2.096 . S
C859 N862 1.301 . S
C859 N863 1.328 . S
C859 H864 0.930 . S
C860 C861 1.333 . S
C860 N862 1.317 . S
C860 H865 0.930 . S
C861 C860 1.333 . S
C861 N863 1.350 . S
C861 H887 0.931 . S
N862 Co858 2.148 . S
N862 C859 1.301 . S
N862 C860 1.317 . S
N863 C859 1.328 . S
N863 C861 1.350 . S
H864 C859 0.930 . S
H865 C860 0.930 . S
C866 O867 1.224 . S
C866 O885 1.247 . S
O867 C866 1.224 . S
N868 Co858 2.128 . S
N868 C869 1.355 . S
N868 C871 1.311 . S
C869 N868 1.355 . S
C869 C870 1.363 . S
C869 H881 0.929 . S
C870 C869 1.363 . S
C870 N872 1.375 . S
C870 H888 0.931 . S
C871 N868 1.311 . S
C871 N872 1.347 . S
C871 H882 0.929 . S
N872 C870 1.375 . S
N872 C871 1.347 . S
C873 C876 1.365 . S
C873 N878 1.328 . S
C873 H879 0.929 . S
C874 C875 1.362 . S
C874 C877 1.378 . S
C874 H889 0.929 . S
C875 C874 1.362 . S
C875 C876 1.366 . S
C876 C873 1.365 . S
C876 C875 1.366 . S
C876 H890 0.930 . S
C877 C874 1.378 . S
C877 N878 1.315 . S
C877 H880 0.930 . S
N878 Co858 2.194 . S
N878 C873 1.328 . S
N878 C877 1.315 . S
H879 C873 0.929 . S
H880 C877 0.930 . S
H881 C869 0.929 . S
H882 C871 0.929 . S
O883 Co858 2.351 . S
O883 C886 1.244 . S
O884 Co858 2.155 . S
O884 C886 1.240 . S
O885 Co858 2.096 . S
O885 C866 1.247 . S
C886 O883 1.244 . S
C886 O884 1.240 . S
H887 C861 0.931 . S
H888 C870 0.931 . S
H889 C874 0.929 . S
H890 C876 0.930 . S
Co891 N895 2.148 . S
Co891 N901 2.128 . S
Co891 N911 2.194 . S
Co891 O916 2.351 . S
Co891 O917 2.155 . S
Co891 O918 2.096 . S
C892 N895 1.301 . S
C892 N896 1.328 . S
C892 H897 0.930 . S
C893 C894 1.333 . S
C893 N895 1.317 . S
C893 H898 0.930 . S
C894 C893 1.333 . S
C894 N896 1.350 . S
C894 H920 0.931 1_565 S
N895 Co891 2.148 . S
N895 C892 1.301 . S
N895 C893 1.317 . S
N896 C892 1.328 . S
N896 C894 1.350 . S
H897 C892 0.930 . S
H898 C893 0.930 . S
C899 O900 1.224 . S
C899 O918 1.247 . S
O900 C899 1.224 . S
N901 Co891 2.128 . S
N901 C902 1.355 . S
N901 C904 1.311 . S
C902 N901 1.355 . S
C902 C903 1.363 . S
C902 H914 0.929 . S
C903 C902 1.363 . S
C903 N905 1.375 . S
C903 H921 0.931 . S
C904 N901 1.311 . S
C904 N905 1.347 . S
C904 H915 0.929 . S
N905 C903 1.375 . S
N905 C904 1.347 . S
C906 C909 1.365 . S
C906 N911 1.328 . S
C906 H912 0.929 . S
C907 C908 1.362 . S
C907 C910 1.378 . S
C907 H922 0.929 . S
C908 C907 1.362 . S
C908 C909 1.366 . S
C909 C906 1.365 . S
C909 C908 1.366 . S
C909 H923 0.930 . S
C910 C907 1.378 . S
C910 N911 1.315 . S
C910 H913 0.930 . S
N911 Co891 2.194 . S
N911 C906 1.328 . S
N911 C910 1.315 . S
H912 C906 0.929 . S
H913 C910 0.930 . S
H914 C902 0.929 . S
H915 C904 0.929 . S
O916 Co891 2.351 . S
O916 C919 1.244 . S
O917 Co891 2.155 . S
O917 C919 1.240 . S
O918 Co891 2.096 . S
O918 C899 1.247 . S
C919 O916 1.244 . S
C919 O917 1.240 . S
H920 C894 0.931 1_545 S
H921 C903 0.931 . S
H922 C907 0.929 . S
H923 C909 0.930 . S
Co924 N928 2.148 . S
Co924 N934 2.128 . S
Co924 N944 2.194 . S
Co924 O949 2.351 . S
Co924 O950 2.155 . S
Co924 O951 2.096 . S
C925 N928 1.301 . S
C925 N929 1.328 . S
C925 H930 0.930 . S
C926 C927 1.333 . S
C926 N928 1.317 . S
C926 H931 0.930 . S
C927 C926 1.333 . S
C927 N929 1.350 . S
C927 H953 0.931 1_455 S
N928 Co924 2.148 . S
N928 C925 1.301 . S
N928 C926 1.317 . S
N929 C925 1.328 . S
N929 C927 1.350 . S
H930 C925 0.930 . S
H931 C926 0.930 . S
C932 O933 1.224 . S
C932 O951 1.247 . S
O933 C932 1.224 . S
N934 Co924 2.128 . S
N934 C935 1.355 . S
N934 C937 1.311 . S
C935 N934 1.355 . S
C935 C936 1.363 . S
C935 H947 0.929 . S
C936 C935 1.363 . S
C936 N938 1.375 . S
C936 H954 0.931 . S
C937 N934 1.311 . S
C937 N938 1.347 . S
C937 H948 0.929 . S
N938 C936 1.375 . S
N938 C937 1.347 . S
C939 C942 1.365 . S
C939 N944 1.328 . S
C939 H945 0.929 . S
C940 C941 1.362 . S
C940 C943 1.378 . S
C940 H955 0.929 . S
C941 C940 1.362 . S
C941 C942 1.366 . S
C942 C939 1.365 . S
C942 C941 1.366 . S
C942 H956 0.930 . S
C943 C940 1.378 . S
C943 N944 1.315 . S
C943 H946 0.930 . S
N944 Co924 2.194 . S
N944 C939 1.328 . S
N944 C943 1.315 . S
H945 C939 0.929 . S
H946 C943 0.930 . S
H947 C935 0.929 . S
H948 C937 0.929 . S
O949 Co924 2.351 . S
O949 C952 1.244 . S
O950 Co924 2.155 . S
O950 C952 1.240 . S
O951 Co924 2.096 . S
O951 C932 1.247 . S
C952 O949 1.244 . S
C952 O950 1.240 . S
H953 C927 0.931 1_655 S
H954 C936 0.931 . S
H955 C940 0.929 . S
H956 C942 0.930 . S
Co957 N961 2.148 . S
Co957 N967 2.128 . S
Co957 N977 2.194 . S
Co957 O982 2.351 . S
Co957 O983 2.155 . S
Co957 O984 2.096 . S
C958 N961 1.301 . S
C958 N962 1.328 . S
C958 H963 0.930 . S
C959 C960 1.333 . S
C959 N961 1.317 . S
C959 H964 0.930 . S
C960 C959 1.333 . S
C960 N962 1.350 . S
C960 H986 0.931 . S
N961 Co957 2.148 . S
N961 C958 1.301 . S
N961 C959 1.317 . S
N962 C958 1.328 . S
N962 C960 1.350 . S
H963 C958 0.930 . S
H964 C959 0.930 . S
C965 O966 1.224 . S
C965 O984 1.247 . S
O966 C965 1.224 . S
N967 Co957 2.128 . S
N967 C968 1.355 . S
N967 C970 1.311 . S
C968 N967 1.355 . S
C968 C969 1.363 . S
C968 H980 0.929 . S
C969 C968 1.363 . S
C969 N971 1.375 . S
C969 H987 0.931 . S
C970 N967 1.311 . S
C970 N971 1.347 . S
C970 H981 0.929 . S
N971 C969 1.375 . S
N971 C970 1.347 . S
C972 C975 1.365 . S
C972 N977 1.328 . S
C972 H978 0.929 . S
C973 C974 1.362 . S
C973 C976 1.378 . S
C973 H988 0.929 . S
C974 C973 1.362 . S
C974 C975 1.366 . S
C975 C972 1.365 . S
C975 C974 1.366 . S
C975 H989 0.930 . S
C976 C973 1.378 . S
C976 N977 1.315 . S
C976 H979 0.930 . S
N977 Co957 2.194 . S
N977 C972 1.328 . S
N977 C976 1.315 . S
H978 C972 0.929 . S
H979 C976 0.930 . S
H980 C968 0.929 . S
H981 C970 0.929 . S
O982 Co957 2.351 . S
O982 C985 1.244 . S
O983 Co957 2.155 . S
O983 C985 1.240 . S
O984 Co957 2.096 . S
O984 C965 1.247 . S
C985 O982 1.244 . S
C985 O983 1.240 . S
H986 C960 0.931 . S
H987 C969 0.931 . S
H988 C973 0.929 . S
H989 C975 0.930 . S
Co990 N994 2.148 . S
Co990 N1000 2.128 . S
Co990 N1010 2.194 . S
Co990 O1015 2.351 . S
Co990 O1016 2.155 . S
Co990 O1017 2.096 . S
C991 N994 1.301 . S
C991 N995 1.328 . S
C991 H996 0.930 . S
C992 C993 1.333 . S
C992 N994 1.317 . S
C992 H997 0.930 . S
C993 C992 1.333 . S
C993 N995 1.350 . S
C993 H1019 0.931 . S
N994 Co990 2.148 . S
N994 C991 1.301 . S
N994 C992 1.317 . S
N995 C991 1.328 . S
N995 C993 1.350 . S
H996 C991 0.930 . S
H997 C992 0.930 . S
C998 O999 1.224 . S
C998 O1017 1.247 . S
O999 C998 1.224 . S
N1000 Co990 2.128 . S
N1000 C1001 1.355 . S
N1000 C1003 1.311 . S
C1001 N1000 1.355 . S
C1001 C1002 1.363 . S
C1001 H1013 0.929 . S
C1002 C1001 1.363 . S
C1002 N1004 1.375 . S
C1002 H1020 0.931 1_455 S
C1003 N1000 1.311 . S
C1003 N1004 1.347 . S
C1003 H1014 0.929 . S
N1004 C1002 1.375 . S
N1004 C1003 1.347 . S
C1005 C1008 1.365 . S
C1005 N1010 1.328 . S
C1005 H1011 0.929 . S
C1006 C1007 1.362 . S
C1006 C1009 1.378 . S
C1006 H1021 0.929 . S
C1007 C1006 1.362 . S
C1007 C1008 1.366 . S
C1008 C1005 1.365 . S
C1008 C1007 1.366 . S
C1008 H1022 0.930 . S
C1009 C1006 1.378 . S
C1009 N1010 1.315 . S
C1009 H1012 0.930 . S
N1010 Co990 2.194 . S
N1010 C1005 1.328 . S
N1010 C1009 1.315 . S
H1011 C1005 0.929 . S
H1012 C1009 0.930 . S
H1013 C1001 0.929 . S
H1014 C1003 0.929 . S
O1015 Co990 2.351 . S
O1015 C1018 1.244 . S
O1016 Co990 2.155 . S
O1016 C1018 1.240 . S
O1017 Co990 2.096 . S
O1017 C998 1.247 . S
C1018 O1015 1.244 . S
C1018 O1016 1.240 . S
H1019 C993 0.931 . S
H1020 C1002 0.931 1_655 S
H1021 C1006 0.929 . S
H1022 C1008 0.930 . S
Co1023 N1027 2.148 . S
Co1023 N1033 2.128 . S
Co1023 N1043 2.194 . S
Co1023 O1048 2.351 . S
Co1023 O1049 2.155 . S
Co1023 O1050 2.096 . S
C1024 N1027 1.301 . S
C1024 N1028 1.328 . S
C1024 H1029 0.930 . S
C1025 C1026 1.333 . S
C1025 N1027 1.317 . S
C1025 H1030 0.930 . S
C1026 C1025 1.333 . S
C1026 N1028 1.350 . S
C1026 H1052 0.931 . S
N1027 Co1023 2.148 . S
N1027 C1024 1.301 . S
N1027 C1025 1.317 . S
N1028 C1024 1.328 . S
N1028 C1026 1.350 . S
H1029 C1024 0.930 . S
H1030 C1025 0.930 . S
C1031 O1032 1.224 . S
C1031 O1050 1.247 . S
O1032 C1031 1.224 . S
N1033 Co1023 2.128 . S
N1033 C1034 1.355 . S
N1033 C1036 1.311 . S
C1034 N1033 1.355 . S
C1034 C1035 1.363 . S
C1034 H1046 0.929 . S
C1035 C1034 1.363 . S
C1035 N1037 1.375 . S
C1035 H1053 0.931 . S
C1036 N1033 1.311 . S
C1036 N1037 1.347 . S
C1036 H1047 0.929 . S
N1037 C1035 1.375 . S
N1037 C1036 1.347 . S
C1038 C1041 1.365 . S
C1038 N1043 1.328 . S
C1038 H1044 0.929 . S
C1039 C1040 1.362 . S
C1039 C1042 1.378 . S
C1039 H1054 0.929 . S
C1040 C1039 1.362 . S
C1040 C1041 1.366 . S
C1041 C1038 1.365 . S
C1041 C1040 1.366 . S
C1041 H1055 0.930 . S
C1042 C1039 1.378 . S
C1042 N1043 1.315 . S
C1042 H1045 0.930 . S
N1043 Co1023 2.194 . S
N1043 C1038 1.328 . S
N1043 C1042 1.315 . S
H1044 C1038 0.929 . S
H1045 C1042 0.930 . S
H1046 C1034 0.929 . S
H1047 C1036 0.929 . S
O1048 Co1023 2.351 . S
O1048 C1051 1.244 . S
O1049 Co1023 2.155 . S
O1049 C1051 1.240 . S
O1050 Co1023 2.096 . S
O1050 C1031 1.247 . S
C1051 O1048 1.244 . S
C1051 O1049 1.240 . S
H1052 C1026 0.931 . S
H1053 C1035 0.931 . S
H1054 C1039 0.929 . S
H1055 C1041 0.930 . S
Co1056 N1060 2.148 . S
Co1056 N1066 2.128 . S
Co1056 N1076 2.194 . S
Co1056 O1081 2.351 . S
Co1056 O1082 2.155 . S
Co1056 O1083 2.096 . S
C1057 N1060 1.301 . S
C1057 N1061 1.328 . S
C1057 H1062 0.930 . S
C1058 C1059 1.333 . S
C1058 N1060 1.317 . S
C1058 H1063 0.930 . S
C1059 C1058 1.333 . S
C1059 N1061 1.350 . S
C1059 H1085 0.931 . S
N1060 Co1056 2.148 . S
N1060 C1057 1.301 . S
N1060 C1058 1.317 . S
N1061 C1057 1.328 . S
N1061 C1059 1.350 . S
H1062 C1057 0.930 . S
H1063 C1058 0.930 . S
C1064 O1065 1.224 . S
C1064 O1083 1.247 . S
O1065 C1064 1.224 . S
N1066 Co1056 2.128 . S
N1066 C1067 1.355 . S
N1066 C1069 1.311 . S
C1067 N1066 1.355 . S
C1067 C1068 1.363 . S
C1067 H1079 0.929 . S
C1068 C1067 1.363 . S
C1068 N1070 1.375 . S
C1068 H1086 0.931 1_565 S
C1069 N1066 1.311 . S
C1069 N1070 1.347 . S
C1069 H1080 0.929 . S
N1070 C1068 1.375 . S
N1070 C1069 1.347 . S
C1071 C1074 1.365 . S
C1071 N1076 1.328 . S
C1071 H1077 0.929 . S
C1072 C1073 1.362 . S
C1072 C1075 1.378 . S
C1072 H1087 0.929 . S
C1073 C1072 1.362 . S
C1073 C1074 1.366 . S
C1074 C1071 1.365 . S
C1074 C1073 1.366 . S
C1074 H1088 0.930 . S
C1075 C1072 1.378 . S
C1075 N1076 1.315 . S
C1075 H1078 0.930 . S
N1076 Co1056 2.194 . S
N1076 C1071 1.328 . S
N1076 C1075 1.315 . S
H1077 C1071 0.929 . S
H1078 C1075 0.930 . S
H1079 C1067 0.929 . S
H1080 C1069 0.929 . S
O1081 Co1056 2.351 . S
O1081 C1084 1.244 . S
O1082 Co1056 2.155 . S
O1082 C1084 1.240 . S
O1083 Co1056 2.096 . S
O1083 C1064 1.247 . S
C1084 O1081 1.244 . S
C1084 O1082 1.240 . S
H1085 C1059 0.931 . S
H1086 C1068 0.931 1_545 S
H1087 C1072 0.929 . S
H1088 C1074 0.930 . S
Co1089 N1093 2.148 . S
Co1089 N1099 2.128 . S
Co1089 N1109 2.194 . S
Co1089 O1114 2.351 . S
Co1089 O1115 2.155 . S
Co1089 O1116 2.096 . S
C1090 N1093 1.301 . S
C1090 N1094 1.328 . S
C1090 H1095 0.930 . S
C1091 C1092 1.333 . S
C1091 N1093 1.317 . S
C1091 H1096 0.930 . S
C1092 C1091 1.333 . S
C1092 N1094 1.350 . S
C1092 H1118 0.931 . S
N1093 Co1089 2.148 . S
N1093 C1090 1.301 . S
N1093 C1091 1.317 . S
N1094 C1090 1.328 . S
N1094 C1092 1.350 . S
H1095 C1090 0.930 . S
H1096 C1091 0.930 . S
C1097 O1098 1.224 . S
C1097 O1116 1.247 . S
O1098 C1097 1.224 . S
N1099 Co1089 2.128 . S
N1099 C1100 1.355 . S
N1099 C1102 1.311 . S
C1100 N1099 1.355 . S
C1100 C1101 1.363 . S
C1100 H1112 0.929 . S
C1101 C1100 1.363 . S
C1101 N1103 1.375 . S
C1101 H1119 0.931 . S
C1102 N1099 1.311 . S
C1102 N1103 1.347 . S
C1102 H1113 0.929 . S
N1103 C1101 1.375 . S
N1103 C1102 1.347 . S
C1104 C1107 1.365 . S
C1104 N1109 1.328 . S
C1104 H1110 0.929 . S
C1105 C1106 1.362 . S
C1105 C1108 1.378 . S
C1105 H1120 0.929 . S
C1106 C1105 1.362 . S
C1106 C1107 1.366 . S
C1107 C1104 1.365 . S
C1107 C1106 1.366 . S
C1107 H1121 0.930 . S
C1108 C1105 1.378 . S
C1108 N1109 1.315 . S
C1108 H1111 0.930 . S
N1109 Co1089 2.194 . S
N1109 C1104 1.328 . S
N1109 C1108 1.315 . S
H1110 C1104 0.929 . S
H1111 C1108 0.930 . S
H1112 C1100 0.929 . S
H1113 C1102 0.929 . S
O1114 Co1089 2.351 . S
O1114 C1117 1.244 . S
O1115 Co1089 2.155 . S
O1115 C1117 1.240 . S
O1116 Co1089 2.096 . S
O1116 C1097 1.247 . S
C1117 O1114 1.244 . S
C1117 O1115 1.240 . S
H1118 C1092 0.931 . S
H1119 C1101 0.931 . S
H1120 C1105 0.929 . S
H1121 C1107 0.930 . S
Co1122 N1126 2.148 . S
Co1122 N1132 2.128 . S
Co1122 N1142 2.194 . S
Co1122 O1147 2.351 . S
Co1122 O1148 2.155 . S
Co1122 O1149 2.096 . S
C1123 N1126 1.301 . S
C1123 N1127 1.328 . S
C1123 H1128 0.930 . S
C1124 C1125 1.333 . S
C1124 N1126 1.317 . S
C1124 H1129 0.930 . S
C1125 C1124 1.333 . S
C1125 N1127 1.350 . S
C1125 H1151 0.931 . S
N1126 Co1122 2.148 . S
N1126 C1123 1.301 . S
N1126 C1124 1.317 . S
N1127 C1123 1.328 . S
N1127 C1125 1.350 . S
H1128 C1123 0.930 . S
H1129 C1124 0.930 . S
C1130 O1131 1.224 . S
C1130 O1149 1.247 . S
O1131 C1130 1.224 . S
N1132 Co1122 2.128 . S
N1132 C1133 1.355 . S
N1132 C1135 1.311 . S
C1133 N1132 1.355 . S
C1133 C1134 1.363 . S
C1133 H1145 0.929 . S
C1134 C1133 1.363 . S
C1134 N1136 1.375 . S
C1134 H1152 0.931 . S
C1135 N1132 1.311 . S
C1135 N1136 1.347 . S
C1135 H1146 0.929 . S
N1136 C1134 1.375 . S
N1136 C1135 1.347 . S
C1137 C1140 1.365 . S
C1137 N1142 1.328 . S
C1137 H1143 0.929 . S
C1138 C1139 1.362 . S
C1138 C1141 1.378 . S
C1138 H1153 0.929 . S
C1139 C1138 1.362 . S
C1139 C1140 1.366 . S
C1140 C1137 1.365 . S
C1140 C1139 1.366 . S
C1140 H1154 0.930 . S
C1141 C1138 1.378 . S
C1141 N1142 1.315 . S
C1141 H1144 0.930 . S
N1142 Co1122 2.194 . S
N1142 C1137 1.328 . S
N1142 C1141 1.315 . S
H1143 C1137 0.929 . S
H1144 C1141 0.930 . S
H1145 C1133 0.929 . S
H1146 C1135 0.929 . S
O1147 Co1122 2.351 . S
O1147 C1150 1.244 . S
O1148 Co1122 2.155 . S
O1148 C1150 1.240 . S
O1149 Co1122 2.096 . S
O1149 C1130 1.247 . S
C1150 O1147 1.244 . S
C1150 O1148 1.240 . S
H1151 C1125 0.931 . S
H1152 C1134 0.931 . S
H1153 C1138 0.929 . S
H1154 C1140 0.930 . S
Co1155 N1159 2.148 . S
Co1155 N1165 2.128 . S
Co1155 N1175 2.194 . S
Co1155 O1180 2.351 . S
Co1155 O1181 2.155 . S
Co1155 O1182 2.096 . S
C1156 N1159 1.301 . S
C1156 N1160 1.328 . S
C1156 H1161 0.930 . S
C1157 C1158 1.333 . S
C1157 N1159 1.317 . S
C1157 H1162 0.930 . S
C1158 C1157 1.333 . S
C1158 N1160 1.350 . S
C1158 H1184 0.931 . S
N1159 Co1155 2.148 . S
N1159 C1156 1.301 . S
N1159 C1157 1.317 . S
N1160 C1156 1.328 . S
N1160 C1158 1.350 . S
H1161 C1156 0.930 . S
H1162 C1157 0.930 . S
C1163 O1164 1.224 . S
C1163 O1182 1.247 . S
O1164 C1163 1.224 . S
N1165 Co1155 2.128 . S
N1165 C1166 1.355 . S
N1165 C1168 1.311 . S
C1166 N1165 1.355 . S
C1166 C1167 1.363 . S
C1166 H1178 0.929 . S
C1167 C1166 1.363 . S
C1167 N1169 1.375 . S
C1167 H1185 0.931 . S
C1168 N1165 1.311 . S
C1168 N1169 1.347 . S
C1168 H1179 0.929 . S
N1169 C1167 1.375 . S
N1169 C1168 1.347 . S
C1170 C1173 1.365 . S
C1170 N1175 1.328 . S
C1170 H1176 0.929 . S
C1171 C1172 1.362 . S
C1171 C1174 1.378 . S
C1171 H1186 0.929 . S
C1172 C1171 1.362 . S
C1172 C1173 1.366 . S
C1173 C1170 1.365 . S
C1173 C1172 1.366 . S
C1173 H1187 0.930 . S
C1174 C1171 1.378 . S
C1174 N1175 1.315 . S
C1174 H1177 0.930 . S
N1175 Co1155 2.194 . S
N1175 C1170 1.328 . S
N1175 C1174 1.315 . S
H1176 C1170 0.929 . S
H1177 C1174 0.930 . S
H1178 C1166 0.929 . S
H1179 C1168 0.929 . S
O1180 Co1155 2.351 . S
O1180 C1183 1.244 . S
O1181 Co1155 2.155 . S
O1181 C1183 1.240 . S
O1182 Co1155 2.096 . S
O1182 C1163 1.247 . S
C1183 O1180 1.244 . S
C1183 O1181 1.240 . S
H1184 C1158 0.931 . S
H1185 C1167 0.931 . S
H1186 C1171 0.929 . S
H1187 C1173 0.930 . S
C1188 C1189 1.369 . S
C1188 C1190 1.419 . S
C1188 H1192 0.930 . S
C1189 C1188 1.369 . S
C1189 C1198 1.429 . S
C1190 C1188 1.419 . S
C1190 C1191 1.363 . S
C1190 H1193 0.929 . S
C1191 C1190 1.363 . S
C1191 C1197 1.428 . S
H1192 C1188 0.930 . S
H1193 C1190 0.929 . S
S1194 N1195 1.613 . S
S1194 N1196 1.610 . S
N1195 S1194 1.613 . S
N1195 C1198 1.350 . S
N1196 S1194 1.610 . S
N1196 C1197 1.351 . S
C1197 C1191 1.428 . S
C1197 N1196 1.351 . S
C1197 C1198 1.434 . S
C1198 C1189 1.429 . S
C1198 N1195 1.350 . S
C1198 C1197 1.434 . S
C1199 C1200 1.369 . S
C1199 C1201 1.419 . S
C1199 H1203 0.930 . S
C1200 C1199 1.369 . S
C1200 C1209 1.429 . S
C1201 C1199 1.419 . S
C1201 C1202 1.363 . S
C1201 H1204 0.929 . S
C1202 C1201 1.363 . S
C1202 C1208 1.428 . S
H1203 C1199 0.930 . S
H1204 C1201 0.929 . S
S1205 N1206 1.613 . S
S1205 N1207 1.610 . S
N1206 S1205 1.613 . S
N1206 C1209 1.350 . S
N1207 S1205 1.610 . S
N1207 C1208 1.351 . S
C1208 C1202 1.428 . S
C1208 N1207 1.351 . S
C1208 C1209 1.434 . S
C1209 C1200 1.429 . S
C1209 N1206 1.350 . S
C1209 C1208 1.434 . S
C1210 C1211 1.369 . S
C1210 C1212 1.419 . S
C1210 H1214 0.930 . S
C1211 C1210 1.369 . S
C1211 C1220 1.429 . S
C1212 C1210 1.419 . S
C1212 C1213 1.363 . S
C1212 H1215 0.929 . S
C1213 C1212 1.363 . S
C1213 C1219 1.428 . S
H1214 C1210 0.930 . S
H1215 C1212 0.929 . S
S1216 N1217 1.613 . S
S1216 N1218 1.610 . S
N1217 S1216 1.613 . S
N1217 C1220 1.350 . S
N1218 S1216 1.610 . S
N1218 C1219 1.351 . S
C1219 C1213 1.428 . S
C1219 N1218 1.351 . S
C1219 C1220 1.434 . S
C1220 C1211 1.429 . S
C1220 N1217 1.350 . S
C1220 C1219 1.434 . S
C1221 C1222 1.369 . S
C1221 C1223 1.419 . S
C1221 H1225 0.930 . S
C1222 C1221 1.369 . S
C1222 C1231 1.429 . S
C1223 C1221 1.419 . S
C1223 C1224 1.363 . S
C1223 H1226 0.929 . S
C1224 C1223 1.363 . S
C1224 C1230 1.428 . S
H1225 C1221 0.930 . S
H1226 C1223 0.929 . S
S1227 N1228 1.613 . S
S1227 N1229 1.610 . S
N1228 S1227 1.613 . S
N1228 C1231 1.350 . S
N1229 S1227 1.610 . S
N1229 C1230 1.351 . S
C1230 C1224 1.428 . S
C1230 N1229 1.351 . S
C1230 C1231 1.434 . S
C1231 C1222 1.429 . S
C1231 N1228 1.350 . S
C1231 C1230 1.434 . S
C1232 C1233 1.369 . S
C1232 C1234 1.419 . S
C1232 H1236 0.930 . S
C1233 C1232 1.369 . S
C1233 C1242 1.429 . S
C1234 C1232 1.419 . S
C1234 C1235 1.363 . S
C1234 H1237 0.929 . S
C1235 C1234 1.363 . S
C1235 C1241 1.428 . S
H1236 C1232 0.930 . S
H1237 C1234 0.929 . S
S1238 N1239 1.613 . S
S1238 N1240 1.610 . S
N1239 S1238 1.613 . S
N1239 C1242 1.350 . S
N1240 S1238 1.610 . S
N1240 C1241 1.351 . S
C1241 C1235 1.428 . S
C1241 N1240 1.351 . S
C1241 C1242 1.434 . S
C1242 C1233 1.429 . S
C1242 N1239 1.350 . S
C1242 C1241 1.434 . S
C1243 C1244 1.369 . S
C1243 C1245 1.419 . S
C1243 H1247 0.930 . S
C1244 C1243 1.369 . S
C1244 C1253 1.429 . S
C1245 C1243 1.419 . S
C1245 C1246 1.363 . S
C1245 H1248 0.929 . S
C1246 C1245 1.363 . S
C1246 C1252 1.428 . S
H1247 C1243 0.930 . S
H1248 C1245 0.929 . S
S1249 N1250 1.613 . S
S1249 N1251 1.610 . S
N1250 S1249 1.613 . S
N1250 C1253 1.350 . S
N1251 S1249 1.610 . S
N1251 C1252 1.351 . S
C1252 C1246 1.428 . S
C1252 N1251 1.351 . S
C1252 C1253 1.434 . S
C1253 C1244 1.429 . S
C1253 N1250 1.350 . S
C1253 C1252 1.434 . S
C1254 C1255 1.369 . S
C1254 C1256 1.419 . S
C1254 H1258 0.930 . S
C1255 C1254 1.369 . S
C1255 C1264 1.429 . S
C1256 C1254 1.419 . S
C1256 C1257 1.363 . S
C1256 H1259 0.929 . S
C1257 C1256 1.363 . S
C1257 C1263 1.428 . S
H1258 C1254 0.930 . S
H1259 C1256 0.929 . S
S1260 N1261 1.613 . S
S1260 N1262 1.610 . S
N1261 S1260 1.613 . S
N1261 C1264 1.350 . S
N1262 S1260 1.610 . S
N1262 C1263 1.351 . S
C1263 C1257 1.428 . S
C1263 N1262 1.351 . S
C1263 C1264 1.434 . S
C1264 C1255 1.429 . S
C1264 N1261 1.350 . S
C1264 C1263 1.434 . S
C1265 C1266 1.369 . S
C1265 C1267 1.419 . S
C1265 H1269 0.930 . S
C1266 C1265 1.369 . S
C1266 C1275 1.429 . S
C1267 C1265 1.419 . S
C1267 C1268 1.363 . S
C1267 H1270 0.929 . S
C1268 C1267 1.363 . S
C1268 C1274 1.428 . S
H1269 C1265 0.930 . S
H1270 C1267 0.929 . S
S1271 N1272 1.613 . S
S1271 N1273 1.610 . S
N1272 S1271 1.613 . S
N1272 C1275 1.350 . S
N1273 S1271 1.610 . S
N1273 C1274 1.351 . S
C1274 C1268 1.428 . S
C1274 N1273 1.351 . S
C1274 C1275 1.434 . S
C1275 C1266 1.429 . S
C1275 N1272 1.350 . S
C1275 C1274 1.434 . S
C1276 C1277 1.369 . S
C1276 C1278 1.419 . S
C1276 H1280 0.930 . S
C1277 C1276 1.369 . S
C1277 C1286 1.429 . S
C1278 C1276 1.419 . S
C1278 C1279 1.363 . S
C1278 H1281 0.929 . S
C1279 C1278 1.363 . S
C1279 C1285 1.428 . S
H1280 C1276 0.930 . S
H1281 C1278 0.929 . S
S1282 N1283 1.613 . S
S1282 N1284 1.610 . S
N1283 S1282 1.613 . S
N1283 C1286 1.350 . S
N1284 S1282 1.610 . S
N1284 C1285 1.351 . S
C1285 C1279 1.428 . S
C1285 N1284 1.351 . S
C1285 C1286 1.434 . S
C1286 C1277 1.429 . S
C1286 N1283 1.350 . S
C1286 C1285 1.434 . S
C1287 C1288 1.369 . S
C1287 C1289 1.419 . S
C1287 H1291 0.930 . S
C1288 C1287 1.369 . S
C1288 C1297 1.429 . S
C1289 C1287 1.419 . S
C1289 C1290 1.363 . S
C1289 H1292 0.929 . S
C1290 C1289 1.363 . S
C1290 C1296 1.428 . S
H1291 C1287 0.930 . S
H1292 C1289 0.929 . S
S1293 N1294 1.613 . S
S1293 N1295 1.610 . S
N1294 S1293 1.613 . S
N1294 C1297 1.350 . S
N1295 S1293 1.610 . S
N1295 C1296 1.351 . S
C1296 C1290 1.428 . S
C1296 N1295 1.351 . S
C1296 C1297 1.434 . S
C1297 C1288 1.429 . S
C1297 N1294 1.350 . S
C1297 C1296 1.434 . S
C1298 C1299 1.369 . S
C1298 C1300 1.419 . S
C1298 H1302 0.930 . S
C1299 C1298 1.369 . S
C1299 C1308 1.429 . S
C1300 C1298 1.419 . S
C1300 C1301 1.363 . S
C1300 H1303 0.929 . S
C1301 C1300 1.363 . S
C1301 C1307 1.428 . S
H1302 C1298 0.930 . S
H1303 C1300 0.929 . S
S1304 N1305 1.613 . S
S1304 N1306 1.610 . S
N1305 S1304 1.613 . S
N1305 C1308 1.350 . S
N1306 S1304 1.610 . S
N1306 C1307 1.351 . S
C1307 C1301 1.428 . S
C1307 N1306 1.351 . S
C1307 C1308 1.434 . S
C1308 C1299 1.429 . S
C1308 N1305 1.350 . S
C1308 C1307 1.434 . S
C1309 C1310 1.369 . S
C1309 C1311 1.419 . S
C1309 H1313 0.930 . S
C1310 C1309 1.369 . S
C1310 C1319 1.429 . S
C1311 C1309 1.419 . S
C1311 C1312 1.363 . S
C1311 H1314 0.929 . S
C1312 C1311 1.363 . S
C1312 C1318 1.428 . S
H1313 C1309 0.930 . S
H1314 C1311 0.929 . S
S1315 N1316 1.613 . S
S1315 N1317 1.610 . S
N1316 S1315 1.613 . S
N1316 C1319 1.350 . S
N1317 S1315 1.610 . S
N1317 C1318 1.351 . S
C1318 C1312 1.428 . S
C1318 N1317 1.351 . S
C1318 C1319 1.434 . S
C1319 C1310 1.429 . S
C1319 N1316 1.350 . S
C1319 C1318 1.434 . S
C1320 C1321 1.369 . S
C1320 C1322 1.419 . S
C1320 H1324 0.930 . S
C1321 C1320 1.369 . S
C1321 C1330 1.429 1_655 S
C1322 C1320 1.419 . S
C1322 C1323 1.363 1_655 S
C1322 H1325 0.929 . S
C1323 C1322 1.363 1_455 S
C1323 C1329 1.428 . S
H1324 C1320 0.930 . S
H1325 C1322 0.929 . S
S1326 N1327 1.613 . S
S1326 N1328 1.610 . S
N1327 S1326 1.613 . S
N1327 C1330 1.350 . S
N1328 S1326 1.610 . S
N1328 C1329 1.351 . S
C1329 C1323 1.428 . S
C1329 N1328 1.351 . S
C1329 C1330 1.434 . S
C1330 C1321 1.429 1_455 S
C1330 N1327 1.350 . S
C1330 C1329 1.434 . S
C1331 C1332 1.369 . S
C1331 C1333 1.419 . S
C1331 H1335 0.930 . S
C1332 C1331 1.369 . S
C1332 C1341 1.429 . S
C1333 C1331 1.419 . S
C1333 C1334 1.363 . S
C1333 H1336 0.929 . S
C1334 C1333 1.363 . S
C1334 C1340 1.428 . S
H1335 C1331 0.930 . S
H1336 C1333 0.929 . S
S1337 N1338 1.613 . S
S1337 N1339 1.610 . S
N1338 S1337 1.613 . S
N1338 C1341 1.350 . S
N1339 S1337 1.610 . S
N1339 C1340 1.351 . S
C1340 C1334 1.428 . S
C1340 N1339 1.351 . S
C1340 C1341 1.434 . S
C1341 C1332 1.429 . S
C1341 N1338 1.350 . S
C1341 C1340 1.434 . S
C1342 C1343 1.369 . S
C1342 C1344 1.419 . S
C1342 H1346 0.930 . S
C1343 C1342 1.369 . S
C1343 C1352 1.429 1_565 S
C1344 C1342 1.419 . S
C1344 C1345 1.363 1_565 S
C1344 H1347 0.929 . S
C1345 C1344 1.363 1_545 S
C1345 C1351 1.428 . S
H1346 C1342 0.930 . S
H1347 C1344 0.929 . S
S1348 N1349 1.613 . S
S1348 N1350 1.610 . S
N1349 S1348 1.613 . S
N1349 C1352 1.350 . S
N1350 S1348 1.610 . S
N1350 C1351 1.351 . S
C1351 C1345 1.428 . S
C1351 N1350 1.351 . S
C1351 C1352 1.434 . S
C1352 C1343 1.429 1_545 S
C1352 N1349 1.350 . S
C1352 C1351 1.434 . S
C1353 C1354 1.369 1_545 S
C1353 C1355 1.419 . S
C1353 H1357 0.930 . S
C1354 C1353 1.369 1_565 S
C1354 C1363 1.429 . S
C1355 C1353 1.419 . S
C1355 C1356 1.363 . S
C1355 H1358 0.929 . S
C1356 C1355 1.363 . S
C1356 C1362 1.428 1_545 S
H1357 C1353 0.930 . S
H1358 C1355 0.929 . S
S1359 N1360 1.613 . S
S1359 N1361 1.610 . S
N1360 S1359 1.613 . S
N1360 C1363 1.350 . S
N1361 S1359 1.610 . S
N1361 C1362 1.351 . S
C1362 C1356 1.428 1_565 S
C1362 N1361 1.351 . S
C1362 C1363 1.434 . S
C1363 C1354 1.429 . S
C1363 N1360 1.350 . S
C1363 C1362 1.434 . S
C1364 C1365 1.369 . S
C1364 C1366 1.419 1_455 S
C1364 H1368 0.930 . S
C1365 C1364 1.369 . S
C1365 C1374 1.429 . S
C1366 C1364 1.419 1_655 S
C1366 C1367 1.363 . S
C1366 H1369 0.929 . S
C1367 C1366 1.363 . S
C1367 C1373 1.428 . S
H1368 C1364 0.930 . S
H1369 C1366 0.929 . S
S1370 N1371 1.613 1_655 S
S1370 N1372 1.610 . S
N1371 S1370 1.613 1_455 S
N1371 C1374 1.350 . S
N1372 S1370 1.610 . S
N1372 C1373 1.351 . S
C1373 C1367 1.428 . S
C1373 N1372 1.351 . S
C1373 C1374 1.434 1_655 S
C1374 C1365 1.429 . S
C1374 N1371 1.350 . S
C1374 C1373 1.434 1_455 S
C1375 C1376 1.369 . S
C1375 C1377 1.419 . S
C1375 H1379 0.930 . S
C1376 C1375 1.369 . S
C1376 C1385 1.429 . S
C1377 C1375 1.419 . S
C1377 C1378 1.363 . S
C1377 H1380 0.929 . S
C1378 C1377 1.363 . S
C1378 C1384 1.428 . S
H1379 C1375 0.930 . S
H1380 C1377 0.929 . S
S1381 N1382 1.613 . S
S1381 N1383 1.610 . S
N1382 S1381 1.613 . S
N1382 C1385 1.350 . S
N1383 S1381 1.610 . S
N1383 C1384 1.351 . S
C1384 C1378 1.428 . S
C1384 N1383 1.351 . S
C1384 C1385 1.434 . S
C1385 C1376 1.429 . S
C1385 N1382 1.350 . S
C1385 C1384 1.434 . S
C1386 C1387 1.369 . S
C1386 C1388 1.419 . S
C1386 H1390 0.930 . S
C1387 C1386 1.369 . S
C1387 C1396 1.429 . S
C1388 C1386 1.419 . S
C1388 C1389 1.363 . S
C1388 H1391 0.929 . S
C1389 C1388 1.363 . S
C1389 C1395 1.428 . S
H1390 C1386 0.930 . S
H1391 C1388 0.929 . S
S1392 N1393 1.613 . S
S1392 N1394 1.610 . S
N1393 S1392 1.613 . S
N1393 C1396 1.350 . S
N1394 S1392 1.610 . S
N1394 C1395 1.351 . S
C1395 C1389 1.428 . S
C1395 N1394 1.351 . S
C1395 C1396 1.434 . S
C1396 C1387 1.429 . S
C1396 N1393 1.350 . S
C1396 C1395 1.434 . S
C1397 C1398 1.369 1_565 S
C1397 C1399 1.419 . S
C1397 H1401 0.930 . S
C1398 C1397 1.369 1_545 S
C1398 C1407 1.429 . S
C1399 C1397 1.419 . S
C1399 C1400 1.363 . S
C1399 H1402 0.929 . S
C1400 C1399 1.363 . S
C1400 C1406 1.428 1_565 S
H1401 C1397 0.930 . S
H1402 C1399 0.929 . S
S1403 N1404 1.613 . S
S1403 N1405 1.610 . S
N1404 S1403 1.613 . S
N1404 C1407 1.350 . S
N1405 S1403 1.610 . S
N1405 C1406 1.351 . S
C1406 C1400 1.428 1_545 S
C1406 N1405 1.351 . S
C1406 C1407 1.434 . S
C1407 C1398 1.429 . S
C1407 N1404 1.350 . S
C1407 C1406 1.434 . S
C1408 C1409 1.369 . S
C1408 C1410 1.419 . S
C1408 H1412 0.930 . S
C1409 C1408 1.369 . S
C1409 C1418 1.429 1_655 S
C1410 C1408 1.419 . S
C1410 C1411 1.363 1_655 S
C1410 H1413 0.929 . S
C1411 C1410 1.363 1_455 S
C1411 C1417 1.428 . S
H1412 C1408 0.930 . S
H1413 C1410 0.929 . S
S1414 N1415 1.613 . S
S1414 N1416 1.610 . S
N1415 S1414 1.613 . S
N1415 C1418 1.350 . S
N1416 S1414 1.610 . S
N1416 C1417 1.351 . S
C1417 C1411 1.428 . S
C1417 N1416 1.351 . S
C1417 C1418 1.434 . S
C1418 C1409 1.429 1_455 S
C1418 N1415 1.350 . S
C1418 C1417 1.434 . S
C1419 C1420 1.369 . S
C1419 C1421 1.419 . S
C1419 H1423 0.930 . S
C1420 C1419 1.369 . S
C1420 C1429 1.429 . S
C1421 C1419 1.419 . S
C1421 C1422 1.363 . S
C1421 H1424 0.929 . S
C1422 C1421 1.363 . S
C1422 C1428 1.428 . S
H1423 C1419 0.930 . S
H1424 C1421 0.929 . S
S1425 N1426 1.613 . S
S1425 N1427 1.610 . S
N1426 S1425 1.613 . S
N1426 C1429 1.350 . S
N1427 S1425 1.610 . S
N1427 C1428 1.351 . S
C1428 C1422 1.428 . S
C1428 N1427 1.351 . S
C1428 C1429 1.434 . S
C1429 C1420 1.429 . S
C1429 N1426 1.350 . S
C1429 C1428 1.434 . S
C1430 C1431 1.369 . S
C1430 C1432 1.419 . S
C1430 H1434 0.930 . S
C1431 C1430 1.369 . S
C1431 C1440 1.429 1_565 S
C1432 C1430 1.419 . S
C1432 C1433 1.363 1_565 S
C1432 H1435 0.929 . S
C1433 C1432 1.363 1_545 S
C1433 C1439 1.428 . S
H1434 C1430 0.930 . S
H1435 C1432 0.929 . S
S1436 N1437 1.613 . S
S1436 N1438 1.610 . S
N1437 S1436 1.613 . S
N1437 C1440 1.350 . S
N1438 S1436 1.610 . S
N1438 C1439 1.351 . S
C1439 C1433 1.428 . S
C1439 N1438 1.351 . S
C1439 C1440 1.434 . S
C1440 C1431 1.429 1_545 S
C1440 N1437 1.350 . S
C1440 C1439 1.434 . S
C1441 C1442 1.369 . S
C1441 C1443 1.418 1_655 S
C1441 H1445 0.930 . S
C1442 C1441 1.369 . S
C1442 C1451 1.429 . S
C1443 C1441 1.418 1_455 S
C1443 C1444 1.361 . S
C1443 H1446 0.932 . S
C1444 C1443 1.361 . S
C1444 C1450 1.428 . S
H1445 C1441 0.930 . S
H1446 C1443 0.932 . S
S1447 N1448 1.613 1_455 S
S1447 N1449 1.610 . S
N1448 S1447 1.613 1_655 S
N1448 C1451 1.350 . S
N1449 S1447 1.610 . S
N1449 C1450 1.351 . S
C1450 C1444 1.428 . S
C1450 N1449 1.351 . S
C1450 C1451 1.434 1_455 S
C1451 C1442 1.429 . S
C1451 N1448 1.350 . S
C1451 C1450 1.434 1_655 S
C1452 C1453 1.369 . S
C1452 C1454 1.419 . S
C1452 H1456 0.930 . S
C1453 C1452 1.369 . S
C1453 C1462 1.429 . S
C1454 C1452 1.419 . S
C1454 C1455 1.363 . S
C1454 H1457 0.929 . S
C1455 C1454 1.363 . S
C1455 C1461 1.428 . S
H1456 C1452 0.930 . S
H1457 C1454 0.929 . S
S1458 N1459 1.613 . S
S1458 N1460 1.610 . S
N1459 S1458 1.613 . S
N1459 C1462 1.350 . S
N1460 S1458 1.610 . S
N1460 C1461 1.351 . S
C1461 C1455 1.428 . S
C1461 N1460 1.351 . S
C1461 C1462 1.434 . S
C1462 C1453 1.429 . S
C1462 N1459 1.350 . S
C1462 C1461 1.434 . S
C1463 C1464 1.369 1_545 S
C1463 C1465 1.419 . S
C1463 H1467 0.930 . S
C1464 C1463 1.369 1_565 S
C1464 C1473 1.429 . S
C1465 C1463 1.419 . S
C1465 C1466 1.363 . S
C1465 H1468 0.929 . S
C1466 C1465 1.363 . S
C1466 C1472 1.428 . S
H1467 C1463 0.930 . S
H1468 C1465 0.929 . S
S1469 N1470 1.613 . S
S1469 N1471 1.610 1_565 S
N1470 S1469 1.613 . S
N1470 C1473 1.350 . S
N1471 S1469 1.610 1_545 S
N1471 C1472 1.351 . S
C1472 C1466 1.428 . S
C1472 N1471 1.351 . S
C1472 C1473 1.434 1_545 S
C1473 C1464 1.429 . S
C1473 N1470 1.350 . S
C1473 C1472 1.434 1_565 S
C1474 C1475 1.369 1_655 S
C1474 C1476 1.419 . S
C1474 H1478 0.930 . S
C1475 C1474 1.369 1_455 S
C1475 C1484 1.429 . S
C1476 C1474 1.419 . S
C1476 C1477 1.363 . S
C1476 H1479 0.929 . S
C1477 C1476 1.363 . S
C1477 C1483 1.428 1_655 S
H1478 C1474 0.930 . S
H1479 C1476 0.929 . S
S1480 N1481 1.613 . S
S1480 N1482 1.610 . S
N1481 S1480 1.613 . S
N1481 C1484 1.350 . S
N1482 S1480 1.610 . S
N1482 C1483 1.351 . S
C1483 C1477 1.428 1_455 S
C1483 N1482 1.351 . S
C1483 C1484 1.434 . S
C1484 C1475 1.429 . S
C1484 N1481 1.350 . S
C1484 C1483 1.434 . S
C1485 C1486 1.369 . S
C1485 C1487 1.419 . S
C1485 H1489 0.930 . S
C1486 C1485 1.369 . S
C1486 C1495 1.429 . S
C1487 C1485 1.419 . S
C1487 C1488 1.363 . S
C1487 H1490 0.929 . S
C1488 C1487 1.363 . S
C1488 C1494 1.428 . S
H1489 C1485 0.930 . S
H1490 C1487 0.929 . S
S1491 N1492 1.613 . S
S1491 N1493 1.610 . S
N1492 S1491 1.613 . S
N1492 C1495 1.350 . S
N1493 S1491 1.610 . S
N1493 C1494 1.351 . S
C1494 C1488 1.428 . S
C1494 N1493 1.351 . S
C1494 C1495 1.434 . S
C1495 C1486 1.429 . S
C1495 N1492 1.350 . S
C1495 C1494 1.434 . S
C1496 C1497 1.369 1_545 S
C1496 C1498 1.419 . S
C1496 H1500 0.930 . S
C1497 C1496 1.369 1_565 S
C1497 C1506 1.429 . S
C1498 C1496 1.419 . S
C1498 C1499 1.363 . S
C1498 H1501 0.929 . S
C1499 C1498 1.363 . S
C1499 C1505 1.428 1_545 S
H1500 C1496 0.930 . S
H1501 C1498 0.929 . S
S1502 N1503 1.613 . S
S1502 N1504 1.610 . S
N1503 S1502 1.613 . S
N1503 C1506 1.350 . S
N1504 S1502 1.610 . S
N1504 C1505 1.351 . S
C1505 C1499 1.428 1_565 S
C1505 N1504 1.351 . S
C1505 C1506 1.434 . S
C1506 C1497 1.429 . S
C1506 N1503 1.350 . S
C1506 C1505 1.434 . S
C1507 C1508 1.369 . S
C1507 C1509 1.419 1_455 S
C1507 H1511 0.933 . S
C1508 C1507 1.369 . S
C1508 C1517 1.429 . S
C1509 C1507 1.419 1_655 S
C1509 C1510 1.363 . S
C1509 H1512 0.929 . S
C1510 C1509 1.363 . S
C1510 C1516 1.428 1_655 S
H1511 C1507 0.933 . S
H1512 C1509 0.929 . S
S1513 N1514 1.613 . S
S1513 N1515 1.610 . S
N1514 S1513 1.613 . S
N1514 C1517 1.350 . S
N1515 S1513 1.610 . S
N1515 C1516 1.351 . S
C1516 C1510 1.428 1_455 S
C1516 N1515 1.351 . S
C1516 C1517 1.434 . S
C1517 C1508 1.429 . S
C1517 N1514 1.350 . S
C1517 C1516 1.434 . S
C1518 C1519 1.369 . S
C1518 C1520 1.419 1_655 S
C1518 H1522 0.930 . S
C1519 C1518 1.369 . S
C1519 C1528 1.429 . S
C1520 C1518 1.419 1_455 S
C1520 C1521 1.363 . S
C1520 H1523 0.929 . S
C1521 C1520 1.363 . S
C1521 C1527 1.428 . S
H1522 C1518 0.930 . S
H1523 C1520 0.929 . S
S1524 N1525 1.613 . S
S1524 N1526 1.630 . S
N1525 S1524 1.613 . S
N1525 C1528 1.350 . S
N1526 S1524 1.630 . S
N1526 C1527 1.345 1_655 S
C1527 C1521 1.428 . S
C1527 N1526 1.345 1_455 S
C1527 C1528 1.434 1_455 S
C1528 C1519 1.429 . S
C1528 N1525 1.350 . S
C1528 C1527 1.434 1_655 S
C1529 C1530 1.369 . S
C1529 C1531 1.419 . S
C1529 H1533 0.930 . S
C1530 C1529 1.369 . S
C1530 C1539 1.429 . S
C1531 C1529 1.419 . S
C1531 C1532 1.363 . S
C1531 H1534 0.929 . S
C1532 C1531 1.363 . S
C1532 C1538 1.428 . S
H1533 C1529 0.930 . S
H1534 C1531 0.929 . S
S1535 N1536 1.613 . S
S1535 N1537 1.610 . S
N1536 S1535 1.613 . S
N1536 C1539 1.350 . S
N1537 S1535 1.610 . S
N1537 C1538 1.351 . S
C1538 C1532 1.428 . S
C1538 N1537 1.351 . S
C1538 C1539 1.434 . S
C1539 C1530 1.429 . S
C1539 N1536 1.350 . S
C1539 C1538 1.434 . S
C1540 C1541 1.370 1_565 S
C1540 C1542 1.417 . S
C1540 H1544 0.932 . S
C1541 C1540 1.370 1_545 S
C1541 C1550 1.429 . S
C1542 C1540 1.417 . S
C1542 C1543 1.363 . S
C1542 H1545 0.929 . S
C1543 C1542 1.363 . S
C1543 C1549 1.440 . S
H1544 C1540 0.932 . S
H1545 C1542 0.929 . S
S1546 N1547 1.613 . S
S1546 N1548 1.610 . S
N1547 S1546 1.613 . S
N1547 C1550 1.350 . S
N1548 S1546 1.610 . S
N1548 C1549 1.350 1_545 S
C1549 C1543 1.440 . S
C1549 N1548 1.350 1_565 S
C1549 C1550 1.422 1_565 S
C1550 C1541 1.429 . S
C1550 N1547 1.350 . S
C1550 C1549 1.422 1_545 S
C1551 C1552 1.369 . S
C1551 C1553 1.419 1_545 S
C1551 H1555 0.930 . S
C1552 C1551 1.369 . S
C1552 C1561 1.429 . S
C1553 C1551 1.419 1_565 S
C1553 C1554 1.363 . S
C1553 H1556 0.929 . S
C1554 C1553 1.363 . S
C1554 C1560 1.428 . S
H1555 C1551 0.930 . S
H1556 C1553 0.929 . S
S1557 N1558 1.613 . S
S1557 N1559 1.610 1_545 S
N1558 S1557 1.613 . S
N1558 C1561 1.350 . S
N1559 S1557 1.610 1_565 S
N1559 C1560 1.351 . S
C1560 C1554 1.428 . S
C1560 N1559 1.351 . S
C1560 C1561 1.434 1_565 S
C1561 C1552 1.429 . S
C1561 N1558 1.350 . S
C1561 C1560 1.434 1_545 S
C1562 C1563 1.369 . S
C1562 C1564 1.419 1_455 S
C1562 H1566 0.930 . S
C1563 C1562 1.369 . S
C1563 C1572 1.429 . S
C1564 C1562 1.419 1_655 S
C1564 C1565 1.362 . S
C1564 H1567 0.928 1_655 S
C1565 C1564 1.362 . S
C1565 C1571 1.428 . S
H1566 C1562 0.930 . S
H1567 C1564 0.928 1_455 S
S1568 N1569 1.642 . S
S1568 N1570 1.610 . S
N1569 S1568 1.642 . S
N1569 C1572 1.341 1_655 S
N1570 S1568 1.610 . S
N1570 C1571 1.351 . S
C1571 C1565 1.428 . S
C1571 N1570 1.351 . S
C1571 C1572 1.434 1_655 S
C1572 C1563 1.429 . S
C1572 N1569 1.341 1_455 S
C1572 C1571 1.434 1_455 S
C1573 C1574 1.369 . S
C1573 C1575 1.419 . S
C1573 H1577 0.930 . S
C1574 C1573 1.369 . S
C1574 C1583 1.429 . S
C1575 C1573 1.419 . S
C1575 C1576 1.363 . S
C1575 H1578 0.929 . S
C1576 C1575 1.363 . S
C1576 C1582 1.428 . S
H1577 C1573 0.930 . S
H1578 C1575 0.929 . S
S1579 N1580 1.613 . S
S1579 N1581 1.610 . S
N1580 S1579 1.613 . S
N1580 C1583 1.350 . S
N1581 S1579 1.610 . S
N1581 C1582 1.351 . S
C1582 C1576 1.428 . S
C1582 N1581 1.351 . S
C1582 C1583 1.434 . S
C1583 C1574 1.429 . S
C1583 N1580 1.350 . S
C1583 C1582 1.434 . S
C1584 C1585 1.369 . S
C1584 C1586 1.419 . S
C1584 H1588 0.930 . S
C1585 C1584 1.369 . S
C1585 C1594 1.429 . S
C1586 C1584 1.419 . S
C1586 C1587 1.363 . S
C1586 H1589 0.929 . S
C1587 C1586 1.363 . S
C1587 C1593 1.428 . S
H1588 C1584 0.930 . S
H1589 C1586 0.929 . S
S1590 N1591 1.613 . S
S1590 N1592 1.610 . S
N1591 S1590 1.613 . S
N1591 C1594 1.350 . S
N1592 S1590 1.610 . S
N1592 C1593 1.351 . S
C1593 C1587 1.428 . S
C1593 N1592 1.351 . S
C1593 C1594 1.434 . S
C1594 C1585 1.429 . S
C1594 N1591 1.350 . S
C1594 C1593 1.434 . S
C1595 C1596 1.369 . S
C1595 C1597 1.419 . S
C1595 H1599 0.930 . S
C1596 C1595 1.369 . S
C1596 C1605 1.429 . S
C1597 C1595 1.419 . S
C1597 C1598 1.363 . S
C1597 H1600 0.929 . S
C1598 C1597 1.363 . S
C1598 C1604 1.428 . S
H1599 C1595 0.930 . S
H1600 C1597 0.929 . S
S1601 N1602 1.613 . S
S1601 N1603 1.610 . S
N1602 S1601 1.613 . S
N1602 C1605 1.350 . S
N1603 S1601 1.610 . S
N1603 C1604 1.351 . S
C1604 C1598 1.428 . S
C1604 N1603 1.351 . S
C1604 C1605 1.434 . S
C1605 C1596 1.429 . S
C1605 N1602 1.350 . S
C1605 C1604 1.434 . S
C1606 C1607 1.369 . S
C1606 C1608 1.419 . S
C1606 H1610 0.930 . S
C1607 C1606 1.369 . S
C1607 C1616 1.429 . S
C1608 C1606 1.419 . S
C1608 C1609 1.363 . S
C1608 H1611 0.929 . S
C1609 C1608 1.363 . S
C1609 C1615 1.428 . S
H1610 C1606 0.930 . S
H1611 C1608 0.929 . S
S1612 N1613 1.613 . S
S1612 N1614 1.610 . S
N1613 S1612 1.613 . S
N1613 C1616 1.350 . S
N1614 S1612 1.610 . S
N1614 C1615 1.351 . S
C1615 C1609 1.428 . S
C1615 N1614 1.351 . S
C1615 C1616 1.434 . S
C1616 C1607 1.429 . S
C1616 N1613 1.350 . S
C1616 C1615 1.434 . S
C1617 C1618 1.369 . S
C1617 C1619 1.419 . S
C1617 H1621 0.930 . S
C1618 C1617 1.369 . S
C1618 C1627 1.429 . S
C1619 C1617 1.419 . S
C1619 C1620 1.363 . S
C1619 H1622 0.929 . S
C1620 C1619 1.363 . S
C1620 C1626 1.428 . S
H1621 C1617 0.930 . S
H1622 C1619 0.929 . S
S1623 N1624 1.613 . S
S1623 N1625 1.610 . S
N1624 S1623 1.613 . S
N1624 C1627 1.350 . S
N1625 S1623 1.610 . S
N1625 C1626 1.351 . S
C1626 C1620 1.428 . S
C1626 N1625 1.351 . S
C1626 C1627 1.434 . S
C1627 C1618 1.429 . S
C1627 N1624 1.350 . S
C1627 C1626 1.434 . S
C1628 C1629 1.369 . S
C1628 C1630 1.419 . S
C1628 H1632 0.930 . S
C1629 C1628 1.369 . S
C1629 C1638 1.429 . S
C1630 C1628 1.419 . S
C1630 C1631 1.363 . S
C1630 H1633 0.929 . S
C1631 C1630 1.363 . S
C1631 C1637 1.428 . S
H1632 C1628 0.930 . S
H1633 C1630 0.929 . S
S1634 N1635 1.613 . S
S1634 N1636 1.610 . S
N1635 S1634 1.613 . S
N1635 C1638 1.350 . S
N1636 S1634 1.610 . S
N1636 C1637 1.351 . S
C1637 C1631 1.428 . S
C1637 N1636 1.351 . S
C1637 C1638 1.434 . S
C1638 C1629 1.429 . S
C1638 N1635 1.350 . S
C1638 C1637 1.434 . S
C1639 C1640 1.369 . S
C1639 C1641 1.419 . S
C1639 H1643 0.930 . S
C1640 C1639 1.369 . S
C1640 C1649 1.429 . S
C1641 C1639 1.419 . S
C1641 C1642 1.363 . S
C1641 H1644 0.929 . S
C1642 C1641 1.363 . S
C1642 C1648 1.428 . S
H1643 C1639 0.930 . S
H1644 C1641 0.929 . S
S1645 N1646 1.613 . S
S1645 N1647 1.610 . S
N1646 S1645 1.613 . S
N1646 C1649 1.350 . S
N1647 S1645 1.610 . S
N1647 C1648 1.351 . S
C1648 C1642 1.428 . S
C1648 N1647 1.351 . S
C1648 C1649 1.434 . S
C1649 C1640 1.429 . S
C1649 N1646 1.350 . S
C1649 C1648 1.434 . S
C1650 C1651 1.369 . S
C1650 C1652 1.419 . S
C1650 H1654 0.930 . S
C1651 C1650 1.369 . S
C1651 C1660 1.429 . S
C1652 C1650 1.419 . S
C1652 C1653 1.363 . S
C1652 H1655 0.929 . S
C1653 C1652 1.363 . S
C1653 C1659 1.428 . S
H1654 C1650 0.930 . S
H1655 C1652 0.929 . S
S1656 N1657 1.613 . S
S1656 N1658 1.610 . S
N1657 S1656 1.613 . S
N1657 C1660 1.350 . S
N1658 S1656 1.610 . S
N1658 C1659 1.351 . S
C1659 C1653 1.428 . S
C1659 N1658 1.351 . S
C1659 C1660 1.434 . S
C1660 C1651 1.429 . S
C1660 N1657 1.350 . S
C1660 C1659 1.434 . S
C1661 C1662 1.369 . S
C1661 C1663 1.419 . S
C1661 H1665 0.930 . S
C1662 C1661 1.369 . S
C1662 C1671 1.429 . S
C1663 C1661 1.419 . S
C1663 C1664 1.363 . S
C1663 H1666 0.929 . S
C1664 C1663 1.363 . S
C1664 C1670 1.428 . S
H1665 C1661 0.930 . S
H1666 C1663 0.929 . S
S1667 N1668 1.613 . S
S1667 N1669 1.610 . S
N1668 S1667 1.613 . S
N1668 C1671 1.350 . S
N1669 S1667 1.610 . S
N1669 C1670 1.351 . S
C1670 C1664 1.428 . S
C1670 N1669 1.351 . S
C1670 C1671 1.434 . S
C1671 C1662 1.429 . S
C1671 N1668 1.350 . S
C1671 C1670 1.434 . S
C1672 C1673 1.369 . S
C1672 C1674 1.419 . S
C1672 H1676 0.930 . S
C1673 C1672 1.369 . S
C1673 C1682 1.429 . S
C1674 C1672 1.419 . S
C1674 C1675 1.363 . S
C1674 H1677 0.929 . S
C1675 C1674 1.363 . S
C1675 C1681 1.428 . S
H1676 C1672 0.930 . S
H1677 C1674 0.929 . S
S1678 N1679 1.613 . S
S1678 N1680 1.610 . S
N1679 S1678 1.613 . S
N1679 C1682 1.350 . S
N1680 S1678 1.610 . S
N1680 C1681 1.351 . S
C1681 C1675 1.428 . S
C1681 N1680 1.351 . S
C1681 C1682 1.434 . S
C1682 C1673 1.429 . S
C1682 N1679 1.350 . S
C1682 C1681 1.434 . S
C1683 C1684 1.369 . S
C1683 C1685 1.419 . S
C1683 H1687 0.930 . S
C1684 C1683 1.369 . S
C1684 C1693 1.429 . S
C1685 C1683 1.419 . S
C1685 C1686 1.363 . S
C1685 H1688 0.929 . S
C1686 C1685 1.363 . S
C1686 C1692 1.428 . S
H1687 C1683 0.930 . S
H1688 C1685 0.929 . S
S1689 N1690 1.613 . S
S1689 N1691 1.610 . S
N1690 S1689 1.613 . S
N1690 C1693 1.350 . S
N1691 S1689 1.610 . S
N1691 C1692 1.351 . S
C1692 C1686 1.428 . S
C1692 N1691 1.351 . S
C1692 C1693 1.434 . S
C1693 C1684 1.429 . S
C1693 N1690 1.350 . S
C1693 C1692 1.434 . S
C1694 C1695 1.369 . S
C1694 C1696 1.419 . S
C1694 H1698 0.930 . S
C1695 C1694 1.369 . S
C1695 C1704 1.429 . S
C1696 C1694 1.419 . S
C1696 C1697 1.363 . S
C1696 H1699 0.929 . S
C1697 C1696 1.363 . S
C1697 C1703 1.428 . S
H1698 C1694 0.930 . S
H1699 C1696 0.929 . S
S1700 N1701 1.613 . S
S1700 N1702 1.610 . S
N1701 S1700 1.613 . S
N1701 C1704 1.350 . S
N1702 S1700 1.610 . S
N1702 C1703 1.351 . S
C1703 C1697 1.428 . S
C1703 N1702 1.351 . S
C1703 C1704 1.434 . S
C1704 C1695 1.429 . S
C1704 N1701 1.350 . S
C1704 C1703 1.434 . S
C1705 C1706 1.369 . S
C1705 C1707 1.419 . S
C1705 H1709 0.930 . S
C1706 C1705 1.369 . S
C1706 C1715 1.429 . S
C1707 C1705 1.419 . S
C1707 C1708 1.363 . S
C1707 H1710 0.929 . S
C1708 C1707 1.363 . S
C1708 C1714 1.428 . S
H1709 C1705 0.930 . S
H1710 C1707 0.929 . S
S1711 N1712 1.613 . S
S1711 N1713 1.610 . S
N1712 S1711 1.613 . S
N1712 C1715 1.350 . S
N1713 S1711 1.610 . S
N1713 C1714 1.351 . S
C1714 C1708 1.428 . S
C1714 N1713 1.351 . S
C1714 C1715 1.434 . S
C1715 C1706 1.429 . S
C1715 N1712 1.350 . S
C1715 C1714 1.434 . S
C1716 C1717 1.369 . S
C1716 C1718 1.419 1_455 S
C1716 H1720 0.930 . S
C1717 C1716 1.369 . S
C1717 C1726 1.429 . S
C1718 C1716 1.419 1_655 S
C1718 C1719 1.363 . S
C1718 H1721 0.929 . S
C1719 C1718 1.363 . S
C1719 C1725 1.428 . S
H1720 C1716 0.930 . S
H1721 C1718 0.929 . S
S1722 N1723 1.613 . S
S1722 N1724 1.610 1_455 S
N1723 S1722 1.613 . S
N1723 C1726 1.350 . S
N1724 S1722 1.610 1_655 S
N1724 C1725 1.351 . S
C1725 C1719 1.428 . S
C1725 N1724 1.351 . S
C1725 C1726 1.434 1_655 S
C1726 C1717 1.429 . S
C1726 N1723 1.350 . S
C1726 C1725 1.434 1_455 S
C1727 C1728 1.369 . S
C1727 C1729 1.419 . S
C1727 H1731 0.930 . S
C1728 C1727 1.369 . S
C1728 C1737 1.429 . S
C1729 C1727 1.419 . S
C1729 C1730 1.363 . S
C1729 H1732 0.929 . S
C1730 C1729 1.363 . S
C1730 C1736 1.428 . S
H1731 C1727 0.930 . S
H1732 C1729 0.929 . S
S1733 N1734 1.613 . S
S1733 N1735 1.610 . S
N1734 S1733 1.613 . S
N1734 C1737 1.350 . S
N1735 S1733 1.610 . S
N1735 C1736 1.351 . S
C1736 C1730 1.428 . S
C1736 N1735 1.351 . S
C1736 C1737 1.434 . S
C1737 C1728 1.429 . S
C1737 N1734 1.350 . S
C1737 C1736 1.434 . S
C1738 C1739 1.369 1_565 S
C1738 C1740 1.419 . S
C1738 H1742 0.930 . S
C1739 C1738 1.369 1_545 S
C1739 C1748 1.429 . S
C1740 C1738 1.419 . S
C1740 C1741 1.363 . S
C1740 H1743 0.929 . S
C1741 C1740 1.363 . S
C1741 C1747 1.428 1_565 S
H1742 C1738 0.930 . S
H1743 C1740 0.929 . S
S1744 N1745 1.613 . S
S1744 N1746 1.610 . S
N1745 S1744 1.613 . S
N1745 C1748 1.350 . S
N1746 S1744 1.610 . S
N1746 C1747 1.351 . S
C1747 C1741 1.428 1_545 S
C1747 N1746 1.351 . S
C1747 C1748 1.434 . S
C1748 C1739 1.429 . S
C1748 N1745 1.350 . S
C1748 C1747 1.434 . S
C1749 C1750 1.369 1_545 S
C1749 C1751 1.419 . S
C1749 H1753 0.930 . S
C1750 C1749 1.369 1_565 S
C1750 C1759 1.429 1_554 S
C1751 C1749 1.419 . S
C1751 C1752 1.363 1_554 S
C1751 H1754 0.929 . S
C1752 C1751 1.363 1_556 S
C1752 C1758 1.428 . S
H1753 C1749 0.930 . S
H1754 C1751 0.929 . S
S1755 N1756 1.613 . S
S1755 N1757 1.610 1_565 S
N1756 S1755 1.613 . S
N1756 C1759 1.350 . S
N1757 S1755 1.610 1_545 S
N1757 C1758 1.351 . S
C1758 C1752 1.428 . S
C1758 N1757 1.351 . S
C1758 C1759 1.434 1_545 S
C1759 C1750 1.429 1_556 S
C1759 N1756 1.350 . S
C1759 C1758 1.434 1_565 S
C1760 C1761 1.369 1_554 S
C1760 C1762 1.419 1_655 S
C1760 H1764 0.930 . S
C1761 C1760 1.369 1_556 S
C1761 C1770 1.429 . S
C1762 C1760 1.419 1_455 S
C1762 C1763 1.363 . S
C1762 H1765 0.929 . S
C1763 C1762 1.363 . S
C1763 C1769 1.428 1_554 S
H1764 C1760 0.930 . S
H1765 C1762 0.929 . S
S1766 N1767 1.613 1_455 S
S1766 N1768 1.610 . S
N1767 S1766 1.613 1_655 S
N1767 C1770 1.350 . S
N1768 S1766 1.610 . S
N1768 C1769 1.351 . S
C1769 C1763 1.428 1_556 S
C1769 N1768 1.351 . S
C1769 C1770 1.434 1_455 S
C1770 C1761 1.429 . S
C1770 N1767 1.350 . S
C1770 C1769 1.434 1_655 S
C1771 C1772 1.369 . S
C1771 C1773 1.419 1_554 S
C1771 H1775 0.930 . S
C1772 C1771 1.369 . S
C1772 C1781 1.429 . S
C1773 C1771 1.419 1_556 S
C1773 C1774 1.363 . S
C1773 H1776 0.929 . S
C1774 C1773 1.363 . S
C1774 C1780 1.428 . S
H1775 C1771 0.930 . S
H1776 C1773 0.929 . S
S1777 N1778 1.613 1_556 S
S1777 N1779 1.610 . S
N1778 S1777 1.613 1_554 S
N1778 C1781 1.350 . S
N1779 S1777 1.610 . S
N1779 C1780 1.351 . S
C1780 C1774 1.428 . S
C1780 N1779 1.351 . S
C1780 C1781 1.434 1_556 S
C1781 C1772 1.429 . S
C1781 N1778 1.350 . S
C1781 C1780 1.434 1_554 S
C1782 C1783 1.369 . S
C1782 C1784 1.419 . S
C1782 H1786 0.930 1_556 S
C1783 C1782 1.369 . S
C1783 C1792 1.429 . S
C1784 C1782 1.419 . S
C1784 C1785 1.363 . S
C1784 H1787 0.929 1_545 S
C1785 C1784 1.363 . S
C1785 C1791 1.428 . S
H1786 C1782 0.930 1_554 S
H1787 C1784 0.929 1_565 S
S1788 N1789 1.613 . S
S1788 N1790 1.610 . S
N1789 S1788 1.613 . S
N1789 C1792 1.350 . S
N1790 S1788 1.610 . S
N1790 C1791 1.351 . S
C1791 C1785 1.428 . S
C1791 N1790 1.351 . S
C1791 C1792 1.434 . S
C1792 C1783 1.429 . S
C1792 N1789 1.350 . S
C1792 C1791 1.434 . S
C1793 C1794 1.369 . S
C1793 C1795 1.419 . S
C1793 H1797 0.930 . S
C1794 C1793 1.369 . S
C1794 C1803 1.429 . S
C1795 C1793 1.419 . S
C1795 C1796 1.363 . S
C1795 H1798 0.929 . S
C1796 C1795 1.363 . S
C1796 C1802 1.428 . S
H1797 C1793 0.930 . S
H1798 C1795 0.929 . S
S1799 N1800 1.614 . S
S1799 N1801 1.605 1_654 S
N1800 S1799 1.614 . S
N1800 C1803 1.350 1_554 S
N1801 S1799 1.605 1_456 S
N1801 C1802 1.351 1_455 S
C1802 C1796 1.428 . S
C1802 N1801 1.351 1_655 S
C1802 C1803 1.434 . S
C1803 C1794 1.429 . S
C1803 N1800 1.350 1_556 S
C1803 C1802 1.434 . S
C1804 C1805 1.369 . S
C1804 C1806 1.419 . S
C1804 H1808 0.930 . S
C1805 C1804 1.369 . S
C1805 C1814 1.429 1_556 S
C1806 C1804 1.419 . S
C1806 C1807 1.363 . S
C1806 H1809 0.929 . S
C1807 C1806 1.363 . S
C1807 C1813 1.428 1_556 S
H1808 C1804 0.930 . S
H1809 C1806 0.929 . S
S1810 N1811 1.613 . S
S1810 N1812 1.610 . S
N1811 S1810 1.613 . S
N1811 C1814 1.350 . S
N1812 S1810 1.610 . S
N1812 C1813 1.351 . S
C1813 C1807 1.428 1_554 S
C1813 N1812 1.351 . S
C1813 C1814 1.434 . S
C1814 C1805 1.429 1_554 S
C1814 N1811 1.350 . S
C1814 C1813 1.434 . S
C1815 C1816 1.369 . S
C1815 C1817 1.419 . S
C1815 H1819 0.934 . S
C1816 C1815 1.369 . S
C1816 C1825 1.429 . S
C1817 C1815 1.419 . S
C1817 C1818 1.363 . S
C1817 H1820 0.929 . S
C1818 C1817 1.363 . S
C1818 C1824 1.428 . S
H1819 C1815 0.934 . S
H1820 C1817 0.929 . S
S1821 N1822 1.613 . S
S1821 N1823 1.610 . S
N1822 S1821 1.613 . S
N1822 C1825 1.350 . S
N1823 S1821 1.610 . S
N1823 C1824 1.351 . S
C1824 C1818 1.428 . S
C1824 N1823 1.351 . S
C1824 C1825 1.434 . S
C1825 C1816 1.429 . S
C1825 N1822 1.350 . S
C1825 C1824 1.434 . S
C1826 C1827 1.369 . S
C1826 C1828 1.419 . S
C1826 H1830 0.930 . S
C1827 C1826 1.369 . S
C1827 C1836 1.429 . S
C1828 C1826 1.419 . S
C1828 C1829 1.363 . S
C1828 H1831 0.929 . S
C1829 C1828 1.363 . S
C1829 C1835 1.428 . S
H1830 C1826 0.930 . S
H1831 C1828 0.929 . S
S1832 N1833 1.613 . S
S1832 N1834 1.610 . S
N1833 S1832 1.613 . S
N1833 C1836 1.350 . S
N1834 S1832 1.610 . S
N1834 C1835 1.351 . S
C1835 C1829 1.428 . S
C1835 N1834 1.351 . S
C1835 C1836 1.434 . S
C1836 C1827 1.429 . S
C1836 N1833 1.350 . S
C1836 C1835 1.434 . S
C1837 C1838 1.369 . S
C1837 C1839 1.419 . S
C1837 H1841 0.930 . S
C1838 C1837 1.369 . S
C1838 C1847 1.429 . S
C1839 C1837 1.419 . S
C1839 C1840 1.363 . S
C1839 H1842 0.929 . S
C1840 C1839 1.363 . S
C1840 C1846 1.428 . S
H1841 C1837 0.930 . S
H1842 C1839 0.929 . S
S1843 N1844 1.613 . S
S1843 N1845 1.610 . S
N1844 S1843 1.613 . S
N1844 C1847 1.350 . S
N1845 S1843 1.610 . S
N1845 C1846 1.351 . S
C1846 C1840 1.428 . S
C1846 N1845 1.351 . S
C1846 C1847 1.434 . S
C1847 C1838 1.429 . S
C1847 N1844 1.350 . S
C1847 C1846 1.434 . S
C1848 C1849 1.369 . S
C1848 C1850 1.419 1_554 S
C1848 H1852 0.930 1_564 S
C1849 C1848 1.369 . S
C1849 C1858 1.429 . S
C1850 C1848 1.419 1_556 S
C1850 C1851 1.363 1_556 S
C1850 H1853 0.929 . S
C1851 C1850 1.363 1_554 S
C1851 C1857 1.428 . S
H1852 C1848 0.930 1_546 S
H1853 C1850 0.929 . S
S1854 N1855 1.613 . S
S1854 N1856 1.610 . S
N1855 S1854 1.613 . S
N1855 C1858 1.350 . S
N1856 S1854 1.610 . S
N1856 C1857 1.351 . S
C1857 C1851 1.428 . S
C1857 N1856 1.351 . S
C1857 C1858 1.434 . S
C1858 C1849 1.429 . S
C1858 N1855 1.350 . S
C1858 C1857 1.434 . S
C1859 C1860 1.369 . S
C1859 C1861 1.419 . S
C1859 H1863 0.930 . S
C1860 C1859 1.369 . S
C1860 C1869 1.429 1_554 S
C1861 C1859 1.419 . S
C1861 C1862 1.363 . S
C1861 H1864 0.929 . S
C1862 C1861 1.363 . S
C1862 C1868 1.428 1_554 S
H1863 C1859 0.930 . S
H1864 C1861 0.929 . S
S1865 N1866 1.597 1_455 S
S1865 N1867 1.610 . S
N1866 S1865 1.597 1_655 S
N1866 C1869 1.341 1_655 S
N1867 S1865 1.610 . S
N1867 C1868 1.351 . S
C1868 C1862 1.428 1_556 S
C1868 N1867 1.351 . S
C1868 C1869 1.434 . S
C1869 C1860 1.429 1_556 S
C1869 N1866 1.341 1_455 S
C1869 C1868 1.434 . S
C1870 C1871 1.369 1_556 S
C1870 C1872 1.419 . S
C1870 H1874 0.930 . S
C1871 C1870 1.369 1_554 S
C1871 C1880 1.429 . S
C1872 C1870 1.419 . S
C1872 C1873 1.363 1_556 S
C1872 H1875 0.929 . S
C1873 C1872 1.363 1_554 S
C1873 C1879 1.428 . S
H1874 C1870 0.930 . S
H1875 C1872 0.929 . S
S1876 N1877 1.613 . S
S1876 N1878 1.610 . S
N1877 S1876 1.613 . S
N1877 C1880 1.350 . S
N1878 S1876 1.610 . S
N1878 C1879 1.351 . S
C1879 C1873 1.428 . S
C1879 N1878 1.351 . S
C1879 C1880 1.434 . S
C1880 C1871 1.429 . S
C1880 N1877 1.350 . S
C1880 C1879 1.434 . S
C1881 C1882 1.369 . S
C1881 C1883 1.419 . S
C1881 H1885 0.930 . S
C1882 C1881 1.369 . S
C1882 C1891 1.429 . S
C1883 C1881 1.419 . S
C1883 C1884 1.363 . S
C1883 H1886 0.929 1_655 S
C1884 C1883 1.363 . S
C1884 C1890 1.428 . S
H1885 C1881 0.930 . S
H1886 C1883 0.929 1_455 S
S1887 N1888 1.613 . S
S1887 N1889 1.610 . S
N1888 S1887 1.613 . S
N1888 C1891 1.350 . S
N1889 S1887 1.610 . S
N1889 C1890 1.351 . S
C1890 C1884 1.428 . S
C1890 N1889 1.351 . S
C1890 C1891 1.434 . S
C1891 C1882 1.429 . S
C1891 N1888 1.350 . S
C1891 C1890 1.434 . S
C1892 C1893 1.369 . S
C1892 C1894 1.419 . S
C1892 H1896 0.930 . S
C1893 C1892 1.369 . S
C1893 C1902 1.429 . S
C1894 C1892 1.419 . S
C1894 C1895 1.363 . S
C1894 H1897 0.929 . S
C1895 C1894 1.363 . S
C1895 C1901 1.428 . S
H1896 C1892 0.930 . S
H1897 C1894 0.929 . S
S1898 N1899 1.613 . S
S1898 N1900 1.610 . S
N1899 S1898 1.613 . S
N1899 C1902 1.350 . S
N1900 S1898 1.610 . S
N1900 C1901 1.351 . S
C1901 C1895 1.428 . S
C1901 N1900 1.351 . S
C1901 C1902 1.434 . S
C1902 C1893 1.429 . S
C1902 N1899 1.350 . S
C1902 C1901 1.434 . S
C1903 C1904 1.369 . S
C1903 C1905 1.419 . S
C1903 H1907 0.930 . S
C1904 C1903 1.369 . S
C1904 C1913 1.429 . S
C1905 C1903 1.419 . S
C1905 C1906 1.363 . S
C1905 H1908 0.929 . S
C1906 C1905 1.363 . S
C1906 C1912 1.428 . S
H1907 C1903 0.930 . S
H1908 C1905 0.929 . S
S1909 N1910 1.613 . S
S1909 N1911 1.610 . S
N1910 S1909 1.613 . S
N1910 C1913 1.350 . S
N1911 S1909 1.610 . S
N1911 C1912 1.351 . S
C1912 C1906 1.428 . S
C1912 N1911 1.351 . S
C1912 C1913 1.434 . S
C1913 C1904 1.429 . S
C1913 N1910 1.350 . S
C1913 C1912 1.434 . S
C1914 C1915 1.369 . S
C1914 C1916 1.419 . S
C1914 H1918 0.930 . S
C1915 C1914 1.369 . S
C1915 C1924 1.429 . S
C1916 C1914 1.419 . S
C1916 C1917 1.363 . S
C1916 H1919 0.929 . S
C1917 C1916 1.363 . S
C1917 C1923 1.428 . S
H1918 C1914 0.930 . S
H1919 C1916 0.929 . S
S1920 N1921 1.613 . S
S1920 N1922 1.610 . S
N1921 S1920 1.613 . S
N1921 C1924 1.350 . S
N1922 S1920 1.610 . S
N1922 C1923 1.351 . S
C1923 C1917 1.428 . S
C1923 N1922 1.351 . S
C1923 C1924 1.434 . S
C1924 C1915 1.429 . S
C1924 N1921 1.350 . S
C1924 C1923 1.434 . S
C1925 C1926 1.369 . S
C1925 C1927 1.419 . S
C1925 H1929 0.930 . S
C1926 C1925 1.369 . S
C1926 C1935 1.429 . S
C1927 C1925 1.419 . S
C1927 C1928 1.363 . S
C1927 H1930 0.929 . S
C1928 C1927 1.363 . S
C1928 C1934 1.428 . S
H1929 C1925 0.930 . S
H1930 C1927 0.929 . S
S1931 N1932 1.613 . S
S1931 N1933 1.610 . S
N1932 S1931 1.613 . S
N1932 C1935 1.350 . S
N1933 S1931 1.610 . S
N1933 C1934 1.351 . S
C1934 C1928 1.428 . S
C1934 N1933 1.351 . S
C1934 C1935 1.434 . S
C1935 C1926 1.429 . S
C1935 N1932 1.350 . S
C1935 C1934 1.434 . S
C1936 C1937 1.369 . S
C1936 C1938 1.419 . S
C1936 H1940 0.930 . S
C1937 C1936 1.369 . S
C1937 C1946 1.429 . S
C1938 C1936 1.419 . S
C1938 C1939 1.363 . S
C1938 H1941 0.929 . S
C1939 C1938 1.363 . S
C1939 C1945 1.428 . S
H1940 C1936 0.930 . S
H1941 C1938 0.929 . S
S1942 N1943 1.613 . S
S1942 N1944 1.610 . S
N1943 S1942 1.613 . S
N1943 C1946 1.350 . S
N1944 S1942 1.610 . S
N1944 C1945 1.351 . S
C1945 C1939 1.428 . S
C1945 N1944 1.351 . S
C1945 C1946 1.434 . S
C1946 C1937 1.429 . S
C1946 N1943 1.350 . S
C1946 C1945 1.434 . S
C1947 C1948 1.369 . S
C1947 C1949 1.419 . S
C1947 H1951 0.930 . S
C1948 C1947 1.369 . S
C1948 C1957 1.429 . S
C1949 C1947 1.419 . S
C1949 C1950 1.363 . S
C1949 H1952 0.929 . S
C1950 C1949 1.363 . S
C1950 C1956 1.428 . S
H1951 C1947 0.930 . S
H1952 C1949 0.929 . S
S1953 N1954 1.613 . S
S1953 N1955 1.610 . S
N1954 S1953 1.613 . S
N1954 C1957 1.350 . S
N1955 S1953 1.610 . S
N1955 C1956 1.351 . S
C1956 C1950 1.428 . S
C1956 N1955 1.351 . S
C1956 C1957 1.434 . S
C1957 C1948 1.429 . S
C1957 N1954 1.350 . S
C1957 C1956 1.434 . S
C1958 C1959 1.369 . S
C1958 C1960 1.419 . S
C1958 H1962 0.930 . S
C1959 C1958 1.369 . S
C1959 C1968 1.429 . S
C1960 C1958 1.419 . S
C1960 C1961 1.363 . S
C1960 H1963 0.929 . S
C1961 C1960 1.363 . S
C1961 C1967 1.428 . S
H1962 C1958 0.930 . S
H1963 C1960 0.929 . S
S1964 N1965 1.613 . S
S1964 N1966 1.610 . S
N1965 S1964 1.613 . S
N1965 C1968 1.350 . S
N1966 S1964 1.610 . S
N1966 C1967 1.351 . S
C1967 C1961 1.428 . S
C1967 N1966 1.351 . S
C1967 C1968 1.434 . S
C1968 C1959 1.429 . S
C1968 N1965 1.350 . S
C1968 C1967 1.434 . S
C1969 C1970 1.369 . S
C1969 C1971 1.419 . S
C1969 H1973 0.930 . S
C1970 C1969 1.369 . S
C1970 C1979 1.429 . S
C1971 C1969 1.419 . S
C1971 C1972 1.363 . S
C1971 H1974 0.929 . S
C1972 C1971 1.363 . S
C1972 C1978 1.428 . S
H1973 C1969 0.930 . S
H1974 C1971 0.929 . S
S1975 N1976 1.613 . S
S1975 N1977 1.610 . S
N1976 S1975 1.613 . S
N1976 C1979 1.350 . S
N1977 S1975 1.610 . S
N1977 C1978 1.351 . S
C1978 C1972 1.428 . S
C1978 N1977 1.351 . S
C1978 C1979 1.434 . S
C1979 C1970 1.429 . S
C1979 N1976 1.350 . S
C1979 C1978 1.434 . S
C1980 C1981 1.369 . S
C1980 C1982 1.419 . S
C1980 H1984 0.930 . S
C1981 C1980 1.369 . S
C1981 C1990 1.429 . S
C1982 C1980 1.419 . S
C1982 C1983 1.363 . S
C1982 H1985 0.929 . S
C1983 C1982 1.363 . S
C1983 C1989 1.428 . S
H1984 C1980 0.930 . S
H1985 C1982 0.929 . S
S1986 N1987 1.613 . S
S1986 N1988 1.610 . S
N1987 S1986 1.613 . S
N1987 C1990 1.350 . S
N1988 S1986 1.610 . S
N1988 C1989 1.351 . S
C1989 C1983 1.428 . S
C1989 N1988 1.351 . S
C1989 C1990 1.434 . S
C1990 C1981 1.429 . S
C1990 N1987 1.350 . S
C1990 C1989 1.434 . S
C1991 C1992 1.369 . S
C1991 C1993 1.419 . S
C1991 H1995 0.930 . S
C1992 C1991 1.369 . S
C1992 C2001 1.429 . S
C1993 C1991 1.419 . S
C1993 C1994 1.363 . S
C1993 H1996 0.929 . S
C1994 C1993 1.363 . S
C1994 C2000 1.428 . S
H1995 C1991 0.930 . S
H1996 C1993 0.929 . S
S1997 N1998 1.613 . S
S1997 N1999 1.610 . S
N1998 S1997 1.613 . S
N1998 C2001 1.350 . S
N1999 S1997 1.610 . S
N1999 C2000 1.351 . S
C2000 C1994 1.428 . S
C2000 N1999 1.351 . S
C2000 C2001 1.434 . S
C2001 C1992 1.429 . S
C2001 N1998 1.350 . S
C2001 C2000 1.434 . S
C2002 C2003 1.369 . S
C2002 C2004 1.419 . S
C2002 H2006 0.930 . S
C2003 C2002 1.369 . S
C2003 C2012 1.429 . S
C2004 C2002 1.419 . S
C2004 C2005 1.363 . S
C2004 H2007 0.929 . S
C2005 C2004 1.363 . S
C2005 C2011 1.428 . S
H2006 C2002 0.930 . S
H2007 C2004 0.929 . S
S2008 N2009 1.613 . S
S2008 N2010 1.610 . S
N2009 S2008 1.613 . S
N2009 C2012 1.350 . S
N2010 S2008 1.610 . S
N2010 C2011 1.351 . S
C2011 C2005 1.428 . S
C2011 N2010 1.351 . S
C2011 C2012 1.434 . S
C2012 C2003 1.429 . S
C2012 N2009 1.350 . S
C2012 C2011 1.434 . S
C2013 C2014 1.369 . S
C2013 C2015 1.419 . S
C2013 H2017 0.930 . S
C2014 C2013 1.369 . S
C2014 C2023 1.429 . S
C2015 C2013 1.419 . S
C2015 C2016 1.363 . S
C2015 H2018 0.929 . S
C2016 C2015 1.363 . S
C2016 C2022 1.428 . S
H2017 C2013 0.930 . S
H2018 C2015 0.929 . S
S2019 N2020 1.613 . S
S2019 N2021 1.610 . S
N2020 S2019 1.613 . S
N2020 C2023 1.350 . S
N2021 S2019 1.610 . S
N2021 C2022 1.351 . S
C2022 C2016 1.428 . S
C2022 N2021 1.351 . S
C2022 C2023 1.434 . S
C2023 C2014 1.429 . S
C2023 N2020 1.350 . S
C2023 C2022 1.434 . S
C2024 C2025 1.369 . S
C2024 C2026 1.419 . S
C2024 H2028 0.930 . S
C2025 C2024 1.369 . S
C2025 C2034 1.429 . S
C2026 C2024 1.419 . S
C2026 C2027 1.363 . S
C2026 H2029 0.929 . S
C2027 C2026 1.363 . S
C2027 C2033 1.428 . S
H2028 C2024 0.930 . S
H2029 C2026 0.929 . S
S2030 N2031 1.613 . S
S2030 N2032 1.610 . S
N2031 S2030 1.613 . S
N2031 C2034 1.350 . S
N2032 S2030 1.610 . S
N2032 C2033 1.351 . S
C2033 C2027 1.428 . S
C2033 N2032 1.351 . S
C2033 C2034 1.434 . S
C2034 C2025 1.429 . S
C2034 N2031 1.350 . S
C2034 C2033 1.434 . S
C2035 C2036 1.369 . S
C2035 C2037 1.419 . S
C2035 H2039 0.930 . S
C2036 C2035 1.369 . S
C2036 C2045 1.429 . S
C2037 C2035 1.419 . S
C2037 C2038 1.363 . S
C2037 H2040 0.929 . S
C2038 C2037 1.363 . S
C2038 C2044 1.428 . S
H2039 C2035 0.930 . S
H2040 C2037 0.929 . S
S2041 N2042 1.613 . S
S2041 N2043 1.610 . S
N2042 S2041 1.613 . S
N2042 C2045 1.350 . S
N2043 S2041 1.610 . S
N2043 C2044 1.351 . S
C2044 C2038 1.428 . S
C2044 N2043 1.351 . S
C2044 C2045 1.434 . S
C2045 C2036 1.429 . S
C2045 N2042 1.350 . S
C2045 C2044 1.434 . S
C2046 C2047 1.369 . S
C2046 C2048 1.419 . S
C2046 H2050 0.930 . S
C2047 C2046 1.369 . S
C2047 C2056 1.429 . S
C2048 C2046 1.419 . S
C2048 C2049 1.363 . S
C2048 H2051 0.929 . S
C2049 C2048 1.363 . S
C2049 C2055 1.428 . S
H2050 C2046 0.930 . S
H2051 C2048 0.929 . S
S2052 N2053 1.613 . S
S2052 N2054 1.610 . S
N2053 S2052 1.613 . S
N2053 C2056 1.350 . S
N2054 S2052 1.610 . S
N2054 C2055 1.351 . S
C2055 C2049 1.428 . S
C2055 N2054 1.351 . S
C2055 C2056 1.434 . S
C2056 C2047 1.429 . S
C2056 N2053 1.350 . S
C2056 C2055 1.434 . S
C2057 C2058 1.369 . S
C2057 C2059 1.419 . S
C2057 H2061 0.930 . S
C2058 C2057 1.369 . S
C2058 C2067 1.429 . S
C2059 C2057 1.419 . S
C2059 C2060 1.363 . S
C2059 H2062 0.929 . S
C2060 C2059 1.363 . S
C2060 C2066 1.428 . S
H2061 C2057 0.930 . S
H2062 C2059 0.929 . S
S2063 N2064 1.613 . S
S2063 N2065 1.610 . S
N2064 S2063 1.613 . S
N2064 C2067 1.350 . S
N2065 S2063 1.610 . S
N2065 C2066 1.351 . S
C2066 C2060 1.428 . S
C2066 N2065 1.351 . S
C2066 C2067 1.434 . S
C2067 C2058 1.429 . S
C2067 N2064 1.350 . S
C2067 C2066 1.434 . S
C2068 C2069 1.369 . S
C2068 C2070 1.419 . S
C2068 H2072 0.930 . S
C2069 C2068 1.369 . S
C2069 C2078 1.429 . S
C2070 C2068 1.419 . S
C2070 C2071 1.363 . S
C2070 H2073 0.929 . S
C2071 C2070 1.363 . S
C2071 C2077 1.428 . S
H2072 C2068 0.930 . S
H2073 C2070 0.929 . S
S2074 N2075 1.613 . S
S2074 N2076 1.610 . S
N2075 S2074 1.613 . S
N2075 C2078 1.350 . S
N2076 S2074 1.610 . S
N2076 C2077 1.351 . S
C2077 C2071 1.428 . S
C2077 N2076 1.351 . S
C2077 C2078 1.434 . S
C2078 C2069 1.429 . S
C2078 N2075 1.350 . S
C2078 C2077 1.434 . S
C2079 C2080 1.369 . S
C2079 C2081 1.419 . S
C2079 H2083 0.930 . S
C2080 C2079 1.369 . S
C2080 C2089 1.429 . S
C2081 C2079 1.419 . S
C2081 C2082 1.363 . S
C2081 H2084 0.929 . S
C2082 C2081 1.363 . S
C2082 C2088 1.428 . S
H2083 C2079 0.930 . S
H2084 C2081 0.929 . S
S2085 N2086 1.613 . S
S2085 N2087 1.610 . S
N2086 S2085 1.613 . S
N2086 C2089 1.350 . S
N2087 S2085 1.610 . S
N2087 C2088 1.351 . S
C2088 C2082 1.428 . S
C2088 N2087 1.351 . S
C2088 C2089 1.434 . S
C2089 C2080 1.429 . S
C2089 N2086 1.350 . S
C2089 C2088 1.434 . S
C2090 C2091 1.369 . S
C2090 C2092 1.419 . S
C2090 H2094 0.930 . S
C2091 C2090 1.369 . S
C2091 C2100 1.429 . S
C2092 C2090 1.419 . S
C2092 C2093 1.363 . S
C2092 H2095 0.929 . S
C2093 C2092 1.363 . S
C2093 C2099 1.428 . S
H2094 C2090 0.930 . S
H2095 C2092 0.929 . S
S2096 N2097 1.613 . S
S2096 N2098 1.610 . S
N2097 S2096 1.613 . S
N2097 C2100 1.350 . S
N2098 S2096 1.610 . S
N2098 C2099 1.351 . S
C2099 C2093 1.428 . S
C2099 N2098 1.351 . S
C2099 C2100 1.434 . S
C2100 C2091 1.429 . S
C2100 N2097 1.350 . S
C2100 C2099 1.434 . S
C2101 C2102 1.369 . S
C2101 C2103 1.419 . S
C2101 H2105 0.930 . S
C2102 C2101 1.369 . S
C2102 C2111 1.429 . S
C2103 C2101 1.419 . S
C2103 C2104 1.363 . S
C2103 H2106 0.929 . S
C2104 C2103 1.363 . S
C2104 C2110 1.428 . S
H2105 C2101 0.930 . S
H2106 C2103 0.929 . S
S2107 N2108 1.613 . S
S2107 N2109 1.610 . S
N2108 S2107 1.613 . S
N2108 C2111 1.350 . S
N2109 S2107 1.610 . S
N2109 C2110 1.351 . S
C2110 C2104 1.428 . S
C2110 N2109 1.351 . S
C2110 C2111 1.434 . S
C2111 C2102 1.429 . S
C2111 N2108 1.350 . S
C2111 C2110 1.434 . S
C2112 C2113 1.369 . S
C2112 C2114 1.419 . S
C2112 H2116 0.930 . S
C2113 C2112 1.369 . S
C2113 C2122 1.429 . S
C2114 C2112 1.419 . S
C2114 C2115 1.363 . S
C2114 H2117 0.929 . S
C2115 C2114 1.363 . S
C2115 C2121 1.428 . S
H2116 C2112 0.930 . S
H2117 C2114 0.929 . S
S2118 N2119 1.613 . S
S2118 N2120 1.610 . S
N2119 S2118 1.613 . S
N2119 C2122 1.350 . S
N2120 S2118 1.610 . S
N2120 C2121 1.351 . S
C2121 C2115 1.428 . S
C2121 N2120 1.351 . S
C2121 C2122 1.434 . S
C2122 C2113 1.429 . S
C2122 N2119 1.350 . S
C2122 C2121 1.434 . S
C2123 C2124 1.369 . S
C2123 C2125 1.419 . S
C2123 H2127 0.930 . S
C2124 C2123 1.369 . S
C2124 C2133 1.429 . S
C2125 C2123 1.419 . S
C2125 C2126 1.363 . S
C2125 H2128 0.929 . S
C2126 C2125 1.363 . S
C2126 C2132 1.428 . S
H2127 C2123 0.930 . S
H2128 C2125 0.929 . S
S2129 N2130 1.613 . S
S2129 N2131 1.610 . S
N2130 S2129 1.613 . S
N2130 C2133 1.350 . S
N2131 S2129 1.610 . S
N2131 C2132 1.351 . S
C2132 C2126 1.428 . S
C2132 N2131 1.351 . S
C2132 C2133 1.434 . S
C2133 C2124 1.429 . S
C2133 N2130 1.350 . S
C2133 C2132 1.434 . S
C2134 C2135 1.369 . S
C2134 C2136 1.419 . S
C2134 H2138 0.930 . S
C2135 C2134 1.369 . S
C2135 C2144 1.429 . S
C2136 C2134 1.419 . S
C2136 C2137 1.363 . S
C2136 H2139 0.929 . S
C2137 C2136 1.363 . S
C2137 C2143 1.428 . S
H2138 C2134 0.930 . S
H2139 C2136 0.929 . S
S2140 N2141 1.613 . S
S2140 N2142 1.610 . S
N2141 S2140 1.613 . S
N2141 C2144 1.350 . S
N2142 S2140 1.610 . S
N2142 C2143 1.351 . S
C2143 C2137 1.428 . S
C2143 N2142 1.351 . S
C2143 C2144 1.434 . S
C2144 C2135 1.429 . S
C2144 N2141 1.350 . S
C2144 C2143 1.434 . S
C2145 C2146 1.369 . S
C2145 C2147 1.419 . S
C2145 H2149 0.930 . S
C2146 C2145 1.369 . S
C2146 C2155 1.429 . S
C2147 C2145 1.419 . S
C2147 C2148 1.363 . S
C2147 H2150 0.929 . S
C2148 C2147 1.363 . S
C2148 C2154 1.428 . S
H2149 C2145 0.930 . S
H2150 C2147 0.929 . S
S2151 N2152 1.613 . S
S2151 N2153 1.610 . S
N2152 S2151 1.613 . S
N2152 C2155 1.350 . S
N2153 S2151 1.610 . S
N2153 C2154 1.351 . S
C2154 C2148 1.428 . S
C2154 N2153 1.351 . S
C2154 C2155 1.434 . S
C2155 C2146 1.429 . S
C2155 N2152 1.350 . S
C2155 C2154 1.434 . S
C2156 C2157 1.369 . S
C2156 C2158 1.419 . S
C2156 H2160 0.930 . S
C2157 C2156 1.369 . S
C2157 C2166 1.429 . S
C2158 C2156 1.419 . S
C2158 C2159 1.363 . S
C2158 H2161 0.929 . S
C2159 C2158 1.363 . S
C2159 C2165 1.428 . S
H2160 C2156 0.930 . S
H2161 C2158 0.929 . S
S2162 N2163 1.613 . S
S2162 N2164 1.610 . S
N2163 S2162 1.613 . S
N2163 C2166 1.350 . S
N2164 S2162 1.610 . S
N2164 C2165 1.351 . S
C2165 C2159 1.428 . S
C2165 N2164 1.351 . S
C2165 C2166 1.434 . S
C2166 C2157 1.429 . S
C2166 N2163 1.350 . S
C2166 C2165 1.434 . S
C2167 C2168 1.369 . S
C2167 C2169 1.419 . S
C2167 H2171 0.930 . S
C2168 C2167 1.369 . S
C2168 C2177 1.429 . S
C2169 C2167 1.419 . S
C2169 C2170 1.363 . S
C2169 H2172 0.929 . S
C2170 C2169 1.363 . S
C2170 C2176 1.428 . S
H2171 C2167 0.930 . S
H2172 C2169 0.929 . S
S2173 N2174 1.613 . S
S2173 N2175 1.610 . S
N2174 S2173 1.613 . S
N2174 C2177 1.350 . S
N2175 S2173 1.610 . S
N2175 C2176 1.351 . S
C2176 C2170 1.428 . S
C2176 N2175 1.351 . S
C2176 C2177 1.434 . S
C2177 C2168 1.429 . S
C2177 N2174 1.350 . S
C2177 C2176 1.434 . S
C1189 C536 1.605 . S
C1191 C28 1.597 . S
C1200 C61 1.600 . S
C1202 C569 1.607 . S
C1211 C503 1.607 . S
C1213 C94 1.600 . S
C1222 C107 1.606 . S
C1224 C886 1.599 . S
C1233 C820 1.599 . S
C1235 C140 1.606 . S
C1244 C173 1.607 . S
C1246 C853 1.598 . S
C1255 C226 1.664 . S
C1257 C1150 1.665 . S
C1266 C259 1.668 . S
C1268 C1183 1.667 . S
C1277 C292 1.666 . S
C1279 C1117 1.667 . S
C1288 C325 1.665 . S
C1290 C688 1.665 . S
C1299 C358 1.668 . S
C1301 C622 1.667 . S
C1310 C391 1.667 . S
C1312 C655 1.668 . S
C1321 C424 1.597 . S
C1323 C932 1.606 . S
C1332 C965 1.606 . S
C1334 C457 1.597 . S
C1343 C899 1.607 . S
C1345 C490 1.598 . S
C1354 C1084 1.665 . S
C1356 C721 1.666 . S
C1365 C1018 1.668 . S
C1367 C754 1.668 . S
C1376 C787 1.666 . S
C1378 C1051 1.667 . S
C1387 N962 1.532 . S
C1389 N14 1.481 . S
C1398 N47 1.476 . S
C1400 N896 1.530 . S
C1409 N80 1.483 . S
C1411 N929 1.533 . S
C1420 N104 1.530 . S
C1422 N443 1.478 . S
C1431 N137 1.534 . S
C1433 N476 1.483 . S
C1442 N410 1.482 . S
C1444 N170 1.532 . S
C1453 N773 1.520 . S
C1455 N212 1.529 . S
C1464 N245 1.530 . S
C1466 N707 1.512 . S
C1475 N278 1.525 . S
C1477 N740 1.511 . S
C1486 N1037 1.526 . S
C1488 N311 1.511 . S
C1497 N1070 1.530 . S
C1499 N344 1.519 . S
C1508 N1004 1.525 . S
C1510 N377 1.516 . S
C1519 N500 1.532 . S
C1521 N839 1.482 . S
C1530 N533 1.532 . S
C1532 N872 1.481 . S
C1541 N566 1.533 . S
C1543 N806 1.483 . S
C1552 N608 1.525 . S
C1554 N1169 1.511 . S
C1563 N1103 1.520 . S
C1565 N641 1.529 . S
C1574 N674 1.530 . S
C1576 N1136 1.519 . S
C1585 C17 1.369 . S
C1587 C611 1.367 . S
C1596 C50 1.372 . S
C1598 C644 1.364 . S
C1607 C677 1.371 . S
C1609 C83 1.365 . S
C1618 C116 1.336 . S
C1620 C1106 1.342 . S
C1629 C149 1.330 . S
C1631 C1139 1.347 . S
C1640 C182 1.335 . S
C1642 C1172 1.341 . S
C1651 C809 1.372 . S
C1653 C215 1.364 . S
C1662 C248 1.372 . S
C1664 C842 1.365 . S
C1673 C875 1.369 . S
C1675 C281 1.368 . S
C1684 C512 1.326 . S
C1686 C314 1.348 . S
C1695 C545 1.335 . S
C1697 C347 1.343 . S
C1706 C380 1.346 . S
C1708 C578 1.328 . S
C1717 C1007 1.371 . S
C1719 C413 1.366 . S
C1728 C1040 1.369 . S
C1730 C446 1.367 . S
C1739 C479 1.372 . S
C1741 C1073 1.365 . S
C1750 C908 1.331 . S
C1752 C710 1.343 . S
C1761 C743 1.342 . S
C1763 C941 1.332 . S
C1772 C974 1.337 . S
C1774 C776 1.342 . S
C1783 N5 1.467 . S
C1785 C239 1.464 1_545 S
C1794 N38 1.464 . S
C1796 C272 1.464 1_655 S
C1805 C206 1.463 . S
C1807 N71 1.465 . S
C1816 C371 1.482 1_455 S
C1818 N113 1.473 . S
C1827 C305 1.485 . S
C1829 N146 1.471 . S
C1838 C338 1.481 1_565 S
C1840 N179 1.469 . S
C1849 C41 1.511 1_565 S
C1851 N203 1.517 . S
C1860 C74 1.508 1_455 S
C1862 N236 1.517 . S
C1871 C8 1.512 . S
C1873 N269 1.515 . S
C1882 N302 1.460 . S
C1884 C193 1.444 1_655 S
C1893 N335 1.456 . S
C1895 C127 1.444 . S
C1904 C160 1.444 1_545 S
C1906 N368 1.457 . S
C1915 C635 1.462 . S
C1917 N401 1.467 . S
C1926 N434 1.467 . S
C1928 C668 1.464 . S
C1937 C602 1.466 . S
C1939 N467 1.465 . S
C1948 C767 1.484 . S
C1950 N509 1.474 . S
C1959 N542 1.474 . S
C1961 C701 1.483 . S
C1970 N575 1.473 . S
C1972 C734 1.485 . S
C1981 N599 1.512 . S
C1983 C437 1.508 . S
C1992 N632 1.510 . S
C1994 C470 1.509 . S
C2003 N665 1.513 . S
C2005 C404 1.511 . S
C2014 N698 1.458 . S
C2016 C589 1.445 . S
C2025 C523 1.446 . S
C2027 N731 1.457 . S
C2036 C556 1.442 . S
C2038 N764 1.457 . S
C2047 C1031 1.465 . S
C2049 N797 1.466 . S
C2058 C1064 1.466 . S
C2060 N830 1.465 . S
C2069 C998 1.465 . S
C2071 N863 1.466 . S
C2080 C1163 1.481 . S
C2082 N905 1.470 . S
C2091 N938 1.469 . S
C2093 C1097 1.481 . S
C2102 C1130 1.483 . S
C2104 N971 1.473 . S
C2113 C833 1.511 . S
C2115 N995 1.510 . S
C2124 C866 1.508 . S
C2126 N1028 1.512 . S
C2135 C800 1.508 . S
C2137 N1061 1.513 . S
C2146 N1094 1.457 . S
C2148 C985 1.445 . S
C2157 N1127 1.459 . S
C2159 C919 1.445 . S
C2168 C952 1.444 . S
C2170 N1160 1.457 . S
