# Generated by pormake.
# Topology sma, (6)-cn, num edge types: 1
# Building blocks:
#     Node 0, Type 0, BuildingBlock: VOLQOD_clean_sbu_1, # of connection points: 6
#     Node 1, Type 0, BuildingBlock: VOLQOD_clean_sbu_1, # of connection points: 6
#     Node 2, Type 0, BuildingBlock: VOLQOD_clean_sbu_1, # of connection points: 6
#     Edge 3, Type (0, 0), BuildingBlock: FUNLAD_clean_linker_0, # of connection points: 2
#     Edge 4, Type (0, 0), BuildingBlock: FUNLAD_clean_linker_0, # of connection points: 2
#     Edge 5, Type (0, 0), BuildingBlock: FUNLAD_clean_linker_0, # of connection points: 2
#     Edge 6, Type (0, 0), BuildingBlock: FUNLAD_clean_linker_0, # of connection points: 2
#     Edge 7, Type (0, 0), BuildingBlock: FUNLAD_clean_linker_0, # of connection points: 2
#     Edge 8, Type (0, 0), BuildingBlock: FUNLAD_clean_linker_0, # of connection points: 2
#     Edge 9, Type (0, 0), BuildingBlock: FUNLAD_clean_linker_0, # of connection points: 2
#     Edge 10, Type (0, 0), BuildingBlock: FUNLAD_clean_linker_0, # of connection points: 2
#     Edge 11, Type (0, 0), BuildingBlock: FUNLAD_clean_linker_0, # of connection points: 2
# Relax obj value: 0.285
# Max RMSD: 0.234
# Mean RMSD: 0.234
data_MOF--net-sma--node1-VOLQOD_clean_sbu_1--edge1-FUNLAD_clean_linker_0
_symmetry_space_group_name_H-M    P1
_symmetry_Int_Tables_number       1
_symmetry_cell_setting            triclinic
loop_
_symmetry_equiv_pos_as_xyz
'x, y, z'
_cell_length_a     35.1582
_cell_length_b     35.017756
_cell_length_c     19.56129
_cell_angle_alpha  90.477937
_cell_angle_beta   88.935955
_cell_angle_gamma 119.95932
loop_
_atom_site_label
_atom_site_type_symbol
_atom_site_fract_x
_atom_site_fract_y
_atom_site_fract_z
_atom_type_partial_charge
O0 O 0.02872 0.57061 -0.01576 0.0
Zn1 Zn 0.02451 0.58719 0.08138 0.0
O2 O 0.00964 0.53733 0.1396 0.0
Zn3 Zn 0.05958 0.5486 0.1919 0.0
Zn4 Zn 0.99198 0.48529 0.08482 0.0
Zn5 Zn 0.9629 0.5286 0.20095 0.0
O6 O 0.04273 0.53487 0.29071 0.0
O7 O 0.98536 0.54553 0.29632 0.0
O8 O 0.07905 0.64231 0.11337 0.0
O9 O 0.10216 0.61297 0.19088 0.0
O10 O 0.08975 0.51725 0.15222 0.0
O11 O 0.04155 0.47256 0.07639 0.0
O12 O 0.93884 0.432 0.12631 0.0
O13 O 0.97468 0.59947 0.08144 0.0
O14 O 0.91925 0.46452 0.20627 0.0
O15 O 0.9312 0.5592 0.16708 0.0
C16 C 0.0043 0.53376 0.95489 0.0
C17 C 0.01507 0.54093 0.32526 0.0
C18 C 0.07841 0.48809 0.10559 0.0
C19 C 0.1062 0.64636 0.1591 0.0
C20 C 0.91346 0.42998 0.1753 0.0
C21 C 0.93984 0.58592 0.1176 0.0
O22 O 0.98217 0.49814 -0.01106 0.0
O23 O 0.49877 0.04571 0.3199 0.0
Zn24 Zn 0.48051 0.04003 0.41893 0.0
O25 O 0.51452 0.02135 0.47089 0.0
Zn26 Zn 0.55462 0.06824 0.52827 0.0
Zn27 Zn 0.54795 0.00489 0.41054 0.0
Zn28 Zn 0.47547 0.97273 0.52827 0.0
O29 O 0.55253 0.04606 0.62299 0.0
O30 O 0.48344 0.99081 0.62706 0.0
O31 O 0.48373 0.09503 0.45973 0.0
O32 O 0.53512 0.11256 0.53755 0.0
O33 O 0.61574 0.09877 0.48816 0.0
O34 O 0.6109 0.05341 0.40469 0.0
O35 O 0.54557 0.94882 0.44276 0.0
O36 O 0.41737 0.99243 0.41899 0.0
O37 O 0.49223 0.92625 0.52143 0.0
O38 O 0.41267 0.94554 0.49868 0.0
C39 C 0.51129 0.0225 0.28602 0.0
C40 C 0.51899 0.01768 0.6567 0.0
C41 C 0.633 0.08887 0.43829 0.0
C42 C 0.50717 0.11959 0.50826 0.0
C43 C 0.52049 0.92092 0.4876 0.0
C44 C 0.39501 0.957 0.45291 0.0
O45 O 0.52566 -7e-05 0.31551 0.0
O46 O 0.47336 0.50591 0.64513 0.0
Zn47 Zn 0.45577 0.48692 0.74261 0.0
O48 O 0.50628 0.51995 0.79927 0.0
Zn49 Zn 0.49948 0.56238 0.85263 0.0
Zn50 Zn 0.55853 0.55027 0.74267 0.0
Zn51 Zn 0.51153 0.48016 0.85964 0.0
O52 O 0.51007 0.55743 0.95182 0.0
O53 O 0.49548 0.48784 0.95543 0.0
O54 O 0.40399 0.49312 0.77535 0.0
O55 O 0.43722 0.54805 0.84942 0.0
O56 O 0.53625 0.62357 0.81439 0.0
O57 O 0.57568 0.61392 0.73345 0.0
O58 O 0.60943 0.54697 0.78348 0.0
O59 O 0.43833 0.4229 0.74279 0.0
O60 O 0.5743 0.49623 0.86379 0.0
O61 O 0.47726 0.4176 0.82632 0.0
C62 C 0.50935 0.51534 0.61434 0.0
C63 C 0.50185 0.52299 -0.01459 0.0
C64 C 0.56422 0.63852 0.76525 0.0
C65 C 0.40291 0.52005 0.81854 0.0
C66 C 0.60956 0.52319 0.83239 0.0
C67 C 0.44986 0.40016 0.77819 0.0
O68 O 0.54444 0.52636 0.64706 0.0
C69 C 0.15534 0.50222 0.09563 0.0
C70 C 0.111 0.47683 0.0777 0.0
C71 C 0.18754 0.49789 0.05948 0.0
C72 C 0.17605 0.46794 0.00492 0.0
C73 C 0.13159 0.43987 -0.00917 0.0
C74 C 0.09928 0.44451 0.02651 0.0
C75 C 0.21027 0.4672 0.96059 0.0
C76 C 0.24596 0.50508 0.9407 0.0
C77 C 0.28383 0.50829 0.90096 0.0
C78 C 0.32306 0.54893 0.90102 0.0
C79 C 0.36114 0.55318 0.87083 0.0
C80 C 0.36084 0.51695 0.839 0.0
H81 H 0.25291 0.44099 0.86248 0.0
C82 C 0.32101 0.47695 0.8346 0.0
C83 C 0.28275 0.47254 0.86554 0.0
H84 H 0.31985 0.44851 0.81021 0.0
H85 H 0.16554 0.5271 0.13517 0.0
H86 H 0.2216 0.51891 0.07298 0.0
H87 H 0.122 0.41604 0.94974 0.0
H88 H 0.06535 0.42409 0.01192 0.0
H89 H 0.20517 0.43549 0.94342 0.0
H90 H 0.24863 0.53603 0.9574 0.0
H91 H 0.32481 0.57721 0.92699 0.0
H92 H 0.39125 0.5846 0.87443 0.0
C93 C 0.6996 0.16383 0.4434 0.0
C94 C 0.67719 0.12203 0.4127 0.0
C95 C 0.73638 0.19819 0.41124 0.0
C96 C 0.75146 0.19147 0.34769 0.0
C97 C 0.73181 0.14885 0.32027 0.0
C98 C 0.69478 0.11439 0.35228 0.0
C99 C 0.78541 0.22908 0.3073 0.0
C100 C 0.78511 0.26736 0.30458 0.0
C101 C 0.81698 0.30727 0.26575 0.0
C102 C 0.81553 0.34611 0.27725 0.0
C103 C 0.84582 0.3854 0.24565 0.0
C104 C 0.87835 0.38691 0.20116 0.0
H105 H 0.85035 0.27896 0.20749 0.0
C106 C 0.87884 0.34774 0.18694 0.0
C107 C 0.84848 0.30821 0.21906 0.0
H108 H 0.90355 0.34791 0.15284 0.0
H109 H 0.68746 0.17073 0.49047 0.0
H110 H 0.75202 0.23045 0.43492 0.0
H111 H 0.74339 0.14278 0.27192 0.0
H112 H 0.67862 0.08244 0.32765 0.0
H113 H 0.8086 0.22396 0.27701 0.0
H114 H 0.75972 0.26992 0.3334 0.0
H115 H 0.79142 0.34642 0.31226 0.0
H116 H 0.84424 0.41488 0.25734 0.0
C117 C 0.5675 0.88619 0.49994 0.0
C118 C 0.52639 0.88355 0.50666 0.0
C119 C 0.57469 0.85426 0.53024 0.0
C120 C 0.54062 0.81902 0.56724 0.0
C121 C 0.49888 0.81507 0.56949 0.0
C122 C 0.49188 0.847 0.53994 0.0
C123 C 0.54669 0.78669 0.60738 0.0
C124 C 0.58533 0.78881 0.61917 0.0
C125 C 0.58687 0.75578 0.66401 0.0
C126 C 0.61053 0.73516 0.64318 0.0
C127 C 0.60584 0.69866 0.67921 0.0
C128 C 0.57785 0.68273 0.73717 0.0
H129 H 0.54477 0.75886 0.7437 0.0
C130 C 0.55781 0.70636 0.76165 0.0
C131 C 0.5622 0.74247 0.72533 0.0
H132 H 0.53651 0.69545 0.80653 0.0
H133 H 0.59469 0.91408 0.47451 0.0
H134 H 0.60714 0.85821 0.52592 0.0
H135 H 0.47182 0.78806 0.59674 0.0
H136 H 0.45969 0.84382 0.54534 0.0
H137 H 0.51724 0.75989 0.63096 0.0
H138 H 0.61551 0.81321 0.59434 0.0
H139 H 0.63031 0.74541 0.59664 0.0
H140 H 0.62217 0.6815 0.65938 0.0
C141 C 0.69101 0.56911 0.84785 0.0
C142 C 0.65139 0.52949 0.85882 0.0
C143 C 0.72892 0.57741 0.88246 0.0
C144 C 0.72773 0.54603 0.92838 0.0
C145 C 0.68874 0.50553 0.93592 0.0
C146 C 0.65098 0.49741 0.90193 0.0
C147 C 0.76573 0.55362 -0.02995 0.0
C148 C 0.80067 0.59341 -0.01673 0.0
C149 C 0.83674 0.59746 0.02625 0.0
C150 C 0.88039 0.62612 0.00624 0.0
C151 C 0.91462 0.62489 0.03947 0.0
C152 C 0.90566 0.59538 0.09395 0.0
H153 H 0.79464 0.54968 0.10264 0.0
C154 C 0.86219 0.57001 0.11822 0.0
C155 C 0.82802 0.57096 0.08457 0.0
H156 H 0.85412 0.54729 0.16048 0.0
H157 H 0.69232 0.59441 0.81478 0.0
H158 H 0.75866 0.60848 0.87343 0.0
H159 H 0.68701 0.48048 -0.02991 0.0
H160 H 0.62107 0.46636 0.91101 0.0
H161 H 0.76416 0.5246 -0.00724 0.0
H162 H 0.80428 0.62309 0.9601 0.0
H163 H 0.88786 0.64741 0.96218 0.0
H164 H 0.94783 0.64528 0.02001 0.0
C165 C 0.33282 0.93352 0.37199 0.0
C166 C 0.34965 0.92562 0.43162 0.0
C167 C 0.29415 0.9002 0.34352 0.0
C168 C 0.27156 0.85831 0.37428 0.0
C169 C 0.28626 0.85184 0.43708 0.0
C170 C 0.32499 0.88502 0.46535 0.0
C171 C 0.23501 0.81946 0.3407 0.0
C172 C 0.2279 0.81612 0.27281 0.0
C173 C 0.19822 0.77306 0.24068 0.0
C174 C 0.17224 0.77036 0.18519 0.0
C175 C 0.14319 0.72934 0.15637 0.0
C176 C 0.14043 0.69057 0.18198 0.0
H177 H 0.21798 0.73579 0.30457 0.0
C178 C 0.16847 0.69394 0.2349 0.0
C179 C 0.19694 0.73459 0.26387 0.0
H180 H 0.1678 0.66497 0.25543 0.0
H181 H 0.35066 0.96468 0.34517 0.0
H182 H 0.28305 0.90714 0.29651 0.0
H183 H 0.26913 0.8201 0.46249 0.0
H184 H 0.33669 0.87798 0.51177 0.0
H185 H 0.21589 0.79045 0.37246 0.0
H186 H 0.24532 0.84441 0.23932 0.0
H187 H 0.17345 0.79979 0.16554 0.0
H188 H 0.12219 0.7279 0.11545 0.0
C189 C 0.45597 0.33219 0.78564 0.0
C190 C 0.43712 0.35496 0.75539 0.0
C191 C 0.45296 0.29491 0.75418 0.0
C192 C 0.43103 0.27967 0.69189 0.0
C193 C 0.40825 0.29946 0.66554 0.0
C194 C 0.41145 0.33699 0.69679 0.0
C195 C 0.43468 0.24574 0.65115 0.0
C196 C 0.47325 0.24636 0.64588 0.0
C197 C 0.48136 0.215 0.6053 0.0
C198 C 0.52094 0.21544 0.61569 0.0
C199 C 0.52996 0.18565 0.58186 0.0
C200 C 0.49968 0.1547 0.53621 0.0
H201 H 0.42122 0.18436 0.54651 0.0
C202 C 0.46083 0.15536 0.52316 0.0
C203 C 0.45164 0.1852 0.55746 0.0
H204 H 0.43685 0.1319 0.48821 0.0
H205 H 0.47536 0.34462 0.83136 0.0
H206 H 0.46943 0.27915 0.77709 0.0
H207 H 0.39048 0.28774 0.61823 0.0
H208 H 0.396 0.35338 0.67259 0.0
H209 H 0.40642 0.22247 0.62228 0.0
H210 H 0.50111 0.27163 0.67363 0.0
H211 H 0.54472 0.23829 0.65152 0.0
H212 H 0.56037 0.18631 0.59281 0.0
C213 C 0.03036 0.56928 0.84036 0.0
C214 C 0.00131 0.53242 0.87974 0.0
C215 C 0.02755 0.56811 0.76932 0.0
C216 C -0.00444 0.53001 0.73632 0.0
C217 C 0.96601 0.49351 0.7756 0.0
C218 C 0.96906 0.49451 0.84666 0.0
C219 C 0.99162 0.52789 0.66118 0.0
C220 C 0.0266 0.54934 0.61906 0.0
C221 C 0.02282 0.54687 0.5439 0.0
C222 C 0.05779 0.55001 0.50402 0.0
C223 C 0.05515 0.54769 0.43291 0.0
C224 C 0.01772 0.54299 0.40043 0.0
H225 H 0.95852 0.54137 0.54082 0.0
C226 C 0.98304 0.54071 0.44041 0.0
C227 C 0.98552 0.54258 0.51151 0.0
H228 H 0.95388 0.53735 0.41686 0.0
H229 H 0.05538 0.5991 0.86431 0.0
H230 H 0.05 0.5973 0.74056 0.0
H231 H 0.94082 0.46397 0.7512 0.0
H232 H 0.94593 0.46569 0.87561 0.0
H233 H 0.95943 0.50611 0.64017 0.0
H234 H 0.05938 0.56728 0.64001 0.0
H235 H 0.08703 0.55378 0.52795 0.0
H236 H 0.08261 0.54996 0.40346 0.0
C237 C 0.52738 0.00068 0.17201 0.0
C238 C 0.50845 0.02104 0.21082 0.0
C239 C 0.52426 -0.00135 0.10103 0.0
C240 C 0.50218 0.01704 0.06741 0.0
C241 C 0.48267 0.03676 0.1061 0.0
C242 C 0.48605 0.03909 0.17717 0.0
C243 C 0.49815 0.01518 -0.00774 0.0
C244 C 0.52928 0.01612 0.95023 0.0
C245 C 0.52585 0.01548 0.87509 0.0
C246 C 0.5643 0.03799 0.83525 0.0
C247 C 0.56209 0.03876 0.76422 0.0
C248 C 0.52135 0.01627 0.73172 0.0
H249 H 0.45496 0.97354 0.87197 0.0
C250 C 0.48291 0.99266 0.77158 0.0
C251 C 0.48511 0.99232 0.84267 0.0
H252 H 0.45106 0.97476 0.74799 0.0
H253 H 0.54458 0.98616 0.19639 0.0
H254 H 0.53853 0.98201 0.07284 0.0
H255 H 0.46514 0.05078 0.08125 0.0
H256 H 0.47077 0.05466 0.20566 0.0
H257 H 0.47006 0.01572 -0.02894 0.0
H258 H 0.55958 0.0204 -0.02883 0.0
H259 H 0.59608 0.05564 0.85921 0.0
H260 H 0.59234 0.05688 0.73484 0.0
C261 C 0.475 0.50998 0.50145 0.0
C262 C 0.51039 0.51374 0.539 0.0
C263 C 0.47609 0.509 0.43023 0.0
C264 C 0.5126 0.51168 0.39517 0.0
C265 C 0.54752 0.51446 0.43257 0.0
C266 C 0.54666 0.51589 0.50387 0.0
C267 C 0.51447 0.51031 0.31975 0.0
C268 C 0.4956 0.52711 0.28001 0.0
C269 C 0.49732 0.52555 0.20459 0.0
C270 C 0.49737 0.55934 0.16659 0.0
C271 C 0.49908 0.55873 0.09527 0.0
C272 C 0.49998 0.52381 0.06076 0.0
H273 H 0.49631 0.46308 0.19795 0.0
C274 C 0.499 0.48951 0.09893 0.0
C275 C 0.4977 0.49036 0.17014 0.0
H276 H 0.49939 0.462 0.07388 0.0
H277 H 0.44646 0.50799 0.52699 0.0
H278 H 0.44801 0.50546 0.40289 0.0
H279 H 0.57576 0.51607 0.40655 0.0
H280 H 0.57428 0.51843 0.53138 0.0
H281 H 0.53383 0.49713 0.29653 0.0
H282 H 0.4803 0.54454 0.30317 0.0
H283 H 0.49662 0.58653 0.19215 0.0
H284 H 0.49945 0.58547 0.06728 0.0
loop_
_geom_bond_atom_site_label_1
_geom_bond_atom_site_label_2
_geom_bond_distance
_geom_bond_site_symmetry_2
_ccdc_geom_bond_type
O0 Zn1 1.953 . S
O0 C16 1.225 1_554 S
Zn1 O0 1.953 . S
Zn1 O2 1.949 . S
Zn1 O8 1.919 . S
Zn1 O13 1.924 1_455 S
O2 Zn1 1.949 . S
O2 Zn3 1.923 . S
O2 Zn4 1.950 . S
O2 Zn5 1.945 1_455 S
Zn3 O2 1.923 . S
Zn3 O6 1.933 . S
Zn3 O9 1.941 . S
Zn3 O10 1.965 . S
Zn4 O2 1.950 . S
Zn4 O11 1.938 . S
Zn4 O12 1.906 1_455 S
Zn4 O22 1.965 1_455 S
Zn5 O2 1.945 1_655 S
Zn5 O7 1.932 . S
Zn5 O14 1.977 . S
Zn5 O15 1.910 . S
O6 Zn3 1.933 . S
O6 C17 1.226 . S
O7 Zn5 1.932 . S
O7 C17 1.307 1_655 S
O8 Zn1 1.919 . S
O8 C19 1.253 . S
O9 Zn3 1.941 . S
O9 C19 1.283 . S
O10 Zn3 1.965 . S
O10 C18 1.303 . S
O11 Zn4 1.938 . S
O11 C18 1.247 . S
O12 Zn4 1.906 1_655 S
O12 C20 1.304 . S
O13 Zn1 1.924 1_655 S
O13 C21 1.311 . S
O14 Zn5 1.977 . S
O14 C20 1.272 . S
O15 Zn5 1.910 . S
O15 C21 1.231 . S
C16 O0 1.225 1_556 S
C16 O22 1.293 1_456 S
C17 O6 1.226 . S
C17 O7 1.307 1_455 S
C18 O10 1.303 . S
C18 O11 1.247 . S
C19 O8 1.253 . S
C19 O9 1.283 . S
C20 O12 1.304 . S
C20 O14 1.272 . S
C21 O13 1.311 . S
C21 O15 1.231 . S
O22 Zn4 1.965 1_655 S
O22 C16 1.293 1_654 S
O23 Zn24 1.953 . S
O23 C39 1.225 . S
Zn24 O23 1.953 . S
Zn24 O25 1.949 . S
Zn24 O31 1.919 . S
Zn24 O36 1.924 1_545 S
O25 Zn24 1.949 . S
O25 Zn26 1.923 . S
O25 Zn27 1.950 . S
O25 Zn28 1.945 1_545 S
Zn26 O25 1.923 . S
Zn26 O29 1.933 . S
Zn26 O32 1.941 . S
Zn26 O33 1.965 . S
Zn27 O25 1.950 . S
Zn27 O34 1.938 . S
Zn27 O35 1.906 1_545 S
Zn27 O45 1.953 . S
Zn28 O25 1.945 1_565 S
Zn28 O30 1.932 . S
Zn28 O37 1.977 . S
Zn28 O38 1.910 . S
O29 Zn26 1.933 . S
O29 C40 1.226 . S
O30 Zn28 1.932 . S
O30 C40 1.307 1_565 S
O31 Zn24 1.919 . S
O31 C42 1.253 . S
O32 Zn26 1.941 . S
O32 C42 1.283 . S
O33 Zn26 1.965 . S
O33 C41 1.303 . S
O34 Zn27 1.938 . S
O34 C41 1.247 . S
O35 Zn27 1.906 1_565 S
O35 C43 1.304 . S
O36 Zn24 1.924 1_565 S
O36 C44 1.311 . S
O37 Zn28 1.977 . S
O37 C43 1.272 . S
O38 Zn28 1.910 . S
O38 C44 1.231 . S
C39 O23 1.225 . S
C39 O45 1.298 . S
C40 O29 1.226 . S
C40 O30 1.307 1_545 S
C41 O33 1.303 . S
C41 O34 1.247 . S
C42 O31 1.253 . S
C42 O32 1.283 . S
C43 O35 1.304 . S
C43 O37 1.272 . S
C44 O36 1.311 . S
C44 O38 1.231 . S
O45 Zn27 1.953 . S
O45 C39 1.298 . S
O46 Zn47 1.953 . S
O46 C62 1.225 . S
Zn47 O46 1.953 . S
Zn47 O48 1.949 . S
Zn47 O54 1.919 . S
Zn47 O59 1.924 . S
O48 Zn47 1.949 . S
O48 Zn49 1.923 . S
O48 Zn50 1.950 . S
O48 Zn51 1.945 . S
Zn49 O48 1.923 . S
Zn49 O52 1.924 1_556 S
Zn49 O55 1.941 . S
Zn49 O56 1.965 . S
Zn50 O48 1.950 . S
Zn50 O57 1.938 . S
Zn50 O58 1.906 . S
Zn50 O68 1.953 . S
Zn51 O48 1.945 . S
Zn51 O53 1.932 . S
Zn51 O60 1.977 . S
Zn51 O61 1.910 . S
O52 Zn49 1.924 1_554 S
O52 C63 1.231 . S
O53 Zn51 1.932 . S
O53 C63 1.307 1_556 S
O54 Zn47 1.919 . S
O54 C65 1.253 . S
O55 Zn49 1.941 . S
O55 C65 1.283 . S
O56 Zn49 1.965 . S
O56 C64 1.303 . S
O57 Zn50 1.938 . S
O57 C64 1.247 . S
O58 Zn50 1.906 . S
O58 C66 1.304 . S
O59 Zn47 1.924 . S
O59 C67 1.311 . S
O60 Zn51 1.977 . S
O60 C66 1.272 . S
O61 Zn51 1.910 . S
O61 C67 1.231 . S
C62 O46 1.225 . S
C62 O68 1.298 . S
C63 O52 1.231 . S
C63 O53 1.307 1_554 S
C64 O56 1.303 . S
C64 O57 1.247 . S
C65 O54 1.253 . S
C65 O55 1.283 . S
C66 O58 1.304 . S
C66 O60 1.272 . S
C67 O59 1.311 . S
C67 O61 1.231 . S
O68 Zn50 1.953 . S
O68 C62 1.298 . S
C69 C70 1.386 . S
C69 C71 1.383 . S
C69 H85 0.951 . S
C70 C69 1.386 . S
C70 C74 1.383 . S
C71 C69 1.383 . S
C71 C72 1.402 . S
C71 H86 0.951 . S
C72 C71 1.402 . S
C72 C73 1.375 . S
C72 C75 1.481 . S
C73 C72 1.375 . S
C73 C74 1.367 . S
C73 H87 0.951 . S
C74 C70 1.383 . S
C74 C73 1.367 . S
C74 H88 0.950 . S
C75 C72 1.481 . S
C75 C76 1.297 . S
C75 H89 0.950 . S
C76 C75 1.297 . S
C76 C77 1.479 1_554 S
C76 H90 0.950 . S
C77 C76 1.479 1_556 S
C77 C78 1.375 . S
C77 C83 1.404 . S
C78 C77 1.375 . S
C78 C79 1.369 . S
C78 H91 0.950 . S
C79 C78 1.369 . S
C79 C80 1.392 . S
C79 H92 0.951 . S
C80 C79 1.392 . S
C80 C82 1.384 . S
H81 C83 0.949 . S
C82 C80 1.384 . S
C82 C83 1.385 . S
C82 H84 0.950 . S
C83 C77 1.404 . S
C83 H81 0.949 . S
C83 C82 1.385 . S
H84 C82 0.950 . S
H85 C69 0.951 . S
H86 C71 0.951 . S
H87 C73 0.951 . S
H88 C74 0.950 . S
H89 C75 0.950 . S
H90 C76 0.950 . S
H91 C78 0.950 . S
H92 C79 0.951 . S
C93 C94 1.386 . S
C93 C95 1.383 . S
C93 H109 0.951 . S
C94 C93 1.386 . S
C94 C98 1.383 . S
C95 C93 1.383 . S
C95 C96 1.402 . S
C95 H110 0.951 . S
C96 C95 1.402 . S
C96 C97 1.375 . S
C96 C99 1.481 . S
C97 C96 1.375 . S
C97 C98 1.367 . S
C97 H111 0.951 . S
C98 C94 1.383 . S
C98 C97 1.367 . S
C98 H112 0.950 . S
C99 C96 1.481 . S
C99 C100 1.297 . S
C99 H113 0.950 . S
C100 C99 1.297 . S
C100 C101 1.479 . S
C100 H114 0.950 . S
C101 C100 1.479 . S
C101 C102 1.375 . S
C101 C107 1.404 . S
C102 C101 1.375 . S
C102 C103 1.369 . S
C102 H115 0.950 . S
C103 C102 1.369 . S
C103 C104 1.392 . S
C103 H116 0.951 . S
C104 C103 1.392 . S
C104 C106 1.384 . S
H105 C107 0.949 . S
C106 C104 1.384 . S
C106 C107 1.385 . S
C106 H108 0.950 . S
C107 C101 1.404 . S
C107 H105 0.949 . S
C107 C106 1.385 . S
H108 C106 0.950 . S
H109 C93 0.951 . S
H110 C95 0.951 . S
H111 C97 0.951 . S
H112 C98 0.950 . S
H113 C99 0.950 . S
H114 C100 0.950 . S
H115 C102 0.950 . S
H116 C103 0.951 . S
C117 C118 1.386 . S
C117 C119 1.383 . S
C117 H133 0.951 . S
C118 C117 1.386 . S
C118 C122 1.383 . S
C119 C117 1.383 . S
C119 C120 1.402 . S
C119 H134 0.951 . S
C120 C119 1.402 . S
C120 C121 1.375 . S
C120 C123 1.481 . S
C121 C120 1.375 . S
C121 C122 1.367 . S
C121 H135 0.951 . S
C122 C118 1.383 . S
C122 C121 1.367 . S
C122 H136 0.950 . S
C123 C120 1.481 . S
C123 C124 1.297 . S
C123 H137 0.950 . S
C124 C123 1.297 . S
C124 C125 1.479 . S
C124 H138 0.950 . S
C125 C124 1.479 . S
C125 C126 1.375 . S
C125 C131 1.404 . S
C126 C125 1.375 . S
C126 C127 1.369 . S
C126 H139 0.950 . S
C127 C126 1.369 . S
C127 C128 1.392 . S
C127 H140 0.951 . S
C128 C127 1.392 . S
C128 C130 1.384 . S
H129 C131 0.949 . S
C130 C128 1.384 . S
C130 C131 1.385 . S
C130 H132 0.950 . S
C131 C125 1.404 . S
C131 H129 0.949 . S
C131 C130 1.385 . S
H132 C130 0.950 . S
H133 C117 0.951 . S
H134 C119 0.951 . S
H135 C121 0.951 . S
H136 C122 0.950 . S
H137 C123 0.950 . S
H138 C124 0.950 . S
H139 C126 0.950 . S
H140 C127 0.951 . S
C141 C142 1.386 . S
C141 C143 1.383 . S
C141 H157 0.951 . S
C142 C141 1.386 . S
C142 C146 1.383 . S
C143 C141 1.383 . S
C143 C144 1.402 . S
C143 H158 0.951 . S
C144 C143 1.402 . S
C144 C145 1.375 . S
C144 C147 1.481 . S
C145 C144 1.375 . S
C145 C146 1.367 . S
C145 H159 0.951 . S
C146 C142 1.383 . S
C146 C145 1.367 . S
C146 H160 0.950 . S
C147 C144 1.481 . S
C147 C148 1.297 1_556 S
C147 H161 0.950 . S
C148 C147 1.297 1_554 S
C148 C149 1.479 . S
C148 H162 0.950 . S
C149 C148 1.479 . S
C149 C150 1.375 . S
C149 C155 1.404 . S
C150 C149 1.375 . S
C150 C151 1.369 . S
C150 H163 0.950 . S
C151 C150 1.369 . S
C151 C152 1.392 . S
C151 H164 0.951 . S
C152 C151 1.392 . S
C152 C154 1.384 . S
H153 C155 0.949 . S
C154 C152 1.384 . S
C154 C155 1.385 . S
C154 H156 0.950 . S
C155 C149 1.404 . S
C155 H153 0.949 . S
C155 C154 1.385 . S
H156 C154 0.950 . S
H157 C141 0.951 . S
H158 C143 0.951 . S
H159 C145 0.951 . S
H160 C146 0.950 . S
H161 C147 0.950 . S
H162 C148 0.950 . S
H163 C150 0.950 . S
H164 C151 0.951 . S
C165 C166 1.386 . S
C165 C167 1.383 . S
C165 H181 0.951 . S
C166 C165 1.386 . S
C166 C170 1.383 . S
C167 C165 1.383 . S
C167 C168 1.402 . S
C167 H182 0.951 . S
C168 C167 1.402 . S
C168 C169 1.375 . S
C168 C171 1.481 . S
C169 C168 1.375 . S
C169 C170 1.367 . S
C169 H183 0.951 . S
C170 C166 1.383 . S
C170 C169 1.367 . S
C170 H184 0.950 . S
C171 C168 1.481 . S
C171 C172 1.297 . S
C171 H185 0.950 . S
C172 C171 1.297 . S
C172 C173 1.479 . S
C172 H186 0.950 . S
C173 C172 1.479 . S
C173 C174 1.375 . S
C173 C179 1.404 . S
C174 C173 1.375 . S
C174 C175 1.369 . S
C174 H187 0.950 . S
C175 C174 1.369 . S
C175 C176 1.392 . S
C175 H188 0.951 . S
C176 C175 1.392 . S
C176 C178 1.384 . S
H177 C179 0.949 . S
C178 C176 1.384 . S
C178 C179 1.385 . S
C178 H180 0.950 . S
C179 C173 1.404 . S
C179 H177 0.949 . S
C179 C178 1.385 . S
H180 C178 0.950 . S
H181 C165 0.951 . S
H182 C167 0.951 . S
H183 C169 0.951 . S
H184 C170 0.950 . S
H185 C171 0.950 . S
H186 C172 0.950 . S
H187 C174 0.950 . S
H188 C175 0.951 . S
C189 C190 1.386 . S
C189 C191 1.383 . S
C189 H205 0.951 . S
C190 C189 1.386 . S
C190 C194 1.383 . S
C191 C189 1.383 . S
C191 C192 1.402 . S
C191 H206 0.951 . S
C192 C191 1.402 . S
C192 C193 1.375 . S
C192 C195 1.481 . S
C193 C192 1.375 . S
C193 C194 1.367 . S
C193 H207 0.951 . S
C194 C190 1.383 . S
C194 C193 1.367 . S
C194 H208 0.950 . S
C195 C192 1.481 . S
C195 C196 1.297 . S
C195 H209 0.950 . S
C196 C195 1.297 . S
C196 C197 1.479 . S
C196 H210 0.950 . S
C197 C196 1.479 . S
C197 C198 1.375 . S
C197 C203 1.404 . S
C198 C197 1.375 . S
C198 C199 1.369 . S
C198 H211 0.950 . S
C199 C198 1.369 . S
C199 C200 1.392 . S
C199 H212 0.951 . S
C200 C199 1.392 . S
C200 C202 1.384 . S
H201 C203 0.949 . S
C202 C200 1.384 . S
C202 C203 1.385 . S
C202 H204 0.950 . S
C203 C197 1.404 . S
C203 H201 0.949 . S
C203 C202 1.385 . S
H204 C202 0.950 . S
H205 C189 0.951 . S
H206 C191 0.951 . S
H207 C193 0.951 . S
H208 C194 0.950 . S
H209 C195 0.950 . S
H210 C196 0.950 . S
H211 C198 0.950 . S
H212 C199 0.951 . S
C213 C214 1.386 . S
C213 C215 1.383 . S
C213 H229 0.951 . S
C214 C213 1.386 . S
C214 C218 1.383 1_455 S
C215 C213 1.383 . S
C215 C216 1.402 . S
C215 H230 0.951 . S
C216 C215 1.402 . S
C216 C217 1.375 1_455 S
C216 C219 1.481 1_455 S
C217 C216 1.375 1_655 S
C217 C218 1.367 . S
C217 H231 0.951 . S
C218 C214 1.383 1_655 S
C218 C217 1.367 . S
C218 H232 0.950 . S
C219 C216 1.481 1_655 S
C219 C220 1.297 1_655 S
C219 H233 0.950 . S
C220 C219 1.297 1_455 S
C220 C221 1.479 . S
C220 H234 0.950 . S
C221 C220 1.479 . S
C221 C222 1.375 . S
C221 C227 1.404 1_455 S
C222 C221 1.375 . S
C222 C223 1.369 . S
C222 H235 0.950 . S
C223 C222 1.369 . S
C223 C224 1.392 . S
C223 H236 0.951 . S
C224 C223 1.392 . S
C224 C226 1.384 1_455 S
H225 C227 0.949 . S
C226 C224 1.384 1_655 S
C226 C227 1.385 . S
C226 H228 0.950 . S
C227 C221 1.404 1_655 S
C227 H225 0.949 . S
C227 C226 1.385 . S
H228 C226 0.950 . S
H229 C213 0.951 . S
H230 C215 0.951 . S
H231 C217 0.951 . S
H232 C218 0.950 . S
H233 C219 0.950 . S
H234 C220 0.950 . S
H235 C222 0.950 . S
H236 C223 0.951 . S
C237 C238 1.386 . S
C237 C239 1.383 . S
C237 H253 0.951 . S
C238 C237 1.386 . S
C238 C242 1.383 . S
C239 C237 1.383 . S
C239 C240 1.402 . S
C239 H254 0.951 . S
C240 C239 1.402 . S
C240 C241 1.375 1_545 S
C240 C243 1.481 . S
C241 C240 1.375 1_565 S
C241 C242 1.367 1_565 S
C241 H255 0.951 . S
C242 C238 1.383 . S
C242 C241 1.367 1_545 S
C242 H256 0.950 1_545 S
C243 C240 1.481 . S
C243 C244 1.297 1_554 S
C243 H257 0.950 1_545 S
C244 C243 1.297 1_556 S
C244 C245 1.479 . S
C244 H258 0.950 . S
C245 C244 1.479 . S
C245 C246 1.375 . S
C245 C251 1.404 1_545 S
C246 C245 1.375 . S
C246 C247 1.369 . S
C246 H259 0.950 . S
C247 C246 1.369 . S
C247 C248 1.392 . S
C247 H260 0.951 . S
C248 C247 1.392 . S
C248 C250 1.384 1_545 S
H249 C251 0.949 . S
C250 C248 1.384 1_565 S
C250 C251 1.385 . S
C250 H252 0.950 . S
C251 C245 1.404 1_565 S
C251 H249 0.949 . S
C251 C250 1.385 . S
H252 C250 0.950 . S
H253 C237 0.951 . S
H254 C239 0.951 . S
H255 C241 0.951 . S
H256 C242 0.950 1_565 S
H257 C243 0.950 1_565 S
H258 C244 0.950 . S
H259 C246 0.950 . S
H260 C247 0.951 . S
C261 C262 1.386 . S
C261 C263 1.383 . S
C261 H277 0.951 . S
C262 C261 1.386 . S
C262 C266 1.383 . S
C263 C261 1.383 . S
C263 C264 1.402 . S
C263 H278 0.951 . S
C264 C263 1.402 . S
C264 C265 1.375 . S
C264 C267 1.481 . S
C265 C264 1.375 . S
C265 C266 1.367 . S
C265 H279 0.951 . S
C266 C262 1.383 . S
C266 C265 1.367 . S
C266 H280 0.950 . S
C267 C264 1.481 . S
C267 C268 1.297 . S
C267 H281 0.950 . S
C268 C267 1.297 . S
C268 C269 1.479 . S
C268 H282 0.950 . S
C269 C268 1.479 . S
C269 C270 1.375 . S
C269 C275 1.404 . S
C270 C269 1.375 . S
C270 C271 1.369 . S
C270 H283 0.950 . S
C271 C270 1.369 . S
C271 C272 1.392 . S
C271 H284 0.951 . S
C272 C271 1.392 . S
C272 C274 1.384 . S
H273 C275 0.949 . S
C274 C272 1.384 . S
C274 C275 1.385 . S
C274 H276 0.950 . S
C275 C269 1.404 . S
C275 H273 0.949 . S
C275 C274 1.385 . S
H276 C274 0.950 . S
H277 C261 0.951 . S
H278 C263 0.951 . S
H279 C265 0.951 . S
H280 C266 0.950 . S
H281 C267 0.950 . S
H282 C268 0.950 . S
H283 C270 0.950 . S
H284 C271 0.951 . S
C70 C18 1.358 . S
C80 C65 1.333 . S
C94 C41 1.335 . S
C104 C20 1.315 . S
C118 C43 1.280 . S
C128 C64 1.292 . S
C142 C66 1.214 . S
C152 C21 1.263 . S
C166 C44 1.282 . S
C176 C19 1.267 . S
C190 C67 1.328 . S
C200 C42 1.326 . S
C214 C16 0.892 . S
C224 C17 0.870 . S
C238 C39 0.886 . S
C248 C40 0.878 . S
C262 C62 0.891 . S
C272 C63 0.871 . S
