# Generated by pormake.
# Topology wgr, (5)-cn, num edge types: 1
# Building blocks:
#     Node 0, Type 0, BuildingBlock: BEQFEK_clean_sbu_0, # of connection points: 5
#     Node 1, Type 0, BuildingBlock: BEQFEK_clean_sbu_0, # of connection points: 5
#     Node 2, Type 0, BuildingBlock: BEQFEK_clean_sbu_0, # of connection points: 5
#     Node 3, Type 0, BuildingBlock: BEQFEK_clean_sbu_0, # of connection points: 5
#     Node 4, Type 0, BuildingBlock: BEQFEK_clean_sbu_0, # of connection points: 5
#     Node 5, Type 0, BuildingBlock: BEQFEK_clean_sbu_0, # of connection points: 5
#     Node 6, Type 0, BuildingBlock: BEQFEK_clean_sbu_0, # of connection points: 5
#     Node 7, Type 0, BuildingBlock: BEQFEK_clean_sbu_0, # of connection points: 5
#     Node 8, Type 0, BuildingBlock: BEQFEK_clean_sbu_0, # of connection points: 5
#     Node 9, Type 0, BuildingBlock: BEQFEK_clean_sbu_0, # of connection points: 5
#     Node 10, Type 0, BuildingBlock: BEQFEK_clean_sbu_0, # of connection points: 5
#     Node 11, Type 0, BuildingBlock: BEQFEK_clean_sbu_0, # of connection points: 5
#     Node 12, Type 0, BuildingBlock: BEQFEK_clean_sbu_0, # of connection points: 5
#     Node 13, Type 0, BuildingBlock: BEQFEK_clean_sbu_0, # of connection points: 5
#     Node 14, Type 0, BuildingBlock: BEQFEK_clean_sbu_0, # of connection points: 5
#     Node 15, Type 0, BuildingBlock: BEQFEK_clean_sbu_0, # of connection points: 5
#     Node 16, Type 0, BuildingBlock: BEQFEK_clean_sbu_0, # of connection points: 5
#     Node 17, Type 0, BuildingBlock: BEQFEK_clean_sbu_0, # of connection points: 5
#     Node 18, Type 0, BuildingBlock: BEQFEK_clean_sbu_0, # of connection points: 5
#     Node 19, Type 0, BuildingBlock: BEQFEK_clean_sbu_0, # of connection points: 5
#     Node 20, Type 0, BuildingBlock: BEQFEK_clean_sbu_0, # of connection points: 5
#     Node 21, Type 0, BuildingBlock: BEQFEK_clean_sbu_0, # of connection points: 5
#     Node 22, Type 0, BuildingBlock: BEQFEK_clean_sbu_0, # of connection points: 5
#     Node 23, Type 0, BuildingBlock: BEQFEK_clean_sbu_0, # of connection points: 5
#     Node 24, Type 0, BuildingBlock: BEQFEK_clean_sbu_0, # of connection points: 5
#     Node 25, Type 0, BuildingBlock: BEQFEK_clean_sbu_0, # of connection points: 5
#     Node 26, Type 0, BuildingBlock: BEQFEK_clean_sbu_0, # of connection points: 5
#     Node 27, Type 0, BuildingBlock: BEQFEK_clean_sbu_0, # of connection points: 5
#     Node 28, Type 0, BuildingBlock: BEQFEK_clean_sbu_0, # of connection points: 5
#     Node 29, Type 0, BuildingBlock: BEQFEK_clean_sbu_0, # of connection points: 5
#     Node 30, Type 0, BuildingBlock: BEQFEK_clean_sbu_0, # of connection points: 5
#     Node 31, Type 0, BuildingBlock: BEQFEK_clean_sbu_0, # of connection points: 5
#     Edge 32, Type (0, 0), BuildingBlock: OJICUG_clean_linker_0, # of connection points: 2
#     Edge 33, Type (0, 0), BuildingBlock: OJICUG_clean_linker_0, # of connection points: 2
#     Edge 34, Type (0, 0), BuildingBlock: OJICUG_clean_linker_0, # of connection points: 2
#     Edge 35, Type (0, 0), BuildingBlock: OJICUG_clean_linker_0, # of connection points: 2
#     Edge 36, Type (0, 0), BuildingBlock: OJICUG_clean_linker_0, # of connection points: 2
#     Edge 37, Type (0, 0), BuildingBlock: OJICUG_clean_linker_0, # of connection points: 2
#     Edge 38, Type (0, 0), BuildingBlock: OJICUG_clean_linker_0, # of connection points: 2
#     Edge 39, Type (0, 0), BuildingBlock: OJICUG_clean_linker_0, # of connection points: 2
#     Edge 40, Type (0, 0), BuildingBlock: OJICUG_clean_linker_0, # of connection points: 2
#     Edge 41, Type (0, 0), BuildingBlock: OJICUG_clean_linker_0, # of connection points: 2
#     Edge 42, Type (0, 0), BuildingBlock: OJICUG_clean_linker_0, # of connection points: 2
#     Edge 43, Type (0, 0), BuildingBlock: OJICUG_clean_linker_0, # of connection points: 2
#     Edge 44, Type (0, 0), BuildingBlock: OJICUG_clean_linker_0, # of connection points: 2
#     Edge 45, Type (0, 0), BuildingBlock: OJICUG_clean_linker_0, # of connection points: 2
#     Edge 46, Type (0, 0), BuildingBlock: OJICUG_clean_linker_0, # of connection points: 2
#     Edge 47, Type (0, 0), BuildingBlock: OJICUG_clean_linker_0, # of connection points: 2
#     Edge 48, Type (0, 0), BuildingBlock: OJICUG_clean_linker_0, # of connection points: 2
#     Edge 49, Type (0, 0), BuildingBlock: OJICUG_clean_linker_0, # of connection points: 2
#     Edge 50, Type (0, 0), BuildingBlock: OJICUG_clean_linker_0, # of connection points: 2
#     Edge 51, Type (0, 0), BuildingBlock: OJICUG_clean_linker_0, # of connection points: 2
#     Edge 52, Type (0, 0), BuildingBlock: OJICUG_clean_linker_0, # of connection points: 2
#     Edge 53, Type (0, 0), BuildingBlock: OJICUG_clean_linker_0, # of connection points: 2
#     Edge 54, Type (0, 0), BuildingBlock: OJICUG_clean_linker_0, # of connection points: 2
#     Edge 55, Type (0, 0), BuildingBlock: OJICUG_clean_linker_0, # of connection points: 2
#     Edge 56, Type (0, 0), BuildingBlock: OJICUG_clean_linker_0, # of connection points: 2
#     Edge 57, Type (0, 0), BuildingBlock: OJICUG_clean_linker_0, # of connection points: 2
#     Edge 58, Type (0, 0), BuildingBlock: OJICUG_clean_linker_0, # of connection points: 2
#     Edge 59, Type (0, 0), BuildingBlock: OJICUG_clean_linker_0, # of connection points: 2
#     Edge 60, Type (0, 0), BuildingBlock: OJICUG_clean_linker_0, # of connection points: 2
#     Edge 61, Type (0, 0), BuildingBlock: OJICUG_clean_linker_0, # of connection points: 2
#     Edge 62, Type (0, 0), BuildingBlock: OJICUG_clean_linker_0, # of connection points: 2
#     Edge 63, Type (0, 0), BuildingBlock: OJICUG_clean_linker_0, # of connection points: 2
#     Edge 64, Type (0, 0), BuildingBlock: OJICUG_clean_linker_0, # of connection points: 2
#     Edge 65, Type (0, 0), BuildingBlock: OJICUG_clean_linker_0, # of connection points: 2
#     Edge 66, Type (0, 0), BuildingBlock: OJICUG_clean_linker_0, # of connection points: 2
#     Edge 67, Type (0, 0), BuildingBlock: OJICUG_clean_linker_0, # of connection points: 2
#     Edge 68, Type (0, 0), BuildingBlock: OJICUG_clean_linker_0, # of connection points: 2
#     Edge 69, Type (0, 0), BuildingBlock: OJICUG_clean_linker_0, # of connection points: 2
#     Edge 70, Type (0, 0), BuildingBlock: OJICUG_clean_linker_0, # of connection points: 2
#     Edge 71, Type (0, 0), BuildingBlock: OJICUG_clean_linker_0, # of connection points: 2
#     Edge 72, Type (0, 0), BuildingBlock: OJICUG_clean_linker_0, # of connection points: 2
#     Edge 73, Type (0, 0), BuildingBlock: OJICUG_clean_linker_0, # of connection points: 2
#     Edge 74, Type (0, 0), BuildingBlock: OJICUG_clean_linker_0, # of connection points: 2
#     Edge 75, Type (0, 0), BuildingBlock: OJICUG_clean_linker_0, # of connection points: 2
#     Edge 76, Type (0, 0), BuildingBlock: OJICUG_clean_linker_0, # of connection points: 2
#     Edge 77, Type (0, 0), BuildingBlock: OJICUG_clean_linker_0, # of connection points: 2
#     Edge 78, Type (0, 0), BuildingBlock: OJICUG_clean_linker_0, # of connection points: 2
#     Edge 79, Type (0, 0), BuildingBlock: OJICUG_clean_linker_0, # of connection points: 2
#     Edge 80, Type (0, 0), BuildingBlock: OJICUG_clean_linker_0, # of connection points: 2
#     Edge 81, Type (0, 0), BuildingBlock: OJICUG_clean_linker_0, # of connection points: 2
#     Edge 82, Type (0, 0), BuildingBlock: OJICUG_clean_linker_0, # of connection points: 2
#     Edge 83, Type (0, 0), BuildingBlock: OJICUG_clean_linker_0, # of connection points: 2
#     Edge 84, Type (0, 0), BuildingBlock: OJICUG_clean_linker_0, # of connection points: 2
#     Edge 85, Type (0, 0), BuildingBlock: OJICUG_clean_linker_0, # of connection points: 2
#     Edge 86, Type (0, 0), BuildingBlock: OJICUG_clean_linker_0, # of connection points: 2
#     Edge 87, Type (0, 0), BuildingBlock: OJICUG_clean_linker_0, # of connection points: 2
#     Edge 88, Type (0, 0), BuildingBlock: OJICUG_clean_linker_0, # of connection points: 2
#     Edge 89, Type (0, 0), BuildingBlock: OJICUG_clean_linker_0, # of connection points: 2
#     Edge 90, Type (0, 0), BuildingBlock: OJICUG_clean_linker_0, # of connection points: 2
#     Edge 91, Type (0, 0), BuildingBlock: OJICUG_clean_linker_0, # of connection points: 2
#     Edge 92, Type (0, 0), BuildingBlock: OJICUG_clean_linker_0, # of connection points: 2
#     Edge 93, Type (0, 0), BuildingBlock: OJICUG_clean_linker_0, # of connection points: 2
#     Edge 94, Type (0, 0), BuildingBlock: OJICUG_clean_linker_0, # of connection points: 2
#     Edge 95, Type (0, 0), BuildingBlock: OJICUG_clean_linker_0, # of connection points: 2
#     Edge 96, Type (0, 0), BuildingBlock: OJICUG_clean_linker_0, # of connection points: 2
#     Edge 97, Type (0, 0), BuildingBlock: OJICUG_clean_linker_0, # of connection points: 2
#     Edge 98, Type (0, 0), BuildingBlock: OJICUG_clean_linker_0, # of connection points: 2
#     Edge 99, Type (0, 0), BuildingBlock: OJICUG_clean_linker_0, # of connection points: 2
#     Edge 100, Type (0, 0), BuildingBlock: OJICUG_clean_linker_0, # of connection points: 2
#     Edge 101, Type (0, 0), BuildingBlock: OJICUG_clean_linker_0, # of connection points: 2
#     Edge 102, Type (0, 0), BuildingBlock: OJICUG_clean_linker_0, # of connection points: 2
#     Edge 103, Type (0, 0), BuildingBlock: OJICUG_clean_linker_0, # of connection points: 2
#     Edge 104, Type (0, 0), BuildingBlock: OJICUG_clean_linker_0, # of connection points: 2
#     Edge 105, Type (0, 0), BuildingBlock: OJICUG_clean_linker_0, # of connection points: 2
#     Edge 106, Type (0, 0), BuildingBlock: OJICUG_clean_linker_0, # of connection points: 2
#     Edge 107, Type (0, 0), BuildingBlock: OJICUG_clean_linker_0, # of connection points: 2
#     Edge 108, Type (0, 0), BuildingBlock: OJICUG_clean_linker_0, # of connection points: 2
#     Edge 109, Type (0, 0), BuildingBlock: OJICUG_clean_linker_0, # of connection points: 2
#     Edge 110, Type (0, 0), BuildingBlock: OJICUG_clean_linker_0, # of connection points: 2
#     Edge 111, Type (0, 0), BuildingBlock: OJICUG_clean_linker_0, # of connection points: 2
# Relax obj value: 0.154
# Max RMSD: 0.221
# Mean RMSD: 0.221
data_MOF--net-wgr--node1-BEQFEK_clean_sbu_0--edge1-OJICUG_clean_linker_0
_symmetry_space_group_name_H-M    P1
_symmetry_Int_Tables_number       1
_symmetry_cell_setting            triclinic
loop_
_symmetry_equiv_pos_as_xyz
'x, y, z'
_cell_length_a     20.509435
_cell_length_b     20.527766
_cell_length_c     122.05897
_cell_angle_alpha  90.016495
_cell_angle_beta   89.976771
_cell_angle_gamma 90.032871
loop_
_atom_site_label
_atom_site_type_symbol
_atom_site_fract_x
_atom_site_fract_y
_atom_site_fract_z
_atom_type_partial_charge
Co0 Co 0.3421 0.03331 0.20904 0.0
Co1 Co 0.34139 0.04331 0.18317 0.0
C2 C 0.23345 0.09834 0.19699 0.0
O3 O 0.26067 0.07783 0.20567 0.0
O4 O 0.2572 0.08586 0.18755 0.0
C5 C 0.29528 0.02267 0.23112 0.0
O6 O 0.23969 0.03878 0.22653 0.0
C7 C 0.3015 0.0131 0.16037 0.0
C8 C 0.38763 0.04733 0.15114 0.0
C9 C 0.32698 0.01859 0.14982 0.0
N10 N 0.34553 0.03685 0.16752 0.0
N11 N 0.3967 0.05745 0.16192 0.0
C12 C 0.23544 0.98883 0.16363 0.0
H13 H 0.22092 0.00931 0.17166 0.0
H14 H 0.23668 0.93504 0.16442 0.0
H15 H 0.19871 0.00181 0.15732 0.0
C16 C 0.35142 0.89268 0.20347 0.0
N17 N 0.35078 0.95612 0.20063 0.0
N18 N 0.35704 0.96105 0.18995 0.0
C19 C 0.36732 0.90128 0.18574 0.0
C20 C 0.36247 0.85508 0.19411 0.0
C21 C 0.33238 0.86909 0.21463 0.0
H22 H 0.30294 0.90632 0.21893 0.0
H23 H 0.30298 0.82385 0.21413 0.0
H24 H 0.37701 0.85923 0.21949 0.0
O25 O 0.41046 0.09988 0.20577 0.0
O26 O 0.40762 0.10654 0.18761 0.0
H27 H 0.41807 0.92949 0.17111 0.0
H28 H 0.41257 0.84253 0.17317 0.0
C29 C 0.38623 0.88947 0.17405 0.0
H30 H 0.342 0.88831 0.16886 0.0
H31 H 0.43804 0.07827 0.16547 0.0
O32 O 0.34567 0.01592 0.22513 0.0
C33 C 0.42923 0.12592 0.19682 0.0
Co34 Co 0.21111 0.10324 0.4587 0.0
Co35 Co 0.21136 0.08533 0.43309 0.0
C36 C 0.15114 0.98597 0.44668 0.0
O37 O 0.16503 0.02114 0.45497 0.0
O38 O 0.17112 0.00122 0.43713 0.0
C39 C 0.22947 0.05318 0.4803 0.0
O40 O 0.22668 0.99711 0.47513 0.0
C41 C 0.22952 0.04596 0.40988 0.0
C42 C 0.23865 0.14245 0.40198 0.0
C43 C 0.23954 0.07625 0.39984 0.0
N44 N 0.22378 0.09238 0.41761 0.0
N45 N 0.22881 0.14984 0.41281 0.0
C46 C 0.22227 0.97455 0.41207 0.0
H47 H 0.26288 0.95766 0.41735 0.0
H48 H 0.22142 0.94576 0.40438 0.0
H49 H 0.17616 0.96587 0.41658 0.0
C50 C 0.3504 0.1249 0.45484 0.0
N51 N 0.28989 0.11357 0.4511 0.0
N52 N 0.2921 0.10022 0.44059 0.0
C53 C 0.35517 0.09889 0.43741 0.0
C54 C 0.39481 0.11475 0.44636 0.0
C55 C 0.36434 0.14606 0.46635 0.0
H56 H 0.32595 0.18029 0.46916 0.0
H57 H 0.3633 0.103 0.47184 0.0
H58 H 0.41262 0.17026 0.46695 0.0
O59 O 0.14923 0.17041 0.45474 0.0
O60 O 0.14252 0.15123 0.43686 0.0
H61 H 0.38439 0.11612 0.42086 0.0
H62 H 0.423 0.04641 0.4271 0.0
C63 C 0.37685 0.07422 0.42646 0.0
H64 H 0.33938 0.04182 0.42291 0.0
H65 H 0.22613 0.19423 0.41696 0.0
O66 O 0.22485 0.10567 0.47482 0.0
C67 C 0.12258 0.1802 0.44548 0.0
Co68 Co 0.15464 0.95485 0.70787 0.0
Co69 Co 0.15073 0.96171 0.68203 0.0
C70 C 0.26125 0.89877 0.69347 0.0
O71 O 0.23737 0.91109 0.70292 0.0
O72 O 0.23427 0.91959 0.68477 0.0
C73 C 0.20808 0.97226 0.7296 0.0
O74 O 0.26426 0.97076 0.72444 0.0
C75 C 0.1863 0.98327 0.65892 0.0
C76 C 0.08953 0.99576 0.65124 0.0
C77 C 0.15572 0.99562 0.64901 0.0
N78 N 0.1402 0.97719 0.6667 0.0
N79 N 0.08249 0.9842 0.66204 0.0
C80 C 0.25773 0.97439 0.66098 0.0
H81 H 0.26644 0.92376 0.66379 0.0
H82 H 0.27373 0.00753 0.66765 0.0
H83 H 0.28734 0.98301 0.65353 0.0
C84 C 0.12868 0.0955 0.70507 0.0
N85 N 0.13778 0.03564 0.70087 0.0
N86 N 0.1424 0.03993 0.69017 0.0
C87 C 0.1413 0.10329 0.68726 0.0
C88 C 0.132 0.14135 0.69663 0.0
C89 C 0.11502 0.10744 0.71696 0.0
H90 H 0.08266 0.06856 0.72018 0.0
H91 H 0.16137 0.10563 0.72163 0.0
H92 H 0.09123 0.1554 0.71824 0.0
O93 O 0.08698 0.89142 0.70435 0.0
O94 O 0.08512 0.89445 0.68615 0.0
H95 H 0.11389 0.1334 0.67112 0.0
H96 H 0.18636 0.17306 0.67628 0.0
C97 C 0.15899 0.12655 0.67601 0.0
H98 H 0.19026 0.09042 0.67186 0.0
H99 H 0.03827 0.9817 0.66625 0.0
O100 O 0.15569 0.96626 0.72412 0.0
C101 C 0.0661 0.87008 0.69521 0.0
Co102 Co 0.28618 0.89117 0.95848 0.0
Co103 Co 0.28592 0.90938 0.93277 0.0
C104 C 0.34706 0.00806 0.94649 0.0
O105 O 0.3328 0.97309 0.95479 0.0
O106 O 0.32715 0.99291 0.93693 0.0
C107 C 0.26393 0.94116 0.97998 0.0
O108 O 0.26274 0.99666 0.97463 0.0
C109 C 0.26731 0.94909 0.90946 0.0
C110 C 0.25863 0.85248 0.90159 0.0
C111 C 0.25746 0.91862 0.89941 0.0
N112 N 0.27323 0.90281 0.91723 0.0
N113 N 0.2684 0.84529 0.91242 0.0
C114 C 0.2742 0.0206 0.91159 0.0
H115 H 0.23126 0.03826 0.91625 0.0
H116 H 0.27869 0.04863 0.90386 0.0
H117 H 0.31807 0.02948 0.91668 0.0
C118 C 0.14664 0.87152 0.95463 0.0
N119 N 0.20731 0.88179 0.95086 0.0
N120 N 0.20518 0.89513 0.94035 0.0
C121 C 0.14208 0.89745 0.9372 0.0
C122 C 0.10232 0.88238 0.94618 0.0
C123 C 0.13233 0.85085 0.96615 0.0
H124 H 0.17012 0.81603 0.96897 0.0
H125 H 0.13402 0.894 0.97161 0.0
H126 H 0.08362 0.82752 0.96676 0.0
O127 O 0.34762 0.82372 0.95439 0.0
O128 O 0.35429 0.84277 0.9365 0.0
H129 H 0.11263 0.88052 0.92065 0.0
H130 H 0.07473 0.95062 0.92691 0.0
C131 C 0.1206 0.92234 0.92626 0.0
H132 H 0.1584 0.95435 0.92272 0.0
H133 H 0.27128 0.80096 0.91658 0.0
O134 O 0.27247 0.88858 0.97466 0.0
C135 C 0.37412 0.81369 0.94512 0.0
Co136 Co 0.35885 0.95985 0.29896 0.0
Co137 Co 0.33853 0.96018 0.32447 0.0
C138 C 0.24099 0.89875 0.31073 0.0
O139 O 0.27708 0.91281 0.30256 0.0
O140 O 0.25484 0.91915 0.32031 0.0
C141 C 0.30748 0.98973 0.27814 0.0
O142 O 0.25489 -0.00123 0.2841 0.0
C143 C 0.29839 0.97822 0.34767 0.0
C144 C 0.39479 0.98802 0.3556 0.0
C145 C 0.3285 0.98846 0.35772 0.0
N146 N 0.345 0.97276 0.33995 0.0
N147 N 0.40241 0.97821 0.34478 0.0
C148 C 0.22699 0.97048 0.34546 0.0
H149 H 0.20963 0.01159 0.34034 0.0
H150 H 0.19825 0.96837 0.35315 0.0
H151 H 0.21873 0.92495 0.34077 0.0
C152 C 0.37918 0.09921 0.30279 0.0
N153 N 0.36781 0.03874 0.30652 0.0
N154 N 0.35321 0.041 0.31698 0.0
C155 C 0.35101 0.10406 0.32012 0.0
C156 C 0.36759 0.14362 0.3112 0.0
C157 C 0.40223 0.11323 0.29138 0.0
H158 H 0.43604 0.07432 0.28864 0.0
H159 H 0.35993 0.1136 0.28573 0.0
H160 H 0.42743 0.16104 0.29096 0.0
O161 O 0.42673 0.89923 0.303 0.0
O162 O 0.40522 0.89182 0.3208 0.0
H163 H 0.3666 0.13421 0.33667 0.0
H164 H 0.29673 0.17143 0.33023 0.0
C165 C 0.32519 0.12575 0.331 0.0
H166 H 0.29312 0.08794 0.33452 0.0
H167 H 0.44691 0.97581 0.34065 0.0
O168 O 0.36019 0.97345 0.28288 0.0
C169 C 0.4355 0.87239 0.31227 0.0
Co170 Co 0.28313 0.10987 0.54858 0.0
Co171 Co 0.28314 0.09104 0.57413 0.0
C172 C 0.34411 0.99264 0.56052 0.0
O173 O 0.33005 0.02808 0.55227 0.0
O174 O 0.32373 0.00716 0.57008 0.0
C175 C 0.25611 0.05862 0.52749 0.0
O176 O 0.25017 0.00457 0.53316 0.0
C177 C 0.26329 0.05301 0.59739 0.0
C178 C 0.25107 0.15011 0.60496 0.0
C179 C 0.25054 0.08412 0.60727 0.0
N180 N 0.26996 0.09875 0.58957 0.0
N181 N 0.26321 0.15659 0.59419 0.0
C182 C 0.27149 0.98143 0.59546 0.0
H183 H 0.31564 0.97282 0.59043 0.0
H184 H 0.22897 0.96244 0.59085 0.0
H185 H 0.27625 0.95434 0.60329 0.0
C186 C 0.14339 0.13029 0.55251 0.0
N187 N 0.20417 0.11936 0.55618 0.0
N188 N 0.20235 0.10543 0.56666 0.0
C189 C 0.13943 0.10326 0.5699 0.0
C190 C 0.09935 0.11928 0.56102 0.0
C191 C 0.12877 0.1519 0.54106 0.0
H192 H 0.1673 0.18582 0.53818 0.0
H193 H 0.12879 0.109 0.53553 0.0
H194 H 0.08066 0.1765 0.5406 0.0
O195 O 0.34467 0.17755 0.55254 0.0
O196 O 0.35187 0.15706 0.57037 0.0
H197 H 0.11189 0.11849 0.5866 0.0
H198 H 0.07199 0.0499 0.58019 0.0
C199 C 0.11841 0.07732 0.58081 0.0
H200 H 0.15586 0.04409 0.5841 0.0
H201 H 0.26582 0.20059 0.58992 0.0
O202 O 0.26928 0.11133 0.53249 0.0
C203 C 0.37163 0.18665 0.5618 0.0
Co204 Co 0.14806 0.0354 0.7979 0.0
Co205 Co 0.16393 0.03476 0.82368 0.0
C206 C 0.26407 0.09575 0.81021 0.0
O207 O 0.22994 0.08154 0.8018 0.0
O208 O 0.2478 0.07597 0.81972 0.0
C209 C 0.20097 0.00868 0.77672 0.0
O210 O 0.25515 0.0047 0.78242 0.0
C211 C 0.20239 0.01606 0.84702 0.0
C212 C 0.10539 0.00725 0.85478 0.0
C213 C 0.17152 0.00611 0.85703 0.0
N214 N 0.15637 0.02201 0.83921 0.0
N215 N 0.09861 0.01713 0.84394 0.0
C216 C 0.27401 0.0231 0.84495 0.0
H217 H 0.29148 0.98152 0.83995 0.0
H218 H 0.30212 0.02542 0.8527 0.0
H219 H 0.28305 0.06826 0.84021 0.0
C220 C 0.1271 0.89592 0.80174 0.0
N221 N 0.13763 0.95651 0.80552 0.0
N222 N 0.15016 0.95428 0.81606 0.0
C223 C 0.15172 0.89126 0.81922 0.0
C224 C 0.13694 0.8516 0.81023 0.0
C225 C 0.10688 0.88168 0.7902 0.0
H226 H 0.07303 0.92004 0.78727 0.0
H227 H 0.15046 0.8822 0.78482 0.0
H228 H 0.08259 0.83347 0.7896 0.0
O229 O 0.08034 0.0975 0.80185 0.0
O230 O 0.09739 0.10271 0.81982 0.0
H231 H 0.13321 0.86231 0.83575 0.0
H232 H 0.20341 0.82357 0.82966 0.0
C233 C 0.17556 0.8697 0.83023 0.0
H234 H 0.20777 0.90715 0.83382 0.0
H235 H 0.0544 0.02001 0.83974 0.0
O236 O 0.14785 0.02101 0.7817 0.0
C237 C 0.06918 0.12317 0.81116 0.0
Co238 Co 0.21226 0.89099 0.04867 0.0
Co239 Co 0.21249 0.91065 0.07436 0.0
C240 C 0.1515 0.0086 0.0605 0.0
O241 O 0.1658 0.97313 0.05226 0.0
O242 O 0.17117 0.99394 0.0701 0.0
C243 C 0.23582 0.94052 0.02723 0.0
O244 O 0.2384 0.99578 0.03265 0.0
C245 C 0.22964 0.95021 0.09775 0.0
C246 C 0.25046 0.85448 0.10524 0.0
C247 C 0.24517 0.9202 0.10764 0.0
N248 N 0.22698 0.90422 0.08988 0.0
N249 N 0.23899 0.84718 0.09446 0.0
C250 C 0.21501 0.02072 0.09583 0.0
H251 H 0.25767 0.04423 0.09187 0.0
H252 H 0.20366 0.04631 0.1036 0.0
H253 H 0.17279 0.02547 0.09023 0.0
C254 C 0.35207 0.8727 0.05258 0.0
N255 N 0.29118 0.8824 0.0563 0.0
N256 N 0.293 0.89677 0.06677 0.0
C257 C 0.35594 0.90057 0.06994 0.0
C258 C 0.39607 0.88505 0.06103 0.0
C259 C 0.36686 0.8514 0.04111 0.0
H260 H 0.32919 0.81639 0.03829 0.0
H261 H 0.36544 0.89425 0.03558 0.0
H262 H 0.4156 0.82812 0.04059 0.0
O263 O 0.15069 0.82376 0.05289 0.0
O264 O 0.14411 0.84366 0.07076 0.0
H265 H 0.38365 0.88743 0.08667 0.0
H266 H 0.42278 0.95573 0.08006 0.0
C267 C 0.37662 0.92793 0.08077 0.0
H268 H 0.33864 0.96105 0.08399 0.0
H269 H 0.24024 0.80319 0.09018 0.0
O270 O 0.22596 0.88798 0.0325 0.0
C271 C 0.1242 0.81419 0.06218 0.0
Co272 Co 0.64396 0.9605 0.7988 0.0
Co273 Co 0.66195 0.96047 0.82437 0.0
C274 C 0.76056 0.89899 0.81078 0.0
O275 O 0.72556 0.91337 0.8025 0.0
O276 O 0.74564 0.91918 0.82033 0.0
C277 C 0.69529 0.98859 0.77772 0.0
O278 O 0.74937 0.99495 0.78339 0.0
C279 C 0.70109 0.9786 0.8476 0.0
C280 C 0.60439 0.98829 0.85545 0.0
C281 C 0.67061 0.98896 0.85762 0.0
N282 N 0.65475 0.97289 0.83985 0.0
N283 N 0.59717 0.97824 0.84463 0.0
C284 C 0.77258 0.97111 0.84545 0.0
H285 H 0.7899 0.01188 0.84025 0.0
H286 H 0.80114 0.96979 0.85316 0.0
H287 H 0.78116 0.92525 0.84088 0.0
C288 C 0.62345 0.09986 0.80267 0.0
N289 N 0.63446 0.0393 0.8064 0.0
N290 N 0.64806 0.04137 0.81689 0.0
C291 C 0.64999 0.10437 0.82007 0.0
C292 C 0.63425 0.14411 0.81114 0.0
C293 C 0.60153 0.11408 0.79122 0.0
H294 H 0.56755 0.07548 0.7884 0.0
H295 H 0.64433 0.114 0.78566 0.0
H296 H 0.57684 0.1621 0.79073 0.0
O297 O 0.57582 0.89957 0.80272 0.0
O298 O 0.59521 0.89243 0.82058 0.0
H299 H 0.63298 0.13402 0.83662 0.0
H300 H 0.70332 0.17162 0.83036 0.0
C301 C 0.67486 0.12586 0.83102 0.0
H302 H 0.70674 0.08809 0.83459 0.0
H303 H 0.55282 0.9757 0.84046 0.0
O304 O 0.64273 0.97458 0.78272 0.0
C305 C 0.56585 0.87292 0.81197 0.0
Co306 Co 0.7843 0.89619 0.54872 0.0
Co307 Co 0.78306 0.91231 0.57448 0.0
C308 C 0.84414 0.01255 0.56115 0.0
O309 O 0.82986 0.97812 0.55278 0.0
O310 O 0.82465 0.99652 0.57071 0.0
C311 C 0.76348 0.94717 0.52717 0.0
O312 O 0.76302 0.00283 0.53249 0.0
C313 C 0.76019 0.94471 0.59815 0.0
C314 C 0.74178 0.84565 0.60452 0.0
C315 C 0.74325 0.91058 0.60759 0.0
N316 N 0.76785 0.90159 0.5899 0.0
N317 N 0.75761 0.84256 0.59385 0.0
C318 C 0.7628 0.01704 0.59672 0.0
H319 H 0.75553 0.03039 0.588 0.0
H320 H 0.72518 0.04111 0.60185 0.0
H321 H 0.8114 0.0349 0.59935 0.0
C322 C 0.64462 0.8761 0.55238 0.0
N323 N 0.70524 0.88585 0.55621 0.0
N324 N 0.70285 0.89901 0.56673 0.0
C325 C 0.63971 0.90177 0.56983 0.0
C326 C 0.60012 0.88701 0.56082 0.0
C327 C 0.63053 0.85629 0.54082 0.0
H328 H 0.66836 0.82167 0.53793 0.0
H329 H 0.63234 0.89986 0.53545 0.0
H330 H 0.58182 0.83305 0.54013 0.0
O331 O 0.84612 0.8288 0.55268 0.0
O332 O 0.85203 0.84651 0.57061 0.0
H333 H 0.61238 0.88607 0.58652 0.0
H334 H 0.5714 0.954 0.58013 0.0
C335 C 0.61824 0.92736 0.58073 0.0
H336 H 0.6553 0.96118 0.58404 0.0
H337 H 0.75941 0.80014 0.58914 0.0
O338 O 0.77121 0.8946 0.53253 0.0
C339 C 0.87242 0.81828 0.56194 0.0
Co340 Co 0.85229 0.03544 0.29798 0.0
Co341 Co 0.83824 0.0357 0.32377 0.0
C342 C 0.73701 0.09581 0.31045 0.0
O343 O 0.77055 0.08145 0.30199 0.0
O344 O 0.75409 0.07647 0.31994 0.0
C345 C 0.79798 0.00809 0.27693 0.0
O346 O 0.74414 0.00426 0.28273 0.0
C347 C 0.79998 0.01779 0.3471 0.0
C348 C 0.89677 0.00809 0.35488 0.0
C349 C 0.83059 0.00755 0.35712 0.0
N350 N 0.84615 0.02331 0.3393 0.0
N351 N 0.9038 0.01791 0.34405 0.0
C352 C 0.72848 0.02555 0.345 0.0
H353 H 0.71121 0.98571 0.33959 0.0
H354 H 0.69986 0.0256 0.35271 0.0
H355 H 0.71992 0.07218 0.34065 0.0
C356 C 0.87355 0.8961 0.30192 0.0
N357 N 0.86336 0.95682 0.30566 0.0
N358 N 0.85144 0.95494 0.31622 0.0
C359 C 0.84986 0.89202 0.31944 0.0
C360 C 0.86405 0.85205 0.31046 0.0
C361 C 0.8931 0.88151 0.29035 0.0
H362 H 0.92683 0.91979 0.28733 0.0
H363 H 0.84923 0.88187 0.28504 0.0
H364 H 0.91731 0.83329 0.28975 0.0
O365 O 0.92018 0.09788 0.30171 0.0
O366 O 0.90463 0.10367 0.31971 0.0
H367 H 0.86894 0.86371 0.33598 0.0
H368 H 0.79848 0.8247 0.33001 0.0
C369 C 0.82639 0.87086 0.3305 0.0
H370 H 0.79432 0.90841 0.33409 0.0
H371 H 0.94809 0.02032 0.33985 0.0
O372 O 0.85142 0.02051 0.2818 0.0
C373 C 0.93211 0.12389 0.31096 0.0
Co374 Co 0.71257 0.10795 0.04839 0.0
Co375 Co 0.71369 0.09096 0.07402 0.0
C376 C 0.65192 0.99166 0.06061 0.0
O377 O 0.66583 0.02638 0.05227 0.0
O378 O 0.67249 0.007 0.07012 0.0
C379 C 0.73446 0.05646 0.02704 0.0
O380 O 0.73596 0.00128 0.03248 0.0
C381 C 0.73431 0.05356 0.09732 0.0
C382 C 0.74688 0.15082 0.10481 0.0
C383 C 0.74721 0.0849 0.10718 0.0
N384 N 0.72769 0.09912 0.08946 0.0
N385 N 0.73473 0.15705 0.09404 0.0
C386 C 0.72574 0.98197 0.09545 0.0
H387 H 0.68127 0.9734 0.0905 0.0
H388 H 0.76792 0.96281 0.09077 0.0
H389 H 0.72132 0.95502 0.10329 0.0
C390 C 0.85251 0.1275 0.05205 0.0
N391 N 0.79185 0.11763 0.05586 0.0
N392 N 0.79415 0.10472 0.06638 0.0
C393 C 0.85726 0.10233 0.06951 0.0
C394 C 0.89692 0.11695 0.0605 0.0
C395 C 0.86676 0.1472 0.04048 0.0
H396 H 0.82901 0.18184 0.03758 0.0
H397 H 0.86498 0.1036 0.03512 0.0
H398 H 0.91551 0.17038 0.0398 0.0
O399 O 0.65132 0.1758 0.05237 0.0
O400 O 0.64487 0.15691 0.07026 0.0
H401 H 0.88531 0.11917 0.08613 0.0
H402 H 0.92527 0.05021 0.07986 0.0
C403 C 0.87876 0.07745 0.08045 0.0
H404 H 0.8415 0.04437 0.08388 0.0
H405 H 0.73215 0.20095 0.08975 0.0
O406 O 0.72577 0.10934 0.03226 0.0
C407 C 0.62478 0.18573 0.06164 0.0
Co408 Co 0.64535 0.03683 0.7091 0.0
Co409 Co 0.65963 0.03594 0.68337 0.0
C410 C 0.76099 0.09641 0.69638 0.0
O411 O 0.72678 0.08255 0.70479 0.0
O412 O 0.74456 0.07655 0.68687 0.0
C413 C 0.69874 0.02034 0.73061 0.0
O414 O 0.75448 0.02612 0.7254 0.0
C415 C 0.69028 0.01418 0.65964 0.0
C416 C 0.59065 0.99788 0.65333 0.0
C417 C 0.65556 -0.00142 0.65019 0.0
N418 N 0.64752 0.02189 0.66795 0.0
N419 N 0.58814 0.01291 0.66404 0.0
C420 C 0.76276 0.01542 0.66101 0.0
H421 H 0.77628 0.00683 0.66969 0.0
H422 H 0.7861 0.9781 0.65573 0.0
H423 H 0.78134 0.06402 0.65854 0.0
C424 C 0.62348 0.89758 0.7054 0.0
N425 N 0.63385 0.95807 0.70158 0.0
N426 N 0.64645 0.95567 0.69105 0.0
C427 C 0.64817 0.89262 0.68791 0.0
C428 C 0.63336 0.85311 0.69692 0.0
C429 C 0.60395 0.88367 0.71699 0.0
H430 H 0.56977 0.9218 0.71991 0.0
H431 H 0.64776 0.88513 0.72231 0.0
H432 H 0.58023 0.83524 0.7177 0.0
O433 O 0.57717 0.09872 0.7056 0.0
O434 O 0.59466 0.10483 0.68766 0.0
H435 H 0.63064 0.86479 0.6713 0.0
H436 H 0.69951 0.82434 0.6775 0.0
C437 C 0.67261 0.87103 0.67694 0.0
H438 H 0.70589 0.90808 0.67348 0.0
H439 H 0.54587 0.01504 0.66879 0.0
O440 O 0.64582 0.02282 0.72521 0.0
C441 C 0.56656 0.12516 0.69636 0.0
Co442 Co 0.711 0.89429 0.45854 0.0
Co443 Co 0.71202 0.91248 0.43281 0.0
C444 C 0.65129 0.0115 0.44652 0.0
O445 O 0.66535 0.97649 0.45481 0.0
O446 O 0.67112 0.99621 0.43696 0.0
C447 C 0.73464 0.94498 0.47994 0.0
O448 O 0.73742 -0.0 0.47446 0.0
C449 C 0.73236 0.95187 0.40948 0.0
C450 C 0.73955 0.85502 0.40167 0.0
C451 C 0.74216 0.9211 0.39946 0.0
N452 N 0.72515 0.90581 0.41726 0.0
N453 N 0.7291 0.84816 0.41249 0.0
C454 C 0.72696 0.02356 0.41157 0.0
H455 H 0.6847 0.03334 0.41698 0.0
H456 H 0.77145 0.04094 0.41583 0.0
H457 H 0.72079 0.05117 0.40383 0.0
C458 C 0.85018 0.87234 0.45473 0.0
N459 N 0.78983 0.88397 0.45094 0.0
N460 N 0.79241 0.89744 0.44044 0.0
C461 C 0.85559 0.89854 0.43732 0.0
C462 C 0.89487 0.88244 0.4463 0.0
C463 C 0.86375 0.85081 0.46623 0.0
H464 H 0.82494 0.81694 0.46901 0.0
H465 H 0.86324 0.89376 0.47174 0.0
H466 H 0.91176 0.82612 0.46682 0.0
O467 O 0.64883 0.82746 0.45441 0.0
O468 O 0.64315 0.84617 0.4365 0.0
H469 H 0.88506 0.8812 0.42078 0.0
H470 H 0.92412 0.9506 0.42707 0.0
C471 C 0.87776 0.92311 0.42639 0.0
H472 H 0.84064 0.9558 0.42284 0.0
H473 H 0.72516 0.80393 0.41665 0.0
O474 O 0.72454 0.89224 0.47473 0.0
C475 C 0.62271 0.81741 0.44511 0.0
Co476 Co 0.84119 0.95448 0.20805 0.0
Co477 Co 0.84303 0.96203 0.1822 0.0
C478 C 0.7334 0.89889 0.19374 0.0
O479 O 0.75856 0.91048 0.20311 0.0
O480 O 0.75904 0.92067 0.18498 0.0
C481 C 0.78828 0.97172 0.22984 0.0
O482 O 0.73187 0.9702 0.22475 0.0
C483 C 0.80806 0.98465 0.15905 0.0
C484 C 0.90522 0.99554 0.15143 0.0
C485 C 0.83911 0.99654 0.14914 0.0
N486 N 0.85384 0.97773 0.16686 0.0
N487 N 0.91177 0.98385 0.16222 0.0
C488 C 0.73645 0.97678 0.16106 0.0
H489 H 0.72066 0.01073 0.16762 0.0
H490 H 0.70725 0.98508 0.15356 0.0
H491 H 0.72696 0.92654 0.164 0.0
C492 C 0.86941 0.09461 0.20531 0.0
N493 N 0.85832 0.03518 0.20107 0.0
N494 N 0.85273 0.03994 0.19039 0.0
C495 C 0.8551 0.10336 0.18754 0.0
C496 C 0.86636 0.14085 0.19692 0.0
C497 C 0.88524 0.1056 0.21714 0.0
H498 H 0.9168 0.06561 0.22018 0.0
H499 H 0.83956 0.10501 0.22202 0.0
H500 H 0.91075 0.15274 0.21837 0.0
O501 O 0.90885 0.89147 0.2045 0.0
O502 O 0.90799 0.89398 0.1863 0.0
H503 H 0.88216 0.13459 0.17144 0.0
H504 H 0.80998 0.17396 0.17677 0.0
C505 C 0.83717 0.1274 0.17635 0.0
H506 H 0.80571 0.09162 0.17216 0.0
H507 H 0.95584 0.98054 0.16646 0.0
O508 O 0.84043 0.96578 0.22429 0.0
C509 C 0.9283 0.86986 0.1953 0.0
Co510 Co 0.78648 0.10674 0.95852 0.0
Co511 Co 0.78626 0.08874 0.93293 0.0
C512 C 0.84727 0.98989 0.94653 0.0
O513 O 0.83318 0.02491 0.95483 0.0
O514 O 0.82725 0.00506 0.93698 0.0
C515 C 0.76304 0.05608 0.97986 0.0
O516 O 0.76081 0.00087 0.97443 0.0
C517 C 0.76855 0.04889 0.90974 0.0
C518 C 0.75785 0.14512 0.90181 0.0
C519 C 0.75799 0.07888 0.89969 0.0
N520 N 0.77363 0.09549 0.91745 0.0
N521 N 0.76765 0.15281 0.91263 0.0
C522 C 0.77697 0.97765 0.91195 0.0
H523 H 0.82358 0.96979 0.91636 0.0
H524 H 0.73708 0.96027 0.91735 0.0
H525 H 0.77758 0.94868 0.90428 0.0
C526 C 0.64673 0.12612 0.95471 0.0
N527 N 0.70746 0.11603 0.95095 0.0
N528 N 0.70541 0.10268 0.94044 0.0
C529 C 0.64236 0.10016 0.93728 0.0
C530 C 0.6025 0.11514 0.94625 0.0
C531 C 0.6323 0.14672 0.96623 0.0
H532 H 0.67016 0.18141 0.96909 0.0
H533 H 0.6337 0.10351 0.97168 0.0
H534 H 0.58366 0.17015 0.96682 0.0
O535 O 0.84781 0.17453 0.95452 0.0
O536 O 0.85452 0.15535 0.93665 0.0
H537 H 0.61334 0.11685 0.9207 0.0
H538 H 0.57507 0.04694 0.92696 0.0
C539 C 0.62104 0.07511 0.92633 0.0
H540 H 0.65882 0.04296 0.92282 0.0
H541 H 0.76965 0.19728 0.91677 0.0
O542 O 0.7727 0.10877 0.97463 0.0
C543 C 0.8743 0.18456 0.94525 0.0
Co544 Co 0.85426 0.53514 0.70873 0.0
Co545 Co 0.83448 0.53583 0.68312 0.0
C546 C 0.73676 0.59662 0.69694 0.0
O547 O 0.77251 0.58231 0.70514 0.0
O548 O 0.75089 0.57649 0.68735 0.0
C549 C 0.80401 0.51184 0.73014 0.0
O550 O 0.74845 0.51096 0.72479 0.0
C551 C 0.79493 0.51781 0.65982 0.0
C552 C 0.89171 0.51047 0.65194 0.0
C553 C 0.82551 0.50849 0.64977 0.0
N554 N 0.8412 0.52414 0.66758 0.0
N555 N 0.89882 0.52018 0.66277 0.0
C556 C 0.72327 0.5236 0.66196 0.0
H557 H 0.7061 0.48016 0.66653 0.0
H558 H 0.69519 0.52822 0.65424 0.0
H559 H 0.71384 0.56696 0.66714 0.0
C560 C 0.87579 0.39626 0.70464 0.0
N561 N 0.86367 0.45677 0.701 0.0
N562 N 0.84942 0.4549 0.69052 0.0
C563 C 0.84819 0.39203 0.68728 0.0
C564 C 0.8651 0.35216 0.69614 0.0
C565 C 0.89865 0.38209 0.71604 0.0
H566 H 0.93268 0.42086 0.71878 0.0
H567 H 0.85627 0.38213 0.72169 0.0
H568 H 0.92364 0.33421 0.71648 0.0
O569 O 0.92211 0.5963 0.70477 0.0
O570 O 0.9011 0.60387 0.68696 0.0
H571 H 0.8646 0.36272 0.6707 0.0
H572 H 0.79462 0.32483 0.67702 0.0
C573 C 0.82294 0.37067 0.67634 0.0
H574 H 0.79079 0.4084 0.67284 0.0
H575 H 0.94316 0.52347 0.66693 0.0
O576 O 0.85668 0.52055 0.72484 0.0
C577 C 0.93123 0.62318 0.69552 0.0
Co578 Co 0.71191 0.60665 0.9586 0.0
Co579 Co 0.71248 0.58826 0.93292 0.0
C580 C 0.65143 0.48952 0.94662 0.0
O581 O 0.6655 0.52455 0.95493 0.0
O582 O 0.67145 0.5047 0.93707 0.0
C583 C 0.7342 0.55695 0.98011 0.0
O584 O 0.73564 0.50141 0.97476 0.0
C585 C 0.73139 0.5478 0.9097 0.0
C586 C 0.74121 0.644 0.90174 0.0
C587 C 0.742 0.57775 0.89964 0.0
N588 N 0.72545 0.59446 0.9174 0.0
N589 N 0.73092 0.65174 0.91255 0.0
C590 C 0.72386 0.47645 0.91192 0.0
H591 H 0.76542 0.4591 0.91694 0.0
H592 H 0.72126 0.4478 0.90423 0.0
H593 H 0.67864 0.4681 0.9167 0.0
C594 C 0.85156 0.62661 0.95476 0.0
N595 N 0.79091 0.61614 0.951 0.0
N596 N 0.7931 0.60273 0.94049 0.0
C597 C 0.85619 0.60056 0.93734 0.0
C598 C 0.89591 0.61586 0.9463 0.0
C599 C 0.8658 0.64735 0.96628 0.0
H600 H 0.82787 0.68199 0.96912 0.0
H601 H 0.86433 0.60419 0.97174 0.0
H602 H 0.91441 0.6709 0.96688 0.0
O603 O 0.65027 0.67392 0.95449 0.0
O604 O 0.64399 0.65479 0.9366 0.0
H605 H 0.88505 0.61721 0.92075 0.0
H606 H 0.9239 0.54775 0.92704 0.0
C607 C 0.87771 0.57551 0.9264 0.0
H608 H 0.8402 0.54293 0.92292 0.0
H609 H 0.72823 0.69627 0.91665 0.0
O610 O 0.72546 0.60945 0.97478 0.0
C611 C 0.62393 0.68385 0.9452 0.0
Co612 Co 0.65796 0.46246 0.20906 0.0
Co613 Co 0.65843 0.45254 0.18318 0.0
C614 C 0.76679 0.39799 0.19696 0.0
O615 O 0.73971 0.41859 0.20566 0.0
O616 O 0.7428 0.41027 0.18754 0.0
C617 C 0.7046 0.47275 0.23114 0.0
O618 O 0.7602 0.45655 0.22656 0.0
C619 C 0.69808 0.48365 0.16041 0.0
C620 C 0.61258 0.44824 0.15115 0.0
C621 C 0.6728 0.47793 0.14986 0.0
N622 N 0.65433 0.45913 0.16753 0.0
N623 N 0.60355 0.43783 0.16192 0.0
C624 C 0.76372 0.50887 0.16369 0.0
H625 H 0.77839 0.48853 0.17173 0.0
H626 H 0.76166 0.56263 0.1645 0.0
H627 H 0.80074 0.49649 0.15739 0.0
C628 C 0.64733 0.60302 0.20352 0.0
N629 N 0.64864 0.53962 0.20067 0.0
N630 N 0.64224 0.53465 0.18999 0.0
C631 C 0.63112 0.59431 0.1858 0.0
C632 C 0.63561 0.64054 0.19417 0.0
C633 C 0.66625 0.62676 0.21468 0.0
H634 H 0.69592 0.58972 0.21897 0.0
H635 H 0.69537 0.67218 0.21417 0.0
H636 H 0.62158 0.63636 0.21955 0.0
O637 O 0.59007 0.39537 0.20577 0.0
O638 O 0.59255 0.38897 0.18761 0.0
H639 H 0.58439 0.65237 0.1733 0.0
H640 H 0.65551 0.60776 0.16889 0.0
C641 C 0.61153 0.60586 0.17414 0.0
H642 H 0.58022 0.56534 0.17123 0.0
H643 H 0.56249 0.41633 0.16545 0.0
O644 O 0.65429 0.4797 0.22515 0.0
C645 C 0.57126 0.36934 0.19682 0.0
Co646 Co 0.7862 0.38979 0.45871 0.0
Co647 Co 0.78619 0.40689 0.43308 0.0
C648 C 0.84768 0.50594 0.44662 0.0
O649 O 0.83343 0.47132 0.45496 0.0
O650 O 0.82761 0.49044 0.43709 0.0
C651 C 0.76331 0.44099 0.48005 0.0
O652 O 0.76186 0.49617 0.47461 0.0
C653 C 0.76894 0.44652 0.40988 0.0
C654 C 0.75794 0.35031 0.40195 0.0
C655 C 0.7584 0.41653 0.39983 0.0
N656 N 0.7737 0.39994 0.4176 0.0
N657 N 0.76756 0.34263 0.41278 0.0
C658 C 0.77769 0.51774 0.4121 0.0
H659 H 0.73837 0.53509 0.41762 0.0
H660 H 0.77767 0.54681 0.40444 0.0
H661 H 0.82473 0.52549 0.41638 0.0
C662 C 0.64632 0.37113 0.45488 0.0
N663 N 0.70715 0.38069 0.45112 0.0
N664 N 0.70527 0.39359 0.44059 0.0
C665 C 0.64227 0.39633 0.43741 0.0
C666 C 0.60225 0.38198 0.44639 0.0
C667 C 0.63161 0.3512 0.46642 0.0
H668 H 0.6691 0.3163 0.46932 0.0
H669 H 0.63345 0.39465 0.47181 0.0
H670 H 0.58273 0.32825 0.46703 0.0
O671 O 0.84708 0.32152 0.45476 0.0
O672 O 0.85386 0.33999 0.43686 0.0
H673 H 0.6134 0.37911 0.42084 0.0
H674 H 0.57538 0.4494 0.42702 0.0
C675 C 0.62122 0.42103 0.42643 0.0
H676 H 0.65918 0.45292 0.4229 0.0
H677 H 0.76933 0.29816 0.41691 0.0
O678 O 0.77231 0.38814 0.47484 0.0
C679 C 0.87343 0.31096 0.44549 0.0
Co680 Co 0.85722 0.45961 0.79863 0.0
Co681 Co 0.84107 0.45926 0.82431 0.0
C682 C 0.74082 0.39914 0.81079 0.0
O683 O 0.77521 0.41346 0.80242 0.0
O684 O 0.75702 0.41851 0.82033 0.0
C685 C 0.80565 0.48324 0.77733 0.0
O686 O 0.75059 0.48546 0.78282 0.0
C687 C 0.80135 0.47752 0.84754 0.0
C688 C 0.8977 0.48748 0.85548 0.0
C689 C 0.83139 0.48807 0.8576 0.0
N690 N 0.84798 0.47179 0.83983 0.0
N691 N 0.90536 0.47732 0.84466 0.0
C692 C 0.72996 0.46975 0.84533 0.0
H693 H 0.71305 0.50949 0.83987 0.0
H694 H 0.70091 0.46984 0.85299 0.0
H695 H 0.72158 0.42304 0.84098 0.0
C696 C 0.87729 0.59902 0.8025 0.0
N697 N 0.86742 0.53832 0.80626 0.0
N698 N 0.85475 0.54025 0.8168 0.0
C699 C 0.85243 0.60326 0.81998 0.0
C700 C 0.86682 0.64316 0.811 0.0
C701 C 0.89723 0.61351 0.79095 0.0
H702 H 0.93178 0.57574 0.78803 0.0
H703 H 0.85366 0.61208 0.78557 0.0
H704 H 0.92065 0.66213 0.79033 0.0
O705 O 0.92485 0.39781 0.80248 0.0
O706 O 0.90759 0.39089 0.82042 0.0
H707 H 0.87027 0.6321 0.83654 0.0
H708 H 0.8 0.67049 0.83041 0.0
C709 C 0.82812 0.62452 0.83098 0.0
H710 H 0.79606 0.58682 0.83454 0.0
H711 H 0.94988 0.47483 0.84054 0.0
O712 O 0.85856 0.47359 0.78251 0.0
C713 C 0.93583 0.37118 0.8117 0.0
Co714 Co 0.78589 0.60779 0.04876 0.0
Co715 Co 0.78584 0.58814 0.07444 0.0
C716 C 0.84683 0.49023 0.06056 0.0
O717 O 0.83249 0.52573 0.05233 0.0
O718 O 0.82721 0.50487 0.07016 0.0
C719 C 0.76225 0.5581 0.02734 0.0
O720 O 0.75969 0.5029 0.03277 0.0
C721 C 0.76942 0.54837 0.09782 0.0
C722 C 0.74705 0.6437 0.10534 0.0
C723 C 0.75341 0.57806 0.10772 0.0
N724 N 0.77133 0.59445 0.08996 0.0
N725 N 0.75841 0.65126 0.09456 0.0
C726 C 0.78525 0.47815 0.09587 0.0
H727 H 0.82796 0.47422 0.09035 0.0
H728 H 0.74325 0.45413 0.0918 0.0
H729 H 0.79644 0.45249 0.10364 0.0
C730 C 0.64607 0.62568 0.0527 0.0
N731 N 0.707 0.61623 0.0564 0.0
N732 N 0.70525 0.60182 0.06687 0.0
C733 C 0.64233 0.59772 0.07005 0.0
C734 C 0.60213 0.61308 0.06115 0.0
C735 C 0.63118 0.64693 0.04123 0.0
H736 H 0.66871 0.68208 0.03841 0.0
H737 H 0.63275 0.60409 0.0357 0.0
H738 H 0.58235 0.67002 0.04073 0.0
O739 O 0.84734 0.67514 0.05296 0.0
O740 O 0.85412 0.65524 0.07083 0.0
H741 H 0.61446 0.61064 0.08678 0.0
H742 H 0.57578 0.54214 0.08016 0.0
C743 C 0.62178 0.5702 0.08088 0.0
H744 H 0.65994 0.5373 0.0841 0.0
H745 H 0.75643 0.69525 0.09029 0.0
O746 O 0.77212 0.61071 0.0326 0.0
C747 C 0.87391 0.68475 0.06224 0.0
Co748 Co 0.64061 0.53487 0.29901 0.0
Co749 Co 0.66092 0.53473 0.32452 0.0
C750 C 0.7584 0.59617 0.31077 0.0
O751 O 0.72231 0.58203 0.3026 0.0
O752 O 0.74459 0.5758 0.32035 0.0
C753 C 0.69199 0.50482 0.27819 0.0
O754 O 0.74453 0.49561 0.28415 0.0
C755 C 0.70095 0.51636 0.34773 0.0
C756 C 0.60444 0.50708 0.35565 0.0
C757 C 0.67071 0.50616 0.35777 0.0
N758 N 0.65442 0.52223 0.34001 0.0
N759 N 0.59696 0.5171 0.34484 0.0
C760 C 0.77243 0.52359 0.34553 0.0
H761 H 0.78973 0.48193 0.34053 0.0
H762 H 0.80098 0.52618 0.35324 0.0
H763 H 0.78105 0.56866 0.34074 0.0
C764 C 0.62018 0.39557 0.30285 0.0
N765 N 0.63166 0.45605 0.30658 0.0
N766 N 0.64626 0.45385 0.31704 0.0
C767 C 0.64836 0.3908 0.32018 0.0
C768 C 0.63172 0.35121 0.31127 0.0
C769 C 0.59704 0.38152 0.29146 0.0
H770 H 0.56327 0.42047 0.28872 0.0
H771 H 0.63931 0.38107 0.28579 0.0
H772 H 0.57178 0.33374 0.29105 0.0
O773 O 0.57267 0.59542 0.30305 0.0
O774 O 0.5942 0.60306 0.32084 0.0
H775 H 0.63267 0.3607 0.33673 0.0
H776 H 0.70257 0.32345 0.3303 0.0
C777 C 0.67411 0.36913 0.33106 0.0
H778 H 0.70618 0.40693 0.33459 0.0
H779 H 0.55249 0.51981 0.3407 0.0
O780 O 0.6393 0.52122 0.28293 0.0
C781 C 0.56389 0.62236 0.31231 0.0
Co782 Co 0.71057 0.3913 0.54861 0.0
Co783 Co 0.71078 0.40971 0.57424 0.0
C784 C 0.64915 0.50796 0.56059 0.0
O785 O 0.66338 0.47286 0.55231 0.0
O786 O 0.66941 0.49317 0.57014 0.0
C787 C 0.73359 0.44177 0.52723 0.0
O788 O 0.73532 0.4971 0.53263 0.0
C789 C 0.72871 0.44949 0.5975 0.0
C790 C 0.73903 0.35312 0.60538 0.0
C791 C 0.73913 0.41931 0.60754 0.0
N792 N 0.72348 0.40303 0.58975 0.0
N793 N 0.72927 0.34564 0.59456 0.0
C794 C 0.72058 0.52081 0.59533 0.0
H795 H 0.67497 0.52887 0.59065 0.0
H796 H 0.76165 0.53854 0.59022 0.0
H797 H 0.71832 0.54936 0.60303 0.0
C798 C 0.85029 0.37269 0.55241 0.0
N799 N 0.78956 0.38244 0.55619 0.0
N800 N 0.79164 0.39592 0.5667 0.0
C801 C 0.85473 0.39883 0.56984 0.0
C802 C 0.89455 0.38406 0.56086 0.0
C803 C 0.86475 0.35212 0.54089 0.0
H804 H 0.8272 0.31701 0.53806 0.0
H805 H 0.86282 0.39526 0.53543 0.0
H806 H 0.91362 0.32919 0.54028 0.0
O807 O 0.64961 0.32333 0.55264 0.0
O808 O 0.64253 0.34305 0.5705 0.0
H809 H 0.88439 0.38231 0.58638 0.0
H810 H 0.92175 0.45265 0.58011 0.0
C811 C 0.87608 0.42402 0.58077 0.0
H812 H 0.83807 0.45574 0.58432 0.0
H813 H 0.7271 0.30122 0.59041 0.0
O814 O 0.72434 0.3891 0.53249 0.0
C815 C 0.62289 0.31362 0.5619 0.0
Co816 Co 0.14712 0.45958 0.29797 0.0
Co817 Co 0.16142 0.45935 0.32376 0.0
C818 C 0.26249 0.39916 0.31038 0.0
O819 O 0.22893 0.41354 0.30193 0.0
O820 O 0.2455 0.41854 0.31988 0.0
C821 C 0.20078 0.48681 0.27685 0.0
O822 O 0.25491 0.49039 0.28257 0.0
C823 C 0.20003 0.47782 0.34707 0.0
C824 C 0.1033 0.48691 0.35491 0.0
C825 C 0.1695 0.48806 0.3571 0.0
N826 N 0.15378 0.47175 0.3393 0.0
N827 N 0.09616 0.47675 0.34408 0.0
C828 C 0.27158 0.47069 0.34494 0.0
H829 H 0.28851 0.51082 0.33956 0.0
H830 H 0.30023 0.47066 0.35264 0.0
H831 H 0.28048 0.42426 0.34054 0.0
C832 C 0.12574 0.59887 0.30192 0.0
N833 N 0.13609 0.53819 0.30566 0.0
N834 N 0.14809 0.54012 0.31622 0.0
C835 C 0.14956 0.60305 0.31944 0.0
C836 C 0.13523 0.64297 0.31046 0.0
C837 C 0.106 0.6134 0.29037 0.0
H838 H 0.07222 0.5751 0.28737 0.0
H839 H 0.14978 0.61301 0.28503 0.0
H840 H 0.08177 0.66161 0.28978 0.0
O841 O 0.07931 0.39715 0.30173 0.0
O842 O 0.09498 0.39134 0.31973 0.0
H843 H 0.13043 0.63145 0.33598 0.0
H844 H 0.20082 0.67053 0.33 0.0
C845 C 0.17298 0.62433 0.33049 0.0
H846 H 0.20512 0.58687 0.33408 0.0
H847 H 0.05183 0.47391 0.33991 0.0
O848 O 0.14753 0.47454 0.28179 0.0
C849 C 0.06745 0.37113 0.31098 0.0
Co850 Co 0.2856 0.38989 0.04838 0.0
Co851 Co 0.28426 0.40657 0.07402 0.0
C852 C 0.34638 0.5059 0.06067 0.0
O853 O 0.33249 0.47132 0.0523 0.0
O854 O 0.32567 0.49047 0.07017 0.0
C855 C 0.26387 0.44164 0.02704 0.0
O856 O 0.26239 0.49676 0.03251 0.0
C857 C 0.26325 0.44351 0.09735 0.0
C858 C 0.25074 0.34605 0.10476 0.0
C859 C 0.25022 0.41191 0.10718 0.0
N860 N 0.27011 0.39816 0.08946 0.0
N861 N 0.26311 0.34011 0.09399 0.0
C862 C 0.27168 0.51517 0.09555 0.0
H863 H 0.31573 0.524 0.0905 0.0
H864 H 0.22909 0.53453 0.091 0.0
H865 H 0.27669 0.54177 0.10341 0.0
C866 C 0.14555 0.37065 0.05202 0.0
N867 N 0.20621 0.3803 0.05584 0.0
N868 N 0.20387 0.39306 0.06637 0.0
C869 C 0.14075 0.39553 0.06949 0.0
C870 C 0.10111 0.38115 0.06048 0.0
C871 C 0.1313 0.35121 0.04044 0.0
H872 H 0.16897 0.31651 0.03752 0.0
H873 H 0.13324 0.39491 0.0351 0.0
H874 H 0.08248 0.3282 0.03975 0.0
O875 O 0.34669 0.32185 0.05235 0.0
O876 O 0.35293 0.34055 0.07024 0.0
H877 H 0.11271 0.37853 0.08611 0.0
H878 H 0.07274 0.44755 0.07987 0.0
C879 C 0.11924 0.4203 0.08045 0.0
H880 H 0.15649 0.45335 0.08388 0.0
H881 H 0.26584 0.29631 0.08967 0.0
O882 O 0.27251 0.38869 0.03224 0.0
C883 C 0.37308 0.31176 0.06162 0.0
Co884 Co 0.36014 0.53513 0.79847 0.0
Co885 Co 0.33998 0.53496 0.82406 0.0
C886 C 0.24222 0.59588 0.81026 0.0
O887 O 0.27812 0.58183 0.80206 0.0
O888 O 0.25637 0.57571 0.81984 0.0
C889 C 0.30952 0.50499 0.77755 0.0
O890 O 0.25672 0.49584 0.78346 0.0
C891 C 0.29955 0.51684 0.84729 0.0
C892 C 0.39593 0.50807 0.85525 0.0
C893 C 0.32963 0.50705 0.85736 0.0
N894 N 0.34619 0.52258 0.83958 0.0
N895 N 0.40357 0.51773 0.84443 0.0
C896 C 0.2281 0.52389 0.84507 0.0
H897 H 0.21083 0.48186 0.84015 0.0
H898 H 0.19948 0.52699 0.85277 0.0
H899 H 0.21954 0.56861 0.84019 0.0
C900 C 0.3806 0.39578 0.80238 0.0
N901 N 0.36927 0.45633 0.80609 0.0
N902 N 0.35485 0.45419 0.81656 0.0
C903 C 0.35276 0.39118 0.81972 0.0
C904 C 0.3692 0.3515 0.81081 0.0
C905 C 0.40334 0.38157 0.79096 0.0
H906 H 0.43714 0.42043 0.78818 0.0
H907 H 0.36089 0.38112 0.78534 0.0
H908 H 0.42847 0.33375 0.79054 0.0
O909 O 0.42767 0.5963 0.80255 0.0
O910 O 0.40658 0.60344 0.82037 0.0
H911 H 0.36852 0.36156 0.83629 0.0
H912 H 0.29878 0.3238 0.82989 0.0
C913 C 0.32707 0.36963 0.83062 0.0
H914 H 0.29484 0.40736 0.83412 0.0
H915 H 0.44811 0.52047 0.84031 0.0
O916 O 0.36201 0.52142 0.78235 0.0
C917 C 0.4366 0.62308 0.81182 0.0
Co918 Co 0.20991 0.6105 0.54841 0.0
Co919 Co 0.21032 0.59254 0.5741 0.0
C920 C 0.14888 0.49379 0.56044 0.0
O921 O 0.1631 0.5286 0.55211 0.0
O922 O 0.16874 0.50918 0.56999 0.0
C923 C 0.23372 0.56003 0.52704 0.0
O924 O 0.2363 0.50499 0.53251 0.0
C925 C 0.22659 0.5532 0.59743 0.0
C926 C 0.25007 0.64832 0.60494 0.0
C927 C 0.24313 0.58272 0.60732 0.0
N928 N 0.22496 0.59929 0.58958 0.0
N929 N 0.23848 0.65601 0.59417 0.0
C930 C 0.21002 0.48312 0.59549 0.0
H931 H 0.16601 0.47973 0.59025 0.0
H932 H 0.25086 0.4592 0.59109 0.0
H933 H 0.20043 0.45701 0.60328 0.0
C934 C 0.35003 0.6281 0.55225 0.0
N935 N 0.28906 0.61918 0.55599 0.0
N936 N 0.29081 0.60556 0.56649 0.0
C937 C 0.35372 0.60148 0.56966 0.0
C938 C 0.39394 0.61604 0.56073 0.0
C939 C 0.36507 0.64823 0.54074 0.0
H940 H 0.32777 0.68332 0.53782 0.0
H941 H 0.36327 0.6049 0.53531 0.0
H942 H 0.41405 0.67102 0.54017 0.0
O943 O 0.14863 0.67826 0.55254 0.0
O944 O 0.14238 0.65959 0.57045 0.0
H945 H 0.38122 0.61533 0.58639 0.0
H946 H 0.42028 0.54668 0.57989 0.0
C947 C 0.37418 0.57458 0.58054 0.0
H948 H 0.33608 0.54164 0.58379 0.0
H949 H 0.24083 0.69997 0.5899 0.0
O950 O 0.22363 0.61275 0.53225 0.0
C951 C 0.12243 0.6886 0.56183 0.0
Co952 Co 0.15484 0.54141 0.20805 0.0
Co953 Co 0.1526 0.53364 0.1822 0.0
C954 C 0.26208 0.5975 0.19369 0.0
O955 O 0.23725 0.58571 0.20308 0.0
O956 O 0.23622 0.57581 0.18494 0.0
C957 C 0.20831 0.5239 0.22976 0.0
O958 O 0.26448 0.52498 0.22458 0.0
C959 C 0.18785 0.5112 0.15906 0.0
C960 C 0.09086 0.49958 0.15142 0.0
C961 C 0.157 0.49911 0.14914 0.0
N962 N 0.14194 0.51776 0.16686 0.0
N963 N 0.0841 0.51119 0.16221 0.0
C964 C 0.25937 0.51963 0.16109 0.0
H965 H 0.2685 0.57013 0.16393 0.0
H966 H 0.27526 0.48623 0.16771 0.0
H967 H 0.28876 0.51101 0.1536 0.0
C968 C 0.12798 0.40098 0.20534 0.0
N969 N 0.13826 0.46051 0.20109 0.0
N970 N 0.14367 0.45572 0.1904 0.0
C971 C 0.14194 0.39225 0.18756 0.0
C972 C 0.13137 0.35473 0.19696 0.0
C973 C 0.11273 0.38983 0.21719 0.0
H974 H 0.08072 0.4294 0.22026 0.0
H975 H 0.15857 0.39107 0.22202 0.0
H976 H 0.08793 0.34234 0.21845 0.0
O977 O 0.08673 0.604 0.2045 0.0
O978 O 0.08707 0.60108 0.1863 0.0
H979 H 0.11483 0.36077 0.17149 0.0
H980 H 0.18739 0.32194 0.17676 0.0
C981 C 0.15985 0.3683 0.17636 0.0
H982 H 0.19098 0.40429 0.17215 0.0
H983 H 0.03996 0.51417 0.16645 0.0
O984 O 0.15594 0.53024 0.22429 0.0
C985 C 0.06682 0.62524 0.19531 0.0
Co986 Co 0.21189 0.39238 0.95847 0.0
Co987 Co 0.21225 0.4105 0.93284 0.0
C988 C 0.1513 0.50934 0.9465 0.0
O989 O 0.16542 0.47427 0.95479 0.0
O990 O 0.17127 0.49422 0.93695 0.0
C991 C 0.23516 0.44277 0.97986 0.0
O992 O 0.2373 0.49809 0.97446 0.0
C993 C 0.23073 0.45004 0.90959 0.0
C994 C 0.23991 0.35349 0.90171 0.0
C995 C 0.24084 0.41967 0.89955 0.0
N996 N 0.2249 0.40368 0.91734 0.0
N997 N 0.22999 0.3462 0.91254 0.0
C998 C 0.22349 0.52147 0.91175 0.0
H999 H 0.26502 0.53882 0.91679 0.0
H1000 H 0.22117 0.54992 0.90404 0.0
H1001 H 0.17822 0.53011 0.9165 0.0
C1002 C 0.3514 0.37235 0.95466 0.0
N1003 N 0.29081 0.38283 0.95089 0.0
N1004 N 0.29305 0.39624 0.94038 0.0
C1005 C 0.35617 0.3984 0.93724 0.0
C1006 C 0.39581 0.38316 0.94622 0.0
C1007 C 0.36553 0.35143 0.96617 0.0
H1008 H 0.32747 0.31683 0.96899 0.0
H1009 H 0.36421 0.39452 0.97165 0.0
H1010 H 0.41405 0.32776 0.96677 0.0
O1011 O 0.15046 0.32481 0.95446 0.0
O1012 O 0.14376 0.344 0.93658 0.0
H1013 H 0.38582 0.38132 0.9207 0.0
H1014 H 0.42375 0.45143 0.92696 0.0
C1015 C 0.37783 0.42319 0.92629 0.0
H1016 H 0.34014 0.45519 0.92273 0.0
H1017 H 0.22726 0.30184 0.91669 0.0
O1018 O 0.2256 0.39017 0.97459 0.0
C1019 C 0.12392 0.31486 0.9452 0.0
Co1020 Co 0.34335 0.4635 0.70826 0.0
Co1021 Co 0.34303 0.45429 0.68237 0.0
C1022 C 0.23526 0.39805 0.69628 0.0
O1023 O 0.26155 0.41962 0.70497 0.0
O1024 O 0.25963 0.40999 0.68686 0.0
C1025 C 0.29789 0.47273 0.73046 0.0
O1026 O 0.24217 0.45679 0.72589 0.0
C1027 C 0.30158 0.48621 0.65975 0.0
C1028 C 0.38701 0.45248 0.65029 0.0
C1029 C 0.32636 0.48141 0.64915 0.0
N1030 N 0.34602 0.46188 0.66676 0.0
N1031 N 0.39676 0.44159 0.66102 0.0
C1032 C 0.23587 0.51043 0.66319 0.0
H1033 H 0.23742 0.56416 0.6641 0.0
H1034 H 0.19864 0.49806 0.65693 0.0
H1035 H 0.22186 0.48936 0.67122 0.0
C1036 C 0.35241 0.60421 0.70288 0.0
N1037 N 0.35186 0.54092 0.69997 0.0
N1038 N 0.35835 0.53638 0.68929 0.0
C1039 C 0.36871 0.59634 0.68515 0.0
C1040 C 0.36365 0.64221 0.69358 0.0
C1041 C 0.3332 0.62726 0.71407 0.0
H1042 H 0.30427 0.58954 0.71835 0.0
H1043 H 0.30326 0.67213 0.71361 0.0
H1044 H 0.37775 0.63762 0.71893 0.0
O1045 O 0.4109 0.39689 0.70461 0.0
O1046 O 0.41043 0.39168 0.68643 0.0
H1047 H 0.41444 0.65558 0.6727 0.0
H1048 H 0.34391 0.61005 0.66827 0.0
C1049 C 0.38798 0.60863 0.6735 0.0
H1050 H 0.41981 0.56869 0.67053 0.0
H1051 H 0.43828 0.42047 0.66445 0.0
O1052 O 0.34806 0.47991 0.72443 0.0
C1053 C 0.43094 0.37172 0.69566 0.0
Co1054 Co 0.28633 0.60772 0.45832 0.0
Co1055 Co 0.28616 0.58889 0.43262 0.0
C1056 C 0.34761 0.49082 0.44643 0.0
O1057 O 0.3332 0.52593 0.4547 0.0
O1058 O 0.32785 0.50575 0.43685 0.0
C1059 C 0.26398 0.55816 0.47983 0.0
O1060 O 0.26298 0.50253 0.47451 0.0
C1061 C 0.26724 0.54805 0.40935 0.0
C1062 C 0.25782 0.64426 0.40139 0.0
C1063 C 0.25685 0.57801 0.39929 0.0
N1064 N 0.27322 0.5947 0.41707 0.0
N1065 N 0.26796 0.65197 0.4122 0.0
C1066 C 0.27448 0.47666 0.41156 0.0
H1067 H 0.23148 0.45885 0.41619 0.0
H1068 H 0.27937 0.44842 0.40385 0.0
H1069 H 0.31823 0.46825 0.41669 0.0
C1070 C 0.14673 0.62623 0.45449 0.0
N1071 N 0.20743 0.61637 0.4507 0.0
N1072 N 0.20532 0.60277 0.4402 0.0
C1073 C 0.14221 0.59987 0.43707 0.0
C1074 C 0.10244 0.61479 0.44605 0.0
C1075 C 0.13233 0.64701 0.466 0.0
H1076 H 0.16985 0.68225 0.4688 0.0
H1077 H 0.1344 0.60399 0.47148 0.0
H1078 H 0.08343 0.66988 0.46661 0.0
O1079 O 0.3473 0.67548 0.45417 0.0
O1080 O 0.35412 0.65625 0.43629 0.0
H1081 H 0.1129 0.61623 0.4205 0.0
H1082 H 0.07489 0.54632 0.42681 0.0
C1083 C 0.12078 0.5746 0.42615 0.0
H1084 H 0.15859 0.5425 0.42264 0.0
H1085 H 0.27075 0.69651 0.41631 0.0
O1086 O 0.27254 0.61065 0.47449 0.0
C1087 C 0.3737 0.68566 0.4449 0.0
C1088 C 0.26308 0.93908 0.13835 0.0
C1089 C 0.29961 0.99679 0.13918 0.0
H1090 H 0.21676 0.8702 0.12769 0.0
C1091 C 0.31533 0.0309 0.12955 0.0
H1092 H 0.25218 0.91016 0.14552 0.0
C1093 C 0.29564 0.00754 0.1193 0.0
C1094 C 0.25971 0.94951 0.11847 0.0
H1095 H 0.34422 0.07505 0.1299 0.0
H1096 H 0.31118 0.03347 0.11204 0.0
C1097 C 0.24345 0.91569 0.1281 0.0
C1098 C 0.22869 0.07309 0.3795 0.0
C1099 C 0.25567 0.04708 0.38912 0.0
H1100 H 0.23017 0.07427 0.36195 0.0
C1101 C 0.30363 -0.00146 0.38832 0.0
H1102 H 0.19238 0.11132 0.37992 0.0
C1103 C 0.32544 0.97762 0.37805 0.0
C1104 C 0.29907 0.00424 0.36843 0.0
H1105 H 0.32662 0.97913 0.39561 0.0
H1106 H 0.36415 0.94181 0.37763 0.0
C1107 C 0.24989 0.05155 0.36923 0.0
C1108 C 0.2326 0.06227 0.63781 0.0
C1109 C 0.18527 0.01299 0.63839 0.0
H1110 H 0.29062 0.12315 0.62739 0.0
C1111 C 0.1619 0.98481 0.62868 0.0
H1112 H 0.24989 0.08609 0.64518 0.0
C1113 C 0.18546 0.00569 0.61852 0.0
C1114 C 0.23204 0.05576 0.61793 0.0
H1115 H 0.12457 0.94748 0.62895 0.0
H1116 H 0.16505 0.98476 0.61113 0.0
C1117 C 0.25551 0.08373 0.62765 0.0
C1118 C 0.24868 0.94238 0.86874 0.0
C1119 C 0.20007 0.9902 0.86782 0.0
H1120 H 0.30496 0.88232 0.87956 0.0
C1121 C 0.1735 0.01739 0.87739 0.0
H1122 H 0.26861 0.91927 0.8615 0.0
C1123 C 0.1946 0.99662 0.88771 0.0
C1124 C 0.24194 0.94753 0.88863 0.0
H1125 H 0.13524 0.05363 0.87689 0.0
H1126 H 0.17154 0.01663 0.89495 0.0
C1127 C 0.26907 0.92091 0.87906 0.0
C1128 C 0.76913 0.07535 0.87936 0.0
C1129 C 0.74228 0.04929 0.88899 0.0
H1130 H 0.76795 0.07598 0.86181 0.0
C1131 C 0.69483 0.00019 0.88822 0.0
H1132 H 0.80504 0.11401 0.87977 0.0
C1133 C 0.67339 0.97874 0.87796 0.0
C1134 C 0.69966 0.00537 0.86833 0.0
H1135 H 0.67194 0.98071 0.89552 0.0
H1136 H 0.63505 0.94249 0.87756 0.0
C1137 C 0.74834 0.05326 0.86911 0.0
C1138 C 0.64817 0.92573 0.63396 0.0
C1139 C 0.67987 0.97728 0.63933 0.0
H1140 H 0.64377 0.86447 0.61983 0.0
C1141 C 0.73265 0.00812 0.6341 0.0
H1142 H 0.60739 0.90095 0.63777 0.0
C1143 C 0.75321 0.9875 0.62368 0.0
C1144 C 0.72161 0.93542 0.6184 0.0
H1145 H 0.75737 0.04863 0.63798 0.0
H1146 H 0.79438 0.0115 0.61987 0.0
C1147 C 0.66917 0.90467 0.62369 0.0
C1148 C 0.8062 -0.00148 0.38779 0.0
C1149 C 0.75861 0.94959 0.38868 0.0
H1150 H 0.86628 0.0552 0.377 0.0
C1151 C 0.73193 0.92279 0.37909 0.0
H1152 H 0.82896 0.01866 0.39505 0.0
C1153 C 0.75293 0.94398 0.36878 0.0
C1154 C 0.80168 0.99174 0.36789 0.0
H1155 H 0.69585 0.88432 0.37956 0.0
H1156 H 0.7333 0.92074 0.36153 0.0
C1157 C 0.82789 0.01903 0.37749 0.0
C1158 C 0.83399 0.98552 0.1288 0.0
C1159 C 0.81025 0.01397 0.13847 0.0
H1160 H 0.83189 0.98518 0.11124 0.0
C1161 C 0.76336 0.06358 0.13778 0.0
H1162 H 0.871 0.94794 0.12915 0.0
C1163 C 0.74126 0.08504 0.12757 0.0
C1164 C 0.76508 0.05675 0.1179 0.0
H1165 H 0.74579 0.08763 0.14511 0.0
H1166 H 0.70646 0.12469 0.12723 0.0
C1167 C 0.81122 0.00639 0.11859 0.0
C1168 C 0.74827 0.44409 0.63817 0.0
C1169 C 0.79673 0.49217 0.63902 0.0
H1170 H 0.69203 0.38339 0.62743 0.0
C1171 C 0.82299 0.5192 0.62941 0.0
H1172 H 0.7286 0.42108 0.64544 0.0
C1173 C 0.8018 0.49797 0.61913 0.0
C1174 C 0.75462 0.44865 0.61828 0.0
H1175 H 0.86113 0.55565 0.62987 0.0
H1176 H 0.82468 0.51783 0.61186 0.0
C1177 C 0.72776 0.42219 0.62789 0.0
C1178 C 0.75331 0.55243 0.86903 0.0
C1179 C 0.8019 0.50447 0.86829 0.0
H1180 H 0.69618 0.6131 0.87964 0.0
C1181 C 0.82762 0.47773 0.87796 0.0
H1182 H 0.73409 0.57524 0.86172 0.0
C1183 C 0.80568 0.49908 0.8882 0.0
C1184 C 0.75831 0.54824 0.88894 0.0
H1185 H 0.86589 0.44144 0.87759 0.0
H1186 H 0.82814 0.47945 0.89552 0.0
C1187 C 0.73204 0.57442 0.87927 0.0
C1188 C 0.75496 0.58234 0.12819 0.0
C1189 C 0.73925 0.54842 0.11854 0.0
H1190 H 0.74608 0.5875 0.1456 0.0
C1191 C 0.70416 0.48986 0.11934 0.0
H1192 H 0.78099 0.62823 0.1278 0.0
C1193 C 0.68478 0.46607 0.12957 0.0
C1194 C 0.69995 0.50027 0.13923 0.0
H1195 H 0.68902 0.46382 0.11206 0.0
H1196 H 0.65653 0.4215 0.12991 0.0
C1197 C 0.73564 0.55852 0.13842 0.0
C1198 C 0.76964 0.42018 0.3795 0.0
C1199 C 0.74273 0.44614 0.38914 0.0
H1200 H 0.76842 0.41955 0.36194 0.0
C1201 C 0.6952 0.49509 0.38837 0.0
H1202 H 0.80562 0.38163 0.3799 0.0
C1203 C 0.67369 0.51647 0.37812 0.0
C1204 C 0.69995 0.48991 0.36848 0.0
H1205 H 0.67228 0.51449 0.39567 0.0
H1206 H 0.63526 0.55259 0.37772 0.0
C1207 C 0.74877 0.44221 0.36925 0.0
C1208 C 0.24663 0.55301 0.36865 0.0
C1209 C 0.19842 0.50466 0.36784 0.0
H1210 H 0.30295 0.61402 0.37932 0.0
C1211 C 0.17256 0.4776 0.37748 0.0
H1212 H 0.26598 0.57605 0.36135 0.0
C1213 C 0.194 0.49898 0.38775 0.0
C1214 C 0.24098 0.54855 0.38856 0.0
H1215 H 0.13458 0.44098 0.37706 0.0
H1216 H 0.17147 0.47902 0.39504 0.0
C1217 C 0.26737 0.57506 0.37891 0.0
C1218 C 0.16261 0.51059 0.12882 0.0
C1219 C 0.18614 0.48196 0.13848 0.0
H1220 H 0.16524 0.51137 0.11126 0.0
C1221 C 0.23317 0.43249 0.13778 0.0
H1222 H 0.1255 0.54808 0.12917 0.0
C1223 C 0.25561 0.41131 0.12758 0.0
C1224 C 0.23201 0.43978 0.1179 0.0
H1225 H 0.2506 0.40834 0.14511 0.0
H1226 H 0.29052 0.37176 0.12723 0.0
C1227 C 0.18573 0.49002 0.1186 0.0
C1228 C 0.32639 0.51833 0.8777 0.0
C1229 C 0.30022 0.49133 0.86809 0.0
H1230 H 0.32744 0.51731 0.89526 0.0
C1231 C 0.25124 0.44378 0.86892 0.0
H1232 H 0.36493 0.55436 0.87727 0.0
C1233 C 0.23011 0.42234 0.8792 0.0
C1234 C 0.2569 0.44872 0.88881 0.0
H1235 H 0.23162 0.42079 0.86164 0.0
H1236 H 0.19397 0.38391 0.87964 0.0
C1237 C 0.30461 0.49755 0.88798 0.0
C1238 C 0.3133 0.4703 0.6289 0.0
C1239 C 0.29839 0.50395 0.63862 0.0
H1240 H 0.30827 0.46886 0.6114 0.0
C1241 C 0.26229 0.56196 0.63795 0.0
H1242 H 0.34185 0.42593 0.62913 0.0
C1243 C 0.24234 0.58614 0.62778 0.0
C1244 C 0.25783 0.55276 0.61807 0.0
H1245 H 0.25203 0.5905 0.64519 0.0
H1246 H 0.21605 0.63187 0.62748 0.0
C1247 C 0.2933 0.49442 0.61874 0.0
C1248 C 0.29917 0.69444 0.18342 0.0
C1249 C 0.30682 0.65372 0.19259 0.0
H1250 H 0.30571 0.79006 0.17706 0.0
C1251 C 0.34454 0.67603 0.20143 0.0
H1252 H 0.27001 0.67936 0.17647 0.0
C1253 C 0.36922 0.73984 0.20144 0.0
C1254 C 0.35339 0.7833 0.19291 0.0
H1255 H 0.35162 0.64565 0.20859 0.0
H1256 H 0.39676 0.75633 0.20847 0.0
C1257 C 0.32048 0.75872 0.18371 0.0
C1258 C 0.49185 0.07429 0.45674 0.0
C1259 C 0.46656 0.10494 0.44738 0.0
H1260 H 0.57168 0.02534 0.46412 0.0
C1261 C 0.50916 0.11828 0.43861 0.0
H1262 H 0.46102 0.06168 0.46359 0.0
C1263 C 0.573 0.09367 0.43865 0.0
C1264 C 0.59585 0.05743 0.44764 0.0
H1265 H 0.49186 0.14376 0.43141 0.0
H1266 H 0.60262 0.09904 0.43135 0.0
C1267 C 0.55604 0.05253 0.45699 0.0
C1268 C 0.20008 0.30119 0.70668 0.0
C1269 C 0.19081 0.34179 0.69754 0.0
H1270 H 0.19412 0.20595 0.71315 0.0
C1271 C 0.15084 0.31981 0.68896 0.0
H1272 H 0.23095 0.31602 0.71344 0.0
C1273 C 0.125 0.25644 0.68922 0.0
C1274 C 0.14228 0.213 0.69768 0.0
H1275 H 0.14251 0.35014 0.68184 0.0
H1276 H 0.09546 0.24009 0.6824 0.0
C1277 C 0.17793 0.23728 0.7066 0.0
C1278 C 0.98767 0.88073 0.93857 0.0
C1279 C 0.03088 0.8939 0.94725 0.0
H1280 H 0.89411 0.9009 0.93144 0.0
C1281 C 0.00669 0.92591 0.95657 0.0
H1282 H 0.00418 0.85441 0.9314 0.0
C1283 C 0.94295 0.94892 0.95687 0.0
C1284 C 0.90249 0.94372 0.94762 0.0
H1285 H 0.03814 0.93846 0.96335 0.0
H1286 H 0.92817 0.97704 0.96396 0.0
C1287 C 0.92426 0.90643 0.93866 0.0
C1288 C 0.3272 0.23969 0.30059 0.0
C1289 C 0.35714 0.21513 0.31007 0.0
H1290 H 0.27827 0.31869 0.29295 0.0
C1291 C 0.36922 0.25818 0.31882 0.0
H1292 H 0.31551 0.20845 0.29375 0.0
C1293 C 0.34424 0.32181 0.31861 0.0
C1294 C 0.30877 0.34394 0.30947 0.0
H1295 H 0.39407 0.24143 0.32611 0.0
H1296 H 0.34873 0.35185 0.32586 0.0
C1297 C 0.30496 0.30363 0.30018 0.0
C1298 C 0.9383 0.05541 0.55059 0.0
C1299 C 0.89908 0.05915 0.56002 0.0
H1300 H 0.03265 0.06654 0.5438 0.0
C1301 C 0.92199 0.09532 0.56903 0.0
H1302 H 0.92254 0.02838 0.54344 0.0
C1303 C 0.98541 0.12108 0.56896 0.0
C1304 C 0.02763 0.10881 0.5601 0.0
H1305 H 0.8928 0.09983 0.57638 0.0
H1306 H 0.00283 0.1465 0.57616 0.0
C1307 C 0.00213 0.07828 0.55074 0.0
C1308 C 0.17987 0.75528 0.79996 0.0
C1309 C 0.14765 0.78005 0.80922 0.0
H1310 H 0.23068 0.67615 0.79271 0.0
C1311 C 0.13357 0.73722 0.81791 0.0
H1312 H 0.19306 0.78637 0.79318 0.0
C1313 C 0.15876 0.67365 0.81792 0.0
C1314 C 0.1964 0.6513 0.80904 0.0
H1315 H 0.10698 0.75415 0.82502 0.0
H1316 H 0.1526 0.64381 0.82516 0.0
C1317 C 0.20234 0.69138 0.79975 0.0
C1318 C 0.49221 0.92753 0.05062 0.0
C1319 C 0.46754 0.89664 0.06001 0.0
H1320 H 0.57131 0.97742 0.04315 0.0
C1321 C 0.51038 0.88434 0.06878 0.0
H1322 H 0.46106 0.9394 0.04378 0.0
C1323 C 0.57396 0.90967 0.06867 0.0
C1324 C 0.5963 0.94579 0.05962 0.0
H1325 H 0.49345 0.85893 0.07601 0.0
H1326 H 0.60383 0.90478 0.07594 0.0
C1327 C 0.55612 0.95021 0.05032 0.0
C1328 C 0.69853 0.30421 0.80041 0.0
C1329 C 0.69428 0.34418 0.80973 0.0
H1330 H 0.68788 0.20935 0.79385 0.0
C1331 C 0.65788 0.32194 0.81876 0.0
H1332 H 0.72585 0.31941 0.79325 0.0
C1333 C 0.63238 0.25847 0.81885 0.0
C1334 C 0.64497 0.21565 0.81009 0.0
H1335 H 0.653 0.35174 0.82604 0.0
H1336 H 0.60678 0.24161 0.82607 0.0
C1337 C 0.67581 0.2404 0.8007 0.0
C1338 C 0.50439 0.93055 0.55046 0.0
C1339 C 0.52865 0.8983 0.55974 0.0
H1340 H 0.42557 0.98136 0.54311 0.0
C1341 C 0.48537 0.8844 0.56838 0.0
H1342 H 0.5359 0.94361 0.54371 0.0
C1343 C 0.42175 0.90956 0.56831 0.0
C1344 C 0.3998 0.94704 0.55939 0.0
H1345 H 0.502 0.85792 0.57553 0.0
H1346 H 0.39151 0.90344 0.57551 0.0
C1347 C 0.44045 0.95304 0.55016 0.0
C1348 C 0.84195 0.67432 0.31833 0.0
C1349 C 0.80408 0.65173 0.3095 0.0
H1350 H 0.89415 0.75495 0.32531 0.0
C1351 C 0.79792 0.69159 0.30019 0.0
H1352 H 0.84826 0.64466 0.32559 0.0
C1353 C 0.8205 0.75548 0.30033 0.0
C1354 C 0.85307 0.78047 0.30953 0.0
H1355 H 0.76942 0.67616 0.29318 0.0
H1356 H 0.80713 0.78636 0.29353 0.0
C1357 C 0.86729 0.73786 0.31824 0.0
C1358 C 0.05617 0.04914 0.05001 0.0
C1359 C 0.0965 0.05492 0.05927 0.0
H1360 H 0.96112 0.05959 0.04345 0.0
C1361 C 0.07478 0.09312 0.06812 0.0
H1362 H 0.07095 0.02035 0.04299 0.0
C1363 C 0.01152 0.11917 0.06811 0.0
C1364 C 0.96835 0.10537 0.05945 0.0
H1365 H 0.10484 0.09915 0.07534 0.0
H1366 H 0.99499 0.14616 0.07521 0.0
C1367 C 0.99254 0.07253 0.05021 0.0
C1368 C 0.62925 0.7387 0.68928 0.0
C1369 C 0.64376 0.78154 0.69795 0.0
H1370 H 0.64739 0.64502 0.68205 0.0
C1371 C 0.67589 0.75669 0.7072 0.0
H1372 H 0.60275 0.75576 0.68217 0.0
C1373 C 0.69779 0.69259 0.70743 0.0
C1374 C 0.69136 0.65239 0.69816 0.0
H1375 H 0.68941 0.7878 0.71397 0.0
H1376 H 0.72607 0.67724 0.71446 0.0
C1377 C 0.65386 0.67492 0.68929 0.0
C1378 C 0.00949 0.87873 0.43868 0.0
C1379 C 0.96659 0.89217 0.44739 0.0
H1380 H 0.1032 0.89798 0.43151 0.0
C1381 C 0.99155 0.92293 0.45677 0.0
H1382 H 0.99243 0.85316 0.43147 0.0
C1383 C 0.0557 0.94481 0.45708 0.0
C1384 C 0.09581 0.93986 0.44778 0.0
H1385 H 0.96047 0.93557 0.46359 0.0
H1386 H 0.07109 0.97214 0.46422 0.0
C1387 C 0.07332 0.90342 0.43877 0.0
C1388 C 0.87504 0.25591 0.18955 0.0
C1389 C 0.85825 0.21272 0.19808 0.0
H1390 H 0.85767 0.3497 0.18223 0.0
C1391 C 0.82488 0.23769 0.2072 0.0
H1392 H 0.90314 0.23912 0.1826 0.0
C1393 C 0.80391 0.30196 0.20739 0.0
C1394 C 0.81182 0.34217 0.19816 0.0
H1395 H 0.80929 0.2067 0.21384 0.0
H1396 H 0.77452 0.31725 0.2143 0.0
C1397 C 0.85021 0.31964 0.18941 0.0
C1398 C 0.44276 0.04887 0.95687 0.0
C1399 C 0.40243 0.05412 0.9476 0.0
H1400 H 0.53789 0.0592 0.96339 0.0
C1401 C 0.42447 0.0913 0.93865 0.0
H1402 H 0.42778 0.02084 0.96396 0.0
C1403 C 0.48796 0.11688 0.93859 0.0
C1404 C 0.53101 0.10368 0.94729 0.0
H1405 H 0.39445 0.09687 0.93141 0.0
H1406 H 0.50466 0.14313 0.93143 0.0
C1407 C 0.50658 0.07177 0.9566 0.0
C1408 C 0.86754 0.23827 0.68822 0.0
C1409 C 0.85562 0.2804 0.6971 0.0
H1410 H 0.84659 0.14541 0.68089 0.0
C1411 C 0.82638 0.25466 0.70656 0.0
H1412 H 0.89208 0.25584 0.68094 0.0
C1413 C 0.8044 0.19061 0.70681 0.0
C1414 C 0.80752 0.15143 0.69737 0.0
H1415 H 0.81487 0.28506 0.71351 0.0
H1416 H 0.77831 0.17465 0.71405 0.0
C1417 C 0.84254 0.1746 0.68826 0.0
C1418 C 0.05577 0.55024 0.95692 0.0
C1419 C 0.09603 0.55544 0.94763 0.0
H1420 H 0.96067 0.56043 0.96346 0.0
C1421 C 0.07395 0.59257 0.93868 0.0
H1422 H 0.07081 0.52229 0.96401 0.0
C1423 C 0.01046 0.61806 0.93864 0.0
C1424 C 0.96743 0.60478 0.94735 0.0
H1425 H 0.10393 0.59812 0.93144 0.0
H1426 H 0.99371 0.64425 0.93148 0.0
C1427 C 0.99194 0.57303 0.95666 0.0
C1428 C 0.67564 0.73758 0.18373 0.0
C1429 C 0.64364 0.71247 0.19298 0.0
H1430 H 0.72476 0.81757 0.17643 0.0
C1431 C 0.62779 0.75564 0.20156 0.0
H1432 H 0.69036 0.70652 0.17704 0.0
C1433 C 0.65179 0.81971 0.20154 0.0
C1434 C 0.68879 0.84255 0.19265 0.0
H1435 H 0.60082 0.73877 0.20863 0.0
H1436 H 0.64487 0.84987 0.20873 0.0
C1437 C 0.69618 0.80211 0.18344 0.0
C1438 C 0.50671 0.42677 0.45665 0.0
C1439 C 0.53087 0.39405 0.4474 0.0
H1440 H 0.42836 0.47881 0.4639 0.0
C1441 C 0.48777 0.38068 0.43871 0.0
H1442 H 0.53811 0.43948 0.46342 0.0
C1443 C 0.42453 0.40679 0.43871 0.0
C1444 C 0.40278 0.44466 0.4476 0.0
H1445 H 0.50427 0.35385 0.43159 0.0
H1446 H 0.39448 0.401 0.43148 0.0
C1447 C 0.44311 0.4502 0.45687 0.0
C1448 C 0.82281 0.7389 0.80071 0.0
C1449 C 0.8552 0.71459 0.80998 0.0
H1450 H 0.77186 0.81763 0.79338 0.0
C1451 C 0.86889 0.75772 0.81865 0.0
H1452 H 0.80977 0.70753 0.79395 0.0
C1453 C 0.84353 0.82124 0.81859 0.0
C1454 C 0.80611 0.84325 0.80967 0.0
H1455 H 0.89547 0.74112 0.82578 0.0
H1456 H 0.84956 0.85139 0.82581 0.0
C1457 C 0.80019 0.80273 0.80044 0.0
C1458 C 0.44239 0.54734 0.05042 0.0
C1459 C 0.40205 0.55173 0.0597 0.0
H1460 H 0.53749 0.55838 0.0439 0.0
C1461 C 0.42424 0.58782 0.06877 0.0
H1462 H 0.42731 0.52013 0.04324 0.0
C1463 C 0.48778 0.61327 0.0689 0.0
C1464 C 0.53072 0.60113 0.06013 0.0
H1465 H 0.39426 0.59265 0.07603 0.0
H1466 H 0.50457 0.6387 0.07614 0.0
C1467 C 0.50623 0.57017 0.05074 0.0
C1468 C 0.63013 0.23669 0.3189 0.0
C1469 C 0.64213 0.27968 0.31015 0.0
H1470 H 0.6508 0.14313 0.32596 0.0
C1471 C 0.67199 0.25505 0.30065 0.0
H1472 H 0.60531 0.25348 0.3262 0.0
C1473 C 0.6943 0.19114 0.30025 0.0
C1474 C 0.69063 0.15093 0.30955 0.0
H1475 H 0.68361 0.28623 0.2938 0.0
H1476 H 0.72092 0.17603 0.29301 0.0
C1477 C 0.6552 0.1731 0.31869 0.0
C1478 C 0.00931 0.38347 0.56841 0.0
C1479 C 0.96585 0.39636 0.55976 0.0
H1480 H 0.10286 0.40427 0.5755 0.0
C1481 C 0.98958 0.42881 0.55045 0.0
H1482 H 0.99312 0.35688 0.57557 0.0
C1483 C 0.05312 0.45246 0.55014 0.0
C1484 C 0.09383 0.44736 0.55936 0.0
H1485 H 0.95789 0.44117 0.5437 0.0
H1486 H 0.06754 0.48087 0.54306 0.0
C1487 C 0.0725 0.40973 0.5683 0.0
C1488 C 0.15738 0.82074 0.31831 0.0
C1489 C 0.19521 0.84326 0.30947 0.0
H1490 H 0.10517 0.74016 0.32532 0.0
C1491 C 0.20127 0.80338 0.30016 0.0
H1492 H 0.15113 0.85042 0.32558 0.0
C1493 C 0.17867 0.7395 0.3003 0.0
C1494 C 0.14616 0.71455 0.30952 0.0
H1495 H 0.22974 0.81876 0.29314 0.0
H1496 H 0.19197 0.70859 0.2935 0.0
C1497 C 0.13199 0.75721 0.31824 0.0
C1498 C 0.94215 0.44974 0.05004 0.0
C1499 C 0.90176 0.44386 0.0593 0.0
H1500 H 0.03719 0.43911 0.04347 0.0
C1501 C 0.92331 0.40537 0.06812 0.0
H1502 H 0.9275 0.47875 0.04305 0.0
C1503 C 0.98647 0.37909 0.06808 0.0
C1504 C 0.02972 0.39296 0.05943 0.0
H1505 H 0.89319 0.39927 0.07534 0.0
H1506 H 0.00288 0.35188 0.07516 0.0
C1507 C 0.00569 0.42611 0.05022 0.0
C1508 C 0.34599 0.17345 0.81834 0.0
C1509 C 0.31026 0.15108 0.80924 0.0
H1510 H 0.39608 0.25403 0.82576 0.0
C1511 C 0.30623 0.19118 0.79993 0.0
H1512 H 0.35066 0.14358 0.82561 0.0
C1513 C 0.32854 0.25514 0.80028 0.0
C1514 C 0.35874 0.27994 0.80973 0.0
H1515 H 0.27939 0.17592 0.79273 0.0
H1516 H 0.31671 0.28621 0.79343 0.0
C1517 C 0.37103 0.23709 0.81849 0.0
C1518 C 0.55336 0.54851 0.5502 0.0
C1519 C 0.59365 0.5538 0.55948 0.0
H1520 H 0.45835 0.55931 0.54364 0.0
C1521 C 0.57161 0.59101 0.56843 0.0
H1522 H 0.56834 0.5204 0.54312 0.0
C1523 C 0.50822 0.61675 0.56846 0.0
C1524 C 0.46528 0.6038 0.55974 0.0
H1525 H 0.60157 0.59655 0.57567 0.0
H1526 H 0.4915 0.64304 0.57562 0.0
C1527 C 0.48965 0.57169 0.55044 0.0
C1528 C 0.12376 0.23946 0.18964 0.0
C1529 C 0.14052 0.28301 0.19813 0.0
H1530 H 0.14162 0.14563 0.18236 0.0
C1531 C 0.17479 0.25866 0.20719 0.0
H1532 H 0.0951 0.25581 0.18273 0.0
C1533 C 0.1965 0.19463 0.20738 0.0
C1534 C 0.18833 0.15407 0.1982 0.0
H1535 H 0.19042 0.29001 0.21378 0.0
H1536 H 0.22648 0.17982 0.21424 0.0
C1537 C 0.14925 0.17599 0.1895 0.0
C1538 C 0.55554 0.44869 0.95696 0.0
C1539 C 0.59605 0.44345 0.94771 0.0
H1540 H 0.46023 0.43863 0.96342 0.0
C1541 C 0.57411 0.40643 0.93873 0.0
H1542 H 0.57045 0.4766 0.96406 0.0
C1543 C 0.51053 0.38108 0.93862 0.0
C1544 C 0.46732 0.39433 0.9473 0.0
H1545 H 0.60428 0.40086 0.9315 0.0
H1546 H 0.49392 0.35498 0.93144 0.0
C1547 C 0.49165 0.42602 0.95664 0.0
C1548 C 0.32157 0.73874 0.68327 0.0
C1549 C 0.35433 0.71399 0.69246 0.0
H1550 H 0.27065 0.8179 0.67611 0.0
C1551 C 0.36957 0.75716 0.70108 0.0
H1552 H 0.30729 0.70763 0.67656 0.0
C1553 C 0.34433 0.82072 0.70115 0.0
C1554 C 0.30658 0.84308 0.69232 0.0
H1555 H 0.39705 0.74056 0.7081 0.0
H1556 H 0.35095 0.85078 0.70836 0.0
C1557 C 0.29969 0.80281 0.68307 0.0
C1558 C 0.94382 0.54693 0.45685 0.0
C1559 C 0.90297 0.5521 0.44765 0.0
H1560 H 0.03919 0.55791 0.46324 0.0
C1561 C 0.92431 0.5895 0.43867 0.0
H1562 H 0.92939 0.51866 0.46394 0.0
C1563 C 0.98761 0.61552 0.43853 0.0
C1564 C 0.03114 0.6026 0.44717 0.0
H1565 H 0.89386 0.59497 0.43148 0.0
H1566 H 0.00378 0.64196 0.43135 0.0
C1567 C 0.00744 0.57033 0.4565 0.0
C1568 C 0.24598 0.01457 0.26097 0.0
C1569 C 0.30497 0.99809 0.26611 0.0
H1570 H 0.19666 0.03496 0.24595 0.0
C1571 C 0.36099 0.98924 0.25963 0.0
H1572 H 0.20188 0.02165 0.26571 0.0
C1573 C 0.35799 0.99681 0.24825 0.0
C1574 C 0.2989 0.0134 0.24313 0.0
H1575 H 0.40721 0.97648 0.26334 0.0
H1576 H 0.40198 0.98982 0.24348 0.0
C1577 C 0.24297 0.0221 0.24962 0.0
C1578 C 0.23952 0.99841 0.50988 0.0
C1579 C 0.24874 0.0577 0.51542 0.0
H1580 H 0.22656 0.95048 0.49447 0.0
C1581 C 0.25166 0.11569 0.50932 0.0
H1582 H 0.23712 0.95283 0.51433 0.0
C1583 C 0.24549 0.11435 0.4979 0.0
C1584 C 0.23652 0.05497 0.49236 0.0
H1585 H 0.25871 0.1622 0.51334 0.0
H1586 H 0.24796 0.15985 0.49343 0.0
C1587 C 0.23365 0.99704 0.49848 0.0
C1588 C 0.14601 0.98907 0.74716 0.0
C1589 C 0.20584 0.98133 0.74166 0.0
H1590 H 0.0974 0.00385 0.76251 0.0
C1591 C 0.26375 0.98249 0.74781 0.0
H1592 H 0.10046 0.98856 0.74267 0.0
C1593 C 0.26197 0.99107 0.75917 0.0
C1594 C 0.20225 -0.00097 0.76467 0.0
H1595 H 0.31068 0.97663 0.74386 0.0
H1596 H 0.30762 0.99172 0.76363 0.0
C1597 C 0.14424 0.99795 0.75853 0.0
C1598 C 0.24748 -0.00101 0.00934 0.0
C1599 C 0.24331 0.94001 0.01515 0.0
H1600 H 0.25685 0.04557 0.99376 0.0
C1601 C 0.24578 0.88108 0.00928 0.0
H1602 H 0.2456 0.04528 0.01359 0.0
C1603 C 0.25242 0.88125 0.99786 0.0
C1604 C 0.25642 0.94034 0.99206 0.0
H1605 H 0.24274 0.83479 0.01351 0.0
H1606 H 0.25425 0.83507 0.99357 0.0
C1607 C 0.25377 -0.00085 0.99794 0.0
C1608 C 0.63863 0.00066 0.74821 0.0
C1609 C 0.69763 0.01202 0.74266 0.0
H1610 H 0.59153 0.98438 0.76363 0.0
C1611 C 0.75566 0.01589 0.74874 0.0
H1612 H 0.59305 0.99735 0.74376 0.0
C1613 C 0.75476 0.00866 0.76012 0.0
C1614 C 0.69584 0.99711 0.76568 0.0
H1615 H 0.80192 0.02477 0.74473 0.0
H1616 H 0.8004 0.0119 0.76455 0.0
C1617 C 0.63776 0.9932 0.7596 0.0
C1618 C 0.74678 0.0041 0.49777 0.0
C1619 C 0.74229 0.94493 0.49202 0.0
H1620 H 0.75661 0.0512 0.51331 0.0
C1621 C 0.74467 0.88622 0.49794 0.0
H1622 H 0.74498 0.05025 0.49348 0.0
C1623 C 0.75151 0.88676 0.50936 0.0
C1624 C 0.75585 0.94605 0.51509 0.0
H1625 H 0.7414 0.83978 0.49376 0.0
H1626 H 0.75325 0.84073 0.51368 0.0
C1627 C 0.75331 0.00466 0.50916 0.0
C1628 C 0.85365 0.99728 0.25866 0.0
C1629 C 0.79599 0.99836 0.26489 0.0
H1630 H 0.89656 0.98796 0.24272 0.0
C1631 C 0.73595 0.9904 0.25949 0.0
H1632 H 0.90072 0.00318 0.26255 0.0
C1633 C 0.73353 0.98186 0.24813 0.0
C1634 C 0.79111 0.98073 0.24189 0.0
H1635 H 0.69055 0.99106 0.26403 0.0
H1636 H 0.68639 0.97601 0.24425 0.0
C1637 C 0.85125 0.98845 0.24728 0.0
C1638 C 0.74495 0.99778 0.00915 0.0
C1639 C 0.742 0.05676 0.01498 0.0
H1640 H 0.75352 0.95133 0.99353 0.0
C1641 C 0.74577 0.11573 0.00915 0.0
H1642 H 0.74205 0.95148 0.01338 0.0
C1643 C 0.7525 0.11564 0.99774 0.0
C1644 C 0.75533 0.05658 0.99192 0.0
H1645 H 0.74369 0.16202 0.0134 0.0
H1646 H 0.75537 0.16186 0.99349 0.0
C1647 C 0.75136 0.99769 0.99776 0.0
C1648 C 0.86455 0.49325 0.75936 0.0
C1649 C 0.8057 0.49088 0.76526 0.0
H1650 H 0.91029 0.5017 0.74364 0.0
C1651 C 0.74652 0.49521 0.75951 0.0
H1652 H 0.91099 0.49008 0.76355 0.0
C1653 C 0.74612 0.50157 0.74811 0.0
C1654 C 0.80488 0.50411 0.7422 0.0
H1655 H 0.7003 0.49341 0.76379 0.0
H1656 H 0.6996 0.50481 0.74395 0.0
C1657 C 0.86415 0.49993 0.74795 0.0
C1658 C 0.75216 0.61733 0.00939 0.0
C1659 C 0.75474 0.55846 0.01526 0.0
H1660 H 0.74362 0.66317 0.99367 0.0
C1661 C 0.75068 0.49942 0.00947 0.0
H1662 H 0.75511 0.66367 0.0136 0.0
C1663 C 0.74441 0.49913 0.99807 0.0
C1664 C 0.74166 0.55788 0.99218 0.0
H1665 H 0.75265 0.45317 0.01373 0.0
H1666 H 0.74142 0.45267 0.9939 0.0
C1667 C 0.74553 0.61704 0.99797 0.0
C1668 C 0.64181 0.4986 0.24828 0.0
C1669 C 0.70086 0.48178 0.24316 0.0
H1670 H 0.59252 0.51891 0.26338 0.0
C1671 C 0.75665 0.47258 0.24966 0.0
H1672 H 0.59793 0.50597 0.24351 0.0
C1673 C 0.75354 0.47988 0.26102 0.0
C1674 C 0.69459 0.49662 0.26615 0.0
H1675 H 0.80293 0.45951 0.24599 0.0
H1676 H 0.79754 0.47242 0.26576 0.0
C1677 C 0.6387 0.50594 0.25967 0.0
C1678 C 0.75183 0.38181 0.49796 0.0
C1679 C 0.75541 0.44073 0.49212 0.0
H1680 H 0.74213 0.33581 0.51363 0.0
C1681 C 0.75195 0.49975 0.49792 0.0
H1682 H 0.7543 0.33548 0.49373 0.0
C1683 C 0.74525 0.49993 0.50931 0.0
C1684 C 0.7415 0.44111 0.51517 0.0
H1685 H 0.75469 0.54602 0.49369 0.0
H1686 H 0.74273 0.54634 0.51352 0.0
C1687 C 0.74481 0.382 0.50937 0.0
C1688 C 0.2639 0.51321 0.24796 0.0
C1689 C 0.20601 0.51477 0.24181 0.0
H1690 H 0.30763 0.50349 0.26379 0.0
C1691 C 0.14611 0.5073 0.2473 0.0
H1692 H 0.31087 0.51887 0.24402 0.0
C1693 C 0.14424 0.49826 0.25867 0.0
C1694 C 0.20221 0.49674 0.26481 0.0
H1695 H 0.10058 0.50812 0.24281 0.0
H1696 H 0.09734 0.49255 0.26264 0.0
C1697 C 0.26202 0.50448 0.25932 0.0
C1698 C 0.24687 0.50084 0.99779 0.0
C1699 C 0.24289 0.44205 0.99192 0.0
H1700 H 0.25624 0.54681 0.01343 0.0
C1701 C 0.24575 0.38291 0.99771 0.0
H1702 H 0.2447 0.54728 0.99359 0.0
C1703 C 0.25252 0.38264 0.00912 0.0
C1704 C 0.25631 0.44151 0.01497 0.0
H1705 H 0.24287 0.33675 0.99343 0.0
H1706 H 0.25462 0.33628 0.01334 0.0
C1707 C 0.25332 0.50057 0.00918 0.0
C1708 C 0.24856 0.4798 0.76033 0.0
C1709 C 0.30737 0.49663 0.76551 0.0
H1710 H 0.19948 0.45932 0.74529 0.0
C1711 C 0.36343 0.5059 0.75904 0.0
H1712 H 0.20443 0.47236 0.76505 0.0
C1713 C 0.36058 0.49846 0.74764 0.0
C1714 C 0.30162 0.48161 0.74249 0.0
H1715 H 0.40952 0.51892 0.76278 0.0
H1716 H 0.40455 0.50583 0.74288 0.0
C1717 C 0.24571 0.47241 0.74898 0.0
C1718 C 0.24639 0.50106 0.50921 0.0
C1719 C 0.24174 0.56018 0.51497 0.0
H1720 H 0.25667 0.45408 0.49367 0.0
C1721 C 0.24434 0.61895 0.50906 0.0
H1722 H 0.24444 0.45488 0.51349 0.0
C1723 C 0.25155 0.6185 0.49765 0.0
C1724 C 0.256 0.55925 0.4919 0.0
H1725 H 0.24097 0.66535 0.51325 0.0
H1726 H 0.25345 0.66456 0.49333 0.0
C1727 C 0.25325 0.5006 0.49782 0.0
C1728 C 0.51571 0.2778 0.18715 0.0
C1729 C 0.53173 0.30893 0.19705 0.0
H1730 H 0.47324 0.19533 0.17932 0.0
C1731 C 0.51598 0.27791 0.20698 0.0
H1732 H 0.52755 0.29975 0.17932 0.0
C1733 C 0.48481 0.21714 0.20698 0.0
C1734 C 0.46901 0.18616 0.19704 0.0
H1735 H 0.52838 0.30013 0.21475 0.0
H1736 H 0.47238 0.19494 0.21475 0.0
C1737 C 0.4851 0.21726 0.18714 0.0
C1738 C 0.02842 0.23085 0.4551 0.0
C1739 C 0.06047 0.21673 0.44521 0.0
H1740 H 0.94394 0.26889 0.46293 0.0
C1741 C 0.02895 0.23114 0.43526 0.0
H1742 H 0.05058 0.21956 0.46293 0.0
C1743 C 0.96695 0.25981 0.43526 0.0
C1744 C 0.93504 0.27357 0.44521 0.0
H1745 H 0.05203 0.22008 0.4275 0.0
H1746 H 0.94433 0.27164 0.4275 0.0
C1747 C 0.96647 0.2583 0.4551 0.0
C1748 C 0.97778 0.71877 0.68528 0.0
C1749 C 0.96892 0.68457 0.69516 0.0
H1750 H 0.01441 0.80503 0.67753 0.0
C1751 C 0.98983 0.71334 0.705 0.0
H1752 H 0.96151 0.69832 0.67757 0.0
C1753 C 0.01846 0.7748 0.70501 0.0
C1754 C 0.02784 0.80899 0.69516 0.0
H1755 H 0.98311 0.68896 0.71279 0.0
H1756 H 0.03435 0.79487 0.71277 0.0
C1757 C 0.00722 0.78031 0.68528 0.0
C1758 C 0.46772 0.76212 0.95474 0.0
C1759 C 0.43614 0.7769 0.94484 0.0
H1760 H 0.55196 0.72396 0.96261 0.0
C1761 C 0.46816 0.7631 0.93491 0.0
H1762 H 0.44517 0.77281 0.96257 0.0
C1763 C 0.5303 0.73464 0.93493 0.0
C1764 C 0.56186 0.72053 0.94489 0.0
H1765 H 0.44546 0.77461 0.92714 0.0
H1766 H 0.55339 0.7234 0.92718 0.0
C1767 C 0.52979 0.73493 0.95477 0.0
C1768 C 0.48577 0.77866 0.32255 0.0
C1769 C 0.47191 0.8103 0.31259 0.0
H1770 H 0.5253 0.6936 0.33033 0.0
C1771 C 0.48612 0.77826 0.30271 0.0
H1772 H 0.47464 0.80178 0.3303 0.0
C1773 C 0.51284 0.7161 0.30272 0.0
C1774 C 0.52742 0.68443 0.31262 0.0
H1775 H 0.47528 0.80051 0.29487 0.0
H1776 H 0.52339 0.69357 0.29489 0.0
C1777 C 0.51389 0.71643 0.32256 0.0
C1778 C 0.52832 0.26404 0.57209 0.0
C1779 C 0.56062 0.27724 0.56217 0.0
H1780 H 0.44246 0.22564 0.57982 0.0
C1781 C 0.52899 0.2626 0.55226 0.0
H1782 H 0.55107 0.27546 0.57987 0.0
C1783 C 0.46652 0.23625 0.55222 0.0
C1784 C 0.43414 0.22257 0.5621 0.0
H1785 H 0.55178 0.27284 0.54444 0.0
H1786 H 0.44428 0.22535 0.54439 0.0
C1787 C 0.4658 0.2364 0.57206 0.0
C1788 C 0.98867 0.27882 0.80188 0.0
C1789 C 0.97323 0.30948 0.81184 0.0
H1790 H 0.02842 0.19575 0.79385 0.0
C1791 C 0.98731 0.27695 0.82171 0.0
H1792 H 0.97782 0.3018 0.7941 0.0
C1793 C 0.01667 0.21529 0.82156 0.0
C1794 C 0.03159 0.18469 0.81155 0.0
H1795 H 0.97533 0.29888 0.82952 0.0
H1796 H 0.02802 0.19184 0.82927 0.0
C1797 C 0.0169 0.21721 0.80173 0.0
C1798 C 0.03027 0.76362 0.07246 0.0
C1799 C 0.06201 0.77757 0.06251 0.0
H1800 H 0.94519 0.72382 0.08024 0.0
C1801 C 0.02999 0.76313 0.05262 0.0
H1802 H 0.0533 0.77489 0.08021 0.0
C1803 C 0.96783 0.73609 0.05264 0.0
C1804 C 0.93605 0.72145 0.06254 0.0
H1805 H 0.05228 0.77398 0.04479 0.0
H1806 H 0.94535 0.72538 0.04481 0.0
C1807 C 0.96803 0.73524 0.07247 0.0
C1808 C 0.51488 0.77914 0.82216 0.0
C1809 C 0.52904 0.81098 0.81223 0.0
H1810 H 0.47506 0.69398 0.82988 0.0
C1811 C 0.51477 0.77923 0.80232 0.0
H1812 H 0.526 0.80203 0.82993 0.0
C1813 C 0.48779 0.71711 0.80229 0.0
C1814 C 0.47307 0.6852 0.81216 0.0
H1815 H 0.52577 0.80166 0.7945 0.0
H1816 H 0.47723 0.69477 0.79444 0.0
C1817 C 0.48659 0.71697 0.82213 0.0
C1818 C 0.02843 0.73881 0.57211 0.0
C1819 C 0.06053 0.72564 0.56216 0.0
H1820 H 0.94308 0.77781 0.5799 0.0
C1821 C 0.02903 0.74114 0.55227 0.0
H1822 H 0.05105 0.72676 0.57986 0.0
C1823 C 0.96692 0.76829 0.55229 0.0
C1824 C 0.9347 0.78189 0.5622 0.0
H1825 H 0.05166 0.73101 0.54444 0.0
H1826 H 0.94478 0.77978 0.54447 0.0
C1827 C 0.96625 0.76718 0.57213 0.0
C1828 C 0.01483 0.27813 0.32114 0.0
C1829 C 0.02952 0.3097 0.31121 0.0
H1830 H 0.97327 0.19403 0.32891 0.0
C1831 C 0.01408 0.2783 0.30131 0.0
H1832 H 0.02674 0.30065 0.32892 0.0
C1833 C 0.98523 0.21689 0.3013 0.0
C1834 C 0.97005 0.18531 0.3112 0.0
H1835 H 0.02537 0.30055 0.29349 0.0
H1836 H 0.97373 0.19479 0.29348 0.0
C1837 C 0.98498 0.21669 0.32114 0.0
C1838 C 0.53022 0.23562 0.05202 0.0
C1839 C 0.56225 0.22163 0.06192 0.0
H1840 H 0.44516 0.27216 0.04418 0.0
C1841 C 0.53014 0.23502 0.07185 0.0
H1842 H 0.55282 0.22514 0.04419 0.0
C1843 C 0.46752 0.26234 0.07185 0.0
C1844 C 0.43554 0.27574 0.0619 0.0
H1845 H 0.55317 0.22405 0.07962 0.0
H1846 H 0.4444 0.27334 0.07961 0.0
C1847 C 0.46766 0.26169 0.05201 0.0
C1848 C 0.52121 0.22107 0.68619 0.0
C1849 C 0.52924 0.18685 0.69606 0.0
H1850 H 0.48556 0.30704 0.67835 0.0
C1851 C 0.50761 0.2157 0.70588 0.0
H1852 H 0.53805 0.20075 0.6785 0.0
C1853 C 0.47856 0.27718 0.70582 0.0
C1854 C 0.47001 0.31117 0.69594 0.0
H1855 H 0.51373 0.19118 0.71366 0.0
H1856 H 0.46152 0.29734 0.71351 0.0
C1857 C 0.49187 0.28247 0.68613 0.0
C1858 C 0.4681 0.73602 0.43472 0.0
C1859 C 0.43531 0.72325 0.44462 0.0
H1860 H 0.5538 0.7753 0.42705 0.0
C1861 C 0.46581 0.73989 0.45454 0.0
H1862 H 0.44622 0.72314 0.42694 0.0
C1863 C 0.52766 0.76762 0.45462 0.0
C1864 C 0.5606 0.78073 0.44477 0.0
H1865 H 0.44262 0.7302 0.46235 0.0
H1866 H 0.54902 0.77993 0.46246 0.0
C1867 C 0.53002 0.76504 0.43479 0.0
C1868 C 0.98244 0.7779 0.20505 0.0
C1869 C 0.967 0.80913 0.19514 0.0
H1870 H 0.02375 0.69485 0.21287 0.0
C1871 C 0.9823 0.77793 0.18521 0.0
H1872 H 0.97077 0.80004 0.21287 0.0
C1873 C 0.01246 0.71685 0.18521 0.0
C1874 C 0.02777 0.68573 0.19515 0.0
H1875 H 0.97033 0.80027 0.17743 0.0
H1876 H 0.02453 0.6945 0.17743 0.0
C1877 C 0.01214 0.71695 0.20506 0.0
C1878 C 0.96793 0.23553 0.935 0.0
C1879 C 0.93625 0.22147 0.94495 0.0
H1880 H 0.05285 0.27553 0.92721 0.0
C1881 C 0.96812 0.23609 0.95484 0.0
H1882 H 0.94497 0.22414 0.92724 0.0
C1883 C 0.03017 0.2634 0.95482 0.0
C1884 C 0.06189 0.27806 0.94492 0.0
H1885 H 0.94583 0.22518 0.96267 0.0
H1886 H 0.0526 0.27425 0.96264 0.0
C1887 C 0.03003 0.2641 0.93498 0.0
loop_
_geom_bond_atom_site_label_1
_geom_bond_atom_site_label_2
_geom_bond_distance
_geom_bond_site_symmetry_2
_ccdc_geom_bond_type
Co0 O3 1.970 . S
Co0 N17 1.989 1_545 S
Co0 O25 1.967 . S
Co0 O32 1.920 . S
Co1 O4 1.966 . S
Co1 N10 2.022 . S
Co1 N18 1.993 1_545 S
Co1 O26 1.941 . S
C2 O3 1.258 . S
C2 O4 1.263 . S
O3 Co0 1.970 . S
O3 C2 1.258 . S
O4 Co1 1.966 . S
O4 C2 1.263 . S
C5 O6 1.235 . S
C5 O32 1.289 . S
O6 C5 1.235 . S
C7 C9 1.400 . S
C7 N10 1.351 . S
C7 C12 1.501 . S
C8 C9 1.387 . S
C8 N11 1.341 . S
C9 C7 1.400 . S
C9 C8 1.387 . S
N10 Co1 2.022 . S
N10 C7 1.351 . S
N10 N11 1.365 . S
N11 C8 1.341 . S
N11 N10 1.365 . S
N11 H31 0.862 . S
C12 C7 1.501 . S
C12 H13 0.961 . S
C12 H14 0.961 . S
C12 H15 0.960 . S
H13 C12 0.961 . S
H14 C12 0.961 . S
H15 C12 0.960 . S
C16 N17 1.342 . S
C16 C20 1.401 . S
C16 C21 1.499 . S
N17 Co0 1.989 1_565 S
N17 C16 1.342 . S
N17 N18 1.388 . S
N18 Co1 1.993 1_565 S
N18 N17 1.388 . S
N18 C19 1.346 . S
C19 N18 1.346 . S
C19 C20 1.396 . S
C19 C29 1.510 . S
C20 C16 1.401 . S
C20 C19 1.396 . S
C21 C16 1.499 . S
C21 H22 0.959 . S
C21 H23 0.960 . S
C21 H24 0.961 . S
H22 C21 0.959 . S
H23 C21 0.960 . S
H24 C21 0.961 . S
O25 Co0 1.967 . S
O25 C33 1.258 . S
O26 Co1 1.941 . S
O26 C33 1.266 . S
H27 C29 0.959 . S
H28 C29 0.961 . S
C29 C19 1.510 . S
C29 H27 0.959 . S
C29 H28 0.961 . S
C29 H30 0.960 . S
H30 C29 0.960 . S
H31 N11 0.862 . S
O32 Co0 1.920 . S
O32 C5 1.289 . S
C33 O25 1.258 . S
C33 O26 1.266 . S
Co34 O37 1.970 . S
Co34 N51 1.989 . S
Co34 O59 1.967 . S
Co34 O66 1.920 . S
Co35 O38 1.966 . S
Co35 N44 2.022 . S
Co35 N52 1.993 . S
Co35 O60 1.941 . S
C36 O37 1.258 . S
C36 O38 1.263 . S
O37 Co34 1.970 . S
O37 C36 1.258 . S
O38 Co35 1.966 . S
O38 C36 1.263 . S
C39 O40 1.235 1_545 S
C39 O66 1.289 . S
O40 C39 1.235 1_565 S
C41 C43 1.400 . S
C41 N44 1.351 . S
C41 C46 1.501 1_545 S
C42 C43 1.387 . S
C42 N45 1.341 . S
C43 C41 1.400 . S
C43 C42 1.387 . S
N44 Co35 2.022 . S
N44 C41 1.351 . S
N44 N45 1.365 . S
N45 C42 1.341 . S
N45 N44 1.365 . S
N45 H65 0.862 . S
C46 C41 1.501 1_565 S
C46 H47 0.961 . S
C46 H48 0.961 . S
C46 H49 0.960 . S
H47 C46 0.961 . S
H48 C46 0.961 . S
H49 C46 0.960 . S
C50 N51 1.342 . S
C50 C54 1.401 . S
C50 C55 1.499 . S
N51 Co34 1.989 . S
N51 C50 1.342 . S
N51 N52 1.388 . S
N52 Co35 1.993 . S
N52 N51 1.388 . S
N52 C53 1.346 . S
C53 N52 1.346 . S
C53 C54 1.396 . S
C53 C63 1.510 . S
C54 C50 1.401 . S
C54 C53 1.396 . S
C55 C50 1.499 . S
C55 H56 0.959 . S
C55 H57 0.960 . S
C55 H58 0.961 . S
H56 C55 0.959 . S
H57 C55 0.960 . S
H58 C55 0.961 . S
O59 Co34 1.967 . S
O59 C67 1.258 . S
O60 Co35 1.941 . S
O60 C67 1.266 . S
H61 C63 0.959 . S
H62 C63 0.961 1_565 S
C63 C53 1.510 . S
C63 H61 0.959 . S
C63 H62 0.961 1_545 S
C63 H64 0.960 . S
H64 C63 0.960 . S
H65 N45 0.862 . S
O66 Co34 1.920 . S
O66 C39 1.289 . S
C67 O59 1.258 . S
C67 O60 1.266 . S
Co68 O71 1.970 . S
Co68 N85 1.989 1_565 S
Co68 O93 1.967 . S
Co68 O100 1.920 . S
Co69 O72 1.966 . S
Co69 N78 2.022 . S
Co69 N86 1.993 1_565 S
Co69 O94 1.941 . S
C70 O71 1.258 . S
C70 O72 1.263 . S
O71 Co68 1.970 . S
O71 C70 1.258 . S
O72 Co69 1.966 . S
O72 C70 1.263 . S
C73 O74 1.235 . S
C73 O100 1.289 . S
O74 C73 1.235 . S
C75 C77 1.400 . S
C75 N78 1.351 . S
C75 C80 1.501 . S
C76 C77 1.387 . S
C76 N79 1.341 . S
C77 C75 1.400 . S
C77 C76 1.387 . S
N78 Co69 2.022 . S
N78 C75 1.351 . S
N78 N79 1.365 . S
N79 C76 1.341 . S
N79 N78 1.365 . S
N79 H99 0.862 . S
C80 C75 1.501 . S
C80 H81 0.961 . S
C80 H82 0.961 . S
C80 H83 0.960 . S
H81 C80 0.961 . S
H82 C80 0.961 . S
H83 C80 0.960 . S
C84 N85 1.342 . S
C84 C88 1.401 . S
C84 C89 1.499 . S
N85 Co68 1.989 1_545 S
N85 C84 1.342 . S
N85 N86 1.388 . S
N86 Co69 1.993 1_545 S
N86 N85 1.388 . S
N86 C87 1.346 . S
C87 N86 1.346 . S
C87 C88 1.396 . S
C87 C97 1.510 . S
C88 C84 1.401 . S
C88 C87 1.396 . S
C89 C84 1.499 . S
C89 H90 0.959 . S
C89 H91 0.960 . S
C89 H92 0.961 . S
H90 C89 0.959 . S
H91 C89 0.960 . S
H92 C89 0.961 . S
O93 Co68 1.967 . S
O93 C101 1.258 . S
O94 Co69 1.941 . S
O94 C101 1.266 . S
H95 C97 0.959 . S
H96 C97 0.961 . S
C97 C87 1.510 . S
C97 H95 0.959 . S
C97 H96 0.961 . S
C97 H98 0.960 . S
H98 C97 0.960 . S
H99 N79 0.862 . S
O100 Co68 1.920 . S
O100 C73 1.289 . S
C101 O93 1.258 . S
C101 O94 1.266 . S
Co102 O105 1.970 . S
Co102 N119 1.989 . S
Co102 O127 1.967 . S
Co102 O134 1.920 . S
Co103 O106 1.966 . S
Co103 N112 2.022 . S
Co103 N120 1.993 . S
Co103 O128 1.941 . S
C104 O105 1.258 . S
C104 O106 1.263 . S
O105 Co102 1.970 . S
O105 C104 1.258 . S
O106 Co103 1.966 . S
O106 C104 1.263 . S
C107 O108 1.235 1_565 S
C107 O134 1.289 . S
O108 C107 1.235 1_545 S
C109 C111 1.400 . S
C109 N112 1.351 . S
C109 C114 1.501 1_565 S
C110 C111 1.387 . S
C110 N113 1.341 . S
C111 C109 1.400 . S
C111 C110 1.387 . S
N112 Co103 2.022 . S
N112 C109 1.351 . S
N112 N113 1.365 . S
N113 C110 1.341 . S
N113 N112 1.365 . S
N113 H133 0.862 . S
C114 C109 1.501 1_545 S
C114 H115 0.961 . S
C114 H116 0.961 . S
C114 H117 0.960 . S
H115 C114 0.961 . S
H116 C114 0.961 . S
H117 C114 0.960 . S
C118 N119 1.342 . S
C118 C122 1.401 . S
C118 C123 1.499 . S
N119 Co102 1.989 . S
N119 C118 1.342 . S
N119 N120 1.388 . S
N120 Co103 1.993 . S
N120 N119 1.388 . S
N120 C121 1.346 . S
C121 N120 1.346 . S
C121 C122 1.396 . S
C121 C131 1.510 . S
C122 C118 1.401 . S
C122 C121 1.396 . S
C123 C118 1.499 . S
C123 H124 0.959 . S
C123 H125 0.960 . S
C123 H126 0.961 . S
H124 C123 0.959 . S
H125 C123 0.960 . S
H126 C123 0.961 . S
O127 Co102 1.967 . S
O127 C135 1.258 . S
O128 Co103 1.941 . S
O128 C135 1.266 . S
H129 C131 0.959 . S
H130 C131 0.961 1_545 S
C131 C121 1.510 . S
C131 H129 0.959 . S
C131 H130 0.961 1_565 S
C131 H132 0.960 . S
H132 C131 0.960 . S
H133 N113 0.862 . S
O134 Co102 1.920 . S
O134 C107 1.289 . S
C135 O127 1.258 . S
C135 O128 1.266 . S
Co136 O139 1.970 . S
Co136 N153 1.989 1_565 S
Co136 O161 1.967 . S
Co136 O168 1.920 . S
Co137 O140 1.966 . S
Co137 N146 2.022 . S
Co137 N154 1.993 1_565 S
Co137 O162 1.941 . S
C138 O139 1.258 . S
C138 O140 1.263 . S
O139 Co136 1.970 . S
O139 C138 1.258 . S
O140 Co137 1.966 . S
O140 C138 1.263 . S
C141 O142 1.235 . S
C141 O168 1.289 . S
O142 C141 1.235 . S
C143 C145 1.400 . S
C143 N146 1.351 . S
C143 C148 1.501 . S
C144 C145 1.387 . S
C144 N147 1.341 . S
C145 C143 1.400 . S
C145 C144 1.387 . S
N146 Co137 2.022 . S
N146 C143 1.351 . S
N146 N147 1.365 . S
N147 C144 1.341 . S
N147 N146 1.365 . S
N147 H167 0.862 . S
C148 C143 1.501 . S
C148 H149 0.961 . S
C148 H150 0.961 . S
C148 H151 0.960 . S
H149 C148 0.961 . S
H150 C148 0.961 . S
H151 C148 0.960 . S
C152 N153 1.342 . S
C152 C156 1.401 . S
C152 C157 1.499 . S
N153 Co136 1.989 1_545 S
N153 C152 1.342 . S
N153 N154 1.388 . S
N154 Co137 1.993 1_545 S
N154 N153 1.388 . S
N154 C155 1.346 . S
C155 N154 1.346 . S
C155 C156 1.396 . S
C155 C165 1.510 . S
C156 C152 1.401 . S
C156 C155 1.396 . S
C157 C152 1.499 . S
C157 H158 0.959 . S
C157 H159 0.960 . S
C157 H160 0.961 . S
H158 C157 0.959 . S
H159 C157 0.960 . S
H160 C157 0.961 . S
O161 Co136 1.967 . S
O161 C169 1.258 . S
O162 Co137 1.941 . S
O162 C169 1.266 . S
H163 C165 0.959 . S
H164 C165 0.961 . S
C165 C155 1.510 . S
C165 H163 0.959 . S
C165 H164 0.961 . S
C165 H166 0.960 . S
H166 C165 0.960 . S
H167 N147 0.862 . S
O168 Co136 1.920 . S
O168 C141 1.289 . S
C169 O161 1.258 . S
C169 O162 1.266 . S
Co170 O173 1.970 . S
Co170 N187 1.989 . S
Co170 O195 1.967 . S
Co170 O202 1.920 . S
Co171 O174 1.966 . S
Co171 N180 2.022 . S
Co171 N188 1.993 . S
Co171 O196 1.941 . S
C172 O173 1.258 . S
C172 O174 1.263 . S
O173 Co170 1.970 . S
O173 C172 1.258 . S
O174 Co171 1.966 . S
O174 C172 1.263 . S
C175 O176 1.235 1_545 S
C175 O202 1.289 . S
O176 C175 1.235 1_565 S
C177 C179 1.400 . S
C177 N180 1.351 . S
C177 C182 1.501 1_545 S
C178 C179 1.387 . S
C178 N181 1.341 . S
C179 C177 1.400 . S
C179 C178 1.387 . S
N180 Co171 2.022 . S
N180 C177 1.351 . S
N180 N181 1.365 . S
N181 C178 1.341 . S
N181 N180 1.365 . S
N181 H201 0.862 . S
C182 C177 1.501 1_565 S
C182 H183 0.961 . S
C182 H184 0.961 . S
C182 H185 0.960 . S
H183 C182 0.961 . S
H184 C182 0.961 . S
H185 C182 0.960 . S
C186 N187 1.342 . S
C186 C190 1.401 . S
C186 C191 1.499 . S
N187 Co170 1.989 . S
N187 C186 1.342 . S
N187 N188 1.388 . S
N188 Co171 1.993 . S
N188 N187 1.388 . S
N188 C189 1.346 . S
C189 N188 1.346 . S
C189 C190 1.396 . S
C189 C199 1.510 . S
C190 C186 1.401 . S
C190 C189 1.396 . S
C191 C186 1.499 . S
C191 H192 0.959 . S
C191 H193 0.960 . S
C191 H194 0.961 . S
H192 C191 0.959 . S
H193 C191 0.960 . S
H194 C191 0.961 . S
O195 Co170 1.967 . S
O195 C203 1.258 . S
O196 Co171 1.941 . S
O196 C203 1.266 . S
H197 C199 0.959 . S
H198 C199 0.961 1_565 S
C199 C189 1.510 . S
C199 H197 0.959 . S
C199 H198 0.961 1_545 S
C199 H200 0.960 . S
H200 C199 0.960 . S
H201 N181 0.862 . S
O202 Co170 1.920 . S
O202 C175 1.289 . S
C203 O195 1.258 . S
C203 O196 1.266 . S
Co204 O207 1.970 . S
Co204 N221 1.989 1_545 S
Co204 O229 1.967 . S
Co204 O236 1.920 . S
Co205 O208 1.966 . S
Co205 N214 2.022 . S
Co205 N222 1.993 1_545 S
Co205 O230 1.941 . S
C206 O207 1.258 . S
C206 O208 1.263 . S
O207 Co204 1.970 . S
O207 C206 1.258 . S
O208 Co205 1.966 . S
O208 C206 1.263 . S
C209 O210 1.235 . S
C209 O236 1.289 . S
O210 C209 1.235 . S
C211 C213 1.400 . S
C211 N214 1.351 . S
C211 C216 1.501 . S
C212 C213 1.387 . S
C212 N215 1.341 . S
C213 C211 1.400 . S
C213 C212 1.387 . S
N214 Co205 2.022 . S
N214 C211 1.351 . S
N214 N215 1.365 . S
N215 C212 1.341 . S
N215 N214 1.365 . S
N215 H235 0.862 . S
C216 C211 1.501 . S
C216 H217 0.961 . S
C216 H218 0.961 . S
C216 H219 0.960 . S
H217 C216 0.961 . S
H218 C216 0.961 . S
H219 C216 0.960 . S
C220 N221 1.342 . S
C220 C224 1.401 . S
C220 C225 1.499 . S
N221 Co204 1.989 1_565 S
N221 C220 1.342 . S
N221 N222 1.388 . S
N222 Co205 1.993 1_565 S
N222 N221 1.388 . S
N222 C223 1.346 . S
C223 N222 1.346 . S
C223 C224 1.396 . S
C223 C233 1.510 . S
C224 C220 1.401 . S
C224 C223 1.396 . S
C225 C220 1.499 . S
C225 H226 0.959 . S
C225 H227 0.960 . S
C225 H228 0.961 . S
H226 C225 0.959 . S
H227 C225 0.960 . S
H228 C225 0.961 . S
O229 Co204 1.967 . S
O229 C237 1.258 . S
O230 Co205 1.941 . S
O230 C237 1.266 . S
H231 C233 0.959 . S
H232 C233 0.961 . S
C233 C223 1.510 . S
C233 H231 0.959 . S
C233 H232 0.961 . S
C233 H234 0.960 . S
H234 C233 0.960 . S
H235 N215 0.862 . S
O236 Co204 1.920 . S
O236 C209 1.289 . S
C237 O229 1.258 . S
C237 O230 1.266 . S
Co238 O241 1.970 . S
Co238 N255 1.989 . S
Co238 O263 1.967 . S
Co238 O270 1.920 . S
Co239 O242 1.966 . S
Co239 N248 2.022 . S
Co239 N256 1.993 . S
Co239 O264 1.941 . S
C240 O241 1.258 . S
C240 O242 1.263 . S
O241 Co238 1.970 . S
O241 C240 1.258 . S
O242 Co239 1.966 . S
O242 C240 1.263 . S
C243 O244 1.235 1_565 S
C243 O270 1.289 . S
O244 C243 1.235 1_545 S
C245 C247 1.400 . S
C245 N248 1.351 . S
C245 C250 1.501 1_565 S
C246 C247 1.387 . S
C246 N249 1.341 . S
C247 C245 1.400 . S
C247 C246 1.387 . S
N248 Co239 2.022 . S
N248 C245 1.351 . S
N248 N249 1.365 . S
N249 C246 1.341 . S
N249 N248 1.365 . S
N249 H269 0.862 . S
C250 C245 1.501 1_545 S
C250 H251 0.961 . S
C250 H252 0.961 . S
C250 H253 0.960 . S
H251 C250 0.961 . S
H252 C250 0.961 . S
H253 C250 0.960 . S
C254 N255 1.342 . S
C254 C258 1.401 . S
C254 C259 1.499 . S
N255 Co238 1.989 . S
N255 C254 1.342 . S
N255 N256 1.388 . S
N256 Co239 1.993 . S
N256 N255 1.388 . S
N256 C257 1.346 . S
C257 N256 1.346 . S
C257 C258 1.396 . S
C257 C267 1.510 . S
C258 C254 1.401 . S
C258 C257 1.396 . S
C259 C254 1.499 . S
C259 H260 0.959 . S
C259 H261 0.960 . S
C259 H262 0.961 . S
H260 C259 0.959 . S
H261 C259 0.960 . S
H262 C259 0.961 . S
O263 Co238 1.967 . S
O263 C271 1.258 . S
O264 Co239 1.941 . S
O264 C271 1.266 . S
H265 C267 0.959 . S
H266 C267 0.961 1_545 S
C267 C257 1.510 . S
C267 H265 0.959 . S
C267 H266 0.961 1_565 S
C267 H268 0.960 . S
H268 C267 0.960 . S
H269 N249 0.862 . S
O270 Co238 1.920 . S
O270 C243 1.289 . S
C271 O263 1.258 . S
C271 O264 1.266 . S
Co272 O275 1.970 . S
Co272 N289 1.989 1_565 S
Co272 O297 1.967 . S
Co272 O304 1.920 . S
Co273 O276 1.966 . S
Co273 N282 2.022 . S
Co273 N290 1.993 1_565 S
Co273 O298 1.941 . S
C274 O275 1.258 . S
C274 O276 1.263 . S
O275 Co272 1.970 . S
O275 C274 1.258 . S
O276 Co273 1.966 . S
O276 C274 1.263 . S
C277 O278 1.235 . S
C277 O304 1.289 . S
O278 C277 1.235 . S
C279 C281 1.400 . S
C279 N282 1.351 . S
C279 C284 1.501 . S
C280 C281 1.387 . S
C280 N283 1.341 . S
C281 C279 1.400 . S
C281 C280 1.387 . S
N282 Co273 2.022 . S
N282 C279 1.351 . S
N282 N283 1.365 . S
N283 C280 1.341 . S
N283 N282 1.365 . S
N283 H303 0.862 . S
C284 C279 1.501 . S
C284 H285 0.961 . S
C284 H286 0.961 . S
C284 H287 0.960 . S
H285 C284 0.961 . S
H286 C284 0.961 . S
H287 C284 0.960 . S
C288 N289 1.342 . S
C288 C292 1.401 . S
C288 C293 1.499 . S
N289 Co272 1.989 1_545 S
N289 C288 1.342 . S
N289 N290 1.388 . S
N290 Co273 1.993 1_545 S
N290 N289 1.388 . S
N290 C291 1.346 . S
C291 N290 1.346 . S
C291 C292 1.396 . S
C291 C301 1.510 . S
C292 C288 1.401 . S
C292 C291 1.396 . S
C293 C288 1.499 . S
C293 H294 0.959 . S
C293 H295 0.960 . S
C293 H296 0.961 . S
H294 C293 0.959 . S
H295 C293 0.960 . S
H296 C293 0.961 . S
O297 Co272 1.967 . S
O297 C305 1.258 . S
O298 Co273 1.941 . S
O298 C305 1.266 . S
H299 C301 0.959 . S
H300 C301 0.961 . S
C301 C291 1.510 . S
C301 H299 0.959 . S
C301 H300 0.961 . S
C301 H302 0.960 . S
H302 C301 0.960 . S
H303 N283 0.862 . S
O304 Co272 1.920 . S
O304 C277 1.289 . S
C305 O297 1.258 . S
C305 O298 1.266 . S
Co306 O309 1.970 . S
Co306 N323 1.989 . S
Co306 O331 1.967 . S
Co306 O338 1.920 . S
Co307 O310 1.966 . S
Co307 N316 2.022 . S
Co307 N324 1.993 . S
Co307 O332 1.941 . S
C308 O309 1.258 . S
C308 O310 1.263 . S
O309 Co306 1.970 . S
O309 C308 1.258 . S
O310 Co307 1.966 . S
O310 C308 1.263 . S
C311 O312 1.235 1_565 S
C311 O338 1.289 . S
O312 C311 1.235 1_545 S
C313 C315 1.400 . S
C313 N316 1.351 . S
C313 C318 1.501 1_565 S
C314 C315 1.387 . S
C314 N317 1.341 . S
C315 C313 1.400 . S
C315 C314 1.387 . S
N316 Co307 2.022 . S
N316 C313 1.351 . S
N316 N317 1.365 . S
N317 C314 1.341 . S
N317 N316 1.365 . S
N317 H337 0.862 . S
C318 C313 1.501 1_545 S
C318 H319 0.961 . S
C318 H320 0.961 . S
C318 H321 0.960 . S
H319 C318 0.961 . S
H320 C318 0.961 . S
H321 C318 0.960 . S
C322 N323 1.342 . S
C322 C326 1.401 . S
C322 C327 1.499 . S
N323 Co306 1.989 . S
N323 C322 1.342 . S
N323 N324 1.388 . S
N324 Co307 1.993 . S
N324 N323 1.388 . S
N324 C325 1.346 . S
C325 N324 1.346 . S
C325 C326 1.396 . S
C325 C335 1.510 . S
C326 C322 1.401 . S
C326 C325 1.396 . S
C327 C322 1.499 . S
C327 H328 0.959 . S
C327 H329 0.960 . S
C327 H330 0.961 . S
H328 C327 0.959 . S
H329 C327 0.960 . S
H330 C327 0.961 . S
O331 Co306 1.967 . S
O331 C339 1.258 . S
O332 Co307 1.941 . S
O332 C339 1.266 . S
H333 C335 0.959 . S
H334 C335 0.961 1_545 S
C335 C325 1.510 . S
C335 H333 0.959 . S
C335 H334 0.961 1_565 S
C335 H336 0.960 . S
H336 C335 0.960 . S
H337 N317 0.862 . S
O338 Co306 1.920 . S
O338 C311 1.289 . S
C339 O331 1.258 . S
C339 O332 1.266 . S
Co340 O343 1.970 . S
Co340 N357 1.989 1_545 S
Co340 O365 1.967 . S
Co340 O372 1.920 . S
Co341 O344 1.966 . S
Co341 N350 2.022 . S
Co341 N358 1.993 1_545 S
Co341 O366 1.941 . S
C342 O343 1.258 . S
C342 O344 1.263 . S
O343 Co340 1.970 . S
O343 C342 1.258 . S
O344 Co341 1.966 . S
O344 C342 1.263 . S
C345 O346 1.235 . S
C345 O372 1.289 . S
O346 C345 1.235 . S
C347 C349 1.400 . S
C347 N350 1.351 . S
C347 C352 1.501 . S
C348 C349 1.387 . S
C348 N351 1.341 . S
C349 C347 1.400 . S
C349 C348 1.387 . S
N350 Co341 2.022 . S
N350 C347 1.351 . S
N350 N351 1.365 . S
N351 C348 1.341 . S
N351 N350 1.365 . S
N351 H371 0.862 . S
C352 C347 1.501 . S
C352 H353 0.961 . S
C352 H354 0.961 . S
C352 H355 0.960 . S
H353 C352 0.961 . S
H354 C352 0.961 . S
H355 C352 0.960 . S
C356 N357 1.342 . S
C356 C360 1.401 . S
C356 C361 1.499 . S
N357 Co340 1.989 1_565 S
N357 C356 1.342 . S
N357 N358 1.388 . S
N358 Co341 1.993 1_565 S
N358 N357 1.388 . S
N358 C359 1.346 . S
C359 N358 1.346 . S
C359 C360 1.396 . S
C359 C369 1.510 . S
C360 C356 1.401 . S
C360 C359 1.396 . S
C361 C356 1.499 . S
C361 H362 0.959 . S
C361 H363 0.960 . S
C361 H364 0.961 . S
H362 C361 0.959 . S
H363 C361 0.960 . S
H364 C361 0.961 . S
O365 Co340 1.967 . S
O365 C373 1.258 . S
O366 Co341 1.941 . S
O366 C373 1.266 . S
H367 C369 0.959 . S
H368 C369 0.961 . S
C369 C359 1.510 . S
C369 H367 0.959 . S
C369 H368 0.961 . S
C369 H370 0.960 . S
H370 C369 0.960 . S
H371 N351 0.862 . S
O372 Co340 1.920 . S
O372 C345 1.289 . S
C373 O365 1.258 . S
C373 O366 1.266 . S
Co374 O377 1.970 . S
Co374 N391 1.989 . S
Co374 O399 1.967 . S
Co374 O406 1.920 . S
Co375 O378 1.966 . S
Co375 N384 2.022 . S
Co375 N392 1.993 . S
Co375 O400 1.941 . S
C376 O377 1.258 . S
C376 O378 1.263 . S
O377 Co374 1.970 . S
O377 C376 1.258 . S
O378 Co375 1.966 . S
O378 C376 1.263 . S
C379 O380 1.235 1_545 S
C379 O406 1.289 . S
O380 C379 1.235 1_565 S
C381 C383 1.400 . S
C381 N384 1.351 . S
C381 C386 1.501 1_545 S
C382 C383 1.387 . S
C382 N385 1.341 . S
C383 C381 1.400 . S
C383 C382 1.387 . S
N384 Co375 2.022 . S
N384 C381 1.351 . S
N384 N385 1.365 . S
N385 C382 1.341 . S
N385 N384 1.365 . S
N385 H405 0.862 . S
C386 C381 1.501 1_565 S
C386 H387 0.961 . S
C386 H388 0.961 . S
C386 H389 0.960 . S
H387 C386 0.961 . S
H388 C386 0.961 . S
H389 C386 0.960 . S
C390 N391 1.342 . S
C390 C394 1.401 . S
C390 C395 1.499 . S
N391 Co374 1.989 . S
N391 C390 1.342 . S
N391 N392 1.388 . S
N392 Co375 1.993 . S
N392 N391 1.388 . S
N392 C393 1.346 . S
C393 N392 1.346 . S
C393 C394 1.396 . S
C393 C403 1.510 . S
C394 C390 1.401 . S
C394 C393 1.396 . S
C395 C390 1.499 . S
C395 H396 0.959 . S
C395 H397 0.960 . S
C395 H398 0.961 . S
H396 C395 0.959 . S
H397 C395 0.960 . S
H398 C395 0.961 . S
O399 Co374 1.967 . S
O399 C407 1.258 . S
O400 Co375 1.941 . S
O400 C407 1.266 . S
H401 C403 0.959 . S
H402 C403 0.961 1_565 S
C403 C393 1.510 . S
C403 H401 0.959 . S
C403 H402 0.961 1_545 S
C403 H404 0.960 . S
H404 C403 0.960 . S
H405 N385 0.862 . S
O406 Co374 1.920 . S
O406 C379 1.289 . S
C407 O399 1.258 . S
C407 O400 1.266 . S
Co408 O411 1.970 . S
Co408 N425 1.989 1_545 S
Co408 O433 1.967 . S
Co408 O440 1.920 . S
Co409 O412 1.966 . S
Co409 N418 2.022 . S
Co409 N426 1.993 1_545 S
Co409 O434 1.941 . S
C410 O411 1.258 . S
C410 O412 1.263 . S
O411 Co408 1.970 . S
O411 C410 1.258 . S
O412 Co409 1.966 . S
O412 C410 1.263 . S
C413 O414 1.235 . S
C413 O440 1.289 . S
O414 C413 1.235 . S
C415 C417 1.400 . S
C415 N418 1.351 . S
C415 C420 1.501 . S
C416 C417 1.387 . S
C416 N419 1.341 . S
C417 C415 1.400 . S
C417 C416 1.387 . S
N418 Co409 2.022 . S
N418 C415 1.351 . S
N418 N419 1.365 . S
N419 C416 1.341 . S
N419 N418 1.365 . S
N419 H439 0.862 . S
C420 C415 1.501 . S
C420 H421 0.961 . S
C420 H422 0.961 . S
C420 H423 0.960 . S
H421 C420 0.961 . S
H422 C420 0.961 . S
H423 C420 0.960 . S
C424 N425 1.342 . S
C424 C428 1.401 . S
C424 C429 1.499 . S
N425 Co408 1.989 1_565 S
N425 C424 1.342 . S
N425 N426 1.388 . S
N426 Co409 1.993 1_565 S
N426 N425 1.388 . S
N426 C427 1.346 . S
C427 N426 1.346 . S
C427 C428 1.396 . S
C427 C437 1.510 . S
C428 C424 1.401 . S
C428 C427 1.396 . S
C429 C424 1.499 . S
C429 H430 0.959 . S
C429 H431 0.960 . S
C429 H432 0.961 . S
H430 C429 0.959 . S
H431 C429 0.960 . S
H432 C429 0.961 . S
O433 Co408 1.967 . S
O433 C441 1.258 . S
O434 Co409 1.941 . S
O434 C441 1.266 . S
H435 C437 0.959 . S
H436 C437 0.961 . S
C437 C427 1.510 . S
C437 H435 0.959 . S
C437 H436 0.961 . S
C437 H438 0.960 . S
H438 C437 0.960 . S
H439 N419 0.862 . S
O440 Co408 1.920 . S
O440 C413 1.289 . S
C441 O433 1.258 . S
C441 O434 1.266 . S
Co442 O445 1.970 . S
Co442 N459 1.989 . S
Co442 O467 1.967 . S
Co442 O474 1.920 . S
Co443 O446 1.966 . S
Co443 N452 2.022 . S
Co443 N460 1.993 . S
Co443 O468 1.941 . S
C444 O445 1.258 . S
C444 O446 1.263 . S
O445 Co442 1.970 . S
O445 C444 1.258 . S
O446 Co443 1.966 . S
O446 C444 1.263 . S
C447 O448 1.235 1_565 S
C447 O474 1.289 . S
O448 C447 1.235 1_545 S
C449 C451 1.400 . S
C449 N452 1.351 . S
C449 C454 1.501 1_565 S
C450 C451 1.387 . S
C450 N453 1.341 . S
C451 C449 1.400 . S
C451 C450 1.387 . S
N452 Co443 2.022 . S
N452 C449 1.351 . S
N452 N453 1.365 . S
N453 C450 1.341 . S
N453 N452 1.365 . S
N453 H473 0.862 . S
C454 C449 1.501 1_545 S
C454 H455 0.961 . S
C454 H456 0.961 . S
C454 H457 0.960 . S
H455 C454 0.961 . S
H456 C454 0.961 . S
H457 C454 0.960 . S
C458 N459 1.342 . S
C458 C462 1.401 . S
C458 C463 1.499 . S
N459 Co442 1.989 . S
N459 C458 1.342 . S
N459 N460 1.388 . S
N460 Co443 1.993 . S
N460 N459 1.388 . S
N460 C461 1.346 . S
C461 N460 1.346 . S
C461 C462 1.396 . S
C461 C471 1.510 . S
C462 C458 1.401 . S
C462 C461 1.396 . S
C463 C458 1.499 . S
C463 H464 0.959 . S
C463 H465 0.960 . S
C463 H466 0.961 . S
H464 C463 0.959 . S
H465 C463 0.960 . S
H466 C463 0.961 . S
O467 Co442 1.967 . S
O467 C475 1.258 . S
O468 Co443 1.941 . S
O468 C475 1.266 . S
H469 C471 0.959 . S
H470 C471 0.961 1_545 S
C471 C461 1.510 . S
C471 H469 0.959 . S
C471 H470 0.961 1_565 S
C471 H472 0.960 . S
H472 C471 0.960 . S
H473 N453 0.862 . S
O474 Co442 1.920 . S
O474 C447 1.289 . S
C475 O467 1.258 . S
C475 O468 1.266 . S
Co476 O479 1.970 . S
Co476 N493 1.989 1_565 S
Co476 O501 1.967 . S
Co476 O508 1.920 . S
Co477 O480 1.966 . S
Co477 N486 2.022 . S
Co477 N494 1.993 1_565 S
Co477 O502 1.941 . S
C478 O479 1.258 . S
C478 O480 1.263 . S
O479 Co476 1.970 . S
O479 C478 1.258 . S
O480 Co477 1.966 . S
O480 C478 1.263 . S
C481 O482 1.235 . S
C481 O508 1.289 . S
O482 C481 1.235 . S
C483 C485 1.400 . S
C483 N486 1.351 . S
C483 C488 1.501 . S
C484 C485 1.387 . S
C484 N487 1.341 . S
C485 C483 1.400 . S
C485 C484 1.387 . S
N486 Co477 2.022 . S
N486 C483 1.351 . S
N486 N487 1.365 . S
N487 C484 1.341 . S
N487 N486 1.365 . S
N487 H507 0.862 . S
C488 C483 1.501 . S
C488 H489 0.961 . S
C488 H490 0.961 . S
C488 H491 0.960 . S
H489 C488 0.961 . S
H490 C488 0.961 . S
H491 C488 0.960 . S
C492 N493 1.342 . S
C492 C496 1.401 . S
C492 C497 1.499 . S
N493 Co476 1.989 1_545 S
N493 C492 1.342 . S
N493 N494 1.388 . S
N494 Co477 1.993 1_545 S
N494 N493 1.388 . S
N494 C495 1.346 . S
C495 N494 1.346 . S
C495 C496 1.396 . S
C495 C505 1.510 . S
C496 C492 1.401 . S
C496 C495 1.396 . S
C497 C492 1.499 . S
C497 H498 0.959 . S
C497 H499 0.960 . S
C497 H500 0.961 . S
H498 C497 0.959 . S
H499 C497 0.960 . S
H500 C497 0.961 . S
O501 Co476 1.967 . S
O501 C509 1.258 . S
O502 Co477 1.941 . S
O502 C509 1.266 . S
H503 C505 0.959 . S
H504 C505 0.961 . S
C505 C495 1.510 . S
C505 H503 0.959 . S
C505 H504 0.961 . S
C505 H506 0.960 . S
H506 C505 0.960 . S
H507 N487 0.862 . S
O508 Co476 1.920 . S
O508 C481 1.289 . S
C509 O501 1.258 . S
C509 O502 1.266 . S
Co510 O513 1.970 . S
Co510 N527 1.989 . S
Co510 O535 1.967 . S
Co510 O542 1.920 . S
Co511 O514 1.966 . S
Co511 N520 2.022 . S
Co511 N528 1.993 . S
Co511 O536 1.941 . S
C512 O513 1.258 . S
C512 O514 1.263 . S
O513 Co510 1.970 . S
O513 C512 1.258 . S
O514 Co511 1.966 . S
O514 C512 1.263 . S
C515 O516 1.235 1_545 S
C515 O542 1.289 . S
O516 C515 1.235 1_565 S
C517 C519 1.400 . S
C517 N520 1.351 . S
C517 C522 1.501 1_545 S
C518 C519 1.387 . S
C518 N521 1.341 . S
C519 C517 1.400 . S
C519 C518 1.387 . S
N520 Co511 2.022 . S
N520 C517 1.351 . S
N520 N521 1.365 . S
N521 C518 1.341 . S
N521 N520 1.365 . S
N521 H541 0.862 . S
C522 C517 1.501 1_565 S
C522 H523 0.961 . S
C522 H524 0.961 . S
C522 H525 0.960 . S
H523 C522 0.961 . S
H524 C522 0.961 . S
H525 C522 0.960 . S
C526 N527 1.342 . S
C526 C530 1.401 . S
C526 C531 1.499 . S
N527 Co510 1.989 . S
N527 C526 1.342 . S
N527 N528 1.388 . S
N528 Co511 1.993 . S
N528 N527 1.388 . S
N528 C529 1.346 . S
C529 N528 1.346 . S
C529 C530 1.396 . S
C529 C539 1.510 . S
C530 C526 1.401 . S
C530 C529 1.396 . S
C531 C526 1.499 . S
C531 H532 0.959 . S
C531 H533 0.960 . S
C531 H534 0.961 . S
H532 C531 0.959 . S
H533 C531 0.960 . S
H534 C531 0.961 . S
O535 Co510 1.967 . S
O535 C543 1.258 . S
O536 Co511 1.941 . S
O536 C543 1.266 . S
H537 C539 0.959 . S
H538 C539 0.961 1_565 S
C539 C529 1.510 . S
C539 H537 0.959 . S
C539 H538 0.961 1_545 S
C539 H540 0.960 . S
H540 C539 0.960 . S
H541 N521 0.862 . S
O542 Co510 1.920 . S
O542 C515 1.289 . S
C543 O535 1.258 . S
C543 O536 1.266 . S
Co544 O547 1.970 . S
Co544 N561 1.989 . S
Co544 O569 1.967 . S
Co544 O576 1.920 . S
Co545 O548 1.966 . S
Co545 N554 2.022 . S
Co545 N562 1.993 . S
Co545 O570 1.941 . S
C546 O547 1.258 . S
C546 O548 1.263 . S
O547 Co544 1.970 . S
O547 C546 1.258 . S
O548 Co545 1.966 . S
O548 C546 1.263 . S
C549 O550 1.235 . S
C549 O576 1.289 . S
O550 C549 1.235 . S
C551 C553 1.400 . S
C551 N554 1.351 . S
C551 C556 1.501 . S
C552 C553 1.387 . S
C552 N555 1.341 . S
C553 C551 1.400 . S
C553 C552 1.387 . S
N554 Co545 2.022 . S
N554 C551 1.351 . S
N554 N555 1.365 . S
N555 C552 1.341 . S
N555 N554 1.365 . S
N555 H575 0.862 . S
C556 C551 1.501 . S
C556 H557 0.961 . S
C556 H558 0.961 . S
C556 H559 0.960 . S
H557 C556 0.961 . S
H558 C556 0.961 . S
H559 C556 0.960 . S
C560 N561 1.342 . S
C560 C564 1.401 . S
C560 C565 1.499 . S
N561 Co544 1.989 . S
N561 C560 1.342 . S
N561 N562 1.388 . S
N562 Co545 1.993 . S
N562 N561 1.388 . S
N562 C563 1.346 . S
C563 N562 1.346 . S
C563 C564 1.396 . S
C563 C573 1.510 . S
C564 C560 1.401 . S
C564 C563 1.396 . S
C565 C560 1.499 . S
C565 H566 0.959 . S
C565 H567 0.960 . S
C565 H568 0.961 . S
H566 C565 0.959 . S
H567 C565 0.960 . S
H568 C565 0.961 . S
O569 Co544 1.967 . S
O569 C577 1.258 . S
O570 Co545 1.941 . S
O570 C577 1.266 . S
H571 C573 0.959 . S
H572 C573 0.961 . S
C573 C563 1.510 . S
C573 H571 0.959 . S
C573 H572 0.961 . S
C573 H574 0.960 . S
H574 C573 0.960 . S
H575 N555 0.862 . S
O576 Co544 1.920 . S
O576 C549 1.289 . S
C577 O569 1.258 . S
C577 O570 1.266 . S
Co578 O581 1.970 . S
Co578 N595 1.989 . S
Co578 O603 1.967 . S
Co578 O610 1.920 . S
Co579 O582 1.966 . S
Co579 N588 2.022 . S
Co579 N596 1.993 . S
Co579 O604 1.941 . S
C580 O581 1.258 . S
C580 O582 1.263 . S
O581 Co578 1.970 . S
O581 C580 1.258 . S
O582 Co579 1.966 . S
O582 C580 1.263 . S
C583 O584 1.235 . S
C583 O610 1.289 . S
O584 C583 1.235 . S
C585 C587 1.400 . S
C585 N588 1.351 . S
C585 C590 1.501 . S
C586 C587 1.387 . S
C586 N589 1.341 . S
C587 C585 1.400 . S
C587 C586 1.387 . S
N588 Co579 2.022 . S
N588 C585 1.351 . S
N588 N589 1.365 . S
N589 C586 1.341 . S
N589 N588 1.365 . S
N589 H609 0.862 . S
C590 C585 1.501 . S
C590 H591 0.961 . S
C590 H592 0.961 . S
C590 H593 0.960 . S
H591 C590 0.961 . S
H592 C590 0.961 . S
H593 C590 0.960 . S
C594 N595 1.342 . S
C594 C598 1.401 . S
C594 C599 1.499 . S
N595 Co578 1.989 . S
N595 C594 1.342 . S
N595 N596 1.388 . S
N596 Co579 1.993 . S
N596 N595 1.388 . S
N596 C597 1.346 . S
C597 N596 1.346 . S
C597 C598 1.396 . S
C597 C607 1.510 . S
C598 C594 1.401 . S
C598 C597 1.396 . S
C599 C594 1.499 . S
C599 H600 0.959 . S
C599 H601 0.960 . S
C599 H602 0.961 . S
H600 C599 0.959 . S
H601 C599 0.960 . S
H602 C599 0.961 . S
O603 Co578 1.967 . S
O603 C611 1.258 . S
O604 Co579 1.941 . S
O604 C611 1.266 . S
H605 C607 0.959 . S
H606 C607 0.961 . S
C607 C597 1.510 . S
C607 H605 0.959 . S
C607 H606 0.961 . S
C607 H608 0.960 . S
H608 C607 0.960 . S
H609 N589 0.862 . S
O610 Co578 1.920 . S
O610 C583 1.289 . S
C611 O603 1.258 . S
C611 O604 1.266 . S
Co612 O615 1.970 . S
Co612 N629 1.989 . S
Co612 O637 1.967 . S
Co612 O644 1.920 . S
Co613 O616 1.966 . S
Co613 N622 2.022 . S
Co613 N630 1.993 . S
Co613 O638 1.941 . S
C614 O615 1.258 . S
C614 O616 1.263 . S
O615 Co612 1.970 . S
O615 C614 1.258 . S
O616 Co613 1.966 . S
O616 C614 1.263 . S
C617 O618 1.235 . S
C617 O644 1.289 . S
O618 C617 1.235 . S
C619 C621 1.400 . S
C619 N622 1.351 . S
C619 C624 1.501 . S
C620 C621 1.387 . S
C620 N623 1.341 . S
C621 C619 1.400 . S
C621 C620 1.387 . S
N622 Co613 2.022 . S
N622 C619 1.351 . S
N622 N623 1.365 . S
N623 C620 1.341 . S
N623 N622 1.365 . S
N623 H643 0.862 . S
C624 C619 1.501 . S
C624 H625 0.961 . S
C624 H626 0.961 . S
C624 H627 0.960 . S
H625 C624 0.961 . S
H626 C624 0.961 . S
H627 C624 0.960 . S
C628 N629 1.342 . S
C628 C632 1.401 . S
C628 C633 1.499 . S
N629 Co612 1.989 . S
N629 C628 1.342 . S
N629 N630 1.388 . S
N630 Co613 1.993 . S
N630 N629 1.388 . S
N630 C631 1.346 . S
C631 N630 1.346 . S
C631 C632 1.396 . S
C631 C641 1.510 . S
C632 C628 1.401 . S
C632 C631 1.396 . S
C633 C628 1.499 . S
C633 H634 0.959 . S
C633 H635 0.960 . S
C633 H636 0.961 . S
H634 C633 0.959 . S
H635 C633 0.960 . S
H636 C633 0.961 . S
O637 Co612 1.967 . S
O637 C645 1.258 . S
O638 Co613 1.941 . S
O638 C645 1.266 . S
H639 C641 0.959 . S
H640 C641 0.961 . S
C641 C631 1.510 . S
C641 H639 0.959 . S
C641 H640 0.961 . S
C641 H642 0.960 . S
H642 C641 0.960 . S
H643 N623 0.862 . S
O644 Co612 1.920 . S
O644 C617 1.289 . S
C645 O637 1.258 . S
C645 O638 1.266 . S
Co646 O649 1.970 . S
Co646 N663 1.989 . S
Co646 O671 1.967 . S
Co646 O678 1.920 . S
Co647 O650 1.966 . S
Co647 N656 2.022 . S
Co647 N664 1.993 . S
Co647 O672 1.941 . S
C648 O649 1.258 . S
C648 O650 1.263 . S
O649 Co646 1.970 . S
O649 C648 1.258 . S
O650 Co647 1.966 . S
O650 C648 1.263 . S
C651 O652 1.235 . S
C651 O678 1.289 . S
O652 C651 1.235 . S
C653 C655 1.400 . S
C653 N656 1.351 . S
C653 C658 1.501 . S
C654 C655 1.387 . S
C654 N657 1.341 . S
C655 C653 1.400 . S
C655 C654 1.387 . S
N656 Co647 2.022 . S
N656 C653 1.351 . S
N656 N657 1.365 . S
N657 C654 1.341 . S
N657 N656 1.365 . S
N657 H677 0.862 . S
C658 C653 1.501 . S
C658 H659 0.961 . S
C658 H660 0.961 . S
C658 H661 0.960 . S
H659 C658 0.961 . S
H660 C658 0.961 . S
H661 C658 0.960 . S
C662 N663 1.342 . S
C662 C666 1.401 . S
C662 C667 1.499 . S
N663 Co646 1.989 . S
N663 C662 1.342 . S
N663 N664 1.388 . S
N664 Co647 1.993 . S
N664 N663 1.388 . S
N664 C665 1.346 . S
C665 N664 1.346 . S
C665 C666 1.396 . S
C665 C675 1.510 . S
C666 C662 1.401 . S
C666 C665 1.396 . S
C667 C662 1.499 . S
C667 H668 0.959 . S
C667 H669 0.960 . S
C667 H670 0.961 . S
H668 C667 0.959 . S
H669 C667 0.960 . S
H670 C667 0.961 . S
O671 Co646 1.967 . S
O671 C679 1.258 . S
O672 Co647 1.941 . S
O672 C679 1.266 . S
H673 C675 0.959 . S
H674 C675 0.961 . S
C675 C665 1.510 . S
C675 H673 0.959 . S
C675 H674 0.961 . S
C675 H676 0.960 . S
H676 C675 0.960 . S
H677 N657 0.862 . S
O678 Co646 1.920 . S
O678 C651 1.289 . S
C679 O671 1.258 . S
C679 O672 1.266 . S
Co680 O683 1.970 . S
Co680 N697 1.989 . S
Co680 O705 1.967 . S
Co680 O712 1.920 . S
Co681 O684 1.966 . S
Co681 N690 2.022 . S
Co681 N698 1.993 . S
Co681 O706 1.941 . S
C682 O683 1.258 . S
C682 O684 1.263 . S
O683 Co680 1.970 . S
O683 C682 1.258 . S
O684 Co681 1.966 . S
O684 C682 1.263 . S
C685 O686 1.235 . S
C685 O712 1.289 . S
O686 C685 1.235 . S
C687 C689 1.400 . S
C687 N690 1.351 . S
C687 C692 1.501 . S
C688 C689 1.387 . S
C688 N691 1.341 . S
C689 C687 1.400 . S
C689 C688 1.387 . S
N690 Co681 2.022 . S
N690 C687 1.351 . S
N690 N691 1.365 . S
N691 C688 1.341 . S
N691 N690 1.365 . S
N691 H711 0.862 . S
C692 C687 1.501 . S
C692 H693 0.961 . S
C692 H694 0.961 . S
C692 H695 0.960 . S
H693 C692 0.961 . S
H694 C692 0.961 . S
H695 C692 0.960 . S
C696 N697 1.342 . S
C696 C700 1.401 . S
C696 C701 1.499 . S
N697 Co680 1.989 . S
N697 C696 1.342 . S
N697 N698 1.388 . S
N698 Co681 1.993 . S
N698 N697 1.388 . S
N698 C699 1.346 . S
C699 N698 1.346 . S
C699 C700 1.396 . S
C699 C709 1.510 . S
C700 C696 1.401 . S
C700 C699 1.396 . S
C701 C696 1.499 . S
C701 H702 0.959 . S
C701 H703 0.960 . S
C701 H704 0.961 . S
H702 C701 0.959 . S
H703 C701 0.960 . S
H704 C701 0.961 . S
O705 Co680 1.967 . S
O705 C713 1.258 . S
O706 Co681 1.941 . S
O706 C713 1.266 . S
H707 C709 0.959 . S
H708 C709 0.961 . S
C709 C699 1.510 . S
C709 H707 0.959 . S
C709 H708 0.961 . S
C709 H710 0.960 . S
H710 C709 0.960 . S
H711 N691 0.862 . S
O712 Co680 1.920 . S
O712 C685 1.289 . S
C713 O705 1.258 . S
C713 O706 1.266 . S
Co714 O717 1.970 . S
Co714 N731 1.989 . S
Co714 O739 1.967 . S
Co714 O746 1.920 . S
Co715 O718 1.966 . S
Co715 N724 2.022 . S
Co715 N732 1.993 . S
Co715 O740 1.941 . S
C716 O717 1.258 . S
C716 O718 1.263 . S
O717 Co714 1.970 . S
O717 C716 1.258 . S
O718 Co715 1.966 . S
O718 C716 1.263 . S
C719 O720 1.235 . S
C719 O746 1.289 . S
O720 C719 1.235 . S
C721 C723 1.400 . S
C721 N724 1.351 . S
C721 C726 1.501 . S
C722 C723 1.387 . S
C722 N725 1.341 . S
C723 C721 1.400 . S
C723 C722 1.387 . S
N724 Co715 2.022 . S
N724 C721 1.351 . S
N724 N725 1.365 . S
N725 C722 1.341 . S
N725 N724 1.365 . S
N725 H745 0.862 . S
C726 C721 1.501 . S
C726 H727 0.961 . S
C726 H728 0.961 . S
C726 H729 0.960 . S
H727 C726 0.961 . S
H728 C726 0.961 . S
H729 C726 0.960 . S
C730 N731 1.342 . S
C730 C734 1.401 . S
C730 C735 1.499 . S
N731 Co714 1.989 . S
N731 C730 1.342 . S
N731 N732 1.388 . S
N732 Co715 1.993 . S
N732 N731 1.388 . S
N732 C733 1.346 . S
C733 N732 1.346 . S
C733 C734 1.396 . S
C733 C743 1.510 . S
C734 C730 1.401 . S
C734 C733 1.396 . S
C735 C730 1.499 . S
C735 H736 0.959 . S
C735 H737 0.960 . S
C735 H738 0.961 . S
H736 C735 0.959 . S
H737 C735 0.960 . S
H738 C735 0.961 . S
O739 Co714 1.967 . S
O739 C747 1.258 . S
O740 Co715 1.941 . S
O740 C747 1.266 . S
H741 C743 0.959 . S
H742 C743 0.961 . S
C743 C733 1.510 . S
C743 H741 0.959 . S
C743 H742 0.961 . S
C743 H744 0.960 . S
H744 C743 0.960 . S
H745 N725 0.862 . S
O746 Co714 1.920 . S
O746 C719 1.289 . S
C747 O739 1.258 . S
C747 O740 1.266 . S
Co748 O751 1.970 . S
Co748 N765 1.989 . S
Co748 O773 1.967 . S
Co748 O780 1.920 . S
Co749 O752 1.966 . S
Co749 N758 2.022 . S
Co749 N766 1.993 . S
Co749 O774 1.941 . S
C750 O751 1.258 . S
C750 O752 1.263 . S
O751 Co748 1.970 . S
O751 C750 1.258 . S
O752 Co749 1.966 . S
O752 C750 1.263 . S
C753 O754 1.235 . S
C753 O780 1.289 . S
O754 C753 1.235 . S
C755 C757 1.400 . S
C755 N758 1.351 . S
C755 C760 1.501 . S
C756 C757 1.387 . S
C756 N759 1.341 . S
C757 C755 1.400 . S
C757 C756 1.387 . S
N758 Co749 2.022 . S
N758 C755 1.351 . S
N758 N759 1.365 . S
N759 C756 1.341 . S
N759 N758 1.365 . S
N759 H779 0.862 . S
C760 C755 1.501 . S
C760 H761 0.961 . S
C760 H762 0.961 . S
C760 H763 0.960 . S
H761 C760 0.961 . S
H762 C760 0.961 . S
H763 C760 0.960 . S
C764 N765 1.342 . S
C764 C768 1.401 . S
C764 C769 1.499 . S
N765 Co748 1.989 . S
N765 C764 1.342 . S
N765 N766 1.388 . S
N766 Co749 1.993 . S
N766 N765 1.388 . S
N766 C767 1.346 . S
C767 N766 1.346 . S
C767 C768 1.396 . S
C767 C777 1.510 . S
C768 C764 1.401 . S
C768 C767 1.396 . S
C769 C764 1.499 . S
C769 H770 0.959 . S
C769 H771 0.960 . S
C769 H772 0.961 . S
H770 C769 0.959 . S
H771 C769 0.960 . S
H772 C769 0.961 . S
O773 Co748 1.967 . S
O773 C781 1.258 . S
O774 Co749 1.941 . S
O774 C781 1.266 . S
H775 C777 0.959 . S
H776 C777 0.961 . S
C777 C767 1.510 . S
C777 H775 0.959 . S
C777 H776 0.961 . S
C777 H778 0.960 . S
H778 C777 0.960 . S
H779 N759 0.862 . S
O780 Co748 1.920 . S
O780 C753 1.289 . S
C781 O773 1.258 . S
C781 O774 1.266 . S
Co782 O785 1.970 . S
Co782 N799 1.989 . S
Co782 O807 1.967 . S
Co782 O814 1.920 . S
Co783 O786 1.966 . S
Co783 N792 2.022 . S
Co783 N800 1.993 . S
Co783 O808 1.941 . S
C784 O785 1.258 . S
C784 O786 1.263 . S
O785 Co782 1.970 . S
O785 C784 1.258 . S
O786 Co783 1.966 . S
O786 C784 1.263 . S
C787 O788 1.235 . S
C787 O814 1.289 . S
O788 C787 1.235 . S
C789 C791 1.400 . S
C789 N792 1.351 . S
C789 C794 1.501 . S
C790 C791 1.387 . S
C790 N793 1.341 . S
C791 C789 1.400 . S
C791 C790 1.387 . S
N792 Co783 2.022 . S
N792 C789 1.351 . S
N792 N793 1.365 . S
N793 C790 1.341 . S
N793 N792 1.365 . S
N793 H813 0.862 . S
C794 C789 1.501 . S
C794 H795 0.961 . S
C794 H796 0.961 . S
C794 H797 0.960 . S
H795 C794 0.961 . S
H796 C794 0.961 . S
H797 C794 0.960 . S
C798 N799 1.342 . S
C798 C802 1.401 . S
C798 C803 1.499 . S
N799 Co782 1.989 . S
N799 C798 1.342 . S
N799 N800 1.388 . S
N800 Co783 1.993 . S
N800 N799 1.388 . S
N800 C801 1.346 . S
C801 N800 1.346 . S
C801 C802 1.396 . S
C801 C811 1.510 . S
C802 C798 1.401 . S
C802 C801 1.396 . S
C803 C798 1.499 . S
C803 H804 0.959 . S
C803 H805 0.960 . S
C803 H806 0.961 . S
H804 C803 0.959 . S
H805 C803 0.960 . S
H806 C803 0.961 . S
O807 Co782 1.967 . S
O807 C815 1.258 . S
O808 Co783 1.941 . S
O808 C815 1.266 . S
H809 C811 0.959 . S
H810 C811 0.961 . S
C811 C801 1.510 . S
C811 H809 0.959 . S
C811 H810 0.961 . S
C811 H812 0.960 . S
H812 C811 0.960 . S
H813 N793 0.862 . S
O814 Co782 1.920 . S
O814 C787 1.289 . S
C815 O807 1.258 . S
C815 O808 1.266 . S
Co816 O819 1.970 . S
Co816 N833 1.989 . S
Co816 O841 1.967 . S
Co816 O848 1.920 . S
Co817 O820 1.966 . S
Co817 N826 2.022 . S
Co817 N834 1.993 . S
Co817 O842 1.941 . S
C818 O819 1.258 . S
C818 O820 1.263 . S
O819 Co816 1.970 . S
O819 C818 1.258 . S
O820 Co817 1.966 . S
O820 C818 1.263 . S
C821 O822 1.235 . S
C821 O848 1.289 . S
O822 C821 1.235 . S
C823 C825 1.400 . S
C823 N826 1.351 . S
C823 C828 1.501 . S
C824 C825 1.387 . S
C824 N827 1.341 . S
C825 C823 1.400 . S
C825 C824 1.387 . S
N826 Co817 2.022 . S
N826 C823 1.351 . S
N826 N827 1.365 . S
N827 C824 1.341 . S
N827 N826 1.365 . S
N827 H847 0.862 . S
C828 C823 1.501 . S
C828 H829 0.961 . S
C828 H830 0.961 . S
C828 H831 0.960 . S
H829 C828 0.961 . S
H830 C828 0.961 . S
H831 C828 0.960 . S
C832 N833 1.342 . S
C832 C836 1.401 . S
C832 C837 1.499 . S
N833 Co816 1.989 . S
N833 C832 1.342 . S
N833 N834 1.388 . S
N834 Co817 1.993 . S
N834 N833 1.388 . S
N834 C835 1.346 . S
C835 N834 1.346 . S
C835 C836 1.396 . S
C835 C845 1.510 . S
C836 C832 1.401 . S
C836 C835 1.396 . S
C837 C832 1.499 . S
C837 H838 0.959 . S
C837 H839 0.960 . S
C837 H840 0.961 . S
H838 C837 0.959 . S
H839 C837 0.960 . S
H840 C837 0.961 . S
O841 Co816 1.967 . S
O841 C849 1.258 . S
O842 Co817 1.941 . S
O842 C849 1.266 . S
H843 C845 0.959 . S
H844 C845 0.961 . S
C845 C835 1.510 . S
C845 H843 0.959 . S
C845 H844 0.961 . S
C845 H846 0.960 . S
H846 C845 0.960 . S
H847 N827 0.862 . S
O848 Co816 1.920 . S
O848 C821 1.289 . S
C849 O841 1.258 . S
C849 O842 1.266 . S
Co850 O853 1.970 . S
Co850 N867 1.989 . S
Co850 O875 1.967 . S
Co850 O882 1.920 . S
Co851 O854 1.966 . S
Co851 N860 2.022 . S
Co851 N868 1.993 . S
Co851 O876 1.941 . S
C852 O853 1.258 . S
C852 O854 1.263 . S
O853 Co850 1.970 . S
O853 C852 1.258 . S
O854 Co851 1.966 . S
O854 C852 1.263 . S
C855 O856 1.235 . S
C855 O882 1.289 . S
O856 C855 1.235 . S
C857 C859 1.400 . S
C857 N860 1.351 . S
C857 C862 1.501 . S
C858 C859 1.387 . S
C858 N861 1.341 . S
C859 C857 1.400 . S
C859 C858 1.387 . S
N860 Co851 2.022 . S
N860 C857 1.351 . S
N860 N861 1.365 . S
N861 C858 1.341 . S
N861 N860 1.365 . S
N861 H881 0.862 . S
C862 C857 1.501 . S
C862 H863 0.961 . S
C862 H864 0.961 . S
C862 H865 0.960 . S
H863 C862 0.961 . S
H864 C862 0.961 . S
H865 C862 0.960 . S
C866 N867 1.342 . S
C866 C870 1.401 . S
C866 C871 1.499 . S
N867 Co850 1.989 . S
N867 C866 1.342 . S
N867 N868 1.388 . S
N868 Co851 1.993 . S
N868 N867 1.388 . S
N868 C869 1.346 . S
C869 N868 1.346 . S
C869 C870 1.396 . S
C869 C879 1.510 . S
C870 C866 1.401 . S
C870 C869 1.396 . S
C871 C866 1.499 . S
C871 H872 0.959 . S
C871 H873 0.960 . S
C871 H874 0.961 . S
H872 C871 0.959 . S
H873 C871 0.960 . S
H874 C871 0.961 . S
O875 Co850 1.967 . S
O875 C883 1.258 . S
O876 Co851 1.941 . S
O876 C883 1.266 . S
H877 C879 0.959 . S
H878 C879 0.961 . S
C879 C869 1.510 . S
C879 H877 0.959 . S
C879 H878 0.961 . S
C879 H880 0.960 . S
H880 C879 0.960 . S
H881 N861 0.862 . S
O882 Co850 1.920 . S
O882 C855 1.289 . S
C883 O875 1.258 . S
C883 O876 1.266 . S
Co884 O887 1.970 . S
Co884 N901 1.989 . S
Co884 O909 1.967 . S
Co884 O916 1.920 . S
Co885 O888 1.966 . S
Co885 N894 2.022 . S
Co885 N902 1.993 . S
Co885 O910 1.941 . S
C886 O887 1.258 . S
C886 O888 1.263 . S
O887 Co884 1.970 . S
O887 C886 1.258 . S
O888 Co885 1.966 . S
O888 C886 1.263 . S
C889 O890 1.235 . S
C889 O916 1.289 . S
O890 C889 1.235 . S
C891 C893 1.400 . S
C891 N894 1.351 . S
C891 C896 1.501 . S
C892 C893 1.387 . S
C892 N895 1.341 . S
C893 C891 1.400 . S
C893 C892 1.387 . S
N894 Co885 2.022 . S
N894 C891 1.351 . S
N894 N895 1.365 . S
N895 C892 1.341 . S
N895 N894 1.365 . S
N895 H915 0.862 . S
C896 C891 1.501 . S
C896 H897 0.961 . S
C896 H898 0.961 . S
C896 H899 0.960 . S
H897 C896 0.961 . S
H898 C896 0.961 . S
H899 C896 0.960 . S
C900 N901 1.342 . S
C900 C904 1.401 . S
C900 C905 1.499 . S
N901 Co884 1.989 . S
N901 C900 1.342 . S
N901 N902 1.388 . S
N902 Co885 1.993 . S
N902 N901 1.388 . S
N902 C903 1.346 . S
C903 N902 1.346 . S
C903 C904 1.396 . S
C903 C913 1.510 . S
C904 C900 1.401 . S
C904 C903 1.396 . S
C905 C900 1.499 . S
C905 H906 0.959 . S
C905 H907 0.960 . S
C905 H908 0.961 . S
H906 C905 0.959 . S
H907 C905 0.960 . S
H908 C905 0.961 . S
O909 Co884 1.967 . S
O909 C917 1.258 . S
O910 Co885 1.941 . S
O910 C917 1.266 . S
H911 C913 0.959 . S
H912 C913 0.961 . S
C913 C903 1.510 . S
C913 H911 0.959 . S
C913 H912 0.961 . S
C913 H914 0.960 . S
H914 C913 0.960 . S
H915 N895 0.862 . S
O916 Co884 1.920 . S
O916 C889 1.289 . S
C917 O909 1.258 . S
C917 O910 1.266 . S
Co918 O921 1.970 . S
Co918 N935 1.989 . S
Co918 O943 1.967 . S
Co918 O950 1.920 . S
Co919 O922 1.966 . S
Co919 N928 2.022 . S
Co919 N936 1.993 . S
Co919 O944 1.941 . S
C920 O921 1.258 . S
C920 O922 1.263 . S
O921 Co918 1.970 . S
O921 C920 1.258 . S
O922 Co919 1.966 . S
O922 C920 1.263 . S
C923 O924 1.235 . S
C923 O950 1.289 . S
O924 C923 1.235 . S
C925 C927 1.400 . S
C925 N928 1.351 . S
C925 C930 1.501 . S
C926 C927 1.387 . S
C926 N929 1.341 . S
C927 C925 1.400 . S
C927 C926 1.387 . S
N928 Co919 2.022 . S
N928 C925 1.351 . S
N928 N929 1.365 . S
N929 C926 1.341 . S
N929 N928 1.365 . S
N929 H949 0.862 . S
C930 C925 1.501 . S
C930 H931 0.961 . S
C930 H932 0.961 . S
C930 H933 0.960 . S
H931 C930 0.961 . S
H932 C930 0.961 . S
H933 C930 0.960 . S
C934 N935 1.342 . S
C934 C938 1.401 . S
C934 C939 1.499 . S
N935 Co918 1.989 . S
N935 C934 1.342 . S
N935 N936 1.388 . S
N936 Co919 1.993 . S
N936 N935 1.388 . S
N936 C937 1.346 . S
C937 N936 1.346 . S
C937 C938 1.396 . S
C937 C947 1.510 . S
C938 C934 1.401 . S
C938 C937 1.396 . S
C939 C934 1.499 . S
C939 H940 0.959 . S
C939 H941 0.960 . S
C939 H942 0.961 . S
H940 C939 0.959 . S
H941 C939 0.960 . S
H942 C939 0.961 . S
O943 Co918 1.967 . S
O943 C951 1.258 . S
O944 Co919 1.941 . S
O944 C951 1.266 . S
H945 C947 0.959 . S
H946 C947 0.961 . S
C947 C937 1.510 . S
C947 H945 0.959 . S
C947 H946 0.961 . S
C947 H948 0.960 . S
H948 C947 0.960 . S
H949 N929 0.862 . S
O950 Co918 1.920 . S
O950 C923 1.289 . S
C951 O943 1.258 . S
C951 O944 1.266 . S
Co952 O955 1.970 . S
Co952 N969 1.989 . S
Co952 O977 1.967 . S
Co952 O984 1.920 . S
Co953 O956 1.966 . S
Co953 N962 2.022 . S
Co953 N970 1.993 . S
Co953 O978 1.941 . S
C954 O955 1.258 . S
C954 O956 1.263 . S
O955 Co952 1.970 . S
O955 C954 1.258 . S
O956 Co953 1.966 . S
O956 C954 1.263 . S
C957 O958 1.235 . S
C957 O984 1.289 . S
O958 C957 1.235 . S
C959 C961 1.400 . S
C959 N962 1.351 . S
C959 C964 1.501 . S
C960 C961 1.387 . S
C960 N963 1.341 . S
C961 C959 1.400 . S
C961 C960 1.387 . S
N962 Co953 2.022 . S
N962 C959 1.351 . S
N962 N963 1.365 . S
N963 C960 1.341 . S
N963 N962 1.365 . S
N963 H983 0.862 . S
C964 C959 1.501 . S
C964 H965 0.961 . S
C964 H966 0.961 . S
C964 H967 0.960 . S
H965 C964 0.961 . S
H966 C964 0.961 . S
H967 C964 0.960 . S
C968 N969 1.342 . S
C968 C972 1.401 . S
C968 C973 1.499 . S
N969 Co952 1.989 . S
N969 C968 1.342 . S
N969 N970 1.388 . S
N970 Co953 1.993 . S
N970 N969 1.388 . S
N970 C971 1.346 . S
C971 N970 1.346 . S
C971 C972 1.396 . S
C971 C981 1.510 . S
C972 C968 1.401 . S
C972 C971 1.396 . S
C973 C968 1.499 . S
C973 H974 0.959 . S
C973 H975 0.960 . S
C973 H976 0.961 . S
H974 C973 0.959 . S
H975 C973 0.960 . S
H976 C973 0.961 . S
O977 Co952 1.967 . S
O977 C985 1.258 . S
O978 Co953 1.941 . S
O978 C985 1.266 . S
H979 C981 0.959 . S
H980 C981 0.961 . S
C981 C971 1.510 . S
C981 H979 0.959 . S
C981 H980 0.961 . S
C981 H982 0.960 . S
H982 C981 0.960 . S
H983 N963 0.862 . S
O984 Co952 1.920 . S
O984 C957 1.289 . S
C985 O977 1.258 . S
C985 O978 1.266 . S
Co986 O989 1.970 . S
Co986 N1003 1.989 . S
Co986 O1011 1.967 . S
Co986 O1018 1.920 . S
Co987 O990 1.966 . S
Co987 N996 2.022 . S
Co987 N1004 1.993 . S
Co987 O1012 1.941 . S
C988 O989 1.258 . S
C988 O990 1.263 . S
O989 Co986 1.970 . S
O989 C988 1.258 . S
O990 Co987 1.966 . S
O990 C988 1.263 . S
C991 O992 1.235 . S
C991 O1018 1.289 . S
O992 C991 1.235 . S
C993 C995 1.400 . S
C993 N996 1.351 . S
C993 C998 1.501 . S
C994 C995 1.387 . S
C994 N997 1.341 . S
C995 C993 1.400 . S
C995 C994 1.387 . S
N996 Co987 2.022 . S
N996 C993 1.351 . S
N996 N997 1.365 . S
N997 C994 1.341 . S
N997 N996 1.365 . S
N997 H1017 0.862 . S
C998 C993 1.501 . S
C998 H999 0.961 . S
C998 H1000 0.961 . S
C998 H1001 0.960 . S
H999 C998 0.961 . S
H1000 C998 0.961 . S
H1001 C998 0.960 . S
C1002 N1003 1.342 . S
C1002 C1006 1.401 . S
C1002 C1007 1.499 . S
N1003 Co986 1.989 . S
N1003 C1002 1.342 . S
N1003 N1004 1.388 . S
N1004 Co987 1.993 . S
N1004 N1003 1.388 . S
N1004 C1005 1.346 . S
C1005 N1004 1.346 . S
C1005 C1006 1.396 . S
C1005 C1015 1.510 . S
C1006 C1002 1.401 . S
C1006 C1005 1.396 . S
C1007 C1002 1.499 . S
C1007 H1008 0.959 . S
C1007 H1009 0.960 . S
C1007 H1010 0.961 . S
H1008 C1007 0.959 . S
H1009 C1007 0.960 . S
H1010 C1007 0.961 . S
O1011 Co986 1.967 . S
O1011 C1019 1.258 . S
O1012 Co987 1.941 . S
O1012 C1019 1.266 . S
H1013 C1015 0.959 . S
H1014 C1015 0.961 . S
C1015 C1005 1.510 . S
C1015 H1013 0.959 . S
C1015 H1014 0.961 . S
C1015 H1016 0.960 . S
H1016 C1015 0.960 . S
H1017 N997 0.862 . S
O1018 Co986 1.920 . S
O1018 C991 1.289 . S
C1019 O1011 1.258 . S
C1019 O1012 1.266 . S
Co1020 O1023 1.970 . S
Co1020 N1037 1.989 . S
Co1020 O1045 1.967 . S
Co1020 O1052 1.920 . S
Co1021 O1024 1.966 . S
Co1021 N1030 2.022 . S
Co1021 N1038 1.993 . S
Co1021 O1046 1.941 . S
C1022 O1023 1.258 . S
C1022 O1024 1.263 . S
O1023 Co1020 1.970 . S
O1023 C1022 1.258 . S
O1024 Co1021 1.966 . S
O1024 C1022 1.263 . S
C1025 O1026 1.235 . S
C1025 O1052 1.289 . S
O1026 C1025 1.235 . S
C1027 C1029 1.400 . S
C1027 N1030 1.351 . S
C1027 C1032 1.501 . S
C1028 C1029 1.387 . S
C1028 N1031 1.341 . S
C1029 C1027 1.400 . S
C1029 C1028 1.387 . S
N1030 Co1021 2.022 . S
N1030 C1027 1.351 . S
N1030 N1031 1.365 . S
N1031 C1028 1.341 . S
N1031 N1030 1.365 . S
N1031 H1051 0.862 . S
C1032 C1027 1.501 . S
C1032 H1033 0.961 . S
C1032 H1034 0.961 . S
C1032 H1035 0.960 . S
H1033 C1032 0.961 . S
H1034 C1032 0.961 . S
H1035 C1032 0.960 . S
C1036 N1037 1.342 . S
C1036 C1040 1.401 . S
C1036 C1041 1.499 . S
N1037 Co1020 1.989 . S
N1037 C1036 1.342 . S
N1037 N1038 1.388 . S
N1038 Co1021 1.993 . S
N1038 N1037 1.388 . S
N1038 C1039 1.346 . S
C1039 N1038 1.346 . S
C1039 C1040 1.396 . S
C1039 C1049 1.510 . S
C1040 C1036 1.401 . S
C1040 C1039 1.396 . S
C1041 C1036 1.499 . S
C1041 H1042 0.959 . S
C1041 H1043 0.960 . S
C1041 H1044 0.961 . S
H1042 C1041 0.959 . S
H1043 C1041 0.960 . S
H1044 C1041 0.961 . S
O1045 Co1020 1.967 . S
O1045 C1053 1.258 . S
O1046 Co1021 1.941 . S
O1046 C1053 1.266 . S
H1047 C1049 0.959 . S
H1048 C1049 0.961 . S
C1049 C1039 1.510 . S
C1049 H1047 0.959 . S
C1049 H1048 0.961 . S
C1049 H1050 0.960 . S
H1050 C1049 0.960 . S
H1051 N1031 0.862 . S
O1052 Co1020 1.920 . S
O1052 C1025 1.289 . S
C1053 O1045 1.258 . S
C1053 O1046 1.266 . S
Co1054 O1057 1.970 . S
Co1054 N1071 1.989 . S
Co1054 O1079 1.967 . S
Co1054 O1086 1.920 . S
Co1055 O1058 1.966 . S
Co1055 N1064 2.022 . S
Co1055 N1072 1.993 . S
Co1055 O1080 1.941 . S
C1056 O1057 1.258 . S
C1056 O1058 1.263 . S
O1057 Co1054 1.970 . S
O1057 C1056 1.258 . S
O1058 Co1055 1.966 . S
O1058 C1056 1.263 . S
C1059 O1060 1.235 . S
C1059 O1086 1.289 . S
O1060 C1059 1.235 . S
C1061 C1063 1.400 . S
C1061 N1064 1.351 . S
C1061 C1066 1.501 . S
C1062 C1063 1.387 . S
C1062 N1065 1.341 . S
C1063 C1061 1.400 . S
C1063 C1062 1.387 . S
N1064 Co1055 2.022 . S
N1064 C1061 1.351 . S
N1064 N1065 1.365 . S
N1065 C1062 1.341 . S
N1065 N1064 1.365 . S
N1065 H1085 0.862 . S
C1066 C1061 1.501 . S
C1066 H1067 0.961 . S
C1066 H1068 0.961 . S
C1066 H1069 0.960 . S
H1067 C1066 0.961 . S
H1068 C1066 0.961 . S
H1069 C1066 0.960 . S
C1070 N1071 1.342 . S
C1070 C1074 1.401 . S
C1070 C1075 1.499 . S
N1071 Co1054 1.989 . S
N1071 C1070 1.342 . S
N1071 N1072 1.388 . S
N1072 Co1055 1.993 . S
N1072 N1071 1.388 . S
N1072 C1073 1.346 . S
C1073 N1072 1.346 . S
C1073 C1074 1.396 . S
C1073 C1083 1.510 . S
C1074 C1070 1.401 . S
C1074 C1073 1.396 . S
C1075 C1070 1.499 . S
C1075 H1076 0.959 . S
C1075 H1077 0.960 . S
C1075 H1078 0.961 . S
H1076 C1075 0.959 . S
H1077 C1075 0.960 . S
H1078 C1075 0.961 . S
O1079 Co1054 1.967 . S
O1079 C1087 1.258 . S
O1080 Co1055 1.941 . S
O1080 C1087 1.266 . S
H1081 C1083 0.959 . S
H1082 C1083 0.961 . S
C1083 C1073 1.510 . S
C1083 H1081 0.959 . S
C1083 H1082 0.961 . S
C1083 H1084 0.960 . S
H1084 C1083 0.960 . S
H1085 N1065 0.862 . S
O1086 Co1054 1.920 . S
O1086 C1059 1.289 . S
C1087 O1079 1.258 . S
C1087 O1080 1.266 . S
C1088 C1089 1.387 . S
C1088 H1092 0.950 . S
C1088 C1097 1.390 . S
C1089 C1088 1.387 . S
C1089 C1091 1.387 . S
H1090 C1097 0.950 . S
C1091 C1089 1.387 . S
C1091 C1093 1.390 . S
C1091 H1095 0.950 . S
H1092 C1088 0.950 . S
C1093 C1091 1.390 . S
C1093 C1094 1.387 . S
C1093 H1096 0.950 . S
C1094 C1093 1.387 . S
C1094 C1097 1.387 . S
H1095 C1091 0.950 . S
H1096 C1093 0.950 . S
C1097 C1088 1.390 . S
C1097 H1090 0.950 . S
C1097 C1094 1.387 . S
C1098 C1099 1.387 1_545 S
C1098 H1102 0.950 . S
C1098 C1107 1.390 . S
C1099 C1098 1.387 1_565 S
C1099 C1101 1.387 . S
H1100 C1107 0.950 . S
C1101 C1099 1.387 . S
C1101 C1103 1.390 . S
C1101 H1105 0.950 . S
H1102 C1098 0.950 . S
C1103 C1101 1.390 . S
C1103 C1104 1.387 . S
C1103 H1106 0.950 . S
C1104 C1103 1.387 . S
C1104 C1107 1.387 1_565 S
H1105 C1101 0.950 . S
H1106 C1103 0.950 . S
C1107 C1098 1.390 . S
C1107 H1100 0.950 . S
C1107 C1104 1.387 1_545 S
C1108 C1109 1.387 1_545 S
C1108 H1112 0.950 . S
C1108 C1117 1.390 . S
C1109 C1108 1.387 1_565 S
C1109 C1111 1.387 . S
H1110 C1117 0.950 . S
C1111 C1109 1.387 . S
C1111 C1113 1.390 . S
C1111 H1115 0.950 . S
H1112 C1108 0.950 . S
C1113 C1111 1.390 . S
C1113 C1114 1.387 . S
C1113 H1116 0.950 . S
C1114 C1113 1.387 . S
C1114 C1117 1.387 1_565 S
H1115 C1111 0.950 . S
H1116 C1113 0.950 . S
C1117 C1108 1.390 . S
C1117 H1110 0.950 . S
C1117 C1114 1.387 1_545 S
C1118 C1119 1.387 1_565 S
C1118 H1122 0.950 . S
C1118 C1127 1.390 . S
C1119 C1118 1.387 1_545 S
C1119 C1121 1.387 . S
H1120 C1127 0.950 . S
C1121 C1119 1.387 . S
C1121 C1123 1.390 . S
C1121 H1125 0.950 . S
H1122 C1118 0.950 . S
C1123 C1121 1.390 . S
C1123 C1124 1.387 . S
C1123 H1126 0.950 . S
C1124 C1123 1.387 . S
C1124 C1127 1.387 1_545 S
H1125 C1121 0.950 . S
H1126 C1123 0.950 . S
C1127 C1118 1.390 . S
C1127 H1120 0.950 . S
C1127 C1124 1.387 1_565 S
C1128 C1129 1.387 1_545 S
C1128 H1132 0.950 . S
C1128 C1137 1.390 . S
C1129 C1128 1.387 1_565 S
C1129 C1131 1.387 . S
H1130 C1137 0.950 . S
C1131 C1129 1.387 . S
C1131 C1133 1.390 . S
C1131 H1135 0.950 . S
H1132 C1128 0.950 . S
C1133 C1131 1.390 . S
C1133 C1134 1.387 . S
C1133 H1136 0.950 . S
C1134 C1133 1.387 . S
C1134 C1137 1.387 1_565 S
H1135 C1131 0.950 . S
H1136 C1133 0.950 . S
C1137 C1128 1.390 . S
C1137 H1130 0.950 . S
C1137 C1134 1.387 1_545 S
C1138 C1139 1.387 1_565 S
C1138 H1142 0.950 . S
C1138 C1147 1.390 . S
C1139 C1138 1.387 1_545 S
C1139 C1141 1.387 . S
H1140 C1147 0.950 . S
C1141 C1139 1.387 . S
C1141 C1143 1.390 . S
C1141 H1145 0.950 . S
H1142 C1138 0.950 . S
C1143 C1141 1.390 . S
C1143 C1144 1.387 . S
C1143 H1146 0.950 . S
C1144 C1143 1.387 . S
C1144 C1147 1.387 1_545 S
H1145 C1141 0.950 . S
H1146 C1143 0.950 . S
C1147 C1138 1.390 . S
C1147 H1140 0.950 . S
C1147 C1144 1.387 1_565 S
C1148 C1149 1.387 . S
C1148 H1152 0.950 . S
C1148 C1157 1.390 . S
C1149 C1148 1.387 . S
C1149 C1151 1.387 1_545 S
H1150 C1157 0.950 . S
C1151 C1149 1.387 1_565 S
C1151 C1153 1.390 . S
C1151 H1155 0.950 . S
H1152 C1148 0.950 . S
C1153 C1151 1.390 . S
C1153 C1154 1.387 1_565 S
C1153 H1156 0.950 . S
C1154 C1153 1.387 1_545 S
C1154 C1157 1.387 . S
H1155 C1151 0.950 . S
H1156 C1153 0.950 . S
C1157 C1148 1.390 . S
C1157 H1150 0.950 . S
C1157 C1154 1.387 . S
C1158 C1159 1.387 . S
C1158 H1162 0.950 . S
C1158 C1167 1.390 . S
C1159 C1158 1.387 . S
C1159 C1161 1.387 1_565 S
H1160 C1167 0.950 . S
C1161 C1159 1.387 1_545 S
C1161 C1163 1.390 . S
C1161 H1165 0.950 . S
H1162 C1158 0.950 . S
C1163 C1161 1.390 . S
C1163 C1164 1.387 1_545 S
C1163 H1166 0.950 . S
C1164 C1163 1.387 1_565 S
C1164 C1167 1.387 . S
H1165 C1161 0.950 . S
H1166 C1163 0.950 . S
C1167 C1158 1.390 . S
C1167 H1160 0.950 . S
C1167 C1164 1.387 . S
C1168 C1169 1.387 . S
C1168 H1172 0.950 . S
C1168 C1177 1.390 . S
C1169 C1168 1.387 . S
C1169 C1171 1.387 . S
H1170 C1177 0.950 . S
C1171 C1169 1.387 . S
C1171 C1173 1.390 . S
C1171 H1175 0.950 . S
H1172 C1168 0.950 . S
C1173 C1171 1.390 . S
C1173 C1174 1.387 . S
C1173 H1176 0.950 . S
C1174 C1173 1.387 . S
C1174 C1177 1.387 . S
H1175 C1171 0.950 . S
H1176 C1173 0.950 . S
C1177 C1168 1.390 . S
C1177 H1170 0.950 . S
C1177 C1174 1.387 . S
C1178 C1179 1.387 . S
C1178 H1182 0.950 . S
C1178 C1187 1.390 . S
C1179 C1178 1.387 . S
C1179 C1181 1.387 . S
H1180 C1187 0.950 . S
C1181 C1179 1.387 . S
C1181 C1183 1.390 . S
C1181 H1185 0.950 . S
H1182 C1178 0.950 . S
C1183 C1181 1.390 . S
C1183 C1184 1.387 . S
C1183 H1186 0.950 . S
C1184 C1183 1.387 . S
C1184 C1187 1.387 . S
H1185 C1181 0.950 . S
H1186 C1183 0.950 . S
C1187 C1178 1.390 . S
C1187 H1180 0.950 . S
C1187 C1184 1.387 . S
C1188 C1189 1.387 . S
C1188 H1192 0.950 . S
C1188 C1197 1.390 . S
C1189 C1188 1.387 . S
C1189 C1191 1.387 . S
H1190 C1197 0.950 . S
C1191 C1189 1.387 . S
C1191 C1193 1.390 . S
C1191 H1195 0.950 . S
H1192 C1188 0.950 . S
C1193 C1191 1.390 . S
C1193 C1194 1.387 . S
C1193 H1196 0.950 . S
C1194 C1193 1.387 . S
C1194 C1197 1.387 . S
H1195 C1191 0.950 . S
H1196 C1193 0.950 . S
C1197 C1188 1.390 . S
C1197 H1190 0.950 . S
C1197 C1194 1.387 . S
C1198 C1199 1.387 . S
C1198 H1202 0.950 . S
C1198 C1207 1.390 . S
C1199 C1198 1.387 . S
C1199 C1201 1.387 . S
H1200 C1207 0.950 . S
C1201 C1199 1.387 . S
C1201 C1203 1.390 . S
C1201 H1205 0.950 . S
H1202 C1198 0.950 . S
C1203 C1201 1.390 . S
C1203 C1204 1.387 . S
C1203 H1206 0.950 . S
C1204 C1203 1.387 . S
C1204 C1207 1.387 . S
H1205 C1201 0.950 . S
H1206 C1203 0.950 . S
C1207 C1198 1.390 . S
C1207 H1200 0.950 . S
C1207 C1204 1.387 . S
C1208 C1209 1.387 . S
C1208 H1212 0.950 . S
C1208 C1217 1.390 . S
C1209 C1208 1.387 . S
C1209 C1211 1.387 . S
H1210 C1217 0.950 . S
C1211 C1209 1.387 . S
C1211 C1213 1.390 . S
C1211 H1215 0.950 . S
H1212 C1208 0.950 . S
C1213 C1211 1.390 . S
C1213 C1214 1.387 . S
C1213 H1216 0.950 . S
C1214 C1213 1.387 . S
C1214 C1217 1.387 . S
H1215 C1211 0.950 . S
H1216 C1213 0.950 . S
C1217 C1208 1.390 . S
C1217 H1210 0.950 . S
C1217 C1214 1.387 . S
C1218 C1219 1.387 . S
C1218 H1222 0.950 . S
C1218 C1227 1.390 . S
C1219 C1218 1.387 . S
C1219 C1221 1.387 . S
H1220 C1227 0.950 . S
C1221 C1219 1.387 . S
C1221 C1223 1.390 . S
C1221 H1225 0.950 . S
H1222 C1218 0.950 . S
C1223 C1221 1.390 . S
C1223 C1224 1.387 . S
C1223 H1226 0.950 . S
C1224 C1223 1.387 . S
C1224 C1227 1.387 . S
H1225 C1221 0.950 . S
H1226 C1223 0.950 . S
C1227 C1218 1.390 . S
C1227 H1220 0.950 . S
C1227 C1224 1.387 . S
C1228 C1229 1.387 . S
C1228 H1232 0.950 . S
C1228 C1237 1.390 . S
C1229 C1228 1.387 . S
C1229 C1231 1.387 . S
H1230 C1237 0.950 . S
C1231 C1229 1.387 . S
C1231 C1233 1.390 . S
C1231 H1235 0.950 . S
H1232 C1228 0.950 . S
C1233 C1231 1.390 . S
C1233 C1234 1.387 . S
C1233 H1236 0.950 . S
C1234 C1233 1.387 . S
C1234 C1237 1.387 . S
H1235 C1231 0.950 . S
H1236 C1233 0.950 . S
C1237 C1228 1.390 . S
C1237 H1230 0.950 . S
C1237 C1234 1.387 . S
C1238 C1239 1.387 . S
C1238 H1242 0.950 . S
C1238 C1247 1.390 . S
C1239 C1238 1.387 . S
C1239 C1241 1.387 . S
H1240 C1247 0.950 . S
C1241 C1239 1.387 . S
C1241 C1243 1.390 . S
C1241 H1245 0.950 . S
H1242 C1238 0.950 . S
C1243 C1241 1.390 . S
C1243 C1244 1.387 . S
C1243 H1246 0.950 . S
C1244 C1243 1.387 . S
C1244 C1247 1.387 . S
H1245 C1241 0.950 . S
H1246 C1243 0.950 . S
C1247 C1238 1.390 . S
C1247 H1240 0.950 . S
C1247 C1244 1.387 . S
C1248 C1249 1.387 . S
C1248 H1252 0.950 . S
C1248 C1257 1.390 . S
C1249 C1248 1.387 . S
C1249 C1251 1.387 . S
H1250 C1257 0.950 . S
C1251 C1249 1.387 . S
C1251 C1253 1.390 . S
C1251 H1255 0.950 . S
H1252 C1248 0.950 . S
C1253 C1251 1.390 . S
C1253 C1254 1.387 . S
C1253 H1256 0.950 . S
C1254 C1253 1.387 . S
C1254 C1257 1.387 . S
H1255 C1251 0.950 . S
H1256 C1253 0.950 . S
C1257 C1248 1.390 . S
C1257 H1250 0.950 . S
C1257 C1254 1.387 . S
C1258 C1259 1.387 . S
C1258 H1262 0.950 . S
C1258 C1267 1.390 . S
C1259 C1258 1.387 . S
C1259 C1261 1.387 . S
H1260 C1267 0.950 . S
C1261 C1259 1.387 . S
C1261 C1263 1.390 . S
C1261 H1265 0.950 . S
H1262 C1258 0.950 . S
C1263 C1261 1.390 . S
C1263 C1264 1.387 . S
C1263 H1266 0.950 1_545 S
C1264 C1263 1.387 . S
C1264 C1267 1.387 . S
H1265 C1261 0.950 . S
H1266 C1263 0.950 1_565 S
C1267 C1258 1.390 . S
C1267 H1260 0.950 . S
C1267 C1264 1.387 . S
C1268 C1269 1.387 . S
C1268 H1272 0.950 . S
C1268 C1277 1.390 . S
C1269 C1268 1.387 . S
C1269 C1271 1.387 . S
H1270 C1277 0.950 . S
C1271 C1269 1.387 . S
C1271 C1273 1.390 . S
C1271 H1275 0.950 . S
H1272 C1268 0.950 . S
C1273 C1271 1.390 . S
C1273 C1274 1.387 . S
C1273 H1276 0.950 . S
C1274 C1273 1.387 . S
C1274 C1277 1.387 . S
H1275 C1271 0.950 . S
H1276 C1273 0.950 . S
C1277 C1268 1.390 . S
C1277 H1270 0.950 . S
C1277 C1274 1.387 . S
C1278 C1279 1.387 . S
C1278 H1282 0.950 . S
C1278 C1287 1.390 1_455 S
C1279 C1278 1.387 . S
C1279 C1281 1.387 . S
H1280 C1287 0.950 . S
C1281 C1279 1.387 . S
C1281 C1283 1.390 1_455 S
C1281 H1285 0.950 . S
H1282 C1278 0.950 . S
C1283 C1281 1.390 1_655 S
C1283 C1284 1.387 . S
C1283 H1286 0.950 . S
C1284 C1283 1.387 . S
C1284 C1287 1.387 . S
H1285 C1281 0.950 . S
H1286 C1283 0.950 . S
C1287 C1278 1.390 1_655 S
C1287 H1280 0.950 . S
C1287 C1284 1.387 . S
C1288 C1289 1.387 . S
C1288 H1292 0.950 . S
C1288 C1297 1.390 . S
C1289 C1288 1.387 . S
C1289 C1291 1.387 . S
H1290 C1297 0.950 . S
C1291 C1289 1.387 . S
C1291 C1293 1.390 . S
C1291 H1295 0.950 . S
H1292 C1288 0.950 . S
C1293 C1291 1.390 . S
C1293 C1294 1.387 . S
C1293 H1296 0.950 . S
C1294 C1293 1.387 . S
C1294 C1297 1.387 . S
H1295 C1291 0.950 . S
H1296 C1293 0.950 . S
C1297 C1288 1.390 . S
C1297 H1290 0.950 . S
C1297 C1294 1.387 . S
C1298 C1299 1.387 . S
C1298 H1302 0.950 . S
C1298 C1307 1.390 1_655 S
C1299 C1298 1.387 . S
C1299 C1301 1.387 . S
H1300 C1307 0.950 . S
C1301 C1299 1.387 . S
C1301 C1303 1.390 1_655 S
C1301 H1305 0.950 . S
H1302 C1298 0.950 . S
C1303 C1301 1.390 1_455 S
C1303 C1304 1.387 . S
C1303 H1306 0.950 . S
C1304 C1303 1.387 . S
C1304 C1307 1.387 . S
H1305 C1301 0.950 . S
H1306 C1303 0.950 . S
C1307 C1298 1.390 1_455 S
C1307 H1300 0.950 . S
C1307 C1304 1.387 . S
C1308 C1309 1.387 . S
C1308 H1312 0.950 . S
C1308 C1317 1.390 . S
C1309 C1308 1.387 . S
C1309 C1311 1.387 . S
H1310 C1317 0.950 . S
C1311 C1309 1.387 . S
C1311 C1313 1.390 . S
C1311 H1315 0.950 . S
H1312 C1308 0.950 . S
C1313 C1311 1.390 . S
C1313 C1314 1.387 . S
C1313 H1316 0.950 . S
C1314 C1313 1.387 . S
C1314 C1317 1.387 . S
H1315 C1311 0.950 . S
H1316 C1313 0.950 . S
C1317 C1308 1.390 . S
C1317 H1310 0.950 . S
C1317 C1314 1.387 . S
C1318 C1319 1.387 . S
C1318 H1322 0.950 . S
C1318 C1327 1.390 . S
C1319 C1318 1.387 . S
C1319 C1321 1.387 . S
H1320 C1327 0.950 . S
C1321 C1319 1.387 . S
C1321 C1323 1.390 . S
C1321 H1325 0.950 . S
H1322 C1318 0.950 . S
C1323 C1321 1.390 . S
C1323 C1324 1.387 . S
C1323 H1326 0.950 . S
C1324 C1323 1.387 . S
C1324 C1327 1.387 . S
H1325 C1321 0.950 . S
H1326 C1323 0.950 . S
C1327 C1318 1.390 . S
C1327 H1320 0.950 . S
C1327 C1324 1.387 . S
C1328 C1329 1.387 . S
C1328 H1332 0.950 . S
C1328 C1337 1.390 . S
C1329 C1328 1.387 . S
C1329 C1331 1.387 . S
H1330 C1337 0.950 . S
C1331 C1329 1.387 . S
C1331 C1333 1.390 . S
C1331 H1335 0.950 . S
H1332 C1328 0.950 . S
C1333 C1331 1.390 . S
C1333 C1334 1.387 . S
C1333 H1336 0.950 . S
C1334 C1333 1.387 . S
C1334 C1337 1.387 . S
H1335 C1331 0.950 . S
H1336 C1333 0.950 . S
C1337 C1328 1.390 . S
C1337 H1330 0.950 . S
C1337 C1334 1.387 . S
C1338 C1339 1.387 . S
C1338 H1342 0.950 . S
C1338 C1347 1.390 . S
C1339 C1338 1.387 . S
C1339 C1341 1.387 . S
H1340 C1347 0.950 . S
C1341 C1339 1.387 . S
C1341 C1343 1.390 . S
C1341 H1345 0.950 . S
H1342 C1338 0.950 . S
C1343 C1341 1.390 . S
C1343 C1344 1.387 . S
C1343 H1346 0.950 . S
C1344 C1343 1.387 . S
C1344 C1347 1.387 . S
H1345 C1341 0.950 . S
H1346 C1343 0.950 . S
C1347 C1338 1.390 . S
C1347 H1340 0.950 . S
C1347 C1344 1.387 . S
C1348 C1349 1.387 . S
C1348 H1352 0.950 . S
C1348 C1357 1.390 . S
C1349 C1348 1.387 . S
C1349 C1351 1.387 . S
H1350 C1357 0.950 . S
C1351 C1349 1.387 . S
C1351 C1353 1.390 . S
C1351 H1355 0.950 . S
H1352 C1348 0.950 . S
C1353 C1351 1.390 . S
C1353 C1354 1.387 . S
C1353 H1356 0.950 . S
C1354 C1353 1.387 . S
C1354 C1357 1.387 . S
H1355 C1351 0.950 . S
H1356 C1353 0.950 . S
C1357 C1348 1.390 . S
C1357 H1350 0.950 . S
C1357 C1354 1.387 . S
C1358 C1359 1.387 . S
C1358 H1362 0.950 . S
C1358 C1367 1.390 1_455 S
C1359 C1358 1.387 . S
C1359 C1361 1.387 . S
H1360 C1367 0.950 . S
C1361 C1359 1.387 . S
C1361 C1363 1.390 1_455 S
C1361 H1365 0.950 . S
H1362 C1358 0.950 . S
C1363 C1361 1.390 1_655 S
C1363 C1364 1.387 . S
C1363 H1366 0.950 . S
C1364 C1363 1.387 . S
C1364 C1367 1.387 . S
H1365 C1361 0.950 . S
H1366 C1363 0.950 . S
C1367 C1358 1.390 1_655 S
C1367 H1360 0.950 . S
C1367 C1364 1.387 . S
C1368 C1369 1.387 . S
C1368 H1372 0.950 . S
C1368 C1377 1.390 . S
C1369 C1368 1.387 . S
C1369 C1371 1.387 . S
H1370 C1377 0.950 . S
C1371 C1369 1.387 . S
C1371 C1373 1.390 . S
C1371 H1375 0.950 . S
H1372 C1368 0.950 . S
C1373 C1371 1.390 . S
C1373 C1374 1.387 . S
C1373 H1376 0.950 . S
C1374 C1373 1.387 . S
C1374 C1377 1.387 . S
H1375 C1371 0.950 . S
H1376 C1373 0.950 . S
C1377 C1368 1.390 . S
C1377 H1370 0.950 . S
C1377 C1374 1.387 . S
C1378 C1379 1.387 . S
C1378 H1382 0.950 . S
C1378 C1387 1.390 1_655 S
C1379 C1378 1.387 . S
C1379 C1381 1.387 . S
H1380 C1387 0.950 . S
C1381 C1379 1.387 . S
C1381 C1383 1.390 1_655 S
C1381 H1385 0.950 . S
H1382 C1378 0.950 . S
C1383 C1381 1.390 1_455 S
C1383 C1384 1.387 . S
C1383 H1386 0.950 . S
C1384 C1383 1.387 . S
C1384 C1387 1.387 . S
H1385 C1381 0.950 . S
H1386 C1383 0.950 . S
C1387 C1378 1.390 1_455 S
C1387 H1380 0.950 . S
C1387 C1384 1.387 . S
C1388 C1389 1.387 . S
C1388 H1392 0.950 . S
C1388 C1397 1.390 . S
C1389 C1388 1.387 . S
C1389 C1391 1.387 . S
H1390 C1397 0.950 . S
C1391 C1389 1.387 . S
C1391 C1393 1.390 . S
C1391 H1395 0.950 . S
H1392 C1388 0.950 . S
C1393 C1391 1.390 . S
C1393 C1394 1.387 . S
C1393 H1396 0.950 . S
C1394 C1393 1.387 . S
C1394 C1397 1.387 . S
H1395 C1391 0.950 . S
H1396 C1393 0.950 . S
C1397 C1388 1.390 . S
C1397 H1390 0.950 . S
C1397 C1394 1.387 . S
C1398 C1399 1.387 . S
C1398 H1402 0.950 . S
C1398 C1407 1.390 . S
C1399 C1398 1.387 . S
C1399 C1401 1.387 . S
H1400 C1407 0.950 . S
C1401 C1399 1.387 . S
C1401 C1403 1.390 . S
C1401 H1405 0.950 . S
H1402 C1398 0.950 . S
C1403 C1401 1.390 . S
C1403 C1404 1.387 . S
C1403 H1406 0.950 . S
C1404 C1403 1.387 . S
C1404 C1407 1.387 . S
H1405 C1401 0.950 . S
H1406 C1403 0.950 . S
C1407 C1398 1.390 . S
C1407 H1400 0.950 . S
C1407 C1404 1.387 . S
C1408 C1409 1.387 . S
C1408 H1412 0.950 . S
C1408 C1417 1.390 . S
C1409 C1408 1.387 . S
C1409 C1411 1.387 . S
H1410 C1417 0.950 . S
C1411 C1409 1.387 . S
C1411 C1413 1.390 . S
C1411 H1415 0.950 . S
H1412 C1408 0.950 . S
C1413 C1411 1.390 . S
C1413 C1414 1.387 . S
C1413 H1416 0.950 . S
C1414 C1413 1.387 . S
C1414 C1417 1.387 . S
H1415 C1411 0.950 . S
H1416 C1413 0.950 . S
C1417 C1408 1.390 . S
C1417 H1410 0.950 . S
C1417 C1414 1.387 . S
C1418 C1419 1.387 . S
C1418 H1422 0.950 . S
C1418 C1427 1.390 1_455 S
C1419 C1418 1.387 . S
C1419 C1421 1.387 . S
H1420 C1427 0.950 . S
C1421 C1419 1.387 . S
C1421 C1423 1.390 1_455 S
C1421 H1425 0.950 . S
H1422 C1418 0.950 . S
C1423 C1421 1.390 1_655 S
C1423 C1424 1.387 . S
C1423 H1426 0.950 . S
C1424 C1423 1.387 . S
C1424 C1427 1.387 . S
H1425 C1421 0.950 . S
H1426 C1423 0.950 . S
C1427 C1418 1.390 1_655 S
C1427 H1420 0.950 . S
C1427 C1424 1.387 . S
C1428 C1429 1.387 . S
C1428 H1432 0.950 . S
C1428 C1437 1.390 . S
C1429 C1428 1.387 . S
C1429 C1431 1.387 . S
H1430 C1437 0.950 . S
C1431 C1429 1.387 . S
C1431 C1433 1.390 . S
C1431 H1435 0.950 . S
H1432 C1428 0.950 . S
C1433 C1431 1.390 . S
C1433 C1434 1.387 . S
C1433 H1436 0.950 . S
C1434 C1433 1.387 . S
C1434 C1437 1.387 . S
H1435 C1431 0.950 . S
H1436 C1433 0.950 . S
C1437 C1428 1.390 . S
C1437 H1430 0.950 . S
C1437 C1434 1.387 . S
C1438 C1439 1.387 . S
C1438 H1442 0.950 . S
C1438 C1447 1.390 . S
C1439 C1438 1.387 . S
C1439 C1441 1.387 . S
H1440 C1447 0.950 . S
C1441 C1439 1.387 . S
C1441 C1443 1.390 . S
C1441 H1445 0.950 . S
H1442 C1438 0.950 . S
C1443 C1441 1.390 . S
C1443 C1444 1.387 . S
C1443 H1446 0.950 . S
C1444 C1443 1.387 . S
C1444 C1447 1.387 . S
H1445 C1441 0.950 . S
H1446 C1443 0.950 . S
C1447 C1438 1.390 . S
C1447 H1440 0.950 . S
C1447 C1444 1.387 . S
C1448 C1449 1.387 . S
C1448 H1452 0.950 . S
C1448 C1457 1.390 . S
C1449 C1448 1.387 . S
C1449 C1451 1.387 . S
H1450 C1457 0.950 . S
C1451 C1449 1.387 . S
C1451 C1453 1.390 . S
C1451 H1455 0.950 . S
H1452 C1448 0.950 . S
C1453 C1451 1.390 . S
C1453 C1454 1.387 . S
C1453 H1456 0.950 . S
C1454 C1453 1.387 . S
C1454 C1457 1.387 . S
H1455 C1451 0.950 . S
H1456 C1453 0.950 . S
C1457 C1448 1.390 . S
C1457 H1450 0.950 . S
C1457 C1454 1.387 . S
C1458 C1459 1.387 . S
C1458 H1462 0.950 . S
C1458 C1467 1.390 . S
C1459 C1458 1.387 . S
C1459 C1461 1.387 . S
H1460 C1467 0.950 . S
C1461 C1459 1.387 . S
C1461 C1463 1.390 . S
C1461 H1465 0.950 . S
H1462 C1458 0.950 . S
C1463 C1461 1.390 . S
C1463 C1464 1.387 . S
C1463 H1466 0.950 . S
C1464 C1463 1.387 . S
C1464 C1467 1.387 . S
H1465 C1461 0.950 . S
H1466 C1463 0.950 . S
C1467 C1458 1.390 . S
C1467 H1460 0.950 . S
C1467 C1464 1.387 . S
C1468 C1469 1.387 . S
C1468 H1472 0.950 . S
C1468 C1477 1.390 . S
C1469 C1468 1.387 . S
C1469 C1471 1.387 . S
H1470 C1477 0.950 . S
C1471 C1469 1.387 . S
C1471 C1473 1.390 . S
C1471 H1475 0.950 . S
H1472 C1468 0.950 . S
C1473 C1471 1.390 . S
C1473 C1474 1.387 . S
C1473 H1476 0.950 . S
C1474 C1473 1.387 . S
C1474 C1477 1.387 . S
H1475 C1471 0.950 . S
H1476 C1473 0.950 . S
C1477 C1468 1.390 . S
C1477 H1470 0.950 . S
C1477 C1474 1.387 . S
C1478 C1479 1.387 . S
C1478 H1482 0.950 . S
C1478 C1487 1.390 1_655 S
C1479 C1478 1.387 . S
C1479 C1481 1.387 . S
H1480 C1487 0.950 . S
C1481 C1479 1.387 . S
C1481 C1483 1.390 1_655 S
C1481 H1485 0.950 . S
H1482 C1478 0.950 . S
C1483 C1481 1.390 1_455 S
C1483 C1484 1.387 . S
C1483 H1486 0.950 . S
C1484 C1483 1.387 . S
C1484 C1487 1.387 . S
H1485 C1481 0.950 . S
H1486 C1483 0.950 . S
C1487 C1478 1.390 1_455 S
C1487 H1480 0.950 . S
C1487 C1484 1.387 . S
C1488 C1489 1.387 . S
C1488 H1492 0.950 . S
C1488 C1497 1.390 . S
C1489 C1488 1.387 . S
C1489 C1491 1.387 . S
H1490 C1497 0.950 . S
C1491 C1489 1.387 . S
C1491 C1493 1.390 . S
C1491 H1495 0.950 . S
H1492 C1488 0.950 . S
C1493 C1491 1.390 . S
C1493 C1494 1.387 . S
C1493 H1496 0.950 . S
C1494 C1493 1.387 . S
C1494 C1497 1.387 . S
H1495 C1491 0.950 . S
H1496 C1493 0.950 . S
C1497 C1488 1.390 . S
C1497 H1490 0.950 . S
C1497 C1494 1.387 . S
C1498 C1499 1.387 . S
C1498 H1502 0.950 . S
C1498 C1507 1.390 1_655 S
C1499 C1498 1.387 . S
C1499 C1501 1.387 . S
H1500 C1507 0.950 . S
C1501 C1499 1.387 . S
C1501 C1503 1.390 1_655 S
C1501 H1505 0.950 . S
H1502 C1498 0.950 . S
C1503 C1501 1.390 1_455 S
C1503 C1504 1.387 . S
C1503 H1506 0.950 . S
C1504 C1503 1.387 . S
C1504 C1507 1.387 . S
H1505 C1501 0.950 . S
H1506 C1503 0.950 . S
C1507 C1498 1.390 1_455 S
C1507 H1500 0.950 . S
C1507 C1504 1.387 . S
C1508 C1509 1.387 . S
C1508 H1512 0.950 . S
C1508 C1517 1.390 . S
C1509 C1508 1.387 . S
C1509 C1511 1.387 . S
H1510 C1517 0.950 . S
C1511 C1509 1.387 . S
C1511 C1513 1.390 . S
C1511 H1515 0.950 . S
H1512 C1508 0.950 . S
C1513 C1511 1.390 . S
C1513 C1514 1.387 . S
C1513 H1516 0.950 . S
C1514 C1513 1.387 . S
C1514 C1517 1.387 . S
H1515 C1511 0.950 . S
H1516 C1513 0.950 . S
C1517 C1508 1.390 . S
C1517 H1510 0.950 . S
C1517 C1514 1.387 . S
C1518 C1519 1.387 . S
C1518 H1522 0.950 . S
C1518 C1527 1.390 . S
C1519 C1518 1.387 . S
C1519 C1521 1.387 . S
H1520 C1527 0.950 . S
C1521 C1519 1.387 . S
C1521 C1523 1.390 . S
C1521 H1525 0.950 . S
H1522 C1518 0.950 . S
C1523 C1521 1.390 . S
C1523 C1524 1.387 . S
C1523 H1526 0.950 . S
C1524 C1523 1.387 . S
C1524 C1527 1.387 . S
H1525 C1521 0.950 . S
H1526 C1523 0.950 . S
C1527 C1518 1.390 . S
C1527 H1520 0.950 . S
C1527 C1524 1.387 . S
C1528 C1529 1.387 . S
C1528 H1532 0.950 . S
C1528 C1537 1.390 . S
C1529 C1528 1.387 . S
C1529 C1531 1.387 . S
H1530 C1537 0.950 . S
C1531 C1529 1.387 . S
C1531 C1533 1.390 . S
C1531 H1535 0.950 . S
H1532 C1528 0.950 . S
C1533 C1531 1.390 . S
C1533 C1534 1.387 . S
C1533 H1536 0.950 . S
C1534 C1533 1.387 . S
C1534 C1537 1.387 . S
H1535 C1531 0.950 . S
H1536 C1533 0.950 . S
C1537 C1528 1.390 . S
C1537 H1530 0.950 . S
C1537 C1534 1.387 . S
C1538 C1539 1.387 . S
C1538 H1542 0.950 . S
C1538 C1547 1.390 . S
C1539 C1538 1.387 . S
C1539 C1541 1.387 . S
H1540 C1547 0.950 . S
C1541 C1539 1.387 . S
C1541 C1543 1.390 . S
C1541 H1545 0.950 . S
H1542 C1538 0.950 . S
C1543 C1541 1.390 . S
C1543 C1544 1.387 . S
C1543 H1546 0.950 . S
C1544 C1543 1.387 . S
C1544 C1547 1.387 . S
H1545 C1541 0.950 . S
H1546 C1543 0.950 . S
C1547 C1538 1.390 . S
C1547 H1540 0.950 . S
C1547 C1544 1.387 . S
C1548 C1549 1.387 . S
C1548 H1552 0.950 . S
C1548 C1557 1.390 . S
C1549 C1548 1.387 . S
C1549 C1551 1.387 . S
H1550 C1557 0.950 . S
C1551 C1549 1.387 . S
C1551 C1553 1.390 . S
C1551 H1555 0.950 . S
H1552 C1548 0.950 . S
C1553 C1551 1.390 . S
C1553 C1554 1.387 . S
C1553 H1556 0.950 . S
C1554 C1553 1.387 . S
C1554 C1557 1.387 . S
H1555 C1551 0.950 . S
H1556 C1553 0.950 . S
C1557 C1548 1.390 . S
C1557 H1550 0.950 . S
C1557 C1554 1.387 . S
C1558 C1559 1.387 . S
C1558 H1562 0.950 . S
C1558 C1567 1.390 1_655 S
C1559 C1558 1.387 . S
C1559 C1561 1.387 . S
H1560 C1567 0.950 . S
C1561 C1559 1.387 . S
C1561 C1563 1.390 1_655 S
C1561 H1565 0.950 . S
H1562 C1558 0.950 . S
C1563 C1561 1.390 1_455 S
C1563 C1564 1.387 . S
C1563 H1566 0.950 . S
C1564 C1563 1.387 . S
C1564 C1567 1.387 . S
H1565 C1561 0.950 . S
H1566 C1563 0.950 . S
C1567 C1558 1.390 1_455 S
C1567 H1560 0.950 . S
C1567 C1564 1.387 . S
C1568 C1569 1.387 . S
C1568 H1572 0.950 . S
C1568 C1577 1.390 1_565 S
C1569 C1568 1.387 . S
C1569 C1571 1.387 . S
H1570 C1577 0.950 . S
C1571 C1569 1.387 . S
C1571 C1573 1.390 1_565 S
C1571 H1575 0.950 . S
H1572 C1568 0.950 . S
C1573 C1571 1.390 1_545 S
C1573 C1574 1.387 . S
C1573 H1576 0.950 . S
C1574 C1573 1.387 . S
C1574 C1577 1.387 . S
H1575 C1571 0.950 . S
H1576 C1573 0.950 . S
C1577 C1568 1.390 1_545 S
C1577 H1570 0.950 . S
C1577 C1574 1.387 . S
C1578 C1579 1.387 1_565 S
C1578 H1582 0.950 . S
C1578 C1587 1.390 . S
C1579 C1578 1.387 1_545 S
C1579 C1581 1.387 . S
H1580 C1587 0.950 . S
C1581 C1579 1.387 . S
C1581 C1583 1.390 . S
C1581 H1585 0.950 . S
H1582 C1578 0.950 . S
C1583 C1581 1.390 . S
C1583 C1584 1.387 . S
C1583 H1586 0.950 . S
C1584 C1583 1.387 . S
C1584 C1587 1.387 1_545 S
H1585 C1581 0.950 . S
H1586 C1583 0.950 . S
C1587 C1578 1.390 . S
C1587 H1580 0.950 . S
C1587 C1584 1.387 1_565 S
C1588 C1589 1.387 . S
C1588 H1592 0.950 . S
C1588 C1597 1.390 1_565 S
C1589 C1588 1.387 . S
C1589 C1591 1.387 . S
H1590 C1597 0.950 . S
C1591 C1589 1.387 . S
C1591 C1593 1.390 1_565 S
C1591 H1595 0.950 . S
H1592 C1588 0.950 . S
C1593 C1591 1.390 1_545 S
C1593 C1594 1.387 . S
C1593 H1596 0.950 . S
C1594 C1593 1.387 . S
C1594 C1597 1.387 . S
H1595 C1591 0.950 . S
H1596 C1593 0.950 . S
C1597 C1588 1.390 1_545 S
C1597 H1590 0.950 . S
C1597 C1594 1.387 . S
C1598 C1599 1.387 1_545 S
C1598 H1602 0.950 . S
C1598 C1607 1.390 1_554 S
C1599 C1598 1.387 1_565 S
C1599 C1601 1.387 . S
H1600 C1607 0.950 . S
C1601 C1599 1.387 . S
C1601 C1603 1.390 1_554 S
C1601 H1605 0.950 . S
H1602 C1598 0.950 . S
C1603 C1601 1.390 1_556 S
C1603 C1604 1.387 . S
C1603 H1606 0.950 . S
C1604 C1603 1.387 . S
C1604 C1607 1.387 1_565 S
H1605 C1601 0.950 . S
H1606 C1603 0.950 . S
C1607 C1598 1.390 1_556 S
C1607 H1600 0.950 . S
C1607 C1604 1.387 1_545 S
C1608 C1609 1.387 . S
C1608 H1612 0.950 . S
C1608 C1617 1.390 1_545 S
C1609 C1608 1.387 . S
C1609 C1611 1.387 . S
H1610 C1617 0.950 . S
C1611 C1609 1.387 . S
C1611 C1613 1.390 1_545 S
C1611 H1615 0.950 . S
H1612 C1608 0.950 . S
C1613 C1611 1.390 1_565 S
C1613 C1614 1.387 . S
C1613 H1616 0.950 . S
C1614 C1613 1.387 . S
C1614 C1617 1.387 . S
H1615 C1611 0.950 . S
H1616 C1613 0.950 . S
C1617 C1608 1.390 1_565 S
C1617 H1610 0.950 . S
C1617 C1614 1.387 . S
C1618 C1619 1.387 1_545 S
C1618 H1622 0.950 . S
C1618 C1627 1.390 . S
C1619 C1618 1.387 1_565 S
C1619 C1621 1.387 . S
H1620 C1627 0.950 . S
C1621 C1619 1.387 . S
C1621 C1623 1.390 . S
C1621 H1625 0.950 . S
H1622 C1618 0.950 . S
C1623 C1621 1.390 . S
C1623 C1624 1.387 . S
C1623 H1626 0.950 . S
C1624 C1623 1.387 . S
C1624 C1627 1.387 1_565 S
H1625 C1621 0.950 . S
H1626 C1623 0.950 . S
C1627 C1618 1.390 . S
C1627 H1620 0.950 . S
C1627 C1624 1.387 1_545 S
C1628 C1629 1.387 . S
C1628 H1632 0.950 . S
C1628 C1637 1.390 1_545 S
C1629 C1628 1.387 . S
C1629 C1631 1.387 . S
H1630 C1637 0.950 . S
C1631 C1629 1.387 . S
C1631 C1633 1.390 1_545 S
C1631 H1635 0.950 . S
H1632 C1628 0.950 . S
C1633 C1631 1.390 1_565 S
C1633 C1634 1.387 . S
C1633 H1636 0.950 . S
C1634 C1633 1.387 . S
C1634 C1637 1.387 . S
H1635 C1631 0.950 . S
H1636 C1633 0.950 . S
C1637 C1628 1.390 1_565 S
C1637 H1630 0.950 . S
C1637 C1634 1.387 . S
C1638 C1639 1.387 1_565 S
C1638 H1642 0.950 . S
C1638 C1647 1.390 1_554 S
C1639 C1638 1.387 1_545 S
C1639 C1641 1.387 . S
H1640 C1647 0.950 . S
C1641 C1639 1.387 . S
C1641 C1643 1.390 1_554 S
C1641 H1645 0.950 . S
H1642 C1638 0.950 . S
C1643 C1641 1.390 1_556 S
C1643 C1644 1.387 . S
C1643 H1646 0.950 . S
C1644 C1643 1.387 . S
C1644 C1647 1.387 1_545 S
H1645 C1641 0.950 . S
H1646 C1643 0.950 . S
C1647 C1638 1.390 1_556 S
C1647 H1640 0.950 . S
C1647 C1644 1.387 1_565 S
C1648 C1649 1.387 . S
C1648 H1652 0.950 . S
C1648 C1657 1.390 . S
C1649 C1648 1.387 . S
C1649 C1651 1.387 . S
H1650 C1657 0.950 . S
C1651 C1649 1.387 . S
C1651 C1653 1.390 . S
C1651 H1655 0.950 . S
H1652 C1648 0.950 . S
C1653 C1651 1.390 . S
C1653 C1654 1.387 . S
C1653 H1656 0.950 . S
C1654 C1653 1.387 . S
C1654 C1657 1.387 . S
H1655 C1651 0.950 . S
H1656 C1653 0.950 . S
C1657 C1648 1.390 . S
C1657 H1650 0.950 . S
C1657 C1654 1.387 . S
C1658 C1659 1.387 . S
C1658 H1662 0.950 . S
C1658 C1667 1.390 1_554 S
C1659 C1658 1.387 . S
C1659 C1661 1.387 . S
H1660 C1667 0.950 . S
C1661 C1659 1.387 . S
C1661 C1663 1.390 1_554 S
C1661 H1665 0.950 . S
H1662 C1658 0.950 . S
C1663 C1661 1.390 1_556 S
C1663 C1664 1.387 . S
C1663 H1666 0.950 . S
C1664 C1663 1.387 . S
C1664 C1667 1.387 . S
H1665 C1661 0.950 . S
H1666 C1663 0.950 . S
C1667 C1658 1.390 1_556 S
C1667 H1660 0.950 . S
C1667 C1664 1.387 . S
C1668 C1669 1.387 . S
C1668 H1672 0.950 . S
C1668 C1677 1.390 . S
C1669 C1668 1.387 . S
C1669 C1671 1.387 . S
H1670 C1677 0.950 . S
C1671 C1669 1.387 . S
C1671 C1673 1.390 . S
C1671 H1675 0.950 . S
H1672 C1668 0.950 . S
C1673 C1671 1.390 . S
C1673 C1674 1.387 . S
C1673 H1676 0.950 . S
C1674 C1673 1.387 . S
C1674 C1677 1.387 . S
H1675 C1671 0.950 . S
H1676 C1673 0.950 . S
C1677 C1668 1.390 . S
C1677 H1670 0.950 . S
C1677 C1674 1.387 . S
C1678 C1679 1.387 . S
C1678 H1682 0.950 . S
C1678 C1687 1.390 . S
C1679 C1678 1.387 . S
C1679 C1681 1.387 . S
H1680 C1687 0.950 . S
C1681 C1679 1.387 . S
C1681 C1683 1.390 . S
C1681 H1685 0.950 . S
H1682 C1678 0.950 . S
C1683 C1681 1.390 . S
C1683 C1684 1.387 . S
C1683 H1686 0.950 . S
C1684 C1683 1.387 . S
C1684 C1687 1.387 . S
H1685 C1681 0.950 . S
H1686 C1683 0.950 . S
C1687 C1678 1.390 . S
C1687 H1680 0.950 . S
C1687 C1684 1.387 . S
C1688 C1689 1.387 . S
C1688 H1692 0.950 . S
C1688 C1697 1.390 . S
C1689 C1688 1.387 . S
C1689 C1691 1.387 . S
H1690 C1697 0.950 . S
C1691 C1689 1.387 . S
C1691 C1693 1.390 . S
C1691 H1695 0.950 . S
H1692 C1688 0.950 . S
C1693 C1691 1.390 . S
C1693 C1694 1.387 . S
C1693 H1696 0.950 . S
C1694 C1693 1.387 . S
C1694 C1697 1.387 . S
H1695 C1691 0.950 . S
H1696 C1693 0.950 . S
C1697 C1688 1.390 . S
C1697 H1690 0.950 . S
C1697 C1694 1.387 . S
C1698 C1699 1.387 . S
C1698 H1702 0.950 . S
C1698 C1707 1.390 1_556 S
C1699 C1698 1.387 . S
C1699 C1701 1.387 . S
H1700 C1707 0.950 . S
C1701 C1699 1.387 . S
C1701 C1703 1.390 1_556 S
C1701 H1705 0.950 . S
H1702 C1698 0.950 . S
C1703 C1701 1.390 1_554 S
C1703 C1704 1.387 . S
C1703 H1706 0.950 . S
C1704 C1703 1.387 . S
C1704 C1707 1.387 . S
H1705 C1701 0.950 . S
H1706 C1703 0.950 . S
C1707 C1698 1.390 1_554 S
C1707 H1700 0.950 . S
C1707 C1704 1.387 . S
C1708 C1709 1.387 . S
C1708 H1712 0.950 . S
C1708 C1717 1.390 . S
C1709 C1708 1.387 . S
C1709 C1711 1.387 . S
H1710 C1717 0.950 . S
C1711 C1709 1.387 . S
C1711 C1713 1.390 . S
C1711 H1715 0.950 . S
H1712 C1708 0.950 . S
C1713 C1711 1.390 . S
C1713 C1714 1.387 . S
C1713 H1716 0.950 . S
C1714 C1713 1.387 . S
C1714 C1717 1.387 . S
H1715 C1711 0.950 . S
H1716 C1713 0.950 . S
C1717 C1708 1.390 . S
C1717 H1710 0.950 . S
C1717 C1714 1.387 . S
C1718 C1719 1.387 . S
C1718 H1722 0.950 . S
C1718 C1727 1.390 . S
C1719 C1718 1.387 . S
C1719 C1721 1.387 . S
H1720 C1727 0.950 . S
C1721 C1719 1.387 . S
C1721 C1723 1.390 . S
C1721 H1725 0.950 . S
H1722 C1718 0.950 . S
C1723 C1721 1.390 . S
C1723 C1724 1.387 . S
C1723 H1726 0.950 . S
C1724 C1723 1.387 . S
C1724 C1727 1.387 . S
H1725 C1721 0.950 . S
H1726 C1723 0.950 . S
C1727 C1718 1.390 . S
C1727 H1720 0.950 . S
C1727 C1724 1.387 . S
C1728 C1729 1.387 . S
C1728 H1732 0.950 . S
C1728 C1737 1.390 . S
C1729 C1728 1.387 . S
C1729 C1731 1.387 . S
H1730 C1737 0.950 . S
C1731 C1729 1.387 . S
C1731 C1733 1.390 . S
C1731 H1735 0.950 . S
H1732 C1728 0.950 . S
C1733 C1731 1.390 . S
C1733 C1734 1.387 . S
C1733 H1736 0.950 . S
C1734 C1733 1.387 . S
C1734 C1737 1.387 . S
H1735 C1731 0.950 . S
H1736 C1733 0.950 . S
C1737 C1728 1.390 . S
C1737 H1730 0.950 . S
C1737 C1734 1.387 . S
C1738 C1739 1.387 . S
C1738 H1742 0.950 . S
C1738 C1747 1.390 1_455 S
C1739 C1738 1.387 . S
C1739 C1741 1.387 . S
H1740 C1747 0.950 . S
C1741 C1739 1.387 . S
C1741 C1743 1.390 1_455 S
C1741 H1745 0.950 . S
H1742 C1738 0.950 . S
C1743 C1741 1.390 1_655 S
C1743 C1744 1.387 . S
C1743 H1746 0.950 . S
C1744 C1743 1.387 . S
C1744 C1747 1.387 . S
H1745 C1741 0.950 . S
H1746 C1743 0.950 . S
C1747 C1738 1.390 1_655 S
C1747 H1740 0.950 . S
C1747 C1744 1.387 . S
C1748 C1749 1.387 . S
C1748 H1752 0.950 . S
C1748 C1757 1.390 1_655 S
C1749 C1748 1.387 . S
C1749 C1751 1.387 . S
H1750 C1757 0.950 . S
C1751 C1749 1.387 . S
C1751 C1753 1.390 1_655 S
C1751 H1755 0.950 . S
H1752 C1748 0.950 . S
C1753 C1751 1.390 1_455 S
C1753 C1754 1.387 . S
C1753 H1756 0.950 . S
C1754 C1753 1.387 . S
C1754 C1757 1.387 . S
H1755 C1751 0.950 . S
H1756 C1753 0.950 . S
C1757 C1748 1.390 1_455 S
C1757 H1750 0.950 . S
C1757 C1754 1.387 . S
C1758 C1759 1.387 . S
C1758 H1762 0.950 . S
C1758 C1767 1.390 . S
C1759 C1758 1.387 . S
C1759 C1761 1.387 . S
H1760 C1767 0.950 . S
C1761 C1759 1.387 . S
C1761 C1763 1.390 . S
C1761 H1765 0.950 . S
H1762 C1758 0.950 . S
C1763 C1761 1.390 . S
C1763 C1764 1.387 . S
C1763 H1766 0.950 . S
C1764 C1763 1.387 . S
C1764 C1767 1.387 . S
H1765 C1761 0.950 . S
H1766 C1763 0.950 . S
C1767 C1758 1.390 . S
C1767 H1760 0.950 . S
C1767 C1764 1.387 . S
C1768 C1769 1.387 . S
C1768 H1772 0.950 . S
C1768 C1777 1.390 . S
C1769 C1768 1.387 . S
C1769 C1771 1.387 . S
H1770 C1777 0.950 . S
C1771 C1769 1.387 . S
C1771 C1773 1.390 . S
C1771 H1775 0.950 . S
H1772 C1768 0.950 . S
C1773 C1771 1.390 . S
C1773 C1774 1.387 . S
C1773 H1776 0.950 . S
C1774 C1773 1.387 . S
C1774 C1777 1.387 . S
H1775 C1771 0.950 . S
H1776 C1773 0.950 . S
C1777 C1768 1.390 . S
C1777 H1770 0.950 . S
C1777 C1774 1.387 . S
C1778 C1779 1.387 . S
C1778 H1782 0.950 . S
C1778 C1787 1.390 . S
C1779 C1778 1.387 . S
C1779 C1781 1.387 . S
H1780 C1787 0.950 . S
C1781 C1779 1.387 . S
C1781 C1783 1.390 . S
C1781 H1785 0.950 . S
H1782 C1778 0.950 . S
C1783 C1781 1.390 . S
C1783 C1784 1.387 . S
C1783 H1786 0.950 . S
C1784 C1783 1.387 . S
C1784 C1787 1.387 . S
H1785 C1781 0.950 . S
H1786 C1783 0.950 . S
C1787 C1778 1.390 . S
C1787 H1780 0.950 . S
C1787 C1784 1.387 . S
C1788 C1789 1.387 . S
C1788 H1792 0.950 . S
C1788 C1797 1.390 1_655 S
C1789 C1788 1.387 . S
C1789 C1791 1.387 . S
H1790 C1797 0.950 . S
C1791 C1789 1.387 . S
C1791 C1793 1.390 1_655 S
C1791 H1795 0.950 . S
H1792 C1788 0.950 . S
C1793 C1791 1.390 1_455 S
C1793 C1794 1.387 . S
C1793 H1796 0.950 . S
C1794 C1793 1.387 . S
C1794 C1797 1.387 . S
H1795 C1791 0.950 . S
H1796 C1793 0.950 . S
C1797 C1788 1.390 1_455 S
C1797 H1790 0.950 . S
C1797 C1794 1.387 . S
C1798 C1799 1.387 . S
C1798 H1802 0.950 . S
C1798 C1807 1.390 1_455 S
C1799 C1798 1.387 . S
C1799 C1801 1.387 . S
H1800 C1807 0.950 . S
C1801 C1799 1.387 . S
C1801 C1803 1.390 1_455 S
C1801 H1805 0.950 . S
H1802 C1798 0.950 . S
C1803 C1801 1.390 1_655 S
C1803 C1804 1.387 . S
C1803 H1806 0.950 . S
C1804 C1803 1.387 . S
C1804 C1807 1.387 . S
H1805 C1801 0.950 . S
H1806 C1803 0.950 . S
C1807 C1798 1.390 1_655 S
C1807 H1800 0.950 . S
C1807 C1804 1.387 . S
C1808 C1809 1.387 . S
C1808 H1812 0.950 . S
C1808 C1817 1.390 . S
C1809 C1808 1.387 . S
C1809 C1811 1.387 . S
H1810 C1817 0.950 . S
C1811 C1809 1.387 . S
C1811 C1813 1.390 . S
C1811 H1815 0.950 . S
H1812 C1808 0.950 . S
C1813 C1811 1.390 . S
C1813 C1814 1.387 . S
C1813 H1816 0.950 . S
C1814 C1813 1.387 . S
C1814 C1817 1.387 . S
H1815 C1811 0.950 . S
H1816 C1813 0.950 . S
C1817 C1808 1.390 . S
C1817 H1810 0.950 . S
C1817 C1814 1.387 . S
C1818 C1819 1.387 . S
C1818 H1822 0.950 . S
C1818 C1827 1.390 1_455 S
C1819 C1818 1.387 . S
C1819 C1821 1.387 . S
H1820 C1827 0.950 . S
C1821 C1819 1.387 . S
C1821 C1823 1.390 1_455 S
C1821 H1825 0.950 . S
H1822 C1818 0.950 . S
C1823 C1821 1.390 1_655 S
C1823 C1824 1.387 . S
C1823 H1826 0.950 . S
C1824 C1823 1.387 . S
C1824 C1827 1.387 . S
H1825 C1821 0.950 . S
H1826 C1823 0.950 . S
C1827 C1818 1.390 1_655 S
C1827 H1820 0.950 . S
C1827 C1824 1.387 . S
C1828 C1829 1.387 . S
C1828 H1832 0.950 . S
C1828 C1837 1.390 1_455 S
C1829 C1828 1.387 . S
C1829 C1831 1.387 . S
H1830 C1837 0.950 . S
C1831 C1829 1.387 . S
C1831 C1833 1.390 1_455 S
C1831 H1835 0.950 . S
H1832 C1828 0.950 . S
C1833 C1831 1.390 1_655 S
C1833 C1834 1.387 . S
C1833 H1836 0.950 . S
C1834 C1833 1.387 . S
C1834 C1837 1.387 . S
H1835 C1831 0.950 . S
H1836 C1833 0.950 . S
C1837 C1828 1.390 1_655 S
C1837 H1830 0.950 . S
C1837 C1834 1.387 . S
C1838 C1839 1.387 . S
C1838 H1842 0.950 . S
C1838 C1847 1.390 . S
C1839 C1838 1.387 . S
C1839 C1841 1.387 . S
H1840 C1847 0.950 . S
C1841 C1839 1.387 . S
C1841 C1843 1.390 . S
C1841 H1845 0.950 . S
H1842 C1838 0.950 . S
C1843 C1841 1.390 . S
C1843 C1844 1.387 . S
C1843 H1846 0.950 . S
C1844 C1843 1.387 . S
C1844 C1847 1.387 . S
H1845 C1841 0.950 . S
H1846 C1843 0.950 . S
C1847 C1838 1.390 . S
C1847 H1840 0.950 . S
C1847 C1844 1.387 . S
C1848 C1849 1.387 . S
C1848 H1852 0.950 . S
C1848 C1857 1.390 . S
C1849 C1848 1.387 . S
C1849 C1851 1.387 . S
H1850 C1857 0.950 . S
C1851 C1849 1.387 . S
C1851 C1853 1.390 . S
C1851 H1855 0.950 . S
H1852 C1848 0.950 . S
C1853 C1851 1.390 . S
C1853 C1854 1.387 . S
C1853 H1856 0.950 . S
C1854 C1853 1.387 . S
C1854 C1857 1.387 . S
H1855 C1851 0.950 . S
H1856 C1853 0.950 . S
C1857 C1848 1.390 . S
C1857 H1850 0.950 . S
C1857 C1854 1.387 . S
C1858 C1859 1.387 . S
C1858 H1862 0.950 . S
C1858 C1867 1.390 . S
C1859 C1858 1.387 . S
C1859 C1861 1.387 . S
H1860 C1867 0.950 . S
C1861 C1859 1.387 . S
C1861 C1863 1.390 . S
C1861 H1865 0.950 . S
H1862 C1858 0.950 . S
C1863 C1861 1.390 . S
C1863 C1864 1.387 . S
C1863 H1866 0.950 . S
C1864 C1863 1.387 . S
C1864 C1867 1.387 . S
H1865 C1861 0.950 . S
H1866 C1863 0.950 . S
C1867 C1858 1.390 . S
C1867 H1860 0.950 . S
C1867 C1864 1.387 . S
C1868 C1869 1.387 . S
C1868 H1872 0.950 . S
C1868 C1877 1.390 1_655 S
C1869 C1868 1.387 . S
C1869 C1871 1.387 . S
H1870 C1877 0.950 . S
C1871 C1869 1.387 . S
C1871 C1873 1.390 1_655 S
C1871 H1875 0.950 . S
H1872 C1868 0.950 . S
C1873 C1871 1.390 1_455 S
C1873 C1874 1.387 . S
C1873 H1876 0.950 . S
C1874 C1873 1.387 . S
C1874 C1877 1.387 . S
H1875 C1871 0.950 . S
H1876 C1873 0.950 . S
C1877 C1868 1.390 1_455 S
C1877 H1870 0.950 . S
C1877 C1874 1.387 . S
C1878 C1879 1.387 . S
C1878 H1882 0.950 . S
C1878 C1887 1.390 1_655 S
C1879 C1878 1.387 . S
C1879 C1881 1.387 . S
H1880 C1887 0.950 . S
C1881 C1879 1.387 . S
C1881 C1883 1.390 1_655 S
C1881 H1885 0.950 . S
H1882 C1878 0.950 . S
C1883 C1881 1.390 1_455 S
C1883 C1884 1.387 . S
C1883 H1886 0.950 . S
C1884 C1883 1.387 . S
C1884 C1887 1.387 . S
H1885 C1881 0.950 . S
H1886 C1883 0.950 . S
C1887 C1878 1.390 1_455 S
C1887 H1880 0.950 . S
C1887 C1884 1.387 . S
C1089 C9 1.499 . S
C1094 C247 1.501 1_545 S
C1099 C43 1.501 1_565 S
C1104 C145 1.498 . S
C1109 C77 1.498 . S
C1114 C179 1.500 1_565 S
C1119 C213 1.498 . S
C1124 C111 1.500 1_545 S
C1129 C519 1.500 1_565 S
C1134 C281 1.501 . S
C1139 C417 1.500 . S
C1144 C315 1.500 1_545 S
C1149 C451 1.500 1_545 S
C1154 C349 1.498 . S
C1159 C485 1.498 . S
C1164 C383 1.500 1_565 S
C1169 C553 1.498 . S
C1174 C791 1.500 . S
C1179 C689 1.498 . S
C1184 C587 1.501 . S
C1189 C723 1.500 . S
C1194 C621 1.498 . S
C1199 C655 1.501 . S
C1204 C757 1.499 . S
C1209 C825 1.501 . S
C1214 C1063 1.499 . S
C1219 C961 1.498 . S
C1224 C859 1.500 . S
C1229 C893 1.498 . S
C1234 C995 1.501 . S
C1239 C1029 1.498 . S
C1244 C927 1.500 . S
C1249 C954 0.919 . S
C1254 C20 0.922 . S
C1259 C54 0.924 . S
C1264 C444 0.916 1_545 S
C1269 C1022 0.916 . S
C1274 C88 0.924 . S
C1279 C122 0.922 . S
C1284 C512 0.920 1_565 S
C1289 C156 0.924 . S
C1294 C818 0.916 . S
C1299 C308 0.916 1_545 S
C1304 C190 0.924 . S
C1309 C224 0.924 . S
C1314 C886 0.916 . S
C1319 C258 0.924 . S
C1324 C376 0.917 1_565 S
C1329 C682 0.920 . S
C1334 C292 0.922 . S
C1339 C326 0.922 . S
C1344 C172 0.919 1_565 S
C1349 C750 0.916 . S
C1354 C360 0.924 . S
C1359 C240 0.920 1_545 S
C1364 C394 0.922 . S
C1369 C428 0.924 . S
C1374 C546 0.916 . S
C1379 C462 0.924 . S
C1384 C36 0.916 1_565 S
C1389 C496 0.924 . S
C1394 C614 0.917 . S
C1399 C104 0.920 1_545 S
C1404 C530 0.922 . S
C1409 C564 0.922 . S
C1414 C410 0.919 . S
C1419 C988 0.916 . S
C1424 C598 0.924 . S
C1429 C632 0.922 . S
C1434 C478 0.920 . S
C1439 C666 0.924 . S
C1444 C1056 0.916 . S
C1449 C700 0.924 . S
C1454 C274 0.917 . S
C1459 C852 0.916 . S
C1464 C734 0.924 . S
C1469 C768 0.922 . S
C1474 C342 0.919 . S
C1479 C802 0.922 . S
C1484 C920 0.920 . S
C1489 C138 0.916 . S
C1494 C836 0.924 . S
C1499 C716 0.919 . S
C1504 C870 0.922 . S
C1509 C206 0.917 . S
C1514 C904 0.924 . S
C1519 C784 0.920 . S
C1524 C938 0.922 . S
C1529 C972 0.924 . S
C1534 C2 0.917 . S
C1539 C580 0.919 . S
C1544 C1006 0.922 . S
C1549 C1040 0.924 . S
C1554 C70 0.916 . S
C1559 C648 0.920 . S
C1564 C1074 0.922 . S
C1569 C141 1.680 . S
C1574 C5 1.680 . S
C1579 C175 1.680 . S
C1584 C39 1.680 . S
C1589 C73 1.677 . S
C1594 C209 1.677 . S
C1599 C243 1.680 . S
C1604 C107 1.680 . S
C1609 C413 1.680 . S
C1614 C277 1.680 . S
C1619 C447 1.678 . S
C1624 C311 1.678 . S
C1629 C345 1.680 . S
C1634 C481 1.680 . S
C1639 C379 1.677 . S
C1644 C515 1.677 . S
C1649 C685 1.677 . S
C1654 C549 1.677 . S
C1659 C719 1.677 . S
C1664 C583 1.677 . S
C1669 C617 1.677 . S
C1674 C753 1.677 . S
C1679 C651 1.677 . S
C1684 C787 1.677 . S
C1689 C957 1.677 . S
C1694 C821 1.677 . S
C1699 C991 1.677 . S
C1704 C855 1.677 . S
C1709 C889 1.677 . S
C1714 C1025 1.677 . S
C1719 C923 1.677 . S
C1724 C1059 1.677 . S
C1729 C645 1.661 . S
C1734 C33 1.661 . S
C1739 C67 1.655 . S
C1744 C679 1.655 . S
C1749 C577 1.660 . S
C1754 C101 1.660 . S
C1759 C135 1.656 . S
C1764 C611 1.656 . S
C1769 C169 1.660 . S
C1774 C781 1.660 . S
C1779 C815 1.660 . S
C1784 C203 1.660 . S
C1789 C713 1.656 . S
C1794 C237 1.656 . S
C1799 C271 1.660 . S
C1804 C747 1.660 . S
C1809 C305 1.656 . S
C1814 C917 1.656 . S
C1819 C951 1.655 . S
C1824 C339 1.655 . S
C1829 C849 1.656 . S
C1834 C373 1.656 . S
C1839 C407 1.660 . S
C1844 C883 1.660 . S
C1849 C441 1.656 . S
C1854 C1053 1.656 . S
C1859 C1087 1.655 . S
C1864 C475 1.655 . S
C1869 C509 1.661 . S
C1874 C985 1.661 . S
C1879 C543 1.656 . S
C1884 C1019 1.656 . S
