# Generated by pormake.
# Topology ukc, (4)-cn, num edge types: 1
# Building blocks:
#     Node 0, Type 0, BuildingBlock: NAHDIM_clean_sbu_0, # of connection points: 4
#     Node 1, Type 0, BuildingBlock: NAHDIM_clean_sbu_0, # of connection points: 4
#     Node 2, Type 0, BuildingBlock: NAHDIM_clean_sbu_0, # of connection points: 4
#     Node 3, Type 0, BuildingBlock: NAHDIM_clean_sbu_0, # of connection points: 4
#     Node 4, Type 0, BuildingBlock: NAHDIM_clean_sbu_0, # of connection points: 4
#     Node 5, Type 0, BuildingBlock: NAHDIM_clean_sbu_0, # of connection points: 4
#     Node 6, Type 0, BuildingBlock: NAHDIM_clean_sbu_0, # of connection points: 4
#     Node 7, Type 0, BuildingBlock: NAHDIM_clean_sbu_0, # of connection points: 4
#     Node 8, Type 0, BuildingBlock: NAHDIM_clean_sbu_0, # of connection points: 4
#     Node 9, Type 0, BuildingBlock: NAHDIM_clean_sbu_0, # of connection points: 4
#     Node 10, Type 0, BuildingBlock: NAHDIM_clean_sbu_0, # of connection points: 4
#     Node 11, Type 0, BuildingBlock: NAHDIM_clean_sbu_0, # of connection points: 4
#     Node 12, Type 0, BuildingBlock: NAHDIM_clean_sbu_0, # of connection points: 4
#     Node 13, Type 0, BuildingBlock: NAHDIM_clean_sbu_0, # of connection points: 4
#     Node 14, Type 0, BuildingBlock: NAHDIM_clean_sbu_0, # of connection points: 4
#     Node 15, Type 0, BuildingBlock: NAHDIM_clean_sbu_0, # of connection points: 4
#     Node 16, Type 0, BuildingBlock: NAHDIM_clean_sbu_0, # of connection points: 4
#     Node 17, Type 0, BuildingBlock: NAHDIM_clean_sbu_0, # of connection points: 4
#     Node 18, Type 0, BuildingBlock: NAHDIM_clean_sbu_0, # of connection points: 4
#     Node 19, Type 0, BuildingBlock: NAHDIM_clean_sbu_0, # of connection points: 4
#     Node 20, Type 0, BuildingBlock: NAHDIM_clean_sbu_0, # of connection points: 4
#     Node 21, Type 0, BuildingBlock: NAHDIM_clean_sbu_0, # of connection points: 4
#     Node 22, Type 0, BuildingBlock: NAHDIM_clean_sbu_0, # of connection points: 4
#     Node 23, Type 0, BuildingBlock: NAHDIM_clean_sbu_0, # of connection points: 4
#     Node 24, Type 0, BuildingBlock: NAHDIM_clean_sbu_0, # of connection points: 4
#     Node 25, Type 0, BuildingBlock: NAHDIM_clean_sbu_0, # of connection points: 4
#     Node 26, Type 0, BuildingBlock: NAHDIM_clean_sbu_0, # of connection points: 4
#     Node 27, Type 0, BuildingBlock: NAHDIM_clean_sbu_0, # of connection points: 4
#     Node 28, Type 0, BuildingBlock: NAHDIM_clean_sbu_0, # of connection points: 4
#     Node 29, Type 0, BuildingBlock: NAHDIM_clean_sbu_0, # of connection points: 4
#     Node 30, Type 0, BuildingBlock: NAHDIM_clean_sbu_0, # of connection points: 4
#     Node 31, Type 0, BuildingBlock: NAHDIM_clean_sbu_0, # of connection points: 4
#     Edge 32, Type (0, 0), None
#     Edge 33, Type (0, 0), None
#     Edge 34, Type (0, 0), None
#     Edge 35, Type (0, 0), None
#     Edge 36, Type (0, 0), None
#     Edge 37, Type (0, 0), None
#     Edge 38, Type (0, 0), None
#     Edge 39, Type (0, 0), None
#     Edge 40, Type (0, 0), None
#     Edge 41, Type (0, 0), None
#     Edge 42, Type (0, 0), None
#     Edge 43, Type (0, 0), None
#     Edge 44, Type (0, 0), None
#     Edge 45, Type (0, 0), None
#     Edge 46, Type (0, 0), None
#     Edge 47, Type (0, 0), None
#     Edge 48, Type (0, 0), None
#     Edge 49, Type (0, 0), None
#     Edge 50, Type (0, 0), None
#     Edge 51, Type (0, 0), None
#     Edge 52, Type (0, 0), None
#     Edge 53, Type (0, 0), None
#     Edge 54, Type (0, 0), None
#     Edge 55, Type (0, 0), None
#     Edge 56, Type (0, 0), None
#     Edge 57, Type (0, 0), None
#     Edge 58, Type (0, 0), None
#     Edge 59, Type (0, 0), None
#     Edge 60, Type (0, 0), None
#     Edge 61, Type (0, 0), None
#     Edge 62, Type (0, 0), None
#     Edge 63, Type (0, 0), None
#     Edge 64, Type (0, 0), None
#     Edge 65, Type (0, 0), None
#     Edge 66, Type (0, 0), None
#     Edge 67, Type (0, 0), None
#     Edge 68, Type (0, 0), None
#     Edge 69, Type (0, 0), None
#     Edge 70, Type (0, 0), None
#     Edge 71, Type (0, 0), None
#     Edge 72, Type (0, 0), None
#     Edge 73, Type (0, 0), None
#     Edge 74, Type (0, 0), None
#     Edge 75, Type (0, 0), None
#     Edge 76, Type (0, 0), None
#     Edge 77, Type (0, 0), None
#     Edge 78, Type (0, 0), None
#     Edge 79, Type (0, 0), None
#     Edge 80, Type (0, 0), None
#     Edge 81, Type (0, 0), None
#     Edge 82, Type (0, 0), None
#     Edge 83, Type (0, 0), None
#     Edge 84, Type (0, 0), None
#     Edge 85, Type (0, 0), None
#     Edge 86, Type (0, 0), None
#     Edge 87, Type (0, 0), None
#     Edge 88, Type (0, 0), None
#     Edge 89, Type (0, 0), None
#     Edge 90, Type (0, 0), None
#     Edge 91, Type (0, 0), None
#     Edge 92, Type (0, 0), None
#     Edge 93, Type (0, 0), None
#     Edge 94, Type (0, 0), None
#     Edge 95, Type (0, 0), None
# Relax obj value: 0.079
# Max RMSD: 0.098
# Mean RMSD: 0.098
data_MOF--net-ukc--node1-NAHDIM_clean_sbu_0--edge1-none
_symmetry_space_group_name_H-M    P1
_symmetry_Int_Tables_number       1
_symmetry_cell_setting            triclinic
loop_
_symmetry_equiv_pos_as_xyz
'x, y, z'
_cell_length_a     20.51146
_cell_length_b     20.510998
_cell_length_c     40.32071
_cell_angle_alpha  89.999745
_cell_angle_beta   89.999703
_cell_angle_gamma 90.000064
loop_
_atom_site_label
_atom_site_type_symbol
_atom_site_fract_x
_atom_site_fract_y
_atom_site_fract_z
_atom_type_partial_charge
C0 C 0.22689 0.44134 -0.03401 0.0
O1 O 0.20516 0.49439 -0.01954 0.0
O2 O 0.15311 0.38074 0.04094 0.0
Zn3 Zn 0.11367 0.38953 -0.0048 0.0
O4 O 0.05983 0.47182 -0.01211 0.0
C5 C 0.02803 0.28867 0.01334 0.0
O6 O 0.03536 0.31969 0.04152 0.0
O7 O 0.1929 0.3896 -0.03346 0.0
C8 C 0.02848 0.47931 -0.03915 0.0
O9 O 0.0315 0.43387 0.93797 0.0
C10 C 0.13772 0.41169 0.06697 0.0
O11 O 0.09218 0.45663 0.06565 0.0
O12 O 0.05673 0.30979 -0.01247 0.0
C13 C 0.82624 0.97691 0.21598 0.0
O14 O 0.7732 0.95517 0.23046 0.0
O15 O 0.88688 0.9031 0.29093 0.0
Zn16 Zn 0.87805 0.86368 0.24519 0.0
O17 O 0.79575 0.80984 0.23789 0.0
C18 C 0.9788 0.77794 0.26333 0.0
O19 O 0.94767 0.78519 0.29148 0.0
O20 O 0.87799 0.94291 0.21653 0.0
C21 C 0.78825 0.77849 0.21085 0.0
O22 O 0.83368 0.78148 0.18796 0.0
C23 C 0.85591 0.88777 0.31696 0.0
O24 O 0.8109 0.8423 0.31564 0.0
O25 O 0.95778 0.80673 0.23752 0.0
C26 C 0.29068 0.57629 0.46598 0.0
O27 O 0.31242 0.52325 0.48046 0.0
O28 O 0.36452 0.63699 0.54092 0.0
Zn29 Zn 0.40392 0.62811 0.49518 0.0
O30 O 0.45774 0.5458 0.48788 0.0
C31 C 0.48983 0.72865 0.5133 0.0
O32 O 0.48272 0.69734 0.54142 0.0
O33 O 0.32467 0.62804 0.46652 0.0
C34 C 0.4891 0.5383 0.46085 0.0
O35 O 0.48611 0.58373 0.43796 0.0
C36 C 0.37977 0.60596 0.56695 0.0
O37 O 0.42514 0.56085 0.56562 0.0
O38 O 0.46088 0.70782 0.48751 0.0
C39 C 0.69132 0.0407 0.71599 0.0
O40 O 0.74437 0.06244 0.73046 0.0
O41 O 0.63069 0.11451 0.79093 0.0
Zn42 Zn 0.63952 0.15394 0.7452 0.0
O43 O 0.72182 0.20777 0.73789 0.0
C44 C 0.53877 0.23967 0.76333 0.0
O45 O 0.56988 0.23242 0.79149 0.0
O46 O 0.63958 0.0747 0.71653 0.0
C47 C 0.72933 0.23912 0.71086 0.0
O48 O 0.6839 0.23612 0.68796 0.0
C49 C 0.66166 0.12985 0.81697 0.0
O50 O 0.70666 0.17533 0.81564 0.0
O51 O 0.55979 0.21089 0.73752 0.0
C52 C 0.22689 0.57629 0.45 0.0
O53 O 0.20515 0.52324 0.43552 0.0
O54 O 0.15308 0.63693 0.37505 0.0
Zn55 Zn 0.11366 0.6281 0.42079 0.0
O56 O 0.05983 0.54579 0.42809 0.0
C57 C 0.02789 0.72881 0.40266 0.0
O58 O 0.03512 0.69766 0.37451 0.0
O59 O 0.1929 0.62803 0.44945 0.0
C60 C 0.02848 0.53829 0.45513 0.0
O61 O 0.03148 0.58373 0.47802 0.0
C62 C 0.13775 0.60594 0.34902 0.0
O63 O 0.09229 0.56093 0.35035 0.0
O64 O 0.05671 0.70782 0.42846 0.0
C65 C 0.69131 0.97691 0.7 0.0
O66 O 0.74435 0.95517 0.68552 0.0
O67 O 0.63061 0.90308 0.62506 0.0
Zn68 Zn 0.6395 0.86367 0.6708 0.0
O69 O 0.72181 0.80985 0.6781 0.0
C70 C 0.53895 0.77777 0.65268 0.0
O71 O 0.57025 0.78489 0.62456 0.0
O72 O 0.63957 0.94292 0.69946 0.0
C73 C 0.72933 0.77849 0.70513 0.0
O74 O 0.6839 0.78147 0.72803 0.0
C75 C 0.66164 0.88782 0.59903 0.0
O76 O 0.70674 0.84245 0.60036 0.0
O77 O 0.55978 0.80671 0.67847 0.0
C78 C 0.29068 0.44134 0.95 0.0
O79 O 0.31242 0.49439 0.93552 0.0
O80 O 0.36448 0.3807 0.87505 0.0
Zn81 Zn 0.40391 0.38952 0.92079 0.0
O82 O 0.45775 0.47182 0.92809 0.0
C83 C 0.48963 0.28877 0.90266 0.0
O84 O 0.48238 0.31989 0.8745 0.0
O85 O 0.32467 0.38959 0.94945 0.0
C86 C 0.4891 0.47931 0.95513 0.0
O87 O 0.48609 0.43387 -0.02198 0.0
C88 C 0.37982 0.41168 0.84902 0.0
O89 O 0.4253 0.45668 0.85034 0.0
O90 O 0.46085 0.30979 0.92846 0.0
C91 C 0.82624 0.0407 0.19999 0.0
O92 O 0.77319 0.06243 0.18552 0.0
O93 O 0.88684 0.11448 0.12504 0.0
Zn94 Zn 0.87805 0.15392 0.17078 0.0
O95 O 0.79575 0.20776 0.17809 0.0
C96 C 0.97891 0.23956 0.15264 0.0
O97 O 0.9479 0.23222 0.12446 0.0
O98 O 0.87798 0.07469 0.19944 0.0
C99 C 0.78825 0.23911 0.20512 0.0
O100 O 0.83368 0.23611 0.22802 0.0
C101 C 0.8559 0.12987 0.09901 0.0
O102 O 0.81096 0.17541 0.10033 0.0
O103 O 0.95778 0.21087 0.17845 0.0
C104 C 0.79068 0.57626 0.94999 0.0
O105 O 0.81242 0.52321 0.93552 0.0
O106 O 0.86447 0.63686 0.87504 0.0
Zn107 Zn 0.90391 0.62807 0.92078 0.0
O108 O 0.95775 0.54578 0.92809 0.0
C109 C 0.98955 0.72893 0.90264 0.0
O110 O 0.98222 0.69791 0.87446 0.0
O111 O 0.82468 0.628 0.94944 0.0
C112 C 0.98909 0.53829 0.95513 0.0
O113 O 0.98608 0.58373 -0.02199 0.0
C114 C 0.87986 0.60591 0.84901 0.0
O115 O 0.92539 0.56097 0.85033 0.0
O116 O 0.96085 0.70781 0.92845 0.0
C117 C 0.19134 0.04069 0.7 0.0
O118 O 0.24438 0.06243 0.68552 0.0
O119 O 0.1307 0.1145 0.62505 0.0
Zn120 Zn 0.13952 0.15393 0.67079 0.0
O121 O 0.22183 0.20776 0.67809 0.0
C122 C 0.03878 0.23966 0.65266 0.0
O123 O 0.06991 0.23241 0.6245 0.0
O124 O 0.13959 0.07469 0.69945 0.0
C125 C 0.22933 0.23912 0.70513 0.0
O126 O 0.1839 0.23612 0.72802 0.0
C127 C 0.16167 0.12983 0.59902 0.0
O128 O 0.20668 0.1753 0.60034 0.0
O129 O 0.0598 0.21088 0.67846 0.0
C130 C 0.7269 0.44131 0.45 0.0
O131 O 0.70516 0.49435 0.43552 0.0
O132 O 0.65306 0.38061 0.37506 0.0
Zn133 Zn 0.61366 0.38949 0.4208 0.0
O134 O 0.55983 0.4718 0.4281 0.0
C135 C 0.52775 0.28895 0.40268 0.0
O136 O 0.53486 0.32026 0.37456 0.0
O137 O 0.69291 0.38956 0.44946 0.0
C138 C 0.52848 0.4793 0.45513 0.0
O139 O 0.53147 0.43387 0.47802 0.0
C140 C 0.63781 0.41164 0.34903 0.0
O141 O 0.59244 0.45675 0.35036 0.0
O142 O 0.5567 0.30978 0.42847 0.0
C143 C 0.32626 0.9769 0.19999 0.0
O144 O 0.27321 0.95517 0.18552 0.0
O145 O 0.38689 0.90309 0.12505 0.0
Zn146 Zn 0.37806 0.86366 0.17079 0.0
O147 O 0.29576 0.80983 0.17809 0.0
C148 C 0.47881 0.77793 0.15265 0.0
O149 O 0.44769 0.78518 0.12449 0.0
O150 O 0.378 0.9429 0.19945 0.0
C151 C 0.28825 0.77848 0.20513 0.0
O152 O 0.33368 0.78148 0.22802 0.0
C153 C 0.35592 0.88775 0.09902 0.0
O154 O 0.31092 0.84228 0.10034 0.0
O155 O 0.45779 0.80671 0.17846 0.0
C156 C 0.79069 0.44132 0.46599 0.0
O157 O 0.81242 0.49436 0.48046 0.0
O158 O 0.8645 0.38067 0.54093 0.0
Zn159 Zn 0.90392 0.38951 0.49519 0.0
O160 O 0.95775 0.47181 0.48789 0.0
C161 C 0.98968 0.28879 0.51332 0.0
O162 O 0.98246 0.31994 0.54147 0.0
O163 O 0.82468 0.38957 0.46653 0.0
C164 C 0.9891 0.47931 0.46085 0.0
O165 O 0.98609 0.43387 0.43796 0.0
C166 C 0.87983 0.41166 0.56696 0.0
O167 O 0.92529 0.45668 0.56564 0.0
O168 O 0.96087 0.30978 0.48752 0.0
C169 C 0.32627 0.04069 0.21598 0.0
O170 O 0.27322 0.06243 0.23046 0.0
O171 O 0.38696 0.11453 0.29092 0.0
Zn172 Zn 0.37808 0.15393 0.24518 0.0
O173 O 0.29577 0.20776 0.23788 0.0
C174 C 0.47863 0.23983 0.2633 0.0
O175 O 0.44733 0.23272 0.29142 0.0
O176 O 0.37801 0.07468 0.21652 0.0
C177 C 0.28825 0.23911 0.21085 0.0
O178 O 0.33368 0.23613 0.18796 0.0
C179 C 0.35594 0.12978 0.31695 0.0
O180 O 0.31084 0.17515 0.31563 0.0
O181 O 0.45779 0.21089 0.23751 0.0
C182 C 0.7269 0.57626 -0.03402 0.0
O183 O 0.70516 0.52322 -0.01954 0.0
O184 O 0.6531 0.6369 0.04093 0.0
Zn185 Zn 0.61367 0.62808 -0.00481 0.0
O186 O 0.55983 0.54578 -0.01211 0.0
C187 C 0.52794 0.72883 0.01332 0.0
O188 O 0.5352 0.69771 0.04149 0.0
O189 O 0.69291 0.62801 -0.03347 0.0
C190 C 0.52848 0.53829 -0.03915 0.0
O191 O 0.53149 0.58373 0.93796 0.0
C192 C 0.63775 0.60592 0.06696 0.0
O193 O 0.59228 0.56092 0.06564 0.0
O194 O 0.55673 0.70781 -0.01248 0.0
C195 C 0.19134 0.97691 0.71599 0.0
O196 O 0.24439 0.95517 0.73046 0.0
O197 O 0.13074 0.90312 0.79094 0.0
Zn198 Zn 0.13953 0.86368 0.7452 0.0
O199 O 0.22183 0.80984 0.73789 0.0
C200 C 0.03867 0.77804 0.76334 0.0
O201 O 0.06968 0.78538 0.79152 0.0
O202 O 0.1396 0.94291 0.71654 0.0
C203 C 0.22933 0.77849 0.71086 0.0
O204 O 0.1839 0.7815 0.68796 0.0
C205 C 0.16168 0.88773 0.81697 0.0
O206 O 0.20662 0.84219 0.81565 0.0
O207 O 0.05979 0.80673 0.73753 0.0
C208 C 0.72688 0.94126 0.46598 0.0
O209 O 0.70514 0.99431 0.48045 0.0
O210 O 0.653 0.88049 0.54091 0.0
Zn211 Zn 0.61363 0.88945 0.49516 0.0
O212 O 0.55983 0.97178 0.48788 0.0
C213 C 0.5275 0.78917 0.51327 0.0
O214 O 0.53444 0.8207 0.54133 0.0
O215 O 0.69289 0.88952 0.46651 0.0
C216 C 0.52847 0.9793 0.46085 0.0
O217 O 0.53145 0.93387 0.43795 0.0
C218 C 0.63788 0.91161 0.56693 0.0
O219 O 0.59268 0.95689 0.56561 0.0
O220 O 0.55665 0.80977 0.48749 0.0
C221 C 0.32635 0.4769 0.71597 0.0
O222 O 0.27331 0.45515 0.73045 0.0
O223 O 0.38719 0.40299 0.79089 0.0
Zn224 Zn 0.37817 0.36365 0.74515 0.0
O225 O 0.29584 0.30985 0.73787 0.0
C226 C 0.47825 0.27735 0.76324 0.0
O227 O 0.44654 0.28414 0.79126 0.0
O228 O 0.37809 0.44291 0.7165 0.0
C229 C 0.28833 0.27849 0.71084 0.0
O230 O 0.33376 0.28148 0.68795 0.0
C231 C 0.35601 0.38796 0.81691 0.0
O232 O 0.31064 0.34285 0.81559 0.0
O233 O 0.45784 0.30666 0.73747 0.0
C234 C 0.79069 0.07637 -0.03403 0.0
O235 O 0.81244 0.02333 -0.01955 0.0
O236 O 0.86463 0.13724 0.04088 0.0
Zn237 Zn 0.90395 0.12819 -0.00486 0.0
O238 O 0.95774 0.04584 -0.01213 0.0
C239 C 0.99036 0.22815 0.01323 0.0
O240 O 0.98362 0.19634 0.04123 0.0
O241 O 0.82469 0.12812 -0.0335 0.0
C242 C 0.98911 0.03831 -0.03916 0.0
O243 O 0.98616 0.08373 0.93794 0.0
C244 C 0.87961 0.10603 0.0669 0.0
O245 O 0.92465 0.0606 0.06558 0.0
O246 O 0.96095 0.20784 -0.01254 0.0
C247 C 0.19121 0.54071 0.21598 0.0
O248 O 0.24425 0.56246 0.23045 0.0
O249 O 0.13039 0.61463 0.2909 0.0
Zn250 Zn 0.1394 0.65396 0.24515 0.0
O251 O 0.22173 0.70776 0.23788 0.0
C252 C 0.03932 0.74027 0.26325 0.0
O253 O 0.07102 0.73346 0.29127 0.0
O254 O 0.13947 0.5747 0.21651 0.0
C255 C 0.22925 0.73911 0.21084 0.0
O256 O 0.18382 0.73612 0.18795 0.0
C257 C 0.16156 0.62967 0.31691 0.0
O258 O 0.20692 0.67478 0.31559 0.0
O259 O 0.05973 0.71095 0.23747 0.0
C260 C 0.72688 0.07637 0.95001 0.0
O261 O 0.70513 0.02333 0.93553 0.0
O262 O 0.65296 0.1372 0.87509 0.0
Zn263 Zn 0.61362 0.12818 0.92084 0.0
O264 O 0.55983 0.04584 0.92811 0.0
C265 C 0.52731 0.22825 0.90274 0.0
O266 O 0.53411 0.19654 0.87472 0.0
O267 O 0.69289 0.12811 0.94948 0.0
C268 C 0.52847 0.03831 0.95514 0.0
O269 O 0.53143 0.08373 -0.02196 0.0
C270 C 0.63794 0.10603 0.84907 0.0
O271 O 0.59284 0.06065 0.85039 0.0
O272 O 0.55663 0.20784 0.92851 0.0
C273 C 0.19121 0.4769 0.20001 0.0
O274 O 0.24425 0.45514 0.18553 0.0
O275 O 0.13034 0.40296 0.1251 0.0
Zn276 Zn 0.13939 0.36364 0.17084 0.0
O277 O 0.22173 0.30984 0.17811 0.0
C278 C 0.03943 0.27723 0.15275 0.0
O279 O 0.07124 0.28396 0.12476 0.0
O280 O 0.13946 0.4429 0.19948 0.0
C281 C 0.22925 0.27848 0.20514 0.0
O282 O 0.18383 0.28146 0.22804 0.0
C283 C 0.16155 0.38798 0.09908 0.0
O284 O 0.20698 0.34294 0.10041 0.0
O285 O 0.05973 0.30664 0.17852 0.0
C286 C 0.79069 0.94126 0.45001 0.0
O287 O 0.81244 0.9943 0.43553 0.0
O288 O 0.8646 0.88042 0.37509 0.0
Zn289 Zn 0.90394 0.88944 0.42083 0.0
O290 O 0.95774 0.97177 0.42811 0.0
C291 C 0.99022 0.78933 0.40274 0.0
O292 O 0.9834 0.82101 0.37471 0.0
O293 O 0.82468 0.88951 0.44948 0.0
C294 C 0.98911 0.9793 0.45514 0.0
O295 O 0.98614 0.93387 0.47803 0.0
C296 C 0.87964 0.91159 0.34907 0.0
O297 O 0.92475 0.95696 0.35039 0.0
O298 O 0.96093 0.80977 0.42851 0.0
C299 C 0.32634 0.54071 0.7 0.0
O300 O 0.2733 0.56245 0.68553 0.0
O301 O 0.38711 0.6146 0.62507 0.0
Zn302 Zn 0.37815 0.65396 0.67082 0.0
O303 O 0.29583 0.70777 0.6781 0.0
C304 C 0.47843 0.7401 0.65271 0.0
O305 O 0.44689 0.73317 0.62465 0.0
O306 O 0.37808 0.5747 0.69946 0.0
C307 C 0.28832 0.73911 0.70514 0.0
O308 O 0.33375 0.73611 0.72803 0.0
C309 C 0.35599 0.62971 0.59905 0.0
O310 O 0.31071 0.67492 0.60038 0.0
O311 O 0.45784 0.71094 0.67849 0.0
C312 C 0.29069 0.07634 0.45 0.0
O313 O 0.31244 0.02329 0.43553 0.0
O314 O 0.36458 0.13711 0.37507 0.0
Zn315 Zn 0.40394 0.12815 0.42082 0.0
O316 O 0.45775 0.04582 0.4281 0.0
C317 C 0.49008 0.22843 0.40271 0.0
O318 O 0.48314 0.1969 0.37465 0.0
O319 O 0.32469 0.12808 0.44947 0.0
C320 C 0.48911 0.0383 0.45513 0.0
O321 O 0.48613 0.08373 0.47803 0.0
C322 C 0.37969 0.10599 0.34905 0.0
O323 O 0.4249 0.06071 0.35037 0.0
O324 O 0.46092 0.20783 0.42849 0.0
C325 C 0.69123 0.5407 0.20001 0.0
O326 O 0.74427 0.56245 0.18553 0.0
O327 O 0.63039 0.61461 0.12509 0.0
Zn328 Zn 0.6394 0.65395 0.17083 0.0
O329 O 0.72174 0.70776 0.17811 0.0
C330 C 0.53933 0.74026 0.15274 0.0
O331 O 0.57104 0.73346 0.12472 0.0
O332 O 0.63948 0.57469 0.19948 0.0
C333 C 0.72925 0.73911 0.20514 0.0
O334 O 0.68382 0.73612 0.22803 0.0
C335 C 0.66157 0.62965 0.09907 0.0
O336 O 0.70694 0.67475 0.10039 0.0
O337 O 0.55974 0.71094 0.17851 0.0
C338 C 0.22689 0.94123 0.95001 0.0
O339 O 0.20514 0.99427 0.93553 0.0
O340 O 0.15295 0.88036 0.8751 0.0
Zn341 Zn 0.11363 0.88941 0.92084 0.0
O342 O 0.05984 0.97176 0.92811 0.0
C343 C 0.02722 0.78945 0.90275 0.0
O344 O 0.03395 0.82126 0.87476 0.0
O345 O 0.19289 0.88948 0.94948 0.0
C346 C 0.02847 0.97929 0.95514 0.0
O347 O 0.03142 0.93387 -0.02196 0.0
C348 C 0.13797 0.91157 0.84908 0.0
O349 O 0.09293 0.957 0.8504 0.0
O350 O 0.05662 0.80976 0.92852 0.0
C351 C 0.82637 0.4769 0.7 0.0
O352 O 0.77332 0.45514 0.68553 0.0
O353 O 0.88719 0.40297 0.62508 0.0
Zn354 Zn 0.87818 0.36364 0.67083 0.0
O355 O 0.79585 0.30984 0.67811 0.0
C356 C 0.97826 0.27733 0.65274 0.0
O357 O 0.94656 0.28414 0.62471 0.0
O358 O 0.87811 0.4429 0.69947 0.0
C359 C 0.78833 0.27849 0.70514 0.0
O360 O 0.83376 0.28148 0.72804 0.0
C361 C 0.85602 0.38794 0.59907 0.0
O362 O 0.81065 0.34282 0.60039 0.0
O363 O 0.95785 0.30665 0.67851 0.0
C364 C 0.2907 0.94123 -0.03403 0.0
O365 O 0.31244 0.99428 -0.01955 0.0
O366 O 0.36462 0.8804 0.04089 0.0
Zn367 Zn 0.40395 0.88942 -0.00485 0.0
O368 O 0.45775 0.97176 -0.01213 0.0
C369 C 0.49027 0.78935 0.01324 0.0
O370 O 0.48347 0.82107 0.04126 0.0
O371 O 0.32469 0.88949 -0.0335 0.0
C372 C 0.48911 0.97929 -0.03916 0.0
O373 O 0.48615 0.93387 0.93795 0.0
C374 C 0.37964 0.91157 0.06691 0.0
O375 O 0.42474 0.95695 0.06559 0.0
O376 O 0.46095 0.80976 -0.01253 0.0
C377 C 0.82637 0.5407 0.71597 0.0
O378 O 0.77333 0.56246 0.73045 0.0
O379 O 0.88724 0.61464 0.79089 0.0
Zn380 Zn 0.87819 0.65396 0.74514 0.0
O381 O 0.79585 0.70776 0.73787 0.0
C382 C 0.97815 0.74037 0.76323 0.0
O383 O 0.94634 0.73364 0.79123 0.0
O384 O 0.87812 0.5747 0.7165 0.0
C385 C 0.78833 0.73912 0.71084 0.0
O386 O 0.83375 0.73614 0.68794 0.0
C387 C 0.85603 0.62962 0.8169 0.0
O388 O 0.8106 0.67467 0.81558 0.0
O389 O 0.95785 0.71096 0.73746 0.0
C390 C 0.22689 0.07634 0.46597 0.0
O391 O 0.20514 0.0233 0.48045 0.0
O392 O 0.15298 0.13718 0.54089 0.0
Zn393 Zn 0.11364 0.12817 0.49515 0.0
O394 O 0.05984 0.04583 0.48787 0.0
C395 C 0.02736 0.22827 0.51325 0.0
O396 O 0.03418 0.19659 0.54127 0.0
O397 O 0.1929 0.12809 0.4665 0.0
C398 C 0.02847 0.0383 0.46084 0.0
O399 O 0.03144 0.08373 0.43795 0.0
C400 C 0.13794 0.10601 0.56691 0.0
O401 O 0.09283 0.06064 0.56559 0.0
O402 O 0.05665 0.20783 0.48747 0.0
C403 C 0.69124 0.47689 0.21598 0.0
O404 O 0.74428 0.45515 0.23045 0.0
O405 O 0.63047 0.403 0.29091 0.0
Zn406 Zn 0.63942 0.36364 0.24516 0.0
O407 O 0.72175 0.30983 0.23788 0.0
C408 C 0.53915 0.2775 0.26327 0.0
O409 O 0.57069 0.28444 0.29133 0.0
O410 O 0.63949 0.4429 0.21652 0.0
C411 C 0.72926 0.27849 0.21084 0.0
O412 O 0.68382 0.28149 0.18795 0.0
C413 C 0.66159 0.38789 0.31693 0.0
O414 O 0.70686 0.34268 0.3156 0.0
O415 O 0.55974 0.30667 0.23749 0.0
loop_
_geom_bond_atom_site_label_1
_geom_bond_atom_site_label_2
_geom_bond_distance
_geom_bond_site_symmetry_2
_ccdc_geom_bond_type
C0 O1 1.160 . S
C0 O7 1.185 1_554 S
O1 C0 1.160 . S
O2 Zn3 1.899 . S
O2 C10 1.284 . S
Zn3 O2 1.899 . S
Zn3 O4 2.032 . S
Zn3 O7 2.085 1_554 S
Zn3 O12 1.977 . S
O4 Zn3 2.032 . S
O4 C8 1.278 . S
C5 O6 1.203 1_455 S
C5 O12 1.267 . S
O6 C5 1.203 1_655 S
O7 C0 1.185 1_556 S
O7 Zn3 2.085 1_556 S
C8 O4 1.278 . S
C8 O9 1.211 1_455 S
O9 C8 1.211 1_655 S
C10 O2 1.284 . S
C10 O11 1.273 . S
O11 C10 1.273 . S
O12 Zn3 1.977 . S
O12 C5 1.267 . S
C13 O14 1.160 . S
C13 O20 1.185 . S
O14 C13 1.160 . S
O15 Zn16 1.899 . S
O15 C23 1.284 . S
Zn16 O15 1.899 . S
Zn16 O17 2.032 . S
Zn16 O20 2.086 . S
Zn16 O25 1.977 . S
O17 Zn16 2.032 . S
O17 C21 1.278 . S
C18 O19 1.203 . S
C18 O25 1.267 . S
O19 C18 1.203 . S
O20 C13 1.185 . S
O20 Zn16 2.086 . S
C21 O17 1.278 . S
C21 O22 1.211 . S
O22 C21 1.211 . S
C23 O15 1.284 . S
C23 O24 1.273 . S
O24 C23 1.273 . S
O25 Zn16 1.977 . S
O25 C18 1.267 . S
C26 O27 1.160 . S
C26 O33 1.185 . S
O27 C26 1.160 . S
O28 Zn29 1.899 . S
O28 C36 1.284 . S
Zn29 O28 1.899 . S
Zn29 O30 2.032 . S
Zn29 O33 2.086 . S
Zn29 O38 1.977 . S
O30 Zn29 2.032 . S
O30 C34 1.278 . S
C31 O32 1.203 . S
C31 O38 1.267 . S
O32 C31 1.203 . S
O33 C26 1.185 . S
O33 Zn29 2.086 . S
C34 O30 1.278 . S
C34 O35 1.211 . S
O35 C34 1.211 . S
C36 O28 1.284 . S
C36 O37 1.273 . S
O37 C36 1.273 . S
O38 Zn29 1.977 . S
O38 C31 1.267 . S
C39 O40 1.160 . S
C39 O46 1.185 . S
O40 C39 1.160 . S
O41 Zn42 1.899 . S
O41 C49 1.284 . S
Zn42 O41 1.899 . S
Zn42 O43 2.032 . S
Zn42 O46 2.086 . S
Zn42 O51 1.977 . S
O43 Zn42 2.032 . S
O43 C47 1.278 . S
C44 O45 1.203 . S
C44 O51 1.267 . S
O45 C44 1.203 . S
O46 C39 1.185 . S
O46 Zn42 2.086 . S
C47 O43 1.278 . S
C47 O48 1.211 . S
O48 C47 1.211 . S
C49 O41 1.284 . S
C49 O50 1.273 . S
O50 C49 1.273 . S
O51 Zn42 1.977 . S
O51 C44 1.267 . S
C52 O53 1.160 . S
C52 O59 1.185 . S
O53 C52 1.160 . S
O54 Zn55 1.899 . S
O54 C62 1.284 . S
Zn55 O54 1.899 . S
Zn55 O56 2.032 . S
Zn55 O59 2.086 . S
Zn55 O64 1.977 . S
O56 Zn55 2.032 . S
O56 C60 1.278 . S
C57 O58 1.203 1_455 S
C57 O64 1.267 . S
O58 C57 1.203 1_655 S
O59 C52 1.185 . S
O59 Zn55 2.086 . S
C60 O56 1.278 . S
C60 O61 1.211 1_455 S
O61 C60 1.211 1_655 S
C62 O54 1.284 . S
C62 O63 1.273 . S
O63 C62 1.273 . S
O64 Zn55 1.977 . S
O64 C57 1.267 . S
C65 O66 1.160 . S
C65 O72 1.185 . S
O66 C65 1.160 . S
O67 Zn68 1.899 . S
O67 C75 1.284 . S
Zn68 O67 1.899 . S
Zn68 O69 2.032 . S
Zn68 O72 2.086 . S
Zn68 O77 1.977 . S
O69 Zn68 2.032 . S
O69 C73 1.278 . S
C70 O71 1.203 . S
C70 O77 1.267 . S
O71 C70 1.203 . S
O72 C65 1.185 . S
O72 Zn68 2.086 . S
C73 O69 1.278 . S
C73 O74 1.211 . S
O74 C73 1.211 . S
C75 O67 1.284 . S
C75 O76 1.273 . S
O76 C75 1.273 . S
O77 Zn68 1.977 . S
O77 C70 1.267 . S
C78 O79 1.160 . S
C78 O85 1.185 1_556 S
O79 C78 1.160 . S
O80 Zn81 1.899 . S
O80 C88 1.284 . S
Zn81 O80 1.899 . S
Zn81 O82 2.032 . S
Zn81 O85 2.085 1_556 S
Zn81 O90 1.977 . S
O82 Zn81 2.032 . S
O82 C86 1.278 . S
C83 O84 1.203 . S
C83 O90 1.267 . S
O84 C83 1.203 . S
O85 C78 1.185 1_554 S
O85 Zn81 2.085 1_554 S
C86 O82 1.278 . S
C86 O87 1.211 . S
O87 C86 1.211 . S
C88 O80 1.284 . S
C88 O89 1.273 . S
O89 C88 1.273 . S
O90 Zn81 1.977 . S
O90 C83 1.267 . S
C91 O92 1.160 . S
C91 O98 1.185 . S
O92 C91 1.160 . S
O93 Zn94 1.899 . S
O93 C101 1.284 . S
Zn94 O93 1.899 . S
Zn94 O95 2.032 . S
Zn94 O98 2.086 . S
Zn94 O103 1.977 . S
O95 Zn94 2.032 . S
O95 C99 1.278 . S
C96 O97 1.203 . S
C96 O103 1.267 . S
O97 C96 1.203 . S
O98 C91 1.185 . S
O98 Zn94 2.086 . S
C99 O95 1.278 . S
C99 O100 1.211 . S
O100 C99 1.211 . S
C101 O93 1.284 . S
C101 O102 1.273 . S
O102 C101 1.273 . S
O103 Zn94 1.977 . S
O103 C96 1.267 . S
C104 O105 1.160 . S
C104 O111 1.185 1_556 S
O105 C104 1.160 . S
O106 Zn107 1.899 . S
O106 C114 1.284 . S
Zn107 O106 1.899 . S
Zn107 O108 2.032 . S
Zn107 O111 2.085 1_556 S
Zn107 O116 1.977 . S
O108 Zn107 2.032 . S
O108 C112 1.278 . S
C109 O110 1.203 1_655 S
C109 O116 1.267 . S
O110 C109 1.203 1_455 S
O111 C104 1.185 1_554 S
O111 Zn107 2.085 1_554 S
C112 O108 1.278 . S
C112 O113 1.211 1_655 S
O113 C112 1.211 1_455 S
C114 O106 1.284 . S
C114 O115 1.273 . S
O115 C114 1.273 . S
O116 Zn107 1.977 . S
O116 C109 1.267 . S
C117 O118 1.160 . S
C117 O124 1.185 . S
O118 C117 1.160 . S
O119 Zn120 1.899 . S
O119 C127 1.284 . S
Zn120 O119 1.899 . S
Zn120 O121 2.032 . S
Zn120 O124 2.086 . S
Zn120 O129 1.977 . S
O121 Zn120 2.032 . S
O121 C125 1.278 . S
C122 O123 1.203 . S
C122 O129 1.267 . S
O123 C122 1.203 . S
O124 C117 1.185 . S
O124 Zn120 2.086 . S
C125 O121 1.278 . S
C125 O126 1.211 . S
O126 C125 1.211 . S
C127 O119 1.284 . S
C127 O128 1.273 . S
O128 C127 1.273 . S
O129 Zn120 1.977 . S
O129 C122 1.267 . S
C130 O131 1.160 . S
C130 O137 1.185 . S
O131 C130 1.160 . S
O132 Zn133 1.899 . S
O132 C140 1.284 . S
Zn133 O132 1.899 . S
Zn133 O134 2.032 . S
Zn133 O137 2.086 . S
Zn133 O142 1.977 . S
O134 Zn133 2.032 . S
O134 C138 1.278 . S
C135 O136 1.203 . S
C135 O142 1.267 . S
O136 C135 1.203 . S
O137 C130 1.185 . S
O137 Zn133 2.086 . S
C138 O134 1.278 . S
C138 O139 1.211 . S
O139 C138 1.211 . S
C140 O132 1.284 . S
C140 O141 1.273 . S
O141 C140 1.273 . S
O142 Zn133 1.977 . S
O142 C135 1.267 . S
C143 O144 1.160 . S
C143 O150 1.185 . S
O144 C143 1.160 . S
O145 Zn146 1.899 . S
O145 C153 1.284 . S
Zn146 O145 1.899 . S
Zn146 O147 2.032 . S
Zn146 O150 2.086 . S
Zn146 O155 1.977 . S
O147 Zn146 2.032 . S
O147 C151 1.278 . S
C148 O149 1.203 . S
C148 O155 1.267 . S
O149 C148 1.203 . S
O150 C143 1.185 . S
O150 Zn146 2.086 . S
C151 O147 1.278 . S
C151 O152 1.211 . S
O152 C151 1.211 . S
C153 O145 1.284 . S
C153 O154 1.273 . S
O154 C153 1.273 . S
O155 Zn146 1.977 . S
O155 C148 1.267 . S
C156 O157 1.160 . S
C156 O163 1.185 . S
O157 C156 1.160 . S
O158 Zn159 1.899 . S
O158 C166 1.284 . S
Zn159 O158 1.899 . S
Zn159 O160 2.032 . S
Zn159 O163 2.086 . S
Zn159 O168 1.977 . S
O160 Zn159 2.032 . S
O160 C164 1.278 . S
C161 O162 1.203 1_655 S
C161 O168 1.267 . S
O162 C161 1.203 1_455 S
O163 C156 1.185 . S
O163 Zn159 2.086 . S
C164 O160 1.278 . S
C164 O165 1.211 1_655 S
O165 C164 1.211 1_455 S
C166 O158 1.284 . S
C166 O167 1.273 . S
O167 C166 1.273 . S
O168 Zn159 1.977 . S
O168 C161 1.267 . S
C169 O170 1.160 . S
C169 O176 1.185 . S
O170 C169 1.160 . S
O171 Zn172 1.899 . S
O171 C179 1.284 . S
Zn172 O171 1.899 . S
Zn172 O173 2.032 . S
Zn172 O176 2.086 . S
Zn172 O181 1.977 . S
O173 Zn172 2.032 . S
O173 C177 1.278 . S
C174 O175 1.203 . S
C174 O181 1.267 . S
O175 C174 1.203 . S
O176 C169 1.185 . S
O176 Zn172 2.086 . S
C177 O173 1.278 . S
C177 O178 1.211 . S
O178 C177 1.211 . S
C179 O171 1.284 . S
C179 O180 1.273 . S
O180 C179 1.273 . S
O181 Zn172 1.977 . S
O181 C174 1.267 . S
C182 O183 1.160 . S
C182 O189 1.185 1_554 S
O183 C182 1.160 . S
O184 Zn185 1.899 . S
O184 C192 1.284 . S
Zn185 O184 1.899 . S
Zn185 O186 2.032 . S
Zn185 O189 2.085 1_554 S
Zn185 O194 1.977 . S
O186 Zn185 2.032 . S
O186 C190 1.278 . S
C187 O188 1.203 . S
C187 O194 1.267 . S
O188 C187 1.203 . S
O189 C182 1.185 1_556 S
O189 Zn185 2.085 1_556 S
C190 O186 1.278 . S
C190 O191 1.211 . S
O191 C190 1.211 . S
C192 O184 1.284 . S
C192 O193 1.273 . S
O193 C192 1.273 . S
O194 Zn185 1.977 . S
O194 C187 1.267 . S
C195 O196 1.160 . S
C195 O202 1.185 . S
O196 C195 1.160 . S
O197 Zn198 1.899 . S
O197 C205 1.284 . S
Zn198 O197 1.899 . S
Zn198 O199 2.032 . S
Zn198 O202 2.086 . S
Zn198 O207 1.977 . S
O199 Zn198 2.032 . S
O199 C203 1.278 . S
C200 O201 1.203 . S
C200 O207 1.267 . S
O201 C200 1.203 . S
O202 C195 1.185 . S
O202 Zn198 2.086 . S
C203 O199 1.278 . S
C203 O204 1.211 . S
O204 C203 1.211 . S
C205 O197 1.284 . S
C205 O206 1.273 . S
O206 C205 1.273 . S
O207 Zn198 1.977 . S
O207 C200 1.267 . S
C208 O209 1.160 . S
C208 O215 1.185 . S
O209 C208 1.160 . S
O210 Zn211 1.899 . S
O210 C218 1.284 . S
Zn211 O210 1.899 . S
Zn211 O212 2.032 . S
Zn211 O215 2.086 . S
Zn211 O220 1.977 . S
O212 Zn211 2.032 . S
O212 C216 1.278 . S
C213 O214 1.203 . S
C213 O220 1.267 . S
O214 C213 1.203 . S
O215 C208 1.185 . S
O215 Zn211 2.086 . S
C216 O212 1.278 . S
C216 O217 1.211 . S
O217 C216 1.211 . S
C218 O210 1.284 . S
C218 O219 1.273 . S
O219 C218 1.273 . S
O220 Zn211 1.977 . S
O220 C213 1.267 . S
C221 O222 1.160 . S
C221 O228 1.185 . S
O222 C221 1.160 . S
O223 Zn224 1.899 . S
O223 C231 1.284 . S
Zn224 O223 1.899 . S
Zn224 O225 2.032 . S
Zn224 O228 2.086 . S
Zn224 O233 1.977 . S
O225 Zn224 2.032 . S
O225 C229 1.278 . S
C226 O227 1.203 . S
C226 O233 1.267 . S
O227 C226 1.203 . S
O228 C221 1.185 . S
O228 Zn224 2.086 . S
C229 O225 1.278 . S
C229 O230 1.211 . S
O230 C229 1.211 . S
C231 O223 1.284 . S
C231 O232 1.273 . S
O232 C231 1.273 . S
O233 Zn224 1.977 . S
O233 C226 1.267 . S
C234 O235 1.160 . S
C234 O241 1.185 1_554 S
O235 C234 1.160 . S
O236 Zn237 1.899 . S
O236 C244 1.284 . S
Zn237 O236 1.899 . S
Zn237 O238 2.032 . S
Zn237 O241 2.085 1_554 S
Zn237 O246 1.977 . S
O238 Zn237 2.032 . S
O238 C242 1.278 . S
C239 O240 1.203 1_655 S
C239 O246 1.267 . S
O240 C239 1.203 1_455 S
O241 C234 1.185 1_556 S
O241 Zn237 2.085 1_556 S
C242 O238 1.278 . S
C242 O243 1.211 1_655 S
O243 C242 1.211 1_455 S
C244 O236 1.284 . S
C244 O245 1.273 . S
O245 C244 1.273 . S
O246 Zn237 1.977 . S
O246 C239 1.267 . S
C247 O248 1.160 . S
C247 O254 1.185 . S
O248 C247 1.160 . S
O249 Zn250 1.899 . S
O249 C257 1.284 . S
Zn250 O249 1.899 . S
Zn250 O251 2.032 . S
Zn250 O254 2.086 . S
Zn250 O259 1.977 . S
O251 Zn250 2.032 . S
O251 C255 1.278 . S
C252 O253 1.203 . S
C252 O259 1.267 . S
O253 C252 1.203 . S
O254 C247 1.185 . S
O254 Zn250 2.086 . S
C255 O251 1.278 . S
C255 O256 1.211 . S
O256 C255 1.211 . S
C257 O249 1.284 . S
C257 O258 1.273 . S
O258 C257 1.273 . S
O259 Zn250 1.977 . S
O259 C252 1.267 . S
C260 O261 1.160 . S
C260 O267 1.185 1_556 S
O261 C260 1.160 . S
O262 Zn263 1.899 . S
O262 C270 1.284 . S
Zn263 O262 1.899 . S
Zn263 O264 2.032 . S
Zn263 O267 2.085 1_556 S
Zn263 O272 1.977 . S
O264 Zn263 2.032 . S
O264 C268 1.278 . S
C265 O266 1.203 . S
C265 O272 1.267 . S
O266 C265 1.203 . S
O267 C260 1.185 1_554 S
O267 Zn263 2.085 1_554 S
C268 O264 1.278 . S
C268 O269 1.211 . S
O269 C268 1.211 . S
C270 O262 1.284 . S
C270 O271 1.273 . S
O271 C270 1.273 . S
O272 Zn263 1.977 . S
O272 C265 1.267 . S
C273 O274 1.160 . S
C273 O280 1.185 . S
O274 C273 1.160 . S
O275 Zn276 1.899 . S
O275 C283 1.284 . S
Zn276 O275 1.899 . S
Zn276 O277 2.032 . S
Zn276 O280 2.086 . S
Zn276 O285 1.977 . S
O277 Zn276 2.032 . S
O277 C281 1.278 . S
C278 O279 1.203 . S
C278 O285 1.267 . S
O279 C278 1.203 . S
O280 C273 1.185 . S
O280 Zn276 2.086 . S
C281 O277 1.278 . S
C281 O282 1.211 . S
O282 C281 1.211 . S
C283 O275 1.284 . S
C283 O284 1.273 . S
O284 C283 1.273 . S
O285 Zn276 1.977 . S
O285 C278 1.267 . S
C286 O287 1.160 . S
C286 O293 1.185 . S
O287 C286 1.160 . S
O288 Zn289 1.899 . S
O288 C296 1.284 . S
Zn289 O288 1.899 . S
Zn289 O290 2.032 . S
Zn289 O293 2.086 . S
Zn289 O298 1.977 . S
O290 Zn289 2.032 . S
O290 C294 1.278 . S
C291 O292 1.203 1_655 S
C291 O298 1.267 . S
O292 C291 1.203 1_455 S
O293 C286 1.185 . S
O293 Zn289 2.086 . S
C294 O290 1.278 . S
C294 O295 1.211 1_655 S
O295 C294 1.211 1_455 S
C296 O288 1.284 . S
C296 O297 1.273 . S
O297 C296 1.273 . S
O298 Zn289 1.977 . S
O298 C291 1.267 . S
C299 O300 1.160 . S
C299 O306 1.185 . S
O300 C299 1.160 . S
O301 Zn302 1.899 . S
O301 C309 1.284 . S
Zn302 O301 1.899 . S
Zn302 O303 2.032 . S
Zn302 O306 2.086 . S
Zn302 O311 1.977 . S
O303 Zn302 2.032 . S
O303 C307 1.278 . S
C304 O305 1.203 . S
C304 O311 1.267 . S
O305 C304 1.203 . S
O306 C299 1.185 . S
O306 Zn302 2.086 . S
C307 O303 1.278 . S
C307 O308 1.211 . S
O308 C307 1.211 . S
C309 O301 1.284 . S
C309 O310 1.273 . S
O310 C309 1.273 . S
O311 Zn302 1.977 . S
O311 C304 1.267 . S
C312 O313 1.160 . S
C312 O319 1.185 . S
O313 C312 1.160 . S
O314 Zn315 1.899 . S
O314 C322 1.284 . S
Zn315 O314 1.899 . S
Zn315 O316 2.032 . S
Zn315 O319 2.086 . S
Zn315 O324 1.977 . S
O316 Zn315 2.032 . S
O316 C320 1.278 . S
C317 O318 1.203 . S
C317 O324 1.267 . S
O318 C317 1.203 . S
O319 C312 1.185 . S
O319 Zn315 2.086 . S
C320 O316 1.278 . S
C320 O321 1.211 . S
O321 C320 1.211 . S
C322 O314 1.284 . S
C322 O323 1.273 . S
O323 C322 1.273 . S
O324 Zn315 1.977 . S
O324 C317 1.267 . S
C325 O326 1.160 . S
C325 O332 1.185 . S
O326 C325 1.160 . S
O327 Zn328 1.899 . S
O327 C335 1.284 . S
Zn328 O327 1.899 . S
Zn328 O329 2.032 . S
Zn328 O332 2.086 . S
Zn328 O337 1.977 . S
O329 Zn328 2.032 . S
O329 C333 1.278 . S
C330 O331 1.203 . S
C330 O337 1.267 . S
O331 C330 1.203 . S
O332 C325 1.185 . S
O332 Zn328 2.086 . S
C333 O329 1.278 . S
C333 O334 1.211 . S
O334 C333 1.211 . S
C335 O327 1.284 . S
C335 O336 1.273 . S
O336 C335 1.273 . S
O337 Zn328 1.977 . S
O337 C330 1.267 . S
C338 O339 1.160 . S
C338 O345 1.185 1_556 S
O339 C338 1.160 . S
O340 Zn341 1.899 . S
O340 C348 1.284 . S
Zn341 O340 1.899 . S
Zn341 O342 2.032 . S
Zn341 O345 2.085 1_556 S
Zn341 O350 1.977 . S
O342 Zn341 2.032 . S
O342 C346 1.278 . S
C343 O344 1.203 1_455 S
C343 O350 1.267 . S
O344 C343 1.203 1_655 S
O345 C338 1.185 1_554 S
O345 Zn341 2.085 1_554 S
C346 O342 1.278 . S
C346 O347 1.211 1_455 S
O347 C346 1.211 1_655 S
C348 O340 1.284 . S
C348 O349 1.273 . S
O349 C348 1.273 . S
O350 Zn341 1.977 . S
O350 C343 1.267 . S
C351 O352 1.160 . S
C351 O358 1.185 . S
O352 C351 1.160 . S
O353 Zn354 1.899 . S
O353 C361 1.284 . S
Zn354 O353 1.899 . S
Zn354 O355 2.032 . S
Zn354 O358 2.086 . S
Zn354 O363 1.977 . S
O355 Zn354 2.032 . S
O355 C359 1.278 . S
C356 O357 1.203 . S
C356 O363 1.267 . S
O357 C356 1.203 . S
O358 C351 1.185 . S
O358 Zn354 2.086 . S
C359 O355 1.278 . S
C359 O360 1.211 . S
O360 C359 1.211 . S
C361 O353 1.284 . S
C361 O362 1.273 . S
O362 C361 1.273 . S
O363 Zn354 1.977 . S
O363 C356 1.267 . S
C364 O365 1.160 . S
C364 O371 1.185 1_554 S
O365 C364 1.160 . S
O366 Zn367 1.899 . S
O366 C374 1.284 . S
Zn367 O366 1.899 . S
Zn367 O368 2.032 . S
Zn367 O371 2.085 1_554 S
Zn367 O376 1.977 . S
O368 Zn367 2.032 . S
O368 C372 1.278 . S
C369 O370 1.203 . S
C369 O376 1.267 . S
O370 C369 1.203 . S
O371 C364 1.185 1_556 S
O371 Zn367 2.085 1_556 S
C372 O368 1.278 . S
C372 O373 1.211 . S
O373 C372 1.211 . S
C374 O366 1.284 . S
C374 O375 1.273 . S
O375 C374 1.273 . S
O376 Zn367 1.977 . S
O376 C369 1.267 . S
C377 O378 1.160 . S
C377 O384 1.185 . S
O378 C377 1.160 . S
O379 Zn380 1.899 . S
O379 C387 1.284 . S
Zn380 O379 1.899 . S
Zn380 O381 2.032 . S
Zn380 O384 2.086 . S
Zn380 O389 1.977 . S
O381 Zn380 2.032 . S
O381 C385 1.278 . S
C382 O383 1.203 . S
C382 O389 1.267 . S
O383 C382 1.203 . S
O384 C377 1.185 . S
O384 Zn380 2.086 . S
C385 O381 1.278 . S
C385 O386 1.211 . S
O386 C385 1.211 . S
C387 O379 1.284 . S
C387 O388 1.273 . S
O388 C387 1.273 . S
O389 Zn380 1.977 . S
O389 C382 1.267 . S
C390 O391 1.160 . S
C390 O397 1.185 . S
O391 C390 1.160 . S
O392 Zn393 1.899 . S
O392 C400 1.284 . S
Zn393 O392 1.899 . S
Zn393 O394 2.032 . S
Zn393 O397 2.086 . S
Zn393 O402 1.977 . S
O394 Zn393 2.032 . S
O394 C398 1.278 . S
C395 O396 1.203 1_455 S
C395 O402 1.267 . S
O396 C395 1.203 1_655 S
O397 C390 1.185 . S
O397 Zn393 2.086 . S
C398 O394 1.278 . S
C398 O399 1.211 1_455 S
O399 C398 1.211 1_655 S
C400 O392 1.284 . S
C400 O401 1.273 . S
O401 C400 1.273 . S
O402 Zn393 1.977 . S
O402 C395 1.267 . S
C403 O404 1.160 . S
C403 O410 1.185 . S
O404 C403 1.160 . S
O405 Zn406 1.899 . S
O405 C413 1.284 . S
Zn406 O405 1.899 . S
Zn406 O407 2.032 . S
Zn406 O410 2.086 . S
Zn406 O415 1.977 . S
O407 Zn406 2.032 . S
O407 C411 1.278 . S
C408 O409 1.203 . S
C408 O415 1.267 . S
O409 C408 1.203 . S
O410 C403 1.185 . S
O410 Zn406 2.086 . S
C411 O407 1.278 . S
C411 O412 1.211 . S
O412 C411 1.211 . S
C413 O405 1.284 . S
C413 O414 1.273 . S
O414 C413 1.273 . S
O415 Zn406 1.977 . S
O415 C408 1.267 . S
C112 C8 1.679 1_656 S
C333 C21 1.680 . S
C138 C34 1.679 . S
C359 C47 1.679 . S
C164 C60 1.679 1_655 S
C73 C385 1.679 . S
C86 C190 1.680 1_556 S
C99 C411 1.680 . S
C229 C125 1.680 . S
C255 C151 1.679 . S
C177 C281 1.679 . S
C203 C307 1.680 . S
C216 C320 1.680 1_565 S
C346 C242 1.680 1_466 S
C268 C372 1.680 1_546 S
C398 C294 1.680 1_445 S
C239 C5 1.143 1_655 S
C252 C18 1.143 1_455 S
C31 C213 1.144 . S
C44 C226 1.143 . S
C291 C57 1.144 1_655 S
C70 C304 1.143 . S
C265 C83 1.143 . S
C278 C96 1.143 1_455 S
C109 C343 1.143 1_655 S
C356 C122 1.143 1_655 S
C135 C317 1.144 . S
C148 C330 1.143 . S
C161 C395 1.144 1_655 S
C174 C408 1.143 . S
C369 C187 1.143 . S
C382 C200 1.143 1_655 S
C78 C0 1.085 1_556 S
C91 C13 1.085 1_545 S
C52 C26 1.085 . S
C39 C65 1.085 1_545 S
C182 C104 1.085 1_554 S
C195 C117 1.085 1_565 S
C156 C130 1.085 . S
C169 C143 1.085 1_545 S
C286 C208 1.085 . S
C299 C221 1.085 . S
C234 C260 1.085 1_554 S
C247 C273 1.085 . S
C390 C312 1.085 . S
C403 C325 1.085 . S
C338 C364 1.085 1_556 S
C351 C377 1.085 . S
C10 C283 1.951 . S
C296 C23 1.951 . S
C309 C36 1.952 . S
C49 C270 1.951 . S
C257 C62 1.952 . S
C75 C218 1.951 . S
C231 C88 1.951 . S
C101 C244 1.951 . S
C387 C114 1.951 . S
C400 C127 1.951 . S
C140 C413 1.952 . S
C374 C153 1.951 . S
C361 C166 1.952 . S
C179 C322 1.951 . S
C335 C192 1.951 . S
C205 C348 1.951 . S
