# Generated by pormake.
# Topology wkj, (6)-cn, num edge types: 1
# Building blocks:
#     Node 0, Type 0, BuildingBlock: PAMTOO_clean_sbu_0, # of connection points: 6
#     Node 1, Type 0, BuildingBlock: PAMTOO_clean_sbu_0, # of connection points: 6
#     Node 2, Type 0, BuildingBlock: PAMTOO_clean_sbu_0, # of connection points: 6
#     Node 3, Type 0, BuildingBlock: PAMTOO_clean_sbu_0, # of connection points: 6
#     Node 4, Type 0, BuildingBlock: PAMTOO_clean_sbu_0, # of connection points: 6
#     Node 5, Type 0, BuildingBlock: PAMTOO_clean_sbu_0, # of connection points: 6
#     Node 6, Type 0, BuildingBlock: PAMTOO_clean_sbu_0, # of connection points: 6
#     Node 7, Type 0, BuildingBlock: PAMTOO_clean_sbu_0, # of connection points: 6
#     Node 8, Type 0, BuildingBlock: PAMTOO_clean_sbu_0, # of connection points: 6
#     Node 9, Type 0, BuildingBlock: PAMTOO_clean_sbu_0, # of connection points: 6
#     Node 10, Type 0, BuildingBlock: PAMTOO_clean_sbu_0, # of connection points: 6
#     Node 11, Type 0, BuildingBlock: PAMTOO_clean_sbu_0, # of connection points: 6
#     Edge 12, Type (0, 0), BuildingBlock: OJICUG_clean_linker_0, # of connection points: 2
#     Edge 13, Type (0, 0), BuildingBlock: OJICUG_clean_linker_0, # of connection points: 2
#     Edge 14, Type (0, 0), BuildingBlock: OJICUG_clean_linker_0, # of connection points: 2
#     Edge 15, Type (0, 0), BuildingBlock: OJICUG_clean_linker_0, # of connection points: 2
#     Edge 16, Type (0, 0), BuildingBlock: OJICUG_clean_linker_0, # of connection points: 2
#     Edge 17, Type (0, 0), BuildingBlock: OJICUG_clean_linker_0, # of connection points: 2
#     Edge 18, Type (0, 0), BuildingBlock: OJICUG_clean_linker_0, # of connection points: 2
#     Edge 19, Type (0, 0), BuildingBlock: OJICUG_clean_linker_0, # of connection points: 2
#     Edge 20, Type (0, 0), BuildingBlock: OJICUG_clean_linker_0, # of connection points: 2
#     Edge 21, Type (0, 0), BuildingBlock: OJICUG_clean_linker_0, # of connection points: 2
#     Edge 22, Type (0, 0), BuildingBlock: OJICUG_clean_linker_0, # of connection points: 2
#     Edge 23, Type (0, 0), BuildingBlock: OJICUG_clean_linker_0, # of connection points: 2
#     Edge 24, Type (0, 0), BuildingBlock: OJICUG_clean_linker_0, # of connection points: 2
#     Edge 25, Type (0, 0), BuildingBlock: OJICUG_clean_linker_0, # of connection points: 2
#     Edge 26, Type (0, 0), BuildingBlock: OJICUG_clean_linker_0, # of connection points: 2
#     Edge 27, Type (0, 0), BuildingBlock: OJICUG_clean_linker_0, # of connection points: 2
#     Edge 28, Type (0, 0), BuildingBlock: OJICUG_clean_linker_0, # of connection points: 2
#     Edge 29, Type (0, 0), BuildingBlock: OJICUG_clean_linker_0, # of connection points: 2
#     Edge 30, Type (0, 0), BuildingBlock: OJICUG_clean_linker_0, # of connection points: 2
#     Edge 31, Type (0, 0), BuildingBlock: OJICUG_clean_linker_0, # of connection points: 2
#     Edge 32, Type (0, 0), BuildingBlock: OJICUG_clean_linker_0, # of connection points: 2
#     Edge 33, Type (0, 0), BuildingBlock: OJICUG_clean_linker_0, # of connection points: 2
#     Edge 34, Type (0, 0), BuildingBlock: OJICUG_clean_linker_0, # of connection points: 2
#     Edge 35, Type (0, 0), BuildingBlock: OJICUG_clean_linker_0, # of connection points: 2
#     Edge 36, Type (0, 0), BuildingBlock: OJICUG_clean_linker_0, # of connection points: 2
#     Edge 37, Type (0, 0), BuildingBlock: OJICUG_clean_linker_0, # of connection points: 2
#     Edge 38, Type (0, 0), BuildingBlock: OJICUG_clean_linker_0, # of connection points: 2
#     Edge 39, Type (0, 0), BuildingBlock: OJICUG_clean_linker_0, # of connection points: 2
#     Edge 40, Type (0, 0), BuildingBlock: OJICUG_clean_linker_0, # of connection points: 2
#     Edge 41, Type (0, 0), BuildingBlock: OJICUG_clean_linker_0, # of connection points: 2
#     Edge 42, Type (0, 0), BuildingBlock: OJICUG_clean_linker_0, # of connection points: 2
#     Edge 43, Type (0, 0), BuildingBlock: OJICUG_clean_linker_0, # of connection points: 2
#     Edge 44, Type (0, 0), BuildingBlock: OJICUG_clean_linker_0, # of connection points: 2
#     Edge 45, Type (0, 0), BuildingBlock: OJICUG_clean_linker_0, # of connection points: 2
#     Edge 46, Type (0, 0), BuildingBlock: OJICUG_clean_linker_0, # of connection points: 2
#     Edge 47, Type (0, 0), BuildingBlock: OJICUG_clean_linker_0, # of connection points: 2
# Relax obj value: 1.191
# Max RMSD: 0.190
# Mean RMSD: 0.190
data_MOF--net-wkj--node1-PAMTOO_clean_sbu_0--edge1-OJICUG_clean_linker_0
_symmetry_space_group_name_H-M    P1
_symmetry_Int_Tables_number       1
_symmetry_cell_setting            triclinic
loop_
_symmetry_equiv_pos_as_xyz
'x, y, z'
_cell_length_a     38.254962
_cell_length_b     38.061225
_cell_length_c     21.27148
_cell_angle_alpha  89.865446
_cell_angle_beta   90.786388
_cell_angle_gamma 119.87677
loop_
_atom_site_label
_atom_site_type_symbol
_atom_site_fract_x
_atom_site_fract_y
_atom_site_fract_z
_atom_type_partial_charge
Dy0 Dy 0.52535 0.1103 0.42572 0.0
Dy1 Dy 0.43558 0.08204 0.4716 0.0
C2 C 0.48863 0.17234 0.41499 0.0
O3 O 0.53145 0.10572 0.53503 0.0
O4 O 0.47086 0.09687 0.56916 0.0
O5 O 0.58808 0.13539 0.45349 0.0
O6 O 0.56982 0.11865 0.35696 0.0
O7 O 0.45786 0.04387 0.50981 0.0
O8 O 0.49144 0.04278 0.42662 0.0
O9 O 0.42473 0.05312 0.3705 0.0
O10 O 0.48874 0.07829 0.3335 0.0
O11 O 0.37384 0.03587 0.4612 0.0
O12 O 0.38961 0.08847 0.52071 0.0
C13 C 0.50789 0.10266 0.58309 0.0
O14 O 0.52053 0.16759 0.41191 0.0
O15 O 0.45399 0.14298 0.43399 0.0
C16 C 0.62905 0.17996 0.37408 0.0
C17 C 0.65274 0.25089 0.30427 0.0
C18 C 0.65832 0.21939 0.28044 0.0
C19 C 0.64653 0.18423 0.31522 0.0
C20 C 0.63075 0.21407 0.40265 0.0
C21 C 0.64334 0.24963 0.36832 0.0
C22 C 0.59998 0.1389 0.39562 0.0
C23 C 0.46423 0.02311 0.46891 0.0
C24 C 0.44884 0.05567 0.32361 0.0
C25 C 0.32526 0.02914 0.53503 0.0
C26 C 0.2531 -0.02012 0.59847 0.0
C27 C 0.2648 0.02036 0.58503 0.0
C28 C 0.30055 0.04473 0.55326 0.0
C29 C 0.31332 -0.01148 0.54744 0.0
C30 C 0.27755 0.96412 0.57889 0.0
C31 C 0.36073 0.05446 0.49713 0.0
H32 H 0.66634 0.21892 0.23201 0.0
H33 H 0.64613 0.1585 0.29271 0.0
H34 H 0.61824 0.21199 0.4488 0.0
H35 H 0.64079 0.27404 0.38967 0.0
H36 H 0.2466 0.03325 0.59994 0.0
H37 H 0.30889 0.07579 0.54272 0.0
H38 H 0.33155 0.97562 0.53302 0.0
H39 H 0.26986 0.93331 0.59 0.0
Dy40 Dy 0.38786 0.52891 0.75997 0.0
Dy41 Dy 0.34862 0.44029 0.81908 0.0
C42 C 0.29217 0.47147 0.77379 0.0
O43 O 0.40321 0.54864 0.8647 0.0
O44 O 0.3629 0.48496 0.90638 0.0
O45 O 0.37501 0.57759 0.742 0.0
O46 O 0.42323 0.57623 0.69292 0.0
O47 O 0.40996 0.4843 0.85273 0.0
O48 O 0.44403 0.5274 0.77859 0.0
O49 O 0.36337 0.42552 0.71869 0.0
O50 O 0.38239 0.48666 0.67369 0.0
O51 O 0.30385 0.3956 0.87948 0.0
O52 O 0.351 0.38618 0.84024 0.0
C53 C 0.38666 0.52545 0.91523 0.0
O54 O 0.32352 0.50656 0.78779 0.0
O55 O 0.29665 0.4399 0.77054 0.0
C56 C 0.3687 0.57054 0.63417 0.0
C57 C 0.28466 0.49413 0.532 0.0
C58 C 0.2761 0.53138 0.58616 0.0
C59 C 0.31876 0.5675 0.63618 0.0
C60 C 0.37867 0.53845 0.5802 0.0
C61 C 0.33964 0.50092 0.52776 0.0
C62 C 0.39486 0.58569 0.68992 0.0
C63 C 0.43978 0.49804 0.8148 0.0
C64 C 0.37516 0.44851 0.66708 0.0
C65 C 0.28859 0.3275 0.86189 0.0
C66 C 0.23646 0.24657 0.89392 0.0
C67 C 0.22071 0.27203 0.87848 0.0
C68 C 0.24684 0.31267 0.86381 0.0
C69 C 0.30277 0.29998 0.86311 0.0
C70 C 0.2768 0.2596 0.87818 0.0
C71 C 0.31781 0.3707 0.87227 0.0
H72 H 0.24619 0.52697 0.59296 0.0
H73 H 0.31355 0.58501 0.67095 0.0
H74 H 0.40773 0.54032 0.58245 0.0
H75 H 0.34508 0.47963 0.50203 0.0
H76 H 0.18933 0.26236 0.88683 0.0
H77 H 0.23481 0.33306 0.86058 0.0
H78 H 0.33475 0.31049 0.85994 0.0
H79 H 0.29027 0.24089 0.8871 0.0
Dy80 Dy 0.85278 0.40215 1.09616 0.0
Dy81 Dy 0.8856 0.34217 1.1325 0.0
C82 C 0.79275 0.30199 1.08757 0.0
O83 O 0.84915 0.40245 1.20669 0.0
O84 O 0.87152 0.35865 0.23491 0.0
O85 O 0.81414 0.42582 1.12158 0.0
O86 O 0.84502 0.4428 1.03317 0.0
O87 O 0.93257 0.40438 1.12121 0.0
O88 O 0.90436 0.43802 1.16022 0.0
O89 O 0.91192 0.36326 1.03019 0.0
O90 O 0.90171 0.41713 1.01615 0.0
O91 O 0.92386 0.32704 1.18742 0.0
O92 O 0.89244 0.29165 1.10412 0.0
C93 C 0.85835 0.3842 0.25285 0.0
O94 O 0.80021 0.3386 1.07105 0.0
O95 O 0.82038 0.2974 1.11719 0.0
C96 C 0.77641 0.42568 1.03606 0.0
C97 C 0.69512 0.38387 0.99486 0.0
C98 C 0.72229 0.3709 0.97708 0.0
C99 C 0.76226 0.39152 0.99728 0.0
C100 C 0.74983 0.43921 1.0539 0.0
C101 C 0.70951 0.41871 1.0328 0.0
C102 C 0.8161 0.44163 1.06675 0.0
C103 C 0.9331 0.42936 1.1622 0.0
C104 C 0.91934 0.39606 0.99624 0.0
C105 C 0.90477 0.25795 1.18597 0.0
C106 C 0.90125 0.19814 0.26687 0.0
C107 C 0.87827 0.21714 0.27878 0.0
C108 C 0.88023 0.24698 0.23869 0.0
C109 C 0.92216 0.23476 1.16821 0.0
C110 C 0.91966 0.20431 1.20782 0.0
C111 C 0.91526 0.29537 1.15258 0.0
H112 H 0.71312 0.34525 0.94585 0.0
H113 H 0.78193 0.38008 0.98358 0.0
H114 H 0.76004 0.46503 1.08513 0.0
H115 H 0.6896 0.42988 1.04633 0.0
H116 H 0.86274 0.21308 0.32262 0.0
H117 H 0.86543 0.26381 0.25178 0.0
H118 H 0.94008 0.2421 1.12612 0.0
H119 H 0.93601 0.18896 1.19536 0.0
Dy120 Dy 0.41357 0.82207 0.42638 0.0
Dy121 Dy 0.48632 0.89633 0.47005 0.0
C122 C 0.48977 0.81467 0.43396 0.0
O123 O 0.39526 0.83049 0.52972 0.0
O124 O 0.45751 0.87566 0.56722 0.0
O125 O 0.37326 0.7579 0.43697 0.0
O126 O 0.37004 0.78863 0.35317 0.0
O127 O 0.4355 0.91004 0.45243 0.0
O128 O 0.37721 0.84899 0.44142 0.0
O129 O 0.47934 0.92599 0.3845 0.0
O130 O 0.44863 0.86521 0.33608 0.0
O131 O 0.52447 0.94116 0.53891 0.0
O132 O 0.54633 0.94246 0.44509 0.0
C133 C 0.41845 0.85281 0.57827 0.0
O134 O 0.4534 0.79708 0.45532 0.0
O135 O 0.5066 0.85399 0.4248 0.0
C136 C 0.36193 0.72422 0.34162 0.0
C137 C 0.36992 0.67285 0.25554 0.0
C138 C 0.4038 0.70949 0.27596 0.0
C139 C 0.39978 0.73455 0.31868 0.0
C140 C 0.32842 0.68667 0.32615 0.0
C141 C 0.33254 0.66071 0.28413 0.0
C142 C 0.35839 0.75377 0.38028 0.0
C143 C 0.39561 0.88767 0.4446 0.0
C144 C 0.46948 0.90643 0.33117 0.0
C145 C 0.59269 0.95971 0.52745 0.0
C146 C 0.66341 0.96801 0.58364 0.0
C147 C 0.62547 0.93393 0.59599 0.0
C148 C 0.5906 0.92977 0.56792 0.0
C149 C 0.63037 -0.00812 0.51037 0.0
C150 C 0.66559 -0.00416 0.53784 0.0
C151 C 0.55562 0.95679 0.50201 0.0
H152 H 0.43328 0.72087 0.25579 0.0
H153 H 0.42596 0.76334 0.33097 0.0
H154 H 0.29908 0.678 0.34504 0.0
H155 H 0.30593 0.63259 0.27065 0.0
H156 H 0.62184 0.91185 0.63122 0.0
H157 H 0.56177 0.90399 0.58014 0.0
H158 H 0.63246 0.01458 0.47741 0.0
H159 H 0.69422 0.02195 0.526 0.0
Dy160 Dy 0.57333 0.44319 0.73982 0.0
Dy161 Dy 0.58386 0.51584 0.79204 0.0
C162 C 0.66064 0.50353 0.77382 0.0
O163 O 0.54709 0.42152 0.84465 0.0
O164 O 0.57103 0.48401 0.88764 0.0
O165 O 0.59165 0.39876 0.72397 0.0
O166 O 0.56205 0.41326 0.64961 0.0
O167 O 0.51933 0.46649 0.76481 0.0
O168 O 0.51348 0.40371 0.76262 0.0
O169 O 0.54967 0.5234 0.71101 0.0
O170 O 0.56283 0.48158 0.65582 0.0
O171 O 0.57825 0.55345 0.86214 0.0
O172 O 0.61022 0.57981 0.77526 0.0
C173 C 0.5514 0.4443 0.89619 0.0
O174 O 0.63305 0.467 0.78609 0.0
O175 O 0.64733 0.52864 0.76036 0.0
C176 C 0.61777 0.40744 0.62395 0.0
C177 C 0.7206 0.43413 0.57036 0.0
C178 C 0.67518 0.37738 0.56446 0.0
C179 C 0.62593 0.36707 0.59295 0.0
C180 C 0.65833 0.4613 0.6262 0.0
C181 C 0.70956 0.47723 0.59839 0.0
C182 C 0.5833 0.39628 0.66399 0.0
C183 C 0.4977 0.42612 0.75661 0.0
C184 C 0.54942 0.50859 0.65575 0.0
C185 C 0.63528 0.61915 0.86618 0.0
C186 C 0.69676 0.68149 0.93925 0.0
C187 C 0.68434 0.64036 0.9509 0.0
C188 C 0.65417 0.60968 0.91461 0.0
C189 C 0.64944 0.6598 0.85059 0.0
C190 C 0.68023 0.6908 0.88649 0.0
C191 C 0.60138 0.58676 0.83119 0.0
H192 H 0.68034 0.35258 0.55319 0.0
H193 H 0.6019 0.33594 0.59621 0.0
H194 H 0.65206 0.48371 0.64579 0.0
H195 H 0.73308 0.50856 0.59992 0.0
H196 H 0.69543 0.63112 0.99103 0.0
H197 H 0.64444 0.57842 0.92624 0.0
H198 H 0.63589 0.66755 0.81186 0.0
H199 H 0.68949 0.72189 0.8748 0.0
Dy200 Dy 0.10539 0.57108 1.10203 0.0
Dy201 Dy 0.05994 0.60844 1.15376 0.0
C202 C 0.15296 0.66648 1.12021 0.0
O203 O 0.11936 0.56432 1.20559 0.0
O204 O 0.09175 0.60135 0.24537 0.0
O205 O 0.16493 0.58149 1.078 0.0
O206 O 0.11285 0.53695 1.02627 0.0
O207 O 0.03423 0.55137 1.20901 0.0
O208 O 0.06378 0.51854 1.16041 0.0
O209 O 0.01491 0.5731 1.07218 0.0
O210 O 0.05792 0.5604 1.02053 0.0
O211 O 0.00676 0.61096 1.18078 0.0
O212 O 0.0644 0.66599 1.17157 0.0
C213 C 0.1111 0.58019 0.25531 0.0
O214 O 0.15454 0.63369 1.1299 0.0
O215 O 0.11673 0.66167 1.11192 0.0
C216 C 0.16005 0.59565 0.97306 0.0
C217 C 0.15663 0.68348 0.89948 0.0
C218 C 0.20264 0.69248 0.95383 0.0
C219 C 0.20166 0.64774 0.98916 0.0
C220 C 0.11831 0.58569 0.91723 0.0
C221 C 0.11474 0.62688 0.87819 0.0
C222 C 0.15065 0.56538 1.02313 0.0
C223 C 0.04025 0.52022 1.20389 0.0
C224 C 0.02211 0.55836 1.02113 0.0
C225 C 0.0151 0.67091 0.22831 0.0
C226 C -0.00332 0.71455 0.31472 0.0
C227 C 0.01992 0.69671 0.33316 0.0
C228 C 0.02912 0.67513 0.2902 0.0
C229 C -0.00764 0.68879 1.20915 0.0
C230 C -0.01695 0.71043 0.25216 0.0
C231 C 0.02605 0.65042 1.18171 0.0
H232 H 0.22511 0.7227 0.96831 0.0
H233 H 0.22473 0.65206 1.02309 0.0
H234 H 0.09353 0.55514 0.91177 0.0
H235 H 0.08823 0.62087 0.85101 0.0
H236 H 0.02968 0.6979 0.38153 0.0
H237 H 0.04684 0.66151 0.30531 0.0
H238 H -0.01828 0.68591 1.16092 0.0
H239 H 0.96466 0.72325 0.23692 0.0
Dy240 Dy 0.82537 0.42415 0.6909 0.0
Dy241 Dy 0.88449 0.50526 0.64528 0.0
C242 C 0.80528 0.49512 0.71113 0.0
O243 O 0.83976 0.41453 0.58351 0.0
O244 O 0.86929 0.47791 0.5449 0.0
O245 O 0.76614 0.38137 0.65494 0.0
O246 O 0.78942 0.36732 0.73861 0.0
O247 O 0.91014 0.46316 0.6633 0.0
O248 O 0.86547 0.40484 0.71531 0.0
O249 O 0.91515 0.5122 0.74103 0.0
O250 O 0.86542 0.45514 0.78567 0.0
O251 O 0.92936 0.54875 0.58297 0.0
O252 O 0.91731 0.56807 0.67226 0.0
C253 C 0.85414 0.43884 0.53281 0.0
O254 O 0.80562 0.46422 0.737 0.0
O255 O 0.82825 0.51108 0.66185 0.0
C256 C 0.72191 0.35162 0.73759 0.0
C257 C 0.65569 0.34758 0.79985 0.0
C258 C 0.69552 0.37615 0.81752 0.0
C259 C 0.72793 0.37734 0.78813 0.0
C260 C 0.68246 0.32424 0.71667 0.0
C261 C 0.6493 0.32151 0.74882 0.0
C262 C 0.75753 0.35788 0.70371 0.0
C263 C 0.90041 0.42888 0.69457 0.0
C264 C 0.90145 0.48997 0.79202 0.0
C265 C 0.93329 0.6128 0.58887 0.0
C266 C 0.93416 0.67853 0.52666 0.0
C267 C 0.90899 0.63834 0.50516 0.0
C268 C 0.90853 0.60589 0.53605 0.0
C269 C 0.95511 0.6519 0.61453 0.0
C270 C 0.95514 0.6845 0.58416 0.0
C271 C 0.93565 0.57937 0.61872 0.0
H272 H 0.70221 0.39652 0.85682 0.0
H273 H 0.75799 0.39903 0.80473 0.0
H274 H 0.67741 0.3048 0.67645 0.0
H275 H 0.61901 0.29871 0.73498 0.0
H276 H 0.89214 0.63171 0.46136 0.0
H277 H 0.89025 0.57563 0.51684 0.0
H278 H -0.02675 0.65743 0.65685 0.0
H279 H -0.02614 0.71464 0.60339 0.0
Dy280 Dy 0.388 0.87983 0.99152 0.0
Dy281 Dy 0.31485 0.88542 0.97061 0.0
C282 C 0.30368 0.81646 1.05119 0.0
O283 O 0.39339 0.87627 0.88775 0.0
O284 O 0.32926 0.86255 0.87093 0.0
O285 O 0.42789 0.8587 0.96093 0.0
O286 O 0.43394 0.88242 1.05498 0.0
O287 O 0.34569 0.93654 0.91015 0.0
O288 O 0.4041 0.93433 0.92769 0.0
O289 O 0.34581 0.9323 1.05567 0.0
O290 O 0.40248 0.9275 1.06906 0.0
O291 O 0.26952 0.90322 0.97114 0.0
O292 O 0.25275 0.84013 0.95514 0.0
C293 C 0.36379 0.86579 0.84739 0.0
O294 O 0.33081 0.81794 1.01222 0.0
O295 O 0.30517 0.85073 1.05856 0.0
C296 C 0.43599 0.822 1.04073 0.0
C297 C 0.40943 0.73996 1.06565 0.0
C298 C 0.39105 0.75984 1.09426 0.0
C299 C 0.40403 0.80022 1.08177 0.0
C300 C 0.45559 0.80292 1.01367 0.0
C301 C 0.44265 0.76213 1.02668 0.0
C302 C 0.44272 0.86106 1.01705 0.0
C303 C 0.38269 0.94827 0.8971 0.0
C304 C 0.38053 0.94352 1.08766 0.0
C305 C 0.21435 0.86493 0.90423 0.0
C306 C 0.18119 0.88184 0.79821 0.0
C307 C 0.20094 0.85916 0.79234 0.0
C308 C 0.21769 0.85106 0.84492 0.0
C309 C 0.19012 0.88263 0.91146 0.0
C310 C 0.17342 0.89092 0.85866 0.0
C311 C 0.24057 0.86676 0.95631 0.0
H312 H 0.36653 0.74419 1.12686 0.0
H313 H 0.38796 0.81392 1.1026 0.0
H314 H 0.47988 0.81914 0.98094 0.0
H315 H 0.45798 0.74776 1.00558 0.0
H316 H 0.20783 0.85184 0.74665 0.0
H317 H 0.23609 0.8371 0.83827 0.0
H318 H 0.18692 0.89309 0.95723 0.0
H319 H 0.15796 0.908 0.86461 0.0
Dy320 Dy 0.49625 0.4078 0.32129 0.0
Dy321 Dy 0.41645 0.33784 0.28492 0.0
C322 C 0.47817 0.31538 0.3362 0.0
O323 O 0.50681 0.41268 0.21397 0.0
O324 O 0.44837 0.35627 1.18383 0.0
O325 O 0.56038 0.43562 0.30836 0.0
O326 O 0.53667 0.46069 0.37607 0.0
O327 O 0.41429 0.37955 0.21922 0.0
O328 O 0.45629 0.43098 0.2843 0.0
O329 O 0.407 0.36026 0.38709 0.0
O330 O 0.46479 0.41957 0.40298 0.0
O331 O 0.35194 0.31209 0.27751 0.0
O332 O 0.37808 0.27301 0.2777 0.0
C333 C 0.48433 0.38831 1.16747 0.0
O334 O 0.49172 0.35027 0.36559 0.0
O335 O 0.45302 0.30774 0.29001 0.0
C336 C 0.5884 0.44963 0.40983 0.0
C337 C 0.62745 0.43231 0.50751 0.0
C338 C 0.59957 0.40113 0.46846 0.0
C339 C 0.58104 0.40995 0.41921 0.0
C340 C 0.61349 0.48025 0.45163 0.0
C341 C 0.63367 0.47197 0.49911 0.0
C342 C 0.56772 0.45794 0.3587 0.0
C343 C 0.42803 0.41573 0.24007 0.0
C344 C 0.42804 0.39428 0.42235 0.0
C345 C 0.31658 0.25062 0.2225 0.0
C346 C 0.26094 0.21087 1.12397 0.0
C347 C 0.30251 0.22637 1.11503 0.0
C348 C 0.33011 0.24627 1.1638 0.0
C349 C 0.27514 0.2335 0.23276 0.0
C350 C 0.24745 0.21379 1.18379 0.0
C351 C 0.34518 0.27512 0.27217 0.0
H352 H 0.59564 0.37096 0.47156 0.0
H353 H 0.56273 0.38604 0.38646 0.0
H354 H 0.61913 0.51092 0.44549 0.0
H355 H 0.65686 0.49753 0.52512 0.0
H356 H 0.31406 0.22575 1.06908 0.0
H357 H 0.36206 0.25971 1.15488 0.0
H358 H 0.26432 0.2368 0.27795 0.0
H359 H 0.21573 0.20257 1.19181 0.0
Dy360 Dy 0.10929 0.52237 0.66591 0.0
Dy361 Dy 0.06205 0.43257 0.62308 0.0
C362 C 0.14619 0.46673 0.68212 0.0
O363 O 0.10862 0.53506 0.56246 0.0
O364 O 0.09284 0.47142 0.52982 0.0
O365 O 0.17087 0.56905 0.65269 0.0
O366 O 0.1331 0.57834 0.71843 0.0
O367 O 0.0379 0.46515 0.56747 0.0
O368 O 0.05649 0.52241 0.62098 0.0
O369 O 0.02857 0.42705 0.71695 0.0
O370 O 0.07133 0.48953 0.75857 0.0
O371 O 0.00857 0.37386 0.61066 0.0
O372 O 0.0686 0.38328 0.58877 0.0
C373 C 0.10528 0.51079 0.51586 0.0
O374 O 0.14998 0.49719 0.64993 0.0
O375 O 0.10987 0.43746 0.69036 0.0
C376 C 0.19586 0.58821 0.75298 0.0
C377 C 0.20194 0.61437 0.87142 0.0
C378 C 0.23711 0.6341 0.83438 0.0
C379 C 0.23184 0.62308 0.7704 0.0
C380 C 0.17637 0.5586 0.79848 0.0
C381 C 0.17937 0.57192 0.85962 0.0
C382 C 0.17004 0.58838 0.70215 0.0
C383 C 0.02766 0.4889 0.59543 0.0
C384 C 0.03906 0.45202 0.76641 0.0
C385 C 0.01207 0.32233 0.5522 0.0
C386 C -0.0197 0.2528 0.47598 0.0
C387 C 0.00587 0.29153 0.4507 0.0
C388 C 0.02171 0.32602 0.48858 0.0
C389 C -0.01322 0.28399 0.57786 0.0
C390 C -0.02914 0.24939 0.53999 0.0
C391 C 0.03001 0.35737 0.59407 0.0
H392 H 0.26032 0.66467 0.84647 0.0
H393 H 0.25036 0.64516 0.73565 0.0
H394 H 0.15214 0.5286 0.78592 0.0
H395 H 0.15836 0.54973 0.89171 0.0
H396 H 0.01262 0.29544 0.40104 0.0
H397 H 0.04125 0.35547 0.46824 0.0
H398 H -0.02055 0.28083 0.62734 0.0
H399 H 0.95097 0.22012 0.56052 0.0
Dy400 Dy 0.54271 0.0956 1.01236 0.0
Dy401 Dy 0.59662 0.05656 0.9726 0.0
C402 C 0.63918 0.15032 1.02891 0.0
O403 O 0.54247 0.10224 0.90369 0.0
O404 O 0.58507 0.07905 0.87376 0.0
O405 O 0.50418 0.11983 0.98475 0.0
O406 O 0.51057 0.10879 1.08245 0.0
O407 O 0.54318 0.02273 0.9114 0.0
O408 O 0.50869 0.0302 0.98932 0.0
O409 O 0.56148 0.01697 1.05906 0.0
O410 O 0.53665 0.05549 1.1001 0.0
O411 O 0.60974 0.00743 0.97058 0.0
O412 O 0.65624 0.06892 0.94932 0.0
C413 C 0.56073 0.09409 0.85767 0.0
O414 O 0.60489 0.15006 1.02348 0.0
O415 O 0.64017 0.1165 1.02075 0.0
C416 C 0.5101 0.16837 1.0593 0.0
C417 C 0.55787 0.24345 1.11936 0.0
C418 C 0.56391 0.23834 1.05577 0.0
C419 C 0.54077 0.20083 1.0262 0.0
C420 C 0.49866 0.17585 1.11767 0.0
C421 C 0.52233 0.21312 1.14763 0.0
C422 C 0.49819 0.12638 1.04253 0.0
C423 C 0.50927 0.01745 0.93282 0.0
C424 C 0.54162 0.02313 1.10484 0.0
C425 C 0.66653 0.01656 0.91172 0.0
C426 C 0.70423 -0.00461 0.81882 0.0
C427 C 0.72715 0.02931 0.85734 0.0
C428 C 0.70842 0.03968 0.9037 0.0
C429 C 0.64422 -0.01948 0.87747 0.0
C430 C 0.663 0.96991 0.83151 0.0
C431 C 0.64736 0.03128 0.95565 0.0
H432 H 0.58948 0.26146 1.03139 0.0
H433 H 0.54982 0.19623 0.98032 0.0
H434 H 0.47464 0.15136 1.14359 0.0
H435 H 0.51544 0.21549 1.19605 0.0
H436 H 0.75884 0.04944 0.84834 0.0
H437 H 0.72635 0.06704 0.93108 0.0
H438 H 0.61202 0.96169 0.88375 0.0
H439 H 0.64438 0.94383 0.80197 0.0
Dy440 Dy 0.44686 0.61485 0.33218 0.0
Dy441 Dy 0.51135 0.60481 0.29592 0.0
C442 C 0.51903 0.69044 0.32035 0.0
O443 O 0.42852 0.59661 0.22543 0.0
O444 O 0.48835 0.60387 1.19533 0.0
O445 O 0.43984 0.66694 0.34875 0.0
O446 O 0.39232 0.6077 0.37326 0.0
O447 O 0.45507 0.54204 0.29029 0.0
O448 O 0.40291 0.55448 0.30634 0.0
O449 O 0.50009 0.56196 0.37378 0.0
O450 O 0.47467 0.59583 0.42388 0.0
O451 O 0.54959 0.59412 0.23492 0.0
O452 O 0.57302 0.62524 0.32392 0.0
C453 C 0.45118 0.5948 1.17947 0.0
O454 O 0.48989 0.67064 0.28098 0.0
O455 O 0.52772 0.66505 0.34874 0.0
C456 C 0.40679 0.66118 0.44166 0.0
C457 C 0.36615 0.60533 0.53181 0.0
C458 C 0.35055 0.63007 0.51082 0.0
C459 C 0.37068 0.65752 0.46278 0.0
C460 C 0.42941 0.65221 0.48385 0.0
C461 C 0.40821 0.62115 0.52581 0.0
C462 C 0.40636 0.64671 0.37817 0.0
C463 C 0.41593 0.53021 0.29234 0.0
C464 C 0.49096 0.5709 0.4277 0.0
C465 C 0.61566 0.6489 0.23787 0.0
C466 C 0.6798 0.7073 1.16648 0.0
C467 C 0.63991 0.69926 1.156 0.0
C468 C 0.60838 0.67063 1.19151 0.0
C469 C 0.65534 0.65918 0.25315 0.0
C470 C 0.68732 0.68857 0.21817 0.0
C471 C 0.58163 0.61573 0.26985 0.0
H472 H 0.31927 0.62105 0.51879 0.0
H473 H 0.35393 0.66761 0.43414 0.0
H474 H 0.45921 0.65818 0.47152 0.0
H475 H 0.42439 0.60707 0.54478 0.0
H476 H 0.63189 0.71226 1.11703 0.0
H477 H 0.57793 0.66396 1.18039 0.0
H478 H 0.66146 0.6435 0.2905 0.0
H479 H 0.71752 0.6947 0.22937 0.0
C480 C 0.52337 0.24981 0.39655 0.0
C481 C 0.48902 0.21061 0.39439 0.0
H482 H 0.54738 0.31414 0.38158 0.0
C483 C 0.45227 0.2075 0.37457 0.0
H484 H 0.55219 0.25364 0.41182 0.0
C485 C 0.44958 0.24159 0.35744 0.0
C486 C 0.48332 0.28081 0.36001 0.0
H487 H 0.42501 0.17823 0.37171 0.0
H488 H 0.42048 0.23705 0.3421 0.0
C489 C 0.52048 0.2846 0.38006 0.0
C490 C 0.25194 0.50501 0.74639 0.0
C491 C 0.25331 0.46915 0.75563 0.0
H492 H 0.2181 0.53221 0.71314 0.0
C493 C 0.21817 0.43184 0.74296 0.0
H494 H 0.27819 0.53428 0.75597 0.0
C495 C 0.1828 0.43066 0.72059 0.0
C496 C 0.18231 0.46677 0.7088 0.0
H497 H 0.21816 0.40361 0.74947 0.0
H498 H 0.1563 0.40161 0.71071 0.0
C499 C 0.21729 0.50385 0.72208 0.0
C500 C 0.71729 0.2645 1.05478 0.0
C501 C 0.75284 0.26388 1.07175 0.0
H502 H 0.65409 0.23006 1.02905 0.0
C503 C 0.75002 0.22541 1.07454 0.0
H504 H 0.71771 0.29313 1.05206 0.0
C505 C 0.71366 0.18928 1.06086 0.0
C506 C 0.67798 0.18962 1.0446 0.0
H507 H 0.77632 0.22304 1.08692 0.0
H508 H 0.7136 0.16083 1.06333 0.0
C509 C 0.68052 0.22805 1.0419 0.0
C510 C 0.52027 0.73189 0.41709 0.0
C511 C 0.52202 0.72822 0.35121 0.0
H512 H 0.50733 0.76025 0.49455 0.0
C513 C 0.51788 0.75694 0.31425 0.0
H514 H 0.52314 0.71068 0.44765 0.0
C515 C 0.51093 0.78691 0.34149 0.0
C516 C 0.5061 0.78858 0.40689 0.0
H517 H 0.5182 0.75508 0.26348 0.0
H518 H 0.50649 0.80709 0.31066 0.0
C519 C 0.51127 0.76062 0.4442 0.0
C520 C 0.73168 0.53818 0.72293 0.0
C521 C 0.70345 0.51113 0.76665 0.0
H522 H 0.78655 0.55551 0.67126 0.0
C523 C 0.71384 0.48503 0.79842 0.0
H524 H 0.72527 0.55901 0.69741 0.0
C525 C 0.74838 0.48295 0.7833 0.0
C526 C 0.77416 0.50606 0.73441 0.0
H527 H 0.69403 0.46442 0.83369 0.0
H528 H 0.75376 0.46144 0.8086 0.0
C529 C 0.76685 0.53591 0.7075 0.0
C530 C 0.26603 0.74261 1.09049 0.0
C531 C 0.26591 0.77803 1.07166 0.0
H532 H 0.23184 0.68146 1.12462 0.0
C533 C 0.22843 0.77716 1.0741 0.0
H534 H 0.294 0.74193 1.09097 0.0
C535 C 0.19223 0.74177 1.09043 0.0
C536 C 0.19202 0.70598 1.10772 0.0
H537 H 0.22671 0.80386 1.06191 0.0
H538 H 0.16425 0.74242 1.08889 0.0
C539 C 0.23002 0.70774 1.10983 0.0
C540 C 0.58575 0.28028 0.22162 0.0
C541 C 0.59275 0.27169 1.16037 0.0
H542 H 0.60022 0.28077 0.31825 0.0
C543 C 0.63149 0.27777 1.14751 0.0
H544 H 0.55778 0.27937 0.23285 0.0
C545 C 0.65713 0.28036 1.19691 0.0
C546 C 0.64364 0.27564 0.25917 0.0
H547 H 0.63985 0.27427 1.10059 0.0
H548 H 0.68421 0.27945 1.18579 0.0
C549 C 0.61073 0.28157 0.27109 0.0
C550 C 0.31521 0.5059 0.62222 0.0
C551 C 0.33644 0.5592 0.53602 0.0
H552 H 0.26381 0.43924 0.62329 0.0
C553 C 0.31546 0.54922 0.47121 0.0
H554 H 0.32543 0.50513 0.66994 0.0
C555 C 0.27845 0.50187 0.47468 0.0
C556 C 0.25941 0.46298 0.52575 0.0
H557 H 0.32152 0.56865 0.43078 0.0
H558 H 0.26179 0.49364 0.42886 0.0
C559 C 0.27762 0.46601 0.59384 0.0
C560 C 0.63621 0.32276 0.94855 0.0
C561 C 0.65432 0.36409 0.96485 0.0
H562 H 0.61285 0.28065 0.87252 0.0
C563 C 0.64251 0.38818 0.93033 0.0
H564 H 0.64341 0.30287 0.9752 0.0
C565 C 0.62521 0.37492 0.87027 0.0
C566 C 0.62371 0.33989 0.84545 0.0
H567 H 0.65396 0.41966 0.94275 0.0
H568 H 0.62491 0.39708 0.83868 0.0
C569 C 0.61848 0.30998 0.88895 0.0
C570 C 0.3547 0.67152 1.09368 0.0
C571 C 0.39611 0.69774 1.08425 0.0
H572 H 0.31114 0.63658 1.16194 0.0
C573 C 0.42357 0.69009 1.11734 0.0
H574 H 0.33253 0.67491 1.0661 0.0
C575 C 0.41065 0.66632 1.17148 0.0
C576 C 0.37205 0.65495 1.19431 0.0
H577 H 0.45565 0.70818 1.10921 0.0
H578 H 0.43352 0.66718 1.20289 0.0
C579 C 0.34241 0.64924 1.14918 0.0
C580 C 0.68941 0.43791 0.48233 0.0
C581 C 0.66083 0.42711 0.53788 0.0
H582 H 0.75376 0.45176 0.47181 0.0
C583 C 0.68038 0.41651 0.64851 0.0
H584 H 0.68464 0.44379 0.43394 0.0
C585 C 0.72562 0.42591 0.64217 0.0
C586 C 0.75097 0.43849 0.57908 0.0
H587 H 0.66663 0.41021 0.69567 0.0
H588 H 0.73983 0.42441 0.68515 0.0
C589 C 0.73179 0.44293 0.5104 0.0
C590 C 0.13133 0.6791 0.96272 0.0
C591 C 0.14627 0.7059 0.90168 0.0
H592 H 0.12614 0.62479 1.02032 0.0
C593 C 0.1717 0.69827 0.84469 0.0
H594 H 0.11402 0.68563 0.99598 0.0
C595 C 0.18897 0.66753 0.82835 0.0
C596 C 0.17956 0.63896 0.88566 0.0
H597 H 0.17877 0.7198 0.80506 0.0
H598 H 0.20377 0.66977 0.78461 0.0
C599 C 0.13932 0.64259 0.97832 0.0
C600 C 0.37239 0.97303 1.19764 0.0
C601 C 0.39646 0.97445 1.14589 0.0
H602 H 0.36823 -0.00528 0.29051 0.0
C603 C 0.43786 0.00473 1.1536 0.0
H604 H 0.34061 0.95064 1.19668 0.0
C605 C 0.45397 0.03126 1.20798 0.0
C606 C 0.43037 0.02904 0.26078 0.0
H607 H 0.45829 0.00821 1.11642 0.0
H608 H 0.48565 0.05378 1.20863 0.0
C609 C 0.3887 -0.00103 0.25286 0.0
C610 C 0.38546 0.37879 0.53075 0.0
C611 C 0.41138 0.40617 0.48379 0.0
H612 H 0.35476 0.36861 0.62077 0.0
C613 C 0.42332 0.44731 0.4988 0.0
H614 H 0.37482 0.3468 0.52461 0.0
C615 C 0.41125 0.46013 0.5549 0.0
C616 C 0.38584 0.43318 0.60248 0.0
H617 H 0.44231 0.47042 0.46588 0.0
H618 H 0.42319 0.49216 0.56148 0.0
C619 C 0.37363 0.39173 0.58762 0.0
C620 C 0.01369 0.46314 0.88027 0.0
C621 C 0.01045 0.43769 0.82831 0.0
H622 H -0.00844 0.47125 0.97035 0.0
C623 C -0.02386 0.39769 0.83478 0.0
H624 H 0.03841 0.49395 0.88068 0.0
C625 C 0.94786 0.38477 0.88681 0.0
C626 C 0.95045 0.41057 0.93775 0.0
H627 H -0.02961 0.3757 0.79813 0.0
H628 H 0.92307 0.35387 0.88632 0.0
C629 C -0.01469 0.45011 0.93239 0.0
C630 C 0.48659 0.92085 1.20726 0.0
C631 C 0.486 0.93395 0.26987 0.0
H632 H 0.50427 0.93656 1.10938 0.0
C633 C 0.50507 0.97716 0.27556 0.0
H634 H 0.4734 0.88872 1.19808 0.0
C635 C 0.5226 0.00484 0.22403 0.0
C636 C 0.52311 -0.00791 1.16163 0.0
H637 H 0.50699 -0.00959 0.32133 0.0
H638 H 0.53659 0.03697 0.2338 0.0
C639 C 0.50484 0.94895 1.15533 0.0
C640 C 0.53531 0.51383 0.53286 0.0
C641 C 0.53365 0.52353 0.59681 0.0
H642 H 0.52466 0.52011 0.43433 0.0
C643 C 0.51651 0.54945 0.60413 0.0
H644 H 0.54774 0.4945 0.52207 0.0
C645 C 0.50226 0.56432 0.55236 0.0
C646 C 0.5042 0.55479 0.4883 0.0
H647 H 0.51394 0.55865 0.65115 0.0
H648 H 0.48987 0.58369 0.56304 0.0
C649 C 0.52162 0.52908 0.48124 0.0
C650 C 0.94721 0.51533 0.97049 0.0
C651 C -0.0099 0.54037 0.96362 0.0
H652 H 0.88707 0.47899 0.92757 0.0
C653 C 0.00156 0.54709 0.89949 0.0
H654 H 0.93533 0.5082 1.01757 0.0
C655 C -0.02675 0.53152 0.84718 0.0
C656 C 0.9306 0.50544 0.85328 0.0
H657 H 0.0331 0.56515 0.88912 0.0
H658 H -0.01448 0.53966 0.80044 0.0
C659 C 0.91876 0.49787 0.91763 0.0
C660 C 0.42203 0.97029 0.38993 0.0
C661 C 0.42879 -0.0147 0.45189 0.0
H662 H 0.38733 0.91856 0.33204 0.0
C663 C 0.39896 0.96454 0.49738 0.0
H664 H 0.44331 -0.01419 0.35309 0.0
C665 C 0.36819 0.92548 0.48401 0.0
C666 C 0.37249 0.90741 0.43014 0.0
H667 H 0.40122 0.9768 0.54415 0.0
H668 H 0.34916 0.90707 0.52186 0.0
C669 C 0.3893 0.93205 0.37772 0.0
C670 C 0.43366 0.43121 0.82279 0.0
C671 C 0.44373 0.46604 0.78652 0.0
H672 H 0.43069 0.37378 0.82453 0.0
C673 C 0.45096 0.46598 0.72182 0.0
H674 H 0.4261 0.42948 0.87207 0.0
C675 C 0.45103 0.43231 0.69642 0.0
C676 C 0.45561 0.4072 0.73953 0.0
H677 H 0.45663 0.49119 0.69175 0.0
H678 H 0.46044 0.43365 0.64823 0.0
C679 C 0.43452 0.39873 0.79515 0.0
C680 C -0.01268 0.42561 0.21835 0.0
C681 C 0.95604 0.43504 0.21966 0.0
H682 H 0.05103 0.45294 0.22807 0.0
C683 C 0.95766 0.46251 0.26517 0.0
H684 H -0.01418 0.40201 1.1882 0.0
C685 C -0.00455 0.48972 0.29 0.0
C686 C 0.02787 0.49169 0.25716 0.0
H687 H 0.93302 0.46841 0.2714 0.0
H688 H -0.00118 0.51605 0.31495 0.0
C689 C 0.02472 0.45459 0.24187 0.0
C690 C 0.96612 0.42535 0.61769 0.0
C691 C -0.00673 0.46616 0.6341 0.0
H692 H 0.91392 0.37079 0.64487 0.0
C693 C -0.00794 0.48086 0.69405 0.0
H694 H -0.03264 0.41257 0.57284 0.0
C695 C 0.96313 0.4549 0.73526 0.0
C696 C 0.9311 0.41982 0.71043 0.0
H697 H 0.01388 0.51107 0.71011 0.0
H698 H 0.96045 0.46616 0.78029 0.0
C699 C 0.93714 0.40074 0.65988 0.0
C700 C 0.41743 0.01727 0.87768 0.0
C701 C 0.40191 -0.02044 0.84917 0.0
H702 H 0.46379 0.05362 0.94262 0.0
C703 C 0.42862 0.97365 0.81203 0.0
H704 H 0.39731 0.02649 0.89768 0.0
C705 C 0.4678 -0.01092 0.83568 0.0
C706 C 0.47873 0.01441 0.88863 0.0
H707 H 0.41706 0.94927 0.77798 0.0
H708 H 0.4865 0.9772 0.81894 0.0
C709 C 0.45556 0.03255 0.90421 0.0
C710 C 0.37411 0.45935 0.3104 0.0
C711 C 0.38697 0.49109 0.26789 0.0
H712 H 0.37796 0.40686 0.33192 0.0
C713 C 0.39196 0.48485 1.20454 0.0
H714 H 0.36814 0.46317 0.35886 0.0
C715 C 0.40078 0.45473 1.19007 0.0
C716 C 0.39976 0.42975 0.23862 0.0
H717 H 0.39864 0.50819 1.17033 0.0
H718 H 0.41407 0.45512 1.14521 0.0
C719 C 0.38062 0.42783 0.29531 0.0
C720 C 0.17489 0.8889 0.68252 0.0
C721 C 0.18073 0.90553 0.74327 0.0
H722 H 0.19392 0.90032 0.58684 0.0
C723 C 0.19926 0.94785 0.75005 0.0
H724 H 0.15973 0.85636 0.67574 0.0
C725 C 0.21867 0.9729 0.69934 0.0
C726 C 0.21953 0.95588 0.64139 0.0
H727 H 0.20411 0.96184 0.79602 0.0
H728 H 0.23734 0.00514 0.70798 0.0
C729 C 0.1946 0.91401 0.63178 0.0
C730 C 0.21215 0.22048 1.05896 0.0
C731 C 0.23406 0.20029 1.06803 0.0
H732 H 0.19295 0.24952 0.99341 0.0
C733 C 0.23909 0.18016 1.01668 0.0
H734 H 0.20688 0.2356 1.09773 0.0
C735 C 0.23047 0.18777 0.95576 0.0
C736 C 0.21848 0.21688 0.94614 0.0
H737 H 0.25452 0.16299 1.02279 0.0
H738 H 0.23968 0.17633 0.91651 0.0
C739 C 0.20396 0.22839 0.99821 0.0
C740 C 0.89592 0.17586 0.37871 0.0
C741 C 0.91675 0.185 0.32154 0.0
H742 H 0.90063 0.19321 0.47522 0.0
C743 C 0.95845 0.1987 0.32442 0.0
H744 H 0.8634 0.16207 0.37889 0.0
C745 C -0.02017 0.21527 0.38019 0.0
C746 C 0.95952 0.21767 0.43291 0.0
H747 H -0.0241 0.20383 0.28237 0.0
H748 H 0.01249 0.23164 0.37916 0.0
C749 C 0.91733 0.19354 0.43431 0.0
C750 C 0.72939 0.02597 0.71571 0.0
C751 C 0.71881 -0.007 0.75599 0.0
H752 H 0.72003 0.04392 0.62559 0.0
C753 C 0.70776 0.95506 0.72963 0.0
H754 H 0.73914 0.05593 0.73453 0.0
C755 C 0.69791 0.94828 0.66569 0.0
C756 C 0.69711 -0.0211 0.6294 0.0
H757 H 0.70081 0.92941 0.75963 0.0
H758 H 0.68434 0.91754 0.6479 0.0
C759 C 0.71828 0.01892 0.65242 0.0
C760 C 0.70295 0.7482 1.06788 0.0
C761 C 0.7097 0.72617 1.11505 0.0
H762 H 0.69217 0.7501 0.97004 0.0
C763 C 0.73414 0.70947 1.09982 0.0
H764 H 0.68805 0.76529 1.07859 0.0
C765 C 0.73973 0.70364 1.03684 0.0
C766 C 0.71863 0.71203 0.99 0.0
H767 H 0.74316 0.69474 1.13474 0.0
H768 H 0.75367 0.68564 1.02615 0.0
C769 C 0.70599 0.73996 1.00492 0.0
C770 C 0.93951 0.71442 0.3685 0.0
C771 C -0.01865 0.73059 0.36384 0.0
H772 H 0.88968 0.68868 0.43077 0.0
C773 C 0.00565 0.74937 0.41702 0.0
H774 H 0.9198 0.70145 0.32786 0.0
C775 C -0.01171 0.74017 0.47624 0.0
C776 C 0.94671 0.71248 0.48121 0.0
H777 H 0.03821 0.7644 0.41401 0.0
H778 H 0.00852 0.74823 0.51642 0.0
C779 C 0.92219 0.70676 0.42789 0.0
C780 C 0.5561 0.0966 0.66876 0.0
C781 C 0.52199 0.10117 0.65354 0.0
H782 H 0.5945 0.09028 0.7394 0.0
C783 C 0.5015 0.10321 0.70761 0.0
H784 H 0.57334 0.09427 0.6307 0.0
C785 C 0.51441 0.10165 0.77128 0.0
C786 C 0.54849 0.09712 0.78666 0.0
H787 H 0.47503 0.10626 0.70094 0.0
H788 H 0.49681 0.10351 0.80918 0.0
C789 C 0.56859 0.09424 0.7326 0.0
C790 C 0.38404 0.5603 1.02163 0.0
C791 C 0.40229 0.54348 0.98311 0.0
H792 H 0.38323 0.58838 1.11033 0.0
C793 C 0.43706 0.54494 1.01057 0.0
H794 H 0.35748 0.56052 1.00395 0.0
C795 C 0.45268 0.56211 1.07173 0.0
C796 C 0.43447 0.57874 1.11079 0.0
H797 H 0.4526 0.53259 0.9844 0.0
H798 H 0.47908 0.56147 1.08914 0.0
C799 C 0.39928 0.57686 1.08364 0.0
C800 C 0.85785 0.43359 0.34254 0.0
C801 C 0.85681 0.39658 0.32565 0.0
H802 H 0.85899 0.47545 0.41347 0.0
C803 C 0.85461 0.3734 0.38044 0.0
H804 H 0.85982 0.45378 0.3051 0.0
C805 C 0.85285 0.38579 0.44513 0.0
C806 C 0.85435 0.42316 0.46167 0.0
H807 H 0.85377 0.34483 0.37356 0.0
H808 H 0.85096 0.36581 0.48284 0.0
C809 C 0.85736 0.44647 0.40687 0.0
C810 C 0.42837 0.87237 0.69823 0.0
C811 C 0.40167 0.85401 0.64619 0.0
H812 H 0.43853 0.88978 0.79588 0.0
C813 C 0.36025 0.83955 0.66146 0.0
H814 H 0.4604 0.88479 0.69149 0.0
C815 C 0.34698 0.84319 0.72403 0.0
C816 C 0.37418 0.86109 0.77627 0.0
H817 H 0.33767 0.82562 0.62453 0.0
H818 H 0.31514 0.83153 0.73129 0.0
C819 C 0.41527 0.87529 0.76003 0.0
C820 C 0.50189 0.38725 0.97917 0.0
C821 C 0.53393 0.42722 0.96492 0.0
H822 H 0.4611 0.34371 1.04813 0.0
C823 C 0.54806 0.45282 1.01931 0.0
H824 H 0.48862 0.36557 0.94103 0.0
C825 C 0.5324 0.43993 1.08183 0.0
C826 C 0.50022 0.40033 1.09655 0.0
H827 H 0.57204 0.48383 1.0138 0.0
H828 H 0.54573 0.46203 1.11943 0.0
C829 C 0.4855 0.37445 1.04219 0.0
C830 C 0.11449 0.51143 0.39258 0.0
C831 C 0.10783 0.52776 0.44796 0.0
H832 H 0.12209 0.51494 0.29149 0.0
C833 C 0.10357 0.56255 0.43819 0.0
H834 H 0.11782 0.48486 0.39604 0.0
C835 C 0.1054 0.57968 0.37758 0.0
C836 C 0.11271 0.56394 0.3223 0.0
H837 H 0.09794 0.5766 0.47801 0.0
H838 H 0.10077 0.60546 0.37417 0.0
C839 C 0.11733 0.52928 0.33179 0.0
loop_
_geom_bond_atom_site_label_1
_geom_bond_atom_site_label_2
_geom_bond_distance
_geom_bond_site_symmetry_2
_ccdc_geom_bond_type
Dy0 O3 2.307 . S
Dy0 O5 2.395 . S
Dy0 O6 2.379 . S
Dy0 O8 2.339 . S
Dy0 O10 2.298 . S
Dy0 O14 2.275 . S
Dy0 C22 2.738 . S
Dy1 O4 2.298 . S
Dy1 O7 2.275 . S
Dy1 O9 2.307 . S
Dy1 O11 2.395 . S
Dy1 O12 2.379 . S
Dy1 O15 2.339 . S
Dy1 C31 2.738 . S
C2 O14 1.254 . S
C2 O15 1.257 . S
O3 Dy0 2.307 . S
O3 C13 1.266 . S
O4 Dy1 2.298 . S
O4 C13 1.236 . S
O5 Dy0 2.395 . S
O5 C22 1.255 . S
O6 Dy0 2.379 . S
O6 C22 1.249 . S
O7 Dy1 2.275 . S
O7 C23 1.254 . S
O8 Dy0 2.339 . S
O8 C23 1.257 . S
O9 Dy1 2.307 . S
O9 C24 1.266 . S
O10 Dy0 2.298 . S
O10 C24 1.236 . S
O11 Dy1 2.395 . S
O11 C31 1.255 . S
O12 Dy1 2.379 . S
O12 C31 1.249 . S
C13 O3 1.266 . S
C13 O4 1.236 . S
O14 Dy0 2.275 . S
O14 C2 1.254 . S
O15 Dy1 2.339 . S
O15 C2 1.257 . S
C16 C19 1.344 . S
C16 C20 1.328 . S
C16 C22 1.516 . S
C17 C18 1.304 1_556 S
C17 C21 1.323 1_556 S
C18 C17 1.304 1_554 S
C18 C19 1.371 . S
C18 H32 0.930 1_554 S
C19 C16 1.344 . S
C19 C18 1.371 . S
C19 H33 0.931 . S
C20 C16 1.328 . S
C20 C21 1.433 . S
C20 H34 0.931 . S
C21 C17 1.323 1_554 S
C21 C20 1.433 . S
C21 H35 0.933 . S
C22 Dy0 2.738 . S
C22 O5 1.255 . S
C22 O6 1.249 . S
C22 C16 1.516 . S
C23 O7 1.254 . S
C23 O8 1.257 . S
C24 O9 1.266 . S
C24 O10 1.236 . S
C25 C28 1.344 . S
C25 C29 1.328 . S
C25 C31 1.516 . S
C26 C27 1.304 . S
C26 C30 1.323 . S
C27 C26 1.304 . S
C27 C28 1.371 . S
C27 H36 0.930 . S
C28 C25 1.344 . S
C28 C27 1.371 . S
C28 H37 0.931 . S
C29 C25 1.328 . S
C29 C30 1.433 . S
C29 H38 0.931 . S
C30 C26 1.323 . S
C30 C29 1.433 . S
C30 H39 0.933 . S
C31 Dy1 2.738 . S
C31 O11 1.255 . S
C31 O12 1.249 . S
C31 C25 1.516 . S
H32 C18 0.930 1_556 S
H33 C19 0.931 . S
H34 C20 0.931 . S
H35 C21 0.933 . S
H36 C27 0.930 . S
H37 C28 0.931 . S
H38 C29 0.931 . S
H39 C30 0.933 . S
Dy40 O43 2.307 . S
Dy40 O45 2.395 . S
Dy40 O46 2.379 . S
Dy40 O48 2.339 . S
Dy40 O50 2.298 . S
Dy40 O54 2.275 . S
Dy40 C62 2.738 . S
Dy41 O44 2.298 . S
Dy41 O47 2.275 . S
Dy41 O49 2.307 . S
Dy41 O51 2.395 . S
Dy41 O52 2.379 . S
Dy41 O55 2.339 . S
Dy41 C71 2.738 . S
C42 O54 1.254 . S
C42 O55 1.257 . S
O43 Dy40 2.307 . S
O43 C53 1.266 . S
O44 Dy41 2.298 . S
O44 C53 1.236 . S
O45 Dy40 2.395 . S
O45 C62 1.255 . S
O46 Dy40 2.379 . S
O46 C62 1.249 . S
O47 Dy41 2.275 . S
O47 C63 1.254 . S
O48 Dy40 2.339 . S
O48 C63 1.257 . S
O49 Dy41 2.307 . S
O49 C64 1.266 . S
O50 Dy40 2.298 . S
O50 C64 1.236 . S
O51 Dy41 2.395 . S
O51 C71 1.255 . S
O52 Dy41 2.379 . S
O52 C71 1.249 . S
C53 O43 1.266 . S
C53 O44 1.236 . S
O54 Dy40 2.275 . S
O54 C42 1.254 . S
O55 Dy41 2.339 . S
O55 C42 1.257 . S
C56 C59 1.344 . S
C56 C60 1.328 . S
C56 C62 1.516 . S
C57 C58 1.304 . S
C57 C61 1.323 . S
C58 C57 1.304 . S
C58 C59 1.371 . S
C58 H72 0.930 . S
C59 C56 1.344 . S
C59 C58 1.371 . S
C59 H73 0.931 . S
C60 C56 1.328 . S
C60 C61 1.433 . S
C60 H74 0.931 . S
C61 C57 1.323 . S
C61 C60 1.433 . S
C61 H75 0.933 . S
C62 Dy40 2.738 . S
C62 O45 1.255 . S
C62 O46 1.249 . S
C62 C56 1.516 . S
C63 O47 1.254 . S
C63 O48 1.257 . S
C64 O49 1.266 . S
C64 O50 1.236 . S
C65 C68 1.344 . S
C65 C69 1.328 . S
C65 C71 1.516 . S
C66 C67 1.304 . S
C66 C70 1.323 . S
C67 C66 1.304 . S
C67 C68 1.371 . S
C67 H76 0.930 . S
C68 C65 1.344 . S
C68 C67 1.371 . S
C68 H77 0.931 . S
C69 C65 1.328 . S
C69 C70 1.433 . S
C69 H78 0.931 . S
C70 C66 1.323 . S
C70 C69 1.433 . S
C70 H79 0.933 . S
C71 Dy41 2.738 . S
C71 O51 1.255 . S
C71 O52 1.249 . S
C71 C65 1.516 . S
H72 C58 0.930 . S
H73 C59 0.931 . S
H74 C60 0.931 . S
H75 C61 0.933 . S
H76 C67 0.930 . S
H77 C68 0.931 . S
H78 C69 0.931 . S
H79 C70 0.933 . S
Dy80 O83 2.307 . S
Dy80 O85 2.395 . S
Dy80 O86 2.379 . S
Dy80 O88 2.339 . S
Dy80 O90 2.298 . S
Dy80 O94 2.275 . S
Dy80 C102 2.738 . S
Dy81 O84 2.298 . S
Dy81 O87 2.275 . S
Dy81 O89 2.307 . S
Dy81 O91 2.395 1_556 S
Dy81 O92 2.379 1_556 S
Dy81 O95 2.339 . S
Dy81 C111 2.738 1_556 S
C82 O94 1.254 . S
C82 O95 1.257 . S
O83 Dy80 2.307 . S
O83 C93 1.266 . S
O84 Dy81 2.298 . S
O84 C93 1.236 . S
O85 Dy80 2.395 . S
O85 C102 1.255 . S
O86 Dy80 2.379 . S
O86 C102 1.249 . S
O87 Dy81 2.275 . S
O87 C103 1.254 . S
O88 Dy80 2.339 . S
O88 C103 1.257 . S
O89 Dy81 2.307 . S
O89 C104 1.266 . S
O90 Dy80 2.298 . S
O90 C104 1.236 . S
O91 Dy81 2.395 1_554 S
O91 C111 1.255 . S
O92 Dy81 2.379 1_554 S
O92 C111 1.249 . S
C93 O83 1.266 . S
C93 O84 1.236 . S
O94 Dy80 2.275 . S
O94 C82 1.254 . S
O95 Dy81 2.339 . S
O95 C82 1.257 . S
C96 C99 1.344 . S
C96 C100 1.328 . S
C96 C102 1.516 . S
C97 C98 1.304 . S
C97 C101 1.323 . S
C98 C97 1.304 . S
C98 C99 1.371 . S
C98 H112 0.930 . S
C99 C96 1.344 . S
C99 C98 1.371 . S
C99 H113 0.931 . S
C100 C96 1.328 . S
C100 C101 1.433 . S
C100 H114 0.931 . S
C101 C97 1.323 . S
C101 C100 1.433 . S
C101 H115 0.933 . S
C102 Dy80 2.738 . S
C102 O85 1.255 . S
C102 O86 1.249 . S
C102 C96 1.516 . S
C103 O87 1.254 . S
C103 O88 1.257 . S
C104 O89 1.266 . S
C104 O90 1.236 . S
C105 C108 1.344 . S
C105 C109 1.328 . S
C105 C111 1.516 . S
C106 C107 1.304 . S
C106 C110 1.323 . S
C107 C106 1.304 . S
C107 C108 1.371 . S
C107 H116 0.930 . S
C108 C105 1.344 . S
C108 C107 1.371 . S
C108 H117 0.931 . S
C109 C105 1.328 . S
C109 C110 1.433 . S
C109 H118 0.931 . S
C110 C106 1.323 . S
C110 C109 1.433 . S
C110 H119 0.933 . S
C111 Dy81 2.738 1_554 S
C111 O91 1.255 . S
C111 O92 1.249 . S
C111 C105 1.516 . S
H112 C98 0.930 . S
H113 C99 0.931 . S
H114 C100 0.931 . S
H115 C101 0.933 . S
H116 C107 0.930 . S
H117 C108 0.931 . S
H118 C109 0.931 . S
H119 C110 0.933 . S
Dy120 O123 2.307 . S
Dy120 O125 2.395 . S
Dy120 O126 2.379 . S
Dy120 O128 2.339 . S
Dy120 O130 2.298 . S
Dy120 O134 2.275 . S
Dy120 C142 2.738 . S
Dy121 O124 2.298 . S
Dy121 O127 2.275 . S
Dy121 O129 2.307 . S
Dy121 O131 2.395 . S
Dy121 O132 2.379 . S
Dy121 O135 2.339 . S
Dy121 C151 2.738 . S
C122 O134 1.254 . S
C122 O135 1.257 . S
O123 Dy120 2.307 . S
O123 C133 1.266 . S
O124 Dy121 2.298 . S
O124 C133 1.236 . S
O125 Dy120 2.395 . S
O125 C142 1.255 . S
O126 Dy120 2.379 . S
O126 C142 1.249 . S
O127 Dy121 2.275 . S
O127 C143 1.254 . S
O128 Dy120 2.339 . S
O128 C143 1.257 . S
O129 Dy121 2.307 . S
O129 C144 1.266 . S
O130 Dy120 2.298 . S
O130 C144 1.236 . S
O131 Dy121 2.395 . S
O131 C151 1.255 . S
O132 Dy121 2.379 . S
O132 C151 1.249 . S
C133 O123 1.266 . S
C133 O124 1.236 . S
O134 Dy120 2.275 . S
O134 C122 1.254 . S
O135 Dy121 2.339 . S
O135 C122 1.257 . S
C136 C139 1.344 . S
C136 C140 1.328 . S
C136 C142 1.516 . S
C137 C138 1.304 1_556 S
C137 C141 1.323 1_556 S
C138 C137 1.304 1_554 S
C138 C139 1.371 . S
C138 H152 0.930 1_554 S
C139 C136 1.344 . S
C139 C138 1.371 . S
C139 H153 0.931 . S
C140 C136 1.328 . S
C140 C141 1.433 . S
C140 H154 0.931 . S
C141 C137 1.323 1_554 S
C141 C140 1.433 . S
C141 H155 0.933 . S
C142 Dy120 2.738 . S
C142 O125 1.255 . S
C142 O126 1.249 . S
C142 C136 1.516 . S
C143 O127 1.254 . S
C143 O128 1.257 . S
C144 O129 1.266 . S
C144 O130 1.236 . S
C145 C148 1.344 . S
C145 C149 1.328 . S
C145 C151 1.516 . S
C146 C147 1.304 . S
C146 C150 1.323 . S
C147 C146 1.304 . S
C147 C148 1.371 . S
C147 H156 0.930 . S
C148 C145 1.344 . S
C148 C147 1.371 . S
C148 H157 0.931 . S
C149 C145 1.328 . S
C149 C150 1.433 . S
C149 H158 0.931 . S
C150 C146 1.323 . S
C150 C149 1.433 . S
C150 H159 0.933 . S
C151 Dy121 2.738 . S
C151 O131 1.255 . S
C151 O132 1.249 . S
C151 C145 1.516 . S
H152 C138 0.930 1_556 S
H153 C139 0.931 . S
H154 C140 0.931 . S
H155 C141 0.933 . S
H156 C147 0.930 . S
H157 C148 0.931 . S
H158 C149 0.931 . S
H159 C150 0.933 . S
Dy160 O163 2.307 . S
Dy160 O165 2.395 . S
Dy160 O166 2.379 . S
Dy160 O168 2.339 . S
Dy160 O170 2.298 . S
Dy160 O174 2.275 . S
Dy160 C182 2.738 . S
Dy161 O164 2.298 . S
Dy161 O167 2.275 . S
Dy161 O169 2.307 . S
Dy161 O171 2.395 . S
Dy161 O172 2.379 . S
Dy161 O175 2.339 . S
Dy161 C191 2.738 . S
C162 O174 1.254 . S
C162 O175 1.257 . S
O163 Dy160 2.307 . S
O163 C173 1.266 . S
O164 Dy161 2.298 . S
O164 C173 1.236 . S
O165 Dy160 2.395 . S
O165 C182 1.255 . S
O166 Dy160 2.379 . S
O166 C182 1.249 . S
O167 Dy161 2.275 . S
O167 C183 1.254 . S
O168 Dy160 2.339 . S
O168 C183 1.257 . S
O169 Dy161 2.307 . S
O169 C184 1.266 . S
O170 Dy160 2.298 . S
O170 C184 1.236 . S
O171 Dy161 2.395 . S
O171 C191 1.255 . S
O172 Dy161 2.379 . S
O172 C191 1.249 . S
C173 O163 1.266 . S
C173 O164 1.236 . S
O174 Dy160 2.275 . S
O174 C162 1.254 . S
O175 Dy161 2.339 . S
O175 C162 1.257 . S
C176 C179 1.344 . S
C176 C180 1.328 . S
C176 C182 1.516 . S
C177 C178 1.304 . S
C177 C181 1.323 . S
C178 C177 1.304 . S
C178 C179 1.371 . S
C178 H192 0.930 . S
C179 C176 1.344 . S
C179 C178 1.371 . S
C179 H193 0.931 . S
C180 C176 1.328 . S
C180 C181 1.433 . S
C180 H194 0.931 . S
C181 C177 1.323 . S
C181 C180 1.433 . S
C181 H195 0.933 . S
C182 Dy160 2.738 . S
C182 O165 1.255 . S
C182 O166 1.249 . S
C182 C176 1.516 . S
C183 O167 1.254 . S
C183 O168 1.257 . S
C184 O169 1.266 . S
C184 O170 1.236 . S
C185 C188 1.344 . S
C185 C189 1.328 . S
C185 C191 1.516 . S
C186 C187 1.304 . S
C186 C190 1.323 . S
C187 C186 1.304 . S
C187 C188 1.371 . S
C187 H196 0.930 . S
C188 C185 1.344 . S
C188 C187 1.371 . S
C188 H197 0.931 . S
C189 C185 1.328 . S
C189 C190 1.433 . S
C189 H198 0.931 . S
C190 C186 1.323 . S
C190 C189 1.433 . S
C190 H199 0.933 . S
C191 Dy161 2.738 . S
C191 O171 1.255 . S
C191 O172 1.249 . S
C191 C185 1.516 . S
H192 C178 0.930 . S
H193 C179 0.931 . S
H194 C180 0.931 . S
H195 C181 0.933 . S
H196 C187 0.930 . S
H197 C188 0.931 . S
H198 C189 0.931 . S
H199 C190 0.933 . S
Dy200 O203 2.307 . S
Dy200 O205 2.395 . S
Dy200 O206 2.379 . S
Dy200 O208 2.339 . S
Dy200 O210 2.298 . S
Dy200 O214 2.275 . S
Dy200 C222 2.738 . S
Dy201 O204 2.298 . S
Dy201 O207 2.275 . S
Dy201 O209 2.307 . S
Dy201 O211 2.395 1_556 S
Dy201 O212 2.379 1_556 S
Dy201 O215 2.339 . S
Dy201 C231 2.738 1_556 S
C202 O214 1.254 . S
C202 O215 1.257 . S
O203 Dy200 2.307 . S
O203 C213 1.266 . S
O204 Dy201 2.298 . S
O204 C213 1.236 . S
O205 Dy200 2.395 . S
O205 C222 1.255 . S
O206 Dy200 2.379 . S
O206 C222 1.249 . S
O207 Dy201 2.275 . S
O207 C223 1.254 . S
O208 Dy200 2.339 . S
O208 C223 1.257 . S
O209 Dy201 2.307 . S
O209 C224 1.266 . S
O210 Dy200 2.298 . S
O210 C224 1.236 . S
O211 Dy201 2.395 1_554 S
O211 C231 1.255 . S
O212 Dy201 2.379 1_554 S
O212 C231 1.249 . S
C213 O203 1.266 . S
C213 O204 1.236 . S
O214 Dy200 2.275 . S
O214 C202 1.254 . S
O215 Dy201 2.339 . S
O215 C202 1.257 . S
C216 C219 1.344 . S
C216 C220 1.328 . S
C216 C222 1.516 . S
C217 C218 1.304 . S
C217 C221 1.323 . S
C218 C217 1.304 . S
C218 C219 1.371 . S
C218 H232 0.930 . S
C219 C216 1.344 . S
C219 C218 1.371 . S
C219 H233 0.931 . S
C220 C216 1.328 . S
C220 C221 1.433 . S
C220 H234 0.931 . S
C221 C217 1.323 . S
C221 C220 1.433 . S
C221 H235 0.933 . S
C222 Dy200 2.738 . S
C222 O205 1.255 . S
C222 O206 1.249 . S
C222 C216 1.516 . S
C223 O207 1.254 . S
C223 O208 1.257 . S
C224 O209 1.266 . S
C224 O210 1.236 . S
C225 C228 1.344 . S
C225 C229 1.328 . S
C225 C231 1.516 . S
C226 C227 1.304 . S
C226 C230 1.323 . S
C227 C226 1.304 . S
C227 C228 1.371 . S
C227 H236 0.930 . S
C228 C225 1.344 . S
C228 C227 1.371 . S
C228 H237 0.931 . S
C229 C225 1.328 . S
C229 C230 1.433 . S
C229 H238 0.931 . S
C230 C226 1.323 . S
C230 C229 1.433 . S
C230 H239 0.933 . S
C231 Dy201 2.738 1_554 S
C231 O211 1.255 . S
C231 O212 1.249 . S
C231 C225 1.516 . S
H232 C218 0.930 . S
H233 C219 0.931 . S
H234 C220 0.931 . S
H235 C221 0.933 . S
H236 C227 0.930 . S
H237 C228 0.931 . S
H238 C229 0.931 . S
H239 C230 0.933 . S
Dy240 O243 2.307 . S
Dy240 O245 2.395 . S
Dy240 O246 2.379 . S
Dy240 O248 2.339 . S
Dy240 O250 2.298 . S
Dy240 O254 2.275 . S
Dy240 C262 2.738 . S
Dy241 O244 2.298 . S
Dy241 O247 2.275 . S
Dy241 O249 2.307 . S
Dy241 O251 2.395 . S
Dy241 O252 2.379 . S
Dy241 O255 2.339 . S
Dy241 C271 2.738 . S
C242 O254 1.254 . S
C242 O255 1.257 . S
O243 Dy240 2.307 . S
O243 C253 1.266 . S
O244 Dy241 2.298 . S
O244 C253 1.236 . S
O245 Dy240 2.395 . S
O245 C262 1.255 . S
O246 Dy240 2.379 . S
O246 C262 1.249 . S
O247 Dy241 2.275 . S
O247 C263 1.254 . S
O248 Dy240 2.339 . S
O248 C263 1.257 . S
O249 Dy241 2.307 . S
O249 C264 1.266 . S
O250 Dy240 2.298 . S
O250 C264 1.236 . S
O251 Dy241 2.395 . S
O251 C271 1.255 . S
O252 Dy241 2.379 . S
O252 C271 1.249 . S
C253 O243 1.266 . S
C253 O244 1.236 . S
O254 Dy240 2.275 . S
O254 C242 1.254 . S
O255 Dy241 2.339 . S
O255 C242 1.257 . S
C256 C259 1.344 . S
C256 C260 1.328 . S
C256 C262 1.516 . S
C257 C258 1.304 . S
C257 C261 1.323 . S
C258 C257 1.304 . S
C258 C259 1.371 . S
C258 H272 0.930 . S
C259 C256 1.344 . S
C259 C258 1.371 . S
C259 H273 0.931 . S
C260 C256 1.328 . S
C260 C261 1.433 . S
C260 H274 0.931 . S
C261 C257 1.323 . S
C261 C260 1.433 . S
C261 H275 0.933 . S
C262 Dy240 2.738 . S
C262 O245 1.255 . S
C262 O246 1.249 . S
C262 C256 1.516 . S
C263 O247 1.254 . S
C263 O248 1.257 . S
C264 O249 1.266 . S
C264 O250 1.236 . S
C265 C268 1.344 . S
C265 C269 1.328 . S
C265 C271 1.516 . S
C266 C267 1.304 . S
C266 C270 1.323 . S
C267 C266 1.304 . S
C267 C268 1.371 . S
C267 H276 0.930 . S
C268 C265 1.344 . S
C268 C267 1.371 . S
C268 H277 0.931 . S
C269 C265 1.328 . S
C269 C270 1.433 . S
C269 H278 0.931 . S
C270 C266 1.323 . S
C270 C269 1.433 . S
C270 H279 0.933 . S
C271 Dy241 2.738 . S
C271 O251 1.255 . S
C271 O252 1.249 . S
C271 C265 1.516 . S
H272 C258 0.930 . S
H273 C259 0.931 . S
H274 C260 0.931 . S
H275 C261 0.933 . S
H276 C267 0.930 . S
H277 C268 0.931 . S
H278 C269 0.931 . S
H279 C270 0.933 . S
Dy280 O283 2.307 . S
Dy280 O285 2.395 . S
Dy280 O286 2.379 . S
Dy280 O288 2.339 . S
Dy280 O290 2.298 . S
Dy280 O294 2.275 . S
Dy280 C302 2.738 . S
Dy281 O284 2.298 . S
Dy281 O287 2.275 . S
Dy281 O289 2.307 . S
Dy281 O291 2.395 . S
Dy281 O292 2.379 . S
Dy281 O295 2.339 . S
Dy281 C311 2.738 . S
C282 O294 1.254 . S
C282 O295 1.257 . S
O283 Dy280 2.307 . S
O283 C293 1.266 . S
O284 Dy281 2.298 . S
O284 C293 1.236 . S
O285 Dy280 2.395 . S
O285 C302 1.255 . S
O286 Dy280 2.379 . S
O286 C302 1.249 . S
O287 Dy281 2.275 . S
O287 C303 1.254 . S
O288 Dy280 2.339 . S
O288 C303 1.257 . S
O289 Dy281 2.307 . S
O289 C304 1.266 . S
O290 Dy280 2.298 . S
O290 C304 1.236 . S
O291 Dy281 2.395 . S
O291 C311 1.255 . S
O292 Dy281 2.379 . S
O292 C311 1.249 . S
C293 O283 1.266 . S
C293 O284 1.236 . S
O294 Dy280 2.275 . S
O294 C282 1.254 . S
O295 Dy281 2.339 . S
O295 C282 1.257 . S
C296 C299 1.344 . S
C296 C300 1.328 . S
C296 C302 1.516 . S
C297 C298 1.304 1_554 S
C297 C301 1.323 1_554 S
C298 C297 1.304 1_556 S
C298 C299 1.371 . S
C298 H312 0.930 1_556 S
C299 C296 1.344 . S
C299 C298 1.371 . S
C299 H313 0.931 . S
C300 C296 1.328 . S
C300 C301 1.433 . S
C300 H314 0.931 . S
C301 C297 1.323 1_556 S
C301 C300 1.433 . S
C301 H315 0.933 . S
C302 Dy280 2.738 . S
C302 O285 1.255 . S
C302 O286 1.249 . S
C302 C296 1.516 . S
C303 O287 1.254 . S
C303 O288 1.257 . S
C304 O289 1.266 . S
C304 O290 1.236 . S
C305 C308 1.344 . S
C305 C309 1.328 . S
C305 C311 1.516 . S
C306 C307 1.304 . S
C306 C310 1.323 . S
C307 C306 1.304 . S
C307 C308 1.371 . S
C307 H316 0.930 . S
C308 C305 1.344 . S
C308 C307 1.371 . S
C308 H317 0.931 . S
C309 C305 1.328 . S
C309 C310 1.433 . S
C309 H318 0.931 . S
C310 C306 1.323 . S
C310 C309 1.433 . S
C310 H319 0.933 . S
C311 Dy281 2.738 . S
C311 O291 1.255 . S
C311 O292 1.249 . S
C311 C305 1.516 . S
H312 C298 0.930 1_554 S
H313 C299 0.931 . S
H314 C300 0.931 . S
H315 C301 0.933 . S
H316 C307 0.930 . S
H317 C308 0.931 . S
H318 C309 0.931 . S
H319 C310 0.933 . S
Dy320 O323 2.307 . S
Dy320 O325 2.395 . S
Dy320 O326 2.379 . S
Dy320 O328 2.339 . S
Dy320 O330 2.298 . S
Dy320 O334 2.275 . S
Dy320 C342 2.738 . S
Dy321 O324 2.298 . S
Dy321 O327 2.275 . S
Dy321 O329 2.307 . S
Dy321 O331 2.395 1_554 S
Dy321 O332 2.379 1_554 S
Dy321 O335 2.339 . S
Dy321 C351 2.738 1_554 S
C322 O334 1.254 . S
C322 O335 1.257 . S
O323 Dy320 2.307 . S
O323 C333 1.266 . S
O324 Dy321 2.298 . S
O324 C333 1.236 . S
O325 Dy320 2.395 . S
O325 C342 1.255 . S
O326 Dy320 2.379 . S
O326 C342 1.249 . S
O327 Dy321 2.275 . S
O327 C343 1.254 . S
O328 Dy320 2.339 . S
O328 C343 1.257 . S
O329 Dy321 2.307 . S
O329 C344 1.266 . S
O330 Dy320 2.298 . S
O330 C344 1.236 . S
O331 Dy321 2.395 1_556 S
O331 C351 1.255 . S
O332 Dy321 2.379 1_556 S
O332 C351 1.249 . S
C333 O323 1.266 . S
C333 O324 1.236 . S
O334 Dy320 2.275 . S
O334 C322 1.254 . S
O335 Dy321 2.339 . S
O335 C322 1.257 . S
C336 C339 1.344 . S
C336 C340 1.328 . S
C336 C342 1.516 . S
C337 C338 1.304 . S
C337 C341 1.323 . S
C338 C337 1.304 . S
C338 C339 1.371 . S
C338 H352 0.930 . S
C339 C336 1.344 . S
C339 C338 1.371 . S
C339 H353 0.931 . S
C340 C336 1.328 . S
C340 C341 1.433 . S
C340 H354 0.931 . S
C341 C337 1.323 . S
C341 C340 1.433 . S
C341 H355 0.933 . S
C342 Dy320 2.738 . S
C342 O325 1.255 . S
C342 O326 1.249 . S
C342 C336 1.516 . S
C343 O327 1.254 . S
C343 O328 1.257 . S
C344 O329 1.266 . S
C344 O330 1.236 . S
C345 C348 1.344 . S
C345 C349 1.328 . S
C345 C351 1.516 . S
C346 C347 1.304 . S
C346 C350 1.323 . S
C347 C346 1.304 . S
C347 C348 1.371 . S
C347 H356 0.930 . S
C348 C345 1.344 . S
C348 C347 1.371 . S
C348 H357 0.931 . S
C349 C345 1.328 . S
C349 C350 1.433 . S
C349 H358 0.931 . S
C350 C346 1.323 . S
C350 C349 1.433 . S
C350 H359 0.933 . S
C351 Dy321 2.738 1_556 S
C351 O331 1.255 . S
C351 O332 1.249 . S
C351 C345 1.516 . S
H352 C338 0.930 . S
H353 C339 0.931 . S
H354 C340 0.931 . S
H355 C341 0.933 . S
H356 C347 0.930 . S
H357 C348 0.931 . S
H358 C349 0.931 . S
H359 C350 0.933 . S
Dy360 O363 2.307 . S
Dy360 O365 2.395 . S
Dy360 O366 2.379 . S
Dy360 O368 2.339 . S
Dy360 O370 2.298 . S
Dy360 O374 2.275 . S
Dy360 C382 2.738 . S
Dy361 O364 2.298 . S
Dy361 O367 2.275 . S
Dy361 O369 2.307 . S
Dy361 O371 2.395 . S
Dy361 O372 2.379 . S
Dy361 O375 2.339 . S
Dy361 C391 2.738 . S
C362 O374 1.254 . S
C362 O375 1.257 . S
O363 Dy360 2.307 . S
O363 C373 1.266 . S
O364 Dy361 2.298 . S
O364 C373 1.236 . S
O365 Dy360 2.395 . S
O365 C382 1.255 . S
O366 Dy360 2.379 . S
O366 C382 1.249 . S
O367 Dy361 2.275 . S
O367 C383 1.254 . S
O368 Dy360 2.339 . S
O368 C383 1.257 . S
O369 Dy361 2.307 . S
O369 C384 1.266 . S
O370 Dy360 2.298 . S
O370 C384 1.236 . S
O371 Dy361 2.395 . S
O371 C391 1.255 . S
O372 Dy361 2.379 . S
O372 C391 1.249 . S
C373 O363 1.266 . S
C373 O364 1.236 . S
O374 Dy360 2.275 . S
O374 C362 1.254 . S
O375 Dy361 2.339 . S
O375 C362 1.257 . S
C376 C379 1.344 . S
C376 C380 1.328 . S
C376 C382 1.516 . S
C377 C378 1.304 . S
C377 C381 1.323 . S
C378 C377 1.304 . S
C378 C379 1.371 . S
C378 H392 0.930 . S
C379 C376 1.344 . S
C379 C378 1.371 . S
C379 H393 0.931 . S
C380 C376 1.328 . S
C380 C381 1.433 . S
C380 H394 0.931 . S
C381 C377 1.323 . S
C381 C380 1.433 . S
C381 H395 0.933 . S
C382 Dy360 2.738 . S
C382 O365 1.255 . S
C382 O366 1.249 . S
C382 C376 1.516 . S
C383 O367 1.254 . S
C383 O368 1.257 . S
C384 O369 1.266 . S
C384 O370 1.236 . S
C385 C388 1.344 . S
C385 C389 1.328 . S
C385 C391 1.516 . S
C386 C387 1.304 . S
C386 C390 1.323 . S
C387 C386 1.304 . S
C387 C388 1.371 . S
C387 H396 0.930 . S
C388 C385 1.344 . S
C388 C387 1.371 . S
C388 H397 0.931 . S
C389 C385 1.328 . S
C389 C390 1.433 . S
C389 H398 0.931 . S
C390 C386 1.323 . S
C390 C389 1.433 . S
C390 H399 0.933 . S
C391 Dy361 2.738 . S
C391 O371 1.255 . S
C391 O372 1.249 . S
C391 C385 1.516 . S
H392 C378 0.930 . S
H393 C379 0.931 . S
H394 C380 0.931 . S
H395 C381 0.933 . S
H396 C387 0.930 . S
H397 C388 0.931 . S
H398 C389 0.931 . S
H399 C390 0.933 . S
Dy400 O403 2.307 . S
Dy400 O405 2.395 . S
Dy400 O406 2.379 . S
Dy400 O408 2.339 . S
Dy400 O410 2.298 . S
Dy400 O414 2.275 . S
Dy400 C422 2.738 . S
Dy401 O404 2.298 . S
Dy401 O407 2.275 . S
Dy401 O409 2.307 . S
Dy401 O411 2.395 . S
Dy401 O412 2.379 . S
Dy401 O415 2.339 . S
Dy401 C431 2.738 . S
C402 O414 1.254 . S
C402 O415 1.257 . S
O403 Dy400 2.307 . S
O403 C413 1.266 . S
O404 Dy401 2.298 . S
O404 C413 1.236 . S
O405 Dy400 2.395 . S
O405 C422 1.255 . S
O406 Dy400 2.379 . S
O406 C422 1.249 . S
O407 Dy401 2.275 . S
O407 C423 1.254 . S
O408 Dy400 2.339 . S
O408 C423 1.257 . S
O409 Dy401 2.307 . S
O409 C424 1.266 . S
O410 Dy400 2.298 . S
O410 C424 1.236 . S
O411 Dy401 2.395 . S
O411 C431 1.255 . S
O412 Dy401 2.379 . S
O412 C431 1.249 . S
C413 O403 1.266 . S
C413 O404 1.236 . S
O414 Dy400 2.275 . S
O414 C402 1.254 . S
O415 Dy401 2.339 . S
O415 C402 1.257 . S
C416 C419 1.344 . S
C416 C420 1.328 . S
C416 C422 1.516 . S
C417 C418 1.304 1_554 S
C417 C421 1.323 1_554 S
C418 C417 1.304 1_556 S
C418 C419 1.371 . S
C418 H432 0.930 1_556 S
C419 C416 1.344 . S
C419 C418 1.371 . S
C419 H433 0.931 . S
C420 C416 1.328 . S
C420 C421 1.433 . S
C420 H434 0.931 . S
C421 C417 1.323 1_556 S
C421 C420 1.433 . S
C421 H435 0.933 . S
C422 Dy400 2.738 . S
C422 O405 1.255 . S
C422 O406 1.249 . S
C422 C416 1.516 . S
C423 O407 1.254 . S
C423 O408 1.257 . S
C424 O409 1.266 . S
C424 O410 1.236 . S
C425 C428 1.344 . S
C425 C429 1.328 . S
C425 C431 1.516 . S
C426 C427 1.304 . S
C426 C430 1.323 . S
C427 C426 1.304 . S
C427 C428 1.371 . S
C427 H436 0.930 . S
C428 C425 1.344 . S
C428 C427 1.371 . S
C428 H437 0.931 . S
C429 C425 1.328 . S
C429 C430 1.433 . S
C429 H438 0.931 . S
C430 C426 1.323 . S
C430 C429 1.433 . S
C430 H439 0.933 . S
C431 Dy401 2.738 . S
C431 O411 1.255 . S
C431 O412 1.249 . S
C431 C425 1.516 . S
H432 C418 0.930 1_554 S
H433 C419 0.931 . S
H434 C420 0.931 . S
H435 C421 0.933 . S
H436 C427 0.930 . S
H437 C428 0.931 . S
H438 C429 0.931 . S
H439 C430 0.933 . S
Dy440 O443 2.307 . S
Dy440 O445 2.395 . S
Dy440 O446 2.379 . S
Dy440 O448 2.339 . S
Dy440 O450 2.298 . S
Dy440 O454 2.275 . S
Dy440 C462 2.738 . S
Dy441 O444 2.298 . S
Dy441 O447 2.275 . S
Dy441 O449 2.307 . S
Dy441 O451 2.395 1_554 S
Dy441 O452 2.379 1_554 S
Dy441 O455 2.339 . S
Dy441 C471 2.738 1_554 S
C442 O454 1.254 . S
C442 O455 1.257 . S
O443 Dy440 2.307 . S
O443 C453 1.266 . S
O444 Dy441 2.298 . S
O444 C453 1.236 . S
O445 Dy440 2.395 . S
O445 C462 1.255 . S
O446 Dy440 2.379 . S
O446 C462 1.249 . S
O447 Dy441 2.275 . S
O447 C463 1.254 . S
O448 Dy440 2.339 . S
O448 C463 1.257 . S
O449 Dy441 2.307 . S
O449 C464 1.266 . S
O450 Dy440 2.298 . S
O450 C464 1.236 . S
O451 Dy441 2.395 1_556 S
O451 C471 1.255 . S
O452 Dy441 2.379 1_556 S
O452 C471 1.249 . S
C453 O443 1.266 . S
C453 O444 1.236 . S
O454 Dy440 2.275 . S
O454 C442 1.254 . S
O455 Dy441 2.339 . S
O455 C442 1.257 . S
C456 C459 1.344 . S
C456 C460 1.328 . S
C456 C462 1.516 . S
C457 C458 1.304 . S
C457 C461 1.323 . S
C458 C457 1.304 . S
C458 C459 1.371 . S
C458 H472 0.930 . S
C459 C456 1.344 . S
C459 C458 1.371 . S
C459 H473 0.931 . S
C460 C456 1.328 . S
C460 C461 1.433 . S
C460 H474 0.931 . S
C461 C457 1.323 . S
C461 C460 1.433 . S
C461 H475 0.933 . S
C462 Dy440 2.738 . S
C462 O445 1.255 . S
C462 O446 1.249 . S
C462 C456 1.516 . S
C463 O447 1.254 . S
C463 O448 1.257 . S
C464 O449 1.266 . S
C464 O450 1.236 . S
C465 C468 1.344 . S
C465 C469 1.328 . S
C465 C471 1.516 . S
C466 C467 1.304 . S
C466 C470 1.323 . S
C467 C466 1.304 . S
C467 C468 1.371 . S
C467 H476 0.930 . S
C468 C465 1.344 . S
C468 C467 1.371 . S
C468 H477 0.931 . S
C469 C465 1.328 . S
C469 C470 1.433 . S
C469 H478 0.931 . S
C470 C466 1.323 . S
C470 C469 1.433 . S
C470 H479 0.933 . S
C471 Dy441 2.738 1_556 S
C471 O451 1.255 . S
C471 O452 1.249 . S
C471 C465 1.516 . S
H472 C458 0.930 . S
H473 C459 0.931 . S
H474 C460 0.931 . S
H475 C461 0.933 . S
H476 C467 0.930 . S
H477 C468 0.931 . S
H478 C469 0.931 . S
H479 C470 0.933 . S
C480 C481 1.387 . S
C480 H484 0.950 . S
C480 C489 1.390 . S
C481 C480 1.387 . S
C481 C483 1.387 . S
H482 C489 0.950 . S
C483 C481 1.387 . S
C483 C485 1.390 . S
C483 H487 0.950 . S
H484 C480 0.950 . S
C485 C483 1.390 . S
C485 C486 1.387 . S
C485 H488 0.950 . S
C486 C485 1.387 . S
C486 C489 1.387 . S
H487 C483 0.950 . S
H488 C485 0.950 . S
C489 C480 1.390 . S
C489 H482 0.950 . S
C489 C486 1.387 . S
C490 C491 1.387 . S
C490 H494 0.950 . S
C490 C499 1.390 . S
C491 C490 1.387 . S
C491 C493 1.387 . S
H492 C499 0.950 . S
C493 C491 1.387 . S
C493 C495 1.390 . S
C493 H497 0.950 . S
H494 C490 0.950 . S
C495 C493 1.390 . S
C495 C496 1.387 . S
C495 H498 0.950 . S
C496 C495 1.387 . S
C496 C499 1.387 . S
H497 C493 0.950 . S
H498 C495 0.950 . S
C499 C490 1.390 . S
C499 H492 0.950 . S
C499 C496 1.387 . S
C500 C501 1.387 . S
C500 H504 0.950 . S
C500 C509 1.390 . S
C501 C500 1.387 . S
C501 C503 1.387 . S
H502 C509 0.950 . S
C503 C501 1.387 . S
C503 C505 1.390 . S
C503 H507 0.950 . S
H504 C500 0.950 . S
C505 C503 1.390 . S
C505 C506 1.387 . S
C505 H508 0.950 . S
C506 C505 1.387 . S
C506 C509 1.387 . S
H507 C503 0.950 . S
H508 C505 0.950 . S
C509 C500 1.390 . S
C509 H502 0.950 . S
C509 C506 1.387 . S
C510 C511 1.387 . S
C510 H514 0.950 . S
C510 C519 1.390 . S
C511 C510 1.387 . S
C511 C513 1.387 . S
H512 C519 0.950 . S
C513 C511 1.387 . S
C513 C515 1.390 . S
C513 H517 0.950 . S
H514 C510 0.950 . S
C515 C513 1.390 . S
C515 C516 1.387 . S
C515 H518 0.950 . S
C516 C515 1.387 . S
C516 C519 1.387 . S
H517 C513 0.950 . S
H518 C515 0.950 . S
C519 C510 1.390 . S
C519 H512 0.950 . S
C519 C516 1.387 . S
C520 C521 1.387 . S
C520 H524 0.950 . S
C520 C529 1.390 . S
C521 C520 1.387 . S
C521 C523 1.387 . S
H522 C529 0.950 . S
C523 C521 1.387 . S
C523 C525 1.390 . S
C523 H527 0.950 . S
H524 C520 0.950 . S
C525 C523 1.390 . S
C525 C526 1.387 . S
C525 H528 0.950 . S
C526 C525 1.387 . S
C526 C529 1.387 . S
H527 C523 0.950 . S
H528 C525 0.950 . S
C529 C520 1.390 . S
C529 H522 0.950 . S
C529 C526 1.387 . S
C530 C531 1.387 . S
C530 H534 0.950 . S
C530 C539 1.390 . S
C531 C530 1.387 . S
C531 C533 1.387 . S
H532 C539 0.950 . S
C533 C531 1.387 . S
C533 C535 1.390 . S
C533 H537 0.950 . S
H534 C530 0.950 . S
C535 C533 1.390 . S
C535 C536 1.387 . S
C535 H538 0.950 . S
C536 C535 1.387 . S
C536 C539 1.387 . S
H537 C533 0.950 . S
H538 C535 0.950 . S
C539 C530 1.390 . S
C539 H532 0.950 . S
C539 C536 1.387 . S
C540 C541 1.387 . S
C540 H544 0.950 . S
C540 C549 1.390 1_554 S
C541 C540 1.387 . S
C541 C543 1.387 . S
H542 C549 0.950 . S
C543 C541 1.387 . S
C543 C545 1.390 1_554 S
C543 H547 0.950 . S
H544 C540 0.950 . S
C545 C543 1.390 1_556 S
C545 C546 1.387 . S
C545 H548 0.950 . S
C546 C545 1.387 . S
C546 C549 1.387 . S
H547 C543 0.950 . S
H548 C545 0.950 . S
C549 C540 1.390 1_556 S
C549 H542 0.950 . S
C549 C546 1.387 . S
C550 C551 1.387 . S
C550 H554 0.950 . S
C550 C559 1.390 . S
C551 C550 1.387 . S
C551 C553 1.387 . S
H552 C559 0.950 . S
C553 C551 1.387 . S
C553 C555 1.390 . S
C553 H557 0.950 . S
H554 C550 0.950 . S
C555 C553 1.390 . S
C555 C556 1.387 . S
C555 H558 0.950 . S
C556 C555 1.387 . S
C556 C559 1.387 . S
H557 C553 0.950 . S
H558 C555 0.950 . S
C559 C550 1.390 . S
C559 H552 0.950 . S
C559 C556 1.387 . S
C560 C561 1.387 . S
C560 H564 0.950 . S
C560 C569 1.390 . S
C561 C560 1.387 . S
C561 C563 1.387 . S
H562 C569 0.950 . S
C563 C561 1.387 . S
C563 C565 1.390 . S
C563 H567 0.950 . S
H564 C560 0.950 . S
C565 C563 1.390 . S
C565 C566 1.387 . S
C565 H568 0.950 . S
C566 C565 1.387 . S
C566 C569 1.387 . S
H567 C563 0.950 . S
H568 C565 0.950 . S
C569 C560 1.390 . S
C569 H562 0.950 . S
C569 C566 1.387 . S
C570 C571 1.387 . S
C570 H574 0.950 . S
C570 C579 1.390 1_554 S
C571 C570 1.387 . S
C571 C573 1.387 . S
H572 C579 0.950 . S
C573 C571 1.387 . S
C573 C575 1.390 1_554 S
C573 H577 0.950 . S
H574 C570 0.950 . S
C575 C573 1.390 1_556 S
C575 C576 1.387 . S
C575 H578 0.950 . S
C576 C575 1.387 . S
C576 C579 1.387 . S
H577 C573 0.950 . S
H578 C575 0.950 . S
C579 C570 1.390 1_556 S
C579 H572 0.950 . S
C579 C576 1.387 . S
C580 C581 1.387 . S
C580 H584 0.950 . S
C580 C589 1.390 . S
C581 C580 1.387 . S
C581 C583 1.387 . S
H582 C589 0.950 . S
C583 C581 1.387 . S
C583 C585 1.390 . S
C583 H587 0.950 . S
H584 C580 0.950 . S
C585 C583 1.390 . S
C585 C586 1.387 . S
C585 H588 0.950 . S
C586 C585 1.387 . S
C586 C589 1.387 . S
H587 C583 0.950 . S
H588 C585 0.950 . S
C589 C580 1.390 . S
C589 H582 0.950 . S
C589 C586 1.387 . S
C590 C591 1.387 . S
C590 H594 0.950 . S
C590 C599 1.390 . S
C591 C590 1.387 . S
C591 C593 1.387 . S
H592 C599 0.950 . S
C593 C591 1.387 . S
C593 C595 1.390 . S
C593 H597 0.950 . S
H594 C590 0.950 . S
C595 C593 1.390 . S
C595 C596 1.387 . S
C595 H598 0.950 . S
C596 C595 1.387 . S
C596 C599 1.387 . S
H597 C593 0.950 . S
H598 C595 0.950 . S
C599 C590 1.390 . S
C599 H592 0.950 . S
C599 C596 1.387 . S
C600 C601 1.387 . S
C600 H604 0.950 . S
C600 C609 1.390 1_566 S
C601 C600 1.387 . S
C601 C603 1.387 . S
H602 C609 0.950 . S
C603 C601 1.387 . S
C603 C605 1.390 1_566 S
C603 H607 0.950 . S
H604 C600 0.950 . S
C605 C603 1.390 1_544 S
C605 C606 1.387 . S
C605 H608 0.950 . S
C606 C605 1.387 . S
C606 C609 1.387 . S
H607 C603 0.950 . S
H608 C605 0.950 . S
C609 C600 1.390 1_544 S
C609 H602 0.950 . S
C609 C606 1.387 . S
C610 C611 1.387 . S
C610 H614 0.950 . S
C610 C619 1.390 . S
C611 C610 1.387 . S
C611 C613 1.387 . S
H612 C619 0.950 . S
C613 C611 1.387 . S
C613 C615 1.390 . S
C613 H617 0.950 . S
H614 C610 0.950 . S
C615 C613 1.390 . S
C615 C616 1.387 . S
C615 H618 0.950 . S
C616 C615 1.387 . S
C616 C619 1.387 . S
H617 C613 0.950 . S
H618 C615 0.950 . S
C619 C610 1.390 . S
C619 H612 0.950 . S
C619 C616 1.387 . S
C620 C621 1.387 . S
C620 H624 0.950 . S
C620 C629 1.390 1_455 S
C621 C620 1.387 . S
C621 C623 1.387 . S
H622 C629 0.950 . S
C623 C621 1.387 . S
C623 C625 1.390 1_455 S
C623 H627 0.950 . S
H624 C620 0.950 . S
C625 C623 1.390 1_655 S
C625 C626 1.387 . S
C625 H628 0.950 . S
C626 C625 1.387 . S
C626 C629 1.387 . S
H627 C623 0.950 . S
H628 C625 0.950 . S
C629 C620 1.390 1_655 S
C629 H622 0.950 . S
C629 C626 1.387 . S
C630 C631 1.387 . S
C630 H634 0.950 . S
C630 C639 1.390 1_564 S
C631 C630 1.387 . S
C631 C633 1.387 . S
H632 C639 0.950 . S
C633 C631 1.387 . S
C633 C635 1.390 1_564 S
C633 H637 0.950 . S
H634 C630 0.950 . S
C635 C633 1.390 1_546 S
C635 C636 1.387 . S
C635 H638 0.950 . S
C636 C635 1.387 . S
C636 C639 1.387 . S
H637 C633 0.950 . S
H638 C635 0.950 . S
C639 C630 1.390 1_546 S
C639 H632 0.950 . S
C639 C636 1.387 . S
C640 C641 1.387 . S
C640 H644 0.950 . S
C640 C649 1.390 . S
C641 C640 1.387 . S
C641 C643 1.387 . S
H642 C649 0.950 . S
C643 C641 1.387 . S
C643 C645 1.390 . S
C643 H647 0.950 . S
H644 C640 0.950 . S
C645 C643 1.390 . S
C645 C646 1.387 . S
C645 H648 0.950 . S
C646 C645 1.387 . S
C646 C649 1.387 . S
H647 C643 0.950 . S
H648 C645 0.950 . S
C649 C640 1.390 . S
C649 H642 0.950 . S
C649 C646 1.387 . S
C650 C651 1.387 1_655 S
C650 H654 0.950 . S
C650 C659 1.390 . S
C651 C650 1.387 1_455 S
C651 C653 1.387 . S
H652 C659 0.950 . S
C653 C651 1.387 . S
C653 C655 1.390 . S
C653 H657 0.950 . S
H654 C650 0.950 . S
C655 C653 1.390 . S
C655 C656 1.387 1_455 S
C655 H658 0.950 . S
C656 C655 1.387 1_655 S
C656 C659 1.387 . S
H657 C653 0.950 . S
H658 C655 0.950 . S
C659 C650 1.390 . S
C659 H652 0.950 . S
C659 C656 1.387 . S
C660 C661 1.387 . S
C660 H664 0.950 . S
C660 C669 1.390 1_545 S
C661 C660 1.387 . S
C661 C663 1.387 . S
H662 C669 0.950 . S
C663 C661 1.387 . S
C663 C665 1.390 1_545 S
C663 H667 0.950 . S
H664 C660 0.950 . S
C665 C663 1.390 1_565 S
C665 C666 1.387 . S
C665 H668 0.950 . S
C666 C665 1.387 . S
C666 C669 1.387 . S
H667 C663 0.950 . S
H668 C665 0.950 . S
C669 C660 1.390 1_565 S
C669 H662 0.950 . S
C669 C666 1.387 . S
C670 C671 1.387 . S
C670 H674 0.950 . S
C670 C679 1.390 . S
C671 C670 1.387 . S
C671 C673 1.387 . S
H672 C679 0.950 . S
C673 C671 1.387 . S
C673 C675 1.390 . S
C673 H677 0.950 . S
H674 C670 0.950 . S
C675 C673 1.390 . S
C675 C676 1.387 . S
C675 H678 0.950 . S
C676 C675 1.387 . S
C676 C679 1.387 . S
H677 C673 0.950 . S
H678 C675 0.950 . S
C679 C670 1.390 . S
C679 H672 0.950 . S
C679 C676 1.387 . S
C680 C681 1.387 . S
C680 H684 0.950 . S
C680 C689 1.390 1_655 S
C681 C680 1.387 . S
C681 C683 1.387 . S
H682 C689 0.950 . S
C683 C681 1.387 . S
C683 C685 1.390 1_655 S
C683 H687 0.950 . S
H684 C680 0.950 . S
C685 C683 1.390 1_455 S
C685 C686 1.387 . S
C685 H688 0.950 . S
C686 C685 1.387 . S
C686 C689 1.387 . S
H687 C683 0.950 . S
H688 C685 0.950 . S
C689 C680 1.390 1_455 S
C689 H682 0.950 . S
C689 C686 1.387 . S
C690 C691 1.387 . S
C690 H694 0.950 . S
C690 C699 1.390 1_455 S
C691 C690 1.387 . S
C691 C693 1.387 . S
H692 C699 0.950 . S
C693 C691 1.387 . S
C693 C695 1.390 1_455 S
C693 H697 0.950 . S
H694 C690 0.950 . S
C695 C693 1.390 1_655 S
C695 C696 1.387 . S
C695 H698 0.950 . S
C696 C695 1.387 . S
C696 C699 1.387 . S
H697 C693 0.950 . S
H698 C695 0.950 . S
C699 C690 1.390 1_655 S
C699 H692 0.950 . S
C699 C696 1.387 . S
C700 C701 1.387 . S
C700 H704 0.950 . S
C700 C709 1.390 1_565 S
C701 C700 1.387 . S
C701 C703 1.387 . S
H702 C709 0.950 . S
C703 C701 1.387 . S
C703 C705 1.390 1_565 S
C703 H707 0.950 . S
H704 C700 0.950 . S
C705 C703 1.390 1_545 S
C705 C706 1.387 . S
C705 H708 0.950 . S
C706 C705 1.387 . S
C706 C709 1.387 . S
H707 C703 0.950 . S
H708 C705 0.950 . S
C709 C700 1.390 1_545 S
C709 H702 0.950 . S
C709 C706 1.387 . S
C710 C711 1.387 . S
C710 H714 0.950 . S
C710 C719 1.390 . S
C711 C710 1.387 . S
C711 C713 1.387 . S
H712 C719 0.950 . S
C713 C711 1.387 . S
C713 C715 1.390 . S
C713 H717 0.950 . S
H714 C710 0.950 . S
C715 C713 1.390 . S
C715 C716 1.387 . S
C715 H718 0.950 . S
C716 C715 1.387 . S
C716 C719 1.387 . S
H717 C713 0.950 . S
H718 C715 0.950 . S
C719 C710 1.390 . S
C719 H712 0.950 . S
C719 C716 1.387 . S
C720 C721 1.387 . S
C720 H724 0.950 . S
C720 C729 1.390 1_565 S
C721 C720 1.387 . S
C721 C723 1.387 . S
H722 C729 0.950 . S
C723 C721 1.387 . S
C723 C725 1.390 1_565 S
C723 H727 0.950 . S
H724 C720 0.950 . S
C725 C723 1.390 1_545 S
C725 C726 1.387 . S
C725 H728 0.950 . S
C726 C725 1.387 . S
C726 C729 1.387 . S
H727 C723 0.950 . S
H728 C725 0.950 . S
C729 C720 1.390 1_545 S
C729 H722 0.950 . S
C729 C726 1.387 . S
C730 C731 1.387 . S
C730 H734 0.950 . S
C730 C739 1.390 . S
C731 C730 1.387 . S
C731 C733 1.387 . S
H732 C739 0.950 . S
C733 C731 1.387 . S
C733 C735 1.390 . S
C733 H737 0.950 . S
H734 C730 0.950 . S
C735 C733 1.390 . S
C735 C736 1.387 . S
C735 H738 0.950 . S
C736 C735 1.387 . S
C736 C739 1.387 . S
H737 C733 0.950 . S
H738 C735 0.950 . S
C739 C730 1.390 . S
C739 H732 0.950 . S
C739 C736 1.387 . S
C740 C741 1.387 . S
C740 H744 0.950 . S
C740 C749 1.390 1_655 S
C741 C740 1.387 . S
C741 C743 1.387 . S
H742 C749 0.950 . S
C743 C741 1.387 . S
C743 C745 1.390 1_655 S
C743 H747 0.950 . S
H744 C740 0.950 . S
C745 C743 1.390 1_455 S
C745 C746 1.387 . S
C745 H748 0.950 . S
C746 C745 1.387 . S
C746 C749 1.387 . S
H747 C743 0.950 . S
H748 C745 0.950 . S
C749 C740 1.390 1_455 S
C749 H742 0.950 . S
C749 C746 1.387 . S
C750 C751 1.387 . S
C750 H754 0.950 . S
C750 C759 1.390 1_545 S
C751 C750 1.387 . S
C751 C753 1.387 . S
H752 C759 0.950 . S
C753 C751 1.387 . S
C753 C755 1.390 1_545 S
C753 H757 0.950 . S
H754 C750 0.950 . S
C755 C753 1.390 1_565 S
C755 C756 1.387 . S
C755 H758 0.950 . S
C756 C755 1.387 . S
C756 C759 1.387 . S
H757 C753 0.950 . S
H758 C755 0.950 . S
C759 C750 1.390 1_565 S
C759 H752 0.950 . S
C759 C756 1.387 . S
C760 C761 1.387 . S
C760 H764 0.950 . S
C760 C769 1.390 . S
C761 C760 1.387 . S
C761 C763 1.387 . S
H762 C769 0.950 . S
C763 C761 1.387 . S
C763 C765 1.390 . S
C763 H767 0.950 . S
H764 C760 0.950 . S
C765 C763 1.390 . S
C765 C766 1.387 . S
C765 H768 0.950 . S
C766 C765 1.387 . S
C766 C769 1.387 . S
H767 C763 0.950 . S
H768 C765 0.950 . S
C769 C760 1.390 . S
C769 H762 0.950 . S
C769 C766 1.387 . S
C770 C771 1.387 . S
C770 H774 0.950 . S
C770 C779 1.390 1_455 S
C771 C770 1.387 . S
C771 C773 1.387 . S
H772 C779 0.950 . S
C773 C771 1.387 . S
C773 C775 1.390 1_455 S
C773 H777 0.950 . S
H774 C770 0.950 . S
C775 C773 1.390 1_655 S
C775 C776 1.387 . S
C775 H778 0.950 . S
C776 C775 1.387 . S
C776 C779 1.387 . S
H777 C773 0.950 . S
H778 C775 0.950 . S
C779 C770 1.390 1_655 S
C779 H772 0.950 . S
C779 C776 1.387 . S
C780 C781 1.387 . S
C780 H784 0.950 . S
C780 C789 1.390 . S
C781 C780 1.387 . S
C781 C783 1.387 . S
H782 C789 0.950 . S
C783 C781 1.387 . S
C783 C785 1.390 . S
C783 H787 0.950 . S
H784 C780 0.950 . S
C785 C783 1.390 . S
C785 C786 1.387 . S
C785 H788 0.950 . S
C786 C785 1.387 . S
C786 C789 1.387 . S
H787 C783 0.950 . S
H788 C785 0.950 . S
C789 C780 1.390 . S
C789 H782 0.950 . S
C789 C786 1.387 . S
C790 C791 1.387 . S
C790 H794 0.950 . S
C790 C799 1.390 . S
C791 C790 1.387 . S
C791 C793 1.387 . S
H792 C799 0.950 . S
C793 C791 1.387 . S
C793 C795 1.390 . S
C793 H797 0.950 . S
H794 C790 0.950 . S
C795 C793 1.390 . S
C795 C796 1.387 . S
C795 H798 0.950 . S
C796 C795 1.387 . S
C796 C799 1.387 . S
H797 C793 0.950 . S
H798 C795 0.950 . S
C799 C790 1.390 . S
C799 H792 0.950 . S
C799 C796 1.387 . S
C800 C801 1.387 . S
C800 H804 0.950 . S
C800 C809 1.390 . S
C801 C800 1.387 . S
C801 C803 1.387 . S
H802 C809 0.950 . S
C803 C801 1.387 . S
C803 C805 1.390 . S
C803 H807 0.950 . S
H804 C800 0.950 . S
C805 C803 1.390 . S
C805 C806 1.387 . S
C805 H808 0.950 . S
C806 C805 1.387 . S
C806 C809 1.387 . S
H807 C803 0.950 . S
H808 C805 0.950 . S
C809 C800 1.390 . S
C809 H802 0.950 . S
C809 C806 1.387 . S
C810 C811 1.387 . S
C810 H814 0.950 . S
C810 C819 1.390 . S
C811 C810 1.387 . S
C811 C813 1.387 . S
H812 C819 0.950 . S
C813 C811 1.387 . S
C813 C815 1.390 . S
C813 H817 0.950 . S
H814 C810 0.950 . S
C815 C813 1.390 . S
C815 C816 1.387 . S
C815 H818 0.950 . S
C816 C815 1.387 . S
C816 C819 1.387 . S
H817 C813 0.950 . S
H818 C815 0.950 . S
C819 C810 1.390 . S
C819 H812 0.950 . S
C819 C816 1.387 . S
C820 C821 1.387 . S
C820 H824 0.950 . S
C820 C829 1.390 . S
C821 C820 1.387 . S
C821 C823 1.387 . S
H822 C829 0.950 . S
C823 C821 1.387 . S
C823 C825 1.390 . S
C823 H827 0.950 . S
H824 C820 0.950 . S
C825 C823 1.390 . S
C825 C826 1.387 . S
C825 H828 0.950 . S
C826 C825 1.387 . S
C826 C829 1.387 . S
H827 C823 0.950 . S
H828 C825 0.950 . S
C829 C820 1.390 . S
C829 H822 0.950 . S
C829 C826 1.387 . S
C830 C831 1.387 . S
C830 H834 0.950 . S
C830 C839 1.390 . S
C831 C830 1.387 . S
C831 C833 1.387 . S
H832 C839 0.950 . S
C833 C831 1.387 . S
C833 C835 1.390 . S
C833 H837 0.950 . S
H834 C830 0.950 . S
C835 C833 1.390 . S
C835 C836 1.387 . S
C835 H838 0.950 . S
C836 C835 1.387 . S
C836 C839 1.387 . S
H837 C833 0.950 . S
H838 C835 0.950 . S
C839 C830 1.390 . S
C839 H832 0.950 . S
C839 C836 1.387 . S
C481 C2 1.211 . S
C486 C322 1.212 . S
C491 C42 1.212 . S
C496 C362 1.212 . S
C501 C82 1.211 . S
C506 C402 1.210 . S
C511 C442 1.210 . S
C516 C122 1.209 . S
C521 C162 1.207 . S
C526 C242 1.207 . S
C531 C282 1.210 . S
C536 C202 1.210 . S
C541 C417 1.415 . S
C546 C17 1.415 . S
C551 C457 1.412 . S
C556 C57 1.414 . S
C561 C97 1.412 . S
C566 C257 1.412 . S
C571 C297 1.412 . S
C576 C137 1.412 . S
C581 C337 1.415 . S
C586 C177 1.414 . S
C591 C217 1.414 . S
C596 C377 1.412 . S
C601 C304 4.547 . S
C606 C24 4.547 . S
C611 C344 4.547 . S
C616 C64 4.547 . S
C621 C384 4.547 . S
C626 C104 4.547 . S
C631 C144 4.547 . S
C636 C424 4.547 . S
C641 C184 4.547 . S
C646 C464 4.547 . S
C651 C224 4.547 . S
C656 C264 4.548 . S
C661 C23 1.462 . S
C666 C143 1.462 . S
C671 C63 1.460 . S
C676 C183 1.460 . S
C681 C103 1.460 . S
C686 C223 1.460 . S
C691 C383 1.460 . S
C696 C263 1.460 . S
C701 C303 1.462 . S
C706 C423 1.462 . S
C711 C463 1.462 . S
C716 C343 1.462 . S
C721 C306 0.910 . S
C726 C26 0.910 . S
C731 C346 0.909 . S
C736 C66 0.905 . S
C741 C106 0.906 . S
C746 C386 0.910 . S
C751 C426 0.902 . S
C756 C146 0.902 . S
C761 C466 0.902 . S
C766 C186 0.905 . S
C771 C226 0.910 . S
C776 C266 0.906 . S
C781 C13 4.697 . S
C786 C413 4.697 . S
C791 C53 4.696 . S
C796 C453 4.697 1_556 S
C801 C93 4.696 1_554 S
C806 C253 4.697 . S
C811 C133 4.697 . S
C816 C293 4.697 . S
C821 C173 4.696 . S
C826 C333 4.697 1_556 S
C831 C373 4.697 . S
C836 C213 4.696 1_554 S
