# Generated by pormake.
# Topology pcl, (4)-cn, num edge types: 1
# Building blocks:
#     Node 0, Type 0, BuildingBlock: GALJAG_clean_sbu_0, # of connection points: 4
#     Node 1, Type 0, BuildingBlock: GALJAG_clean_sbu_0, # of connection points: 4
#     Node 2, Type 0, BuildingBlock: GALJAG_clean_sbu_0, # of connection points: 4
#     Node 3, Type 0, BuildingBlock: GALJAG_clean_sbu_0, # of connection points: 4
#     Node 4, Type 0, BuildingBlock: GALJAG_clean_sbu_0, # of connection points: 4
#     Node 5, Type 0, BuildingBlock: GALJAG_clean_sbu_0, # of connection points: 4
#     Node 6, Type 0, BuildingBlock: GALJAG_clean_sbu_0, # of connection points: 4
#     Node 7, Type 0, BuildingBlock: GALJAG_clean_sbu_0, # of connection points: 4
#     Node 8, Type 0, BuildingBlock: GALJAG_clean_sbu_0, # of connection points: 4
#     Node 9, Type 0, BuildingBlock: GALJAG_clean_sbu_0, # of connection points: 4
#     Node 10, Type 0, BuildingBlock: GALJAG_clean_sbu_0, # of connection points: 4
#     Node 11, Type 0, BuildingBlock: GALJAG_clean_sbu_0, # of connection points: 4
#     Node 12, Type 0, BuildingBlock: GALJAG_clean_sbu_0, # of connection points: 4
#     Node 13, Type 0, BuildingBlock: GALJAG_clean_sbu_0, # of connection points: 4
#     Node 14, Type 0, BuildingBlock: GALJAG_clean_sbu_0, # of connection points: 4
#     Node 15, Type 0, BuildingBlock: GALJAG_clean_sbu_0, # of connection points: 4
#     Edge 16, Type (0, 0), BuildingBlock: MIFKUJ_clean_linker_0, # of connection points: 2
#     Edge 17, Type (0, 0), BuildingBlock: MIFKUJ_clean_linker_0, # of connection points: 2
#     Edge 18, Type (0, 0), BuildingBlock: MIFKUJ_clean_linker_0, # of connection points: 2
#     Edge 19, Type (0, 0), BuildingBlock: MIFKUJ_clean_linker_0, # of connection points: 2
#     Edge 20, Type (0, 0), BuildingBlock: MIFKUJ_clean_linker_0, # of connection points: 2
#     Edge 21, Type (0, 0), BuildingBlock: MIFKUJ_clean_linker_0, # of connection points: 2
#     Edge 22, Type (0, 0), BuildingBlock: MIFKUJ_clean_linker_0, # of connection points: 2
#     Edge 23, Type (0, 0), BuildingBlock: MIFKUJ_clean_linker_0, # of connection points: 2
#     Edge 24, Type (0, 0), BuildingBlock: MIFKUJ_clean_linker_0, # of connection points: 2
#     Edge 25, Type (0, 0), BuildingBlock: MIFKUJ_clean_linker_0, # of connection points: 2
#     Edge 26, Type (0, 0), BuildingBlock: MIFKUJ_clean_linker_0, # of connection points: 2
#     Edge 27, Type (0, 0), BuildingBlock: MIFKUJ_clean_linker_0, # of connection points: 2
#     Edge 28, Type (0, 0), BuildingBlock: MIFKUJ_clean_linker_0, # of connection points: 2
#     Edge 29, Type (0, 0), BuildingBlock: MIFKUJ_clean_linker_0, # of connection points: 2
#     Edge 30, Type (0, 0), BuildingBlock: MIFKUJ_clean_linker_0, # of connection points: 2
#     Edge 31, Type (0, 0), BuildingBlock: MIFKUJ_clean_linker_0, # of connection points: 2
#     Edge 32, Type (0, 0), BuildingBlock: MIFKUJ_clean_linker_0, # of connection points: 2
#     Edge 33, Type (0, 0), BuildingBlock: MIFKUJ_clean_linker_0, # of connection points: 2
#     Edge 34, Type (0, 0), BuildingBlock: MIFKUJ_clean_linker_0, # of connection points: 2
#     Edge 35, Type (0, 0), BuildingBlock: MIFKUJ_clean_linker_0, # of connection points: 2
#     Edge 36, Type (0, 0), BuildingBlock: MIFKUJ_clean_linker_0, # of connection points: 2
#     Edge 37, Type (0, 0), BuildingBlock: MIFKUJ_clean_linker_0, # of connection points: 2
#     Edge 38, Type (0, 0), BuildingBlock: MIFKUJ_clean_linker_0, # of connection points: 2
#     Edge 39, Type (0, 0), BuildingBlock: MIFKUJ_clean_linker_0, # of connection points: 2
#     Edge 40, Type (0, 0), BuildingBlock: MIFKUJ_clean_linker_0, # of connection points: 2
#     Edge 41, Type (0, 0), BuildingBlock: MIFKUJ_clean_linker_0, # of connection points: 2
#     Edge 42, Type (0, 0), BuildingBlock: MIFKUJ_clean_linker_0, # of connection points: 2
#     Edge 43, Type (0, 0), BuildingBlock: MIFKUJ_clean_linker_0, # of connection points: 2
#     Edge 44, Type (0, 0), BuildingBlock: MIFKUJ_clean_linker_0, # of connection points: 2
#     Edge 45, Type (0, 0), BuildingBlock: MIFKUJ_clean_linker_0, # of connection points: 2
#     Edge 46, Type (0, 0), BuildingBlock: MIFKUJ_clean_linker_0, # of connection points: 2
#     Edge 47, Type (0, 0), BuildingBlock: MIFKUJ_clean_linker_0, # of connection points: 2
# Relax obj value: 0.122
# Max RMSD: 0.108
# Mean RMSD: 0.092
data_MOF--net-pcl--node1-GALJAG_clean_sbu_0--edge1-MIFKUJ_clean_linker_0
_symmetry_space_group_name_H-M    P1
_symmetry_Int_Tables_number       1
_symmetry_cell_setting            triclinic
loop_
_symmetry_equiv_pos_as_xyz
'x, y, z'
_cell_length_a     68.913836
_cell_length_b     51.801495
_cell_length_c     56.651638
_cell_angle_alpha  90.024268
_cell_angle_beta   89.971235
_cell_angle_gamma 90.013267
loop_
_atom_site_label
_atom_site_type_symbol
_atom_site_fract_x
_atom_site_fract_y
_atom_site_fract_z
_atom_type_partial_charge
In0 In 0.10739 0.33068 0.07825 0.0
O1 O 0.11924 0.29804 0.05499 0.0
O2 O 0.13795 0.32925 0.06358 0.0
C3 C 0.06972 0.31687 0.08194 0.0
C4 C 0.12184 0.32439 0.12211 0.0
C5 C 0.10341 0.37671 0.05657 0.0
O6 O 0.08122 0.30581 0.06783 0.0
O7 O 0.07732 0.33444 0.09425 0.0
O8 O 0.10804 0.37457 0.07801 0.0
O9 O 0.10066 0.35559 0.046 0.0
C10 C 0.13585 0.30808 0.05293 0.0
O11 O 0.12122 0.34595 0.11183 0.0
O12 O 0.115 0.3058 0.11033 0.0
In13 In 0.89337 0.66862 0.58091 0.0
O14 O 0.88052 0.70092 0.55827 0.0
O15 O 0.86248 0.66906 0.56712 0.0
C16 C 0.93069 0.68439 0.58291 0.0
C17 C 0.87931 0.67416 0.62503 0.0
C18 C 0.89806 0.62286 0.55885 0.0
O19 O 0.91879 0.69347 0.56818 0.0
O20 O 0.92363 0.66793 0.59686 0.0
O21 O 0.89419 0.62461 0.58054 0.0
O22 O 0.89964 0.64417 0.5483 0.0
C23 C 0.86408 0.69032 0.55649 0.0
O24 O 0.88102 0.65254 0.61499 0.0
O25 O 0.88492 0.6932 0.61289 0.0
In26 In 0.10756 0.6701 0.92079 0.0
O27 O 0.12401 0.65525 0.88883 0.0
O28 O 0.11259 0.69334 0.88702 0.0
C29 C 0.10462 0.62374 0.94228 0.0
C30 C 0.13542 0.69606 0.94424 0.0
C31 C 0.06954 0.68267 0.91918 0.0
O32 O 0.1047 0.62622 0.92016 0.0
O33 O 0.10602 0.64461 0.95358 0.0
O34 O 0.08085 0.69195 0.93453 0.0
O35 O 0.07753 0.66773 0.90456 0.0
C36 C 0.12201 0.6756 0.87686 0.0
O37 O 0.11825 0.70448 0.94273 0.0
O38 O 0.13835 0.67484 0.93393 0.0
In39 In 0.88996 0.33025 0.42313 0.0
O40 O 0.87444 0.34831 0.39191 0.0
O41 O 0.88151 0.30841 0.38964 0.0
C42 C 0.89576 0.37651 0.44387 0.0
C43 C 0.86171 0.30577 0.44713 0.0
C44 C 0.9272 0.31418 0.42082 0.0
O45 O 0.89494 0.37375 0.42178 0.0
O46 O 0.89371 0.35594 0.4555 0.0
O47 O 0.91648 0.30924 0.43829 0.0
O48 O 0.91899 0.32654 0.4045 0.0
C49 C 0.87392 0.32785 0.37985 0.0
O50 O 0.87745 0.29475 0.44172 0.0
O51 O 0.86037 0.3289 0.44044 0.0
In52 In 0.82421 0.66502 0.91213 0.0
O53 O 0.81255 0.70007 0.93242 0.0
O54 O 0.79275 0.67044 0.92295 0.0
C55 C 0.86237 0.67589 0.91524 0.0
C56 C 0.822 0.61905 0.93443 0.0
C57 C 0.81966 0.67127 0.86519 0.0
O58 O 0.85002 0.68628 0.92876 0.0
O59 O 0.85541 0.66018 0.90049 0.0
O60 O 0.82043 0.64938 0.87488 0.0
O61 O 0.82055 0.6901 0.8793 0.0
C62 C 0.79532 0.69181 0.93309 0.0
O63 O 0.81237 0.62402 0.91606 0.0
O64 O 0.83275 0.63716 0.94148 0.0
In65 In 0.1719 0.33319 0.41107 0.0
O66 O 0.17876 0.37631 0.41407 0.0
O67 O 0.16754 0.35716 0.44427 0.0
C68 C 0.17567 0.32564 0.36429 0.0
C69 C 0.20252 0.30765 0.42908 0.0
C70 C 0.13385 0.3221 0.41452 0.0
O71 O 0.17696 0.34773 0.37364 0.0
O72 O 0.17305 0.30733 0.37865 0.0
O73 O 0.14644 0.31039 0.42669 0.0
O74 O 0.14049 0.33927 0.40097 0.0
C75 C 0.17359 0.37796 0.43539 0.0
O76 O 0.18527 0.30011 0.43209 0.0
O77 O 0.20426 0.32771 0.41668 0.0
In78 In 0.8262 0.33689 0.0883 0.0
O79 O 0.81457 0.37794 0.08397 0.0
O80 O 0.83228 0.36277 0.05664 0.0
C81 C 0.82344 0.33308 0.13555 0.0
C82 C 0.79663 0.30989 0.0692 0.0
C83 C 0.86411 0.32458 0.08565 0.0
O84 O 0.82277 0.35442 0.12483 0.0
O85 O 0.82505 0.31353 0.12236 0.0
O86 O 0.85103 0.30985 0.07771 0.0
O87 O 0.85802 0.34536 0.09459 0.0
C88 C 0.82246 0.38156 0.06416 0.0
O89 O 0.81389 0.30761 0.06209 0.0
O90 O 0.79442 0.32522 0.08625 0.0
In91 In 0.17363 0.66175 0.58772 0.0
O92 O 0.17553 0.61762 0.58742 0.0
O93 O 0.17601 0.63718 0.55451 0.0
C94 C 0.17674 0.67106 0.63432 0.0
C95 C 0.20445 0.68758 0.57053 0.0
C96 C 0.13568 0.67284 0.58189 0.0
O97 O 0.18123 0.64957 0.62529 0.0
O98 O 0.17133 0.68799 0.61973 0.0
O99 O 0.14886 0.68547 0.57157 0.0
O100 O 0.14167 0.65454 0.59459 0.0
C101 C 0.17651 0.6159 0.56524 0.0
O102 O 0.18722 0.693 0.5648 0.0
O103 O 0.20609 0.66949 0.58531 0.0
In104 In 0.60798 0.8364 0.07868 0.0
O105 O 0.6146 0.85291 0.115 0.0
O106 O 0.61251 0.81221 0.11212 0.0
C107 C 0.6097 0.88196 0.056 0.0
C108 C 0.63823 0.81288 0.05749 0.0
C109 C 0.56991 0.82447 0.07408 0.0
O110 O 0.61028 0.88009 0.0782 0.0
O111 O 0.60826 0.86075 0.04512 0.0
O112 O 0.5831 0.80814 0.07021 0.0
O113 O 0.57594 0.84631 0.08043 0.0
C114 C 0.61552 0.83142 0.12529 0.0
O115 O 0.62101 0.80484 0.05536 0.0
O116 O 0.64014 0.83253 0.07042 0.0
In117 In 0.38849 0.16655 0.5784 0.0
O118 O 0.3778 0.19998 0.55551 0.0
O119 O 0.35689 0.17408 0.56974 0.0
C120 C 0.42689 0.17653 0.57758 0.0
C121 C 0.38104 0.17026 0.62504 0.0
C122 C 0.38565 0.12284 0.55273 0.0
O123 O 0.41462 0.19216 0.56922 0.0
O124 O 0.4197 0.15643 0.58654 0.0
O125 O 0.37855 0.12493 0.57316 0.0
O126 O 0.39411 0.14281 0.54523 0.0
C127 C 0.36014 0.19368 0.55716 0.0
O128 O 0.38425 0.14905 0.61484 0.0
O129 O 0.38162 0.18977 0.61173 0.0
In130 In 0.60964 0.17377 0.91742 0.0
O131 O 0.61772 0.15567 0.88235 0.0
O132 O 0.61457 0.19646 0.88324 0.0
C133 C 0.61307 0.12842 0.9403 0.0
C134 C 0.63764 0.20053 0.94005 0.0
C135 C 0.57118 0.18428 0.91809 0.0
O136 O 0.61618 0.1308 0.91847 0.0
O137 O 0.60835 0.14902 0.95072 0.0
O138 O 0.5838 0.20174 0.92043 0.0
O139 O 0.57799 0.16198 0.91516 0.0
C140 C 0.61857 0.17666 0.87117 0.0
O141 O 0.61994 0.20248 0.9455 0.0
O142 O 0.64108 0.1854 0.92315 0.0
In143 In 0.39031 0.82831 0.42053 0.0
O144 O 0.38069 0.79793 0.44751 0.0
O145 O 0.35903 0.8164 0.4269 0.0
C146 C 0.42744 0.81351 0.42857 0.0
C147 C 0.38204 0.82687 0.37396 0.0
C148 C 0.38708 0.87705 0.43674 0.0
O149 O 0.41844 0.82903 0.44169 0.0
O150 O 0.41761 0.80487 0.41157 0.0
O151 O 0.39769 0.87126 0.41935 0.0
O152 O 0.37804 0.85832 0.44577 0.0
C153 C 0.36286 0.80029 0.4429 0.0
O154 O 0.38457 0.84766 0.38511 0.0
O155 O 0.38388 0.8067 0.38624 0.0
In156 In 0.33068 0.16926 0.9197 0.0
O157 O 0.32088 0.12722 0.91794 0.0
O158 O 0.3274 0.1432 0.95166 0.0
C159 C 0.33655 0.17074 0.8725 0.0
C160 C 0.29903 0.19552 0.93396 0.0
C161 C 0.36645 0.18364 0.93407 0.0
O162 O 0.34123 0.15168 0.88507 0.0
O163 O 0.32836 0.18881 0.88359 0.0
O164 O 0.35416 0.19977 0.92667 0.0
O165 O 0.36045 0.16069 0.93476 0.0
C166 C 0.32204 0.1237 0.93997 0.0
O167 O 0.31592 0.20104 0.94096 0.0
O168 O 0.29818 0.17715 0.91939 0.0
In169 In 0.67023 0.82275 0.41754 0.0
O170 O 0.67523 0.86616 0.41538 0.0
O171 O 0.67569 0.84853 0.44933 0.0
C172 C 0.6677 0.82378 0.3701 0.0
C173 C 0.70152 0.79592 0.43217 0.0
C174 C 0.63379 0.80796 0.42951 0.0
O175 O 0.66388 0.84309 0.38284 0.0
O176 O 0.67324 0.80404 0.38126 0.0
O177 O 0.64432 0.79491 0.41582 0.0
O178 O 0.64182 0.82786 0.43765 0.0
C179 C 0.67709 0.86904 0.43741 0.0
O180 O 0.68451 0.79051 0.43879 0.0
O181 O 0.70265 0.81445 0.41783 0.0
In182 In 0.32765 0.83569 0.08155 0.0
O183 O 0.32083 0.87869 0.08033 0.0
O184 O 0.32417 0.85884 0.04767 0.0
C185 C 0.32939 0.83193 0.12904 0.0
C186 C 0.29612 0.80942 0.06687 0.0
C187 C 0.3651 0.82529 0.07101 0.0
O188 O 0.32761 0.8532 0.11846 0.0
O189 O 0.32974 0.81244 0.1157 0.0
O190 O 0.35225 0.80793 0.07122 0.0
O191 O 0.35897 0.84759 0.07577 0.0
C192 C 0.32079 0.87993 0.05806 0.0
O193 O 0.31302 0.80445 0.05955 0.0
O194 O 0.2952 0.82718 0.08206 0.0
In195 In 0.67085 0.1573 0.58127 0.0
O196 O 0.67787 0.1144 0.57894 0.0
O197 O 0.66931 0.13365 0.54745 0.0
C198 C 0.67302 0.16409 0.62837 0.0
C199 C 0.70189 0.18297 0.56457 0.0
C200 C 0.63282 0.16717 0.57483 0.0
O201 O 0.67393 0.14211 0.61883 0.0
O202 O 0.67155 0.18266 0.61411 0.0
O203 O 0.64585 0.18158 0.56633 0.0
O204 O 0.63905 0.14801 0.58623 0.0
C205 C 0.67449 0.11279 0.55708 0.0
O206 O 0.6848 0.19139 0.56227 0.0
O207 O 0.70328 0.16187 0.57553 0.0
H208 H 0.04928 0.28128 0.05615 0.0
H209 H 0.01409 0.27407 0.05664 0.0
H210 H 0.00788 0.33234 0.11059 0.0
H211 H 0.04287 0.33923 0.11049 0.0
H212 H 0.98491 0.29243 0.1198 0.0
H213 H -4e-05 0.34546 0.05171 0.0
H214 H 0.01612 0.35531 0.01391 0.0
H215 H 0.99008 0.28833 0.9824 0.0
H216 H 0.97395 0.27791 0.02013 0.0
H217 H 0.89335 0.34937 0.10836 0.0
H218 H 0.92791 0.33928 0.10745 0.0
H219 H 0.91683 0.27543 0.06047 0.0
H220 H 0.88194 0.28533 0.06145 0.0
H221 H 0.94783 0.30841 0.04617 0.0
H222 H 0.92805 0.26077 0.11397 0.0
H223 H 0.91125 0.25371 0.15185 0.0
H224 H 0.94578 0.31294 0.18422 0.0
H225 H 0.96259 0.32065 0.14643 0.0
C226 C 0.04039 0.29233 0.06827 0.0
C227 C 0.04879 0.31092 0.08319 0.0
C228 C 0.02031 0.28826 0.06848 0.0
C229 C 0.00833 0.30287 0.08347 0.0
C230 C 0.01682 0.32081 0.09889 0.0
C231 C 0.03683 0.32481 0.09875 0.0
C232 C 0.98688 0.30058 0.08259 0.0
C233 C 0.97681 0.29594 0.1037 0.0
C234 C 0.9763 0.30447 0.06146 0.0
C235 C 0.98597 0.31072 0.0388 0.0
C236 C 0.99781 0.33272 0.03677 0.0
C237 C 0.00694 0.33843 0.01535 0.0
C238 C 0.00419 0.32241 0.99579 0.0
C239 C 0.99224 0.30068 0.99758 0.0
C240 C 0.98311 0.29487 0.01897 0.0
C241 C 0.89822 0.33313 0.09787 0.0
C242 C 0.88496 0.31812 0.08498 0.0
C243 C 0.91796 0.32732 0.09746 0.0
C244 C 0.92486 0.30647 0.08408 0.0
C245 C 0.91172 0.29153 0.07098 0.0
C246 C 0.89185 0.29717 0.07159 0.0
C247 C 0.94594 0.30104 0.0835 0.0
C248 C 0.95594 0.30426 0.06214 0.0
C249 C 0.95646 0.2961 0.10444 0.0
C250 C 0.94651 0.29138 0.1273 0.0
C251 C 0.93197 0.27242 0.12912 0.0
C252 C 0.92246 0.26828 0.15059 0.0
C253 C 0.92742 0.28289 0.17042 0.0
C254 C 0.94195 0.30164 0.16884 0.0
C255 C 0.9515 0.30587 0.1474 0.0
H256 H 0.92004 0.27966 0.18703 0.0
H257 H 0.01126 0.32686 0.97922 0.0
H258 H 0.95048 0.71383 0.55081 0.0
H259 H 0.98569 0.72043 0.54864 0.0
H260 H 0.99304 0.67567 0.61221 0.0
H261 H 0.95802 0.66915 0.61456 0.0
H262 H 0.01657 0.71811 0.61163 0.0
H263 H 0.99866 0.64814 0.55863 0.0
H264 H 0.98096 0.62921 0.52497 0.0
H265 H 0.00672 0.68486 0.47832 0.0
H266 H 0.02438 0.70432 0.51181 0.0
H267 H 0.10671 0.65611 0.61047 0.0
H268 H 0.07231 0.66707 0.60851 0.0
H269 H 0.08306 0.71505 0.54769 0.0
H270 H 0.1178 0.70441 0.54976 0.0
H271 H 0.05104 0.68039 0.54285 0.0
H272 H 0.07407 0.74444 0.59529 0.0
H273 H 0.09176 0.76291 0.62909 0.0
H274 H 0.0564 0.71916 0.67698 0.0
H275 H 0.03887 0.6998 0.64346 0.0
C276 C 0.95961 0.70572 0.56448 0.0
C277 C 0.95155 0.69084 0.58278 0.0
C278 C 0.97969 0.70943 0.56317 0.0
C279 C 0.99196 0.69831 0.58013 0.0
C280 C 0.98383 0.68442 0.59895 0.0
C281 C 0.96382 0.68064 0.60022 0.0
C282 C 0.01335 0.69968 0.57781 0.0
C283 C 0.02414 0.70984 0.59663 0.0
C284 C 0.02317 0.68964 0.55786 0.0
C285 C 0.01263 0.67788 0.53774 0.0
C286 C 0.00042 0.65646 0.54123 0.0
C287 C 0.99042 0.64562 0.52218 0.0
C288 C 0.99266 0.65588 0.49954 0.0
C289 C 0.00496 0.67697 0.49588 0.0
C290 C 0.01497 0.6879 0.51488 0.0
C291 C 0.10178 0.669 0.59665 0.0
C292 C 0.1149 0.67939 0.58023 0.0
C293 C 0.08215 0.67535 0.59565 0.0
C294 C 0.07521 0.69203 0.57809 0.0
C295 C 0.0882 0.70223 0.56142 0.0
C296 C 0.10798 0.69617 0.56264 0.0
C297 C 0.05424 0.69802 0.57706 0.0
C298 C 0.04352 0.68922 0.55763 0.0
C299 C 0.04449 0.70926 0.59649 0.0
C300 C 0.05523 0.7205 0.61679 0.0
C301 C 0.07022 0.73847 0.61301 0.0
C302 C 0.08022 0.74914 0.63213 0.0
C303 C 0.07524 0.74219 0.65517 0.0
C304 C 0.06026 0.72452 0.65912 0.0
C305 C 0.05031 0.71365 0.64006 0.0
H306 H 0.08294 0.75056 0.66994 0.0
H307 H 0.98491 0.64746 0.48481 0.0
H308 H 0.89027 0.65916 0.88509 0.0
H309 H 0.92527 0.66472 0.8885 0.0
H310 H 0.91734 0.70916 0.95219 0.0
H311 H 0.88201 0.70394 0.94869 0.0
H312 H 0.94597 0.72963 0.92322 0.0
H313 H 0.93044 0.64812 0.95724 0.0
H314 H 0.91508 0.60519 0.95937 0.0
H315 H 0.94701 0.58086 0.89817 0.0
H316 H 0.96234 0.62379 0.89545 0.0
H317 H 0.04792 0.71028 0.95108 0.0
H318 H 0.0124 0.71357 0.95273 0.0
H319 H 0.00808 0.66833 0.889 0.0
H320 H 0.04334 0.66482 0.88734 0.0
H321 H 0.98538 0.64947 0.92402 0.0
H322 H 0.99904 0.73274 0.88884 0.0
H323 H 0.01419 0.77585 0.88726 0.0
H324 H 0.98602 0.79669 0.95215 0.0
H325 H 0.9709 0.75356 0.95428 0.0
C326 C 0.89592 0.67023 0.89978 0.0
C327 C 0.88342 0.68088 0.91679 0.0
C328 C 0.91594 0.67337 0.90172 0.0
C329 C 0.92391 0.68696 0.92082 0.0
C330 C 0.91146 0.6985 0.93738 0.0
C331 C 0.89133 0.69544 0.9354 0.0
C332 C 0.94527 0.68806 0.92371 0.0
C333 C 0.95461 0.71214 0.92381 0.0
C334 C 0.9565 0.66521 0.92437 0.0
C335 C 0.94744 0.63926 0.92605 0.0
C336 C 0.93409 0.63368 0.94414 0.0
C337 C 0.9254 0.60934 0.94546 0.0
C338 C 0.93004 0.59033 0.92889 0.0
C339 C 0.94342 0.59561 0.91099 0.0
C340 C 0.95213 0.61994 0.90956 0.0
C341 C 0.03937 0.70135 0.93728 0.0
C342 C 0.04838 0.6872 0.91914 0.0
C343 C 0.01911 0.70328 0.93822 0.0
C344 C 0.00762 0.69116 0.92099 0.0
C345 C 0.01667 0.67772 0.90253 0.0
C346 C 0.03683 0.67579 0.90158 0.0
C347 C 0.98615 0.69101 0.92268 0.0
C348 C 0.97677 0.667 0.92364 0.0
C349 C 0.97497 0.71391 0.92316 0.0
C350 C 0.98403 0.73983 0.92186 0.0
C351 C 0.99622 0.74644 0.90289 0.0
C352 C 0.00477 0.77089 0.90186 0.0
C353 C 0.00112 0.78897 0.91963 0.0
C354 C 0.98886 0.78265 0.93842 0.0
C355 C 0.98029 0.75822 0.93954 0.0
H356 H 0.00774 0.80789 0.91881 0.0
H357 H 0.9233 0.57149 0.92995 0.0
H358 H 0.10624 0.33564 0.38287 0.0
H359 H 0.0713 0.32923 0.38588 0.0
H360 H 0.07895 0.29056 0.4527 0.0
H361 H 0.11426 0.29613 0.44929 0.0
H362 H 0.051 0.26746 0.4275 0.0
H363 H 0.06495 0.35379 0.45091 0.0
H364 H 0.0795 0.39715 0.44785 0.0
H365 H 0.04769 0.41111 0.38397 0.0
H366 H 0.03315 0.36768 0.38645 0.0
H367 H 0.94936 0.29191 0.45544 0.0
H368 H 0.98485 0.28797 0.45603 0.0
H369 H 0.98766 0.31976 0.38575 0.0
H370 H 0.95241 0.32379 0.38504 0.0
H371 H 0.01038 0.34583 0.41793 0.0
H372 H 0.99749 0.25735 0.39489 0.0
H373 H 0.98291 0.2142 0.39976 0.0
H374 H 0.01228 0.20513 0.46607 0.0
H375 H 0.02683 0.2484 0.46174 0.0
C376 C 0.1005 0.32563 0.39815 0.0
C377 C 0.11289 0.31666 0.416 0.0
C378 C 0.08053 0.32204 0.39989 0.0
C379 C 0.07247 0.30997 0.4198 0.0
C380 C 0.08487 0.30007 0.43726 0.0
C381 C 0.10498 0.30332 0.43534 0.0
C382 C 0.05109 0.30871 0.42251 0.0
C383 C 0.04211 0.28464 0.42578 0.0
C384 C 0.03949 0.33113 0.42024 0.0
C385 C 0.04806 0.35739 0.41879 0.0
C386 C 0.06114 0.36604 0.43613 0.0
C387 C 0.06938 0.39064 0.4345 0.0
C388 C 0.06455 0.40686 0.4157 0.0
C389 C 0.05142 0.39853 0.39852 0.0
C390 C 0.04316 0.37393 0.40004 0.0
C391 C 0.95755 0.29761 0.43998 0.0
C392 C 0.94815 0.30834 0.42026 0.0
C393 C 0.97779 0.29531 0.44033 0.0
C394 C 0.98884 0.30365 0.42095 0.0
C395 C 0.97938 0.31331 0.40091 0.0
C396 C 0.95923 0.31556 0.40052 0.0
C397 C 0.01028 0.30452 0.42208 0.0
C398 C 0.01927 0.32866 0.41976 0.0
C399 C 0.02179 0.28224 0.42556 0.0
C400 C 0.01307 0.25623 0.42812 0.0
C401 C 0.00069 0.24626 0.41061 0.0
C402 C 0.99247 0.22175 0.41325 0.0
C403 C 0.99662 0.20696 0.43324 0.0
C404 C 0.00905 0.21662 0.45061 0.0
C405 C 0.0173 0.24112 0.44807 0.0
H406 H 0.99024 0.188 0.43525 0.0
H407 H 0.07095 0.42589 0.41447 0.0
H408 H 0.38314 0.7784 0.06586 0.0
H409 H 0.41809 0.77051 0.06126 0.0
H410 H 0.42859 0.85262 0.06206 0.0
H411 H 0.39393 0.86059 0.06646 0.0
H412 H 0.45 0.82886 0.02845 0.0
H413 H 0.43432 0.81637 0.11141 0.0
H414 H 0.41715 0.79551 0.14452 0.0
H415 H 0.44048 0.72195 0.12414 0.0
H416 H 0.45759 0.74235 0.09069 0.0
H417 H 0.54052 0.8592 0.07453 0.0
H418 H 0.50601 0.85119 0.06875 0.0
H419 H 0.51725 0.76974 0.06084 0.0
H420 H 0.55218 0.7777 0.06642 0.0
H421 H 0.48536 0.78298 0.09217 0.0
H422 H 0.50638 0.79879 0.01346 0.0
H423 H 0.52407 0.82144 0.98181 0.0
H424 H 0.49098 0.89016 0.99505 0.0
H425 H 0.47328 0.86805 0.02704 0.0
C426 C 0.39293 0.79472 0.06481 0.0
C427 C 0.38585 0.8201 0.06661 0.0
C428 C 0.41286 0.79019 0.06226 0.0
C429 C 0.42593 0.81099 0.06147 0.0
C430 C 0.41876 0.8363 0.06256 0.0
C431 C 0.39895 0.84082 0.06518 0.0
C432 C 0.44719 0.80684 0.06051 0.0
C433 C 0.45773 0.81876 0.04234 0.0
C434 C 0.45724 0.79303 0.07827 0.0
C435 C 0.44701 0.78081 0.09839 0.0
C436 C 0.43565 0.79572 0.11388 0.0
C437 C 0.42596 0.78399 0.13273 0.0
C438 C 0.42767 0.75741 0.13639 0.0
C439 C 0.43913 0.74252 0.12125 0.0
C440 C 0.44883 0.75415 0.10235 0.0
C441 C 0.53571 0.83955 0.07156 0.0
C442 C 0.54904 0.81906 0.07088 0.0
C443 C 0.51599 0.83503 0.06818 0.0
C444 C 0.50914 0.80993 0.06414 0.0
C445 C 0.52232 0.78927 0.06383 0.0
C446 C 0.5422 0.79384 0.06697 0.0
C447 C 0.4881 0.80579 0.06057 0.0
C448 C 0.47761 0.79238 0.07789 0.0
C449 C 0.47807 0.81839 0.04211 0.0
C450 C 0.48856 0.83177 0.02274 0.0
C451 C 0.50296 0.81878 0.00974 0.0
C452 C 0.51297 0.83152 0.99171 0.0
C453 C 0.50866 0.85723 0.98644 0.0
C454 C 0.4943 0.87024 0.99915 0.0
C455 C 0.48424 0.8576 0.01721 0.0
H456 H 0.51644 0.86707 0.97248 0.0
H457 H 0.42016 0.74837 0.15099 0.0
H458 H 0.60323 0.13745 0.59081 0.0
H459 H 0.56854 0.14475 0.58628 0.0
H460 H 0.57999 0.21507 0.54795 0.0
H461 H 0.61507 0.20792 0.55258 0.0
H462 H 0.55047 0.22025 0.58178 0.0
H463 H 0.56552 0.16509 0.51735 0.0
H464 H 0.58038 0.1278 0.49723 0.0
H465 H 0.54695 0.07597 0.54018 0.0
H466 H 0.53211 0.11294 0.56083 0.0
H467 H 0.44663 0.21685 0.55721 0.0
H468 H 0.48195 0.2209 0.55236 0.0
H469 H 0.48994 0.14883 0.58923 0.0
H470 H 0.45497 0.14462 0.594 0.0
H471 H 0.5099 0.15047 0.54765 0.0
H472 H 0.49916 0.20583 0.61588 0.0
H473 H 0.48477 0.24307 0.63661 0.0
H474 H 0.51011 0.29466 0.5859 0.0
H475 H 0.52445 0.25765 0.56469 0.0
C476 C 0.59843 0.15447 0.58137 0.0
C477 C 0.61186 0.17203 0.57191 0.0
C478 C 0.57859 0.15857 0.57874 0.0
C479 C 0.57172 0.18025 0.56649 0.0
C480 C 0.58504 0.19815 0.55736 0.0
C481 C 0.60502 0.19401 0.55995 0.0
C482 C 0.55055 0.18377 0.56351 0.0
C483 C 0.54158 0.20532 0.57383 0.0
C484 C 0.539 0.16419 0.55324 0.0
C485 C 0.54776 0.14183 0.54072 0.0
C486 C 0.56142 0.14575 0.52261 0.0
C487 C 0.56983 0.12466 0.5111 0.0
C488 C 0.56463 0.09953 0.51744 0.0
C489 C 0.55097 0.09544 0.53528 0.0
C490 C 0.54252 0.11646 0.54687 0.0
C491 C 0.45598 0.20203 0.56443 0.0
C492 C 0.44807 0.18039 0.57592 0.0
C493 C 0.47611 0.20437 0.56166 0.0
C494 C 0.48852 0.18512 0.57039 0.0
C495 C 0.4806 0.16381 0.58223 0.0
C496 C 0.46061 0.16149 0.58502 0.0
C497 C 0.50979 0.18637 0.56683 0.0
C498 C 0.51878 0.1657 0.55514 0.0
C499 C 0.52128 0.20678 0.57579 0.0
C500 C 0.51265 0.22897 0.58853 0.0
C501 C 0.50151 0.2251 0.60903 0.0
C502 C 0.4934 0.24616 0.62089 0.0
C503 C 0.49647 0.27121 0.61253 0.0
C504 C 0.50771 0.27524 0.59233 0.0
C505 C 0.51583 0.25424 0.58038 0.0
H506 H 0.49018 0.2875 0.62174 0.0
H507 H 0.57116 0.08323 0.50851 0.0
H508 H 0.55221 0.23079 0.92086 0.0
H509 H 0.51706 0.2378 0.92394 0.0
H510 H 0.50775 0.15541 0.92224 0.0
H511 H 0.54253 0.14841 0.91848 0.0
H512 H 0.48232 0.17775 0.89544 0.0
H513 H 0.50688 0.19189 0.97442 0.0
H514 H 0.52715 0.21302 0.00467 0.0
H515 H 0.50103 0.28615 0.98846 0.0
H516 H 0.48077 0.26547 0.95789 0.0
H517 H 0.39492 0.15117 0.9486 0.0
H518 H 0.42977 0.15925 0.94804 0.0
H519 H 0.41949 0.23863 0.92896 0.0
H520 H 0.38434 0.23064 0.92925 0.0
H521 H 0.45378 0.22557 0.96303 0.0
H522 H 0.42521 0.20656 0.88713 0.0
H523 H 0.40299 0.18102 0.86236 0.0
H524 H 0.437 0.11302 0.87507 0.0
H525 H 0.45881 0.13786 0.90107 0.0
C526 C 0.5426 0.21424 0.92104 0.0
C527 C 0.55009 0.18906 0.91945 0.0
C528 C 0.52256 0.21825 0.9229 0.0
C529 C 0.50976 0.19712 0.92353 0.0
C530 C 0.5173 0.17203 0.92169 0.0
C531 C 0.53721 0.16804 0.91962 0.0
C532 C 0.4885 0.20067 0.92633 0.0
C533 C 0.47614 0.18826 0.91021 0.0
C534 C 0.48034 0.21478 0.94535 0.0
C535 C 0.49251 0.22721 0.96368 0.0
C536 C 0.50559 0.21251 0.97717 0.0
C537 C 0.51704 0.22439 0.9944 0.0
C538 C 0.51543 0.25092 0.99842 0.0
C539 C 0.5023 0.26561 0.98528 0.0
C540 C 0.49083 0.25383 0.96801 0.0
C541 C 0.4 0.17053 0.94484 0.0
C542 C 0.38695 0.19018 0.93858 0.0
C543 C 0.41991 0.17512 0.94463 0.0
C544 C 0.4271 0.19943 0.93821 0.0
C545 C 0.41412 0.21976 0.93398 0.0
C546 C 0.3941 0.21513 0.93405 0.0
C547 C 0.44791 0.2021 0.93253 0.0
C548 C 0.46007 0.21564 0.948 0.0
C549 C 0.45596 0.18871 0.91309 0.0
C550 C 0.44356 0.17406 0.89629 0.0
C551 C 0.42786 0.18612 0.88487 0.0
C552 C 0.41529 0.17174 0.87066 0.0
C553 C 0.41858 0.14542 0.86712 0.0
C554 C 0.43445 0.13341 0.87784 0.0
C555 C 0.44687 0.14761 0.89243 0.0
H556 H 0.40889 0.13436 0.85599 0.0
H557 H 0.5243 0.26009 0.01177 0.0
H558 H 0.44986 0.77949 0.40359 0.0
H559 H 0.48506 0.7734 0.4067 0.0
H560 H 0.48711 0.82867 0.4636 0.0
H561 H 0.45203 0.83476 0.4607 0.0
H562 H 0.51294 0.83933 0.42722 0.0
H563 H 0.49395 0.76693 0.47545 0.0
H564 H 0.47656 0.72643 0.48413 0.0
H565 H 0.50572 0.689 0.42652 0.0
H566 H 0.52308 0.72941 0.41728 0.0
H567 H 0.60961 0.8313 0.46086 0.0
H568 H 0.5744 0.82685 0.4634 0.0
H569 H 0.57579 0.76815 0.40938 0.0
H570 H 0.61119 0.77217 0.40707 0.0
H571 H 0.54822 0.75767 0.44323 0.0
H572 H 0.56606 0.8283 0.39345 0.0
H573 H 0.58363 0.86811 0.38284 0.0
H574 H 0.55642 0.90819 0.44038 0.0
H575 H 0.53882 0.86849 0.45148 0.0
C576 C 0.4578 0.79005 0.41698 0.0
C577 C 0.44823 0.80767 0.43185 0.0
C578 C 0.47786 0.7865 0.41877 0.0
C579 C 0.48864 0.80058 0.4354 0.0
C580 C 0.47903 0.81765 0.45066 0.0
C581 C 0.45899 0.82105 0.449 0.0
C582 C 0.51008 0.799 0.43584 0.0
C583 C 0.52064 0.82155 0.43107 0.0
C584 C 0.52008 0.77559 0.43998 0.0
C585 C 0.50966 0.75128 0.44552 0.0
C586 C 0.49652 0.75013 0.46449 0.0
C587 C 0.4867 0.72718 0.46955 0.0
C588 C 0.48999 0.70517 0.45585 0.0
C589 C 0.50316 0.70607 0.4371 0.0
C590 C 0.51301 0.72899 0.43196 0.0
C591 C 0.60247 0.8171 0.44983 0.0
C592 C 0.61309 0.80227 0.43359 0.0
C593 C 0.58235 0.81462 0.45126 0.0
C594 C 0.57247 0.79754 0.43624 0.0
C595 C 0.58315 0.78152 0.42105 0.0
C596 C 0.60334 0.78386 0.41973 0.0
C597 C 0.55101 0.79811 0.43508 0.0
C598 C 0.54048 0.77542 0.43948 0.0
C599 C 0.54095 0.82133 0.43025 0.0
C600 C 0.55126 0.84536 0.42342 0.0
C601 C 0.56391 0.84556 0.40392 0.0
C602 C 0.57386 0.86811 0.39781 0.0
C603 C 0.57119 0.89065 0.41098 0.0
C604 C 0.55849 0.8907 0.43022 0.0
C605 C 0.5485 0.8682 0.4364 0.0
H606 H 0.57893 0.90808 0.40625 0.0
H607 H 0.48237 0.68741 0.45979 0.0
H608 H 0.1238 0.28042 0.14875 0.0
H609 H 0.13659 0.27612 0.18893 0.0
H610 H 0.15074 0.35726 0.18963 0.0
H611 H 0.13821 0.36163 0.14951 0.0
H612 H 0.1797 0.32848 0.20865 0.0
H613 H 0.1101 0.33563 0.21614 0.0
H614 H 0.07615 0.32319 0.20842 0.0
H615 H 0.08696 0.24789 0.23721 0.0
H616 H 0.12107 0.25979 0.24481 0.0
H617 H 0.18083 0.36198 0.33002 0.0
H618 H 0.17573 0.35677 0.28759 0.0
H619 H 0.16392 0.27575 0.2978 0.0
H620 H 0.16889 0.28086 0.34032 0.0
H621 H 0.13576 0.29907 0.27261 0.0
H622 H 0.20473 0.29429 0.26959 0.0
H623 H 0.2384 0.30761 0.27776 0.0
H624 H 0.22884 0.37901 0.24111 0.0
H625 H 0.195 0.36629 0.23301 0.0
C626 C 0.12971 0.29729 0.15747 0.0
C627 C 0.1299 0.32139 0.14608 0.0
C628 C 0.13698 0.29482 0.18039 0.0
C629 C 0.14448 0.31642 0.1923 0.0
C630 C 0.14506 0.34034 0.18074 0.0
C631 C 0.1378 0.34283 0.15787 0.0
C632 C 0.1511 0.31448 0.21711 0.0
C633 C 0.17009 0.32219 0.22268 0.0
C634 C 0.13869 0.30565 0.23529 0.0
C635 C 0.11819 0.29849 0.23077 0.0
C636 C 0.10528 0.31635 0.22064 0.0
C637 C 0.086 0.30941 0.21632 0.0
C638 C 0.07942 0.28474 0.22225 0.0
C639 C 0.09209 0.26697 0.23258 0.0
C640 C 0.11139 0.2738 0.2369 0.0
C641 C 0.17748 0.34297 0.32318 0.0
C642 C 0.17519 0.32185 0.33847 0.0
C643 C 0.17465 0.33999 0.29892 0.0
C644 C 0.16953 0.31584 0.28953 0.0
C645 C 0.16788 0.29454 0.30469 0.0
C646 C 0.17078 0.29748 0.32895 0.0
C647 C 0.16431 0.31342 0.26426 0.0
C648 C 0.14553 0.30496 0.25858 0.0
C649 C 0.1769 0.32165 0.24603 0.0
C650 C 0.19726 0.3294 0.25085 0.0
C651 C 0.20975 0.31293 0.26344 0.0
C652 C 0.22888 0.32035 0.26803 0.0
C653 C 0.23575 0.34417 0.26 0.0
C654 C 0.2235 0.36058 0.24733 0.0
C655 C 0.20434 0.35325 0.24271 0.0
H656 H 0.25057 0.34988 0.26357 0.0
H657 H 0.06448 0.2794 0.2189 0.0
H658 H 0.86659 0.63564 0.65375 0.0
H659 H 0.8527 0.6396 0.6932 0.0
H660 H 0.85919 0.72237 0.68991 0.0
H661 H 0.87341 0.7185 0.65035 0.0
H662 H 0.87142 0.70331 0.73173 0.0
H663 H 0.81464 0.69527 0.68409 0.0
H664 H 0.79357 0.67609 0.6536 0.0
H665 H 0.79106 0.60524 0.6928 0.0
H666 H 0.81235 0.62386 0.72337 0.0
H667 H 0.82155 0.71633 0.84023 0.0
H668 H 0.82743 0.7211 0.79783 0.0
H669 H 0.8254 0.63835 0.78953 0.0
H670 H 0.81928 0.63346 0.83177 0.0
H671 H 0.80835 0.66292 0.75246 0.0
H672 H 0.86815 0.66869 0.79683 0.0
H673 H 0.88969 0.68683 0.82739 0.0
H674 H 0.88684 0.76117 0.79405 0.0
H675 H 0.86502 0.74353 0.76349 0.0
C676 C 0.86504 0.65471 0.66139 0.0
C677 C 0.87105 0.67678 0.64896 0.0
C678 C 0.85699 0.65695 0.68388 0.0
C679 C 0.85462 0.68132 0.69434 0.0
C680 C 0.86079 0.7034 0.68209 0.0
C681 C 0.86889 0.70116 0.65953 0.0
C682 C 0.84624 0.68344 0.71837 0.0
C683 C 0.85744 0.69498 0.73616 0.0
C684 C 0.82815 0.67215 0.72422 0.0
C685 C 0.81521 0.66093 0.70595 0.0
C686 C 0.80971 0.67554 0.68613 0.0
C687 C 0.7977 0.66478 0.66885 0.0
C688 C 0.79101 0.63945 0.67124 0.0
C689 C 0.79626 0.62486 0.69096 0.0
C690 C 0.80828 0.63552 0.70829 0.0
C691 C 0.82199 0.69919 0.82928 0.0
C692 C 0.82015 0.6745 0.83932 0.0
C693 C 0.82542 0.70195 0.8051 0.0
C694 C 0.82717 0.68005 0.79063 0.0
C695 C 0.82414 0.65549 0.80039 0.0
C696 C 0.8207 0.65273 0.82454 0.0
C697 C 0.83367 0.68242 0.76579 0.0
C698 C 0.82216 0.67166 0.7479 0.0
C699 C 0.8515 0.69433 0.75983 0.0
C700 C 0.86478 0.70487 0.77804 0.0
C701 C 0.87201 0.68895 0.79612 0.0
C702 C 0.88428 0.69913 0.81343 0.0
C703 C 0.88959 0.72515 0.8127 0.0
C704 C 0.88268 0.74102 0.79462 0.0
C705 C 0.87036 0.73095 0.7773 0.0
H706 H 0.89909 0.733 0.82611 0.0
H707 H 0.78172 0.63115 0.65783 0.0
H708 H 0.14547 0.64176 0.85368 0.0
H709 H 0.15778 0.64511 0.81334 0.0
H710 H 0.12878 0.71835 0.80518 0.0
H711 H 0.11635 0.71511 0.84564 0.0
H712 H 0.12183 0.68535 0.76834 0.0
H713 H 0.17697 0.71699 0.81056 0.0
H714 H 0.20257 0.7164 0.84093 0.0
H715 H 0.22564 0.64641 0.81156 0.0
H716 H 0.19999 0.64637 0.78119 0.0
H717 H 0.16271 0.71324 0.65741 0.0
H718 H 0.15655 0.71754 0.69973 0.0
H719 H 0.18192 0.64259 0.71172 0.0
H720 H 0.18811 0.63808 0.66932 0.0
H721 H 0.19152 0.67919 0.74683 0.0
H722 H 0.13568 0.64616 0.70624 0.0
H723 H 0.11002 0.64601 0.67595 0.0
H724 H 0.08778 0.71753 0.70311 0.0
H725 H 0.11367 0.71852 0.73307 0.0
C726 C 0.1418 0.65866 0.84335 0.0
C727 C 0.12993 0.67817 0.85277 0.0
C728 C 0.14894 0.6606 0.82036 0.0
C729 C 0.14434 0.68209 0.80637 0.0
C730 C 0.13254 0.70166 0.81575 0.0
C731 C 0.12549 0.6998 0.83883 0.0
C732 C 0.15108 0.6834 0.78157 0.0
C733 C 0.13709 0.68453 0.76364 0.0
C734 C 0.17097 0.68159 0.7755 0.0
C735 C 0.18644 0.68156 0.79372 0.0
C736 C 0.1874 0.70135 0.81069 0.0
C737 C 0.20194 0.70115 0.82789 0.0
C738 C 0.21569 0.68134 0.82821 0.0
C739 C 0.21496 0.66172 0.8113 0.0
C740 C 0.20044 0.66182 0.79407 0.0
C741 C 0.16731 0.69786 0.66909 0.0
C742 C 0.17574 0.67521 0.66006 0.0
C743 C 0.16374 0.70034 0.69324 0.0
C744 C 0.16858 0.68025 0.70875 0.0
C745 C 0.17807 0.65828 0.69999 0.0
C746 C 0.18154 0.65571 0.67579 0.0
C747 C 0.16225 0.68121 0.7337 0.0
C748 C 0.17629 0.68034 0.75159 0.0
C749 C 0.14238 0.68315 0.73979 0.0
C750 C 0.1268 0.68261 0.7217 0.0
C751 C 0.12548 0.66204 0.70555 0.0
C752 C 0.11088 0.6618 0.68842 0.0
C753 C 0.09734 0.68183 0.68748 0.0
C754 C 0.09835 0.70212 0.7037 0.0
C755 C 0.113 0.70255 0.72075 0.0
H756 H 0.08602 0.68153 0.67425 0.0
H757 H 0.22694 0.68123 0.84154 0.0
H758 H 0.8289 0.29003 0.16255 0.0
H759 H 0.83383 0.28823 0.20527 0.0
H760 H 0.82437 0.37042 0.2099 0.0
H761 H 0.81975 0.37241 0.16717 0.0
H762 H 0.85692 0.35699 0.2316 0.0
H763 H 0.79115 0.3271 0.23167 0.0
H764 H 0.76364 0.29955 0.21985 0.0
H765 H 0.79343 0.23266 0.24607 0.0
H766 H 0.82125 0.25978 0.25776 0.0
H767 H 0.85788 0.36764 0.35532 0.0
H768 H 0.84601 0.36718 0.3147 0.0
H769 H 0.85954 0.28609 0.30934 0.0
H770 H 0.87134 0.28634 0.35017 0.0
H771 H 0.8242 0.29857 0.28848 0.0
H772 H 0.89026 0.32818 0.28688 0.0
H773 H 0.91785 0.35561 0.29871 0.0
H774 H 0.88731 0.423 0.27496 0.0
H775 H 0.85941 0.39599 0.26329 0.0
C776 C 0.82757 0.30764 0.17273 0.0
C777 C 0.82403 0.33138 0.16154 0.0
C778 C 0.83032 0.30657 0.19715 0.0
C779 C 0.82939 0.32919 0.21078 0.0
C780 C 0.82518 0.35276 0.1997 0.0
C781 C 0.8225 0.35385 0.17531 0.0
C782 C 0.83433 0.32865 0.23624 0.0
C783 C 0.84951 0.34453 0.24409 0.0
C784 C 0.82508 0.31182 0.25239 0.0
C785 C 0.80837 0.29545 0.24539 0.0
C786 C 0.79191 0.30649 0.23474 0.0
C787 C 0.77624 0.29095 0.2281 0.0
C788 C 0.77681 0.26436 0.23215 0.0
C789 C 0.79302 0.25326 0.24292 0.0
C790 C 0.80874 0.26871 0.24958 0.0
C791 C 0.85821 0.34966 0.34557 0.0
C792 C 0.86569 0.32707 0.35582 0.0
C793 C 0.85144 0.34944 0.32237 0.0
C794 C 0.85212 0.32667 0.30897 0.0
C795 C 0.85892 0.30385 0.31942 0.0
C796 C 0.86573 0.30406 0.34267 0.0
C797 C 0.8466 0.32708 0.28373 0.0
C798 C 0.83146 0.31111 0.27593 0.0
C799 C 0.85587 0.34382 0.26755 0.0
C800 C 0.87267 0.36009 0.27443 0.0
C801 C 0.88937 0.34887 0.28435 0.0
C802 C 0.90507 0.36434 0.291 0.0
C803 C 0.90431 0.39104 0.28765 0.0
C804 C 0.88786 0.40232 0.27757 0.0
C805 C 0.87211 0.38694 0.27092 0.0
H806 H 0.91648 0.40298 0.2928 0.0
H807 H 0.76466 0.25237 0.227 0.0
H808 H 0.6582 0.86473 0.34232 0.0
H809 H 0.64996 0.86409 0.30039 0.0
H810 H 0.66111 0.78216 0.29797 0.0
H811 H 0.66982 0.7828 0.33987 0.0
H812 H 0.67448 0.80547 0.25893 0.0
H813 H 0.61509 0.8045 0.30237 0.0
H814 H 0.59179 0.81942 0.33248 0.0
H815 H 0.5873 0.8927 0.29751 0.0
H816 H 0.61083 0.87836 0.26739 0.0
H817 H 0.62327 0.78744 0.15023 0.0
H818 H 0.63236 0.78421 0.19198 0.0
H819 H 0.62751 0.86689 0.19899 0.0
H820 H 0.61848 0.87026 0.15739 0.0
H821 H 0.61008 0.84018 0.23587 0.0
H822 H 0.67094 0.84071 0.19336 0.0
H823 H 0.69423 0.82492 0.16362 0.0
H824 H 0.69515 0.75059 0.19712 0.0
H825 H 0.67163 0.76585 0.22689 0.0
C826 C 0.65909 0.84663 0.3328 0.0
C827 C 0.6645 0.82377 0.34437 0.0
C828 C 0.65429 0.84626 0.30888 0.0
C829 C 0.65454 0.82297 0.2962 0.0
C830 C 0.66072 0.8003 0.30747 0.0
C831 C 0.66567 0.8007 0.33139 0.0
C832 C 0.64775 0.82223 0.2714 0.0
C833 C 0.66029 0.8127 0.25393 0.0
C834 C 0.62929 0.83187 0.26488 0.0
C835 C 0.61486 0.84042 0.28273 0.0
C836 C 0.60923 0.82385 0.30118 0.0
C837 C 0.59597 0.8322 0.31824 0.0
C838 C 0.5881 0.85701 0.31694 0.0
C839 C 0.59342 0.87349 0.29851 0.0
C840 C 0.60671 0.86525 0.28142 0.0
C841 C 0.62406 0.80488 0.16073 0.0
C842 C 0.62024 0.82911 0.15059 0.0
C843 C 0.6293 0.80303 0.18451 0.0
C844 C 0.63072 0.82534 0.19847 0.0
C845 C 0.62648 0.84945 0.18849 0.0
C846 C 0.6214 0.85135 0.16472 0.0
C847 C 0.63691 0.82377 0.22343 0.0
C848 C 0.62422 0.83281 0.24093 0.0
C849 C 0.65514 0.81347 0.22998 0.0
C850 C 0.66937 0.80434 0.21219 0.0
C851 C 0.67599 0.82094 0.19427 0.0
C852 C 0.68925 0.81209 0.17743 0.0
C853 C 0.69612 0.78674 0.17843 0.0
C854 C 0.68979 0.77021 0.19634 0.0
C855 C 0.6765 0.77895 0.21321 0.0
H856 H 0.70639 0.77993 0.16538 0.0
H857 H 0.57786 0.86345 0.33018 0.0
H858 H 0.35613 0.13542 0.84596 0.0
H859 H 0.36439 0.1382 0.8041 0.0
H860 H 0.33604 0.21233 0.79981 0.0
H861 H 0.3275 0.20948 0.84171 0.0
H862 H 0.32615 0.18319 0.76335 0.0
H863 H 0.38596 0.20898 0.79831 0.0
H864 H 0.41478 0.20756 0.82407 0.0
H865 H 0.43121 0.13458 0.79418 0.0
H866 H 0.40251 0.13562 0.76814 0.0
H867 H 0.36699 0.21168 0.64954 0.0
H868 H 0.35947 0.21384 0.69183 0.0
H869 H 0.37826 0.13496 0.7002 0.0
H870 H 0.38558 0.13255 0.65799 0.0
H871 H 0.39337 0.1698 0.7344 0.0
H872 H 0.33214 0.14582 0.69896 0.0
H873 H 0.30474 0.15123 0.67144 0.0
H874 H 0.29165 0.22495 0.70227 0.0
H875 H 0.31918 0.22013 0.72976 0.0
C876 C 0.35162 0.15229 0.83609 0.0
C877 C 0.34112 0.17221 0.84707 0.0
C878 C 0.35649 0.15396 0.81221 0.0
C879 C 0.35106 0.17564 0.79889 0.0
C880 C 0.34043 0.19546 0.80978 0.0
C881 C 0.33555 0.19381 0.83369 0.0
C882 C 0.35597 0.17713 0.77343 0.0
C883 C 0.34091 0.18069 0.75707 0.0
C884 C 0.37517 0.17355 0.76516 0.0
C885 C 0.39201 0.17229 0.78142 0.0
C886 C 0.39562 0.19252 0.79738 0.0
C887 C 0.41199 0.19185 0.81192 0.0
C888 C 0.42482 0.171 0.81074 0.0
C889 C 0.42128 0.15074 0.79504 0.0
C890 C 0.405 0.1514 0.78033 0.0
C891 C 0.36953 0.19484 0.66043 0.0
C892 C 0.37683 0.17193 0.65052 0.0
C893 C 0.36519 0.19608 0.68451 0.0
C894 C 0.36824 0.17452 0.69903 0.0
C895 C 0.37581 0.15179 0.68924 0.0
C896 C 0.37992 0.15043 0.66514 0.0
C897 C 0.36355 0.17553 0.72449 0.0
C898 C 0.37866 0.17243 0.74079 0.0
C899 C 0.34445 0.17988 0.73268 0.0
C900 C 0.32786 0.18274 0.71623 0.0
C901 C 0.32353 0.16329 0.69973 0.0
C902 C 0.30796 0.16623 0.68416 0.0
C903 C 0.2965 0.18846 0.68505 0.0
C904 C 0.30056 0.20776 0.70157 0.0
C905 C 0.31614 0.20493 0.71715 0.0
H906 H 0.28444 0.19069 0.67299 0.0
H907 H 0.43749 0.17054 0.82201 0.0
H908 H 0.6266 0.13624 0.84219 0.0
H909 H 0.63842 0.13776 0.80163 0.0
H910 H 0.63673 0.221 0.80329 0.0
H911 H 0.62457 0.21961 0.84398 0.0
H912 H 0.62223 0.20194 0.76231 0.0
H913 H 0.67965 0.18992 0.8083 0.0
H914 H 0.70026 0.16948 0.83854 0.0
H915 H 0.69797 0.09763 0.80083 0.0
H916 H 0.6771 0.11754 0.77052 0.0
H917 H 0.67134 0.20946 0.65279 0.0
H918 H 0.66523 0.21506 0.69504 0.0
H919 H 0.66508 0.13237 0.70421 0.0
H920 H 0.67159 0.12666 0.66212 0.0
H921 H 0.68277 0.15578 0.74057 0.0
H922 H 0.62282 0.16617 0.69732 0.0
H923 H 0.60161 0.18574 0.66717 0.0
H924 H 0.6083 0.25996 0.69997 0.0
H925 H 0.62978 0.24087 0.73013 0.0
C926 C 0.62867 0.15488 0.83392 0.0
C927 C 0.62475 0.17782 0.84627 0.0
C928 C 0.63554 0.15572 0.81078 0.0
C929 C 0.6388 0.1795 0.79962 0.0
C930 C 0.63442 0.20246 0.81167 0.0
C931 C 0.62749 0.20164 0.83487 0.0
C932 C 0.64662 0.18017 0.77527 0.0
C933 C 0.63566 0.19229 0.75762 0.0
C934 C 0.66398 0.16718 0.76913 0.0
C935 C 0.6767 0.1552 0.78721 0.0
C936 C 0.68344 0.16972 0.80653 0.0
C937 C 0.69518 0.15823 0.82368 0.0
C938 C 0.70039 0.13226 0.82163 0.0
C939 C 0.69391 0.11774 0.8024 0.0
C940 C 0.68215 0.12913 0.78521 0.0
C941 C 0.67029 0.1925 0.66389 0.0
C942 C 0.67177 0.16761 0.65417 0.0
C943 C 0.66672 0.19572 0.68799 0.0
C944 C 0.66435 0.17412 0.70266 0.0
C945 C 0.6668 0.1493 0.69318 0.0
C946 C 0.67048 0.14606 0.66912 0.0
C947 C 0.65822 0.17717 0.72758 0.0
C948 C 0.66949 0.16573 0.74533 0.0
C949 C 0.64111 0.19071 0.73381 0.0
C950 C 0.62807 0.20215 0.71581 0.0
C951 C 0.61987 0.18669 0.698 0.0
C952 C 0.60779 0.19769 0.68093 0.0
C953 C 0.60366 0.22409 0.68162 0.0
C954 C 0.61155 0.23952 0.69943 0.0
C955 C 0.62367 0.22863 0.71652 0.0
H956 H 0.5943 0.23257 0.66839 0.0
H957 H 0.70948 0.1234 0.83493 0.0
H958 H 0.33298 0.87163 0.16027 0.0
H959 H 0.34128 0.86891 0.20215 0.0
H960 H 0.34129 0.78577 0.19781 0.0
H961 H 0.33297 0.78833 0.15582 0.0
H962 H 0.32353 0.80449 0.23881 0.0
H963 H 0.38301 0.81529 0.19621 0.0
H964 H 0.40513 0.83583 0.16761 0.0
H965 H 0.40286 0.90663 0.20694 0.0
H966 H 0.38046 0.88664 0.23559 0.0
H967 H 0.3749 0.78455 0.3465 0.0
H968 H 0.36542 0.78388 0.30485 0.0
H969 H 0.36772 0.86709 0.30291 0.0
H970 H 0.37741 0.86788 0.34441 0.0
H971 H 0.38481 0.84619 0.26462 0.0
H972 H 0.3246 0.83565 0.30665 0.0
H973 H 0.3023 0.81515 0.33507 0.0
H974 H 0.30597 0.74372 0.29684 0.0
H975 H 0.32852 0.76371 0.26836 0.0
C976 C 0.33454 0.85276 0.16828 0.0
C977 C 0.33244 0.83019 0.15477 0.0
C978 C 0.33935 0.85124 0.19217 0.0
C979 C 0.34214 0.82715 0.20295 0.0
C980 C 0.33925 0.80454 0.18976 0.0
C981 C 0.33453 0.80604 0.16581 0.0
C982 C 0.34882 0.82568 0.22774 0.0
C983 C 0.33705 0.81327 0.24445 0.0
C984 C 0.36633 0.83749 0.23504 0.0
C985 C 0.37991 0.84953 0.21793 0.0
C986 C 0.3871 0.8353 0.19866 0.0
C987 C 0.39971 0.84683 0.18245 0.0
C988 C 0.40536 0.87253 0.18543 0.0
C989 C 0.39845 0.88674 0.20465 0.0
C990 C 0.38581 0.87531 0.22089 0.0
C991 C 0.37343 0.80268 0.33716 0.0
C992 C 0.37684 0.82628 0.34869 0.0
C993 C 0.36794 0.80228 0.31341 0.0
C994 C 0.36566 0.82545 0.30087 0.0
C995 C 0.36937 0.84899 0.31227 0.0
C996 C 0.37486 0.84941 0.33599 0.0
C997 C 0.35941 0.82528 0.27584 0.0
C998 C 0.3713 0.83733 0.25903 0.0
C999 C 0.34203 0.81312 0.26847 0.0
C1000 C 0.32841 0.8011 0.28552 0.0
C1001 C 0.32077 0.81551 0.30441 0.0
C1002 C 0.30807 0.80399 0.32051 0.0
C1003 C 0.30276 0.77813 0.3178 0.0
C1004 C 0.31011 0.76374 0.29894 0.0
C1005 C 0.32285 0.77516 0.2828 0.0
H1006 H 0.29292 0.76925 0.33029 0.0
H1007 H 0.41513 0.88143 0.17286 0.0
H1008 H 0.29727 0.23916 0.96079 0.0
H1009 H 0.26851 0.25828 0.97902 0.0
H1010 H 0.23269 0.19928 0.94745 0.0
H1011 H 0.26135 0.1806 0.92851 0.0
H1012 H 0.21444 0.24384 0.94611 0.0
H1013 H 0.2475 0.19544 0.00564 0.0
H1014 H 0.27534 0.18187 0.02997 0.0
H1015 H 0.2805 0.25868 0.05779 0.0
H1016 H 0.25284 0.27281 0.03336 0.0
H1017 H 0.13474 0.26405 0.02615 0.0
H1018 H 0.16163 0.24448 0.00407 0.0
H1019 H 0.19962 0.30571 0.02708 0.0
H1020 H 0.17297 0.32525 0.04913 0.0
H1021 H 0.21576 0.2578 0.03276 0.0
H1022 H 0.18218 0.30555 0.97189 0.0
H1023 H 0.15374 0.31754 0.94788 0.0
H1024 H 0.14866 0.23938 0.92338 0.0
H1025 H 0.17693 0.22684 0.94752 0.0
C1026 C 0.28324 0.23043 0.95756 0.0
C1027 C 0.28155 0.20831 0.94339 0.0
C1028 C 0.26683 0.24127 0.96808 0.0
C1029 C 0.2485 0.22987 0.96502 0.0
C1030 C 0.24669 0.20833 0.95014 0.0
C1031 C 0.26308 0.19767 0.93937 0.0
C1032 C 0.23135 0.23996 0.97791 0.0
C1033 C 0.21464 0.24657 0.9651 0.0
C1034 C 0.23164 0.2437 0.00267 0.0
C1035 C 0.24821 0.23523 0.01751 0.0
C1036 C 0.25465 0.20948 0.01682 0.0
C1037 C 0.27039 0.20168 0.03065 0.0
C1038 C 0.27971 0.21942 0.04538 0.0
C1039 C 0.27328 0.24497 0.04635 0.0
C1040 C 0.25756 0.25288 0.03254 0.0
C1041 C 0.14883 0.27332 0.02643 0.0
C1042 C 0.15178 0.29616 0.03935 0.0
C1043 C 0.16413 0.2622 0.01376 0.0
C1044 C 0.18257 0.27376 0.01387 0.0
C1045 C 0.1855 0.29649 0.0268 0.0
C1046 C 0.17025 0.30765 0.03934 0.0
C1047 C 0.19902 0.26203 0.00092 0.0
C1048 C 0.21558 0.255 0.01378 0.0
C1049 C 0.19847 0.25764 0.97629 0.0
C1050 C 0.18154 0.2652 0.9617 0.0
C1051 C 0.1749 0.29087 0.96154 0.0
C1052 C 0.15883 0.29778 0.94788 0.0
C1053 C 0.14937 0.27922 0.93417 0.0
C1054 C 0.15599 0.25373 0.93404 0.0
C1055 C 0.17204 0.24671 0.94769 0.0
H1056 H 0.13693 0.2846 0.9236 0.0
H1057 H 0.2919 0.21334 0.05606 0.0
H1058 H 0.82656 0.67416 0.5554 0.0
H1059 H 0.79998 0.69175 0.53197 0.0
H1060 H 0.83873 0.74869 0.50241 0.0
H1061 H 0.86534 0.73158 0.52646 0.0
H1062 H 0.80538 0.77017 0.51334 0.0
H1063 H 0.82428 0.6948 0.47059 0.0
H1064 H 0.8323 0.64883 0.46495 0.0
H1065 H 0.77475 0.62743 0.48645 0.0
H1066 H 0.76645 0.67327 0.49254 0.0
H1067 H 0.73941 0.80778 0.42372 0.0
H1068 H 0.76807 0.78892 0.44244 0.0
H1069 H 0.73149 0.73623 0.48115 0.0
H1070 H 0.70273 0.75497 0.46245 0.0
H1071 H 0.76492 0.71296 0.46315 0.0
H1072 H 0.74711 0.78897 0.50764 0.0
H1073 H 0.73943 0.83517 0.51241 0.0
H1074 H 0.79587 0.85545 0.48614 0.0
H1075 H 0.80378 0.80934 0.48088 0.0
C1076 C 0.82942 0.69044 0.54392 0.0
C1077 C 0.84802 0.70145 0.54265 0.0
C1078 C 0.81425 0.70038 0.53043 0.0
C1079 C 0.81745 0.72121 0.51507 0.0
C1080 C 0.83596 0.73252 0.51405 0.0
C1081 C 0.85113 0.72273 0.52777 0.0
C1082 C 0.80136 0.7314 0.50042 0.0
C1083 C 0.79676 0.75772 0.50206 0.0
C1084 C 0.78989 0.71508 0.48597 0.0
C1085 C 0.7948 0.68748 0.4822 0.0
C1086 C 0.81337 0.68029 0.47427 0.0
C1087 C 0.81796 0.65425 0.47097 0.0
C1088 C 0.80406 0.63522 0.47539 0.0
C1089 C 0.78551 0.64219 0.48306 0.0
C1090 C 0.78085 0.6682 0.48641 0.0
C1091 C 0.73749 0.79199 0.43602 0.0
C1092 C 0.71884 0.78293 0.44175 0.0
C1093 C 0.75385 0.78131 0.44674 0.0
C1094 C 0.75183 0.76142 0.46336 0.0
C1095 C 0.73331 0.75161 0.46839 0.0
C1096 C 0.71692 0.76237 0.45775 0.0
C1097 C 0.76895 0.75158 0.47628 0.0
C1098 C 0.77369 0.72536 0.47431 0.0
C1099 C 0.78064 0.768 0.49028 0.0
C1100 C 0.77596 0.79572 0.49363 0.0
C1101 C 0.75783 0.80329 0.5027 0.0
C1102 C 0.75344 0.82946 0.50553 0.0
C1103 C 0.76714 0.84824 0.49952 0.0
C1104 C 0.78527 0.84088 0.49075 0.0
C1105 C 0.78971 0.81473 0.48786 0.0
H1106 H 0.76372 0.86849 0.50172 0.0
H1107 H 0.80765 0.61507 0.47283 0.0
H1108 H 0.29468 0.7696 0.03546 0.0
H1109 H 0.26595 0.75175 0.01618 0.0
H1110 H 0.2295 0.80369 0.05595 0.0
H1111 H 0.2582 0.82127 0.07571 0.0
H1112 H 0.21295 0.75699 0.05252 0.0
H1113 H 0.24135 0.81753 -0.0006 0.0
H1114 H 0.26754 0.83779 0.97624 0.0
H1115 H 0.2755 0.76743 0.93732 0.0
H1116 H 0.24953 0.74661 0.96051 0.0
H1117 H 0.1321 0.73768 0.97384 0.0
H1118 H 0.15823 0.75879 0.99615 0.0
H1119 H 0.19975 0.70583 0.96611 0.0
H1120 H 0.17386 0.68467 0.94397 0.0
H1121 H 0.21203 0.75691 0.96492 0.0
H1122 H 0.18417 0.69627 0.0205 0.0
H1123 H 0.15751 0.67722 0.04375 0.0
H1124 H 0.14765 0.75016 0.07773 0.0
H1125 H 0.17409 0.76974 0.05442 0.0
C1126 C 0.28054 0.77703 0.04028 0.0
C1127 C 0.27868 0.79694 0.05695 0.0
C1128 C 0.26414 0.76691 0.02917 0.0
C1129 C 0.24562 0.77677 0.03429 0.0
C1130 C 0.24366 0.79591 0.05166 0.0
C1131 C 0.26006 0.80594 0.0629 0.0
C1132 C 0.22845 0.76761 0.02093 0.0
C1133 C 0.21261 0.75734 0.03338 0.0
C1134 C 0.22806 0.76795 0.99595 0.0
C1135 C 0.2436 0.78045 0.98184 0.0
C1136 C 0.24877 0.80632 0.98602 0.0
C1137 C 0.26357 0.81791 0.97287 0.0
C1138 C 0.27321 0.80389 0.95536 0.0
C1139 C 0.26803 0.77826 0.95091 0.0
C1140 C 0.25326 0.76656 0.96404 0.0
C1141 C 0.14682 0.73064 0.97198 0.0
C1142 C 0.15097 0.70952 0.95723 0.0
C1143 C 0.16169 0.74263 0.98476 0.0
C1144 C 0.18087 0.73374 0.98284 0.0
C1145 C 0.18504 0.71296 0.96781 0.0
C1146 C 0.17022 0.70086 0.95524 0.0
C1147 C 0.19676 0.74584 0.99649 0.0
C1148 C 0.21233 0.75676 0.98407 0.0
C1149 C 0.19679 0.74632 0.02146 0.0
C1150 C 0.18095 0.73454 0.03552 0.0
C1151 C 0.1762 0.7083 0.03278 0.0
C1152 C 0.16116 0.6974 0.04599 0.0
C1153 C 0.15085 0.71249 0.06215 0.0
C1154 C 0.15562 0.73851 0.06518 0.0
C1155 C 0.17064 0.74951 0.05198 0.0
H1156 H 0.13921 0.70401 0.07238 0.0
H1157 H 0.28466 0.8129 0.9452 0.0
H1158 H 0.70362 0.2316 0.54621 0.0
H1159 H 0.73156 0.25247 0.52761 0.0
H1160 H 0.76617 0.18447 0.54046 0.0
H1161 H 0.73849 0.16391 0.55983 0.0
H1162 H 0.787 0.22566 0.54864 0.0
H1163 H 0.74585 0.19749 0.48547 0.0
H1164 H 0.71527 0.19356 0.46317 0.0
H1165 H 0.71359 0.27578 0.45376 0.0
H1166 H 0.74404 0.28023 0.47628 0.0
H1167 H 0.8612 0.25653 0.46463 0.0
H1168 H 0.83457 0.23529 0.48579 0.0
H1169 H 0.80018 0.30459 0.4801 0.0
H1170 H 0.82657 0.32581 0.45887 0.0
H1171 H 0.77976 0.26168 0.46799 0.0
H1172 H 0.82157 0.28895 0.53162 0.0
H1173 H 0.85254 0.29166 0.55329 0.0
H1174 H 0.85347 0.20918 0.56067 0.0
H1175 H 0.82262 0.20595 0.53876 0.0
C1176 C 0.71723 0.22119 0.54517 0.0
C1177 C 0.71889 0.19611 0.55432 0.0
C1178 C 0.73315 0.23307 0.53445 0.0
C1179 C 0.75086 0.21984 0.53223 0.0
C1180 C 0.75264 0.19502 0.54191 0.0
C1181 C 0.73681 0.18328 0.55292 0.0
C1182 C 0.76742 0.23167 0.51949 0.0
C1183 C 0.78547 0.23323 0.53089 0.0
C1184 C 0.76538 0.24185 0.49643 0.0
C1185 C 0.74713 0.23921 0.48274 0.0
C1186 C 0.73889 0.21475 0.47878 0.0
C1187 C 0.72159 0.21242 0.46608 0.0
C1188 C 0.71247 0.23441 0.4571 0.0
C1189 C 0.72066 0.25877 0.46075 0.0
C1190 C 0.73795 0.2612 0.47346 0.0
C1191 C 0.84797 0.26721 0.46795 0.0
C1192 C 0.84594 0.2928 0.46013 0.0
C1193 C 0.83282 0.25511 0.4801 0.0
C1194 C 0.81548 0.26846 0.48463 0.0
C1195 C 0.81345 0.29397 0.47676 0.0
C1196 C 0.82855 0.30607 0.46469 0.0
C1197 C 0.79923 0.25582 0.49721 0.0
C1198 C 0.78125 0.25406 0.48573 0.0
C1199 C 0.8014 0.24526 0.52007 0.0
C1200 C 0.81989 0.2472 0.53335 0.0
C1201 C 0.82846 0.27138 0.5377 0.0
C1202 C 0.84597 0.27301 0.55006 0.0
C1203 C 0.85499 0.2506 0.5583 0.0
C1204 C 0.84648 0.22652 0.55425 0.0
C1205 C 0.82898 0.22478 0.54189 0.0
H1206 H 0.86855 0.2519 0.56786 0.0
H1207 H 0.69907 0.23257 0.44728 0.0
H1208 H 0.63886 0.76686 0.03399 0.0
H1209 H 0.66646 0.7471 0.01354 0.0
H1210 H 0.70249 0.81184 0.03286 0.0
H1211 H 0.67502 0.83161 0.05349 0.0
H1212 H 0.70581 0.79789 0.98524 0.0
H1213 H 0.70863 0.75837 0.06148 0.0
H1214 H 0.6959 0.73491 0.09603 0.0
H1215 H 0.68302 0.66939 0.0523 0.0
H1216 H 0.69541 0.69262 0.01739 0.0
H1217 H 0.79644 0.73932 0.95421 0.0
H1218 H 0.77011 0.76094 0.97561 0.0
H1219 H 0.73224 0.69651 0.96124 0.0
H1220 H 0.7584 0.67484 0.93993 0.0
H1221 H 0.7307 0.71135 0.00741 0.0
H1222 H 0.727 0.75119 0.93103 0.0
H1223 H 0.73947 0.77466 0.89634 0.0
H1224 H 0.75386 0.83952 0.94019 0.0
H1225 H 0.74171 0.81627 0.97523 0.0
C1226 C 0.65268 0.77683 0.03392 0.0
C1227 C 0.65483 0.80071 0.04537 0.0
C1228 C 0.66842 0.76552 0.02229 0.0
C1229 C 0.68651 0.77799 0.02182 0.0
C1230 C 0.68864 0.80194 0.03305 0.0
C1231 C 0.67297 0.81313 0.04489 0.0
C1232 C 0.70317 0.76605 0.00946 0.0
C1233 C 0.71147 0.77914 0.99028 0.0
C1234 C 0.71024 0.74139 0.01582 0.0
C1235 C 0.70277 0.72735 0.03677 0.0
C1236 C 0.70292 0.73905 0.05918 0.0
C1237 C 0.69579 0.72578 0.07884 0.0
C1238 C 0.6886 0.7007 0.07635 0.0
C1239 C 0.68856 0.68883 0.05419 0.0
C1240 C 0.69565 0.70204 0.03446 0.0
C1241 C 0.78247 0.72986 0.95554 0.0
C1242 C 0.77945 0.70544 0.94538 0.0
C1243 C 0.76745 0.74223 0.96771 0.0
C1244 C 0.74921 0.73035 0.9699 0.0
C1245 C 0.74621 0.70597 0.95977 0.0
C1246 C 0.76115 0.69368 0.94752 0.0
C1247 C 0.73327 0.74308 0.98303 0.0
C1248 C 0.7251 0.73014 0.0024 0.0
C1249 C 0.72632 0.76786 0.97682 0.0
C1250 C 0.73365 0.78187 0.95579 0.0
C1251 C 0.73299 0.77036 0.93331 0.0
C1252 C 0.73996 0.78364 0.91358 0.0
C1253 C 0.74751 0.80853 0.91607 0.0
C1254 C 0.74804 0.82022 0.9383 0.0
C1255 C 0.74111 0.807 0.9581 0.0
H1256 H 0.75289 0.81879 0.90077 0.0
H1257 H 0.6831 0.69045 0.09159 0.0
H1258 H 0.32141 0.18411 0.55969 0.0
H1259 H 0.29555 0.20439 0.53686 0.0
H1260 H 0.33751 0.25374 0.5028 0.0
H1261 H 0.36353 0.23372 0.52594 0.0
H1262 H 0.30467 0.27998 0.51478 0.0
H1263 H 0.32043 0.20159 0.47428 0.0
H1264 H 0.32645 0.15484 0.4706 0.0
H1265 H 0.26812 0.13899 0.49297 0.0
H1266 H 0.26183 0.18566 0.49713 0.0
H1267 H 0.24074 0.31983 0.42383 0.0
H1268 H 0.26842 0.30068 0.44434 0.0
H1269 H 0.22991 0.24819 0.48045 0.0
H1270 H 0.20217 0.26695 0.45965 0.0
H1271 H 0.26228 0.22405 0.46575 0.0
H1272 H 0.24697 0.30251 0.50758 0.0
H1273 H 0.24097 0.34929 0.5111 0.0
H1274 H 0.29855 0.36505 0.48593 0.0
H1275 H 0.3048 0.31835 0.48194 0.0
C1276 C 0.32513 0.19939 0.54745 0.0
C1277 C 0.34449 0.20723 0.54446 0.0
C1278 C 0.31035 0.21088 0.53435 0.0
C1279 C 0.31467 0.23024 0.51785 0.0
C1280 C 0.33391 0.23873 0.51538 0.0
C1281 C 0.34873 0.22727 0.52856 0.0
C1282 C 0.29908 0.24117 0.50293 0.0
C1283 C 0.29558 0.26783 0.50377 0.0
C1284 C 0.28704 0.22521 0.48889 0.0
C1285 C 0.29072 0.19712 0.48621 0.0
C1286 C 0.30893 0.18813 0.47858 0.0
C1287 C 0.31239 0.16164 0.47638 0.0
C1288 C 0.29769 0.14395 0.4816 0.0
C1289 C 0.27949 0.15272 0.48896 0.0
C1290 C 0.27597 0.17918 0.49122 0.0
C1291 C 0.23819 0.30408 0.43602 0.0
C1292 C 0.21931 0.29494 0.44026 0.0
C1293 C 0.254 0.29325 0.44779 0.0
C1294 C 0.25117 0.27331 0.46419 0.0
C1295 C 0.23239 0.26363 0.46792 0.0
C1296 C 0.21657 0.27437 0.45606 0.0
C1297 C 0.26772 0.26281 0.47781 0.0
C1298 C 0.27141 0.23622 0.47668 0.0
C1299 C 0.27994 0.27885 0.49156 0.0
C1300 C 0.27628 0.30693 0.49424 0.0
C1301 C 0.25831 0.31595 0.50264 0.0
C1302 C 0.25487 0.34245 0.50474 0.0
C1303 C 0.26935 0.36013 0.49868 0.0
C1304 C 0.28733 0.35134 0.49058 0.0
C1305 C 0.29084 0.32485 0.48842 0.0
H1306 H 0.26665 0.38064 0.50029 0.0
H1307 H 0.3004 0.12345 0.47989 0.0
H1308 H 0.79725 0.28063 0.02914 0.0
H1309 H 0.76938 0.26286 0.00786 0.0
H1310 H 0.73083 0.29311 0.06114 0.0
H1311 H 0.75863 0.31083 0.08257 0.0
H1312 H 0.72091 0.244 0.04769 0.0
H1313 H 0.73543 0.32473 0.01086 0.0
H1314 H 0.75625 0.35736 0.99181 0.0
H1315 H 0.7683 0.30475 0.93508 0.0
H1316 H 0.74777 0.27164 0.95399 0.0
H1317 H 0.63449 0.22985 0.98002 0.0
H1318 H 0.66093 0.24971 0.00256 0.0
H1319 H 0.70241 0.22097 0.9519 0.0
H1320 H 0.67612 0.20122 0.92928 0.0
H1321 H 0.7099 0.27107 0.96473 0.0
H1322 H 0.69601 0.18987 0.00286 0.0
H1323 H 0.67505 0.15766 0.02229 0.0
H1324 H 0.66142 0.21217 0.07696 0.0
H1325 H 0.68211 0.24484 0.05765 0.0
C1326 C 0.78286 0.28327 0.03643 0.0
C1327 C 0.78009 0.2972 0.05744 0.0
C1328 C 0.76695 0.27323 0.02421 0.0
C1329 C 0.74805 0.277 0.03279 0.0
C1330 C 0.74531 0.29008 0.05421 0.0
C1331 C 0.76119 0.30021 0.06639 0.0
C1332 C 0.73111 0.26781 0.0191 0.0
C1333 C 0.71833 0.25018 0.02967 0.0
C1334 C 0.72794 0.27568 0.9955 0.0
C1335 C 0.74021 0.2956 0.98397 0.0
C1336 C 0.74264 0.32004 0.99442 0.0
C1337 C 0.75437 0.33864 0.98363 0.0
C1338 C 0.76363 0.33311 0.96228 0.0
C1339 C 0.76114 0.30899 0.95164 0.0
C1340 C 0.74944 0.2903 0.96238 0.0
C1341 C 0.64924 0.22795 0.97362 0.0
C1342 C 0.65328 0.2139 0.95298 0.0
C1343 C 0.66431 0.23921 0.98653 0.0
C1344 C 0.68363 0.23656 0.97899 0.0
C1345 C 0.6876 0.22321 0.95801 0.0
C1346 C 0.67257 0.21187 0.94516 0.0
C1347 C 0.69981 0.24707 0.99325 0.0
C1348 C 0.71244 0.26498 0.98279 0.0
C1349 C 0.7028 0.23954 0.01698 0.0
C1350 C 0.69044 0.21988 0.02867 0.0
C1351 C 0.68842 0.19505 0.01892 0.0
C1352 C 0.67661 0.1767 0.02992 0.0
C1353 C 0.66687 0.18289 0.05081 0.0
C1354 C 0.66896 0.20742 0.06076 0.0
C1355 C 0.68073 0.22586 0.0498 0.0
H1356 H 0.65773 0.16866 0.05931 0.0
H1357 H 0.77271 0.34754 0.95395 0.0
H1358 H 0.20452 0.72256 0.53461 0.0
H1359 H 0.23273 0.74049 0.51417 0.0
H1360 H 0.27086 0.69882 0.56097 0.0
H1361 H 0.24267 0.68076 0.58155 0.0
H1362 H 0.28301 0.74951 0.55242 0.0
H1363 H 0.26333 0.67488 0.50856 0.0
H1364 H 0.2402 0.64672 0.48761 0.0
H1365 H 0.22883 0.70708 0.43758 0.0
H1366 H 0.25168 0.73577 0.45846 0.0
H1367 H 0.36701 0.76762 0.4805 0.0
H1368 H 0.34109 0.7469 0.50332 0.0
H1369 H 0.29826 0.78155 0.45773 0.0
H1370 H 0.324 0.80201 0.43479 0.0
H1371 H 0.28978 0.73178 0.46669 0.0
H1372 H 0.30797 0.80708 0.5114 0.0
H1373 H 0.3306 0.83586 0.5325 0.0
H1374 H 0.34445 0.77479 0.58088 0.0
H1375 H 0.3221 0.74553 0.55984 0.0
C1376 C 0.21891 0.7174 0.5407 0.0
C1377 C 0.22142 0.70016 0.55957 0.0
C1378 C 0.23499 0.72758 0.52896 0.0
C1379 C 0.25384 0.7207 0.5359 0.0
C1380 C 0.25641 0.70428 0.55533 0.0
C1381 C 0.24032 0.69396 0.56701 0.0
C1382 C 0.2708 0.73 0.52232 0.0
C1383 C 0.28469 0.74533 0.53375 0.0
C1384 C 0.27275 0.72482 0.49792 0.0
C1385 C 0.25909 0.70755 0.48521 0.0
C1386 C 0.25579 0.68223 0.4932 0.0
C1387 C 0.24274 0.66615 0.48132 0.0
C1388 C 0.23301 0.67513 0.46131 0.0
C1389 C 0.23635 0.70017 0.4531 0.0
C1390 C 0.24937 0.71634 0.46494 0.0
C1391 C 0.35206 0.77064 0.47528 0.0
C1392 C 0.3475 0.78648 0.45593 0.0
C1393 C 0.33729 0.75891 0.48838 0.0
C1394 C 0.31775 0.76294 0.48236 0.0
C1395 C 0.31323 0.77821 0.46268 0.0
C1396 C 0.32796 0.78993 0.44963 0.0
C1397 C 0.3019 0.75163 0.49668 0.0
C1398 C 0.2882 0.73585 0.48539 0.0
C1399 C 0.30012 0.75647 0.52119 0.0
C1400 C 0.31354 0.77404 0.53388 0.0
C1401 C 0.31597 0.79973 0.52641 0.0
C1402 C 0.32872 0.81613 0.53838 0.0
C1403 C 0.339 0.80713 0.55797 0.0
C1404 C 0.33651 0.78172 0.56567 0.0
C1405 C 0.32379 0.76522 0.55374 0.0
H1406 H 0.34886 0.81987 0.56723 0.0
H1407 H 0.22292 0.66265 0.45213 0.0
H1408 H 0.09714 0.57706 0.92193 0.0
H1409 H 0.09549 0.53493 0.94142 0.0
H1410 H 0.10758 0.57107 0.00844 0.0
H1411 H 0.10917 0.61327 0.9891 0.0
H1412 H 0.13038 0.52786 -0.00031 0.0
H1413 H 0.06308 0.55184 0.9974 0.0
H1414 H 0.03271 0.56617 0.97851 0.0
H1415 H 0.03303 0.49889 0.9342 0.0
H1416 H 0.06358 0.48435 0.9526 0.0
H1417 H 0.1094 0.42418 0.07589 0.0
H1418 H 0.10838 0.46597 0.05596 0.0
H1419 H 0.09331 0.42823 0.99058 0.0
H1420 H 0.0941 0.38627 0.01051 0.0
H1421 H 0.07193 0.4719 0.9977 0.0
H1422 H 0.1389 0.44775 -0.00064 0.0
H1423 H 0.16951 0.43316 0.01749 0.0
H1424 H 0.17026 0.50041 0.06181 0.0
H1425 H 0.13948 0.51522 0.04419 0.0
C1426 C 0.09938 0.57602 0.94083 0.0
C1427 C 0.10327 0.59841 0.95402 0.0
C1428 C 0.09837 0.55199 0.95193 0.0
C1429 C 0.10131 0.54997 0.97637 0.0
C1430 C 0.10525 0.57228 0.98956 0.0
C1431 C 0.1061 0.59634 0.97851 0.0
C1432 C 0.10074 0.52449 0.9881 0.0
C1433 C 0.11753 0.51576 -0.00045 0.0
C1434 C 0.08412 0.50848 0.98727 0.0
C1435 C 0.06573 0.51715 0.9762 0.0
C1436 C 0.05677 0.54022 0.98348 0.0
C1437 C 0.03951 0.54835 0.97289 0.0
C1438 C 0.03098 0.53349 0.95512 0.0
C1439 C 0.03967 0.51041 0.94794 0.0
C1440 C 0.05695 0.5022 0.95846 0.0
C1441 C 0.10578 0.42478 0.05729 0.0
C1442 C 0.10195 0.40197 0.0447 0.0
C1443 C 0.10527 0.44865 0.04592 0.0
C1444 C 0.10103 0.45013 0.02173 0.0
C1445 C 0.09667 0.42746 0.00925 0.0
C1446 C 0.09718 0.40354 0.02063 0.0
C1447 C 0.10154 0.47534 0.00945 0.0
C1448 C 0.08478 0.484 0.99784 0.0
C1449 C 0.11823 0.49127 0.01001 0.0
C1450 C 0.13678 0.48246 0.02062 0.0
C1451 C 0.1455 0.45932 0.01311 0.0
C1452 C 0.1629 0.45103 0.02327 0.0
C1453 C 0.17179 0.46582 0.04083 0.0
C1454 C 0.16333 0.48896 0.04823 0.0
C1455 C 0.14592 0.49732 0.03815 0.0
H1456 H 0.18527 0.45937 0.04867 0.0
H1457 H 0.0176 0.53981 0.94695 0.0
H1458 H 0.89492 0.57472 0.57792 0.0
H1459 H 0.89714 0.53332 0.55736 0.0
H1460 H 0.90811 0.57307 0.49178 0.0
H1461 H 0.90567 0.6146 0.5122 0.0
H1462 H 0.88086 0.53616 0.48672 0.0
H1463 H 0.94452 0.54199 0.52002 0.0
H1464 H 0.96861 0.5483 0.55167 0.0
H1465 H 0.94587 0.48264 0.58875 0.0
H1466 H 0.92145 0.47615 0.55748 0.0
H1467 H 0.90313 0.42265 0.42248 0.0
H1468 H 0.90613 0.46498 0.44126 0.0
H1469 H 0.8968 0.43009 0.50949 0.0
H1470 H 0.89425 0.38763 0.49086 0.0
H1471 H 0.92486 0.46549 0.51177 0.0
H1472 H 0.86007 0.46131 0.48 0.0
H1473 H 0.83556 0.45509 0.44881 0.0
H1474 H 0.86012 0.51784 0.4093 0.0
H1475 H 0.88495 0.5242 0.44013 0.0
C1476 C 0.89791 0.57463 0.55914 0.0
C1477 C 0.90013 0.59786 0.54664 0.0
C1478 C 0.89927 0.55097 0.54745 0.0
C1479 C 0.90298 0.55014 0.52309 0.0
C1480 C 0.90527 0.57332 0.51059 0.0
C1481 C 0.90392 0.59699 0.52228 0.0
C1482 C 0.90374 0.52508 0.51054 0.0
C1483 C 0.89071 0.52085 0.49192 0.0
C1484 C 0.9163 0.50495 0.51771 0.0
C1485 C 0.93104 0.50872 0.53649 0.0
C1486 C 0.94456 0.52901 0.53501 0.0
C1487 C 0.95829 0.5326 0.55287 0.0
C1488 C 0.95874 0.51592 0.57223 0.0
C1489 C 0.94549 0.49556 0.57375 0.0
C1490 C 0.93172 0.4919 0.55595 0.0
C1491 C 0.90181 0.424 0.44149 0.0
C1492 C 0.89833 0.4019 0.45522 0.0
C1493 C 0.90347 0.4482 0.45219 0.0
C1494 C 0.9014 0.45073 0.47674 0.0
C1495 C 0.89841 0.42857 0.49052 0.0
C1496 C 0.89689 0.40435 0.47985 0.0
C1497 C 0.90188 0.47652 0.48806 0.0
C1498 C 0.91511 0.48087 0.50646 0.0
C1499 C 0.88947 0.49676 0.48074 0.0
C1500 C 0.87449 0.49305 0.46225 0.0
C1501 C 0.86033 0.47365 0.46458 0.0
C1502 C 0.84637 0.47013 0.44698 0.0
C1503 C 0.84631 0.48601 0.42705 0.0
C1504 C 0.86019 0.50552 0.42472 0.0
C1505 C 0.87421 0.50911 0.44226 0.0
H1506 H 0.83549 0.48325 0.41345 0.0
H1507 H 0.96938 0.51873 0.58604 0.0
H1508 H 0.79868 0.42233 0.07401 0.0
H1509 H 0.79513 0.46232 0.0514 0.0
H1510 H 0.83843 0.4357 0.00198 0.0
H1511 H 0.84159 0.39548 0.02408 0.0
H1512 H 0.81885 0.49963 0.04241 0.0
H1513 H 0.82969 0.458 0.94747 0.0
H1514 H 0.82225 0.41801 0.92561 0.0
H1515 H 0.77571 0.40135 0.97366 0.0
H1516 H 0.78265 0.44144 0.99559 0.0
H1517 H 0.84705 0.5997 0.96701 0.0
H1518 H 0.84445 0.55899 0.98849 0.0
H1519 H 0.79072 0.54213 0.95246 0.0
H1520 H 0.79379 0.58238 0.9301 0.0
H1521 H 0.81017 0.5003 0.95547 0.0
H1522 H 0.79205 0.56451 0.01105 0.0
H1523 H 0.79486 0.60484 0.03393 0.0
H1524 H 0.84718 0.57699 0.06622 0.0
H1525 H 0.84483 0.53662 0.04328 0.0
C1526 C 0.80737 0.425 0.05826 0.0
C1527 C 0.82036 0.40579 0.05074 0.0
C1528 C 0.80535 0.44785 0.04538 0.0
C1529 C 0.81632 0.45189 0.02482 0.0
C1530 C 0.82948 0.43281 0.01749 0.0
C1531 C 0.83137 0.40988 0.03021 0.0
C1532 C 0.81449 0.47633 0.01136 0.0
C1533 C 0.81687 0.49978 0.02342 0.0
C1534 C 0.81132 0.47659 0.98666 0.0
C1535 C 0.80682 0.45265 0.9733 0.0
C1536 C 0.8178 0.44589 0.9533 0.0
C1537 C 0.81368 0.42318 0.94091 0.0
C1538 C 0.79856 0.40712 0.94829 0.0
C1539 C 0.78746 0.41377 0.96802 0.0
C1540 C 0.7915 0.43647 0.98044 0.0
C1541 C 0.83471 0.58727 0.96365 0.0
C1542 C 0.82056 0.59421 0.94701 0.0
C1543 C 0.83316 0.56407 0.97603 0.0
C1544 C 0.81716 0.5477 0.9725 0.0
C1545 C 0.80317 0.55445 0.95556 0.0
C1546 C 0.8049 0.57746 0.94284 0.0
C1547 C 0.81513 0.52357 0.98645 0.0
C1548 C 0.81201 0.50018 0.97448 0.0
C1549 C 0.81689 0.52341 0.01136 0.0
C1550 C 0.81833 0.54761 0.02531 0.0
C1551 C 0.80422 0.56705 0.02292 0.0
C1552 C 0.80572 0.58991 0.03591 0.0
C1553 C 0.82121 0.5935 0.05148 0.0
C1554 C 0.8352 0.57419 0.05414 0.0
C1555 C 0.83377 0.5513 0.04117 0.0
H1556 H 0.82235 0.61121 0.06152 0.0
H1557 H 0.79541 0.38953 0.93869 0.0
H1558 H 0.18714 0.42492 0.42079 0.0
H1559 H 0.1888 0.4649 0.4438 0.0
H1560 H 0.16417 0.42552 0.50386 0.0
H1561 H 0.16229 0.38563 0.48092 0.0
H1562 H 0.14714 0.47139 0.49725 0.0
H1563 H 0.21188 0.43939 0.50246 0.0
H1564 H 0.24304 0.42251 0.48765 0.0
H1565 H 0.25262 0.49283 0.44926 0.0
H1566 H 0.22135 0.51 0.46357 0.0
H1567 H 0.16974 0.56771 0.58293 0.0
H1568 H 0.17035 0.52668 0.56133 0.0
H1569 H 0.18696 0.5669 0.49781 0.0
H1570 H 0.18611 0.608 0.51918 0.0
H1571 H 0.20855 0.5203 0.50714 0.0
H1572 H 0.14259 0.55116 0.50208 0.0
H1573 H 0.11168 0.56727 0.51832 0.0
H1574 H 0.10501 0.49754 0.55847 0.0
H1575 H 0.13606 0.48117 0.54273 0.0
C1576 C 0.18209 0.42481 0.4389 0.0
C1577 C 0.17461 0.40217 0.44908 0.0
C1578 C 0.18313 0.44761 0.45206 0.0
C1579 C 0.17678 0.4481 0.47562 0.0
C1580 C 0.16916 0.42555 0.48573 0.0
C1581 C 0.16814 0.40277 0.47261 0.0
C1582 C 0.17779 0.47222 0.48965 0.0
C1583 C 0.16063 0.48187 0.49968 0.0
C1584 C 0.19533 0.48609 0.49253 0.0
C1585 C 0.21417 0.47588 0.4839 0.0
C1586 C 0.22055 0.45117 0.4907 0.0
C1587 C 0.23824 0.44157 0.48242 0.0
C1588 C 0.24977 0.45656 0.46747 0.0
C1589 C 0.24365 0.48123 0.46081 0.0
C1590 C 0.22595 0.49091 0.46902 0.0
C1591 C 0.17362 0.56776 0.5644 0.0
C1592 C 0.17777 0.59101 0.55267 0.0
C1593 C 0.17394 0.54436 0.5521 0.0
C1594 C 0.17862 0.54386 0.52799 0.0
C1595 C 0.18333 0.56694 0.51643 0.0
C1596 C 0.18275 0.59037 0.52862 0.0
C1597 C 0.17792 0.51936 0.5146 0.0
C1598 C 0.19511 0.5097 0.50471 0.0
C1599 C 0.16046 0.50532 0.51203 0.0
C1600 C 0.14175 0.51507 0.52143 0.0
C1601 C 0.13462 0.53936 0.51454 0.0
C1602 C 0.11706 0.54852 0.52362 0.0
C1603 C 0.10641 0.53347 0.53947 0.0
C1604 C 0.11329 0.50919 0.54622 0.0
C1605 C 0.13086 0.49996 0.53722 0.0
H1606 H 0.09281 0.54059 0.54648 0.0
H1607 H 0.26348 0.4491 0.46109 0.0
H1608 H 0.62155 0.08166 0.92085 0.0
H1609 H 0.62194 0.03966 0.94051 0.0
H1610 H 0.60728 0.07624 0.00659 0.0
H1611 H 0.60702 0.11842 0.98705 0.0
H1612 H 0.6359 0.03968 0.0115 0.0
H1613 H 0.57279 0.04611 0.97541 0.0
H1614 H 0.55004 0.05308 0.94244 0.0
H1615 H 0.57492 0.98894 0.90514 0.0
H1616 H 0.59802 0.98181 0.93776 0.0
H1617 H 0.60652 0.92968 0.07569 0.0
H1618 H 0.60789 0.97138 0.05569 0.0
H1619 H 0.61677 0.93275 0.98902 0.0
H1620 H 0.61473 0.89087 0.0089 0.0
H1621 H 0.59177 0.97029 0.98381 0.0
H1622 H 0.65453 0.96301 0.01947 0.0
H1623 H 0.67781 0.95589 0.05187 0.0
H1624 H 0.65458 0.02113 0.08914 0.0
H1625 H 0.63098 0.02845 0.0571 0.0
C1626 C 0.61849 0.08077 0.93959 0.0
C1627 C 0.61416 0.10327 0.95242 0.0
C1628 C 0.61866 0.05677 0.95077 0.0
C1629 C 0.6144 0.05485 0.97492 0.0
C1630 C 0.61056 0.07735 0.98791 0.0
C1631 C 0.61037 0.10138 0.97673 0.0
C1632 C 0.61367 0.02929 0.98656 0.0
C1633 C 0.6261 0.02458 0.00566 0.0
C1634 C 0.60123 0.00944 0.97848 0.0
C1635 C 0.58726 0.01359 0.95893 0.0
C1636 C 0.57351 0.03361 0.9601 0.0
C1637 C 0.56053 0.03757 0.94149 0.0
C1638 C 0.56107 0.0215 0.92168 0.0
C1639 C 0.57454 0.00139 0.92048 0.0
C1640 C 0.58757 0.99737 0.93903 0.0
C1641 C 0.60879 0.93008 0.05677 0.0
C1642 C 0.61061 0.90707 0.04384 0.0
C1643 C 0.60968 0.95393 0.04538 0.0
C1644 C 0.61279 0.95522 0.02091 0.0
C1645 C 0.61442 0.93222 0.00793 0.0
C1646 C 0.6133 0.90832 0.01929 0.0
C1647 C 0.61401 0.98058 0.00884 0.0
C1648 C 0.60164 0.9853 0.98964 0.0
C1649 C 0.62661 0.00038 0.01675 0.0
C1650 C 0.64088 0.99614 0.03597 0.0
C1651 C 0.6543 0.97574 0.03465 0.0
C1652 C 0.66757 0.97168 0.05294 0.0
C1653 C 0.66764 0.98801 0.07258 0.0
C1654 C 0.65449 0.00848 0.07393 0.0
C1655 C 0.64118 0.01261 0.0557 0.0
H1656 H 0.67792 0.98483 0.08672 0.0
H1657 H 0.55101 0.0246 0.90729 0.0
H1658 H 0.36641 0.89316 0.47498 0.0
H1659 H 0.36518 0.93652 0.49182 0.0
H1660 H 0.40329 0.96414 0.43689 0.0
H1661 H 0.40487 0.92057 0.42016 0.0
H1662 H 0.41476 0.9811 0.47903 0.0
H1663 H 0.35495 0.97915 0.43662 0.0
H1664 H 0.32332 0.96168 0.42406 0.0
H1665 H 0.30237 0.96626 0.49533 0.0
H1666 H 0.33398 0.98342 0.50839 0.0
H1667 H 0.40194 0.1131 0.50975 0.0
H1668 H 0.40113 0.07261 0.48751 0.0
H1669 H 0.36627 0.03778 0.54216 0.0
H1670 H 0.36692 0.07827 0.56446 0.0
H1671 H 0.35303 0.0261 0.49753 0.0
H1672 H 0.41371 0.02564 0.5399 0.0
H1673 H 0.44537 0.04331 0.55218 0.0
H1674 H 0.46457 0.04357 0.48006 0.0
H1675 H 0.4329 0.02624 0.46731 0.0
C1676 C 0.37444 0.90849 0.4664 0.0
C1677 C 0.38572 0.90351 0.44625 0.0
C1678 C 0.37364 0.93329 0.47598 0.0
C1679 C 0.38396 0.95363 0.46545 0.0
C1680 C 0.39518 0.94873 0.44525 0.0
C1681 C 0.39603 0.92387 0.43569 0.0
C1682 C 0.38359 0.97976 0.47612 0.0
C1683 C 0.40127 0.99115 0.48267 0.0
C1684 C 0.36597 0.99263 0.48131 0.0
C1685 C 0.34691 0.98237 0.47351 0.0
C1686 C 0.34365 0.97624 0.44965 0.0
C1687 C 0.32571 0.96643 0.44243 0.0
C1688 C 0.31085 0.9628 0.45889 0.0
C1689 C 0.31389 0.96905 0.4826 0.0
C1690 C 0.33182 0.97885 0.48992 0.0
C1691 C 0.39403 0.09685 0.51697 0.0
C1692 C 0.38457 0.09876 0.53889 0.0
C1693 C 0.39363 0.07374 0.50428 0.0
C1694 C 0.3838 0.05217 0.51332 0.0
C1695 C 0.37394 0.05423 0.53491 0.0
C1696 C 0.37438 0.07731 0.54765 0.0
C1697 C 0.38415 0.02723 0.50056 0.0
C1698 C 0.36649 0.0161 0.49366 0.0
C1699 C 0.40178 0.01462 0.49498 0.0
C1700 C 0.42086 0.02491 0.50263 0.0
C1701 C 0.42462 0.02967 0.52664 0.0
C1702 C 0.44258 0.03959 0.53369 0.0
C1703 C 0.45695 0.04463 0.5169 0.0
C1704 C 0.45341 0.0397 0.49304 0.0
C1705 C 0.43547 0.02981 0.48589 0.0
H1706 H 0.47084 0.05231 0.5224 0.0
H1707 H 0.29698 0.95521 0.45327 0.0
H1708 H 0.31941 0.92863 0.07624 0.0
H1709 H 0.31605 0.96915 0.05461 0.0
H1710 H 0.31138 0.92683 0.9892 0.0
H1711 H 0.31537 0.88624 0.01073 0.0
H1712 H 0.3354 0.96503 0.98386 0.0
H1713 H 0.27148 0.95728 0.01552 0.0
H1714 H 0.24665 0.95075 0.0463 0.0
H1715 H 0.2666 0.01846 0.0827 0.0
H1716 H 0.29173 0.0252 0.0523 0.0
H1717 H 0.3127 0.07814 0.91842 0.0
H1718 H 0.30874 0.03581 0.93708 0.0
H1719 H 0.31927 0.06997 0.00535 0.0
H1720 H 0.32306 0.1123 0.98688 0.0
H1721 H 0.28969 0.03469 0.00672 0.0
H1722 H 0.35529 0.03962 0.97639 0.0
H1723 H 0.37993 0.04595 0.94534 0.0
H1724 H 0.35592 0.9828 0.90584 0.0
H1725 H 0.33096 0.97633 0.93653 0.0
C1726 C 0.31751 0.92796 0.05727 0.0
C1727 C 0.31766 0.90431 0.04516 0.0
C1728 C 0.31548 0.95113 0.04493 0.0
C1729 C 0.31318 0.95105 0.02028 0.0
C1730 C 0.31309 0.92738 0.0082 0.0
C1731 C 0.31535 0.90421 0.02052 0.0
C1732 C 0.31191 0.97572 0.00704 0.0
C1733 C 0.32513 0.98004 0.98858 0.0
C1734 C 0.29876 0.99554 0.01343 0.0
C1735 C 0.28359 0.99163 0.0317 0.0
C1736 C 0.27066 0.97068 0.03017 0.0
C1737 C 0.25652 0.96695 0.04754 0.0
C1738 C 0.25508 0.98415 0.06647 0.0
C1739 C 0.26774 0.00514 0.06803 0.0
C1740 C 0.28192 0.00894 0.05072 0.0
C1741 C 0.314 0.07664 0.93743 0.0
C1742 C 0.31832 0.09847 0.9512 0.0
C1743 C 0.31178 0.05246 0.94804 0.0
C1744 C 0.31392 0.04973 0.97256 0.0
C1745 C 0.31756 0.07166 0.9864 0.0
C1746 C 0.3198 0.09581 0.97581 0.0
C1747 C 0.31327 0.02392 0.98379 0.0
C1748 C 0.29975 0.01947 0.00187 0.0
C1749 C 0.32606 0.00391 0.97699 0.0
C1750 C 0.34114 0.00768 0.95862 0.0
C1751 C 0.35518 0.02722 0.961 0.0
C1752 C 0.36922 0.03081 0.94348 0.0
C1753 C 0.36946 0.01484 0.9236 0.0
C1754 C 0.3557 0.99519 0.92123 0.0
C1755 C 0.34161 0.99154 0.93868 0.0
H1756 H 0.38034 0.01764 0.91005 0.0
H1757 H 0.24412 0.98123 0.0799 0.0
H1758 H 0.68325 0.06512 0.5745 0.0
H1759 H 0.68562 0.02457 0.55261 0.0
H1760 H 0.67247 0.06479 0.48788 0.0
H1761 H 0.66968 0.10535 0.50977 0.0
H1762 H 0.65204 0.02153 0.49085 0.0
H1763 H 0.71877 0.04453 0.5004 0.0
H1764 H 0.74818 0.05759 0.5221 0.0
H1765 H 0.74562 0.98791 0.56302 0.0
H1766 H 0.71602 0.97459 0.54178 0.0
H1767 H 0.67596 0.91626 0.41609 0.0
H1768 H 0.67763 0.95863 0.43515 0.0
H1769 H 0.68537 0.92186 0.5028 0.0
H1770 H 0.68375 0.87944 0.48387 0.0
H1771 H 0.70955 0.96423 0.49653 0.0
H1772 H 0.64185 0.94263 0.48793 0.0
H1773 H 0.6127 0.92954 0.46569 0.0
H1774 H 0.61761 0.99714 0.42225 0.0
H1775 H 0.64697 0.01043 0.44402 0.0
C1776 C 0.68092 0.06533 0.55559 0.0
C1777 C 0.67631 0.08838 0.54382 0.0
C1778 C 0.68238 0.04217 0.54309 0.0
C1779 C 0.67947 0.0417 0.51855 0.0
C1780 C 0.67481 0.06472 0.50679 0.0
C1781 C 0.67327 0.08787 0.5193 0.0
C1782 C 0.68078 0.01707 0.5053 0.0
C1783 C 0.66476 0.00923 0.49178 0.0
C1784 C 0.69722 0.00077 0.50687 0.0
C1785 C 0.71507 0.00867 0.51963 0.0
C1786 C 0.72439 0.03208 0.51415 0.0
C1787 C 0.74111 0.03951 0.52635 0.0
C1788 C 0.74873 0.02362 0.54397 0.0
C1789 C 0.73968 0.00022 0.54938 0.0
C1790 C 0.72294 0.9927 0.53725 0.0
C1791 C 0.6782 0.91722 0.43499 0.0
C1792 C 0.6796 0.89458 0.44854 0.0
C1793 C 0.67909 0.9414 0.44585 0.0
C1794 C 0.68142 0.94331 0.4704 0.0
C1795 C 0.68354 0.92076 0.48383 0.0
C1796 C 0.68255 0.89657 0.47301 0.0
C1797 C 0.68082 0.96876 0.48225 0.0
C1798 C 0.69693 0.9767 0.4955 0.0
C1799 C 0.6645 0.9852 0.48038 0.0
C1800 C 0.64673 0.97738 0.46744 0.0
C1801 C 0.6368 0.9546 0.47351 0.0
C1802 C 0.62023 0.94716 0.46101 0.0
C1803 C 0.61334 0.96246 0.44252 0.0
C1804 C 0.62298 0.98528 0.43655 0.0
C1805 C 0.63958 0.99279 0.44897 0.0
H1806 H 0.60051 0.95665 0.43286 0.0
H1807 H 0.76168 0.02941 0.55339 0.0
loop_
_geom_bond_atom_site_label_1
_geom_bond_atom_site_label_2
_geom_bond_distance
_geom_bond_site_symmetry_2
_ccdc_geom_bond_type
In0 O1 2.294 . S
In0 O2 2.326 . S
In0 O6 2.266 . S
In0 O7 2.326 . S
In0 O8 2.266 . S
In0 O9 2.326 . S
In0 O11 2.294 . S
In0 O12 2.326 . S
O1 In0 2.294 . S
O1 C10 1.240 . S
O2 In0 2.326 . S
O2 C10 1.252 . S
C3 O6 1.252 . S
C3 O7 1.260 . S
C4 O11 1.240 . S
C4 O12 1.252 . S
C5 O8 1.252 . S
C5 O9 1.260 . S
O6 In0 2.266 . S
O6 C3 1.252 . S
O7 In0 2.326 . S
O7 C3 1.260 . S
O8 In0 2.266 . S
O8 C5 1.252 . S
O9 In0 2.326 . S
O9 C5 1.260 . S
C10 O1 1.240 . S
C10 O2 1.252 . S
O11 In0 2.294 . S
O11 C4 1.240 . S
O12 In0 2.326 . S
O12 C4 1.252 . S
In13 O14 2.294 . S
In13 O15 2.326 . S
In13 O19 2.266 . S
In13 O20 2.326 . S
In13 O21 2.266 . S
In13 O22 2.326 . S
In13 O24 2.294 . S
In13 O25 2.326 . S
O14 In13 2.294 . S
O14 C23 1.240 . S
O15 In13 2.326 . S
O15 C23 1.252 . S
C16 O19 1.252 . S
C16 O20 1.260 . S
C17 O24 1.240 . S
C17 O25 1.252 . S
C18 O21 1.252 . S
C18 O22 1.260 . S
O19 In13 2.266 . S
O19 C16 1.252 . S
O20 In13 2.326 . S
O20 C16 1.260 . S
O21 In13 2.266 . S
O21 C18 1.252 . S
O22 In13 2.326 . S
O22 C18 1.260 . S
C23 O14 1.240 . S
C23 O15 1.252 . S
O24 In13 2.294 . S
O24 C17 1.240 . S
O25 In13 2.326 . S
O25 C17 1.252 . S
In26 O27 2.294 . S
In26 O28 2.326 . S
In26 O32 2.266 . S
In26 O33 2.326 . S
In26 O34 2.266 . S
In26 O35 2.326 . S
In26 O37 2.294 . S
In26 O38 2.326 . S
O27 In26 2.294 . S
O27 C36 1.240 . S
O28 In26 2.326 . S
O28 C36 1.252 . S
C29 O32 1.252 . S
C29 O33 1.260 . S
C30 O37 1.240 . S
C30 O38 1.252 . S
C31 O34 1.252 . S
C31 O35 1.260 . S
O32 In26 2.266 . S
O32 C29 1.252 . S
O33 In26 2.326 . S
O33 C29 1.260 . S
O34 In26 2.266 . S
O34 C31 1.252 . S
O35 In26 2.326 . S
O35 C31 1.260 . S
C36 O27 1.240 . S
C36 O28 1.252 . S
O37 In26 2.294 . S
O37 C30 1.240 . S
O38 In26 2.326 . S
O38 C30 1.252 . S
In39 O40 2.294 . S
In39 O41 2.326 . S
In39 O45 2.266 . S
In39 O46 2.326 . S
In39 O47 2.266 . S
In39 O48 2.326 . S
In39 O50 2.294 . S
In39 O51 2.326 . S
O40 In39 2.294 . S
O40 C49 1.240 . S
O41 In39 2.326 . S
O41 C49 1.252 . S
C42 O45 1.252 . S
C42 O46 1.260 . S
C43 O50 1.240 . S
C43 O51 1.252 . S
C44 O47 1.252 . S
C44 O48 1.260 . S
O45 In39 2.266 . S
O45 C42 1.252 . S
O46 In39 2.326 . S
O46 C42 1.260 . S
O47 In39 2.266 . S
O47 C44 1.252 . S
O48 In39 2.326 . S
O48 C44 1.260 . S
C49 O40 1.240 . S
C49 O41 1.252 . S
O50 In39 2.294 . S
O50 C43 1.240 . S
O51 In39 2.326 . S
O51 C43 1.252 . S
In52 O53 2.294 . S
In52 O54 2.326 . S
In52 O58 2.266 . S
In52 O59 2.326 . S
In52 O60 2.266 . S
In52 O61 2.326 . S
In52 O63 2.294 . S
In52 O64 2.326 . S
O53 In52 2.294 . S
O53 C62 1.240 . S
O54 In52 2.326 . S
O54 C62 1.252 . S
C55 O58 1.252 . S
C55 O59 1.260 . S
C56 O63 1.240 . S
C56 O64 1.252 . S
C57 O60 1.252 . S
C57 O61 1.260 . S
O58 In52 2.266 . S
O58 C55 1.252 . S
O59 In52 2.326 . S
O59 C55 1.260 . S
O60 In52 2.266 . S
O60 C57 1.252 . S
O61 In52 2.326 . S
O61 C57 1.260 . S
C62 O53 1.240 . S
C62 O54 1.252 . S
O63 In52 2.294 . S
O63 C56 1.240 . S
O64 In52 2.326 . S
O64 C56 1.252 . S
In65 O66 2.294 . S
In65 O67 2.326 . S
In65 O71 2.266 . S
In65 O72 2.326 . S
In65 O73 2.266 . S
In65 O74 2.326 . S
In65 O76 2.294 . S
In65 O77 2.326 . S
O66 In65 2.294 . S
O66 C75 1.240 . S
O67 In65 2.326 . S
O67 C75 1.252 . S
C68 O71 1.252 . S
C68 O72 1.260 . S
C69 O76 1.240 . S
C69 O77 1.252 . S
C70 O73 1.252 . S
C70 O74 1.260 . S
O71 In65 2.266 . S
O71 C68 1.252 . S
O72 In65 2.326 . S
O72 C68 1.260 . S
O73 In65 2.266 . S
O73 C70 1.252 . S
O74 In65 2.326 . S
O74 C70 1.260 . S
C75 O66 1.240 . S
C75 O67 1.252 . S
O76 In65 2.294 . S
O76 C69 1.240 . S
O77 In65 2.326 . S
O77 C69 1.252 . S
In78 O79 2.294 . S
In78 O80 2.326 . S
In78 O84 2.266 . S
In78 O85 2.326 . S
In78 O86 2.266 . S
In78 O87 2.326 . S
In78 O89 2.294 . S
In78 O90 2.326 . S
O79 In78 2.294 . S
O79 C88 1.240 . S
O80 In78 2.326 . S
O80 C88 1.252 . S
C81 O84 1.252 . S
C81 O85 1.260 . S
C82 O89 1.240 . S
C82 O90 1.252 . S
C83 O86 1.252 . S
C83 O87 1.260 . S
O84 In78 2.266 . S
O84 C81 1.252 . S
O85 In78 2.326 . S
O85 C81 1.260 . S
O86 In78 2.266 . S
O86 C83 1.252 . S
O87 In78 2.326 . S
O87 C83 1.260 . S
C88 O79 1.240 . S
C88 O80 1.252 . S
O89 In78 2.294 . S
O89 C82 1.240 . S
O90 In78 2.326 . S
O90 C82 1.252 . S
In91 O92 2.294 . S
In91 O93 2.326 . S
In91 O97 2.266 . S
In91 O98 2.326 . S
In91 O99 2.266 . S
In91 O100 2.326 . S
In91 O102 2.294 . S
In91 O103 2.326 . S
O92 In91 2.294 . S
O92 C101 1.240 . S
O93 In91 2.326 . S
O93 C101 1.252 . S
C94 O97 1.252 . S
C94 O98 1.260 . S
C95 O102 1.240 . S
C95 O103 1.252 . S
C96 O99 1.252 . S
C96 O100 1.260 . S
O97 In91 2.266 . S
O97 C94 1.252 . S
O98 In91 2.326 . S
O98 C94 1.260 . S
O99 In91 2.266 . S
O99 C96 1.252 . S
O100 In91 2.326 . S
O100 C96 1.260 . S
C101 O92 1.240 . S
C101 O93 1.252 . S
O102 In91 2.294 . S
O102 C95 1.240 . S
O103 In91 2.326 . S
O103 C95 1.252 . S
In104 O105 2.294 . S
In104 O106 2.326 . S
In104 O110 2.266 . S
In104 O111 2.326 . S
In104 O112 2.266 . S
In104 O113 2.326 . S
In104 O115 2.294 . S
In104 O116 2.326 . S
O105 In104 2.294 . S
O105 C114 1.240 . S
O106 In104 2.326 . S
O106 C114 1.252 . S
C107 O110 1.252 . S
C107 O111 1.260 . S
C108 O115 1.240 . S
C108 O116 1.252 . S
C109 O112 1.252 . S
C109 O113 1.260 . S
O110 In104 2.266 . S
O110 C107 1.252 . S
O111 In104 2.326 . S
O111 C107 1.260 . S
O112 In104 2.266 . S
O112 C109 1.252 . S
O113 In104 2.326 . S
O113 C109 1.260 . S
C114 O105 1.240 . S
C114 O106 1.252 . S
O115 In104 2.294 . S
O115 C108 1.240 . S
O116 In104 2.326 . S
O116 C108 1.252 . S
In117 O118 2.294 . S
In117 O119 2.326 . S
In117 O123 2.266 . S
In117 O124 2.326 . S
In117 O125 2.266 . S
In117 O126 2.326 . S
In117 O128 2.294 . S
In117 O129 2.326 . S
O118 In117 2.294 . S
O118 C127 1.240 . S
O119 In117 2.326 . S
O119 C127 1.252 . S
C120 O123 1.252 . S
C120 O124 1.260 . S
C121 O128 1.240 . S
C121 O129 1.252 . S
C122 O125 1.252 . S
C122 O126 1.260 . S
O123 In117 2.266 . S
O123 C120 1.252 . S
O124 In117 2.326 . S
O124 C120 1.260 . S
O125 In117 2.266 . S
O125 C122 1.252 . S
O126 In117 2.326 . S
O126 C122 1.260 . S
C127 O118 1.240 . S
C127 O119 1.252 . S
O128 In117 2.294 . S
O128 C121 1.240 . S
O129 In117 2.326 . S
O129 C121 1.252 . S
In130 O131 2.294 . S
In130 O132 2.326 . S
In130 O136 2.266 . S
In130 O137 2.326 . S
In130 O138 2.266 . S
In130 O139 2.326 . S
In130 O141 2.294 . S
In130 O142 2.326 . S
O131 In130 2.294 . S
O131 C140 1.240 . S
O132 In130 2.326 . S
O132 C140 1.252 . S
C133 O136 1.252 . S
C133 O137 1.260 . S
C134 O141 1.240 . S
C134 O142 1.252 . S
C135 O138 1.252 . S
C135 O139 1.260 . S
O136 In130 2.266 . S
O136 C133 1.252 . S
O137 In130 2.326 . S
O137 C133 1.260 . S
O138 In130 2.266 . S
O138 C135 1.252 . S
O139 In130 2.326 . S
O139 C135 1.260 . S
C140 O131 1.240 . S
C140 O132 1.252 . S
O141 In130 2.294 . S
O141 C134 1.240 . S
O142 In130 2.326 . S
O142 C134 1.252 . S
In143 O144 2.294 . S
In143 O145 2.326 . S
In143 O149 2.266 . S
In143 O150 2.326 . S
In143 O151 2.266 . S
In143 O152 2.326 . S
In143 O154 2.294 . S
In143 O155 2.326 . S
O144 In143 2.294 . S
O144 C153 1.240 . S
O145 In143 2.326 . S
O145 C153 1.252 . S
C146 O149 1.252 . S
C146 O150 1.260 . S
C147 O154 1.240 . S
C147 O155 1.252 . S
C148 O151 1.252 . S
C148 O152 1.260 . S
O149 In143 2.266 . S
O149 C146 1.252 . S
O150 In143 2.326 . S
O150 C146 1.260 . S
O151 In143 2.266 . S
O151 C148 1.252 . S
O152 In143 2.326 . S
O152 C148 1.260 . S
C153 O144 1.240 . S
C153 O145 1.252 . S
O154 In143 2.294 . S
O154 C147 1.240 . S
O155 In143 2.326 . S
O155 C147 1.252 . S
In156 O157 2.294 . S
In156 O158 2.326 . S
In156 O162 2.266 . S
In156 O163 2.326 . S
In156 O164 2.266 . S
In156 O165 2.326 . S
In156 O167 2.294 . S
In156 O168 2.326 . S
O157 In156 2.294 . S
O157 C166 1.240 . S
O158 In156 2.326 . S
O158 C166 1.252 . S
C159 O162 1.252 . S
C159 O163 1.260 . S
C160 O167 1.240 . S
C160 O168 1.252 . S
C161 O164 1.252 . S
C161 O165 1.260 . S
O162 In156 2.266 . S
O162 C159 1.252 . S
O163 In156 2.326 . S
O163 C159 1.260 . S
O164 In156 2.266 . S
O164 C161 1.252 . S
O165 In156 2.326 . S
O165 C161 1.260 . S
C166 O157 1.240 . S
C166 O158 1.252 . S
O167 In156 2.294 . S
O167 C160 1.240 . S
O168 In156 2.326 . S
O168 C160 1.252 . S
In169 O170 2.294 . S
In169 O171 2.326 . S
In169 O175 2.266 . S
In169 O176 2.326 . S
In169 O177 2.266 . S
In169 O178 2.326 . S
In169 O180 2.294 . S
In169 O181 2.326 . S
O170 In169 2.294 . S
O170 C179 1.240 . S
O171 In169 2.326 . S
O171 C179 1.252 . S
C172 O175 1.252 . S
C172 O176 1.260 . S
C173 O180 1.240 . S
C173 O181 1.252 . S
C174 O177 1.252 . S
C174 O178 1.260 . S
O175 In169 2.266 . S
O175 C172 1.252 . S
O176 In169 2.326 . S
O176 C172 1.260 . S
O177 In169 2.266 . S
O177 C174 1.252 . S
O178 In169 2.326 . S
O178 C174 1.260 . S
C179 O170 1.240 . S
C179 O171 1.252 . S
O180 In169 2.294 . S
O180 C173 1.240 . S
O181 In169 2.326 . S
O181 C173 1.252 . S
In182 O183 2.294 . S
In182 O184 2.326 . S
In182 O188 2.266 . S
In182 O189 2.326 . S
In182 O190 2.266 . S
In182 O191 2.326 . S
In182 O193 2.294 . S
In182 O194 2.326 . S
O183 In182 2.294 . S
O183 C192 1.240 . S
O184 In182 2.326 . S
O184 C192 1.252 . S
C185 O188 1.252 . S
C185 O189 1.260 . S
C186 O193 1.240 . S
C186 O194 1.252 . S
C187 O190 1.252 . S
C187 O191 1.260 . S
O188 In182 2.266 . S
O188 C185 1.252 . S
O189 In182 2.326 . S
O189 C185 1.260 . S
O190 In182 2.266 . S
O190 C187 1.252 . S
O191 In182 2.326 . S
O191 C187 1.260 . S
C192 O183 1.240 . S
C192 O184 1.252 . S
O193 In182 2.294 . S
O193 C186 1.240 . S
O194 In182 2.326 . S
O194 C186 1.252 . S
In195 O196 2.294 . S
In195 O197 2.326 . S
In195 O201 2.266 . S
In195 O202 2.326 . S
In195 O203 2.266 . S
In195 O204 2.326 . S
In195 O206 2.294 . S
In195 O207 2.326 . S
O196 In195 2.294 . S
O196 C205 1.240 . S
O197 In195 2.326 . S
O197 C205 1.252 . S
C198 O201 1.252 . S
C198 O202 1.260 . S
C199 O206 1.240 . S
C199 O207 1.252 . S
C200 O203 1.252 . S
C200 O204 1.260 . S
O201 In195 2.266 . S
O201 C198 1.252 . S
O202 In195 2.326 . S
O202 C198 1.260 . S
O203 In195 2.266 . S
O203 C200 1.252 . S
O204 In195 2.326 . S
O204 C200 1.260 . S
C205 O196 1.240 . S
C205 O197 1.252 . S
O206 In195 2.294 . S
O206 C199 1.240 . S
O207 In195 2.326 . S
O207 C199 1.252 . S
H208 C226 0.951 . S
H209 C228 0.951 . S
H210 C230 0.950 . S
H211 C231 0.950 . S
H212 C233 0.950 . S
H213 C236 0.950 1_455 S
H214 C237 0.950 . S
H215 C239 0.950 . S
H216 C240 0.950 . S
H217 C241 0.951 . S
H218 C243 0.951 . S
H219 C245 0.950 . S
H220 C246 0.950 . S
H221 C248 0.950 . S
H222 C251 0.950 . S
H223 C252 0.950 . S
H224 C254 0.950 . S
H225 C255 0.950 . S
C226 H208 0.951 . S
C226 C227 1.366 . S
C226 C228 1.388 . S
C227 C226 1.366 . S
C227 C231 1.385 . S
C228 H209 0.951 . S
C228 C226 1.388 . S
C228 C229 1.366 . S
C229 C228 1.366 . S
C229 C230 1.414 . S
C229 C232 1.499 1_455 S
C230 H210 0.950 . S
C230 C229 1.414 . S
C230 C231 1.374 . S
C231 H211 0.950 . S
C231 C227 1.385 . S
C231 C230 1.374 . S
C232 C229 1.499 1_655 S
C232 C233 1.373 . S
C232 C234 1.389 . S
C233 H212 0.950 . S
C233 C232 1.373 . S
C233 C249 1.377 . S
C234 C232 1.389 . S
C234 C235 1.524 . S
C234 C248 1.377 . S
C235 C234 1.524 . S
C235 C236 1.397 . S
C235 C240 1.363 . S
C236 H213 0.950 1_655 S
C236 C235 1.397 . S
C236 C237 1.334 1_655 S
C237 H214 0.950 . S
C237 C236 1.334 1_455 S
C237 C238 1.287 . S
C238 C237 1.287 . S
C238 C239 1.524 1_454 S
C238 H257 0.913 1_554 S
C239 H215 0.950 . S
C239 C238 1.524 1_656 S
C239 C240 1.415 1_556 S
C240 H216 0.950 . S
C240 C235 1.363 . S
C240 C239 1.415 1_554 S
C241 H217 0.951 . S
C241 C242 1.366 . S
C241 C243 1.388 . S
C242 C241 1.366 . S
C242 C246 1.385 . S
C243 H218 0.951 . S
C243 C241 1.388 . S
C243 C244 1.366 . S
C244 C243 1.366 . S
C244 C245 1.414 . S
C244 C247 1.499 . S
C245 H219 0.950 . S
C245 C244 1.414 . S
C245 C246 1.374 . S
C246 H220 0.950 . S
C246 C242 1.385 . S
C246 C245 1.374 . S
C247 C244 1.499 . S
C247 C248 1.373 . S
C247 C249 1.389 . S
C248 H221 0.950 . S
C248 C234 1.377 . S
C248 C247 1.373 . S
C249 C233 1.377 . S
C249 C247 1.389 . S
C249 C250 1.524 . S
C250 C249 1.524 . S
C250 C251 1.397 . S
C250 C255 1.363 . S
C251 H222 0.950 . S
C251 C250 1.397 . S
C251 C252 1.334 . S
C252 H223 0.950 . S
C252 C251 1.334 . S
C252 C253 1.287 . S
C253 C252 1.287 . S
C253 C254 1.524 . S
C253 H256 0.999 . S
C254 H224 0.950 . S
C254 C253 1.524 . S
C254 C255 1.415 . S
C255 H225 0.950 . S
C255 C250 1.363 . S
C255 C254 1.415 . S
H256 C253 0.999 . S
H257 C238 0.913 1_556 S
H258 C276 0.951 . S
H259 C278 0.951 . S
H260 C280 0.950 . S
H261 C281 0.950 . S
H262 C283 0.950 . S
H263 C286 0.950 1_655 S
H264 C287 0.950 . S
H265 C289 0.950 . S
H266 C290 0.950 . S
H267 C291 0.951 . S
H268 C293 0.951 . S
H269 C295 0.950 . S
H270 C296 0.950 . S
H271 C298 0.950 . S
H272 C301 0.950 . S
H273 C302 0.950 . S
H274 C304 0.950 . S
H275 C305 0.950 . S
C276 H258 0.951 . S
C276 C277 1.366 . S
C276 C278 1.388 . S
C277 C276 1.366 . S
C277 C281 1.385 . S
C278 H259 0.951 . S
C278 C276 1.388 . S
C278 C279 1.366 . S
C279 C278 1.366 . S
C279 C280 1.414 . S
C279 C282 1.499 1_655 S
C280 H260 0.950 . S
C280 C279 1.414 . S
C280 C281 1.374 . S
C281 H261 0.950 . S
C281 C277 1.385 . S
C281 C280 1.374 . S
C282 C279 1.499 1_455 S
C282 C283 1.373 . S
C282 C284 1.389 . S
C283 H262 0.950 . S
C283 C282 1.373 . S
C283 C299 1.377 . S
C284 C282 1.389 . S
C284 C285 1.524 . S
C284 C298 1.377 . S
C285 C284 1.524 . S
C285 C286 1.397 . S
C285 C290 1.363 . S
C286 H263 0.950 1_455 S
C286 C285 1.397 . S
C286 C287 1.334 1_455 S
C287 H264 0.950 . S
C287 C286 1.334 1_655 S
C287 C288 1.287 . S
C288 C287 1.287 . S
C288 C289 1.524 1_655 S
C288 H307 0.913 . S
C289 H265 0.950 . S
C289 C288 1.524 1_455 S
C289 C290 1.415 . S
C290 H266 0.950 . S
C290 C285 1.363 . S
C290 C289 1.415 . S
C291 H267 0.951 . S
C291 C292 1.366 . S
C291 C293 1.388 . S
C292 C291 1.366 . S
C292 C296 1.385 . S
C293 H268 0.951 . S
C293 C291 1.388 . S
C293 C294 1.366 . S
C294 C293 1.366 . S
C294 C295 1.414 . S
C294 C297 1.499 . S
C295 H269 0.950 . S
C295 C294 1.414 . S
C295 C296 1.374 . S
C296 H270 0.950 . S
C296 C292 1.385 . S
C296 C295 1.374 . S
C297 C294 1.499 . S
C297 C298 1.373 . S
C297 C299 1.389 . S
C298 H271 0.950 . S
C298 C284 1.377 . S
C298 C297 1.373 . S
C299 C283 1.377 . S
C299 C297 1.389 . S
C299 C300 1.524 . S
C300 C299 1.524 . S
C300 C301 1.397 . S
C300 C305 1.363 . S
C301 H272 0.950 . S
C301 C300 1.397 . S
C301 C302 1.334 . S
C302 H273 0.950 . S
C302 C301 1.334 . S
C302 C303 1.287 . S
C303 C302 1.287 . S
C303 C304 1.524 . S
C303 H306 0.999 . S
C304 H274 0.950 . S
C304 C303 1.524 . S
C304 C305 1.415 . S
C305 H275 0.950 . S
C305 C300 1.363 . S
C305 C304 1.415 . S
H306 C303 0.999 . S
H307 C288 0.913 . S
H308 C326 0.951 . S
H309 C328 0.951 . S
H310 C330 0.950 . S
H311 C331 0.950 . S
H312 C333 0.950 . S
H313 C336 0.950 . S
H314 C337 0.950 . S
H315 C339 0.950 . S
H316 C340 0.950 . S
H317 C341 0.951 . S
H318 C343 0.951 . S
H319 C345 0.950 . S
H320 C346 0.950 . S
H321 C348 0.950 . S
H322 C351 0.947 1_455 S
H323 C352 0.950 . S
H324 C354 0.950 . S
H325 C355 0.950 . S
C326 H308 0.951 . S
C326 C327 1.366 . S
C326 C328 1.388 . S
C327 C326 1.366 . S
C327 C331 1.385 . S
C328 H309 0.951 . S
C328 C326 1.388 . S
C328 C329 1.366 . S
C329 C328 1.366 . S
C329 C330 1.414 . S
C329 C332 1.499 . S
C330 H310 0.950 . S
C330 C329 1.414 . S
C330 C331 1.374 . S
C331 H311 0.950 . S
C331 C327 1.385 . S
C331 C330 1.374 . S
C332 C329 1.499 . S
C332 C333 1.373 . S
C332 C334 1.389 . S
C333 H312 0.950 . S
C333 C332 1.373 . S
C333 C349 1.377 . S
C334 C332 1.389 . S
C334 C335 1.524 . S
C334 C348 1.377 . S
C335 C334 1.524 . S
C335 C336 1.397 . S
C335 C340 1.363 . S
C336 H313 0.950 . S
C336 C335 1.397 . S
C336 C337 1.334 . S
C337 H314 0.950 . S
C337 C336 1.334 . S
C337 C338 1.287 . S
C338 C337 1.287 . S
C338 C339 1.524 . S
C338 H357 0.913 . S
C339 H315 0.950 . S
C339 C338 1.524 . S
C339 C340 1.415 . S
C340 H316 0.950 . S
C340 C335 1.363 . S
C340 C339 1.415 . S
C341 H317 0.951 . S
C341 C342 1.366 . S
C341 C343 1.388 . S
C342 C341 1.366 . S
C342 C346 1.385 . S
C343 H318 0.951 . S
C343 C341 1.388 . S
C343 C344 1.366 . S
C344 C343 1.366 . S
C344 C345 1.414 . S
C344 C347 1.499 1_455 S
C345 H319 0.950 . S
C345 C344 1.414 . S
C345 C346 1.374 . S
C346 H320 0.950 . S
C346 C342 1.385 . S
C346 C345 1.374 . S
C347 C344 1.499 1_655 S
C347 C348 1.373 . S
C347 C349 1.389 . S
C348 H321 0.950 . S
C348 C334 1.377 . S
C348 C347 1.373 . S
C349 C333 1.377 . S
C349 C347 1.389 . S
C349 C350 1.524 . S
C350 C349 1.524 . S
C350 C351 1.397 . S
C350 C355 1.363 . S
C351 H322 0.947 1_655 S
C351 C350 1.397 . S
C351 C352 1.334 1_655 S
C352 H323 0.950 . S
C352 C351 1.334 1_455 S
C352 C353 1.284 1_455 S
C353 C352 1.284 1_655 S
C353 C354 1.529 . S
C353 H356 0.996 1_655 S
C354 H324 0.950 . S
C354 C353 1.529 . S
C354 C355 1.415 . S
C355 H325 0.950 . S
C355 C350 1.363 . S
C355 C354 1.415 . S
H356 C353 0.996 1_455 S
H357 C338 0.913 . S
H358 C376 0.951 . S
H359 C378 0.951 . S
H360 C380 0.950 . S
H361 C381 0.950 . S
H362 C383 0.950 . S
H363 C386 0.950 . S
H364 C387 0.950 . S
H365 C389 0.950 . S
H366 C390 0.950 . S
H367 C391 0.951 . S
H368 C393 0.951 . S
H369 C395 0.950 . S
H370 C396 0.950 . S
H371 C398 0.950 . S
H372 C401 0.962 . S
H373 C402 0.950 . S
H374 C404 0.950 . S
H375 C405 0.950 . S
C376 H358 0.951 . S
C376 C377 1.366 . S
C376 C378 1.388 . S
C377 C376 1.366 . S
C377 C381 1.385 . S
C378 H359 0.951 . S
C378 C376 1.388 . S
C378 C379 1.366 . S
C379 C378 1.366 . S
C379 C380 1.414 . S
C379 C382 1.499 . S
C380 H360 0.950 . S
C380 C379 1.414 . S
C380 C381 1.374 . S
C381 H361 0.950 . S
C381 C377 1.385 . S
C381 C380 1.374 . S
C382 C379 1.499 . S
C382 C383 1.373 . S
C382 C384 1.389 . S
C383 H362 0.950 . S
C383 C382 1.373 . S
C383 C399 1.377 . S
C384 C382 1.389 . S
C384 C385 1.524 . S
C384 C398 1.377 . S
C385 C384 1.524 . S
C385 C386 1.397 . S
C385 C390 1.363 . S
C386 H363 0.950 . S
C386 C385 1.397 . S
C386 C387 1.334 . S
C387 H364 0.950 . S
C387 C386 1.334 . S
C387 C388 1.287 . S
C388 C387 1.287 . S
C388 C389 1.524 . S
C388 H407 0.913 . S
C389 H365 0.950 . S
C389 C388 1.524 . S
C389 C390 1.415 . S
C390 H366 0.950 . S
C390 C385 1.363 . S
C390 C389 1.415 . S
C391 H367 0.951 . S
C391 C392 1.366 . S
C391 C393 1.388 . S
C392 C391 1.366 . S
C392 C396 1.385 . S
C393 H368 0.951 . S
C393 C391 1.388 . S
C393 C394 1.366 . S
C394 C393 1.366 . S
C394 C395 1.414 . S
C394 C397 1.499 1_655 S
C395 H369 0.950 . S
C395 C394 1.414 . S
C395 C396 1.374 . S
C396 H370 0.950 . S
C396 C392 1.385 . S
C396 C395 1.374 . S
C397 C394 1.499 1_455 S
C397 C398 1.373 . S
C397 C399 1.389 . S
C398 H371 0.950 . S
C398 C384 1.377 . S
C398 C397 1.373 . S
C399 C383 1.377 . S
C399 C397 1.389 . S
C399 C400 1.524 . S
C400 C399 1.524 . S
C400 C401 1.397 . S
C400 C405 1.363 . S
C401 H372 0.962 . S
C401 C400 1.397 . S
C401 C402 1.334 1_455 S
C402 H373 0.950 . S
C402 C401 1.334 1_655 S
C402 C403 1.287 1_655 S
C403 C402 1.287 1_455 S
C403 C404 1.524 . S
C403 H406 0.999 1_455 S
C404 H374 0.950 . S
C404 C403 1.524 . S
C404 C405 1.415 . S
C405 H375 0.950 . S
C405 C400 1.363 . S
C405 C404 1.415 . S
H406 C403 0.999 1_655 S
H407 C388 0.913 . S
H408 C426 0.951 . S
H409 C428 0.951 . S
H410 C430 0.950 . S
H411 C431 0.950 . S
H412 C433 0.950 . S
H413 C436 0.950 . S
H414 C437 0.950 . S
H415 C439 0.950 . S
H416 C440 0.950 . S
H417 C441 0.951 . S
H418 C443 0.951 . S
H419 C445 0.950 . S
H420 C446 0.950 . S
H421 C448 0.950 . S
H422 C451 0.950 . S
H423 C452 0.950 1_556 S
H424 C454 0.950 . S
H425 C455 0.950 . S
C426 H408 0.951 . S
C426 C427 1.366 . S
C426 C428 1.388 . S
C427 C426 1.366 . S
C427 C431 1.385 . S
C428 H409 0.951 . S
C428 C426 1.388 . S
C428 C429 1.366 . S
C429 C428 1.366 . S
C429 C430 1.414 . S
C429 C432 1.499 . S
C430 H410 0.950 . S
C430 C429 1.414 . S
C430 C431 1.374 . S
C431 H411 0.950 . S
C431 C427 1.385 . S
C431 C430 1.374 . S
C432 C429 1.499 . S
C432 C433 1.373 . S
C432 C434 1.389 . S
C433 H412 0.950 . S
C433 C432 1.373 . S
C433 C449 1.377 . S
C434 C432 1.389 . S
C434 C435 1.524 . S
C434 C448 1.377 . S
C435 C434 1.524 . S
C435 C436 1.397 . S
C435 C440 1.363 . S
C436 H413 0.950 . S
C436 C435 1.397 . S
C436 C437 1.334 . S
C437 H414 0.950 . S
C437 C436 1.334 . S
C437 C438 1.287 . S
C438 C437 1.287 . S
C438 C439 1.524 . S
C438 H457 0.913 . S
C439 H415 0.950 . S
C439 C438 1.524 . S
C439 C440 1.415 . S
C440 H416 0.950 . S
C440 C435 1.363 . S
C440 C439 1.415 . S
C441 H417 0.951 . S
C441 C442 1.366 . S
C441 C443 1.388 . S
C442 C441 1.366 . S
C442 C446 1.385 . S
C443 H418 0.951 . S
C443 C441 1.388 . S
C443 C444 1.366 . S
C444 C443 1.366 . S
C444 C445 1.414 . S
C444 C447 1.499 . S
C445 H419 0.950 . S
C445 C444 1.414 . S
C445 C446 1.374 . S
C446 H420 0.950 . S
C446 C442 1.385 . S
C446 C445 1.374 . S
C447 C444 1.499 . S
C447 C448 1.373 . S
C447 C449 1.389 . S
C448 H421 0.950 . S
C448 C434 1.377 . S
C448 C447 1.373 . S
C449 C433 1.377 . S
C449 C447 1.389 . S
C449 C450 1.524 . S
C450 C449 1.524 . S
C450 C451 1.397 . S
C450 C455 1.363 . S
C451 H422 0.950 . S
C451 C450 1.397 . S
C451 C452 1.334 . S
C452 H423 0.950 1_554 S
C452 C451 1.334 . S
C452 C453 1.287 1_554 S
C453 C452 1.287 1_556 S
C453 C454 1.524 1_556 S
C453 H456 0.999 . S
C454 H424 0.950 . S
C454 C453 1.524 1_554 S
C454 C455 1.415 . S
C455 H425 0.950 . S
C455 C450 1.363 . S
C455 C454 1.415 . S
H456 C453 0.999 . S
H457 C438 0.913 . S
H458 C476 0.951 . S
H459 C478 0.951 . S
H460 C480 0.950 . S
H461 C481 0.950 . S
H462 C483 0.950 . S
H463 C486 0.950 . S
H464 C487 0.950 . S
H465 C489 0.950 . S
H466 C490 0.950 . S
H467 C491 0.951 . S
H468 C493 0.951 . S
H469 C495 0.950 . S
H470 C496 0.950 . S
H471 C498 0.950 . S
H472 C501 0.950 . S
H473 C502 0.950 . S
H474 C504 0.950 . S
H475 C505 0.950 . S
C476 H458 0.951 . S
C476 C477 1.366 . S
C476 C478 1.388 . S
C477 C476 1.366 . S
C477 C481 1.385 . S
C478 H459 0.951 . S
C478 C476 1.388 . S
C478 C479 1.366 . S
C479 C478 1.366 . S
C479 C480 1.414 . S
C479 C482 1.499 . S
C480 H460 0.950 . S
C480 C479 1.414 . S
C480 C481 1.374 . S
C481 H461 0.950 . S
C481 C477 1.385 . S
C481 C480 1.374 . S
C482 C479 1.499 . S
C482 C483 1.373 . S
C482 C484 1.389 . S
C483 H462 0.950 . S
C483 C482 1.373 . S
C483 C499 1.377 . S
C484 C482 1.389 . S
C484 C485 1.524 . S
C484 C498 1.377 . S
C485 C484 1.524 . S
C485 C486 1.397 . S
C485 C490 1.363 . S
C486 H463 0.950 . S
C486 C485 1.397 . S
C486 C487 1.334 . S
C487 H464 0.950 . S
C487 C486 1.334 . S
C487 C488 1.287 . S
C488 C487 1.287 . S
C488 C489 1.524 . S
C488 H507 0.913 . S
C489 H465 0.950 . S
C489 C488 1.524 . S
C489 C490 1.415 . S
C490 H466 0.950 . S
C490 C485 1.363 . S
C490 C489 1.415 . S
C491 H467 0.951 . S
C491 C492 1.366 . S
C491 C493 1.388 . S
C492 C491 1.366 . S
C492 C496 1.385 . S
C493 H468 0.951 . S
C493 C491 1.388 . S
C493 C494 1.366 . S
C494 C493 1.366 . S
C494 C495 1.414 . S
C494 C497 1.499 . S
C495 H469 0.950 . S
C495 C494 1.414 . S
C495 C496 1.374 . S
C496 H470 0.950 . S
C496 C492 1.385 . S
C496 C495 1.374 . S
C497 C494 1.499 . S
C497 C498 1.373 . S
C497 C499 1.389 . S
C498 H471 0.950 . S
C498 C484 1.377 . S
C498 C497 1.373 . S
C499 C483 1.377 . S
C499 C497 1.389 . S
C499 C500 1.524 . S
C500 C499 1.524 . S
C500 C501 1.397 . S
C500 C505 1.363 . S
C501 H472 0.950 . S
C501 C500 1.397 . S
C501 C502 1.334 . S
C502 H473 0.950 . S
C502 C501 1.334 . S
C502 C503 1.287 . S
C503 C502 1.287 . S
C503 C504 1.524 . S
C503 H506 0.999 . S
C504 H474 0.950 . S
C504 C503 1.524 . S
C504 C505 1.415 . S
C505 H475 0.950 . S
C505 C500 1.363 . S
C505 C504 1.415 . S
H506 C503 0.999 . S
H507 C488 0.913 . S
H508 C526 0.951 . S
H509 C528 0.951 . S
H510 C530 0.950 . S
H511 C531 0.950 . S
H512 C533 0.950 . S
H513 C536 0.950 . S
H514 C537 0.950 1_554 S
H515 C539 0.950 . S
H516 C540 0.950 . S
H517 C541 0.951 . S
H518 C543 0.951 . S
H519 C545 0.950 . S
H520 C546 0.950 . S
H521 C548 0.950 . S
H522 C551 0.950 . S
H523 C552 0.950 . S
H524 C554 0.950 . S
H525 C555 0.950 . S
C526 H508 0.951 . S
C526 C527 1.366 . S
C526 C528 1.388 . S
C527 C526 1.366 . S
C527 C531 1.385 . S
C528 H509 0.951 . S
C528 C526 1.388 . S
C528 C529 1.366 . S
C529 C528 1.366 . S
C529 C530 1.414 . S
C529 C532 1.499 . S
C530 H510 0.950 . S
C530 C529 1.414 . S
C530 C531 1.374 . S
C531 H511 0.950 . S
C531 C527 1.385 . S
C531 C530 1.374 . S
C532 C529 1.499 . S
C532 C533 1.373 . S
C532 C534 1.389 . S
C533 H512 0.950 . S
C533 C532 1.373 . S
C533 C549 1.377 . S
C534 C532 1.389 . S
C534 C535 1.524 . S
C534 C548 1.377 . S
C535 C534 1.524 . S
C535 C536 1.397 . S
C535 C540 1.363 . S
C536 H513 0.950 . S
C536 C535 1.397 . S
C536 C537 1.334 . S
C537 H514 0.950 1_556 S
C537 C536 1.334 . S
C537 C538 1.287 1_556 S
C538 C537 1.287 1_554 S
C538 C539 1.524 1_554 S
C538 H557 0.913 . S
C539 H515 0.950 . S
C539 C538 1.524 1_556 S
C539 C540 1.415 . S
C540 H516 0.950 . S
C540 C535 1.363 . S
C540 C539 1.415 . S
C541 H517 0.951 . S
C541 C542 1.366 . S
C541 C543 1.388 . S
C542 C541 1.366 . S
C542 C546 1.385 . S
C543 H518 0.951 . S
C543 C541 1.388 . S
C543 C544 1.366 . S
C544 C543 1.366 . S
C544 C545 1.414 . S
C544 C547 1.499 . S
C545 H519 0.950 . S
C545 C544 1.414 . S
C545 C546 1.374 . S
C546 H520 0.950 . S
C546 C542 1.385 . S
C546 C545 1.374 . S
C547 C544 1.499 . S
C547 C548 1.373 . S
C547 C549 1.389 . S
C548 H521 0.950 . S
C548 C534 1.377 . S
C548 C547 1.373 . S
C549 C533 1.377 . S
C549 C547 1.389 . S
C549 C550 1.524 . S
C550 C549 1.524 . S
C550 C551 1.397 . S
C550 C555 1.363 . S
C551 H522 0.950 . S
C551 C550 1.397 . S
C551 C552 1.334 . S
C552 H523 0.950 . S
C552 C551 1.334 . S
C552 C553 1.287 . S
C553 C552 1.287 . S
C553 C554 1.524 . S
C553 H556 0.999 . S
C554 H524 0.950 . S
C554 C553 1.524 . S
C554 C555 1.415 . S
C555 H525 0.950 . S
C555 C550 1.363 . S
C555 C554 1.415 . S
H556 C553 0.999 . S
H557 C538 0.913 . S
H558 C576 0.951 . S
H559 C578 0.951 . S
H560 C580 0.950 . S
H561 C581 0.950 . S
H562 C583 0.950 . S
H563 C586 0.950 . S
H564 C587 0.950 . S
H565 C589 0.950 . S
H566 C590 0.950 . S
H567 C591 0.951 . S
H568 C593 0.951 . S
H569 C595 0.950 . S
H570 C596 0.950 . S
H571 C598 0.950 . S
H572 C601 0.950 . S
H573 C602 0.950 . S
H574 C604 0.950 . S
H575 C605 0.950 . S
C576 H558 0.951 . S
C576 C577 1.366 . S
C576 C578 1.388 . S
C577 C576 1.366 . S
C577 C581 1.385 . S
C578 H559 0.951 . S
C578 C576 1.388 . S
C578 C579 1.366 . S
C579 C578 1.366 . S
C579 C580 1.414 . S
C579 C582 1.499 . S
C580 H560 0.950 . S
C580 C579 1.414 . S
C580 C581 1.374 . S
C581 H561 0.950 . S
C581 C577 1.385 . S
C581 C580 1.374 . S
C582 C579 1.499 . S
C582 C583 1.373 . S
C582 C584 1.389 . S
C583 H562 0.950 . S
C583 C582 1.373 . S
C583 C599 1.377 . S
C584 C582 1.389 . S
C584 C585 1.524 . S
C584 C598 1.377 . S
C585 C584 1.524 . S
C585 C586 1.397 . S
C585 C590 1.363 . S
C586 H563 0.950 . S
C586 C585 1.397 . S
C586 C587 1.334 . S
C587 H564 0.950 . S
C587 C586 1.334 . S
C587 C588 1.287 . S
C588 C587 1.287 . S
C588 C589 1.524 . S
C588 H607 0.913 . S
C589 H565 0.950 . S
C589 C588 1.524 . S
C589 C590 1.415 . S
C590 H566 0.950 . S
C590 C585 1.363 . S
C590 C589 1.415 . S
C591 H567 0.951 . S
C591 C592 1.366 . S
C591 C593 1.388 . S
C592 C591 1.366 . S
C592 C596 1.385 . S
C593 H568 0.951 . S
C593 C591 1.388 . S
C593 C594 1.366 . S
C594 C593 1.366 . S
C594 C595 1.414 . S
C594 C597 1.499 . S
C595 H569 0.950 . S
C595 C594 1.414 . S
C595 C596 1.374 . S
C596 H570 0.950 . S
C596 C592 1.385 . S
C596 C595 1.374 . S
C597 C594 1.499 . S
C597 C598 1.373 . S
C597 C599 1.389 . S
C598 H571 0.950 . S
C598 C584 1.377 . S
C598 C597 1.373 . S
C599 C583 1.377 . S
C599 C597 1.389 . S
C599 C600 1.524 . S
C600 C599 1.524 . S
C600 C601 1.397 . S
C600 C605 1.363 . S
C601 H572 0.950 . S
C601 C600 1.397 . S
C601 C602 1.334 . S
C602 H573 0.950 . S
C602 C601 1.334 . S
C602 C603 1.287 . S
C603 C602 1.287 . S
C603 C604 1.524 . S
C603 H606 0.999 . S
C604 H574 0.950 . S
C604 C603 1.524 . S
C604 C605 1.415 . S
C605 H575 0.950 . S
C605 C600 1.363 . S
C605 C604 1.415 . S
H606 C603 0.999 . S
H607 C588 0.913 . S
H608 C626 0.951 . S
H609 C628 0.951 . S
H610 C630 0.950 . S
H611 C631 0.950 . S
H612 C633 0.950 . S
H613 C636 0.950 . S
H614 C637 0.950 . S
H615 C639 0.950 . S
H616 C640 0.950 . S
H617 C641 0.951 . S
H618 C643 0.951 . S
H619 C645 0.950 . S
H620 C646 0.950 . S
H621 C648 0.950 . S
H622 C651 0.950 . S
H623 C652 0.950 . S
H624 C654 0.950 . S
H625 C655 0.950 . S
C626 H608 0.951 . S
C626 C627 1.366 . S
C626 C628 1.388 . S
C627 C626 1.366 . S
C627 C631 1.385 . S
C628 H609 0.951 . S
C628 C626 1.388 . S
C628 C629 1.366 . S
C629 C628 1.366 . S
C629 C630 1.414 . S
C629 C632 1.499 . S
C630 H610 0.950 . S
C630 C629 1.414 . S
C630 C631 1.374 . S
C631 H611 0.950 . S
C631 C627 1.385 . S
C631 C630 1.374 . S
C632 C629 1.499 . S
C632 C633 1.373 . S
C632 C634 1.389 . S
C633 H612 0.950 . S
C633 C632 1.373 . S
C633 C649 1.377 . S
C634 C632 1.389 . S
C634 C635 1.524 . S
C634 C648 1.377 . S
C635 C634 1.524 . S
C635 C636 1.397 . S
C635 C640 1.363 . S
C636 H613 0.950 . S
C636 C635 1.397 . S
C636 C637 1.334 . S
C637 H614 0.950 . S
C637 C636 1.334 . S
C637 C638 1.287 . S
C638 C637 1.287 . S
C638 C639 1.524 . S
C638 H657 0.913 . S
C639 H615 0.950 . S
C639 C638 1.524 . S
C639 C640 1.415 . S
C640 H616 0.950 . S
C640 C635 1.363 . S
C640 C639 1.415 . S
C641 H617 0.951 . S
C641 C642 1.366 . S
C641 C643 1.388 . S
C642 C641 1.366 . S
C642 C646 1.385 . S
C643 H618 0.951 . S
C643 C641 1.388 . S
C643 C644 1.366 . S
C644 C643 1.366 . S
C644 C645 1.414 . S
C644 C647 1.499 . S
C645 H619 0.950 . S
C645 C644 1.414 . S
C645 C646 1.374 . S
C646 H620 0.950 . S
C646 C642 1.385 . S
C646 C645 1.374 . S
C647 C644 1.499 . S
C647 C648 1.373 . S
C647 C649 1.389 . S
C648 H621 0.950 . S
C648 C634 1.377 . S
C648 C647 1.373 . S
C649 C633 1.377 . S
C649 C647 1.389 . S
C649 C650 1.524 . S
C650 C649 1.524 . S
C650 C651 1.397 . S
C650 C655 1.363 . S
C651 H622 0.950 . S
C651 C650 1.397 . S
C651 C652 1.334 . S
C652 H623 0.950 . S
C652 C651 1.334 . S
C652 C653 1.287 . S
C653 C652 1.287 . S
C653 C654 1.524 . S
C653 H656 0.999 . S
C654 H624 0.950 . S
C654 C653 1.524 . S
C654 C655 1.415 . S
C655 H625 0.950 . S
C655 C650 1.363 . S
C655 C654 1.415 . S
H656 C653 0.999 . S
H657 C638 0.913 . S
H658 C676 0.951 . S
H659 C678 0.951 . S
H660 C680 0.950 . S
H661 C681 0.950 . S
H662 C683 0.950 . S
H663 C686 0.950 . S
H664 C687 0.950 . S
H665 C689 0.950 . S
H666 C690 0.950 . S
H667 C691 0.951 . S
H668 C693 0.951 . S
H669 C695 0.950 . S
H670 C696 0.950 . S
H671 C698 0.950 . S
H672 C701 0.950 . S
H673 C702 0.950 . S
H674 C704 0.950 . S
H675 C705 0.950 . S
C676 H658 0.951 . S
C676 C677 1.366 . S
C676 C678 1.388 . S
C677 C676 1.366 . S
C677 C681 1.385 . S
C678 H659 0.951 . S
C678 C676 1.388 . S
C678 C679 1.366 . S
C679 C678 1.366 . S
C679 C680 1.414 . S
C679 C682 1.499 . S
C680 H660 0.950 . S
C680 C679 1.414 . S
C680 C681 1.374 . S
C681 H661 0.950 . S
C681 C677 1.385 . S
C681 C680 1.374 . S
C682 C679 1.499 . S
C682 C683 1.373 . S
C682 C684 1.389 . S
C683 H662 0.950 . S
C683 C682 1.373 . S
C683 C699 1.377 . S
C684 C682 1.389 . S
C684 C685 1.524 . S
C684 C698 1.377 . S
C685 C684 1.524 . S
C685 C686 1.397 . S
C685 C690 1.363 . S
C686 H663 0.950 . S
C686 C685 1.397 . S
C686 C687 1.334 . S
C687 H664 0.950 . S
C687 C686 1.334 . S
C687 C688 1.287 . S
C688 C687 1.287 . S
C688 C689 1.524 . S
C688 H707 0.913 . S
C689 H665 0.950 . S
C689 C688 1.524 . S
C689 C690 1.415 . S
C690 H666 0.950 . S
C690 C685 1.363 . S
C690 C689 1.415 . S
C691 H667 0.951 . S
C691 C692 1.366 . S
C691 C693 1.388 . S
C692 C691 1.366 . S
C692 C696 1.385 . S
C693 H668 0.951 . S
C693 C691 1.388 . S
C693 C694 1.366 . S
C694 C693 1.366 . S
C694 C695 1.414 . S
C694 C697 1.499 . S
C695 H669 0.950 . S
C695 C694 1.414 . S
C695 C696 1.374 . S
C696 H670 0.950 . S
C696 C692 1.385 . S
C696 C695 1.374 . S
C697 C694 1.499 . S
C697 C698 1.373 . S
C697 C699 1.389 . S
C698 H671 0.950 . S
C698 C684 1.377 . S
C698 C697 1.373 . S
C699 C683 1.377 . S
C699 C697 1.389 . S
C699 C700 1.524 . S
C700 C699 1.524 . S
C700 C701 1.397 . S
C700 C705 1.363 . S
C701 H672 0.950 . S
C701 C700 1.397 . S
C701 C702 1.334 . S
C702 H673 0.950 . S
C702 C701 1.334 . S
C702 C703 1.287 . S
C703 C702 1.287 . S
C703 C704 1.524 . S
C703 H706 0.999 . S
C704 H674 0.950 . S
C704 C703 1.524 . S
C704 C705 1.415 . S
C705 H675 0.950 . S
C705 C700 1.363 . S
C705 C704 1.415 . S
H706 C703 0.999 . S
H707 C688 0.913 . S
H708 C726 0.951 . S
H709 C728 0.951 . S
H710 C730 0.950 . S
H711 C731 0.950 . S
H712 C733 0.950 . S
H713 C736 0.950 . S
H714 C737 0.950 . S
H715 C739 0.950 . S
H716 C740 0.950 . S
H717 C741 0.951 . S
H718 C743 0.951 . S
H719 C745 0.950 . S
H720 C746 0.950 . S
H721 C748 0.950 . S
H722 C751 0.950 . S
H723 C752 0.950 . S
H724 C754 0.950 . S
H725 C755 0.950 . S
C726 H708 0.951 . S
C726 C727 1.366 . S
C726 C728 1.388 . S
C727 C726 1.366 . S
C727 C731 1.385 . S
C728 H709 0.951 . S
C728 C726 1.388 . S
C728 C729 1.366 . S
C729 C728 1.366 . S
C729 C730 1.414 . S
C729 C732 1.499 . S
C730 H710 0.950 . S
C730 C729 1.414 . S
C730 C731 1.374 . S
C731 H711 0.950 . S
C731 C727 1.385 . S
C731 C730 1.374 . S
C732 C729 1.499 . S
C732 C733 1.373 . S
C732 C734 1.389 . S
C733 H712 0.950 . S
C733 C732 1.373 . S
C733 C749 1.377 . S
C734 C732 1.389 . S
C734 C735 1.524 . S
C734 C748 1.377 . S
C735 C734 1.524 . S
C735 C736 1.397 . S
C735 C740 1.363 . S
C736 H713 0.950 . S
C736 C735 1.397 . S
C736 C737 1.334 . S
C737 H714 0.950 . S
C737 C736 1.334 . S
C737 C738 1.287 . S
C738 C737 1.287 . S
C738 C739 1.524 . S
C738 H757 0.913 . S
C739 H715 0.950 . S
C739 C738 1.524 . S
C739 C740 1.415 . S
C740 H716 0.950 . S
C740 C735 1.363 . S
C740 C739 1.415 . S
C741 H717 0.951 . S
C741 C742 1.366 . S
C741 C743 1.388 . S
C742 C741 1.366 . S
C742 C746 1.385 . S
C743 H718 0.951 . S
C743 C741 1.388 . S
C743 C744 1.366 . S
C744 C743 1.366 . S
C744 C745 1.414 . S
C744 C747 1.499 . S
C745 H719 0.950 . S
C745 C744 1.414 . S
C745 C746 1.374 . S
C746 H720 0.950 . S
C746 C742 1.385 . S
C746 C745 1.374 . S
C747 C744 1.499 . S
C747 C748 1.373 . S
C747 C749 1.389 . S
C748 H721 0.950 . S
C748 C734 1.377 . S
C748 C747 1.373 . S
C749 C733 1.377 . S
C749 C747 1.389 . S
C749 C750 1.524 . S
C750 C749 1.524 . S
C750 C751 1.397 . S
C750 C755 1.363 . S
C751 H722 0.950 . S
C751 C750 1.397 . S
C751 C752 1.334 . S
C752 H723 0.950 . S
C752 C751 1.334 . S
C752 C753 1.287 . S
C753 C752 1.287 . S
C753 C754 1.524 . S
C753 H756 0.999 . S
C754 H724 0.950 . S
C754 C753 1.524 . S
C754 C755 1.415 . S
C755 H725 0.950 . S
C755 C750 1.363 . S
C755 C754 1.415 . S
H756 C753 0.999 . S
H757 C738 0.913 . S
H758 C776 0.951 . S
H759 C778 0.951 . S
H760 C780 0.950 . S
H761 C781 0.950 . S
H762 C783 0.950 . S
H763 C786 0.950 . S
H764 C787 0.950 . S
H765 C789 0.950 . S
H766 C790 0.950 . S
H767 C791 0.951 . S
H768 C793 0.951 . S
H769 C795 0.950 . S
H770 C796 0.950 . S
H771 C798 0.950 . S
H772 C801 0.950 . S
H773 C802 0.950 . S
H774 C804 0.950 . S
H775 C805 0.950 . S
C776 H758 0.951 . S
C776 C777 1.366 . S
C776 C778 1.388 . S
C777 C776 1.366 . S
C777 C781 1.385 . S
C778 H759 0.951 . S
C778 C776 1.388 . S
C778 C779 1.366 . S
C779 C778 1.366 . S
C779 C780 1.414 . S
C779 C782 1.499 . S
C780 H760 0.950 . S
C780 C779 1.414 . S
C780 C781 1.374 . S
C781 H761 0.950 . S
C781 C777 1.385 . S
C781 C780 1.374 . S
C782 C779 1.499 . S
C782 C783 1.373 . S
C782 C784 1.389 . S
C783 H762 0.950 . S
C783 C782 1.373 . S
C783 C799 1.377 . S
C784 C782 1.389 . S
C784 C785 1.524 . S
C784 C798 1.377 . S
C785 C784 1.524 . S
C785 C786 1.397 . S
C785 C790 1.363 . S
C786 H763 0.950 . S
C786 C785 1.397 . S
C786 C787 1.334 . S
C787 H764 0.950 . S
C787 C786 1.334 . S
C787 C788 1.287 . S
C788 C787 1.287 . S
C788 C789 1.524 . S
C788 H807 0.913 . S
C789 H765 0.950 . S
C789 C788 1.524 . S
C789 C790 1.415 . S
C790 H766 0.950 . S
C790 C785 1.363 . S
C790 C789 1.415 . S
C791 H767 0.951 . S
C791 C792 1.366 . S
C791 C793 1.388 . S
C792 C791 1.366 . S
C792 C796 1.385 . S
C793 H768 0.951 . S
C793 C791 1.388 . S
C793 C794 1.366 . S
C794 C793 1.366 . S
C794 C795 1.414 . S
C794 C797 1.499 . S
C795 H769 0.950 . S
C795 C794 1.414 . S
C795 C796 1.374 . S
C796 H770 0.950 . S
C796 C792 1.385 . S
C796 C795 1.374 . S
C797 C794 1.499 . S
C797 C798 1.373 . S
C797 C799 1.389 . S
C798 H771 0.950 . S
C798 C784 1.377 . S
C798 C797 1.373 . S
C799 C783 1.377 . S
C799 C797 1.389 . S
C799 C800 1.524 . S
C800 C799 1.524 . S
C800 C801 1.397 . S
C800 C805 1.363 . S
C801 H772 0.950 . S
C801 C800 1.397 . S
C801 C802 1.334 . S
C802 H773 0.950 . S
C802 C801 1.334 . S
C802 C803 1.287 . S
C803 C802 1.287 . S
C803 C804 1.524 . S
C803 H806 0.999 . S
C804 H774 0.950 . S
C804 C803 1.524 . S
C804 C805 1.415 . S
C805 H775 0.950 . S
C805 C800 1.363 . S
C805 C804 1.415 . S
H806 C803 0.999 . S
H807 C788 0.913 . S
H808 C826 0.951 . S
H809 C828 0.951 . S
H810 C830 0.950 . S
H811 C831 0.950 . S
H812 C833 0.950 . S
H813 C836 0.950 . S
H814 C837 0.950 . S
H815 C839 0.950 . S
H816 C840 0.950 . S
H817 C841 0.951 . S
H818 C843 0.951 . S
H819 C845 0.950 . S
H820 C846 0.950 . S
H821 C848 0.950 . S
H822 C851 0.950 . S
H823 C852 0.950 . S
H824 C854 0.950 . S
H825 C855 0.950 . S
C826 H808 0.951 . S
C826 C827 1.366 . S
C826 C828 1.388 . S
C827 C826 1.366 . S
C827 C831 1.385 . S
C828 H809 0.951 . S
C828 C826 1.388 . S
C828 C829 1.366 . S
C829 C828 1.366 . S
C829 C830 1.414 . S
C829 C832 1.499 . S
C830 H810 0.950 . S
C830 C829 1.414 . S
C830 C831 1.374 . S
C831 H811 0.950 . S
C831 C827 1.385 . S
C831 C830 1.374 . S
C832 C829 1.499 . S
C832 C833 1.373 . S
C832 C834 1.389 . S
C833 H812 0.950 . S
C833 C832 1.373 . S
C833 C849 1.377 . S
C834 C832 1.389 . S
C834 C835 1.524 . S
C834 C848 1.377 . S
C835 C834 1.524 . S
C835 C836 1.397 . S
C835 C840 1.363 . S
C836 H813 0.950 . S
C836 C835 1.397 . S
C836 C837 1.334 . S
C837 H814 0.950 . S
C837 C836 1.334 . S
C837 C838 1.287 . S
C838 C837 1.287 . S
C838 C839 1.524 . S
C838 H857 0.913 . S
C839 H815 0.950 . S
C839 C838 1.524 . S
C839 C840 1.415 . S
C840 H816 0.950 . S
C840 C835 1.363 . S
C840 C839 1.415 . S
C841 H817 0.951 . S
C841 C842 1.366 . S
C841 C843 1.388 . S
C842 C841 1.366 . S
C842 C846 1.385 . S
C843 H818 0.951 . S
C843 C841 1.388 . S
C843 C844 1.366 . S
C844 C843 1.366 . S
C844 C845 1.414 . S
C844 C847 1.499 . S
C845 H819 0.950 . S
C845 C844 1.414 . S
C845 C846 1.374 . S
C846 H820 0.950 . S
C846 C842 1.385 . S
C846 C845 1.374 . S
C847 C844 1.499 . S
C847 C848 1.373 . S
C847 C849 1.389 . S
C848 H821 0.950 . S
C848 C834 1.377 . S
C848 C847 1.373 . S
C849 C833 1.377 . S
C849 C847 1.389 . S
C849 C850 1.524 . S
C850 C849 1.524 . S
C850 C851 1.397 . S
C850 C855 1.363 . S
C851 H822 0.950 . S
C851 C850 1.397 . S
C851 C852 1.334 . S
C852 H823 0.950 . S
C852 C851 1.334 . S
C852 C853 1.287 . S
C853 C852 1.287 . S
C853 C854 1.524 . S
C853 H856 0.999 . S
C854 H824 0.950 . S
C854 C853 1.524 . S
C854 C855 1.415 . S
C855 H825 0.950 . S
C855 C850 1.363 . S
C855 C854 1.415 . S
H856 C853 0.999 . S
H857 C838 0.913 . S
H858 C876 0.951 . S
H859 C878 0.951 . S
H860 C880 0.950 . S
H861 C881 0.950 . S
H862 C883 0.950 . S
H863 C886 0.950 . S
H864 C887 0.950 . S
H865 C889 0.950 . S
H866 C890 0.950 . S
H867 C891 0.951 . S
H868 C893 0.951 . S
H869 C895 0.950 . S
H870 C896 0.950 . S
H871 C898 0.950 . S
H872 C901 0.950 . S
H873 C902 0.950 . S
H874 C904 0.950 . S
H875 C905 0.950 . S
C876 H858 0.951 . S
C876 C877 1.366 . S
C876 C878 1.388 . S
C877 C876 1.366 . S
C877 C881 1.385 . S
C878 H859 0.951 . S
C878 C876 1.388 . S
C878 C879 1.366 . S
C879 C878 1.366 . S
C879 C880 1.414 . S
C879 C882 1.499 . S
C880 H860 0.950 . S
C880 C879 1.414 . S
C880 C881 1.374 . S
C881 H861 0.950 . S
C881 C877 1.385 . S
C881 C880 1.374 . S
C882 C879 1.499 . S
C882 C883 1.373 . S
C882 C884 1.389 . S
C883 H862 0.950 . S
C883 C882 1.373 . S
C883 C899 1.377 . S
C884 C882 1.389 . S
C884 C885 1.524 . S
C884 C898 1.377 . S
C885 C884 1.524 . S
C885 C886 1.397 . S
C885 C890 1.363 . S
C886 H863 0.950 . S
C886 C885 1.397 . S
C886 C887 1.334 . S
C887 H864 0.950 . S
C887 C886 1.334 . S
C887 C888 1.287 . S
C888 C887 1.287 . S
C888 C889 1.524 . S
C888 H907 0.913 . S
C889 H865 0.950 . S
C889 C888 1.524 . S
C889 C890 1.415 . S
C890 H866 0.950 . S
C890 C885 1.363 . S
C890 C889 1.415 . S
C891 H867 0.951 . S
C891 C892 1.366 . S
C891 C893 1.388 . S
C892 C891 1.366 . S
C892 C896 1.385 . S
C893 H868 0.951 . S
C893 C891 1.388 . S
C893 C894 1.366 . S
C894 C893 1.366 . S
C894 C895 1.414 . S
C894 C897 1.499 . S
C895 H869 0.950 . S
C895 C894 1.414 . S
C895 C896 1.374 . S
C896 H870 0.950 . S
C896 C892 1.385 . S
C896 C895 1.374 . S
C897 C894 1.499 . S
C897 C898 1.373 . S
C897 C899 1.389 . S
C898 H871 0.950 . S
C898 C884 1.377 . S
C898 C897 1.373 . S
C899 C883 1.377 . S
C899 C897 1.389 . S
C899 C900 1.524 . S
C900 C899 1.524 . S
C900 C901 1.397 . S
C900 C905 1.363 . S
C901 H872 0.950 . S
C901 C900 1.397 . S
C901 C902 1.334 . S
C902 H873 0.950 . S
C902 C901 1.334 . S
C902 C903 1.287 . S
C903 C902 1.287 . S
C903 C904 1.524 . S
C903 H906 0.999 . S
C904 H874 0.950 . S
C904 C903 1.524 . S
C904 C905 1.415 . S
C905 H875 0.950 . S
C905 C900 1.363 . S
C905 C904 1.415 . S
H906 C903 0.999 . S
H907 C888 0.913 . S
H908 C926 0.951 . S
H909 C928 0.951 . S
H910 C930 0.950 . S
H911 C931 0.950 . S
H912 C933 0.950 . S
H913 C936 0.950 . S
H914 C937 0.950 . S
H915 C939 0.950 . S
H916 C940 0.950 . S
H917 C941 0.951 . S
H918 C943 0.951 . S
H919 C945 0.950 . S
H920 C946 0.950 . S
H921 C948 0.950 . S
H922 C951 0.950 . S
H923 C952 0.950 . S
H924 C954 0.950 . S
H925 C955 0.950 . S
C926 H908 0.951 . S
C926 C927 1.366 . S
C926 C928 1.388 . S
C927 C926 1.366 . S
C927 C931 1.385 . S
C928 H909 0.951 . S
C928 C926 1.388 . S
C928 C929 1.366 . S
C929 C928 1.366 . S
C929 C930 1.414 . S
C929 C932 1.499 . S
C930 H910 0.950 . S
C930 C929 1.414 . S
C930 C931 1.374 . S
C931 H911 0.950 . S
C931 C927 1.385 . S
C931 C930 1.374 . S
C932 C929 1.499 . S
C932 C933 1.373 . S
C932 C934 1.389 . S
C933 H912 0.950 . S
C933 C932 1.373 . S
C933 C949 1.377 . S
C934 C932 1.389 . S
C934 C935 1.524 . S
C934 C948 1.377 . S
C935 C934 1.524 . S
C935 C936 1.397 . S
C935 C940 1.363 . S
C936 H913 0.950 . S
C936 C935 1.397 . S
C936 C937 1.334 . S
C937 H914 0.950 . S
C937 C936 1.334 . S
C937 C938 1.287 . S
C938 C937 1.287 . S
C938 C939 1.524 . S
C938 H957 0.913 . S
C939 H915 0.950 . S
C939 C938 1.524 . S
C939 C940 1.415 . S
C940 H916 0.950 . S
C940 C935 1.363 . S
C940 C939 1.415 . S
C941 H917 0.951 . S
C941 C942 1.366 . S
C941 C943 1.388 . S
C942 C941 1.366 . S
C942 C946 1.385 . S
C943 H918 0.951 . S
C943 C941 1.388 . S
C943 C944 1.366 . S
C944 C943 1.366 . S
C944 C945 1.414 . S
C944 C947 1.499 . S
C945 H919 0.950 . S
C945 C944 1.414 . S
C945 C946 1.374 . S
C946 H920 0.950 . S
C946 C942 1.385 . S
C946 C945 1.374 . S
C947 C944 1.499 . S
C947 C948 1.373 . S
C947 C949 1.389 . S
C948 H921 0.950 . S
C948 C934 1.377 . S
C948 C947 1.373 . S
C949 C933 1.377 . S
C949 C947 1.389 . S
C949 C950 1.524 . S
C950 C949 1.524 . S
C950 C951 1.397 . S
C950 C955 1.363 . S
C951 H922 0.950 . S
C951 C950 1.397 . S
C951 C952 1.334 . S
C952 H923 0.950 . S
C952 C951 1.334 . S
C952 C953 1.287 . S
C953 C952 1.287 . S
C953 C954 1.524 . S
C953 H956 0.999 . S
C954 H924 0.950 . S
C954 C953 1.524 . S
C954 C955 1.415 . S
C955 H925 0.950 . S
C955 C950 1.363 . S
C955 C954 1.415 . S
H956 C953 0.999 . S
H957 C938 0.913 . S
H958 C976 0.951 . S
H959 C978 0.951 . S
H960 C980 0.950 . S
H961 C981 0.950 . S
H962 C983 0.950 . S
H963 C986 0.950 . S
H964 C987 0.950 . S
H965 C989 0.950 . S
H966 C990 0.950 . S
H967 C991 0.951 . S
H968 C993 0.951 . S
H969 C995 0.950 . S
H970 C996 0.950 . S
H971 C998 0.950 . S
H972 C1001 0.950 . S
H973 C1002 0.950 . S
H974 C1004 0.950 . S
H975 C1005 0.950 . S
C976 H958 0.951 . S
C976 C977 1.366 . S
C976 C978 1.388 . S
C977 C976 1.366 . S
C977 C981 1.385 . S
C978 H959 0.951 . S
C978 C976 1.388 . S
C978 C979 1.366 . S
C979 C978 1.366 . S
C979 C980 1.414 . S
C979 C982 1.499 . S
C980 H960 0.950 . S
C980 C979 1.414 . S
C980 C981 1.374 . S
C981 H961 0.950 . S
C981 C977 1.385 . S
C981 C980 1.374 . S
C982 C979 1.499 . S
C982 C983 1.373 . S
C982 C984 1.389 . S
C983 H962 0.950 . S
C983 C982 1.373 . S
C983 C999 1.377 . S
C984 C982 1.389 . S
C984 C985 1.524 . S
C984 C998 1.377 . S
C985 C984 1.524 . S
C985 C986 1.397 . S
C985 C990 1.363 . S
C986 H963 0.950 . S
C986 C985 1.397 . S
C986 C987 1.334 . S
C987 H964 0.950 . S
C987 C986 1.334 . S
C987 C988 1.287 . S
C988 C987 1.287 . S
C988 C989 1.524 . S
C988 H1007 0.913 . S
C989 H965 0.950 . S
C989 C988 1.524 . S
C989 C990 1.415 . S
C990 H966 0.950 . S
C990 C985 1.363 . S
C990 C989 1.415 . S
C991 H967 0.951 . S
C991 C992 1.366 . S
C991 C993 1.388 . S
C992 C991 1.366 . S
C992 C996 1.385 . S
C993 H968 0.951 . S
C993 C991 1.388 . S
C993 C994 1.366 . S
C994 C993 1.366 . S
C994 C995 1.414 . S
C994 C997 1.499 . S
C995 H969 0.950 . S
C995 C994 1.414 . S
C995 C996 1.374 . S
C996 H970 0.950 . S
C996 C992 1.385 . S
C996 C995 1.374 . S
C997 C994 1.499 . S
C997 C998 1.373 . S
C997 C999 1.389 . S
C998 H971 0.950 . S
C998 C984 1.377 . S
C998 C997 1.373 . S
C999 C983 1.377 . S
C999 C997 1.389 . S
C999 C1000 1.524 . S
C1000 C999 1.524 . S
C1000 C1001 1.397 . S
C1000 C1005 1.363 . S
C1001 H972 0.950 . S
C1001 C1000 1.397 . S
C1001 C1002 1.334 . S
C1002 H973 0.950 . S
C1002 C1001 1.334 . S
C1002 C1003 1.287 . S
C1003 C1002 1.287 . S
C1003 C1004 1.524 . S
C1003 H1006 0.999 . S
C1004 H974 0.950 . S
C1004 C1003 1.524 . S
C1004 C1005 1.415 . S
C1005 H975 0.950 . S
C1005 C1000 1.363 . S
C1005 C1004 1.415 . S
H1006 C1003 0.999 . S
H1007 C988 0.913 . S
H1008 C1026 0.951 . S
H1009 C1028 0.951 . S
H1010 C1030 0.950 . S
H1011 C1031 0.950 . S
H1012 C1033 0.950 . S
H1013 C1036 0.950 . S
H1014 C1037 0.950 . S
H1015 C1039 0.950 . S
H1016 C1040 0.950 . S
H1017 C1041 0.951 . S
H1018 C1043 0.951 . S
H1019 C1045 0.950 . S
H1020 C1046 0.950 . S
H1021 C1048 0.950 . S
H1022 C1051 0.950 . S
H1023 C1052 0.950 . S
H1024 C1054 0.950 . S
H1025 C1055 0.950 . S
C1026 H1008 0.951 . S
C1026 C1027 1.366 . S
C1026 C1028 1.388 . S
C1027 C1026 1.366 . S
C1027 C1031 1.385 . S
C1028 H1009 0.951 . S
C1028 C1026 1.388 . S
C1028 C1029 1.366 . S
C1029 C1028 1.366 . S
C1029 C1030 1.414 . S
C1029 C1032 1.499 . S
C1030 H1010 0.950 . S
C1030 C1029 1.414 . S
C1030 C1031 1.374 . S
C1031 H1011 0.950 . S
C1031 C1027 1.385 . S
C1031 C1030 1.374 . S
C1032 C1029 1.499 . S
C1032 C1033 1.373 . S
C1032 C1034 1.389 1_556 S
C1033 H1012 0.950 . S
C1033 C1032 1.373 . S
C1033 C1049 1.377 . S
C1034 C1032 1.389 1_554 S
C1034 C1035 1.524 . S
C1034 C1048 1.377 . S
C1035 C1034 1.524 . S
C1035 C1036 1.397 . S
C1035 C1040 1.363 . S
C1036 H1013 0.950 . S
C1036 C1035 1.397 . S
C1036 C1037 1.334 . S
C1037 H1014 0.950 . S
C1037 C1036 1.334 . S
C1037 C1038 1.287 . S
C1038 C1037 1.287 . S
C1038 C1039 1.524 . S
C1038 H1057 0.913 . S
C1039 H1015 0.950 . S
C1039 C1038 1.524 . S
C1039 C1040 1.415 . S
C1040 H1016 0.950 . S
C1040 C1035 1.363 . S
C1040 C1039 1.415 . S
C1041 H1017 0.951 . S
C1041 C1042 1.366 . S
C1041 C1043 1.388 . S
C1042 C1041 1.366 . S
C1042 C1046 1.385 . S
C1043 H1018 0.951 . S
C1043 C1041 1.388 . S
C1043 C1044 1.366 . S
C1044 C1043 1.366 . S
C1044 C1045 1.414 . S
C1044 C1047 1.499 . S
C1045 H1019 0.950 . S
C1045 C1044 1.414 . S
C1045 C1046 1.374 . S
C1046 H1020 0.950 . S
C1046 C1042 1.385 . S
C1046 C1045 1.374 . S
C1047 C1044 1.499 . S
C1047 C1048 1.373 . S
C1047 C1049 1.389 1_554 S
C1048 H1021 0.950 . S
C1048 C1034 1.377 . S
C1048 C1047 1.373 . S
C1049 C1033 1.377 . S
C1049 C1047 1.389 1_556 S
C1049 C1050 1.524 . S
C1050 C1049 1.524 . S
C1050 C1051 1.397 . S
C1050 C1055 1.363 . S
C1051 H1022 0.950 . S
C1051 C1050 1.397 . S
C1051 C1052 1.334 . S
C1052 H1023 0.950 . S
C1052 C1051 1.334 . S
C1052 C1053 1.287 . S
C1053 C1052 1.287 . S
C1053 C1054 1.524 . S
C1053 H1056 0.999 . S
C1054 H1024 0.950 . S
C1054 C1053 1.524 . S
C1054 C1055 1.415 . S
C1055 H1025 0.950 . S
C1055 C1050 1.363 . S
C1055 C1054 1.415 . S
H1056 C1053 0.999 . S
H1057 C1038 0.913 . S
H1058 C1076 0.951 . S
H1059 C1078 0.951 . S
H1060 C1080 0.950 . S
H1061 C1081 0.950 . S
H1062 C1083 0.950 . S
H1063 C1086 0.950 . S
H1064 C1087 0.950 . S
H1065 C1089 0.950 . S
H1066 C1090 0.950 . S
H1067 C1091 0.951 . S
H1068 C1093 0.951 . S
H1069 C1095 0.950 . S
H1070 C1096 0.950 . S
H1071 C1098 0.950 . S
H1072 C1101 0.950 . S
H1073 C1102 0.950 . S
H1074 C1104 0.950 . S
H1075 C1105 0.950 . S
C1076 H1058 0.951 . S
C1076 C1077 1.366 . S
C1076 C1078 1.388 . S
C1077 C1076 1.366 . S
C1077 C1081 1.385 . S
C1078 H1059 0.951 . S
C1078 C1076 1.388 . S
C1078 C1079 1.366 . S
C1079 C1078 1.366 . S
C1079 C1080 1.414 . S
C1079 C1082 1.499 . S
C1080 H1060 0.950 . S
C1080 C1079 1.414 . S
C1080 C1081 1.374 . S
C1081 H1061 0.950 . S
C1081 C1077 1.385 . S
C1081 C1080 1.374 . S
C1082 C1079 1.499 . S
C1082 C1083 1.373 . S
C1082 C1084 1.389 . S
C1083 H1062 0.950 . S
C1083 C1082 1.373 . S
C1083 C1099 1.377 . S
C1084 C1082 1.389 . S
C1084 C1085 1.524 . S
C1084 C1098 1.377 . S
C1085 C1084 1.524 . S
C1085 C1086 1.397 . S
C1085 C1090 1.363 . S
C1086 H1063 0.950 . S
C1086 C1085 1.397 . S
C1086 C1087 1.334 . S
C1087 H1064 0.950 . S
C1087 C1086 1.334 . S
C1087 C1088 1.287 . S
C1088 C1087 1.287 . S
C1088 C1089 1.524 . S
C1088 H1107 0.913 . S
C1089 H1065 0.950 . S
C1089 C1088 1.524 . S
C1089 C1090 1.415 . S
C1090 H1066 0.950 . S
C1090 C1085 1.363 . S
C1090 C1089 1.415 . S
C1091 H1067 0.951 . S
C1091 C1092 1.366 . S
C1091 C1093 1.388 . S
C1092 C1091 1.366 . S
C1092 C1096 1.385 . S
C1093 H1068 0.951 . S
C1093 C1091 1.388 . S
C1093 C1094 1.366 . S
C1094 C1093 1.366 . S
C1094 C1095 1.414 . S
C1094 C1097 1.499 . S
C1095 H1069 0.950 . S
C1095 C1094 1.414 . S
C1095 C1096 1.374 . S
C1096 H1070 0.950 . S
C1096 C1092 1.385 . S
C1096 C1095 1.374 . S
C1097 C1094 1.499 . S
C1097 C1098 1.373 . S
C1097 C1099 1.389 . S
C1098 H1071 0.950 . S
C1098 C1084 1.377 . S
C1098 C1097 1.373 . S
C1099 C1083 1.377 . S
C1099 C1097 1.389 . S
C1099 C1100 1.524 . S
C1100 C1099 1.524 . S
C1100 C1101 1.397 . S
C1100 C1105 1.363 . S
C1101 H1072 0.950 . S
C1101 C1100 1.397 . S
C1101 C1102 1.334 . S
C1102 H1073 0.950 . S
C1102 C1101 1.334 . S
C1102 C1103 1.287 . S
C1103 C1102 1.287 . S
C1103 C1104 1.524 . S
C1103 H1106 0.999 . S
C1104 H1074 0.950 . S
C1104 C1103 1.524 . S
C1104 C1105 1.415 . S
C1105 H1075 0.950 . S
C1105 C1100 1.363 . S
C1105 C1104 1.415 . S
H1106 C1103 0.999 . S
H1107 C1088 0.913 . S
H1108 C1126 0.951 . S
H1109 C1128 0.951 . S
H1110 C1130 0.950 . S
H1111 C1131 0.950 . S
H1112 C1133 0.950 . S
H1113 C1136 0.950 . S
H1114 C1137 0.950 . S
H1115 C1139 0.950 . S
H1116 C1140 0.950 . S
H1117 C1141 0.951 . S
H1118 C1143 0.951 . S
H1119 C1145 0.950 . S
H1120 C1146 0.950 . S
H1121 C1148 0.950 . S
H1122 C1151 0.950 . S
H1123 C1152 0.950 . S
H1124 C1154 0.950 . S
H1125 C1155 0.950 . S
C1126 H1108 0.951 . S
C1126 C1127 1.366 . S
C1126 C1128 1.388 . S
C1127 C1126 1.366 . S
C1127 C1131 1.385 . S
C1128 H1109 0.951 . S
C1128 C1126 1.388 . S
C1128 C1129 1.366 . S
C1129 C1128 1.366 . S
C1129 C1130 1.414 . S
C1129 C1132 1.499 . S
C1130 H1110 0.950 . S
C1130 C1129 1.414 . S
C1130 C1131 1.374 . S
C1131 H1111 0.950 . S
C1131 C1127 1.385 . S
C1131 C1130 1.374 . S
C1132 C1129 1.499 . S
C1132 C1133 1.373 . S
C1132 C1134 1.389 1_554 S
C1133 H1112 0.950 . S
C1133 C1132 1.373 . S
C1133 C1149 1.377 . S
C1134 C1132 1.389 1_556 S
C1134 C1135 1.524 . S
C1134 C1148 1.377 . S
C1135 C1134 1.524 . S
C1135 C1136 1.397 . S
C1135 C1140 1.363 . S
C1136 H1113 0.950 . S
C1136 C1135 1.397 . S
C1136 C1137 1.334 . S
C1137 H1114 0.950 . S
C1137 C1136 1.334 . S
C1137 C1138 1.287 . S
C1138 C1137 1.287 . S
C1138 C1139 1.524 . S
C1138 H1157 0.913 . S
C1139 H1115 0.950 . S
C1139 C1138 1.524 . S
C1139 C1140 1.415 . S
C1140 H1116 0.950 . S
C1140 C1135 1.363 . S
C1140 C1139 1.415 . S
C1141 H1117 0.951 . S
C1141 C1142 1.366 . S
C1141 C1143 1.388 . S
C1142 C1141 1.366 . S
C1142 C1146 1.385 . S
C1143 H1118 0.951 . S
C1143 C1141 1.388 . S
C1143 C1144 1.366 . S
C1144 C1143 1.366 . S
C1144 C1145 1.414 . S
C1144 C1147 1.499 . S
C1145 H1119 0.950 . S
C1145 C1144 1.414 . S
C1145 C1146 1.374 . S
C1146 H1120 0.950 . S
C1146 C1142 1.385 . S
C1146 C1145 1.374 . S
C1147 C1144 1.499 . S
C1147 C1148 1.373 . S
C1147 C1149 1.389 1_556 S
C1148 H1121 0.950 . S
C1148 C1134 1.377 . S
C1148 C1147 1.373 . S
C1149 C1133 1.377 . S
C1149 C1147 1.389 1_554 S
C1149 C1150 1.524 . S
C1150 C1149 1.524 . S
C1150 C1151 1.397 . S
C1150 C1155 1.363 . S
C1151 H1122 0.950 . S
C1151 C1150 1.397 . S
C1151 C1152 1.334 . S
C1152 H1123 0.950 . S
C1152 C1151 1.334 . S
C1152 C1153 1.287 . S
C1153 C1152 1.287 . S
C1153 C1154 1.524 . S
C1153 H1156 0.999 . S
C1154 H1124 0.950 . S
C1154 C1153 1.524 . S
C1154 C1155 1.415 . S
C1155 H1125 0.950 . S
C1155 C1150 1.363 . S
C1155 C1154 1.415 . S
H1156 C1153 0.999 . S
H1157 C1138 0.913 . S
H1158 C1176 0.951 . S
H1159 C1178 0.951 . S
H1160 C1180 0.950 . S
H1161 C1181 0.950 . S
H1162 C1183 0.950 . S
H1163 C1186 0.950 . S
H1164 C1187 0.950 . S
H1165 C1189 0.950 . S
H1166 C1190 0.950 . S
H1167 C1191 0.951 . S
H1168 C1193 0.951 . S
H1169 C1195 0.950 . S
H1170 C1196 0.950 . S
H1171 C1198 0.950 . S
H1172 C1201 0.950 . S
H1173 C1202 0.950 . S
H1174 C1204 0.950 . S
H1175 C1205 0.950 . S
C1176 H1158 0.951 . S
C1176 C1177 1.366 . S
C1176 C1178 1.388 . S
C1177 C1176 1.366 . S
C1177 C1181 1.385 . S
C1178 H1159 0.951 . S
C1178 C1176 1.388 . S
C1178 C1179 1.366 . S
C1179 C1178 1.366 . S
C1179 C1180 1.414 . S
C1179 C1182 1.499 . S
C1180 H1160 0.950 . S
C1180 C1179 1.414 . S
C1180 C1181 1.374 . S
C1181 H1161 0.950 . S
C1181 C1177 1.385 . S
C1181 C1180 1.374 . S
C1182 C1179 1.499 . S
C1182 C1183 1.373 . S
C1182 C1184 1.389 . S
C1183 H1162 0.950 . S
C1183 C1182 1.373 . S
C1183 C1199 1.377 . S
C1184 C1182 1.389 . S
C1184 C1185 1.524 . S
C1184 C1198 1.377 . S
C1185 C1184 1.524 . S
C1185 C1186 1.397 . S
C1185 C1190 1.363 . S
C1186 H1163 0.950 . S
C1186 C1185 1.397 . S
C1186 C1187 1.334 . S
C1187 H1164 0.950 . S
C1187 C1186 1.334 . S
C1187 C1188 1.287 . S
C1188 C1187 1.287 . S
C1188 C1189 1.524 . S
C1188 H1207 0.913 . S
C1189 H1165 0.950 . S
C1189 C1188 1.524 . S
C1189 C1190 1.415 . S
C1190 H1166 0.950 . S
C1190 C1185 1.363 . S
C1190 C1189 1.415 . S
C1191 H1167 0.951 . S
C1191 C1192 1.366 . S
C1191 C1193 1.388 . S
C1192 C1191 1.366 . S
C1192 C1196 1.385 . S
C1193 H1168 0.951 . S
C1193 C1191 1.388 . S
C1193 C1194 1.366 . S
C1194 C1193 1.366 . S
C1194 C1195 1.414 . S
C1194 C1197 1.499 . S
C1195 H1169 0.950 . S
C1195 C1194 1.414 . S
C1195 C1196 1.374 . S
C1196 H1170 0.950 . S
C1196 C1192 1.385 . S
C1196 C1195 1.374 . S
C1197 C1194 1.499 . S
C1197 C1198 1.373 . S
C1197 C1199 1.389 . S
C1198 H1171 0.950 . S
C1198 C1184 1.377 . S
C1198 C1197 1.373 . S
C1199 C1183 1.377 . S
C1199 C1197 1.389 . S
C1199 C1200 1.524 . S
C1200 C1199 1.524 . S
C1200 C1201 1.397 . S
C1200 C1205 1.363 . S
C1201 H1172 0.950 . S
C1201 C1200 1.397 . S
C1201 C1202 1.334 . S
C1202 H1173 0.950 . S
C1202 C1201 1.334 . S
C1202 C1203 1.287 . S
C1203 C1202 1.287 . S
C1203 C1204 1.524 . S
C1203 H1206 0.999 . S
C1204 H1174 0.950 . S
C1204 C1203 1.524 . S
C1204 C1205 1.415 . S
C1205 H1175 0.950 . S
C1205 C1200 1.363 . S
C1205 C1204 1.415 . S
H1206 C1203 0.999 . S
H1207 C1188 0.913 . S
H1208 C1226 0.951 . S
H1209 C1228 0.951 . S
H1210 C1230 0.950 . S
H1211 C1231 0.950 . S
H1212 C1233 0.950 . S
H1213 C1236 0.950 . S
H1214 C1237 0.950 . S
H1215 C1239 0.950 . S
H1216 C1240 0.950 . S
H1217 C1241 0.951 . S
H1218 C1243 0.951 . S
H1219 C1245 0.950 . S
H1220 C1246 0.950 . S
H1221 C1248 0.950 . S
H1222 C1251 0.950 . S
H1223 C1252 0.950 . S
H1224 C1254 0.950 . S
H1225 C1255 0.950 . S
C1226 H1208 0.951 . S
C1226 C1227 1.366 . S
C1226 C1228 1.388 . S
C1227 C1226 1.366 . S
C1227 C1231 1.385 . S
C1228 H1209 0.951 . S
C1228 C1226 1.388 . S
C1228 C1229 1.366 . S
C1229 C1228 1.366 . S
C1229 C1230 1.414 . S
C1229 C1232 1.499 . S
C1230 H1210 0.950 . S
C1230 C1229 1.414 . S
C1230 C1231 1.374 . S
C1231 H1211 0.950 . S
C1231 C1227 1.385 . S
C1231 C1230 1.374 . S
C1232 C1229 1.499 . S
C1232 C1233 1.373 1_554 S
C1232 C1234 1.389 . S
C1233 H1212 0.950 . S
C1233 C1232 1.373 1_556 S
C1233 C1249 1.377 . S
C1234 C1232 1.389 . S
C1234 C1235 1.524 . S
C1234 C1248 1.377 . S
C1235 C1234 1.524 . S
C1235 C1236 1.397 . S
C1235 C1240 1.363 . S
C1236 H1213 0.950 . S
C1236 C1235 1.397 . S
C1236 C1237 1.334 . S
C1237 H1214 0.950 . S
C1237 C1236 1.334 . S
C1237 C1238 1.287 . S
C1238 C1237 1.287 . S
C1238 C1239 1.524 . S
C1238 H1257 0.913 . S
C1239 H1215 0.950 . S
C1239 C1238 1.524 . S
C1239 C1240 1.415 . S
C1240 H1216 0.950 . S
C1240 C1235 1.363 . S
C1240 C1239 1.415 . S
C1241 H1217 0.951 . S
C1241 C1242 1.366 . S
C1241 C1243 1.388 . S
C1242 C1241 1.366 . S
C1242 C1246 1.385 . S
C1243 H1218 0.951 . S
C1243 C1241 1.388 . S
C1243 C1244 1.366 . S
C1244 C1243 1.366 . S
C1244 C1245 1.414 . S
C1244 C1247 1.499 . S
C1245 H1219 0.950 . S
C1245 C1244 1.414 . S
C1245 C1246 1.374 . S
C1246 H1220 0.950 . S
C1246 C1242 1.385 . S
C1246 C1245 1.374 . S
C1247 C1244 1.499 . S
C1247 C1248 1.373 1_556 S
C1247 C1249 1.389 . S
C1248 H1221 0.950 . S
C1248 C1234 1.377 . S
C1248 C1247 1.373 1_554 S
C1249 C1233 1.377 . S
C1249 C1247 1.389 . S
C1249 C1250 1.524 . S
C1250 C1249 1.524 . S
C1250 C1251 1.397 . S
C1250 C1255 1.363 . S
C1251 H1222 0.950 . S
C1251 C1250 1.397 . S
C1251 C1252 1.334 . S
C1252 H1223 0.950 . S
C1252 C1251 1.334 . S
C1252 C1253 1.287 . S
C1253 C1252 1.287 . S
C1253 C1254 1.524 . S
C1253 H1256 0.999 . S
C1254 H1224 0.950 . S
C1254 C1253 1.524 . S
C1254 C1255 1.415 . S
C1255 H1225 0.950 . S
C1255 C1250 1.363 . S
C1255 C1254 1.415 . S
H1256 C1253 0.999 . S
H1257 C1238 0.913 . S
H1258 C1276 0.951 . S
H1259 C1278 0.951 . S
H1260 C1280 0.950 . S
H1261 C1281 0.950 . S
H1262 C1283 0.950 . S
H1263 C1286 0.950 . S
H1264 C1287 0.950 . S
H1265 C1289 0.950 . S
H1266 C1290 0.950 . S
H1267 C1291 0.951 . S
H1268 C1293 0.951 . S
H1269 C1295 0.950 . S
H1270 C1296 0.950 . S
H1271 C1298 0.950 . S
H1272 C1301 0.950 . S
H1273 C1302 0.950 . S
H1274 C1304 0.950 . S
H1275 C1305 0.950 . S
C1276 H1258 0.951 . S
C1276 C1277 1.366 . S
C1276 C1278 1.388 . S
C1277 C1276 1.366 . S
C1277 C1281 1.385 . S
C1278 H1259 0.951 . S
C1278 C1276 1.388 . S
C1278 C1279 1.366 . S
C1279 C1278 1.366 . S
C1279 C1280 1.414 . S
C1279 C1282 1.499 . S
C1280 H1260 0.950 . S
C1280 C1279 1.414 . S
C1280 C1281 1.374 . S
C1281 H1261 0.950 . S
C1281 C1277 1.385 . S
C1281 C1280 1.374 . S
C1282 C1279 1.499 . S
C1282 C1283 1.373 . S
C1282 C1284 1.389 . S
C1283 H1262 0.950 . S
C1283 C1282 1.373 . S
C1283 C1299 1.377 . S
C1284 C1282 1.389 . S
C1284 C1285 1.524 . S
C1284 C1298 1.377 . S
C1285 C1284 1.524 . S
C1285 C1286 1.397 . S
C1285 C1290 1.363 . S
C1286 H1263 0.950 . S
C1286 C1285 1.397 . S
C1286 C1287 1.334 . S
C1287 H1264 0.950 . S
C1287 C1286 1.334 . S
C1287 C1288 1.287 . S
C1288 C1287 1.287 . S
C1288 C1289 1.524 . S
C1288 H1307 0.913 . S
C1289 H1265 0.950 . S
C1289 C1288 1.524 . S
C1289 C1290 1.415 . S
C1290 H1266 0.950 . S
C1290 C1285 1.363 . S
C1290 C1289 1.415 . S
C1291 H1267 0.951 . S
C1291 C1292 1.366 . S
C1291 C1293 1.388 . S
C1292 C1291 1.366 . S
C1292 C1296 1.385 . S
C1293 H1268 0.951 . S
C1293 C1291 1.388 . S
C1293 C1294 1.366 . S
C1294 C1293 1.366 . S
C1294 C1295 1.414 . S
C1294 C1297 1.499 . S
C1295 H1269 0.950 . S
C1295 C1294 1.414 . S
C1295 C1296 1.374 . S
C1296 H1270 0.950 . S
C1296 C1292 1.385 . S
C1296 C1295 1.374 . S
C1297 C1294 1.499 . S
C1297 C1298 1.373 . S
C1297 C1299 1.389 . S
C1298 H1271 0.950 . S
C1298 C1284 1.377 . S
C1298 C1297 1.373 . S
C1299 C1283 1.377 . S
C1299 C1297 1.389 . S
C1299 C1300 1.524 . S
C1300 C1299 1.524 . S
C1300 C1301 1.397 . S
C1300 C1305 1.363 . S
C1301 H1272 0.950 . S
C1301 C1300 1.397 . S
C1301 C1302 1.334 . S
C1302 H1273 0.950 . S
C1302 C1301 1.334 . S
C1302 C1303 1.287 . S
C1303 C1302 1.287 . S
C1303 C1304 1.524 . S
C1303 H1306 0.999 . S
C1304 H1274 0.950 . S
C1304 C1303 1.524 . S
C1304 C1305 1.415 . S
C1305 H1275 0.950 . S
C1305 C1300 1.363 . S
C1305 C1304 1.415 . S
H1306 C1303 0.999 . S
H1307 C1288 0.913 . S
H1308 C1326 0.951 . S
H1309 C1328 0.951 . S
H1310 C1330 0.950 . S
H1311 C1331 0.950 . S
H1312 C1333 0.950 . S
H1313 C1336 0.950 1_554 S
H1314 C1337 0.950 . S
H1315 C1339 0.950 . S
H1316 C1340 0.950 . S
H1317 C1341 0.951 . S
H1318 C1343 0.951 1_554 S
H1319 C1345 0.950 . S
H1320 C1346 0.950 . S
H1321 C1348 0.950 . S
H1322 C1351 0.950 1_556 S
H1323 C1352 0.950 . S
H1324 C1354 0.950 . S
H1325 C1355 0.950 . S
C1326 H1308 0.951 . S
C1326 C1327 1.366 . S
C1326 C1328 1.388 . S
C1327 C1326 1.366 . S
C1327 C1331 1.385 . S
C1328 H1309 0.951 . S
C1328 C1326 1.388 . S
C1328 C1329 1.366 . S
C1329 C1328 1.366 . S
C1329 C1330 1.414 . S
C1329 C1332 1.499 . S
C1330 H1310 0.950 . S
C1330 C1329 1.414 . S
C1330 C1331 1.374 . S
C1331 H1311 0.950 . S
C1331 C1327 1.385 . S
C1331 C1330 1.374 . S
C1332 C1329 1.499 . S
C1332 C1333 1.373 . S
C1332 C1334 1.389 1_554 S
C1333 H1312 0.950 . S
C1333 C1332 1.373 . S
C1333 C1349 1.377 . S
C1334 C1332 1.389 1_556 S
C1334 C1335 1.524 . S
C1334 C1348 1.377 . S
C1335 C1334 1.524 . S
C1335 C1336 1.397 . S
C1335 C1340 1.363 . S
C1336 H1313 0.950 1_556 S
C1336 C1335 1.397 . S
C1336 C1337 1.334 . S
C1337 H1314 0.950 . S
C1337 C1336 1.334 . S
C1337 C1338 1.287 . S
C1338 C1337 1.287 . S
C1338 C1339 1.524 . S
C1338 H1357 0.913 . S
C1339 H1315 0.950 . S
C1339 C1338 1.524 . S
C1339 C1340 1.415 . S
C1340 H1316 0.950 . S
C1340 C1335 1.363 . S
C1340 C1339 1.415 . S
C1341 H1317 0.951 . S
C1341 C1342 1.366 . S
C1341 C1343 1.388 . S
C1342 C1341 1.366 . S
C1342 C1346 1.385 . S
C1343 H1318 0.951 1_556 S
C1343 C1341 1.388 . S
C1343 C1344 1.366 . S
C1344 C1343 1.366 . S
C1344 C1345 1.414 . S
C1344 C1347 1.499 . S
C1345 H1319 0.950 . S
C1345 C1344 1.414 . S
C1345 C1346 1.374 . S
C1346 H1320 0.950 . S
C1346 C1342 1.385 . S
C1346 C1345 1.374 . S
C1347 C1344 1.499 . S
C1347 C1348 1.373 . S
C1347 C1349 1.389 1_556 S
C1348 H1321 0.950 . S
C1348 C1334 1.377 . S
C1348 C1347 1.373 . S
C1349 C1333 1.377 . S
C1349 C1347 1.389 1_554 S
C1349 C1350 1.524 . S
C1350 C1349 1.524 . S
C1350 C1351 1.397 . S
C1350 C1355 1.363 . S
C1351 H1322 0.950 1_554 S
C1351 C1350 1.397 . S
C1351 C1352 1.334 . S
C1352 H1323 0.950 . S
C1352 C1351 1.334 . S
C1352 C1353 1.287 . S
C1353 C1352 1.287 . S
C1353 C1354 1.524 . S
C1353 H1356 0.999 . S
C1354 H1324 0.950 . S
C1354 C1353 1.524 . S
C1354 C1355 1.415 . S
C1355 H1325 0.950 . S
C1355 C1350 1.363 . S
C1355 C1354 1.415 . S
H1356 C1353 0.999 . S
H1357 C1338 0.913 . S
H1358 C1376 0.951 . S
H1359 C1378 0.951 . S
H1360 C1380 0.950 . S
H1361 C1381 0.950 . S
H1362 C1383 0.950 . S
H1363 C1386 0.950 . S
H1364 C1387 0.950 . S
H1365 C1389 0.950 . S
H1366 C1390 0.950 . S
H1367 C1391 0.951 . S
H1368 C1393 0.951 . S
H1369 C1395 0.950 . S
H1370 C1396 0.950 . S
H1371 C1398 0.950 . S
H1372 C1401 0.950 . S
H1373 C1402 0.950 . S
H1374 C1404 0.950 . S
H1375 C1405 0.950 . S
C1376 H1358 0.951 . S
C1376 C1377 1.366 . S
C1376 C1378 1.388 . S
C1377 C1376 1.366 . S
C1377 C1381 1.385 . S
C1378 H1359 0.951 . S
C1378 C1376 1.388 . S
C1378 C1379 1.366 . S
C1379 C1378 1.366 . S
C1379 C1380 1.414 . S
C1379 C1382 1.499 . S
C1380 H1360 0.950 . S
C1380 C1379 1.414 . S
C1380 C1381 1.374 . S
C1381 H1361 0.950 . S
C1381 C1377 1.385 . S
C1381 C1380 1.374 . S
C1382 C1379 1.499 . S
C1382 C1383 1.373 . S
C1382 C1384 1.389 . S
C1383 H1362 0.950 . S
C1383 C1382 1.373 . S
C1383 C1399 1.377 . S
C1384 C1382 1.389 . S
C1384 C1385 1.524 . S
C1384 C1398 1.377 . S
C1385 C1384 1.524 . S
C1385 C1386 1.397 . S
C1385 C1390 1.363 . S
C1386 H1363 0.950 . S
C1386 C1385 1.397 . S
C1386 C1387 1.334 . S
C1387 H1364 0.950 . S
C1387 C1386 1.334 . S
C1387 C1388 1.287 . S
C1388 C1387 1.287 . S
C1388 C1389 1.524 . S
C1388 H1407 0.913 . S
C1389 H1365 0.950 . S
C1389 C1388 1.524 . S
C1389 C1390 1.415 . S
C1390 H1366 0.950 . S
C1390 C1385 1.363 . S
C1390 C1389 1.415 . S
C1391 H1367 0.951 . S
C1391 C1392 1.366 . S
C1391 C1393 1.388 . S
C1392 C1391 1.366 . S
C1392 C1396 1.385 . S
C1393 H1368 0.951 . S
C1393 C1391 1.388 . S
C1393 C1394 1.366 . S
C1394 C1393 1.366 . S
C1394 C1395 1.414 . S
C1394 C1397 1.499 . S
C1395 H1369 0.950 . S
C1395 C1394 1.414 . S
C1395 C1396 1.374 . S
C1396 H1370 0.950 . S
C1396 C1392 1.385 . S
C1396 C1395 1.374 . S
C1397 C1394 1.499 . S
C1397 C1398 1.373 . S
C1397 C1399 1.389 . S
C1398 H1371 0.950 . S
C1398 C1384 1.377 . S
C1398 C1397 1.373 . S
C1399 C1383 1.377 . S
C1399 C1397 1.389 . S
C1399 C1400 1.524 . S
C1400 C1399 1.524 . S
C1400 C1401 1.397 . S
C1400 C1405 1.363 . S
C1401 H1372 0.950 . S
C1401 C1400 1.397 . S
C1401 C1402 1.334 . S
C1402 H1373 0.950 . S
C1402 C1401 1.334 . S
C1402 C1403 1.287 . S
C1403 C1402 1.287 . S
C1403 C1404 1.524 . S
C1403 H1406 0.999 . S
C1404 H1374 0.950 . S
C1404 C1403 1.524 . S
C1404 C1405 1.415 . S
C1405 H1375 0.950 . S
C1405 C1400 1.363 . S
C1405 C1404 1.415 . S
H1406 C1403 0.999 . S
H1407 C1388 0.913 . S
H1408 C1426 0.951 . S
H1409 C1428 0.951 . S
H1410 C1430 0.950 . S
H1411 C1431 0.950 . S
H1412 C1433 0.950 . S
H1413 C1436 0.950 . S
H1414 C1437 0.950 . S
H1415 C1439 0.950 . S
H1416 C1440 0.950 1_556 S
H1417 C1441 0.951 . S
H1418 C1443 0.951 . S
H1419 C1445 0.950 . S
H1420 C1446 0.950 . S
H1421 C1448 0.950 . S
H1422 C1451 0.950 . S
H1423 C1452 0.950 . S
H1424 C1454 0.950 . S
H1425 C1455 0.950 1_554 S
C1426 H1408 0.951 . S
C1426 C1427 1.366 . S
C1426 C1428 1.388 . S
C1427 C1426 1.366 . S
C1427 C1431 1.385 . S
C1428 H1409 0.951 . S
C1428 C1426 1.388 . S
C1428 C1429 1.366 . S
C1429 C1428 1.366 . S
C1429 C1430 1.414 . S
C1429 C1432 1.499 . S
C1430 H1410 0.950 . S
C1430 C1429 1.414 . S
C1430 C1431 1.374 . S
C1431 H1411 0.950 . S
C1431 C1427 1.385 . S
C1431 C1430 1.374 . S
C1432 C1429 1.499 . S
C1432 C1433 1.373 . S
C1432 C1434 1.389 1_556 S
C1433 H1412 0.950 . S
C1433 C1432 1.373 . S
C1433 C1449 1.377 . S
C1434 C1432 1.389 1_554 S
C1434 C1435 1.524 . S
C1434 C1448 1.377 . S
C1435 C1434 1.524 . S
C1435 C1436 1.397 . S
C1435 C1440 1.363 . S
C1436 H1413 0.950 . S
C1436 C1435 1.397 . S
C1436 C1437 1.334 . S
C1437 H1414 0.950 . S
C1437 C1436 1.334 . S
C1437 C1438 1.287 . S
C1438 C1437 1.287 . S
C1438 C1439 1.524 . S
C1438 H1457 0.913 . S
C1439 H1415 0.950 . S
C1439 C1438 1.524 . S
C1439 C1440 1.415 . S
C1440 H1416 0.950 1_554 S
C1440 C1435 1.363 . S
C1440 C1439 1.415 . S
C1441 H1417 0.951 . S
C1441 C1442 1.366 . S
C1441 C1443 1.388 . S
C1442 C1441 1.366 . S
C1442 C1446 1.385 . S
C1443 H1418 0.951 . S
C1443 C1441 1.388 . S
C1443 C1444 1.366 . S
C1444 C1443 1.366 . S
C1444 C1445 1.414 . S
C1444 C1447 1.499 . S
C1445 H1419 0.950 . S
C1445 C1444 1.414 . S
C1445 C1446 1.374 . S
C1446 H1420 0.950 . S
C1446 C1442 1.385 . S
C1446 C1445 1.374 . S
C1447 C1444 1.499 . S
C1447 C1448 1.373 . S
C1447 C1449 1.389 1_554 S
C1448 H1421 0.950 . S
C1448 C1434 1.377 . S
C1448 C1447 1.373 . S
C1449 C1433 1.377 . S
C1449 C1447 1.389 1_556 S
C1449 C1450 1.524 . S
C1450 C1449 1.524 . S
C1450 C1451 1.397 . S
C1450 C1455 1.363 . S
C1451 H1422 0.950 . S
C1451 C1450 1.397 . S
C1451 C1452 1.334 . S
C1452 H1423 0.950 . S
C1452 C1451 1.334 . S
C1452 C1453 1.287 . S
C1453 C1452 1.287 . S
C1453 C1454 1.524 . S
C1453 H1456 0.999 . S
C1454 H1424 0.950 . S
C1454 C1453 1.524 . S
C1454 C1455 1.415 . S
C1455 H1425 0.950 1_556 S
C1455 C1450 1.363 . S
C1455 C1454 1.415 . S
H1456 C1453 0.999 . S
H1457 C1438 0.913 . S
H1458 C1476 0.951 . S
H1459 C1478 0.951 . S
H1460 C1480 0.950 . S
H1461 C1481 0.950 . S
H1462 C1483 0.950 . S
H1463 C1486 0.950 . S
H1464 C1487 0.950 . S
H1465 C1489 0.950 . S
H1466 C1490 0.950 . S
H1467 C1491 0.951 . S
H1468 C1493 0.951 . S
H1469 C1495 0.950 . S
H1470 C1496 0.950 . S
H1471 C1498 0.950 . S
H1472 C1501 0.950 . S
H1473 C1502 0.950 . S
H1474 C1504 0.950 . S
H1475 C1505 0.950 . S
C1476 H1458 0.951 . S
C1476 C1477 1.366 . S
C1476 C1478 1.388 . S
C1477 C1476 1.366 . S
C1477 C1481 1.385 . S
C1478 H1459 0.951 . S
C1478 C1476 1.388 . S
C1478 C1479 1.366 . S
C1479 C1478 1.366 . S
C1479 C1480 1.414 . S
C1479 C1482 1.499 . S
C1480 H1460 0.950 . S
C1480 C1479 1.414 . S
C1480 C1481 1.374 . S
C1481 H1461 0.950 . S
C1481 C1477 1.385 . S
C1481 C1480 1.374 . S
C1482 C1479 1.499 . S
C1482 C1483 1.373 . S
C1482 C1484 1.389 . S
C1483 H1462 0.950 . S
C1483 C1482 1.373 . S
C1483 C1499 1.377 . S
C1484 C1482 1.389 . S
C1484 C1485 1.524 . S
C1484 C1498 1.377 . S
C1485 C1484 1.524 . S
C1485 C1486 1.397 . S
C1485 C1490 1.363 . S
C1486 H1463 0.950 . S
C1486 C1485 1.397 . S
C1486 C1487 1.334 . S
C1487 H1464 0.950 . S
C1487 C1486 1.334 . S
C1487 C1488 1.287 . S
C1488 C1487 1.287 . S
C1488 C1489 1.524 . S
C1488 H1507 0.913 . S
C1489 H1465 0.950 . S
C1489 C1488 1.524 . S
C1489 C1490 1.415 . S
C1490 H1466 0.950 . S
C1490 C1485 1.363 . S
C1490 C1489 1.415 . S
C1491 H1467 0.951 . S
C1491 C1492 1.366 . S
C1491 C1493 1.388 . S
C1492 C1491 1.366 . S
C1492 C1496 1.385 . S
C1493 H1468 0.951 . S
C1493 C1491 1.388 . S
C1493 C1494 1.366 . S
C1494 C1493 1.366 . S
C1494 C1495 1.414 . S
C1494 C1497 1.499 . S
C1495 H1469 0.950 . S
C1495 C1494 1.414 . S
C1495 C1496 1.374 . S
C1496 H1470 0.950 . S
C1496 C1492 1.385 . S
C1496 C1495 1.374 . S
C1497 C1494 1.499 . S
C1497 C1498 1.373 . S
C1497 C1499 1.389 . S
C1498 H1471 0.950 . S
C1498 C1484 1.377 . S
C1498 C1497 1.373 . S
C1499 C1483 1.377 . S
C1499 C1497 1.389 . S
C1499 C1500 1.524 . S
C1500 C1499 1.524 . S
C1500 C1501 1.397 . S
C1500 C1505 1.363 . S
C1501 H1472 0.950 . S
C1501 C1500 1.397 . S
C1501 C1502 1.334 . S
C1502 H1473 0.950 . S
C1502 C1501 1.334 . S
C1502 C1503 1.287 . S
C1503 C1502 1.287 . S
C1503 C1504 1.524 . S
C1503 H1506 0.999 . S
C1504 H1474 0.950 . S
C1504 C1503 1.524 . S
C1504 C1505 1.415 . S
C1505 H1475 0.950 . S
C1505 C1500 1.363 . S
C1505 C1504 1.415 . S
H1506 C1503 0.999 . S
H1507 C1488 0.913 . S
H1508 C1526 0.951 . S
H1509 C1528 0.951 . S
H1510 C1530 0.950 . S
H1511 C1531 0.950 . S
H1512 C1533 0.950 . S
H1513 C1536 0.950 . S
H1514 C1537 0.950 . S
H1515 C1539 0.950 . S
H1516 C1540 0.950 . S
H1517 C1541 0.951 . S
H1518 C1543 0.951 . S
H1519 C1545 0.950 . S
H1520 C1546 0.950 . S
H1521 C1548 0.950 . S
H1522 C1551 0.950 . S
H1523 C1552 0.950 . S
H1524 C1554 0.950 . S
H1525 C1555 0.950 . S
C1526 H1508 0.951 . S
C1526 C1527 1.366 . S
C1526 C1528 1.388 . S
C1527 C1526 1.366 . S
C1527 C1531 1.385 . S
C1528 H1509 0.951 . S
C1528 C1526 1.388 . S
C1528 C1529 1.366 . S
C1529 C1528 1.366 . S
C1529 C1530 1.414 . S
C1529 C1532 1.499 . S
C1530 H1510 0.950 . S
C1530 C1529 1.414 . S
C1530 C1531 1.374 . S
C1531 H1511 0.950 . S
C1531 C1527 1.385 . S
C1531 C1530 1.374 . S
C1532 C1529 1.499 . S
C1532 C1533 1.373 . S
C1532 C1534 1.389 1_554 S
C1533 H1512 0.950 . S
C1533 C1532 1.373 . S
C1533 C1549 1.377 . S
C1534 C1532 1.389 1_556 S
C1534 C1535 1.524 . S
C1534 C1548 1.377 . S
C1535 C1534 1.524 . S
C1535 C1536 1.397 . S
C1535 C1540 1.363 . S
C1536 H1513 0.950 . S
C1536 C1535 1.397 . S
C1536 C1537 1.334 . S
C1537 H1514 0.950 . S
C1537 C1536 1.334 . S
C1537 C1538 1.287 . S
C1538 C1537 1.287 . S
C1538 C1539 1.524 . S
C1538 H1557 0.913 . S
C1539 H1515 0.950 . S
C1539 C1538 1.524 . S
C1539 C1540 1.415 . S
C1540 H1516 0.950 . S
C1540 C1535 1.363 . S
C1540 C1539 1.415 . S
C1541 H1517 0.951 . S
C1541 C1542 1.366 . S
C1541 C1543 1.388 . S
C1542 C1541 1.366 . S
C1542 C1546 1.385 . S
C1543 H1518 0.951 . S
C1543 C1541 1.388 . S
C1543 C1544 1.366 . S
C1544 C1543 1.366 . S
C1544 C1545 1.414 . S
C1544 C1547 1.499 . S
C1545 H1519 0.950 . S
C1545 C1544 1.414 . S
C1545 C1546 1.374 . S
C1546 H1520 0.950 . S
C1546 C1542 1.385 . S
C1546 C1545 1.374 . S
C1547 C1544 1.499 . S
C1547 C1548 1.373 . S
C1547 C1549 1.389 1_556 S
C1548 H1521 0.950 . S
C1548 C1534 1.377 . S
C1548 C1547 1.373 . S
C1549 C1533 1.377 . S
C1549 C1547 1.389 1_554 S
C1549 C1550 1.524 . S
C1550 C1549 1.524 . S
C1550 C1551 1.397 . S
C1550 C1555 1.363 . S
C1551 H1522 0.950 . S
C1551 C1550 1.397 . S
C1551 C1552 1.334 . S
C1552 H1523 0.950 . S
C1552 C1551 1.334 . S
C1552 C1553 1.287 . S
C1553 C1552 1.287 . S
C1553 C1554 1.524 . S
C1553 H1556 0.999 . S
C1554 H1524 0.950 . S
C1554 C1553 1.524 . S
C1554 C1555 1.415 . S
C1555 H1525 0.950 . S
C1555 C1550 1.363 . S
C1555 C1554 1.415 . S
H1556 C1553 0.999 . S
H1557 C1538 0.913 . S
H1558 C1576 0.951 . S
H1559 C1578 0.951 . S
H1560 C1580 0.950 . S
H1561 C1581 0.950 . S
H1562 C1583 0.950 . S
H1563 C1586 0.950 . S
H1564 C1587 0.950 . S
H1565 C1589 0.950 . S
H1566 C1590 0.950 . S
H1567 C1591 0.951 . S
H1568 C1593 0.951 . S
H1569 C1595 0.950 . S
H1570 C1596 0.950 . S
H1571 C1598 0.950 . S
H1572 C1601 0.950 . S
H1573 C1602 0.950 . S
H1574 C1604 0.950 . S
H1575 C1605 0.950 . S
C1576 H1558 0.951 . S
C1576 C1577 1.366 . S
C1576 C1578 1.388 . S
C1577 C1576 1.366 . S
C1577 C1581 1.385 . S
C1578 H1559 0.951 . S
C1578 C1576 1.388 . S
C1578 C1579 1.366 . S
C1579 C1578 1.366 . S
C1579 C1580 1.414 . S
C1579 C1582 1.499 . S
C1580 H1560 0.950 . S
C1580 C1579 1.414 . S
C1580 C1581 1.374 . S
C1581 H1561 0.950 . S
C1581 C1577 1.385 . S
C1581 C1580 1.374 . S
C1582 C1579 1.499 . S
C1582 C1583 1.373 . S
C1582 C1584 1.389 . S
C1583 H1562 0.950 . S
C1583 C1582 1.373 . S
C1583 C1599 1.377 . S
C1584 C1582 1.389 . S
C1584 C1585 1.524 . S
C1584 C1598 1.377 . S
C1585 C1584 1.524 . S
C1585 C1586 1.397 . S
C1585 C1590 1.363 . S
C1586 H1563 0.950 . S
C1586 C1585 1.397 . S
C1586 C1587 1.334 . S
C1587 H1564 0.950 . S
C1587 C1586 1.334 . S
C1587 C1588 1.287 . S
C1588 C1587 1.287 . S
C1588 C1589 1.524 . S
C1588 H1607 0.913 . S
C1589 H1565 0.950 . S
C1589 C1588 1.524 . S
C1589 C1590 1.415 . S
C1590 H1566 0.950 . S
C1590 C1585 1.363 . S
C1590 C1589 1.415 . S
C1591 H1567 0.951 . S
C1591 C1592 1.366 . S
C1591 C1593 1.388 . S
C1592 C1591 1.366 . S
C1592 C1596 1.385 . S
C1593 H1568 0.951 . S
C1593 C1591 1.388 . S
C1593 C1594 1.366 . S
C1594 C1593 1.366 . S
C1594 C1595 1.414 . S
C1594 C1597 1.499 . S
C1595 H1569 0.950 . S
C1595 C1594 1.414 . S
C1595 C1596 1.374 . S
C1596 H1570 0.950 . S
C1596 C1592 1.385 . S
C1596 C1595 1.374 . S
C1597 C1594 1.499 . S
C1597 C1598 1.373 . S
C1597 C1599 1.389 . S
C1598 H1571 0.950 . S
C1598 C1584 1.377 . S
C1598 C1597 1.373 . S
C1599 C1583 1.377 . S
C1599 C1597 1.389 . S
C1599 C1600 1.524 . S
C1600 C1599 1.524 . S
C1600 C1601 1.397 . S
C1600 C1605 1.363 . S
C1601 H1572 0.950 . S
C1601 C1600 1.397 . S
C1601 C1602 1.334 . S
C1602 H1573 0.950 . S
C1602 C1601 1.334 . S
C1602 C1603 1.287 . S
C1603 C1602 1.287 . S
C1603 C1604 1.524 . S
C1603 H1606 0.999 . S
C1604 H1574 0.950 . S
C1604 C1603 1.524 . S
C1604 C1605 1.415 . S
C1605 H1575 0.950 . S
C1605 C1600 1.363 . S
C1605 C1604 1.415 . S
H1606 C1603 0.999 . S
H1607 C1588 0.913 . S
H1608 C1626 0.951 . S
H1609 C1628 0.951 . S
H1610 C1630 0.950 . S
H1611 C1631 0.950 . S
H1612 C1633 0.950 . S
H1613 C1636 0.950 . S
H1614 C1637 0.950 . S
H1615 C1639 0.950 . S
H1616 C1640 0.950 . S
H1617 C1641 0.951 . S
H1618 C1643 0.951 . S
H1619 C1645 0.950 . S
H1620 C1646 0.950 . S
H1621 C1648 0.950 . S
H1622 C1651 0.950 . S
H1623 C1652 0.950 . S
H1624 C1654 0.950 . S
H1625 C1655 0.950 . S
C1626 H1608 0.951 . S
C1626 C1627 1.366 . S
C1626 C1628 1.388 . S
C1627 C1626 1.366 . S
C1627 C1631 1.385 . S
C1628 H1609 0.951 . S
C1628 C1626 1.388 . S
C1628 C1629 1.366 . S
C1629 C1628 1.366 . S
C1629 C1630 1.414 . S
C1629 C1632 1.499 . S
C1630 H1610 0.950 . S
C1630 C1629 1.414 . S
C1630 C1631 1.374 . S
C1631 H1611 0.950 . S
C1631 C1627 1.385 . S
C1631 C1630 1.374 . S
C1632 C1629 1.499 . S
C1632 C1633 1.373 1_556 S
C1632 C1634 1.389 . S
C1633 H1612 0.950 . S
C1633 C1632 1.373 1_554 S
C1633 C1649 1.377 1_545 S
C1634 C1632 1.389 . S
C1634 C1635 1.524 . S
C1634 C1648 1.377 1_545 S
C1635 C1634 1.524 . S
C1635 C1636 1.397 . S
C1635 C1640 1.363 1_545 S
C1636 H1613 0.950 . S
C1636 C1635 1.397 . S
C1636 C1637 1.334 . S
C1637 H1614 0.950 . S
C1637 C1636 1.334 . S
C1637 C1638 1.287 . S
C1638 C1637 1.287 . S
C1638 C1639 1.524 1_545 S
C1638 H1657 0.913 . S
C1639 H1615 0.950 . S
C1639 C1638 1.524 1_565 S
C1639 C1640 1.415 . S
C1640 H1616 0.950 . S
C1640 C1635 1.363 1_565 S
C1640 C1639 1.415 . S
C1641 H1617 0.951 . S
C1641 C1642 1.366 . S
C1641 C1643 1.388 . S
C1642 C1641 1.366 . S
C1642 C1646 1.385 . S
C1643 H1618 0.951 . S
C1643 C1641 1.388 . S
C1643 C1644 1.366 . S
C1644 C1643 1.366 . S
C1644 C1645 1.414 . S
C1644 C1647 1.499 . S
C1645 H1619 0.950 . S
C1645 C1644 1.414 . S
C1645 C1646 1.374 . S
C1646 H1620 0.950 . S
C1646 C1642 1.385 . S
C1646 C1645 1.374 . S
C1647 C1644 1.499 . S
C1647 C1648 1.373 1_554 S
C1647 C1649 1.389 . S
C1648 H1621 0.950 . S
C1648 C1634 1.377 1_565 S
C1648 C1647 1.373 1_556 S
C1649 C1633 1.377 1_565 S
C1649 C1647 1.389 . S
C1649 C1650 1.524 . S
C1650 C1649 1.524 . S
C1650 C1651 1.397 . S
C1650 C1655 1.363 1_565 S
C1651 H1622 0.950 . S
C1651 C1650 1.397 . S
C1651 C1652 1.334 . S
C1652 H1623 0.950 . S
C1652 C1651 1.334 . S
C1652 C1653 1.287 . S
C1653 C1652 1.287 . S
C1653 C1654 1.524 1_565 S
C1653 H1656 0.999 . S
C1654 H1624 0.950 . S
C1654 C1653 1.524 1_545 S
C1654 C1655 1.415 . S
C1655 H1625 0.950 . S
C1655 C1650 1.363 1_545 S
C1655 C1654 1.415 . S
H1656 C1653 0.999 . S
H1657 C1638 0.913 . S
H1658 C1676 0.951 . S
H1659 C1678 0.951 . S
H1660 C1680 0.950 . S
H1661 C1681 0.950 . S
H1662 C1683 0.950 . S
H1663 C1686 0.950 . S
H1664 C1687 0.950 . S
H1665 C1689 0.950 . S
H1666 C1690 0.950 . S
H1667 C1691 0.951 . S
H1668 C1693 0.951 . S
H1669 C1695 0.950 . S
H1670 C1696 0.950 . S
H1671 C1698 0.950 . S
H1672 C1701 0.950 . S
H1673 C1702 0.950 . S
H1674 C1704 0.950 . S
H1675 C1705 0.950 . S
C1676 H1658 0.951 . S
C1676 C1677 1.366 . S
C1676 C1678 1.388 . S
C1677 C1676 1.366 . S
C1677 C1681 1.385 . S
C1678 H1659 0.951 . S
C1678 C1676 1.388 . S
C1678 C1679 1.366 . S
C1679 C1678 1.366 . S
C1679 C1680 1.414 . S
C1679 C1682 1.499 . S
C1680 H1660 0.950 . S
C1680 C1679 1.414 . S
C1680 C1681 1.374 . S
C1681 H1661 0.950 . S
C1681 C1677 1.385 . S
C1681 C1680 1.374 . S
C1682 C1679 1.499 . S
C1682 C1683 1.373 . S
C1682 C1684 1.389 . S
C1683 H1662 0.950 . S
C1683 C1682 1.373 . S
C1683 C1699 1.377 1_565 S
C1684 C1682 1.389 . S
C1684 C1685 1.524 . S
C1684 C1698 1.377 1_565 S
C1685 C1684 1.524 . S
C1685 C1686 1.397 . S
C1685 C1690 1.363 . S
C1686 H1663 0.950 . S
C1686 C1685 1.397 . S
C1686 C1687 1.334 . S
C1687 H1664 0.950 . S
C1687 C1686 1.334 . S
C1687 C1688 1.287 . S
C1688 C1687 1.287 . S
C1688 C1689 1.524 . S
C1688 H1707 0.913 . S
C1689 H1665 0.950 . S
C1689 C1688 1.524 . S
C1689 C1690 1.415 . S
C1690 H1666 0.950 . S
C1690 C1685 1.363 . S
C1690 C1689 1.415 . S
C1691 H1667 0.951 . S
C1691 C1692 1.366 . S
C1691 C1693 1.388 . S
C1692 C1691 1.366 . S
C1692 C1696 1.385 . S
C1693 H1668 0.951 . S
C1693 C1691 1.388 . S
C1693 C1694 1.366 . S
C1694 C1693 1.366 . S
C1694 C1695 1.414 . S
C1694 C1697 1.499 . S
C1695 H1669 0.950 . S
C1695 C1694 1.414 . S
C1695 C1696 1.374 . S
C1696 H1670 0.950 . S
C1696 C1692 1.385 . S
C1696 C1695 1.374 . S
C1697 C1694 1.499 . S
C1697 C1698 1.373 . S
C1697 C1699 1.389 . S
C1698 H1671 0.950 . S
C1698 C1684 1.377 1_545 S
C1698 C1697 1.373 . S
C1699 C1683 1.377 1_545 S
C1699 C1697 1.389 . S
C1699 C1700 1.524 . S
C1700 C1699 1.524 . S
C1700 C1701 1.397 . S
C1700 C1705 1.363 . S
C1701 H1672 0.950 . S
C1701 C1700 1.397 . S
C1701 C1702 1.334 . S
C1702 H1673 0.950 . S
C1702 C1701 1.334 . S
C1702 C1703 1.287 . S
C1703 C1702 1.287 . S
C1703 C1704 1.524 . S
C1703 H1706 0.999 . S
C1704 H1674 0.950 . S
C1704 C1703 1.524 . S
C1704 C1705 1.415 . S
C1705 H1675 0.950 . S
C1705 C1700 1.363 . S
C1705 C1704 1.415 . S
H1706 C1703 0.999 . S
H1707 C1688 0.913 . S
H1708 C1726 0.951 . S
H1709 C1728 0.951 . S
H1710 C1730 0.950 . S
H1711 C1731 0.950 . S
H1712 C1733 0.950 . S
H1713 C1736 0.950 . S
H1714 C1737 0.950 . S
H1715 C1739 0.950 . S
H1716 C1740 0.950 . S
H1717 C1741 0.951 . S
H1718 C1743 0.951 . S
H1719 C1745 0.950 . S
H1720 C1746 0.950 . S
H1721 C1748 0.950 . S
H1722 C1751 0.950 . S
H1723 C1752 0.950 . S
H1724 C1754 0.950 . S
H1725 C1755 0.950 . S
C1726 H1708 0.951 . S
C1726 C1727 1.366 . S
C1726 C1728 1.388 . S
C1727 C1726 1.366 . S
C1727 C1731 1.385 . S
C1728 H1709 0.951 . S
C1728 C1726 1.388 . S
C1728 C1729 1.366 . S
C1729 C1728 1.366 . S
C1729 C1730 1.414 . S
C1729 C1732 1.499 . S
C1730 H1710 0.950 . S
C1730 C1729 1.414 . S
C1730 C1731 1.374 . S
C1731 H1711 0.950 . S
C1731 C1727 1.385 . S
C1731 C1730 1.374 . S
C1732 C1729 1.499 . S
C1732 C1733 1.373 1_554 S
C1732 C1734 1.411 . S
C1733 H1712 0.950 . S
C1733 C1732 1.373 1_556 S
C1733 C1749 1.355 1_565 S
C1734 C1732 1.411 . S
C1734 C1735 1.523 1_565 S
C1734 C1748 1.354 1_565 S
C1735 C1734 1.523 1_545 S
C1735 C1736 1.381 1_545 S
C1735 C1740 1.384 . S
C1736 H1713 0.950 . S
C1736 C1735 1.381 1_565 S
C1736 C1737 1.334 . S
C1737 H1714 0.950 . S
C1737 C1736 1.334 . S
C1737 C1738 1.287 1_565 S
C1738 C1737 1.287 1_545 S
C1738 C1739 1.524 . S
C1738 H1757 0.913 . S
C1739 H1715 0.950 . S
C1739 C1738 1.524 . S
C1739 C1740 1.415 . S
C1740 H1716 0.950 . S
C1740 C1735 1.384 . S
C1740 C1739 1.415 . S
C1741 H1717 0.951 . S
C1741 C1742 1.366 . S
C1741 C1743 1.388 . S
C1742 C1741 1.366 . S
C1742 C1746 1.385 . S
C1743 H1718 0.951 . S
C1743 C1741 1.388 . S
C1743 C1744 1.366 . S
C1744 C1743 1.366 . S
C1744 C1745 1.414 . S
C1744 C1747 1.499 . S
C1745 H1719 0.950 . S
C1745 C1744 1.414 . S
C1745 C1746 1.374 . S
C1746 H1720 0.950 . S
C1746 C1742 1.385 . S
C1746 C1745 1.374 . S
C1747 C1744 1.499 . S
C1747 C1748 1.373 1_556 S
C1747 C1749 1.411 . S
C1748 H1721 0.950 . S
C1748 C1734 1.354 1_545 S
C1748 C1747 1.373 1_554 S
C1749 C1733 1.355 1_545 S
C1749 C1747 1.411 . S
C1749 C1750 1.523 1_545 S
C1750 C1749 1.523 1_565 S
C1750 C1751 1.380 1_565 S
C1750 C1755 1.384 . S
C1751 H1722 0.950 . S
C1751 C1750 1.380 1_545 S
C1751 C1752 1.334 . S
C1752 H1723 0.950 . S
C1752 C1751 1.334 . S
C1752 C1753 1.287 1_545 S
C1753 C1752 1.287 1_565 S
C1753 C1754 1.524 . S
C1753 H1756 0.999 . S
C1754 H1724 0.950 . S
C1754 C1753 1.524 . S
C1754 C1755 1.415 . S
C1755 H1725 0.950 . S
C1755 C1750 1.384 . S
C1755 C1754 1.415 . S
H1756 C1753 0.999 . S
H1757 C1738 0.913 . S
H1758 C1776 0.951 . S
H1759 C1778 0.951 . S
H1760 C1780 0.950 . S
H1761 C1781 0.950 . S
H1762 C1783 0.950 . S
H1763 C1786 0.950 . S
H1764 C1787 0.950 . S
H1765 C1789 0.950 . S
H1766 C1790 0.950 . S
H1767 C1791 0.951 . S
H1768 C1793 0.951 . S
H1769 C1795 0.950 . S
H1770 C1796 0.950 . S
H1771 C1798 0.950 . S
H1772 C1801 0.950 . S
H1773 C1802 0.950 . S
H1774 C1804 0.950 . S
H1775 C1805 0.950 . S
C1776 H1758 0.951 . S
C1776 C1777 1.366 . S
C1776 C1778 1.388 . S
C1777 C1776 1.366 . S
C1777 C1781 1.385 . S
C1778 H1759 0.951 . S
C1778 C1776 1.388 . S
C1778 C1779 1.366 . S
C1779 C1778 1.366 . S
C1779 C1780 1.414 . S
C1779 C1782 1.499 . S
C1780 H1760 0.950 . S
C1780 C1779 1.414 . S
C1780 C1781 1.374 . S
C1781 H1761 0.950 . S
C1781 C1777 1.385 . S
C1781 C1780 1.374 . S
C1782 C1779 1.499 . S
C1782 C1783 1.373 . S
C1782 C1784 1.389 . S
C1783 H1762 0.950 . S
C1783 C1782 1.373 . S
C1783 C1799 1.377 1_545 S
C1784 C1782 1.389 . S
C1784 C1785 1.524 . S
C1784 C1798 1.377 1_545 S
C1785 C1784 1.524 . S
C1785 C1786 1.397 . S
C1785 C1790 1.363 1_545 S
C1786 H1763 0.950 . S
C1786 C1785 1.397 . S
C1786 C1787 1.334 . S
C1787 H1764 0.950 . S
C1787 C1786 1.334 . S
C1787 C1788 1.287 . S
C1788 C1787 1.287 . S
C1788 C1789 1.524 1_545 S
C1788 H1807 0.913 . S
C1789 H1765 0.950 . S
C1789 C1788 1.524 1_565 S
C1789 C1790 1.415 . S
C1790 H1766 0.950 . S
C1790 C1785 1.363 1_565 S
C1790 C1789 1.415 . S
C1791 H1767 0.951 . S
C1791 C1792 1.366 . S
C1791 C1793 1.388 . S
C1792 C1791 1.366 . S
C1792 C1796 1.385 . S
C1793 H1768 0.951 . S
C1793 C1791 1.388 . S
C1793 C1794 1.366 . S
C1794 C1793 1.366 . S
C1794 C1795 1.414 . S
C1794 C1797 1.499 . S
C1795 H1769 0.950 . S
C1795 C1794 1.414 . S
C1795 C1796 1.374 . S
C1796 H1770 0.950 . S
C1796 C1792 1.385 . S
C1796 C1795 1.374 . S
C1797 C1794 1.499 . S
C1797 C1798 1.373 . S
C1797 C1799 1.389 . S
C1798 H1771 0.950 . S
C1798 C1784 1.377 1_565 S
C1798 C1797 1.373 . S
C1799 C1783 1.377 1_565 S
C1799 C1797 1.389 . S
C1799 C1800 1.524 . S
C1800 C1799 1.524 . S
C1800 C1801 1.397 . S
C1800 C1805 1.363 1_565 S
C1801 H1772 0.950 . S
C1801 C1800 1.397 . S
C1801 C1802 1.334 . S
C1802 H1773 0.950 . S
C1802 C1801 1.334 . S
C1802 C1803 1.287 . S
C1803 C1802 1.287 . S
C1803 C1804 1.524 1_565 S
C1803 H1806 0.999 . S
C1804 H1774 0.950 . S
C1804 C1803 1.524 1_545 S
C1804 C1805 1.415 . S
C1805 H1775 0.950 . S
C1805 C1800 1.363 1_545 S
C1805 C1804 1.415 . S
H1806 C1803 0.999 . S
H1807 C1788 0.913 . S
C227 C3 1.448 . S
C242 C83 1.446 . S
C277 C16 1.448 . S
C292 C96 1.446 . S
C327 C55 1.447 . S
C342 C31 1.448 . S
C377 C70 1.447 . S
C392 C44 1.448 . S
C427 C187 1.447 . S
C442 C109 1.448 . S
C477 C200 1.447 . S
C492 C120 1.448 . S
C527 C135 1.448 . S
C542 C161 1.447 . S
C577 C146 1.448 . S
C592 C174 1.447 . S
C627 C4 1.554 . S
C642 C68 1.553 . S
C677 C17 1.554 . S
C692 C57 1.554 . S
C727 C36 1.553 . S
C742 C94 1.554 . S
C777 C81 1.553 . S
C792 C49 1.554 . S
C827 C172 1.554 . S
C842 C114 1.554 . S
C877 C159 1.554 . S
C892 C121 1.554 . S
C927 C140 1.554 . S
C942 C198 1.554 . S
C977 C185 1.554 . S
C992 C147 1.553 . S
C1027 C160 1.457 . S
C1042 C10 1.459 . S
C1077 C23 1.459 . S
C1092 C173 1.457 . S
C1127 C186 1.457 . S
C1142 C30 1.459 . S
C1177 C199 1.457 . S
C1192 C43 1.458 . S
C1227 C108 1.459 . S
C1242 C62 1.457 . S
C1277 C127 1.459 . S
C1292 C69 1.457 . S
C1327 C82 1.457 . S
C1342 C134 1.459 . S
C1377 C95 1.457 . S
C1392 C153 1.459 . S
C1427 C29 1.780 . S
C1442 C5 1.780 . S
C1477 C18 1.780 . S
C1492 C42 1.780 . S
C1527 C88 1.302 . S
C1542 C56 1.302 . S
C1577 C75 1.302 . S
C1592 C101 1.302 . S
C1627 C133 1.780 . S
C1642 C107 1.780 . S
C1677 C148 1.780 . S
C1692 C122 1.780 . S
C1727 C192 1.302 . S
C1742 C166 1.303 . S
C1777 C205 1.302 . S
C1792 C179 1.303 . S
