# Generated by pormake.
# Topology pem, (4)-cn, num edge types: 1
# Building blocks:
#     Node 0, Type 0, BuildingBlock: NAHDIM_clean_sbu_0, # of connection points: 4
#     Node 1, Type 0, BuildingBlock: NAHDIM_clean_sbu_0, # of connection points: 4
#     Node 2, Type 0, BuildingBlock: NAHDIM_clean_sbu_0, # of connection points: 4
#     Node 3, Type 0, BuildingBlock: NAHDIM_clean_sbu_0, # of connection points: 4
#     Node 4, Type 0, BuildingBlock: NAHDIM_clean_sbu_0, # of connection points: 4
#     Node 5, Type 0, BuildingBlock: NAHDIM_clean_sbu_0, # of connection points: 4
#     Node 6, Type 0, BuildingBlock: NAHDIM_clean_sbu_0, # of connection points: 4
#     Node 7, Type 0, BuildingBlock: NAHDIM_clean_sbu_0, # of connection points: 4
#     Node 8, Type 0, BuildingBlock: NAHDIM_clean_sbu_0, # of connection points: 4
#     Node 9, Type 0, BuildingBlock: NAHDIM_clean_sbu_0, # of connection points: 4
#     Node 10, Type 0, BuildingBlock: NAHDIM_clean_sbu_0, # of connection points: 4
#     Node 11, Type 0, BuildingBlock: NAHDIM_clean_sbu_0, # of connection points: 4
#     Node 12, Type 0, BuildingBlock: NAHDIM_clean_sbu_0, # of connection points: 4
#     Node 13, Type 0, BuildingBlock: NAHDIM_clean_sbu_0, # of connection points: 4
#     Node 14, Type 0, BuildingBlock: NAHDIM_clean_sbu_0, # of connection points: 4
#     Node 15, Type 0, BuildingBlock: NAHDIM_clean_sbu_0, # of connection points: 4
#     Node 16, Type 0, BuildingBlock: NAHDIM_clean_sbu_0, # of connection points: 4
#     Node 17, Type 0, BuildingBlock: NAHDIM_clean_sbu_0, # of connection points: 4
#     Node 18, Type 0, BuildingBlock: NAHDIM_clean_sbu_0, # of connection points: 4
#     Node 19, Type 0, BuildingBlock: NAHDIM_clean_sbu_0, # of connection points: 4
#     Node 20, Type 0, BuildingBlock: NAHDIM_clean_sbu_0, # of connection points: 4
#     Node 21, Type 0, BuildingBlock: NAHDIM_clean_sbu_0, # of connection points: 4
#     Node 22, Type 0, BuildingBlock: NAHDIM_clean_sbu_0, # of connection points: 4
#     Node 23, Type 0, BuildingBlock: NAHDIM_clean_sbu_0, # of connection points: 4
#     Node 24, Type 0, BuildingBlock: NAHDIM_clean_sbu_0, # of connection points: 4
#     Node 25, Type 0, BuildingBlock: NAHDIM_clean_sbu_0, # of connection points: 4
#     Node 26, Type 0, BuildingBlock: NAHDIM_clean_sbu_0, # of connection points: 4
#     Node 27, Type 0, BuildingBlock: NAHDIM_clean_sbu_0, # of connection points: 4
#     Node 28, Type 0, BuildingBlock: NAHDIM_clean_sbu_0, # of connection points: 4
#     Node 29, Type 0, BuildingBlock: NAHDIM_clean_sbu_0, # of connection points: 4
#     Node 30, Type 0, BuildingBlock: NAHDIM_clean_sbu_0, # of connection points: 4
#     Node 31, Type 0, BuildingBlock: NAHDIM_clean_sbu_0, # of connection points: 4
#     Edge 32, Type (0, 0), BuildingBlock: AJUNOK_clean_linker_0, # of connection points: 2
#     Edge 33, Type (0, 0), BuildingBlock: AJUNOK_clean_linker_0, # of connection points: 2
#     Edge 34, Type (0, 0), BuildingBlock: AJUNOK_clean_linker_0, # of connection points: 2
#     Edge 35, Type (0, 0), BuildingBlock: AJUNOK_clean_linker_0, # of connection points: 2
#     Edge 36, Type (0, 0), BuildingBlock: AJUNOK_clean_linker_0, # of connection points: 2
#     Edge 37, Type (0, 0), BuildingBlock: AJUNOK_clean_linker_0, # of connection points: 2
#     Edge 38, Type (0, 0), BuildingBlock: AJUNOK_clean_linker_0, # of connection points: 2
#     Edge 39, Type (0, 0), BuildingBlock: AJUNOK_clean_linker_0, # of connection points: 2
#     Edge 40, Type (0, 0), BuildingBlock: AJUNOK_clean_linker_0, # of connection points: 2
#     Edge 41, Type (0, 0), BuildingBlock: AJUNOK_clean_linker_0, # of connection points: 2
#     Edge 42, Type (0, 0), BuildingBlock: AJUNOK_clean_linker_0, # of connection points: 2
#     Edge 43, Type (0, 0), BuildingBlock: AJUNOK_clean_linker_0, # of connection points: 2
#     Edge 44, Type (0, 0), BuildingBlock: AJUNOK_clean_linker_0, # of connection points: 2
#     Edge 45, Type (0, 0), BuildingBlock: AJUNOK_clean_linker_0, # of connection points: 2
#     Edge 46, Type (0, 0), BuildingBlock: AJUNOK_clean_linker_0, # of connection points: 2
#     Edge 47, Type (0, 0), BuildingBlock: AJUNOK_clean_linker_0, # of connection points: 2
#     Edge 48, Type (0, 0), BuildingBlock: AJUNOK_clean_linker_0, # of connection points: 2
#     Edge 49, Type (0, 0), BuildingBlock: AJUNOK_clean_linker_0, # of connection points: 2
#     Edge 50, Type (0, 0), BuildingBlock: AJUNOK_clean_linker_0, # of connection points: 2
#     Edge 51, Type (0, 0), BuildingBlock: AJUNOK_clean_linker_0, # of connection points: 2
#     Edge 52, Type (0, 0), BuildingBlock: AJUNOK_clean_linker_0, # of connection points: 2
#     Edge 53, Type (0, 0), BuildingBlock: AJUNOK_clean_linker_0, # of connection points: 2
#     Edge 54, Type (0, 0), BuildingBlock: AJUNOK_clean_linker_0, # of connection points: 2
#     Edge 55, Type (0, 0), BuildingBlock: AJUNOK_clean_linker_0, # of connection points: 2
#     Edge 56, Type (0, 0), BuildingBlock: AJUNOK_clean_linker_0, # of connection points: 2
#     Edge 57, Type (0, 0), BuildingBlock: AJUNOK_clean_linker_0, # of connection points: 2
#     Edge 58, Type (0, 0), BuildingBlock: AJUNOK_clean_linker_0, # of connection points: 2
#     Edge 59, Type (0, 0), BuildingBlock: AJUNOK_clean_linker_0, # of connection points: 2
#     Edge 60, Type (0, 0), BuildingBlock: AJUNOK_clean_linker_0, # of connection points: 2
#     Edge 61, Type (0, 0), BuildingBlock: AJUNOK_clean_linker_0, # of connection points: 2
#     Edge 62, Type (0, 0), BuildingBlock: AJUNOK_clean_linker_0, # of connection points: 2
#     Edge 63, Type (0, 0), BuildingBlock: AJUNOK_clean_linker_0, # of connection points: 2
#     Edge 64, Type (0, 0), BuildingBlock: AJUNOK_clean_linker_0, # of connection points: 2
#     Edge 65, Type (0, 0), BuildingBlock: AJUNOK_clean_linker_0, # of connection points: 2
#     Edge 66, Type (0, 0), BuildingBlock: AJUNOK_clean_linker_0, # of connection points: 2
#     Edge 67, Type (0, 0), BuildingBlock: AJUNOK_clean_linker_0, # of connection points: 2
#     Edge 68, Type (0, 0), BuildingBlock: AJUNOK_clean_linker_0, # of connection points: 2
#     Edge 69, Type (0, 0), BuildingBlock: AJUNOK_clean_linker_0, # of connection points: 2
#     Edge 70, Type (0, 0), BuildingBlock: AJUNOK_clean_linker_0, # of connection points: 2
#     Edge 71, Type (0, 0), BuildingBlock: AJUNOK_clean_linker_0, # of connection points: 2
#     Edge 72, Type (0, 0), BuildingBlock: AJUNOK_clean_linker_0, # of connection points: 2
#     Edge 73, Type (0, 0), BuildingBlock: AJUNOK_clean_linker_0, # of connection points: 2
#     Edge 74, Type (0, 0), BuildingBlock: AJUNOK_clean_linker_0, # of connection points: 2
#     Edge 75, Type (0, 0), BuildingBlock: AJUNOK_clean_linker_0, # of connection points: 2
#     Edge 76, Type (0, 0), BuildingBlock: AJUNOK_clean_linker_0, # of connection points: 2
#     Edge 77, Type (0, 0), BuildingBlock: AJUNOK_clean_linker_0, # of connection points: 2
#     Edge 78, Type (0, 0), BuildingBlock: AJUNOK_clean_linker_0, # of connection points: 2
#     Edge 79, Type (0, 0), BuildingBlock: AJUNOK_clean_linker_0, # of connection points: 2
#     Edge 80, Type (0, 0), BuildingBlock: AJUNOK_clean_linker_0, # of connection points: 2
#     Edge 81, Type (0, 0), BuildingBlock: AJUNOK_clean_linker_0, # of connection points: 2
#     Edge 82, Type (0, 0), BuildingBlock: AJUNOK_clean_linker_0, # of connection points: 2
#     Edge 83, Type (0, 0), BuildingBlock: AJUNOK_clean_linker_0, # of connection points: 2
#     Edge 84, Type (0, 0), BuildingBlock: AJUNOK_clean_linker_0, # of connection points: 2
#     Edge 85, Type (0, 0), BuildingBlock: AJUNOK_clean_linker_0, # of connection points: 2
#     Edge 86, Type (0, 0), BuildingBlock: AJUNOK_clean_linker_0, # of connection points: 2
#     Edge 87, Type (0, 0), BuildingBlock: AJUNOK_clean_linker_0, # of connection points: 2
#     Edge 88, Type (0, 0), BuildingBlock: AJUNOK_clean_linker_0, # of connection points: 2
#     Edge 89, Type (0, 0), BuildingBlock: AJUNOK_clean_linker_0, # of connection points: 2
#     Edge 90, Type (0, 0), BuildingBlock: AJUNOK_clean_linker_0, # of connection points: 2
#     Edge 91, Type (0, 0), BuildingBlock: AJUNOK_clean_linker_0, # of connection points: 2
#     Edge 92, Type (0, 0), BuildingBlock: AJUNOK_clean_linker_0, # of connection points: 2
#     Edge 93, Type (0, 0), BuildingBlock: AJUNOK_clean_linker_0, # of connection points: 2
#     Edge 94, Type (0, 0), BuildingBlock: AJUNOK_clean_linker_0, # of connection points: 2
#     Edge 95, Type (0, 0), BuildingBlock: AJUNOK_clean_linker_0, # of connection points: 2
# Relax obj value: 0.106
# Max RMSD: 0.077
# Mean RMSD: 0.074
data_MOF--net-pem--node1-NAHDIM_clean_sbu_0--edge1-AJUNOK_clean_linker_0
_symmetry_space_group_name_H-M    P1
_symmetry_Int_Tables_number       1
_symmetry_cell_setting            triclinic
loop_
_symmetry_equiv_pos_as_xyz
'x, y, z'
_cell_length_a     32.52565
_cell_length_b     32.622033
_cell_length_c     31.644958
_cell_angle_alpha  90.604189
_cell_angle_beta   90.364269
_cell_angle_gamma 92.704253
loop_
_atom_site_label
_atom_site_type_symbol
_atom_site_fract_x
_atom_site_fract_y
_atom_site_fract_z
_atom_type_partial_charge
C0 C 0.0094 0.13963 0.10718 0.0
O1 O 0.00108 0.10997 0.13401 0.0
O2 O 0.09031 0.05335 0.13081 0.0
Zn3 Zn 0.0792 0.08846 0.07771 0.0
O4 O 0.04777 0.04877 0.04261 0.0
C5 C 0.15697 0.07683 0.03019 0.0
O6 O 0.15777 0.04212 0.05062 0.0
O7 O 0.04084 0.13733 0.08344 0.0
C8 C 0.05487 0.04429 0.00366 0.0
O9 O 0.07744 0.07212 0.98357 0.0
C10 C 0.09607 0.01515 0.12484 0.0
O11 O 0.09527 0.00024 0.08619 0.0
O12 O 0.13001 0.10246 0.04023 0.0
C13 C 0.20658 0.86783 0.36467 0.0
O14 O 0.21795 0.88121 0.32735 0.0
O15 O 0.1177 0.88648 0.28418 0.0
Zn16 Zn 0.13285 0.83577 0.31768 0.0
O17 O 0.16761 0.80221 0.28174 0.0
C18 C 0.05145 0.78334 0.31513 0.0
O19 O 0.04823 0.78817 0.27415 0.0
O20 O 0.17118 0.8497 0.36887 0.0
C21 C 0.16357 0.76343 0.28224 0.0
O22 O 0.13423 0.74561 0.30472 0.0
C23 C 0.11705 0.88366 0.244 0.0
O24 O 0.12352 0.84809 0.22606 0.0
O25 O 0.08285 0.79907 0.3349 0.0
C26 C 0.45304 0.85416 0.60166 0.0
O27 O 0.46082 0.89339 0.60937 0.0
O28 O 0.35759 0.92857 0.62727 0.0
Zn29 Zn 0.37576 0.88828 0.57795 0.0
O30 O 0.41533 0.91972 0.54515 0.0
C31 C 0.30825 0.89696 0.51595 0.0
O32 O 0.30278 0.93074 0.53768 0.0
O33 O 0.41594 0.84229 0.59232 0.0
C34 C 0.40898 0.94806 0.51963 0.0
O35 O 0.37219 0.9618 0.51451 0.0
C36 C 0.37356 0.96524 0.63115 0.0
O37 O 0.40124 0.97788 0.60374 0.0
O38 O 0.33348 0.8716 0.53022 0.0
C39 C 0.27396 0.10328 0.89267 0.0
O40 O 0.28094 0.07415 0.86509 0.0
O41 O 0.34951 0.09643 0.81093 0.0
Zn42 Zn 0.34956 0.14551 0.85738 0.0
O43 O 0.33412 0.19517 0.82636 0.0
C44 C 0.4203 0.20007 0.89796 0.0
O45 O 0.39168 0.22717 0.9001 0.0
O46 O 0.29886 0.13471 0.89542 0.0
C47 C 0.30766 0.18847 0.79731 0.0
O48 O 0.29221 0.15113 0.79053 0.0
C49 C 0.35914 0.09914 0.7717 0.0
O50 O 0.37107 0.13511 0.75659 0.0
O51 O 0.40712 0.16301 0.89091 0.0
C52 C 0.16285 0.85613 0.47978 0.0
O53 O 0.13621 0.82655 0.46836 0.0
O54 O 0.08397 0.85 0.4021 0.0
Zn55 Zn 0.11856 0.9025 0.41681 0.0
O56 O 0.07966 0.93361 0.4489 0.0
C57 C 0.11247 0.95916 0.34465 0.0
O58 O 0.07334 0.95462 0.35443 0.0
O59 O 0.16271 0.89046 0.46084 0.0
C60 C 0.07696 0.97197 0.4524 0.0
O61 O 0.1039 -0.00299 0.43395 0.0
C62 C 0.04465 0.84852 0.40024 0.0
O63 O 0.02488 0.88245 0.40438 0.0
O64 O 0.13824 0.93846 0.36527 0.0
C65 C 0.40052 0.73148 0.63315 0.0
O66 O 0.36179 0.71855 0.62962 0.0
O67 O 0.32193 0.82037 0.60257 0.0
Zn68 Zn 0.36176 0.80824 0.65176 0.0
O69 O 0.32683 0.7759 0.68904 0.0
C70 C 0.352 0.87704 0.70779 0.0
O71 O 0.31379 0.86247 0.70561 0.0
O72 O 0.40889 0.7695 0.64068 0.0
C73 C 0.329 0.77647 0.72885 0.0
O74 O 0.35781 0.79867 0.74887 0.0
C75 C 0.28361 0.82409 0.61019 0.0
O76 O 0.2698 0.81943 0.64872 0.0
O77 O 0.37932 0.86015 0.68566 0.0
C78 C 0.34989 0.11306 0.96749 0.0
O79 O 0.3826 0.13797 0.97084 0.0
O80 O 0.41971 0.10536 0.84624 0.0
Zn81 Zn 0.38883 0.06781 0.88996 0.0
O82 O 0.43386 0.04592 0.92163 0.0
C83 C 0.39175 0.00591 0.83012 0.0
O84 O 0.43008 0.02014 0.83363 0.0
O85 O 0.34769 0.08588 0.93781 0.0
C86 C 0.43047 0.01074 0.93781 0.0
O87 O 0.39524 -0.0106 0.93492 0.0
C88 C 0.43847 0.1273 0.81841 0.0
O89 O 0.44863 0.11052 0.78235 0.0
O90 O 0.3647 0.02096 0.85389 0.0
C91 C 0.09992 0.21335 0.11965 0.0
O92 O 0.13389 0.22576 0.10047 0.0
O93 O 0.18765 0.1332 0.09493 0.0
Zn94 Zn 0.14948 0.14296 0.14656 0.0
O95 O 0.18409 0.18117 0.17815 0.0
C96 C 0.16138 0.0703 0.20551 0.0
O97 O 0.19934 0.07031 0.19168 0.0
O98 O 0.09855 0.17848 0.13783 0.0
C99 C 0.17545 0.1909 0.21554 0.0
O100 O 0.14366 0.17271 0.2342 0.0
C101 C 0.22632 0.12927 0.10028 0.0
O102 O 0.24125 0.12938 0.13892 0.0
O103 O 0.13673 0.09533 0.18927 0.0
C104 C 0.6306 0.36615 0.96685 0.0
O105 O 0.59553 0.34457 0.96575 0.0
O106 O 0.57235 0.35954 0.85995 0.0
Zn107 Zn 0.60067 0.4099 0.88752 0.0
O108 O 0.55474 0.43763 0.91336 0.0
C109 C 0.60565 0.46005 0.81442 0.0
O110 O 0.56588 0.45197 0.81772 0.0
O111 O 0.6383 0.3932 0.93842 0.0
C112 C 0.56132 0.45773 0.94731 0.0
O113 O 0.59932 0.46388 0.96106 0.0
C114 C 0.54105 0.34807 0.83764 0.0
O115 O 0.51492 0.37569 0.8272 0.0
O116 O 0.6292 0.44797 0.84361 0.0
C117 C 0.89117 0.26977 0.09361 0.0
O118 O 0.86765 0.27029 0.05978 0.0
O119 O 0.78958 0.337 0.09233 0.0
Zn120 Zn 0.83574 0.33159 0.13774 0.0
O121 O 0.80925 0.293 0.17455 0.0
C122 C 0.83036 0.41109 0.19103 0.0
O123 O 0.79547 0.41677 0.17136 0.0
O124 O 0.88427 0.29385 0.12464 0.0
C125 C 0.79405 0.30071 0.21005 0.0
O126 O 0.79117 0.33874 0.22304 0.0
C127 C 0.75248 0.34491 0.10143 0.0
O128 O 0.74268 0.3502 0.14122 0.0
O129 O 0.85168 0.38092 0.17943 0.0
C130 C 0.81886 0.6218 0.4706 0.0
O131 O 0.83485 0.65413 0.45124 0.0
O132 O 0.90393 0.62535 0.39931 0.0
Zn133 Zn 0.8699 0.5731 0.41252 0.0
O134 O 0.90937 0.54233 0.44393 0.0
C135 C 0.87545 0.51856 0.33682 0.0
O136 O 0.91492 0.5255 0.34445 0.0
O137 O 0.82779 0.58599 0.45813 0.0
C138 C 0.91672 0.50473 0.44194 0.0
O139 O 0.89466 0.47922 0.41765 0.0
C140 C 0.94313 0.62676 0.39645 0.0
O141 O 0.96291 0.59265 0.3972 0.0
O142 O 0.84963 0.53694 0.3599 0.0
C143 C 0.77187 0.61337 0.36407 0.0
O144 O 0.75529 0.62358 0.32799 0.0
O145 O 0.87 0.59694 0.28202 0.0
Zn146 Zn 0.84869 0.64196 0.32048 0.0
O147 O 0.81135 0.67658 0.28906 0.0
C148 C 0.92841 0.69452 0.31924 0.0
O149 O 0.9351 0.67946 0.28141 0.0
O150 O 0.8111 0.61742 0.36866 0.0
C151 C 0.82342 0.70598 0.26576 0.0
O152 O 0.86267 0.71242 0.25782 0.0
C153 C 0.86137 0.59641 0.2427 0.0
O154 O 0.83979 0.62574 0.22712 0.0
O155 O 0.89591 0.68298 0.33943 0.0
C156 C 0.71777 0.3698 0.90203 0.0
O157 O 0.71786 0.39401 0.86915 0.0
O158 O 0.6396 0.37146 0.81733 0.0
Zn159 Zn 0.64655 0.32363 0.86062 0.0
O160 O 0.67801 0.28682 0.82712 0.0
C161 C 0.57543 0.25855 0.89362 0.0
O162 O 0.60316 0.23173 0.90208 0.0
O163 O 0.69033 0.34066 0.90503 0.0
C164 C 0.67017 0.25372 0.8073 0.0
O165 O 0.63356 0.23533 0.80961 0.0
C166 C 0.62441 0.3683 0.77992 0.0
O167 O 0.61185 0.33216 0.76527 0.0
O168 O 0.59014 0.29341 0.8816 0.0
C169 C 0.95443 0.81051 0.83413 0.0
O170 O 0.94749 0.8234 0.87327 0.0
O171 O 0.88063 0.86635 0.9009 0.0
Zn172 Zn 0.92251 0.88142 0.84945 0.0
O173 O 0.97384 0.90234 0.87846 0.0
C174 C 0.8909 0.96219 0.83422 0.0
O175 O 0.87985 0.96207 0.87396 0.0
O176 O 0.94026 0.83337 0.80616 0.0
C177 C 0.96719 0.91972 0.91352 0.0
O178 O 0.92946 0.92493 0.92575 0.0
C179 C 0.87903 0.85343 0.93947 0.0
O180 O 0.91314 0.84424 0.95884 0.0
O181 O 0.9067 0.93096 0.81778 0.0
C182 C 0.76374 0.16621 0.56404 0.0
O183 O 0.76849 0.20545 0.57341 0.0
O184 O 0.87705 0.19242 0.60453 0.0
Zn185 Zn 0.82708 0.15792 0.62526 0.0
O186 O 0.79161 0.18994 0.66255 0.0
C187 C 0.86478 0.10313 0.68666 0.0
O188 O 0.89322 0.13247 0.69282 0.0
O189 O 0.78821 0.14101 0.57937 0.0
C190 C 0.79541 0.18992 0.70236 0.0
O191 O 0.82624 0.17264 0.72068 0.0
C192 C 0.88936 0.2228 0.62763 0.0
O193 O 0.8712 0.22814 0.664 0.0
O194 O 0.83738 0.10709 0.65851 0.0
C195 C 0.52673 0.142 0.39703 0.0
O196 O 0.54335 0.13992 0.43483 0.0
O197 O 0.62396 0.11155 0.42486 0.0
Zn198 Zn 0.58279 0.08389 0.38532 0.0
O199 O 0.54772 0.05252 0.42083 0.0
C200 C 0.62566 0.01727 0.34323 0.0
O201 O 0.64932 0.01666 0.37694 0.0
O202 O 0.54199 0.1226 0.36627 0.0
C203 C 0.54643 0.01492 0.42904 0.0
O204 O 0.57401 -0.00916 0.41374 0.0
C205 C 0.63183 0.09555 0.46027 0.0
O206 O 0.61576 0.05898 0.46866 0.0
O207 O 0.59796 0.04325 0.34071 0.0
C208 C 0.73339 0.89177 0.07401 0.0
O209 O 0.75632 0.88524 0.10737 0.0
O210 O 0.61994 0.81658 0.1264 0.0
Zn211 Zn 0.67035 0.85997 0.1341 0.0
O212 O 0.71413 0.82704 0.15684 0.0
C213 C 0.63114 0.89709 0.2079 0.0
O214 O 0.6006 0.86995 0.20122 0.0
O215 O 0.69459 0.89099 0.07984 0.0
C216 C 0.70633 0.81161 0.19266 0.0
O217 O 0.67074 0.81772 0.21034 0.0
C218 C 0.61941 0.77736 0.12813 0.0
O219 O 0.65321 0.75909 0.13771 0.0
O220 O 0.66121 0.89925 0.18241 0.0
C221 C 0.8895 0.00661 0.6669 0.0
O222 O 0.9291 0.00654 0.65909 0.0
O223 O 0.92526 0.11305 0.61331 0.0
Zn224 Zn 0.88812 0.0619 0.59368 0.0
O225 O 0.92697 0.02718 0.56385 0.0
C226 C 0.84523 0.09639 0.51924 0.0
O227 O 0.88063 0.11658 0.51359 0.0
O228 O 0.86611 0.02608 0.64244 0.0
C229 C 0.92519 0.01849 0.5248 0.0
O230 O 0.89386 0.02871 0.50166 0.0
C231 C 0.95717 0.12363 0.5918 0.0
O232 O 0.96328 0.10392 0.55624 0.0
O233 O 0.84101 0.07383 0.55181 0.0
C234 C 0.58442 0.20359 0.33337 0.0
O235 O 0.58999 0.19544 0.29314 0.0
O236 O 0.63074 0.09952 0.29458 0.0
Zn237 Zn 0.64968 0.14328 0.341 0.0
O238 O 0.68635 0.18176 0.3138 0.0
C239 C 0.71529 0.0947 0.39 0.0
O240 O 0.71587 0.06766 0.35909 0.0
O241 O 0.60482 0.18392 0.36073 0.0
C242 C 0.72278 0.1721 0.30661 0.0
O243 O 0.73347 0.1341 0.31042 0.0
C244 C 0.64661 0.09446 0.25804 0.0
O245 O 0.67634 0.11998 0.24564 0.0
O246 O 0.6913 0.1246 0.38769 0.0
C247 C 0.59277 0.96001 0.14145 0.0
O248 O 0.55301 0.95177 0.13722 0.0
O249 O 0.55266 0.85346 0.11939 0.0
Zn250 Zn 0.5945 0.88644 0.08549 0.0
O251 O 0.56075 0.90842 0.04097 0.0
C252 C 0.65875 0.82031 0.04017 0.0
O253 O 0.64955 0.78089 0.04282 0.0
O254 O 0.61742 0.93678 0.12204 0.0
C255 C 0.56809 0.94247 0.02331 0.0
O256 O 0.60228 0.96386 0.03239 0.0
C257 C 0.53245 0.82652 0.09755 0.0
O258 O 0.53697 0.82595 0.05641 0.0
O259 O 0.63547 0.84665 0.05684 0.0
C260 C 0.87971 0.77039 0.86291 0.0
O261 O 0.8647 0.78058 0.82603 0.0
O262 O 0.84611 0.86249 0.80941 0.0
Zn263 Zn 0.82435 0.83672 0.86533 0.0
O264 O 0.77586 0.80416 0.8428 0.0
C265 C 0.8009 0.91446 0.93004 0.0
O266 O 0.80088 0.95461 0.92789 0.0
O267 O 0.86579 0.79047 0.89324 0.0
C268 C 0.73732 0.80772 0.84324 0.0
O269 O 0.72104 0.83738 0.86483 0.0
C270 C 0.82 0.8834 0.78942 0.0
O271 O 0.7825 0.88452 0.80435 0.0
O272 O 0.812 0.89436 0.89713 0.0
C273 C 0.34371 0.50469 0.15995 0.0
O274 O 0.34287 0.47891 0.12768 0.0
O275 O 0.43314 0.61473 0.11116 0.0
Zn276 Zn 0.38872 0.56489 0.09966 0.0
O277 O 0.42519 0.52259 0.07863 0.0
C278 C 0.35152 0.58641 0.01472 0.0
O279 O 0.38727 0.58856 -0.00435 0.0
O280 O 0.35192 0.54194 0.15084 0.0
C281 C 0.41978 0.50206 0.04474 0.0
O282 O 0.38379 0.50154 0.02565 0.0
C283 C 0.45975 0.62768 0.08389 0.0
O284 O 0.45832 0.61186 0.04562 0.0
O285 O 0.34951 0.57809 0.05375 0.0
C286 C 0.074 0.70973 0.92625 0.0
O287 O 0.10278 0.73369 0.94394 0.0
O288 O 0.13867 0.61171 0.82495 0.0
Zn289 Zn 0.14138 0.66614 0.86679 0.0
O290 O 0.16202 0.71108 0.82872 0.0
C291 C 0.2087 0.63205 0.91581 0.0
O292 O 0.20089 0.59918 0.89248 0.0
O293 O 0.0847 0.68415 0.89718 0.0
C294 C 0.1968 0.69932 0.81702 0.0
O295 O 0.21107 0.66615 0.83307 0.0
C296 C 0.16263 0.58671 0.80596 0.0
O297 O 0.20269 0.59093 0.81038 0.0
O298 O 0.18755 0.66351 0.91109 0.0
C299 C 0.07055 0.45168 0.67425 0.0
O300 O 0.03185 0.43834 0.67472 0.0
O301 O 0.04839 0.35386 0.60841 0.0
Zn302 Zn 0.08411 0.40403 0.59277 0.0
O303 O 0.04919 0.43392 0.55556 0.0
C304 C 0.13933 0.38496 0.52117 0.0
O305 O 0.10493 0.38279 0.49916 0.0
O306 O 0.09393 0.44187 0.64374 0.0
C307 C 0.06071 0.46014 0.52851 0.0
O308 O 0.09981 0.46999 0.52261 0.0
C309 C 0.02879 0.33206 0.58055 0.0
O310 O 0.03643 0.33835 0.54039 0.0
O311 O 0.13768 0.39213 0.56093 0.0
C312 C 0.22184 0.30624 0.57741 0.0
O313 O 0.23403 0.2754 0.59979 0.0
O314 O 0.10108 0.27266 0.62386 0.0
Zn315 Zn 0.1539 0.30911 0.63625 0.0
O316 O 0.19092 0.27992 0.67435 0.0
C317 C 0.12594 0.37134 0.69253 0.0
O318 O 0.09973 0.34097 0.70173 0.0
O319 O 0.18623 0.3196 0.58353 0.0
C320 C 0.19359 0.28572 0.71399 0.0
O321 O 0.16784 0.30909 0.73329 0.0
C322 C 0.07861 0.25194 0.6498 0.0
O323 O 0.08609 0.25558 0.69052 0.0
O324 O 0.15027 0.36644 0.66217 0.0
C325 C 0.27579 0.6486 0.0871 0.0
O326 O 0.275 0.68647 0.10132 0.0
O327 O 0.38884 0.69144 0.12604 0.0
Zn328 Zn 0.34758 0.64894 0.14669 0.0
O329 O 0.3136 0.67829 0.18625 0.0
C330 C 0.40948 0.58622 0.19535 0.0
O331 O 0.44479 0.60508 0.20366 0.0
O332 O 0.30473 0.62669 0.1007 0.0
C333 C 0.28781 0.66303 0.21185 0.0
O334 O 0.28437 0.62306 0.21629 0.0
C335 C 0.39531 0.72534 0.14602 0.0
O336 O 0.37269 0.73421 0.17868 0.0
O337 O 0.38051 0.60526 0.1775 0.0
C338 C 0.53 0.61446 0.61211 0.0
O339 O 0.5195 0.57524 0.61504 0.0
O340 O 0.63167 0.5425 0.62026 0.0
Zn341 Zn 0.60536 0.58082 0.57674 0.0
O342 O 0.56205 0.54803 0.54803 0.0
C343 C 0.66893 0.57297 0.51125 0.0
O344 O 0.67359 0.53782 0.53013 0.0
O345 O 0.56613 0.62522 0.59889 0.0
C346 C 0.56397 0.51354 0.53026 0.0
O347 O 0.59832 0.49402 0.5311 0.0
C348 C 0.65754 0.52297 0.64216 0.0
O349 O 0.69691 0.5288 0.63451 0.0
O350 O 0.64384 0.59783 0.52715 0.0
C351 C 0.9715 0.33323 0.13056 0.0
O352 O 0.96518 0.35278 0.16625 0.0
O353 O 0.90481 0.43106 0.13498 0.0
Zn354 Zn 0.91288 0.38993 0.08608 0.0
O355 O 0.94644 0.4215 0.04583 0.0
C356 C 0.83002 0.39638 0.04586 0.0
O357 O 0.82703 0.42818 0.0712 0.0
O358 O 0.95203 0.34306 0.09731 0.0
C359 C 0.9321 0.43951 0.01412 0.0
O360 O 0.89246 0.43953 0.00692 0.0
C361 C 0.89812 0.46819 0.12586 0.0
O362 O 0.89607 0.47891 0.08616 0.0
O363 O 0.86062 0.37353 0.05046 0.0
C364 C 0.58806 0.74094 0.60595 0.0
O365 O 0.62686 0.75342 0.60241 0.0
O366 O 0.66335 0.65161 0.59803 0.0
Zn367 Zn 0.62199 0.66611 0.64439 0.0
O368 O 0.65452 0.70013 0.68685 0.0
C369 C 0.61636 0.59177 0.69669 0.0
O370 O 0.65631 0.5997 0.69649 0.0
O371 O 0.57954 0.70534 0.6206 0.0
C372 C 0.64814 0.6987 0.72632 0.0
O373 O 0.61934 0.67318 0.74087 0.0
C374 C 0.70061 0.64358 0.60614 0.0
O375 O 0.71305 0.64249 0.64564 0.0
O376 O 0.5937 0.61557 0.67636 0.0
C377 C 0.47579 0.33817 0.37667 0.0
O378 O 0.48354 0.35873 0.41196 0.0
O379 O 0.37489 0.37354 0.42118 0.0
Zn380 Zn 0.40545 0.39646 0.37159 0.0
O381 O 0.44298 0.4407 0.39274 0.0
C382 C 0.3329 0.43381 0.30422 0.0
O383 O 0.29289 0.4328 0.3096 0.0
O384 O 0.4453 0.34859 0.3538 0.0
C385 C 0.4351 0.4738 0.41142 0.0
O386 O 0.3967 0.48369 0.41619 0.0
C387 C 0.375 0.38685 0.45892 0.0
O388 O 0.40203 0.41565 0.4711 0.0
O389 O 0.35529 0.41839 0.33319 0.0
C390 C 0.02921 0.66561 0.79842 0.0
O391 O 0.02048 0.64041 0.76671 0.0
O392 O 0.11886 0.60695 0.90804 0.0
Zn393 Zn 0.06822 0.60101 0.86289 0.0
O394 O 0.0264 0.57263 0.89748 0.0
C395 C 0.07094 0.52417 0.81161 0.0
O396 O 0.05271 0.50474 0.84282 0.0
O397 O 0.0458 0.6519 0.83238 0.0
C398 C 0.04129 0.54451 0.91952 0.0
O399 O 0.08044 0.53704 0.91622 0.0
C400 C 0.1178 0.6138 0.94828 0.0
O401 O 0.08269 0.62188 0.96596 0.0
O402 O 0.07641 0.56274 0.81433 0.0
C403 C 0.38408 0.23632 0.37015 0.0
O404 O 0.3515 0.22212 0.34906 0.0
O405 O 0.37467 0.35273 0.31443 0.0
Zn406 Zn 0.34713 0.31237 0.35715 0.0
O407 O 0.30938 0.2825 0.32053 0.0
C408 C 0.28868 0.36048 0.41603 0.0
O409 O 0.29375 0.39291 0.39213 0.0
O410 O 0.3883 0.27442 0.37852 0.0
C411 C 0.28135 0.30364 0.3056 0.0
O412 O 0.28007 0.34294 0.31426 0.0
C413 C 0.39803 0.36046 0.28267 0.0
O414 O 0.41238 0.32995 0.26092 0.0
O415 O 0.30673 0.32779 0.40614 0.0
C416 C 0.0436 0.00376 0.9377 0.0
C417 C 0.03899 0.00717 0.98171 0.0
C418 C 0.02405 0.97138 0.91528 0.0
C419 C -0.00035 0.94187 0.93652 0.0
H420 H 0.0603 0.02741 0.92011 0.0
H421 H 0.02488 0.97164 0.88105 0.0
S422 S 0.98539 0.93122 0.05175 0.0
N423 N 0.014 0.97396 0.04628 0.0
N424 N 0.97702 0.91332 0.00334 0.0
C425 C -0.0016 0.94227 0.98061 0.0
C426 C 0.01814 0.97506 0.00355 0.0
C427 C 0.22736 0.6731 0.25752 0.0
C428 C 0.25783 0.68994 0.23084 0.0
C429 C 0.19641 0.69704 0.27312 0.0
C430 C 0.19499 0.73874 0.26282 0.0
H431 H 0.22708 0.64106 0.26619 0.0
H432 H 0.17372 0.68268 0.29382 0.0
S433 S 0.26762 0.79805 0.19392 0.0
N434 N 0.28488 0.75134 0.19472 0.0
N435 N 0.22639 0.79617 0.22405 0.0
C436 C 0.22532 0.75624 0.23623 0.0
C437 C 0.25694 0.73189 0.22036 0.0
C438 C 0.47811 0.94252 0.49033 0.0
C439 C 0.44391 0.96628 0.49782 0.0
C440 C 0.51187 0.95873 0.46856 0.0
C441 C 0.51227 -0.00088 0.45419 0.0
H442 H 0.47847 0.91094 0.50061 0.0
H443 H 0.53747 0.93941 0.46265 0.0
S444 S 0.43165 0.07501 0.47055 0.0
N445 N 0.41331 0.03252 0.49273 0.0
N446 N 0.47685 0.0637 0.45163 0.0
C447 C 0.47878 0.02375 0.46317 0.0
C448 C 0.44441 0.00705 0.48502 0.0
C449 C 0.29018 0.23074 0.73664 0.0
C450 C 0.28597 0.22201 0.77961 0.0
C451 C 0.26088 0.25328 0.71597 0.0
C452 C 0.22635 0.26685 0.73772 0.0
H453 H 0.31489 0.2182 0.7185 0.0
H454 H 0.26447 0.2586 0.68244 0.0
S455 S 0.20397 0.25341 0.85163 0.0
N456 N 0.24745 0.23033 0.84411 0.0
N457 N 0.19141 0.27219 0.8053 0.0
C458 C 0.2234 0.26029 0.78141 0.0
C459 C 0.25357 0.23783 0.8024 0.0
C460 C 0.01829 0.96028 0.50057 0.0
C461 C 0.03995 0.98657 0.4725 0.0
C462 C 0.98045 0.97053 0.51684 0.0
C463 C 0.96279 0.0068 0.50471 0.0
H464 H 0.03053 0.93138 0.50989 0.0
H465 H 0.96481 0.94993 0.53881 0.0
S466 S 0.00758 0.08727 0.43468 0.0
N467 N 0.04178 0.05141 0.43508 0.0
N468 N 0.96971 0.07036 0.4654 0.0
C469 C 0.98408 0.03376 0.47736 0.0
C470 C 0.02307 0.02373 0.46134 0.0
C471 C 0.27158 0.78036 0.77921 0.0
C472 C 0.2947 0.75729 0.7511 0.0
C473 C 0.23606 0.76283 0.79769 0.0
C474 C 0.22347 0.72204 0.78829 0.0
H475 H 0.28101 0.81189 0.78684 0.0
H476 H 0.21996 0.78024 0.82118 0.0
S477 S 0.27206 0.65071 0.71399 0.0
N478 N 0.30149 0.6933 0.71254 0.0
N479 N 0.23472 0.66021 0.74726 0.0
C480 C 0.24526 0.6997 0.7585 0.0
C481 C 0.28111 0.71737 0.73994 0.0
C482 C 0.46286 0.95471 0.97616 0.0
C483 C 0.46652 -0.00634 0.95796 0.0
C484 C 0.49644 0.938 -0.00409 0.0
C485 C 0.53492 0.9597 -0.00163 0.0
H486 H 0.4338 0.93705 0.97562 0.0
H487 H 0.49171 0.90809 0.01014 0.0
S488 S 0.56117 0.06204 0.9533 0.0
N489 N 0.51205 0.05299 0.94173 0.0
N490 N 0.57525 0.02137 0.97931 0.0
C491 C 0.53933 -0.00171 0.97939 0.0
C492 C 0.50508 0.01535 0.95911 0.0
C493 C 0.21643 0.26367 0.30016 0.0
C494 C 0.25017 0.28293 0.28008 0.0
C495 C 0.19169 0.23426 0.27867 0.0
C496 C 0.20053 0.22334 0.23678 0.0
H497 H 0.2105 0.26984 0.33324 0.0
H498 H 0.16641 0.21915 0.29544 0.0
S499 S 0.28631 0.26686 0.17111 0.0
N500 N 0.29154 0.2908 0.21715 0.0
N501 N 0.24531 0.23546 0.17572 0.0
C502 C 0.23394 0.24366 0.21613 0.0
C503 C 0.2588 0.27361 0.23815 0.0
C504 C 0.45156 0.47084 0.98146 0.0
C505 C 0.45619 0.48768 0.02233 0.0
C506 C 0.48581 0.46179 0.95732 0.0
C507 C 0.52606 0.4693 0.97308 0.0
H508 H 0.42128 0.46531 0.9675 0.0
H509 H 0.48052 0.44897 0.92593 0.0
S510 S 0.5552 0.51179 0.07884 0.0
N511 N 0.50445 0.51048 0.0781 0.0
N512 N 0.56874 0.49357 0.03243 0.0
C513 C 0.53126 0.48555 0.01411 0.0
C514 C 0.49636 0.49461 0.03885 0.0
C515 C 0.76537 0.27461 0.27696 0.0
C516 C 0.781 0.26655 0.23671 0.0
C517 C 0.74958 0.24272 0.30155 0.0
C518 C 0.74948 0.20217 0.28659 0.0
H519 H 0.76382 0.30572 0.28895 0.0
H520 H 0.73541 0.24994 0.33147 0.0
S521 S 0.78997 0.16416 0.1855 0.0
N522 N 0.7981 0.21444 0.18426 0.0
N523 N 0.76834 0.15453 0.23156 0.0
C524 C 0.76748 0.19316 0.248 0.0
C525 C 0.78319 0.22553 0.22257 0.0
C526 C 0.00023 0.50088 0.52312 0.0
C527 C 0.0289 0.4769 0.5029 0.0
C528 C 0.96338 0.50907 0.50315 0.0
C529 C 0.95384 0.49243 0.463 0.0
H530 H 0.00579 0.51219 0.55509 0.0
H531 H 0.94186 0.52796 0.51949 0.0
S532 S 0.0197 0.42875 0.39674 0.0
N533 N 0.04656 0.43743 0.4407 0.0
N534 N 0.97642 0.45266 0.40282 0.0
C535 C 0.98254 0.46889 0.44219 0.0
C536 C 0.02048 0.46117 0.4623 0.0
C537 C 0.80189 0.7533 0.2102 0.0
C538 C 0.79328 0.7328 0.24804 0.0
C539 C 0.77345 0.77886 0.19261 0.0
C540 C 0.73569 0.78498 0.21254 0.0
H541 H 0.83056 0.74919 0.19376 0.0
H542 H 0.78122 0.79385 0.16314 0.0
S543 S 0.69982 0.73966 0.31383 0.0
N544 N 0.74545 0.72102 0.30598 0.0
N545 N 0.6917 0.76933 0.273 0.0
C546 C 0.72696 0.765 0.25085 0.0
C547 C 0.75587 0.73876 0.26859 0.0
C548 C 0.72624 0.18489 0.73308 0.0
C549 C 0.76385 0.20696 0.72803 0.0
C550 C 0.69581 0.20019 0.75895 0.0
C551 C 0.70238 0.23802 0.7801 0.0
H552 H 0.7206 0.15545 0.71738 0.0
H553 H 0.6672 0.18223 0.76249 0.0
S554 S 0.79605 0.30812 0.77353 0.0
N555 N 0.80635 0.26811 0.74376 0.0
N556 N 0.74936 0.29813 0.79208 0.0
C557 C 0.7401 0.26067 0.77421 0.0
C558 C 0.77092 0.24474 0.74818 0.0
C559 C 0.67901 0.75813 0.82605 0.0
C560 C 0.71285 0.78268 0.8128 0.0
C561 C 0.65864 0.73058 0.79786 0.0
C562 C 0.6711 0.72729 0.75541 0.0
H563 H 0.66906 0.75932 0.85863 0.0
H564 H 0.63292 0.71178 0.80953 0.0
S565 S 0.75792 0.7867 0.70547 0.0
N566 N 0.75788 0.80308 0.75498 0.0
N567 N 0.71955 0.75183 0.70165 0.0
C568 C 0.70478 0.75238 0.74177 0.0
C569 C 0.72563 0.78001 0.77059 0.0
C570 C 0.45862 0.50148 0.48111 0.0
C571 C 0.46779 0.49098 0.43918 0.0
C572 C 0.49012 0.50741 0.51111 0.0
C573 C 0.53141 0.50258 0.49997 0.0
H574 H 0.42699 0.5031 0.49129 0.0
H575 H 0.48219 0.51535 0.54329 0.0
S576 S 0.57175 0.48172 0.39333 0.0
N577 N 0.52126 0.47997 0.38741 0.0
N578 N 0.58032 0.49189 0.44388 0.0
C579 C 0.54107 0.49412 0.45797 0.0
C580 C 0.50922 0.48827 0.42747 0.0
C581 C 0.97533 0.53011 0.95572 0.0
C582 C 0.01428 0.51728 0.94416 0.0
C583 C 0.94817 0.50415 0.97765 0.0
C584 C 0.95968 0.46501 0.98913 0.0
H585 H 0.96584 0.56046 0.94824 0.0
H586 H 0.91847 0.51513 0.98658 0.0
S587 S 0.05742 0.41622 0.96614 0.0
N588 N 0.06266 0.46229 0.9452 0.0
N589 N 0.01134 0.41382 0.9877 0.0
C590 C -0.00158 0.45171 0.97826 0.0
C591 C 0.02595 0.47788 0.95547 0.0
C592 C 0.07734 0.98014 0.19334 0.0
C593 C 0.10486 0.98662 0.15961 0.0
C594 C 0.082 0.94756 0.22182 0.0
C595 C 0.11406 0.92036 0.21708 0.0
H596 H 0.05127 -0.00067 0.19679 0.0
H597 H 0.05966 0.9428 0.24674 0.0
S598 S 0.19611 0.92655 0.13633 0.0
N599 N 0.16662 0.96483 0.12502 0.0
N600 N 0.17515 0.90393 0.17793 0.0
C601 C 0.14237 0.92752 0.18437 0.0
C602 C 0.13781 0.96055 0.1558 0.0
C603 C 0.27733 0.84972 0.45882 0.0
C604 C 0.28556 0.88966 0.47509 0.0
C605 C 0.2512 0.84261 0.42342 0.0
C606 C 0.23447 0.87538 0.40157 0.0
H607 H 0.28946 0.82362 0.47471 0.0
H608 H 0.24399 0.81131 0.41314 0.0
S609 S 0.25485 0.98601 0.42458 0.0
N610 N 0.27946 0.96261 0.46248 0.0
N611 N 0.23313 0.94919 0.39466 0.0
C612 C 0.24571 0.91546 0.41499 0.0
C613 C 0.27071 0.92265 0.45192 0.0
C614 C 0.3873 0.06081 0.70835 0.0
C615 C 0.35936 0.06255 0.74301 0.0
C616 C 0.39012 0.02987 0.6754 0.0
C617 C 0.36443 -0.00639 0.66708 0.0
H618 H 0.41012 0.08599 0.70629 0.0
H619 H 0.41543 0.03576 0.65389 0.0
S620 S 0.24243 0.95608 0.76028 0.0
N621 N 0.28604 0.0192 0.78246 0.0
N622 N 0.28862 0.94655 0.69688 0.0
C623 C 0.33255 0.98723 0.69468 0.0
C624 C 0.33087 0.03039 0.74519 0.0
C625 C 0.24368 0.06167 0.95166 0.0
C626 C 0.24213 0.09601 0.92537 0.0
C627 C 0.21632 0.05613 0.98553 0.0
C628 C 0.18562 0.08422 -0.00602 0.0
H629 H 0.26732 0.03977 0.94709 0.0
H630 H 0.21978 0.0298 0.00559 0.0
S631 S 0.16457 0.17525 0.92916 0.0
N632 N 0.20534 0.15609 0.90687 0.0
N633 N 0.1528 0.14527 0.96948 0.0
C634 C 0.18246 0.11751 0.96623 0.0
C635 C 0.21092 0.12345 0.93219 0.0
C636 C 0.1735 0.01066 0.2542 0.0
C637 C 0.14844 0.04261 0.24137 0.0
C638 C 0.16244 0.98444 0.28801 0.0
C639 C 0.12554 -0.01139 0.31039 0.0
H640 H 0.20182 0.00541 0.23763 0.0
H641 H 0.18249 0.96004 0.29592 0.0
S642 S 0.05048 0.06922 0.29221 0.0
N643 N 0.08601 0.0781 0.25601 0.0
N644 N 0.06517 0.02909 0.31872 0.0
C645 C 0.10068 0.02099 0.29852 0.0
C646 C 0.11206 0.0478 0.26434 0.0
C647 C 0.24017 0.8024 0.54786 0.0
C648 C 0.25379 0.83319 0.57664 0.0
C649 C 0.2097 0.80977 0.51753 0.0
C650 C 0.19321 0.84876 0.51373 0.0
H651 H 0.25279 0.7723 0.54912 0.0
H652 H 0.20013 0.78519 0.49583 0.0
S653 S 0.21533 0.93808 0.58508 0.0
N654 N 0.24481 0.90222 0.60329 0.0
N655 N 0.19065 0.91751 0.54364 0.0
C656 C 0.2059 0.87946 0.54315 0.0
C657 C 0.23531 0.87123 0.57537 0.0
C658 C 0.41104 0.96095 0.76974 0.0
C659 C 0.38056 0.97526 0.79692 0.0
C660 C 0.40206 0.92951 0.74032 0.0
C661 C 0.36222 0.91149 0.73711 0.0
H662 H 0.44249 0.97323 0.77206 0.0
H663 H 0.42656 0.91874 0.72068 0.0
S664 S 0.26848 0.00898 0.71454 0.0
N665 N 0.31218 0.96524 0.75732 0.0
N666 N 0.31224 0.96567 0.7576 0.0
C667 C 0.32981 0.92787 0.76231 0.0
C668 C 0.33841 0.96028 0.79181 0.0
C669 C 0.29016 0.14885 0.00032 0.0
C670 C 0.31657 0.11571 -0.00027 0.0
C671 C 0.25947 0.15225 0.03157 0.0
C672 C 0.25505 0.12339 0.06428 0.0
H673 H 0.29305 0.17218 0.97628 0.0
H674 H 0.23991 0.17819 0.03079 0.0
S675 S 0.31793 0.03273 0.07878 0.0
N676 N 0.33642 0.05417 0.03534 0.0
N677 N 0.28061 0.06165 0.0948 0.0
C678 C 0.28181 0.0908 0.06444 0.0
C679 C 0.31208 0.08669 0.03209 0.0
C680 C 0.92616 0.21482 0.13399 0.0
C681 C 0.92311 0.23843 0.09717 0.0
C682 C 0.95407 0.18314 0.13687 0.0
C683 C 0.98099 0.17436 0.10352 0.0
H684 H 0.90613 0.22022 0.16049 0.0
H685 H 0.95468 0.16556 0.16569 0.0
S686 S 0.98651 0.22867 0.00095 0.0
N687 N 0.94976 0.25123 0.02691 0.0
N688 N 0.00311 0.19305 0.0327 0.0
C689 C 0.97875 0.19839 0.06685 0.0
C690 C 0.9496 0.22994 0.06357 0.0
C691 C 0.4942 0.30485 0.88819 0.0
C692 C 0.52431 0.30574 0.845 0.0
C693 C 0.46682 0.2658 0.9092 0.0
C694 C 0.46553 0.21748 0.88828 0.0
H695 H 0.49126 0.33396 0.90437 0.0
H696 H 0.44735 0.27259 0.93575 0.0
S697 S 0.55258 0.21944 0.7585 0.0
N698 N 0.55709 0.26768 0.77731 0.0
N699 N 0.52447 0.18932 0.79094 0.0
C700 C 0.51556 0.21624 0.82253 0.0
C701 C 0.53598 0.26486 0.81364 0.0
C702 C 0.00072 0.6639 0.34687 0.0
C703 C 0.96573 0.66587 0.38716 0.0
C704 C 0.02705 0.70339 0.32284 0.0
C705 C 0.02167 0.75363 0.33779 0.0
H706 H 0.00614 0.63372 0.33422 0.0
H707 H 0.04826 0.6965 0.29784 0.0
S708 S 0.9195 0.75833 0.45484 0.0
N709 N 0.92177 0.70825 0.44343 0.0
N710 N 0.95131 0.78642 0.42397 0.0
C711 C 0.96797 0.75679 0.39956 0.0
C712 C 0.94973 0.70861 0.41221 0.0
C713 C 0.02705 0.29762 0.09174 0.0
C714 C 0.00291 0.30137 0.12823 0.0
C715 C 0.0579 0.26886 0.08919 0.0
C716 C 0.06514 0.24166 0.12246 0.0
H717 H 0.02262 0.31764 0.06515 0.0
H718 H 0.07612 0.26776 0.0607 0.0
S719 S 0.00974 0.23832 0.22468 0.0
N720 N 0.98845 0.27549 0.19852 0.0
N721 N 0.04515 0.22043 0.19312 0.0
C722 C 0.04075 0.24468 0.1589 0.0
C723 C 0.01008 0.27479 0.16196 0.0
C724 C 0.5159 0.75842 0.58444 0.0
C725 C 0.55494 0.77067 0.60091 0.0
C726 C 0.48325 0.78549 0.58406 0.0
C727 C 0.48809 0.82566 0.60093 0.0
H728 H 0.51048 0.7276 0.57194 0.0
H729 H 0.45399 0.77473 0.57056 0.0
S730 S 0.58657 0.87449 0.64157 0.0
N731 N 0.59801 0.82707 0.6296 0.0
N732 N 0.5373 0.87744 0.62987 0.0
C733 C 0.52792 0.83882 0.6151 0.0
C734 C 0.56109 0.81151 0.61484 0.0
C735 C 0.02011 0.71831 0.3954 0.0
C736 C 0.96037 0.724 0.33989 0.0
C737 C 0.03995 0.766 0.40959 0.0
C738 C 0.02155 0.80969 0.38906 0.0
H739 H 0.03324 0.6921 0.41102 0.0
H740 H 0.06525 0.76835 0.43197 0.0
S741 S 0.93408 0.83801 0.30382 0.0
N742 N 0.92543 0.78724 0.30139 0.0
N743 N 0.97207 0.85007 0.33811 0.0
C744 C 0.9827 0.8132 0.35254 0.0
C745 C 0.95367 0.77447 0.32906 0.0
C746 C 0.49849 0.15661 0.86553 0.0
C747 C 0.45974 0.16569 0.83194 0.0
C748 C 0.53103 0.18973 0.89028 0.0
C749 C 0.52954 0.24168 0.88447 0.0
H750 H 0.50329 0.12468 0.87216 0.0
H751 H 0.55429 0.17656 0.90982 0.0
S752 S 0.41396 0.26892 0.78473 0.0
N753 N 0.41302 0.21765 0.78824 0.0
N754 N 0.45076 0.29086 0.81595 0.0
C755 C 0.46673 0.2574 0.8343 0.0
C756 C 0.44337 0.21225 0.81641 0.0
C757 C 0.9065 0.05569 0.73928 0.0
C758 C 0.86062 0.0691 0.71673 0.0
C759 C 0.91675 0.02276 0.77902 0.0
C760 C 0.87928 -0.0041 0.80589 0.0
H761 H 0.93373 0.07112 0.72639 0.0
H762 H 0.94858 0.01823 0.78704 0.0
S763 S 0.73986 0.0351 0.73024 0.0
N764 N 0.77749 0.06303 0.70618 0.0
N765 N 0.75876 0.00623 0.76874 0.0
C766 C 0.79908 0.01819 0.76543 0.0
C767 C 0.81129 0.05171 0.72704 0.0
C768 C 0.68083 0.15433 0.48016 0.0
C769 C 0.66135 0.11617 0.49022 0.0
C770 C 0.71341 0.17116 0.50489 0.0
C771 C 0.72729 0.15043 0.54044 0.0
H772 H 0.67188 0.17071 0.45225 0.0
H773 H 0.72878 0.19969 0.49524 0.0
S774 S 0.68147 0.05434 0.58549 0.0
N775 N 0.65453 0.06153 0.54207 0.0
N776 N 0.71569 0.09328 0.58828 0.0
C777 C 0.70601 0.11414 0.55286 0.0
C778 C 0.67284 0.09708 0.52791 0.0
C779 C 0.59263 0.93877 0.25941 0.0
C780 C 0.63037 0.9257 0.24422 0.0
C781 C 0.59143 0.96858 0.29148 0.0
C782 C 0.62787 0.98533 0.31026 0.0
H783 H 0.56391 0.92712 0.24531 0.0
H784 H 0.56175 0.97868 0.30157 0.0
S785 S 0.73419 0.95835 0.28478 0.0
N786 N 0.70491 0.92991 0.25201 0.0
N787 N 0.70237 0.98508 0.31327 0.0
C788 C 0.66562 0.9712 0.29671 0.0
C789 C 0.66695 0.94156 0.26341 0.0
C790 C 0.79573 0.8268 0.94516 0.0
C791 C 0.83949 0.85292 0.96413 0.0
C792 C 0.74777 0.83386 0.96612 0.0
C793 C 0.75421 0.88671 0.03025 0.0
H794 H 0.79767 0.80402 0.92061 0.0
H795 H 0.72234 0.81376 0.95409 0.0
S796 S 0.8678 0.93589 0.05615 0.0
N797 N 0.87913 0.90554 0.01565 0.0
N798 N 0.81758 0.93122 0.06579 0.0
C799 C 0.80445 0.90372 0.03587 0.0
C800 C 0.84244 0.8871 0.00484 0.0
C801 C 0.87138 0.93858 0.69484 0.0
C802 C 0.87205 0.98171 0.70243 0.0
C803 C 0.85509 0.90765 0.72203 0.0
C804 C 0.83366 0.91573 0.7591 0.0
H805 H 0.88502 0.92761 0.66591 0.0
H806 H 0.8588 0.87592 0.71299 0.0
S807 S 0.82159 0.02715 0.83683 0.0
N808 N 0.85294 0.04782 0.7848 0.0
N809 N 0.81261 0.96963 0.81539 0.0
C810 C 0.82965 0.95627 0.7705 0.0
C811 C 0.85562 -0.0042 0.74248 0.0
C812 C 0.77513 0.07282 0.49072 0.0
C813 C 0.81235 0.09628 0.48579 0.0
C814 C 0.74402 0.07192 0.45944 0.0
C815 C 0.7484 0.09524 0.42255 0.0
H816 H 0.76988 0.05488 0.51894 0.0
H817 H 0.71624 0.053 0.46428 0.0
S818 S 0.84197 0.15574 0.39007 0.0
N819 N 0.8534 0.139 0.43758 0.0
N820 N 0.79442 0.13818 0.38016 0.0
C821 C 0.7859 0.1173 0.41623 0.0
C822 C 0.81789 0.11773 0.44755 0.0
C823 C 0.57897 0.01597 0.19499 0.0
C824 C 0.60761 -0.00547 0.17067 0.0
C825 C 0.59154 0.04736 0.22401 0.0
C826 C 0.63331 0.05937 0.22951 0.0
H827 H 0.54635 0.00813 0.19211 0.0
H828 H 0.56832 0.06275 0.24176 0.0
S829 S 0.72106 0.01323 0.17528 0.0
N830 N 0.68014 -0.01218 0.15546 0.0
N831 N 0.70345 0.04679 0.20924 0.0
C832 C 0.66225 0.03841 0.2056 0.0
C833 C 0.64956 0.00616 0.17642 0.0
C834 C 0.69209 0.87483 0.9888 0.0
C835 C 0.69792 0.83474 0.02162 0.0
C836 C 0.72798 0.90275 0.96274 0.0
C837 C 0.77882 0.89383 0.96658 0.0
H838 H 0.66083 0.88362 0.98334 0.0
H839 H 0.71796 0.92596 0.94128 0.0
S840 S 0.79742 0.77728 0.0643 0.0
N841 N 0.74639 0.78278 0.0636 0.0
N842 N 0.82204 0.81198 0.03348 0.0
C843 C 0.79006 0.83351 0.01898 0.0
C844 C 0.74326 0.8146 0.03725 0.0
C845 C 0.01592 0.79667 0.8588 0.0
C846 C 0.97676 0.76864 0.82687 0.0
C847 C 0.03772 0.77604 0.90481 0.0
C848 C 0.03115 0.72523 0.92464 0.0
H849 H 0.02701 0.82759 0.85059 0.0
H850 H 0.06241 0.79515 0.91875 0.0
S851 S 0.95143 0.6273 0.89448 0.0
N852 N 0.93807 0.65746 0.8545 0.0
N853 N 0.98869 0.64963 0.92528 0.0
C854 C -0.0053 0.68648 0.90719 0.0
C855 C 0.96367 0.69103 0.8615 0.0
C856 C 0.51326 0.69835 0.04521 0.0
C857 C 0.49194 0.66088 0.0935 0.0
C858 C 0.55873 0.74361 0.05762 0.0
C859 C 0.58176 0.75136 0.11866 0.0
H860 H 0.50127 0.69387 0.01347 0.0
H861 H 0.57149 0.76156 0.03194 0.0
S862 S 0.54425 0.67006 0.22335 0.0
N863 N 0.51079 0.64726 0.18772 0.0
N864 N 0.57277 0.71118 0.2051 0.0
C865 C 0.55913 0.7142 0.16533 0.0
C866 C 0.51585 0.67016 0.15335 0.0
C867 C 0.98148 0.26981 0.56766 0.0
C868 C 0.99348 0.30426 0.59279 0.0
C869 C 0.94733 0.24394 0.57842 0.0
C870 C 0.92388 0.25162 0.61472 0.0
H871 H -0.001 0.26238 0.53983 0.0
H872 H 0.93981 0.21734 0.5586 0.0
S873 S 0.93804 0.34238 0.68625 0.0
N874 N 0.9762 0.34746 0.65236 0.0
N875 N 0.91233 0.29946 0.67254 0.0
C876 C 0.93447 0.28723 0.63877 0.0
C877 C 0.96923 0.31329 0.62792 0.0
C878 C 0.0226 0.72471 0.84766 0.0
C879 C 0.0075 0.70489 0.80294 0.0
C880 C 0.96629 0.75062 0.89194 0.0
C881 C 0.91762 0.74406 0.86302 0.0
H882 H 0.00956 0.73355 0.86423 0.0
H883 H 0.96637 0.76555 0.92302 0.0
S884 S 0.8972 0.68902 0.74931 0.0
N885 N 0.94801 0.68652 0.7503 0.0
N886 N 0.8825 0.71287 0.79276 0.0
C887 C 0.91824 0.72262 0.81359 0.0
C888 C 0.95918 0.70592 0.78685 0.0
C889 C 0.44845 0.2225 0.4091 0.0
C890 C 0.41786 0.20946 0.3797 0.0
C891 C 0.48332 0.19989 0.41525 0.0
C892 C 0.48913 0.16418 0.39141 0.0
H893 H 0.44593 0.25084 0.42685 0.0
H894 H 0.50657 0.21124 0.43768 0.0
S895 S 0.4154 0.11341 0.31562 0.0
N896 N 0.39338 0.15577 0.33033 0.0
N897 N 0.45967 0.11382 0.34141 0.0
C898 C 0.45796 0.14961 0.36358 0.0
C899 C 0.42204 0.17213 0.3579 0.0
C900 C 0.98373 0.17765 0.64511 0.0
C901 C 0.98818 0.15655 0.6064 0.0
C902 C 0.01264 0.20875 0.65874 0.0
C903 C 0.04727 0.22024 0.6342 0.0
H904 H 0.95759 0.17045 0.665 0.0
H905 H 0.00758 0.22416 0.68861 0.0
S906 S 0.07623 0.17226 0.53263 0.0
N907 N 0.03234 0.14816 0.54518 0.0
N908 N 0.08585 0.20618 0.57085 0.0
C909 C 0.0526 0.19899 0.59597 0.0
C910 C 0.02344 0.16727 0.58216 0.0
C911 C 0.43076 0.79432 0.14202 0.0
C912 C 0.43205 0.75124 0.13696 0.0
C913 C 0.4647 0.81944 0.13136 0.0
C914 C 0.49941 0.80106 0.11651 0.0
H915 H 0.40291 0.80821 0.15241 0.0
H916 H 0.46309 0.85251 0.13293 0.0
S917 S 0.56321 0.68228 0.09717 0.0
N918 N 0.51237 0.72787 0.11192 0.0
N919 N 0.51802 0.72447 0.11028 0.0
C920 C 0.49705 0.75574 0.11633 0.0
C921 C 0.46696 0.72933 0.12508 0.0
C922 C 0.66764 0.4282 0.73868 0.0
C923 C 0.62115 0.40464 0.75234 0.0
C924 C 0.67981 0.4668 0.70404 0.0
C925 C 0.64373 0.49131 0.6753 0.0
H926 H 0.69416 0.41558 0.75364 0.0
H927 H 0.71194 0.47568 0.69971 0.0
S928 S 0.50134 0.41688 0.71984 0.0
N929 N 0.53789 0.39338 0.74699 0.0
N930 N 0.52163 0.45572 0.6911 0.0
C931 C 0.56175 0.45275 0.702 0.0
C932 C 0.57222 0.41544 0.73658 0.0
C933 C 0.80458 0.35661 0.98113 0.0
C934 C 0.80105 0.39022 0.00909 0.0
C935 C 0.77793 0.3505 0.94613 0.0
C936 C 0.74741 0.37826 0.93712 0.0
H937 H 0.82775 0.33445 0.98656 0.0
H938 H 0.7811 0.32374 0.92607 0.0
S939 S 0.72545 0.47172 -0.0013 0.0
N940 N 0.7639 0.45181 0.02446 0.0
N941 N 0.71569 0.44106 0.95768 0.0
C942 C 0.74426 0.41258 0.96371 0.0
C943 C 0.77054 0.41834 -5e-05 0.0
C944 C 0.8467 0.5531 0.17995 0.0
C945 C 0.87283 0.56216 0.21484 0.0
C946 C 0.85396 0.52175 0.15203 0.0
C947 C 0.88785 0.49871 0.15828 0.0
H948 H 0.81962 0.57048 0.17453 0.0
H949 H 0.83322 0.51576 0.1255 0.0
S950 S 0.97917 0.5065 0.24454 0.0
N951 N 0.93607 0.51053 0.21296 0.0
N952 N 0.94945 0.49186 0.20317 0.0
C953 C 0.91586 0.50989 0.19581 0.0
C954 C 0.9091 0.54141 0.22538 0.0
C955 C 0.74848 0.56583 0.42289 0.0
C956 C 0.74412 0.6021 0.40003 0.0
C957 C 0.72385 0.55663 0.45841 0.0
C958 C 0.69302 0.58281 0.47201 0.0
H959 H 0.77168 0.54476 0.41376 0.0
H960 H 0.72964 0.52901 0.47572 0.0
S961 S 0.66447 0.67793 0.41788 0.0
N962 N 0.70366 0.66186 0.39037 0.0
N963 N 0.65654 0.64418 0.45585 0.0
C964 C 0.68637 0.6176 0.44729 0.0
C965 C 0.7119 0.62716 0.41154 0.0
C966 C 0.62262 0.5288 0.7931 0.0
C967 C 0.62084 0.48742 0.77982 0.0
C968 C 0.61499 0.56226 0.767 0.0
C969 C 0.59993 0.55891 0.72533 0.0
H970 H 0.62935 0.53595 0.82607 0.0
H971 H 0.62225 0.59264 0.78 0.0
S972 S 0.59145 0.45634 0.63374 0.0
N973 N 0.61893 0.4335 0.68668 0.0
N974 N 0.57721 0.50952 0.66187 0.0
C975 C 0.58975 0.51921 0.70978 0.0
C976 C 0.61406 0.47961 0.73491 0.0
C977 C 0.71869 0.32377 0.03187 0.0
C978 C 0.72052 0.34953 0.06786 0.0
C979 C 0.68844 0.32798 0.00019 0.0
C980 C 0.66045 0.3597 0.00199 0.0
H981 H 0.74045 0.29986 0.02838 0.0
H982 H 0.68754 0.30653 0.97392 0.0
S983 S 0.64776 0.43059 0.09252 0.0
N984 N 0.68759 0.40389 0.10604 0.0
N985 N 0.63297 0.41336 0.0453 0.0
C986 C 0.66071 0.38419 0.03866 0.0
C987 C 0.69032 0.3789 0.07168 0.0
C988 C 0.82649 0.4941 0.27807 0.0
C989 C 0.86227 0.48882 0.30221 0.0
C990 C 0.81671 0.46897 0.24242 0.0
C991 C 0.8419 0.43699 0.22948 0.0
H992 H 0.80672 0.51888 0.28571 0.0
H993 H 0.78932 0.47524 0.22446 0.0
S994 S 0.93575 0.40628 0.28623 0.0
N995 N 0.92064 0.44629 0.31336 0.0
N996 N 0.90229 0.39925 0.24707 0.0
C997 C 0.87661 0.43006 0.25486 0.0
C998 C 0.88669 0.45582 0.29094 0.0
C999 C 0.76081 0.6582 0.50396 0.0
C1000 C 0.78929 0.62706 0.50561 0.0
C1001 C 0.73131 0.66259 0.53587 0.0
C1002 C 0.73061 0.63735 0.57167 0.0
H1003 H 0.76044 0.67852 0.47712 0.0
H1004 H 0.70935 0.68635 0.5328 0.0
S1005 S 0.80186 0.55459 0.59372 0.0
N1006 N 0.81604 0.57177 0.54685 0.0
N1007 N 0.76321 0.58242 0.60839 0.0
C1008 C 0.76022 0.60745 0.57461 0.0
C1009 C 0.78892 0.60171 0.54125 0.0
C1010 C 0.50036 0.67575 0.64902 0.0
C1011 C 0.49742 0.64459 0.61784 0.0
C1012 C 0.46934 0.70433 0.65352 0.0
C1013 C 0.43355 0.70171 0.62806 0.0
H1014 H 0.52653 0.67787 0.67036 0.0
H1015 H 0.47319 0.72831 0.67734 0.0
S1016 S 0.40793 0.62141 0.54699 0.0
N1017 N 0.45406 0.61038 0.56434 0.0
N1018 N 0.39537 0.66264 0.57375 0.0
C1019 C 0.42921 0.66905 0.59879 0.0
C1020 C 0.46107 0.64073 0.59362 0.0
C1021 C 0.42174 0.50192 0.19195 0.0
C1022 C 0.40004 0.545 0.2127 0.0
C1023 C 0.40652 0.45299 0.20888 0.0
C1024 C 0.35054 0.45896 0.26783 0.0
H1025 H 0.44486 0.50542 0.16768 0.0
H1026 H 0.42259 0.42699 0.19601 0.0
S1027 S 0.3169 0.57098 0.30106 0.0
N1028 N 0.35054 0.58346 0.26337 0.0
N1029 N 0.31332 0.52027 0.3057 0.0
C1030 C 0.33978 0.50823 0.27578 0.0
C1031 C 0.3632 0.54676 0.24962 0.0
C1032 C 0.21346 0.55295 0.01405 0.0
C1033 C 0.24219 0.63372 0.05534 0.0
C1034 C 0.17381 0.56381 0.98129 0.0
C1035 C 0.15526 0.61159 0.97613 0.0
H1036 H 0.22461 0.52205 0.0172 0.0
H1037 H 0.15883 0.53866 0.96368 0.0
S1038 S 0.17851 0.72917 0.01607 0.0
N1039 N 0.21582 0.70956 0.04442 0.0
N1040 N 0.15332 0.69184 0.98882 0.0
C1041 C 0.17254 0.65758 -0.00124 0.0
C1042 C 0.21147 0.6693 0.03432 0.0
C1043 C 0.06654 0.45009 0.7782 0.0
C1044 C 0.08904 0.49861 0.7766 0.0
C1045 C 0.08409 0.41089 0.75008 0.0
C1046 C 0.12479 0.41056 0.71628 0.0
H1047 H 0.04035 0.44352 0.79832 0.0
H1048 H 0.06637 0.38235 0.7542 0.0
S1049 S 0.20678 0.49939 0.67671 0.0
N1050 N 0.18016 0.52791 0.71023 0.0
N1051 N 0.18813 0.45056 0.67563 0.0
C1052 C 0.15707 0.45167 0.70354 0.0
C1053 C 0.15136 0.49974 0.72464 0.0
C1054 C 0.28698 0.3031 0.52125 0.0
C1055 C 0.25291 0.32953 0.55064 0.0
C1056 C 0.32509 0.32669 0.49203 0.0
C1057 C 0.33852 0.37804 0.4847 0.0
H1058 H 0.28473 0.26992 0.52164 0.0
H1059 H 0.3448 0.30559 0.47631 0.0
S1060 S 0.2949 0.48679 0.52151 0.0
N1061 N 0.26149 0.4559 0.5479 0.0
N1062 N 0.32844 0.45956 0.49399 0.0
C1063 C 0.31605 0.42071 0.50321 0.0
C1064 C 0.27573 0.41918 0.5359 0.0
C1065 C 0.35677 0.39798 0.22493 0.0
C1066 C 0.3947 0.40062 0.26174 0.0
C1067 C 0.33534 0.43583 0.1986 0.0
C1068 C 0.35092 0.4865 0.20512 0.0
H1069 H 0.34353 0.36761 0.21787 0.0
H1070 H 0.3119 0.427 0.17537 0.0
S1071 S 0.46717 0.49427 0.30949 0.0
N1072 N 0.45303 0.44418 0.30715 0.0
N1073 N 0.43637 0.52195 0.27986 0.0
C1074 C 0.40936 0.49223 0.26425 0.0
C1075 C 0.42018 0.44403 0.28119 0.0
C1076 C 0.31482 0.61826 0.95451 0.0
C1077 C 0.3134 0.59663 -0.00758 0.0
C1078 C 0.27992 0.63282 0.93423 0.0
C1079 C 0.23923 0.62977 0.94985 0.0
H1080 H 0.34422 0.6239 0.9392 0.0
H1081 H 0.28519 0.64607 0.90328 0.0
S1082 S 0.21554 0.57194 0.08682 0.0
N1083 N 0.26919 0.5694 0.05669 0.0
N1084 N 0.18736 0.60324 0.03994 0.0
C1085 C 0.23224 0.61249 -0.00859 0.0
C1086 C 0.27552 0.58981 0.01155 0.0
C1087 C 0.13915 0.45684 0.77543 0.0
C1088 C 0.08959 0.47471 0.71215 0.0
C1089 C 0.15933 0.50398 0.79956 0.0
C1090 C 0.14593 0.55028 0.78115 0.0
H1091 H 0.14785 0.42233 0.78553 0.0
H1092 H 0.1519 0.4765 0.79091 0.0
S1093 S 0.07401 0.59392 0.68895 0.0
N1094 N 0.06425 0.54432 0.6781 0.0
N1095 N 0.10635 0.59918 0.72999 0.0
C1096 C 0.11342 0.56004 0.74031 0.0
C1097 C 0.08689 0.52642 0.70796 0.0
C1098 C 0.18032 0.36912 0.45616 0.0
C1099 C 0.17927 0.37894 0.49937 0.0
C1100 C 0.21642 0.36166 0.4334 0.0
C1101 C 0.25692 0.36093 0.45016 0.0
H1102 H 0.15176 0.36771 0.4383 0.0
H1103 H 0.212 0.35655 0.39968 0.0
S1104 S 0.27427 0.38207 0.60033 0.0
N1105 N 0.22072 0.38862 0.57053 0.0
N1106 N 0.30559 0.36645 0.54722 0.0
C1107 C 0.26193 0.36699 0.49585 0.0
C1108 C 0.21635 0.38055 0.52098 0.0
C1109 C 0.53774 0.29529 0.38979 0.0
C1110 C 0.5026 0.30314 0.36499 0.0
C1111 C 0.56337 0.26257 0.38043 0.0
C1112 C 0.55539 0.23624 0.34551 0.0
H1113 H 0.54579 0.3147 0.41683 0.0
H1114 H 0.5901 0.25843 0.40023 0.0
S1115 S 0.46581 0.24018 0.27262 0.0
N1116 N 0.46026 0.27904 0.30558 0.0
N1117 N 0.50846 0.21878 0.28747 0.0
C1118 C 0.5202 0.24324 0.32084 0.0
C1119 C 0.49391 0.27623 0.33064 0.0
loop_
_geom_bond_atom_site_label_1
_geom_bond_atom_site_label_2
_geom_bond_distance
_geom_bond_site_symmetry_2
_ccdc_geom_bond_type
C0 O1 1.160 . S
C0 O7 1.185 . S
O1 C0 1.160 . S
O2 Zn3 1.899 . S
O2 C10 1.284 . S
Zn3 O2 1.899 . S
Zn3 O4 2.032 . S
Zn3 O7 2.086 . S
Zn3 O12 1.977 . S
O4 Zn3 2.032 . S
O4 C8 1.278 . S
C5 O6 1.203 . S
C5 O12 1.267 . S
O6 C5 1.203 . S
O7 C0 1.185 . S
O7 Zn3 2.086 . S
C8 O4 1.278 . S
C8 O9 1.211 . S
O9 C8 1.211 . S
C10 O2 1.284 . S
C10 O11 1.273 . S
O11 C10 1.273 . S
O12 Zn3 1.977 . S
O12 C5 1.267 . S
C13 O14 1.160 . S
C13 O20 1.185 . S
O14 C13 1.160 . S
O15 Zn16 1.899 . S
O15 C23 1.284 . S
Zn16 O15 1.899 . S
Zn16 O17 2.032 . S
Zn16 O20 2.086 . S
Zn16 O25 1.977 . S
O17 Zn16 2.032 . S
O17 C21 1.278 . S
C18 O19 1.203 . S
C18 O25 1.267 . S
O19 C18 1.203 . S
O20 C13 1.185 . S
O20 Zn16 2.086 . S
C21 O17 1.278 . S
C21 O22 1.211 . S
O22 C21 1.211 . S
C23 O15 1.284 . S
C23 O24 1.273 . S
O24 C23 1.273 . S
O25 Zn16 1.977 . S
O25 C18 1.267 . S
C26 O27 1.160 . S
C26 O33 1.185 . S
O27 C26 1.160 . S
O28 Zn29 1.899 . S
O28 C36 1.284 . S
Zn29 O28 1.899 . S
Zn29 O30 2.032 . S
Zn29 O33 2.086 . S
Zn29 O38 1.977 . S
O30 Zn29 2.032 . S
O30 C34 1.278 . S
C31 O32 1.203 . S
C31 O38 1.267 . S
O32 C31 1.203 . S
O33 C26 1.185 . S
O33 Zn29 2.086 . S
C34 O30 1.278 . S
C34 O35 1.211 . S
O35 C34 1.211 . S
C36 O28 1.284 . S
C36 O37 1.273 . S
O37 C36 1.273 . S
O38 Zn29 1.977 . S
O38 C31 1.267 . S
C39 O40 1.160 . S
C39 O46 1.185 . S
O40 C39 1.160 . S
O41 Zn42 1.899 . S
O41 C49 1.284 . S
Zn42 O41 1.899 . S
Zn42 O43 2.032 . S
Zn42 O46 2.086 . S
Zn42 O51 1.977 . S
O43 Zn42 2.032 . S
O43 C47 1.278 . S
C44 O45 1.203 . S
C44 O51 1.267 . S
O45 C44 1.203 . S
O46 C39 1.185 . S
O46 Zn42 2.086 . S
C47 O43 1.278 . S
C47 O48 1.211 . S
O48 C47 1.211 . S
C49 O41 1.284 . S
C49 O50 1.273 . S
O50 C49 1.273 . S
O51 Zn42 1.977 . S
O51 C44 1.267 . S
C52 O53 1.160 . S
C52 O59 1.185 . S
O53 C52 1.160 . S
O54 Zn55 1.899 . S
O54 C62 1.284 . S
Zn55 O54 1.899 . S
Zn55 O56 2.032 . S
Zn55 O59 2.086 . S
Zn55 O64 1.977 . S
O56 Zn55 2.032 . S
O56 C60 1.278 . S
C57 O58 1.203 . S
C57 O64 1.267 . S
O58 C57 1.203 . S
O59 C52 1.185 . S
O59 Zn55 2.086 . S
C60 O56 1.278 . S
C60 O61 1.211 . S
O61 C60 1.211 . S
C62 O54 1.284 . S
C62 O63 1.273 . S
O63 C62 1.273 . S
O64 Zn55 1.977 . S
O64 C57 1.267 . S
C65 O66 1.160 . S
C65 O72 1.185 . S
O66 C65 1.160 . S
O67 Zn68 1.899 . S
O67 C75 1.284 . S
Zn68 O67 1.899 . S
Zn68 O69 2.032 . S
Zn68 O72 2.086 . S
Zn68 O77 1.977 . S
O69 Zn68 2.032 . S
O69 C73 1.278 . S
C70 O71 1.203 . S
C70 O77 1.267 . S
O71 C70 1.203 . S
O72 C65 1.185 . S
O72 Zn68 2.086 . S
C73 O69 1.278 . S
C73 O74 1.211 . S
O74 C73 1.211 . S
C75 O67 1.284 . S
C75 O76 1.273 . S
O76 C75 1.273 . S
O77 Zn68 1.977 . S
O77 C70 1.267 . S
C78 O79 1.160 . S
C78 O85 1.185 . S
O79 C78 1.160 . S
O80 Zn81 1.899 . S
O80 C88 1.284 . S
Zn81 O80 1.899 . S
Zn81 O82 2.032 . S
Zn81 O85 2.086 . S
Zn81 O90 1.977 . S
O82 Zn81 2.032 . S
O82 C86 1.278 . S
C83 O84 1.203 . S
C83 O90 1.267 . S
O84 C83 1.203 . S
O85 C78 1.185 . S
O85 Zn81 2.086 . S
C86 O82 1.278 . S
C86 O87 1.211 . S
O87 C86 1.211 . S
C88 O80 1.284 . S
C88 O89 1.273 . S
O89 C88 1.273 . S
O90 Zn81 1.977 . S
O90 C83 1.267 . S
C91 O92 1.160 . S
C91 O98 1.185 . S
O92 C91 1.160 . S
O93 Zn94 1.899 . S
O93 C101 1.284 . S
Zn94 O93 1.899 . S
Zn94 O95 2.032 . S
Zn94 O98 2.086 . S
Zn94 O103 1.977 . S
O95 Zn94 2.032 . S
O95 C99 1.278 . S
C96 O97 1.203 . S
C96 O103 1.267 . S
O97 C96 1.203 . S
O98 C91 1.185 . S
O98 Zn94 2.086 . S
C99 O95 1.278 . S
C99 O100 1.211 . S
O100 C99 1.211 . S
C101 O93 1.284 . S
C101 O102 1.273 . S
O102 C101 1.273 . S
O103 Zn94 1.977 . S
O103 C96 1.267 . S
C104 O105 1.160 . S
C104 O111 1.185 . S
O105 C104 1.160 . S
O106 Zn107 1.899 . S
O106 C114 1.284 . S
Zn107 O106 1.899 . S
Zn107 O108 2.032 . S
Zn107 O111 2.086 . S
Zn107 O116 1.977 . S
O108 Zn107 2.032 . S
O108 C112 1.278 . S
C109 O110 1.203 . S
C109 O116 1.267 . S
O110 C109 1.203 . S
O111 C104 1.185 . S
O111 Zn107 2.086 . S
C112 O108 1.278 . S
C112 O113 1.211 . S
O113 C112 1.211 . S
C114 O106 1.284 . S
C114 O115 1.273 . S
O115 C114 1.273 . S
O116 Zn107 1.977 . S
O116 C109 1.267 . S
C117 O118 1.160 . S
C117 O124 1.185 . S
O118 C117 1.160 . S
O119 Zn120 1.899 . S
O119 C127 1.284 . S
Zn120 O119 1.899 . S
Zn120 O121 2.032 . S
Zn120 O124 2.086 . S
Zn120 O129 1.977 . S
O121 Zn120 2.032 . S
O121 C125 1.278 . S
C122 O123 1.203 . S
C122 O129 1.267 . S
O123 C122 1.203 . S
O124 C117 1.185 . S
O124 Zn120 2.086 . S
C125 O121 1.278 . S
C125 O126 1.211 . S
O126 C125 1.211 . S
C127 O119 1.284 . S
C127 O128 1.273 . S
O128 C127 1.273 . S
O129 Zn120 1.977 . S
O129 C122 1.267 . S
C130 O131 1.160 . S
C130 O137 1.185 . S
O131 C130 1.160 . S
O132 Zn133 1.899 . S
O132 C140 1.284 . S
Zn133 O132 1.899 . S
Zn133 O134 2.032 . S
Zn133 O137 2.086 . S
Zn133 O142 1.977 . S
O134 Zn133 2.032 . S
O134 C138 1.278 . S
C135 O136 1.203 . S
C135 O142 1.267 . S
O136 C135 1.203 . S
O137 C130 1.185 . S
O137 Zn133 2.086 . S
C138 O134 1.278 . S
C138 O139 1.211 . S
O139 C138 1.211 . S
C140 O132 1.284 . S
C140 O141 1.273 . S
O141 C140 1.273 . S
O142 Zn133 1.977 . S
O142 C135 1.267 . S
C143 O144 1.160 . S
C143 O150 1.185 . S
O144 C143 1.160 . S
O145 Zn146 1.899 . S
O145 C153 1.284 . S
Zn146 O145 1.899 . S
Zn146 O147 2.032 . S
Zn146 O150 2.086 . S
Zn146 O155 1.977 . S
O147 Zn146 2.032 . S
O147 C151 1.278 . S
C148 O149 1.203 . S
C148 O155 1.267 . S
O149 C148 1.203 . S
O150 C143 1.185 . S
O150 Zn146 2.086 . S
C151 O147 1.278 . S
C151 O152 1.211 . S
O152 C151 1.211 . S
C153 O145 1.284 . S
C153 O154 1.273 . S
O154 C153 1.273 . S
O155 Zn146 1.977 . S
O155 C148 1.267 . S
C156 O157 1.160 . S
C156 O163 1.185 . S
O157 C156 1.160 . S
O158 Zn159 1.899 . S
O158 C166 1.284 . S
Zn159 O158 1.899 . S
Zn159 O160 2.032 . S
Zn159 O163 2.086 . S
Zn159 O168 1.977 . S
O160 Zn159 2.032 . S
O160 C164 1.278 . S
C161 O162 1.203 . S
C161 O168 1.267 . S
O162 C161 1.203 . S
O163 C156 1.185 . S
O163 Zn159 2.086 . S
C164 O160 1.278 . S
C164 O165 1.211 . S
O165 C164 1.211 . S
C166 O158 1.284 . S
C166 O167 1.273 . S
O167 C166 1.273 . S
O168 Zn159 1.977 . S
O168 C161 1.267 . S
C169 O170 1.160 . S
C169 O176 1.185 . S
O170 C169 1.160 . S
O171 Zn172 1.899 . S
O171 C179 1.284 . S
Zn172 O171 1.899 . S
Zn172 O173 2.032 . S
Zn172 O176 2.086 . S
Zn172 O181 1.977 . S
O173 Zn172 2.032 . S
O173 C177 1.278 . S
C174 O175 1.203 . S
C174 O181 1.267 . S
O175 C174 1.203 . S
O176 C169 1.185 . S
O176 Zn172 2.086 . S
C177 O173 1.278 . S
C177 O178 1.211 . S
O178 C177 1.211 . S
C179 O171 1.284 . S
C179 O180 1.273 . S
O180 C179 1.273 . S
O181 Zn172 1.977 . S
O181 C174 1.267 . S
C182 O183 1.160 . S
C182 O189 1.185 . S
O183 C182 1.160 . S
O184 Zn185 1.899 . S
O184 C192 1.284 . S
Zn185 O184 1.899 . S
Zn185 O186 2.032 . S
Zn185 O189 2.086 . S
Zn185 O194 1.977 . S
O186 Zn185 2.032 . S
O186 C190 1.278 . S
C187 O188 1.203 . S
C187 O194 1.267 . S
O188 C187 1.203 . S
O189 C182 1.185 . S
O189 Zn185 2.086 . S
C190 O186 1.278 . S
C190 O191 1.211 . S
O191 C190 1.211 . S
C192 O184 1.284 . S
C192 O193 1.273 . S
O193 C192 1.273 . S
O194 Zn185 1.977 . S
O194 C187 1.267 . S
C195 O196 1.160 . S
C195 O202 1.185 . S
O196 C195 1.160 . S
O197 Zn198 1.899 . S
O197 C205 1.284 . S
Zn198 O197 1.899 . S
Zn198 O199 2.032 . S
Zn198 O202 2.086 . S
Zn198 O207 1.977 . S
O199 Zn198 2.032 . S
O199 C203 1.278 . S
C200 O201 1.203 . S
C200 O207 1.267 . S
O201 C200 1.203 . S
O202 C195 1.185 . S
O202 Zn198 2.086 . S
C203 O199 1.278 . S
C203 O204 1.211 . S
O204 C203 1.211 . S
C205 O197 1.284 . S
C205 O206 1.273 . S
O206 C205 1.273 . S
O207 Zn198 1.977 . S
O207 C200 1.267 . S
C208 O209 1.160 . S
C208 O215 1.185 . S
O209 C208 1.160 . S
O210 Zn211 1.899 . S
O210 C218 1.284 . S
Zn211 O210 1.899 . S
Zn211 O212 2.032 . S
Zn211 O215 2.086 . S
Zn211 O220 1.977 . S
O212 Zn211 2.032 . S
O212 C216 1.278 . S
C213 O214 1.203 . S
C213 O220 1.267 . S
O214 C213 1.203 . S
O215 C208 1.185 . S
O215 Zn211 2.086 . S
C216 O212 1.278 . S
C216 O217 1.211 . S
O217 C216 1.211 . S
C218 O210 1.284 . S
C218 O219 1.273 . S
O219 C218 1.273 . S
O220 Zn211 1.977 . S
O220 C213 1.267 . S
C221 O222 1.160 . S
C221 O228 1.185 . S
O222 C221 1.160 . S
O223 Zn224 1.899 . S
O223 C231 1.284 . S
Zn224 O223 1.899 . S
Zn224 O225 2.032 . S
Zn224 O228 2.086 . S
Zn224 O233 1.977 . S
O225 Zn224 2.032 . S
O225 C229 1.278 . S
C226 O227 1.203 . S
C226 O233 1.267 . S
O227 C226 1.203 . S
O228 C221 1.185 . S
O228 Zn224 2.086 . S
C229 O225 1.278 . S
C229 O230 1.211 . S
O230 C229 1.211 . S
C231 O223 1.284 . S
C231 O232 1.273 . S
O232 C231 1.273 . S
O233 Zn224 1.977 . S
O233 C226 1.267 . S
C234 O235 1.160 . S
C234 O241 1.185 . S
O235 C234 1.160 . S
O236 Zn237 1.899 . S
O236 C244 1.284 . S
Zn237 O236 1.899 . S
Zn237 O238 2.032 . S
Zn237 O241 2.086 . S
Zn237 O246 1.977 . S
O238 Zn237 2.032 . S
O238 C242 1.278 . S
C239 O240 1.203 . S
C239 O246 1.267 . S
O240 C239 1.203 . S
O241 C234 1.185 . S
O241 Zn237 2.086 . S
C242 O238 1.278 . S
C242 O243 1.211 . S
O243 C242 1.211 . S
C244 O236 1.284 . S
C244 O245 1.273 . S
O245 C244 1.273 . S
O246 Zn237 1.977 . S
O246 C239 1.267 . S
C247 O248 1.160 . S
C247 O254 1.185 . S
O248 C247 1.160 . S
O249 Zn250 1.899 . S
O249 C257 1.284 . S
Zn250 O249 1.899 . S
Zn250 O251 2.032 . S
Zn250 O254 2.086 . S
Zn250 O259 1.977 . S
O251 Zn250 2.032 . S
O251 C255 1.278 . S
C252 O253 1.203 . S
C252 O259 1.267 . S
O253 C252 1.203 . S
O254 C247 1.185 . S
O254 Zn250 2.086 . S
C255 O251 1.278 . S
C255 O256 1.211 . S
O256 C255 1.211 . S
C257 O249 1.284 . S
C257 O258 1.273 . S
O258 C257 1.273 . S
O259 Zn250 1.977 . S
O259 C252 1.267 . S
C260 O261 1.160 . S
C260 O267 1.185 . S
O261 C260 1.160 . S
O262 Zn263 1.899 . S
O262 C270 1.284 . S
Zn263 O262 1.899 . S
Zn263 O264 2.032 . S
Zn263 O267 2.086 . S
Zn263 O272 1.977 . S
O264 Zn263 2.032 . S
O264 C268 1.278 . S
C265 O266 1.203 . S
C265 O272 1.267 . S
O266 C265 1.203 . S
O267 C260 1.185 . S
O267 Zn263 2.086 . S
C268 O264 1.278 . S
C268 O269 1.211 . S
O269 C268 1.211 . S
C270 O262 1.284 . S
C270 O271 1.273 . S
O271 C270 1.273 . S
O272 Zn263 1.977 . S
O272 C265 1.267 . S
C273 O274 1.160 . S
C273 O280 1.185 . S
O274 C273 1.160 . S
O275 Zn276 1.899 . S
O275 C283 1.284 . S
Zn276 O275 1.899 . S
Zn276 O277 2.032 . S
Zn276 O280 2.086 . S
Zn276 O285 1.977 . S
O277 Zn276 2.032 . S
O277 C281 1.278 . S
C278 O279 1.203 . S
C278 O285 1.267 . S
O279 C278 1.203 . S
O280 C273 1.185 . S
O280 Zn276 2.086 . S
C281 O277 1.278 . S
C281 O282 1.211 . S
O282 C281 1.211 . S
C283 O275 1.284 . S
C283 O284 1.273 . S
O284 C283 1.273 . S
O285 Zn276 1.977 . S
O285 C278 1.267 . S
C286 O287 1.160 . S
C286 O293 1.185 . S
O287 C286 1.160 . S
O288 Zn289 1.899 . S
O288 C296 1.284 . S
Zn289 O288 1.899 . S
Zn289 O290 2.032 . S
Zn289 O293 2.086 . S
Zn289 O298 1.977 . S
O290 Zn289 2.032 . S
O290 C294 1.278 . S
C291 O292 1.203 . S
C291 O298 1.267 . S
O292 C291 1.203 . S
O293 C286 1.185 . S
O293 Zn289 2.086 . S
C294 O290 1.278 . S
C294 O295 1.211 . S
O295 C294 1.211 . S
C296 O288 1.284 . S
C296 O297 1.273 . S
O297 C296 1.273 . S
O298 Zn289 1.977 . S
O298 C291 1.267 . S
C299 O300 1.160 . S
C299 O306 1.185 . S
O300 C299 1.160 . S
O301 Zn302 1.899 . S
O301 C309 1.284 . S
Zn302 O301 1.899 . S
Zn302 O303 2.032 . S
Zn302 O306 2.086 . S
Zn302 O311 1.977 . S
O303 Zn302 2.032 . S
O303 C307 1.278 . S
C304 O305 1.203 . S
C304 O311 1.267 . S
O305 C304 1.203 . S
O306 C299 1.185 . S
O306 Zn302 2.086 . S
C307 O303 1.278 . S
C307 O308 1.211 . S
O308 C307 1.211 . S
C309 O301 1.284 . S
C309 O310 1.273 . S
O310 C309 1.273 . S
O311 Zn302 1.977 . S
O311 C304 1.267 . S
C312 O313 1.160 . S
C312 O319 1.185 . S
O313 C312 1.160 . S
O314 Zn315 1.899 . S
O314 C322 1.284 . S
Zn315 O314 1.899 . S
Zn315 O316 2.032 . S
Zn315 O319 2.086 . S
Zn315 O324 1.977 . S
O316 Zn315 2.032 . S
O316 C320 1.278 . S
C317 O318 1.203 . S
C317 O324 1.267 . S
O318 C317 1.203 . S
O319 C312 1.185 . S
O319 Zn315 2.086 . S
C320 O316 1.278 . S
C320 O321 1.211 . S
O321 C320 1.211 . S
C322 O314 1.284 . S
C322 O323 1.273 . S
O323 C322 1.273 . S
O324 Zn315 1.977 . S
O324 C317 1.267 . S
C325 O326 1.160 . S
C325 O332 1.185 . S
O326 C325 1.160 . S
O327 Zn328 1.899 . S
O327 C335 1.284 . S
Zn328 O327 1.899 . S
Zn328 O329 2.032 . S
Zn328 O332 2.086 . S
Zn328 O337 1.977 . S
O329 Zn328 2.032 . S
O329 C333 1.278 . S
C330 O331 1.203 . S
C330 O337 1.267 . S
O331 C330 1.203 . S
O332 C325 1.185 . S
O332 Zn328 2.086 . S
C333 O329 1.278 . S
C333 O334 1.211 . S
O334 C333 1.211 . S
C335 O327 1.284 . S
C335 O336 1.273 . S
O336 C335 1.273 . S
O337 Zn328 1.977 . S
O337 C330 1.267 . S
C338 O339 1.160 . S
C338 O345 1.185 . S
O339 C338 1.160 . S
O340 Zn341 1.899 . S
O340 C348 1.284 . S
Zn341 O340 1.899 . S
Zn341 O342 2.032 . S
Zn341 O345 2.086 . S
Zn341 O350 1.977 . S
O342 Zn341 2.032 . S
O342 C346 1.278 . S
C343 O344 1.203 . S
C343 O350 1.267 . S
O344 C343 1.203 . S
O345 C338 1.185 . S
O345 Zn341 2.086 . S
C346 O342 1.278 . S
C346 O347 1.211 . S
O347 C346 1.211 . S
C348 O340 1.284 . S
C348 O349 1.273 . S
O349 C348 1.273 . S
O350 Zn341 1.977 . S
O350 C343 1.267 . S
C351 O352 1.160 . S
C351 O358 1.185 . S
O352 C351 1.160 . S
O353 Zn354 1.899 . S
O353 C361 1.284 . S
Zn354 O353 1.899 . S
Zn354 O355 2.032 . S
Zn354 O358 2.086 . S
Zn354 O363 1.977 . S
O355 Zn354 2.032 . S
O355 C359 1.278 . S
C356 O357 1.203 . S
C356 O363 1.267 . S
O357 C356 1.203 . S
O358 C351 1.185 . S
O358 Zn354 2.086 . S
C359 O355 1.278 . S
C359 O360 1.211 . S
O360 C359 1.211 . S
C361 O353 1.284 . S
C361 O362 1.273 . S
O362 C361 1.273 . S
O363 Zn354 1.977 . S
O363 C356 1.267 . S
C364 O365 1.160 . S
C364 O371 1.185 . S
O365 C364 1.160 . S
O366 Zn367 1.899 . S
O366 C374 1.284 . S
Zn367 O366 1.899 . S
Zn367 O368 2.032 . S
Zn367 O371 2.086 . S
Zn367 O376 1.977 . S
O368 Zn367 2.032 . S
O368 C372 1.278 . S
C369 O370 1.203 . S
C369 O376 1.267 . S
O370 C369 1.203 . S
O371 C364 1.185 . S
O371 Zn367 2.086 . S
C372 O368 1.278 . S
C372 O373 1.211 . S
O373 C372 1.211 . S
C374 O366 1.284 . S
C374 O375 1.273 . S
O375 C374 1.273 . S
O376 Zn367 1.977 . S
O376 C369 1.267 . S
C377 O378 1.160 . S
C377 O384 1.185 . S
O378 C377 1.160 . S
O379 Zn380 1.899 . S
O379 C387 1.284 . S
Zn380 O379 1.899 . S
Zn380 O381 2.032 . S
Zn380 O384 2.086 . S
Zn380 O389 1.977 . S
O381 Zn380 2.032 . S
O381 C385 1.278 . S
C382 O383 1.203 . S
C382 O389 1.267 . S
O383 C382 1.203 . S
O384 C377 1.185 . S
O384 Zn380 2.086 . S
C385 O381 1.278 . S
C385 O386 1.211 . S
O386 C385 1.211 . S
C387 O379 1.284 . S
C387 O388 1.273 . S
O388 C387 1.273 . S
O389 Zn380 1.977 . S
O389 C382 1.267 . S
C390 O391 1.160 . S
C390 O397 1.185 . S
O391 C390 1.160 . S
O392 Zn393 1.899 . S
O392 C400 1.284 . S
Zn393 O392 1.899 . S
Zn393 O394 2.032 . S
Zn393 O397 2.086 . S
Zn393 O402 1.977 . S
O394 Zn393 2.032 . S
O394 C398 1.278 . S
C395 O396 1.203 . S
C395 O402 1.267 . S
O396 C395 1.203 . S
O397 C390 1.185 . S
O397 Zn393 2.086 . S
C398 O394 1.278 . S
C398 O399 1.211 . S
O399 C398 1.211 . S
C400 O392 1.284 . S
C400 O401 1.273 . S
O401 C400 1.273 . S
O402 Zn393 1.977 . S
O402 C395 1.267 . S
C403 O404 1.160 . S
C403 O410 1.185 . S
O404 C403 1.160 . S
O405 Zn406 1.899 . S
O405 C413 1.284 . S
Zn406 O405 1.899 . S
Zn406 O407 2.032 . S
Zn406 O410 2.086 . S
Zn406 O415 1.977 . S
O407 Zn406 2.032 . S
O407 C411 1.278 . S
C408 O409 1.203 . S
C408 O415 1.267 . S
O409 C408 1.203 . S
O410 C403 1.185 . S
O410 Zn406 2.086 . S
C411 O407 1.278 . S
C411 O412 1.211 . S
O412 C411 1.211 . S
C413 O405 1.284 . S
C413 O414 1.273 . S
O414 C413 1.273 . S
O415 Zn406 1.977 . S
O415 C408 1.267 . S
C416 C417 1.369 1_556 S
C416 C418 1.419 1_455 S
C416 H420 0.930 . S
C417 C416 1.369 1_554 S
C417 C426 1.429 1_545 S
C418 C416 1.419 1_655 S
C418 C419 1.363 1_545 S
C418 H421 0.929 . S
C419 C418 1.363 1_565 S
C419 C425 1.428 1_556 S
H420 C416 0.930 . S
H421 C418 0.929 . S
S422 N423 1.613 1_655 S
S422 N424 1.610 . S
N423 S422 1.613 1_455 S
N423 C426 1.350 . S
N424 S422 1.610 . S
N424 C425 1.351 . S
C425 C419 1.428 1_554 S
C425 N424 1.351 . S
C425 C426 1.434 1_655 S
C426 C417 1.429 1_565 S
C426 N423 1.350 . S
C426 C425 1.434 1_455 S
C427 C428 1.369 . S
C427 C429 1.419 . S
C427 H431 0.930 . S
C428 C427 1.369 . S
C428 C437 1.429 . S
C429 C427 1.419 . S
C429 C430 1.363 . S
C429 H432 0.929 . S
C430 C429 1.363 . S
C430 C436 1.428 . S
H431 C427 0.930 . S
H432 C429 0.929 . S
S433 N434 1.613 . S
S433 N435 1.610 . S
N434 S433 1.613 . S
N434 C437 1.350 . S
N435 S433 1.610 . S
N435 C436 1.351 . S
C436 C430 1.428 . S
C436 N435 1.351 . S
C436 C437 1.434 . S
C437 C428 1.429 . S
C437 N434 1.350 . S
C437 C436 1.434 . S
C438 C439 1.369 . S
C438 C440 1.419 . S
C438 H442 0.930 . S
C439 C438 1.369 . S
C439 C448 1.429 1_565 S
C440 C438 1.419 . S
C440 C441 1.363 1_565 S
C440 H443 0.929 . S
C441 C440 1.363 1_545 S
C441 C447 1.428 . S
H442 C438 0.930 . S
H443 C440 0.929 . S
S444 N445 1.613 . S
S444 N446 1.610 . S
N445 S444 1.613 . S
N445 C448 1.350 . S
N446 S444 1.610 . S
N446 C447 1.351 . S
C447 C441 1.428 . S
C447 N446 1.351 . S
C447 C448 1.434 . S
C448 C439 1.429 1_545 S
C448 N445 1.350 . S
C448 C447 1.434 . S
C449 C450 1.369 . S
C449 C451 1.419 . S
C449 H453 0.930 . S
C450 C449 1.369 . S
C450 C459 1.429 . S
C451 C449 1.419 . S
C451 C452 1.363 . S
C451 H454 0.929 . S
C452 C451 1.363 . S
C452 C458 1.428 . S
H453 C449 0.930 . S
H454 C451 0.929 . S
S455 N456 1.613 . S
S455 N457 1.610 . S
N456 S455 1.613 . S
N456 C459 1.350 . S
N457 S455 1.610 . S
N457 C458 1.351 . S
C458 C452 1.428 . S
C458 N457 1.351 . S
C458 C459 1.434 . S
C459 C450 1.429 . S
C459 N456 1.350 . S
C459 C458 1.434 . S
C460 C461 1.369 . S
C460 C462 1.419 1_455 S
C460 H464 0.930 . S
C461 C460 1.369 . S
C461 C470 1.429 1_565 S
C462 C460 1.419 1_655 S
C462 C463 1.363 1_565 S
C462 H465 0.929 . S
C463 C462 1.363 1_545 S
C463 C469 1.428 1_655 S
H464 C460 0.930 . S
H465 C462 0.929 . S
S466 N467 1.613 . S
S466 N468 1.610 . S
N467 S466 1.613 . S
N467 C470 1.350 . S
N468 S466 1.610 . S
N468 C469 1.351 . S
C469 C463 1.428 1_455 S
C469 N468 1.351 . S
C469 C470 1.434 . S
C470 C461 1.429 1_545 S
C470 N467 1.350 . S
C470 C469 1.434 . S
C471 C472 1.369 . S
C471 C473 1.419 . S
C471 H475 0.930 . S
C472 C471 1.369 . S
C472 C481 1.429 . S
C473 C471 1.419 . S
C473 C474 1.363 . S
C473 H476 0.929 . S
C474 C473 1.363 . S
C474 C480 1.428 . S
H475 C471 0.930 . S
H476 C473 0.929 . S
S477 N478 1.613 . S
S477 N479 1.610 . S
N478 S477 1.613 . S
N478 C481 1.350 . S
N479 S477 1.610 . S
N479 C480 1.351 . S
C480 C474 1.428 . S
C480 N479 1.351 . S
C480 C481 1.434 . S
C481 C472 1.429 . S
C481 N478 1.350 . S
C481 C480 1.434 . S
C482 C483 1.369 1_564 S
C482 C484 1.419 . S
C482 H486 0.931 . S
C483 C482 1.369 1_546 S
C483 C492 1.429 . S
C484 C482 1.419 . S
C484 C485 1.363 . S
C484 H487 0.929 . S
C485 C484 1.363 . S
C485 C491 1.428 1_565 S
H486 C482 0.931 . S
H487 C484 0.929 . S
S488 N489 1.613 . S
S488 N490 1.610 1_556 S
N489 S488 1.613 . S
N489 C492 1.350 . S
N490 S488 1.610 1_554 S
N490 C491 1.351 . S
C491 C485 1.428 1_545 S
C491 N490 1.351 . S
C491 C492 1.434 1_554 S
C492 C483 1.429 . S
C492 N489 1.350 . S
C492 C491 1.434 1_556 S
C493 C494 1.369 . S
C493 C495 1.419 . S
C493 H497 0.930 . S
C494 C493 1.369 . S
C494 C503 1.429 . S
C495 C493 1.419 . S
C495 C496 1.363 . S
C495 H498 0.929 . S
C496 C495 1.363 . S
C496 C502 1.428 . S
H497 C493 0.930 . S
H498 C495 0.929 . S
S499 N500 1.613 . S
S499 N501 1.610 . S
N500 S499 1.613 . S
N500 C503 1.350 . S
N501 S499 1.610 . S
N501 C502 1.351 . S
C502 C496 1.428 . S
C502 N501 1.351 . S
C502 C503 1.434 . S
C503 C494 1.429 . S
C503 N500 1.350 . S
C503 C502 1.434 . S
C504 C505 1.369 1_556 S
C504 C506 1.419 . S
C504 H508 0.930 . S
C505 C504 1.369 1_554 S
C505 C514 1.429 . S
C506 C504 1.419 . S
C506 C507 1.363 . S
C506 H509 0.929 . S
C507 C506 1.363 . S
C507 C513 1.428 1_556 S
H508 C504 0.930 . S
H509 C506 0.929 . S
S510 N511 1.613 . S
S510 N512 1.610 . S
N511 S510 1.613 . S
N511 C514 1.350 . S
N512 S510 1.610 . S
N512 C513 1.351 . S
C513 C507 1.428 1_554 S
C513 N512 1.351 . S
C513 C514 1.434 . S
C514 C505 1.429 . S
C514 N511 1.350 . S
C514 C513 1.434 . S
C515 C516 1.369 . S
C515 C517 1.419 . S
C515 H519 0.930 . S
C516 C515 1.369 . S
C516 C525 1.429 . S
C517 C515 1.419 . S
C517 C518 1.363 . S
C517 H520 0.929 . S
C518 C517 1.363 . S
C518 C524 1.428 . S
H519 C515 0.930 . S
H520 C517 0.929 . S
S521 N522 1.613 . S
S521 N523 1.610 . S
N522 S521 1.613 . S
N522 C525 1.350 . S
N523 S521 1.610 . S
N523 C524 1.351 . S
C524 C518 1.428 . S
C524 N523 1.351 . S
C524 C525 1.434 . S
C525 C516 1.429 . S
C525 N522 1.350 . S
C525 C524 1.434 . S
C526 C527 1.355 1_655 S
C526 C528 1.435 . S
C526 H530 0.928 1_655 S
C527 C526 1.355 1_455 S
C527 C536 1.429 . S
C528 C526 1.435 . S
C528 C529 1.363 . S
C528 H531 0.929 . S
C529 C528 1.363 . S
C529 C535 1.428 . S
H530 C526 0.928 1_455 S
H531 C528 0.929 . S
S532 N533 1.613 . S
S532 N534 1.610 1_455 S
N533 S532 1.613 . S
N533 C536 1.350 . S
N534 S532 1.610 1_655 S
N534 C535 1.351 . S
C535 C529 1.428 . S
C535 N534 1.351 . S
C535 C536 1.434 1_655 S
C536 C527 1.429 . S
C536 N533 1.350 . S
C536 C535 1.434 1_455 S
C537 C538 1.369 . S
C537 C539 1.419 . S
C537 H541 0.930 . S
C538 C537 1.369 . S
C538 C547 1.429 . S
C539 C537 1.419 . S
C539 C540 1.363 . S
C539 H542 0.929 . S
C540 C539 1.363 . S
C540 C546 1.428 . S
H541 C537 0.930 . S
H542 C539 0.929 . S
S543 N544 1.613 . S
S543 N545 1.610 . S
N544 S543 1.613 . S
N544 C547 1.350 . S
N545 S543 1.610 . S
N545 C546 1.351 . S
C546 C540 1.428 . S
C546 N545 1.351 . S
C546 C547 1.434 . S
C547 C538 1.429 . S
C547 N544 1.350 . S
C547 C546 1.434 . S
C548 C549 1.369 . S
C548 C550 1.419 . S
C548 H552 0.930 . S
C549 C548 1.369 . S
C549 C558 1.429 . S
C550 C548 1.419 . S
C550 C551 1.363 . S
C550 H553 0.929 . S
C551 C550 1.363 . S
C551 C557 1.428 . S
H552 C548 0.930 . S
H553 C550 0.929 . S
S554 N555 1.613 . S
S554 N556 1.610 . S
N555 S554 1.613 . S
N555 C558 1.350 . S
N556 S554 1.610 . S
N556 C557 1.351 . S
C557 C551 1.428 . S
C557 N556 1.351 . S
C557 C558 1.434 . S
C558 C549 1.429 . S
C558 N555 1.350 . S
C558 C557 1.434 . S
C559 C560 1.369 . S
C559 C561 1.419 . S
C559 H563 0.930 . S
C560 C559 1.369 . S
C560 C569 1.429 . S
C561 C559 1.419 . S
C561 C562 1.363 . S
C561 H564 0.929 . S
C562 C561 1.363 . S
C562 C568 1.428 . S
H563 C559 0.930 . S
H564 C561 0.929 . S
S565 N566 1.613 . S
S565 N567 1.610 . S
N566 S565 1.613 . S
N566 C569 1.350 . S
N567 S565 1.610 . S
N567 C568 1.351 . S
C568 C562 1.428 . S
C568 N567 1.351 . S
C568 C569 1.434 . S
C569 C560 1.429 . S
C569 N566 1.350 . S
C569 C568 1.434 . S
C570 C571 1.369 . S
C570 C572 1.419 . S
C570 H574 0.930 . S
C571 C570 1.369 . S
C571 C580 1.429 . S
C572 C570 1.419 . S
C572 C573 1.363 . S
C572 H575 0.929 . S
C573 C572 1.363 . S
C573 C579 1.428 . S
H574 C570 0.930 . S
H575 C572 0.929 . S
S576 N577 1.613 . S
S576 N578 1.610 . S
N577 S576 1.613 . S
N577 C580 1.350 . S
N578 S576 1.610 . S
N578 C579 1.351 . S
C579 C573 1.428 . S
C579 N578 1.351 . S
C579 C580 1.434 . S
C580 C571 1.429 . S
C580 N577 1.350 . S
C580 C579 1.434 . S
C581 C582 1.369 1_655 S
C581 C583 1.419 1_556 S
C581 H585 0.930 . S
C582 C581 1.369 1_455 S
C582 C591 1.429 . S
C583 C581 1.419 1_554 S
C583 C584 1.363 . S
C583 H586 0.929 . S
C584 C583 1.363 . S
C584 C590 1.434 1_655 S
H585 C581 0.930 . S
H586 C583 0.929 . S
S587 N588 1.613 . S
S587 N589 1.610 1_556 S
N588 S587 1.613 . S
N588 C591 1.350 . S
N589 S587 1.610 1_554 S
N589 C590 1.352 . S
C590 C584 1.434 1_455 S
C590 N589 1.352 . S
C590 C591 1.427 1_554 S
C591 C582 1.429 . S
C591 N588 1.350 . S
C591 C590 1.427 1_556 S
C592 C593 1.369 . S
C592 C594 1.419 1_545 S
C592 H596 0.930 . S
C593 C592 1.369 . S
C593 C602 1.429 1_545 S
C594 C592 1.419 1_565 S
C594 C595 1.363 . S
C594 H597 0.929 . S
C595 C594 1.363 . S
C595 C601 1.428 . S
H596 C592 0.930 . S
H597 C594 0.929 . S
S598 N599 1.613 . S
S598 N600 1.610 . S
N599 S598 1.613 . S
N599 C602 1.350 . S
N600 S598 1.610 . S
N600 C601 1.351 . S
C601 C595 1.428 . S
C601 N600 1.351 . S
C601 C602 1.434 . S
C602 C593 1.429 1_565 S
C602 N599 1.350 . S
C602 C601 1.434 . S
C603 C604 1.369 . S
C603 C605 1.419 . S
C603 H607 0.930 . S
C604 C603 1.369 . S
C604 C613 1.429 . S
C605 C603 1.419 . S
C605 C606 1.363 . S
C605 H608 0.929 . S
C606 C605 1.363 . S
C606 C612 1.428 . S
H607 C603 0.930 . S
H608 C605 0.929 . S
S609 N610 1.613 . S
S609 N611 1.610 . S
N610 S609 1.613 . S
N610 C613 1.350 . S
N611 S609 1.610 . S
N611 C612 1.351 . S
C612 C606 1.428 . S
C612 N611 1.351 . S
C612 C613 1.434 . S
C613 C604 1.429 . S
C613 N610 1.350 . S
C613 C612 1.434 . S
C614 C615 1.369 . S
C614 C616 1.419 . S
C614 H618 0.930 . S
C615 C614 1.369 . S
C615 C624 1.429 . S
C616 C614 1.419 . S
C616 C617 1.363 1_545 S
C616 H619 0.929 . S
C617 C616 1.363 1_565 S
C617 C623 1.428 . S
H618 C614 0.930 . S
H619 C616 0.929 . S
S620 N621 1.613 1_565 S
S620 N622 1.610 . S
N621 S620 1.613 1_545 S
N621 C624 1.350 . S
N622 S620 1.610 . S
N622 C623 1.351 . S
C623 C617 1.428 . S
C623 N622 1.351 . S
C623 C624 1.434 1_565 S
C624 C615 1.429 . S
C624 N621 1.350 . S
C624 C623 1.434 1_545 S
C625 C626 1.369 . S
C625 C627 1.419 1_556 S
C625 H629 0.930 . S
C626 C625 1.369 . S
C626 C635 1.429 . S
C627 C625 1.419 1_554 S
C627 C628 1.363 . S
C627 H630 0.929 . S
C628 C627 1.363 . S
C628 C634 1.428 1_554 S
H629 C625 0.930 . S
H630 C627 0.929 . S
S631 N632 1.613 . S
S631 N633 1.610 . S
N632 S631 1.613 . S
N632 C635 1.350 . S
N633 S631 1.610 . S
N633 C634 1.351 . S
C634 C628 1.428 1_556 S
C634 N633 1.351 . S
C634 C635 1.434 . S
C635 C626 1.429 . S
C635 N632 1.350 . S
C635 C634 1.434 . S
C636 C637 1.369 . S
C636 C638 1.419 1_545 S
C636 H640 0.929 1_545 S
C637 C636 1.369 . S
C637 C646 1.429 . S
C638 C636 1.419 1_565 S
C638 C639 1.363 . S
C638 H641 0.929 . S
C639 C638 1.363 . S
C639 C645 1.428 1_565 S
H640 C636 0.929 1_565 S
H641 C638 0.929 . S
S642 N643 1.613 . S
S642 N644 1.610 . S
N643 S642 1.613 . S
N643 C646 1.350 . S
N644 S642 1.610 . S
N644 C645 1.351 . S
C645 C639 1.428 1_545 S
C645 N644 1.351 . S
C645 C646 1.434 . S
C646 C637 1.429 . S
C646 N643 1.350 . S
C646 C645 1.434 . S
C647 C648 1.369 . S
C647 C649 1.419 . S
C647 H651 0.930 . S
C648 C647 1.369 . S
C648 C657 1.429 . S
C649 C647 1.419 . S
C649 C650 1.363 . S
C649 H652 0.929 . S
C650 C649 1.363 . S
C650 C656 1.428 . S
H651 C647 0.930 . S
H652 C649 0.929 . S
S653 N654 1.613 . S
S653 N655 1.610 . S
N654 S653 1.613 . S
N654 C657 1.350 . S
N655 S653 1.610 . S
N655 C656 1.351 . S
C656 C650 1.428 . S
C656 N655 1.351 . S
C656 C657 1.434 . S
C657 C648 1.429 . S
C657 N654 1.350 . S
C657 C656 1.434 . S
C658 C659 1.375 . S
C658 C660 1.412 1_545 S
C658 H662 0.932 . S
C659 C658 1.375 . S
C659 C668 1.429 . S
C660 C658 1.412 1_565 S
C660 C661 1.363 . S
C660 H663 0.929 . S
C661 C660 1.363 . S
C661 C667 1.428 . S
H662 C658 0.932 . S
H663 C660 0.929 . S
S664 N665 1.612 1_565 S
S664 N666 1.612 . S
N665 S664 1.612 1_545 S
N665 C668 1.350 . S
N666 S664 1.612 . S
N666 C667 1.351 . S
C667 C661 1.428 . S
C667 N666 1.351 . S
C667 C668 1.434 1_565 S
C668 C659 1.429 . S
C668 N665 1.350 . S
C668 C667 1.434 1_545 S
C669 C670 1.369 . S
C669 C671 1.419 1_556 S
C669 H673 0.930 . S
C670 C669 1.369 . S
C670 C679 1.429 1_556 S
C671 C669 1.419 1_554 S
C671 C672 1.363 . S
C671 H674 0.929 . S
C672 C671 1.363 . S
C672 C678 1.428 . S
H673 C669 0.930 . S
H674 C671 0.929 . S
S675 N676 1.613 . S
S675 N677 1.610 . S
N676 S675 1.613 . S
N676 C679 1.350 . S
N677 S675 1.610 . S
N677 C678 1.351 . S
C678 C672 1.428 . S
C678 N677 1.351 . S
C678 C679 1.434 . S
C679 C670 1.429 1_554 S
C679 N676 1.350 . S
C679 C678 1.434 . S
C680 C681 1.369 . S
C680 C682 1.419 . S
C680 H684 0.930 . S
C681 C680 1.369 . S
C681 C690 1.429 . S
C682 C680 1.419 . S
C682 C683 1.363 1_655 S
C682 H685 0.929 . S
C683 C682 1.363 1_455 S
C683 C689 1.428 . S
H684 C680 0.930 . S
H685 C682 0.929 . S
S686 N687 1.613 1_455 S
S686 N688 1.610 . S
N687 S686 1.613 1_655 S
N687 C690 1.350 . S
N688 S686 1.610 . S
N688 C689 1.351 . S
C689 C683 1.428 . S
C689 N688 1.351 . S
C689 C690 1.434 1_455 S
C690 C681 1.429 . S
C690 N687 1.350 . S
C690 C689 1.434 1_655 S
C691 C692 1.369 . S
C691 C693 1.419 . S
C691 H695 0.930 . S
C692 C691 1.369 . S
C692 C701 1.429 . S
C693 C691 1.419 . S
C693 C694 1.363 . S
C693 H696 0.929 . S
C694 C693 1.363 . S
C694 C700 1.428 . S
H695 C691 0.930 . S
H696 C693 0.929 . S
S697 N698 1.613 . S
S697 N699 1.610 . S
N698 S697 1.613 . S
N698 C701 1.350 . S
N699 S697 1.610 . S
N699 C700 1.351 . S
C700 C694 1.428 . S
C700 N699 1.351 . S
C700 C701 1.434 . S
C701 C692 1.429 . S
C701 N698 1.350 . S
C701 C700 1.434 . S
C702 C703 1.369 . S
C702 C704 1.419 1_655 S
C702 H706 0.930 . S
C703 C702 1.369 . S
C703 C712 1.429 . S
C704 C702 1.419 1_455 S
C704 C705 1.363 . S
C704 H707 0.929 . S
C705 C704 1.363 . S
C705 C711 1.428 . S
H706 C702 0.930 . S
H707 C704 0.929 . S
S708 N709 1.613 . S
S708 N710 1.610 1_655 S
N709 S708 1.613 . S
N709 C712 1.350 . S
N710 S708 1.610 1_455 S
N710 C711 1.351 . S
C711 C705 1.428 . S
C711 N710 1.351 . S
C711 C712 1.434 1_455 S
C712 C703 1.429 . S
C712 N709 1.350 . S
C712 C711 1.434 1_655 S
C713 C714 1.369 1_455 S
C713 C715 1.419 . S
C713 H717 0.930 . S
C714 C713 1.369 1_655 S
C714 C723 1.429 . S
C715 C713 1.419 . S
C715 C716 1.363 . S
C715 H718 0.929 . S
C716 C715 1.363 . S
C716 C722 1.428 . S
H717 C713 0.930 . S
H718 C715 0.929 . S
S719 N720 1.613 . S
S719 N721 1.610 1_655 S
N720 S719 1.613 . S
N720 C723 1.350 . S
N721 S719 1.610 1_455 S
N721 C722 1.351 . S
C722 C716 1.428 . S
C722 N721 1.351 . S
C722 C723 1.434 1_455 S
C723 C714 1.429 . S
C723 N720 1.350 . S
C723 C722 1.434 1_655 S
C724 C725 1.369 . S
C724 C726 1.419 . S
C724 H728 0.930 . S
C725 C724 1.369 . S
C725 C734 1.429 . S
C726 C724 1.419 . S
C726 C727 1.363 . S
C726 H729 0.929 . S
C727 C726 1.363 . S
C727 C733 1.428 . S
H728 C724 0.930 . S
H729 C726 0.929 . S
S730 N731 1.613 . S
S730 N732 1.610 . S
N731 S730 1.613 . S
N731 C734 1.350 . S
N732 S730 1.610 . S
N732 C733 1.351 . S
C733 C727 1.428 . S
C733 N732 1.351 . S
C733 C734 1.434 . S
C734 C725 1.429 . S
C734 N731 1.350 . S
C734 C733 1.434 . S
C735 C736 1.369 . S
C735 C737 1.419 1_655 S
C735 H739 0.930 1_655 S
C736 C735 1.369 . S
C736 C745 1.429 . S
C737 C735 1.419 1_455 S
C737 C738 1.363 . S
C737 H740 0.929 . S
C738 C737 1.363 . S
C738 C744 1.428 1_455 S
H739 C735 0.930 1_455 S
H740 C737 0.929 . S
S741 N742 1.613 . S
S741 N743 1.610 . S
N742 S741 1.613 . S
N742 C745 1.350 . S
N743 S741 1.610 . S
N743 C744 1.351 . S
C744 C738 1.428 1_655 S
C744 N743 1.351 . S
C744 C745 1.434 . S
C745 C736 1.429 . S
C745 N742 1.350 . S
C745 C744 1.434 . S
C746 C747 1.369 . S
C746 C748 1.419 . S
C746 H750 0.930 . S
C747 C746 1.369 . S
C747 C756 1.429 . S
C748 C746 1.419 . S
C748 C749 1.363 . S
C748 H751 0.929 . S
C749 C748 1.363 . S
C749 C755 1.428 . S
H750 C746 0.930 . S
H751 C748 0.929 . S
S752 N753 1.613 . S
S752 N754 1.610 . S
N753 S752 1.613 . S
N753 C756 1.350 . S
N754 S752 1.610 . S
N754 C755 1.351 . S
C755 C749 1.428 . S
C755 N754 1.351 . S
C755 C756 1.434 . S
C756 C747 1.429 . S
C756 N753 1.350 . S
C756 C755 1.434 . S
C757 C758 1.369 . S
C757 C759 1.419 1_545 S
C757 H761 0.930 . S
C758 C757 1.369 . S
C758 C767 1.429 . S
C759 C757 1.419 1_565 S
C759 C760 1.363 . S
C759 H762 0.929 . S
C760 C759 1.363 . S
C760 C766 1.428 1_565 S
H761 C757 0.930 . S
H762 C759 0.929 . S
S763 N764 1.613 . S
S763 N765 1.610 . S
N764 S763 1.613 . S
N764 C767 1.350 . S
N765 S763 1.610 . S
N765 C766 1.351 . S
C766 C760 1.428 1_545 S
C766 N765 1.351 . S
C766 C767 1.434 . S
C767 C758 1.429 . S
C767 N764 1.350 . S
C767 C766 1.434 . S
C768 C769 1.369 . S
C768 C770 1.419 . S
C768 H772 0.930 . S
C769 C768 1.369 . S
C769 C778 1.429 . S
C770 C768 1.419 . S
C770 C771 1.363 . S
C770 H773 0.929 . S
C771 C770 1.363 . S
C771 C777 1.428 . S
H772 C768 0.930 . S
H773 C770 0.929 . S
S774 N775 1.613 . S
S774 N776 1.610 . S
N775 S774 1.613 . S
N775 C778 1.350 . S
N776 S774 1.610 . S
N776 C777 1.351 . S
C777 C771 1.428 . S
C777 N776 1.351 . S
C777 C778 1.434 . S
C778 C769 1.429 . S
C778 N775 1.350 . S
C778 C777 1.434 . S
C779 C780 1.369 . S
C779 C781 1.419 . S
C779 H783 0.930 . S
C780 C779 1.369 . S
C780 C789 1.429 . S
C781 C779 1.419 . S
C781 C782 1.363 1_565 S
C781 H784 0.929 1_565 S
C782 C781 1.363 1_545 S
C782 C788 1.428 1_545 S
H783 C779 0.930 . S
H784 C781 0.929 1_545 S
S785 N786 1.613 . S
S785 N787 1.610 1_565 S
N786 S785 1.613 . S
N786 C789 1.350 . S
N787 S785 1.610 1_545 S
N787 C788 1.351 1_545 S
C788 C782 1.428 1_565 S
C788 N787 1.351 1_565 S
C788 C789 1.434 . S
C789 C780 1.429 . S
C789 N786 1.350 . S
C789 C788 1.434 . S
C790 C791 1.369 . S
C790 C792 1.419 . S
C790 H794 0.930 . S
C791 C790 1.369 . S
C791 C800 1.429 1_556 S
C792 C790 1.419 . S
C792 C793 1.363 1_556 S
C792 H795 0.929 . S
C793 C792 1.363 1_554 S
C793 C799 1.428 . S
H794 C790 0.930 . S
H795 C792 0.929 . S
S796 N797 1.613 . S
S796 N798 1.610 . S
N797 S796 1.613 . S
N797 C800 1.350 . S
N798 S796 1.610 . S
N798 C799 1.351 . S
C799 C793 1.428 . S
C799 N798 1.351 . S
C799 C800 1.434 . S
C800 C791 1.429 1_554 S
C800 N797 1.350 . S
C800 C799 1.434 . S
C801 C802 1.369 1_565 S
C801 C803 1.419 . S
C801 H805 0.930 . S
C802 C801 1.369 1_545 S
C802 C811 1.429 . S
C803 C801 1.419 . S
C803 C804 1.363 . S
C803 H806 0.929 . S
C804 C803 1.363 . S
C804 C810 1.428 . S
H805 C801 0.930 . S
H806 C803 0.929 . S
S807 N808 1.613 . S
S807 N809 1.610 1_545 S
N808 S807 1.613 . S
N808 C811 1.350 . S
N809 S807 1.610 1_565 S
N809 C810 1.351 . S
C810 C804 1.428 . S
C810 N809 1.351 . S
C810 C811 1.434 1_565 S
C811 C802 1.429 . S
C811 N808 1.350 . S
C811 C810 1.434 1_545 S
C812 C813 1.369 . S
C812 C814 1.419 . S
C812 H816 0.930 . S
C813 C812 1.369 . S
C813 C822 1.429 . S
C814 C812 1.419 . S
C814 C815 1.363 . S
C814 H817 0.929 . S
C815 C814 1.363 . S
C815 C821 1.428 . S
H816 C812 0.930 . S
H817 C814 0.929 . S
S818 N819 1.613 . S
S818 N820 1.610 . S
N819 S818 1.613 . S
N819 C822 1.350 . S
N820 S818 1.610 . S
N820 C821 1.351 . S
C821 C815 1.428 . S
C821 N820 1.351 . S
C821 C822 1.434 . S
C822 C813 1.429 . S
C822 N819 1.350 . S
C822 C821 1.434 . S
C823 C824 1.369 1_545 S
C823 C825 1.419 . S
C823 H827 0.930 . S
C824 C823 1.369 1_565 S
C824 C833 1.429 1_565 S
C825 C823 1.419 . S
C825 C826 1.363 . S
C825 H828 0.929 . S
C826 C825 1.363 . S
C826 C832 1.428 . S
H827 C823 0.930 . S
H828 C825 0.929 . S
S829 N830 1.613 1_545 S
S829 N831 1.610 . S
N830 S829 1.613 1_565 S
N830 C833 1.350 1_565 S
N831 S829 1.610 . S
N831 C832 1.351 . S
C832 C826 1.428 . S
C832 N831 1.351 . S
C832 C833 1.434 . S
C833 C824 1.429 1_545 S
C833 N830 1.350 1_545 S
C833 C832 1.434 . S
C834 C835 1.369 1_556 S
C834 C836 1.419 . S
C834 H838 0.930 . S
C835 C834 1.369 1_554 S
C835 C844 1.429 . S
C836 C834 1.419 . S
C836 C837 1.363 . S
C836 H839 0.929 . S
C837 C836 1.363 . S
C837 C843 1.428 . S
H838 C834 0.930 . S
H839 C836 0.929 . S
S840 N841 1.613 . S
S840 N842 1.610 . S
N841 S840 1.613 . S
N841 C844 1.350 . S
N842 S840 1.610 . S
N842 C843 1.351 1_554 S
C843 C837 1.428 . S
C843 N842 1.351 1_556 S
C843 C844 1.434 1_556 S
C844 C835 1.429 . S
C844 N841 1.350 . S
C844 C843 1.434 1_554 S
C845 C846 1.369 1_455 S
C845 C847 1.419 . S
C845 H849 0.930 . S
C846 C845 1.369 1_655 S
C846 C855 1.429 . S
C847 C845 1.419 . S
C847 C848 1.363 . S
C847 H850 0.929 . S
C848 C847 1.363 . S
C848 C854 1.428 . S
H849 C845 0.930 . S
H850 C847 0.929 . S
S851 N852 1.613 . S
S851 N853 1.610 . S
N852 S851 1.613 . S
N852 C855 1.350 . S
N853 S851 1.610 . S
N853 C854 1.351 1_655 S
C854 C848 1.428 . S
C854 N853 1.351 1_455 S
C854 C855 1.434 1_455 S
C855 C846 1.429 . S
C855 N852 1.350 . S
C855 C854 1.434 1_655 S
C856 C857 1.369 . S
C856 C858 1.419 . S
C856 H860 0.930 . S
C857 C856 1.369 . S
C857 C866 1.429 . S
C858 C856 1.419 . S
C858 C859 1.363 . S
C858 H861 0.929 . S
C859 C858 1.363 . S
C859 C865 1.428 . S
H860 C856 0.930 . S
H861 C858 0.929 . S
S862 N863 1.613 . S
S862 N864 1.610 . S
N863 S862 1.613 . S
N863 C866 1.350 . S
N864 S862 1.610 . S
N864 C865 1.351 . S
C865 C859 1.428 . S
C865 N864 1.351 . S
C865 C866 1.434 . S
C866 C857 1.429 . S
C866 N863 1.350 . S
C866 C865 1.434 . S
C867 C868 1.369 . S
C867 C869 1.419 1_455 S
C867 H871 0.930 . S
C868 C867 1.369 . S
C868 C877 1.429 1_455 S
C869 C867 1.419 1_655 S
C869 C870 1.363 . S
C869 H872 0.929 . S
C870 C869 1.363 . S
C870 C876 1.428 . S
H871 C867 0.930 . S
H872 C869 0.929 . S
S873 N874 1.613 . S
S873 N875 1.610 . S
N874 S873 1.613 . S
N874 C877 1.350 . S
N875 S873 1.610 . S
N875 C876 1.351 . S
C876 C870 1.428 . S
C876 N875 1.351 . S
C876 C877 1.434 . S
C877 C868 1.429 1_655 S
C877 N874 1.350 . S
C877 C876 1.434 . S
C878 C879 1.369 . S
C878 C880 1.419 1_455 S
C878 H882 0.930 . S
C879 C878 1.369 . S
C879 C888 1.429 1_455 S
C880 C878 1.419 1_655 S
C880 C881 1.363 . S
C880 H883 0.929 . S
C881 C880 1.363 . S
C881 C887 1.428 . S
H882 C878 0.930 . S
H883 C880 0.929 . S
S884 N885 1.613 . S
S884 N886 1.610 . S
N885 S884 1.613 . S
N885 C888 1.350 . S
N886 S884 1.610 . S
N886 C887 1.351 . S
C887 C881 1.428 . S
C887 N886 1.351 . S
C887 C888 1.434 . S
C888 C879 1.429 1_655 S
C888 N885 1.350 . S
C888 C887 1.434 . S
C889 C890 1.369 . S
C889 C891 1.419 . S
C889 H893 0.930 . S
C890 C889 1.369 . S
C890 C899 1.429 . S
C891 C889 1.419 . S
C891 C892 1.363 . S
C891 H894 0.929 . S
C892 C891 1.363 . S
C892 C898 1.428 . S
H893 C889 0.930 . S
H894 C891 0.929 . S
S895 N896 1.613 . S
S895 N897 1.610 . S
N896 S895 1.613 . S
N896 C899 1.350 . S
N897 S895 1.610 . S
N897 C898 1.351 . S
C898 C892 1.428 . S
C898 N897 1.351 . S
C898 C899 1.434 . S
C899 C890 1.429 . S
C899 N896 1.350 . S
C899 C898 1.434 . S
C900 C901 1.369 . S
C900 C902 1.419 1_655 S
C900 H904 0.930 . S
C901 C900 1.369 . S
C901 C910 1.429 1_655 S
C902 C900 1.419 1_455 S
C902 C903 1.363 . S
C902 H905 0.929 . S
C903 C902 1.363 . S
C903 C909 1.428 . S
H904 C900 0.930 . S
H905 C902 0.929 . S
S906 N907 1.613 . S
S906 N908 1.610 . S
N907 S906 1.613 . S
N907 C910 1.350 . S
N908 S906 1.610 . S
N908 C909 1.351 . S
C909 C903 1.428 . S
C909 N908 1.351 . S
C909 C910 1.434 . S
C910 C901 1.429 1_455 S
C910 N907 1.350 . S
C910 C909 1.434 . S
C911 C912 1.369 . S
C911 C913 1.419 . S
C911 H915 0.930 . S
C912 C911 1.369 . S
C912 C921 1.429 . S
C913 C911 1.419 . S
C913 C914 1.363 . S
C913 H916 0.929 . S
C914 C913 1.363 . S
C914 C920 1.428 . S
H915 C911 0.930 . S
H916 C913 0.929 . S
S917 N918 1.613 . S
S917 N919 1.610 . S
N918 S917 1.613 . S
N918 C921 1.350 . S
N919 S917 1.610 . S
N919 C920 1.351 . S
C920 C914 1.428 . S
C920 N919 1.351 . S
C920 C921 1.434 . S
C921 C912 1.429 . S
C921 N918 1.350 . S
C921 C920 1.434 . S
C922 C923 1.369 . S
C922 C924 1.419 . S
C922 H926 0.930 . S
C923 C922 1.369 . S
C923 C932 1.429 . S
C924 C922 1.419 . S
C924 C925 1.363 . S
C924 H927 0.929 . S
C925 C924 1.363 . S
C925 C931 1.428 . S
H926 C922 0.930 . S
H927 C924 0.929 . S
S928 N929 1.613 . S
S928 N930 1.610 . S
N929 S928 1.613 . S
N929 C932 1.350 . S
N930 S928 1.610 . S
N930 C931 1.351 . S
C931 C925 1.428 . S
C931 N930 1.351 . S
C931 C932 1.434 . S
C932 C923 1.429 . S
C932 N929 1.350 . S
C932 C931 1.434 . S
C933 C934 1.369 1_556 S
C933 C935 1.419 . S
C933 H937 0.930 . S
C934 C933 1.369 1_554 S
C934 C943 1.429 . S
C935 C933 1.419 . S
C935 C936 1.363 . S
C935 H938 0.929 . S
C936 C935 1.363 . S
C936 C942 1.428 . S
H937 C933 0.930 . S
H938 C935 0.929 . S
S939 N940 1.613 . S
S939 N941 1.610 . S
N940 S939 1.613 . S
N940 C943 1.350 . S
N941 S939 1.610 . S
N941 C942 1.351 1_554 S
C942 C936 1.428 . S
C942 N941 1.351 1_556 S
C942 C943 1.434 1_556 S
C943 C934 1.429 . S
C943 N940 1.350 . S
C943 C942 1.434 1_554 S
C944 C945 1.369 . S
C944 C946 1.419 . S
C944 H948 0.930 . S
C945 C944 1.369 . S
C945 C954 1.429 . S
C946 C944 1.419 . S
C946 C947 1.363 . S
C946 H949 0.929 . S
C947 C946 1.363 . S
C947 C953 1.428 . S
H948 C944 0.930 . S
H949 C946 0.929 . S
S950 N951 1.613 . S
S950 N952 1.610 . S
N951 S950 1.613 . S
N951 C954 1.350 . S
N952 S950 1.610 . S
N952 C953 1.351 . S
C953 C947 1.428 . S
C953 N952 1.351 . S
C953 C954 1.434 . S
C954 C945 1.429 . S
C954 N951 1.350 . S
C954 C953 1.434 . S
C955 C956 1.369 . S
C955 C957 1.419 . S
C955 H959 0.930 . S
C956 C955 1.369 . S
C956 C965 1.429 . S
C957 C955 1.419 . S
C957 C958 1.363 . S
C957 H960 0.929 . S
C958 C957 1.363 . S
C958 C964 1.428 . S
H959 C955 0.930 . S
H960 C957 0.929 . S
S961 N962 1.613 . S
S961 N963 1.610 . S
N962 S961 1.613 . S
N962 C965 1.350 . S
N963 S961 1.610 . S
N963 C964 1.351 . S
C964 C958 1.428 . S
C964 N963 1.351 . S
C964 C965 1.434 . S
C965 C956 1.429 . S
C965 N962 1.350 . S
C965 C964 1.434 . S
C966 C967 1.369 . S
C966 C968 1.419 . S
C966 H970 0.930 . S
C967 C966 1.369 . S
C967 C976 1.429 . S
C968 C966 1.419 . S
C968 C969 1.363 . S
C968 H971 0.929 . S
C969 C968 1.363 . S
C969 C975 1.428 . S
H970 C966 0.930 . S
H971 C968 0.929 . S
S972 N973 1.613 . S
S972 N974 1.610 . S
N973 S972 1.613 . S
N973 C976 1.350 . S
N974 S972 1.610 . S
N974 C975 1.351 . S
C975 C969 1.428 . S
C975 N974 1.351 . S
C975 C976 1.434 . S
C976 C967 1.429 . S
C976 N973 1.350 . S
C976 C975 1.434 . S
C977 C978 1.369 . S
C977 C979 1.419 1_554 S
C977 H981 0.930 . S
C978 C977 1.369 . S
C978 C987 1.429 . S
C979 C977 1.419 1_556 S
C979 C980 1.363 . S
C979 H982 0.929 . S
C980 C979 1.363 . S
C980 C986 1.428 1_556 S
H981 C977 0.930 . S
H982 C979 0.929 . S
S983 N984 1.613 . S
S983 N985 1.610 . S
N984 S983 1.613 . S
N984 C987 1.350 . S
N985 S983 1.610 . S
N985 C986 1.351 . S
C986 C980 1.428 1_554 S
C986 N985 1.351 . S
C986 C987 1.434 . S
C987 C978 1.429 . S
C987 N984 1.350 . S
C987 C986 1.434 . S
C988 C989 1.369 . S
C988 C990 1.419 . S
C988 H992 0.930 . S
C989 C988 1.369 . S
C989 C998 1.429 . S
C990 C988 1.419 . S
C990 C991 1.363 . S
C990 H993 0.929 . S
C991 C990 1.363 . S
C991 C997 1.428 . S
H992 C988 0.930 . S
H993 C990 0.929 . S
S994 N995 1.613 . S
S994 N996 1.610 . S
N995 S994 1.613 . S
N995 C998 1.350 . S
N996 S994 1.610 . S
N996 C997 1.351 . S
C997 C991 1.428 . S
C997 N996 1.351 . S
C997 C998 1.434 . S
C998 C989 1.429 . S
C998 N995 1.350 . S
C998 C997 1.434 . S
C999 C1000 1.369 . S
C999 C1001 1.419 . S
C999 H1003 0.930 . S
C1000 C999 1.369 . S
C1000 C1009 1.429 . S
C1001 C999 1.419 . S
C1001 C1002 1.363 . S
C1001 H1004 0.929 . S
C1002 C1001 1.363 . S
C1002 C1008 1.428 . S
H1003 C999 0.930 . S
H1004 C1001 0.929 . S
S1005 N1006 1.613 . S
S1005 N1007 1.610 . S
N1006 S1005 1.613 . S
N1006 C1009 1.350 . S
N1007 S1005 1.610 . S
N1007 C1008 1.351 . S
C1008 C1002 1.428 . S
C1008 N1007 1.351 . S
C1008 C1009 1.434 . S
C1009 C1000 1.429 . S
C1009 N1006 1.350 . S
C1009 C1008 1.434 . S
C1010 C1011 1.369 . S
C1010 C1012 1.419 . S
C1010 H1014 0.930 . S
C1011 C1010 1.369 . S
C1011 C1020 1.429 . S
C1012 C1010 1.419 . S
C1012 C1013 1.363 . S
C1012 H1015 0.929 . S
C1013 C1012 1.363 . S
C1013 C1019 1.428 . S
H1014 C1010 0.930 . S
H1015 C1012 0.929 . S
S1016 N1017 1.613 . S
S1016 N1018 1.610 . S
N1017 S1016 1.613 . S
N1017 C1020 1.350 . S
N1018 S1016 1.610 . S
N1018 C1019 1.351 . S
C1019 C1013 1.428 . S
C1019 N1018 1.351 . S
C1019 C1020 1.434 . S
C1020 C1011 1.429 . S
C1020 N1017 1.350 . S
C1020 C1019 1.434 . S
C1021 C1022 1.369 . S
C1021 C1023 1.419 . S
C1021 H1025 0.930 . S
C1022 C1021 1.369 . S
C1022 C1031 1.429 . S
C1023 C1021 1.419 . S
C1023 C1024 1.363 . S
C1023 H1026 0.929 . S
C1024 C1023 1.363 . S
C1024 C1030 1.428 . S
H1025 C1021 0.930 . S
H1026 C1023 0.929 . S
S1027 N1028 1.613 . S
S1027 N1029 1.610 . S
N1028 S1027 1.613 . S
N1028 C1031 1.350 . S
N1029 S1027 1.610 . S
N1029 C1030 1.351 . S
C1030 C1024 1.428 . S
C1030 N1029 1.351 . S
C1030 C1031 1.434 . S
C1031 C1022 1.429 . S
C1031 N1028 1.350 . S
C1031 C1030 1.434 . S
C1032 C1033 1.369 . S
C1032 C1034 1.422 . S
C1032 H1036 0.930 . S
C1033 C1032 1.369 . S
C1033 C1042 1.429 1_554 S
C1034 C1032 1.422 . S
C1034 C1035 1.359 1_554 S
C1034 H1037 0.930 . S
C1035 C1034 1.359 1_556 S
C1035 C1041 1.428 . S
H1036 C1032 0.930 . S
H1037 C1034 0.930 . S
S1038 N1039 1.613 . S
S1038 N1040 1.610 . S
N1039 S1038 1.613 . S
N1039 C1042 1.350 . S
N1040 S1038 1.610 . S
N1040 C1041 1.351 . S
C1041 C1035 1.428 . S
C1041 N1040 1.351 . S
C1041 C1042 1.434 . S
C1042 C1033 1.429 1_556 S
C1042 N1039 1.350 . S
C1042 C1041 1.434 . S
C1043 C1044 1.369 . S
C1043 C1045 1.419 . S
C1043 H1047 0.930 . S
C1044 C1043 1.369 . S
C1044 C1053 1.429 . S
C1045 C1043 1.419 . S
C1045 C1046 1.363 . S
C1045 H1048 0.929 . S
C1046 C1045 1.363 . S
C1046 C1052 1.428 . S
H1047 C1043 0.930 . S
H1048 C1045 0.929 . S
S1049 N1050 1.613 . S
S1049 N1051 1.610 . S
N1050 S1049 1.613 . S
N1050 C1053 1.350 . S
N1051 S1049 1.610 . S
N1051 C1052 1.351 . S
C1052 C1046 1.428 . S
C1052 N1051 1.351 . S
C1052 C1053 1.434 . S
C1053 C1044 1.429 . S
C1053 N1050 1.350 . S
C1053 C1052 1.434 . S
C1054 C1055 1.369 . S
C1054 C1056 1.419 . S
C1054 H1058 0.930 . S
C1055 C1054 1.369 . S
C1055 C1064 1.429 . S
C1056 C1054 1.419 . S
C1056 C1057 1.363 . S
C1056 H1059 0.929 . S
C1057 C1056 1.363 . S
C1057 C1063 1.428 . S
H1058 C1054 0.930 . S
H1059 C1056 0.929 . S
S1060 N1061 1.613 . S
S1060 N1062 1.610 . S
N1061 S1060 1.613 . S
N1061 C1064 1.350 . S
N1062 S1060 1.610 . S
N1062 C1063 1.351 . S
C1063 C1057 1.428 . S
C1063 N1062 1.351 . S
C1063 C1064 1.434 . S
C1064 C1055 1.429 . S
C1064 N1061 1.350 . S
C1064 C1063 1.434 . S
C1065 C1066 1.369 . S
C1065 C1067 1.419 . S
C1065 H1069 0.930 . S
C1066 C1065 1.369 . S
C1066 C1075 1.429 . S
C1067 C1065 1.419 . S
C1067 C1068 1.363 . S
C1067 H1070 0.929 . S
C1068 C1067 1.363 . S
C1068 C1074 1.428 . S
H1069 C1065 0.930 . S
H1070 C1067 0.929 . S
S1071 N1072 1.613 . S
S1071 N1073 1.610 . S
N1072 S1071 1.613 . S
N1072 C1075 1.350 . S
N1073 S1071 1.610 . S
N1073 C1074 1.351 . S
C1074 C1068 1.428 . S
C1074 N1073 1.351 . S
C1074 C1075 1.434 . S
C1075 C1066 1.429 . S
C1075 N1072 1.350 . S
C1075 C1074 1.434 . S
C1076 C1077 1.369 1_556 S
C1076 C1078 1.419 . S
C1076 H1080 0.930 . S
C1077 C1076 1.369 1_554 S
C1077 C1086 1.429 . S
C1078 C1076 1.419 . S
C1078 C1079 1.363 . S
C1078 H1081 0.929 . S
C1079 C1078 1.363 . S
C1079 C1085 1.428 1_556 S
H1080 C1076 0.930 . S
H1081 C1078 0.929 . S
S1082 N1083 1.613 . S
S1082 N1084 1.610 . S
N1083 S1082 1.613 . S
N1083 C1086 1.350 . S
N1084 S1082 1.610 . S
N1084 C1085 1.351 . S
C1085 C1079 1.428 1_554 S
C1085 N1084 1.351 . S
C1085 C1086 1.434 . S
C1086 C1077 1.429 . S
C1086 N1083 1.350 . S
C1086 C1085 1.434 . S
C1087 C1088 1.369 . S
C1087 C1089 1.419 . S
C1087 H1091 0.930 . S
C1088 C1087 1.369 . S
C1088 C1097 1.429 . S
C1089 C1087 1.419 . S
C1089 C1090 1.363 . S
C1089 H1092 0.929 . S
C1090 C1089 1.363 . S
C1090 C1096 1.428 . S
H1091 C1087 0.930 . S
H1092 C1089 0.929 . S
S1093 N1094 1.613 . S
S1093 N1095 1.610 . S
N1094 S1093 1.613 . S
N1094 C1097 1.350 . S
N1095 S1093 1.610 . S
N1095 C1096 1.351 . S
C1096 C1090 1.428 . S
C1096 N1095 1.351 . S
C1096 C1097 1.434 . S
C1097 C1088 1.429 . S
C1097 N1094 1.350 . S
C1097 C1096 1.434 . S
C1098 C1099 1.369 . S
C1098 C1100 1.419 . S
C1098 H1102 0.930 . S
C1099 C1098 1.369 . S
C1099 C1108 1.429 . S
C1100 C1098 1.419 . S
C1100 C1101 1.363 . S
C1100 H1103 0.929 . S
C1101 C1100 1.363 . S
C1101 C1107 1.428 . S
H1102 C1098 0.930 . S
H1103 C1100 0.929 . S
S1104 N1105 1.613 . S
S1104 N1106 1.610 . S
N1105 S1104 1.613 . S
N1105 C1108 1.350 . S
N1106 S1104 1.610 . S
N1106 C1107 1.351 . S
C1107 C1101 1.428 . S
C1107 N1106 1.351 . S
C1107 C1108 1.434 . S
C1108 C1099 1.429 . S
C1108 N1105 1.350 . S
C1108 C1107 1.434 . S
C1109 C1110 1.369 . S
C1109 C1111 1.419 . S
C1109 H1113 0.930 . S
C1110 C1109 1.369 . S
C1110 C1119 1.429 . S
C1111 C1109 1.419 . S
C1111 C1112 1.363 . S
C1111 H1114 0.929 . S
C1112 C1111 1.363 . S
C1112 C1118 1.428 . S
H1113 C1109 0.930 . S
H1114 C1111 0.929 . S
S1115 N1116 1.613 . S
S1115 N1117 1.610 . S
N1116 S1115 1.613 . S
N1116 C1119 1.350 . S
N1117 S1115 1.610 . S
N1117 C1118 1.351 . S
C1118 C1112 1.428 . S
C1118 N1117 1.351 . S
C1118 C1119 1.434 . S
C1119 C1110 1.429 . S
C1119 N1116 1.350 . S
C1119 C1118 1.434 . S
C417 C8 1.055 . S
C419 C177 1.069 . S
C428 C333 1.356 . S
C430 C21 1.351 . S
C439 C34 1.049 . S
C441 C203 1.069 . S
C450 C47 1.350 . S
C452 C320 1.353 . S
C461 C60 1.415 . S
C463 C229 1.433 . S
C472 C73 1.137 . S
C474 C294 1.138 . S
C483 C86 1.416 . S
C485 C255 1.433 . S
C494 C411 1.141 . S
C496 C99 1.136 . S
C505 C281 1.436 . S
C507 C112 1.419 . S
C516 C125 1.137 . S
C518 C242 1.140 . S
C527 C307 1.431 . S
C529 C138 1.415 . S
C538 C151 1.350 . S
C540 C216 1.353 . S
C549 C190 1.354 . S
C551 C164 1.351 . S
C560 C268 1.140 . S
C562 C372 1.136 . S
C571 C385 1.067 . S
C573 C346 1.050 . S
C582 C398 1.062 . S
C584 C359 1.054 . S
C593 C10 1.578 . S
C595 C23 1.574 . S
C604 C31 1.492 . S
C606 C13 1.552 . S
C615 C49 1.578 . S
C617 C36 1.582 . S
C626 C39 1.552 . S
C628 C5 1.498 . S
C637 C96 1.420 . S
C639 C57 1.423 . S
C648 C75 1.519 . S
C650 C52 1.598 . S
C659 C83 1.428 . S
C661 C70 1.417 . S
C670 C78 1.598 . S
C672 C101 1.519 . S
C681 C117 1.588 . S
C683 C0 1.595 . S
C692 C114 1.498 . S
C694 C44 1.511 . S
C703 C140 1.492 . S
C705 C18 1.516 . S
C714 C351 1.595 . S
C716 C91 1.589 . S
C725 C364 1.587 . S
C727 C26 1.594 . S
C736 C148 1.509 . S
C738 C62 1.494 . S
C747 C88 1.497 . S
C749 C161 1.511 . S
C758 C187 1.599 . S
C760 C174 1.580 . S
C769 C205 1.449 . S
C771 C182 1.497 . S
C780 C213 1.600 . S
C782 C200 1.582 . S
C791 C179 1.449 . S
C793 C208 1.497 . S
C802 C221 1.490 . S
C804 C270 1.454 . S
C813 C226 1.633 . S
C815 C239 1.607 . S
C824 C247 1.492 . S
C826 C244 1.451 . S
C835 C252 1.637 . S
C837 C265 1.612 . S
C846 C169 1.497 . S
C848 C286 1.495 . S
C857 C283 1.533 . S
C859 C218 1.524 . S
C868 C309 1.528 . S
C870 C192 1.523 . S
C879 C390 1.505 . S
C881 C260 1.494 . S
C890 C403 1.498 . S
C892 C195 1.501 . S
C901 C231 1.525 . S
C903 C322 1.524 . S
C912 C335 1.530 . S
C914 C257 1.531 . S
C923 C166 1.576 . S
C925 C348 1.575 . S
C934 C356 1.498 . S
C936 C156 1.553 . S
C945 C153 1.583 . S
C947 C361 1.578 . S
C956 C143 1.552 . S
C958 C343 1.499 . S
C967 C109 1.424 . S
C969 C369 1.421 . S
C978 C127 1.514 . S
C980 C104 1.598 . S
C989 C135 1.418 . S
C991 C122 1.425 . S
C1000 C130 1.598 . S
C1002 C374 1.517 . S
C1011 C338 1.594 . S
C1013 C65 1.587 . S
C1022 C330 1.599 . S
C1024 C382 1.579 . S
C1033 C325 1.491 . S
C1035 C400 1.457 . S
C1044 C395 1.585 . S
C1046 C317 1.603 . S
C1055 C312 1.498 . S
C1057 C387 1.451 . S
C1066 C413 1.455 . S
C1068 C273 1.489 . S
C1077 C278 1.637 . S
C1079 C291 1.613 . S
C1088 C299 1.492 . S
C1090 C296 1.449 . S
C1099 C304 1.637 . S
C1101 C408 1.613 . S
C1110 C377 1.500 . S
C1112 C234 1.492 . S
