# Generated by pormake.
# Topology sxa, (6)-cn, num edge types: 1
# Building blocks:
#     Node 0, Type 0, BuildingBlock: PAMTOO_clean_sbu_0, # of connection points: 6
#     Node 1, Type 0, BuildingBlock: PAMTOO_clean_sbu_0, # of connection points: 6
#     Node 2, Type 0, BuildingBlock: PAMTOO_clean_sbu_0, # of connection points: 6
#     Node 3, Type 0, BuildingBlock: PAMTOO_clean_sbu_0, # of connection points: 6
#     Edge 4, Type (0, 0), BuildingBlock: XUDNAN_clean_linker_2, # of connection points: 2
#     Edge 5, Type (0, 0), BuildingBlock: XUDNAN_clean_linker_2, # of connection points: 2
#     Edge 6, Type (0, 0), BuildingBlock: XUDNAN_clean_linker_2, # of connection points: 2
#     Edge 7, Type (0, 0), BuildingBlock: XUDNAN_clean_linker_2, # of connection points: 2
#     Edge 8, Type (0, 0), BuildingBlock: XUDNAN_clean_linker_2, # of connection points: 2
#     Edge 9, Type (0, 0), BuildingBlock: XUDNAN_clean_linker_2, # of connection points: 2
#     Edge 10, Type (0, 0), BuildingBlock: XUDNAN_clean_linker_2, # of connection points: 2
#     Edge 11, Type (0, 0), BuildingBlock: XUDNAN_clean_linker_2, # of connection points: 2
#     Edge 12, Type (0, 0), BuildingBlock: XUDNAN_clean_linker_2, # of connection points: 2
#     Edge 13, Type (0, 0), BuildingBlock: XUDNAN_clean_linker_2, # of connection points: 2
#     Edge 14, Type (0, 0), BuildingBlock: XUDNAN_clean_linker_2, # of connection points: 2
#     Edge 15, Type (0, 0), BuildingBlock: XUDNAN_clean_linker_2, # of connection points: 2
# Relax obj value: 0.226
# Max RMSD: 0.280
# Mean RMSD: 0.280
data_MOF--net-sxa--node1-PAMTOO_clean_sbu_0--edge1-XUDNAN_clean_linker_2
_symmetry_space_group_name_H-M    P1
_symmetry_Int_Tables_number       1
_symmetry_cell_setting            triclinic
loop_
_symmetry_equiv_pos_as_xyz
'x, y, z'
_cell_length_a     35.599256
_cell_length_b     26.873015
_cell_length_c     16.914356
_cell_angle_alpha  93.219398
_cell_angle_beta   125.67913
_cell_angle_gamma 80.978307
loop_
_atom_site_label
_atom_site_type_symbol
_atom_site_fract_x
_atom_site_fract_y
_atom_site_fract_z
_atom_type_partial_charge
Dy0 Dy 0.07055 0.81101 0.27148 0.0
Dy1 Dy 0.04984 0.80246 0.06174 0.0
C2 C 0.0935 0.70694 0.19067 0.0
O3 O 0.14352 0.80499 0.31685 0.0
O4 O 0.12738 0.81311 0.16382 0.0
O5 O 0.09109 0.77603 0.40616 0.0
O6 O 0.05688 0.85343 0.36731 0.0
O7 O 1.01994 0.87836 0.07362 0.0
O8 O 0.0798 0.88544 0.22914 0.0
O9 O 0.99321 0.77168 0.05892 0.0
O10 O 0.99384 0.82856 0.16169 0.0
O11 O 0.04445 0.83507 0.94115 0.0
O12 O 1.01766 0.76516 0.92576 0.0
C13 C 0.15744 0.80921 0.26083 0.0
O14 O 0.07164 0.72784 0.2292 0.0
O15 O 0.10012 0.73483 0.14101 0.0
C16 C 0.0335 0.80216 0.43572 0.0
C17 C 0.96116 0.78429 0.45104 0.0
C18 C 0.96787 0.75857 0.38413 0.0
C19 C 1.00331 0.76762 0.37619 0.0
C20 C 1.02737 0.82757 0.5031 0.0
C21 C 0.99166 0.81881 0.51068 0.0
C22 C 0.06928 0.81389 0.42337 0.0
C23 C 0.04854 0.90638 0.14089 0.0
C24 C 0.97225 0.79648 0.0956 0.0
C25 C 0.05576 0.77269 0.8521 0.0
C26 C 0.12459 0.74225 0.8203 0.0
C27 C 0.09 0.78392 0.76693 0.0
C28 C 0.05573 0.79917 0.78305 0.0
C29 C 0.08759 0.72817 0.89828 0.0
C30 C 0.12175 0.71302 0.88224 0.0
C31 C 1.02875 0.79606 0.88813 0.0
H32 H 0.94575 0.73128 0.33749 0.0
H33 H 1.0068 0.7479 0.32261 0.0
H34 H 0.04973 0.85493 0.54881 0.0
H35 H 0.98721 0.84025 0.56151 0.0
H36 H 0.09208 0.80733 0.71995 0.0
H37 H 1.03158 0.83376 0.74744 0.0
H38 H 0.08841 0.70717 0.95226 0.0
H39 H 0.1482 0.68075 0.92405 0.0
Dy40 Dy 0.5959 0.29325 0.32304 0.0
Dy41 Dy 0.57091 0.28216 0.10244 0.0
C42 C 0.58771 0.19047 0.21746 0.0
O43 O 0.666 0.29056 0.35829 0.0
O44 O 0.65093 0.26421 0.21038 0.0
O45 O 0.60918 0.25667 0.44989 0.0
O46 O 0.59704 0.33797 0.43539 0.0
O47 O 0.60382 0.35007 0.14844 0.0
O48 O 0.59205 0.37176 0.26736 0.0
O49 O 0.50657 0.3253 0.0853 0.0
O50 O 0.52103 0.28825 0.21995 0.0
O51 O 0.53664 0.30703 0.95301 0.0
O52 O 0.57189 0.22989 1.00181 0.0
C53 C 0.68026 0.2741 0.30404 0.0
O54 O 0.61703 0.21249 0.29763 0.0
O55 O 0.55246 0.21958 0.14584 0.0
C56 C 0.56892 0.30134 0.51328 0.0
C57 C 0.5063 0.31007 0.56867 0.0
C58 C 0.50414 0.27339 0.50378 0.0
C59 C 0.5348 0.26931 0.47584 0.0
C60 C 0.57204 0.33682 0.58027 0.0
C61 C 0.54123 0.3412 0.60748 0.0
C62 C 0.60142 0.29879 0.48386 0.0
C63 C 0.60215 0.38282 0.20651 0.0
C64 C 0.49254 0.31496 0.13851 0.0
C65 C 0.57546 0.26785 0.88558 0.0
C66 C 0.63224 0.26264 0.81898 0.0
C67 C 0.63717 0.29749 0.88861 0.0
C68 C 0.60912 0.29995 0.9218 0.0
C69 C 0.5685 0.23509 0.81222 0.0
C70 C 0.59656 0.23261 0.77879 0.0
C71 C 0.55141 0.26441 0.93149 0.0
H72 H 0.47784 0.24877 0.47235 0.0
H73 H 0.53138 0.24148 0.42402 0.0
H74 H 0.59824 0.36161 0.61126 0.0
H75 H 0.54488 0.36911 0.65933 0.0
H76 H 0.66477 0.32056 0.92249 0.0
H77 H 0.61536 0.32514 0.97929 0.0
H78 H 0.54276 0.20991 0.78383 0.0
H79 H 0.5916 0.20581 0.72436 0.0
Dy80 Dy 0.09986 0.29675 0.98263 0.0
Dy81 Dy 0.12453 0.28181 0.82234 0.0
C82 C 0.11689 0.18962 0.92149 0.0
O83 O 0.16866 0.32576 0.04693 0.0
O84 O 0.18679 0.2647 0.97411 0.0
O85 O 0.10497 0.26541 0.10411 0.0
O86 O 0.0672 0.34032 0.04487 0.0
O87 O 0.12321 0.3641 0.86575 0.0
O88 O 0.06584 0.36519 0.8853 0.0
O89 O 0.04686 0.29003 0.72776 0.0
O90 O 0.03504 0.27396 0.84413 0.0
O91 O 0.12516 0.30837 0.70415 0.0
O92 O 0.16728 0.2378 0.78286 0.0
C93 C 0.19966 0.30121 0.03406 0.0
O94 O 0.1339 0.21788 0.99673 0.0
O95 O 0.10312 0.20893 0.83667 0.0
C96 C 1.02916 0.28448 0.06587 0.0
C97 C 0.93801 0.26266 0.9787 0.0
C98 C 0.96876 0.23239 0.96281 0.0
C99 C 1.01371 0.24321 1.00568 0.0
C100 C 0.99917 0.31397 0.08435 0.0
C101 C 0.954 0.30305 0.04144 0.0
C102 C 0.0729 0.30096 0.09449 0.0
C103 C 0.09249 0.38989 0.87847 0.0
C104 C 1.01964 0.28012 0.75205 0.0
C105 C 0.19668 0.28391 0.71695 0.0
C106 C 0.26825 0.30289 0.69898 0.0
C107 C 0.22366 0.33274 0.64628 0.0
C108 C 0.18846 0.32327 0.65482 0.0
C109 C 0.24145 0.25434 0.77073 0.0
C110 C 0.27669 0.26367 0.76177 0.0
C111 C 0.15739 0.27147 0.71811 0.0
H112 H 0.95764 0.20133 0.91439 0.0
H113 H 0.03571 0.22036 0.98828 0.0
H114 H 1.01011 0.34639 0.12923 0.0
H115 H 0.93147 0.32657 0.05665 0.0
H116 H 0.21544 0.36284 0.59614 0.0
H117 H 0.15434 0.34629 0.61102 0.0
H118 H 0.24917 0.22342 0.81889 0.0
H119 H 0.31064 0.24025 0.80437 0.0
Dy120 Dy 0.58167 0.79827 0.95469 0.0
Dy121 Dy 0.61332 0.77535 0.81049 0.0
C122 C 0.59368 0.68378 0.89799 0.0
O123 O 0.66005 0.79985 0.0338 0.0
O124 O 0.66622 0.73492 0.95184 0.0
O125 O 0.59462 0.78187 0.09291 0.0
O126 O 0.54464 0.8467 1.00235 0.0
O127 O 0.62616 0.85372 0.87393 0.0
O128 O 0.56167 0.86864 0.87012 0.0
O129 O 0.53483 0.7963 0.70725 0.0
O130 O 0.51524 0.78365 0.81197 0.0
O131 O 0.66782 0.79186 0.8022 0.0
O132 O 0.6152 0.74869 0.6868 0.0
C133 C 0.6866 0.76244 0.02701 0.0
O134 O 0.57678 0.71725 0.93295 0.0
O135 O 0.61163 0.69658 0.85296 0.0
C136 C 0.52191 0.79586 0.06956 0.0
C137 C 0.43675 0.76868 1.01255 0.0
C138 C 0.46628 0.73681 0.99576 0.0
C139 C 0.50862 0.75009 1.02452 0.0
C140 C 0.49379 0.82641 0.09183 0.0
C141 C 0.45147 0.81263 0.06415 0.0
C142 C 0.55939 0.81546 0.07455 0.0
C143 C 0.5954 0.88613 0.87751 0.0
C144 C 0.50328 0.79109 0.72291 0.0
C145 C 0.67837 0.76775 0.67548 0.0
C146 C 0.73191 0.76364 0.59891 0.0
C147 C 0.73855 0.79759 0.6709 0.0
C148 C 0.71216 0.79964 0.70833 0.0
C149 C 0.67104 0.7342 0.60261 0.0
C150 C 0.69747 0.73218 0.56472 0.0
C151 C 0.65317 0.76854 0.72166 0.0
H152 H 0.45553 0.70275 0.95626 0.0
H153 H 0.52949 0.72596 1.00595 0.0
H154 H 0.50317 0.86217 0.12523 0.0
H155 H 0.42891 0.83786 0.07725 0.0
H156 H 0.76383 0.82321 0.69774 0.0
H157 H 0.71831 0.82646 0.76336 0.0
H158 H 0.6455 0.70893 0.57608 0.0
H159 H 0.69149 0.70525 0.50988 0.0
H160 H 1.02909 0.46015 0.8846 0.0
H161 H 0.17345 0.43162 0.9803 0.0
H162 H 0.1906 0.50389 0.08713 0.0
H163 H 1.01985 0.59916 0.88164 0.0
H164 H 0.98173 0.60688 0.92036 0.0
H165 H 0.98134 0.55377 0.8502 0.0
H166 H 0.99789 0.49398 0.9857 0.0
H167 H 1.0 0.54694 0.05773 0.0
H168 H 0.04903 0.4967 0.10856 0.0
H169 H 0.19337 0.57596 0.19181 0.0
H170 H 0.1781 0.65417 0.25883 0.0
H171 H 1.03131 0.63956 0.09153 0.0
C172 C 0.06409 0.46982 0.92639 0.0
C173 C 0.09992 0.44002 0.9236 0.0
C174 C 0.14526 0.45392 0.97995 0.0
C175 C 0.15547 0.49461 0.04202 0.0
C176 C 0.11985 0.52175 0.04612 0.0
C177 C 0.07469 0.51098 0.98747 0.0
C178 C 0.0424 0.54757 1.00276 0.0
C179 C 1.00407 0.57869 0.90814 0.0
C180 C 1.02108 0.51961 0.04095 0.0
C181 C 0.07655 0.58028 0.08011 0.0
C182 C 0.1212 0.56407 0.10504 0.0
C183 C 0.1586 0.58878 0.17299 0.0
C184 C 0.14976 0.63274 0.21215 0.0
C185 C 0.10391 0.65202 0.18345 0.0
C186 C 0.06706 0.62452 0.11848 0.0
H187 H 0.54 0.46974 0.11318 0.0
H188 H 0.68578 0.40431 0.26466 0.0
H189 H 0.69837 0.47109 0.19143 0.0
H190 H 0.52061 0.50136 0.89605 0.0
H191 H 0.4836 0.56101 0.87117 0.0
H192 H 0.48648 0.51239 0.94437 0.0
H193 H 0.51094 0.57257 0.08657 0.0
H194 H 0.50594 0.62181 1.01166 0.0
H195 H 0.55971 0.6055 0.13051 0.0
H196 H 0.69234 0.53857 0.08283 0.0
H197 H 0.67278 0.61354 0.97922 0.0
H198 H 0.53186 0.63751 0.90286 0.0
C199 C 0.57511 0.47132 0.13537 0.0
C200 C 0.61238 0.4328 0.19782 0.0
C201 C 0.65723 0.43451 0.22026 0.0
C202 C 0.66447 0.47179 0.17736 0.0
C203 C 0.62652 0.50764 0.11207 0.0
C204 C 0.58306 0.5088 0.09372 0.0
C205 C 0.548 0.55104 1.01946 0.0
C206 C 0.50727 0.53017 0.92734 0.0
C207 C 0.53012 0.59005 0.06483 0.0
C208 C 0.57827 0.57283 0.998 0.0
C209 C 0.6233 0.54677 0.05095 0.0
C210 C 0.65724 0.55949 0.04168 0.0
C211 C 0.64561 0.60159 0.98108 0.0
C212 C 0.60059 0.63091 0.93129 0.0
C213 C 0.56633 0.61529 0.9384 0.0
H214 H 0.53289 0.96578 0.85774 0.0
H215 H 0.68177 0.91614 1.00992 0.0
H216 H 0.69767 0.98741 0.11991 0.0
H217 H 0.53827 0.1035 0.8791 0.0
H218 H 0.4912 0.11467 0.89295 0.0
H219 H 0.49343 0.06362 0.82145 0.0
H220 H 0.4896 1.00181 0.92822 0.0
H221 H 0.48909 0.05235 1.00214 0.0
H222 H 0.53342 0.99743 0.05817 0.0
H223 H 0.69568 0.0616 0.22497 0.0
H224 H 0.67611 0.13594 0.29599 0.0
H225 H 0.52858 0.13326 0.07362 0.0
C226 C 0.56892 0.97077 0.9122 0.0
C227 C 0.6061 0.93538 0.9248 0.0
C228 C 0.65271 0.94298 0.99791 0.0
C229 C 0.662 0.98317 0.06144 0.0
C230 C 0.62429 1.01581 0.05014 0.0
C231 C 0.57866 1.01055 0.97541 0.0
C232 C 0.54396 0.04921 0.97923 0.0
C233 C 0.51503 0.08485 0.88779 0.0
C234 C 0.51217 1.02365 0.99276 0.0
C235 C 0.57692 0.07648 0.06909 0.0
C236 C 0.62319 0.05708 0.10948 0.0
C237 C 0.65948 0.07701 0.1933 0.0
C238 C 0.6481 0.11882 0.23417 0.0
C239 C 0.6008 0.14015 0.19121 0.0
C240 C 0.56509 0.11765 0.10893 0.0
H241 H 0.12416 0.95915 0.21614 0.0
H242 H 0.97676 0.96326 0.98262 0.0
H243 H 0.98008 1.03144 0.89703 0.0
H244 H 0.12083 0.09878 0.20754 0.0
H245 H 0.17853 0.09221 0.23497 0.0
H246 H 0.16397 0.04525 0.28082 0.0
H247 H 0.18908 0.97632 0.20014 0.0
H248 H 0.20246 1.02329 0.15183 0.0
H249 H 0.16169 0.98168 0.071 0.0
H250 H 1.00039 0.09305 0.82639 0.0
H251 H 0.0329 0.15715 0.79295 0.0
H252 H 0.16535 0.11966 0.07465 0.0
C253 C 0.09232 0.97555 0.14868 0.0
C254 C 0.05016 0.95549 0.1064 0.0
C255 C 1.00953 0.97764 1.01678 0.0
C256 C 1.01105 1.0163 0.96691 0.0
C257 C 0.0534 0.03352 1.00768 0.0
C258 C 0.09301 1.01512 0.09789 0.0
C259 C 0.13372 0.04143 0.12519 0.0
C260 C 0.15023 0.07119 0.21761 0.0
C261 C 0.17412 1.0034 0.13778 0.0
C262 C 0.11083 0.07665 0.03587 0.0
C263 C 0.06465 0.07079 0.96832 0.0
C264 C 0.03648 0.09821 0.87906 0.0
C265 C 0.05543 0.13404 0.85986 0.0
C266 C 0.10185 0.14285 0.9302 0.0
C267 C 0.12996 0.11315 1.01875 0.0
H268 H 0.42716 0.77948 0.72297 0.0
H269 H 0.46356 0.81102 0.52863 0.0
H270 H 0.38018 0.81861 0.38902 0.0
H271 H 0.33484 0.705 0.55228 0.0
H272 H 0.30037 0.72842 0.59672 0.0
H273 H 0.36323 0.72358 0.67617 0.0
H274 H 0.35284 0.82046 0.70871 0.0
H275 H 0.29035 0.82257 0.62757 0.0
H276 H 0.31836 0.8649 0.60592 0.0
H277 H 0.29002 0.82345 0.26762 0.0
H278 H 0.20458 0.82508 0.18111 0.0
H279 H 0.22832 0.79093 0.45607 0.0
C280 C 0.4178 0.78794 0.65117 0.0
C281 C 0.45255 0.79468 0.63779 0.0
C282 C 0.4381 0.80559 0.54178 0.0
C283 C 0.39058 0.81003 0.46158 0.0
C284 C 0.3573 0.8034 0.47751 0.0
C285 C 0.37048 0.79241 0.57017 0.0
C286 C 0.32815 0.78684 0.56822 0.0
C287 C 0.33186 0.73279 0.60031 0.0
C288 C 0.32206 0.82599 0.63135 0.0
C289 C 0.28896 0.79742 0.46065 0.0
C290 C 0.30629 0.80646 0.40891 0.0
C291 C 0.27628 0.81647 0.30795 0.0
C292 C 0.22763 0.81733 0.25914 0.0
C293 C 0.20905 0.80848 0.31098 0.0
C294 C 0.24071 0.79832 0.41334 0.0
H295 H 0.33091 0.23424 0.6838 0.0
H296 H 0.28968 0.39464 0.68769 0.0
H297 H 0.34653 0.41295 0.65865 0.0
H298 H 0.45563 0.23959 0.80533 0.0
H299 H 0.46216 0.1921 0.73282 0.0
H300 H 0.4194 0.19065 0.75729 0.0
H301 H 0.35406 0.19166 0.57267 0.0
H302 H 0.39643 0.19281 0.54702 0.0
H303 H 0.34575 0.24107 0.49367 0.0
H304 H 0.40561 0.41468 0.62307 0.0
H305 H 0.46336 0.39985 0.58496 0.0
H306 H 0.46827 0.23827 0.6041 0.0
C307 C 0.33429 0.2732 0.67989 0.0
C308 C 0.30529 0.31302 0.68757 0.0
C309 C 0.31072 0.36344 0.68073 0.0
C310 C 0.34322 0.37425 0.66476 0.0
C311 C 0.37053 0.33433 0.65585 0.0
C312 C 0.36664 0.28476 0.6635 0.0
C313 C 0.39969 0.24909 0.64881 0.0
C314 C 0.43641 0.2159 0.74156 0.0
C315 C 0.37233 0.21676 0.56026 0.0
C316 C 0.42205 0.28641 0.63002 0.0
C317 C 0.4049 0.33534 0.63535 0.0
C318 C 0.4196 0.37649 0.61971 0.0
C319 C 0.45274 0.3676 0.5985 0.0
C320 C 0.47115 0.31788 0.59246 0.0
C321 C 0.45509 0.27678 0.60799 0.0
H322 H 0.94565 0.27407 0.76277 0.0
H323 H 0.98212 0.27229 0.55818 0.0
H324 H 0.90089 0.2649 0.42271 0.0
H325 H 0.86033 0.18531 0.63592 0.0
H326 H 0.82209 0.21942 0.66451 0.0
H327 H 0.88417 0.22026 0.74517 0.0
H328 H 0.86824 0.31798 0.73205 0.0
H329 H 0.80633 0.31677 0.6497 0.0
H330 H 0.83476 0.3498 0.61358 0.0
H331 H 0.81411 0.26089 0.3065 0.0
H332 H 0.72861 0.2642 0.22084 0.0
H333 H 0.74881 0.26969 0.50025 0.0
C334 C 0.9367 0.27158 0.68966 0.0
C335 C 0.9706 0.2738 0.6717 0.0
C336 C 0.95704 0.27088 0.57444 0.0
C337 C 0.91087 0.26645 0.49661 0.0
C338 C 0.87824 0.26493 0.5165 0.0
C339 C 0.89052 0.26742 0.61067 0.0
C340 C 0.84816 0.26737 0.61153 0.0
C341 C 0.85403 0.22027 0.66755 0.0
C342 C 0.83883 0.31588 0.65419 0.0
C343 C 0.81023 0.26551 0.50321 0.0
C344 C 0.82827 0.26343 0.44954 0.0
C345 C 0.79958 0.26228 0.34784 0.0
C346 C 0.75107 0.26399 0.29967 0.0
C347 C 0.73173 0.26732 0.35323 0.0
C348 C 0.76216 0.26737 0.45649 0.0
H349 H 0.95859 0.78484 0.6125 0.0
H350 H 0.87326 0.76572 0.30045 0.0
H351 H 0.80698 0.75613 0.30493 0.0
H352 H 0.90989 0.69415 0.67033 0.0
H353 H 0.91399 0.73144 0.76636 0.0
H354 H 0.95448 0.73395 0.73588 0.0
H355 H 0.93002 0.83174 0.71056 0.0
H356 H 0.88894 0.82789 0.73874 0.0
H357 H 0.86919 0.85743 0.62489 0.0
H358 H 0.74832 0.7516 0.34197 0.0
H359 H 0.7026 0.7517 0.40911 0.0
H360 H 0.82574 0.77239 0.69782 0.0
C361 C 0.92597 0.77894 0.54485 0.0
C362 C 0.92152 0.77655 0.45572 0.0
C363 C 0.87813 0.76759 0.36971 0.0
C364 C 0.84 0.7622 0.37144 0.0
C365 C 0.84553 0.76528 0.46009 0.0
C366 C 0.88752 0.7731 0.54541 0.0
C367 C 0.88414 0.77485 0.63106 0.0
C368 C 0.9176 0.731 0.70533 0.0
C369 C 0.89363 0.82602 0.67913 0.0
C370 C 0.83334 0.76815 0.58008 0.0
C371 C 0.81184 0.76225 0.48157 0.0
C372 C 0.76493 0.75583 0.41917 0.0
C373 C 0.73925 0.75562 0.45822 0.0
C374 C 0.76027 0.76194 0.55898 0.0
C375 C 0.80821 0.76801 0.62035 0.0
H376 H 0.39245 0.76376 0.09982 0.0
H377 H 0.37363 0.75147 0.82277 0.0
H378 H 0.29187 0.73768 0.74191 0.0
H379 H 0.32237 0.66655 0.05955 0.0
H380 H 0.29883 0.69991 0.12077 0.0
H381 H 0.35621 0.70727 0.1567 0.0
H382 H 0.3311 0.80415 0.12822 0.0
H383 H 0.27377 0.79708 0.09242 0.0
H384 H 0.28003 0.8297 1.0114 0.0
H385 H 0.2104 0.73297 0.68989 0.0
H386 H 0.13618 0.73309 0.67281 0.0
H387 H 0.21078 0.74235 0.98576 0.0
C388 C 0.37105 0.75782 1.02234 0.0
C389 C 0.38884 0.75857 0.96692 0.0
C390 C 0.36024 0.7506 0.86583 0.0
C391 C 0.31397 0.74279 0.81956 0.0
C392 C 0.29729 0.74223 0.87612 0.0
C393 C 0.32508 0.74903 0.97545 0.0
C394 C 0.29855 0.74737 1.0193 0.0
C395 C 0.32029 0.70259 0.09344 0.0
C396 C 0.29569 0.79756 0.06549 0.0
C397 C 0.25133 0.73965 0.92886 0.0
C398 C 0.25111 0.73693 0.84681 0.0
C399 C 0.21029 0.73388 0.75379 0.0
C400 C 0.16847 0.73393 0.74463 0.0
C401 C 0.16844 0.73624 0.82825 0.0
C402 C 0.21041 0.73867 0.92117 0.0
H403 H 0.28861 0.30797 0.19635 0.0
H404 H 0.1949 0.3417 0.88542 0.0
H405 H 0.25779 0.36531 0.88507 0.0
H406 H 0.3731 0.40088 0.26051 0.0
H407 H 0.42296 0.35469 0.34282 0.0
H408 H 0.3682 0.35499 0.32664 0.0
H409 H 0.3701 0.26178 0.28359 0.0
H410 H 0.42342 0.26042 0.29383 0.0
H411 H 0.37246 0.24335 0.18216 0.0
H412 H 0.33225 0.36864 0.90815 0.0
H413 H 0.41388 0.35168 0.95766 0.0
H414 H 0.46148 0.31214 0.25126 0.0
C415 C 0.281 0.32346 0.12987 0.0
C416 C 0.23569 0.32659 0.04236 0.0
C417 C 0.22791 0.34281 0.95484 0.0
C418 C 0.26396 0.35568 0.95344 0.0
C419 C 0.30843 0.35103 0.03993 0.0
C420 C 0.3173 0.33548 0.12697 0.0
C421 C 0.36951 0.32469 0.2052 0.0
C422 C 0.38429 0.361 0.2887 0.0
C423 C 0.38472 0.2693 0.2434 0.0
C424 C 0.38798 0.33505 0.14741 0.0
C425 C 0.35229 0.35084 0.05258 0.0
C426 C 0.36075 0.35764 0.9831 0.0
C427 C 0.40711 0.34781 1.01152 0.0
C428 C 0.44402 0.33072 0.10806 0.0
C429 C 0.4341 0.32539 0.17678 0.0
H430 H 0.6747 0.33177 0.79572 0.0
H431 H 0.67421 0.17109 0.80753 0.0
H432 H 0.74745 0.1537 0.82016 0.0
H433 H 0.73714 0.32339 0.6695 0.0
H434 H 0.76917 0.37326 0.74111 0.0
H435 H 0.71042 0.3734 0.70504 0.0
H436 H 0.74013 0.37866 0.88567 0.0
H437 H 0.7989 0.37771 0.92301 0.0
H438 H 0.78631 0.33106 0.97361 0.0
H439 H 0.82848 0.15347 0.87223 0.0
H440 H 0.90842 0.17055 0.94652 0.0
H441 H 0.85755 0.33138 0.8999 0.0
C442 C 0.68916 0.29296 0.79731 0.0
C443 C 0.66864 0.25285 0.80042 0.0
C444 C 0.68869 0.20252 0.80317 0.0
C445 C 0.73053 0.19222 0.8108 0.0
C446 C 0.7515 0.23263 0.81399 0.0
C447 C 0.73096 0.28209 0.80505 0.0
C448 C 0.76344 0.31852 0.82323 0.0
C449 C 0.74389 0.34895 0.72912 0.0
C450 C 0.77273 0.3535 0.90632 0.0
C451 C 0.80681 0.28179 0.85227 0.0
C452 C 0.7988 0.23245 0.84388 0.0
C453 C 0.83483 0.19192 0.87621 0.0
C454 C 0.88022 0.20203 0.91865 0.0
C455 C 0.88936 0.25234 0.92905 0.0
C456 C 0.85182 0.29254 0.89356 0.0
H457 H 0.90033 0.85875 0.08322 0.0
H458 H 0.95165 0.70137 0.08365 0.0
H459 H 0.89 0.67649 0.09256 0.0
H460 H 0.86832 0.84795 0.24327 0.0
H461 H 0.814 0.89096 0.17662 0.0
H462 H 0.86128 0.89907 0.16949 0.0
H463 H 0.81007 0.89572 0.98366 0.0
H464 H 0.76079 0.89068 0.98571 0.0
H465 H 0.77765 0.84409 0.92662 0.0
H466 H 0.82489 0.66885 0.10737 0.0
H467 H 0.74972 0.67794 0.08714 0.0
H468 H 0.73674 0.84046 0.06688 0.0
C469 C 0.89808 0.81905 0.08381 0.0
C470 C 0.9305 0.78186 0.08207 0.0
C471 C 0.92667 0.73038 0.08321 0.0
C472 C 0.89225 0.71597 0.08985 0.0
C473 C 0.86154 0.75355 0.0939 0.0
C474 C 0.86324 0.80409 0.0881 0.0
C475 C 0.82375 0.83697 0.08594 0.0
C476 C 0.84297 0.87068 0.17409 0.0
C477 C 0.79111 0.86875 0.98977 0.0
C478 C 0.79955 0.79699 0.09187 0.0
C479 C 0.82263 0.74919 0.09833 0.0
C480 C 0.80648 0.70604 0.10188 0.0
C481 C 0.76401 0.71161 0.09166 0.0
C482 C 0.73762 0.75991 0.07677 0.0
C483 C 0.75668 0.80323 0.081 0.0
loop_
_geom_bond_atom_site_label_1
_geom_bond_atom_site_label_2
_geom_bond_distance
_geom_bond_site_symmetry_2
_ccdc_geom_bond_type
Dy0 O3 2.307 . S
Dy0 O5 2.395 . S
Dy0 O6 2.372 1_455 S
Dy0 O8 2.339 . S
Dy0 O10 2.298 1_455 S
Dy0 O14 2.275 . S
Dy0 C22 2.738 1_455 S
Dy1 O4 2.298 . S
Dy1 O7 2.275 . S
Dy1 O9 2.307 1_455 S
Dy1 O11 2.395 . S
Dy1 O12 2.379 . S
Dy1 O15 2.339 . S
Dy1 C31 2.738 . S
C2 O14 1.254 . S
C2 O15 1.257 . S
O3 Dy0 2.307 . S
O3 C13 1.266 . S
O4 Dy1 2.298 . S
O4 C13 1.236 . S
O5 Dy0 2.395 . S
O5 C22 1.255 1_455 S
O6 Dy0 2.372 1_655 S
O6 C22 1.253 . S
O7 Dy1 2.275 . S
O7 C23 1.254 . S
O8 Dy0 2.339 . S
O8 C23 1.257 . S
O9 Dy1 2.307 1_655 S
O9 C24 1.266 . S
O10 Dy0 2.298 1_655 S
O10 C24 1.236 . S
O11 Dy1 2.395 . S
O11 C31 1.255 . S
O12 Dy1 2.379 . S
O12 C31 1.249 . S
C13 O3 1.266 . S
C13 O4 1.236 . S
O14 Dy0 2.275 . S
O14 C2 1.254 . S
O15 Dy1 2.339 . S
O15 C2 1.257 . S
C16 C19 1.344 . S
C16 C20 1.328 . S
C16 C22 1.516 . S
C17 C18 1.304 . S
C17 C21 1.323 . S
C18 C17 1.304 . S
C18 C19 1.371 . S
C18 H32 0.930 . S
C19 C16 1.344 . S
C19 C18 1.371 . S
C19 H33 0.931 . S
C20 C16 1.328 . S
C20 C21 1.433 . S
C20 H34 0.931 . S
C21 C17 1.323 . S
C21 C20 1.433 . S
C21 H35 0.933 . S
C22 Dy0 2.738 1_655 S
C22 O5 1.255 1_655 S
C22 O6 1.253 . S
C22 C16 1.516 . S
C23 O7 1.254 . S
C23 O8 1.257 . S
C24 O9 1.266 . S
C24 O10 1.236 . S
C25 C28 1.344 1_556 S
C25 C29 1.328 . S
C25 C31 1.516 1_556 S
C26 C27 1.304 . S
C26 C30 1.323 . S
C27 C26 1.304 . S
C27 C28 1.371 1_556 S
C27 H36 0.930 . S
C28 C25 1.344 1_554 S
C28 C27 1.371 1_554 S
C28 H37 0.931 . S
C29 C25 1.328 . S
C29 C30 1.433 . S
C29 H38 0.931 . S
C30 C26 1.323 . S
C30 C29 1.433 . S
C30 H39 0.933 . S
C31 Dy1 2.738 . S
C31 O11 1.255 . S
C31 O12 1.249 . S
C31 C25 1.516 1_554 S
H32 C18 0.930 . S
H33 C19 0.931 . S
H34 C20 0.931 . S
H35 C21 0.933 . S
H36 C27 0.930 . S
H37 C28 0.931 . S
H38 C29 0.931 . S
H39 C30 0.933 . S
Dy40 O43 2.307 . S
Dy40 O45 2.395 . S
Dy40 O46 2.379 . S
Dy40 O48 2.339 . S
Dy40 O50 2.298 . S
Dy40 O54 2.275 . S
Dy40 C62 2.738 . S
Dy41 O44 2.298 . S
Dy41 O47 2.275 . S
Dy41 O49 2.307 . S
Dy41 O51 2.395 . S
Dy41 O52 2.379 . S
Dy41 O55 2.339 . S
Dy41 C71 2.738 . S
C42 O54 1.254 . S
C42 O55 1.257 . S
O43 Dy40 2.307 . S
O43 C53 1.266 . S
O44 Dy41 2.298 . S
O44 C53 1.236 . S
O45 Dy40 2.395 . S
O45 C62 1.255 . S
O46 Dy40 2.379 . S
O46 C62 1.249 . S
O47 Dy41 2.275 . S
O47 C63 1.254 . S
O48 Dy40 2.339 . S
O48 C63 1.257 . S
O49 Dy41 2.307 . S
O49 C64 1.266 . S
O50 Dy40 2.298 . S
O50 C64 1.236 . S
O51 Dy41 2.395 . S
O51 C71 1.255 . S
O52 Dy41 2.379 . S
O52 C71 1.249 . S
C53 O43 1.266 . S
C53 O44 1.236 . S
O54 Dy40 2.275 . S
O54 C42 1.254 . S
O55 Dy41 2.339 . S
O55 C42 1.257 . S
C56 C59 1.344 . S
C56 C60 1.328 . S
C56 C62 1.516 . S
C57 C58 1.304 . S
C57 C61 1.323 . S
C58 C57 1.304 . S
C58 C59 1.371 . S
C58 H72 0.930 . S
C59 C56 1.344 . S
C59 C58 1.371 . S
C59 H73 0.931 . S
C60 C56 1.328 . S
C60 C61 1.433 . S
C60 H74 0.931 . S
C61 C57 1.323 . S
C61 C60 1.433 . S
C61 H75 0.933 . S
C62 Dy40 2.738 . S
C62 O45 1.255 . S
C62 O46 1.249 . S
C62 C56 1.516 . S
C63 O47 1.254 . S
C63 O48 1.257 . S
C64 O49 1.266 . S
C64 O50 1.236 . S
C65 C68 1.344 1_556 S
C65 C69 1.328 . S
C65 C71 1.516 1_556 S
C66 C67 1.304 . S
C66 C70 1.323 . S
C67 C66 1.304 . S
C67 C68 1.371 1_556 S
C67 H76 0.930 . S
C68 C65 1.344 1_554 S
C68 C67 1.371 1_554 S
C68 H77 0.931 . S
C69 C65 1.328 . S
C69 C70 1.433 . S
C69 H78 0.931 . S
C70 C66 1.323 . S
C70 C69 1.433 . S
C70 H79 0.933 . S
C71 Dy41 2.738 . S
C71 O51 1.255 . S
C71 O52 1.249 . S
C71 C65 1.516 1_554 S
H72 C58 0.930 . S
H73 C59 0.931 . S
H74 C60 0.931 . S
H75 C61 0.933 . S
H76 C67 0.930 . S
H77 C68 0.931 . S
H78 C69 0.931 . S
H79 C70 0.933 . S
Dy80 O83 2.307 . S
Dy80 O85 2.395 . S
Dy80 O86 2.379 . S
Dy80 O88 2.339 . S
Dy80 O90 2.298 1_455 S
Dy80 O94 2.275 . S
Dy80 C102 2.732 1_455 S
Dy81 O84 2.298 . S
Dy81 O87 2.275 . S
Dy81 O89 2.307 1_455 S
Dy81 O91 2.395 . S
Dy81 O92 2.379 . S
Dy81 O95 2.339 . S
Dy81 C111 2.738 . S
C82 O94 1.254 . S
C82 O95 1.257 . S
O83 Dy80 2.307 . S
O83 C93 1.266 . S
O84 Dy81 2.298 . S
O84 C93 1.236 . S
O85 Dy80 2.395 . S
O85 C102 1.253 1_455 S
O86 Dy80 2.379 . S
O86 C102 1.247 1_455 S
O87 Dy81 2.275 . S
O87 C103 1.254 . S
O88 Dy80 2.339 . S
O88 C103 1.257 . S
O89 Dy81 2.307 1_655 S
O89 C104 1.266 . S
O90 Dy80 2.298 1_655 S
O90 C104 1.236 . S
O91 Dy81 2.395 . S
O91 C111 1.255 . S
O92 Dy81 2.379 . S
O92 C111 1.249 . S
C93 O83 1.266 . S
C93 O84 1.236 . S
O94 Dy80 2.275 . S
O94 C82 1.254 . S
O95 Dy81 2.339 . S
O95 C82 1.257 . S
C96 C99 1.344 1_554 S
C96 C100 1.328 . S
C96 C102 1.521 1_554 S
C97 C98 1.304 . S
C97 C101 1.323 . S
C98 C97 1.304 . S
C98 C99 1.371 1_554 S
C98 H112 0.930 . S
C99 C96 1.344 1_556 S
C99 C98 1.371 1_556 S
C99 H113 0.931 . S
C100 C96 1.328 . S
C100 C101 1.433 . S
C100 H114 0.931 . S
C101 C97 1.323 . S
C101 C100 1.433 . S
C101 H115 0.933 . S
C102 Dy80 2.732 1_655 S
C102 O85 1.253 1_655 S
C102 O86 1.247 1_655 S
C102 C96 1.521 1_556 S
C103 O87 1.254 . S
C103 O88 1.257 . S
C104 O89 1.266 . S
C104 O90 1.236 . S
C105 C108 1.344 . S
C105 C109 1.328 . S
C105 C111 1.516 . S
C106 C107 1.304 . S
C106 C110 1.323 . S
C107 C106 1.304 . S
C107 C108 1.371 . S
C107 H116 0.930 . S
C108 C105 1.344 . S
C108 C107 1.371 . S
C108 H117 0.931 . S
C109 C105 1.328 . S
C109 C110 1.433 . S
C109 H118 0.931 . S
C110 C106 1.323 . S
C110 C109 1.433 . S
C110 H119 0.933 . S
C111 Dy81 2.738 . S
C111 O91 1.255 . S
C111 O92 1.249 . S
C111 C105 1.516 . S
H112 C98 0.930 . S
H113 C99 0.931 . S
H114 C100 0.931 . S
H115 C101 0.933 . S
H116 C107 0.930 . S
H117 C108 0.931 . S
H118 C109 0.931 . S
H119 C110 0.933 . S
Dy120 O123 2.307 . S
Dy120 O125 2.395 . S
Dy120 O126 2.379 . S
Dy120 O128 2.339 . S
Dy120 O130 2.298 . S
Dy120 O134 2.275 . S
Dy120 C142 2.738 . S
Dy121 O124 2.298 . S
Dy121 O127 2.275 . S
Dy121 O129 2.307 . S
Dy121 O131 2.395 . S
Dy121 O132 2.379 . S
Dy121 O135 2.339 . S
Dy121 C151 2.738 . S
C122 O134 1.254 . S
C122 O135 1.257 . S
O123 Dy120 2.307 . S
O123 C133 1.266 . S
O124 Dy121 2.298 . S
O124 C133 1.236 . S
O125 Dy120 2.395 . S
O125 C142 1.255 . S
O126 Dy120 2.379 . S
O126 C142 1.249 . S
O127 Dy121 2.275 . S
O127 C143 1.254 . S
O128 Dy120 2.339 . S
O128 C143 1.257 . S
O129 Dy121 2.307 . S
O129 C144 1.266 . S
O130 Dy120 2.298 . S
O130 C144 1.236 . S
O131 Dy121 2.395 . S
O131 C151 1.255 . S
O132 Dy121 2.379 . S
O132 C151 1.249 . S
C133 O123 1.266 . S
C133 O124 1.236 . S
O134 Dy120 2.275 . S
O134 C122 1.254 . S
O135 Dy121 2.339 . S
O135 C122 1.257 . S
C136 C139 1.344 1_554 S
C136 C140 1.328 . S
C136 C142 1.516 1_554 S
C137 C138 1.304 . S
C137 C141 1.323 . S
C138 C137 1.304 . S
C138 C139 1.371 1_554 S
C138 H152 0.930 . S
C139 C136 1.344 1_556 S
C139 C138 1.371 1_556 S
C139 H153 0.931 . S
C140 C136 1.328 . S
C140 C141 1.433 . S
C140 H154 0.931 . S
C141 C137 1.323 . S
C141 C140 1.433 . S
C141 H155 0.933 . S
C142 Dy120 2.738 . S
C142 O125 1.255 . S
C142 O126 1.249 . S
C142 C136 1.516 1_556 S
C143 O127 1.254 . S
C143 O128 1.257 . S
C144 O129 1.266 . S
C144 O130 1.236 . S
C145 C148 1.344 . S
C145 C149 1.328 . S
C145 C151 1.516 . S
C146 C147 1.304 . S
C146 C150 1.323 . S
C147 C146 1.304 . S
C147 C148 1.371 . S
C147 H156 0.930 . S
C148 C145 1.344 . S
C148 C147 1.371 . S
C148 H157 0.931 . S
C149 C145 1.328 . S
C149 C150 1.433 . S
C149 H158 0.931 . S
C150 C146 1.323 . S
C150 C149 1.433 . S
C150 H159 0.933 . S
C151 Dy121 2.738 . S
C151 O131 1.255 . S
C151 O132 1.249 . S
C151 C145 1.516 . S
H152 C138 0.930 . S
H153 C139 0.931 . S
H154 C140 0.931 . S
H155 C141 0.933 . S
H156 C147 0.930 . S
H157 C148 0.931 . S
H158 C149 0.931 . S
H159 C150 0.933 . S
H160 C172 0.930 . S
H161 C174 0.930 . S
H162 C175 0.930 . S
H163 C179 0.959 . S
H164 C179 0.959 . S
H165 C179 0.961 . S
H166 C180 0.960 . S
H167 C180 0.961 . S
H168 C180 0.959 . S
H169 C183 0.929 . S
H170 C184 0.931 . S
H171 C186 0.924 1_556 S
C172 H160 0.930 . S
C172 C173 1.399 . S
C172 C177 1.399 . S
C173 C172 1.399 . S
C173 C174 1.376 . S
C174 H161 0.930 . S
C174 C173 1.376 . S
C174 C175 1.388 1_556 S
C175 H162 0.930 . S
C175 C174 1.388 1_554 S
C175 C176 1.390 . S
C176 C175 1.390 . S
C176 C177 1.394 1_554 S
C176 C182 1.465 . S
C177 C172 1.399 . S
C177 C176 1.394 1_556 S
C177 C178 1.516 . S
C178 C177 1.516 . S
C178 C179 1.502 . S
C178 C180 1.561 1_455 S
C178 C181 1.526 1_556 S
C179 H163 0.959 . S
C179 H164 0.959 . S
C179 H165 0.961 . S
C179 C178 1.502 . S
C180 H166 0.960 . S
C180 H167 0.961 . S
C180 H168 0.959 . S
C180 C178 1.561 1_655 S
C181 C178 1.526 1_554 S
C181 C182 1.396 . S
C181 C186 1.390 . S
C182 C176 1.465 . S
C182 C181 1.396 . S
C182 C183 1.399 . S
C183 H169 0.929 . S
C183 C182 1.399 . S
C183 C184 1.385 . S
C184 H170 0.931 . S
C184 C183 1.385 . S
C184 C185 1.389 . S
C185 C184 1.389 . S
C185 C186 1.387 . S
C186 H171 0.924 1_554 S
C186 C181 1.390 . S
C186 C185 1.387 . S
H187 C199 0.930 . S
H188 C201 0.930 . S
H189 C202 0.930 . S
H190 C206 0.959 . S
H191 C206 0.959 . S
H192 C206 0.961 . S
H193 C207 0.960 . S
H194 C207 0.961 . S
H195 C207 0.959 . S
H196 C210 0.929 . S
H197 C211 0.931 . S
H198 C213 0.930 . S
C199 H187 0.930 . S
C199 C200 1.399 . S
C199 C204 1.399 . S
C200 C199 1.399 . S
C200 C201 1.376 . S
C201 H188 0.930 . S
C201 C200 1.376 . S
C201 C202 1.388 1_554 S
C202 H189 0.930 . S
C202 C201 1.388 1_556 S
C202 C203 1.390 . S
C203 C202 1.390 . S
C203 C204 1.394 1_556 S
C203 C209 1.465 . S
C204 C199 1.399 . S
C204 C203 1.394 1_554 S
C204 C205 1.516 . S
C205 C204 1.516 . S
C205 C206 1.502 . S
C205 C207 1.561 . S
C205 C208 1.526 1_554 S
C206 H190 0.959 . S
C206 H191 0.959 . S
C206 H192 0.961 . S
C206 C205 1.502 . S
C207 H193 0.960 . S
C207 H194 0.961 . S
C207 H195 0.959 . S
C207 C205 1.561 . S
C208 C205 1.526 1_556 S
C208 C209 1.396 . S
C208 C213 1.390 . S
C209 C203 1.465 . S
C209 C208 1.396 . S
C209 C210 1.399 . S
C210 H196 0.929 . S
C210 C209 1.399 . S
C210 C211 1.385 . S
C211 H197 0.931 . S
C211 C210 1.385 . S
C211 C212 1.389 . S
C212 C211 1.389 . S
C212 C213 1.387 . S
C213 H198 0.930 . S
C213 C208 1.390 . S
C213 C212 1.387 . S
H214 C226 0.930 . S
H215 C228 0.930 . S
H216 C229 0.930 1_545 S
H217 C233 0.959 1_556 S
H218 C233 0.959 . S
H219 C233 0.961 . S
H220 C234 0.960 . S
H221 C234 0.961 . S
H222 C234 0.959 . S
H223 C237 0.929 1_556 S
H224 C238 0.931 . S
H225 C240 0.930 . S
C226 H214 0.930 . S
C226 C227 1.399 . S
C226 C231 1.399 . S
C227 C226 1.399 . S
C227 C228 1.376 . S
C228 H215 0.930 . S
C228 C227 1.376 . S
C228 C229 1.388 . S
C229 H216 0.930 1_565 S
C229 C228 1.388 . S
C229 C230 1.390 . S
C230 C229 1.390 . S
C230 C231 1.394 . S
C230 C236 1.465 1_566 S
C231 C226 1.399 . S
C231 C230 1.394 . S
C231 C232 1.516 1_556 S
C232 C231 1.516 1_554 S
C232 C233 1.502 . S
C232 C234 1.561 . S
C232 C235 1.526 1_565 S
C233 H217 0.959 1_554 S
C233 H218 0.959 . S
C233 H219 0.961 . S
C233 C232 1.502 . S
C234 H220 0.960 . S
C234 H221 0.961 . S
C234 H222 0.959 . S
C234 C232 1.561 . S
C235 C232 1.526 1_545 S
C235 C236 1.396 . S
C235 C240 1.390 . S
C236 C230 1.465 1_544 S
C236 C235 1.396 . S
C236 C237 1.399 . S
C237 H223 0.929 1_554 S
C237 C236 1.399 . S
C237 C238 1.385 . S
C238 H224 0.931 . S
C238 C237 1.385 . S
C238 C239 1.389 . S
C239 C238 1.389 . S
C239 C240 1.387 . S
C240 H225 0.930 . S
C240 C235 1.390 . S
C240 C239 1.387 . S
H241 C253 0.930 . S
H242 C255 0.930 . S
H243 C256 0.930 . S
H244 C260 0.959 . S
H245 C260 0.959 . S
H246 C260 0.961 . S
H247 C261 0.960 . S
H248 C261 0.961 . S
H249 C261 0.959 . S
H250 C264 0.910 1_565 S
H251 C265 0.931 . S
H252 C267 0.930 . S
C253 H241 0.930 . S
C253 C254 1.399 . S
C253 C258 1.399 . S
C254 C253 1.399 . S
C254 C255 1.376 . S
C255 H242 0.930 . S
C255 C254 1.376 . S
C255 C256 1.388 1_554 S
C256 H243 0.930 . S
C256 C255 1.388 1_556 S
C256 C257 1.390 . S
C257 C256 1.390 . S
C257 C258 1.394 1_556 S
C257 C263 1.465 1_565 S
C258 C253 1.399 . S
C258 C257 1.394 1_554 S
C258 C259 1.516 1_565 S
C259 C258 1.516 1_545 S
C259 C260 1.502 . S
C259 C261 1.561 . S
C259 C262 1.526 1_554 S
C260 H244 0.959 . S
C260 H245 0.959 . S
C260 H246 0.961 . S
C260 C259 1.502 . S
C261 H247 0.960 . S
C261 H248 0.961 . S
C261 H249 0.959 . S
C261 C259 1.561 . S
C262 C259 1.526 1_556 S
C262 C263 1.396 . S
C262 C267 1.390 . S
C263 C257 1.465 1_545 S
C263 C262 1.396 . S
C263 C264 1.397 . S
C264 H250 0.910 1_545 S
C264 C263 1.397 . S
C264 C265 1.407 . S
C265 H251 0.931 . S
C265 C264 1.407 . S
C265 C266 1.389 . S
C266 C265 1.389 . S
C266 C267 1.387 . S
C267 H252 0.930 . S
C267 C262 1.390 . S
C267 C266 1.387 . S
H268 C280 0.930 . S
H269 C282 0.930 . S
H270 C283 0.930 . S
H271 C287 0.959 . S
H272 C287 0.959 . S
H273 C287 0.961 . S
H274 C288 0.960 . S
H275 C288 0.961 . S
H276 C288 0.959 . S
H277 C291 0.929 . S
H278 C292 0.931 . S
H279 C294 0.930 . S
C280 H268 0.930 . S
C280 C281 1.399 . S
C280 C285 1.399 . S
C281 C280 1.399 . S
C281 C282 1.376 . S
C282 H269 0.930 . S
C282 C281 1.376 . S
C282 C283 1.388 . S
C283 H270 0.930 . S
C283 C282 1.388 . S
C283 C284 1.390 . S
C284 C283 1.390 . S
C284 C285 1.394 . S
C284 C290 1.465 . S
C285 C280 1.399 . S
C285 C284 1.394 . S
C285 C286 1.516 . S
C286 C285 1.516 . S
C286 C287 1.502 . S
C286 C288 1.561 . S
C286 C289 1.526 . S
C287 H271 0.959 . S
C287 H272 0.959 . S
C287 H273 0.961 . S
C287 C286 1.502 . S
C288 H274 0.960 . S
C288 H275 0.961 . S
C288 H276 0.959 . S
C288 C286 1.561 . S
C289 C286 1.526 . S
C289 C290 1.396 . S
C289 C294 1.390 . S
C290 C284 1.465 . S
C290 C289 1.396 . S
C290 C291 1.399 . S
C291 H277 0.929 . S
C291 C290 1.399 . S
C291 C292 1.385 . S
C292 H278 0.931 . S
C292 C291 1.385 . S
C292 C293 1.389 . S
C293 C292 1.389 . S
C293 C294 1.387 . S
C294 H279 0.930 . S
C294 C289 1.390 . S
C294 C293 1.387 . S
H295 C307 0.930 . S
H296 C309 0.930 . S
H297 C310 0.930 . S
H298 C314 0.959 . S
H299 C314 0.959 . S
H300 C314 0.961 . S
H301 C315 0.960 . S
H302 C315 0.961 . S
H303 C315 0.959 . S
H304 C318 0.929 . S
H305 C319 0.931 . S
H306 C321 0.930 . S
C307 H295 0.930 . S
C307 C308 1.399 . S
C307 C312 1.399 . S
C308 C307 1.399 . S
C308 C309 1.376 . S
C309 H296 0.930 . S
C309 C308 1.376 . S
C309 C310 1.388 . S
C310 H297 0.930 . S
C310 C309 1.388 . S
C310 C311 1.390 . S
C311 C310 1.390 . S
C311 C312 1.394 . S
C311 C317 1.465 . S
C312 C307 1.399 . S
C312 C311 1.394 . S
C312 C313 1.516 . S
C313 C312 1.516 . S
C313 C314 1.502 . S
C313 C315 1.561 . S
C313 C316 1.526 . S
C314 H298 0.959 . S
C314 H299 0.959 . S
C314 H300 0.961 . S
C314 C313 1.502 . S
C315 H301 0.960 . S
C315 H302 0.961 . S
C315 H303 0.959 . S
C315 C313 1.561 . S
C316 C313 1.526 . S
C316 C317 1.396 . S
C316 C321 1.390 . S
C317 C311 1.465 . S
C317 C316 1.396 . S
C317 C318 1.399 . S
C318 H304 0.929 . S
C318 C317 1.399 . S
C318 C319 1.385 . S
C319 H305 0.931 . S
C319 C318 1.385 . S
C319 C320 1.389 . S
C320 C319 1.389 . S
C320 C321 1.387 . S
C321 H306 0.930 . S
C321 C316 1.390 . S
C321 C320 1.387 . S
H322 C334 0.930 . S
H323 C336 0.930 . S
H324 C337 0.930 . S
H325 C341 0.959 . S
H326 C341 0.959 . S
H327 C341 0.961 . S
H328 C342 0.960 . S
H329 C342 0.961 . S
H330 C342 0.959 . S
H331 C345 0.929 . S
H332 C346 0.931 . S
H333 C348 0.930 . S
C334 H322 0.930 . S
C334 C335 1.399 . S
C334 C339 1.399 . S
C335 C334 1.399 . S
C335 C336 1.376 . S
C336 H323 0.930 . S
C336 C335 1.376 . S
C336 C337 1.388 . S
C337 H324 0.930 . S
C337 C336 1.388 . S
C337 C338 1.390 . S
C338 C337 1.390 . S
C338 C339 1.394 . S
C338 C344 1.465 . S
C339 C334 1.399 . S
C339 C338 1.394 . S
C339 C340 1.516 . S
C340 C339 1.516 . S
C340 C341 1.502 . S
C340 C342 1.561 . S
C340 C343 1.526 . S
C341 H325 0.959 . S
C341 H326 0.959 . S
C341 H327 0.961 . S
C341 C340 1.502 . S
C342 H328 0.960 . S
C342 H329 0.961 . S
C342 H330 0.959 . S
C342 C340 1.561 . S
C343 C340 1.526 . S
C343 C344 1.396 . S
C343 C348 1.390 . S
C344 C338 1.465 . S
C344 C343 1.396 . S
C344 C345 1.399 . S
C345 H331 0.929 . S
C345 C344 1.399 . S
C345 C346 1.385 . S
C346 H332 0.931 . S
C346 C345 1.385 . S
C346 C347 1.389 . S
C347 C346 1.389 . S
C347 C348 1.387 . S
C348 H333 0.930 . S
C348 C343 1.390 . S
C348 C347 1.387 . S
H349 C361 0.930 . S
H350 C363 0.930 . S
H351 C364 0.930 . S
H352 C368 0.959 . S
H353 C368 0.959 . S
H354 C368 0.961 . S
H355 C369 0.960 . S
H356 C369 0.961 . S
H357 C369 0.959 . S
H358 C372 0.929 . S
H359 C373 0.931 . S
H360 C375 0.930 . S
C361 H349 0.930 . S
C361 C362 1.399 . S
C361 C366 1.399 . S
C362 C361 1.399 . S
C362 C363 1.376 . S
C363 H350 0.930 . S
C363 C362 1.376 . S
C363 C364 1.388 . S
C364 H351 0.930 . S
C364 C363 1.388 . S
C364 C365 1.390 . S
C365 C364 1.390 . S
C365 C366 1.394 . S
C365 C371 1.465 . S
C366 C361 1.399 . S
C366 C365 1.394 . S
C366 C367 1.516 . S
C367 C366 1.516 . S
C367 C368 1.502 . S
C367 C369 1.561 . S
C367 C370 1.526 . S
C368 H352 0.959 . S
C368 H353 0.959 . S
C368 H354 0.961 . S
C368 C367 1.502 . S
C369 H355 0.960 . S
C369 H356 0.961 . S
C369 H357 0.959 . S
C369 C367 1.561 . S
C370 C367 1.526 . S
C370 C371 1.396 . S
C370 C375 1.390 . S
C371 C365 1.465 . S
C371 C370 1.396 . S
C371 C372 1.399 . S
C372 H358 0.929 . S
C372 C371 1.399 . S
C372 C373 1.385 . S
C373 H359 0.931 . S
C373 C372 1.385 . S
C373 C374 1.389 . S
C374 C373 1.389 . S
C374 C375 1.387 . S
C375 H360 0.930 . S
C375 C370 1.390 . S
C375 C374 1.387 . S
H376 C388 0.930 . S
H377 C390 0.930 1_556 S
H378 C391 0.930 . S
H379 C395 0.959 . S
H380 C395 0.959 . S
H381 C395 0.961 . S
H382 C396 0.960 . S
H383 C396 0.961 . S
H384 C396 0.959 . S
H385 C399 0.929 . S
H386 C400 0.931 . S
H387 C402 0.930 1_554 S
C388 H376 0.930 . S
C388 C389 1.399 . S
C388 C393 1.399 . S
C389 C388 1.399 . S
C389 C390 1.376 . S
C390 H377 0.930 1_554 S
C390 C389 1.376 . S
C390 C391 1.388 1_554 S
C391 H378 0.930 . S
C391 C390 1.388 1_556 S
C391 C392 1.390 . S
C392 C391 1.390 . S
C392 C393 1.394 1_556 S
C392 C398 1.465 . S
C393 C388 1.399 . S
C393 C392 1.394 1_554 S
C393 C394 1.516 . S
C394 C393 1.516 . S
C394 C395 1.502 . S
C394 C396 1.561 . S
C394 C397 1.526 1_554 S
C395 H379 0.959 . S
C395 H380 0.959 . S
C395 H381 0.961 . S
C395 C394 1.502 . S
C396 H382 0.960 . S
C396 H383 0.961 . S
C396 H384 0.959 . S
C396 C394 1.561 . S
C397 C394 1.526 1_556 S
C397 C398 1.396 . S
C397 C402 1.390 . S
C398 C392 1.465 . S
C398 C397 1.396 . S
C398 C399 1.399 . S
C399 H385 0.929 . S
C399 C398 1.399 . S
C399 C400 1.385 . S
C400 H386 0.931 . S
C400 C399 1.385 . S
C400 C401 1.389 . S
C401 C400 1.389 . S
C401 C402 1.387 . S
C402 H387 0.930 1_556 S
C402 C397 1.390 . S
C402 C401 1.387 . S
H403 C415 0.930 . S
H404 C417 0.930 . S
H405 C418 0.930 . S
H406 C422 0.959 . S
H407 C422 0.959 . S
H408 C422 0.961 . S
H409 C423 0.960 . S
H410 C423 0.961 . S
H411 C423 0.959 . S
H412 C426 0.929 . S
H413 C427 0.931 . S
H414 C429 0.930 . S
C415 H403 0.930 . S
C415 C416 1.399 1_554 S
C415 C420 1.399 . S
C416 C415 1.399 1_556 S
C416 C417 1.376 . S
C417 H404 0.930 . S
C417 C416 1.376 . S
C417 C418 1.388 . S
C418 H405 0.930 . S
C418 C417 1.388 . S
C418 C419 1.390 . S
C419 C418 1.390 . S
C419 C420 1.394 1_556 S
C419 C425 1.465 . S
C420 C415 1.399 . S
C420 C419 1.394 1_554 S
C420 C421 1.516 . S
C421 C420 1.516 . S
C421 C422 1.502 . S
C421 C423 1.561 . S
C421 C424 1.526 . S
C422 H406 0.959 . S
C422 H407 0.959 . S
C422 H408 0.961 . S
C422 C421 1.502 . S
C423 H409 0.960 . S
C423 H410 0.961 . S
C423 H411 0.959 . S
C423 C421 1.561 . S
C424 C421 1.526 . S
C424 C425 1.396 1_554 S
C424 C429 1.390 . S
C425 C419 1.465 . S
C425 C424 1.396 1_556 S
C425 C426 1.399 . S
C426 H412 0.929 . S
C426 C425 1.399 . S
C426 C427 1.385 . S
C427 H413 0.931 . S
C427 C426 1.385 . S
C427 C428 1.389 1_556 S
C428 C427 1.389 1_554 S
C428 C429 1.387 . S
C429 H414 0.930 . S
C429 C424 1.390 . S
C429 C428 1.387 . S
H430 C442 0.930 . S
H431 C444 0.930 . S
H432 C445 0.930 1_554 S
H433 C449 0.959 . S
H434 C449 0.959 . S
H435 C449 0.961 . S
H436 C450 0.960 . S
H437 C450 0.961 . S
H438 C450 0.959 . S
H439 C453 0.929 . S
H440 C454 0.931 . S
H441 C456 0.930 . S
C442 H430 0.930 . S
C442 C443 1.399 . S
C442 C447 1.399 . S
C443 C442 1.399 . S
C443 C444 1.376 . S
C444 H431 0.930 . S
C444 C443 1.376 . S
C444 C445 1.388 . S
C445 H432 0.930 1_556 S
C445 C444 1.388 . S
C445 C446 1.387 . S
C446 C445 1.387 . S
C446 C447 1.396 . S
C446 C452 1.467 1_556 S
C447 C442 1.399 . S
C447 C446 1.396 . S
C447 C448 1.516 . S
C448 C447 1.516 . S
C448 C449 1.502 . S
C448 C450 1.561 1_556 S
C448 C451 1.526 1_556 S
C449 H433 0.959 . S
C449 H434 0.959 . S
C449 H435 0.961 . S
C449 C448 1.502 . S
C450 H436 0.960 . S
C450 H437 0.961 . S
C450 H438 0.959 . S
C450 C448 1.561 1_554 S
C451 C448 1.526 1_554 S
C451 C452 1.396 . S
C451 C456 1.390 . S
C452 C446 1.467 1_554 S
C452 C451 1.396 . S
C452 C453 1.399 . S
C453 H439 0.929 . S
C453 C452 1.399 . S
C453 C454 1.385 . S
C454 H440 0.931 . S
C454 C453 1.385 . S
C454 C455 1.389 . S
C455 C454 1.389 . S
C455 C456 1.387 . S
C456 H441 0.930 . S
C456 C451 1.390 . S
C456 C455 1.387 . S
H457 C469 0.930 . S
H458 C471 0.930 . S
H459 C472 0.930 . S
H460 C476 0.959 . S
H461 C476 0.959 . S
H462 C476 0.961 . S
H463 C477 0.960 . S
H464 C477 0.961 . S
H465 C477 0.959 1_556 S
H466 C480 0.929 . S
H467 C481 0.931 . S
H468 C483 0.930 . S
C469 H457 0.930 . S
C469 C470 1.399 . S
C469 C474 1.399 . S
C470 C469 1.399 . S
C470 C471 1.376 1_554 S
C471 H458 0.930 . S
C471 C470 1.376 1_556 S
C471 C472 1.388 . S
C472 H459 0.930 . S
C472 C471 1.388 . S
C472 C473 1.390 . S
C473 C472 1.390 . S
C473 C474 1.394 1_556 S
C473 C479 1.465 . S
C474 C469 1.399 . S
C474 C473 1.394 1_554 S
C474 C475 1.516 . S
C475 C474 1.516 . S
C475 C476 1.502 . S
C475 C477 1.561 . S
C475 C478 1.526 . S
C476 H460 0.959 . S
C476 H461 0.959 . S
C476 H462 0.961 . S
C476 C475 1.502 . S
C477 H463 0.960 . S
C477 H464 0.961 . S
C477 H465 0.959 1_554 S
C477 C475 1.561 . S
C478 C475 1.526 . S
C478 C479 1.396 1_554 S
C478 C483 1.390 . S
C479 C473 1.465 . S
C479 C478 1.396 1_556 S
C479 C480 1.399 . S
C480 H466 0.929 . S
C480 C479 1.399 . S
C480 C481 1.385 . S
C481 H467 0.931 . S
C481 C480 1.385 . S
C481 C482 1.389 . S
C482 C481 1.389 . S
C482 C483 1.387 1_556 S
C483 H468 0.930 . S
C483 C478 1.390 . S
C483 C482 1.387 1_554 S
C173 C103 1.871 . S
C185 C2 1.969 . S
C200 C63 2.515 . S
C212 C122 2.536 . S
C227 C143 1.967 . S
C239 C42 1.873 . S
C254 C23 2.516 . S
C266 C82 2.536 . S
C281 C144 1.568 . S
C293 C13 1.586 . S
C308 C106 1.591 . S
C320 C57 1.588 . S
C335 C104 1.579 . S
C347 C53 1.572 . S
C362 C17 1.569 . S
C374 C146 1.600 . S
C389 C137 0.488 . S
C401 C26 0.754 . S
C416 C93 1.878 . S
C428 C64 1.935 . S
C443 C66 0.543 . S
C455 C97 0.695 . S
C470 C24 1.934 . S
C482 C133 1.882 . S
