# Generated by pormake.
# Topology wgj, (5)-cn, num edge types: 1
# Building blocks:
#     Node 0, Type 0, BuildingBlock: BEQFEK_clean_sbu_0, # of connection points: 5
#     Node 1, Type 0, BuildingBlock: BEQFEK_clean_sbu_0, # of connection points: 5
#     Node 2, Type 0, BuildingBlock: BEQFEK_clean_sbu_0, # of connection points: 5
#     Node 3, Type 0, BuildingBlock: BEQFEK_clean_sbu_0, # of connection points: 5
#     Node 4, Type 0, BuildingBlock: BEQFEK_clean_sbu_0, # of connection points: 5
#     Node 5, Type 0, BuildingBlock: BEQFEK_clean_sbu_0, # of connection points: 5
#     Node 6, Type 0, BuildingBlock: BEQFEK_clean_sbu_0, # of connection points: 5
#     Node 7, Type 0, BuildingBlock: BEQFEK_clean_sbu_0, # of connection points: 5
#     Node 8, Type 0, BuildingBlock: BEQFEK_clean_sbu_0, # of connection points: 5
#     Node 9, Type 0, BuildingBlock: BEQFEK_clean_sbu_0, # of connection points: 5
#     Node 10, Type 0, BuildingBlock: BEQFEK_clean_sbu_0, # of connection points: 5
#     Node 11, Type 0, BuildingBlock: BEQFEK_clean_sbu_0, # of connection points: 5
#     Node 12, Type 0, BuildingBlock: BEQFEK_clean_sbu_0, # of connection points: 5
#     Node 13, Type 0, BuildingBlock: BEQFEK_clean_sbu_0, # of connection points: 5
#     Node 14, Type 0, BuildingBlock: BEQFEK_clean_sbu_0, # of connection points: 5
#     Node 15, Type 0, BuildingBlock: BEQFEK_clean_sbu_0, # of connection points: 5
#     Node 16, Type 0, BuildingBlock: BEQFEK_clean_sbu_0, # of connection points: 5
#     Node 17, Type 0, BuildingBlock: BEQFEK_clean_sbu_0, # of connection points: 5
#     Node 18, Type 0, BuildingBlock: BEQFEK_clean_sbu_0, # of connection points: 5
#     Node 19, Type 0, BuildingBlock: BEQFEK_clean_sbu_0, # of connection points: 5
#     Node 20, Type 0, BuildingBlock: BEQFEK_clean_sbu_0, # of connection points: 5
#     Node 21, Type 0, BuildingBlock: BEQFEK_clean_sbu_0, # of connection points: 5
#     Node 22, Type 0, BuildingBlock: BEQFEK_clean_sbu_0, # of connection points: 5
#     Node 23, Type 0, BuildingBlock: BEQFEK_clean_sbu_0, # of connection points: 5
#     Node 24, Type 0, BuildingBlock: BEQFEK_clean_sbu_0, # of connection points: 5
#     Node 25, Type 0, BuildingBlock: BEQFEK_clean_sbu_0, # of connection points: 5
#     Node 26, Type 0, BuildingBlock: BEQFEK_clean_sbu_0, # of connection points: 5
#     Node 27, Type 0, BuildingBlock: BEQFEK_clean_sbu_0, # of connection points: 5
#     Node 28, Type 0, BuildingBlock: BEQFEK_clean_sbu_0, # of connection points: 5
#     Node 29, Type 0, BuildingBlock: BEQFEK_clean_sbu_0, # of connection points: 5
#     Node 30, Type 0, BuildingBlock: BEQFEK_clean_sbu_0, # of connection points: 5
#     Node 31, Type 0, BuildingBlock: BEQFEK_clean_sbu_0, # of connection points: 5
#     Edge 32, Type (0, 0), None
#     Edge 33, Type (0, 0), None
#     Edge 34, Type (0, 0), None
#     Edge 35, Type (0, 0), None
#     Edge 36, Type (0, 0), None
#     Edge 37, Type (0, 0), None
#     Edge 38, Type (0, 0), None
#     Edge 39, Type (0, 0), None
#     Edge 40, Type (0, 0), None
#     Edge 41, Type (0, 0), None
#     Edge 42, Type (0, 0), None
#     Edge 43, Type (0, 0), None
#     Edge 44, Type (0, 0), None
#     Edge 45, Type (0, 0), None
#     Edge 46, Type (0, 0), None
#     Edge 47, Type (0, 0), None
#     Edge 48, Type (0, 0), None
#     Edge 49, Type (0, 0), None
#     Edge 50, Type (0, 0), None
#     Edge 51, Type (0, 0), None
#     Edge 52, Type (0, 0), None
#     Edge 53, Type (0, 0), None
#     Edge 54, Type (0, 0), None
#     Edge 55, Type (0, 0), None
#     Edge 56, Type (0, 0), None
#     Edge 57, Type (0, 0), None
#     Edge 58, Type (0, 0), None
#     Edge 59, Type (0, 0), None
#     Edge 60, Type (0, 0), None
#     Edge 61, Type (0, 0), None
#     Edge 62, Type (0, 0), None
#     Edge 63, Type (0, 0), None
#     Edge 64, Type (0, 0), None
#     Edge 65, Type (0, 0), None
#     Edge 66, Type (0, 0), None
#     Edge 67, Type (0, 0), None
#     Edge 68, Type (0, 0), None
#     Edge 69, Type (0, 0), None
#     Edge 70, Type (0, 0), None
#     Edge 71, Type (0, 0), None
#     Edge 72, Type (0, 0), None
#     Edge 73, Type (0, 0), None
#     Edge 74, Type (0, 0), None
#     Edge 75, Type (0, 0), None
#     Edge 76, Type (0, 0), None
#     Edge 77, Type (0, 0), None
#     Edge 78, Type (0, 0), None
#     Edge 79, Type (0, 0), None
#     Edge 80, Type (0, 0), None
#     Edge 81, Type (0, 0), None
#     Edge 82, Type (0, 0), None
#     Edge 83, Type (0, 0), None
#     Edge 84, Type (0, 0), None
#     Edge 85, Type (0, 0), None
#     Edge 86, Type (0, 0), None
#     Edge 87, Type (0, 0), None
#     Edge 88, Type (0, 0), None
#     Edge 89, Type (0, 0), None
#     Edge 90, Type (0, 0), None
#     Edge 91, Type (0, 0), None
#     Edge 92, Type (0, 0), None
#     Edge 93, Type (0, 0), None
#     Edge 94, Type (0, 0), None
#     Edge 95, Type (0, 0), None
#     Edge 96, Type (0, 0), None
#     Edge 97, Type (0, 0), None
#     Edge 98, Type (0, 0), None
#     Edge 99, Type (0, 0), None
#     Edge 100, Type (0, 0), None
#     Edge 101, Type (0, 0), None
#     Edge 102, Type (0, 0), None
#     Edge 103, Type (0, 0), None
#     Edge 104, Type (0, 0), None
#     Edge 105, Type (0, 0), None
#     Edge 106, Type (0, 0), None
#     Edge 107, Type (0, 0), None
#     Edge 108, Type (0, 0), None
#     Edge 109, Type (0, 0), None
#     Edge 110, Type (0, 0), None
#     Edge 111, Type (0, 0), None
# Relax obj value: 0.429
# Max RMSD: 0.193
# Mean RMSD: 0.193
data_MOF--net-wgj--node1-BEQFEK_clean_sbu_0--edge1-none
_symmetry_space_group_name_H-M    P1
_symmetry_Int_Tables_number       1
_symmetry_cell_setting            triclinic
loop_
_symmetry_equiv_pos_as_xyz
'x, y, z'
_cell_length_a     33.17991
_cell_length_b     33.179781
_cell_length_c     17.083261
_cell_angle_alpha  90.000001
_cell_angle_beta   90.000001
_cell_angle_gamma 90.000395
loop_
_atom_site_label
_atom_site_type_symbol
_atom_site_fract_x
_atom_site_fract_y
_atom_site_fract_z
_atom_type_partial_charge
Co0 Co 0.22606 0.18746 0.35169 0.0
Co1 Co 0.15199 0.16429 0.43993 0.0
C2 C 0.24384 0.15974 0.50729 0.0
O3 O 0.25795 0.1683 0.4408 0.0
O4 O 0.20488 0.15824 0.51656 0.0
C5 C 0.26932 0.24194 0.30954 0.0
O6 O 0.27823 0.24486 0.38428 0.0
C7 C 0.07658 0.11604 0.45865 0.0
C8 C 0.03736 0.1656 0.4985 0.0
C9 C 0.0362 0.12757 0.46577 0.0
N10 N 0.10025 0.14692 0.482 0.0
N11 N 0.07624 0.17562 0.50881 0.0
C12 C 0.09278 0.07704 0.42942 0.0
H13 H 0.11745 0.08151 0.38713 0.0
H14 H 0.06875 0.05791 0.40367 0.0
H15 H 0.10726 0.06207 0.47989 0.0
C16 C 0.1936 0.13723 0.22567 0.0
N17 N 0.19397 0.1488 0.30144 0.0
N18 N 0.15791 0.1443 0.33196 0.0
C19 C 0.13266 0.1326 0.27327 0.0
C20 C 0.15493 0.12626 0.20542 0.0
C21 C 0.22866 0.14013 0.1712 0.0
H22 H 0.2552 0.12612 0.19943 0.0
H23 H 0.22262 0.12457 0.11489 0.0
H24 H 0.23517 0.17227 0.15878 0.0
O25 O 0.1935 0.23901 0.36678 0.0
O26 O 0.13801 0.22156 0.42529 0.0
H27 H 0.07668 0.14894 0.2182 0.0
H28 H 0.07365 0.10663 0.28207 0.0
C29 C 0.08771 0.1367 0.27478 0.0
H30 H 0.07815 0.15724 0.32238 0.0
H31 H 0.08617 0.20386 0.52748 0.0
O32 O 0.2638 0.20751 0.28037 0.0
C33 C 0.1592 0.24827 0.39274 0.0
Co34 Co 0.07973 0.97607 0.60169 0.0
Co35 Co 0.1029 0.90199 0.68993 0.0
C36 C 0.10745 0.99384 0.75729 0.0
O37 O 0.09889 1.00795 0.6908 0.0
O38 O 0.10895 0.95488 0.76656 0.0
C39 C 0.02524 0.01932 0.55954 0.0
O40 O 0.02232 0.02824 0.63428 0.0
C41 C 0.15115 0.82658 0.70865 0.0
C42 C 0.10159 0.78736 0.74849 0.0
C43 C 0.13961 0.78621 0.71577 0.0
N44 N 0.12027 0.85025 0.73199 0.0
N45 N 0.09156 0.82624 0.7588 0.0
C46 C 0.19015 0.84278 0.67942 0.0
H47 H 0.18567 0.86745 0.63713 0.0
H48 H 0.20927 0.81875 0.65367 0.0
H49 H 0.20512 0.85726 0.72989 0.0
C50 C 0.12995 0.94361 0.47566 0.0
N51 N 0.11838 0.94398 0.55143 0.0
N52 N 0.12288 0.90792 0.58195 0.0
C53 C 0.13459 0.88267 0.52327 0.0
C54 C 0.14092 0.90493 0.45541 0.0
C55 C 0.12705 0.97867 0.42119 0.0
H56 H 0.14106 1.0052 0.44942 0.0
H57 H 0.1426 0.97262 0.36488 0.0
H58 H 0.09491 0.98517 0.40879 0.0
O59 O 0.02817 0.94351 0.61679 0.0
O60 O 0.04562 0.88802 0.67528 0.0
H61 H 0.11825 0.82669 0.4682 0.0
H62 H 0.16056 0.82366 0.53206 0.0
C63 C 0.13049 0.83771 0.52478 0.0
H64 H 0.10995 0.82815 0.57238 0.0
H65 H 0.06332 0.83617 0.77746 0.0
O66 O 0.05968 0.01381 0.53038 0.0
C67 C 0.01891 0.90921 0.64275 0.0
Co68 Co 0.29112 0.82972 0.85169 0.0
Co69 Co 0.3652 0.8529 0.93993 0.0
C70 C 0.27335 0.85745 1.00729 0.0
O71 O 0.25923 0.84888 0.9408 0.0
O72 O 0.31231 0.85894 1.01656 0.0
C73 C 0.24787 0.77524 0.80954 0.0
O74 O 0.23895 0.77232 0.88428 0.0
C75 C 0.44061 0.90115 0.95865 0.0
C76 C 0.47982 0.85159 0.9985 0.0
C77 C 0.48098 0.88961 0.96577 0.0
N78 N 0.41693 0.87027 0.982 0.0
N79 N 0.44094 0.84156 1.00881 0.0
C80 C 0.42441 0.94015 0.92942 0.0
H81 H 0.39973 0.93567 0.88713 0.0
H82 H 0.44843 0.95927 0.90367 0.0
H83 H 0.40993 0.95512 0.97989 0.0
C84 C 0.32358 0.87996 0.72567 0.0
N85 N 0.32321 0.86838 0.80144 0.0
N86 N 0.35927 0.87288 0.83196 0.0
C87 C 0.38452 0.88459 0.77327 0.0
C88 C 0.36226 0.89092 0.70542 0.0
C89 C 0.28852 0.87705 0.6712 0.0
H90 H 0.26198 0.89107 0.69943 0.0
H91 H 0.29457 0.89261 0.61489 0.0
H92 H 0.28201 0.84492 0.65878 0.0
O93 O 0.32368 0.77817 0.86678 0.0
O94 O 0.37917 0.79562 0.92529 0.0
H95 H 0.4405 0.86825 0.7182 0.0
H96 H 0.44353 0.91056 0.78207 0.0
C97 C 0.42947 0.88049 0.77478 0.0
H98 H 0.43903 0.85994 0.82238 0.0
H99 H 0.43101 0.81333 1.02748 0.0
O100 O 0.25338 0.80968 0.78037 0.0
C101 C 0.35798 0.76891 0.89274 0.0
Co102 Co 0.43746 0.04112 0.10169 0.0
Co103 Co 0.41428 0.1152 0.18993 0.0
C104 C 0.40973 0.02335 0.25729 0.0
O105 O 0.41829 0.00923 0.1908 0.0
O106 O 0.40824 0.06231 0.26656 0.0
C107 C 0.49194 0.99786 0.05954 0.0
O108 O 0.49486 0.98894 0.13428 0.0
C109 C 0.36603 0.19061 0.20865 0.0
C110 C 0.41559 0.22982 0.24849 0.0
C111 C 0.37757 0.23098 0.21577 0.0
N112 N 0.39692 0.16694 0.23199 0.0
N113 N 0.42562 0.19094 0.2588 0.0
C114 C 0.32703 0.17441 0.17942 0.0
H115 H 0.33151 0.14973 0.13713 0.0
H116 H 0.30791 0.19843 0.15367 0.0
H117 H 0.31206 0.15993 0.22989 0.0
C118 C 0.38723 0.07358 0.97566 0.0
N119 N 0.3988 0.07321 0.05143 0.0
N120 N 0.3943 0.10927 0.08195 0.0
C121 C 0.38259 0.13452 1.02327 0.0
C122 C 0.37626 0.11225 0.95541 0.0
C123 C 0.39014 0.03852 0.92119 0.0
H124 H 0.37612 0.01198 0.94942 0.0
H125 H 0.37458 0.04457 0.86488 0.0
H126 H 0.42227 0.03201 0.90879 0.0
O127 O 0.48901 0.07367 0.11679 0.0
O128 O 0.47156 0.12917 0.17528 0.0
H129 H 0.39893 0.1905 0.9682 0.0
H130 H 0.35662 0.19353 1.03206 0.0
C131 C 0.38669 0.17947 1.02478 0.0
H132 H 0.40724 0.18903 0.07238 0.0
H133 H 0.45386 0.18101 0.27746 0.0
O134 O 0.45751 1.00338 1.03038 0.0
C135 C 0.49827 0.10798 0.14275 0.0
Co136 Co 0.22606 0.82973 0.23112 0.0
Co137 Co 0.15199 0.8529 0.14288 0.0
C138 C 0.24383 0.85745 0.07552 0.0
O139 O 0.25795 0.84888 0.14201 0.0
O140 O 0.20488 0.85895 0.06625 0.0
C141 C 0.26932 0.77524 0.27328 0.0
O142 O 0.27823 0.77232 0.19854 0.0
C143 C 0.07658 0.90115 0.12417 0.0
C144 C 0.03736 0.85159 0.08432 0.0
C145 C 0.0362 0.88962 0.11705 0.0
N146 N 0.10025 0.87027 0.10082 0.0
N147 N 0.07624 0.84156 0.07401 0.0
C148 C 0.09277 0.94015 0.1534 0.0
H149 H 0.11745 0.93567 0.1957 0.0
H150 H 0.06875 0.95927 0.17915 0.0
H151 H 0.10725 0.95512 0.10294 0.0
C152 C 0.19361 0.87996 0.35714 0.0
N153 N 0.19398 0.86839 0.28137 0.0
N154 N 0.15792 0.87288 0.25086 0.0
C155 C 0.13267 0.88458 0.30955 0.0
C156 C 0.15493 0.89091 0.37741 0.0
C157 C 0.22868 0.87706 0.4116 0.0
H158 H 0.25521 0.89108 0.38335 0.0
H159 H 0.22263 0.89263 0.4679 0.0
H160 H 0.23519 0.84493 0.42402 0.0
O161 O 0.1935 0.77818 0.21603 0.0
O162 O 0.13802 0.79563 0.15752 0.0
H163 H 0.07669 0.86825 0.36462 0.0
H164 H 0.07366 0.91056 0.30076 0.0
C165 C 0.08771 0.88049 0.30804 0.0
H166 H 0.07815 0.85994 0.26044 0.0
H167 H 0.08617 0.81333 0.05534 0.0
O168 O 0.2638 0.80968 0.30244 0.0
C169 C 0.1592 0.76892 0.19007 0.0
Co170 Co 0.43746 0.97607 0.48112 0.0
Co171 Co 0.41428 0.90199 0.39288 0.0
C172 C 0.40973 0.99384 0.32552 0.0
O173 O 0.41829 1.00795 0.39201 0.0
O174 O 0.40823 0.95488 0.31625 0.0
C175 C 0.49194 0.01932 0.52327 0.0
O176 O 0.49486 0.02824 0.44853 0.0
C177 C 0.36603 0.82657 0.37417 0.0
C178 C 0.41559 0.78736 0.33432 0.0
C179 C 0.37757 0.7862 0.36705 0.0
N180 N 0.39692 0.85025 0.35083 0.0
N181 N 0.42562 0.82624 0.32402 0.0
C182 C 0.32703 0.84277 0.4034 0.0
H183 H 0.33151 0.86744 0.4457 0.0
H184 H 0.30791 0.81875 0.42916 0.0
H185 H 0.31207 0.85725 0.35294 0.0
C186 C 0.38723 0.94361 0.60714 0.0
N187 N 0.3988 0.94398 0.53137 0.0
N188 N 0.3943 0.90792 0.50086 0.0
C189 C 0.3826 0.88267 0.55956 0.0
C190 C 0.37628 0.90493 0.62741 0.0
C191 C 0.39013 0.97868 0.6616 0.0
H192 H 0.37611 1.00521 0.63336 0.0
H193 H 0.37457 0.97263 0.71792 0.0
H194 H 0.42226 0.98519 0.67402 0.0
O195 O 0.48901 0.94351 0.46602 0.0
O196 O 0.47156 0.88802 0.40752 0.0
H197 H 0.39893 0.82669 0.61463 0.0
H198 H 0.35662 0.82366 0.55077 0.0
C199 C 0.38669 0.83771 0.55805 0.0
H200 H 0.40724 0.82815 0.51044 0.0
H201 H 0.45386 0.83617 0.30535 0.0
O202 O 0.45751 0.01381 0.55243 0.0
C203 C 0.49827 0.90921 0.44006 0.0
Co204 Co 0.29112 0.18746 0.73112 0.0
Co205 Co 0.3652 0.16428 0.64288 0.0
C206 C 0.27335 0.15974 0.57552 0.0
O207 O 0.25923 0.1683 0.64201 0.0
O208 O 0.31231 0.15824 0.56625 0.0
C209 C 0.24787 0.24195 0.77328 0.0
O210 O 0.23895 0.24486 0.69854 0.0
C211 C 0.44061 0.11603 0.62417 0.0
C212 C 0.47982 0.16559 0.58432 0.0
C213 C 0.48098 0.12757 0.61705 0.0
N214 N 0.41694 0.14692 0.60082 0.0
N215 N 0.44094 0.17562 0.57401 0.0
C216 C 0.42441 0.07703 0.6534 0.0
H217 H 0.39974 0.08151 0.6957 0.0
H218 H 0.44843 0.05791 0.67915 0.0
H219 H 0.40993 0.06207 0.60294 0.0
C220 C 0.32357 0.13723 0.85714 0.0
N221 N 0.3232 0.1488 0.78137 0.0
N222 N 0.35926 0.1443 0.75086 0.0
C223 C 0.38452 0.1326 0.80955 0.0
C224 C 0.36225 0.12628 0.87741 0.0
C225 C 0.28851 0.14012 0.9116 0.0
H226 H 0.26197 0.12611 0.88335 0.0
H227 H 0.29455 0.12456 0.9679 0.0
H228 H 0.282 0.17225 0.92402 0.0
O229 O 0.32368 0.23901 0.71603 0.0
O230 O 0.37917 0.22156 0.65752 0.0
H231 H 0.44049 0.14894 0.86462 0.0
H232 H 0.44352 0.10663 0.80076 0.0
C233 C 0.42947 0.1367 0.80804 0.0
H234 H 0.43903 0.15724 0.76044 0.0
H235 H 0.43101 0.20386 0.55534 0.0
O236 O 0.25338 0.20751 0.80244 0.0
C237 C 0.35798 0.24827 0.69007 0.0
Co238 Co 0.07973 0.04112 0.98112 0.0
Co239 Co 0.1029 0.1152 0.89288 0.0
C240 C 0.10745 0.02335 0.82552 0.0
O241 O 0.09889 0.00923 0.89201 0.0
O242 O 0.10895 0.06231 0.81625 0.0
C243 C 0.02524 0.99786 1.02327 0.0
O244 O 0.02232 0.98894 0.94853 0.0
C245 C 0.15115 0.19061 0.87417 0.0
C246 C 0.10159 0.22983 0.83432 0.0
C247 C 0.13961 0.23098 0.86705 0.0
N248 N 0.12027 0.16694 0.85083 0.0
N249 N 0.09156 0.19095 0.82402 0.0
C250 C 0.19015 0.17441 0.9034 0.0
H251 H 0.18567 0.14974 0.9457 0.0
H252 H 0.20927 0.19844 0.92916 0.0
H253 H 0.20512 0.15993 0.85294 0.0
C254 C 0.12995 0.07357 0.10714 0.0
N255 N 0.11838 0.0732 1.03137 0.0
N256 N 0.12288 0.10927 1.00086 0.0
C257 C 0.13458 0.13452 0.05956 0.0
C258 C 0.1409 0.11225 0.12741 0.0
C259 C 0.12706 0.03851 0.1616 0.0
H260 H 0.14107 0.01198 0.13336 0.0
H261 H 0.14261 0.04455 0.21792 0.0
H262 H 0.09492 0.03199 0.17402 0.0
O263 O 0.02818 0.07367 0.96602 0.0
O264 O 0.04562 0.12917 0.90752 0.0
H265 H 0.11825 0.1905 0.11463 0.0
H266 H 0.16056 0.19352 0.05077 0.0
C267 C 0.13049 0.17947 0.05805 0.0
H268 H 0.10994 0.18903 1.01044 0.0
H269 H 0.06333 0.18101 0.80535 0.0
O270 O 0.05968 1.00338 0.05243 0.0
C271 C 0.01892 0.10798 0.94006 0.0
Co272 Co 0.79111 0.82973 0.73113 0.0
Co273 Co 0.86519 0.8529 0.6429 0.0
C274 C 0.77334 0.85746 0.57552 0.0
O275 O 0.75923 0.84889 0.64202 0.0
O276 O 0.8123 0.85895 0.56627 0.0
C277 C 0.74785 0.77525 0.77328 0.0
O278 O 0.73893 0.77233 0.69854 0.0
C279 C 0.94061 0.90114 0.62424 0.0
C280 C 0.97982 0.85157 0.58441 0.0
C281 C 0.98098 0.88958 0.6172 0.0
N282 N 0.91693 0.87026 0.60085 0.0
N283 N 0.94094 0.84156 0.57405 0.0
C284 C 0.92441 0.94014 0.65345 0.0
H285 H 0.89975 0.93567 0.69578 0.0
H286 H 0.94844 0.95927 0.67917 0.0
H287 H 0.90991 0.9551 0.60299 0.0
C288 C 0.82356 0.87997 0.85715 0.0
N289 N 0.82319 0.86839 0.78138 0.0
N290 N 0.85926 0.87288 0.75088 0.0
C291 C 0.88451 0.88457 0.80957 0.0
C292 C 0.86224 0.89092 0.87741 0.0
C293 C 0.7885 0.87707 0.91161 0.0
H294 H 0.76196 0.89107 0.88335 0.0
H295 H 0.79454 0.89264 0.96791 0.0
H296 H 0.78199 0.84494 0.92405 0.0
O297 O 0.82367 0.77818 0.71604 0.0
O298 O 0.87915 0.79562 0.65754 0.0
H299 H 0.94047 0.86822 0.86467 0.0
H300 H 0.94353 0.91053 0.80079 0.0
C301 C 0.92946 0.88046 0.80808 0.0
H302 H 0.93902 0.85991 0.76049 0.0
H303 H 0.931 0.81333 0.55535 0.0
O304 O 0.75337 0.80969 0.80244 0.0
C305 C 0.85796 0.76892 0.69008 0.0
Co306 Co 0.93744 0.04111 0.48115 0.0
Co307 Co 0.9143 0.1152 0.39289 0.0
C308 C 0.90974 0.02335 0.32552 0.0
O309 O 0.91829 0.00923 0.39202 0.0
O310 O 0.90826 0.06231 0.31626 0.0
C311 C 0.99189 0.9978 0.52327 0.0
O312 O 0.99483 0.98892 0.44852 0.0
C313 C 0.86606 0.19061 0.37416 0.0
C314 C 0.91563 0.22983 0.33437 0.0
C315 C 0.87759 0.23098 0.36706 0.0
N316 N 0.89695 0.16694 0.35083 0.0
N317 N 0.92566 0.19095 0.32406 0.0
C318 C 0.82705 0.1744 0.40336 0.0
H319 H 0.83153 0.14973 0.44566 0.0
H320 H 0.80793 0.19843 0.42911 0.0
H321 H 0.8121 0.15993 0.35288 0.0
C322 C 0.8872 0.07357 0.60713 0.0
N323 N 0.89878 0.0732 0.53137 0.0
N324 N 0.8943 0.10927 0.50086 0.0
C325 C 0.88259 0.13452 0.55954 0.0
C326 C 0.87624 0.11225 0.62738 0.0
C327 C 0.89009 0.03851 0.6616 0.0
H328 H 0.87609 0.01197 0.63335 0.0
H329 H 0.87451 0.04456 0.7179 0.0
H330 H 0.92222 0.03201 0.67405 0.0
O331 O 0.989 0.07365 0.4661 0.0
O332 O 0.97158 0.12915 0.40757 0.0
H333 H 0.89893 0.19049 0.61462 0.0
H334 H 0.85663 0.19353 0.55072 0.0
C335 C 0.8867 0.17947 0.55803 0.0
H336 H 0.90726 0.18903 0.51045 0.0
H337 H 0.9539 0.18102 0.30542 0.0
O338 O 0.95747 1.00336 0.55245 0.0
C339 C 0.99827 0.10795 0.44015 0.0
Co340 Co 0.72607 0.18745 0.23113 0.0
Co341 Co 0.65199 0.16429 0.1429 0.0
C342 C 0.74384 0.15973 0.07552 0.0
O343 O 0.75796 0.16829 0.14202 0.0
O344 O 0.70488 0.15824 0.06627 0.0
C345 C 0.76933 0.24193 0.27328 0.0
O346 O 0.77825 0.24485 0.19854 0.0
C347 C 0.57658 0.11605 0.12424 0.0
C348 C 0.53737 0.16562 0.08441 0.0
C349 C 0.53621 0.12761 0.1172 0.0
N350 N 0.60025 0.14692 0.10085 0.0
N351 N 0.57625 0.17563 0.07405 0.0
C352 C 0.59277 0.07704 0.15345 0.0
H353 H 0.61743 0.08152 0.19578 0.0
H354 H 0.56874 0.05791 0.17917 0.0
H355 H 0.60727 0.06209 0.10299 0.0
C356 C 0.69362 0.13722 0.35715 0.0
N357 N 0.69399 0.1488 0.28138 0.0
N358 N 0.65792 0.14431 0.25088 0.0
C359 C 0.63267 0.13261 0.30957 0.0
C360 C 0.65494 0.12626 0.37741 0.0
C361 C 0.72869 0.14012 0.41161 0.0
H362 H 0.75522 0.12611 0.38335 0.0
H363 H 0.72265 0.12454 0.46791 0.0
H364 H 0.73519 0.17225 0.42405 0.0
O365 O 0.69352 0.23901 0.21604 0.0
O366 O 0.63803 0.22157 0.15754 0.0
H367 H 0.57671 0.14896 0.36467 0.0
H368 H 0.57365 0.10666 0.30079 0.0
C369 C 0.58772 0.13673 0.30808 0.0
H370 H 0.57816 0.15728 0.26049 0.0
H371 H 0.58618 0.20386 0.05535 0.0
O372 O 0.76381 0.2075 0.30244 0.0
C373 C 0.65922 0.24827 0.19008 0.0
Co374 Co 0.57974 0.97608 0.98115 0.0
Co375 Co 0.60288 0.90199 0.89289 0.0
C376 C 0.60744 0.99384 0.82552 0.0
O377 O 0.59889 1.00796 0.89202 0.0
O378 O 0.60893 0.95488 0.81626 0.0
C379 C 0.52529 0.01939 1.02327 0.0
O380 O 0.52235 0.02826 0.94852 0.0
C381 C 0.65112 0.82658 0.87416 0.0
C382 C 0.60155 0.78736 0.83437 0.0
C383 C 0.63959 0.7862 0.86706 0.0
N384 N 0.62023 0.85025 0.85083 0.0
N385 N 0.59152 0.82624 0.82406 0.0
C386 C 0.69013 0.84278 0.90336 0.0
H387 H 0.68565 0.86746 0.94566 0.0
H388 H 0.70926 0.81876 0.92911 0.0
H389 H 0.70509 0.85726 0.85288 0.0
C390 C 0.62999 0.94361 0.10713 0.0
N391 N 0.6184 0.94398 1.03137 0.0
N392 N 0.62288 0.90792 1.00086 0.0
C393 C 0.63459 0.88267 0.05954 0.0
C394 C 0.64094 0.90493 0.12738 0.0
C395 C 0.62709 0.97867 0.1616 0.0
H396 H 0.64109 1.00521 0.13335 0.0
H397 H 0.64267 0.97263 0.2179 0.0
H398 H 0.59496 0.98517 0.17405 0.0
O399 O 0.52818 0.94353 0.9661 0.0
O400 O 0.5456 0.88803 0.90757 0.0
H401 H 0.61825 0.82669 0.11462 0.0
H402 H 0.66055 0.82365 0.05072 0.0
C403 C 0.63048 0.83771 0.05803 0.0
H404 H 0.60992 0.82816 1.01045 0.0
H405 H 0.56328 0.83617 0.80542 0.0
O406 O 0.55972 0.01382 0.05245 0.0
C407 C 0.51891 0.90923 0.94015 0.0
Co408 Co 0.79111 0.18745 0.85169 0.0
Co409 Co 0.86519 0.16428 0.93992 0.0
C410 C 0.77335 0.15973 1.00729 0.0
O411 O 0.75922 0.16829 0.9408 0.0
O412 O 0.8123 0.15824 1.01656 0.0
C413 C 0.74785 0.24193 0.80954 0.0
O414 O 0.73893 0.24485 0.88428 0.0
C415 C 0.94061 0.11605 0.95857 0.0
C416 C 0.97982 0.16562 0.9984 0.0
C417 C 0.98098 0.12761 0.96561 0.0
N418 N 0.91693 0.14692 0.98196 0.0
N419 N 0.94094 0.17563 1.00876 0.0
C420 C 0.92441 0.07704 0.92935 0.0
H421 H 0.89975 0.08151 0.88702 0.0
H422 H 0.94844 0.05791 0.90363 0.0
H423 H 0.90991 0.06209 0.97981 0.0
C424 C 0.82355 0.13722 0.72567 0.0
N425 N 0.82319 0.14879 0.80144 0.0
N426 N 0.85926 0.14431 0.83194 0.0
C427 C 0.8845 0.13261 0.77323 0.0
C428 C 0.86223 0.12628 0.70539 0.0
C429 C 0.78848 0.14011 0.67122 0.0
H430 H 0.76195 0.1261 0.69949 0.0
H431 H 0.79452 0.12453 0.61493 0.0
H432 H 0.78198 0.17224 0.65878 0.0
O433 O 0.82367 0.239 0.86678 0.0
O434 O 0.87915 0.22156 0.92528 0.0
H435 H 0.94047 0.14897 0.71814 0.0
H436 H 0.94352 0.10666 0.78201 0.0
C437 C 0.92946 0.13673 0.77472 0.0
H438 H 0.93902 0.15728 0.82232 0.0
H439 H 0.931 0.20386 1.02747 0.0
O440 O 0.75337 0.2075 0.78038 0.0
C441 C 0.85796 0.24827 0.89274 0.0
Co442 Co 0.57974 0.04111 0.60168 0.0
Co443 Co 0.60288 0.1152 0.68992 0.0
C444 C 0.60744 0.02335 0.7573 0.0
O445 O 0.59889 0.00923 0.6908 0.0
O446 O 0.60893 0.06231 0.76656 0.0
C447 C 0.52529 0.99779 0.55954 0.0
O448 O 0.52235 0.98892 0.6343 0.0
C449 C 0.65112 0.19061 0.70865 0.0
C450 C 0.60156 0.22983 0.74845 0.0
C451 C 0.63959 0.23099 0.71575 0.0
N452 N 0.62023 0.16694 0.73198 0.0
N453 N 0.59152 0.19095 0.75875 0.0
C454 C 0.69013 0.17441 0.67944 0.0
H455 H 0.68565 0.14974 0.63714 0.0
H456 H 0.70926 0.19843 0.6537 0.0
H457 H 0.70509 0.15993 0.72992 0.0
C458 C 0.62998 0.07357 0.47569 0.0
N459 N 0.6184 0.0732 0.55145 0.0
N460 N 0.62288 0.10927 0.58196 0.0
C461 C 0.63458 0.13452 0.52327 0.0
C462 C 0.64093 0.11225 0.45542 0.0
C463 C 0.6271 0.0385 0.42123 0.0
H464 H 0.6411 0.01197 0.4495 0.0
H465 H 0.64268 0.04454 0.36494 0.0
H466 H 0.59497 0.032 0.40878 0.0
O467 O 0.52818 0.07365 0.61672 0.0
O468 O 0.5456 0.12915 0.67525 0.0
H469 H 0.61825 0.19049 0.46818 0.0
H470 H 0.66054 0.19353 0.53208 0.0
C471 C 0.63048 0.17947 0.52477 0.0
H472 H 0.60992 0.18903 0.57236 0.0
H473 H 0.56328 0.18102 0.7774 0.0
O474 O 0.55972 1.00336 0.53037 0.0
C475 C 0.51891 0.10795 0.64267 0.0
Co476 Co 0.72607 0.82973 0.35169 0.0
Co477 Co 0.65199 0.8529 0.43992 0.0
C478 C 0.74384 0.85745 0.50729 0.0
O479 O 0.75796 0.84889 0.4408 0.0
O480 O 0.70488 0.85895 0.51656 0.0
C481 C 0.76933 0.77525 0.30954 0.0
O482 O 0.77825 0.77233 0.38428 0.0
C483 C 0.57657 0.90114 0.45857 0.0
C484 C 0.53736 0.85157 0.4984 0.0
C485 C 0.53621 0.88958 0.46561 0.0
N486 N 0.60025 0.87027 0.48196 0.0
N487 N 0.57625 0.84156 0.50876 0.0
C488 C 0.59277 0.94014 0.42935 0.0
H489 H 0.61743 0.93567 0.38702 0.0
H490 H 0.56874 0.95927 0.40363 0.0
H491 H 0.60727 0.9551 0.47981 0.0
C492 C 0.69363 0.87997 0.22567 0.0
N493 N 0.69399 0.86839 0.30144 0.0
N494 N 0.65793 0.87288 0.33194 0.0
C495 C 0.63268 0.88457 0.27323 0.0
C496 C 0.65495 0.89091 0.20539 0.0
C497 C 0.7287 0.87708 0.17122 0.0
H498 H 0.75523 0.89108 0.19949 0.0
H499 H 0.72266 0.89266 0.11493 0.0
H500 H 0.73521 0.84495 0.15878 0.0
O501 O 0.69352 0.77818 0.36678 0.0
O502 O 0.63803 0.79562 0.42528 0.0
H503 H 0.57671 0.86822 0.21814 0.0
H504 H 0.57366 0.91053 0.28201 0.0
C505 C 0.58773 0.88046 0.27472 0.0
H506 H 0.57817 0.85991 0.32232 0.0
H507 H 0.58618 0.81333 0.52747 0.0
O508 O 0.76382 0.80969 0.28038 0.0
C509 C 0.65922 0.76892 0.39274 0.0
Co510 Co 0.93744 0.97608 0.10168 0.0
Co511 Co 0.9143 0.90199 0.18992 0.0
C512 C 0.90974 0.99384 0.2573 0.0
O513 O 0.91829 1.00796 0.1908 0.0
O514 O 0.90825 0.95488 0.26656 0.0
C515 C 0.99189 0.01939 0.05954 0.0
O516 O 0.99484 0.02826 0.1343 0.0
C517 C 0.86606 0.82657 0.20865 0.0
C518 C 0.91563 0.78735 0.24845 0.0
C519 C 0.87759 0.7862 0.21575 0.0
N520 N 0.89695 0.85024 0.23198 0.0
N521 N 0.92566 0.82623 0.25875 0.0
C522 C 0.82706 0.84278 0.17944 0.0
H523 H 0.83153 0.86745 0.13714 0.0
H524 H 0.80793 0.81875 0.1537 0.0
H525 H 0.8121 0.85726 0.22992 0.0
C526 C 0.8872 0.94362 0.97569 0.0
N527 N 0.89878 0.94399 0.05145 0.0
N528 N 0.8943 0.90792 0.08196 0.0
C529 C 0.8826 0.88267 1.02327 0.0
C530 C 0.87626 0.90494 0.95542 0.0
C531 C 0.89008 0.97868 0.92123 0.0
H532 H 0.87608 1.00522 0.9495 0.0
H533 H 0.8745 0.97264 0.86494 0.0
H534 H 0.92221 0.98519 0.90878 0.0
O535 O 0.989 0.94353 0.11672 0.0
O536 O 0.97158 0.88803 0.17525 0.0
H537 H 0.89894 0.82669 0.96818 0.0
H538 H 0.85664 0.82366 1.03208 0.0
C539 C 0.88671 0.83771 1.02477 0.0
H540 H 0.90726 0.82816 0.07236 0.0
H541 H 0.9539 0.83616 0.2774 0.0
O542 O 0.95747 0.01383 1.03037 0.0
C543 C 0.99827 0.90923 0.14267 0.0
Co544 Co 0.72606 0.68745 0.85167 0.0
Co545 Co 0.65198 0.6643 0.93993 0.0
C546 C 0.74383 0.65974 1.00729 0.0
O547 O 0.75795 0.6683 0.94079 0.0
O548 O 0.70488 0.65826 1.01656 0.0
C549 C 0.76938 0.7419 0.80955 0.0
O550 O 0.77824 0.74484 0.88431 0.0
C551 C 0.57658 0.61605 0.95867 0.0
C552 C 0.53735 0.66562 0.99847 0.0
C553 C 0.5362 0.62759 0.96578 0.0
N554 N 0.60024 0.64694 0.98199 0.0
N555 N 0.57623 0.67565 1.00878 0.0
C556 C 0.59278 0.57705 0.92946 0.0
H557 H 0.61745 0.58153 0.88717 0.0
H558 H 0.56876 0.55792 0.9037 0.0
H559 H 0.60725 0.56209 0.97994 0.0
C560 C 0.6936 0.63721 0.72568 0.0
N561 N 0.69398 0.64879 0.80144 0.0
N562 N 0.65791 0.6443 0.83196 0.0
C563 C 0.63266 0.6326 0.77328 0.0
C564 C 0.65492 0.62625 0.70543 0.0
C565 C 0.72866 0.64011 0.67121 0.0
H566 H 0.7552 0.6261 0.69945 0.0
H567 H 0.72262 0.62453 0.61491 0.0
H568 H 0.73517 0.67224 0.65877 0.0
O569 O 0.69351 0.73901 0.86671 0.0
O570 O 0.63802 0.72158 0.92525 0.0
H571 H 0.57668 0.64893 0.71821 0.0
H572 H 0.57365 0.60663 0.7821 0.0
C573 C 0.58771 0.6367 0.77479 0.0
H574 H 0.57815 0.65725 0.82238 0.0
H575 H 0.58616 0.70389 1.02742 0.0
O576 O 0.76381 0.70748 0.78037 0.0
C577 C 0.65922 0.74827 0.89268 0.0
Co578 Co 0.57972 0.47607 0.10168 0.0
Co579 Co 0.6029 0.40199 0.18992 0.0
C580 C 0.60745 0.49384 0.25729 0.0
O581 O 0.59888 0.50795 0.1908 0.0
O582 O 0.60895 0.45488 0.26655 0.0
C583 C 0.52524 0.51932 0.05955 0.0
O584 O 0.52232 0.52824 0.13429 0.0
C585 C 0.65115 0.32658 0.20859 0.0
C586 C 0.60158 0.28737 0.24843 0.0
C587 C 0.63959 0.28621 0.21564 0.0
N588 N 0.62027 0.35025 0.23198 0.0
N589 N 0.59156 0.32625 0.25879 0.0
C590 C 0.69015 0.34278 0.17937 0.0
H591 H 0.68567 0.36744 0.13705 0.0
H592 H 0.70928 0.31875 0.15364 0.0
H593 H 0.70511 0.35727 0.22983 0.0
C594 C 0.62996 0.44362 0.97566 0.0
N595 N 0.61838 0.44399 0.05143 0.0
N596 N 0.62288 0.40792 0.08194 0.0
C597 C 0.63458 0.38267 1.02325 0.0
C598 C 0.64092 0.40494 0.9554 0.0
C599 C 0.62706 0.47868 0.9212 0.0
H600 H 0.64106 0.50522 0.94945 0.0
H601 H 0.64262 0.47264 0.86489 0.0
H602 H 0.59492 0.48519 0.90878 0.0
O603 O 0.52817 0.4435 0.11677 0.0
O604 O 0.54562 0.38802 0.17529 0.0
H605 H 0.61823 0.3267 0.96816 0.0
H606 H 0.66054 0.32366 1.03203 0.0
C607 C 0.63047 0.33772 1.02474 0.0
H608 H 0.60992 0.32816 0.07234 0.0
H609 H 0.56334 0.33618 0.27749 0.0
O610 O 0.55967 0.51381 1.03037 0.0
C611 C 0.51892 0.4092 0.14274 0.0
Co612 Co 0.79112 0.32974 0.35167 0.0
Co613 Co 0.8652 0.35288 0.43993 0.0
C614 C 0.77335 0.35744 0.50729 0.0
O615 O 0.75923 0.34889 0.44079 0.0
O616 O 0.81231 0.35893 0.51656 0.0
C617 C 0.74781 0.27528 0.30955 0.0
O618 O 0.73894 0.27234 0.38431 0.0
C619 C 0.94061 0.40113 0.45867 0.0
C620 C 0.97983 0.35157 0.49847 0.0
C621 C 0.98098 0.3896 0.46578 0.0
N622 N 0.91694 0.37024 0.48199 0.0
N623 N 0.94095 0.34153 0.50878 0.0
C624 C 0.9244 0.44014 0.42946 0.0
H625 H 0.89973 0.43566 0.38717 0.0
H626 H 0.94843 0.45926 0.4037 0.0
H627 H 0.90993 0.4551 0.47994 0.0
C628 C 0.82358 0.37998 0.22568 0.0
N629 N 0.82321 0.36839 0.30144 0.0
N630 N 0.85927 0.37288 0.33196 0.0
C631 C 0.88452 0.38459 0.27328 0.0
C632 C 0.86226 0.39094 0.20543 0.0
C633 C 0.78852 0.37708 0.17121 0.0
H634 H 0.76198 0.39108 0.19945 0.0
H635 H 0.79456 0.39265 0.11491 0.0
H636 H 0.78202 0.34495 0.15877 0.0
O637 O 0.82367 0.27818 0.36671 0.0
O638 O 0.87916 0.2956 0.42525 0.0
H639 H 0.9405 0.36826 0.21821 0.0
H640 H 0.94353 0.41056 0.2821 0.0
C641 C 0.92948 0.38049 0.27479 0.0
H642 H 0.93903 0.35993 0.32238 0.0
H643 H 0.93102 0.31329 0.52742 0.0
O644 O 0.75337 0.30971 0.28037 0.0
C645 C 0.85797 0.26891 0.39268 0.0
Co646 Co 0.93746 0.54112 0.60168 0.0
Co647 Co 0.91428 0.61519 0.68992 0.0
C648 C 0.90973 0.52335 0.75729 0.0
O649 O 0.9183 0.50923 0.6908 0.0
O650 O 0.90824 0.56231 0.76655 0.0
C651 C 0.99194 0.49786 0.55955 0.0
O652 O 0.99486 0.48895 0.63429 0.0
C653 C 0.86604 0.69061 0.70859 0.0
C654 C 0.9156 0.72982 0.74843 0.0
C655 C 0.87759 0.73098 0.71564 0.0
N656 N 0.89691 0.66693 0.73198 0.0
N657 N 0.92562 0.69094 0.75879 0.0
C658 C 0.82703 0.67441 0.67937 0.0
H659 H 0.83151 0.64975 0.63705 0.0
H660 H 0.80791 0.69844 0.65364 0.0
H661 H 0.81208 0.65992 0.72983 0.0
C662 C 0.88722 0.57357 0.47566 0.0
N663 N 0.8988 0.5732 0.55143 0.0
N664 N 0.8943 0.60926 0.58194 0.0
C665 C 0.8826 0.63451 0.52325 0.0
C666 C 0.87626 0.61224 0.4554 0.0
C667 C 0.89013 0.5385 0.4212 0.0
H668 H 0.87612 0.51196 0.44945 0.0
H669 H 0.87456 0.54454 0.36489 0.0
H670 H 0.92226 0.532 0.40878 0.0
O671 O 0.98901 0.57368 0.61677 0.0
O672 O 0.97156 0.62917 0.67529 0.0
H673 H 0.89895 0.69048 0.46816 0.0
H674 H 0.85665 0.69353 0.53203 0.0
C675 C 0.88671 0.67946 0.52474 0.0
H676 H 0.90726 0.68902 0.57234 0.0
H677 H 0.95385 0.681 0.77749 0.0
O678 O 0.95751 0.50338 0.53037 0.0
C679 C 0.99827 0.60798 0.64274 0.0
Co680 Co 0.72607 0.32974 0.73114 0.0
Co681 Co 0.65198 0.35289 0.64288 0.0
C682 C 0.74383 0.35744 0.57552 0.0
O683 O 0.75795 0.34889 0.64201 0.0
O684 O 0.70487 0.35893 0.56625 0.0
C685 C 0.76938 0.27528 0.77326 0.0
O686 O 0.77824 0.27234 0.6985 0.0
C687 C 0.57657 0.40114 0.62415 0.0
C688 C 0.53735 0.35157 0.58434 0.0
C689 C 0.5362 0.3896 0.61704 0.0
N690 N 0.60024 0.37025 0.60083 0.0
N691 N 0.57623 0.34154 0.57404 0.0
C692 C 0.59278 0.44014 0.65337 0.0
H693 H 0.61745 0.43566 0.69566 0.0
H694 H 0.56875 0.45926 0.67912 0.0
H695 H 0.60725 0.4551 0.60289 0.0
C696 C 0.69361 0.37998 0.85713 0.0
N697 N 0.69398 0.3684 0.78136 0.0
N698 N 0.65792 0.37289 0.75085 0.0
C699 C 0.63266 0.38459 0.80954 0.0
C700 C 0.65493 0.39093 0.87739 0.0
C701 C 0.72868 0.37709 0.91159 0.0
H702 H 0.75521 0.3911 0.88333 0.0
H703 H 0.72263 0.39267 0.96788 0.0
H704 H 0.73518 0.34496 0.92403 0.0
O705 O 0.69351 0.27818 0.7161 0.0
O706 O 0.63802 0.29561 0.65756 0.0
H707 H 0.57669 0.36826 0.86462 0.0
H708 H 0.57366 0.41056 0.80073 0.0
C709 C 0.58771 0.38049 0.80804 0.0
H710 H 0.57815 0.35994 0.76044 0.0
H711 H 0.58616 0.3133 0.55539 0.0
O712 O 0.76382 0.30971 0.80244 0.0
C713 C 0.65922 0.26892 0.69014 0.0
Co714 Co 0.93746 0.47607 0.98112 0.0
Co715 Co 0.91428 0.40199 0.89289 0.0
C716 C 0.90973 0.49384 0.82552 0.0
O717 O 0.9183 0.50795 0.89201 0.0
O718 O 0.90823 0.45488 0.81625 0.0
C719 C 0.99194 0.51932 1.02327 0.0
O720 O 0.99486 0.52824 0.94852 0.0
C721 C 0.86604 0.32658 0.87423 0.0
C722 C 0.9156 0.28736 0.83438 0.0
C723 C 0.87759 0.28621 0.86718 0.0
N724 N 0.89691 0.35025 0.85084 0.0
N725 N 0.92562 0.32625 0.82403 0.0
C726 C 0.82703 0.34277 0.90346 0.0
H727 H 0.83151 0.36743 0.94578 0.0
H728 H 0.80791 0.31874 0.92918 0.0
H729 H 0.81208 0.35727 0.853 0.0
C730 C 0.88723 0.44362 0.10715 0.0
N731 N 0.8988 0.44399 1.03137 0.0
N732 N 0.8943 0.40792 1.00087 0.0
C733 C 0.88261 0.38267 0.05958 0.0
C734 C 0.87628 0.40495 0.12742 0.0
C735 C 0.89012 0.47869 0.16159 0.0
H736 H 0.87611 0.50523 0.13333 0.0
H737 H 0.87455 0.47265 0.2179 0.0
H738 H 0.92225 0.4852 0.17403 0.0
O739 O 0.98901 0.4435 0.96604 0.0
O740 O 0.97156 0.38802 0.90752 0.0
H741 H 0.89896 0.32671 0.11467 0.0
H742 H 0.85665 0.32366 0.0508 0.0
C743 C 0.88672 0.33772 0.05808 0.0
H744 H 0.90727 0.32816 1.01048 0.0
H745 H 0.95384 0.33618 0.80532 0.0
O746 O 0.95751 0.51381 0.05243 0.0
C747 C 0.99826 0.4092 0.94007 0.0
Co748 Co 0.79111 0.68745 0.23114 0.0
Co749 Co 0.8652 0.6643 0.14288 0.0
C750 C 0.77335 0.65975 0.07552 0.0
O751 O 0.75923 0.6683 0.14201 0.0
O752 O 0.81231 0.65825 0.06625 0.0
C753 C 0.74781 0.7419 0.27326 0.0
O754 O 0.73894 0.74485 0.1985 0.0
C755 C 0.94061 0.61605 0.12415 0.0
C756 C 0.97983 0.66562 0.08434 0.0
C757 C 0.98098 0.62758 0.11704 0.0
N758 N 0.91694 0.64694 0.10083 0.0
N759 N 0.94095 0.67565 0.07404 0.0
C760 C 0.92441 0.57705 0.15337 0.0
H761 H 0.89973 0.58152 0.19566 0.0
H762 H 0.94843 0.55792 0.17912 0.0
H763 H 0.90993 0.56209 0.10289 0.0
C764 C 0.82357 0.63721 0.35713 0.0
N765 N 0.8232 0.64879 0.28136 0.0
N766 N 0.85927 0.6443 0.25085 0.0
C767 C 0.88452 0.6326 0.30954 0.0
C768 C 0.86225 0.62626 0.37739 0.0
C769 C 0.78851 0.6401 0.41159 0.0
H770 H 0.76197 0.62609 0.38333 0.0
H771 H 0.79455 0.62452 0.46788 0.0
H772 H 0.782 0.67223 0.42403 0.0
O773 O 0.82367 0.739 0.2161 0.0
O774 O 0.87916 0.72158 0.15756 0.0
H775 H 0.94049 0.64893 0.36462 0.0
H776 H 0.94353 0.60663 0.30073 0.0
C777 C 0.92947 0.6367 0.30804 0.0
H778 H 0.93903 0.65725 0.26044 0.0
H779 H 0.93102 0.70389 0.05539 0.0
O780 O 0.75337 0.70748 0.30244 0.0
C781 C 0.85797 0.74827 0.19014 0.0
Co782 Co 0.57972 0.54112 0.48112 0.0
Co783 Co 0.6029 0.6152 0.39289 0.0
C784 C 0.60745 0.52335 0.32552 0.0
O785 O 0.59888 0.50923 0.39201 0.0
O786 O 0.60895 0.56231 0.31625 0.0
C787 C 0.52524 0.49786 0.52327 0.0
O788 O 0.52232 0.48895 0.44852 0.0
C789 C 0.65114 0.69061 0.37423 0.0
C790 C 0.60158 0.72982 0.33438 0.0
C791 C 0.63959 0.73098 0.36718 0.0
N792 N 0.62027 0.66694 0.35084 0.0
N793 N 0.59157 0.69094 0.32403 0.0
C794 C 0.69015 0.67442 0.40346 0.0
H795 H 0.68567 0.64976 0.44578 0.0
H796 H 0.70928 0.69845 0.42918 0.0
H797 H 0.7051 0.65992 0.353 0.0
C798 C 0.62996 0.57356 0.60715 0.0
N799 N 0.61838 0.5732 0.53137 0.0
N800 N 0.62288 0.60926 0.50087 0.0
C801 C 0.63457 0.63451 0.55958 0.0
C802 C 0.6409 0.61224 0.62742 0.0
C803 C 0.62706 0.53849 0.66159 0.0
H804 H 0.64107 0.51196 0.63333 0.0
H805 H 0.64264 0.54453 0.7179 0.0
H806 H 0.59493 0.53198 0.67403 0.0
O807 O 0.52818 0.57368 0.46604 0.0
O808 O 0.54562 0.62917 0.40752 0.0
H809 H 0.61822 0.69048 0.61467 0.0
H810 H 0.66053 0.69353 0.5508 0.0
C811 C 0.63046 0.67946 0.55808 0.0
H812 H 0.60992 0.68902 0.51048 0.0
H813 H 0.56334 0.681 0.30532 0.0
O814 O 0.55967 0.50338 0.55243 0.0
C815 C 0.51892 0.60798 0.44007 0.0
Co816 Co 0.2911 0.32975 0.23115 0.0
Co817 Co 0.36519 0.35288 0.1429 0.0
C818 C 0.27334 0.35745 0.07552 0.0
O819 O 0.25923 0.3489 0.14202 0.0
O820 O 0.3123 0.35893 0.06626 0.0
C821 C 0.24779 0.27529 0.27326 0.0
O822 O 0.23892 0.27235 0.1985 0.0
C823 C 0.44061 0.40112 0.12422 0.0
C824 C 0.47982 0.35155 0.08444 0.0
C825 C 0.48098 0.38957 0.11719 0.0
N826 N 0.41694 0.37024 0.10086 0.0
N827 N 0.44094 0.34153 0.07408 0.0
C828 C 0.42441 0.44013 0.15342 0.0
H829 H 0.39974 0.43566 0.19574 0.0
H830 H 0.44843 0.45926 0.17914 0.0
H831 H 0.40991 0.45508 0.10295 0.0
C832 C 0.32356 0.37999 0.35714 0.0
N833 N 0.32319 0.3684 0.28138 0.0
N834 N 0.35926 0.37288 0.25087 0.0
C835 C 0.38451 0.38458 0.30956 0.0
C836 C 0.36224 0.39094 0.3774 0.0
C837 C 0.28849 0.3771 0.4116 0.0
H838 H 0.26196 0.39109 0.38333 0.0
H839 H 0.29453 0.39268 0.46789 0.0
H840 H 0.282 0.34497 0.42406 0.0
O841 O 0.32365 0.27819 0.21611 0.0
O842 O 0.37915 0.2956 0.15757 0.0
H843 H 0.44048 0.36823 0.36466 0.0
H844 H 0.44353 0.41052 0.30076 0.0
C845 C 0.42946 0.38046 0.30807 0.0
H846 H 0.43902 0.3599 0.26049 0.0
H847 H 0.43101 0.3133 0.0554 0.0
O848 O 0.25335 0.30972 0.30245 0.0
C849 C 0.35795 0.26891 0.19015 0.0
Co850 Co 0.43744 0.54111 0.98115 0.0
Co851 Co 0.4143 0.61519 0.8929 0.0
C852 C 0.40974 0.52335 0.82552 0.0
O853 O 0.41829 0.50923 0.89202 0.0
O854 O 0.40825 0.56231 0.81626 0.0
C855 C 0.49189 0.4978 1.02327 0.0
O856 O 0.49483 0.48893 0.94851 0.0
C857 C 0.36606 0.69061 0.87422 0.0
C858 C 0.41564 0.72982 0.83443 0.0
C859 C 0.37762 0.73098 0.86719 0.0
N860 N 0.39694 0.66694 0.85085 0.0
N861 N 0.42565 0.69094 0.82407 0.0
C862 C 0.32706 0.67441 0.90341 0.0
H863 H 0.33153 0.64974 0.94573 0.0
H864 H 0.30792 0.69843 0.92913 0.0
H865 H 0.31211 0.65991 0.85294 0.0
C866 C 0.38719 0.57356 0.10713 0.0
N867 N 0.39878 0.57319 1.03137 0.0
N868 N 0.3943 0.60926 1.00087 0.0
C869 C 0.3826 0.63451 0.05956 0.0
C870 C 0.37624 0.61224 0.1274 0.0
C871 C 0.39008 0.5385 0.16159 0.0
H872 H 0.37609 0.51196 0.13332 0.0
H873 H 0.37449 0.54453 0.21788 0.0
H874 H 0.42221 0.532 0.17406 0.0
O875 O 0.489 0.57366 0.96613 0.0
O876 O 0.47158 0.62915 0.90757 0.0
H877 H 0.39895 0.69048 0.11466 0.0
H878 H 0.35666 0.69353 0.05076 0.0
C879 C 0.38672 0.67946 0.05807 0.0
H880 H 0.40729 0.68902 1.01049 0.0
H881 H 0.45389 0.68101 0.80539 0.0
O882 O 0.45747 0.50336 0.05246 0.0
C883 C 0.49827 0.60796 0.94016 0.0
Co884 Co 0.22608 0.68744 0.73115 0.0
Co885 Co 0.15199 0.6643 0.6429 0.0
C886 C 0.24384 0.65974 0.57552 0.0
O887 O 0.25796 0.66829 0.64202 0.0
O888 O 0.20488 0.65825 0.56626 0.0
C889 C 0.26939 0.74189 0.77326 0.0
O890 O 0.27826 0.74483 0.6985 0.0
C891 C 0.07657 0.61606 0.62422 0.0
C892 C 0.03736 0.66564 0.58444 0.0
C893 C 0.0362 0.62762 0.61719 0.0
N894 N 0.10025 0.64694 0.60086 0.0
N895 N 0.07624 0.67566 0.57408 0.0
C896 C 0.09277 0.57706 0.65342 0.0
H897 H 0.11744 0.58153 0.69574 0.0
H898 H 0.06875 0.55792 0.67914 0.0
H899 H 0.10727 0.56211 0.60295 0.0
C900 C 0.19362 0.6372 0.85714 0.0
N901 N 0.19399 0.64878 0.78138 0.0
N902 N 0.15792 0.64431 0.75087 0.0
C903 C 0.13267 0.63261 0.80956 0.0
C904 C 0.15494 0.62625 0.8774 0.0
C905 C 0.22869 0.64009 0.9116 0.0
H906 H 0.25523 0.6261 0.88333 0.0
H907 H 0.22265 0.62451 0.96789 0.0
H908 H 0.23519 0.67222 0.92406 0.0
O909 O 0.19353 0.739 0.71611 0.0
O910 O 0.13804 0.72158 0.65757 0.0
H911 H 0.07671 0.64896 0.86466 0.0
H912 H 0.07365 0.60666 0.80076 0.0
C913 C 0.08772 0.63673 0.80807 0.0
H914 H 0.07817 0.65729 0.76049 0.0
H915 H 0.08617 0.70389 0.5554 0.0
O916 O 0.26383 0.70747 0.80245 0.0
C917 C 0.15924 0.74827 0.69015 0.0
Co918 Co 0.07974 0.47608 0.48115 0.0
Co919 Co 0.10288 0.40199 0.3929 0.0
C920 C 0.10744 0.49384 0.32552 0.0
O921 O 0.09889 0.50796 0.39202 0.0
O922 O 0.10893 0.45488 0.31626 0.0
C923 C 0.02529 0.51939 0.52327 0.0
O924 O 0.02235 0.52826 0.44851 0.0
C925 C 0.15112 0.32658 0.37422 0.0
C926 C 0.10154 0.28736 0.33443 0.0
C927 C 0.13956 0.28621 0.36719 0.0
N928 N 0.12024 0.35025 0.35085 0.0
N929 N 0.09153 0.32624 0.32407 0.0
C930 C 0.19013 0.34278 0.40341 0.0
H931 H 0.18566 0.36744 0.44573 0.0
H932 H 0.20926 0.31875 0.42913 0.0
H933 H 0.20508 0.35727 0.35294 0.0
C934 C 0.12999 0.44362 0.60713 0.0
N935 N 0.1184 0.44399 0.53137 0.0
N936 N 0.12288 0.40793 0.50087 0.0
C937 C 0.13458 0.38267 0.55956 0.0
C938 C 0.14094 0.40494 0.6274 0.0
C939 C 0.1271 0.47869 0.66159 0.0
H940 H 0.14109 0.50523 0.63332 0.0
H941 H 0.14269 0.47265 0.71788 0.0
H942 H 0.09497 0.48519 0.67406 0.0
O943 O 0.02818 0.44352 0.46613 0.0
O944 O 0.0456 0.38803 0.40757 0.0
H945 H 0.11823 0.32671 0.61466 0.0
H946 H 0.16052 0.32365 0.55076 0.0
C947 C 0.13046 0.33772 0.55807 0.0
H948 H 0.1099 0.32817 0.51049 0.0
H949 H 0.06329 0.33618 0.30539 0.0
O950 O 0.05971 0.51382 0.55246 0.0
C951 C 0.01891 0.40923 0.44016 0.0
Co952 Co 0.2911 0.68744 0.35167 0.0
Co953 Co 0.36519 0.6643 0.43991 0.0
C954 C 0.27335 0.65974 0.50729 0.0
O955 O 0.25922 0.66829 0.4408 0.0
O956 O 0.31231 0.65825 0.51656 0.0
C957 C 0.24779 0.74189 0.30955 0.0
O958 O 0.23892 0.74484 0.38431 0.0
C959 C 0.44061 0.61606 0.45858 0.0
C960 C 0.47982 0.66564 0.49838 0.0
C961 C 0.48098 0.62762 0.46562 0.0
N962 N 0.41694 0.64694 0.48195 0.0
N963 N 0.44094 0.67565 0.50873 0.0
C964 C 0.42441 0.57706 0.42939 0.0
H965 H 0.39975 0.58153 0.38706 0.0
H966 H 0.44844 0.55792 0.40367 0.0
H967 H 0.40992 0.56211 0.47985 0.0
C968 C 0.32355 0.6372 0.22568 0.0
N969 N 0.32319 0.64878 0.30144 0.0
N970 N 0.35926 0.6443 0.33194 0.0
C971 C 0.38451 0.63261 0.27324 0.0
C972 C 0.36223 0.62626 0.2054 0.0
C973 C 0.28848 0.64008 0.17123 0.0
H974 H 0.26195 0.62608 0.19951 0.0
H975 H 0.29452 0.62449 0.11495 0.0
H976 H 0.28198 0.67221 0.15877 0.0
O977 O 0.32365 0.739 0.36671 0.0
O978 O 0.37915 0.72158 0.42525 0.0
H979 H 0.44047 0.64896 0.21814 0.0
H980 H 0.44352 0.60666 0.28204 0.0
C981 C 0.42946 0.63673 0.27473 0.0
H982 H 0.43901 0.65729 0.32232 0.0
H983 H 0.43101 0.70389 0.52741 0.0
O984 O 0.25335 0.70747 0.28037 0.0
C985 C 0.35795 0.74827 0.39267 0.0
Co986 Co 0.07974 0.54111 0.10167 0.0
Co987 Co 0.10288 0.61519 0.18992 0.0
C988 C 0.10744 0.52335 0.25729 0.0
O989 O 0.09889 0.50923 0.1908 0.0
O990 O 0.10893 0.56231 0.26656 0.0
C991 C 0.02529 0.4978 0.05955 0.0
O992 O 0.02235 0.48893 0.13431 0.0
C993 C 0.15112 0.69061 0.20859 0.0
C994 C 0.10155 0.72983 0.24838 0.0
C995 C 0.13956 0.73098 0.21562 0.0
N996 N 0.12024 0.66694 0.23196 0.0
N997 N 0.09153 0.69095 0.25874 0.0
C998 C 0.19012 0.67441 0.17939 0.0
H999 H 0.18566 0.64975 0.13706 0.0
H1000 H 0.20926 0.69844 0.15367 0.0
H1001 H 0.20507 0.65992 0.22986 0.0
C1002 C 0.12999 0.57356 0.97569 0.0
N1003 N 0.1184 0.57319 0.05145 0.0
N1004 N 0.12288 0.60926 0.08195 0.0
C1005 C 0.13457 0.63451 1.02325 0.0
C1006 C 0.14092 0.61224 0.95541 0.0
C1007 C 0.12711 0.53849 0.92124 0.0
H1008 H 0.1411 0.51195 0.94952 0.0
H1009 H 0.1427 0.54452 0.86496 0.0
H1010 H 0.09498 0.53198 0.90876 0.0
O1011 O 0.02818 0.57366 0.11669 0.0
O1012 O 0.0456 0.62915 0.17525 0.0
H1013 H 0.11822 0.69048 0.96814 0.0
H1014 H 0.16052 0.69353 1.03204 0.0
C1015 C 0.13045 0.67946 1.02474 0.0
H1016 H 0.10989 0.68902 0.07232 0.0
H1017 H 0.0633 0.68101 0.27743 0.0
O1018 O 0.05972 0.50336 1.03037 0.0
C1019 C 0.01891 0.60796 0.14266 0.0
Co1020 Co 0.22608 0.32975 0.85167 0.0
Co1021 Co 0.15199 0.35289 0.93991 0.0
C1022 C 0.24384 0.35745 1.00729 0.0
O1023 O 0.25796 0.3489 0.9408 0.0
O1024 O 0.20488 0.35894 1.01656 0.0
C1025 C 0.26939 0.27529 0.80955 0.0
O1026 O 0.27826 0.27235 0.88431 0.0
C1027 C 0.07657 0.40112 0.95858 0.0
C1028 C 0.03736 0.35155 0.99838 0.0
C1029 C 0.0362 0.38957 0.96562 0.0
N1030 N 0.10024 0.37024 0.98195 0.0
N1031 N 0.07624 0.34153 1.00873 0.0
C1032 C 0.09277 0.44013 0.92939 0.0
H1033 H 0.11743 0.43566 0.88706 0.0
H1034 H 0.06874 0.45926 0.90367 0.0
H1035 H 0.10727 0.45508 0.97985 0.0
C1036 C 0.19363 0.37999 0.72568 0.0
N1037 N 0.19399 0.36841 0.80144 0.0
N1038 N 0.15793 0.37288 0.83194 0.0
C1039 C 0.13268 0.38457 0.77324 0.0
C1040 C 0.15495 0.39092 0.7054 0.0
C1041 C 0.2287 0.37711 0.67123 0.0
H1042 H 0.25524 0.3911 0.69951 0.0
H1043 H 0.22267 0.3927 0.61495 0.0
H1044 H 0.2352 0.34498 0.65877 0.0
O1045 O 0.19353 0.27819 0.86671 0.0
O1046 O 0.13804 0.2956 0.92525 0.0
H1047 H 0.07671 0.36823 0.71814 0.0
H1048 H 0.07366 0.41052 0.78204 0.0
C1049 C 0.08772 0.38046 0.77473 0.0
H1050 H 0.07817 0.3599 0.82232 0.0
H1051 H 0.08617 0.3133 1.02741 0.0
O1052 O 0.26383 0.30972 0.78037 0.0
C1053 C 0.15924 0.26892 0.89267 0.0
Co1054 Co 0.43744 0.47608 0.60167 0.0
Co1055 Co 0.4143 0.40199 0.68992 0.0
C1056 C 0.40974 0.49384 0.75729 0.0
O1057 O 0.4183 0.50796 0.6908 0.0
O1058 O 0.40825 0.45488 0.76656 0.0
C1059 C 0.49189 0.51939 0.55955 0.0
O1060 O 0.49484 0.52826 0.63431 0.0
C1061 C 0.36606 0.32658 0.70859 0.0
C1062 C 0.41564 0.28736 0.74838 0.0
C1063 C 0.37762 0.2862 0.71562 0.0
N1064 N 0.39694 0.35025 0.73196 0.0
N1065 N 0.42565 0.32624 0.75874 0.0
C1066 C 0.32706 0.34277 0.67939 0.0
H1067 H 0.33153 0.36744 0.63706 0.0
H1068 H 0.30792 0.31875 0.65367 0.0
H1069 H 0.31211 0.35727 0.72986 0.0
C1070 C 0.38719 0.44363 0.47569 0.0
N1071 N 0.39878 0.44399 0.55145 0.0
N1072 N 0.3943 0.40793 0.58195 0.0
C1073 C 0.38261 0.38267 0.52325 0.0
C1074 C 0.37626 0.40495 0.45541 0.0
C1075 C 0.39007 0.4787 0.42124 0.0
H1076 H 0.37608 0.50523 0.44952 0.0
H1077 H 0.37448 0.47267 0.36496 0.0
H1078 H 0.4222 0.4852 0.40876 0.0
O1079 O 0.489 0.44352 0.61669 0.0
O1080 O 0.47158 0.38803 0.67525 0.0
H1081 H 0.39896 0.32671 0.46814 0.0
H1082 H 0.35667 0.32365 0.53204 0.0
C1083 C 0.38673 0.33772 0.52474 0.0
H1084 H 0.40729 0.32817 0.57232 0.0
H1085 H 0.45389 0.33617 0.77743 0.0
O1086 O 0.45747 0.51383 0.53037 0.0
C1087 C 0.49827 0.40923 0.64266 0.0
loop_
_geom_bond_atom_site_label_1
_geom_bond_atom_site_label_2
_geom_bond_distance
_geom_bond_site_symmetry_2
_ccdc_geom_bond_type
Co0 O3 1.970 . S
Co0 N17 1.989 . S
Co0 O25 1.967 . S
Co0 O32 1.920 . S
Co1 O4 1.966 . S
Co1 N10 2.022 . S
Co1 N18 1.993 . S
Co1 O26 1.941 . S
C2 O3 1.258 . S
C2 O4 1.263 . S
O3 Co0 1.970 . S
O3 C2 1.258 . S
O4 Co1 1.966 . S
O4 C2 1.263 . S
C5 O6 1.235 . S
C5 O32 1.289 . S
O6 C5 1.235 . S
C7 C9 1.400 . S
C7 N10 1.351 . S
C7 C12 1.501 . S
C8 C9 1.387 . S
C8 N11 1.341 . S
C9 C7 1.400 . S
C9 C8 1.387 . S
N10 Co1 2.022 . S
N10 C7 1.351 . S
N10 N11 1.365 . S
N11 C8 1.341 . S
N11 N10 1.365 . S
N11 H31 0.862 . S
C12 C7 1.501 . S
C12 H13 0.961 . S
C12 H14 0.961 . S
C12 H15 0.960 . S
H13 C12 0.961 . S
H14 C12 0.961 . S
H15 C12 0.960 . S
C16 N17 1.342 . S
C16 C20 1.401 . S
C16 C21 1.499 . S
N17 Co0 1.989 . S
N17 C16 1.342 . S
N17 N18 1.388 . S
N18 Co1 1.993 . S
N18 N17 1.388 . S
N18 C19 1.346 . S
C19 N18 1.346 . S
C19 C20 1.396 . S
C19 C29 1.510 . S
C20 C16 1.401 . S
C20 C19 1.396 . S
C21 C16 1.499 . S
C21 H22 0.959 . S
C21 H23 0.960 . S
C21 H24 0.961 . S
H22 C21 0.959 . S
H23 C21 0.960 . S
H24 C21 0.961 . S
O25 Co0 1.967 . S
O25 C33 1.258 . S
O26 Co1 1.941 . S
O26 C33 1.266 . S
H27 C29 0.959 . S
H28 C29 0.961 . S
C29 C19 1.510 . S
C29 H27 0.959 . S
C29 H28 0.961 . S
C29 H30 0.960 . S
H30 C29 0.960 . S
H31 N11 0.862 . S
O32 Co0 1.920 . S
O32 C5 1.289 . S
C33 O25 1.258 . S
C33 O26 1.266 . S
Co34 O37 1.970 . S
Co34 N51 1.989 . S
Co34 O59 1.967 . S
Co34 O66 1.920 1_565 S
Co35 O38 1.966 . S
Co35 N44 2.022 . S
Co35 N52 1.993 . S
Co35 O60 1.941 . S
C36 O37 1.258 . S
C36 O38 1.263 . S
O37 Co34 1.970 . S
O37 C36 1.258 . S
O38 Co35 1.966 . S
O38 C36 1.263 . S
C39 O40 1.235 . S
C39 O66 1.289 . S
O40 C39 1.235 . S
C41 C43 1.400 . S
C41 N44 1.351 . S
C41 C46 1.501 . S
C42 C43 1.387 . S
C42 N45 1.341 . S
C43 C41 1.400 . S
C43 C42 1.387 . S
N44 Co35 2.022 . S
N44 C41 1.351 . S
N44 N45 1.365 . S
N45 C42 1.341 . S
N45 N44 1.365 . S
N45 H65 0.862 . S
C46 C41 1.501 . S
C46 H47 0.961 . S
C46 H48 0.961 . S
C46 H49 0.960 . S
H47 C46 0.961 . S
H48 C46 0.961 . S
H49 C46 0.960 . S
C50 N51 1.342 . S
C50 C54 1.401 . S
C50 C55 1.499 . S
N51 Co34 1.989 . S
N51 C50 1.342 . S
N51 N52 1.388 . S
N52 Co35 1.993 . S
N52 N51 1.388 . S
N52 C53 1.346 . S
C53 N52 1.346 . S
C53 C54 1.396 . S
C53 C63 1.510 . S
C54 C50 1.401 . S
C54 C53 1.396 . S
C55 C50 1.499 . S
C55 H56 0.959 . S
C55 H57 0.960 . S
C55 H58 0.961 . S
H56 C55 0.959 . S
H57 C55 0.960 . S
H58 C55 0.961 . S
O59 Co34 1.967 . S
O59 C67 1.258 . S
O60 Co35 1.941 . S
O60 C67 1.266 . S
H61 C63 0.959 . S
H62 C63 0.961 . S
C63 C53 1.510 . S
C63 H61 0.959 . S
C63 H62 0.961 . S
C63 H64 0.960 . S
H64 C63 0.960 . S
H65 N45 0.862 . S
O66 Co34 1.920 1_545 S
O66 C39 1.289 . S
C67 O59 1.258 . S
C67 O60 1.266 . S
Co68 O71 1.970 . S
Co68 N85 1.989 . S
Co68 O93 1.967 . S
Co68 O100 1.920 . S
Co69 O72 1.966 . S
Co69 N78 2.022 . S
Co69 N86 1.993 . S
Co69 O94 1.941 . S
C70 O71 1.258 . S
C70 O72 1.263 . S
O71 Co68 1.970 . S
O71 C70 1.258 . S
O72 Co69 1.966 . S
O72 C70 1.263 . S
C73 O74 1.235 . S
C73 O100 1.289 . S
O74 C73 1.235 . S
C75 C77 1.400 . S
C75 N78 1.351 . S
C75 C80 1.501 . S
C76 C77 1.387 . S
C76 N79 1.341 . S
C77 C75 1.400 . S
C77 C76 1.387 . S
N78 Co69 2.022 . S
N78 C75 1.351 . S
N78 N79 1.365 . S
N79 C76 1.341 . S
N79 N78 1.365 . S
N79 H99 0.862 . S
C80 C75 1.501 . S
C80 H81 0.961 . S
C80 H82 0.961 . S
C80 H83 0.960 1_556 S
H81 C80 0.961 . S
H82 C80 0.961 . S
H83 C80 0.960 1_554 S
C84 N85 1.342 . S
C84 C88 1.401 . S
C84 C89 1.499 . S
N85 Co68 1.989 . S
N85 C84 1.342 . S
N85 N86 1.388 . S
N86 Co69 1.993 . S
N86 N85 1.388 . S
N86 C87 1.346 . S
C87 N86 1.346 . S
C87 C88 1.396 . S
C87 C97 1.510 . S
C88 C84 1.401 . S
C88 C87 1.396 . S
C89 C84 1.499 . S
C89 H90 0.959 . S
C89 H91 0.960 . S
C89 H92 0.961 . S
H90 C89 0.959 . S
H91 C89 0.960 . S
H92 C89 0.961 . S
O93 Co68 1.967 . S
O93 C101 1.258 . S
O94 Co69 1.941 . S
O94 C101 1.266 . S
H95 C97 0.959 . S
H96 C97 0.961 . S
C97 C87 1.510 . S
C97 H95 0.959 . S
C97 H96 0.961 . S
C97 H98 0.960 . S
H98 C97 0.960 . S
H99 N79 0.862 . S
O100 Co68 1.920 . S
O100 C73 1.289 . S
C101 O93 1.258 . S
C101 O94 1.266 . S
Co102 O105 1.970 . S
Co102 N119 1.989 1_554 S
Co102 O127 1.967 . S
Co102 O134 1.920 1_545 S
Co103 O106 1.966 . S
Co103 N112 2.022 . S
Co103 N120 1.993 . S
Co103 O128 1.941 . S
C104 O105 1.258 . S
C104 O106 1.263 . S
O105 Co102 1.970 . S
O105 C104 1.258 . S
O106 Co103 1.966 . S
O106 C104 1.263 . S
C107 O108 1.235 . S
C107 O134 1.289 1_556 S
O108 C107 1.235 . S
C109 C111 1.400 . S
C109 N112 1.351 . S
C109 C114 1.501 . S
C110 C111 1.387 . S
C110 N113 1.341 . S
C111 C109 1.400 . S
C111 C110 1.387 . S
N112 Co103 2.022 . S
N112 C109 1.351 . S
N112 N113 1.365 . S
N113 C110 1.341 . S
N113 N112 1.365 . S
N113 H133 0.862 . S
C114 C109 1.501 . S
C114 H115 0.961 . S
C114 H116 0.961 . S
C114 H117 0.960 . S
H115 C114 0.961 . S
H116 C114 0.961 . S
H117 C114 0.960 . S
C118 N119 1.342 . S
C118 C122 1.401 . S
C118 C123 1.499 . S
N119 Co102 1.989 1_556 S
N119 C118 1.342 . S
N119 N120 1.388 1_556 S
N120 Co103 1.993 . S
N120 N119 1.388 1_554 S
N120 C121 1.346 1_554 S
C121 N120 1.346 1_556 S
C121 C122 1.396 . S
C121 C131 1.510 . S
C122 C118 1.401 . S
C122 C121 1.396 . S
C123 C118 1.499 . S
C123 H124 0.959 . S
C123 H125 0.960 . S
C123 H126 0.961 . S
H124 C123 0.959 . S
H125 C123 0.960 . S
H126 C123 0.961 . S
O127 Co102 1.967 . S
O127 C135 1.258 . S
O128 Co103 1.941 . S
O128 C135 1.266 . S
H129 C131 0.959 . S
H130 C131 0.961 . S
C131 C121 1.510 . S
C131 H129 0.959 . S
C131 H130 0.961 . S
C131 H132 0.960 1_556 S
H132 C131 0.960 1_554 S
H133 N113 0.862 . S
O134 Co102 1.920 1_565 S
O134 C107 1.289 1_554 S
C135 O127 1.258 . S
C135 O128 1.266 . S
Co136 O139 1.970 . S
Co136 N153 1.989 . S
Co136 O161 1.967 . S
Co136 O168 1.920 . S
Co137 O140 1.966 . S
Co137 N146 2.022 . S
Co137 N154 1.993 . S
Co137 O162 1.941 . S
C138 O139 1.258 . S
C138 O140 1.263 . S
O139 Co136 1.970 . S
O139 C138 1.258 . S
O140 Co137 1.966 . S
O140 C138 1.263 . S
C141 O142 1.235 . S
C141 O168 1.289 . S
O142 C141 1.235 . S
C143 C145 1.400 . S
C143 N146 1.351 . S
C143 C148 1.501 . S
C144 C145 1.387 . S
C144 N147 1.341 . S
C145 C143 1.400 . S
C145 C144 1.387 . S
N146 Co137 2.022 . S
N146 C143 1.351 . S
N146 N147 1.365 . S
N147 C144 1.341 . S
N147 N146 1.365 . S
N147 H167 0.862 . S
C148 C143 1.501 . S
C148 H149 0.961 . S
C148 H150 0.961 . S
C148 H151 0.960 1_554 S
H149 C148 0.961 . S
H150 C148 0.961 . S
H151 C148 0.960 1_556 S
C152 N153 1.342 . S
C152 C156 1.401 . S
C152 C157 1.499 . S
N153 Co136 1.989 . S
N153 C152 1.342 . S
N153 N154 1.388 . S
N154 Co137 1.993 . S
N154 N153 1.388 . S
N154 C155 1.346 . S
C155 N154 1.346 . S
C155 C156 1.396 . S
C155 C165 1.510 . S
C156 C152 1.401 . S
C156 C155 1.396 . S
C157 C152 1.499 . S
C157 H158 0.959 . S
C157 H159 0.960 . S
C157 H160 0.961 . S
H158 C157 0.959 . S
H159 C157 0.960 . S
H160 C157 0.961 . S
O161 Co136 1.967 . S
O161 C169 1.258 . S
O162 Co137 1.941 . S
O162 C169 1.266 . S
H163 C165 0.959 . S
H164 C165 0.961 . S
C165 C155 1.510 . S
C165 H163 0.959 . S
C165 H164 0.961 . S
C165 H166 0.960 . S
H166 C165 0.960 . S
H167 N147 0.862 . S
O168 Co136 1.920 . S
O168 C141 1.289 . S
C169 O161 1.258 . S
C169 O162 1.266 . S
Co170 O173 1.970 . S
Co170 N187 1.989 . S
Co170 O195 1.967 . S
Co170 O202 1.920 1_565 S
Co171 O174 1.966 . S
Co171 N180 2.022 . S
Co171 N188 1.993 . S
Co171 O196 1.941 . S
C172 O173 1.258 . S
C172 O174 1.263 . S
O173 Co170 1.970 . S
O173 C172 1.258 . S
O174 Co171 1.966 . S
O174 C172 1.263 . S
C175 O176 1.235 . S
C175 O202 1.289 . S
O176 C175 1.235 . S
C177 C179 1.400 . S
C177 N180 1.351 . S
C177 C182 1.501 . S
C178 C179 1.387 . S
C178 N181 1.341 . S
C179 C177 1.400 . S
C179 C178 1.387 . S
N180 Co171 2.022 . S
N180 C177 1.351 . S
N180 N181 1.365 . S
N181 C178 1.341 . S
N181 N180 1.365 . S
N181 H201 0.862 . S
C182 C177 1.501 . S
C182 H183 0.961 . S
C182 H184 0.961 . S
C182 H185 0.960 . S
H183 C182 0.961 . S
H184 C182 0.961 . S
H185 C182 0.960 . S
C186 N187 1.342 . S
C186 C190 1.401 . S
C186 C191 1.499 . S
N187 Co170 1.989 . S
N187 C186 1.342 . S
N187 N188 1.388 . S
N188 Co171 1.993 . S
N188 N187 1.388 . S
N188 C189 1.346 . S
C189 N188 1.346 . S
C189 C190 1.396 . S
C189 C199 1.510 . S
C190 C186 1.401 . S
C190 C189 1.396 . S
C191 C186 1.499 . S
C191 H192 0.959 . S
C191 H193 0.960 . S
C191 H194 0.961 . S
H192 C191 0.959 . S
H193 C191 0.960 . S
H194 C191 0.961 . S
O195 Co170 1.967 . S
O195 C203 1.258 . S
O196 Co171 1.941 . S
O196 C203 1.266 . S
H197 C199 0.959 . S
H198 C199 0.961 . S
C199 C189 1.510 . S
C199 H197 0.959 . S
C199 H198 0.961 . S
C199 H200 0.960 . S
H200 C199 0.960 . S
H201 N181 0.862 . S
O202 Co170 1.920 1_545 S
O202 C175 1.289 . S
C203 O195 1.258 . S
C203 O196 1.266 . S
Co204 O207 1.970 . S
Co204 N221 1.989 . S
Co204 O229 1.967 . S
Co204 O236 1.920 . S
Co205 O208 1.966 . S
Co205 N214 2.022 . S
Co205 N222 1.993 . S
Co205 O230 1.941 . S
C206 O207 1.258 . S
C206 O208 1.263 . S
O207 Co204 1.970 . S
O207 C206 1.258 . S
O208 Co205 1.966 . S
O208 C206 1.263 . S
C209 O210 1.235 . S
C209 O236 1.289 . S
O210 C209 1.235 . S
C211 C213 1.400 . S
C211 N214 1.351 . S
C211 C216 1.501 . S
C212 C213 1.387 . S
C212 N215 1.341 . S
C213 C211 1.400 . S
C213 C212 1.387 . S
N214 Co205 2.022 . S
N214 C211 1.351 . S
N214 N215 1.365 . S
N215 C212 1.341 . S
N215 N214 1.365 . S
N215 H235 0.862 . S
C216 C211 1.501 . S
C216 H217 0.961 . S
C216 H218 0.961 . S
C216 H219 0.960 . S
H217 C216 0.961 . S
H218 C216 0.961 . S
H219 C216 0.960 . S
C220 N221 1.342 . S
C220 C224 1.401 . S
C220 C225 1.499 . S
N221 Co204 1.989 . S
N221 C220 1.342 . S
N221 N222 1.388 . S
N222 Co205 1.993 . S
N222 N221 1.388 . S
N222 C223 1.346 . S
C223 N222 1.346 . S
C223 C224 1.396 . S
C223 C233 1.510 . S
C224 C220 1.401 . S
C224 C223 1.396 . S
C225 C220 1.499 . S
C225 H226 0.959 . S
C225 H227 0.960 . S
C225 H228 0.961 . S
H226 C225 0.959 . S
H227 C225 0.960 . S
H228 C225 0.961 . S
O229 Co204 1.967 . S
O229 C237 1.258 . S
O230 Co205 1.941 . S
O230 C237 1.266 . S
H231 C233 0.959 . S
H232 C233 0.961 . S
C233 C223 1.510 . S
C233 H231 0.959 . S
C233 H232 0.961 . S
C233 H234 0.960 . S
H234 C233 0.960 . S
H235 N215 0.862 . S
O236 Co204 1.920 . S
O236 C209 1.289 . S
C237 O229 1.258 . S
C237 O230 1.266 . S
Co238 O241 1.970 . S
Co238 N255 1.989 1_556 S
Co238 O263 1.967 . S
Co238 O270 1.920 1_545 S
Co239 O242 1.966 . S
Co239 N248 2.022 . S
Co239 N256 1.993 . S
Co239 O264 1.941 . S
C240 O241 1.258 . S
C240 O242 1.263 . S
O241 Co238 1.970 . S
O241 C240 1.258 . S
O242 Co239 1.966 . S
O242 C240 1.263 . S
C243 O244 1.235 . S
C243 O270 1.289 1_554 S
O244 C243 1.235 . S
C245 C247 1.400 . S
C245 N248 1.351 . S
C245 C250 1.501 . S
C246 C247 1.387 . S
C246 N249 1.341 . S
C247 C245 1.400 . S
C247 C246 1.387 . S
N248 Co239 2.022 . S
N248 C245 1.351 . S
N248 N249 1.365 . S
N249 C246 1.341 . S
N249 N248 1.365 . S
N249 H269 0.862 . S
C250 C245 1.501 . S
C250 H251 0.961 . S
C250 H252 0.961 . S
C250 H253 0.960 . S
H251 C250 0.961 . S
H252 C250 0.961 . S
H253 C250 0.960 . S
C254 N255 1.342 . S
C254 C258 1.401 . S
C254 C259 1.499 . S
N255 Co238 1.989 1_554 S
N255 C254 1.342 . S
N255 N256 1.388 1_554 S
N256 Co239 1.993 . S
N256 N255 1.388 1_556 S
N256 C257 1.346 1_556 S
C257 N256 1.346 1_554 S
C257 C258 1.396 . S
C257 C267 1.510 . S
C258 C254 1.401 . S
C258 C257 1.396 . S
C259 C254 1.499 . S
C259 H260 0.959 . S
C259 H261 0.960 . S
C259 H262 0.961 . S
H260 C259 0.959 . S
H261 C259 0.960 . S
H262 C259 0.961 . S
O263 Co238 1.967 . S
O263 C271 1.258 . S
O264 Co239 1.941 . S
O264 C271 1.266 . S
H265 C267 0.959 . S
H266 C267 0.961 . S
C267 C257 1.510 . S
C267 H265 0.959 . S
C267 H266 0.961 . S
C267 H268 0.960 1_554 S
H268 C267 0.960 1_556 S
H269 N249 0.862 . S
O270 Co238 1.920 1_565 S
O270 C243 1.289 1_556 S
C271 O263 1.258 . S
C271 O264 1.266 . S
Co272 O275 1.970 . S
Co272 N289 1.989 . S
Co272 O297 1.967 . S
Co272 O304 1.920 . S
Co273 O276 1.966 . S
Co273 N282 2.022 . S
Co273 N290 1.993 . S
Co273 O298 1.941 . S
C274 O275 1.258 . S
C274 O276 1.263 . S
O275 Co272 1.970 . S
O275 C274 1.258 . S
O276 Co273 1.966 . S
O276 C274 1.263 . S
C277 O278 1.235 . S
C277 O304 1.289 . S
O278 C277 1.235 . S
C279 C281 1.400 . S
C279 N282 1.351 . S
C279 C284 1.501 . S
C280 C281 1.387 . S
C280 N283 1.341 . S
C281 C279 1.400 . S
C281 C280 1.387 . S
N282 Co273 2.022 . S
N282 C279 1.351 . S
N282 N283 1.365 . S
N283 C280 1.341 . S
N283 N282 1.365 . S
N283 H303 0.862 . S
C284 C279 1.501 . S
C284 H285 0.961 . S
C284 H286 0.961 . S
C284 H287 0.960 . S
H285 C284 0.961 . S
H286 C284 0.961 . S
H287 C284 0.960 . S
C288 N289 1.342 . S
C288 C292 1.401 . S
C288 C293 1.499 . S
N289 Co272 1.989 . S
N289 C288 1.342 . S
N289 N290 1.388 . S
N290 Co273 1.993 . S
N290 N289 1.388 . S
N290 C291 1.346 . S
C291 N290 1.346 . S
C291 C292 1.396 . S
C291 C301 1.510 . S
C292 C288 1.401 . S
C292 C291 1.396 . S
C293 C288 1.499 . S
C293 H294 0.959 . S
C293 H295 0.960 . S
C293 H296 0.961 . S
H294 C293 0.959 . S
H295 C293 0.960 . S
H296 C293 0.961 . S
O297 Co272 1.967 . S
O297 C305 1.258 . S
O298 Co273 1.941 . S
O298 C305 1.266 . S
H299 C301 0.959 . S
H300 C301 0.961 . S
C301 C291 1.510 . S
C301 H299 0.959 . S
C301 H300 0.961 . S
C301 H302 0.960 . S
H302 C301 0.960 . S
H303 N283 0.862 . S
O304 Co272 1.920 . S
O304 C277 1.289 . S
C305 O297 1.258 . S
C305 O298 1.266 . S
Co306 O309 1.970 . S
Co306 N323 1.989 . S
Co306 O331 1.967 . S
Co306 O338 1.920 1_545 S
Co307 O310 1.966 . S
Co307 N316 2.022 . S
Co307 N324 1.993 . S
Co307 O332 1.941 . S
C308 O309 1.258 . S
C308 O310 1.263 . S
O309 Co306 1.970 . S
O309 C308 1.258 . S
O310 Co307 1.966 . S
O310 C308 1.263 . S
C311 O312 1.235 . S
C311 O338 1.289 . S
O312 C311 1.235 . S
C313 C315 1.400 . S
C313 N316 1.351 . S
C313 C318 1.501 . S
C314 C315 1.387 . S
C314 N317 1.341 . S
C315 C313 1.400 . S
C315 C314 1.387 . S
N316 Co307 2.022 . S
N316 C313 1.351 . S
N316 N317 1.365 . S
N317 C314 1.341 . S
N317 N316 1.365 . S
N317 H337 0.862 . S
C318 C313 1.501 . S
C318 H319 0.961 . S
C318 H320 0.961 . S
C318 H321 0.960 . S
H319 C318 0.961 . S
H320 C318 0.961 . S
H321 C318 0.960 . S
C322 N323 1.342 . S
C322 C326 1.401 . S
C322 C327 1.499 . S
N323 Co306 1.989 . S
N323 C322 1.342 . S
N323 N324 1.388 . S
N324 Co307 1.993 . S
N324 N323 1.388 . S
N324 C325 1.346 . S
C325 N324 1.346 . S
C325 C326 1.396 . S
C325 C335 1.510 . S
C326 C322 1.401 . S
C326 C325 1.396 . S
C327 C322 1.499 . S
C327 H328 0.959 . S
C327 H329 0.960 . S
C327 H330 0.961 . S
H328 C327 0.959 . S
H329 C327 0.960 . S
H330 C327 0.961 . S
O331 Co306 1.967 . S
O331 C339 1.258 . S
O332 Co307 1.941 . S
O332 C339 1.266 . S
H333 C335 0.959 . S
H334 C335 0.961 . S
C335 C325 1.510 . S
C335 H333 0.959 . S
C335 H334 0.961 . S
C335 H336 0.960 . S
H336 C335 0.960 . S
H337 N317 0.862 . S
O338 Co306 1.920 1_565 S
O338 C311 1.289 . S
C339 O331 1.258 . S
C339 O332 1.266 . S
Co340 O343 1.970 . S
Co340 N357 1.989 . S
Co340 O365 1.967 . S
Co340 O372 1.920 . S
Co341 O344 1.966 . S
Co341 N350 2.022 . S
Co341 N358 1.993 . S
Co341 O366 1.941 . S
C342 O343 1.258 . S
C342 O344 1.263 . S
O343 Co340 1.970 . S
O343 C342 1.258 . S
O344 Co341 1.966 . S
O344 C342 1.263 . S
C345 O346 1.235 . S
C345 O372 1.289 . S
O346 C345 1.235 . S
C347 C349 1.400 . S
C347 N350 1.351 . S
C347 C352 1.501 . S
C348 C349 1.387 . S
C348 N351 1.341 . S
C349 C347 1.400 . S
C349 C348 1.387 . S
N350 Co341 2.022 . S
N350 C347 1.351 . S
N350 N351 1.365 . S
N351 C348 1.341 . S
N351 N350 1.365 . S
N351 H371 0.862 . S
C352 C347 1.501 . S
C352 H353 0.961 . S
C352 H354 0.961 . S
C352 H355 0.960 1_554 S
H353 C352 0.961 . S
H354 C352 0.961 . S
H355 C352 0.960 1_556 S
C356 N357 1.342 . S
C356 C360 1.401 . S
C356 C361 1.499 . S
N357 Co340 1.989 . S
N357 C356 1.342 . S
N357 N358 1.388 . S
N358 Co341 1.993 . S
N358 N357 1.388 . S
N358 C359 1.346 . S
C359 N358 1.346 . S
C359 C360 1.396 . S
C359 C369 1.510 . S
C360 C356 1.401 . S
C360 C359 1.396 . S
C361 C356 1.499 . S
C361 H362 0.959 . S
C361 H363 0.960 . S
C361 H364 0.961 . S
H362 C361 0.959 . S
H363 C361 0.960 . S
H364 C361 0.961 . S
O365 Co340 1.967 . S
O365 C373 1.258 . S
O366 Co341 1.941 . S
O366 C373 1.266 . S
H367 C369 0.959 . S
H368 C369 0.961 . S
C369 C359 1.510 . S
C369 H367 0.959 . S
C369 H368 0.961 . S
C369 H370 0.960 . S
H370 C369 0.960 . S
H371 N351 0.862 . S
O372 Co340 1.920 . S
O372 C345 1.289 . S
C373 O365 1.258 . S
C373 O366 1.266 . S
Co374 O377 1.970 . S
Co374 N391 1.989 1_556 S
Co374 O399 1.967 . S
Co374 O406 1.920 1_565 S
Co375 O378 1.966 . S
Co375 N384 2.022 . S
Co375 N392 1.993 . S
Co375 O400 1.941 . S
C376 O377 1.258 . S
C376 O378 1.263 . S
O377 Co374 1.970 . S
O377 C376 1.258 . S
O378 Co375 1.966 . S
O378 C376 1.263 . S
C379 O380 1.235 . S
C379 O406 1.289 1_554 S
O380 C379 1.235 . S
C381 C383 1.400 . S
C381 N384 1.351 . S
C381 C386 1.501 . S
C382 C383 1.387 . S
C382 N385 1.341 . S
C383 C381 1.400 . S
C383 C382 1.387 . S
N384 Co375 2.022 . S
N384 C381 1.351 . S
N384 N385 1.365 . S
N385 C382 1.341 . S
N385 N384 1.365 . S
N385 H405 0.862 . S
C386 C381 1.501 . S
C386 H387 0.961 . S
C386 H388 0.961 . S
C386 H389 0.960 . S
H387 C386 0.961 . S
H388 C386 0.961 . S
H389 C386 0.960 . S
C390 N391 1.342 . S
C390 C394 1.401 . S
C390 C395 1.499 . S
N391 Co374 1.989 1_554 S
N391 C390 1.342 . S
N391 N392 1.388 1_554 S
N392 Co375 1.993 . S
N392 N391 1.388 1_556 S
N392 C393 1.346 1_556 S
C393 N392 1.346 1_554 S
C393 C394 1.396 . S
C393 C403 1.510 . S
C394 C390 1.401 . S
C394 C393 1.396 . S
C395 C390 1.499 . S
C395 H396 0.959 . S
C395 H397 0.960 . S
C395 H398 0.961 . S
H396 C395 0.959 . S
H397 C395 0.960 . S
H398 C395 0.961 . S
O399 Co374 1.967 . S
O399 C407 1.258 . S
O400 Co375 1.941 . S
O400 C407 1.266 . S
H401 C403 0.959 . S
H402 C403 0.961 . S
C403 C393 1.510 . S
C403 H401 0.959 . S
C403 H402 0.961 . S
C403 H404 0.960 1_554 S
H404 C403 0.960 1_556 S
H405 N385 0.862 . S
O406 Co374 1.920 1_545 S
O406 C379 1.289 1_556 S
C407 O399 1.258 . S
C407 O400 1.266 . S
Co408 O411 1.970 . S
Co408 N425 1.989 . S
Co408 O433 1.967 . S
Co408 O440 1.920 . S
Co409 O412 1.966 . S
Co409 N418 2.022 . S
Co409 N426 1.993 . S
Co409 O434 1.941 . S
C410 O411 1.258 . S
C410 O412 1.263 . S
O411 Co408 1.970 . S
O411 C410 1.258 . S
O412 Co409 1.966 . S
O412 C410 1.263 . S
C413 O414 1.235 . S
C413 O440 1.289 . S
O414 C413 1.235 . S
C415 C417 1.400 . S
C415 N418 1.351 . S
C415 C420 1.501 . S
C416 C417 1.387 . S
C416 N419 1.341 . S
C417 C415 1.400 . S
C417 C416 1.387 . S
N418 Co409 2.022 . S
N418 C415 1.351 . S
N418 N419 1.365 . S
N419 C416 1.341 . S
N419 N418 1.365 . S
N419 H439 0.862 . S
C420 C415 1.501 . S
C420 H421 0.961 . S
C420 H422 0.961 . S
C420 H423 0.960 1_556 S
H421 C420 0.961 . S
H422 C420 0.961 . S
H423 C420 0.960 1_554 S
C424 N425 1.342 . S
C424 C428 1.401 . S
C424 C429 1.499 . S
N425 Co408 1.989 . S
N425 C424 1.342 . S
N425 N426 1.388 . S
N426 Co409 1.993 . S
N426 N425 1.388 . S
N426 C427 1.346 . S
C427 N426 1.346 . S
C427 C428 1.396 . S
C427 C437 1.510 . S
C428 C424 1.401 . S
C428 C427 1.396 . S
C429 C424 1.499 . S
C429 H430 0.959 . S
C429 H431 0.960 . S
C429 H432 0.961 . S
H430 C429 0.959 . S
H431 C429 0.960 . S
H432 C429 0.961 . S
O433 Co408 1.967 . S
O433 C441 1.258 . S
O434 Co409 1.941 . S
O434 C441 1.266 . S
H435 C437 0.959 . S
H436 C437 0.961 . S
C437 C427 1.510 . S
C437 H435 0.959 . S
C437 H436 0.961 . S
C437 H438 0.960 . S
H438 C437 0.960 . S
H439 N419 0.862 . S
O440 Co408 1.920 . S
O440 C413 1.289 . S
C441 O433 1.258 . S
C441 O434 1.266 . S
Co442 O445 1.970 . S
Co442 N459 1.989 . S
Co442 O467 1.967 . S
Co442 O474 1.920 1_545 S
Co443 O446 1.966 . S
Co443 N452 2.022 . S
Co443 N460 1.993 . S
Co443 O468 1.941 . S
C444 O445 1.258 . S
C444 O446 1.263 . S
O445 Co442 1.970 . S
O445 C444 1.258 . S
O446 Co443 1.966 . S
O446 C444 1.263 . S
C447 O448 1.235 . S
C447 O474 1.289 . S
O448 C447 1.235 . S
C449 C451 1.400 . S
C449 N452 1.351 . S
C449 C454 1.501 . S
C450 C451 1.387 . S
C450 N453 1.341 . S
C451 C449 1.400 . S
C451 C450 1.387 . S
N452 Co443 2.022 . S
N452 C449 1.351 . S
N452 N453 1.365 . S
N453 C450 1.341 . S
N453 N452 1.365 . S
N453 H473 0.862 . S
C454 C449 1.501 . S
C454 H455 0.961 . S
C454 H456 0.961 . S
C454 H457 0.960 . S
H455 C454 0.961 . S
H456 C454 0.961 . S
H457 C454 0.960 . S
C458 N459 1.342 . S
C458 C462 1.401 . S
C458 C463 1.499 . S
N459 Co442 1.989 . S
N459 C458 1.342 . S
N459 N460 1.388 . S
N460 Co443 1.993 . S
N460 N459 1.388 . S
N460 C461 1.346 . S
C461 N460 1.346 . S
C461 C462 1.396 . S
C461 C471 1.510 . S
C462 C458 1.401 . S
C462 C461 1.396 . S
C463 C458 1.499 . S
C463 H464 0.959 . S
C463 H465 0.960 . S
C463 H466 0.961 . S
H464 C463 0.959 . S
H465 C463 0.960 . S
H466 C463 0.961 . S
O467 Co442 1.967 . S
O467 C475 1.258 . S
O468 Co443 1.941 . S
O468 C475 1.266 . S
H469 C471 0.959 . S
H470 C471 0.961 . S
C471 C461 1.510 . S
C471 H469 0.959 . S
C471 H470 0.961 . S
C471 H472 0.960 . S
H472 C471 0.960 . S
H473 N453 0.862 . S
O474 Co442 1.920 1_565 S
O474 C447 1.289 . S
C475 O467 1.258 . S
C475 O468 1.266 . S
Co476 O479 1.970 . S
Co476 N493 1.989 . S
Co476 O501 1.967 . S
Co476 O508 1.920 . S
Co477 O480 1.966 . S
Co477 N486 2.022 . S
Co477 N494 1.993 . S
Co477 O502 1.941 . S
C478 O479 1.258 . S
C478 O480 1.263 . S
O479 Co476 1.970 . S
O479 C478 1.258 . S
O480 Co477 1.966 . S
O480 C478 1.263 . S
C481 O482 1.235 . S
C481 O508 1.289 . S
O482 C481 1.235 . S
C483 C485 1.400 . S
C483 N486 1.351 . S
C483 C488 1.501 . S
C484 C485 1.387 . S
C484 N487 1.341 . S
C485 C483 1.400 . S
C485 C484 1.387 . S
N486 Co477 2.022 . S
N486 C483 1.351 . S
N486 N487 1.365 . S
N487 C484 1.341 . S
N487 N486 1.365 . S
N487 H507 0.862 . S
C488 C483 1.501 . S
C488 H489 0.961 . S
C488 H490 0.961 . S
C488 H491 0.960 . S
H489 C488 0.961 . S
H490 C488 0.961 . S
H491 C488 0.960 . S
C492 N493 1.342 . S
C492 C496 1.401 . S
C492 C497 1.499 . S
N493 Co476 1.989 . S
N493 C492 1.342 . S
N493 N494 1.388 . S
N494 Co477 1.993 . S
N494 N493 1.388 . S
N494 C495 1.346 . S
C495 N494 1.346 . S
C495 C496 1.396 . S
C495 C505 1.510 . S
C496 C492 1.401 . S
C496 C495 1.396 . S
C497 C492 1.499 . S
C497 H498 0.959 . S
C497 H499 0.960 . S
C497 H500 0.961 . S
H498 C497 0.959 . S
H499 C497 0.960 . S
H500 C497 0.961 . S
O501 Co476 1.967 . S
O501 C509 1.258 . S
O502 Co477 1.941 . S
O502 C509 1.266 . S
H503 C505 0.959 . S
H504 C505 0.961 . S
C505 C495 1.510 . S
C505 H503 0.959 . S
C505 H504 0.961 . S
C505 H506 0.960 . S
H506 C505 0.960 . S
H507 N487 0.862 . S
O508 Co476 1.920 . S
O508 C481 1.289 . S
C509 O501 1.258 . S
C509 O502 1.266 . S
Co510 O513 1.970 . S
Co510 N527 1.989 1_554 S
Co510 O535 1.967 . S
Co510 O542 1.920 1_565 S
Co511 O514 1.966 . S
Co511 N520 2.022 . S
Co511 N528 1.993 . S
Co511 O536 1.941 . S
C512 O513 1.258 . S
C512 O514 1.263 . S
O513 Co510 1.970 . S
O513 C512 1.258 . S
O514 Co511 1.966 . S
O514 C512 1.263 . S
C515 O516 1.235 . S
C515 O542 1.289 1_556 S
O516 C515 1.235 . S
C517 C519 1.400 . S
C517 N520 1.351 . S
C517 C522 1.501 . S
C518 C519 1.387 . S
C518 N521 1.341 . S
C519 C517 1.400 . S
C519 C518 1.387 . S
N520 Co511 2.022 . S
N520 C517 1.351 . S
N520 N521 1.365 . S
N521 C518 1.341 . S
N521 N520 1.365 . S
N521 H541 0.862 . S
C522 C517 1.501 . S
C522 H523 0.961 . S
C522 H524 0.961 . S
C522 H525 0.960 . S
H523 C522 0.961 . S
H524 C522 0.961 . S
H525 C522 0.960 . S
C526 N527 1.342 . S
C526 C530 1.401 . S
C526 C531 1.499 . S
N527 Co510 1.989 1_556 S
N527 C526 1.342 . S
N527 N528 1.388 1_556 S
N528 Co511 1.993 . S
N528 N527 1.388 1_554 S
N528 C529 1.346 1_554 S
C529 N528 1.346 1_556 S
C529 C530 1.396 . S
C529 C539 1.510 . S
C530 C526 1.401 . S
C530 C529 1.396 . S
C531 C526 1.499 . S
C531 H532 0.959 . S
C531 H533 0.960 . S
C531 H534 0.961 . S
H532 C531 0.959 . S
H533 C531 0.960 . S
H534 C531 0.961 . S
O535 Co510 1.967 . S
O535 C543 1.258 . S
O536 Co511 1.941 . S
O536 C543 1.266 . S
H537 C539 0.959 . S
H538 C539 0.961 . S
C539 C529 1.510 . S
C539 H537 0.959 . S
C539 H538 0.961 . S
C539 H540 0.960 1_556 S
H540 C539 0.960 1_554 S
H541 N521 0.862 . S
O542 Co510 1.920 1_545 S
O542 C515 1.289 1_554 S
C543 O535 1.258 . S
C543 O536 1.266 . S
Co544 O547 1.970 . S
Co544 N561 1.989 . S
Co544 O569 1.967 . S
Co544 O576 1.920 . S
Co545 O548 1.966 . S
Co545 N554 2.022 . S
Co545 N562 1.993 . S
Co545 O570 1.941 . S
C546 O547 1.258 . S
C546 O548 1.263 . S
O547 Co544 1.970 . S
O547 C546 1.258 . S
O548 Co545 1.966 . S
O548 C546 1.263 . S
C549 O550 1.235 . S
C549 O576 1.289 . S
O550 C549 1.235 . S
C551 C553 1.400 . S
C551 N554 1.351 . S
C551 C556 1.501 . S
C552 C553 1.387 . S
C552 N555 1.341 . S
C553 C551 1.400 . S
C553 C552 1.387 . S
N554 Co545 2.022 . S
N554 C551 1.351 . S
N554 N555 1.365 . S
N555 C552 1.341 . S
N555 N554 1.365 . S
N555 H575 0.862 . S
C556 C551 1.501 . S
C556 H557 0.961 . S
C556 H558 0.961 . S
C556 H559 0.960 1_556 S
H557 C556 0.961 . S
H558 C556 0.961 . S
H559 C556 0.960 1_554 S
C560 N561 1.342 . S
C560 C564 1.401 . S
C560 C565 1.499 . S
N561 Co544 1.989 . S
N561 C560 1.342 . S
N561 N562 1.388 . S
N562 Co545 1.993 . S
N562 N561 1.388 . S
N562 C563 1.346 . S
C563 N562 1.346 . S
C563 C564 1.396 . S
C563 C573 1.510 . S
C564 C560 1.401 . S
C564 C563 1.396 . S
C565 C560 1.499 . S
C565 H566 0.959 . S
C565 H567 0.960 . S
C565 H568 0.961 . S
H566 C565 0.959 . S
H567 C565 0.960 . S
H568 C565 0.961 . S
O569 Co544 1.967 . S
O569 C577 1.258 . S
O570 Co545 1.941 . S
O570 C577 1.266 . S
H571 C573 0.959 . S
H572 C573 0.961 . S
C573 C563 1.510 . S
C573 H571 0.959 . S
C573 H572 0.961 . S
C573 H574 0.960 . S
H574 C573 0.960 . S
H575 N555 0.862 . S
O576 Co544 1.920 . S
O576 C549 1.289 . S
C577 O569 1.258 . S
C577 O570 1.266 . S
Co578 O581 1.970 . S
Co578 N595 1.989 1_554 S
Co578 O603 1.967 . S
Co578 O610 1.920 . S
Co579 O582 1.966 . S
Co579 N588 2.022 . S
Co579 N596 1.993 . S
Co579 O604 1.941 . S
C580 O581 1.258 . S
C580 O582 1.263 . S
O581 Co578 1.970 . S
O581 C580 1.258 . S
O582 Co579 1.966 . S
O582 C580 1.263 . S
C583 O584 1.235 . S
C583 O610 1.289 1_556 S
O584 C583 1.235 . S
C585 C587 1.400 . S
C585 N588 1.351 . S
C585 C590 1.501 . S
C586 C587 1.387 . S
C586 N589 1.341 . S
C587 C585 1.400 . S
C587 C586 1.387 . S
N588 Co579 2.022 . S
N588 C585 1.351 . S
N588 N589 1.365 . S
N589 C586 1.341 . S
N589 N588 1.365 . S
N589 H609 0.862 . S
C590 C585 1.501 . S
C590 H591 0.961 . S
C590 H592 0.961 . S
C590 H593 0.960 . S
H591 C590 0.961 . S
H592 C590 0.961 . S
H593 C590 0.960 . S
C594 N595 1.342 . S
C594 C598 1.401 . S
C594 C599 1.499 . S
N595 Co578 1.989 1_556 S
N595 C594 1.342 . S
N595 N596 1.388 1_556 S
N596 Co579 1.993 . S
N596 N595 1.388 1_554 S
N596 C597 1.346 1_554 S
C597 N596 1.346 1_556 S
C597 C598 1.396 . S
C597 C607 1.510 . S
C598 C594 1.401 . S
C598 C597 1.396 . S
C599 C594 1.499 . S
C599 H600 0.959 . S
C599 H601 0.960 . S
C599 H602 0.961 . S
H600 C599 0.959 . S
H601 C599 0.960 . S
H602 C599 0.961 . S
O603 Co578 1.967 . S
O603 C611 1.258 . S
O604 Co579 1.941 . S
O604 C611 1.266 . S
H605 C607 0.959 . S
H606 C607 0.961 . S
C607 C597 1.510 . S
C607 H605 0.959 . S
C607 H606 0.961 . S
C607 H608 0.960 1_556 S
H608 C607 0.960 1_554 S
H609 N589 0.862 . S
O610 Co578 1.920 . S
O610 C583 1.289 1_554 S
C611 O603 1.258 . S
C611 O604 1.266 . S
Co612 O615 1.970 . S
Co612 N629 1.989 . S
Co612 O637 1.967 . S
Co612 O644 1.920 . S
Co613 O616 1.966 . S
Co613 N622 2.022 . S
Co613 N630 1.993 . S
Co613 O638 1.941 . S
C614 O615 1.258 . S
C614 O616 1.263 . S
O615 Co612 1.970 . S
O615 C614 1.258 . S
O616 Co613 1.966 . S
O616 C614 1.263 . S
C617 O618 1.235 . S
C617 O644 1.289 . S
O618 C617 1.235 . S
C619 C621 1.400 . S
C619 N622 1.351 . S
C619 C624 1.501 . S
C620 C621 1.387 . S
C620 N623 1.341 . S
C621 C619 1.400 . S
C621 C620 1.387 . S
N622 Co613 2.022 . S
N622 C619 1.351 . S
N622 N623 1.365 . S
N623 C620 1.341 . S
N623 N622 1.365 . S
N623 H643 0.862 . S
C624 C619 1.501 . S
C624 H625 0.961 . S
C624 H626 0.961 . S
C624 H627 0.960 . S
H625 C624 0.961 . S
H626 C624 0.961 . S
H627 C624 0.960 . S
C628 N629 1.342 . S
C628 C632 1.401 . S
C628 C633 1.499 . S
N629 Co612 1.989 . S
N629 C628 1.342 . S
N629 N630 1.388 . S
N630 Co613 1.993 . S
N630 N629 1.388 . S
N630 C631 1.346 . S
C631 N630 1.346 . S
C631 C632 1.396 . S
C631 C641 1.510 . S
C632 C628 1.401 . S
C632 C631 1.396 . S
C633 C628 1.499 . S
C633 H634 0.959 . S
C633 H635 0.960 . S
C633 H636 0.961 . S
H634 C633 0.959 . S
H635 C633 0.960 . S
H636 C633 0.961 . S
O637 Co612 1.967 . S
O637 C645 1.258 . S
O638 Co613 1.941 . S
O638 C645 1.266 . S
H639 C641 0.959 . S
H640 C641 0.961 . S
C641 C631 1.510 . S
C641 H639 0.959 . S
C641 H640 0.961 . S
C641 H642 0.960 . S
H642 C641 0.960 . S
H643 N623 0.862 . S
O644 Co612 1.920 . S
O644 C617 1.289 . S
C645 O637 1.258 . S
C645 O638 1.266 . S
Co646 O649 1.970 . S
Co646 N663 1.989 . S
Co646 O671 1.967 . S
Co646 O678 1.920 . S
Co647 O650 1.966 . S
Co647 N656 2.022 . S
Co647 N664 1.993 . S
Co647 O672 1.941 . S
C648 O649 1.258 . S
C648 O650 1.263 . S
O649 Co646 1.970 . S
O649 C648 1.258 . S
O650 Co647 1.966 . S
O650 C648 1.263 . S
C651 O652 1.235 . S
C651 O678 1.289 . S
O652 C651 1.235 . S
C653 C655 1.400 . S
C653 N656 1.351 . S
C653 C658 1.501 . S
C654 C655 1.387 . S
C654 N657 1.341 . S
C655 C653 1.400 . S
C655 C654 1.387 . S
N656 Co647 2.022 . S
N656 C653 1.351 . S
N656 N657 1.365 . S
N657 C654 1.341 . S
N657 N656 1.365 . S
N657 H677 0.862 . S
C658 C653 1.501 . S
C658 H659 0.961 . S
C658 H660 0.961 . S
C658 H661 0.960 . S
H659 C658 0.961 . S
H660 C658 0.961 . S
H661 C658 0.960 . S
C662 N663 1.342 . S
C662 C666 1.401 . S
C662 C667 1.499 . S
N663 Co646 1.989 . S
N663 C662 1.342 . S
N663 N664 1.388 . S
N664 Co647 1.993 . S
N664 N663 1.388 . S
N664 C665 1.346 . S
C665 N664 1.346 . S
C665 C666 1.396 . S
C665 C675 1.510 . S
C666 C662 1.401 . S
C666 C665 1.396 . S
C667 C662 1.499 . S
C667 H668 0.959 . S
C667 H669 0.960 . S
C667 H670 0.961 . S
H668 C667 0.959 . S
H669 C667 0.960 . S
H670 C667 0.961 . S
O671 Co646 1.967 . S
O671 C679 1.258 . S
O672 Co647 1.941 . S
O672 C679 1.266 . S
H673 C675 0.959 . S
H674 C675 0.961 . S
C675 C665 1.510 . S
C675 H673 0.959 . S
C675 H674 0.961 . S
C675 H676 0.960 . S
H676 C675 0.960 . S
H677 N657 0.862 . S
O678 Co646 1.920 . S
O678 C651 1.289 . S
C679 O671 1.258 . S
C679 O672 1.266 . S
Co680 O683 1.970 . S
Co680 N697 1.989 . S
Co680 O705 1.967 . S
Co680 O712 1.920 . S
Co681 O684 1.966 . S
Co681 N690 2.022 . S
Co681 N698 1.993 . S
Co681 O706 1.941 . S
C682 O683 1.258 . S
C682 O684 1.263 . S
O683 Co680 1.970 . S
O683 C682 1.258 . S
O684 Co681 1.966 . S
O684 C682 1.263 . S
C685 O686 1.235 . S
C685 O712 1.289 . S
O686 C685 1.235 . S
C687 C689 1.400 . S
C687 N690 1.351 . S
C687 C692 1.501 . S
C688 C689 1.387 . S
C688 N691 1.341 . S
C689 C687 1.400 . S
C689 C688 1.387 . S
N690 Co681 2.022 . S
N690 C687 1.351 . S
N690 N691 1.365 . S
N691 C688 1.341 . S
N691 N690 1.365 . S
N691 H711 0.862 . S
C692 C687 1.501 . S
C692 H693 0.961 . S
C692 H694 0.961 . S
C692 H695 0.960 . S
H693 C692 0.961 . S
H694 C692 0.961 . S
H695 C692 0.960 . S
C696 N697 1.342 . S
C696 C700 1.401 . S
C696 C701 1.499 . S
N697 Co680 1.989 . S
N697 C696 1.342 . S
N697 N698 1.388 . S
N698 Co681 1.993 . S
N698 N697 1.388 . S
N698 C699 1.346 . S
C699 N698 1.346 . S
C699 C700 1.396 . S
C699 C709 1.510 . S
C700 C696 1.401 . S
C700 C699 1.396 . S
C701 C696 1.499 . S
C701 H702 0.959 . S
C701 H703 0.960 . S
C701 H704 0.961 . S
H702 C701 0.959 . S
H703 C701 0.960 . S
H704 C701 0.961 . S
O705 Co680 1.967 . S
O705 C713 1.258 . S
O706 Co681 1.941 . S
O706 C713 1.266 . S
H707 C709 0.959 . S
H708 C709 0.961 . S
C709 C699 1.510 . S
C709 H707 0.959 . S
C709 H708 0.961 . S
C709 H710 0.960 . S
H710 C709 0.960 . S
H711 N691 0.862 . S
O712 Co680 1.920 . S
O712 C685 1.289 . S
C713 O705 1.258 . S
C713 O706 1.266 . S
Co714 O717 1.970 . S
Co714 N731 1.989 1_556 S
Co714 O739 1.967 . S
Co714 O746 1.920 . S
Co715 O718 1.966 . S
Co715 N724 2.022 . S
Co715 N732 1.993 . S
Co715 O740 1.941 . S
C716 O717 1.258 . S
C716 O718 1.263 . S
O717 Co714 1.970 . S
O717 C716 1.258 . S
O718 Co715 1.966 . S
O718 C716 1.263 . S
C719 O720 1.235 . S
C719 O746 1.289 1_554 S
O720 C719 1.235 . S
C721 C723 1.400 . S
C721 N724 1.351 . S
C721 C726 1.501 . S
C722 C723 1.387 . S
C722 N725 1.341 . S
C723 C721 1.400 . S
C723 C722 1.387 . S
N724 Co715 2.022 . S
N724 C721 1.351 . S
N724 N725 1.365 . S
N725 C722 1.341 . S
N725 N724 1.365 . S
N725 H745 0.862 . S
C726 C721 1.501 . S
C726 H727 0.961 . S
C726 H728 0.961 . S
C726 H729 0.960 . S
H727 C726 0.961 . S
H728 C726 0.961 . S
H729 C726 0.960 . S
C730 N731 1.342 . S
C730 C734 1.401 . S
C730 C735 1.499 . S
N731 Co714 1.989 1_554 S
N731 C730 1.342 . S
N731 N732 1.388 1_554 S
N732 Co715 1.993 . S
N732 N731 1.388 1_556 S
N732 C733 1.346 1_556 S
C733 N732 1.346 1_554 S
C733 C734 1.396 . S
C733 C743 1.510 . S
C734 C730 1.401 . S
C734 C733 1.396 . S
C735 C730 1.499 . S
C735 H736 0.959 . S
C735 H737 0.960 . S
C735 H738 0.961 . S
H736 C735 0.959 . S
H737 C735 0.960 . S
H738 C735 0.961 . S
O739 Co714 1.967 . S
O739 C747 1.258 . S
O740 Co715 1.941 . S
O740 C747 1.266 . S
H741 C743 0.959 . S
H742 C743 0.961 . S
C743 C733 1.510 . S
C743 H741 0.959 . S
C743 H742 0.961 . S
C743 H744 0.960 1_554 S
H744 C743 0.960 1_556 S
H745 N725 0.862 . S
O746 Co714 1.920 . S
O746 C719 1.289 1_556 S
C747 O739 1.258 . S
C747 O740 1.266 . S
Co748 O751 1.970 . S
Co748 N765 1.989 . S
Co748 O773 1.967 . S
Co748 O780 1.920 . S
Co749 O752 1.966 . S
Co749 N758 2.022 . S
Co749 N766 1.993 . S
Co749 O774 1.941 . S
C750 O751 1.258 . S
C750 O752 1.263 . S
O751 Co748 1.970 . S
O751 C750 1.258 . S
O752 Co749 1.966 . S
O752 C750 1.263 . S
C753 O754 1.235 . S
C753 O780 1.289 . S
O754 C753 1.235 . S
C755 C757 1.400 . S
C755 N758 1.351 . S
C755 C760 1.501 . S
C756 C757 1.387 . S
C756 N759 1.341 . S
C757 C755 1.400 . S
C757 C756 1.387 . S
N758 Co749 2.022 . S
N758 C755 1.351 . S
N758 N759 1.365 . S
N759 C756 1.341 . S
N759 N758 1.365 . S
N759 H779 0.862 . S
C760 C755 1.501 . S
C760 H761 0.961 . S
C760 H762 0.961 . S
C760 H763 0.960 1_554 S
H761 C760 0.961 . S
H762 C760 0.961 . S
H763 C760 0.960 1_556 S
C764 N765 1.342 . S
C764 C768 1.401 . S
C764 C769 1.499 . S
N765 Co748 1.989 . S
N765 C764 1.342 . S
N765 N766 1.388 . S
N766 Co749 1.993 . S
N766 N765 1.388 . S
N766 C767 1.346 . S
C767 N766 1.346 . S
C767 C768 1.396 . S
C767 C777 1.510 . S
C768 C764 1.401 . S
C768 C767 1.396 . S
C769 C764 1.499 . S
C769 H770 0.959 . S
C769 H771 0.960 . S
C769 H772 0.961 . S
H770 C769 0.959 . S
H771 C769 0.960 . S
H772 C769 0.961 . S
O773 Co748 1.967 . S
O773 C781 1.258 . S
O774 Co749 1.941 . S
O774 C781 1.266 . S
H775 C777 0.959 . S
H776 C777 0.961 . S
C777 C767 1.510 . S
C777 H775 0.959 . S
C777 H776 0.961 . S
C777 H778 0.960 . S
H778 C777 0.960 . S
H779 N759 0.862 . S
O780 Co748 1.920 . S
O780 C753 1.289 . S
C781 O773 1.258 . S
C781 O774 1.266 . S
Co782 O785 1.970 . S
Co782 N799 1.989 . S
Co782 O807 1.967 . S
Co782 O814 1.920 . S
Co783 O786 1.966 . S
Co783 N792 2.022 . S
Co783 N800 1.993 . S
Co783 O808 1.941 . S
C784 O785 1.258 . S
C784 O786 1.263 . S
O785 Co782 1.970 . S
O785 C784 1.258 . S
O786 Co783 1.966 . S
O786 C784 1.263 . S
C787 O788 1.235 . S
C787 O814 1.289 . S
O788 C787 1.235 . S
C789 C791 1.400 . S
C789 N792 1.351 . S
C789 C794 1.501 . S
C790 C791 1.387 . S
C790 N793 1.341 . S
C791 C789 1.400 . S
C791 C790 1.387 . S
N792 Co783 2.022 . S
N792 C789 1.351 . S
N792 N793 1.365 . S
N793 C790 1.341 . S
N793 N792 1.365 . S
N793 H813 0.862 . S
C794 C789 1.501 . S
C794 H795 0.961 . S
C794 H796 0.961 . S
C794 H797 0.960 . S
H795 C794 0.961 . S
H796 C794 0.961 . S
H797 C794 0.960 . S
C798 N799 1.342 . S
C798 C802 1.401 . S
C798 C803 1.499 . S
N799 Co782 1.989 . S
N799 C798 1.342 . S
N799 N800 1.388 . S
N800 Co783 1.993 . S
N800 N799 1.388 . S
N800 C801 1.346 . S
C801 N800 1.346 . S
C801 C802 1.396 . S
C801 C811 1.510 . S
C802 C798 1.401 . S
C802 C801 1.396 . S
C803 C798 1.499 . S
C803 H804 0.959 . S
C803 H805 0.960 . S
C803 H806 0.961 . S
H804 C803 0.959 . S
H805 C803 0.960 . S
H806 C803 0.961 . S
O807 Co782 1.967 . S
O807 C815 1.258 . S
O808 Co783 1.941 . S
O808 C815 1.266 . S
H809 C811 0.959 . S
H810 C811 0.961 . S
C811 C801 1.510 . S
C811 H809 0.959 . S
C811 H810 0.961 . S
C811 H812 0.960 . S
H812 C811 0.960 . S
H813 N793 0.862 . S
O814 Co782 1.920 . S
O814 C787 1.289 . S
C815 O807 1.258 . S
C815 O808 1.266 . S
Co816 O819 1.970 . S
Co816 N833 1.989 . S
Co816 O841 1.967 . S
Co816 O848 1.920 . S
Co817 O820 1.966 . S
Co817 N826 2.022 . S
Co817 N834 1.993 . S
Co817 O842 1.941 . S
C818 O819 1.258 . S
C818 O820 1.263 . S
O819 Co816 1.970 . S
O819 C818 1.258 . S
O820 Co817 1.966 . S
O820 C818 1.263 . S
C821 O822 1.235 . S
C821 O848 1.289 . S
O822 C821 1.235 . S
C823 C825 1.400 . S
C823 N826 1.351 . S
C823 C828 1.501 . S
C824 C825 1.387 . S
C824 N827 1.341 . S
C825 C823 1.400 . S
C825 C824 1.387 . S
N826 Co817 2.022 . S
N826 C823 1.351 . S
N826 N827 1.365 . S
N827 C824 1.341 . S
N827 N826 1.365 . S
N827 H847 0.862 . S
C828 C823 1.501 . S
C828 H829 0.961 . S
C828 H830 0.961 . S
C828 H831 0.960 1_554 S
H829 C828 0.961 . S
H830 C828 0.961 . S
H831 C828 0.960 1_556 S
C832 N833 1.342 . S
C832 C836 1.401 . S
C832 C837 1.499 . S
N833 Co816 1.989 . S
N833 C832 1.342 . S
N833 N834 1.388 . S
N834 Co817 1.993 . S
N834 N833 1.388 . S
N834 C835 1.346 . S
C835 N834 1.346 . S
C835 C836 1.396 . S
C835 C845 1.510 . S
C836 C832 1.401 . S
C836 C835 1.396 . S
C837 C832 1.499 . S
C837 H838 0.959 . S
C837 H839 0.960 . S
C837 H840 0.961 . S
H838 C837 0.959 . S
H839 C837 0.960 . S
H840 C837 0.961 . S
O841 Co816 1.967 . S
O841 C849 1.258 . S
O842 Co817 1.941 . S
O842 C849 1.266 . S
H843 C845 0.959 . S
H844 C845 0.961 . S
C845 C835 1.510 . S
C845 H843 0.959 . S
C845 H844 0.961 . S
C845 H846 0.960 . S
H846 C845 0.960 . S
H847 N827 0.862 . S
O848 Co816 1.920 . S
O848 C821 1.289 . S
C849 O841 1.258 . S
C849 O842 1.266 . S
Co850 O853 1.970 . S
Co850 N867 1.989 1_556 S
Co850 O875 1.967 . S
Co850 O882 1.920 . S
Co851 O854 1.966 . S
Co851 N860 2.022 . S
Co851 N868 1.993 . S
Co851 O876 1.941 . S
C852 O853 1.258 . S
C852 O854 1.263 . S
O853 Co850 1.970 . S
O853 C852 1.258 . S
O854 Co851 1.966 . S
O854 C852 1.263 . S
C855 O856 1.235 . S
C855 O882 1.289 1_554 S
O856 C855 1.235 . S
C857 C859 1.400 . S
C857 N860 1.351 . S
C857 C862 1.501 . S
C858 C859 1.387 . S
C858 N861 1.341 . S
C859 C857 1.400 . S
C859 C858 1.387 . S
N860 Co851 2.022 . S
N860 C857 1.351 . S
N860 N861 1.365 . S
N861 C858 1.341 . S
N861 N860 1.365 . S
N861 H881 0.862 . S
C862 C857 1.501 . S
C862 H863 0.961 . S
C862 H864 0.961 . S
C862 H865 0.960 . S
H863 C862 0.961 . S
H864 C862 0.961 . S
H865 C862 0.960 . S
C866 N867 1.342 . S
C866 C870 1.401 . S
C866 C871 1.499 . S
N867 Co850 1.989 1_554 S
N867 C866 1.342 . S
N867 N868 1.388 1_554 S
N868 Co851 1.993 . S
N868 N867 1.388 1_556 S
N868 C869 1.346 1_556 S
C869 N868 1.346 1_554 S
C869 C870 1.396 . S
C869 C879 1.510 . S
C870 C866 1.401 . S
C870 C869 1.396 . S
C871 C866 1.499 . S
C871 H872 0.959 . S
C871 H873 0.960 . S
C871 H874 0.961 . S
H872 C871 0.959 . S
H873 C871 0.960 . S
H874 C871 0.961 . S
O875 Co850 1.967 . S
O875 C883 1.258 . S
O876 Co851 1.941 . S
O876 C883 1.266 . S
H877 C879 0.959 . S
H878 C879 0.961 . S
C879 C869 1.510 . S
C879 H877 0.959 . S
C879 H878 0.961 . S
C879 H880 0.960 1_554 S
H880 C879 0.960 1_556 S
H881 N861 0.862 . S
O882 Co850 1.920 . S
O882 C855 1.289 1_556 S
C883 O875 1.258 . S
C883 O876 1.266 . S
Co884 O887 1.970 . S
Co884 N901 1.989 . S
Co884 O909 1.967 . S
Co884 O916 1.920 . S
Co885 O888 1.966 . S
Co885 N894 2.022 . S
Co885 N902 1.993 . S
Co885 O910 1.941 . S
C886 O887 1.258 . S
C886 O888 1.263 . S
O887 Co884 1.970 . S
O887 C886 1.258 . S
O888 Co885 1.966 . S
O888 C886 1.263 . S
C889 O890 1.235 . S
C889 O916 1.289 . S
O890 C889 1.235 . S
C891 C893 1.400 . S
C891 N894 1.351 . S
C891 C896 1.501 . S
C892 C893 1.387 . S
C892 N895 1.341 . S
C893 C891 1.400 . S
C893 C892 1.387 . S
N894 Co885 2.022 . S
N894 C891 1.351 . S
N894 N895 1.365 . S
N895 C892 1.341 . S
N895 N894 1.365 . S
N895 H915 0.862 . S
C896 C891 1.501 . S
C896 H897 0.961 . S
C896 H898 0.961 . S
C896 H899 0.960 . S
H897 C896 0.961 . S
H898 C896 0.961 . S
H899 C896 0.960 . S
C900 N901 1.342 . S
C900 C904 1.401 . S
C900 C905 1.499 . S
N901 Co884 1.989 . S
N901 C900 1.342 . S
N901 N902 1.388 . S
N902 Co885 1.993 . S
N902 N901 1.388 . S
N902 C903 1.346 . S
C903 N902 1.346 . S
C903 C904 1.396 . S
C903 C913 1.510 . S
C904 C900 1.401 . S
C904 C903 1.396 . S
C905 C900 1.499 . S
C905 H906 0.959 . S
C905 H907 0.960 . S
C905 H908 0.961 . S
H906 C905 0.959 . S
H907 C905 0.960 . S
H908 C905 0.961 . S
O909 Co884 1.967 . S
O909 C917 1.258 . S
O910 Co885 1.941 . S
O910 C917 1.266 . S
H911 C913 0.959 . S
H912 C913 0.961 . S
C913 C903 1.510 . S
C913 H911 0.959 . S
C913 H912 0.961 . S
C913 H914 0.960 . S
H914 C913 0.960 . S
H915 N895 0.862 . S
O916 Co884 1.920 . S
O916 C889 1.289 . S
C917 O909 1.258 . S
C917 O910 1.266 . S
Co918 O921 1.970 . S
Co918 N935 1.989 . S
Co918 O943 1.967 . S
Co918 O950 1.920 . S
Co919 O922 1.966 . S
Co919 N928 2.022 . S
Co919 N936 1.993 . S
Co919 O944 1.941 . S
C920 O921 1.258 . S
C920 O922 1.263 . S
O921 Co918 1.970 . S
O921 C920 1.258 . S
O922 Co919 1.966 . S
O922 C920 1.263 . S
C923 O924 1.235 . S
C923 O950 1.289 . S
O924 C923 1.235 . S
C925 C927 1.400 . S
C925 N928 1.351 . S
C925 C930 1.501 . S
C926 C927 1.387 . S
C926 N929 1.341 . S
C927 C925 1.400 . S
C927 C926 1.387 . S
N928 Co919 2.022 . S
N928 C925 1.351 . S
N928 N929 1.365 . S
N929 C926 1.341 . S
N929 N928 1.365 . S
N929 H949 0.862 . S
C930 C925 1.501 . S
C930 H931 0.961 . S
C930 H932 0.961 . S
C930 H933 0.960 . S
H931 C930 0.961 . S
H932 C930 0.961 . S
H933 C930 0.960 . S
C934 N935 1.342 . S
C934 C938 1.401 . S
C934 C939 1.499 . S
N935 Co918 1.989 . S
N935 C934 1.342 . S
N935 N936 1.388 . S
N936 Co919 1.993 . S
N936 N935 1.388 . S
N936 C937 1.346 . S
C937 N936 1.346 . S
C937 C938 1.396 . S
C937 C947 1.510 . S
C938 C934 1.401 . S
C938 C937 1.396 . S
C939 C934 1.499 . S
C939 H940 0.959 . S
C939 H941 0.960 . S
C939 H942 0.961 . S
H940 C939 0.959 . S
H941 C939 0.960 . S
H942 C939 0.961 . S
O943 Co918 1.967 . S
O943 C951 1.258 . S
O944 Co919 1.941 . S
O944 C951 1.266 . S
H945 C947 0.959 . S
H946 C947 0.961 . S
C947 C937 1.510 . S
C947 H945 0.959 . S
C947 H946 0.961 . S
C947 H948 0.960 . S
H948 C947 0.960 . S
H949 N929 0.862 . S
O950 Co918 1.920 . S
O950 C923 1.289 . S
C951 O943 1.258 . S
C951 O944 1.266 . S
Co952 O955 1.970 . S
Co952 N969 1.989 . S
Co952 O977 1.967 . S
Co952 O984 1.920 . S
Co953 O956 1.966 . S
Co953 N962 2.022 . S
Co953 N970 1.993 . S
Co953 O978 1.941 . S
C954 O955 1.258 . S
C954 O956 1.263 . S
O955 Co952 1.970 . S
O955 C954 1.258 . S
O956 Co953 1.966 . S
O956 C954 1.263 . S
C957 O958 1.235 . S
C957 O984 1.289 . S
O958 C957 1.235 . S
C959 C961 1.400 . S
C959 N962 1.351 . S
C959 C964 1.501 . S
C960 C961 1.387 . S
C960 N963 1.341 . S
C961 C959 1.400 . S
C961 C960 1.387 . S
N962 Co953 2.022 . S
N962 C959 1.351 . S
N962 N963 1.365 . S
N963 C960 1.341 . S
N963 N962 1.365 . S
N963 H983 0.862 . S
C964 C959 1.501 . S
C964 H965 0.961 . S
C964 H966 0.961 . S
C964 H967 0.960 . S
H965 C964 0.961 . S
H966 C964 0.961 . S
H967 C964 0.960 . S
C968 N969 1.342 . S
C968 C972 1.401 . S
C968 C973 1.499 . S
N969 Co952 1.989 . S
N969 C968 1.342 . S
N969 N970 1.388 . S
N970 Co953 1.993 . S
N970 N969 1.388 . S
N970 C971 1.346 . S
C971 N970 1.346 . S
C971 C972 1.396 . S
C971 C981 1.510 . S
C972 C968 1.401 . S
C972 C971 1.396 . S
C973 C968 1.499 . S
C973 H974 0.959 . S
C973 H975 0.960 . S
C973 H976 0.961 . S
H974 C973 0.959 . S
H975 C973 0.960 . S
H976 C973 0.961 . S
O977 Co952 1.967 . S
O977 C985 1.258 . S
O978 Co953 1.941 . S
O978 C985 1.266 . S
H979 C981 0.959 . S
H980 C981 0.961 . S
C981 C971 1.510 . S
C981 H979 0.959 . S
C981 H980 0.961 . S
C981 H982 0.960 . S
H982 C981 0.960 . S
H983 N963 0.862 . S
O984 Co952 1.920 . S
O984 C957 1.289 . S
C985 O977 1.258 . S
C985 O978 1.266 . S
Co986 O989 1.970 . S
Co986 N1003 1.989 1_554 S
Co986 O1011 1.967 . S
Co986 O1018 1.920 . S
Co987 O990 1.966 . S
Co987 N996 2.022 . S
Co987 N1004 1.993 . S
Co987 O1012 1.941 . S
C988 O989 1.258 . S
C988 O990 1.263 . S
O989 Co986 1.970 . S
O989 C988 1.258 . S
O990 Co987 1.966 . S
O990 C988 1.263 . S
C991 O992 1.235 . S
C991 O1018 1.289 1_556 S
O992 C991 1.235 . S
C993 C995 1.400 . S
C993 N996 1.351 . S
C993 C998 1.501 . S
C994 C995 1.387 . S
C994 N997 1.341 . S
C995 C993 1.400 . S
C995 C994 1.387 . S
N996 Co987 2.022 . S
N996 C993 1.351 . S
N996 N997 1.365 . S
N997 C994 1.341 . S
N997 N996 1.365 . S
N997 H1017 0.862 . S
C998 C993 1.501 . S
C998 H999 0.961 . S
C998 H1000 0.961 . S
C998 H1001 0.960 . S
H999 C998 0.961 . S
H1000 C998 0.961 . S
H1001 C998 0.960 . S
C1002 N1003 1.342 . S
C1002 C1006 1.401 . S
C1002 C1007 1.499 . S
N1003 Co986 1.989 1_556 S
N1003 C1002 1.342 . S
N1003 N1004 1.388 1_556 S
N1004 Co987 1.993 . S
N1004 N1003 1.388 1_554 S
N1004 C1005 1.346 1_554 S
C1005 N1004 1.346 1_556 S
C1005 C1006 1.396 . S
C1005 C1015 1.510 . S
C1006 C1002 1.401 . S
C1006 C1005 1.396 . S
C1007 C1002 1.499 . S
C1007 H1008 0.959 . S
C1007 H1009 0.960 . S
C1007 H1010 0.961 . S
H1008 C1007 0.959 . S
H1009 C1007 0.960 . S
H1010 C1007 0.961 . S
O1011 Co986 1.967 . S
O1011 C1019 1.258 . S
O1012 Co987 1.941 . S
O1012 C1019 1.266 . S
H1013 C1015 0.959 . S
H1014 C1015 0.961 . S
C1015 C1005 1.510 . S
C1015 H1013 0.959 . S
C1015 H1014 0.961 . S
C1015 H1016 0.960 1_556 S
H1016 C1015 0.960 1_554 S
H1017 N997 0.862 . S
O1018 Co986 1.920 . S
O1018 C991 1.289 1_554 S
C1019 O1011 1.258 . S
C1019 O1012 1.266 . S
Co1020 O1023 1.970 . S
Co1020 N1037 1.989 . S
Co1020 O1045 1.967 . S
Co1020 O1052 1.920 . S
Co1021 O1024 1.966 . S
Co1021 N1030 2.022 . S
Co1021 N1038 1.993 . S
Co1021 O1046 1.941 . S
C1022 O1023 1.258 . S
C1022 O1024 1.263 . S
O1023 Co1020 1.970 . S
O1023 C1022 1.258 . S
O1024 Co1021 1.966 . S
O1024 C1022 1.263 . S
C1025 O1026 1.235 . S
C1025 O1052 1.289 . S
O1026 C1025 1.235 . S
C1027 C1029 1.400 . S
C1027 N1030 1.351 . S
C1027 C1032 1.501 . S
C1028 C1029 1.387 . S
C1028 N1031 1.341 . S
C1029 C1027 1.400 . S
C1029 C1028 1.387 . S
N1030 Co1021 2.022 . S
N1030 C1027 1.351 . S
N1030 N1031 1.365 . S
N1031 C1028 1.341 . S
N1031 N1030 1.365 . S
N1031 H1051 0.862 . S
C1032 C1027 1.501 . S
C1032 H1033 0.961 . S
C1032 H1034 0.961 . S
C1032 H1035 0.960 1_556 S
H1033 C1032 0.961 . S
H1034 C1032 0.961 . S
H1035 C1032 0.960 1_554 S
C1036 N1037 1.342 . S
C1036 C1040 1.401 . S
C1036 C1041 1.499 . S
N1037 Co1020 1.989 . S
N1037 C1036 1.342 . S
N1037 N1038 1.388 . S
N1038 Co1021 1.993 . S
N1038 N1037 1.388 . S
N1038 C1039 1.346 . S
C1039 N1038 1.346 . S
C1039 C1040 1.396 . S
C1039 C1049 1.510 . S
C1040 C1036 1.401 . S
C1040 C1039 1.396 . S
C1041 C1036 1.499 . S
C1041 H1042 0.959 . S
C1041 H1043 0.960 . S
C1041 H1044 0.961 . S
H1042 C1041 0.959 . S
H1043 C1041 0.960 . S
H1044 C1041 0.961 . S
O1045 Co1020 1.967 . S
O1045 C1053 1.258 . S
O1046 Co1021 1.941 . S
O1046 C1053 1.266 . S
H1047 C1049 0.959 . S
H1048 C1049 0.961 . S
C1049 C1039 1.510 . S
C1049 H1047 0.959 . S
C1049 H1048 0.961 . S
C1049 H1050 0.960 . S
H1050 C1049 0.960 . S
H1051 N1031 0.862 . S
O1052 Co1020 1.920 . S
O1052 C1025 1.289 . S
C1053 O1045 1.258 . S
C1053 O1046 1.266 . S
Co1054 O1057 1.970 . S
Co1054 N1071 1.989 . S
Co1054 O1079 1.967 . S
Co1054 O1086 1.920 . S
Co1055 O1058 1.966 . S
Co1055 N1064 2.022 . S
Co1055 N1072 1.993 . S
Co1055 O1080 1.941 . S
C1056 O1057 1.258 . S
C1056 O1058 1.263 . S
O1057 Co1054 1.970 . S
O1057 C1056 1.258 . S
O1058 Co1055 1.966 . S
O1058 C1056 1.263 . S
C1059 O1060 1.235 . S
C1059 O1086 1.289 . S
O1060 C1059 1.235 . S
C1061 C1063 1.400 . S
C1061 N1064 1.351 . S
C1061 C1066 1.501 . S
C1062 C1063 1.387 . S
C1062 N1065 1.341 . S
C1063 C1061 1.400 . S
C1063 C1062 1.387 . S
N1064 Co1055 2.022 . S
N1064 C1061 1.351 . S
N1064 N1065 1.365 . S
N1065 C1062 1.341 . S
N1065 N1064 1.365 . S
N1065 H1085 0.862 . S
C1066 C1061 1.501 . S
C1066 H1067 0.961 . S
C1066 H1068 0.961 . S
C1066 H1069 0.960 . S
H1067 C1066 0.961 . S
H1068 C1066 0.961 . S
H1069 C1066 0.960 . S
C1070 N1071 1.342 . S
C1070 C1074 1.401 . S
C1070 C1075 1.499 . S
N1071 Co1054 1.989 . S
N1071 C1070 1.342 . S
N1071 N1072 1.388 . S
N1072 Co1055 1.993 . S
N1072 N1071 1.388 . S
N1072 C1073 1.346 . S
C1073 N1072 1.346 . S
C1073 C1074 1.396 . S
C1073 C1083 1.510 . S
C1074 C1070 1.401 . S
C1074 C1073 1.396 . S
C1075 C1070 1.499 . S
C1075 H1076 0.959 . S
C1075 H1077 0.960 . S
C1075 H1078 0.961 . S
H1076 C1075 0.959 . S
H1077 C1075 0.960 . S
H1078 C1075 0.961 . S
O1079 Co1054 1.967 . S
O1079 C1087 1.258 . S
O1080 Co1055 1.941 . S
O1080 C1087 1.266 . S
H1081 C1083 0.959 . S
H1082 C1083 0.961 . S
C1083 C1073 1.510 . S
C1083 H1081 0.959 . S
C1083 H1082 0.961 . S
C1083 H1084 0.960 . S
H1084 C1083 0.960 . S
H1085 N1065 0.862 . S
O1086 Co1054 1.920 . S
O1086 C1059 1.289 . S
C1087 O1079 1.258 . S
C1087 O1080 1.266 . S
C258 C20 1.637 . S
C54 C156 1.637 . S
C88 C190 1.637 . S
C224 C122 1.637 . S
C292 C530 1.637 . S
C428 C326 1.637 . S
C360 C462 1.637 . S
C496 C394 1.637 . S
C802 C564 1.637 . S
C700 C598 1.637 . S
C734 C632 1.637 . S
C768 C666 1.637 . S
C1074 C836 1.637 . S
C870 C972 1.637 . S
C1006 C904 1.637 . S
C1040 C938 1.637 . S
C33 C927 2.765 . S
C281 C67 2.765 1_655 S
C859 C101 2.765 . S
C135 C349 2.765 . S
C995 C169 2.765 . S
C203 C485 2.765 . S
C1063 C237 2.765 . S
C417 C271 2.765 1_655 S
C305 C655 2.765 . S
C339 C9 2.765 1_655 S
C587 C373 2.765 . S
C77 C407 2.765 . S
C723 C441 2.765 . S
C213 C475 2.765 . S
C509 C791 2.765 . S
C543 C145 2.765 1_655 S
C577 C383 2.765 . S
C825 C611 2.765 . S
C315 C645 2.765 . S
C679 C893 2.765 1_655 S
C713 C451 2.765 . S
C1029 C747 2.765 1_455 S
C519 C781 2.765 . S
C815 C961 2.765 . S
C111 C849 2.765 . S
C553 C883 2.765 . S
C43 C917 2.765 . S
C621 C951 2.765 1_655 S
C985 C179 2.765 . S
C1019 C757 2.765 1_455 S
C1053 C247 2.765 . S
C689 C1087 2.765 . S
C5 C821 4.190 . S
C39 C311 4.190 1_445 S
C73 C889 4.190 . S
C379 C107 4.190 1_544 S
C957 C141 4.190 . S
C175 C447 4.190 1_545 S
C209 C1025 4.190 . S
C243 C515 4.190 1_464 S
C549 C277 4.190 . S
C345 C617 4.190 . S
C685 C413 4.190 . S
C481 C753 4.190 . S
C583 C855 4.190 1_556 S
C923 C651 4.190 1_455 S
C719 C991 4.190 1_654 S
C1059 C787 4.190 . S
C2 C206 3.084 . S
C240 C36 3.084 1_545 S
C138 C70 3.084 1_554 S
C172 C104 3.084 1_565 S
C274 C478 3.084 . S
C308 C512 3.084 1_545 S
C410 C342 3.084 1_556 S
C444 C376 3.084 1_545 S
C546 C750 3.084 1_556 S
C580 C784 3.084 . S
C682 C614 3.084 . S
C716 C648 3.084 . S
C818 C1022 3.084 1_554 S
C852 C1056 3.084 . S
C954 C886 3.084 . S
C920 C988 3.084 . S
