# Generated by pormake.
# Topology afi, (4)-cn, num edge types: 1
# Building blocks:
#     Node 0, Type 0, BuildingBlock: UXUYUI_clean_sbu_0, # of connection points: 4
#     Node 1, Type 0, BuildingBlock: UXUYUI_clean_sbu_0, # of connection points: 4
#     Node 2, Type 0, BuildingBlock: UXUYUI_clean_sbu_0, # of connection points: 4
#     Node 3, Type 0, BuildingBlock: UXUYUI_clean_sbu_0, # of connection points: 4
#     Node 4, Type 0, BuildingBlock: UXUYUI_clean_sbu_0, # of connection points: 4
#     Node 5, Type 0, BuildingBlock: UXUYUI_clean_sbu_0, # of connection points: 4
#     Node 6, Type 0, BuildingBlock: UXUYUI_clean_sbu_0, # of connection points: 4
#     Node 7, Type 0, BuildingBlock: UXUYUI_clean_sbu_0, # of connection points: 4
#     Node 8, Type 0, BuildingBlock: UXUYUI_clean_sbu_0, # of connection points: 4
#     Node 9, Type 0, BuildingBlock: UXUYUI_clean_sbu_0, # of connection points: 4
#     Node 10, Type 0, BuildingBlock: UXUYUI_clean_sbu_0, # of connection points: 4
#     Node 11, Type 0, BuildingBlock: UXUYUI_clean_sbu_0, # of connection points: 4
#     Node 12, Type 0, BuildingBlock: UXUYUI_clean_sbu_0, # of connection points: 4
#     Node 13, Type 0, BuildingBlock: UXUYUI_clean_sbu_0, # of connection points: 4
#     Node 14, Type 0, BuildingBlock: UXUYUI_clean_sbu_0, # of connection points: 4
#     Node 15, Type 0, BuildingBlock: UXUYUI_clean_sbu_0, # of connection points: 4
#     Node 16, Type 0, BuildingBlock: UXUYUI_clean_sbu_0, # of connection points: 4
#     Node 17, Type 0, BuildingBlock: UXUYUI_clean_sbu_0, # of connection points: 4
#     Node 18, Type 0, BuildingBlock: UXUYUI_clean_sbu_0, # of connection points: 4
#     Node 19, Type 0, BuildingBlock: UXUYUI_clean_sbu_0, # of connection points: 4
#     Node 20, Type 0, BuildingBlock: UXUYUI_clean_sbu_0, # of connection points: 4
#     Node 21, Type 0, BuildingBlock: UXUYUI_clean_sbu_0, # of connection points: 4
#     Node 22, Type 0, BuildingBlock: UXUYUI_clean_sbu_0, # of connection points: 4
#     Node 23, Type 0, BuildingBlock: UXUYUI_clean_sbu_0, # of connection points: 4
#     Edge 24, Type (0, 0), None
#     Edge 25, Type (0, 0), None
#     Edge 26, Type (0, 0), None
#     Edge 27, Type (0, 0), None
#     Edge 28, Type (0, 0), None
#     Edge 29, Type (0, 0), None
#     Edge 30, Type (0, 0), None
#     Edge 31, Type (0, 0), None
#     Edge 32, Type (0, 0), None
#     Edge 33, Type (0, 0), None
#     Edge 34, Type (0, 0), None
#     Edge 35, Type (0, 0), None
#     Edge 36, Type (0, 0), None
#     Edge 37, Type (0, 0), None
#     Edge 38, Type (0, 0), None
#     Edge 39, Type (0, 0), None
#     Edge 40, Type (0, 0), None
#     Edge 41, Type (0, 0), None
#     Edge 42, Type (0, 0), None
#     Edge 43, Type (0, 0), None
#     Edge 44, Type (0, 0), None
#     Edge 45, Type (0, 0), None
#     Edge 46, Type (0, 0), None
#     Edge 47, Type (0, 0), None
#     Edge 48, Type (0, 0), None
#     Edge 49, Type (0, 0), None
#     Edge 50, Type (0, 0), None
#     Edge 51, Type (0, 0), None
#     Edge 52, Type (0, 0), None
#     Edge 53, Type (0, 0), None
#     Edge 54, Type (0, 0), None
#     Edge 55, Type (0, 0), None
#     Edge 56, Type (0, 0), None
#     Edge 57, Type (0, 0), None
#     Edge 58, Type (0, 0), None
#     Edge 59, Type (0, 0), None
#     Edge 60, Type (0, 0), None
#     Edge 61, Type (0, 0), None
#     Edge 62, Type (0, 0), None
#     Edge 63, Type (0, 0), None
#     Edge 64, Type (0, 0), None
#     Edge 65, Type (0, 0), None
#     Edge 66, Type (0, 0), None
#     Edge 67, Type (0, 0), None
#     Edge 68, Type (0, 0), None
#     Edge 69, Type (0, 0), None
#     Edge 70, Type (0, 0), None
#     Edge 71, Type (0, 0), None
# Relax obj value: 0.134
# Max RMSD: 0.127
# Mean RMSD: 0.126
data_MOF--net-afi--node1-UXUYUI_clean_sbu_0--edge1-none
_symmetry_space_group_name_H-M    P1
_symmetry_Int_Tables_number       1
_symmetry_cell_setting            triclinic
loop_
_symmetry_equiv_pos_as_xyz
'x, y, z'
_cell_length_a     60.942979
_cell_length_b     60.943852
_cell_length_c     37.690517
_cell_angle_alpha  89.999962
_cell_angle_beta   89.99999
_cell_angle_gamma 120.00144
loop_
_atom_site_label
_atom_site_type_symbol
_atom_site_fract_x
_atom_site_fract_y
_atom_site_fract_z
_atom_type_partial_charge
Li0 Li 0.48574 0.13055 0.20416 0.0
Li1 Li 0.43732 0.09825 0.20538 0.0
Li2 Li 0.45818 0.12531 0.15153 0.0
Li3 Li 0.45428 0.14402 0.20479 0.0
C4 C 0.46983 0.0895 0.14531 0.0
N5 N 0.47928 0.07096 0.08384 0.0
C6 C 0.45093 0.06689 0.13048 0.0
C7 C 0.49357 0.10266 0.12899 0.0
C8 C 0.45608 0.05782 0.09936 0.0
C9 C 0.49796 0.09298 0.0979 0.0
C10 C 0.45682 0.13327 0.27244 0.0
C11 C 0.42992 0.13818 0.31478 0.0
N12 N 0.45069 0.15396 0.33428 0.0
C13 C 0.47789 0.14933 0.29305 0.0
C14 C 0.43262 0.12745 0.28351 0.0
C15 C 0.4744 0.15967 0.32418 0.0
C16 C 0.53523 0.15618 0.23608 0.0
N17 N 0.51707 0.13446 0.22063 0.0
C18 C 0.54115 0.11404 0.2318 0.0
C19 C 0.5197 0.11367 0.21816 0.0
C20 C 0.56004 0.13593 0.24875 0.0
C21 C 0.55702 0.15735 0.25038 0.0
H22 H 0.5325 0.17235 0.23814 0.0
H23 H 0.50489 0.09656 0.20605 0.0
C24 C 0.3959 0.04704 0.20241 0.0
N25 N 0.41357 0.06545 0.22363 0.0
C26 C 0.38103 0.02229 0.21528 0.0
C27 C 0.40199 0.03624 0.27198 0.0
C28 C 0.41657 0.0606 0.25796 0.0
C29 C 0.38428 0.01651 0.25038 0.0
H30 H 0.3939 0.05138 0.17519 0.0
H31 H 0.43095 0.07548 0.27416 0.0
C32 C 0.49174 0.18067 0.16431 0.0
N33 N 0.50445 0.22955 0.14626 0.0
C34 C 0.47507 0.18509 0.14422 0.0
C35 C 0.51497 0.20107 0.17499 0.0
C36 C 0.48181 0.20994 0.13543 0.0
C37 C 0.52103 0.22566 0.16565 0.0
C38 C 0.40398 0.11711 0.17232 0.0
C39 C 0.39967 0.12885 0.14344 0.0
C40 C 0.38496 0.10455 0.19765 0.0
C41 C 0.37657 0.12837 0.14086 0.0
C42 C 0.36211 0.10449 0.19412 0.0
N43 N 0.35844 0.11634 0.16606 0.0
C44 C 0.43715 0.10729 0.08287 0.0
C45 C 0.47847 0.14315 0.08276 0.0
C46 C 0.43687 0.10671 0.04573 0.0
N47 N 0.45778 0.1253 0.10054 0.0
C48 C 0.47887 0.14347 0.04566 0.0
C49 C 0.4579 0.12503 0.02661 0.0
H50 H 0.42098 0.09327 0.09766 0.0
H51 H 0.49478 0.15707 0.0974 0.0
C52 C 0.47146 0.19043 0.24017 0.0
N53 N 0.45053 0.17172 0.22382 0.0
C54 C 0.47156 0.21183 0.25362 0.0
C55 C 0.42839 0.19446 0.23376 0.0
C56 C 0.42912 0.17333 0.22068 0.0
C57 C 0.44989 0.21422 0.25029 0.0
H58 H 0.48827 0.1888 0.24256 0.0
H59 H 0.41261 0.15849 0.20779 0.0
O60 O 0.46491 0.09921 0.17499 0.0
O61 O 0.45989 0.12341 0.24148 0.0
O62 O 0.48516 0.15651 0.17393 0.0
O63 O 0.42637 0.11721 0.17515 0.0
H64 H 0.43242 0.05657 0.14267 0.0
H65 H 0.5083 0.12036 0.13997 0.0
H66 H 0.44159 0.0404 0.08748 0.0
H67 H 0.51619 0.10304 0.08485 0.0
H68 H 0.41131 0.13399 0.32352 0.0
H69 H 0.49673 0.15394 0.28494 0.0
H70 H 0.41613 0.11495 0.26796 0.0
H71 H 0.49055 0.17227 0.34027 0.0
H72 H 0.5428 0.09723 0.22922 0.0
H73 H 0.57093 0.17455 0.26346 0.0
H74 H 0.36746 0.00774 0.19777 0.0
H75 H 0.40545 0.03266 0.29897 0.0
H76 H 0.45703 0.16949 0.13582 0.0
H77 H 0.5281 0.19796 0.19051 0.0
H78 H 0.46902 0.21365 0.12007 0.0
H79 H 0.5389 0.24166 0.17387 0.0
H80 H 0.41398 0.13819 0.1232 0.0
H81 H 0.38777 0.0949 0.21973 0.0
H82 H 0.37302 0.13751 0.11877 0.0
H83 H 0.34727 0.09497 0.21362 0.0
H84 H 0.42024 0.09226 0.03213 0.0
H85 H 0.4956 0.15772 0.03203 0.0
H86 H 0.48846 0.22629 0.26669 0.0
H87 H 0.41131 0.19552 0.23027 0.0
Li88 Li 0.35839 0.48415 0.20416 0.0
Li89 Li 0.34226 0.43572 0.20538 0.0
Li90 Li 0.33606 0.45658 0.15153 0.0
Li91 Li 0.31346 0.45268 0.20479 0.0
C92 C 0.38353 0.46823 0.14531 0.0
N93 N 0.41151 0.47767 0.08383 0.0
C94 C 0.38724 0.44933 0.13048 0.0
C95 C 0.3941 0.49197 0.12899 0.0
C96 C 0.40145 0.45447 0.09936 0.0
C97 C 0.40817 0.49636 0.09789 0.0
C98 C 0.32675 0.45522 0.27244 0.0
C99 C 0.29493 0.42832 0.31477 0.0
N100 N 0.29993 0.44909 0.33428 0.0
C101 C 0.33175 0.47628 0.29306 0.0
C102 C 0.30837 0.43102 0.2835 0.0
C103 C 0.31793 0.4728 0.32418 0.0
C104 C 0.38225 0.53363 0.23608 0.0
N105 N 0.3858 0.51548 0.22063 0.0
C106 C 0.43031 0.53956 0.23179 0.0
C107 C 0.40924 0.51811 0.21814 0.0
C108 C 0.4273 0.55844 0.24875 0.0
C109 C 0.40287 0.55542 0.25038 0.0
H110 H 0.36334 0.5309 0.23815 0.0
H111 H 0.41153 0.5033 0.20604 0.0
C112 C 0.35205 0.3943 0.20242 0.0
N113 N 0.35131 0.41197 0.22363 0.0
C114 C 0.36192 0.37943 0.21529 0.0
C115 C 0.36895 0.40039 0.27198 0.0
C116 C 0.35916 0.41497 0.25796 0.0
C117 C 0.37096 0.38268 0.25038 0.0
H118 H 0.3457 0.3923 0.17519 0.0
H119 H 0.35867 0.42936 0.27416 0.0
C120 C 0.31426 0.49014 0.16431 0.0
N121 N 0.27809 0.50286 0.14628 0.0
C122 C 0.29317 0.47347 0.14423 0.0
C123 C 0.3171 0.51338 0.175 0.0
C124 C 0.27506 0.48021 0.13545 0.0
C125 C 0.29857 0.51944 0.16567 0.0
C126 C 0.29006 0.40238 0.17231 0.0
C127 C 0.27401 0.39808 0.14343 0.0
C128 C 0.2836 0.38336 0.19764 0.0
C129 C 0.25139 0.37498 0.14085 0.0
C130 C 0.26081 0.36052 0.1941 0.0
N131 N 0.24529 0.35685 0.16605 0.0
C132 C 0.33306 0.43556 0.08286 0.0
C133 C 0.3385 0.47686 0.08275 0.0
C134 C 0.33335 0.43527 0.04573 0.0
N135 N 0.33568 0.45618 0.10053 0.0
C136 C 0.33859 0.47726 0.04566 0.0
C137 C 0.33606 0.4563 0.02661 0.0
H138 H 0.33091 0.41938 0.09766 0.0
H139 H 0.3409 0.49317 0.0974 0.0
C140 C 0.28423 0.46986 0.24017 0.0
N141 N 0.28201 0.44894 0.22382 0.0
C142 C 0.26293 0.46997 0.25362 0.0
C143 C 0.23712 0.4268 0.23375 0.0
C144 C 0.25898 0.42753 0.22067 0.0
C145 C 0.23886 0.4483 0.25029 0.0
H146 H 0.30266 0.48667 0.24256 0.0
H147 H 0.25731 0.41102 0.20778 0.0
O148 O 0.3689 0.46331 0.17499 0.0
O149 O 0.33968 0.4583 0.24148 0.0
O150 O 0.33185 0.48357 0.17393 0.0
O151 O 0.31236 0.42478 0.17515 0.0
H152 H 0.37905 0.43082 0.14268 0.0
H153 H 0.39114 0.5067 0.13996 0.0
H154 H 0.40439 0.43999 0.08748 0.0
H155 H 0.41634 0.51458 0.08484 0.0
H156 H 0.28051 0.40971 0.32351 0.0
H157 H 0.34599 0.49513 0.28495 0.0
H158 H 0.30438 0.41454 0.26795 0.0
H159 H 0.32147 0.48894 0.34028 0.0
H160 H 0.44877 0.54121 0.2292 0.0
H161 H 0.39958 0.56933 0.26347 0.0
H162 H 0.36291 0.36586 0.19777 0.0
H163 H 0.37599 0.40386 0.29897 0.0
H164 H 0.29073 0.45543 0.13582 0.0
H165 H 0.33334 0.5265 0.19052 0.0
H166 H 0.25856 0.46742 0.12008 0.0
H167 H 0.30044 0.5373 0.1739 0.0
H168 H 0.27899 0.41239 0.12319 0.0
H169 H 0.29606 0.38617 0.21972 0.0
H170 H 0.23871 0.37143 0.11875 0.0
H171 H 0.25549 0.34568 0.2136 0.0
H172 H 0.33117 0.41864 0.03212 0.0
H173 H 0.34107 0.494 0.03203 0.0
H174 H 0.26537 0.48686 0.2667 0.0
H175 H 0.21898 0.40972 0.23026 0.0
Li176 Li 0.87743 0.3568 0.20416 0.0
Li177 Li 0.90973 0.34067 0.20538 0.0
Li178 Li 0.88267 0.33447 0.15153 0.0
Li179 Li 0.86396 0.31186 0.20479 0.0
C180 C 0.91848 0.38193 0.14531 0.0
N181 N 0.93703 0.40992 0.08383 0.0
C182 C 0.9411 0.38564 0.13048 0.0
C183 C 0.90532 0.3925 0.12899 0.0
C184 C 0.95016 0.39985 0.09936 0.0
C185 C 0.915 0.40658 0.09789 0.0
C186 C 0.87471 0.32515 0.27244 0.0
C187 C 0.8698 0.29334 0.31477 0.0
N188 N 0.85402 0.29833 0.33427 0.0
C189 C 0.85865 0.33015 0.29305 0.0
C190 C 0.88054 0.30677 0.2835 0.0
C191 C 0.84831 0.31633 0.32418 0.0
C192 C 0.8518 0.38065 0.23608 0.0
N193 N 0.87351 0.38421 0.22063 0.0
C194 C 0.89394 0.42871 0.23179 0.0
C195 C 0.89431 0.40764 0.21815 0.0
C196 C 0.87205 0.4257 0.24874 0.0
C197 C 0.85063 0.40127 0.25038 0.0
H198 H 0.83563 0.36175 0.23814 0.0
H199 H 0.91141 0.40993 0.20604 0.0
C200 C 0.96094 0.35046 0.20241 0.0
N201 N 0.94253 0.34972 0.22363 0.0
C202 C 0.98569 0.36033 0.21528 0.0
C203 C 0.97174 0.36736 0.27198 0.0
C204 C 0.94738 0.35757 0.25796 0.0
C205 C 0.99147 0.36937 0.25038 0.0
H206 H 0.95659 0.34411 0.17519 0.0
H207 H 0.9325 0.35708 0.27416 0.0
C208 C 0.82731 0.31267 0.16431 0.0
N209 N 0.77842 0.2765 0.14626 0.0
C210 C 0.82289 0.29157 0.14422 0.0
C211 C 0.80691 0.3155 0.17498 0.0
C212 C 0.79803 0.27346 0.13543 0.0
C213 C 0.78232 0.29697 0.16565 0.0
C214 C 0.89087 0.28847 0.17232 0.0
C215 C 0.87912 0.27242 0.14344 0.0
C216 C 0.90343 0.28201 0.19765 0.0
C217 C 0.8796 0.2498 0.14086 0.0
C218 C 0.90348 0.25922 0.19411 0.0
N219 N 0.89164 0.2437 0.16606 0.0
C220 C 0.90069 0.33147 0.08286 0.0
C221 C 0.86483 0.33691 0.08275 0.0
C222 C 0.90127 0.33176 0.04573 0.0
N223 N 0.88268 0.33408 0.10053 0.0
C224 C 0.86451 0.337 0.04566 0.0
C225 C 0.88295 0.33447 0.02661 0.0
H226 H 0.91471 0.32931 0.09766 0.0
H227 H 0.85091 0.3393 0.0974 0.0
C228 C 0.81755 0.28263 0.24016 0.0
N229 N 0.83626 0.28041 0.22382 0.0
C230 C 0.79615 0.26133 0.25361 0.0
C231 C 0.81352 0.23553 0.23376 0.0
C232 C 0.83464 0.25739 0.22068 0.0
C233 C 0.79376 0.23727 0.25029 0.0
H234 H 0.81918 0.30106 0.24255 0.0
H235 H 0.84949 0.25572 0.2078 0.0
O236 O 0.90877 0.3673 0.17499 0.0
O237 O 0.88457 0.33808 0.24148 0.0
O238 O 0.85147 0.33026 0.17393 0.0
O239 O 0.89077 0.31077 0.17515 0.0
H240 H 0.95141 0.37745 0.14267 0.0
H241 H 0.88763 0.38954 0.13996 0.0
H242 H 0.96759 0.4028 0.08748 0.0
H243 H 0.90495 0.41475 0.08484 0.0
H244 H 0.87399 0.27892 0.32351 0.0
H245 H 0.85404 0.34439 0.28494 0.0
H246 H 0.89303 0.30279 0.26795 0.0
H247 H 0.8357 0.31986 0.34026 0.0
H248 H 0.91075 0.44717 0.2292 0.0
H249 H 0.83343 0.39798 0.26347 0.0
H250 H 1.00024 0.36132 0.19777 0.0
H251 H 0.97532 0.3744 0.29897 0.0
H252 H 0.83848 0.28913 0.13582 0.0
H253 H 0.81002 0.33174 0.1905 0.0
H254 H 0.79433 0.25696 0.12007 0.0
H255 H 0.76632 0.29884 0.17387 0.0
H256 H 0.86978 0.27739 0.1232 0.0
H257 H 0.91309 0.29448 0.21973 0.0
H258 H 0.87047 0.23711 0.11877 0.0
H259 H 0.91301 0.2539 0.21361 0.0
H260 H 0.91572 0.32958 0.03212 0.0
H261 H 0.85026 0.33947 0.03203 0.0
H262 H 0.78169 0.26377 0.26669 0.0
H263 H 0.81246 0.21739 0.23027 0.0
Li264 Li 0.57226 0.90813 0.20538 0.0
Li265 Li 0.52383 0.87584 0.20416 0.0
Li266 Li 0.55529 0.86237 0.20479 0.0
Li267 Li 0.5514 0.88107 0.15153 0.0
C268 C 0.55275 0.87311 0.27244 0.0
N269 N 0.55888 0.85243 0.33428 0.0
C270 C 0.53169 0.85705 0.29305 0.0
C271 C 0.57696 0.87894 0.28351 0.0
C272 C 0.53518 0.84672 0.32418 0.0
C273 C 0.57966 0.8682 0.31478 0.0
C274 C 0.53974 0.91688 0.14531 0.0
C275 C 0.51161 0.9134 0.0979 0.0
N276 N 0.5303 0.93542 0.08384 0.0
C277 C 0.55865 0.9395 0.13048 0.0
C278 C 0.51601 0.90372 0.12899 0.0
C279 C 0.5535 0.94856 0.09936 0.0
C280 C 0.61368 0.95935 0.20241 0.0
N281 N 0.59601 0.94094 0.22363 0.0
C282 C 0.60758 0.97015 0.27198 0.0
C283 C 0.59301 0.94579 0.25796 0.0
C284 C 0.62529 0.98987 0.25038 0.0
C285 C 0.62855 0.98409 0.21528 0.0
H286 H 0.61568 0.955 0.17519 0.0
H287 H 0.57862 0.9309 0.27416 0.0
C288 C 0.47434 0.85021 0.23608 0.0
N289 N 0.4925 0.87192 0.22063 0.0
C290 C 0.45256 0.84904 0.25038 0.0
C291 C 0.46843 0.89234 0.2318 0.0
C292 C 0.48987 0.89272 0.21816 0.0
C293 C 0.44954 0.87045 0.24875 0.0
H294 H 0.47707 0.83403 0.23814 0.0
H295 H 0.50468 0.90982 0.20605 0.0
C296 C 0.6056 0.88927 0.17232 0.0
N297 N 0.65113 0.89005 0.16606 0.0
C298 C 0.6099 0.87753 0.14344 0.0
C299 C 0.62461 0.90183 0.19765 0.0
C300 C 0.63301 0.87801 0.14086 0.0
C301 C 0.64746 0.90189 0.19411 0.0
C302 C 0.51784 0.82571 0.16431 0.0
C303 C 0.53451 0.82129 0.14422 0.0
C304 C 0.4946 0.80531 0.17498 0.0
C305 C 0.52777 0.79644 0.13543 0.0
C306 C 0.48854 0.78072 0.16565 0.0
N307 N 0.50512 0.77683 0.14626 0.0
C308 C 0.53812 0.81596 0.24017 0.0
C309 C 0.58045 0.83305 0.22068 0.0
C310 C 0.53801 0.79455 0.25362 0.0
N311 N 0.55904 0.83466 0.22382 0.0
C312 C 0.58118 0.81192 0.23376 0.0
C313 C 0.55969 0.79216 0.25029 0.0
H314 H 0.52131 0.81758 0.24255 0.0
H315 H 0.59697 0.84789 0.20779 0.0
C316 C 0.57242 0.89909 0.08287 0.0
N317 N 0.55179 0.88108 0.10054 0.0
C318 C 0.57271 0.89967 0.04573 0.0
C319 C 0.53071 0.86291 0.04566 0.0
C320 C 0.53111 0.86323 0.08276 0.0
C321 C 0.55167 0.88135 0.02661 0.0
H322 H 0.5886 0.91311 0.09766 0.0
H323 H 0.5148 0.84931 0.0974 0.0
O324 O 0.54968 0.88297 0.24148 0.0
O325 O 0.54467 0.90718 0.17499 0.0
O326 O 0.5832 0.88918 0.17515 0.0
O327 O 0.52441 0.84988 0.17394 0.0
H328 H 0.51284 0.85244 0.28494 0.0
H329 H 0.59344 0.89143 0.26796 0.0
H330 H 0.51903 0.83411 0.34027 0.0
H331 H 0.59827 0.87239 0.32352 0.0
H332 H 0.49339 0.90335 0.08485 0.0
H333 H 0.57715 0.94981 0.14267 0.0
H334 H 0.50127 0.88603 0.13997 0.0
H335 H 0.56798 0.96599 0.08747 0.0
H336 H 0.60412 0.97372 0.29897 0.0
H337 H 0.64212 0.99864 0.19777 0.0
H338 H 0.43865 0.83184 0.26347 0.0
H339 H 0.46678 0.90916 0.22922 0.0
H340 H 0.59559 0.86819 0.1232 0.0
H341 H 0.6218 0.91149 0.21973 0.0
H342 H 0.63655 0.86888 0.11877 0.0
H343 H 0.6623 0.91141 0.21362 0.0
H344 H 0.55255 0.83689 0.13582 0.0
H345 H 0.48147 0.80842 0.19051 0.0
H346 H 0.54056 0.79273 0.12007 0.0
H347 H 0.47067 0.76473 0.17387 0.0
H348 H 0.52111 0.78009 0.26669 0.0
H349 H 0.59827 0.81087 0.23027 0.0
H350 H 0.58934 0.91412 0.03213 0.0
H351 H 0.51397 0.84866 0.03203 0.0
Li352 Li 0.65118 0.52223 0.20416 0.0
Li353 Li 0.66731 0.57066 0.20538 0.0
Li354 Li 0.67351 0.5498 0.15153 0.0
Li355 Li 0.69612 0.5537 0.20479 0.0
C356 C 0.62605 0.53815 0.14531 0.0
N357 N 0.59806 0.52871 0.08383 0.0
C358 C 0.62234 0.55705 0.13048 0.0
C359 C 0.61548 0.51442 0.12899 0.0
C360 C 0.60813 0.55191 0.09936 0.0
C361 C 0.6014 0.51003 0.09789 0.0
C362 C 0.68283 0.55116 0.27244 0.0
C363 C 0.71464 0.57807 0.31477 0.0
N364 N 0.70964 0.5573 0.33428 0.0
C365 C 0.67782 0.5301 0.29306 0.0
C366 C 0.70121 0.57537 0.2835 0.0
C367 C 0.69165 0.53359 0.32419 0.0
C368 C 0.62733 0.47275 0.23608 0.0
N369 N 0.62377 0.49091 0.22063 0.0
C370 C 0.57927 0.46683 0.23179 0.0
C371 C 0.60034 0.48827 0.21814 0.0
C372 C 0.58227 0.44794 0.24875 0.0
C373 C 0.60671 0.45097 0.25038 0.0
H374 H 0.64623 0.47549 0.23815 0.0
H375 H 0.59804 0.50308 0.20603 0.0
C376 C 0.65752 0.61208 0.20242 0.0
N377 N 0.65826 0.59441 0.22363 0.0
C378 C 0.64765 0.62696 0.21529 0.0
C379 C 0.64063 0.60599 0.27198 0.0
C380 C 0.65041 0.59141 0.25796 0.0
C381 C 0.63862 0.6237 0.25038 0.0
H382 H 0.66387 0.61409 0.17519 0.0
H383 H 0.6509 0.57702 0.27416 0.0
C384 C 0.69531 0.51624 0.16432 0.0
N385 N 0.73148 0.50352 0.14629 0.0
C386 C 0.71641 0.53291 0.14423 0.0
C387 C 0.69248 0.49301 0.175 0.0
C388 C 0.73452 0.52617 0.13545 0.0
C389 C 0.71101 0.48695 0.16568 0.0
C390 C 0.71951 0.604 0.17231 0.0
C391 C 0.73556 0.6083 0.14343 0.0
C392 C 0.72598 0.62302 0.19764 0.0
C393 C 0.75819 0.6314 0.14084 0.0
C394 C 0.74877 0.64587 0.1941 0.0
N395 N 0.76428 0.64953 0.16604 0.0
C396 C 0.67651 0.57083 0.08286 0.0
C397 C 0.67107 0.52952 0.08275 0.0
C398 C 0.67622 0.57112 0.04573 0.0
N399 N 0.6739 0.5502 0.10053 0.0
C400 C 0.67099 0.52912 0.04566 0.0
C401 C 0.67352 0.55008 0.02661 0.0
H402 H 0.67866 0.587 0.09766 0.0
H403 H 0.66868 0.51321 0.0974 0.0
C404 C 0.72535 0.53652 0.24017 0.0
N405 N 0.72757 0.55745 0.22382 0.0
C406 C 0.74665 0.53642 0.25363 0.0
C407 C 0.77245 0.57958 0.23375 0.0
C408 C 0.75059 0.57885 0.22067 0.0
C409 C 0.77071 0.55809 0.25029 0.0
H410 H 0.70691 0.51972 0.24257 0.0
H411 H 0.75227 0.59537 0.20777 0.0
O412 O 0.64068 0.54307 0.17499 0.0
O413 O 0.6699 0.54809 0.24148 0.0
O414 O 0.67772 0.52282 0.17393 0.0
O415 O 0.69722 0.58161 0.17515 0.0
H416 H 0.63053 0.57556 0.14268 0.0
H417 H 0.61844 0.49968 0.13996 0.0
H418 H 0.60518 0.56639 0.08748 0.0
H419 H 0.59324 0.4918 0.08484 0.0
H420 H 0.72906 0.59668 0.32351 0.0
H421 H 0.66358 0.51125 0.28495 0.0
H422 H 0.7052 0.59185 0.26794 0.0
H423 H 0.6881 0.51745 0.34028 0.0
H424 H 0.5608 0.46517 0.2292 0.0
H425 H 0.61 0.43706 0.26348 0.0
H426 H 0.64667 0.64052 0.19777 0.0
H427 H 0.63359 0.60253 0.29897 0.0
H428 H 0.71885 0.55095 0.13582 0.0
H429 H 0.67624 0.47988 0.19052 0.0
H430 H 0.75102 0.53896 0.12009 0.0
H431 H 0.70914 0.46908 0.17391 0.0
H432 H 0.73059 0.59399 0.12319 0.0
H433 H 0.71351 0.62021 0.21972 0.0
H434 H 0.77086 0.63495 0.11875 0.0
H435 H 0.75409 0.66071 0.2136 0.0
H436 H 0.6784 0.58774 0.03212 0.0
H437 H 0.66851 0.51239 0.03203 0.0
H438 H 0.7442 0.51952 0.26671 0.0
H439 H 0.79059 0.59667 0.23025 0.0
Li440 Li 0.1269 0.67192 0.15153 0.0
Li441 Li 0.14561 0.69452 0.20479 0.0
Li442 Li 0.13214 0.64959 0.20416 0.0
Li443 Li 0.09985 0.66572 0.20538 0.0
C444 C 0.18227 0.69372 0.16431 0.0
N445 N 0.23115 0.72989 0.14628 0.0
C446 C 0.18669 0.71481 0.14422 0.0
C447 C 0.20267 0.69089 0.17499 0.0
C448 C 0.21155 0.73292 0.13544 0.0
C449 C 0.22726 0.70942 0.16566 0.0
C450 C 0.11871 0.71792 0.17232 0.0
C451 C 0.10609 0.74717 0.1941 0.0
N452 N 0.11794 0.76268 0.16605 0.0
C453 C 0.13045 0.73396 0.14343 0.0
C454 C 0.10615 0.72438 0.19764 0.0
C455 C 0.12997 0.75659 0.14085 0.0
C456 C 0.10888 0.67492 0.08286 0.0
N457 N 0.1269 0.6723 0.10053 0.0
C458 C 0.14506 0.66939 0.04566 0.0
C459 C 0.14475 0.66948 0.08275 0.0
C460 C 0.12663 0.67192 0.02661 0.0
C461 C 0.1083 0.67462 0.04573 0.0
H462 H 0.09486 0.67707 0.09766 0.0
H463 H 0.15867 0.66708 0.0974 0.0
C464 C 0.19202 0.72375 0.24017 0.0
N465 N 0.17331 0.72597 0.22382 0.0
C466 C 0.21343 0.74505 0.25362 0.0
C467 C 0.19606 0.77086 0.23376 0.0
C468 C 0.17493 0.74899 0.22068 0.0
C469 C 0.21582 0.76912 0.25029 0.0
H470 H 0.1904 0.70532 0.24256 0.0
H471 H 0.16009 0.75067 0.20779 0.0
C472 C 0.09109 0.62445 0.14531 0.0
N473 N 0.07255 0.59647 0.08383 0.0
C474 C 0.06848 0.62074 0.13048 0.0
C475 C 0.10425 0.61388 0.12899 0.0
C476 C 0.05941 0.60653 0.09936 0.0
C477 C 0.09457 0.59981 0.09789 0.0
C478 C 0.13486 0.68123 0.27244 0.0
C479 C 0.15092 0.67623 0.29305 0.0
C480 C 0.12904 0.69961 0.2835 0.0
C481 C 0.16126 0.69005 0.32418 0.0
C482 C 0.13977 0.71305 0.31477 0.0
N483 N 0.15555 0.70805 0.33427 0.0
C484 C 0.15777 0.62573 0.23608 0.0
C485 C 0.11526 0.59874 0.21814 0.0
C486 C 0.15894 0.60512 0.25038 0.0
N487 N 0.13606 0.62218 0.22063 0.0
C488 C 0.11564 0.57767 0.23179 0.0
C489 C 0.13753 0.58068 0.24875 0.0
H490 H 0.17394 0.64464 0.23815 0.0
H491 H 0.09816 0.59645 0.20604 0.0
C492 C 0.04863 0.65592 0.20242 0.0
N493 N 0.06704 0.65666 0.22363 0.0
C494 C 0.02389 0.64605 0.21529 0.0
C495 C 0.03783 0.63903 0.27198 0.0
C496 C 0.06219 0.64881 0.25796 0.0
C497 C 0.01811 0.63702 0.25038 0.0
H498 H 0.05298 0.66227 0.17519 0.0
H499 H 0.07707 0.64931 0.27416 0.0
O500 O 0.1581 0.67613 0.17393 0.0
O501 O 0.1188 0.69562 0.17515 0.0
O502 O 0.1008 0.63908 0.17499 0.0
O503 O 0.125 0.6683 0.24148 0.0
H504 H 0.17109 0.71725 0.13582 0.0
H505 H 0.19956 0.67464 0.19051 0.0
H506 H 0.21525 0.74942 0.12008 0.0
H507 H 0.24325 0.70754 0.17388 0.0
H508 H 0.09657 0.75248 0.2136 0.0
H509 H 0.13979 0.72899 0.12319 0.0
H510 H 0.09649 0.71191 0.21972 0.0
H511 H 0.13911 0.76927 0.11876 0.0
H512 H 0.15932 0.66691 0.03203 0.0
H513 H 0.09385 0.6768 0.03212 0.0
H514 H 0.22789 0.74261 0.26669 0.0
H515 H 0.19711 0.78899 0.23027 0.0
H516 H 0.05816 0.62893 0.14268 0.0
H517 H 0.12195 0.61684 0.13996 0.0
H518 H 0.04198 0.60358 0.08748 0.0
H519 H 0.10463 0.59164 0.08484 0.0
H520 H 0.15553 0.66199 0.28495 0.0
H521 H 0.11654 0.7036 0.26795 0.0
H522 H 0.17386 0.68652 0.34027 0.0
H523 H 0.13558 0.72746 0.32351 0.0
H524 H 0.17614 0.60841 0.26347 0.0
H525 H 0.09883 0.55921 0.2292 0.0
H526 H 0.00934 0.64507 0.19777 0.0
H527 H 0.03425 0.63199 0.29897 0.0
Li528 Li 0.86396 0.5537 0.3092 0.0
Li529 Li 0.88267 0.5498 0.36246 0.0
Li530 Li 0.90973 0.57066 0.30861 0.0
Li531 Li 0.87743 0.52223 0.30983 0.0
C532 C 0.89087 0.604 0.34167 0.0
N533 N 0.89164 0.64953 0.34792 0.0
C534 C 0.87912 0.6083 0.37055 0.0
C535 C 0.90343 0.62301 0.31634 0.0
C536 C 0.87961 0.63141 0.37313 0.0
C537 C 0.90349 0.64586 0.31987 0.0
C538 C 0.82731 0.51624 0.34969 0.0
C539 C 0.78231 0.48694 0.34837 0.0
N540 N 0.77843 0.50352 0.36775 0.0
C541 C 0.82289 0.53291 0.36978 0.0
C542 C 0.8069 0.493 0.33903 0.0
C543 C 0.79804 0.52617 0.37858 0.0
C544 C 0.81755 0.53652 0.27384 0.0
N545 N 0.83626 0.55744 0.29018 0.0
C546 C 0.81352 0.57959 0.28023 0.0
C547 C 0.83465 0.57885 0.29331 0.0
C548 C 0.79375 0.55809 0.26371 0.0
C549 C 0.79614 0.53641 0.26039 0.0
H550 H 0.81917 0.51971 0.27146 0.0
H551 H 0.84949 0.59537 0.30619 0.0
C552 C 0.90069 0.57082 0.43113 0.0
N553 N 0.88267 0.55019 0.41346 0.0
C554 C 0.90127 0.57111 0.46826 0.0
C555 C 0.86451 0.52911 0.46833 0.0
C556 C 0.86482 0.52951 0.43124 0.0
C557 C 0.88294 0.55007 0.48738 0.0
H558 H 0.91471 0.587 0.41633 0.0
H559 H 0.85091 0.5132 0.41659 0.0
C560 C 0.87471 0.55115 0.24155 0.0
N561 N 0.85402 0.55728 0.17973 0.0
C562 C 0.85864 0.53009 0.22095 0.0
C563 C 0.88053 0.57536 0.23049 0.0
C564 C 0.8483 0.53358 0.18982 0.0
C565 C 0.8698 0.57806 0.19922 0.0
C566 C 0.91848 0.53814 0.36868 0.0
C567 C 0.94109 0.55705 0.38352 0.0
C568 C 0.90532 0.51441 0.385 0.0
C569 C 0.95015 0.5519 0.41464 0.0
C570 C 0.915 0.51001 0.4161 0.0
N571 N 0.93702 0.5287 0.43016 0.0
C572 C 0.96094 0.61208 0.31158 0.0
C573 C 0.94738 0.59141 0.25604 0.0
C574 C 0.98569 0.62695 0.29871 0.0
N575 N 0.94253 0.59441 0.29037 0.0
C576 C 0.97174 0.60599 0.24202 0.0
C577 C 0.99147 0.62369 0.26362 0.0
H578 H 0.95659 0.61408 0.33881 0.0
H579 H 0.9325 0.57702 0.23984 0.0
C580 C 0.8518 0.47274 0.27792 0.0
N581 N 0.87351 0.4909 0.29336 0.0
C582 C 0.85063 0.45096 0.26362 0.0
C583 C 0.89394 0.46683 0.28219 0.0
C584 C 0.89431 0.48827 0.29584 0.0
C585 C 0.87205 0.44794 0.26524 0.0
H586 H 0.83562 0.47547 0.27586 0.0
H587 H 0.91142 0.50308 0.30794 0.0
O588 O 0.89077 0.5816 0.33884 0.0
O589 O 0.85147 0.52281 0.34006 0.0
O590 O 0.88457 0.54808 0.27251 0.0
O591 O 0.90877 0.54307 0.339 0.0
H592 H 0.86978 0.59399 0.39079 0.0
H593 H 0.91309 0.6202 0.29426 0.0
H594 H 0.87047 0.63496 0.39521 0.0
H595 H 0.91301 0.6607 0.30037 0.0
H596 H 0.76632 0.46907 0.34015 0.0
H597 H 0.83849 0.55095 0.37818 0.0
H598 H 0.81001 0.47987 0.3235 0.0
H599 H 0.79433 0.53896 0.39394 0.0
H600 H 0.81247 0.59667 0.28371 0.0
H601 H 0.78168 0.51951 0.24732 0.0
H602 H 0.91571 0.58774 0.48187 0.0
H603 H 0.85026 0.51237 0.48197 0.0
H604 H 0.85403 0.51124 0.22906 0.0
H605 H 0.89303 0.59184 0.24603 0.0
H606 H 0.83569 0.51743 0.17374 0.0
H607 H 0.87399 0.59666 0.19048 0.0
H608 H 0.95141 0.57555 0.37133 0.0
H609 H 0.88762 0.49967 0.37402 0.0
H610 H 0.96758 0.56638 0.42652 0.0
H611 H 0.90494 0.49179 0.42914 0.0
H612 H 1.00024 0.64052 0.31623 0.0
H613 H 0.97532 0.60252 0.21503 0.0
H614 H 0.83343 0.43705 0.25053 0.0
H615 H 0.91075 0.46518 0.28477 0.0
Li616 Li 0.33606 0.88108 0.36247 0.0
Li617 Li 0.31346 0.86237 0.30921 0.0
Li618 Li 0.3584 0.87584 0.30984 0.0
Li619 Li 0.34226 0.90814 0.30861 0.0
C620 C 0.31426 0.82572 0.34969 0.0
N621 N 0.2781 0.77683 0.36773 0.0
C622 C 0.29317 0.8213 0.36977 0.0
C623 C 0.3171 0.80531 0.33901 0.0
C624 C 0.27506 0.79644 0.37856 0.0
C625 C 0.29857 0.78072 0.34835 0.0
C626 C 0.29006 0.88927 0.34168 0.0
C627 C 0.26081 0.90189 0.31989 0.0
N628 N 0.2453 0.89004 0.34794 0.0
C629 C 0.27401 0.87753 0.37056 0.0
C630 C 0.2836 0.90183 0.31635 0.0
C631 C 0.25139 0.87801 0.37314 0.0
C632 C 0.33306 0.8991 0.43113 0.0
N633 N 0.33568 0.88109 0.41346 0.0
C634 C 0.33859 0.86292 0.46834 0.0
C635 C 0.33851 0.86323 0.43124 0.0
C636 C 0.33606 0.88135 0.48739 0.0
C637 C 0.33335 0.89968 0.46826 0.0
H638 H 0.33091 0.91312 0.41633 0.0
H639 H 0.3409 0.84932 0.4166 0.0
C640 C 0.28423 0.81596 0.27383 0.0
N641 N 0.28201 0.83467 0.29018 0.0
C642 C 0.26293 0.79455 0.26038 0.0
C643 C 0.23712 0.81192 0.28023 0.0
C644 C 0.25898 0.83305 0.29331 0.0
C645 C 0.23886 0.79216 0.26371 0.0
H646 H 0.30266 0.81759 0.27144 0.0
H647 H 0.25731 0.84789 0.3062 0.0
C648 C 0.38353 0.91689 0.36868 0.0
N649 N 0.41151 0.93543 0.43016 0.0
C650 C 0.38724 0.9395 0.38352 0.0
C651 C 0.3941 0.90373 0.38501 0.0
C652 C 0.40145 0.94857 0.41464 0.0
C653 C 0.40817 0.91341 0.41611 0.0
C654 C 0.32675 0.87312 0.24155 0.0
C655 C 0.33175 0.85706 0.22094 0.0
C656 C 0.30837 0.87894 0.23049 0.0
C657 C 0.31792 0.84672 0.18982 0.0
C658 C 0.29493 0.86821 0.19922 0.0
N659 N 0.29993 0.85243 0.17972 0.0
C660 C 0.38225 0.85021 0.27792 0.0
C661 C 0.40924 0.89272 0.29585 0.0
C662 C 0.40287 0.84904 0.26362 0.0
N663 N 0.3858 0.87192 0.29337 0.0
C664 C 0.43031 0.89234 0.2822 0.0
C665 C 0.4273 0.87045 0.26525 0.0
H666 H 0.36334 0.83404 0.27585 0.0
H667 H 0.41153 0.90982 0.30795 0.0
C668 C 0.35205 0.95935 0.31158 0.0
N669 N 0.35132 0.94094 0.29037 0.0
C670 C 0.36193 0.98409 0.29871 0.0
C671 C 0.36895 0.97015 0.24202 0.0
C672 C 0.35917 0.94579 0.25604 0.0
C673 C 0.37096 0.98987 0.26362 0.0
H674 H 0.3457 0.955 0.3388 0.0
H675 H 0.35867 0.93091 0.23984 0.0
O676 O 0.33185 0.84988 0.34006 0.0
O677 O 0.31236 0.88918 0.33884 0.0
O678 O 0.3689 0.90718 0.339 0.0
O679 O 0.33968 0.88298 0.27251 0.0
H680 H 0.29073 0.83689 0.37818 0.0
H681 H 0.33334 0.80843 0.32349 0.0
H682 H 0.25856 0.79273 0.39393 0.0
H683 H 0.30044 0.76473 0.34013 0.0
H684 H 0.25549 0.91141 0.30038 0.0
H685 H 0.27898 0.86819 0.3908 0.0
H686 H 0.29607 0.91149 0.29427 0.0
H687 H 0.23871 0.86887 0.39523 0.0
H688 H 0.34107 0.84866 0.48197 0.0
H689 H 0.33117 0.91413 0.48187 0.0
H690 H 0.26537 0.78009 0.24731 0.0
H691 H 0.21898 0.81087 0.28372 0.0
H692 H 0.37905 0.94982 0.37132 0.0
H693 H 0.39114 0.88603 0.37403 0.0
H694 H 0.40439 0.966 0.42652 0.0
H695 H 0.41634 0.90336 0.42915 0.0
H696 H 0.34599 0.85245 0.22905 0.0
H697 H 0.30438 0.89144 0.24604 0.0
H698 H 0.32146 0.83411 0.17373 0.0
H699 H 0.28052 0.8724 0.19049 0.0
H700 H 0.39957 0.83184 0.25053 0.0
H701 H 0.44877 0.90915 0.28479 0.0
H702 H 0.36291 0.99864 0.31623 0.0
H703 H 0.37599 0.97373 0.21503 0.0
Li704 Li 0.43731 0.34066 0.30861 0.0
Li705 Li 0.48574 0.3568 0.30983 0.0
Li706 Li 0.45428 0.31186 0.30921 0.0
Li707 Li 0.45818 0.33447 0.36247 0.0
C708 C 0.45682 0.32515 0.24155 0.0
N709 N 0.45069 0.29833 0.17972 0.0
C710 C 0.47788 0.33015 0.22095 0.0
C711 C 0.43262 0.30677 0.23049 0.0
C712 C 0.4744 0.31633 0.18982 0.0
C713 C 0.42992 0.29333 0.19922 0.0
C714 C 0.46983 0.38193 0.36868 0.0
C715 C 0.49796 0.40658 0.4161 0.0
N716 N 0.47928 0.40992 0.43016 0.0
C717 C 0.45093 0.38564 0.38352 0.0
C718 C 0.49356 0.3925 0.385 0.0
C719 C 0.45607 0.39985 0.41464 0.0
C720 C 0.3959 0.35046 0.31158 0.0
N721 N 0.41356 0.34972 0.29037 0.0
C722 C 0.40199 0.36735 0.24202 0.0
C723 C 0.41656 0.35756 0.25604 0.0
C724 C 0.38428 0.36936 0.26362 0.0
C725 C 0.38102 0.36033 0.29871 0.0
H726 H 0.39389 0.34411 0.33881 0.0
H727 H 0.43095 0.35707 0.23984 0.0
C728 C 0.53523 0.38065 0.27792 0.0
N729 N 0.51707 0.38421 0.29336 0.0
C730 C 0.55702 0.40127 0.26362 0.0
C731 C 0.54114 0.42871 0.28219 0.0
C732 C 0.5197 0.40764 0.29584 0.0
C733 C 0.56003 0.4257 0.26524 0.0
H734 H 0.5325 0.36175 0.27586 0.0
H735 H 0.50489 0.40993 0.30794 0.0
C736 C 0.40397 0.28846 0.34168 0.0
N737 N 0.35844 0.2437 0.34793 0.0
C738 C 0.39967 0.27241 0.37056 0.0
C739 C 0.38496 0.282 0.31635 0.0
C740 C 0.37657 0.24979 0.37313 0.0
C741 C 0.36211 0.25921 0.31988 0.0
C742 C 0.49173 0.31267 0.34969 0.0
C743 C 0.47506 0.29157 0.36978 0.0
C744 C 0.51497 0.3155 0.33902 0.0
C745 C 0.48181 0.27346 0.37857 0.0
C746 C 0.52103 0.29697 0.34836 0.0
N747 N 0.50445 0.2765 0.36774 0.0
C748 C 0.47146 0.28263 0.27383 0.0
C749 C 0.42912 0.25739 0.29331 0.0
C750 C 0.47156 0.26133 0.26038 0.0
N751 N 0.45053 0.28041 0.29018 0.0
C752 C 0.42839 0.23552 0.28023 0.0
C753 C 0.44989 0.23726 0.26371 0.0
H754 H 0.48826 0.30106 0.27145 0.0
H755 H 0.4126 0.25571 0.3062 0.0
C756 C 0.43715 0.33146 0.43113 0.0
N757 N 0.45778 0.33408 0.41346 0.0
C758 C 0.43686 0.33175 0.46826 0.0
C759 C 0.47886 0.337 0.46834 0.0
C760 C 0.47846 0.33691 0.43124 0.0
C761 C 0.4579 0.33446 0.48738 0.0
H762 H 0.42098 0.32931 0.41633 0.0
H763 H 0.49477 0.33931 0.4166 0.0
O764 O 0.45989 0.33808 0.27251 0.0
O765 O 0.46491 0.3673 0.339 0.0
O766 O 0.42637 0.31076 0.33884 0.0
O767 O 0.48516 0.33026 0.34006 0.0
H768 H 0.49673 0.34439 0.22906 0.0
H769 H 0.41613 0.30278 0.24604 0.0
H770 H 0.49054 0.31987 0.17373 0.0
H771 H 0.41131 0.27892 0.19048 0.0
H772 H 0.51618 0.41475 0.42914 0.0
H773 H 0.43242 0.37744 0.37133 0.0
H774 H 0.5083 0.38955 0.37402 0.0
H775 H 0.44159 0.40279 0.42652 0.0
H776 H 0.40545 0.37439 0.21503 0.0
H777 H 0.36745 0.36131 0.31623 0.0
H778 H 0.57093 0.39798 0.25054 0.0
H779 H 0.5428 0.44717 0.28477 0.0
H780 H 0.41398 0.27738 0.3908 0.0
H781 H 0.38777 0.29447 0.29426 0.0
H782 H 0.37302 0.23711 0.39522 0.0
H783 H 0.34727 0.2539 0.30037 0.0
H784 H 0.45702 0.28913 0.37818 0.0
H785 H 0.5281 0.33174 0.3235 0.0
H786 H 0.46901 0.25697 0.39394 0.0
H787 H 0.5389 0.29884 0.34014 0.0
H788 H 0.48846 0.26377 0.24731 0.0
H789 H 0.4113 0.21739 0.28372 0.0
H790 H 0.42023 0.32957 0.48187 0.0
H791 H 0.4956 0.33948 0.48197 0.0
Li792 Li 0.13214 0.48415 0.30983 0.0
Li793 Li 0.09985 0.43572 0.30861 0.0
Li794 Li 0.12691 0.45659 0.36246 0.0
Li795 Li 0.14561 0.45269 0.3092 0.0
C796 C 0.0911 0.46824 0.36868 0.0
N797 N 0.07256 0.47768 0.43016 0.0
C798 C 0.06848 0.44933 0.38352 0.0
C799 C 0.10426 0.49197 0.385 0.0
C800 C 0.05942 0.45448 0.41464 0.0
C801 C 0.09458 0.49637 0.4161 0.0
C802 C 0.13487 0.45523 0.24155 0.0
C803 C 0.13978 0.42833 0.19922 0.0
N804 N 0.15556 0.4491 0.17972 0.0
C805 C 0.15093 0.47629 0.22095 0.0
C806 C 0.12904 0.43103 0.23049 0.0
C807 C 0.16127 0.47281 0.18982 0.0
C808 C 0.15778 0.53364 0.27792 0.0
N809 N 0.13606 0.51548 0.29336 0.0
C810 C 0.11564 0.53955 0.28219 0.0
C811 C 0.11526 0.51811 0.29584 0.0
C812 C 0.13753 0.55844 0.26524 0.0
C813 C 0.15894 0.55542 0.26362 0.0
H814 H 0.17395 0.53091 0.27586 0.0
H815 H 0.09816 0.5033 0.30794 0.0
C816 C 0.04863 0.39431 0.31158 0.0
N817 N 0.06704 0.41197 0.29037 0.0
C818 C 0.02389 0.37943 0.29871 0.0
C819 C 0.03783 0.4004 0.24202 0.0
C820 C 0.06219 0.41497 0.25604 0.0
C821 C 0.01811 0.38269 0.26362 0.0
H822 H 0.05298 0.3923 0.3388 0.0
H823 H 0.07707 0.42936 0.23984 0.0
C824 C 0.18227 0.49014 0.34969 0.0
N825 N 0.23115 0.50286 0.36775 0.0
C826 C 0.18668 0.47347 0.36978 0.0
C827 C 0.20267 0.51338 0.33902 0.0
C828 C 0.21154 0.48022 0.37857 0.0
C829 C 0.22726 0.51944 0.34836 0.0
C830 C 0.1187 0.40238 0.34167 0.0
C831 C 0.13045 0.39808 0.37055 0.0
C832 C 0.10615 0.38337 0.31634 0.0
C833 C 0.12997 0.37497 0.37313 0.0
C834 C 0.10609 0.36052 0.31987 0.0
N835 N 0.11793 0.35685 0.34792 0.0
C836 C 0.10889 0.43556 0.43113 0.0
C837 C 0.14475 0.47688 0.43124 0.0
C838 C 0.10831 0.43527 0.46826 0.0
N839 N 0.1269 0.45619 0.41346 0.0
C840 C 0.14506 0.47728 0.46833 0.0
C841 C 0.12663 0.45631 0.48738 0.0
H842 H 0.09487 0.41939 0.41633 0.0
H843 H 0.15866 0.49319 0.41659 0.0
C844 C 0.19203 0.46987 0.27383 0.0
N845 N 0.17332 0.44894 0.29018 0.0
C846 C 0.21343 0.46997 0.26038 0.0
C847 C 0.19606 0.4268 0.28023 0.0
C848 C 0.17493 0.42753 0.29331 0.0
C849 C 0.21582 0.4483 0.26371 0.0
H850 H 0.1904 0.48667 0.27145 0.0
H851 H 0.16008 0.41101 0.30619 0.0
O852 O 0.1008 0.46332 0.339 0.0
O853 O 0.12501 0.4583 0.27251 0.0
O854 O 0.1581 0.48357 0.34006 0.0
O855 O 0.1188 0.42478 0.33884 0.0
H856 H 0.05817 0.43083 0.37133 0.0
H857 H 0.12195 0.50671 0.37402 0.0
H858 H 0.04199 0.44 0.42652 0.0
H859 H 0.10463 0.51459 0.42914 0.0
H860 H 0.13559 0.40972 0.19048 0.0
H861 H 0.15554 0.49514 0.22906 0.0
H862 H 0.11654 0.41454 0.24603 0.0
H863 H 0.17388 0.48896 0.17374 0.0
H864 H 0.09882 0.5412 0.28477 0.0
H865 H 0.17615 0.56934 0.25053 0.0
H866 H 0.00933 0.36586 0.31623 0.0
H867 H 0.03425 0.40386 0.21503 0.0
H868 H 0.17109 0.45543 0.37818 0.0
H869 H 0.19956 0.52651 0.3235 0.0
H870 H 0.21524 0.46742 0.39394 0.0
H871 H 0.24325 0.53731 0.34015 0.0
H872 H 0.13979 0.41239 0.3908 0.0
H873 H 0.09649 0.38618 0.29426 0.0
H874 H 0.1391 0.37142 0.39522 0.0
H875 H 0.09656 0.34568 0.30037 0.0
H876 H 0.09386 0.41865 0.48187 0.0
H877 H 0.15932 0.49401 0.48197 0.0
H878 H 0.22789 0.48687 0.24732 0.0
H879 H 0.19711 0.40971 0.28371 0.0
Li880 Li 0.67351 0.12531 0.36247 0.0
Li881 Li 0.69611 0.14401 0.30921 0.0
Li882 Li 0.65118 0.13054 0.30984 0.0
Li883 Li 0.66731 0.09825 0.30861 0.0
C884 C 0.69531 0.18067 0.34968 0.0
N885 N 0.73148 0.22955 0.36772 0.0
C886 C 0.71641 0.18509 0.36977 0.0
C887 C 0.69248 0.20107 0.339 0.0
C888 C 0.73452 0.20995 0.37855 0.0
C889 C 0.71101 0.22566 0.34833 0.0
C890 C 0.71951 0.11711 0.34168 0.0
C891 C 0.74876 0.1045 0.31989 0.0
N892 N 0.76428 0.11634 0.34795 0.0
C893 C 0.73556 0.12886 0.37056 0.0
C894 C 0.72597 0.10455 0.31635 0.0
C895 C 0.75818 0.12838 0.37315 0.0
C896 C 0.67651 0.10728 0.43113 0.0
N897 N 0.6739 0.1253 0.41346 0.0
C898 C 0.67099 0.14346 0.46834 0.0
C899 C 0.67107 0.14315 0.43124 0.0
C900 C 0.67351 0.12503 0.48739 0.0
C901 C 0.67622 0.1067 0.46826 0.0
H902 H 0.67866 0.09326 0.41633 0.0
H903 H 0.66868 0.15707 0.4166 0.0
C904 C 0.72535 0.19042 0.27383 0.0
N905 N 0.72757 0.17172 0.29018 0.0
C906 C 0.74665 0.21183 0.26037 0.0
C907 C 0.77245 0.19447 0.28024 0.0
C908 C 0.75059 0.17334 0.29332 0.0
C909 C 0.77071 0.21422 0.26371 0.0
H910 H 0.70691 0.1888 0.27144 0.0
H911 H 0.75226 0.15849 0.30621 0.0
C912 C 0.62605 0.0895 0.36868 0.0
N913 N 0.59806 0.07095 0.43016 0.0
C914 C 0.62234 0.06688 0.38352 0.0
C915 C 0.61548 0.10266 0.38501 0.0
C916 C 0.60813 0.05781 0.41463 0.0
C917 C 0.6014 0.09297 0.41611 0.0
C918 C 0.68283 0.13327 0.24155 0.0
C919 C 0.67783 0.14932 0.22094 0.0
C920 C 0.70121 0.12744 0.23049 0.0
C921 C 0.69165 0.15966 0.18981 0.0
C922 C 0.71464 0.13817 0.19923 0.0
N923 N 0.70964 0.15395 0.17972 0.0
C924 C 0.62733 0.15617 0.27792 0.0
C925 C 0.60034 0.11367 0.29585 0.0
C926 C 0.60671 0.15734 0.26361 0.0
N927 N 0.62377 0.13446 0.29337 0.0
C928 C 0.57927 0.11404 0.2822 0.0
C929 C 0.58227 0.13593 0.26525 0.0
H930 H 0.64623 0.17235 0.27585 0.0
H931 H 0.59804 0.09656 0.30796 0.0
C932 C 0.65752 0.04704 0.31158 0.0
N933 N 0.65826 0.06544 0.29037 0.0
C934 C 0.64765 0.02229 0.29871 0.0
C935 C 0.64062 0.03623 0.24202 0.0
C936 C 0.65041 0.06059 0.25604 0.0
C937 C 0.63861 0.01651 0.26362 0.0
H938 H 0.66387 0.05139 0.3388 0.0
H939 H 0.6509 0.07547 0.23984 0.0
O940 O 0.67772 0.1565 0.34007 0.0
O941 O 0.69721 0.1172 0.33884 0.0
O942 O 0.64068 0.0992 0.339 0.0
O943 O 0.66989 0.12341 0.27251 0.0
H944 H 0.71885 0.16949 0.37818 0.0
H945 H 0.67624 0.19796 0.32348 0.0
H946 H 0.75102 0.21365 0.39392 0.0
H947 H 0.70914 0.24165 0.34011 0.0
H948 H 0.75408 0.09498 0.30039 0.0
H949 H 0.73059 0.1382 0.3908 0.0
H950 H 0.71351 0.0949 0.29427 0.0
H951 H 0.77086 0.13751 0.39524 0.0
H952 H 0.66851 0.15772 0.48197 0.0
H953 H 0.6784 0.09225 0.48187 0.0
H954 H 0.74421 0.22629 0.2473 0.0
H955 H 0.79059 0.19552 0.28373 0.0
H956 H 0.63053 0.05657 0.37132 0.0
H957 H 0.61843 0.12035 0.37404 0.0
H958 H 0.60518 0.04039 0.42651 0.0
H959 H 0.59323 0.10303 0.42916 0.0
H960 H 0.66359 0.15393 0.22905 0.0
H961 H 0.70519 0.11495 0.24605 0.0
H962 H 0.68811 0.17226 0.17372 0.0
H963 H 0.72906 0.13398 0.19049 0.0
H964 H 0.61 0.17454 0.25052 0.0
H965 H 0.5608 0.09723 0.28479 0.0
H966 H 0.64667 0.00774 0.31623 0.0
H967 H 0.63358 0.03266 0.21503 0.0
Li968 Li 0.5553 0.69452 0.30921 0.0
Li969 Li 0.5514 0.67192 0.36247 0.0
Li970 Li 0.57226 0.66572 0.30861 0.0
Li971 Li 0.52383 0.64959 0.30983 0.0
C972 C 0.6056 0.71792 0.34168 0.0
N973 N 0.65114 0.76269 0.34793 0.0
C974 C 0.6099 0.73397 0.37056 0.0
C975 C 0.62462 0.72438 0.31635 0.0
C976 C 0.63301 0.75659 0.37313 0.0
C977 C 0.64746 0.74717 0.31988 0.0
C978 C 0.51784 0.69372 0.34969 0.0
C979 C 0.48854 0.70941 0.34835 0.0
N980 N 0.50512 0.72988 0.36774 0.0
C981 C 0.53451 0.71481 0.36977 0.0
C982 C 0.4946 0.69088 0.33901 0.0
C983 C 0.52777 0.73292 0.37857 0.0
C984 C 0.53812 0.72375 0.27383 0.0
N985 N 0.55905 0.72597 0.29018 0.0
C986 C 0.58118 0.77086 0.28024 0.0
C987 C 0.58045 0.749 0.29332 0.0
C988 C 0.55969 0.76912 0.26371 0.0
C989 C 0.53801 0.74505 0.26038 0.0
H990 H 0.52131 0.70532 0.27144 0.0
H991 H 0.59697 0.75067 0.3062 0.0
C992 C 0.57242 0.67492 0.43113 0.0
N993 N 0.55179 0.6723 0.41346 0.0
C994 C 0.57271 0.67463 0.46826 0.0
C995 C 0.53071 0.66939 0.46834 0.0
C996 C 0.53111 0.66947 0.43124 0.0
C997 C 0.55168 0.67192 0.48738 0.0
H998 H 0.5886 0.67708 0.41633 0.0
H999 H 0.5148 0.66708 0.4166 0.0
C1000 C 0.55275 0.68123 0.24155 0.0
N1001 N 0.55889 0.70805 0.17972 0.0
C1002 C 0.53169 0.67623 0.22095 0.0
C1003 C 0.57696 0.69961 0.23049 0.0
C1004 C 0.53518 0.69006 0.18982 0.0
C1005 C 0.57966 0.71305 0.19922 0.0
C1006 C 0.53974 0.62446 0.36868 0.0
C1007 C 0.55865 0.62075 0.38352 0.0
C1008 C 0.51601 0.61388 0.385 0.0
C1009 C 0.5535 0.60653 0.41464 0.0
C1010 C 0.51161 0.59981 0.4161 0.0
N1011 N 0.5303 0.59647 0.43016 0.0
C1012 C 0.61368 0.65593 0.31158 0.0
C1013 C 0.59301 0.64882 0.25604 0.0
C1014 C 0.62855 0.64605 0.29871 0.0
N1015 N 0.59601 0.65667 0.29037 0.0
C1016 C 0.60759 0.63903 0.24202 0.0
C1017 C 0.62529 0.63702 0.26362 0.0
H1018 H 0.61568 0.66228 0.33881 0.0
H1019 H 0.57862 0.64931 0.23984 0.0
C1020 C 0.47434 0.62573 0.27792 0.0
N1021 N 0.4925 0.62218 0.29336 0.0
C1022 C 0.45256 0.60511 0.26362 0.0
C1023 C 0.46843 0.57768 0.28219 0.0
C1024 C 0.48987 0.59875 0.29584 0.0
C1025 C 0.44954 0.58068 0.26524 0.0
H1026 H 0.47708 0.64464 0.27586 0.0
H1027 H 0.50468 0.59646 0.30794 0.0
O1028 O 0.5832 0.69562 0.33884 0.0
O1029 O 0.52441 0.67613 0.34006 0.0
O1030 O 0.54968 0.6683 0.27251 0.0
O1031 O 0.54467 0.63909 0.339 0.0
H1032 H 0.59559 0.729 0.3908 0.0
H1033 H 0.62181 0.71191 0.29427 0.0
H1034 H 0.63656 0.76928 0.39523 0.0
H1035 H 0.6623 0.75249 0.30038 0.0
H1036 H 0.47068 0.70754 0.34013 0.0
H1037 H 0.55255 0.71725 0.37818 0.0
H1038 H 0.48147 0.67464 0.32349 0.0
H1039 H 0.54056 0.74942 0.39393 0.0
H1040 H 0.59827 0.789 0.28373 0.0
H1041 H 0.52111 0.74261 0.24731 0.0
H1042 H 0.58934 0.67681 0.48187 0.0
H1043 H 0.51397 0.66691 0.48197 0.0
H1044 H 0.51284 0.66199 0.22906 0.0
H1045 H 0.59344 0.7036 0.24604 0.0
H1046 H 0.51903 0.68652 0.17373 0.0
H1047 H 0.59827 0.72747 0.19048 0.0
H1048 H 0.57716 0.62894 0.37133 0.0
H1049 H 0.50127 0.61684 0.37402 0.0
H1050 H 0.56798 0.60359 0.42652 0.0
H1051 H 0.49339 0.59164 0.42914 0.0
H1052 H 0.64212 0.64507 0.31623 0.0
H1053 H 0.60413 0.632 0.21503 0.0
H1054 H 0.43865 0.6084 0.25053 0.0
H1055 H 0.46678 0.55921 0.28477 0.0
Li1056 Li 0.56979 0.90716 0.80949 0.0
Li1057 Li 0.55059 0.8821 0.86217 0.0
Li1058 Li 0.55653 0.86249 0.80673 0.0
Li1059 Li 0.52503 0.87736 0.80895 0.0
C1060 C 0.60759 0.90263 0.84506 0.0
N1061 N 0.65885 0.93159 0.85878 0.0
C1062 C 0.61641 0.92201 0.87028 0.0
C1063 C 0.62477 0.89783 0.82699 0.0
C1064 C 0.64242 0.93648 0.87679 0.0
C1065 C 0.65064 0.91273 0.83425 0.0
C1066 C 0.52673 0.91049 0.8602 0.0
C1067 C 0.48931 0.89308 0.89688 0.0
N1068 N 0.49255 0.9167 0.90099 0.0
C1069 C 0.52967 0.93457 0.86473 0.0
C1070 C 0.50637 0.88954 0.87633 0.0
C1071 C 0.5122 0.93733 0.88548 0.0
C1072 C 0.57914 0.95108 0.77761 0.0
N1073 N 0.59243 0.94074 0.7916 0.0
C1074 C 0.63152 0.97857 0.77827 0.0
C1075 C 0.61822 0.95377 0.79162 0.0
C1076 C 0.61817 0.98986 0.76388 0.0
C1077 C 0.59154 0.97533 0.76307 0.0
H1078 H 0.55868 0.94026 0.77751 0.0
H1079 H 0.62862 0.9452 0.80208 0.0
C1080 C 0.54248 0.85948 0.93061 0.0
N1081 N 0.55099 0.88181 0.91314 0.0
C1082 C 0.54244 0.85887 0.96774 0.0
C1083 C 0.56026 0.90429 0.96826 0.0
C1084 C 0.55969 0.90399 0.93115 0.0
C1085 C 0.5515 0.88151 0.98708 0.0
H1086 H 0.53575 0.84214 0.91568 0.0
H1087 H 0.56616 0.92148 0.91667 0.0
C1088 C 0.56374 0.89388 0.74187 0.0
N1089 N 0.59286 0.91879 0.68333 0.0
C1090 C 0.55462 0.90404 0.71649 0.0
C1091 C 0.58757 0.89619 0.73736 0.0
C1092 C 0.56966 0.91662 0.6871 0.0
C1093 C 0.60203 0.9089 0.70762 0.0
C1094 C 0.50747 0.82606 0.82728 0.0
C1095 C 0.50217 0.82075 0.79118 0.0
C1096 C 0.49464 0.80686 0.85227 0.0
C1097 C 0.48414 0.79627 0.78069 0.0
C1098 C 0.47671 0.78262 0.84071 0.0
N1099 N 0.47189 0.77786 0.80546 0.0
C1100 C 0.57052 0.82448 0.81073 0.0
C1101 C 0.55647 0.82918 0.75415 0.0
C1102 C 0.57258 0.80386 0.79864 0.0
N1103 N 0.56234 0.83648 0.78856 0.0
C1104 C 0.55813 0.80862 0.741 0.0
C1105 C 0.56598 0.79539 0.76341 0.0
H1106 H 0.57497 0.83062 0.83803 0.0
H1107 H 0.54972 0.83884 0.73714 0.0
C1108 C 0.49615 0.89371 0.77334 0.0
N1109 N 0.4936 0.87335 0.79163 0.0
C1110 C 0.47497 0.89373 0.75937 0.0
C1111 C 0.44861 0.85171 0.78324 0.0
C1112 C 0.47036 0.85265 0.79723 0.0
C1113 C 0.45081 0.87251 0.76413 0.0
H1114 H 0.51474 0.91008 0.76979 0.0
H1115 H 0.46856 0.83695 0.81279 0.0
O1116 O 0.58222 0.88804 0.83859 0.0
O1117 O 0.54368 0.90761 0.83982 0.0
O1118 O 0.54969 0.88217 0.7714 0.0
O1119 O 0.52536 0.84978 0.83822 0.0
H1120 H 0.60336 0.926 0.88438 0.0
H1121 H 0.61819 0.88271 0.80765 0.0
H1122 H 0.64954 0.95163 0.89611 0.0
H1123 H 0.66417 0.90927 0.82043 0.0
H1124 H 0.47348 0.87705 0.90954 0.0
H1125 H 0.5453 0.95095 0.85231 0.0
H1126 H 0.50371 0.87074 0.87309 0.0
H1127 H 0.51425 0.95586 0.88923 0.0
H1128 H 0.65198 0.9888 0.77981 0.0
H1129 H 0.58014 0.98241 0.75119 0.0
H1130 H 0.53572 0.84092 0.98116 0.0
H1131 H 0.56709 0.92212 0.98208 0.0
H1132 H 0.53619 0.90235 0.71952 0.0
H1133 H 0.59491 0.88847 0.75683 0.0
H1134 H 0.5629 0.92469 0.66732 0.0
H1135 H 0.62057 0.91097 0.70389 0.0
H1136 H 0.51171 0.83539 0.77146 0.0
H1137 H 0.49849 0.81065 0.8803 0.0
H1138 H 0.47986 0.79191 0.75285 0.0
H1139 H 0.46664 0.76758 0.85977 0.0
H1140 H 0.57904 0.79453 0.81682 0.0
H1141 H 0.55242 0.80263 0.71388 0.0
H1142 H 0.4775 0.91014 0.74474 0.0
H1143 H 0.43025 0.83516 0.78798 0.0
Li1144 Li 0.67168 0.549 0.86217 0.0
Li1145 Li 0.66582 0.5682 0.80948 0.0
Li1146 Li 0.65085 0.52344 0.80895 0.0
Li1147 Li 0.69723 0.55494 0.80672 0.0
C1148 C 0.61942 0.52514 0.86019 0.0
N1149 N 0.57904 0.49097 0.90098 0.0
C1150 C 0.59828 0.52808 0.86471 0.0
C1151 C 0.62001 0.50478 0.87633 0.0
C1152 C 0.57806 0.51061 0.88546 0.0
C1153 C 0.59941 0.48772 0.89687 0.0
C1154 C 0.70815 0.606 0.84506 0.0
C1155 C 0.74111 0.64904 0.83426 0.0
N1156 N 0.73047 0.65725 0.85881 0.0
C1157 C 0.69761 0.61482 0.8703 0.0
C1158 C 0.73014 0.62318 0.82699 0.0
C1159 C 0.70915 0.64082 0.87683 0.0
C1160 C 0.68619 0.5409 0.9306 0.0
N1161 N 0.67237 0.54941 0.91313 0.0
C1162 C 0.65915 0.55866 0.96825 0.0
C1163 C 0.65889 0.5581 0.93114 0.0
C1164 C 0.67318 0.54991 0.98708 0.0
C1165 C 0.68676 0.54086 0.96773 0.0
H1166 H 0.69682 0.53418 0.91567 0.0
H1167 H 0.64786 0.56456 0.91667 0.0
C1168 C 0.63126 0.57755 0.77755 0.0
N1169 N 0.65488 0.59084 0.79158 0.0
C1170 C 0.61942 0.58995 0.763 0.0
C1171 C 0.65613 0.62993 0.7783 0.0
C1172 C 0.66763 0.61663 0.79166 0.0
C1173 C 0.63151 0.61658 0.76386 0.0
H1174 H 0.62163 0.55709 0.77742 0.0
H1175 H 0.68659 0.62703 0.80216 0.0
C1176 C 0.6846 0.50588 0.82728 0.0
N1177 N 0.69721 0.4703 0.80546 0.0
C1178 C 0.6846 0.50058 0.79119 0.0
C1179 C 0.69097 0.49305 0.85227 0.0
C1180 C 0.69106 0.48255 0.78069 0.0
C1181 C 0.69728 0.47512 0.84071 0.0
C1182 C 0.67307 0.56215 0.74186 0.0
C1183 C 0.65379 0.55301 0.71646 0.0
C1184 C 0.69458 0.58597 0.73735 0.0
C1185 C 0.65626 0.56804 0.68706 0.0
C1186 C 0.69634 0.60043 0.7076 0.0
N1187 N 0.67729 0.59125 0.68329 0.0
C1188 C 0.60563 0.49456 0.77332 0.0
C1189 C 0.6209 0.46877 0.79724 0.0
C1190 C 0.58443 0.47337 0.75936 0.0
N1191 N 0.62344 0.492 0.79163 0.0
C1192 C 0.60009 0.44702 0.78325 0.0
C1193 C 0.58149 0.44921 0.76413 0.0
H1194 H 0.60786 0.51315 0.76977 0.0
H1195 H 0.63479 0.46697 0.81281 0.0
C1196 C 0.74924 0.56893 0.81073 0.0
N1197 N 0.72905 0.56074 0.78856 0.0
C1198 C 0.77191 0.57099 0.79863 0.0
C1199 C 0.7527 0.55653 0.74099 0.0
C1200 C 0.73048 0.55488 0.75414 0.0
C1201 C 0.77379 0.56439 0.76341 0.0
H1202 H 0.74754 0.57338 0.83802 0.0
H1203 H 0.71407 0.54812 0.73714 0.0
O1204 O 0.63926 0.54209 0.83981 0.0
O1205 O 0.69737 0.58063 0.83858 0.0
O1206 O 0.67877 0.52377 0.83822 0.0
O1207 O 0.67071 0.5481 0.7714 0.0
H1208 H 0.59753 0.54371 0.85229 0.0
H1209 H 0.63615 0.50212 0.87309 0.0
H1210 H 0.56157 0.51266 0.88921 0.0
H1211 H 0.59962 0.4719 0.90954 0.0
H1212 H 0.7581 0.66258 0.82043 0.0
H1213 H 0.68057 0.60177 0.88441 0.0
H1214 H 0.73868 0.6166 0.80764 0.0
H1215 H 0.70114 0.64795 0.89616 0.0
H1216 H 0.64815 0.56549 0.98207 0.0
H1217 H 0.698 0.53414 0.98116 0.0
H1218 H 0.60095 0.57856 0.75109 0.0
H1219 H 0.66635 0.65039 0.77987 0.0
H1220 H 0.6795 0.51011 0.77146 0.0
H1221 H 0.69104 0.49691 0.88031 0.0
H1222 H 0.69113 0.47826 0.75286 0.0
H1223 H 0.70226 0.46506 0.85977 0.0
H1224 H 0.63705 0.53457 0.71949 0.0
H1225 H 0.70962 0.59332 0.75683 0.0
H1226 H 0.64143 0.56127 0.66727 0.0
H1227 H 0.71281 0.61897 0.70388 0.0
H1228 H 0.57056 0.47591 0.74472 0.0
H1229 H 0.59827 0.42865 0.788 0.0
H1230 H 0.78771 0.57745 0.81681 0.0
H1231 H 0.75298 0.55082 0.71388 0.0
Li1232 Li 0.10081 0.66422 0.80948 0.0
Li1233 Li 0.12587 0.67008 0.86217 0.0
Li1234 Li 0.14549 0.69563 0.80673 0.0
Li1235 Li 0.13061 0.64926 0.80895 0.0
C1236 C 0.10535 0.70655 0.84506 0.0
N1237 N 0.07642 0.72887 0.85881 0.0
C1238 C 0.08599 0.69601 0.87031 0.0
C1239 C 0.11015 0.72854 0.82699 0.0
C1240 C 0.07153 0.70756 0.87683 0.0
C1241 C 0.09526 0.73951 0.83426 0.0
C1242 C 0.09748 0.61782 0.86019 0.0
C1243 C 0.11488 0.59781 0.89687 0.0
N1244 N 0.09126 0.57744 0.90098 0.0
C1245 C 0.0734 0.59668 0.86471 0.0
C1246 C 0.11843 0.61841 0.87633 0.0
C1247 C 0.07064 0.57646 0.88546 0.0
C1248 C 0.05691 0.62966 0.77754 0.0
N1249 N 0.06723 0.65328 0.79158 0.0
C1250 C 0.02939 0.65453 0.7783 0.0
C1251 C 0.05419 0.66603 0.79166 0.0
C1252 C 0.01812 0.62991 0.76386 0.0
C1253 C 0.03266 0.61783 0.763 0.0
H1254 H 0.06774 0.62004 0.77741 0.0
H1255 H 0.06275 0.68499 0.80217 0.0
C1256 C 0.14849 0.68459 0.9306 0.0
N1257 N 0.12616 0.67077 0.91314 0.0
C1258 C 0.1491 0.68517 0.96773 0.0
C1259 C 0.10368 0.65755 0.96825 0.0
C1260 C 0.10399 0.6573 0.93114 0.0
C1261 C 0.12646 0.67158 0.98708 0.0
H1262 H 0.16584 0.69522 0.91567 0.0
H1263 H 0.0865 0.64626 0.91667 0.0
C1264 C 0.11412 0.67147 0.74186 0.0
N1265 N 0.08924 0.67568 0.68329 0.0
C1266 C 0.10398 0.65219 0.71646 0.0
C1267 C 0.1118 0.69297 0.73735 0.0
C1268 C 0.09142 0.65465 0.68706 0.0
C1269 C 0.0991 0.69473 0.70759 0.0
C1270 C 0.18192 0.683 0.82728 0.0
C1271 C 0.18722 0.68301 0.79119 0.0
C1272 C 0.20111 0.68937 0.85227 0.0
C1273 C 0.21171 0.68946 0.78069 0.0
C1274 C 0.22536 0.69569 0.84071 0.0
N1275 N 0.23011 0.69562 0.80547 0.0
C1276 C 0.1835 0.74764 0.81073 0.0
C1277 C 0.1788 0.72889 0.75414 0.0
C1278 C 0.20412 0.77031 0.79864 0.0
N1279 N 0.1715 0.72745 0.78856 0.0
C1280 C 0.19936 0.75111 0.74099 0.0
C1281 C 0.21259 0.77219 0.76341 0.0
H1282 H 0.17736 0.74594 0.83803 0.0
H1283 H 0.16914 0.71247 0.73714 0.0
C1284 C 0.11427 0.60403 0.77333 0.0
N1285 N 0.13463 0.62184 0.79163 0.0
C1286 C 0.11425 0.58283 0.75936 0.0
C1287 C 0.15627 0.5985 0.78325 0.0
C1288 C 0.15533 0.61931 0.79724 0.0
C1289 C 0.13547 0.57989 0.76413 0.0
H1290 H 0.09791 0.60626 0.76977 0.0
H1291 H 0.17102 0.6332 0.8128 0.0
O1292 O 0.11994 0.69577 0.83858 0.0
O1293 O 0.10037 0.63767 0.83981 0.0
O1294 O 0.1258 0.66911 0.7714 0.0
O1295 O 0.15819 0.67717 0.83822 0.0
H1296 H 0.082 0.67898 0.88442 0.0
H1297 H 0.12527 0.73707 0.80764 0.0
H1298 H 0.05639 0.69954 0.89616 0.0
H1299 H 0.09871 0.7565 0.82043 0.0
H1300 H 0.13091 0.59802 0.90954 0.0
H1301 H 0.05702 0.59593 0.85229 0.0
H1302 H 0.13723 0.63456 0.87309 0.0
H1303 H 0.0521 0.55998 0.88922 0.0
H1304 H 0.01915 0.66475 0.77988 0.0
H1305 H 0.02559 0.59935 0.75107 0.0
H1306 H 0.16706 0.6964 0.98116 0.0
H1307 H 0.08585 0.64656 0.98207 0.0
H1308 H 0.10568 0.63545 0.71949 0.0
H1309 H 0.11949 0.70802 0.75683 0.0
H1310 H 0.08337 0.63983 0.66726 0.0
H1311 H 0.09703 0.7112 0.70387 0.0
H1312 H 0.17258 0.6779 0.77147 0.0
H1313 H 0.19733 0.68944 0.88031 0.0
H1314 H 0.21607 0.68954 0.75286 0.0
H1315 H 0.2404 0.70066 0.85977 0.0
H1316 H 0.21345 0.78611 0.81681 0.0
H1317 H 0.20536 0.75138 0.71388 0.0
H1318 H 0.09784 0.56896 0.74472 0.0
H1319 H 0.17281 0.59668 0.788 0.0
Li1320 Li 0.43978 0.09922 0.80948 0.0
Li1321 Li 0.45898 0.12428 0.86217 0.0
Li1322 Li 0.45305 0.14389 0.80673 0.0
Li1323 Li 0.48455 0.12902 0.80895 0.0
C1324 C 0.40199 0.10375 0.84506 0.0
N1325 N 0.35073 0.07481 0.85879 0.0
C1326 C 0.39316 0.08438 0.87029 0.0
C1327 C 0.3848 0.10856 0.82699 0.0
C1328 C 0.36715 0.06992 0.87681 0.0
C1329 C 0.35894 0.09366 0.83425 0.0
C1330 C 0.48285 0.09589 0.8602 0.0
C1331 C 0.52026 0.11329 0.89688 0.0
N1332 N 0.51702 0.08968 0.90099 0.0
C1333 C 0.47991 0.07181 0.86472 0.0
C1334 C 0.50321 0.11684 0.87633 0.0
C1335 C 0.49737 0.06905 0.88547 0.0
C1336 C 0.43044 0.05531 0.77758 0.0
N1337 N 0.41715 0.06564 0.79159 0.0
C1338 C 0.37806 0.02781 0.77828 0.0
C1339 C 0.39135 0.0526 0.79164 0.0
C1340 C 0.39141 0.01653 0.76387 0.0
C1341 C 0.41803 0.03106 0.76304 0.0
H1342 H 0.45089 0.06613 0.77746 0.0
H1343 H 0.38095 0.06117 0.80212 0.0
C1344 C 0.46709 0.1469 0.93061 0.0
N1345 N 0.45858 0.12457 0.91314 0.0
C1346 C 0.46713 0.14751 0.96774 0.0
C1347 C 0.44932 0.10209 0.96826 0.0
C1348 C 0.44988 0.1024 0.93115 0.0
C1349 C 0.45807 0.12487 0.98708 0.0
H1350 H 0.47382 0.16425 0.91568 0.0
H1351 H 0.44342 0.0849 0.91667 0.0
C1352 C 0.44584 0.11251 0.74187 0.0
N1353 N 0.41673 0.08762 0.68331 0.0
C1354 C 0.45497 0.10236 0.71648 0.0
C1355 C 0.42201 0.1102 0.73735 0.0
C1356 C 0.43994 0.08979 0.68708 0.0
C1357 C 0.40755 0.09749 0.7076 0.0
C1358 C 0.50211 0.18032 0.82728 0.0
C1359 C 0.50741 0.18563 0.79119 0.0
C1360 C 0.51493 0.19952 0.85227 0.0
C1361 C 0.52544 0.21012 0.78069 0.0
C1362 C 0.53287 0.22376 0.84071 0.0
N1363 N 0.53769 0.22852 0.80546 0.0
C1364 C 0.43905 0.18191 0.81073 0.0
C1365 C 0.4531 0.1772 0.75415 0.0
C1366 C 0.437 0.20252 0.79864 0.0
N1367 N 0.44724 0.16991 0.78856 0.0
C1368 C 0.45144 0.19777 0.741 0.0
C1369 C 0.44359 0.211 0.76341 0.0
H1370 H 0.43461 0.17577 0.83803 0.0
H1371 H 0.45986 0.16755 0.73714 0.0
C1372 C 0.51343 0.11267 0.77334 0.0
N1373 N 0.51598 0.13303 0.79163 0.0
C1374 C 0.53461 0.11265 0.75937 0.0
C1375 C 0.56096 0.15468 0.78324 0.0
C1376 C 0.53921 0.15374 0.79723 0.0
C1377 C 0.55877 0.13387 0.76413 0.0
H1378 H 0.49484 0.09631 0.76979 0.0
H1379 H 0.54101 0.16943 0.81279 0.0
O1380 O 0.42735 0.11835 0.83858 0.0
O1381 O 0.46589 0.09878 0.83981 0.0
O1382 O 0.45988 0.12421 0.7714 0.0
O1383 O 0.48422 0.1566 0.83822 0.0
H1384 H 0.40621 0.08039 0.8844 0.0
H1385 H 0.39138 0.12367 0.80764 0.0
H1386 H 0.36003 0.05477 0.89613 0.0
H1387 H 0.3454 0.09711 0.82042 0.0
H1388 H 0.53609 0.12933 0.90954 0.0
H1389 H 0.46427 0.05543 0.8523 0.0
H1390 H 0.50586 0.13564 0.87309 0.0
H1391 H 0.49532 0.05052 0.88923 0.0
H1392 H 0.35759 0.01757 0.77984 0.0
H1393 H 0.42943 0.02398 0.75114 0.0
H1394 H 0.47385 0.16546 0.98116 0.0
H1395 H 0.44248 0.08426 0.98208 0.0
H1396 H 0.4734 0.10406 0.71951 0.0
H1397 H 0.41467 0.1179 0.75682 0.0
H1398 H 0.44671 0.08173 0.6673 0.0
H1399 H 0.38901 0.09542 0.70388 0.0
H1400 H 0.49787 0.17099 0.77146 0.0
H1401 H 0.51108 0.19574 0.88031 0.0
H1402 H 0.52972 0.21448 0.75286 0.0
H1403 H 0.54294 0.2388 0.85977 0.0
H1404 H 0.43053 0.21186 0.81682 0.0
H1405 H 0.45716 0.20376 0.71388 0.0
H1406 H 0.53208 0.09624 0.74474 0.0
H1407 H 0.57933 0.17122 0.78798 0.0
Li1408 Li 0.3379 0.45738 0.86217 0.0
Li1409 Li 0.34376 0.43818 0.80948 0.0
Li1410 Li 0.35872 0.48295 0.80895 0.0
Li1411 Li 0.31235 0.45145 0.80672 0.0
C1412 C 0.39016 0.48125 0.8602 0.0
N1413 N 0.43054 0.51542 0.90099 0.0
C1414 C 0.41129 0.47831 0.86472 0.0
C1415 C 0.38956 0.50161 0.87633 0.0
C1416 C 0.43152 0.49578 0.88547 0.0
C1417 C 0.41016 0.51866 0.89687 0.0
C1418 C 0.30142 0.40039 0.84506 0.0
C1419 C 0.26847 0.35734 0.83425 0.0
N1420 N 0.2791 0.34913 0.85879 0.0
C1421 C 0.31197 0.39156 0.8703 0.0
C1422 C 0.27943 0.3832 0.82699 0.0
C1423 C 0.30042 0.36556 0.87681 0.0
C1424 C 0.32338 0.46549 0.9306 0.0
N1425 N 0.3372 0.45698 0.91313 0.0
C1426 C 0.35042 0.44772 0.96825 0.0
C1427 C 0.35068 0.44828 0.93114 0.0
C1428 C 0.33639 0.45647 0.98708 0.0
C1429 C 0.32281 0.46553 0.96773 0.0
H1430 H 0.31276 0.47221 0.91567 0.0
H1431 H 0.36171 0.44182 0.91667 0.0
C1432 C 0.37832 0.42884 0.77756 0.0
N1433 N 0.3547 0.41555 0.79159 0.0
C1434 C 0.39016 0.41643 0.76302 0.0
C1435 C 0.35344 0.37646 0.77829 0.0
C1436 C 0.34194 0.38975 0.79165 0.0
C1437 C 0.37807 0.38981 0.76386 0.0
H1438 H 0.38795 0.44929 0.77744 0.0
H1439 H 0.32298 0.37936 0.80214 0.0
C1440 C 0.32498 0.5005 0.82728 0.0
N1441 N 0.31236 0.53609 0.80547 0.0
C1442 C 0.32497 0.50581 0.79119 0.0
C1443 C 0.31861 0.51333 0.85227 0.0
C1444 C 0.31851 0.52384 0.78069 0.0
C1445 C 0.31229 0.53126 0.84071 0.0
C1446 C 0.33651 0.44424 0.74186 0.0
C1447 C 0.3558 0.45338 0.71647 0.0
C1448 C 0.315 0.42041 0.73735 0.0
C1449 C 0.35333 0.43834 0.68707 0.0
C1450 C 0.31325 0.40596 0.7076 0.0
N1451 N 0.3323 0.41514 0.6833 0.0
C1452 C 0.40395 0.51183 0.77333 0.0
C1453 C 0.38867 0.53761 0.79723 0.0
C1454 C 0.42515 0.53301 0.75936 0.0
N1455 N 0.38614 0.51438 0.79163 0.0
C1456 C 0.40948 0.55936 0.78325 0.0
C1457 C 0.42809 0.55717 0.76413 0.0
H1458 H 0.40172 0.49324 0.76978 0.0
H1459 H 0.37478 0.53941 0.8128 0.0
C1460 C 0.26034 0.43745 0.81073 0.0
N1461 N 0.28052 0.44564 0.78856 0.0
C1462 C 0.23766 0.4354 0.79864 0.0
C1463 C 0.25687 0.44985 0.74099 0.0
C1464 C 0.27909 0.4515 0.75414 0.0
C1465 C 0.23579 0.44199 0.76341 0.0
H1466 H 0.26203 0.43301 0.83802 0.0
H1467 H 0.2955 0.45826 0.73714 0.0
O1468 O 0.37031 0.46429 0.83981 0.0
O1469 O 0.3122 0.42575 0.83858 0.0
O1470 O 0.33081 0.48262 0.83821 0.0
O1471 O 0.33886 0.45828 0.7714 0.0
H1472 H 0.41204 0.46267 0.85229 0.0
H1473 H 0.37342 0.50426 0.87309 0.0
H1474 H 0.448 0.49372 0.88922 0.0
H1475 H 0.40996 0.53449 0.90954 0.0
H1476 H 0.25148 0.3438 0.82042 0.0
H1477 H 0.32901 0.40461 0.8844 0.0
H1478 H 0.2709 0.38978 0.80764 0.0
H1479 H 0.30844 0.35843 0.89614 0.0
H1480 H 0.36142 0.44089 0.98207 0.0
H1481 H 0.31157 0.47224 0.98116 0.0
H1482 H 0.40863 0.42783 0.75111 0.0
H1483 H 0.34322 0.35599 0.77986 0.0
H1484 H 0.33007 0.49627 0.77146 0.0
H1485 H 0.31854 0.50948 0.88031 0.0
H1486 H 0.31844 0.52812 0.75286 0.0
H1487 H 0.30732 0.54133 0.85977 0.0
H1488 H 0.37253 0.47181 0.7195 0.0
H1489 H 0.29996 0.41307 0.75683 0.0
H1490 H 0.36816 0.44511 0.66728 0.0
H1491 H 0.29677 0.38741 0.70387 0.0
H1492 H 0.43902 0.53048 0.74473 0.0
H1493 H 0.4113 0.57773 0.78799 0.0
H1494 H 0.22187 0.42894 0.81681 0.0
H1495 H 0.25659 0.45556 0.71388 0.0
Li1496 Li 0.90876 0.34216 0.80948 0.0
Li1497 Li 0.8837 0.3363 0.86217 0.0
Li1498 Li 0.86409 0.31075 0.80673 0.0
Li1499 Li 0.87896 0.35713 0.80895 0.0
C1500 C 0.90422 0.29983 0.84506 0.0
N1501 N 0.93316 0.27751 0.8588 0.0
C1502 C 0.92359 0.31037 0.8703 0.0
C1503 C 0.89942 0.27784 0.82699 0.0
C1504 C 0.93805 0.29883 0.87682 0.0
C1505 C 0.91431 0.26687 0.83426 0.0
C1506 C 0.9121 0.38856 0.8602 0.0
C1507 C 0.89469 0.40857 0.89687 0.0
N1508 N 0.91831 0.42894 0.90098 0.0
C1509 C 0.93618 0.4097 0.86472 0.0
C1510 C 0.89115 0.38797 0.87633 0.0
C1511 C 0.93893 0.42992 0.88546 0.0
C1512 C 0.95267 0.37672 0.77755 0.0
N1513 N 0.94234 0.35311 0.79159 0.0
C1514 C 0.98018 0.35186 0.77829 0.0
C1515 C 0.95538 0.34035 0.79166 0.0
C1516 C 0.99145 0.37648 0.76386 0.0
C1517 C 0.97691 0.38856 0.76301 0.0
H1518 H 0.94184 0.38635 0.77743 0.0
H1519 H 0.94682 0.32139 0.80215 0.0
C1520 C 0.86108 0.32179 0.9306 0.0
N1521 N 0.88341 0.33561 0.91314 0.0
C1522 C 0.86047 0.32122 0.96773 0.0
C1523 C 0.90589 0.34883 0.96825 0.0
C1524 C 0.90559 0.34908 0.93114 0.0
C1525 C 0.88311 0.3348 0.98708 0.0
H1526 H 0.84374 0.31117 0.91567 0.0
H1527 H 0.92308 0.36012 0.91667 0.0
C1528 C 0.89546 0.33492 0.74186 0.0
N1529 N 0.92035 0.3307 0.68329 0.0
C1530 C 0.9056 0.3542 0.71647 0.0
C1531 C 0.89778 0.31341 0.73735 0.0
C1532 C 0.91817 0.35173 0.68706 0.0
C1533 C 0.91048 0.31165 0.70759 0.0
C1534 C 0.82766 0.32338 0.82728 0.0
C1535 C 0.82235 0.32337 0.79119 0.0
C1536 C 0.80846 0.31701 0.85227 0.0
C1537 C 0.79786 0.31692 0.78069 0.0
C1538 C 0.78422 0.3107 0.84071 0.0
N1539 N 0.77946 0.31076 0.80546 0.0
C1540 C 0.82607 0.25874 0.81073 0.0
C1541 C 0.83078 0.2775 0.75414 0.0
C1542 C 0.80545 0.23607 0.79864 0.0
N1543 N 0.83807 0.27893 0.78856 0.0
C1544 C 0.81021 0.25527 0.74099 0.0
C1545 C 0.79698 0.23419 0.76341 0.0
H1546 H 0.83221 0.26044 0.83803 0.0
H1547 H 0.84043 0.29391 0.73714 0.0
C1548 C 0.89531 0.40235 0.77333 0.0
N1549 N 0.87495 0.38454 0.79163 0.0
C1550 C 0.89533 0.42355 0.75936 0.0
C1551 C 0.85331 0.40788 0.78325 0.0
C1552 C 0.85424 0.38707 0.79723 0.0
C1553 C 0.8741 0.42649 0.76413 0.0
H1554 H 0.91167 0.40012 0.76977 0.0
H1555 H 0.83856 0.37318 0.8128 0.0
O1556 O 0.88964 0.31061 0.83858 0.0
O1557 O 0.90921 0.36872 0.83981 0.0
O1558 O 0.88377 0.33727 0.7714 0.0
O1559 O 0.85138 0.32921 0.83822 0.0
H1560 H 0.92758 0.32741 0.88441 0.0
H1561 H 0.88431 0.26931 0.80764 0.0
H1562 H 0.95319 0.30684 0.89615 0.0
H1563 H 0.91086 0.24988 0.82042 0.0
H1564 H 0.87866 0.40836 0.90954 0.0
H1565 H 0.95256 0.41045 0.85229 0.0
H1566 H 0.87235 0.37182 0.87309 0.0
H1567 H 0.95747 0.44641 0.88922 0.0
H1568 H 0.99042 0.34163 0.77987 0.0
H1569 H 0.98399 0.40703 0.75109 0.0
H1570 H 0.84252 0.30998 0.98116 0.0
H1571 H 0.92372 0.35982 0.98207 0.0
H1572 H 0.9039 0.37093 0.71949 0.0
H1573 H 0.89008 0.29837 0.75683 0.0
H1574 H 0.92622 0.36656 0.66727 0.0
H1575 H 0.91255 0.29518 0.70387 0.0
H1576 H 0.83699 0.32848 0.77146 0.0
H1577 H 0.81224 0.31694 0.88031 0.0
H1578 H 0.79351 0.31684 0.75285 0.0
H1579 H 0.76918 0.30573 0.85977 0.0
H1580 H 0.79612 0.22027 0.81682 0.0
H1581 H 0.80422 0.255 0.71388 0.0
H1582 H 0.91173 0.43742 0.74472 0.0
H1583 H 0.83676 0.4097 0.788 0.0
Li1584 Li 0.14549 0.45145 0.70727 0.0
Li1585 Li 0.13062 0.48295 0.70505 0.0
Li1586 Li 0.10081 0.43819 0.70451 0.0
Li1587 Li 0.12588 0.45739 0.65182 0.0
C1588 C 0.11411 0.44424 0.77213 0.0
N1589 N 0.08921 0.41513 0.83068 0.0
C1590 C 0.10395 0.45337 0.79751 0.0
C1591 C 0.11179 0.42041 0.77664 0.0
C1592 C 0.09138 0.43833 0.8269 0.0
C1593 C 0.09909 0.40595 0.80638 0.0
C1594 C 0.18192 0.50051 0.68672 0.0
C1595 C 0.22536 0.53127 0.67329 0.0
N1596 N 0.23012 0.53609 0.70853 0.0
C1597 C 0.18723 0.50581 0.72281 0.0
C1598 C 0.20112 0.51334 0.66173 0.0
C1599 C 0.21171 0.52384 0.7333 0.0
C1600 C 0.1835 0.43746 0.70326 0.0
N1601 N 0.1715 0.44565 0.72543 0.0
C1602 C 0.19936 0.44985 0.773 0.0
C1603 C 0.1788 0.45151 0.75985 0.0
C1604 C 0.21259 0.442 0.75058 0.0
C1605 C 0.20412 0.4354 0.71535 0.0
H1606 H 0.17736 0.43301 0.67597 0.0
H1607 H 0.16915 0.45826 0.77686 0.0
C1608 C 0.11427 0.51183 0.74066 0.0
N1609 N 0.13463 0.51438 0.72237 0.0
C1610 C 0.11425 0.53301 0.75463 0.0
C1611 C 0.15627 0.55937 0.73075 0.0
C1612 C 0.15533 0.53762 0.71677 0.0
C1613 C 0.13547 0.55718 0.74986 0.0
H1614 H 0.09791 0.49324 0.74421 0.0
H1615 H 0.17103 0.53942 0.70121 0.0
C1616 C 0.10535 0.40039 0.66894 0.0
N1617 N 0.0764 0.34914 0.65521 0.0
C1618 C 0.08598 0.39157 0.64371 0.0
C1619 C 0.11015 0.38321 0.687 0.0
C1620 C 0.07151 0.36556 0.63719 0.0
C1621 C 0.09526 0.35735 0.67974 0.0
C1622 C 0.09748 0.48126 0.6538 0.0
C1623 C 0.07341 0.47831 0.64927 0.0
C1624 C 0.11844 0.50161 0.63766 0.0
C1625 C 0.07065 0.49578 0.62852 0.0
C1626 C 0.11489 0.51867 0.61712 0.0
N1627 N 0.09128 0.51543 0.61301 0.0
C1628 C 0.0569 0.42885 0.73641 0.0
C1629 C 0.0542 0.38976 0.72236 0.0
C1630 C 0.03266 0.41644 0.75095 0.0
N1631 N 0.06724 0.41555 0.7224 0.0
C1632 C 0.02941 0.37646 0.73572 0.0
C1633 C 0.01812 0.38981 0.75012 0.0
H1634 H 0.06772 0.4493 0.73651 0.0
H1635 H 0.06278 0.37936 0.71188 0.0
C1636 C 0.1485 0.4655 0.58339 0.0
N1637 N 0.12617 0.45699 0.60086 0.0
C1638 C 0.14911 0.46554 0.54626 0.0
C1639 C 0.10369 0.44773 0.54574 0.0
C1640 C 0.10399 0.44829 0.58285 0.0
C1641 C 0.12647 0.45648 0.52691 0.0
H1642 H 0.16584 0.47223 0.59832 0.0
H1643 H 0.0865 0.44183 0.59733 0.0
O1644 O 0.12581 0.45829 0.7426 0.0
O1645 O 0.1582 0.48262 0.67578 0.0
O1646 O 0.11994 0.42576 0.67541 0.0
O1647 O 0.10037 0.4643 0.67418 0.0
H1648 H 0.10565 0.4718 0.79448 0.0
H1649 H 0.1195 0.41308 0.75717 0.0
H1650 H 0.08332 0.4451 0.84669 0.0
H1651 H 0.09702 0.38741 0.81011 0.0
H1652 H 0.2404 0.54134 0.65423 0.0
H1653 H 0.17259 0.49627 0.74253 0.0
H1654 H 0.19734 0.50949 0.63369 0.0
H1655 H 0.21607 0.52812 0.76114 0.0
H1656 H 0.20536 0.45556 0.80011 0.0
H1657 H 0.21345 0.42894 0.69718 0.0
H1658 H 0.09784 0.53048 0.76926 0.0
H1659 H 0.17282 0.57773 0.72601 0.0
H1660 H 0.08198 0.40462 0.6296 0.0
H1661 H 0.12527 0.38979 0.70635 0.0
H1662 H 0.05636 0.35844 0.61787 0.0
H1663 H 0.09871 0.34381 0.69357 0.0
H1664 H 0.05702 0.46268 0.66169 0.0
H1665 H 0.13724 0.50427 0.64091 0.0
H1666 H 0.05212 0.49373 0.62477 0.0
H1667 H 0.13092 0.5345 0.60446 0.0
H1668 H 0.02557 0.42784 0.76284 0.0
H1669 H 0.01917 0.356 0.73416 0.0
H1670 H 0.16706 0.47226 0.53283 0.0
H1671 H 0.08586 0.44089 0.53192 0.0
Li1672 Li 0.69723 0.14389 0.70727 0.0
Li1673 Li 0.65085 0.12901 0.70505 0.0
Li1674 Li 0.66582 0.09921 0.70451 0.0
Li1675 Li 0.67168 0.12427 0.65183 0.0
C1676 C 0.67307 0.11252 0.77214 0.0
N1677 N 0.67729 0.08765 0.83071 0.0
C1678 C 0.65379 0.10239 0.79754 0.0
C1679 C 0.69458 0.1102 0.77664 0.0
C1680 C 0.65626 0.08983 0.82695 0.0
C1681 C 0.69633 0.09751 0.80641 0.0
C1682 C 0.6846 0.18032 0.68672 0.0
C1683 C 0.69728 0.22376 0.67328 0.0
N1684 N 0.69722 0.22851 0.70853 0.0
C1685 C 0.6846 0.18562 0.72281 0.0
C1686 C 0.69097 0.19951 0.66173 0.0
C1687 C 0.69106 0.21011 0.7333 0.0
C1688 C 0.74924 0.1819 0.70327 0.0
N1689 N 0.72905 0.1699 0.72544 0.0
C1690 C 0.7527 0.19777 0.773 0.0
C1691 C 0.73048 0.1772 0.75985 0.0
C1692 C 0.77379 0.211 0.75058 0.0
C1693 C 0.77191 0.20252 0.71536 0.0
H1694 H 0.74754 0.17576 0.67597 0.0
H1695 H 0.71407 0.16755 0.77686 0.0
C1696 C 0.60563 0.11267 0.74067 0.0
N1697 N 0.62344 0.13303 0.72237 0.0
C1698 C 0.58443 0.11265 0.75464 0.0
C1699 C 0.60009 0.15467 0.73074 0.0
C1700 C 0.6209 0.15373 0.71676 0.0
C1701 C 0.58149 0.13387 0.74987 0.0
H1702 H 0.60786 0.09631 0.74423 0.0
H1703 H 0.63479 0.16942 0.70119 0.0
C1704 C 0.70815 0.10375 0.66893 0.0
N1705 N 0.73047 0.07482 0.65518 0.0
C1706 C 0.69761 0.08439 0.64368 0.0
C1707 C 0.73014 0.10856 0.687 0.0
C1708 C 0.70916 0.06994 0.63716 0.0
C1709 C 0.74111 0.09367 0.67973 0.0
C1710 C 0.61942 0.09588 0.6538 0.0
C1711 C 0.59828 0.0718 0.64929 0.0
C1712 C 0.62001 0.11683 0.63766 0.0
C1713 C 0.57805 0.06904 0.62854 0.0
C1714 C 0.59941 0.11328 0.61712 0.0
N1715 N 0.57903 0.08966 0.61302 0.0
C1716 C 0.63126 0.05531 0.73646 0.0
C1717 C 0.66762 0.05259 0.72233 0.0
C1718 C 0.61943 0.03107 0.75101 0.0
N1719 N 0.65488 0.06564 0.72241 0.0
C1720 C 0.65612 0.02779 0.73569 0.0
C1721 C 0.6315 0.01652 0.75014 0.0
H1722 H 0.62164 0.06614 0.7366 0.0
H1723 H 0.68658 0.06115 0.71181 0.0
C1724 C 0.68619 0.14689 0.58339 0.0
N1725 N 0.67237 0.12456 0.60086 0.0
C1726 C 0.68676 0.1475 0.54626 0.0
C1727 C 0.65915 0.10209 0.54574 0.0
C1728 C 0.65889 0.10239 0.58285 0.0
C1729 C 0.67318 0.12487 0.52692 0.0
H1730 H 0.69682 0.16424 0.59832 0.0
H1731 H 0.64786 0.0849 0.59733 0.0
O1732 O 0.67071 0.12421 0.7426 0.0
O1733 O 0.67877 0.15659 0.67578 0.0
O1734 O 0.69737 0.11834 0.67541 0.0
O1735 O 0.63926 0.09877 0.67419 0.0
H1736 H 0.63705 0.10408 0.79451 0.0
H1737 H 0.70962 0.1179 0.75716 0.0
H1738 H 0.64144 0.08178 0.84674 0.0
H1739 H 0.71281 0.09544 0.81012 0.0
H1740 H 0.70226 0.2388 0.65423 0.0
H1741 H 0.6795 0.17098 0.74253 0.0
H1742 H 0.69104 0.19573 0.63369 0.0
H1743 H 0.69113 0.21447 0.76114 0.0
H1744 H 0.75298 0.20376 0.80011 0.0
H1745 H 0.78771 0.21185 0.69718 0.0
H1746 H 0.57056 0.09625 0.76928 0.0
H1747 H 0.59827 0.17121 0.72599 0.0
H1748 H 0.68057 0.0804 0.62957 0.0
H1749 H 0.73867 0.12367 0.70636 0.0
H1750 H 0.70114 0.0548 0.61782 0.0
H1751 H 0.7581 0.09712 0.69356 0.0
H1752 H 0.59753 0.05542 0.66171 0.0
H1753 H 0.63615 0.13563 0.6409 0.0
H1754 H 0.56157 0.05051 0.62479 0.0
H1755 H 0.59961 0.12931 0.60446 0.0
H1756 H 0.60096 0.024 0.76294 0.0
H1757 H 0.66634 0.01755 0.7341 0.0
H1758 H 0.698 0.16546 0.53284 0.0
H1759 H 0.64815 0.08426 0.53192 0.0
Li1760 Li 0.55653 0.69563 0.70727 0.0
Li1761 Li 0.52503 0.64926 0.70505 0.0
Li1762 Li 0.5698 0.66423 0.70451 0.0
Li1763 Li 0.55059 0.67008 0.65183 0.0
C1764 C 0.56374 0.67147 0.77213 0.0
N1765 N 0.59286 0.67568 0.83068 0.0
C1766 C 0.55461 0.65218 0.79751 0.0
C1767 C 0.58757 0.69298 0.77664 0.0
C1768 C 0.56965 0.65465 0.82691 0.0
C1769 C 0.60203 0.69473 0.80639 0.0
C1770 C 0.50747 0.683 0.68672 0.0
C1771 C 0.47671 0.69569 0.67329 0.0
N1772 N 0.47189 0.69562 0.70853 0.0
C1773 C 0.50217 0.68301 0.72281 0.0
C1774 C 0.49465 0.68937 0.66173 0.0
C1775 C 0.48414 0.68947 0.73331 0.0
C1776 C 0.57053 0.74764 0.70326 0.0
N1777 N 0.56234 0.72746 0.72544 0.0
C1778 C 0.55813 0.75111 0.773 0.0
C1779 C 0.55647 0.72889 0.75985 0.0
C1780 C 0.56598 0.77219 0.75058 0.0
C1781 C 0.57258 0.77032 0.71536 0.0
H1782 H 0.57497 0.74595 0.67597 0.0
H1783 H 0.54972 0.71248 0.77686 0.0
C1784 C 0.49615 0.60404 0.74066 0.0
N1785 N 0.4936 0.62184 0.72237 0.0
C1786 C 0.47497 0.58283 0.75463 0.0
C1787 C 0.44862 0.5985 0.73075 0.0
C1788 C 0.47037 0.61931 0.71676 0.0
C1789 C 0.45081 0.57989 0.74987 0.0
H1790 H 0.51474 0.60626 0.74421 0.0
H1791 H 0.46857 0.6332 0.7012 0.0
C1792 C 0.60759 0.70655 0.66894 0.0
N1793 N 0.65885 0.72887 0.65521 0.0
C1794 C 0.61641 0.696 0.64371 0.0
C1795 C 0.62478 0.72855 0.687 0.0
C1796 C 0.64242 0.70755 0.63719 0.0
C1797 C 0.65064 0.73951 0.67974 0.0
C1798 C 0.52673 0.61783 0.6538 0.0
C1799 C 0.52967 0.59669 0.64927 0.0
C1800 C 0.50637 0.61842 0.63766 0.0
C1801 C 0.5122 0.57647 0.62853 0.0
C1802 C 0.48931 0.59782 0.61712 0.0
N1803 N 0.49256 0.57745 0.61301 0.0
C1804 C 0.57914 0.62966 0.73641 0.0
C1805 C 0.61823 0.66604 0.72236 0.0
C1806 C 0.59155 0.61782 0.75095 0.0
N1807 N 0.59243 0.65328 0.7224 0.0
C1808 C 0.63152 0.65454 0.73572 0.0
C1809 C 0.61817 0.62991 0.75012 0.0
H1810 H 0.55868 0.62002 0.73651 0.0
H1811 H 0.62862 0.68502 0.71189 0.0
C1812 C 0.54248 0.68459 0.58339 0.0
N1813 N 0.551 0.67078 0.60086 0.0
C1814 C 0.54245 0.68517 0.54626 0.0
C1815 C 0.56026 0.65756 0.54574 0.0
C1816 C 0.5597 0.6573 0.58285 0.0
C1817 C 0.5515 0.67159 0.52691 0.0
H1818 H 0.53576 0.69522 0.59832 0.0
H1819 H 0.56616 0.64627 0.59733 0.0
O1820 O 0.5497 0.66912 0.7426 0.0
O1821 O 0.52536 0.67717 0.67578 0.0
O1822 O 0.58222 0.69578 0.67541 0.0
O1823 O 0.54369 0.63767 0.67418 0.0
H1824 H 0.53618 0.63544 0.79448 0.0
H1825 H 0.59491 0.70803 0.75717 0.0
H1826 H 0.56289 0.63982 0.84669 0.0
H1827 H 0.62057 0.71121 0.81011 0.0
H1828 H 0.46664 0.70066 0.65423 0.0
H1829 H 0.51171 0.67791 0.74253 0.0
H1830 H 0.4985 0.68945 0.63369 0.0
H1831 H 0.47986 0.68954 0.76114 0.0
H1832 H 0.55242 0.75139 0.80012 0.0
H1833 H 0.57904 0.78611 0.69718 0.0
H1834 H 0.4775 0.56896 0.76926 0.0
H1835 H 0.43025 0.59668 0.72601 0.0
H1836 H 0.60337 0.67896 0.6296 0.0
H1837 H 0.6182 0.73708 0.70635 0.0
H1838 H 0.64955 0.69952 0.61787 0.0
H1839 H 0.66418 0.7565 0.69357 0.0
H1840 H 0.5453 0.59594 0.6617 0.0
H1841 H 0.50371 0.63456 0.64091 0.0
H1842 H 0.51425 0.55998 0.62477 0.0
H1843 H 0.47349 0.59802 0.60446 0.0
H1844 H 0.58015 0.59934 0.76284 0.0
H1845 H 0.65199 0.66478 0.73417 0.0
H1846 H 0.53573 0.6964 0.53284 0.0
H1847 H 0.56709 0.64657 0.53192 0.0
Li1848 Li 0.87896 0.52343 0.70505 0.0
Li1849 Li 0.86408 0.55493 0.70727 0.0
Li1850 Li 0.8837 0.54899 0.65182 0.0
Li1851 Li 0.90876 0.5682 0.70451 0.0
C1852 C 0.82765 0.50587 0.68672 0.0
N1853 N 0.77946 0.47029 0.70854 0.0
C1854 C 0.82235 0.50057 0.72281 0.0
C1855 C 0.80846 0.49304 0.66173 0.0
C1856 C 0.79786 0.48254 0.73331 0.0
C1857 C 0.78421 0.47511 0.67329 0.0
C1858 C 0.89547 0.56214 0.77212 0.0
C1859 C 0.91049 0.60043 0.80638 0.0
N1860 N 0.92038 0.59126 0.83067 0.0
C1861 C 0.90563 0.55302 0.79751 0.0
C1862 C 0.89778 0.58597 0.77664 0.0
C1863 C 0.9182 0.56805 0.8269 0.0
C1864 C 0.8953 0.49455 0.74066 0.0
N1865 N 0.87494 0.492 0.72237 0.0
C1866 C 0.8533 0.44702 0.73075 0.0
C1867 C 0.85424 0.46877 0.71677 0.0
C1868 C 0.8741 0.44921 0.74986 0.0
C1869 C 0.89533 0.47337 0.75463 0.0
H1870 H 0.91167 0.51314 0.74421 0.0
H1871 H 0.83855 0.46697 0.70121 0.0
C1872 C 0.82607 0.56892 0.70326 0.0
N1873 N 0.83807 0.56074 0.72543 0.0
C1874 C 0.80545 0.57098 0.71535 0.0
C1875 C 0.81021 0.55654 0.773 0.0
C1876 C 0.83077 0.55488 0.75985 0.0
C1877 C 0.79698 0.56439 0.75058 0.0
H1878 H 0.83221 0.57337 0.67596 0.0
H1879 H 0.84043 0.54812 0.77686 0.0
C1880 C 0.91209 0.52513 0.6538 0.0
N1881 N 0.9183 0.49096 0.61301 0.0
C1882 C 0.93617 0.52807 0.64927 0.0
C1883 C 0.89114 0.50477 0.63766 0.0
C1884 C 0.93892 0.5106 0.62852 0.0
C1885 C 0.89468 0.48771 0.61712 0.0
C1886 C 0.90423 0.60599 0.66894 0.0
C1887 C 0.9236 0.61481 0.64371 0.0
C1888 C 0.89942 0.62317 0.687 0.0
C1889 C 0.93807 0.64082 0.6372 0.0
C1890 C 0.91432 0.64903 0.67974 0.0
N1891 N 0.93318 0.65725 0.65521 0.0
C1892 C 0.86108 0.54088 0.58339 0.0
C1893 C 0.90558 0.5581 0.58285 0.0
C1894 C 0.86047 0.54084 0.54626 0.0
N1895 N 0.88341 0.5494 0.60086 0.0
C1896 C 0.90588 0.55866 0.54574 0.0
C1897 C 0.8831 0.5499 0.52691 0.0
H1898 H 0.84373 0.53415 0.59832 0.0
H1899 H 0.92307 0.56456 0.59733 0.0
C1900 C 0.95267 0.57754 0.7364 0.0
N1901 N 0.94234 0.59083 0.7224 0.0
C1902 C 0.97692 0.58995 0.75094 0.0
C1903 C 0.98017 0.62992 0.73572 0.0
C1904 C 0.95537 0.61663 0.72236 0.0
C1905 C 0.99145 0.61657 0.75012 0.0
H1906 H 0.94186 0.55708 0.7365 0.0
H1907 H 0.94679 0.62702 0.7119 0.0
O1908 O 0.85138 0.52376 0.67578 0.0
O1909 O 0.88377 0.5481 0.7426 0.0
O1910 O 0.9092 0.54208 0.67418 0.0
O1911 O 0.88963 0.58062 0.67541 0.0
H1912 H 0.83699 0.51011 0.74253 0.0
H1913 H 0.81224 0.49689 0.63369 0.0
H1914 H 0.7935 0.47826 0.76114 0.0
H1915 H 0.76917 0.46504 0.65423 0.0
H1916 H 0.91256 0.61897 0.8101 0.0
H1917 H 0.90393 0.53458 0.79448 0.0
H1918 H 0.89007 0.59331 0.75717 0.0
H1919 H 0.92627 0.56129 0.84668 0.0
H1920 H 0.83675 0.42865 0.72601 0.0
H1921 H 0.91173 0.4759 0.76926 0.0
H1922 H 0.79612 0.57744 0.69717 0.0
H1923 H 0.80422 0.55082 0.80011 0.0
H1924 H 0.95255 0.5437 0.66169 0.0
H1925 H 0.87234 0.50211 0.64091 0.0
H1926 H 0.95746 0.51265 0.62477 0.0
H1927 H 0.87865 0.47189 0.60446 0.0
H1928 H 0.9276 0.60177 0.62961 0.0
H1929 H 0.8843 0.61659 0.70634 0.0
H1930 H 0.95322 0.64795 0.61788 0.0
H1931 H 0.91086 0.66257 0.69357 0.0
H1932 H 0.84251 0.53412 0.53283 0.0
H1933 H 0.92372 0.56549 0.53192 0.0
H1934 H 0.98401 0.57855 0.76282 0.0
H1935 H 0.9904 0.65038 0.73417 0.0
Li1936 Li 0.35872 0.87737 0.70505 0.0
Li1937 Li 0.31235 0.86249 0.70727 0.0
Li1938 Li 0.3379 0.88211 0.65183 0.0
Li1939 Li 0.34376 0.90717 0.70451 0.0
C1940 C 0.32498 0.82607 0.68672 0.0
N1941 N 0.31236 0.77787 0.70853 0.0
C1942 C 0.32497 0.82076 0.72281 0.0
C1943 C 0.31861 0.80687 0.66173 0.0
C1944 C 0.31851 0.79627 0.7333 0.0
C1945 C 0.31229 0.78262 0.67328 0.0
C1946 C 0.33651 0.89387 0.77213 0.0
C1947 C 0.31325 0.90889 0.8064 0.0
N1948 N 0.3323 0.91876 0.8307 0.0
C1949 C 0.3558 0.90401 0.79752 0.0
C1950 C 0.315 0.89619 0.77664 0.0
C1951 C 0.35333 0.91658 0.82692 0.0
C1952 C 0.40395 0.89371 0.74067 0.0
N1953 N 0.38614 0.87335 0.72237 0.0
C1954 C 0.40948 0.85171 0.73075 0.0
C1955 C 0.38867 0.85265 0.71676 0.0
C1956 C 0.42809 0.87251 0.74986 0.0
C1957 C 0.42515 0.89373 0.75463 0.0
H1958 H 0.40172 0.91007 0.74422 0.0
H1959 H 0.37478 0.83696 0.70119 0.0
C1960 C 0.26034 0.82448 0.70326 0.0
N1961 N 0.28053 0.83648 0.72544 0.0
C1962 C 0.23767 0.80386 0.71536 0.0
C1963 C 0.25687 0.80862 0.773 0.0
C1964 C 0.27909 0.82918 0.75985 0.0
C1965 C 0.23579 0.79539 0.75058 0.0
H1966 H 0.26203 0.83062 0.67597 0.0
H1967 H 0.2955 0.83884 0.77686 0.0
C1968 C 0.39016 0.9105 0.6538 0.0
N1969 N 0.43054 0.91671 0.61301 0.0
C1970 C 0.4113 0.93458 0.64928 0.0
C1971 C 0.38956 0.88955 0.63766 0.0
C1972 C 0.43152 0.93734 0.62853 0.0
C1973 C 0.41016 0.8931 0.61712 0.0
C1974 C 0.30143 0.90263 0.66894 0.0
C1975 C 0.31197 0.922 0.6437 0.0
C1976 C 0.27944 0.89783 0.68701 0.0
C1977 C 0.30043 0.93646 0.63718 0.0
C1978 C 0.26847 0.91272 0.67974 0.0
N1979 N 0.27911 0.93157 0.6552 0.0
C1980 C 0.32339 0.85949 0.58339 0.0
C1981 C 0.35068 0.90399 0.58285 0.0
C1982 C 0.32281 0.85888 0.54626 0.0
N1983 N 0.3372 0.88182 0.60086 0.0
C1984 C 0.35042 0.9043 0.54574 0.0
C1985 C 0.3364 0.88152 0.52692 0.0
H1986 H 0.31276 0.84214 0.59832 0.0
H1987 H 0.36171 0.92148 0.59733 0.0
C1988 C 0.37832 0.95108 0.73643 0.0
N1989 N 0.3547 0.94075 0.72241 0.0
C1990 C 0.39016 0.97532 0.75098 0.0
C1991 C 0.35345 0.97858 0.73571 0.0
C1992 C 0.34194 0.95379 0.72235 0.0
C1993 C 0.37807 0.98986 0.75013 0.0
H1994 H 0.38795 0.94025 0.73655 0.0
H1995 H 0.32298 0.94522 0.71186 0.0
O1996 O 0.33081 0.84979 0.67578 0.0
O1997 O 0.33886 0.88218 0.7426 0.0
O1998 O 0.37031 0.90761 0.67418 0.0
O1999 O 0.3122 0.88804 0.67541 0.0
H2000 H 0.33007 0.8354 0.74253 0.0
H2001 H 0.31854 0.81065 0.63369 0.0
H2002 H 0.31844 0.79191 0.76114 0.0
H2003 H 0.30732 0.76758 0.65423 0.0
H2004 H 0.29677 0.91095 0.81012 0.0
H2005 H 0.37253 0.90232 0.7945 0.0
H2006 H 0.29996 0.88848 0.75717 0.0
H2007 H 0.36816 0.92464 0.84671 0.0
H2008 H 0.4113 0.83517 0.726 0.0
H2009 H 0.43902 0.91014 0.76927 0.0
H2010 H 0.22187 0.79453 0.69718 0.0
H2011 H 0.25659 0.80262 0.80012 0.0
H2012 H 0.41204 0.95096 0.6617 0.0
H2013 H 0.37342 0.87075 0.64091 0.0
H2014 H 0.448 0.95587 0.62478 0.0
H2015 H 0.40996 0.87707 0.60446 0.0
H2016 H 0.32901 0.92599 0.62959 0.0
H2017 H 0.2709 0.88271 0.70635 0.0
H2018 H 0.30844 0.9516 0.61785 0.0
H2019 H 0.25148 0.90927 0.69357 0.0
H2020 H 0.31158 0.84092 0.53284 0.0
H2021 H 0.36142 0.92213 0.53192 0.0
H2022 H 0.40864 0.9824 0.76289 0.0
H2023 H 0.34322 0.98882 0.73414 0.0
Li2024 Li 0.45304 0.31075 0.70727 0.0
Li2025 Li 0.48454 0.35712 0.70505 0.0
Li2026 Li 0.43978 0.34216 0.70451 0.0
Li2027 Li 0.45898 0.3363 0.65183 0.0
C2028 C 0.44584 0.33492 0.77213 0.0
N2029 N 0.41673 0.33071 0.83069 0.0
C2030 C 0.45497 0.3542 0.79752 0.0
C2031 C 0.42201 0.31341 0.77665 0.0
C2032 C 0.43994 0.35174 0.82691 0.0
C2033 C 0.40755 0.31166 0.8064 0.0
C2034 C 0.5021 0.32338 0.68672 0.0
C2035 C 0.53286 0.3107 0.67328 0.0
N2036 N 0.53769 0.31076 0.70853 0.0
C2037 C 0.5074 0.32337 0.72281 0.0
C2038 C 0.51493 0.31701 0.66173 0.0
C2039 C 0.52543 0.31692 0.7333 0.0
C2040 C 0.43905 0.25874 0.70326 0.0
N2041 N 0.44724 0.27893 0.72544 0.0
C2042 C 0.45144 0.25527 0.773 0.0
C2043 C 0.4531 0.27749 0.75985 0.0
C2044 C 0.44359 0.23419 0.75058 0.0
C2045 C 0.437 0.23607 0.71536 0.0
H2046 H 0.43461 0.26044 0.67597 0.0
H2047 H 0.45986 0.2939 0.77686 0.0
C2048 C 0.51342 0.40235 0.74066 0.0
N2049 N 0.51598 0.38454 0.72237 0.0
C2050 C 0.53461 0.42355 0.75462 0.0
C2051 C 0.56096 0.40788 0.73075 0.0
C2052 C 0.53921 0.38707 0.71677 0.0
C2053 C 0.55877 0.42649 0.74986 0.0
H2054 H 0.49484 0.40013 0.74421 0.0
H2055 H 0.54101 0.37318 0.70121 0.0
C2056 C 0.40198 0.29983 0.66894 0.0
N2057 N 0.35073 0.27751 0.65521 0.0
C2058 C 0.39316 0.31037 0.6437 0.0
C2059 C 0.3848 0.27784 0.68701 0.0
C2060 C 0.36715 0.29883 0.63719 0.0
C2061 C 0.35894 0.26687 0.67975 0.0
C2062 C 0.48285 0.38856 0.6538 0.0
C2063 C 0.4799 0.40969 0.64928 0.0
C2064 C 0.5032 0.38796 0.63766 0.0
C2065 C 0.49737 0.42992 0.62853 0.0
C2066 C 0.52026 0.40856 0.61712 0.0
N2067 N 0.51702 0.42894 0.61301 0.0
C2068 C 0.43044 0.37672 0.73642 0.0
C2069 C 0.39135 0.34034 0.72235 0.0
C2070 C 0.41803 0.38856 0.75096 0.0
N2071 N 0.41714 0.3531 0.72241 0.0
C2072 C 0.37806 0.35184 0.73571 0.0
C2073 C 0.3914 0.37647 0.75013 0.0
H2074 H 0.45089 0.38636 0.73653 0.0
H2075 H 0.38095 0.32137 0.71187 0.0
C2076 C 0.46709 0.32179 0.58339 0.0
N2077 N 0.45858 0.3356 0.60086 0.0
C2078 C 0.46713 0.32122 0.54626 0.0
C2079 C 0.44932 0.34882 0.54574 0.0
C2080 C 0.44988 0.34908 0.58285 0.0
C2081 C 0.45807 0.3348 0.52692 0.0
H2082 H 0.47382 0.31117 0.59832 0.0
H2083 H 0.44342 0.36011 0.59733 0.0
O2084 O 0.45988 0.33727 0.7426 0.0
O2085 O 0.48421 0.32921 0.67578 0.0
O2086 O 0.42735 0.3106 0.67541 0.0
O2087 O 0.46589 0.36871 0.67418 0.0
H2088 H 0.4734 0.37094 0.79449 0.0
H2089 H 0.41467 0.29836 0.75717 0.0
H2090 H 0.4467 0.36657 0.8467 0.0
H2091 H 0.38901 0.29518 0.81012 0.0
H2092 H 0.54294 0.30573 0.65423 0.0
H2093 H 0.49786 0.32847 0.74253 0.0
H2094 H 0.51108 0.31694 0.63369 0.0
H2095 H 0.52971 0.31684 0.76114 0.0
H2096 H 0.45716 0.255 0.80012 0.0
H2097 H 0.43053 0.22027 0.69718 0.0
H2098 H 0.53207 0.43743 0.76925 0.0
H2099 H 0.57933 0.4097 0.72601 0.0
H2100 H 0.4062 0.32741 0.6296 0.0
H2101 H 0.39138 0.2693 0.70636 0.0
H2102 H 0.36002 0.30684 0.61787 0.0
H2103 H 0.3454 0.24988 0.69358 0.0
H2104 H 0.46427 0.41044 0.6617 0.0
H2105 H 0.50586 0.37182 0.64091 0.0
H2106 H 0.49532 0.4464 0.62477 0.0
H2107 H 0.53609 0.40836 0.60446 0.0
H2108 H 0.42943 0.40704 0.76286 0.0
H2109 H 0.35759 0.34161 0.73415 0.0
H2110 H 0.47385 0.30998 0.53284 0.0
H2111 H 0.44248 0.35982 0.53192 0.0
loop_
_geom_bond_atom_site_label_1
_geom_bond_atom_site_label_2
_geom_bond_distance
_geom_bond_site_symmetry_2
_ccdc_geom_bond_type
Li0 N17 1.990 . S
Li0 O60 1.956 . S
Li0 O61 1.970 . S
Li0 O62 1.961 . S
Li1 N25 1.990 . S
Li1 O60 1.970 . S
Li1 O61 1.956 . S
Li1 O63 1.961 . S
Li2 N47 1.990 . S
Li2 O60 1.961 . S
Li2 O62 1.956 . S
Li2 O63 1.970 . S
Li3 N53 1.990 . S
Li3 O61 1.961 . S
Li3 O62 1.970 . S
Li3 O63 1.956 . S
C4 C6 1.348 . S
C4 C7 1.356 . S
C4 O60 1.325 . S
N5 C8 1.314 . S
N5 C9 1.279 . S
C6 C4 1.348 . S
C6 C8 1.353 . S
C6 H64 0.929 . S
C7 C4 1.356 . S
C7 C9 1.358 . S
C7 H65 0.930 . S
C8 N5 1.314 . S
C8 C6 1.353 . S
C8 H66 0.930 . S
C9 N5 1.279 . S
C9 C7 1.358 . S
C9 H67 0.930 . S
C10 C13 1.348 . S
C10 C14 1.356 . S
C10 O61 1.325 . S
C11 N12 1.279 . S
C11 C14 1.358 . S
C11 H68 0.930 . S
N12 C11 1.279 . S
N12 C15 1.314 . S
C13 C10 1.348 . S
C13 C15 1.353 . S
C13 H69 0.929 . S
C14 C10 1.356 . S
C14 C11 1.358 . S
C14 H70 0.930 . S
C15 N12 1.314 . S
C15 C13 1.353 . S
C15 H71 0.930 . S
C16 N17 1.314 . S
C16 C21 1.353 . S
C16 H22 0.930 . S
N17 Li0 1.990 . S
N17 C16 1.314 . S
N17 C19 1.279 . S
C18 C19 1.358 . S
C18 C20 1.356 . S
C18 H72 0.930 . S
C19 N17 1.279 . S
C19 C18 1.358 . S
C19 H23 0.930 . S
C20 C18 1.356 . S
C20 C21 1.348 . S
C21 C16 1.353 . S
C21 C20 1.348 . S
C21 H73 0.929 . S
H22 C16 0.930 . S
H23 C19 0.930 . S
C24 N25 1.314 . S
C24 C26 1.353 . S
C24 H30 0.930 . S
N25 Li1 1.990 . S
N25 C24 1.314 . S
N25 C28 1.279 . S
C26 C24 1.353 . S
C26 C29 1.348 . S
C26 H74 0.929 . S
C27 C28 1.358 . S
C27 C29 1.356 . S
C27 H75 0.930 . S
C28 N25 1.279 . S
C28 C27 1.358 . S
C28 H31 0.930 . S
C29 C26 1.348 . S
C29 C27 1.356 . S
H30 C24 0.930 . S
H31 C28 0.930 . S
C32 C34 1.348 . S
C32 C35 1.356 . S
C32 O62 1.325 . S
N33 C36 1.314 . S
N33 C37 1.279 . S
C34 C32 1.348 . S
C34 C36 1.353 . S
C34 H76 0.929 . S
C35 C32 1.356 . S
C35 C37 1.358 . S
C35 H77 0.930 . S
C36 N33 1.314 . S
C36 C34 1.353 . S
C36 H78 0.930 . S
C37 N33 1.279 . S
C37 C35 1.358 . S
C37 H79 0.930 . S
C38 C39 1.348 . S
C38 C40 1.356 . S
C38 O63 1.325 . S
C39 C38 1.348 . S
C39 C41 1.353 . S
C39 H80 0.929 . S
C40 C38 1.356 . S
C40 C42 1.358 . S
C40 H81 0.930 . S
C41 C39 1.353 . S
C41 N43 1.314 . S
C41 H82 0.930 . S
C42 C40 1.358 . S
C42 N43 1.279 . S
C42 H83 0.930 . S
N43 C41 1.314 . S
N43 C42 1.279 . S
C44 C46 1.353 . S
C44 N47 1.314 . S
C44 H50 0.930 . S
C45 N47 1.279 . S
C45 C48 1.358 . S
C45 H51 0.930 . S
C46 C44 1.353 . S
C46 C49 1.348 . S
C46 H84 0.929 . S
N47 Li2 1.990 . S
N47 C44 1.314 . S
N47 C45 1.279 . S
C48 C45 1.358 . S
C48 C49 1.356 . S
C48 H85 0.930 . S
C49 C46 1.348 . S
C49 C48 1.356 . S
H50 C44 0.930 . S
H51 C45 0.930 . S
C52 N53 1.314 . S
C52 C54 1.353 . S
C52 H58 0.930 . S
N53 Li3 1.990 . S
N53 C52 1.314 . S
N53 C56 1.279 . S
C54 C52 1.353 . S
C54 C57 1.348 . S
C54 H86 0.929 . S
C55 C56 1.358 . S
C55 C57 1.356 . S
C55 H87 0.930 . S
C56 N53 1.279 . S
C56 C55 1.358 . S
C56 H59 0.930 . S
C57 C54 1.348 . S
C57 C55 1.356 . S
H58 C52 0.930 . S
H59 C56 0.930 . S
O60 Li0 1.956 . S
O60 Li1 1.970 . S
O60 Li2 1.961 . S
O60 C4 1.325 . S
O61 Li0 1.970 . S
O61 Li1 1.956 . S
O61 Li3 1.961 . S
O61 C10 1.325 . S
O62 Li0 1.961 . S
O62 Li2 1.956 . S
O62 Li3 1.970 . S
O62 C32 1.325 . S
O63 Li1 1.961 . S
O63 Li2 1.970 . S
O63 Li3 1.956 . S
O63 C38 1.325 . S
H64 C6 0.929 . S
H65 C7 0.930 . S
H66 C8 0.930 . S
H67 C9 0.930 . S
H68 C11 0.930 . S
H69 C13 0.929 . S
H70 C14 0.930 . S
H71 C15 0.930 . S
H72 C18 0.930 . S
H73 C21 0.929 . S
H74 C26 0.929 . S
H75 C27 0.930 . S
H76 C34 0.929 . S
H77 C35 0.930 . S
H78 C36 0.930 . S
H79 C37 0.930 . S
H80 C39 0.929 . S
H81 C40 0.930 . S
H82 C41 0.930 . S
H83 C42 0.930 . S
H84 C46 0.929 . S
H85 C48 0.930 . S
H86 C54 0.929 . S
H87 C55 0.930 . S
Li88 N105 1.990 . S
Li88 O148 1.956 . S
Li88 O149 1.970 . S
Li88 O150 1.961 . S
Li89 N113 1.990 . S
Li89 O148 1.970 . S
Li89 O149 1.956 . S
Li89 O151 1.961 . S
Li90 N135 1.990 . S
Li90 O148 1.961 . S
Li90 O150 1.956 . S
Li90 O151 1.970 . S
Li91 N141 1.990 . S
Li91 O149 1.961 . S
Li91 O150 1.970 . S
Li91 O151 1.956 . S
C92 C94 1.348 . S
C92 C95 1.356 . S
C92 O148 1.325 . S
N93 C96 1.314 . S
N93 C97 1.279 . S
C94 C92 1.348 . S
C94 C96 1.353 . S
C94 H152 0.929 . S
C95 C92 1.356 . S
C95 C97 1.358 . S
C95 H153 0.930 . S
C96 N93 1.314 . S
C96 C94 1.353 . S
C96 H154 0.930 . S
C97 N93 1.279 . S
C97 C95 1.358 . S
C97 H155 0.930 . S
C98 C101 1.348 . S
C98 C102 1.356 . S
C98 O149 1.325 . S
C99 N100 1.279 . S
C99 C102 1.358 . S
C99 H156 0.930 . S
N100 C99 1.279 . S
N100 C103 1.314 . S
C101 C98 1.348 . S
C101 C103 1.353 . S
C101 H157 0.929 . S
C102 C98 1.356 . S
C102 C99 1.358 . S
C102 H158 0.930 . S
C103 N100 1.314 . S
C103 C101 1.353 . S
C103 H159 0.930 . S
C104 N105 1.314 . S
C104 C109 1.353 . S
C104 H110 0.930 . S
N105 Li88 1.990 . S
N105 C104 1.314 . S
N105 C107 1.279 . S
C106 C107 1.358 . S
C106 C108 1.356 . S
C106 H160 0.930 . S
C107 N105 1.279 . S
C107 C106 1.358 . S
C107 H111 0.930 . S
C108 C106 1.356 . S
C108 C109 1.348 . S
C109 C104 1.353 . S
C109 C108 1.348 . S
C109 H161 0.929 . S
H110 C104 0.930 . S
H111 C107 0.930 . S
C112 N113 1.314 . S
C112 C114 1.353 . S
C112 H118 0.930 . S
N113 Li89 1.990 . S
N113 C112 1.314 . S
N113 C116 1.279 . S
C114 C112 1.353 . S
C114 C117 1.348 . S
C114 H162 0.929 . S
C115 C116 1.358 . S
C115 C117 1.356 . S
C115 H163 0.930 . S
C116 N113 1.279 . S
C116 C115 1.358 . S
C116 H119 0.930 . S
C117 C114 1.348 . S
C117 C115 1.356 . S
H118 C112 0.930 . S
H119 C116 0.930 . S
C120 C122 1.348 . S
C120 C123 1.356 . S
C120 O150 1.325 . S
N121 C124 1.314 . S
N121 C125 1.279 . S
C122 C120 1.348 . S
C122 C124 1.353 . S
C122 H164 0.929 . S
C123 C120 1.356 . S
C123 C125 1.358 . S
C123 H165 0.930 . S
C124 N121 1.314 . S
C124 C122 1.353 . S
C124 H166 0.930 . S
C125 N121 1.279 . S
C125 C123 1.358 . S
C125 H167 0.930 . S
C126 C127 1.348 . S
C126 C128 1.356 . S
C126 O151 1.325 . S
C127 C126 1.348 . S
C127 C129 1.353 . S
C127 H168 0.929 . S
C128 C126 1.356 . S
C128 C130 1.358 . S
C128 H169 0.930 . S
C129 C127 1.353 . S
C129 N131 1.314 . S
C129 H170 0.930 . S
C130 C128 1.358 . S
C130 N131 1.279 . S
C130 H171 0.930 . S
N131 C129 1.314 . S
N131 C130 1.279 . S
C132 C134 1.353 . S
C132 N135 1.314 . S
C132 H138 0.930 . S
C133 N135 1.279 . S
C133 C136 1.358 . S
C133 H139 0.930 . S
C134 C132 1.353 . S
C134 C137 1.348 . S
C134 H172 0.929 . S
N135 Li90 1.990 . S
N135 C132 1.314 . S
N135 C133 1.279 . S
C136 C133 1.358 . S
C136 C137 1.356 . S
C136 H173 0.930 . S
C137 C134 1.348 . S
C137 C136 1.356 . S
H138 C132 0.930 . S
H139 C133 0.930 . S
C140 N141 1.314 . S
C140 C142 1.353 . S
C140 H146 0.930 . S
N141 Li91 1.990 . S
N141 C140 1.314 . S
N141 C144 1.279 . S
C142 C140 1.353 . S
C142 C145 1.348 . S
C142 H174 0.929 . S
C143 C144 1.358 . S
C143 C145 1.356 . S
C143 H175 0.930 . S
C144 N141 1.279 . S
C144 C143 1.358 . S
C144 H147 0.930 . S
C145 C142 1.348 . S
C145 C143 1.356 . S
H146 C140 0.930 . S
H147 C144 0.930 . S
O148 Li88 1.956 . S
O148 Li89 1.970 . S
O148 Li90 1.961 . S
O148 C92 1.325 . S
O149 Li88 1.970 . S
O149 Li89 1.956 . S
O149 Li91 1.961 . S
O149 C98 1.325 . S
O150 Li88 1.961 . S
O150 Li90 1.956 . S
O150 Li91 1.970 . S
O150 C120 1.325 . S
O151 Li89 1.961 . S
O151 Li90 1.970 . S
O151 Li91 1.956 . S
O151 C126 1.325 . S
H152 C94 0.929 . S
H153 C95 0.930 . S
H154 C96 0.930 . S
H155 C97 0.930 . S
H156 C99 0.930 . S
H157 C101 0.929 . S
H158 C102 0.930 . S
H159 C103 0.930 . S
H160 C106 0.930 . S
H161 C109 0.929 . S
H162 C114 0.929 . S
H163 C115 0.930 . S
H164 C122 0.929 . S
H165 C123 0.930 . S
H166 C124 0.930 . S
H167 C125 0.930 . S
H168 C127 0.929 . S
H169 C128 0.930 . S
H170 C129 0.930 . S
H171 C130 0.930 . S
H172 C134 0.929 . S
H173 C136 0.930 . S
H174 C142 0.929 . S
H175 C143 0.930 . S
Li176 N193 1.990 . S
Li176 O236 1.956 . S
Li176 O237 1.970 . S
Li176 O238 1.961 . S
Li177 N201 1.990 . S
Li177 O236 1.970 . S
Li177 O237 1.956 . S
Li177 O239 1.961 . S
Li178 N223 1.990 . S
Li178 O236 1.961 . S
Li178 O238 1.956 . S
Li178 O239 1.970 . S
Li179 N229 1.990 . S
Li179 O237 1.961 . S
Li179 O238 1.970 . S
Li179 O239 1.956 . S
C180 C182 1.348 . S
C180 C183 1.356 . S
C180 O236 1.325 . S
N181 C184 1.314 . S
N181 C185 1.279 . S
C182 C180 1.348 . S
C182 C184 1.353 . S
C182 H240 0.929 . S
C183 C180 1.356 . S
C183 C185 1.358 . S
C183 H241 0.930 . S
C184 N181 1.314 . S
C184 C182 1.353 . S
C184 H242 0.930 . S
C185 N181 1.279 . S
C185 C183 1.358 . S
C185 H243 0.930 . S
C186 C189 1.348 . S
C186 C190 1.356 . S
C186 O237 1.325 . S
C187 N188 1.279 . S
C187 C190 1.358 . S
C187 H244 0.930 . S
N188 C187 1.279 . S
N188 C191 1.314 . S
C189 C186 1.348 . S
C189 C191 1.353 . S
C189 H245 0.929 . S
C190 C186 1.356 . S
C190 C187 1.358 . S
C190 H246 0.930 . S
C191 N188 1.314 . S
C191 C189 1.353 . S
C191 H247 0.930 . S
C192 N193 1.314 . S
C192 C197 1.353 . S
C192 H198 0.930 . S
N193 Li176 1.990 . S
N193 C192 1.314 . S
N193 C195 1.279 . S
C194 C195 1.358 . S
C194 C196 1.356 . S
C194 H248 0.930 . S
C195 N193 1.279 . S
C195 C194 1.358 . S
C195 H199 0.930 . S
C196 C194 1.356 . S
C196 C197 1.348 . S
C197 C192 1.353 . S
C197 C196 1.348 . S
C197 H249 0.929 . S
H198 C192 0.930 . S
H199 C195 0.930 . S
C200 N201 1.314 . S
C200 C202 1.353 . S
C200 H206 0.930 . S
N201 Li177 1.990 . S
N201 C200 1.314 . S
N201 C204 1.279 . S
C202 C200 1.353 . S
C202 C205 1.348 . S
C202 H250 0.929 . S
C203 C204 1.358 . S
C203 C205 1.356 . S
C203 H251 0.930 . S
C204 N201 1.279 . S
C204 C203 1.358 . S
C204 H207 0.930 . S
C205 C202 1.348 . S
C205 C203 1.356 . S
H206 C200 0.930 . S
H207 C204 0.930 . S
C208 C210 1.348 . S
C208 C211 1.356 . S
C208 O238 1.325 . S
N209 C212 1.314 . S
N209 C213 1.279 . S
C210 C208 1.348 . S
C210 C212 1.353 . S
C210 H252 0.929 . S
C211 C208 1.356 . S
C211 C213 1.358 . S
C211 H253 0.930 . S
C212 N209 1.314 . S
C212 C210 1.353 . S
C212 H254 0.930 . S
C213 N209 1.279 . S
C213 C211 1.358 . S
C213 H255 0.930 . S
C214 C215 1.348 . S
C214 C216 1.356 . S
C214 O239 1.325 . S
C215 C214 1.348 . S
C215 C217 1.353 . S
C215 H256 0.929 . S
C216 C214 1.356 . S
C216 C218 1.358 . S
C216 H257 0.930 . S
C217 C215 1.353 . S
C217 N219 1.314 . S
C217 H258 0.930 . S
C218 C216 1.358 . S
C218 N219 1.279 . S
C218 H259 0.930 . S
N219 C217 1.314 . S
N219 C218 1.279 . S
C220 C222 1.353 . S
C220 N223 1.314 . S
C220 H226 0.930 . S
C221 N223 1.279 . S
C221 C224 1.358 . S
C221 H227 0.930 . S
C222 C220 1.353 . S
C222 C225 1.348 . S
C222 H260 0.929 . S
N223 Li178 1.990 . S
N223 C220 1.314 . S
N223 C221 1.279 . S
C224 C221 1.358 . S
C224 C225 1.356 . S
C224 H261 0.930 . S
C225 C222 1.348 . S
C225 C224 1.356 . S
H226 C220 0.930 . S
H227 C221 0.930 . S
C228 N229 1.314 . S
C228 C230 1.353 . S
C228 H234 0.930 . S
N229 Li179 1.990 . S
N229 C228 1.314 . S
N229 C232 1.279 . S
C230 C228 1.353 . S
C230 C233 1.348 . S
C230 H262 0.929 . S
C231 C232 1.358 . S
C231 C233 1.356 . S
C231 H263 0.930 . S
C232 N229 1.279 . S
C232 C231 1.358 . S
C232 H235 0.930 . S
C233 C230 1.348 . S
C233 C231 1.356 . S
H234 C228 0.930 . S
H235 C232 0.930 . S
O236 Li176 1.956 . S
O236 Li177 1.970 . S
O236 Li178 1.961 . S
O236 C180 1.325 . S
O237 Li176 1.970 . S
O237 Li177 1.956 . S
O237 Li179 1.961 . S
O237 C186 1.325 . S
O238 Li176 1.961 . S
O238 Li178 1.956 . S
O238 Li179 1.970 . S
O238 C208 1.325 . S
O239 Li177 1.961 . S
O239 Li178 1.970 . S
O239 Li179 1.956 . S
O239 C214 1.325 . S
H240 C182 0.929 . S
H241 C183 0.930 . S
H242 C184 0.930 . S
H243 C185 0.930 . S
H244 C187 0.930 . S
H245 C189 0.929 . S
H246 C190 0.930 . S
H247 C191 0.930 . S
H248 C194 0.930 . S
H249 C197 0.929 . S
H250 C202 0.929 . S
H251 C203 0.930 . S
H252 C210 0.929 . S
H253 C211 0.930 . S
H254 C212 0.930 . S
H255 C213 0.930 . S
H256 C215 0.929 . S
H257 C216 0.930 . S
H258 C217 0.930 . S
H259 C218 0.930 . S
H260 C222 0.929 . S
H261 C224 0.930 . S
H262 C230 0.929 . S
H263 C231 0.930 . S
Li264 N281 1.990 . S
Li264 O324 1.956 . S
Li264 O325 1.970 . S
Li264 O326 1.961 . S
Li265 N289 1.990 . S
Li265 O324 1.970 . S
Li265 O325 1.956 . S
Li265 O327 1.961 . S
Li266 N311 1.990 . S
Li266 O324 1.961 . S
Li266 O326 1.956 . S
Li266 O327 1.970 . S
Li267 N317 1.990 . S
Li267 O325 1.961 . S
Li267 O326 1.970 . S
Li267 O327 1.956 . S
C268 C270 1.348 . S
C268 C271 1.356 . S
C268 O324 1.325 . S
N269 C272 1.314 . S
N269 C273 1.279 . S
C270 C268 1.348 . S
C270 C272 1.353 . S
C270 H328 0.929 . S
C271 C268 1.356 . S
C271 C273 1.358 . S
C271 H329 0.930 . S
C272 N269 1.314 . S
C272 C270 1.353 . S
C272 H330 0.930 . S
C273 N269 1.279 . S
C273 C271 1.358 . S
C273 H331 0.930 . S
C274 C277 1.348 . S
C274 C278 1.356 . S
C274 O325 1.325 . S
C275 N276 1.279 . S
C275 C278 1.358 . S
C275 H332 0.930 . S
N276 C275 1.279 . S
N276 C279 1.314 . S
C277 C274 1.348 . S
C277 C279 1.353 . S
C277 H333 0.929 . S
C278 C274 1.356 . S
C278 C275 1.358 . S
C278 H334 0.930 . S
C279 N276 1.314 . S
C279 C277 1.353 . S
C279 H335 0.930 . S
C280 N281 1.314 . S
C280 C285 1.353 . S
C280 H286 0.930 . S
N281 Li264 1.990 . S
N281 C280 1.314 . S
N281 C283 1.279 . S
C282 C283 1.358 . S
C282 C284 1.356 . S
C282 H336 0.930 . S
C283 N281 1.279 . S
C283 C282 1.358 . S
C283 H287 0.930 . S
C284 C282 1.356 . S
C284 C285 1.348 . S
C285 C280 1.353 . S
C285 C284 1.348 . S
C285 H337 0.929 . S
H286 C280 0.930 . S
H287 C283 0.930 . S
C288 N289 1.314 . S
C288 C290 1.353 . S
C288 H294 0.930 . S
N289 Li265 1.990 . S
N289 C288 1.314 . S
N289 C292 1.279 . S
C290 C288 1.353 . S
C290 C293 1.348 . S
C290 H338 0.929 . S
C291 C292 1.358 . S
C291 C293 1.356 . S
C291 H339 0.930 . S
C292 N289 1.279 . S
C292 C291 1.358 . S
C292 H295 0.930 . S
C293 C290 1.348 . S
C293 C291 1.356 . S
H294 C288 0.930 . S
H295 C292 0.930 . S
C296 C298 1.348 . S
C296 C299 1.356 . S
C296 O326 1.325 . S
N297 C300 1.314 . S
N297 C301 1.279 . S
C298 C296 1.348 . S
C298 C300 1.353 . S
C298 H340 0.929 . S
C299 C296 1.356 . S
C299 C301 1.358 . S
C299 H341 0.930 . S
C300 N297 1.314 . S
C300 C298 1.353 . S
C300 H342 0.930 . S
C301 N297 1.279 . S
C301 C299 1.358 . S
C301 H343 0.930 . S
C302 C303 1.348 . S
C302 C304 1.356 . S
C302 O327 1.325 . S
C303 C302 1.348 . S
C303 C305 1.353 . S
C303 H344 0.929 . S
C304 C302 1.356 . S
C304 C306 1.358 . S
C304 H345 0.930 . S
C305 C303 1.353 . S
C305 N307 1.314 . S
C305 H346 0.930 . S
C306 C304 1.358 . S
C306 N307 1.279 . S
C306 H347 0.930 . S
N307 C305 1.314 . S
N307 C306 1.279 . S
C308 C310 1.353 . S
C308 N311 1.314 . S
C308 H314 0.930 . S
C309 N311 1.279 . S
C309 C312 1.358 . S
C309 H315 0.930 . S
C310 C308 1.353 . S
C310 C313 1.348 . S
C310 H348 0.929 . S
N311 Li266 1.990 . S
N311 C308 1.314 . S
N311 C309 1.279 . S
C312 C309 1.358 . S
C312 C313 1.356 . S
C312 H349 0.930 . S
C313 C310 1.348 . S
C313 C312 1.356 . S
H314 C308 0.930 . S
H315 C309 0.930 . S
C316 N317 1.314 . S
C316 C318 1.353 . S
C316 H322 0.930 . S
N317 Li267 1.990 . S
N317 C316 1.314 . S
N317 C320 1.279 . S
C318 C316 1.353 . S
C318 C321 1.348 . S
C318 H350 0.929 . S
C319 C320 1.358 . S
C319 C321 1.356 . S
C319 H351 0.930 . S
C320 N317 1.279 . S
C320 C319 1.358 . S
C320 H323 0.930 . S
C321 C318 1.348 . S
C321 C319 1.356 . S
H322 C316 0.930 . S
H323 C320 0.930 . S
O324 Li264 1.956 . S
O324 Li265 1.970 . S
O324 Li266 1.961 . S
O324 C268 1.325 . S
O325 Li264 1.970 . S
O325 Li265 1.956 . S
O325 Li267 1.961 . S
O325 C274 1.325 . S
O326 Li264 1.961 . S
O326 Li266 1.956 . S
O326 Li267 1.970 . S
O326 C296 1.325 . S
O327 Li265 1.961 . S
O327 Li266 1.970 . S
O327 Li267 1.956 . S
O327 C302 1.325 . S
H328 C270 0.929 . S
H329 C271 0.930 . S
H330 C272 0.930 . S
H331 C273 0.930 . S
H332 C275 0.930 . S
H333 C277 0.929 . S
H334 C278 0.930 . S
H335 C279 0.930 . S
H336 C282 0.930 . S
H337 C285 0.929 . S
H338 C290 0.929 . S
H339 C291 0.930 . S
H340 C298 0.929 . S
H341 C299 0.930 . S
H342 C300 0.930 . S
H343 C301 0.930 . S
H344 C303 0.929 . S
H345 C304 0.930 . S
H346 C305 0.930 . S
H347 C306 0.930 . S
H348 C310 0.929 . S
H349 C312 0.930 . S
H350 C318 0.929 . S
H351 C319 0.930 . S
Li352 N369 1.990 . S
Li352 O412 1.956 . S
Li352 O413 1.970 . S
Li352 O414 1.961 . S
Li353 N377 1.990 . S
Li353 O412 1.970 . S
Li353 O413 1.956 . S
Li353 O415 1.961 . S
Li354 N399 1.990 . S
Li354 O412 1.961 . S
Li354 O414 1.956 . S
Li354 O415 1.970 . S
Li355 N405 1.990 . S
Li355 O413 1.961 . S
Li355 O414 1.970 . S
Li355 O415 1.956 . S
C356 C358 1.348 . S
C356 C359 1.356 . S
C356 O412 1.325 . S
N357 C360 1.314 . S
N357 C361 1.279 . S
C358 C356 1.348 . S
C358 C360 1.353 . S
C358 H416 0.929 . S
C359 C356 1.356 . S
C359 C361 1.358 . S
C359 H417 0.930 . S
C360 N357 1.314 . S
C360 C358 1.353 . S
C360 H418 0.930 . S
C361 N357 1.279 . S
C361 C359 1.358 . S
C361 H419 0.930 . S
C362 C365 1.348 . S
C362 C366 1.356 . S
C362 O413 1.325 . S
C363 N364 1.279 . S
C363 C366 1.358 . S
C363 H420 0.930 . S
N364 C363 1.279 . S
N364 C367 1.314 . S
C365 C362 1.348 . S
C365 C367 1.353 . S
C365 H421 0.929 . S
C366 C362 1.356 . S
C366 C363 1.358 . S
C366 H422 0.930 . S
C367 N364 1.314 . S
C367 C365 1.353 . S
C367 H423 0.930 . S
C368 N369 1.314 . S
C368 C373 1.353 . S
C368 H374 0.930 . S
N369 Li352 1.990 . S
N369 C368 1.314 . S
N369 C371 1.279 . S
C370 C371 1.358 . S
C370 C372 1.356 . S
C370 H424 0.930 . S
C371 N369 1.279 . S
C371 C370 1.358 . S
C371 H375 0.930 . S
C372 C370 1.356 . S
C372 C373 1.348 . S
C373 C368 1.353 . S
C373 C372 1.348 . S
C373 H425 0.929 . S
H374 C368 0.930 . S
H375 C371 0.930 . S
C376 N377 1.314 . S
C376 C378 1.353 . S
C376 H382 0.930 . S
N377 Li353 1.990 . S
N377 C376 1.314 . S
N377 C380 1.279 . S
C378 C376 1.353 . S
C378 C381 1.348 . S
C378 H426 0.929 . S
C379 C380 1.358 . S
C379 C381 1.356 . S
C379 H427 0.930 . S
C380 N377 1.279 . S
C380 C379 1.358 . S
C380 H383 0.930 . S
C381 C378 1.348 . S
C381 C379 1.356 . S
H382 C376 0.930 . S
H383 C380 0.930 . S
C384 C386 1.348 . S
C384 C387 1.356 . S
C384 O414 1.325 . S
N385 C388 1.314 . S
N385 C389 1.279 . S
C386 C384 1.348 . S
C386 C388 1.353 . S
C386 H428 0.929 . S
C387 C384 1.356 . S
C387 C389 1.358 . S
C387 H429 0.930 . S
C388 N385 1.314 . S
C388 C386 1.353 . S
C388 H430 0.930 . S
C389 N385 1.279 . S
C389 C387 1.358 . S
C389 H431 0.930 . S
C390 C391 1.348 . S
C390 C392 1.356 . S
C390 O415 1.325 . S
C391 C390 1.348 . S
C391 C393 1.353 . S
C391 H432 0.929 . S
C392 C390 1.356 . S
C392 C394 1.358 . S
C392 H433 0.930 . S
C393 C391 1.353 . S
C393 N395 1.314 . S
C393 H434 0.930 . S
C394 C392 1.358 . S
C394 N395 1.279 . S
C394 H435 0.930 . S
N395 C393 1.314 . S
N395 C394 1.279 . S
C396 C398 1.353 . S
C396 N399 1.314 . S
C396 H402 0.930 . S
C397 N399 1.279 . S
C397 C400 1.358 . S
C397 H403 0.930 . S
C398 C396 1.353 . S
C398 C401 1.348 . S
C398 H436 0.929 . S
N399 Li354 1.990 . S
N399 C396 1.314 . S
N399 C397 1.279 . S
C400 C397 1.358 . S
C400 C401 1.356 . S
C400 H437 0.930 . S
C401 C398 1.348 . S
C401 C400 1.356 . S
H402 C396 0.930 . S
H403 C397 0.930 . S
C404 N405 1.314 . S
C404 C406 1.353 . S
C404 H410 0.930 . S
N405 Li355 1.990 . S
N405 C404 1.314 . S
N405 C408 1.279 . S
C406 C404 1.353 . S
C406 C409 1.348 . S
C406 H438 0.929 . S
C407 C408 1.358 . S
C407 C409 1.356 . S
C407 H439 0.930 . S
C408 N405 1.279 . S
C408 C407 1.358 . S
C408 H411 0.930 . S
C409 C406 1.348 . S
C409 C407 1.356 . S
H410 C404 0.930 . S
H411 C408 0.930 . S
O412 Li352 1.956 . S
O412 Li353 1.970 . S
O412 Li354 1.961 . S
O412 C356 1.325 . S
O413 Li352 1.970 . S
O413 Li353 1.956 . S
O413 Li355 1.961 . S
O413 C362 1.325 . S
O414 Li352 1.961 . S
O414 Li354 1.956 . S
O414 Li355 1.970 . S
O414 C384 1.325 . S
O415 Li353 1.961 . S
O415 Li354 1.970 . S
O415 Li355 1.956 . S
O415 C390 1.325 . S
H416 C358 0.929 . S
H417 C359 0.930 . S
H418 C360 0.930 . S
H419 C361 0.930 . S
H420 C363 0.930 . S
H421 C365 0.929 . S
H422 C366 0.930 . S
H423 C367 0.930 . S
H424 C370 0.930 . S
H425 C373 0.929 . S
H426 C378 0.929 . S
H427 C379 0.930 . S
H428 C386 0.929 . S
H429 C387 0.930 . S
H430 C388 0.930 . S
H431 C389 0.930 . S
H432 C391 0.929 . S
H433 C392 0.930 . S
H434 C393 0.930 . S
H435 C394 0.930 . S
H436 C398 0.929 . S
H437 C400 0.930 . S
H438 C406 0.929 . S
H439 C407 0.930 . S
Li440 N457 1.990 . S
Li440 O500 1.956 . S
Li440 O501 1.970 . S
Li440 O502 1.961 . S
Li441 N465 1.990 . S
Li441 O500 1.970 . S
Li441 O501 1.956 . S
Li441 O503 1.961 . S
Li442 N487 1.990 . S
Li442 O500 1.961 . S
Li442 O502 1.956 . S
Li442 O503 1.970 . S
Li443 N493 1.990 . S
Li443 O501 1.961 . S
Li443 O502 1.970 . S
Li443 O503 1.956 . S
C444 C446 1.348 . S
C444 C447 1.356 . S
C444 O500 1.325 . S
N445 C448 1.314 . S
N445 C449 1.279 . S
C446 C444 1.348 . S
C446 C448 1.353 . S
C446 H504 0.929 . S
C447 C444 1.356 . S
C447 C449 1.358 . S
C447 H505 0.930 . S
C448 N445 1.314 . S
C448 C446 1.353 . S
C448 H506 0.930 . S
C449 N445 1.279 . S
C449 C447 1.358 . S
C449 H507 0.930 . S
C450 C453 1.348 . S
C450 C454 1.356 . S
C450 O501 1.325 . S
C451 N452 1.279 . S
C451 C454 1.358 . S
C451 H508 0.930 . S
N452 C451 1.279 . S
N452 C455 1.314 . S
C453 C450 1.348 . S
C453 C455 1.353 . S
C453 H509 0.929 . S
C454 C450 1.356 . S
C454 C451 1.358 . S
C454 H510 0.930 . S
C455 N452 1.314 . S
C455 C453 1.353 . S
C455 H511 0.930 . S
C456 N457 1.314 . S
C456 C461 1.353 . S
C456 H462 0.930 . S
N457 Li440 1.990 . S
N457 C456 1.314 . S
N457 C459 1.279 . S
C458 C459 1.358 . S
C458 C460 1.356 . S
C458 H512 0.930 . S
C459 N457 1.279 . S
C459 C458 1.358 . S
C459 H463 0.930 . S
C460 C458 1.356 . S
C460 C461 1.348 . S
C461 C456 1.353 . S
C461 C460 1.348 . S
C461 H513 0.929 . S
H462 C456 0.930 . S
H463 C459 0.930 . S
C464 N465 1.314 . S
C464 C466 1.353 . S
C464 H470 0.930 . S
N465 Li441 1.990 . S
N465 C464 1.314 . S
N465 C468 1.279 . S
C466 C464 1.353 . S
C466 C469 1.348 . S
C466 H514 0.929 . S
C467 C468 1.358 . S
C467 C469 1.356 . S
C467 H515 0.930 . S
C468 N465 1.279 . S
C468 C467 1.358 . S
C468 H471 0.930 . S
C469 C466 1.348 . S
C469 C467 1.356 . S
H470 C464 0.930 . S
H471 C468 0.930 . S
C472 C474 1.348 . S
C472 C475 1.356 . S
C472 O502 1.325 . S
N473 C476 1.314 . S
N473 C477 1.279 . S
C474 C472 1.348 . S
C474 C476 1.353 . S
C474 H516 0.929 . S
C475 C472 1.356 . S
C475 C477 1.358 . S
C475 H517 0.930 . S
C476 N473 1.314 . S
C476 C474 1.353 . S
C476 H518 0.930 . S
C477 N473 1.279 . S
C477 C475 1.358 . S
C477 H519 0.930 . S
C478 C479 1.348 . S
C478 C480 1.356 . S
C478 O503 1.325 . S
C479 C478 1.348 . S
C479 C481 1.353 . S
C479 H520 0.929 . S
C480 C478 1.356 . S
C480 C482 1.358 . S
C480 H521 0.930 . S
C481 C479 1.353 . S
C481 N483 1.314 . S
C481 H522 0.930 . S
C482 C480 1.358 . S
C482 N483 1.279 . S
C482 H523 0.930 . S
N483 C481 1.314 . S
N483 C482 1.279 . S
C484 C486 1.353 . S
C484 N487 1.314 . S
C484 H490 0.930 . S
C485 N487 1.279 . S
C485 C488 1.358 . S
C485 H491 0.930 . S
C486 C484 1.353 . S
C486 C489 1.348 . S
C486 H524 0.929 . S
N487 Li442 1.990 . S
N487 C484 1.314 . S
N487 C485 1.279 . S
C488 C485 1.358 . S
C488 C489 1.356 . S
C488 H525 0.930 . S
C489 C486 1.348 . S
C489 C488 1.356 . S
H490 C484 0.930 . S
H491 C485 0.930 . S
C492 N493 1.314 . S
C492 C494 1.353 . S
C492 H498 0.930 . S
N493 Li443 1.990 . S
N493 C492 1.314 . S
N493 C496 1.279 . S
C494 C492 1.353 . S
C494 C497 1.348 . S
C494 H526 0.929 . S
C495 C496 1.358 . S
C495 C497 1.356 . S
C495 H527 0.930 . S
C496 N493 1.279 . S
C496 C495 1.358 . S
C496 H499 0.930 . S
C497 C494 1.348 . S
C497 C495 1.356 . S
H498 C492 0.930 . S
H499 C496 0.930 . S
O500 Li440 1.956 . S
O500 Li441 1.970 . S
O500 Li442 1.961 . S
O500 C444 1.325 . S
O501 Li440 1.970 . S
O501 Li441 1.956 . S
O501 Li443 1.961 . S
O501 C450 1.325 . S
O502 Li440 1.961 . S
O502 Li442 1.956 . S
O502 Li443 1.970 . S
O502 C472 1.325 . S
O503 Li441 1.961 . S
O503 Li442 1.970 . S
O503 Li443 1.956 . S
O503 C478 1.325 . S
H504 C446 0.929 . S
H505 C447 0.930 . S
H506 C448 0.930 . S
H507 C449 0.930 . S
H508 C451 0.930 . S
H509 C453 0.929 . S
H510 C454 0.930 . S
H511 C455 0.930 . S
H512 C458 0.930 . S
H513 C461 0.929 . S
H514 C466 0.929 . S
H515 C467 0.930 . S
H516 C474 0.929 . S
H517 C475 0.930 . S
H518 C476 0.930 . S
H519 C477 0.930 . S
H520 C479 0.929 . S
H521 C480 0.930 . S
H522 C481 0.930 . S
H523 C482 0.930 . S
H524 C486 0.929 . S
H525 C488 0.930 . S
H526 C494 0.929 . S
H527 C495 0.930 . S
Li528 N545 1.990 . S
Li528 O588 1.956 . S
Li528 O589 1.970 . S
Li528 O590 1.961 . S
Li529 N553 1.990 . S
Li529 O588 1.970 . S
Li529 O589 1.956 . S
Li529 O591 1.961 . S
Li530 N575 1.990 . S
Li530 O588 1.961 . S
Li530 O590 1.956 . S
Li530 O591 1.970 . S
Li531 N581 1.990 . S
Li531 O589 1.961 . S
Li531 O590 1.970 . S
Li531 O591 1.956 . S
C532 C534 1.348 . S
C532 C535 1.356 . S
C532 O588 1.325 . S
N533 C536 1.314 . S
N533 C537 1.279 . S
C534 C532 1.348 . S
C534 C536 1.353 . S
C534 H592 0.929 . S
C535 C532 1.356 . S
C535 C537 1.358 . S
C535 H593 0.930 . S
C536 N533 1.314 . S
C536 C534 1.353 . S
C536 H594 0.930 . S
C537 N533 1.279 . S
C537 C535 1.358 . S
C537 H595 0.930 . S
C538 C541 1.348 . S
C538 C542 1.356 . S
C538 O589 1.325 . S
C539 N540 1.279 . S
C539 C542 1.358 . S
C539 H596 0.930 . S
N540 C539 1.279 . S
N540 C543 1.314 . S
C541 C538 1.348 . S
C541 C543 1.353 . S
C541 H597 0.929 . S
C542 C538 1.356 . S
C542 C539 1.358 . S
C542 H598 0.930 . S
C543 N540 1.314 . S
C543 C541 1.353 . S
C543 H599 0.930 . S
C544 N545 1.314 . S
C544 C549 1.353 . S
C544 H550 0.930 . S
N545 Li528 1.990 . S
N545 C544 1.314 . S
N545 C547 1.279 . S
C546 C547 1.358 . S
C546 C548 1.356 . S
C546 H600 0.930 . S
C547 N545 1.279 . S
C547 C546 1.358 . S
C547 H551 0.930 . S
C548 C546 1.356 . S
C548 C549 1.348 . S
C549 C544 1.353 . S
C549 C548 1.348 . S
C549 H601 0.929 . S
H550 C544 0.930 . S
H551 C547 0.930 . S
C552 N553 1.314 . S
C552 C554 1.353 . S
C552 H558 0.930 . S
N553 Li529 1.990 . S
N553 C552 1.314 . S
N553 C556 1.279 . S
C554 C552 1.353 . S
C554 C557 1.348 . S
C554 H602 0.929 . S
C555 C556 1.358 . S
C555 C557 1.356 . S
C555 H603 0.930 . S
C556 N553 1.279 . S
C556 C555 1.358 . S
C556 H559 0.930 . S
C557 C554 1.348 . S
C557 C555 1.356 . S
H558 C552 0.930 . S
H559 C556 0.930 . S
C560 C562 1.348 . S
C560 C563 1.356 . S
C560 O590 1.325 . S
N561 C564 1.314 . S
N561 C565 1.279 . S
C562 C560 1.348 . S
C562 C564 1.353 . S
C562 H604 0.929 . S
C563 C560 1.356 . S
C563 C565 1.358 . S
C563 H605 0.930 . S
C564 N561 1.314 . S
C564 C562 1.353 . S
C564 H606 0.930 . S
C565 N561 1.279 . S
C565 C563 1.358 . S
C565 H607 0.930 . S
C566 C567 1.348 . S
C566 C568 1.356 . S
C566 O591 1.325 . S
C567 C566 1.348 . S
C567 C569 1.353 . S
C567 H608 0.929 . S
C568 C566 1.356 . S
C568 C570 1.358 . S
C568 H609 0.930 . S
C569 C567 1.353 . S
C569 N571 1.314 . S
C569 H610 0.930 . S
C570 C568 1.358 . S
C570 N571 1.279 . S
C570 H611 0.930 . S
N571 C569 1.314 . S
N571 C570 1.279 . S
C572 C574 1.353 . S
C572 N575 1.314 . S
C572 H578 0.930 . S
C573 N575 1.279 . S
C573 C576 1.358 . S
C573 H579 0.930 . S
C574 C572 1.353 . S
C574 C577 1.348 . S
C574 H612 0.929 . S
N575 Li530 1.990 . S
N575 C572 1.314 . S
N575 C573 1.279 . S
C576 C573 1.358 . S
C576 C577 1.356 . S
C576 H613 0.930 . S
C577 C574 1.348 . S
C577 C576 1.356 . S
H578 C572 0.930 . S
H579 C573 0.930 . S
C580 N581 1.314 . S
C580 C582 1.353 . S
C580 H586 0.930 . S
N581 Li531 1.990 . S
N581 C580 1.314 . S
N581 C584 1.279 . S
C582 C580 1.353 . S
C582 C585 1.348 . S
C582 H614 0.929 . S
C583 C584 1.358 . S
C583 C585 1.356 . S
C583 H615 0.930 . S
C584 N581 1.279 . S
C584 C583 1.358 . S
C584 H587 0.930 . S
C585 C582 1.348 . S
C585 C583 1.356 . S
H586 C580 0.930 . S
H587 C584 0.930 . S
O588 Li528 1.956 . S
O588 Li529 1.970 . S
O588 Li530 1.961 . S
O588 C532 1.325 . S
O589 Li528 1.970 . S
O589 Li529 1.956 . S
O589 Li531 1.961 . S
O589 C538 1.325 . S
O590 Li528 1.961 . S
O590 Li530 1.956 . S
O590 Li531 1.970 . S
O590 C560 1.325 . S
O591 Li529 1.961 . S
O591 Li530 1.970 . S
O591 Li531 1.956 . S
O591 C566 1.325 . S
H592 C534 0.929 . S
H593 C535 0.930 . S
H594 C536 0.930 . S
H595 C537 0.930 . S
H596 C539 0.930 . S
H597 C541 0.929 . S
H598 C542 0.930 . S
H599 C543 0.930 . S
H600 C546 0.930 . S
H601 C549 0.929 . S
H602 C554 0.929 . S
H603 C555 0.930 . S
H604 C562 0.929 . S
H605 C563 0.930 . S
H606 C564 0.930 . S
H607 C565 0.930 . S
H608 C567 0.929 . S
H609 C568 0.930 . S
H610 C569 0.930 . S
H611 C570 0.930 . S
H612 C574 0.929 . S
H613 C576 0.930 . S
H614 C582 0.929 . S
H615 C583 0.930 . S
Li616 N633 1.990 . S
Li616 O676 1.956 . S
Li616 O677 1.970 . S
Li616 O678 1.961 . S
Li617 N641 1.990 . S
Li617 O676 1.970 . S
Li617 O677 1.956 . S
Li617 O679 1.961 . S
Li618 N663 1.990 . S
Li618 O676 1.961 . S
Li618 O678 1.956 . S
Li618 O679 1.970 . S
Li619 N669 1.990 . S
Li619 O677 1.961 . S
Li619 O678 1.970 . S
Li619 O679 1.956 . S
C620 C622 1.348 . S
C620 C623 1.356 . S
C620 O676 1.325 . S
N621 C624 1.314 . S
N621 C625 1.279 . S
C622 C620 1.348 . S
C622 C624 1.353 . S
C622 H680 0.929 . S
C623 C620 1.356 . S
C623 C625 1.358 . S
C623 H681 0.930 . S
C624 N621 1.314 . S
C624 C622 1.353 . S
C624 H682 0.930 . S
C625 N621 1.279 . S
C625 C623 1.358 . S
C625 H683 0.930 . S
C626 C629 1.348 . S
C626 C630 1.356 . S
C626 O677 1.325 . S
C627 N628 1.279 . S
C627 C630 1.358 . S
C627 H684 0.930 . S
N628 C627 1.279 . S
N628 C631 1.314 . S
C629 C626 1.348 . S
C629 C631 1.353 . S
C629 H685 0.929 . S
C630 C626 1.356 . S
C630 C627 1.358 . S
C630 H686 0.930 . S
C631 N628 1.314 . S
C631 C629 1.353 . S
C631 H687 0.930 . S
C632 N633 1.314 . S
C632 C637 1.353 . S
C632 H638 0.930 . S
N633 Li616 1.990 . S
N633 C632 1.314 . S
N633 C635 1.279 . S
C634 C635 1.358 . S
C634 C636 1.356 . S
C634 H688 0.930 . S
C635 N633 1.279 . S
C635 C634 1.358 . S
C635 H639 0.930 . S
C636 C634 1.356 . S
C636 C637 1.348 . S
C637 C632 1.353 . S
C637 C636 1.348 . S
C637 H689 0.929 . S
H638 C632 0.930 . S
H639 C635 0.930 . S
C640 N641 1.314 . S
C640 C642 1.353 . S
C640 H646 0.930 . S
N641 Li617 1.990 . S
N641 C640 1.314 . S
N641 C644 1.279 . S
C642 C640 1.353 . S
C642 C645 1.348 . S
C642 H690 0.929 . S
C643 C644 1.358 . S
C643 C645 1.356 . S
C643 H691 0.930 . S
C644 N641 1.279 . S
C644 C643 1.358 . S
C644 H647 0.930 . S
C645 C642 1.348 . S
C645 C643 1.356 . S
H646 C640 0.930 . S
H647 C644 0.930 . S
C648 C650 1.348 . S
C648 C651 1.356 . S
C648 O678 1.325 . S
N649 C652 1.314 . S
N649 C653 1.279 . S
C650 C648 1.348 . S
C650 C652 1.353 . S
C650 H692 0.929 . S
C651 C648 1.356 . S
C651 C653 1.358 . S
C651 H693 0.930 . S
C652 N649 1.314 . S
C652 C650 1.353 . S
C652 H694 0.930 . S
C653 N649 1.279 . S
C653 C651 1.358 . S
C653 H695 0.930 . S
C654 C655 1.348 . S
C654 C656 1.356 . S
C654 O679 1.325 . S
C655 C654 1.348 . S
C655 C657 1.353 . S
C655 H696 0.929 . S
C656 C654 1.356 . S
C656 C658 1.358 . S
C656 H697 0.930 . S
C657 C655 1.353 . S
C657 N659 1.314 . S
C657 H698 0.930 . S
C658 C656 1.358 . S
C658 N659 1.279 . S
C658 H699 0.930 . S
N659 C657 1.314 . S
N659 C658 1.279 . S
C660 C662 1.353 . S
C660 N663 1.314 . S
C660 H666 0.930 . S
C661 N663 1.279 . S
C661 C664 1.358 . S
C661 H667 0.930 . S
C662 C660 1.353 . S
C662 C665 1.348 . S
C662 H700 0.929 . S
N663 Li618 1.990 . S
N663 C660 1.314 . S
N663 C661 1.279 . S
C664 C661 1.358 . S
C664 C665 1.356 . S
C664 H701 0.930 . S
C665 C662 1.348 . S
C665 C664 1.356 . S
H666 C660 0.930 . S
H667 C661 0.930 . S
C668 N669 1.314 . S
C668 C670 1.353 . S
C668 H674 0.930 . S
N669 Li619 1.990 . S
N669 C668 1.314 . S
N669 C672 1.279 . S
C670 C668 1.353 . S
C670 C673 1.348 . S
C670 H702 0.929 . S
C671 C672 1.358 . S
C671 C673 1.356 . S
C671 H703 0.930 . S
C672 N669 1.279 . S
C672 C671 1.358 . S
C672 H675 0.930 . S
C673 C670 1.348 . S
C673 C671 1.356 . S
H674 C668 0.930 . S
H675 C672 0.930 . S
O676 Li616 1.956 . S
O676 Li617 1.970 . S
O676 Li618 1.961 . S
O676 C620 1.325 . S
O677 Li616 1.970 . S
O677 Li617 1.956 . S
O677 Li619 1.961 . S
O677 C626 1.325 . S
O678 Li616 1.961 . S
O678 Li618 1.956 . S
O678 Li619 1.970 . S
O678 C648 1.325 . S
O679 Li617 1.961 . S
O679 Li618 1.970 . S
O679 Li619 1.956 . S
O679 C654 1.325 . S
H680 C622 0.929 . S
H681 C623 0.930 . S
H682 C624 0.930 . S
H683 C625 0.930 . S
H684 C627 0.930 . S
H685 C629 0.929 . S
H686 C630 0.930 . S
H687 C631 0.930 . S
H688 C634 0.930 . S
H689 C637 0.929 . S
H690 C642 0.929 . S
H691 C643 0.930 . S
H692 C650 0.929 . S
H693 C651 0.930 . S
H694 C652 0.930 . S
H695 C653 0.930 . S
H696 C655 0.929 . S
H697 C656 0.930 . S
H698 C657 0.930 . S
H699 C658 0.930 . S
H700 C662 0.929 . S
H701 C664 0.930 . S
H702 C670 0.929 . S
H703 C671 0.930 . S
Li704 N721 1.990 . S
Li704 O764 1.956 . S
Li704 O765 1.970 . S
Li704 O766 1.961 . S
Li705 N729 1.990 . S
Li705 O764 1.970 . S
Li705 O765 1.956 . S
Li705 O767 1.961 . S
Li706 N751 1.990 . S
Li706 O764 1.961 . S
Li706 O766 1.956 . S
Li706 O767 1.970 . S
Li707 N757 1.990 . S
Li707 O765 1.961 . S
Li707 O766 1.970 . S
Li707 O767 1.956 . S
C708 C710 1.348 . S
C708 C711 1.356 . S
C708 O764 1.325 . S
N709 C712 1.314 . S
N709 C713 1.279 . S
C710 C708 1.348 . S
C710 C712 1.353 . S
C710 H768 0.929 . S
C711 C708 1.356 . S
C711 C713 1.358 . S
C711 H769 0.930 . S
C712 N709 1.314 . S
C712 C710 1.353 . S
C712 H770 0.930 . S
C713 N709 1.279 . S
C713 C711 1.358 . S
C713 H771 0.930 . S
C714 C717 1.348 . S
C714 C718 1.356 . S
C714 O765 1.325 . S
C715 N716 1.279 . S
C715 C718 1.358 . S
C715 H772 0.930 . S
N716 C715 1.279 . S
N716 C719 1.314 . S
C717 C714 1.348 . S
C717 C719 1.353 . S
C717 H773 0.929 . S
C718 C714 1.356 . S
C718 C715 1.358 . S
C718 H774 0.930 . S
C719 N716 1.314 . S
C719 C717 1.353 . S
C719 H775 0.930 . S
C720 N721 1.314 . S
C720 C725 1.353 . S
C720 H726 0.930 . S
N721 Li704 1.990 . S
N721 C720 1.314 . S
N721 C723 1.279 . S
C722 C723 1.358 . S
C722 C724 1.356 . S
C722 H776 0.930 . S
C723 N721 1.279 . S
C723 C722 1.358 . S
C723 H727 0.930 . S
C724 C722 1.356 . S
C724 C725 1.348 . S
C725 C720 1.353 . S
C725 C724 1.348 . S
C725 H777 0.929 . S
H726 C720 0.930 . S
H727 C723 0.930 . S
C728 N729 1.314 . S
C728 C730 1.353 . S
C728 H734 0.930 . S
N729 Li705 1.990 . S
N729 C728 1.314 . S
N729 C732 1.279 . S
C730 C728 1.353 . S
C730 C733 1.348 . S
C730 H778 0.929 . S
C731 C732 1.358 . S
C731 C733 1.356 . S
C731 H779 0.930 . S
C732 N729 1.279 . S
C732 C731 1.358 . S
C732 H735 0.930 . S
C733 C730 1.348 . S
C733 C731 1.356 . S
H734 C728 0.930 . S
H735 C732 0.930 . S
C736 C738 1.348 . S
C736 C739 1.356 . S
C736 O766 1.325 . S
N737 C740 1.314 . S
N737 C741 1.279 . S
C738 C736 1.348 . S
C738 C740 1.353 . S
C738 H780 0.929 . S
C739 C736 1.356 . S
C739 C741 1.358 . S
C739 H781 0.930 . S
C740 N737 1.314 . S
C740 C738 1.353 . S
C740 H782 0.930 . S
C741 N737 1.279 . S
C741 C739 1.358 . S
C741 H783 0.930 . S
C742 C743 1.348 . S
C742 C744 1.356 . S
C742 O767 1.325 . S
C743 C742 1.348 . S
C743 C745 1.353 . S
C743 H784 0.929 . S
C744 C742 1.356 . S
C744 C746 1.358 . S
C744 H785 0.930 . S
C745 C743 1.353 . S
C745 N747 1.314 . S
C745 H786 0.930 . S
C746 C744 1.358 . S
C746 N747 1.279 . S
C746 H787 0.930 . S
N747 C745 1.314 . S
N747 C746 1.279 . S
C748 C750 1.353 . S
C748 N751 1.314 . S
C748 H754 0.930 . S
C749 N751 1.279 . S
C749 C752 1.358 . S
C749 H755 0.930 . S
C750 C748 1.353 . S
C750 C753 1.348 . S
C750 H788 0.929 . S
N751 Li706 1.990 . S
N751 C748 1.314 . S
N751 C749 1.279 . S
C752 C749 1.358 . S
C752 C753 1.356 . S
C752 H789 0.930 . S
C753 C750 1.348 . S
C753 C752 1.356 . S
H754 C748 0.930 . S
H755 C749 0.930 . S
C756 N757 1.314 . S
C756 C758 1.353 . S
C756 H762 0.930 . S
N757 Li707 1.990 . S
N757 C756 1.314 . S
N757 C760 1.279 . S
C758 C756 1.353 . S
C758 C761 1.348 . S
C758 H790 0.929 . S
C759 C760 1.358 . S
C759 C761 1.356 . S
C759 H791 0.930 . S
C760 N757 1.279 . S
C760 C759 1.358 . S
C760 H763 0.930 . S
C761 C758 1.348 . S
C761 C759 1.356 . S
H762 C756 0.930 . S
H763 C760 0.930 . S
O764 Li704 1.956 . S
O764 Li705 1.970 . S
O764 Li706 1.961 . S
O764 C708 1.325 . S
O765 Li704 1.970 . S
O765 Li705 1.956 . S
O765 Li707 1.961 . S
O765 C714 1.325 . S
O766 Li704 1.961 . S
O766 Li706 1.956 . S
O766 Li707 1.970 . S
O766 C736 1.325 . S
O767 Li705 1.961 . S
O767 Li706 1.970 . S
O767 Li707 1.956 . S
O767 C742 1.325 . S
H768 C710 0.929 . S
H769 C711 0.930 . S
H770 C712 0.930 . S
H771 C713 0.930 . S
H772 C715 0.930 . S
H773 C717 0.929 . S
H774 C718 0.930 . S
H775 C719 0.930 . S
H776 C722 0.930 . S
H777 C725 0.929 . S
H778 C730 0.929 . S
H779 C731 0.930 . S
H780 C738 0.929 . S
H781 C739 0.930 . S
H782 C740 0.930 . S
H783 C741 0.930 . S
H784 C743 0.929 . S
H785 C744 0.930 . S
H786 C745 0.930 . S
H787 C746 0.930 . S
H788 C750 0.929 . S
H789 C752 0.930 . S
H790 C758 0.929 . S
H791 C759 0.930 . S
Li792 N809 1.990 . S
Li792 O852 1.956 . S
Li792 O853 1.970 . S
Li792 O854 1.961 . S
Li793 N817 1.990 . S
Li793 O852 1.970 . S
Li793 O853 1.956 . S
Li793 O855 1.961 . S
Li794 N839 1.990 . S
Li794 O852 1.961 . S
Li794 O854 1.956 . S
Li794 O855 1.970 . S
Li795 N845 1.990 . S
Li795 O853 1.961 . S
Li795 O854 1.970 . S
Li795 O855 1.956 . S
C796 C798 1.348 . S
C796 C799 1.356 . S
C796 O852 1.325 . S
N797 C800 1.314 . S
N797 C801 1.279 . S
C798 C796 1.348 . S
C798 C800 1.353 . S
C798 H856 0.929 . S
C799 C796 1.356 . S
C799 C801 1.358 . S
C799 H857 0.930 . S
C800 N797 1.314 . S
C800 C798 1.353 . S
C800 H858 0.930 . S
C801 N797 1.279 . S
C801 C799 1.358 . S
C801 H859 0.930 . S
C802 C805 1.348 . S
C802 C806 1.356 . S
C802 O853 1.325 . S
C803 N804 1.279 . S
C803 C806 1.358 . S
C803 H860 0.930 . S
N804 C803 1.279 . S
N804 C807 1.314 . S
C805 C802 1.348 . S
C805 C807 1.353 . S
C805 H861 0.929 . S
C806 C802 1.356 . S
C806 C803 1.358 . S
C806 H862 0.930 . S
C807 N804 1.314 . S
C807 C805 1.353 . S
C807 H863 0.930 . S
C808 N809 1.314 . S
C808 C813 1.353 . S
C808 H814 0.930 . S
N809 Li792 1.990 . S
N809 C808 1.314 . S
N809 C811 1.279 . S
C810 C811 1.358 . S
C810 C812 1.356 . S
C810 H864 0.930 . S
C811 N809 1.279 . S
C811 C810 1.358 . S
C811 H815 0.930 . S
C812 C810 1.356 . S
C812 C813 1.348 . S
C813 C808 1.353 . S
C813 C812 1.348 . S
C813 H865 0.929 . S
H814 C808 0.930 . S
H815 C811 0.930 . S
C816 N817 1.314 . S
C816 C818 1.353 . S
C816 H822 0.930 . S
N817 Li793 1.990 . S
N817 C816 1.314 . S
N817 C820 1.279 . S
C818 C816 1.353 . S
C818 C821 1.348 . S
C818 H866 0.929 . S
C819 C820 1.358 . S
C819 C821 1.356 . S
C819 H867 0.930 . S
C820 N817 1.279 . S
C820 C819 1.358 . S
C820 H823 0.930 . S
C821 C818 1.348 . S
C821 C819 1.356 . S
H822 C816 0.930 . S
H823 C820 0.930 . S
C824 C826 1.348 . S
C824 C827 1.356 . S
C824 O854 1.325 . S
N825 C828 1.314 . S
N825 C829 1.279 . S
C826 C824 1.348 . S
C826 C828 1.353 . S
C826 H868 0.929 . S
C827 C824 1.356 . S
C827 C829 1.358 . S
C827 H869 0.930 . S
C828 N825 1.314 . S
C828 C826 1.353 . S
C828 H870 0.930 . S
C829 N825 1.279 . S
C829 C827 1.358 . S
C829 H871 0.930 . S
C830 C831 1.348 . S
C830 C832 1.356 . S
C830 O855 1.325 . S
C831 C830 1.348 . S
C831 C833 1.353 . S
C831 H872 0.929 . S
C832 C830 1.356 . S
C832 C834 1.358 . S
C832 H873 0.930 . S
C833 C831 1.353 . S
C833 N835 1.314 . S
C833 H874 0.930 . S
C834 C832 1.358 . S
C834 N835 1.279 . S
C834 H875 0.930 . S
N835 C833 1.314 . S
N835 C834 1.279 . S
C836 C838 1.353 . S
C836 N839 1.314 . S
C836 H842 0.930 . S
C837 N839 1.279 . S
C837 C840 1.358 . S
C837 H843 0.930 . S
C838 C836 1.353 . S
C838 C841 1.348 . S
C838 H876 0.929 . S
N839 Li794 1.990 . S
N839 C836 1.314 . S
N839 C837 1.279 . S
C840 C837 1.358 . S
C840 C841 1.356 . S
C840 H877 0.930 . S
C841 C838 1.348 . S
C841 C840 1.356 . S
H842 C836 0.930 . S
H843 C837 0.930 . S
C844 N845 1.314 . S
C844 C846 1.353 . S
C844 H850 0.930 . S
N845 Li795 1.990 . S
N845 C844 1.314 . S
N845 C848 1.279 . S
C846 C844 1.353 . S
C846 C849 1.348 . S
C846 H878 0.929 . S
C847 C848 1.358 . S
C847 C849 1.356 . S
C847 H879 0.930 . S
C848 N845 1.279 . S
C848 C847 1.358 . S
C848 H851 0.930 . S
C849 C846 1.348 . S
C849 C847 1.356 . S
H850 C844 0.930 . S
H851 C848 0.930 . S
O852 Li792 1.956 . S
O852 Li793 1.970 . S
O852 Li794 1.961 . S
O852 C796 1.325 . S
O853 Li792 1.970 . S
O853 Li793 1.956 . S
O853 Li795 1.961 . S
O853 C802 1.325 . S
O854 Li792 1.961 . S
O854 Li794 1.956 . S
O854 Li795 1.970 . S
O854 C824 1.325 . S
O855 Li793 1.961 . S
O855 Li794 1.970 . S
O855 Li795 1.956 . S
O855 C830 1.325 . S
H856 C798 0.929 . S
H857 C799 0.930 . S
H858 C800 0.930 . S
H859 C801 0.930 . S
H860 C803 0.930 . S
H861 C805 0.929 . S
H862 C806 0.930 . S
H863 C807 0.930 . S
H864 C810 0.930 . S
H865 C813 0.929 . S
H866 C818 0.929 . S
H867 C819 0.930 . S
H868 C826 0.929 . S
H869 C827 0.930 . S
H870 C828 0.930 . S
H871 C829 0.930 . S
H872 C831 0.929 . S
H873 C832 0.930 . S
H874 C833 0.930 . S
H875 C834 0.930 . S
H876 C838 0.929 . S
H877 C840 0.930 . S
H878 C846 0.929 . S
H879 C847 0.930 . S
Li880 N897 1.990 . S
Li880 O940 1.956 . S
Li880 O941 1.970 . S
Li880 O942 1.961 . S
Li881 N905 1.990 . S
Li881 O940 1.970 . S
Li881 O941 1.956 . S
Li881 O943 1.961 . S
Li882 N927 1.990 . S
Li882 O940 1.961 . S
Li882 O942 1.956 . S
Li882 O943 1.970 . S
Li883 N933 1.990 . S
Li883 O941 1.961 . S
Li883 O942 1.970 . S
Li883 O943 1.956 . S
C884 C886 1.348 . S
C884 C887 1.356 . S
C884 O940 1.325 . S
N885 C888 1.314 . S
N885 C889 1.279 . S
C886 C884 1.348 . S
C886 C888 1.353 . S
C886 H944 0.929 . S
C887 C884 1.356 . S
C887 C889 1.358 . S
C887 H945 0.930 . S
C888 N885 1.314 . S
C888 C886 1.353 . S
C888 H946 0.930 . S
C889 N885 1.279 . S
C889 C887 1.358 . S
C889 H947 0.930 . S
C890 C893 1.348 . S
C890 C894 1.356 . S
C890 O941 1.325 . S
C891 N892 1.279 . S
C891 C894 1.358 . S
C891 H948 0.930 . S
N892 C891 1.279 . S
N892 C895 1.314 . S
C893 C890 1.348 . S
C893 C895 1.353 . S
C893 H949 0.929 . S
C894 C890 1.356 . S
C894 C891 1.358 . S
C894 H950 0.930 . S
C895 N892 1.314 . S
C895 C893 1.353 . S
C895 H951 0.930 . S
C896 N897 1.314 . S
C896 C901 1.353 . S
C896 H902 0.930 . S
N897 Li880 1.990 . S
N897 C896 1.314 . S
N897 C899 1.279 . S
C898 C899 1.358 . S
C898 C900 1.356 . S
C898 H952 0.930 . S
C899 N897 1.279 . S
C899 C898 1.358 . S
C899 H903 0.930 . S
C900 C898 1.356 . S
C900 C901 1.348 . S
C901 C896 1.353 . S
C901 C900 1.348 . S
C901 H953 0.929 . S
H902 C896 0.930 . S
H903 C899 0.930 . S
C904 N905 1.314 . S
C904 C906 1.353 . S
C904 H910 0.930 . S
N905 Li881 1.990 . S
N905 C904 1.314 . S
N905 C908 1.279 . S
C906 C904 1.353 . S
C906 C909 1.348 . S
C906 H954 0.929 . S
C907 C908 1.358 . S
C907 C909 1.356 . S
C907 H955 0.930 . S
C908 N905 1.279 . S
C908 C907 1.358 . S
C908 H911 0.930 . S
C909 C906 1.348 . S
C909 C907 1.356 . S
H910 C904 0.930 . S
H911 C908 0.930 . S
C912 C914 1.348 . S
C912 C915 1.356 . S
C912 O942 1.325 . S
N913 C916 1.314 . S
N913 C917 1.279 . S
C914 C912 1.348 . S
C914 C916 1.353 . S
C914 H956 0.929 . S
C915 C912 1.356 . S
C915 C917 1.358 . S
C915 H957 0.930 . S
C916 N913 1.314 . S
C916 C914 1.353 . S
C916 H958 0.930 . S
C917 N913 1.279 . S
C917 C915 1.358 . S
C917 H959 0.930 . S
C918 C919 1.348 . S
C918 C920 1.356 . S
C918 O943 1.325 . S
C919 C918 1.348 . S
C919 C921 1.353 . S
C919 H960 0.929 . S
C920 C918 1.356 . S
C920 C922 1.358 . S
C920 H961 0.930 . S
C921 C919 1.353 . S
C921 N923 1.314 . S
C921 H962 0.930 . S
C922 C920 1.358 . S
C922 N923 1.279 . S
C922 H963 0.930 . S
N923 C921 1.314 . S
N923 C922 1.279 . S
C924 C926 1.353 . S
C924 N927 1.314 . S
C924 H930 0.930 . S
C925 N927 1.279 . S
C925 C928 1.358 . S
C925 H931 0.930 . S
C926 C924 1.353 . S
C926 C929 1.348 . S
C926 H964 0.929 . S
N927 Li882 1.990 . S
N927 C924 1.314 . S
N927 C925 1.279 . S
C928 C925 1.358 . S
C928 C929 1.356 . S
C928 H965 0.930 . S
C929 C926 1.348 . S
C929 C928 1.356 . S
H930 C924 0.930 . S
H931 C925 0.930 . S
C932 N933 1.314 . S
C932 C934 1.353 . S
C932 H938 0.930 . S
N933 Li883 1.990 . S
N933 C932 1.314 . S
N933 C936 1.279 . S
C934 C932 1.353 . S
C934 C937 1.348 . S
C934 H966 0.929 . S
C935 C936 1.358 . S
C935 C937 1.356 . S
C935 H967 0.930 . S
C936 N933 1.279 . S
C936 C935 1.358 . S
C936 H939 0.930 . S
C937 C934 1.348 . S
C937 C935 1.356 . S
H938 C932 0.930 . S
H939 C936 0.930 . S
O940 Li880 1.956 . S
O940 Li881 1.970 . S
O940 Li882 1.961 . S
O940 C884 1.325 . S
O941 Li880 1.970 . S
O941 Li881 1.956 . S
O941 Li883 1.961 . S
O941 C890 1.325 . S
O942 Li880 1.961 . S
O942 Li882 1.956 . S
O942 Li883 1.970 . S
O942 C912 1.325 . S
O943 Li881 1.961 . S
O943 Li882 1.970 . S
O943 Li883 1.956 . S
O943 C918 1.325 . S
H944 C886 0.929 . S
H945 C887 0.930 . S
H946 C888 0.930 . S
H947 C889 0.930 . S
H948 C891 0.930 . S
H949 C893 0.929 . S
H950 C894 0.930 . S
H951 C895 0.930 . S
H952 C898 0.930 . S
H953 C901 0.929 . S
H954 C906 0.929 . S
H955 C907 0.930 . S
H956 C914 0.929 . S
H957 C915 0.930 . S
H958 C916 0.930 . S
H959 C917 0.930 . S
H960 C919 0.929 . S
H961 C920 0.930 . S
H962 C921 0.930 . S
H963 C922 0.930 . S
H964 C926 0.929 . S
H965 C928 0.930 . S
H966 C934 0.929 . S
H967 C935 0.930 . S
Li968 N985 1.990 . S
Li968 O1028 1.956 . S
Li968 O1029 1.970 . S
Li968 O1030 1.961 . S
Li969 N993 1.990 . S
Li969 O1028 1.970 . S
Li969 O1029 1.956 . S
Li969 O1031 1.961 . S
Li970 N1015 1.990 . S
Li970 O1028 1.961 . S
Li970 O1030 1.956 . S
Li970 O1031 1.970 . S
Li971 N1021 1.990 . S
Li971 O1029 1.961 . S
Li971 O1030 1.970 . S
Li971 O1031 1.956 . S
C972 C974 1.348 . S
C972 C975 1.356 . S
C972 O1028 1.325 . S
N973 C976 1.314 . S
N973 C977 1.279 . S
C974 C972 1.348 . S
C974 C976 1.353 . S
C974 H1032 0.929 . S
C975 C972 1.356 . S
C975 C977 1.358 . S
C975 H1033 0.930 . S
C976 N973 1.314 . S
C976 C974 1.353 . S
C976 H1034 0.930 . S
C977 N973 1.279 . S
C977 C975 1.358 . S
C977 H1035 0.930 . S
C978 C981 1.348 . S
C978 C982 1.356 . S
C978 O1029 1.325 . S
C979 N980 1.279 . S
C979 C982 1.358 . S
C979 H1036 0.930 . S
N980 C979 1.279 . S
N980 C983 1.314 . S
C981 C978 1.348 . S
C981 C983 1.353 . S
C981 H1037 0.929 . S
C982 C978 1.356 . S
C982 C979 1.358 . S
C982 H1038 0.930 . S
C983 N980 1.314 . S
C983 C981 1.353 . S
C983 H1039 0.930 . S
C984 N985 1.314 . S
C984 C989 1.353 . S
C984 H990 0.930 . S
N985 Li968 1.990 . S
N985 C984 1.314 . S
N985 C987 1.279 . S
C986 C987 1.358 . S
C986 C988 1.356 . S
C986 H1040 0.930 . S
C987 N985 1.279 . S
C987 C986 1.358 . S
C987 H991 0.930 . S
C988 C986 1.356 . S
C988 C989 1.348 . S
C989 C984 1.353 . S
C989 C988 1.348 . S
C989 H1041 0.929 . S
H990 C984 0.930 . S
H991 C987 0.930 . S
C992 N993 1.314 . S
C992 C994 1.353 . S
C992 H998 0.930 . S
N993 Li969 1.990 . S
N993 C992 1.314 . S
N993 C996 1.279 . S
C994 C992 1.353 . S
C994 C997 1.348 . S
C994 H1042 0.929 . S
C995 C996 1.358 . S
C995 C997 1.356 . S
C995 H1043 0.930 . S
C996 N993 1.279 . S
C996 C995 1.358 . S
C996 H999 0.930 . S
C997 C994 1.348 . S
C997 C995 1.356 . S
H998 C992 0.930 . S
H999 C996 0.930 . S
C1000 C1002 1.348 . S
C1000 C1003 1.356 . S
C1000 O1030 1.325 . S
N1001 C1004 1.314 . S
N1001 C1005 1.279 . S
C1002 C1000 1.348 . S
C1002 C1004 1.353 . S
C1002 H1044 0.929 . S
C1003 C1000 1.356 . S
C1003 C1005 1.358 . S
C1003 H1045 0.930 . S
C1004 N1001 1.314 . S
C1004 C1002 1.353 . S
C1004 H1046 0.930 . S
C1005 N1001 1.279 . S
C1005 C1003 1.358 . S
C1005 H1047 0.930 . S
C1006 C1007 1.348 . S
C1006 C1008 1.356 . S
C1006 O1031 1.325 . S
C1007 C1006 1.348 . S
C1007 C1009 1.353 . S
C1007 H1048 0.929 . S
C1008 C1006 1.356 . S
C1008 C1010 1.358 . S
C1008 H1049 0.930 . S
C1009 C1007 1.353 . S
C1009 N1011 1.314 . S
C1009 H1050 0.930 . S
C1010 C1008 1.358 . S
C1010 N1011 1.279 . S
C1010 H1051 0.930 . S
N1011 C1009 1.314 . S
N1011 C1010 1.279 . S
C1012 C1014 1.353 . S
C1012 N1015 1.314 . S
C1012 H1018 0.930 . S
C1013 N1015 1.279 . S
C1013 C1016 1.358 . S
C1013 H1019 0.930 . S
C1014 C1012 1.353 . S
C1014 C1017 1.348 . S
C1014 H1052 0.929 . S
N1015 Li970 1.990 . S
N1015 C1012 1.314 . S
N1015 C1013 1.279 . S
C1016 C1013 1.358 . S
C1016 C1017 1.356 . S
C1016 H1053 0.930 . S
C1017 C1014 1.348 . S
C1017 C1016 1.356 . S
H1018 C1012 0.930 . S
H1019 C1013 0.930 . S
C1020 N1021 1.314 . S
C1020 C1022 1.353 . S
C1020 H1026 0.930 . S
N1021 Li971 1.990 . S
N1021 C1020 1.314 . S
N1021 C1024 1.279 . S
C1022 C1020 1.353 . S
C1022 C1025 1.348 . S
C1022 H1054 0.929 . S
C1023 C1024 1.358 . S
C1023 C1025 1.356 . S
C1023 H1055 0.930 . S
C1024 N1021 1.279 . S
C1024 C1023 1.358 . S
C1024 H1027 0.930 . S
C1025 C1022 1.348 . S
C1025 C1023 1.356 . S
H1026 C1020 0.930 . S
H1027 C1024 0.930 . S
O1028 Li968 1.956 . S
O1028 Li969 1.970 . S
O1028 Li970 1.961 . S
O1028 C972 1.325 . S
O1029 Li968 1.970 . S
O1029 Li969 1.956 . S
O1029 Li971 1.961 . S
O1029 C978 1.325 . S
O1030 Li968 1.961 . S
O1030 Li970 1.956 . S
O1030 Li971 1.970 . S
O1030 C1000 1.325 . S
O1031 Li969 1.961 . S
O1031 Li970 1.970 . S
O1031 Li971 1.956 . S
O1031 C1006 1.325 . S
H1032 C974 0.929 . S
H1033 C975 0.930 . S
H1034 C976 0.930 . S
H1035 C977 0.930 . S
H1036 C979 0.930 . S
H1037 C981 0.929 . S
H1038 C982 0.930 . S
H1039 C983 0.930 . S
H1040 C986 0.930 . S
H1041 C989 0.929 . S
H1042 C994 0.929 . S
H1043 C995 0.930 . S
H1044 C1002 0.929 . S
H1045 C1003 0.930 . S
H1046 C1004 0.930 . S
H1047 C1005 0.930 . S
H1048 C1007 0.929 . S
H1049 C1008 0.930 . S
H1050 C1009 0.930 . S
H1051 C1010 0.930 . S
H1052 C1014 0.929 . S
H1053 C1016 0.930 . S
H1054 C1022 0.929 . S
H1055 C1023 0.930 . S
Li1056 N1073 1.990 . S
Li1056 O1116 1.956 . S
Li1056 O1117 1.970 . S
Li1056 O1118 1.961 . S
Li1057 N1081 1.990 . S
Li1057 O1116 1.970 . S
Li1057 O1117 1.956 . S
Li1057 O1119 1.961 . S
Li1058 N1103 1.990 . S
Li1058 O1116 1.961 . S
Li1058 O1118 1.956 . S
Li1058 O1119 1.970 . S
Li1059 N1109 1.990 . S
Li1059 O1117 1.961 . S
Li1059 O1118 1.970 . S
Li1059 O1119 1.956 . S
C1060 C1062 1.348 . S
C1060 C1063 1.356 . S
C1060 O1116 1.325 . S
N1061 C1064 1.314 . S
N1061 C1065 1.279 . S
C1062 C1060 1.348 . S
C1062 C1064 1.353 . S
C1062 H1120 0.929 . S
C1063 C1060 1.356 . S
C1063 C1065 1.358 . S
C1063 H1121 0.930 . S
C1064 N1061 1.314 . S
C1064 C1062 1.353 . S
C1064 H1122 0.930 . S
C1065 N1061 1.279 . S
C1065 C1063 1.358 . S
C1065 H1123 0.930 . S
C1066 C1069 1.348 . S
C1066 C1070 1.356 . S
C1066 O1117 1.325 . S
C1067 N1068 1.279 . S
C1067 C1070 1.358 . S
C1067 H1124 0.930 . S
N1068 C1067 1.279 . S
N1068 C1071 1.314 . S
C1069 C1066 1.348 . S
C1069 C1071 1.353 . S
C1069 H1125 0.929 . S
C1070 C1066 1.356 . S
C1070 C1067 1.358 . S
C1070 H1126 0.930 . S
C1071 N1068 1.314 . S
C1071 C1069 1.353 . S
C1071 H1127 0.930 . S
C1072 N1073 1.314 . S
C1072 C1077 1.353 . S
C1072 H1078 0.930 . S
N1073 Li1056 1.990 . S
N1073 C1072 1.314 . S
N1073 C1075 1.279 . S
C1074 C1075 1.358 . S
C1074 C1076 1.356 . S
C1074 H1128 0.930 . S
C1075 N1073 1.279 . S
C1075 C1074 1.358 . S
C1075 H1079 0.930 . S
C1076 C1074 1.356 . S
C1076 C1077 1.348 . S
C1077 C1072 1.353 . S
C1077 C1076 1.348 . S
C1077 H1129 0.929 . S
H1078 C1072 0.930 . S
H1079 C1075 0.930 . S
C1080 N1081 1.314 . S
C1080 C1082 1.353 . S
C1080 H1086 0.930 . S
N1081 Li1057 1.990 . S
N1081 C1080 1.314 . S
N1081 C1084 1.279 . S
C1082 C1080 1.353 . S
C1082 C1085 1.348 . S
C1082 H1130 0.929 . S
C1083 C1084 1.358 . S
C1083 C1085 1.356 . S
C1083 H1131 0.930 . S
C1084 N1081 1.279 . S
C1084 C1083 1.358 . S
C1084 H1087 0.930 . S
C1085 C1082 1.348 . S
C1085 C1083 1.356 . S
H1086 C1080 0.930 . S
H1087 C1084 0.930 . S
C1088 C1090 1.348 . S
C1088 C1091 1.356 . S
C1088 O1118 1.325 . S
N1089 C1092 1.314 . S
N1089 C1093 1.279 . S
C1090 C1088 1.348 . S
C1090 C1092 1.353 . S
C1090 H1132 0.929 . S
C1091 C1088 1.356 . S
C1091 C1093 1.358 . S
C1091 H1133 0.930 . S
C1092 N1089 1.314 . S
C1092 C1090 1.353 . S
C1092 H1134 0.930 . S
C1093 N1089 1.279 . S
C1093 C1091 1.358 . S
C1093 H1135 0.930 . S
C1094 C1095 1.348 . S
C1094 C1096 1.356 . S
C1094 O1119 1.325 . S
C1095 C1094 1.348 . S
C1095 C1097 1.353 . S
C1095 H1136 0.929 . S
C1096 C1094 1.356 . S
C1096 C1098 1.358 . S
C1096 H1137 0.930 . S
C1097 C1095 1.353 . S
C1097 N1099 1.314 . S
C1097 H1138 0.930 . S
C1098 C1096 1.358 . S
C1098 N1099 1.279 . S
C1098 H1139 0.930 . S
N1099 C1097 1.314 . S
N1099 C1098 1.279 . S
C1100 C1102 1.353 . S
C1100 N1103 1.314 . S
C1100 H1106 0.930 . S
C1101 N1103 1.279 . S
C1101 C1104 1.358 . S
C1101 H1107 0.930 . S
C1102 C1100 1.353 . S
C1102 C1105 1.348 . S
C1102 H1140 0.929 . S
N1103 Li1058 1.990 . S
N1103 C1100 1.314 . S
N1103 C1101 1.279 . S
C1104 C1101 1.358 . S
C1104 C1105 1.356 . S
C1104 H1141 0.930 . S
C1105 C1102 1.348 . S
C1105 C1104 1.356 . S
H1106 C1100 0.930 . S
H1107 C1101 0.930 . S
C1108 N1109 1.314 . S
C1108 C1110 1.353 . S
C1108 H1114 0.930 . S
N1109 Li1059 1.990 . S
N1109 C1108 1.314 . S
N1109 C1112 1.279 . S
C1110 C1108 1.353 . S
C1110 C1113 1.348 . S
C1110 H1142 0.929 . S
C1111 C1112 1.358 . S
C1111 C1113 1.356 . S
C1111 H1143 0.930 . S
C1112 N1109 1.279 . S
C1112 C1111 1.358 . S
C1112 H1115 0.930 . S
C1113 C1110 1.348 . S
C1113 C1111 1.356 . S
H1114 C1108 0.930 . S
H1115 C1112 0.930 . S
O1116 Li1056 1.956 . S
O1116 Li1057 1.970 . S
O1116 Li1058 1.961 . S
O1116 C1060 1.325 . S
O1117 Li1056 1.970 . S
O1117 Li1057 1.956 . S
O1117 Li1059 1.961 . S
O1117 C1066 1.325 . S
O1118 Li1056 1.961 . S
O1118 Li1058 1.956 . S
O1118 Li1059 1.970 . S
O1118 C1088 1.325 . S
O1119 Li1057 1.961 . S
O1119 Li1058 1.970 . S
O1119 Li1059 1.956 . S
O1119 C1094 1.325 . S
H1120 C1062 0.929 . S
H1121 C1063 0.930 . S
H1122 C1064 0.930 . S
H1123 C1065 0.930 . S
H1124 C1067 0.930 . S
H1125 C1069 0.929 . S
H1126 C1070 0.930 . S
H1127 C1071 0.930 . S
H1128 C1074 0.930 . S
H1129 C1077 0.929 . S
H1130 C1082 0.929 . S
H1131 C1083 0.930 . S
H1132 C1090 0.929 . S
H1133 C1091 0.930 . S
H1134 C1092 0.930 . S
H1135 C1093 0.930 . S
H1136 C1095 0.929 . S
H1137 C1096 0.930 . S
H1138 C1097 0.930 . S
H1139 C1098 0.930 . S
H1140 C1102 0.929 . S
H1141 C1104 0.930 . S
H1142 C1110 0.929 . S
H1143 C1111 0.930 . S
Li1144 N1161 1.990 . S
Li1144 O1204 1.956 . S
Li1144 O1205 1.970 . S
Li1144 O1206 1.961 . S
Li1145 N1169 1.990 . S
Li1145 O1204 1.970 . S
Li1145 O1205 1.956 . S
Li1145 O1207 1.961 . S
Li1146 N1191 1.990 . S
Li1146 O1204 1.961 . S
Li1146 O1206 1.956 . S
Li1146 O1207 1.970 . S
Li1147 N1197 1.990 . S
Li1147 O1205 1.961 . S
Li1147 O1206 1.970 . S
Li1147 O1207 1.956 . S
C1148 C1150 1.348 . S
C1148 C1151 1.356 . S
C1148 O1204 1.325 . S
N1149 C1152 1.314 . S
N1149 C1153 1.279 . S
C1150 C1148 1.348 . S
C1150 C1152 1.353 . S
C1150 H1208 0.929 . S
C1151 C1148 1.356 . S
C1151 C1153 1.358 . S
C1151 H1209 0.930 . S
C1152 N1149 1.314 . S
C1152 C1150 1.353 . S
C1152 H1210 0.930 . S
C1153 N1149 1.279 . S
C1153 C1151 1.358 . S
C1153 H1211 0.930 . S
C1154 C1157 1.348 . S
C1154 C1158 1.356 . S
C1154 O1205 1.325 . S
C1155 N1156 1.279 . S
C1155 C1158 1.358 . S
C1155 H1212 0.930 . S
N1156 C1155 1.279 . S
N1156 C1159 1.314 . S
C1157 C1154 1.348 . S
C1157 C1159 1.353 . S
C1157 H1213 0.929 . S
C1158 C1154 1.356 . S
C1158 C1155 1.358 . S
C1158 H1214 0.930 . S
C1159 N1156 1.314 . S
C1159 C1157 1.353 . S
C1159 H1215 0.930 . S
C1160 N1161 1.314 . S
C1160 C1165 1.353 . S
C1160 H1166 0.930 . S
N1161 Li1144 1.990 . S
N1161 C1160 1.314 . S
N1161 C1163 1.279 . S
C1162 C1163 1.358 . S
C1162 C1164 1.356 . S
C1162 H1216 0.930 . S
C1163 N1161 1.279 . S
C1163 C1162 1.358 . S
C1163 H1167 0.930 . S
C1164 C1162 1.356 . S
C1164 C1165 1.348 . S
C1165 C1160 1.353 . S
C1165 C1164 1.348 . S
C1165 H1217 0.929 . S
H1166 C1160 0.930 . S
H1167 C1163 0.930 . S
C1168 N1169 1.314 . S
C1168 C1170 1.353 . S
C1168 H1174 0.930 . S
N1169 Li1145 1.990 . S
N1169 C1168 1.314 . S
N1169 C1172 1.279 . S
C1170 C1168 1.353 . S
C1170 C1173 1.348 . S
C1170 H1218 0.929 . S
C1171 C1172 1.358 . S
C1171 C1173 1.356 . S
C1171 H1219 0.930 . S
C1172 N1169 1.279 . S
C1172 C1171 1.358 . S
C1172 H1175 0.930 . S
C1173 C1170 1.348 . S
C1173 C1171 1.356 . S
H1174 C1168 0.930 . S
H1175 C1172 0.930 . S
C1176 C1178 1.348 . S
C1176 C1179 1.356 . S
C1176 O1206 1.325 . S
N1177 C1180 1.314 . S
N1177 C1181 1.279 . S
C1178 C1176 1.348 . S
C1178 C1180 1.353 . S
C1178 H1220 0.929 . S
C1179 C1176 1.356 . S
C1179 C1181 1.358 . S
C1179 H1221 0.930 . S
C1180 N1177 1.314 . S
C1180 C1178 1.353 . S
C1180 H1222 0.930 . S
C1181 N1177 1.279 . S
C1181 C1179 1.358 . S
C1181 H1223 0.930 . S
C1182 C1183 1.348 . S
C1182 C1184 1.356 . S
C1182 O1207 1.325 . S
C1183 C1182 1.348 . S
C1183 C1185 1.353 . S
C1183 H1224 0.929 . S
C1184 C1182 1.356 . S
C1184 C1186 1.358 . S
C1184 H1225 0.930 . S
C1185 C1183 1.353 . S
C1185 N1187 1.314 . S
C1185 H1226 0.930 . S
C1186 C1184 1.358 . S
C1186 N1187 1.279 . S
C1186 H1227 0.930 . S
N1187 C1185 1.314 . S
N1187 C1186 1.279 . S
C1188 C1190 1.353 . S
C1188 N1191 1.314 . S
C1188 H1194 0.930 . S
C1189 N1191 1.279 . S
C1189 C1192 1.358 . S
C1189 H1195 0.930 . S
C1190 C1188 1.353 . S
C1190 C1193 1.348 . S
C1190 H1228 0.929 . S
N1191 Li1146 1.990 . S
N1191 C1188 1.314 . S
N1191 C1189 1.279 . S
C1192 C1189 1.358 . S
C1192 C1193 1.356 . S
C1192 H1229 0.930 . S
C1193 C1190 1.348 . S
C1193 C1192 1.356 . S
H1194 C1188 0.930 . S
H1195 C1189 0.930 . S
C1196 N1197 1.314 . S
C1196 C1198 1.353 . S
C1196 H1202 0.930 . S
N1197 Li1147 1.990 . S
N1197 C1196 1.314 . S
N1197 C1200 1.279 . S
C1198 C1196 1.353 . S
C1198 C1201 1.348 . S
C1198 H1230 0.929 . S
C1199 C1200 1.358 . S
C1199 C1201 1.356 . S
C1199 H1231 0.930 . S
C1200 N1197 1.279 . S
C1200 C1199 1.358 . S
C1200 H1203 0.930 . S
C1201 C1198 1.348 . S
C1201 C1199 1.356 . S
H1202 C1196 0.930 . S
H1203 C1200 0.930 . S
O1204 Li1144 1.956 . S
O1204 Li1145 1.970 . S
O1204 Li1146 1.961 . S
O1204 C1148 1.325 . S
O1205 Li1144 1.970 . S
O1205 Li1145 1.956 . S
O1205 Li1147 1.961 . S
O1205 C1154 1.325 . S
O1206 Li1144 1.961 . S
O1206 Li1146 1.956 . S
O1206 Li1147 1.970 . S
O1206 C1176 1.325 . S
O1207 Li1145 1.961 . S
O1207 Li1146 1.970 . S
O1207 Li1147 1.956 . S
O1207 C1182 1.325 . S
H1208 C1150 0.929 . S
H1209 C1151 0.930 . S
H1210 C1152 0.930 . S
H1211 C1153 0.930 . S
H1212 C1155 0.930 . S
H1213 C1157 0.929 . S
H1214 C1158 0.930 . S
H1215 C1159 0.930 . S
H1216 C1162 0.930 . S
H1217 C1165 0.929 . S
H1218 C1170 0.929 . S
H1219 C1171 0.930 . S
H1220 C1178 0.929 . S
H1221 C1179 0.930 . S
H1222 C1180 0.930 . S
H1223 C1181 0.930 . S
H1224 C1183 0.929 . S
H1225 C1184 0.930 . S
H1226 C1185 0.930 . S
H1227 C1186 0.930 . S
H1228 C1190 0.929 . S
H1229 C1192 0.930 . S
H1230 C1198 0.929 . S
H1231 C1199 0.930 . S
Li1232 N1249 1.990 . S
Li1232 O1292 1.956 . S
Li1232 O1293 1.970 . S
Li1232 O1294 1.961 . S
Li1233 N1257 1.990 . S
Li1233 O1292 1.970 . S
Li1233 O1293 1.956 . S
Li1233 O1295 1.961 . S
Li1234 N1279 1.990 . S
Li1234 O1292 1.961 . S
Li1234 O1294 1.956 . S
Li1234 O1295 1.970 . S
Li1235 N1285 1.990 . S
Li1235 O1293 1.961 . S
Li1235 O1294 1.970 . S
Li1235 O1295 1.956 . S
C1236 C1238 1.348 . S
C1236 C1239 1.356 . S
C1236 O1292 1.325 . S
N1237 C1240 1.314 . S
N1237 C1241 1.279 . S
C1238 C1236 1.348 . S
C1238 C1240 1.353 . S
C1238 H1296 0.929 . S
C1239 C1236 1.356 . S
C1239 C1241 1.358 . S
C1239 H1297 0.930 . S
C1240 N1237 1.314 . S
C1240 C1238 1.353 . S
C1240 H1298 0.930 . S
C1241 N1237 1.279 . S
C1241 C1239 1.358 . S
C1241 H1299 0.930 . S
C1242 C1245 1.348 . S
C1242 C1246 1.356 . S
C1242 O1293 1.325 . S
C1243 N1244 1.279 . S
C1243 C1246 1.358 . S
C1243 H1300 0.930 . S
N1244 C1243 1.279 . S
N1244 C1247 1.314 . S
C1245 C1242 1.348 . S
C1245 C1247 1.353 . S
C1245 H1301 0.929 . S
C1246 C1242 1.356 . S
C1246 C1243 1.358 . S
C1246 H1302 0.930 . S
C1247 N1244 1.314 . S
C1247 C1245 1.353 . S
C1247 H1303 0.930 . S
C1248 N1249 1.314 . S
C1248 C1253 1.353 . S
C1248 H1254 0.930 . S
N1249 Li1232 1.990 . S
N1249 C1248 1.314 . S
N1249 C1251 1.279 . S
C1250 C1251 1.358 . S
C1250 C1252 1.356 . S
C1250 H1304 0.930 . S
C1251 N1249 1.279 . S
C1251 C1250 1.358 . S
C1251 H1255 0.930 . S
C1252 C1250 1.356 . S
C1252 C1253 1.348 . S
C1253 C1248 1.353 . S
C1253 C1252 1.348 . S
C1253 H1305 0.929 . S
H1254 C1248 0.930 . S
H1255 C1251 0.930 . S
C1256 N1257 1.314 . S
C1256 C1258 1.353 . S
C1256 H1262 0.930 . S
N1257 Li1233 1.990 . S
N1257 C1256 1.314 . S
N1257 C1260 1.279 . S
C1258 C1256 1.353 . S
C1258 C1261 1.348 . S
C1258 H1306 0.929 . S
C1259 C1260 1.358 . S
C1259 C1261 1.356 . S
C1259 H1307 0.930 . S
C1260 N1257 1.279 . S
C1260 C1259 1.358 . S
C1260 H1263 0.930 . S
C1261 C1258 1.348 . S
C1261 C1259 1.356 . S
H1262 C1256 0.930 . S
H1263 C1260 0.930 . S
C1264 C1266 1.348 . S
C1264 C1267 1.356 . S
C1264 O1294 1.325 . S
N1265 C1268 1.314 . S
N1265 C1269 1.279 . S
C1266 C1264 1.348 . S
C1266 C1268 1.353 . S
C1266 H1308 0.929 . S
C1267 C1264 1.356 . S
C1267 C1269 1.358 . S
C1267 H1309 0.930 . S
C1268 N1265 1.314 . S
C1268 C1266 1.353 . S
C1268 H1310 0.930 . S
C1269 N1265 1.279 . S
C1269 C1267 1.358 . S
C1269 H1311 0.930 . S
C1270 C1271 1.348 . S
C1270 C1272 1.356 . S
C1270 O1295 1.325 . S
C1271 C1270 1.348 . S
C1271 C1273 1.353 . S
C1271 H1312 0.929 . S
C1272 C1270 1.356 . S
C1272 C1274 1.358 . S
C1272 H1313 0.930 . S
C1273 C1271 1.353 . S
C1273 N1275 1.314 . S
C1273 H1314 0.930 . S
C1274 C1272 1.358 . S
C1274 N1275 1.279 . S
C1274 H1315 0.930 . S
N1275 C1273 1.314 . S
N1275 C1274 1.279 . S
C1276 C1278 1.353 . S
C1276 N1279 1.314 . S
C1276 H1282 0.930 . S
C1277 N1279 1.279 . S
C1277 C1280 1.358 . S
C1277 H1283 0.930 . S
C1278 C1276 1.353 . S
C1278 C1281 1.348 . S
C1278 H1316 0.929 . S
N1279 Li1234 1.990 . S
N1279 C1276 1.314 . S
N1279 C1277 1.279 . S
C1280 C1277 1.358 . S
C1280 C1281 1.356 . S
C1280 H1317 0.930 . S
C1281 C1278 1.348 . S
C1281 C1280 1.356 . S
H1282 C1276 0.930 . S
H1283 C1277 0.930 . S
C1284 N1285 1.314 . S
C1284 C1286 1.353 . S
C1284 H1290 0.930 . S
N1285 Li1235 1.990 . S
N1285 C1284 1.314 . S
N1285 C1288 1.279 . S
C1286 C1284 1.353 . S
C1286 C1289 1.348 . S
C1286 H1318 0.929 . S
C1287 C1288 1.358 . S
C1287 C1289 1.356 . S
C1287 H1319 0.930 . S
C1288 N1285 1.279 . S
C1288 C1287 1.358 . S
C1288 H1291 0.930 . S
C1289 C1286 1.348 . S
C1289 C1287 1.356 . S
H1290 C1284 0.930 . S
H1291 C1288 0.930 . S
O1292 Li1232 1.956 . S
O1292 Li1233 1.970 . S
O1292 Li1234 1.961 . S
O1292 C1236 1.325 . S
O1293 Li1232 1.970 . S
O1293 Li1233 1.956 . S
O1293 Li1235 1.961 . S
O1293 C1242 1.325 . S
O1294 Li1232 1.961 . S
O1294 Li1234 1.956 . S
O1294 Li1235 1.970 . S
O1294 C1264 1.325 . S
O1295 Li1233 1.961 . S
O1295 Li1234 1.970 . S
O1295 Li1235 1.956 . S
O1295 C1270 1.325 . S
H1296 C1238 0.929 . S
H1297 C1239 0.930 . S
H1298 C1240 0.930 . S
H1299 C1241 0.930 . S
H1300 C1243 0.930 . S
H1301 C1245 0.929 . S
H1302 C1246 0.930 . S
H1303 C1247 0.930 . S
H1304 C1250 0.930 . S
H1305 C1253 0.929 . S
H1306 C1258 0.929 . S
H1307 C1259 0.930 . S
H1308 C1266 0.929 . S
H1309 C1267 0.930 . S
H1310 C1268 0.930 . S
H1311 C1269 0.930 . S
H1312 C1271 0.929 . S
H1313 C1272 0.930 . S
H1314 C1273 0.930 . S
H1315 C1274 0.930 . S
H1316 C1278 0.929 . S
H1317 C1280 0.930 . S
H1318 C1286 0.929 . S
H1319 C1287 0.930 . S
Li1320 N1337 1.990 . S
Li1320 O1380 1.956 . S
Li1320 O1381 1.970 . S
Li1320 O1382 1.961 . S
Li1321 N1345 1.990 . S
Li1321 O1380 1.970 . S
Li1321 O1381 1.956 . S
Li1321 O1383 1.961 . S
Li1322 N1367 1.990 . S
Li1322 O1380 1.961 . S
Li1322 O1382 1.956 . S
Li1322 O1383 1.970 . S
Li1323 N1373 1.990 . S
Li1323 O1381 1.961 . S
Li1323 O1382 1.970 . S
Li1323 O1383 1.956 . S
C1324 C1326 1.348 . S
C1324 C1327 1.356 . S
C1324 O1380 1.325 . S
N1325 C1328 1.314 . S
N1325 C1329 1.279 . S
C1326 C1324 1.348 . S
C1326 C1328 1.353 . S
C1326 H1384 0.929 . S
C1327 C1324 1.356 . S
C1327 C1329 1.358 . S
C1327 H1385 0.930 . S
C1328 N1325 1.314 . S
C1328 C1326 1.353 . S
C1328 H1386 0.930 . S
C1329 N1325 1.279 . S
C1329 C1327 1.358 . S
C1329 H1387 0.930 . S
C1330 C1333 1.348 . S
C1330 C1334 1.356 . S
C1330 O1381 1.325 . S
C1331 N1332 1.279 . S
C1331 C1334 1.358 . S
C1331 H1388 0.930 . S
N1332 C1331 1.279 . S
N1332 C1335 1.314 . S
C1333 C1330 1.348 . S
C1333 C1335 1.353 . S
C1333 H1389 0.929 . S
C1334 C1330 1.356 . S
C1334 C1331 1.358 . S
C1334 H1390 0.930 . S
C1335 N1332 1.314 . S
C1335 C1333 1.353 . S
C1335 H1391 0.930 . S
C1336 N1337 1.314 . S
C1336 C1341 1.353 . S
C1336 H1342 0.930 . S
N1337 Li1320 1.990 . S
N1337 C1336 1.314 . S
N1337 C1339 1.279 . S
C1338 C1339 1.358 . S
C1338 C1340 1.356 . S
C1338 H1392 0.930 . S
C1339 N1337 1.279 . S
C1339 C1338 1.358 . S
C1339 H1343 0.930 . S
C1340 C1338 1.356 . S
C1340 C1341 1.348 . S
C1341 C1336 1.353 . S
C1341 C1340 1.348 . S
C1341 H1393 0.929 . S
H1342 C1336 0.930 . S
H1343 C1339 0.930 . S
C1344 N1345 1.314 . S
C1344 C1346 1.353 . S
C1344 H1350 0.930 . S
N1345 Li1321 1.990 . S
N1345 C1344 1.314 . S
N1345 C1348 1.279 . S
C1346 C1344 1.353 . S
C1346 C1349 1.348 . S
C1346 H1394 0.929 . S
C1347 C1348 1.358 . S
C1347 C1349 1.356 . S
C1347 H1395 0.930 . S
C1348 N1345 1.279 . S
C1348 C1347 1.358 . S
C1348 H1351 0.930 . S
C1349 C1346 1.348 . S
C1349 C1347 1.356 . S
H1350 C1344 0.930 . S
H1351 C1348 0.930 . S
C1352 C1354 1.348 . S
C1352 C1355 1.356 . S
C1352 O1382 1.325 . S
N1353 C1356 1.314 . S
N1353 C1357 1.279 . S
C1354 C1352 1.348 . S
C1354 C1356 1.353 . S
C1354 H1396 0.929 . S
C1355 C1352 1.356 . S
C1355 C1357 1.358 . S
C1355 H1397 0.930 . S
C1356 N1353 1.314 . S
C1356 C1354 1.353 . S
C1356 H1398 0.930 . S
C1357 N1353 1.279 . S
C1357 C1355 1.358 . S
C1357 H1399 0.930 . S
C1358 C1359 1.348 . S
C1358 C1360 1.356 . S
C1358 O1383 1.325 . S
C1359 C1358 1.348 . S
C1359 C1361 1.353 . S
C1359 H1400 0.929 . S
C1360 C1358 1.356 . S
C1360 C1362 1.358 . S
C1360 H1401 0.930 . S
C1361 C1359 1.353 . S
C1361 N1363 1.314 . S
C1361 H1402 0.930 . S
C1362 C1360 1.358 . S
C1362 N1363 1.279 . S
C1362 H1403 0.930 . S
N1363 C1361 1.314 . S
N1363 C1362 1.279 . S
C1364 C1366 1.353 . S
C1364 N1367 1.314 . S
C1364 H1370 0.930 . S
C1365 N1367 1.279 . S
C1365 C1368 1.358 . S
C1365 H1371 0.930 . S
C1366 C1364 1.353 . S
C1366 C1369 1.348 . S
C1366 H1404 0.929 . S
N1367 Li1322 1.990 . S
N1367 C1364 1.314 . S
N1367 C1365 1.279 . S
C1368 C1365 1.358 . S
C1368 C1369 1.356 . S
C1368 H1405 0.930 . S
C1369 C1366 1.348 . S
C1369 C1368 1.356 . S
H1370 C1364 0.930 . S
H1371 C1365 0.930 . S
C1372 N1373 1.314 . S
C1372 C1374 1.353 . S
C1372 H1378 0.930 . S
N1373 Li1323 1.990 . S
N1373 C1372 1.314 . S
N1373 C1376 1.279 . S
C1374 C1372 1.353 . S
C1374 C1377 1.348 . S
C1374 H1406 0.929 . S
C1375 C1376 1.358 . S
C1375 C1377 1.356 . S
C1375 H1407 0.930 . S
C1376 N1373 1.279 . S
C1376 C1375 1.358 . S
C1376 H1379 0.930 . S
C1377 C1374 1.348 . S
C1377 C1375 1.356 . S
H1378 C1372 0.930 . S
H1379 C1376 0.930 . S
O1380 Li1320 1.956 . S
O1380 Li1321 1.970 . S
O1380 Li1322 1.961 . S
O1380 C1324 1.325 . S
O1381 Li1320 1.970 . S
O1381 Li1321 1.956 . S
O1381 Li1323 1.961 . S
O1381 C1330 1.325 . S
O1382 Li1320 1.961 . S
O1382 Li1322 1.956 . S
O1382 Li1323 1.970 . S
O1382 C1352 1.325 . S
O1383 Li1321 1.961 . S
O1383 Li1322 1.970 . S
O1383 Li1323 1.956 . S
O1383 C1358 1.325 . S
H1384 C1326 0.929 . S
H1385 C1327 0.930 . S
H1386 C1328 0.930 . S
H1387 C1329 0.930 . S
H1388 C1331 0.930 . S
H1389 C1333 0.929 . S
H1390 C1334 0.930 . S
H1391 C1335 0.930 . S
H1392 C1338 0.930 . S
H1393 C1341 0.929 . S
H1394 C1346 0.929 . S
H1395 C1347 0.930 . S
H1396 C1354 0.929 . S
H1397 C1355 0.930 . S
H1398 C1356 0.930 . S
H1399 C1357 0.930 . S
H1400 C1359 0.929 . S
H1401 C1360 0.930 . S
H1402 C1361 0.930 . S
H1403 C1362 0.930 . S
H1404 C1366 0.929 . S
H1405 C1368 0.930 . S
H1406 C1374 0.929 . S
H1407 C1375 0.930 . S
Li1408 N1425 1.990 . S
Li1408 O1468 1.956 . S
Li1408 O1469 1.970 . S
Li1408 O1470 1.961 . S
Li1409 N1433 1.990 . S
Li1409 O1468 1.970 . S
Li1409 O1469 1.956 . S
Li1409 O1471 1.961 . S
Li1410 N1455 1.990 . S
Li1410 O1468 1.961 . S
Li1410 O1470 1.956 . S
Li1410 O1471 1.970 . S
Li1411 N1461 1.990 . S
Li1411 O1469 1.961 . S
Li1411 O1470 1.970 . S
Li1411 O1471 1.956 . S
C1412 C1414 1.348 . S
C1412 C1415 1.356 . S
C1412 O1468 1.325 . S
N1413 C1416 1.314 . S
N1413 C1417 1.279 . S
C1414 C1412 1.348 . S
C1414 C1416 1.353 . S
C1414 H1472 0.929 . S
C1415 C1412 1.356 . S
C1415 C1417 1.358 . S
C1415 H1473 0.930 . S
C1416 N1413 1.314 . S
C1416 C1414 1.353 . S
C1416 H1474 0.930 . S
C1417 N1413 1.279 . S
C1417 C1415 1.358 . S
C1417 H1475 0.930 . S
C1418 C1421 1.348 . S
C1418 C1422 1.356 . S
C1418 O1469 1.325 . S
C1419 N1420 1.279 . S
C1419 C1422 1.358 . S
C1419 H1476 0.930 . S
N1420 C1419 1.279 . S
N1420 C1423 1.314 . S
C1421 C1418 1.348 . S
C1421 C1423 1.353 . S
C1421 H1477 0.929 . S
C1422 C1418 1.356 . S
C1422 C1419 1.358 . S
C1422 H1478 0.930 . S
C1423 N1420 1.314 . S
C1423 C1421 1.353 . S
C1423 H1479 0.930 . S
C1424 N1425 1.314 . S
C1424 C1429 1.353 . S
C1424 H1430 0.930 . S
N1425 Li1408 1.990 . S
N1425 C1424 1.314 . S
N1425 C1427 1.279 . S
C1426 C1427 1.358 . S
C1426 C1428 1.356 . S
C1426 H1480 0.930 . S
C1427 N1425 1.279 . S
C1427 C1426 1.358 . S
C1427 H1431 0.930 . S
C1428 C1426 1.356 . S
C1428 C1429 1.348 . S
C1429 C1424 1.353 . S
C1429 C1428 1.348 . S
C1429 H1481 0.929 . S
H1430 C1424 0.930 . S
H1431 C1427 0.930 . S
C1432 N1433 1.314 . S
C1432 C1434 1.353 . S
C1432 H1438 0.930 . S
N1433 Li1409 1.990 . S
N1433 C1432 1.314 . S
N1433 C1436 1.279 . S
C1434 C1432 1.353 . S
C1434 C1437 1.348 . S
C1434 H1482 0.929 . S
C1435 C1436 1.358 . S
C1435 C1437 1.356 . S
C1435 H1483 0.930 . S
C1436 N1433 1.279 . S
C1436 C1435 1.358 . S
C1436 H1439 0.930 . S
C1437 C1434 1.348 . S
C1437 C1435 1.356 . S
H1438 C1432 0.930 . S
H1439 C1436 0.930 . S
C1440 C1442 1.348 . S
C1440 C1443 1.356 . S
C1440 O1470 1.325 . S
N1441 C1444 1.314 . S
N1441 C1445 1.279 . S
C1442 C1440 1.348 . S
C1442 C1444 1.353 . S
C1442 H1484 0.929 . S
C1443 C1440 1.356 . S
C1443 C1445 1.358 . S
C1443 H1485 0.930 . S
C1444 N1441 1.314 . S
C1444 C1442 1.353 . S
C1444 H1486 0.930 . S
C1445 N1441 1.279 . S
C1445 C1443 1.358 . S
C1445 H1487 0.930 . S
C1446 C1447 1.348 . S
C1446 C1448 1.356 . S
C1446 O1471 1.325 . S
C1447 C1446 1.348 . S
C1447 C1449 1.353 . S
C1447 H1488 0.929 . S
C1448 C1446 1.356 . S
C1448 C1450 1.358 . S
C1448 H1489 0.930 . S
C1449 C1447 1.353 . S
C1449 N1451 1.314 . S
C1449 H1490 0.930 . S
C1450 C1448 1.358 . S
C1450 N1451 1.279 . S
C1450 H1491 0.930 . S
N1451 C1449 1.314 . S
N1451 C1450 1.279 . S
C1452 C1454 1.353 . S
C1452 N1455 1.314 . S
C1452 H1458 0.930 . S
C1453 N1455 1.279 . S
C1453 C1456 1.358 . S
C1453 H1459 0.930 . S
C1454 C1452 1.353 . S
C1454 C1457 1.348 . S
C1454 H1492 0.929 . S
N1455 Li1410 1.990 . S
N1455 C1452 1.314 . S
N1455 C1453 1.279 . S
C1456 C1453 1.358 . S
C1456 C1457 1.356 . S
C1456 H1493 0.930 . S
C1457 C1454 1.348 . S
C1457 C1456 1.356 . S
H1458 C1452 0.930 . S
H1459 C1453 0.930 . S
C1460 N1461 1.314 . S
C1460 C1462 1.353 . S
C1460 H1466 0.930 . S
N1461 Li1411 1.990 . S
N1461 C1460 1.314 . S
N1461 C1464 1.279 . S
C1462 C1460 1.353 . S
C1462 C1465 1.348 . S
C1462 H1494 0.929 . S
C1463 C1464 1.358 . S
C1463 C1465 1.356 . S
C1463 H1495 0.930 . S
C1464 N1461 1.279 . S
C1464 C1463 1.358 . S
C1464 H1467 0.930 . S
C1465 C1462 1.348 . S
C1465 C1463 1.356 . S
H1466 C1460 0.930 . S
H1467 C1464 0.930 . S
O1468 Li1408 1.956 . S
O1468 Li1409 1.970 . S
O1468 Li1410 1.961 . S
O1468 C1412 1.325 . S
O1469 Li1408 1.970 . S
O1469 Li1409 1.956 . S
O1469 Li1411 1.961 . S
O1469 C1418 1.325 . S
O1470 Li1408 1.961 . S
O1470 Li1410 1.956 . S
O1470 Li1411 1.970 . S
O1470 C1440 1.325 . S
O1471 Li1409 1.961 . S
O1471 Li1410 1.970 . S
O1471 Li1411 1.956 . S
O1471 C1446 1.325 . S
H1472 C1414 0.929 . S
H1473 C1415 0.930 . S
H1474 C1416 0.930 . S
H1475 C1417 0.930 . S
H1476 C1419 0.930 . S
H1477 C1421 0.929 . S
H1478 C1422 0.930 . S
H1479 C1423 0.930 . S
H1480 C1426 0.930 . S
H1481 C1429 0.929 . S
H1482 C1434 0.929 . S
H1483 C1435 0.930 . S
H1484 C1442 0.929 . S
H1485 C1443 0.930 . S
H1486 C1444 0.930 . S
H1487 C1445 0.930 . S
H1488 C1447 0.929 . S
H1489 C1448 0.930 . S
H1490 C1449 0.930 . S
H1491 C1450 0.930 . S
H1492 C1454 0.929 . S
H1493 C1456 0.930 . S
H1494 C1462 0.929 . S
H1495 C1463 0.930 . S
Li1496 N1513 1.990 . S
Li1496 O1556 1.956 . S
Li1496 O1557 1.970 . S
Li1496 O1558 1.961 . S
Li1497 N1521 1.990 . S
Li1497 O1556 1.970 . S
Li1497 O1557 1.956 . S
Li1497 O1559 1.961 . S
Li1498 N1543 1.990 . S
Li1498 O1556 1.961 . S
Li1498 O1558 1.956 . S
Li1498 O1559 1.970 . S
Li1499 N1549 1.990 . S
Li1499 O1557 1.961 . S
Li1499 O1558 1.970 . S
Li1499 O1559 1.956 . S
C1500 C1502 1.348 . S
C1500 C1503 1.356 . S
C1500 O1556 1.325 . S
N1501 C1504 1.314 . S
N1501 C1505 1.279 . S
C1502 C1500 1.348 . S
C1502 C1504 1.353 . S
C1502 H1560 0.929 . S
C1503 C1500 1.356 . S
C1503 C1505 1.358 . S
C1503 H1561 0.930 . S
C1504 N1501 1.314 . S
C1504 C1502 1.353 . S
C1504 H1562 0.930 . S
C1505 N1501 1.279 . S
C1505 C1503 1.358 . S
C1505 H1563 0.930 . S
C1506 C1509 1.348 . S
C1506 C1510 1.356 . S
C1506 O1557 1.325 . S
C1507 N1508 1.279 . S
C1507 C1510 1.358 . S
C1507 H1564 0.930 . S
N1508 C1507 1.279 . S
N1508 C1511 1.314 . S
C1509 C1506 1.348 . S
C1509 C1511 1.353 . S
C1509 H1565 0.929 . S
C1510 C1506 1.356 . S
C1510 C1507 1.358 . S
C1510 H1566 0.930 . S
C1511 N1508 1.314 . S
C1511 C1509 1.353 . S
C1511 H1567 0.930 . S
C1512 N1513 1.314 . S
C1512 C1517 1.353 . S
C1512 H1518 0.930 . S
N1513 Li1496 1.990 . S
N1513 C1512 1.314 . S
N1513 C1515 1.279 . S
C1514 C1515 1.358 . S
C1514 C1516 1.356 . S
C1514 H1568 0.930 . S
C1515 N1513 1.279 . S
C1515 C1514 1.358 . S
C1515 H1519 0.930 . S
C1516 C1514 1.356 . S
C1516 C1517 1.348 . S
C1517 C1512 1.353 . S
C1517 C1516 1.348 . S
C1517 H1569 0.929 . S
H1518 C1512 0.930 . S
H1519 C1515 0.930 . S
C1520 N1521 1.314 . S
C1520 C1522 1.353 . S
C1520 H1526 0.930 . S
N1521 Li1497 1.990 . S
N1521 C1520 1.314 . S
N1521 C1524 1.279 . S
C1522 C1520 1.353 . S
C1522 C1525 1.348 . S
C1522 H1570 0.929 . S
C1523 C1524 1.358 . S
C1523 C1525 1.356 . S
C1523 H1571 0.930 . S
C1524 N1521 1.279 . S
C1524 C1523 1.358 . S
C1524 H1527 0.930 . S
C1525 C1522 1.348 . S
C1525 C1523 1.356 . S
H1526 C1520 0.930 . S
H1527 C1524 0.930 . S
C1528 C1530 1.348 . S
C1528 C1531 1.356 . S
C1528 O1558 1.325 . S
N1529 C1532 1.314 . S
N1529 C1533 1.279 . S
C1530 C1528 1.348 . S
C1530 C1532 1.353 . S
C1530 H1572 0.929 . S
C1531 C1528 1.356 . S
C1531 C1533 1.358 . S
C1531 H1573 0.930 . S
C1532 N1529 1.314 . S
C1532 C1530 1.353 . S
C1532 H1574 0.930 . S
C1533 N1529 1.279 . S
C1533 C1531 1.358 . S
C1533 H1575 0.930 . S
C1534 C1535 1.348 . S
C1534 C1536 1.356 . S
C1534 O1559 1.325 . S
C1535 C1534 1.348 . S
C1535 C1537 1.353 . S
C1535 H1576 0.929 . S
C1536 C1534 1.356 . S
C1536 C1538 1.358 . S
C1536 H1577 0.930 . S
C1537 C1535 1.353 . S
C1537 N1539 1.314 . S
C1537 H1578 0.930 . S
C1538 C1536 1.358 . S
C1538 N1539 1.279 . S
C1538 H1579 0.930 . S
N1539 C1537 1.314 . S
N1539 C1538 1.279 . S
C1540 C1542 1.353 . S
C1540 N1543 1.314 . S
C1540 H1546 0.930 . S
C1541 N1543 1.279 . S
C1541 C1544 1.358 . S
C1541 H1547 0.930 . S
C1542 C1540 1.353 . S
C1542 C1545 1.348 . S
C1542 H1580 0.929 . S
N1543 Li1498 1.990 . S
N1543 C1540 1.314 . S
N1543 C1541 1.279 . S
C1544 C1541 1.358 . S
C1544 C1545 1.356 . S
C1544 H1581 0.930 . S
C1545 C1542 1.348 . S
C1545 C1544 1.356 . S
H1546 C1540 0.930 . S
H1547 C1541 0.930 . S
C1548 N1549 1.314 . S
C1548 C1550 1.353 . S
C1548 H1554 0.930 . S
N1549 Li1499 1.990 . S
N1549 C1548 1.314 . S
N1549 C1552 1.279 . S
C1550 C1548 1.353 . S
C1550 C1553 1.348 . S
C1550 H1582 0.929 . S
C1551 C1552 1.358 . S
C1551 C1553 1.356 . S
C1551 H1583 0.930 . S
C1552 N1549 1.279 . S
C1552 C1551 1.358 . S
C1552 H1555 0.930 . S
C1553 C1550 1.348 . S
C1553 C1551 1.356 . S
H1554 C1548 0.930 . S
H1555 C1552 0.930 . S
O1556 Li1496 1.956 . S
O1556 Li1497 1.970 . S
O1556 Li1498 1.961 . S
O1556 C1500 1.325 . S
O1557 Li1496 1.970 . S
O1557 Li1497 1.956 . S
O1557 Li1499 1.961 . S
O1557 C1506 1.325 . S
O1558 Li1496 1.961 . S
O1558 Li1498 1.956 . S
O1558 Li1499 1.970 . S
O1558 C1528 1.325 . S
O1559 Li1497 1.961 . S
O1559 Li1498 1.970 . S
O1559 Li1499 1.956 . S
O1559 C1534 1.325 . S
H1560 C1502 0.929 . S
H1561 C1503 0.930 . S
H1562 C1504 0.930 . S
H1563 C1505 0.930 . S
H1564 C1507 0.930 . S
H1565 C1509 0.929 . S
H1566 C1510 0.930 . S
H1567 C1511 0.930 . S
H1568 C1514 0.930 . S
H1569 C1517 0.929 . S
H1570 C1522 0.929 . S
H1571 C1523 0.930 . S
H1572 C1530 0.929 . S
H1573 C1531 0.930 . S
H1574 C1532 0.930 . S
H1575 C1533 0.930 . S
H1576 C1535 0.929 . S
H1577 C1536 0.930 . S
H1578 C1537 0.930 . S
H1579 C1538 0.930 . S
H1580 C1542 0.929 . S
H1581 C1544 0.930 . S
H1582 C1550 0.929 . S
H1583 C1551 0.930 . S
Li1584 N1601 1.990 . S
Li1584 O1644 1.956 . S
Li1584 O1645 1.970 . S
Li1584 O1646 1.961 . S
Li1585 N1609 1.990 . S
Li1585 O1644 1.970 . S
Li1585 O1645 1.956 . S
Li1585 O1647 1.961 . S
Li1586 N1631 1.990 . S
Li1586 O1644 1.961 . S
Li1586 O1646 1.956 . S
Li1586 O1647 1.970 . S
Li1587 N1637 1.990 . S
Li1587 O1645 1.961 . S
Li1587 O1646 1.970 . S
Li1587 O1647 1.956 . S
C1588 C1590 1.348 . S
C1588 C1591 1.356 . S
C1588 O1644 1.325 . S
N1589 C1592 1.314 . S
N1589 C1593 1.279 . S
C1590 C1588 1.348 . S
C1590 C1592 1.353 . S
C1590 H1648 0.929 . S
C1591 C1588 1.356 . S
C1591 C1593 1.358 . S
C1591 H1649 0.930 . S
C1592 N1589 1.314 . S
C1592 C1590 1.353 . S
C1592 H1650 0.930 . S
C1593 N1589 1.279 . S
C1593 C1591 1.358 . S
C1593 H1651 0.930 . S
C1594 C1597 1.348 . S
C1594 C1598 1.356 . S
C1594 O1645 1.325 . S
C1595 N1596 1.279 . S
C1595 C1598 1.358 . S
C1595 H1652 0.930 . S
N1596 C1595 1.279 . S
N1596 C1599 1.314 . S
C1597 C1594 1.348 . S
C1597 C1599 1.353 . S
C1597 H1653 0.929 . S
C1598 C1594 1.356 . S
C1598 C1595 1.358 . S
C1598 H1654 0.930 . S
C1599 N1596 1.314 . S
C1599 C1597 1.353 . S
C1599 H1655 0.930 . S
C1600 N1601 1.314 . S
C1600 C1605 1.353 . S
C1600 H1606 0.930 . S
N1601 Li1584 1.990 . S
N1601 C1600 1.314 . S
N1601 C1603 1.279 . S
C1602 C1603 1.358 . S
C1602 C1604 1.356 . S
C1602 H1656 0.930 . S
C1603 N1601 1.279 . S
C1603 C1602 1.358 . S
C1603 H1607 0.930 . S
C1604 C1602 1.356 . S
C1604 C1605 1.348 . S
C1605 C1600 1.353 . S
C1605 C1604 1.348 . S
C1605 H1657 0.929 . S
H1606 C1600 0.930 . S
H1607 C1603 0.930 . S
C1608 N1609 1.314 . S
C1608 C1610 1.353 . S
C1608 H1614 0.930 . S
N1609 Li1585 1.990 . S
N1609 C1608 1.314 . S
N1609 C1612 1.279 . S
C1610 C1608 1.353 . S
C1610 C1613 1.348 . S
C1610 H1658 0.929 . S
C1611 C1612 1.358 . S
C1611 C1613 1.356 . S
C1611 H1659 0.930 . S
C1612 N1609 1.279 . S
C1612 C1611 1.358 . S
C1612 H1615 0.930 . S
C1613 C1610 1.348 . S
C1613 C1611 1.356 . S
H1614 C1608 0.930 . S
H1615 C1612 0.930 . S
C1616 C1618 1.348 . S
C1616 C1619 1.356 . S
C1616 O1646 1.325 . S
N1617 C1620 1.314 . S
N1617 C1621 1.279 . S
C1618 C1616 1.348 . S
C1618 C1620 1.353 . S
C1618 H1660 0.929 . S
C1619 C1616 1.356 . S
C1619 C1621 1.358 . S
C1619 H1661 0.930 . S
C1620 N1617 1.314 . S
C1620 C1618 1.353 . S
C1620 H1662 0.930 . S
C1621 N1617 1.279 . S
C1621 C1619 1.358 . S
C1621 H1663 0.930 . S
C1622 C1623 1.348 . S
C1622 C1624 1.356 . S
C1622 O1647 1.325 . S
C1623 C1622 1.348 . S
C1623 C1625 1.353 . S
C1623 H1664 0.929 . S
C1624 C1622 1.356 . S
C1624 C1626 1.358 . S
C1624 H1665 0.930 . S
C1625 C1623 1.353 . S
C1625 N1627 1.314 . S
C1625 H1666 0.930 . S
C1626 C1624 1.358 . S
C1626 N1627 1.279 . S
C1626 H1667 0.930 . S
N1627 C1625 1.314 . S
N1627 C1626 1.279 . S
C1628 C1630 1.353 . S
C1628 N1631 1.314 . S
C1628 H1634 0.930 . S
C1629 N1631 1.279 . S
C1629 C1632 1.358 . S
C1629 H1635 0.930 . S
C1630 C1628 1.353 . S
C1630 C1633 1.348 . S
C1630 H1668 0.929 . S
N1631 Li1586 1.990 . S
N1631 C1628 1.314 . S
N1631 C1629 1.279 . S
C1632 C1629 1.358 . S
C1632 C1633 1.356 . S
C1632 H1669 0.930 . S
C1633 C1630 1.348 . S
C1633 C1632 1.356 . S
H1634 C1628 0.930 . S
H1635 C1629 0.930 . S
C1636 N1637 1.314 . S
C1636 C1638 1.353 . S
C1636 H1642 0.930 . S
N1637 Li1587 1.990 . S
N1637 C1636 1.314 . S
N1637 C1640 1.279 . S
C1638 C1636 1.353 . S
C1638 C1641 1.348 . S
C1638 H1670 0.929 . S
C1639 C1640 1.358 . S
C1639 C1641 1.356 . S
C1639 H1671 0.930 . S
C1640 N1637 1.279 . S
C1640 C1639 1.358 . S
C1640 H1643 0.930 . S
C1641 C1638 1.348 . S
C1641 C1639 1.356 . S
H1642 C1636 0.930 . S
H1643 C1640 0.930 . S
O1644 Li1584 1.956 . S
O1644 Li1585 1.970 . S
O1644 Li1586 1.961 . S
O1644 C1588 1.325 . S
O1645 Li1584 1.970 . S
O1645 Li1585 1.956 . S
O1645 Li1587 1.961 . S
O1645 C1594 1.325 . S
O1646 Li1584 1.961 . S
O1646 Li1586 1.956 . S
O1646 Li1587 1.970 . S
O1646 C1616 1.325 . S
O1647 Li1585 1.961 . S
O1647 Li1586 1.970 . S
O1647 Li1587 1.956 . S
O1647 C1622 1.325 . S
H1648 C1590 0.929 . S
H1649 C1591 0.930 . S
H1650 C1592 0.930 . S
H1651 C1593 0.930 . S
H1652 C1595 0.930 . S
H1653 C1597 0.929 . S
H1654 C1598 0.930 . S
H1655 C1599 0.930 . S
H1656 C1602 0.930 . S
H1657 C1605 0.929 . S
H1658 C1610 0.929 . S
H1659 C1611 0.930 . S
H1660 C1618 0.929 . S
H1661 C1619 0.930 . S
H1662 C1620 0.930 . S
H1663 C1621 0.930 . S
H1664 C1623 0.929 . S
H1665 C1624 0.930 . S
H1666 C1625 0.930 . S
H1667 C1626 0.930 . S
H1668 C1630 0.929 . S
H1669 C1632 0.930 . S
H1670 C1638 0.929 . S
H1671 C1639 0.930 . S
Li1672 N1689 1.990 . S
Li1672 O1732 1.956 . S
Li1672 O1733 1.970 . S
Li1672 O1734 1.961 . S
Li1673 N1697 1.990 . S
Li1673 O1732 1.970 . S
Li1673 O1733 1.956 . S
Li1673 O1735 1.961 . S
Li1674 N1719 1.990 . S
Li1674 O1732 1.961 . S
Li1674 O1734 1.956 . S
Li1674 O1735 1.970 . S
Li1675 N1725 1.990 . S
Li1675 O1733 1.961 . S
Li1675 O1734 1.970 . S
Li1675 O1735 1.956 . S
C1676 C1678 1.348 . S
C1676 C1679 1.356 . S
C1676 O1732 1.325 . S
N1677 C1680 1.314 . S
N1677 C1681 1.279 . S
C1678 C1676 1.348 . S
C1678 C1680 1.353 . S
C1678 H1736 0.929 . S
C1679 C1676 1.356 . S
C1679 C1681 1.358 . S
C1679 H1737 0.930 . S
C1680 N1677 1.314 . S
C1680 C1678 1.353 . S
C1680 H1738 0.930 . S
C1681 N1677 1.279 . S
C1681 C1679 1.358 . S
C1681 H1739 0.930 . S
C1682 C1685 1.348 . S
C1682 C1686 1.356 . S
C1682 O1733 1.325 . S
C1683 N1684 1.279 . S
C1683 C1686 1.358 . S
C1683 H1740 0.930 . S
N1684 C1683 1.279 . S
N1684 C1687 1.314 . S
C1685 C1682 1.348 . S
C1685 C1687 1.353 . S
C1685 H1741 0.929 . S
C1686 C1682 1.356 . S
C1686 C1683 1.358 . S
C1686 H1742 0.930 . S
C1687 N1684 1.314 . S
C1687 C1685 1.353 . S
C1687 H1743 0.930 . S
C1688 N1689 1.314 . S
C1688 C1693 1.353 . S
C1688 H1694 0.930 . S
N1689 Li1672 1.990 . S
N1689 C1688 1.314 . S
N1689 C1691 1.279 . S
C1690 C1691 1.358 . S
C1690 C1692 1.356 . S
C1690 H1744 0.930 . S
C1691 N1689 1.279 . S
C1691 C1690 1.358 . S
C1691 H1695 0.930 . S
C1692 C1690 1.356 . S
C1692 C1693 1.348 . S
C1693 C1688 1.353 . S
C1693 C1692 1.348 . S
C1693 H1745 0.929 . S
H1694 C1688 0.930 . S
H1695 C1691 0.930 . S
C1696 N1697 1.314 . S
C1696 C1698 1.353 . S
C1696 H1702 0.930 . S
N1697 Li1673 1.990 . S
N1697 C1696 1.314 . S
N1697 C1700 1.279 . S
C1698 C1696 1.353 . S
C1698 C1701 1.348 . S
C1698 H1746 0.929 . S
C1699 C1700 1.358 . S
C1699 C1701 1.356 . S
C1699 H1747 0.930 . S
C1700 N1697 1.279 . S
C1700 C1699 1.358 . S
C1700 H1703 0.930 . S
C1701 C1698 1.348 . S
C1701 C1699 1.356 . S
H1702 C1696 0.930 . S
H1703 C1700 0.930 . S
C1704 C1706 1.348 . S
C1704 C1707 1.356 . S
C1704 O1734 1.325 . S
N1705 C1708 1.314 . S
N1705 C1709 1.279 . S
C1706 C1704 1.348 . S
C1706 C1708 1.353 . S
C1706 H1748 0.929 . S
C1707 C1704 1.356 . S
C1707 C1709 1.358 . S
C1707 H1749 0.930 . S
C1708 N1705 1.314 . S
C1708 C1706 1.353 . S
C1708 H1750 0.930 . S
C1709 N1705 1.279 . S
C1709 C1707 1.358 . S
C1709 H1751 0.930 . S
C1710 C1711 1.348 . S
C1710 C1712 1.356 . S
C1710 O1735 1.325 . S
C1711 C1710 1.348 . S
C1711 C1713 1.353 . S
C1711 H1752 0.929 . S
C1712 C1710 1.356 . S
C1712 C1714 1.358 . S
C1712 H1753 0.930 . S
C1713 C1711 1.353 . S
C1713 N1715 1.314 . S
C1713 H1754 0.930 . S
C1714 C1712 1.358 . S
C1714 N1715 1.279 . S
C1714 H1755 0.930 . S
N1715 C1713 1.314 . S
N1715 C1714 1.279 . S
C1716 C1718 1.353 . S
C1716 N1719 1.314 . S
C1716 H1722 0.930 . S
C1717 N1719 1.279 . S
C1717 C1720 1.358 . S
C1717 H1723 0.930 . S
C1718 C1716 1.353 . S
C1718 C1721 1.348 . S
C1718 H1756 0.929 . S
N1719 Li1674 1.990 . S
N1719 C1716 1.314 . S
N1719 C1717 1.279 . S
C1720 C1717 1.358 . S
C1720 C1721 1.356 . S
C1720 H1757 0.930 . S
C1721 C1718 1.348 . S
C1721 C1720 1.356 . S
H1722 C1716 0.930 . S
H1723 C1717 0.930 . S
C1724 N1725 1.314 . S
C1724 C1726 1.353 . S
C1724 H1730 0.930 . S
N1725 Li1675 1.990 . S
N1725 C1724 1.314 . S
N1725 C1728 1.279 . S
C1726 C1724 1.353 . S
C1726 C1729 1.348 . S
C1726 H1758 0.929 . S
C1727 C1728 1.358 . S
C1727 C1729 1.356 . S
C1727 H1759 0.930 . S
C1728 N1725 1.279 . S
C1728 C1727 1.358 . S
C1728 H1731 0.930 . S
C1729 C1726 1.348 . S
C1729 C1727 1.356 . S
H1730 C1724 0.930 . S
H1731 C1728 0.930 . S
O1732 Li1672 1.956 . S
O1732 Li1673 1.970 . S
O1732 Li1674 1.961 . S
O1732 C1676 1.325 . S
O1733 Li1672 1.970 . S
O1733 Li1673 1.956 . S
O1733 Li1675 1.961 . S
O1733 C1682 1.325 . S
O1734 Li1672 1.961 . S
O1734 Li1674 1.956 . S
O1734 Li1675 1.970 . S
O1734 C1704 1.325 . S
O1735 Li1673 1.961 . S
O1735 Li1674 1.970 . S
O1735 Li1675 1.956 . S
O1735 C1710 1.325 . S
H1736 C1678 0.929 . S
H1737 C1679 0.930 . S
H1738 C1680 0.930 . S
H1739 C1681 0.930 . S
H1740 C1683 0.930 . S
H1741 C1685 0.929 . S
H1742 C1686 0.930 . S
H1743 C1687 0.930 . S
H1744 C1690 0.930 . S
H1745 C1693 0.929 . S
H1746 C1698 0.929 . S
H1747 C1699 0.930 . S
H1748 C1706 0.929 . S
H1749 C1707 0.930 . S
H1750 C1708 0.930 . S
H1751 C1709 0.930 . S
H1752 C1711 0.929 . S
H1753 C1712 0.930 . S
H1754 C1713 0.930 . S
H1755 C1714 0.930 . S
H1756 C1718 0.929 . S
H1757 C1720 0.930 . S
H1758 C1726 0.929 . S
H1759 C1727 0.930 . S
Li1760 N1777 1.990 . S
Li1760 O1820 1.956 . S
Li1760 O1821 1.970 . S
Li1760 O1822 1.961 . S
Li1761 N1785 1.990 . S
Li1761 O1820 1.970 . S
Li1761 O1821 1.956 . S
Li1761 O1823 1.961 . S
Li1762 N1807 1.990 . S
Li1762 O1820 1.961 . S
Li1762 O1822 1.956 . S
Li1762 O1823 1.970 . S
Li1763 N1813 1.990 . S
Li1763 O1821 1.961 . S
Li1763 O1822 1.970 . S
Li1763 O1823 1.956 . S
C1764 C1766 1.348 . S
C1764 C1767 1.356 . S
C1764 O1820 1.325 . S
N1765 C1768 1.314 . S
N1765 C1769 1.279 . S
C1766 C1764 1.348 . S
C1766 C1768 1.353 . S
C1766 H1824 0.929 . S
C1767 C1764 1.356 . S
C1767 C1769 1.358 . S
C1767 H1825 0.930 . S
C1768 N1765 1.314 . S
C1768 C1766 1.353 . S
C1768 H1826 0.930 . S
C1769 N1765 1.279 . S
C1769 C1767 1.358 . S
C1769 H1827 0.930 . S
C1770 C1773 1.348 . S
C1770 C1774 1.356 . S
C1770 O1821 1.325 . S
C1771 N1772 1.279 . S
C1771 C1774 1.358 . S
C1771 H1828 0.930 . S
N1772 C1771 1.279 . S
N1772 C1775 1.314 . S
C1773 C1770 1.348 . S
C1773 C1775 1.353 . S
C1773 H1829 0.929 . S
C1774 C1770 1.356 . S
C1774 C1771 1.358 . S
C1774 H1830 0.930 . S
C1775 N1772 1.314 . S
C1775 C1773 1.353 . S
C1775 H1831 0.930 . S
C1776 N1777 1.314 . S
C1776 C1781 1.353 . S
C1776 H1782 0.930 . S
N1777 Li1760 1.990 . S
N1777 C1776 1.314 . S
N1777 C1779 1.279 . S
C1778 C1779 1.358 . S
C1778 C1780 1.356 . S
C1778 H1832 0.930 . S
C1779 N1777 1.279 . S
C1779 C1778 1.358 . S
C1779 H1783 0.930 . S
C1780 C1778 1.356 . S
C1780 C1781 1.348 . S
C1781 C1776 1.353 . S
C1781 C1780 1.348 . S
C1781 H1833 0.929 . S
H1782 C1776 0.930 . S
H1783 C1779 0.930 . S
C1784 N1785 1.314 . S
C1784 C1786 1.353 . S
C1784 H1790 0.930 . S
N1785 Li1761 1.990 . S
N1785 C1784 1.314 . S
N1785 C1788 1.279 . S
C1786 C1784 1.353 . S
C1786 C1789 1.348 . S
C1786 H1834 0.929 . S
C1787 C1788 1.358 . S
C1787 C1789 1.356 . S
C1787 H1835 0.930 . S
C1788 N1785 1.279 . S
C1788 C1787 1.358 . S
C1788 H1791 0.930 . S
C1789 C1786 1.348 . S
C1789 C1787 1.356 . S
H1790 C1784 0.930 . S
H1791 C1788 0.930 . S
C1792 C1794 1.348 . S
C1792 C1795 1.356 . S
C1792 O1822 1.325 . S
N1793 C1796 1.314 . S
N1793 C1797 1.279 . S
C1794 C1792 1.348 . S
C1794 C1796 1.353 . S
C1794 H1836 0.929 . S
C1795 C1792 1.356 . S
C1795 C1797 1.358 . S
C1795 H1837 0.930 . S
C1796 N1793 1.314 . S
C1796 C1794 1.353 . S
C1796 H1838 0.930 . S
C1797 N1793 1.279 . S
C1797 C1795 1.358 . S
C1797 H1839 0.930 . S
C1798 C1799 1.348 . S
C1798 C1800 1.356 . S
C1798 O1823 1.325 . S
C1799 C1798 1.348 . S
C1799 C1801 1.353 . S
C1799 H1840 0.929 . S
C1800 C1798 1.356 . S
C1800 C1802 1.358 . S
C1800 H1841 0.930 . S
C1801 C1799 1.353 . S
C1801 N1803 1.314 . S
C1801 H1842 0.930 . S
C1802 C1800 1.358 . S
C1802 N1803 1.279 . S
C1802 H1843 0.930 . S
N1803 C1801 1.314 . S
N1803 C1802 1.279 . S
C1804 C1806 1.353 . S
C1804 N1807 1.314 . S
C1804 H1810 0.930 . S
C1805 N1807 1.279 . S
C1805 C1808 1.358 . S
C1805 H1811 0.930 . S
C1806 C1804 1.353 . S
C1806 C1809 1.348 . S
C1806 H1844 0.929 . S
N1807 Li1762 1.990 . S
N1807 C1804 1.314 . S
N1807 C1805 1.279 . S
C1808 C1805 1.358 . S
C1808 C1809 1.356 . S
C1808 H1845 0.930 . S
C1809 C1806 1.348 . S
C1809 C1808 1.356 . S
H1810 C1804 0.930 . S
H1811 C1805 0.930 . S
C1812 N1813 1.314 . S
C1812 C1814 1.353 . S
C1812 H1818 0.930 . S
N1813 Li1763 1.990 . S
N1813 C1812 1.314 . S
N1813 C1816 1.279 . S
C1814 C1812 1.353 . S
C1814 C1817 1.348 . S
C1814 H1846 0.929 . S
C1815 C1816 1.358 . S
C1815 C1817 1.356 . S
C1815 H1847 0.930 . S
C1816 N1813 1.279 . S
C1816 C1815 1.358 . S
C1816 H1819 0.930 . S
C1817 C1814 1.348 . S
C1817 C1815 1.356 . S
H1818 C1812 0.930 . S
H1819 C1816 0.930 . S
O1820 Li1760 1.956 . S
O1820 Li1761 1.970 . S
O1820 Li1762 1.961 . S
O1820 C1764 1.325 . S
O1821 Li1760 1.970 . S
O1821 Li1761 1.956 . S
O1821 Li1763 1.961 . S
O1821 C1770 1.325 . S
O1822 Li1760 1.961 . S
O1822 Li1762 1.956 . S
O1822 Li1763 1.970 . S
O1822 C1792 1.325 . S
O1823 Li1761 1.961 . S
O1823 Li1762 1.970 . S
O1823 Li1763 1.956 . S
O1823 C1798 1.325 . S
H1824 C1766 0.929 . S
H1825 C1767 0.930 . S
H1826 C1768 0.930 . S
H1827 C1769 0.930 . S
H1828 C1771 0.930 . S
H1829 C1773 0.929 . S
H1830 C1774 0.930 . S
H1831 C1775 0.930 . S
H1832 C1778 0.930 . S
H1833 C1781 0.929 . S
H1834 C1786 0.929 . S
H1835 C1787 0.930 . S
H1836 C1794 0.929 . S
H1837 C1795 0.930 . S
H1838 C1796 0.930 . S
H1839 C1797 0.930 . S
H1840 C1799 0.929 . S
H1841 C1800 0.930 . S
H1842 C1801 0.930 . S
H1843 C1802 0.930 . S
H1844 C1806 0.929 . S
H1845 C1808 0.930 . S
H1846 C1814 0.929 . S
H1847 C1815 0.930 . S
Li1848 N1865 1.990 . S
Li1848 O1908 1.956 . S
Li1848 O1909 1.970 . S
Li1848 O1910 1.961 . S
Li1849 N1873 1.990 . S
Li1849 O1908 1.970 . S
Li1849 O1909 1.956 . S
Li1849 O1911 1.961 . S
Li1850 N1895 1.990 . S
Li1850 O1908 1.961 . S
Li1850 O1910 1.956 . S
Li1850 O1911 1.970 . S
Li1851 N1901 1.990 . S
Li1851 O1909 1.961 . S
Li1851 O1910 1.970 . S
Li1851 O1911 1.956 . S
C1852 C1854 1.348 . S
C1852 C1855 1.356 . S
C1852 O1908 1.325 . S
N1853 C1856 1.314 . S
N1853 C1857 1.279 . S
C1854 C1852 1.348 . S
C1854 C1856 1.353 . S
C1854 H1912 0.929 . S
C1855 C1852 1.356 . S
C1855 C1857 1.358 . S
C1855 H1913 0.930 . S
C1856 N1853 1.314 . S
C1856 C1854 1.353 . S
C1856 H1914 0.930 . S
C1857 N1853 1.279 . S
C1857 C1855 1.358 . S
C1857 H1915 0.930 . S
C1858 C1861 1.348 . S
C1858 C1862 1.356 . S
C1858 O1909 1.325 . S
C1859 N1860 1.279 . S
C1859 C1862 1.358 . S
C1859 H1916 0.930 . S
N1860 C1859 1.279 . S
N1860 C1863 1.314 . S
C1861 C1858 1.348 . S
C1861 C1863 1.353 . S
C1861 H1917 0.929 . S
C1862 C1858 1.356 . S
C1862 C1859 1.358 . S
C1862 H1918 0.930 . S
C1863 N1860 1.314 . S
C1863 C1861 1.353 . S
C1863 H1919 0.930 . S
C1864 N1865 1.314 . S
C1864 C1869 1.353 . S
C1864 H1870 0.930 . S
N1865 Li1848 1.990 . S
N1865 C1864 1.314 . S
N1865 C1867 1.279 . S
C1866 C1867 1.358 . S
C1866 C1868 1.356 . S
C1866 H1920 0.930 . S
C1867 N1865 1.279 . S
C1867 C1866 1.358 . S
C1867 H1871 0.930 . S
C1868 C1866 1.356 . S
C1868 C1869 1.348 . S
C1869 C1864 1.353 . S
C1869 C1868 1.348 . S
C1869 H1921 0.929 . S
H1870 C1864 0.930 . S
H1871 C1867 0.930 . S
C1872 N1873 1.314 . S
C1872 C1874 1.353 . S
C1872 H1878 0.930 . S
N1873 Li1849 1.990 . S
N1873 C1872 1.314 . S
N1873 C1876 1.279 . S
C1874 C1872 1.353 . S
C1874 C1877 1.348 . S
C1874 H1922 0.929 . S
C1875 C1876 1.358 . S
C1875 C1877 1.356 . S
C1875 H1923 0.930 . S
C1876 N1873 1.279 . S
C1876 C1875 1.358 . S
C1876 H1879 0.930 . S
C1877 C1874 1.348 . S
C1877 C1875 1.356 . S
H1878 C1872 0.930 . S
H1879 C1876 0.930 . S
C1880 C1882 1.348 . S
C1880 C1883 1.356 . S
C1880 O1910 1.325 . S
N1881 C1884 1.314 . S
N1881 C1885 1.279 . S
C1882 C1880 1.348 . S
C1882 C1884 1.353 . S
C1882 H1924 0.929 . S
C1883 C1880 1.356 . S
C1883 C1885 1.358 . S
C1883 H1925 0.930 . S
C1884 N1881 1.314 . S
C1884 C1882 1.353 . S
C1884 H1926 0.930 . S
C1885 N1881 1.279 . S
C1885 C1883 1.358 . S
C1885 H1927 0.930 . S
C1886 C1887 1.348 . S
C1886 C1888 1.356 . S
C1886 O1911 1.325 . S
C1887 C1886 1.348 . S
C1887 C1889 1.353 . S
C1887 H1928 0.929 . S
C1888 C1886 1.356 . S
C1888 C1890 1.358 . S
C1888 H1929 0.930 . S
C1889 C1887 1.353 . S
C1889 N1891 1.314 . S
C1889 H1930 0.930 . S
C1890 C1888 1.358 . S
C1890 N1891 1.279 . S
C1890 H1931 0.930 . S
N1891 C1889 1.314 . S
N1891 C1890 1.279 . S
C1892 C1894 1.353 . S
C1892 N1895 1.314 . S
C1892 H1898 0.930 . S
C1893 N1895 1.279 . S
C1893 C1896 1.358 . S
C1893 H1899 0.930 . S
C1894 C1892 1.353 . S
C1894 C1897 1.348 . S
C1894 H1932 0.929 . S
N1895 Li1850 1.990 . S
N1895 C1892 1.314 . S
N1895 C1893 1.279 . S
C1896 C1893 1.358 . S
C1896 C1897 1.356 . S
C1896 H1933 0.930 . S
C1897 C1894 1.348 . S
C1897 C1896 1.356 . S
H1898 C1892 0.930 . S
H1899 C1893 0.930 . S
C1900 N1901 1.314 . S
C1900 C1902 1.353 . S
C1900 H1906 0.930 . S
N1901 Li1851 1.990 . S
N1901 C1900 1.314 . S
N1901 C1904 1.279 . S
C1902 C1900 1.353 . S
C1902 C1905 1.348 . S
C1902 H1934 0.929 . S
C1903 C1904 1.358 . S
C1903 C1905 1.356 . S
C1903 H1935 0.930 . S
C1904 N1901 1.279 . S
C1904 C1903 1.358 . S
C1904 H1907 0.930 . S
C1905 C1902 1.348 . S
C1905 C1903 1.356 . S
H1906 C1900 0.930 . S
H1907 C1904 0.930 . S
O1908 Li1848 1.956 . S
O1908 Li1849 1.970 . S
O1908 Li1850 1.961 . S
O1908 C1852 1.325 . S
O1909 Li1848 1.970 . S
O1909 Li1849 1.956 . S
O1909 Li1851 1.961 . S
O1909 C1858 1.325 . S
O1910 Li1848 1.961 . S
O1910 Li1850 1.956 . S
O1910 Li1851 1.970 . S
O1910 C1880 1.325 . S
O1911 Li1849 1.961 . S
O1911 Li1850 1.970 . S
O1911 Li1851 1.956 . S
O1911 C1886 1.325 . S
H1912 C1854 0.929 . S
H1913 C1855 0.930 . S
H1914 C1856 0.930 . S
H1915 C1857 0.930 . S
H1916 C1859 0.930 . S
H1917 C1861 0.929 . S
H1918 C1862 0.930 . S
H1919 C1863 0.930 . S
H1920 C1866 0.930 . S
H1921 C1869 0.929 . S
H1922 C1874 0.929 . S
H1923 C1875 0.930 . S
H1924 C1882 0.929 . S
H1925 C1883 0.930 . S
H1926 C1884 0.930 . S
H1927 C1885 0.930 . S
H1928 C1887 0.929 . S
H1929 C1888 0.930 . S
H1930 C1889 0.930 . S
H1931 C1890 0.930 . S
H1932 C1894 0.929 . S
H1933 C1896 0.930 . S
H1934 C1902 0.929 . S
H1935 C1903 0.930 . S
Li1936 N1953 1.990 . S
Li1936 O1996 1.956 . S
Li1936 O1997 1.970 . S
Li1936 O1998 1.961 . S
Li1937 N1961 1.990 . S
Li1937 O1996 1.970 . S
Li1937 O1997 1.956 . S
Li1937 O1999 1.961 . S
Li1938 N1983 1.990 . S
Li1938 O1996 1.961 . S
Li1938 O1998 1.956 . S
Li1938 O1999 1.970 . S
Li1939 N1989 1.990 . S
Li1939 O1997 1.961 . S
Li1939 O1998 1.970 . S
Li1939 O1999 1.956 . S
C1940 C1942 1.348 . S
C1940 C1943 1.356 . S
C1940 O1996 1.325 . S
N1941 C1944 1.314 . S
N1941 C1945 1.279 . S
C1942 C1940 1.348 . S
C1942 C1944 1.353 . S
C1942 H2000 0.929 . S
C1943 C1940 1.356 . S
C1943 C1945 1.358 . S
C1943 H2001 0.930 . S
C1944 N1941 1.314 . S
C1944 C1942 1.353 . S
C1944 H2002 0.930 . S
C1945 N1941 1.279 . S
C1945 C1943 1.358 . S
C1945 H2003 0.930 . S
C1946 C1949 1.348 . S
C1946 C1950 1.356 . S
C1946 O1997 1.325 . S
C1947 N1948 1.279 . S
C1947 C1950 1.358 . S
C1947 H2004 0.930 . S
N1948 C1947 1.279 . S
N1948 C1951 1.314 . S
C1949 C1946 1.348 . S
C1949 C1951 1.353 . S
C1949 H2005 0.929 . S
C1950 C1946 1.356 . S
C1950 C1947 1.358 . S
C1950 H2006 0.930 . S
C1951 N1948 1.314 . S
C1951 C1949 1.353 . S
C1951 H2007 0.930 . S
C1952 N1953 1.314 . S
C1952 C1957 1.353 . S
C1952 H1958 0.930 . S
N1953 Li1936 1.990 . S
N1953 C1952 1.314 . S
N1953 C1955 1.279 . S
C1954 C1955 1.358 . S
C1954 C1956 1.356 . S
C1954 H2008 0.930 . S
C1955 N1953 1.279 . S
C1955 C1954 1.358 . S
C1955 H1959 0.930 . S
C1956 C1954 1.356 . S
C1956 C1957 1.348 . S
C1957 C1952 1.353 . S
C1957 C1956 1.348 . S
C1957 H2009 0.929 . S
H1958 C1952 0.930 . S
H1959 C1955 0.930 . S
C1960 N1961 1.314 . S
C1960 C1962 1.353 . S
C1960 H1966 0.930 . S
N1961 Li1937 1.990 . S
N1961 C1960 1.314 . S
N1961 C1964 1.279 . S
C1962 C1960 1.353 . S
C1962 C1965 1.348 . S
C1962 H2010 0.929 . S
C1963 C1964 1.358 . S
C1963 C1965 1.356 . S
C1963 H2011 0.930 . S
C1964 N1961 1.279 . S
C1964 C1963 1.358 . S
C1964 H1967 0.930 . S
C1965 C1962 1.348 . S
C1965 C1963 1.356 . S
H1966 C1960 0.930 . S
H1967 C1964 0.930 . S
C1968 C1970 1.348 . S
C1968 C1971 1.356 . S
C1968 O1998 1.325 . S
N1969 C1972 1.314 . S
N1969 C1973 1.279 . S
C1970 C1968 1.348 . S
C1970 C1972 1.353 . S
C1970 H2012 0.929 . S
C1971 C1968 1.356 . S
C1971 C1973 1.358 . S
C1971 H2013 0.930 . S
C1972 N1969 1.314 . S
C1972 C1970 1.353 . S
C1972 H2014 0.930 . S
C1973 N1969 1.279 . S
C1973 C1971 1.358 . S
C1973 H2015 0.930 . S
C1974 C1975 1.348 . S
C1974 C1976 1.356 . S
C1974 O1999 1.325 . S
C1975 C1974 1.348 . S
C1975 C1977 1.353 . S
C1975 H2016 0.929 . S
C1976 C1974 1.356 . S
C1976 C1978 1.358 . S
C1976 H2017 0.930 . S
C1977 C1975 1.353 . S
C1977 N1979 1.314 . S
C1977 H2018 0.930 . S
C1978 C1976 1.358 . S
C1978 N1979 1.279 . S
C1978 H2019 0.930 . S
N1979 C1977 1.314 . S
N1979 C1978 1.279 . S
C1980 C1982 1.353 . S
C1980 N1983 1.314 . S
C1980 H1986 0.930 . S
C1981 N1983 1.279 . S
C1981 C1984 1.358 . S
C1981 H1987 0.930 . S
C1982 C1980 1.353 . S
C1982 C1985 1.348 . S
C1982 H2020 0.929 . S
N1983 Li1938 1.990 . S
N1983 C1980 1.314 . S
N1983 C1981 1.279 . S
C1984 C1981 1.358 . S
C1984 C1985 1.356 . S
C1984 H2021 0.930 . S
C1985 C1982 1.348 . S
C1985 C1984 1.356 . S
H1986 C1980 0.930 . S
H1987 C1981 0.930 . S
C1988 N1989 1.314 . S
C1988 C1990 1.353 . S
C1988 H1994 0.930 . S
N1989 Li1939 1.990 . S
N1989 C1988 1.314 . S
N1989 C1992 1.279 . S
C1990 C1988 1.353 . S
C1990 C1993 1.348 . S
C1990 H2022 0.929 . S
C1991 C1992 1.358 . S
C1991 C1993 1.356 . S
C1991 H2023 0.930 . S
C1992 N1989 1.279 . S
C1992 C1991 1.358 . S
C1992 H1995 0.930 . S
C1993 C1990 1.348 . S
C1993 C1991 1.356 . S
H1994 C1988 0.930 . S
H1995 C1992 0.930 . S
O1996 Li1936 1.956 . S
O1996 Li1937 1.970 . S
O1996 Li1938 1.961 . S
O1996 C1940 1.325 . S
O1997 Li1936 1.970 . S
O1997 Li1937 1.956 . S
O1997 Li1939 1.961 . S
O1997 C1946 1.325 . S
O1998 Li1936 1.961 . S
O1998 Li1938 1.956 . S
O1998 Li1939 1.970 . S
O1998 C1968 1.325 . S
O1999 Li1937 1.961 . S
O1999 Li1938 1.970 . S
O1999 Li1939 1.956 . S
O1999 C1974 1.325 . S
H2000 C1942 0.929 . S
H2001 C1943 0.930 . S
H2002 C1944 0.930 . S
H2003 C1945 0.930 . S
H2004 C1947 0.930 . S
H2005 C1949 0.929 . S
H2006 C1950 0.930 . S
H2007 C1951 0.930 . S
H2008 C1954 0.930 . S
H2009 C1957 0.929 . S
H2010 C1962 0.929 . S
H2011 C1963 0.930 . S
H2012 C1970 0.929 . S
H2013 C1971 0.930 . S
H2014 C1972 0.930 . S
H2015 C1973 0.930 . S
H2016 C1975 0.929 . S
H2017 C1976 0.930 . S
H2018 C1977 0.930 . S
H2019 C1978 0.930 . S
H2020 C1982 0.929 . S
H2021 C1984 0.930 . S
H2022 C1990 0.929 . S
H2023 C1991 0.930 . S
Li2024 N2041 1.990 . S
Li2024 O2084 1.956 . S
Li2024 O2085 1.970 . S
Li2024 O2086 1.961 . S
Li2025 N2049 1.990 . S
Li2025 O2084 1.970 . S
Li2025 O2085 1.956 . S
Li2025 O2087 1.961 . S
Li2026 N2071 1.990 . S
Li2026 O2084 1.961 . S
Li2026 O2086 1.956 . S
Li2026 O2087 1.970 . S
Li2027 N2077 1.990 . S
Li2027 O2085 1.961 . S
Li2027 O2086 1.970 . S
Li2027 O2087 1.956 . S
C2028 C2030 1.348 . S
C2028 C2031 1.356 . S
C2028 O2084 1.325 . S
N2029 C2032 1.314 . S
N2029 C2033 1.279 . S
C2030 C2028 1.348 . S
C2030 C2032 1.353 . S
C2030 H2088 0.929 . S
C2031 C2028 1.356 . S
C2031 C2033 1.358 . S
C2031 H2089 0.930 . S
C2032 N2029 1.314 . S
C2032 C2030 1.353 . S
C2032 H2090 0.930 . S
C2033 N2029 1.279 . S
C2033 C2031 1.358 . S
C2033 H2091 0.930 . S
C2034 C2037 1.348 . S
C2034 C2038 1.356 . S
C2034 O2085 1.325 . S
C2035 N2036 1.279 . S
C2035 C2038 1.358 . S
C2035 H2092 0.930 . S
N2036 C2035 1.279 . S
N2036 C2039 1.314 . S
C2037 C2034 1.348 . S
C2037 C2039 1.353 . S
C2037 H2093 0.929 . S
C2038 C2034 1.356 . S
C2038 C2035 1.358 . S
C2038 H2094 0.930 . S
C2039 N2036 1.314 . S
C2039 C2037 1.353 . S
C2039 H2095 0.930 . S
C2040 N2041 1.314 . S
C2040 C2045 1.353 . S
C2040 H2046 0.930 . S
N2041 Li2024 1.990 . S
N2041 C2040 1.314 . S
N2041 C2043 1.279 . S
C2042 C2043 1.358 . S
C2042 C2044 1.356 . S
C2042 H2096 0.930 . S
C2043 N2041 1.279 . S
C2043 C2042 1.358 . S
C2043 H2047 0.930 . S
C2044 C2042 1.356 . S
C2044 C2045 1.348 . S
C2045 C2040 1.353 . S
C2045 C2044 1.348 . S
C2045 H2097 0.929 . S
H2046 C2040 0.930 . S
H2047 C2043 0.930 . S
C2048 N2049 1.314 . S
C2048 C2050 1.353 . S
C2048 H2054 0.930 . S
N2049 Li2025 1.990 . S
N2049 C2048 1.314 . S
N2049 C2052 1.279 . S
C2050 C2048 1.353 . S
C2050 C2053 1.348 . S
C2050 H2098 0.929 . S
C2051 C2052 1.358 . S
C2051 C2053 1.356 . S
C2051 H2099 0.930 . S
C2052 N2049 1.279 . S
C2052 C2051 1.358 . S
C2052 H2055 0.930 . S
C2053 C2050 1.348 . S
C2053 C2051 1.356 . S
H2054 C2048 0.930 . S
H2055 C2052 0.930 . S
C2056 C2058 1.348 . S
C2056 C2059 1.356 . S
C2056 O2086 1.325 . S
N2057 C2060 1.314 . S
N2057 C2061 1.279 . S
C2058 C2056 1.348 . S
C2058 C2060 1.353 . S
C2058 H2100 0.929 . S
C2059 C2056 1.356 . S
C2059 C2061 1.358 . S
C2059 H2101 0.930 . S
C2060 N2057 1.314 . S
C2060 C2058 1.353 . S
C2060 H2102 0.930 . S
C2061 N2057 1.279 . S
C2061 C2059 1.358 . S
C2061 H2103 0.930 . S
C2062 C2063 1.348 . S
C2062 C2064 1.356 . S
C2062 O2087 1.325 . S
C2063 C2062 1.348 . S
C2063 C2065 1.353 . S
C2063 H2104 0.929 . S
C2064 C2062 1.356 . S
C2064 C2066 1.358 . S
C2064 H2105 0.930 . S
C2065 C2063 1.353 . S
C2065 N2067 1.314 . S
C2065 H2106 0.930 . S
C2066 C2064 1.358 . S
C2066 N2067 1.279 . S
C2066 H2107 0.930 . S
N2067 C2065 1.314 . S
N2067 C2066 1.279 . S
C2068 C2070 1.353 . S
C2068 N2071 1.314 . S
C2068 H2074 0.930 . S
C2069 N2071 1.279 . S
C2069 C2072 1.358 . S
C2069 H2075 0.930 . S
C2070 C2068 1.353 . S
C2070 C2073 1.348 . S
C2070 H2108 0.929 . S
N2071 Li2026 1.990 . S
N2071 C2068 1.314 . S
N2071 C2069 1.279 . S
C2072 C2069 1.358 . S
C2072 C2073 1.356 . S
C2072 H2109 0.930 . S
C2073 C2070 1.348 . S
C2073 C2072 1.356 . S
H2074 C2068 0.930 . S
H2075 C2069 0.930 . S
C2076 N2077 1.314 . S
C2076 C2078 1.353 . S
C2076 H2082 0.930 . S
N2077 Li2027 1.990 . S
N2077 C2076 1.314 . S
N2077 C2080 1.279 . S
C2078 C2076 1.353 . S
C2078 C2081 1.348 . S
C2078 H2110 0.929 . S
C2079 C2080 1.358 . S
C2079 C2081 1.356 . S
C2079 H2111 0.930 . S
C2080 N2077 1.279 . S
C2080 C2079 1.358 . S
C2080 H2083 0.930 . S
C2081 C2078 1.348 . S
C2081 C2079 1.356 . S
H2082 C2076 0.930 . S
H2083 C2080 0.930 . S
O2084 Li2024 1.956 . S
O2084 Li2025 1.970 . S
O2084 Li2026 1.961 . S
O2084 C2028 1.325 . S
O2085 Li2024 1.970 . S
O2085 Li2025 1.956 . S
O2085 Li2027 1.961 . S
O2085 C2034 1.325 . S
O2086 Li2024 1.961 . S
O2086 Li2026 1.956 . S
O2086 Li2027 1.970 . S
O2086 C2056 1.325 . S
O2087 Li2025 1.961 . S
O2087 Li2026 1.970 . S
O2087 Li2027 1.956 . S
O2087 C2062 1.325 . S
H2088 C2030 0.929 . S
H2089 C2031 0.930 . S
H2090 C2032 0.930 . S
H2091 C2033 0.930 . S
H2092 C2035 0.930 . S
H2093 C2037 0.929 . S
H2094 C2038 0.930 . S
H2095 C2039 0.930 . S
H2096 C2042 0.930 . S
H2097 C2045 0.929 . S
H2098 C2050 0.929 . S
H2099 C2051 0.930 . S
H2100 C2058 0.929 . S
H2101 C2059 0.930 . S
H2102 C2060 0.930 . S
H2103 C2061 0.930 . S
H2104 C2063 0.929 . S
H2105 C2064 0.930 . S
H2106 C2065 0.930 . S
H2107 C2066 0.930 . S
H2108 C2070 0.929 . S
H2109 C2072 0.930 . S
H2110 C2078 0.929 . S
H2111 C2079 0.930 . S
C29 C673 1.373 1_545 S
C724 C117 1.373 . S
C205 C821 1.373 1_655 S
C284 C937 1.373 1_565 S
C1017 C381 1.373 . S
C497 C577 1.373 1_455 S
C1076 C1721 1.359 1_565 S
C1173 C1809 1.359 . S
C1905 C1252 1.359 1_655 S
C1340 C1993 1.359 1_545 S
C1437 C2073 1.359 . S
C1633 C1516 1.359 1_455 S
C57 C753 1.047 . S
C849 C145 1.047 . S
C909 C233 1.048 . S
C313 C988 1.047 . S
C409 C548 1.048 . S
C469 C645 1.048 . S
C1780 C1105 1.065 . S
C1201 C1877 1.065 . S
C1965 C1281 1.065 . S
C2044 C1369 1.065 . S
C1604 C1465 1.065 . S
C1545 C1692 1.065 . S
C49 C1349 1.541 1_554 S
C1428 C137 1.541 1_556 S
C1525 C225 1.541 1_556 S
C321 C1085 1.541 1_554 S
C401 C1164 1.541 1_554 S
C1261 C460 1.541 1_556 S
C1897 C557 1.541 . S
C1985 C636 1.541 . S
C2081 C761 1.541 . S
C1641 C841 1.541 . S
C900 C1729 1.541 . S
C997 C1817 1.541 . S
C20 C929 1.815 . S
C1025 C108 1.815 . S
C585 C196 1.815 . S
C293 C665 1.815 . S
C372 C733 1.815 . S
C489 C812 1.815 . S
C1113 C1956 1.818 . S
C1193 C2053 1.817 . S
C1289 C1613 1.818 . S
C1701 C1377 1.817 . S
C1457 C1789 1.817 . S
C1553 C1868 1.817 . S
