# Generated by pormake.
# Topology lcy-e, (6)-cn, num edge types: 1
# Building blocks:
#     Node 0, Type 0, BuildingBlock: PAMTOO_clean_sbu_0, # of connection points: 6
#     Node 1, Type 0, BuildingBlock: PAMTOO_clean_sbu_0, # of connection points: 6
#     Node 2, Type 0, BuildingBlock: PAMTOO_clean_sbu_0, # of connection points: 6
#     Node 3, Type 0, BuildingBlock: PAMTOO_clean_sbu_0, # of connection points: 6
#     Node 4, Type 0, BuildingBlock: PAMTOO_clean_sbu_0, # of connection points: 6
#     Node 5, Type 0, BuildingBlock: PAMTOO_clean_sbu_0, # of connection points: 6
#     Node 6, Type 0, BuildingBlock: PAMTOO_clean_sbu_0, # of connection points: 6
#     Node 7, Type 0, BuildingBlock: PAMTOO_clean_sbu_0, # of connection points: 6
#     Node 8, Type 0, BuildingBlock: PAMTOO_clean_sbu_0, # of connection points: 6
#     Node 9, Type 0, BuildingBlock: PAMTOO_clean_sbu_0, # of connection points: 6
#     Node 10, Type 0, BuildingBlock: PAMTOO_clean_sbu_0, # of connection points: 6
#     Node 11, Type 0, BuildingBlock: PAMTOO_clean_sbu_0, # of connection points: 6
#     Edge 12, Type (0, 0), None
#     Edge 13, Type (0, 0), None
#     Edge 14, Type (0, 0), None
#     Edge 15, Type (0, 0), None
#     Edge 16, Type (0, 0), None
#     Edge 17, Type (0, 0), None
#     Edge 18, Type (0, 0), None
#     Edge 19, Type (0, 0), None
#     Edge 20, Type (0, 0), None
#     Edge 21, Type (0, 0), None
#     Edge 22, Type (0, 0), None
#     Edge 23, Type (0, 0), None
#     Edge 24, Type (0, 0), None
#     Edge 25, Type (0, 0), None
#     Edge 26, Type (0, 0), None
#     Edge 27, Type (0, 0), None
#     Edge 28, Type (0, 0), None
#     Edge 29, Type (0, 0), None
#     Edge 30, Type (0, 0), None
#     Edge 31, Type (0, 0), None
#     Edge 32, Type (0, 0), None
#     Edge 33, Type (0, 0), None
#     Edge 34, Type (0, 0), None
#     Edge 35, Type (0, 0), None
#     Edge 36, Type (0, 0), None
#     Edge 37, Type (0, 0), None
#     Edge 38, Type (0, 0), None
#     Edge 39, Type (0, 0), None
#     Edge 40, Type (0, 0), None
#     Edge 41, Type (0, 0), None
#     Edge 42, Type (0, 0), None
#     Edge 43, Type (0, 0), None
#     Edge 44, Type (0, 0), None
#     Edge 45, Type (0, 0), None
#     Edge 46, Type (0, 0), None
#     Edge 47, Type (0, 0), None
# Relax obj value: 0.144
# Max RMSD: 0.341
# Mean RMSD: 0.316
data_MOF--net-lcy-e--node1-PAMTOO_clean_sbu_0--edge1-none
_symmetry_space_group_name_H-M    P1
_symmetry_Int_Tables_number       1
_symmetry_cell_setting            triclinic
loop_
_symmetry_equiv_pos_as_xyz
'x, y, z'
_cell_length_a     24.46046
_cell_length_b     23.768119
_cell_length_c     24.509335
_cell_angle_alpha  90.001996
_cell_angle_beta   89.767834
_cell_angle_gamma 89.234078
loop_
_atom_site_label
_atom_site_type_symbol
_atom_site_fract_x
_atom_site_fract_y
_atom_site_fract_z
_atom_type_partial_charge
Dy0 Dy 0.13381 0.32363 0.4925 0.0
Dy1 Dy 0.17896 0.2375 0.57651 0.0
C2 C 0.24585 0.25033 0.47773 0.0
O3 O 0.06109 0.2761 0.51371 0.0
O4 O 0.11763 0.20177 0.51488 0.0
O5 O 0.10785 0.32481 0.40797 0.0
O6 O 0.11226 0.40261 0.45378 0.0
O7 O 0.11378 0.2669 0.62858 0.0
O8 O 0.09972 0.34793 0.579 0.0
O9 O 0.21213 0.32666 0.59913 0.0
O10 O 0.197 0.37841 0.52104 0.0
O11 O 0.19992 0.19926 0.65389 0.0
O12 O 0.20358 0.14954 0.57977 0.0
C13 C 0.06801 0.22259 0.5069 0.0
O14 O 0.19662 0.25993 0.45758 0.0
O15 O 0.25219 0.25696 0.52964 0.0
C16 C 0.1486 0.40256 0.36288 0.0
C17 C 0.2223 0.44483 0.28294 0.0
C18 C 0.18613 0.40137 0.26988 0.0
C19 C 0.14957 0.38059 0.30941 0.0
C20 C 0.1861 0.44478 0.37608 0.0
C21 C 0.22216 0.46562 0.33673 0.0
C22 C 0.11084 0.3796 0.4053 0.0
C23 C 0.09667 0.31826 0.62569 0.0
C24 C 0.21458 0.37496 0.57048 0.0
C25 C 0.16002 0.10787 0.6565 0.0
C26 C 0.08042 0.0321 0.69759 0.0
C27 C 0.11767 1.01493 0.65675 0.0
C28 C 0.15707 0.05237 0.63655 0.0
C29 C 0.12184 0.12517 0.69645 0.0
C30 C 0.08284 0.08788 0.71669 0.0
C31 C 0.19985 0.14858 0.633 0.0
H32 H 0.18458 0.38495 0.2287 0.0
H33 H 0.12165 0.34764 0.29804 0.0
H34 H 0.18748 0.46229 0.41684 0.0
H35 H 0.24937 0.49918 0.34826 0.0
H36 H 0.1175 0.97214 0.64158 0.0
H37 H 0.1854 0.03787 0.60534 0.0
H38 H 0.12192 0.16768 0.71236 0.0
H39 H 0.05495 0.10264 0.7482 0.0
Dy40 Dy 0.05401 0.92904 0.82795 0.0
Dy41 Dy 0.97704 0.87571 0.744 0.0
C42 C 0.07877 0.81326 0.76053 0.0
O43 O 0.03242 1.001 0.77645 0.0
O44 O 0.03766 0.93935 0.70823 0.0
O45 O 0.13685 0.96016 0.82945 0.0
O46 O 0.08927 0.95654 0.90409 0.0
O47 O 0.91728 0.9379 0.76991 0.0
O48 O 0.96476 0.96047 0.84755 0.0
O49 O 0.95635 0.83979 0.83061 0.0
O50 O 0.0294 0.86401 0.88434 0.0
O51 O 0.90302 0.84851 0.70443 0.0
O52 O 0.97958 0.84794 0.65968 0.0
C53 C 0.044 0.99131 0.72576 0.0
O54 O 0.095 0.86527 0.76912 0.0
O55 O 0.02738 0.80339 0.76716 0.0
C56 C 0.18145 0.92162 0.90723 0.0
C57 C 0.26066 0.84497 0.95039 0.0
C58 C 0.27222 0.87646 0.90326 0.0
C59 C 0.23304 0.91442 0.88197 0.0
C60 C 0.16997 0.88942 0.95389 0.0
C61 C 0.20882 0.85174 0.97497 0.0
C62 C 0.13832 0.95879 0.88271 0.0
C63 C 0.91825 0.95904 0.81835 0.0
C64 C 0.98297 0.83966 0.87875 0.0
C65 C 0.90205 0.88681 0.61404 0.0
C66 C 0.85894 0.9644 0.53604 0.0
C67 C 0.8358 0.95976 0.58854 0.0
C68 C 0.85693 0.92174 0.62685 0.0
C69 C 0.92598 0.89194 0.56182 0.0
C70 C 0.90474 0.93037 0.52325 0.0
C71 C 0.92627 0.84849 0.65623 0.0
H72 H 0.31187 0.87286 0.88366 0.0
H73 H 0.2431 0.93814 0.84563 0.0
H74 H 0.13073 0.89301 0.97432 0.0
H75 H 0.19831 0.82835 1.01138 0.0
H76 H 0.8005 0.98519 0.60001 0.0
H77 H 0.83767 0.91995 0.66667 0.0
H78 H 0.96115 0.86614 0.55078 0.0
H79 H 0.92323 0.93232 0.48309 0.0
Dy80 Dy 0.41495 0.73588 0.99245 0.0
Dy81 Dy 0.37011 0.82165 0.07712 0.0
C82 C 0.30319 0.81032 0.97872 0.0
O83 O 0.48757 0.78326 1.01351 0.0
O84 O 0.43123 0.8577 1.01484 0.0
O85 O 0.44119 0.73454 0.90779 0.0
O86 O 0.43671 0.65685 0.95378 0.0
O87 O 0.43633 0.79337 0.12771 0.0
O88 O 0.44897 0.71163 0.07898 0.0
O89 O 0.33825 0.73181 0.10004 0.0
O90 O 0.35148 0.68132 1.02086 0.0
O91 O 0.34893 0.85868 0.15517 0.0
O92 O 0.34581 0.90961 0.08185 0.0
C93 C 0.48082 0.83674 1.0065 0.0
O94 O 0.35219 0.79979 0.95789 0.0
O95 O 0.29686 0.80308 1.03061 0.0
C96 C 0.40133 0.65631 0.86275 0.0
C97 C 0.32918 0.61277 0.78254 0.0
C98 C 0.36384 0.65777 0.77001 0.0
C99 C 0.39962 0.67917 0.80965 0.0
C100 C 0.36538 0.61243 0.87544 0.0
C101 C 0.33005 0.59102 0.83599 0.0
C102 C 0.43847 0.67972 0.90524 0.0
C103 C 0.45253 0.74172 0.1254 0.0
C104 C 0.3355 0.68379 0.07098 0.0
C105 C 0.38924 0.94986 0.15916 0.0
C106 C 0.46958 1.02403 0.20105 0.0
C107 C 0.4354 0.04083 0.15779 0.0
C108 C 0.39564 1.00422 0.1372 0.0
C109 C 0.42415 0.93297 0.20183 0.0
C110 C 0.46356 0.96944 0.22242 0.0
C111 C 0.34936 0.9097 0.13508 0.0
H112 H 0.36477 0.67507 0.72914 0.0
H113 H 0.42638 0.71333 0.79863 0.0
H114 H 0.36464 0.59408 0.91587 0.0
H115 H 0.30398 0.55632 0.84718 0.0
H116 H 0.43836 0.08273 0.14076 0.0
H117 H 0.36985 1.01846 0.104 0.0
H118 H 0.42127 0.89135 0.21951 0.0
H119 H 0.48898 0.95497 0.25584 0.0
Dy120 Dy 0.49775 0.12887 0.32983 0.0
Dy121 Dy 0.57676 0.17805 0.24449 0.0
C122 C 0.47706 0.2447 0.26097 0.0
O123 O 0.51792 0.05541 0.27947 0.0
O124 O 0.51461 0.11566 0.2101 0.0
O125 O 0.41433 0.09935 0.33151 0.0
O126 O 0.46089 0.104 0.40635 0.0
O127 O 0.63507 0.11569 0.27313 0.0
O128 O 0.58585 0.09612 0.35092 0.0
O129 O 0.59836 0.2149 0.33008 0.0
O130 O 0.52521 0.1932 0.38546 0.0
O131 O 0.6519 0.20104 0.20388 0.0
O132 O 0.57528 0.20526 0.16002 0.0
C133 C 0.50677 0.06434 0.22864 0.0
O134 O 0.45887 0.19361 0.27087 0.0
O135 O 0.52888 0.25264 0.26656 0.0
C136 C 0.36906 0.13984 0.40801 0.0
C137 C 0.28865 0.21654 0.44887 0.0
C138 C 0.27586 0.17901 0.40661 0.0
C139 C 0.31567 0.14093 0.38649 0.0
C140 C 0.3819 0.17854 0.44926 0.0
C141 C 0.34231 0.21614 0.46938 0.0
C142 C 0.41215 0.10176 0.3847 0.0
C143 C 0.63297 0.09644 0.32236 0.0
C144 C 0.5724 0.21591 0.37874 0.0
C145 C 0.65103 0.16328 0.11333 0.0
C146 C 0.69194 0.08586 1.03383 0.0
C147 C 0.64639 0.12056 1.02232 0.0
C148 C 0.62624 0.15894 0.06164 0.0
C149 C 0.69569 0.12745 0.12497 0.0
C150 C 0.71575 0.08949 0.08591 0.0
C151 C 0.62852 0.20231 0.15598 0.0
H152 H 0.23475 0.17767 0.39046 0.0
H153 H 0.30467 0.11216 0.35419 0.0
H154 H 0.42263 0.17991 0.46633 0.0
H155 H 0.35357 0.24441 0.50203 0.0
H156 H 0.62749 0.11941 0.98247 0.0
H157 H 0.59142 0.1855 0.05149 0.0
H158 H 0.71557 0.12867 0.16435 0.0
H159 H 0.75093 0.06351 0.0963 0.0
Dy160 Dy 0.67636 0.3189 0.479 0.0
Dy161 Dy 0.63684 0.23311 0.56399 0.0
C162 C 0.58921 0.34803 0.57166 0.0
O163 O 0.75104 0.30851 0.5271 0.0
O164 O 0.70796 0.27901 0.60404 0.0
O165 O 0.6917 0.40837 0.48136 0.0
O166 O 0.69815 0.36262 0.40484 0.0
O167 O 0.70737 0.1851 0.53845 0.0
O168 O 0.71058 0.22947 0.456 0.0
O169 O 0.58862 0.22513 0.47977 0.0
O170 O 0.63556 0.27679 0.41537 0.0
O171 O 0.62931 0.1484 0.5944 0.0
O172 O 0.58691 0.21643 0.63571 0.0
C173 C 0.75032 0.3023 0.57973 0.0
O174 O 0.59377 0.34287 0.51846 0.0
O175 O 0.62021 0.3156 0.60032 0.0
C176 C 0.65239 0.45217 0.40367 0.0
C177 C 0.57379 0.52825 0.35926 0.0
C178 C 0.60817 0.54513 0.40194 0.0
C179 C 0.64718 0.5075 0.42376 0.0
C180 C 0.61669 0.43493 0.36222 0.0
C181 C 0.57816 0.47249 0.34024 0.0
C182 C 0.69263 0.41196 0.42811 0.0
C183 C 0.71741 0.18336 0.48693 0.0
C184 C 0.59877 0.24077 0.42737 0.0
C185 C 0.63306 0.14642 0.68976 0.0
C186 C 0.70291 0.10383 0.77288 0.0
C187 C 0.6682 0.06812 0.74328 0.0
C188 C 0.63368 0.08913 0.7027 0.0
C189 C 0.66631 0.18296 0.7202 0.0
C190 C 0.70048 0.16189 0.762 0.0
C191 C 0.6049 0.16459 0.63906 0.0
H192 H 0.60637 0.58793 0.41707 0.0
H193 H 0.67362 0.5218 0.45614 0.0
H194 H 0.61862 0.39242 0.34633 0.0
H195 H 0.55238 0.45807 0.30735 0.0
H196 H 0.66826 1.0232 0.75069 0.0
H197 H 0.60918 0.05998 0.67956 0.0
H198 H 0.66742 0.22736 0.71037 0.0
H199 H 0.72657 0.19046 0.78397 0.0
Dy200 Dy 0.99697 0.42721 0.72839 0.0
Dy201 Dy 0.08031 0.37676 0.81063 0.0
C202 C 0.97933 0.3124 0.79785 0.0
O203 O 1.01769 0.50056 0.7771 0.0
O204 O 1.01858 0.44041 0.84685 0.0
O205 O 0.91234 0.45538 0.72727 0.0
O206 O 0.95903 0.4506 0.65198 0.0
O207 O 0.13475 0.44124 0.78189 0.0
O208 O 0.08326 0.4615 0.70569 0.0
O209 O 0.10265 0.34257 0.72371 0.0
O210 O 0.02496 0.36181 0.67404 0.0
O211 O 0.15718 0.35362 0.84854 0.0
O212 O 0.08183 0.34901 0.89491 0.0
C213 C 1.00959 0.49186 0.82849 0.0
O214 O 0.96054 0.36385 0.78889 0.0
O215 O 0.03123 0.30335 0.79113 0.0
C216 C 0.86957 0.41108 0.65171 0.0
C217 C 0.79384 0.33205 0.61008 0.0
C218 C 0.78214 0.36203 0.65827 0.0
C219 C 0.81956 0.40123 0.67878 0.0
C220 C 0.88185 0.37926 0.60472 0.0
C221 C 0.84461 0.34049 0.5843 0.0
C222 C 0.91024 0.45137 0.67412 0.0
C223 C 0.13066 0.46195 0.73336 0.0
C224 C 0.07416 0.34206 0.67685 0.0
C225 C 0.1575 0.3907 0.93952 0.0
C226 C 0.19764 0.46768 1.01858 0.0
C227 C 0.15343 0.4326 1.03101 0.0
C228 C 0.13369 0.39446 0.99195 0.0
C229 C 0.20088 0.42681 0.92697 0.0
C230 C 0.22058 0.46456 0.96582 0.0
C231 C 0.13506 0.352 0.89721 0.0
H232 H 0.74296 0.35748 0.67844 0.0
H233 H 0.80897 0.42447 0.71542 0.0
H234 H 0.92009 0.3847 0.58304 0.0
H235 H 0.85482 0.31841 0.54685 0.0
H236 H 0.13519 0.43336 0.07135 0.0
H237 H 0.09987 0.36768 1.00285 0.0
H238 H 0.21995 0.42602 0.88701 0.0
H239 H 0.25471 0.49084 0.95466 0.0
Dy240 Dy 0.87592 0.73638 0.98003 0.0
Dy241 Dy 0.91225 0.8288 0.06048 0.0
C242 C 0.9702 0.71419 0.0654 0.0
O243 O 0.84163 0.71167 0.05887 0.0
O244 O 0.82633 0.80077 0.08564 0.0
O245 O 0.85177 0.64917 0.97622 0.0
O246 O 0.85038 0.6997 0.90328 0.0
O247 O 0.89179 0.88157 0.99299 0.0
O248 O 0.82375 0.82074 0.97352 0.0
O249 O 0.96623 0.83385 0.97989 0.0
O250 O 0.92266 0.77677 0.91802 0.0
O251 O 0.89449 0.90815 0.09816 0.0
O252 O 0.96339 0.8578 0.12707 0.0
C253 C 0.81497 0.74689 0.08931 0.0
O254 O 0.96099 0.71288 1.01241 0.0
O255 O 0.942 0.74919 0.095 0.0
C256 C 0.89166 0.60804 0.89798 0.0
C257 C 0.9729 0.53257 0.85711 0.0
C258 C 0.93562 0.51496 0.89722 0.0
C259 C 0.89532 0.5523 0.9173 0.0
C260 C 0.92979 0.62579 0.85872 0.0
C261 C 0.96966 0.58853 0.83848 0.0
C262 C 0.85235 0.64878 0.92319 0.0
C263 C 0.84398 0.87338 0.97384 0.0
C264 C 0.95805 0.81465 0.92843 0.0
C265 C 0.90906 0.91069 0.19161 0.0
C266 C 0.84387 0.94782 0.28065 0.0
C267 C 0.83734 0.89335 0.25957 0.0
C268 C 0.86941 0.87511 0.21475 0.0
C269 C 0.91821 0.96292 0.21556 0.0
C270 C 0.88582 0.98139 0.25901 0.0
C271 C 0.93102 0.90123 0.13614 0.0
H272 H 0.93645 0.47195 0.9118 0.0
H273 H 0.86708 0.53767 0.9482 0.0
H274 H 0.92915 0.66863 0.84364 0.0
H275 H 0.99761 0.6034 0.80741 0.0
H276 H 0.80516 0.86674 0.27494 0.0
H277 H 0.86089 0.8349 0.19604 0.0
H278 H 0.94756 0.9915 0.19789 0.0
H279 H 0.89182 1.02375 0.2735 0.0
Dy280 Dy 0.46854 0.68506 0.31087 0.0
Dy281 Dy 0.5532 0.63587 0.22965 0.0
C282 C 0.53918 0.56955 0.329 0.0
O283 O 0.51751 0.75883 0.29177 0.0
O284 O 0.58817 0.69854 0.2913 0.0
O285 O 0.3914 0.70721 0.34941 0.0
O286 O 0.46676 0.71332 0.39499 0.0
O287 O 0.52426 0.69983 0.17444 0.0
O288 O 0.44591 0.71815 0.22375 0.0
O289 O 0.46801 0.59891 0.20718 0.0
O290 O 0.41439 0.62071 0.282 0.0
O291 O 0.59322 0.61974 0.15229 0.0
O292 O 0.63658 0.60403 0.22801 0.0
C293 C 0.5691 0.7499 0.30018 0.0
O294 O 0.52912 0.62076 0.34761 0.0
O295 O 0.53337 0.56122 0.27722 0.0
C296 C 0.39257 0.66918 0.43997 0.0
C297 C 0.35599 0.58964 0.51859 0.0
C298 C 0.39597 0.62919 0.53222 0.0
C299 C 0.41396 0.6686 0.49334 0.0
C300 C 0.35374 0.62848 0.42622 0.0
C301 C 0.3357 0.58953 0.46491 0.0
C302 C 0.41365 0.70902 0.39785 0.0
C303 C 0.47464 0.71837 0.1768 0.0
C304 C 0.41998 0.59852 0.23422 0.0
C305 C 0.68509 0.65154 0.15838 0.0
C306 C 0.77097 0.72222 0.12314 0.0
C307 C 0.71634 0.74037 0.11862 0.0
C308 C 0.67371 0.70539 0.13633 0.0
C309 C 0.73973 0.63521 0.16577 0.0
C310 C 0.78204 0.67003 0.1484 0.0
C311 C 0.64084 0.61288 0.17556 0.0
H312 H 0.41189 0.63102 0.57334 0.0
H313 H 0.44447 0.69887 0.50507 0.0
H314 H 0.33692 0.6266 0.38546 0.0
H315 H 0.30476 0.55978 0.45294 0.0
H316 H 0.70646 0.77959 0.09818 0.0
H317 H 0.63186 0.71975 0.13114 0.0
H318 H 0.74978 0.59465 0.18355 0.0
H319 H 0.82378 0.65456 0.15182 0.0
Dy320 Dy 0.32336 0.49252 0.12844 0.0
Dy321 Dy 0.2372 0.57454 0.17283 0.0
C322 C 0.25433 0.47489 0.24032 0.0
O323 O 0.27673 0.51101 0.05471 0.0
O324 O 0.20436 0.51093 0.11023 0.0
O325 O 0.3281 0.40499 0.10369 0.0
O326 O 0.4016 0.45476 0.10741 0.0
O327 O 0.26488 0.63325 0.11233 0.0
O328 O 0.34376 0.5825 0.09512 0.0
O329 O 0.32183 0.60043 0.20898 0.0
O330 O 0.37671 0.52321 0.19108 0.0
O331 O 0.19404 0.65282 0.18831 0.0
O332 O 0.15429 0.57327 0.20395 0.0
C333 C 0.22507 0.50227 0.06105 0.0
O334 O 0.2632 0.45464 0.19086 0.0
O335 O 0.25966 0.52846 0.24658 0.0
C336 C 0.40504 0.36289 0.14724 0.0
C337 C 0.44693 0.28615 0.22636 0.0
C338 C 0.40606 0.2695 0.18974 0.0
C339 C 0.38544 0.30747 0.15053 0.0
C340 C 0.44474 0.37972 0.18507 0.0
C341 C 0.46538 0.34193 0.22384 0.0
C342 C 0.38138 0.40406 0.10745 0.0
C343 C 0.31425 0.63076 0.094 0.0
C344 C 0.37035 0.57308 0.21093 0.0
C345 C 0.10175 0.64435 0.16059 0.0
C346 C 1.01385 0.68197 0.0943 0.0
C347 C 0.06534 0.67076 0.0709 0.0
C348 C 0.10901 0.65196 0.10386 0.0
C349 C 0.04971 0.65255 0.18309 0.0
C350 C 1.00637 0.67101 0.15043 0.0
C351 C 0.14772 0.62735 0.19648 0.0
H352 H 0.39156 0.22665 0.18996 0.0
H353 H 0.35436 0.29338 0.12249 0.0
H354 H 0.4603 0.42216 0.18476 0.0
H355 H 0.49699 0.35616 0.25126 0.0
H356 H 0.07259 0.67929 1.02809 0.0
H357 H 0.14878 0.64482 0.08535 0.0
H358 H 0.04282 0.64603 0.22632 0.0
H359 H 0.96711 0.67893 0.16981 0.0
Dy360 Dy 0.73347 0.97703 0.88054 0.0
Dy361 Dy 0.81678 0.06426 0.92055 0.0
C362 C 0.72009 0.05156 0.99089 0.0
O363 O 0.75222 1.02491 0.80722 0.0
O364 O 0.75302 0.10078 0.86053 0.0
O365 O 0.649 0.97731 0.85431 0.0
O366 O 0.69422 0.89854 0.86114 0.0
O367 O 0.86723 0.03526 0.85372 0.0
O368 O 0.8199 0.95291 0.8443 0.0
O369 O 0.8418 0.97432 0.95144 0.0
O370 O 0.76378 0.922 0.94414 0.0
O371 O 0.89472 0.09997 0.94153 0.0
O372 O 0.82134 0.15204 0.944 0.0
C373 C 0.7418 0.07803 0.81278 0.0
O374 O 0.69843 0.04086 0.94282 0.0
O375 O 0.77238 0.04499 0.99551 0.0
C376 C 0.60328 0.902 0.89737 0.0
C377 C 0.52326 0.86529 0.97337 0.0
C378 C 0.50974 0.90567 0.93357 0.0
C379 C 0.54939 0.92374 0.89585 0.0
C380 C 0.61692 0.8631 0.9385 0.0
C381 C 0.5775 0.84496 0.97573 0.0
C382 C 0.64586 0.92271 0.85885 0.0
C383 C 0.86579 0.98325 0.83884 0.0
C384 C 0.81464 0.92568 0.95722 0.0
C385 C 0.90056 0.1926 0.90412 0.0
C386 C 0.94847 0.2705 0.83054 0.0
C387 C 0.9028 0.28621 0.86239 0.0
C388 C 0.87924 0.24772 0.89891 0.0
C389 C 0.94539 0.17672 0.87114 0.0
C390 C 0.96895 0.21507 0.83501 0.0
C391 C 0.87475 0.15128 0.94187 0.0
H392 H 0.46817 0.9215 0.93013 0.0
H393 H 0.53782 0.9544 0.86515 0.0
H394 H 0.65809 0.84614 0.94189 0.0
H395 H 0.58927 0.81367 1.0058 0.0
H396 H 0.88635 0.32869 0.86043 0.0
H397 H 0.84451 0.2612 0.9234 0.0
H398 H 0.96272 0.13461 0.87328 0.0
H399 H 1.00409 0.20143 0.81115 0.0
Dy400 Dy 0.73023 0.99239 0.42821 0.0
Dy401 Dy 0.81659 0.0762 0.38536 0.0
C402 C 0.80438 0.97448 0.31947 0.0
O403 O 0.77857 1.00872 0.50114 0.0
O404 O 0.85116 1.01031 0.44555 0.0
O405 O 0.72273 0.90547 0.45346 0.0
O406 O 0.65082 0.95956 0.44919 0.0
O407 O 0.79 0.12821 0.45246 0.0
O408 O 0.70785 0.08329 0.45948 0.0
O409 O 0.73053 0.10248 0.35053 0.0
O410 O 0.68259 1.02058 0.35952 0.0
O411 O 0.85534 0.15461 0.36402 0.0
O412 O 0.9015 0.07622 0.36045 0.0
C413 C 0.83045 0.99979 0.49428 0.0
O414 O 0.79249 0.9529 0.36768 0.0
O415 O 0.79606 1.02785 0.31314 0.0
C416 C 0.64387 0.86694 0.4118 0.0
C417 C 0.59834 0.791 0.33509 0.0
C418 C 0.64346 0.77473 0.36709 0.0
C419 C 0.66583 0.81221 0.40512 0.0
C420 C 0.59936 0.88332 0.37897 0.0
C421 C 0.57697 0.84594 0.34129 0.0
C422 C 0.66942 0.9077 0.45015 0.0
C423 C 0.73888 0.12924 0.46526 0.0
C424 C 0.68462 0.07245 0.34445 0.0
C425 C 0.94618 0.15367 0.40008 0.0
C426 C 0.02575 0.19346 0.47435 0.0
C427 C 0.97141 0.21365 0.47632 0.0
C428 C 0.93217 0.19394 0.43994 0.0
C429 C 1.00023 0.13235 0.39884 0.0
C430 C 0.03962 0.1519 0.43572 0.0
C431 C 0.90399 0.13098 0.36261 0.0
H432 H 0.66054 0.73258 0.36389 0.0
H433 H 0.70035 0.79832 0.42942 0.0
H434 H 0.58156 0.92516 0.38224 0.0
H435 H 0.54218 0.85998 0.31743 0.0
H436 H 0.95938 0.24581 0.5055 0.0
H437 H 0.89085 0.21064 0.44304 0.0
H438 H 1.01209 0.10074 0.36907 0.0
H439 H 0.08126 0.13612 0.43259 0.0
Dy440 Dy 0.23009 0.56577 0.62734 0.0
Dy441 Dy 0.31465 0.48254 0.67248 0.0
C442 C 0.2977 0.58273 0.73968 0.0
O443 O 0.27733 0.54524 0.55415 0.0
O444 O 0.34881 0.5459 0.61004 0.0
O445 O 0.22744 0.65329 0.60233 0.0
O446 O 0.153 0.60483 0.60506 0.0
O447 O 0.28588 0.42368 0.61259 0.0
O448 O 0.20851 0.47634 0.59409 0.0
O449 O 0.22922 0.4583 0.70866 0.0
O450 O 0.17552 0.53608 0.68978 0.0
O451 O 0.35728 0.4038 0.68714 0.0
O452 O 0.39655 0.4828 0.70561 0.0
C453 C 0.32885 0.55416 0.56067 0.0
O454 O 0.28969 0.60301 0.69016 0.0
O455 O 0.29172 0.52922 0.74599 0.0
C456 C 0.15068 0.69619 0.64563 0.0
C457 C 0.10969 0.77269 0.72557 0.0
C458 C 0.14671 0.79075 0.68534 0.0
C459 C 0.16694 0.75284 0.64571 0.0
C460 C 0.1151 0.67804 0.68712 0.0
C461 C 0.09482 0.71574 0.72626 0.0
C462 C 0.17411 0.65514 0.60554 0.0
C463 C 0.23695 0.42743 0.59346 0.0
C464 C 0.18102 0.48635 0.71013 0.0
C465 C 0.45108 0.41196 0.66376 0.0
C466 C 0.54281 0.37635 0.60075 0.0
C467 C 0.4928 0.38908 0.57522 0.0
C468 C 0.44728 0.40685 0.60652 0.0
C469 C 0.50148 0.4016 0.68872 0.0
C470 C 0.5467 0.38414 0.6577 0.0
C471 C 0.40327 0.4288 0.69771 0.0
H472 H 0.15823 0.83454 0.68307 0.0
H473 H 0.19501 0.76787 0.61485 0.0
H474 H 0.10244 0.63461 0.68936 0.0
H475 H 0.06615 0.70048 0.75649 0.0
H476 H 0.48826 0.38325 0.53166 0.0
H477 H 0.40884 0.41554 0.58619 0.0
H478 H 0.50569 0.40605 0.7325 0.0
H479 H 0.58463 0.37507 0.67883 0.0
loop_
_geom_bond_atom_site_label_1
_geom_bond_atom_site_label_2
_geom_bond_distance
_geom_bond_site_symmetry_2
_ccdc_geom_bond_type
Dy0 O3 2.307 . S
Dy0 O5 2.395 . S
Dy0 O6 2.379 . S
Dy0 O8 2.339 . S
Dy0 O10 2.298 . S
Dy0 O14 2.275 . S
Dy0 C22 2.738 . S
Dy1 O4 2.298 . S
Dy1 O7 2.275 . S
Dy1 O9 2.307 . S
Dy1 O11 2.395 . S
Dy1 O12 2.379 . S
Dy1 O15 2.339 . S
Dy1 C31 2.738 . S
C2 O14 1.254 . S
C2 O15 1.257 . S
O3 Dy0 2.307 . S
O3 C13 1.266 . S
O4 Dy1 2.298 . S
O4 C13 1.236 . S
O5 Dy0 2.395 . S
O5 C22 1.255 . S
O6 Dy0 2.379 . S
O6 C22 1.249 . S
O7 Dy1 2.275 . S
O7 C23 1.254 . S
O8 Dy0 2.339 . S
O8 C23 1.257 . S
O9 Dy1 2.307 . S
O9 C24 1.266 . S
O10 Dy0 2.298 . S
O10 C24 1.236 . S
O11 Dy1 2.395 . S
O11 C31 1.255 . S
O12 Dy1 2.379 . S
O12 C31 1.249 . S
C13 O3 1.266 . S
C13 O4 1.236 . S
O14 Dy0 2.275 . S
O14 C2 1.254 . S
O15 Dy1 2.339 . S
O15 C2 1.257 . S
C16 C19 1.344 . S
C16 C20 1.328 . S
C16 C22 1.516 . S
C17 C18 1.304 . S
C17 C21 1.323 . S
C18 C17 1.304 . S
C18 C19 1.371 . S
C18 H32 0.930 . S
C19 C16 1.344 . S
C19 C18 1.371 . S
C19 H33 0.931 . S
C20 C16 1.328 . S
C20 C21 1.433 . S
C20 H34 0.931 . S
C21 C17 1.323 . S
C21 C20 1.433 . S
C21 H35 0.933 . S
C22 Dy0 2.738 . S
C22 O5 1.255 . S
C22 O6 1.249 . S
C22 C16 1.516 . S
C23 O7 1.254 . S
C23 O8 1.257 . S
C24 O9 1.266 . S
C24 O10 1.236 . S
C25 C28 1.344 . S
C25 C29 1.328 . S
C25 C31 1.516 . S
C26 C27 1.304 . S
C26 C30 1.323 . S
C27 C26 1.304 . S
C27 C28 1.371 . S
C27 H36 0.930 1_455 S
C28 C25 1.344 . S
C28 C27 1.371 . S
C28 H37 0.931 . S
C29 C25 1.328 . S
C29 C30 1.433 . S
C29 H38 0.931 . S
C30 C26 1.323 . S
C30 C29 1.433 . S
C30 H39 0.933 1_545 S
C31 Dy1 2.738 . S
C31 O11 1.255 . S
C31 O12 1.249 . S
C31 C25 1.516 . S
H32 C18 0.930 . S
H33 C19 0.931 . S
H34 C20 0.931 . S
H35 C21 0.933 . S
H36 C27 0.930 1_655 S
H37 C28 0.931 . S
H38 C29 0.931 . S
H39 C30 0.933 1_565 S
Dy40 O43 2.307 . S
Dy40 O45 2.395 . S
Dy40 O46 2.379 . S
Dy40 O48 2.339 1_455 S
Dy40 O50 2.298 . S
Dy40 O54 2.275 . S
Dy40 C62 2.738 . S
Dy41 O44 2.298 . S
Dy41 O47 2.275 . S
Dy41 O49 2.307 . S
Dy41 O51 2.395 . S
Dy41 O52 2.379 . S
Dy41 O55 2.339 1_655 S
Dy41 C71 2.738 . S
C42 O54 1.254 . S
C42 O55 1.257 . S
O43 Dy40 2.307 . S
O43 C53 1.266 . S
O44 Dy41 2.298 . S
O44 C53 1.236 1_655 S
O45 Dy40 2.395 . S
O45 C62 1.255 . S
O46 Dy40 2.379 . S
O46 C62 1.249 . S
O47 Dy41 2.275 . S
O47 C63 1.254 . S
O48 Dy40 2.339 1_655 S
O48 C63 1.257 . S
O49 Dy41 2.307 . S
O49 C64 1.266 . S
O50 Dy40 2.298 . S
O50 C64 1.236 1_455 S
O51 Dy41 2.395 . S
O51 C71 1.255 . S
O52 Dy41 2.379 . S
O52 C71 1.249 . S
C53 O43 1.266 . S
C53 O44 1.236 1_455 S
O54 Dy40 2.275 . S
O54 C42 1.254 . S
O55 Dy41 2.339 1_455 S
O55 C42 1.257 . S
C56 C59 1.344 . S
C56 C60 1.328 . S
C56 C62 1.516 . S
C57 C58 1.304 1_554 S
C57 C61 1.323 . S
C58 C57 1.304 1_556 S
C58 C59 1.371 . S
C58 H72 0.930 . S
C59 C56 1.344 . S
C59 C58 1.371 . S
C59 H73 0.931 . S
C60 C56 1.328 . S
C60 C61 1.433 1_556 S
C60 H74 0.931 . S
C61 C57 1.323 . S
C61 C60 1.433 1_554 S
C61 H75 0.933 . S
C62 Dy40 2.738 . S
C62 O45 1.255 . S
C62 O46 1.249 . S
C62 C56 1.516 . S
C63 O47 1.254 . S
C63 O48 1.257 . S
C64 O49 1.266 . S
C64 O50 1.236 1_655 S
C65 C68 1.344 . S
C65 C69 1.328 . S
C65 C71 1.516 . S
C66 C67 1.304 . S
C66 C70 1.323 . S
C67 C66 1.304 . S
C67 C68 1.371 . S
C67 H76 0.930 1_565 S
C68 C65 1.344 . S
C68 C67 1.371 . S
C68 H77 0.931 . S
C69 C65 1.328 . S
C69 C70 1.433 . S
C69 H78 0.931 . S
C70 C66 1.323 . S
C70 C69 1.433 . S
C70 H79 0.933 . S
C71 Dy41 2.738 . S
C71 O51 1.255 . S
C71 O52 1.249 . S
C71 C65 1.516 . S
H72 C58 0.930 . S
H73 C59 0.931 . S
H74 C60 0.931 . S
H75 C61 0.933 . S
H76 C67 0.930 1_545 S
H77 C68 0.931 . S
H78 C69 0.931 . S
H79 C70 0.933 . S
Dy80 O83 2.307 . S
Dy80 O85 2.395 . S
Dy80 O86 2.379 . S
Dy80 O88 2.339 1_556 S
Dy80 O90 2.298 . S
Dy80 O94 2.275 . S
Dy80 C102 2.738 . S
Dy81 O84 2.298 . S
Dy81 O87 2.275 . S
Dy81 O89 2.307 . S
Dy81 O91 2.395 . S
Dy81 O92 2.379 . S
Dy81 O95 2.339 1_554 S
Dy81 C111 2.738 . S
C82 O94 1.254 . S
C82 O95 1.257 . S
O83 Dy80 2.307 . S
O83 C93 1.266 . S
O84 Dy81 2.298 . S
O84 C93 1.236 1_554 S
O85 Dy80 2.395 . S
O85 C102 1.255 . S
O86 Dy80 2.379 . S
O86 C102 1.249 . S
O87 Dy81 2.275 . S
O87 C103 1.254 . S
O88 Dy80 2.339 1_554 S
O88 C103 1.257 . S
O89 Dy81 2.307 . S
O89 C104 1.266 . S
O90 Dy80 2.298 . S
O90 C104 1.236 1_556 S
O91 Dy81 2.395 . S
O91 C111 1.255 . S
O92 Dy81 2.379 . S
O92 C111 1.249 . S
C93 O83 1.266 . S
C93 O84 1.236 1_556 S
O94 Dy80 2.275 . S
O94 C82 1.254 . S
O95 Dy81 2.339 1_556 S
O95 C82 1.257 . S
C96 C99 1.344 . S
C96 C100 1.328 . S
C96 C102 1.516 . S
C97 C98 1.304 . S
C97 C101 1.323 . S
C98 C97 1.304 . S
C98 C99 1.371 . S
C98 H112 0.930 . S
C99 C96 1.344 . S
C99 C98 1.371 . S
C99 H113 0.931 . S
C100 C96 1.328 . S
C100 C101 1.433 . S
C100 H114 0.931 . S
C101 C97 1.323 . S
C101 C100 1.433 . S
C101 H115 0.933 . S
C102 Dy80 2.738 . S
C102 O85 1.255 . S
C102 O86 1.249 . S
C102 C96 1.516 . S
C103 O87 1.254 . S
C103 O88 1.257 . S
C104 O89 1.266 . S
C104 O90 1.236 1_554 S
C105 C108 1.344 . S
C105 C109 1.328 . S
C105 C111 1.516 . S
C106 C107 1.304 . S
C106 C110 1.323 . S
C107 C106 1.304 . S
C107 C108 1.371 . S
C107 H116 0.930 . S
C108 C105 1.344 . S
C108 C107 1.371 . S
C108 H117 0.931 . S
C109 C105 1.328 . S
C109 C110 1.433 . S
C109 H118 0.931 . S
C110 C106 1.323 . S
C110 C109 1.433 . S
C110 H119 0.933 . S
C111 Dy81 2.738 . S
C111 O91 1.255 . S
C111 O92 1.249 . S
C111 C105 1.516 . S
H112 C98 0.930 . S
H113 C99 0.931 . S
H114 C100 0.931 . S
H115 C101 0.933 . S
H116 C107 0.930 . S
H117 C108 0.931 . S
H118 C109 0.931 . S
H119 C110 0.933 . S
Dy120 O123 2.307 . S
Dy120 O125 2.395 . S
Dy120 O126 2.379 . S
Dy120 O128 2.339 . S
Dy120 O130 2.298 . S
Dy120 O134 2.275 . S
Dy120 C142 2.738 . S
Dy121 O124 2.298 . S
Dy121 O127 2.275 . S
Dy121 O129 2.307 . S
Dy121 O131 2.395 . S
Dy121 O132 2.379 . S
Dy121 O135 2.339 . S
Dy121 C151 2.738 . S
C122 O134 1.254 . S
C122 O135 1.257 . S
O123 Dy120 2.307 . S
O123 C133 1.266 . S
O124 Dy121 2.298 . S
O124 C133 1.236 . S
O125 Dy120 2.395 . S
O125 C142 1.255 . S
O126 Dy120 2.379 . S
O126 C142 1.249 . S
O127 Dy121 2.275 . S
O127 C143 1.254 . S
O128 Dy120 2.339 . S
O128 C143 1.257 . S
O129 Dy121 2.307 . S
O129 C144 1.266 . S
O130 Dy120 2.298 . S
O130 C144 1.236 . S
O131 Dy121 2.395 . S
O131 C151 1.255 . S
O132 Dy121 2.379 . S
O132 C151 1.249 . S
C133 O123 1.266 . S
C133 O124 1.236 . S
O134 Dy120 2.275 . S
O134 C122 1.254 . S
O135 Dy121 2.339 . S
O135 C122 1.257 . S
C136 C139 1.344 . S
C136 C140 1.328 . S
C136 C142 1.516 . S
C137 C138 1.304 . S
C137 C141 1.323 . S
C138 C137 1.304 . S
C138 C139 1.371 . S
C138 H152 0.930 . S
C139 C136 1.344 . S
C139 C138 1.371 . S
C139 H153 0.931 . S
C140 C136 1.328 . S
C140 C141 1.433 . S
C140 H154 0.931 . S
C141 C137 1.323 . S
C141 C140 1.433 . S
C141 H155 0.933 . S
C142 Dy120 2.738 . S
C142 O125 1.255 . S
C142 O126 1.249 . S
C142 C136 1.516 . S
C143 O127 1.254 . S
C143 O128 1.257 . S
C144 O129 1.266 . S
C144 O130 1.236 . S
C145 C148 1.344 . S
C145 C149 1.328 . S
C145 C151 1.516 . S
C146 C147 1.304 . S
C146 C150 1.323 . S
C147 C146 1.304 . S
C147 C148 1.371 . S
C147 H156 0.930 1_545 S
C148 C145 1.344 . S
C148 C147 1.371 . S
C148 H157 0.931 . S
C149 C145 1.328 . S
C149 C150 1.433 . S
C149 H158 0.931 . S
C150 C146 1.323 . S
C150 C149 1.433 . S
C150 H159 0.933 1_554 S
C151 Dy121 2.738 . S
C151 O131 1.255 . S
C151 O132 1.249 . S
C151 C145 1.516 . S
H152 C138 0.930 . S
H153 C139 0.931 . S
H154 C140 0.931 . S
H155 C141 0.933 . S
H156 C147 0.930 1_565 S
H157 C148 0.931 . S
H158 C149 0.931 . S
H159 C150 0.933 1_556 S
Dy160 O163 2.307 . S
Dy160 O165 2.395 . S
Dy160 O166 2.379 . S
Dy160 O168 2.339 . S
Dy160 O170 2.298 . S
Dy160 O174 2.275 . S
Dy160 C182 2.738 . S
Dy161 O164 2.298 . S
Dy161 O167 2.275 . S
Dy161 O169 2.307 . S
Dy161 O171 2.395 . S
Dy161 O172 2.379 . S
Dy161 O175 2.339 . S
Dy161 C191 2.738 . S
C162 O174 1.254 . S
C162 O175 1.257 . S
O163 Dy160 2.307 . S
O163 C173 1.266 . S
O164 Dy161 2.298 . S
O164 C173 1.236 . S
O165 Dy160 2.395 . S
O165 C182 1.255 . S
O166 Dy160 2.379 . S
O166 C182 1.249 . S
O167 Dy161 2.275 . S
O167 C183 1.254 . S
O168 Dy160 2.339 . S
O168 C183 1.257 . S
O169 Dy161 2.307 . S
O169 C184 1.266 . S
O170 Dy160 2.298 . S
O170 C184 1.236 . S
O171 Dy161 2.395 . S
O171 C191 1.255 . S
O172 Dy161 2.379 . S
O172 C191 1.249 . S
C173 O163 1.266 . S
C173 O164 1.236 . S
O174 Dy160 2.275 . S
O174 C162 1.254 . S
O175 Dy161 2.339 . S
O175 C162 1.257 . S
C176 C179 1.344 . S
C176 C180 1.328 . S
C176 C182 1.516 . S
C177 C178 1.304 . S
C177 C181 1.323 . S
C178 C177 1.304 . S
C178 C179 1.371 . S
C178 H192 0.930 . S
C179 C176 1.344 . S
C179 C178 1.371 . S
C179 H193 0.931 . S
C180 C176 1.328 . S
C180 C181 1.433 . S
C180 H194 0.931 . S
C181 C177 1.323 . S
C181 C180 1.433 . S
C181 H195 0.933 . S
C182 Dy160 2.738 . S
C182 O165 1.255 . S
C182 O166 1.249 . S
C182 C176 1.516 . S
C183 O167 1.254 . S
C183 O168 1.257 . S
C184 O169 1.266 . S
C184 O170 1.236 . S
C185 C188 1.344 . S
C185 C189 1.328 . S
C185 C191 1.516 . S
C186 C187 1.304 . S
C186 C190 1.323 . S
C187 C186 1.304 . S
C187 C188 1.371 . S
C187 H196 0.930 . S
C188 C185 1.344 . S
C188 C187 1.371 . S
C188 H197 0.931 . S
C189 C185 1.328 . S
C189 C190 1.433 . S
C189 H198 0.931 . S
C190 C186 1.323 . S
C190 C189 1.433 . S
C190 H199 0.933 . S
C191 Dy161 2.738 . S
C191 O171 1.255 . S
C191 O172 1.249 . S
C191 C185 1.516 . S
H192 C178 0.930 . S
H193 C179 0.931 . S
H194 C180 0.931 . S
H195 C181 0.933 . S
H196 C187 0.930 . S
H197 C188 0.931 . S
H198 C189 0.931 . S
H199 C190 0.933 . S
Dy200 O203 2.307 . S
Dy200 O205 2.395 . S
Dy200 O206 2.379 . S
Dy200 O208 2.339 1_655 S
Dy200 O210 2.298 . S
Dy200 O214 2.275 . S
Dy200 C222 2.738 . S
Dy201 O204 2.298 . S
Dy201 O207 2.275 . S
Dy201 O209 2.307 . S
Dy201 O211 2.395 . S
Dy201 O212 2.379 . S
Dy201 O215 2.339 1_455 S
Dy201 C231 2.738 . S
C202 O214 1.254 . S
C202 O215 1.257 . S
O203 Dy200 2.307 . S
O203 C213 1.266 . S
O204 Dy201 2.298 . S
O204 C213 1.236 1_455 S
O205 Dy200 2.395 . S
O205 C222 1.255 . S
O206 Dy200 2.379 . S
O206 C222 1.249 . S
O207 Dy201 2.275 . S
O207 C223 1.254 . S
O208 Dy200 2.339 1_455 S
O208 C223 1.257 . S
O209 Dy201 2.307 . S
O209 C224 1.266 . S
O210 Dy200 2.298 . S
O210 C224 1.236 1_655 S
O211 Dy201 2.395 . S
O211 C231 1.255 . S
O212 Dy201 2.379 . S
O212 C231 1.249 . S
C213 O203 1.266 . S
C213 O204 1.236 1_655 S
O214 Dy200 2.275 . S
O214 C202 1.254 . S
O215 Dy201 2.339 1_655 S
O215 C202 1.257 . S
C216 C219 1.344 . S
C216 C220 1.328 . S
C216 C222 1.516 . S
C217 C218 1.304 . S
C217 C221 1.323 . S
C218 C217 1.304 . S
C218 C219 1.371 . S
C218 H232 0.930 . S
C219 C216 1.344 . S
C219 C218 1.371 . S
C219 H233 0.931 . S
C220 C216 1.328 . S
C220 C221 1.433 . S
C220 H234 0.931 . S
C221 C217 1.323 . S
C221 C220 1.433 . S
C221 H235 0.933 . S
C222 Dy200 2.738 . S
C222 O205 1.255 . S
C222 O206 1.249 . S
C222 C216 1.516 . S
C223 O207 1.254 . S
C223 O208 1.257 . S
C224 O209 1.266 . S
C224 O210 1.236 1_455 S
C225 C228 1.344 . S
C225 C229 1.328 . S
C225 C231 1.516 . S
C226 C227 1.304 . S
C226 C230 1.323 . S
C227 C226 1.304 . S
C227 C228 1.371 . S
C227 H236 0.930 . S
C228 C225 1.344 . S
C228 C227 1.371 . S
C228 H237 0.931 . S
C229 C225 1.328 . S
C229 C230 1.433 . S
C229 H238 0.931 . S
C230 C226 1.323 . S
C230 C229 1.433 . S
C230 H239 0.933 . S
C231 Dy201 2.738 . S
C231 O211 1.255 . S
C231 O212 1.249 . S
C231 C225 1.516 . S
H232 C218 0.930 . S
H233 C219 0.931 . S
H234 C220 0.931 . S
H235 C221 0.933 . S
H236 C227 0.930 . S
H237 C228 0.931 . S
H238 C229 0.931 . S
H239 C230 0.933 . S
Dy240 O243 2.307 1_556 S
Dy240 O245 2.395 . S
Dy240 O246 2.379 . S
Dy240 O248 2.339 . S
Dy240 O250 2.298 . S
Dy240 O254 2.275 1_556 S
Dy240 C262 2.738 . S
Dy241 O244 2.298 . S
Dy241 O247 2.275 1_554 S
Dy241 O249 2.307 1_554 S
Dy241 O251 2.395 . S
Dy241 O252 2.379 . S
Dy241 O255 2.339 . S
Dy241 C271 2.738 . S
C242 O254 1.254 . S
C242 O255 1.257 . S
O243 Dy240 2.307 1_554 S
O243 C253 1.266 . S
O244 Dy241 2.298 . S
O244 C253 1.236 . S
O245 Dy240 2.395 . S
O245 C262 1.255 . S
O246 Dy240 2.379 . S
O246 C262 1.249 . S
O247 Dy241 2.275 1_556 S
O247 C263 1.254 . S
O248 Dy240 2.339 . S
O248 C263 1.257 . S
O249 Dy241 2.307 1_556 S
O249 C264 1.266 . S
O250 Dy240 2.298 . S
O250 C264 1.236 . S
O251 Dy241 2.395 . S
O251 C271 1.255 . S
O252 Dy241 2.379 . S
O252 C271 1.249 . S
C253 O243 1.266 . S
C253 O244 1.236 . S
O254 Dy240 2.275 1_554 S
O254 C242 1.254 . S
O255 Dy241 2.339 . S
O255 C242 1.257 . S
C256 C259 1.344 . S
C256 C260 1.328 . S
C256 C262 1.516 . S
C257 C258 1.304 . S
C257 C261 1.323 . S
C258 C257 1.304 . S
C258 C259 1.371 . S
C258 H272 0.930 1_655 S
C259 C256 1.344 . S
C259 C258 1.371 . S
C259 H273 0.931 1_655 S
C260 C256 1.328 . S
C260 C261 1.433 . S
C260 H274 0.931 . S
C261 C257 1.323 . S
C261 C260 1.433 . S
C261 H275 0.933 . S
C262 Dy240 2.738 . S
C262 O245 1.255 . S
C262 O246 1.249 . S
C262 C256 1.516 . S
C263 O247 1.254 . S
C263 O248 1.257 . S
C264 O249 1.266 . S
C264 O250 1.236 . S
C265 C268 1.344 . S
C265 C269 1.328 . S
C265 C271 1.516 . S
C266 C267 1.304 . S
C266 C270 1.323 . S
C267 C266 1.304 . S
C267 C268 1.371 . S
C267 H276 0.930 . S
C268 C265 1.344 . S
C268 C267 1.371 . S
C268 H277 0.931 . S
C269 C265 1.328 . S
C269 C270 1.433 . S
C269 H278 0.931 . S
C270 C266 1.323 . S
C270 C269 1.433 . S
C270 H279 0.933 . S
C271 Dy241 2.738 . S
C271 O251 1.255 . S
C271 O252 1.249 . S
C271 C265 1.516 . S
H272 C258 0.930 1_455 S
H273 C259 0.931 1_455 S
H274 C260 0.931 . S
H275 C261 0.933 . S
H276 C267 0.930 . S
H277 C268 0.931 . S
H278 C269 0.931 . S
H279 C270 0.933 . S
Dy280 O283 2.307 . S
Dy280 O285 2.395 . S
Dy280 O286 2.379 . S
Dy280 O288 2.339 . S
Dy280 O290 2.298 . S
Dy280 O294 2.275 . S
Dy280 C302 2.738 . S
Dy281 O284 2.298 . S
Dy281 O287 2.275 . S
Dy281 O289 2.307 . S
Dy281 O291 2.395 . S
Dy281 O292 2.379 . S
Dy281 O295 2.339 . S
Dy281 C311 2.738 . S
C282 O294 1.254 . S
C282 O295 1.257 . S
O283 Dy280 2.307 . S
O283 C293 1.266 . S
O284 Dy281 2.298 . S
O284 C293 1.236 . S
O285 Dy280 2.395 . S
O285 C302 1.255 . S
O286 Dy280 2.379 . S
O286 C302 1.249 . S
O287 Dy281 2.275 . S
O287 C303 1.254 . S
O288 Dy280 2.339 . S
O288 C303 1.257 . S
O289 Dy281 2.307 . S
O289 C304 1.266 . S
O290 Dy280 2.298 . S
O290 C304 1.236 . S
O291 Dy281 2.395 . S
O291 C311 1.255 . S
O292 Dy281 2.379 . S
O292 C311 1.249 . S
C293 O283 1.266 . S
C293 O284 1.236 . S
O294 Dy280 2.275 . S
O294 C282 1.254 . S
O295 Dy281 2.339 . S
O295 C282 1.257 . S
C296 C299 1.344 . S
C296 C300 1.328 . S
C296 C302 1.516 . S
C297 C298 1.304 . S
C297 C301 1.323 . S
C298 C297 1.304 . S
C298 C299 1.371 . S
C298 H312 0.930 . S
C299 C296 1.344 . S
C299 C298 1.371 . S
C299 H313 0.931 . S
C300 C296 1.328 . S
C300 C301 1.433 . S
C300 H314 0.931 . S
C301 C297 1.323 . S
C301 C300 1.433 . S
C301 H315 0.933 . S
C302 Dy280 2.738 . S
C302 O285 1.255 . S
C302 O286 1.249 . S
C302 C296 1.516 . S
C303 O287 1.254 . S
C303 O288 1.257 . S
C304 O289 1.266 . S
C304 O290 1.236 . S
C305 C308 1.344 . S
C305 C309 1.328 . S
C305 C311 1.516 . S
C306 C307 1.304 . S
C306 C310 1.323 . S
C307 C306 1.304 . S
C307 C308 1.371 . S
C307 H316 0.930 . S
C308 C305 1.344 . S
C308 C307 1.371 . S
C308 H317 0.931 . S
C309 C305 1.328 . S
C309 C310 1.433 . S
C309 H318 0.931 . S
C310 C306 1.323 . S
C310 C309 1.433 . S
C310 H319 0.933 . S
C311 Dy281 2.738 . S
C311 O291 1.255 . S
C311 O292 1.249 . S
C311 C305 1.516 . S
H312 C298 0.930 . S
H313 C299 0.931 . S
H314 C300 0.931 . S
H315 C301 0.933 . S
H316 C307 0.930 . S
H317 C308 0.931 . S
H318 C309 0.931 . S
H319 C310 0.933 . S
Dy320 O323 2.307 . S
Dy320 O325 2.395 . S
Dy320 O326 2.379 . S
Dy320 O328 2.339 . S
Dy320 O330 2.298 . S
Dy320 O334 2.275 . S
Dy320 C342 2.738 . S
Dy321 O324 2.298 . S
Dy321 O327 2.275 . S
Dy321 O329 2.307 . S
Dy321 O331 2.395 . S
Dy321 O332 2.379 . S
Dy321 O335 2.339 . S
Dy321 C351 2.738 . S
C322 O334 1.254 . S
C322 O335 1.257 . S
O323 Dy320 2.307 . S
O323 C333 1.266 . S
O324 Dy321 2.298 . S
O324 C333 1.236 . S
O325 Dy320 2.395 . S
O325 C342 1.255 . S
O326 Dy320 2.379 . S
O326 C342 1.249 . S
O327 Dy321 2.275 . S
O327 C343 1.254 . S
O328 Dy320 2.339 . S
O328 C343 1.257 . S
O329 Dy321 2.307 . S
O329 C344 1.266 . S
O330 Dy320 2.298 . S
O330 C344 1.236 . S
O331 Dy321 2.395 . S
O331 C351 1.255 . S
O332 Dy321 2.379 . S
O332 C351 1.249 . S
C333 O323 1.266 . S
C333 O324 1.236 . S
O334 Dy320 2.275 . S
O334 C322 1.254 . S
O335 Dy321 2.339 . S
O335 C322 1.257 . S
C336 C339 1.344 . S
C336 C340 1.328 . S
C336 C342 1.516 . S
C337 C338 1.304 . S
C337 C341 1.323 . S
C338 C337 1.304 . S
C338 C339 1.371 . S
C338 H352 0.930 . S
C339 C336 1.344 . S
C339 C338 1.371 . S
C339 H353 0.931 . S
C340 C336 1.328 . S
C340 C341 1.433 . S
C340 H354 0.931 . S
C341 C337 1.323 . S
C341 C340 1.433 . S
C341 H355 0.933 . S
C342 Dy320 2.738 . S
C342 O325 1.255 . S
C342 O326 1.249 . S
C342 C336 1.516 . S
C343 O327 1.254 . S
C343 O328 1.257 . S
C344 O329 1.266 . S
C344 O330 1.236 . S
C345 C348 1.344 . S
C345 C349 1.328 . S
C345 C351 1.516 . S
C346 C347 1.304 . S
C346 C350 1.323 . S
C347 C346 1.304 . S
C347 C348 1.371 . S
C347 H356 0.930 1_554 S
C348 C345 1.344 . S
C348 C347 1.371 . S
C348 H357 0.931 . S
C349 C345 1.328 . S
C349 C350 1.433 . S
C349 H358 0.931 . S
C350 C346 1.323 . S
C350 C349 1.433 . S
C350 H359 0.933 1_455 S
C351 Dy321 2.738 . S
C351 O331 1.255 . S
C351 O332 1.249 . S
C351 C345 1.516 . S
H352 C338 0.930 . S
H353 C339 0.931 . S
H354 C340 0.931 . S
H355 C341 0.933 . S
H356 C347 0.930 1_556 S
H357 C348 0.931 . S
H358 C349 0.931 . S
H359 C350 0.933 1_655 S
Dy360 O363 2.307 1_565 S
Dy360 O365 2.395 . S
Dy360 O366 2.379 . S
Dy360 O368 2.339 . S
Dy360 O370 2.298 . S
Dy360 O374 2.275 1_565 S
Dy360 C382 2.738 . S
Dy361 O364 2.298 . S
Dy361 O367 2.275 1_545 S
Dy361 O369 2.307 1_545 S
Dy361 O371 2.395 . S
Dy361 O372 2.379 . S
Dy361 O375 2.339 . S
Dy361 C391 2.738 . S
C362 O374 1.254 . S
C362 O375 1.257 . S
O363 Dy360 2.307 1_545 S
O363 C373 1.266 . S
O364 Dy361 2.298 . S
O364 C373 1.236 . S
O365 Dy360 2.395 . S
O365 C382 1.255 . S
O366 Dy360 2.379 . S
O366 C382 1.249 . S
O367 Dy361 2.275 1_565 S
O367 C383 1.254 . S
O368 Dy360 2.339 . S
O368 C383 1.257 . S
O369 Dy361 2.307 1_565 S
O369 C384 1.266 . S
O370 Dy360 2.298 . S
O370 C384 1.236 . S
O371 Dy361 2.395 . S
O371 C391 1.255 . S
O372 Dy361 2.379 . S
O372 C391 1.249 . S
C373 O363 1.266 . S
C373 O364 1.236 . S
O374 Dy360 2.275 1_545 S
O374 C362 1.254 . S
O375 Dy361 2.339 . S
O375 C362 1.257 . S
C376 C379 1.344 . S
C376 C380 1.328 . S
C376 C382 1.516 . S
C377 C378 1.304 . S
C377 C381 1.323 . S
C378 C377 1.304 . S
C378 C379 1.371 . S
C378 H392 0.930 1_556 S
C379 C376 1.344 . S
C379 C378 1.371 . S
C379 H393 0.931 . S
C380 C376 1.328 . S
C380 C381 1.433 . S
C380 H394 0.931 . S
C381 C377 1.323 . S
C381 C380 1.433 . S
C381 H395 0.933 . S
C382 Dy360 2.738 . S
C382 O365 1.255 . S
C382 O366 1.249 . S
C382 C376 1.516 . S
C383 O367 1.254 . S
C383 O368 1.257 . S
C384 O369 1.266 . S
C384 O370 1.236 . S
C385 C388 1.344 . S
C385 C389 1.328 . S
C385 C391 1.516 . S
C386 C387 1.304 . S
C386 C390 1.323 . S
C387 C386 1.304 . S
C387 C388 1.371 . S
C387 H396 0.930 . S
C388 C385 1.344 . S
C388 C387 1.371 . S
C388 H397 0.931 . S
C389 C385 1.328 . S
C389 C390 1.433 . S
C389 H398 0.931 . S
C390 C386 1.323 . S
C390 C389 1.433 . S
C390 H399 0.933 . S
C391 Dy361 2.738 . S
C391 O371 1.255 . S
C391 O372 1.249 . S
C391 C385 1.516 . S
H392 C378 0.930 1_554 S
H393 C379 0.931 . S
H394 C380 0.931 . S
H395 C381 0.933 . S
H396 C387 0.930 . S
H397 C388 0.931 . S
H398 C389 0.931 . S
H399 C390 0.933 . S
Dy400 O403 2.307 . S
Dy400 O405 2.395 . S
Dy400 O406 2.379 . S
Dy400 O408 2.339 1_565 S
Dy400 O410 2.309 . S
Dy400 O414 2.275 . S
Dy400 C422 2.738 . S
Dy401 O404 2.306 . S
Dy401 O407 2.275 . S
Dy401 O409 2.307 . S
Dy401 O411 2.395 . S
Dy401 O412 2.379 . S
Dy401 O415 2.339 1_545 S
Dy401 C431 2.738 . S
C402 O414 1.254 . S
C402 O415 1.257 . S
O403 Dy400 2.307 . S
O403 C413 1.266 . S
O404 Dy401 2.306 . S
O404 C413 1.228 1_545 S
O405 Dy400 2.395 . S
O405 C422 1.255 . S
O406 Dy400 2.379 . S
O406 C422 1.249 . S
O407 Dy401 2.275 . S
O407 C423 1.254 . S
O408 Dy400 2.339 1_545 S
O408 C423 1.257 . S
O409 Dy401 2.307 . S
O409 C424 1.266 . S
O410 Dy400 2.309 . S
O410 C424 1.225 1_565 S
O411 Dy401 2.395 . S
O411 C431 1.255 . S
O412 Dy401 2.379 . S
O412 C431 1.249 . S
C413 O403 1.266 . S
C413 O404 1.228 1_565 S
O414 Dy400 2.275 . S
O414 C402 1.254 . S
O415 Dy401 2.339 1_565 S
O415 C402 1.257 . S
C416 C419 1.344 . S
C416 C420 1.328 . S
C416 C422 1.516 . S
C417 C418 1.304 . S
C417 C421 1.323 . S
C418 C417 1.304 . S
C418 C419 1.371 . S
C418 H432 0.930 . S
C419 C416 1.344 . S
C419 C418 1.371 . S
C419 H433 0.931 . S
C420 C416 1.328 . S
C420 C421 1.433 . S
C420 H434 0.931 . S
C421 C417 1.323 . S
C421 C420 1.433 . S
C421 H435 0.933 . S
C422 Dy400 2.738 . S
C422 O405 1.255 . S
C422 O406 1.249 . S
C422 C416 1.516 . S
C423 O407 1.254 . S
C423 O408 1.257 . S
C424 O409 1.266 . S
C424 O410 1.225 1_545 S
C425 C428 1.344 . S
C425 C429 1.328 . S
C425 C431 1.516 . S
C426 C427 1.304 . S
C426 C430 1.323 . S
C427 C426 1.304 . S
C427 C428 1.371 . S
C427 H436 0.930 . S
C428 C425 1.344 . S
C428 C427 1.371 . S
C428 H437 0.931 . S
C429 C425 1.328 . S
C429 C430 1.433 . S
C429 H438 0.931 . S
C430 C426 1.323 . S
C430 C429 1.433 . S
C430 H439 0.933 1_655 S
C431 Dy401 2.738 . S
C431 O411 1.255 . S
C431 O412 1.249 . S
C431 C425 1.516 . S
H432 C418 0.930 . S
H433 C419 0.931 . S
H434 C420 0.931 . S
H435 C421 0.933 . S
H436 C427 0.930 . S
H437 C428 0.931 . S
H438 C429 0.931 . S
H439 C430 0.933 1_455 S
Dy440 O443 2.307 . S
Dy440 O445 2.395 . S
Dy440 O446 2.379 . S
Dy440 O448 2.339 . S
Dy440 O450 2.298 . S
Dy440 O454 2.275 . S
Dy440 C462 2.738 . S
Dy441 O444 2.298 . S
Dy441 O447 2.275 . S
Dy441 O449 2.307 . S
Dy441 O451 2.395 . S
Dy441 O452 2.379 . S
Dy441 O455 2.339 . S
Dy441 C471 2.738 . S
C442 O454 1.254 . S
C442 O455 1.257 . S
O443 Dy440 2.307 . S
O443 C453 1.266 . S
O444 Dy441 2.298 . S
O444 C453 1.236 . S
O445 Dy440 2.395 . S
O445 C462 1.255 . S
O446 Dy440 2.379 . S
O446 C462 1.249 . S
O447 Dy441 2.275 . S
O447 C463 1.254 . S
O448 Dy440 2.339 . S
O448 C463 1.257 . S
O449 Dy441 2.307 . S
O449 C464 1.266 . S
O450 Dy440 2.298 . S
O450 C464 1.236 . S
O451 Dy441 2.395 . S
O451 C471 1.255 . S
O452 Dy441 2.379 . S
O452 C471 1.249 . S
C453 O443 1.266 . S
C453 O444 1.236 . S
O454 Dy440 2.275 . S
O454 C442 1.254 . S
O455 Dy441 2.339 . S
O455 C442 1.257 . S
C456 C459 1.344 . S
C456 C460 1.341 . S
C456 C462 1.516 . S
C457 C458 1.304 1_655 S
C457 C461 1.323 . S
C458 C457 1.304 1_455 S
C458 C459 1.371 . S
C458 H472 0.930 . S
C459 C456 1.344 . S
C459 C458 1.371 . S
C459 H473 0.931 . S
C460 C456 1.341 . S
C460 C461 1.421 1_455 S
C460 H474 0.929 1_455 S
C461 C457 1.323 . S
C461 C460 1.421 1_655 S
C461 H475 0.933 . S
C462 Dy440 2.738 . S
C462 O445 1.255 . S
C462 O446 1.249 . S
C462 C456 1.516 . S
C463 O447 1.254 . S
C463 O448 1.257 . S
C464 O449 1.266 . S
C464 O450 1.236 . S
C465 C468 1.344 . S
C465 C469 1.328 . S
C465 C471 1.516 . S
C466 C467 1.304 . S
C466 C470 1.323 . S
C467 C466 1.304 . S
C467 C468 1.371 . S
C467 H476 0.930 . S
C468 C465 1.344 . S
C468 C467 1.371 . S
C468 H477 0.931 . S
C469 C465 1.328 . S
C469 C470 1.433 . S
C469 H478 0.931 . S
C470 C466 1.323 . S
C470 C469 1.433 . S
C470 H479 0.933 . S
C471 Dy441 2.738 . S
C471 O451 1.255 . S
C471 O452 1.249 . S
C471 C465 1.516 . S
H472 C458 0.930 . S
H473 C459 0.931 . S
H474 C460 0.929 1_655 S
H475 C461 0.933 . S
H476 C467 0.930 . S
H477 C468 0.931 . S
H478 C469 0.931 . S
H479 C470 0.933 . S
C24 C463 2.198 . S
C383 C63 3.163 . S
C104 C343 2.053 . S
C143 C424 2.534 . S
C183 C423 3.684 . S
C223 C464 2.770 . S
C384 C263 2.668 . S
C304 C344 1.976 . S
C144 C184 1.913 . S
C23 C224 2.689 . S
C64 C264 2.394 . S
C303 C103 3.559 . S
C17 C322 3.330 . S
C66 C413 2.091 . S
C442 C97 3.954 . S
C146 C362 1.553 1_554 S
C186 C373 2.426 . S
C333 C226 2.216 1_554 S
C402 C266 1.578 . S
C453 C297 4.037 . S
C2 C137 3.468 . S
C26 C53 1.813 1_545 S
C57 C82 3.528 1_554 S
C133 C106 2.197 1_545 S
C217 C173 3.239 . S
C213 C257 3.008 . S
C253 C306 2.522 . S
C177 C282 3.366 . S
C337 C122 2.722 . S
C202 C386 1.757 . S
C346 C242 1.406 1_455 S
C417 C293 3.527 . S
C162 C466 2.384 . S
C457 C42 3.460 1_655 S
C93 C377 3.318 . S
C426 C13 1.582 1_655 S
