# Generated by pormake.
# Topology wme, (6)-cn, num edge types: 1
# Building blocks:
#     Node 0, Type 0, BuildingBlock: PAMTUU_clean_sbu_0, # of connection points: 6
#     Node 1, Type 0, BuildingBlock: PAMTUU_clean_sbu_0, # of connection points: 6
#     Node 2, Type 0, BuildingBlock: PAMTUU_clean_sbu_0, # of connection points: 6
#     Node 3, Type 0, BuildingBlock: PAMTUU_clean_sbu_0, # of connection points: 6
#     Node 4, Type 0, BuildingBlock: PAMTUU_clean_sbu_0, # of connection points: 6
#     Node 5, Type 0, BuildingBlock: PAMTUU_clean_sbu_0, # of connection points: 6
#     Node 6, Type 0, BuildingBlock: PAMTUU_clean_sbu_0, # of connection points: 6
#     Node 7, Type 0, BuildingBlock: PAMTUU_clean_sbu_0, # of connection points: 6
#     Node 8, Type 0, BuildingBlock: PAMTUU_clean_sbu_0, # of connection points: 6
#     Node 9, Type 0, BuildingBlock: PAMTUU_clean_sbu_0, # of connection points: 6
#     Node 10, Type 0, BuildingBlock: PAMTUU_clean_sbu_0, # of connection points: 6
#     Node 11, Type 0, BuildingBlock: PAMTUU_clean_sbu_0, # of connection points: 6
#     Edge 12, Type (0, 0), BuildingBlock: EZIPEK_clean_linker_0, # of connection points: 2
#     Edge 13, Type (0, 0), BuildingBlock: EZIPEK_clean_linker_0, # of connection points: 2
#     Edge 14, Type (0, 0), BuildingBlock: EZIPEK_clean_linker_0, # of connection points: 2
#     Edge 15, Type (0, 0), BuildingBlock: EZIPEK_clean_linker_0, # of connection points: 2
#     Edge 16, Type (0, 0), BuildingBlock: EZIPEK_clean_linker_0, # of connection points: 2
#     Edge 17, Type (0, 0), BuildingBlock: EZIPEK_clean_linker_0, # of connection points: 2
#     Edge 18, Type (0, 0), BuildingBlock: EZIPEK_clean_linker_0, # of connection points: 2
#     Edge 19, Type (0, 0), BuildingBlock: EZIPEK_clean_linker_0, # of connection points: 2
#     Edge 20, Type (0, 0), BuildingBlock: EZIPEK_clean_linker_0, # of connection points: 2
#     Edge 21, Type (0, 0), BuildingBlock: EZIPEK_clean_linker_0, # of connection points: 2
#     Edge 22, Type (0, 0), BuildingBlock: EZIPEK_clean_linker_0, # of connection points: 2
#     Edge 23, Type (0, 0), BuildingBlock: EZIPEK_clean_linker_0, # of connection points: 2
#     Edge 24, Type (0, 0), BuildingBlock: EZIPEK_clean_linker_0, # of connection points: 2
#     Edge 25, Type (0, 0), BuildingBlock: EZIPEK_clean_linker_0, # of connection points: 2
#     Edge 26, Type (0, 0), BuildingBlock: EZIPEK_clean_linker_0, # of connection points: 2
#     Edge 27, Type (0, 0), BuildingBlock: EZIPEK_clean_linker_0, # of connection points: 2
#     Edge 28, Type (0, 0), BuildingBlock: EZIPEK_clean_linker_0, # of connection points: 2
#     Edge 29, Type (0, 0), BuildingBlock: EZIPEK_clean_linker_0, # of connection points: 2
#     Edge 30, Type (0, 0), BuildingBlock: EZIPEK_clean_linker_0, # of connection points: 2
#     Edge 31, Type (0, 0), BuildingBlock: EZIPEK_clean_linker_0, # of connection points: 2
#     Edge 32, Type (0, 0), BuildingBlock: EZIPEK_clean_linker_0, # of connection points: 2
#     Edge 33, Type (0, 0), BuildingBlock: EZIPEK_clean_linker_0, # of connection points: 2
#     Edge 34, Type (0, 0), BuildingBlock: EZIPEK_clean_linker_0, # of connection points: 2
#     Edge 35, Type (0, 0), BuildingBlock: EZIPEK_clean_linker_0, # of connection points: 2
#     Edge 36, Type (0, 0), BuildingBlock: EZIPEK_clean_linker_0, # of connection points: 2
#     Edge 37, Type (0, 0), BuildingBlock: EZIPEK_clean_linker_0, # of connection points: 2
#     Edge 38, Type (0, 0), BuildingBlock: EZIPEK_clean_linker_0, # of connection points: 2
#     Edge 39, Type (0, 0), BuildingBlock: EZIPEK_clean_linker_0, # of connection points: 2
#     Edge 40, Type (0, 0), BuildingBlock: EZIPEK_clean_linker_0, # of connection points: 2
#     Edge 41, Type (0, 0), BuildingBlock: EZIPEK_clean_linker_0, # of connection points: 2
#     Edge 42, Type (0, 0), BuildingBlock: EZIPEK_clean_linker_0, # of connection points: 2
#     Edge 43, Type (0, 0), BuildingBlock: EZIPEK_clean_linker_0, # of connection points: 2
#     Edge 44, Type (0, 0), BuildingBlock: EZIPEK_clean_linker_0, # of connection points: 2
#     Edge 45, Type (0, 0), BuildingBlock: EZIPEK_clean_linker_0, # of connection points: 2
#     Edge 46, Type (0, 0), BuildingBlock: EZIPEK_clean_linker_0, # of connection points: 2
#     Edge 47, Type (0, 0), BuildingBlock: EZIPEK_clean_linker_0, # of connection points: 2
# Relax obj value: 0.095
# Max RMSD: 0.223
# Mean RMSD: 0.223
data_MOF--net-wme--node1-PAMTUU_clean_sbu_0--edge1-EZIPEK_clean_linker_0
_symmetry_space_group_name_H-M    P1
_symmetry_Int_Tables_number       1
_symmetry_cell_setting            triclinic
loop_
_symmetry_equiv_pos_as_xyz
'x, y, z'
_cell_length_a     31.504869
_cell_length_b     31.50982
_cell_length_c     38.153747
_cell_angle_alpha  89.877425
_cell_angle_beta   90.090613
_cell_angle_gamma 119.83338
loop_
_atom_site_label
_atom_site_type_symbol
_atom_site_fract_x
_atom_site_fract_y
_atom_site_fract_z
_atom_type_partial_charge
Tb0 Tb 0.28303 0.32599 0.12587 0.0
Tb1 Tb 0.23373 0.38939 0.09269 0.0
C2 C 0.25667 0.38751 0.17423 0.0
C3 C 0.29584 0.21688 0.13818 0.0
C4 C 0.25729 0.11528 0.12886 0.0
C5 C 0.2909 0.14029 0.1559 0.0
C6 C 0.30996 0.19068 0.16054 0.0
C7 C 0.26222 0.19186 0.1111 0.0
C8 C 0.24305 0.14147 0.10652 0.0
C9 C 0.31496 0.26975 0.14387 0.0
O10 O 0.20452 0.28618 0.13777 0.0
O11 O 0.17766 0.31295 0.09136 0.0
O12 O 0.26662 0.36898 0.04954 0.0
O13 O 0.2528 0.29825 0.07516 0.0
O14 O 0.17068 0.39515 0.0858 0.0
O15 O 0.23923 0.44887 0.06336 0.0
O16 O 0.30532 0.44325 0.11113 0.0
O17 O 0.34336 0.39704 0.10762 0.0
O18 O 0.29064 0.37636 0.16687 0.0
O19 O 0.22663 0.38761 0.15006 0.0
C20 C 0.16906 0.28249 0.11739 0.0
O21 O 0.32948 0.29736 0.11593 0.0
O22 O 0.28871 0.28085 0.16416 0.0
C23 C 0.26601 0.32691 0.04796 0.0
C24 C 0.18407 0.47641 0.08135 0.0
C25 C 0.16127 0.55014 0.09895 0.0
C26 C 0.13312 0.50259 0.11235 0.0
C27 C 0.14428 0.46603 0.10357 0.0
C28 C 0.21222 0.52422 0.06815 0.0
C29 C 0.20108 0.56072 0.077 0.0
C30 C 0.19401 0.43707 0.06973 0.0
C31 C 0.34493 0.43982 0.10812 0.0
H32 H 0.30224 0.12071 0.17345 0.0
H33 H 0.33557 0.20917 0.18169 0.0
H34 H 0.25065 0.21126 0.09358 0.0
H35 H 0.2171 0.12287 0.08557 0.0
H36 H 0.10246 0.49379 0.12951 0.0
H37 H 0.12139 0.42954 0.11394 0.0
H38 H 0.24263 0.53332 0.05065 0.0
H39 H 0.22341 0.59728 0.06655 0.0
Tb40 Tb 0.98254 0.26269 0.63371 0.0
Tb41 Tb 0.87557 0.22713 0.59304 0.0
C42 C 0.88623 0.23832 0.67607 0.0
C43 C 0.09862 0.26355 0.65576 0.0
C44 C 0.16623 0.23035 0.64517 0.0
C45 C 0.14083 0.22131 0.677 0.0
C46 C 0.10759 0.23796 0.68229 0.0
C47 C 0.12395 0.27243 0.62378 0.0
C48 C 0.15759 0.25613 0.61861 0.0
C49 C 0.06222 0.27963 0.66196 0.0
O50 O 0.95241 0.18763 0.61477 0.0
O51 O 0.8715 0.16398 0.61933 0.0
O52 O 0.92802 0.2354 0.55185 0.0
O53 O 1.00117 0.285 0.58017 0.0
O54 O 0.81455 0.17278 0.56542 0.0
O55 O 0.82196 0.24328 0.57588 0.0
O56 O 0.91655 0.30643 0.59131 0.0
O57 O 0.9693 0.32483 0.63822 0.0
O58 O 0.93079 0.24504 0.67571 0.0
O59 O 0.86089 0.2348 0.64768 0.0
C60 C 0.90669 0.15329 0.61936 0.0
O61 O 0.0588 0.30828 0.63876 0.0
O62 O 1.01924 0.24573 0.67248 0.0
C63 C 0.97589 0.26527 0.55172 0.0
C64 C 0.7417 0.17667 0.57447 0.0
C65 C 0.64461 0.14683 0.59487 0.0
C66 C 0.65782 0.15356 0.55931 0.0
C67 C 0.70596 0.16835 0.54921 0.0
C68 C 0.7281 0.16793 0.60996 0.0
C69 C 0.67983 0.15288 0.62008 0.0
C70 C 0.79354 0.19947 0.56373 0.0
C71 C 0.94496 0.33668 0.61565 0.0
H72 H 0.14692 0.20151 0.69782 0.0
H73 H 0.0886 0.23059 0.70715 0.0
H74 H 0.11775 0.2918 0.60271 0.0
H75 H 0.17681 0.26349 0.59386 0.0
H76 H 0.63135 0.14938 0.53949 0.0
H77 H 0.71574 0.17522 0.52174 0.0
H78 H 0.7552 0.17466 0.62989 0.0
H79 H 0.6705 0.1482 0.64767 0.0
Tb80 Tb 0.75034 0.971 0.13132 0.0
Tb81 Tb 0.68378 0.86115 0.09497 0.0
C82 C 0.68747 0.88039 0.17707 0.0
C83 C 0.86212 0.08527 0.15105 0.0
C84 C 0.96401 0.14364 0.14222 0.0
C85 C 0.94199 0.14401 0.17413 0.0
C86 C 0.89134 0.11503 0.1785 0.0
C87 C 0.88437 0.08394 0.11944 0.0
C88 C 0.93492 0.11312 0.115 0.0
C89 C 0.80897 0.05396 0.15608 0.0
O90 O 0.79082 0.93156 0.13567 0.0
O91 O 0.75967 0.88053 0.08848 0.0
O92 O 0.70637 0.91518 0.05244 0.0
O93 O 0.77473 0.97754 0.07813 0.0
O94 O 0.62412 0.81084 0.06438 0.0
O95 O 0.67489 0.7913 0.08664 0.0
O96 O 0.63133 0.88237 0.11193 0.0
O97 O 0.68045 0.96614 0.11751 0.0
O98 O 0.69946 0.92591 0.1711 0.0
O99 O 0.68661 0.85132 0.1519 0.0
C100 C 0.79282 0.9014 0.11298 0.0
O101 O 0.78162 0.04733 0.12858 0.0
O102 O 0.79568 1.01315 0.17277 0.0
C103 C 0.74667 0.95819 0.05083 0.0
C104 C 0.59452 0.72678 0.0772 0.0
C105 C 0.51774 0.63114 0.09106 0.0
C106 C 0.54897 0.64032 0.06238 0.0
C107 C 0.58703 0.68772 0.05555 0.0
C108 C 0.56399 0.71765 0.10639 0.0
C109 C 0.5257 0.67004 0.11323 0.0
C110 C 0.63483 0.77618 0.06871 0.0
C111 C 0.63702 0.92661 0.114 0.0
H112 H 0.96393 0.16754 0.19535 0.0
H113 H 0.87496 0.11601 0.20321 0.0
H114 H 0.86265 0.06062 0.09808 0.0
H115 H 0.95126 0.11254 0.09017 0.0
H116 H 0.5432 0.6109 0.04486 0.0
H117 H 0.61039 0.694 0.03305 0.0
H118 H 0.56944 0.74731 0.12354 0.0
H119 H 0.50171 0.66367 0.13533 0.0
Tb120 Tb 0.81326 0.7344 0.62886 0.0
Tb121 Tb 0.85521 0.66609 0.5898 0.0
C122 C 0.84632 0.67014 0.6728 0.0
C123 C 0.8028 0.84432 0.64804 0.0
C124 C 0.84002 0.94638 0.6405 0.0
C125 C 0.85905 0.92845 0.66619 0.0
C126 C 0.8406 0.87799 0.66999 0.0
C127 C 0.78353 0.86255 0.62259 0.0
C128 C 0.80204 0.91301 0.61881 0.0
C129 C 0.78376 0.79062 0.65126 0.0
O130 O 0.89219 0.78078 0.63089 0.0
O131 O 0.92005 0.73644 0.59966 0.0
O132 O 0.82313 0.69247 0.54998 0.0
O133 O 0.84141 0.76318 0.57777 0.0
O134 O 0.83982 0.60053 0.56446 0.0
O135 O 0.91375 0.65916 0.56991 0.0
O136 O 0.78538 0.61589 0.61297 0.0
O137 O 0.75016 0.66464 0.61221 0.0
O138 O 0.81949 0.69147 0.67094 0.0
O139 O 0.8653 0.66014 0.64547 0.0
C140 C 0.92766 0.77515 0.61777 0.0
O141 O 0.76751 0.76484 0.62259 0.0
O142 O 0.8095 0.77677 0.66996 0.0
C143 C 0.82613 0.73563 0.55006 0.0
C144 C 0.90101 0.57855 0.572 0.0
C145 C 0.92674 0.5081 0.59297 0.0
C146 C 0.92008 0.51463 0.55737 0.0
C147 C 0.90735 0.54955 0.547 0.0
C148 C 0.90865 0.57281 0.60761 0.0
C149 C 0.92148 0.53788 0.61801 0.0
C150 C 0.88579 0.61389 0.56049 0.0
C151 C 0.74669 0.62113 0.61213 0.0
H152 H 0.88828 0.95359 0.68324 0.0
H153 H 0.8562 0.86544 0.69002 0.0
H154 H 0.75426 0.83777 0.60541 0.0
H155 H 0.78678 0.92608 0.59888 0.0
H156 H 0.92354 0.49181 0.53769 0.0
H157 H 0.90169 0.5534 0.51942 0.0
H158 H 0.90398 0.5948 0.62736 0.0
H159 H 0.92605 0.53315 0.64562 0.0
Tb160 Tb 0.11148 0.79939 0.13505 0.0
Tb161 Tb 0.21602 0.82994 0.09362 0.0
C162 C 0.20764 0.82435 0.17722 0.0
C163 C 0.99851 0.80245 0.1537 0.0
C164 C 0.93572 0.83942 0.13749 0.0
C165 C 0.93564 0.8213 0.17119 0.0
C166 C 0.96685 0.80299 0.17923 0.0
C167 C 0.999 0.82099 0.12004 0.0
C168 C 0.96761 0.83914 0.11194 0.0
C169 C 1.03279 0.7852 0.16295 0.0
O170 O 0.14224 0.87322 0.11338 0.0
O171 O 0.22321 0.896 0.11664 0.0
O172 O 0.16345 0.8246 0.05317 0.0
O173 O 0.09099 0.7752 0.08217 0.0
O174 O 0.27686 0.88011 0.06378 0.0
O175 O 0.2667 0.80927 0.07744 0.0
O176 O 0.17066 0.75102 0.09176 0.0
O177 O 0.12346 0.73672 0.14106 0.0
O178 O 0.16399 0.81976 0.17667 0.0
O179 O 0.23167 0.82474 0.14884 0.0
C180 C 0.18844 0.90725 0.1161 0.0
O181 O 0.07604 0.81933 0.17266 0.0
O182 O 1.03539 0.75466 0.14123 0.0
C183 C 0.11543 0.79561 0.05363 0.0
C184 C 0.34797 0.87303 0.07261 0.0
C185 C 0.4455 0.90346 0.09203 0.0
C186 C 0.42801 0.88363 0.0587 0.0
C187 C 0.37967 0.86851 0.0491 0.0
C188 C 0.36568 0.89409 0.10566 0.0
C189 C 0.41424 0.90947 0.11526 0.0
C190 C 0.29582 0.85154 0.06322 0.0
C191 C 0.14458 0.72254 0.11758 0.0
H192 H 0.91109 0.82102 0.19116 0.0
H193 H 0.96638 0.78939 0.20542 0.0
H194 H 1.0237 0.82148 0.1001 0.0
H195 H 0.96795 0.85268 0.08576 0.0
H196 H 0.4515 0.87873 0.04041 0.0
H197 H 0.36662 0.85204 0.02359 0.0
H198 H 0.34167 0.89753 0.12425 0.0
H199 H 0.42706 0.92476 0.14108 0.0
Tb200 Tb 0.34561 0.09317 0.63641 0.0
Tb201 Tb 0.41585 0.20027 0.59679 0.0
C202 C 0.41541 0.18888 0.67957 0.0
C203 C 0.2333 0.97794 0.65561 0.0
C204 C 0.13335 0.9144 0.64191 0.0
C205 C 0.15795 0.90205 0.66715 0.0
C206 C 0.20764 0.93373 0.67402 0.0
C207 C 0.20884 0.99006 0.63012 0.0
C208 C 0.15916 0.95862 0.62343 0.0
C209 C 0.28492 1.01232 0.6638 0.0
O210 O 0.29924 0.12246 0.61899 0.0
O211 O 0.356 0.20365 0.62224 0.0
O212 O 0.3709 0.15007 0.55493 0.0
O213 O 0.34653 0.07588 0.58203 0.0
O214 O 0.42278 0.26319 0.57147 0.0
O215 O 0.48494 0.25286 0.57856 0.0
O216 O 0.45322 0.15818 0.59337 0.0
O217 O 0.42076 0.10663 0.64086 0.0
O218 O 0.37634 0.14534 0.67842 0.0
O219 O 0.43907 0.21351 0.65146 0.0
C220 C 0.31032 0.16827 0.62276 0.0
O221 O 0.31663 1.01698 0.64003 0.0
O222 O 0.29364 0.05469 0.67548 0.0
C223 C 0.35161 0.10206 0.55408 0.0
C224 C 0.50062 0.33438 0.58031 0.0
C225 C 0.57056 0.43257 0.59526 0.0
C226 C 0.54012 0.42099 0.5657 0.0
C227 C 0.50558 0.37226 0.55822 0.0
C228 C 0.52875 0.3463 0.61119 0.0
C229 C 0.5636 0.39503 0.61851 0.0
C230 C 0.47014 0.28299 0.56884 0.0
C231 C 0.45591 0.13006 0.61769 0.0
H232 H 0.13855 0.86808 0.68167 0.0
H233 H 0.2259 0.92394 0.69387 0.0
H234 H 0.22808 1.0241 0.61566 0.0
H235 H 0.14076 0.96877 0.60393 0.0
H236 H 0.54507 0.44941 0.54737 0.0
H237 H 0.48433 0.36395 0.53431 0.0
H238 H 0.52543 0.31779 0.62881 0.0
H239 H 0.58681 0.40317 0.64137 0.0
Tb240 Tb 0.74693 0.8048 0.36502 0.0
Tb241 Tb 0.68211 0.84564 0.4068 0.0
C242 C 0.68166 0.83438 0.32354 0.0
C243 C 0.85728 0.79809 0.3445 0.0
C244 C 0.95828 0.83413 0.35484 0.0
C245 C 0.93629 0.81398 0.32241 0.0
C246 C 0.88614 0.79603 0.31731 0.0
C247 C 0.8795 0.81904 0.37675 0.0
C248 C 0.92952 0.83667 0.38191 0.0
C249 C 0.80449 0.77948 0.3389 0.0
O250 O 0.78489 0.88452 0.35944 0.0
O251 O 0.75801 0.90357 0.40954 0.0
O252 O 0.706 0.80974 0.44528 0.0
O253 O 0.77622 0.82653 0.4169 0.0
O254 O 0.67396 0.90523 0.42164 0.0
O255 O 0.62138 0.83233 0.43793 0.0
O256 O 0.62934 0.77581 0.38514 0.0
O257 O 0.6778 0.74038 0.38181 0.0
O258 O 0.69575 0.80178 0.32632 0.0
O259 O 0.68037 0.85985 0.3506 0.0
C260 C 0.78845 0.91654 0.38304 0.0
O261 O 0.776 0.7576 0.36562 0.0
O262 O 0.79323 0.80961 0.32359 0.0
C263 C 0.74861 0.81142 0.44467 0.0
C264 C 0.59198 0.88642 0.42445 0.0
C265 C 0.51709 0.90475 0.40258 0.0
C266 C 0.52597 0.9024 0.43841 0.0
C267 C 0.5632 0.89333 0.44926 0.0
C268 C 0.58328 0.88899 0.38856 0.0
C269 C 0.54619 0.89828 0.3777 0.0
C270 C 0.63162 0.87775 0.43619 0.0
C271 C 0.63436 0.73701 0.38442 0.0
H272 H 0.9579 0.81168 0.30121 0.0
H273 H 0.86986 0.78044 0.29218 0.0
H274 H 0.85817 0.82155 0.39804 0.0
H275 H 0.94575 0.85202 0.40711 0.0
H276 H 0.50378 0.90716 0.45795 0.0
H277 H 0.5695 0.89166 0.47703 0.0
H278 H 0.60518 0.88385 0.36899 0.0
H279 H 0.53976 0.89985 0.34995 0.0
Tb280 Tb 0.98585 0.73111 0.86445 0.0
Tb281 Tb 0.87479 0.66878 0.8996 0.0
C282 C 0.89594 0.67055 0.81777 0.0
C283 C 0.1059 0.83732 0.84477 0.0
C284 C 0.17008 0.93854 0.85233 0.0
C285 C 0.18824 0.90738 0.84316 0.0
C286 C 0.15629 0.85699 0.83945 0.0
C287 C 0.08778 0.86864 0.85345 0.0
C288 C 0.1196 0.91886 0.85723 0.0
C289 C 0.07227 0.78418 0.84239 0.0
O290 O 0.94857 0.77361 0.85599 0.0
O291 O 0.89531 0.7453 0.90247 0.0
O292 O 0.92995 0.69007 0.9417 0.0
O293 O 0.98845 0.75999 0.91577 0.0
O294 O 0.80527 0.66166 0.90596 0.0
O295 O 0.82333 0.61175 0.93155 0.0
O296 O 0.89165 0.614 0.88115 0.0
O297 O 0.97577 0.66042 0.88304 0.0
O298 O 0.9407 0.68039 0.82454 0.0
O299 O 0.8668 0.67073 0.84247 0.0
C300 C 0.91708 0.77675 0.87701 0.0
O301 O 0.06153 0.76048 0.87208 0.0
O302 O 1.03337 0.77084 0.82329 0.0
C303 C 0.97198 0.73156 0.94309 0.0
C304 C 0.74001 0.58171 0.91604 0.0
C305 C 0.64524 0.50373 0.90115 0.0
C306 C 0.6527 0.5365 0.92846 0.0
C307 C 0.69965 0.57516 0.93578 0.0
C308 C 0.7326 0.54963 0.88817 0.0
C309 C 0.68545 0.5108 0.8808 0.0
C310 C 0.78906 0.62243 0.92509 0.0
C311 C 0.93487 0.61763 0.88345 0.0
H312 H 0.22713 0.92202 0.83933 0.0
H313 H 0.17091 0.83337 0.83277 0.0
H314 H 0.04902 0.85407 0.85752 0.0
H315 H 0.10496 0.94233 0.86433 0.0
H316 H 0.62228 0.53143 0.94462 0.0
H317 H 0.70457 0.59966 0.95725 0.0
H318 H 0.76326 0.55423 0.87251 0.0
H319 H 0.68049 0.48562 0.85983 0.0
Tb320 Tb 0.27541 0.96653 0.35985 0.0
Tb321 Tb 0.23389 0.86093 0.40377 0.0
C322 C 0.2512 0.87041 0.31948 0.0
C323 C 0.28466 0.0844 0.34087 0.0
C324 C 0.24712 0.14758 0.35277 0.0
C325 C 0.28354 0.15913 0.32731 0.0
C326 C 0.30199 0.1275 0.32123 0.0
C327 C 0.24891 0.07332 0.36665 0.0
C328 C 0.22983 0.10431 0.37229 0.0
C329 C 0.30246 0.05003 0.33418 0.0
O330 O 0.19607 0.92617 0.35382 0.0
O331 O 0.17681 0.88067 0.40422 0.0
O332 O 0.26865 0.91885 0.44287 0.0
O333 O 0.25895 0.97648 0.4131 0.0
O334 O 0.17223 0.79241 0.41335 0.0
O335 O 0.24063 0.81274 0.43891 0.0
O336 O 0.30817 0.88069 0.39182 0.0
O337 O 0.33999 0.95796 0.36716 0.0
O338 O 0.27266 0.9183 0.31938 0.0
O339 O 0.23283 0.84379 0.34803 0.0
C340 C 0.16409 0.89791 0.37736 0.0
O341 O 0.32415 0.04233 0.36058 0.0
O342 O 0.27094 1.00919 0.31921 0.0
C343 C 0.27195 0.96209 0.44122 0.0
C344 C 0.19113 0.72974 0.42219 0.0
C345 C 0.17658 0.63699 0.40277 0.0
C346 C 0.17514 0.6483 0.43821 0.0
C347 C 0.18219 0.69428 0.44782 0.0
C348 C 0.19314 0.71864 0.38677 0.0
C349 C 0.18549 0.67251 0.37711 0.0
C350 C 0.19645 0.77735 0.43242 0.0
C351 C 0.34474 0.92111 0.37913 0.0
H352 H 0.29734 0.1924 0.31201 0.0
H353 H 0.32956 0.13657 0.30122 0.0
H354 H 0.23577 0.04058 0.38232 0.0
H355 H 0.20182 0.09475 0.39205 0.0
H356 H 0.16847 0.62147 0.45841 0.0
H357 H 0.18044 0.70207 0.47526 0.0
H358 H 0.20032 0.74553 0.36658 0.0
H359 H 0.18687 0.66459 0.34966 0.0
Tb360 Tb 0.34358 0.25826 0.86588 0.0
Tb361 Tb 0.41059 0.21732 0.90602 0.0
C362 C 0.4128 0.23232 0.82251 0.0
C363 C 0.23218 0.26487 0.84896 0.0
C364 C 0.13059 0.22521 0.85887 0.0
C365 C 0.15545 0.2608 0.83292 0.0
C366 C 0.20591 0.28051 0.82802 0.0
C367 C 0.20718 0.22884 0.87466 0.0
C368 C 0.15679 0.20922 0.87961 0.0
C369 C 0.28535 0.28568 0.84384 0.0
O370 O 0.30474 0.17978 0.85678 0.0
O371 O 0.33655 0.15544 0.90175 0.0
O372 O 0.38655 0.25197 0.94529 0.0
O373 O 0.31531 0.23078 0.91744 0.0
O374 O 0.4178 0.15661 0.91928 0.0
O375 O 0.47065 0.22846 0.93737 0.0
O376 O 0.46281 0.28794 0.88488 0.0
O377 O 0.41352 0.32258 0.88141 0.0
O378 O 0.38977 0.25754 0.82436 0.0
O379 O 0.42144 0.21247 0.8501 0.0
C380 C 0.30518 0.14538 0.87599 0.0
O381 O 0.31231 0.30318 0.87185 0.0
O382 O 0.29829 0.25909 0.82557 0.0
C383 C 0.34326 0.24864 0.94489 0.0
C384 C 0.49956 0.17387 0.92305 0.0
C385 C 0.57365 0.15355 0.9021 0.0
C386 C 0.56709 0.16018 0.93767 0.0
C387 C 0.53029 0.17018 0.94805 0.0
C388 C 0.50604 0.16715 0.88742 0.0
C389 C 0.54267 0.1569 0.87705 0.0
C390 C 0.45995 0.18298 0.93453 0.0
C391 C 0.45721 0.32644 0.88365 0.0
H392 H 0.13581 0.27352 0.81665 0.0
H393 H 0.22444 0.30803 0.80795 0.0
H394 H 0.22667 0.21598 0.89096 0.0
H395 H 0.13825 0.18178 0.89972 0.0
H396 H 0.59077 0.15804 0.95736 0.0
H397 H 0.52581 0.17503 0.97564 0.0
H398 H 0.48272 0.16974 0.86763 0.0
H399 H 0.54731 0.1522 0.84947 0.0
Tb400 Tb 0.11015 0.33172 0.36178 0.0
Tb401 Tb 0.21987 0.39578 0.40222 0.0
C402 C 0.20661 0.39459 0.31812 0.0
C403 C 0.99091 0.22325 0.34719 0.0
C404 C 0.92897 0.12225 0.35934 0.0
C405 C 0.92426 0.14421 0.32857 0.0
C406 C 0.95506 0.19435 0.32253 0.0
C407 C 0.99594 0.20109 0.3778 0.0
C408 C 0.96509 0.15106 0.38388 0.0
C409 C 1.02426 0.27583 0.34036 0.0
O410 O 0.14325 0.28585 0.35768 0.0
O411 O 0.2054 0.3211 0.39832 0.0
O412 O 0.16324 0.37162 0.44281 0.0
O413 O 0.10655 0.30413 0.41384 0.0
O414 O 0.28851 0.40204 0.41153 0.0
O415 O 0.26925 0.45158 0.43589 0.0
O416 O 0.20165 0.45088 0.38808 0.0
O417 O 0.12081 0.40545 0.37021 0.0
O418 O 0.15858 0.3701 0.31892 0.0
O419 O 0.2349 0.40706 0.34612 0.0
C420 C 0.17928 0.2866 0.37552 0.0
O421 O 1.0347 0.30493 0.36729 0.0
O422 O 0.06321 0.28614 0.32214 0.0
C423 C 0.12048 0.33126 0.44181 0.0
C424 C 0.35274 0.48228 0.42102 0.0
C425 C 0.44697 0.56 0.40456 0.0
C426 C 0.44056 0.52687 0.43148 0.0
C427 C 0.39385 0.48834 0.43961 0.0
C428 C 0.35912 0.51467 0.3935 0.0
C429 C 0.40597 0.5534 0.3854 0.0
C430 C 0.30397 0.44134 0.43034 0.0
C431 C 0.1598 0.44735 0.37898 0.0
H432 H 0.89639 0.12257 0.30942 0.0
H433 H 0.95088 0.21056 0.29864 0.0
H434 H 1.02363 0.22247 0.39708 0.0
H435 H 0.96905 0.13488 0.40787 0.0
H436 H 0.47164 0.5316 0.44674 0.0
H437 H 0.38973 0.46351 0.46071 0.0
H438 H 0.32788 0.51032 0.37862 0.0
H439 H 0.41013 0.57885 0.36477 0.0
Tb440 Tb 0.81522 0.09421 0.85772 0.0
Tb441 Tb 0.85608 0.19998 0.89957 0.0
C442 C 0.84167 0.19218 0.81745 0.0
C443 C 0.81528 0.98089 0.83669 0.0
C444 C 0.8548 0.91933 0.84985 0.0
C445 C 0.83802 0.92191 0.81618 0.0
C446 C 0.8184 0.95246 0.80967 0.0
C447 C 0.83302 0.97911 0.87022 0.0
C448 C 0.85235 0.94833 0.87679 0.0
C449 C 0.79615 1.01428 0.82935 0.0
O450 O 0.88828 0.11797 0.87858 0.0
O451 O 0.91686 0.19958 0.87347 0.0
O452 O 0.84934 0.1453 0.93857 0.0
O453 O 0.79011 0.0767 0.91065 0.0
O454 O 0.91748 0.26708 0.91396 0.0
O455 O 0.84546 0.24807 0.9317 0.0
O456 O 0.7771 0.16713 0.89837 0.0
O457 O 0.75373 0.10843 0.85471 0.0
O458 O 0.83828 0.14899 0.81718 0.0
O459 O 0.84233 0.2152 0.84637 0.0
C460 C 0.92477 0.1627 0.8747 0.0
O461 O 0.76916 1.01804 0.85364 0.0
O462 O 0.8281 0.05696 0.81713 0.0
C463 C 0.81485 0.0988 0.93866 0.0
C464 C 0.90065 0.33215 0.91926 0.0
C465 C 0.91953 0.42779 0.90391 0.0
C466 C 0.87372 0.38711 0.89621 0.0
C467 C 0.86438 0.33964 0.90365 0.0
C468 C 0.9468 0.37291 0.92619 0.0
C469 C 0.95623 0.42033 0.9185 0.0
C470 C 0.89095 0.28261 0.9293 0.0
C471 C 0.74471 0.13603 0.87612 0.0
H472 H 0.83943 0.89965 0.79511 0.0
H473 H 0.80561 0.95388 0.78354 0.0
H474 H 0.83179 1.00141 0.89134 0.0
H475 H 0.86487 0.94667 0.90295 0.0
H476 H 0.84491 0.39221 0.88508 0.0
H477 H 0.82856 0.30897 0.89772 0.0
H478 H 0.97536 0.3681 0.93812 0.0
H479 H 0.99168 0.4513 0.92481 0.0
C480 C 0.23194 0.99234 0.09107 0.0
C481 C 0.20229 0.95978 0.11786 0.0
C482 C 0.20227 1.02825 0.1486 0.0
C483 C 0.23687 0.0615 0.12418 0.0
N484 N 0.28944 0.07601 0.07435 0.0
N485 N 0.16461 0.94743 0.17477 0.0
C486 C 0.25288 0.04375 0.09588 0.0
C487 C 0.18857 0.97784 0.14726 0.0
N488 N 0.23886 0.974 0.06051 0.0
N489 N 0.18168 0.0447 0.17264 0.0
H490 H 0.15453 0.91052 0.17503 0.0
H491 H 0.15847 0.95961 0.19856 0.0
H492 H 0.19078 0.08131 0.17438 0.0
H493 H 0.1525 1.02153 0.18867 0.0
H494 H 0.25583 0.99546 0.03855 0.0
H495 H 0.22345 0.93658 0.05589 0.0
H496 H 0.30648 0.0654 0.05575 0.0
H497 H 0.30564 0.11387 0.07693 0.0
C498 C 0.22887 0.1627 0.60786 0.0
C499 C 0.27107 0.18082 0.62965 0.0
C500 C 0.24609 0.23389 0.65967 0.0
C501 C 0.20218 0.21305 0.63984 0.0
N502 N 0.14683 0.14993 0.6004 0.0
N503 N 0.31143 0.22297 0.68296 0.0
C504 C 0.19209 0.17513 0.6155 0.0
C505 C 0.27729 0.2134 0.65748 0.0
N506 N 0.22467 0.13543 0.57894 0.0
N507 N 0.25893 0.27428 0.67987 0.0
H508 H 0.3328 0.20623 0.68367 0.0
H509 H 0.31446 0.24282 0.70554 0.0
H510 H 0.23749 0.29089 0.68186 0.0
H511 H 0.293 0.29402 0.69191 0.0
H512 H 0.19771 0.12622 0.55993 0.0
H513 H 0.25045 0.12544 0.57224 0.0
H514 H 0.13556 0.11848 0.58544 0.0
H515 H 0.11887 0.15768 0.60548 0.0
C516 C 0.05094 0.16142 0.13375 0.0
C517 C 1.0169 0.17843 0.13629 0.0
C518 C 0.08379 0.26295 0.13222 0.0
C519 C 0.11728 0.24611 0.12555 0.0
N520 N 0.13183 0.17892 0.11527 0.0
N521 N 0.99974 0.24473 0.13039 0.0
C522 C 0.1007 0.19515 0.12517 0.0
C523 C 1.03299 0.22902 0.13333 0.0
N524 N 1.03595 0.11333 0.14029 0.0
N525 N 0.10054 0.31121 0.13921 0.0
H526 H 0.96199 0.22108 0.13059 0.0
H527 H 1.00958 0.28072 0.12427 0.0
H528 H 0.13757 0.33694 0.14041 0.0
H529 H 0.07805 0.32461 0.14773 0.0
H530 H 0.0599 0.09967 0.14238 0.0
H531 H 0.99981 0.0877 0.14644 0.0
H532 H 0.12066 0.14221 0.11096 0.0
H533 H 0.16826 0.20254 0.10858 0.0
C534 C 0.84743 1.02611 0.6606 0.0
C535 C 0.85991 1.00019 0.63616 0.0
C536 C 0.90454 0.07499 0.6007 0.0
C537 C 0.89401 0.10149 0.62602 0.0
N538 N 0.8661 0.10491 0.68421 0.0
N539 N 0.90823 1.00171 0.58678 0.0
C540 C 0.86847 0.07775 0.65719 0.0
C541 C 0.89091 1.02523 0.60735 0.0
N542 N 0.81421 1.0012 0.68649 0.0
N543 N 0.92556 0.09659 0.56955 0.0
H544 H 0.89884 0.9653 0.59073 0.0
H545 H 0.93509 1.01931 0.56775 0.0
H546 H 0.9365 0.13291 0.56392 0.0
H547 H 0.92884 0.07768 0.54835 0.0
H548 H 0.79943 1.01718 0.70262 0.0
H549 H 0.79829 0.9635 0.69006 0.0
H550 H 0.85222 0.09052 0.70887 0.0
H551 H 0.88271 0.14292 0.68319 0.0
C552 C 0.91581 0.90654 0.12506 0.0
C553 C 0.90015 0.85594 0.1287 0.0
C554 C 0.81474 0.83618 0.12468 0.0
C555 C 0.83016 0.88611 0.11777 0.0
N556 N 0.89555 0.96806 0.10616 0.0
N557 N 0.83561 0.77198 0.12399 0.0
C558 C 0.88084 0.92117 0.11647 0.0
C559 C 0.84987 0.82059 0.12593 0.0
N560 N 0.9637 0.94059 0.13097 0.0
N561 N 0.7669 0.80407 0.13242 0.0
H562 H 0.86031 0.75903 0.12466 0.0
H563 H 0.79987 0.74502 0.11824 0.0
H564 H 0.74048 0.81458 0.13412 0.0
H565 H 0.75458 0.76847 0.14113 0.0
H566 H 0.97638 0.97801 0.1325 0.0
H567 H 0.99028 0.93119 0.137 0.0
H568 H 0.9319 0.99414 0.10136 0.0
H569 H 0.87094 0.97984 0.09955 0.0
C570 C 1.01383 0.8277 0.59553 0.0
C571 C 0.97953 0.81452 0.62341 0.0
C572 C 1.04542 0.87476 0.66104 0.0
C573 C 0.08029 0.88118 0.6351 0.0
N574 N 0.09827 0.8579 0.57926 0.0
N575 N 0.96545 0.82128 0.68528 0.0
C576 C 0.06468 0.85604 0.60275 0.0
C577 C 0.99589 0.83716 0.65685 0.0
N578 N 0.99797 0.81515 0.56178 0.0
N579 N 0.05943 0.90514 0.68945 0.0
H580 H 0.92974 0.79218 0.68469 0.0
H581 H 0.97731 0.83359 0.71066 0.0
H582 H 0.09535 0.93315 0.69337 0.0
H583 H 1.03465 0.90575 0.70721 0.0
H584 H 1.02134 0.82793 0.54023 0.0
H585 H 0.96109 0.79685 0.55491 0.0
H586 H 0.0886 0.83596 0.55698 0.0
H587 H 0.13592 0.87791 0.58363 0.0
C588 C 0.07767 0.83194 0.36511 0.0
C589 C 0.11136 0.88192 0.37219 0.0
C590 C 1.04547 0.90145 0.36475 0.0
C591 C 1.0111 0.85083 0.36091 0.0
N592 N 0.99308 0.76702 0.36461 0.0
N593 N 0.12571 0.96263 0.38554 0.0
C594 C 1.02682 0.8158 0.36315 0.0
C595 C 0.09482 0.91632 0.37384 0.0
N596 N 0.09439 0.80014 0.3588 0.0
N597 N 1.03128 0.93537 0.35878 0.0
H598 H 0.16128 0.97375 0.39373 0.0
H599 H 0.11471 0.98822 0.39048 0.0
H600 H 0.99555 0.92588 0.35199 0.0
H601 H 0.05573 0.97285 0.35761 0.0
H602 H 0.07218 0.76462 0.34968 0.0
H603 H 0.13138 0.81073 0.35946 0.0
H604 H 1.00222 0.74015 0.3701 0.0
H605 H 0.95544 0.75362 0.36361 0.0
C606 C 0.22529 1.0234 0.82884 0.0
C607 C 0.204 0.99171 0.85793 0.0
C608 C 0.24146 0.06205 0.89755 0.0
C609 C 0.26809 0.09307 0.86911 0.0
N610 N 0.29042 0.10105 0.8077 0.0
N611 N 0.1981 0.97952 0.92056 0.0
C612 C 0.2612 0.07326 0.83465 0.0
C613 C 0.21396 1.01066 0.89248 0.0
N614 N 0.21043 1.00615 0.79561 0.0
N615 N 0.24023 0.08191 0.92901 0.0
H616 H 0.17774 0.94157 0.91798 0.0
H617 H 0.20891 0.99112 0.94624 0.0
H618 H 0.25703 0.11951 0.93273 0.0
H619 H 0.21791 0.06153 0.94979 0.0
H620 H 0.22045 1.02869 0.7736 0.0
H621 H 0.18462 0.96978 0.79033 0.0
H622 H 0.29079 0.08677 0.78318 0.0
H623 H 0.31758 0.13743 0.81045 0.0
C624 C 0.18948 0.22703 0.3359 0.0
C625 C 0.19167 0.24692 0.36994 0.0
C626 C 0.2334 0.20389 0.39189 0.0
C627 C 0.22692 0.18073 0.35898 0.0
N628 N 0.18612 0.15981 0.30294 0.0
N629 N 0.20148 0.23964 0.43233 0.0
C630 C 0.20081 0.1889 0.33204 0.0
C631 C 0.20939 0.231 0.39857 0.0
N632 N 0.17978 0.24605 0.30673 0.0
N633 N 0.26368 0.20148 0.41651 0.0
H634 H 0.18097 0.25611 0.43872 0.0
H635 H 0.20997 0.2249 0.45391 0.0
H636 H 0.28307 0.18306 0.41242 0.0
H637 H 0.27329 0.22192 0.43955 0.0
H638 H 0.18189 0.23495 0.28141 0.0
H639 H 0.17533 0.27657 0.30684 0.0
H640 H 0.16251 0.16088 0.28424 0.0
H641 H 0.19318 0.13108 0.29938 0.0
C642 C 0.06101 0.22241 0.89329 0.0
C643 C 0.07715 0.20535 0.86467 0.0
C644 C 0.99249 0.15736 0.84342 0.0
C645 C 0.97618 0.17293 0.8728 0.0
N646 N 0.99298 0.21102 0.92966 0.0
N647 N 0.05791 0.14912 0.81665 0.0
C648 C 1.00994 0.20269 0.89895 0.0
C649 C 1.0427 0.1704 0.84103 0.0
N650 N 0.09451 0.25884 0.9143 0.0
N651 N 0.96065 0.13235 0.81686 0.0
H652 H 0.09442 0.15813 0.81401 0.0
H653 H 1.034 0.11969 0.80113 0.0
H654 H 0.92375 0.12227 0.81757 0.0
H655 H 0.97143 0.12486 0.79296 0.0
H656 H 0.08518 0.27678 0.93302 0.0
H657 H 0.1322 0.27391 0.91126 0.0
H658 H 1.01524 0.22824 0.95122 0.0
H659 H 0.95579 0.19647 0.93487 0.0
C660 C 0.909 0.03409 0.36419 0.0
C661 C 0.89397 0.06966 0.36678 0.0
C662 C 0.80971 1.00481 0.37755 0.0
C663 C 0.8252 0.96938 0.37809 0.0
N664 N 0.89156 0.95184 0.37853 0.0
N665 N 0.83258 0.08996 0.38388 0.0
C666 C 0.87547 0.98444 0.37321 0.0
C667 C 0.84512 0.05531 0.37597 0.0
N668 N 0.95484 0.0475 0.35222 0.0
N669 N 0.76105 0.99042 0.3763 0.0
H670 H 0.85745 0.12743 0.38307 0.0
H671 H 0.79882 0.08146 0.39454 0.0
H672 H 0.73371 0.95395 0.37522 0.0
H673 H 0.74797 1.01457 0.37211 0.0
H674 H 0.96617 1.02246 0.34615 0.0
H675 H 0.98041 0.0835 0.34567 0.0
H676 H 0.9284 0.96174 0.37874 0.0
H677 H 0.8684 0.91564 0.38608 0.0
C678 C 0.85279 0.79822 0.86018 0.0
C679 C 0.90194 0.81392 0.87009 0.0
C680 C 0.92155 0.89949 0.86425 0.0
C681 C 0.87144 0.88345 0.85744 0.0
N682 N 0.78767 0.81767 0.85679 0.0
N683 N 0.98064 0.87925 0.88848 0.0
C684 C 0.83657 0.83283 0.85771 0.0
C685 C 0.93577 0.86458 0.87399 0.0
N686 N 0.82186 0.75043 0.85166 0.0
N687 N 0.95567 0.94785 0.86059 0.0
H688 H 0.9913 0.8545 0.89708 0.0
H689 H 1.00529 0.91542 0.89505 0.0
H690 H 0.94654 0.97434 0.85361 0.0
H691 H 0.99322 0.96101 0.86165 0.0
H692 H 0.78754 0.73805 0.8404 0.0
H693 H 0.83224 0.72392 0.85257 0.0
H694 H 0.76054 0.78149 0.8609 0.0
H695 H 0.77408 0.84181 0.85537 0.0
C696 C 0.17887 0.66916 0.13702 0.0
C697 C 0.14121 0.6737 0.11987 0.0
C698 C 0.11293 0.59415 0.09135 0.0
C699 C 0.15055 0.58977 0.10869 0.0
N700 N 0.21069 0.61632 0.15472 0.0
N701 N 0.06609 0.63641 0.08715 0.0
C702 C 0.18063 0.62511 0.13377 0.0
C703 C 0.10602 0.63462 0.09921 0.0
N704 N 0.21462 0.70794 0.15497 0.0
N705 N 0.08536 0.56091 0.06621 0.0
H706 H 0.06043 0.66568 0.09259 0.0
H707 H 1.03676 0.60745 0.07443 0.0
H708 H 0.0889 0.53053 0.06023 0.0
H709 H 0.0612 0.56494 0.04977 0.0
H710 H 0.24648 0.70937 0.1641 0.0
H711 H 0.21385 0.74013 0.15886 0.0
H712 H 0.22976 0.63821 0.176 0.0
H713 H 0.21305 0.58451 0.15288 0.0
C714 C 0.59199 0.17855 0.62013 0.0
C715 C 0.5956 0.13897 0.6057 0.0
C716 C 0.5056 0.08875 0.60498 0.0
C717 C 0.50241 0.12847 0.61953 0.0
N718 N 0.54186 0.2045 0.65108 0.0
N719 N 0.55696 0.05356 0.59071 0.0
C720 C 0.54549 0.17124 0.6303 0.0
C721 C 0.55262 0.09303 0.60016 0.0
N722 N 0.63261 0.22395 0.62247 0.0
N723 N 0.46379 0.04767 0.59481 0.0
H724 H 0.59081 0.05578 0.58695 0.0
H725 H 0.52754 1.01804 0.58919 0.0
H726 H 0.42903 0.04276 0.59964 0.0
H727 H 0.46341 1.01951 0.58036 0.0
H728 H 0.63113 0.25532 0.62883 0.0
H729 H 0.6675 0.23133 0.61515 0.0
H730 H 0.57186 0.23434 0.66254 0.0
H731 H 0.50836 0.19872 0.66029 0.0
C732 C 0.43326 0.56674 0.07343 0.0
C733 C 0.47425 0.58147 0.09572 0.0
C734 C 0.43128 0.50229 0.12644 0.0
C735 C 0.39175 0.4864 0.10242 0.0
N736 N 0.36026 0.49975 0.04826 0.0
N737 N 0.51608 0.56125 0.13986 0.0
C738 C 0.39431 0.51759 0.07452 0.0
C739 C 0.47441 0.54858 0.12117 0.0
N740 N 0.43074 0.60021 0.05192 0.0
N741 N 0.42676 0.47439 0.15518 0.0
H742 H 0.54784 0.59512 0.13712 0.0
H743 H 0.52038 0.53701 0.15605 0.0
H744 H 0.39593 0.44042 0.15988 0.0
H745 H 0.45191 0.48642 0.17569 0.0
H746 H 0.3993 0.59309 0.03816 0.0
H747 H 0.45852 0.63664 0.05021 0.0
H748 H 0.36322 0.51902 0.02534 0.0
H749 H 0.33154 0.46377 0.04763 0.0
C750 C 0.89459 0.42316 0.61707 0.0
C751 C 0.93466 0.46695 0.60402 0.0
C752 C 0.98613 0.4282 0.60508 0.0
C753 C 0.94579 0.38446 0.61801 0.0
N754 N 0.8671 0.34557 0.6462 0.0
N755 N 1.02087 0.51492 0.59184 0.0
C756 C 0.90177 0.38374 0.62712 0.0
C757 C 0.9813 0.47066 0.60007 0.0
N758 N 0.84894 0.4182 0.6183 0.0
N759 N 1.02834 0.42851 0.59643 0.0
H760 H 1.01823 0.54629 0.58781 0.0
H761 H 0.0567 0.52157 0.59152 0.0
H762 H 1.03348 0.39878 0.6013 0.0
H763 H 0.05733 0.45707 0.58315 0.0
H764 H 0.81729 0.38511 0.6234 0.0
H765 H 0.84187 0.44615 0.61146 0.0
H766 H 0.83623 0.3448 0.6567 0.0
H767 H 0.87226 0.31725 0.65502 0.0
C768 C 0.55149 0.89641 0.13509 0.0
C769 C 0.59134 0.9302 0.11416 0.0
C770 C 0.53707 0.95634 0.08698 0.0
C771 C 0.49605 0.91588 0.10267 0.0
N772 N 0.46375 0.84445 0.1399 0.0
N773 N 0.62207 0.99341 0.06964 0.0
C774 C 0.50313 0.8854 0.12658 0.0
C775 C 0.58442 0.96116 0.09036 0.0
N776 N 0.56015 0.87574 0.16374 0.0
N777 N 0.53072 0.99046 0.06916 0.0
H778 H 0.65769 0.99996 0.07196 0.0
H779 H 0.6175 1.01195 0.04866 0.0
H780 H 0.49655 0.98785 0.0663 0.0
H781 H 0.55955 1.02343 0.06012 0.0
H782 H 0.53318 0.85405 0.18179 0.0
H783 H 0.59545 0.88508 0.17165 0.0
H784 H 0.46695 0.81795 0.15417 0.0
H785 H 0.42763 0.83478 0.13436 0.0
C786 C 0.69349 0.54615 0.57703 0.0
C787 C 0.69865 0.57596 0.60641 0.0
C788 C 0.61609 0.51464 0.62597 0.0
C789 C 0.61401 0.48253 0.59906 0.0
N790 N 0.65518 0.46446 0.55305 0.0
N791 N 0.6671 0.58666 0.66116 0.0
C792 C 0.65388 0.49745 0.57564 0.0
C793 C 0.66036 0.55991 0.63144 0.0
N794 N 0.7258 0.56481 0.54978 0.0
N795 N 0.57552 0.50221 0.64585 0.0
H796 H 0.6988 0.61994 0.66588 0.0
H797 H 0.64291 0.57427 0.68223 0.0
H798 H 0.54285 0.46928 0.64262 0.0
H799 H 0.57298 0.526 0.66351 0.0
H800 H 0.72078 0.54655 0.52607 0.0
H801 H 0.75491 0.60058 0.54938 0.0
H802 H 0.68596 0.47194 0.53831 0.0
H803 H 0.62747 0.42803 0.55144 0.0
C804 C 0.39332 0.87945 0.36744 0.0
C805 C 0.39303 0.92269 0.37783 0.0
C806 C 0.47938 0.95848 0.39538 0.0
C807 C 0.47588 0.9121 0.39131 0.0
N808 N 0.42755 0.82655 0.37658 0.0
N809 N 0.4368 1.00391 0.40322 0.0
C810 C 0.43249 0.87217 0.37785 0.0
C811 C 0.43659 0.96279 0.39169 0.0
N812 N 0.35638 0.84548 0.34701 0.0
N813 N 0.52384 0.99854 0.40241 0.0
H814 H 0.40742 1.00995 0.40048 0.0
H815 H 0.46533 0.03107 0.4178 0.0
H816 H 0.5557 0.99649 0.40542 0.0
H817 H 0.53004 0.03424 0.40199 0.0
H818 H 0.3572 0.81583 0.33571 0.0
H819 H 0.3274 0.84971 0.3382 0.0
H820 H 0.39452 0.79506 0.37102 0.0
H821 H 0.45524 0.81937 0.384 0.0
C822 C 0.56356 0.45771 0.8699 0.0
C823 C 0.59609 0.45939 0.89643 0.0
C824 C 0.53254 0.37996 0.91862 0.0
C825 C 0.50221 0.37493 0.88945 0.0
N826 N 0.48978 0.40815 0.83591 0.0
N827 N 0.6143 0.41891 0.9429 0.0
C828 C 0.51774 0.41379 0.86481 0.0
C829 C 0.58129 0.4196 0.9199 0.0
N830 N 0.57612 0.49843 0.85006 0.0
N831 N 0.51402 0.34785 0.94604 0.0
H832 H 0.6504 0.44733 0.94494 0.0
H833 H 0.6072 0.38828 0.95773 0.0
H834 H 0.47793 0.31941 0.94689 0.0
H835 H 0.53263 0.35259 0.96959 0.0
H836 H 0.55216 0.50162 0.83287 0.0
H837 H 0.60967 0.5306 0.85266 0.0
H838 H 0.50169 0.43242 0.81485 0.0
H839 H 0.45548 0.37752 0.8319 0.0
C840 C 0.20905 0.58424 0.37868 0.0
C841 C 0.16951 0.5881 0.39267 0.0
C842 C 0.1193 0.49832 0.39428 0.0
C843 C 0.15853 0.49441 0.3789 0.0
N844 N 0.23417 0.53502 0.34597 0.0
N845 N 0.08321 0.54961 0.4048 0.0
C846 C 0.20126 0.53786 0.36774 0.0
C847 C 0.1234 0.54534 0.39757 0.0
N848 N 0.25485 0.62442 0.37732 0.0
N849 N 0.07926 0.45814 0.40769 0.0
H850 H 0.08484 0.58336 0.40725 0.0
H851 H 0.04767 0.51997 0.4049 0.0
H852 H 0.07317 0.42269 0.40586 0.0
H853 H 0.05332 0.46041 0.42325 0.0
H854 H 0.286 0.62243 0.37107 0.0
H855 H 0.26259 0.65905 0.38563 0.0
H856 H 0.26324 0.56559 0.33432 0.0
H857 H 0.22949 0.50202 0.33646 0.0
C858 C 0.65522 0.09601 0.89226 0.0
C859 C 0.69667 0.13455 0.87543 0.0
C860 C 0.65677 0.18461 0.87497 0.0
C861 C 0.61476 0.14576 0.89103 0.0
N862 N 0.56965 0.06108 0.90848 0.0
N863 N 0.73156 0.20975 0.84259 0.0
C864 C 0.61262 0.10029 0.8976 0.0
C865 C 0.69559 0.17696 0.86416 0.0
N866 N 0.65739 0.05638 0.90458 0.0
N867 N 0.66082 0.22972 0.87168 0.0
H868 H 0.75973 0.2045 0.83359 0.0
H869 H 0.73057 0.23898 0.83062 0.0
H870 H 0.63344 0.23715 0.87938 0.0
H871 H 0.69296 0.2609 0.86409 0.0
H872 H 0.63101 1.02997 0.92094 0.0
H873 H 0.68723 0.05135 0.9 0.0
H874 H 0.56417 1.02575 0.91053 0.0
H875 H 0.53799 0.06312 0.9127 0.0
C876 C 0.51259 0.64314 0.4236 0.0
C877 C 0.4959 0.60434 0.39913 0.0
C878 C 0.57109 0.65176 0.36446 0.0
C879 C 0.58917 0.68895 0.39042 0.0
N880 N 0.58151 0.7145 0.4486 0.0
N881 N 0.51176 0.56783 0.34909 0.0
C882 C 0.56115 0.68293 0.42112 0.0
C883 C 0.52596 0.60747 0.37036 0.0
N884 N 0.48138 0.64295 0.44859 0.0
N885 N 0.59575 0.65963 0.33354 0.0
H886 H 0.4787 0.5353 0.35239 0.0
H887 H 0.53421 0.56584 0.32993 0.0
H888 H 0.62883 0.69138 0.32842 0.0
H889 H 0.58176 0.63641 0.31202 0.0
H890 H 0.48963 0.67295 0.46445 0.0
H891 H 0.4454 0.61456 0.45139 0.0
H892 H 0.56495 0.70881 0.47309 0.0
H893 H 0.61712 0.7438 0.44818 0.0
C894 C 0.95329 0.55213 0.8633 0.0
C895 C 0.9363 0.57164 0.88981 0.0
C896 C 0.91538 0.50004 0.92716 0.0
C897 C 0.9276 0.47833 0.89934 0.0
N898 N 0.95538 0.4812 0.84021 0.0
N899 N 0.89758 0.56277 0.94609 0.0
C900 C 0.94615 0.50386 0.86725 0.0
C901 C 0.9165 0.54523 0.92153 0.0
N902 N 0.97599 0.57966 0.8343 0.0
N903 N 0.90358 0.47781 0.95932 0.0
H904 H 0.9005 0.59708 0.9444 0.0
H905 H 0.8765 0.54232 0.96727 0.0
H906 H 0.90082 0.44396 0.96428 0.0
H907 H 0.90021 0.49441 0.98188 0.0
H908 H 0.9937 0.57001 0.81563 0.0
H909 H 0.97995 0.61411 0.82989 0.0
H910 H 0.96376 0.49511 0.81484 0.0
H911 H 0.95185 0.44659 0.84261 0.0
C912 C 0.22076 0.42983 0.25707 0.0
C913 C 0.2293 0.4025 0.28304 0.0
C914 C 0.25156 0.36333 0.23747 0.0
C915 C 0.24849 0.39431 0.2117 0.0
N916 N 0.24219 0.46619 0.19917 0.0
N917 N 0.26723 0.35405 0.29792 0.0
C918 C 0.2368 0.43052 0.22211 0.0
C919 C 0.25048 0.37375 0.27331 0.0
N920 N 0.19636 0.45408 0.26543 0.0
N921 N 0.25014 0.32085 0.22807 0.0
H922 H 0.26559 0.35851 0.32478 0.0
H923 H 0.28679 0.33655 0.29124 0.0
H924 H 0.24193 0.30709 0.20271 0.0
H925 H 0.24947 0.29571 0.24616 0.0
H926 H 0.18481 0.47026 0.24669 0.0
H927 H 0.18442 0.45478 0.29076 0.0
H928 H 0.2379 0.49568 0.20649 0.0
H929 H 0.25615 0.46929 0.17394 0.0
C930 C 0.89251 0.27077 0.73632 0.0
C931 C 0.86455 0.23441 0.71108 0.0
C932 C 0.80875 0.18404 0.75732 0.0
C933 C 0.84375 0.214 0.78271 0.0
N934 N 0.91986 0.28721 0.79655 0.0
N935 N 0.79575 0.15456 0.69777 0.0
C936 C 0.88533 0.25852 0.77245 0.0
C937 C 0.82172 0.191 0.7214 0.0
N938 N 0.92629 0.31675 0.72557 0.0
N939 N 0.76347 0.14832 0.76776 0.0
H940 H 0.80425 0.15724 0.67124 0.0
H941 H 0.76793 0.11988 0.70503 0.0
H942 H 0.75307 0.14289 0.79402 0.0
H943 H 0.73496 0.12805 0.75033 0.0
H944 H 0.94486 0.346 0.74274 0.0
H945 H 0.93174 0.32666 0.69919 0.0
H946 H 0.95379 0.31664 0.78967 0.0
H947 H 0.9161 0.28008 0.82335 0.0
C948 C 0.72325 0.89593 0.23688 0.0
C949 C 0.68385 0.86569 0.21439 0.0
C950 C 0.63921 0.81473 0.26495 0.0
C951 C 0.67678 0.84865 0.28746 0.0
N952 N 0.74875 0.92823 0.29479 0.0
N953 N 0.60124 0.79925 0.20729 0.0
C954 C 0.71656 0.89159 0.27342 0.0
C955 C 0.64078 0.82572 0.22844 0.0
N956 N 0.76852 0.92665 0.22341 0.0
N957 N 0.60253 0.77197 0.27843 0.0
H958 H 0.60167 0.80606 0.18049 0.0
H959 H 0.56716 0.77283 0.21666 0.0
H960 H 0.59902 0.76435 0.30525 0.0
H961 H 0.57715 0.74332 0.26298 0.0
H962 H 0.79974 0.94591 0.2388 0.0
H963 H 0.77607 0.92767 0.19689 0.0
H964 H 0.77539 0.96229 0.28543 0.0
H965 H 0.74563 0.92681 0.32182 0.0
C966 C 0.82286 0.62992 0.73211 0.0
C967 C 0.85955 0.66167 0.70819 0.0
C968 C 0.91584 0.70125 0.75631 0.0
C969 C 0.88159 0.66684 0.78031 0.0
N970 N 0.80528 0.59199 0.78975 0.0
N971 N 0.94583 0.71618 0.69716 0.0
C972 C 0.83568 0.62914 0.76791 0.0
C973 C 0.90777 0.69295 0.72009 0.0
N974 N 0.77603 0.60073 0.72062 0.0
N975 N 0.95384 0.74447 0.76788 0.0
H976 H 0.94208 0.71231 0.67009 0.0
H977 H 0.98215 0.73589 0.70546 0.0
H978 H 0.95667 0.75552 0.79381 0.0
H979 H 0.97791 0.77215 0.75112 0.0
H980 H 0.74658 0.58094 0.73743 0.0
H981 H 0.76642 0.59818 0.6942 0.0
H982 H 0.77326 0.56136 0.78129 0.0
H983 H 0.8143 0.5896 0.8157 0.0
C984 C 0.27263 0.86783 0.22338 0.0
C985 C 0.22825 0.82677 0.21256 0.0
C986 C 0.204 0.80382 0.27371 0.0
C987 C 0.24737 0.84677 0.28474 0.0
N988 N 0.33135 0.90518 0.27029 0.0
N989 N 0.1629 0.74607 0.22685 0.0
C990 C 0.28464 0.87368 0.25956 0.0
C991 C 0.1979 0.79149 0.23764 0.0
N992 N 0.30153 0.90321 0.19987 0.0
N993 N 0.16685 0.77626 0.29646 0.0
H994 H 0.15789 0.73595 0.20058 0.0
H995 H 0.14291 0.71714 0.24405 0.0
H996 H 0.16932 0.77932 0.32346 0.0
H997 H 0.13189 0.75036 0.28809 0.0
H998 H 0.33133 0.93657 0.20735 0.0
H999 H 0.29371 0.90096 0.1732 0.0
H1000 H 0.36062 0.92262 0.25295 0.0
H1001 H 0.34159 0.90956 0.29662 0.0
C1002 C 0.44422 0.26497 0.76251 0.0
C1003 C 0.42914 0.22618 0.78715 0.0
C1004 C 0.43392 0.17594 0.74034 0.0
C1005 C 0.43315 0.20855 0.71514 0.0
N1006 N 0.43776 0.28608 0.7026 0.0
N1007 N 0.40702 0.14106 0.79755 0.0
C1008 C 0.43937 0.25421 0.72613 0.0
C1009 C 0.42435 0.18087 0.77589 0.0
N1010 N 0.46388 0.31203 0.77393 0.0
N1011 N 0.44287 0.13966 0.73006 0.0
H1012 H 0.39674 0.14033 0.82346 0.0
H1013 H 0.39799 0.10637 0.78852 0.0
H1014 H 0.45118 0.13626 0.70413 0.0
H1015 H 0.44782 0.11722 0.74774 0.0
H1016 H 0.47851 0.34204 0.75703 0.0
H1017 H 0.47114 0.32098 0.8004 0.0
H1018 H 0.43654 0.31719 0.71026 0.0
H1019 H 0.4343 0.27998 0.67569 0.0
C1020 C 0.27929 0.24026 0.9876 0.0
C1021 C 0.32656 0.2697 0.97316 0.0
C1022 C 0.33403 0.34014 0.0062 0.0
C1023 C 0.28458 0.3116 0.01741 0.0
N1024 N 0.20701 0.23732 0.01202 0.0
N1025 N 0.3957 0.35075 0.96401 0.0
C1026 C 0.25624 0.26257 0.00578 0.0
C1027 C 0.35308 0.32054 0.9811 0.0
N1028 N 0.25752 0.19056 0.98562 0.0
N1029 N 0.36395 0.3849 0.02075 0.0
H1030 H 0.41197 0.3382 0.94636 0.0
H1031 H 0.41305 0.38877 0.96547 0.0
H1032 H 0.35193 0.4013 0.03872 0.0
H1033 H 0.4017 0.4042 0.01696 0.0
H1034 H 0.22472 0.16684 -0.00187 0.0
H1035 H 0.27581 0.17349 0.97538 0.0
H1036 H 0.18375 0.20287 0.0015 0.0
H1037 H 0.18884 0.2531 0.0246 0.0
C1038 C 0.0696 0.34837 0.48483 0.0
C1039 C 0.08464 0.31582 0.4713 0.0
C1040 C 1.01522 0.24723 0.50138 0.0
C1041 C 1.00465 0.28047 0.51866 0.0
N1042 N 1.02083 0.3628 0.52722 0.0
N1043 N 0.07637 0.2354 0.47191 0.0
C1044 C 1.03166 0.33111 0.5104 0.0
C1045 C 0.05852 0.26548 0.48095 0.0
N1046 N 0.08954 0.39501 0.4721 0.0
N1047 N 0.98355 0.19816 0.50412 0.0
H1048 H 0.10916 0.24791 0.45843 0.0
H1049 H 0.06166 0.19962 0.48099 0.0
H1050 H 0.95052 0.18416 0.51754 0.0
H1051 H 0.987 0.17203 0.48967 0.0
H1052 H 0.07614 0.41842 0.47795 0.0
H1053 H 0.11726 0.40974 0.45348 0.0
H1054 H 1.04309 0.40066 0.52655 0.0
H1055 H 0.98993 0.35082 0.54301 0.0
C1056 C 0.73162 1.00529 0.00381 0.0
C1057 C 0.76211 0.98837 0.01826 0.0
C1058 C 0.83058 0.04791 0.98168 0.0
C1059 C 0.80136 0.06807 0.97058 0.0
N1060 N 0.72743 0.07212 0.97562 0.0
N1061 N 0.84083 0.99298 0.02098 0.0
C1062 C 0.75287 0.04848 0.98306 0.0
C1063 C 0.81177 1.00967 0.00716 0.0
N1064 N 0.6822 0.97976 0.00902 0.0
N1065 N 0.87541 0.06384 0.96669 0.0
H1066 H 0.82695 0.96141 0.03633 0.0
H1067 H 0.87869 1.01093 0.01806 0.0
H1068 H 0.89111 0.09318 0.94921 0.0
H1069 H 0.89609 0.04671 0.97016 0.0
H1070 H 0.65793 0.9875 0.99573 0.0
H1071 H 0.6645 0.94789 0.02381 0.0
H1072 H 0.69375 0.06275 0.98683 0.0
H1073 H 0.7424 0.10437 0.96094 0.0
C1074 C 0.75672 0.72419 0.51044 0.0
C1075 C 0.80656 0.7524 0.52085 0.0
C1076 C 0.81342 0.82226 0.48739 0.0
C1077 C 0.76553 0.7924 0.47397 0.0
N1078 N 0.69551 0.71137 0.46718 0.0
N1079 N 0.88489 0.82548 0.51379 0.0
C1080 C 0.73817 0.7424 0.48398 0.0
C1081 C 0.83562 0.8007 0.50772 0.0
N1082 N 0.72606 0.68104 0.52686 0.0
N1083 N 0.83726 0.87159 0.48141 0.0
H1084 H 0.90249 0.8102 0.52771 0.0
H1085 H 0.90882 0.85885 0.50204 0.0
H1086 H 0.82157 0.88874 0.46731 0.0
H1087 H 0.87029 0.89599 0.49334 0.0
H1088 H 0.68826 0.66232 0.52324 0.0
H1089 H 0.73743 0.66599 0.54641 0.0
H1090 H 0.67742 0.67353 0.47048 0.0
H1091 H 0.68038 0.72268 0.44761 0.0
C1092 C 1.02283 0.79207 0.98925 0.0
C1093 C 1.00574 0.74537 0.9737 0.0
C1094 C 0.06728 0.73546 0.00702 0.0
C1095 C 0.08554 0.78291 0.02128 0.0
N1096 N 0.08613 0.85938 0.02301 0.0
N1097 N 1.01544 0.67479 0.96456 0.0
C1098 C 0.06498 0.81219 0.01133 0.0
C1099 C 1.02881 0.71752 0.98188 0.0
N1100 N 0.99746 0.81629 0.98373 0.0
N1101 N 0.08615 0.707 0.01829 0.0
H1102 H 0.98544 0.65843 0.94798 0.0
H1103 H 1.03523 0.65643 0.96534 0.0
H1104 H 0.11707 0.72047 0.03424 0.0
H1105 H 0.07029 0.66976 0.01312 0.0
H1106 H 1.00492 0.8484 0.99652 0.0
H1107 H 0.96585 0.8019 0.9684 0.0
H1108 H 0.07594 0.88448 0.01462 0.0
H1109 H 0.11701 0.87481 0.03912 0.0
C1110 C 0.26832 1.02289 0.4819 0.0
C1111 C 0.29278 0.99758 0.47079 0.0
C1112 C 0.36103 0.04819 0.51052 0.0
C1113 C 0.33718 0.07445 0.5205 0.0
N1114 N 0.27532 0.09592 0.50863 0.0
N1115 N 0.36722 0.99298 0.46956 0.0
C1116 C 0.29312 0.06476 0.50384 0.0
C1117 C 0.34044 1.01196 0.48381 0.0
N1118 N 0.22046 1.00549 0.47287 0.0
N1119 N 0.40362 0.05797 0.52681 0.0
H1120 H 0.35417 0.96649 0.45004 0.0
H1121 H 0.40405 1.00612 0.47505 0.0
H1122 H 0.42246 0.08774 0.54354 0.0
H1123 H 0.41933 0.03579 0.52479 0.0
H1124 H 0.19928 1.01963 0.4828 0.0
H1125 H 0.20029 0.97353 0.45837 0.0
H1126 H 0.24547 0.09325 0.49491 0.0
H1127 H 0.29406 0.12788 0.52329 0.0
loop_
_geom_bond_atom_site_label_1
_geom_bond_atom_site_label_2
_geom_bond_distance
_geom_bond_site_symmetry_2
_ccdc_geom_bond_type
Tb0 C9 2.764 . S
Tb0 O10 2.325 . S
Tb0 O13 2.303 . S
Tb0 O17 2.322 . S
Tb0 O18 2.349 . S
Tb0 O21 2.415 . S
Tb0 O22 2.399 . S
Tb1 O11 2.322 . S
Tb1 O12 2.349 . S
Tb1 O14 2.415 . S
Tb1 O15 2.399 . S
Tb1 O16 2.325 . S
Tb1 O19 2.303 . S
Tb1 C30 2.764 . S
C2 O18 1.261 . S
C2 O19 1.257 . S
C3 C6 1.358 . S
C3 C7 1.332 . S
C3 C9 1.504 . S
C4 C5 1.373 . S
C4 C8 1.308 . S
C5 C4 1.373 . S
C5 C6 1.429 . S
C5 H32 0.932 . S
C6 C3 1.358 . S
C6 C5 1.429 . S
C6 H33 0.930 . S
C7 C3 1.332 . S
C7 C8 1.394 . S
C7 H34 0.932 . S
C8 C4 1.308 . S
C8 C7 1.394 . S
C8 H35 0.929 . S
C9 Tb0 2.764 . S
C9 C3 1.504 . S
C9 O21 1.239 . S
C9 O22 1.263 . S
O10 Tb0 2.325 . S
O10 C20 1.236 . S
O11 Tb1 2.322 . S
O11 C20 1.257 . S
O12 Tb1 2.349 . S
O12 C23 1.261 . S
O13 Tb0 2.303 . S
O13 C23 1.257 . S
O14 Tb1 2.415 . S
O14 C30 1.239 . S
O15 Tb1 2.399 . S
O15 C30 1.263 . S
O16 Tb1 2.325 . S
O16 C31 1.236 . S
O17 Tb0 2.322 . S
O17 C31 1.257 . S
O18 Tb0 2.349 . S
O18 C2 1.261 . S
O19 Tb1 2.303 . S
O19 C2 1.257 . S
C20 O10 1.236 . S
C20 O11 1.257 . S
O21 Tb0 2.415 . S
O21 C9 1.239 . S
O22 Tb0 2.399 . S
O22 C9 1.263 . S
C23 O12 1.261 . S
C23 O13 1.257 . S
C24 C27 1.358 . S
C24 C28 1.332 . S
C24 C30 1.504 . S
C25 C26 1.373 . S
C25 C29 1.308 . S
C26 C25 1.373 . S
C26 C27 1.429 . S
C26 H36 0.932 . S
C27 C24 1.358 . S
C27 C26 1.429 . S
C27 H37 0.930 . S
C28 C24 1.332 . S
C28 C29 1.394 . S
C28 H38 0.932 . S
C29 C25 1.308 . S
C29 C28 1.394 . S
C29 H39 0.929 . S
C30 Tb1 2.764 . S
C30 O14 1.239 . S
C30 O15 1.263 . S
C30 C24 1.504 . S
C31 O16 1.236 . S
C31 O17 1.257 . S
H32 C5 0.932 . S
H33 C6 0.930 . S
H34 C7 0.932 . S
H35 C8 0.929 . S
H36 C26 0.932 . S
H37 C27 0.930 . S
H38 C28 0.932 . S
H39 C29 0.929 . S
Tb40 C49 2.764 . S
Tb40 O50 2.325 . S
Tb40 O53 2.303 . S
Tb40 O57 2.322 . S
Tb40 O58 2.349 . S
Tb40 O61 2.415 . S
Tb40 O62 2.399 . S
Tb41 O51 2.322 . S
Tb41 O52 2.349 . S
Tb41 O54 2.415 . S
Tb41 O55 2.399 . S
Tb41 O56 2.325 . S
Tb41 O59 2.303 . S
Tb41 C70 2.764 . S
C42 O58 1.261 . S
C42 O59 1.257 . S
C43 C46 1.358 . S
C43 C47 1.332 . S
C43 C49 1.504 1_455 S
C44 C45 1.373 . S
C44 C48 1.308 . S
C45 C44 1.373 . S
C45 C46 1.429 . S
C45 H72 0.932 . S
C46 C43 1.358 . S
C46 C45 1.429 . S
C46 H73 0.930 . S
C47 C43 1.332 . S
C47 C48 1.394 . S
C47 H74 0.932 . S
C48 C44 1.308 . S
C48 C47 1.394 . S
C48 H75 0.929 . S
C49 Tb40 2.764 . S
C49 C43 1.504 1_655 S
C49 O61 1.239 . S
C49 O62 1.263 . S
O50 Tb40 2.325 . S
O50 C60 1.236 . S
O51 Tb41 2.322 . S
O51 C60 1.257 . S
O52 Tb41 2.349 . S
O52 C63 1.261 . S
O53 Tb40 2.303 . S
O53 C63 1.257 . S
O54 Tb41 2.415 . S
O54 C70 1.239 . S
O55 Tb41 2.399 . S
O55 C70 1.263 . S
O56 Tb41 2.325 . S
O56 C71 1.236 . S
O57 Tb40 2.322 . S
O57 C71 1.257 . S
O58 Tb40 2.349 . S
O58 C42 1.261 . S
O59 Tb41 2.303 . S
O59 C42 1.257 . S
C60 O50 1.236 . S
C60 O51 1.257 . S
O61 Tb40 2.415 . S
O61 C49 1.239 . S
O62 Tb40 2.399 . S
O62 C49 1.263 . S
C63 O52 1.261 . S
C63 O53 1.257 . S
C64 C67 1.358 . S
C64 C68 1.332 . S
C64 C70 1.504 . S
C65 C66 1.373 . S
C65 C69 1.308 . S
C66 C65 1.373 . S
C66 C67 1.429 . S
C66 H76 0.932 . S
C67 C64 1.358 . S
C67 C66 1.429 . S
C67 H77 0.930 . S
C68 C64 1.332 . S
C68 C69 1.394 . S
C68 H78 0.932 . S
C69 C65 1.308 . S
C69 C68 1.394 . S
C69 H79 0.929 . S
C70 Tb41 2.764 . S
C70 O54 1.239 . S
C70 O55 1.263 . S
C70 C64 1.504 . S
C71 O56 1.236 . S
C71 O57 1.257 . S
H72 C45 0.932 . S
H73 C46 0.930 . S
H74 C47 0.932 . S
H75 C48 0.929 . S
H76 C66 0.932 . S
H77 C67 0.930 . S
H78 C68 0.932 . S
H79 C69 0.929 . S
Tb80 C89 2.764 . S
Tb80 O90 2.325 . S
Tb80 O93 2.303 . S
Tb80 O97 2.322 . S
Tb80 O98 2.349 . S
Tb80 O101 2.415 . S
Tb80 O102 2.399 . S
Tb81 O91 2.322 . S
Tb81 O92 2.349 . S
Tb81 O94 2.415 . S
Tb81 O95 2.399 . S
Tb81 O96 2.325 . S
Tb81 O99 2.303 . S
Tb81 C110 2.764 . S
C82 O98 1.261 . S
C82 O99 1.257 . S
C83 C86 1.358 . S
C83 C87 1.332 . S
C83 C89 1.504 1_545 S
C84 C85 1.373 . S
C84 C88 1.308 . S
C85 C84 1.373 . S
C85 C86 1.429 . S
C85 H112 0.932 . S
C86 C83 1.358 . S
C86 C85 1.429 . S
C86 H113 0.930 . S
C87 C83 1.332 . S
C87 C88 1.394 . S
C87 H114 0.932 . S
C88 C84 1.308 . S
C88 C87 1.394 . S
C88 H115 0.929 . S
C89 Tb80 2.764 . S
C89 C83 1.504 1_565 S
C89 O101 1.239 . S
C89 O102 1.263 . S
O90 Tb80 2.325 . S
O90 C100 1.236 . S
O91 Tb81 2.322 . S
O91 C100 1.257 . S
O92 Tb81 2.349 . S
O92 C103 1.261 . S
O93 Tb80 2.303 . S
O93 C103 1.257 . S
O94 Tb81 2.415 . S
O94 C110 1.239 . S
O95 Tb81 2.399 . S
O95 C110 1.263 . S
O96 Tb81 2.325 . S
O96 C111 1.236 . S
O97 Tb80 2.322 . S
O97 C111 1.257 . S
O98 Tb80 2.349 . S
O98 C82 1.261 . S
O99 Tb81 2.303 . S
O99 C82 1.257 . S
C100 O90 1.236 . S
C100 O91 1.257 . S
O101 Tb80 2.415 . S
O101 C89 1.239 . S
O102 Tb80 2.399 . S
O102 C89 1.263 . S
C103 O92 1.261 . S
C103 O93 1.257 . S
C104 C107 1.358 . S
C104 C108 1.332 . S
C104 C110 1.504 . S
C105 C106 1.373 . S
C105 C109 1.308 . S
C106 C105 1.373 . S
C106 C107 1.429 . S
C106 H116 0.932 . S
C107 C104 1.358 . S
C107 C106 1.429 . S
C107 H117 0.930 . S
C108 C104 1.332 . S
C108 C109 1.394 . S
C108 H118 0.932 . S
C109 C105 1.308 . S
C109 C108 1.394 . S
C109 H119 0.929 . S
C110 Tb81 2.764 . S
C110 O94 1.239 . S
C110 O95 1.263 . S
C110 C104 1.504 . S
C111 O96 1.236 . S
C111 O97 1.257 . S
H112 C85 0.932 . S
H113 C86 0.930 . S
H114 C87 0.932 . S
H115 C88 0.929 . S
H116 C106 0.932 . S
H117 C107 0.930 . S
H118 C108 0.932 . S
H119 C109 0.929 . S
Tb120 C129 2.764 . S
Tb120 O130 2.325 . S
Tb120 O133 2.303 . S
Tb120 O137 2.322 . S
Tb120 O138 2.349 . S
Tb120 O141 2.415 . S
Tb120 O142 2.399 . S
Tb121 O131 2.322 . S
Tb121 O132 2.349 . S
Tb121 O134 2.415 . S
Tb121 O135 2.399 . S
Tb121 O136 2.325 . S
Tb121 O139 2.303 . S
Tb121 C150 2.764 . S
C122 O138 1.261 . S
C122 O139 1.257 . S
C123 C126 1.358 . S
C123 C127 1.332 . S
C123 C129 1.504 . S
C124 C125 1.373 . S
C124 C128 1.308 . S
C125 C124 1.373 . S
C125 C126 1.429 . S
C125 H152 0.932 . S
C126 C123 1.358 . S
C126 C125 1.429 . S
C126 H153 0.930 . S
C127 C123 1.332 . S
C127 C128 1.394 . S
C127 H154 0.932 . S
C128 C124 1.308 . S
C128 C127 1.394 . S
C128 H155 0.929 . S
C129 Tb120 2.764 . S
C129 C123 1.504 . S
C129 O141 1.239 . S
C129 O142 1.263 . S
O130 Tb120 2.325 . S
O130 C140 1.236 . S
O131 Tb121 2.322 . S
O131 C140 1.257 . S
O132 Tb121 2.349 . S
O132 C143 1.261 . S
O133 Tb120 2.303 . S
O133 C143 1.257 . S
O134 Tb121 2.415 . S
O134 C150 1.239 . S
O135 Tb121 2.399 . S
O135 C150 1.263 . S
O136 Tb121 2.325 . S
O136 C151 1.236 . S
O137 Tb120 2.322 . S
O137 C151 1.257 . S
O138 Tb120 2.349 . S
O138 C122 1.261 . S
O139 Tb121 2.303 . S
O139 C122 1.257 . S
C140 O130 1.236 . S
C140 O131 1.257 . S
O141 Tb120 2.415 . S
O141 C129 1.239 . S
O142 Tb120 2.399 . S
O142 C129 1.263 . S
C143 O132 1.261 . S
C143 O133 1.257 . S
C144 C147 1.358 . S
C144 C148 1.332 . S
C144 C150 1.504 . S
C145 C146 1.373 . S
C145 C149 1.308 . S
C146 C145 1.373 . S
C146 C147 1.429 . S
C146 H156 0.932 . S
C147 C144 1.358 . S
C147 C146 1.429 . S
C147 H157 0.930 . S
C148 C144 1.332 . S
C148 C149 1.394 . S
C148 H158 0.932 . S
C149 C145 1.308 . S
C149 C148 1.394 . S
C149 H159 0.929 . S
C150 Tb121 2.764 . S
C150 O134 1.239 . S
C150 O135 1.263 . S
C150 C144 1.504 . S
C151 O136 1.236 . S
C151 O137 1.257 . S
H152 C125 0.932 . S
H153 C126 0.930 . S
H154 C127 0.932 . S
H155 C128 0.929 . S
H156 C146 0.932 . S
H157 C147 0.930 . S
H158 C148 0.932 . S
H159 C149 0.929 . S
Tb160 C169 2.764 . S
Tb160 O170 2.325 . S
Tb160 O173 2.303 . S
Tb160 O177 2.322 . S
Tb160 O178 2.349 . S
Tb160 O181 2.415 . S
Tb160 O182 2.399 . S
Tb161 O171 2.322 . S
Tb161 O172 2.349 . S
Tb161 O174 2.415 . S
Tb161 O175 2.399 . S
Tb161 O176 2.325 . S
Tb161 O179 2.303 . S
Tb161 C190 2.764 . S
C162 O178 1.261 . S
C162 O179 1.257 . S
C163 C166 1.358 . S
C163 C167 1.332 . S
C163 C169 1.504 1_655 S
C164 C165 1.373 . S
C164 C168 1.308 . S
C165 C164 1.373 . S
C165 C166 1.429 . S
C165 H192 0.932 . S
C166 C163 1.358 . S
C166 C165 1.429 . S
C166 H193 0.930 . S
C167 C163 1.332 . S
C167 C168 1.394 . S
C167 H194 0.932 . S
C168 C164 1.308 . S
C168 C167 1.394 . S
C168 H195 0.929 . S
C169 Tb160 2.764 . S
C169 C163 1.504 1_455 S
C169 O181 1.239 . S
C169 O182 1.263 . S
O170 Tb160 2.325 . S
O170 C180 1.236 . S
O171 Tb161 2.322 . S
O171 C180 1.257 . S
O172 Tb161 2.349 . S
O172 C183 1.261 . S
O173 Tb160 2.303 . S
O173 C183 1.257 . S
O174 Tb161 2.415 . S
O174 C190 1.239 . S
O175 Tb161 2.399 . S
O175 C190 1.263 . S
O176 Tb161 2.325 . S
O176 C191 1.236 . S
O177 Tb160 2.322 . S
O177 C191 1.257 . S
O178 Tb160 2.349 . S
O178 C162 1.261 . S
O179 Tb161 2.303 . S
O179 C162 1.257 . S
C180 O170 1.236 . S
C180 O171 1.257 . S
O181 Tb160 2.415 . S
O181 C169 1.239 . S
O182 Tb160 2.399 . S
O182 C169 1.263 . S
C183 O172 1.261 . S
C183 O173 1.257 . S
C184 C187 1.358 . S
C184 C188 1.332 . S
C184 C190 1.504 . S
C185 C186 1.373 . S
C185 C189 1.308 . S
C186 C185 1.373 . S
C186 C187 1.429 . S
C186 H196 0.932 . S
C187 C184 1.358 . S
C187 C186 1.429 . S
C187 H197 0.930 . S
C188 C184 1.332 . S
C188 C189 1.394 . S
C188 H198 0.932 . S
C189 C185 1.308 . S
C189 C188 1.394 . S
C189 H199 0.929 . S
C190 Tb161 2.764 . S
C190 O174 1.239 . S
C190 O175 1.263 . S
C190 C184 1.504 . S
C191 O176 1.236 . S
C191 O177 1.257 . S
H192 C165 0.932 . S
H193 C166 0.930 . S
H194 C167 0.932 . S
H195 C168 0.929 . S
H196 C186 0.932 . S
H197 C187 0.930 . S
H198 C188 0.932 . S
H199 C189 0.929 . S
Tb200 C209 2.764 . S
Tb200 O210 2.325 . S
Tb200 O213 2.303 . S
Tb200 O217 2.322 . S
Tb200 O218 2.349 . S
Tb200 O221 2.415 . S
Tb200 O222 2.399 . S
Tb201 O211 2.322 . S
Tb201 O212 2.349 . S
Tb201 O214 2.415 . S
Tb201 O215 2.399 . S
Tb201 O216 2.325 . S
Tb201 O219 2.303 . S
Tb201 C230 2.764 . S
C202 O218 1.261 . S
C202 O219 1.257 . S
C203 C206 1.358 . S
C203 C207 1.332 . S
C203 C209 1.504 1_565 S
C204 C205 1.373 . S
C204 C208 1.308 . S
C205 C204 1.373 . S
C205 C206 1.429 . S
C205 H232 0.932 . S
C206 C203 1.358 . S
C206 C205 1.429 . S
C206 H233 0.930 . S
C207 C203 1.332 . S
C207 C208 1.394 . S
C207 H234 0.932 . S
C208 C204 1.308 . S
C208 C207 1.394 . S
C208 H235 0.929 . S
C209 Tb200 2.764 . S
C209 C203 1.504 1_545 S
C209 O221 1.239 . S
C209 O222 1.263 . S
O210 Tb200 2.325 . S
O210 C220 1.236 . S
O211 Tb201 2.322 . S
O211 C220 1.257 . S
O212 Tb201 2.349 . S
O212 C223 1.261 . S
O213 Tb200 2.303 . S
O213 C223 1.257 . S
O214 Tb201 2.415 . S
O214 C230 1.239 . S
O215 Tb201 2.399 . S
O215 C230 1.263 . S
O216 Tb201 2.325 . S
O216 C231 1.236 . S
O217 Tb200 2.322 . S
O217 C231 1.257 . S
O218 Tb200 2.349 . S
O218 C202 1.261 . S
O219 Tb201 2.303 . S
O219 C202 1.257 . S
C220 O210 1.236 . S
C220 O211 1.257 . S
O221 Tb200 2.415 . S
O221 C209 1.239 . S
O222 Tb200 2.399 . S
O222 C209 1.263 . S
C223 O212 1.261 . S
C223 O213 1.257 . S
C224 C227 1.358 . S
C224 C228 1.332 . S
C224 C230 1.504 . S
C225 C226 1.373 . S
C225 C229 1.308 . S
C226 C225 1.373 . S
C226 C227 1.429 . S
C226 H236 0.932 . S
C227 C224 1.358 . S
C227 C226 1.429 . S
C227 H237 0.930 . S
C228 C224 1.332 . S
C228 C229 1.394 . S
C228 H238 0.932 . S
C229 C225 1.308 . S
C229 C228 1.394 . S
C229 H239 0.929 . S
C230 Tb201 2.764 . S
C230 O214 1.239 . S
C230 O215 1.263 . S
C230 C224 1.504 . S
C231 O216 1.236 . S
C231 O217 1.257 . S
H232 C205 0.932 . S
H233 C206 0.930 . S
H234 C207 0.932 . S
H235 C208 0.929 . S
H236 C226 0.932 . S
H237 C227 0.930 . S
H238 C228 0.932 . S
H239 C229 0.929 . S
Tb240 C249 2.764 . S
Tb240 O250 2.325 . S
Tb240 O253 2.303 . S
Tb240 O257 2.322 . S
Tb240 O258 2.349 . S
Tb240 O261 2.415 . S
Tb240 O262 2.399 . S
Tb241 O251 2.322 . S
Tb241 O252 2.349 . S
Tb241 O254 2.415 . S
Tb241 O255 2.399 . S
Tb241 O256 2.325 . S
Tb241 O259 2.303 . S
Tb241 C270 2.764 . S
C242 O258 1.261 . S
C242 O259 1.257 . S
C243 C246 1.358 . S
C243 C247 1.332 . S
C243 C249 1.504 . S
C244 C245 1.373 . S
C244 C248 1.308 . S
C245 C244 1.373 . S
C245 C246 1.429 . S
C245 H272 0.932 . S
C246 C243 1.358 . S
C246 C245 1.429 . S
C246 H273 0.930 . S
C247 C243 1.332 . S
C247 C248 1.394 . S
C247 H274 0.932 . S
C248 C244 1.308 . S
C248 C247 1.394 . S
C248 H275 0.929 . S
C249 Tb240 2.764 . S
C249 C243 1.504 . S
C249 O261 1.239 . S
C249 O262 1.263 . S
O250 Tb240 2.325 . S
O250 C260 1.236 . S
O251 Tb241 2.322 . S
O251 C260 1.257 . S
O252 Tb241 2.349 . S
O252 C263 1.261 . S
O253 Tb240 2.303 . S
O253 C263 1.257 . S
O254 Tb241 2.415 . S
O254 C270 1.239 . S
O255 Tb241 2.399 . S
O255 C270 1.263 . S
O256 Tb241 2.325 . S
O256 C271 1.236 . S
O257 Tb240 2.322 . S
O257 C271 1.257 . S
O258 Tb240 2.349 . S
O258 C242 1.261 . S
O259 Tb241 2.303 . S
O259 C242 1.257 . S
C260 O250 1.236 . S
C260 O251 1.257 . S
O261 Tb240 2.415 . S
O261 C249 1.239 . S
O262 Tb240 2.399 . S
O262 C249 1.263 . S
C263 O252 1.261 . S
C263 O253 1.257 . S
C264 C267 1.358 . S
C264 C268 1.332 . S
C264 C270 1.504 . S
C265 C266 1.373 . S
C265 C269 1.308 . S
C266 C265 1.373 . S
C266 C267 1.429 . S
C266 H276 0.932 . S
C267 C264 1.358 . S
C267 C266 1.429 . S
C267 H277 0.930 . S
C268 C264 1.332 . S
C268 C269 1.394 . S
C268 H278 0.932 . S
C269 C265 1.308 . S
C269 C268 1.394 . S
C269 H279 0.929 . S
C270 Tb241 2.764 . S
C270 O254 1.239 . S
C270 O255 1.263 . S
C270 C264 1.504 . S
C271 O256 1.236 . S
C271 O257 1.257 . S
H272 C245 0.932 . S
H273 C246 0.930 . S
H274 C247 0.932 . S
H275 C248 0.929 . S
H276 C266 0.932 . S
H277 C267 0.930 . S
H278 C268 0.932 . S
H279 C269 0.929 . S
Tb280 C289 2.764 . S
Tb280 O290 2.325 . S
Tb280 O293 2.303 . S
Tb280 O297 2.322 . S
Tb280 O298 2.349 . S
Tb280 O301 2.415 . S
Tb280 O302 2.399 . S
Tb281 O291 2.322 . S
Tb281 O292 2.349 . S
Tb281 O294 2.415 . S
Tb281 O295 2.399 . S
Tb281 O296 2.325 . S
Tb281 O299 2.303 . S
Tb281 C310 2.764 . S
C282 O298 1.261 . S
C282 O299 1.257 . S
C283 C286 1.358 . S
C283 C287 1.332 . S
C283 C289 1.504 1_455 S
C284 C285 1.373 . S
C284 C288 1.308 . S
C285 C284 1.373 . S
C285 C286 1.429 . S
C285 H312 0.932 . S
C286 C283 1.358 . S
C286 C285 1.429 . S
C286 H313 0.930 . S
C287 C283 1.332 . S
C287 C288 1.394 . S
C287 H314 0.932 . S
C288 C284 1.308 . S
C288 C287 1.394 . S
C288 H315 0.929 . S
C289 Tb280 2.764 . S
C289 C283 1.504 1_655 S
C289 O301 1.239 . S
C289 O302 1.263 . S
O290 Tb280 2.325 . S
O290 C300 1.236 . S
O291 Tb281 2.322 . S
O291 C300 1.257 . S
O292 Tb281 2.349 . S
O292 C303 1.261 . S
O293 Tb280 2.303 . S
O293 C303 1.257 . S
O294 Tb281 2.415 . S
O294 C310 1.239 . S
O295 Tb281 2.399 . S
O295 C310 1.263 . S
O296 Tb281 2.325 . S
O296 C311 1.236 . S
O297 Tb280 2.322 . S
O297 C311 1.257 . S
O298 Tb280 2.349 . S
O298 C282 1.261 . S
O299 Tb281 2.303 . S
O299 C282 1.257 . S
C300 O290 1.236 . S
C300 O291 1.257 . S
O301 Tb280 2.415 . S
O301 C289 1.239 . S
O302 Tb280 2.399 . S
O302 C289 1.263 . S
C303 O292 1.261 . S
C303 O293 1.257 . S
C304 C307 1.358 . S
C304 C308 1.332 . S
C304 C310 1.504 . S
C305 C306 1.373 . S
C305 C309 1.308 . S
C306 C305 1.373 . S
C306 C307 1.429 . S
C306 H316 0.932 . S
C307 C304 1.358 . S
C307 C306 1.429 . S
C307 H317 0.930 . S
C308 C304 1.332 . S
C308 C309 1.394 . S
C308 H318 0.932 . S
C309 C305 1.308 . S
C309 C308 1.394 . S
C309 H319 0.929 . S
C310 Tb281 2.764 . S
C310 O294 1.239 . S
C310 O295 1.263 . S
C310 C304 1.504 . S
C311 O296 1.236 . S
C311 O297 1.257 . S
H312 C285 0.932 . S
H313 C286 0.930 . S
H314 C287 0.932 . S
H315 C288 0.929 . S
H316 C306 0.932 . S
H317 C307 0.930 . S
H318 C308 0.932 . S
H319 C309 0.929 . S
Tb320 C329 2.764 . S
Tb320 O330 2.325 . S
Tb320 O333 2.303 . S
Tb320 O337 2.322 . S
Tb320 O338 2.349 . S
Tb320 O341 2.415 . S
Tb320 O342 2.399 . S
Tb321 O331 2.322 . S
Tb321 O332 2.349 . S
Tb321 O334 2.415 . S
Tb321 O335 2.399 . S
Tb321 O336 2.325 . S
Tb321 O339 2.303 . S
Tb321 C350 2.764 . S
C322 O338 1.261 . S
C322 O339 1.257 . S
C323 C326 1.358 . S
C323 C327 1.332 . S
C323 C329 1.504 1_545 S
C324 C325 1.373 . S
C324 C328 1.308 . S
C325 C324 1.373 . S
C325 C326 1.429 . S
C325 H352 0.932 . S
C326 C323 1.358 . S
C326 C325 1.429 . S
C326 H353 0.930 . S
C327 C323 1.332 . S
C327 C328 1.394 . S
C327 H354 0.932 . S
C328 C324 1.308 . S
C328 C327 1.394 . S
C328 H355 0.929 . S
C329 Tb320 2.764 . S
C329 C323 1.504 1_565 S
C329 O341 1.239 . S
C329 O342 1.263 . S
O330 Tb320 2.325 . S
O330 C340 1.236 . S
O331 Tb321 2.322 . S
O331 C340 1.257 . S
O332 Tb321 2.349 . S
O332 C343 1.261 . S
O333 Tb320 2.303 . S
O333 C343 1.257 . S
O334 Tb321 2.415 . S
O334 C350 1.239 . S
O335 Tb321 2.399 . S
O335 C350 1.263 . S
O336 Tb321 2.325 . S
O336 C351 1.236 . S
O337 Tb320 2.322 . S
O337 C351 1.257 . S
O338 Tb320 2.349 . S
O338 C322 1.261 . S
O339 Tb321 2.303 . S
O339 C322 1.257 . S
C340 O330 1.236 . S
C340 O331 1.257 . S
O341 Tb320 2.415 . S
O341 C329 1.239 . S
O342 Tb320 2.399 . S
O342 C329 1.263 . S
C343 O332 1.261 . S
C343 O333 1.257 . S
C344 C347 1.358 . S
C344 C348 1.332 . S
C344 C350 1.504 . S
C345 C346 1.373 . S
C345 C349 1.308 . S
C346 C345 1.373 . S
C346 C347 1.429 . S
C346 H356 0.932 . S
C347 C344 1.358 . S
C347 C346 1.429 . S
C347 H357 0.930 . S
C348 C344 1.332 . S
C348 C349 1.394 . S
C348 H358 0.932 . S
C349 C345 1.308 . S
C349 C348 1.394 . S
C349 H359 0.929 . S
C350 Tb321 2.764 . S
C350 O334 1.239 . S
C350 O335 1.263 . S
C350 C344 1.504 . S
C351 O336 1.236 . S
C351 O337 1.257 . S
H352 C325 0.932 . S
H353 C326 0.930 . S
H354 C327 0.932 . S
H355 C328 0.929 . S
H356 C346 0.932 . S
H357 C347 0.930 . S
H358 C348 0.932 . S
H359 C349 0.929 . S
Tb360 C369 2.764 . S
Tb360 O370 2.325 . S
Tb360 O373 2.303 . S
Tb360 O377 2.322 . S
Tb360 O378 2.349 . S
Tb360 O381 2.415 . S
Tb360 O382 2.399 . S
Tb361 O371 2.322 . S
Tb361 O372 2.349 . S
Tb361 O374 2.415 . S
Tb361 O375 2.399 . S
Tb361 O376 2.325 . S
Tb361 O379 2.303 . S
Tb361 C390 2.764 . S
C362 O378 1.261 . S
C362 O379 1.257 . S
C363 C366 1.358 . S
C363 C367 1.332 . S
C363 C369 1.504 . S
C364 C365 1.373 . S
C364 C368 1.308 . S
C365 C364 1.373 . S
C365 C366 1.429 . S
C365 H392 0.932 . S
C366 C363 1.358 . S
C366 C365 1.429 . S
C366 H393 0.930 . S
C367 C363 1.332 . S
C367 C368 1.394 . S
C367 H394 0.932 . S
C368 C364 1.308 . S
C368 C367 1.394 . S
C368 H395 0.929 . S
C369 Tb360 2.764 . S
C369 C363 1.504 . S
C369 O381 1.239 . S
C369 O382 1.263 . S
O370 Tb360 2.325 . S
O370 C380 1.236 . S
O371 Tb361 2.322 . S
O371 C380 1.257 . S
O372 Tb361 2.349 . S
O372 C383 1.261 . S
O373 Tb360 2.303 . S
O373 C383 1.257 . S
O374 Tb361 2.415 . S
O374 C390 1.239 . S
O375 Tb361 2.399 . S
O375 C390 1.263 . S
O376 Tb361 2.325 . S
O376 C391 1.236 . S
O377 Tb360 2.322 . S
O377 C391 1.257 . S
O378 Tb360 2.349 . S
O378 C362 1.261 . S
O379 Tb361 2.303 . S
O379 C362 1.257 . S
C380 O370 1.236 . S
C380 O371 1.257 . S
O381 Tb360 2.415 . S
O381 C369 1.239 . S
O382 Tb360 2.399 . S
O382 C369 1.263 . S
C383 O372 1.261 . S
C383 O373 1.257 . S
C384 C387 1.358 . S
C384 C388 1.332 . S
C384 C390 1.504 . S
C385 C386 1.373 . S
C385 C389 1.308 . S
C386 C385 1.373 . S
C386 C387 1.429 . S
C386 H396 0.932 . S
C387 C384 1.358 . S
C387 C386 1.429 . S
C387 H397 0.930 . S
C388 C384 1.332 . S
C388 C389 1.394 . S
C388 H398 0.932 . S
C389 C385 1.308 . S
C389 C388 1.394 . S
C389 H399 0.929 . S
C390 Tb361 2.764 . S
C390 O374 1.239 . S
C390 O375 1.263 . S
C390 C384 1.504 . S
C391 O376 1.236 . S
C391 O377 1.257 . S
H392 C365 0.932 . S
H393 C366 0.930 . S
H394 C367 0.932 . S
H395 C368 0.929 . S
H396 C386 0.932 . S
H397 C387 0.930 . S
H398 C388 0.932 . S
H399 C389 0.929 . S
Tb400 C409 2.764 . S
Tb400 O410 2.325 . S
Tb400 O413 2.303 . S
Tb400 O417 2.322 . S
Tb400 O418 2.349 . S
Tb400 O421 2.415 . S
Tb400 O422 2.399 . S
Tb401 O411 2.322 . S
Tb401 O412 2.349 . S
Tb401 O414 2.415 . S
Tb401 O415 2.399 . S
Tb401 O416 2.325 . S
Tb401 O419 2.303 . S
Tb401 C430 2.764 . S
C402 O418 1.261 . S
C402 O419 1.257 . S
C403 C406 1.358 . S
C403 C407 1.332 . S
C403 C409 1.504 1_655 S
C404 C405 1.373 . S
C404 C408 1.308 . S
C405 C404 1.373 . S
C405 C406 1.429 . S
C405 H432 0.932 . S
C406 C403 1.358 . S
C406 C405 1.429 . S
C406 H433 0.930 . S
C407 C403 1.332 . S
C407 C408 1.394 . S
C407 H434 0.932 . S
C408 C404 1.308 . S
C408 C407 1.394 . S
C408 H435 0.929 . S
C409 Tb400 2.764 . S
C409 C403 1.504 1_455 S
C409 O421 1.239 . S
C409 O422 1.263 . S
O410 Tb400 2.325 . S
O410 C420 1.236 . S
O411 Tb401 2.322 . S
O411 C420 1.257 . S
O412 Tb401 2.349 . S
O412 C423 1.261 . S
O413 Tb400 2.303 . S
O413 C423 1.257 . S
O414 Tb401 2.415 . S
O414 C430 1.239 . S
O415 Tb401 2.399 . S
O415 C430 1.263 . S
O416 Tb401 2.325 . S
O416 C431 1.236 . S
O417 Tb400 2.322 . S
O417 C431 1.257 . S
O418 Tb400 2.349 . S
O418 C402 1.261 . S
O419 Tb401 2.303 . S
O419 C402 1.257 . S
C420 O410 1.236 . S
C420 O411 1.257 . S
O421 Tb400 2.415 . S
O421 C409 1.239 . S
O422 Tb400 2.399 . S
O422 C409 1.263 . S
C423 O412 1.261 . S
C423 O413 1.257 . S
C424 C427 1.358 . S
C424 C428 1.332 . S
C424 C430 1.504 . S
C425 C426 1.373 . S
C425 C429 1.308 . S
C426 C425 1.373 . S
C426 C427 1.429 . S
C426 H436 0.932 . S
C427 C424 1.358 . S
C427 C426 1.429 . S
C427 H437 0.930 . S
C428 C424 1.332 . S
C428 C429 1.394 . S
C428 H438 0.932 . S
C429 C425 1.308 . S
C429 C428 1.394 . S
C429 H439 0.929 . S
C430 Tb401 2.764 . S
C430 O414 1.239 . S
C430 O415 1.263 . S
C430 C424 1.504 . S
C431 O416 1.236 . S
C431 O417 1.257 . S
H432 C405 0.932 . S
H433 C406 0.930 . S
H434 C407 0.932 . S
H435 C408 0.929 . S
H436 C426 0.932 . S
H437 C427 0.930 . S
H438 C428 0.932 . S
H439 C429 0.929 . S
Tb440 C449 2.764 . S
Tb440 O450 2.325 . S
Tb440 O453 2.303 . S
Tb440 O457 2.322 . S
Tb440 O458 2.349 . S
Tb440 O461 2.415 . S
Tb440 O462 2.399 . S
Tb441 O451 2.322 . S
Tb441 O452 2.349 . S
Tb441 O454 2.415 . S
Tb441 O455 2.399 . S
Tb441 O456 2.325 . S
Tb441 O459 2.303 . S
Tb441 C470 2.764 . S
C442 O458 1.261 . S
C442 O459 1.257 . S
C443 C446 1.358 . S
C443 C447 1.332 . S
C443 C449 1.504 1_565 S
C444 C445 1.373 . S
C444 C448 1.308 . S
C445 C444 1.373 . S
C445 C446 1.429 . S
C445 H472 0.932 . S
C446 C443 1.358 . S
C446 C445 1.429 . S
C446 H473 0.930 . S
C447 C443 1.332 . S
C447 C448 1.394 . S
C447 H474 0.932 . S
C448 C444 1.308 . S
C448 C447 1.394 . S
C448 H475 0.929 . S
C449 Tb440 2.764 . S
C449 C443 1.504 1_545 S
C449 O461 1.239 . S
C449 O462 1.263 . S
O450 Tb440 2.325 . S
O450 C460 1.236 . S
O451 Tb441 2.322 . S
O451 C460 1.257 . S
O452 Tb441 2.349 . S
O452 C463 1.261 . S
O453 Tb440 2.303 . S
O453 C463 1.257 . S
O454 Tb441 2.415 . S
O454 C470 1.239 . S
O455 Tb441 2.399 . S
O455 C470 1.263 . S
O456 Tb441 2.325 . S
O456 C471 1.236 . S
O457 Tb440 2.322 . S
O457 C471 1.257 . S
O458 Tb440 2.349 . S
O458 C442 1.261 . S
O459 Tb441 2.303 . S
O459 C442 1.257 . S
C460 O450 1.236 . S
C460 O451 1.257 . S
O461 Tb440 2.415 . S
O461 C449 1.239 . S
O462 Tb440 2.399 . S
O462 C449 1.263 . S
C463 O452 1.261 . S
C463 O453 1.257 . S
C464 C467 1.358 . S
C464 C468 1.332 . S
C464 C470 1.504 . S
C465 C466 1.373 . S
C465 C469 1.308 . S
C466 C465 1.373 . S
C466 C467 1.429 . S
C466 H476 0.932 . S
C467 C464 1.358 . S
C467 C466 1.429 . S
C467 H477 0.930 . S
C468 C464 1.332 . S
C468 C469 1.394 . S
C468 H478 0.932 . S
C469 C465 1.308 . S
C469 C468 1.394 . S
C469 H479 0.929 . S
C470 Tb441 2.764 . S
C470 O454 1.239 . S
C470 O455 1.263 . S
C470 C464 1.504 . S
C471 O456 1.236 . S
C471 O457 1.257 . S
H472 C445 0.932 . S
H473 C446 0.930 . S
H474 C447 0.932 . S
H475 C448 0.929 . S
H476 C466 0.932 . S
H477 C467 0.930 . S
H478 C468 0.932 . S
H479 C469 0.929 . S
C480 C481 1.363 . S
C480 C486 1.379 1_565 S
C480 N488 1.356 . S
C481 C480 1.363 . S
C481 C487 1.363 . S
C482 C483 1.363 1_565 S
C482 C487 1.379 . S
C482 N489 1.356 1_565 S
C483 C482 1.363 1_545 S
C483 C486 1.363 . S
N484 C486 1.356 . S
N484 H496 0.984 . S
N484 H497 0.985 . S
N485 C487 1.356 . S
N485 H490 0.984 . S
N485 H491 0.985 . S
C486 C480 1.379 1_545 S
C486 C483 1.363 . S
C486 N484 1.356 . S
C487 C481 1.363 . S
C487 C482 1.379 . S
C487 N485 1.356 . S
N488 C480 1.356 . S
N488 H494 0.984 . S
N488 H495 0.984 . S
N489 C482 1.356 1_545 S
N489 H492 0.984 . S
N489 H493 0.985 1_545 S
H490 N485 0.984 . S
H491 N485 0.985 . S
H492 N489 0.984 . S
H493 N489 0.985 1_565 S
H494 N488 0.984 . S
H495 N488 0.984 . S
H496 N484 0.984 . S
H497 N484 0.985 . S
C498 C499 1.363 . S
C498 C504 1.379 . S
C498 N506 1.356 . S
C499 C498 1.363 . S
C499 C505 1.363 . S
C500 C501 1.363 . S
C500 C505 1.379 . S
C500 N507 1.356 . S
C501 C500 1.363 . S
C501 C504 1.363 . S
N502 C504 1.356 . S
N502 H514 0.984 . S
N502 H515 0.985 . S
N503 C505 1.356 . S
N503 H508 0.984 . S
N503 H509 0.985 . S
C504 C498 1.379 . S
C504 C501 1.363 . S
C504 N502 1.356 . S
C505 C499 1.363 . S
C505 C500 1.379 . S
C505 N503 1.356 . S
N506 C498 1.356 . S
N506 H512 0.984 . S
N506 H513 0.984 . S
N507 C500 1.356 . S
N507 H510 0.984 . S
N507 H511 0.985 . S
H508 N503 0.984 . S
H509 N503 0.985 . S
H510 N507 0.984 . S
H511 N507 0.985 . S
H512 N506 0.984 . S
H513 N506 0.984 . S
H514 N502 0.984 . S
H515 N502 0.985 . S
C516 C517 1.363 1_455 S
C516 C522 1.379 . S
C516 N524 1.356 1_455 S
C517 C516 1.363 1_655 S
C517 C523 1.363 . S
C518 C519 1.363 . S
C518 C523 1.379 1_455 S
C518 N525 1.356 . S
C519 C518 1.363 . S
C519 C522 1.363 . S
N520 C522 1.356 . S
N520 H532 0.984 . S
N520 H533 0.985 . S
N521 C523 1.356 . S
N521 H526 0.984 . S
N521 H527 0.985 . S
C522 C516 1.379 . S
C522 C519 1.363 . S
C522 N520 1.356 . S
C523 C517 1.363 . S
C523 C518 1.379 1_655 S
C523 N521 1.356 . S
N524 C516 1.356 1_655 S
N524 H530 0.984 . S
N524 H531 0.984 . S
N525 C518 1.356 . S
N525 H528 0.984 . S
N525 H529 0.985 . S
H526 N521 0.984 . S
H527 N521 0.985 . S
H528 N525 0.984 . S
H529 N525 0.985 . S
H530 N524 0.984 . S
H531 N524 0.984 . S
H532 N520 0.984 . S
H533 N520 0.985 . S
C534 C535 1.363 1_545 S
C534 C540 1.379 . S
C534 N542 1.356 1_545 S
C535 C534 1.363 1_565 S
C535 C541 1.363 . S
C536 C537 1.363 . S
C536 C541 1.379 1_545 S
C536 N543 1.356 . S
C537 C536 1.363 . S
C537 C540 1.363 . S
N538 C540 1.356 . S
N538 H550 0.984 . S
N538 H551 0.985 . S
N539 C541 1.356 . S
N539 H544 0.984 . S
N539 H545 0.985 . S
C540 C534 1.379 . S
C540 C537 1.363 . S
C540 N538 1.356 . S
C541 C535 1.363 . S
C541 C536 1.379 1_565 S
C541 N539 1.356 . S
N542 C534 1.356 1_565 S
N542 H548 0.984 1_565 S
N542 H549 0.984 . S
N543 C536 1.356 . S
N543 H546 0.984 . S
N543 H547 0.985 . S
H544 N539 0.984 . S
H545 N539 0.985 . S
H546 N543 0.984 . S
H547 N543 0.985 . S
H548 N542 0.984 1_545 S
H549 N542 0.984 . S
H550 N538 0.984 . S
H551 N538 0.985 . S
C552 C553 1.363 . S
C552 C558 1.379 . S
C552 N560 1.356 . S
C553 C552 1.363 . S
C553 C559 1.363 . S
C554 C555 1.363 . S
C554 C559 1.379 . S
C554 N561 1.356 . S
C555 C554 1.363 . S
C555 C558 1.363 . S
N556 C558 1.356 . S
N556 H568 0.984 . S
N556 H569 0.985 . S
N557 C559 1.356 . S
N557 H562 0.984 . S
N557 H563 0.985 . S
C558 C552 1.379 . S
C558 C555 1.363 . S
C558 N556 1.356 . S
C559 C553 1.363 . S
C559 C554 1.379 . S
C559 N557 1.356 . S
N560 C552 1.356 . S
N560 H566 0.984 . S
N560 H567 0.984 . S
N561 C554 1.356 . S
N561 H564 0.984 . S
N561 H565 0.985 . S
H562 N557 0.984 . S
H563 N557 0.985 . S
H564 N561 0.984 . S
H565 N561 0.985 . S
H566 N560 0.984 . S
H567 N560 0.984 . S
H568 N556 0.984 . S
H569 N556 0.985 . S
C570 C571 1.363 . S
C570 C576 1.379 1_655 S
C570 N578 1.356 . S
C571 C570 1.363 . S
C571 C577 1.363 . S
C572 C573 1.363 1_655 S
C572 C577 1.379 . S
C572 N579 1.356 1_655 S
C573 C572 1.363 1_455 S
C573 C576 1.363 . S
N574 C576 1.356 . S
N574 H586 0.984 . S
N574 H587 0.985 . S
N575 C577 1.356 . S
N575 H580 0.984 . S
N575 H581 0.985 . S
C576 C570 1.379 1_455 S
C576 C573 1.363 . S
C576 N574 1.356 . S
C577 C571 1.363 . S
C577 C572 1.379 . S
C577 N575 1.356 . S
N578 C570 1.356 . S
N578 H584 0.984 . S
N578 H585 0.984 . S
N579 C572 1.356 1_455 S
N579 H582 0.984 . S
N579 H583 0.985 1_455 S
H580 N575 0.984 . S
H581 N575 0.985 . S
H582 N579 0.984 . S
H583 N579 0.985 1_655 S
H584 N578 0.984 . S
H585 N578 0.984 . S
H586 N574 0.984 . S
H587 N574 0.985 . S
C588 C589 1.363 . S
C588 C594 1.379 1_455 S
C588 N596 1.356 . S
C589 C588 1.363 . S
C589 C595 1.363 . S
C590 C591 1.361 1_455 S
C590 C595 1.403 . S
C590 N597 1.331 1_455 S
C591 C590 1.361 1_655 S
C591 C594 1.363 . S
N592 C594 1.356 . S
N592 H604 0.984 . S
N592 H605 0.985 . S
N593 C595 1.356 . S
N593 H598 0.984 . S
N593 H599 0.985 . S
C594 C588 1.379 1_655 S
C594 C591 1.363 . S
C594 N592 1.356 . S
C595 C589 1.363 . S
C595 C590 1.403 . S
C595 N593 1.356 . S
N596 C588 1.356 . S
N596 H602 0.984 . S
N596 H603 0.984 . S
N597 C590 1.331 1_655 S
N597 H600 0.984 . S
N597 H601 0.985 . S
H598 N593 0.984 . S
H599 N593 0.985 . S
H600 N597 0.984 . S
H601 N597 0.985 . S
H602 N596 0.984 . S
H603 N596 0.984 . S
H604 N592 0.984 . S
H605 N592 0.985 . S
C606 C607 1.363 1_545 S
C606 C612 1.379 . S
C606 N614 1.356 1_545 S
C607 C606 1.363 1_565 S
C607 C613 1.363 . S
C608 C609 1.363 . S
C608 C613 1.379 1_545 S
C608 N615 1.356 . S
C609 C608 1.363 . S
C609 C612 1.363 . S
N610 C612 1.356 . S
N610 H622 0.984 . S
N610 H623 0.985 . S
N611 C613 1.356 . S
N611 H616 0.984 . S
N611 H617 0.985 . S
C612 C606 1.379 . S
C612 C609 1.363 . S
C612 N610 1.356 . S
C613 C607 1.363 . S
C613 C608 1.379 1_565 S
C613 N611 1.356 . S
N614 C606 1.356 1_565 S
N614 H620 0.984 1_565 S
N614 H621 0.984 . S
N615 C608 1.356 . S
N615 H618 0.984 . S
N615 H619 0.985 . S
H616 N611 0.984 . S
H617 N611 0.985 . S
H618 N615 0.984 . S
H619 N615 0.985 . S
H620 N614 0.984 1_545 S
H621 N614 0.984 . S
H622 N610 0.984 . S
H623 N610 0.985 . S
C624 C625 1.363 . S
C624 C630 1.379 . S
C624 N632 1.356 . S
C625 C624 1.363 . S
C625 C631 1.363 . S
C626 C627 1.363 . S
C626 C631 1.379 . S
C626 N633 1.356 . S
C627 C626 1.363 . S
C627 C630 1.363 . S
N628 C630 1.356 . S
N628 H640 0.984 . S
N628 H641 0.985 . S
N629 C631 1.356 . S
N629 H634 0.984 . S
N629 H635 0.985 . S
C630 C624 1.379 . S
C630 C627 1.363 . S
C630 N628 1.356 . S
C631 C625 1.363 . S
C631 C626 1.379 . S
C631 N629 1.356 . S
N632 C624 1.356 . S
N632 H638 0.984 . S
N632 H639 0.984 . S
N633 C626 1.356 . S
N633 H636 0.984 . S
N633 H637 0.985 . S
H634 N629 0.984 . S
H635 N629 0.985 . S
H636 N633 0.984 . S
H637 N633 0.985 . S
H638 N632 0.984 . S
H639 N632 0.984 . S
H640 N628 0.984 . S
H641 N628 0.985 . S
C642 C643 1.363 . S
C642 C648 1.379 1_455 S
C642 N650 1.356 . S
C643 C642 1.363 . S
C643 C649 1.363 1_455 S
C644 C645 1.363 . S
C644 C649 1.379 . S
C644 N651 1.356 . S
C645 C644 1.363 . S
C645 C648 1.363 . S
N646 C648 1.356 . S
N646 H658 0.984 . S
N646 H659 0.985 . S
N647 C649 1.356 1_455 S
N647 H652 0.984 . S
N647 H653 0.985 1_455 S
C648 C642 1.379 1_655 S
C648 C645 1.363 . S
C648 N646 1.356 . S
C649 C643 1.363 1_655 S
C649 C644 1.379 . S
C649 N647 1.356 1_655 S
N650 C642 1.356 . S
N650 H656 0.984 . S
N650 H657 0.984 . S
N651 C644 1.356 . S
N651 H654 0.984 . S
N651 H655 0.985 . S
H652 N647 0.984 . S
H653 N647 0.985 1_655 S
H654 N651 0.984 . S
H655 N651 0.985 . S
H656 N650 0.984 . S
H657 N650 0.984 . S
H658 N646 0.984 . S
H659 N646 0.985 . S
C660 C661 1.363 . S
C660 C666 1.379 1_545 S
C660 N668 1.356 . S
C661 C660 1.363 . S
C661 C667 1.363 1_545 S
C662 C663 1.363 . S
C662 C667 1.379 . S
C662 N669 1.356 . S
C663 C662 1.363 . S
C663 C666 1.363 . S
N664 C666 1.356 . S
N664 H676 0.984 . S
N664 H677 0.985 . S
N665 C667 1.356 1_545 S
N665 H670 0.984 . S
N665 H671 0.985 . S
C666 C660 1.379 1_565 S
C666 C663 1.363 . S
C666 N664 1.356 . S
C667 C661 1.363 1_565 S
C667 C662 1.379 . S
C667 N665 1.356 1_565 S
N668 C660 1.356 . S
N668 H674 0.984 . S
N668 H675 0.984 . S
N669 C662 1.356 . S
N669 H672 0.984 . S
N669 H673 0.985 . S
H670 N665 0.984 . S
H671 N665 0.985 . S
H672 N669 0.984 . S
H673 N669 0.985 . S
H674 N668 0.984 . S
H675 N668 0.984 . S
H676 N664 0.984 . S
H677 N664 0.985 . S
C678 C679 1.363 . S
C678 C684 1.379 . S
C678 N686 1.356 . S
C679 C678 1.363 . S
C679 C685 1.363 . S
C680 C681 1.363 . S
C680 C685 1.379 . S
C680 N687 1.356 . S
C681 C680 1.363 . S
C681 C684 1.363 . S
N682 C684 1.356 . S
N682 H694 0.984 . S
N682 H695 0.985 . S
N683 C685 1.356 . S
N683 H688 0.984 . S
N683 H689 0.985 . S
C684 C678 1.379 . S
C684 C681 1.363 . S
C684 N682 1.356 . S
C685 C679 1.363 . S
C685 C680 1.379 . S
C685 N683 1.356 . S
N686 C678 1.356 . S
N686 H692 0.984 . S
N686 H693 0.984 . S
N687 C680 1.356 . S
N687 H690 0.984 . S
N687 H691 0.985 . S
H688 N683 0.984 . S
H689 N683 0.985 . S
H690 N687 0.984 . S
H691 N687 0.985 . S
H692 N686 0.984 . S
H693 N686 0.984 . S
H694 N682 0.984 . S
H695 N682 0.985 . S
C696 C697 1.363 . S
C696 C702 1.379 . S
C696 N704 1.356 . S
C697 C696 1.363 . S
C697 C703 1.363 . S
C698 C699 1.363 . S
C698 C703 1.379 . S
C698 N705 1.356 . S
C699 C698 1.363 . S
C699 C702 1.363 . S
N700 C702 1.356 . S
N700 H712 0.984 . S
N700 H713 0.985 . S
N701 C703 1.356 . S
N701 H706 0.984 . S
N701 H707 0.985 . S
C702 C696 1.379 . S
C702 C699 1.363 . S
C702 N700 1.356 . S
C703 C697 1.363 . S
C703 C698 1.379 . S
C703 N701 1.356 . S
N704 C696 1.356 . S
N704 H710 0.984 . S
N704 H711 0.984 . S
N705 C698 1.356 . S
N705 H708 0.984 . S
N705 H709 0.985 . S
H706 N701 0.984 . S
H707 N701 0.985 . S
H708 N705 0.984 . S
H709 N705 0.985 . S
H710 N704 0.984 . S
H711 N704 0.984 . S
H712 N700 0.984 . S
H713 N700 0.985 . S
C714 C715 1.363 . S
C714 C720 1.379 . S
C714 N722 1.356 . S
C715 C714 1.363 . S
C715 C721 1.363 . S
C716 C717 1.363 . S
C716 C721 1.379 . S
C716 N723 1.356 . S
C717 C716 1.363 . S
C717 C720 1.363 . S
N718 C720 1.356 . S
N718 H730 0.984 . S
N718 H731 0.985 . S
N719 C721 1.356 . S
N719 H724 0.984 . S
N719 H725 0.985 . S
C720 C714 1.379 . S
C720 C717 1.363 . S
C720 N718 1.356 . S
C721 C715 1.363 . S
C721 C716 1.379 . S
C721 N719 1.356 . S
N722 C714 1.356 . S
N722 H728 0.984 . S
N722 H729 0.984 . S
N723 C716 1.356 . S
N723 H726 0.984 . S
N723 H727 0.985 . S
H724 N719 0.984 . S
H725 N719 0.985 . S
H726 N723 0.984 . S
H727 N723 0.985 . S
H728 N722 0.984 . S
H729 N722 0.984 . S
H730 N718 0.984 . S
H731 N718 0.985 . S
C732 C733 1.363 . S
C732 C738 1.379 . S
C732 N740 1.356 . S
C733 C732 1.363 . S
C733 C739 1.363 . S
C734 C735 1.363 . S
C734 C739 1.379 . S
C734 N741 1.356 . S
C735 C734 1.363 . S
C735 C738 1.363 . S
N736 C738 1.356 . S
N736 H748 0.984 . S
N736 H749 0.985 . S
N737 C739 1.356 . S
N737 H742 0.984 . S
N737 H743 0.985 . S
C738 C732 1.379 . S
C738 C735 1.363 . S
C738 N736 1.356 . S
C739 C733 1.363 . S
C739 C734 1.379 . S
C739 N737 1.356 . S
N740 C732 1.356 . S
N740 H746 0.984 . S
N740 H747 0.984 . S
N741 C734 1.356 . S
N741 H744 0.984 . S
N741 H745 0.985 . S
H742 N737 0.984 . S
H743 N737 0.985 . S
H744 N741 0.984 . S
H745 N741 0.985 . S
H746 N740 0.984 . S
H747 N740 0.984 . S
H748 N736 0.984 . S
H749 N736 0.985 . S
C750 C751 1.363 . S
C750 C756 1.379 . S
C750 N758 1.356 . S
C751 C750 1.363 . S
C751 C757 1.363 . S
C752 C753 1.363 . S
C752 C757 1.379 . S
C752 N759 1.356 . S
C753 C752 1.363 . S
C753 C756 1.363 . S
N754 C756 1.356 . S
N754 H766 0.984 . S
N754 H767 0.985 . S
N755 C757 1.356 . S
N755 H760 0.984 . S
N755 H761 0.985 . S
C756 C750 1.379 . S
C756 C753 1.363 . S
C756 N754 1.356 . S
C757 C751 1.363 . S
C757 C752 1.379 . S
C757 N755 1.356 . S
N758 C750 1.356 . S
N758 H764 0.984 . S
N758 H765 0.984 . S
N759 C752 1.356 . S
N759 H762 0.984 . S
N759 H763 0.985 . S
H760 N755 0.984 . S
H761 N755 0.985 . S
H762 N759 0.984 . S
H763 N759 0.985 . S
H764 N758 0.984 . S
H765 N758 0.984 . S
H766 N754 0.984 . S
H767 N754 0.985 . S
C768 C769 1.363 . S
C768 C774 1.379 . S
C768 N776 1.356 . S
C769 C768 1.363 . S
C769 C775 1.363 . S
C770 C771 1.363 . S
C770 C775 1.379 . S
C770 N777 1.356 . S
C771 C770 1.363 . S
C771 C774 1.363 . S
N772 C774 1.356 . S
N772 H784 0.984 . S
N772 H785 0.985 . S
N773 C775 1.356 . S
N773 H778 0.984 . S
N773 H779 0.985 . S
C774 C768 1.379 . S
C774 C771 1.363 . S
C774 N772 1.356 . S
C775 C769 1.363 . S
C775 C770 1.379 . S
C775 N773 1.356 . S
N776 C768 1.356 . S
N776 H782 0.984 . S
N776 H783 0.984 . S
N777 C770 1.356 . S
N777 H780 0.984 . S
N777 H781 0.985 . S
H778 N773 0.984 . S
H779 N773 0.985 . S
H780 N777 0.984 . S
H781 N777 0.985 . S
H782 N776 0.984 . S
H783 N776 0.984 . S
H784 N772 0.984 . S
H785 N772 0.985 . S
C786 C787 1.363 . S
C786 C792 1.379 . S
C786 N794 1.356 . S
C787 C786 1.363 . S
C787 C793 1.363 . S
C788 C789 1.363 . S
C788 C793 1.379 . S
C788 N795 1.356 . S
C789 C788 1.363 . S
C789 C792 1.363 . S
N790 C792 1.356 . S
N790 H802 0.984 . S
N790 H803 0.985 . S
N791 C793 1.356 . S
N791 H796 0.984 . S
N791 H797 0.985 . S
C792 C786 1.379 . S
C792 C789 1.363 . S
C792 N790 1.356 . S
C793 C787 1.363 . S
C793 C788 1.379 . S
C793 N791 1.356 . S
N794 C786 1.356 . S
N794 H800 0.984 . S
N794 H801 0.984 . S
N795 C788 1.356 . S
N795 H798 0.984 . S
N795 H799 0.985 . S
H796 N791 0.984 . S
H797 N791 0.985 . S
H798 N795 0.984 . S
H799 N795 0.985 . S
H800 N794 0.984 . S
H801 N794 0.984 . S
H802 N790 0.984 . S
H803 N790 0.985 . S
C804 C805 1.363 . S
C804 C810 1.379 . S
C804 N812 1.356 . S
C805 C804 1.363 . S
C805 C811 1.363 . S
C806 C807 1.363 . S
C806 C811 1.379 . S
C806 N813 1.356 . S
C807 C806 1.363 . S
C807 C810 1.363 . S
N808 C810 1.356 . S
N808 H820 0.984 . S
N808 H821 0.985 . S
N809 C811 1.356 . S
N809 H814 0.984 . S
N809 H815 0.985 . S
C810 C804 1.379 . S
C810 C807 1.363 . S
C810 N808 1.356 . S
C811 C805 1.363 . S
C811 C806 1.379 . S
C811 N809 1.356 . S
N812 C804 1.356 . S
N812 H818 0.984 . S
N812 H819 0.984 . S
N813 C806 1.356 . S
N813 H816 0.984 . S
N813 H817 0.985 . S
H814 N809 0.984 . S
H815 N809 0.985 . S
H816 N813 0.984 . S
H817 N813 0.985 . S
H818 N812 0.984 . S
H819 N812 0.984 . S
H820 N808 0.984 . S
H821 N808 0.985 . S
C822 C823 1.363 . S
C822 C828 1.379 . S
C822 N830 1.356 . S
C823 C822 1.363 . S
C823 C829 1.363 . S
C824 C825 1.363 . S
C824 C829 1.379 . S
C824 N831 1.356 . S
C825 C824 1.363 . S
C825 C828 1.363 . S
N826 C828 1.356 . S
N826 H838 0.984 . S
N826 H839 0.985 . S
N827 C829 1.356 . S
N827 H832 0.984 . S
N827 H833 0.985 . S
C828 C822 1.379 . S
C828 C825 1.363 . S
C828 N826 1.356 . S
C829 C823 1.363 . S
C829 C824 1.379 . S
C829 N827 1.356 . S
N830 C822 1.356 . S
N830 H836 0.984 . S
N830 H837 0.984 . S
N831 C824 1.356 . S
N831 H834 0.984 . S
N831 H835 0.985 . S
H832 N827 0.984 . S
H833 N827 0.985 . S
H834 N831 0.984 . S
H835 N831 0.985 . S
H836 N830 0.984 . S
H837 N830 0.984 . S
H838 N826 0.984 . S
H839 N826 0.985 . S
C840 C841 1.363 . S
C840 C846 1.379 . S
C840 N848 1.356 . S
C841 C840 1.363 . S
C841 C847 1.363 . S
C842 C843 1.363 . S
C842 C847 1.379 . S
C842 N849 1.356 . S
C843 C842 1.363 . S
C843 C846 1.363 . S
N844 C846 1.356 . S
N844 H856 0.984 . S
N844 H857 0.985 . S
N845 C847 1.356 . S
N845 H850 0.984 . S
N845 H851 0.985 . S
C846 C840 1.379 . S
C846 C843 1.363 . S
C846 N844 1.356 . S
C847 C841 1.363 . S
C847 C842 1.379 . S
C847 N845 1.356 . S
N848 C840 1.356 . S
N848 H854 0.984 . S
N848 H855 0.984 . S
N849 C842 1.356 . S
N849 H852 0.984 . S
N849 H853 0.985 . S
H850 N845 0.984 . S
H851 N845 0.985 . S
H852 N849 0.984 . S
H853 N849 0.985 . S
H854 N848 0.984 . S
H855 N848 0.984 . S
H856 N844 0.984 . S
H857 N844 0.985 . S
C858 C859 1.363 . S
C858 C864 1.379 . S
C858 N866 1.356 . S
C859 C858 1.363 . S
C859 C865 1.363 . S
C860 C861 1.363 . S
C860 C865 1.379 . S
C860 N867 1.356 . S
C861 C860 1.363 . S
C861 C864 1.363 . S
N862 C864 1.356 . S
N862 H874 0.984 . S
N862 H875 0.985 . S
N863 C865 1.356 . S
N863 H868 0.984 . S
N863 H869 0.985 . S
C864 C858 1.379 . S
C864 C861 1.363 . S
C864 N862 1.356 . S
C865 C859 1.363 . S
C865 C860 1.379 . S
C865 N863 1.356 . S
N866 C858 1.356 . S
N866 H872 0.984 . S
N866 H873 0.984 . S
N867 C860 1.356 . S
N867 H870 0.984 . S
N867 H871 0.985 . S
H868 N863 0.984 . S
H869 N863 0.985 . S
H870 N867 0.984 . S
H871 N867 0.985 . S
H872 N866 0.984 . S
H873 N866 0.984 . S
H874 N862 0.984 . S
H875 N862 0.985 . S
C876 C877 1.363 . S
C876 C882 1.379 . S
C876 N884 1.356 . S
C877 C876 1.363 . S
C877 C883 1.363 . S
C878 C879 1.363 . S
C878 C883 1.379 . S
C878 N885 1.356 . S
C879 C878 1.363 . S
C879 C882 1.363 . S
N880 C882 1.356 . S
N880 H892 0.984 . S
N880 H893 0.985 . S
N881 C883 1.356 . S
N881 H886 0.984 . S
N881 H887 0.985 . S
C882 C876 1.379 . S
C882 C879 1.363 . S
C882 N880 1.356 . S
C883 C877 1.363 . S
C883 C878 1.379 . S
C883 N881 1.356 . S
N884 C876 1.356 . S
N884 H890 0.984 . S
N884 H891 0.984 . S
N885 C878 1.356 . S
N885 H888 0.984 . S
N885 H889 0.985 . S
H886 N881 0.984 . S
H887 N881 0.985 . S
H888 N885 0.984 . S
H889 N885 0.985 . S
H890 N884 0.984 . S
H891 N884 0.984 . S
H892 N880 0.984 . S
H893 N880 0.985 . S
C894 C895 1.363 . S
C894 C900 1.379 . S
C894 N902 1.356 . S
C895 C894 1.363 . S
C895 C901 1.363 . S
C896 C897 1.363 . S
C896 C901 1.379 . S
C896 N903 1.356 . S
C897 C896 1.363 . S
C897 C900 1.363 . S
N898 C900 1.356 . S
N898 H910 0.984 . S
N898 H911 0.985 . S
N899 C901 1.356 . S
N899 H904 0.984 . S
N899 H905 0.985 . S
C900 C894 1.379 . S
C900 C897 1.363 . S
C900 N898 1.356 . S
C901 C895 1.363 . S
C901 C896 1.379 . S
C901 N899 1.356 . S
N902 C894 1.356 . S
N902 H908 0.984 . S
N902 H909 0.984 . S
N903 C896 1.356 . S
N903 H906 0.984 . S
N903 H907 0.985 . S
H904 N899 0.984 . S
H905 N899 0.985 . S
H906 N903 0.984 . S
H907 N903 0.985 . S
H908 N902 0.984 . S
H909 N902 0.984 . S
H910 N898 0.984 . S
H911 N898 0.985 . S
C912 C913 1.363 . S
C912 C918 1.379 . S
C912 N920 1.356 . S
C913 C912 1.363 . S
C913 C919 1.363 . S
C914 C915 1.363 . S
C914 C919 1.379 . S
C914 N921 1.356 . S
C915 C914 1.363 . S
C915 C918 1.363 . S
N916 C918 1.356 . S
N916 H928 0.984 . S
N916 H929 0.985 . S
N917 C919 1.356 . S
N917 H922 0.984 . S
N917 H923 0.985 . S
C918 C912 1.379 . S
C918 C915 1.363 . S
C918 N916 1.356 . S
C919 C913 1.363 . S
C919 C914 1.379 . S
C919 N917 1.356 . S
N920 C912 1.356 . S
N920 H926 0.984 . S
N920 H927 0.984 . S
N921 C914 1.356 . S
N921 H924 0.984 . S
N921 H925 0.985 . S
H922 N917 0.984 . S
H923 N917 0.985 . S
H924 N921 0.984 . S
H925 N921 0.985 . S
H926 N920 0.984 . S
H927 N920 0.984 . S
H928 N916 0.984 . S
H929 N916 0.985 . S
C930 C931 1.363 . S
C930 C936 1.379 . S
C930 N938 1.356 . S
C931 C930 1.363 . S
C931 C937 1.363 . S
C932 C933 1.363 . S
C932 C937 1.379 . S
C932 N939 1.356 . S
C933 C932 1.363 . S
C933 C936 1.363 . S
N934 C936 1.356 . S
N934 H946 0.984 . S
N934 H947 0.985 . S
N935 C937 1.356 . S
N935 H940 0.984 . S
N935 H941 0.985 . S
C936 C930 1.379 . S
C936 C933 1.363 . S
C936 N934 1.356 . S
C937 C931 1.363 . S
C937 C932 1.379 . S
C937 N935 1.356 . S
N938 C930 1.356 . S
N938 H944 0.984 . S
N938 H945 0.984 . S
N939 C932 1.356 . S
N939 H942 0.984 . S
N939 H943 0.985 . S
H940 N935 0.984 . S
H941 N935 0.985 . S
H942 N939 0.984 . S
H943 N939 0.985 . S
H944 N938 0.984 . S
H945 N938 0.984 . S
H946 N934 0.984 . S
H947 N934 0.985 . S
C948 C949 1.363 . S
C948 C954 1.379 . S
C948 N956 1.356 . S
C949 C948 1.363 . S
C949 C955 1.363 . S
C950 C951 1.363 . S
C950 C955 1.379 . S
C950 N957 1.356 . S
C951 C950 1.363 . S
C951 C954 1.363 . S
N952 C954 1.356 . S
N952 H964 0.984 . S
N952 H965 0.985 . S
N953 C955 1.356 . S
N953 H958 0.984 . S
N953 H959 0.985 . S
C954 C948 1.379 . S
C954 C951 1.363 . S
C954 N952 1.356 . S
C955 C949 1.363 . S
C955 C950 1.379 . S
C955 N953 1.356 . S
N956 C948 1.356 . S
N956 H962 0.984 . S
N956 H963 0.984 . S
N957 C950 1.356 . S
N957 H960 0.984 . S
N957 H961 0.985 . S
H958 N953 0.984 . S
H959 N953 0.985 . S
H960 N957 0.984 . S
H961 N957 0.985 . S
H962 N956 0.984 . S
H963 N956 0.984 . S
H964 N952 0.984 . S
H965 N952 0.985 . S
C966 C967 1.363 . S
C966 C972 1.379 . S
C966 N974 1.356 . S
C967 C966 1.363 . S
C967 C973 1.363 . S
C968 C969 1.363 . S
C968 C973 1.379 . S
C968 N975 1.356 . S
C969 C968 1.363 . S
C969 C972 1.363 . S
N970 C972 1.356 . S
N970 H982 0.984 . S
N970 H983 0.985 . S
N971 C973 1.356 . S
N971 H976 0.984 . S
N971 H977 0.985 . S
C972 C966 1.379 . S
C972 C969 1.363 . S
C972 N970 1.356 . S
C973 C967 1.363 . S
C973 C968 1.379 . S
C973 N971 1.356 . S
N974 C966 1.356 . S
N974 H980 0.984 . S
N974 H981 0.984 . S
N975 C968 1.356 . S
N975 H978 0.984 . S
N975 H979 0.985 . S
H976 N971 0.984 . S
H977 N971 0.985 . S
H978 N975 0.984 . S
H979 N975 0.985 . S
H980 N974 0.984 . S
H981 N974 0.984 . S
H982 N970 0.984 . S
H983 N970 0.985 . S
C984 C985 1.363 . S
C984 C990 1.379 . S
C984 N992 1.356 . S
C985 C984 1.363 . S
C985 C991 1.363 . S
C986 C987 1.363 . S
C986 C991 1.379 . S
C986 N993 1.356 . S
C987 C986 1.363 . S
C987 C990 1.363 . S
N988 C990 1.356 . S
N988 H1000 0.984 . S
N988 H1001 0.985 . S
N989 C991 1.356 . S
N989 H994 0.984 . S
N989 H995 0.985 . S
C990 C984 1.379 . S
C990 C987 1.363 . S
C990 N988 1.356 . S
C991 C985 1.363 . S
C991 C986 1.379 . S
C991 N989 1.356 . S
N992 C984 1.356 . S
N992 H998 0.984 . S
N992 H999 0.984 . S
N993 C986 1.356 . S
N993 H996 0.984 . S
N993 H997 0.985 . S
H994 N989 0.984 . S
H995 N989 0.985 . S
H996 N993 0.984 . S
H997 N993 0.985 . S
H998 N992 0.984 . S
H999 N992 0.984 . S
H1000 N988 0.984 . S
H1001 N988 0.985 . S
C1002 C1003 1.363 . S
C1002 C1008 1.379 . S
C1002 N1010 1.356 . S
C1003 C1002 1.363 . S
C1003 C1009 1.363 . S
C1004 C1005 1.363 . S
C1004 C1009 1.379 . S
C1004 N1011 1.356 . S
C1005 C1004 1.363 . S
C1005 C1008 1.363 . S
N1006 C1008 1.356 . S
N1006 H1018 0.984 . S
N1006 H1019 0.985 . S
N1007 C1009 1.356 . S
N1007 H1012 0.984 . S
N1007 H1013 0.985 . S
C1008 C1002 1.379 . S
C1008 C1005 1.363 . S
C1008 N1006 1.356 . S
C1009 C1003 1.363 . S
C1009 C1004 1.379 . S
C1009 N1007 1.356 . S
N1010 C1002 1.356 . S
N1010 H1016 0.984 . S
N1010 H1017 0.984 . S
N1011 C1004 1.356 . S
N1011 H1014 0.984 . S
N1011 H1015 0.985 . S
H1012 N1007 0.984 . S
H1013 N1007 0.985 . S
H1014 N1011 0.984 . S
H1015 N1011 0.985 . S
H1016 N1010 0.984 . S
H1017 N1010 0.984 . S
H1018 N1006 0.984 . S
H1019 N1006 0.985 . S
C1020 C1021 1.363 1_554 S
C1020 C1026 1.379 . S
C1020 N1028 1.356 . S
C1021 C1020 1.363 1_556 S
C1021 C1027 1.363 . S
C1022 C1023 1.363 1_556 S
C1022 C1027 1.379 . S
C1022 N1029 1.356 . S
C1023 C1022 1.363 1_554 S
C1023 C1026 1.363 . S
N1024 C1026 1.356 . S
N1024 H1036 0.984 . S
N1024 H1037 0.985 . S
N1025 C1027 1.356 . S
N1025 H1030 0.984 . S
N1025 H1031 0.985 . S
C1026 C1020 1.379 . S
C1026 C1023 1.363 . S
C1026 N1024 1.356 . S
C1027 C1021 1.363 . S
C1027 C1022 1.379 . S
C1027 N1025 1.356 . S
N1028 C1020 1.356 . S
N1028 H1034 0.984 . S
N1028 H1035 0.984 . S
N1029 C1022 1.356 . S
N1029 H1032 0.984 . S
N1029 H1033 0.985 . S
H1030 N1025 0.984 . S
H1031 N1025 0.985 . S
H1032 N1029 0.984 . S
H1033 N1029 0.985 . S
H1034 N1028 0.984 . S
H1035 N1028 0.984 . S
H1036 N1024 0.984 . S
H1037 N1024 0.985 . S
C1038 C1039 1.363 . S
C1038 C1044 1.379 1_455 S
C1038 N1046 1.356 . S
C1039 C1038 1.363 . S
C1039 C1045 1.363 . S
C1040 C1041 1.363 . S
C1040 C1045 1.379 1_655 S
C1040 N1047 1.356 . S
C1041 C1040 1.363 . S
C1041 C1044 1.363 . S
N1042 C1044 1.356 . S
N1042 H1054 0.984 . S
N1042 H1055 0.985 . S
N1043 C1045 1.356 . S
N1043 H1048 0.984 . S
N1043 H1049 0.985 . S
C1044 C1038 1.379 1_655 S
C1044 C1041 1.363 . S
C1044 N1042 1.356 . S
C1045 C1039 1.363 . S
C1045 C1040 1.379 1_455 S
C1045 N1043 1.356 . S
N1046 C1038 1.356 . S
N1046 H1052 0.984 . S
N1046 H1053 0.984 . S
N1047 C1040 1.356 . S
N1047 H1050 0.984 . S
N1047 H1051 0.985 . S
H1048 N1043 0.984 . S
H1049 N1043 0.985 . S
H1050 N1047 0.984 . S
H1051 N1047 0.985 . S
H1052 N1046 0.984 . S
H1053 N1046 0.984 . S
H1054 N1042 0.984 . S
H1055 N1042 0.985 . S
C1056 C1057 1.363 . S
C1056 C1062 1.379 1_565 S
C1056 N1064 1.356 . S
C1057 C1056 1.363 . S
C1057 C1063 1.363 1_554 S
C1058 C1059 1.363 . S
C1058 C1063 1.379 1_545 S
C1058 N1065 1.356 . S
C1059 C1058 1.363 . S
C1059 C1062 1.363 1_556 S
N1060 C1062 1.356 . S
N1060 H1072 0.984 . S
N1060 H1073 0.985 . S
N1061 C1063 1.356 . S
N1061 H1066 0.984 . S
N1061 H1067 0.985 . S
C1062 C1056 1.379 1_545 S
C1062 C1059 1.363 1_554 S
C1062 N1060 1.356 . S
C1063 C1057 1.363 1_556 S
C1063 C1058 1.379 1_565 S
C1063 N1061 1.356 . S
N1064 C1056 1.356 . S
N1064 H1070 0.984 . S
N1064 H1071 0.984 . S
N1065 C1058 1.356 . S
N1065 H1068 0.984 . S
N1065 H1069 0.985 . S
H1066 N1061 0.984 . S
H1067 N1061 0.985 . S
H1068 N1065 0.984 . S
H1069 N1065 0.985 . S
H1070 N1064 0.984 . S
H1071 N1064 0.984 . S
H1072 N1060 0.984 . S
H1073 N1060 0.985 . S
C1074 C1075 1.363 . S
C1074 C1080 1.379 . S
C1074 N1082 1.356 . S
C1075 C1074 1.363 . S
C1075 C1081 1.363 . S
C1076 C1077 1.363 . S
C1076 C1081 1.379 . S
C1076 N1083 1.356 . S
C1077 C1076 1.363 . S
C1077 C1080 1.363 . S
N1078 C1080 1.356 . S
N1078 H1090 0.984 . S
N1078 H1091 0.985 . S
N1079 C1081 1.356 . S
N1079 H1084 0.984 . S
N1079 H1085 0.985 . S
C1080 C1074 1.379 . S
C1080 C1077 1.363 . S
C1080 N1078 1.356 . S
C1081 C1075 1.363 . S
C1081 C1076 1.379 . S
C1081 N1079 1.356 . S
N1082 C1074 1.356 . S
N1082 H1088 0.984 . S
N1082 H1089 0.984 . S
N1083 C1076 1.356 . S
N1083 H1086 0.984 . S
N1083 H1087 0.985 . S
H1084 N1079 0.984 . S
H1085 N1079 0.985 . S
H1086 N1083 0.984 . S
H1087 N1083 0.985 . S
H1088 N1082 0.984 . S
H1089 N1082 0.984 . S
H1090 N1078 0.984 . S
H1091 N1078 0.985 . S
C1092 C1093 1.363 1_554 S
C1092 C1098 1.379 1_655 S
C1092 N1100 1.356 . S
C1093 C1092 1.363 1_556 S
C1093 C1099 1.363 . S
C1094 C1095 1.363 1_556 S
C1094 C1099 1.379 1_455 S
C1094 N1101 1.356 . S
C1095 C1094 1.363 1_554 S
C1095 C1098 1.363 . S
N1096 C1098 1.356 . S
N1096 H1108 0.984 . S
N1096 H1109 0.985 . S
N1097 C1099 1.356 . S
N1097 H1102 0.984 . S
N1097 H1103 0.985 . S
C1098 C1092 1.379 1_455 S
C1098 C1095 1.363 . S
C1098 N1096 1.356 . S
C1099 C1093 1.363 . S
C1099 C1094 1.379 1_655 S
C1099 N1097 1.356 . S
N1100 C1092 1.356 . S
N1100 H1106 0.984 . S
N1100 H1107 0.984 . S
N1101 C1094 1.356 . S
N1101 H1104 0.984 . S
N1101 H1105 0.985 . S
H1102 N1097 0.984 . S
H1103 N1097 0.985 . S
H1104 N1101 0.984 . S
H1105 N1101 0.985 . S
H1106 N1100 0.984 . S
H1107 N1100 0.984 . S
H1108 N1096 0.984 . S
H1109 N1096 0.985 . S
C1110 C1111 1.363 . S
C1110 C1116 1.379 1_565 S
C1110 N1118 1.356 . S
C1111 C1110 1.363 . S
C1111 C1117 1.363 . S
C1112 C1113 1.363 . S
C1112 C1117 1.379 1_545 S
C1112 N1119 1.356 . S
C1113 C1112 1.363 . S
C1113 C1116 1.363 . S
N1114 C1116 1.356 . S
N1114 H1126 0.984 . S
N1114 H1127 0.985 . S
N1115 C1117 1.356 . S
N1115 H1120 0.984 . S
N1115 H1121 0.985 . S
C1116 C1110 1.379 1_545 S
C1116 C1113 1.363 . S
C1116 N1114 1.356 . S
C1117 C1111 1.363 . S
C1117 C1112 1.379 1_565 S
C1117 N1115 1.356 . S
N1118 C1110 1.356 . S
N1118 H1124 0.984 . S
N1118 H1125 0.984 . S
N1119 C1112 1.356 . S
N1119 H1122 0.984 . S
N1119 H1123 0.985 . S
H1120 N1115 0.984 . S
H1121 N1115 0.985 . S
H1122 N1119 0.984 . S
H1123 N1119 0.985 . S
H1124 N1118 0.984 . S
H1125 N1118 0.984 . S
H1126 N1114 0.984 . S
H1127 N1114 0.985 . S
C481 C180 1.380 . S
C483 C4 1.395 . S
C499 C220 1.380 . S
C501 C44 1.395 . S
C517 C84 1.395 . S
C519 C20 1.380 . S
C535 C124 1.395 . S
C537 C60 1.380 . S
C553 C164 1.395 . S
C555 C100 1.380 . S
C571 C140 1.380 . S
C573 C204 1.395 . S
C589 C340 1.380 . S
C591 C244 1.395 . S
C607 C284 1.395 . S
C609 C380 1.380 . S
C625 C420 1.380 . S
C627 C324 1.395 . S
C643 C364 1.395 . S
C645 C460 1.380 . S
C661 C404 1.395 . S
C663 C260 1.380 . S
C679 C300 1.380 . S
C681 C444 1.395 . S
C697 C191 1.661 . S
C699 C25 1.667 . S
C715 C65 1.667 . S
C717 C231 1.661 . S
C733 C105 1.667 . S
C735 C31 1.661 . S
C751 C145 1.667 . S
C753 C71 1.661 . S
C769 C111 1.661 . S
C771 C185 1.667 . S
C787 C151 1.661 . S
C789 C225 1.667 . S
C805 C351 1.661 . S
C807 C265 1.667 . S
C823 C305 1.667 . S
C825 C391 1.661 . S
C841 C345 1.667 . S
C843 C431 1.661 . S
C859 C471 1.661 . S
C861 C385 1.667 . S
C877 C425 1.667 . S
C879 C271 1.661 . S
C895 C311 1.661 . S
C897 C465 1.667 . S
C913 C402 1.642 . S
C915 C2 1.642 . S
C931 C42 1.642 . S
C933 C442 1.642 . S
C949 C82 1.642 . S
C951 C242 1.642 . S
C967 C122 1.642 . S
C969 C282 1.642 . S
C985 C162 1.642 . S
C987 C322 1.642 . S
C1003 C362 1.642 . S
C1005 C202 1.642 . S
C1021 C383 2.412 . S
C1023 C23 2.412 . S
C1039 C423 2.412 . S
C1041 C63 2.412 . S
C1057 C103 2.412 . S
C1059 C463 2.412 . S
C1075 C143 2.412 . S
C1077 C263 2.412 . S
C1093 C303 2.412 . S
C1095 C183 2.412 . S
C1111 C343 2.412 . S
C1113 C223 2.412 . S
