# Generated by pormake.
# Topology lig, (3)-cn, num edge types: 1
# Building blocks:
#     Node 0, Type 0, BuildingBlock: OLANEW_clean_sbu_2, # of connection points: 3
#     Node 1, Type 0, BuildingBlock: OLANEW_clean_sbu_2, # of connection points: 3
#     Node 2, Type 0, BuildingBlock: OLANEW_clean_sbu_2, # of connection points: 3
#     Node 3, Type 0, BuildingBlock: OLANEW_clean_sbu_2, # of connection points: 3
#     Node 4, Type 0, BuildingBlock: OLANEW_clean_sbu_2, # of connection points: 3
#     Node 5, Type 0, BuildingBlock: OLANEW_clean_sbu_2, # of connection points: 3
#     Node 6, Type 0, BuildingBlock: OLANEW_clean_sbu_2, # of connection points: 3
#     Node 7, Type 0, BuildingBlock: OLANEW_clean_sbu_2, # of connection points: 3
#     Node 8, Type 0, BuildingBlock: OLANEW_clean_sbu_2, # of connection points: 3
#     Node 9, Type 0, BuildingBlock: OLANEW_clean_sbu_2, # of connection points: 3
#     Node 10, Type 0, BuildingBlock: OLANEW_clean_sbu_2, # of connection points: 3
#     Node 11, Type 0, BuildingBlock: OLANEW_clean_sbu_2, # of connection points: 3
#     Node 12, Type 0, BuildingBlock: OLANEW_clean_sbu_2, # of connection points: 3
#     Node 13, Type 0, BuildingBlock: OLANEW_clean_sbu_2, # of connection points: 3
#     Node 14, Type 0, BuildingBlock: OLANEW_clean_sbu_2, # of connection points: 3
#     Node 15, Type 0, BuildingBlock: OLANEW_clean_sbu_2, # of connection points: 3
#     Edge 16, Type (0, 0), BuildingBlock: XUDNAN_clean_linker_2, # of connection points: 2
#     Edge 17, Type (0, 0), BuildingBlock: XUDNAN_clean_linker_2, # of connection points: 2
#     Edge 18, Type (0, 0), BuildingBlock: XUDNAN_clean_linker_2, # of connection points: 2
#     Edge 19, Type (0, 0), BuildingBlock: XUDNAN_clean_linker_2, # of connection points: 2
#     Edge 20, Type (0, 0), BuildingBlock: XUDNAN_clean_linker_2, # of connection points: 2
#     Edge 21, Type (0, 0), BuildingBlock: XUDNAN_clean_linker_2, # of connection points: 2
#     Edge 22, Type (0, 0), BuildingBlock: XUDNAN_clean_linker_2, # of connection points: 2
#     Edge 23, Type (0, 0), BuildingBlock: XUDNAN_clean_linker_2, # of connection points: 2
#     Edge 24, Type (0, 0), BuildingBlock: XUDNAN_clean_linker_2, # of connection points: 2
#     Edge 25, Type (0, 0), BuildingBlock: XUDNAN_clean_linker_2, # of connection points: 2
#     Edge 26, Type (0, 0), BuildingBlock: XUDNAN_clean_linker_2, # of connection points: 2
#     Edge 27, Type (0, 0), BuildingBlock: XUDNAN_clean_linker_2, # of connection points: 2
#     Edge 28, Type (0, 0), BuildingBlock: XUDNAN_clean_linker_2, # of connection points: 2
#     Edge 29, Type (0, 0), BuildingBlock: XUDNAN_clean_linker_2, # of connection points: 2
#     Edge 30, Type (0, 0), BuildingBlock: XUDNAN_clean_linker_2, # of connection points: 2
#     Edge 31, Type (0, 0), BuildingBlock: XUDNAN_clean_linker_2, # of connection points: 2
#     Edge 32, Type (0, 0), BuildingBlock: XUDNAN_clean_linker_2, # of connection points: 2
#     Edge 33, Type (0, 0), BuildingBlock: XUDNAN_clean_linker_2, # of connection points: 2
#     Edge 34, Type (0, 0), BuildingBlock: XUDNAN_clean_linker_2, # of connection points: 2
#     Edge 35, Type (0, 0), BuildingBlock: XUDNAN_clean_linker_2, # of connection points: 2
#     Edge 36, Type (0, 0), BuildingBlock: XUDNAN_clean_linker_2, # of connection points: 2
#     Edge 37, Type (0, 0), BuildingBlock: XUDNAN_clean_linker_2, # of connection points: 2
#     Edge 38, Type (0, 0), BuildingBlock: XUDNAN_clean_linker_2, # of connection points: 2
#     Edge 39, Type (0, 0), BuildingBlock: XUDNAN_clean_linker_2, # of connection points: 2
# Relax obj value: 0.021
# Max RMSD: 0.108
# Mean RMSD: 0.084
data_MOF--net-lig--node1-OLANEW_clean_sbu_2--edge1-XUDNAN_clean_linker_2
_symmetry_space_group_name_H-M    P1
_symmetry_Int_Tables_number       1
_symmetry_cell_setting            triclinic
loop_
_symmetry_equiv_pos_as_xyz
'x, y, z'
_cell_length_a     57.148423
_cell_length_b     49.929792
_cell_length_c     56.497592
_cell_angle_alpha  90.222988
_cell_angle_beta   89.810185
_cell_angle_gamma 114.6002
loop_
_atom_site_label
_atom_site_type_symbol
_atom_site_fract_x
_atom_site_fract_y
_atom_site_fract_z
_atom_type_partial_charge
O0 O 0.19546 0.94233 0.00729 0.0
Cd1 Cd 0.17356 0.90274 0.0355 0.0
O2 O 0.16422 0.95633 0.01239 0.0
Cd3 Cd 0.14169 0.98185 0.0055 0.0
O4 O 0.1161 0.00433 0.00384 0.0
C5 C 0.092 0.98863 0.00324 0.0
O6 O 0.08365 0.95981 0.00299 0.0
C7 C 0.18537 0.96003 0.00246 0.0
C8 C 0.17853 0.92337 0.08199 0.0
O9 O 0.19443 0.91389 0.07331 0.0
O10 O 0.16035 0.92315 0.06866 0.0
O11 O 0.22627 0.93759 0.36979 0.0
Cd12 Cd 0.20896 0.97138 0.3855 0.0
O13 O 0.22931 0.95864 0.33528 0.0
Cd14 Cd 0.23458 0.96092 0.29687 0.0
O15 O 0.22795 0.9593 0.25873 0.0
C16 C 0.21154 0.96832 0.25128 0.0
O17 O 0.20008 0.9787 0.26664 0.0
C18 C 0.23247 0.93951 0.34805 0.0
C19 C 0.22432 0.98766 0.43209 0.0
O20 O 0.20313 0.9655 0.42748 0.0
O21 O 0.23817 0.00213 0.41466 0.0
O22 O 0.38637 0.05919 0.65377 0.0
Cd23 Cd 0.35715 0.08127 0.64179 0.0
O24 O 0.40119 0.06097 0.61754 0.0
Cd25 Cd 0.37294 0.07373 0.60109 0.0
O26 O 0.34262 0.06783 0.57561 0.0
C27 C 0.31952 0.05048 0.58041 0.0
O28 O 0.31419 0.03812 0.6014 0.0
C29 C 0.40178 0.05516 0.63936 0.0
C30 C 0.3271 0.08726 0.67878 0.0
O31 O 0.31848 0.06477 0.66502 0.0
O32 O 0.35002 0.10677 0.67521 0.0
O33 O 0.24184 0.21488 0.85414 0.0
Cd34 Cd 0.23738 0.16401 0.85742 0.0
O35 O 0.28229 0.23399 0.86569 0.0
Cd36 Cd 0.28114 0.19083 0.87386 0.0
O37 O 0.27104 0.14705 0.88858 0.0
C38 C 0.25552 0.13957 0.90598 0.0
O39 O 0.24673 0.15836 0.91405 0.0
C40 C 0.26264 0.23737 0.85845 0.0
C41 C 0.24984 0.14244 0.81575 0.0
O42 O 0.22649 0.13761 0.82056 0.0
O43 O 0.26733 0.15767 0.83052 0.0
O44 O 0.94661 0.06286 0.04411 0.0
Cd45 Cd 0.90747 0.06475 0.0601 0.0
O46 O 0.92868 0.01439 0.04486 0.0
Cd47 Cd 0.89555 0.01225 0.06536 0.0
O48 O 0.8755 0.0151 0.09757 0.0
C49 C 0.8896 0.03108 0.11404 0.0
O50 O 0.91449 0.04508 0.1103 0.0
C51 C 0.94764 0.03838 0.03954 0.0
C52 C 0.88281 0.08601 0.02764 0.0
O53 O 0.89626 0.10244 0.04447 0.0
O54 O 0.88108 0.05965 0.02607 0.0
O55 O 0.80263 0.20962 0.85017 0.0
Cd56 Cd 0.79082 0.15667 0.8493 0.0
O57 O 0.8002 0.21564 0.81184 0.0
Cd58 Cd 0.7895 0.16948 0.80274 0.0
O59 O 0.76941 0.12813 0.78357 0.0
C60 C 0.76772 0.12977 0.76124 0.0
O61 O 0.77902 0.15565 0.75105 0.0
C62 C 0.80432 0.22626 0.83268 0.0
C63 C 0.80523 0.14067 0.89218 0.0
O64 O 0.81894 0.14369 0.87355 0.0
O65 O 0.78451 0.14453 0.89044 0.0
O66 O 0.63723 0.01206 0.63535 0.0
Cd67 Cd 0.60213 0.99606 0.60648 0.0
O68 O 0.61474 0.97968 0.66218 0.0
Cd69 Cd 0.57846 0.96967 0.64394 0.0
O70 O 0.54373 0.97767 0.64202 0.0
C71 C 0.53327 0.97872 0.66169 0.0
O72 O 0.54308 0.97357 0.68124 0.0
C73 C 0.63594 -0.00014 0.65534 0.0
C74 C 0.61465 0.97355 0.56535 0.0
O75 O 0.61993 0.00104 0.56738 0.0
O76 O 0.60342 0.95667 0.58278 0.0
O77 O 0.7473 0.93137 0.30981 0.0
Cd78 Cd 0.75445 0.98121 0.29799 0.0
O79 O 0.72049 0.93242 0.33725 0.0
Cd80 Cd 0.69549 0.91592 0.36823 0.0
O81 O 0.67604 0.91186 0.40236 0.0
C82 C 0.67717 0.93537 0.41209 0.0
O83 O 0.68954 0.96057 0.40116 0.0
C84 C 0.73173 0.91864 0.32651 0.0
C85 C 0.78966 0.00105 0.26082 0.0
O86 O 0.79704 0.00659 0.28239 0.0
O87 O 0.76559 0.98628 0.25684 0.0
O88 O 0.64329 0.48248 0.5475 0.0
Cd89 Cd 0.61899 0.4428 0.57481 0.0
O90 O 0.61642 0.50187 0.55662 0.0
Cd91 Cd 0.59815 0.53235 0.55242 0.0
O92 O 0.57173 0.55268 0.54493 0.0
C93 C 0.54887 0.54032 0.55289 0.0
O94 O 0.54239 0.51653 0.5659 0.0
C95 C 0.63599 0.50311 0.54508 0.0
C96 C 0.64388 0.45109 0.61831 0.0
O97 O 0.64808 0.43591 0.60182 0.0
O98 O 0.62775 0.46225 0.61427 0.0
O99 O 0.79157 0.43166 0.85074 0.0
Cd100 Cd 0.77927 0.47296 0.84784 0.0
O101 O 0.78673 0.4205 0.81283 0.0
Cd102 Cd 0.77193 0.45269 0.80292 0.0
O103 O 0.74939 0.46567 0.7781 0.0
C104 C 0.74614 0.45293 0.75808 0.0
O105 O 0.75679 0.4345 0.75425 0.0
C106 C 0.79283 0.41585 0.83352 0.0
C107 C 0.78188 0.49717 0.89287 0.0
O108 O 0.76072 0.47732 0.88503 0.0
O109 O 0.80158 0.50603 0.87919 0.0
O110 O 0.86355 0.53255 0.15833 0.0
Cd111 Cd 0.83237 0.55336 0.15033 0.0
O112 O 0.87431 0.53372 0.12076 0.0
Cd113 Cd 0.84544 0.54692 0.10608 0.0
O114 O 0.82265 0.54617 0.07492 0.0
C115 C 0.8351 0.55446 0.05565 0.0
O116 O 0.86032 0.56459 0.05619 0.0
C117 C 0.87737 0.52844 0.14225 0.0
C118 C 0.82165 0.57944 0.19041 0.0
O119 O 0.807 0.55287 0.18457 0.0
O120 O 0.84133 0.59359 0.17739 0.0
O121 O 0.71485 0.6997 0.3551 0.0
Cd122 Cd 0.72238 0.65561 0.3628 0.0
O123 O 0.75352 0.7297 0.36723 0.0
Cd124 Cd 0.75707 0.69367 0.38629 0.0
O125 O 0.74181 0.66726 0.41805 0.0
C126 C 0.73413 0.63949 0.41948 0.0
O127 O 0.73651 0.62469 0.40104 0.0
C128 C 0.73222 0.72574 0.35765 0.0
C129 C 0.751 0.64488 0.32663 0.0
O130 O 0.72635 0.63203 0.32671 0.0
O131 O 0.76207 0.66271 0.34362 0.0
O132 O 0.39119 0.55485 0.47455 0.0
Cd133 Cd 0.3487 0.53584 0.45612 0.0
O134 O 0.37311 0.54266 0.50948 0.0
Cd135 Cd 0.37249 0.53942 0.54813 0.0
O136 O 0.36157 0.53674 0.58548 0.0
C137 C 0.37744 0.54086 0.60229 0.0
O138 O 0.4016 0.54703 0.59731 0.0
C139 C 0.39333 0.55289 0.49679 0.0
C140 C 0.33703 0.57753 0.43232 0.0
O141 O 0.3299 0.5706 0.45381 0.0
O142 O 0.35015 0.5652 0.42225 0.0
O143 O 0.29055 0.77365 0.28546 0.0
Cd144 Cd 0.29159 0.72651 0.2753 0.0
O145 O 0.24961 0.75178 0.29544 0.0
Cd146 Cd 0.24392 0.70901 0.28063 0.0
O147 O 0.23055 0.66876 0.25932 0.0
C148 C 0.2444 0.66461 0.24332 0.0
O149 O 0.26796 0.68458 0.24 0.0
C150 C 0.27042 0.77502 0.29393 0.0
C151 C 0.29829 0.69753 0.31514 0.0
O152 O 0.31739 0.71229 0.30168 0.0
O153 O 0.27617 0.69647 0.30979 0.0
O154 O 0.1355 0.49956 0.11852 0.0
Cd155 Cd 0.10215 0.46633 0.09207 0.0
O156 O 0.10886 0.50128 0.14619 0.0
Cd157 Cd 0.07204 0.47692 0.12869 0.0
O158 O 0.03298 0.47463 0.12957 0.0
C159 C 0.02302 0.47296 0.14998 0.0
O160 O 0.03584 0.47069 0.16855 0.0
C161 C 0.13167 0.50847 0.13866 0.0
C162 C 0.12343 0.46237 0.04825 0.0
O163 O 0.11357 0.48089 0.0517 0.0
O164 O 0.12301 0.4455 0.06543 0.0
O165 O 0.32789 0.45988 0.83193 0.0
Cd166 Cd 0.34797 0.51248 0.82296 0.0
O167 O 0.29645 0.46536 0.8505 0.0
Cd168 Cd 0.26167 0.45288 0.87228 0.0
O169 O 0.23131 0.4543 0.89536 0.0
C170 C 0.22684 0.44245 0.91572 0.0
O171 O 0.24021 0.42803 0.92285 0.0
C172 C 0.30676 0.44863 0.84325 0.0
C173 C 0.34852 0.52144 0.77421 0.0
O174 O 0.36758 0.51924 0.78453 0.0
O175 O 0.32937 0.5197 0.787 0.0
H176 H 0.18517 0.01493 0.00187 0.0
H177 H 0.21509 0.95963 0.96474 0.0
H178 H 0.23634 0.99948 0.93574 0.0
H179 H 0.17121 0.0475 0.94955 0.0
H180 H 0.18031 0.08303 0.96335 0.0
H181 H 0.16765 0.05012 0.98108 0.0
H182 H 0.20831 0.07125 0.00754 0.0
H183 H 0.22117 0.10414 0.98983 0.0
H184 H 0.23966 0.08282 0.99413 0.0
H185 H 0.25429 0.04549 0.91086 0.0
H186 H 0.26785 0.0943 0.89209 0.0
H187 H 0.22487 0.11859 0.94505 0.0
C188 C 0.19552 0.01083 0.98728 0.0
C189 C 0.19789 0.9839 0.98517 0.0
C190 C 0.2129 0.98007 0.96656 0.0
C191 C 0.22496 0.00252 0.94999 0.0
C192 C 0.22189 0.02866 0.95237 0.0
C193 C 0.20755 0.03291 0.97055 0.0
C194 C 0.20748 0.06315 0.96933 0.0
C195 C 0.18003 0.0608 0.9656 0.0
C196 C 0.2199 0.08141 0.99152 0.0
C197 C 0.22406 0.07528 0.94761 0.0
C198 C 0.23222 0.05508 0.93809 0.0
C199 C 0.24798 0.06147 0.91813 0.0
C200 C 0.2556 0.08926 0.90761 0.0
C201 C 0.24742 0.11027 0.91708 0.0
C202 C 0.23141 0.10302 0.93733 0.0
H203 H 0.23012 0.94581 0.21496 0.0
H204 H 0.17679 0.9852 0.23024 0.0
H205 H 0.16352 0.97938 0.18834 0.0
H206 H 0.24952 0.97826 0.15663 0.0
H207 H 0.25132 0.94576 0.14441 0.0
H208 H 0.25736 0.95408 0.17545 0.0
H209 H 0.22199 0.90266 0.186 0.0
H210 H 0.2158 0.8942 0.15502 0.0
H211 H 0.18993 0.89174 0.17449 0.0
H212 H 0.15461 0.96726 0.14522 0.0
H213 H 0.15137 0.95062 0.10366 0.0
H214 H 0.21085 0.91968 0.11639 0.0
C215 C 0.21581 0.95344 0.20948 0.0
C216 C 0.20451 0.96598 0.22591 0.0
C217 C 0.18575 0.97555 0.218 0.0
C218 C 0.17808 0.97235 0.19423 0.0
C219 C 0.18941 0.95965 0.17856 0.0
C220 C 0.20795 0.95046 0.18581 0.0
C221 C 0.21668 0.93691 0.16551 0.0
C222 C 0.24543 0.95483 0.16019 0.0
C223 C 0.21074 0.90445 0.17057 0.0
C224 C 0.19999 0.93968 0.14575 0.0
C225 C 0.18441 0.95287 0.15365 0.0
C226 C 0.16683 0.95708 0.13879 0.0
C227 C 0.1651 0.9475 0.11523 0.0
C228 C 0.1809 0.93394 0.10675 0.0
C229 C 0.19863 0.93016 0.12227 0.0
H230 H 0.27058 0.02962 0.44728 0.0
H231 H 0.19753 0.96399 0.47276 0.0
H232 H 0.21263 0.97625 0.51397 0.0
H233 H 0.30929 0.01461 0.48844 0.0
H234 H 0.33213 0.05239 0.49186 0.0
H235 H 0.31464 0.04041 0.46459 0.0
H236 H 0.29797 0.08121 0.46863 0.0
H237 H 0.3154 0.0933 0.49599 0.0
H238 H 0.28125 0.08332 0.4952 0.0
H239 H 0.23678 0.99333 0.55223 0.0
H240 H 0.26857 0.01274 0.58446 0.0
H241 H 0.32577 0.06703 0.53377 0.0
C242 C 0.25759 0.01811 0.46151 0.0
C243 C 0.23283 0.99593 0.4568 0.0
C244 C 0.21656 0.98111 0.47595 0.0
C245 C 0.22493 0.988 0.49941 0.0
C246 C 0.24956 0.00979 0.50343 0.0
C247 C 0.26565 0.02463 0.485 0.0
C248 C 0.29178 0.0458 0.49398 0.0
C249 C 0.31321 0.03781 0.48414 0.0
C250 C 0.29689 0.0778 0.4881 0.0
C251 C 0.28808 0.04009 0.52031 0.0
C252 C 0.26352 0.0195 0.52544 0.0
C253 C 0.25599 0.00969 0.54845 0.0
C254 C 0.27419 0.02084 0.56665 0.0
C255 C 0.29965 0.04146 0.56168 0.0
C256 C 0.30642 0.05151 0.53822 0.0
H257 H 0.29763 0.15768 0.79611 0.0
H258 H 0.21687 0.10011 0.78615 0.0
H259 H 0.22788 0.07923 0.7503 0.0
H260 H 0.31249 0.17321 0.73424 0.0
H261 H 0.34418 0.17391 0.73666 0.0
H262 H 0.32993 0.18391 0.76173 0.0
H263 H 0.33642 0.14442 0.78712 0.0
H264 H 0.35062 0.13424 0.76212 0.0
H265 H 0.32333 0.10671 0.77704 0.0
H266 H 0.2479 0.06365 0.71616 0.0
H267 H 0.27512 0.05674 0.68477 0.0
H268 H 0.34255 0.12595 0.71615 0.0
C269 C 0.28226 0.14065 0.78641 0.0
C270 C 0.25639 0.13043 0.79398 0.0
C271 C 0.23681 0.10831 0.78067 0.0
C272 C 0.24288 0.09625 0.76032 0.0
C273 C 0.26859 0.10675 0.75341 0.0
C274 C 0.28794 0.12863 0.76593 0.0
C275 C 0.31395 0.13649 0.75443 0.0
C276 C 0.32583 0.16879 0.74628 0.0
C277 C 0.33215 0.13007 0.77118 0.0
C278 C 0.30623 0.11552 0.73355 0.0
C279 C 0.28001 0.0984 0.73337 0.0
C280 C 0.26844 0.07704 0.71604 0.0
C281 C 0.28407 0.07322 0.69833 0.0
C282 C 0.31093 0.09087 0.69795 0.0
C283 C 0.32205 0.11225 0.71586 0.0
H284 H 0.78089 0.98643 0.21383 0.0
H285 H 0.84091 0.03782 0.26334 0.0
H286 H 0.87253 0.05321 0.23066 0.0
H287 H 0.81898 0.95982 0.17984 0.0
H288 H 0.80446 0.96152 0.15194 0.0
H289 H 0.78624 0.9561 0.17891 0.0
H290 H 0.77738 0.00179 0.16944 0.0
H291 H 0.79561 0.00736 0.14241 0.0
H292 H 0.80405 0.0367 0.16385 0.0
H293 H 0.89785 0.06161 0.19297 0.0
H294 H 0.91545 0.06135 0.15311 0.0
H295 H 0.83902 0.00384 0.12822 0.0
C296 C 0.80063 0.00117 0.21777 0.0
C297 C 0.80842 0.01103 0.24113 0.0
C298 C 0.83449 0.03002 0.24558 0.0
C299 C 0.85258 0.03894 0.22714 0.0
C300 C 0.84429 0.02866 0.20435 0.0
C301 C 0.81895 0.01016 0.1996 0.0
C302 C 0.81527 0.00125 0.17375 0.0
C303 C 0.80568 0.96769 0.17096 0.0
C304 C 0.797 0.01245 0.16165 0.0
C305 C 0.84257 0.01733 0.16476 0.0
C306 C 0.85896 0.03321 0.18266 0.0
C307 C 0.88519 0.04937 0.17878 0.0
C308 C 0.895 0.04906 0.15606 0.0
C309 C 0.87863 0.03257 0.13751 0.0
C310 C 0.85203 0.01674 0.14198 0.0
H311 H 0.87597 0.07393 0.98036 0.0
H312 H 0.85993 0.12317 0.03664 0.0
H313 H 0.83652 0.14081 0.0083 0.0
H314 H 0.88886 0.13007 0.93621 0.0
H315 H 0.8751 0.10426 0.91233 0.0
H316 H 0.88906 0.09408 0.93735 0.0
H317 H 0.84624 0.04821 0.94418 0.0
H318 H 0.83211 0.05832 0.91924 0.0
H319 H 0.81679 0.05285 0.94785 0.0
H320 H 0.81339 0.15122 0.97413 0.0
H321 H 0.79715 0.15934 0.9355 0.0
H322 H 0.83226 0.10755 0.90079 0.0
C323 C 0.86737 0.08828 0.98668 0.0
C324 C 0.86941 0.09701 0.01065 0.0
C325 C 0.85846 0.11628 0.0183 0.0
C326 C 0.84506 0.12625 0.00239 0.0
C327 C 0.84332 0.1172 0.97883 0.0
C328 C 0.85458 0.0991 0.9709 0.0
C329 C 0.85138 0.09422 0.94441 0.0
C330 C 0.87766 0.10639 0.93184 0.0
C331 C 0.83569 0.06146 0.93859 0.0
C332 C 0.83643 0.11227 0.9387 0.0
C333 C 0.83156 0.12489 0.95887 0.0
C334 C 0.81729 0.1417 0.95818 0.0
C335 C 0.80806 0.14607 0.93622 0.0
C336 C 0.81365 0.13423 0.91526 0.0
C337 C 0.82796 0.11708 0.91656 0.0
H338 H 0.67926 0.05144 0.6518 0.0
H339 H 0.64213 0.97468 0.6965 0.0
H340 H 0.67578 0.99733 0.72673 0.0
H341 H 0.74723 0.069 0.66979 0.0
H342 H 0.75576 0.10804 0.66897 0.0
H343 H 0.73155 0.0836 0.64917 0.0
H344 H 0.6993 0.1038 0.66471 0.0
H345 H 0.72326 0.12807 0.68464 0.0
H346 H 0.69258 0.10252 0.696 0.0
H347 H 0.70969 0.03101 0.75426 0.0
H348 H 0.74121 0.07297 0.77675 0.0
H349 H 0.75588 0.12785 0.71419 0.0
C350 C 0.67865 0.03895 0.6676 0.0
C351 C 0.65815 0.01119 0.6717 0.0
C352 C 0.65772 0.99592 0.6929 0.0
C353 C 0.6768 0.00857 0.71017 0.0
C354 C 0.69625 0.03644 0.70592 0.0
C355 C 0.69743 0.05135 0.68506 0.0
C356 C 0.71865 0.08223 0.68585 0.0
C357 C 0.73954 0.08592 0.66735 0.0
C358 C 0.70778 0.10551 0.68262 0.0
C359 C 0.72856 0.08275 0.71074 0.0
C360 C 0.71569 0.056 0.7219 0.0
C361 C 0.72022 0.0519 0.74556 0.0
C362 C 0.73811 0.0759 0.75822 0.0
C363 C 0.75109 0.10368 0.74723 0.0
C364 C 0.74653 0.10684 0.72305 0.0
H365 H 0.67626 0.98201 0.43716 0.0
H366 H 0.65114 0.88718 0.44015 0.0
H367 H 0.63196 0.88644 0.47957 0.0
H368 H 0.6934 0.99653 0.49814 0.0
H369 H 0.68219 0.02524 0.50072 0.0
H370 H 0.69347 0.01813 0.47261 0.0
H371 H 0.65014 0.01071 0.45324 0.0
H372 H 0.63872 0.01782 0.48128 0.0
H373 H 0.62045 0.98409 0.46554 0.0
H374 H 0.61614 0.89635 0.51907 0.0
H375 H 0.60461 0.91601 0.55532 0.0
H376 H 0.64006 0.00428 0.52612 0.0
C377 C 0.66668 0.96103 0.44603 0.0
C378 C 0.66521 0.93463 0.43554 0.0
C379 C 0.6525 0.90769 0.44781 0.0
C380 C 0.64155 0.90705 0.47021 0.0
C381 C 0.64344 0.93352 0.48006 0.0
C382 C 0.65565 0.95999 0.46833 0.0
C383 C 0.65523 0.98537 0.48282 0.0
C384 C 0.6827 0.00762 0.48893 0.0
C385 C 0.64024 0.00037 0.46995 0.0
C386 C 0.64096 0.96908 0.5046 0.0
C387 C 0.6343 0.93919 0.50268 0.0
C388 C 0.62121 0.91971 0.52073 0.0
C389 C 0.61476 0.9311 0.54126 0.0
C390 C 0.6214 0.96168 0.54357 0.0
C391 C 0.63465 0.98079 0.52491 0.0
H392 H 0.71724 0.5806 0.4301 0.0
H393 H 0.72027 0.66327 0.4578 0.0
H394 H 0.69559 0.63735 0.49285 0.0
H395 H 0.65335 0.53533 0.44895 0.0
H396 H 0.66019 0.50436 0.45677 0.0
H397 H 0.6787 0.5294 0.43398 0.0
H398 H 0.72083 0.53868 0.45649 0.0
H399 H 0.70245 0.51352 0.47928 0.0
H400 H 0.72417 0.55067 0.48693 0.0
H401 H 0.66912 0.60239 0.52413 0.0
H402 H 0.64482 0.56088 0.55077 0.0
H403 H 0.65955 0.50108 0.50336 0.0
C404 C 0.71287 0.59329 0.44361 0.0
C405 C 0.72069 0.62398 0.44114 0.0
C406 C 0.71457 0.63976 0.45926 0.0
C407 C 0.70049 0.62524 0.47924 0.0
C408 C 0.69281 0.59496 0.48098 0.0
C409 C 0.69897 0.57917 0.46379 0.0
C410 C 0.68838 0.54677 0.47004 0.0
C411 C 0.669 0.52786 0.45132 0.0
C412 C 0.71027 0.53684 0.47339 0.0
C413 C 0.67513 0.54682 0.49331 0.0
C414 C 0.67781 0.57482 0.49922 0.0
C415 C 0.66685 0.58035 0.51968 0.0
C416 C 0.65284 0.5566 0.53456 0.0
C417 C 0.64998 0.52778 0.5289 0.0
C418 C 0.66143 0.52293 0.50808 0.0
H419 H 0.677 0.42759 0.63271 0.0
H420 H 0.64128 0.48481 0.65583 0.0
H421 H 0.66412 0.49242 0.69407 0.0
H422 H 0.67375 0.39269 0.68862 0.0
H423 H 0.70432 0.39067 0.68491 0.0
H424 H 0.68541 0.39022 0.65936 0.0
H425 H 0.724 0.43509 0.64211 0.0
H426 H 0.74302 0.43572 0.66763 0.0
H427 H 0.73867 0.46824 0.65955 0.0
H428 H 0.69104 0.49357 0.72997 0.0
H429 H 0.71904 0.48727 0.76074 0.0
H430 H 0.73654 0.42909 0.71365 0.0
C431 C 0.67398 0.44177 0.64577 0.0
C432 C 0.65738 0.45564 0.64127 0.0
C433 C 0.65391 0.47394 0.6589 0.0
C434 C 0.66682 0.47844 0.68065 0.0
C435 C 0.68308 0.46444 0.68448 0.0
C436 C 0.68662 0.44642 0.66753 0.0
C437 C 0.70485 0.43361 0.67607 0.0
C438 C 0.69126 0.3998 0.67732 0.0
C439 C 0.72907 0.44379 0.66041 0.0
C440 C 0.71102 0.4472 0.70049 0.0
C441 C 0.69836 0.46498 0.70505 0.0
C442 C 0.70106 0.47972 0.72658 0.0
C443 C 0.71702 0.47603 0.74393 0.0
C444 C 0.72998 0.4577 0.73962 0.0
C445 C 0.72693 0.44328 0.71754 0.0
H446 H 0.85662 0.56627 0.01149 0.0
H447 H 0.78293 0.53012 0.04779 0.0
H448 H 0.76074 0.51607 0.00925 0.0
H449 H 0.83506 0.59358 0.95843 0.0
H450 H 0.85527 0.5836 0.93904 0.0
H451 H 0.86499 0.59434 0.96919 0.0
H452 H 0.86925 0.54524 0.97591 0.0
H453 H 0.85943 0.53429 0.94591 0.0
H454 H 0.84206 0.51085 0.97003 0.0
H455 H 0.74702 0.50063 0.96718 0.0
H456 H 0.74289 0.48596 0.92504 0.0
H457 H 0.82562 0.53265 0.9165 0.0
C458 C 0.83578 0.55602 0.01136 0.0
C459 C 0.82151 0.54937 0.03267 0.0
C460 C 0.79428 0.53557 0.03169 0.0
C461 C 0.7815 0.52754 0.00988 0.0
C462 C 0.79622 0.53371 0.98923 0.0
C463 C 0.82277 0.54789 0.9898 0.0
C464 C 0.83426 0.55 0.96533 0.0
C465 C 0.84822 0.58231 0.95754 0.0
C466 C 0.8523 0.53414 0.96425 0.0
C467 C 0.8101 0.53391 0.95098 0.0
C468 C 0.78832 0.52495 0.96501 0.0
C469 C 0.76391 0.50796 0.95596 0.0
C470 C 0.76176 0.49967 0.93201 0.0
C471 C 0.78391 0.5083 0.91744 0.0
C472 C 0.80829 0.52604 0.92707 0.0
H473 H 0.77618 0.56134 0.21506 0.0
H474 H 0.85425 0.62939 0.21324 0.0
H475 H 0.8449 0.65304 0.24831 0.0
H476 H 0.74618 0.60932 0.23107 0.0
H477 H 0.72234 0.58267 0.24988 0.0
H478 H 0.73545 0.5705 0.22519 0.0
H479 H 0.74908 0.53875 0.2534 0.0
H480 H 0.73601 0.55082 0.27818 0.0
H481 H 0.76912 0.55586 0.27857 0.0
H482 H 0.82723 0.66886 0.28394 0.0
H483 H 0.80181 0.67728 0.31625 0.0
H484 H 0.73468 0.60023 0.29372 0.0
C485 C 0.79136 0.58113 0.22212 0.0
C486 C 0.816 0.59345 0.2115 0.0
C487 C 0.83524 0.61957 0.22109 0.0
C488 C 0.83013 0.63312 0.24104 0.0
C489 C 0.80562 0.62044 0.25105 0.0
C490 C 0.78649 0.59515 0.24183 0.0
C491 C 0.76154 0.58656 0.25547 0.0
C492 C 0.74012 0.58732 0.23944 0.0
C493 C 0.75347 0.5562 0.2671 0.0
C494 C 0.76964 0.61092 0.27383 0.0
C495 C 0.7952 0.63009 0.27109 0.0
C496 C 0.80716 0.65406 0.28619 0.0
C497 C 0.79258 0.65863 0.30452 0.0
C498 C 0.76625 0.6395 0.30745 0.0
C499 C 0.75472 0.61536 0.29184 0.0
H500 H 0.40431 0.54055 0.64246 0.0
H501 H 0.33061 0.53592 0.61843 0.0
H502 H 0.31567 0.53173 0.65983 0.0
H503 H 0.37912 0.48764 0.68892 0.0
H504 H 0.40537 0.50674 0.70892 0.0
H505 H 0.41063 0.5104 0.67743 0.0
H506 H 0.42826 0.56716 0.68134 0.0
H507 H 0.42304 0.56368 0.71285 0.0
H508 H 0.4088 0.58322 0.6955 0.0
H509 H 0.30857 0.52768 0.70374 0.0
H510 H 0.30935 0.52262 0.74713 0.0
H511 H 0.38736 0.52896 0.74257 0.0
C512 C 0.38507 0.53881 0.6459 0.0
C513 C 0.36865 0.53864 0.62718 0.0
C514 C 0.34354 0.53608 0.63245 0.0
C515 C 0.33489 0.53376 0.65592 0.0
C516 C 0.35153 0.53392 0.67393 0.0
C517 C 0.37606 0.53629 0.66922 0.0
C518 C 0.38984 0.53514 0.6918 0.0
C519 C 0.39663 0.50839 0.69176 0.0
C520 C 0.41391 0.56402 0.69559 0.0
C521 C 0.36919 0.53167 0.70992 0.0
C522 C 0.3473 0.53117 0.69924 0.0
C523 C 0.32561 0.52806 0.71231 0.0
C524 C 0.32625 0.52522 0.73695 0.0
C525 C 0.3484 0.52537 0.74827 0.0
C526 C 0.37014 0.52875 0.73448 0.0
H527 H 0.33514 0.67682 0.3226 0.0
H528 H 0.26827 0.6824 0.35477 0.0
H529 H 0.27278 0.65513 0.3896 0.0
H530 H 0.31934 0.60319 0.34042 0.0
H531 H 0.35218 0.60871 0.3454 0.0
H532 H 0.34513 0.63095 0.32403 0.0
H533 H 0.37622 0.67826 0.34559 0.0
H534 H 0.38335 0.65613 0.36706 0.0
H535 H 0.37171 0.68285 0.37669 0.0
H536 H 0.2842 0.62673 0.42062 0.0
H537 H 0.29936 0.59545 0.44411 0.0
H538 H 0.35712 0.60572 0.39058 0.0
C539 C 0.32169 0.67264 0.33714 0.0
C540 C 0.30151 0.68194 0.33616 0.0
C541 C 0.2839 0.6755 0.35524 0.0
C542 C 0.28638 0.66016 0.37512 0.0
C543 C 0.30638 0.65112 0.37549 0.0
C544 C 0.32358 0.65686 0.35691 0.0
C545 C 0.3422 0.64286 0.36097 0.0
C546 C 0.33954 0.62008 0.34155 0.0
C547 C 0.37002 0.66644 0.36268 0.0
C548 C 0.33266 0.6282 0.38464 0.0
C549 C 0.31226 0.63363 0.39289 0.0
C550 C 0.30017 0.62232 0.41435 0.0
C551 C 0.30896 0.60465 0.42759 0.0
C552 C 0.32936 0.5981 0.41914 0.0
C553 C 0.34144 0.61028 0.39746 0.0
H554 H 0.19503 0.62195 0.24322 0.0
H555 H 0.26822 0.64965 0.20657 0.0
H556 H 0.24823 0.60947 0.17748 0.0
H557 H 0.17301 0.54207 0.23298 0.0
H558 H 0.1401 0.53678 0.22891 0.0
H559 H 0.16097 0.56554 0.24824 0.0
H560 H 0.15121 0.60403 0.22449 0.0
H561 H 0.13044 0.57548 0.20507 0.0
H562 H 0.15685 0.60705 0.19299 0.0
H563 H 0.21905 0.56898 0.15029 0.0
H564 H 0.18326 0.5319 0.12749 0.0
H565 H 0.12959 0.53134 0.18228 0.0
C566 C 0.20703 0.61928 0.22936 0.0
C567 C 0.23322 0.63892 0.22722 0.0
C568 C 0.24813 0.63482 0.20862 0.0
C569 C 0.23695 0.61202 0.19204 0.0
C570 C 0.21091 0.59342 0.19439 0.0
C571 C 0.19621 0.59673 0.21269 0.0
C572 C 0.16831 0.57519 0.21046 0.0
C573 C 0.16012 0.55361 0.23139 0.0
C574 C 0.15068 0.59141 0.2081 0.0
C575 C 0.16944 0.55978 0.18768 0.0
C576 C 0.19419 0.5703 0.17878 0.0
C577 C 0.19963 0.56032 0.15726 0.0
C578 C 0.17918 0.53927 0.14441 0.0
C579 C 0.1536 0.52863 0.15307 0.0
C580 C 0.14891 0.53882 0.17518 0.0
H581 H 0.15255 0.43188 0.0377 0.0
H582 H 0.12178 0.49001 0.00692 0.0
H583 H 0.14303 0.48906 0.96898 0.0
H584 H 0.21377 0.46472 0.01013 0.0
H585 H 0.21684 0.43056 0.00567 0.0
H586 H 0.19781 0.43419 0.02989 0.0
H587 H 0.15846 0.38842 0.01488 0.0
H588 H 0.17739 0.38464 0.9906 0.0
H589 H 0.14755 0.38762 0.98487 0.0
H590 H 0.16883 0.48318 0.93483 0.0
H591 H 0.19832 0.474 0.9073 0.0
H592 H 0.21288 0.42039 0.9606 0.0
C593 C 0.15003 0.44416 0.02292 0.0
C594 C 0.13539 0.46092 0.02526 0.0
C595 C 0.13286 0.47697 0.00555 0.0
C596 C 0.14481 0.47652 0.9839 0.0
C597 C 0.15925 0.45995 0.98226 0.0
C598 C 0.16195 0.4441 0.00124 0.0
C599 C 0.17947 0.42916 0.99513 0.0
C600 C 0.20339 0.44034 0.01115 0.0
C601 C 0.16484 0.39546 0.99645 0.0
C602 C 0.18645 0.43936 0.96983 0.0
C603 C 0.17441 0.45689 0.96268 0.0
C604 C 0.17828 0.46938 0.9402 0.0
C605 C 0.19508 0.46402 0.92468 0.0
C606 C 0.20795 0.44647 0.93175 0.0
C607 C 0.20332 0.43383 0.9546 0.0
H608 H 0.95555 0.98966 0.02754 0.0
H609 H 0.99361 0.08517 0.02966 0.0
H610 H 0.03431 0.08312 0.01711 0.0
H611 H 0.0054 0.97674 0.05195 0.0
H612 H 0.00066 0.94507 0.03387 0.0
H613 H 0.97398 0.95421 0.04019 0.0
H614 H 0.96564 0.956 0.99527 0.0
H615 H 0.99225 0.94667 0.98879 0.0
H616 H 0.99139 0.97941 0.97629 0.0
H617 H 0.07182 0.07022 0.00826 0.0
H618 H 0.10266 0.04762 0.00316 0.0
H619 H 0.03956 0.96071 0.00672 0.0
C620 C 0.97229 0.01023 0.02494 0.0
C621 C 0.97135 0.03759 0.02956 0.0
C622 C 0.99381 0.06394 0.02614 0.0
C623 C 0.01702 0.06299 0.01899 0.0
C624 C 0.01738 0.03557 0.01514 0.0
C625 C 0.99552 0.00968 0.01781 0.0
C626 C 0.00124 0.98299 0.01402 0.0
C627 C 0.99495 0.96363 0.03634 0.0
C628 C 0.98677 0.96522 0.9923 0.0
C629 C 0.02991 0.99785 0.00952 0.0
C630 C 0.03887 0.02817 0.00999 0.0
C631 C 0.06496 0.0465 0.00753 0.0
C632 C 0.08234 0.03345 0.0047 0.0
C633 C 0.07354 0.00239 0.00447 0.0
C634 C 0.04692 0.98451 0.0066 0.0
H635 H 0.23801 0.78474 0.32506 0.0
H636 H 0.30303 0.82984 0.27845 0.0
H637 H 0.30084 0.87723 0.28762 0.0
H638 H 0.20266 0.82611 0.31136 0.0
H639 H 0.19172 0.82691 0.34121 0.0
H640 H 0.19893 0.79676 0.3316 0.0
H641 H 0.23116 0.80675 0.36621 0.0
H642 H 0.2239 0.83681 0.37606 0.0
H643 H 0.25672 0.84301 0.36983 0.0
H644 H 0.28905 0.91892 0.29934 0.0
H645 H 0.27158 0.95272 0.31614 0.0
H646 H 0.21618 0.88083 0.357 0.0
C647 C 0.25192 0.80463 0.31693 0.0
C648 C 0.27062 0.80365 0.30096 0.0
C649 C 0.28861 0.83015 0.29081 0.0
C650 C 0.28745 0.85712 0.29584 0.0
C651 C 0.26848 0.85723 0.31137 0.0
C652 C 0.25133 0.83175 0.32209 0.0
C653 C 0.23293 0.83785 0.33828 0.0
C654 C 0.20491 0.8209 0.33011 0.0
C655 C 0.2364 0.83069 0.36412 0.0
C656 C 0.24206 0.87067 0.33464 0.0
C657 C 0.26245 0.88141 0.3189 0.0
C658 C 0.27328 0.91082 0.31187 0.0
C659 C 0.26313 0.92977 0.32132 0.0
C660 C 0.24257 0.91927 0.33777 0.0
C661 C 0.23207 0.88941 0.34459 0.0
H662 H 0.43652 0.04325 0.61275 0.0
H663 H 0.40823 0.03955 0.68466 0.0
H664 H 0.43808 0.0184 0.69802 0.0
H665 H 0.44382 0.97527 0.61438 0.0
H666 H 0.47279 0.98901 0.59678 0.0
H667 H 0.44923 0.00386 0.59289 0.0
H668 H 0.48412 0.05648 0.60089 0.0
H669 H 0.50781 0.04182 0.60469 0.0
H670 H 0.50268 0.06382 0.62779 0.0
H671 H 0.47121 0.99789 0.70349 0.0
H672 H 0.50575 0.98054 0.7009 0.0
H673 H 0.512 0.99743 0.62528 0.0
C674 C 0.43656 0.03805 0.63133 0.0
C675 C 0.42 0.04308 0.64766 0.0
C676 C 0.42073 0.03593 0.67181 0.0
C677 C 0.43759 0.02386 0.67957 0.0
C678 C 0.45354 0.01906 0.66295 0.0
C679 C 0.4532 0.026 0.63935 0.0
C680 C 0.4724 0.01891 0.62509 0.0
C681 C 0.45873 0.99536 0.60617 0.0
C682 C 0.49297 0.04693 0.61397 0.0
C683 C 0.48368 0.00695 0.64437 0.0
C684 C 0.47252 0.00718 0.66607 0.0
C685 C 0.48005 0.99756 0.68659 0.0
C686 C 0.49969 0.98773 0.68492 0.0
C687 C 0.51157 0.98756 0.66288 0.0
C688 C 0.50322 0.99711 0.64236 0.0
H689 H 0.33111 0.41255 0.84974 0.0
H690 H 0.25526 0.4122 0.84507 0.0
H691 H 0.23546 0.35795 0.849 0.0
H692 H 0.31766 0.34806 0.81595 0.0
H693 H 0.33701 0.33521 0.83376 0.0
H694 H 0.3451 0.37405 0.83179 0.0
H695 H 0.34301 0.37737 0.87749 0.0
H696 H 0.33514 0.33858 0.87962 0.0
H697 H 0.31429 0.35335 0.89292 0.0
H698 H 0.22423 0.30333 0.85074 0.0
H699 H 0.22226 0.25302 0.85338 0.0
H700 H 0.30561 0.28964 0.85778 0.0
C701 C 0.31032 0.40106 0.8498 0.0
C702 C 0.29468 0.41656 0.84749 0.0
C703 C 0.26757 0.40082 0.84751 0.0
C704 C 0.25618 0.36999 0.84946 0.0
C705 C 0.2722 0.35534 0.85152 0.0
C706 C 0.29868 0.37041 0.85197 0.0
C707 C 0.31163 0.34956 0.85422 0.0
C708 C 0.32886 0.35186 0.83264 0.0
C709 C 0.32691 0.35504 0.87745 0.0
C710 C 0.28831 0.32033 0.85463 0.0
C711 C 0.26574 0.32408 0.85294 0.0
C712 C 0.24177 0.30015 0.85228 0.0
C713 C 0.24086 0.27166 0.85368 0.0
C714 C 0.26377 0.26739 0.85588 0.0
C715 C 0.28775 0.29214 0.85629 0.0
H716 H 0.79418 0.37569 0.80101 0.0
H717 H 0.8075 0.39949 0.87534 0.0
H718 H 0.81634 0.35579 0.88247 0.0
H719 H 0.76052 0.30032 0.80952 0.0
H720 H 0.77365 0.28955 0.78403 0.0
H721 H 0.77139 0.32441 0.78429 0.0
H722 H 0.82029 0.35125 0.77569 0.0
H723 H 0.8227 0.31639 0.77538 0.0
H724 H 0.84283 0.3454 0.79493 0.0
H725 H 0.81965 0.30706 0.88215 0.0
H726 H 0.8168 0.25708 0.87451 0.0
H727 H 0.80147 0.26556 0.80033 0.0
C728 C 0.79941 0.37208 0.81872 0.0
C729 C 0.80022 0.39111 0.8376 0.0
C730 C 0.80684 0.38529 0.86057 0.0
C731 C 0.81196 0.36057 0.86479 0.0
C732 C 0.81055 0.342 0.84583 0.0
C733 C 0.80455 0.34756 0.82323 0.0
C734 C 0.80253 0.32318 0.80624 0.0
C735 C 0.77541 0.3085 0.7954 0.0
C736 C 0.82334 0.33475 0.78692 0.0
C737 C 0.80761 0.3026 0.82294 0.0
C738 C 0.81248 0.31397 0.84564 0.0
C739 C 0.8162 0.29811 0.86438 0.0
C740 C 0.8145 0.26971 0.85986 0.0
C741 C 0.80902 0.2574 0.83679 0.0
C742 C 0.80602 0.27441 0.81809 0.0
H743 H 0.7666 0.89452 0.32897 0.0
H744 H 0.68554 0.87405 0.33772 0.0
H745 H 0.67659 0.82185 0.3452 0.0
H746 H 0.75981 0.82807 0.30004 0.0
H747 H 0.7863 0.82513 0.31527 0.0
H748 H 0.78635 0.86079 0.31044 0.0
H749 H 0.79178 0.87172 0.35546 0.0
H750 H 0.79204 0.83624 0.36039 0.0
H751 H 0.76919 0.84621 0.37586 0.0
H752 H 0.67629 0.77148 0.34921 0.0
H753 H 0.68526 0.72767 0.35527 0.0
H754 H 0.767 0.78177 0.34684 0.0
C755 C 0.74701 0.87901 0.3326 0.0
C756 C 0.72672 0.88815 0.33287 0.0
C757 C 0.70135 0.86744 0.33779 0.0
C758 C 0.69607 0.83776 0.34183 0.0
C759 C 0.71648 0.82936 0.34122 0.0
C760 C 0.74151 0.84948 0.33719 0.0
C761 C 0.76008 0.83499 0.33843 0.0
C762 C 0.77395 0.83739 0.31462 0.0
C763 C 0.77941 0.84806 0.35875 0.0
C764 C 0.74156 0.8035 0.34353 0.0
C765 C 0.71646 0.80064 0.34471 0.0
C766 C 0.69589 0.77349 0.34855 0.0
C767 C 0.70116 0.74872 0.35181 0.0
C768 C 0.72682 0.75137 0.3516 0.0
C769 C 0.74721 0.77912 0.34722 0.0
H770 H 0.40619 0.52363 0.53144 0.0
H771 H 0.43837 0.59813 0.48393 0.0
H772 H 0.48222 0.60682 0.49701 0.0
H773 H 0.45473 0.5522 0.57938 0.0
H774 H 0.45549 0.51692 0.58431 0.0
H775 H 0.42628 0.5187 0.57434 0.0
H776 H 0.42394 0.48605 0.53832 0.0
H777 H 0.45273 0.4832 0.54805 0.0
H778 H 0.45121 0.49635 0.51867 0.0
H779 H 0.52239 0.60388 0.51173 0.0
H780 H 0.55587 0.58892 0.52625 0.0
H781 H 0.49737 0.51534 0.56334 0.0
C782 C 0.42243 0.54251 0.52458 0.0
C783 C 0.41898 0.56073 0.50717 0.0
C784 C 0.4407 0.58425 0.49757 0.0
C785 C 0.46563 0.58937 0.50493 0.0
C786 C 0.46846 0.57057 0.52173 0.0
C787 C 0.44744 0.54759 0.53145 0.0
C788 C 0.45576 0.52843 0.54694 0.0
C789 C 0.4476 0.52915 0.57279 0.0
C790 C 0.44529 0.49664 0.53741 0.0
C791 C 0.48469 0.54394 0.54412 0.0
C792 C 0.49165 0.56837 0.52973 0.0
C793 C 0.5172 0.58504 0.5233 0.0
C794 C 0.53608 0.57632 0.53159 0.0
C795 C 0.52928 0.55102 0.54601 0.0
C796 C 0.50326 0.53498 0.55258 0.0
H797 H 0.91118 0.51972 0.11206 0.0
H798 H 0.88829 0.51247 0.18597 0.0
H799 H 0.92152 0.49463 0.19562 0.0
H800 H 0.92483 0.45504 0.10992 0.0
H801 H 0.95213 0.47202 0.09052 0.0
H802 H 0.92585 0.483 0.08932 0.0
H803 H 0.95759 0.53734 0.09659 0.0
H804 H 0.98395 0.52656 0.09772 0.0
H805 H 0.97833 0.5465 0.12213 0.0
H806 H 0.95828 0.4792 0.1973 0.0
H807 H 0.99646 0.46878 0.1912 0.0
H808 H 0.99506 0.48617 0.1161 0.0
C809 C 0.91298 0.51424 0.13028 0.0
C810 C 0.89705 0.51746 0.14826 0.0
C811 C 0.90024 0.51017 0.17188 0.0
C812 C 0.91901 0.49995 0.17753 0.0
C813 C 0.93439 0.49708 0.15934 0.0
C814 C 0.93158 0.50406 0.13621 0.0
C815 C 0.95108 0.50001 0.12006 0.0
C816 C 0.93766 0.47609 0.10135 0.0
C817 C 0.96878 0.52935 0.10845 0.0
C818 C 0.96554 0.48999 0.13777 0.0
C819 C 0.95552 0.48826 0.16031 0.0
C820 C 0.96619 0.48033 0.17972 0.0
C821 C 0.98789 0.47444 0.17605 0.0
C822 C 0.99875 0.47658 0.15316 0.0
C823 C 0.98713 0.48409 0.13377 0.0
loop_
_geom_bond_atom_site_label_1
_geom_bond_atom_site_label_2
_geom_bond_distance
_geom_bond_site_symmetry_2
_ccdc_geom_bond_type
O0 Cd1 2.300 . S
O0 C7 1.275 . S
Cd1 O0 2.300 . S
Cd1 O9 2.381 1_545 S
Cd1 O10 2.378 . S
O2 Cd3 2.385 . S
O2 C7 1.255 . S
Cd3 O2 2.385 . S
Cd3 O4 2.317 . S
O4 Cd3 2.317 . S
O4 C5 1.232 . S
C5 O4 1.232 . S
C5 O6 1.218 . S
O6 C5 1.218 . S
C7 O0 1.275 . S
C7 O2 1.255 . S
C8 O9 1.258 . S
C8 O10 1.256 1_565 S
O9 Cd1 2.381 1_565 S
O9 C8 1.258 . S
O10 Cd1 2.378 . S
O10 C8 1.256 1_545 S
O11 Cd12 2.300 . S
O11 C18 1.275 . S
Cd12 O11 2.300 . S
Cd12 O20 2.381 . S
Cd12 O21 2.378 . S
O13 Cd14 2.385 . S
O13 C18 1.255 . S
Cd14 O13 2.385 . S
Cd14 O15 2.317 . S
O15 Cd14 2.317 . S
O15 C16 1.232 . S
C16 O15 1.232 . S
C16 O17 1.218 . S
O17 C16 1.218 . S
C18 O11 1.275 . S
C18 O13 1.255 . S
C19 O20 1.258 . S
C19 O21 1.256 . S
O20 Cd12 2.381 . S
O20 C19 1.258 . S
O21 Cd12 2.378 . S
O21 C19 1.256 . S
O22 Cd23 2.300 . S
O22 C29 1.275 . S
Cd23 O22 2.300 . S
Cd23 O31 2.381 . S
Cd23 O32 2.378 . S
O24 Cd25 2.385 . S
O24 C29 1.255 . S
Cd25 O24 2.385 . S
Cd25 O26 2.317 . S
O26 Cd25 2.317 . S
O26 C27 1.232 . S
C27 O26 1.232 . S
C27 O28 1.218 . S
O28 C27 1.218 . S
C29 O22 1.275 . S
C29 O24 1.255 . S
C30 O31 1.258 . S
C30 O32 1.256 . S
O31 Cd23 2.381 . S
O31 C30 1.258 . S
O32 Cd23 2.378 . S
O32 C30 1.256 . S
O33 Cd34 2.300 . S
O33 C40 1.275 . S
Cd34 O33 2.300 . S
Cd34 O42 2.381 . S
Cd34 O43 2.378 . S
O35 Cd36 2.385 . S
O35 C40 1.255 . S
Cd36 O35 2.385 . S
Cd36 O37 2.317 . S
O37 Cd36 2.317 . S
O37 C38 1.232 . S
C38 O37 1.232 . S
C38 O39 1.218 . S
O39 C38 1.218 . S
C40 O33 1.275 . S
C40 O35 1.255 . S
C41 O42 1.258 . S
C41 O43 1.256 . S
O42 Cd34 2.381 . S
O42 C41 1.258 . S
O43 Cd34 2.378 . S
O43 C41 1.256 . S
O44 Cd45 2.300 . S
O44 C51 1.275 . S
Cd45 O44 2.300 . S
Cd45 O53 2.381 . S
Cd45 O54 2.378 . S
O46 Cd47 2.385 1_545 S
O46 C51 1.255 . S
Cd47 O46 2.385 1_565 S
Cd47 O48 2.317 1_565 S
O48 Cd47 2.317 1_545 S
O48 C49 1.232 . S
C49 O48 1.232 . S
C49 O50 1.218 . S
O50 C49 1.218 . S
C51 O44 1.275 . S
C51 O46 1.255 . S
C52 O53 1.258 . S
C52 O54 1.256 . S
O53 Cd45 2.381 . S
O53 C52 1.258 . S
O54 Cd45 2.378 . S
O54 C52 1.256 . S
O55 Cd56 2.300 . S
O55 C62 1.275 . S
Cd56 O55 2.300 . S
Cd56 O64 2.381 . S
Cd56 O65 2.378 . S
O57 Cd58 2.385 . S
O57 C62 1.255 . S
Cd58 O57 2.385 . S
Cd58 O59 2.317 . S
O59 Cd58 2.317 . S
O59 C60 1.232 . S
C60 O59 1.232 . S
C60 O61 1.218 . S
O61 C60 1.218 . S
C62 O55 1.275 . S
C62 O57 1.255 . S
C63 O64 1.258 . S
C63 O65 1.256 . S
O64 Cd56 2.381 . S
O64 C63 1.258 . S
O65 Cd56 2.378 . S
O65 C63 1.256 . S
O66 Cd67 2.300 1_545 S
O66 C73 1.275 . S
Cd67 O66 2.300 1_565 S
Cd67 O75 2.381 1_565 S
Cd67 O76 2.378 . S
O68 Cd69 2.385 1_545 S
O68 C73 1.255 . S
Cd69 O68 2.385 1_565 S
Cd69 O70 2.317 . S
O70 Cd69 2.317 . S
O70 C71 1.232 1_565 S
C71 O70 1.232 1_545 S
C71 O72 1.218 . S
O72 C71 1.218 . S
C73 O66 1.275 . S
C73 O68 1.255 . S
C74 O75 1.258 1_565 S
C74 O76 1.256 . S
O75 Cd67 2.381 1_545 S
O75 C74 1.258 1_545 S
O76 Cd67 2.378 . S
O76 C74 1.256 . S
O77 Cd78 2.300 . S
O77 C84 1.275 . S
Cd78 O77 2.300 . S
Cd78 O86 2.381 . S
Cd78 O87 2.378 . S
O79 Cd80 2.385 . S
O79 C84 1.255 . S
Cd80 O79 2.385 . S
Cd80 O81 2.317 . S
O81 Cd80 2.317 . S
O81 C82 1.232 . S
C82 O81 1.232 . S
C82 O83 1.218 . S
O83 C82 1.218 . S
C84 O77 1.275 . S
C84 O79 1.255 . S
C85 O86 1.258 . S
C85 O87 1.256 . S
O86 Cd78 2.381 . S
O86 C85 1.258 . S
O87 Cd78 2.378 . S
O87 C85 1.256 . S
O88 Cd89 2.300 . S
O88 C95 1.275 . S
Cd89 O88 2.300 . S
Cd89 O97 2.381 . S
Cd89 O98 2.378 . S
O90 Cd91 2.385 . S
O90 C95 1.255 . S
Cd91 O90 2.385 . S
Cd91 O92 2.317 . S
O92 Cd91 2.317 . S
O92 C93 1.232 . S
C93 O92 1.232 . S
C93 O94 1.218 . S
O94 C93 1.218 . S
C95 O88 1.275 . S
C95 O90 1.255 . S
C96 O97 1.258 . S
C96 O98 1.256 . S
O97 Cd89 2.381 . S
O97 C96 1.258 . S
O98 Cd89 2.378 . S
O98 C96 1.256 . S
O99 Cd100 2.300 . S
O99 C106 1.275 . S
Cd100 O99 2.300 . S
Cd100 O108 2.381 . S
Cd100 O109 2.378 . S
O101 Cd102 2.385 . S
O101 C106 1.255 . S
Cd102 O101 2.385 . S
Cd102 O103 2.317 . S
O103 Cd102 2.317 . S
O103 C104 1.232 . S
C104 O103 1.232 . S
C104 O105 1.218 . S
O105 C104 1.218 . S
C106 O99 1.275 . S
C106 O101 1.255 . S
C107 O108 1.258 . S
C107 O109 1.256 . S
O108 Cd100 2.381 . S
O108 C107 1.258 . S
O109 Cd100 2.378 . S
O109 C107 1.256 . S
O110 Cd111 2.300 . S
O110 C117 1.275 . S
Cd111 O110 2.300 . S
Cd111 O119 2.381 . S
Cd111 O120 2.378 . S
O112 Cd113 2.385 . S
O112 C117 1.255 . S
Cd113 O112 2.385 . S
Cd113 O114 2.317 . S
O114 Cd113 2.317 . S
O114 C115 1.232 . S
C115 O114 1.232 . S
C115 O116 1.218 . S
O116 C115 1.218 . S
C117 O110 1.275 . S
C117 O112 1.255 . S
C118 O119 1.258 . S
C118 O120 1.256 . S
O119 Cd111 2.381 . S
O119 C118 1.258 . S
O120 Cd111 2.378 . S
O120 C118 1.256 . S
O121 Cd122 2.300 . S
O121 C128 1.275 . S
Cd122 O121 2.300 . S
Cd122 O130 2.381 . S
Cd122 O131 2.378 . S
O123 Cd124 2.385 . S
O123 C128 1.255 . S
Cd124 O123 2.385 . S
Cd124 O125 2.317 . S
O125 Cd124 2.317 . S
O125 C126 1.232 . S
C126 O125 1.232 . S
C126 O127 1.218 . S
O127 C126 1.218 . S
C128 O121 1.275 . S
C128 O123 1.255 . S
C129 O130 1.258 . S
C129 O131 1.256 . S
O130 Cd122 2.381 . S
O130 C129 1.258 . S
O131 Cd122 2.378 . S
O131 C129 1.256 . S
O132 Cd133 2.300 . S
O132 C139 1.275 . S
Cd133 O132 2.300 . S
Cd133 O141 2.381 . S
Cd133 O142 2.378 . S
O134 Cd135 2.385 . S
O134 C139 1.255 . S
Cd135 O134 2.385 . S
Cd135 O136 2.317 . S
O136 Cd135 2.317 . S
O136 C137 1.232 . S
C137 O136 1.232 . S
C137 O138 1.218 . S
O138 C137 1.218 . S
C139 O132 1.275 . S
C139 O134 1.255 . S
C140 O141 1.258 . S
C140 O142 1.256 . S
O141 Cd133 2.381 . S
O141 C140 1.258 . S
O142 Cd133 2.378 . S
O142 C140 1.256 . S
O143 Cd144 2.300 . S
O143 C150 1.275 . S
Cd144 O143 2.300 . S
Cd144 O152 2.381 . S
Cd144 O153 2.378 . S
O145 Cd146 2.385 . S
O145 C150 1.255 . S
Cd146 O145 2.385 . S
Cd146 O147 2.317 . S
O147 Cd146 2.317 . S
O147 C148 1.232 . S
C148 O147 1.232 . S
C148 O149 1.218 . S
O149 C148 1.218 . S
C150 O143 1.275 . S
C150 O145 1.255 . S
C151 O152 1.258 . S
C151 O153 1.256 . S
O152 Cd144 2.381 . S
O152 C151 1.258 . S
O153 Cd144 2.378 . S
O153 C151 1.256 . S
O154 Cd155 2.300 . S
O154 C161 1.275 . S
Cd155 O154 2.300 . S
Cd155 O163 2.381 . S
Cd155 O164 2.378 . S
O156 Cd157 2.385 . S
O156 C161 1.255 . S
Cd157 O156 2.385 . S
Cd157 O158 2.317 . S
O158 Cd157 2.317 . S
O158 C159 1.232 . S
C159 O158 1.232 . S
C159 O160 1.218 . S
O160 C159 1.218 . S
C161 O154 1.275 . S
C161 O156 1.255 . S
C162 O163 1.258 . S
C162 O164 1.256 . S
O163 Cd155 2.381 . S
O163 C162 1.258 . S
O164 Cd155 2.378 . S
O164 C162 1.256 . S
O165 Cd166 2.300 . S
O165 C172 1.275 . S
Cd166 O165 2.300 . S
Cd166 O174 2.381 . S
Cd166 O175 2.378 . S
O167 Cd168 2.385 . S
O167 C172 1.255 . S
Cd168 O167 2.385 . S
Cd168 O169 2.317 . S
O169 Cd168 2.317 . S
O169 C170 1.232 . S
C170 O169 1.232 . S
C170 O171 1.218 . S
O171 C170 1.218 . S
C172 O165 1.275 . S
C172 O167 1.255 . S
C173 O174 1.258 . S
C173 O175 1.256 . S
O174 Cd166 2.381 . S
O174 C173 1.258 . S
O175 Cd166 2.378 . S
O175 C173 1.256 . S
H176 C188 0.930 . S
H177 C190 0.930 . S
H178 C191 0.930 . S
H179 C195 0.959 . S
H180 C195 0.959 . S
H181 C195 0.961 . S
H182 C196 0.960 . S
H183 C196 0.961 . S
H184 C196 0.959 . S
H185 C199 0.929 . S
H186 C200 0.931 . S
H187 C202 0.930 . S
C188 H176 0.930 . S
C188 C189 1.399 . S
C188 C193 1.399 . S
C189 C188 1.399 . S
C189 C190 1.376 . S
C190 H177 0.930 . S
C190 C189 1.376 . S
C190 C191 1.388 1_554 S
C191 H178 0.930 . S
C191 C190 1.388 1_556 S
C191 C192 1.390 . S
C192 C191 1.390 . S
C192 C193 1.394 1_556 S
C192 C198 1.465 . S
C193 C188 1.399 . S
C193 C192 1.394 1_554 S
C193 C194 1.516 . S
C194 C193 1.516 . S
C194 C195 1.502 . S
C194 C196 1.561 . S
C194 C197 1.526 1_554 S
C195 H179 0.959 . S
C195 H180 0.959 . S
C195 H181 0.961 . S
C195 C194 1.502 . S
C196 H182 0.960 . S
C196 H183 0.961 . S
C196 H184 0.959 . S
C196 C194 1.561 . S
C197 C194 1.526 1_556 S
C197 C198 1.396 . S
C197 C202 1.390 . S
C198 C192 1.465 . S
C198 C197 1.396 . S
C198 C199 1.399 . S
C199 H185 0.929 . S
C199 C198 1.399 . S
C199 C200 1.385 . S
C200 H186 0.931 . S
C200 C199 1.385 . S
C200 C201 1.389 . S
C201 C200 1.389 . S
C201 C202 1.387 . S
C202 H187 0.930 . S
C202 C197 1.390 . S
C202 C201 1.387 . S
H203 C215 0.930 . S
H204 C217 0.930 . S
H205 C218 0.930 . S
H206 C222 0.959 . S
H207 C222 0.959 . S
H208 C222 0.961 . S
H209 C223 0.960 . S
H210 C223 0.961 . S
H211 C223 0.959 . S
H212 C226 0.929 . S
H213 C227 0.915 1_545 S
H214 C229 0.930 . S
C215 H203 0.930 . S
C215 C216 1.399 . S
C215 C220 1.399 . S
C216 C215 1.399 . S
C216 C217 1.376 . S
C217 H204 0.930 . S
C217 C216 1.376 . S
C217 C218 1.388 . S
C218 H205 0.930 . S
C218 C217 1.388 . S
C218 C219 1.390 . S
C219 C218 1.390 . S
C219 C220 1.394 . S
C219 C225 1.465 . S
C220 C215 1.399 . S
C220 C219 1.394 . S
C220 C221 1.516 . S
C221 C220 1.516 . S
C221 C222 1.502 . S
C221 C223 1.561 . S
C221 C224 1.526 . S
C222 H206 0.959 . S
C222 H207 0.959 . S
C222 H208 0.961 . S
C222 C221 1.502 . S
C223 H209 0.960 . S
C223 H210 0.961 . S
C223 H211 0.959 . S
C223 C221 1.561 . S
C224 C221 1.526 . S
C224 C225 1.396 . S
C224 C229 1.390 . S
C225 C219 1.465 . S
C225 C224 1.396 . S
C225 C226 1.399 . S
C226 H212 0.929 . S
C226 C225 1.399 . S
C226 C227 1.385 . S
C227 H213 0.915 1_565 S
C227 C226 1.385 . S
C227 C228 1.389 . S
C228 C227 1.389 . S
C228 C229 1.387 . S
C229 H214 0.930 . S
C229 C224 1.390 . S
C229 C228 1.387 . S
H230 C242 0.930 . S
H231 C244 0.930 . S
H232 C245 0.930 . S
H233 C249 0.959 . S
H234 C249 0.959 . S
H235 C249 0.961 . S
H236 C250 0.960 . S
H237 C250 0.961 . S
H238 C250 0.959 . S
H239 C253 0.929 . S
H240 C254 0.931 1_565 S
H241 C256 0.930 . S
C242 H230 0.930 . S
C242 C243 1.399 1_545 S
C242 C247 1.399 . S
C243 C242 1.399 1_565 S
C243 C244 1.376 . S
C244 H231 0.930 . S
C244 C243 1.376 . S
C244 C245 1.388 . S
C245 H232 0.930 . S
C245 C244 1.388 . S
C245 C246 1.390 . S
C246 C245 1.390 . S
C246 C247 1.394 1_565 S
C246 C252 1.465 1_565 S
C247 C242 1.399 . S
C247 C246 1.394 1_545 S
C247 C248 1.516 . S
C248 C247 1.516 . S
C248 C249 1.502 . S
C248 C250 1.561 . S
C248 C251 1.526 . S
C249 H233 0.959 . S
C249 H234 0.959 . S
C249 H235 0.961 . S
C249 C248 1.502 . S
C250 H236 0.960 . S
C250 H237 0.961 . S
C250 H238 0.959 . S
C250 C248 1.561 . S
C251 C248 1.526 . S
C251 C252 1.396 . S
C251 C256 1.390 . S
C252 C246 1.465 1_545 S
C252 C251 1.396 . S
C252 C253 1.399 1_545 S
C253 H239 0.929 . S
C253 C252 1.399 1_565 S
C253 C254 1.385 1_565 S
C254 H240 0.931 1_545 S
C254 C253 1.385 1_545 S
C254 C255 1.389 . S
C255 C254 1.389 . S
C255 C256 1.387 . S
C256 H241 0.930 . S
C256 C251 1.390 . S
C256 C255 1.387 . S
H257 C269 0.930 . S
H258 C271 0.930 . S
H259 C272 0.930 . S
H260 C276 0.959 . S
H261 C276 0.959 . S
H262 C276 0.961 . S
H263 C277 0.960 . S
H264 C277 0.961 . S
H265 C277 0.959 . S
H266 C280 0.929 . S
H267 C281 0.931 . S
H268 C283 0.930 . S
C269 H257 0.930 . S
C269 C270 1.399 . S
C269 C274 1.399 . S
C270 C269 1.399 . S
C270 C271 1.376 . S
C271 H258 0.930 . S
C271 C270 1.376 . S
C271 C272 1.388 . S
C272 H259 0.930 . S
C272 C271 1.388 . S
C272 C273 1.390 . S
C273 C272 1.390 . S
C273 C274 1.394 . S
C273 C279 1.465 . S
C274 C269 1.399 . S
C274 C273 1.394 . S
C274 C275 1.516 . S
C275 C274 1.516 . S
C275 C276 1.502 . S
C275 C277 1.561 . S
C275 C278 1.526 . S
C276 H260 0.959 . S
C276 H261 0.959 . S
C276 H262 0.961 . S
C276 C275 1.502 . S
C277 H263 0.960 . S
C277 H264 0.961 . S
C277 H265 0.959 . S
C277 C275 1.561 . S
C278 C275 1.526 . S
C278 C279 1.396 . S
C278 C283 1.390 . S
C279 C273 1.465 . S
C279 C278 1.396 . S
C279 C280 1.399 . S
C280 H266 0.929 . S
C280 C279 1.399 . S
C280 C281 1.385 . S
C281 H267 0.931 . S
C281 C280 1.385 . S
C281 C282 1.389 . S
C282 C281 1.389 . S
C282 C283 1.387 . S
C283 H268 0.930 . S
C283 C278 1.390 . S
C283 C282 1.387 . S
H284 C296 0.930 . S
H285 C298 0.930 . S
H286 C299 0.930 . S
H287 C303 0.959 . S
H288 C303 0.959 . S
H289 C303 0.961 . S
H290 C304 0.960 . S
H291 C304 0.961 . S
H292 C304 0.959 . S
H293 C307 0.929 1_565 S
H294 C308 0.931 . S
H295 C310 0.930 . S
C296 H284 0.930 . S
C296 C297 1.399 1_545 S
C296 C301 1.399 . S
C297 C296 1.399 1_565 S
C297 C298 1.376 . S
C298 H285 0.930 . S
C298 C297 1.376 . S
C298 C299 1.388 . S
C299 H286 0.930 . S
C299 C298 1.388 . S
C299 C300 1.374 1_565 S
C300 C299 1.374 1_545 S
C300 C301 1.409 . S
C300 C306 1.469 . S
C301 C296 1.399 . S
C301 C300 1.409 . S
C301 C302 1.516 . S
C302 C301 1.516 . S
C302 C303 1.502 . S
C302 C304 1.561 . S
C302 C305 1.526 . S
C303 H287 0.959 . S
C303 H288 0.959 . S
C303 H289 0.961 . S
C303 C302 1.502 . S
C304 H290 0.960 . S
C304 H291 0.961 . S
C304 H292 0.959 . S
C304 C302 1.561 . S
C305 C302 1.526 . S
C305 C306 1.396 . S
C305 C310 1.390 . S
C306 C300 1.469 . S
C306 C305 1.396 . S
C306 C307 1.399 . S
C307 H293 0.929 1_545 S
C307 C306 1.399 . S
C307 C308 1.385 . S
C308 H294 0.931 . S
C308 C307 1.385 . S
C308 C309 1.389 . S
C309 C308 1.389 . S
C309 C310 1.387 . S
C310 H295 0.930 . S
C310 C305 1.390 . S
C310 C309 1.387 . S
H311 C323 0.930 . S
H312 C325 0.930 1_554 S
H313 C326 0.930 . S
H314 C330 0.959 . S
H315 C330 0.959 . S
H316 C330 0.961 . S
H317 C331 0.960 . S
H318 C331 0.961 . S
H319 C331 0.959 . S
H320 C334 0.929 . S
H321 C335 0.931 . S
H322 C337 0.930 . S
C323 H311 0.930 . S
C323 C324 1.399 . S
C323 C328 1.399 . S
C324 C323 1.399 . S
C324 C325 1.376 . S
C325 H312 0.930 1_556 S
C325 C324 1.376 . S
C325 C326 1.388 . S
C326 H313 0.930 . S
C326 C325 1.388 . S
C326 C327 1.390 . S
C327 C326 1.390 . S
C327 C328 1.394 . S
C327 C333 1.465 . S
C328 C323 1.399 . S
C328 C327 1.394 . S
C328 C329 1.516 . S
C329 C328 1.516 . S
C329 C330 1.502 . S
C329 C331 1.561 . S
C329 C332 1.526 . S
C330 H314 0.959 . S
C330 H315 0.959 . S
C330 H316 0.961 . S
C330 C329 1.502 . S
C331 H317 0.960 . S
C331 H318 0.961 . S
C331 H319 0.959 . S
C331 C329 1.561 . S
C332 C329 1.526 . S
C332 C333 1.396 . S
C332 C337 1.390 . S
C333 C327 1.465 . S
C333 C332 1.396 . S
C333 C334 1.399 . S
C334 H320 0.929 . S
C334 C333 1.399 . S
C334 C335 1.385 . S
C335 H321 0.931 . S
C335 C334 1.385 . S
C335 C336 1.389 . S
C336 C335 1.389 . S
C336 C337 1.387 . S
C337 H322 0.930 . S
C337 C332 1.390 . S
C337 C336 1.387 . S
H338 C350 0.930 . S
H339 C352 0.930 . S
H340 C353 0.930 . S
H341 C357 0.959 . S
H342 C357 0.959 . S
H343 C357 0.961 . S
H344 C358 0.960 . S
H345 C358 0.961 . S
H346 C358 0.959 . S
H347 C361 0.929 . S
H348 C362 0.931 . S
H349 C364 0.930 . S
C350 H338 0.930 . S
C350 C351 1.399 . S
C350 C355 1.399 . S
C351 C350 1.399 . S
C351 C352 1.376 . S
C352 H339 0.930 . S
C352 C351 1.376 . S
C352 C353 1.388 . S
C353 H340 0.930 . S
C353 C352 1.388 . S
C353 C354 1.390 . S
C354 C353 1.390 . S
C354 C355 1.394 . S
C354 C360 1.465 . S
C355 C350 1.399 . S
C355 C354 1.394 . S
C355 C356 1.516 . S
C356 C355 1.516 . S
C356 C357 1.502 . S
C356 C358 1.561 . S
C356 C359 1.526 . S
C357 H341 0.959 . S
C357 H342 0.959 . S
C357 H343 0.961 . S
C357 C356 1.502 . S
C358 H344 0.960 . S
C358 H345 0.961 . S
C358 H346 0.959 . S
C358 C356 1.561 . S
C359 C356 1.526 . S
C359 C360 1.396 . S
C359 C364 1.390 . S
C360 C354 1.465 . S
C360 C359 1.396 . S
C360 C361 1.399 . S
C361 H347 0.929 . S
C361 C360 1.399 . S
C361 C362 1.385 . S
C362 H348 0.931 . S
C362 C361 1.385 . S
C362 C363 1.389 . S
C363 C362 1.389 . S
C363 C364 1.387 . S
C364 H349 0.930 . S
C364 C359 1.390 . S
C364 C363 1.387 . S
H365 C377 0.930 . S
H366 C379 0.930 . S
H367 C380 0.930 . S
H368 C384 0.959 . S
H369 C384 0.959 . S
H370 C384 0.961 . S
H371 C385 0.960 . S
H372 C385 0.961 . S
H373 C385 0.959 . S
H374 C388 0.929 . S
H375 C389 0.931 . S
H376 C391 0.930 . S
C377 H365 0.930 . S
C377 C378 1.399 . S
C377 C382 1.399 . S
C378 C377 1.399 . S
C378 C379 1.376 . S
C379 H366 0.930 . S
C379 C378 1.376 . S
C379 C380 1.388 . S
C380 H367 0.930 . S
C380 C379 1.388 . S
C380 C381 1.390 . S
C381 C380 1.390 . S
C381 C382 1.394 . S
C381 C387 1.465 . S
C382 C377 1.399 . S
C382 C381 1.394 . S
C382 C383 1.516 . S
C383 C382 1.516 . S
C383 C384 1.502 . S
C383 C385 1.561 1_565 S
C383 C386 1.526 . S
C384 H368 0.959 . S
C384 H369 0.959 . S
C384 H370 0.961 . S
C384 C383 1.502 . S
C385 H371 0.960 . S
C385 H372 0.961 . S
C385 H373 0.959 . S
C385 C383 1.561 1_545 S
C386 C383 1.526 . S
C386 C387 1.396 . S
C386 C391 1.390 . S
C387 C381 1.465 . S
C387 C386 1.396 . S
C387 C388 1.399 . S
C388 H374 0.929 . S
C388 C387 1.399 . S
C388 C389 1.385 . S
C389 H375 0.931 . S
C389 C388 1.385 . S
C389 C390 1.389 . S
C390 C389 1.389 . S
C390 C391 1.387 . S
C391 H376 0.930 . S
C391 C386 1.390 . S
C391 C390 1.387 . S
H392 C404 0.930 . S
H393 C406 0.930 . S
H394 C407 0.930 . S
H395 C411 0.959 . S
H396 C411 0.959 . S
H397 C411 0.961 . S
H398 C412 0.960 . S
H399 C412 0.961 . S
H400 C412 0.959 . S
H401 C415 0.929 . S
H402 C416 0.931 . S
H403 C418 0.930 . S
C404 H392 0.930 . S
C404 C405 1.399 . S
C404 C409 1.399 . S
C405 C404 1.399 . S
C405 C406 1.376 . S
C406 H393 0.930 . S
C406 C405 1.376 . S
C406 C407 1.388 . S
C407 H394 0.930 . S
C407 C406 1.388 . S
C407 C408 1.390 . S
C408 C407 1.390 . S
C408 C409 1.394 . S
C408 C414 1.465 . S
C409 C404 1.399 . S
C409 C408 1.394 . S
C409 C410 1.516 . S
C410 C409 1.516 . S
C410 C411 1.502 . S
C410 C412 1.561 . S
C410 C413 1.526 . S
C411 H395 0.959 . S
C411 H396 0.959 . S
C411 H397 0.961 . S
C411 C410 1.502 . S
C412 H398 0.960 . S
C412 H399 0.961 . S
C412 H400 0.959 . S
C412 C410 1.561 . S
C413 C410 1.526 . S
C413 C414 1.396 . S
C413 C418 1.390 . S
C414 C408 1.465 . S
C414 C413 1.396 . S
C414 C415 1.399 . S
C415 H401 0.929 . S
C415 C414 1.399 . S
C415 C416 1.385 . S
C416 H402 0.931 . S
C416 C415 1.385 . S
C416 C417 1.389 . S
C417 C416 1.389 . S
C417 C418 1.387 . S
C418 H403 0.930 . S
C418 C413 1.390 . S
C418 C417 1.387 . S
H419 C431 0.930 . S
H420 C433 0.930 . S
H421 C434 0.930 . S
H422 C438 0.959 . S
H423 C438 0.959 . S
H424 C438 0.961 . S
H425 C439 0.960 . S
H426 C439 0.961 . S
H427 C439 0.959 . S
H428 C442 0.929 . S
H429 C443 0.931 . S
H430 C445 0.930 . S
C431 H419 0.930 . S
C431 C432 1.399 . S
C431 C436 1.399 . S
C432 C431 1.399 . S
C432 C433 1.376 . S
C433 H420 0.930 . S
C433 C432 1.376 . S
C433 C434 1.388 . S
C434 H421 0.930 . S
C434 C433 1.388 . S
C434 C435 1.390 . S
C435 C434 1.390 . S
C435 C436 1.394 . S
C435 C441 1.465 . S
C436 C431 1.399 . S
C436 C435 1.394 . S
C436 C437 1.516 . S
C437 C436 1.516 . S
C437 C438 1.502 . S
C437 C439 1.561 . S
C437 C440 1.526 . S
C438 H422 0.959 . S
C438 H423 0.959 . S
C438 H424 0.961 . S
C438 C437 1.502 . S
C439 H425 0.960 . S
C439 H426 0.961 . S
C439 H427 0.959 . S
C439 C437 1.561 . S
C440 C437 1.526 . S
C440 C441 1.396 . S
C440 C445 1.390 . S
C441 C435 1.465 . S
C441 C440 1.396 . S
C441 C442 1.399 . S
C442 H428 0.929 . S
C442 C441 1.399 . S
C442 C443 1.385 . S
C443 H429 0.931 . S
C443 C442 1.385 . S
C443 C444 1.389 . S
C444 C443 1.389 . S
C444 C445 1.387 . S
C445 H430 0.930 . S
C445 C440 1.390 . S
C445 C444 1.387 . S
H446 C458 0.930 . S
H447 C460 0.930 . S
H448 C461 0.930 . S
H449 C465 0.959 . S
H450 C465 0.959 . S
H451 C465 0.961 . S
H452 C466 0.960 . S
H453 C466 0.961 . S
H454 C466 0.959 . S
H455 C469 0.929 . S
H456 C470 0.931 . S
H457 C472 0.930 . S
C458 H446 0.930 . S
C458 C459 1.399 . S
C458 C463 1.399 1_554 S
C459 C458 1.399 . S
C459 C460 1.376 . S
C460 H447 0.930 . S
C460 C459 1.376 . S
C460 C461 1.388 . S
C461 H448 0.930 . S
C461 C460 1.388 . S
C461 C462 1.390 1_554 S
C462 C461 1.390 1_556 S
C462 C463 1.394 . S
C462 C468 1.465 . S
C463 C458 1.399 1_556 S
C463 C462 1.394 . S
C463 C464 1.516 . S
C464 C463 1.516 . S
C464 C465 1.502 . S
C464 C466 1.561 . S
C464 C467 1.526 . S
C465 H449 0.959 . S
C465 H450 0.959 . S
C465 H451 0.961 . S
C465 C464 1.502 . S
C466 H452 0.960 . S
C466 H453 0.961 . S
C466 H454 0.959 . S
C466 C464 1.561 . S
C467 C464 1.526 . S
C467 C468 1.396 . S
C467 C472 1.390 . S
C468 C462 1.465 . S
C468 C467 1.396 . S
C468 C469 1.399 . S
C469 H455 0.929 . S
C469 C468 1.399 . S
C469 C470 1.385 . S
C470 H456 0.931 . S
C470 C469 1.385 . S
C470 C471 1.389 . S
C471 C470 1.389 . S
C471 C472 1.387 . S
C472 H457 0.930 . S
C472 C467 1.390 . S
C472 C471 1.387 . S
H473 C485 0.930 . S
H474 C487 0.930 . S
H475 C488 0.930 . S
H476 C492 0.959 . S
H477 C492 0.959 . S
H478 C492 0.961 . S
H479 C493 0.960 . S
H480 C493 0.961 . S
H481 C493 0.959 . S
H482 C496 0.929 . S
H483 C497 0.931 . S
H484 C499 0.930 . S
C485 H473 0.930 . S
C485 C486 1.399 . S
C485 C490 1.399 . S
C486 C485 1.399 . S
C486 C487 1.376 . S
C487 H474 0.930 . S
C487 C486 1.376 . S
C487 C488 1.388 . S
C488 H475 0.930 . S
C488 C487 1.388 . S
C488 C489 1.390 . S
C489 C488 1.390 . S
C489 C490 1.394 . S
C489 C495 1.465 . S
C490 C485 1.399 . S
C490 C489 1.394 . S
C490 C491 1.516 . S
C491 C490 1.516 . S
C491 C492 1.502 . S
C491 C493 1.561 . S
C491 C494 1.526 . S
C492 H476 0.959 . S
C492 H477 0.959 . S
C492 H478 0.961 . S
C492 C491 1.502 . S
C493 H479 0.960 . S
C493 H480 0.961 . S
C493 H481 0.959 . S
C493 C491 1.561 . S
C494 C491 1.526 . S
C494 C495 1.396 . S
C494 C499 1.390 . S
C495 C489 1.465 . S
C495 C494 1.396 . S
C495 C496 1.399 . S
C496 H482 0.929 . S
C496 C495 1.399 . S
C496 C497 1.385 . S
C497 H483 0.931 . S
C497 C496 1.385 . S
C497 C498 1.389 . S
C498 C497 1.389 . S
C498 C499 1.387 . S
C499 H484 0.930 . S
C499 C494 1.390 . S
C499 C498 1.387 . S
H500 C512 0.930 . S
H501 C514 0.930 . S
H502 C515 0.930 . S
H503 C519 0.959 . S
H504 C519 0.959 . S
H505 C519 0.961 . S
H506 C520 0.960 . S
H507 C520 0.961 . S
H508 C520 0.959 . S
H509 C523 0.929 . S
H510 C524 0.931 . S
H511 C526 0.930 . S
C512 H500 0.930 . S
C512 C513 1.399 . S
C512 C517 1.399 . S
C513 C512 1.399 . S
C513 C514 1.376 . S
C514 H501 0.930 . S
C514 C513 1.376 . S
C514 C515 1.388 . S
C515 H502 0.930 . S
C515 C514 1.388 . S
C515 C516 1.390 . S
C516 C515 1.390 . S
C516 C517 1.394 . S
C516 C522 1.465 . S
C517 C512 1.399 . S
C517 C516 1.394 . S
C517 C518 1.516 . S
C518 C517 1.516 . S
C518 C519 1.502 . S
C518 C520 1.561 . S
C518 C521 1.526 . S
C519 H503 0.959 . S
C519 H504 0.959 . S
C519 H505 0.961 . S
C519 C518 1.502 . S
C520 H506 0.960 . S
C520 H507 0.961 . S
C520 H508 0.959 . S
C520 C518 1.561 . S
C521 C518 1.526 . S
C521 C522 1.396 . S
C521 C526 1.390 . S
C522 C516 1.465 . S
C522 C521 1.396 . S
C522 C523 1.399 . S
C523 H509 0.929 . S
C523 C522 1.399 . S
C523 C524 1.385 . S
C524 H510 0.931 . S
C524 C523 1.385 . S
C524 C525 1.389 . S
C525 C524 1.389 . S
C525 C526 1.387 . S
C526 H511 0.930 . S
C526 C521 1.390 . S
C526 C525 1.387 . S
H527 C539 0.930 . S
H528 C541 0.930 . S
H529 C542 0.930 . S
H530 C546 0.959 . S
H531 C546 0.959 . S
H532 C546 0.961 . S
H533 C547 0.960 . S
H534 C547 0.961 . S
H535 C547 0.959 . S
H536 C550 0.929 . S
H537 C551 0.931 . S
H538 C553 0.930 . S
C539 H527 0.930 . S
C539 C540 1.399 . S
C539 C544 1.399 . S
C540 C539 1.399 . S
C540 C541 1.376 . S
C541 H528 0.930 . S
C541 C540 1.376 . S
C541 C542 1.388 . S
C542 H529 0.930 . S
C542 C541 1.388 . S
C542 C543 1.390 . S
C543 C542 1.390 . S
C543 C544 1.394 . S
C543 C549 1.465 . S
C544 C539 1.399 . S
C544 C543 1.394 . S
C544 C545 1.516 . S
C545 C544 1.516 . S
C545 C546 1.502 . S
C545 C547 1.561 . S
C545 C548 1.526 . S
C546 H530 0.959 . S
C546 H531 0.959 . S
C546 H532 0.961 . S
C546 C545 1.502 . S
C547 H533 0.960 . S
C547 H534 0.961 . S
C547 H535 0.959 . S
C547 C545 1.561 . S
C548 C545 1.526 . S
C548 C549 1.396 . S
C548 C553 1.390 . S
C549 C543 1.465 . S
C549 C548 1.396 . S
C549 C550 1.399 . S
C550 H536 0.929 . S
C550 C549 1.399 . S
C550 C551 1.385 . S
C551 H537 0.931 . S
C551 C550 1.385 . S
C551 C552 1.389 . S
C552 C551 1.389 . S
C552 C553 1.387 . S
C553 H538 0.930 . S
C553 C548 1.390 . S
C553 C552 1.387 . S
H554 C566 0.930 . S
H555 C568 0.930 . S
H556 C569 0.930 . S
H557 C573 0.959 . S
H558 C573 0.959 . S
H559 C573 0.961 . S
H560 C574 0.960 . S
H561 C574 0.961 . S
H562 C574 0.959 . S
H563 C577 0.929 . S
H564 C578 0.931 . S
H565 C580 0.930 . S
C566 H554 0.930 . S
C566 C567 1.399 . S
C566 C571 1.399 . S
C567 C566 1.399 . S
C567 C568 1.376 . S
C568 H555 0.930 . S
C568 C567 1.376 . S
C568 C569 1.388 . S
C569 H556 0.930 . S
C569 C568 1.388 . S
C569 C570 1.390 . S
C570 C569 1.390 . S
C570 C571 1.394 . S
C570 C576 1.465 . S
C571 C566 1.399 . S
C571 C570 1.394 . S
C571 C572 1.516 . S
C572 C571 1.516 . S
C572 C573 1.502 . S
C572 C574 1.561 . S
C572 C575 1.526 . S
C573 H557 0.959 . S
C573 H558 0.959 . S
C573 H559 0.961 . S
C573 C572 1.502 . S
C574 H560 0.960 . S
C574 H561 0.961 . S
C574 H562 0.959 . S
C574 C572 1.561 . S
C575 C572 1.526 . S
C575 C576 1.396 . S
C575 C580 1.390 . S
C576 C570 1.465 . S
C576 C575 1.396 . S
C576 C577 1.399 . S
C577 H563 0.929 . S
C577 C576 1.399 . S
C577 C578 1.385 . S
C578 H564 0.931 . S
C578 C577 1.385 . S
C578 C579 1.389 . S
C579 C578 1.389 . S
C579 C580 1.387 . S
C580 H565 0.930 . S
C580 C575 1.390 . S
C580 C579 1.387 . S
H581 C593 0.950 . S
H582 C595 0.930 . S
H583 C596 0.930 . S
H584 C600 0.959 . S
H585 C600 0.959 . S
H586 C600 0.918 1_554 S
H587 C601 0.960 . S
H588 C601 0.961 . S
H589 C601 0.959 . S
H590 C604 0.929 . S
H591 C605 0.931 . S
H592 C607 0.930 . S
C593 H581 0.950 . S
C593 C594 1.404 . S
C593 C598 1.373 1_554 S
C594 C593 1.404 . S
C594 C595 1.376 1_554 S
C595 H582 0.930 . S
C595 C594 1.376 1_556 S
C595 C596 1.388 . S
C596 H583 0.930 . S
C596 C595 1.388 . S
C596 C597 1.390 . S
C597 C596 1.390 . S
C597 C598 1.394 . S
C597 C603 1.465 . S
C598 C593 1.373 1_556 S
C598 C597 1.394 . S
C598 C599 1.516 . S
C599 C598 1.516 . S
C599 C600 1.502 . S
C599 C601 1.561 . S
C599 C602 1.526 . S
C600 H584 0.959 . S
C600 H585 0.959 . S
C600 H586 0.918 1_556 S
C600 C599 1.502 . S
C601 H587 0.960 . S
C601 H588 0.961 . S
C601 H589 0.959 . S
C601 C599 1.561 . S
C602 C599 1.526 . S
C602 C603 1.396 . S
C602 C607 1.390 . S
C603 C597 1.465 . S
C603 C602 1.396 . S
C603 C604 1.399 . S
C604 H590 0.929 . S
C604 C603 1.399 . S
C604 C605 1.385 . S
C605 H591 0.931 . S
C605 C604 1.385 . S
C605 C606 1.389 . S
C606 C605 1.389 . S
C606 C607 1.387 . S
C607 H592 0.930 . S
C607 C602 1.390 . S
C607 C606 1.387 . S
H608 C620 0.930 . S
H609 C622 0.930 . S
H610 C623 0.930 . S
H611 C627 0.959 . S
H612 C627 0.959 . S
H613 C627 0.961 . S
H614 C628 0.960 . S
H615 C628 0.961 . S
H616 C628 0.959 . S
H617 C631 0.929 . S
H618 C632 0.931 . S
H619 C634 0.930 . S
C620 H608 0.930 . S
C620 C621 1.399 . S
C620 C625 1.399 . S
C621 C620 1.399 . S
C621 C622 1.376 . S
C622 H609 0.930 . S
C622 C621 1.376 . S
C622 C623 1.388 . S
C623 H610 0.930 . S
C623 C622 1.388 . S
C623 C624 1.390 . S
C624 C623 1.390 . S
C624 C625 1.394 . S
C624 C630 1.465 . S
C625 C620 1.399 . S
C625 C624 1.394 . S
C625 C626 1.516 . S
C626 C625 1.516 . S
C626 C627 1.502 1_545 S
C626 C628 1.561 . S
C626 C629 1.526 . S
C627 H611 0.959 . S
C627 H612 0.959 . S
C627 H613 0.961 . S
C627 C626 1.502 1_565 S
C628 H614 0.960 . S
C628 H615 0.961 . S
C628 H616 0.959 . S
C628 C626 1.561 . S
C629 C626 1.526 . S
C629 C630 1.396 . S
C629 C634 1.390 1_655 S
C630 C624 1.465 . S
C630 C629 1.396 . S
C630 C631 1.399 1_655 S
C631 H617 0.929 . S
C631 C630 1.399 1_455 S
C631 C632 1.385 . S
C632 H618 0.931 . S
C632 C631 1.385 . S
C632 C633 1.389 . S
C633 C632 1.389 . S
C633 C634 1.387 . S
C634 H619 0.930 . S
C634 C629 1.390 1_455 S
C634 C633 1.387 . S
H635 C647 0.930 . S
H636 C649 0.930 . S
H637 C650 0.930 . S
H638 C654 0.959 . S
H639 C654 0.959 . S
H640 C654 0.961 . S
H641 C655 0.960 . S
H642 C655 0.961 . S
H643 C655 0.959 . S
H644 C658 0.929 . S
H645 C659 0.931 . S
H646 C661 0.930 . S
C647 H635 0.930 . S
C647 C648 1.399 . S
C647 C652 1.399 . S
C648 C647 1.399 . S
C648 C649 1.376 . S
C649 H636 0.930 . S
C649 C648 1.376 . S
C649 C650 1.388 . S
C650 H637 0.930 . S
C650 C649 1.388 . S
C650 C651 1.390 . S
C651 C650 1.390 . S
C651 C652 1.394 . S
C651 C657 1.465 . S
C652 C647 1.399 . S
C652 C651 1.394 . S
C652 C653 1.516 . S
C653 C652 1.516 . S
C653 C654 1.502 . S
C653 C655 1.561 . S
C653 C656 1.526 . S
C654 H638 0.959 . S
C654 H639 0.959 . S
C654 H640 0.961 . S
C654 C653 1.502 . S
C655 H641 0.960 . S
C655 H642 0.961 . S
C655 H643 0.959 . S
C655 C653 1.561 . S
C656 C653 1.526 . S
C656 C657 1.396 . S
C656 C661 1.390 . S
C657 C651 1.465 . S
C657 C656 1.396 . S
C657 C658 1.399 . S
C658 H644 0.929 . S
C658 C657 1.399 . S
C658 C659 1.385 . S
C659 H645 0.931 . S
C659 C658 1.385 . S
C659 C660 1.389 . S
C660 C659 1.389 . S
C660 C661 1.387 . S
C661 H646 0.930 . S
C661 C656 1.390 . S
C661 C660 1.387 . S
H662 C674 0.930 . S
H663 C676 0.930 . S
H664 C677 0.930 . S
H665 C681 0.959 . S
H666 C681 0.959 . S
H667 C681 0.961 . S
H668 C682 0.960 . S
H669 C682 0.961 . S
H670 C682 0.959 . S
H671 C685 0.929 . S
H672 C686 0.931 . S
H673 C688 0.930 . S
C674 H662 0.930 . S
C674 C675 1.399 . S
C674 C679 1.399 . S
C675 C674 1.399 . S
C675 C676 1.376 . S
C676 H663 0.930 . S
C676 C675 1.376 . S
C676 C677 1.388 . S
C677 H664 0.930 . S
C677 C676 1.388 . S
C677 C678 1.390 . S
C678 C677 1.390 . S
C678 C679 1.394 . S
C678 C684 1.465 . S
C679 C674 1.399 . S
C679 C678 1.394 . S
C679 C680 1.516 . S
C680 C679 1.516 . S
C680 C681 1.502 . S
C680 C682 1.561 . S
C680 C683 1.526 . S
C681 H665 0.959 . S
C681 H666 0.959 . S
C681 H667 0.961 . S
C681 C680 1.502 . S
C682 H668 0.960 . S
C682 H669 0.961 . S
C682 H670 0.959 . S
C682 C680 1.561 . S
C683 C680 1.526 . S
C683 C684 1.396 . S
C683 C688 1.390 . S
C684 C678 1.465 . S
C684 C683 1.396 . S
C684 C685 1.399 . S
C685 H671 0.929 . S
C685 C684 1.399 . S
C685 C686 1.385 . S
C686 H672 0.931 . S
C686 C685 1.385 . S
C686 C687 1.389 . S
C687 C686 1.389 . S
C687 C688 1.387 . S
C688 H673 0.930 . S
C688 C683 1.390 . S
C688 C687 1.387 . S
H689 C701 0.930 . S
H690 C703 0.930 . S
H691 C704 0.930 . S
H692 C708 0.959 . S
H693 C708 0.959 . S
H694 C708 0.961 . S
H695 C709 0.960 . S
H696 C709 0.961 . S
H697 C709 0.959 . S
H698 C712 0.929 . S
H699 C713 0.931 . S
H700 C715 0.930 . S
C701 H689 0.930 . S
C701 C702 1.399 . S
C701 C706 1.399 . S
C702 C701 1.399 . S
C702 C703 1.376 . S
C703 H690 0.930 . S
C703 C702 1.376 . S
C703 C704 1.388 . S
C704 H691 0.930 . S
C704 C703 1.388 . S
C704 C705 1.390 . S
C705 C704 1.390 . S
C705 C706 1.394 . S
C705 C711 1.465 . S
C706 C701 1.399 . S
C706 C705 1.394 . S
C706 C707 1.516 . S
C707 C706 1.516 . S
C707 C708 1.502 . S
C707 C709 1.561 . S
C707 C710 1.526 . S
C708 H692 0.959 . S
C708 H693 0.959 . S
C708 H694 0.961 . S
C708 C707 1.502 . S
C709 H695 0.960 . S
C709 H696 0.961 . S
C709 H697 0.959 . S
C709 C707 1.561 . S
C710 C707 1.526 . S
C710 C711 1.396 . S
C710 C715 1.390 . S
C711 C705 1.465 . S
C711 C710 1.396 . S
C711 C712 1.399 . S
C712 H698 0.929 . S
C712 C711 1.399 . S
C712 C713 1.385 . S
C713 H699 0.931 . S
C713 C712 1.385 . S
C713 C714 1.389 . S
C714 C713 1.389 . S
C714 C715 1.387 . S
C715 H700 0.930 . S
C715 C710 1.390 . S
C715 C714 1.387 . S
H716 C728 0.930 . S
H717 C730 0.930 . S
H718 C731 0.930 . S
H719 C735 0.959 . S
H720 C735 0.959 . S
H721 C735 0.961 . S
H722 C736 0.960 . S
H723 C736 0.961 . S
H724 C736 0.959 . S
H725 C739 0.929 . S
H726 C740 0.931 . S
H727 C742 0.930 . S
C728 H716 0.930 . S
C728 C729 1.399 . S
C728 C733 1.399 . S
C729 C728 1.399 . S
C729 C730 1.376 . S
C730 H717 0.930 . S
C730 C729 1.376 . S
C730 C731 1.388 . S
C731 H718 0.930 . S
C731 C730 1.388 . S
C731 C732 1.390 . S
C732 C731 1.390 . S
C732 C733 1.394 . S
C732 C738 1.465 . S
C733 C728 1.399 . S
C733 C732 1.394 . S
C733 C734 1.516 . S
C734 C733 1.516 . S
C734 C735 1.502 . S
C734 C736 1.561 . S
C734 C737 1.526 . S
C735 H719 0.959 . S
C735 H720 0.959 . S
C735 H721 0.961 . S
C735 C734 1.502 . S
C736 H722 0.960 . S
C736 H723 0.961 . S
C736 H724 0.959 . S
C736 C734 1.561 . S
C737 C734 1.526 . S
C737 C738 1.396 . S
C737 C742 1.390 . S
C738 C732 1.465 . S
C738 C737 1.396 . S
C738 C739 1.399 . S
C739 H725 0.929 . S
C739 C738 1.399 . S
C739 C740 1.385 . S
C740 H726 0.931 . S
C740 C739 1.385 . S
C740 C741 1.389 . S
C741 C740 1.389 . S
C741 C742 1.387 . S
C742 H727 0.930 . S
C742 C737 1.390 . S
C742 C741 1.387 . S
H743 C755 0.930 . S
H744 C757 0.930 . S
H745 C758 0.930 . S
H746 C762 0.959 . S
H747 C762 0.959 . S
H748 C762 0.961 . S
H749 C763 0.960 . S
H750 C763 0.961 . S
H751 C763 0.959 . S
H752 C766 0.929 . S
H753 C767 0.931 . S
H754 C769 0.930 . S
C755 H743 0.930 . S
C755 C756 1.399 . S
C755 C760 1.399 . S
C756 C755 1.399 . S
C756 C757 1.376 . S
C757 H744 0.930 . S
C757 C756 1.376 . S
C757 C758 1.388 . S
C758 H745 0.930 . S
C758 C757 1.388 . S
C758 C759 1.390 . S
C759 C758 1.390 . S
C759 C760 1.394 . S
C759 C765 1.465 . S
C760 C755 1.399 . S
C760 C759 1.394 . S
C760 C761 1.516 . S
C761 C760 1.516 . S
C761 C762 1.502 . S
C761 C763 1.561 . S
C761 C764 1.526 . S
C762 H746 0.959 . S
C762 H747 0.959 . S
C762 H748 0.961 . S
C762 C761 1.502 . S
C763 H749 0.960 . S
C763 H750 0.961 . S
C763 H751 0.959 . S
C763 C761 1.561 . S
C764 C761 1.526 . S
C764 C765 1.396 . S
C764 C769 1.390 . S
C765 C759 1.465 . S
C765 C764 1.396 . S
C765 C766 1.399 . S
C766 H752 0.929 . S
C766 C765 1.399 . S
C766 C767 1.385 . S
C767 H753 0.931 . S
C767 C766 1.385 . S
C767 C768 1.389 . S
C768 C767 1.389 . S
C768 C769 1.387 . S
C769 H754 0.930 . S
C769 C764 1.390 . S
C769 C768 1.387 . S
H770 C782 0.930 . S
H771 C784 0.930 . S
H772 C785 0.930 . S
H773 C789 0.959 . S
H774 C789 0.959 . S
H775 C789 0.961 . S
H776 C790 0.960 . S
H777 C790 0.961 . S
H778 C790 0.959 . S
H779 C793 0.929 . S
H780 C794 0.931 . S
H781 C796 0.930 . S
C782 H770 0.930 . S
C782 C783 1.399 . S
C782 C787 1.399 . S
C783 C782 1.399 . S
C783 C784 1.376 . S
C784 H771 0.930 . S
C784 C783 1.376 . S
C784 C785 1.388 . S
C785 H772 0.930 . S
C785 C784 1.388 . S
C785 C786 1.390 . S
C786 C785 1.390 . S
C786 C787 1.394 . S
C786 C792 1.465 . S
C787 C782 1.399 . S
C787 C786 1.394 . S
C787 C788 1.516 . S
C788 C787 1.516 . S
C788 C789 1.502 . S
C788 C790 1.561 . S
C788 C791 1.526 . S
C789 H773 0.959 . S
C789 H774 0.959 . S
C789 H775 0.961 . S
C789 C788 1.502 . S
C790 H776 0.960 . S
C790 H777 0.961 . S
C790 H778 0.959 . S
C790 C788 1.561 . S
C791 C788 1.526 . S
C791 C792 1.396 . S
C791 C796 1.390 . S
C792 C786 1.465 . S
C792 C791 1.396 . S
C792 C793 1.399 . S
C793 H779 0.929 . S
C793 C792 1.399 . S
C793 C794 1.385 . S
C794 H780 0.931 . S
C794 C793 1.385 . S
C794 C795 1.389 . S
C795 C794 1.389 . S
C795 C796 1.387 . S
C796 H781 0.930 . S
C796 C791 1.390 . S
C796 C795 1.387 . S
H797 C809 0.930 . S
H798 C811 0.930 . S
H799 C812 0.930 . S
H800 C816 0.959 . S
H801 C816 0.959 . S
H802 C816 0.961 . S
H803 C817 0.960 . S
H804 C817 0.961 . S
H805 C817 0.959 . S
H806 C820 0.929 . S
H807 C821 0.931 . S
H808 C823 0.930 . S
C809 H797 0.930 . S
C809 C810 1.399 . S
C809 C814 1.399 . S
C810 C809 1.399 . S
C810 C811 1.376 . S
C811 H798 0.930 . S
C811 C810 1.376 . S
C811 C812 1.388 . S
C812 H799 0.930 . S
C812 C811 1.388 . S
C812 C813 1.390 . S
C813 C812 1.390 . S
C813 C814 1.394 . S
C813 C819 1.465 . S
C814 C809 1.399 . S
C814 C813 1.394 . S
C814 C815 1.516 . S
C815 C814 1.516 . S
C815 C816 1.502 . S
C815 C817 1.561 . S
C815 C818 1.526 . S
C816 H800 0.959 . S
C816 H801 0.959 . S
C816 H802 0.961 . S
C816 C815 1.502 . S
C817 H803 0.960 . S
C817 H804 0.961 . S
C817 H805 0.959 . S
C817 C815 1.561 . S
C818 C815 1.526 . S
C818 C819 1.396 . S
C818 C823 1.390 1_655 S
C819 C813 1.465 . S
C819 C818 1.396 . S
C819 C820 1.399 1_655 S
C820 H806 0.929 . S
C820 C819 1.399 1_455 S
C820 C821 1.385 . S
C821 H807 0.931 . S
C821 C820 1.385 . S
C821 C822 1.389 . S
C822 C821 1.389 . S
C822 C823 1.387 . S
C823 H808 0.930 . S
C823 C818 1.390 1_455 S
C823 C822 1.387 . S
C189 C7 1.493 . S
C201 C38 1.449 . S
C216 C16 1.433 . S
C228 C8 1.517 . S
C243 C19 1.513 . S
C255 C27 1.385 . S
C270 C41 1.513 . S
C282 C30 1.516 . S
C297 C85 1.501 . S
C309 C49 1.256 . S
C324 C52 1.501 1_556 S
C336 C63 1.466 . S
C351 C73 1.494 . S
C363 C60 1.290 . S
C378 C82 1.279 . S
C390 C74 1.548 . S
C405 C126 1.334 . S
C417 C95 1.409 . S
C432 C96 1.507 . S
C444 C104 1.331 . S
C459 C115 1.377 . S
C471 C107 1.520 . S
C486 C118 1.502 . S
C498 C129 1.494 . S
C513 C137 1.315 . S
C525 C173 1.476 . S
C540 C151 1.484 . S
C552 C140 1.520 . S
C567 C148 1.227 . S
C579 C161 1.528 . S
C594 C162 1.551 . S
C606 C170 1.329 . S
C621 C51 1.514 . S
C633 C5 1.214 . S
C648 C150 1.487 . S
C660 C18 1.474 . S
C675 C29 1.487 . S
C687 C71 1.350 . S
C702 C172 1.440 . S
C714 C40 1.487 . S
C729 C106 1.451 . S
C741 C62 1.430 . S
C756 C84 1.439 . S
C768 C128 1.486 . S
C783 C139 1.510 . S
C795 C93 1.204 . S
C810 C117 1.481 . S
C822 C159 1.374 . S
