# Generated by pormake.
# Topology gme, (4)-cn, num edge types: 1
# Building blocks:
#     Node 0, Type 0, BuildingBlock: QUQFOY_clean_sbu_1, # of connection points: 4
#     Node 1, Type 0, BuildingBlock: QUQFOY_clean_sbu_1, # of connection points: 4
#     Node 2, Type 0, BuildingBlock: QUQFOY_clean_sbu_1, # of connection points: 4
#     Node 3, Type 0, BuildingBlock: QUQFOY_clean_sbu_1, # of connection points: 4
#     Node 4, Type 0, BuildingBlock: QUQFOY_clean_sbu_1, # of connection points: 4
#     Node 5, Type 0, BuildingBlock: QUQFOY_clean_sbu_1, # of connection points: 4
#     Node 6, Type 0, BuildingBlock: QUQFOY_clean_sbu_1, # of connection points: 4
#     Node 7, Type 0, BuildingBlock: QUQFOY_clean_sbu_1, # of connection points: 4
#     Node 8, Type 0, BuildingBlock: QUQFOY_clean_sbu_1, # of connection points: 4
#     Node 9, Type 0, BuildingBlock: QUQFOY_clean_sbu_1, # of connection points: 4
#     Node 10, Type 0, BuildingBlock: QUQFOY_clean_sbu_1, # of connection points: 4
#     Node 11, Type 0, BuildingBlock: QUQFOY_clean_sbu_1, # of connection points: 4
#     Node 12, Type 0, BuildingBlock: QUQFOY_clean_sbu_1, # of connection points: 4
#     Node 13, Type 0, BuildingBlock: QUQFOY_clean_sbu_1, # of connection points: 4
#     Node 14, Type 0, BuildingBlock: QUQFOY_clean_sbu_1, # of connection points: 4
#     Node 15, Type 0, BuildingBlock: QUQFOY_clean_sbu_1, # of connection points: 4
#     Node 16, Type 0, BuildingBlock: QUQFOY_clean_sbu_1, # of connection points: 4
#     Node 17, Type 0, BuildingBlock: QUQFOY_clean_sbu_1, # of connection points: 4
#     Node 18, Type 0, BuildingBlock: QUQFOY_clean_sbu_1, # of connection points: 4
#     Node 19, Type 0, BuildingBlock: QUQFOY_clean_sbu_1, # of connection points: 4
#     Node 20, Type 0, BuildingBlock: QUQFOY_clean_sbu_1, # of connection points: 4
#     Node 21, Type 0, BuildingBlock: QUQFOY_clean_sbu_1, # of connection points: 4
#     Node 22, Type 0, BuildingBlock: QUQFOY_clean_sbu_1, # of connection points: 4
#     Node 23, Type 0, BuildingBlock: QUQFOY_clean_sbu_1, # of connection points: 4
#     Edge 24, Type (0, 0), BuildingBlock: UVAHIK_clean_linker_0, # of connection points: 2
#     Edge 25, Type (0, 0), BuildingBlock: UVAHIK_clean_linker_0, # of connection points: 2
#     Edge 26, Type (0, 0), BuildingBlock: UVAHIK_clean_linker_0, # of connection points: 2
#     Edge 27, Type (0, 0), BuildingBlock: UVAHIK_clean_linker_0, # of connection points: 2
#     Edge 28, Type (0, 0), BuildingBlock: UVAHIK_clean_linker_0, # of connection points: 2
#     Edge 29, Type (0, 0), BuildingBlock: UVAHIK_clean_linker_0, # of connection points: 2
#     Edge 30, Type (0, 0), BuildingBlock: UVAHIK_clean_linker_0, # of connection points: 2
#     Edge 31, Type (0, 0), BuildingBlock: UVAHIK_clean_linker_0, # of connection points: 2
#     Edge 32, Type (0, 0), BuildingBlock: UVAHIK_clean_linker_0, # of connection points: 2
#     Edge 33, Type (0, 0), BuildingBlock: UVAHIK_clean_linker_0, # of connection points: 2
#     Edge 34, Type (0, 0), BuildingBlock: UVAHIK_clean_linker_0, # of connection points: 2
#     Edge 35, Type (0, 0), BuildingBlock: UVAHIK_clean_linker_0, # of connection points: 2
#     Edge 36, Type (0, 0), BuildingBlock: UVAHIK_clean_linker_0, # of connection points: 2
#     Edge 37, Type (0, 0), BuildingBlock: UVAHIK_clean_linker_0, # of connection points: 2
#     Edge 38, Type (0, 0), BuildingBlock: UVAHIK_clean_linker_0, # of connection points: 2
#     Edge 39, Type (0, 0), BuildingBlock: UVAHIK_clean_linker_0, # of connection points: 2
#     Edge 40, Type (0, 0), BuildingBlock: UVAHIK_clean_linker_0, # of connection points: 2
#     Edge 41, Type (0, 0), BuildingBlock: UVAHIK_clean_linker_0, # of connection points: 2
#     Edge 42, Type (0, 0), BuildingBlock: UVAHIK_clean_linker_0, # of connection points: 2
#     Edge 43, Type (0, 0), BuildingBlock: UVAHIK_clean_linker_0, # of connection points: 2
#     Edge 44, Type (0, 0), BuildingBlock: UVAHIK_clean_linker_0, # of connection points: 2
#     Edge 45, Type (0, 0), BuildingBlock: UVAHIK_clean_linker_0, # of connection points: 2
#     Edge 46, Type (0, 0), BuildingBlock: UVAHIK_clean_linker_0, # of connection points: 2
#     Edge 47, Type (0, 0), BuildingBlock: UVAHIK_clean_linker_0, # of connection points: 2
#     Edge 48, Type (0, 0), BuildingBlock: UVAHIK_clean_linker_0, # of connection points: 2
#     Edge 49, Type (0, 0), BuildingBlock: UVAHIK_clean_linker_0, # of connection points: 2
#     Edge 50, Type (0, 0), BuildingBlock: UVAHIK_clean_linker_0, # of connection points: 2
#     Edge 51, Type (0, 0), BuildingBlock: UVAHIK_clean_linker_0, # of connection points: 2
#     Edge 52, Type (0, 0), BuildingBlock: UVAHIK_clean_linker_0, # of connection points: 2
#     Edge 53, Type (0, 0), BuildingBlock: UVAHIK_clean_linker_0, # of connection points: 2
#     Edge 54, Type (0, 0), BuildingBlock: UVAHIK_clean_linker_0, # of connection points: 2
#     Edge 55, Type (0, 0), BuildingBlock: UVAHIK_clean_linker_0, # of connection points: 2
#     Edge 56, Type (0, 0), BuildingBlock: UVAHIK_clean_linker_0, # of connection points: 2
#     Edge 57, Type (0, 0), BuildingBlock: UVAHIK_clean_linker_0, # of connection points: 2
#     Edge 58, Type (0, 0), BuildingBlock: UVAHIK_clean_linker_0, # of connection points: 2
#     Edge 59, Type (0, 0), BuildingBlock: UVAHIK_clean_linker_0, # of connection points: 2
#     Edge 60, Type (0, 0), BuildingBlock: UVAHIK_clean_linker_0, # of connection points: 2
#     Edge 61, Type (0, 0), BuildingBlock: UVAHIK_clean_linker_0, # of connection points: 2
#     Edge 62, Type (0, 0), BuildingBlock: UVAHIK_clean_linker_0, # of connection points: 2
#     Edge 63, Type (0, 0), BuildingBlock: UVAHIK_clean_linker_0, # of connection points: 2
#     Edge 64, Type (0, 0), BuildingBlock: UVAHIK_clean_linker_0, # of connection points: 2
#     Edge 65, Type (0, 0), BuildingBlock: UVAHIK_clean_linker_0, # of connection points: 2
#     Edge 66, Type (0, 0), BuildingBlock: UVAHIK_clean_linker_0, # of connection points: 2
#     Edge 67, Type (0, 0), BuildingBlock: UVAHIK_clean_linker_0, # of connection points: 2
#     Edge 68, Type (0, 0), BuildingBlock: UVAHIK_clean_linker_0, # of connection points: 2
#     Edge 69, Type (0, 0), BuildingBlock: UVAHIK_clean_linker_0, # of connection points: 2
#     Edge 70, Type (0, 0), BuildingBlock: UVAHIK_clean_linker_0, # of connection points: 2
#     Edge 71, Type (0, 0), BuildingBlock: UVAHIK_clean_linker_0, # of connection points: 2
# Relax obj value: 0.038
# Max RMSD: 0.064
# Mean RMSD: 0.064
data_MOF--net-gme--node1-QUQFOY_clean_sbu_1--edge1-UVAHIK_clean_linker_0
_symmetry_space_group_name_H-M    P1
_symmetry_Int_Tables_number       1
_symmetry_cell_setting            triclinic
loop_
_symmetry_equiv_pos_as_xyz
'x, y, z'
_cell_length_a     80.136494
_cell_length_b     80.140421
_cell_length_c     72.203903
_cell_angle_alpha  89.99857
_cell_angle_beta   90.004528
_cell_angle_gamma 120.0094
loop_
_atom_site_label
_atom_site_type_symbol
_atom_site_fract_x
_atom_site_fract_y
_atom_site_fract_z
_atom_type_partial_charge
O0 O 0.4172 0.09062 0.15238 0.0
Cd1 Cd 0.42996 0.1 0.12672 0.0
Cd2 Cd 0.41037 0.06099 0.12063 0.0
O3 O 0.39921 0.0595 0.14681 0.0
O4 O 0.44186 0.12851 0.12859 0.0
O5 O 0.41864 0.1111 0.10873 0.0
C6 C 0.43036 0.12776 0.11575 0.0
C7 C 0.39084 0.04663 0.09486 0.0
C8 C 0.40487 0.07376 0.15775 0.0
C9 C 0.45339 0.08084 0.11837 0.0
O10 O 0.43774 0.06479 0.11897 0.0
O11 O 0.45321 0.09654 0.12019 0.0
O12 O 0.39303 0.03646 0.10746 0.0
O13 O 0.39917 0.06506 0.0973 0.0
O14 O 0.32833 0.41572 0.65103 0.0
Cd15 Cd 0.33183 0.4278 0.625 0.0
Cd16 Cd 0.35126 0.40815 0.62053 0.0
O17 O 0.34171 0.39772 0.64693 0.0
O18 O 0.3155 0.44005 0.62647 0.0
O19 O 0.30924 0.41627 0.60718 0.0
C20 C 0.30453 0.42828 0.61391 0.0
C21 C 0.34473 0.38862 0.59457 0.0
C22 C 0.33291 0.4037 0.65723 0.0
C23 C 0.37456 0.45097 0.61699 0.0
O24 O 0.37495 0.43537 0.61842 0.0
O25 O 0.35865 0.45083 0.61819 0.0
O26 O 0.35733 0.39034 0.6067 0.0
O27 O 0.33509 0.39733 0.59771 0.0
O28 O 0.91451 0.3274 0.15064 0.0
Cd29 Cd 0.90653 0.3311 0.12441 0.0
Cd30 Cd 0.94552 0.3496 0.12039 0.0
O31 O 0.94582 0.33978 0.14684 0.0
O32 O 0.87789 0.31505 0.12536 0.0
O33 O 0.8956 0.30856 0.10656 0.0
C34 C 0.8788 0.30401 0.11295 0.0
C35 C 0.95836 0.34281 0.09446 0.0
C36 C 0.9309 0.33144 0.15702 0.0
C37 C 0.92699 0.3738 0.1165 0.0
O38 O 0.94272 0.37372 0.11822 0.0
O39 O 0.91096 0.35812 0.11747 0.0
O40 O 0.96936 0.35517 0.10672 0.0
O41 O 0.93999 0.3335 0.09749 0.0
O42 O 0.59017 0.91521 0.65031 0.0
Cd43 Cd 0.5781 0.90675 0.62429 0.0
Cd44 Cd 0.59849 0.94617 0.62006 0.0
O45 O 0.60884 0.94654 0.64642 0.0
O46 O 0.56488 0.87818 0.62659 0.0
O47 O 0.58884 0.89434 0.60709 0.0
C48 C 0.57644 0.87805 0.61432 0.0
C49 C 0.61835 0.9604 0.59448 0.0
C50 C 0.60249 0.93166 0.65661 0.0
C51 C 0.55562 0.92704 0.61644 0.0
O52 O 0.57136 0.94288 0.61809 0.0
O53 O 0.55547 0.91111 0.61737 0.0
O54 O 0.61645 0.97068 0.60717 0.0
O55 O 0.60962 0.94192 0.59679 0.0
O56 O 0.6769 0.58814 0.14986 0.0
Cd57 Cd 0.6736 0.57651 0.12366 0.0
Cd58 Cd 0.65473 0.597 0.11951 0.0
O59 O 0.66444 0.60699 0.146 0.0
O60 O 0.68885 0.56319 0.1258 0.0
O61 O 0.69692 0.58749 0.10666 0.0
C62 C 0.70068 0.57492 0.1137 0.0
C63 C 0.66068 0.61721 0.09417 0.0
C64 C 0.67276 0.60043 0.15622 0.0
C65 C 0.63092 0.55422 0.11536 0.0
O66 O 0.63082 0.56994 0.11718 0.0
O67 O 0.64667 0.55403 0.11635 0.0
O68 O 0.6484 0.61519 0.1068 0.0
O69 O 0.67034 0.60838 0.09642 0.0
O70 O 0.09043 0.6754 0.65026 0.0
Cd71 Cd 0.0991 0.6725 0.62408 0.0
Cd72 Cd 0.05961 0.65266 0.61993 0.0
O73 O 0.05901 0.66205 0.64647 0.0
O74 O 0.12764 0.68803 0.62662 0.0
O75 O 0.11149 0.69602 0.60732 0.0
C76 C 0.12776 0.6999 0.61457 0.0
C77 C 0.04521 0.65853 0.59468 0.0
C78 C 0.07388 0.67074 0.65666 0.0
C79 C 0.07957 0.62984 0.61549 0.0
O80 O 0.0635 0.62921 0.61738 0.0
O81 O 0.09526 0.64584 0.61655 0.0
O82 O 0.03503 0.64597 0.60715 0.0
O83 O 0.06367 0.66847 0.59703 0.0
O84 O 0.91625 0.5878 0.36069 0.0
Cd85 Cd 0.90769 0.57598 0.38681 0.0
Cd86 Cd 0.94681 0.5964 0.39121 0.0
O87 O 0.94754 0.60661 0.36475 0.0
O88 O 0.87912 0.5627 0.38453 0.0
O89 O 0.89529 0.58689 0.4038 0.0
C90 C 0.87899 0.57437 0.39667 0.0
C91 C 0.9593 0.61605 0.41715 0.0
C92 C 0.93272 0.60011 0.35444 0.0
C93 C 0.92805 0.55369 0.39525 0.0
O94 O 0.94387 0.56944 0.39352 0.0
O95 O 0.91211 0.55347 0.39414 0.0
O96 O 0.97046 0.61463 0.40512 0.0
O97 O 0.94097 0.60699 0.4139 0.0
O98 O 0.32997 0.91639 0.86053 0.0
Cd99 Cd 0.33348 0.90737 0.88632 0.0
Cd100 Cd 0.35289 0.94667 0.89107 0.0
O101 O 0.34319 0.94773 0.8648 0.0
O102 O 0.31799 0.87886 0.88355 0.0
O103 O 0.31034 0.89474 0.90353 0.0
C104 C 0.30636 0.87856 0.89599 0.0
C105 C 0.34663 0.95967 0.9172 0.0
C106 C 0.3344 0.933 0.85445 0.0
C107 C 0.37626 0.92717 0.89421 0.0
O108 O 0.37658 0.94314 0.89288 0.0
O109 O 0.36039 0.91136 0.89306 0.0
O110 O 0.35914 0.97055 0.905 0.0
O111 O 0.33692 0.94132 0.91405 0.0
O112 O 0.41686 0.32898 0.36134 0.0
Cd113 Cd 0.42853 0.33228 0.38751 0.0
Cd114 Cd 0.40791 0.35108 0.39161 0.0
O115 O 0.3979 0.34131 0.36514 0.0
O116 O 0.44208 0.31726 0.38512 0.0
O117 O 0.41779 0.30884 0.40435 0.0
C118 C 0.43042 0.30527 0.39716 0.0
C119 C 0.38777 0.34508 0.41702 0.0
C120 C 0.40452 0.33303 0.35495 0.0
C121 C 0.45067 0.37497 0.39584 0.0
O122 O 0.43494 0.37502 0.39392 0.0
O123 O 0.45091 0.35924 0.39491 0.0
O124 O 0.38969 0.35732 0.40439 0.0
O125 O 0.39664 0.33547 0.41472 0.0
O126 O 0.09018 0.41601 0.86111 0.0
Cd127 Cd 0.09862 0.42762 0.88731 0.0
Cd128 Cd 0.05921 0.40709 0.89154 0.0
O129 O 0.05887 0.39719 0.86499 0.0
O130 O 0.1272 0.44092 0.88506 0.0
O131 O 0.11102 0.41662 0.90421 0.0
C132 C 0.12732 0.42917 0.89712 0.0
C133 C 0.04496 0.38684 0.91687 0.0
C134 C 0.07374 0.40376 0.85475 0.0
C135 C 0.07825 0.44988 0.89583 0.0
O136 O 0.06242 0.43416 0.89401 0.0
O137 O 0.0942 0.45009 0.89475 0.0
O138 O 0.03469 0.38891 0.90429 0.0
O139 O 0.06344 0.39563 0.91458 0.0
O140 O 0.67932 0.09068 0.36 0.0
Cd141 Cd 0.67527 0.09908 0.3859 0.0
Cd142 Cd 0.6563 0.06003 0.3904 0.0
O143 O 0.66626 0.05933 0.36413 0.0
O144 O 0.69145 0.12769 0.38464 0.0
O145 O 0.69753 0.11017 0.4041 0.0
C146 C 0.70224 0.1269 0.39741 0.0
C147 C 0.66255 0.04706 0.41658 0.0
C148 C 0.67502 0.07413 0.35386 0.0
C149 C 0.63244 0.07904 0.39331 0.0
O150 O 0.63237 0.06318 0.39211 0.0
O151 O 0.64821 0.09495 0.39218 0.0
O152 O 0.65023 0.03614 0.40426 0.0
O153 O 0.67211 0.06542 0.4135 0.0
O154 O 0.58999 0.67703 0.8602 0.0
Cd155 Cd 0.57766 0.6733 0.88613 0.0
Cd156 Cd 0.5979 0.6545 0.89091 0.0
O157 O 0.60837 0.6641 0.86453 0.0
O158 O 0.56517 0.68942 0.88461 0.0
O159 O 0.58887 0.6958 0.90405 0.0
C160 C 0.57681 0.7004 0.89725 0.0
C161 C 0.61743 0.66107 0.9169 0.0
C162 C 0.60224 0.6727 0.85414 0.0
C163 C 0.55503 0.63058 0.89412 0.0
O164 O 0.57084 0.63056 0.89294 0.0
O165 O 0.55482 0.6463 0.89277 0.0
O166 O 0.61585 0.64857 0.9047 0.0
O167 O 0.60859 0.67059 0.91381 0.0
O168 O 0.58986 0.91341 0.86031 0.0
Cd169 Cd 0.57761 0.905 0.88628 0.0
Cd170 Cd 0.59797 0.94424 0.89086 0.0
O171 O 0.60842 0.94471 0.86454 0.0
O172 O 0.56505 0.87639 0.88487 0.0
O173 O 0.58881 0.89374 0.90424 0.0
C174 C 0.5767 0.87706 0.8975 0.0
C175 C 0.61775 0.95864 0.91647 0.0
C176 C 0.6022 0.92994 0.8542 0.0
C177 C 0.55504 0.9252 0.89397 0.0
O178 O 0.57086 0.94102 0.89269 0.0
O179 O 0.55481 0.90925 0.89282 0.0
O180 O 0.61585 0.96883 0.90369 0.0
O181 O 0.60907 0.94015 0.91424 0.0
O182 O 0.67663 0.58776 0.36036 0.0
Cd183 Cd 0.67334 0.57606 0.38654 0.0
Cd184 Cd 0.65497 0.59676 0.39085 0.0
O185 O 0.66457 0.60693 0.3644 0.0
O186 O 0.68854 0.56268 0.38441 0.0
O187 O 0.69666 0.58701 0.40353 0.0
C188 C 0.70039 0.57441 0.3965 0.0
C189 C 0.66211 0.61634 0.41685 0.0
C190 C 0.67269 0.60022 0.35409 0.0
C191 C 0.63071 0.55409 0.39497 0.0
O192 O 0.6308 0.5699 0.39312 0.0
O193 O 0.64636 0.55371 0.39396 0.0
O194 O 0.64966 0.61508 0.40474 0.0
O195 O 0.67131 0.6072 0.41363 0.0
O196 O 0.09069 0.67539 0.8608 0.0
Cd197 Cd 0.09922 0.6723 0.88698 0.0
Cd198 Cd 0.05987 0.65358 0.8914 0.0
O199 O 0.05941 0.663 0.86484 0.0
O200 O 0.12779 0.68758 0.88464 0.0
O201 O 0.11165 0.69574 0.90381 0.0
C202 C 0.12794 0.6995 0.89667 0.0
C203 C 0.04568 0.65975 0.91665 0.0
C204 C 0.07422 0.67122 0.85452 0.0
C205 C 0.07878 0.62971 0.8957 0.0
O206 O 0.06298 0.62968 0.89395 0.0
O207 O 0.09476 0.6454 0.89449 0.0
O208 O 0.03539 0.64735 0.90412 0.0
O209 O 0.06416 0.6694 0.91435 0.0
O210 O 0.41684 0.08888 0.35868 0.0
Cd211 Cd 0.42965 0.09834 0.38431 0.0
Cd212 Cd 0.40948 0.05942 0.39034 0.0
O213 O 0.39824 0.05783 0.36419 0.0
O214 O 0.44241 0.12683 0.38155 0.0
O215 O 0.41902 0.11072 0.40164 0.0
C216 C 0.43109 0.12697 0.3941 0.0
C217 C 0.39044 0.04685 0.41668 0.0
C218 C 0.40425 0.07214 0.35327 0.0
C219 C 0.45241 0.07851 0.39273 0.0
O220 O 0.43661 0.06262 0.39194 0.0
O221 O 0.45255 0.09438 0.39108 0.0
O222 O 0.39189 0.03577 0.40459 0.0
O223 O 0.39917 0.06516 0.41333 0.0
O224 O 0.32958 0.41552 0.86113 0.0
Cd225 Cd 0.3331 0.42759 0.88714 0.0
Cd226 Cd 0.35234 0.40737 0.89144 0.0
O227 O 0.34254 0.39711 0.86504 0.0
O228 O 0.31774 0.44078 0.88476 0.0
O229 O 0.30991 0.41685 0.9043 0.0
C230 C 0.30603 0.42924 0.89704 0.0
C231 C 0.34667 0.38736 0.9169 0.0
C232 C 0.33389 0.40333 0.85484 0.0
C233 C 0.37588 0.45024 0.89512 0.0
O234 O 0.37609 0.43456 0.89355 0.0
O235 O 0.36006 0.45029 0.89408 0.0
O236 O 0.35896 0.38943 0.90426 0.0
O237 O 0.33686 0.39603 0.91462 0.0
O238 O 0.91429 0.32712 0.3613 0.0
Cd239 Cd 0.90636 0.3308 0.38755 0.0
Cd240 Cd 0.94554 0.34937 0.39157 0.0
O241 O 0.94559 0.33943 0.36511 0.0
O242 O 0.87772 0.31487 0.38654 0.0
O243 O 0.8953 0.30818 0.40533 0.0
C244 C 0.87853 0.30373 0.3989 0.0
C245 C 0.95983 0.34355 0.41699 0.0
C246 C 0.93068 0.33113 0.35492 0.0
C247 C 0.9269 0.37351 0.39549 0.0
O248 O 0.94264 0.37342 0.39375 0.0
O249 O 0.91088 0.35784 0.39453 0.0
O250 O 0.97009 0.35565 0.40424 0.0
O251 O 0.94133 0.33396 0.41481 0.0
O252 O 0.09131 0.41587 0.65049 0.0
Cd253 Cd 0.09983 0.42758 0.62432 0.0
Cd254 Cd 0.06068 0.40797 0.62002 0.0
O255 O 0.0599 0.39781 0.64654 0.0
O256 O 0.12841 0.43989 0.62586 0.0
O257 O 0.11096 0.4159 0.60676 0.0
C258 C 0.12766 0.42801 0.61345 0.0
C259 C 0.04745 0.38823 0.5942 0.0
C260 C 0.07472 0.40394 0.65681 0.0
C261 C 0.08036 0.45075 0.61598 0.0
O262 O 0.06433 0.43521 0.61764 0.0
O263 O 0.09609 0.45054 0.61715 0.0
O264 O 0.03667 0.39009 0.60635 0.0
O265 O 0.06582 0.39687 0.59727 0.0
O266 O 0.67937 0.09061 0.15015 0.0
Cd267 Cd 0.67552 0.09921 0.12427 0.0
Cd268 Cd 0.65556 0.06 0.11995 0.0
O269 O 0.66545 0.05916 0.14622 0.0
O270 O 0.69188 0.12778 0.12583 0.0
O271 O 0.6979 0.11038 0.10618 0.0
C272 C 0.70268 0.12706 0.11304 0.0
C273 C 0.66147 0.04667 0.09385 0.0
C274 C 0.67463 0.07398 0.15639 0.0
C275 C 0.63266 0.07999 0.11692 0.0
O276 O 0.63206 0.06388 0.1182 0.0
O277 O 0.64869 0.09564 0.11798 0.0
O278 O 0.649 0.03595 0.10615 0.0
O279 O 0.67134 0.06503 0.09688 0.0
O280 O 0.59055 0.67578 0.6502 0.0
Cd281 Cd 0.5785 0.67245 0.6242 0.0
Cd282 Cd 0.59796 0.65235 0.62008 0.0
O283 O 0.60826 0.66203 0.64649 0.0
O284 O 0.56548 0.68796 0.62681 0.0
O285 O 0.58929 0.69573 0.60713 0.0
C286 C 0.57698 0.69967 0.61452 0.0
C287 C 0.61799 0.65795 0.59466 0.0
C288 C 0.60239 0.67106 0.65659 0.0
C289 C 0.55512 0.62965 0.61616 0.0
O290 O 0.57055 0.62896 0.61786 0.0
O291 O 0.55553 0.6457 0.61717 0.0
O292 O 0.61567 0.64548 0.60719 0.0
O293 O 0.60953 0.66795 0.59702 0.0
O294 O 0.91638 0.58814 0.15036 0.0
Cd295 Cd 0.90788 0.57636 0.12422 0.0
Cd296 Cd 0.947 0.59673 0.1199 0.0
O297 O 0.94768 0.60688 0.14638 0.0
O298 O 0.8793 0.56313 0.12641 0.0
O299 O 0.89558 0.58733 0.10717 0.0
C300 C 0.87924 0.57483 0.11425 0.0
C301 C 0.95962 0.61648 0.09404 0.0
C302 C 0.93285 0.6004 0.15666 0.0
C303 C 0.92818 0.55401 0.11584 0.0
O304 O 0.94401 0.56975 0.11755 0.0
O305 O 0.91224 0.55381 0.11694 0.0
O306 O 0.97071 0.61497 0.10608 0.0
O307 O 0.94127 0.60745 0.09723 0.0
O308 O 0.32997 0.91638 0.65092 0.0
Cd309 Cd 0.33343 0.90758 0.625 0.0
Cd310 Cd 0.35267 0.94699 0.62036 0.0
O311 O 0.34292 0.9477 0.6467 0.0
O312 O 0.31799 0.87904 0.62755 0.0
O313 O 0.31025 0.89508 0.60784 0.0
C314 C 0.3063 0.87884 0.61523 0.0
C315 C 0.34707 0.96122 0.59478 0.0
C316 C 0.33429 0.93294 0.65703 0.0
C317 C 0.37618 0.92761 0.61692 0.0
O318 O 0.37639 0.94352 0.61836 0.0
O319 O 0.36036 0.91174 0.61807 0.0
O320 O 0.35936 0.97149 0.6074 0.0
O321 O 0.33721 0.94276 0.59715 0.0
O322 O 0.41752 0.32796 0.15095 0.0
Cd323 Cd 0.42941 0.33149 0.12483 0.0
Cd324 Cd 0.40896 0.35004 0.12035 0.0
O325 O 0.39871 0.34042 0.14679 0.0
O326 O 0.44205 0.31552 0.12625 0.0
O327 O 0.41799 0.30878 0.10715 0.0
C328 C 0.43022 0.30434 0.11382 0.0
C329 C 0.38936 0.34326 0.0944 0.0
C330 C 0.40517 0.3321 0.15714 0.0
C331 C 0.45174 0.37414 0.11663 0.0
O332 O 0.43592 0.37409 0.11816 0.0
O333 O 0.45205 0.35846 0.11782 0.0
O334 O 0.39081 0.3557 0.1066 0.0
O335 O 0.39833 0.33387 0.0975 0.0
C336 C 0.3875 0.05091 0.3258 0.0
C337 C 0.3976 0.0694 0.33375 0.0
C338 C 0.38315 0.04869 0.30685 0.0
C339 C 0.3806 0.07475 0.26524 0.0
H340 H 0.39474 0.04177 0.23839 0.0
C341 C 0.40298 0.08669 0.18876 0.0
C342 C 0.39815 0.07075 0.17726 0.0
C343 C 0.39843 0.08417 0.20759 0.0
C344 C 0.39034 0.05075 0.24566 0.0
H345 H 0.41024 0.09997 0.32812 0.0
H346 H 0.40273 0.09611 0.29528 0.0
H347 H 0.39458 0.04144 0.27215 0.0
H348 H 0.38407 0.03955 0.17647 0.0
H349 H 0.37612 0.03515 0.20948 0.0
H350 H 0.37699 0.08454 0.23876 0.0
C351 C 0.39806 0.08329 0.30363 0.0
C352 C 0.39025 0.05056 0.26504 0.0
C353 C 0.40251 0.08552 0.32248 0.0
C354 C 0.38803 0.05215 0.18494 0.0
C355 C 0.38357 0.04962 0.20387 0.0
C356 C 0.3807 0.07495 0.24589 0.0
C357 C 0.38864 0.0649 0.29549 0.0
C358 C 0.3859 0.06296 0.27506 0.0
C359 C 0.38898 0.06564 0.21546 0.0
C360 C 0.3861 0.06335 0.23587 0.0
H361 H 0.38349 0.03819 0.33409 0.0
H362 H 0.37573 0.03431 0.30102 0.0
H363 H 0.37682 0.08421 0.27255 0.0
H364 H 0.41074 0.10123 0.18332 0.0
H365 H 0.40304 0.09684 0.21613 0.0
C366 C 0.33901 0.38992 0.6861 0.0
C367 C 0.32917 0.39797 0.67699 0.0
C368 C 0.33738 0.38715 0.70534 0.0
C369 C 0.32654 0.40719 0.74646 0.0
H370 H 0.32528 0.36444 0.77286 0.0
C371 C 0.31753 0.40184 0.82494 0.0
C372 C 0.32996 0.39767 0.83508 0.0
C373 C 0.31563 0.39904 0.80582 0.0
C374 C 0.32576 0.37653 0.76566 0.0
H375 H 0.30881 0.40806 0.68074 0.0
H376 H 0.30571 0.40289 0.71402 0.0
H377 H 0.3251 0.36451 0.73889 0.0
H378 H 0.3494 0.38627 0.83316 0.0
H379 H 0.3463 0.38163 0.79956 0.0
H380 H 0.32748 0.41941 0.77295 0.0
C381 C 0.31511 0.39923 0.70646 0.0
C382 C 0.32565 0.37656 0.74623 0.0
C383 C 0.31682 0.4021 0.68734 0.0
C384 C 0.3397 0.38963 0.82575 0.0
C385 C 0.33789 0.38693 0.8065 0.0
C386 C 0.32665 0.40716 0.76576 0.0
C387 C 0.32583 0.39231 0.7158 0.0
C388 C 0.3259 0.39186 0.73641 0.0
C389 C 0.32625 0.39214 0.79626 0.0
C390 C 0.32611 0.39179 0.77564 0.0
H391 H 0.34864 0.38659 0.67852 0.0
H392 H 0.34587 0.38183 0.71211 0.0
H393 H 0.3273 0.41948 0.73939 0.0
H394 H 0.30959 0.40778 0.83172 0.0
H395 H 0.30615 0.40273 0.79844 0.0
C396 C 0.95036 0.33679 0.18609 0.0
C397 C 0.9325 0.32761 0.17686 0.0
C398 C 0.95126 0.33511 0.20536 0.0
C399 C 0.92038 0.3256 0.2463 0.0
H400 H 0.96034 0.32178 0.27297 0.0
C401 C 0.91555 0.31568 0.32475 0.0
C402 C 0.93229 0.32735 0.33508 0.0
C403 C 0.9165 0.31399 0.3056 0.0
C404 C 0.94916 0.32298 0.26569 0.0
H405 H 0.90178 0.30837 0.18046 0.0
H406 H 0.9034 0.30518 0.21377 0.0
H407 H 0.9604 0.32185 0.239 0.0
H408 H 0.96334 0.34561 0.33344 0.0
H409 H 0.96496 0.34284 0.29981 0.0
H410 H 0.90923 0.32699 0.27273 0.0
C411 C 0.91666 0.31412 0.20628 0.0
C412 C 0.9492 0.32302 0.24626 0.0
C413 C 0.91575 0.31587 0.18714 0.0
C414 C 0.95017 0.33651 0.32589 0.0
C415 C 0.95111 0.33489 0.30662 0.0
C416 C 0.92034 0.32556 0.2656 0.0
C417 C 0.93432 0.32417 0.21572 0.0
C418 C 0.93468 0.32417 0.23635 0.0
C419 C 0.93419 0.32403 0.29621 0.0
C420 C 0.93461 0.32409 0.27558 0.0
H421 H 0.96354 0.34595 0.17857 0.0
H422 H 0.96509 0.34308 0.2122 0.0
H423 H 0.90928 0.32705 0.23916 0.0
H424 H 0.90157 0.30821 0.3314 0.0
H425 H 0.90325 0.30511 0.29808 0.0
C426 C 0.60387 0.91663 0.68645 0.0
C427 C 0.60818 0.93331 0.67636 0.0
C428 C 0.6067 0.91747 0.70556 0.0
C429 C 0.62949 0.94995 0.74578 0.0
H430 H 0.58636 0.9087 0.77203 0.0
C431 C 0.61627 0.9498 0.82537 0.0
C432 C 0.60799 0.93188 0.83446 0.0
C433 C 0.61906 0.95095 0.80613 0.0
C434 C 0.5987 0.92018 0.76497 0.0
H435 H 0.61982 0.96418 0.67836 0.0
H436 H 0.6245 0.9656 0.71196 0.0
H437 H 0.58639 0.90903 0.73847 0.0
H438 H 0.59751 0.90137 0.83066 0.0
H439 H 0.60271 0.90343 0.79738 0.0
H440 H 0.64161 0.96117 0.77256 0.0
C441 C 0.61908 0.95189 0.70498 0.0
C442 C 0.59871 0.92037 0.74567 0.0
C443 C 0.61636 0.95107 0.68574 0.0
C444 C 0.60365 0.91536 0.82408 0.0
C445 C 0.60654 0.91653 0.80496 0.0
C446 C 0.62948 0.94975 0.76522 0.0
C447 C 0.61375 0.93498 0.71517 0.0
C448 C 0.61414 0.93515 0.73579 0.0
C449 C 0.61368 0.93421 0.79565 0.0
C450 C 0.61412 0.93476 0.77503 0.0
H451 H 0.59782 0.90276 0.67964 0.0
H452 H 0.60291 0.90426 0.71291 0.0
H453 H 0.64162 0.96151 0.73859 0.0
H454 H 0.61977 0.9628 0.83297 0.0
H455 H 0.62455 0.96479 0.7994 0.0
C456 C 0.6672 0.61433 0.3251 0.0
C457 C 0.67642 0.60565 0.33425 0.0
C458 C 0.66881 0.61692 0.30583 0.0
C459 C 0.6782 0.59558 0.2648 0.0
H460 H 0.68196 0.63938 0.23821 0.0
C461 C 0.68822 0.60085 0.1864 0.0
C462 C 0.67648 0.60582 0.17607 0.0
C463 C 0.68989 0.60348 0.20555 0.0
C464 C 0.68078 0.627 0.24546 0.0
H465 H 0.69566 0.5942 0.33053 0.0
H466 H 0.69874 0.59904 0.29722 0.0
H467 H 0.68194 0.63934 0.27218 0.0
H468 H 0.65807 0.61843 0.17769 0.0
H469 H 0.6608 0.62281 0.21133 0.0
H470 H 0.67679 0.58307 0.23835 0.0
C471 C 0.68982 0.60334 0.30476 0.0
C472 C 0.68076 0.62698 0.2649 0.0
C473 C 0.68813 0.60067 0.3239 0.0
C474 C 0.66723 0.61444 0.18525 0.0
C475 C 0.66883 0.61699 0.20452 0.0
C476 C 0.67821 0.5956 0.2455 0.0
C477 C 0.67972 0.61094 0.2954 0.0
C478 C 0.67964 0.61131 0.27478 0.0
C479 C 0.67976 0.61103 0.21494 0.0
C480 C 0.67967 0.61135 0.23555 0.0
H481 H 0.65807 0.61833 0.33268 0.0
H482 H 0.66081 0.62278 0.29904 0.0
H483 H 0.67676 0.58303 0.27192 0.0
H484 H 0.69578 0.59442 0.17976 0.0
H485 H 0.69882 0.59919 0.21308 0.0
C486 C 0.05425 0.66475 0.68571 0.0
C487 C 0.0721 0.67437 0.67651 0.0
C488 C 0.05325 0.66635 0.70497 0.0
C489 C 0.08419 0.67649 0.74592 0.0
H490 H 0.04373 0.67942 0.77259 0.0
C491 C 0.08905 0.68667 0.82429 0.0
C492 C 0.07242 0.67481 0.83467 0.0
C493 C 0.08798 0.68825 0.80514 0.0
C494 C 0.05504 0.67846 0.76531 0.0
H495 H 0.10269 0.69426 0.68017 0.0
H496 H 0.10089 0.69727 0.71348 0.0
H497 H 0.04364 0.67929 0.73861 0.0
H498 H 0.04143 0.65606 0.83316 0.0
H499 H 0.03961 0.6586 0.79952 0.0
H500 H 0.09552 0.67539 0.77234 0.0
C501 C 0.08772 0.68808 0.70596 0.0
C502 C 0.05499 0.67839 0.74587 0.0
C503 C 0.08873 0.68643 0.68682 0.0
C504 C 0.05451 0.66531 0.82555 0.0
C505 C 0.05346 0.66681 0.80628 0.0
C506 C 0.08424 0.67655 0.76522 0.0
C507 C 0.07008 0.67762 0.71536 0.0
C508 C 0.06969 0.67758 0.73597 0.0
C509 C 0.07028 0.67788 0.79581 0.0
C510 C 0.0698 0.67771 0.77519 0.0
H511 H 0.04117 0.65535 0.67816 0.0
H512 H 0.03944 0.65807 0.7118 0.0
H513 H 0.09544 0.6753 0.73877 0.0
H514 H 0.10304 0.6944 0.83089 0.0
H515 H 0.10115 0.6973 0.79757 0.0
C516 C 0.95249 0.61432 0.18565 0.0
C517 C 0.93461 0.60587 0.17649 0.0
C518 C 0.95349 0.61691 0.20492 0.0
C519 C 0.92263 0.5958 0.24589 0.0
H520 H 0.96298 0.63927 0.27259 0.0
C521 C 0.91786 0.60089 0.32428 0.0
C522 C 0.9345 0.60562 0.33462 0.0
C523 C 0.9189 0.60363 0.30515 0.0
C524 C 0.9517 0.62698 0.2653 0.0
H525 H 0.90397 0.59484 0.18018 0.0
H526 H 0.90577 0.59967 0.21349 0.0
H527 H 0.963 0.63932 0.23862 0.0
H528 H 0.96549 0.61791 0.33306 0.0
H529 H 0.96727 0.62246 0.29943 0.0
H530 H 0.91141 0.58329 0.2723 0.0
C531 C 0.91896 0.6038 0.20596 0.0
C532 C 0.95171 0.62702 0.24587 0.0
C533 C 0.91795 0.60112 0.18682 0.0
C534 C 0.9524 0.61411 0.32548 0.0
C535 C 0.95342 0.61676 0.30622 0.0
C536 C 0.92262 0.59577 0.26519 0.0
C537 C 0.93663 0.61115 0.21534 0.0
C538 C 0.93705 0.61147 0.23595 0.0
C539 C 0.93658 0.61102 0.29579 0.0
C540 C 0.93703 0.6114 0.27517 0.0
H541 H 0.96559 0.61813 0.17809 0.0
H542 H 0.96732 0.62258 0.21172 0.0
H543 H 0.91143 0.58334 0.23873 0.0
H544 H 0.90387 0.59458 0.3309 0.0
H545 H 0.90571 0.59951 0.2976 0.0
C546 C 0.34044 0.95282 0.82555 0.0
C547 C 0.33046 0.935 0.83476 0.0
C548 C 0.33866 0.95389 0.80632 0.0
C549 C 0.32709 0.92262 0.76544 0.0
H550 H 0.32634 0.96422 0.73874 0.0
C551 C 0.31786 0.9184 0.68699 0.0
C552 C 0.33041 0.93489 0.67676 0.0
C553 C 0.316 0.9195 0.7061 0.0
C554 C 0.32666 0.95257 0.74602 0.0
H555 H 0.30965 0.90464 0.83124 0.0
H556 H 0.30626 0.90657 0.798 0.0
H557 H 0.32636 0.96427 0.77272 0.0
H558 H 0.35008 0.96569 0.67845 0.0
H559 H 0.34708 0.96755 0.71202 0.0
H560 H 0.3277 0.91101 0.73904 0.0
C561 C 0.31591 0.91963 0.80545 0.0
C562 C 0.32667 0.9526 0.76546 0.0
C563 C 0.31778 0.91854 0.82455 0.0
C564 C 0.3403 0.95273 0.68595 0.0
C565 C 0.33854 0.9538 0.70518 0.0
C566 C 0.32709 0.92259 0.74614 0.0
C567 C 0.32679 0.93717 0.79599 0.0
C568 C 0.32674 0.93751 0.77538 0.0
C569 C 0.32679 0.93707 0.71553 0.0
C570 C 0.32673 0.93746 0.73615 0.0
H571 H 0.35033 0.96576 0.83303 0.0
H572 H 0.34727 0.96761 0.79945 0.0
H573 H 0.3277 0.91105 0.77259 0.0
H574 H 0.3098 0.90448 0.68032 0.0
H575 H 0.30644 0.90642 0.71357 0.0
C576 C 0.40398 0.31731 0.32491 0.0
C577 C 0.39912 0.32921 0.33511 0.0
C578 C 0.40135 0.31552 0.30577 0.0
C579 C 0.37808 0.32464 0.26564 0.0
H580 H 0.42191 0.32807 0.23941 0.0
C581 C 0.39102 0.33777 0.18599 0.0
C582 C 0.39961 0.3284 0.17695 0.0
C583 C 0.38835 0.33623 0.20525 0.0
C584 C 0.4094 0.3268 0.24647 0.0
H585 H 0.38673 0.34779 0.33327 0.0
H586 H 0.38237 0.34487 0.29963 0.0
H587 H 0.42182 0.32827 0.27298 0.0
H588 H 0.41081 0.30897 0.18087 0.0
H589 H 0.40584 0.30603 0.21417 0.0
H590 H 0.36583 0.32341 0.23885 0.0
C591 C 0.38808 0.33681 0.30654 0.0
C592 C 0.40935 0.32691 0.26577 0.0
C593 C 0.39062 0.33851 0.32581 0.0
C594 C 0.40442 0.31661 0.1874 0.0
C595 C 0.40166 0.315 0.20654 0.0
C596 C 0.37813 0.32452 0.2462 0.0
C597 C 0.39394 0.32571 0.29625 0.0
C598 C 0.39365 0.32567 0.27563 0.0
C599 C 0.39416 0.32526 0.21579 0.0
C600 C 0.39375 0.32543 0.2364 0.0
H601 H 0.4103 0.3097 0.33165 0.0
H602 H 0.40555 0.30646 0.29834 0.0
H603 H 0.36574 0.32362 0.27283 0.0
H604 H 0.38716 0.34697 0.17833 0.0
H605 H 0.38258 0.34435 0.21195 0.0
C606 C 0.05491 0.39023 0.68575 0.0
C607 C 0.07283 0.3985 0.67666 0.0
C608 C 0.05379 0.38766 0.70502 0.0
C609 C 0.08448 0.4085 0.74616 0.0
H610 H 0.04376 0.36518 0.77268 0.0
C611 C 0.08875 0.40316 0.82461 0.0
C612 C 0.07206 0.3984 0.83489 0.0
C613 C 0.08781 0.40054 0.80546 0.0
C614 C 0.05514 0.37743 0.76544 0.0
H615 H 0.10339 0.40924 0.68052 0.0
H616 H 0.10139 0.40445 0.71385 0.0
H617 H 0.04391 0.36519 0.73871 0.0
H618 H 0.04109 0.38622 0.83317 0.0
H619 H 0.03949 0.38189 0.79952 0.0
H620 H 0.09563 0.42093 0.77262 0.0
C621 C 0.08826 0.40044 0.70624 0.0
C622 C 0.05523 0.37744 0.746 0.0
C623 C 0.08939 0.40309 0.68709 0.0
C624 C 0.05422 0.39003 0.82565 0.0
C625 C 0.0533 0.38751 0.80637 0.0
C626 C 0.08439 0.4085 0.76546 0.0
C627 C 0.07056 0.39326 0.71553 0.0
C628 C 0.07003 0.39292 0.73615 0.0
C629 C 0.07019 0.39325 0.79601 0.0
C630 C 0.06984 0.39292 0.77538 0.0
H631 H 0.04188 0.38654 0.67812 0.0
H632 H 0.03994 0.38213 0.71176 0.0
H633 H 0.0958 0.42092 0.73905 0.0
H634 H 0.10269 0.40938 0.83131 0.0
H635 H 0.10103 0.40465 0.79799 0.0
C636 C 0.69159 0.08873 0.32395 0.0
C637 C 0.67901 0.07222 0.33415 0.0
C638 C 0.69347 0.08768 0.30484 0.0
C639 C 0.68269 0.05463 0.26483 0.0
H640 H 0.68188 0.09629 0.23832 0.0
C641 C 0.66862 0.05429 0.18538 0.0
C642 C 0.67863 0.07206 0.17609 0.0
C643 C 0.67049 0.05328 0.20461 0.0
C644 C 0.68243 0.08469 0.24546 0.0
H645 H 0.65929 0.04143 0.33237 0.0
H646 H 0.66234 0.03965 0.29881 0.0
H647 H 0.68196 0.09634 0.27188 0.0
H648 H 0.69953 0.10241 0.1795 0.0
H649 H 0.70304 0.10058 0.21274 0.0
H650 H 0.68283 0.04288 0.23813 0.0
C651 C 0.67089 0.05339 0.30568 0.0
C652 C 0.68248 0.08472 0.26476 0.0
C653 C 0.66911 0.05441 0.32491 0.0
C654 C 0.69139 0.08854 0.18624 0.0
C655 C 0.69333 0.08751 0.20534 0.0
C656 C 0.68263 0.05459 0.24539 0.0
C657 C 0.68267 0.07014 0.29536 0.0
C658 C 0.68275 0.06979 0.27473 0.0
C659 C 0.68245 0.07002 0.21487 0.0
C660 C 0.68263 0.06972 0.23549 0.0
H661 H 0.69964 0.10263 0.33066 0.0
H662 H 0.70306 0.10077 0.29741 0.0
H663 H 0.68295 0.04294 0.27209 0.0
H664 H 0.65867 0.04132 0.17797 0.0
H665 H 0.66187 0.03958 0.21153 0.0
C666 C 0.6159 0.66509 0.68574 0.0
C667 C 0.60809 0.675 0.67635 0.0
C668 C 0.61867 0.66699 0.70498 0.0
C669 C 0.59888 0.67882 0.74563 0.0
H670 H 0.64139 0.68007 0.77251 0.0
C671 C 0.60399 0.68883 0.82402 0.0
C672 C 0.60806 0.67646 0.8344 0.0
C673 C 0.60689 0.6905 0.8049 0.0
C674 C 0.62937 0.6796 0.76518 0.0
H675 H 0.59843 0.69575 0.6796 0.0
H676 H 0.60357 0.69931 0.71285 0.0
H677 H 0.64136 0.67968 0.73854 0.0
H678 H 0.61936 0.65692 0.83295 0.0
H679 H 0.62414 0.65961 0.79938 0.0
H680 H 0.58667 0.67843 0.77199 0.0
C681 C 0.60705 0.68965 0.70552 0.0
C682 C 0.62936 0.67938 0.74574 0.0
C683 C 0.6042 0.68768 0.68641 0.0
C684 C 0.61608 0.66658 0.82534 0.0
C685 C 0.61887 0.66815 0.8061 0.0
C686 C 0.59889 0.67903 0.76493 0.0
C687 C 0.61374 0.67888 0.71514 0.0
C688 C 0.61415 0.67913 0.73576 0.0
C689 C 0.61376 0.67972 0.7956 0.0
C690 C 0.61417 0.67957 0.77498 0.0
H691 H 0.61906 0.65521 0.67839 0.0
H692 H 0.6238 0.65846 0.71197 0.0
H693 H 0.58667 0.67808 0.73843 0.0
H694 H 0.59805 0.69687 0.83058 0.0
H695 H 0.60328 0.69993 0.79731 0.0
C696 C 0.44529 0.16355 0.1159 0.0
C697 C 0.43041 0.14551 0.10992 0.0
C698 C 0.44495 0.18036 0.11169 0.0
C699 C 0.41174 0.19794 0.10148 0.0
H700 H 0.45907 0.24542 0.09064 0.0
C701 C 0.41517 0.27206 0.09791 0.0
C702 C 0.43038 0.28664 0.10819 0.0
C703 C 0.41478 0.25469 0.09417 0.0
C704 C 0.44572 0.23229 0.09367 0.0
H705 H 0.40364 0.13101 0.09449 0.0
H706 H 0.40298 0.16057 0.08719 0.0
H707 H 0.45906 0.215 0.09111 0.0
H708 H 0.45739 0.29467 0.12205 0.0
H709 H 0.45671 0.26462 0.11558 0.0
H710 H 0.39857 0.21537 0.10468 0.0
C711 C 0.4149 0.1616 0.09518 0.0
C712 C 0.44572 0.21486 0.09393 0.0
C713 C 0.41534 0.1447 0.09927 0.0
C714 C 0.44545 0.28375 0.11411 0.0
C715 C 0.44513 0.26653 0.11027 0.0
C716 C 0.41175 0.21542 0.10125 0.0
C717 C 0.42967 0.17961 0.10146 0.0
C718 C 0.42888 0.19756 0.09838 0.0
C719 C 0.42969 0.25168 0.10046 0.0
C720 C 0.42889 0.23286 0.09788 0.0
H721 H 0.45713 0.1647 0.12413 0.0
H722 H 0.45641 0.19394 0.11699 0.0
H723 H 0.39856 0.18488 0.10508 0.0
H724 H 0.40334 0.27386 0.09318 0.0
H725 H 0.40275 0.24356 0.08648 0.0
C726 C 0.16347 0.44311 0.61362 0.0
C727 C 0.14546 0.42804 0.60781 0.0
C728 C 0.18033 0.44275 0.60968 0.0
C729 C 0.19804 0.40939 0.60056 0.0
H730 H 0.24557 0.45664 0.58962 0.0
C731 C 0.27233 0.41302 0.59783 0.0
C732 C 0.28679 0.42829 0.60815 0.0
C733 C 0.25493 0.41253 0.5939 0.0
C734 C 0.23242 0.44331 0.59267 0.0
H735 H 0.13105 0.40093 0.59293 0.0
H736 H 0.16069 0.40025 0.58607 0.0
H737 H 0.21512 0.45657 0.58954 0.0
H738 H 0.29458 0.45528 0.62192 0.0
H739 H 0.26451 0.45444 0.6151 0.0
H740 H 0.21549 0.3963 0.60426 0.0
C741 C 0.16167 0.41232 0.59374 0.0
C742 C 0.21497 0.44328 0.59263 0.0
C743 C 0.14473 0.41276 0.59757 0.0
C744 C 0.28375 0.4433 0.61395 0.0
C745 C 0.26653 0.44289 0.60991 0.0
C746 C 0.21554 0.40943 0.6006 0.0
C747 C 0.17965 0.42726 0.59988 0.0
C748 C 0.19765 0.42647 0.59712 0.0
C749 C 0.2518 0.42741 0.60004 0.0
C750 C 0.23299 0.42654 0.5972 0.0
H751 H 0.16458 0.45511 0.62153 0.0
H752 H 0.19387 0.45435 0.61487 0.0
H753 H 0.18497 0.39624 0.6042 0.0
H754 H 0.27423 0.40123 0.5932 0.0
H755 H 0.2439 0.40046 0.58618 0.0
C756 C 0.86195 0.27183 0.09682 0.0
C757 C 0.86108 0.28631 0.10704 0.0
C758 C 0.84508 0.25445 0.09283 0.0
C759 C 0.79173 0.23182 0.09144 0.0
H760 H 0.79151 0.1845 0.10314 0.0
C761 C 0.72327 0.16287 0.11296 0.0
C762 C 0.72031 0.14486 0.10717 0.0
C763 C 0.74041 0.17974 0.10884 0.0
C764 C 0.79139 0.19753 0.09945 0.0
H765 H 0.84178 0.29415 0.12053 0.0
H766 H 0.81259 0.26408 0.11361 0.0
H767 H 0.82193 0.21507 0.10312 0.0
H768 H 0.73292 0.13045 0.09214 0.0
H769 H 0.76313 0.16011 0.08499 0.0
H770 H 0.76115 0.21443 0.08839 0.0
C771 C 0.8262 0.26608 0.10854 0.0
C772 C 0.80882 0.21506 0.09944 0.0
C773 C 0.84299 0.28331 0.11263 0.0
C774 C 0.73477 0.14413 0.09676 0.0
C775 C 0.75208 0.16108 0.09276 0.0
C776 C 0.77434 0.21435 0.09146 0.0
C777 C 0.82702 0.25132 0.09881 0.0
C778 C 0.8091 0.23247 0.09598 0.0
C779 C 0.75513 0.17907 0.0989 0.0
C780 C 0.77388 0.19707 0.09602 0.0
H781 H 0.87569 0.27371 0.09234 0.0
H782 H 0.84617 0.24339 0.0852 0.0
H783 H 0.7915 0.24493 0.08833 0.0
H784 H 0.71244 0.16396 0.121 0.0
H785 H 0.74237 0.19329 0.11403 0.0
C786 C 0.56144 0.71983 0.61697 0.0
C787 C 0.57653 0.71749 0.61008 0.0
C788 C 0.56178 0.73729 0.6149 0.0
C789 C 0.58384 0.78365 0.58982 0.0
H790 H 0.56961 0.8005 0.63444 0.0
C791 C 0.59116 0.85966 0.60009 0.0
C792 C 0.57603 0.85981 0.60982 0.0
C793 C 0.59163 0.84248 0.59807 0.0
C794 C 0.57343 0.79594 0.62178 0.0
H795 H 0.60343 0.7314 0.59482 0.0
H796 H 0.60411 0.76219 0.5913 0.0
H797 H 0.56976 0.77029 0.63453 0.0
H798 H 0.54894 0.84185 0.62402 0.0
H799 H 0.54964 0.81211 0.62031 0.0
H800 H 0.58752 0.80956 0.57715 0.0
C801 C 0.59196 0.75038 0.59825 0.0
C802 C 0.57352 0.7786 0.62183 0.0
C803 C 0.59159 0.73278 0.60029 0.0
C804 C 0.56094 0.84232 0.61665 0.0
C805 C 0.56139 0.82526 0.61461 0.0
C806 C 0.58376 0.80113 0.58977 0.0
C807 C 0.57728 0.75295 0.60597 0.0
C808 C 0.57837 0.77204 0.60579 0.0
C809 C 0.57697 0.82519 0.60577 0.0
C810 C 0.57821 0.80727 0.60569 0.0
H811 H 0.54949 0.70829 0.62438 0.0
H812 H 0.55001 0.73863 0.62061 0.0
H813 H 0.58766 0.77898 0.57724 0.0
H814 H 0.603 0.87292 0.59467 0.0
H815 H 0.60383 0.84288 0.59119 0.0
C816 C 0.72059 0.55905 0.11552 0.0
C817 C 0.71847 0.57445 0.10915 0.0
C818 C 0.73804 0.55937 0.11345 0.0
C819 C 0.78496 0.58225 0.08926 0.0
H820 H 0.80086 0.56655 0.13356 0.0
C821 C 0.86091 0.5897 0.10022 0.0
C822 C 0.86101 0.57439 0.10964 0.0
C823 C 0.84368 0.59006 0.09808 0.0
C824 C 0.79657 0.57078 0.12098 0.0
H825 H 0.73275 0.60186 0.09477 0.0
H826 H 0.76351 0.60249 0.09126 0.0
H827 H 0.77059 0.56656 0.13344 0.0
H828 H 0.84296 0.54689 0.12313 0.0
H829 H 0.81314 0.54739 0.11917 0.0
H830 H 0.8112 0.58649 0.0769 0.0
C831 C 0.75155 0.59013 0.09779 0.0
C832 C 0.77919 0.57078 0.12092 0.0
C833 C 0.73396 0.58979 0.09983 0.0
C834 C 0.84346 0.55904 0.11602 0.0
C835 C 0.82635 0.55937 0.11384 0.0
C836 C 0.80247 0.58225 0.08933 0.0
C837 C 0.7539 0.57514 0.10505 0.0
C838 C 0.77298 0.57619 0.10499 0.0
C839 C 0.8263 0.57511 0.10533 0.0
C840 C 0.80829 0.57618 0.10513 0.0
H841 H 0.70889 0.54689 0.12255 0.0
H842 H 0.73921 0.54736 0.11878 0.0
H843 H 0.78056 0.58651 0.07678 0.0
H844 H 0.87422 0.60174 0.09515 0.0
H845 H 0.84411 0.6024 0.09147 0.0
C846 C 0.27322 0.86039 0.60094 0.0
C847 C 0.28847 0.86058 0.61078 0.0
C848 C 0.25558 0.84318 0.5989 0.0
C849 C 0.2272 0.79655 0.62253 0.0
H850 H 0.19628 0.77965 0.57781 0.0
C851 C 0.16346 0.72026 0.61717 0.0
C852 C 0.14599 0.71784 0.61028 0.0
C853 C 0.18051 0.7378 0.61523 0.0
C854 C 0.20469 0.7843 0.59044 0.0
H855 H 0.29757 0.8427 0.62515 0.0
H856 H 0.26717 0.81291 0.62138 0.0
H857 H 0.22692 0.81031 0.57791 0.0
H858 H 0.13289 0.73172 0.59514 0.0
H859 H 0.16291 0.76265 0.59183 0.0
H860 H 0.20523 0.77078 0.63512 0.0
C861 C 0.26856 0.82604 0.61563 0.0
C862 C 0.22221 0.80183 0.5905 0.0
C863 C 0.28605 0.84313 0.6177 0.0
C864 C 0.14613 0.73315 0.60061 0.0
C865 C 0.16331 0.75084 0.59868 0.0
C866 C 0.20982 0.77916 0.62247 0.0
C867 C 0.25294 0.82592 0.60667 0.0
C868 C 0.23381 0.80795 0.60648 0.0
C869 C 0.18059 0.75347 0.60642 0.0
C870 C 0.19851 0.77262 0.60636 0.0
H871 H 0.27465 0.87362 0.59544 0.0
H872 H 0.24381 0.84355 0.59192 0.0
H873 H 0.2355 0.80109 0.63523 0.0
H874 H 0.16393 0.7087 0.62449 0.0
H875 H 0.19365 0.7392 0.62095 0.0
C876 C 0.86056 0.58918 0.41061 0.0
C877 C 0.86073 0.57389 0.4012 0.0
C878 C 0.84331 0.58951 0.41266 0.0
C879 C 0.79629 0.57021 0.38956 0.0
H880 H 0.78008 0.58586 0.43367 0.0
C881 C 0.7203 0.55855 0.39466 0.0
C882 C 0.71816 0.57392 0.40106 0.0
C883 C 0.73773 0.55884 0.39679 0.0
C884 C 0.78453 0.58163 0.42121 0.0
H885 H 0.84277 0.54641 0.38765 0.0
H886 H 0.8129 0.54686 0.39146 0.0
H887 H 0.81072 0.58586 0.4337 0.0
H888 H 0.73239 0.60128 0.41555 0.0
H889 H 0.76313 0.60186 0.41916 0.0
H890 H 0.77037 0.56601 0.37698 0.0
C891 C 0.82608 0.55883 0.39685 0.0
C892 C 0.80205 0.58163 0.42123 0.0
C893 C 0.84322 0.55853 0.39475 0.0
C894 C 0.73361 0.58922 0.41047 0.0
C895 C 0.75119 0.58954 0.41256 0.0
C896 C 0.77891 0.57021 0.38954 0.0
C897 C 0.82597 0.57455 0.40534 0.0
C898 C 0.80794 0.57559 0.40547 0.0
C899 C 0.75356 0.57457 0.40528 0.0
C900 C 0.77263 0.5756 0.40544 0.0
H901 H 0.87384 0.60122 0.41573 0.0
H902 H 0.84369 0.60183 0.41927 0.0
H903 H 0.80064 0.56601 0.377 0.0
H904 H 0.70862 0.54642 0.38757 0.0
H905 H 0.73892 0.54685 0.39144 0.0
C906 C 0.16366 0.71975 0.89416 0.0
C907 C 0.1462 0.71738 0.90102 0.0
C908 C 0.18074 0.73727 0.89612 0.0
C909 C 0.20496 0.78381 0.92086 0.0
H910 H 0.23571 0.80058 0.87604 0.0
C911 C 0.27332 0.85998 0.91033 0.0
C912 C 0.28857 0.86026 0.90042 0.0
C913 C 0.25573 0.84273 0.91238 0.0
C914 C 0.22743 0.79605 0.88875 0.0
H915 H 0.13314 0.73132 0.91612 0.0
H916 H 0.1632 0.76221 0.91946 0.0
H917 H 0.20549 0.77023 0.8762 0.0
H918 H 0.29772 0.84248 0.88592 0.0
H919 H 0.26741 0.81262 0.88972 0.0
H920 H 0.22716 0.80986 0.93335 0.0
C921 C 0.16358 0.75037 0.91262 0.0
C922 C 0.21008 0.77863 0.88884 0.0
C923 C 0.14638 0.73271 0.91068 0.0
C924 C 0.2862 0.84285 0.89343 0.0
C925 C 0.26876 0.82571 0.89551 0.0
C926 C 0.22246 0.80136 0.92078 0.0
C927 C 0.18084 0.75297 0.90491 0.0
C928 C 0.19878 0.7721 0.90495 0.0
C929 C 0.25313 0.8255 0.90455 0.0
C930 C 0.23404 0.80749 0.90478 0.0
H931 H 0.1641 0.70818 0.88684 0.0
H932 H 0.19386 0.73864 0.89041 0.0
H933 H 0.19656 0.77917 0.93349 0.0
H934 H 0.27472 0.87317 0.91588 0.0
H935 H 0.24395 0.84303 0.91942 0.0
C936 C 0.41651 0.14526 0.4088 0.0
C937 C 0.43149 0.14517 0.39873 0.0
C938 C 0.41608 0.16243 0.41111 0.0
C939 C 0.43429 0.2094 0.38808 0.0
H940 H 0.42002 0.22548 0.43317 0.0
C941 C 0.44627 0.28539 0.3946 0.0
C942 C 0.43101 0.28748 0.40143 0.0
C943 C 0.446 0.26794 0.39637 0.0
C944 C 0.42387 0.22106 0.42045 0.0
H945 H 0.45834 0.16319 0.38421 0.0
H946 H 0.45776 0.19293 0.38848 0.0
H947 H 0.42015 0.1949 0.43253 0.0
H948 H 0.4039 0.27315 0.41633 0.0
H949 H 0.40338 0.24238 0.41936 0.0
H950 H 0.43804 0.23534 0.37593 0.0
C951 C 0.44606 0.17975 0.39419 0.0
C952 C 0.42393 0.20357 0.42008 0.0
C953 C 0.44645 0.16268 0.39183 0.0
C954 C 0.41587 0.27196 0.41092 0.0
C955 C 0.41559 0.25437 0.41267 0.0
C956 C 0.43425 0.22676 0.38846 0.0
C957 C 0.43063 0.17978 0.4034 0.0
C958 C 0.42948 0.19774 0.40394 0.0
C959 C 0.43042 0.25205 0.40495 0.0
C960 C 0.42937 0.23299 0.4047 0.0
H961 H 0.40477 0.13198 0.41428 0.0
H962 H 0.40399 0.16198 0.41827 0.0
H963 H 0.4381 0.2051 0.37526 0.0
H964 H 0.45828 0.29711 0.38741 0.0
H965 H 0.45788 0.26677 0.39066 0.0
C966 C 0.28594 0.44489 0.89485 0.0
C967 C 0.28823 0.4297 0.90155 0.0
C968 C 0.26847 0.44453 0.89693 0.0
C969 C 0.22186 0.42203 0.92165 0.0
H970 H 0.20535 0.43684 0.87717 0.0
C971 C 0.14576 0.4144 0.91112 0.0
C972 C 0.14559 0.42961 0.90157 0.0
C973 C 0.16299 0.41402 0.91315 0.0
C974 C 0.20981 0.43286 0.88979 0.0
H975 H 0.27421 0.4026 0.91649 0.0
H976 H 0.2434 0.4019 0.92 0.0
H977 H 0.23564 0.43686 0.87717 0.0
H978 H 0.16352 0.45691 0.88771 0.0
H979 H 0.19335 0.45637 0.89145 0.0
H980 H 0.19576 0.418 0.93418 0.0
C981 C 0.25526 0.41414 0.91321 0.0
C982 C 0.22721 0.43287 0.88979 0.0
C983 C 0.27288 0.41452 0.91117 0.0
C984 C 0.16308 0.44485 0.89493 0.0
C985 C 0.18019 0.44449 0.89699 0.0
C986 C 0.20433 0.42201 0.92165 0.0
C987 C 0.25274 0.42891 0.90565 0.0
C988 C 0.23364 0.4278 0.90579 0.0
C989 C 0.1803 0.42885 0.90565 0.0
C990 C 0.1983 0.42776 0.90578 0.0
H991 H 0.29754 0.45693 0.88757 0.0
H992 H 0.26718 0.45638 0.89135 0.0
H993 H 0.22643 0.41804 0.93419 0.0
H994 H 0.1325 0.40245 0.9164 0.0
H995 H 0.16262 0.40177 0.91989 0.0
C996 C 0.73423 0.14389 0.41386 0.0
C997 C 0.71983 0.14468 0.40342 0.0
C998 C 0.75152 0.16082 0.41798 0.0
C999 C 0.7738 0.21409 0.41955 0.0
H1000 H 0.82143 0.2148 0.40811 0.0
C1001 C 0.8427 0.28315 0.39905 0.0
C1002 C 0.86074 0.28604 0.4047 0.0
C1003 C 0.82586 0.26591 0.40299 0.0
C1004 C 0.80831 0.21479 0.41174 0.0
H1005 H 0.712 0.16386 0.38967 0.0
H1006 H 0.7419 0.19316 0.39685 0.0
H1007 H 0.79099 0.18426 0.40783 0.0
H1008 H 0.8752 0.27325 0.41935 0.0
H1009 H 0.84558 0.24293 0.42624 0.0
H1010 H 0.79098 0.24464 0.4229 0.0
C1011 C 0.73992 0.17958 0.40196 0.0
C1012 C 0.79086 0.19728 0.41157 0.0
C1013 C 0.7228 0.16273 0.39773 0.0
C1014 C 0.86151 0.27146 0.41483 0.0
C1015 C 0.84458 0.25407 0.41868 0.0
C1016 C 0.79121 0.23155 0.41974 0.0
C1017 C 0.7546 0.17884 0.41193 0.0
C1018 C 0.77335 0.19682 0.41493 0.0
C1019 C 0.82657 0.25105 0.41263 0.0
C1020 C 0.8086 0.2322 0.41528 0.0
H1021 H 0.73238 0.13019 0.41841 0.0
H1022 H 0.76253 0.15981 0.42577 0.0
H1023 H 0.7606 0.21417 0.42257 0.0
H1024 H 0.84158 0.29407 0.39122 0.0
H1025 H 0.8123 0.264 0.39788 0.0
C1026 C 0.56162 0.72103 0.89702 0.0
C1027 C 0.57662 0.71805 0.903 0.0
C1028 C 0.5619 0.73819 0.90104 0.0
C1029 C 0.5951 0.78917 0.91075 0.0
H1030 H 0.54772 0.78937 0.92112 0.0
C1031 C 0.59163 0.85987 0.9137 0.0
C1032 C 0.57651 0.85922 0.90326 0.0
C1033 C 0.59201 0.84291 0.91757 0.0
C1034 C 0.56108 0.78957 0.91823 0.0
H1035 H 0.60349 0.73063 0.91828 0.0
H1036 H 0.60401 0.76084 0.92527 0.0
H1037 H 0.54775 0.75896 0.92104 0.0
H1038 H 0.54962 0.84019 0.88922 0.0
H1039 H 0.55026 0.81085 0.89594 0.0
H1040 H 0.60828 0.81976 0.90734 0.0
C1041 C 0.59207 0.74982 0.91741 0.0
C1042 C 0.5611 0.77215 0.91818 0.0
C1043 C 0.59171 0.73249 0.9135 0.0
C1044 C 0.5615 0.84124 0.8973 0.0
C1045 C 0.56179 0.82435 0.90127 0.0
C1046 C 0.59509 0.80664 0.91079 0.0
C1047 C 0.57722 0.7529 0.91108 0.0
C1048 C 0.57797 0.77167 0.91391 0.0
C1049 C 0.57715 0.82497 0.91124 0.0
C1050 C 0.57793 0.80696 0.91399 0.0
H1051 H 0.54977 0.71022 0.88891 0.0
H1052 H 0.55037 0.74018 0.8957 0.0
H1053 H 0.60831 0.78929 0.90727 0.0
H1054 H 0.60342 0.87352 0.91846 0.0
H1055 H 0.60398 0.84384 0.92539 0.0
C1056 C 0.33502 0.95583 0.95004 0.0
C1057 C 0.34485 0.96789 0.93498 0.0
C1058 C 0.33581 0.96366 0.96757 0.0
C1059 C 0.34843 0.00879 0.99283 0.0
H1060 H 0.36347 0.9859 0.03197 0.0
C1061 C 0.38328 0.04842 0.06144 0.0
C1062 C 0.38038 0.03743 0.07753 0.0
C1063 C 0.3756 0.03937 0.04446 0.0
C1064 C 0.35887 0.99229 0.02138 0.0
H1065 H 0.36227 0.99767 0.92628 0.0
H1066 H 0.36352 0.01129 0.95679 0.0
H1067 H 0.35543 0.97094 1.00159 0.0
H1068 H 0.36607 0.00843 0.08868 0.0
H1069 H 0.35212 0.99271 0.05932 0.0
H1070 H 0.35202 0.03026 0.01261 0.0
C1071 C 0.35522 0.99579 0.95508 0.0
C1072 C 0.35429 0.98369 1.0039 0.0
C1073 C 0.35457 0.98797 0.9376 0.0
C1074 C 0.36875 0.0173 0.07649 0.0
C1075 C 0.36087 0.00827 0.05959 0.0
C1076 C 0.35285 0.01733 0.01041 0.0
C1077 C 0.34628 0.98372 0.97037 0.0
C1078 C 0.34928 0.99197 0.98934 0.0
C1079 C 0.36467 0.01913 0.04323 0.0
C1080 C 0.3584 0.00934 0.02487 0.0
H1081 H 0.32739 0.94031 0.94849 0.0
H1082 H 0.32859 0.95399 0.97905 0.0
H1083 H 0.34445 0.01541 0.98192 0.0
H1084 H 0.39226 0.06396 0.06178 0.0
H1085 H 0.37901 0.04824 0.03218 0.0
C1086 C 0.3652 0.35169 0.43532 0.0
C1087 C 0.37714 0.34354 0.4343 0.0
C1088 C 0.35731 0.35279 0.45223 0.0
C1089 C 0.35004 0.33631 0.5016 0.0
H1090 H 0.35214 0.38511 0.51005 0.0
C1091 C 0.35255 0.36815 0.57419 0.0
C1092 C 0.34276 0.37843 0.57686 0.0
C1093 C 0.35298 0.36079 0.55675 0.0
C1094 C 0.35112 0.37126 0.50786 0.0
H1095 H 0.38952 0.3294 0.45012 0.0
H1096 H 0.37625 0.33178 0.47972 0.0
H1097 H 0.35984 0.37793 0.47964 0.0
H1098 H 0.32494 0.38821 0.56349 0.0
H1099 H 0.32576 0.37539 0.533 0.0
H1100 H 0.3421 0.33014 0.53022 0.0
C1101 C 0.37261 0.33701 0.46742 0.0
C1102 C 0.35551 0.36709 0.49035 0.0
C1103 C 0.3803 0.3357 0.45043 0.0
C1104 C 0.33264 0.38039 0.5619 0.0
C1105 C 0.33321 0.37316 0.54441 0.0
C1106 C 0.3458 0.34058 0.5192 0.0
C1107 C 0.3614 0.34603 0.46863 0.0
C1108 C 0.35523 0.34965 0.48699 0.0
C1109 C 0.34375 0.36365 0.54154 0.0
C1110 C 0.34649 0.3582 0.52256 0.0
H1111 H 0.36232 0.3577 0.4231 0.0
H1112 H 0.34835 0.35937 0.45249 0.0
H1113 H 0.34937 0.32261 0.4995 0.0
H1114 H 0.36046 0.36635 0.58543 0.0
H1115 H 0.36134 0.35366 0.55499 0.0
C1116 C 0.04681 0.37906 0.95021 0.0
C1117 C 0.03581 0.37613 0.93412 0.0
C1118 C 0.03778 0.37128 0.96717 0.0
C1119 C 0.99069 0.35437 0.99023 0.0
H1120 H 0.01395 0.34018 0.02975 0.0
C1121 C 0.95441 0.331 0.06168 0.0
C1122 C 0.96652 0.34083 0.07672 0.0
C1123 C 0.96219 0.33166 0.04416 0.0
C1124 C 0.00729 0.3441 0.01883 0.0
H1125 H 0.00682 0.36165 0.92294 0.0
H1126 H 0.99114 0.34753 0.95228 0.0
H1127 H 0.02875 0.34768 0.99903 0.0
H1128 H 0.99634 0.3581 0.08537 0.0
H1129 H 0.00986 0.35915 0.05486 0.0
H1130 H 0.96937 0.35099 0.01004 0.0
C1131 C 0.00669 0.35637 0.95202 0.0
C1132 C 0.0158 0.34847 1.00124 0.0
C1133 C 0.0157 0.36434 0.93513 0.0
C1134 C 0.98659 0.35041 0.07407 0.0
C1135 C 0.99437 0.35094 0.05659 0.0
C1136 C 0.98213 0.34985 0.00774 0.0
C1137 C 0.01755 0.36022 0.96839 0.0
C1138 C 0.00776 0.35394 0.98675 0.0
C1139 C 0.98225 0.34202 0.04132 0.0
C1140 C 0.99045 0.34493 0.02232 0.0
H1141 H 0.06234 0.38816 0.9499 0.0
H1142 H 0.04665 0.37473 0.97946 0.0
H1143 H 0.98426 0.35891 0.97962 0.0
H1144 H 0.93889 0.32347 0.06325 0.0
H1145 H 0.95248 0.32444 0.0327 0.0
C1146 C 0.67403 0.0509 0.44947 0.0
C1147 C 0.66426 0.03884 0.4344 0.0
C1148 C 0.6732 0.04308 0.46702 0.0
C1149 C 0.66053 0.99794 0.49231 0.0
H1150 H 0.64576 0.021 0.53151 0.0
C1151 C 0.62582 0.95851 0.56105 0.0
C1152 C 0.62885 0.96953 0.57714 0.0
C1153 C 0.63346 0.96751 0.54404 0.0
C1154 C 0.65028 0.01456 0.5209 0.0
H1155 H 0.64689 0.00905 0.4257 0.0
H1156 H 0.64555 0.99545 0.45624 0.0
H1157 H 0.65371 0.03589 0.50109 0.0
H1158 H 0.64336 0.99855 0.58824 0.0
H1159 H 0.65723 0.01418 0.55883 0.0
H1160 H 0.65693 0.97647 0.51211 0.0
C1161 C 0.65385 0.01095 0.45453 0.0
C1162 C 0.65481 0.02312 0.50339 0.0
C1163 C 0.65454 0.01876 0.43703 0.0
C1164 C 0.64059 0.98965 0.57606 0.0
C1165 C 0.64842 0.99863 0.55913 0.0
C1166 C 0.65615 0.98943 0.50991 0.0
C1167 C 0.66273 0.02303 0.46983 0.0
C1168 C 0.65974 0.01479 0.48881 0.0
C1169 C 0.64449 0.98774 0.54277 0.0
C1170 C 0.6507 0.99749 0.52439 0.0
H1171 H 0.68167 0.06643 0.44792 0.0
H1172 H 0.68039 0.05276 0.4785 0.0
H1173 H 0.66445 0.99127 0.48139 0.0
H1174 H 0.61676 0.94297 0.56141 0.0
H1175 H 0.62995 0.95861 0.53177 0.0
C1176 C 0.65403 0.63983 0.07601 0.0
C1177 C 0.66223 0.62793 0.07695 0.0
C1178 C 0.65296 0.64782 0.05915 0.0
C1179 C 0.66963 0.6555 0.00983 0.0
H1180 H 0.62076 0.65325 1.00134 0.0
C1181 C 0.638 0.65334 0.93722 0.0
C1182 C 0.62761 0.66303 0.9346 0.0
C1183 C 0.64534 0.65285 0.95466 0.0
C1184 C 0.63463 0.65431 1.00355 0.0
H1185 H 0.67649 0.61573 0.06106 0.0
H1186 H 0.67417 0.62918 0.03154 0.0
H1187 H 0.62787 0.64538 0.03171 0.0
H1188 H 0.61763 0.68062 0.94807 0.0
H1189 H 0.63041 0.67972 0.97855 0.0
H1190 H 0.6759 0.66366 0.98127 0.0
C1191 C 0.66887 0.63271 0.04386 0.0
C1192 C 0.63876 0.64982 0.02103 0.0
C1193 C 0.67016 0.62491 0.06081 0.0
C1194 C 0.62553 0.673 0.94962 0.0
C1195 C 0.63274 0.67239 0.96711 0.0
C1196 C 0.66541 0.65984 0.99226 0.0
C1197 C 0.65981 0.64387 0.04272 0.0
C1198 C 0.65623 0.65015 0.0244 0.0
C1199 C 0.64234 0.66193 0.96992 0.0
C1200 C 0.64776 0.6591 0.98888 0.0
H1201 H 0.64796 0.6426 0.08824 0.0
H1202 H 0.64634 0.65674 0.05894 0.0
H1203 H 0.68335 0.65621 0.01194 0.0
H1204 H 0.6399 0.64553 0.92594 0.0
H1205 H 0.65254 0.64456 0.95637 0.0
C1206 C 0.01586 0.65167 0.57653 0.0
C1207 C 0.03599 0.66014 0.57751 0.0
C1208 C 0.00682 0.65072 0.55969 0.0
C1209 C 0.01583 0.66813 0.5106 0.0
H1210 H 0.96973 0.61898 0.50151 0.0
C1211 C 0.9873 0.63695 0.43767 0.0
C1212 C 0.96725 0.62628 0.43489 0.0
C1213 C 0.9949 0.64427 0.45518 0.0
C1214 C 0.98238 0.63293 0.50389 0.0
H1215 H 0.06251 0.67499 0.56176 0.0
H1216 H 0.04676 0.67287 0.53227 0.0
H1217 H 0.98452 0.6259 0.53197 0.0
H1218 H 0.93948 0.6158 0.44813 0.0
H1219 H 0.95277 0.62854 0.47873 0.0
H1220 H 0.014 0.67467 0.4821 0.0
C1221 C 0.0379 0.66728 0.54454 0.0
C1222 C 0.99089 0.63694 0.52142 0.0
C1223 C 0.04696 0.66844 0.56146 0.0
C1224 C 0.95498 0.62392 0.4498 0.0
C1225 C 0.96259 0.63112 0.46736 0.0
C1226 C 0.00738 0.66402 0.49297 0.0
C1227 C 0.01766 0.65796 0.54334 0.0
C1228 C 0.00786 0.65451 0.52499 0.0
C1229 C 0.98262 0.64097 0.47034 0.0
C1230 C 0.99067 0.64628 0.48938 0.0
H1231 H 0.00701 0.64532 0.5887 0.0
H1232 H 0.99125 0.64389 0.55944 0.0
H1233 H 0.02869 0.68192 0.51287 0.0
H1234 H 0.99716 0.63907 0.42647 0.0
H1235 H 0.01038 0.65167 0.45703 0.0
C1236 C 0.62502 0.95695 0.95 0.0
C1237 C 0.62817 0.96788 0.93382 0.0
C1238 C 0.63257 0.96606 0.96699 0.0
C1239 C 0.64941 0.01332 0.98975 0.0
H1240 H 0.66312 0.99015 0.02974 0.0
C1241 C 0.67301 0.05017 0.061 0.0
C1242 C 0.66309 0.03825 0.07612 0.0
C1243 C 0.67217 0.04219 0.04354 0.0
C1244 C 0.65933 0.99679 0.01868 0.0
H1245 H 0.64279 0.99682 0.92253 0.0
H1246 H 0.65652 0.01263 0.95191 0.0
H1247 H 0.65575 0.97515 0.99911 0.0
H1248 H 0.6454 0.00856 0.08497 0.0
H1249 H 0.64407 0.99468 0.05458 0.0
H1250 H 0.65284 0.03485 0.00933 0.0
C1251 C 0.64768 0.99708 0.9517 0.0
C1252 C 0.65503 0.98816 1.00114 0.0
C1253 C 0.63993 0.988 0.93478 0.0
C1254 C 0.65318 0.01815 0.07361 0.0
C1255 C 0.65248 0.01018 0.0562 0.0
C1256 C 0.65387 0.02201 0.0072 0.0
C1257 C 0.64363 0.9863 0.96814 0.0
C1258 C 0.64975 0.99617 0.98648 0.0
C1259 C 0.66155 0.02212 0.04086 0.0
C1260 C 0.65862 0.01372 0.02195 0.0
H1261 H 0.61593 0.94142 0.94972 0.0
H1262 H 0.62896 0.95725 0.97932 0.0
H1263 H 0.64502 0.01974 0.979 0.0
H1264 H 0.68079 0.0657 0.06246 0.0
H1265 H 0.6795 0.05175 0.03203 0.0
C1266 C 0.65494 0.63714 0.43743 0.0
C1267 C 0.66428 0.62644 0.43465 0.0
C1268 C 0.6545 0.64429 0.45498 0.0
C1269 C 0.65512 0.63243 0.50365 0.0
H1270 H 0.65797 0.68145 0.51294 0.0
C1271 C 0.64024 0.65085 0.5764 0.0
C1272 C 0.6287 0.65945 0.57744 0.0
C1273 C 0.6483 0.64989 0.55954 0.0
C1274 C 0.65699 0.66765 0.51057 0.0
H1275 H 0.68133 0.61571 0.44795 0.0
H1276 H 0.6805 0.62816 0.47863 0.0
H1277 H 0.6656 0.67442 0.48216 0.0
H1278 H 0.6172 0.67449 0.56176 0.0
H1279 H 0.63077 0.67236 0.53224 0.0
H1280 H 0.64573 0.62519 0.53165 0.0
C1281 C 0.67341 0.63089 0.46722 0.0
C1282 C 0.66144 0.66367 0.49295 0.0
C1283 C 0.67399 0.62387 0.44962 0.0
C1284 C 0.62609 0.66784 0.56143 0.0
C1285 C 0.63396 0.66667 0.54449 0.0
C1286 C 0.65052 0.63633 0.52119 0.0
C1287 C 0.66326 0.64078 0.47019 0.0
C1288 C 0.66035 0.64592 0.48924 0.0
C1289 C 0.64479 0.65726 0.54323 0.0
C1290 C 0.65118 0.6539 0.52487 0.0
H1291 H 0.64735 0.63942 0.42619 0.0
H1292 H 0.64645 0.65173 0.45681 0.0
H1293 H 0.65379 0.61849 0.50118 0.0
H1294 H 0.64269 0.64442 0.58854 0.0
H1295 H 0.65695 0.64298 0.55925 0.0
C1296 C 0.9877 0.63738 0.07361 0.0
C1297 C 0.96765 0.62682 0.07635 0.0
C1298 C 0.99536 0.64482 0.05616 0.0
C1299 C 0.98285 0.63404 0.00735 0.0
H1300 H 0.0295 0.68286 0.99876 0.0
C1301 C 0.01645 0.65325 0.93481 0.0
C1302 C 0.03656 0.66144 0.93384 0.0
C1303 C 0.00744 0.65228 0.95167 0.0
C1304 C 0.01653 0.66912 1.00093 0.0
H1305 H 0.93992 0.61665 0.06311 0.0
H1306 H 0.95332 0.62961 0.03259 0.0
H1307 H 0.01475 0.67541 0.02951 0.0
H1308 H 0.06307 0.67582 0.94966 0.0
H1309 H 0.04736 0.67367 0.97918 0.0
H1310 H 0.98493 0.62726 0.97918 0.0
C1311 C 0.9631 0.632 0.04395 0.0
C1312 C 0.00805 0.6649 0.01854 0.0
C1313 C 0.95543 0.62468 0.06146 0.0
C1314 C 0.04754 0.66949 0.94994 0.0
C1315 C 0.0385 0.6683 0.96688 0.0
C1316 C 0.99138 0.63817 0.98983 0.0
C1317 C 0.98314 0.64175 0.041 0.0
C1318 C 0.99123 0.64721 0.02199 0.0
C1319 C 0.01828 0.65922 0.96806 0.0
C1320 C 0.00847 0.65568 0.9864 0.0
H1321 H 0.99752 0.63933 0.0848 0.0
H1322 H 0.01084 0.65214 0.05433 0.0
H1323 H 0.9701 0.62014 0.00961 0.0
H1324 H 0.00759 0.6471 0.9226 0.0
H1325 H 0.99189 0.64564 0.9519 0.0
C1326 C 0.35415 0.99047 0.57634 0.0
C1327 C 0.3457 0.97035 0.57744 0.0
C1328 C 0.35533 0.99943 0.5594 0.0
C1329 C 0.3385 0.9902 0.51014 0.0
H1330 H 0.38764 0.03639 0.50131 0.0
C1331 C 0.36996 0.01881 0.43732 0.0
C1332 C 0.38045 0.03886 0.43452 0.0
C1333 C 0.3627 0.01119 0.45483 0.0
C1334 C 0.3737 0.0237 0.50362 0.0
H1335 H 0.33112 0.94376 0.56176 0.0
H1336 H 0.33364 0.95937 0.53209 0.0
H1337 H 0.38049 0.02165 0.5318 0.0
H1338 H 0.39076 0.06661 0.44775 0.0
H1339 H 0.37814 0.05327 0.47838 0.0
H1340 H 0.33219 0.99196 0.48157 0.0
C1341 C 0.33904 0.96829 0.54435 0.0
C1342 C 0.36955 0.01522 0.52117 0.0
C1343 C 0.33765 0.9593 0.56138 0.0
C1344 C 0.38277 0.0511 0.44944 0.0
C1345 C 0.37564 0.04347 0.46701 0.0
C1346 C 0.34274 0.99862 0.49251 0.0
C1347 C 0.34834 0.98852 0.54306 0.0
C1348 C 0.35197 0.99824 0.52465 0.0
C1349 C 0.3659 0.02344 0.46999 0.0
C1350 C 0.36049 0.01536 0.48901 0.0
H1351 H 0.36032 0.99938 0.58851 0.0
H1352 H 0.36214 0.01499 0.55907 0.0
H1353 H 0.3247 0.97732 0.51235 0.0
H1354 H 0.36788 0.00897 0.42611 0.0
H1355 H 0.35539 0.99571 0.45668 0.0
C1356 C 0.3687 0.35082 0.07401 0.0
C1357 C 0.37921 0.34126 0.07666 0.0
C1358 C 0.36146 0.35134 0.05653 0.0
C1359 C 0.37268 0.35036 0.00771 0.0
H1360 H 0.32383 0.34807 0.99897 0.0
C1361 C 0.35362 0.36497 0.93513 0.0
C1362 C 0.34522 0.3767 0.93415 0.0
C1363 C 0.35469 0.35699 0.952 0.0
C1364 C 0.33759 0.34889 1.00118 0.0
H1365 H 0.38951 0.32392 0.06319 0.0
H1366 H 0.3769 0.32489 0.03264 0.0
H1367 H 0.3311 0.34051 0.02967 0.0
H1368 H 0.33064 0.38861 0.94996 0.0
H1369 H 0.33296 0.37517 0.97949 0.0
H1370 H 0.37964 0.35951 0.97962 0.0
C1371 C 0.37439 0.3321 0.0441 0.0
C1372 C 0.34171 0.34448 0.01877 0.0
C1373 C 0.38151 0.33144 0.06163 0.0
C1374 C 0.33713 0.37957 0.95025 0.0
C1375 C 0.33841 0.37178 0.9672 0.0
C1376 C 0.36865 0.35491 0.99021 0.0
C1377 C 0.36468 0.34244 0.04126 0.0
C1378 C 0.35939 0.34536 0.02227 0.0
C1379 C 0.34763 0.36077 0.96838 0.0
C1380 C 0.35113 0.35445 0.98672 0.0
H1381 H 0.36664 0.3585 0.0853 0.0
H1382 H 0.35417 0.35954 0.0548 0.0
H1383 H 0.38658 0.35152 0.01002 0.0
H1384 H 0.35981 0.36232 0.92293 0.0
H1385 H 0.36144 0.3482 0.95224 0.0
C1386 C 0.05108 0.37977 0.56155 0.0
C1387 C 0.0391 0.37794 0.57656 0.0
C1388 C 0.04316 0.37246 0.54411 0.0
C1389 C 0.9978 0.33982 0.51918 0.0
H1390 H 0.02099 0.37687 0.47936 0.0
C1391 C 0.95809 0.33445 0.45047 0.0
C1392 C 0.96902 0.34217 0.43428 0.0
C1393 C 0.96718 0.33591 0.46745 0.0
C1394 C 0.0145 0.36611 0.49014 0.0
H1395 H 0.00938 0.366 0.58527 0.0
H1396 H 0.99561 0.35317 0.55492 0.0
H1397 H 0.03604 0.38423 0.50971 0.0
H1398 H 0.99794 0.35624 0.42296 0.0
H1399 H 0.01373 0.35815 0.45232 0.0
H1400 H 0.97614 0.32175 0.49962 0.0
C1401 C 0.0111 0.36025 0.5566 0.0
C1402 C 0.02316 0.37039 0.50761 0.0
C1403 C 0.01901 0.3677 0.57399 0.0
C1404 C 0.98912 0.35033 0.43522 0.0
C1405 C 0.99819 0.35157 0.45212 0.0
C1406 C 0.9892 0.33544 0.50162 0.0
C1407 C 0.0231 0.363 0.54134 0.0
C1408 C 0.01478 0.35743 0.52241 0.0
C1409 C 0.98741 0.34493 0.46858 0.0
C1410 C 0.99729 0.34867 0.48691 0.0
H1411 H 0.06661 0.38756 0.56306 0.0
H1412 H 0.05277 0.3746 0.53266 0.0
H1413 H 0.99109 0.32946 0.53027 0.0
H1414 H 0.94257 0.32815 0.45022 0.0
H1415 H 0.95837 0.33078 0.47979 0.0
C1416 C 0.48946 0.09886 0.11563 0.0
C1417 C 0.47198 0.08124 0.11607 0.0
C1418 C 0.50703 0.09921 0.11421 0.0
C1419 C 0.52861 0.06936 0.10107 0.0
H1420 H 0.57079 0.10505 0.13235 0.0
C1421 C 0.59666 0.06338 0.11382 0.0
C1422 C 0.61453 0.08055 0.11478 0.0
C1423 C 0.57951 0.0639 0.11266 0.0
C1424 C 0.55926 0.09518 0.12333 0.0
H1425 H 0.45932 0.05016 0.11508 0.0
H1426 H 0.48995 0.05079 0.1128 0.0
H1427 H 0.54047 0.10519 0.13268 0.0
H1428 H 0.62836 0.11176 0.11487 0.0
H1429 H 0.59845 0.11263 0.11271 0.0
H1430 H 0.54738 0.0592 0.09189 0.0
C1431 C 0.49007 0.06435 0.11333 0.0
C1432 C 0.54186 0.09526 0.12351 0.0
C1433 C 0.4725 0.064 0.11475 0.0
C1434 C 0.61485 0.09825 0.11423 0.0
C1435 C 0.5977 0.09876 0.1131 0.0
C1436 C 0.54602 0.06927 0.10089 0.0
C1437 C 0.50756 0.08195 0.11319 0.0
C1438 C 0.52628 0.08228 0.11246 0.0
C1439 C 0.57981 0.08159 0.11246 0.0
C1440 C 0.56151 0.08211 0.1121 0.0
H1441 H 0.48962 0.11242 0.11653 0.0
H1442 H 0.52023 0.11302 0.11387 0.0
H1443 H 0.51701 0.05937 0.09218 0.0
H1444 H 0.59586 0.04949 0.11423 0.0
H1445 H 0.56597 0.0504 0.1124 0.0
C1446 C 0.51914 0.61203 0.61258 0.0
C1447 C 0.53644 0.61159 0.61369 0.0
C1448 C 0.50144 0.59494 0.61124 0.0
C1449 C 0.47917 0.5431 0.59957 0.0
H1450 H 0.43721 0.53816 0.63025 0.0
C1451 C 0.41055 0.46994 0.61366 0.0
C1452 C 0.39279 0.46949 0.61449 0.0
C1453 C 0.42781 0.48746 0.61214 0.0
C1454 C 0.44867 0.53938 0.62138 0.0
H1455 H 0.54864 0.59276 0.61386 0.0
H1456 H 0.51777 0.56298 0.61166 0.0
H1457 H 0.46778 0.56838 0.63004 0.0
H1458 H 0.3793 0.48717 0.61395 0.0
H1459 H 0.40941 0.51769 0.61113 0.0
H1460 H 0.46009 0.51401 0.59106 0.0
C1461 C 0.51791 0.57656 0.61166 0.0
C1462 C 0.46621 0.55672 0.62127 0.0
C1463 C 0.53562 0.59365 0.61302 0.0
C1464 C 0.39271 0.48697 0.61343 0.0
C1465 C 0.40998 0.50449 0.61192 0.0
C1466 C 0.46161 0.52575 0.59968 0.0
C1467 C 0.50059 0.57699 0.61094 0.0
C1468 C 0.48171 0.55876 0.61045 0.0
C1469 C 0.42775 0.50496 0.61142 0.0
C1470 C 0.44619 0.52364 0.61068 0.0
H1471 H 0.51922 0.62558 0.61297 0.0
H1472 H 0.48839 0.59579 0.61044 0.0
H1473 H 0.49072 0.54428 0.59087 0.0
H1474 H 0.41117 0.45676 0.61446 0.0
H1475 H 0.44125 0.4873 0.61201 0.0
C1476 C 0.94493 0.40977 0.11296 0.0
C1477 C 0.92731 0.39233 0.11397 0.0
C1478 C 0.94528 0.42733 0.11149 0.0
C1479 C 0.9153 0.44904 0.0994 0.0
H1480 H 0.95213 0.49133 0.12989 0.0
C1481 C 0.91091 0.518 0.11246 0.0
C1482 C 0.92829 0.5357 0.11328 0.0
C1483 C 0.91105 0.50066 0.11111 0.0
C1484 C 0.94193 0.47977 0.12108 0.0
H1485 H 0.89622 0.37972 0.11387 0.0
H1486 H 0.89686 0.41038 0.11149 0.0
H1487 H 0.9519 0.46084 0.13009 0.0
H1488 H 0.95946 0.54901 0.11279 0.0
H1489 H 0.95966 0.5188 0.11025 0.0
H1490 H 0.90522 0.46797 0.09054 0.0
C1491 C 0.91041 0.41045 0.11164 0.0
C1492 C 0.9418 0.46227 0.1212 0.0
C1493 C 0.91005 0.39287 0.1131 0.0
C1494 C 0.9458 0.53565 0.1123 0.0
C1495 C 0.94592 0.51832 0.11095 0.0
C1496 C 0.91543 0.46656 0.09928 0.0
C1497 C 0.92803 0.42791 0.11101 0.0
C1498 C 0.92844 0.44667 0.11041 0.0
C1499 C 0.92855 0.5006 0.11055 0.0
C1500 C 0.92871 0.48212 0.11018 0.0
H1501 H 0.9585 0.40991 0.11348 0.0
H1502 H 0.9591 0.44049 0.11074 0.0
H1503 H 0.90499 0.43739 0.09075 0.0
H1504 H 0.89717 0.51749 0.1132 0.0
H1505 H 0.89741 0.48727 0.11103 0.0
C1506 C 0.41214 0.94501 0.61339 0.0
C1507 C 0.39454 0.92757 0.61455 0.0
C1508 C 0.42955 0.94503 0.61213 0.0
C1509 C 0.45059 0.91431 0.60079 0.0
H1510 H 0.49316 0.95128 0.63091 0.0
C1511 C 0.51956 0.90975 0.61358 0.0
C1512 C 0.53727 0.92713 0.61413 0.0
C1513 C 0.5022 0.90989 0.61241 0.0
C1514 C 0.48152 0.94103 0.62221 0.0
H1515 H 0.3815 0.89643 0.61492 0.0
H1516 H 0.4119 0.8965 0.61288 0.0
H1517 H 0.46284 0.95137 0.631 0.0
H1518 H 0.55061 0.95829 0.61337 0.0
H1519 H 0.52039 0.9585 0.61112 0.0
H1520 H 0.4693 0.90388 0.59212 0.0
C1521 C 0.4122 0.91016 0.61277 0.0
C1522 C 0.46412 0.94108 0.62227 0.0
C1523 C 0.39477 0.91013 0.61403 0.0
C1524 C 0.53723 0.94463 0.61309 0.0
C1525 C 0.5199 0.94476 0.61191 0.0
C1526 C 0.46803 0.91426 0.60073 0.0
C1527 C 0.42982 0.92762 0.61199 0.0
C1528 C 0.44842 0.92771 0.61158 0.0
C1529 C 0.50216 0.92741 0.61176 0.0
C1530 C 0.4837 0.92761 0.61146 0.0
H1531 H 0.41252 0.9587 0.61365 0.0
H1532 H 0.44284 0.95873 0.61126 0.0
H1533 H 0.43887 0.90397 0.59223 0.0
H1534 H 0.51903 0.89601 0.61439 0.0
H1535 H 0.4888 0.89627 0.61252 0.0
C1536 C 0.59494 0.53586 0.11187 0.0
C1537 C 0.61249 0.5359 0.11284 0.0
C1538 C 0.57747 0.51852 0.11058 0.0
C1539 C 0.55614 0.4667 0.09914 0.0
H1540 H 0.51403 0.46118 0.12992 0.0
C1541 C 0.48775 0.39313 0.11328 0.0
C1542 C 0.46997 0.39263 0.11406 0.0
C1543 C 0.505 0.41068 0.11176 0.0
C1544 C 0.52554 0.46255 0.12104 0.0
H1545 H 0.62539 0.51769 0.1128 0.0
H1546 H 0.59492 0.48747 0.11074 0.0
H1547 H 0.54431 0.49164 0.1296 0.0
H1548 H 0.45642 0.41025 0.11337 0.0
H1549 H 0.48645 0.44079 0.11055 0.0
H1550 H 0.53736 0.43748 0.09074 0.0
C1551 C 0.59468 0.50086 0.11078 0.0
C1552 C 0.54291 0.48004 0.12085 0.0
C1553 C 0.61216 0.51821 0.11206 0.0
C1554 C 0.46984 0.41008 0.11291 0.0
C1555 C 0.48707 0.42762 0.1114 0.0
C1556 C 0.53874 0.44918 0.09933 0.0
C1557 C 0.57711 0.5008 0.11024 0.0
C1558 C 0.55846 0.48232 0.10995 0.0
C1559 C 0.50487 0.42815 0.11099 0.0
C1560 C 0.52325 0.44689 0.11034 0.0
H1561 H 0.59465 0.54922 0.11233 0.0
H1562 H 0.56422 0.51901 0.10989 0.0
H1563 H 0.56774 0.46805 0.0904 0.0
H1564 H 0.4884 0.37997 0.11415 0.0
H1565 H 0.51846 0.41058 0.11168 0.0
C1566 C 0.06348 0.46985 0.6126 0.0
C1567 C 0.08073 0.46929 0.61329 0.0
C1568 C 0.06385 0.48741 0.61097 0.0
C1569 C 0.09532 0.53935 0.61977 0.0
H1570 H 0.05792 0.54435 0.58974 0.0
C1571 C 0.09777 0.61213 0.61135 0.0
C1572 C 0.08008 0.61176 0.61275 0.0
C1573 C 0.09828 0.595 0.60981 0.0
C1574 C 0.06837 0.54314 0.5983 0.0
H1575 H 0.11191 0.4868 0.61233 0.0
H1576 H 0.11253 0.51739 0.60932 0.0
H1577 H 0.05808 0.51396 0.58989 0.0
H1578 H 0.04903 0.59302 0.61321 0.0
H1579 H 0.04995 0.56318 0.6107 0.0
H1580 H 0.10549 0.56842 0.62835 0.0
C1581 C 0.09871 0.50425 0.61031 0.0
C1582 C 0.06846 0.52573 0.59838 0.0
C1583 C 0.09835 0.48669 0.61194 0.0
C1584 C 0.06291 0.59386 0.61216 0.0
C1585 C 0.06343 0.57674 0.61061 0.0
C1586 C 0.09524 0.55675 0.61968 0.0
C1587 C 0.08147 0.50484 0.60998 0.0
C1588 C 0.08185 0.52359 0.60922 0.0
C1589 C 0.08112 0.57709 0.60962 0.0
C1590 C 0.08168 0.55882 0.60904 0.0
H1591 H 0.04964 0.45674 0.61362 0.0
H1592 H 0.05031 0.48736 0.61097 0.0
H1593 H 0.10563 0.53811 0.62851 0.0
H1594 H 0.11128 0.62565 0.61167 0.0
H1595 H 0.11214 0.5958 0.60881 0.0
C1596 C 0.9457 0.53537 0.39886 0.0
C1597 C 0.92819 0.53539 0.39786 0.0
C1598 C 0.94584 0.51805 0.4003 0.0
C1599 C 0.9154 0.46636 0.41225 0.0
H1600 H 0.95183 0.46047 0.38155 0.0
C1601 C 0.90999 0.3926 0.39883 0.0
C1602 C 0.92724 0.39205 0.39798 0.0
C1603 C 0.91036 0.41019 0.40022 0.0
C1604 C 0.94174 0.46195 0.39042 0.0
H1605 H 0.89706 0.51716 0.39798 0.0
H1606 H 0.89733 0.48697 0.40032 0.0
H1607 H 0.95204 0.49095 0.38156 0.0
H1608 H 0.95843 0.40962 0.39843 0.0
H1609 H 0.95905 0.44022 0.40104 0.0
H1610 H 0.90498 0.43724 0.42095 0.0
C1611 C 0.91097 0.50037 0.40018 0.0
C1612 C 0.94187 0.47945 0.39042 0.0
C1613 C 0.91082 0.5177 0.39874 0.0
C1614 C 0.94487 0.40949 0.39895 0.0
C1615 C 0.94523 0.42706 0.40033 0.0
C1616 C 0.91527 0.44884 0.41225 0.0
C1617 C 0.92848 0.50032 0.40077 0.0
C1618 C 0.92865 0.48185 0.40128 0.0
C1619 C 0.92798 0.42764 0.40079 0.0
C1620 C 0.9284 0.44641 0.40127 0.0
H1621 H 0.95935 0.54873 0.39832 0.0
H1622 H 0.95958 0.51855 0.40102 0.0
H1623 H 0.90519 0.46782 0.42096 0.0
H1624 H 0.89615 0.37945 0.39811 0.0
H1625 H 0.89681 0.41012 0.40034 0.0
C1626 C 0.51895 0.90807 0.89652 0.0
C1627 C 0.53673 0.92538 0.89618 0.0
C1628 C 0.50165 0.90833 0.8977 0.0
C1629 C 0.48129 0.93983 0.88835 0.0
H1630 H 0.43853 0.90273 0.91819 0.0
C1631 C 0.41224 0.94434 0.89762 0.0
C1632 C 0.39457 0.92697 0.89643 0.0
C1633 C 0.42958 0.94421 0.89876 0.0
C1634 C 0.45028 0.91308 0.90966 0.0
H1635 H 0.55023 0.95655 0.89728 0.0
H1636 H 0.52012 0.95696 0.89953 0.0
H1637 H 0.46882 0.90237 0.9181 0.0
H1638 H 0.38132 0.89582 0.89587 0.0
H1639 H 0.4116 0.89563 0.89768 0.0
H1640 H 0.46278 0.95046 0.87978 0.0
C1641 C 0.51953 0.94318 0.89858 0.0
C1642 C 0.46764 0.91287 0.90961 0.0
C1643 C 0.53681 0.94293 0.89741 0.0
C1644 C 0.39465 0.90947 0.89679 0.0
C1645 C 0.41202 0.90935 0.89792 0.0
C1646 C 0.46397 0.94004 0.8884 0.0
C1647 C 0.50173 0.9259 0.89856 0.0
C1648 C 0.48334 0.92624 0.89893 0.0
C1649 C 0.4297 0.92673 0.89874 0.0
C1650 C 0.44823 0.92665 0.89903 0.0
H1651 H 0.51834 0.89429 0.89557 0.0
H1652 H 0.4882 0.89475 0.89746 0.0
H1653 H 0.49297 0.9501 0.8797 0.0
H1654 H 0.41272 0.95809 0.89749 0.0
H1655 H 0.44293 0.95785 0.89967 0.0
C1656 C 0.46894 0.41094 0.39931 0.0
C1657 C 0.46895 0.39342 0.39844 0.0
C1658 C 0.48625 0.42843 0.40069 0.0
C1659 C 0.53797 0.44985 0.41262 0.0
H1660 H 0.54373 0.49189 0.38156 0.0
C1661 C 0.61165 0.51812 0.39867 0.0
C1662 C 0.61218 0.53591 0.39765 0.0
C1663 C 0.59407 0.50091 0.40021 0.0
C1664 C 0.54229 0.4804 0.39053 0.0
H1665 H 0.48721 0.38056 0.39875 0.0
H1666 H 0.51738 0.41108 0.40098 0.0
H1667 H 0.51328 0.4616 0.38175 0.0
H1668 H 0.59461 0.54953 0.39798 0.0
H1669 H 0.56403 0.51955 0.40086 0.0
H1670 H 0.5671 0.46866 0.42123 0.0
C1671 C 0.50397 0.41129 0.40079 0.0
C1672 C 0.52481 0.46302 0.39064 0.0
C1673 C 0.48666 0.39378 0.39941 0.0
C1674 C 0.59475 0.5361 0.39862 0.0
C1675 C 0.57719 0.51889 0.40016 0.0
C1676 C 0.55548 0.46726 0.4125 0.0
C1677 C 0.50399 0.42884 0.40123 0.0
C1678 C 0.52244 0.4475 0.40163 0.0
C1679 C 0.57662 0.50108 0.40078 0.0
C1680 C 0.55786 0.48272 0.4014 0.0
H1681 H 0.45558 0.41121 0.3987 0.0
H1682 H 0.48573 0.44167 0.4013 0.0
H1683 H 0.53654 0.43827 0.42143 0.0
H1684 H 0.62479 0.51743 0.39794 0.0
H1685 H 0.59414 0.48743 0.40045 0.0
C1686 C 0.0955 0.48589 0.89927 0.0
C1687 C 0.07813 0.46818 0.8985 0.0
C1688 C 0.09534 0.50321 0.90072 0.0
C1689 C 0.06425 0.52398 0.8912 0.0
H1690 H 0.10137 0.56642 0.92135 0.0
C1691 C 0.061 0.59379 0.89963 0.0
C1692 C 0.07857 0.61126 0.89841 0.0
C1693 C 0.06075 0.57627 0.90111 0.0
C1694 C 0.09101 0.55476 0.91275 0.0
H1695 H 0.04697 0.45481 0.89922 0.0
H1696 H 0.04672 0.48498 0.90196 0.0
H1697 H 0.10127 0.5359 0.92138 0.0
H1698 H 0.10968 0.62398 0.89823 0.0
H1699 H 0.1092 0.59341 0.90064 0.0
H1700 H 0.0541 0.54282 0.88242 0.0
C1701 C 0.06046 0.48549 0.90112 0.0
C1702 C 0.09095 0.53727 0.91277 0.0
C1703 C 0.06062 0.46818 0.89966 0.0
C1704 C 0.09588 0.61081 0.89915 0.0
C1705 C 0.09562 0.59328 0.90063 0.0
C1706 C 0.06431 0.54144 0.89119 0.0
C1707 C 0.07781 0.50323 0.90146 0.0
C1708 C 0.07761 0.52169 0.90194 0.0
C1709 C 0.07804 0.57578 0.90141 0.0
C1710 C 0.07772 0.55706 0.90191 0.0
H1711 H 0.10925 0.48643 0.89839 0.0
H1712 H 0.10896 0.51662 0.90075 0.0
H1713 H 0.054 0.51241 0.88243 0.0
H1714 H 0.04739 0.59358 0.89921 0.0
H1715 H 0.04697 0.56308 0.90199 0.0
C1716 C 0.61361 0.09631 0.39559 0.0
C1717 C 0.61399 0.07895 0.39542 0.0
C1718 C 0.59611 0.09615 0.3967 0.0
C1719 C 0.54416 0.06474 0.38751 0.0
H1720 H 0.53889 0.10241 0.41679 0.0
C1721 C 0.47091 0.06106 0.39647 0.0
C1722 C 0.47081 0.07851 0.39497 0.0
C1723 C 0.48829 0.06101 0.39769 0.0
C1724 C 0.54019 0.09189 0.40842 0.0
H1725 H 0.59621 0.04781 0.39675 0.0
H1726 H 0.56576 0.04756 0.39888 0.0
H1727 H 0.56941 0.10251 0.41688 0.0
H1728 H 0.48899 0.10962 0.39392 0.0
H1729 H 0.51928 0.10949 0.3959 0.0
H1730 H 0.51503 0.0542 0.37894 0.0
C1731 C 0.57898 0.0613 0.39785 0.0
C1732 C 0.55768 0.09196 0.40847 0.0
C1733 C 0.59647 0.06145 0.39674 0.0
C1734 C 0.48851 0.09592 0.39508 0.0
C1735 C 0.5059 0.09585 0.39631 0.0
C1736 C 0.5267 0.06467 0.38747 0.0
C1737 C 0.57856 0.07863 0.39767 0.0
C1738 C 0.55988 0.0784 0.39798 0.0
C1739 C 0.506 0.07839 0.39745 0.0
C1740 C 0.5245 0.07827 0.39789 0.0
H1741 H 0.62682 0.11006 0.39457 0.0
H1742 H 0.5963 0.10975 0.39633 0.0
H1743 H 0.54546 0.05431 0.37901 0.0
H1744 H 0.45756 0.04739 0.39652 0.0
H1745 H 0.48785 0.04732 0.39884 0.0
C1746 C 0.53677 0.59464 0.8978 0.0
C1747 C 0.53672 0.61212 0.89647 0.0
C1748 C 0.51948 0.57713 0.89913 0.0
C1749 C 0.46767 0.5557 0.91044 0.0
H1750 H 0.46249 0.51305 0.88073 0.0
C1751 C 0.39446 0.48632 0.89789 0.0
C1752 C 0.39425 0.46867 0.89745 0.0
C1753 C 0.41188 0.50374 0.89903 0.0
C1754 C 0.46377 0.52472 0.88932 0.0
H1755 H 0.51836 0.62486 0.89583 0.0
H1756 H 0.48821 0.59429 0.89798 0.0
H1757 H 0.49275 0.54354 0.88047 0.0
H1758 H 0.41224 0.45553 0.89839 0.0
H1759 H 0.44256 0.48587 0.9006 0.0
H1760 H 0.43859 0.53686 0.91917 0.0
C1761 C 0.50165 0.59415 0.89819 0.0
C1762 C 0.48113 0.54222 0.88917 0.0
C1763 C 0.51895 0.61168 0.89685 0.0
C1764 C 0.41185 0.46885 0.89859 0.0
C1765 C 0.42926 0.48626 0.89974 0.0
C1766 C 0.45028 0.53817 0.9106 0.0
C1767 C 0.5017 0.57665 0.89916 0.0
C1768 C 0.48329 0.55794 0.89969 0.0
C1769 C 0.42951 0.50393 0.89977 0.0
C1770 C 0.44811 0.52248 0.90001 0.0
H1771 H 0.55017 0.59442 0.89765 0.0
H1772 H 0.52005 0.56394 0.90015 0.0
H1773 H 0.46894 0.56745 0.91888 0.0
H1774 H 0.38118 0.48673 0.89701 0.0
H1775 H 0.41156 0.51709 0.89883 0.0
loop_
_geom_bond_atom_site_label_1
_geom_bond_atom_site_label_2
_geom_bond_distance
_geom_bond_site_symmetry_2
_ccdc_geom_bond_type
O0 Cd1 2.223 . S
O0 C8 1.315 . S
Cd1 O0 2.223 . S
Cd1 O4 2.297 . S
Cd1 O5 2.439 . S
Cd1 O11 2.240 . S
Cd2 O3 2.240 . S
Cd2 O10 2.223 . S
Cd2 O12 2.297 . S
Cd2 O13 2.439 . S
O3 Cd2 2.240 . S
O3 C8 1.279 . S
O4 Cd1 2.297 . S
O4 C6 1.247 . S
O5 Cd1 2.439 . S
O5 C6 1.208 . S
C6 O4 1.247 . S
C6 O5 1.208 . S
C7 O12 1.247 . S
C7 O13 1.208 . S
C8 O0 1.315 . S
C8 O3 1.279 . S
C9 O10 1.315 . S
C9 O11 1.279 . S
O10 Cd2 2.223 . S
O10 C9 1.315 . S
O11 Cd1 2.240 . S
O11 C9 1.279 . S
O12 Cd2 2.297 . S
O12 C7 1.247 . S
O13 Cd2 2.439 . S
O13 C7 1.208 . S
O14 Cd15 2.223 . S
O14 C22 1.315 . S
Cd15 O14 2.223 . S
Cd15 O18 2.297 . S
Cd15 O19 2.439 . S
Cd15 O25 2.240 . S
Cd16 O17 2.240 . S
Cd16 O24 2.223 . S
Cd16 O26 2.297 . S
Cd16 O27 2.439 . S
O17 Cd16 2.240 . S
O17 C22 1.279 . S
O18 Cd15 2.297 . S
O18 C20 1.247 . S
O19 Cd15 2.439 . S
O19 C20 1.208 . S
C20 O18 1.247 . S
C20 O19 1.208 . S
C21 O26 1.247 . S
C21 O27 1.208 . S
C22 O14 1.315 . S
C22 O17 1.279 . S
C23 O24 1.315 . S
C23 O25 1.279 . S
O24 Cd16 2.223 . S
O24 C23 1.315 . S
O25 Cd15 2.240 . S
O25 C23 1.279 . S
O26 Cd16 2.297 . S
O26 C21 1.247 . S
O27 Cd16 2.439 . S
O27 C21 1.208 . S
O28 Cd29 2.223 . S
O28 C36 1.315 . S
Cd29 O28 2.223 . S
Cd29 O32 2.297 . S
Cd29 O33 2.439 . S
Cd29 O39 2.240 . S
Cd30 O31 2.240 . S
Cd30 O38 2.223 . S
Cd30 O40 2.297 . S
Cd30 O41 2.439 . S
O31 Cd30 2.240 . S
O31 C36 1.279 . S
O32 Cd29 2.297 . S
O32 C34 1.247 . S
O33 Cd29 2.439 . S
O33 C34 1.208 . S
C34 O32 1.247 . S
C34 O33 1.208 . S
C35 O40 1.247 . S
C35 O41 1.208 . S
C36 O28 1.315 . S
C36 O31 1.279 . S
C37 O38 1.315 . S
C37 O39 1.279 . S
O38 Cd30 2.223 . S
O38 C37 1.315 . S
O39 Cd29 2.240 . S
O39 C37 1.279 . S
O40 Cd30 2.297 . S
O40 C35 1.247 . S
O41 Cd30 2.439 . S
O41 C35 1.208 . S
O42 Cd43 2.223 . S
O42 C50 1.315 . S
Cd43 O42 2.223 . S
Cd43 O46 2.297 . S
Cd43 O47 2.439 . S
Cd43 O53 2.240 . S
Cd44 O45 2.240 . S
Cd44 O52 2.223 . S
Cd44 O54 2.297 . S
Cd44 O55 2.439 . S
O45 Cd44 2.240 . S
O45 C50 1.279 . S
O46 Cd43 2.297 . S
O46 C48 1.247 . S
O47 Cd43 2.439 . S
O47 C48 1.208 . S
C48 O46 1.247 . S
C48 O47 1.208 . S
C49 O54 1.247 . S
C49 O55 1.208 . S
C50 O42 1.315 . S
C50 O45 1.279 . S
C51 O52 1.315 . S
C51 O53 1.279 . S
O52 Cd44 2.223 . S
O52 C51 1.315 . S
O53 Cd43 2.240 . S
O53 C51 1.279 . S
O54 Cd44 2.297 . S
O54 C49 1.247 . S
O55 Cd44 2.439 . S
O55 C49 1.208 . S
O56 Cd57 2.223 . S
O56 C64 1.315 . S
Cd57 O56 2.223 . S
Cd57 O60 2.297 . S
Cd57 O61 2.439 . S
Cd57 O67 2.240 . S
Cd58 O59 2.240 . S
Cd58 O66 2.223 . S
Cd58 O68 2.297 . S
Cd58 O69 2.439 . S
O59 Cd58 2.240 . S
O59 C64 1.279 . S
O60 Cd57 2.297 . S
O60 C62 1.247 . S
O61 Cd57 2.439 . S
O61 C62 1.208 . S
C62 O60 1.247 . S
C62 O61 1.208 . S
C63 O68 1.247 . S
C63 O69 1.208 . S
C64 O56 1.315 . S
C64 O59 1.279 . S
C65 O66 1.315 . S
C65 O67 1.279 . S
O66 Cd58 2.223 . S
O66 C65 1.315 . S
O67 Cd57 2.240 . S
O67 C65 1.279 . S
O68 Cd58 2.297 . S
O68 C63 1.247 . S
O69 Cd58 2.439 . S
O69 C63 1.208 . S
O70 Cd71 2.223 . S
O70 C78 1.315 . S
Cd71 O70 2.223 . S
Cd71 O74 2.297 . S
Cd71 O75 2.439 . S
Cd71 O81 2.240 . S
Cd72 O73 2.240 . S
Cd72 O80 2.223 . S
Cd72 O82 2.297 . S
Cd72 O83 2.439 . S
O73 Cd72 2.240 . S
O73 C78 1.279 . S
O74 Cd71 2.297 . S
O74 C76 1.247 . S
O75 Cd71 2.439 . S
O75 C76 1.208 . S
C76 O74 1.247 . S
C76 O75 1.208 . S
C77 O82 1.247 . S
C77 O83 1.208 . S
C78 O70 1.315 . S
C78 O73 1.279 . S
C79 O80 1.315 . S
C79 O81 1.279 . S
O80 Cd72 2.223 . S
O80 C79 1.315 . S
O81 Cd71 2.240 . S
O81 C79 1.279 . S
O82 Cd72 2.297 . S
O82 C77 1.247 . S
O83 Cd72 2.439 . S
O83 C77 1.208 . S
O84 Cd85 2.223 . S
O84 C92 1.315 . S
Cd85 O84 2.223 . S
Cd85 O88 2.297 . S
Cd85 O89 2.439 . S
Cd85 O95 2.240 . S
Cd86 O87 2.240 . S
Cd86 O94 2.223 . S
Cd86 O96 2.297 . S
Cd86 O97 2.439 . S
O87 Cd86 2.240 . S
O87 C92 1.279 . S
O88 Cd85 2.297 . S
O88 C90 1.247 . S
O89 Cd85 2.439 . S
O89 C90 1.208 . S
C90 O88 1.247 . S
C90 O89 1.208 . S
C91 O96 1.247 . S
C91 O97 1.208 . S
C92 O84 1.315 . S
C92 O87 1.279 . S
C93 O94 1.315 . S
C93 O95 1.279 . S
O94 Cd86 2.223 . S
O94 C93 1.315 . S
O95 Cd85 2.240 . S
O95 C93 1.279 . S
O96 Cd86 2.297 . S
O96 C91 1.247 . S
O97 Cd86 2.439 . S
O97 C91 1.208 . S
O98 Cd99 2.223 . S
O98 C106 1.315 . S
Cd99 O98 2.223 . S
Cd99 O102 2.297 . S
Cd99 O103 2.439 . S
Cd99 O109 2.240 . S
Cd100 O101 2.240 . S
Cd100 O108 2.223 . S
Cd100 O110 2.297 . S
Cd100 O111 2.439 . S
O101 Cd100 2.240 . S
O101 C106 1.279 . S
O102 Cd99 2.297 . S
O102 C104 1.247 . S
O103 Cd99 2.439 . S
O103 C104 1.208 . S
C104 O102 1.247 . S
C104 O103 1.208 . S
C105 O110 1.247 . S
C105 O111 1.208 . S
C106 O98 1.315 . S
C106 O101 1.279 . S
C107 O108 1.315 . S
C107 O109 1.279 . S
O108 Cd100 2.223 . S
O108 C107 1.315 . S
O109 Cd99 2.240 . S
O109 C107 1.279 . S
O110 Cd100 2.297 . S
O110 C105 1.247 . S
O111 Cd100 2.439 . S
O111 C105 1.208 . S
O112 Cd113 2.223 . S
O112 C120 1.315 . S
Cd113 O112 2.223 . S
Cd113 O116 2.297 . S
Cd113 O117 2.439 . S
Cd113 O123 2.240 . S
Cd114 O115 2.240 . S
Cd114 O122 2.223 . S
Cd114 O124 2.297 . S
Cd114 O125 2.439 . S
O115 Cd114 2.240 . S
O115 C120 1.279 . S
O116 Cd113 2.297 . S
O116 C118 1.247 . S
O117 Cd113 2.439 . S
O117 C118 1.208 . S
C118 O116 1.247 . S
C118 O117 1.208 . S
C119 O124 1.247 . S
C119 O125 1.208 . S
C120 O112 1.315 . S
C120 O115 1.279 . S
C121 O122 1.315 . S
C121 O123 1.279 . S
O122 Cd114 2.223 . S
O122 C121 1.315 . S
O123 Cd113 2.240 . S
O123 C121 1.279 . S
O124 Cd114 2.297 . S
O124 C119 1.247 . S
O125 Cd114 2.439 . S
O125 C119 1.208 . S
O126 Cd127 2.223 . S
O126 C134 1.315 . S
Cd127 O126 2.223 . S
Cd127 O130 2.297 . S
Cd127 O131 2.439 . S
Cd127 O137 2.240 . S
Cd128 O129 2.240 . S
Cd128 O136 2.223 . S
Cd128 O138 2.297 . S
Cd128 O139 2.439 . S
O129 Cd128 2.240 . S
O129 C134 1.279 . S
O130 Cd127 2.297 . S
O130 C132 1.247 . S
O131 Cd127 2.439 . S
O131 C132 1.208 . S
C132 O130 1.247 . S
C132 O131 1.208 . S
C133 O138 1.247 . S
C133 O139 1.208 . S
C134 O126 1.315 . S
C134 O129 1.279 . S
C135 O136 1.315 . S
C135 O137 1.279 . S
O136 Cd128 2.223 . S
O136 C135 1.315 . S
O137 Cd127 2.240 . S
O137 C135 1.279 . S
O138 Cd128 2.297 . S
O138 C133 1.247 . S
O139 Cd128 2.439 . S
O139 C133 1.208 . S
O140 Cd141 2.223 . S
O140 C148 1.315 . S
Cd141 O140 2.223 . S
Cd141 O144 2.297 . S
Cd141 O145 2.439 . S
Cd141 O151 2.240 . S
Cd142 O143 2.240 . S
Cd142 O150 2.223 . S
Cd142 O152 2.297 . S
Cd142 O153 2.439 . S
O143 Cd142 2.240 . S
O143 C148 1.279 . S
O144 Cd141 2.297 . S
O144 C146 1.247 . S
O145 Cd141 2.439 . S
O145 C146 1.208 . S
C146 O144 1.247 . S
C146 O145 1.208 . S
C147 O152 1.247 . S
C147 O153 1.208 . S
C148 O140 1.315 . S
C148 O143 1.279 . S
C149 O150 1.315 . S
C149 O151 1.279 . S
O150 Cd142 2.223 . S
O150 C149 1.315 . S
O151 Cd141 2.240 . S
O151 C149 1.279 . S
O152 Cd142 2.297 . S
O152 C147 1.247 . S
O153 Cd142 2.439 . S
O153 C147 1.208 . S
O154 Cd155 2.223 . S
O154 C162 1.315 . S
Cd155 O154 2.223 . S
Cd155 O158 2.297 . S
Cd155 O159 2.439 . S
Cd155 O165 2.240 . S
Cd156 O157 2.240 . S
Cd156 O164 2.223 . S
Cd156 O166 2.297 . S
Cd156 O167 2.439 . S
O157 Cd156 2.240 . S
O157 C162 1.279 . S
O158 Cd155 2.297 . S
O158 C160 1.247 . S
O159 Cd155 2.439 . S
O159 C160 1.208 . S
C160 O158 1.247 . S
C160 O159 1.208 . S
C161 O166 1.247 . S
C161 O167 1.208 . S
C162 O154 1.315 . S
C162 O157 1.279 . S
C163 O164 1.315 . S
C163 O165 1.279 . S
O164 Cd156 2.223 . S
O164 C163 1.315 . S
O165 Cd155 2.240 . S
O165 C163 1.279 . S
O166 Cd156 2.297 . S
O166 C161 1.247 . S
O167 Cd156 2.439 . S
O167 C161 1.208 . S
O168 Cd169 2.223 . S
O168 C176 1.315 . S
Cd169 O168 2.223 . S
Cd169 O172 2.297 . S
Cd169 O173 2.439 . S
Cd169 O179 2.240 . S
Cd170 O171 2.240 . S
Cd170 O178 2.223 . S
Cd170 O180 2.297 . S
Cd170 O181 2.439 . S
O171 Cd170 2.240 . S
O171 C176 1.279 . S
O172 Cd169 2.297 . S
O172 C174 1.247 . S
O173 Cd169 2.439 . S
O173 C174 1.208 . S
C174 O172 1.247 . S
C174 O173 1.208 . S
C175 O180 1.247 . S
C175 O181 1.208 . S
C176 O168 1.315 . S
C176 O171 1.279 . S
C177 O178 1.315 . S
C177 O179 1.279 . S
O178 Cd170 2.223 . S
O178 C177 1.315 . S
O179 Cd169 2.240 . S
O179 C177 1.279 . S
O180 Cd170 2.297 . S
O180 C175 1.247 . S
O181 Cd170 2.439 . S
O181 C175 1.208 . S
O182 Cd183 2.223 . S
O182 C190 1.315 . S
Cd183 O182 2.223 . S
Cd183 O186 2.297 . S
Cd183 O187 2.439 . S
Cd183 O193 2.240 . S
Cd184 O185 2.240 . S
Cd184 O192 2.223 . S
Cd184 O194 2.297 . S
Cd184 O195 2.439 . S
O185 Cd184 2.240 . S
O185 C190 1.279 . S
O186 Cd183 2.297 . S
O186 C188 1.247 . S
O187 Cd183 2.439 . S
O187 C188 1.208 . S
C188 O186 1.247 . S
C188 O187 1.208 . S
C189 O194 1.247 . S
C189 O195 1.208 . S
C190 O182 1.315 . S
C190 O185 1.279 . S
C191 O192 1.315 . S
C191 O193 1.279 . S
O192 Cd184 2.223 . S
O192 C191 1.315 . S
O193 Cd183 2.240 . S
O193 C191 1.279 . S
O194 Cd184 2.297 . S
O194 C189 1.247 . S
O195 Cd184 2.439 . S
O195 C189 1.208 . S
O196 Cd197 2.223 . S
O196 C204 1.315 . S
Cd197 O196 2.223 . S
Cd197 O200 2.297 . S
Cd197 O201 2.439 . S
Cd197 O207 2.240 . S
Cd198 O199 2.240 . S
Cd198 O206 2.223 . S
Cd198 O208 2.297 . S
Cd198 O209 2.439 . S
O199 Cd198 2.240 . S
O199 C204 1.279 . S
O200 Cd197 2.297 . S
O200 C202 1.247 . S
O201 Cd197 2.439 . S
O201 C202 1.208 . S
C202 O200 1.247 . S
C202 O201 1.208 . S
C203 O208 1.247 . S
C203 O209 1.208 . S
C204 O196 1.315 . S
C204 O199 1.279 . S
C205 O206 1.315 . S
C205 O207 1.279 . S
O206 Cd198 2.223 . S
O206 C205 1.315 . S
O207 Cd197 2.240 . S
O207 C205 1.279 . S
O208 Cd198 2.297 . S
O208 C203 1.247 . S
O209 Cd198 2.439 . S
O209 C203 1.208 . S
O210 Cd211 2.223 . S
O210 C218 1.315 . S
Cd211 O210 2.223 . S
Cd211 O214 2.297 . S
Cd211 O215 2.439 . S
Cd211 O221 2.240 . S
Cd212 O213 2.240 . S
Cd212 O220 2.223 . S
Cd212 O222 2.297 . S
Cd212 O223 2.439 . S
O213 Cd212 2.240 . S
O213 C218 1.279 . S
O214 Cd211 2.297 . S
O214 C216 1.247 . S
O215 Cd211 2.439 . S
O215 C216 1.208 . S
C216 O214 1.247 . S
C216 O215 1.208 . S
C217 O222 1.247 . S
C217 O223 1.208 . S
C218 O210 1.315 . S
C218 O213 1.279 . S
C219 O220 1.315 . S
C219 O221 1.279 . S
O220 Cd212 2.223 . S
O220 C219 1.315 . S
O221 Cd211 2.240 . S
O221 C219 1.279 . S
O222 Cd212 2.297 . S
O222 C217 1.247 . S
O223 Cd212 2.439 . S
O223 C217 1.208 . S
O224 Cd225 2.223 . S
O224 C232 1.315 . S
Cd225 O224 2.223 . S
Cd225 O228 2.297 . S
Cd225 O229 2.439 . S
Cd225 O235 2.240 . S
Cd226 O227 2.240 . S
Cd226 O234 2.223 . S
Cd226 O236 2.297 . S
Cd226 O237 2.439 . S
O227 Cd226 2.240 . S
O227 C232 1.279 . S
O228 Cd225 2.297 . S
O228 C230 1.247 . S
O229 Cd225 2.439 . S
O229 C230 1.208 . S
C230 O228 1.247 . S
C230 O229 1.208 . S
C231 O236 1.247 . S
C231 O237 1.208 . S
C232 O224 1.315 . S
C232 O227 1.279 . S
C233 O234 1.315 . S
C233 O235 1.279 . S
O234 Cd226 2.223 . S
O234 C233 1.315 . S
O235 Cd225 2.240 . S
O235 C233 1.279 . S
O236 Cd226 2.297 . S
O236 C231 1.247 . S
O237 Cd226 2.439 . S
O237 C231 1.208 . S
O238 Cd239 2.223 . S
O238 C246 1.315 . S
Cd239 O238 2.223 . S
Cd239 O242 2.297 . S
Cd239 O243 2.439 . S
Cd239 O249 2.240 . S
Cd240 O241 2.240 . S
Cd240 O248 2.223 . S
Cd240 O250 2.297 . S
Cd240 O251 2.439 . S
O241 Cd240 2.240 . S
O241 C246 1.279 . S
O242 Cd239 2.297 . S
O242 C244 1.247 . S
O243 Cd239 2.439 . S
O243 C244 1.208 . S
C244 O242 1.247 . S
C244 O243 1.208 . S
C245 O250 1.247 . S
C245 O251 1.208 . S
C246 O238 1.315 . S
C246 O241 1.279 . S
C247 O248 1.315 . S
C247 O249 1.279 . S
O248 Cd240 2.223 . S
O248 C247 1.315 . S
O249 Cd239 2.240 . S
O249 C247 1.279 . S
O250 Cd240 2.297 . S
O250 C245 1.247 . S
O251 Cd240 2.439 . S
O251 C245 1.208 . S
O252 Cd253 2.223 . S
O252 C260 1.315 . S
Cd253 O252 2.223 . S
Cd253 O256 2.297 . S
Cd253 O257 2.439 . S
Cd253 O263 2.240 . S
Cd254 O255 2.240 . S
Cd254 O262 2.223 . S
Cd254 O264 2.297 . S
Cd254 O265 2.439 . S
O255 Cd254 2.240 . S
O255 C260 1.279 . S
O256 Cd253 2.297 . S
O256 C258 1.247 . S
O257 Cd253 2.439 . S
O257 C258 1.208 . S
C258 O256 1.247 . S
C258 O257 1.208 . S
C259 O264 1.247 . S
C259 O265 1.208 . S
C260 O252 1.315 . S
C260 O255 1.279 . S
C261 O262 1.315 . S
C261 O263 1.279 . S
O262 Cd254 2.223 . S
O262 C261 1.315 . S
O263 Cd253 2.240 . S
O263 C261 1.279 . S
O264 Cd254 2.297 . S
O264 C259 1.247 . S
O265 Cd254 2.439 . S
O265 C259 1.208 . S
O266 Cd267 2.223 . S
O266 C274 1.315 . S
Cd267 O266 2.223 . S
Cd267 O270 2.297 . S
Cd267 O271 2.439 . S
Cd267 O277 2.240 . S
Cd268 O269 2.240 . S
Cd268 O276 2.223 . S
Cd268 O278 2.297 . S
Cd268 O279 2.439 . S
O269 Cd268 2.240 . S
O269 C274 1.279 . S
O270 Cd267 2.297 . S
O270 C272 1.247 . S
O271 Cd267 2.439 . S
O271 C272 1.208 . S
C272 O270 1.247 . S
C272 O271 1.208 . S
C273 O278 1.247 . S
C273 O279 1.208 . S
C274 O266 1.315 . S
C274 O269 1.279 . S
C275 O276 1.315 . S
C275 O277 1.279 . S
O276 Cd268 2.223 . S
O276 C275 1.315 . S
O277 Cd267 2.240 . S
O277 C275 1.279 . S
O278 Cd268 2.297 . S
O278 C273 1.247 . S
O279 Cd268 2.439 . S
O279 C273 1.208 . S
O280 Cd281 2.223 . S
O280 C288 1.315 . S
Cd281 O280 2.223 . S
Cd281 O284 2.297 . S
Cd281 O285 2.439 . S
Cd281 O291 2.240 . S
Cd282 O283 2.240 . S
Cd282 O290 2.223 . S
Cd282 O292 2.297 . S
Cd282 O293 2.439 . S
O283 Cd282 2.240 . S
O283 C288 1.279 . S
O284 Cd281 2.297 . S
O284 C286 1.247 . S
O285 Cd281 2.439 . S
O285 C286 1.208 . S
C286 O284 1.247 . S
C286 O285 1.208 . S
C287 O292 1.247 . S
C287 O293 1.208 . S
C288 O280 1.315 . S
C288 O283 1.279 . S
C289 O290 1.315 . S
C289 O291 1.279 . S
O290 Cd282 2.223 . S
O290 C289 1.315 . S
O291 Cd281 2.240 . S
O291 C289 1.279 . S
O292 Cd282 2.297 . S
O292 C287 1.247 . S
O293 Cd282 2.439 . S
O293 C287 1.208 . S
O294 Cd295 2.223 . S
O294 C302 1.315 . S
Cd295 O294 2.223 . S
Cd295 O298 2.297 . S
Cd295 O299 2.439 . S
Cd295 O305 2.240 . S
Cd296 O297 2.240 . S
Cd296 O304 2.223 . S
Cd296 O306 2.297 . S
Cd296 O307 2.439 . S
O297 Cd296 2.240 . S
O297 C302 1.279 . S
O298 Cd295 2.297 . S
O298 C300 1.247 . S
O299 Cd295 2.439 . S
O299 C300 1.208 . S
C300 O298 1.247 . S
C300 O299 1.208 . S
C301 O306 1.247 . S
C301 O307 1.208 . S
C302 O294 1.315 . S
C302 O297 1.279 . S
C303 O304 1.315 . S
C303 O305 1.279 . S
O304 Cd296 2.223 . S
O304 C303 1.315 . S
O305 Cd295 2.240 . S
O305 C303 1.279 . S
O306 Cd296 2.297 . S
O306 C301 1.247 . S
O307 Cd296 2.439 . S
O307 C301 1.208 . S
O308 Cd309 2.223 . S
O308 C316 1.315 . S
Cd309 O308 2.223 . S
Cd309 O312 2.297 . S
Cd309 O313 2.439 . S
Cd309 O319 2.240 . S
Cd310 O311 2.240 . S
Cd310 O318 2.223 . S
Cd310 O320 2.297 . S
Cd310 O321 2.439 . S
O311 Cd310 2.240 . S
O311 C316 1.279 . S
O312 Cd309 2.297 . S
O312 C314 1.247 . S
O313 Cd309 2.439 . S
O313 C314 1.208 . S
C314 O312 1.247 . S
C314 O313 1.208 . S
C315 O320 1.247 . S
C315 O321 1.208 . S
C316 O308 1.315 . S
C316 O311 1.279 . S
C317 O318 1.315 . S
C317 O319 1.279 . S
O318 Cd310 2.223 . S
O318 C317 1.315 . S
O319 Cd309 2.240 . S
O319 C317 1.279 . S
O320 Cd310 2.297 . S
O320 C315 1.247 . S
O321 Cd310 2.439 . S
O321 C315 1.208 . S
O322 Cd323 2.223 . S
O322 C330 1.315 . S
Cd323 O322 2.223 . S
Cd323 O326 2.297 . S
Cd323 O327 2.439 . S
Cd323 O333 2.240 . S
Cd324 O325 2.240 . S
Cd324 O332 2.223 . S
Cd324 O334 2.297 . S
Cd324 O335 2.439 . S
O325 Cd324 2.240 . S
O325 C330 1.279 . S
O326 Cd323 2.297 . S
O326 C328 1.247 . S
O327 Cd323 2.439 . S
O327 C328 1.208 . S
C328 O326 1.247 . S
C328 O327 1.208 . S
C329 O334 1.247 . S
C329 O335 1.208 . S
C330 O322 1.315 . S
C330 O325 1.279 . S
C331 O332 1.315 . S
C331 O333 1.279 . S
O332 Cd324 2.223 . S
O332 C331 1.315 . S
O333 Cd323 2.240 . S
O333 C331 1.279 . S
O334 Cd324 2.297 . S
O334 C329 1.247 . S
O335 Cd324 2.439 . S
O335 C329 1.208 . S
C336 C337 1.349 . S
C336 C338 1.327 . S
C336 H361 0.950 . S
C337 C336 1.349 . S
C337 C353 1.349 . S
C338 C336 1.327 . S
C338 C357 1.429 . S
C338 H362 0.950 . S
C339 C356 1.574 . S
C339 C358 1.368 . S
C339 H363 0.949 . S
H340 C344 0.949 . S
C341 C342 1.349 . S
C341 C343 1.327 . S
C341 H364 0.950 . S
C342 C341 1.349 . S
C342 C354 1.349 . S
C343 C341 1.327 . S
C343 C359 1.429 . S
C343 H365 0.950 . S
C344 H340 0.949 . S
C344 C352 1.574 . S
C344 C360 1.368 . S
H345 C353 0.950 . S
H346 C351 0.950 . S
H347 C352 0.949 . S
H348 C354 0.950 . S
H349 C355 0.950 . S
H350 C356 0.949 . S
C351 H346 0.950 . S
C351 C353 1.327 . S
C351 C357 1.429 . S
C352 C344 1.574 . S
C352 H347 0.949 . S
C352 C358 1.368 . S
C353 C337 1.349 . S
C353 H345 0.950 . S
C353 C351 1.327 . S
C354 C342 1.349 . S
C354 H348 0.950 . S
C354 C355 1.327 . S
C355 H349 0.950 . S
C355 C354 1.327 . S
C355 C359 1.429 . S
C356 C339 1.574 . S
C356 H350 0.949 . S
C356 C360 1.368 . S
C357 C338 1.429 . S
C357 C351 1.429 . S
C357 C358 1.523 . S
C358 C339 1.368 . S
C358 C352 1.368 . S
C358 C357 1.523 . S
C359 C343 1.429 . S
C359 C355 1.429 . S
C359 C360 1.523 . S
C360 C344 1.368 . S
C360 C356 1.368 . S
C360 C359 1.523 . S
H361 C336 0.950 . S
H362 C338 0.950 . S
H363 C339 0.949 . S
H364 C341 0.950 . S
H365 C343 0.950 . S
C366 C367 1.349 . S
C366 C368 1.327 . S
C366 H391 0.950 . S
C367 C366 1.349 . S
C367 C383 1.349 . S
C368 C366 1.327 . S
C368 C387 1.429 . S
C368 H392 0.950 . S
C369 C386 1.574 . S
C369 C388 1.368 . S
C369 H393 0.949 . S
H370 C374 0.949 . S
C371 C372 1.349 . S
C371 C373 1.327 . S
C371 H394 0.950 . S
C372 C371 1.349 . S
C372 C384 1.349 . S
C373 C371 1.327 . S
C373 C389 1.429 . S
C373 H395 0.950 . S
C374 H370 0.949 . S
C374 C382 1.574 . S
C374 C390 1.368 . S
H375 C383 0.950 . S
H376 C381 0.950 . S
H377 C382 0.949 . S
H378 C384 0.950 . S
H379 C385 0.950 . S
H380 C386 0.949 . S
C381 H376 0.950 . S
C381 C383 1.327 . S
C381 C387 1.429 . S
C382 C374 1.574 . S
C382 H377 0.949 . S
C382 C388 1.368 . S
C383 C367 1.349 . S
C383 H375 0.950 . S
C383 C381 1.327 . S
C384 C372 1.349 . S
C384 H378 0.950 . S
C384 C385 1.327 . S
C385 H379 0.950 . S
C385 C384 1.327 . S
C385 C389 1.429 . S
C386 C369 1.574 . S
C386 H380 0.949 . S
C386 C390 1.368 . S
C387 C368 1.429 . S
C387 C381 1.429 . S
C387 C388 1.523 . S
C388 C369 1.368 . S
C388 C382 1.368 . S
C388 C387 1.523 . S
C389 C373 1.429 . S
C389 C385 1.429 . S
C389 C390 1.523 . S
C390 C374 1.368 . S
C390 C386 1.368 . S
C390 C389 1.523 . S
H391 C366 0.950 . S
H392 C368 0.950 . S
H393 C369 0.949 . S
H394 C371 0.950 . S
H395 C373 0.950 . S
C396 C397 1.349 . S
C396 C398 1.327 . S
C396 H421 0.950 . S
C397 C396 1.349 . S
C397 C413 1.349 . S
C398 C396 1.327 . S
C398 C417 1.429 . S
C398 H422 0.950 . S
C399 C416 1.574 . S
C399 C418 1.368 . S
C399 H423 0.949 . S
H400 C404 0.949 . S
C401 C402 1.349 . S
C401 C403 1.327 . S
C401 H424 0.950 . S
C402 C401 1.349 . S
C402 C414 1.349 . S
C403 C401 1.327 . S
C403 C419 1.429 . S
C403 H425 0.950 . S
C404 H400 0.949 . S
C404 C412 1.574 . S
C404 C420 1.368 . S
H405 C413 0.950 . S
H406 C411 0.950 . S
H407 C412 0.949 . S
H408 C414 0.950 . S
H409 C415 0.950 . S
H410 C416 0.949 . S
C411 H406 0.950 . S
C411 C413 1.327 . S
C411 C417 1.429 . S
C412 C404 1.574 . S
C412 H407 0.949 . S
C412 C418 1.368 . S
C413 C397 1.349 . S
C413 H405 0.950 . S
C413 C411 1.327 . S
C414 C402 1.349 . S
C414 H408 0.950 . S
C414 C415 1.327 . S
C415 H409 0.950 . S
C415 C414 1.327 . S
C415 C419 1.429 . S
C416 C399 1.574 . S
C416 H410 0.949 . S
C416 C420 1.368 . S
C417 C398 1.429 . S
C417 C411 1.429 . S
C417 C418 1.523 . S
C418 C399 1.368 . S
C418 C412 1.368 . S
C418 C417 1.523 . S
C419 C403 1.429 . S
C419 C415 1.429 . S
C419 C420 1.523 . S
C420 C404 1.368 . S
C420 C416 1.368 . S
C420 C419 1.523 . S
H421 C396 0.950 . S
H422 C398 0.950 . S
H423 C399 0.949 . S
H424 C401 0.950 . S
H425 C403 0.950 . S
C426 C427 1.349 . S
C426 C428 1.327 . S
C426 H451 0.950 . S
C427 C426 1.349 . S
C427 C443 1.349 . S
C428 C426 1.327 . S
C428 C447 1.429 . S
C428 H452 0.950 . S
C429 C446 1.574 . S
C429 C448 1.368 . S
C429 H453 0.949 . S
H430 C434 0.949 . S
C431 C432 1.349 . S
C431 C433 1.327 . S
C431 H454 0.950 . S
C432 C431 1.349 . S
C432 C444 1.349 . S
C433 C431 1.327 . S
C433 C449 1.429 . S
C433 H455 0.950 . S
C434 H430 0.949 . S
C434 C442 1.574 . S
C434 C450 1.368 . S
H435 C443 0.950 . S
H436 C441 0.950 . S
H437 C442 0.949 . S
H438 C444 0.950 . S
H439 C445 0.950 . S
H440 C446 0.949 . S
C441 H436 0.950 . S
C441 C443 1.327 . S
C441 C447 1.429 . S
C442 C434 1.574 . S
C442 H437 0.949 . S
C442 C448 1.368 . S
C443 C427 1.349 . S
C443 H435 0.950 . S
C443 C441 1.327 . S
C444 C432 1.349 . S
C444 H438 0.950 . S
C444 C445 1.327 . S
C445 H439 0.950 . S
C445 C444 1.327 . S
C445 C449 1.429 . S
C446 C429 1.574 . S
C446 H440 0.949 . S
C446 C450 1.368 . S
C447 C428 1.429 . S
C447 C441 1.429 . S
C447 C448 1.523 . S
C448 C429 1.368 . S
C448 C442 1.368 . S
C448 C447 1.523 . S
C449 C433 1.429 . S
C449 C445 1.429 . S
C449 C450 1.523 . S
C450 C434 1.368 . S
C450 C446 1.368 . S
C450 C449 1.523 . S
H451 C426 0.950 . S
H452 C428 0.950 . S
H453 C429 0.949 . S
H454 C431 0.950 . S
H455 C433 0.950 . S
C456 C457 1.349 . S
C456 C458 1.327 . S
C456 H481 0.950 . S
C457 C456 1.349 . S
C457 C473 1.349 . S
C458 C456 1.327 . S
C458 C477 1.429 . S
C458 H482 0.950 . S
C459 C476 1.574 . S
C459 C478 1.368 . S
C459 H483 0.949 . S
H460 C464 0.949 . S
C461 C462 1.349 . S
C461 C463 1.327 . S
C461 H484 0.950 . S
C462 C461 1.349 . S
C462 C474 1.349 . S
C463 C461 1.327 . S
C463 C479 1.429 . S
C463 H485 0.950 . S
C464 H460 0.949 . S
C464 C472 1.574 . S
C464 C480 1.368 . S
H465 C473 0.950 . S
H466 C471 0.950 . S
H467 C472 0.949 . S
H468 C474 0.950 . S
H469 C475 0.950 . S
H470 C476 0.949 . S
C471 H466 0.950 . S
C471 C473 1.327 . S
C471 C477 1.429 . S
C472 C464 1.574 . S
C472 H467 0.949 . S
C472 C478 1.368 . S
C473 C457 1.349 . S
C473 H465 0.950 . S
C473 C471 1.327 . S
C474 C462 1.349 . S
C474 H468 0.950 . S
C474 C475 1.327 . S
C475 H469 0.950 . S
C475 C474 1.327 . S
C475 C479 1.429 . S
C476 C459 1.574 . S
C476 H470 0.949 . S
C476 C480 1.368 . S
C477 C458 1.429 . S
C477 C471 1.429 . S
C477 C478 1.523 . S
C478 C459 1.368 . S
C478 C472 1.368 . S
C478 C477 1.523 . S
C479 C463 1.429 . S
C479 C475 1.429 . S
C479 C480 1.523 . S
C480 C464 1.368 . S
C480 C476 1.368 . S
C480 C479 1.523 . S
H481 C456 0.950 . S
H482 C458 0.950 . S
H483 C459 0.949 . S
H484 C461 0.950 . S
H485 C463 0.950 . S
C486 C487 1.349 . S
C486 C488 1.327 . S
C486 H511 0.950 . S
C487 C486 1.349 . S
C487 C503 1.349 . S
C488 C486 1.327 . S
C488 C507 1.429 . S
C488 H512 0.950 . S
C489 C506 1.574 . S
C489 C508 1.368 . S
C489 H513 0.949 . S
H490 C494 0.949 . S
C491 C492 1.349 . S
C491 C493 1.327 . S
C491 H514 0.950 . S
C492 C491 1.349 . S
C492 C504 1.349 . S
C493 C491 1.327 . S
C493 C509 1.429 . S
C493 H515 0.950 . S
C494 H490 0.949 . S
C494 C502 1.574 . S
C494 C510 1.368 . S
H495 C503 0.950 . S
H496 C501 0.950 . S
H497 C502 0.949 . S
H498 C504 0.950 . S
H499 C505 0.950 . S
H500 C506 0.949 . S
C501 H496 0.950 . S
C501 C503 1.327 . S
C501 C507 1.429 . S
C502 C494 1.574 . S
C502 H497 0.949 . S
C502 C508 1.368 . S
C503 C487 1.349 . S
C503 H495 0.950 . S
C503 C501 1.327 . S
C504 C492 1.349 . S
C504 H498 0.950 . S
C504 C505 1.327 . S
C505 H499 0.950 . S
C505 C504 1.327 . S
C505 C509 1.429 . S
C506 C489 1.574 . S
C506 H500 0.949 . S
C506 C510 1.368 . S
C507 C488 1.429 . S
C507 C501 1.429 . S
C507 C508 1.523 . S
C508 C489 1.368 . S
C508 C502 1.368 . S
C508 C507 1.523 . S
C509 C493 1.429 . S
C509 C505 1.429 . S
C509 C510 1.523 . S
C510 C494 1.368 . S
C510 C506 1.368 . S
C510 C509 1.523 . S
H511 C486 0.950 . S
H512 C488 0.950 . S
H513 C489 0.949 . S
H514 C491 0.950 . S
H515 C493 0.950 . S
C516 C517 1.349 . S
C516 C518 1.327 . S
C516 H541 0.950 . S
C517 C516 1.349 . S
C517 C533 1.349 . S
C518 C516 1.327 . S
C518 C537 1.429 . S
C518 H542 0.950 . S
C519 C536 1.574 . S
C519 C538 1.368 . S
C519 H543 0.949 . S
H520 C524 0.949 . S
C521 C522 1.349 . S
C521 C523 1.327 . S
C521 H544 0.950 . S
C522 C521 1.349 . S
C522 C534 1.349 . S
C523 C521 1.327 . S
C523 C539 1.429 . S
C523 H545 0.950 . S
C524 H520 0.949 . S
C524 C532 1.574 . S
C524 C540 1.368 . S
H525 C533 0.950 . S
H526 C531 0.950 . S
H527 C532 0.949 . S
H528 C534 0.950 . S
H529 C535 0.950 . S
H530 C536 0.949 . S
C531 H526 0.950 . S
C531 C533 1.327 . S
C531 C537 1.429 . S
C532 C524 1.574 . S
C532 H527 0.949 . S
C532 C538 1.368 . S
C533 C517 1.349 . S
C533 H525 0.950 . S
C533 C531 1.327 . S
C534 C522 1.349 . S
C534 H528 0.950 . S
C534 C535 1.327 . S
C535 H529 0.950 . S
C535 C534 1.327 . S
C535 C539 1.429 . S
C536 C519 1.574 . S
C536 H530 0.949 . S
C536 C540 1.368 . S
C537 C518 1.429 . S
C537 C531 1.429 . S
C537 C538 1.523 . S
C538 C519 1.368 . S
C538 C532 1.368 . S
C538 C537 1.523 . S
C539 C523 1.429 . S
C539 C535 1.429 . S
C539 C540 1.523 . S
C540 C524 1.368 . S
C540 C536 1.368 . S
C540 C539 1.523 . S
H541 C516 0.950 . S
H542 C518 0.950 . S
H543 C519 0.949 . S
H544 C521 0.950 . S
H545 C523 0.950 . S
C546 C547 1.349 . S
C546 C548 1.327 . S
C546 H571 0.950 . S
C547 C546 1.349 . S
C547 C563 1.349 . S
C548 C546 1.327 . S
C548 C567 1.429 . S
C548 H572 0.950 . S
C549 C566 1.574 . S
C549 C568 1.368 . S
C549 H573 0.949 . S
H550 C554 0.949 . S
C551 C552 1.349 . S
C551 C553 1.327 . S
C551 H574 0.950 . S
C552 C551 1.349 . S
C552 C564 1.349 . S
C553 C551 1.327 . S
C553 C569 1.429 . S
C553 H575 0.950 . S
C554 H550 0.949 . S
C554 C562 1.574 . S
C554 C570 1.368 . S
H555 C563 0.950 . S
H556 C561 0.950 . S
H557 C562 0.949 . S
H558 C564 0.950 . S
H559 C565 0.950 . S
H560 C566 0.949 . S
C561 H556 0.950 . S
C561 C563 1.327 . S
C561 C567 1.429 . S
C562 C554 1.574 . S
C562 H557 0.949 . S
C562 C568 1.368 . S
C563 C547 1.349 . S
C563 H555 0.950 . S
C563 C561 1.327 . S
C564 C552 1.349 . S
C564 H558 0.950 . S
C564 C565 1.327 . S
C565 H559 0.950 . S
C565 C564 1.327 . S
C565 C569 1.429 . S
C566 C549 1.574 . S
C566 H560 0.949 . S
C566 C570 1.368 . S
C567 C548 1.429 . S
C567 C561 1.429 . S
C567 C568 1.523 . S
C568 C549 1.368 . S
C568 C562 1.368 . S
C568 C567 1.523 . S
C569 C553 1.429 . S
C569 C565 1.429 . S
C569 C570 1.523 . S
C570 C554 1.368 . S
C570 C566 1.368 . S
C570 C569 1.523 . S
H571 C546 0.950 . S
H572 C548 0.950 . S
H573 C549 0.949 . S
H574 C551 0.950 . S
H575 C553 0.950 . S
C576 C577 1.349 . S
C576 C578 1.327 . S
C576 H601 0.950 . S
C577 C576 1.349 . S
C577 C593 1.349 . S
C578 C576 1.327 . S
C578 C597 1.429 . S
C578 H602 0.950 . S
C579 C596 1.574 . S
C579 C598 1.368 . S
C579 H603 0.949 . S
H580 C584 0.949 . S
C581 C582 1.349 . S
C581 C583 1.327 . S
C581 H604 0.950 . S
C582 C581 1.349 . S
C582 C594 1.349 . S
C583 C581 1.327 . S
C583 C599 1.429 . S
C583 H605 0.950 . S
C584 H580 0.949 . S
C584 C592 1.574 . S
C584 C600 1.368 . S
H585 C593 0.950 . S
H586 C591 0.950 . S
H587 C592 0.949 . S
H588 C594 0.950 . S
H589 C595 0.950 . S
H590 C596 0.949 . S
C591 H586 0.950 . S
C591 C593 1.327 . S
C591 C597 1.429 . S
C592 C584 1.574 . S
C592 H587 0.949 . S
C592 C598 1.368 . S
C593 C577 1.349 . S
C593 H585 0.950 . S
C593 C591 1.327 . S
C594 C582 1.349 . S
C594 H588 0.950 . S
C594 C595 1.327 . S
C595 H589 0.950 . S
C595 C594 1.327 . S
C595 C599 1.429 . S
C596 C579 1.574 . S
C596 H590 0.949 . S
C596 C600 1.368 . S
C597 C578 1.429 . S
C597 C591 1.429 . S
C597 C598 1.523 . S
C598 C579 1.368 . S
C598 C592 1.368 . S
C598 C597 1.523 . S
C599 C583 1.429 . S
C599 C595 1.429 . S
C599 C600 1.523 . S
C600 C584 1.368 . S
C600 C596 1.368 . S
C600 C599 1.523 . S
H601 C576 0.950 . S
H602 C578 0.950 . S
H603 C579 0.949 . S
H604 C581 0.950 . S
H605 C583 0.950 . S
C606 C607 1.349 . S
C606 C608 1.327 . S
C606 H631 0.950 . S
C607 C606 1.349 . S
C607 C623 1.349 . S
C608 C606 1.327 . S
C608 C627 1.429 . S
C608 H632 0.950 . S
C609 C626 1.574 . S
C609 C628 1.368 . S
C609 H633 0.949 . S
H610 C614 0.949 . S
C611 C612 1.349 . S
C611 C613 1.327 . S
C611 H634 0.950 . S
C612 C611 1.349 . S
C612 C624 1.349 . S
C613 C611 1.327 . S
C613 C629 1.429 . S
C613 H635 0.950 . S
C614 H610 0.949 . S
C614 C622 1.574 . S
C614 C630 1.368 . S
H615 C623 0.950 . S
H616 C621 0.950 . S
H617 C622 0.949 . S
H618 C624 0.950 . S
H619 C625 0.950 . S
H620 C626 0.949 . S
C621 H616 0.950 . S
C621 C623 1.327 . S
C621 C627 1.429 . S
C622 C614 1.574 . S
C622 H617 0.949 . S
C622 C628 1.368 . S
C623 C607 1.349 . S
C623 H615 0.950 . S
C623 C621 1.327 . S
C624 C612 1.349 . S
C624 H618 0.950 . S
C624 C625 1.327 . S
C625 H619 0.950 . S
C625 C624 1.327 . S
C625 C629 1.429 . S
C626 C609 1.574 . S
C626 H620 0.949 . S
C626 C630 1.368 . S
C627 C608 1.429 . S
C627 C621 1.429 . S
C627 C628 1.523 . S
C628 C609 1.368 . S
C628 C622 1.368 . S
C628 C627 1.523 . S
C629 C613 1.429 . S
C629 C625 1.429 . S
C629 C630 1.523 . S
C630 C614 1.368 . S
C630 C626 1.368 . S
C630 C629 1.523 . S
H631 C606 0.950 . S
H632 C608 0.950 . S
H633 C609 0.949 . S
H634 C611 0.950 . S
H635 C613 0.950 . S
C636 C637 1.349 . S
C636 C638 1.327 . S
C636 H661 0.950 . S
C637 C636 1.349 . S
C637 C653 1.349 . S
C638 C636 1.327 . S
C638 C657 1.429 . S
C638 H662 0.950 . S
C639 C656 1.574 . S
C639 C658 1.368 . S
C639 H663 0.949 . S
H640 C644 0.949 . S
C641 C642 1.349 . S
C641 C643 1.327 . S
C641 H664 0.950 . S
C642 C641 1.349 . S
C642 C654 1.349 . S
C643 C641 1.327 . S
C643 C659 1.429 . S
C643 H665 0.950 . S
C644 H640 0.949 . S
C644 C652 1.574 . S
C644 C660 1.368 . S
H645 C653 0.950 . S
H646 C651 0.950 . S
H647 C652 0.949 . S
H648 C654 0.950 . S
H649 C655 0.950 . S
H650 C656 0.949 . S
C651 H646 0.950 . S
C651 C653 1.327 . S
C651 C657 1.429 . S
C652 C644 1.574 . S
C652 H647 0.949 . S
C652 C658 1.368 . S
C653 C637 1.349 . S
C653 H645 0.950 . S
C653 C651 1.327 . S
C654 C642 1.349 . S
C654 H648 0.950 . S
C654 C655 1.327 . S
C655 H649 0.950 . S
C655 C654 1.327 . S
C655 C659 1.429 . S
C656 C639 1.574 . S
C656 H650 0.949 . S
C656 C660 1.368 . S
C657 C638 1.429 . S
C657 C651 1.429 . S
C657 C658 1.523 . S
C658 C639 1.368 . S
C658 C652 1.368 . S
C658 C657 1.523 . S
C659 C643 1.429 . S
C659 C655 1.429 . S
C659 C660 1.523 . S
C660 C644 1.368 . S
C660 C656 1.368 . S
C660 C659 1.523 . S
H661 C636 0.950 . S
H662 C638 0.950 . S
H663 C639 0.949 . S
H664 C641 0.950 . S
H665 C643 0.950 . S
C666 C667 1.349 . S
C666 C668 1.327 . S
C666 H691 0.950 . S
C667 C666 1.349 . S
C667 C683 1.349 . S
C668 C666 1.327 . S
C668 C687 1.429 . S
C668 H692 0.950 . S
C669 C686 1.574 . S
C669 C688 1.368 . S
C669 H693 0.949 . S
H670 C674 0.949 . S
C671 C672 1.349 . S
C671 C673 1.327 . S
C671 H694 0.950 . S
C672 C671 1.349 . S
C672 C684 1.349 . S
C673 C671 1.327 . S
C673 C689 1.429 . S
C673 H695 0.950 . S
C674 H670 0.949 . S
C674 C682 1.574 . S
C674 C690 1.368 . S
H675 C683 0.950 . S
H676 C681 0.950 . S
H677 C682 0.949 . S
H678 C684 0.950 . S
H679 C685 0.950 . S
H680 C686 0.949 . S
C681 H676 0.950 . S
C681 C683 1.327 . S
C681 C687 1.429 . S
C682 C674 1.574 . S
C682 H677 0.949 . S
C682 C688 1.368 . S
C683 C667 1.349 . S
C683 H675 0.950 . S
C683 C681 1.327 . S
C684 C672 1.349 . S
C684 H678 0.950 . S
C684 C685 1.327 . S
C685 H679 0.950 . S
C685 C684 1.327 . S
C685 C689 1.429 . S
C686 C669 1.574 . S
C686 H680 0.949 . S
C686 C690 1.368 . S
C687 C668 1.429 . S
C687 C681 1.429 . S
C687 C688 1.523 . S
C688 C669 1.368 . S
C688 C682 1.368 . S
C688 C687 1.523 . S
C689 C673 1.429 . S
C689 C685 1.429 . S
C689 C690 1.523 . S
C690 C674 1.368 . S
C690 C686 1.368 . S
C690 C689 1.523 . S
H691 C666 0.950 . S
H692 C668 0.950 . S
H693 C669 0.949 . S
H694 C671 0.950 . S
H695 C673 0.950 . S
C696 C697 1.349 . S
C696 C698 1.327 . S
C696 H721 0.950 . S
C697 C696 1.349 . S
C697 C713 1.349 . S
C698 C696 1.327 . S
C698 C717 1.429 . S
C698 H722 0.950 . S
C699 C716 1.574 . S
C699 C718 1.368 . S
C699 H723 0.949 . S
H700 C704 0.949 . S
C701 C702 1.349 . S
C701 C703 1.327 . S
C701 H724 0.950 . S
C702 C701 1.349 . S
C702 C714 1.349 . S
C703 C701 1.327 . S
C703 C719 1.429 . S
C703 H725 0.950 . S
C704 H700 0.949 . S
C704 C712 1.574 . S
C704 C720 1.368 . S
H705 C713 0.950 . S
H706 C711 0.950 . S
H707 C712 0.949 . S
H708 C714 0.950 . S
H709 C715 0.950 . S
H710 C716 0.949 . S
C711 H706 0.950 . S
C711 C713 1.327 . S
C711 C717 1.429 . S
C712 C704 1.574 . S
C712 H707 0.949 . S
C712 C718 1.368 . S
C713 C697 1.349 . S
C713 H705 0.950 . S
C713 C711 1.327 . S
C714 C702 1.349 . S
C714 H708 0.950 . S
C714 C715 1.327 . S
C715 H709 0.950 . S
C715 C714 1.327 . S
C715 C719 1.429 . S
C716 C699 1.574 . S
C716 H710 0.949 . S
C716 C720 1.368 . S
C717 C698 1.429 . S
C717 C711 1.429 . S
C717 C718 1.523 . S
C718 C699 1.368 . S
C718 C712 1.368 . S
C718 C717 1.523 . S
C719 C703 1.429 . S
C719 C715 1.429 . S
C719 C720 1.523 . S
C720 C704 1.368 . S
C720 C716 1.368 . S
C720 C719 1.523 . S
H721 C696 0.950 . S
H722 C698 0.950 . S
H723 C699 0.949 . S
H724 C701 0.950 . S
H725 C703 0.950 . S
C726 C727 1.349 . S
C726 C728 1.327 . S
C726 H751 0.950 . S
C727 C726 1.349 . S
C727 C743 1.349 . S
C728 C726 1.327 . S
C728 C747 1.429 . S
C728 H752 0.950 . S
C729 C746 1.574 . S
C729 C748 1.368 . S
C729 H753 0.949 . S
H730 C734 0.949 . S
C731 C732 1.349 . S
C731 C733 1.327 . S
C731 H754 0.950 . S
C732 C731 1.349 . S
C732 C744 1.349 . S
C733 C731 1.327 . S
C733 C749 1.429 . S
C733 H755 0.950 . S
C734 H730 0.949 . S
C734 C742 1.574 . S
C734 C750 1.368 . S
H735 C743 0.950 . S
H736 C741 0.950 . S
H737 C742 0.949 . S
H738 C744 0.950 . S
H739 C745 0.950 . S
H740 C746 0.949 . S
C741 H736 0.950 . S
C741 C743 1.327 . S
C741 C747 1.429 . S
C742 C734 1.574 . S
C742 H737 0.949 . S
C742 C748 1.368 . S
C743 C727 1.349 . S
C743 H735 0.950 . S
C743 C741 1.327 . S
C744 C732 1.349 . S
C744 H738 0.950 . S
C744 C745 1.327 . S
C745 H739 0.950 . S
C745 C744 1.327 . S
C745 C749 1.429 . S
C746 C729 1.574 . S
C746 H740 0.949 . S
C746 C750 1.368 . S
C747 C728 1.429 . S
C747 C741 1.429 . S
C747 C748 1.523 . S
C748 C729 1.368 . S
C748 C742 1.368 . S
C748 C747 1.523 . S
C749 C733 1.429 . S
C749 C745 1.429 . S
C749 C750 1.523 . S
C750 C734 1.368 . S
C750 C746 1.368 . S
C750 C749 1.523 . S
H751 C726 0.950 . S
H752 C728 0.950 . S
H753 C729 0.949 . S
H754 C731 0.950 . S
H755 C733 0.950 . S
C756 C757 1.349 . S
C756 C758 1.327 . S
C756 H781 0.950 . S
C757 C756 1.349 . S
C757 C773 1.349 . S
C758 C756 1.327 . S
C758 C777 1.429 . S
C758 H782 0.950 . S
C759 C776 1.574 . S
C759 C778 1.368 . S
C759 H783 0.949 . S
H760 C764 0.949 . S
C761 C762 1.349 . S
C761 C763 1.327 . S
C761 H784 0.950 . S
C762 C761 1.349 . S
C762 C774 1.349 . S
C763 C761 1.327 . S
C763 C779 1.429 . S
C763 H785 0.950 . S
C764 H760 0.949 . S
C764 C772 1.574 . S
C764 C780 1.368 . S
H765 C773 0.950 . S
H766 C771 0.950 . S
H767 C772 0.949 . S
H768 C774 0.950 . S
H769 C775 0.950 . S
H770 C776 0.949 . S
C771 H766 0.950 . S
C771 C773 1.327 . S
C771 C777 1.429 . S
C772 C764 1.574 . S
C772 H767 0.949 . S
C772 C778 1.368 . S
C773 C757 1.349 . S
C773 H765 0.950 . S
C773 C771 1.327 . S
C774 C762 1.349 . S
C774 H768 0.950 . S
C774 C775 1.327 . S
C775 H769 0.950 . S
C775 C774 1.327 . S
C775 C779 1.429 . S
C776 C759 1.574 . S
C776 H770 0.949 . S
C776 C780 1.368 . S
C777 C758 1.429 . S
C777 C771 1.429 . S
C777 C778 1.523 . S
C778 C759 1.368 . S
C778 C772 1.368 . S
C778 C777 1.523 . S
C779 C763 1.429 . S
C779 C775 1.429 . S
C779 C780 1.523 . S
C780 C764 1.368 . S
C780 C776 1.368 . S
C780 C779 1.523 . S
H781 C756 0.950 . S
H782 C758 0.950 . S
H783 C759 0.949 . S
H784 C761 0.950 . S
H785 C763 0.950 . S
C786 C787 1.349 . S
C786 C788 1.327 . S
C786 H811 0.950 . S
C787 C786 1.349 . S
C787 C803 1.349 . S
C788 C786 1.327 . S
C788 C807 1.429 . S
C788 H812 0.950 . S
C789 C806 1.574 . S
C789 C808 1.368 . S
C789 H813 0.949 . S
H790 C794 0.949 . S
C791 C792 1.349 . S
C791 C793 1.327 . S
C791 H814 0.950 . S
C792 C791 1.349 . S
C792 C804 1.349 . S
C793 C791 1.327 . S
C793 C809 1.429 . S
C793 H815 0.950 . S
C794 H790 0.949 . S
C794 C802 1.574 . S
C794 C810 1.368 . S
H795 C803 0.950 . S
H796 C801 0.950 . S
H797 C802 0.949 . S
H798 C804 0.950 . S
H799 C805 0.950 . S
H800 C806 0.949 . S
C801 H796 0.950 . S
C801 C803 1.327 . S
C801 C807 1.429 . S
C802 C794 1.574 . S
C802 H797 0.949 . S
C802 C808 1.368 . S
C803 C787 1.349 . S
C803 H795 0.950 . S
C803 C801 1.327 . S
C804 C792 1.349 . S
C804 H798 0.950 . S
C804 C805 1.327 . S
C805 H799 0.950 . S
C805 C804 1.327 . S
C805 C809 1.429 . S
C806 C789 1.574 . S
C806 H800 0.949 . S
C806 C810 1.368 . S
C807 C788 1.429 . S
C807 C801 1.429 . S
C807 C808 1.523 . S
C808 C789 1.368 . S
C808 C802 1.368 . S
C808 C807 1.523 . S
C809 C793 1.429 . S
C809 C805 1.429 . S
C809 C810 1.523 . S
C810 C794 1.368 . S
C810 C806 1.368 . S
C810 C809 1.523 . S
H811 C786 0.950 . S
H812 C788 0.950 . S
H813 C789 0.949 . S
H814 C791 0.950 . S
H815 C793 0.950 . S
C816 C817 1.349 . S
C816 C818 1.327 . S
C816 H841 0.950 . S
C817 C816 1.349 . S
C817 C833 1.349 . S
C818 C816 1.327 . S
C818 C837 1.429 . S
C818 H842 0.950 . S
C819 C836 1.574 . S
C819 C838 1.368 . S
C819 H843 0.949 . S
H820 C824 0.949 . S
C821 C822 1.349 . S
C821 C823 1.327 . S
C821 H844 0.950 . S
C822 C821 1.349 . S
C822 C834 1.349 . S
C823 C821 1.327 . S
C823 C839 1.429 . S
C823 H845 0.950 . S
C824 H820 0.949 . S
C824 C832 1.574 . S
C824 C840 1.368 . S
H825 C833 0.950 . S
H826 C831 0.950 . S
H827 C832 0.949 . S
H828 C834 0.950 . S
H829 C835 0.950 . S
H830 C836 0.949 . S
C831 H826 0.950 . S
C831 C833 1.327 . S
C831 C837 1.429 . S
C832 C824 1.574 . S
C832 H827 0.949 . S
C832 C838 1.368 . S
C833 C817 1.349 . S
C833 H825 0.950 . S
C833 C831 1.327 . S
C834 C822 1.349 . S
C834 H828 0.950 . S
C834 C835 1.327 . S
C835 H829 0.950 . S
C835 C834 1.327 . S
C835 C839 1.429 . S
C836 C819 1.574 . S
C836 H830 0.949 . S
C836 C840 1.368 . S
C837 C818 1.429 . S
C837 C831 1.429 . S
C837 C838 1.523 . S
C838 C819 1.368 . S
C838 C832 1.368 . S
C838 C837 1.523 . S
C839 C823 1.429 . S
C839 C835 1.429 . S
C839 C840 1.523 . S
C840 C824 1.368 . S
C840 C836 1.368 . S
C840 C839 1.523 . S
H841 C816 0.950 . S
H842 C818 0.950 . S
H843 C819 0.949 . S
H844 C821 0.950 . S
H845 C823 0.950 . S
C846 C847 1.349 . S
C846 C848 1.327 . S
C846 H871 0.950 . S
C847 C846 1.349 . S
C847 C863 1.349 . S
C848 C846 1.327 . S
C848 C867 1.429 . S
C848 H872 0.950 . S
C849 C866 1.574 . S
C849 C868 1.368 . S
C849 H873 0.949 . S
H850 C854 0.949 . S
C851 C852 1.349 . S
C851 C853 1.327 . S
C851 H874 0.950 . S
C852 C851 1.349 . S
C852 C864 1.349 . S
C853 C851 1.327 . S
C853 C869 1.429 . S
C853 H875 0.950 . S
C854 H850 0.949 . S
C854 C862 1.574 . S
C854 C870 1.368 . S
H855 C863 0.950 . S
H856 C861 0.950 . S
H857 C862 0.949 . S
H858 C864 0.950 . S
H859 C865 0.950 . S
H860 C866 0.949 . S
C861 H856 0.950 . S
C861 C863 1.327 . S
C861 C867 1.429 . S
C862 C854 1.574 . S
C862 H857 0.949 . S
C862 C868 1.368 . S
C863 C847 1.349 . S
C863 H855 0.950 . S
C863 C861 1.327 . S
C864 C852 1.349 . S
C864 H858 0.950 . S
C864 C865 1.327 . S
C865 H859 0.950 . S
C865 C864 1.327 . S
C865 C869 1.429 . S
C866 C849 1.574 . S
C866 H860 0.949 . S
C866 C870 1.368 . S
C867 C848 1.429 . S
C867 C861 1.429 . S
C867 C868 1.523 . S
C868 C849 1.368 . S
C868 C862 1.368 . S
C868 C867 1.523 . S
C869 C853 1.429 . S
C869 C865 1.429 . S
C869 C870 1.523 . S
C870 C854 1.368 . S
C870 C866 1.368 . S
C870 C869 1.523 . S
H871 C846 0.950 . S
H872 C848 0.950 . S
H873 C849 0.949 . S
H874 C851 0.950 . S
H875 C853 0.950 . S
C876 C877 1.349 . S
C876 C878 1.327 . S
C876 H901 0.950 . S
C877 C876 1.349 . S
C877 C893 1.349 . S
C878 C876 1.327 . S
C878 C897 1.429 . S
C878 H902 0.950 . S
C879 C896 1.574 . S
C879 C898 1.368 . S
C879 H903 0.949 . S
H880 C884 0.949 . S
C881 C882 1.349 . S
C881 C883 1.327 . S
C881 H904 0.950 . S
C882 C881 1.349 . S
C882 C894 1.349 . S
C883 C881 1.327 . S
C883 C899 1.429 . S
C883 H905 0.950 . S
C884 H880 0.949 . S
C884 C892 1.574 . S
C884 C900 1.368 . S
H885 C893 0.950 . S
H886 C891 0.950 . S
H887 C892 0.949 . S
H888 C894 0.950 . S
H889 C895 0.950 . S
H890 C896 0.949 . S
C891 H886 0.950 . S
C891 C893 1.327 . S
C891 C897 1.429 . S
C892 C884 1.574 . S
C892 H887 0.949 . S
C892 C898 1.368 . S
C893 C877 1.349 . S
C893 H885 0.950 . S
C893 C891 1.327 . S
C894 C882 1.349 . S
C894 H888 0.950 . S
C894 C895 1.327 . S
C895 H889 0.950 . S
C895 C894 1.327 . S
C895 C899 1.429 . S
C896 C879 1.574 . S
C896 H890 0.949 . S
C896 C900 1.368 . S
C897 C878 1.429 . S
C897 C891 1.429 . S
C897 C898 1.523 . S
C898 C879 1.368 . S
C898 C892 1.368 . S
C898 C897 1.523 . S
C899 C883 1.429 . S
C899 C895 1.429 . S
C899 C900 1.523 . S
C900 C884 1.368 . S
C900 C896 1.368 . S
C900 C899 1.523 . S
H901 C876 0.950 . S
H902 C878 0.950 . S
H903 C879 0.949 . S
H904 C881 0.950 . S
H905 C883 0.950 . S
C906 C907 1.349 . S
C906 C908 1.327 . S
C906 H931 0.950 . S
C907 C906 1.349 . S
C907 C923 1.349 . S
C908 C906 1.327 . S
C908 C927 1.429 . S
C908 H932 0.950 . S
C909 C926 1.574 . S
C909 C928 1.368 . S
C909 H933 0.949 . S
H910 C914 0.949 . S
C911 C912 1.349 . S
C911 C913 1.327 . S
C911 H934 0.950 . S
C912 C911 1.349 . S
C912 C924 1.349 . S
C913 C911 1.327 . S
C913 C929 1.429 . S
C913 H935 0.950 . S
C914 H910 0.949 . S
C914 C922 1.574 . S
C914 C930 1.368 . S
H915 C923 0.950 . S
H916 C921 0.950 . S
H917 C922 0.949 . S
H918 C924 0.950 . S
H919 C925 0.950 . S
H920 C926 0.949 . S
C921 H916 0.950 . S
C921 C923 1.327 . S
C921 C927 1.429 . S
C922 C914 1.574 . S
C922 H917 0.949 . S
C922 C928 1.368 . S
C923 C907 1.349 . S
C923 H915 0.950 . S
C923 C921 1.327 . S
C924 C912 1.349 . S
C924 H918 0.950 . S
C924 C925 1.327 . S
C925 H919 0.950 . S
C925 C924 1.327 . S
C925 C929 1.429 . S
C926 C909 1.574 . S
C926 H920 0.949 . S
C926 C930 1.368 . S
C927 C908 1.429 . S
C927 C921 1.429 . S
C927 C928 1.523 . S
C928 C909 1.368 . S
C928 C922 1.368 . S
C928 C927 1.523 . S
C929 C913 1.429 . S
C929 C925 1.429 . S
C929 C930 1.523 . S
C930 C914 1.368 . S
C930 C926 1.368 . S
C930 C929 1.523 . S
H931 C906 0.950 . S
H932 C908 0.950 . S
H933 C909 0.949 . S
H934 C911 0.950 . S
H935 C913 0.950 . S
C936 C937 1.349 . S
C936 C938 1.327 . S
C936 H961 0.950 . S
C937 C936 1.349 . S
C937 C953 1.349 . S
C938 C936 1.327 . S
C938 C957 1.429 . S
C938 H962 0.950 . S
C939 C956 1.574 . S
C939 C958 1.368 . S
C939 H963 0.949 . S
H940 C944 0.949 . S
C941 C942 1.349 . S
C941 C943 1.327 . S
C941 H964 0.950 . S
C942 C941 1.349 . S
C942 C954 1.349 . S
C943 C941 1.327 . S
C943 C959 1.429 . S
C943 H965 0.950 . S
C944 H940 0.949 . S
C944 C952 1.574 . S
C944 C960 1.368 . S
H945 C953 0.950 . S
H946 C951 0.950 . S
H947 C952 0.949 . S
H948 C954 0.950 . S
H949 C955 0.950 . S
H950 C956 0.949 . S
C951 H946 0.950 . S
C951 C953 1.327 . S
C951 C957 1.429 . S
C952 C944 1.574 . S
C952 H947 0.949 . S
C952 C958 1.368 . S
C953 C937 1.349 . S
C953 H945 0.950 . S
C953 C951 1.327 . S
C954 C942 1.349 . S
C954 H948 0.950 . S
C954 C955 1.327 . S
C955 H949 0.950 . S
C955 C954 1.327 . S
C955 C959 1.429 . S
C956 C939 1.574 . S
C956 H950 0.949 . S
C956 C960 1.368 . S
C957 C938 1.429 . S
C957 C951 1.429 . S
C957 C958 1.523 . S
C958 C939 1.368 . S
C958 C952 1.368 . S
C958 C957 1.523 . S
C959 C943 1.429 . S
C959 C955 1.429 . S
C959 C960 1.523 . S
C960 C944 1.368 . S
C960 C956 1.368 . S
C960 C959 1.523 . S
H961 C936 0.950 . S
H962 C938 0.950 . S
H963 C939 0.949 . S
H964 C941 0.950 . S
H965 C943 0.950 . S
C966 C967 1.349 . S
C966 C968 1.327 . S
C966 H991 0.950 . S
C967 C966 1.349 . S
C967 C983 1.349 . S
C968 C966 1.327 . S
C968 C987 1.429 . S
C968 H992 0.950 . S
C969 C986 1.574 . S
C969 C988 1.368 . S
C969 H993 0.949 . S
H970 C974 0.949 . S
C971 C972 1.349 . S
C971 C973 1.327 . S
C971 H994 0.950 . S
C972 C971 1.349 . S
C972 C984 1.349 . S
C973 C971 1.327 . S
C973 C989 1.429 . S
C973 H995 0.950 . S
C974 H970 0.949 . S
C974 C982 1.574 . S
C974 C990 1.368 . S
H975 C983 0.950 . S
H976 C981 0.950 . S
H977 C982 0.949 . S
H978 C984 0.950 . S
H979 C985 0.950 . S
H980 C986 0.949 . S
C981 H976 0.950 . S
C981 C983 1.327 . S
C981 C987 1.429 . S
C982 C974 1.574 . S
C982 H977 0.949 . S
C982 C988 1.368 . S
C983 C967 1.349 . S
C983 H975 0.950 . S
C983 C981 1.327 . S
C984 C972 1.349 . S
C984 H978 0.950 . S
C984 C985 1.327 . S
C985 H979 0.950 . S
C985 C984 1.327 . S
C985 C989 1.429 . S
C986 C969 1.574 . S
C986 H980 0.949 . S
C986 C990 1.368 . S
C987 C968 1.429 . S
C987 C981 1.429 . S
C987 C988 1.523 . S
C988 C969 1.368 . S
C988 C982 1.368 . S
C988 C987 1.523 . S
C989 C973 1.429 . S
C989 C985 1.429 . S
C989 C990 1.523 . S
C990 C974 1.368 . S
C990 C986 1.368 . S
C990 C989 1.523 . S
H991 C966 0.950 . S
H992 C968 0.950 . S
H993 C969 0.949 . S
H994 C971 0.950 . S
H995 C973 0.950 . S
C996 C997 1.349 . S
C996 C998 1.327 . S
C996 H1021 0.950 . S
C997 C996 1.349 . S
C997 C1013 1.349 . S
C998 C996 1.327 . S
C998 C1017 1.429 . S
C998 H1022 0.950 . S
C999 C1016 1.574 . S
C999 C1018 1.368 . S
C999 H1023 0.949 . S
H1000 C1004 0.949 . S
C1001 C1002 1.349 . S
C1001 C1003 1.327 . S
C1001 H1024 0.950 . S
C1002 C1001 1.349 . S
C1002 C1014 1.349 . S
C1003 C1001 1.327 . S
C1003 C1019 1.429 . S
C1003 H1025 0.950 . S
C1004 H1000 0.949 . S
C1004 C1012 1.574 . S
C1004 C1020 1.368 . S
H1005 C1013 0.950 . S
H1006 C1011 0.950 . S
H1007 C1012 0.949 . S
H1008 C1014 0.950 . S
H1009 C1015 0.950 . S
H1010 C1016 0.949 . S
C1011 H1006 0.950 . S
C1011 C1013 1.327 . S
C1011 C1017 1.429 . S
C1012 C1004 1.574 . S
C1012 H1007 0.949 . S
C1012 C1018 1.368 . S
C1013 C997 1.349 . S
C1013 H1005 0.950 . S
C1013 C1011 1.327 . S
C1014 C1002 1.349 . S
C1014 H1008 0.950 . S
C1014 C1015 1.327 . S
C1015 H1009 0.950 . S
C1015 C1014 1.327 . S
C1015 C1019 1.429 . S
C1016 C999 1.574 . S
C1016 H1010 0.949 . S
C1016 C1020 1.368 . S
C1017 C998 1.429 . S
C1017 C1011 1.429 . S
C1017 C1018 1.523 . S
C1018 C999 1.368 . S
C1018 C1012 1.368 . S
C1018 C1017 1.523 . S
C1019 C1003 1.429 . S
C1019 C1015 1.429 . S
C1019 C1020 1.523 . S
C1020 C1004 1.368 . S
C1020 C1016 1.368 . S
C1020 C1019 1.523 . S
H1021 C996 0.950 . S
H1022 C998 0.950 . S
H1023 C999 0.949 . S
H1024 C1001 0.950 . S
H1025 C1003 0.950 . S
C1026 C1027 1.349 . S
C1026 C1028 1.327 . S
C1026 H1051 0.950 . S
C1027 C1026 1.349 . S
C1027 C1043 1.349 . S
C1028 C1026 1.327 . S
C1028 C1047 1.429 . S
C1028 H1052 0.950 . S
C1029 C1046 1.574 . S
C1029 C1048 1.368 . S
C1029 H1053 0.949 . S
H1030 C1034 0.949 . S
C1031 C1032 1.349 . S
C1031 C1033 1.327 . S
C1031 H1054 0.950 . S
C1032 C1031 1.349 . S
C1032 C1044 1.349 . S
C1033 C1031 1.327 . S
C1033 C1049 1.429 . S
C1033 H1055 0.950 . S
C1034 H1030 0.949 . S
C1034 C1042 1.574 . S
C1034 C1050 1.368 . S
H1035 C1043 0.950 . S
H1036 C1041 0.950 . S
H1037 C1042 0.949 . S
H1038 C1044 0.950 . S
H1039 C1045 0.950 . S
H1040 C1046 0.949 . S
C1041 H1036 0.950 . S
C1041 C1043 1.327 . S
C1041 C1047 1.429 . S
C1042 C1034 1.574 . S
C1042 H1037 0.949 . S
C1042 C1048 1.368 . S
C1043 C1027 1.349 . S
C1043 H1035 0.950 . S
C1043 C1041 1.327 . S
C1044 C1032 1.349 . S
C1044 H1038 0.950 . S
C1044 C1045 1.327 . S
C1045 H1039 0.950 . S
C1045 C1044 1.327 . S
C1045 C1049 1.429 . S
C1046 C1029 1.574 . S
C1046 H1040 0.949 . S
C1046 C1050 1.368 . S
C1047 C1028 1.429 . S
C1047 C1041 1.429 . S
C1047 C1048 1.523 . S
C1048 C1029 1.368 . S
C1048 C1042 1.368 . S
C1048 C1047 1.523 . S
C1049 C1033 1.429 . S
C1049 C1045 1.429 . S
C1049 C1050 1.523 . S
C1050 C1034 1.368 . S
C1050 C1046 1.368 . S
C1050 C1049 1.523 . S
H1051 C1026 0.950 . S
H1052 C1028 0.950 . S
H1053 C1029 0.949 . S
H1054 C1031 0.950 . S
H1055 C1033 0.950 . S
C1056 C1057 1.349 . S
C1056 C1058 1.327 . S
C1056 H1081 0.950 . S
C1057 C1056 1.349 . S
C1057 C1073 1.349 . S
C1058 C1056 1.327 . S
C1058 C1077 1.429 . S
C1058 H1082 0.950 . S
C1059 C1076 1.574 1_556 S
C1059 C1078 1.368 1_545 S
C1059 H1083 0.949 . S
H1060 C1064 0.949 . S
C1061 C1062 1.349 . S
C1061 C1063 1.327 . S
C1061 H1084 0.950 . S
C1062 C1061 1.349 . S
C1062 C1074 1.349 . S
C1063 C1061 1.327 . S
C1063 C1079 1.429 . S
C1063 H1085 0.950 . S
C1064 H1060 0.949 . S
C1064 C1072 1.574 1_554 S
C1064 C1080 1.368 1_565 S
H1065 C1073 0.950 . S
H1066 C1071 0.950 1_545 S
H1067 C1072 0.949 . S
H1068 C1074 0.950 . S
H1069 C1075 0.950 1_565 S
H1070 C1076 0.949 . S
C1071 H1066 0.950 1_565 S
C1071 C1073 1.327 . S
C1071 C1077 1.429 . S
C1072 C1064 1.574 1_556 S
C1072 H1067 0.949 . S
C1072 C1078 1.368 . S
C1073 C1057 1.349 . S
C1073 H1065 0.950 . S
C1073 C1071 1.327 . S
C1074 C1062 1.349 . S
C1074 H1068 0.950 . S
C1074 C1075 1.327 . S
C1075 H1069 0.950 1_545 S
C1075 C1074 1.327 . S
C1075 C1079 1.429 . S
C1076 C1059 1.574 1_554 S
C1076 H1070 0.949 . S
C1076 C1080 1.368 . S
C1077 C1058 1.429 . S
C1077 C1071 1.429 . S
C1077 C1078 1.523 . S
C1078 C1059 1.368 1_565 S
C1078 C1072 1.368 . S
C1078 C1077 1.523 . S
C1079 C1063 1.429 . S
C1079 C1075 1.429 . S
C1079 C1080 1.523 . S
C1080 C1064 1.368 1_545 S
C1080 C1076 1.368 . S
C1080 C1079 1.523 . S
H1081 C1056 0.950 . S
H1082 C1058 0.950 . S
H1083 C1059 0.949 . S
H1084 C1061 0.950 . S
H1085 C1063 0.950 . S
C1086 C1087 1.349 . S
C1086 C1088 1.327 . S
C1086 H1111 0.950 . S
C1087 C1086 1.349 . S
C1087 C1103 1.349 . S
C1088 C1086 1.327 . S
C1088 C1107 1.429 . S
C1088 H1112 0.950 . S
C1089 C1106 1.574 . S
C1089 C1108 1.368 . S
C1089 H1113 0.949 . S
H1090 C1094 0.949 . S
C1091 C1092 1.349 . S
C1091 C1093 1.327 . S
C1091 H1114 0.950 . S
C1092 C1091 1.349 . S
C1092 C1104 1.349 . S
C1093 C1091 1.327 . S
C1093 C1109 1.429 . S
C1093 H1115 0.950 . S
C1094 H1090 0.949 . S
C1094 C1102 1.574 . S
C1094 C1110 1.368 . S
H1095 C1103 0.950 . S
H1096 C1101 0.950 . S
H1097 C1102 0.949 . S
H1098 C1104 0.950 . S
H1099 C1105 0.950 . S
H1100 C1106 0.949 . S
C1101 H1096 0.950 . S
C1101 C1103 1.327 . S
C1101 C1107 1.429 . S
C1102 C1094 1.574 . S
C1102 H1097 0.949 . S
C1102 C1108 1.368 . S
C1103 C1087 1.349 . S
C1103 H1095 0.950 . S
C1103 C1101 1.327 . S
C1104 C1092 1.349 . S
C1104 H1098 0.950 . S
C1104 C1105 1.327 . S
C1105 H1099 0.950 . S
C1105 C1104 1.327 . S
C1105 C1109 1.429 . S
C1106 C1089 1.574 . S
C1106 H1100 0.949 . S
C1106 C1110 1.368 . S
C1107 C1088 1.429 . S
C1107 C1101 1.429 . S
C1107 C1108 1.523 . S
C1108 C1089 1.368 . S
C1108 C1102 1.368 . S
C1108 C1107 1.523 . S
C1109 C1093 1.429 . S
C1109 C1105 1.429 . S
C1109 C1110 1.523 . S
C1110 C1094 1.368 . S
C1110 C1106 1.368 . S
C1110 C1109 1.523 . S
H1111 C1086 0.950 . S
H1112 C1088 0.950 . S
H1113 C1089 0.949 . S
H1114 C1091 0.950 . S
H1115 C1093 0.950 . S
C1116 C1117 1.349 . S
C1116 C1118 1.327 . S
C1116 H1141 0.950 . S
C1117 C1116 1.349 . S
C1117 C1133 1.349 . S
C1118 C1116 1.327 . S
C1118 C1137 1.429 . S
C1118 H1142 0.950 . S
C1119 C1136 1.574 1_556 S
C1119 C1138 1.368 1_655 S
C1119 H1143 0.949 . S
H1120 C1124 0.949 . S
C1121 C1122 1.349 . S
C1121 C1123 1.327 . S
C1121 H1144 0.950 . S
C1122 C1121 1.349 . S
C1122 C1134 1.349 . S
C1123 C1121 1.327 . S
C1123 C1139 1.429 . S
C1123 H1145 0.950 . S
C1124 H1120 0.949 . S
C1124 C1132 1.574 1_554 S
C1124 C1140 1.368 1_455 S
H1125 C1133 0.950 . S
H1126 C1131 0.950 . S
H1127 C1132 0.949 . S
H1128 C1134 0.950 . S
H1129 C1135 0.950 . S
H1130 C1136 0.949 . S
C1131 H1126 0.950 . S
C1131 C1133 1.327 . S
C1131 C1137 1.429 . S
C1132 C1124 1.574 1_556 S
C1132 H1127 0.949 . S
C1132 C1138 1.368 . S
C1133 C1117 1.349 . S
C1133 H1125 0.950 . S
C1133 C1131 1.327 . S
C1134 C1122 1.349 . S
C1134 H1128 0.950 . S
C1134 C1135 1.327 . S
C1135 H1129 0.950 . S
C1135 C1134 1.327 . S
C1135 C1139 1.429 . S
C1136 C1119 1.574 1_554 S
C1136 H1130 0.949 . S
C1136 C1140 1.368 . S
C1137 C1118 1.429 . S
C1137 C1131 1.429 . S
C1137 C1138 1.523 . S
C1138 C1119 1.368 1_455 S
C1138 C1132 1.368 . S
C1138 C1137 1.523 . S
C1139 C1123 1.429 . S
C1139 C1135 1.429 . S
C1139 C1140 1.523 . S
C1140 C1124 1.368 1_655 S
C1140 C1136 1.368 . S
C1140 C1139 1.523 . S
H1141 C1116 0.950 . S
H1142 C1118 0.950 . S
H1143 C1119 0.949 . S
H1144 C1121 0.950 . S
H1145 C1123 0.950 . S
C1146 C1147 1.349 . S
C1146 C1148 1.327 . S
C1146 H1171 0.950 . S
C1147 C1146 1.349 . S
C1147 C1163 1.349 . S
C1148 C1146 1.327 . S
C1148 C1167 1.429 . S
C1148 H1172 0.950 . S
C1149 C1166 1.574 . S
C1149 C1168 1.368 1_565 S
C1149 H1173 0.949 . S
H1150 C1154 0.949 . S
C1151 C1152 1.349 . S
C1151 C1153 1.327 . S
C1151 H1174 0.950 . S
C1152 C1151 1.349 . S
C1152 C1164 1.349 . S
C1153 C1151 1.327 . S
C1153 C1169 1.429 . S
C1153 H1175 0.950 . S
C1154 H1150 0.949 . S
C1154 C1162 1.574 . S
C1154 C1170 1.368 1_545 S
H1155 C1163 0.950 . S
H1156 C1161 0.950 1_565 S
H1157 C1162 0.949 . S
H1158 C1164 0.950 . S
H1159 C1165 0.950 1_545 S
H1160 C1166 0.949 . S
C1161 H1156 0.950 1_545 S
C1161 C1163 1.327 . S
C1161 C1167 1.429 . S
C1162 C1154 1.574 . S
C1162 H1157 0.949 . S
C1162 C1168 1.368 . S
C1163 C1147 1.349 . S
C1163 H1155 0.950 . S
C1163 C1161 1.327 . S
C1164 C1152 1.349 . S
C1164 H1158 0.950 . S
C1164 C1165 1.327 . S
C1165 H1159 0.950 1_565 S
C1165 C1164 1.327 . S
C1165 C1169 1.429 . S
C1166 C1149 1.574 . S
C1166 H1160 0.949 . S
C1166 C1170 1.368 . S
C1167 C1148 1.429 . S
C1167 C1161 1.429 . S
C1167 C1168 1.523 . S
C1168 C1149 1.368 1_545 S
C1168 C1162 1.368 . S
C1168 C1167 1.523 . S
C1169 C1153 1.429 . S
C1169 C1165 1.429 . S
C1169 C1170 1.523 . S
C1170 C1154 1.368 1_565 S
C1170 C1166 1.368 . S
C1170 C1169 1.523 . S
H1171 C1146 0.950 . S
H1172 C1148 0.950 . S
H1173 C1149 0.949 . S
H1174 C1151 0.950 . S
H1175 C1153 0.950 . S
C1176 C1177 1.349 . S
C1176 C1178 1.327 . S
C1176 H1201 0.950 . S
C1177 C1176 1.349 . S
C1177 C1193 1.349 . S
C1178 C1176 1.327 . S
C1178 C1197 1.429 . S
C1178 H1202 0.950 . S
C1179 C1196 1.574 1_554 S
C1179 C1198 1.368 . S
C1179 H1203 0.949 . S
H1180 C1184 0.949 . S
C1181 C1182 1.349 . S
C1181 C1183 1.327 . S
C1181 H1204 0.950 . S
C1182 C1181 1.349 . S
C1182 C1194 1.349 . S
C1183 C1181 1.327 . S
C1183 C1199 1.429 . S
C1183 H1205 0.950 . S
C1184 H1180 0.949 . S
C1184 C1192 1.574 1_556 S
C1184 C1200 1.368 . S
H1185 C1193 0.950 . S
H1186 C1191 0.950 . S
H1187 C1192 0.949 . S
H1188 C1194 0.950 . S
H1189 C1195 0.950 . S
H1190 C1196 0.949 . S
C1191 H1186 0.950 . S
C1191 C1193 1.327 . S
C1191 C1197 1.429 . S
C1192 C1184 1.574 1_554 S
C1192 H1187 0.949 . S
C1192 C1198 1.368 . S
C1193 C1177 1.349 . S
C1193 H1185 0.950 . S
C1193 C1191 1.327 . S
C1194 C1182 1.349 . S
C1194 H1188 0.950 . S
C1194 C1195 1.327 . S
C1195 H1189 0.950 . S
C1195 C1194 1.327 . S
C1195 C1199 1.429 . S
C1196 C1179 1.574 1_556 S
C1196 H1190 0.949 . S
C1196 C1200 1.368 . S
C1197 C1178 1.429 . S
C1197 C1191 1.429 . S
C1197 C1198 1.523 . S
C1198 C1179 1.368 . S
C1198 C1192 1.368 . S
C1198 C1197 1.523 . S
C1199 C1183 1.429 . S
C1199 C1195 1.429 . S
C1199 C1200 1.523 . S
C1200 C1184 1.368 . S
C1200 C1196 1.368 . S
C1200 C1199 1.523 . S
H1201 C1176 0.950 . S
H1202 C1178 0.950 . S
H1203 C1179 0.949 . S
H1204 C1181 0.950 . S
H1205 C1183 0.950 . S
C1206 C1207 1.349 . S
C1206 C1208 1.327 . S
C1206 H1231 0.950 . S
C1207 C1206 1.349 . S
C1207 C1223 1.349 . S
C1208 C1206 1.327 . S
C1208 C1227 1.429 . S
C1208 H1232 0.950 1_455 S
C1209 C1226 1.574 . S
C1209 C1228 1.368 . S
C1209 H1233 0.949 . S
H1210 C1214 0.949 . S
C1211 C1212 1.349 . S
C1211 C1213 1.327 . S
C1211 H1234 0.950 . S
C1212 C1211 1.349 . S
C1212 C1224 1.349 . S
C1213 C1211 1.327 . S
C1213 C1229 1.429 . S
C1213 H1235 0.950 1_655 S
C1214 H1210 0.949 . S
C1214 C1222 1.574 . S
C1214 C1230 1.368 . S
H1215 C1223 0.950 . S
H1216 C1221 0.950 . S
H1217 C1222 0.949 . S
H1218 C1224 0.950 . S
H1219 C1225 0.950 . S
H1220 C1226 0.949 . S
C1221 H1216 0.950 . S
C1221 C1223 1.327 . S
C1221 C1227 1.429 . S
C1222 C1214 1.574 . S
C1222 H1217 0.949 . S
C1222 C1228 1.368 1_655 S
C1223 C1207 1.349 . S
C1223 H1215 0.950 . S
C1223 C1221 1.327 . S
C1224 C1212 1.349 . S
C1224 H1218 0.950 . S
C1224 C1225 1.327 . S
C1225 H1219 0.950 . S
C1225 C1224 1.327 . S
C1225 C1229 1.429 . S
C1226 C1209 1.574 . S
C1226 H1220 0.949 . S
C1226 C1230 1.368 1_455 S
C1227 C1208 1.429 . S
C1227 C1221 1.429 . S
C1227 C1228 1.523 . S
C1228 C1209 1.368 . S
C1228 C1222 1.368 1_455 S
C1228 C1227 1.523 . S
C1229 C1213 1.429 . S
C1229 C1225 1.429 . S
C1229 C1230 1.523 . S
C1230 C1214 1.368 . S
C1230 C1226 1.368 1_655 S
C1230 C1229 1.523 . S
H1231 C1206 0.950 . S
H1232 C1208 0.950 1_655 S
H1233 C1209 0.949 . S
H1234 C1211 0.950 . S
H1235 C1213 0.950 1_455 S
C1236 C1237 1.349 . S
C1236 C1238 1.327 . S
C1236 H1261 0.950 . S
C1237 C1236 1.349 . S
C1237 C1253 1.349 . S
C1238 C1236 1.327 . S
C1238 C1257 1.429 . S
C1238 H1262 0.950 . S
C1239 C1256 1.574 1_556 S
C1239 C1258 1.368 1_545 S
C1239 H1263 0.949 . S
H1240 C1244 0.949 . S
C1241 C1242 1.349 . S
C1241 C1243 1.327 . S
C1241 H1264 0.950 . S
C1242 C1241 1.349 . S
C1242 C1254 1.349 . S
C1243 C1241 1.327 . S
C1243 C1259 1.429 . S
C1243 H1265 0.950 . S
C1244 H1240 0.949 . S
C1244 C1252 1.574 1_554 S
C1244 C1260 1.368 1_565 S
H1245 C1253 0.950 . S
H1246 C1251 0.950 1_545 S
H1247 C1252 0.949 . S
H1248 C1254 0.950 . S
H1249 C1255 0.950 1_565 S
H1250 C1256 0.949 . S
C1251 H1246 0.950 1_565 S
C1251 C1253 1.327 . S
C1251 C1257 1.429 . S
C1252 C1244 1.574 1_556 S
C1252 H1247 0.949 . S
C1252 C1258 1.368 . S
C1253 C1237 1.349 . S
C1253 H1245 0.950 . S
C1253 C1251 1.327 . S
C1254 C1242 1.349 . S
C1254 H1248 0.950 . S
C1254 C1255 1.327 . S
C1255 H1249 0.950 1_545 S
C1255 C1254 1.327 . S
C1255 C1259 1.429 . S
C1256 C1239 1.574 1_554 S
C1256 H1250 0.949 . S
C1256 C1260 1.368 . S
C1257 C1238 1.429 . S
C1257 C1251 1.429 . S
C1257 C1258 1.523 . S
C1258 C1239 1.368 1_565 S
C1258 C1252 1.368 . S
C1258 C1257 1.523 . S
C1259 C1243 1.429 . S
C1259 C1255 1.429 . S
C1259 C1260 1.523 . S
C1260 C1244 1.368 1_545 S
C1260 C1256 1.368 . S
C1260 C1259 1.523 . S
H1261 C1236 0.950 . S
H1262 C1238 0.950 . S
H1263 C1239 0.949 . S
H1264 C1241 0.950 . S
H1265 C1243 0.950 . S
C1266 C1267 1.349 . S
C1266 C1268 1.327 . S
C1266 H1291 0.950 . S
C1267 C1266 1.349 . S
C1267 C1283 1.349 . S
C1268 C1266 1.327 . S
C1268 C1287 1.429 . S
C1268 H1292 0.950 . S
C1269 C1286 1.574 . S
C1269 C1288 1.368 . S
C1269 H1293 0.949 . S
H1270 C1274 0.949 . S
C1271 C1272 1.349 . S
C1271 C1273 1.327 . S
C1271 H1294 0.950 . S
C1272 C1271 1.349 . S
C1272 C1284 1.349 . S
C1273 C1271 1.327 . S
C1273 C1289 1.429 . S
C1273 H1295 0.950 . S
C1274 H1270 0.949 . S
C1274 C1282 1.574 . S
C1274 C1290 1.368 . S
H1275 C1283 0.950 . S
H1276 C1281 0.950 . S
H1277 C1282 0.949 . S
H1278 C1284 0.950 . S
H1279 C1285 0.950 . S
H1280 C1286 0.949 . S
C1281 H1276 0.950 . S
C1281 C1283 1.327 . S
C1281 C1287 1.429 . S
C1282 C1274 1.574 . S
C1282 H1277 0.949 . S
C1282 C1288 1.368 . S
C1283 C1267 1.349 . S
C1283 H1275 0.950 . S
C1283 C1281 1.327 . S
C1284 C1272 1.349 . S
C1284 H1278 0.950 . S
C1284 C1285 1.327 . S
C1285 H1279 0.950 . S
C1285 C1284 1.327 . S
C1285 C1289 1.429 . S
C1286 C1269 1.574 . S
C1286 H1280 0.949 . S
C1286 C1290 1.368 . S
C1287 C1268 1.429 . S
C1287 C1281 1.429 . S
C1287 C1288 1.523 . S
C1288 C1269 1.368 . S
C1288 C1282 1.368 . S
C1288 C1287 1.523 . S
C1289 C1273 1.429 . S
C1289 C1285 1.429 . S
C1289 C1290 1.523 . S
C1290 C1274 1.368 . S
C1290 C1286 1.368 . S
C1290 C1289 1.523 . S
H1291 C1266 0.950 . S
H1292 C1268 0.950 . S
H1293 C1269 0.949 . S
H1294 C1271 0.950 . S
H1295 C1273 0.950 . S
C1296 C1297 1.349 . S
C1296 C1298 1.327 . S
C1296 H1321 0.950 . S
C1297 C1296 1.349 . S
C1297 C1313 1.349 . S
C1298 C1296 1.327 . S
C1298 C1317 1.429 . S
C1298 H1322 0.950 1_655 S
C1299 C1316 1.574 1_554 S
C1299 C1318 1.368 . S
C1299 H1323 0.949 . S
H1300 C1304 0.949 . S
C1301 C1302 1.349 . S
C1301 C1303 1.327 . S
C1301 H1324 0.950 . S
C1302 C1301 1.349 . S
C1302 C1314 1.349 . S
C1303 C1301 1.327 . S
C1303 C1319 1.429 . S
C1303 H1325 0.950 1_455 S
C1304 H1300 0.949 . S
C1304 C1312 1.574 1_556 S
C1304 C1320 1.368 . S
H1305 C1313 0.950 . S
H1306 C1311 0.950 . S
H1307 C1312 0.949 . S
H1308 C1314 0.950 . S
H1309 C1315 0.950 . S
H1310 C1316 0.949 . S
C1311 H1306 0.950 . S
C1311 C1313 1.327 . S
C1311 C1317 1.429 . S
C1312 C1304 1.574 1_554 S
C1312 H1307 0.949 . S
C1312 C1318 1.368 1_455 S
C1313 C1297 1.349 . S
C1313 H1305 0.950 . S
C1313 C1311 1.327 . S
C1314 C1302 1.349 . S
C1314 H1308 0.950 . S
C1314 C1315 1.327 . S
C1315 H1309 0.950 . S
C1315 C1314 1.327 . S
C1315 C1319 1.429 . S
C1316 C1299 1.574 1_556 S
C1316 H1310 0.949 . S
C1316 C1320 1.368 1_655 S
C1317 C1298 1.429 . S
C1317 C1311 1.429 . S
C1317 C1318 1.523 . S
C1318 C1299 1.368 . S
C1318 C1312 1.368 1_655 S
C1318 C1317 1.523 . S
C1319 C1303 1.429 . S
C1319 C1315 1.429 . S
C1319 C1320 1.523 . S
C1320 C1304 1.368 . S
C1320 C1316 1.368 1_455 S
C1320 C1319 1.523 . S
H1321 C1296 0.950 . S
H1322 C1298 0.950 1_455 S
H1323 C1299 0.949 . S
H1324 C1301 0.950 . S
H1325 C1303 0.950 1_655 S
C1326 C1327 1.349 . S
C1326 C1328 1.327 . S
C1326 H1351 0.950 . S
C1327 C1326 1.349 . S
C1327 C1343 1.349 . S
C1328 C1326 1.327 . S
C1328 C1347 1.429 . S
C1328 H1352 0.950 1_565 S
C1329 C1346 1.574 . S
C1329 C1348 1.368 . S
C1329 H1353 0.949 . S
H1330 C1334 0.949 . S
C1331 C1332 1.349 . S
C1331 C1333 1.327 . S
C1331 H1354 0.950 . S
C1332 C1331 1.349 . S
C1332 C1344 1.349 . S
C1333 C1331 1.327 . S
C1333 C1349 1.429 . S
C1333 H1355 0.950 1_545 S
C1334 H1330 0.949 . S
C1334 C1342 1.574 . S
C1334 C1350 1.368 . S
H1335 C1343 0.950 . S
H1336 C1341 0.950 . S
H1337 C1342 0.949 . S
H1338 C1344 0.950 . S
H1339 C1345 0.950 . S
H1340 C1346 0.949 . S
C1341 H1336 0.950 . S
C1341 C1343 1.327 . S
C1341 C1347 1.429 . S
C1342 C1334 1.574 . S
C1342 H1337 0.949 . S
C1342 C1348 1.368 1_545 S
C1343 C1327 1.349 . S
C1343 H1335 0.950 . S
C1343 C1341 1.327 . S
C1344 C1332 1.349 . S
C1344 H1338 0.950 . S
C1344 C1345 1.327 . S
C1345 H1339 0.950 . S
C1345 C1344 1.327 . S
C1345 C1349 1.429 . S
C1346 C1329 1.574 . S
C1346 H1340 0.949 . S
C1346 C1350 1.368 1_565 S
C1347 C1328 1.429 . S
C1347 C1341 1.429 . S
C1347 C1348 1.523 . S
C1348 C1329 1.368 . S
C1348 C1342 1.368 1_565 S
C1348 C1347 1.523 . S
C1349 C1333 1.429 . S
C1349 C1345 1.429 . S
C1349 C1350 1.523 . S
C1350 C1334 1.368 . S
C1350 C1346 1.368 1_545 S
C1350 C1349 1.523 . S
H1351 C1326 0.950 . S
H1352 C1328 0.950 1_545 S
H1353 C1329 0.949 . S
H1354 C1331 0.950 . S
H1355 C1333 0.950 1_565 S
C1356 C1357 1.349 . S
C1356 C1358 1.327 . S
C1356 H1381 0.950 . S
C1357 C1356 1.349 . S
C1357 C1373 1.349 . S
C1358 C1356 1.327 . S
C1358 C1377 1.429 . S
C1358 H1382 0.950 . S
C1359 C1376 1.574 1_554 S
C1359 C1378 1.368 . S
C1359 H1383 0.949 . S
H1360 C1364 0.949 . S
C1361 C1362 1.349 . S
C1361 C1363 1.327 . S
C1361 H1384 0.950 . S
C1362 C1361 1.349 . S
C1362 C1374 1.349 . S
C1363 C1361 1.327 . S
C1363 C1379 1.429 . S
C1363 H1385 0.950 . S
C1364 H1360 0.949 . S
C1364 C1372 1.574 1_556 S
C1364 C1380 1.368 . S
H1365 C1373 0.950 . S
H1366 C1371 0.950 . S
H1367 C1372 0.949 . S
H1368 C1374 0.950 . S
H1369 C1375 0.950 . S
H1370 C1376 0.949 . S
C1371 H1366 0.950 . S
C1371 C1373 1.327 . S
C1371 C1377 1.429 . S
C1372 C1364 1.574 1_554 S
C1372 H1367 0.949 . S
C1372 C1378 1.368 . S
C1373 C1357 1.349 . S
C1373 H1365 0.950 . S
C1373 C1371 1.327 . S
C1374 C1362 1.349 . S
C1374 H1368 0.950 . S
C1374 C1375 1.327 . S
C1375 H1369 0.950 . S
C1375 C1374 1.327 . S
C1375 C1379 1.429 . S
C1376 C1359 1.574 1_556 S
C1376 H1370 0.949 . S
C1376 C1380 1.368 . S
C1377 C1358 1.429 . S
C1377 C1371 1.429 . S
C1377 C1378 1.523 . S
C1378 C1359 1.368 . S
C1378 C1372 1.368 . S
C1378 C1377 1.523 . S
C1379 C1363 1.429 . S
C1379 C1375 1.429 . S
C1379 C1380 1.523 . S
C1380 C1364 1.368 . S
C1380 C1376 1.368 . S
C1380 C1379 1.523 . S
H1381 C1356 0.950 . S
H1382 C1358 0.950 . S
H1383 C1359 0.949 . S
H1384 C1361 0.950 . S
H1385 C1363 0.950 . S
C1386 C1387 1.349 . S
C1386 C1388 1.327 . S
C1386 H1411 0.950 . S
C1387 C1386 1.349 . S
C1387 C1403 1.349 . S
C1388 C1386 1.327 . S
C1388 C1407 1.429 . S
C1388 H1412 0.950 . S
C1389 C1406 1.574 . S
C1389 C1408 1.368 1_655 S
C1389 H1413 0.949 . S
H1390 C1394 0.949 . S
C1391 C1392 1.349 . S
C1391 C1393 1.327 . S
C1391 H1414 0.950 . S
C1392 C1391 1.349 . S
C1392 C1404 1.349 . S
C1393 C1391 1.327 . S
C1393 C1409 1.429 . S
C1393 H1415 0.950 . S
C1394 H1390 0.949 . S
C1394 C1402 1.574 . S
C1394 C1410 1.368 1_455 S
H1395 C1403 0.950 . S
H1396 C1401 0.950 1_655 S
H1397 C1402 0.949 . S
H1398 C1404 0.950 . S
H1399 C1405 0.950 1_455 S
H1400 C1406 0.949 . S
C1401 H1396 0.950 1_455 S
C1401 C1403 1.327 . S
C1401 C1407 1.429 . S
C1402 C1394 1.574 . S
C1402 H1397 0.949 . S
C1402 C1408 1.368 . S
C1403 C1387 1.349 . S
C1403 H1395 0.950 . S
C1403 C1401 1.327 . S
C1404 C1392 1.349 . S
C1404 H1398 0.950 . S
C1404 C1405 1.327 . S
C1405 H1399 0.950 1_655 S
C1405 C1404 1.327 . S
C1405 C1409 1.429 . S
C1406 C1389 1.574 . S
C1406 H1400 0.949 . S
C1406 C1410 1.368 . S
C1407 C1388 1.429 . S
C1407 C1401 1.429 . S
C1407 C1408 1.523 . S
C1408 C1389 1.368 1_455 S
C1408 C1402 1.368 . S
C1408 C1407 1.523 . S
C1409 C1393 1.429 . S
C1409 C1405 1.429 . S
C1409 C1410 1.523 . S
C1410 C1394 1.368 1_655 S
C1410 C1406 1.368 . S
C1410 C1409 1.523 . S
H1411 C1386 0.950 . S
H1412 C1388 0.950 . S
H1413 C1389 0.949 . S
H1414 C1391 0.950 . S
H1415 C1393 0.950 . S
C1416 C1417 1.349 . S
C1416 C1418 1.327 . S
C1416 H1441 0.950 . S
C1417 C1416 1.349 . S
C1417 C1433 1.349 . S
C1418 C1416 1.327 . S
C1418 C1437 1.429 . S
C1418 H1442 0.950 . S
C1419 C1436 1.574 . S
C1419 C1438 1.368 . S
C1419 H1443 0.949 . S
H1420 C1424 0.949 . S
C1421 C1422 1.349 . S
C1421 C1423 1.327 . S
C1421 H1444 0.950 . S
C1422 C1421 1.349 . S
C1422 C1434 1.349 . S
C1423 C1421 1.327 . S
C1423 C1439 1.429 . S
C1423 H1445 0.950 . S
C1424 H1420 0.949 . S
C1424 C1432 1.574 . S
C1424 C1440 1.368 . S
H1425 C1433 0.950 . S
H1426 C1431 0.950 . S
H1427 C1432 0.949 . S
H1428 C1434 0.950 . S
H1429 C1435 0.950 . S
H1430 C1436 0.949 . S
C1431 H1426 0.950 . S
C1431 C1433 1.327 . S
C1431 C1437 1.429 . S
C1432 C1424 1.574 . S
C1432 H1427 0.949 . S
C1432 C1438 1.368 . S
C1433 C1417 1.349 . S
C1433 H1425 0.950 . S
C1433 C1431 1.327 . S
C1434 C1422 1.349 . S
C1434 H1428 0.950 . S
C1434 C1435 1.327 . S
C1435 H1429 0.950 . S
C1435 C1434 1.327 . S
C1435 C1439 1.429 . S
C1436 C1419 1.574 . S
C1436 H1430 0.949 . S
C1436 C1440 1.368 . S
C1437 C1418 1.429 . S
C1437 C1431 1.429 . S
C1437 C1438 1.523 . S
C1438 C1419 1.368 . S
C1438 C1432 1.368 . S
C1438 C1437 1.523 . S
C1439 C1423 1.429 . S
C1439 C1435 1.429 . S
C1439 C1440 1.523 . S
C1440 C1424 1.368 . S
C1440 C1436 1.368 . S
C1440 C1439 1.523 . S
H1441 C1416 0.950 . S
H1442 C1418 0.950 . S
H1443 C1419 0.949 . S
H1444 C1421 0.950 . S
H1445 C1423 0.950 . S
C1446 C1447 1.349 . S
C1446 C1448 1.327 . S
C1446 H1471 0.950 . S
C1447 C1446 1.349 . S
C1447 C1463 1.349 . S
C1448 C1446 1.327 . S
C1448 C1467 1.429 . S
C1448 H1472 0.950 . S
C1449 C1466 1.574 . S
C1449 C1468 1.368 . S
C1449 H1473 0.949 . S
H1450 C1454 0.949 . S
C1451 C1452 1.349 . S
C1451 C1453 1.327 . S
C1451 H1474 0.950 . S
C1452 C1451 1.349 . S
C1452 C1464 1.349 . S
C1453 C1451 1.327 . S
C1453 C1469 1.429 . S
C1453 H1475 0.950 . S
C1454 H1450 0.949 . S
C1454 C1462 1.574 . S
C1454 C1470 1.368 . S
H1455 C1463 0.950 . S
H1456 C1461 0.950 . S
H1457 C1462 0.949 . S
H1458 C1464 0.950 . S
H1459 C1465 0.950 . S
H1460 C1466 0.949 . S
C1461 H1456 0.950 . S
C1461 C1463 1.327 . S
C1461 C1467 1.429 . S
C1462 C1454 1.574 . S
C1462 H1457 0.949 . S
C1462 C1468 1.368 . S
C1463 C1447 1.349 . S
C1463 H1455 0.950 . S
C1463 C1461 1.327 . S
C1464 C1452 1.349 . S
C1464 H1458 0.950 . S
C1464 C1465 1.327 . S
C1465 H1459 0.950 . S
C1465 C1464 1.327 . S
C1465 C1469 1.429 . S
C1466 C1449 1.574 . S
C1466 H1460 0.949 . S
C1466 C1470 1.368 . S
C1467 C1448 1.429 . S
C1467 C1461 1.429 . S
C1467 C1468 1.523 . S
C1468 C1449 1.368 . S
C1468 C1462 1.368 . S
C1468 C1467 1.523 . S
C1469 C1453 1.429 . S
C1469 C1465 1.429 . S
C1469 C1470 1.523 . S
C1470 C1454 1.368 . S
C1470 C1466 1.368 . S
C1470 C1469 1.523 . S
H1471 C1446 0.950 . S
H1472 C1448 0.950 . S
H1473 C1449 0.949 . S
H1474 C1451 0.950 . S
H1475 C1453 0.950 . S
C1476 C1477 1.349 . S
C1476 C1478 1.327 . S
C1476 H1501 0.950 . S
C1477 C1476 1.349 . S
C1477 C1493 1.349 . S
C1478 C1476 1.327 . S
C1478 C1497 1.429 . S
C1478 H1502 0.950 . S
C1479 C1496 1.574 . S
C1479 C1498 1.368 . S
C1479 H1503 0.949 . S
H1480 C1484 0.949 . S
C1481 C1482 1.349 . S
C1481 C1483 1.327 . S
C1481 H1504 0.950 . S
C1482 C1481 1.349 . S
C1482 C1494 1.349 . S
C1483 C1481 1.327 . S
C1483 C1499 1.429 . S
C1483 H1505 0.950 . S
C1484 H1480 0.949 . S
C1484 C1492 1.574 . S
C1484 C1500 1.368 . S
H1485 C1493 0.950 . S
H1486 C1491 0.950 . S
H1487 C1492 0.949 . S
H1488 C1494 0.950 . S
H1489 C1495 0.950 . S
H1490 C1496 0.949 . S
C1491 H1486 0.950 . S
C1491 C1493 1.327 . S
C1491 C1497 1.429 . S
C1492 C1484 1.574 . S
C1492 H1487 0.949 . S
C1492 C1498 1.368 . S
C1493 C1477 1.349 . S
C1493 H1485 0.950 . S
C1493 C1491 1.327 . S
C1494 C1482 1.349 . S
C1494 H1488 0.950 . S
C1494 C1495 1.327 . S
C1495 H1489 0.950 . S
C1495 C1494 1.327 . S
C1495 C1499 1.429 . S
C1496 C1479 1.574 . S
C1496 H1490 0.949 . S
C1496 C1500 1.368 . S
C1497 C1478 1.429 . S
C1497 C1491 1.429 . S
C1497 C1498 1.523 . S
C1498 C1479 1.368 . S
C1498 C1492 1.368 . S
C1498 C1497 1.523 . S
C1499 C1483 1.429 . S
C1499 C1495 1.429 . S
C1499 C1500 1.523 . S
C1500 C1484 1.368 . S
C1500 C1496 1.368 . S
C1500 C1499 1.523 . S
H1501 C1476 0.950 . S
H1502 C1478 0.950 . S
H1503 C1479 0.949 . S
H1504 C1481 0.950 . S
H1505 C1483 0.950 . S
C1506 C1507 1.349 . S
C1506 C1508 1.327 . S
C1506 H1531 0.950 . S
C1507 C1506 1.349 . S
C1507 C1523 1.349 . S
C1508 C1506 1.327 . S
C1508 C1527 1.429 . S
C1508 H1532 0.950 . S
C1509 C1526 1.574 . S
C1509 C1528 1.368 . S
C1509 H1533 0.949 . S
H1510 C1514 0.949 . S
C1511 C1512 1.349 . S
C1511 C1513 1.327 . S
C1511 H1534 0.950 . S
C1512 C1511 1.349 . S
C1512 C1524 1.349 . S
C1513 C1511 1.327 . S
C1513 C1529 1.429 . S
C1513 H1535 0.950 . S
C1514 H1510 0.949 . S
C1514 C1522 1.574 . S
C1514 C1530 1.368 . S
H1515 C1523 0.950 . S
H1516 C1521 0.950 . S
H1517 C1522 0.949 . S
H1518 C1524 0.950 . S
H1519 C1525 0.950 . S
H1520 C1526 0.949 . S
C1521 H1516 0.950 . S
C1521 C1523 1.327 . S
C1521 C1527 1.429 . S
C1522 C1514 1.574 . S
C1522 H1517 0.949 . S
C1522 C1528 1.368 . S
C1523 C1507 1.349 . S
C1523 H1515 0.950 . S
C1523 C1521 1.327 . S
C1524 C1512 1.349 . S
C1524 H1518 0.950 . S
C1524 C1525 1.327 . S
C1525 H1519 0.950 . S
C1525 C1524 1.327 . S
C1525 C1529 1.429 . S
C1526 C1509 1.574 . S
C1526 H1520 0.949 . S
C1526 C1530 1.368 . S
C1527 C1508 1.429 . S
C1527 C1521 1.429 . S
C1527 C1528 1.523 . S
C1528 C1509 1.368 . S
C1528 C1522 1.368 . S
C1528 C1527 1.523 . S
C1529 C1513 1.429 . S
C1529 C1525 1.429 . S
C1529 C1530 1.523 . S
C1530 C1514 1.368 . S
C1530 C1526 1.368 . S
C1530 C1529 1.523 . S
H1531 C1506 0.950 . S
H1532 C1508 0.950 . S
H1533 C1509 0.949 . S
H1534 C1511 0.950 . S
H1535 C1513 0.950 . S
C1536 C1537 1.349 . S
C1536 C1538 1.327 . S
C1536 H1561 0.950 . S
C1537 C1536 1.349 . S
C1537 C1553 1.349 . S
C1538 C1536 1.327 . S
C1538 C1557 1.429 . S
C1538 H1562 0.950 . S
C1539 C1556 1.574 . S
C1539 C1558 1.368 . S
C1539 H1563 0.949 . S
H1540 C1544 0.949 . S
C1541 C1542 1.349 . S
C1541 C1543 1.327 . S
C1541 H1564 0.950 . S
C1542 C1541 1.349 . S
C1542 C1554 1.349 . S
C1543 C1541 1.327 . S
C1543 C1559 1.429 . S
C1543 H1565 0.950 . S
C1544 H1540 0.949 . S
C1544 C1552 1.574 . S
C1544 C1560 1.368 . S
H1545 C1553 0.950 . S
H1546 C1551 0.950 . S
H1547 C1552 0.949 . S
H1548 C1554 0.950 . S
H1549 C1555 0.950 . S
H1550 C1556 0.949 . S
C1551 H1546 0.950 . S
C1551 C1553 1.327 . S
C1551 C1557 1.429 . S
C1552 C1544 1.574 . S
C1552 H1547 0.949 . S
C1552 C1558 1.368 . S
C1553 C1537 1.349 . S
C1553 H1545 0.950 . S
C1553 C1551 1.327 . S
C1554 C1542 1.349 . S
C1554 H1548 0.950 . S
C1554 C1555 1.327 . S
C1555 H1549 0.950 . S
C1555 C1554 1.327 . S
C1555 C1559 1.429 . S
C1556 C1539 1.574 . S
C1556 H1550 0.949 . S
C1556 C1560 1.368 . S
C1557 C1538 1.429 . S
C1557 C1551 1.429 . S
C1557 C1558 1.523 . S
C1558 C1539 1.368 . S
C1558 C1552 1.368 . S
C1558 C1557 1.523 . S
C1559 C1543 1.429 . S
C1559 C1555 1.429 . S
C1559 C1560 1.523 . S
C1560 C1544 1.368 . S
C1560 C1556 1.368 . S
C1560 C1559 1.523 . S
H1561 C1536 0.950 . S
H1562 C1538 0.950 . S
H1563 C1539 0.949 . S
H1564 C1541 0.950 . S
H1565 C1543 0.950 . S
C1566 C1567 1.349 . S
C1566 C1568 1.327 . S
C1566 H1591 0.950 . S
C1567 C1566 1.349 . S
C1567 C1583 1.349 . S
C1568 C1566 1.327 . S
C1568 C1587 1.429 . S
C1568 H1592 0.950 . S
C1569 C1586 1.574 . S
C1569 C1588 1.368 . S
C1569 H1593 0.949 . S
H1570 C1574 0.949 . S
C1571 C1572 1.349 . S
C1571 C1573 1.327 . S
C1571 H1594 0.950 . S
C1572 C1571 1.349 . S
C1572 C1584 1.349 . S
C1573 C1571 1.327 . S
C1573 C1589 1.429 . S
C1573 H1595 0.950 . S
C1574 H1570 0.949 . S
C1574 C1582 1.574 . S
C1574 C1590 1.368 . S
H1575 C1583 0.950 . S
H1576 C1581 0.950 . S
H1577 C1582 0.949 . S
H1578 C1584 0.950 . S
H1579 C1585 0.950 . S
H1580 C1586 0.949 . S
C1581 H1576 0.950 . S
C1581 C1583 1.327 . S
C1581 C1587 1.429 . S
C1582 C1574 1.574 . S
C1582 H1577 0.949 . S
C1582 C1588 1.368 . S
C1583 C1567 1.349 . S
C1583 H1575 0.950 . S
C1583 C1581 1.327 . S
C1584 C1572 1.349 . S
C1584 H1578 0.950 . S
C1584 C1585 1.327 . S
C1585 H1579 0.950 . S
C1585 C1584 1.327 . S
C1585 C1589 1.429 . S
C1586 C1569 1.574 . S
C1586 H1580 0.949 . S
C1586 C1590 1.368 . S
C1587 C1568 1.429 . S
C1587 C1581 1.429 . S
C1587 C1588 1.523 . S
C1588 C1569 1.368 . S
C1588 C1582 1.368 . S
C1588 C1587 1.523 . S
C1589 C1573 1.429 . S
C1589 C1585 1.429 . S
C1589 C1590 1.523 . S
C1590 C1574 1.368 . S
C1590 C1586 1.368 . S
C1590 C1589 1.523 . S
H1591 C1566 0.950 . S
H1592 C1568 0.950 . S
H1593 C1569 0.949 . S
H1594 C1571 0.950 . S
H1595 C1573 0.950 . S
C1596 C1597 1.349 . S
C1596 C1598 1.327 . S
C1596 H1621 0.950 . S
C1597 C1596 1.349 . S
C1597 C1613 1.349 . S
C1598 C1596 1.327 . S
C1598 C1617 1.429 . S
C1598 H1622 0.950 . S
C1599 C1616 1.574 . S
C1599 C1618 1.368 . S
C1599 H1623 0.949 . S
H1600 C1604 0.949 . S
C1601 C1602 1.349 . S
C1601 C1603 1.327 . S
C1601 H1624 0.950 . S
C1602 C1601 1.349 . S
C1602 C1614 1.349 . S
C1603 C1601 1.327 . S
C1603 C1619 1.429 . S
C1603 H1625 0.950 . S
C1604 H1600 0.949 . S
C1604 C1612 1.574 . S
C1604 C1620 1.368 . S
H1605 C1613 0.950 . S
H1606 C1611 0.950 . S
H1607 C1612 0.949 . S
H1608 C1614 0.950 . S
H1609 C1615 0.950 . S
H1610 C1616 0.949 . S
C1611 H1606 0.950 . S
C1611 C1613 1.327 . S
C1611 C1617 1.429 . S
C1612 C1604 1.574 . S
C1612 H1607 0.949 . S
C1612 C1618 1.368 . S
C1613 C1597 1.349 . S
C1613 H1605 0.950 . S
C1613 C1611 1.327 . S
C1614 C1602 1.349 . S
C1614 H1608 0.950 . S
C1614 C1615 1.327 . S
C1615 H1609 0.950 . S
C1615 C1614 1.327 . S
C1615 C1619 1.429 . S
C1616 C1599 1.574 . S
C1616 H1610 0.949 . S
C1616 C1620 1.368 . S
C1617 C1598 1.429 . S
C1617 C1611 1.429 . S
C1617 C1618 1.523 . S
C1618 C1599 1.368 . S
C1618 C1612 1.368 . S
C1618 C1617 1.523 . S
C1619 C1603 1.429 . S
C1619 C1615 1.429 . S
C1619 C1620 1.523 . S
C1620 C1604 1.368 . S
C1620 C1616 1.368 . S
C1620 C1619 1.523 . S
H1621 C1596 0.950 . S
H1622 C1598 0.950 . S
H1623 C1599 0.949 . S
H1624 C1601 0.950 . S
H1625 C1603 0.950 . S
C1626 C1627 1.349 . S
C1626 C1628 1.327 . S
C1626 H1651 0.950 . S
C1627 C1626 1.349 . S
C1627 C1643 1.349 . S
C1628 C1626 1.327 . S
C1628 C1647 1.429 . S
C1628 H1652 0.950 . S
C1629 C1646 1.574 . S
C1629 C1648 1.368 . S
C1629 H1653 0.949 . S
H1630 C1634 0.949 . S
C1631 C1632 1.349 . S
C1631 C1633 1.327 . S
C1631 H1654 0.950 . S
C1632 C1631 1.349 . S
C1632 C1644 1.349 . S
C1633 C1631 1.327 . S
C1633 C1649 1.429 . S
C1633 H1655 0.950 . S
C1634 H1630 0.949 . S
C1634 C1642 1.574 . S
C1634 C1650 1.368 . S
H1635 C1643 0.950 . S
H1636 C1641 0.950 . S
H1637 C1642 0.949 . S
H1638 C1644 0.950 . S
H1639 C1645 0.950 . S
H1640 C1646 0.949 . S
C1641 H1636 0.950 . S
C1641 C1643 1.327 . S
C1641 C1647 1.429 . S
C1642 C1634 1.574 . S
C1642 H1637 0.949 . S
C1642 C1648 1.368 . S
C1643 C1627 1.349 . S
C1643 H1635 0.950 . S
C1643 C1641 1.327 . S
C1644 C1632 1.349 . S
C1644 H1638 0.950 . S
C1644 C1645 1.327 . S
C1645 H1639 0.950 . S
C1645 C1644 1.327 . S
C1645 C1649 1.429 . S
C1646 C1629 1.574 . S
C1646 H1640 0.949 . S
C1646 C1650 1.368 . S
C1647 C1628 1.429 . S
C1647 C1641 1.429 . S
C1647 C1648 1.523 . S
C1648 C1629 1.368 . S
C1648 C1642 1.368 . S
C1648 C1647 1.523 . S
C1649 C1633 1.429 . S
C1649 C1645 1.429 . S
C1649 C1650 1.523 . S
C1650 C1634 1.368 . S
C1650 C1646 1.368 . S
C1650 C1649 1.523 . S
H1651 C1626 0.950 . S
H1652 C1628 0.950 . S
H1653 C1629 0.949 . S
H1654 C1631 0.950 . S
H1655 C1633 0.950 . S
C1656 C1657 1.349 . S
C1656 C1658 1.327 . S
C1656 H1681 0.950 . S
C1657 C1656 1.349 . S
C1657 C1673 1.349 . S
C1658 C1656 1.327 . S
C1658 C1677 1.429 . S
C1658 H1682 0.950 . S
C1659 C1676 1.574 . S
C1659 C1678 1.368 . S
C1659 H1683 0.949 . S
H1660 C1664 0.949 . S
C1661 C1662 1.349 . S
C1661 C1663 1.327 . S
C1661 H1684 0.950 . S
C1662 C1661 1.349 . S
C1662 C1674 1.349 . S
C1663 C1661 1.327 . S
C1663 C1679 1.429 . S
C1663 H1685 0.950 . S
C1664 H1660 0.949 . S
C1664 C1672 1.574 . S
C1664 C1680 1.368 . S
H1665 C1673 0.950 . S
H1666 C1671 0.950 . S
H1667 C1672 0.949 . S
H1668 C1674 0.950 . S
H1669 C1675 0.950 . S
H1670 C1676 0.949 . S
C1671 H1666 0.950 . S
C1671 C1673 1.327 . S
C1671 C1677 1.429 . S
C1672 C1664 1.574 . S
C1672 H1667 0.949 . S
C1672 C1678 1.368 . S
C1673 C1657 1.349 . S
C1673 H1665 0.950 . S
C1673 C1671 1.327 . S
C1674 C1662 1.349 . S
C1674 H1668 0.950 . S
C1674 C1675 1.327 . S
C1675 H1669 0.950 . S
C1675 C1674 1.327 . S
C1675 C1679 1.429 . S
C1676 C1659 1.574 . S
C1676 H1670 0.949 . S
C1676 C1680 1.368 . S
C1677 C1658 1.429 . S
C1677 C1671 1.429 . S
C1677 C1678 1.523 . S
C1678 C1659 1.368 . S
C1678 C1672 1.368 . S
C1678 C1677 1.523 . S
C1679 C1663 1.429 . S
C1679 C1675 1.429 . S
C1679 C1680 1.523 . S
C1680 C1664 1.368 . S
C1680 C1676 1.368 . S
C1680 C1679 1.523 . S
H1681 C1656 0.950 . S
H1682 C1658 0.950 . S
H1683 C1659 0.949 . S
H1684 C1661 0.950 . S
H1685 C1663 0.950 . S
C1686 C1687 1.349 . S
C1686 C1688 1.327 . S
C1686 H1711 0.950 . S
C1687 C1686 1.349 . S
C1687 C1703 1.349 . S
C1688 C1686 1.327 . S
C1688 C1707 1.429 . S
C1688 H1712 0.950 . S
C1689 C1706 1.574 . S
C1689 C1708 1.368 . S
C1689 H1713 0.949 . S
H1690 C1694 0.949 . S
C1691 C1692 1.349 . S
C1691 C1693 1.327 . S
C1691 H1714 0.950 . S
C1692 C1691 1.349 . S
C1692 C1704 1.349 . S
C1693 C1691 1.327 . S
C1693 C1709 1.429 . S
C1693 H1715 0.950 . S
C1694 H1690 0.949 . S
C1694 C1702 1.574 . S
C1694 C1710 1.368 . S
H1695 C1703 0.950 . S
H1696 C1701 0.950 . S
H1697 C1702 0.949 . S
H1698 C1704 0.950 . S
H1699 C1705 0.950 . S
H1700 C1706 0.949 . S
C1701 H1696 0.950 . S
C1701 C1703 1.327 . S
C1701 C1707 1.429 . S
C1702 C1694 1.574 . S
C1702 H1697 0.949 . S
C1702 C1708 1.368 . S
C1703 C1687 1.349 . S
C1703 H1695 0.950 . S
C1703 C1701 1.327 . S
C1704 C1692 1.349 . S
C1704 H1698 0.950 . S
C1704 C1705 1.327 . S
C1705 H1699 0.950 . S
C1705 C1704 1.327 . S
C1705 C1709 1.429 . S
C1706 C1689 1.574 . S
C1706 H1700 0.949 . S
C1706 C1710 1.368 . S
C1707 C1688 1.429 . S
C1707 C1701 1.429 . S
C1707 C1708 1.523 . S
C1708 C1689 1.368 . S
C1708 C1702 1.368 . S
C1708 C1707 1.523 . S
C1709 C1693 1.429 . S
C1709 C1705 1.429 . S
C1709 C1710 1.523 . S
C1710 C1694 1.368 . S
C1710 C1706 1.368 . S
C1710 C1709 1.523 . S
H1711 C1686 0.950 . S
H1712 C1688 0.950 . S
H1713 C1689 0.949 . S
H1714 C1691 0.950 . S
H1715 C1693 0.950 . S
C1716 C1717 1.349 . S
C1716 C1718 1.327 . S
C1716 H1741 0.950 . S
C1717 C1716 1.349 . S
C1717 C1733 1.349 . S
C1718 C1716 1.327 . S
C1718 C1737 1.429 . S
C1718 H1742 0.950 . S
C1719 C1736 1.574 . S
C1719 C1738 1.368 . S
C1719 H1743 0.949 . S
H1720 C1724 0.949 . S
C1721 C1722 1.349 . S
C1721 C1723 1.327 . S
C1721 H1744 0.950 . S
C1722 C1721 1.349 . S
C1722 C1734 1.349 . S
C1723 C1721 1.327 . S
C1723 C1739 1.429 . S
C1723 H1745 0.950 . S
C1724 H1720 0.949 . S
C1724 C1732 1.574 . S
C1724 C1740 1.368 . S
H1725 C1733 0.950 . S
H1726 C1731 0.950 . S
H1727 C1732 0.949 . S
H1728 C1734 0.950 . S
H1729 C1735 0.950 . S
H1730 C1736 0.949 . S
C1731 H1726 0.950 . S
C1731 C1733 1.327 . S
C1731 C1737 1.429 . S
C1732 C1724 1.574 . S
C1732 H1727 0.949 . S
C1732 C1738 1.368 . S
C1733 C1717 1.349 . S
C1733 H1725 0.950 . S
C1733 C1731 1.327 . S
C1734 C1722 1.349 . S
C1734 H1728 0.950 . S
C1734 C1735 1.327 . S
C1735 H1729 0.950 . S
C1735 C1734 1.327 . S
C1735 C1739 1.429 . S
C1736 C1719 1.574 . S
C1736 H1730 0.949 . S
C1736 C1740 1.368 . S
C1737 C1718 1.429 . S
C1737 C1731 1.429 . S
C1737 C1738 1.523 . S
C1738 C1719 1.368 . S
C1738 C1732 1.368 . S
C1738 C1737 1.523 . S
C1739 C1723 1.429 . S
C1739 C1735 1.429 . S
C1739 C1740 1.523 . S
C1740 C1724 1.368 . S
C1740 C1736 1.368 . S
C1740 C1739 1.523 . S
H1741 C1716 0.950 . S
H1742 C1718 0.950 . S
H1743 C1719 0.949 . S
H1744 C1721 0.950 . S
H1745 C1723 0.950 . S
C1746 C1747 1.349 . S
C1746 C1748 1.327 . S
C1746 H1771 0.950 . S
C1747 C1746 1.349 . S
C1747 C1763 1.349 . S
C1748 C1746 1.327 . S
C1748 C1767 1.429 . S
C1748 H1772 0.950 . S
C1749 C1766 1.574 . S
C1749 C1768 1.368 . S
C1749 H1773 0.949 . S
H1750 C1754 0.949 . S
C1751 C1752 1.349 . S
C1751 C1753 1.327 . S
C1751 H1774 0.950 . S
C1752 C1751 1.349 . S
C1752 C1764 1.349 . S
C1753 C1751 1.327 . S
C1753 C1769 1.429 . S
C1753 H1775 0.950 . S
C1754 H1750 0.949 . S
C1754 C1762 1.574 . S
C1754 C1770 1.368 . S
H1755 C1763 0.950 . S
H1756 C1761 0.950 . S
H1757 C1762 0.949 . S
H1758 C1764 0.950 . S
H1759 C1765 0.950 . S
H1760 C1766 0.949 . S
C1761 H1756 0.950 . S
C1761 C1763 1.327 . S
C1761 C1767 1.429 . S
C1762 C1754 1.574 . S
C1762 H1757 0.949 . S
C1762 C1768 1.368 . S
C1763 C1747 1.349 . S
C1763 H1755 0.950 . S
C1763 C1761 1.327 . S
C1764 C1752 1.349 . S
C1764 H1758 0.950 . S
C1764 C1765 1.327 . S
C1765 H1759 0.950 . S
C1765 C1764 1.327 . S
C1765 C1769 1.429 . S
C1766 C1749 1.574 . S
C1766 H1760 0.949 . S
C1766 C1770 1.368 . S
C1767 C1748 1.429 . S
C1767 C1761 1.429 . S
C1767 C1768 1.523 . S
C1768 C1749 1.368 . S
C1768 C1762 1.368 . S
C1768 C1767 1.523 . S
C1769 C1753 1.429 . S
C1769 C1765 1.429 . S
C1769 C1770 1.523 . S
C1770 C1754 1.368 . S
C1770 C1766 1.368 . S
C1770 C1769 1.523 . S
H1771 C1746 0.950 . S
H1772 C1748 0.950 . S
H1773 C1749 0.949 . S
H1774 C1751 0.950 . S
H1775 C1753 0.950 . S
C337 C218 1.249 . S
C342 C8 1.249 . S
C367 C22 1.249 . S
C372 C232 1.249 . S
C397 C36 1.249 . S
C402 C246 1.249 . S
C427 C50 1.249 . S
C432 C176 1.249 . S
C457 C190 1.249 . S
C462 C64 1.249 . S
C487 C78 1.249 . S
C492 C204 1.249 . S
C517 C302 1.249 . S
C522 C92 1.249 . S
C547 C106 1.249 . S
C552 C316 1.249 . S
C577 C120 1.249 . S
C582 C330 1.249 . S
C607 C260 1.249 . S
C612 C134 1.249 . S
C637 C148 1.249 . S
C642 C274 1.249 . S
C667 C288 1.249 . S
C672 C162 1.249 . S
C697 C6 1.663 . S
C702 C328 1.663 . S
C727 C258 1.663 . S
C732 C20 1.663 . S
C757 C34 1.663 . S
C762 C272 1.663 . S
C787 C286 1.663 . S
C792 C48 1.663 . S
C817 C62 1.663 . S
C822 C300 1.663 . S
C847 C314 1.663 . S
C852 C76 1.663 . S
C877 C90 1.663 . S
C882 C188 1.663 . S
C907 C202 1.663 . S
C912 C104 1.663 . S
C937 C216 1.663 . S
C942 C118 1.663 . S
C967 C230 1.663 . S
C972 C132 1.663 . S
C997 C146 1.663 . S
C1002 C244 1.663 . S
C1027 C160 1.663 . S
C1032 C174 1.663 . S
C1057 C105 1.298 . S
C1062 C7 1.298 . S
C1087 C119 1.298 . S
C1092 C21 1.298 . S
C1117 C133 1.298 . S
C1122 C35 1.298 . S
C1147 C147 1.298 . S
C1152 C49 1.298 . S
C1177 C63 1.298 . S
C1182 C161 1.298 . S
C1207 C77 1.298 . S
C1212 C91 1.298 . S
C1237 C175 1.298 . S
C1242 C273 1.298 . S
C1267 C189 1.298 . S
C1272 C287 1.298 . S
C1297 C301 1.298 . S
C1302 C203 1.298 . S
C1327 C315 1.298 . S
C1332 C217 1.298 . S
C1357 C329 1.298 . S
C1362 C231 1.298 . S
C1387 C259 1.298 . S
C1392 C245 1.298 . S
C1417 C9 1.821 . S
C1422 C275 1.821 . S
C1447 C289 1.821 . S
C1452 C23 1.821 . S
C1477 C37 1.821 . S
C1482 C303 1.821 . S
C1507 C317 1.821 . S
C1512 C51 1.821 . S
C1537 C65 1.821 . S
C1542 C331 1.821 . S
C1567 C261 1.821 . S
C1572 C79 1.821 . S
C1597 C93 1.821 . S
C1602 C247 1.821 . S
C1627 C177 1.821 . S
C1632 C107 1.821 . S
C1657 C121 1.821 . S
C1662 C191 1.821 . S
C1687 C135 1.821 . S
C1692 C205 1.821 . S
C1717 C149 1.821 . S
C1722 C219 1.821 . S
C1747 C163 1.821 . S
C1752 C233 1.821 . S
