# Generated by pormake.
# Topology yfu, (5)-cn, num edge types: 1
# Building blocks:
#     Node 0, Type 0, BuildingBlock: XOMCOT_clean_sbu_0, # of connection points: 5
#     Node 1, Type 0, BuildingBlock: XOMCOT_clean_sbu_0, # of connection points: 5
#     Node 2, Type 0, BuildingBlock: XOMCOT_clean_sbu_0, # of connection points: 5
#     Node 3, Type 0, BuildingBlock: XOMCOT_clean_sbu_0, # of connection points: 5
#     Node 4, Type 0, BuildingBlock: XOMCOT_clean_sbu_0, # of connection points: 5
#     Node 5, Type 0, BuildingBlock: XOMCOT_clean_sbu_0, # of connection points: 5
#     Node 6, Type 0, BuildingBlock: XOMCOT_clean_sbu_0, # of connection points: 5
#     Node 7, Type 0, BuildingBlock: XOMCOT_clean_sbu_0, # of connection points: 5
#     Node 8, Type 0, BuildingBlock: XOMCOT_clean_sbu_0, # of connection points: 5
#     Node 9, Type 0, BuildingBlock: XOMCOT_clean_sbu_0, # of connection points: 5
#     Node 10, Type 0, BuildingBlock: XOMCOT_clean_sbu_0, # of connection points: 5
#     Node 11, Type 0, BuildingBlock: XOMCOT_clean_sbu_0, # of connection points: 5
#     Node 12, Type 0, BuildingBlock: XOMCOT_clean_sbu_0, # of connection points: 5
#     Node 13, Type 0, BuildingBlock: XOMCOT_clean_sbu_0, # of connection points: 5
#     Node 14, Type 0, BuildingBlock: XOMCOT_clean_sbu_0, # of connection points: 5
#     Node 15, Type 0, BuildingBlock: XOMCOT_clean_sbu_0, # of connection points: 5
#     Node 16, Type 0, BuildingBlock: XOMCOT_clean_sbu_0, # of connection points: 5
#     Node 17, Type 0, BuildingBlock: XOMCOT_clean_sbu_0, # of connection points: 5
#     Node 18, Type 0, BuildingBlock: XOMCOT_clean_sbu_0, # of connection points: 5
#     Node 19, Type 0, BuildingBlock: XOMCOT_clean_sbu_0, # of connection points: 5
#     Node 20, Type 0, BuildingBlock: XOMCOT_clean_sbu_0, # of connection points: 5
#     Node 21, Type 0, BuildingBlock: XOMCOT_clean_sbu_0, # of connection points: 5
#     Node 22, Type 0, BuildingBlock: XOMCOT_clean_sbu_0, # of connection points: 5
#     Node 23, Type 0, BuildingBlock: XOMCOT_clean_sbu_0, # of connection points: 5
#     Node 24, Type 0, BuildingBlock: XOMCOT_clean_sbu_0, # of connection points: 5
#     Node 25, Type 0, BuildingBlock: XOMCOT_clean_sbu_0, # of connection points: 5
#     Node 26, Type 0, BuildingBlock: XOMCOT_clean_sbu_0, # of connection points: 5
#     Node 27, Type 0, BuildingBlock: XOMCOT_clean_sbu_0, # of connection points: 5
#     Node 28, Type 0, BuildingBlock: XOMCOT_clean_sbu_0, # of connection points: 5
#     Node 29, Type 0, BuildingBlock: XOMCOT_clean_sbu_0, # of connection points: 5
#     Node 30, Type 0, BuildingBlock: XOMCOT_clean_sbu_0, # of connection points: 5
#     Node 31, Type 0, BuildingBlock: XOMCOT_clean_sbu_0, # of connection points: 5
#     Edge 32, Type (0, 0), BuildingBlock: EZIPEK_clean_linker_0, # of connection points: 2
#     Edge 33, Type (0, 0), BuildingBlock: EZIPEK_clean_linker_0, # of connection points: 2
#     Edge 34, Type (0, 0), BuildingBlock: EZIPEK_clean_linker_0, # of connection points: 2
#     Edge 35, Type (0, 0), BuildingBlock: EZIPEK_clean_linker_0, # of connection points: 2
#     Edge 36, Type (0, 0), BuildingBlock: EZIPEK_clean_linker_0, # of connection points: 2
#     Edge 37, Type (0, 0), BuildingBlock: EZIPEK_clean_linker_0, # of connection points: 2
#     Edge 38, Type (0, 0), BuildingBlock: EZIPEK_clean_linker_0, # of connection points: 2
#     Edge 39, Type (0, 0), BuildingBlock: EZIPEK_clean_linker_0, # of connection points: 2
#     Edge 40, Type (0, 0), BuildingBlock: EZIPEK_clean_linker_0, # of connection points: 2
#     Edge 41, Type (0, 0), BuildingBlock: EZIPEK_clean_linker_0, # of connection points: 2
#     Edge 42, Type (0, 0), BuildingBlock: EZIPEK_clean_linker_0, # of connection points: 2
#     Edge 43, Type (0, 0), BuildingBlock: EZIPEK_clean_linker_0, # of connection points: 2
#     Edge 44, Type (0, 0), BuildingBlock: EZIPEK_clean_linker_0, # of connection points: 2
#     Edge 45, Type (0, 0), BuildingBlock: EZIPEK_clean_linker_0, # of connection points: 2
#     Edge 46, Type (0, 0), BuildingBlock: EZIPEK_clean_linker_0, # of connection points: 2
#     Edge 47, Type (0, 0), BuildingBlock: EZIPEK_clean_linker_0, # of connection points: 2
#     Edge 48, Type (0, 0), BuildingBlock: EZIPEK_clean_linker_0, # of connection points: 2
#     Edge 49, Type (0, 0), BuildingBlock: EZIPEK_clean_linker_0, # of connection points: 2
#     Edge 50, Type (0, 0), BuildingBlock: EZIPEK_clean_linker_0, # of connection points: 2
#     Edge 51, Type (0, 0), BuildingBlock: EZIPEK_clean_linker_0, # of connection points: 2
#     Edge 52, Type (0, 0), BuildingBlock: EZIPEK_clean_linker_0, # of connection points: 2
#     Edge 53, Type (0, 0), BuildingBlock: EZIPEK_clean_linker_0, # of connection points: 2
#     Edge 54, Type (0, 0), BuildingBlock: EZIPEK_clean_linker_0, # of connection points: 2
#     Edge 55, Type (0, 0), BuildingBlock: EZIPEK_clean_linker_0, # of connection points: 2
#     Edge 56, Type (0, 0), BuildingBlock: EZIPEK_clean_linker_0, # of connection points: 2
#     Edge 57, Type (0, 0), BuildingBlock: EZIPEK_clean_linker_0, # of connection points: 2
#     Edge 58, Type (0, 0), BuildingBlock: EZIPEK_clean_linker_0, # of connection points: 2
#     Edge 59, Type (0, 0), BuildingBlock: EZIPEK_clean_linker_0, # of connection points: 2
#     Edge 60, Type (0, 0), BuildingBlock: EZIPEK_clean_linker_0, # of connection points: 2
#     Edge 61, Type (0, 0), BuildingBlock: EZIPEK_clean_linker_0, # of connection points: 2
#     Edge 62, Type (0, 0), BuildingBlock: EZIPEK_clean_linker_0, # of connection points: 2
#     Edge 63, Type (0, 0), BuildingBlock: EZIPEK_clean_linker_0, # of connection points: 2
#     Edge 64, Type (0, 0), BuildingBlock: EZIPEK_clean_linker_0, # of connection points: 2
#     Edge 65, Type (0, 0), BuildingBlock: EZIPEK_clean_linker_0, # of connection points: 2
#     Edge 66, Type (0, 0), BuildingBlock: EZIPEK_clean_linker_0, # of connection points: 2
#     Edge 67, Type (0, 0), BuildingBlock: EZIPEK_clean_linker_0, # of connection points: 2
#     Edge 68, Type (0, 0), BuildingBlock: EZIPEK_clean_linker_0, # of connection points: 2
#     Edge 69, Type (0, 0), BuildingBlock: EZIPEK_clean_linker_0, # of connection points: 2
#     Edge 70, Type (0, 0), BuildingBlock: EZIPEK_clean_linker_0, # of connection points: 2
#     Edge 71, Type (0, 0), BuildingBlock: EZIPEK_clean_linker_0, # of connection points: 2
#     Edge 72, Type (0, 0), BuildingBlock: EZIPEK_clean_linker_0, # of connection points: 2
#     Edge 73, Type (0, 0), BuildingBlock: EZIPEK_clean_linker_0, # of connection points: 2
#     Edge 74, Type (0, 0), BuildingBlock: EZIPEK_clean_linker_0, # of connection points: 2
#     Edge 75, Type (0, 0), BuildingBlock: EZIPEK_clean_linker_0, # of connection points: 2
#     Edge 76, Type (0, 0), BuildingBlock: EZIPEK_clean_linker_0, # of connection points: 2
#     Edge 77, Type (0, 0), BuildingBlock: EZIPEK_clean_linker_0, # of connection points: 2
#     Edge 78, Type (0, 0), BuildingBlock: EZIPEK_clean_linker_0, # of connection points: 2
#     Edge 79, Type (0, 0), BuildingBlock: EZIPEK_clean_linker_0, # of connection points: 2
#     Edge 80, Type (0, 0), BuildingBlock: EZIPEK_clean_linker_0, # of connection points: 2
#     Edge 81, Type (0, 0), BuildingBlock: EZIPEK_clean_linker_0, # of connection points: 2
#     Edge 82, Type (0, 0), BuildingBlock: EZIPEK_clean_linker_0, # of connection points: 2
#     Edge 83, Type (0, 0), BuildingBlock: EZIPEK_clean_linker_0, # of connection points: 2
#     Edge 84, Type (0, 0), BuildingBlock: EZIPEK_clean_linker_0, # of connection points: 2
#     Edge 85, Type (0, 0), BuildingBlock: EZIPEK_clean_linker_0, # of connection points: 2
#     Edge 86, Type (0, 0), BuildingBlock: EZIPEK_clean_linker_0, # of connection points: 2
#     Edge 87, Type (0, 0), BuildingBlock: EZIPEK_clean_linker_0, # of connection points: 2
#     Edge 88, Type (0, 0), BuildingBlock: EZIPEK_clean_linker_0, # of connection points: 2
#     Edge 89, Type (0, 0), BuildingBlock: EZIPEK_clean_linker_0, # of connection points: 2
#     Edge 90, Type (0, 0), BuildingBlock: EZIPEK_clean_linker_0, # of connection points: 2
#     Edge 91, Type (0, 0), BuildingBlock: EZIPEK_clean_linker_0, # of connection points: 2
#     Edge 92, Type (0, 0), BuildingBlock: EZIPEK_clean_linker_0, # of connection points: 2
#     Edge 93, Type (0, 0), BuildingBlock: EZIPEK_clean_linker_0, # of connection points: 2
#     Edge 94, Type (0, 0), BuildingBlock: EZIPEK_clean_linker_0, # of connection points: 2
#     Edge 95, Type (0, 0), BuildingBlock: EZIPEK_clean_linker_0, # of connection points: 2
#     Edge 96, Type (0, 0), BuildingBlock: EZIPEK_clean_linker_0, # of connection points: 2
#     Edge 97, Type (0, 0), BuildingBlock: EZIPEK_clean_linker_0, # of connection points: 2
#     Edge 98, Type (0, 0), BuildingBlock: EZIPEK_clean_linker_0, # of connection points: 2
#     Edge 99, Type (0, 0), BuildingBlock: EZIPEK_clean_linker_0, # of connection points: 2
#     Edge 100, Type (0, 0), BuildingBlock: EZIPEK_clean_linker_0, # of connection points: 2
#     Edge 101, Type (0, 0), BuildingBlock: EZIPEK_clean_linker_0, # of connection points: 2
#     Edge 102, Type (0, 0), BuildingBlock: EZIPEK_clean_linker_0, # of connection points: 2
#     Edge 103, Type (0, 0), BuildingBlock: EZIPEK_clean_linker_0, # of connection points: 2
#     Edge 104, Type (0, 0), BuildingBlock: EZIPEK_clean_linker_0, # of connection points: 2
#     Edge 105, Type (0, 0), BuildingBlock: EZIPEK_clean_linker_0, # of connection points: 2
#     Edge 106, Type (0, 0), BuildingBlock: EZIPEK_clean_linker_0, # of connection points: 2
#     Edge 107, Type (0, 0), BuildingBlock: EZIPEK_clean_linker_0, # of connection points: 2
#     Edge 108, Type (0, 0), BuildingBlock: EZIPEK_clean_linker_0, # of connection points: 2
#     Edge 109, Type (0, 0), BuildingBlock: EZIPEK_clean_linker_0, # of connection points: 2
#     Edge 110, Type (0, 0), BuildingBlock: EZIPEK_clean_linker_0, # of connection points: 2
#     Edge 111, Type (0, 0), BuildingBlock: EZIPEK_clean_linker_0, # of connection points: 2
# Relax obj value: 0.353
# Max RMSD: 0.253
# Mean RMSD: 0.253
data_MOF--net-yfu--node1-XOMCOT_clean_sbu_0--edge1-EZIPEK_clean_linker_0
_symmetry_space_group_name_H-M    P1
_symmetry_Int_Tables_number       1
_symmetry_cell_setting            triclinic
loop_
_symmetry_equiv_pos_as_xyz
'x, y, z'
_cell_length_a     34.018991
_cell_length_b     34.023009
_cell_length_c     74.204298
_cell_angle_alpha  89.900374
_cell_angle_beta   90.118433
_cell_angle_gamma 89.836915
loop_
_atom_site_label
_atom_site_type_symbol
_atom_site_fract_x
_atom_site_fract_y
_atom_site_fract_z
_atom_type_partial_charge
Co0 Co 0.06219 0.06623 0.358 0.0
C1 C 0.10582 0.99515 0.36861 0.0
C2 C 0.06111 0.00965 0.38791 0.0
C3 C 0.08192 0.97758 0.39422 0.0
N4 N 0.0762 0.02049 0.37188 0.0
N5 N 0.10983 0.9687 0.38202 0.0
H6 H 0.12516 0.99687 0.35709 0.0
H7 H 0.03758 0.02483 0.39481 0.0
C8 C 0.97296 0.07163 0.35792 0.0
O9 O 0.97235 0.08538 0.34136 0.0
N10 N 0.04922 0.11251 0.34403 0.0
C11 C 0.06298 0.12201 0.32765 0.0
C12 C 0.04633 0.15679 0.32242 0.0
C13 C 0.02617 0.14294 0.34887 0.0
N14 N 0.02069 0.16898 0.33521 0.0
C15 C 0.09517 0.03229 0.32601 0.0
C16 C 0.0261 0.00374 0.31153 0.0
C17 C 0.05962 0.00554 0.30065 0.0
C18 C 0.09485 0.01841 0.30829 0.0
C19 C 0.02776 0.01771 0.32929 0.0
N20 N 0.06135 0.03439 0.33592 0.0
H21 H 0.12227 0.04411 0.33123 0.0
H22 H 0.00159 0.01581 0.33732 0.0
H23 H 0.08507 0.10615 0.32023 0.0
H24 H 0.01434 0.14562 0.36227 0.0
O25 O 0.11705 0.08353 0.35815 0.0
O26 O 0.07269 0.09912 0.3786 0.0
O27 O 0.00458 0.05637 0.36427 0.0
C28 C 0.10824 0.10297 0.37271 0.0
H29 H 0.07769 0.96256 0.40694 0.0
H30 H 0.05465 0.17244 0.31036 0.0
H31 H 0.99861 0.99276 0.30617 0.0
H32 H 0.12151 0.01949 0.30034 0.0
Co33 Co 0.17747 0.808 0.6093 0.0
C34 C 0.24508 0.84809 0.62662 0.0
C35 C 0.25734 0.78693 0.62297 0.0
C36 C 0.29065 0.80471 0.62958 0.0
N37 N 0.22842 0.81399 0.62116 0.0
N38 N 0.28276 0.84306 0.63179 0.0
H39 H 0.23111 0.87661 0.62583 0.0
H40 H 0.25585 0.7568 0.61885 0.0
C41 C 0.19055 0.71712 0.6114 0.0
O42 O 0.21814 0.71518 0.59909 0.0
N43 N 0.12767 0.80379 0.59722 0.0
C44 C 0.11738 0.82576 0.58281 0.0
C45 C 0.07994 0.81618 0.57779 0.0
C46 C 0.09643 0.78093 0.60087 0.0
N47 N 0.06704 0.78818 0.58911 0.0
C48 C 0.22816 0.82792 0.57989 0.0
C49 C 0.20158 0.77045 0.55652 0.0
C50 C 0.22688 0.79946 0.54997 0.0
C51 C 0.24077 0.82812 0.56192 0.0
C52 C 0.18961 0.77142 0.57452 0.0
N53 N 0.20295 0.79981 0.58604 0.0
H54 H 0.23665 0.8518 0.5886 0.0
H55 H 0.1676 0.75069 0.57889 0.0
H56 H 0.13611 0.84717 0.57634 0.0
H57 H 0.09514 0.75972 0.61174 0.0
O58 O 0.16995 0.86496 0.60862 0.0
O59 O 0.15079 0.82573 0.63069 0.0
O60 O 0.17501 0.74995 0.61593 0.0
C61 C 0.15099 0.86079 0.62379 0.0
H62 H 0.31912 0.79108 0.6316 0.0
H63 H 0.06341 0.8284 0.56661 0.0
H64 H 0.18976 0.74829 0.54757 0.0
H65 H 0.25985 0.85139 0.5572 0.0
Co66 Co 0.44475 0.93242 0.86402 0.0
C67 C 0.39704 0.00044 0.87658 0.0
C68 C 0.4582 0.01489 0.87595 0.0
C69 C 0.43729 0.04837 0.88008 0.0
N70 N 0.43308 0.98462 0.87364 0.0
N71 N 0.39892 0.03916 0.88041 0.0
H72 H 0.36963 0.98482 0.87497 0.0
H73 H 0.48941 0.01391 0.87403 0.0
C74 C 0.53436 0.95301 0.86608 0.0
O75 O 0.53412 0.97962 0.85323 0.0
N76 N 0.45532 0.88115 0.85419 0.0
C77 C 0.43417 0.86422 0.84103 0.0
C78 C 0.4552 0.83329 0.83432 0.0
C79 C 0.48873 0.86002 0.85545 0.0
N80 N 0.49049 0.83157 0.84276 0.0
C81 C 0.4219 0.97559 0.83239 0.0
C82 C 0.48382 0.95227 0.81077 0.0
C83 C 0.45333 0.97434 0.8031 0.0
C84 C 0.42222 0.98639 0.81414 0.0
C85 C 0.48234 0.94219 0.82905 0.0
N86 N 0.45195 0.95426 0.83979 0.0
H87 H 0.39637 0.98243 0.84037 0.0
H88 H 0.50491 0.92309 0.83431 0.0
H89 H 0.40678 0.87542 0.83569 0.0
H90 H 0.51137 0.86702 0.86495 0.0
O91 O 0.38886 0.91991 0.8629 0.0
O92 O 0.42741 0.90794 0.88621 0.0
O93 O 0.50254 0.93653 0.87132 0.0
C94 C 0.39298 0.9041 0.87881 0.0
H95 H 0.44913 0.07758 0.88198 0.0
H96 H 0.44564 0.81439 0.82346 0.0
H97 H 0.50793 0.94178 0.80255 0.0
H98 H 0.39769 0.00274 0.80855 0.0
Co99 Co 0.31316 0.18089 0.10513 0.0
C100 C 0.24206 0.14026 0.11741 0.0
C101 C 0.24915 0.19582 0.13075 0.0
C102 C 0.21507 0.17875 0.13685 0.0
N103 N 0.26577 0.17177 0.11848 0.0
N104 N 0.21092 0.14396 0.12844 0.0
H105 H 0.24747 0.11509 0.10886 0.0
H106 H 0.261 0.22362 0.13517 0.0
C107 C 0.32436 0.2697 0.10387 0.0
O108 O 0.34084 0.26832 0.08789 0.0
N109 N 0.36096 0.18945 0.09172 0.0
C110 C 0.37059 0.1756 0.07537 0.0
C111 C 0.40711 0.18946 0.07094 0.0
C112 C 0.39257 0.20969 0.0973 0.0
N113 N 0.42007 0.21345 0.08422 0.0
C114 C 0.27858 0.14782 0.07333 0.0
C115 C 0.25421 0.21747 0.05764 0.0
C116 C 0.25412 0.1831 0.04732 0.0
C117 C 0.26501 0.14771 0.05553 0.0
C118 C 0.26816 0.21632 0.07542 0.0
N119 N 0.28262 0.1822 0.08268 0.0
H120 H 0.28851 0.12041 0.07909 0.0
H121 H 0.268 0.24325 0.08295 0.0
H122 H 0.35339 0.15554 0.06739 0.0
H123 H 0.3948 0.2211 0.11082 0.0
O124 O 0.32688 0.12505 0.10636 0.0
O125 O 0.34407 0.16964 0.12643 0.0
O126 O 0.30678 0.23946 0.11014 0.0
C127 C 0.34608 0.13351 0.12104 0.0
H128 H 0.19526 0.19042 0.14692 0.0
H129 H 0.42316 0.18057 0.05909 0.0
H130 H 0.2449 0.24518 0.05181 0.0
H131 H 0.26457 0.12046 0.048 0.0
Co132 Co 0.06255 0.92501 0.16385 0.0
C133 C 0.09757 0.99479 0.14649 0.0
C134 C 0.03676 0.00482 0.15218 0.0
C135 C 0.05258 0.03922 0.14568 0.0
N136 N 0.0649 0.9767 0.15263 0.0
N137 N 0.09072 0.03261 0.14218 0.0
H138 H 0.12659 0.98182 0.14634 0.0
H139 H 0.00745 0.00204 0.15727 0.0
C140 C 0.97106 0.9336 0.16332 0.0
O141 O 0.96833 0.95988 0.17619 0.0
N142 N 0.06167 0.87451 0.17528 0.0
C143 C 0.08536 0.86403 0.18909 0.0
C144 C 0.07495 0.82728 0.19483 0.0
C145 C 0.03718 0.84415 0.17264 0.0
N146 N 0.04481 0.81523 0.18452 0.0
C147 C 0.08194 0.975 0.19373 0.0
C148 C 0.02709 0.94434 0.21737 0.0
C149 C 0.05473 0.97115 0.22387 0.0
C150 C 0.08213 0.98702 0.21181 0.0
C151 C 0.02796 0.93315 0.19928 0.0
N152 N 0.05494 0.94857 0.1876 0.0
H153 H 0.10488 0.98514 0.18487 0.0
H154 H 0.00818 0.91032 0.19489 0.0
H155 H 0.10774 0.88254 0.19498 0.0
H156 H 0.01384 0.84352 0.16271 0.0
O157 O 0.11986 0.9201 0.1634 0.0
O158 O 0.07964 0.90055 0.14179 0.0
O159 O 0.00432 0.92028 0.15809 0.0
C160 C 0.11524 0.90197 0.14803 0.0
H161 H 0.03804 0.0675 0.14477 0.0
H162 H 0.08771 0.81093 0.20594 0.0
H163 H 0.00598 0.93097 0.2264 0.0
H164 H 0.10441 0.00729 0.21649 0.0
Co165 Co 0.32683 0.81377 0.4169 0.0
C166 C 0.25375 0.85035 0.40406 0.0
C167 C 0.2731 0.80502 0.38602 0.0
C168 C 0.24085 0.82359 0.37848 0.0
N169 N 0.28101 0.8219 0.40205 0.0
N170 N 0.22893 0.85191 0.38992 0.0
H171 H 0.25329 0.87113 0.41504 0.0
H172 H 0.29069 0.78224 0.37983 0.0
C173 C 0.34461 0.72584 0.41597 0.0
O174 O 0.36335 0.72665 0.43144 0.0
N175 N 0.37295 0.80763 0.4319 0.0
C176 C 0.37846 0.82446 0.4482 0.0
C177 C 0.41672 0.81912 0.45343 0.0
C178 C 0.40849 0.79331 0.4272 0.0
N179 N 0.43521 0.79918 0.44033 0.0
C180 C 0.28367 0.84305 0.44732 0.0
C181 C 0.27007 0.77122 0.46355 0.0
C182 C 0.26351 0.80561 0.47343 0.0
C183 C 0.26891 0.84186 0.4649 0.0
C184 C 0.28475 0.77369 0.44597 0.0
N185 N 0.29354 0.80929 0.43838 0.0
H186 H 0.29035 0.87137 0.44156 0.0
H187 H 0.29032 0.74668 0.43898 0.0
H188 H 0.35698 0.84107 0.45563 0.0
H189 H 0.41469 0.7789 0.41452 0.0
O190 O 0.33742 0.87034 0.41656 0.0
O191 O 0.35993 0.8273 0.39686 0.0
O192 O 0.32421 0.75547 0.41073 0.0
C193 C 0.35909 0.86328 0.40244 0.0
H194 H 0.22805 0.81785 0.36539 0.0
H195 H 0.43005 0.82884 0.4659 0.0
H196 H 0.26542 0.74267 0.46965 0.0
H197 H 0.2638 0.86904 0.47212 0.0
Co198 Co 0.44051 0.06245 0.66718 0.0
C199 C 0.39664 0.9918 0.65647 0.0
C200 C 0.45367 0.99308 0.64409 0.0
C201 C 0.43441 0.95971 0.63846 0.0
N202 N 0.42999 0.01304 0.65544 0.0
N203 N 0.39868 0.95919 0.64623 0.0
H204 H 0.37117 0.00017 0.6643 0.0
H205 H 0.48258 0.00226 0.63985 0.0
C206 C 0.52901 0.07478 0.66658 0.0
O207 O 0.52873 0.09016 0.68282 0.0
N208 N 0.44988 0.11226 0.67901 0.0
C209 C 0.43422 0.12429 0.69465 0.0
C210 C 0.44806 0.1611 0.69842 0.0
C211 C 0.47124 0.14301 0.67309 0.0
N212 N 0.47406 0.17205 0.68556 0.0
C213 C 0.41143 0.03131 0.70054 0.0
C214 C 0.48255 0.00799 0.7151 0.0
C215 C 0.44912 0.00799 0.72609 0.0
C216 C 0.41301 0.01844 0.71844 0.0
C217 C 0.47962 0.02082 0.69715 0.0
N218 N 0.4448 0.03481 0.6904 0.0
H219 H 0.38337 0.04053 0.69521 0.0
H220 H 0.50565 0.01978 0.68899 0.0
H221 H 0.41284 0.10841 0.70249 0.0
H222 H 0.48413 0.14368 0.65981 0.0
O223 O 0.38448 0.07528 0.66712 0.0
O224 O 0.42611 0.09042 0.64545 0.0
O225 O 0.49866 0.05652 0.66081 0.0
C226 C 0.39071 0.09266 0.65177 0.0
H227 H 0.44525 0.93802 0.62902 0.0
H228 H 0.4379 0.1787 0.70958 0.0
H229 H 0.51078 -0.00114 0.72045 0.0
H230 H 0.38642 0.01802 0.72645 0.0
Co231 Co 0.16792 0.18287 0.91134 0.0
C232 C 0.24344 0.14672 0.90045 0.0
C233 C 0.22515 0.19159 0.88195 0.0
C234 C 0.25961 0.17518 0.87569 0.0
N235 N 0.21569 0.17456 0.89776 0.0
N236 N 0.27076 0.14684 0.88735 0.0
H237 H 0.24318 0.12548 0.91122 0.0
H238 H 0.20721 0.21313 0.87504 0.0
C239 C 0.1976 0.26705 0.90533 0.0
O240 O 0.23403 0.2574 0.90927 0.0
N241 N 0.12059 0.19041 0.92487 0.0
C242 C 0.10839 0.16814 0.93867 0.0
C243 C 0.07596 0.1856 0.94609 0.0
C244 C 0.09558 0.22096 0.92404 0.0
N245 N 0.06874 0.22016 0.93752 0.0
C246 C 0.20894 0.15191 0.9423 0.0
C247 C 0.20763 0.22058 0.96213 0.0
C248 C 0.22024 0.18589 0.97046 0.0
C249 C 0.22129 0.15131 0.96031 0.0
C250 C 0.19521 0.21979 0.94416 0.0
N251 N 0.19655 0.18598 0.93423 0.0
H252 H 0.2065 0.12423 0.93536 0.0
H253 H 0.18124 0.24561 0.93887 0.0
H254 H 0.12226 0.14117 0.9431 0.0
H255 H 0.09668 0.24248 0.91336 0.0
O256 O 0.15744 0.12657 0.91034 0.0
O257 O 0.13714 0.17018 0.8903 0.0
O258 O 0.16997 0.24177 0.90652 0.0
C259 C 0.1374 0.13387 0.89572 0.0
H260 H 0.27436 0.18213 0.86317 0.0
H261 H 0.05861 0.17229 0.95659 0.0
H262 H 0.20517 0.24756 0.96979 0.0
H263 H 0.22981 0.12372 0.96652 0.0
Co264 Co 0.93053 0.92623 0.66089 0.0
C265 C 0.89032 -0.00077 0.65036 0.0
C266 C 0.93117 0.98015 0.63011 0.0
C267 C 0.91311 0.01409 0.62415 0.0
N268 N 0.91677 0.97106 0.64651 0.0
N269 N 0.88773 0.02581 0.63698 0.0
H270 H 0.87258 -6e-05 0.66243 0.0
H271 H 0.95279 0.96297 0.6229 0.0
C272 C 0.01922 0.9209 0.66109 0.0
O273 O 0.01868 0.90662 0.67753 0.0
N274 N 0.94437 0.88065 0.67523 0.0
C275 C 0.94401 0.87652 0.69337 0.0
C276 C 0.95972 0.84066 0.69779 0.0
C277 C 0.95922 0.84658 0.6689 0.0
N278 N 0.96933 0.82217 0.68243 0.0
C279 C 0.89858 0.96072 0.69281 0.0
C280 C 0.96745 0.99218 0.70618 0.0
C281 C 0.93476 0.98899 0.71755 0.0
C282 C 0.89955 0.97484 0.71044 0.0
C283 C 0.96525 0.97761 0.68853 0.0
N284 N 0.93189 0.95946 0.68249 0.0
H285 H 0.87157 0.94788 0.68808 0.0
H286 H 0.99092 0.97986 0.68016 0.0
H287 H 0.9342 0.89791 0.703 0.0
H288 H 0.96403 0.84031 0.65478 0.0
O289 O 0.87572 0.90973 0.66156 0.0
O290 O 0.91823 0.89193 0.6407 0.0
O291 O 0.98783 0.93558 0.65431 0.0
C292 C 0.88295 0.88911 0.64721 0.0
H293 H 0.91768 0.02871 0.61136 0.0
H294 H 0.96398 0.82897 0.71124 0.0
H295 H 0.99484 0.00418 0.71116 0.0
H296 H 0.8735 0.97282 0.71876 0.0
Co297 Co 0.81047 0.18297 0.41324 0.0
C298 C 0.73729 0.1428 0.40427 0.0
C299 C 0.75157 0.18635 0.38433 0.0
C300 C 0.71834 0.16659 0.37876 0.0
N301 N 0.76321 0.17124 0.40028 0.0
N302 N 0.70968 0.13942 0.39137 0.0
H303 H 0.73968 0.12354 0.41584 0.0
H304 H 0.76707 0.20892 0.37695 0.0
C305 C 0.81629 0.27218 0.41416 0.0
O306 O 0.82847 0.27141 0.43099 0.0
N307 N 0.85841 0.19371 0.42634 0.0
C308 C 0.87068 0.17614 0.44158 0.0
C309 C 0.90497 0.19327 0.44699 0.0
C310 C 0.887 0.21937 0.42213 0.0
N311 N 0.91397 0.22283 0.4355 0.0
C312 C 0.78119 0.15312 0.44679 0.0
C313 C 0.75027 0.2227 0.45968 0.0
C314 C 0.75596 0.19128 0.47164 0.0
C315 C 0.7698 0.1556 0.46483 0.0
C316 C 0.76204 0.21887 0.44165 0.0
N317 N 0.78053 0.18547 0.43583 0.0
H318 H 0.79337 0.12572 0.44208 0.0
H319 H 0.75717 0.24333 0.4327 0.0
H320 H 0.85693 0.15143 0.44808 0.0
H321 H 0.8876 0.23484 0.40944 0.0
O322 O 0.82523 0.12739 0.41303 0.0
O323 O 0.84144 0.1706 0.39214 0.0
O324 O 0.80233 0.24094 0.40706 0.0
C325 C 0.84421 0.13495 0.39822 0.0
H326 H 0.70269 0.17064 0.36618 0.0
H327 H 0.9224 0.18324 0.45828 0.0
H328 H 0.73814 0.2503 0.46438 0.0
H329 H 0.77348 0.13035 0.4736 0.0
Co330 Co 0.56279 0.06248 0.16324 0.0
C331 C 0.60153 0.98695 0.15604 0.0
C332 C 0.55792 0.00033 0.13593 0.0
C333 C 0.57686 0.96603 0.1311 0.0
N334 N 0.57349 0.01325 0.15154 0.0
N335 N 0.60412 0.9579 0.14378 0.0
H336 H 0.62098 0.98996 0.16751 0.0
H337 H 0.53557 0.01563 0.12824 0.0
C338 C 0.47338 0.07061 0.16304 0.0
O339 O 0.47275 0.08389 0.17966 0.0
N340 N 0.55317 0.11257 0.17515 0.0
C341 C 0.57317 0.1265 0.18939 0.0
C342 C 0.55709 0.16164 0.19447 0.0
C343 C 0.52689 0.14114 0.17114 0.0
N344 N 0.52573 0.16984 0.18385 0.0
C345 C 0.59118 0.03596 0.19753 0.0
C346 C 0.52212 0.00407 0.21032 0.0
C347 C 0.55392 0.0087 0.22217 0.0
C348 C 0.58913 0.02355 0.21544 0.0
C349 C 0.52543 0.01701 0.19239 0.0
N350 N 0.55889 0.0352 0.18652 0.0
H351 H 0.61864 0.04785 0.19283 0.0
H352 H 0.50084 0.01267 0.18347 0.0
H353 H 0.59867 0.11301 0.19545 0.0
H354 H 0.50976 0.14089 0.15895 0.0
O355 O 0.61876 0.07468 0.16309 0.0
O356 O 0.57693 0.09031 0.14149 0.0
O357 O 0.50498 0.05574 0.15667 0.0
C358 C 0.61251 0.09195 0.14771 0.0
H359 H 0.57212 0.94917 0.11894 0.0
H360 H 0.56887 0.18014 0.20499 0.0
H361 H 0.4948 0.99138 0.21498 0.0
H362 H 0.61463 0.02648 0.2241 0.0
Co363 Co 0.68656 0.81661 0.91463 0.0
C364 C 0.75619 0.85533 0.89848 0.0
C365 C 0.76739 0.79437 0.90348 0.0
C366 C 0.80177 0.81146 0.89778 0.0
N367 N 0.73855 0.82175 0.90391 0.0
N368 N 0.79456 0.8497 0.8947 0.0
H369 H 0.7423 0.88394 0.89836 0.0
H370 H 0.76496 0.76457 0.90804 0.0
C371 C 0.69705 0.72537 0.91158 0.0
O372 O 0.72275 0.72129 0.92468 0.0
N373 N 0.63587 0.81267 0.92552 0.0
C374 C 0.62385 0.83411 0.93976 0.0
C375 C 0.5858 0.82436 0.94358 0.0
C376 C 0.60536 0.7899 0.92085 0.0
N377 N 0.57456 0.7967 0.93173 0.0
C378 C 0.73465 0.83374 0.94537 0.0
C379 C 0.70529 0.77514 0.96743 0.0
C380 C 0.7304 0.8033 0.9749 0.0
C381 C 0.74559 0.83261 0.9636 0.0
C382 C 0.69484 0.77758 0.94922 0.0
N383 N 0.70971 0.8064 0.93832 0.0
H384 H 0.74417 0.85805 0.93714 0.0
H385 H 0.67282 0.75761 0.94417 0.0
H386 H 0.64184 0.85502 0.94698 0.0
H387 H 0.60558 0.76896 0.90988 0.0
O388 O 0.68029 0.87375 0.91577 0.0
O389 O 0.66177 0.83653 0.89301 0.0
O390 O 0.68336 0.75912 0.90715 0.0
C391 C 0.66169 0.87108 0.90041 0.0
H392 H 0.83036 0.79753 0.89696 0.0
H393 H 0.56787 0.83593 0.9544 0.0
H394 H 0.69241 0.75252 0.97582 0.0
H395 H 0.76452 0.8553 0.96899 0.0
Co396 Co 0.93245 0.07227 0.85316 0.0
C397 C 0.90183 0.99695 0.86691 0.0
C398 C 0.94982 0.01773 0.88295 0.0
C399 C 0.93564 0.98377 0.89068 0.0
N400 N 0.92953 0.02517 0.86768 0.0
N401 N 0.90518 0.9712 0.88063 0.0
H402 H 0.87806 0.99627 0.8573 0.0
H403 H 0.97172 0.03697 0.88866 0.0
C404 C 0.01858 0.04951 0.85792 0.0
O405 O 0.01121 0.01287 0.85354 0.0
N406 N 0.93394 0.11897 0.83879 0.0
C407 C 0.91002 0.12676 0.82471 0.0
C408 C 0.91688 0.1644 0.81894 0.0
C409 C 0.95525 0.1516 0.84144 0.0
N410 N 0.94523 0.17962 0.82945 0.0
C411 C 0.90457 0.02515 0.82341 0.0
C412 C 0.97057 0.03577 0.80226 0.0
C413 C 0.93728 0.01874 0.79459 0.0
C414 C 0.90413 0.01277 0.80539 0.0
C415 C 0.96959 0.04808 0.82017 0.0
N416 N 0.93713 0.04251 0.83071 0.0
H417 H 0.87747 0.02401 0.83085 0.0
H418 H 0.99363 0.06558 0.82486 0.0
H419 H 0.8881 0.10692 0.81942 0.0
H420 H 0.97637 0.15535 0.85223 0.0
O421 O 0.87541 0.07869 0.85479 0.0
O422 O 0.91895 0.103 0.87395 0.0
O423 O 0.99148 0.07559 0.85714 0.0
C424 C 0.88253 0.1001 0.869 0.0
H425 H 0.94516 0.97076 0.90328 0.0
H426 H 0.90177 0.17984 0.80818 0.0
H427 H 0.99621 0.04194 0.79411 0.0
H428 H 0.87748 0.00063 0.79967 0.0
Co429 Co 0.6817 0.19413 0.60808 0.0
C430 C 0.75587 0.15773 0.61844 0.0
C431 C 0.73869 0.20171 0.6376 0.0
C432 C 0.77078 0.18157 0.6444 0.0
N433 N 0.72947 0.18645 0.62139 0.0
N434 N 0.78122 0.15407 0.63226 0.0
H435 H 0.75454 0.13747 0.60726 0.0
H436 H 0.72157 0.22377 0.64456 0.0
C437 C 0.66702 0.28228 0.6066 0.0
O438 O 0.64829 0.27941 0.59116 0.0
N439 N 0.63345 0.20011 0.59471 0.0
C440 C 0.62388 0.18057 0.5795 0.0
C441 C 0.58512 0.18717 0.57565 0.0
C442 C 0.59991 0.21758 0.60016 0.0
N443 N 0.57037 0.21064 0.58852 0.0
C444 C 0.71693 0.16193 0.57617 0.0
C445 C 0.73376 0.23242 0.5594 0.0
C446 C 0.7348 0.19777 0.54928 0.0
C447 C 0.72798 0.16206 0.55803 0.0
C448 C 0.72256 0.23099 0.57756 0.0
N449 N 0.71151 0.1963 0.58541 0.0
H450 H 0.70937 0.13417 0.58227 0.0
H451 H 0.72175 0.25816 0.58488 0.0
H452 H 0.64268 0.16095 0.5721 0.0
H453 H 0.59709 0.23467 0.61238 0.0
O454 O 0.67049 0.13785 0.60963 0.0
O455 O 0.65142 0.18215 0.62947 0.0
O456 O 0.68609 0.25282 0.61294 0.0
C457 C 0.65099 0.14581 0.62427 0.0
H458 H 0.78384 0.18507 0.65761 0.0
H459 H 0.56877 0.17551 0.56433 0.0
H460 H 0.74004 0.26048 0.55313 0.0
H461 H 0.72922 0.13462 0.55066 0.0
Co462 Co 0.56655 0.92017 0.35712 0.0
C463 C 0.59164 0.99818 0.36989 0.0
C464 C 0.55901 0.96686 0.38992 0.0
C465 C 0.57467 -2e-05 0.39779 0.0
N466 N 0.56955 0.96587 0.37241 0.0
N467 N 0.59513 0.01934 0.38509 0.0
H468 H 0.60827 0.0044 0.35791 0.0
H469 H 0.54384 0.94339 0.39685 0.0
C470 C 0.48254 0.94244 0.36534 0.0
O471 O 0.49089 0.97941 0.36202 0.0
N472 N 0.5649 0.87463 0.3421 0.0
C473 C 0.5893 0.86765 0.32815 0.0
C474 C 0.58378 0.82981 0.32242 0.0
C475 C 0.54465 0.84129 0.34469 0.0
N476 N 0.55578 0.8136 0.3328 0.0
C477 C 0.59033 0.96829 0.32699 0.0
C478 C 0.52125 0.95984 0.30771 0.0
C479 C 0.55379 0.97631 0.29914 0.0
C480 C 0.58849 0.98118 0.30904 0.0
C481 C 0.5245 0.94694 0.32555 0.0
N482 N 0.5585 0.95151 0.3352 0.0
H483 H 0.61852 0.96867 0.33366 0.0
H484 H 0.50089 0.92971 0.33082 0.0
H485 H 0.61085 0.88808 0.32304 0.0
H486 H 0.52372 0.83675 0.35546 0.0
O487 O 0.62374 0.9162 0.35742 0.0
O488 O 0.58435 0.88757 0.37694 0.0
O489 O 0.50812 0.91544 0.3625 0.0
C490 C 0.61999 0.89268 0.37117 0.0
H491 H 0.57396 0.00749 0.41195 0.0
H492 H 0.59958 0.81491 0.31176 0.0
H493 H 0.49439 0.9544 0.30026 0.0
H494 H 0.61459 0.99283 0.30265 0.0
Co495 Co 0.81715 0.80182 0.11065 0.0
C496 C 0.74031 0.83166 0.12303 0.0
C497 C 0.76869 0.79644 0.14316 0.0
C498 C 0.73658 0.81461 0.15088 0.0
N499 N 0.77096 0.80704 0.12566 0.0
N500 N 0.71905 0.83675 0.13813 0.0
H501 H 0.73548 0.84877 0.11102 0.0
H502 H 0.79096 0.77972 0.15025 0.0
C503 C 0.79176 0.71778 0.11839 0.0
O504 O 0.75451 0.72773 0.11724 0.0
N505 N 0.86306 0.79803 0.09585 0.0
C506 C 0.8708 0.82108 0.0815 0.0
C507 C 0.90902 0.81524 0.07643 0.0
C508 C 0.89639 0.77798 0.09925 0.0
N509 N 0.92487 0.78826 0.08758 0.0
C510 C 0.77267 0.83316 0.08074 0.0
C511 C 0.77332 0.76516 0.06044 0.0
C512 C 0.76111 0.80023 0.05228 0.0
C513 C 0.76 0.83439 0.06276 0.0
C514 C 0.78603 0.76529 0.07839 0.0
N515 N 0.78575 0.79893 0.08845 0.0
H516 H 0.77515 0.86061 0.0879 0.0
H517 H 0.79948 0.73906 0.08348 0.0
H518 H 0.85093 0.84258 0.07579 0.0
H519 H 0.90039 0.75806 0.1105 0.0
O520 O 0.82567 0.85855 0.11233 0.0
O521 O 0.85008 0.81429 0.13109 0.0
O522 O 0.81869 0.74263 0.1146 0.0
C523 C 0.8481 0.85083 0.12617 0.0
H524 H 0.72869 0.8143 0.165 0.0
H525 H 0.9245 0.83034 0.06574 0.0
H526 H 0.77541 0.73835 0.05264 0.0
H527 H 0.7515 0.86223 0.05679 0.0
Co528 Co 0.56683 0.57796 0.85499 0.0
C529 C 0.59777 0.5026 0.8682 0.0
C530 C 0.55249 0.52434 0.88558 0.0
C531 C 0.5676 0.49023 0.89297 0.0
N532 N 0.57063 0.53132 0.86976 0.0
N533 N 0.59635 0.47704 0.88205 0.0
H534 H 0.6197 0.50126 0.85775 0.0
H535 H 0.53132 0.54379 0.89178 0.0
C536 C 0.4807 0.55658 0.86143 0.0
O537 O 0.48755 0.51926 0.85811 0.0
N538 N 0.56464 0.62408 0.84023 0.0
C539 C 0.58865 0.63167 0.82621 0.0
C540 C 0.58515 0.67062 0.82172 0.0
C541 C 0.54623 0.65807 0.8439 0.0
N542 N 0.55848 0.68689 0.83282 0.0
C543 C 0.59606 0.53237 0.82498 0.0
C544 C 0.52698 0.53277 0.80533 0.0
C545 C 0.56128 0.51931 0.79704 0.0
C546 C 0.59607 0.51843 0.80718 0.0
C547 C 0.52837 0.54689 0.82298 0.0
N548 N 0.56252 0.54678 0.83276 0.0
H549 H 0.62385 0.53451 0.83192 0.0
H550 H 0.50232 0.56044 0.82805 0.0
H551 H 0.60964 0.61124 0.8206 0.0
H552 H 0.52674 0.66239 0.85525 0.0
O553 O 0.62395 0.58488 0.85685 0.0
O554 O 0.58009 0.60971 0.87557 0.0
O555 O 0.50787 0.58202 0.85916 0.0
C556 C 0.6166 0.60689 0.87085 0.0
H557 H 0.55974 0.47735 0.90581 0.0
H558 H 0.60209 0.68632 0.8117 0.0
H559 H 0.49969 0.53453 0.79781 0.0
H560 H 0.62338 0.5089 0.80109 0.0
Co561 Co 0.68354 0.30714 0.10892 0.0
C562 C 0.75516 0.34973 0.1187 0.0
C563 C 0.75402 0.29249 0.13101 0.0
C564 C 0.78785 0.3113 0.13635 0.0
N565 N 0.73377 0.31661 0.1199 0.0
N566 N 0.78825 0.34712 0.12861 0.0
H567 H 0.74636 0.37552 0.11113 0.0
H568 H 0.74455 0.26372 0.13537 0.0
C569 C 0.67487 0.21814 0.10645 0.0
O570 O 0.65801 0.22006 0.09052 0.0
N571 N 0.6326 0.29895 0.09779 0.0
C572 C 0.61712 0.32176 0.08467 0.0
C573 C 0.57972 0.30944 0.08101 0.0
C574 C 0.60348 0.27396 0.10243 0.0
N575 N 0.57139 0.2791 0.09199 0.0
C576 C 0.70776 0.34216 0.07561 0.0
C577 C 0.73535 0.27467 0.05926 0.0
C578 C 0.73059 0.30878 0.04891 0.0
C579 C 0.71801 0.34319 0.0574 0.0
C580 C 0.72461 0.27491 0.07749 0.0
N581 N 0.70839 0.30771 0.08513 0.0
H582 H 0.69723 0.36886 0.08178 0.0
H583 H 0.72899 0.24842 0.08516 0.0
H584 H 0.63127 0.34661 0.07847 0.0
H585 H 0.60578 0.25215 0.11297 0.0
O586 O 0.66882 0.36274 0.1116 0.0
O587 O 0.65826 0.3166 0.13163 0.0
O588 O 0.69186 0.24842 0.113 0.0
C589 C 0.65317 0.35281 0.12695 0.0
H590 H 0.80979 0.30025 0.14567 0.0
H591 H 0.55996 0.32169 0.071 0.0
H592 H 0.74635 0.24788 0.0532 0.0
H593 H 0.71504 0.37035 0.04987 0.0
Co594 Co 0.93648 0.43014 0.36083 0.0
C595 C 0.90585 0.50825 0.37104 0.0
C596 C 0.94007 0.48235 0.39224 0.0
C597 C 0.92221 0.51586 0.39881 0.0
N598 N 0.92989 0.47769 0.37478 0.0
N599 N 0.90079 0.53182 0.38538 0.0
H600 H 0.88926 0.51169 0.3588 0.0
H601 H 0.95669 0.46115 0.40003 0.0
C602 C 0.02035 0.45684 0.36857 0.0
O603 O 0.01073 0.49378 0.36582 0.0
N604 N 0.94197 0.38299 0.34704 0.0
C605 C 0.91992 0.37344 0.3326 0.0
C606 C 0.92856 0.33561 0.32774 0.0
C607 C 0.96418 0.35121 0.35073 0.0
N608 N 0.9562 0.32188 0.33914 0.0
C609 C 0.90723 0.47223 0.32981 0.0
C610 C 0.97673 0.47164 0.31063 0.0
C611 C 0.94239 0.48455 0.30202 0.0
C612 C 0.90741 0.48527 0.31189 0.0
C613 C 0.97516 0.4586 0.32852 0.0
N614 N 0.94092 0.45947 0.33812 0.0
H615 H 0.87925 0.46981 0.33652 0.0
H616 H 0.00081 0.44474 0.334 0.0
H617 H 0.8978 0.39204 0.32649 0.0
H618 H 0.98438 0.34899 0.36198 0.0
O619 O 0.87973 0.42131 0.36151 0.0
O620 O 0.92212 0.39902 0.38167 0.0
O621 O 0.99532 0.42947 0.36586 0.0
C622 C 0.8861 0.40029 0.37592 0.0
H623 H 0.92241 0.52598 0.41263 0.0
H624 H 0.91517 0.31903 0.31692 0.0
H625 H 0.0041 0.46959 0.30325 0.0
H626 H 0.88008 0.4941 0.30554 0.0
Co627 Co 0.8159 0.68168 0.6063 0.0
C628 C 0.73427 0.65593 0.61405 0.0
C629 C 0.76224 0.68143 0.63707 0.0
C630 C 0.72545 0.66903 0.6419 0.0
N631 N 0.76758 0.67383 0.61951 0.0
N632 N 0.70667 0.65418 0.62728 0.0
H633 H 0.73196 0.6422 0.60108 0.0
H634 H 0.78414 0.69382 0.64595 0.0
C635 C 0.78902 0.76518 0.6161 0.0
O636 O 0.7517 0.75601 0.61754 0.0
N637 N 0.86394 0.68887 0.59319 0.0
C638 C 0.87944 0.66461 0.58086 0.0
C639 C 0.91369 0.68088 0.5747 0.0
C640 C 0.88905 0.71908 0.59454 0.0
N641 N 0.91914 0.71633 0.58266 0.0
C642 C 0.78502 0.64766 0.57383 0.0
C643 C 0.76451 0.71727 0.55695 0.0
C644 C 0.76337 0.68236 0.54705 0.0
C645 C 0.7729 0.64709 0.55577 0.0
C646 C 0.77699 0.7166 0.57495 0.0
N647 N 0.78803 0.68222 0.58313 0.0
H648 H 0.7936 0.62032 0.58012 0.0
H649 H 0.77905 0.74414 0.58184 0.0
H650 H 0.86752 0.63638 0.57708 0.0
H651 H 0.88622 0.74096 0.60493 0.0
O652 O 0.8295 0.62582 0.60884 0.0
O653 O 0.84517 0.67246 0.62797 0.0
O654 O 0.81388 0.74067 0.60982 0.0
C655 C 0.84867 0.63599 0.62336 0.0
H656 H 0.71461 0.66897 0.65558 0.0
H657 H 0.93392 0.66605 0.56579 0.0
H658 H 0.75721 0.74505 0.55061 0.0
H659 H 0.77219 0.61951 0.54851 0.0
Co660 Co 0.55738 0.43627 0.66033 0.0
C661 C 0.59332 0.50733 0.64395 0.0
C662 C 0.531 0.51424 0.64648 0.0
C663 C 0.54626 0.5486 0.63972 0.0
N664 N 0.56036 0.488 0.64904 0.0
N665 N 0.58537 0.54414 0.63827 0.0
H666 H 0.62283 0.49579 0.64521 0.0
H667 H 0.50079 0.51019 0.6501 0.0
C668 C 0.46581 0.44435 0.6597 0.0
O669 O 0.46285 0.47149 0.67219 0.0
N670 N 0.55557 0.38538 0.6716 0.0
C671 C 0.57917 0.37373 0.68522 0.0
C672 C 0.57066 0.33547 0.68938 0.0
C673 C 0.5327 0.35428 0.66767 0.0
N674 N 0.54157 0.32348 0.67838 0.0
C675 C 0.57752 0.48656 0.68986 0.0
C676 C 0.52384 0.45632 0.71414 0.0
C677 C 0.55243 0.48258 0.72037 0.0
C678 C 0.57913 0.49824 0.70794 0.0
C679 C 0.52353 0.44508 0.696 0.0
N680 N 0.55016 0.46012 0.68405 0.0
H681 H 0.59979 0.49713 0.68072 0.0
H682 H 0.50324 0.42249 0.6918 0.0
H683 H 0.60094 0.39201 0.69171 0.0
H684 H 0.51027 0.35405 0.6573 0.0
O685 O 0.61451 0.43115 0.66011 0.0
O686 O 0.5745 0.41185 0.63834 0.0
O687 O 0.49927 0.43146 0.65456 0.0
C688 C 0.61 0.41316 0.64472 0.0
H689 H 0.5303 0.57559 0.63708 0.0
H690 H 0.58424 0.31781 0.69985 0.0
H691 H 0.50301 0.4433 0.7234 0.0
H692 H 0.60187 0.51831 0.71231 0.0
Co693 Co 0.81167 0.31349 0.91342 0.0
C694 C 0.74559 0.35734 0.89688 0.0
C695 C 0.7346 0.29534 0.89758 0.0
C696 C 0.70057 0.31418 0.89237 0.0
N697 N 0.76294 0.32238 0.90044 0.0
N698 N 0.70761 0.35305 0.89199 0.0
H699 H 0.75923 0.38558 0.89914 0.0
H700 H 0.73717 0.26429 0.90043 0.0
C701 C 0.82859 0.22545 0.91103 0.0
O702 O 0.85189 0.22585 0.92514 0.0
N703 N 0.85966 0.30639 0.92707 0.0
C704 C 0.8659 0.32104 0.94374 0.0
C705 C 0.90418 0.31456 0.94856 0.0
C706 C 0.89492 0.29241 0.92169 0.0
N707 N 0.92208 0.29612 0.93483 0.0
C708 C 0.76866 0.34322 0.94357 0.0
C709 C 0.76584 0.27358 0.96281 0.0
C710 C 0.75632 0.30872 0.97152 0.0
C711 C 0.75634 0.3437 0.96157 0.0
C712 C 0.77827 0.27442 0.94486 0.0
N713 N 0.78155 0.30922 0.93574 0.0
H714 H 0.77065 0.37072 0.93635 0.0
H715 H 0.78701 0.24715 0.93885 0.0
H716 H 0.84459 0.33654 0.95178 0.0
H717 H 0.90031 0.27886 0.90873 0.0
O718 O 0.82392 0.36964 0.91328 0.0
O719 O 0.84221 0.32714 0.89242 0.0
O720 O 0.80704 0.25528 0.9073 0.0
C721 C 0.84387 0.3627 0.89862 0.0
H722 H 0.67222 0.30068 0.89007 0.0
H723 H 0.91774 0.3218 0.96134 0.0
H724 H 0.76557 0.24596 0.97009 0.0
H725 H 0.74869 0.37135 0.96789 0.0
Co726 Co 0.93256 0.57091 0.16574 0.0
C727 C 0.89563 0.50178 0.14835 0.0
C728 C 0.95696 0.49158 0.15275 0.0
C729 C 0.94067 0.45766 0.14605 0.0
N730 N 0.92883 0.51955 0.15419 0.0
N731 N 0.90222 0.46432 0.14338 0.0
H732 H 0.86661 0.51472 0.14871 0.0
H733 H 0.98689 0.49412 0.15704 0.0
C734 C 0.02417 0.56083 0.16351 0.0
O735 O 0.02751 0.5334 0.1759 0.0
N736 N 0.93499 0.62121 0.17745 0.0
C737 C 0.90944 0.63473 0.18977 0.0
C738 C 0.92432 0.66852 0.19709 0.0
C739 C 0.96467 0.64704 0.1773 0.0
N740 N 0.96036 0.67528 0.19 0.0
C741 C 0.91395 0.5207 0.19552 0.0
C742 C 0.97166 0.5481 0.2186 0.0
C743 C 0.94323 0.52235 0.22534 0.0
C744 C 0.91437 0.50816 0.21353 0.0
C745 C 0.96994 0.56017 0.20059 0.0
N746 N 0.9415 0.54634 0.1892 0.0
H747 H 0.89015 0.51158 0.18686 0.0
H748 H 0.99054 0.58211 0.19608 0.0
H749 H 0.88215 0.62065 0.19345 0.0
H750 H 0.98882 0.64509 0.16794 0.0
O751 O 0.87547 0.57565 0.16609 0.0
O752 O 0.91364 0.59637 0.14415 0.0
O753 O 0.99056 0.57502 0.15912 0.0
C754 C 0.87831 0.59376 0.15064 0.0
H755 H 0.95532 0.42966 0.14426 0.0
H756 H 0.90856 0.6866 0.20655 0.0
H757 H 0.99405 0.56008 0.2274 0.0
H758 H 0.89157 0.48866 0.21835 0.0
Co759 Co 0.67732 0.68519 0.4107 0.0
C760 C 0.7557 0.65309 0.40179 0.0
C761 C 0.73209 0.68762 0.38014 0.0
C762 C 0.76647 0.67018 0.37433 0.0
N763 N 0.72547 0.677 0.39738 0.0
N764 N 0.781 0.64859 0.38803 0.0
H765 H 0.75794 0.63655 0.41413 0.0
H766 H 0.71168 0.70422 0.37191 0.0
C767 C 0.70745 0.76823 0.40294 0.0
O768 O 0.7444 0.75757 0.40467 0.0
N769 N 0.62984 0.69284 0.42416 0.0
C770 C 0.61814 0.67083 0.43815 0.0
C771 C 0.58774 0.68971 0.44653 0.0
C772 C 0.60644 0.72474 0.42419 0.0
N773 N 0.58137 0.72487 0.43838 0.0
C774 C 0.71486 0.65278 0.44218 0.0
C775 C 0.71975 0.72205 0.46141 0.0
C776 C 0.7289 0.68666 0.47011 0.0
C777 C 0.72686 0.65177 0.46024 0.0
C778 C 0.70757 0.72172 0.44335 0.0
N779 N 0.70556 0.68745 0.43378 0.0
H780 H 0.71094 0.62518 0.43528 0.0
H781 H 0.697 0.74874 0.43767 0.0
H782 H 0.63143 0.64335 0.44227 0.0
H783 H 0.60773 0.74678 0.41376 0.0
O784 O 0.66628 0.62886 0.40923 0.0
O785 O 0.64688 0.67307 0.3893 0.0
O786 O 0.67967 0.74403 0.40616 0.0
C787 C 0.64695 0.63662 0.39446 0.0
H788 H 0.77828 0.67087 0.3608 0.0
H789 H 0.57128 0.67735 0.45758 0.0
H790 H 0.72005 0.74949 0.4688 0.0
H791 H 0.73303 0.62378 0.46664 0.0
Co792 Co 0.43418 0.42732 0.16024 0.0
C793 C 0.4042 0.50438 0.14777 0.0
C794 C 0.44345 0.47832 0.12862 0.0
C795 C 0.42856 0.51243 0.12129 0.0
N796 N 0.42926 0.47395 0.14547 0.0
N797 N 0.40354 0.52839 0.13329 0.0
H798 H 0.38525 0.50806 0.1593 0.0
H799 H 0.46217 0.45733 0.12183 0.0
C800 C 0.52046 0.4466 0.15045 0.0
O801 O 0.51433 0.48395 0.14699 0.0
N802 N 0.43803 0.38048 0.17469 0.0
C803 C 0.41536 0.37109 0.18894 0.0
C804 C 0.42402 0.33326 0.19416 0.0
C805 C 0.46031 0.34848 0.17145 0.0
N806 N 0.45217 0.31933 0.18314 0.0
C807 C 0.40344 0.46937 0.19067 0.0
C808 C 0.47327 0.47318 0.20972 0.0
C809 C 0.43819 0.4824 0.21852 0.0
C810 C 0.40306 0.4815 0.2087 0.0
C811 C 0.4724 0.4609 0.19174 0.0
N812 N 0.43765 0.45816 0.18246 0.0
H813 H 0.37569 0.46615 0.18378 0.0
H814 H 0.49968 0.45113 0.18598 0.0
H815 H 0.39289 0.38971 0.19467 0.0
H816 H 0.48083 0.34587 0.16044 0.0
O817 O 0.37741 0.41914 0.15841 0.0
O818 O 0.42172 0.39543 0.13956 0.0
O819 O 0.49313 0.42505 0.15699 0.0
C820 C 0.38519 0.39753 0.14436 0.0
H821 H 0.43382 0.52351 0.10783 0.0
H822 H 0.41025 0.31685 0.20493 0.0
H823 H 0.50092 0.47337 0.21699 0.0
H824 H 0.37534 0.48826 0.21517 0.0
Co825 Co 0.32251 0.68203 0.91327 0.0
C826 C 0.25124 0.63932 0.90339 0.0
C827 C 0.25311 0.6955 0.89013 0.0
C828 C 0.21948 0.67621 0.88477 0.0
N829 N 0.27276 0.67231 0.90185 0.0
N830 N 0.21866 0.64101 0.89311 0.0
H831 H 0.25953 0.61427 0.91159 0.0
H832 H 0.26283 0.72396 0.88545 0.0
C833 C 0.3294 0.77143 0.91615 0.0
O834 O 0.34316 0.76892 0.93268 0.0
N835 N 0.37269 0.69024 0.92485 0.0
C836 C 0.38802 0.66887 0.9384 0.0
C837 C 0.42305 0.68517 0.9434 0.0
C838 C 0.4002 0.71726 0.92098 0.0
N839 N 0.42956 0.7177 0.93332 0.0
C840 C 0.29847 0.65017 0.94741 0.0
C841 C 0.26447 0.71758 0.96111 0.0
C842 C 0.27093 0.68559 0.97267 0.0
C843 C 0.28675 0.65106 0.96547 0.0
C844 C 0.27659 0.71537 0.94307 0.0
N845 N 0.29616 0.68298 0.9368 0.0
H846 H 0.31108 0.62337 0.94222 0.0
H847 H 0.27059 0.74006 0.9344 0.0
H848 H 0.37562 0.64241 0.94397 0.0
H849 H 0.39855 0.73554 0.90914 0.0
O850 O 0.33608 0.62634 0.91129 0.0
O851 O 0.34934 0.67117 0.89094 0.0
O852 O 0.31514 0.74084 0.90858 0.0
C853 C 0.35148 0.6345 0.89568 0.0
H854 H 0.1979 0.68659 0.87512 0.0
H855 H 0.44263 0.67279 0.9534 0.0
H856 H 0.25089 0.74426 0.96608 0.0
H857 H 0.29099 0.62532 0.97387 0.0
Co858 Co 0.06034 0.56414 0.66372 0.0
C859 C 0.09563 0.49145 0.65012 0.0
C860 C 0.04031 0.5021 0.63714 0.0
C861 C 0.05594 0.46768 0.6304 0.0
N862 N 0.06478 0.51628 0.64992 0.0
N863 N 0.09071 0.46146 0.63861 0.0
H864 H 0.12181 0.49539 0.65814 0.0
H865 H 0.01361 0.5161 0.63253 0.0
C866 C 0.97118 0.54614 0.65932 0.0
O867 O 0.9728 0.51003 0.66557 0.0
N868 N 0.05656 0.61164 0.67729 0.0
C869 C 0.07437 0.62031 0.69306 0.0
C870 C 0.06469 0.65827 0.69768 0.0
C871 C 0.03669 0.64397 0.67241 0.0
N872 N 0.04105 0.67253 0.68465 0.0
C873 C 0.08706 0.51669 0.69357 0.0
C874 C 0.02105 0.5272 0.71471 0.0
C875 C 0.05425 0.50943 0.72234 0.0
C876 C 0.08734 0.50353 0.71148 0.0
C877 C 0.02214 0.54028 0.69685 0.0
N878 N 0.05477 0.53495 0.68636 0.0
H879 H 0.11402 0.51493 0.68606 0.0
H880 H 0.99778 0.55753 0.6921 0.0
H881 H 0.09342 0.60066 0.70053 0.0
H882 H 0.01977 0.64675 0.6601 0.0
O883 O 0.11731 0.57146 0.66294 0.0
O884 O 0.07498 0.59416 0.64278 0.0
O885 O 0.00197 0.56757 0.65886 0.0
C886 C 0.11096 0.5926 0.64851 0.0
H887 H 0.04334 0.44918 0.62005 0.0
H888 H 0.07407 0.67418 0.70954 0.0
H889 H 0.99526 0.53302 0.72283 0.0
H890 H 0.11385 0.4906 0.71706 0.0
Co891 Co 0.17163 0.31845 0.41566 0.0
C892 C 0.23931 0.35868 0.39891 0.0
C893 C 0.25075 0.29703 0.40137 0.0
C894 C 0.28393 0.3148 0.39471 0.0
N895 N 0.22246 0.32443 0.40396 0.0
N896 N 0.27646 0.3534 0.39327 0.0
H897 H 0.22579 0.38732 0.40012 0.0
H898 H 0.24888 0.26648 0.40473 0.0
C899 C 0.18369 0.22797 0.41194 0.0
O900 O 0.21139 0.22487 0.42422 0.0
N901 N 0.1219 0.31406 0.42745 0.0
C902 C 0.11071 0.33583 0.44172 0.0
C903 C 0.07264 0.32669 0.44584 0.0
C904 C 0.09094 0.29158 0.42311 0.0
N905 N 0.06058 0.29897 0.43418 0.0
C906 C 0.22332 0.33376 0.44551 0.0
C907 C 0.19372 0.2755 0.46774 0.0
C908 C 0.21991 0.3029 0.47495 0.0
C909 C 0.23544 0.33188 0.46357 0.0
C910 C 0.18229 0.27851 0.44971 0.0
N911 N 0.19689 0.30742 0.43878 0.0
H912 H 0.23334 0.3578 0.4372 0.0
H913 H 0.15977 0.25887 0.44483 0.0
H914 H 0.12912 0.35686 0.44863 0.0
H915 H 0.09035 0.27081 0.41208 0.0
O916 O 0.16539 0.3755 0.41725 0.0
O917 O 0.14503 0.33872 0.39463 0.0
O918 O 0.16815 0.2612 0.40801 0.0
C919 C 0.14589 0.37318 0.4021 0.0
H920 H 0.31194 0.3009 0.39196 0.0
H921 H 0.05515 0.33898 0.45664 0.0
H922 H 0.18077 0.25308 0.47623 0.0
H923 H 0.25539 0.35385 0.46881 0.0
Co924 Co 0.44208 0.56367 0.3547 0.0
C925 C 0.39368 0.50181 0.37164 0.0
C926 C 0.45379 0.48379 0.36867 0.0
C927 C 0.43268 0.45235 0.37502 0.0
N928 N 0.42951 0.51502 0.36679 0.0
N929 N 0.39512 0.4639 0.3768 0.0
H930 H 0.3667 0.51851 0.3705 0.0
H931 H 0.48401 0.48265 0.36437 0.0
C932 C 0.53227 0.56168 0.35147 0.0
O933 O 0.53073 0.57551 0.33494 0.0
N934 N 0.45394 0.61193 0.34209 0.0
C935 C 0.43495 0.62608 0.32757 0.0
C936 C 0.4539 0.65899 0.32171 0.0
C937 C 0.48287 0.63785 0.34541 0.0
N938 N 0.48587 0.66529 0.33219 0.0
C939 C 0.40605 0.53803 0.32181 0.0
C940 C 0.47124 0.50276 0.30668 0.0
C941 C 0.43823 0.51 0.29585 0.0
C942 C 0.40476 0.52626 0.30379 0.0
C943 C 0.47124 0.51509 0.32471 0.0
N944 N 0.44005 0.53555 0.33162 0.0
H945 H 0.38018 0.55156 0.32747 0.0
H946 H 0.49662 0.50852 0.33283 0.0
H947 H 0.40837 0.61434 0.32182 0.0
H948 H 0.50067 0.63626 0.35741 0.0
O949 O 0.3876 0.58181 0.35658 0.0
O950 O 0.43418 0.5931 0.37665 0.0
O951 O 0.50016 0.55338 0.35958 0.0
C952 C 0.39815 0.59876 0.37155 0.0
H953 H 0.44342 0.4227 0.37712 0.0
H954 H 0.44375 0.67744 0.31077 0.0
H955 H 0.4971 0.4887 0.30112 0.0
H956 H 0.37831 0.53113 0.29594 0.0
Co957 Co 0.18213 0.68579 0.1082 0.0
C958 C 0.25809 0.64813 0.11574 0.0
C959 C 0.24272 0.68875 0.13654 0.0
C960 C 0.27946 0.67348 0.14014 0.0
N961 N 0.22968 0.67302 0.1211 0.0
N962 N 0.29038 0.64926 0.1265 0.0
H963 H 0.2539 0.62849 0.10458 0.0
H964 H 0.22651 0.70945 0.14472 0.0
C965 C 0.17681 0.77526 0.10765 0.0
O966 O 0.16141 0.77537 0.0914 0.0
N967 N 0.13439 0.69767 0.09504 0.0
C968 C 0.12352 0.6821 0.07918 0.0
C969 C 0.08894 0.69894 0.0739 0.0
C970 C 0.1048 0.72209 0.09963 0.0
N971 N 0.07821 0.72646 0.0861 0.0
C972 C 0.21267 0.65279 0.0754 0.0
C973 C 0.24156 0.72138 0.06062 0.0
C974 C 0.23859 0.68793 0.04973 0.0
C975 C 0.22545 0.65295 0.05751 0.0
C976 C 0.22855 0.7199 0.07856 0.0
N977 N 0.21174 0.68656 0.0854 0.0
H978 H 0.20098 0.6258 0.0808 0.0
H979 H 0.23144 0.74598 0.08659 0.0
H980 H 0.13829 0.65871 0.07216 0.0
H981 H 0.10341 0.73606 0.11265 0.0
O982 O 0.16569 0.63075 0.109 0.0
O983 O 0.15118 0.67532 0.12953 0.0
O984 O 0.19209 0.74362 0.11392 0.0
C985 C 0.14714 0.63958 0.1238 0.0
H986 H 0.29584 0.679 0.15236 0.0
H987 H 0.07245 0.68997 0.06216 0.0
H988 H 0.25278 0.74867 0.05517 0.0
H989 H 0.22355 0.62631 0.04959 0.0
Co990 Co 0.06086 0.4219 0.85803 0.0
C991 C 0.10566 0.48709 0.875 0.0
C992 C 0.0443 0.50069 0.8738 0.0
C993 C 0.06379 0.53309 0.8802 0.0
N994 N 0.07034 0.47148 0.87054 0.0
N995 N 0.10225 0.52445 0.88085 0.0
H996 H 0.13366 0.47266 0.87301 0.0
H997 H 0.01351 0.5002 0.87088 0.0
C998 C 0.97065 0.43995 0.86162 0.0
O999 O 0.96934 0.46926 0.85009 0.0
N1000 N 0.05253 0.37357 0.84521 0.0
C1001 C 0.0728 0.36215 0.83062 0.0
C1002 C 0.05334 0.33156 0.82273 0.0
C1003 C 0.02133 0.34957 0.84612 0.0
N1004 N 0.01954 0.3248 0.83184 0.0
C1005 C 0.08326 0.47181 0.82877 0.0
C1006 C 0.02157 0.45243 0.80613 0.0
C1007 C 0.05292 0.47421 0.79919 0.0
C1008 C 0.08375 0.48455 0.81079 0.0
C1009 C 0.02247 0.43994 0.82408 0.0
N1010 N 0.053 0.44966 0.83524 0.0
H1011 H 0.10856 0.47737 0.83716 0.0
H1012 H -0.00015 0.42008 0.82857 0.0
H1013 H 0.09877 0.37651 0.82548 0.0
H1014 H 0.00079 0.35064 0.85713 0.0
O1015 O 0.11736 0.41173 0.85672 0.0
O1016 O 0.07852 0.39227 0.87875 0.0
O1017 O 0.00303 0.42236 0.86534 0.0
C1018 C 0.11337 0.39177 0.87163 0.0
H1019 H 0.05107 0.56155 0.88319 0.0
H1020 H 0.06398 0.31562 0.81114 0.0
H1021 H 0.9976 0.44335 0.79747 0.0
H1022 H 0.10878 0.50084 0.80579 0.0
Co1023 Co 0.31146 0.30555 0.60953 0.0
C1024 C 0.24351 0.34862 0.62393 0.0
C1025 C 0.23985 0.28712 0.6301 0.0
C1026 C 0.20506 0.30467 0.63501 0.0
N1027 N 0.26392 0.31467 0.62306 0.0
N1028 N 0.20759 0.34319 0.63111 0.0
H1029 H 0.25352 0.37629 0.61842 0.0
H1030 H 0.2458 0.25598 0.63082 0.0
C1031 C 0.32409 0.21649 0.60945 0.0
O1032 O 0.33777 0.21621 0.5929 0.0
N1033 N 0.3586 0.29697 0.59563 0.0
C1034 C 0.36635 0.31188 0.57927 0.0
C1035 C 0.40183 0.29761 0.57363 0.0
C1036 C 0.39047 0.27542 0.60001 0.0
N1037 N 0.41604 0.27209 0.5861 0.0
C1038 C 0.27246 0.337 0.57851 0.0
C1039 C 0.25484 0.26654 0.56199 0.0
C1040 C 0.25184 0.3014 0.55201 0.0
C1041 C 0.25901 0.33707 0.5607 0.0
C1042 C 0.26825 0.26782 0.57986 0.0
N1043 N 0.27983 0.30254 0.58744 0.0
H1044 H 0.27953 0.36482 0.58462 0.0
H1045 H 0.26988 0.2407 0.58722 0.0
H1046 H 0.34837 0.33288 0.5721 0.0
H1047 H 0.39444 0.26251 0.61318 0.0
O1048 O 0.32399 0.36169 0.60963 0.0
O1049 O 0.34334 0.31915 0.63024 0.0
O1050 O 0.30734 0.24729 0.61568 0.0
C1051 C 0.34439 0.35483 0.62415 0.0
H1052 H 0.17936 0.29019 0.64043 0.0
H1053 H 0.41626 0.30725 0.56148 0.0
H1054 H 0.24805 0.23851 0.55584 0.0
H1055 H 0.25598 0.36466 0.55352 0.0
C1056 C 0.17167 0.19288 0.38261 0.0
C1057 C 0.17054 0.19256 0.40176 0.0
C1058 C 0.1407 0.12693 0.40086 0.0
C1059 C 0.13563 0.13046 0.38195 0.0
N1060 N 0.14338 0.16905 0.3548 0.0
N1061 N 0.14995 0.16065 0.42927 0.0
C1062 C 0.15081 0.16376 0.37275 0.0
C1063 C 0.15447 0.1597 0.41097 0.0
N1064 N 0.19339 0.22058 0.37379 0.0
N1065 N 0.13266 0.09196 0.40914 0.0
H1066 H 0.15884 0.18424 0.43721 0.0
H1067 H 0.1343 0.13951 0.43642 0.0
H1068 H 0.12323 0.06729 0.40201 0.0
H1069 H 0.13923 0.08623 0.42261 0.0
H1070 H 0.19877 0.21979 0.35998 0.0
H1071 H 0.20938 0.24214 0.38049 0.0
H1072 H 0.14889 0.1953 0.34803 0.0
H1073 H 0.12921 0.14833 0.34684 0.0
C1074 C 0.05477 0.90814 0.6312 0.0
C1075 C 0.05602 0.91676 0.65004 0.0
C1076 C 0.12636 0.89981 0.65023 0.0
C1077 C 0.1246 0.89144 0.63156 0.0
N1078 N 0.09212 0.90614 0.60349 0.0
N1079 N 0.0973 0.93543 0.67515 0.0
C1080 C 0.09062 0.90236 0.62176 0.0
C1081 C 0.09328 0.91735 0.65884 0.0
N1082 N 0.02006 0.90162 0.62241 0.0
N1083 N 0.15936 0.89035 0.65979 0.0
H1084 H 0.07436 0.95102 0.68115 0.0
H1085 H 0.12435 0.93901 0.68154 0.0
H1086 H 0.18478 0.87977 0.65359 0.0
H1087 H 0.16072 0.89149 0.67382 0.0
H1088 H 0.01875 0.89255 0.60902 0.0
H1089 H 0.99296 0.89982 0.62874 0.0
H1090 H 0.06846 0.91642 0.59586 0.0
H1091 H 0.11846 0.90441 0.59641 0.0
C1092 C 0.33697 0.84563 0.91435 0.0
C1093 C 0.33605 0.80857 0.90541 0.0
C1094 C 0.35117 0.84349 0.87723 0.0
C1095 C 0.36332 0.87695 0.88703 0.0
N1096 N 0.36551 0.91099 0.91538 0.0
N1097 N 0.35188 0.77314 0.87769 0.0
C1098 C 0.3554 0.87839 0.90577 0.0
C1099 C 0.34515 0.80762 0.88659 0.0
N1100 N 0.31928 0.84993 0.93073 0.0
N1101 N 0.34578 0.84539 0.85904 0.0
H1102 H 0.35314 0.74579 0.88383 0.0
H1103 H 0.36188 0.77234 0.86442 0.0
H1104 H 0.34632 0.87182 0.85198 0.0
H1105 H 0.33483 0.82184 0.8516 0.0
H1106 H 0.31669 0.87692 0.93724 0.0
H1107 H 0.30302 0.82749 0.93672 0.0
H1108 H 0.36477 0.91204 0.92941 0.0
H1109 H 0.37604 0.93646 0.9092 0.0
C1110 C 0.41084 0.09927 0.12168 0.0
C1111 C 0.37408 0.10596 0.12994 0.0
C1112 C 0.3999 0.07628 0.15778 0.0
C1113 C 0.43882 0.07837 0.15081 0.0
N1114 N 0.48059 0.10081 0.12615 0.0
N1115 N 0.33299 0.10131 0.15617 0.0
C1116 C 0.44421 0.09159 0.13265 0.0
C1117 C 0.36836 0.09443 0.1481 0.0
N1118 N 0.41439 0.10154 0.10339 0.0
N1119 N 0.39285 0.05606 0.17335 0.0
H1120 H 0.3088 0.11239 0.14909 0.0
H1121 H 0.32835 0.09779 0.16995 0.0
H1122 H 0.41479 0.0405 0.18017 0.0
H1123 H 0.36469 0.05104 0.17832 0.0
H1124 H 0.44004 0.09367 0.09661 0.0
H1125 H 0.39049 0.10652 0.0949 0.0
H1126 H 0.48483 0.11457 0.11375 0.0
H1127 H 0.50616 0.09984 0.13371 0.0
C1128 C 0.1705 0.84904 0.11099 0.0
C1129 C 0.17254 0.8113 0.1193 0.0
C1130 C 0.16021 0.84394 0.14833 0.0
C1131 C 0.14638 0.87774 0.13923 0.0
N1132 N 0.14028 0.91374 0.11146 0.0
N1133 N 0.16241 0.77354 0.14697 0.0
C1134 C 0.15243 0.8808 0.1204 0.0
C1135 C 0.16636 0.80883 0.13836 0.0
N1136 N 0.18662 0.85484 0.09437 0.0
N1137 N 0.16622 0.84481 0.1665 0.0
H1138 H 0.16052 0.7467 0.14046 0.0
H1139 H 0.15558 0.77124 0.16061 0.0
H1140 H 0.16399 0.87068 0.1739 0.0
H1141 H 0.1787 0.8214 0.17359 0.0
H1142 H 0.18823 0.8824 0.08827 0.0
H1143 H 0.20271 0.83307 0.08777 0.0
H1144 H 0.13972 0.91582 0.09744 0.0
H1145 H 0.12924 0.93829 0.1182 0.0
C1146 C 0.41543 0.91085 0.36456 0.0
C1147 C 0.44465 0.93179 0.37419 0.0
C1148 C 0.41236 0.91527 0.40276 0.0
C1149 C 0.38374 0.8932 0.39318 0.0
N1150 N 0.3511 0.88012 0.36502 0.0
N1151 N 0.46195 0.9661 0.40147 0.0
C1152 C 0.38312 0.8943 0.37405 0.0
C1153 C 0.44008 0.9381 0.39297 0.0
N1154 N 0.41873 0.90652 0.34635 0.0
N1155 N 0.41517 0.91245 0.42109 0.0
H1156 H 0.48118 0.98449 0.39459 0.0
H1157 H 0.45748 0.97427 0.41483 0.0
H1158 H 0.39562 0.89655 0.42898 0.0
H1159 H 0.43883 0.92357 0.42839 0.0
H1160 H 0.40173 0.88711 0.33883 0.0
H1161 H 0.43931 0.922 0.33883 0.0
H1162 H 0.34708 0.88299 0.35117 0.0
H1163 H 0.32659 0.86889 0.37167 0.0
C1164 C 0.35342 0.15561 0.65103 0.0
C1165 C 0.36157 0.119 0.64293 0.0
C1166 C 0.33158 0.1433 0.61489 0.0
C1167 C 0.33261 0.18235 0.62172 0.0
N1168 N 0.35394 0.22516 0.64614 0.0
N1169 N 0.35818 0.07706 0.61693 0.0
C1170 C 0.34535 0.18847 0.63987 0.0
C1171 C 0.35036 0.11249 0.62477 0.0
N1172 N 0.35481 0.15962 0.66932 0.0
N1173 N 0.31191 0.13547 0.59925 0.0
H1174 H 0.36963 0.05335 0.62421 0.0
H1175 H 0.35492 0.07192 0.60317 0.0
H1176 H 0.29603 0.15691 0.59226 0.0
H1177 H 0.3077 0.10711 0.59435 0.0
H1178 H 0.34614 0.1853 0.67588 0.0
H1179 H 0.35965 0.13602 0.67798 0.0
H1180 H 0.3671 0.23007 0.65863 0.0
H1181 H 0.35329 0.25019 0.63821 0.0
C1182 C 0.09018 0.07551 0.89457 0.0
C1183 C 0.11453 0.10344 0.88563 0.0
C1184 C 0.08203 0.08773 0.85693 0.0
C1185 C 0.05714 0.06086 0.86598 0.0
N1186 N 0.04925 0.01776 0.8915 0.0
N1187 N 0.14323 0.12406 0.85749 0.0
C1188 C 0.06527 0.05082 0.88414 0.0
C1189 C 0.11347 0.10573 0.86651 0.0
N1190 N 0.08821 0.07413 0.91294 0.0
N1191 N 0.07548 0.09632 0.83922 0.0
H1192 H 0.16785 0.13535 0.86408 0.0
H1193 H 0.14576 0.12402 0.8435 0.0
H1194 H 0.05546 0.08069 0.83142 0.0
H1195 H 0.08911 0.11948 0.83251 0.0
H1196 H 0.06713 0.05782 0.91982 0.0
H1197 H 0.1051 0.09141 0.92143 0.0
H1198 H 0.05691 0.00725 0.90424 0.0
H1199 H 0.03206 0.99834 0.88407 0.0
C1200 C 0.80785 0.80587 0.64299 0.0
C1201 C 0.80485 0.80236 0.62396 0.0
C1202 C 0.84552 0.86176 0.62066 0.0
C1203 C 0.85368 0.86115 0.63944 0.0
N1204 N 0.84732 0.82788 0.66812 0.0
N1205 N 0.82163 0.82647 0.59445 0.0
C1206 C 0.8357 0.8323 0.65058 0.0
C1207 C 0.82387 0.8303 0.61273 0.0
N1208 N 0.7845 0.78362 0.65393 0.0
N1209 N 0.85737 0.8931 0.61049 0.0
H1210 H 0.80356 0.80583 0.58823 0.0
H1211 H 0.83887 0.84252 0.5855 0.0
H1212 H 0.87218 0.91711 0.61595 0.0
H1213 H 0.84928 0.89718 0.59708 0.0
H1214 H 0.78259 0.78791 0.66779 0.0
H1215 H 0.76391 0.76373 0.64905 0.0
H1216 H 0.83884 0.80425 0.67615 0.0
H1217 H 0.86856 0.84531 0.67425 0.0
C1218 C 0.94204 0.09063 0.38816 0.0
C1219 C 0.93781 0.0784 0.36983 0.0
C1220 C 0.86769 0.09624 0.37134 0.0
C1221 C 0.87218 0.10685 0.38969 0.0
N1222 N 0.91008 0.09898 0.41695 0.0
N1223 N 0.89294 0.05749 0.3465 0.0
C1224 C 0.90798 0.09838 0.39859 0.0
C1225 C 0.89938 0.07731 0.36221 0.0
N1226 N 0.97803 0.09898 0.39534 0.0
N1227 N 0.83345 0.1048 0.36253 0.0
H1228 H 0.91496 0.04133 0.3401 0.0
H1229 H 0.86502 0.05329 0.34105 0.0
H1230 H 0.80915 0.11688 0.36908 0.0
H1231 H 0.83006 0.1018 0.34864 0.0
H1232 H 0.98156 0.11183 0.40799 0.0
H1233 H 0.00396 0.09828 0.38811 0.0
H1234 H 0.93508 0.09009 0.42404 0.0
H1235 H 0.88554 0.10328 0.42505 0.0
C1236 C 0.64901 0.11307 0.11989 0.0
C1237 C 0.642 0.11729 0.13862 0.0
C1238 C 0.66031 0.18618 0.13695 0.0
C1239 C 0.66841 0.18254 0.11811 0.0
N1240 N 0.68284 0.13829 0.09356 0.0
N1241 N 0.65813 0.15296 0.16569 0.0
C1242 C 0.66677 0.14454 0.11015 0.0
C1243 C 0.65416 0.15193 0.1474 0.0
N1244 N 0.63813 0.07925 0.11139 0.0
N1245 N 0.65389 0.2219 0.14475 0.0
H1246 H 0.65524 0.12812 0.17377 0.0
H1247 H 0.66951 0.17725 0.17246 0.0
H1248 H 0.65187 0.24782 0.13754 0.0
H1249 H 0.64443 0.22508 0.15802 0.0
H1250 H 0.63824 0.0761 0.09742 0.0
H1251 H 0.62741 0.05494 0.11842 0.0
H1252 H 0.685 0.11056 0.08771 0.0
H1253 H 0.69803 0.16012 0.08658 0.0
C1254 C 0.60797 0.92361 0.90262 0.0
C1255 C 0.63693 0.90331 0.89229 0.0
C1256 C 0.60228 0.92214 0.86439 0.0
C1257 C 0.57228 0.94059 0.8747 0.0
N1258 N 0.55228 0.96851 0.903 0.0
N1259 N 0.66859 0.89549 0.86363 0.0
C1260 C 0.57695 0.94424 0.89364 0.0
C1261 C 0.63625 0.90672 0.87324 0.0
N1262 N 0.6088 0.92204 0.92099 0.0
N1263 N 0.59734 0.91689 0.84627 0.0
H1264 H 0.69414 0.88516 0.86988 0.0
H1265 H 0.67169 0.9004 0.84985 0.0
H1266 H 0.57338 0.92791 0.83912 0.0
H1267 H 0.6156 0.8991 0.83851 0.0
H1268 H 0.58489 0.92947 0.92905 0.0
H1269 H 0.63326 0.9132 0.92833 0.0
H1270 H 0.55638 0.97597 0.91647 0.0
H1271 H 0.52966 0.98432 0.89683 0.0
C1272 C 0.84781 0.12043 0.89716 0.0
C1273 C 0.85251 0.12449 0.87831 0.0
C1274 C 0.83156 0.1932 0.87997 0.0
C1275 C 0.82875 0.18993 0.89914 0.0
N1276 N 0.81942 0.14681 0.92457 0.0
N1277 N 0.83315 0.1587 0.85136 0.0
C1278 C 0.83193 0.15221 0.90727 0.0
C1279 C 0.83855 0.15874 0.86959 0.0
N1280 N 0.85989 0.08661 0.90542 0.0
N1281 N 0.83115 0.22906 0.87162 0.0
H1282 H 0.83704 0.13348 0.84363 0.0
H1283 H 0.82017 0.18194 0.84436 0.0
H1284 H 0.82813 0.2557 0.87825 0.0
H1285 H 0.83742 0.2328 0.85799 0.0
H1286 H 0.86172 0.08335 0.91936 0.0
H1287 H 0.86958 0.06232 0.89808 0.0
H1288 H 0.81835 0.11939 0.93081 0.0
H1289 H 0.80605 0.16925 0.93195 0.0
C1290 C 0.63058 0.10906 0.65231 0.0
C1291 C 0.6253 0.11685 0.63368 0.0
C1292 C 0.55769 0.09289 0.63563 0.0
C1293 C 0.56315 0.08338 0.65427 0.0
N1294 N 0.61015 0.0699 0.67792 0.0
N1295 N 0.5886 0.10236 0.60663 0.0
C1296 C 0.6014 0.08742 0.66183 0.0
C1297 C 0.59073 0.10356 0.625 0.0
N1298 N 0.663 0.12297 0.66106 0.0
N1299 N 0.52104 0.09573 0.62818 0.0
H1300 H 0.61216 0.1094 0.59834 0.0
H1301 H 0.56507 0.08974 0.59975 0.0
H1302 H 0.49515 0.09229 0.63527 0.0
H1303 H 0.51604 0.10653 0.61522 0.0
H1304 H 0.66616 0.1219 0.67503 0.0
H1305 H 0.68556 0.13776 0.65443 0.0
H1306 H 0.6384 0.06944 0.68338 0.0
H1307 H 0.59026 0.05181 0.68466 0.0
C1308 C 0.6779 0.83552 0.40654 0.0
C1309 C 0.69673 0.80758 0.39538 0.0
C1310 C 0.6791 0.84686 0.36862 0.0
C1311 C 0.6533 0.8699 0.37946 0.0
N1312 N 0.63357 0.89141 0.409 0.0
N1313 N 0.71999 0.78847 0.36611 0.0
C1314 C 0.65469 0.86595 0.39856 0.0
C1315 C 0.69934 0.81429 0.37654 0.0
N1316 N 0.68342 0.83338 0.42475 0.0
N1317 N 0.68477 0.85603 0.35087 0.0
H1318 H 0.73895 0.76755 0.37159 0.0
H1319 H 0.71789 0.78707 0.35213 0.0
H1320 H 0.67166 0.87974 0.34441 0.0
H1321 H 0.70579 0.84263 0.34276 0.0
H1322 H 0.67241 0.85361 0.43394 0.0
H1323 H 0.70258 0.81298 0.43054 0.0
H1324 H 0.62892 0.88779 0.42275 0.0
H1325 H 0.62021 0.91653 0.40371 0.0
C1326 C 0.93026 0.92482 0.13537 0.0
C1327 C 0.93496 0.91891 0.15419 0.0
C1328 C 0.87383 0.88078 0.1546 0.0
C1329 C 0.87309 0.88068 0.13547 0.0
N1330 N 0.9021 0.90211 0.10737 0.0
N1331 N 0.91284 0.88833 0.18172 0.0
C1332 C 0.9013 0.90309 0.12576 0.0
C1333 C 0.90688 0.89654 0.16388 0.0
N1334 N 0.953 0.95192 0.1267 0.0
N1335 N 0.84242 0.86633 0.1639 0.0
H1336 H 0.93656 0.89925 0.18905 0.0
H1337 H 0.89598 0.86819 0.1889 0.0
H1338 H 0.81732 0.85589 0.15742 0.0
H1339 H 0.83942 0.8687 0.17782 0.0
H1340 H 0.9482 0.96078 0.11343 0.0
H1341 H 0.97433 0.96845 0.13328 0.0
H1342 H 0.92567 0.91237 0.09978 0.0
H1343 H 0.88013 0.88955 0.09959 0.0
C1344 C 0.68979 0.68804 0.88251 0.0
C1345 C 0.68329 0.69023 0.90139 0.0
C1346 C 0.6464 0.62834 0.89995 0.0
C1347 C 0.64679 0.63011 0.88085 0.0
N1348 N 0.669 0.66219 0.85366 0.0
N1349 N 0.65288 0.66368 0.92811 0.0
C1350 C 0.66913 0.65968 0.87203 0.0
C1351 C 0.66144 0.66034 0.91019 0.0
N1352 N 0.71644 0.71263 0.87464 0.0
N1353 N 0.63181 0.59564 0.90827 0.0
H1354 H 0.66307 0.68663 0.93613 0.0
H1355 H 0.63314 0.64537 0.93476 0.0
H1356 H 0.62138 0.57155 0.90103 0.0
H1357 H 0.63386 0.59068 0.92209 0.0
H1358 H 0.72566 0.70994 0.86132 0.0
H1359 H 0.73224 0.7335 0.8819 0.0
H1360 H 0.67927 0.68653 0.84659 0.0
H1361 H 0.65711 0.64065 0.84541 0.0
C1362 C 0.58586 0.36171 0.13972 0.0
C1363 C 0.62326 0.37798 0.13618 0.0
C1364 C 0.59552 0.4424 0.14479 0.0
C1365 C 0.55696 0.42599 0.14419 0.0
N1366 N 0.5187 0.37244 0.13189 0.0
N1367 N 0.66363 0.43611 0.13498 0.0
C1368 C 0.55306 0.38643 0.1388 0.0
C1369 C 0.62808 0.41928 0.13839 0.0
N1370 N 0.58076 0.32361 0.14484 0.0
N1371 N 0.60158 0.47864 0.1521 0.0
H1372 H 0.68856 0.41952 0.13189 0.0
H1373 H 0.66774 0.46644 0.13458 0.0
H1374 H 0.57907 0.49544 0.15767 0.0
H1375 H 0.62952 0.49029 0.15418 0.0
H1376 H 0.55319 0.3136 0.14895 0.0
H1377 H 0.60367 0.30457 0.14805 0.0
H1378 H 0.51617 0.34369 0.12722 0.0
H1379 H 0.49511 0.3908 0.12867 0.0
C1380 C 0.83535 0.30525 0.38422 0.0
C1381 C 0.82438 0.30806 0.4028 0.0
C1382 C 0.84673 0.37684 0.40265 0.0
C1383 C 0.85603 0.37392 0.38411 0.0
N1384 N 0.84264 0.34059 0.35615 0.0
N1385 N 0.80649 0.352 0.42703 0.0
C1386 C 0.84424 0.34009 0.37451 0.0
C1387 C 0.82581 0.34569 0.41118 0.0
N1388 N 0.84133 0.26981 0.37601 0.0
N1389 N 0.85833 0.40902 0.41222 0.0
H1390 H 0.78851 0.33078 0.43291 0.0
H1391 H 0.80441 0.3796 0.43303 0.0
H1392 H 0.87202 0.43303 0.40616 0.0
H1393 H 0.85615 0.41073 0.4262 0.0
H1394 H 0.85239 0.26735 0.36297 0.0
H1395 H 0.84088 0.24295 0.38258 0.0
H1396 H 0.83168 0.31717 0.34863 0.0
H1397 H 0.84693 0.36614 0.34869 0.0
C1398 C 0.87504 0.56812 0.63326 0.0
C1399 C 0.87741 0.61 0.63317 0.0
C1400 C 0.92891 0.60519 0.65593 0.0
C1401 C 0.93369 0.56456 0.65279 0.0
N1402 N 0.91247 0.5076 0.63576 0.0
N1403 N 0.92035 0.66542 0.63994 0.0
C1404 C 0.90692 0.54576 0.64077 0.0
C1405 C 0.90808 0.62791 0.64329 0.0
N1406 N 0.84245 0.54953 0.62683 0.0
N1407 N 0.94477 0.62254 0.67076 0.0
H1408 H 0.91191 0.68125 0.62855 0.0
H1409 H 0.94399 0.67797 0.64681 0.0
H1410 H 0.95865 0.60637 0.68089 0.0
H1411 H 0.93964 0.65206 0.67373 0.0
H1412 H 0.83855 0.51923 0.62795 0.0
H1413 H 0.81747 0.56452 0.62245 0.0
H1414 H 0.89586 0.49431 0.62565 0.0
H1415 H 0.93553 0.49026 0.64049 0.0
C1416 C 0.66249 0.35639 0.60836 0.0
C1417 C 0.66335 0.31936 0.61733 0.0
C1418 C 0.6529 0.35407 0.64587 0.0
C1419 C 0.64076 0.38796 0.63635 0.0
N1420 N 0.63644 0.42299 0.6083 0.0
N1421 N 0.65144 0.28357 0.64527 0.0
C1422 C 0.64674 0.38974 0.61749 0.0
C1423 C 0.6572 0.31824 0.63635 0.0
N1424 N 0.67728 0.35983 0.59134 0.0
N1425 N 0.65922 0.35565 0.66399 0.0
H1426 H 0.64941 0.25649 0.63891 0.0
H1427 H 0.64334 0.28238 0.6588 0.0
H1428 H 0.65868 0.38208 0.67106 0.0
H1429 H 0.67019 0.33186 0.67134 0.0
H1430 H 0.67992 0.38666 0.58468 0.0
H1431 H 0.69098 0.33647 0.58474 0.0
H1432 H 0.63572 0.42465 0.59428 0.0
H1433 H 0.62717 0.44844 0.61492 0.0
C1434 C 0.93374 0.42738 0.89043 0.0
C1435 C 0.93424 0.42741 0.87129 0.0
C1436 C 0.86818 0.39801 0.87119 0.0
C1437 C 0.87088 0.39179 0.89006 0.0
N1438 N 0.90676 0.40053 0.91792 0.0
N1439 N 0.90211 0.4117 0.84316 0.0
C1440 C 0.90345 0.40709 0.89981 0.0
C1441 C 0.90116 0.4131 0.86157 0.0
N1442 N 0.96176 0.44778 0.89972 0.0
N1443 N 0.83366 0.38983 0.86253 0.0
H1444 H 0.92564 0.42201 0.83556 0.0
H1445 H 0.88108 0.39736 0.8354 0.0
H1446 H 0.80898 0.37934 0.86934 0.0
H1447 H 0.82811 0.39702 0.84913 0.0
H1448 H 0.96063 0.45275 0.91356 0.0
H1449 H 0.98425 0.46314 0.8934 0.0
H1450 H 0.9326 0.40502 0.92517 0.0
H1451 H 0.88435 0.38884 0.92571 0.0
C1452 C 0.79756 0.66881 0.14405 0.0
C1453 C 0.80353 0.6783 0.12558 0.0
C1454 C 0.84654 0.62054 0.12242 0.0
C1455 C 0.84468 0.61437 0.14136 0.0
N1456 N 0.80331 0.61985 0.16767 0.0
N1457 N 0.82161 0.65559 0.09613 0.0
C1458 C 0.81542 0.63441 0.15145 0.0
C1459 C 0.82439 0.65172 0.1144 0.0
N1460 N 0.776 0.69331 0.15474 0.0
N1461 N 0.86928 0.59614 0.11217 0.0
H1462 H 0.80281 0.67603 0.09018 0.0
H1463 H 0.83432 0.63643 0.08692 0.0
H1464 H 0.88108 0.57005 0.1173 0.0
H1465 H 0.87642 0.60141 0.09876 0.0
H1466 H 0.77569 0.69136 0.16875 0.0
H1467 H 0.75956 0.71666 0.14968 0.0
H1468 H 0.7802 0.63184 0.17503 0.0
H1469 H 0.81197 0.59245 0.17249 0.0
C1470 C 0.63148 0.60219 0.36516 0.0
C1471 C 0.62474 0.60625 0.38402 0.0
C1472 C 0.56885 0.56107 0.38135 0.0
C1473 C 0.56967 0.56552 0.36237 0.0
N1474 N 0.61261 0.57101 0.3369 0.0
N1475 N 0.5868 0.58785 0.41027 0.0
C1476 C 0.60444 0.58029 0.35439 0.0
C1477 C 0.59394 0.58449 0.39225 0.0
N1478 N 0.66333 0.61994 0.35756 0.0
N1479 N 0.54613 0.53249 0.38888 0.0
H1480 H 0.60498 0.60314 0.41902 0.0
H1481 H 0.56138 0.57723 0.41637 0.0
H1482 H 0.53189 0.51164 0.38099 0.0
H1483 H 0.54644 0.52568 0.40257 0.0
H1484 H 0.66753 0.62292 0.34374 0.0
H1485 H 0.68559 0.63237 0.36529 0.0
H1486 H 0.63835 0.57882 0.33027 0.0
H1487 H 0.59543 0.55115 0.32966 0.0
C1488 C 0.34367 0.33742 0.14445 0.0
C1489 C 0.35592 0.37172 0.13536 0.0
C1490 C 0.3317 0.34331 0.10708 0.0
C1491 C 0.32979 0.30562 0.11538 0.0
N1492 N 0.34157 0.26705 0.14263 0.0
N1493 N 0.36123 0.40814 0.10769 0.0
C1494 C 0.33699 0.30266 0.13434 0.0
C1495 C 0.34953 0.37503 0.11656 0.0
N1496 N 0.33992 0.33746 0.16275 0.0
N1497 N 0.31571 0.34909 0.09039 0.0
H1498 H 0.37241 0.43251 0.11449 0.0
H1499 H 0.36152 0.41052 0.09369 0.0
H1500 H 0.30013 0.3272 0.08364 0.0
H1501 H 0.31383 0.37664 0.08429 0.0
H1502 H 0.32836 0.31381 0.16992 0.0
H1503 H 0.34343 0.36284 0.17039 0.0
H1504 H 0.34972 0.26413 0.15611 0.0
H1505 H 0.34276 0.2405 0.13586 0.0
C1506 C 0.42547 0.55415 0.8845 0.0
C1507 C 0.44129 0.56994 0.86819 0.0
C1508 C 0.38573 0.61647 0.8668 0.0
C1509 C 0.37469 0.60568 0.88451 0.0
N1510 N 0.37006 0.55101 0.90502 0.0
N1511 N 0.43532 0.6164 0.84357 0.0
C1512 C 0.39032 0.5705 0.89191 0.0
C1513 C 0.42081 0.60089 0.85918 0.0
N1514 N 0.44518 0.52526 0.89364 0.0
N1515 N 0.36084 0.63931 0.85676 0.0
H1516 H 0.45889 0.60428 0.83664 0.0
H1517 H 0.42515 0.64259 0.83794 0.0
H1518 H 0.33301 0.64738 0.86139 0.0
H1519 H 0.36517 0.64564 0.84317 0.0
H1520 H 0.43846 0.51705 0.9068 0.0
H1521 H 0.46992 0.51098 0.88869 0.0
H1522 H 0.37825 0.52356 0.91001 0.0
H1523 H 0.34177 0.55909 0.90888 0.0
C1524 C 0.18103 0.678 0.63986 0.0
C1525 C 0.17733 0.68071 0.62083 0.0
C1526 C 0.14393 0.61673 0.6206 0.0
C1527 C 0.14128 0.61771 0.63967 0.0
N1528 N 0.15704 0.6502 0.66773 0.0
N1529 N 0.15282 0.65363 0.59295 0.0
C1530 C 0.16037 0.64818 0.64941 0.0
C1531 C 0.1587 0.64999 0.6111 0.0
N1532 N 0.20506 0.70351 0.64882 0.0
N1533 N 0.13244 0.58364 0.61163 0.0
H1534 H 0.16286 0.6775 0.58546 0.0
H1535 H 0.13536 0.63448 0.5855 0.0
H1536 H 0.12224 0.55869 0.61835 0.0
H1537 H 0.13681 0.57942 0.59788 0.0
H1538 H 0.21248 0.70049 0.66238 0.0
H1539 H 0.22071 0.72559 0.64232 0.0
H1540 H 0.16456 0.67498 0.67519 0.0
H1541 H 0.14519 0.62786 0.67554 0.0
C1542 C 0.09506 0.42848 0.40439 0.0
C1543 C 0.12235 0.40617 0.39398 0.0
C1544 C 0.08838 0.42693 0.3662 0.0
C1545 C 0.05932 0.44622 0.37666 0.0
N1546 N 0.04277 0.47721 0.40478 0.0
N1547 N 0.15296 0.39622 0.36519 0.0
C1548 C 0.06527 0.4509 0.39546 0.0
C1549 C 0.12146 0.40932 0.3749 0.0
N1550 N 0.09586 0.42684 0.42277 0.0
N1551 N 0.08415 0.42518 0.34794 0.0
H1552 H 0.17814 0.38481 0.37135 0.0
H1553 H 0.15596 0.40023 0.35135 0.0
H1554 H 0.06325 0.44192 0.34111 0.0
H1555 H 0.10088 0.407 0.33968 0.0
H1556 H 0.07271 0.43633 0.43084 0.0
H1557 H 0.11922 0.41543 0.43012 0.0
H1558 H 0.04803 0.48495 0.41813 0.0
H1559 H 0.0214 0.49464 0.39861 0.0
C1560 C 0.36468 0.62091 0.40008 0.0
C1561 C 0.37282 0.62709 0.38154 0.0
C1562 C 0.36003 0.6973 0.38517 0.0
C1563 C 0.35033 0.6914 0.40366 0.0
N1564 N 0.33284 0.64548 0.42709 0.0
N1565 N 0.36391 0.66863 0.35547 0.0
C1566 C 0.34931 0.65246 0.41063 0.0
C1567 C 0.36518 0.66431 0.37375 0.0
N1568 N 0.37222 0.58508 0.40767 0.0
N1569 N 0.36826 0.73399 0.37874 0.0
H1570 H 0.36631 0.64499 0.34667 0.0
H1571 H 0.35544 0.69477 0.3492 0.0
H1572 H 0.36931 0.75876 0.38685 0.0
H1573 H 0.37921 0.73904 0.36583 0.0
H1574 H 0.37139 0.57998 0.42151 0.0
H1575 H 0.38108 0.56086 0.40008 0.0
H1576 H 0.32832 0.61735 0.43223 0.0
H1577 H 0.31989 0.66766 0.43477 0.0
C1578 C 0.12463 0.6059 0.15212 0.0
C1579 C 0.12004 0.61195 0.13329 0.0
C1580 C 0.05858 0.57415 0.13417 0.0
C1581 C 0.05956 0.57442 0.15331 0.0
N1582 N 0.09342 0.592 0.18078 0.0
N1583 N 0.08052 0.60394 0.10642 0.0
C1584 C 0.09287 0.59013 0.16239 0.0
C1585 C 0.08673 0.59618 0.12427 0.0
N1586 N 0.15976 0.61469 0.16011 0.0
N1587 N 0.03139 0.55174 0.12536 0.0
H1588 H 0.10071 0.61842 0.09833 0.0
H1589 H 0.05404 0.59821 0.09987 0.0
H1590 H 0.011 0.53432 0.13208 0.0
H1591 H 0.03179 0.54699 0.1115 0.0
H1592 H 0.16658 0.60758 0.1734 0.0
H1593 H 0.18366 0.62556 0.15286 0.0
H1594 H 0.11472 0.60712 0.18807 0.0
H1595 H 0.07082 0.58138 0.18886 0.0
C1596 C 0.19344 0.3133 0.87903 0.0
C1597 C 0.18787 0.30657 0.89766 0.0
C1598 C 0.14816 0.36689 0.89928 0.0
C1599 C 0.14554 0.36769 0.88014 0.0
N1600 N 0.16747 0.34094 0.85152 0.0
N1601 N 0.16527 0.3301 0.9263 0.0
C1602 C 0.16934 0.34132 0.8699 0.0
C1603 C 0.16699 0.33454 0.90804 0.0
N1604 N 0.22228 0.29332 0.87011 0.0
N1605 N 0.13357 0.39776 0.90898 0.0
H1606 H 0.18266 0.30963 0.93309 0.0
H1607 H 0.14659 0.3462 0.93459 0.0
H1608 H 0.12161 0.42269 0.90283 0.0
H1609 H 0.13686 0.40067 0.92285 0.0
H1610 H 0.23029 0.29935 0.85685 0.0
H1611 H 0.24144 0.27409 0.87668 0.0
H1612 H 0.17926 0.31837 0.84373 0.0
H1613 H 0.15283 0.36192 0.8439 0.0
C1614 C 0.39992 0.40429 0.62271 0.0
C1615 C 0.37039 0.38466 0.63282 0.0
C1616 C 0.40122 0.4075 0.66094 0.0
C1617 C 0.43 0.42804 0.65079 0.0
N1618 N 0.44984 0.45477 0.62212 0.0
N1619 N 0.33692 0.37675 0.66115 0.0
C1620 C 0.42705 0.42924 0.63171 0.0
C1621 C 0.36915 0.38927 0.65183 0.0
N1622 N 0.40406 0.39731 0.60468 0.0
N1623 N 0.40562 0.40322 0.67915 0.0
H1624 H 0.31258 0.36422 0.65481 0.0
H1625 H 0.33257 0.38253 0.67479 0.0
H1626 H 0.42867 0.41573 0.68639 0.0
H1627 H 0.38816 0.38462 0.68689 0.0
H1628 H 0.42835 0.4065 0.59728 0.0
H1629 H 0.38505 0.37982 0.59727 0.0
H1630 H 0.44605 0.46004 0.60839 0.0
H1631 H 0.46972 0.47377 0.62822 0.0
C1632 C 0.12947 0.8988 0.38327 0.0
C1633 C 0.13989 0.93906 0.38364 0.0
C1634 C 0.20949 0.9211 0.38527 0.0
C1635 C 0.19885 0.88105 0.38694 0.0
N1636 N 0.14886 0.83175 0.39015 0.0
N1637 N 0.18885 0.98899 0.38818 0.0
C1638 C 0.15881 0.86982 0.38659 0.0
C1639 C 0.17971 0.95038 0.38548 0.0
N1640 N 0.09175 0.88841 0.37921 0.0
N1641 N 0.24803 0.93094 0.38295 0.0
H1642 H 0.16752 0.01098 0.38896 0.0
H1643 H 0.21705 0.99865 0.39135 0.0
H1644 H 0.27034 0.90993 0.38222 0.0
H1645 H 0.25736 0.95935 0.37998 0.0
H1646 H 0.08301 0.85949 0.37704 0.0
H1647 H 0.06989 0.90914 0.37646 0.0
H1648 H 0.11998 0.82241 0.39187 0.0
H1649 H 0.16977 0.81005 0.39287 0.0
C1650 C 0.35549 0.90564 0.65692 0.0
C1651 C 0.36788 0.9312 0.64295 0.0
C1652 C 0.32562 0.89691 0.62146 0.0
C1653 C 0.31097 0.87332 0.63565 0.0
N1654 N 0.30717 0.85812 0.66717 0.0
N1655 N 0.35898 0.95696 0.61302 0.0
C1656 C 0.3245 0.87862 0.65352 0.0
C1657 C 0.35118 0.92854 0.62551 0.0
N1658 N 0.37451 0.90622 0.67314 0.0
N1659 N 0.31648 0.88786 0.60404 0.0
H1660 H 0.37694 0.981 0.6158 0.0
H1661 H 0.34475 0.95873 0.6006 0.0
H1662 H 0.29912 0.86379 0.60067 0.0
H1663 H 0.32917 0.90168 0.59296 0.0
H1664 H 0.36946 0.88589 0.68337 0.0
H1665 H 0.39768 0.92535 0.67585 0.0
H1666 H 0.313 0.86312 0.68076 0.0
H1667 H 0.2846 0.83802 0.66487 0.0
C1668 C 0.33206 0.11724 0.89937 0.0
C1669 C 0.30322 0.11976 0.88558 0.0
C1670 C 0.34047 0.07254 0.86757 0.0
C1671 C 0.36657 0.06636 0.8822 0.0
N1672 N 0.38359 0.07797 0.91319 0.0
N1673 N 0.27513 0.09261 0.85849 0.0
C1674 C 0.36133 0.08738 0.89848 0.0
C1675 C 0.30601 0.09532 0.8702 0.0
N1676 N 0.33235 0.14434 0.91291 0.0
N1677 N 0.34965 0.05834 0.85092 0.0
H1678 H 0.24856 0.10726 0.86056 0.0
H1679 H 0.27443 0.07254 0.8479 0.0
H1680 H 0.37628 0.04431 0.84834 0.0
H1681 H 0.33321 0.0647 0.83941 0.0
H1682 H 0.35473 0.14614 0.92248 0.0
H1683 H 0.31221 0.16746 0.91353 0.0
H1684 H 0.37865 0.08972 0.92594 0.0
H1685 H 0.40468 0.05565 0.91297 0.0
C1686 C 0.17785 0.09784 0.14888 0.0
C1687 C 0.18074 0.11545 0.13166 0.0
C1688 C 0.12496 0.07654 0.12101 0.0
C1689 C 0.12008 0.06176 0.13867 0.0
N1690 N 0.13584 0.06455 0.17023 0.0
N1691 N 0.15423 0.12662 0.102 0.0
C1692 C 0.14484 0.07423 0.15287 0.0
C1693 C 0.15353 0.10613 0.11783 0.0
N1694 N 0.20744 0.10258 0.16113 0.0
N1695 N 0.10277 0.06156 0.10731 0.0
H1696 H 0.17445 0.14896 0.0995 0.0
H1697 H 0.13299 0.12372 0.09197 0.0
H1698 H 0.08134 0.04019 0.10948 0.0
H1699 H 0.1074 0.06824 0.09379 0.0
H1700 H 0.2087 0.08743 0.17333 0.0
H1701 H 0.23275 0.11868 0.15832 0.0
H1702 H 0.15089 0.07559 0.18136 0.0
H1703 H 0.11063 0.04882 0.17354 0.0
C1704 C 0.82026 0.05124 0.63472 0.0
C1705 C 0.86105 0.05843 0.6361 0.0
C1706 C 0.84925 0.12934 0.63485 0.0
C1707 C 0.80831 0.12209 0.63479 0.0
N1708 N 0.75452 0.07705 0.63861 0.0
N1709 N 0.91458 0.1033 0.64061 0.0
C1710 C 0.7937 0.08322 0.63591 0.0
C1711 C 0.87566 0.09728 0.63707 0.0
N1712 N 0.80714 0.01397 0.63157 0.0
N1713 N 0.86269 0.16663 0.63209 0.0
H1714 H 0.93438 0.08017 0.64245 0.0
H1715 H 0.92651 0.13089 0.64317 0.0
H1716 H 0.84383 0.19057 0.63036 0.0
H1717 H 0.89223 0.17336 0.63019 0.0
H1718 H 0.77792 0.00738 0.62868 0.0
H1719 H 0.82612 0.99004 0.63015 0.0
H1720 H 0.74253 0.0495 0.64122 0.0
H1721 H 0.73451 0.10006 0.64 0.0
C1722 C 0.69253 0.06978 0.38734 0.0
C1723 C 0.68052 0.10916 0.39013 0.0
C1724 C 0.61149 0.08909 0.38973 0.0
C1725 C 0.62374 0.04953 0.38806 0.0
N1726 N 0.67514 0.00089 0.38897 0.0
N1727 N 0.6299 0.1563 0.39673 0.0
C1728 C 0.66413 0.03948 0.38799 0.0
C1729 C 0.64027 0.11886 0.39211 0.0
N1730 N 0.73087 0.0617 0.3833 0.0
N1731 N 0.57243 0.09803 0.38851 0.0
H1732 H 0.65064 0.17847 0.3986 0.0
H1733 H 0.60134 0.16468 0.39999 0.0
H1734 H 0.55092 0.07646 0.387 0.0
H1735 H 0.56157 0.12663 0.38784 0.0
H1736 H 0.74079 0.03404 0.37936 0.0
H1737 H 0.7522 0.0835 0.38229 0.0
H1738 H 0.70414 0.9917 0.39067 0.0
H1739 H 0.65483 0.97805 0.38978 0.0
C1740 C 0.67306 0.93703 0.13977 0.0
C1741 C 0.63331 0.92726 0.14311 0.0
C1742 C 0.65024 0.85718 0.1432 0.0
C1743 C 0.69027 0.86718 0.14095 0.0
N1744 N 0.74117 0.9161 0.14093 0.0
N1745 N 0.58442 0.8794 0.15086 0.0
C1746 C 0.70209 0.90705 0.14039 0.0
C1747 C 0.62198 0.88762 0.14566 0.0
N1748 N 0.6827 0.97469 0.13519 0.0
N1749 N 0.63933 0.81865 0.14239 0.0
H1750 H 0.56338 0.90134 0.15284 0.0
H1751 H 0.57496 0.85145 0.15454 0.0
H1752 H 0.65968 0.79594 0.14073 0.0
H1753 H 0.61019 0.80938 0.14215 0.0
H1754 H 0.71056 0.98291 0.13083 0.0
H1755 H 0.66189 0.99714 0.13419 0.0
H1756 H 0.7517 0.94466 0.14227 0.0
H1757 H 0.76307 0.89467 0.14177 0.0
C1758 C 0.84259 0.88123 0.87445 0.0
C1759 C 0.8235 0.87951 0.89134 0.0
C1760 C 0.85672 0.93959 0.90083 0.0
C1761 C 0.87849 0.93955 0.88456 0.0
N1762 N 0.89787 0.90629 0.85738 0.0
N1763 N 0.82013 0.90053 0.9222 0.0
C1764 C 0.87304 0.90914 0.87176 0.0
C1765 C 0.83284 0.90683 0.90502 0.0
N1766 N 0.83081 0.85686 0.86089 0.0
N1767 N 0.85732 0.97162 0.91187 0.0
H1768 H 0.80456 0.87541 0.92581 0.0
H1769 H 0.82888 0.91766 0.93311 0.0
H1770 H 0.87322 0.99689 0.90892 0.0
H1771 H 0.8389 0.97461 0.92299 0.0
H1772 H 0.84093 0.85919 0.8477 0.0
H1773 H 0.80841 0.83629 0.86258 0.0
H1774 H 0.89761 0.88281 0.8484 0.0
H1775 H 0.92127 0.92559 0.85545 0.0
C1776 C 0.65779 0.38706 0.87327 0.0
C1777 C 0.67869 0.3837 0.88972 0.0
C1778 C 0.64699 0.44362 0.90072 0.0
C1779 C 0.62309 0.44472 0.88506 0.0
N1780 N 0.6 0.41282 0.85813 0.0
N1781 N 0.68512 0.40252 0.92086 0.0
C1782 C 0.62682 0.415 0.8718 0.0
C1783 C 0.67095 0.41018 0.90399 0.0
N1784 N 0.6685 0.36455 0.85888 0.0
N1785 N 0.64844 0.47522 0.91201 0.0
H1786 H 0.70063 0.37691 0.92393 0.0
H1787 H 0.67757 0.4192 0.93211 0.0
H1788 H 0.63304 0.50117 0.90952 0.0
H1789 H 0.6682 0.47717 0.92272 0.0
H1790 H 0.65676 0.36832 0.84601 0.0
H1791 H 0.69181 0.3446 0.85944 0.0
H1792 H 0.59918 0.38975 0.84893 0.0
H1793 H 0.57612 0.43201 0.85713 0.0
C1794 C 0.84196 0.39005 0.11818 0.0
C1795 C 0.81601 0.3779 0.13199 0.0
C1796 C 0.84901 0.42078 0.15353 0.0
C1797 C 0.87301 0.43521 0.13946 0.0
N1798 N 0.8897 0.43828 0.10809 0.0
N1799 N 0.78883 0.3873 0.16155 0.0
C1800 C 0.86869 0.42118 0.12164 0.0
C1801 C 0.81778 0.39496 0.14933 0.0
N1802 N 0.84182 0.37081 0.10204 0.0
N1803 N 0.85726 0.4305 0.17097 0.0
H1804 H 0.76494 0.36923 0.15861 0.0
H1805 H 0.78647 0.40175 0.17387 0.0
H1806 H 0.88107 0.44812 0.17446 0.0
H1807 H 0.84304 0.41805 0.18199 0.0
H1808 H 0.86242 0.37571 0.09194 0.0
H1809 H 0.82263 0.34772 0.09928 0.0
H1810 H 0.88542 0.43203 0.0945 0.0
H1811 H 0.9096 0.46101 0.11044 0.0
C1812 C 0.83085 0.55011 0.38735 0.0
C1813 C 0.87084 0.56152 0.38697 0.0
C1814 C 0.85141 0.63087 0.38811 0.0
C1815 C 0.81152 0.61939 0.38703 0.0
N1816 N 0.76288 0.56916 0.38266 0.0
N1817 N 0.92003 0.61173 0.38512 0.0
C1818 C 0.80112 0.57923 0.38584 0.0
C1819 C 0.8814 0.60172 0.38689 0.0
N1820 N 0.82149 0.51141 0.38966 0.0
N1821 N 0.86027 0.66955 0.39073 0.0
H1822 H 0.94238 0.59071 0.38443 0.0
H1823 H 0.92973 0.64043 0.38323 0.0
H1824 H 0.83863 0.6913 0.39145 0.0
H1825 H 0.88853 0.67977 0.39331 0.0
H1826 H 0.79299 0.50143 0.39182 0.0
H1827 H 0.84277 0.48949 0.39098 0.0
H1828 H 0.7538 0.54061 0.37989 0.0
H1829 H 0.74053 0.58998 0.38121 0.0
C1830 C 0.63149 0.57668 0.61738 0.0
C1831 C 0.61319 0.57479 0.63447 0.0
C1832 C 0.64393 0.637 0.64276 0.0
C1833 C 0.6685 0.63437 0.62741 0.0
N1834 N 0.66318 0.61938 0.59584 0.0
N1835 N 0.60296 0.60216 0.66399 0.0
C1836 C 0.65648 0.60896 0.6133 0.0
C1837 C 0.6193 0.60497 0.64726 0.0
N1838 N 0.62489 0.54769 0.60507 0.0
N1839 N 0.64107 0.67173 0.65181 0.0
H1840 H 0.58553 0.57847 0.66789 0.0
H1841 H 0.60967 0.62151 0.67442 0.0
H1842 H 0.65489 0.69712 0.64711 0.0
H1843 H 0.62117 0.67655 0.66224 0.0
H1844 H 0.64063 0.54531 0.59309 0.0
H1845 H 0.6054 0.52464 0.60748 0.0
H1846 H 0.6531 0.60324 0.58485 0.0
H1847 H 0.6724 0.64769 0.5925 0.0
C1848 C 0.32974 0.59604 0.11174 0.0
C1849 C 0.32618 0.6255 0.12507 0.0
C1850 C 0.38228 0.59603 0.14106 0.0
C1851 C 0.37815 0.56177 0.13033 0.0
N1852 N 0.34458 0.52802 0.10619 0.0
N1853 N 0.36677 0.66533 0.14418 0.0
C1854 C 0.35114 0.56153 0.11578 0.0
C1855 C 0.35743 0.62908 0.13766 0.0
N1856 N 0.31792 0.60334 0.0945 0.0
N1857 N 0.40999 0.59696 0.15438 0.0
H1858 H 0.35365 0.69075 0.13902 0.0
H1859 H 0.39082 0.67086 0.15248 0.0
H1860 H 0.43071 0.57464 0.15617 0.0
H1861 H 0.41137 0.61899 0.16408 0.0
H1862 H 0.32254 0.58354 0.08399 0.0
H1863 H 0.30973 0.63155 0.09036 0.0
H1864 H 0.3227 0.52614 0.09636 0.0
H1865 H 0.35796 0.50132 0.10937 0.0
C1866 C 0.1394 0.56636 0.90185 0.0
C1867 C 0.13331 0.55206 0.88417 0.0
C1868 C 0.18761 0.59232 0.87316 0.0
C1869 C 0.19063 0.61006 0.89033 0.0
N1870 N 0.1667 0.61797 0.92058 0.0
N1871 N 0.146 0.5569 0.85236 0.0
C1872 C 0.1659 0.59802 0.90464 0.0
C1873 C 0.15601 0.5664 0.86962 0.0
N1874 N 0.12015 0.54913 0.9159 0.0
N1875 N 0.21564 0.59944 0.86044 0.0
H1876 H 0.12167 0.53961 0.84932 0.0
H1877 H 0.15924 0.56939 0.84108 0.0
H1878 H 0.23986 0.61742 0.86288 0.0
H1879 H 0.21698 0.58451 0.84821 0.0
H1880 H 0.12583 0.55569 0.92936 0.0
H1881 H 0.10068 0.52581 0.91408 0.0
H1882 H 0.14685 0.61307 0.931 0.0
H1883 H 0.18532 0.64177 0.92283 0.0
C1884 C 0.1604 0.37988 0.64986 0.0
C1885 C 0.1767 0.37184 0.63272 0.0
C1886 C 0.13648 0.4239 0.61931 0.0
C1887 C 0.1177 0.42943 0.63612 0.0
N1888 N 0.10521 0.40684 0.6663 0.0
N1889 N 0.17335 0.37915 0.60044 0.0
C1890 C 0.12766 0.40551 0.65108 0.0
C1891 C 0.1627 0.39178 0.61719 0.0
N1892 N 0.17736 0.36449 0.665 0.0
N1893 N 0.1308 0.45034 0.60569 0.0
H1894 H 0.19095 0.3544 0.59843 0.0
H1895 H 0.16135 0.3906 0.58861 0.0
H1896 H 0.11284 0.47503 0.60703 0.0
H1897 H 0.14681 0.44977 0.59374 0.0
H1898 H 0.16889 0.37233 0.67799 0.0
H1899 H 0.20249 0.3469 0.66459 0.0
H1900 H 0.10905 0.38762 0.67711 0.0
H1901 H 0.08019 0.4245 0.66731 0.0
C1902 C 0.34214 0.41999 0.3667 0.0
C1903 C 0.36257 0.43885 0.38089 0.0
C1904 C 0.32552 0.40169 0.4033 0.0
C1905 C 0.30442 0.38348 0.38913 0.0
N1906 N 0.28755 0.37821 0.35785 0.0
N1907 N 0.37082 0.45324 0.41227 0.0
C1908 C 0.31118 0.39364 0.37094 0.0
C1909 C 0.35322 0.43142 0.39911 0.0
N1910 N 0.35342 0.42646 0.34929 0.0
N1911 N 0.31986 0.38938 0.42063 0.0
H1912 H 0.39155 0.47489 0.40936 0.0
H1913 H 0.36308 0.45198 0.42582 0.0
H1914 H 0.29959 0.36766 0.424 0.0
H1915 H 0.33674 0.3987 0.43151 0.0
H1916 H 0.34246 0.41093 0.33832 0.0
H1917 H 0.3756 0.44621 0.34588 0.0
H1918 H 0.28838 0.38676 0.34439 0.0
H1919 H 0.26506 0.3584 0.36077 0.0
C1920 C 0.04404 0.02551 0.26871 0.0
C1921 C 0.05757 0.99635 0.28101 0.0
C1922 C 0.07286 0.95245 0.2557 0.0
C1923 C 0.05643 0.98035 0.24353 0.0
N1924 N 0.02136 0.04099 0.23846 0.0
N1925 N 0.07991 0.93027 0.28669 0.0
C1926 C 0.04065 0.01626 0.25004 0.0
C1927 C 0.0706 0.95927 0.27462 0.0
N1928 N 0.03552 0.06247 0.27482 0.0
N1929 N 0.09176 0.91998 0.24912 0.0
H1930 H 0.07908 0.93448 0.30061 0.0
H1931 H 0.08547 0.90127 0.28302 0.0
H1932 H 0.09394 0.91391 0.23538 0.0
H1933 H 0.10802 0.90068 0.2571 0.0
H1934 H 0.02991 0.08627 0.26636 0.0
H1935 H 0.03691 0.07025 0.2884 0.0
H1936 H 0.00531 0.0654 0.24264 0.0
H1937 H 0.01884 0.03548 0.22468 0.0
C1938 C 0.27441 0.79028 0.52425 0.0
C1939 C 0.23646 0.80133 0.53036 0.0
C1940 C 0.21514 0.81175 0.499 0.0
C1941 C 0.25393 0.80375 0.49303 0.0
N1942 N 0.32225 0.79195 0.50006 0.0
N1943 N 0.17255 0.829 0.52397 0.0
C1944 C 0.28409 0.79481 0.50569 0.0
C1945 C 0.20729 0.81383 0.51783 0.0
N1946 N 0.30083 0.77429 0.5361 0.0
N1947 N 0.18559 0.81631 0.48666 0.0
H1948 H 0.16575 0.83123 0.53763 0.0
H1949 H 0.15183 0.84249 0.51565 0.0
H1950 H 0.19036 0.81531 0.47278 0.0
H1951 H 0.15598 0.81789 0.4901 0.0
H1952 H 0.32733 0.76158 0.53216 0.0
H1953 H 0.29491 0.77077 0.5498 0.0
H1954 H 0.34605 0.78989 0.50886 0.0
H1955 H 0.33059 0.79492 0.48661 0.0
C1956 C 0.46075 0.02937 0.75817 0.0
C1957 C 0.45186 -0.00115 0.74576 0.0
C1958 C 0.44165 0.95297 0.77096 0.0
C1959 C 0.45294 0.98282 0.78331 0.0
N1960 N 0.47888 0.04753 0.78873 0.0
N1961 N 0.43922 0.93049 0.7399 0.0
C1962 C 0.46406 0.02052 0.77692 0.0
C1963 C 0.4439 0.96028 0.75205 0.0
N1964 N 0.46494 0.06708 0.75207 0.0
N1965 N 0.42749 0.91805 0.77736 0.0
H1966 H 0.43993 0.93498 0.72599 0.0
H1967 H 0.43762 0.90095 0.74349 0.0
H1968 H 0.42569 0.91148 0.79107 0.0
H1969 H 0.41473 0.89669 0.76923 0.0
H1970 H 0.46679 0.09139 0.76052 0.0
H1971 H 0.46386 0.07458 0.73844 0.0
H1972 H 0.49163 0.07392 0.78475 0.0
H1973 H 0.48123 0.04228 0.80254 0.0
C1974 C 0.19761 0.1808 1.00269 0.0
C1975 C 0.22892 0.18514 0.99018 0.0
C1976 C 0.27609 0.19098 0.01517 0.0
C1977 C 0.24512 0.18439 0.02764 0.0
N1978 N 0.17743 0.16878 0.03364 0.0
N1979 N 0.29821 0.18999 0.98404 0.0
C1980 C 0.20611 0.17817 0.02149 0.0
C1981 C 0.26826 0.18902 0.9963 0.0
N1982 N 0.15965 0.17984 0.99657 0.0
N1983 N 0.31286 0.19994 0.02141 0.0
H1984 H 0.29347 0.19 0.97014 0.0
H1985 H 0.32782 0.18824 0.98748 0.0
H1986 H 0.32007 0.20041 0.03508 0.0
H1987 H 0.33573 0.20944 0.01322 0.0
H1988 H 0.13518 0.18136 1.00493 0.0
H1989 H 0.15231 0.17986 0.98292 0.0
H1990 H 0.14939 0.15949 0.03003 0.0
H1991 H 0.18237 0.16786 0.04751 0.0
C1992 C 0.95075 0.96783 0.74922 0.0
C1993 C 0.93752 0.9977 0.7372 0.0
C1994 C 0.92554 0.04186 0.76279 0.0
C1995 C 0.93619 0.01104 0.77484 0.0
N1996 N 0.95466 0.94363 0.78002 0.0
N1997 N 0.90895 0.06163 0.73221 0.0
C1998 C 0.94764 0.97371 0.76817 0.0
C1999 C 0.92402 0.03435 0.74391 0.0
N2000 N 0.96686 0.93406 0.74247 0.0
N2001 N 0.91767 0.07854 0.76943 0.0
H2002 H 0.90916 0.05789 0.71826 0.0
H2003 H 0.89426 0.08698 0.73625 0.0
H2004 H 0.91679 0.08481 0.78318 0.0
H2005 H 0.91428 0.10341 0.76139 0.0
H2006 H 0.98096 0.91295 0.75034 0.0
H2007 H 0.96881 0.92822 0.72872 0.0
H2008 H 0.95881 0.91453 0.77615 0.0
H2009 H 0.9536 0.94719 0.79397 0.0
C2010 C 0.77851 0.20055 0.52187 0.0
C2011 C 0.7402 0.19885 0.52933 0.0
C2012 C 0.7118 0.19257 0.49893 0.0
C2013 C 0.74996 0.19601 0.49144 0.0
N2014 N 0.81891 0.21008 0.49527 0.0
N2015 N 0.66988 0.2001 0.52516 0.0
C2016 C 0.78312 0.20206 0.50278 0.0
C2017 C 0.70667 0.19693 0.51789 0.0
N2018 N 0.81052 0.19943 0.53303 0.0
N2019 N 0.68068 0.18377 0.48799 0.0
H2020 H 0.66491 0.20284 0.53898 0.0
H2021 H 0.6444 0.20316 0.51749 0.0
H2022 H 0.68323 0.18123 0.47403 0.0
H2023 H 0.65294 0.17632 0.49277 0.0
H2024 H 0.83925 0.19598 0.52849 0.0
H2025 H 0.8082 0.1992 0.54705 0.0
H2026 H 0.84336 0.21883 0.50268 0.0
H2027 H 0.8235 0.2111 0.48138 0.0
C2028 C 0.53985 0.0294 0.25405 0.0
C2029 C 0.55071 -0.00073 0.24177 0.0
C2030 C 0.56056 0.95336 0.26702 0.0
C2031 C 0.55266 0.98435 0.27936 0.0
N2032 N 0.53819 0.0525 0.28504 0.0
N2033 N 0.57468 0.93377 0.23621 0.0
C2034 C 0.54314 0.02256 0.27297 0.0
C2035 C 0.56179 0.96149 0.24817 0.0
N2036 N 0.52578 0.06438 0.24755 0.0
N2037 N 0.56637 0.916 0.27337 0.0
H2038 H 0.57446 0.93817 0.22229 0.0
H2039 H 0.58768 0.9073 0.24 0.0
H2040 H 0.56755 0.90913 0.28707 0.0
H2041 H 0.56766 0.89127 0.26516 0.0
H2042 H 0.51349 0.08618 0.2556 0.0
H2043 H 0.52373 0.07069 0.23382 0.0
H2044 H 0.53558 0.08193 0.28139 0.0
H2045 H 0.53918 0.04826 0.29896 0.0
C2046 C 0.71445 0.80805 0.02592 0.0
C2047 C 0.75323 0.80185 0.03244 0.0
C2048 C 0.7767 0.7941 1.00129 0.0
C2049 C 0.73857 0.80346 0.99473 0.0
N2050 N 0.67296 0.82712 1.00074 0.0
N2051 N 0.82272 0.79714 0.02624 0.0
C2052 C 0.70792 0.81265 1.00705 0.0
C2053 C 0.7848 0.79719 0.02008 0.0
N2054 N 0.68363 0.8083 0.03771 0.0
N2055 N 0.80488 0.78092 0.98965 0.0
H2056 H 0.82999 0.79995 0.03984 0.0
H2057 H 0.84705 0.79804 0.01776 0.0
H2058 H 0.80008 0.77813 0.97582 0.0
H2059 H 0.83181 0.76951 0.99387 0.0
H2060 H 0.65433 0.80834 0.03363 0.0
H2061 H 0.68725 0.80506 0.0516 0.0
H2062 H 0.65103 0.83821 1.0091 0.0
H2063 H 0.66721 0.8315 0.98707 0.0
C2064 C 0.55454 0.5404 0.76458 0.0
C2065 C 0.56108 0.50984 0.77735 0.0
C2066 C 0.56711 0.46244 0.75253 0.0
C2067 C 0.55569 0.4921 0.74002 0.0
N2068 N 0.53227 0.55804 0.73459 0.0
N2069 N 0.56801 0.44066 0.78369 0.0
C2070 C 0.54774 0.53079 0.74617 0.0
C2071 C 0.56591 0.47052 0.77138 0.0
N2072 N 0.55609 0.57879 0.76996 0.0
N2073 N 0.58048 0.42698 0.74641 0.0
H2074 H 0.56732 0.44539 0.79757 0.0
H2075 H 0.56713 0.41106 0.78015 0.0
H2076 H 0.58251 0.42013 0.73275 0.0
H2077 H 0.59302 0.40574 0.75477 0.0
H2078 H 0.5556 0.60236 0.76098 0.0
H2079 H 0.56179 0.58712 0.78323 0.0
H2080 H 0.52189 0.58539 0.73875 0.0
H2081 H 0.52641 0.55206 0.72107 0.0
C2082 C 0.77565 0.31484 0.02219 0.0
C2083 C 0.73737 0.30835 0.02909 0.0
C2084 C 0.71087 0.30529 0.99824 0.0
C2085 C 0.74954 0.30911 0.99136 0.0
N2086 N 0.81951 0.31284 0.99645 0.0
N2087 N 0.66914 0.29263 0.02413 0.0
C2088 C 0.78218 0.31258 1.00326 0.0
C2089 C 0.7051 0.30227 0.01722 0.0
N2090 N 0.80555 0.32425 0.03374 0.0
N2091 N 0.67964 0.3053 0.98661 0.0
H2092 H 0.66359 0.29092 0.03794 0.0
H2093 H 0.64543 0.28359 0.0163 0.0
H2094 H 0.68291 0.30632 0.97264 0.0
H2095 H 0.65045 0.30701 0.99072 0.0
H2096 H 0.83309 0.3338 0.02953 0.0
H2097 H 0.80205 0.32519 0.0477 0.0
H2098 H 0.8447 0.31063 1.00437 0.0
H2099 H 0.82551 0.31261 0.98268 0.0
C2100 C 0.94779 0.46384 0.26944 0.0
C2101 C 0.94238 0.49422 0.28235 0.0
C2102 C 0.93261 0.54182 0.25779 0.0
C2103 C 0.94237 0.51235 0.24498 0.0
N2104 N 0.96543 0.44669 0.23879 0.0
N2105 N 0.93574 0.56328 0.28892 0.0
C2106 C 0.95165 0.47369 0.25086 0.0
C2107 C 0.93646 0.53357 0.27654 0.0
N2108 N 0.94777 0.4254 0.27485 0.0
N2109 N 0.91829 0.5773 0.25205 0.0
H2110 H 0.93855 0.55842 0.30274 0.0
H2111 H 0.93583 0.59293 0.2854 0.0
H2112 H 0.91445 0.58432 0.23847 0.0
H2113 H 0.90679 0.5984 0.26074 0.0
H2114 H 0.94736 0.40188 0.26589 0.0
H2115 H 0.94446 0.41687 0.28827 0.0
H2116 H 0.97678 0.41943 0.24258 0.0
H2117 H 0.96876 0.45278 0.2251 0.0
C2118 C 0.78569 0.68683 0.51474 0.0
C2119 C 0.75445 0.68312 0.52732 0.0
C2120 C 0.70642 0.68433 0.50248 0.0
C2121 C 0.73779 0.68572 0.48985 0.0
N2122 N 0.80717 0.68379 0.48354 0.0
N2123 N 0.68567 0.6737 0.53346 0.0
C2124 C 0.77742 0.68568 0.49588 0.0
C2125 C 0.71493 0.68063 0.52125 0.0
N2126 N 0.82321 0.69249 0.52087 0.0
N2127 N 0.66844 0.6872 0.49649 0.0
H2128 H 0.69076 0.67174 0.5473 0.0
H2129 H 0.65681 0.66722 0.5299 0.0
H2130 H 0.66093 0.68826 0.48287 0.0
H2131 H 0.64437 0.69098 0.50495 0.0
H2132 H 0.84671 0.6999 0.51259 0.0
H2133 H 0.8306 0.69235 0.53452 0.0
H2134 H 0.8365 0.67905 0.48692 0.0
H2135 H 0.80229 0.68444 0.46966 0.0
C2136 C 0.44687 0.53413 0.26404 0.0
C2137 C 0.43907 0.5025 0.27605 0.0
C2138 C 0.43306 0.45737 0.25038 0.0
C2139 C 0.43801 0.48954 0.23835 0.0
N2140 N 0.44491 0.5591 0.23334 0.0
N2141 N 0.42 0.43524 0.28095 0.0
C2142 C 0.4436 0.52812 0.24509 0.0
C2143 C 0.43092 0.4644 0.26929 0.0
N2144 N 0.45843 0.56967 0.27079 0.0
N2145 N 0.43125 0.41994 0.24372 0.0
H2146 H 0.41899 0.43914 0.29488 0.0
H2147 H 0.40932 0.40806 0.27683 0.0
H2148 H 0.43145 0.41366 0.22996 0.0
H2149 H 0.43224 0.39486 0.25176 0.0
H2150 H 0.46868 0.59268 0.26285 0.0
H2151 H 0.46063 0.57538 0.28457 0.0
H2152 H 0.4445 0.58839 0.23735 0.0
H2153 H 0.44356 0.55563 0.21939 0.0
C2154 C 0.22308 0.68627 0.99869 0.0
C2155 C 0.26239 0.68834 0.9924 0.0
C2156 C 0.28645 0.68935 0.02372 0.0
C2157 C 0.24707 0.68969 0.02998 0.0
N2158 N 0.17779 0.69576 0.02356 0.0
N2159 N 0.33113 0.69907 0.99864 0.0
C2160 C 0.21534 0.69031 0.01748 0.0
C2161 C 0.29399 0.692 1.00485 0.0
N2162 N 0.19326 0.679 0.98679 0.0
N2163 N 0.31663 0.68511 0.03576 0.0
H2164 H 0.33781 0.70119 0.98495 0.0
H2165 H 0.35468 0.70618 1.00699 0.0
H2166 H 0.31226 0.68358 0.04966 0.0
H2167 H 0.34567 0.68012 0.03198 0.0
H2168 H 0.16461 0.67269 0.99072 0.0
H2169 H 0.19775 0.6762 0.97295 0.0
H2170 H 0.15386 0.7007 0.01508 0.0
H2171 H 0.17092 0.69874 0.03719 0.0
C2172 C 0.05527 0.53149 0.75477 0.0
C2173 C 0.05538 0.50028 0.74204 0.0
C2174 C 0.05972 0.45255 0.76684 0.0
C2175 C 0.0547 0.48347 0.77951 0.0
N2176 N 0.04169 0.55194 0.78542 0.0
N2177 N 0.05195 0.43081 0.73593 0.0
C2178 C 0.05089 0.52287 0.77344 0.0
C2179 C 0.05609 0.46068 0.74807 0.0
N2180 N 0.0607 0.56932 0.74907 0.0
N2181 N 0.06928 0.41561 0.77271 0.0
H2182 H 0.04918 0.43557 0.72209 0.0
H2183 H 0.04787 0.40159 0.73968 0.0
H2184 H 0.07289 0.40857 0.7863 0.0
H2185 H 0.07728 0.39286 0.76408 0.0
H2186 H 0.06499 0.59278 0.75785 0.0
H2187 H 0.06472 0.57683 0.73557 0.0
H2188 H 0.03425 0.58043 0.78152 0.0
H2189 H 0.03809 0.54681 0.79918 0.0
C2190 C 0.2651 0.28859 0.50118 0.0
C2191 C 0.22847 0.30283 0.49469 0.0
C2192 C 0.20564 0.31195 0.52585 0.0
C2193 C 0.24333 0.30075 0.53228 0.0
N2194 N 0.31108 0.28442 0.52616 0.0
N2195 N 0.16606 0.3341 0.50054 0.0
C2196 C 0.27368 0.29067 0.51997 0.0
C2197 C 0.1993 0.31617 0.50696 0.0
N2198 N 0.29125 0.272 0.48946 0.0
N2199 N 0.17563 0.31759 0.5378 0.0
H2200 H 0.16038 0.33789 0.48682 0.0
H2201 H 0.14567 0.34823 0.50874 0.0
H2202 H 0.17933 0.31502 0.55172 0.0
H2203 H 0.14645 0.3216 0.53394 0.0
H2204 H 0.3165 0.25708 0.49356 0.0
H2205 H 0.28618 0.2704 0.47561 0.0
H2206 H 0.33534 0.2814 0.51774 0.0
H2207 H 0.31856 0.28534 0.5398 0.0
C2208 C 0.99819 0.23049 0.32004 0.0
C2209 C 0.99619 0.20425 0.33483 0.0
C2210 C 0.96107 0.2549 0.35188 0.0
C2211 C 0.9723 0.28302 0.33874 0.0
N2212 N 0.00485 0.298 0.31081 0.0
N2213 N 0.95444 0.1871 0.35999 0.0
C2214 C 0.9921 0.27089 0.32301 0.0
C2215 C 0.97186 0.21508 0.34958 0.0
N2216 N -0.00058 0.21639 0.30287 0.0
N2217 N 0.93835 0.26475 0.36626 0.0
H2218 H 0.95299 0.15789 0.35584 0.0
H2219 H 0.93712 0.19393 0.37116 0.0
H2220 H 0.92798 0.29307 0.36879 0.0
H2221 H 0.92798 0.29307 0.36879 0.0
H2222 H 0.99798 0.23456 0.29155 0.0
H2223 H 0.99525 0.18657 0.30014 0.0
H2224 H 0.02193 0.29036 0.29969 0.0
H2225 H 0.0015 0.32821 0.31283 0.0
C2226 C 0.98395 0.73269 0.56894 0.0
C2227 C 0.95342 0.74171 0.5812 0.0
C2228 C 0.9979 0.7844 0.59796 0.0
C2229 C 0.02959 0.76958 0.58775 0.0
N2230 N 0.0541 0.7286 0.56393 0.0
N2231 N 0.9283 0.7974 0.59753 0.0
C2232 C 0.02295 0.74342 0.5733 0.0
C2233 C 0.95913 0.77358 0.5932 0.0
N2234 N 0.97488 0.71912 0.55217 0.0
N2235 N 0.00489 0.80905 0.61207 0.0
H2236 H 0.90135 0.79502 0.59088 0.0
H2237 H 0.93115 0.82284 0.60522 0.0
H2238 H 0.03318 0.81797 0.61564 0.0
H2239 H 0.98296 0.81789 0.621 0.0
H2240 H 0.9957 0.71491 0.54207 0.0
H2241 H 0.94582 0.71782 0.54766 0.0
H2242 H 0.05122 0.70656 0.55428 0.0
H2243 H 0.08311 0.73598 0.567 0.0
C2244 C 0.54782 0.78901 0.85132 0.0
C2245 C 0.52205 0.80464 0.83813 0.0
C2246 C 0.53129 0.74704 0.81928 0.0
C2247 C 0.54931 0.72784 0.83408 0.0
N2248 N 0.58092 0.73126 0.86316 0.0
N2249 N 0.51244 0.80963 0.80623 0.0
C2250 C 0.55957 0.74909 0.84984 0.0
C2251 C 0.52155 0.78718 0.82091 0.0
N2252 N 0.56573 0.81344 0.86329 0.0
N2253 N 0.5207 0.72632 0.8043 0.0
H2254 H 0.50728 0.83981 0.80744 0.0
H2255 H 0.51432 0.79942 0.79303 0.0
H2256 H 0.52563 0.69621 0.80301 0.0
H2257 H 0.50397 0.73835 0.79388 0.0
H2258 H 0.58574 0.80417 0.87305 0.0
H2259 H 0.5666 0.84359 0.86102 0.0
H2260 H 0.58504 0.74341 0.8759 0.0
H2261 H 0.59367 0.70359 0.86159 0.0
C2262 C 0.46762 0.25589 0.10084 0.0
C2263 C 0.45683 0.2353 0.08504 0.0
C2264 C 0.52442 0.2411 0.07426 0.0
C2265 C 0.53576 0.25656 0.09115 0.0
N2266 N 0.51909 0.26791 0.1222 0.0
N2267 N 0.47088 0.23464 0.05325 0.0
C2268 C 0.50772 0.26037 0.105 0.0
C2269 C 0.4841 0.23449 0.07061 0.0
N2270 N 0.44038 0.27734 0.11003 0.0
N2271 N 0.55254 0.23282 0.06174 0.0
H2272 H 0.44129 0.23944 0.0502 0.0
H2273 H 0.48938 0.23695 0.04213 0.0
H2274 H 0.58242 0.23677 0.06441 0.0
H2275 H 0.54644 0.21839 0.04967 0.0
H2276 H 0.44783 0.29586 0.12069 0.0
H2277 H 0.41217 0.28189 0.1049 0.0
H2278 H 0.49924 0.26858 0.1329 0.0
H2279 H 0.54846 0.26855 0.12594 0.0
C2280 C 0.97554 0.7411 0.20328 0.0
C2281 C 0.98731 0.70751 0.19343 0.0
C2282 C 0.04104 0.74444 0.18003 0.0
C2283 C 0.02419 0.77925 0.18684 0.0
N2284 N 0.97607 0.81208 0.2052 0.0
N2285 N 0.04603 0.67427 0.18389 0.0
C2286 C 0.99153 0.77803 0.19856 0.0
C2287 C 0.02459 0.70804 0.18503 0.0
N2288 N 0.95489 0.73677 0.21887 0.0
N2289 N 0.07214 0.7464 0.16849 0.0
H2290 H 0.03645 0.64836 0.19001 0.0
H2291 H 0.07486 0.67339 0.17919 0.0
H2292 H 0.08432 0.77314 0.16449 0.0
H2293 H 0.08338 0.72193 0.1618 0.0
H2294 H 0.94756 0.76014 0.22728 0.0
H2295 H 0.95157 0.7092 0.22486 0.0
H2296 H 0.9498 0.81306 0.21239 0.0
H2297 H 0.98811 0.83956 0.20235 0.0
C2298 C 0.52439 0.74605 0.45688 0.0
C2299 C 0.55076 0.75338 0.44263 0.0
C2300 C 0.50396 0.80036 0.42974 0.0
C2301 C 0.47465 0.78454 0.44118 0.0
N2302 N 0.45637 0.74031 0.46522 0.0
N2303 N 0.57393 0.80726 0.42463 0.0
C2304 C 0.48476 0.75715 0.45481 0.0
C2305 C 0.5432 0.78629 0.43139 0.0
N2306 N 0.53812 0.73273 0.47304 0.0
N2307 N 0.49424 0.82868 0.41745 0.0
H2308 H 0.6027 0.80174 0.42887 0.0
H2309 H 0.57073 0.83305 0.4172 0.0
H2310 H 0.46627 0.84124 0.41681 0.0
H2311 H 0.51332 0.8383 0.40742 0.0
H2312 H 0.52029 0.72976 0.48437 0.0
H2313 H 0.56824 0.7303 0.47558 0.0
H2314 H 0.46246 0.71769 0.47431 0.0
H2315 H 0.42649 0.74612 0.46345 0.0
C2316 C 0.49493 0.23611 0.699 0.0
C2317 C 0.49736 0.2081 0.68491 0.0
C2318 C 0.5327 0.25656 0.66655 0.0
C2319 C 0.52296 0.28584 0.6793 0.0
N2320 N 0.49079 0.30479 0.70674 0.0
N2321 N 0.5432 0.18721 0.66214 0.0
C2322 C 0.50255 0.27595 0.69518 0.0
C2323 C 0.52274 0.2168 0.67022 0.0
N2324 N 0.49255 0.22398 0.71648 0.0
N2325 N 0.55234 0.26662 0.65121 0.0
H2326 H 0.54425 0.15924 0.66782 0.0
H2327 H 0.56431 0.19159 0.6522 0.0
H2328 H 0.56181 0.29519 0.64862 0.0
H2329 H 0.55671 0.24721 0.64056 0.0
H2330 H 0.49365 0.24329 0.72737 0.0
H2331 H 0.49651 0.19454 0.72005 0.0
H2332 H 0.47305 0.29914 0.71789 0.0
H2333 H 0.49563 0.33455 0.70411 0.0
C2334 C 0.03067 0.28093 0.92937 0.0
C2335 C 0.03597 0.24711 0.94035 0.0
C2336 C 0.9672 0.24913 0.94893 0.0
C2337 C 0.9603 0.27854 0.9358 0.0
N2338 N 0.98493 0.32386 0.91363 0.0
N2339 N 0.01569 0.22371 0.96946 0.0
C2340 C 0.99195 0.29499 0.92603 0.0
C2341 C 0.00613 0.23787 0.95283 0.0
N2342 N 0.0626 0.30261 0.92452 0.0
N2343 N 0.93649 0.23129 0.95742 0.0
H2344 H 0.04486 0.22275 0.97386 0.0
H2345 H 0.99496 0.21923 0.97958 0.0
H2346 H 0.90723 0.23769 0.95435 0.0
H2347 H 0.94035 0.20745 0.96611 0.0
H2348 H 0.0609 0.32918 0.91757 0.0
H2349 H 0.09037 0.29656 0.92986 0.0
H2350 H 0.00625 0.33428 0.90479 0.0
H2351 H 0.95696 0.33553 0.91142 0.0
C2352 C 0.96603 0.75182 0.68898 0.0
C2353 C 0.98641 0.78375 0.68119 0.0
C2354 C 0.0417 0.74059 0.67399 0.0
C2355 C 0.02321 0.71037 0.68385 0.0
N2356 N 0.97073 0.68738 0.70268 0.0
N2357 N 0.04543 0.81018 0.66784 0.0
C2358 C 0.98618 0.71605 0.69195 0.0
C2359 C 0.02466 0.77859 0.67391 0.0
N2360 N 0.92699 0.75553 0.6929 0.0
N2361 N 0.07545 0.73267 0.66472 0.0
H2362 H 0.03402 0.83846 0.66769 0.0
H2363 H 0.07492 0.80891 0.66415 0.0
H2364 H 0.08933 0.7053 0.66522 0.0
H2365 H 0.08817 0.75219 0.65562 0.0
H2366 H 0.90957 0.73218 0.69716 0.0
H2367 H 0.91115 0.78112 0.69007 0.0
H2368 H 0.94555 0.69133 0.71044 0.0
H2369 H 0.98469 0.66038 0.70473 0.0
C2370 C 0.995 0.29018 0.42086 0.0
C2371 C 0.02292 0.28067 0.43435 0.0
C2372 C 0.97233 0.24841 0.45197 0.0
C2373 C 0.94689 0.24993 0.43688 0.0
N2374 N 0.92593 0.29625 0.41427 0.0
N2375 N 0.03962 0.24778 0.46209 0.0
C2376 C 0.95571 0.27726 0.42299 0.0
C2377 C 0.01197 0.25892 0.44974 0.0
N2378 N 0.00577 0.31226 0.40631 0.0
N2379 N 0.95747 0.24282 0.46882 0.0
H2380 H 0.06943 0.2541 0.46052 0.0
H2381 H 0.03327 0.22906 0.47283 0.0
H2382 H 0.92723 0.24282 0.47119 0.0
H2383 H 0.9746 0.24453 0.48046 0.0
H2384 H 0.98777 0.31623 0.39507 0.0
H2385 H 0.03358 0.32472 0.40503 0.0
H2386 H 0.93008 0.31837 0.40475 0.0
H2387 H 0.89729 0.29476 0.4191 0.0
C2388 C 0.49116 0.26886 0.19866 0.0
C2389 C 0.46856 0.28044 0.18358 0.0
C2390 C 0.47056 0.21292 0.17219 0.0
C2391 C 0.49919 0.20358 0.18552 0.0
N2392 N 0.50946 0.21387 0.21729 0.0
N2393 N 0.43421 0.26368 0.15628 0.0
C2394 C 0.50203 0.22899 0.20059 0.0
C2395 C 0.45764 0.25254 0.17034 0.0
N2396 N 0.50298 0.29613 0.21098 0.0
N2397 N 0.45061 0.18345 0.1638 0.0
H2398 H 0.42214 0.29178 0.15519 0.0
H2399 H 0.42853 0.24569 0.14525 0.0
H2400 H 0.45179 0.15479 0.1687 0.0
H2401 H 0.4279 0.18796 0.1546 0.0
H2402 H 0.52256 0.28954 0.22139 0.0
H2403 H 0.49606 0.32592 0.20975 0.0
H2404 H 0.50873 0.23075 0.229 0.0
H2405 H 0.51014 0.1836 0.2196 0.0
C2406 C 0.50848 0.78787 0.91924 0.0
C2407 C 0.53765 0.77708 0.9319 0.0
C2408 C 0.48939 0.74104 0.94937 0.0
C2409 C 0.46237 0.74488 0.93494 0.0
N2410 N 0.43888 0.79502 0.91464 0.0
N2411 N 0.55759 0.74098 0.95828 0.0
C2412 C 0.46954 0.77451 0.92186 0.0
C2413 C 0.52857 0.75294 0.94678 0.0
N2414 N 0.51778 0.81162 0.90504 0.0
N2415 N 0.47635 0.73161 0.96619 0.0
H2416 H 0.58699 0.74871 0.95645 0.0
H2417 H 0.55285 0.7205 0.96851 0.0
H2418 H 0.44639 0.73003 0.96912 0.0
H2419 H 0.49448 0.73147 0.97753 0.0
H2420 H 0.49857 0.81695 0.89434 0.0
H2421 H 0.54563 0.82382 0.90339 0.0
H2422 H 0.44212 0.8186 0.90579 0.0
H2423 H 0.41096 0.79312 0.92025 0.0
C2424 C 0.94706 0.24658 0.84178 0.0
C2425 C 0.95939 0.21901 0.82868 0.0
C2426 C 0.99426 0.27054 0.81262 0.0
C2427 C 0.99032 0.29484 0.82794 0.0
N2428 N 0.93986 0.31562 0.84843 0.0
N2429 N 0.99423 0.20405 0.8013 0.0
C2430 C 0.96006 0.28592 0.84033 0.0
C2431 C 0.98241 0.23091 0.81382 0.0
N2432 N 0.92305 0.23519 0.85553 0.0
N2433 N 0.00481 0.28657 0.7965 0.0
H2434 H 0.98654 0.17443 0.80203 0.0
H2435 H 0.01423 0.2107 0.79113 0.0
H2436 H 0.00761 0.31694 0.79491 0.0
H2437 H 0.00519 0.27075 0.78449 0.0
H2438 H 0.91676 0.2531 0.86653 0.0
H2439 H 0.91109 0.20706 0.85634 0.0
H2440 H 0.91551 0.31125 0.85668 0.0
H2441 H 0.94386 0.34471 0.84441 0.0
C2442 C 0.5186 0.24782 0.57343 0.0
C2443 C 0.5313 0.22624 0.58862 0.0
C2444 C 0.46357 0.22309 0.59945 0.0
C2445 C 0.45219 0.24901 0.58528 0.0
N2446 N 0.46395 0.25575 0.55342 0.0
N2447 N 0.51651 0.1922 0.61627 0.0
C2448 C 0.47815 0.2533 0.57057 0.0
C2449 C 0.504 0.21372 0.60181 0.0
N2450 N 0.54529 0.26317 0.56168 0.0
N2451 N 0.43557 0.20223 0.60841 0.0
H2452 H 0.54526 0.18202 0.61763 0.0
H2453 H 0.49891 0.18631 0.62742 0.0
H2454 H 0.40667 0.2016 0.60384 0.0
H2455 H 0.44155 0.18095 0.61814 0.0
H2456 H 0.53703 0.28144 0.55101 0.0
H2457 H 0.57556 0.26094 0.56379 0.0
H2458 H 0.48216 0.25613 0.54212 0.0
H2459 H 0.43439 0.25043 0.55054 0.0
C2460 C 0.55333 0.74668 0.34548 0.0
C2461 C 0.54261 0.77385 0.33181 0.0
C2462 C 0.51267 0.72119 0.31456 0.0
C2463 C 0.51414 0.697 0.33005 0.0
N2464 N 0.56049 0.6779 0.35293 0.0
N2465 N 0.51142 0.78767 0.3033 0.0
C2466 C 0.54131 0.70695 0.34379 0.0
C2467 C 0.52253 0.76121 0.3162 0.0
N2468 N 0.5754 0.75871 0.35983 0.0
N2469 N 0.50608 0.70493 0.29805 0.0
H2470 H 0.51714 0.81768 0.30437 0.0
H2471 H 0.49349 0.78015 0.29243 0.0
H2472 H 0.50436 0.67451 0.29637 0.0
H2473 H 0.50782 0.72084 0.28606 0.0
H2474 H 0.58025 0.74134 0.3712 0.0
H2475 H 0.58748 0.78678 0.36067 0.0
H2476 H 0.58243 0.68294 0.36244 0.0
H2477 H 0.55919 0.64888 0.34852 0.0
C2478 C 0.97905 0.75729 0.07137 0.0
C2479 C 0.96491 0.77534 0.0872 0.0
C2480 C 0.03177 0.77621 0.09953 0.0
C2481 C 0.04378 0.75194 0.085 0.0
N2482 N 0.03619 0.7498 0.05275 0.0
N2483 N 0.97773 0.80634 0.11582 0.0
C2484 C 0.01969 0.75116 0.06947 0.0
C2485 C 0.99125 0.78605 0.10122 0.0
N2486 N 0.95359 0.74508 0.05831 0.0
N2487 N 0.05945 0.79515 0.10958 0.0
H2488 H 0.94919 0.81739 0.11663 0.0
H2489 H 0.99437 0.81087 0.12743 0.0
H2490 H 0.08874 0.79605 0.10551 0.0
H2491 H 0.05301 0.81495 0.11984 0.0
H2492 H 0.96276 0.72892 0.04714 0.0
H2493 H 0.92316 0.7477 0.05959 0.0
H2494 H 0.01977 0.75227 0.04092 0.0
H2495 H 0.06654 0.75213 0.05097 0.0
loop_
_geom_bond_atom_site_label_1
_geom_bond_atom_site_label_2
_geom_bond_distance
_geom_bond_site_symmetry_2
_ccdc_geom_bond_type
Co0 N4 2.148 . S
Co0 N10 2.128 . S
Co0 N20 2.194 . S
Co0 O25 2.351 . S
Co0 O26 2.155 . S
Co0 O27 2.096 . S
C1 N4 1.301 . S
C1 N5 1.328 1_545 S
C1 H6 0.930 . S
C2 C3 1.321 1_545 S
C2 N4 1.326 . S
C2 H7 0.933 . S
C3 C2 1.321 1_565 S
C3 N5 1.350 . S
C3 H29 0.931 . S
N4 Co0 2.148 . S
N4 C1 1.301 . S
N4 C2 1.326 . S
N5 C1 1.328 1_565 S
N5 C3 1.350 . S
H6 C1 0.930 . S
H7 C2 0.933 . S
C8 O9 1.224 . S
C8 O27 1.247 1_655 S
O9 C8 1.224 . S
N10 Co0 2.128 . S
N10 C11 1.355 . S
N10 C13 1.313 1_455 S
C11 N10 1.355 . S
C11 C12 1.363 . S
C11 H23 0.929 . S
C12 C11 1.363 . S
C12 N14 1.375 1_455 S
C12 H30 0.931 . S
C13 N10 1.313 1_655 S
C13 N14 1.347 . S
C13 H24 0.927 . S
N14 C12 1.375 1_655 S
N14 C13 1.347 . S
C15 C18 1.365 . S
C15 N20 1.328 . S
C15 H21 0.929 . S
C16 C17 1.362 . S
C16 C19 1.378 . S
C16 H31 0.936 . S
C17 C16 1.362 . S
C17 C18 1.366 . S
C18 C15 1.365 . S
C18 C17 1.366 . S
C18 H32 0.930 . S
C19 C16 1.378 . S
C19 N20 1.315 . S
C19 H22 0.939 . S
N20 Co0 2.194 . S
N20 C15 1.328 . S
N20 C19 1.315 . S
H21 C15 0.929 . S
H22 C19 0.939 . S
H23 C11 0.929 . S
H24 C13 0.927 . S
O25 Co0 2.351 . S
O25 C28 1.244 . S
O26 Co0 2.155 . S
O26 C28 1.240 . S
O27 Co0 2.096 . S
O27 C8 1.247 1_455 S
C28 O25 1.244 . S
C28 O26 1.240 . S
H29 C3 0.931 . S
H30 C12 0.931 . S
H31 C16 0.936 . S
H32 C18 0.930 . S
Co33 N37 2.148 . S
Co33 N43 2.128 . S
Co33 N53 2.194 . S
Co33 O58 2.351 . S
Co33 O59 2.155 . S
Co33 O60 2.096 . S
C34 N37 1.301 . S
C34 N38 1.328 . S
C34 H39 0.930 . S
C35 C36 1.333 . S
C35 N37 1.317 . S
C35 H40 0.930 . S
C36 C35 1.333 . S
C36 N38 1.350 . S
C36 H62 0.931 . S
N37 Co33 2.148 . S
N37 C34 1.301 . S
N37 C35 1.317 . S
N38 C34 1.328 . S
N38 C36 1.350 . S
H39 C34 0.930 . S
H40 C35 0.930 . S
C41 O42 1.224 . S
C41 O60 1.247 . S
O42 C41 1.224 . S
N43 Co33 2.128 . S
N43 C44 1.355 . S
N43 C46 1.311 . S
C44 N43 1.355 . S
C44 C45 1.363 . S
C44 H56 0.929 . S
C45 C44 1.363 . S
C45 N47 1.375 . S
C45 H63 0.931 . S
C46 N43 1.311 . S
C46 N47 1.347 . S
C46 H57 0.929 . S
N47 C45 1.375 . S
N47 C46 1.347 . S
C48 C51 1.365 . S
C48 N53 1.328 . S
C48 H54 0.929 . S
C49 C50 1.362 . S
C49 C52 1.378 . S
C49 H64 0.929 . S
C50 C49 1.362 . S
C50 C51 1.366 . S
C51 C48 1.365 . S
C51 C50 1.366 . S
C51 H65 0.930 . S
C52 C49 1.378 . S
C52 N53 1.315 . S
C52 H55 0.930 . S
N53 Co33 2.194 . S
N53 C48 1.328 . S
N53 C52 1.315 . S
H54 C48 0.929 . S
H55 C52 0.930 . S
H56 C44 0.929 . S
H57 C46 0.929 . S
O58 Co33 2.351 . S
O58 C61 1.244 . S
O59 Co33 2.155 . S
O59 C61 1.240 . S
O60 Co33 2.096 . S
O60 C41 1.247 . S
C61 O58 1.244 . S
C61 O59 1.240 . S
H62 C36 0.931 . S
H63 C45 0.931 . S
H64 C49 0.929 . S
H65 C51 0.930 . S
Co66 N70 2.148 . S
Co66 N76 2.128 . S
Co66 N86 2.194 . S
Co66 O91 2.351 . S
Co66 O92 2.155 . S
Co66 O93 2.096 . S
C67 N70 1.301 . S
C67 N71 1.328 1_565 S
C67 H72 0.930 . S
C68 C69 1.321 1_565 S
C68 N70 1.326 . S
C68 H73 0.933 . S
C69 C68 1.321 1_545 S
C69 N71 1.350 . S
C69 H95 0.931 . S
N70 Co66 2.148 . S
N70 C67 1.301 . S
N70 C68 1.326 . S
N71 C67 1.328 1_545 S
N71 C69 1.350 . S
H72 C67 0.930 . S
H73 C68 0.933 . S
C74 O75 1.224 . S
C74 O93 1.247 . S
O75 C74 1.224 . S
N76 Co66 2.128 . S
N76 C77 1.355 . S
N76 C79 1.311 . S
C77 N76 1.355 . S
C77 C78 1.363 . S
C77 H89 0.929 . S
C78 C77 1.363 . S
C78 N80 1.375 . S
C78 H96 0.931 . S
C79 N76 1.311 . S
C79 N80 1.347 . S
C79 H90 0.929 . S
N80 C78 1.375 . S
N80 C79 1.347 . S
C81 C84 1.365 . S
C81 N86 1.328 . S
C81 H87 0.929 . S
C82 C83 1.362 . S
C82 C85 1.378 . S
C82 H97 0.929 . S
C83 C82 1.362 . S
C83 C84 1.366 . S
C84 C81 1.365 . S
C84 C83 1.366 . S
C84 H98 0.930 . S
C85 C82 1.378 . S
C85 N86 1.315 . S
C85 H88 0.930 . S
N86 Co66 2.194 . S
N86 C81 1.328 . S
N86 C85 1.315 . S
H87 C81 0.929 . S
H88 C85 0.930 . S
H89 C77 0.929 . S
H90 C79 0.929 . S
O91 Co66 2.351 . S
O91 C94 1.244 . S
O92 Co66 2.155 . S
O92 C94 1.240 . S
O93 Co66 2.096 . S
O93 C74 1.247 . S
C94 O91 1.244 . S
C94 O92 1.240 . S
H95 C69 0.931 . S
H96 C78 0.931 . S
H97 C82 0.929 . S
H98 C84 0.930 . S
Co99 N103 2.148 . S
Co99 N109 2.128 . S
Co99 N119 2.194 . S
Co99 O124 2.351 . S
Co99 O125 2.155 . S
Co99 O126 2.096 . S
C100 N103 1.301 . S
C100 N104 1.328 . S
C100 H105 0.930 . S
C101 C102 1.333 . S
C101 N103 1.317 . S
C101 H106 0.930 . S
C102 C101 1.333 . S
C102 N104 1.350 . S
C102 H128 0.931 . S
N103 Co99 2.148 . S
N103 C100 1.301 . S
N103 C101 1.317 . S
N104 C100 1.328 . S
N104 C102 1.350 . S
H105 C100 0.930 . S
H106 C101 0.930 . S
C107 O108 1.224 . S
C107 O126 1.247 . S
O108 C107 1.224 . S
N109 Co99 2.128 . S
N109 C110 1.355 . S
N109 C112 1.311 . S
C110 N109 1.355 . S
C110 C111 1.363 . S
C110 H122 0.929 . S
C111 C110 1.363 . S
C111 N113 1.375 . S
C111 H129 0.931 . S
C112 N109 1.311 . S
C112 N113 1.347 . S
C112 H123 0.929 . S
N113 C111 1.375 . S
N113 C112 1.347 . S
C114 C117 1.365 . S
C114 N119 1.328 . S
C114 H120 0.929 . S
C115 C116 1.362 . S
C115 C118 1.378 . S
C115 H130 0.929 . S
C116 C115 1.362 . S
C116 C117 1.366 . S
C117 C114 1.365 . S
C117 C116 1.366 . S
C117 H131 0.930 . S
C118 C115 1.378 . S
C118 N119 1.315 . S
C118 H121 0.930 . S
N119 Co99 2.194 . S
N119 C114 1.328 . S
N119 C118 1.315 . S
H120 C114 0.929 . S
H121 C118 0.930 . S
H122 C110 0.929 . S
H123 C112 0.929 . S
O124 Co99 2.351 . S
O124 C127 1.244 . S
O125 Co99 2.155 . S
O125 C127 1.240 . S
O126 Co99 2.096 . S
O126 C107 1.247 . S
C127 O124 1.244 . S
C127 O125 1.240 . S
H128 C102 0.931 . S
H129 C111 0.931 . S
H130 C115 0.929 . S
H131 C117 0.930 . S
Co132 N136 2.148 . S
Co132 N142 2.128 . S
Co132 N152 2.194 . S
Co132 O157 2.351 . S
Co132 O158 2.155 . S
Co132 O159 2.096 . S
C133 N136 1.301 . S
C133 N137 1.328 1_565 S
C133 H138 0.930 . S
C134 C135 1.321 1_565 S
C134 N136 1.326 . S
C134 H139 0.933 . S
C135 C134 1.321 1_545 S
C135 N137 1.350 . S
C135 H161 0.931 . S
N136 Co132 2.148 . S
N136 C133 1.301 . S
N136 C134 1.326 . S
N137 C133 1.328 1_545 S
N137 C135 1.350 . S
H138 C133 0.930 . S
H139 C134 0.933 . S
C140 O141 1.224 . S
C140 O159 1.247 1_655 S
O141 C140 1.224 . S
N142 Co132 2.128 . S
N142 C143 1.355 . S
N142 C145 1.313 1_455 S
C143 N142 1.355 . S
C143 C144 1.363 . S
C143 H155 0.929 . S
C144 C143 1.363 . S
C144 N146 1.375 1_455 S
C144 H162 0.931 . S
C145 N142 1.313 1_655 S
C145 N146 1.347 . S
C145 H156 0.927 . S
N146 C144 1.375 1_655 S
N146 C145 1.347 . S
C147 C150 1.365 . S
C147 N152 1.328 . S
C147 H153 0.929 . S
C148 C149 1.362 . S
C148 C151 1.378 . S
C148 H163 0.936 . S
C149 C148 1.362 . S
C149 C150 1.366 . S
C150 C147 1.365 . S
C150 C149 1.366 . S
C150 H164 0.930 . S
C151 C148 1.378 . S
C151 N152 1.315 . S
C151 H154 0.939 . S
N152 Co132 2.194 . S
N152 C147 1.328 . S
N152 C151 1.315 . S
H153 C147 0.929 . S
H154 C151 0.939 . S
H155 C143 0.929 . S
H156 C145 0.927 . S
O157 Co132 2.351 . S
O157 C160 1.244 . S
O158 Co132 2.155 . S
O158 C160 1.240 . S
O159 Co132 2.096 . S
O159 C140 1.247 1_455 S
C160 O157 1.244 . S
C160 O158 1.240 . S
H161 C135 0.931 . S
H162 C144 0.931 . S
H163 C148 0.936 . S
H164 C150 0.930 . S
Co165 N169 2.148 . S
Co165 N175 2.128 . S
Co165 N185 2.194 . S
Co165 O190 2.351 . S
Co165 O191 2.155 . S
Co165 O192 2.096 . S
C166 N169 1.301 . S
C166 N170 1.328 . S
C166 H171 0.930 . S
C167 C168 1.333 . S
C167 N169 1.317 . S
C167 H172 0.930 . S
C168 C167 1.333 . S
C168 N170 1.350 . S
C168 H194 0.931 . S
N169 Co165 2.148 . S
N169 C166 1.301 . S
N169 C167 1.317 . S
N170 C166 1.328 . S
N170 C168 1.350 . S
H171 C166 0.930 . S
H172 C167 0.930 . S
C173 O174 1.224 . S
C173 O192 1.247 . S
O174 C173 1.224 . S
N175 Co165 2.128 . S
N175 C176 1.355 . S
N175 C178 1.311 . S
C176 N175 1.355 . S
C176 C177 1.363 . S
C176 H188 0.929 . S
C177 C176 1.363 . S
C177 N179 1.375 . S
C177 H195 0.931 . S
C178 N175 1.311 . S
C178 N179 1.347 . S
C178 H189 0.929 . S
N179 C177 1.375 . S
N179 C178 1.347 . S
C180 C183 1.365 . S
C180 N185 1.328 . S
C180 H186 0.929 . S
C181 C182 1.362 . S
C181 C184 1.378 . S
C181 H196 0.929 . S
C182 C181 1.362 . S
C182 C183 1.366 . S
C183 C180 1.365 . S
C183 C182 1.366 . S
C183 H197 0.930 . S
C184 C181 1.378 . S
C184 N185 1.315 . S
C184 H187 0.930 . S
N185 Co165 2.194 . S
N185 C180 1.328 . S
N185 C184 1.315 . S
H186 C180 0.929 . S
H187 C184 0.930 . S
H188 C176 0.929 . S
H189 C178 0.929 . S
O190 Co165 2.351 . S
O190 C193 1.244 . S
O191 Co165 2.155 . S
O191 C193 1.240 . S
O192 Co165 2.096 . S
O192 C173 1.247 . S
C193 O190 1.244 . S
C193 O191 1.240 . S
H194 C168 0.931 . S
H195 C177 0.931 . S
H196 C181 0.929 . S
H197 C183 0.930 . S
Co198 N202 2.148 . S
Co198 N208 2.128 . S
Co198 N218 2.194 . S
Co198 O223 2.351 . S
Co198 O224 2.155 . S
Co198 O225 2.096 . S
C199 N202 1.301 . S
C199 N203 1.328 1_545 S
C199 H204 0.930 . S
C200 C201 1.321 1_545 S
C200 N202 1.326 . S
C200 H205 0.933 . S
C201 C200 1.321 1_565 S
C201 N203 1.350 . S
C201 H227 0.931 . S
N202 Co198 2.148 . S
N202 C199 1.301 . S
N202 C200 1.326 . S
N203 C199 1.328 1_565 S
N203 C201 1.350 . S
H204 C199 0.930 . S
H205 C200 0.933 . S
C206 O207 1.224 . S
C206 O225 1.247 . S
O207 C206 1.224 . S
N208 Co198 2.128 . S
N208 C209 1.355 . S
N208 C211 1.311 . S
C209 N208 1.355 . S
C209 C210 1.363 . S
C209 H221 0.929 . S
C210 C209 1.363 . S
C210 N212 1.375 . S
C210 H228 0.931 . S
C211 N208 1.311 . S
C211 N212 1.347 . S
C211 H222 0.929 . S
N212 C210 1.375 . S
N212 C211 1.347 . S
C213 C216 1.365 . S
C213 N218 1.328 . S
C213 H219 0.929 . S
C214 C215 1.362 . S
C214 C217 1.378 . S
C214 H229 0.929 . S
C215 C214 1.362 . S
C215 C216 1.366 . S
C216 C213 1.365 . S
C216 C215 1.366 . S
C216 H230 0.930 . S
C217 C214 1.378 . S
C217 N218 1.315 . S
C217 H220 0.930 . S
N218 Co198 2.194 . S
N218 C213 1.328 . S
N218 C217 1.315 . S
H219 C213 0.929 . S
H220 C217 0.930 . S
H221 C209 0.929 . S
H222 C211 0.929 . S
O223 Co198 2.351 . S
O223 C226 1.244 . S
O224 Co198 2.155 . S
O224 C226 1.240 . S
O225 Co198 2.096 . S
O225 C206 1.247 . S
C226 O223 1.244 . S
C226 O224 1.240 . S
H227 C201 0.931 . S
H228 C210 0.931 . S
H229 C214 0.929 . S
H230 C216 0.930 . S
Co231 N235 2.148 . S
Co231 N241 2.128 . S
Co231 N251 2.194 . S
Co231 O256 2.351 . S
Co231 O257 2.155 . S
Co231 O258 2.096 . S
C232 N235 1.301 . S
C232 N236 1.328 . S
C232 H237 0.930 . S
C233 C234 1.333 . S
C233 N235 1.317 . S
C233 H238 0.930 . S
C234 C233 1.333 . S
C234 N236 1.350 . S
C234 H260 0.931 . S
N235 Co231 2.148 . S
N235 C232 1.301 . S
N235 C233 1.317 . S
N236 C232 1.328 . S
N236 C234 1.350 . S
H237 C232 0.930 . S
H238 C233 0.930 . S
C239 O240 1.224 . S
C239 O258 1.247 . S
O240 C239 1.224 . S
N241 Co231 2.128 . S
N241 C242 1.355 . S
N241 C244 1.311 . S
C242 N241 1.355 . S
C242 C243 1.363 . S
C242 H254 0.929 . S
C243 C242 1.363 . S
C243 N245 1.375 . S
C243 H261 0.931 . S
C244 N241 1.311 . S
C244 N245 1.347 . S
C244 H255 0.929 . S
N245 C243 1.375 . S
N245 C244 1.347 . S
C246 C249 1.365 . S
C246 N251 1.328 . S
C246 H252 0.929 . S
C247 C248 1.362 . S
C247 C250 1.378 . S
C247 H262 0.929 . S
C248 C247 1.362 . S
C248 C249 1.366 . S
C249 C246 1.365 . S
C249 C248 1.366 . S
C249 H263 0.930 . S
C250 C247 1.378 . S
C250 N251 1.315 . S
C250 H253 0.930 . S
N251 Co231 2.194 . S
N251 C246 1.328 . S
N251 C250 1.315 . S
H252 C246 0.929 . S
H253 C250 0.930 . S
H254 C242 0.929 . S
H255 C244 0.929 . S
O256 Co231 2.351 . S
O256 C259 1.244 . S
O257 Co231 2.155 . S
O257 C259 1.240 . S
O258 Co231 2.096 . S
O258 C239 1.247 . S
C259 O256 1.244 . S
C259 O257 1.240 . S
H260 C234 0.931 . S
H261 C243 0.931 . S
H262 C247 0.929 . S
H263 C249 0.930 . S
Co264 N268 2.148 . S
Co264 N274 2.128 . S
Co264 N284 2.194 . S
Co264 O289 2.351 . S
Co264 O290 2.155 . S
Co264 O291 2.096 . S
C265 N268 1.301 . S
C265 N269 1.328 1_565 S
C265 H270 0.930 . S
C266 C267 1.321 1_565 S
C266 N268 1.326 . S
C266 H271 0.933 . S
C267 C266 1.321 1_545 S
C267 N269 1.350 . S
C267 H293 0.931 . S
N268 Co264 2.148 . S
N268 C265 1.301 . S
N268 C266 1.326 . S
N269 C265 1.328 1_545 S
N269 C267 1.350 . S
H270 C265 0.930 . S
H271 C266 0.933 . S
C272 O273 1.224 . S
C272 O291 1.247 1_455 S
O273 C272 1.224 . S
N274 Co264 2.128 . S
N274 C275 1.355 . S
N274 C277 1.313 1_655 S
C275 N274 1.355 . S
C275 C276 1.363 . S
C275 H287 0.929 . S
C276 C275 1.363 . S
C276 N278 1.375 1_655 S
C276 H294 0.931 . S
C277 N274 1.313 1_455 S
C277 N278 1.347 . S
C277 H288 0.927 . S
N278 C276 1.375 1_455 S
N278 C277 1.347 . S
C279 C282 1.365 . S
C279 N284 1.328 . S
C279 H285 0.929 . S
C280 C281 1.362 . S
C280 C283 1.378 . S
C280 H295 0.936 . S
C281 C280 1.362 . S
C281 C282 1.366 . S
C282 C279 1.365 . S
C282 C281 1.366 . S
C282 H296 0.930 . S
C283 C280 1.378 . S
C283 N284 1.315 . S
C283 H286 0.939 . S
N284 Co264 2.194 . S
N284 C279 1.328 . S
N284 C283 1.315 . S
H285 C279 0.929 . S
H286 C283 0.939 . S
H287 C275 0.929 . S
H288 C277 0.927 . S
O289 Co264 2.351 . S
O289 C292 1.244 . S
O290 Co264 2.155 . S
O290 C292 1.240 . S
O291 Co264 2.096 . S
O291 C272 1.247 1_655 S
C292 O289 1.244 . S
C292 O290 1.240 . S
H293 C267 0.931 . S
H294 C276 0.931 . S
H295 C280 0.936 . S
H296 C282 0.930 . S
Co297 N301 2.148 . S
Co297 N307 2.128 . S
Co297 N317 2.194 . S
Co297 O322 2.351 . S
Co297 O323 2.155 . S
Co297 O324 2.096 . S
C298 N301 1.301 . S
C298 N302 1.328 . S
C298 H303 0.930 . S
C299 C300 1.333 . S
C299 N301 1.317 . S
C299 H304 0.930 . S
C300 C299 1.333 . S
C300 N302 1.350 . S
C300 H326 0.931 . S
N301 Co297 2.148 . S
N301 C298 1.301 . S
N301 C299 1.317 . S
N302 C298 1.328 . S
N302 C300 1.350 . S
H303 C298 0.930 . S
H304 C299 0.930 . S
C305 O306 1.224 . S
C305 O324 1.247 . S
O306 C305 1.224 . S
N307 Co297 2.128 . S
N307 C308 1.355 . S
N307 C310 1.311 . S
C308 N307 1.355 . S
C308 C309 1.363 . S
C308 H320 0.929 . S
C309 C308 1.363 . S
C309 N311 1.375 . S
C309 H327 0.931 . S
C310 N307 1.311 . S
C310 N311 1.347 . S
C310 H321 0.929 . S
N311 C309 1.375 . S
N311 C310 1.347 . S
C312 C315 1.365 . S
C312 N317 1.328 . S
C312 H318 0.929 . S
C313 C314 1.362 . S
C313 C316 1.378 . S
C313 H328 0.929 . S
C314 C313 1.362 . S
C314 C315 1.366 . S
C315 C312 1.365 . S
C315 C314 1.366 . S
C315 H329 0.930 . S
C316 C313 1.378 . S
C316 N317 1.315 . S
C316 H319 0.930 . S
N317 Co297 2.194 . S
N317 C312 1.328 . S
N317 C316 1.315 . S
H318 C312 0.929 . S
H319 C316 0.930 . S
H320 C308 0.929 . S
H321 C310 0.929 . S
O322 Co297 2.351 . S
O322 C325 1.244 . S
O323 Co297 2.155 . S
O323 C325 1.240 . S
O324 Co297 2.096 . S
O324 C305 1.247 . S
C325 O322 1.244 . S
C325 O323 1.240 . S
H326 C300 0.931 . S
H327 C309 0.931 . S
H328 C313 0.929 . S
H329 C315 0.930 . S
Co330 N334 2.148 . S
Co330 N340 2.128 . S
Co330 N350 2.194 . S
Co330 O355 2.351 . S
Co330 O356 2.155 . S
Co330 O357 2.096 . S
C331 N334 1.301 . S
C331 N335 1.328 1_545 S
C331 H336 0.930 . S
C332 C333 1.321 1_545 S
C332 N334 1.326 . S
C332 H337 0.933 . S
C333 C332 1.321 1_565 S
C333 N335 1.350 . S
C333 H359 0.931 . S
N334 Co330 2.148 . S
N334 C331 1.301 . S
N334 C332 1.326 . S
N335 C331 1.328 1_565 S
N335 C333 1.350 . S
H336 C331 0.930 . S
H337 C332 0.933 . S
C338 O339 1.224 . S
C338 O357 1.247 . S
O339 C338 1.224 . S
N340 Co330 2.128 . S
N340 C341 1.355 . S
N340 C343 1.311 . S
C341 N340 1.355 . S
C341 C342 1.363 . S
C341 H353 0.929 . S
C342 C341 1.363 . S
C342 N344 1.375 . S
C342 H360 0.931 . S
C343 N340 1.311 . S
C343 N344 1.347 . S
C343 H354 0.929 . S
N344 C342 1.375 . S
N344 C343 1.347 . S
C345 C348 1.365 . S
C345 N350 1.328 . S
C345 H351 0.929 . S
C346 C347 1.362 . S
C346 C349 1.378 . S
C346 H361 0.929 . S
C347 C346 1.362 . S
C347 C348 1.366 . S
C348 C345 1.365 . S
C348 C347 1.366 . S
C348 H362 0.930 . S
C349 C346 1.378 . S
C349 N350 1.315 . S
C349 H352 0.930 . S
N350 Co330 2.194 . S
N350 C345 1.328 . S
N350 C349 1.315 . S
H351 C345 0.929 . S
H352 C349 0.930 . S
H353 C341 0.929 . S
H354 C343 0.929 . S
O355 Co330 2.351 . S
O355 C358 1.244 . S
O356 Co330 2.155 . S
O356 C358 1.240 . S
O357 Co330 2.096 . S
O357 C338 1.247 . S
C358 O355 1.244 . S
C358 O356 1.240 . S
H359 C333 0.931 . S
H360 C342 0.931 . S
H361 C346 0.929 . S
H362 C348 0.930 . S
Co363 N367 2.148 . S
Co363 N373 2.128 . S
Co363 N383 2.194 . S
Co363 O388 2.351 . S
Co363 O389 2.155 . S
Co363 O390 2.096 . S
C364 N367 1.301 . S
C364 N368 1.328 . S
C364 H369 0.930 . S
C365 C366 1.333 . S
C365 N367 1.317 . S
C365 H370 0.930 . S
C366 C365 1.333 . S
C366 N368 1.350 . S
C366 H392 0.931 . S
N367 Co363 2.148 . S
N367 C364 1.301 . S
N367 C365 1.317 . S
N368 C364 1.328 . S
N368 C366 1.350 . S
H369 C364 0.930 . S
H370 C365 0.930 . S
C371 O372 1.224 . S
C371 O390 1.247 . S
O372 C371 1.224 . S
N373 Co363 2.128 . S
N373 C374 1.355 . S
N373 C376 1.311 . S
C374 N373 1.355 . S
C374 C375 1.363 . S
C374 H386 0.929 . S
C375 C374 1.363 . S
C375 N377 1.375 . S
C375 H393 0.931 . S
C376 N373 1.311 . S
C376 N377 1.347 . S
C376 H387 0.929 . S
N377 C375 1.375 . S
N377 C376 1.347 . S
C378 C381 1.365 . S
C378 N383 1.328 . S
C378 H384 0.929 . S
C379 C380 1.362 . S
C379 C382 1.378 . S
C379 H394 0.929 . S
C380 C379 1.362 . S
C380 C381 1.366 . S
C381 C378 1.365 . S
C381 C380 1.366 . S
C381 H395 0.930 . S
C382 C379 1.378 . S
C382 N383 1.315 . S
C382 H385 0.930 . S
N383 Co363 2.194 . S
N383 C378 1.328 . S
N383 C382 1.315 . S
H384 C378 0.929 . S
H385 C382 0.930 . S
H386 C374 0.929 . S
H387 C376 0.929 . S
O388 Co363 2.351 . S
O388 C391 1.244 . S
O389 Co363 2.155 . S
O389 C391 1.240 . S
O390 Co363 2.096 . S
O390 C371 1.247 . S
C391 O388 1.244 . S
C391 O389 1.240 . S
H392 C366 0.931 . S
H393 C375 0.931 . S
H394 C379 0.929 . S
H395 C381 0.930 . S
Co396 N400 2.148 . S
Co396 N406 2.128 . S
Co396 N416 2.194 . S
Co396 O421 2.351 . S
Co396 O422 2.155 . S
Co396 O423 2.096 . S
C397 N400 1.301 . S
C397 N401 1.328 1_545 S
C397 H402 0.930 . S
C398 C399 1.321 1_545 S
C398 N400 1.326 . S
C398 H403 0.933 . S
C399 C398 1.321 1_565 S
C399 N401 1.350 . S
C399 H425 0.931 . S
N400 Co396 2.148 . S
N400 C397 1.301 . S
N400 C398 1.326 . S
N401 C397 1.328 1_565 S
N401 C399 1.350 . S
H402 C397 0.930 . S
H403 C398 0.933 . S
C404 O405 1.224 . S
C404 O423 1.247 1_455 S
O405 C404 1.224 . S
N406 Co396 2.128 . S
N406 C407 1.355 . S
N406 C409 1.313 1_655 S
C407 N406 1.355 . S
C407 C408 1.363 . S
C407 H419 0.929 . S
C408 C407 1.363 . S
C408 N410 1.375 1_655 S
C408 H426 0.931 . S
C409 N406 1.313 1_455 S
C409 N410 1.347 . S
C409 H420 0.927 . S
N410 C408 1.375 1_455 S
N410 C409 1.347 . S
C411 C414 1.365 . S
C411 N416 1.328 . S
C411 H417 0.929 . S
C412 C413 1.362 . S
C412 C415 1.378 . S
C412 H427 0.936 . S
C413 C412 1.362 . S
C413 C414 1.366 . S
C414 C411 1.365 . S
C414 C413 1.366 . S
C414 H428 0.930 . S
C415 C412 1.378 . S
C415 N416 1.315 . S
C415 H418 0.939 . S
N416 Co396 2.194 . S
N416 C411 1.328 . S
N416 C415 1.315 . S
H417 C411 0.929 . S
H418 C415 0.939 . S
H419 C407 0.929 . S
H420 C409 0.927 . S
O421 Co396 2.351 . S
O421 C424 1.244 . S
O422 Co396 2.155 . S
O422 C424 1.240 . S
O423 Co396 2.096 . S
O423 C404 1.247 1_655 S
C424 O421 1.244 . S
C424 O422 1.240 . S
H425 C399 0.931 . S
H426 C408 0.931 . S
H427 C412 0.936 . S
H428 C414 0.930 . S
Co429 N433 2.148 . S
Co429 N439 2.128 . S
Co429 N449 2.194 . S
Co429 O454 2.351 . S
Co429 O455 2.155 . S
Co429 O456 2.096 . S
C430 N433 1.301 . S
C430 N434 1.328 . S
C430 H435 0.930 . S
C431 C432 1.333 . S
C431 N433 1.317 . S
C431 H436 0.930 . S
C432 C431 1.333 . S
C432 N434 1.350 . S
C432 H458 0.931 . S
N433 Co429 2.148 . S
N433 C430 1.301 . S
N433 C431 1.317 . S
N434 C430 1.328 . S
N434 C432 1.350 . S
H435 C430 0.930 . S
H436 C431 0.930 . S
C437 O438 1.224 . S
C437 O456 1.247 . S
O438 C437 1.224 . S
N439 Co429 2.128 . S
N439 C440 1.355 . S
N439 C442 1.311 . S
C440 N439 1.355 . S
C440 C441 1.363 . S
C440 H452 0.929 . S
C441 C440 1.363 . S
C441 N443 1.375 . S
C441 H459 0.931 . S
C442 N439 1.311 . S
C442 N443 1.347 . S
C442 H453 0.929 . S
N443 C441 1.375 . S
N443 C442 1.347 . S
C444 C447 1.365 . S
C444 N449 1.328 . S
C444 H450 0.929 . S
C445 C446 1.362 . S
C445 C448 1.378 . S
C445 H460 0.929 . S
C446 C445 1.362 . S
C446 C447 1.366 . S
C447 C444 1.365 . S
C447 C446 1.366 . S
C447 H461 0.930 . S
C448 C445 1.378 . S
C448 N449 1.315 . S
C448 H451 0.930 . S
N449 Co429 2.194 . S
N449 C444 1.328 . S
N449 C448 1.315 . S
H450 C444 0.929 . S
H451 C448 0.930 . S
H452 C440 0.929 . S
H453 C442 0.929 . S
O454 Co429 2.351 . S
O454 C457 1.244 . S
O455 Co429 2.155 . S
O455 C457 1.240 . S
O456 Co429 2.096 . S
O456 C437 1.247 . S
C457 O454 1.244 . S
C457 O455 1.240 . S
H458 C432 0.931 . S
H459 C441 0.931 . S
H460 C445 0.929 . S
H461 C447 0.930 . S
Co462 N466 2.148 . S
Co462 N472 2.128 . S
Co462 N482 2.194 . S
Co462 O487 2.351 . S
Co462 O488 2.155 . S
Co462 O489 2.096 . S
C463 N466 1.301 . S
C463 N467 1.328 1_565 S
C463 H468 0.930 . S
C464 C465 1.321 1_565 S
C464 N466 1.326 . S
C464 H469 0.933 . S
C465 C464 1.321 1_545 S
C465 N467 1.350 . S
C465 H491 0.931 . S
N466 Co462 2.148 . S
N466 C463 1.301 . S
N466 C464 1.326 . S
N467 C463 1.328 1_545 S
N467 C465 1.350 . S
H468 C463 0.930 . S
H469 C464 0.933 . S
C470 O471 1.224 . S
C470 O489 1.247 . S
O471 C470 1.224 . S
N472 Co462 2.128 . S
N472 C473 1.355 . S
N472 C475 1.311 . S
C473 N472 1.355 . S
C473 C474 1.363 . S
C473 H485 0.929 . S
C474 C473 1.363 . S
C474 N476 1.375 . S
C474 H492 0.931 . S
C475 N472 1.311 . S
C475 N476 1.347 . S
C475 H486 0.929 . S
N476 C474 1.375 . S
N476 C475 1.347 . S
C477 C480 1.365 . S
C477 N482 1.328 . S
C477 H483 0.929 . S
C478 C479 1.362 . S
C478 C481 1.378 . S
C478 H493 0.929 . S
C479 C478 1.362 . S
C479 C480 1.366 . S
C480 C477 1.365 . S
C480 C479 1.366 . S
C480 H494 0.930 . S
C481 C478 1.378 . S
C481 N482 1.315 . S
C481 H484 0.930 . S
N482 Co462 2.194 . S
N482 C477 1.328 . S
N482 C481 1.315 . S
H483 C477 0.929 . S
H484 C481 0.930 . S
H485 C473 0.929 . S
H486 C475 0.929 . S
O487 Co462 2.351 . S
O487 C490 1.244 . S
O488 Co462 2.155 . S
O488 C490 1.240 . S
O489 Co462 2.096 . S
O489 C470 1.247 . S
C490 O487 1.244 . S
C490 O488 1.240 . S
H491 C465 0.931 . S
H492 C474 0.931 . S
H493 C478 0.929 . S
H494 C480 0.930 . S
Co495 N499 2.148 . S
Co495 N505 2.128 . S
Co495 N515 2.194 . S
Co495 O520 2.351 . S
Co495 O521 2.155 . S
Co495 O522 2.096 . S
C496 N499 1.301 . S
C496 N500 1.328 . S
C496 H501 0.930 . S
C497 C498 1.333 . S
C497 N499 1.317 . S
C497 H502 0.930 . S
C498 C497 1.333 . S
C498 N500 1.350 . S
C498 H524 0.931 . S
N499 Co495 2.148 . S
N499 C496 1.301 . S
N499 C497 1.317 . S
N500 C496 1.328 . S
N500 C498 1.350 . S
H501 C496 0.930 . S
H502 C497 0.930 . S
C503 O504 1.224 . S
C503 O522 1.247 . S
O504 C503 1.224 . S
N505 Co495 2.128 . S
N505 C506 1.355 . S
N505 C508 1.311 . S
C506 N505 1.355 . S
C506 C507 1.363 . S
C506 H518 0.929 . S
C507 C506 1.363 . S
C507 N509 1.375 . S
C507 H525 0.931 . S
C508 N505 1.311 . S
C508 N509 1.347 . S
C508 H519 0.929 . S
N509 C507 1.375 . S
N509 C508 1.347 . S
C510 C513 1.365 . S
C510 N515 1.328 . S
C510 H516 0.929 . S
C511 C512 1.362 . S
C511 C514 1.378 . S
C511 H526 0.929 . S
C512 C511 1.362 . S
C512 C513 1.366 . S
C513 C510 1.365 . S
C513 C512 1.366 . S
C513 H527 0.930 . S
C514 C511 1.378 . S
C514 N515 1.315 . S
C514 H517 0.930 . S
N515 Co495 2.194 . S
N515 C510 1.328 . S
N515 C514 1.315 . S
H516 C510 0.929 . S
H517 C514 0.930 . S
H518 C506 0.929 . S
H519 C508 0.929 . S
O520 Co495 2.351 . S
O520 C523 1.244 . S
O521 Co495 2.155 . S
O521 C523 1.240 . S
O522 Co495 2.096 . S
O522 C503 1.247 . S
C523 O520 1.244 . S
C523 O521 1.240 . S
H524 C498 0.931 . S
H525 C507 0.931 . S
H526 C511 0.929 . S
H527 C513 0.930 . S
Co528 N532 2.148 . S
Co528 N538 2.128 . S
Co528 N548 2.194 . S
Co528 O553 2.351 . S
Co528 O554 2.155 . S
Co528 O555 2.096 . S
C529 N532 1.301 . S
C529 N533 1.328 . S
C529 H534 0.930 . S
C530 C531 1.333 . S
C530 N532 1.317 . S
C530 H535 0.930 . S
C531 C530 1.333 . S
C531 N533 1.350 . S
C531 H557 0.931 . S
N532 Co528 2.148 . S
N532 C529 1.301 . S
N532 C530 1.317 . S
N533 C529 1.328 . S
N533 C531 1.350 . S
H534 C529 0.930 . S
H535 C530 0.930 . S
C536 O537 1.224 . S
C536 O555 1.247 . S
O537 C536 1.224 . S
N538 Co528 2.128 . S
N538 C539 1.355 . S
N538 C541 1.311 . S
C539 N538 1.355 . S
C539 C540 1.363 . S
C539 H551 0.929 . S
C540 C539 1.363 . S
C540 N542 1.375 . S
C540 H558 0.931 . S
C541 N538 1.311 . S
C541 N542 1.347 . S
C541 H552 0.929 . S
N542 C540 1.375 . S
N542 C541 1.347 . S
C543 C546 1.365 . S
C543 N548 1.328 . S
C543 H549 0.929 . S
C544 C545 1.362 . S
C544 C547 1.378 . S
C544 H559 0.929 . S
C545 C544 1.362 . S
C545 C546 1.366 . S
C546 C543 1.365 . S
C546 C545 1.366 . S
C546 H560 0.930 . S
C547 C544 1.378 . S
C547 N548 1.315 . S
C547 H550 0.930 . S
N548 Co528 2.194 . S
N548 C543 1.328 . S
N548 C547 1.315 . S
H549 C543 0.929 . S
H550 C547 0.930 . S
H551 C539 0.929 . S
H552 C541 0.929 . S
O553 Co528 2.351 . S
O553 C556 1.244 . S
O554 Co528 2.155 . S
O554 C556 1.240 . S
O555 Co528 2.096 . S
O555 C536 1.247 . S
C556 O553 1.244 . S
C556 O554 1.240 . S
H557 C531 0.931 . S
H558 C540 0.931 . S
H559 C544 0.929 . S
H560 C546 0.930 . S
Co561 N565 2.148 . S
Co561 N571 2.128 . S
Co561 N581 2.194 . S
Co561 O586 2.351 . S
Co561 O587 2.155 . S
Co561 O588 2.096 . S
C562 N565 1.301 . S
C562 N566 1.328 . S
C562 H567 0.930 . S
C563 C564 1.333 . S
C563 N565 1.317 . S
C563 H568 0.930 . S
C564 C563 1.333 . S
C564 N566 1.350 . S
C564 H590 0.931 . S
N565 Co561 2.148 . S
N565 C562 1.301 . S
N565 C563 1.317 . S
N566 C562 1.328 . S
N566 C564 1.350 . S
H567 C562 0.930 . S
H568 C563 0.930 . S
C569 O570 1.224 . S
C569 O588 1.247 . S
O570 C569 1.224 . S
N571 Co561 2.128 . S
N571 C572 1.355 . S
N571 C574 1.311 . S
C572 N571 1.355 . S
C572 C573 1.363 . S
C572 H584 0.929 . S
C573 C572 1.363 . S
C573 N575 1.375 . S
C573 H591 0.931 . S
C574 N571 1.311 . S
C574 N575 1.347 . S
C574 H585 0.929 . S
N575 C573 1.375 . S
N575 C574 1.347 . S
C576 C579 1.365 . S
C576 N581 1.328 . S
C576 H582 0.929 . S
C577 C578 1.362 . S
C577 C580 1.378 . S
C577 H592 0.929 . S
C578 C577 1.362 . S
C578 C579 1.366 . S
C579 C576 1.365 . S
C579 C578 1.366 . S
C579 H593 0.930 . S
C580 C577 1.378 . S
C580 N581 1.315 . S
C580 H583 0.930 . S
N581 Co561 2.194 . S
N581 C576 1.328 . S
N581 C580 1.315 . S
H582 C576 0.929 . S
H583 C580 0.930 . S
H584 C572 0.929 . S
H585 C574 0.929 . S
O586 Co561 2.351 . S
O586 C589 1.244 . S
O587 Co561 2.155 . S
O587 C589 1.240 . S
O588 Co561 2.096 . S
O588 C569 1.247 . S
C589 O586 1.244 . S
C589 O587 1.240 . S
H590 C564 0.931 . S
H591 C573 0.931 . S
H592 C577 0.929 . S
H593 C579 0.930 . S
Co594 N598 2.148 . S
Co594 N604 2.128 . S
Co594 N614 2.194 . S
Co594 O619 2.351 . S
Co594 O620 2.155 . S
Co594 O621 2.096 . S
C595 N598 1.301 . S
C595 N599 1.328 . S
C595 H600 0.930 . S
C596 C597 1.333 . S
C596 N598 1.317 . S
C596 H601 0.930 . S
C597 C596 1.333 . S
C597 N599 1.350 . S
C597 H623 0.931 . S
N598 Co594 2.148 . S
N598 C595 1.301 . S
N598 C596 1.317 . S
N599 C595 1.328 . S
N599 C597 1.350 . S
H600 C595 0.930 . S
H601 C596 0.930 . S
C602 O603 1.224 . S
C602 O621 1.247 1_455 S
O603 C602 1.224 . S
N604 Co594 2.128 . S
N604 C605 1.355 . S
N604 C607 1.313 1_655 S
C605 N604 1.355 . S
C605 C606 1.363 . S
C605 H617 0.929 . S
C606 C605 1.363 . S
C606 N608 1.375 1_655 S
C606 H624 0.931 . S
C607 N604 1.313 1_455 S
C607 N608 1.347 . S
C607 H618 0.927 . S
N608 C606 1.375 1_455 S
N608 C607 1.347 . S
C609 C612 1.365 . S
C609 N614 1.328 . S
C609 H615 0.929 . S
C610 C611 1.362 . S
C610 C613 1.378 . S
C610 H625 0.936 . S
C611 C610 1.362 . S
C611 C612 1.366 . S
C612 C609 1.365 . S
C612 C611 1.366 . S
C612 H626 0.930 . S
C613 C610 1.378 . S
C613 N614 1.315 . S
C613 H616 0.939 . S
N614 Co594 2.194 . S
N614 C609 1.328 . S
N614 C613 1.315 . S
H615 C609 0.929 . S
H616 C613 0.939 . S
H617 C605 0.929 . S
H618 C607 0.927 . S
O619 Co594 2.351 . S
O619 C622 1.244 . S
O620 Co594 2.155 . S
O620 C622 1.240 . S
O621 Co594 2.096 . S
O621 C602 1.247 1_655 S
C622 O619 1.244 . S
C622 O620 1.240 . S
H623 C597 0.931 . S
H624 C606 0.931 . S
H625 C610 0.936 . S
H626 C612 0.930 . S
Co627 N631 2.148 . S
Co627 N637 2.128 . S
Co627 N647 2.194 . S
Co627 O652 2.351 . S
Co627 O653 2.155 . S
Co627 O654 2.096 . S
C628 N631 1.301 . S
C628 N632 1.328 . S
C628 H633 0.930 . S
C629 C630 1.333 . S
C629 N631 1.317 . S
C629 H634 0.930 . S
C630 C629 1.333 . S
C630 N632 1.350 . S
C630 H656 0.931 . S
N631 Co627 2.148 . S
N631 C628 1.301 . S
N631 C629 1.317 . S
N632 C628 1.328 . S
N632 C630 1.350 . S
H633 C628 0.930 . S
H634 C629 0.930 . S
C635 O636 1.224 . S
C635 O654 1.247 . S
O636 C635 1.224 . S
N637 Co627 2.128 . S
N637 C638 1.355 . S
N637 C640 1.311 . S
C638 N637 1.355 . S
C638 C639 1.363 . S
C638 H650 0.929 . S
C639 C638 1.363 . S
C639 N641 1.375 . S
C639 H657 0.931 . S
C640 N637 1.311 . S
C640 N641 1.347 . S
C640 H651 0.929 . S
N641 C639 1.375 . S
N641 C640 1.347 . S
C642 C645 1.365 . S
C642 N647 1.328 . S
C642 H648 0.929 . S
C643 C644 1.362 . S
C643 C646 1.378 . S
C643 H658 0.929 . S
C644 C643 1.362 . S
C644 C645 1.366 . S
C645 C642 1.365 . S
C645 C644 1.366 . S
C645 H659 0.930 . S
C646 C643 1.378 . S
C646 N647 1.315 . S
C646 H649 0.930 . S
N647 Co627 2.194 . S
N647 C642 1.328 . S
N647 C646 1.315 . S
H648 C642 0.929 . S
H649 C646 0.930 . S
H650 C638 0.929 . S
H651 C640 0.929 . S
O652 Co627 2.351 . S
O652 C655 1.244 . S
O653 Co627 2.155 . S
O653 C655 1.240 . S
O654 Co627 2.096 . S
O654 C635 1.247 . S
C655 O652 1.244 . S
C655 O653 1.240 . S
H656 C630 0.931 . S
H657 C639 0.931 . S
H658 C643 0.929 . S
H659 C645 0.930 . S
Co660 N664 2.148 . S
Co660 N670 2.128 . S
Co660 N680 2.194 . S
Co660 O685 2.351 . S
Co660 O686 2.155 . S
Co660 O687 2.096 . S
C661 N664 1.301 . S
C661 N665 1.328 . S
C661 H666 0.930 . S
C662 C663 1.333 . S
C662 N664 1.317 . S
C662 H667 0.930 . S
C663 C662 1.333 . S
C663 N665 1.350 . S
C663 H689 0.931 . S
N664 Co660 2.148 . S
N664 C661 1.301 . S
N664 C662 1.317 . S
N665 C661 1.328 . S
N665 C663 1.350 . S
H666 C661 0.930 . S
H667 C662 0.930 . S
C668 O669 1.224 . S
C668 O687 1.247 . S
O669 C668 1.224 . S
N670 Co660 2.128 . S
N670 C671 1.355 . S
N670 C673 1.311 . S
C671 N670 1.355 . S
C671 C672 1.363 . S
C671 H683 0.929 . S
C672 C671 1.363 . S
C672 N674 1.375 . S
C672 H690 0.931 . S
C673 N670 1.311 . S
C673 N674 1.347 . S
C673 H684 0.929 . S
N674 C672 1.375 . S
N674 C673 1.347 . S
C675 C678 1.365 . S
C675 N680 1.328 . S
C675 H681 0.929 . S
C676 C677 1.362 . S
C676 C679 1.378 . S
C676 H691 0.929 . S
C677 C676 1.362 . S
C677 C678 1.366 . S
C678 C675 1.365 . S
C678 C677 1.366 . S
C678 H692 0.930 . S
C679 C676 1.378 . S
C679 N680 1.315 . S
C679 H682 0.930 . S
N680 Co660 2.194 . S
N680 C675 1.328 . S
N680 C679 1.315 . S
H681 C675 0.929 . S
H682 C679 0.930 . S
H683 C671 0.929 . S
H684 C673 0.929 . S
O685 Co660 2.351 . S
O685 C688 1.244 . S
O686 Co660 2.155 . S
O686 C688 1.240 . S
O687 Co660 2.096 . S
O687 C668 1.247 . S
C688 O685 1.244 . S
C688 O686 1.240 . S
H689 C663 0.931 . S
H690 C672 0.931 . S
H691 C676 0.929 . S
H692 C678 0.930 . S
Co693 N697 2.148 . S
Co693 N703 2.128 . S
Co693 N713 2.194 . S
Co693 O718 2.351 . S
Co693 O719 2.155 . S
Co693 O720 2.096 . S
C694 N697 1.301 . S
C694 N698 1.328 . S
C694 H699 0.930 . S
C695 C696 1.333 . S
C695 N697 1.317 . S
C695 H700 0.930 . S
C696 C695 1.333 . S
C696 N698 1.350 . S
C696 H722 0.931 . S
N697 Co693 2.148 . S
N697 C694 1.301 . S
N697 C695 1.317 . S
N698 C694 1.328 . S
N698 C696 1.350 . S
H699 C694 0.930 . S
H700 C695 0.930 . S
C701 O702 1.224 . S
C701 O720 1.247 . S
O702 C701 1.224 . S
N703 Co693 2.128 . S
N703 C704 1.355 . S
N703 C706 1.311 . S
C704 N703 1.355 . S
C704 C705 1.363 . S
C704 H716 0.929 . S
C705 C704 1.363 . S
C705 N707 1.375 . S
C705 H723 0.931 . S
C706 N703 1.311 . S
C706 N707 1.347 . S
C706 H717 0.929 . S
N707 C705 1.375 . S
N707 C706 1.347 . S
C708 C711 1.365 . S
C708 N713 1.328 . S
C708 H714 0.929 . S
C709 C710 1.362 . S
C709 C712 1.378 . S
C709 H724 0.929 . S
C710 C709 1.362 . S
C710 C711 1.366 . S
C711 C708 1.365 . S
C711 C710 1.366 . S
C711 H725 0.930 . S
C712 C709 1.378 . S
C712 N713 1.315 . S
C712 H715 0.930 . S
N713 Co693 2.194 . S
N713 C708 1.328 . S
N713 C712 1.315 . S
H714 C708 0.929 . S
H715 C712 0.930 . S
H716 C704 0.929 . S
H717 C706 0.929 . S
O718 Co693 2.351 . S
O718 C721 1.244 . S
O719 Co693 2.155 . S
O719 C721 1.240 . S
O720 Co693 2.096 . S
O720 C701 1.247 . S
C721 O718 1.244 . S
C721 O719 1.240 . S
H722 C696 0.931 . S
H723 C705 0.931 . S
H724 C709 0.929 . S
H725 C711 0.930 . S
Co726 N730 2.148 . S
Co726 N736 2.128 . S
Co726 N746 2.194 . S
Co726 O751 2.351 . S
Co726 O752 2.155 . S
Co726 O753 2.096 . S
C727 N730 1.301 . S
C727 N731 1.328 . S
C727 H732 0.930 . S
C728 C729 1.333 . S
C728 N730 1.317 . S
C728 H733 0.930 . S
C729 C728 1.333 . S
C729 N731 1.350 . S
C729 H755 0.931 . S
N730 Co726 2.148 . S
N730 C727 1.301 . S
N730 C728 1.317 . S
N731 C727 1.328 . S
N731 C729 1.350 . S
H732 C727 0.930 . S
H733 C728 0.930 . S
C734 O735 1.224 . S
C734 O753 1.247 1_455 S
O735 C734 1.224 . S
N736 Co726 2.128 . S
N736 C737 1.355 . S
N736 C739 1.313 1_655 S
C737 N736 1.355 . S
C737 C738 1.363 . S
C737 H749 0.929 . S
C738 C737 1.363 . S
C738 N740 1.375 1_655 S
C738 H756 0.931 . S
C739 N736 1.313 1_455 S
C739 N740 1.347 . S
C739 H750 0.928 . S
N740 C738 1.375 1_455 S
N740 C739 1.347 . S
C741 C744 1.365 . S
C741 N746 1.328 . S
C741 H747 0.929 . S
C742 C743 1.362 . S
C742 C745 1.378 . S
C742 H757 0.936 . S
C743 C742 1.362 . S
C743 C744 1.366 . S
C744 C741 1.365 . S
C744 C743 1.366 . S
C744 H758 0.930 . S
C745 C742 1.378 . S
C745 N746 1.315 . S
C745 H748 0.939 . S
N746 Co726 2.194 . S
N746 C741 1.328 . S
N746 C745 1.315 . S
H747 C741 0.929 . S
H748 C745 0.939 . S
H749 C737 0.929 . S
H750 C739 0.928 . S
O751 Co726 2.351 . S
O751 C754 1.244 . S
O752 Co726 2.155 . S
O752 C754 1.240 . S
O753 Co726 2.096 . S
O753 C734 1.247 1_655 S
C754 O751 1.244 . S
C754 O752 1.240 . S
H755 C729 0.931 . S
H756 C738 0.931 . S
H757 C742 0.936 . S
H758 C744 0.930 . S
Co759 N763 2.148 . S
Co759 N769 2.128 . S
Co759 N779 2.194 . S
Co759 O784 2.351 . S
Co759 O785 2.155 . S
Co759 O786 2.096 . S
C760 N763 1.301 . S
C760 N764 1.328 . S
C760 H765 0.930 . S
C761 C762 1.333 . S
C761 N763 1.317 . S
C761 H766 0.930 . S
C762 C761 1.333 . S
C762 N764 1.350 . S
C762 H788 0.931 . S
N763 Co759 2.148 . S
N763 C760 1.301 . S
N763 C761 1.317 . S
N764 C760 1.328 . S
N764 C762 1.350 . S
H765 C760 0.930 . S
H766 C761 0.930 . S
C767 O768 1.224 . S
C767 O786 1.247 . S
O768 C767 1.224 . S
N769 Co759 2.128 . S
N769 C770 1.355 . S
N769 C772 1.311 . S
C770 N769 1.355 . S
C770 C771 1.363 . S
C770 H782 0.929 . S
C771 C770 1.363 . S
C771 N773 1.375 . S
C771 H789 0.931 . S
C772 N769 1.311 . S
C772 N773 1.347 . S
C772 H783 0.929 . S
N773 C771 1.375 . S
N773 C772 1.347 . S
C774 C777 1.365 . S
C774 N779 1.328 . S
C774 H780 0.929 . S
C775 C776 1.362 . S
C775 C778 1.378 . S
C775 H790 0.929 . S
C776 C775 1.362 . S
C776 C777 1.366 . S
C777 C774 1.365 . S
C777 C776 1.366 . S
C777 H791 0.930 . S
C778 C775 1.378 . S
C778 N779 1.315 . S
C778 H781 0.930 . S
N779 Co759 2.194 . S
N779 C774 1.328 . S
N779 C778 1.315 . S
H780 C774 0.929 . S
H781 C778 0.930 . S
H782 C770 0.929 . S
H783 C772 0.929 . S
O784 Co759 2.351 . S
O784 C787 1.244 . S
O785 Co759 2.155 . S
O785 C787 1.240 . S
O786 Co759 2.096 . S
O786 C767 1.247 . S
C787 O784 1.244 . S
C787 O785 1.240 . S
H788 C762 0.931 . S
H789 C771 0.931 . S
H790 C775 0.929 . S
H791 C777 0.930 . S
Co792 N796 2.148 . S
Co792 N802 2.128 . S
Co792 N812 2.194 . S
Co792 O817 2.351 . S
Co792 O818 2.155 . S
Co792 O819 2.096 . S
C793 N796 1.301 . S
C793 N797 1.328 . S
C793 H798 0.930 . S
C794 C795 1.333 . S
C794 N796 1.317 . S
C794 H799 0.930 . S
C795 C794 1.333 . S
C795 N797 1.350 . S
C795 H821 0.931 . S
N796 Co792 2.148 . S
N796 C793 1.301 . S
N796 C794 1.317 . S
N797 C793 1.328 . S
N797 C795 1.350 . S
H798 C793 0.930 . S
H799 C794 0.930 . S
C800 O801 1.224 . S
C800 O819 1.247 . S
O801 C800 1.224 . S
N802 Co792 2.128 . S
N802 C803 1.355 . S
N802 C805 1.311 . S
C803 N802 1.355 . S
C803 C804 1.363 . S
C803 H815 0.929 . S
C804 C803 1.363 . S
C804 N806 1.375 . S
C804 H822 0.931 . S
C805 N802 1.311 . S
C805 N806 1.347 . S
C805 H816 0.929 . S
N806 C804 1.375 . S
N806 C805 1.347 . S
C807 C810 1.365 . S
C807 N812 1.328 . S
C807 H813 0.929 . S
C808 C809 1.362 . S
C808 C811 1.378 . S
C808 H823 0.929 . S
C809 C808 1.362 . S
C809 C810 1.366 . S
C810 C807 1.365 . S
C810 C809 1.366 . S
C810 H824 0.930 . S
C811 C808 1.378 . S
C811 N812 1.315 . S
C811 H814 0.930 . S
N812 Co792 2.194 . S
N812 C807 1.328 . S
N812 C811 1.315 . S
H813 C807 0.929 . S
H814 C811 0.930 . S
H815 C803 0.929 . S
H816 C805 0.929 . S
O817 Co792 2.351 . S
O817 C820 1.244 . S
O818 Co792 2.155 . S
O818 C820 1.240 . S
O819 Co792 2.096 . S
O819 C800 1.247 . S
C820 O817 1.244 . S
C820 O818 1.240 . S
H821 C795 0.931 . S
H822 C804 0.931 . S
H823 C808 0.929 . S
H824 C810 0.930 . S
Co825 N829 2.148 . S
Co825 N835 2.128 . S
Co825 N845 2.194 . S
Co825 O850 2.351 . S
Co825 O851 2.155 . S
Co825 O852 2.096 . S
C826 N829 1.301 . S
C826 N830 1.328 . S
C826 H831 0.930 . S
C827 C828 1.333 . S
C827 N829 1.317 . S
C827 H832 0.930 . S
C828 C827 1.333 . S
C828 N830 1.350 . S
C828 H854 0.931 . S
N829 Co825 2.148 . S
N829 C826 1.301 . S
N829 C827 1.317 . S
N830 C826 1.328 . S
N830 C828 1.350 . S
H831 C826 0.930 . S
H832 C827 0.930 . S
C833 O834 1.224 . S
C833 O852 1.247 . S
O834 C833 1.224 . S
N835 Co825 2.128 . S
N835 C836 1.355 . S
N835 C838 1.311 . S
C836 N835 1.355 . S
C836 C837 1.363 . S
C836 H848 0.929 . S
C837 C836 1.363 . S
C837 N839 1.375 . S
C837 H855 0.931 . S
C838 N835 1.311 . S
C838 N839 1.347 . S
C838 H849 0.929 . S
N839 C837 1.375 . S
N839 C838 1.347 . S
C840 C843 1.365 . S
C840 N845 1.328 . S
C840 H846 0.929 . S
C841 C842 1.362 . S
C841 C844 1.378 . S
C841 H856 0.929 . S
C842 C841 1.362 . S
C842 C843 1.366 . S
C843 C840 1.365 . S
C843 C842 1.366 . S
C843 H857 0.930 . S
C844 C841 1.378 . S
C844 N845 1.315 . S
C844 H847 0.930 . S
N845 Co825 2.194 . S
N845 C840 1.328 . S
N845 C844 1.315 . S
H846 C840 0.929 . S
H847 C844 0.930 . S
H848 C836 0.929 . S
H849 C838 0.929 . S
O850 Co825 2.351 . S
O850 C853 1.244 . S
O851 Co825 2.155 . S
O851 C853 1.240 . S
O852 Co825 2.096 . S
O852 C833 1.247 . S
C853 O850 1.244 . S
C853 O851 1.240 . S
H854 C828 0.931 . S
H855 C837 0.931 . S
H856 C841 0.929 . S
H857 C843 0.930 . S
Co858 N862 2.148 . S
Co858 N868 2.128 . S
Co858 N878 2.194 . S
Co858 O883 2.351 . S
Co858 O884 2.155 . S
Co858 O885 2.096 . S
C859 N862 1.301 . S
C859 N863 1.328 . S
C859 H864 0.930 . S
C860 C861 1.333 . S
C860 N862 1.317 . S
C860 H865 0.930 . S
C861 C860 1.333 . S
C861 N863 1.350 . S
C861 H887 0.931 . S
N862 Co858 2.148 . S
N862 C859 1.301 . S
N862 C860 1.317 . S
N863 C859 1.328 . S
N863 C861 1.350 . S
H864 C859 0.930 . S
H865 C860 0.930 . S
C866 O867 1.224 . S
C866 O885 1.247 1_655 S
O867 C866 1.224 . S
N868 Co858 2.128 . S
N868 C869 1.355 . S
N868 C871 1.313 1_455 S
C869 N868 1.355 . S
C869 C870 1.363 . S
C869 H881 0.929 . S
C870 C869 1.363 . S
C870 N872 1.375 1_455 S
C870 H888 0.931 . S
C871 N868 1.313 1_655 S
C871 N872 1.347 . S
C871 H882 0.927 . S
N872 C870 1.375 1_655 S
N872 C871 1.347 . S
C873 C876 1.365 . S
C873 N878 1.328 . S
C873 H879 0.929 . S
C874 C875 1.362 . S
C874 C877 1.378 . S
C874 H889 0.936 . S
C875 C874 1.362 . S
C875 C876 1.366 . S
C876 C873 1.365 . S
C876 C875 1.366 . S
C876 H890 0.930 . S
C877 C874 1.378 . S
C877 N878 1.315 . S
C877 H880 0.939 . S
N878 Co858 2.194 . S
N878 C873 1.328 . S
N878 C877 1.315 . S
H879 C873 0.929 . S
H880 C877 0.939 . S
H881 C869 0.929 . S
H882 C871 0.927 . S
O883 Co858 2.351 . S
O883 C886 1.244 . S
O884 Co858 2.155 . S
O884 C886 1.240 . S
O885 Co858 2.096 . S
O885 C866 1.247 1_455 S
C886 O883 1.244 . S
C886 O884 1.240 . S
H887 C861 0.931 . S
H888 C870 0.931 . S
H889 C874 0.936 . S
H890 C876 0.930 . S
Co891 N895 2.148 . S
Co891 N901 2.128 . S
Co891 N911 2.194 . S
Co891 O916 2.351 . S
Co891 O917 2.155 . S
Co891 O918 2.096 . S
C892 N895 1.301 . S
C892 N896 1.328 . S
C892 H897 0.930 . S
C893 C894 1.333 . S
C893 N895 1.317 . S
C893 H898 0.930 . S
C894 C893 1.333 . S
C894 N896 1.350 . S
C894 H920 0.931 . S
N895 Co891 2.148 . S
N895 C892 1.301 . S
N895 C893 1.317 . S
N896 C892 1.328 . S
N896 C894 1.350 . S
H897 C892 0.930 . S
H898 C893 0.930 . S
C899 O900 1.224 . S
C899 O918 1.247 . S
O900 C899 1.224 . S
N901 Co891 2.128 . S
N901 C902 1.355 . S
N901 C904 1.311 . S
C902 N901 1.355 . S
C902 C903 1.363 . S
C902 H914 0.929 . S
C903 C902 1.363 . S
C903 N905 1.375 . S
C903 H921 0.931 . S
C904 N901 1.311 . S
C904 N905 1.347 . S
C904 H915 0.929 . S
N905 C903 1.375 . S
N905 C904 1.347 . S
C906 C909 1.365 . S
C906 N911 1.328 . S
C906 H912 0.929 . S
C907 C908 1.362 . S
C907 C910 1.378 . S
C907 H922 0.929 . S
C908 C907 1.362 . S
C908 C909 1.366 . S
C909 C906 1.365 . S
C909 C908 1.366 . S
C909 H923 0.930 . S
C910 C907 1.378 . S
C910 N911 1.315 . S
C910 H913 0.930 . S
N911 Co891 2.194 . S
N911 C906 1.328 . S
N911 C910 1.315 . S
H912 C906 0.929 . S
H913 C910 0.930 . S
H914 C902 0.929 . S
H915 C904 0.929 . S
O916 Co891 2.351 . S
O916 C919 1.244 . S
O917 Co891 2.155 . S
O917 C919 1.240 . S
O918 Co891 2.096 . S
O918 C899 1.247 . S
C919 O916 1.244 . S
C919 O917 1.240 . S
H920 C894 0.931 . S
H921 C903 0.931 . S
H922 C907 0.929 . S
H923 C909 0.930 . S
Co924 N928 2.148 . S
Co924 N934 2.128 . S
Co924 N944 2.194 . S
Co924 O949 2.351 . S
Co924 O950 2.155 . S
Co924 O951 2.096 . S
C925 N928 1.301 . S
C925 N929 1.328 . S
C925 H930 0.930 . S
C926 C927 1.333 . S
C926 N928 1.317 . S
C926 H931 0.930 . S
C927 C926 1.333 . S
C927 N929 1.350 . S
C927 H953 0.931 . S
N928 Co924 2.148 . S
N928 C925 1.301 . S
N928 C926 1.317 . S
N929 C925 1.328 . S
N929 C927 1.350 . S
H930 C925 0.930 . S
H931 C926 0.930 . S
C932 O933 1.224 . S
C932 O951 1.247 . S
O933 C932 1.224 . S
N934 Co924 2.128 . S
N934 C935 1.355 . S
N934 C937 1.311 . S
C935 N934 1.355 . S
C935 C936 1.363 . S
C935 H947 0.929 . S
C936 C935 1.363 . S
C936 N938 1.375 . S
C936 H954 0.931 . S
C937 N934 1.311 . S
C937 N938 1.347 . S
C937 H948 0.929 . S
N938 C936 1.375 . S
N938 C937 1.347 . S
C939 C942 1.365 . S
C939 N944 1.328 . S
C939 H945 0.929 . S
C940 C941 1.362 . S
C940 C943 1.378 . S
C940 H955 0.929 . S
C941 C940 1.362 . S
C941 C942 1.366 . S
C942 C939 1.365 . S
C942 C941 1.366 . S
C942 H956 0.930 . S
C943 C940 1.378 . S
C943 N944 1.315 . S
C943 H946 0.930 . S
N944 Co924 2.194 . S
N944 C939 1.328 . S
N944 C943 1.315 . S
H945 C939 0.929 . S
H946 C943 0.930 . S
H947 C935 0.929 . S
H948 C937 0.929 . S
O949 Co924 2.351 . S
O949 C952 1.244 . S
O950 Co924 2.155 . S
O950 C952 1.240 . S
O951 Co924 2.096 . S
O951 C932 1.247 . S
C952 O949 1.244 . S
C952 O950 1.240 . S
H953 C927 0.931 . S
H954 C936 0.931 . S
H955 C940 0.929 . S
H956 C942 0.930 . S
Co957 N961 2.148 . S
Co957 N967 2.128 . S
Co957 N977 2.194 . S
Co957 O982 2.351 . S
Co957 O983 2.155 . S
Co957 O984 2.096 . S
C958 N961 1.301 . S
C958 N962 1.328 . S
C958 H963 0.930 . S
C959 C960 1.333 . S
C959 N961 1.317 . S
C959 H964 0.930 . S
C960 C959 1.333 . S
C960 N962 1.350 . S
C960 H986 0.931 . S
N961 Co957 2.148 . S
N961 C958 1.301 . S
N961 C959 1.317 . S
N962 C958 1.328 . S
N962 C960 1.350 . S
H963 C958 0.930 . S
H964 C959 0.930 . S
C965 O966 1.224 . S
C965 O984 1.247 . S
O966 C965 1.224 . S
N967 Co957 2.128 . S
N967 C968 1.355 . S
N967 C970 1.311 . S
C968 N967 1.355 . S
C968 C969 1.363 . S
C968 H980 0.929 . S
C969 C968 1.363 . S
C969 N971 1.375 . S
C969 H987 0.931 . S
C970 N967 1.311 . S
C970 N971 1.347 . S
C970 H981 0.929 . S
N971 C969 1.375 . S
N971 C970 1.347 . S
C972 C975 1.365 . S
C972 N977 1.328 . S
C972 H978 0.929 . S
C973 C974 1.362 . S
C973 C976 1.378 . S
C973 H988 0.929 . S
C974 C973 1.362 . S
C974 C975 1.366 . S
C975 C972 1.365 . S
C975 C974 1.366 . S
C975 H989 0.930 . S
C976 C973 1.378 . S
C976 N977 1.315 . S
C976 H979 0.930 . S
N977 Co957 2.194 . S
N977 C972 1.328 . S
N977 C976 1.315 . S
H978 C972 0.929 . S
H979 C976 0.930 . S
H980 C968 0.929 . S
H981 C970 0.929 . S
O982 Co957 2.351 . S
O982 C985 1.244 . S
O983 Co957 2.155 . S
O983 C985 1.240 . S
O984 Co957 2.096 . S
O984 C965 1.247 . S
C985 O982 1.244 . S
C985 O983 1.240 . S
H986 C960 0.931 . S
H987 C969 0.931 . S
H988 C973 0.929 . S
H989 C975 0.930 . S
Co990 N994 2.148 . S
Co990 N1000 2.128 . S
Co990 N1010 2.194 . S
Co990 O1015 2.351 . S
Co990 O1016 2.155 . S
Co990 O1017 2.096 . S
C991 N994 1.301 . S
C991 N995 1.328 . S
C991 H996 0.930 . S
C992 C993 1.333 . S
C992 N994 1.317 . S
C992 H997 0.930 . S
C993 C992 1.333 . S
C993 N995 1.350 . S
C993 H1019 0.931 . S
N994 Co990 2.148 . S
N994 C991 1.301 . S
N994 C992 1.317 . S
N995 C991 1.328 . S
N995 C993 1.350 . S
H996 C991 0.930 . S
H997 C992 0.930 . S
C998 O999 1.224 . S
C998 O1017 1.247 1_655 S
O999 C998 1.224 . S
N1000 Co990 2.128 . S
N1000 C1001 1.355 . S
N1000 C1003 1.313 1_455 S
C1001 N1000 1.355 . S
C1001 C1002 1.363 . S
C1001 H1013 0.929 . S
C1002 C1001 1.363 . S
C1002 N1004 1.375 1_455 S
C1002 H1020 0.931 . S
C1003 N1000 1.313 1_655 S
C1003 N1004 1.347 . S
C1003 H1014 0.928 . S
N1004 C1002 1.375 1_655 S
N1004 C1003 1.347 . S
C1005 C1008 1.365 . S
C1005 N1010 1.328 . S
C1005 H1011 0.929 . S
C1006 C1007 1.362 . S
C1006 C1009 1.378 . S
C1006 H1021 0.936 . S
C1007 C1006 1.362 . S
C1007 C1008 1.366 . S
C1008 C1005 1.365 . S
C1008 C1007 1.366 . S
C1008 H1022 0.930 . S
C1009 C1006 1.378 . S
C1009 N1010 1.315 . S
C1009 H1012 0.939 . S
N1010 Co990 2.194 . S
N1010 C1005 1.328 . S
N1010 C1009 1.315 . S
H1011 C1005 0.929 . S
H1012 C1009 0.939 . S
H1013 C1001 0.929 . S
H1014 C1003 0.928 . S
O1015 Co990 2.351 . S
O1015 C1018 1.244 . S
O1016 Co990 2.155 . S
O1016 C1018 1.240 . S
O1017 Co990 2.096 . S
O1017 C998 1.247 1_455 S
C1018 O1015 1.244 . S
C1018 O1016 1.240 . S
H1019 C993 0.931 . S
H1020 C1002 0.931 . S
H1021 C1006 0.936 . S
H1022 C1008 0.930 . S
Co1023 N1027 2.148 . S
Co1023 N1033 2.128 . S
Co1023 N1043 2.194 . S
Co1023 O1048 2.351 . S
Co1023 O1049 2.155 . S
Co1023 O1050 2.096 . S
C1024 N1027 1.301 . S
C1024 N1028 1.328 . S
C1024 H1029 0.930 . S
C1025 C1026 1.333 . S
C1025 N1027 1.317 . S
C1025 H1030 0.930 . S
C1026 C1025 1.333 . S
C1026 N1028 1.350 . S
C1026 H1052 0.931 . S
N1027 Co1023 2.148 . S
N1027 C1024 1.301 . S
N1027 C1025 1.317 . S
N1028 C1024 1.328 . S
N1028 C1026 1.350 . S
H1029 C1024 0.930 . S
H1030 C1025 0.930 . S
C1031 O1032 1.224 . S
C1031 O1050 1.247 . S
O1032 C1031 1.224 . S
N1033 Co1023 2.128 . S
N1033 C1034 1.355 . S
N1033 C1036 1.311 . S
C1034 N1033 1.355 . S
C1034 C1035 1.363 . S
C1034 H1046 0.929 . S
C1035 C1034 1.363 . S
C1035 N1037 1.375 . S
C1035 H1053 0.931 . S
C1036 N1033 1.311 . S
C1036 N1037 1.347 . S
C1036 H1047 0.929 . S
N1037 C1035 1.375 . S
N1037 C1036 1.347 . S
C1038 C1041 1.365 . S
C1038 N1043 1.328 . S
C1038 H1044 0.929 . S
C1039 C1040 1.362 . S
C1039 C1042 1.378 . S
C1039 H1054 0.929 . S
C1040 C1039 1.362 . S
C1040 C1041 1.366 . S
C1041 C1038 1.365 . S
C1041 C1040 1.366 . S
C1041 H1055 0.930 . S
C1042 C1039 1.378 . S
C1042 N1043 1.315 . S
C1042 H1045 0.930 . S
N1043 Co1023 2.194 . S
N1043 C1038 1.328 . S
N1043 C1042 1.315 . S
H1044 C1038 0.929 . S
H1045 C1042 0.930 . S
H1046 C1034 0.929 . S
H1047 C1036 0.929 . S
O1048 Co1023 2.351 . S
O1048 C1051 1.244 . S
O1049 Co1023 2.155 . S
O1049 C1051 1.240 . S
O1050 Co1023 2.096 . S
O1050 C1031 1.247 . S
C1051 O1048 1.244 . S
C1051 O1049 1.240 . S
H1052 C1026 0.931 . S
H1053 C1035 0.931 . S
H1054 C1039 0.929 . S
H1055 C1041 0.930 . S
C1056 C1057 1.363 . S
C1056 C1062 1.379 . S
C1056 N1064 1.356 . S
C1057 C1056 1.363 . S
C1057 C1063 1.363 . S
C1058 C1059 1.363 . S
C1058 C1063 1.379 . S
C1058 N1065 1.356 . S
C1059 C1058 1.363 . S
C1059 C1062 1.363 . S
N1060 C1062 1.356 . S
N1060 H1072 0.984 . S
N1060 H1073 0.985 . S
N1061 C1063 1.356 . S
N1061 H1066 0.984 . S
N1061 H1067 0.985 . S
C1062 C1056 1.379 . S
C1062 C1059 1.363 . S
C1062 N1060 1.356 . S
C1063 C1057 1.363 . S
C1063 C1058 1.379 . S
C1063 N1061 1.356 . S
N1064 C1056 1.356 . S
N1064 H1070 0.984 . S
N1064 H1071 0.984 . S
N1065 C1058 1.356 . S
N1065 H1068 0.984 . S
N1065 H1069 0.985 . S
H1066 N1061 0.984 . S
H1067 N1061 0.985 . S
H1068 N1065 0.984 . S
H1069 N1065 0.985 . S
H1070 N1064 0.984 . S
H1071 N1064 0.984 . S
H1072 N1060 0.984 . S
H1073 N1060 0.985 . S
C1074 C1075 1.363 . S
C1074 C1080 1.379 . S
C1074 N1082 1.356 . S
C1075 C1074 1.363 . S
C1075 C1081 1.363 . S
C1076 C1077 1.363 . S
C1076 C1081 1.379 . S
C1076 N1083 1.356 . S
C1077 C1076 1.363 . S
C1077 C1080 1.363 . S
N1078 C1080 1.356 . S
N1078 H1090 0.984 . S
N1078 H1091 0.985 . S
N1079 C1081 1.356 . S
N1079 H1084 0.984 . S
N1079 H1085 0.985 . S
C1080 C1074 1.379 . S
C1080 C1077 1.363 . S
C1080 N1078 1.356 . S
C1081 C1075 1.363 . S
C1081 C1076 1.379 . S
C1081 N1079 1.356 . S
N1082 C1074 1.356 . S
N1082 H1088 0.982 1_455 S
N1082 H1089 0.984 1_455 S
N1083 C1076 1.356 . S
N1083 H1086 0.984 . S
N1083 H1087 0.985 . S
H1084 N1079 0.984 . S
H1085 N1079 0.985 . S
H1086 N1083 0.984 . S
H1087 N1083 0.985 . S
H1088 N1082 0.982 1_655 S
H1089 N1082 0.984 1_655 S
H1090 N1078 0.984 . S
H1091 N1078 0.985 . S
C1092 C1093 1.363 . S
C1092 C1098 1.379 . S
C1092 N1100 1.356 . S
C1093 C1092 1.363 . S
C1093 C1099 1.363 . S
C1094 C1095 1.363 . S
C1094 C1099 1.379 . S
C1094 N1101 1.356 . S
C1095 C1094 1.363 . S
C1095 C1098 1.363 . S
N1096 C1098 1.356 . S
N1096 H1108 0.984 . S
N1096 H1109 0.985 . S
N1097 C1099 1.356 . S
N1097 H1102 0.984 . S
N1097 H1103 0.985 . S
C1098 C1092 1.379 . S
C1098 C1095 1.363 . S
C1098 N1096 1.356 . S
C1099 C1093 1.363 . S
C1099 C1094 1.379 . S
C1099 N1097 1.356 . S
N1100 C1092 1.356 . S
N1100 H1106 0.984 . S
N1100 H1107 0.984 . S
N1101 C1094 1.356 . S
N1101 H1104 0.984 . S
N1101 H1105 0.985 . S
H1102 N1097 0.984 . S
H1103 N1097 0.985 . S
H1104 N1101 0.984 . S
H1105 N1101 0.985 . S
H1106 N1100 0.984 . S
H1107 N1100 0.984 . S
H1108 N1096 0.984 . S
H1109 N1096 0.985 . S
C1110 C1111 1.363 . S
C1110 C1116 1.379 . S
C1110 N1118 1.356 . S
C1111 C1110 1.363 . S
C1111 C1117 1.363 . S
C1112 C1113 1.363 . S
C1112 C1117 1.379 . S
C1112 N1119 1.356 . S
C1113 C1112 1.363 . S
C1113 C1116 1.363 . S
N1114 C1116 1.356 . S
N1114 H1126 0.984 . S
N1114 H1127 0.985 . S
N1115 C1117 1.356 . S
N1115 H1120 0.984 . S
N1115 H1121 0.985 . S
C1116 C1110 1.379 . S
C1116 C1113 1.363 . S
C1116 N1114 1.356 . S
C1117 C1111 1.363 . S
C1117 C1112 1.379 . S
C1117 N1115 1.356 . S
N1118 C1110 1.356 . S
N1118 H1124 0.984 . S
N1118 H1125 0.984 . S
N1119 C1112 1.356 . S
N1119 H1122 0.984 . S
N1119 H1123 0.985 1_545 S
H1120 N1115 0.984 . S
H1121 N1115 0.985 . S
H1122 N1119 0.984 . S
H1123 N1119 0.985 1_565 S
H1124 N1118 0.984 . S
H1125 N1118 0.984 . S
H1126 N1114 0.984 . S
H1127 N1114 0.985 . S
C1128 C1129 1.363 . S
C1128 C1134 1.379 . S
C1128 N1136 1.356 . S
C1129 C1128 1.363 . S
C1129 C1135 1.363 . S
C1130 C1131 1.363 . S
C1130 C1135 1.379 . S
C1130 N1137 1.356 . S
C1131 C1130 1.363 . S
C1131 C1134 1.363 . S
N1132 C1134 1.356 . S
N1132 H1144 0.984 . S
N1132 H1145 0.985 . S
N1133 C1135 1.356 . S
N1133 H1138 0.984 . S
N1133 H1139 0.985 . S
C1134 C1128 1.379 . S
C1134 C1131 1.363 . S
C1134 N1132 1.356 . S
C1135 C1129 1.363 . S
C1135 C1130 1.379 . S
C1135 N1133 1.356 . S
N1136 C1128 1.356 . S
N1136 H1142 0.984 . S
N1136 H1143 0.984 . S
N1137 C1130 1.356 . S
N1137 H1140 0.984 . S
N1137 H1141 0.985 . S
H1138 N1133 0.984 . S
H1139 N1133 0.985 . S
H1140 N1137 0.984 . S
H1141 N1137 0.985 . S
H1142 N1136 0.984 . S
H1143 N1136 0.984 . S
H1144 N1132 0.984 . S
H1145 N1132 0.985 . S
C1146 C1147 1.363 . S
C1146 C1152 1.379 . S
C1146 N1154 1.356 . S
C1147 C1146 1.363 . S
C1147 C1153 1.363 . S
C1148 C1149 1.363 . S
C1148 C1153 1.379 . S
C1148 N1155 1.356 . S
C1149 C1148 1.363 . S
C1149 C1152 1.363 . S
N1150 C1152 1.356 . S
N1150 H1162 0.984 . S
N1150 H1163 0.985 . S
N1151 C1153 1.356 . S
N1151 H1156 0.984 . S
N1151 H1157 0.985 . S
C1152 C1146 1.379 . S
C1152 C1149 1.363 . S
C1152 N1150 1.356 . S
C1153 C1147 1.363 . S
C1153 C1148 1.379 . S
C1153 N1151 1.356 . S
N1154 C1146 1.356 . S
N1154 H1160 0.984 . S
N1154 H1161 0.984 . S
N1155 C1148 1.356 . S
N1155 H1158 0.984 . S
N1155 H1159 0.985 . S
H1156 N1151 0.984 . S
H1157 N1151 0.985 . S
H1158 N1155 0.984 . S
H1159 N1155 0.985 . S
H1160 N1154 0.984 . S
H1161 N1154 0.984 . S
H1162 N1150 0.984 . S
H1163 N1150 0.985 . S
C1164 C1165 1.363 . S
C1164 C1170 1.379 . S
C1164 N1172 1.356 . S
C1165 C1164 1.363 . S
C1165 C1171 1.363 . S
C1166 C1167 1.363 . S
C1166 C1171 1.379 . S
C1166 N1173 1.356 . S
C1167 C1166 1.363 . S
C1167 C1170 1.363 . S
N1168 C1170 1.356 . S
N1168 H1180 0.984 . S
N1168 H1181 0.985 . S
N1169 C1171 1.356 . S
N1169 H1174 0.984 . S
N1169 H1175 0.985 . S
C1170 C1164 1.379 . S
C1170 C1167 1.363 . S
C1170 N1168 1.356 . S
C1171 C1165 1.363 . S
C1171 C1166 1.379 . S
C1171 N1169 1.356 . S
N1172 C1164 1.356 . S
N1172 H1178 0.984 . S
N1172 H1179 0.984 . S
N1173 C1166 1.356 . S
N1173 H1176 0.984 . S
N1173 H1177 0.985 . S
H1174 N1169 0.984 . S
H1175 N1169 0.985 . S
H1176 N1173 0.984 . S
H1177 N1173 0.985 . S
H1178 N1172 0.984 . S
H1179 N1172 0.984 . S
H1180 N1168 0.984 . S
H1181 N1168 0.985 . S
C1182 C1183 1.363 . S
C1182 C1188 1.379 . S
C1182 N1190 1.356 . S
C1183 C1182 1.363 . S
C1183 C1189 1.363 . S
C1184 C1185 1.363 . S
C1184 C1189 1.379 . S
C1184 N1191 1.356 . S
C1185 C1184 1.363 . S
C1185 C1188 1.363 . S
N1186 C1188 1.356 . S
N1186 H1198 0.984 . S
N1186 H1199 0.985 . S
N1187 C1189 1.356 . S
N1187 H1192 0.984 . S
N1187 H1193 0.985 . S
C1188 C1182 1.379 . S
C1188 C1185 1.363 . S
C1188 N1186 1.356 . S
C1189 C1183 1.363 . S
C1189 C1184 1.379 . S
C1189 N1187 1.356 . S
N1190 C1182 1.356 . S
N1190 H1196 0.984 . S
N1190 H1197 0.984 . S
N1191 C1184 1.356 . S
N1191 H1194 0.984 . S
N1191 H1195 0.985 . S
H1192 N1187 0.984 . S
H1193 N1187 0.985 . S
H1194 N1191 0.984 . S
H1195 N1191 0.985 . S
H1196 N1190 0.984 . S
H1197 N1190 0.984 . S
H1198 N1186 0.984 . S
H1199 N1186 0.985 . S
C1200 C1201 1.363 . S
C1200 C1206 1.379 . S
C1200 N1208 1.356 . S
C1201 C1200 1.363 . S
C1201 C1207 1.363 . S
C1202 C1203 1.363 . S
C1202 C1207 1.379 . S
C1202 N1209 1.356 . S
C1203 C1202 1.363 . S
C1203 C1206 1.363 . S
N1204 C1206 1.356 . S
N1204 H1216 0.984 . S
N1204 H1217 0.985 . S
N1205 C1207 1.356 . S
N1205 H1210 0.984 . S
N1205 H1211 0.985 . S
C1206 C1200 1.379 . S
C1206 C1203 1.363 . S
C1206 N1204 1.356 . S
C1207 C1201 1.363 . S
C1207 C1202 1.379 . S
C1207 N1205 1.356 . S
N1208 C1200 1.356 . S
N1208 H1214 0.984 . S
N1208 H1215 0.984 . S
N1209 C1202 1.356 . S
N1209 H1212 0.984 . S
N1209 H1213 0.985 . S
H1210 N1205 0.984 . S
H1211 N1205 0.985 . S
H1212 N1209 0.984 . S
H1213 N1209 0.985 . S
H1214 N1208 0.984 . S
H1215 N1208 0.984 . S
H1216 N1204 0.984 . S
H1217 N1204 0.985 . S
C1218 C1219 1.363 . S
C1218 C1224 1.379 . S
C1218 N1226 1.356 . S
C1219 C1218 1.363 . S
C1219 C1225 1.363 . S
C1220 C1221 1.363 . S
C1220 C1225 1.379 . S
C1220 N1227 1.356 . S
C1221 C1220 1.363 . S
C1221 C1224 1.363 . S
N1222 C1224 1.356 . S
N1222 H1234 0.984 . S
N1222 H1235 0.985 . S
N1223 C1225 1.356 . S
N1223 H1228 0.984 . S
N1223 H1229 0.985 . S
C1224 C1218 1.379 . S
C1224 C1221 1.363 . S
C1224 N1222 1.356 . S
C1225 C1219 1.363 . S
C1225 C1220 1.379 . S
C1225 N1223 1.356 . S
N1226 C1218 1.356 . S
N1226 H1232 0.984 . S
N1226 H1233 0.984 . S
N1227 C1220 1.356 . S
N1227 H1230 0.984 . S
N1227 H1231 0.985 . S
H1228 N1223 0.984 . S
H1229 N1223 0.985 . S
H1230 N1227 0.984 . S
H1231 N1227 0.985 . S
H1232 N1226 0.984 . S
H1233 N1226 0.984 . S
H1234 N1222 0.984 . S
H1235 N1222 0.985 . S
C1236 C1237 1.363 . S
C1236 C1242 1.379 . S
C1236 N1244 1.356 . S
C1237 C1236 1.363 . S
C1237 C1243 1.363 . S
C1238 C1239 1.363 . S
C1238 C1243 1.379 . S
C1238 N1245 1.356 . S
C1239 C1238 1.363 . S
C1239 C1242 1.363 . S
N1240 C1242 1.356 . S
N1240 H1252 0.984 . S
N1240 H1253 0.985 . S
N1241 C1243 1.356 . S
N1241 H1246 0.984 . S
N1241 H1247 0.985 . S
C1242 C1236 1.379 . S
C1242 C1239 1.363 . S
C1242 N1240 1.356 . S
C1243 C1237 1.363 . S
C1243 C1238 1.379 . S
C1243 N1241 1.356 . S
N1244 C1236 1.356 . S
N1244 H1250 0.984 . S
N1244 H1251 0.984 . S
N1245 C1238 1.356 . S
N1245 H1248 0.984 . S
N1245 H1249 0.985 . S
H1246 N1241 0.984 . S
H1247 N1241 0.985 . S
H1248 N1245 0.984 . S
H1249 N1245 0.985 . S
H1250 N1244 0.984 . S
H1251 N1244 0.984 . S
H1252 N1240 0.984 . S
H1253 N1240 0.985 . S
C1254 C1255 1.363 . S
C1254 C1260 1.379 . S
C1254 N1262 1.356 . S
C1255 C1254 1.363 . S
C1255 C1261 1.363 . S
C1256 C1257 1.363 . S
C1256 C1261 1.379 . S
C1256 N1263 1.356 . S
C1257 C1256 1.363 . S
C1257 C1260 1.363 . S
N1258 C1260 1.356 . S
N1258 H1270 0.984 . S
N1258 H1271 0.985 . S
N1259 C1261 1.356 . S
N1259 H1264 0.984 . S
N1259 H1265 0.985 . S
C1260 C1254 1.379 . S
C1260 C1257 1.363 . S
C1260 N1258 1.356 . S
C1261 C1255 1.363 . S
C1261 C1256 1.379 . S
C1261 N1259 1.356 . S
N1262 C1254 1.356 . S
N1262 H1268 0.984 . S
N1262 H1269 0.984 . S
N1263 C1256 1.356 . S
N1263 H1266 0.984 . S
N1263 H1267 0.985 . S
H1264 N1259 0.984 . S
H1265 N1259 0.985 . S
H1266 N1263 0.984 . S
H1267 N1263 0.985 . S
H1268 N1262 0.984 . S
H1269 N1262 0.984 . S
H1270 N1258 0.984 . S
H1271 N1258 0.985 . S
C1272 C1273 1.363 . S
C1272 C1278 1.379 . S
C1272 N1280 1.356 . S
C1273 C1272 1.363 . S
C1273 C1279 1.363 . S
C1274 C1275 1.363 . S
C1274 C1279 1.379 . S
C1274 N1281 1.356 . S
C1275 C1274 1.363 . S
C1275 C1278 1.363 . S
N1276 C1278 1.356 . S
N1276 H1288 0.984 . S
N1276 H1289 0.985 . S
N1277 C1279 1.356 . S
N1277 H1282 0.984 . S
N1277 H1283 0.985 . S
C1278 C1272 1.379 . S
C1278 C1275 1.363 . S
C1278 N1276 1.356 . S
C1279 C1273 1.363 . S
C1279 C1274 1.379 . S
C1279 N1277 1.356 . S
N1280 C1272 1.356 . S
N1280 H1286 0.984 . S
N1280 H1287 0.984 . S
N1281 C1274 1.356 . S
N1281 H1284 0.984 . S
N1281 H1285 0.985 . S
H1282 N1277 0.984 . S
H1283 N1277 0.985 . S
H1284 N1281 0.984 . S
H1285 N1281 0.985 . S
H1286 N1280 0.984 . S
H1287 N1280 0.984 . S
H1288 N1276 0.984 . S
H1289 N1276 0.985 . S
C1290 C1291 1.363 . S
C1290 C1296 1.379 . S
C1290 N1298 1.356 . S
C1291 C1290 1.363 . S
C1291 C1297 1.363 . S
C1292 C1293 1.363 . S
C1292 C1297 1.379 . S
C1292 N1299 1.356 . S
C1293 C1292 1.363 . S
C1293 C1296 1.363 . S
N1294 C1296 1.356 . S
N1294 H1306 0.984 . S
N1294 H1307 0.985 . S
N1295 C1297 1.356 . S
N1295 H1300 0.984 . S
N1295 H1301 0.985 . S
C1296 C1290 1.379 . S
C1296 C1293 1.363 . S
C1296 N1294 1.356 . S
C1297 C1291 1.363 . S
C1297 C1292 1.379 . S
C1297 N1295 1.356 . S
N1298 C1290 1.356 . S
N1298 H1304 0.984 . S
N1298 H1305 0.984 . S
N1299 C1292 1.356 . S
N1299 H1302 0.984 . S
N1299 H1303 0.985 . S
H1300 N1295 0.984 . S
H1301 N1295 0.985 . S
H1302 N1299 0.984 . S
H1303 N1299 0.985 . S
H1304 N1298 0.984 . S
H1305 N1298 0.984 . S
H1306 N1294 0.984 . S
H1307 N1294 0.985 . S
C1308 C1309 1.363 . S
C1308 C1314 1.379 . S
C1308 N1316 1.356 . S
C1309 C1308 1.363 . S
C1309 C1315 1.363 . S
C1310 C1311 1.363 . S
C1310 C1315 1.379 . S
C1310 N1317 1.356 . S
C1311 C1310 1.363 . S
C1311 C1314 1.363 . S
N1312 C1314 1.356 . S
N1312 H1324 0.984 . S
N1312 H1325 0.985 . S
N1313 C1315 1.356 . S
N1313 H1318 0.984 . S
N1313 H1319 0.985 . S
C1314 C1308 1.379 . S
C1314 C1311 1.363 . S
C1314 N1312 1.356 . S
C1315 C1309 1.363 . S
C1315 C1310 1.379 . S
C1315 N1313 1.356 . S
N1316 C1308 1.356 . S
N1316 H1322 0.984 . S
N1316 H1323 0.984 . S
N1317 C1310 1.356 . S
N1317 H1320 0.984 . S
N1317 H1321 0.985 . S
H1318 N1313 0.984 . S
H1319 N1313 0.985 . S
H1320 N1317 0.984 . S
H1321 N1317 0.985 . S
H1322 N1316 0.984 . S
H1323 N1316 0.984 . S
H1324 N1312 0.984 . S
H1325 N1312 0.985 . S
C1326 C1327 1.363 . S
C1326 C1332 1.379 . S
C1326 N1334 1.356 . S
C1327 C1326 1.363 . S
C1327 C1333 1.363 . S
C1328 C1329 1.363 . S
C1328 C1333 1.379 . S
C1328 N1335 1.356 . S
C1329 C1328 1.363 . S
C1329 C1332 1.363 . S
N1330 C1332 1.356 . S
N1330 H1342 0.984 . S
N1330 H1343 0.985 . S
N1331 C1333 1.356 . S
N1331 H1336 0.984 . S
N1331 H1337 0.985 1_565 S
C1332 C1326 1.379 . S
C1332 C1329 1.363 . S
C1332 N1330 1.356 . S
C1333 C1327 1.363 . S
C1333 C1328 1.379 . S
C1333 N1331 1.356 . S
N1334 C1326 1.356 . S
N1334 H1340 0.984 . S
N1334 H1341 0.984 . S
N1335 C1328 1.356 . S
N1335 H1338 0.984 . S
N1335 H1339 0.985 . S
H1336 N1331 0.984 . S
H1337 N1331 0.985 1_545 S
H1338 N1335 0.984 . S
H1339 N1335 0.985 . S
H1340 N1334 0.984 . S
H1341 N1334 0.984 . S
H1342 N1330 0.984 . S
H1343 N1330 0.985 . S
C1344 C1345 1.363 . S
C1344 C1350 1.379 . S
C1344 N1352 1.356 . S
C1345 C1344 1.363 . S
C1345 C1351 1.363 . S
C1346 C1347 1.363 . S
C1346 C1351 1.379 . S
C1346 N1353 1.356 . S
C1347 C1346 1.363 . S
C1347 C1350 1.363 . S
N1348 C1350 1.356 . S
N1348 H1360 0.984 . S
N1348 H1361 0.985 . S
N1349 C1351 1.356 . S
N1349 H1354 0.984 . S
N1349 H1355 0.985 . S
C1350 C1344 1.379 . S
C1350 C1347 1.363 . S
C1350 N1348 1.356 . S
C1351 C1345 1.363 . S
C1351 C1346 1.379 . S
C1351 N1349 1.356 . S
N1352 C1344 1.356 . S
N1352 H1358 0.984 . S
N1352 H1359 0.984 . S
N1353 C1346 1.356 . S
N1353 H1356 0.984 . S
N1353 H1357 0.985 . S
H1354 N1349 0.984 . S
H1355 N1349 0.985 . S
H1356 N1353 0.984 . S
H1357 N1353 0.985 . S
H1358 N1352 0.984 . S
H1359 N1352 0.984 . S
H1360 N1348 0.984 . S
H1361 N1348 0.985 . S
C1362 C1363 1.363 . S
C1362 C1368 1.379 . S
C1362 N1370 1.356 . S
C1363 C1362 1.363 . S
C1363 C1369 1.363 . S
C1364 C1365 1.363 . S
C1364 C1369 1.379 . S
C1364 N1371 1.356 . S
C1365 C1364 1.363 . S
C1365 C1368 1.363 . S
N1366 C1368 1.356 . S
N1366 H1378 0.984 . S
N1366 H1379 0.985 . S
N1367 C1369 1.356 . S
N1367 H1372 0.984 . S
N1367 H1373 0.985 . S
C1368 C1362 1.379 . S
C1368 C1365 1.363 . S
C1368 N1366 1.356 . S
C1369 C1363 1.363 . S
C1369 C1364 1.379 . S
C1369 N1367 1.356 . S
N1370 C1362 1.356 . S
N1370 H1376 0.984 . S
N1370 H1377 0.984 . S
N1371 C1364 1.356 . S
N1371 H1374 0.984 . S
N1371 H1375 0.985 . S
H1372 N1367 0.984 . S
H1373 N1367 0.985 . S
H1374 N1371 0.984 . S
H1375 N1371 0.985 . S
H1376 N1370 0.984 . S
H1377 N1370 0.984 . S
H1378 N1366 0.984 . S
H1379 N1366 0.985 . S
C1380 C1381 1.363 . S
C1380 C1386 1.379 . S
C1380 N1388 1.356 . S
C1381 C1380 1.363 . S
C1381 C1387 1.363 . S
C1382 C1383 1.363 . S
C1382 C1387 1.379 . S
C1382 N1389 1.356 . S
C1383 C1382 1.363 . S
C1383 C1386 1.363 . S
N1384 C1386 1.356 . S
N1384 H1396 0.984 . S
N1384 H1397 0.985 . S
N1385 C1387 1.356 . S
N1385 H1390 0.984 . S
N1385 H1391 0.985 . S
C1386 C1380 1.379 . S
C1386 C1383 1.363 . S
C1386 N1384 1.356 . S
C1387 C1381 1.363 . S
C1387 C1382 1.379 . S
C1387 N1385 1.356 . S
N1388 C1380 1.356 . S
N1388 H1394 0.984 . S
N1388 H1395 0.984 . S
N1389 C1382 1.356 . S
N1389 H1392 0.984 . S
N1389 H1393 0.985 . S
H1390 N1385 0.984 . S
H1391 N1385 0.985 . S
H1392 N1389 0.984 . S
H1393 N1389 0.985 . S
H1394 N1388 0.984 . S
H1395 N1388 0.984 . S
H1396 N1384 0.984 . S
H1397 N1384 0.985 . S
C1398 C1399 1.363 . S
C1398 C1404 1.379 . S
C1398 N1406 1.356 . S
C1399 C1398 1.363 . S
C1399 C1405 1.363 . S
C1400 C1401 1.363 . S
C1400 C1405 1.379 . S
C1400 N1407 1.356 . S
C1401 C1400 1.363 . S
C1401 C1404 1.363 . S
N1402 C1404 1.356 . S
N1402 H1414 0.984 . S
N1402 H1415 0.985 . S
N1403 C1405 1.356 . S
N1403 H1408 0.984 . S
N1403 H1409 0.985 . S
C1404 C1398 1.379 . S
C1404 C1401 1.363 . S
C1404 N1402 1.356 . S
C1405 C1399 1.363 . S
C1405 C1400 1.379 . S
C1405 N1403 1.356 . S
N1406 C1398 1.356 . S
N1406 H1412 0.984 . S
N1406 H1413 0.984 . S
N1407 C1400 1.356 . S
N1407 H1410 0.984 . S
N1407 H1411 0.985 . S
H1408 N1403 0.984 . S
H1409 N1403 0.985 . S
H1410 N1407 0.984 . S
H1411 N1407 0.985 . S
H1412 N1406 0.984 . S
H1413 N1406 0.984 . S
H1414 N1402 0.984 . S
H1415 N1402 0.985 . S
C1416 C1417 1.363 . S
C1416 C1422 1.379 . S
C1416 N1424 1.356 . S
C1417 C1416 1.363 . S
C1417 C1423 1.363 . S
C1418 C1419 1.363 . S
C1418 C1423 1.379 . S
C1418 N1425 1.356 . S
C1419 C1418 1.363 . S
C1419 C1422 1.363 . S
N1420 C1422 1.356 . S
N1420 H1432 0.984 . S
N1420 H1433 0.985 . S
N1421 C1423 1.356 . S
N1421 H1426 0.984 . S
N1421 H1427 0.985 . S
C1422 C1416 1.379 . S
C1422 C1419 1.363 . S
C1422 N1420 1.356 . S
C1423 C1417 1.363 . S
C1423 C1418 1.379 . S
C1423 N1421 1.356 . S
N1424 C1416 1.356 . S
N1424 H1430 0.984 . S
N1424 H1431 0.984 . S
N1425 C1418 1.356 . S
N1425 H1428 0.984 . S
N1425 H1429 0.985 . S
H1426 N1421 0.984 . S
H1427 N1421 0.985 . S
H1428 N1425 0.984 . S
H1429 N1425 0.985 . S
H1430 N1424 0.984 . S
H1431 N1424 0.984 . S
H1432 N1420 0.984 . S
H1433 N1420 0.985 . S
C1434 C1435 1.363 . S
C1434 C1440 1.379 . S
C1434 N1442 1.356 . S
C1435 C1434 1.363 . S
C1435 C1441 1.363 . S
C1436 C1437 1.363 . S
C1436 C1441 1.379 . S
C1436 N1443 1.356 . S
C1437 C1436 1.363 . S
C1437 C1440 1.363 . S
N1438 C1440 1.356 . S
N1438 H1450 0.984 . S
N1438 H1451 0.985 . S
N1439 C1441 1.356 . S
N1439 H1444 0.984 . S
N1439 H1445 0.985 . S
C1440 C1434 1.379 . S
C1440 C1437 1.363 . S
C1440 N1438 1.356 . S
C1441 C1435 1.363 . S
C1441 C1436 1.379 . S
C1441 N1439 1.356 . S
N1442 C1434 1.356 . S
N1442 H1448 0.984 . S
N1442 H1449 0.984 . S
N1443 C1436 1.356 . S
N1443 H1446 0.984 . S
N1443 H1447 0.985 . S
H1444 N1439 0.984 . S
H1445 N1439 0.985 . S
H1446 N1443 0.984 . S
H1447 N1443 0.985 . S
H1448 N1442 0.984 . S
H1449 N1442 0.984 . S
H1450 N1438 0.984 . S
H1451 N1438 0.985 . S
C1452 C1453 1.363 . S
C1452 C1458 1.379 . S
C1452 N1460 1.356 . S
C1453 C1452 1.363 . S
C1453 C1459 1.363 . S
C1454 C1455 1.363 . S
C1454 C1459 1.379 . S
C1454 N1461 1.356 . S
C1455 C1454 1.363 . S
C1455 C1458 1.363 . S
N1456 C1458 1.356 . S
N1456 H1468 0.984 . S
N1456 H1469 0.985 . S
N1457 C1459 1.356 . S
N1457 H1462 0.984 . S
N1457 H1463 0.985 . S
C1458 C1452 1.379 . S
C1458 C1455 1.363 . S
C1458 N1456 1.356 . S
C1459 C1453 1.363 . S
C1459 C1454 1.379 . S
C1459 N1457 1.356 . S
N1460 C1452 1.356 . S
N1460 H1466 0.984 . S
N1460 H1467 0.984 . S
N1461 C1454 1.356 . S
N1461 H1464 0.984 . S
N1461 H1465 0.985 . S
H1462 N1457 0.984 . S
H1463 N1457 0.985 . S
H1464 N1461 0.984 . S
H1465 N1461 0.985 . S
H1466 N1460 0.984 . S
H1467 N1460 0.984 . S
H1468 N1456 0.984 . S
H1469 N1456 0.985 . S
C1470 C1471 1.363 . S
C1470 C1476 1.379 . S
C1470 N1478 1.356 . S
C1471 C1470 1.363 . S
C1471 C1477 1.363 . S
C1472 C1473 1.363 . S
C1472 C1477 1.379 . S
C1472 N1479 1.356 . S
C1473 C1472 1.363 . S
C1473 C1476 1.363 . S
N1474 C1476 1.356 . S
N1474 H1486 0.984 . S
N1474 H1487 0.985 . S
N1475 C1477 1.356 . S
N1475 H1480 0.984 . S
N1475 H1481 0.985 . S
C1476 C1470 1.379 . S
C1476 C1473 1.363 . S
C1476 N1474 1.356 . S
C1477 C1471 1.363 . S
C1477 C1472 1.379 . S
C1477 N1475 1.356 . S
N1478 C1470 1.356 . S
N1478 H1484 0.984 . S
N1478 H1485 0.984 . S
N1479 C1472 1.356 . S
N1479 H1482 0.984 . S
N1479 H1483 0.985 . S
H1480 N1475 0.984 . S
H1481 N1475 0.985 . S
H1482 N1479 0.984 . S
H1483 N1479 0.985 . S
H1484 N1478 0.984 . S
H1485 N1478 0.984 . S
H1486 N1474 0.984 . S
H1487 N1474 0.985 . S
C1488 C1489 1.363 . S
C1488 C1494 1.379 . S
C1488 N1496 1.356 . S
C1489 C1488 1.363 . S
C1489 C1495 1.363 . S
C1490 C1491 1.363 . S
C1490 C1495 1.379 . S
C1490 N1497 1.356 . S
C1491 C1490 1.363 . S
C1491 C1494 1.363 . S
N1492 C1494 1.356 . S
N1492 H1504 0.984 . S
N1492 H1505 0.985 . S
N1493 C1495 1.356 . S
N1493 H1498 0.984 . S
N1493 H1499 0.985 . S
C1494 C1488 1.379 . S
C1494 C1491 1.363 . S
C1494 N1492 1.356 . S
C1495 C1489 1.363 . S
C1495 C1490 1.379 . S
C1495 N1493 1.356 . S
N1496 C1488 1.356 . S
N1496 H1502 0.984 . S
N1496 H1503 0.984 . S
N1497 C1490 1.356 . S
N1497 H1500 0.984 . S
N1497 H1501 0.985 . S
H1498 N1493 0.984 . S
H1499 N1493 0.985 . S
H1500 N1497 0.984 . S
H1501 N1497 0.985 . S
H1502 N1496 0.984 . S
H1503 N1496 0.984 . S
H1504 N1492 0.984 . S
H1505 N1492 0.985 . S
C1506 C1507 1.363 . S
C1506 C1512 1.379 . S
C1506 N1514 1.356 . S
C1507 C1506 1.363 . S
C1507 C1513 1.363 . S
C1508 C1509 1.363 . S
C1508 C1513 1.379 . S
C1508 N1515 1.356 . S
C1509 C1508 1.363 . S
C1509 C1512 1.363 . S
N1510 C1512 1.356 . S
N1510 H1522 0.984 . S
N1510 H1523 0.985 . S
N1511 C1513 1.356 . S
N1511 H1516 0.984 . S
N1511 H1517 0.985 . S
C1512 C1506 1.379 . S
C1512 C1509 1.363 . S
C1512 N1510 1.356 . S
C1513 C1507 1.363 . S
C1513 C1508 1.379 . S
C1513 N1511 1.356 . S
N1514 C1506 1.356 . S
N1514 H1520 0.984 . S
N1514 H1521 0.984 . S
N1515 C1508 1.356 . S
N1515 H1518 0.984 . S
N1515 H1519 0.985 . S
H1516 N1511 0.984 . S
H1517 N1511 0.985 . S
H1518 N1515 0.984 . S
H1519 N1515 0.985 . S
H1520 N1514 0.984 . S
H1521 N1514 0.984 . S
H1522 N1510 0.984 . S
H1523 N1510 0.985 . S
C1524 C1525 1.363 . S
C1524 C1530 1.379 . S
C1524 N1532 1.356 . S
C1525 C1524 1.363 . S
C1525 C1531 1.363 . S
C1526 C1527 1.363 . S
C1526 C1531 1.379 . S
C1526 N1533 1.356 . S
C1527 C1526 1.363 . S
C1527 C1530 1.363 . S
N1528 C1530 1.356 . S
N1528 H1540 0.984 . S
N1528 H1541 0.985 . S
N1529 C1531 1.356 . S
N1529 H1534 0.984 . S
N1529 H1535 0.985 . S
C1530 C1524 1.379 . S
C1530 C1527 1.363 . S
C1530 N1528 1.356 . S
C1531 C1525 1.363 . S
C1531 C1526 1.379 . S
C1531 N1529 1.356 . S
N1532 C1524 1.356 . S
N1532 H1538 0.984 . S
N1532 H1539 0.984 . S
N1533 C1526 1.356 . S
N1533 H1536 0.984 . S
N1533 H1537 0.985 . S
H1534 N1529 0.984 . S
H1535 N1529 0.985 . S
H1536 N1533 0.984 . S
H1537 N1533 0.985 . S
H1538 N1532 0.984 . S
H1539 N1532 0.984 . S
H1540 N1528 0.984 . S
H1541 N1528 0.985 . S
C1542 C1543 1.363 . S
C1542 C1548 1.379 . S
C1542 N1550 1.356 . S
C1543 C1542 1.363 . S
C1543 C1549 1.363 . S
C1544 C1545 1.363 . S
C1544 C1549 1.379 . S
C1544 N1551 1.356 . S
C1545 C1544 1.363 . S
C1545 C1548 1.363 . S
N1546 C1548 1.356 . S
N1546 H1558 0.984 . S
N1546 H1559 0.985 . S
N1547 C1549 1.356 . S
N1547 H1552 0.984 . S
N1547 H1553 0.985 . S
C1548 C1542 1.379 . S
C1548 C1545 1.363 . S
C1548 N1546 1.356 . S
C1549 C1543 1.363 . S
C1549 C1544 1.379 . S
C1549 N1547 1.356 . S
N1550 C1542 1.356 . S
N1550 H1556 0.984 . S
N1550 H1557 0.984 . S
N1551 C1544 1.356 . S
N1551 H1554 0.984 . S
N1551 H1555 0.985 . S
H1552 N1547 0.984 . S
H1553 N1547 0.985 . S
H1554 N1551 0.984 . S
H1555 N1551 0.985 . S
H1556 N1550 0.984 . S
H1557 N1550 0.984 . S
H1558 N1546 0.984 . S
H1559 N1546 0.985 . S
C1560 C1561 1.363 . S
C1560 C1566 1.379 . S
C1560 N1568 1.356 . S
C1561 C1560 1.363 . S
C1561 C1567 1.363 . S
C1562 C1563 1.363 . S
C1562 C1567 1.379 . S
C1562 N1569 1.356 . S
C1563 C1562 1.363 . S
C1563 C1566 1.363 . S
N1564 C1566 1.356 . S
N1564 H1576 0.984 . S
N1564 H1577 0.985 . S
N1565 C1567 1.356 . S
N1565 H1570 0.984 . S
N1565 H1571 0.985 . S
C1566 C1560 1.379 . S
C1566 C1563 1.363 . S
C1566 N1564 1.356 . S
C1567 C1561 1.363 . S
C1567 C1562 1.379 . S
C1567 N1565 1.356 . S
N1568 C1560 1.356 . S
N1568 H1574 0.984 . S
N1568 H1575 0.984 . S
N1569 C1562 1.356 . S
N1569 H1572 0.984 . S
N1569 H1573 0.985 . S
H1570 N1565 0.984 . S
H1571 N1565 0.985 . S
H1572 N1569 0.984 . S
H1573 N1569 0.985 . S
H1574 N1568 0.984 . S
H1575 N1568 0.984 . S
H1576 N1564 0.984 . S
H1577 N1564 0.985 . S
C1578 C1579 1.363 . S
C1578 C1584 1.379 . S
C1578 N1586 1.356 . S
C1579 C1578 1.363 . S
C1579 C1585 1.363 . S
C1580 C1581 1.363 . S
C1580 C1585 1.379 . S
C1580 N1587 1.356 . S
C1581 C1580 1.363 . S
C1581 C1584 1.363 . S
N1582 C1584 1.356 . S
N1582 H1594 0.984 . S
N1582 H1595 0.985 . S
N1583 C1585 1.356 . S
N1583 H1588 0.984 . S
N1583 H1589 0.985 . S
C1584 C1578 1.379 . S
C1584 C1581 1.363 . S
C1584 N1582 1.356 . S
C1585 C1579 1.363 . S
C1585 C1580 1.379 . S
C1585 N1583 1.356 . S
N1586 C1578 1.356 . S
N1586 H1592 0.984 . S
N1586 H1593 0.984 . S
N1587 C1580 1.356 . S
N1587 H1590 0.984 . S
N1587 H1591 0.985 . S
H1588 N1583 0.984 . S
H1589 N1583 0.985 . S
H1590 N1587 0.984 . S
H1591 N1587 0.985 . S
H1592 N1586 0.984 . S
H1593 N1586 0.984 . S
H1594 N1582 0.984 . S
H1595 N1582 0.985 . S
C1596 C1597 1.363 . S
C1596 C1602 1.379 . S
C1596 N1604 1.356 . S
C1597 C1596 1.363 . S
C1597 C1603 1.363 . S
C1598 C1599 1.363 . S
C1598 C1603 1.379 . S
C1598 N1605 1.356 . S
C1599 C1598 1.363 . S
C1599 C1602 1.363 . S
N1600 C1602 1.356 . S
N1600 H1612 0.984 . S
N1600 H1613 0.985 . S
N1601 C1603 1.356 . S
N1601 H1606 0.984 . S
N1601 H1607 0.985 . S
C1602 C1596 1.379 . S
C1602 C1599 1.363 . S
C1602 N1600 1.356 . S
C1603 C1597 1.363 . S
C1603 C1598 1.379 . S
C1603 N1601 1.356 . S
N1604 C1596 1.356 . S
N1604 H1610 0.984 . S
N1604 H1611 0.984 . S
N1605 C1598 1.356 . S
N1605 H1608 0.984 . S
N1605 H1609 0.985 . S
H1606 N1601 0.984 . S
H1607 N1601 0.985 . S
H1608 N1605 0.984 . S
H1609 N1605 0.985 . S
H1610 N1604 0.984 . S
H1611 N1604 0.984 . S
H1612 N1600 0.984 . S
H1613 N1600 0.985 . S
C1614 C1615 1.363 . S
C1614 C1620 1.379 . S
C1614 N1622 1.356 . S
C1615 C1614 1.363 . S
C1615 C1621 1.363 . S
C1616 C1617 1.363 . S
C1616 C1621 1.379 . S
C1616 N1623 1.356 . S
C1617 C1616 1.363 . S
C1617 C1620 1.363 . S
N1618 C1620 1.356 . S
N1618 H1630 0.984 . S
N1618 H1631 0.985 . S
N1619 C1621 1.356 . S
N1619 H1624 0.984 . S
N1619 H1625 0.985 . S
C1620 C1614 1.379 . S
C1620 C1617 1.363 . S
C1620 N1618 1.356 . S
C1621 C1615 1.363 . S
C1621 C1616 1.379 . S
C1621 N1619 1.356 . S
N1622 C1614 1.356 . S
N1622 H1628 0.984 . S
N1622 H1629 0.984 . S
N1623 C1616 1.356 . S
N1623 H1626 0.984 . S
N1623 H1627 0.985 . S
H1624 N1619 0.984 . S
H1625 N1619 0.985 . S
H1626 N1623 0.984 . S
H1627 N1623 0.985 . S
H1628 N1622 0.984 . S
H1629 N1622 0.984 . S
H1630 N1618 0.984 . S
H1631 N1618 0.985 . S
C1632 C1633 1.363 . S
C1632 C1638 1.379 . S
C1632 N1640 1.356 . S
C1633 C1632 1.363 . S
C1633 C1639 1.363 . S
C1634 C1635 1.363 . S
C1634 C1639 1.379 . S
C1634 N1641 1.356 . S
C1635 C1634 1.363 . S
C1635 C1638 1.363 . S
N1636 C1638 1.356 . S
N1636 H1648 0.984 . S
N1636 H1649 0.985 . S
N1637 C1639 1.356 . S
N1637 H1642 0.984 1_565 S
N1637 H1643 0.985 1_565 S
C1638 C1632 1.379 . S
C1638 C1635 1.363 . S
C1638 N1636 1.356 . S
C1639 C1633 1.363 . S
C1639 C1634 1.379 . S
C1639 N1637 1.356 . S
N1640 C1632 1.356 . S
N1640 H1646 0.984 . S
N1640 H1647 0.984 . S
N1641 C1634 1.356 . S
N1641 H1644 0.984 . S
N1641 H1645 0.985 . S
H1642 N1637 0.984 1_545 S
H1643 N1637 0.985 1_545 S
H1644 N1641 0.984 . S
H1645 N1641 0.985 . S
H1646 N1640 0.984 . S
H1647 N1640 0.984 . S
H1648 N1636 0.984 . S
H1649 N1636 0.985 . S
C1650 C1651 1.363 . S
C1650 C1656 1.379 . S
C1650 N1658 1.356 . S
C1651 C1650 1.363 . S
C1651 C1657 1.363 . S
C1652 C1653 1.363 . S
C1652 C1657 1.379 . S
C1652 N1659 1.356 . S
C1653 C1652 1.363 . S
C1653 C1656 1.363 . S
N1654 C1656 1.356 . S
N1654 H1666 0.984 . S
N1654 H1667 0.985 . S
N1655 C1657 1.356 . S
N1655 H1660 0.984 . S
N1655 H1661 0.985 . S
C1656 C1650 1.379 . S
C1656 C1653 1.363 . S
C1656 N1654 1.356 . S
C1657 C1651 1.363 . S
C1657 C1652 1.379 . S
C1657 N1655 1.356 . S
N1658 C1650 1.356 . S
N1658 H1664 0.984 . S
N1658 H1665 0.984 . S
N1659 C1652 1.356 . S
N1659 H1662 0.984 . S
N1659 H1663 0.985 . S
H1660 N1655 0.984 . S
H1661 N1655 0.985 . S
H1662 N1659 0.984 . S
H1663 N1659 0.985 . S
H1664 N1658 0.984 . S
H1665 N1658 0.984 . S
H1666 N1654 0.984 . S
H1667 N1654 0.985 . S
C1668 C1669 1.363 . S
C1668 C1674 1.379 . S
C1668 N1676 1.356 . S
C1669 C1668 1.363 . S
C1669 C1675 1.363 . S
C1670 C1671 1.363 . S
C1670 C1675 1.379 . S
C1670 N1677 1.356 . S
C1671 C1670 1.363 . S
C1671 C1674 1.363 . S
N1672 C1674 1.356 . S
N1672 H1684 0.984 . S
N1672 H1685 0.985 . S
N1673 C1675 1.356 . S
N1673 H1678 0.984 . S
N1673 H1679 0.985 . S
C1674 C1668 1.379 . S
C1674 C1671 1.363 . S
C1674 N1672 1.356 . S
C1675 C1669 1.363 . S
C1675 C1670 1.379 . S
C1675 N1673 1.356 . S
N1676 C1668 1.356 . S
N1676 H1682 0.984 . S
N1676 H1683 0.984 . S
N1677 C1670 1.356 . S
N1677 H1680 0.984 . S
N1677 H1681 0.985 . S
H1678 N1673 0.984 . S
H1679 N1673 0.985 . S
H1680 N1677 0.984 . S
H1681 N1677 0.985 . S
H1682 N1676 0.984 . S
H1683 N1676 0.984 . S
H1684 N1672 0.984 . S
H1685 N1672 0.985 . S
C1686 C1687 1.363 . S
C1686 C1692 1.379 . S
C1686 N1694 1.356 . S
C1687 C1686 1.363 . S
C1687 C1693 1.363 . S
C1688 C1689 1.363 . S
C1688 C1693 1.379 . S
C1688 N1695 1.356 . S
C1689 C1688 1.363 . S
C1689 C1692 1.363 . S
N1690 C1692 1.356 . S
N1690 H1702 0.984 . S
N1690 H1703 0.985 . S
N1691 C1693 1.356 . S
N1691 H1696 0.984 . S
N1691 H1697 0.985 . S
C1692 C1686 1.379 . S
C1692 C1689 1.363 . S
C1692 N1690 1.356 . S
C1693 C1687 1.363 . S
C1693 C1688 1.379 . S
C1693 N1691 1.356 . S
N1694 C1686 1.356 . S
N1694 H1700 0.984 . S
N1694 H1701 0.984 . S
N1695 C1688 1.356 . S
N1695 H1698 0.984 . S
N1695 H1699 0.985 . S
H1696 N1691 0.984 . S
H1697 N1691 0.985 . S
H1698 N1695 0.984 . S
H1699 N1695 0.985 . S
H1700 N1694 0.984 . S
H1701 N1694 0.984 . S
H1702 N1690 0.984 . S
H1703 N1690 0.985 . S
C1704 C1705 1.363 . S
C1704 C1710 1.379 . S
C1704 N1712 1.356 . S
C1705 C1704 1.363 . S
C1705 C1711 1.363 . S
C1706 C1707 1.363 . S
C1706 C1711 1.379 . S
C1706 N1713 1.356 . S
C1707 C1706 1.363 . S
C1707 C1710 1.363 . S
N1708 C1710 1.356 . S
N1708 H1720 0.984 . S
N1708 H1721 0.985 . S
N1709 C1711 1.356 . S
N1709 H1714 0.984 . S
N1709 H1715 0.985 . S
C1710 C1704 1.379 . S
C1710 C1707 1.363 . S
C1710 N1708 1.356 . S
C1711 C1705 1.363 . S
C1711 C1706 1.379 . S
C1711 N1709 1.356 . S
N1712 C1704 1.356 . S
N1712 H1718 0.984 1_545 S
N1712 H1719 0.984 1_545 S
N1713 C1706 1.356 . S
N1713 H1716 0.984 . S
N1713 H1717 0.985 . S
H1714 N1709 0.984 . S
H1715 N1709 0.985 . S
H1716 N1713 0.984 . S
H1717 N1713 0.985 . S
H1718 N1712 0.984 1_565 S
H1719 N1712 0.984 1_565 S
H1720 N1708 0.984 . S
H1721 N1708 0.985 . S
C1722 C1723 1.363 . S
C1722 C1728 1.379 . S
C1722 N1730 1.356 . S
C1723 C1722 1.363 . S
C1723 C1729 1.363 . S
C1724 C1725 1.363 . S
C1724 C1729 1.379 . S
C1724 N1731 1.356 . S
C1725 C1724 1.363 . S
C1725 C1728 1.363 . S
N1726 C1728 1.356 . S
N1726 H1738 0.984 1_545 S
N1726 H1739 0.975 1_545 S
N1727 C1729 1.356 . S
N1727 H1732 0.984 . S
N1727 H1733 0.985 . S
C1728 C1722 1.379 . S
C1728 C1725 1.363 . S
C1728 N1726 1.356 . S
C1729 C1723 1.363 . S
C1729 C1724 1.379 . S
C1729 N1727 1.356 . S
N1730 C1722 1.356 . S
N1730 H1736 0.984 . S
N1730 H1737 0.984 . S
N1731 C1724 1.356 . S
N1731 H1734 0.984 . S
N1731 H1735 0.985 . S
H1732 N1727 0.984 . S
H1733 N1727 0.985 . S
H1734 N1731 0.984 . S
H1735 N1731 0.985 . S
H1736 N1730 0.984 . S
H1737 N1730 0.984 . S
H1738 N1726 0.984 1_565 S
H1739 N1726 0.975 1_565 S
C1740 C1741 1.363 . S
C1740 C1746 1.379 . S
C1740 N1748 1.356 . S
C1741 C1740 1.363 . S
C1741 C1747 1.363 . S
C1742 C1743 1.363 . S
C1742 C1747 1.379 . S
C1742 N1749 1.356 . S
C1743 C1742 1.363 . S
C1743 C1746 1.363 . S
N1744 C1746 1.356 . S
N1744 H1756 0.984 . S
N1744 H1757 0.985 . S
N1745 C1747 1.356 . S
N1745 H1750 0.984 . S
N1745 H1751 0.985 . S
C1746 C1740 1.379 . S
C1746 C1743 1.363 . S
C1746 N1744 1.356 . S
C1747 C1741 1.363 . S
C1747 C1742 1.379 . S
C1747 N1745 1.356 . S
N1748 C1740 1.356 . S
N1748 H1754 0.984 1_565 S
N1748 H1755 0.976 1_565 S
N1749 C1742 1.356 . S
N1749 H1752 0.984 . S
N1749 H1753 0.985 . S
H1750 N1745 0.984 . S
H1751 N1745 0.985 . S
H1752 N1749 0.984 . S
H1753 N1749 0.985 . S
H1754 N1748 0.984 1_545 S
H1755 N1748 0.976 1_545 S
H1756 N1744 0.984 . S
H1757 N1744 0.985 . S
C1758 C1759 1.363 . S
C1758 C1764 1.379 . S
C1758 N1766 1.356 . S
C1759 C1758 1.363 . S
C1759 C1765 1.363 . S
C1760 C1761 1.363 . S
C1760 C1765 1.379 . S
C1760 N1767 1.356 . S
C1761 C1760 1.363 . S
C1761 C1764 1.363 . S
N1762 C1764 1.356 . S
N1762 H1774 0.984 . S
N1762 H1775 0.985 . S
N1763 C1765 1.356 . S
N1763 H1768 0.984 . S
N1763 H1769 0.985 . S
C1764 C1758 1.379 . S
C1764 C1761 1.363 . S
C1764 N1762 1.356 . S
C1765 C1759 1.363 . S
C1765 C1760 1.379 . S
C1765 N1763 1.356 . S
N1766 C1758 1.356 . S
N1766 H1772 0.984 . S
N1766 H1773 0.984 . S
N1767 C1760 1.356 . S
N1767 H1770 0.984 . S
N1767 H1771 0.985 . S
H1768 N1763 0.984 . S
H1769 N1763 0.985 . S
H1770 N1767 0.984 . S
H1771 N1767 0.985 . S
H1772 N1766 0.984 . S
H1773 N1766 0.984 . S
H1774 N1762 0.984 . S
H1775 N1762 0.985 . S
C1776 C1777 1.363 . S
C1776 C1782 1.379 . S
C1776 N1784 1.356 . S
C1777 C1776 1.363 . S
C1777 C1783 1.363 . S
C1778 C1779 1.363 . S
C1778 C1783 1.379 . S
C1778 N1785 1.356 . S
C1779 C1778 1.363 . S
C1779 C1782 1.363 . S
N1780 C1782 1.356 . S
N1780 H1792 0.984 . S
N1780 H1793 0.985 . S
N1781 C1783 1.356 . S
N1781 H1786 0.984 . S
N1781 H1787 0.985 . S
C1782 C1776 1.379 . S
C1782 C1779 1.363 . S
C1782 N1780 1.356 . S
C1783 C1777 1.363 . S
C1783 C1778 1.379 . S
C1783 N1781 1.356 . S
N1784 C1776 1.356 . S
N1784 H1790 0.984 . S
N1784 H1791 0.984 . S
N1785 C1778 1.356 . S
N1785 H1788 0.984 . S
N1785 H1789 0.985 . S
H1786 N1781 0.984 . S
H1787 N1781 0.985 . S
H1788 N1785 0.984 . S
H1789 N1785 0.985 . S
H1790 N1784 0.984 . S
H1791 N1784 0.984 . S
H1792 N1780 0.984 . S
H1793 N1780 0.985 . S
C1794 C1795 1.363 . S
C1794 C1800 1.379 . S
C1794 N1802 1.356 . S
C1795 C1794 1.363 . S
C1795 C1801 1.363 . S
C1796 C1797 1.363 . S
C1796 C1801 1.379 . S
C1796 N1803 1.356 . S
C1797 C1796 1.363 . S
C1797 C1800 1.363 . S
N1798 C1800 1.356 . S
N1798 H1810 0.984 . S
N1798 H1811 0.985 . S
N1799 C1801 1.356 . S
N1799 H1804 0.984 . S
N1799 H1805 0.985 . S
C1800 C1794 1.379 . S
C1800 C1797 1.363 . S
C1800 N1798 1.356 . S
C1801 C1795 1.363 . S
C1801 C1796 1.379 . S
C1801 N1799 1.356 . S
N1802 C1794 1.356 . S
N1802 H1808 0.984 . S
N1802 H1809 0.984 . S
N1803 C1796 1.356 . S
N1803 H1806 0.984 . S
N1803 H1807 0.985 . S
H1804 N1799 0.984 . S
H1805 N1799 0.985 . S
H1806 N1803 0.984 . S
H1807 N1803 0.985 . S
H1808 N1802 0.984 . S
H1809 N1802 0.984 . S
H1810 N1798 0.984 . S
H1811 N1798 0.985 . S
C1812 C1813 1.363 . S
C1812 C1818 1.379 . S
C1812 N1820 1.356 . S
C1813 C1812 1.363 . S
C1813 C1819 1.363 . S
C1814 C1815 1.363 . S
C1814 C1819 1.379 . S
C1814 N1821 1.356 . S
C1815 C1814 1.363 . S
C1815 C1818 1.363 . S
N1816 C1818 1.356 . S
N1816 H1828 0.984 . S
N1816 H1829 0.985 . S
N1817 C1819 1.356 . S
N1817 H1822 0.984 . S
N1817 H1823 0.985 . S
C1818 C1812 1.379 . S
C1818 C1815 1.363 . S
C1818 N1816 1.356 . S
C1819 C1813 1.363 . S
C1819 C1814 1.379 . S
C1819 N1817 1.356 . S
N1820 C1812 1.356 . S
N1820 H1826 0.984 . S
N1820 H1827 0.984 . S
N1821 C1814 1.356 . S
N1821 H1824 0.984 . S
N1821 H1825 0.985 . S
H1822 N1817 0.984 . S
H1823 N1817 0.985 . S
H1824 N1821 0.984 . S
H1825 N1821 0.985 . S
H1826 N1820 0.984 . S
H1827 N1820 0.984 . S
H1828 N1816 0.984 . S
H1829 N1816 0.985 . S
C1830 C1831 1.363 . S
C1830 C1836 1.379 . S
C1830 N1838 1.356 . S
C1831 C1830 1.363 . S
C1831 C1837 1.363 . S
C1832 C1833 1.363 . S
C1832 C1837 1.379 . S
C1832 N1839 1.356 . S
C1833 C1832 1.363 . S
C1833 C1836 1.363 . S
N1834 C1836 1.356 . S
N1834 H1846 0.984 . S
N1834 H1847 0.985 . S
N1835 C1837 1.356 . S
N1835 H1840 0.984 . S
N1835 H1841 0.985 . S
C1836 C1830 1.379 . S
C1836 C1833 1.363 . S
C1836 N1834 1.356 . S
C1837 C1831 1.363 . S
C1837 C1832 1.379 . S
C1837 N1835 1.356 . S
N1838 C1830 1.356 . S
N1838 H1844 0.984 . S
N1838 H1845 0.984 . S
N1839 C1832 1.356 . S
N1839 H1842 0.984 . S
N1839 H1843 0.985 . S
H1840 N1835 0.984 . S
H1841 N1835 0.985 . S
H1842 N1839 0.984 . S
H1843 N1839 0.985 . S
H1844 N1838 0.984 . S
H1845 N1838 0.984 . S
H1846 N1834 0.984 . S
H1847 N1834 0.985 . S
C1848 C1849 1.363 . S
C1848 C1854 1.379 . S
C1848 N1856 1.356 . S
C1849 C1848 1.363 . S
C1849 C1855 1.363 . S
C1850 C1851 1.363 . S
C1850 C1855 1.379 . S
C1850 N1857 1.356 . S
C1851 C1850 1.363 . S
C1851 C1854 1.363 . S
N1852 C1854 1.356 . S
N1852 H1864 0.984 . S
N1852 H1865 0.985 . S
N1853 C1855 1.356 . S
N1853 H1858 0.984 . S
N1853 H1859 0.985 . S
C1854 C1848 1.379 . S
C1854 C1851 1.363 . S
C1854 N1852 1.356 . S
C1855 C1849 1.363 . S
C1855 C1850 1.379 . S
C1855 N1853 1.356 . S
N1856 C1848 1.356 . S
N1856 H1862 0.984 . S
N1856 H1863 0.984 . S
N1857 C1850 1.356 . S
N1857 H1860 0.984 . S
N1857 H1861 0.985 . S
H1858 N1853 0.984 . S
H1859 N1853 0.985 . S
H1860 N1857 0.984 . S
H1861 N1857 0.985 . S
H1862 N1856 0.984 . S
H1863 N1856 0.984 . S
H1864 N1852 0.984 . S
H1865 N1852 0.985 . S
C1866 C1867 1.363 . S
C1866 C1872 1.379 . S
C1866 N1874 1.356 . S
C1867 C1866 1.363 . S
C1867 C1873 1.363 . S
C1868 C1869 1.363 . S
C1868 C1873 1.379 . S
C1868 N1875 1.356 . S
C1869 C1868 1.363 . S
C1869 C1872 1.363 . S
N1870 C1872 1.356 . S
N1870 H1882 0.984 . S
N1870 H1883 0.985 . S
N1871 C1873 1.356 . S
N1871 H1876 0.984 . S
N1871 H1877 0.985 . S
C1872 C1866 1.379 . S
C1872 C1869 1.363 . S
C1872 N1870 1.356 . S
C1873 C1867 1.363 . S
C1873 C1868 1.379 . S
C1873 N1871 1.356 . S
N1874 C1866 1.356 . S
N1874 H1880 0.984 . S
N1874 H1881 0.984 . S
N1875 C1868 1.356 . S
N1875 H1878 0.984 . S
N1875 H1879 0.985 . S
H1876 N1871 0.984 . S
H1877 N1871 0.985 . S
H1878 N1875 0.984 . S
H1879 N1875 0.985 . S
H1880 N1874 0.984 . S
H1881 N1874 0.984 . S
H1882 N1870 0.984 . S
H1883 N1870 0.985 . S
C1884 C1885 1.363 . S
C1884 C1890 1.379 . S
C1884 N1892 1.356 . S
C1885 C1884 1.363 . S
C1885 C1891 1.363 . S
C1886 C1887 1.363 . S
C1886 C1891 1.379 . S
C1886 N1893 1.356 . S
C1887 C1886 1.363 . S
C1887 C1890 1.363 . S
N1888 C1890 1.356 . S
N1888 H1900 0.984 . S
N1888 H1901 0.985 . S
N1889 C1891 1.356 . S
N1889 H1894 0.984 . S
N1889 H1895 0.985 . S
C1890 C1884 1.379 . S
C1890 C1887 1.363 . S
C1890 N1888 1.356 . S
C1891 C1885 1.363 . S
C1891 C1886 1.379 . S
C1891 N1889 1.356 . S
N1892 C1884 1.356 . S
N1892 H1898 0.984 . S
N1892 H1899 0.984 . S
N1893 C1886 1.356 . S
N1893 H1896 0.984 . S
N1893 H1897 0.985 . S
H1894 N1889 0.984 . S
H1895 N1889 0.985 . S
H1896 N1893 0.984 . S
H1897 N1893 0.985 . S
H1898 N1892 0.984 . S
H1899 N1892 0.984 . S
H1900 N1888 0.984 . S
H1901 N1888 0.985 . S
C1902 C1903 1.363 . S
C1902 C1908 1.379 . S
C1902 N1910 1.356 . S
C1903 C1902 1.363 . S
C1903 C1909 1.363 . S
C1904 C1905 1.363 . S
C1904 C1909 1.379 . S
C1904 N1911 1.356 . S
C1905 C1904 1.363 . S
C1905 C1908 1.363 . S
N1906 C1908 1.356 . S
N1906 H1918 0.984 . S
N1906 H1919 0.985 . S
N1907 C1909 1.356 . S
N1907 H1912 0.984 . S
N1907 H1913 0.985 . S
C1908 C1902 1.379 . S
C1908 C1905 1.363 . S
C1908 N1906 1.356 . S
C1909 C1903 1.363 . S
C1909 C1904 1.379 . S
C1909 N1907 1.356 . S
N1910 C1902 1.356 . S
N1910 H1916 0.984 . S
N1910 H1917 0.984 . S
N1911 C1904 1.356 . S
N1911 H1914 0.984 . S
N1911 H1915 0.985 . S
H1912 N1907 0.984 . S
H1913 N1907 0.985 . S
H1914 N1911 0.984 . S
H1915 N1911 0.985 . S
H1916 N1910 0.984 . S
H1917 N1910 0.984 . S
H1918 N1906 0.984 . S
H1919 N1906 0.985 . S
C1920 C1921 1.363 . S
C1920 C1926 1.379 . S
C1920 N1928 1.356 . S
C1921 C1920 1.363 . S
C1921 C1927 1.363 1_545 S
C1922 C1923 1.363 . S
C1922 C1927 1.379 . S
C1922 N1929 1.356 . S
C1923 C1922 1.363 . S
C1923 C1926 1.363 1_565 S
N1924 C1926 1.356 . S
N1924 H1936 0.984 . S
N1924 H1937 0.985 . S
N1925 C1927 1.356 . S
N1925 H1930 0.984 . S
N1925 H1931 0.985 . S
C1926 C1920 1.379 . S
C1926 C1923 1.363 1_545 S
C1926 N1924 1.356 . S
C1927 C1921 1.363 1_565 S
C1927 C1922 1.379 . S
C1927 N1925 1.356 . S
N1928 C1920 1.356 . S
N1928 H1934 0.984 . S
N1928 H1935 0.984 . S
N1929 C1922 1.356 . S
N1929 H1932 0.984 . S
N1929 H1933 0.985 . S
H1930 N1925 0.984 . S
H1931 N1925 0.985 . S
H1932 N1929 0.984 . S
H1933 N1929 0.985 . S
H1934 N1928 0.984 . S
H1935 N1928 0.984 . S
H1936 N1924 0.984 . S
H1937 N1924 0.985 . S
C1938 C1939 1.363 . S
C1938 C1944 1.379 . S
C1938 N1946 1.356 . S
C1939 C1938 1.363 . S
C1939 C1945 1.363 . S
C1940 C1941 1.363 . S
C1940 C1945 1.379 . S
C1940 N1947 1.356 . S
C1941 C1940 1.363 . S
C1941 C1944 1.363 . S
N1942 C1944 1.356 . S
N1942 H1954 0.984 . S
N1942 H1955 0.985 . S
N1943 C1945 1.356 . S
N1943 H1948 0.984 . S
N1943 H1949 0.985 . S
C1944 C1938 1.379 . S
C1944 C1941 1.363 . S
C1944 N1942 1.356 . S
C1945 C1939 1.363 . S
C1945 C1940 1.379 . S
C1945 N1943 1.356 . S
N1946 C1938 1.356 . S
N1946 H1952 0.984 . S
N1946 H1953 0.984 . S
N1947 C1940 1.356 . S
N1947 H1950 0.984 . S
N1947 H1951 0.985 . S
H1948 N1943 0.984 . S
H1949 N1943 0.985 . S
H1950 N1947 0.984 . S
H1951 N1947 0.985 . S
H1952 N1946 0.984 . S
H1953 N1946 0.984 . S
H1954 N1942 0.984 . S
H1955 N1942 0.985 . S
C1956 C1957 1.363 . S
C1956 C1962 1.379 . S
C1956 N1964 1.356 . S
C1957 C1956 1.363 . S
C1957 C1963 1.363 1_545 S
C1958 C1959 1.363 . S
C1958 C1963 1.379 . S
C1958 N1965 1.356 . S
C1959 C1958 1.363 . S
C1959 C1962 1.363 1_565 S
N1960 C1962 1.356 . S
N1960 H1972 0.984 . S
N1960 H1973 0.985 . S
N1961 C1963 1.356 . S
N1961 H1966 0.984 . S
N1961 H1967 0.985 . S
C1962 C1956 1.379 . S
C1962 C1959 1.363 1_545 S
C1962 N1960 1.356 . S
C1963 C1957 1.363 1_565 S
C1963 C1958 1.379 . S
C1963 N1961 1.356 . S
N1964 C1956 1.356 . S
N1964 H1970 0.984 . S
N1964 H1971 0.984 . S
N1965 C1958 1.356 . S
N1965 H1968 0.984 . S
N1965 H1969 0.985 . S
H1966 N1961 0.984 . S
H1967 N1961 0.985 . S
H1968 N1965 0.984 . S
H1969 N1965 0.985 . S
H1970 N1964 0.984 . S
H1971 N1964 0.984 . S
H1972 N1960 0.984 . S
H1973 N1960 0.985 . S
C1974 C1975 1.363 . S
C1974 C1980 1.379 1_556 S
C1974 N1982 1.356 . S
C1975 C1974 1.363 . S
C1975 C1981 1.363 . S
C1976 C1977 1.363 . S
C1976 C1981 1.379 1_554 S
C1976 N1983 1.356 . S
C1977 C1976 1.363 . S
C1977 C1980 1.363 . S
N1978 C1980 1.356 . S
N1978 H1990 0.984 . S
N1978 H1991 0.985 . S
N1979 C1981 1.356 . S
N1979 H1984 0.984 . S
N1979 H1985 0.985 . S
C1980 C1974 1.379 1_554 S
C1980 C1977 1.363 . S
C1980 N1978 1.356 . S
C1981 C1975 1.363 . S
C1981 C1976 1.379 1_556 S
C1981 N1979 1.356 . S
N1982 C1974 1.356 . S
N1982 H1988 0.984 . S
N1982 H1989 0.984 . S
N1983 C1976 1.356 . S
N1983 H1986 0.984 . S
N1983 H1987 0.985 . S
H1984 N1979 0.984 . S
H1985 N1979 0.985 . S
H1986 N1983 0.984 . S
H1987 N1983 0.985 . S
H1988 N1982 0.984 . S
H1989 N1982 0.984 . S
H1990 N1978 0.984 . S
H1991 N1978 0.985 . S
C1992 C1993 1.363 . S
C1992 C1998 1.379 . S
C1992 N2000 1.356 . S
C1993 C1992 1.363 . S
C1993 C1999 1.363 1_565 S
C1994 C1995 1.363 . S
C1994 C1999 1.379 . S
C1994 N2001 1.356 . S
C1995 C1994 1.363 . S
C1995 C1998 1.363 1_545 S
N1996 C1998 1.356 . S
N1996 H2008 0.984 . S
N1996 H2009 0.985 . S
N1997 C1999 1.356 . S
N1997 H2002 0.984 . S
N1997 H2003 0.985 1_655 S
C1998 C1992 1.379 . S
C1998 C1995 1.363 1_565 S
C1998 N1996 1.356 . S
C1999 C1993 1.363 1_545 S
C1999 C1994 1.379 . S
C1999 N1997 1.356 . S
N2000 C1992 1.356 . S
N2000 H2006 0.984 . S
N2000 H2007 0.984 . S
N2001 C1994 1.356 . S
N2001 H2004 0.984 . S
N2001 H2005 0.985 1_655 S
H2002 N1997 0.984 . S
H2003 N1997 0.985 1_455 S
H2004 N2001 0.984 . S
H2005 N2001 0.985 1_455 S
H2006 N2000 0.984 . S
H2007 N2000 0.984 . S
H2008 N1996 0.984 . S
H2009 N1996 0.985 . S
C2010 C2011 1.363 . S
C2010 C2016 1.379 . S
C2010 N2018 1.356 . S
C2011 C2010 1.363 . S
C2011 C2017 1.363 . S
C2012 C2013 1.363 . S
C2012 C2017 1.379 . S
C2012 N2019 1.356 . S
C2013 C2012 1.363 . S
C2013 C2016 1.363 . S
N2014 C2016 1.356 . S
N2014 H2026 0.984 . S
N2014 H2027 0.985 . S
N2015 C2017 1.356 . S
N2015 H2020 0.984 . S
N2015 H2021 0.985 . S
C2016 C2010 1.379 . S
C2016 C2013 1.363 . S
C2016 N2014 1.356 . S
C2017 C2011 1.363 . S
C2017 C2012 1.379 . S
C2017 N2015 1.356 . S
N2018 C2010 1.356 . S
N2018 H2024 0.984 . S
N2018 H2025 0.984 . S
N2019 C2012 1.356 . S
N2019 H2022 0.984 . S
N2019 H2023 0.985 . S
H2020 N2015 0.984 . S
H2021 N2015 0.985 . S
H2022 N2019 0.984 . S
H2023 N2019 0.985 . S
H2024 N2018 0.984 . S
H2025 N2018 0.984 . S
H2026 N2014 0.984 . S
H2027 N2014 0.985 . S
C2028 C2029 1.363 . S
C2028 C2034 1.379 . S
C2028 N2036 1.356 . S
C2029 C2028 1.363 . S
C2029 C2035 1.363 1_545 S
C2030 C2031 1.363 . S
C2030 C2035 1.379 . S
C2030 N2037 1.356 . S
C2031 C2030 1.363 . S
C2031 C2034 1.363 1_565 S
N2032 C2034 1.356 . S
N2032 H2044 0.984 . S
N2032 H2045 0.985 . S
N2033 C2035 1.356 . S
N2033 H2038 0.984 . S
N2033 H2039 0.985 . S
C2034 C2028 1.379 . S
C2034 C2031 1.363 1_545 S
C2034 N2032 1.356 . S
C2035 C2029 1.363 1_565 S
C2035 C2030 1.379 . S
C2035 N2033 1.356 . S
N2036 C2028 1.356 . S
N2036 H2042 0.984 . S
N2036 H2043 0.984 . S
N2037 C2030 1.356 . S
N2037 H2040 0.984 . S
N2037 H2041 0.985 . S
H2038 N2033 0.984 . S
H2039 N2033 0.985 . S
H2040 N2037 0.984 . S
H2041 N2037 0.985 . S
H2042 N2036 0.984 . S
H2043 N2036 0.984 . S
H2044 N2032 0.984 . S
H2045 N2032 0.985 . S
C2046 C2047 1.363 . S
C2046 C2052 1.379 1_554 S
C2046 N2054 1.356 . S
C2047 C2046 1.363 . S
C2047 C2053 1.363 . S
C2048 C2049 1.363 . S
C2048 C2053 1.379 1_556 S
C2048 N2055 1.356 . S
C2049 C2048 1.363 . S
C2049 C2052 1.363 . S
N2050 C2052 1.356 . S
N2050 H2062 0.984 . S
N2050 H2063 0.985 . S
N2051 C2053 1.356 . S
N2051 H2056 0.984 . S
N2051 H2057 0.985 . S
C2052 C2046 1.379 1_556 S
C2052 C2049 1.363 . S
C2052 N2050 1.356 . S
C2053 C2047 1.363 . S
C2053 C2048 1.379 1_554 S
C2053 N2051 1.356 . S
N2054 C2046 1.356 . S
N2054 H2060 0.984 . S
N2054 H2061 0.984 . S
N2055 C2048 1.356 . S
N2055 H2058 0.984 . S
N2055 H2059 0.985 . S
H2056 N2051 0.984 . S
H2057 N2051 0.985 . S
H2058 N2055 0.984 . S
H2059 N2055 0.985 . S
H2060 N2054 0.984 . S
H2061 N2054 0.984 . S
H2062 N2050 0.984 . S
H2063 N2050 0.985 . S
C2064 C2065 1.363 . S
C2064 C2070 1.379 . S
C2064 N2072 1.356 . S
C2065 C2064 1.363 . S
C2065 C2071 1.363 . S
C2066 C2067 1.363 . S
C2066 C2071 1.379 . S
C2066 N2073 1.356 . S
C2067 C2066 1.363 . S
C2067 C2070 1.363 . S
N2068 C2070 1.356 . S
N2068 H2080 0.984 . S
N2068 H2081 0.985 . S
N2069 C2071 1.356 . S
N2069 H2074 0.984 . S
N2069 H2075 0.985 . S
C2070 C2064 1.379 . S
C2070 C2067 1.363 . S
C2070 N2068 1.356 . S
C2071 C2065 1.363 . S
C2071 C2066 1.379 . S
C2071 N2069 1.356 . S
N2072 C2064 1.356 . S
N2072 H2078 0.984 . S
N2072 H2079 0.984 . S
N2073 C2066 1.356 . S
N2073 H2076 0.984 . S
N2073 H2077 0.985 . S
H2074 N2069 0.984 . S
H2075 N2069 0.985 . S
H2076 N2073 0.984 . S
H2077 N2073 0.985 . S
H2078 N2072 0.984 . S
H2079 N2072 0.984 . S
H2080 N2068 0.984 . S
H2081 N2068 0.985 . S
C2082 C2083 1.363 . S
C2082 C2088 1.379 1_554 S
C2082 N2090 1.356 . S
C2083 C2082 1.363 . S
C2083 C2089 1.363 . S
C2084 C2085 1.363 . S
C2084 C2089 1.379 1_556 S
C2084 N2091 1.356 . S
C2085 C2084 1.363 . S
C2085 C2088 1.363 . S
N2086 C2088 1.356 . S
N2086 H2098 0.984 . S
N2086 H2099 0.985 . S
N2087 C2089 1.356 . S
N2087 H2092 0.984 . S
N2087 H2093 0.985 . S
C2088 C2082 1.379 1_556 S
C2088 C2085 1.363 . S
C2088 N2086 1.356 . S
C2089 C2083 1.363 . S
C2089 C2084 1.379 1_554 S
C2089 N2087 1.356 . S
N2090 C2082 1.356 . S
N2090 H2096 0.984 . S
N2090 H2097 0.984 . S
N2091 C2084 1.356 . S
N2091 H2094 0.984 . S
N2091 H2095 0.985 . S
H2092 N2087 0.984 . S
H2093 N2087 0.985 . S
H2094 N2091 0.984 . S
H2095 N2091 0.985 . S
H2096 N2090 0.984 . S
H2097 N2090 0.984 . S
H2098 N2086 0.984 . S
H2099 N2086 0.985 . S
C2100 C2101 1.363 . S
C2100 C2106 1.379 . S
C2100 N2108 1.356 . S
C2101 C2100 1.363 . S
C2101 C2107 1.363 . S
C2102 C2103 1.363 . S
C2102 C2107 1.379 . S
C2102 N2109 1.356 . S
C2103 C2102 1.363 . S
C2103 C2106 1.363 . S
N2104 C2106 1.356 . S
N2104 H2116 0.984 . S
N2104 H2117 0.985 . S
N2105 C2107 1.356 . S
N2105 H2110 0.984 . S
N2105 H2111 0.985 . S
C2106 C2100 1.379 . S
C2106 C2103 1.363 . S
C2106 N2104 1.356 . S
C2107 C2101 1.363 . S
C2107 C2102 1.379 . S
C2107 N2105 1.356 . S
N2108 C2100 1.356 . S
N2108 H2114 0.984 . S
N2108 H2115 0.984 . S
N2109 C2102 1.356 . S
N2109 H2112 0.984 . S
N2109 H2113 0.985 . S
H2110 N2105 0.984 . S
H2111 N2105 0.985 . S
H2112 N2109 0.984 . S
H2113 N2109 0.985 . S
H2114 N2108 0.984 . S
H2115 N2108 0.984 . S
H2116 N2104 0.984 . S
H2117 N2104 0.985 . S
C2118 C2119 1.363 . S
C2118 C2124 1.379 . S
C2118 N2126 1.356 . S
C2119 C2118 1.363 . S
C2119 C2125 1.363 . S
C2120 C2121 1.363 . S
C2120 C2125 1.379 . S
C2120 N2127 1.356 . S
C2121 C2120 1.363 . S
C2121 C2124 1.363 . S
N2122 C2124 1.356 . S
N2122 H2134 0.984 . S
N2122 H2135 0.985 . S
N2123 C2125 1.356 . S
N2123 H2128 0.984 . S
N2123 H2129 0.985 . S
C2124 C2118 1.379 . S
C2124 C2121 1.363 . S
C2124 N2122 1.356 . S
C2125 C2119 1.363 . S
C2125 C2120 1.379 . S
C2125 N2123 1.356 . S
N2126 C2118 1.356 . S
N2126 H2132 0.984 . S
N2126 H2133 0.984 . S
N2127 C2120 1.356 . S
N2127 H2130 0.984 . S
N2127 H2131 0.985 . S
H2128 N2123 0.984 . S
H2129 N2123 0.985 . S
H2130 N2127 0.984 . S
H2131 N2127 0.985 . S
H2132 N2126 0.984 . S
H2133 N2126 0.984 . S
H2134 N2122 0.984 . S
H2135 N2122 0.985 . S
C2136 C2137 1.363 . S
C2136 C2142 1.379 . S
C2136 N2144 1.356 . S
C2137 C2136 1.363 . S
C2137 C2143 1.363 . S
C2138 C2139 1.363 . S
C2138 C2143 1.379 . S
C2138 N2145 1.356 . S
C2139 C2138 1.363 . S
C2139 C2142 1.363 . S
N2140 C2142 1.356 . S
N2140 H2152 0.984 . S
N2140 H2153 0.985 . S
N2141 C2143 1.356 . S
N2141 H2146 0.984 . S
N2141 H2147 0.985 . S
C2142 C2136 1.379 . S
C2142 C2139 1.363 . S
C2142 N2140 1.356 . S
C2143 C2137 1.363 . S
C2143 C2138 1.379 . S
C2143 N2141 1.356 . S
N2144 C2136 1.356 . S
N2144 H2150 0.984 . S
N2144 H2151 0.984 . S
N2145 C2138 1.356 . S
N2145 H2148 0.984 . S
N2145 H2149 0.985 . S
H2146 N2141 0.984 . S
H2147 N2141 0.985 . S
H2148 N2145 0.984 . S
H2149 N2145 0.985 . S
H2150 N2144 0.984 . S
H2151 N2144 0.984 . S
H2152 N2140 0.984 . S
H2153 N2140 0.985 . S
C2154 C2155 1.363 . S
C2154 C2160 1.379 1_556 S
C2154 N2162 1.356 . S
C2155 C2154 1.363 . S
C2155 C2161 1.363 . S
C2156 C2157 1.363 . S
C2156 C2161 1.379 1_554 S
C2156 N2163 1.356 . S
C2157 C2156 1.363 . S
C2157 C2160 1.363 . S
N2158 C2160 1.356 . S
N2158 H2170 0.984 . S
N2158 H2171 0.985 . S
N2159 C2161 1.356 . S
N2159 H2164 0.984 . S
N2159 H2165 0.985 . S
C2160 C2154 1.379 1_554 S
C2160 C2157 1.363 . S
C2160 N2158 1.356 . S
C2161 C2155 1.363 . S
C2161 C2156 1.379 1_556 S
C2161 N2159 1.356 . S
N2162 C2154 1.356 . S
N2162 H2168 0.984 . S
N2162 H2169 0.984 . S
N2163 C2156 1.356 . S
N2163 H2166 0.984 . S
N2163 H2167 0.985 . S
H2164 N2159 0.984 . S
H2165 N2159 0.985 . S
H2166 N2163 0.984 . S
H2167 N2163 0.985 . S
H2168 N2162 0.984 . S
H2169 N2162 0.984 . S
H2170 N2158 0.984 . S
H2171 N2158 0.985 . S
C2172 C2173 1.363 . S
C2172 C2178 1.379 . S
C2172 N2180 1.356 . S
C2173 C2172 1.363 . S
C2173 C2179 1.363 . S
C2174 C2175 1.363 . S
C2174 C2179 1.379 . S
C2174 N2181 1.356 . S
C2175 C2174 1.363 . S
C2175 C2178 1.363 . S
N2176 C2178 1.356 . S
N2176 H2188 0.984 . S
N2176 H2189 0.985 . S
N2177 C2179 1.356 . S
N2177 H2182 0.984 . S
N2177 H2183 0.985 . S
C2178 C2172 1.379 . S
C2178 C2175 1.363 . S
C2178 N2176 1.356 . S
C2179 C2173 1.363 . S
C2179 C2174 1.379 . S
C2179 N2177 1.356 . S
N2180 C2172 1.356 . S
N2180 H2186 0.984 . S
N2180 H2187 0.984 . S
N2181 C2174 1.356 . S
N2181 H2184 0.984 . S
N2181 H2185 0.985 . S
H2182 N2177 0.984 . S
H2183 N2177 0.985 . S
H2184 N2181 0.984 . S
H2185 N2181 0.985 . S
H2186 N2180 0.984 . S
H2187 N2180 0.984 . S
H2188 N2176 0.984 . S
H2189 N2176 0.985 . S
C2190 C2191 1.363 . S
C2190 C2196 1.379 . S
C2190 N2198 1.356 . S
C2191 C2190 1.363 . S
C2191 C2197 1.363 . S
C2192 C2193 1.363 . S
C2192 C2197 1.379 . S
C2192 N2199 1.356 . S
C2193 C2192 1.363 . S
C2193 C2196 1.363 . S
N2194 C2196 1.356 . S
N2194 H2206 0.984 . S
N2194 H2207 0.985 . S
N2195 C2197 1.356 . S
N2195 H2200 0.984 . S
N2195 H2201 0.985 . S
C2196 C2190 1.379 . S
C2196 C2193 1.363 . S
C2196 N2194 1.356 . S
C2197 C2191 1.363 . S
C2197 C2192 1.379 . S
C2197 N2195 1.356 . S
N2198 C2190 1.356 . S
N2198 H2204 0.984 . S
N2198 H2205 0.984 . S
N2199 C2192 1.356 . S
N2199 H2202 0.984 . S
N2199 H2203 0.985 . S
H2200 N2195 0.984 . S
H2201 N2195 0.985 . S
H2202 N2199 0.984 . S
H2203 N2199 0.985 . S
H2204 N2198 0.984 . S
H2205 N2198 0.984 . S
H2206 N2194 0.984 . S
H2207 N2194 0.985 . S
C2208 C2209 1.363 1_455 S
C2208 C2214 1.379 . S
C2208 N2216 1.356 . S
C2209 C2208 1.363 1_655 S
C2209 C2215 1.363 . S
C2210 C2211 1.363 1_655 S
C2210 C2215 1.379 . S
C2210 N2217 1.356 . S
C2211 C2210 1.363 1_455 S
C2211 C2214 1.363 . S
N2212 C2214 1.356 . S
N2212 H2224 0.984 . S
N2212 H2225 0.985 . S
N2213 C2215 1.356 . S
N2213 H2218 0.984 . S
N2213 H2219 0.985 . S
C2214 C2208 1.379 . S
C2214 C2211 1.363 . S
C2214 N2212 1.356 . S
C2215 C2209 1.363 . S
C2215 C2210 1.379 . S
C2215 N2213 1.356 . S
N2216 C2208 1.356 . S
N2216 H2222 0.984 . S
N2216 H2223 0.998 . S
N2217 C2210 1.356 . S
N2217 H2220 0.998 . S
N2217 H2221 0.985 . S
H2218 N2213 0.984 . S
H2219 N2213 0.985 . S
H2220 N2217 0.998 . S
H2221 N2217 0.985 . S
H2222 N2216 0.984 . S
H2223 N2216 0.998 . S
H2224 N2212 0.984 . S
H2225 N2212 0.985 . S
C2226 C2227 1.363 . S
C2226 C2232 1.379 1_655 S
C2226 N2234 1.356 . S
C2227 C2226 1.363 . S
C2227 C2233 1.363 . S
C2228 C2229 1.363 . S
C2228 C2233 1.379 1_455 S
C2228 N2235 1.356 . S
C2229 C2228 1.363 . S
C2229 C2232 1.363 . S
N2230 C2232 1.356 . S
N2230 H2242 0.984 . S
N2230 H2243 0.985 . S
N2231 C2233 1.356 . S
N2231 H2236 0.984 . S
N2231 H2237 0.985 . S
C2232 C2226 1.379 1_455 S
C2232 C2229 1.363 . S
C2232 N2230 1.356 . S
C2233 C2227 1.363 . S
C2233 C2228 1.379 1_655 S
C2233 N2231 1.356 . S
N2234 C2226 1.356 . S
N2234 H2240 0.984 . S
N2234 H2241 0.984 . S
N2235 C2228 1.356 . S
N2235 H2238 0.984 . S
N2235 H2239 0.985 . S
H2236 N2231 0.984 . S
H2237 N2231 0.985 . S
H2238 N2235 0.984 . S
H2239 N2235 0.985 . S
H2240 N2234 0.984 . S
H2241 N2234 0.984 . S
H2242 N2230 0.984 . S
H2243 N2230 0.985 . S
C2244 C2245 1.363 . S
C2244 C2250 1.379 . S
C2244 N2252 1.356 . S
C2245 C2244 1.363 . S
C2245 C2251 1.363 . S
C2246 C2247 1.363 . S
C2246 C2251 1.379 . S
C2246 N2253 1.356 . S
C2247 C2246 1.363 . S
C2247 C2250 1.363 . S
N2248 C2250 1.356 . S
N2248 H2260 0.984 . S
N2248 H2261 0.985 . S
N2249 C2251 1.356 . S
N2249 H2254 0.984 . S
N2249 H2255 0.985 . S
C2250 C2244 1.379 . S
C2250 C2247 1.363 . S
C2250 N2248 1.356 . S
C2251 C2245 1.363 . S
C2251 C2246 1.379 . S
C2251 N2249 1.356 . S
N2252 C2244 1.356 . S
N2252 H2258 0.984 . S
N2252 H2259 0.984 . S
N2253 C2246 1.356 . S
N2253 H2256 0.984 . S
N2253 H2257 0.985 . S
H2254 N2249 0.984 . S
H2255 N2249 0.985 . S
H2256 N2253 0.984 . S
H2257 N2253 0.985 . S
H2258 N2252 0.984 . S
H2259 N2252 0.984 . S
H2260 N2248 0.984 . S
H2261 N2248 0.985 . S
C2262 C2263 1.363 . S
C2262 C2268 1.379 . S
C2262 N2270 1.356 . S
C2263 C2262 1.363 . S
C2263 C2269 1.363 . S
C2264 C2265 1.363 . S
C2264 C2269 1.379 . S
C2264 N2271 1.356 . S
C2265 C2264 1.363 . S
C2265 C2268 1.363 . S
N2266 C2268 1.356 . S
N2266 H2278 0.984 . S
N2266 H2279 0.985 . S
N2267 C2269 1.356 . S
N2267 H2272 0.984 . S
N2267 H2273 0.985 . S
C2268 C2262 1.379 . S
C2268 C2265 1.363 . S
C2268 N2266 1.356 . S
C2269 C2263 1.363 . S
C2269 C2264 1.379 . S
C2269 N2267 1.356 . S
N2270 C2262 1.356 . S
N2270 H2276 0.984 . S
N2270 H2277 0.984 . S
N2271 C2264 1.356 . S
N2271 H2274 0.984 . S
N2271 H2275 0.985 . S
H2272 N2267 0.984 . S
H2273 N2267 0.985 . S
H2274 N2271 0.984 . S
H2275 N2271 0.985 . S
H2276 N2270 0.984 . S
H2277 N2270 0.984 . S
H2278 N2266 0.984 . S
H2279 N2266 0.985 . S
C2280 C2281 1.363 1_655 S
C2280 C2286 1.379 . S
C2280 N2288 1.356 . S
C2281 C2280 1.363 1_455 S
C2281 C2287 1.363 . S
C2282 C2283 1.363 1_455 S
C2282 C2287 1.379 . S
C2282 N2289 1.356 . S
C2283 C2282 1.363 1_655 S
C2283 C2286 1.363 . S
N2284 C2286 1.356 . S
N2284 H2296 0.984 . S
N2284 H2297 0.985 . S
N2285 C2287 1.356 . S
N2285 H2290 0.984 . S
N2285 H2291 0.985 . S
C2286 C2280 1.379 . S
C2286 C2283 1.363 . S
C2286 N2284 1.356 . S
C2287 C2281 1.363 . S
C2287 C2282 1.379 . S
C2287 N2285 1.356 . S
N2288 C2280 1.356 . S
N2288 H2294 0.984 . S
N2288 H2295 0.998 . S
N2289 C2282 1.356 . S
N2289 H2292 0.998 . S
N2289 H2293 0.985 . S
H2290 N2285 0.984 . S
H2291 N2285 0.985 . S
H2292 N2289 0.998 . S
H2293 N2289 0.985 . S
H2294 N2288 0.984 . S
H2295 N2288 0.998 . S
H2296 N2284 0.984 . S
H2297 N2284 0.985 . S
C2298 C2299 1.363 . S
C2298 C2304 1.379 . S
C2298 N2306 1.356 . S
C2299 C2298 1.363 . S
C2299 C2305 1.363 . S
C2300 C2301 1.363 . S
C2300 C2305 1.379 . S
C2300 N2307 1.356 . S
C2301 C2300 1.363 . S
C2301 C2304 1.363 . S
N2302 C2304 1.356 . S
N2302 H2314 0.984 . S
N2302 H2315 0.985 . S
N2303 C2305 1.356 . S
N2303 H2308 0.984 . S
N2303 H2309 0.985 . S
C2304 C2298 1.379 . S
C2304 C2301 1.363 . S
C2304 N2302 1.356 . S
C2305 C2299 1.363 . S
C2305 C2300 1.379 . S
C2305 N2303 1.356 . S
N2306 C2298 1.356 . S
N2306 H2312 0.984 . S
N2306 H2313 0.984 . S
N2307 C2300 1.356 . S
N2307 H2310 0.984 . S
N2307 H2311 0.985 . S
H2308 N2303 0.984 . S
H2309 N2303 0.985 . S
H2310 N2307 0.984 . S
H2311 N2307 0.985 . S
H2312 N2306 0.984 . S
H2313 N2306 0.984 . S
H2314 N2302 0.984 . S
H2315 N2302 0.985 . S
C2316 C2317 1.363 . S
C2316 C2322 1.379 . S
C2316 N2324 1.356 . S
C2317 C2316 1.363 . S
C2317 C2323 1.363 . S
C2318 C2319 1.363 . S
C2318 C2323 1.379 . S
C2318 N2325 1.356 . S
C2319 C2318 1.363 . S
C2319 C2322 1.363 . S
N2320 C2322 1.356 . S
N2320 H2332 0.984 . S
N2320 H2333 0.985 . S
N2321 C2323 1.356 . S
N2321 H2326 0.984 . S
N2321 H2327 0.985 . S
C2322 C2316 1.379 . S
C2322 C2319 1.363 . S
C2322 N2320 1.356 . S
C2323 C2317 1.363 . S
C2323 C2318 1.379 . S
C2323 N2321 1.356 . S
N2324 C2316 1.356 . S
N2324 H2330 0.984 . S
N2324 H2331 0.984 . S
N2325 C2318 1.356 . S
N2325 H2328 0.984 . S
N2325 H2329 0.985 . S
H2326 N2321 0.984 . S
H2327 N2321 0.985 . S
H2328 N2325 0.984 . S
H2329 N2325 0.985 . S
H2330 N2324 0.984 . S
H2331 N2324 0.984 . S
H2332 N2320 0.984 . S
H2333 N2320 0.985 . S
C2334 C2335 1.363 . S
C2334 C2340 1.379 1_455 S
C2334 N2342 1.356 . S
C2335 C2334 1.363 . S
C2335 C2341 1.363 . S
C2336 C2337 1.363 . S
C2336 C2341 1.379 1_655 S
C2336 N2343 1.356 . S
C2337 C2336 1.363 . S
C2337 C2340 1.363 . S
N2338 C2340 1.356 . S
N2338 H2350 0.984 . S
N2338 H2351 0.985 . S
N2339 C2341 1.356 . S
N2339 H2344 0.984 . S
N2339 H2345 0.985 . S
C2340 C2334 1.379 1_655 S
C2340 C2337 1.363 . S
C2340 N2338 1.356 . S
C2341 C2335 1.363 . S
C2341 C2336 1.379 1_455 S
C2341 N2339 1.356 . S
N2342 C2334 1.356 . S
N2342 H2348 0.984 . S
N2342 H2349 0.984 . S
N2343 C2336 1.356 . S
N2343 H2346 0.984 . S
N2343 H2347 0.985 . S
H2344 N2339 0.984 . S
H2345 N2339 0.985 . S
H2346 N2343 0.984 . S
H2347 N2343 0.985 . S
H2348 N2342 0.984 . S
H2349 N2342 0.984 . S
H2350 N2338 0.984 . S
H2351 N2338 0.985 . S
C2352 C2353 1.363 1_655 S
C2352 C2358 1.379 . S
C2352 N2360 1.356 . S
C2353 C2352 1.363 1_455 S
C2353 C2359 1.363 . S
C2354 C2355 1.363 1_455 S
C2354 C2359 1.379 . S
C2354 N2361 1.356 . S
C2355 C2354 1.363 1_655 S
C2355 C2358 1.363 . S
N2356 C2358 1.356 . S
N2356 H2368 0.984 . S
N2356 H2369 0.985 . S
N2357 C2359 1.356 . S
N2357 H2362 0.984 . S
N2357 H2363 0.985 . S
C2358 C2352 1.379 . S
C2358 C2355 1.363 . S
C2358 N2356 1.356 . S
C2359 C2353 1.363 . S
C2359 C2354 1.379 . S
C2359 N2357 1.356 . S
N2360 C2352 1.356 . S
N2360 H2366 0.984 . S
N2360 H2367 0.998 . S
N2361 C2354 1.356 . S
N2361 H2364 0.998 . S
N2361 H2365 0.985 . S
H2362 N2357 0.984 . S
H2363 N2357 0.985 . S
H2364 N2361 0.998 . S
H2365 N2361 0.985 . S
H2366 N2360 0.984 . S
H2367 N2360 0.998 . S
H2368 N2356 0.984 . S
H2369 N2356 0.985 . S
C2370 C2371 1.363 . S
C2370 C2376 1.379 1_455 S
C2370 N2378 1.356 . S
C2371 C2370 1.363 . S
C2371 C2377 1.363 . S
C2372 C2373 1.363 . S
C2372 C2377 1.379 1_655 S
C2372 N2379 1.356 . S
C2373 C2372 1.363 . S
C2373 C2376 1.363 . S
N2374 C2376 1.356 . S
N2374 H2386 0.984 . S
N2374 H2387 0.985 . S
N2375 C2377 1.356 . S
N2375 H2380 0.984 . S
N2375 H2381 0.985 . S
C2376 C2370 1.379 1_655 S
C2376 C2373 1.363 . S
C2376 N2374 1.356 . S
C2377 C2371 1.363 . S
C2377 C2372 1.379 1_455 S
C2377 N2375 1.356 . S
N2378 C2370 1.356 . S
N2378 H2384 0.984 . S
N2378 H2385 0.984 . S
N2379 C2372 1.356 . S
N2379 H2382 0.984 . S
N2379 H2383 0.985 . S
H2380 N2375 0.984 . S
H2381 N2375 0.985 . S
H2382 N2379 0.984 . S
H2383 N2379 0.985 . S
H2384 N2378 0.984 . S
H2385 N2378 0.984 . S
H2386 N2374 0.984 . S
H2387 N2374 0.985 . S
C2388 C2389 1.363 . S
C2388 C2394 1.379 . S
C2388 N2396 1.356 . S
C2389 C2388 1.363 . S
C2389 C2395 1.363 . S
C2390 C2391 1.363 . S
C2390 C2395 1.379 . S
C2390 N2397 1.356 . S
C2391 C2390 1.363 . S
C2391 C2394 1.363 . S
N2392 C2394 1.356 . S
N2392 H2404 0.984 . S
N2392 H2405 0.985 . S
N2393 C2395 1.356 . S
N2393 H2398 0.984 . S
N2393 H2399 0.985 . S
C2394 C2388 1.379 . S
C2394 C2391 1.363 . S
C2394 N2392 1.356 . S
C2395 C2389 1.363 . S
C2395 C2390 1.379 . S
C2395 N2393 1.356 . S
N2396 C2388 1.356 . S
N2396 H2402 0.984 . S
N2396 H2403 0.984 . S
N2397 C2390 1.356 . S
N2397 H2400 0.984 . S
N2397 H2401 0.985 . S
H2398 N2393 0.984 . S
H2399 N2393 0.985 . S
H2400 N2397 0.984 . S
H2401 N2397 0.985 . S
H2402 N2396 0.984 . S
H2403 N2396 0.984 . S
H2404 N2392 0.984 . S
H2405 N2392 0.985 . S
C2406 C2407 1.363 . S
C2406 C2412 1.379 . S
C2406 N2414 1.356 . S
C2407 C2406 1.363 . S
C2407 C2413 1.363 . S
C2408 C2409 1.363 . S
C2408 C2413 1.379 . S
C2408 N2415 1.356 . S
C2409 C2408 1.363 . S
C2409 C2412 1.363 . S
N2410 C2412 1.356 . S
N2410 H2422 0.984 . S
N2410 H2423 0.985 . S
N2411 C2413 1.356 . S
N2411 H2416 0.984 . S
N2411 H2417 0.985 . S
C2412 C2406 1.379 . S
C2412 C2409 1.363 . S
C2412 N2410 1.356 . S
C2413 C2407 1.363 . S
C2413 C2408 1.379 . S
C2413 N2411 1.356 . S
N2414 C2406 1.356 . S
N2414 H2420 0.984 . S
N2414 H2421 0.984 . S
N2415 C2408 1.356 . S
N2415 H2418 0.984 . S
N2415 H2419 0.985 . S
H2416 N2411 0.984 . S
H2417 N2411 0.985 . S
H2418 N2415 0.984 . S
H2419 N2415 0.985 . S
H2420 N2414 0.984 . S
H2421 N2414 0.984 . S
H2422 N2410 0.984 . S
H2423 N2410 0.985 . S
C2424 C2425 1.363 1_655 S
C2424 C2430 1.379 . S
C2424 N2432 1.356 . S
C2425 C2424 1.363 1_455 S
C2425 C2431 1.363 . S
C2426 C2427 1.363 1_455 S
C2426 C2431 1.379 . S
C2426 N2433 1.356 . S
C2427 C2426 1.363 1_655 S
C2427 C2430 1.363 . S
N2428 C2430 1.356 . S
N2428 H2440 0.984 . S
N2428 H2441 0.985 . S
N2429 C2431 1.356 . S
N2429 H2434 0.984 . S
N2429 H2435 0.985 . S
C2430 C2424 1.379 . S
C2430 C2427 1.363 . S
C2430 N2428 1.356 . S
C2431 C2425 1.363 . S
C2431 C2426 1.379 . S
C2431 N2429 1.356 . S
N2432 C2424 1.356 . S
N2432 H2438 0.984 . S
N2432 H2439 0.998 . S
N2433 C2426 1.356 . S
N2433 H2436 0.998 . S
N2433 H2437 0.985 . S
H2434 N2429 0.984 . S
H2435 N2429 0.985 . S
H2436 N2433 0.998 . S
H2437 N2433 0.985 . S
H2438 N2432 0.984 . S
H2439 N2432 0.998 . S
H2440 N2428 0.984 . S
H2441 N2428 0.985 . S
C2442 C2443 1.363 . S
C2442 C2448 1.379 . S
C2442 N2450 1.356 . S
C2443 C2442 1.363 . S
C2443 C2449 1.363 . S
C2444 C2445 1.363 . S
C2444 C2449 1.379 . S
C2444 N2451 1.356 . S
C2445 C2444 1.363 . S
C2445 C2448 1.363 . S
N2446 C2448 1.356 . S
N2446 H2458 0.984 . S
N2446 H2459 0.985 . S
N2447 C2449 1.356 . S
N2447 H2452 0.984 . S
N2447 H2453 0.985 . S
C2448 C2442 1.379 . S
C2448 C2445 1.363 . S
C2448 N2446 1.356 . S
C2449 C2443 1.363 . S
C2449 C2444 1.379 . S
C2449 N2447 1.356 . S
N2450 C2442 1.356 . S
N2450 H2456 0.984 . S
N2450 H2457 0.984 . S
N2451 C2444 1.356 . S
N2451 H2454 0.984 . S
N2451 H2455 0.985 . S
H2452 N2447 0.984 . S
H2453 N2447 0.985 . S
H2454 N2451 0.984 . S
H2455 N2451 0.985 . S
H2456 N2450 0.984 . S
H2457 N2450 0.984 . S
H2458 N2446 0.984 . S
H2459 N2446 0.985 . S
C2460 C2461 1.363 . S
C2460 C2466 1.379 . S
C2460 N2468 1.356 . S
C2461 C2460 1.363 . S
C2461 C2467 1.363 . S
C2462 C2463 1.363 . S
C2462 C2467 1.379 . S
C2462 N2469 1.356 . S
C2463 C2462 1.363 . S
C2463 C2466 1.363 . S
N2464 C2466 1.356 . S
N2464 H2476 0.984 . S
N2464 H2477 0.985 . S
N2465 C2467 1.356 . S
N2465 H2470 0.984 . S
N2465 H2471 0.985 . S
C2466 C2460 1.379 . S
C2466 C2463 1.363 . S
C2466 N2464 1.356 . S
C2467 C2461 1.363 . S
C2467 C2462 1.379 . S
C2467 N2465 1.356 . S
N2468 C2460 1.356 . S
N2468 H2474 0.984 . S
N2468 H2475 0.984 . S
N2469 C2462 1.356 . S
N2469 H2472 0.984 . S
N2469 H2473 0.985 . S
H2470 N2465 0.984 . S
H2471 N2465 0.985 . S
H2472 N2469 0.984 . S
H2473 N2469 0.985 . S
H2474 N2468 0.984 . S
H2475 N2468 0.984 . S
H2476 N2464 0.984 . S
H2477 N2464 0.985 . S
C2478 C2479 1.363 . S
C2478 C2484 1.379 1_655 S
C2478 N2486 1.356 . S
C2479 C2478 1.363 . S
C2479 C2485 1.363 . S
C2480 C2481 1.363 . S
C2480 C2485 1.379 1_455 S
C2480 N2487 1.356 . S
C2481 C2480 1.363 . S
C2481 C2484 1.363 . S
N2482 C2484 1.356 . S
N2482 H2494 0.984 . S
N2482 H2495 0.985 . S
N2483 C2485 1.356 . S
N2483 H2488 0.984 . S
N2483 H2489 0.985 . S
C2484 C2478 1.379 1_455 S
C2484 C2481 1.363 . S
C2484 N2482 1.356 . S
C2485 C2479 1.363 . S
C2485 C2480 1.379 1_655 S
C2485 N2483 1.356 . S
N2486 C2478 1.356 . S
N2486 H2492 0.984 . S
N2486 H2493 0.984 . S
N2487 C2480 1.356 . S
N2487 H2490 0.984 . S
N2487 H2491 0.985 . S
H2488 N2483 0.984 . S
H2489 N2483 0.985 . S
H2490 N2487 0.984 . S
H2491 N2487 0.985 . S
H2492 N2486 0.984 . S
H2493 N2486 0.984 . S
H2494 N2482 0.984 . S
H2495 N2482 0.985 . S
C1057 C899 1.293 . S
C1059 C28 1.273 . S
C1075 C272 1.293 . S
C1077 C61 1.273 . S
C1093 C833 1.293 . S
C1095 C94 1.273 . S
C1111 C127 1.273 . S
C1113 C338 1.293 . S
C1129 C965 1.293 . S
C1131 C160 1.273 . S
C1147 C470 1.293 . S
C1149 C193 1.273 . S
C1165 C226 1.273 . S
C1167 C1031 1.293 . S
C1183 C259 1.273 . S
C1185 C404 1.293 . S
C1201 C635 1.293 . S
C1203 C292 1.273 . S
C1219 C8 1.293 . S
C1221 C325 1.273 . S
C1237 C358 1.273 . S
C1239 C569 1.293 . S
C1255 C391 1.273 . S
C1257 C74 1.293 . S
C1273 C424 1.273 . S
C1275 C701 1.293 . S
C1291 C457 1.273 . S
C1293 C206 1.293 . S
C1309 C767 1.293 . S
C1311 C490 1.273 . S
C1327 C140 1.293 . S
C1329 C523 1.273 . S
C1345 C371 1.293 . S
C1347 C556 1.273 . S
C1363 C589 1.273 . S
C1365 C800 1.293 . S
C1381 C305 1.293 . S
C1383 C622 1.273 . S
C1399 C655 1.273 . S
C1401 C866 1.293 . S
C1417 C437 1.293 . S
C1419 C688 1.273 . S
C1435 C998 1.293 . S
C1437 C721 1.273 . S
C1453 C503 1.293 . S
C1455 C754 1.273 . S
C1471 C787 1.273 . S
C1473 C932 1.293 . S
C1489 C820 1.273 . S
C1491 C107 1.293 . S
C1507 C536 1.293 . S
C1509 C853 1.273 . S
C1525 C41 1.293 . S
C1527 C886 1.273 . S
C1543 C919 1.273 . S
C1545 C602 1.293 . S
C1561 C952 1.273 . S
C1563 C173 1.293 . S
C1579 C985 1.273 . S
C1581 C734 1.293 . S
C1597 C239 1.293 . S
C1599 C1018 1.273 . S
C1615 C1051 1.273 . S
C1617 C668 1.293 . S
C1633 N5 1.560 . S
C1635 N170 1.560 . S
C1651 N203 1.560 . S
C1653 N38 1.560 . S
C1669 N236 1.560 . S
C1671 N71 1.560 . S
C1687 N104 1.560 . S
C1689 N137 1.560 . S
C1705 N269 1.560 . S
C1707 N434 1.560 . S
C1723 N302 1.560 . S
C1725 N467 1.560 . S
C1741 N335 1.560 . S
C1743 N500 1.560 . S
C1759 N368 1.560 . S
C1761 N401 1.560 . S
C1777 N698 1.560 . S
C1779 N533 1.560 . S
C1795 N566 1.560 . S
C1797 N731 1.560 . S
C1813 N599 1.560 . S
C1815 N764 1.560 . S
C1831 N665 1.560 . S
C1833 N632 1.560 . S
C1849 N962 1.560 . S
C1851 N797 1.560 . S
C1867 N995 1.560 . S
C1869 N830 1.560 . S
C1885 N1028 1.560 . S
C1887 N863 1.560 . S
C1903 N929 1.560 . S
C1905 N896 1.560 . S
C1921 C17 1.367 . S
C1923 C149 1.367 . S
C1939 C50 1.367 . S
C1941 C182 1.367 . S
C1957 C215 1.367 . S
C1959 C83 1.367 . S
C1975 C248 1.367 . S
C1977 C116 1.367 . S
C1993 C281 1.367 . S
C1995 C413 1.367 . S
C2011 C446 1.367 . S
C2013 C314 1.367 . S
C2029 C347 1.367 . S
C2031 C479 1.367 . S
C2047 C512 1.367 . S
C2049 C380 1.367 . S
C2065 C545 1.367 . S
C2067 C677 1.367 . S
C2083 C578 1.367 . S
C2085 C710 1.367 . S
C2101 C611 1.367 . S
C2103 C743 1.367 . S
C2119 C644 1.367 . S
C2121 C776 1.367 . S
C2137 C941 1.367 . S
C2139 C809 1.367 . S
C2155 C842 1.367 . S
C2157 C974 1.367 . S
C2173 C875 1.367 . S
C2175 C1007 1.367 . S
C2191 C908 1.367 . S
C2193 C1040 1.367 . S
C2209 N14 1.155 . S
C2211 N608 1.155 . S
C2227 N641 1.155 . S
C2229 N47 1.155 . S
C2245 N80 1.155 . S
C2247 N542 1.155 . S
C2263 N113 1.155 . S
C2265 N575 1.155 . S
C2281 N740 1.155 . S
C2283 N146 1.155 . S
C2299 N773 1.155 . S
C2301 N179 1.155 . S
C2317 N212 1.155 . S
C2319 N674 1.155 . S
C2335 N245 1.155 . S
C2337 N707 1.155 . S
C2353 N278 1.155 . S
C2355 N872 1.155 . S
C2371 N905 1.155 . S
C2373 N311 1.155 . S
C2389 N806 1.155 . S
C2391 N344 1.155 . S
C2407 N377 1.155 . S
C2409 N839 1.155 . S
C2425 N410 1.155 . S
C2427 N1004 1.155 . S
C2443 N443 1.155 . S
C2445 N1037 1.155 . S
C2461 N476 1.155 . S
C2463 N938 1.155 . S
C2479 N509 1.155 . S
C2481 N971 1.155 . S
