# Generated by pormake.
# Topology sxa, (6)-cn, num edge types: 1
# Building blocks:
#     Node 0, Type 0, BuildingBlock: MIFKUJ_clean_sbu_0, # of connection points: 6
#     Node 1, Type 0, BuildingBlock: MIFKUJ_clean_sbu_0, # of connection points: 6
#     Node 2, Type 0, BuildingBlock: MIFKUJ_clean_sbu_0, # of connection points: 6
#     Node 3, Type 0, BuildingBlock: MIFKUJ_clean_sbu_0, # of connection points: 6
#     Edge 4, Type (0, 0), BuildingBlock: XUDNAN_clean_linker_2, # of connection points: 2
#     Edge 5, Type (0, 0), BuildingBlock: XUDNAN_clean_linker_2, # of connection points: 2
#     Edge 6, Type (0, 0), BuildingBlock: XUDNAN_clean_linker_2, # of connection points: 2
#     Edge 7, Type (0, 0), BuildingBlock: XUDNAN_clean_linker_2, # of connection points: 2
#     Edge 8, Type (0, 0), BuildingBlock: XUDNAN_clean_linker_2, # of connection points: 2
#     Edge 9, Type (0, 0), BuildingBlock: XUDNAN_clean_linker_2, # of connection points: 2
#     Edge 10, Type (0, 0), BuildingBlock: XUDNAN_clean_linker_2, # of connection points: 2
#     Edge 11, Type (0, 0), BuildingBlock: XUDNAN_clean_linker_2, # of connection points: 2
#     Edge 12, Type (0, 0), BuildingBlock: XUDNAN_clean_linker_2, # of connection points: 2
#     Edge 13, Type (0, 0), BuildingBlock: XUDNAN_clean_linker_2, # of connection points: 2
#     Edge 14, Type (0, 0), BuildingBlock: XUDNAN_clean_linker_2, # of connection points: 2
#     Edge 15, Type (0, 0), BuildingBlock: XUDNAN_clean_linker_2, # of connection points: 2
# Relax obj value: 0.126
# Max RMSD: 0.253
# Mean RMSD: 0.253
data_MOF--net-sxa--node1-MIFKUJ_clean_sbu_0--edge1-XUDNAN_clean_linker_2
_symmetry_space_group_name_H-M    P1
_symmetry_Int_Tables_number       1
_symmetry_cell_setting            triclinic
loop_
_symmetry_equiv_pos_as_xyz
'x, y, z'
_cell_length_a     31.482886
_cell_length_b     26.168751
_cell_length_c     14.244879
_cell_angle_alpha  96.895439
_cell_angle_beta   90.720787
_cell_angle_gamma 89.715497
loop_
_atom_site_label
_atom_site_type_symbol
_atom_site_fract_x
_atom_site_fract_y
_atom_site_fract_z
_atom_type_partial_charge
Zn0 Zn 0.939 0.78545 0.21208 0.0
Zn1 Zn 0.05157 0.77721 0.22487 0.0
C2 C 0.90472 0.73741 0.35585 0.0
O3 O 0.90613 0.70121 0.28363 0.0
C4 C 0.08739 0.80174 0.05596 0.0
O5 O 0.09469 0.84485 0.11097 0.0
O6 O 0.87972 0.78934 0.16398 0.0
O7 O 0.96737 0.85094 0.18356 0.0
O8 O 0.03019 0.85104 0.25515 0.0
C9 C 0.85866 0.82965 0.19231 0.0
O10 O 0.87819 0.86959 0.23775 0.0
O11 O 0.92381 0.77968 0.3492 0.0
C12 C 0.13915 0.74464 0.25015 0.0
O13 O 0.1316 0.71923 0.16651 0.0
O14 O 0.10945 0.77174 0.29134 0.0
O15 O 0.01734 0.71435 0.24495 0.0
O16 O 0.96381 0.72006 0.14559 0.0
O17 O 0.06457 0.76785 0.08702 0.0
C18 C 0.00166 0.87376 0.21105 0.0
C19 C -0.00635 0.69411 0.17768 0.0
Zn20 Zn 0.43073 0.25076 0.18999 0.0
Zn21 Zn 0.54977 0.26869 0.22063 0.0
C22 C 0.37757 0.22964 0.33903 0.0
O23 O 0.36862 0.19092 0.27435 0.0
C24 C 0.5979 0.32175 0.09999 0.0
O25 O 0.60561 0.35017 0.18078 0.0
O26 O 0.37887 0.24809 0.10697 0.0
O27 O 0.45975 0.31502 0.1586 0.0
O28 O 0.51028 0.3275 0.26634 0.0
C29 C 0.37794 0.26772 0.02958 0.0
O30 O 0.41313 0.28537 0.99705 0.0
O31 O 0.4069 0.26057 0.3226 0.0
C32 C 0.63338 0.23773 0.2655 0.0
O33 O 0.62664 0.21145 0.18215 0.0
O34 O 0.60352 0.2662 0.30256 0.0
O35 O 0.52931 0.19571 0.18536 0.0
O36 O 0.46044 0.18259 0.15884 0.0
O37 O 0.57076 0.28609 0.09798 0.0
C38 C 0.48752 0.34413 0.20201 0.0
C39 C 0.49833 0.16577 0.16127 0.0
Zn40 Zn 0.94634 0.25118 0.80942 0.0
Zn41 Zn 0.06434 0.29712 0.88606 0.0
C42 C 0.89296 0.26838 0.66218 0.0
O43 O 0.88627 0.30656 0.72913 0.0
C44 C 0.08439 0.36805 0.05741 0.0
O45 O 0.07451 0.40191 0.12951 0.0
O46 O 0.89356 0.24316 0.87917 0.0
O47 O 0.98731 0.19982 0.8644 0.0
O48 O 0.05283 0.22438 0.91271 0.0
C49 C 0.86643 0.20953 0.84746 0.0
O50 O 0.87708 0.17365 0.77916 0.0
O51 O 0.9237 0.23744 0.67318 0.0
C52 C 0.13455 0.26663 0.76572 0.0
O53 O 0.10866 0.228 0.74098 0.0
O54 O 0.1229 0.30211 0.82926 0.0
O55 O 0.02226 0.31671 0.79326 0.0
O56 O 0.9578 0.32684 0.84199 0.0
O57 O 0.05518 0.34415 1.00849 0.0
C58 C 0.02335 0.19072 0.90191 0.0
C59 C -0.00689 0.34674 0.82686 0.0
Zn60 Zn 0.44133 0.72205 0.7923 0.0
Zn61 Zn 0.56207 0.74712 0.81242 0.0
C62 C 0.39866 0.75684 0.64469 0.0
O63 O 0.39297 0.7923 0.71697 0.0
C64 C 0.57453 0.7848 1.01124 0.0
O65 O 0.54234 0.75529 0.02663 0.0
O66 O 0.38323 0.71834 0.84439 0.0
O67 O 0.47257 0.66086 0.83593 0.0
O68 O 0.54118 0.68027 0.85601 0.0
C69 C 0.35618 0.68707 0.80345 0.0
O70 O 0.36861 0.65145 0.7364 0.0
O71 O 0.42601 0.72145 0.65304 0.0
C72 C 0.64125 0.76566 0.7179 0.0
O73 O 0.63673 0.81194 0.76376 0.0
O74 O 0.61234 0.73224 0.72393 0.0
O75 O 0.51794 0.79254 0.76236 0.0
O76 O 0.46194 0.79122 0.85127 0.0
O77 O 0.58659 0.7872 0.92723 0.0
C78 C 0.50998 0.65006 0.86284 0.0
C79 C 0.49332 0.81542 0.82388 0.0
H80 H 0.93687 0.4163 0.91461 0.0
H81 H 0.06956 0.39851 0.8376 0.0
H82 H 0.0846 0.48475 0.92321 0.0
H83 H 0.93067 0.55191 0.8852 0.0
H84 H 0.8942 0.56621 0.98141 0.0
H85 H 0.89445 0.50327 0.91458 0.0
H86 H 0.90618 0.46216 0.06952 0.0
H87 H 0.90656 0.52498 0.13683 0.0
H88 H 0.95094 0.48191 0.14523 0.0
H89 H 0.08603 0.56953 0.03252 0.0
H90 H 0.07113 0.65311 0.12783 0.0
H91 H 0.93674 0.61817 0.11879 0.0
C92 C 0.9692 0.43032 0.91571 0.0
C93 C 0.00229 0.39991 0.87149 0.0
C94 C 0.04382 0.42063 0.87229 0.0
C95 C 0.05272 0.46941 0.92129 0.0
C96 C 0.0196 0.4974 0.96731 0.0
C97 C 0.97847 0.47911 0.96262 0.0
C98 C 0.94807 0.51769 1.01365 0.0
C99 C 0.9149 0.53585 0.94458 0.0
C100 C 0.92669 0.49534 0.0962 0.0
C101 C 0.97858 0.56042 0.04912 0.0
C102 C 0.01984 0.54765 0.02319 0.0
C103 C 0.05376 0.58014 0.05195 0.0
C104 C 0.04511 0.62732 0.10664 0.0
C105 C 0.00289 0.64199 0.13011 0.0
C106 C 0.96931 0.60794 0.10119 0.0
H107 H 0.4459 0.38779 0.06073 0.0
H108 H 0.54956 0.41488 0.26415 0.0
H109 H 0.56912 0.4931 0.19294 0.0
H110 H 0.49659 0.43049 0.86252 0.0
H111 H 0.44992 0.46152 0.821 0.0
H112 H 0.4445 0.40726 0.88662 0.0
H113 H 0.39689 0.46115 1.00818 0.0
H114 H 0.40163 0.51549 0.94256 0.0
H115 H 0.41601 0.52184 0.06628 0.0
H116 H 0.57939 0.56617 0.0931 0.0
H117 H 0.57354 0.63507 0.98954 0.0
H118 H 0.45967 0.56367 0.85937 0.0
C119 C 0.47273 0.41008 0.09073 0.0
C120 C 0.49702 0.39412 0.16657 0.0
C121 C 0.53117 0.42538 0.20462 0.0
C122 C 0.54247 0.46995 0.16465 0.0
C123 C 0.51864 0.48354 0.08807 0.0
C124 C 0.48389 0.4551 0.05295 0.0
C125 C 0.4623 0.47914 0.97302 0.0
C126 C 0.46341 0.4424 0.88031 0.0
C127 C 0.4165 0.49538 0.99911 0.0
C128 C 0.49049 0.52552 0.96805 0.0
C129 C 0.52316 0.52695 0.03411 0.0
C130 C 0.55376 0.56557 0.04163 0.0
C131 C 0.55033 0.60438 0.9818 0.0
C132 C 0.51617 0.60489 0.91595 0.0
C133 C 0.48615 0.56447 0.9088 0.0
H134 H 0.43977 0.88151 0.92876 0.0
H135 H 0.5691 0.86762 0.82712 0.0
H136 H 0.58609 0.95242 0.91529 0.0
H137 H 0.42899 1.015 0.90296 0.0
H138 H 0.39627 0.02925 1.0058 0.0
H139 H 0.39562 0.96581 0.94105 0.0
H140 H 0.41512 0.92666 0.09467 0.0
H141 H 0.41623 0.99008 0.15982 0.0
H142 H 0.46207 0.94859 0.16103 0.0
H143 H 0.58871 0.0389 0.01563 0.0
H144 H 0.57496 0.12471 0.10172 0.0
H145 H 0.44227 0.08484 0.128 0.0
C146 C 0.47178 0.89611 0.9255 0.0
C147 C 0.50342 0.86737 0.87254 0.0
C148 C 0.54456 0.88852 0.86823 0.0
C149 C 0.5545 0.93662 0.91832 0.0
C150 C 0.52266 0.96363 0.97073 0.0
C151 C 0.48193 0.9445 0.97319 0.0
C152 C 0.45266 0.98272 0.02895 0.0
C153 C 0.41625 0.99917 0.96591 0.0
C154 C 0.43552 0.96068 0.11631 0.0
C155 C 0.48321 0.0266 0.05711 0.0
C156 C 0.5236 1.01441 0.02434 0.0
C157 C 0.55718 0.04886 0.04139 0.0
C158 C 0.54905 0.09751 0.09094 0.0
C159 C 0.50748 0.11173 0.12174 0.0
C160 C 0.47437 0.07526 0.10557 0.0
H161 H 0.95143 0.93093 0.10195 0.0
H162 H 0.07328 0.93264 0.24875 0.0
H163 H 0.0927 1.01159 0.18089 0.0
H164 H 0.98852 0.97307 0.88995 0.0
H165 H 0.94297 1.01293 0.8721 0.0
H166 H 0.93748 0.95756 0.93481 0.0
H167 H 0.90642 1.01492 0.07868 0.0
H168 H 0.91115 0.07035 0.01585 0.0
H169 H 0.93573 0.07043 0.13084 0.0
H170 H 0.10065 0.08774 0.0902 0.0
H171 H 0.09364 0.16109 0.99779 0.0
H172 H 0.96596 0.11158 0.91167 0.0
C173 C 0.98197 0.94824 0.12112 0.0
C174 C 0.01084 0.92518 0.18084 0.0
C175 C 0.05053 0.94929 0.20342 0.0
C176 C 0.06197 0.99411 0.16477 0.0
C177 C 0.03331 1.01485 0.10411 0.0
C178 C -0.00614 0.99321 0.08353 0.0
C179 C 0.96891 0.02336 0.01646 0.0
C180 C 0.95889 0.98971 0.92279 0.0
C181 C 0.92814 0.04613 0.06327 0.0
C182 C 0.00059 0.06522 1.00224 0.0
C183 C 0.03763 0.05931 0.05294 0.0
C184 C 0.07168 0.09292 0.05069 0.0
C185 C 0.0674 0.13444 0.99737 0.0
C186 C 0.02921 0.1425 0.94702 0.0
C187 C -0.00434 0.10668 0.94874 0.0
H188 H 0.31827 0.79539 0.65245 0.0
H189 H 0.40501 0.70443 0.4653 0.0
H190 H 0.34819 0.69286 0.34213 0.0
H191 H 0.22729 0.71722 0.58891 0.0
H192 H 0.19084 0.77092 0.60108 0.0
H193 H 0.23923 0.77359 0.67011 0.0
H194 H 0.25949 0.85837 0.60525 0.0
H195 H 0.21147 0.85557 0.53483 0.0
H196 H 0.26225 0.85975 0.47919 0.0
H197 H 0.28116 0.69133 0.24063 0.0
H198 H 0.2096 0.69684 0.17032 0.0
H199 H 0.16631 0.78645 0.42802 0.0
C200 C 0.32573 0.7738 0.58493 0.0
C201 C 0.36641 0.75163 0.56754 0.0
C202 C 0.37425 0.7222 0.47951 0.0
C203 C 0.34216 0.71545 0.4094 0.0
C204 C 0.30234 0.73774 0.42927 0.0
C205 C 0.29403 0.76601 0.51525 0.0
C206 C 0.24814 0.78379 0.52135 0.0
C207 C 0.22499 0.75994 0.59996 0.0
C208 C 0.24519 0.84289 0.53598 0.0
C209 C 0.23188 0.76202 0.42437 0.0
C210 C 0.26361 0.73553 0.37238 0.0
C211 C 0.25613 0.71186 0.28087 0.0
C212 C 0.21525 0.71518 0.24163 0.0
C213 C 0.18213 0.74195 0.29368 0.0
C214 C 0.19082 0.76574 0.38629 0.0
H215 H 0.1692 0.19431 0.63345 0.0
H216 H 0.19338 0.34462 0.78786 0.0
H217 H 0.26241 0.34784 0.70804 0.0
H218 H 0.27822 0.14676 0.62588 0.0
H219 H 0.27238 0.11504 0.50694 0.0
H220 H 0.22709 0.12256 0.58351 0.0
H221 H 0.18579 0.1686 0.45898 0.0
H222 H 0.23081 0.16097 0.38198 0.0
H223 H 0.20888 0.22412 0.41596 0.0
H224 H 0.32721 0.33643 0.60215 0.0
H225 H 0.37969 0.31347 0.47595 0.0
H226 H 0.31106 0.17197 0.3884 0.0
C227 C 0.18913 0.22774 0.65138 0.0
C228 C 0.17621 0.26881 0.71867 0.0
C229 C 0.20307 0.31212 0.73863 0.0
C230 C 0.24227 0.31437 0.69316 0.0
C231 C 0.25398 0.2732 0.62698 0.0
C232 C 0.228 0.23084 0.60585 0.0
C233 C 0.2463 0.19324 0.52756 0.0
C234 C 0.25661 0.14133 0.56313 0.0
C235 C 0.21616 0.18636 0.44103 0.0
C236 C 0.28638 0.2213 0.50678 0.0
C237 C 0.29058 0.26711 0.56536 0.0
C238 C 0.32436 0.30044 0.55642 0.0
C239 C 0.35408 0.28702 0.48463 0.0
C240 C 0.34966 0.24083 0.4223 0.0
C241 C 0.31566 0.20736 0.43511 0.0
H242 H 0.81453 0.31236 0.65519 0.0
H243 H 0.8963 0.19875 0.50004 0.0
H244 H 0.83883 0.17912 0.38034 0.0
H245 H 0.71871 0.24018 0.61884 0.0
H246 H 0.686 0.29612 0.61003 0.0
H247 H 0.73423 0.30179 0.67972 0.0
H248 H 0.7604 0.37295 0.58196 0.0
H249 H 0.71229 0.36693 0.5118 0.0
H250 H 0.76317 0.3595 0.45502 0.0
H251 H 0.7715 0.17205 0.27871 0.0
H252 H 0.70051 0.1763 0.20501 0.0
H253 H 0.66261 0.29336 0.4308 0.0
C254 C 0.82081 0.28377 0.59546 0.0
C255 C 0.86029 0.25752 0.58633 0.0
C256 C 0.86653 0.21963 0.50807 0.0
C257 C 0.83403 0.20824 0.43993 0.0
C258 C 0.79543 0.23477 0.45172 0.0
C259 C 0.78874 0.27164 0.52784 0.0
C260 C 0.74411 0.29364 0.52645 0.0
C261 C 0.71932 0.28226 0.61397 0.0
C262 C 0.74507 0.35169 0.5183 0.0
C263 C 0.7265 0.26357 0.43713 0.0
C264 C 0.75662 0.22991 0.3949 0.0
C265 C 0.74774 0.19818 0.31144 0.0
C266 C 0.70719 0.20089 0.27016 0.0
C267 C 0.67573 0.23502 0.31221 0.0
C268 C 0.68575 0.26669 0.39701 0.0
H269 H 0.86143 0.81474 0.46593 0.0
H270 H 0.87312 0.64874 0.40658 0.0
H271 H 0.80847 0.63817 0.49762 0.0
H272 H 0.81777 0.81453 0.71041 0.0
H273 H 0.78267 0.86789 0.6974 0.0
H274 H 0.83274 0.86281 0.63689 0.0
H275 H 0.79344 0.8664 0.47506 0.0
H276 H 0.74418 0.87327 0.53825 0.0
H277 H 0.75046 0.82217 0.44318 0.0
H278 H 0.73779 0.64501 0.57492 0.0
H279 H 0.66971 0.66899 0.65259 0.0
H280 H 0.70375 0.83042 0.66834 0.0
C281 C 0.85129 0.77622 0.4753 0.0
C282 C 0.87262 0.73251 0.42967 0.0
C283 C 0.85752 0.68276 0.44126 0.0
C284 C 0.82066 0.67632 0.49253 0.0
C285 C 0.79924 0.72001 0.53284 0.0
C286 C 0.81433 0.76903 0.52669 0.0
C287 C 0.78407 0.80937 0.57393 0.0
C288 C 0.8056 0.84048 0.65977 0.0
C289 C 0.7671 0.84489 0.50334 0.0
C290 C 0.74911 0.77529 0.6044 0.0
C291 C 0.7586 0.72389 0.57994 0.0
C292 C 0.73029 0.68512 0.59588 0.0
C293 C 0.6915 0.69915 0.6394 0.0
C294 C 0.68133 0.75153 0.66699 0.0
C295 C 0.71067 0.78999 0.64888 0.0
H296 H 0.3208 0.7747 0.89086 0.0
H297 H 0.28884 0.62369 0.74787 0.0
H298 H 0.21241 0.64346 0.77183 0.0
H299 H 0.24599 0.77835 0.0672 0.0
H300 H 0.23512 0.8462 0.07012 0.0
H301 H 0.28604 0.82104 0.03208 0.0
H302 H 0.27611 0.86029 0.87344 0.0
H303 H 0.22496 0.88521 0.91232 0.0
H304 H 0.22937 0.84444 0.80166 0.0
H305 H 0.1409 0.67585 0.83093 0.0
H306 H 0.08161 0.71602 0.92524 0.0
H307 H 0.16106 0.84794 0.01776 0.0
C308 C 0.29781 0.74571 0.86418 0.0
C309 C 0.31063 0.69741 0.81858 0.0
C310 C 0.27955 0.66084 0.78368 0.0
C311 C 0.23617 0.6719 0.79624 0.0
C312 C 0.22465 0.72003 0.84192 0.0
C313 C 0.25469 0.75636 0.87483 0.0
C314 C 0.23469 0.80373 0.92739 0.0
C315 C 0.25143 0.8128 0.03023 0.0
C316 C 0.24171 0.8512 0.87555 0.0
C317 C 0.18867 0.78767 0.92261 0.0
C318 C 0.18331 0.73955 0.87201 0.0
C319 C 0.14447 0.71405 0.86866 0.0
C320 C 0.11093 0.73722 0.9222 0.0
C321 C 0.11669 0.78527 0.97822 0.0
C322 C 0.15533 0.81179 0.97405 0.0
H323 H 0.12885 0.27961 0.05981 0.0
H324 H 0.13945 0.43765 1.00165 0.0
H325 H 0.21484 0.42263 0.95819 0.0
H326 H 0.22689 0.27814 0.17707 0.0
H327 H 0.23894 0.21181 0.13657 0.0
H328 H 0.18457 0.23272 0.1468 0.0
H329 H 0.17079 0.19851 0.96931 0.0
H330 H 0.22526 0.17695 0.96137 0.0
H331 H 0.20494 0.21927 0.88071 0.0
H332 H 0.28895 0.39132 0.92682 0.0
H333 H 0.36009 0.35351 0.94525 0.0
H334 H 0.30252 0.21826 0.03821 0.0
C335 C 0.14708 0.31059 0.03624 0.0
C336 C 0.12875 0.35936 0.03147 0.0
C337 C 0.15326 0.39984 1.00372 0.0
C338 C 0.19583 0.39153 0.97858 0.0
C339 C 0.21314 0.3427 0.9829 0.0
C340 C 0.18978 0.30319 1.01288 0.0
C341 C 0.21734 0.25683 0.02442 0.0
C342 C 0.21692 0.24418 0.1273 0.0
C343 C 0.20374 0.21015 0.9548 0.0
C344 C 0.26007 0.27693 0.99857 0.0
C345 C 0.25667 0.32573 0.97121 0.0
C346 C 0.29208 0.35306 0.94778 0.0
C347 C 0.33231 0.33112 0.95776 0.0
C348 C 0.33653 0.28306 0.99318 0.0
C349 C 0.29995 0.2549 1.01033 0.0
H350 H 0.67802 0.35913 0.1156 0.0
H351 H 0.5914 0.27027 0.9215 0.0
H352 H 0.65212 0.23617 0.82515 0.0
H353 H 0.76373 0.38074 0.93862 0.0
H354 H 0.8042 0.37245 0.02619 0.0
H355 H 0.75379 0.40085 0.06194 0.0
H356 H 0.74529 0.33189 0.1772 0.0
H357 H 0.79461 0.30201 0.1391 0.0
H358 H 0.74649 0.2647 0.13089 0.0
H359 H 0.72199 0.19714 0.77254 0.0
H360 H 0.79636 0.16755 0.75107 0.0
H361 H 0.83541 0.27836 0.98763 0.0
C362 C 0.67155 0.3347 0.05016 0.0
C363 C 0.63019 0.31717 0.02599 0.0
C364 C 0.62304 0.2842 0.94095 0.0
C365 C 0.6573 0.26445 0.88609 0.0
C366 C 0.69815 0.27856 0.91725 0.0
C367 C 0.70535 0.31397 0.99606 0.0
C368 C 0.75188 0.31741 0.02273 0.0
C369 C 0.76944 0.37104 1.01165 0.0
C370 C 0.75999 0.30316 0.12339 0.0
C371 C 0.76947 0.27699 0.94907 0.0
C372 C 0.73825 0.25527 0.88822 0.0
C373 C 0.74691 0.21474 0.81826 0.0
C374 C 0.78904 0.19759 0.80771 0.0
C375 C 0.82153 0.22069 0.86781 0.0
C376 C 0.81127 0.26014 0.94026 0.0
H377 H 0.79948 0.89066 0.11933 0.0
H378 H 0.81478 0.7596 0.27554 0.0
H379 H 0.73699 0.7514 0.28454 0.0
H380 H 0.69444 0.94066 0.224 0.0
H381 H 0.67493 0.95444 0.11018 0.0
H382 H 0.73089 0.95986 0.13823 0.0
H383 H 0.74847 0.8965 0.98905 0.0
H384 H 0.69293 0.89223 0.96001 0.0
H385 H 0.72295 0.83448 0.97208 0.0
H386 H 0.65988 0.74934 0.25902 0.0
H387 H 0.59239 0.73959 0.16952 0.0
H388 H 0.62599 0.8677 0.01911 0.0
C389 C 0.78609 0.86134 0.15761 0.0
C390 C 0.81249 0.82621 0.19802 0.0
C391 C 0.79461 0.787 0.24485 0.0
C392 C 0.75057 0.78251 0.25128 0.0
C393 C 0.72495 0.81746 0.21009 0.0
C394 C 0.74204 0.85552 0.16235 0.0
C395 C 0.70816 0.88067 0.10701 0.0
C396 C 0.70173 0.93727 0.14731 0.0
C397 C 0.71875 0.87559 1.00083 0.0
C398 C 0.67005 0.84856 0.12617 0.0
C399 C 0.67993 0.81419 0.18981 0.0
C400 C 0.65139 0.77663 0.2105 0.0
C401 C 0.61297 0.77154 0.15977 0.0
C402 C 0.60435 0.80296 0.08777 0.0
C403 C 0.6319 0.84382 0.075 0.0
loop_
_geom_bond_atom_site_label_1
_geom_bond_atom_site_label_2
_geom_bond_distance
_geom_bond_site_symmetry_2
_ccdc_geom_bond_type
Zn0 O6 1.969 . S
Zn0 O7 1.965 . S
Zn0 O11 2.024 . S
Zn0 O16 1.969 . S
Zn1 O8 1.969 . S
Zn1 O14 1.969 . S
Zn1 O15 1.965 . S
Zn1 O17 2.024 . S
C2 O3 1.229 . S
C2 O11 1.058 . S
O3 C2 1.229 . S
C4 O5 1.229 . S
C4 O17 1.058 . S
O5 C4 1.229 . S
O6 Zn0 1.969 . S
O6 C9 1.267 . S
O7 Zn0 1.965 . S
O7 C18 1.260 1_655 S
O8 Zn1 1.969 . S
O8 C18 1.258 . S
C9 O6 1.267 . S
C9 O10 1.228 . S
O10 C9 1.228 . S
O11 Zn0 2.024 . S
O11 C2 1.058 . S
C12 O13 1.228 . S
C12 O14 1.267 . S
O13 C12 1.228 . S
O14 Zn1 1.969 . S
O14 C12 1.267 . S
O15 Zn1 1.965 . S
O15 C19 1.261 . S
O16 Zn0 1.969 . S
O16 C19 1.255 1_655 S
O17 Zn1 2.024 . S
O17 C4 1.058 . S
C18 O7 1.260 1_455 S
C18 O8 1.258 . S
C19 O15 1.261 . S
C19 O16 1.255 1_455 S
Zn20 O26 1.969 . S
Zn20 O27 1.965 . S
Zn20 O31 2.024 . S
Zn20 O36 1.969 . S
Zn21 O28 1.969 . S
Zn21 O34 1.969 . S
Zn21 O35 1.965 . S
Zn21 O37 2.024 . S
C22 O23 1.229 . S
C22 O31 1.058 . S
O23 C22 1.229 . S
C24 O25 1.229 . S
C24 O37 1.058 . S
O25 C24 1.229 . S
O26 Zn20 1.969 . S
O26 C29 1.267 . S
O27 Zn20 1.965 . S
O27 C38 1.260 . S
O28 Zn21 1.969 . S
O28 C38 1.258 . S
C29 O26 1.267 . S
C29 O30 1.228 . S
O30 C29 1.228 . S
O31 Zn20 2.024 . S
O31 C22 1.058 . S
C32 O33 1.228 . S
C32 O34 1.267 . S
O33 C32 1.228 . S
O34 Zn21 1.969 . S
O34 C32 1.267 . S
O35 Zn21 1.965 . S
O35 C39 1.260 . S
O36 Zn20 1.969 . S
O36 C39 1.258 . S
O37 Zn21 2.024 . S
O37 C24 1.058 . S
C38 O27 1.260 . S
C38 O28 1.258 . S
C39 O35 1.260 . S
C39 O36 1.258 . S
Zn40 O46 1.969 . S
Zn40 O47 1.965 . S
Zn40 O51 2.024 . S
Zn40 O56 1.969 . S
Zn41 O48 1.969 . S
Zn41 O54 1.969 . S
Zn41 O55 1.965 . S
Zn41 O57 2.024 . S
C42 O43 1.229 . S
C42 O51 1.058 . S
O43 C42 1.229 . S
C44 O45 1.229 . S
C44 O57 1.058 . S
O45 C44 1.229 . S
O46 Zn40 1.969 . S
O46 C49 1.267 . S
O47 Zn40 1.965 . S
O47 C58 1.260 1_655 S
O48 Zn41 1.969 . S
O48 C58 1.258 . S
C49 O46 1.267 . S
C49 O50 1.228 . S
O50 C49 1.228 . S
O51 Zn40 2.024 . S
O51 C42 1.058 . S
C52 O53 1.228 . S
C52 O54 1.267 . S
O53 C52 1.228 . S
O54 Zn41 1.969 . S
O54 C52 1.267 . S
O55 Zn41 1.965 . S
O55 C59 1.261 . S
O56 Zn40 1.969 . S
O56 C59 1.256 1_655 S
O57 Zn41 2.024 . S
O57 C44 1.058 . S
C58 O47 1.260 1_455 S
C58 O48 1.258 . S
C59 O55 1.261 . S
C59 O56 1.256 1_455 S
Zn60 O66 1.969 . S
Zn60 O67 1.965 . S
Zn60 O71 2.024 . S
Zn60 O76 1.969 . S
Zn61 O68 1.969 . S
Zn61 O74 1.969 . S
Zn61 O75 1.965 . S
Zn61 O77 2.024 . S
C62 O63 1.229 . S
C62 O71 1.058 . S
O63 C62 1.229 . S
C64 O65 1.229 . S
C64 O77 1.058 . S
O65 C64 1.229 . S
O66 Zn60 1.969 . S
O66 C69 1.267 . S
O67 Zn60 1.965 . S
O67 C78 1.260 . S
O68 Zn61 1.969 . S
O68 C78 1.258 . S
C69 O66 1.267 . S
C69 O70 1.228 . S
O70 C69 1.228 . S
O71 Zn60 2.024 . S
O71 C62 1.058 . S
C72 O73 1.228 . S
C72 O74 1.267 . S
O73 C72 1.228 . S
O74 Zn61 1.969 . S
O74 C72 1.267 . S
O75 Zn61 1.965 . S
O75 C79 1.260 . S
O76 Zn60 1.969 . S
O76 C79 1.258 . S
O77 Zn61 2.024 . S
O77 C64 1.058 . S
C78 O67 1.260 . S
C78 O68 1.258 . S
C79 O75 1.260 . S
C79 O76 1.258 . S
H80 C92 0.930 . S
H81 C94 0.930 . S
H82 C95 0.930 . S
H83 C99 0.959 1_556 S
H84 C99 0.959 . S
H85 C99 0.961 . S
H86 C100 0.960 . S
H87 C100 0.961 . S
H88 C100 0.959 . S
H89 C103 0.929 1_556 S
H90 C104 0.931 . S
H91 C106 0.930 . S
C92 H80 0.930 . S
C92 C93 1.399 1_655 S
C92 C97 1.399 . S
C93 C92 1.399 1_455 S
C93 C94 1.376 . S
C94 H81 0.930 . S
C94 C93 1.376 . S
C94 C95 1.388 . S
C95 H82 0.930 . S
C95 C94 1.388 . S
C95 C96 1.390 . S
C96 C95 1.390 . S
C96 C97 1.394 1_455 S
C96 C102 1.465 1_556 S
C97 C92 1.399 . S
C97 C96 1.394 1_655 S
C97 C98 1.516 1_556 S
C98 C97 1.516 1_554 S
C98 C99 1.502 . S
C98 C100 1.561 . S
C98 C101 1.526 . S
C99 H83 0.959 1_554 S
C99 H84 0.959 . S
C99 H85 0.961 . S
C99 C98 1.502 . S
C100 H86 0.960 . S
C100 H87 0.961 . S
C100 H88 0.959 . S
C100 C98 1.561 . S
C101 C98 1.526 . S
C101 C102 1.396 1_655 S
C101 C106 1.390 . S
C102 C96 1.465 1_554 S
C102 C101 1.396 1_455 S
C102 C103 1.399 . S
C103 H89 0.929 1_554 S
C103 C102 1.399 . S
C103 C104 1.385 . S
C104 H90 0.931 . S
C104 C103 1.385 . S
C104 C105 1.389 . S
C105 C104 1.389 . S
C105 C106 1.387 1_455 S
C106 H91 0.930 . S
C106 C101 1.390 . S
C106 C105 1.387 1_655 S
H107 C119 0.930 1_556 S
H108 C121 0.930 . S
H109 C122 0.930 . S
H110 C126 0.959 . S
H111 C126 0.959 . S
H112 C126 0.961 . S
H113 C127 0.960 . S
H114 C127 0.961 . S
H115 C127 0.959 . S
H116 C130 0.929 . S
H117 C131 0.931 . S
H118 C133 0.930 . S
C119 H107 0.930 1_554 S
C119 C120 1.399 . S
C119 C124 1.399 . S
C120 C119 1.399 . S
C120 C121 1.376 . S
C121 H108 0.930 . S
C121 C120 1.376 . S
C121 C122 1.388 . S
C122 H109 0.930 . S
C122 C121 1.388 . S
C122 C123 1.390 . S
C123 C122 1.390 . S
C123 C124 1.394 . S
C123 C129 1.465 . S
C124 C119 1.399 . S
C124 C123 1.394 . S
C124 C125 1.516 1_554 S
C125 C124 1.516 1_556 S
C125 C126 1.502 . S
C125 C127 1.561 . S
C125 C128 1.526 . S
C126 H110 0.959 . S
C126 H111 0.959 . S
C126 H112 0.961 . S
C126 C125 1.502 . S
C127 H113 0.960 . S
C127 H114 0.961 . S
C127 H115 0.959 . S
C127 C125 1.561 . S
C128 C125 1.526 . S
C128 C129 1.396 1_556 S
C128 C133 1.390 . S
C129 C123 1.465 . S
C129 C128 1.396 1_554 S
C129 C130 1.399 . S
C130 H116 0.929 . S
C130 C129 1.399 . S
C130 C131 1.385 1_554 S
C131 H117 0.931 . S
C131 C130 1.385 1_556 S
C131 C132 1.389 . S
C132 C131 1.389 . S
C132 C133 1.387 . S
C133 H118 0.930 . S
C133 C128 1.390 . S
C133 C132 1.387 . S
H134 C146 0.930 . S
H135 C148 0.930 . S
H136 C149 0.930 . S
H137 C153 0.959 . S
H138 C153 0.959 . S
H139 C153 0.961 . S
H140 C154 0.960 . S
H141 C154 0.961 . S
H142 C154 0.959 . S
H143 C157 0.929 . S
H144 C158 0.931 . S
H145 C160 0.930 . S
C146 H134 0.930 . S
C146 C147 1.399 . S
C146 C151 1.399 . S
C147 C146 1.399 . S
C147 C148 1.376 . S
C148 H135 0.930 . S
C148 C147 1.376 . S
C148 C149 1.388 . S
C149 H136 0.930 . S
C149 C148 1.388 . S
C149 C150 1.390 . S
C150 C149 1.390 . S
C150 C151 1.394 . S
C150 C156 1.465 1_565 S
C151 C146 1.399 . S
C151 C150 1.394 . S
C151 C152 1.516 1_556 S
C152 C151 1.516 1_554 S
C152 C153 1.502 . S
C152 C154 1.561 . S
C152 C155 1.526 1_565 S
C153 H137 0.959 . S
C153 H138 0.959 . S
C153 H139 0.961 . S
C153 C152 1.502 . S
C154 H140 0.960 . S
C154 H141 0.961 . S
C154 H142 0.959 . S
C154 C152 1.561 . S
C155 C152 1.526 1_545 S
C155 C156 1.396 1_554 S
C155 C160 1.390 . S
C156 C150 1.465 1_545 S
C156 C155 1.396 1_556 S
C156 C157 1.399 . S
C157 H143 0.929 . S
C157 C156 1.399 . S
C157 C158 1.385 1_556 S
C158 H144 0.931 . S
C158 C157 1.385 1_554 S
C158 C159 1.389 . S
C159 C158 1.389 . S
C159 C160 1.387 . S
C160 H145 0.930 . S
C160 C155 1.390 . S
C160 C159 1.387 . S
H161 C173 0.930 . S
H162 C175 0.930 . S
H163 C176 0.930 1_545 S
H164 C180 0.959 . S
H165 C180 0.959 . S
H166 C180 0.961 . S
H167 C181 0.960 . S
H168 C181 0.961 . S
H169 C181 0.959 . S
H170 C184 0.929 . S
H171 C185 0.931 . S
H172 C187 0.930 . S
C173 H161 0.930 . S
C173 C174 1.399 1_455 S
C173 C178 1.399 . S
C174 C173 1.399 1_655 S
C174 C175 1.376 . S
C175 H162 0.930 . S
C175 C174 1.376 . S
C175 C176 1.388 . S
C176 H163 0.930 1_565 S
C176 C175 1.388 . S
C176 C177 1.390 . S
C177 C176 1.390 . S
C177 C178 1.394 1_655 S
C177 C183 1.465 1_565 S
C178 C173 1.399 . S
C178 C177 1.394 1_455 S
C178 C179 1.516 1_554 S
C179 C178 1.516 1_556 S
C179 C180 1.502 . S
C179 C181 1.561 1_455 S
C179 C182 1.526 1_565 S
C180 H164 0.959 . S
C180 H165 0.959 . S
C180 H166 0.961 . S
C180 C179 1.502 . S
C181 H167 0.960 . S
C181 H168 0.961 . S
C181 H169 0.959 . S
C181 C179 1.561 1_655 S
C182 C179 1.526 1_545 S
C182 C183 1.396 1_456 S
C182 C187 1.390 . S
C183 C177 1.465 1_545 S
C183 C182 1.396 1_654 S
C183 C184 1.399 . S
C184 H170 0.929 . S
C184 C183 1.399 . S
C184 C185 1.385 1_554 S
C185 H171 0.931 . S
C185 C184 1.385 1_556 S
C185 C186 1.389 . S
C186 C185 1.389 . S
C186 C187 1.387 1_655 S
C187 H172 0.930 . S
C187 C182 1.390 . S
C187 C186 1.387 1_455 S
H188 C200 0.930 . S
H189 C202 0.930 . S
H190 C203 0.930 . S
H191 C207 0.959 . S
H192 C207 0.959 . S
H193 C207 0.961 . S
H194 C208 0.960 . S
H195 C208 0.961 . S
H196 C208 0.959 . S
H197 C211 0.929 . S
H198 C212 0.931 . S
H199 C214 0.930 . S
C200 H188 0.930 . S
C200 C201 1.399 . S
C200 C205 1.399 . S
C201 C200 1.399 . S
C201 C202 1.376 . S
C202 H189 0.930 . S
C202 C201 1.376 . S
C202 C203 1.388 . S
C203 H190 0.930 . S
C203 C202 1.388 . S
C203 C204 1.390 . S
C204 C203 1.390 . S
C204 C205 1.394 . S
C204 C210 1.465 . S
C205 C200 1.399 . S
C205 C204 1.394 . S
C205 C206 1.516 . S
C206 C205 1.516 . S
C206 C207 1.502 . S
C206 C208 1.561 . S
C206 C209 1.526 . S
C207 H191 0.959 . S
C207 H192 0.959 . S
C207 H193 0.961 . S
C207 C206 1.502 . S
C208 H194 0.960 . S
C208 H195 0.961 . S
C208 H196 0.959 . S
C208 C206 1.561 . S
C209 C206 1.526 . S
C209 C210 1.396 . S
C209 C214 1.390 . S
C210 C204 1.465 . S
C210 C209 1.396 . S
C210 C211 1.399 . S
C211 H197 0.929 . S
C211 C210 1.399 . S
C211 C212 1.385 . S
C212 H198 0.931 . S
C212 C211 1.385 . S
C212 C213 1.389 . S
C213 C212 1.389 . S
C213 C214 1.387 . S
C214 H199 0.930 . S
C214 C209 1.390 . S
C214 C213 1.387 . S
H215 C227 0.930 . S
H216 C229 0.930 . S
H217 C230 0.930 . S
H218 C234 0.959 . S
H219 C234 0.959 . S
H220 C234 0.961 . S
H221 C235 0.960 . S
H222 C235 0.961 . S
H223 C235 0.959 . S
H224 C238 0.929 . S
H225 C239 0.931 . S
H226 C241 0.930 . S
C227 H215 0.930 . S
C227 C228 1.399 . S
C227 C232 1.399 . S
C228 C227 1.399 . S
C228 C229 1.376 . S
C229 H216 0.930 . S
C229 C228 1.376 . S
C229 C230 1.388 . S
C230 H217 0.930 . S
C230 C229 1.388 . S
C230 C231 1.390 . S
C231 C230 1.390 . S
C231 C232 1.394 . S
C231 C237 1.465 . S
C232 C227 1.399 . S
C232 C231 1.394 . S
C232 C233 1.516 . S
C233 C232 1.516 . S
C233 C234 1.502 . S
C233 C235 1.561 . S
C233 C236 1.526 . S
C234 H218 0.959 . S
C234 H219 0.959 . S
C234 H220 0.961 . S
C234 C233 1.502 . S
C235 H221 0.960 . S
C235 H222 0.961 . S
C235 H223 0.959 . S
C235 C233 1.561 . S
C236 C233 1.526 . S
C236 C237 1.396 . S
C236 C241 1.390 . S
C237 C231 1.465 . S
C237 C236 1.396 . S
C237 C238 1.399 . S
C238 H224 0.929 . S
C238 C237 1.399 . S
C238 C239 1.385 . S
C239 H225 0.931 . S
C239 C238 1.385 . S
C239 C240 1.389 . S
C240 C239 1.389 . S
C240 C241 1.387 . S
C241 H226 0.930 . S
C241 C236 1.390 . S
C241 C240 1.387 . S
H242 C254 0.930 . S
H243 C256 0.930 . S
H244 C257 0.930 . S
H245 C261 0.959 . S
H246 C261 0.959 . S
H247 C261 0.961 . S
H248 C262 0.960 . S
H249 C262 0.961 . S
H250 C262 0.959 . S
H251 C265 0.929 . S
H252 C266 0.931 . S
H253 C268 0.930 . S
C254 H242 0.930 . S
C254 C255 1.399 . S
C254 C259 1.399 . S
C255 C254 1.399 . S
C255 C256 1.376 . S
C256 H243 0.930 . S
C256 C255 1.376 . S
C256 C257 1.388 . S
C257 H244 0.930 . S
C257 C256 1.388 . S
C257 C258 1.390 . S
C258 C257 1.390 . S
C258 C259 1.394 . S
C258 C264 1.465 . S
C259 C254 1.399 . S
C259 C258 1.394 . S
C259 C260 1.516 . S
C260 C259 1.516 . S
C260 C261 1.502 . S
C260 C262 1.561 . S
C260 C263 1.526 . S
C261 H245 0.959 . S
C261 H246 0.959 . S
C261 H247 0.961 . S
C261 C260 1.502 . S
C262 H248 0.960 . S
C262 H249 0.961 . S
C262 H250 0.959 . S
C262 C260 1.561 . S
C263 C260 1.526 . S
C263 C264 1.396 . S
C263 C268 1.390 . S
C264 C258 1.465 . S
C264 C263 1.396 . S
C264 C265 1.399 . S
C265 H251 0.929 . S
C265 C264 1.399 . S
C265 C266 1.385 . S
C266 H252 0.931 . S
C266 C265 1.385 . S
C266 C267 1.389 . S
C267 C266 1.389 . S
C267 C268 1.387 . S
C268 H253 0.930 . S
C268 C263 1.390 . S
C268 C267 1.387 . S
H269 C281 0.930 . S
H270 C283 0.930 . S
H271 C284 0.930 . S
H272 C288 0.959 . S
H273 C288 0.959 . S
H274 C288 0.961 . S
H275 C289 0.960 . S
H276 C289 0.961 . S
H277 C289 0.959 . S
H278 C292 0.929 . S
H279 C293 0.931 . S
H280 C295 0.930 . S
C281 H269 0.930 . S
C281 C282 1.399 . S
C281 C286 1.399 . S
C282 C281 1.399 . S
C282 C283 1.376 . S
C283 H270 0.930 . S
C283 C282 1.376 . S
C283 C284 1.388 . S
C284 H271 0.930 . S
C284 C283 1.388 . S
C284 C285 1.390 . S
C285 C284 1.390 . S
C285 C286 1.394 . S
C285 C291 1.465 . S
C286 C281 1.399 . S
C286 C285 1.394 . S
C286 C287 1.516 . S
C287 C286 1.516 . S
C287 C288 1.502 . S
C287 C289 1.561 . S
C287 C290 1.526 . S
C288 H272 0.959 . S
C288 H273 0.959 . S
C288 H274 0.961 . S
C288 C287 1.502 . S
C289 H275 0.960 . S
C289 H276 0.961 . S
C289 H277 0.959 . S
C289 C287 1.561 . S
C290 C287 1.526 . S
C290 C291 1.396 . S
C290 C295 1.390 . S
C291 C285 1.465 . S
C291 C290 1.396 . S
C291 C292 1.399 . S
C292 H278 0.929 . S
C292 C291 1.399 . S
C292 C293 1.385 . S
C293 H279 0.931 . S
C293 C292 1.385 . S
C293 C294 1.389 . S
C294 C293 1.389 . S
C294 C295 1.387 . S
C295 H280 0.930 . S
C295 C290 1.390 . S
C295 C294 1.387 . S
H296 C308 0.930 . S
H297 C310 0.930 . S
H298 C311 0.930 . S
H299 C315 0.959 . S
H300 C315 0.959 . S
H301 C315 0.961 . S
H302 C316 0.960 . S
H303 C316 0.961 . S
H304 C316 0.959 . S
H305 C319 0.929 . S
H306 C320 0.931 . S
H307 C322 0.930 . S
C308 H296 0.930 . S
C308 C309 1.399 1_556 S
C308 C313 1.399 . S
C309 C308 1.399 1_554 S
C309 C310 1.376 . S
C310 H297 0.930 . S
C310 C309 1.376 . S
C310 C311 1.388 . S
C311 H298 0.930 . S
C311 C310 1.388 . S
C311 C312 1.390 . S
C312 C311 1.390 . S
C312 C313 1.394 1_554 S
C312 C318 1.465 . S
C313 C308 1.399 . S
C313 C312 1.394 1_556 S
C313 C314 1.516 . S
C314 C313 1.516 . S
C314 C315 1.502 . S
C314 C316 1.561 . S
C314 C317 1.526 . S
C315 H299 0.959 . S
C315 H300 0.959 . S
C315 H301 0.961 . S
C315 C314 1.502 . S
C316 H302 0.960 . S
C316 H303 0.961 . S
C316 H304 0.959 . S
C316 C314 1.561 . S
C317 C314 1.526 . S
C317 C318 1.396 1_556 S
C317 C322 1.390 . S
C318 C312 1.465 . S
C318 C317 1.396 1_554 S
C318 C319 1.399 . S
C319 H305 0.929 . S
C319 C318 1.399 . S
C319 C320 1.385 . S
C320 H306 0.931 . S
C320 C319 1.385 . S
C320 C321 1.389 . S
C321 C320 1.389 . S
C321 C322 1.387 1_554 S
C322 H307 0.930 . S
C322 C317 1.390 . S
C322 C321 1.387 1_556 S
H323 C335 0.930 . S
H324 C337 0.930 . S
H325 C338 0.930 . S
H326 C342 0.959 . S
H327 C342 0.959 . S
H328 C342 0.961 . S
H329 C343 0.960 . S
H330 C343 0.961 . S
H331 C343 0.959 . S
H332 C346 0.929 . S
H333 C347 0.931 . S
H334 C349 0.930 . S
C335 H323 0.930 . S
C335 C336 1.399 1_554 S
C335 C340 1.399 . S
C336 C335 1.399 1_556 S
C336 C337 1.376 . S
C337 H324 0.930 . S
C337 C336 1.376 . S
C337 C338 1.388 . S
C338 H325 0.930 . S
C338 C337 1.388 . S
C338 C339 1.390 . S
C339 C338 1.390 . S
C339 C340 1.394 1_556 S
C339 C345 1.465 . S
C340 C335 1.399 . S
C340 C339 1.394 1_554 S
C340 C341 1.516 . S
C341 C340 1.516 . S
C341 C342 1.502 . S
C341 C343 1.561 . S
C341 C344 1.526 . S
C342 H326 0.959 . S
C342 H327 0.959 . S
C342 H328 0.961 . S
C342 C341 1.502 . S
C343 H329 0.960 . S
C343 H330 0.961 . S
C343 H331 0.959 . S
C343 C341 1.561 . S
C344 C341 1.526 . S
C344 C345 1.396 1_554 S
C344 C349 1.390 . S
C345 C339 1.465 . S
C345 C344 1.396 1_556 S
C345 C346 1.399 . S
C346 H332 0.929 . S
C346 C345 1.399 . S
C346 C347 1.385 . S
C347 H333 0.931 . S
C347 C346 1.385 . S
C347 C348 1.389 . S
C348 C347 1.389 . S
C348 C349 1.387 1_556 S
C349 H334 0.930 . S
C349 C344 1.390 . S
C349 C348 1.387 1_554 S
H350 C362 0.930 . S
H351 C364 0.930 . S
H352 C365 0.930 . S
H353 C369 0.959 . S
H354 C369 0.959 . S
H355 C369 0.961 . S
H356 C370 0.960 . S
H357 C370 0.961 . S
H358 C370 0.959 . S
H359 C373 0.929 . S
H360 C374 0.931 . S
H361 C376 0.930 . S
C362 H350 0.930 . S
C362 C363 1.399 . S
C362 C367 1.399 . S
C363 C362 1.399 . S
C363 C364 1.376 1_554 S
C364 H351 0.930 . S
C364 C363 1.376 1_556 S
C364 C365 1.388 . S
C365 H352 0.930 . S
C365 C364 1.388 . S
C365 C366 1.390 . S
C366 C365 1.390 . S
C366 C367 1.394 1_556 S
C366 C372 1.465 . S
C367 C362 1.399 . S
C367 C366 1.394 1_554 S
C367 C368 1.516 . S
C368 C367 1.516 . S
C368 C369 1.502 . S
C368 C370 1.561 . S
C368 C371 1.526 . S
C369 H353 0.959 . S
C369 H354 0.959 . S
C369 H355 0.961 . S
C369 C368 1.502 . S
C370 H356 0.960 . S
C370 H357 0.961 . S
C370 H358 0.959 . S
C370 C368 1.561 . S
C371 C368 1.526 . S
C371 C372 1.396 1_554 S
C371 C376 1.390 . S
C372 C366 1.465 . S
C372 C371 1.396 1_556 S
C372 C373 1.399 . S
C373 H359 0.929 . S
C373 C372 1.399 . S
C373 C374 1.385 . S
C374 H360 0.931 . S
C374 C373 1.385 . S
C374 C375 1.389 . S
C375 C374 1.389 . S
C375 C376 1.387 1_556 S
C376 H361 0.930 . S
C376 C371 1.390 . S
C376 C375 1.387 1_554 S
H377 C389 0.930 . S
H378 C391 0.930 . S
H379 C392 0.930 . S
H380 C396 0.959 . S
H381 C396 0.959 . S
H382 C396 0.961 . S
H383 C397 0.960 . S
H384 C397 0.961 . S
H385 C397 0.959 . S
H386 C400 0.929 . S
H387 C401 0.931 . S
H388 C403 0.930 . S
C389 H377 0.930 . S
C389 C390 1.399 . S
C389 C394 1.399 . S
C390 C389 1.399 . S
C390 C391 1.376 1_556 S
C391 H378 0.930 . S
C391 C390 1.376 1_554 S
C391 C392 1.388 . S
C392 H379 0.930 . S
C392 C391 1.388 . S
C392 C393 1.390 . S
C393 C392 1.390 . S
C393 C394 1.394 1_554 S
C393 C399 1.465 . S
C394 C389 1.399 . S
C394 C393 1.394 1_556 S
C394 C395 1.516 . S
C395 C394 1.516 . S
C395 C396 1.502 . S
C395 C397 1.561 . S
C395 C398 1.526 . S
C396 H380 0.959 . S
C396 H381 0.959 . S
C396 H382 0.961 . S
C396 C395 1.502 . S
C397 H383 0.960 . S
C397 H384 0.961 . S
C397 H385 0.959 . S
C397 C395 1.561 . S
C398 C395 1.526 . S
C398 C399 1.396 1_556 S
C398 C403 1.390 . S
C399 C393 1.465 . S
C399 C398 1.396 1_554 S
C399 C400 1.399 . S
C400 H386 0.929 . S
C400 C399 1.399 . S
C400 C401 1.385 . S
C401 H387 0.931 . S
C401 C400 1.385 . S
C401 C402 1.389 1_554 S
C402 C401 1.389 1_556 S
C402 C403 1.387 . S
C403 H388 0.930 . S
C403 C398 1.390 . S
C403 C402 1.387 . S
C93 C59 1.818 . S
C105 C19 1.810 . S
C120 C38 2.205 . S
C132 C78 2.141 . S
C147 C79 1.822 . S
C159 C39 1.773 . S
C174 C18 2.202 1_655 S
C186 C58 2.152 1_655 S
C201 C62 1.484 . S
C213 C12 1.472 . S
C228 C52 1.497 . S
C240 C22 1.452 . S
C255 C42 1.487 . S
C267 C32 1.469 . S
C282 C2 1.399 . S
C294 C72 1.519 . S
C309 C69 0.960 1_554 S
C321 C4 0.742 . S
C336 C44 0.727 . S
C348 C29 0.986 1_556 S
C363 C24 0.948 . S
C375 C49 0.785 . S
C390 C9 0.823 1_556 S
C402 C64 0.943 . S
