# Generated by pormake.
# Topology wke, (5)-cn, num edge types: 1
# Building blocks:
#     Node 0, Type 0, BuildingBlock: XOMCOT_clean_sbu_1, # of connection points: 5
#     Node 1, Type 0, BuildingBlock: XOMCOT_clean_sbu_1, # of connection points: 5
#     Node 2, Type 0, BuildingBlock: XOMCOT_clean_sbu_1, # of connection points: 5
#     Node 3, Type 0, BuildingBlock: XOMCOT_clean_sbu_1, # of connection points: 5
#     Node 4, Type 0, BuildingBlock: XOMCOT_clean_sbu_1, # of connection points: 5
#     Node 5, Type 0, BuildingBlock: XOMCOT_clean_sbu_1, # of connection points: 5
#     Node 6, Type 0, BuildingBlock: XOMCOT_clean_sbu_1, # of connection points: 5
#     Node 7, Type 0, BuildingBlock: XOMCOT_clean_sbu_1, # of connection points: 5
#     Node 8, Type 0, BuildingBlock: XOMCOT_clean_sbu_1, # of connection points: 5
#     Node 9, Type 0, BuildingBlock: XOMCOT_clean_sbu_1, # of connection points: 5
#     Node 10, Type 0, BuildingBlock: XOMCOT_clean_sbu_1, # of connection points: 5
#     Node 11, Type 0, BuildingBlock: XOMCOT_clean_sbu_1, # of connection points: 5
#     Edge 12, Type (0, 0), BuildingBlock: UVAHIK_clean_linker_0, # of connection points: 2
#     Edge 13, Type (0, 0), BuildingBlock: UVAHIK_clean_linker_0, # of connection points: 2
#     Edge 14, Type (0, 0), BuildingBlock: UVAHIK_clean_linker_0, # of connection points: 2
#     Edge 15, Type (0, 0), BuildingBlock: UVAHIK_clean_linker_0, # of connection points: 2
#     Edge 16, Type (0, 0), BuildingBlock: UVAHIK_clean_linker_0, # of connection points: 2
#     Edge 17, Type (0, 0), BuildingBlock: UVAHIK_clean_linker_0, # of connection points: 2
#     Edge 18, Type (0, 0), BuildingBlock: UVAHIK_clean_linker_0, # of connection points: 2
#     Edge 19, Type (0, 0), BuildingBlock: UVAHIK_clean_linker_0, # of connection points: 2
#     Edge 20, Type (0, 0), BuildingBlock: UVAHIK_clean_linker_0, # of connection points: 2
#     Edge 21, Type (0, 0), BuildingBlock: UVAHIK_clean_linker_0, # of connection points: 2
#     Edge 22, Type (0, 0), BuildingBlock: UVAHIK_clean_linker_0, # of connection points: 2
#     Edge 23, Type (0, 0), BuildingBlock: UVAHIK_clean_linker_0, # of connection points: 2
#     Edge 24, Type (0, 0), BuildingBlock: UVAHIK_clean_linker_0, # of connection points: 2
#     Edge 25, Type (0, 0), BuildingBlock: UVAHIK_clean_linker_0, # of connection points: 2
#     Edge 26, Type (0, 0), BuildingBlock: UVAHIK_clean_linker_0, # of connection points: 2
#     Edge 27, Type (0, 0), BuildingBlock: UVAHIK_clean_linker_0, # of connection points: 2
#     Edge 28, Type (0, 0), BuildingBlock: UVAHIK_clean_linker_0, # of connection points: 2
#     Edge 29, Type (0, 0), BuildingBlock: UVAHIK_clean_linker_0, # of connection points: 2
#     Edge 30, Type (0, 0), BuildingBlock: UVAHIK_clean_linker_0, # of connection points: 2
#     Edge 31, Type (0, 0), BuildingBlock: UVAHIK_clean_linker_0, # of connection points: 2
#     Edge 32, Type (0, 0), BuildingBlock: UVAHIK_clean_linker_0, # of connection points: 2
#     Edge 33, Type (0, 0), BuildingBlock: UVAHIK_clean_linker_0, # of connection points: 2
#     Edge 34, Type (0, 0), BuildingBlock: UVAHIK_clean_linker_0, # of connection points: 2
#     Edge 35, Type (0, 0), BuildingBlock: UVAHIK_clean_linker_0, # of connection points: 2
#     Edge 36, Type (0, 0), BuildingBlock: UVAHIK_clean_linker_0, # of connection points: 2
#     Edge 37, Type (0, 0), BuildingBlock: UVAHIK_clean_linker_0, # of connection points: 2
#     Edge 38, Type (0, 0), BuildingBlock: UVAHIK_clean_linker_0, # of connection points: 2
#     Edge 39, Type (0, 0), BuildingBlock: UVAHIK_clean_linker_0, # of connection points: 2
#     Edge 40, Type (0, 0), BuildingBlock: UVAHIK_clean_linker_0, # of connection points: 2
#     Edge 41, Type (0, 0), BuildingBlock: UVAHIK_clean_linker_0, # of connection points: 2
# Relax obj value: 0.161
# Max RMSD: 0.151
# Mean RMSD: 0.151
data_MOF--net-wke--node1-XOMCOT_clean_sbu_1--edge1-UVAHIK_clean_linker_0
_symmetry_space_group_name_H-M    P1
_symmetry_Int_Tables_number       1
_symmetry_cell_setting            triclinic
loop_
_symmetry_equiv_pos_as_xyz
'x, y, z'
_cell_length_a     90.798403
_cell_length_b     90.869704
_cell_length_c     21.925615
_cell_angle_alpha  90.007285
_cell_angle_beta   90.000979
_cell_angle_gamma 119.94356
loop_
_atom_site_label
_atom_site_type_symbol
_atom_site_fract_x
_atom_site_fract_y
_atom_site_fract_z
_atom_type_partial_charge
C0 C 0.13361 0.45323 0.36375 0.0
C1 C 0.13618 0.45598 0.42558 0.0
N2 N 0.12564 0.44136 0.45464 0.0
N3 N 0.12136 0.43703 0.35394 0.0
C4 C 0.11693 0.43006 0.41007 0.0
H5 H 0.14009 0.46251 0.3282 0.0
Co6 Co 0.1126 0.42728 0.27857 0.0
C7 C 0.07565 0.40405 0.30056 0.0
O8 O 0.07232 0.40875 0.24807 0.0
N9 N 0.10415 0.41719 0.20132 0.0
C10 C 0.09369 0.39726 0.1292 0.0
C11 C 0.09586 0.40028 0.19082 0.0
C12 C 0.1073 0.42413 0.14479 0.0
N13 N 0.10099 0.41231 0.10006 0.0
O14 O 0.12226 0.41278 0.28861 0.0
H15 H 0.09212 0.39069 0.22583 0.0
H16 H 0.11507 0.43752 0.13591 0.0
O17 O 0.09112 0.41039 0.31802 0.0
C18 C 0.13557 0.41797 0.25593 0.0
O19 O 0.14034 0.43144 0.22151 0.0
N20 N 0.10489 0.44297 0.26815 0.0
C21 C 0.10048 0.47128 0.25813 0.0
C22 C 0.0903 0.45787 0.29778 0.0
C23 C 0.09297 0.44402 0.30322 0.0
C24 C 0.11524 0.45618 0.23117 0.0
C25 C 0.11302 0.47021 0.22433 0.0
H26 H 0.08614 0.43479 0.33833 0.0
H27 H 0.12599 0.45633 0.20948 0.0
H28 H 0.10727 0.41703 0.41824 0.0
H29 H 0.14514 0.4678 0.44737 0.0
H30 H 0.08755 0.38488 0.10777 0.0
H31 H 0.08099 0.45851 0.32685 0.0
H32 H 0.12143 0.48036 0.19401 0.0
C33 C 0.6833 0.13188 0.85919 0.0
C34 C 0.68342 0.13446 0.92111 0.0
N35 N 0.68727 0.12365 0.9496 0.0
N36 N 0.68691 0.11942 0.84869 0.0
C37 C 0.68951 0.11485 0.90442 0.0
H38 H 0.68041 0.13842 0.82409 0.0
Co39 Co 0.68732 0.11043 0.77328 0.0
C40 C 0.67373 0.07352 0.79584 0.0
O41 O 0.66543 0.07008 0.74388 0.0
N42 N 0.68833 0.10172 0.69594 0.0
C43 C 0.69728 0.09115 0.62225 0.0
C44 C 0.69696 0.09347 0.68405 0.0
C45 C 0.68397 0.10468 0.64012 0.0
N46 N 0.68919 0.09832 0.59467 0.0
O47 O 0.71152 0.11996 0.78115 0.0
H48 H 0.70329 0.09 0.71813 0.0
H49 H 0.67779 0.11198 0.63209 0.0
O50 O 0.68291 0.08901 0.8128 0.0
C51 C 0.71964 0.13284 0.74655 0.0
O52 O 0.71101 0.13749 0.71115 0.0
N53 N 0.66387 0.10285 0.7651 0.0
C54 C 0.6312 0.09871 0.75889 0.0
C55 C 0.63461 0.08841 0.79724 0.0
C56 C 0.65113 0.09095 0.80083 0.0
C57 C 0.66083 0.11329 0.72926 0.0
C58 C 0.6446 0.11123 0.72438 0.0
H59 H 0.6537 0.08405 0.83516 0.0
H60 H 0.67131 0.12398 0.70691 0.0
H61 H 0.69309 0.1053 0.91167 0.0
H62 H 0.68041 0.14328 0.94326 0.0
H63 H 0.70381 0.08551 0.59924 0.0
H64 H 0.62484 0.07911 0.82682 0.0
H65 H 0.6427 0.11973 0.69508 0.0
C66 C 0.55437 0.68347 0.36075 0.0
C67 C 0.55185 0.68357 0.42261 0.0
N68 N 0.56606 0.68612 0.45149 0.0
N69 N 0.57003 0.68584 0.35071 0.0
C70 C 0.57691 0.6876 0.40662 0.0
H71 H 0.54526 0.68145 0.32531 0.0
Co72 Co 0.57901 0.68578 0.27518 0.0
C73 C 0.60131 0.67114 0.29661 0.0
O74 O 0.59514 0.66225 0.24635 0.0
N75 N 0.58834 0.68637 0.19751 0.0
C76 C 0.6077 0.6945 0.1235 0.0
C77 C 0.60519 0.69434 0.18532 0.0
C78 C 0.58094 0.68233 0.14181 0.0
N79 N 0.59241 0.68702 0.09622 0.0
O80 O 0.59386 0.70994 0.2815 0.0
H81 H 0.61511 0.70035 0.2192 0.0
H82 H 0.56751 0.67679 0.13393 0.0
O83 O 0.59615 0.6813 0.31371 0.0
C84 C 0.58863 0.71793 0.24827 0.0
O85 O 0.57492 0.70911 0.21505 0.0
N86 N 0.56293 0.66232 0.26892 0.0
C87 C 0.53495 0.62933 0.26432 0.0
C88 C 0.5483 0.63348 0.30543 0.0
C89 C 0.56196 0.65012 0.30804 0.0
C90 C 0.54954 0.65869 0.23159 0.0
C91 C 0.53567 0.64225 0.2273 0.0
H92 H 0.57125 0.65325 0.34368 0.0
H93 H 0.54909 0.66883 0.20762 0.0
H94 H 0.58967 0.68995 0.41424 0.0
H95 H 0.54026 0.68145 0.44442 0.0
H96 H 0.61984 0.70053 0.10027 0.0
H97 H 0.54803 0.62406 0.33637 0.0
H98 H 0.52521 0.63988 0.19745 0.0
C99 C 0.8701 0.55874 0.86387 0.0
C100 C 0.86771 0.55549 0.92549 0.0
N101 N 0.88289 0.56436 0.95357 0.0
N102 N 0.88668 0.56961 0.85317 0.0
C103 C 0.89416 0.57272 0.90852 0.0
H104 H 0.86036 0.55373 0.82907 0.0
Co105 Co 0.89579 0.57814 0.77709 0.0
C106 C 0.93267 0.60217 0.79814 0.0
O107 O 0.9362 0.59712 0.74679 0.0
N108 N 0.90449 0.58682 0.69883 0.0
C109 C 0.91461 0.60511 0.62146 0.0
C110 C 0.91203 0.60342 0.68339 0.0
C111 C 0.90231 0.57869 0.645 0.0
N112 N 0.9084 0.58951 0.59726 0.0
O113 O 0.88631 0.59294 0.78121 0.0
H114 H 0.91489 0.61364 0.71503 0.0
H115 H 0.89581 0.56508 0.64013 0.0
O116 O 0.91716 0.59562 0.81534 0.0
C117 C 0.87334 0.58796 0.74678 0.0
O118 O 0.86868 0.57445 0.71263 0.0
N119 N 0.9032 0.56213 0.7728 0.0
C120 C 0.90704 0.53342 0.76985 0.0
C121 C 0.91825 0.54783 0.80371 0.0
C122 C 0.9159 0.56193 0.80569 0.0
C123 C 0.89189 0.54801 0.74153 0.0
C124 C 0.89375 0.53371 0.73832 0.0
H125 H 0.92376 0.57212 0.83636 0.0
H126 H 0.88099 0.54769 0.72022 0.0
H127 H 0.90764 0.58085 0.91575 0.0
H128 H 0.85566 0.54758 0.94791 0.0
H129 H 0.91981 0.61686 0.59598 0.0
H130 H 0.92825 0.5479 0.83087 0.0
H131 H 0.88464 0.52285 0.71214 0.0
C132 C 0.31346 0.86841 0.36421 0.0
C133 C 0.31431 0.86599 0.42582 0.0
N134 N 0.3209 0.88119 0.45385 0.0
N135 N 0.31946 0.88503 0.35348 0.0
C136 C 0.32398 0.89251 0.40879 0.0
H137 H 0.30853 0.85867 0.32944 0.0
Co138 Co 0.32013 0.89416 0.2774 0.0
C139 C 0.33336 0.9311 0.29726 0.0
O140 O 0.34184 0.93427 0.24581 0.0
N141 N 0.32021 0.90287 0.19899 0.0
C142 C 0.31211 0.91304 0.1215 0.0
C143 C 0.3112 0.91046 0.18342 0.0
C144 C 0.32618 0.90065 0.14522 0.0
N145 N 0.32148 0.90677 0.09741 0.0
O146 O 0.29587 0.88493 0.28157 0.0
H147 H 0.30385 0.91338 0.215 0.0
H148 H 0.33327 0.89411 0.14041 0.0
O149 O 0.32429 0.9157 0.31546 0.0
C150 C 0.28778 0.87225 0.246 0.0
O151 O 0.29643 0.86758 0.21078 0.0
N152 N 0.34348 0.90128 0.27303 0.0
C153 C 0.37591 0.90481 0.26953 0.0
C154 C 0.37286 0.91611 0.30353 0.0
C155 C 0.35646 0.91391 0.30579 0.0
C156 C 0.34614 0.88987 0.24174 0.0
C157 C 0.36225 0.89158 0.23824 0.0
H158 H 0.35423 0.92185 0.33646 0.0
H159 H 0.3355 0.87903 0.22053 0.0
H160 H 0.32957 0.906 0.41597 0.0
H161 H 0.30996 0.85391 0.44828 0.0
H162 H 0.3056 0.91828 0.09593 0.0
H163 H 0.38285 0.92607 0.33053 0.0
H164 H 0.36389 0.88241 0.21194 0.0
C165 C 0.45242 0.32045 0.85712 0.0
C166 C 0.45515 0.3205 0.91891 0.0
N167 N 0.44113 0.31828 0.94819 0.0
N168 N 0.43685 0.3184 0.84762 0.0
C169 C 0.43021 0.31694 0.90386 0.0
H170 H 0.46129 0.32201 0.82133 0.0
Co171 Co 0.42767 0.31831 0.77212 0.0
C172 C 0.40656 0.33432 0.79315 0.0
O173 O 0.41264 0.34275 0.74197 0.0
N174 N 0.41809 0.31758 0.69459 0.0
C175 C 0.39835 0.30951 0.62214 0.0
C176 C 0.40122 0.31004 0.68376 0.0
C177 C 0.42514 0.32102 0.63823 0.0
N178 N 0.41343 0.31635 0.5933 0.0
O179 O 0.41216 0.29431 0.78069 0.0
H180 H 0.39149 0.30466 0.71853 0.0
H181 H 0.43842 0.32572 0.62961 0.0
O182 O 0.41132 0.32389 0.81087 0.0
C183 C 0.41658 0.28575 0.74682 0.0
O184 O 0.42998 0.29391 0.71162 0.0
N185 N 0.44437 0.34149 0.76346 0.0
C186 C 0.47354 0.37363 0.75619 0.0
C187 C 0.46035 0.3706 0.79663 0.0
C188 C 0.4461 0.35433 0.80081 0.0
C189 C 0.45744 0.34409 0.72603 0.0
C190 C 0.47192 0.36008 0.72062 0.0
H191 H 0.43704 0.35198 0.83659 0.0
H192 H 0.45712 0.33345 0.7029 0.0
H193 H 0.41774 0.3153 0.91234 0.0
H194 H 0.46652 0.32196 0.94055 0.0
H195 H 0.38602 0.30408 0.60051 0.0
H196 H 0.46144 0.38046 0.8272 0.0
H197 H 0.48197 0.36167 0.69 0.0
C198 C 0.55374 0.87209 0.13493 0.0
C199 C 0.55127 0.86963 0.07298 0.0
N200 N 0.56586 0.8806 0.04453 0.0
N201 N 0.56975 0.88465 0.14548 0.0
C202 C 0.57688 0.8894 0.08975 0.0
H203 H 0.54437 0.86538 0.17002 0.0
Co204 Co 0.57923 0.89341 0.22095 0.0
C205 C 0.60213 0.93044 0.20043 0.0
O206 O 0.5973 0.93353 0.2531 0.0
N207 N 0.58904 0.90189 0.29837 0.0
C208 C 0.60866 0.91243 0.37171 0.0
C209 C 0.60593 0.91013 0.30993 0.0
C210 C 0.58182 0.89892 0.35435 0.0
N211 N 0.59345 0.90526 0.39956 0.0
O212 O 0.59415 0.88421 0.21125 0.0
H213 H 0.61568 0.91368 0.27559 0.0
H214 H 0.56835 0.89168 0.36267 0.0
O215 O 0.59592 0.91507 0.18216 0.0
C216 C 0.5896 0.87123 0.24513 0.0
O217 O 0.57636 0.8663 0.28097 0.0
N218 N 0.56314 0.90063 0.23094 0.0
C219 C 0.53449 0.90448 0.24129 0.0
C220 C 0.54796 0.91501 0.20235 0.0
C221 C 0.562 0.91263 0.19676 0.0
C222 C 0.54984 0.88989 0.26687 0.0
C223 C 0.53565 0.89183 0.27396 0.0
H224 H 0.57135 0.9198 0.16236 0.0
H225 H 0.54986 0.87916 0.28801 0.0
H226 H 0.58998 0.89906 0.08256 0.0
H227 H 0.53948 0.86074 0.0508 0.0
H228 H 0.62086 0.9181 0.39448 0.0
H229 H 0.54728 0.92442 0.1741 0.0
H230 H 0.5255 0.88319 0.30381 0.0
C231 C 0.68608 0.55297 0.63717 0.0
C232 C 0.68603 0.55024 0.57538 0.0
N233 N 0.68821 0.56423 0.54608 0.0
N234 N 0.6881 0.56852 0.64666 0.0
C235 C 0.68954 0.57515 0.5904 0.0
H236 H 0.68454 0.54413 0.67297 0.0
Co237 Co 0.68816 0.57769 0.72215 0.0
C238 C 0.67229 0.59892 0.70053 0.0
O239 O 0.66356 0.59274 0.75111 0.0
N240 N 0.68884 0.58725 0.79967 0.0
C241 C 0.69679 0.60696 0.87215 0.0
C242 C 0.6963 0.60411 0.81053 0.0
C243 C 0.68539 0.5802 0.85603 0.0
N244 N 0.69 0.59189 0.90097 0.0
O245 O 0.71219 0.59315 0.71377 0.0
H246 H 0.70168 0.61384 0.7758 0.0
H247 H 0.68076 0.56694 0.86463 0.0
O248 O 0.68272 0.5941 0.68338 0.0
C249 C 0.72079 0.58884 0.74784 0.0
O250 O 0.71267 0.57551 0.78337 0.0
N251 N 0.66495 0.56105 0.73064 0.0
C252 C 0.63276 0.53197 0.73862 0.0
C253 C 0.63578 0.5451 0.69796 0.0
C254 C 0.65207 0.55931 0.69343 0.0
C255 C 0.66237 0.54801 0.76813 0.0
C256 C 0.64636 0.53358 0.77394 0.0
H257 H 0.65441 0.56837 0.65766 0.0
H258 H 0.67304 0.54833 0.79113 0.0
H259 H 0.69114 0.58759 0.58191 0.0
H260 H 0.68459 0.53889 0.55375 0.0
H261 H 0.70217 0.61927 0.89381 0.0
H262 H 0.62587 0.54401 0.66761 0.0
H263 H 0.64479 0.52359 0.80479 0.0
C264 C 0.13309 0.68045 0.1374 0.0
C265 C 0.13555 0.68012 0.07557 0.0
N266 N 0.12505 0.68426 0.04651 0.0
N267 N 0.12093 0.68456 0.14719 0.0
C268 C 0.11644 0.68704 0.09105 0.0
H269 H 0.13959 0.67768 0.17297 0.0
Co270 Co 0.11241 0.68586 0.22263 0.0
C271 C 0.07554 0.6729 0.20211 0.0
O272 O 0.07226 0.66504 0.25493 0.0
N273 N 0.10423 0.6878 0.29998 0.0
C274 C 0.09426 0.69776 0.37219 0.0
C275 C 0.09639 0.69687 0.31059 0.0
C276 C 0.10716 0.68376 0.35642 0.0
N277 N 0.10114 0.68957 0.40122 0.0
O278 O 0.12239 0.71001 0.21215 0.0
H279 H 0.09291 0.70297 0.27563 0.0
H280 H 0.11455 0.67771 0.36518 0.0
O281 O 0.09096 0.68161 0.1837 0.0
C282 C 0.13576 0.71806 0.24461 0.0
O283 O 0.14042 0.7093 0.27928 0.0
N284 N 0.10436 0.66241 0.23336 0.0
C285 C 0.09978 0.62962 0.24149 0.0
C286 C 0.08948 0.63302 0.20305 0.0
C287 C 0.09224 0.64958 0.19852 0.0
C288 C 0.11472 0.65934 0.26964 0.0
C289 C 0.11244 0.64306 0.27545 0.0
H290 H 0.08535 0.65211 0.16399 0.0
H291 H 0.12556 0.66983 0.2913 0.0
H292 H 0.10683 0.6905 0.08286 0.0
H293 H 0.14445 0.67715 0.05377 0.0
H294 H 0.08843 0.7043 0.3937 0.0
H295 H 0.08006 0.6232 0.17394 0.0
H296 H 0.12094 0.64115 0.3048 0.0
C297 C 0.45428 0.13246 0.63567 0.0
C298 C 0.45676 0.13496 0.57373 0.0
N299 N 0.44206 0.12428 0.54527 0.0
N300 N 0.43814 0.12019 0.64621 0.0
C301 C 0.43095 0.11564 0.59048 0.0
H302 H 0.46372 0.13896 0.67074 0.0
Co303 Co 0.42859 0.11142 0.72165 0.0
C304 C 0.40506 0.07449 0.69982 0.0
O305 O 0.40966 0.07103 0.75229 0.0
N306 N 0.41873 0.10296 0.79895 0.0
C307 C 0.39915 0.09263 0.8724 0.0
C308 C 0.40186 0.09489 0.8106 0.0
C309 C 0.42598 0.10589 0.85488 0.0
N310 N 0.41437 0.09967 0.90018 0.0
O311 O 0.41403 0.12105 0.71253 0.0
H312 H 0.39211 0.09145 0.77633 0.0
H313 H 0.43946 0.11303 0.86309 0.0
O314 O 0.41159 0.08997 0.68244 0.0
C315 C 0.41928 0.13435 0.7453 0.0
O316 O 0.43285 0.13912 0.7793 0.0
N317 N 0.44434 0.10375 0.73115 0.0
C318 C 0.47277 0.09949 0.74008 0.0
C319 C 0.45913 0.08904 0.70168 0.0
C320 C 0.4452 0.09163 0.69676 0.0
C321 C 0.45778 0.11435 0.76686 0.0
C322 C 0.47187 0.11223 0.77316 0.0
H323 H 0.43574 0.08454 0.66258 0.0
H324 H 0.45797 0.12516 0.78822 0.0
H325 H 0.41777 0.10625 0.58326 0.0
H326 H 0.46862 0.14363 0.55156 0.0
H327 H 0.38696 0.08708 0.89524 0.0
H328 H 0.45961 0.07955 0.67321 0.0
H329 H 0.48219 0.12082 0.80259 0.0
C330 C 0.32251 0.45142 0.14245 0.0
C331 C 0.32252 0.45415 0.08068 0.0
N332 N 0.31994 0.44003 0.05132 0.0
N333 N 0.32011 0.43572 0.15186 0.0
C334 C 0.31841 0.42902 0.09559 0.0
H335 H 0.32437 0.46037 0.17829 0.0
Co336 Co 0.32002 0.42652 0.22729 0.0
C337 C 0.33557 0.40506 0.20553 0.0
O338 O 0.34416 0.41118 0.25642 0.0
N339 N 0.31926 0.41692 0.30486 0.0
C340 C 0.31107 0.39716 0.37728 0.0
C341 C 0.31167 0.40004 0.31566 0.0
C342 C 0.32262 0.42393 0.36128 0.0
N343 N 0.31789 0.41222 0.40616 0.0
O344 O 0.29592 0.41136 0.2195 0.0
H345 H 0.30627 0.39032 0.28088 0.0
H346 H 0.32721 0.43717 0.36999 0.0
O347 O 0.32513 0.40986 0.18822 0.0
C348 C 0.28757 0.41597 0.25365 0.0
O349 O 0.29596 0.42939 0.28857 0.0
N350 N 0.3434 0.44286 0.23509 0.0
C351 C 0.37628 0.47094 0.24269 0.0
C352 C 0.37237 0.45803 0.19988 0.0
C353 C 0.35578 0.44432 0.19583 0.0
C354 C 0.34678 0.45586 0.27404 0.0
C355 C 0.36318 0.46976 0.27983 0.0
H356 H 0.35285 0.43536 0.15914 0.0
H357 H 0.33651 0.45602 0.29817 0.0
H358 H 0.31651 0.41646 0.08706 0.0
H359 H 0.32424 0.46562 0.05911 0.0
H360 H 0.30559 0.38483 0.3989 0.0
H361 H 0.38195 0.45867 0.16883 0.0
H362 H 0.36536 0.4799 0.31102 0.0
C363 C 0.87406 0.32399 0.6374 0.0
C364 C 0.8716 0.32426 0.57553 0.0
N365 N 0.88219 0.3202 0.54662 0.0
N366 N 0.88629 0.31999 0.64736 0.0
C367 C 0.89083 0.31752 0.59129 0.0
H368 H 0.86749 0.32671 0.67287 0.0
Co369 Co 0.89484 0.31874 0.72281 0.0
C370 C 0.93183 0.33246 0.7025 0.0
O371 O 0.93491 0.34022 0.75548 0.0
N372 N 0.9031 0.31684 0.80014 0.0
C373 C 0.91341 0.30714 0.87205 0.0
C374 C 0.91123 0.30803 0.81047 0.0
C375 C 0.90007 0.32071 0.85672 0.0
N376 N 0.9063 0.31507 0.90132 0.0
O377 O 0.88525 0.29465 0.71178 0.0
H378 H 0.91489 0.30213 0.77534 0.0
H379 H 0.89248 0.32654 0.86575 0.0
O380 O 0.91645 0.32347 0.68393 0.0
C381 C 0.87187 0.2865 0.74412 0.0
O382 O 0.86706 0.29516 0.77867 0.0
N383 N 0.90247 0.34207 0.7342 0.0
C384 C 0.90677 0.3747 0.74584 0.0
C385 C 0.91707 0.37163 0.70612 0.0
C386 C 0.91447 0.35515 0.69992 0.0
C387 C 0.89198 0.34477 0.7711 0.0
C388 C 0.89415 0.36096 0.77883 0.0
H389 H 0.92145 0.3529 0.66489 0.0
H390 H 0.88119 0.33409 0.79217 0.0
H391 H 0.90051 0.31414 0.58326 0.0
H392 H 0.86265 0.32714 0.55361 0.0
H393 H 0.91946 0.30078 0.89338 0.0
H394 H 0.92646 0.38168 0.67763 0.0
H395 H 0.88567 0.36256 0.80926 0.0
C396 C 0.06414 0.39197 0.40452 0.0
C397 C 0.06136 0.39329 0.34217 0.0
C398 C 0.05038 0.38326 0.44442 0.0
C399 C 0.0041 0.35218 0.45073 0.0
H400 H 0.00568 0.37568 0.60019 0.0
C401 C 0.94426 0.33372 0.59861 0.0
C402 C 0.94635 0.33606 0.66204 0.0
C403 C 0.9584 0.33898 0.56041 0.0
C404 C 0.00507 0.36873 0.55927 0.0
H405 H 0.04193 0.38581 0.27254 0.0
H406 H 0.01806 0.37062 0.34189 0.0
H407 H 0.03025 0.38758 0.53302 0.0
H408 H 0.96484 0.3449 0.73533 0.0
H409 H 0.98933 0.35355 0.66934 0.0
H410 H 0.97888 0.33334 0.4769 0.0
C411 C 0.03083 0.3763 0.36005 0.0
C412 C 0.01922 0.3756 0.52065 0.0
C413 C 0.04455 0.38511 0.32032 0.0
C414 C 0.96279 0.34309 0.68658 0.0
C415 C 0.97688 0.34818 0.6486 0.0
C416 C 0.98997 0.34522 0.48962 0.0
C417 C 0.03355 0.37553 0.42277 0.0
C418 C 0.01887 0.3675 0.46563 0.0
C419 C 0.97496 0.34657 0.58486 0.0
C420 C 0.99021 0.35348 0.54426 0.0
H421 H 0.07689 0.39808 0.42294 0.0
H422 H 0.05292 0.38274 0.4924 0.0
H423 H 1.00348 0.34552 0.40896 0.0
H424 H 0.93178 0.32845 0.57818 0.0
H425 H 0.95639 0.33766 0.51159 0.0
C426 C 0.67451 0.06222 0.89999 0.0
C427 C 0.67035 0.05933 0.83773 0.0
C428 C 0.66954 0.04856 0.94024 0.0
C429 C 0.65449 0.00235 0.94773 0.0
H430 H 0.6325 0.00413 0.09677 0.0
C431 C 0.61329 0.94275 0.09647 0.0
C432 C 0.61299 0.94492 0.15983 0.0
C433 C 0.62213 0.95684 0.05808 0.0
C434 C 0.63887 0.00347 0.05599 0.0
H435 H 0.65836 0.03978 0.76858 0.0
H436 H 0.64983 0.01606 0.8385 0.0
H437 H 0.64512 0.02858 0.02912 0.0
H438 H 0.62248 0.9635 0.23282 0.0
H439 H 0.63825 0.9879 0.16649 0.0
H440 H 0.64819 0.9772 0.97451 0.0
C441 C 0.65692 0.02886 0.85634 0.0
C442 C 0.6461 0.01754 0.01708 0.0
C443 C 0.66174 0.04249 0.81628 0.0
C444 C 0.62229 0.96139 0.18412 0.0
C445 C 0.63125 0.97542 0.14594 0.0
C446 C 0.64735 0.98829 0.98691 0.0
C447 C 0.66047 0.0317 0.919 0.0
C448 C 0.65387 0.01711 0.9622 0.0
C449 C 0.631 0.97342 0.08225 0.0
C450 C 0.63931 0.9886 0.0414 0.0
H451 H 0.68113 0.07499 0.91809 0.0
H452 H 0.67264 0.05119 0.98816 0.0
H453 H 0.66054 1.00167 0.90607 0.0
H454 H 0.60617 0.93026 0.07625 0.0
H455 H 0.62147 0.95475 0.00929 0.0
C456 C 0.67831 0.61801 0.60925 0.0
C457 C 0.66839 0.60975 0.66076 0.0
C458 C 0.67393 0.6276 0.57095 0.0
C459 C 0.65605 0.63786 0.47692 0.0
H460 H 0.63148 0.65917 0.54127 0.0
C461 C 0.61484 0.6538 0.32245 0.0
C462 C 0.61225 0.66743 0.33666 0.0
C463 C 0.62404 0.64924 0.36148 0.0
C464 C 0.63856 0.65358 0.52228 0.0
H465 H 0.64607 0.60514 0.71226 0.0
H466 H 0.63813 0.62113 0.64505 0.0
H467 H 0.64386 0.64758 0.61092 0.0
H468 H 0.6178 0.6873 0.40259 0.0
H469 H 0.63442 0.67972 0.47011 0.0
H470 H 0.65127 0.64438 0.38837 0.0
C471 C 0.64962 0.62079 0.63479 0.0
C472 C 0.64545 0.64662 0.56242 0.0
C473 C 0.65411 0.61143 0.67331 0.0
C474 C 0.61951 0.6767 0.39036 0.0
C475 C 0.62894 0.67225 0.42929 0.0
C476 C 0.6494 0.64505 0.43682 0.0
C477 C 0.6594 0.629 0.58286 0.0
C478 C 0.65388 0.63822 0.54033 0.0
C479 C 0.63118 0.65831 0.41571 0.0
C480 C 0.64012 0.65259 0.45878 0.0
H481 H 0.68942 0.61703 0.59842 0.0
H482 H 0.68194 0.63391 0.53199 0.0
H483 H 0.66236 0.63148 0.45779 0.0
H484 H 0.60935 0.64626 0.28175 0.0
H485 H 0.62506 0.63821 0.34978 0.0
C486 C 0.04479 0.66329 0.18614 0.0
C487 C 0.06116 0.66968 0.16157 0.0
C488 C 0.03076 0.65852 0.14812 0.0
C489 C 0.01804 0.66122 0.98815 0.0
H490 H 0.97687 0.61991 0.03341 0.0
C491 C 0.96374 0.62092 0.8189 0.0
C492 C 0.94684 0.6133 0.83964 0.0
C493 C 0.97732 0.6299 0.85896 0.0
C494 C 0.98816 0.63161 0.02052 0.0
H495 H 0.07567 0.67648 0.07762 0.0
H496 H 0.05118 0.6678 0.011 0.0
H497 H 1.00133 0.63154 0.10113 0.0
H498 H 0.93104 0.6099 0.91853 0.0
H499 H 0.95481 0.62542 0.98876 0.0
H500 H 0.0049 0.66084 0.90632 0.0
C501 C 0.04917 0.66676 0.05984 0.0
C502 C 1.00224 0.63833 0.05946 0.0
C503 C 0.06326 0.67172 0.09806 0.0
C504 C 0.94386 0.61545 0.90107 0.0
C505 C 0.95749 0.6243 0.94139 0.0
C506 C 1.00398 0.65441 0.94894 0.0
C507 C 0.03267 0.65981 0.08432 0.0
C508 C 0.01744 0.65318 0.04371 0.0
C509 C 0.97439 0.6314 0.92096 0.0
C510 C 0.98891 0.63944 0.96446 0.0
H511 H 0.04275 0.66172 0.23495 0.0
H512 H 0.01837 0.65364 0.16889 0.0
H513 H 0.02938 0.67281 0.97482 0.0
H514 H 0.96652 0.61961 0.77184 0.0
H515 H 0.99015 0.63508 0.84178 0.0
C516 C 0.39334 0.06311 0.59542 0.0
C517 C 0.3942 0.06029 0.65803 0.0
C518 C 0.38456 0.04942 0.5554 0.0
C519 C 0.35243 0.00355 0.54776 0.0
H520 H 0.37694 0.00421 0.40217 0.0
C521 C 0.33309 0.94342 0.40013 0.0
C522 C 0.33655 0.94559 0.33726 0.0
C523 C 0.33832 0.95755 0.43837 0.0
C524 C 0.3697 0.00387 0.4419 0.0
H525 H 0.38582 0.04086 0.72797 0.0
H526 H 0.37044 0.01707 0.65837 0.0
H527 H 0.38897 0.02872 0.46945 0.0
H528 H 0.34709 0.96425 0.26471 0.0
H529 H 0.35556 0.98868 0.33049 0.0
H530 H 0.33313 0.97866 0.5202 0.0
C531 C 0.37656 0.02985 0.64013 0.0
C532 C 0.37666 0.01797 0.48062 0.0
C533 C 0.38548 0.04351 0.67999 0.0
C534 C 0.34446 0.96211 0.31308 0.0
C535 C 0.34946 0.97618 0.35101 0.0
C536 C 0.34537 0.98945 0.50866 0.0
C537 C 0.37627 0.0326 0.57719 0.0
C538 C 0.3682 0.01795 0.53427 0.0
C539 C 0.34692 0.97417 0.41445 0.0
C540 C 0.35396 0.98937 0.45533 0.0
H541 H 0.3999 0.07584 0.57692 0.0
H542 H 0.38443 0.05198 0.50722 0.0
H543 H 0.34552 0.00319 0.58851 0.0
H544 H 0.32695 0.93087 0.42026 0.0
H545 H 0.33619 0.95544 0.48696 0.0
C546 C 0.39522 0.3535 0.82031 0.0
C547 C 0.39639 0.33897 0.83359 0.0
C548 C 0.38695 0.35898 0.8601 0.0
C549 C 0.35507 0.34687 0.97865 0.0
H550 H 0.3826 0.3934 0.03426 0.0
C551 C 0.33084 0.38715 0.11146 0.0
C552 C 0.34013 0.39488 0.16481 0.0
C553 C 0.3362 0.37864 0.07159 0.0
C554 C 0.37476 0.3804 0.01903 0.0
H555 H 0.38918 0.31844 0.89828 0.0
H556 H 0.37426 0.32792 0.96758 0.0
H557 H 0.3946 0.38151 0.96298 0.0
H558 H 0.36212 0.3994 0.21846 0.0
H559 H 0.37154 0.38501 0.14849 0.0
H560 H 0.3351 0.34598 0.03422 0.0
C561 C 0.37994 0.33505 0.92627 0.0
C562 C 0.3816 0.37362 0.9782 0.0
C563 C 0.38852 0.32968 0.88677 0.0
C564 C 0.35463 0.39362 0.1779 0.0
C565 C 0.36009 0.38541 0.13776 0.0
C566 C 0.34808 0.3538 0.01873 0.0
C567 C 0.37938 0.34995 0.91375 0.0
C568 C 0.37188 0.35678 0.95776 0.0
C569 C 0.35108 0.378 0.08392 0.0
C570 C 0.35793 0.3706 0.03959 0.0
H571 H 0.40112 0.36099 0.77987 0.0
H572 H 0.38661 0.37044 0.84922 0.0
H573 H 0.34731 0.33388 0.96327 0.0
H574 H 0.31962 0.38789 0.10008 0.0
H575 H 0.32908 0.37307 0.03014 0.0
C576 C 0.11321 0.61128 0.24139 0.0
C577 C 0.09843 0.6126 0.24212 0.0
C578 C 0.11214 0.59542 0.24092 0.0
C579 C 0.08391 0.55022 0.27771 0.0
H580 H 0.11536 0.54423 0.1754 0.0
C581 C 0.08302 0.48587 0.25551 0.0
C582 C 0.09899 0.48686 0.25525 0.0
C583 C 0.08182 0.50064 0.25206 0.0
C584 C 0.10658 0.54572 0.20463 0.0
H585 H 0.07089 0.59819 0.24309 0.0
H586 H 0.06902 0.57035 0.24185 0.0
H587 H 0.11525 0.57094 0.1724 0.0
H588 H 0.12622 0.50427 0.25384 0.0
H589 H 0.12412 0.52984 0.24764 0.0
H590 H 0.07538 0.52498 0.31038 0.0
C591 C 0.08144 0.58167 0.2421 0.0
C592 C 0.10651 0.56104 0.20289 0.0
C593 C 0.08251 0.5976 0.24231 0.0
C594 C 0.11369 0.50297 0.25248 0.0
C595 C 0.11249 0.51767 0.24899 0.0
C596 C 0.08398 0.53484 0.27949 0.0
C597 C 0.09627 0.58041 0.24106 0.0
C598 C 0.09538 0.5636 0.2401 0.0
C599 C 0.09656 0.51671 0.24828 0.0
C600 C 0.09552 0.53252 0.24367 0.0
H601 H 0.12568 0.62254 0.24024 0.0
H602 H 0.12382 0.59493 0.24089 0.0
H603 H 0.07525 0.55182 0.30725 0.0
H604 H 0.07145 0.47366 0.2573 0.0
H605 H 0.06934 0.49945 0.25124 0.0
C606 C 0.50451 0.11273 0.7441 0.0
C607 C 0.48839 0.09802 0.74261 0.0
C608 C 0.51924 0.11156 0.74775 0.0
C609 C 0.5364 0.08294 0.72006 0.0
H610 H 0.5726 0.11467 0.82591 0.0
C611 C 0.59916 0.08153 0.75879 0.0
C612 C 0.61419 0.09741 0.75851 0.0
C613 C 0.58324 0.08051 0.75879 0.0
C614 C 0.56268 0.1058 0.79576 0.0
H615 H 0.47517 0.07049 0.74279 0.0
H616 H 0.50102 0.06844 0.74902 0.0
H617 H 0.54588 0.1148 0.82199 0.0
H618 H 0.62421 0.12466 0.75938 0.0
H619 H 0.59661 0.12288 0.75827 0.0
H620 H 0.55337 0.07407 0.69348 0.0
C621 C 0.50219 0.08089 0.74715 0.0
C622 C 0.54735 0.10588 0.7935 0.0
C623 C 0.4874 0.08207 0.74358 0.0
C624 C 0.61292 0.11221 0.75862 0.0
C625 C 0.59706 0.11119 0.75883 0.0
C626 C 0.55179 0.08287 0.72232 0.0
C627 C 0.51828 0.09565 0.74985 0.0
C628 C 0.53412 0.09465 0.75492 0.0
C629 C 0.58202 0.09535 0.75906 0.0
C630 C 0.56521 0.09449 0.7595 0.0
H631 H 0.50581 0.12523 0.74176 0.0
H632 H 0.53143 0.12318 0.74823 0.0
H633 H 0.52651 0.0742 0.68955 0.0
H634 H 0.59971 0.0699 0.75847 0.0
H635 H 0.57189 0.0681 0.75937 0.0
C636 C 0.5124 0.60324 0.31745 0.0
C637 C 0.51976 0.61201 0.26295 0.0
C638 C 0.49757 0.58736 0.31626 0.0
C639 C 0.47099 0.55077 0.21618 0.0
H640 H 0.43514 0.54282 0.33029 0.0
C641 C 0.40258 0.49405 0.19239 0.0
C642 C 0.39358 0.48613 0.24593 0.0
C643 C 0.41847 0.50884 0.19543 0.0
C644 C 0.44509 0.54469 0.29869 0.0
H645 H 0.51752 0.61074 0.1644 0.0
H646 H 0.49157 0.58308 0.16233 0.0
H647 H 0.462 0.5695 0.334 0.0
H648 H 0.39446 0.48728 0.34468 0.0
H649 H 0.42226 0.51295 0.3501 0.0
H650 H 0.45409 0.52597 0.18081 0.0
C651 C 0.49732 0.58845 0.20599 0.0
C652 C 0.4605 0.56002 0.30079 0.0
C653 C 0.5121 0.60437 0.2072 0.0
C654 C 0.40098 0.4932 0.30259 0.0
C655 C 0.4169 0.50794 0.30565 0.0
C656 C 0.4556 0.5354 0.21423 0.0
C657 C 0.48978 0.57983 0.26054 0.0
C658 C 0.47361 0.56328 0.25938 0.0
C659 C 0.42579 0.51605 0.2521 0.0
C660 C 0.44241 0.53219 0.25526 0.0
H661 H 0.51786 0.60884 0.36121 0.0
H662 H 0.49218 0.58099 0.35906 0.0
H663 H 0.48092 0.5528 0.18416 0.0
H664 H 0.39713 0.4891 0.14798 0.0
H665 H 0.42481 0.51487 0.15323 0.0
C666 C 0.89376 0.50171 0.77465 0.0
C667 C 0.90846 0.51779 0.77038 0.0
C668 C 0.89491 0.48696 0.77483 0.0
C669 C 0.92286 0.47002 0.73105 0.0
H670 H 0.89258 0.43268 0.83579 0.0
C671 C 0.92422 0.40671 0.74945 0.0
C672 C 0.90826 0.39176 0.74979 0.0
C673 C 0.92542 0.42266 0.75396 0.0
C674 C 0.90105 0.44294 0.80596 0.0
H675 H 0.93593 0.5309 0.76313 0.0
H676 H 0.93796 0.50504 0.76429 0.0
H677 H 0.89266 0.45948 0.84103 0.0
H678 H 0.88103 0.38201 0.75248 0.0
H679 H 0.88314 0.40965 0.76097 0.0
H680 H 0.93115 0.45333 0.6958 0.0
C681 C 0.92552 0.5039 0.76686 0.0
C682 C 0.90109 0.45831 0.80891 0.0
C683 C 0.92437 0.51872 0.76677 0.0
C684 C 0.89355 0.39319 0.75379 0.0
C685 C 0.89476 0.40906 0.75853 0.0
C686 C 0.92285 0.45461 0.7282 0.0
C687 C 0.91078 0.48783 0.77097 0.0
C688 C 0.91177 0.47196 0.77078 0.0
C689 C 0.91069 0.424 0.7591 0.0
C690 C 0.91172 0.4408 0.76491 0.0
H691 H 0.88131 0.5005 0.77846 0.0
H692 H 0.88328 0.47481 0.77727 0.0
H693 H 0.93116 0.48022 0.70069 0.0
H694 H 0.9358 0.40607 0.74677 0.0
H695 H 0.93789 0.43393 0.75459 0.0
C696 C 0.51974 0.92179 0.24541 0.0
C697 C 0.51883 0.90587 0.24506 0.0
C698 C 0.50493 0.92291 0.25005 0.0
C699 C 0.46031 0.89831 0.30166 0.0
H700 H 0.45305 0.92872 0.19828 0.0
C701 C 0.39427 0.89139 0.27317 0.0
C702 C 0.39294 0.90613 0.26947 0.0
C703 C 0.41014 0.89244 0.27266 0.0
C704 C 0.45498 0.92034 0.22813 0.0
H705 H 0.50149 0.87864 0.2466 0.0
H706 H 0.47586 0.88061 0.25531 0.0
H707 H 0.47993 0.92869 0.19248 0.0
H708 H 0.40735 0.93358 0.26254 0.0
H709 H 0.43518 0.93545 0.26262 0.0
H710 H 0.43543 0.88987 0.3372 0.0
C711 C 0.48802 0.89225 0.2533 0.0
C712 C 0.47037 0.92032 0.22474 0.0
C713 C 0.50275 0.89112 0.24842 0.0
C714 C 0.40793 0.92199 0.26577 0.0
C715 C 0.42387 0.92305 0.26521 0.0
C716 C 0.44499 0.89836 0.30517 0.0
C717 C 0.48892 0.90813 0.25462 0.0
C718 C 0.4731 0.90909 0.26079 0.0
C719 C 0.42516 0.90827 0.2687 0.0
C720 C 0.44199 0.90917 0.26776 0.0
H721 H 0.53192 0.93339 0.24326 0.0
H722 H 0.50605 0.93534 0.25127 0.0
H723 H 0.46214 0.88976 0.33098 0.0
H724 H 0.38303 0.87897 0.27703 0.0
H725 H 0.41062 0.88077 0.27462 0.0
C726 C 0.50536 0.39131 0.75295 0.0
C727 C 0.48945 0.39041 0.75463 0.0
C728 C 0.52037 0.40699 0.75262 0.0
C729 C 0.53784 0.45234 0.71712 0.0
H730 H 0.57549 0.45791 0.81724 0.0
C731 C 0.60074 0.51679 0.74025 0.0
C732 C 0.61589 0.51615 0.7412 0.0
C733 C 0.58494 0.50184 0.74318 0.0
C734 C 0.56518 0.45653 0.78849 0.0
H735 H 0.47688 0.40536 0.75688 0.0
H736 H 0.5032 0.43286 0.75655 0.0
H737 H 0.54867 0.43119 0.81986 0.0
H738 H 0.62626 0.49921 0.74366 0.0
H739 H 0.59885 0.47326 0.74845 0.0
H740 H 0.55446 0.47765 0.68517 0.0
C741 C 0.50399 0.42136 0.75515 0.0
C742 C 0.54978 0.44121 0.79008 0.0
C743 C 0.48893 0.40562 0.75584 0.0
C744 C 0.61487 0.50021 0.74429 0.0
C745 C 0.59912 0.4853 0.74705 0.0
C746 C 0.55329 0.46769 0.71537 0.0
C747 C 0.51989 0.42221 0.75385 0.0
C748 C 0.53598 0.43885 0.75397 0.0
C749 C 0.58394 0.4859 0.74692 0.0
C750 C 0.56722 0.46991 0.75057 0.0
H751 H 0.50624 0.37985 0.75285 0.0
H752 H 0.5324 0.40719 0.75094 0.0
H753 H 0.52749 0.45087 0.68835 0.0
H754 H 0.6011 0.52888 0.73828 0.0
H755 H 0.57351 0.50279 0.74356 0.0
C756 C 0.12658 0.45196 0.55934 0.0
C757 C 0.12352 0.43858 0.51961 0.0
C758 C 0.12411 0.44918 0.62217 0.0
C759 C 0.12184 0.42038 0.7444 0.0
H760 H 0.098 0.43899 0.83369 0.0
C761 C 0.10172 0.40242 0.99521 0.0
C762 C 0.10304 0.41519 0.03494 0.0
C763 C 0.10408 0.40531 0.93244 0.0
C764 C 0.10489 0.43389 0.80969 0.0
H765 H 0.11574 0.41184 0.51498 0.0
H766 H 0.11142 0.40698 0.6247 0.0
H767 H 0.10266 0.44409 0.72432 0.0
H768 H 0.10761 0.441 0.03876 0.0
H769 H 0.11226 0.44622 0.92976 0.0
H770 H 0.12431 0.41036 0.82961 0.0
C771 C 0.11575 0.41963 0.60716 0.0
C772 C 0.10752 0.43679 0.74694 0.0
C773 C 0.11807 0.42238 0.54426 0.0
C774 C 0.10669 0.43092 0.00994 0.0
C775 C 0.10915 0.43385 0.94713 0.0
C776 C 0.11932 0.41758 0.8072 0.0
C777 C 0.11867 0.43299 0.6468 0.0
C778 C 0.11599 0.43002 0.71357 0.0
C779 C 0.10793 0.4211 0.90755 0.0
C780 C 0.11075 0.42424 0.84068 0.0
H781 H 0.1306 0.46454 0.5418 0.0
H782 H 0.12661 0.45976 0.65158 0.0
H783 H 0.12863 0.4152 0.72011 0.0
H784 H 0.0991 0.3902 0.01242 0.0
H785 H 0.10277 0.39509 0.90338 0.0
C786 C 0.6873 0.08822 0.48883 0.0
C787 C 0.68813 0.10046 0.53 0.0
C788 C 0.6869 0.09056 0.42596 0.0
C789 C 0.67863 0.11555 0.31073 0.0
H790 H 0.70413 0.10227 0.20445 0.0
C791 C 0.69026 0.13416 0.05579 0.0
C792 C 0.68786 0.12128 0.01453 0.0
C793 C 0.69032 0.13165 0.11869 0.0
C794 C 0.69684 0.10592 0.23351 0.0
H795 H 0.68942 0.12486 0.5374 0.0
H796 H 0.68893 0.12907 0.42795 0.0
H797 H 0.70395 0.09772 0.31407 0.0
H798 H 0.68348 0.09555 0.00792 0.0
H799 H 0.68388 0.09135 0.11725 0.0
H800 H 0.67173 0.12396 0.22997 0.0
C801 C 0.68818 0.11745 0.4441 0.0
C802 C 0.69668 0.10326 0.29634 0.0
C803 C 0.68846 0.11505 0.50695 0.0
C804 C 0.68568 0.10589 0.03792 0.0
C805 C 0.68586 0.10344 0.10076 0.0
C806 C 0.67889 0.11831 0.24792 0.0
C807 C 0.68746 0.10527 0.40276 0.0
C808 C 0.68754 0.10802 0.33578 0.0
C809 C 0.6881 0.11626 0.14184 0.0
C810 C 0.68797 0.1135 0.20863 0.0
H811 H 0.68683 0.07677 0.50532 0.0
H812 H 0.68603 0.08076 0.39557 0.0
H813 H 0.67123 0.11913 0.33954 0.0
H814 H 0.69221 0.14625 0.03962 0.0
H815 H 0.6923 0.14185 0.14923 0.0
C816 C 0.55889 0.68972 0.55741 0.0
C817 C 0.56878 0.68637 0.51646 0.0
C818 C 0.56126 0.68958 0.62033 0.0
C819 C 0.57959 0.67383 0.73708 0.0
H820 H 0.57667 0.70692 0.8404 0.0
C821 C 0.60004 0.68427 0.99046 0.0
C822 C 0.58916 0.68603 0.03166 0.0
C823 C 0.59724 0.68386 0.92766 0.0
C824 C 0.57736 0.6975 0.81216 0.0
H825 H 0.58893 0.68015 0.51036 0.0
H826 H 0.59345 0.68051 0.61952 0.0
H827 H 0.57268 0.70742 0.73062 0.0
H828 H 0.5669 0.68887 0.0393 0.0
H829 H 0.56196 0.68809 0.92965 0.0
H830 H 0.58455 0.66412 0.8188 0.0
C831 C 0.58364 0.68296 0.60303 0.0
C832 C 0.57505 0.69775 0.74926 0.0
C833 C 0.5812 0.683 0.54016 0.0
C834 C 0.57537 0.68729 0.00877 0.0
C835 C 0.57266 0.68703 0.94598 0.0
C836 C 0.58203 0.67366 0.79993 0.0
C837 C 0.57365 0.68617 0.64394 0.0
C838 C 0.57612 0.68591 0.71092 0.0
C839 C 0.58359 0.68538 0.90478 0.0
C840 C 0.58092 0.68548 0.83811 0.0
H841 H 0.54933 0.69254 0.54102 0.0
H842 H 0.55321 0.69193 0.65048 0.0
H843 H 0.58021 0.66433 0.70911 0.0
H844 H 0.61069 0.68317 0.00688 0.0
H845 H 0.60594 0.6827 0.89695 0.0
C846 C 0.91833 0.59705 0.49079 0.0
C847 C 0.90688 0.58532 0.53322 0.0
C848 C 0.91629 0.59349 0.42836 0.0
C849 C 0.88351 0.56738 0.31542 0.0
H850 H 0.92214 0.58077 0.2083 0.0
C851 C 0.87526 0.55228 0.05766 0.0
C852 C 0.88623 0.56543 0.01827 0.0
C853 C 0.87816 0.55361 0.12058 0.0
C854 C 0.91123 0.57706 0.23757 0.0
H855 H 0.88439 0.56048 0.54291 0.0
H856 H 0.88103 0.55413 0.43422 0.0
H857 H 0.92661 0.58495 0.31815 0.0
H858 H 0.9089 0.59033 0.01466 0.0
H859 H 0.91393 0.59262 0.12405 0.0
H860 H 0.86815 0.55969 0.23491 0.0
C861 C 0.8915 0.56619 0.44927 0.0
C862 C 0.91379 0.57946 0.30051 0.0
C863 C 0.89355 0.56975 0.51173 0.0
C864 C 0.90032 0.57983 0.04333 0.0
C865 C 0.90322 0.58116 0.10621 0.0
C866 C 0.88095 0.56498 0.25252 0.0
C867 C 0.90273 0.5781 0.40678 0.0
C868 C 0.89998 0.57477 0.34015 0.0
C869 C 0.8921 0.56812 0.14565 0.0
C870 C 0.89479 0.56993 0.21278 0.0
H871 H 0.92884 0.60907 0.50582 0.0
H872 H 0.92509 0.60301 0.39689 0.0
H873 H 0.87262 0.56387 0.34452 0.0
H874 H 0.86446 0.5409 0.0399 0.0
H875 H 0.8695 0.54323 0.1496 0.0
C876 C 0.32523 0.87343 0.55787 0.0
C877 C 0.32324 0.88453 0.51853 0.0
C878 C 0.32684 0.87631 0.6208 0.0
C879 C 0.33686 0.90946 0.73787 0.0
H880 H 0.3111 0.87096 0.84474 0.0
C881 C 0.324 0.91674 0.99096 0.0
C882 C 0.32417 0.90523 0.03341 0.0
C883 C 0.32552 0.91467 0.92855 0.0
C884 C 0.31858 0.88182 0.81566 0.0
H885 H 0.32138 0.90742 0.51497 0.0
H886 H 0.32417 0.91243 0.62437 0.0
H887 H 0.31078 0.86648 0.73512 0.0
H888 H 0.32631 0.88261 0.04319 0.0
H889 H 0.32928 0.8792 0.93451 0.0
H890 H 0.34447 0.92482 0.81848 0.0
C891 C 0.32476 0.90162 0.6065 0.0
C892 C 0.3184 0.87925 0.75276 0.0
C893 C 0.32316 0.89873 0.54362 0.0
C894 C 0.32629 0.89182 0.01198 0.0
C895 C 0.32779 0.88973 0.94953 0.0
C896 C 0.33704 0.91203 0.80081 0.0
C897 C 0.3265 0.89038 0.64591 0.0
C898 C 0.32741 0.89305 0.71305 0.0
C899 C 0.32723 0.90103 0.90702 0.0
C900 C 0.32779 0.89826 0.84041 0.0
H901 H 0.32563 0.86252 0.54007 0.0
H902 H 0.32842 0.86755 0.64979 0.0
H903 H 0.34416 0.92034 0.70864 0.0
H904 H 0.32257 0.9273 0.00596 0.0
H905 H 0.32489 0.92353 0.89705 0.0
C906 C 0.40318 0.30629 0.48833 0.0
C907 C 0.41634 0.317 0.52826 0.0
C908 C 0.40606 0.30664 0.42563 0.0
C909 C 0.4359 0.33299 0.30337 0.0
H910 H 0.41411 0.29056 0.21348 0.0
C911 C 0.45237 0.32735 0.05253 0.0
C912 C 0.43856 0.318 0.01314 0.0
C913 C 0.44984 0.32734 0.11543 0.0
C914 C 0.42017 0.30252 0.23789 0.0
H915 H 0.44285 0.33677 0.53252 0.0
H916 H 0.448 0.33696 0.4236 0.0
H917 H 0.40955 0.29041 0.32305 0.0
H918 H 0.4113 0.30111 0.00901 0.0
H919 H 0.40687 0.30106 0.11889 0.0
H920 H 0.44671 0.34502 0.21799 0.0
C921 C 0.43535 0.32844 0.44078 0.0
C922 C 0.41753 0.30246 0.3007 0.0
C923 C 0.43244 0.32817 0.50353 0.0
C924 C 0.42217 0.30855 0.03809 0.0
C925 C 0.41966 0.3084 0.10104 0.0
C926 C 0.43865 0.33302 0.24059 0.0
C927 C 0.4222 0.31763 0.40102 0.0
C928 C 0.42528 0.31771 0.33424 0.0
C929 C 0.43346 0.31784 0.14036 0.0
C930 C 0.43075 0.3178 0.20716 0.0
H931 H 0.39065 0.29739 0.5053 0.0
H932 H 0.39555 0.29832 0.3964 0.0
H933 H 0.44187 0.345 0.32745 0.0
H934 H 0.46512 0.3349 0.03465 0.0
H935 H 0.46073 0.33463 0.14465 0.0
C936 C 0.60172 0.91551 0.50522 0.0
C937 C 0.59033 0.9032 0.46427 0.0
C938 C 0.59897 0.9133 0.56811 0.0
C939 C 0.56562 0.88857 0.6833 0.0
H940 H 0.60428 0.90198 0.79033 0.0
C941 C 0.55843 0.8701 0.93832 0.0
C942 C 0.56882 0.883 0.97962 0.0
C943 C 0.56105 0.87261 0.87545 0.0
C944 C 0.59337 0.89831 0.76105 0.0
H945 H 0.56723 0.87879 0.45724 0.0
H946 H 0.56251 0.8748 0.56672 0.0
H947 H 0.60876 0.90638 0.68068 0.0
H948 H 0.59007 0.90879 0.98635 0.0
H949 H 0.59476 0.91299 0.87704 0.0
H950 H 0.55024 0.88027 0.76385 0.0
C951 C 0.57338 0.88638 0.55038 0.0
C952 C 0.59594 0.90087 0.6982 0.0
C953 C 0.57607 0.88866 0.48753 0.0
C954 C 0.58199 0.89842 0.95631 0.0
C955 C 0.58467 0.90088 0.8935 0.0
C956 C 0.56305 0.8859 0.74611 0.0
C957 C 0.58481 0.89865 0.59152 0.0
C958 C 0.58209 0.89605 0.65851 0.0
C959 C 0.57419 0.88803 0.85239 0.0
C960 C 0.5769 0.89075 0.78565 0.0
H961 H 0.6127 0.92693 0.48854 0.0
H962 H 0.60788 0.92316 0.59834 0.0
H963 H 0.55469 0.88496 0.65427 0.0
H964 H 0.54834 0.85798 0.95442 0.0
H965 H 0.55291 0.86239 0.84487 0.0
C966 C 0.69788 0.58317 0.45615 0.0
C967 C 0.68847 0.56679 0.48113 0.0
C968 C 0.698 0.58567 0.39321 0.0
C969 C 0.67337 0.56661 0.25367 0.0
H970 H 0.71597 0.59586 0.17121 0.0
C971 C 0.67823 0.57287 0.9907 0.0
C972 C 0.68934 0.58898 0.96601 0.0
C973 C 0.67796 0.56996 0.05345 0.0
C974 C 0.70392 0.58784 0.19356 0.0
H975 H 0.67164 0.54024 0.45964 0.0
H976 H 0.67186 0.54461 0.34964 0.0
H977 H 0.71585 0.5913 0.28076 0.0
H978 H 0.70887 0.61469 0.98905 0.0
H979 H 0.70794 0.60979 0.09793 0.0
H980 H 0.66137 0.56334 0.16682 0.0
C981 C 0.67914 0.5555 0.37885 0.0
C982 C 0.70388 0.5852 0.25635 0.0
C983 C 0.67915 0.55298 0.44175 0.0
C984 C 0.70001 0.60215 0.00599 0.0
C985 C 0.69966 0.59927 0.06868 0.0
C986 C 0.67339 0.56936 0.1909 0.0
C987 C 0.68858 0.57187 0.3539 0.0
C988 C 0.68861 0.57457 0.2871 0.0
C989 C 0.68873 0.58311 0.09325 0.0
C990 C 0.68866 0.58003 0.16002 0.0
H991 H 0.70529 0.59404 0.48523 0.0
H992 H 0.7053 0.59846 0.37535 0.0
H993 H 0.66138 0.55851 0.27628 0.0
H994 H 0.66966 0.56246 0.96168 0.0
H995 H 0.66948 0.55731 0.07061 0.0
C996 C 0.10633 0.67621 0.4912 0.0
C997 C 0.1031 0.6886 0.46632 0.0
C998 C 0.10871 0.67561 0.554 0.0
C999 C 0.11944 0.70204 0.69405 0.0
H1000 H 0.10177 0.65876 0.77678 0.0
C1001 C 0.11773 0.69587 0.95682 0.0
C1002 C 0.12292 0.68491 0.98157 0.0
C1003 C 0.11547 0.69633 0.89391 0.0
C1004 C 0.1069 0.67094 0.75419 0.0
H1005 H 0.09981 0.71006 0.48906 0.0
H1006 H 0.10333 0.7086 0.59805 0.0
H1007 H 0.09725 0.65937 0.66735 0.0
H1008 H 0.1296 0.66571 0.95964 0.0
H1009 H 0.12569 0.66655 0.84979 0.0
H1010 H 0.12887 0.71357 0.78123 0.0
C1011 C 0.10438 0.69955 0.56891 0.0
C1012 C 0.10435 0.67131 0.69142 0.0
C1013 C 0.1021 0.70022 0.50616 0.0
C1014 C 0.12577 0.67442 0.94197 0.0
C1015 C 0.12336 0.67477 0.87913 0.0
C1016 C 0.12187 0.70166 0.75686 0.0
C1017 C 0.10783 0.68731 0.59367 0.0
C1018 C 0.11058 0.68687 0.66051 0.0
C1019 C 0.1182 0.68574 0.8544 0.0
C1020 C 0.11563 0.68612 0.78762 0.0
H1021 H 0.10699 0.66691 0.4623 0.0
H1022 H 0.11151 0.6661 0.57129 0.0
H1023 H 0.12472 0.71426 0.67169 0.0
H1024 H 0.11556 0.7042 0.98603 0.0
H1025 H 0.11136 0.70483 0.87625 0.0
C1026 C 0.40602 0.08953 0.00592 0.0
C1027 C 0.41752 0.10172 0.96489 0.0
C1028 C 0.40879 0.09176 0.0688 0.0
C1029 C 0.44224 0.11621 0.18404 0.0
H1030 H 0.40366 0.10343 0.29078 0.0
C1031 C 0.44965 0.13474 0.43908 0.0
C1032 C 0.43907 0.12194 0.48035 0.0
C1033 C 0.44703 0.13226 0.3762 0.0
C1034 C 0.41454 0.10693 0.26159 0.0
H1035 H 0.44084 0.12594 0.95775 0.0
H1036 H 0.44559 0.12996 0.06723 0.0
H1037 H 0.39917 0.09902 0.18114 0.0
H1038 H 0.41747 0.09635 0.48702 0.0
H1039 H 0.41278 0.09221 0.3777 0.0
H1040 H 0.4576 0.12433 0.26467 0.0
C1041 C 0.43462 0.11846 0.05094 0.0
C1042 C 0.41198 0.10435 0.19875 0.0
C1043 C 0.4319 0.11616 0.98809 0.0
C1044 C 0.4257 0.10665 0.457 0.0
C1045 C 0.42302 0.10422 0.39417 0.0
C1046 C 0.44481 0.11888 0.24685 0.0
C1047 C 0.42307 0.10631 0.09215 0.0
C1048 C 0.42579 0.10894 0.15914 0.0
C1049 C 0.43369 0.11697 0.35308 0.0
C1050 C 0.43098 0.11426 0.28631 0.0
H1051 H 0.39494 0.07819 0.98931 0.0
H1052 H 0.39978 0.082 0.09909 0.0
H1053 H 0.45315 0.11964 0.15509 0.0
H1054 H 0.4599 0.14676 0.45524 0.0
H1055 H 0.45533 0.14241 0.34565 0.0
C1056 C 0.30992 0.42109 0.96138 0.0
C1057 C 0.31959 0.43744 0.98635 0.0
C1058 C 0.30973 0.41855 0.89842 0.0
C1059 C 0.33453 0.43732 0.75894 0.0
H1060 H 0.29183 0.40855 0.67627 0.0
C1061 C 0.32973 0.43118 0.496 0.0
C1062 C 0.3185 0.41512 0.4712 0.0
C1063 C 0.32999 0.43409 0.55875 0.0
C1064 C 0.3039 0.41644 0.69868 0.0
H1065 H 0.3368 0.46391 0.96481 0.0
H1066 H 0.33645 0.45949 0.85484 0.0
H1067 H 0.29199 0.41314 0.78583 0.0
H1068 H 0.29872 0.38951 0.49397 0.0
H1069 H 0.29961 0.3944 0.60291 0.0
H1070 H 0.34651 0.44043 0.67215 0.0
C1071 C 0.32902 0.44864 0.88404 0.0
C1072 C 0.30397 0.4191 0.76149 0.0
C1073 C 0.32908 0.45119 0.94694 0.0
C1074 C 0.30768 0.402 0.51104 0.0
C1075 C 0.30801 0.40488 0.57374 0.0
C1076 C 0.33448 0.43456 0.69617 0.0
C1077 C 0.31934 0.43229 0.8591 0.0
C1078 C 0.31928 0.42956 0.7923 0.0
C1079 C 0.31908 0.42098 0.59843 0.0
C1080 C 0.31917 0.42406 0.66522 0.0
H1081 H 0.30236 0.41026 0.99046 0.0
H1082 H 0.30224 0.40579 0.88058 0.0
H1083 H 0.34655 0.44529 0.78159 0.0
H1084 H 0.33841 0.44155 0.46707 0.0
H1085 H 0.33858 0.4467 0.57599 0.0
C1086 C 0.88138 0.3299 0.44192 0.0
C1087 C 0.88435 0.31952 0.48171 0.0
C1088 C 0.88384 0.32954 0.37911 0.0
C1089 C 0.88579 0.30279 0.25713 0.0
H1090 H 0.90998 0.34511 0.16754 0.0
C1091 C 0.90558 0.30448 0.00619 0.0
C1092 C 0.90436 0.31599 0.96646 0.0
C1093 C 0.90333 0.30512 0.06898 0.0
C1094 C 0.90299 0.33316 0.19163 0.0
H1095 H 0.89196 0.30043 0.4865 0.0
H1096 H 0.89626 0.2998 0.37679 0.0
H1097 H 0.9054 0.34568 0.27692 0.0
H1098 H 0.90012 0.33746 0.96266 0.0
H1099 H 0.89563 0.33819 0.07168 0.0
H1100 H 0.88313 0.29022 0.17201 0.0
C1101 C 0.89202 0.30821 0.39428 0.0
C1102 C 0.90041 0.3335 0.25438 0.0
C1103 C 0.8897 0.30868 0.45716 0.0
C1104 C 0.90094 0.32823 0.99148 0.0
C1105 C 0.89858 0.3288 0.0543 0.0
C1106 C 0.88826 0.30244 0.19434 0.0
C1107 C 0.88918 0.31869 0.35459 0.0
C1108 C 0.89182 0.31832 0.28784 0.0
C1109 C 0.89969 0.3172 0.09388 0.0
C1110 C 0.89695 0.31762 0.16075 0.0
H1111 H 0.87742 0.33853 0.45942 0.0
H1112 H 0.88142 0.33767 0.34964 0.0
H1113 H 0.87891 0.29088 0.28153 0.0
H1114 H 0.90803 0.29476 0.98895 0.0
H1115 H 0.90454 0.29614 0.09806 0.0
C1116 C 0.15555 0.41079 0.20428 0.0
C1117 C 0.14614 0.40978 0.25658 0.0
C1118 C 0.16768 0.40564 0.206 0.0
C1119 C 0.19763 0.40449 0.31172 0.0
H1120 H 0.20714 0.38215 0.1793 0.0
C1121 C 0.26037 0.40402 0.31025 0.0
C1122 C 0.26884 0.40724 0.25414 0.0
C1123 C 0.24322 0.39937 0.31272 0.0
C1124 C 0.20477 0.38852 0.21653 0.0
H1125 H 0.14151 0.4019 0.35111 0.0
H1126 H 0.16314 0.39317 0.35468 0.0
H1127 H 0.18055 0.3828 0.17987 0.0
H1128 H 0.26601 0.40751 0.15635 0.0
H1129 H 0.23616 0.40007 0.1602 0.0
H1130 H 0.22209 0.41124 0.3467 0.0
C1131 C 0.16096 0.39785 0.31216 0.0
C1132 C 0.18945 0.38877 0.21702 0.0
C1133 C 0.14853 0.40274 0.31008 0.0
C1134 C 0.25965 0.40484 0.20013 0.0
C1135 C 0.24251 0.40057 0.20256 0.0
C1136 C 0.213 0.40444 0.31086 0.0
C1137 C 0.17092 0.39961 0.2604 0.0
C1138 C 0.18585 0.39702 0.26412 0.0
C1139 C 0.23421 0.39836 0.25912 0.0
C1140 C 0.21697 0.39671 0.26274 0.0
H1141 H 0.15392 0.41612 0.16231 0.0
H1142 H 0.17521 0.40731 0.16554 0.0
H1143 H 0.19539 0.41121 0.34808 0.0
H1144 H 0.26723 0.40575 0.35255 0.0
H1145 H 0.23722 0.39722 0.35702 0.0
C1146 C 0.85203 0.25932 0.79551 0.0
C1147 C 0.86132 0.26777 0.74312 0.0
C1148 C 0.83985 0.24209 0.79355 0.0
C1149 C 0.80955 0.21141 0.68792 0.0
H1150 H 0.80022 0.17921 0.81885 0.0
C1151 C 0.74669 0.14844 0.68925 0.0
C1152 C 0.73836 0.14301 0.74555 0.0
C1153 C 0.76383 0.16092 0.68654 0.0
C1154 C 0.80254 0.18805 0.78206 0.0
H1155 H 0.86571 0.26469 0.64815 0.0
H1156 H 0.84399 0.23441 0.64418 0.0
H1157 H 0.82689 0.2063 0.81828 0.0
H1158 H 0.74143 0.1458 0.84336 0.0
H1159 H 0.77126 0.1682 0.83911 0.0
H1160 H 0.78495 0.19394 0.65347 0.0
C1161 C 0.8463 0.24118 0.68695 0.0
C1162 C 0.8179 0.20353 0.78154 0.0
C1163 C 0.85878 0.25845 0.68925 0.0
C1164 C 0.74768 0.14964 0.79943 0.0
C1165 C 0.7648 0.1625 0.79677 0.0
C1166 C 0.79412 0.19608 0.68883 0.0
C1167 C 0.83645 0.23293 0.73883 0.0
C1168 C 0.82145 0.2155 0.73498 0.0
C1169 C 0.77296 0.16873 0.7401 0.0
C1170 C 0.79023 0.18425 0.73642 0.0
H1171 H 0.85378 0.2662 0.83774 0.0
H1172 H 0.83241 0.23619 0.83411 0.0
H1173 H 0.81174 0.22047 0.65202 0.0
H1174 H 0.73974 0.14342 0.64704 0.0
H1175 H 0.76971 0.16489 0.64212 0.0
C1176 C 0.60194 0.85621 0.30084 0.0
C1177 C 0.59837 0.86128 0.24498 0.0
C1178 C 0.60673 0.84381 0.30293 0.0
C1179 C 0.61737 0.8162 0.20592 0.0
H1180 H 0.59558 0.78448 0.33899 0.0
C1181 C 0.59553 0.74485 0.19554 0.0
C1182 C 0.59686 0.73667 0.24789 0.0
C1183 C 0.60061 0.7621 0.19671 0.0
C1184 C 0.60205 0.79335 0.30218 0.0
H1185 H 0.59762 0.85796 0.14721 0.0
H1186 H 0.60529 0.83571 0.15046 0.0
H1187 H 0.59527 0.81099 0.33761 0.0
H1188 H 0.60528 0.74028 0.34185 0.0
H1189 H 0.61392 0.77059 0.34444 0.0
H1190 H 0.62311 0.79776 0.16887 0.0
C1191 C 0.60495 0.84163 0.19287 0.0
C1192 C 0.60194 0.80867 0.30132 0.0
C1193 C 0.60055 0.8544 0.19078 0.0
C1194 C 0.6042 0.7463 0.30078 0.0
C1195 C 0.60903 0.76358 0.30231 0.0
C1196 C 0.61727 0.80072 0.20643 0.0
C1197 C 0.60753 0.83573 0.24924 0.0
C1198 C 0.60935 0.82024 0.2527 0.0
C1199 C 0.60691 0.77156 0.25061 0.0
C1200 C 0.60935 0.789 0.25408 0.0
H1201 H 0.60039 0.86141 0.34327 0.0
H1202 H 0.60915 0.84011 0.34707 0.0
H1203 H 0.62349 0.82485 0.16828 0.0
H1204 H 0.58996 0.73773 0.15405 0.0
H1205 H 0.59867 0.76778 0.15631 0.0
C1206 C 0.86039 0.60333 0.79983 0.0
C1207 C 0.86273 0.5961 0.74671 0.0
C1208 C 0.84787 0.6081 0.80167 0.0
C1209 C 0.81885 0.61639 0.70643 0.0
H1210 H 0.78682 0.5945 0.83824 0.0
C1211 C 0.74846 0.59989 0.69277 0.0
C1212 C 0.73952 0.59773 0.74724 0.0
C1213 C 0.76564 0.60427 0.69436 0.0
C1214 C 0.79574 0.60113 0.80178 0.0
H1215 H 0.85476 0.58933 0.6528 0.0
H1216 H 0.8333 0.59792 0.65564 0.0
H1217 H 0.81361 0.5947 0.83884 0.0
H1218 H 0.7416 0.59976 0.84549 0.0
H1219 H 0.77167 0.60849 0.84842 0.0
H1220 H 0.8009 0.62268 0.6689 0.0
C1221 C 0.84095 0.59983 0.69597 0.0
C1222 C 0.81116 0.60118 0.80218 0.0
C1223 C 0.85319 0.59481 0.69447 0.0
C1224 C 0.74826 0.60131 0.80286 0.0
C1225 C 0.76546 0.60607 0.80445 0.0
C1226 C 0.80349 0.61655 0.70638 0.0
C1227 C 0.83776 0.60603 0.75008 0.0
C1228 C 0.82273 0.60846 0.75387 0.0
C1229 C 0.77422 0.60683 0.75049 0.0
C1230 C 0.79151 0.60857 0.75341 0.0
H1231 H 0.8675 0.60438 0.84083 0.0
H1232 H 0.84575 0.61292 0.84396 0.0
H1233 H 0.82758 0.62221 0.66872 0.0
H1234 H 0.74189 0.59694 0.64937 0.0
H1235 H 0.7718 0.60458 0.65175 0.0
C1236 C 0.2598 0.85536 0.29896 0.0
C1237 C 0.26907 0.86203 0.24502 0.0
C1238 C 0.24272 0.84241 0.29644 0.0
C1239 C 0.21346 0.80868 0.18871 0.0
H1240 H 0.18082 0.79819 0.31882 0.0
C1241 C 0.14889 0.74613 0.18986 0.0
C1242 C 0.14645 0.73677 0.24357 0.0
C1243 C 0.16137 0.76339 0.1875 0.0
C1244 C 0.18977 0.80103 0.28191 0.0
H1245 H 0.26762 0.86157 0.14653 0.0
H1246 H 0.2377 0.83994 0.14184 0.0
H1247 H 0.20735 0.82541 0.31908 0.0
H1248 H 0.15423 0.7383 0.33789 0.0
H1249 H 0.17561 0.76832 0.33418 0.0
H1250 H 0.19593 0.78424 0.152 0.0
C1251 C 0.2436 0.84395 0.18621 0.0
C1252 C 0.20506 0.81659 0.28224 0.0
C1253 C 0.26071 0.85654 0.18879 0.0
C1254 C 0.15589 0.74519 0.29577 0.0
C1255 C 0.16807 0.76243 0.29377 0.0
C1256 C 0.19811 0.79328 0.18798 0.0
C1257 C 0.23453 0.83611 0.23985 0.0
C1258 C 0.21733 0.82049 0.23635 0.0
C1259 C 0.17133 0.77162 0.23919 0.0
C1260 C 0.18626 0.78909 0.23528 0.0
H1261 H 0.26607 0.85924 0.34286 0.0
H1262 H 0.23632 0.83668 0.33885 0.0
H1263 H 0.22261 0.81089 0.15315 0.0
H1264 H 0.14184 0.73992 0.14891 0.0
H1265 H 0.16357 0.77019 0.14485 0.0
C1266 C 0.40574 0.25807 0.80142 0.0
C1267 C 0.4077 0.26704 0.74719 0.0
C1268 C 0.40149 0.24095 0.79941 0.0
C1269 C 0.40476 0.21119 0.69083 0.0
H1270 H 0.38427 0.17924 0.82391 0.0
C1271 C 0.40364 0.14704 0.69218 0.0
C1272 C 0.41106 0.14489 0.74514 0.0
C1273 C 0.39865 0.15938 0.69041 0.0
C1274 C 0.38992 0.188 0.78618 0.0
H1275 H 0.40547 0.26506 0.64896 0.0
H1276 H 0.39695 0.23506 0.64534 0.0
H1277 H 0.38338 0.20569 0.8244 0.0
H1278 H 0.41798 0.15302 0.83884 0.0
H1279 H 0.409 0.17417 0.83614 0.0
H1280 H 0.41146 0.19359 0.65311 0.0
C1281 C 0.39941 0.24122 0.68941 0.0
C1282 C 0.38952 0.20323 0.78662 0.0
C1283 C 0.40405 0.25836 0.69142 0.0
C1284 C 0.41236 0.15447 0.79728 0.0
C1285 C 0.40711 0.16652 0.79587 0.0
C1286 C 0.40495 0.1959 0.69005 0.0
C1287 C 0.39886 0.23245 0.74308 0.0
C1288 C 0.39731 0.21526 0.73963 0.0
C1289 C 0.40067 0.1695 0.74196 0.0
C1290 C 0.3979 0.18431 0.73839 0.0
H1291 H 0.40876 0.2646 0.84491 0.0
H1292 H 0.40134 0.23478 0.84179 0.0
H1293 H 0.41124 0.22015 0.65435 0.0
H1294 H 0.40257 0.13988 0.65129 0.0
H1295 H 0.39365 0.16136 0.64827 0.0
loop_
_geom_bond_atom_site_label_1
_geom_bond_atom_site_label_2
_geom_bond_distance
_geom_bond_site_symmetry_2
_ccdc_geom_bond_type
C0 C1 1.351 . S
C0 N3 1.368 . S
C0 H5 0.931 . S
C1 C0 1.351 . S
C1 N2 1.373 . S
C1 H29 0.930 . S
N2 C1 1.373 . S
N2 C4 1.340 . S
N3 C0 1.368 . S
N3 C4 1.321 . S
N3 Co6 2.135 . S
C4 N2 1.340 . S
C4 N3 1.321 . S
C4 H28 0.930 . S
H5 C0 0.931 . S
Co6 N3 2.135 . S
Co6 N9 2.121 . S
Co6 O14 2.055 . S
Co6 O17 2.039 . S
Co6 N20 2.140 . S
C7 O8 1.227 . S
C7 O17 1.265 . S
O8 C7 1.227 . S
N9 Co6 2.121 . S
N9 C11 1.375 . S
N9 C12 1.313 . S
C10 C11 1.338 . S
C10 N13 1.377 . S
C10 H30 0.930 . S
C11 N9 1.375 . S
C11 C10 1.338 . S
C11 H15 0.931 . S
C12 N9 1.313 . S
C12 N13 1.344 . S
C12 H16 0.930 . S
N13 C10 1.377 . S
N13 C12 1.344 . S
O14 Co6 2.055 . S
O14 C18 1.253 . S
H15 C11 0.931 . S
H16 C12 0.930 . S
O17 Co6 2.039 . S
O17 C7 1.265 . S
C18 O14 1.253 . S
C18 O19 1.227 . S
O19 C18 1.227 . S
N20 Co6 2.140 . S
N20 C23 1.346 . S
N20 C24 1.345 . S
C21 C22 1.387 . S
C21 C25 1.391 . S
C22 C21 1.387 . S
C22 C23 1.369 . S
C22 H31 0.929 . S
C23 N20 1.346 . S
C23 C22 1.369 . S
C23 H26 0.928 . S
C24 N20 1.345 . S
C24 C25 1.371 . S
C24 H27 0.931 . S
C25 C21 1.391 . S
C25 C24 1.371 . S
C25 H32 0.930 . S
H26 C23 0.928 . S
H27 C24 0.931 . S
H28 C4 0.930 . S
H29 C1 0.930 . S
H30 C10 0.930 . S
H31 C22 0.929 . S
H32 C25 0.930 . S
C33 C34 1.351 1_556 S
C33 N36 1.368 . S
C33 H38 0.931 . S
C34 C33 1.351 1_554 S
C34 N35 1.373 . S
C34 H62 0.930 . S
N35 C34 1.373 . S
N35 C37 1.340 1_554 S
N36 C33 1.368 . S
N36 C37 1.321 . S
N36 Co39 2.135 . S
C37 N35 1.340 1_556 S
C37 N36 1.321 . S
C37 H61 0.930 . S
H38 C33 0.931 . S
Co39 N36 2.135 . S
Co39 N42 2.121 . S
Co39 O47 2.055 . S
Co39 O50 2.039 . S
Co39 N53 2.140 . S
C40 O41 1.227 . S
C40 O50 1.265 . S
O41 C40 1.227 . S
N42 Co39 2.121 . S
N42 C44 1.375 . S
N42 C45 1.313 . S
C43 C44 1.338 . S
C43 N46 1.377 . S
C43 H63 0.930 . S
C44 N42 1.375 . S
C44 C43 1.338 . S
C44 H48 0.931 . S
C45 N42 1.313 . S
C45 N46 1.344 . S
C45 H49 0.930 . S
N46 C43 1.377 . S
N46 C45 1.344 . S
O47 Co39 2.055 . S
O47 C51 1.253 . S
H48 C44 0.931 . S
H49 C45 0.930 . S
O50 Co39 2.039 . S
O50 C40 1.265 . S
C51 O47 1.253 . S
C51 O52 1.227 . S
O52 C51 1.227 . S
N53 Co39 2.140 . S
N53 C56 1.346 . S
N53 C57 1.345 . S
C54 C55 1.387 . S
C54 C58 1.391 . S
C55 C54 1.387 . S
C55 C56 1.369 . S
C55 H64 0.929 . S
C56 N53 1.346 . S
C56 C55 1.369 . S
C56 H59 0.928 . S
C57 N53 1.345 . S
C57 C58 1.371 . S
C57 H60 0.931 . S
C58 C54 1.391 . S
C58 C57 1.371 . S
C58 H65 0.930 . S
H59 C56 0.928 . S
H60 C57 0.931 . S
H61 C37 0.930 . S
H62 C34 0.930 . S
H63 C43 0.930 . S
H64 C55 0.929 . S
H65 C58 0.930 . S
C66 C67 1.351 . S
C66 N69 1.368 . S
C66 H71 0.931 . S
C67 C66 1.351 . S
C67 N68 1.373 . S
C67 H95 0.930 . S
N68 C67 1.373 . S
N68 C70 1.340 . S
N69 C66 1.368 . S
N69 C70 1.321 . S
N69 Co72 2.135 . S
C70 N68 1.340 . S
C70 N69 1.321 . S
C70 H94 0.930 . S
H71 C66 0.931 . S
Co72 N69 2.135 . S
Co72 N75 2.121 . S
Co72 O80 2.055 . S
Co72 O83 2.039 . S
Co72 N86 2.140 . S
C73 O74 1.227 . S
C73 O83 1.265 . S
O74 C73 1.227 . S
N75 Co72 2.121 . S
N75 C77 1.375 . S
N75 C78 1.313 . S
C76 C77 1.338 . S
C76 N79 1.377 . S
C76 H96 0.930 . S
C77 N75 1.375 . S
C77 C76 1.338 . S
C77 H81 0.931 . S
C78 N75 1.313 . S
C78 N79 1.344 . S
C78 H82 0.930 . S
N79 C76 1.377 . S
N79 C78 1.344 . S
O80 Co72 2.055 . S
O80 C84 1.253 . S
H81 C77 0.931 . S
H82 C78 0.930 . S
O83 Co72 2.039 . S
O83 C73 1.265 . S
C84 O80 1.253 . S
C84 O85 1.227 . S
O85 C84 1.227 . S
N86 Co72 2.140 . S
N86 C89 1.346 . S
N86 C90 1.345 . S
C87 C88 1.387 . S
C87 C91 1.391 . S
C88 C87 1.387 . S
C88 C89 1.369 . S
C88 H97 0.929 . S
C89 N86 1.346 . S
C89 C88 1.369 . S
C89 H92 0.928 . S
C90 N86 1.345 . S
C90 C91 1.371 . S
C90 H93 0.931 . S
C91 C87 1.391 . S
C91 C90 1.371 . S
C91 H98 0.930 . S
H92 C89 0.928 . S
H93 C90 0.931 . S
H94 C70 0.930 . S
H95 C67 0.930 . S
H96 C76 0.930 . S
H97 C88 0.929 . S
H98 C91 0.930 . S
C99 C100 1.351 1_556 S
C99 N102 1.368 . S
C99 H104 0.931 . S
C100 C99 1.351 1_554 S
C100 N101 1.373 . S
C100 H128 0.930 . S
N101 C100 1.373 . S
N101 C103 1.340 1_554 S
N102 C99 1.368 . S
N102 C103 1.321 . S
N102 Co105 2.135 . S
C103 N101 1.340 1_556 S
C103 N102 1.321 . S
C103 H127 0.930 . S
H104 C99 0.931 . S
Co105 N102 2.135 . S
Co105 N108 2.121 . S
Co105 O113 2.055 . S
Co105 O116 2.039 . S
Co105 N119 2.140 . S
C106 O107 1.227 . S
C106 O116 1.265 . S
O107 C106 1.227 . S
N108 Co105 2.121 . S
N108 C110 1.375 . S
N108 C111 1.313 . S
C109 C110 1.338 . S
C109 N112 1.377 . S
C109 H129 0.930 . S
C110 N108 1.375 . S
C110 C109 1.338 . S
C110 H114 0.931 . S
C111 N108 1.313 . S
C111 N112 1.344 . S
C111 H115 0.930 . S
N112 C109 1.377 . S
N112 C111 1.344 . S
O113 Co105 2.055 . S
O113 C117 1.253 . S
H114 C110 0.931 . S
H115 C111 0.930 . S
O116 Co105 2.039 . S
O116 C106 1.265 . S
C117 O113 1.253 . S
C117 O118 1.227 . S
O118 C117 1.227 . S
N119 Co105 2.140 . S
N119 C122 1.346 . S
N119 C123 1.345 . S
C120 C121 1.387 . S
C120 C124 1.391 . S
C121 C120 1.387 . S
C121 C122 1.369 . S
C121 H130 0.929 . S
C122 N119 1.346 . S
C122 C121 1.369 . S
C122 H125 0.928 . S
C123 N119 1.345 . S
C123 C124 1.371 . S
C123 H126 0.931 . S
C124 C120 1.391 . S
C124 C123 1.371 . S
C124 H131 0.930 . S
H125 C122 0.928 . S
H126 C123 0.931 . S
H127 C103 0.930 . S
H128 C100 0.930 . S
H129 C109 0.930 . S
H130 C121 0.929 . S
H131 C124 0.930 . S
C132 C133 1.351 . S
C132 N135 1.368 . S
C132 H137 0.931 . S
C133 C132 1.351 . S
C133 N134 1.373 . S
C133 H161 0.930 . S
N134 C133 1.373 . S
N134 C136 1.340 . S
N135 C132 1.368 . S
N135 C136 1.321 . S
N135 Co138 2.135 . S
C136 N134 1.340 . S
C136 N135 1.321 . S
C136 H160 0.930 . S
H137 C132 0.931 . S
Co138 N135 2.135 . S
Co138 N141 2.121 . S
Co138 O146 2.055 . S
Co138 O149 2.039 . S
Co138 N152 2.140 . S
C139 O140 1.227 . S
C139 O149 1.265 . S
O140 C139 1.227 . S
N141 Co138 2.121 . S
N141 C143 1.375 . S
N141 C144 1.313 . S
C142 C143 1.338 . S
C142 N145 1.377 . S
C142 H162 0.930 . S
C143 N141 1.375 . S
C143 C142 1.338 . S
C143 H147 0.931 . S
C144 N141 1.313 . S
C144 N145 1.344 . S
C144 H148 0.930 . S
N145 C142 1.377 . S
N145 C144 1.344 . S
O146 Co138 2.055 . S
O146 C150 1.253 . S
H147 C143 0.931 . S
H148 C144 0.930 . S
O149 Co138 2.039 . S
O149 C139 1.265 . S
C150 O146 1.253 . S
C150 O151 1.227 . S
O151 C150 1.227 . S
N152 Co138 2.140 . S
N152 C155 1.346 . S
N152 C156 1.345 . S
C153 C154 1.387 . S
C153 C157 1.391 . S
C154 C153 1.387 . S
C154 C155 1.369 . S
C154 H163 0.929 . S
C155 N152 1.346 . S
C155 C154 1.369 . S
C155 H158 0.928 . S
C156 N152 1.345 . S
C156 C157 1.371 . S
C156 H159 0.931 . S
C157 C153 1.391 . S
C157 C156 1.371 . S
C157 H164 0.930 . S
H158 C155 0.928 . S
H159 C156 0.931 . S
H160 C136 0.930 . S
H161 C133 0.930 . S
H162 C142 0.930 . S
H163 C154 0.929 . S
H164 C157 0.930 . S
C165 C166 1.351 1_556 S
C165 N168 1.368 . S
C165 H170 0.931 . S
C166 C165 1.351 1_554 S
C166 N167 1.373 . S
C166 H194 0.930 . S
N167 C166 1.373 . S
N167 C169 1.340 1_554 S
N168 C165 1.368 . S
N168 C169 1.321 . S
N168 Co171 2.135 . S
C169 N167 1.340 1_556 S
C169 N168 1.321 . S
C169 H193 0.930 . S
H170 C165 0.931 . S
Co171 N168 2.135 . S
Co171 N174 2.121 . S
Co171 O179 2.055 . S
Co171 O182 2.039 . S
Co171 N185 2.140 . S
C172 O173 1.227 . S
C172 O182 1.265 . S
O173 C172 1.227 . S
N174 Co171 2.121 . S
N174 C176 1.375 . S
N174 C177 1.313 . S
C175 C176 1.338 . S
C175 N178 1.377 . S
C175 H195 0.930 . S
C176 N174 1.375 . S
C176 C175 1.338 . S
C176 H180 0.931 . S
C177 N174 1.313 . S
C177 N178 1.344 . S
C177 H181 0.930 . S
N178 C175 1.377 . S
N178 C177 1.344 . S
O179 Co171 2.055 . S
O179 C183 1.253 . S
H180 C176 0.931 . S
H181 C177 0.930 . S
O182 Co171 2.039 . S
O182 C172 1.265 . S
C183 O179 1.253 . S
C183 O184 1.227 . S
O184 C183 1.227 . S
N185 Co171 2.140 . S
N185 C188 1.346 . S
N185 C189 1.345 . S
C186 C187 1.387 . S
C186 C190 1.391 . S
C187 C186 1.387 . S
C187 C188 1.369 . S
C187 H196 0.929 . S
C188 N185 1.346 . S
C188 C187 1.369 . S
C188 H191 0.928 . S
C189 N185 1.345 . S
C189 C190 1.371 . S
C189 H192 0.931 . S
C190 C186 1.391 . S
C190 C189 1.371 . S
C190 H197 0.930 . S
H191 C188 0.928 . S
H192 C189 0.931 . S
H193 C169 0.930 . S
H194 C166 0.930 . S
H195 C175 0.930 . S
H196 C187 0.929 . S
H197 C190 0.930 . S
C198 C199 1.351 1_554 S
C198 N201 1.368 . S
C198 H203 0.931 . S
C199 C198 1.351 1_556 S
C199 N200 1.373 . S
C199 H227 0.930 . S
N200 C199 1.373 . S
N200 C202 1.340 1_556 S
N201 C198 1.368 . S
N201 C202 1.321 . S
N201 Co204 2.135 . S
C202 N200 1.340 1_554 S
C202 N201 1.321 . S
C202 H226 0.930 . S
H203 C198 0.931 . S
Co204 N201 2.135 . S
Co204 N207 2.121 . S
Co204 O212 2.055 . S
Co204 O215 2.039 . S
Co204 N218 2.140 . S
C205 O206 1.227 . S
C205 O215 1.265 . S
O206 C205 1.227 . S
N207 Co204 2.121 . S
N207 C209 1.375 . S
N207 C210 1.313 . S
C208 C209 1.338 . S
C208 N211 1.377 . S
C208 H228 0.930 . S
C209 N207 1.375 . S
C209 C208 1.338 . S
C209 H213 0.931 . S
C210 N207 1.313 . S
C210 N211 1.344 . S
C210 H214 0.930 . S
N211 C208 1.377 . S
N211 C210 1.344 . S
O212 Co204 2.055 . S
O212 C216 1.253 . S
H213 C209 0.931 . S
H214 C210 0.930 . S
O215 Co204 2.039 . S
O215 C205 1.265 . S
C216 O212 1.253 . S
C216 O217 1.227 . S
O217 C216 1.227 . S
N218 Co204 2.140 . S
N218 C221 1.346 . S
N218 C222 1.345 . S
C219 C220 1.387 . S
C219 C223 1.391 . S
C220 C219 1.387 . S
C220 C221 1.369 . S
C220 H229 0.929 . S
C221 N218 1.346 . S
C221 C220 1.369 . S
C221 H224 0.928 . S
C222 N218 1.345 . S
C222 C223 1.371 . S
C222 H225 0.931 . S
C223 C219 1.391 . S
C223 C222 1.371 . S
C223 H230 0.930 . S
H224 C221 0.928 . S
H225 C222 0.931 . S
H226 C202 0.930 . S
H227 C199 0.930 . S
H228 C208 0.930 . S
H229 C220 0.929 . S
H230 C223 0.930 . S
C231 C232 1.351 . S
C231 N234 1.368 . S
C231 H236 0.931 . S
C232 C231 1.351 . S
C232 N233 1.373 . S
C232 H260 0.930 . S
N233 C232 1.373 . S
N233 C235 1.340 . S
N234 C231 1.368 . S
N234 C235 1.321 . S
N234 Co237 2.135 . S
C235 N233 1.340 . S
C235 N234 1.321 . S
C235 H259 0.930 . S
H236 C231 0.931 . S
Co237 N234 2.135 . S
Co237 N240 2.121 . S
Co237 O245 2.055 . S
Co237 O248 2.039 . S
Co237 N251 2.140 . S
C238 O239 1.227 . S
C238 O248 1.265 . S
O239 C238 1.227 . S
N240 Co237 2.121 . S
N240 C242 1.375 . S
N240 C243 1.313 . S
C241 C242 1.338 . S
C241 N244 1.377 . S
C241 H261 0.930 . S
C242 N240 1.375 . S
C242 C241 1.338 . S
C242 H246 0.931 . S
C243 N240 1.313 . S
C243 N244 1.344 . S
C243 H247 0.930 . S
N244 C241 1.377 . S
N244 C243 1.344 . S
O245 Co237 2.055 . S
O245 C249 1.253 . S
H246 C242 0.931 . S
H247 C243 0.930 . S
O248 Co237 2.039 . S
O248 C238 1.265 . S
C249 O245 1.253 . S
C249 O250 1.227 . S
O250 C249 1.227 . S
N251 Co237 2.140 . S
N251 C254 1.346 . S
N251 C255 1.345 . S
C252 C253 1.387 . S
C252 C256 1.391 . S
C253 C252 1.387 . S
C253 C254 1.369 . S
C253 H262 0.929 . S
C254 N251 1.346 . S
C254 C253 1.369 . S
C254 H257 0.928 . S
C255 N251 1.345 . S
C255 C256 1.371 . S
C255 H258 0.931 . S
C256 C252 1.391 . S
C256 C255 1.371 . S
C256 H263 0.930 . S
H257 C254 0.928 . S
H258 C255 0.931 . S
H259 C235 0.930 . S
H260 C232 0.930 . S
H261 C241 0.930 . S
H262 C253 0.929 . S
H263 C256 0.930 . S
C264 C265 1.351 1_554 S
C264 N267 1.368 . S
C264 H269 0.931 . S
C265 C264 1.351 1_556 S
C265 N266 1.373 . S
C265 H293 0.930 . S
N266 C265 1.373 . S
N266 C268 1.340 1_556 S
N267 C264 1.368 . S
N267 C268 1.321 . S
N267 Co270 2.135 . S
C268 N266 1.340 1_554 S
C268 N267 1.321 . S
C268 H292 0.930 . S
H269 C264 0.931 . S
Co270 N267 2.135 . S
Co270 N273 2.121 . S
Co270 O278 2.055 . S
Co270 O281 2.039 . S
Co270 N284 2.140 . S
C271 O272 1.227 . S
C271 O281 1.265 . S
O272 C271 1.227 . S
N273 Co270 2.121 . S
N273 C275 1.375 . S
N273 C276 1.313 . S
C274 C275 1.338 . S
C274 N277 1.377 . S
C274 H294 0.930 . S
C275 N273 1.375 . S
C275 C274 1.338 . S
C275 H279 0.931 . S
C276 N273 1.313 . S
C276 N277 1.344 . S
C276 H280 0.930 . S
N277 C274 1.377 . S
N277 C276 1.344 . S
O278 Co270 2.055 . S
O278 C282 1.253 . S
H279 C275 0.931 . S
H280 C276 0.930 . S
O281 Co270 2.039 . S
O281 C271 1.265 . S
C282 O278 1.253 . S
C282 O283 1.227 . S
O283 C282 1.227 . S
N284 Co270 2.140 . S
N284 C287 1.346 . S
N284 C288 1.345 . S
C285 C286 1.387 . S
C285 C289 1.391 . S
C286 C285 1.387 . S
C286 C287 1.369 . S
C286 H295 0.929 . S
C287 N284 1.346 . S
C287 C286 1.369 . S
C287 H290 0.928 . S
C288 N284 1.345 . S
C288 C289 1.371 . S
C288 H291 0.931 . S
C289 C285 1.391 . S
C289 C288 1.371 . S
C289 H296 0.930 . S
H290 C287 0.928 . S
H291 C288 0.931 . S
H292 C268 0.930 . S
H293 C265 0.930 . S
H294 C274 0.930 . S
H295 C286 0.929 . S
H296 C289 0.930 . S
C297 C298 1.351 . S
C297 N300 1.368 . S
C297 H302 0.931 . S
C298 C297 1.351 . S
C298 N299 1.373 . S
C298 H326 0.930 . S
N299 C298 1.373 . S
N299 C301 1.340 . S
N300 C297 1.368 . S
N300 C301 1.321 . S
N300 Co303 2.135 . S
C301 N299 1.340 . S
C301 N300 1.321 . S
C301 H325 0.930 . S
H302 C297 0.931 . S
Co303 N300 2.135 . S
Co303 N306 2.121 . S
Co303 O311 2.055 . S
Co303 O314 2.039 . S
Co303 N317 2.140 . S
C304 O305 1.227 . S
C304 O314 1.265 . S
O305 C304 1.227 . S
N306 Co303 2.121 . S
N306 C308 1.375 . S
N306 C309 1.313 . S
C307 C308 1.338 . S
C307 N310 1.377 . S
C307 H327 0.930 . S
C308 N306 1.375 . S
C308 C307 1.338 . S
C308 H312 0.931 . S
C309 N306 1.313 . S
C309 N310 1.344 . S
C309 H313 0.930 . S
N310 C307 1.377 . S
N310 C309 1.344 . S
O311 Co303 2.055 . S
O311 C315 1.253 . S
H312 C308 0.931 . S
H313 C309 0.930 . S
O314 Co303 2.039 . S
O314 C304 1.265 . S
C315 O311 1.253 . S
C315 O316 1.227 . S
O316 C315 1.227 . S
N317 Co303 2.140 . S
N317 C320 1.346 . S
N317 C321 1.345 . S
C318 C319 1.387 . S
C318 C322 1.391 . S
C319 C318 1.387 . S
C319 C320 1.369 . S
C319 H328 0.929 . S
C320 N317 1.346 . S
C320 C319 1.369 . S
C320 H323 0.928 . S
C321 N317 1.345 . S
C321 C322 1.371 . S
C321 H324 0.931 . S
C322 C318 1.391 . S
C322 C321 1.371 . S
C322 H329 0.930 . S
H323 C320 0.928 . S
H324 C321 0.931 . S
H325 C301 0.930 . S
H326 C298 0.930 . S
H327 C307 0.930 . S
H328 C319 0.929 . S
H329 C322 0.930 . S
C330 C331 1.351 1_554 S
C330 N333 1.368 . S
C330 H335 0.931 . S
C331 C330 1.351 1_556 S
C331 N332 1.373 . S
C331 H359 0.930 . S
N332 C331 1.373 . S
N332 C334 1.340 1_556 S
N333 C330 1.368 . S
N333 C334 1.321 . S
N333 Co336 2.135 . S
C334 N332 1.340 1_554 S
C334 N333 1.321 . S
C334 H358 0.930 . S
H335 C330 0.931 . S
Co336 N333 2.135 . S
Co336 N339 2.121 . S
Co336 O344 2.055 . S
Co336 O347 2.039 . S
Co336 N350 2.140 . S
C337 O338 1.227 . S
C337 O347 1.265 . S
O338 C337 1.227 . S
N339 Co336 2.121 . S
N339 C341 1.375 . S
N339 C342 1.313 . S
C340 C341 1.338 . S
C340 N343 1.377 . S
C340 H360 0.930 . S
C341 N339 1.375 . S
C341 C340 1.338 . S
C341 H345 0.931 . S
C342 N339 1.313 . S
C342 N343 1.344 . S
C342 H346 0.930 . S
N343 C340 1.377 . S
N343 C342 1.344 . S
O344 Co336 2.055 . S
O344 C348 1.253 . S
H345 C341 0.931 . S
H346 C342 0.930 . S
O347 Co336 2.039 . S
O347 C337 1.265 . S
C348 O344 1.253 . S
C348 O349 1.227 . S
O349 C348 1.227 . S
N350 Co336 2.140 . S
N350 C353 1.346 . S
N350 C354 1.345 . S
C351 C352 1.387 . S
C351 C355 1.391 . S
C352 C351 1.387 . S
C352 C353 1.369 . S
C352 H361 0.929 . S
C353 N350 1.346 . S
C353 C352 1.369 . S
C353 H356 0.928 . S
C354 N350 1.345 . S
C354 C355 1.371 . S
C354 H357 0.931 . S
C355 C351 1.391 . S
C355 C354 1.371 . S
C355 H362 0.930 . S
H356 C353 0.928 . S
H357 C354 0.931 . S
H358 C334 0.930 . S
H359 C331 0.930 . S
H360 C340 0.930 . S
H361 C352 0.929 . S
H362 C355 0.930 . S
C363 C364 1.351 . S
C363 N366 1.368 . S
C363 H368 0.931 . S
C364 C363 1.351 . S
C364 N365 1.373 . S
C364 H392 0.930 . S
N365 C364 1.373 . S
N365 C367 1.340 . S
N366 C363 1.368 . S
N366 C367 1.321 . S
N366 Co369 2.135 . S
C367 N365 1.340 . S
C367 N366 1.321 . S
C367 H391 0.930 . S
H368 C363 0.931 . S
Co369 N366 2.135 . S
Co369 N372 2.121 . S
Co369 O377 2.055 . S
Co369 O380 2.039 . S
Co369 N383 2.140 . S
C370 O371 1.227 . S
C370 O380 1.265 . S
O371 C370 1.227 . S
N372 Co369 2.121 . S
N372 C374 1.375 . S
N372 C375 1.313 . S
C373 C374 1.338 . S
C373 N376 1.377 . S
C373 H393 0.930 . S
C374 N372 1.375 . S
C374 C373 1.338 . S
C374 H378 0.931 . S
C375 N372 1.313 . S
C375 N376 1.344 . S
C375 H379 0.930 . S
N376 C373 1.377 . S
N376 C375 1.344 . S
O377 Co369 2.055 . S
O377 C381 1.253 . S
H378 C374 0.931 . S
H379 C375 0.930 . S
O380 Co369 2.039 . S
O380 C370 1.265 . S
C381 O377 1.253 . S
C381 O382 1.227 . S
O382 C381 1.227 . S
N383 Co369 2.140 . S
N383 C386 1.346 . S
N383 C387 1.345 . S
C384 C385 1.387 . S
C384 C388 1.391 . S
C385 C384 1.387 . S
C385 C386 1.369 . S
C385 H394 0.929 . S
C386 N383 1.346 . S
C386 C385 1.369 . S
C386 H389 0.928 . S
C387 N383 1.345 . S
C387 C388 1.371 . S
C387 H390 0.931 . S
C388 C384 1.391 . S
C388 C387 1.371 . S
C388 H395 0.930 . S
H389 C386 0.928 . S
H390 C387 0.931 . S
H391 C367 0.930 . S
H392 C364 0.930 . S
H393 C373 0.930 . S
H394 C385 0.929 . S
H395 C388 0.930 . S
C396 C397 1.349 . S
C396 C398 1.327 . S
C396 H421 0.950 . S
C397 C396 1.349 . S
C397 C413 1.349 . S
C398 C396 1.327 . S
C398 C417 1.429 . S
C398 H422 0.950 . S
C399 C416 1.574 1_455 S
C399 C418 1.368 . S
C399 H423 0.949 . S
H400 C404 0.949 . S
C401 C402 1.349 . S
C401 C403 1.327 . S
C401 H424 0.950 . S
C402 C401 1.349 . S
C402 C414 1.349 . S
C403 C401 1.327 . S
C403 C419 1.429 . S
C403 H425 0.950 . S
C404 H400 0.949 . S
C404 C412 1.574 1_655 S
C404 C420 1.368 . S
H405 C413 0.950 . S
H406 C411 0.950 . S
H407 C412 0.949 . S
H408 C414 0.950 . S
H409 C415 0.950 . S
H410 C416 0.949 . S
C411 H406 0.950 . S
C411 C413 1.327 . S
C411 C417 1.429 . S
C412 C404 1.574 1_455 S
C412 H407 0.949 . S
C412 C418 1.368 . S
C413 C397 1.349 . S
C413 H405 0.950 . S
C413 C411 1.327 . S
C414 C402 1.349 . S
C414 H408 0.950 . S
C414 C415 1.327 . S
C415 H409 0.950 . S
C415 C414 1.327 . S
C415 C419 1.429 . S
C416 C399 1.574 1_655 S
C416 H410 0.949 . S
C416 C420 1.368 . S
C417 C398 1.429 . S
C417 C411 1.429 . S
C417 C418 1.523 . S
C418 C399 1.368 . S
C418 C412 1.368 . S
C418 C417 1.523 . S
C419 C403 1.429 . S
C419 C415 1.429 . S
C419 C420 1.523 . S
C420 C404 1.368 . S
C420 C416 1.368 . S
C420 C419 1.523 . S
H421 C396 0.950 . S
H422 C398 0.950 . S
H423 C399 0.949 . S
H424 C401 0.950 . S
H425 C403 0.950 . S
C426 C427 1.349 . S
C426 C428 1.327 . S
C426 H451 0.950 . S
C427 C426 1.349 . S
C427 C443 1.349 . S
C428 C426 1.327 . S
C428 C447 1.429 . S
C428 H452 0.950 . S
C429 C446 1.574 1_545 S
C429 C448 1.368 . S
C429 H453 0.949 . S
H430 C434 0.949 . S
C431 C432 1.349 . S
C431 C433 1.327 . S
C431 H454 0.950 . S
C432 C431 1.349 . S
C432 C444 1.349 . S
C433 C431 1.327 . S
C433 C449 1.429 . S
C433 H455 0.950 . S
C434 H430 0.949 . S
C434 C442 1.574 1_565 S
C434 C450 1.368 . S
H435 C443 0.950 . S
H436 C441 0.950 . S
H437 C442 0.949 . S
H438 C444 0.950 . S
H439 C445 0.950 . S
H440 C446 0.949 . S
C441 H436 0.950 . S
C441 C443 1.327 . S
C441 C447 1.429 . S
C442 C434 1.574 1_545 S
C442 H437 0.949 . S
C442 C448 1.368 1_554 S
C443 C427 1.349 . S
C443 H435 0.950 . S
C443 C441 1.327 . S
C444 C432 1.349 . S
C444 H438 0.950 . S
C444 C445 1.327 . S
C445 H439 0.950 . S
C445 C444 1.327 . S
C445 C449 1.429 . S
C446 C429 1.574 1_565 S
C446 H440 0.949 . S
C446 C450 1.368 1_556 S
C447 C428 1.429 . S
C447 C441 1.429 . S
C447 C448 1.523 . S
C448 C429 1.368 . S
C448 C442 1.368 1_556 S
C448 C447 1.523 . S
C449 C433 1.429 . S
C449 C445 1.429 . S
C449 C450 1.523 . S
C450 C434 1.368 . S
C450 C446 1.368 1_554 S
C450 C449 1.523 . S
H451 C426 0.950 . S
H452 C428 0.950 . S
H453 C429 0.949 . S
H454 C431 0.950 . S
H455 C433 0.950 . S
C456 C457 1.349 . S
C456 C458 1.327 . S
C456 H481 0.950 . S
C457 C456 1.349 . S
C457 C473 1.349 . S
C458 C456 1.327 . S
C458 C477 1.429 . S
C458 H482 0.950 . S
C459 C476 1.574 . S
C459 C478 1.368 . S
C459 H483 0.949 . S
H460 C464 0.949 . S
C461 C462 1.349 . S
C461 C463 1.327 . S
C461 H484 0.950 . S
C462 C461 1.349 . S
C462 C474 1.349 . S
C463 C461 1.327 . S
C463 C479 1.429 . S
C463 H485 0.950 . S
C464 H460 0.949 . S
C464 C472 1.574 . S
C464 C480 1.368 . S
H465 C473 0.950 . S
H466 C471 0.950 . S
H467 C472 0.949 . S
H468 C474 0.950 . S
H469 C475 0.950 . S
H470 C476 0.949 . S
C471 H466 0.950 . S
C471 C473 1.327 . S
C471 C477 1.429 . S
C472 C464 1.574 . S
C472 H467 0.949 . S
C472 C478 1.368 . S
C473 C457 1.349 . S
C473 H465 0.950 . S
C473 C471 1.327 . S
C474 C462 1.349 . S
C474 H468 0.950 . S
C474 C475 1.327 . S
C475 H469 0.950 . S
C475 C474 1.327 . S
C475 C479 1.429 . S
C476 C459 1.574 . S
C476 H470 0.949 . S
C476 C480 1.368 . S
C477 C458 1.429 . S
C477 C471 1.429 . S
C477 C478 1.523 . S
C478 C459 1.368 . S
C478 C472 1.368 . S
C478 C477 1.523 . S
C479 C463 1.429 . S
C479 C475 1.429 . S
C479 C480 1.523 . S
C480 C464 1.368 . S
C480 C476 1.368 . S
C480 C479 1.523 . S
H481 C456 0.950 . S
H482 C458 0.950 . S
H483 C459 0.949 . S
H484 C461 0.950 . S
H485 C463 0.950 . S
C486 C487 1.349 . S
C486 C488 1.327 . S
C486 H511 0.950 . S
C487 C486 1.349 . S
C487 C503 1.349 . S
C488 C486 1.327 . S
C488 C507 1.429 . S
C488 H512 0.950 . S
C489 C506 1.574 1_455 S
C489 C508 1.368 1_556 S
C489 H513 0.949 . S
H490 C494 0.949 . S
C491 C492 1.349 . S
C491 C493 1.327 . S
C491 H514 0.950 . S
C492 C491 1.349 . S
C492 C504 1.349 . S
C493 C491 1.327 . S
C493 C509 1.429 . S
C493 H515 0.950 . S
C494 H490 0.949 . S
C494 C502 1.574 1_655 S
C494 C510 1.368 1_554 S
H495 C503 0.950 . S
H496 C501 0.950 1_556 S
H497 C502 0.949 . S
H498 C504 0.950 . S
H499 C505 0.950 1_554 S
H500 C506 0.949 . S
C501 H496 0.950 1_554 S
C501 C503 1.327 . S
C501 C507 1.429 . S
C502 C494 1.574 1_455 S
C502 H497 0.949 . S
C502 C508 1.368 . S
C503 C487 1.349 . S
C503 H495 0.950 . S
C503 C501 1.327 . S
C504 C492 1.349 . S
C504 H498 0.950 . S
C504 C505 1.327 . S
C505 H499 0.950 1_556 S
C505 C504 1.327 . S
C505 C509 1.429 . S
C506 C489 1.574 1_655 S
C506 H500 0.949 . S
C506 C510 1.368 . S
C507 C488 1.429 . S
C507 C501 1.429 . S
C507 C508 1.523 . S
C508 C489 1.368 1_554 S
C508 C502 1.368 . S
C508 C507 1.523 . S
C509 C493 1.429 . S
C509 C505 1.429 . S
C509 C510 1.523 . S
C510 C494 1.368 1_556 S
C510 C506 1.368 . S
C510 C509 1.523 . S
H511 C486 0.950 . S
H512 C488 0.950 . S
H513 C489 0.949 . S
H514 C491 0.950 . S
H515 C493 0.950 . S
C516 C517 1.349 . S
C516 C518 1.327 . S
C516 H541 0.950 . S
C517 C516 1.349 . S
C517 C533 1.349 . S
C518 C516 1.327 . S
C518 C537 1.429 . S
C518 H542 0.950 . S
C519 C536 1.574 1_545 S
C519 C538 1.368 . S
C519 H543 0.949 . S
H520 C524 0.949 . S
C521 C522 1.349 . S
C521 C523 1.327 . S
C521 H544 0.950 . S
C522 C521 1.349 . S
C522 C534 1.349 . S
C523 C521 1.327 . S
C523 C539 1.429 . S
C523 H545 0.950 . S
C524 H520 0.949 . S
C524 C532 1.574 1_565 S
C524 C540 1.368 . S
H525 C533 0.950 . S
H526 C531 0.950 . S
H527 C532 0.949 . S
H528 C534 0.950 . S
H529 C535 0.950 . S
H530 C536 0.949 . S
C531 H526 0.950 . S
C531 C533 1.327 . S
C531 C537 1.429 . S
C532 C524 1.574 1_545 S
C532 H527 0.949 . S
C532 C538 1.368 . S
C533 C517 1.349 . S
C533 H525 0.950 . S
C533 C531 1.327 . S
C534 C522 1.349 . S
C534 H528 0.950 . S
C534 C535 1.327 . S
C535 H529 0.950 . S
C535 C534 1.327 . S
C535 C539 1.429 . S
C536 C519 1.574 1_565 S
C536 H530 0.949 . S
C536 C540 1.368 . S
C537 C518 1.429 . S
C537 C531 1.429 . S
C537 C538 1.523 . S
C538 C519 1.368 . S
C538 C532 1.368 . S
C538 C537 1.523 . S
C539 C523 1.429 . S
C539 C535 1.429 . S
C539 C540 1.523 . S
C540 C524 1.368 . S
C540 C536 1.368 . S
C540 C539 1.523 . S
H541 C516 0.950 . S
H542 C518 0.950 . S
H543 C519 0.949 . S
H544 C521 0.950 . S
H545 C523 0.950 . S
C546 C547 1.349 . S
C546 C548 1.327 . S
C546 H571 0.950 . S
C547 C546 1.349 . S
C547 C563 1.349 . S
C548 C546 1.327 . S
C548 C567 1.429 . S
C548 H572 0.950 . S
C549 C566 1.574 1_556 S
C549 C568 1.368 . S
C549 H573 0.949 . S
H550 C554 0.949 . S
C551 C552 1.349 . S
C551 C553 1.327 . S
C551 H574 0.950 . S
C552 C551 1.349 . S
C552 C564 1.349 . S
C553 C551 1.327 . S
C553 C569 1.429 . S
C553 H575 0.950 . S
C554 H550 0.949 . S
C554 C562 1.574 1_554 S
C554 C570 1.368 . S
H555 C563 0.950 . S
H556 C561 0.950 . S
H557 C562 0.949 . S
H558 C564 0.950 . S
H559 C565 0.950 . S
H560 C566 0.949 . S
C561 H556 0.950 . S
C561 C563 1.327 . S
C561 C567 1.429 . S
C562 C554 1.574 1_556 S
C562 H557 0.949 . S
C562 C568 1.368 . S
C563 C547 1.349 . S
C563 H555 0.950 . S
C563 C561 1.327 . S
C564 C552 1.349 . S
C564 H558 0.950 . S
C564 C565 1.327 . S
C565 H559 0.950 . S
C565 C564 1.327 . S
C565 C569 1.429 . S
C566 C549 1.574 1_554 S
C566 H560 0.949 . S
C566 C570 1.368 . S
C567 C548 1.429 . S
C567 C561 1.429 . S
C567 C568 1.523 . S
C568 C549 1.368 . S
C568 C562 1.368 . S
C568 C567 1.523 . S
C569 C553 1.429 . S
C569 C565 1.429 . S
C569 C570 1.523 . S
C570 C554 1.368 . S
C570 C566 1.368 . S
C570 C569 1.523 . S
H571 C546 0.950 . S
H572 C548 0.950 . S
H573 C549 0.949 . S
H574 C551 0.950 . S
H575 C553 0.950 . S
C576 C577 1.349 . S
C576 C578 1.327 . S
C576 H601 0.950 . S
C577 C576 1.349 . S
C577 C593 1.349 . S
C578 C576 1.327 . S
C578 C597 1.429 . S
C578 H602 0.950 . S
C579 C596 1.574 . S
C579 C598 1.368 . S
C579 H603 0.949 . S
H580 C584 0.949 . S
C581 C582 1.349 . S
C581 C583 1.327 . S
C581 H604 0.950 . S
C582 C581 1.349 . S
C582 C594 1.349 . S
C583 C581 1.327 . S
C583 C599 1.429 . S
C583 H605 0.950 . S
C584 H580 0.949 . S
C584 C592 1.574 . S
C584 C600 1.368 . S
H585 C593 0.950 . S
H586 C591 0.950 . S
H587 C592 0.949 . S
H588 C594 0.950 . S
H589 C595 0.950 . S
H590 C596 0.949 . S
C591 H586 0.950 . S
C591 C593 1.327 . S
C591 C597 1.429 . S
C592 C584 1.574 . S
C592 H587 0.949 . S
C592 C598 1.368 . S
C593 C577 1.349 . S
C593 H585 0.950 . S
C593 C591 1.327 . S
C594 C582 1.349 . S
C594 H588 0.950 . S
C594 C595 1.327 . S
C595 H589 0.950 . S
C595 C594 1.327 . S
C595 C599 1.429 . S
C596 C579 1.574 . S
C596 H590 0.949 . S
C596 C600 1.368 . S
C597 C578 1.429 . S
C597 C591 1.429 . S
C597 C598 1.523 . S
C598 C579 1.368 . S
C598 C592 1.368 . S
C598 C597 1.523 . S
C599 C583 1.429 . S
C599 C595 1.429 . S
C599 C600 1.523 . S
C600 C584 1.368 . S
C600 C596 1.368 . S
C600 C599 1.523 . S
H601 C576 0.950 . S
H602 C578 0.950 . S
H603 C579 0.949 . S
H604 C581 0.950 . S
H605 C583 0.950 . S
C606 C607 1.349 . S
C606 C608 1.327 . S
C606 H631 0.950 . S
C607 C606 1.349 . S
C607 C623 1.349 . S
C608 C606 1.327 . S
C608 C627 1.429 . S
C608 H632 0.950 . S
C609 C626 1.574 . S
C609 C628 1.368 . S
C609 H633 0.949 . S
H610 C614 0.949 . S
C611 C612 1.349 . S
C611 C613 1.327 . S
C611 H634 0.950 . S
C612 C611 1.349 . S
C612 C624 1.349 . S
C613 C611 1.327 . S
C613 C629 1.429 . S
C613 H635 0.950 . S
C614 H610 0.949 . S
C614 C622 1.574 . S
C614 C630 1.368 . S
H615 C623 0.950 . S
H616 C621 0.950 . S
H617 C622 0.949 . S
H618 C624 0.950 . S
H619 C625 0.950 . S
H620 C626 0.949 . S
C621 H616 0.950 . S
C621 C623 1.327 . S
C621 C627 1.429 . S
C622 C614 1.574 . S
C622 H617 0.949 . S
C622 C628 1.368 . S
C623 C607 1.349 . S
C623 H615 0.950 . S
C623 C621 1.327 . S
C624 C612 1.349 . S
C624 H618 0.950 . S
C624 C625 1.327 . S
C625 H619 0.950 . S
C625 C624 1.327 . S
C625 C629 1.429 . S
C626 C609 1.574 . S
C626 H620 0.949 . S
C626 C630 1.368 . S
C627 C608 1.429 . S
C627 C621 1.429 . S
C627 C628 1.523 . S
C628 C609 1.368 . S
C628 C622 1.368 . S
C628 C627 1.523 . S
C629 C613 1.429 . S
C629 C625 1.429 . S
C629 C630 1.523 . S
C630 C614 1.368 . S
C630 C626 1.368 . S
C630 C629 1.523 . S
H631 C606 0.950 . S
H632 C608 0.950 . S
H633 C609 0.949 . S
H634 C611 0.950 . S
H635 C613 0.950 . S
C636 C637 1.349 . S
C636 C638 1.327 . S
C636 H661 0.950 . S
C637 C636 1.349 . S
C637 C653 1.349 . S
C638 C636 1.327 . S
C638 C657 1.429 . S
C638 H662 0.950 . S
C639 C656 1.574 . S
C639 C658 1.368 . S
C639 H663 0.949 . S
H640 C644 0.949 . S
C641 C642 1.349 . S
C641 C643 1.327 . S
C641 H664 0.950 . S
C642 C641 1.349 . S
C642 C654 1.349 . S
C643 C641 1.327 . S
C643 C659 1.429 . S
C643 H665 0.950 . S
C644 H640 0.949 . S
C644 C652 1.574 . S
C644 C660 1.368 . S
H645 C653 0.950 . S
H646 C651 0.950 . S
H647 C652 0.949 . S
H648 C654 0.950 . S
H649 C655 0.950 . S
H650 C656 0.949 . S
C651 H646 0.950 . S
C651 C653 1.327 . S
C651 C657 1.429 . S
C652 C644 1.574 . S
C652 H647 0.949 . S
C652 C658 1.368 . S
C653 C637 1.349 . S
C653 H645 0.950 . S
C653 C651 1.327 . S
C654 C642 1.349 . S
C654 H648 0.950 . S
C654 C655 1.327 . S
C655 H649 0.950 . S
C655 C654 1.327 . S
C655 C659 1.429 . S
C656 C639 1.574 . S
C656 H650 0.949 . S
C656 C660 1.368 . S
C657 C638 1.429 . S
C657 C651 1.429 . S
C657 C658 1.523 . S
C658 C639 1.368 . S
C658 C652 1.368 . S
C658 C657 1.523 . S
C659 C643 1.429 . S
C659 C655 1.429 . S
C659 C660 1.523 . S
C660 C644 1.368 . S
C660 C656 1.368 . S
C660 C659 1.523 . S
H661 C636 0.950 . S
H662 C638 0.950 . S
H663 C639 0.949 . S
H664 C641 0.950 . S
H665 C643 0.950 . S
C666 C667 1.349 . S
C666 C668 1.327 . S
C666 H691 0.950 . S
C667 C666 1.349 . S
C667 C683 1.349 . S
C668 C666 1.327 . S
C668 C687 1.429 . S
C668 H692 0.950 . S
C669 C686 1.574 . S
C669 C688 1.368 . S
C669 H693 0.949 . S
H670 C674 0.949 . S
C671 C672 1.349 . S
C671 C673 1.327 . S
C671 H694 0.950 . S
C672 C671 1.349 . S
C672 C684 1.349 . S
C673 C671 1.327 . S
C673 C689 1.429 . S
C673 H695 0.950 . S
C674 H670 0.949 . S
C674 C682 1.574 . S
C674 C690 1.368 . S
H675 C683 0.950 . S
H676 C681 0.950 . S
H677 C682 0.949 . S
H678 C684 0.950 . S
H679 C685 0.950 . S
H680 C686 0.949 . S
C681 H676 0.950 . S
C681 C683 1.327 . S
C681 C687 1.429 . S
C682 C674 1.574 . S
C682 H677 0.949 . S
C682 C688 1.368 . S
C683 C667 1.349 . S
C683 H675 0.950 . S
C683 C681 1.327 . S
C684 C672 1.349 . S
C684 H678 0.950 . S
C684 C685 1.327 . S
C685 H679 0.950 . S
C685 C684 1.327 . S
C685 C689 1.429 . S
C686 C669 1.574 . S
C686 H680 0.949 . S
C686 C690 1.368 . S
C687 C668 1.429 . S
C687 C681 1.429 . S
C687 C688 1.523 . S
C688 C669 1.368 . S
C688 C682 1.368 . S
C688 C687 1.523 . S
C689 C673 1.429 . S
C689 C685 1.429 . S
C689 C690 1.523 . S
C690 C674 1.368 . S
C690 C686 1.368 . S
C690 C689 1.523 . S
H691 C666 0.950 . S
H692 C668 0.950 . S
H693 C669 0.949 . S
H694 C671 0.950 . S
H695 C673 0.950 . S
C696 C697 1.349 . S
C696 C698 1.327 . S
C696 H721 0.950 . S
C697 C696 1.349 . S
C697 C713 1.349 . S
C698 C696 1.327 . S
C698 C717 1.429 . S
C698 H722 0.950 . S
C699 C716 1.574 . S
C699 C718 1.368 . S
C699 H723 0.949 . S
H700 C704 0.949 . S
C701 C702 1.349 . S
C701 C703 1.327 . S
C701 H724 0.950 . S
C702 C701 1.349 . S
C702 C714 1.349 . S
C703 C701 1.327 . S
C703 C719 1.429 . S
C703 H725 0.950 . S
C704 H700 0.949 . S
C704 C712 1.574 . S
C704 C720 1.368 . S
H705 C713 0.950 . S
H706 C711 0.950 . S
H707 C712 0.949 . S
H708 C714 0.950 . S
H709 C715 0.950 . S
H710 C716 0.949 . S
C711 H706 0.950 . S
C711 C713 1.327 . S
C711 C717 1.429 . S
C712 C704 1.574 . S
C712 H707 0.949 . S
C712 C718 1.368 . S
C713 C697 1.349 . S
C713 H705 0.950 . S
C713 C711 1.327 . S
C714 C702 1.349 . S
C714 H708 0.950 . S
C714 C715 1.327 . S
C715 H709 0.950 . S
C715 C714 1.327 . S
C715 C719 1.429 . S
C716 C699 1.574 . S
C716 H710 0.949 . S
C716 C720 1.368 . S
C717 C698 1.429 . S
C717 C711 1.429 . S
C717 C718 1.523 . S
C718 C699 1.368 . S
C718 C712 1.368 . S
C718 C717 1.523 . S
C719 C703 1.429 . S
C719 C715 1.429 . S
C719 C720 1.523 . S
C720 C704 1.368 . S
C720 C716 1.368 . S
C720 C719 1.523 . S
H721 C696 0.950 . S
H722 C698 0.950 . S
H723 C699 0.949 . S
H724 C701 0.950 . S
H725 C703 0.950 . S
C726 C727 1.349 . S
C726 C728 1.327 . S
C726 H751 0.950 . S
C727 C726 1.349 . S
C727 C743 1.349 . S
C728 C726 1.327 . S
C728 C747 1.429 . S
C728 H752 0.950 . S
C729 C746 1.574 . S
C729 C748 1.368 . S
C729 H753 0.949 . S
H730 C734 0.949 . S
C731 C732 1.349 . S
C731 C733 1.327 . S
C731 H754 0.950 . S
C732 C731 1.349 . S
C732 C744 1.349 . S
C733 C731 1.327 . S
C733 C749 1.429 . S
C733 H755 0.950 . S
C734 H730 0.949 . S
C734 C742 1.574 . S
C734 C750 1.368 . S
H735 C743 0.950 . S
H736 C741 0.950 . S
H737 C742 0.949 . S
H738 C744 0.950 . S
H739 C745 0.950 . S
H740 C746 0.949 . S
C741 H736 0.950 . S
C741 C743 1.327 . S
C741 C747 1.429 . S
C742 C734 1.574 . S
C742 H737 0.949 . S
C742 C748 1.368 . S
C743 C727 1.349 . S
C743 H735 0.950 . S
C743 C741 1.327 . S
C744 C732 1.349 . S
C744 H738 0.950 . S
C744 C745 1.327 . S
C745 H739 0.950 . S
C745 C744 1.327 . S
C745 C749 1.429 . S
C746 C729 1.574 . S
C746 H740 0.949 . S
C746 C750 1.368 . S
C747 C728 1.429 . S
C747 C741 1.429 . S
C747 C748 1.523 . S
C748 C729 1.368 . S
C748 C742 1.368 . S
C748 C747 1.523 . S
C749 C733 1.429 . S
C749 C745 1.429 . S
C749 C750 1.523 . S
C750 C734 1.368 . S
C750 C746 1.368 . S
C750 C749 1.523 . S
H751 C726 0.950 . S
H752 C728 0.950 . S
H753 C729 0.949 . S
H754 C731 0.950 . S
H755 C733 0.950 . S
C756 C757 1.349 . S
C756 C758 1.327 . S
C756 H781 0.950 . S
C757 C756 1.349 . S
C757 C773 1.349 . S
C758 C756 1.327 . S
C758 C777 1.429 . S
C758 H782 0.950 . S
C759 C776 1.574 . S
C759 C778 1.368 . S
C759 H783 0.949 . S
H760 C764 0.949 . S
C761 C762 1.349 . S
C761 C763 1.327 1_554 S
C761 H784 0.950 . S
C762 C761 1.349 . S
C762 C774 1.349 . S
C763 C761 1.327 1_556 S
C763 C779 1.429 . S
C763 H785 0.950 . S
C764 H760 0.949 . S
C764 C772 1.574 . S
C764 C780 1.368 . S
H765 C773 0.950 . S
H766 C771 0.950 . S
H767 C772 0.949 . S
H768 C774 0.950 . S
H769 C775 0.954 . S
H770 C776 0.949 . S
C771 H766 0.950 . S
C771 C773 1.327 . S
C771 C777 1.429 . S
C772 C764 1.574 . S
C772 H767 0.949 . S
C772 C778 1.368 . S
C773 C757 1.349 . S
C773 H765 0.950 . S
C773 C771 1.327 . S
C774 C762 1.349 . S
C774 H768 0.950 . S
C774 C775 1.316 1_554 S
C775 H769 0.954 . S
C775 C774 1.316 1_556 S
C775 C779 1.435 . S
C776 C759 1.574 . S
C776 H770 0.949 . S
C776 C780 1.368 . S
C777 C758 1.429 . S
C777 C771 1.429 . S
C777 C778 1.523 . S
C778 C759 1.368 . S
C778 C772 1.368 . S
C778 C777 1.523 . S
C779 C763 1.429 . S
C779 C775 1.435 . S
C779 C780 1.523 . S
C780 C764 1.368 . S
C780 C776 1.368 . S
C780 C779 1.523 . S
H781 C756 0.950 . S
H782 C758 0.950 . S
H783 C759 0.949 . S
H784 C761 0.950 . S
H785 C763 0.950 . S
C786 C787 1.349 . S
C786 C788 1.327 . S
C786 H811 0.950 . S
C787 C786 1.349 . S
C787 C803 1.349 . S
C788 C786 1.327 . S
C788 C807 1.429 . S
C788 H812 0.950 . S
C789 C806 1.574 . S
C789 C808 1.368 . S
C789 H813 0.949 . S
H790 C794 0.949 . S
C791 C792 1.349 . S
C791 C793 1.327 . S
C791 H814 0.950 . S
C792 C791 1.349 . S
C792 C804 1.349 . S
C793 C791 1.327 . S
C793 C809 1.429 . S
C793 H815 0.950 . S
C794 H790 0.949 . S
C794 C802 1.574 . S
C794 C810 1.368 . S
H795 C803 0.950 . S
H796 C801 0.950 . S
H797 C802 0.949 . S
H798 C804 0.950 . S
H799 C805 0.950 . S
H800 C806 0.949 . S
C801 H796 0.950 . S
C801 C803 1.327 . S
C801 C807 1.429 . S
C802 C794 1.574 . S
C802 H797 0.949 . S
C802 C808 1.368 . S
C803 C787 1.349 . S
C803 H795 0.950 . S
C803 C801 1.327 . S
C804 C792 1.349 . S
C804 H798 0.950 . S
C804 C805 1.327 . S
C805 H799 0.950 . S
C805 C804 1.327 . S
C805 C809 1.429 . S
C806 C789 1.574 . S
C806 H800 0.949 . S
C806 C810 1.368 . S
C807 C788 1.429 . S
C807 C801 1.429 . S
C807 C808 1.523 . S
C808 C789 1.368 . S
C808 C802 1.368 . S
C808 C807 1.523 . S
C809 C793 1.429 . S
C809 C805 1.429 . S
C809 C810 1.523 . S
C810 C794 1.368 . S
C810 C806 1.368 . S
C810 C809 1.523 . S
H811 C786 0.950 . S
H812 C788 0.950 . S
H813 C789 0.949 . S
H814 C791 0.950 . S
H815 C793 0.950 . S
C816 C817 1.349 . S
C816 C818 1.327 . S
C816 H841 0.950 . S
C817 C816 1.349 . S
C817 C833 1.349 . S
C818 C816 1.327 . S
C818 C837 1.429 . S
C818 H842 0.950 . S
C819 C836 1.574 . S
C819 C838 1.368 . S
C819 H843 0.949 . S
H820 C824 0.949 . S
C821 C822 1.349 . S
C821 C823 1.327 1_554 S
C821 H844 0.950 . S
C822 C821 1.349 . S
C822 C834 1.349 . S
C823 C821 1.327 1_556 S
C823 C839 1.429 . S
C823 H845 0.950 . S
C824 H820 0.949 . S
C824 C832 1.574 . S
C824 C840 1.368 . S
H825 C833 0.950 . S
H826 C831 0.950 . S
H827 C832 0.949 . S
H828 C834 0.950 . S
H829 C835 0.950 . S
H830 C836 0.949 . S
C831 H826 0.950 . S
C831 C833 1.327 . S
C831 C837 1.429 . S
C832 C824 1.574 . S
C832 H827 0.949 . S
C832 C838 1.368 . S
C833 C817 1.349 . S
C833 H825 0.950 . S
C833 C831 1.327 . S
C834 C822 1.349 . S
C834 H828 0.950 . S
C834 C835 1.327 1_554 S
C835 H829 0.950 . S
C835 C834 1.327 1_556 S
C835 C839 1.429 . S
C836 C819 1.574 . S
C836 H830 0.949 . S
C836 C840 1.368 . S
C837 C818 1.429 . S
C837 C831 1.429 . S
C837 C838 1.523 . S
C838 C819 1.368 . S
C838 C832 1.368 . S
C838 C837 1.523 . S
C839 C823 1.429 . S
C839 C835 1.429 . S
C839 C840 1.523 . S
C840 C824 1.368 . S
C840 C836 1.368 . S
C840 C839 1.523 . S
H841 C816 0.950 . S
H842 C818 0.950 . S
H843 C819 0.949 . S
H844 C821 0.950 . S
H845 C823 0.950 . S
C846 C847 1.349 . S
C846 C848 1.327 . S
C846 H871 0.950 . S
C847 C846 1.349 . S
C847 C863 1.349 . S
C848 C846 1.327 . S
C848 C867 1.429 . S
C848 H872 0.950 . S
C849 C866 1.574 . S
C849 C868 1.368 . S
C849 H873 0.949 . S
H850 C854 0.949 . S
C851 C852 1.349 . S
C851 C853 1.327 . S
C851 H874 0.950 . S
C852 C851 1.349 . S
C852 C864 1.349 . S
C853 C851 1.327 . S
C853 C869 1.429 . S
C853 H875 0.950 . S
C854 H850 0.949 . S
C854 C862 1.574 . S
C854 C870 1.368 . S
H855 C863 0.950 . S
H856 C861 0.950 . S
H857 C862 0.949 . S
H858 C864 0.950 . S
H859 C865 0.950 . S
H860 C866 0.949 . S
C861 H856 0.950 . S
C861 C863 1.327 . S
C861 C867 1.429 . S
C862 C854 1.574 . S
C862 H857 0.949 . S
C862 C868 1.368 . S
C863 C847 1.349 . S
C863 H855 0.950 . S
C863 C861 1.327 . S
C864 C852 1.349 . S
C864 H858 0.950 . S
C864 C865 1.327 . S
C865 H859 0.950 . S
C865 C864 1.327 . S
C865 C869 1.429 . S
C866 C849 1.574 . S
C866 H860 0.949 . S
C866 C870 1.368 . S
C867 C848 1.429 . S
C867 C861 1.429 . S
C867 C868 1.523 . S
C868 C849 1.368 . S
C868 C862 1.368 . S
C868 C867 1.523 . S
C869 C853 1.429 . S
C869 C865 1.429 . S
C869 C870 1.523 . S
C870 C854 1.368 . S
C870 C866 1.368 . S
C870 C869 1.523 . S
H871 C846 0.950 . S
H872 C848 0.950 . S
H873 C849 0.949 . S
H874 C851 0.950 . S
H875 C853 0.950 . S
C876 C877 1.349 . S
C876 C878 1.327 . S
C876 H901 0.950 . S
C877 C876 1.349 . S
C877 C893 1.349 . S
C878 C876 1.327 . S
C878 C897 1.429 . S
C878 H902 0.950 . S
C879 C896 1.574 . S
C879 C898 1.368 . S
C879 H903 0.949 . S
H880 C884 0.949 . S
C881 C882 1.349 . S
C881 C883 1.327 1_554 S
C881 H904 0.950 . S
C882 C881 1.349 . S
C882 C894 1.349 . S
C883 C881 1.327 1_556 S
C883 C899 1.429 . S
C883 H905 0.950 . S
C884 H880 0.949 . S
C884 C892 1.574 . S
C884 C900 1.368 . S
H885 C893 0.950 . S
H886 C891 0.950 . S
H887 C892 0.949 . S
H888 C894 0.950 . S
H889 C895 0.944 1_556 S
H890 C896 0.949 . S
C891 H886 0.950 . S
C891 C893 1.327 . S
C891 C897 1.429 . S
C892 C884 1.574 . S
C892 H887 0.949 . S
C892 C898 1.368 . S
C893 C877 1.349 . S
C893 H885 0.950 . S
C893 C891 1.327 . S
C894 C882 1.349 . S
C894 H888 0.950 . S
C894 C895 1.342 . S
C895 H889 0.944 1_554 S
C895 C894 1.342 . S
C895 C899 1.419 1_554 S
C896 C879 1.574 . S
C896 H890 0.949 . S
C896 C900 1.368 . S
C897 C878 1.429 . S
C897 C891 1.429 . S
C897 C898 1.523 . S
C898 C879 1.368 . S
C898 C892 1.368 . S
C898 C897 1.523 . S
C899 C883 1.429 . S
C899 C895 1.419 1_556 S
C899 C900 1.523 . S
C900 C884 1.368 . S
C900 C896 1.368 . S
C900 C899 1.523 . S
H901 C876 0.950 . S
H902 C878 0.950 . S
H903 C879 0.949 . S
H904 C881 0.950 . S
H905 C883 0.950 . S
C906 C907 1.349 . S
C906 C908 1.327 . S
C906 H931 0.950 . S
C907 C906 1.349 . S
C907 C923 1.349 . S
C908 C906 1.327 . S
C908 C927 1.429 . S
C908 H932 0.950 . S
C909 C926 1.574 . S
C909 C928 1.368 . S
C909 H933 0.949 . S
H910 C914 0.949 . S
C911 C912 1.349 . S
C911 C913 1.327 . S
C911 H934 0.950 . S
C912 C911 1.349 . S
C912 C924 1.349 . S
C913 C911 1.327 . S
C913 C929 1.429 . S
C913 H935 0.950 . S
C914 H910 0.949 . S
C914 C922 1.574 . S
C914 C930 1.368 . S
H915 C923 0.950 . S
H916 C921 0.950 . S
H917 C922 0.949 . S
H918 C924 0.950 . S
H919 C925 0.950 . S
H920 C926 0.949 . S
C921 H916 0.950 . S
C921 C923 1.327 . S
C921 C927 1.429 . S
C922 C914 1.574 . S
C922 H917 0.949 . S
C922 C928 1.368 . S
C923 C907 1.349 . S
C923 H915 0.950 . S
C923 C921 1.327 . S
C924 C912 1.349 . S
C924 H918 0.950 . S
C924 C925 1.327 . S
C925 H919 0.950 . S
C925 C924 1.327 . S
C925 C929 1.429 . S
C926 C909 1.574 . S
C926 H920 0.949 . S
C926 C930 1.368 . S
C927 C908 1.429 . S
C927 C921 1.429 . S
C927 C928 1.523 . S
C928 C909 1.368 . S
C928 C922 1.368 . S
C928 C927 1.523 . S
C929 C913 1.429 . S
C929 C925 1.429 . S
C929 C930 1.523 . S
C930 C914 1.368 . S
C930 C926 1.368 . S
C930 C929 1.523 . S
H931 C906 0.950 . S
H932 C908 0.950 . S
H933 C909 0.949 . S
H934 C911 0.950 . S
H935 C913 0.950 . S
C936 C937 1.349 . S
C936 C938 1.327 . S
C936 H961 0.950 . S
C937 C936 1.349 . S
C937 C953 1.349 . S
C938 C936 1.327 . S
C938 C957 1.429 . S
C938 H962 0.950 . S
C939 C956 1.574 . S
C939 C958 1.368 . S
C939 H963 0.949 . S
H940 C944 0.949 . S
C941 C942 1.349 . S
C941 C943 1.327 . S
C941 H964 0.950 . S
C942 C941 1.349 . S
C942 C954 1.349 . S
C943 C941 1.327 . S
C943 C959 1.429 . S
C943 H965 0.950 . S
C944 H940 0.949 . S
C944 C952 1.574 . S
C944 C960 1.368 . S
H945 C953 0.950 . S
H946 C951 0.950 . S
H947 C952 0.949 . S
H948 C954 0.950 . S
H949 C955 0.950 . S
H950 C956 0.949 . S
C951 H946 0.950 . S
C951 C953 1.327 . S
C951 C957 1.429 . S
C952 C944 1.574 . S
C952 H947 0.949 . S
C952 C958 1.368 . S
C953 C937 1.349 . S
C953 H945 0.950 . S
C953 C951 1.327 . S
C954 C942 1.349 . S
C954 H948 0.950 . S
C954 C955 1.327 . S
C955 H949 0.950 . S
C955 C954 1.327 . S
C955 C959 1.429 . S
C956 C939 1.574 . S
C956 H950 0.949 . S
C956 C960 1.368 . S
C957 C938 1.429 . S
C957 C951 1.429 . S
C957 C958 1.523 . S
C958 C939 1.368 . S
C958 C952 1.368 . S
C958 C957 1.523 . S
C959 C943 1.429 . S
C959 C955 1.429 . S
C959 C960 1.523 . S
C960 C944 1.368 . S
C960 C956 1.368 . S
C960 C959 1.523 . S
H961 C936 0.950 . S
H962 C938 0.950 . S
H963 C939 0.949 . S
H964 C941 0.950 . S
H965 C943 0.950 . S
C966 C967 1.349 . S
C966 C968 1.327 . S
C966 H991 0.950 . S
C967 C966 1.349 . S
C967 C983 1.349 . S
C968 C966 1.327 . S
C968 C987 1.429 . S
C968 H992 0.950 . S
C969 C986 1.574 . S
C969 C988 1.368 . S
C969 H993 0.949 . S
H970 C974 0.949 . S
C971 C972 1.349 . S
C971 C973 1.313 1_556 S
C971 H994 0.950 . S
C972 C971 1.349 . S
C972 C984 1.349 . S
C973 C971 1.313 1_554 S
C973 C989 1.437 . S
C973 H995 0.955 . S
C974 H970 0.949 . S
C974 C982 1.574 . S
C974 C990 1.368 . S
H975 C983 0.950 . S
H976 C981 0.950 . S
H977 C982 0.949 . S
H978 C984 0.950 . S
H979 C985 0.950 . S
H980 C986 0.949 . S
C981 H976 0.950 . S
C981 C983 1.327 . S
C981 C987 1.429 . S
C982 C974 1.574 . S
C982 H977 0.949 . S
C982 C988 1.368 . S
C983 C967 1.349 . S
C983 H975 0.950 . S
C983 C981 1.327 . S
C984 C972 1.349 . S
C984 H978 0.950 . S
C984 C985 1.327 1_556 S
C985 H979 0.950 . S
C985 C984 1.327 1_554 S
C985 C989 1.429 . S
C986 C969 1.574 . S
C986 H980 0.949 . S
C986 C990 1.368 . S
C987 C968 1.429 . S
C987 C981 1.429 . S
C987 C988 1.523 . S
C988 C969 1.368 . S
C988 C982 1.368 . S
C988 C987 1.523 . S
C989 C973 1.437 . S
C989 C985 1.429 . S
C989 C990 1.523 . S
C990 C974 1.368 . S
C990 C986 1.368 . S
C990 C989 1.523 . S
H991 C966 0.950 . S
H992 C968 0.950 . S
H993 C969 0.949 . S
H994 C971 0.950 . S
H995 C973 0.955 . S
C996 C997 1.349 . S
C996 C998 1.327 . S
C996 H1021 0.950 . S
C997 C996 1.349 . S
C997 C1013 1.349 . S
C998 C996 1.327 . S
C998 C1017 1.429 . S
C998 H1022 0.950 . S
C999 C1016 1.574 . S
C999 C1018 1.368 . S
C999 H1023 0.949 . S
H1000 C1004 0.949 . S
C1001 C1002 1.349 . S
C1001 C1003 1.327 . S
C1001 H1024 0.950 . S
C1002 C1001 1.349 . S
C1002 C1014 1.349 . S
C1003 C1001 1.327 . S
C1003 C1019 1.429 . S
C1003 H1025 0.950 . S
C1004 H1000 0.949 . S
C1004 C1012 1.574 . S
C1004 C1020 1.368 . S
H1005 C1013 0.950 . S
H1006 C1011 0.950 . S
H1007 C1012 0.949 . S
H1008 C1014 0.950 . S
H1009 C1015 0.950 . S
H1010 C1016 0.949 . S
C1011 H1006 0.950 . S
C1011 C1013 1.327 . S
C1011 C1017 1.429 . S
C1012 C1004 1.574 . S
C1012 H1007 0.949 . S
C1012 C1018 1.368 . S
C1013 C997 1.349 . S
C1013 H1005 0.950 . S
C1013 C1011 1.327 . S
C1014 C1002 1.349 . S
C1014 H1008 0.950 . S
C1014 C1015 1.327 . S
C1015 H1009 0.950 . S
C1015 C1014 1.327 . S
C1015 C1019 1.429 . S
C1016 C999 1.574 . S
C1016 H1010 0.949 . S
C1016 C1020 1.368 . S
C1017 C998 1.429 . S
C1017 C1011 1.429 . S
C1017 C1018 1.523 . S
C1018 C999 1.368 . S
C1018 C1012 1.368 . S
C1018 C1017 1.523 . S
C1019 C1003 1.429 . S
C1019 C1015 1.429 . S
C1019 C1020 1.523 . S
C1020 C1004 1.368 . S
C1020 C1016 1.368 . S
C1020 C1019 1.523 . S
H1021 C996 0.950 . S
H1022 C998 0.950 . S
H1023 C999 0.949 . S
H1024 C1001 0.950 . S
H1025 C1003 0.950 . S
C1026 C1027 1.349 . S
C1026 C1028 1.327 1_556 S
C1026 H1051 0.950 . S
C1027 C1026 1.349 . S
C1027 C1043 1.349 . S
C1028 C1026 1.327 1_554 S
C1028 C1047 1.429 . S
C1028 H1052 0.950 . S
C1029 C1046 1.574 . S
C1029 C1048 1.368 . S
C1029 H1053 0.949 . S
H1030 C1034 0.949 . S
C1031 C1032 1.349 . S
C1031 C1033 1.327 . S
C1031 H1054 0.950 . S
C1032 C1031 1.349 . S
C1032 C1044 1.349 . S
C1033 C1031 1.327 . S
C1033 C1049 1.429 . S
C1033 H1055 0.950 . S
C1034 H1030 0.949 . S
C1034 C1042 1.574 . S
C1034 C1050 1.368 . S
H1035 C1043 0.950 . S
H1036 C1041 0.950 . S
H1037 C1042 0.949 . S
H1038 C1044 0.950 . S
H1039 C1045 0.950 . S
H1040 C1046 0.949 . S
C1041 H1036 0.950 . S
C1041 C1043 1.327 1_554 S
C1041 C1047 1.429 . S
C1042 C1034 1.574 . S
C1042 H1037 0.949 . S
C1042 C1048 1.368 . S
C1043 C1027 1.349 . S
C1043 H1035 0.950 . S
C1043 C1041 1.327 1_556 S
C1044 C1032 1.349 . S
C1044 H1038 0.950 . S
C1044 C1045 1.327 . S
C1045 H1039 0.950 . S
C1045 C1044 1.327 . S
C1045 C1049 1.429 . S
C1046 C1029 1.574 . S
C1046 H1040 0.949 . S
C1046 C1050 1.368 . S
C1047 C1028 1.429 . S
C1047 C1041 1.429 . S
C1047 C1048 1.523 . S
C1048 C1029 1.368 . S
C1048 C1042 1.368 . S
C1048 C1047 1.523 . S
C1049 C1033 1.429 . S
C1049 C1045 1.429 . S
C1049 C1050 1.523 . S
C1050 C1034 1.368 . S
C1050 C1046 1.368 . S
C1050 C1049 1.523 . S
H1051 C1026 0.950 . S
H1052 C1028 0.950 . S
H1053 C1029 0.949 . S
H1054 C1031 0.950 . S
H1055 C1033 0.950 . S
C1056 C1057 1.349 . S
C1056 C1058 1.327 . S
C1056 H1081 0.950 . S
C1057 C1056 1.349 . S
C1057 C1073 1.349 . S
C1058 C1056 1.327 . S
C1058 C1077 1.429 . S
C1058 H1082 0.950 . S
C1059 C1076 1.574 . S
C1059 C1078 1.368 . S
C1059 H1083 0.949 . S
H1060 C1064 0.949 . S
C1061 C1062 1.349 . S
C1061 C1063 1.327 . S
C1061 H1084 0.950 . S
C1062 C1061 1.349 . S
C1062 C1074 1.349 . S
C1063 C1061 1.327 . S
C1063 C1079 1.429 . S
C1063 H1085 0.950 . S
C1064 H1060 0.949 . S
C1064 C1072 1.574 . S
C1064 C1080 1.368 . S
H1065 C1073 0.950 . S
H1066 C1071 0.950 . S
H1067 C1072 0.949 . S
H1068 C1074 0.950 . S
H1069 C1075 0.950 . S
H1070 C1076 0.949 . S
C1071 H1066 0.950 . S
C1071 C1073 1.327 . S
C1071 C1077 1.429 . S
C1072 C1064 1.574 . S
C1072 H1067 0.949 . S
C1072 C1078 1.368 . S
C1073 C1057 1.349 . S
C1073 H1065 0.950 . S
C1073 C1071 1.327 . S
C1074 C1062 1.349 . S
C1074 H1068 0.950 . S
C1074 C1075 1.327 . S
C1075 H1069 0.950 . S
C1075 C1074 1.327 . S
C1075 C1079 1.429 . S
C1076 C1059 1.574 . S
C1076 H1070 0.949 . S
C1076 C1080 1.368 . S
C1077 C1058 1.429 . S
C1077 C1071 1.429 . S
C1077 C1078 1.523 . S
C1078 C1059 1.368 . S
C1078 C1072 1.368 . S
C1078 C1077 1.523 . S
C1079 C1063 1.429 . S
C1079 C1075 1.429 . S
C1079 C1080 1.523 . S
C1080 C1064 1.368 . S
C1080 C1076 1.368 . S
C1080 C1079 1.523 . S
H1081 C1056 0.950 . S
H1082 C1058 0.950 . S
H1083 C1059 0.949 . S
H1084 C1061 0.950 . S
H1085 C1063 0.950 . S
C1086 C1087 1.349 . S
C1086 C1088 1.327 . S
C1086 H1111 0.950 . S
C1087 C1086 1.349 . S
C1087 C1103 1.349 . S
C1088 C1086 1.327 . S
C1088 C1107 1.429 . S
C1088 H1112 0.950 . S
C1089 C1106 1.574 . S
C1089 C1108 1.368 . S
C1089 H1113 0.949 . S
H1090 C1094 0.949 . S
C1091 C1092 1.349 . S
C1091 C1093 1.327 1_556 S
C1091 H1114 0.950 . S
C1092 C1091 1.349 . S
C1092 C1104 1.349 . S
C1093 C1091 1.327 1_554 S
C1093 C1109 1.429 . S
C1093 H1115 0.950 . S
C1094 H1090 0.949 . S
C1094 C1102 1.574 . S
C1094 C1110 1.368 . S
H1095 C1103 0.950 . S
H1096 C1101 0.950 . S
H1097 C1102 0.949 . S
H1098 C1104 0.950 . S
H1099 C1105 0.946 1_554 S
H1100 C1106 0.949 . S
C1101 H1096 0.950 . S
C1101 C1103 1.327 . S
C1101 C1107 1.429 . S
C1102 C1094 1.574 . S
C1102 H1097 0.949 . S
C1102 C1108 1.368 . S
C1103 C1087 1.349 . S
C1103 H1095 0.950 . S
C1103 C1101 1.327 . S
C1104 C1092 1.349 . S
C1104 H1098 0.950 . S
C1104 C1105 1.336 . S
C1105 H1099 0.946 1_556 S
C1105 C1104 1.336 . S
C1105 C1109 1.423 1_556 S
C1106 C1089 1.574 . S
C1106 H1100 0.949 . S
C1106 C1110 1.368 . S
C1107 C1088 1.429 . S
C1107 C1101 1.429 . S
C1107 C1108 1.523 . S
C1108 C1089 1.368 . S
C1108 C1102 1.368 . S
C1108 C1107 1.523 . S
C1109 C1093 1.429 . S
C1109 C1105 1.423 1_554 S
C1109 C1110 1.523 . S
C1110 C1094 1.368 . S
C1110 C1106 1.368 . S
C1110 C1109 1.523 . S
H1111 C1086 0.950 . S
H1112 C1088 0.950 . S
H1113 C1089 0.949 . S
H1114 C1091 0.950 . S
H1115 C1093 0.950 . S
C1116 C1117 1.349 . S
C1116 C1118 1.327 . S
C1116 H1141 0.950 . S
C1117 C1116 1.349 . S
C1117 C1133 1.349 . S
C1118 C1116 1.327 . S
C1118 C1137 1.429 . S
C1118 H1142 0.950 . S
C1119 C1136 1.574 . S
C1119 C1138 1.368 . S
C1119 H1143 0.949 . S
H1120 C1124 0.949 . S
C1121 C1122 1.349 . S
C1121 C1123 1.327 . S
C1121 H1144 0.950 . S
C1122 C1121 1.349 . S
C1122 C1134 1.349 . S
C1123 C1121 1.327 . S
C1123 C1139 1.429 . S
C1123 H1145 0.950 . S
C1124 H1120 0.949 . S
C1124 C1132 1.574 . S
C1124 C1140 1.368 . S
H1125 C1133 0.950 . S
H1126 C1131 0.950 . S
H1127 C1132 0.949 . S
H1128 C1134 0.950 . S
H1129 C1135 0.950 . S
H1130 C1136 0.949 . S
C1131 H1126 0.950 . S
C1131 C1133 1.327 . S
C1131 C1137 1.429 . S
C1132 C1124 1.574 . S
C1132 H1127 0.949 . S
C1132 C1138 1.368 . S
C1133 C1117 1.349 . S
C1133 H1125 0.950 . S
C1133 C1131 1.327 . S
C1134 C1122 1.349 . S
C1134 H1128 0.950 . S
C1134 C1135 1.327 . S
C1135 H1129 0.950 . S
C1135 C1134 1.327 . S
C1135 C1139 1.429 . S
C1136 C1119 1.574 . S
C1136 H1130 0.949 . S
C1136 C1140 1.368 . S
C1137 C1118 1.429 . S
C1137 C1131 1.429 . S
C1137 C1138 1.523 . S
C1138 C1119 1.368 . S
C1138 C1132 1.368 . S
C1138 C1137 1.523 . S
C1139 C1123 1.429 . S
C1139 C1135 1.429 . S
C1139 C1140 1.523 . S
C1140 C1124 1.368 . S
C1140 C1136 1.368 . S
C1140 C1139 1.523 . S
H1141 C1116 0.950 . S
H1142 C1118 0.950 . S
H1143 C1119 0.949 . S
H1144 C1121 0.950 . S
H1145 C1123 0.950 . S
C1146 C1147 1.349 . S
C1146 C1148 1.327 . S
C1146 H1171 0.950 . S
C1147 C1146 1.349 . S
C1147 C1163 1.349 . S
C1148 C1146 1.327 . S
C1148 C1167 1.429 . S
C1148 H1172 0.950 . S
C1149 C1166 1.574 . S
C1149 C1168 1.368 . S
C1149 H1173 0.949 . S
H1150 C1154 0.949 . S
C1151 C1152 1.349 . S
C1151 C1153 1.327 . S
C1151 H1174 0.950 . S
C1152 C1151 1.349 . S
C1152 C1164 1.349 . S
C1153 C1151 1.327 . S
C1153 C1169 1.429 . S
C1153 H1175 0.950 . S
C1154 H1150 0.949 . S
C1154 C1162 1.574 . S
C1154 C1170 1.368 . S
H1155 C1163 0.950 . S
H1156 C1161 0.950 . S
H1157 C1162 0.949 . S
H1158 C1164 0.950 . S
H1159 C1165 0.950 . S
H1160 C1166 0.949 . S
C1161 H1156 0.950 . S
C1161 C1163 1.327 . S
C1161 C1167 1.429 . S
C1162 C1154 1.574 . S
C1162 H1157 0.949 . S
C1162 C1168 1.368 . S
C1163 C1147 1.349 . S
C1163 H1155 0.950 . S
C1163 C1161 1.327 . S
C1164 C1152 1.349 . S
C1164 H1158 0.950 . S
C1164 C1165 1.327 . S
C1165 H1159 0.950 . S
C1165 C1164 1.327 . S
C1165 C1169 1.429 . S
C1166 C1149 1.574 . S
C1166 H1160 0.949 . S
C1166 C1170 1.368 . S
C1167 C1148 1.429 . S
C1167 C1161 1.429 . S
C1167 C1168 1.523 . S
C1168 C1149 1.368 . S
C1168 C1162 1.368 . S
C1168 C1167 1.523 . S
C1169 C1153 1.429 . S
C1169 C1165 1.429 . S
C1169 C1170 1.523 . S
C1170 C1154 1.368 . S
C1170 C1166 1.368 . S
C1170 C1169 1.523 . S
H1171 C1146 0.950 . S
H1172 C1148 0.950 . S
H1173 C1149 0.949 . S
H1174 C1151 0.950 . S
H1175 C1153 0.950 . S
C1176 C1177 1.349 . S
C1176 C1178 1.327 . S
C1176 H1201 0.950 . S
C1177 C1176 1.349 . S
C1177 C1193 1.349 . S
C1178 C1176 1.327 . S
C1178 C1197 1.429 . S
C1178 H1202 0.950 . S
C1179 C1196 1.574 . S
C1179 C1198 1.368 . S
C1179 H1203 0.949 . S
H1180 C1184 0.949 . S
C1181 C1182 1.349 . S
C1181 C1183 1.327 . S
C1181 H1204 0.950 . S
C1182 C1181 1.349 . S
C1182 C1194 1.349 . S
C1183 C1181 1.327 . S
C1183 C1199 1.429 . S
C1183 H1205 0.950 . S
C1184 H1180 0.949 . S
C1184 C1192 1.574 . S
C1184 C1200 1.368 . S
H1185 C1193 0.950 . S
H1186 C1191 0.950 . S
H1187 C1192 0.949 . S
H1188 C1194 0.950 . S
H1189 C1195 0.950 . S
H1190 C1196 0.949 . S
C1191 H1186 0.950 . S
C1191 C1193 1.327 . S
C1191 C1197 1.429 . S
C1192 C1184 1.574 . S
C1192 H1187 0.949 . S
C1192 C1198 1.368 . S
C1193 C1177 1.349 . S
C1193 H1185 0.950 . S
C1193 C1191 1.327 . S
C1194 C1182 1.349 . S
C1194 H1188 0.950 . S
C1194 C1195 1.327 . S
C1195 H1189 0.950 . S
C1195 C1194 1.327 . S
C1195 C1199 1.429 . S
C1196 C1179 1.574 . S
C1196 H1190 0.949 . S
C1196 C1200 1.368 . S
C1197 C1178 1.429 . S
C1197 C1191 1.429 . S
C1197 C1198 1.523 . S
C1198 C1179 1.368 . S
C1198 C1192 1.368 . S
C1198 C1197 1.523 . S
C1199 C1183 1.429 . S
C1199 C1195 1.429 . S
C1199 C1200 1.523 . S
C1200 C1184 1.368 . S
C1200 C1196 1.368 . S
C1200 C1199 1.523 . S
H1201 C1176 0.950 . S
H1202 C1178 0.950 . S
H1203 C1179 0.949 . S
H1204 C1181 0.950 . S
H1205 C1183 0.950 . S
C1206 C1207 1.349 . S
C1206 C1208 1.327 . S
C1206 H1231 0.950 . S
C1207 C1206 1.349 . S
C1207 C1223 1.349 . S
C1208 C1206 1.327 . S
C1208 C1227 1.429 . S
C1208 H1232 0.950 . S
C1209 C1226 1.574 . S
C1209 C1228 1.368 . S
C1209 H1233 0.949 . S
H1210 C1214 0.949 . S
C1211 C1212 1.349 . S
C1211 C1213 1.327 . S
C1211 H1234 0.950 . S
C1212 C1211 1.349 . S
C1212 C1224 1.349 . S
C1213 C1211 1.327 . S
C1213 C1229 1.429 . S
C1213 H1235 0.950 . S
C1214 H1210 0.949 . S
C1214 C1222 1.574 . S
C1214 C1230 1.368 . S
H1215 C1223 0.950 . S
H1216 C1221 0.950 . S
H1217 C1222 0.949 . S
H1218 C1224 0.950 . S
H1219 C1225 0.950 . S
H1220 C1226 0.949 . S
C1221 H1216 0.950 . S
C1221 C1223 1.327 . S
C1221 C1227 1.429 . S
C1222 C1214 1.574 . S
C1222 H1217 0.949 . S
C1222 C1228 1.368 . S
C1223 C1207 1.349 . S
C1223 H1215 0.950 . S
C1223 C1221 1.327 . S
C1224 C1212 1.349 . S
C1224 H1218 0.950 . S
C1224 C1225 1.327 . S
C1225 H1219 0.950 . S
C1225 C1224 1.327 . S
C1225 C1229 1.429 . S
C1226 C1209 1.574 . S
C1226 H1220 0.949 . S
C1226 C1230 1.368 . S
C1227 C1208 1.429 . S
C1227 C1221 1.429 . S
C1227 C1228 1.523 . S
C1228 C1209 1.368 . S
C1228 C1222 1.368 . S
C1228 C1227 1.523 . S
C1229 C1213 1.429 . S
C1229 C1225 1.429 . S
C1229 C1230 1.523 . S
C1230 C1214 1.368 . S
C1230 C1226 1.368 . S
C1230 C1229 1.523 . S
H1231 C1206 0.950 . S
H1232 C1208 0.950 . S
H1233 C1209 0.949 . S
H1234 C1211 0.950 . S
H1235 C1213 0.950 . S
C1236 C1237 1.349 . S
C1236 C1238 1.327 . S
C1236 H1261 0.950 . S
C1237 C1236 1.349 . S
C1237 C1253 1.349 . S
C1238 C1236 1.327 . S
C1238 C1257 1.429 . S
C1238 H1262 0.950 . S
C1239 C1256 1.574 . S
C1239 C1258 1.368 . S
C1239 H1263 0.949 . S
H1240 C1244 0.949 . S
C1241 C1242 1.349 . S
C1241 C1243 1.327 . S
C1241 H1264 0.950 . S
C1242 C1241 1.349 . S
C1242 C1254 1.349 . S
C1243 C1241 1.327 . S
C1243 C1259 1.429 . S
C1243 H1265 0.950 . S
C1244 H1240 0.949 . S
C1244 C1252 1.574 . S
C1244 C1260 1.368 . S
H1245 C1253 0.950 . S
H1246 C1251 0.950 . S
H1247 C1252 0.949 . S
H1248 C1254 0.950 . S
H1249 C1255 0.950 . S
H1250 C1256 0.949 . S
C1251 H1246 0.950 . S
C1251 C1253 1.327 . S
C1251 C1257 1.429 . S
C1252 C1244 1.574 . S
C1252 H1247 0.949 . S
C1252 C1258 1.368 . S
C1253 C1237 1.349 . S
C1253 H1245 0.950 . S
C1253 C1251 1.327 . S
C1254 C1242 1.349 . S
C1254 H1248 0.950 . S
C1254 C1255 1.327 . S
C1255 H1249 0.950 . S
C1255 C1254 1.327 . S
C1255 C1259 1.429 . S
C1256 C1239 1.574 . S
C1256 H1250 0.949 . S
C1256 C1260 1.368 . S
C1257 C1238 1.429 . S
C1257 C1251 1.429 . S
C1257 C1258 1.523 . S
C1258 C1239 1.368 . S
C1258 C1252 1.368 . S
C1258 C1257 1.523 . S
C1259 C1243 1.429 . S
C1259 C1255 1.429 . S
C1259 C1260 1.523 . S
C1260 C1244 1.368 . S
C1260 C1256 1.368 . S
C1260 C1259 1.523 . S
H1261 C1236 0.950 . S
H1262 C1238 0.950 . S
H1263 C1239 0.949 . S
H1264 C1241 0.950 . S
H1265 C1243 0.950 . S
C1266 C1267 1.349 . S
C1266 C1268 1.327 . S
C1266 H1291 0.950 . S
C1267 C1266 1.349 . S
C1267 C1283 1.349 . S
C1268 C1266 1.327 . S
C1268 C1287 1.429 . S
C1268 H1292 0.950 . S
C1269 C1286 1.574 . S
C1269 C1288 1.368 . S
C1269 H1293 0.949 . S
H1270 C1274 0.949 . S
C1271 C1272 1.349 . S
C1271 C1273 1.327 . S
C1271 H1294 0.950 . S
C1272 C1271 1.349 . S
C1272 C1284 1.349 . S
C1273 C1271 1.327 . S
C1273 C1289 1.429 . S
C1273 H1295 0.950 . S
C1274 H1270 0.949 . S
C1274 C1282 1.574 . S
C1274 C1290 1.368 . S
H1275 C1283 0.950 . S
H1276 C1281 0.950 . S
H1277 C1282 0.949 . S
H1278 C1284 0.950 . S
H1279 C1285 0.950 . S
H1280 C1286 0.949 . S
C1281 H1276 0.950 . S
C1281 C1283 1.327 . S
C1281 C1287 1.429 . S
C1282 C1274 1.574 . S
C1282 H1277 0.949 . S
C1282 C1288 1.368 . S
C1283 C1267 1.349 . S
C1283 H1275 0.950 . S
C1283 C1281 1.327 . S
C1284 C1272 1.349 . S
C1284 H1278 0.950 . S
C1284 C1285 1.327 . S
C1285 H1279 0.950 . S
C1285 C1284 1.327 . S
C1285 C1289 1.429 . S
C1286 C1269 1.574 . S
C1286 H1280 0.949 . S
C1286 C1290 1.368 . S
C1287 C1268 1.429 . S
C1287 C1281 1.429 . S
C1287 C1288 1.523 . S
C1288 C1269 1.368 . S
C1288 C1282 1.368 . S
C1288 C1287 1.523 . S
C1289 C1273 1.429 . S
C1289 C1285 1.429 . S
C1289 C1290 1.523 . S
C1290 C1274 1.368 . S
C1290 C1286 1.368 . S
C1290 C1289 1.523 . S
H1291 C1266 0.950 . S
H1292 C1268 0.950 . S
H1293 C1269 0.949 . S
H1294 C1271 0.950 . S
H1295 C1273 0.950 . S
C397 C7 1.117 . S
C402 C370 1.117 . S
C427 C40 1.117 . S
C432 C205 1.117 . S
C457 C238 1.117 . S
C462 C73 1.117 . S
C487 C271 1.117 . S
C492 C106 1.117 . S
C517 C304 1.117 . S
C522 C139 1.117 . S
C547 C172 1.117 . S
C552 C337 1.117 . S
C577 C285 1.640 . S
C582 C21 1.640 . S
C607 C318 1.640 . S
C612 C54 1.640 . S
C637 C87 1.640 . S
C642 C351 1.640 . S
C667 C120 1.640 . S
C672 C384 1.640 . S
C697 C219 1.640 . S
C702 C153 1.640 . S
C727 C186 1.640 . S
C732 C252 1.640 . S
C757 N2 1.185 . S
C762 N13 1.187 . S
C787 N46 1.186 . S
C792 N35 1.185 . S
C817 N68 1.185 . S
C822 N79 1.186 . S
C847 N112 1.186 . S
C852 N101 1.185 . S
C877 N134 1.185 . S
C882 N145 1.187 . S
C907 N178 1.187 . S
C912 N167 1.185 . S
C937 N211 1.187 . S
C942 N200 1.185 . S
C967 N233 1.185 . S
C972 N244 1.187 . S
C997 N277 1.187 . S
C1002 N266 1.185 . S
C1027 N310 1.186 . S
C1032 N299 1.185 . S
C1057 N332 1.185 . S
C1062 N343 1.186 . S
C1087 N365 1.185 . S
C1092 N376 1.186 . S
C1117 C18 1.207 . S
C1122 C348 1.207 . S
C1147 C381 1.208 . S
C1152 C51 1.208 . S
C1177 C216 1.207 . S
C1182 C84 1.207 . S
C1207 C117 1.207 . S
C1212 C249 1.207 . S
C1237 C150 1.208 . S
C1242 C282 1.208 . S
C1267 C183 1.207 . S
C1272 C315 1.207 . S
