# Generated by pormake.
# Topology wlk, (5)-cn, num edge types: 1
# Building blocks:
#     Node 0, Type 0, BuildingBlock: BEQFEK_clean_sbu_0, # of connection points: 5
#     Node 1, Type 0, BuildingBlock: BEQFEK_clean_sbu_0, # of connection points: 5
#     Node 2, Type 0, BuildingBlock: BEQFEK_clean_sbu_0, # of connection points: 5
#     Node 3, Type 0, BuildingBlock: BEQFEK_clean_sbu_0, # of connection points: 5
#     Node 4, Type 0, BuildingBlock: BEQFEK_clean_sbu_0, # of connection points: 5
#     Node 5, Type 0, BuildingBlock: BEQFEK_clean_sbu_0, # of connection points: 5
#     Node 6, Type 0, BuildingBlock: BEQFEK_clean_sbu_0, # of connection points: 5
#     Node 7, Type 0, BuildingBlock: BEQFEK_clean_sbu_0, # of connection points: 5
#     Node 8, Type 0, BuildingBlock: BEQFEK_clean_sbu_0, # of connection points: 5
#     Node 9, Type 0, BuildingBlock: BEQFEK_clean_sbu_0, # of connection points: 5
#     Node 10, Type 0, BuildingBlock: BEQFEK_clean_sbu_0, # of connection points: 5
#     Node 11, Type 0, BuildingBlock: BEQFEK_clean_sbu_0, # of connection points: 5
#     Node 12, Type 0, BuildingBlock: BEQFEK_clean_sbu_0, # of connection points: 5
#     Node 13, Type 0, BuildingBlock: BEQFEK_clean_sbu_0, # of connection points: 5
#     Node 14, Type 0, BuildingBlock: BEQFEK_clean_sbu_0, # of connection points: 5
#     Node 15, Type 0, BuildingBlock: BEQFEK_clean_sbu_0, # of connection points: 5
#     Node 16, Type 0, BuildingBlock: BEQFEK_clean_sbu_0, # of connection points: 5
#     Node 17, Type 0, BuildingBlock: BEQFEK_clean_sbu_0, # of connection points: 5
#     Edge 18, Type (0, 0), BuildingBlock: AJUNOK_clean_linker_0, # of connection points: 2
#     Edge 19, Type (0, 0), BuildingBlock: AJUNOK_clean_linker_0, # of connection points: 2
#     Edge 20, Type (0, 0), BuildingBlock: AJUNOK_clean_linker_0, # of connection points: 2
#     Edge 21, Type (0, 0), BuildingBlock: AJUNOK_clean_linker_0, # of connection points: 2
#     Edge 22, Type (0, 0), BuildingBlock: AJUNOK_clean_linker_0, # of connection points: 2
#     Edge 23, Type (0, 0), BuildingBlock: AJUNOK_clean_linker_0, # of connection points: 2
#     Edge 24, Type (0, 0), BuildingBlock: AJUNOK_clean_linker_0, # of connection points: 2
#     Edge 25, Type (0, 0), BuildingBlock: AJUNOK_clean_linker_0, # of connection points: 2
#     Edge 26, Type (0, 0), BuildingBlock: AJUNOK_clean_linker_0, # of connection points: 2
#     Edge 27, Type (0, 0), BuildingBlock: AJUNOK_clean_linker_0, # of connection points: 2
#     Edge 28, Type (0, 0), BuildingBlock: AJUNOK_clean_linker_0, # of connection points: 2
#     Edge 29, Type (0, 0), BuildingBlock: AJUNOK_clean_linker_0, # of connection points: 2
#     Edge 30, Type (0, 0), BuildingBlock: AJUNOK_clean_linker_0, # of connection points: 2
#     Edge 31, Type (0, 0), BuildingBlock: AJUNOK_clean_linker_0, # of connection points: 2
#     Edge 32, Type (0, 0), BuildingBlock: AJUNOK_clean_linker_0, # of connection points: 2
#     Edge 33, Type (0, 0), BuildingBlock: AJUNOK_clean_linker_0, # of connection points: 2
#     Edge 34, Type (0, 0), BuildingBlock: AJUNOK_clean_linker_0, # of connection points: 2
#     Edge 35, Type (0, 0), BuildingBlock: AJUNOK_clean_linker_0, # of connection points: 2
#     Edge 36, Type (0, 0), BuildingBlock: AJUNOK_clean_linker_0, # of connection points: 2
#     Edge 37, Type (0, 0), BuildingBlock: AJUNOK_clean_linker_0, # of connection points: 2
#     Edge 38, Type (0, 0), BuildingBlock: AJUNOK_clean_linker_0, # of connection points: 2
#     Edge 39, Type (0, 0), BuildingBlock: AJUNOK_clean_linker_0, # of connection points: 2
#     Edge 40, Type (0, 0), BuildingBlock: AJUNOK_clean_linker_0, # of connection points: 2
#     Edge 41, Type (0, 0), BuildingBlock: AJUNOK_clean_linker_0, # of connection points: 2
#     Edge 42, Type (0, 0), BuildingBlock: AJUNOK_clean_linker_0, # of connection points: 2
#     Edge 43, Type (0, 0), BuildingBlock: AJUNOK_clean_linker_0, # of connection points: 2
#     Edge 44, Type (0, 0), BuildingBlock: AJUNOK_clean_linker_0, # of connection points: 2
#     Edge 45, Type (0, 0), BuildingBlock: AJUNOK_clean_linker_0, # of connection points: 2
#     Edge 46, Type (0, 0), BuildingBlock: AJUNOK_clean_linker_0, # of connection points: 2
#     Edge 47, Type (0, 0), BuildingBlock: AJUNOK_clean_linker_0, # of connection points: 2
#     Edge 48, Type (0, 0), BuildingBlock: AJUNOK_clean_linker_0, # of connection points: 2
#     Edge 49, Type (0, 0), BuildingBlock: AJUNOK_clean_linker_0, # of connection points: 2
#     Edge 50, Type (0, 0), BuildingBlock: AJUNOK_clean_linker_0, # of connection points: 2
#     Edge 51, Type (0, 0), BuildingBlock: AJUNOK_clean_linker_0, # of connection points: 2
#     Edge 52, Type (0, 0), BuildingBlock: AJUNOK_clean_linker_0, # of connection points: 2
#     Edge 53, Type (0, 0), BuildingBlock: AJUNOK_clean_linker_0, # of connection points: 2
#     Edge 54, Type (0, 0), BuildingBlock: AJUNOK_clean_linker_0, # of connection points: 2
#     Edge 55, Type (0, 0), BuildingBlock: AJUNOK_clean_linker_0, # of connection points: 2
#     Edge 56, Type (0, 0), BuildingBlock: AJUNOK_clean_linker_0, # of connection points: 2
#     Edge 57, Type (0, 0), BuildingBlock: AJUNOK_clean_linker_0, # of connection points: 2
#     Edge 58, Type (0, 0), BuildingBlock: AJUNOK_clean_linker_0, # of connection points: 2
#     Edge 59, Type (0, 0), BuildingBlock: AJUNOK_clean_linker_0, # of connection points: 2
#     Edge 60, Type (0, 0), BuildingBlock: AJUNOK_clean_linker_0, # of connection points: 2
#     Edge 61, Type (0, 0), BuildingBlock: AJUNOK_clean_linker_0, # of connection points: 2
#     Edge 62, Type (0, 0), BuildingBlock: AJUNOK_clean_linker_0, # of connection points: 2
# Relax obj value: 0.045
# Max RMSD: 0.100
# Mean RMSD: 0.100
data_MOF--net-wlk--node1-BEQFEK_clean_sbu_0--edge1-AJUNOK_clean_linker_0
_symmetry_space_group_name_H-M    P1
_symmetry_Int_Tables_number       1
_symmetry_cell_setting            triclinic
loop_
_symmetry_equiv_pos_as_xyz
'x, y, z'
_cell_length_a     50.071805
_cell_length_b     50.068107
_cell_length_c     23.920483
_cell_angle_alpha  89.985532
_cell_angle_beta   90.03325
_cell_angle_gamma 119.96254
loop_
_atom_site_label
_atom_site_type_symbol
_atom_site_fract_x
_atom_site_fract_y
_atom_site_fract_z
_atom_type_partial_charge
Co0 Co 0.2387 0.27645 0.18185 0.0
Co1 Co 0.18449 0.26587 0.10145 0.0
C2 C 0.20705 0.22068 0.10667 0.0
O3 O 0.22686 0.23733 0.14317 0.0
O4 O 0.18813 0.22824 0.0868 0.0
C5 C 0.2661 0.25805 0.26617 0.0
O6 O 0.24282 0.23064 0.25445 0.0
C7 C 0.12218 0.23832 0.04827 0.0
C8 C 0.12694 0.27901 1.0033 0.0
C9 C 0.10682 0.24793 0.01219 0.0
N10 N 0.1501 0.26277 0.06008 0.0
N11 N 0.15258 0.28697 0.03321 0.0
C12 C 0.11158 0.20622 0.0681 0.0
H13 H 0.13023 0.20067 0.0625 0.0
H14 H 0.10636 0.20479 0.11344 0.0
H15 H 0.09076 0.18906 0.04516 0.0
C16 C 0.20396 0.29151 0.26063 0.0
N17 N 0.2051 0.27841 0.21226 0.0
N18 N 0.18257 0.27505 0.17925 0.0
C19 C 0.16648 0.28634 0.20598 0.0
C20 C 0.17975 0.29744 0.25829 0.0
C21 C 0.22806 0.30171 0.3053 0.0
H22 H 0.23056 0.28186 0.31858 0.0
H23 H 0.22205 0.31098 0.34235 0.0
H24 H 0.25052 0.31969 0.2882 0.0
O25 O 0.2599 0.31048 0.12791 0.0
O26 O 0.222 0.30126 0.06842 0.0
H27 H 0.15345 0.30877 0.14487 0.0
H28 H 0.13123 0.29931 0.20867 0.0
C29 C 0.14249 0.29128 0.17838 0.0
H30 H 0.12484 0.26946 0.15877 0.0
H31 H 0.17212 0.30888 0.03437 0.0
O32 O 0.26865 0.28147 0.24064 0.0
C33 C 0.25009 0.31698 0.08377 0.0
Co34 Co 0.73341 0.96337 0.18086 0.0
Co35 Co 0.74524 0.91982 0.10297 0.0
C36 C 0.78941 0.98729 0.10553 0.0
O37 O 0.77217 0.99034 0.14084 0.0
O38 O 0.78288 0.96072 0.08779 0.0
C39 C 0.75272 0.01108 0.26196 0.0
O40 O 0.78026 0.01693 0.24629 0.0
C41 C 0.77367 0.88687 0.04811 0.0
C42 C 0.73296 0.84897 0.00655 0.0
C43 C 0.76456 0.862 0.01221 0.0
N44 N 0.74853 0.88856 0.06252 0.0
N45 N 0.72429 0.86563 0.03789 0.0
C46 C 0.80586 0.91031 0.06417 0.0
H47 H 0.80595 0.92021 0.10574 0.0
H48 H 0.82103 0.90005 0.06473 0.0
H49 H 0.81507 0.92925 0.03297 0.0
C50 C 0.71886 0.91431 0.26129 0.0
N51 N 0.73181 0.92821 0.2126 0.0
N52 N 0.73609 0.90924 0.18078 0.0
C53 C 0.72578 0.88237 0.20872 0.0
C54 C 0.71452 0.88468 0.26079 0.0
C55 C 0.70538 0.92708 0.30202 0.0
H56 H 0.69053 0.93407 0.27926 0.0
H57 H 0.72433 0.94793 0.32208 0.0
H58 H 0.69143 0.91024 0.33486 0.0
O59 O 0.69924 0.94996 0.12708 0.0
O60 O 0.70995 0.92181 0.06894 0.0
H61 H 0.70467 0.84432 0.15233 0.0
H62 H 0.71876 0.83627 0.21611 0.0
C63 C 0.72354 0.85396 0.18366 0.0
H64 H 0.74537 0.85992 0.1619 0.0
H65 H 0.70189 0.8619 0.04117 0.0
O66 O 0.72905 0.98884 0.23945 0.0
C67 C 0.6937 0.93385 0.08289 0.0
Co68 Co 0.04521 0.77212 0.17937 0.0
Co69 Co 0.09074 0.82718 0.1026 0.0
C70 C 0.02279 0.80486 0.1039 0.0
O71 O 0.01887 0.785 0.14083 0.0
O72 O 0.04964 0.82355 0.08528 0.0
C73 C 0.99707 0.74269 0.25946 0.0
O74 O 0.99081 0.76411 0.24376 0.0
C75 C 0.12384 0.88895 0.04908 0.0
C76 C 0.16326 0.88743 0.01107 0.0
C77 C 0.14971 0.90559 0.0157 0.0
N78 N 0.12233 0.86219 0.06349 0.0
N79 N 0.14609 0.8616 0.04083 0.0
C80 C 0.09929 0.89664 0.06239 0.0
H81 H 0.07872 0.88209 0.03629 0.0
H82 H 0.09236 0.89114 0.10685 0.0
H83 H 0.107 0.9212 0.05373 0.0
C84 C 0.09426 0.80544 0.26094 0.0
N85 N 0.08076 0.80509 0.21206 0.0
N86 N 0.10043 0.82819 0.18069 0.0
C87 C 0.12738 0.84379 0.2089 0.0
C88 C 0.12445 0.82962 0.26052 0.0
C89 C 0.07955 0.78086 0.30456 0.0
H90 H 0.05696 0.77824 0.31644 0.0
H91 H 0.09412 0.78647 0.34254 0.0
H92 H 0.07542 0.7586 0.28702 0.0
O93 O 0.05767 0.75118 0.12369 0.0
O94 O 0.09008 0.7904 0.06997 0.0
H95 H 0.16446 0.85731 0.15131 0.0
H96 H 0.17518 0.87972 0.21485 0.0
C97 C 0.15673 0.8681 0.18312 0.0
H98 H 0.15267 0.88545 0.16187 0.0
H99 H 0.15015 0.84317 0.04452 0.0
O100 O 0.01964 0.74175 0.23726 0.0
C101 C 0.07605 0.76179 0.08224 0.0
Co102 Co 0.77294 0.73379 0.83077 0.0
Co103 Co 0.82852 0.74367 0.90611 0.0
C104 C 0.80856 0.7909 0.90026 0.0
O105 O 0.78801 0.77425 0.86496 0.0
O106 O 0.82673 0.78243 0.92045 0.0
C107 C 0.74845 0.75001 0.73867 0.0
O108 O 0.77703 0.77263 0.73386 0.0
C109 C 0.89074 0.77132 0.95828 0.0
C110 C 0.8882 0.73 0.9968 0.0
C111 C 0.90707 0.76158 0.9915 0.0
N112 N 0.8635 0.74648 0.94459 0.0
N113 N 0.86232 0.72191 0.96757 0.0
C114 C 0.89923 0.80373 0.94444 0.0
H115 H 0.89454 0.80528 0.89955 0.0
H116 H 0.92373 0.82023 0.95424 0.0
H117 H 0.88451 0.81011 0.9692 0.0
C118 C 0.80395 0.71436 0.74976 0.0
N119 N 0.80434 0.72867 0.79769 0.0
N120 N 0.82801 0.73294 0.82841 0.0
C121 C 0.84351 0.72142 0.80042 0.0
C122 C 0.82857 0.70898 0.74988 0.0
C123 C 0.77873 0.70347 0.70712 0.0
H124 H 0.77941 0.72375 0.68712 0.0
H125 H 0.78124 0.68949 0.67381 0.0
H126 H 0.75603 0.68982 0.72792 0.0
O127 O 0.75225 0.70236 0.88909 0.0
O128 O 0.79154 0.70926 0.94249 0.0
H129 H 0.85929 0.69977 0.85798 0.0
H130 H 0.88061 0.71126 0.79332 0.0
C131 C 0.86898 0.71791 0.82533 0.0
H132 H 0.8861 0.73986 0.84532 0.0
H133 H 0.84343 0.69965 0.96448 0.0
O134 O 0.74155 0.72975 0.77637 0.0
C135 C 0.76275 0.69531 0.9316 0.0
Co136 Co 0.27583 0.04253 0.82698 0.0
Co137 Co 0.26716 0.08831 0.90495 0.0
C138 C 0.22053 0.02081 0.90205 0.0
O139 O 0.23631 0.01671 0.86502 0.0
O140 O 0.22907 0.04767 0.92122 0.0
C141 C 0.25729 0.99383 0.74739 0.0
O142 O 0.22952 0.98674 0.76397 0.0
C143 C 0.24057 0.12341 0.95861 0.0
C144 C 0.28181 0.16004 1.00117 0.0
C145 C 0.25045 0.14841 0.99454 0.0
N146 N 0.26504 0.12035 0.94509 0.0
N147 N 0.28961 0.14254 0.97033 0.0
C148 C 0.20816 0.10107 0.94185 0.0
H149 H 0.2079 0.08965 0.90192 0.0
H150 H 0.19444 0.11281 0.93766 0.0
H151 H 0.19736 0.08313 0.97471 0.0
C152 C 0.29245 0.09234 0.74653 0.0
N153 N 0.27942 0.07872 0.79535 0.0
N154 N 0.27609 0.09833 0.82713 0.0
C155 C 0.28723 0.12531 0.79919 0.0
C156 C 0.29818 0.12244 0.74723 0.0
C157 C 0.30234 0.07779 0.70263 0.0
H158 H 0.32082 0.07406 0.71976 0.0
H159 H 0.28254 0.05502 0.69112 0.0
H160 H 0.31086 0.09228 0.6645 0.0
O161 O 0.30861 0.05367 0.88319 0.0
O162 O 0.3023 0.08596 0.93803 0.0
H163 H 0.30982 0.16143 0.85899 0.0
H164 H 0.30029 0.17356 0.7946 0.0
C165 C 0.29226 0.15457 0.8255 0.0
H166 H 0.27049 0.15066 0.84494 0.0
H167 H 0.31161 0.14518 0.96781 0.0
O168 O 0.28057 0.01702 0.76874 0.0
C169 C 0.31622 0.07128 0.92571 0.0
Co170 Co 0.96655 0.23714 0.82954 0.0
Co171 Co 0.92188 0.18104 0.90554 0.0
C172 C 0.98958 0.20416 0.90429 0.0
O173 O 0.99292 0.22436 0.86853 0.0
O174 O 0.96292 0.18461 0.92249 0.0
C175 C 0.01382 0.26434 0.74846 0.0
O176 O 0.01712 0.24069 0.76166 0.0
C177 C 0.88816 0.11954 0.96077 0.0
C178 C 0.84771 0.12103 0.99377 0.0
C179 C 0.86148 0.10297 0.9923 0.0
N180 N 0.88988 0.14612 0.94433 0.0
N181 N 0.86553 0.14669 0.96407 0.0
C182 C 0.91307 0.1119 0.95086 0.0
H183 H 0.9193 0.11492 0.90587 0.0
H184 H 0.90606 0.0881 0.96437 0.0
H185 H 0.93389 0.12828 0.97472 0.0
C186 C 0.91735 0.20387 0.74835 0.0
N187 N 0.93122 0.20413 0.79676 0.0
N188 N 0.91229 0.18027 0.82742 0.0
C189 C 0.88559 0.16395 0.7989 0.0
C190 C 0.8878 0.1785 0.74797 0.0
C191 C 0.93022 0.2305 0.70849 0.0
H192 H 0.93709 0.25211 0.73193 0.0
H193 H 0.95121 0.23267 0.68852 0.0
H194 H 0.91347 0.22777 0.67552 0.0
O195 O 0.95375 0.25769 0.885 0.0
O196 O 0.9226 0.21785 0.93871 0.0
H197 H 0.84682 0.14482 0.85385 0.0
H198 H 0.84027 0.1241 0.78888 0.0
C199 C 0.85742 0.13677 0.82225 0.0
H200 H 0.86387 0.12103 0.84321 0.0
H201 H 0.86138 0.16495 0.95819 0.0
O202 O 0.99264 0.26733 0.77173 0.0
C203 C 0.93577 0.24649 0.92687 0.0
Co204 Co 0.90361 0.6077 0.51349 0.0
Co205 Co 0.84903 0.59912 0.43597 0.0
C206 C 0.86945 0.55227 0.43818 0.0
O207 O 0.88954 0.5682 0.47487 0.0
O208 O 0.851 0.56072 0.41922 0.0
C209 C 0.93372 0.58871 0.59265 0.0
O210 O 0.91325 0.56099 0.57545 0.0
C211 C 0.78687 0.57484 0.3844 0.0
C212 C 0.79128 0.61805 0.35133 0.0
C213 C 0.77089 0.58668 0.35577 0.0
N214 N 0.81527 0.59828 0.39663 0.0
N215 N 0.81773 0.62394 0.37621 0.0
C216 C 0.77501 0.54222 0.40217 0.0
H217 H 0.78762 0.54143 0.43975 0.0
H218 H 0.7499 0.53065 0.41085 0.0
H219 H 0.77885 0.5296 0.36784 0.0
C220 C 0.8705 0.62408 0.59468 0.0
N221 N 0.8712 0.61141 0.54548 0.0
N222 N 0.848 0.60778 0.51413 0.0
C223 C 0.83174 0.61815 0.54297 0.0
C224 C 0.84564 0.62904 0.59487 0.0
C225 C 0.89518 0.63431 0.63818 0.0
H226 H 0.89812 0.61454 0.65025 0.0
H227 H 0.88953 0.64328 0.67608 0.0
H228 H 0.91731 0.65252 0.62039 0.0
O229 O 0.92539 0.64063 0.45779 0.0
O230 O 0.88667 0.63411 0.40309 0.0
H231 H 0.79473 0.62848 0.5503 0.0
H232 H 0.78962 0.60067 0.49693 0.0
C233 C 0.80661 0.62225 0.51808 0.0
H234 H 0.81668 0.6409 0.4864 0.0
H235 H 0.83745 0.6456 0.37984 0.0
O236 O 0.93372 0.61204 0.57171 0.0
C237 C 0.91527 0.64814 0.41529 0.0
Co238 Co 0.40395 0.29894 0.51365 0.0
Co239 Co 0.41164 0.2527 0.4356 0.0
C240 C 0.45907 0.3202 0.43912 0.0
O241 O 0.44372 0.32461 0.47655 0.0
O242 O 0.44973 0.2934 0.41892 0.0
C243 C 0.42293 0.34622 0.59489 0.0
O244 O 0.45019 0.34989 0.58341 0.0
C245 C 0.43901 0.2183 0.3822 0.0
C246 C 0.39762 0.17968 0.3436 0.0
C247 C 0.42921 0.19234 0.34872 0.0
N248 N 0.4142 0.22068 0.39621 0.0
N249 N 0.38958 0.1974 0.37318 0.0
C250 C 0.47144 0.24215 0.39604 0.0
H251 H 0.47759 0.2635 0.37232 0.0
H252 H 0.47315 0.24784 0.44122 0.0
H253 H 0.48801 0.23441 0.38505 0.0
C254 C 0.38692 0.24935 0.59445 0.0
N255 N 0.40005 0.26278 0.54557 0.0
N256 N 0.40278 0.24284 0.51369 0.0
C257 C 0.39106 0.21579 0.54164 0.0
C258 C 0.38029 0.21896 0.59357 0.0
C259 C 0.37782 0.26449 0.63858 0.0
H260 H 0.36017 0.26948 0.62147 0.0
H261 H 0.39822 0.28671 0.65066 0.0
H262 H 0.36858 0.2498 0.67635 0.0
O263 O 0.37127 0.28789 0.45733 0.0
O264 O 0.37626 0.25471 0.40263 0.0
H265 H 0.36705 0.17906 0.48353 0.0
H266 H 0.37812 0.16765 0.54703 0.0
C267 C 0.38542 0.18628 0.51555 0.0
H268 H 0.4067 0.18992 0.49446 0.0
H269 H 0.36733 0.19404 0.37654 0.0
O270 O 0.39927 0.32479 0.57093 0.0
C271 C 0.36292 0.26992 0.41524 0.0
Co272 Co 0.71148 0.10552 0.51401 0.0
Co273 Co 0.75665 0.16001 0.43586 0.0
C274 C 0.68901 0.13845 0.43893 0.0
O275 O 0.68518 0.11871 0.47605 0.0
O276 O 0.71576 0.15689 0.41969 0.0
C277 C 0.6625 0.07482 0.59288 0.0
O278 O 0.65502 0.09518 0.57601 0.0
C279 C 0.78978 0.22142 0.38135 0.0
C280 C 0.8291 0.21962 0.34355 0.0
C281 C 0.81564 0.23789 0.3479 0.0
N282 N 0.78818 0.19467 0.39608 0.0
N283 N 0.81187 0.1939 0.37353 0.0
C284 C 0.76534 0.22929 0.39462 0.0
H285 H 0.74443 0.21417 0.36977 0.0
H286 H 0.75906 0.22467 0.43949 0.0
H287 H 0.77282 0.25364 0.38445 0.0
C288 C 0.76131 0.1389 0.59428 0.0
N289 N 0.74751 0.13826 0.54556 0.0
N290 N 0.76682 0.16131 0.51373 0.0
C291 C 0.79376 0.17741 0.54165 0.0
C292 C 0.7912 0.16374 0.59367 0.0
C293 C 0.74799 0.11284 0.63536 0.0
H294 H 0.74109 0.09091 0.61307 0.0
H295 H 0.72699 0.11116 0.65434 0.0
H296 H 0.76449 0.11576 0.66895 0.0
O297 O 0.72298 0.08421 0.45799 0.0
O298 O 0.75497 0.12276 0.40274 0.0
H299 H 0.83201 0.19378 0.48588 0.0
H300 H 0.84004 0.21607 0.54935 0.0
C301 C 0.82242 0.20328 0.51674 0.0
H302 H 0.81683 0.21934 0.49461 0.0
H303 H 0.81586 0.17542 0.37755 0.0
O304 O 0.68608 0.07524 0.57216 0.0
C305 C 0.74054 0.0942 0.41541 0.0
Co306 Co 0.43976 0.06444 0.16184 0.0
Co307 Co 0.49547 0.07487 0.2378 0.0
C308 C 0.47268 0.11999 0.23661 0.0
O309 O 0.45258 0.10367 0.20029 0.0
O310 O 0.49177 0.11226 0.25491 0.0
C311 C 0.41061 0.08319 0.08133 0.0
O312 O 0.43247 0.11078 0.09628 0.0
C313 C 0.55712 0.10347 0.29188 0.0
C314 C 0.556 0.06229 0.32793 0.0
C315 C 0.57387 0.09407 0.32459 0.0
N316 N 0.53056 0.07827 0.27659 0.0
N317 N 0.53022 0.05378 0.29808 0.0
C318 C 0.5645 0.13577 0.28 0.0
H319 H 0.55915 0.1377 0.23564 0.0
H320 H 0.58895 0.15267 0.28927 0.0
H321 H 0.54965 0.14122 0.30644 0.0
C322 C 0.47316 0.04898 0.07991 0.0
N323 N 0.47276 0.06206 0.12882 0.0
N324 N 0.49629 0.06618 0.1597 0.0
C325 C 0.51235 0.05553 0.131 0.0
C326 C 0.498 0.04398 0.07965 0.0
C327 C 0.44803 0.03807 0.03715 0.0
H328 H 0.42607 0.02017 0.05598 0.0
H329 H 0.44501 0.05765 0.02414 0.0
H330 H 0.45331 0.02849 0.99965 0.0
O331 O 0.4192 0.03116 0.21772 0.0
O332 O 0.45887 0.03881 0.271 0.0
H333 H 0.52742 0.03259 0.18708 0.0
H334 H 0.54966 0.04573 0.12351 0.0
C335 C 0.53752 0.05151 0.15592 0.0
H336 H 0.55428 0.07298 0.17771 0.0
H337 H 0.51198 0.03126 0.29351 0.0
O338 O 0.40927 0.05962 0.10416 0.0
C339 C 0.43021 0.02387 0.25924 0.0
Co340 Co 0.94187 0.37613 0.16073 0.0
Co341 Co 0.93216 0.42114 0.23886 0.0
C342 C 0.88628 0.35363 0.23539 0.0
O343 O 0.90244 0.34996 0.19861 0.0
O344 O 0.89434 0.38032 0.25467 0.0
C345 C 0.92185 0.329 0.07909 0.0
O346 O 0.89478 0.32524 0.09265 0.0
C347 C 0.90396 0.45465 0.29255 0.0
C348 C 0.94494 0.49347 0.33174 0.0
C349 C 0.91331 0.48041 0.32634 0.0
N350 N 0.92905 0.45274 0.27863 0.0
N351 N 0.95342 0.47614 0.30202 0.0
C352 C 0.8717 0.43058 0.27819 0.0
H353 H 0.86536 0.40954 0.30308 0.0
H354 H 0.87044 0.42435 0.23335 0.0
H355 H 0.85501 0.4384 0.2875 0.0
C356 C 0.95925 0.42641 0.08136 0.0
N357 N 0.94543 0.4123 0.12944 0.0
N358 N 0.94129 0.43142 0.1611 0.0
C359 C 0.95241 0.45852 0.13362 0.0
C360 C 0.96443 0.45635 0.08227 0.0
C361 C 0.97228 0.41319 0.04064 0.0
H362 H 0.98672 0.40568 0.06341 0.0
H363 H 0.95308 0.39256 0.02052 0.0
H364 H 0.98645 0.42996 0.00785 0.0
O365 O 0.9745 0.38732 0.21701 0.0
O366 O 0.96763 0.4192 0.27223 0.0
H367 H 0.97229 0.49611 0.19122 0.0
H368 H 0.95999 0.50481 0.12602 0.0
C369 C 0.95426 0.48683 0.15833 0.0
H370 H 0.93194 0.48085 0.17815 0.0
H371 H 0.97581 0.47986 0.29874 0.0
O372 O 0.94592 0.35036 0.10228 0.0
C373 C 0.98181 0.40477 0.25975 0.0
Co374 Co 0.62979 0.56944 0.16229 0.0
Co375 Co 0.58673 0.5135 0.23944 0.0
C376 C 0.65398 0.53948 0.24312 0.0
O377 O 0.6567 0.55989 0.20842 0.0
O378 O 0.6276 0.51762 0.25755 0.0
C379 C 0.68063 0.6006 0.08746 0.0
O380 O 0.689 0.58179 0.10912 0.0
C381 C 0.55301 0.45129 0.29048 0.0
C382 C 0.51705 0.45484 0.33781 0.0
C383 C 0.52885 0.43551 0.32766 0.0
N384 N 0.55549 0.47885 0.27952 0.0
N385 N 0.53367 0.4806 0.30754 0.0
C386 C 0.57498 0.44158 0.26962 0.0
H387 H 0.587 0.45481 0.23155 0.0
H388 H 0.56263 0.41649 0.26055 0.0
H389 H 0.59238 0.44617 0.30255 0.0
C390 C 0.58139 0.53426 0.0816 0.0
N391 N 0.59561 0.53513 0.12991 0.0
N392 N 0.57703 0.51152 0.16134 0.0
C393 C 0.55025 0.49461 0.1334 0.0
C394 C 0.55196 0.50864 0.08201 0.0
C395 C 0.59358 0.56089 0.04177 0.0
H396 H 0.59987 0.58233 0.0653 0.0
H397 H 0.61483 0.56371 0.02177 0.0
H398 H 0.5767 0.55782 0.00885 0.0
O399 O 0.61454 0.58968 0.21273 0.0
O400 O 0.58797 0.55092 0.27207 0.0
H401 H 0.51305 0.47522 0.19189 0.0
H402 H 0.5045 0.45497 0.12575 0.0
C403 C 0.52256 0.46737 0.15788 0.0
H404 H 0.52944 0.45138 0.17638 0.0
H405 H 0.53075 0.49983 0.30737 0.0
O406 O 0.65584 0.59918 0.10405 0.0
C407 C 0.59885 0.57896 0.25727 0.0
Co408 Co 0.57118 0.93924 0.84591 0.0
Co409 Co 0.51548 0.92885 0.77048 0.0
C410 C 0.53631 0.88232 0.7753 0.0
O411 O 0.55664 0.89903 0.8109 0.0
O412 O 0.51784 0.89045 0.75528 0.0
C413 C 0.59608 0.92377 0.93922 0.0
O414 O 0.56742 0.90179 0.94665 0.0
C415 C 0.45305 0.90116 0.71915 0.0
C416 C 0.45686 0.94169 0.6751 0.0
C417 C 0.43743 0.9104 0.6831 0.0
N418 N 0.4806 0.92594 0.73148 0.0
N419 N 0.48248 0.95009 0.70539 0.0
C420 C 0.44332 0.86903 0.7373 0.0
H421 H 0.4548 0.86937 0.77722 0.0
H422 H 0.4179 0.85532 0.74208 0.0
H423 H 0.45029 0.85785 0.70489 0.0
C424 C 0.53974 0.9583 0.92663 0.0
N425 N 0.53948 0.94389 0.87891 0.0
N426 N 0.51561 0.9391 0.84829 0.0
C427 C 0.49974 0.95021 0.87624 0.0
C428 C 0.51462 0.96289 0.92674 0.0
C429 C 0.56543 0.97028 0.96848 0.0
H430 H 0.58791 0.98318 0.94668 0.0
H431 H 0.56482 0.95054 0.99057 0.0
H432 H 0.56343 0.9853 1.00025 0.0
O433 O 0.59184 0.97099 0.78819 0.0
O434 O 0.55239 0.96378 0.73489 0.0
H435 H 0.48342 0.97055 0.81683 0.0
H436 H 0.46289 0.96086 0.88241 0.0
C437 C 0.47407 0.95331 0.85105 0.0
H438 H 0.45667 0.93092 0.83283 0.0
H439 H 0.50173 0.97219 0.70683 0.0
O440 O 0.60258 0.94329 0.90027 0.0
C441 C 0.58116 0.97801 0.74589 0.0
Co442 Co 0.06906 0.63217 0.84759 0.0
Co443 Co 0.07849 0.58659 0.77067 0.0
C444 C 0.12498 0.65405 0.77385 0.0
O445 O 0.10887 0.65811 0.81022 0.0
O446 O 0.11652 0.62728 0.75439 0.0
C447 C 0.08862 0.67766 0.93223 0.0
O448 O 0.11518 0.67923 0.92267 0.0
C449 C 0.10583 0.55215 0.71729 0.0
C450 C 0.06462 0.51431 0.67683 0.0
C451 C 0.09616 0.52681 0.68237 0.0
N452 N 0.08106 0.55458 0.73134 0.0
N453 N 0.05651 0.53166 0.7074 0.0
C454 C 0.13822 0.57526 0.73281 0.0
H455 H 0.1478 0.59373 0.7007 0.0
H456 H 0.13865 0.5859 0.77376 0.0
H457 H 0.15288 0.56443 0.73441 0.0
C458 C 0.05208 0.58248 0.9285 0.0
N459 N 0.06542 0.59613 0.87982 0.0
N460 N 0.06927 0.57669 0.84852 0.0
C461 C 0.05826 0.54981 0.87668 0.0
C462 C 0.04698 0.55256 0.92837 0.0
C463 C 0.03934 0.59598 0.96923 0.0
H464 H 0.0254 0.60408 0.94646 0.0
H465 H 0.05871 0.61623 0.9899 0.0
H466 H 0.02474 0.57918 1.00162 0.0
O467 O 0.03634 0.62075 0.79103 0.0
O468 O 0.04324 0.58855 0.73693 0.0
H469 H 0.03661 0.51162 0.8207 0.0
H470 H 0.05012 0.50334 0.8849 0.0
C471 C 0.05539 0.52102 0.85218 0.0
H472 H 0.07717 0.5264 0.83081 0.0
H473 H 0.03429 0.52841 0.71058 0.0
O474 O 0.0649 0.6582 0.90542 0.0
C475 C 0.029 0.603 0.7487 0.0
Co476 Co 0.37628 0.43691 0.84301 0.0
Co477 Co 0.42203 0.49367 0.7701 0.0
C478 C 0.3548 0.47257 0.77243 0.0
O479 O 0.35097 0.45173 0.80706 0.0
O480 O 0.38152 0.49148 0.75364 0.0
C481 C 0.33825 0.41358 0.93922 0.0
O482 O 0.34768 0.44287 0.94799 0.0
C483 C 0.45648 0.55524 0.71554 0.0
C484 C 0.49637 0.55299 0.6818 0.0
C485 C 0.48279 0.57121 0.68295 0.0
N486 N 0.45456 0.52863 0.73241 0.0
N487 N 0.47868 0.52769 0.71246 0.0
C488 C 0.43211 0.56354 0.72605 0.0
H489 H 0.42185 0.55532 0.76806 0.0
H490 H 0.44156 0.58879 0.7226 0.0
H491 H 0.41357 0.55188 0.69447 0.0
C492 C 0.42609 0.46794 0.92553 0.0
N493 N 0.41224 0.46851 0.87755 0.0
N494 N 0.4313 0.49293 0.84811 0.0
C495 C 0.45789 0.50882 0.87713 0.0
C496 C 0.45543 0.49353 0.9272 0.0
C497 C 0.41389 0.44055 0.96359 0.0
H498 H 0.40062 0.41896 0.93935 0.0
H499 H 0.39841 0.44209 0.99493 0.0
H500 H 0.43276 0.43965 0.98629 0.0
O501 O 0.38829 0.41661 0.78583 0.0
O502 O 0.42071 0.45707 0.73473 0.0
H503 H 0.49755 0.52827 0.82445 0.0
H504 H 0.50281 0.5489 0.88907 0.0
C505 C 0.48627 0.53618 0.85489 0.0
H506 H 0.48001 0.55182 0.83304 0.0
H507 H 0.4826 0.50928 0.71845 0.0
O508 O 0.3483 0.40574 0.89726 0.0
C509 C 0.40677 0.4282 0.74477 0.0
Co510 Co 0.10581 0.39907 0.4958 0.0
Co511 Co 0.16202 0.41003 0.57088 0.0
C512 C 0.13973 0.4556 0.56813 0.0
O513 O 0.11927 0.43891 0.53261 0.0
O514 O 0.15867 0.44778 0.58705 0.0
C515 C 0.07716 0.41691 0.41298 0.0
O516 O 0.1007 0.44434 0.42351 0.0
C517 C 0.22404 0.43849 0.62411 0.0
C518 C 0.2217 0.39749 0.66361 0.0
C519 C 0.24011 0.42915 0.65884 0.0
N520 N 0.19719 0.4134 0.60953 0.0
N521 N 0.19621 0.38901 0.6329 0.0
C522 C 0.23254 0.47079 0.60945 0.0
H523 H 0.22229 0.47122 0.56853 0.0
H524 H 0.25794 0.48596 0.60819 0.0
H525 H 0.22316 0.47974 0.64182 0.0
C526 C 0.13868 0.383 0.41353 0.0
N527 N 0.13843 0.39616 0.46244 0.0
N528 N 0.16219 0.40054 0.49292 0.0
C529 C 0.17825 0.38997 0.46398 0.0
C530 C 0.16371 0.3783 0.41274 0.0
C531 C 0.11349 0.37216 0.37089 0.0
H532 H 0.11039 0.39173 0.35824 0.0
H533 H 0.11875 0.3628 0.33307 0.0
H534 H 0.09158 0.35413 0.38968 0.0
O535 O 0.08557 0.36645 0.55291 0.0
O536 O 0.12552 0.37445 0.60559 0.0
H537 H 0.19385 0.36828 0.52183 0.0
H538 H 0.21497 0.37918 0.45691 0.0
C539 C 0.20359 0.38619 0.48879 0.0
H540 H 0.22091 0.40816 0.50848 0.0
H541 H 0.17764 0.3666 0.62926 0.0
O542 O 0.07473 0.39365 0.43895 0.0
C543 C 0.09677 0.3595 0.59459 0.0
Co544 Co 0.61144 0.70912 0.49589 0.0
Co545 Co 0.59959 0.75302 0.57236 0.0
C546 C 0.55455 0.68595 0.5684 0.0
O547 O 0.57216 0.683 0.53393 0.0
O548 O 0.56136 0.7124 0.58722 0.0
C549 C 0.59459 0.66931 0.40192 0.0
O550 O 0.57364 0.6775 0.39503 0.0
C551 C 0.57152 0.78668 0.62641 0.0
C552 C 0.6125 0.82474 0.66702 0.0
C553 C 0.58088 0.81182 0.66179 0.0
N554 N 0.59654 0.78476 0.6119 0.0
N555 N 0.62094 0.80781 0.63595 0.0
C556 C 0.53924 0.7632 0.61103 0.0
H557 H 0.53885 0.7534 0.56921 0.0
H558 H 0.52399 0.77336 0.61132 0.0
H559 H 0.53034 0.74418 0.64205 0.0
C560 C 0.62868 0.75901 0.41551 0.0
N561 N 0.61439 0.74465 0.46313 0.0
N562 N 0.60946 0.76344 0.49432 0.0
C563 C 0.62031 0.79047 0.4667 0.0
C564 C 0.63299 0.78861 0.41587 0.0
C565 C 0.64331 0.74682 0.3761 0.0
H566 H 0.65306 0.73464 0.39981 0.0
H567 H 0.62546 0.73012 0.34715 0.0
H568 H 0.66189 0.76544 0.35099 0.0
O569 O 0.64505 0.72218 0.55015 0.0
O570 O 0.63473 0.75089 0.60763 0.0
H571 H 0.63919 0.82817 0.52409 0.0
H572 H 0.62686 0.83634 0.45841 0.0
C573 C 0.62134 0.8185 0.49091 0.0
H574 H 0.59879 0.81206 0.5103 0.0
H575 H 0.64328 0.81141 0.63254 0.0
O576 O 0.61433 0.68142 0.44085 0.0
C577 C 0.65088 0.73871 0.5938 0.0
Co578 Co 0.30111 0.9011 0.49466 0.0
Co579 Co 0.25525 0.8464 0.57177 0.0
C580 C 0.32274 0.86704 0.56899 0.0
O581 O 0.32698 0.88714 0.5323 0.0
O582 O 0.29592 0.84896 0.58841 0.0
C583 C 0.3474 0.9278 0.41155 0.0
O584 O 0.34982 0.9034 0.42239 0.0
C585 C 0.22046 0.78429 0.62364 0.0
C586 C 0.18433 0.7886 0.66876 0.0
C587 C 0.19592 0.76895 0.66033 0.0
N588 N 0.22335 0.8119 0.61141 0.0
N589 N 0.20142 0.81409 0.63811 0.0
C590 C 0.24254 0.77427 0.60486 0.0
H591 H 0.25416 0.78632 0.56564 0.0
H592 H 0.23045 0.74894 0.59853 0.0
H593 H 0.26031 0.78024 0.63771 0.0
C594 C 0.25131 0.86852 0.4138 0.0
N595 N 0.26496 0.86876 0.46245 0.0
N596 N 0.24536 0.84563 0.49385 0.0
C597 C 0.21839 0.82997 0.4658 0.0
C598 C 0.22124 0.84413 0.41416 0.0
C599 C 0.26586 0.89328 0.37043 0.0
H600 H 0.28812 0.89552 0.35727 0.0
H601 H 0.25094 0.88813 0.33306 0.0
H602 H 0.27067 0.91561 0.38875 0.0
O603 O 0.28973 0.92255 0.55104 0.0
O604 O 0.25724 0.88367 0.60513 0.0
H605 H 0.17011 0.79497 0.46096 0.0
H606 H 0.19306 0.78748 0.51033 0.0
C607 C 0.18916 0.80557 0.49183 0.0
H608 H 0.18241 0.81596 0.52603 0.0
H609 H 0.19876 0.83347 0.63687 0.0
O610 O 0.32708 0.93135 0.43688 0.0
C611 C 0.27186 0.91231 0.5932 0.0
C612 C 0.29562 0.23674 0.31413 0.0
C613 C 0.28997 0.26132 0.30626 0.0
C614 C 0.31924 0.2397 0.34955 0.0
C615 C 0.33761 0.26713 0.37935 0.0
H616 H 0.28219 0.21525 0.29172 0.0
H617 H 0.32306 0.22032 0.35371 0.0
S618 S 0.33141 0.33796 0.37476 0.0
N619 N 0.30426 0.31381 0.33176 0.0
N620 N 0.34824 0.31921 0.39932 0.0
C621 C 0.33175 0.29168 0.37278 0.0
C622 C 0.30806 0.28883 0.33593 0.0
C623 C 0.77332 0.06192 0.30958 0.0
C624 C 0.74944 0.03124 0.30313 0.0
C625 C 0.77031 0.08207 0.34623 0.0
C626 C 0.74357 0.0721 0.37867 0.0
H627 H 0.79427 0.07071 0.28517 0.0
H628 H 0.78912 0.10564 0.34916 0.0
S629 S 0.6748 0.99358 0.37881 0.0
N630 N 0.6984 0.99163 0.33297 0.0
N631 N 0.69294 0.02928 0.40273 0.0
C632 C 0.71978 0.04125 0.37357 0.0
C633 C 0.72265 0.02089 0.33553 0.0
C634 C 0.94662 0.71253 0.30824 0.0
C635 C 0.97725 0.7193 0.30102 0.0
C636 C 0.92684 0.68964 0.34561 0.0
C637 C 0.93712 0.67309 0.37804 0.0
H638 H 0.93758 0.72452 0.28396 0.0
H639 H 0.9033 0.68491 0.3491 0.0
S640 S 0.01565 0.68282 0.37628 0.0
N641 N 0.01716 0.70804 0.33009 0.0
N642 N 0.98017 0.66544 0.40123 0.0
C643 C 0.96792 0.6801 0.37216 0.0
C644 C 0.98792 0.70306 0.33336 0.0
C645 C 0.6721 0.73912 0.6881 0.0
C646 C 0.67648 0.74306 0.63004 0.0
C647 C 0.69552 0.74114 0.72299 0.0
C648 C 0.72435 0.74816 0.70107 0.0
H649 H 0.65015 0.73361 0.70645 0.0
H650 H 0.69116 0.73746 0.76749 0.0
S651 S 0.74772 0.76173 0.55219 0.0
N652 N 0.71171 0.75451 0.55213 0.0
N653 N 0.75628 0.75969 0.6182 0.0
C654 C 0.72929 0.75294 0.64332 0.0
C655 C 0.70516 0.75 0.60762 0.0
C656 C 0.23782 0.9433 0.69907 0.0
C657 C 0.26132 0.9741 0.70616 0.0
C658 C 0.24139 0.92359 0.6622 0.0
C659 C 0.26836 0.93407 0.63017 0.0
H660 H 0.2167 0.93407 0.72306 0.0
H661 H 0.22282 0.89994 0.65877 0.0
S662 S 0.33638 0.01305 0.6318 0.0
N663 N 0.31231 0.01437 0.67736 0.0
N664 N 0.31882 0.97748 0.60724 0.0
C665 C 0.2918 0.96502 0.63593 0.0
C666 C 0.28835 0.98497 0.67419 0.0
C667 C 0.0251 0.30466 0.67625 0.0
C668 C 0.03503 0.28767 0.70819 0.0
C669 C 0.04501 0.32731 0.63854 0.0
C670 C 0.07578 0.33426 0.63232 0.0
H671 H 1.00171 0.30033 0.68022 0.0
H672 H 0.0364 0.33996 0.61507 0.0
S673 S 0.11306 0.29625 0.70622 0.0
N674 N 0.07749 0.27901 0.73071 0.0
N675 N 0.11506 0.32195 0.66065 0.0
C676 C 0.08595 0.31734 0.66391 0.0
C677 C 0.06553 0.29393 0.70158 0.0
C678 C 0.96468 0.56919 0.64139 0.0
C679 C 0.95727 0.59264 0.6343 0.0
C680 C 0.98775 0.57269 0.67874 0.0
C681 C 1.00391 0.59952 0.71128 0.0
H682 H 0.95303 0.54818 0.61703 0.0
H683 H 0.99293 0.55417 0.68215 0.0
S684 S 0.99257 0.66736 0.70984 0.0
N685 N 0.96757 0.64344 0.66363 0.0
N686 N 0.01055 0.64979 0.73465 0.0
C687 C 0.9963 0.6229 0.70551 0.0
C688 C 0.97312 0.61954 0.66676 0.0
C689 C 0.38839 0.37676 0.70041 0.0
C690 C 0.41181 0.40761 0.70744 0.0
C691 C 0.39218 0.35703 0.66391 0.0
C692 C 0.41979 0.36725 0.63407 0.0
H693 H 0.36669 0.36792 0.72244 0.0
H694 H 0.3734 0.33355 0.65928 0.0
S695 S 0.48854 0.44564 0.63882 0.0
N696 N 0.46374 0.44732 0.68207 0.0
N697 N 0.47106 0.41007 0.61428 0.0
C698 C 0.4436 0.39786 0.64142 0.0
C699 C 0.43955 0.4181 0.67784 0.0
C700 C 0.5919 0.01915 0.67577 0.0
C701 C 0.60263 1.00302 0.70828 0.0
C702 C 0.61162 0.04272 0.6394 0.0
C703 C 0.64267 0.05067 0.63335 0.0
H704 H 0.56809 0.01367 0.67863 0.0
H705 H 0.60224 0.0544 0.61509 0.0
S706 S 0.68223 0.01548 0.70892 0.0
N707 N 0.64647 0.99683 0.73243 0.0
N708 N 0.68336 0.04078 0.66333 0.0
C709 C 0.65374 0.03475 0.6656 0.0
C710 C 0.63377 0.01105 0.70329 0.0
C711 C 0.38095 0.10398 0.03213 0.0
C712 C 0.38723 0.0798 0.03986 0.0
C713 C 0.3581 0.10109 0.99481 0.0
C714 C 0.34111 0.07415 0.96292 0.0
H715 H 0.39331 0.12511 0.05598 0.0
H716 H 0.35375 0.12014 0.99091 0.0
S717 S 0.3494 0.00451 0.96619 0.0
N718 N 0.37499 0.02821 0.0119 0.0
N719 N 0.33246 0.02298 0.94082 0.0
C720 C 0.34761 0.05003 0.96932 0.0
C721 C 0.37053 0.05278 0.00808 0.0
C722 C 0.95129 0.31814 0.00717 0.0
C723 C 0.92428 0.30793 0.03888 0.0
C724 C 0.95447 0.29831 0.96989 0.0
C725 C 0.93101 0.26739 0.9639 0.0
H726 H 0.97011 0.34164 0.01108 0.0
H727 H 0.97579 0.3071 0.94665 0.0
S728 S 0.85559 0.22943 0.03706 0.0
N729 N 0.87341 0.26508 0.06125 0.0
N730 N 0.87962 0.22769 0.99196 0.0
C731 C 0.9038 0.25696 0.99513 0.0
C732 C 0.90036 0.27728 0.03237 0.0
C733 C 0.73195 0.63259 0.04217 0.0
C734 C 0.70067 0.62413 0.04616 0.0
C735 C 0.75181 0.65559 0.00501 0.0
C736 C 0.74106 0.67069 0.96973 0.0
H737 H 0.74139 0.62177 0.06864 0.0
H738 H 0.77577 0.66148 1.00386 0.0
S739 S 0.66085 0.65644 0.96283 0.0
N740 N 0.6597 0.63232 0.01108 0.0
N741 N 0.69688 0.67526 0.94073 0.0
C742 C 0.70968 0.6621 0.97265 0.0
C743 C 0.68954 0.63893 0.01102 0.0
C744 C 0.61673 0.9223 0.03334 0.0
C745 C 0.62076 0.92558 0.97514 0.0
C746 C 0.64053 0.92509 0.06819 0.0
C747 C 0.66864 0.93017 0.04565 0.0
H748 H 0.59534 0.9183 0.05208 0.0
H749 H 0.63686 0.92303 0.11299 0.0
S750 S 0.68995 0.93917 0.89559 0.0
N751 N 0.65462 0.93384 0.89634 0.0
N752 N 0.69893 0.93786 0.9616 0.0
C753 C 0.6726 0.93273 0.98739 0.0
C754 C 0.64874 0.93077 0.95215 0.0
C755 C 0.05854 0.69008 1.00021 0.0
C756 C 0.08646 0.69895 0.97231 0.0
C757 C 0.05564 0.71026 0.03704 0.0
C758 C 0.08033 0.74027 0.0462 0.0
H759 H 0.03877 0.66735 0.99361 0.0
H760 H 0.03363 0.70257 0.05729 0.0
S761 S 0.15847 0.77455 0.98411 0.0
N762 N 0.13952 0.73946 0.9575 0.0
N763 N 0.1338 0.77763 0.02556 0.0
C764 C 0.10843 0.74934 0.01891 0.0
C765 C 0.11158 0.7286 0.98232 0.0
C766 C 0.27045 0.33884 0.98962 0.0
C767 C 0.27214 0.34246 0.04801 0.0
C768 C 0.29218 0.36195 0.95475 0.0
C769 C 0.31574 0.38979 0.97702 0.0
H770 H 0.25266 0.31769 0.97083 0.0
H771 H 0.29035 0.35812 0.90999 0.0
S772 S 0.32949 0.41102 0.12696 0.0
N773 N 0.29904 0.37599 0.12663 0.0
N774 N 0.33922 0.42 0.06075 0.0
C775 C 0.31727 0.39401 0.0352 0.0
C776 C 0.29564 0.37015 0.07082 0.0
C777 C 0.02463 0.43503 0.32703 0.0
C778 C 0.00668 0.40762 0.29693 0.0
C779 C 0.0478 0.438 0.36365 0.0
C780 C 0.05335 0.41341 0.3725 0.0
H781 H 0.02084 0.4544 0.32207 0.0
H782 H 0.06102 0.45952 0.38607 0.0
S783 S 0.01265 0.33672 0.30406 0.0
N784 N 0.9962 0.3555 0.27796 0.0
N785 N 0.03926 0.36087 0.34788 0.0
C786 C 0.03556 0.38587 0.34274 0.0
C787 C 0.01238 0.38305 0.30461 0.0
C788 C 0.58778 0.6443 0.30873 0.0
C789 C 0.59467 0.64548 0.36596 0.0
C790 C 0.58882 0.62241 0.2736 0.0
C791 C 0.59569 0.60039 0.29508 0.0
H792 H 0.58238 0.66091 0.29074 0.0
H793 H 0.58422 0.62269 0.2294 0.0
S794 S 0.61422 0.59303 0.44232 0.0
N795 N 0.60818 0.62258 0.44268 0.0
N796 N 0.60901 0.58075 0.377 0.0
C797 C 0.60178 0.60082 0.35246 0.0
C798 C 0.60157 0.62358 0.38785 0.0
C799 C 0.35884 0.96919 0.34158 0.0
C800 C 0.36845 0.95121 0.37123 0.0
C801 C 0.3787 0.99207 0.30416 0.0
C802 C 0.4091 0.99825 0.29606 0.0
H803 H 0.33577 0.96552 0.3472 0.0
H804 H 0.37042 0.00555 0.28254 0.0
S805 S 0.44535 0.95738 0.36316 0.0
N806 N 0.41011 0.94065 0.38913 0.0
N807 N 0.44764 0.98411 0.31982 0.0
C808 C 0.41892 0.9803 0.32519 0.0
C809 C 0.39852 0.95663 0.36247 0.0
C810 C 0.14515 0.32708 0.36633 0.0
C811 C 0.1684 0.35807 0.37334 0.0
C812 C 0.14859 0.30769 0.32806 0.0
C813 C 0.17542 0.31865 0.29567 0.0
H814 H 0.1242 0.31773 0.39083 0.0
H815 H 0.13039 0.28389 0.32438 0.0
S816 S 0.24229 0.39823 0.29631 0.0
N817 N 0.21858 0.39898 0.34349 0.0
N818 N 0.22511 0.36269 0.2715 0.0
C819 C 0.19862 0.34967 0.30179 0.0
C820 C 0.19513 0.36934 0.34076 0.0
C821 C 0.64712 0.81136 0.31979 0.0
C822 C 0.65355 0.81394 0.37744 0.0
C823 C 0.66736 0.83385 0.28192 0.0
C824 C 0.69488 0.85958 0.30038 0.0
H825 H 0.62625 0.79176 0.30393 0.0
H826 H 0.66116 0.8314 0.23807 0.0
S827 S 0.72357 0.87583 0.44625 0.0
N828 N 0.69026 0.84333 0.45059 0.0
N829 N 0.72811 0.88568 0.37954 0.0
C830 C 0.70182 0.86211 0.35771 0.0
C831 C 0.68121 0.83929 0.39623 0.0
C832 C 0.1661 0.86026 0.33041 0.0
C833 C 0.14956 0.8333 0.29854 0.0
C834 C 0.18903 0.86344 0.36822 0.0
C835 C 0.1962 0.83977 0.37534 0.0
H836 H 0.16104 0.87884 0.32649 0.0
H837 H 0.20122 0.88454 0.3922 0.0
S838 S 0.16066 0.76536 0.2997 0.0
N839 N 0.14277 0.78305 0.27493 0.0
N840 N 0.18562 0.78901 0.34635 0.0
C841 C 0.18001 0.81287 0.34344 0.0
C842 C 0.15679 0.80966 0.30485 0.0
C843 C 0.85964 0.69945 0.67874 0.0
C844 C 0.83298 0.68807 0.71178 0.0
C845 C 0.86345 0.68022 0.64067 0.0
C846 C 0.8407 0.64901 0.63438 0.0
H847 H 0.87746 0.72343 0.68192 0.0
H848 H 0.88427 0.68985 0.61575 0.0
S849 S 0.76757 0.60768 0.71336 0.0
N850 N 0.78416 0.64331 0.73763 0.0
N851 N 0.79123 0.60741 0.66551 0.0
C852 C 0.81416 0.63731 0.66756 0.0
C853 C 0.81035 0.65678 0.70652 0.0
C854 C 0.34948 0.15425 0.70077 0.0
C855 C 0.31882 0.14747 0.70849 0.0
C856 C 0.36919 0.17714 0.66297 0.0
C857 C 0.3589 0.19402 0.63176 0.0
H858 H 0.35828 0.14178 0.72426 0.0
H859 H 0.3927 0.18188 0.65852 0.0
S860 S 0.28034 0.18402 0.63466 0.0
N861 N 0.27892 0.15876 0.68076 0.0
N862 N 0.31579 0.20161 0.60943 0.0
C863 C 0.32822 0.18721 0.63871 0.0
C864 C 0.30824 0.16401 0.67726 0.0
C865 C 0.84169 0.16652 0.61456 0.0
C866 C 0.81627 0.16887 0.63312 0.0
C867 C 0.86444 0.16905 0.65217 0.0
C868 C 0.86245 0.17383 0.7096 0.0
H869 H 0.84374 0.16221 0.57084 0.0
H870 H 0.88375 0.16727 0.63628 0.0
S871 S 0.80145 0.18342 0.77853 0.0
N872 N 0.79101 0.1773 0.71212 0.0
N873 N 0.83385 0.18238 0.78264 0.0
C874 C 0.83737 0.17661 0.72847 0.0
C875 C 0.81427 0.17405 0.69024 0.0
C876 C 0.52837 0.03427 0.00725 0.0
C877 C 0.50219 0.02295 0.04155 0.0
C878 C 0.53198 0.01479 0.96949 0.0
C879 C 0.50963 0.98331 0.96509 0.0
H880 H 0.54599 0.05838 0.00929 0.0
H881 H 0.55246 0.02436 0.9436 0.0
S882 S 0.43747 0.94228 0.04695 0.0
N883 N 0.4539 0.97821 0.06964 0.0
N884 N 0.46079 0.94172 0.99869 0.0
C885 C 0.48344 0.97176 0.99922 0.0
C886 C 0.47975 0.99154 0.03759 0.0
C887 C 0.99894 0.50246 0.94912 0.0
C888 C 0.02683 0.52763 0.96777 0.0
C889 C 0.97854 0.47985 0.98666 0.0
C890 C 0.98528 0.48169 0.04411 0.0
H891 H 0.99263 0.50049 0.90537 0.0
H892 H 0.95735 0.46073 0.97068 0.0
S893 S 0.05611 0.54218 0.11327 0.0
N894 N 0.06052 0.55266 0.04689 0.0
N895 N 0.02252 0.50997 0.11727 0.0
C896 C 0.01326 0.50657 0.06308 0.0
C897 C 0.03395 0.52958 0.02493 0.0
C898 C 0.50653 0.49774 0.9481 0.0
C899 C 0.48029 0.49845 0.96692 0.0
C900 C 0.52915 0.50011 0.98584 0.0
C901 C 0.52637 0.50338 0.04365 0.0
H902 H 0.50935 0.49484 0.90402 0.0
H903 H 0.54912 0.49963 0.96971 0.0
S904 S 0.46263 0.50797 0.11344 0.0
N905 N 0.45296 0.50306 0.04664 0.0
N906 N 0.49588 0.50858 0.11737 0.0
C907 C 0.50034 0.50439 0.0628 0.0
C908 C 0.47721 0.50168 0.02446 0.0
C909 C 0.20535 0.18934 0.02328 0.0
C910 C 0.21017 0.19531 0.08112 0.0
C911 C 0.2164 0.17198 0.99548 0.0
C912 C 0.23245 0.15998 0.02473 0.0
H913 H 0.19517 0.20011 0.99859 0.0
H914 H 0.21433 0.16985 0.95041 0.0
S915 S 0.24597 0.16406 0.17758 0.0
N916 N 0.22813 0.18387 0.16744 0.0
N917 N 0.24905 0.15175 0.1152 0.0
C918 C 0.23506 0.16357 0.08298 0.0
C919 C 0.22378 0.18102 0.1112 0.0
C920 C 0.84221 0.07232 0.07948 0.0
C921 C 0.84971 0.07343 0.02267 0.0
C922 C 0.82509 0.04416 0.10735 0.0
C923 C 0.8144 0.01585 0.07936 0.0
H924 H 0.84838 0.09342 0.10197 0.0
H925 H 0.81866 0.04463 0.15041 0.0
S926 S 0.8298 0.00639 0.93097 0.0
N927 N 0.84691 0.04411 0.93989 0.0
N928 N 0.81469 0.99093 0.99216 0.0
C929 C 0.82357 0.01669 0.02337 0.0
C930 C 0.84114 0.04555 0.99496 0.0
C931 C 0.96647 0.78655 0.10611 0.0
C932 C 0.99467 0.80201 0.07702 0.0
C933 C 0.93824 0.77546 0.07845 0.0
C934 C 0.93695 0.77969 0.0207 0.0
H935 H 0.96608 0.78123 0.1501 0.0
H936 H 0.91716 0.7621 0.10201 0.0
S937 S 1.00376 0.82106 0.92571 0.0
N938 N 0.01941 0.82313 0.98755 0.0
N939 N 0.96608 0.80214 0.93568 0.0
C940 C 0.96481 0.79704 0.99164 0.0
C941 C 0.99375 0.80836 0.01985 0.0
C942 C 0.80013 0.84024 0.0107 0.0
C943 C 0.78337 0.85151 0.98168 0.0
C944 C 0.81158 0.82325 0.9828 0.0
C945 C 0.80644 0.81696 0.92512 0.0
H946 H 0.80234 0.84246 0.05575 0.0
H947 H 0.82208 0.81277 0.00743 0.0
S948 S 0.76893 0.84659 0.82909 0.0
N949 N 0.76593 0.85898 0.89146 0.0
N950 N 0.78755 0.82752 0.83895 0.0
C951 C 0.79235 0.83081 0.8951 0.0
C952 C 0.78065 0.84786 0.92345 0.0
C953 C 0.18258 0.96449 0.90021 0.0
C954 C 0.19525 0.99278 0.92903 0.0
C955 C 0.16587 0.93632 0.92824 0.0
C956 C 0.1607 0.93522 0.98607 0.0
H957 H 0.18733 0.96398 0.85617 0.0
H958 H 0.15829 0.91518 0.90492 0.0
S959 S 0.18578 1.00228 0.08037 0.0
N960 N 0.19893 0.01775 0.01829 0.0
N961 N 0.16737 0.96456 0.07083 0.0
C962 C 0.17099 0.96314 0.01483 0.0
C963 C 0.18818 0.992 0.98626 0.0
C964 C 0.07448 0.23429 0.92666 0.0
C965 C 0.07644 0.23007 0.98426 0.0
C966 C 0.04594 0.22306 0.90008 0.0
C967 C 0.01808 0.20738 0.93007 0.0
H968 H 0.09526 0.24764 0.90231 0.0
H969 H 0.04582 0.22836 0.85619 0.0
S970 S 0.01063 0.1884 0.08131 0.0
N971 N 0.0482 0.20752 0.0701 0.0
N972 N 0.99433 0.1862 0.02012 0.0
C973 C 0.01964 0.2011 0.98704 0.0
C974 C 0.04889 0.21261 0.0142 0.0
C975 C 0.88728 0.51387 0.44083 0.0
C976 C 0.87204 0.52681 0.41151 0.0
C977 C 0.89862 0.49692 0.41325 0.0
C978 C 0.89483 0.49179 0.35538 0.0
H979 H 0.89231 0.51857 0.48495 0.0
H980 H 0.91187 0.4891 0.43699 0.0
S981 S 0.85398 0.51766 0.25979 0.0
N982 N 0.85146 0.53087 0.32169 0.0
N983 N 0.87289 0.49887 0.26999 0.0
C984 C 0.87761 0.50239 0.32608 0.0
C985 C 0.86604 0.51982 0.35419 0.0
C986 C 0.50441 0.37792 0.32594 0.0
C987 C 0.51848 0.40572 0.35617 0.0
C988 C 0.48773 0.34939 0.35363 0.0
C989 C 0.4846 0.34795 0.4123 0.0
H990 H 0.50429 0.37834 0.28066 0.0
H991 H 0.47507 0.32872 0.32869 0.0
S992 S 0.52252 0.41404 0.51023 0.0
N993 N 0.53203 0.42986 0.44754 0.0
N994 N 0.50121 0.37654 0.49957 0.0
C995 C 0.50122 0.37548 0.44281 0.0
C996 C 0.51794 0.40433 0.41472 0.0
C997 C 0.60438 0.10787 0.41229 0.0
C998 C 0.60337 0.11256 0.35466 0.0
C999 C 0.6325 0.11928 0.44048 0.0
C1000 C 0.66084 0.13546 0.412 0.0
H1001 H 0.58321 0.0939 0.43527 0.0
H1002 H 0.63193 0.11359 0.48431 0.0
S1003 S 0.67052 0.15608 0.26134 0.0
N1004 N 0.63279 0.13635 0.27052 0.0
N1005 N 0.68591 0.15788 0.32332 0.0
C1006 C 0.66012 0.14231 0.35502 0.0
C1007 C 0.6313 0.1307 0.32631 0.0
C1008 C 0.45388 0.15762 0.23421 0.0
C1009 C 0.4697 0.14522 0.26325 0.0
C1010 C 0.44274 0.17473 0.26182 0.0
C1011 C 0.44726 0.18052 0.31945 0.0
H1012 H 0.44835 0.15246 0.19032 0.0
H1013 H 0.42914 0.18222 0.23832 0.0
S1014 S 0.48952 0.15592 0.41423 0.0
N1015 N 0.49142 0.14218 0.35249 0.0
N1016 N 0.47028 0.17439 0.4043 0.0
C1017 C 0.46492 0.17031 0.34843 0.0
C1018 C 0.47631 0.15275 0.32027 0.0
C1019 C 0.83244 0.26887 0.26074 0.0
C1020 C 0.82683 0.26758 0.31843 0.0
C1021 C 0.84906 0.29713 0.23298 0.0
C1022 C 0.86117 0.32533 0.26196 0.0
H1023 H 0.82524 0.24782 0.23733 0.0
H1024 H 0.85417 0.2968 0.18906 0.0
S1025 S 0.85065 0.3343 0.41307 0.0
N1026 N 0.83269 0.29662 0.40325 0.0
N1027 N 0.86402 0.34998 0.35122 0.0
C1028 C 0.85374 0.32434 0.31904 0.0
C1029 C 0.83666 0.29538 0.34733 0.0
C1030 C 0.69867 0.53278 0.27283 0.0
C1031 C 0.68102 0.54735 0.27852 0.0
C1032 C 0.72719 0.54441 0.30075 0.0
C1033 C 0.73876 0.57097 0.33459 0.0
H1034 H 0.69111 0.5133 0.24487 0.0
H1035 H 0.74097 0.53361 0.29335 0.0
S1036 S 0.69926 0.61507 0.36715 0.0
N1037 N 0.6757 0.58782 0.32372 0.0
N1038 N 0.72892 0.60962 0.37566 0.0
C1039 C 0.72038 0.58457 0.34251 0.0
C1040 C 0.69158 0.57275 0.31457 0.0
C1041 C 0.54502 0.83329 0.66426 0.0
C1042 C 0.56228 0.82241 0.6928 0.0
C1043 C 0.53347 0.8501 0.69251 0.0
C1044 C 0.53898 0.85661 0.75008 0.0
H1045 H 0.54242 0.83083 0.61929 0.0
H1046 H 0.5225 0.86021 0.66819 0.0
S1047 S 0.57809 0.8282 0.84497 0.0
N1048 N 0.58075 0.81568 0.78252 0.0
N1049 N 0.55894 0.84679 0.83567 0.0
C1050 C 0.55369 0.84323 0.77965 0.0
C1051 C 0.56549 0.82637 0.75094 0.0
C1052 C 0.17183 0.71132 0.66074 0.0
C1053 C 0.18503 0.73939 0.69013 0.0
C1054 C 0.15485 0.68299 0.68895 0.0
C1055 C 0.15048 0.68198 0.74732 0.0
H1056 H 0.17267 0.71135 0.61549 0.0
H1057 H 0.14299 0.66208 0.66438 0.0
S1058 S 0.18563 0.74897 0.84372 0.0
N1059 N 0.19637 0.76428 0.78087 0.0
N1060 N 0.16483 0.71136 0.83387 0.0
C1061 C 0.16609 0.70982 0.77728 0.0
C1062 C 0.18319 0.73846 0.74866 0.0
C1063 C 0.29742 0.46472 0.66132 0.0
C1064 C 0.26927 0.44777 0.68986 0.0
C1065 C 0.32574 0.47591 0.6896 0.0
C1066 C 0.32664 0.47032 0.74717 0.0
H1067 H 0.29757 0.46728 0.61634 0.0
H1068 H 0.34681 0.48662 0.66534 0.0
S1069 S 0.25915 0.43214 0.84204 0.0
N1070 N 0.24403 0.42966 0.77957 0.0
N1071 N 0.29686 0.45077 0.83275 0.0
C1072 C 0.29859 0.45599 0.77673 0.0
C1073 C 0.26998 0.44458 0.74801 0.0
C1074 C 0.13077 0.5039 0.68041 0.0
C1075 C 0.11451 0.51584 0.65167 0.0
C1076 C 0.142 0.48684 0.65202 0.0
C1077 C 0.13715 0.48117 0.59412 0.0
H1078 H 0.13284 0.50579 0.72551 0.0
H1079 H 0.15221 0.47596 0.67631 0.0
S1080 S 0.10102 0.51263 0.49893 0.0
N1081 N 0.0978 0.52447 0.56167 0.0
N1082 N 0.11914 0.49303 0.5083 0.0
C1083 C 0.12348 0.49558 0.56455 0.0
C1084 C 0.11199 0.51267 0.59337 0.0
C1085 C 0.50352 0.62835 0.67812 0.0
C1086 C 0.49397 0.60012 0.65078 0.0
C1087 C 0.52075 0.65656 0.64966 0.0
C1088 C 0.52901 0.65731 0.59309 0.0
H1089 H 0.4996 0.6287 0.72258 0.0
H1090 H 0.52967 0.67778 0.67327 0.0
S1091 S 0.50465 0.58933 0.50087 0.0
N1092 N 0.49047 0.57447 0.56282 0.0
N1093 N 0.52234 0.62709 0.5092 0.0
C1094 C 0.51707 0.62906 0.5644 0.0
C1095 C 0.49979 0.60056 0.59334 0.0
C1096 C 0.3515 0.86609 0.65427 0.0
C1097 C 0.35056 0.86928 0.59582 0.0
C1098 C 0.37979 0.87724 0.68262 0.0
C1099 C 0.40787 0.89174 0.6533 0.0
H1100 H 0.33059 0.85732 0.67875 0.0
H1101 H 0.37979 0.87657 0.72788 0.0
S1102 S 0.41758 0.90013 0.49968 0.0
N1103 N 0.37999 0.8837 0.50938 0.0
N1104 N 0.43282 0.90477 0.56263 0.0
C1105 C 0.40699 0.89247 0.59475 0.0
C1106 C 0.3784 0.88111 0.56599 0.0
loop_
_geom_bond_atom_site_label_1
_geom_bond_atom_site_label_2
_geom_bond_distance
_geom_bond_site_symmetry_2
_ccdc_geom_bond_type
Co0 O3 1.970 . S
Co0 N17 1.989 . S
Co0 O25 1.967 . S
Co0 O32 1.920 . S
Co1 O4 1.966 . S
Co1 N10 2.022 . S
Co1 N18 1.993 . S
Co1 O26 1.941 . S
C2 O3 1.258 . S
C2 O4 1.263 . S
O3 Co0 1.970 . S
O3 C2 1.258 . S
O4 Co1 1.966 . S
O4 C2 1.263 . S
C5 O6 1.235 . S
C5 O32 1.289 . S
O6 C5 1.235 . S
C7 C9 1.400 . S
C7 N10 1.351 . S
C7 C12 1.501 . S
C8 C9 1.387 . S
C8 N11 1.341 . S
C9 C7 1.400 . S
C9 C8 1.387 . S
N10 Co1 2.022 . S
N10 C7 1.351 . S
N10 N11 1.365 . S
N11 C8 1.341 . S
N11 N10 1.365 . S
N11 H31 0.862 . S
C12 C7 1.501 . S
C12 H13 0.961 . S
C12 H14 0.961 . S
C12 H15 0.960 1_554 S
H13 C12 0.961 . S
H14 C12 0.961 . S
H15 C12 0.960 1_556 S
C16 N17 1.342 . S
C16 C20 1.401 . S
C16 C21 1.499 . S
N17 Co0 1.989 . S
N17 C16 1.342 . S
N17 N18 1.388 . S
N18 Co1 1.993 . S
N18 N17 1.388 . S
N18 C19 1.346 . S
C19 N18 1.346 . S
C19 C20 1.396 . S
C19 C29 1.510 . S
C20 C16 1.401 . S
C20 C19 1.396 . S
C21 C16 1.499 . S
C21 H22 0.959 . S
C21 H23 0.960 . S
C21 H24 0.961 . S
H22 C21 0.959 . S
H23 C21 0.960 . S
H24 C21 0.961 . S
O25 Co0 1.967 . S
O25 C33 1.258 . S
O26 Co1 1.941 . S
O26 C33 1.266 . S
H27 C29 0.959 . S
H28 C29 0.961 . S
C29 C19 1.510 . S
C29 H27 0.959 . S
C29 H28 0.961 . S
C29 H30 0.960 . S
H30 C29 0.960 . S
H31 N11 0.862 . S
O32 Co0 1.920 . S
O32 C5 1.289 . S
C33 O25 1.258 . S
C33 O26 1.266 . S
Co34 O37 1.970 . S
Co34 N51 1.989 . S
Co34 O59 1.967 . S
Co34 O66 1.920 . S
Co35 O38 1.966 . S
Co35 N44 2.022 . S
Co35 N52 1.993 . S
Co35 O60 1.941 . S
C36 O37 1.258 . S
C36 O38 1.263 . S
O37 Co34 1.970 . S
O37 C36 1.258 . S
O38 Co35 1.966 . S
O38 C36 1.263 . S
C39 O40 1.252 . S
C39 O66 1.289 1_545 S
O40 C39 1.252 . S
C41 C43 1.400 . S
C41 N44 1.351 . S
C41 C46 1.501 . S
C42 C43 1.387 . S
C42 N45 1.341 . S
C43 C41 1.400 . S
C43 C42 1.387 . S
N44 Co35 2.022 . S
N44 C41 1.351 . S
N44 N45 1.365 . S
N45 C42 1.341 . S
N45 N44 1.365 . S
N45 H65 0.862 . S
C46 C41 1.501 . S
C46 H47 0.961 . S
C46 H48 0.961 . S
C46 H49 0.960 1_554 S
H47 C46 0.961 . S
H48 C46 0.961 . S
H49 C46 0.960 1_556 S
C50 N51 1.342 . S
C50 C54 1.401 . S
C50 C55 1.499 . S
N51 Co34 1.989 . S
N51 C50 1.342 . S
N51 N52 1.388 . S
N52 Co35 1.993 . S
N52 N51 1.388 . S
N52 C53 1.346 . S
C53 N52 1.346 . S
C53 C54 1.396 . S
C53 C63 1.510 . S
C54 C50 1.401 . S
C54 C53 1.396 . S
C55 C50 1.499 . S
C55 H56 0.959 . S
C55 H57 0.960 . S
C55 H58 0.961 . S
H56 C55 0.959 . S
H57 C55 0.960 . S
H58 C55 0.961 . S
O59 Co34 1.967 . S
O59 C67 1.258 . S
O60 Co35 1.941 . S
O60 C67 1.266 . S
H61 C63 0.959 . S
H62 C63 0.961 . S
C63 C53 1.510 . S
C63 H61 0.959 . S
C63 H62 0.961 . S
C63 H64 0.960 . S
H64 C63 0.960 . S
H65 N45 0.862 . S
O66 Co34 1.920 . S
O66 C39 1.289 1_565 S
C67 O59 1.258 . S
C67 O60 1.266 . S
Co68 O71 1.970 . S
Co68 N85 1.989 . S
Co68 O93 1.967 . S
Co68 O100 1.920 . S
Co69 O72 1.966 . S
Co69 N78 2.022 . S
Co69 N86 1.993 . S
Co69 O94 1.941 . S
C70 O71 1.258 . S
C70 O72 1.263 . S
O71 Co68 1.970 . S
O71 C70 1.258 . S
O72 Co69 1.966 . S
O72 C70 1.263 . S
C73 O74 1.220 . S
C73 O100 1.289 1_655 S
O74 C73 1.220 . S
C75 C77 1.400 . S
C75 N78 1.351 . S
C75 C80 1.501 . S
C76 C77 1.387 . S
C76 N79 1.341 . S
C77 C75 1.400 . S
C77 C76 1.387 . S
N78 Co69 2.022 . S
N78 C75 1.351 . S
N78 N79 1.365 . S
N79 C76 1.341 . S
N79 N78 1.365 . S
N79 H99 0.862 . S
C80 C75 1.501 . S
C80 H81 0.961 . S
C80 H82 0.961 . S
C80 H83 0.960 1_554 S
H81 C80 0.961 . S
H82 C80 0.961 . S
H83 C80 0.960 1_556 S
C84 N85 1.342 . S
C84 C88 1.401 . S
C84 C89 1.499 . S
N85 Co68 1.989 . S
N85 C84 1.342 . S
N85 N86 1.388 . S
N86 Co69 1.993 . S
N86 N85 1.388 . S
N86 C87 1.346 . S
C87 N86 1.346 . S
C87 C88 1.396 . S
C87 C97 1.510 . S
C88 C84 1.401 . S
C88 C87 1.396 . S
C89 C84 1.499 . S
C89 H90 0.959 . S
C89 H91 0.960 . S
C89 H92 0.961 . S
H90 C89 0.959 . S
H91 C89 0.960 . S
H92 C89 0.961 . S
O93 Co68 1.967 . S
O93 C101 1.258 . S
O94 Co69 1.941 . S
O94 C101 1.266 . S
H95 C97 0.959 . S
H96 C97 0.961 . S
C97 C87 1.510 . S
C97 H95 0.959 . S
C97 H96 0.961 . S
C97 H98 0.960 . S
H98 C97 0.960 . S
H99 N79 0.862 . S
O100 Co68 1.920 . S
O100 C73 1.289 1_455 S
C101 O93 1.258 . S
C101 O94 1.266 . S
Co102 O105 1.970 . S
Co102 N119 1.989 . S
Co102 O127 1.967 . S
Co102 O134 1.920 . S
Co103 O106 1.966 . S
Co103 N112 2.022 . S
Co103 N120 1.993 . S
Co103 O128 1.941 . S
C104 O105 1.258 . S
C104 O106 1.263 . S
O105 Co102 1.970 . S
O105 C104 1.258 . S
O106 Co103 1.966 . S
O106 C104 1.263 . S
C107 O108 1.235 . S
C107 O134 1.289 . S
O108 C107 1.235 . S
C109 C111 1.400 . S
C109 N112 1.351 . S
C109 C114 1.501 . S
C110 C111 1.387 . S
C110 N113 1.341 . S
C111 C109 1.400 . S
C111 C110 1.387 . S
N112 Co103 2.022 . S
N112 C109 1.351 . S
N112 N113 1.365 . S
N113 C110 1.341 . S
N113 N112 1.365 . S
N113 H133 0.862 . S
C114 C109 1.501 . S
C114 H115 0.961 . S
C114 H116 0.961 . S
C114 H117 0.960 1_556 S
H115 C114 0.961 . S
H116 C114 0.961 . S
H117 C114 0.960 1_554 S
C118 N119 1.342 . S
C118 C122 1.401 . S
C118 C123 1.499 . S
N119 Co102 1.989 . S
N119 C118 1.342 . S
N119 N120 1.388 . S
N120 Co103 1.993 . S
N120 N119 1.388 . S
N120 C121 1.346 . S
C121 N120 1.346 . S
C121 C122 1.396 . S
C121 C131 1.510 . S
C122 C118 1.401 . S
C122 C121 1.396 . S
C123 C118 1.499 . S
C123 H124 0.959 . S
C123 H125 0.960 . S
C123 H126 0.961 . S
H124 C123 0.959 . S
H125 C123 0.960 . S
H126 C123 0.961 . S
O127 Co102 1.967 . S
O127 C135 1.258 . S
O128 Co103 1.941 . S
O128 C135 1.266 . S
H129 C131 0.959 . S
H130 C131 0.961 . S
C131 C121 1.510 . S
C131 H129 0.959 . S
C131 H130 0.961 . S
C131 H132 0.960 . S
H132 C131 0.960 . S
H133 N113 0.862 . S
O134 Co102 1.920 . S
O134 C107 1.289 . S
C135 O127 1.258 . S
C135 O128 1.266 . S
Co136 O139 1.970 . S
Co136 N153 1.989 . S
Co136 O161 1.967 . S
Co136 O168 1.920 . S
Co137 O140 1.966 . S
Co137 N146 2.022 . S
Co137 N154 1.993 . S
Co137 O162 1.941 . S
C138 O139 1.258 . S
C138 O140 1.263 . S
O139 Co136 1.970 . S
O139 C138 1.258 . S
O140 Co137 1.966 . S
O140 C138 1.263 . S
C141 O142 1.252 . S
C141 O168 1.289 1_565 S
O142 C141 1.252 . S
C143 C145 1.400 . S
C143 N146 1.351 . S
C143 C148 1.501 . S
C144 C145 1.387 . S
C144 N147 1.341 . S
C145 C143 1.400 . S
C145 C144 1.387 . S
N146 Co137 2.022 . S
N146 C143 1.351 . S
N146 N147 1.365 . S
N147 C144 1.341 . S
N147 N146 1.365 . S
N147 H167 0.862 . S
C148 C143 1.501 . S
C148 H149 0.961 . S
C148 H150 0.961 . S
C148 H151 0.960 1_556 S
H149 C148 0.961 . S
H150 C148 0.961 . S
H151 C148 0.960 1_554 S
C152 N153 1.342 . S
C152 C156 1.401 . S
C152 C157 1.499 . S
N153 Co136 1.989 . S
N153 C152 1.342 . S
N153 N154 1.388 . S
N154 Co137 1.993 . S
N154 N153 1.388 . S
N154 C155 1.346 . S
C155 N154 1.346 . S
C155 C156 1.396 . S
C155 C165 1.510 . S
C156 C152 1.401 . S
C156 C155 1.396 . S
C157 C152 1.499 . S
C157 H158 0.959 . S
C157 H159 0.960 . S
C157 H160 0.961 . S
H158 C157 0.959 . S
H159 C157 0.960 . S
H160 C157 0.961 . S
O161 Co136 1.967 . S
O161 C169 1.258 . S
O162 Co137 1.941 . S
O162 C169 1.266 . S
H163 C165 0.959 . S
H164 C165 0.961 . S
C165 C155 1.510 . S
C165 H163 0.959 . S
C165 H164 0.961 . S
C165 H166 0.960 . S
H166 C165 0.960 . S
H167 N147 0.862 . S
O168 Co136 1.920 . S
O168 C141 1.289 1_545 S
C169 O161 1.258 . S
C169 O162 1.266 . S
Co170 O173 1.970 . S
Co170 N187 1.989 . S
Co170 O195 1.967 . S
Co170 O202 1.920 . S
Co171 O174 1.966 . S
Co171 N180 2.022 . S
Co171 N188 1.993 . S
Co171 O196 1.941 . S
C172 O173 1.258 . S
C172 O174 1.263 . S
O173 Co170 1.970 . S
O173 C172 1.258 . S
O174 Co171 1.966 . S
O174 C172 1.263 . S
C175 O176 1.220 . S
C175 O202 1.289 1_455 S
O176 C175 1.220 . S
C177 C179 1.400 . S
C177 N180 1.351 . S
C177 C182 1.501 . S
C178 C179 1.387 . S
C178 N181 1.341 . S
C179 C177 1.400 . S
C179 C178 1.387 . S
N180 Co171 2.022 . S
N180 C177 1.351 . S
N180 N181 1.365 . S
N181 C178 1.341 . S
N181 N180 1.365 . S
N181 H201 0.862 . S
C182 C177 1.501 . S
C182 H183 0.961 . S
C182 H184 0.961 . S
C182 H185 0.960 1_556 S
H183 C182 0.961 . S
H184 C182 0.961 . S
H185 C182 0.960 1_554 S
C186 N187 1.342 . S
C186 C190 1.401 . S
C186 C191 1.499 . S
N187 Co170 1.989 . S
N187 C186 1.342 . S
N187 N188 1.388 . S
N188 Co171 1.993 . S
N188 N187 1.388 . S
N188 C189 1.346 . S
C189 N188 1.346 . S
C189 C190 1.396 . S
C189 C199 1.510 . S
C190 C186 1.401 . S
C190 C189 1.396 . S
C191 C186 1.499 . S
C191 H192 0.959 . S
C191 H193 0.960 . S
C191 H194 0.961 . S
H192 C191 0.959 . S
H193 C191 0.960 . S
H194 C191 0.961 . S
O195 Co170 1.967 . S
O195 C203 1.258 . S
O196 Co171 1.941 . S
O196 C203 1.266 . S
H197 C199 0.959 . S
H198 C199 0.961 . S
C199 C189 1.510 . S
C199 H197 0.959 . S
C199 H198 0.961 . S
C199 H200 0.960 . S
H200 C199 0.960 . S
H201 N181 0.862 . S
O202 Co170 1.920 . S
O202 C175 1.289 1_655 S
C203 O195 1.258 . S
C203 O196 1.266 . S
Co204 O207 1.970 . S
Co204 N221 1.989 . S
Co204 O229 1.967 . S
Co204 O236 1.920 . S
Co205 O208 1.966 . S
Co205 N214 2.022 . S
Co205 N222 1.993 . S
Co205 O230 1.941 . S
C206 O207 1.258 . S
C206 O208 1.263 . S
O207 Co204 1.970 . S
O207 C206 1.258 . S
O208 Co205 1.966 . S
O208 C206 1.263 . S
C209 O210 1.235 . S
C209 O236 1.289 . S
O210 C209 1.235 . S
C211 C213 1.400 . S
C211 N214 1.351 . S
C211 C216 1.501 . S
C212 C213 1.387 . S
C212 N215 1.341 . S
C213 C211 1.400 . S
C213 C212 1.387 . S
N214 Co205 2.022 . S
N214 C211 1.351 . S
N214 N215 1.365 . S
N215 C212 1.341 . S
N215 N214 1.365 . S
N215 H235 0.862 . S
C216 C211 1.501 . S
C216 H217 0.961 . S
C216 H218 0.961 . S
C216 H219 0.960 . S
H217 C216 0.961 . S
H218 C216 0.961 . S
H219 C216 0.960 . S
C220 N221 1.342 . S
C220 C224 1.401 . S
C220 C225 1.499 . S
N221 Co204 1.989 . S
N221 C220 1.342 . S
N221 N222 1.388 . S
N222 Co205 1.993 . S
N222 N221 1.388 . S
N222 C223 1.346 . S
C223 N222 1.346 . S
C223 C224 1.396 . S
C223 C233 1.510 . S
C224 C220 1.401 . S
C224 C223 1.396 . S
C225 C220 1.499 . S
C225 H226 0.959 . S
C225 H227 0.960 . S
C225 H228 0.961 . S
H226 C225 0.959 . S
H227 C225 0.960 . S
H228 C225 0.961 . S
O229 Co204 1.967 . S
O229 C237 1.258 . S
O230 Co205 1.941 . S
O230 C237 1.266 . S
H231 C233 0.959 . S
H232 C233 0.961 . S
C233 C223 1.510 . S
C233 H231 0.959 . S
C233 H232 0.961 . S
C233 H234 0.960 . S
H234 C233 0.960 . S
H235 N215 0.862 . S
O236 Co204 1.920 . S
O236 C209 1.289 . S
C237 O229 1.258 . S
C237 O230 1.266 . S
Co238 O241 1.970 . S
Co238 N255 1.989 . S
Co238 O263 1.967 . S
Co238 O270 1.920 . S
Co239 O242 1.966 . S
Co239 N248 2.022 . S
Co239 N256 1.993 . S
Co239 O264 1.941 . S
C240 O241 1.258 . S
C240 O242 1.263 . S
O241 Co238 1.970 . S
O241 C240 1.258 . S
O242 Co239 1.966 . S
O242 C240 1.263 . S
C243 O244 1.235 . S
C243 O270 1.289 . S
O244 C243 1.235 . S
C245 C247 1.400 . S
C245 N248 1.351 . S
C245 C250 1.501 . S
C246 C247 1.387 . S
C246 N249 1.341 . S
C247 C245 1.400 . S
C247 C246 1.387 . S
N248 Co239 2.022 . S
N248 C245 1.351 . S
N248 N249 1.365 . S
N249 C246 1.341 . S
N249 N248 1.365 . S
N249 H269 0.862 . S
C250 C245 1.501 . S
C250 H251 0.961 . S
C250 H252 0.961 . S
C250 H253 0.960 . S
H251 C250 0.961 . S
H252 C250 0.961 . S
H253 C250 0.960 . S
C254 N255 1.342 . S
C254 C258 1.401 . S
C254 C259 1.499 . S
N255 Co238 1.989 . S
N255 C254 1.342 . S
N255 N256 1.388 . S
N256 Co239 1.993 . S
N256 N255 1.388 . S
N256 C257 1.346 . S
C257 N256 1.346 . S
C257 C258 1.396 . S
C257 C267 1.510 . S
C258 C254 1.401 . S
C258 C257 1.396 . S
C259 C254 1.499 . S
C259 H260 0.959 . S
C259 H261 0.960 . S
C259 H262 0.961 . S
H260 C259 0.959 . S
H261 C259 0.960 . S
H262 C259 0.961 . S
O263 Co238 1.967 . S
O263 C271 1.258 . S
O264 Co239 1.941 . S
O264 C271 1.266 . S
H265 C267 0.959 . S
H266 C267 0.961 . S
C267 C257 1.510 . S
C267 H265 0.959 . S
C267 H266 0.961 . S
C267 H268 0.960 . S
H268 C267 0.960 . S
H269 N249 0.862 . S
O270 Co238 1.920 . S
O270 C243 1.289 . S
C271 O263 1.258 . S
C271 O264 1.266 . S
Co272 O275 1.970 . S
Co272 N289 1.989 . S
Co272 O297 1.967 . S
Co272 O304 1.920 . S
Co273 O276 1.966 . S
Co273 N282 2.022 . S
Co273 N290 1.993 . S
Co273 O298 1.941 . S
C274 O275 1.258 . S
C274 O276 1.263 . S
O275 Co272 1.970 . S
O275 C274 1.258 . S
O276 Co273 1.966 . S
O276 C274 1.263 . S
C277 O278 1.235 . S
C277 O304 1.289 . S
O278 C277 1.235 . S
C279 C281 1.400 . S
C279 N282 1.351 . S
C279 C284 1.501 . S
C280 C281 1.387 . S
C280 N283 1.341 . S
C281 C279 1.400 . S
C281 C280 1.387 . S
N282 Co273 2.022 . S
N282 C279 1.351 . S
N282 N283 1.365 . S
N283 C280 1.341 . S
N283 N282 1.365 . S
N283 H303 0.862 . S
C284 C279 1.501 . S
C284 H285 0.961 . S
C284 H286 0.961 . S
C284 H287 0.960 . S
H285 C284 0.961 . S
H286 C284 0.961 . S
H287 C284 0.960 . S
C288 N289 1.342 . S
C288 C292 1.401 . S
C288 C293 1.499 . S
N289 Co272 1.989 . S
N289 C288 1.342 . S
N289 N290 1.388 . S
N290 Co273 1.993 . S
N290 N289 1.388 . S
N290 C291 1.346 . S
C291 N290 1.346 . S
C291 C292 1.396 . S
C291 C301 1.510 . S
C292 C288 1.401 . S
C292 C291 1.396 . S
C293 C288 1.499 . S
C293 H294 0.959 . S
C293 H295 0.960 . S
C293 H296 0.961 . S
H294 C293 0.959 . S
H295 C293 0.960 . S
H296 C293 0.961 . S
O297 Co272 1.967 . S
O297 C305 1.258 . S
O298 Co273 1.941 . S
O298 C305 1.266 . S
H299 C301 0.959 . S
H300 C301 0.961 . S
C301 C291 1.510 . S
C301 H299 0.959 . S
C301 H300 0.961 . S
C301 H302 0.960 . S
H302 C301 0.960 . S
H303 N283 0.862 . S
O304 Co272 1.920 . S
O304 C277 1.289 . S
C305 O297 1.258 . S
C305 O298 1.266 . S
Co306 O309 1.970 . S
Co306 N323 1.989 . S
Co306 O331 1.967 . S
Co306 O338 1.920 . S
Co307 O310 1.966 . S
Co307 N316 2.022 . S
Co307 N324 1.993 . S
Co307 O332 1.941 . S
C308 O309 1.258 . S
C308 O310 1.263 . S
O309 Co306 1.970 . S
O309 C308 1.258 . S
O310 Co307 1.966 . S
O310 C308 1.263 . S
C311 O312 1.235 . S
C311 O338 1.289 . S
O312 C311 1.235 . S
C313 C315 1.400 . S
C313 N316 1.351 . S
C313 C318 1.501 . S
C314 C315 1.387 . S
C314 N317 1.341 . S
C315 C313 1.400 . S
C315 C314 1.387 . S
N316 Co307 2.022 . S
N316 C313 1.351 . S
N316 N317 1.365 . S
N317 C314 1.341 . S
N317 N316 1.365 . S
N317 H337 0.862 . S
C318 C313 1.501 . S
C318 H319 0.961 . S
C318 H320 0.961 . S
C318 H321 0.960 . S
H319 C318 0.961 . S
H320 C318 0.961 . S
H321 C318 0.960 . S
C322 N323 1.342 . S
C322 C326 1.401 . S
C322 C327 1.499 . S
N323 Co306 1.989 . S
N323 C322 1.342 . S
N323 N324 1.388 . S
N324 Co307 1.993 . S
N324 N323 1.388 . S
N324 C325 1.346 . S
C325 N324 1.346 . S
C325 C326 1.396 . S
C325 C335 1.510 . S
C326 C322 1.401 . S
C326 C325 1.396 . S
C327 C322 1.499 . S
C327 H328 0.959 . S
C327 H329 0.960 . S
C327 H330 0.961 . S
H328 C327 0.959 . S
H329 C327 0.960 . S
H330 C327 0.961 . S
O331 Co306 1.967 . S
O331 C339 1.258 . S
O332 Co307 1.941 . S
O332 C339 1.266 . S
H333 C335 0.959 . S
H334 C335 0.961 . S
C335 C325 1.510 . S
C335 H333 0.959 . S
C335 H334 0.961 . S
C335 H336 0.960 . S
H336 C335 0.960 . S
H337 N317 0.862 . S
O338 Co306 1.920 . S
O338 C311 1.289 . S
C339 O331 1.258 . S
C339 O332 1.266 . S
Co340 O343 1.970 . S
Co340 N357 1.989 . S
Co340 O365 1.967 . S
Co340 O372 1.920 . S
Co341 O344 1.966 . S
Co341 N350 2.022 . S
Co341 N358 1.993 . S
Co341 O366 1.941 . S
C342 O343 1.258 . S
C342 O344 1.263 . S
O343 Co340 1.970 . S
O343 C342 1.258 . S
O344 Co341 1.966 . S
O344 C342 1.263 . S
C345 O346 1.235 . S
C345 O372 1.289 . S
O346 C345 1.235 . S
C347 C349 1.400 . S
C347 N350 1.351 . S
C347 C352 1.501 . S
C348 C349 1.387 . S
C348 N351 1.341 . S
C349 C347 1.400 . S
C349 C348 1.387 . S
N350 Co341 2.022 . S
N350 C347 1.351 . S
N350 N351 1.365 . S
N351 C348 1.341 . S
N351 N350 1.365 . S
N351 H371 0.862 . S
C352 C347 1.501 . S
C352 H353 0.961 . S
C352 H354 0.961 . S
C352 H355 0.960 . S
H353 C352 0.961 . S
H354 C352 0.961 . S
H355 C352 0.960 . S
C356 N357 1.342 . S
C356 C360 1.401 . S
C356 C361 1.499 . S
N357 Co340 1.989 . S
N357 C356 1.342 . S
N357 N358 1.388 . S
N358 Co341 1.993 . S
N358 N357 1.388 . S
N358 C359 1.346 . S
C359 N358 1.346 . S
C359 C360 1.396 . S
C359 C369 1.510 . S
C360 C356 1.401 . S
C360 C359 1.396 . S
C361 C356 1.499 . S
C361 H362 0.959 . S
C361 H363 0.960 . S
C361 H364 0.961 . S
H362 C361 0.959 . S
H363 C361 0.960 . S
H364 C361 0.961 . S
O365 Co340 1.967 . S
O365 C373 1.258 . S
O366 Co341 1.941 . S
O366 C373 1.266 . S
H367 C369 0.959 . S
H368 C369 0.961 . S
C369 C359 1.510 . S
C369 H367 0.959 . S
C369 H368 0.961 . S
C369 H370 0.960 . S
H370 C369 0.960 . S
H371 N351 0.862 . S
O372 Co340 1.920 . S
O372 C345 1.289 . S
C373 O365 1.258 . S
C373 O366 1.266 . S
Co374 O377 1.970 . S
Co374 N391 1.989 . S
Co374 O399 1.967 . S
Co374 O406 1.920 . S
Co375 O378 1.966 . S
Co375 N384 2.022 . S
Co375 N392 1.993 . S
Co375 O400 1.941 . S
C376 O377 1.258 . S
C376 O378 1.263 . S
O377 Co374 1.970 . S
O377 C376 1.258 . S
O378 Co375 1.966 . S
O378 C376 1.263 . S
C379 O380 1.235 . S
C379 O406 1.289 . S
O380 C379 1.235 . S
C381 C383 1.400 . S
C381 N384 1.351 . S
C381 C386 1.501 . S
C382 C383 1.387 . S
C382 N385 1.341 . S
C383 C381 1.400 . S
C383 C382 1.387 . S
N384 Co375 2.022 . S
N384 C381 1.351 . S
N384 N385 1.365 . S
N385 C382 1.341 . S
N385 N384 1.365 . S
N385 H405 0.862 . S
C386 C381 1.501 . S
C386 H387 0.961 . S
C386 H388 0.961 . S
C386 H389 0.960 . S
H387 C386 0.961 . S
H388 C386 0.961 . S
H389 C386 0.960 . S
C390 N391 1.342 . S
C390 C394 1.401 . S
C390 C395 1.499 . S
N391 Co374 1.989 . S
N391 C390 1.342 . S
N391 N392 1.388 . S
N392 Co375 1.993 . S
N392 N391 1.388 . S
N392 C393 1.346 . S
C393 N392 1.346 . S
C393 C394 1.396 . S
C393 C403 1.510 . S
C394 C390 1.401 . S
C394 C393 1.396 . S
C395 C390 1.499 . S
C395 H396 0.959 . S
C395 H397 0.960 . S
C395 H398 0.961 . S
H396 C395 0.959 . S
H397 C395 0.960 . S
H398 C395 0.961 . S
O399 Co374 1.967 . S
O399 C407 1.258 . S
O400 Co375 1.941 . S
O400 C407 1.266 . S
H401 C403 0.959 . S
H402 C403 0.961 . S
C403 C393 1.510 . S
C403 H401 0.959 . S
C403 H402 0.961 . S
C403 H404 0.960 . S
H404 C403 0.960 . S
H405 N385 0.862 . S
O406 Co374 1.920 . S
O406 C379 1.289 . S
C407 O399 1.258 . S
C407 O400 1.266 . S
Co408 O411 1.970 . S
Co408 N425 1.989 . S
Co408 O433 1.967 . S
Co408 O440 1.920 . S
Co409 O412 1.966 . S
Co409 N418 2.022 . S
Co409 N426 1.993 . S
Co409 O434 1.941 . S
C410 O411 1.258 . S
C410 O412 1.263 . S
O411 Co408 1.970 . S
O411 C410 1.258 . S
O412 Co409 1.966 . S
O412 C410 1.263 . S
C413 O414 1.235 . S
C413 O440 1.289 . S
O414 C413 1.235 . S
C415 C417 1.400 . S
C415 N418 1.351 . S
C415 C420 1.501 . S
C416 C417 1.387 . S
C416 N419 1.341 . S
C417 C415 1.400 . S
C417 C416 1.387 . S
N418 Co409 2.022 . S
N418 C415 1.351 . S
N418 N419 1.365 . S
N419 C416 1.341 . S
N419 N418 1.365 . S
N419 H439 0.862 . S
C420 C415 1.501 . S
C420 H421 0.961 . S
C420 H422 0.961 . S
C420 H423 0.960 . S
H421 C420 0.961 . S
H422 C420 0.961 . S
H423 C420 0.960 . S
C424 N425 1.342 . S
C424 C428 1.401 . S
C424 C429 1.499 . S
N425 Co408 1.989 . S
N425 C424 1.342 . S
N425 N426 1.388 . S
N426 Co409 1.993 . S
N426 N425 1.388 . S
N426 C427 1.346 . S
C427 N426 1.346 . S
C427 C428 1.396 . S
C427 C437 1.510 . S
C428 C424 1.401 . S
C428 C427 1.396 . S
C429 C424 1.499 . S
C429 H430 0.959 . S
C429 H431 0.960 . S
C429 H432 0.961 . S
H430 C429 0.959 . S
H431 C429 0.960 . S
H432 C429 0.961 . S
O433 Co408 1.967 . S
O433 C441 1.258 . S
O434 Co409 1.941 . S
O434 C441 1.266 . S
H435 C437 0.959 . S
H436 C437 0.961 . S
C437 C427 1.510 . S
C437 H435 0.959 . S
C437 H436 0.961 . S
C437 H438 0.960 . S
H438 C437 0.960 . S
H439 N419 0.862 . S
O440 Co408 1.920 . S
O440 C413 1.289 . S
C441 O433 1.258 . S
C441 O434 1.266 . S
Co442 O445 1.970 . S
Co442 N459 1.989 . S
Co442 O467 1.967 . S
Co442 O474 1.920 . S
Co443 O446 1.966 . S
Co443 N452 2.022 . S
Co443 N460 1.993 . S
Co443 O468 1.941 . S
C444 O445 1.258 . S
C444 O446 1.263 . S
O445 Co442 1.970 . S
O445 C444 1.258 . S
O446 Co443 1.966 . S
O446 C444 1.263 . S
C447 O448 1.235 . S
C447 O474 1.289 . S
O448 C447 1.235 . S
C449 C451 1.400 . S
C449 N452 1.351 . S
C449 C454 1.501 . S
C450 C451 1.387 . S
C450 N453 1.341 . S
C451 C449 1.400 . S
C451 C450 1.387 . S
N452 Co443 2.022 . S
N452 C449 1.351 . S
N452 N453 1.365 . S
N453 C450 1.341 . S
N453 N452 1.365 . S
N453 H473 0.862 . S
C454 C449 1.501 . S
C454 H455 0.961 . S
C454 H456 0.961 . S
C454 H457 0.960 . S
H455 C454 0.961 . S
H456 C454 0.961 . S
H457 C454 0.960 . S
C458 N459 1.342 . S
C458 C462 1.401 . S
C458 C463 1.499 . S
N459 Co442 1.989 . S
N459 C458 1.342 . S
N459 N460 1.388 . S
N460 Co443 1.993 . S
N460 N459 1.388 . S
N460 C461 1.346 . S
C461 N460 1.346 . S
C461 C462 1.396 . S
C461 C471 1.510 . S
C462 C458 1.401 . S
C462 C461 1.396 . S
C463 C458 1.499 . S
C463 H464 0.959 . S
C463 H465 0.960 . S
C463 H466 0.961 . S
H464 C463 0.959 . S
H465 C463 0.960 . S
H466 C463 0.961 . S
O467 Co442 1.967 . S
O467 C475 1.258 . S
O468 Co443 1.941 . S
O468 C475 1.266 . S
H469 C471 0.959 . S
H470 C471 0.961 . S
C471 C461 1.510 . S
C471 H469 0.959 . S
C471 H470 0.961 . S
C471 H472 0.960 . S
H472 C471 0.960 . S
H473 N453 0.862 . S
O474 Co442 1.920 . S
O474 C447 1.289 . S
C475 O467 1.258 . S
C475 O468 1.266 . S
Co476 O479 1.970 . S
Co476 N493 1.989 . S
Co476 O501 1.967 . S
Co476 O508 1.920 . S
Co477 O480 1.966 . S
Co477 N486 2.022 . S
Co477 N494 1.993 . S
Co477 O502 1.941 . S
C478 O479 1.258 . S
C478 O480 1.263 . S
O479 Co476 1.970 . S
O479 C478 1.258 . S
O480 Co477 1.966 . S
O480 C478 1.263 . S
C481 O482 1.235 . S
C481 O508 1.289 . S
O482 C481 1.235 . S
C483 C485 1.400 . S
C483 N486 1.351 . S
C483 C488 1.501 . S
C484 C485 1.387 . S
C484 N487 1.341 . S
C485 C483 1.400 . S
C485 C484 1.387 . S
N486 Co477 2.022 . S
N486 C483 1.351 . S
N486 N487 1.365 . S
N487 C484 1.341 . S
N487 N486 1.365 . S
N487 H507 0.862 . S
C488 C483 1.501 . S
C488 H489 0.961 . S
C488 H490 0.961 . S
C488 H491 0.960 . S
H489 C488 0.961 . S
H490 C488 0.961 . S
H491 C488 0.960 . S
C492 N493 1.342 . S
C492 C496 1.401 . S
C492 C497 1.499 . S
N493 Co476 1.989 . S
N493 C492 1.342 . S
N493 N494 1.388 . S
N494 Co477 1.993 . S
N494 N493 1.388 . S
N494 C495 1.346 . S
C495 N494 1.346 . S
C495 C496 1.396 . S
C495 C505 1.510 . S
C496 C492 1.401 . S
C496 C495 1.396 . S
C497 C492 1.499 . S
C497 H498 0.959 . S
C497 H499 0.960 . S
C497 H500 0.961 . S
H498 C497 0.959 . S
H499 C497 0.960 . S
H500 C497 0.961 . S
O501 Co476 1.967 . S
O501 C509 1.258 . S
O502 Co477 1.941 . S
O502 C509 1.266 . S
H503 C505 0.959 . S
H504 C505 0.961 . S
C505 C495 1.510 . S
C505 H503 0.959 . S
C505 H504 0.961 . S
C505 H506 0.960 . S
H506 C505 0.960 . S
H507 N487 0.862 . S
O508 Co476 1.920 . S
O508 C481 1.289 . S
C509 O501 1.258 . S
C509 O502 1.266 . S
Co510 O513 1.970 . S
Co510 N527 1.989 . S
Co510 O535 1.967 . S
Co510 O542 1.920 . S
Co511 O514 1.966 . S
Co511 N520 2.022 . S
Co511 N528 1.993 . S
Co511 O536 1.941 . S
C512 O513 1.258 . S
C512 O514 1.263 . S
O513 Co510 1.970 . S
O513 C512 1.258 . S
O514 Co511 1.966 . S
O514 C512 1.263 . S
C515 O516 1.235 . S
C515 O542 1.289 . S
O516 C515 1.235 . S
C517 C519 1.400 . S
C517 N520 1.351 . S
C517 C522 1.501 . S
C518 C519 1.387 . S
C518 N521 1.341 . S
C519 C517 1.400 . S
C519 C518 1.387 . S
N520 Co511 2.022 . S
N520 C517 1.351 . S
N520 N521 1.365 . S
N521 C518 1.341 . S
N521 N520 1.365 . S
N521 H541 0.862 . S
C522 C517 1.501 . S
C522 H523 0.961 . S
C522 H524 0.961 . S
C522 H525 0.960 . S
H523 C522 0.961 . S
H524 C522 0.961 . S
H525 C522 0.960 . S
C526 N527 1.342 . S
C526 C530 1.401 . S
C526 C531 1.499 . S
N527 Co510 1.989 . S
N527 C526 1.342 . S
N527 N528 1.388 . S
N528 Co511 1.993 . S
N528 N527 1.388 . S
N528 C529 1.346 . S
C529 N528 1.346 . S
C529 C530 1.396 . S
C529 C539 1.510 . S
C530 C526 1.401 . S
C530 C529 1.396 . S
C531 C526 1.499 . S
C531 H532 0.959 . S
C531 H533 0.960 . S
C531 H534 0.961 . S
H532 C531 0.959 . S
H533 C531 0.960 . S
H534 C531 0.961 . S
O535 Co510 1.967 . S
O535 C543 1.258 . S
O536 Co511 1.941 . S
O536 C543 1.266 . S
H537 C539 0.959 . S
H538 C539 0.961 . S
C539 C529 1.510 . S
C539 H537 0.959 . S
C539 H538 0.961 . S
C539 H540 0.960 . S
H540 C539 0.960 . S
H541 N521 0.862 . S
O542 Co510 1.920 . S
O542 C515 1.289 . S
C543 O535 1.258 . S
C543 O536 1.266 . S
Co544 O547 1.970 . S
Co544 N561 1.989 . S
Co544 O569 1.967 . S
Co544 O576 1.920 . S
Co545 O548 1.966 . S
Co545 N554 2.022 . S
Co545 N562 1.993 . S
Co545 O570 1.941 . S
C546 O547 1.258 . S
C546 O548 1.263 . S
O547 Co544 1.970 . S
O547 C546 1.258 . S
O548 Co545 1.966 . S
O548 C546 1.263 . S
C549 O550 1.235 . S
C549 O576 1.289 . S
O550 C549 1.235 . S
C551 C553 1.400 . S
C551 N554 1.351 . S
C551 C556 1.501 . S
C552 C553 1.387 . S
C552 N555 1.341 . S
C553 C551 1.400 . S
C553 C552 1.387 . S
N554 Co545 2.022 . S
N554 C551 1.351 . S
N554 N555 1.365 . S
N555 C552 1.341 . S
N555 N554 1.365 . S
N555 H575 0.862 . S
C556 C551 1.501 . S
C556 H557 0.961 . S
C556 H558 0.961 . S
C556 H559 0.960 . S
H557 C556 0.961 . S
H558 C556 0.961 . S
H559 C556 0.960 . S
C560 N561 1.342 . S
C560 C564 1.401 . S
C560 C565 1.499 . S
N561 Co544 1.989 . S
N561 C560 1.342 . S
N561 N562 1.388 . S
N562 Co545 1.993 . S
N562 N561 1.388 . S
N562 C563 1.346 . S
C563 N562 1.346 . S
C563 C564 1.396 . S
C563 C573 1.510 . S
C564 C560 1.401 . S
C564 C563 1.396 . S
C565 C560 1.499 . S
C565 H566 0.959 . S
C565 H567 0.960 . S
C565 H568 0.961 . S
H566 C565 0.959 . S
H567 C565 0.960 . S
H568 C565 0.961 . S
O569 Co544 1.967 . S
O569 C577 1.258 . S
O570 Co545 1.941 . S
O570 C577 1.266 . S
H571 C573 0.959 . S
H572 C573 0.961 . S
C573 C563 1.510 . S
C573 H571 0.959 . S
C573 H572 0.961 . S
C573 H574 0.960 . S
H574 C573 0.960 . S
H575 N555 0.862 . S
O576 Co544 1.920 . S
O576 C549 1.289 . S
C577 O569 1.258 . S
C577 O570 1.266 . S
Co578 O581 1.970 . S
Co578 N595 1.989 . S
Co578 O603 1.967 . S
Co578 O610 1.920 . S
Co579 O582 1.966 . S
Co579 N588 2.022 . S
Co579 N596 1.993 . S
Co579 O604 1.941 . S
C580 O581 1.258 . S
C580 O582 1.263 . S
O581 Co578 1.970 . S
O581 C580 1.258 . S
O582 Co579 1.966 . S
O582 C580 1.263 . S
C583 O584 1.235 . S
C583 O610 1.289 . S
O584 C583 1.235 . S
C585 C587 1.400 . S
C585 N588 1.351 . S
C585 C590 1.501 . S
C586 C587 1.387 . S
C586 N589 1.341 . S
C587 C585 1.400 . S
C587 C586 1.387 . S
N588 Co579 2.022 . S
N588 C585 1.351 . S
N588 N589 1.365 . S
N589 C586 1.341 . S
N589 N588 1.365 . S
N589 H609 0.862 . S
C590 C585 1.501 . S
C590 H591 0.961 . S
C590 H592 0.961 . S
C590 H593 0.960 . S
H591 C590 0.961 . S
H592 C590 0.961 . S
H593 C590 0.960 . S
C594 N595 1.342 . S
C594 C598 1.401 . S
C594 C599 1.499 . S
N595 Co578 1.989 . S
N595 C594 1.342 . S
N595 N596 1.388 . S
N596 Co579 1.993 . S
N596 N595 1.388 . S
N596 C597 1.346 . S
C597 N596 1.346 . S
C597 C598 1.396 . S
C597 C607 1.510 . S
C598 C594 1.401 . S
C598 C597 1.396 . S
C599 C594 1.499 . S
C599 H600 0.959 . S
C599 H601 0.960 . S
C599 H602 0.961 . S
H600 C599 0.959 . S
H601 C599 0.960 . S
H602 C599 0.961 . S
O603 Co578 1.967 . S
O603 C611 1.258 . S
O604 Co579 1.941 . S
O604 C611 1.266 . S
H605 C607 0.959 . S
H606 C607 0.961 . S
C607 C597 1.510 . S
C607 H605 0.959 . S
C607 H606 0.961 . S
C607 H608 0.960 . S
H608 C607 0.960 . S
H609 N589 0.862 . S
O610 Co578 1.920 . S
O610 C583 1.289 . S
C611 O603 1.258 . S
C611 O604 1.266 . S
C612 C613 1.369 . S
C612 C614 1.419 . S
C612 H616 0.930 . S
C613 C612 1.369 . S
C613 C622 1.429 . S
C614 C612 1.419 . S
C614 C615 1.363 . S
C614 H617 0.929 . S
C615 C614 1.363 . S
C615 C621 1.428 . S
H616 C612 0.930 . S
H617 C614 0.929 . S
S618 N619 1.613 . S
S618 N620 1.610 . S
N619 S618 1.613 . S
N619 C622 1.350 . S
N620 S618 1.610 . S
N620 C621 1.351 . S
C621 C615 1.428 . S
C621 N620 1.351 . S
C621 C622 1.434 . S
C622 C613 1.429 . S
C622 N619 1.350 . S
C622 C621 1.434 . S
C623 C624 1.369 . S
C623 C625 1.419 . S
C623 H627 0.930 . S
C624 C623 1.369 . S
C624 C633 1.429 . S
C625 C623 1.419 . S
C625 C626 1.363 . S
C625 H628 0.929 . S
C626 C625 1.363 . S
C626 C632 1.428 . S
H627 C623 0.930 . S
H628 C625 0.929 . S
S629 N630 1.613 . S
S629 N631 1.610 1_565 S
N630 S629 1.613 . S
N630 C633 1.350 1_565 S
N631 S629 1.610 1_545 S
N631 C632 1.351 . S
C632 C626 1.428 . S
C632 N631 1.351 . S
C632 C633 1.434 . S
C633 C624 1.429 . S
C633 N630 1.350 1_545 S
C633 C632 1.434 . S
C634 C635 1.369 . S
C634 C636 1.419 . S
C634 H638 0.930 . S
C635 C634 1.369 . S
C635 C644 1.429 . S
C636 C634 1.419 . S
C636 C637 1.363 . S
C636 H639 0.929 . S
C637 C636 1.363 . S
C637 C643 1.428 . S
H638 C634 0.930 . S
H639 C636 0.929 . S
S640 N641 1.613 . S
S640 N642 1.610 1_455 S
N641 S640 1.613 . S
N641 C644 1.350 1_455 S
N642 S640 1.610 1_655 S
N642 C643 1.351 . S
C643 C637 1.428 . S
C643 N642 1.351 . S
C643 C644 1.434 . S
C644 C635 1.429 . S
C644 N641 1.350 1_655 S
C644 C643 1.434 . S
C645 C646 1.369 . S
C645 C647 1.419 . S
C645 H649 0.930 . S
C646 C645 1.369 . S
C646 C655 1.429 . S
C647 C645 1.419 . S
C647 C648 1.363 . S
C647 H650 0.929 . S
C648 C647 1.363 . S
C648 C654 1.428 . S
H649 C645 0.930 . S
H650 C647 0.929 . S
S651 N652 1.613 . S
S651 N653 1.610 . S
N652 S651 1.613 . S
N652 C655 1.350 . S
N653 S651 1.610 . S
N653 C654 1.351 . S
C654 C648 1.428 . S
C654 N653 1.351 . S
C654 C655 1.434 . S
C655 C646 1.429 . S
C655 N652 1.350 . S
C655 C654 1.434 . S
C656 C657 1.369 . S
C656 C658 1.419 . S
C656 H660 0.930 . S
C657 C656 1.369 . S
C657 C666 1.429 . S
C658 C656 1.419 . S
C658 C659 1.363 . S
C658 H661 0.929 . S
C659 C658 1.363 . S
C659 C665 1.428 . S
H660 C656 0.930 . S
H661 C658 0.929 . S
S662 N663 1.613 . S
S662 N664 1.610 . S
N663 S662 1.613 . S
N663 C666 1.350 . S
N664 S662 1.610 . S
N664 C665 1.351 . S
C665 C659 1.428 . S
C665 N664 1.351 . S
C665 C666 1.434 . S
C666 C657 1.429 . S
C666 N663 1.350 . S
C666 C665 1.434 . S
C667 C668 1.369 . S
C667 C669 1.419 . S
C667 H671 0.930 . S
C668 C667 1.369 . S
C668 C677 1.429 . S
C669 C667 1.419 . S
C669 C670 1.363 . S
C669 H672 0.929 . S
C670 C669 1.363 . S
C670 C676 1.428 . S
H671 C667 0.930 . S
H672 C669 0.929 . S
S673 N674 1.613 . S
S673 N675 1.610 . S
N674 S673 1.613 . S
N674 C677 1.350 . S
N675 S673 1.610 . S
N675 C676 1.351 . S
C676 C670 1.428 . S
C676 N675 1.351 . S
C676 C677 1.434 . S
C677 C668 1.429 . S
C677 N674 1.350 . S
C677 C676 1.434 . S
C678 C679 1.369 . S
C678 C680 1.419 . S
C678 H682 0.930 . S
C679 C678 1.369 . S
C679 C688 1.429 . S
C680 C678 1.419 . S
C680 C681 1.363 1_655 S
C680 H683 0.929 . S
C681 C680 1.363 1_455 S
C681 C687 1.428 . S
H682 C678 0.930 . S
H683 C680 0.929 . S
S684 N685 1.613 1_455 S
S684 N686 1.610 . S
N685 S684 1.613 1_655 S
N685 C688 1.350 . S
N686 S684 1.610 . S
N686 C687 1.351 . S
C687 C681 1.428 . S
C687 N686 1.351 . S
C687 C688 1.434 1_455 S
C688 C679 1.429 . S
C688 N685 1.350 . S
C688 C687 1.434 1_655 S
C689 C690 1.369 . S
C689 C691 1.419 . S
C689 H693 0.930 . S
C690 C689 1.369 . S
C690 C699 1.429 . S
C691 C689 1.419 . S
C691 C692 1.363 . S
C691 H694 0.929 . S
C692 C691 1.363 . S
C692 C698 1.428 . S
H693 C689 0.930 . S
H694 C691 0.929 . S
S695 N696 1.613 . S
S695 N697 1.610 . S
N696 S695 1.613 . S
N696 C699 1.350 . S
N697 S695 1.610 . S
N697 C698 1.351 . S
C698 C692 1.428 . S
C698 N697 1.351 . S
C698 C699 1.434 . S
C699 C690 1.429 . S
C699 N696 1.350 . S
C699 C698 1.434 . S
C700 C701 1.342 1_545 S
C700 C702 1.419 . S
C700 H704 0.930 . S
C701 C700 1.342 1_565 S
C701 C710 1.443 1_565 S
C702 C700 1.419 . S
C702 C703 1.363 . S
C702 H705 0.929 . S
C703 C702 1.363 . S
C703 C709 1.428 . S
H704 C700 0.930 . S
H705 C702 0.929 . S
S706 N707 1.613 1_545 S
S706 N708 1.610 . S
N707 S706 1.613 1_565 S
N707 C710 1.350 1_565 S
N708 S706 1.610 . S
N708 C709 1.351 . S
C709 C703 1.428 . S
C709 N708 1.351 . S
C709 C710 1.434 . S
C710 C701 1.443 1_545 S
C710 N707 1.350 1_545 S
C710 C709 1.434 . S
C711 C712 1.369 . S
C711 C713 1.419 1_554 S
C711 H715 0.930 . S
C712 C711 1.369 . S
C712 C721 1.429 . S
C713 C711 1.419 1_556 S
C713 C714 1.363 . S
C713 H716 0.929 . S
C714 C713 1.363 . S
C714 C720 1.428 1_556 S
H715 C711 0.930 . S
H716 C713 0.929 . S
S717 N718 1.613 1_565 S
S717 N719 1.610 1_565 S
N718 S717 1.613 1_545 S
N718 C721 1.350 . S
N719 S717 1.610 1_545 S
N719 C720 1.351 . S
C720 C714 1.428 1_554 S
C720 N719 1.351 . S
C720 C721 1.434 . S
C721 C712 1.429 . S
C721 N718 1.350 . S
C721 C720 1.434 . S
C722 C723 1.369 . S
C722 C724 1.419 1_554 S
C722 H726 0.930 . S
C723 C722 1.369 . S
C723 C732 1.429 . S
C724 C722 1.419 1_556 S
C724 C725 1.363 . S
C724 H727 0.929 . S
C725 C724 1.363 . S
C725 C731 1.428 . S
H726 C722 0.930 . S
H727 C724 0.929 . S
S728 N729 1.613 . S
S728 N730 1.610 1_554 S
N729 S728 1.613 . S
N729 C732 1.350 . S
N730 S728 1.610 1_556 S
N730 C731 1.351 . S
C731 C725 1.428 . S
C731 N730 1.351 . S
C731 C732 1.434 1_556 S
C732 C723 1.429 . S
C732 N729 1.350 . S
C732 C731 1.434 1_554 S
C733 C734 1.369 . S
C733 C735 1.419 . S
C733 H737 0.930 . S
C734 C733 1.369 . S
C734 C743 1.429 . S
C735 C733 1.419 . S
C735 C736 1.363 1_554 S
C735 H738 0.929 . S
C736 C735 1.363 1_556 S
C736 C742 1.428 . S
H737 C733 0.930 . S
H738 C735 0.929 . S
S739 N740 1.613 1_556 S
S739 N741 1.610 . S
N740 S739 1.613 1_554 S
N740 C743 1.350 . S
N741 S739 1.610 . S
N741 C742 1.351 . S
C742 C736 1.428 . S
C742 N741 1.351 . S
C742 C743 1.434 1_556 S
C743 C734 1.429 . S
C743 N740 1.350 . S
C743 C742 1.434 1_554 S
C744 C745 1.369 1_554 S
C744 C746 1.419 . S
C744 H748 0.930 . S
C745 C744 1.369 1_556 S
C745 C754 1.429 . S
C746 C744 1.419 . S
C746 C747 1.363 . S
C746 H749 0.929 . S
C747 C746 1.363 . S
C747 C753 1.428 1_554 S
H748 C744 0.930 . S
H749 C746 0.929 . S
S750 N751 1.613 . S
S750 N752 1.610 . S
N751 S750 1.613 . S
N751 C754 1.350 . S
N752 S750 1.610 . S
N752 C753 1.351 . S
C753 C747 1.428 1_556 S
C753 N752 1.351 . S
C753 C754 1.434 . S
C754 C745 1.429 . S
C754 N751 1.350 . S
C754 C753 1.434 . S
C755 C756 1.369 . S
C755 C757 1.419 1_556 S
C755 H759 0.930 . S
C756 C755 1.369 . S
C756 C765 1.429 . S
C757 C755 1.419 1_554 S
C757 C758 1.363 . S
C757 H760 0.929 . S
C758 C757 1.363 . S
C758 C764 1.428 1_554 S
H759 C755 0.930 . S
H760 C757 0.929 . S
S761 N762 1.613 . S
S761 N763 1.610 . S
N762 S761 1.613 . S
N762 C765 1.350 . S
N763 S761 1.610 . S
N763 C764 1.351 . S
C764 C758 1.428 1_556 S
C764 N763 1.351 . S
C764 C765 1.434 . S
C765 C756 1.429 . S
C765 N762 1.350 . S
C765 C764 1.434 . S
C766 C767 1.369 1_556 S
C766 C768 1.419 . S
C766 H770 0.930 . S
C767 C766 1.369 1_554 S
C767 C776 1.429 . S
C768 C766 1.419 . S
C768 C769 1.363 . S
C768 H771 0.929 . S
C769 C768 1.363 . S
C769 C775 1.428 1_556 S
H770 C766 0.930 . S
H771 C768 0.929 . S
S772 N773 1.613 . S
S772 N774 1.610 . S
N773 S772 1.613 . S
N773 C776 1.350 . S
N774 S772 1.610 . S
N774 C775 1.351 . S
C775 C769 1.428 1_554 S
C775 N774 1.351 . S
C775 C776 1.434 . S
C776 C767 1.429 . S
C776 N773 1.350 . S
C776 C775 1.434 . S
C777 C778 1.369 1_455 S
C777 C779 1.419 . S
C777 H781 0.930 . S
C778 C777 1.369 1_655 S
C778 C787 1.429 1_655 S
C779 C777 1.419 . S
C779 C780 1.363 . S
C779 H782 0.929 . S
C780 C779 1.363 . S
C780 C786 1.428 . S
H781 C777 0.930 . S
H782 C779 0.929 . S
S783 N784 1.613 1_455 S
S783 N785 1.610 . S
N784 S783 1.613 1_655 S
N784 C787 1.350 1_655 S
N785 S783 1.610 . S
N785 C786 1.351 . S
C786 C780 1.428 . S
C786 N785 1.351 . S
C786 C787 1.434 . S
C787 C778 1.429 1_455 S
C787 N784 1.350 1_455 S
C787 C786 1.434 . S
C788 C789 1.369 . S
C788 C790 1.419 . S
C788 H792 0.930 . S
C789 C788 1.369 . S
C789 C798 1.429 . S
C790 C788 1.419 . S
C790 C791 1.363 . S
C790 H793 0.929 . S
C791 C790 1.363 . S
C791 C797 1.428 . S
H792 C788 0.930 . S
H793 C790 0.929 . S
S794 N795 1.613 . S
S794 N796 1.610 . S
N795 S794 1.613 . S
N795 C798 1.350 . S
N796 S794 1.610 . S
N796 C797 1.351 . S
C797 C791 1.428 . S
C797 N796 1.351 . S
C797 C798 1.434 . S
C798 C789 1.429 . S
C798 N795 1.350 . S
C798 C797 1.434 . S
C799 C800 1.369 . S
C799 C801 1.419 1_565 S
C799 H803 0.930 . S
C800 C799 1.369 . S
C800 C809 1.429 . S
C801 C799 1.419 1_545 S
C801 C802 1.381 . S
C801 H804 0.929 . S
C802 C801 1.381 . S
C802 C808 1.399 1_545 S
H803 C799 0.930 . S
H804 C801 0.929 . S
S805 N806 1.613 . S
S805 N807 1.610 . S
N806 S805 1.613 . S
N806 C809 1.350 . S
N807 S805 1.610 . S
N807 C808 1.351 . S
C808 C802 1.399 1_565 S
C808 N807 1.351 . S
C808 C809 1.434 . S
C809 C800 1.429 . S
C809 N806 1.350 . S
C809 C808 1.434 . S
C810 C811 1.369 . S
C810 C812 1.419 . S
C810 H814 0.930 . S
C811 C810 1.369 . S
C811 C820 1.429 . S
C812 C810 1.419 . S
C812 C813 1.363 . S
C812 H815 0.929 . S
C813 C812 1.363 . S
C813 C819 1.428 . S
H814 C810 0.930 . S
H815 C812 0.929 . S
S816 N817 1.613 . S
S816 N818 1.610 . S
N817 S816 1.613 . S
N817 C820 1.350 . S
N818 S816 1.610 . S
N818 C819 1.351 . S
C819 C813 1.428 . S
C819 N818 1.351 . S
C819 C820 1.434 . S
C820 C811 1.429 . S
C820 N817 1.350 . S
C820 C819 1.434 . S
C821 C822 1.369 . S
C821 C823 1.419 . S
C821 H825 0.930 . S
C822 C821 1.369 . S
C822 C831 1.429 . S
C823 C821 1.419 . S
C823 C824 1.363 . S
C823 H826 0.929 . S
C824 C823 1.363 . S
C824 C830 1.428 . S
H825 C821 0.930 . S
H826 C823 0.929 . S
S827 N828 1.613 . S
S827 N829 1.610 . S
N828 S827 1.613 . S
N828 C831 1.350 . S
N829 S827 1.610 . S
N829 C830 1.351 . S
C830 C824 1.428 . S
C830 N829 1.351 . S
C830 C831 1.434 . S
C831 C822 1.429 . S
C831 N828 1.350 . S
C831 C830 1.434 . S
C832 C833 1.369 . S
C832 C834 1.419 . S
C832 H836 0.930 . S
C833 C832 1.369 . S
C833 C842 1.429 . S
C834 C832 1.419 . S
C834 C835 1.363 . S
C834 H837 0.929 . S
C835 C834 1.363 . S
C835 C841 1.428 . S
H836 C832 0.930 . S
H837 C834 0.929 . S
S838 N839 1.613 . S
S838 N840 1.610 . S
N839 S838 1.613 . S
N839 C842 1.350 . S
N840 S838 1.610 . S
N840 C841 1.351 . S
C841 C835 1.428 . S
C841 N840 1.351 . S
C841 C842 1.434 . S
C842 C833 1.429 . S
C842 N839 1.350 . S
C842 C841 1.434 . S
C843 C844 1.369 . S
C843 C845 1.419 . S
C843 H847 0.930 . S
C844 C843 1.369 . S
C844 C853 1.429 . S
C845 C843 1.419 . S
C845 C846 1.363 . S
C845 H848 0.929 . S
C846 C845 1.363 . S
C846 C852 1.428 . S
H847 C843 0.930 . S
H848 C845 0.929 . S
S849 N850 1.613 . S
S849 N851 1.610 . S
N850 S849 1.613 . S
N850 C853 1.350 . S
N851 S849 1.610 . S
N851 C852 1.351 . S
C852 C846 1.428 . S
C852 N851 1.351 . S
C852 C853 1.434 . S
C853 C844 1.429 . S
C853 N850 1.350 . S
C853 C852 1.434 . S
C854 C855 1.369 . S
C854 C856 1.419 . S
C854 H858 0.930 . S
C855 C854 1.369 . S
C855 C864 1.429 . S
C856 C854 1.419 . S
C856 C857 1.363 . S
C856 H859 0.929 . S
C857 C856 1.363 . S
C857 C863 1.428 . S
H858 C854 0.930 . S
H859 C856 0.929 . S
S860 N861 1.613 . S
S860 N862 1.610 . S
N861 S860 1.613 . S
N861 C864 1.350 . S
N862 S860 1.610 . S
N862 C863 1.351 . S
C863 C857 1.428 . S
C863 N862 1.351 . S
C863 C864 1.434 . S
C864 C855 1.429 . S
C864 N861 1.350 . S
C864 C863 1.434 . S
C865 C866 1.369 . S
C865 C867 1.419 . S
C865 H869 0.930 . S
C866 C865 1.369 . S
C866 C875 1.429 . S
C867 C865 1.419 . S
C867 C868 1.363 . S
C867 H870 0.929 . S
C868 C867 1.363 . S
C868 C874 1.428 . S
H869 C865 0.930 . S
H870 C867 0.929 . S
S871 N872 1.613 . S
S871 N873 1.610 . S
N872 S871 1.613 . S
N872 C875 1.350 . S
N873 S871 1.610 . S
N873 C874 1.351 . S
C874 C868 1.428 . S
C874 N873 1.351 . S
C874 C875 1.434 . S
C875 C866 1.429 . S
C875 N872 1.350 . S
C875 C874 1.434 . S
C876 C877 1.378 . S
C876 C878 1.410 1_554 S
C876 H880 0.929 1_554 S
C877 C876 1.378 . S
C877 C886 1.429 1_545 S
C878 C876 1.410 1_556 S
C878 C879 1.363 1_545 S
C878 H881 0.929 . S
C879 C878 1.363 1_565 S
C879 C885 1.428 1_556 S
H880 C876 0.929 1_556 S
H881 C878 0.929 . S
S882 N883 1.613 . S
S882 N884 1.610 . S
N883 S882 1.613 . S
N883 C886 1.350 . S
N884 S882 1.610 . S
N884 C885 1.351 . S
C885 C879 1.428 1_554 S
C885 N884 1.351 . S
C885 C886 1.434 . S
C886 C877 1.429 1_565 S
C886 N883 1.350 . S
C886 C885 1.434 . S
C887 C888 1.369 . S
C887 C889 1.419 1_455 S
C887 H891 0.930 . S
C888 C887 1.369 . S
C888 C897 1.429 1_556 S
C889 C887 1.419 1_655 S
C889 C890 1.363 1_556 S
C889 H892 0.929 . S
C890 C889 1.363 1_554 S
C890 C896 1.428 . S
H891 C887 0.930 . S
H892 C889 0.929 . S
S893 N894 1.613 . S
S893 N895 1.610 1_455 S
N894 S893 1.613 . S
N894 C897 1.350 . S
N895 S893 1.610 1_655 S
N895 C896 1.351 . S
C896 C890 1.428 . S
C896 N895 1.351 . S
C896 C897 1.434 1_655 S
C897 C888 1.429 1_554 S
C897 N894 1.350 . S
C897 C896 1.434 1_455 S
C898 C899 1.369 . S
C898 C900 1.419 . S
C898 H902 0.930 . S
C899 C898 1.369 . S
C899 C908 1.429 1_556 S
C900 C898 1.419 . S
C900 C901 1.363 1_556 S
C900 H903 0.929 . S
C901 C900 1.363 1_554 S
C901 C907 1.428 . S
H902 C898 0.930 . S
H903 C900 0.929 . S
S904 N905 1.613 . S
S904 N906 1.610 . S
N905 S904 1.613 . S
N905 C908 1.350 . S
N906 S904 1.610 . S
N906 C907 1.351 . S
C907 C901 1.428 . S
C907 N906 1.351 . S
C907 C908 1.434 . S
C908 C899 1.429 1_554 S
C908 N905 1.350 . S
C908 C907 1.434 . S
C909 C910 1.369 . S
C909 C911 1.419 1_554 S
C909 H913 0.930 1_554 S
C910 C909 1.369 . S
C910 C919 1.429 . S
C911 C909 1.419 1_556 S
C911 C912 1.363 . S
C911 H914 0.929 . S
C912 C911 1.363 . S
C912 C918 1.428 1_556 S
H913 C909 0.930 1_556 S
H914 C911 0.929 . S
S915 N916 1.613 . S
S915 N917 1.610 . S
N916 S915 1.613 . S
N916 C919 1.350 . S
N917 S915 1.610 . S
N917 C918 1.351 . S
C918 C912 1.428 1_554 S
C918 N917 1.351 . S
C918 C919 1.434 . S
C919 C910 1.429 . S
C919 N916 1.350 . S
C919 C918 1.434 . S
C920 C921 1.369 1_554 S
C920 C922 1.419 . S
C920 H924 0.930 . S
C921 C920 1.369 1_556 S
C921 C930 1.429 . S
C922 C920 1.419 . S
C922 C923 1.363 . S
C922 H925 0.929 . S
C923 C922 1.363 . S
C923 C929 1.447 . S
H924 C920 0.930 . S
H925 C922 0.929 . S
S926 N927 1.613 1_565 S
S926 N928 1.610 . S
N927 S926 1.613 1_545 S
N927 C930 1.350 . S
N928 S926 1.610 . S
N928 C929 1.340 1_566 S
C929 C923 1.447 . S
C929 N928 1.340 1_544 S
C929 C930 1.424 1_554 S
C930 C921 1.429 . S
C930 N927 1.350 . S
C930 C929 1.424 1_556 S
C931 C932 1.369 . S
C931 C933 1.419 . S
C931 H935 0.930 . S
C932 C931 1.369 . S
C932 C941 1.429 . S
C933 C931 1.419 . S
C933 C934 1.363 1_554 S
C933 H936 0.929 . S
C934 C933 1.363 1_556 S
C934 C940 1.428 . S
H935 C931 0.930 . S
H936 C933 0.929 . S
S937 N938 1.613 . S
S937 N939 1.610 1_455 S
N938 S937 1.613 . S
N938 C941 1.350 1_456 S
N939 S937 1.610 1_655 S
N939 C940 1.351 . S
C940 C934 1.428 . S
C940 N939 1.351 . S
C940 C941 1.434 1_556 S
C941 C932 1.429 . S
C941 N938 1.350 1_654 S
C941 C940 1.434 1_554 S
C942 C943 1.369 . S
C942 C944 1.419 1_554 S
C942 H946 0.930 . S
C943 C942 1.369 . S
C943 C952 1.429 1_554 S
C944 C942 1.419 1_556 S
C944 C945 1.363 . S
C944 H947 0.929 1_556 S
C945 C944 1.363 . S
C945 C951 1.428 . S
H946 C942 0.930 . S
H947 C944 0.929 1_554 S
S948 N949 1.613 . S
S948 N950 1.610 . S
N949 S948 1.613 . S
N949 C952 1.350 . S
N950 S948 1.610 . S
N950 C951 1.351 . S
C951 C945 1.428 . S
C951 N950 1.351 . S
C951 C952 1.434 . S
C952 C943 1.429 1_556 S
C952 N949 1.350 . S
C952 C951 1.434 . S
C953 C954 1.369 . S
C953 C955 1.419 . S
C953 H957 0.930 . S
C954 C953 1.369 . S
C954 C963 1.429 . S
C955 C953 1.419 . S
C955 C956 1.363 1_556 S
C955 H958 0.929 . S
C956 C955 1.363 1_554 S
C956 C962 1.428 . S
H957 C953 0.930 . S
H958 C955 0.929 . S
S959 N960 1.613 . S
S959 N961 1.610 1_545 S
N960 S959 1.613 . S
N960 C963 1.350 1_544 S
N961 S959 1.610 1_565 S
N961 C962 1.351 . S
C962 C956 1.428 . S
C962 N961 1.351 . S
C962 C963 1.434 1_554 S
C963 C954 1.429 . S
C963 N960 1.350 1_566 S
C963 C962 1.434 1_556 S
C964 C965 1.369 1_556 S
C964 C966 1.419 . S
C964 H968 0.930 . S
C965 C964 1.369 1_554 S
C965 C974 1.429 . S
C966 C964 1.419 . S
C966 C967 1.363 . S
C966 H969 0.929 . S
C967 C966 1.363 . S
C967 C973 1.428 . S
H968 C964 0.930 . S
H969 C966 0.929 . S
S970 N971 1.613 1_655 S
S970 N972 1.610 . S
N971 S970 1.613 1_455 S
N971 C974 1.350 . S
N972 S970 1.610 . S
N972 C973 1.351 1_654 S
C973 C967 1.428 . S
C973 N972 1.351 1_456 S
C973 C974 1.434 1_556 S
C974 C965 1.429 . S
C974 N971 1.350 . S
C974 C973 1.434 1_554 S
C975 C976 1.369 . S
C975 C977 1.419 . S
C975 H979 0.930 . S
C976 C975 1.369 . S
C976 C985 1.429 . S
C977 C975 1.419 . S
C977 C978 1.363 . S
C977 H980 0.929 . S
C978 C977 1.363 . S
C978 C984 1.428 . S
H979 C975 0.930 . S
H980 C977 0.929 . S
S981 N982 1.613 . S
S981 N983 1.610 . S
N982 S981 1.613 . S
N982 C985 1.350 . S
N983 S981 1.610 . S
N983 C984 1.351 . S
C984 C978 1.428 . S
C984 N983 1.351 . S
C984 C985 1.434 . S
C985 C976 1.429 . S
C985 N982 1.350 . S
C985 C984 1.434 . S
C986 C987 1.369 . S
C986 C988 1.419 . S
C986 H990 0.930 . S
C987 C986 1.369 . S
C987 C996 1.429 . S
C988 C986 1.419 . S
C988 C989 1.363 . S
C988 H991 0.929 . S
C989 C988 1.363 . S
C989 C995 1.428 . S
H990 C986 0.930 . S
H991 C988 0.929 . S
S992 N993 1.613 . S
S992 N994 1.610 . S
N993 S992 1.613 . S
N993 C996 1.350 . S
N994 S992 1.610 . S
N994 C995 1.351 . S
C995 C989 1.428 . S
C995 N994 1.351 . S
C995 C996 1.434 . S
C996 C987 1.429 . S
C996 N993 1.350 . S
C996 C995 1.434 . S
C997 C998 1.369 . S
C997 C999 1.419 . S
C997 H1001 0.930 . S
C998 C997 1.369 . S
C998 C1007 1.429 . S
C999 C997 1.419 . S
C999 C1000 1.363 . S
C999 H1002 0.929 . S
C1000 C999 1.363 . S
C1000 C1006 1.428 . S
H1001 C997 0.930 . S
H1002 C999 0.929 . S
S1003 N1004 1.613 . S
S1003 N1005 1.610 . S
N1004 S1003 1.613 . S
N1004 C1007 1.350 . S
N1005 S1003 1.610 . S
N1005 C1006 1.351 . S
C1006 C1000 1.428 . S
C1006 N1005 1.351 . S
C1006 C1007 1.434 . S
C1007 C998 1.429 . S
C1007 N1004 1.350 . S
C1007 C1006 1.434 . S
C1008 C1009 1.369 . S
C1008 C1010 1.419 . S
C1008 H1012 0.930 . S
C1009 C1008 1.369 . S
C1009 C1018 1.429 . S
C1010 C1008 1.419 . S
C1010 C1011 1.363 . S
C1010 H1013 0.929 . S
C1011 C1010 1.363 . S
C1011 C1017 1.428 . S
H1012 C1008 0.930 . S
H1013 C1010 0.929 . S
S1014 N1015 1.613 . S
S1014 N1016 1.610 . S
N1015 S1014 1.613 . S
N1015 C1018 1.350 . S
N1016 S1014 1.610 . S
N1016 C1017 1.351 . S
C1017 C1011 1.428 . S
C1017 N1016 1.351 . S
C1017 C1018 1.434 . S
C1018 C1009 1.429 . S
C1018 N1015 1.350 . S
C1018 C1017 1.434 . S
C1019 C1020 1.369 . S
C1019 C1021 1.419 . S
C1019 H1023 0.930 . S
C1020 C1019 1.369 . S
C1020 C1029 1.429 . S
C1021 C1019 1.419 . S
C1021 C1022 1.363 . S
C1021 H1024 0.929 . S
C1022 C1021 1.363 . S
C1022 C1028 1.428 . S
H1023 C1019 0.930 . S
H1024 C1021 0.929 . S
S1025 N1026 1.613 . S
S1025 N1027 1.610 . S
N1026 S1025 1.613 . S
N1026 C1029 1.350 . S
N1027 S1025 1.610 . S
N1027 C1028 1.351 . S
C1028 C1022 1.428 . S
C1028 N1027 1.351 . S
C1028 C1029 1.434 . S
C1029 C1020 1.429 . S
C1029 N1026 1.350 . S
C1029 C1028 1.434 . S
C1030 C1031 1.369 . S
C1030 C1032 1.419 . S
C1030 H1034 0.930 . S
C1031 C1030 1.369 . S
C1031 C1040 1.429 . S
C1032 C1030 1.419 . S
C1032 C1033 1.363 . S
C1032 H1035 0.929 . S
C1033 C1032 1.363 . S
C1033 C1039 1.428 . S
H1034 C1030 0.930 . S
H1035 C1032 0.929 . S
S1036 N1037 1.613 . S
S1036 N1038 1.610 . S
N1037 S1036 1.613 . S
N1037 C1040 1.350 . S
N1038 S1036 1.610 . S
N1038 C1039 1.351 . S
C1039 C1033 1.428 . S
C1039 N1038 1.351 . S
C1039 C1040 1.434 . S
C1040 C1031 1.429 . S
C1040 N1037 1.350 . S
C1040 C1039 1.434 . S
C1041 C1042 1.369 . S
C1041 C1043 1.419 . S
C1041 H1045 0.930 . S
C1042 C1041 1.369 . S
C1042 C1051 1.429 . S
C1043 C1041 1.419 . S
C1043 C1044 1.363 . S
C1043 H1046 0.929 . S
C1044 C1043 1.363 . S
C1044 C1050 1.428 . S
H1045 C1041 0.930 . S
H1046 C1043 0.929 . S
S1047 N1048 1.613 . S
S1047 N1049 1.610 . S
N1048 S1047 1.613 . S
N1048 C1051 1.350 . S
N1049 S1047 1.610 . S
N1049 C1050 1.351 . S
C1050 C1044 1.428 . S
C1050 N1049 1.351 . S
C1050 C1051 1.434 . S
C1051 C1042 1.429 . S
C1051 N1048 1.350 . S
C1051 C1050 1.434 . S
C1052 C1053 1.369 . S
C1052 C1054 1.419 . S
C1052 H1056 0.930 . S
C1053 C1052 1.369 . S
C1053 C1062 1.429 . S
C1054 C1052 1.419 . S
C1054 C1055 1.363 . S
C1054 H1057 0.929 . S
C1055 C1054 1.363 . S
C1055 C1061 1.428 . S
H1056 C1052 0.930 . S
H1057 C1054 0.929 . S
S1058 N1059 1.613 . S
S1058 N1060 1.610 . S
N1059 S1058 1.613 . S
N1059 C1062 1.350 . S
N1060 S1058 1.610 . S
N1060 C1061 1.351 . S
C1061 C1055 1.428 . S
C1061 N1060 1.351 . S
C1061 C1062 1.434 . S
C1062 C1053 1.429 . S
C1062 N1059 1.350 . S
C1062 C1061 1.434 . S
C1063 C1064 1.369 . S
C1063 C1065 1.419 . S
C1063 H1067 0.930 . S
C1064 C1063 1.369 . S
C1064 C1073 1.429 . S
C1065 C1063 1.419 . S
C1065 C1066 1.363 . S
C1065 H1068 0.929 . S
C1066 C1065 1.363 . S
C1066 C1072 1.428 . S
H1067 C1063 0.930 . S
H1068 C1065 0.929 . S
S1069 N1070 1.613 . S
S1069 N1071 1.610 . S
N1070 S1069 1.613 . S
N1070 C1073 1.350 . S
N1071 S1069 1.610 . S
N1071 C1072 1.351 . S
C1072 C1066 1.428 . S
C1072 N1071 1.351 . S
C1072 C1073 1.434 . S
C1073 C1064 1.429 . S
C1073 N1070 1.350 . S
C1073 C1072 1.434 . S
C1074 C1075 1.369 . S
C1074 C1076 1.419 . S
C1074 H1078 0.930 . S
C1075 C1074 1.369 . S
C1075 C1084 1.429 . S
C1076 C1074 1.419 . S
C1076 C1077 1.363 . S
C1076 H1079 0.929 . S
C1077 C1076 1.363 . S
C1077 C1083 1.428 . S
H1078 C1074 0.930 . S
H1079 C1076 0.929 . S
S1080 N1081 1.613 . S
S1080 N1082 1.610 . S
N1081 S1080 1.613 . S
N1081 C1084 1.350 . S
N1082 S1080 1.610 . S
N1082 C1083 1.351 . S
C1083 C1077 1.428 . S
C1083 N1082 1.351 . S
C1083 C1084 1.434 . S
C1084 C1075 1.429 . S
C1084 N1081 1.350 . S
C1084 C1083 1.434 . S
C1085 C1086 1.369 . S
C1085 C1087 1.419 . S
C1085 H1089 0.930 . S
C1086 C1085 1.369 . S
C1086 C1095 1.429 . S
C1087 C1085 1.419 . S
C1087 C1088 1.363 . S
C1087 H1090 0.929 . S
C1088 C1087 1.363 . S
C1088 C1094 1.428 . S
H1089 C1085 0.930 . S
H1090 C1087 0.929 . S
S1091 N1092 1.613 . S
S1091 N1093 1.610 . S
N1092 S1091 1.613 . S
N1092 C1095 1.350 . S
N1093 S1091 1.610 . S
N1093 C1094 1.351 . S
C1094 C1088 1.428 . S
C1094 N1093 1.351 . S
C1094 C1095 1.434 . S
C1095 C1086 1.429 . S
C1095 N1092 1.350 . S
C1095 C1094 1.434 . S
C1096 C1097 1.369 . S
C1096 C1098 1.419 . S
C1096 H1100 0.930 . S
C1097 C1096 1.369 . S
C1097 C1106 1.429 . S
C1098 C1096 1.419 . S
C1098 C1099 1.363 . S
C1098 H1101 0.929 . S
C1099 C1098 1.363 . S
C1099 C1105 1.428 . S
H1100 C1096 0.930 . S
H1101 C1098 0.929 . S
S1102 N1103 1.613 . S
S1102 N1104 1.610 . S
N1103 S1102 1.613 . S
N1103 C1106 1.350 . S
N1104 S1102 1.610 . S
N1104 C1105 1.351 . S
C1105 C1099 1.428 . S
C1105 N1104 1.351 . S
C1105 C1106 1.434 . S
C1106 C1097 1.429 . S
C1106 N1103 1.350 . S
C1106 C1105 1.434 . S
C613 C5 1.385 . S
C615 C271 1.402 . S
C624 C39 1.385 . S
C626 C305 1.402 . S
C635 C73 1.384 . S
C637 C237 1.402 . S
C646 C577 1.403 . S
C648 C107 1.380 . S
C657 C141 1.385 . S
C659 C611 1.402 . S
C668 C175 1.379 . S
C670 C543 1.402 . S
C679 C209 1.385 . S
C681 C475 1.401 . S
C690 C509 1.401 . S
C692 C243 1.381 . S
C701 C441 1.417 . S
C703 C277 1.383 . S
C712 C311 1.385 . S
C714 C169 1.401 . S
C723 C345 1.379 . S
C725 C203 1.402 . S
C734 C379 1.383 . S
C736 C135 1.402 . S
C745 C413 1.381 . S
C747 C67 1.401 . S
C756 C447 1.378 . S
C758 C101 1.402 . S
C767 C33 1.403 . S
C769 C481 1.379 . S
C778 C373 1.402 . S
C780 C515 1.384 . S
C789 C549 1.385 . S
C791 C407 1.401 . S
C800 C583 1.379 . S
C802 C339 1.414 . S
C811 C530 1.660 . S
C813 C20 1.654 . S
C822 C564 1.658 . S
C824 C54 1.658 . S
C833 C88 1.656 . S
C835 C598 1.658 . S
C844 C122 1.654 . S
C846 C224 1.660 . S
C855 C156 1.661 . S
C857 C258 1.655 . S
C866 C292 1.660 . S
C868 C190 1.655 . S
C877 C326 1.654 . S
C879 C428 1.660 . S
C888 C462 1.658 . S
C890 C360 1.658 . S
C899 C496 1.659 . S
C901 C394 1.656 . S
C910 C2 1.469 . S
C912 C145 1.438 . S
C921 C179 1.443 . S
C923 C36 1.469 1_545 S
C932 C70 1.470 1_655 S
C934 C111 1.444 . S
C943 C43 1.437 . S
C945 C104 1.469 . S
C954 C138 1.470 1_565 S
C956 C77 1.444 . S
C965 C9 1.446 . S
C967 C172 1.471 1_455 S
C976 C206 1.472 . S
C978 C349 1.444 . S
C987 C383 1.444 . S
C989 C240 1.472 . S
C998 C315 1.443 . S
C1000 C274 1.469 . S
C1009 C308 1.471 . S
C1011 C247 1.444 . S
C1020 C281 1.446 . S
C1022 C342 1.471 . S
C1031 C376 1.466 . S
C1033 C213 1.438 . S
C1042 C553 1.443 . S
C1044 C410 1.472 . S
C1053 C587 1.439 . S
C1055 C444 1.470 . S
C1064 C519 1.444 . S
C1066 C478 1.472 . S
C1075 C451 1.438 . S
C1077 C512 1.468 . S
C1086 C485 1.440 . S
C1088 C546 1.471 . S
C1097 C580 1.472 . S
C1099 C417 1.442 . S
