# Generated by pormake.
# Topology umf, (4)-cn, num edge types: 1
# Building blocks:
#     Node 0, Type 0, BuildingBlock: GALJAG_clean_sbu_0, # of connection points: 4
#     Node 1, Type 0, BuildingBlock: GALJAG_clean_sbu_0, # of connection points: 4
#     Node 2, Type 0, BuildingBlock: GALJAG_clean_sbu_0, # of connection points: 4
#     Node 3, Type 0, BuildingBlock: GALJAG_clean_sbu_0, # of connection points: 4
#     Node 4, Type 0, BuildingBlock: GALJAG_clean_sbu_0, # of connection points: 4
#     Node 5, Type 0, BuildingBlock: GALJAG_clean_sbu_0, # of connection points: 4
#     Node 6, Type 0, BuildingBlock: GALJAG_clean_sbu_0, # of connection points: 4
#     Node 7, Type 0, BuildingBlock: GALJAG_clean_sbu_0, # of connection points: 4
#     Edge 8, Type (0, 0), BuildingBlock: EZIPEK_clean_linker_0, # of connection points: 2
#     Edge 9, Type (0, 0), BuildingBlock: EZIPEK_clean_linker_0, # of connection points: 2
#     Edge 10, Type (0, 0), BuildingBlock: EZIPEK_clean_linker_0, # of connection points: 2
#     Edge 11, Type (0, 0), BuildingBlock: EZIPEK_clean_linker_0, # of connection points: 2
#     Edge 12, Type (0, 0), BuildingBlock: EZIPEK_clean_linker_0, # of connection points: 2
#     Edge 13, Type (0, 0), BuildingBlock: EZIPEK_clean_linker_0, # of connection points: 2
#     Edge 14, Type (0, 0), BuildingBlock: EZIPEK_clean_linker_0, # of connection points: 2
#     Edge 15, Type (0, 0), BuildingBlock: EZIPEK_clean_linker_0, # of connection points: 2
#     Edge 16, Type (0, 0), BuildingBlock: EZIPEK_clean_linker_0, # of connection points: 2
#     Edge 17, Type (0, 0), BuildingBlock: EZIPEK_clean_linker_0, # of connection points: 2
#     Edge 18, Type (0, 0), BuildingBlock: EZIPEK_clean_linker_0, # of connection points: 2
#     Edge 19, Type (0, 0), BuildingBlock: EZIPEK_clean_linker_0, # of connection points: 2
#     Edge 20, Type (0, 0), BuildingBlock: EZIPEK_clean_linker_0, # of connection points: 2
#     Edge 21, Type (0, 0), BuildingBlock: EZIPEK_clean_linker_0, # of connection points: 2
#     Edge 22, Type (0, 0), BuildingBlock: EZIPEK_clean_linker_0, # of connection points: 2
#     Edge 23, Type (0, 0), BuildingBlock: EZIPEK_clean_linker_0, # of connection points: 2
# Relax obj value: 0.108
# Max RMSD: 0.235
# Mean RMSD: 0.235
data_MOF--net-umf--node1-GALJAG_clean_sbu_0--edge1-EZIPEK_clean_linker_0
_symmetry_space_group_name_H-M    P1
_symmetry_Int_Tables_number       1
_symmetry_cell_setting            triclinic
loop_
_symmetry_equiv_pos_as_xyz
'x, y, z'
_cell_length_a     21.235655
_cell_length_b     20.780255
_cell_length_c     38.821801
_cell_angle_alpha  89.907858
_cell_angle_beta   89.653753
_cell_angle_gamma 90.004939
loop_
_atom_site_label
_atom_site_type_symbol
_atom_site_fract_x
_atom_site_fract_y
_atom_site_fract_z
_atom_type_partial_charge
In0 In 0.05166 0.27236 0.14365 0.0
O1 O 0.09343 0.26786 0.08887 0.0
O2 O -0.00556 0.28352 0.09522 0.0
C3 C 0.13545 0.23791 0.1915 0.0
C4 C 0.03834 0.39823 0.15597 0.0
C5 C -0.01407 0.16421 0.15311 0.0
O6 O 0.15004 0.23839 0.15975 0.0
O7 O 0.08063 0.25729 0.19862 0.0
O8 O 0.96641 0.21716 0.16538 0.0
O9 O 0.0363 0.16693 0.13583 0.0
C10 C 0.04033 0.27658 0.07476 0.0
O11 O -0.00618 0.35866 0.16099 0.0
O12 O 0.08965 0.37396 0.14563 0.0
In13 In 0.75051 0.01974 0.65229 0.0
O14 O 0.7392 0.06051 0.59767 0.0
O15 O 0.758 0.95976 0.60447 0.0
C16 C 0.74956 0.09628 0.70738 0.0
C17 C 0.63582 0.9744 0.6609 0.0
C18 C 0.87269 0.9941 0.6589 0.0
O19 O 0.7569 0.11915 0.67715 0.0
O20 O 0.73834 0.0365 0.70886 0.0
O21 O 0.83128 0.95026 0.6621 0.0
O22 O 0.85163 0.05003 0.6534 0.0
C23 C 0.74724 0.0055 0.58387 0.0
O24 O 0.68356 0.94176 0.67002 0.0
O25 O 0.64636 0.02955 0.64819 0.0
In26 In 0.90664 0.77113 0.14633 0.0
O27 O 0.86706 0.7571 0.09179 0.0
O28 O 0.96494 0.77857 0.09764 0.0
C29 C 0.8189 0.76146 0.19593 0.0
C30 C 0.96822 0.66224 0.15992 0.0
C31 C 0.92266 0.89804 0.15376 0.0
O32 O 0.80472 0.75438 0.16444 0.0
O33 O 0.87662 0.77084 0.20174 0.0
O34 O 0.96475 0.85816 0.16269 0.0
O35 O 0.87327 0.87371 0.14132 0.0
C36 C 0.92006 0.767 0.07744 0.0
O37 O -0.0074 0.71657 0.16631 0.0
O38 O 0.91365 0.66338 0.14721 0.0
In39 In 0.25238 0.89102 0.64533 0.0
O40 O 0.33417 0.95239 0.66218 0.0
O41 O 0.35232 0.8574 0.64225 0.0
C42 C 0.13683 0.93292 0.6557 0.0
C43 C 0.25269 0.9221 0.57846 0.0
C44 C 0.23795 0.80874 0.69734 0.0
O45 O 0.18412 0.96518 0.66585 0.0
O46 O 0.14833 0.88046 0.64031 0.0
O47 O 0.23925 0.78899 0.66628 0.0
O48 O 0.24651 0.86857 0.70128 0.0
C49 C 0.37426 0.90951 0.65406 0.0
O50 O 0.25139 0.86351 0.58826 0.0
O51 O 0.25388 0.96339 0.60236 0.0
In52 In 0.0296 0.77794 0.86761 0.0
O53 O 0.05315 0.76499 0.92475 0.0
O54 O 0.95917 0.79142 0.91063 0.0
C55 C 0.11804 0.75447 0.82013 0.0
C56 C 0.96669 0.67076 0.85499 0.0
C57 C 0.03175 0.90516 0.85954 0.0
O58 O 0.1296 0.74796 0.85207 0.0
O59 O 0.06237 0.77125 0.81294 0.0
O60 O 0.9854 0.87143 0.84959 0.0
O61 O 0.07682 0.87431 0.87291 0.0
C62 C -0.00288 0.77749 0.93447 0.0
O63 O 0.946 0.72465 0.84442 0.0
O64 O 0.01812 0.67191 0.87119 0.0
In65 In 0.24161 0.04134 0.36964 0.0
O66 O 0.23342 0.0671 0.42649 0.0
O67 O 0.25882 0.97031 0.41217 0.0
C68 C 0.22507 0.10894 0.31245 0.0
C69 C 0.36475 0.04451 0.36191 0.0
C70 C 0.12457 -0.00172 0.36574 0.0
O71 O 0.21936 0.135 0.34208 0.0
O72 O 0.24093 0.04994 0.31233 0.0
O73 O 0.17107 0.96203 0.35806 0.0
O74 O 0.13828 0.05512 0.37495 0.0
C75 C 0.24675 0.00996 0.43613 0.0
O76 O 0.3325 0.99555 0.35303 0.0
O77 O 0.33426 0.09172 0.37451 0.0
In78 In 0.91891 0.28002 0.86833 0.0
O79 O 0.90009 0.27184 0.92617 0.0
O80 O -0.00713 0.29751 0.90862 0.0
C81 C 0.83199 0.24021 0.82416 0.0
C82 C 0.91173 0.40596 0.85803 0.0
C83 C 0.98227 0.17229 0.85742 0.0
O84 O 0.82092 0.24105 0.85641 0.0
O85 O 0.88477 0.26254 0.81477 0.0
O86 O 0.00046 0.22467 0.84351 0.0
O87 O 0.93412 0.17566 0.87659 0.0
C88 C 0.95681 0.28517 0.93383 0.0
O89 O 0.95873 0.37334 0.84763 0.0
O90 O 0.86777 0.3744 0.87233 0.0
In91 In 0.73336 0.93708 0.3698 0.0
O92 O 0.72139 0.89547 0.42411 0.0
O93 O 0.73787 -0.00329 0.41813 0.0
C94 C 0.72669 0.85114 0.31875 0.0
C95 C 0.62605 -0.00207 0.35713 0.0
C96 C 0.85728 0.95282 0.3647 0.0
O97 O 0.71698 0.83458 0.34984 0.0
O98 O 0.73731 0.91031 0.31401 0.0
O99 O 0.8194 -0.00363 0.35504 0.0
O100 O 0.83267 0.90225 0.37681 0.0
C101 C 0.72898 0.94991 0.43834 0.0
O102 O 0.67855 0.0242 0.35025 0.0
O103 O 0.62833 0.94202 0.36988 0.0
C104 C 0.00581 0.49428 0.19104 0.0
C105 C 0.02983 0.46861 0.15973 0.0
C106 C 0.03671 0.57736 0.1356 0.0
C107 C 0.00185 0.60071 0.16397 0.0
N108 N 0.95493 0.58441 0.21973 0.0
N109 N 0.06022 0.48518 0.10016 0.0
C110 C -0.01266 0.56007 0.1922 0.0
C111 C 0.04433 0.51008 0.1316 0.0
N112 N 0.00232 0.45625 0.21976 0.0
N113 N 0.06171 0.61958 0.11225 0.0
H114 H 0.06231 0.43601 0.09533 0.0
H115 H 0.0647 0.51305 0.07795 0.0
H116 H 0.05643 0.66931 0.11465 0.0
H117 H 0.09257 0.60573 0.09266 0.0
H118 H -0.00976 0.47346 0.24408 0.0
H119 H 0.01698 0.40833 0.21991 0.0
H120 H 0.93575 0.55612 0.2393 0.0
H121 H 0.94569 0.63352 0.22223 0.0
C122 C 0.46815 0.94017 0.68907 0.0
C123 C 0.44266 0.92015 0.65711 0.0
C124 C 0.5481 0.91962 0.63132 0.0
C125 C 0.5717 0.94826 0.66163 0.0
N126 N 0.55544 0.99059 0.71869 0.0
N127 N 0.45694 0.89831 0.59627 0.0
C128 C 0.53217 0.95964 0.69045 0.0
C129 C 0.48227 0.91111 0.62785 0.0
N130 N 0.43188 0.93828 0.71828 0.0
N131 N 0.58877 0.9005 0.60587 0.0
H132 H 0.40895 0.89215 0.59211 0.0
H133 H 0.48292 0.89933 0.57344 0.0
H134 H 0.63741 0.90661 0.60751 0.0
H135 H 0.57508 0.87339 0.58466 0.0
H136 H 0.4496 0.94629 0.74286 0.0
H137 H 0.38519 0.92272 0.71843 0.0
H138 H 0.52723 0.00724 0.73882 0.0
H139 H 0.60283 0.00306 0.72104 0.0
C140 C 0.90363 0.51474 0.88579 0.0
C141 C 0.91025 0.4769 0.85546 0.0
C142 C 0.93506 0.57341 0.82165 0.0
C143 C 0.93164 0.61 0.85226 0.0
N144 N 0.8934 0.6217 0.91019 0.0
N145 N 0.91412 0.47139 0.79348 0.0
C146 C 0.90897 0.58251 0.8832 0.0
C147 C 0.9201 0.50673 0.82294 0.0
N148 N 0.8971 0.48613 0.91737 0.0
N149 N 0.95524 0.60193 0.79185 0.0
H150 H 0.90182 0.42276 0.79376 0.0
H151 H 0.91572 0.4912 0.76885 0.0
H152 H 0.96289 0.65143 0.78999 0.0
H153 H 0.96645 0.57663 0.76952 0.0
H154 H 0.90042 0.51112 0.94052 0.0
H155 H 0.89316 0.43669 0.92099 0.0
H156 H 0.87139 0.60548 0.93262 0.0
H157 H 0.89682 0.67173 0.90855 0.0
C158 C 0.46204 0.03098 0.32583 0.0
C159 C 0.43406 0.04593 0.35818 0.0
C160 C 0.53873 0.05914 0.38311 0.0
C161 C 0.56511 0.03063 0.35345 0.0
N162 N 0.55505 0.99281 0.29537 0.0
N163 N 0.44613 0.06873 0.41895 0.0
C164 C 0.52775 0.01831 0.3242 0.0
C165 C 0.47243 0.06 0.38709 0.0
N166 N 0.42608 0.03042 0.29675 0.0
N167 N 0.57737 0.08424 0.40764 0.0
H168 H 0.39793 0.06591 0.42361 0.0
H169 H 0.4725 0.07236 0.44141 0.0
H170 H 0.62633 0.08385 0.40497 0.0
H171 H 0.56092 0.11079 0.42859 0.0
H172 H 0.44465 0.02495 0.27205 0.0
H173 H 0.37817 0.04154 0.29701 0.0
H174 H 0.52964 0.97508 0.27459 0.0
H175 H 0.60379 0.98771 0.29295 0.0
C176 C 0.01289 0.33553 0.98397 0.0
C177 C 0.98162 0.28151 0.96948 0.0
C178 C -0.00051 0.22001 0.02261 0.0
C179 C 0.03007 0.27422 0.03703 0.0
N180 N 0.08163 0.37598 0.02881 0.0
N181 N 0.95909 0.16763 0.97151 0.0
C182 C 0.04181 0.32964 0.01681 0.0
C183 C 0.97874 0.22231 0.98783 0.0
N184 N 0.01271 0.39325 0.96702 0.0
N185 N -0.00968 0.16626 0.04232 0.0
H186 H 0.94423 0.16697 0.94599 0.0
H187 H 0.96249 0.12173 0.98208 0.0
H188 H 0.01011 0.16089 0.06668 0.0
H189 H 0.9617 0.12797 0.03514 0.0
H190 H 0.02819 0.43611 0.97793 0.0
H191 H -0.00748 0.39958 0.94286 0.0
H192 H 0.0966 0.41526 0.01424 0.0
H193 H 0.10511 0.37134 0.05219 0.0
C194 C 0.79477 0.96577 0.52852 0.0
C195 C 0.74249 0.99318 0.54629 0.0
C196 C 0.67965 0.98824 0.49341 0.0
C197 C 0.73127 0.95908 0.4761 0.0
N198 N 0.83488 0.91212 0.47733 0.0
N199 N 0.6319 0.01986 0.54777 0.0
C200 C 0.78789 0.94533 0.49377 0.0
C201 C 0.68405 0.00195 0.52927 0.0
N202 N 0.85171 0.96131 0.54461 0.0
N203 N 0.6264 0.00293 0.47542 0.0
H204 H 0.633 0.03016 0.57403 0.0
H205 H 0.58646 0.01991 0.53789 0.0
H206 H 0.61958 0.98841 0.45 0.0
H207 H 0.5902 0.03164 0.48503 0.0
H208 H 0.89362 0.94933 0.53218 0.0
H209 H 0.85823 0.97387 0.57027 0.0
H210 H 0.87466 0.89425 0.48958 0.0
H211 H 0.83227 0.89812 0.4516 0.0
C212 C 0.96479 0.71271 0.02509 0.0
C213 C 0.93071 0.7648 0.03966 0.0
C214 C 0.94253 0.82597 0.986 0.0
C215 C 0.97542 0.77329 0.97094 0.0
N216 N 0.00391 0.66084 0.97329 0.0
N217 N 0.87349 0.86354 0.03179 0.0
C218 C 0.98286 0.715 0.9897 0.0
C219 C 0.9151 0.81901 0.01934 0.0
N220 N 0.97987 0.66097 0.04518 0.0
N221 N 0.94001 0.88377 0.96918 0.0
H222 H 0.85213 0.8593 0.05595 0.0
H223 H 0.85543 0.90106 0.01703 0.0
H224 H 0.95981 0.89133 0.94491 0.0
H225 H 0.9232 0.92587 0.98047 0.0
H226 H 0.01145 0.62527 0.03763 0.0
H227 H 0.9625 0.65519 0.0702 0.0
H228 H 0.00392 0.61535 0.98457 0.0
H229 H 0.016 0.65987 0.94724 0.0
C230 C 0.28854 0.01765 0.49671 0.0
C231 C 0.24647 0.98909 0.47289 0.0
C232 C 0.20506 0.91922 0.51906 0.0
C233 C 0.25205 0.94254 0.54167 0.0
N234 N 0.34646 0.00546 0.54982 0.0
N235 N 0.16985 0.90603 0.46039 0.0
C236 C 0.29586 0.98959 0.52992 0.0
C237 C 0.20667 0.93755 0.48371 0.0
N238 N 0.32167 0.07165 0.48785 0.0
N239 N 0.15635 0.88292 0.53167 0.0
H240 H 0.16539 0.92007 0.43477 0.0
H241 H 0.14656 0.86312 0.46601 0.0
H242 H 0.15178 0.87028 0.55755 0.0
H243 H 0.11693 0.87087 0.51721 0.0
H244 H 0.34727 0.09864 0.50549 0.0
H245 H 0.31956 0.09297 0.46362 0.0
H246 H 0.38386 0.03354 0.541 0.0
H247 H 0.35455 0.98549 0.57401 0.0
C248 C 0.20604 0.23886 0.24322 0.0
C249 C 0.17242 0.2039 0.218 0.0
C250 C 0.17049 0.10958 0.25534 0.0
C251 C 0.20802 0.14247 0.27989 0.0
N252 N 0.27392 0.23375 0.29322 0.0
N253 N 0.13882 0.10137 0.19582 0.0
C254 C 0.22957 0.20591 0.27272 0.0
C255 C 0.1608 0.13748 0.22255 0.0
N256 N 0.21435 0.30362 0.23929 0.0
N257 N 0.13952 0.05431 0.26423 0.0
H258 H 0.13167 0.12041 0.17131 0.0
H259 H 0.13436 0.05147 0.19699 0.0
H260 H 0.13833 0.03682 0.28933 0.0
H261 H 0.10843 0.03052 0.24798 0.0
H262 H 0.23208 0.33313 0.25861 0.0
H263 H 0.20031 0.32816 0.21713 0.0
H264 H 0.29532 0.27759 0.28742 0.0
H265 H 0.29387 0.21019 0.31422 0.0
C266 C 0.76218 0.23415 0.77231 0.0
C267 C 0.79436 0.20265 0.79941 0.0
C268 C 0.79935 0.10418 0.76568 0.0
C269 C 0.76307 0.13355 0.73923 0.0
N270 N 0.6976 0.2224 0.72133 0.0
N271 N 0.82597 0.10299 0.82606 0.0
C272 C 0.7406 0.19745 0.74369 0.0
C273 C 0.80603 0.13583 0.79763 0.0
N274 N 0.75349 0.29919 0.77365 0.0
N275 N 0.83253 0.049 0.75941 0.0
H276 H 0.83083 0.12465 0.85006 0.0
H277 H 0.83054 0.05306 0.82667 0.0
H278 H 0.83698 0.02893 0.735 0.0
H279 H 0.8628 0.0281 0.77723 0.0
H280 H 0.7369 0.32613 0.75295 0.0
H281 H 0.76595 0.32644 0.79513 0.0
H282 H 0.67569 0.26671 0.72505 0.0
H283 H 0.67923 0.19612 0.70086 0.0
C284 C 0.77293 0.75504 0.28786 0.0
C285 C 0.72879 0.80623 0.28908 0.0
C286 C 0.72379 0.80862 0.22608 0.0
C287 C 0.77302 0.76253 0.22493 0.0
N288 N 0.82339 0.67328 0.25258 0.0
N289 N 0.64395 0.86133 0.26116 0.0
C290 C 0.78999 0.72914 0.25528 0.0
C291 C 0.69774 0.82568 0.25862 0.0
N292 N 0.80215 0.73452 0.31712 0.0
N293 N 0.70513 0.83954 0.19682 0.0
H294 H 0.6239 0.87242 0.28505 0.0
H295 H 0.61619 0.87354 0.24011 0.0
H296 H 0.72087 0.82679 0.17234 0.0
H297 H 0.67559 0.87954 0.19697 0.0
H298 H 0.84062 0.70342 0.31689 0.0
H299 H 0.78984 0.75052 0.34163 0.0
H300 H 0.83381 0.64383 0.27353 0.0
H301 H 0.83432 0.65335 0.2286 0.0
C302 C 0.25513 0.78371 0.75891 0.0
C303 C 0.22339 0.76819 0.728 0.0
C304 C 0.14354 0.71172 0.76214 0.0
C305 C 0.16462 0.74439 0.79191 0.0
N306 N 0.24461 0.80892 0.81947 0.0
N307 N 0.13848 0.71106 0.69999 0.0
C308 C 0.22269 0.77811 0.79091 0.0
C309 C 0.16886 0.72867 0.7294 0.0
N310 N 0.31583 0.80521 0.75727 0.0
N311 N 0.09887 0.66483 0.76544 0.0
H312 H 0.15676 0.71852 0.67542 0.0
H313 H 0.0937 0.69059 0.70003 0.0
H314 H 0.08154 0.65078 0.78954 0.0
H315 H 0.08463 0.63558 0.74516 0.0
H316 H 0.34347 0.81298 0.77895 0.0
H317 H 0.34025 0.8085 0.73389 0.0
H318 H 0.28226 0.84104 0.81878 0.0
H319 H 0.22359 0.80499 0.84365 0.0
C320 C 0.92618 0.0743 0.12811 0.0
C321 C 0.95329 0.10216 0.15757 0.0
C322 C 0.94691 -0.00157 0.18753 0.0
C323 C 0.93143 0.96863 0.15573 0.0
N324 N 0.91568 0.9779 0.09423 0.0
N325 N -0.01117 0.09321 0.21608 0.0
C326 C 0.92259 0.00652 0.12566 0.0
C327 C 0.96283 0.06508 0.18775 0.0
N328 N 0.904 0.11299 0.10247 0.0
N329 N 0.945 0.9635 0.21739 0.0
H330 H -0.0012 0.14233 0.21721 0.0
H331 H 0.00255 0.06782 0.2379 0.0
H332 H 0.93245 0.91498 0.21812 0.0
H333 H 0.95051 0.98359 0.24173 0.0
H334 H 0.87832 0.09561 0.08167 0.0
H335 H 0.90576 0.16313 0.10408 0.0
H336 H 0.91512 0.00356 0.07115 0.0
H337 H 0.9177 0.92826 0.09076 0.0
C338 C 0.04778 0.00174 0.63726 0.0
C339 C 0.07167 0.95515 0.66024 0.0
C340 C 0.96709 0.94122 0.68608 0.0
C341 C 0.94141 0.98124 0.6599 0.0
N342 N 0.95726 0.04128 0.60676 0.0
N343 N 0.05548 0.8767 0.7052 0.0
C344 C 0.98174 0.00992 0.63466 0.0
C345 C 0.03173 0.92378 0.68431 0.0
N346 N 0.08817 0.03777 0.61756 0.0
N347 N 0.93071 0.92212 0.71341 0.0
H348 H 0.10335 0.86556 0.70615 0.0
H349 H 0.02748 0.84633 0.72018 0.0
H350 H 0.88341 0.9342 0.71615 0.0
H351 H 0.94868 0.89905 0.73506 0.0
H352 H 0.07392 0.07767 0.60333 0.0
H353 H 0.13689 0.03156 0.61779 0.0
H354 H 0.98426 0.05559 0.58561 0.0
H355 H 0.90939 0.04776 0.60261 0.0
C356 C 0.04029 0.08244 0.88354 0.0
C357 C 0.0148 0.1102 0.85351 0.0
C358 C 0.01957 0.00589 0.82446 0.0
C359 C 0.03241 0.97625 0.8567 0.0
N360 N 0.0519 0.98651 0.91797 0.0
N361 N 0.98165 0.10107 0.79459 0.0
C362 C 0.04333 0.01455 0.88644 0.0
C363 C 0.00587 0.07292 0.82345 0.0
N364 N 0.06084 0.12153 0.90943 0.0
N365 N 0.02163 0.97015 0.79494 0.0
H366 H 0.97287 0.15037 0.79295 0.0
H367 H 0.96818 0.0756 0.77279 0.0
H368 H 0.03312 0.92132 0.79483 0.0
H369 H 0.0179 0.98978 0.77035 0.0
H370 H 0.08513 0.10482 0.93089 0.0
H371 H 0.05906 0.17165 0.90758 0.0
H372 H 0.05199 0.01229 0.94095 0.0
H373 H 0.05378 0.93703 0.9219 0.0
C374 C 0.95423 0.99149 0.39356 0.0
C375 C 0.92601 0.96179 0.36477 0.0
C376 C 0.02947 0.94708 0.33746 0.0
C377 C 0.05795 0.97647 0.36659 0.0
N378 N 0.04926 0.00892 0.42617 0.0
N379 N 0.93522 0.90068 0.31232 0.0
C380 C 0.02077 0.99344 0.39577 0.0
C381 C 0.96323 0.93615 0.33764 0.0
N382 N 0.9174 0.01885 0.4186 0.0
N383 N 0.06486 0.93202 0.30909 0.0
H384 H 0.8866 0.89388 0.31098 0.0
H385 H 0.96012 0.87445 0.29392 0.0
H386 H 0.11374 0.93465 0.30848 0.0
H387 H 0.04567 0.91955 0.28541 0.0
H388 H 0.93512 0.04787 0.43811 0.0
H389 H 0.86834 0.01669 0.41852 0.0
H390 H 0.02493 0.01479 0.44932 0.0
H391 H 0.09796 0.00936 0.42925 0.0
loop_
_geom_bond_atom_site_label_1
_geom_bond_atom_site_label_2
_geom_bond_distance
_geom_bond_site_symmetry_2
_ccdc_geom_bond_type
In0 O1 2.294 . S
In0 O2 2.326 . S
In0 O6 2.266 . S
In0 O7 2.326 . S
In0 O8 2.266 1_455 S
In0 O9 2.326 . S
In0 O11 2.294 1_455 S
In0 O12 2.326 . S
O1 In0 2.294 . S
O1 C10 1.240 . S
O2 In0 2.326 . S
O2 C10 1.252 . S
C3 O6 1.252 . S
C3 O7 1.260 . S
C4 O11 1.240 1_455 S
C4 O12 1.252 . S
C5 O8 1.252 1_455 S
C5 O9 1.260 . S
O6 In0 2.266 . S
O6 C3 1.252 . S
O7 In0 2.326 . S
O7 C3 1.260 . S
O8 In0 2.266 1_655 S
O8 C5 1.252 1_655 S
O9 In0 2.326 . S
O9 C5 1.260 . S
C10 O1 1.240 . S
C10 O2 1.252 . S
O11 In0 2.294 1_655 S
O11 C4 1.240 1_655 S
O12 In0 2.326 . S
O12 C4 1.252 . S
In13 O14 2.294 . S
In13 O15 2.326 . S
In13 O19 2.266 . S
In13 O20 2.326 . S
In13 O21 2.266 1_545 S
In13 O22 2.326 . S
In13 O24 2.294 1_545 S
In13 O25 2.326 . S
O14 In13 2.294 . S
O14 C23 1.240 . S
O15 In13 2.326 . S
O15 C23 1.252 . S
C16 O19 1.252 . S
C16 O20 1.260 . S
C17 O24 1.240 1_545 S
C17 O25 1.252 . S
C18 O21 1.252 1_545 S
C18 O22 1.260 . S
O19 In13 2.266 . S
O19 C16 1.252 . S
O20 In13 2.326 . S
O20 C16 1.260 . S
O21 In13 2.266 1_565 S
O21 C18 1.252 1_565 S
O22 In13 2.326 . S
O22 C18 1.260 . S
C23 O14 1.240 . S
C23 O15 1.252 . S
O24 In13 2.294 1_565 S
O24 C17 1.240 1_565 S
O25 In13 2.326 . S
O25 C17 1.252 . S
In26 O27 2.294 . S
In26 O28 2.326 . S
In26 O32 2.266 . S
In26 O33 2.326 . S
In26 O34 2.266 1_655 S
In26 O35 2.326 . S
In26 O37 2.294 1_655 S
In26 O38 2.326 . S
O27 In26 2.294 . S
O27 C36 1.240 . S
O28 In26 2.326 . S
O28 C36 1.252 . S
C29 O32 1.252 . S
C29 O33 1.260 . S
C30 O37 1.240 1_655 S
C30 O38 1.252 . S
C31 O34 1.252 1_655 S
C31 O35 1.260 . S
O32 In26 2.266 . S
O32 C29 1.252 . S
O33 In26 2.326 . S
O33 C29 1.260 . S
O34 In26 2.266 1_455 S
O34 C31 1.252 1_455 S
O35 In26 2.326 . S
O35 C31 1.260 . S
C36 O27 1.240 . S
C36 O28 1.252 . S
O37 In26 2.294 1_455 S
O37 C30 1.240 1_455 S
O38 In26 2.326 . S
O38 C30 1.252 . S
In39 O40 2.294 1_565 S
In39 O41 2.326 . S
In39 O45 2.266 1_565 S
In39 O46 2.326 . S
In39 O47 2.266 . S
In39 O48 2.326 . S
In39 O50 2.294 . S
In39 O51 2.326 . S
O40 In39 2.294 1_545 S
O40 C49 1.240 1_545 S
O41 In39 2.326 . S
O41 C49 1.252 . S
C42 O45 1.252 1_565 S
C42 O46 1.260 . S
C43 O50 1.240 . S
C43 O51 1.252 . S
C44 O47 1.252 . S
C44 O48 1.260 . S
O45 In39 2.266 1_545 S
O45 C42 1.252 1_545 S
O46 In39 2.326 . S
O46 C42 1.260 . S
O47 In39 2.266 . S
O47 C44 1.252 . S
O48 In39 2.326 . S
O48 C44 1.260 . S
C49 O40 1.240 1_565 S
C49 O41 1.252 . S
O50 In39 2.294 . S
O50 C43 1.240 . S
O51 In39 2.326 . S
O51 C43 1.252 . S
In52 O53 2.294 . S
In52 O54 2.326 . S
In52 O58 2.266 . S
In52 O59 2.326 . S
In52 O60 2.266 1_455 S
In52 O61 2.326 . S
In52 O63 2.294 1_455 S
In52 O64 2.326 . S
O53 In52 2.294 . S
O53 C62 1.240 . S
O54 In52 2.326 . S
O54 C62 1.252 . S
C55 O58 1.252 . S
C55 O59 1.260 . S
C56 O63 1.240 1_455 S
C56 O64 1.252 . S
C57 O60 1.252 1_455 S
C57 O61 1.260 . S
O58 In52 2.266 . S
O58 C55 1.252 . S
O59 In52 2.326 . S
O59 C55 1.260 . S
O60 In52 2.266 1_655 S
O60 C57 1.252 1_655 S
O61 In52 2.326 . S
O61 C57 1.260 . S
C62 O53 1.240 . S
C62 O54 1.252 . S
O63 In52 2.294 1_655 S
O63 C56 1.240 1_655 S
O64 In52 2.326 . S
O64 C56 1.252 . S
In65 O66 2.294 . S
In65 O67 2.326 . S
In65 O71 2.266 . S
In65 O72 2.326 . S
In65 O73 2.266 1_545 S
In65 O74 2.326 . S
In65 O76 2.294 1_545 S
In65 O77 2.326 . S
O66 In65 2.294 . S
O66 C75 1.240 . S
O67 In65 2.326 . S
O67 C75 1.252 . S
C68 O71 1.252 . S
C68 O72 1.260 . S
C69 O76 1.240 1_545 S
C69 O77 1.252 . S
C70 O73 1.252 1_545 S
C70 O74 1.260 . S
O71 In65 2.266 . S
O71 C68 1.252 . S
O72 In65 2.326 . S
O72 C68 1.260 . S
O73 In65 2.266 1_565 S
O73 C70 1.252 1_565 S
O74 In65 2.326 . S
O74 C70 1.260 . S
C75 O66 1.240 . S
C75 O67 1.252 . S
O76 In65 2.294 1_565 S
O76 C69 1.240 1_565 S
O77 In65 2.326 . S
O77 C69 1.252 . S
In78 O79 2.294 . S
In78 O80 2.326 . S
In78 O84 2.266 . S
In78 O85 2.326 . S
In78 O86 2.266 1_655 S
In78 O87 2.326 . S
In78 O89 2.294 1_655 S
In78 O90 2.326 . S
O79 In78 2.294 . S
O79 C88 1.240 . S
O80 In78 2.326 . S
O80 C88 1.252 . S
C81 O84 1.252 . S
C81 O85 1.260 . S
C82 O89 1.240 1_655 S
C82 O90 1.252 . S
C83 O86 1.252 1_655 S
C83 O87 1.260 . S
O84 In78 2.266 . S
O84 C81 1.252 . S
O85 In78 2.326 . S
O85 C81 1.260 . S
O86 In78 2.266 1_455 S
O86 C83 1.252 1_455 S
O87 In78 2.326 . S
O87 C83 1.260 . S
C88 O79 1.240 . S
C88 O80 1.252 . S
O89 In78 2.294 1_455 S
O89 C82 1.240 1_455 S
O90 In78 2.326 . S
O90 C82 1.252 . S
In91 O92 2.294 . S
In91 O93 2.326 . S
In91 O97 2.266 . S
In91 O98 2.326 . S
In91 O99 2.266 1_565 S
In91 O100 2.326 . S
In91 O102 2.294 1_565 S
In91 O103 2.326 . S
O92 In91 2.294 . S
O92 C101 1.240 . S
O93 In91 2.326 . S
O93 C101 1.252 . S
C94 O97 1.252 . S
C94 O98 1.260 . S
C95 O102 1.240 1_565 S
C95 O103 1.252 . S
C96 O99 1.252 1_565 S
C96 O100 1.260 . S
O97 In91 2.266 . S
O97 C94 1.252 . S
O98 In91 2.326 . S
O98 C94 1.260 . S
O99 In91 2.266 1_545 S
O99 C96 1.252 1_545 S
O100 In91 2.326 . S
O100 C96 1.260 . S
C101 O92 1.240 . S
C101 O93 1.252 . S
O102 In91 2.294 1_545 S
O102 C95 1.240 1_545 S
O103 In91 2.326 . S
O103 C95 1.252 . S
C104 C105 1.363 1_655 S
C104 C110 1.379 . S
C104 N112 1.356 . S
C105 C104 1.363 1_455 S
C105 C111 1.363 . S
C106 C107 1.363 1_455 S
C106 C111 1.379 . S
C106 N113 1.356 . S
C107 C106 1.363 1_655 S
C107 C110 1.363 . S
N108 C110 1.356 . S
N108 H120 0.984 . S
N108 H121 0.985 . S
N109 C111 1.356 . S
N109 H114 0.984 . S
N109 H115 0.985 . S
C110 C104 1.379 . S
C110 C107 1.363 . S
C110 N108 1.356 . S
C111 C105 1.363 . S
C111 C106 1.379 . S
C111 N109 1.356 . S
N112 C104 1.356 . S
N112 H118 0.984 . S
N112 H119 0.984 . S
N113 C106 1.356 . S
N113 H116 0.984 . S
N113 H117 0.985 . S
H114 N109 0.984 . S
H115 N109 0.985 . S
H116 N113 0.984 . S
H117 N113 0.985 . S
H118 N112 0.984 . S
H119 N112 0.984 . S
H120 N108 0.984 . S
H121 N108 0.985 . S
C122 C123 1.363 1_545 S
C122 C128 1.379 . S
C122 N130 1.356 . S
C123 C122 1.363 1_565 S
C123 C129 1.363 . S
C124 C125 1.363 1_565 S
C124 C129 1.379 . S
C124 N131 1.356 . S
C125 C124 1.363 1_545 S
C125 C128 1.363 . S
N126 C128 1.356 . S
N126 H138 0.984 . S
N126 H139 0.985 . S
N127 C129 1.356 . S
N127 H132 0.984 . S
N127 H133 0.985 . S
C128 C122 1.379 . S
C128 C125 1.363 . S
C128 N126 1.356 . S
C129 C123 1.363 . S
C129 C124 1.379 . S
C129 N127 1.356 . S
N130 C122 1.356 . S
N130 H136 0.984 . S
N130 H137 0.984 . S
N131 C124 1.356 . S
N131 H134 0.984 . S
N131 H135 0.985 . S
H132 N127 0.984 . S
H133 N127 0.985 . S
H134 N131 0.984 . S
H135 N131 0.985 . S
H136 N130 0.984 . S
H137 N130 0.984 . S
H138 N126 0.984 . S
H139 N126 0.985 . S
C140 C141 1.363 . S
C140 C146 1.379 . S
C140 N148 1.356 . S
C141 C140 1.363 . S
C141 C147 1.363 1_655 S
C142 C143 1.363 . S
C142 C147 1.379 . S
C142 N149 1.356 . S
C143 C142 1.363 . S
C143 C146 1.363 1_455 S
N144 C146 1.356 . S
N144 H156 0.984 . S
N144 H157 0.985 . S
N145 C147 1.356 . S
N145 H150 0.984 . S
N145 H151 0.985 . S
C146 C140 1.379 . S
C146 C143 1.363 1_655 S
C146 N144 1.356 . S
C147 C141 1.363 1_455 S
C147 C142 1.379 . S
C147 N145 1.356 . S
N148 C140 1.356 . S
N148 H154 0.984 . S
N148 H155 0.984 . S
N149 C142 1.356 . S
N149 H152 0.984 . S
N149 H153 0.985 . S
H150 N145 0.984 . S
H151 N145 0.985 . S
H152 N149 0.984 . S
H153 N149 0.985 . S
H154 N148 0.984 . S
H155 N148 0.984 . S
H156 N144 0.984 . S
H157 N144 0.985 . S
C158 C159 1.363 1_565 S
C158 C164 1.379 . S
C158 N166 1.356 . S
C159 C158 1.363 1_545 S
C159 C165 1.363 . S
C160 C161 1.363 1_545 S
C160 C165 1.379 . S
C160 N167 1.356 . S
C161 C160 1.363 1_565 S
C161 C164 1.363 . S
N162 C164 1.356 . S
N162 H174 0.984 . S
N162 H175 0.985 . S
N163 C165 1.356 . S
N163 H168 0.984 . S
N163 H169 0.985 . S
C164 C158 1.379 . S
C164 C161 1.363 . S
C164 N162 1.356 . S
C165 C159 1.363 . S
C165 C160 1.379 . S
C165 N163 1.356 . S
N166 C158 1.356 . S
N166 H172 0.984 . S
N166 H173 0.984 . S
N167 C160 1.356 . S
N167 H170 0.984 . S
N167 H171 0.985 . S
H168 N163 0.984 . S
H169 N163 0.985 . S
H170 N167 0.984 . S
H171 N167 0.985 . S
H172 N166 0.984 . S
H173 N166 0.984 . S
H174 N162 0.984 . S
H175 N162 0.985 . S
C176 C177 1.363 1_455 S
C176 C182 1.379 1_556 S
C176 N184 1.356 1_455 S
C177 C176 1.363 1_655 S
C177 C183 1.363 . S
C178 C179 1.363 1_655 S
C178 C183 1.379 1_554 S
C178 N185 1.356 1_655 S
C179 C178 1.363 1_455 S
C179 C182 1.363 . S
N180 C182 1.356 . S
N180 H192 0.984 1_554 S
N180 H193 0.985 . S
N181 C183 1.356 . S
N181 H186 0.984 . S
N181 H187 0.985 1_556 S
C182 C176 1.379 1_554 S
C182 C179 1.363 . S
C182 N180 1.356 . S
C183 C177 1.363 . S
C183 C178 1.379 1_556 S
C183 N181 1.356 . S
N184 C176 1.356 1_655 S
N184 H190 0.984 1_655 S
N184 H191 0.984 . S
N185 C178 1.356 1_455 S
N185 H188 0.984 . S
N185 H189 0.985 1_455 S
H186 N181 0.984 . S
H187 N181 0.985 1_554 S
H188 N185 0.984 . S
H189 N185 0.985 1_655 S
H190 N184 0.984 1_455 S
H191 N184 0.984 . S
H192 N180 0.984 1_556 S
H193 N180 0.985 . S
C194 C195 1.363 1_565 S
C194 C200 1.379 . S
C194 N202 1.356 . S
C195 C194 1.363 1_545 S
C195 C201 1.363 . S
C196 C197 1.363 1_545 S
C196 C201 1.379 . S
C196 N203 1.356 . S
C197 C196 1.363 1_565 S
C197 C200 1.363 . S
N198 C200 1.356 . S
N198 H210 0.984 . S
N198 H211 0.985 . S
N199 C201 1.356 . S
N199 H204 0.984 . S
N199 H205 0.985 . S
C200 C194 1.379 . S
C200 C197 1.363 . S
C200 N198 1.356 . S
C201 C195 1.363 . S
C201 C196 1.379 . S
C201 N199 1.356 . S
N202 C194 1.356 . S
N202 H208 0.984 . S
N202 H209 0.984 1_565 S
N203 C196 1.356 . S
N203 H206 0.984 1_545 S
N203 H207 0.985 . S
H204 N199 0.984 . S
H205 N199 0.985 . S
H206 N203 0.984 1_565 S
H207 N203 0.985 . S
H208 N202 0.984 . S
H209 N202 0.984 1_545 S
H210 N198 0.984 . S
H211 N198 0.985 . S
C212 C213 1.363 1_455 S
C212 C218 1.379 1_554 S
C212 N220 1.356 1_455 S
C213 C212 1.363 1_655 S
C213 C219 1.363 . S
C214 C215 1.363 1_655 S
C214 C219 1.379 1_556 S
C214 N221 1.356 1_655 S
C215 C214 1.363 1_455 S
C215 C218 1.363 . S
N216 C218 1.356 . S
N216 H228 0.984 1_556 S
N216 H229 0.985 . S
N217 C219 1.356 . S
N217 H222 0.984 . S
N217 H223 0.985 1_554 S
C218 C212 1.379 1_556 S
C218 C215 1.363 . S
C218 N216 1.356 . S
C219 C213 1.363 . S
C219 C214 1.379 1_554 S
C219 N217 1.356 . S
N220 C212 1.356 1_655 S
N220 H226 0.984 1_655 S
N220 H227 0.984 . S
N221 C214 1.356 1_455 S
N221 H224 0.984 . S
N221 H225 0.985 1_455 S
H222 N217 0.984 . S
H223 N217 0.985 1_556 S
H224 N221 0.984 . S
H225 N221 0.985 1_655 S
H226 N220 0.984 1_455 S
H227 N220 0.984 . S
H228 N216 0.984 1_554 S
H229 N216 0.985 . S
C230 C231 1.363 . S
C230 C236 1.379 . S
C230 N238 1.356 . S
C231 C230 1.363 . S
C231 C237 1.363 1_545 S
C232 C233 1.363 . S
C232 C237 1.379 . S
C232 N239 1.356 . S
C233 C232 1.363 . S
C233 C236 1.363 1_565 S
N234 C236 1.356 . S
N234 H246 0.984 . S
N234 H247 0.985 1_545 S
N235 C237 1.356 . S
N235 H240 0.984 1_565 S
N235 H241 0.985 . S
C236 C230 1.379 . S
C236 C233 1.363 1_545 S
C236 N234 1.356 . S
C237 C231 1.363 1_565 S
C237 C232 1.379 . S
C237 N235 1.356 . S
N238 C230 1.356 . S
N238 H244 0.984 . S
N238 H245 0.984 . S
N239 C232 1.356 . S
N239 H242 0.984 . S
N239 H243 0.985 . S
H240 N235 0.984 1_545 S
H241 N235 0.985 . S
H242 N239 0.984 . S
H243 N239 0.985 . S
H244 N238 0.984 . S
H245 N238 0.984 . S
H246 N234 0.984 . S
H247 N234 0.985 1_565 S
C248 C249 1.363 . S
C248 C254 1.379 . S
C248 N256 1.356 . S
C249 C248 1.363 . S
C249 C255 1.363 . S
C250 C251 1.363 . S
C250 C255 1.379 . S
C250 N257 1.356 . S
C251 C250 1.363 . S
C251 C254 1.363 . S
N252 C254 1.356 . S
N252 H264 0.984 . S
N252 H265 0.985 . S
N253 C255 1.356 . S
N253 H258 0.984 . S
N253 H259 0.985 . S
C254 C248 1.379 . S
C254 C251 1.363 . S
C254 N252 1.356 . S
C255 C249 1.363 . S
C255 C250 1.379 . S
C255 N253 1.356 . S
N256 C248 1.356 . S
N256 H262 0.984 . S
N256 H263 0.984 . S
N257 C250 1.356 . S
N257 H260 0.984 . S
N257 H261 0.985 . S
H258 N253 0.984 . S
H259 N253 0.985 . S
H260 N257 0.984 . S
H261 N257 0.985 . S
H262 N256 0.984 . S
H263 N256 0.984 . S
H264 N252 0.984 . S
H265 N252 0.985 . S
C266 C267 1.363 . S
C266 C272 1.379 . S
C266 N274 1.356 . S
C267 C266 1.363 . S
C267 C273 1.363 . S
C268 C269 1.363 . S
C268 C273 1.379 . S
C268 N275 1.356 . S
C269 C268 1.363 . S
C269 C272 1.363 . S
N270 C272 1.356 . S
N270 H282 0.984 . S
N270 H283 0.985 . S
N271 C273 1.356 . S
N271 H276 0.984 . S
N271 H277 0.985 . S
C272 C266 1.379 . S
C272 C269 1.363 . S
C272 N270 1.356 . S
C273 C267 1.363 . S
C273 C268 1.379 . S
C273 N271 1.356 . S
N274 C266 1.356 . S
N274 H280 0.984 . S
N274 H281 0.984 . S
N275 C268 1.356 . S
N275 H278 0.984 . S
N275 H279 0.985 . S
H276 N271 0.984 . S
H277 N271 0.985 . S
H278 N275 0.984 . S
H279 N275 0.985 . S
H280 N274 0.984 . S
H281 N274 0.984 . S
H282 N270 0.984 . S
H283 N270 0.985 . S
C284 C285 1.363 . S
C284 C290 1.379 . S
C284 N292 1.356 . S
C285 C284 1.363 . S
C285 C291 1.363 . S
C286 C287 1.363 . S
C286 C291 1.379 . S
C286 N293 1.356 . S
C287 C286 1.363 . S
C287 C290 1.363 . S
N288 C290 1.356 . S
N288 H300 0.984 . S
N288 H301 0.985 . S
N289 C291 1.356 . S
N289 H294 0.984 . S
N289 H295 0.985 . S
C290 C284 1.379 . S
C290 C287 1.363 . S
C290 N288 1.356 . S
C291 C285 1.363 . S
C291 C286 1.379 . S
C291 N289 1.356 . S
N292 C284 1.356 . S
N292 H298 0.984 . S
N292 H299 0.984 . S
N293 C286 1.356 . S
N293 H296 0.984 . S
N293 H297 0.985 . S
H294 N289 0.984 . S
H295 N289 0.985 . S
H296 N293 0.984 . S
H297 N293 0.985 . S
H298 N292 0.984 . S
H299 N292 0.984 . S
H300 N288 0.984 . S
H301 N288 0.985 . S
C302 C303 1.363 . S
C302 C308 1.379 . S
C302 N310 1.356 . S
C303 C302 1.363 . S
C303 C309 1.363 . S
C304 C305 1.363 . S
C304 C309 1.379 . S
C304 N311 1.356 . S
C305 C304 1.363 . S
C305 C308 1.363 . S
N306 C308 1.356 . S
N306 H318 0.984 . S
N306 H319 0.985 . S
N307 C309 1.356 . S
N307 H312 0.984 . S
N307 H313 0.985 . S
C308 C302 1.379 . S
C308 C305 1.363 . S
C308 N306 1.356 . S
C309 C303 1.363 . S
C309 C304 1.379 . S
C309 N307 1.356 . S
N310 C302 1.356 . S
N310 H316 0.984 . S
N310 H317 0.984 . S
N311 C304 1.356 . S
N311 H314 0.984 . S
N311 H315 0.985 . S
H312 N307 0.984 . S
H313 N307 0.985 . S
H314 N311 0.984 . S
H315 N311 0.985 . S
H316 N310 0.984 . S
H317 N310 0.984 . S
H318 N306 0.984 . S
H319 N306 0.985 . S
C320 C321 1.363 1_655 S
C320 C326 1.379 1_545 S
C320 N328 1.356 . S
C321 C320 1.363 1_455 S
C321 C327 1.363 . S
C322 C323 1.363 1_455 S
C322 C327 1.379 1_565 S
C322 N329 1.356 . S
C323 C322 1.363 1_655 S
C323 C326 1.363 . S
N324 C326 1.356 . S
N324 H336 0.984 . S
N324 H337 0.985 . S
N325 C327 1.356 . S
N325 H330 0.984 . S
N325 H331 0.985 . S
C326 C320 1.379 1_565 S
C326 C323 1.363 . S
C326 N324 1.356 . S
C327 C321 1.363 . S
C327 C322 1.379 1_545 S
C327 N325 1.356 . S
N328 C320 1.356 . S
N328 H334 0.984 . S
N328 H335 0.984 . S
N329 C322 1.356 . S
N329 H332 0.984 . S
N329 H333 0.985 . S
H330 N325 0.984 . S
H331 N325 0.985 . S
H332 N329 0.984 . S
H333 N329 0.985 . S
H334 N328 0.984 . S
H335 N328 0.984 . S
H336 N324 0.984 . S
H337 N324 0.985 . S
C338 C339 1.363 1_545 S
C338 C344 1.379 1_455 S
C338 N346 1.356 . S
C339 C338 1.363 1_565 S
C339 C345 1.363 . S
C340 C341 1.363 1_565 S
C340 C345 1.379 1_655 S
C340 N347 1.356 . S
C341 C340 1.363 1_545 S
C341 C344 1.363 . S
N342 C344 1.356 . S
N342 H354 0.984 . S
N342 H355 0.985 . S
N343 C345 1.356 . S
N343 H348 0.984 . S
N343 H349 0.985 . S
C344 C338 1.379 1_655 S
C344 C341 1.363 . S
C344 N342 1.356 . S
C345 C339 1.363 . S
C345 C340 1.379 1_455 S
C345 N343 1.356 . S
N346 C338 1.356 . S
N346 H352 0.984 . S
N346 H353 0.984 . S
N347 C340 1.356 . S
N347 H350 0.984 . S
N347 H351 0.985 . S
H348 N343 0.984 . S
H349 N343 0.985 . S
H350 N347 0.984 . S
H351 N347 0.985 . S
H352 N346 0.984 . S
H353 N346 0.984 . S
H354 N342 0.984 . S
H355 N342 0.985 . S
C356 C357 1.363 1_455 S
C356 C362 1.379 1_545 S
C356 N364 1.356 . S
C357 C356 1.363 1_655 S
C357 C363 1.363 . S
C358 C359 1.363 1_655 S
C358 C363 1.379 1_565 S
C358 N365 1.356 . S
C359 C358 1.363 1_455 S
C359 C362 1.363 . S
N360 C362 1.356 . S
N360 H372 0.984 . S
N360 H373 0.985 . S
N361 C363 1.356 . S
N361 H366 0.984 . S
N361 H367 0.985 . S
C362 C356 1.379 1_565 S
C362 C359 1.363 . S
C362 N360 1.356 . S
C363 C357 1.363 . S
C363 C358 1.379 1_545 S
C363 N361 1.356 . S
N364 C356 1.356 . S
N364 H370 0.984 . S
N364 H371 0.984 . S
N365 C358 1.356 . S
N365 H368 0.984 . S
N365 H369 0.985 . S
H366 N361 0.984 . S
H367 N361 0.985 . S
H368 N365 0.984 . S
H369 N365 0.985 . S
H370 N364 0.984 . S
H371 N364 0.984 . S
H372 N360 0.984 . S
H373 N360 0.985 . S
C374 C375 1.363 1_545 S
C374 C380 1.379 1_655 S
C374 N382 1.356 . S
C375 C374 1.363 1_565 S
C375 C381 1.363 . S
C376 C377 1.363 1_565 S
C376 C381 1.379 1_455 S
C376 N383 1.356 . S
C377 C376 1.363 1_545 S
C377 C380 1.363 . S
N378 C380 1.356 . S
N378 H390 0.984 . S
N378 H391 0.985 . S
N379 C381 1.356 . S
N379 H384 0.984 . S
N379 H385 0.985 . S
C380 C374 1.379 1_455 S
C380 C377 1.363 . S
C380 N378 1.356 . S
C381 C375 1.363 . S
C381 C376 1.379 1_655 S
C381 N379 1.356 . S
N382 C374 1.356 . S
N382 H388 0.984 . S
N382 H389 0.984 . S
N383 C376 1.356 . S
N383 H386 0.984 . S
N383 H387 0.985 . S
H384 N379 0.984 . S
H385 N379 0.985 . S
H386 N383 0.984 . S
H387 N383 0.985 . S
H388 N382 0.984 . S
H389 N382 0.984 . S
H390 N378 0.984 . S
H391 N378 0.985 . S
C105 C4 1.385 . S
C107 C30 1.385 . S
C123 C49 1.385 . S
C125 C17 1.385 . S
C141 C82 1.385 . S
C143 C56 1.385 . S
C159 C69 1.385 . S
C161 C95 1.385 . S
C177 C88 1.675 . S
C179 C10 1.675 . S
C195 C23 1.675 . S
C197 C101 1.675 . S
C213 C36 1.675 . S
C215 C62 1.675 . S
C231 C75 1.675 . S
C233 C43 1.675 . S
C249 C3 1.472 . S
C251 C68 1.472 . S
C267 C81 1.472 . S
C269 C16 1.472 . S
C285 C94 1.472 . S
C287 C29 1.472 . S
C303 C44 1.472 . S
C305 C55 1.472 . S
C321 C5 1.279 . S
C323 C31 1.279 . S
C339 C42 1.279 . S
C341 C18 1.279 . S
C357 C83 1.279 . S
C359 C57 1.279 . S
C375 C96 1.279 . S
C377 C70 1.279 . S
