# Generated by pormake.
# Topology qtz-e, (6)-cn, num edge types: 1
# Building blocks:
#     Node 0, Type 0, BuildingBlock: KUMJIN_clean_sbu_1, # of connection points: 6
#     Node 1, Type 0, BuildingBlock: KUMJIN_clean_sbu_1, # of connection points: 6
#     Node 2, Type 0, BuildingBlock: KUMJIN_clean_sbu_1, # of connection points: 6
#     Node 3, Type 0, BuildingBlock: KUMJIN_clean_sbu_1, # of connection points: 6
#     Node 4, Type 0, BuildingBlock: KUMJIN_clean_sbu_1, # of connection points: 6
#     Node 5, Type 0, BuildingBlock: KUMJIN_clean_sbu_1, # of connection points: 6
#     Edge 6, Type (0, 0), BuildingBlock: CIFDUS_clean_linker_0, # of connection points: 2
#     Edge 7, Type (0, 0), BuildingBlock: CIFDUS_clean_linker_0, # of connection points: 2
#     Edge 8, Type (0, 0), BuildingBlock: CIFDUS_clean_linker_0, # of connection points: 2
#     Edge 9, Type (0, 0), BuildingBlock: CIFDUS_clean_linker_0, # of connection points: 2
#     Edge 10, Type (0, 0), BuildingBlock: CIFDUS_clean_linker_0, # of connection points: 2
#     Edge 11, Type (0, 0), BuildingBlock: CIFDUS_clean_linker_0, # of connection points: 2
#     Edge 12, Type (0, 0), BuildingBlock: CIFDUS_clean_linker_0, # of connection points: 2
#     Edge 13, Type (0, 0), BuildingBlock: CIFDUS_clean_linker_0, # of connection points: 2
#     Edge 14, Type (0, 0), BuildingBlock: CIFDUS_clean_linker_0, # of connection points: 2
#     Edge 15, Type (0, 0), BuildingBlock: CIFDUS_clean_linker_0, # of connection points: 2
#     Edge 16, Type (0, 0), BuildingBlock: CIFDUS_clean_linker_0, # of connection points: 2
#     Edge 17, Type (0, 0), BuildingBlock: CIFDUS_clean_linker_0, # of connection points: 2
#     Edge 18, Type (0, 0), BuildingBlock: CIFDUS_clean_linker_0, # of connection points: 2
#     Edge 19, Type (0, 0), BuildingBlock: CIFDUS_clean_linker_0, # of connection points: 2
#     Edge 20, Type (0, 0), BuildingBlock: CIFDUS_clean_linker_0, # of connection points: 2
#     Edge 21, Type (0, 0), BuildingBlock: CIFDUS_clean_linker_0, # of connection points: 2
#     Edge 22, Type (0, 0), BuildingBlock: CIFDUS_clean_linker_0, # of connection points: 2
#     Edge 23, Type (0, 0), BuildingBlock: CIFDUS_clean_linker_0, # of connection points: 2
# Relax obj value: 0.151
# Max RMSD: 0.214
# Mean RMSD: 0.214
data_MOF--net-qtz-e--node1-KUMJIN_clean_sbu_1--edge1-CIFDUS_clean_linker_0
_symmetry_space_group_name_H-M    P1
_symmetry_Int_Tables_number       1
_symmetry_cell_setting            triclinic
loop_
_symmetry_equiv_pos_as_xyz
'x, y, z'
_cell_length_a     24.79931
_cell_length_b     24.819337
_cell_length_c     44.62042
_cell_angle_alpha  89.739544
_cell_angle_beta   90.082955
_cell_angle_gamma 120.00062
loop_
_atom_site_label
_atom_site_type_symbol
_atom_site_fract_x
_atom_site_fract_y
_atom_site_fract_z
_atom_type_partial_charge
Eu0 Eu 0.18432 0.34839 0.97601 0.0
C1 C 0.38455 0.55108 0.08302 0.0
N2 N 0.33174 0.49469 0.08184 0.0
C3 C 0.37111 0.45486 0.11978 0.0
C4 C 0.4336 0.5611 0.10246 0.0
C5 C 0.32401 0.44692 0.09996 0.0
C6 C 0.42627 0.51211 0.12095 0.0
C7 C 0.44102 0.65994 0.06833 0.0
C8 C 0.38822 0.59996 0.06606 0.0
C9 C 0.49143 0.66912 0.08632 0.0
C10 C 0.48766 0.61987 0.10339 0.0
Eu11 Eu 0.25402 0.48638 0.0488 0.0
N12 N 0.33819 0.59017 0.0494 0.0
C13 C 0.44036 0.70958 0.05366 0.0
C14 C 0.33502 0.63948 0.03755 0.0
C15 C 0.38662 0.6995 0.03871 0.0
H16 H 0.28216 0.40212 0.09847 0.0
H17 H 0.38466 0.73803 0.02839 0.0
H18 H 0.03542 0.30092 0.96423 0.0
H19 H 0.29542 0.21444 0.01175 0.0
H20 H 0.29286 0.632 0.02659 0.0
H21 H 0.48001 0.75629 0.05486 0.0
H22 H 0.29309 0.30541 0.99249 0.0
H23 H 0.36506 0.4167 0.13394 0.0
H24 H 0.53263 0.7147 0.08802 0.0
H25 H 0.52618 0.62813 0.11785 0.0
H26 H 0.93278 0.20493 0.96939 0.0
H27 H 0.46279 0.51811 0.13627 0.0
H28 H 0.19729 0.11635 0.02137 0.0
N29 N 0.08594 0.25842 0.98015 0.0
C30 C 0.08397 0.20583 0.9902 0.0
C31 C 0.97491 0.20457 0.97537 0.0
C32 C 0.02665 0.15009 0.99353 0.0
C33 C 0.03285 0.25873 0.97252 0.0
C34 C 0.97176 0.15 0.98599 0.0
N35 N 0.19392 0.26272 0.99359 0.0
C36 C 0.24948 0.2646 -0.00223 0.0
C37 C 0.13893 0.15397 0.00764 0.0
C38 C 0.13948 0.20814 -0.00264 0.0
C39 C 0.19572 0.1569 0.01349 0.0
C40 C 0.25118 0.21226 0.0082 0.0
H41 H 0.92681 0.1081 0.98822 0.0
H42 H 0.98239 0.05317 0.00697 0.0
H43 H 0.08072 0.05644 0.01919 0.0
O44 O 0.22953 0.33839 0.93604 0.0
O45 O 0.12692 0.32114 0.01875 0.0
O46 O 0.2111 0.381 0.04763 0.0
O47 O 0.15028 0.35093 0.93092 0.0
O48 O 0.28804 0.39652 0.98855 0.0
O49 O 0.29501 0.42256 0.03898 0.0
O50 O 0.16865 0.45339 0.07508 0.0
O51 O 0.2931 0.53795 0.00514 0.0
O52 O 0.23631 0.44358 0.99186 0.0
O53 O 0.24995 0.54038 0.08613 0.0
O54 O 0.17445 0.48089 0.01973 0.0
O55 O 0.13465 0.4065 0.98004 0.0
C56 C 0.15073 0.34265 0.04525 0.0
C57 C 0.16229 0.28522 0.89597 0.0
C58 C 0.17599 0.2303 0.85377 0.0
C59 C 0.11527 0.18069 0.85848 0.0
C60 C 0.10159 0.23502 0.9 0.0
C61 C 0.07829 0.18332 0.88129 0.0
C62 C 0.19928 0.28296 0.87247 0.0
C63 C 0.32106 0.41945 0.01352 0.0
C64 C 0.18872 0.33753 0.91747 0.0
C65 C 0.02595 0.09645 0.00422 0.0
C66 C 0.08195 0.09837 0.01124 0.0
C67 C 0.27599 0.49965 0.98312 0.0
C68 C 0.1863 0.48371 0.12584 0.0
C69 C 0.18055 0.51549 0.17651 0.0
C70 C 0.18993 0.46756 0.18766 0.0
C71 C 0.1966 0.43706 0.13726 0.0
C72 C 0.17727 0.52213 0.14545 0.0
C73 C 0.19735 0.42827 0.16805 0.0
C74 C 0.13487 0.4509 -0.00267 0.0
C75 C 0.19388 0.4991 0.09397 0.0
H76 H 0.0964 0.1398 0.84438 0.0
H77 H 0.07228 0.23524 0.91783 0.0
H78 H 0.03155 0.14479 0.88469 0.0
H79 H 0.24645 0.32104 0.86933 0.0
H80 H 0.19411 0.46187 0.21147 0.0
H81 H 0.20607 0.40895 0.12242 0.0
H82 H 0.17013 0.55872 0.1364 0.0
H83 H 0.20607 0.39255 0.17673 0.0
Eu84 Eu 0.84108 0.20154 0.32067 0.0
C85 C 0.61841 0.26382 0.3798 0.0
N86 N 0.68158 0.29618 0.38072 0.0
C87 C 0.68156 0.39228 0.37524 0.0
C88 C 0.58419 0.29453 0.3753 0.0
C89 C 0.71345 0.35973 0.37977 0.0
C90 C 0.6167 0.3595 0.37259 0.0
C91 C 0.52229 0.16532 0.38525 0.0
C92 C 0.58792 0.20016 0.38487 0.0
C93 C 0.48794 0.1952 0.37935 0.0
C94 C 0.51882 0.25969 0.37447 0.0
Eu95 Eu 0.73138 0.23721 0.38789 0.0
N96 N 0.62237 0.17289 0.39106 0.0
C97 C 0.49323 0.10188 0.39239 0.0
C98 C 0.5945 0.11187 0.39949 0.0
C99 C 0.52953 0.07524 0.39992 0.0
H100 H 0.76367 0.38487 0.38151 0.0
H101 H 0.5075 0.02652 0.406 0.0
H102 H 0.72865 0.05709 0.29721 0.0
H103 H 0.07379 0.27315 0.36153 0.0
H104 H 0.62247 0.09132 0.40567 0.0
H105 H 0.44293 0.07341 0.39278 0.0
H106 H 0.98789 0.28749 0.34231 0.0
H107 H 0.70698 0.44256 0.37376 0.0
H108 H 0.43749 0.16915 0.37927 0.0
H109 H 0.4917 0.28237 0.37074 0.0
H110 H 0.70463 0.94911 0.30191 0.0
H111 H 0.5921 0.38485 0.36915 0.0
H112 H 0.05732 0.16691 0.36843 0.0
N113 N 0.81337 0.09472 0.32217 0.0
C114 C 0.85713 0.08255 0.33363 0.0
C115 C 0.74723 0.98609 0.31144 0.0
C116 C 0.8462 0.02111 0.33566 0.0
C117 C 0.76051 0.04779 0.30953 0.0
C118 C 0.78972 0.97253 0.32505 0.0
N119 N 0.92429 0.1906 0.33881 0.0
C120 C 0.98075 0.24109 0.34525 0.0
C121 C 0.96203 0.12154 0.35259 0.0
C122 C 0.91463 0.13198 0.34168 0.0
C123 C 0.01973 0.17302 0.35997 0.0
C124 C 0.02922 0.23308 0.35611 0.0
H125 H 0.77956 0.92472 0.32618 0.0
H126 H 0.88483 0.96332 0.34915 0.0
H127 H 0.98613 0.0513 0.36419 0.0
O128 O 0.91642 0.25809 0.28876 0.0
O129 O 0.85981 0.19123 0.37007 0.0
O130 O 0.76341 0.16674 0.38452 0.0
O131 O 0.8276 0.18884 0.27214 0.0
O132 O 0.88655 0.30151 0.33942 0.0
O133 O 0.82935 0.31946 0.37733 0.0
O134 O 0.69755 0.22305 0.43406 0.0
O135 O 0.72609 0.28053 0.34377 0.0
O136 O 0.78338 0.2412 0.33371 0.0
O137 O 0.79562 0.28266 0.42502 0.0
O138 O 0.70594 0.1435 0.36616 0.0
O139 O 0.73319 0.14593 0.31664 0.0
C140 C 0.81899 0.17719 0.39179 0.0
C141 C 0.91608 0.20144 0.24608 0.0
C142 C 0.98132 0.20756 0.20328 0.0
C143 C 0.97378 0.14959 0.21186 0.0
C144 C 0.90996 0.14379 0.25389 0.0
C145 C 0.93835 0.11806 0.23687 0.0
C146 C 0.95166 0.23335 0.22042 0.0
C147 C 0.87911 0.33676 0.35987 0.0
C148 C 0.88552 0.22717 0.26529 0.0
C149 C 0.89267 0.01024 0.34723 0.0
C150 C 0.95045 0.06034 0.35568 0.0
C151 C 0.75738 0.27163 0.32323 0.0
C152 C 0.75058 0.31253 0.46361 0.0
C153 C 0.71205 0.33963 0.50793 0.0
C154 C 0.73758 0.4008 0.49715 0.0
C155 C 0.77691 0.37427 0.45337 0.0
C156 C 0.71897 0.29573 0.49113 0.0
C157 C 0.77037 0.41807 0.47011 0.0
C158 C 0.68977 0.12804 0.33785 0.0
C159 C 0.75127 0.26419 0.44487 0.0
H160 H 0.9955 0.12848 0.19909 0.0
H161 H 0.88298 0.11836 0.2732 0.0
H162 H 0.93306 0.0735 0.24319 0.0
H163 H 0.95726 0.27815 0.21425 0.0
H164 H 0.73275 0.43528 0.50983 0.0
H165 H 0.80179 0.38851 0.43228 0.0
H166 H 0.69821 0.24808 0.49906 0.0
H167 H 0.79035 0.4654 0.46198 0.0
Eu168 Eu 0.63784 0.84131 0.65615 0.0
C169 C 0.3794 0.78684 0.74213 0.0
N170 N 0.44203 0.81297 0.74537 0.0
C171 C 0.44582 0.89547 0.77455 0.0
C172 C 0.34761 0.8153 0.7545 0.0
C173 C 0.47536 0.86561 0.76185 0.0
C174 C 0.38177 0.87053 0.77063 0.0
C175 C 0.28136 0.7007 0.72474 0.0
C176 C 0.34673 0.73048 0.72713 0.0
C177 C 0.24978 0.72999 0.73613 0.0
C178 C 0.28283 0.78718 0.75091 0.0
Eu179 Eu 0.48729 0.75944 0.72309 0.0
N180 N 0.37841 0.70311 0.71639 0.0
C181 C 0.2495 0.64139 0.7119 0.0
C182 C 0.34735 0.64343 0.70597 0.0
C183 C 0.28257 0.61223 0.70292 0.0
H184 H 0.5248 0.88462 0.76511 0.0
H185 H 0.25817 0.56564 0.69383 0.0
H186 H 0.69811 0.74895 0.64883 0.0
H187 H 0.74518 0.08072 0.69838 0.0
H188 H 0.37309 0.62081 0.69934 0.0
H189 H 0.19926 0.61695 0.7097 0.0
H190 H 0.66101 0.98302 0.67866 0.0
H191 H 0.47239 0.93759 0.7874 0.0
H192 H 0.19961 0.70809 0.73425 0.0
H193 H 0.25766 0.80861 0.76008 0.0
H194 H 0.79927 0.75344 0.65571 0.0
H195 H 0.359 0.89371 0.78056 0.0
H196 H 0.8497 0.09374 0.70627 0.0
N197 N 0.73175 0.84151 0.66368 0.0
C198 C 0.78111 0.89517 0.67355 0.0
C199 C 0.79475 0.79355 0.6609 0.0
C200 C 0.83979 0.90003 0.6776 0.0
C201 C 0.7375 0.79097 0.65724 0.0
C202 C 0.84619 0.84836 0.67108 0.0
N203 N 0.71489 0.9382 0.67631 0.0
C204 C 0.70523 0.98655 0.68246 0.0
C205 C 0.82262 1.00088 0.69108 0.0
C206 C 0.7724 0.94485 0.68019 0.0
C207 C 0.8124 0.05001 0.69783 0.0
C208 C 0.75345 0.04277 0.69348 0.0
H209 H 0.89053 0.85027 0.67385 0.0
H210 H 0.93546 0.96068 0.69123 0.0
H211 H 0.92042 0.04897 0.7031 0.0
O212 O 0.64641 0.89437 0.61549 0.0
O213 O 0.66447 0.82657 0.70269 0.0
O214 O 0.58845 0.83713 0.72543 0.0
O215 O 0.65452 0.81218 0.61238 0.0
O216 O 0.57724 0.88715 0.66172 0.0
O217 O 0.54393 0.86367 0.71104 0.0
O218 O 0.52451 0.71319 0.75145 0.0
O219 O 0.44188 0.73766 0.67712 0.0
O220 O 0.5395 0.7867 0.66785 0.0
O221 O 0.44696 0.72227 0.76672 0.0
O222 O 0.51007 0.69135 0.69916 0.0
O223 O 0.59187 0.73438 0.6625 0.0
C224 C 0.63493 0.82589 0.72716 0.0
C225 C 0.71877 0.89822 0.58044 0.0
C226 C 0.77461 0.97518 0.54053 0.0
C227 C 0.83048 0.97953 0.55078 0.0
C228 C 0.7751 0.90273 0.58942 0.0
C229 C 0.8304 0.94306 0.57467 0.0
C230 C 0.7186 0.93373 0.55569 0.0
C231 C 0.54472 0.88955 0.68483 0.0
C232 C 0.66144 0.86158 0.59844 0.0
C233 C 0.88994 0.95593 0.68812 0.0
C234 C 0.88135 0.0062 0.69488 0.0
C235 C 0.48387 0.76059 0.65646 0.0
C236 C 0.51372 0.72327 0.80343 0.0
C237 C 0.51044 0.69487 0.85587 0.0
C238 C 0.54931 0.75821 0.86287 0.0
C239 C 0.54934 0.78621 0.81096 0.0
C240 C 0.49518 0.67774 0.82575 0.0
C241 C 0.56876 0.80349 0.84044 0.0
C242 C 0.54852 0.68789 0.67934 0.0
C243 C 0.48686 0.70491 0.77355 0.0
H244 H 0.87488 0.01198 0.54083 0.0
H245 H 0.77682 0.87603 0.60817 0.0
H246 H 0.87374 0.94697 0.58219 0.0
H247 H 0.67472 0.92909 0.5486 0.0
H248 H 0.56143 0.77329 0.88585 0.0
H249 H 0.56017 0.82179 0.79422 0.0
H250 H 0.46552 0.62925 0.81985 0.0
H251 H 0.59641 0.85223 0.84617 0.0
Eu252 Eu 0.8234 0.64732 0.98644 0.0
C253 C 0.67159 0.36937 0.01416 0.0
N254 N 0.66363 0.41403 0.02741 0.0
C255 C 0.55352 0.3541 0.01916 0.0
C256 C 0.62091 0.31679 0.00112 0.0
C257 C 0.60533 0.40543 0.03175 0.0
C258 C 0.56153 0.31024 0.0032 0.0
C259 C 0.73926 0.32787 0.00296 0.0
C260 C 0.73004 0.37508 0.01506 0.0
C261 C 0.68987 0.2772 0.98828 0.0
C262 C 0.63078 0.27165 0.98737 0.0
Eu263 Eu 0.75409 0.50219 0.04574 0.0
N264 N 0.77645 0.42411 0.02988 0.0
C265 C 0.797 0.33165 0.00713 0.0
C266 C 0.83061 0.42472 0.03642 0.0
C267 C 0.84236 0.37954 0.02452 0.0
H268 H 0.5994 0.43924 0.04419 0.0
H269 H 0.88621 0.38145 0.02896 0.0
H270 H 0.96226 0.66276 0.96535 0.0
H271 H 0.77508 0.82025 0.03411 0.0
H272 H 0.86522 0.46023 0.05072 0.0
H273 H 0.80602 0.29642 -0.00185 0.0
H274 H 0.74957 0.71968 0.01101 0.0
H275 H 0.50759 0.34851 0.02171 0.0
H276 H 0.69633 0.24093 0.9785 0.0
H277 H 0.59263 0.2313 0.97685 0.0
H278 H 0.07367 0.73574 0.97322 0.0
H279 H 0.52137 0.27051 0.99346 0.0
H280 H 0.88493 0.89872 0.0445 0.0
N281 N 0.93227 0.71553 0.99076 0.0
C282 C 0.94999 0.77071 0.00456 0.0
C283 C 0.03936 0.7458 0.98248 0.0
C284 C 0.01352 0.81498 0.00856 0.0
C285 C 0.97587 0.70382 0.9786 0.0
C286 C 0.0583 0.80129 -0.00216 0.0
N287 N 0.84375 0.74088 0.00936 0.0
C288 C 0.79751 0.75363 0.01574 0.0
C289 C 0.92126 0.84208 0.02675 0.0
C290 C 0.90454 0.78422 0.01365 0.0
C291 C 0.87396 0.85472 0.03446 0.0
C292 C 0.81186 0.8105 0.02868 0.0
H293 H 0.10755 0.83401 0.00052 0.0
H294 H 0.07896 0.9064 0.02577 0.0
H295 H 0.99818 0.9302 0.04159 0.0
O296 O 0.7657 0.66018 0.95305 0.0
O297 O 0.83039 0.66635 0.03711 0.0
O298 O 0.84456 0.58927 0.05774 0.0
O299 O 0.86222 0.69229 0.94343 0.0
O300 O 0.72064 0.60521 -0.00129 0.0
O301 O 0.72103 0.57259 0.04677 0.0
O302 O 0.74957 0.44627 0.08467 0.0
O303 O 0.7059 0.49196 0.00122 0.0
O304 O 0.7896 0.54888 0.97114 0.0
O305 O 0.70595 0.5026 0.0865 0.0
O306 O 0.85684 0.54804 0.03333 0.0
O307 O 0.86478 0.58254 0.98431 0.0
C308 C 0.85451 0.64656 0.05781 0.0
C309 C 0.81749 0.74654 0.92013 0.0
C310 C 0.79462 0.79637 0.87813 0.0
C311 C 0.8347 0.85466 0.8912 0.0
C312 C 0.8564 0.80513 0.93271 0.0
C313 C 0.8647 0.85877 0.91833 0.0
C314 C 0.78608 0.74228 0.89314 0.0
C315 C 0.69276 0.5837 0.02474 0.0
C316 C 0.81122 0.6897 0.93414 0.0
C317 C 0.03039 0.872 0.02242 0.0
C318 C 0.9844 0.88559 0.0314 0.0
C319 C 0.73158 0.50533 0.97463 0.0
C320 C 0.75036 0.49095 0.13095 0.0
C321 C 0.76762 0.46921 0.18204 0.0
C322 C 0.8093 0.53278 0.1865 0.0
C323 C 0.791 0.55467 0.13581 0.0
C324 C 0.7382 0.44845 0.15426 0.0
C325 C 0.82043 0.57541 0.16349 0.0
C326 C 0.8834 0.5607 0.00668 0.0
C327 C 0.72204 0.46784 0.10152 0.0
H328 H 0.8442 0.89751 0.88024 0.0
H329 H 0.88112 0.80952 0.95338 0.0
H330 H 0.89541 0.90391 0.92801 0.0
H331 H 0.75521 0.69667 0.88393 0.0
H332 H 0.83225 0.54939 0.20791 0.0
H333 H 0.79986 0.58816 0.11822 0.0
H334 H 0.70652 0.39921 0.1507 0.0
H335 H 0.85173 0.62453 0.16715 0.0
Eu336 Eu 0.17418 0.82636 0.32953 0.0
C337 C 0.22378 0.60745 0.3702 0.0
N338 N 0.20735 0.63901 0.38953 0.0
C339 C 0.13709 0.54411 0.41483 0.0
C340 C 0.19538 0.54209 0.3719 0.0
C341 C 0.16631 0.60884 0.41223 0.0
C342 C 0.15111 0.51049 0.39437 0.0
C343 C 0.28612 0.60867 0.32797 0.0
C344 C 0.26935 0.64063 0.34865 0.0
C345 C 0.25724 0.54353 0.3294 0.0
C346 C 0.21213 0.51037 0.35132 0.0
Eu347 Eu 0.25745 0.74759 0.38294 0.0
N348 N 0.29558 0.70377 0.34727 0.0
C349 C 0.33083 0.64299 0.30614 0.0
C350 C 0.33951 0.73735 0.32605 0.0
C351 C 0.35767 0.70755 0.30523 0.0
H352 H 0.15598 0.63477 0.42834 0.0
H353 H 0.39211 0.73443 0.28832 0.0
H354 H 0.25846 0.88775 0.26754 0.0
H355 H 0.06928 0.92617 0.40226 0.0
H356 H 0.36013 0.78695 0.32447 0.0
H357 H 0.34474 0.6201 0.28979 0.0
H358 H 0.07858 0.84129 0.3784 0.0
H359 H 0.10375 0.5202 0.4326 0.0
H360 H 0.26945 0.5183 0.31362 0.0
H361 H 0.19051 0.46015 0.35219 0.0
H362 H 0.32013 0.99153 0.24347 0.0
H363 H 0.12819 0.46029 0.39637 0.0
H364 H 0.13982 0.03545 0.38698 0.0
N365 N 0.23226 0.9227 0.30472 0.0
C366 C 0.23163 0.97211 0.31719 0.0
C367 C 0.29591 0.98679 0.26433 0.0
C368 C 0.26617 0.032 0.30445 0.0
C369 C 0.26108 0.92834 0.27788 0.0
C370 C 0.29942 0.03907 0.27797 0.0
N371 N 0.15574 0.90258 0.35125 0.0
C372 C 0.10983 0.88904 0.37181 0.0
C373 C 0.18809 0.01151 0.35389 0.0
C374 C 0.19252 0.9618 0.34135 0.0
C375 C 0.14442 0.99852 0.37666 0.0
C376 C 0.1044 0.93688 0.38529 0.0
H377 H 0.32639 0.08429 0.26743 0.0
H378 H 0.29148 0.12881 0.30869 0.0
H379 H 0.22354 0.11095 0.3522 0.0
O380 O 0.08765 0.81729 0.31187 0.0
O381 O 0.17464 0.82907 0.38 0.0
O382 O 0.26773 0.84076 0.3957 0.0
O383 O 0.13645 0.78219 0.28608 0.0
O384 O 0.11256 0.73174 0.35244 0.0
O385 O 0.15902 0.72367 0.39641 0.0
O386 O 0.34722 0.76709 0.40031 0.0
O387 O 0.19801 0.6972 0.34337 0.0
O388 O 0.22373 0.77805 0.31139 0.0
O389 O 0.26872 0.73357 0.43066 0.0
O390 O 0.3246 0.83577 0.35822 0.0
O391 O 0.28062 0.88358 0.32938 0.0
C392 C 0.22674 0.85942 0.39497 0.0
C393 C 0.08302 0.82315 0.25887 0.0
C394 C 0.04599 0.81432 0.20698 0.0
C395 C 0.07052 0.8792 0.20648 0.0
C396 C 0.10588 0.88751 0.25772 0.0
C397 C 0.09991 0.91523 0.23165 0.0
C398 C 0.05294 0.78667 0.23346 0.0
C399 C 0.11108 0.70256 0.37776 0.0
C400 C 0.09101 0.79405 0.28631 0.0
C401 C 0.26449 0.08224 0.31786 0.0
C402 C 0.22573 0.07205 0.34262 0.0
C403 C 0.20069 0.71852 0.3163 0.0
C404 C 0.34761 0.70873 0.44183 0.0
C405 C 0.39853 0.68976 0.48412 0.0
C406 C 0.3947 0.6385 0.46885 0.0
C407 C 0.34502 0.65799 0.42678 0.0
C408 C 0.37459 0.72455 0.47035 0.0
C409 C 0.36808 0.62285 0.44034 0.0
C410 C 0.32857 0.88039 0.34045 0.0
C411 C 0.32691 0.74864 0.42743 0.0
H412 H 0.06777 0.90252 0.18646 0.0
H413 H 0.12845 0.9165 0.27695 0.0
H414 H 0.11833 0.96502 0.23092 0.0
H415 H 0.03441 0.73685 0.23455 0.0
H416 H 0.41173 0.61016 0.47903 0.0
H417 H 0.3264 0.64623 0.4044 0.0
H418 H 0.37824 0.765 0.48147 0.0
H419 H 0.36569 0.5836 0.42864 0.0
Eu420 Eu 0.34446 0.19133 0.63194 0.0
C421 C 0.54692 0.16489 0.72775 0.0
N422 N 0.4852 0.14556 0.7279 0.0
C423 C 0.46204 0.04358 0.74344 0.0
C424 C 0.5686 0.12334 0.7343 0.0
C425 C 0.44286 0.08648 0.7367 0.0
C426 C 0.5251 0.06172 0.74174 0.0
C427 C 0.65324 0.25009 0.72444 0.0
C428 C 0.58861 0.22728 0.72293 0.0
C429 C 0.67517 0.20837 0.72927 0.0
C430 C 0.63289 0.14507 0.73418 0.0
Eu431 Eu 0.45636 0.2209 0.71666 0.0
N432 N 0.56589 0.26634 0.71861 0.0
C433 C 0.69374 0.31439 0.72212 0.0
C434 C 0.60484 0.32937 0.71848 0.0
C435 C 0.66937 0.35427 0.7196 0.0
H436 H 0.39404 0.07231 0.73838 0.0
H437 H 0.70023 0.40413 0.71862 0.0
H438 H 0.28158 0.28116 0.62598 0.0
H439 H 0.22624 0.93494 0.63074 0.0
H440 H 0.58571 0.36001 0.71655 0.0
H441 H 0.74373 0.3338 0.7232 0.0
H442 H 0.31353 0.0401 0.62338 0.0
H443 H 0.42804 0.99652 0.74971 0.0
H444 H 0.72468 0.22487 0.73016 0.0
H445 H 0.65042 0.11367 0.73873 0.0
H446 H 0.17789 0.27272 0.6299 0.0
H447 H 0.5398 0.02828 0.74682 0.0
H448 H 0.12149 0.91811 0.64227 0.0
N449 N 0.24633 0.18462 0.63306 0.0
C450 C 0.19564 0.12777 0.63745 0.0
C451 C 0.18222 0.2316 0.6321 0.0
C452 C 0.13574 0.12068 0.64003 0.0
C453 C 0.24062 0.23623 0.62972 0.0
C454 C 0.12957 0.17362 0.63754 0.0
N455 N 0.26206 0.08536 0.63462 0.0
C456 C 0.26959 0.03494 0.63024 0.0
C457 C 0.15154 0.01637 0.64172 0.0
C458 C 0.20378 0.07661 0.63857 0.0
C459 C 0.16035 0.96509 0.63999 0.0
C460 C 0.21944 0.97443 0.63361 0.0
H461 H 0.08436 0.17012 0.63939 0.0
H462 H 0.03771 0.05473 0.64687 0.0
H463 H 0.05147 0.96322 0.64816 0.0
O464 O 0.36378 0.17103 0.58701 0.0
O465 O 0.30059 0.20533 0.67392 0.0
O466 O 0.35791 0.17577 0.69953 0.0
O467 O 0.35513 0.252 0.59372 0.0
O468 O 0.39253 0.13408 0.64109 0.0
O469 O 0.38877 0.12968 0.69252 0.0
O470 O 0.47452 0.28347 0.75495 0.0
O471 O 0.52292 0.2586 0.67681 0.0
O472 O 0.43434 0.22804 0.65558 0.0
O473 O 0.41516 0.1849 0.76034 0.0
O474 O 0.44992 0.3059 0.69882 0.0
O475 O 0.39524 0.29015 0.65206 0.0
C476 C 0.32043 0.19852 0.70003 0.0
C477 C 0.3252 0.20306 0.54584 0.0
C478 C 0.27782 0.13735 0.50188 0.0
C479 C 0.26881 0.18402 0.48913 0.0
C480 C 0.31534 0.24898 0.5327 0.0
C481 C 0.28697 0.23924 0.50463 0.0
C482 C 0.3056 0.14683 0.53032 0.0
C483 C 0.40058 0.11171 0.66667 0.0
C484 C 0.36087 0.21654 0.57418 0.0
C485 C 0.08407 0.06114 0.64457 0.0
C486 C 0.09195 0.00907 0.64541 0.0
C487 C 0.49432 0.25401 0.6518 0.0
C488 C 0.48894 0.23614 0.79834 0.0
C489 C 0.5705 0.28967 0.83553 0.0
C490 C 0.5739 0.23547 0.83988 0.0
C491 C 0.49175 0.18156 0.80391 0.0
C492 C 0.52796 0.29008 0.81478 0.0
C493 C 0.53431 0.18156 0.82428 0.0
C494 C 0.42824 0.32429 0.67561 0.0
C495 C 0.44893 0.23738 0.77395 0.0
H496 H 0.24755 0.17759 0.46724 0.0
H497 H 0.33055 0.29291 0.54389 0.0
H498 H 0.27984 0.27503 0.49466 0.0
H499 H 0.31364 0.11117 0.5398 0.0
H500 H 0.60621 0.23452 0.85597 0.0
H501 H 0.4616 0.13867 0.79234 0.0
H502 H 0.52591 0.33225 0.81121 0.0
H503 H 0.53645 0.13954 0.82803 0.0
H504 H 0.22824 0.743 0.25688 0.0
H505 H 0.13694 0.59295 0.32099 0.0
H506 H 0.11407 0.51714 0.28219 0.0
H507 H 0.12697 0.4928 0.23123 0.0
H508 H 0.23237 0.64155 0.16822 0.0
H509 H 0.24058 0.71783 0.20486 0.0
C510 C 0.20257 0.6937 0.26215 0.0
C511 C 0.18354 0.67383 0.29167 0.0
C512 C 0.19194 0.64982 0.23985 0.0
C513 C 0.1512 0.60978 0.29835 0.0
C514 C 0.13835 0.56608 0.2762 0.0
C515 C 0.15202 0.5419 0.2255 0.0
C516 C 0.1794 0.56127 0.19719 0.0
C517 C 0.15964 0.58562 0.24706 0.0
C518 C 0.21012 0.62506 0.18981 0.0
C519 C 0.21553 0.66891 0.21085 0.0
H520 H 0.5982 0.25156 0.63681 0.0
H521 H 0.46948 0.306 0.60371 0.0
H522 H 0.52489 0.33697 0.55569 0.0
H523 H 0.61112 0.34856 0.52334 0.0
H524 H 0.73681 0.2895 0.55642 0.0
H525 H 0.68131 0.25953 0.60436 0.0
C526 C 0.58132 0.26872 0.61882 0.0
C527 C 0.52743 0.27296 0.62293 0.0
C528 C 0.61346 0.28606 0.59149 0.0
C529 C 0.50817 0.29843 0.60011 0.0
C530 C 0.54067 0.31723 0.57296 0.0
C531 C 0.62616 0.32919 0.54115 0.0
C532 C 0.67791 0.32138 0.53665 0.0
C533 C 0.59323 0.31089 0.56835 0.0
C534 C 0.69693 0.2957 0.55957 0.0
C535 C 0.66536 0.27874 0.5869 0.0
H536 H 0.39858 0.56417 0.97807 0.0
H537 H 0.2302 0.47635 0.92582 0.0
H538 H 0.29086 0.52326 0.8799 0.0
H539 H 0.38955 0.60141 0.85697 0.0
H540 H 0.55833 0.68524 0.90967 0.0
H541 H 0.49936 0.62622 0.95355 0.0
C542 C 0.37546 0.55415 0.95645 0.0
C543 C 0.31048 0.5172 0.95491 0.0
C544 C 0.4105 0.58077 0.9306 0.0
C545 C 0.28042 0.50417 0.92714 0.0
C546 C 0.31505 0.53135 0.9011 0.0
C547 C 0.41406 0.60535 0.8777 0.0
C548 C 0.47821 0.64881 0.88018 0.0
C549 C 0.37991 0.57134 0.90279 0.0
C550 C 0.5088 0.65342 0.90739 0.0
C551 C 0.47518 0.61969 0.93244 0.0
H552 H 0.67405 0.28932 0.29315 0.0
H553 H 0.8597 0.31816 0.28705 0.0
H554 H 0.8789 0.38019 0.24165 0.0
H555 H 0.84537 0.43456 0.20631 0.0
H556 H 0.65888 0.40441 0.21198 0.0
H557 H 0.63703 0.33486 0.25508 0.0
C558 C 0.71825 0.30825 0.28146 0.0
C559 C 0.76544 0.2988 0.29315 0.0
C560 C 0.72884 0.34447 0.25564 0.0
C561 C 0.82243 0.32351 0.27805 0.0
C562 C 0.83361 0.35981 0.25232 0.0
C563 C 0.79995 0.41221 0.21698 0.0
C564 C 0.75386 0.42458 0.20657 0.0
C565 C 0.78764 0.37183 0.24135 0.0
C566 C 0.69484 0.39531 0.22001 0.0
C567 C 0.68245 0.35573 0.24452 0.0
H568 H 0.53723 0.73812 0.60863 0.0
H569 H 0.39141 0.77497 0.63416 0.0
H570 H 0.35325 0.75857 0.58266 0.0
H571 H 0.35688 0.72662 0.5315 0.0
H572 H 0.50295 0.69027 0.50501 0.0
H573 H 0.54584 0.71375 0.55577 0.0
C574 C 0.49868 0.74473 0.60255 0.0
C575 C 0.46786 0.75889 0.62475 0.0
C576 C 0.47642 0.73422 0.57294 0.0
C577 C 0.41592 0.76441 0.61717 0.0
C578 C 0.39401 0.75488 0.58782 0.0
C579 C 0.39876 0.72489 0.53661 0.0
C580 C 0.42645 0.70648 0.51451 0.0
C581 C 0.42321 0.73866 0.56566 0.0
C582 C 0.48006 0.70333 0.52176 0.0
C583 C 0.50488 0.71715 0.55071 0.0
H584 H 0.77165 0.48798 0.92086 0.0
H585 H 0.60574 0.44728 0.97 0.0
H586 H 0.5409 0.38355 0.9289 0.0
H587 H 0.53108 0.33123 0.88099 0.0
H588 H 0.69592 0.36499 0.83329 0.0
H589 H 0.76171 0.44072 0.87126 0.0
C590 C 0.72134 0.4658 0.92231 0.0
C591 C 0.69344 0.47159 0.94852 0.0
C592 C 0.68424 0.42821 0.89874 0.0
C593 C 0.62825 0.44257 0.95025 0.0
C594 C 0.5911 0.40635 0.92669 0.0
C595 C 0.58138 0.35662 0.87865 0.0
C596 C 0.60906 0.34375 0.85449 0.0
C597 C 0.61854 0.39778 0.90111 0.0
C598 C 0.67412 0.37525 0.85172 0.0
C599 C 0.71153 0.41796 0.87349 0.0
H600 H 0.40798 0.4561 0.05867 0.0
H601 H 0.39022 0.44269 0.96255 0.0
H602 H 0.50289 0.49693 0.95735 0.0
H603 H 0.60727 0.5496 0.9799 0.0
H604 H 0.62548 0.56175 0.07614 0.0
H605 H 0.51255 0.50856 0.08142 0.0
C606 C 0.42854 0.46627 0.03665 0.0
C607 C 0.38998 0.44714 0.0112 0.0
C608 C 0.49388 0.49809 0.03375 0.0
C609 C 0.41816 0.45745 0.98274 0.0
C610 C 0.48291 0.48893 0.97963 0.0
C611 C 0.58656 0.5417 0.00203 0.0
C612 C 0.62493 0.55992 0.02757 0.0
C613 C 0.5213 0.51014 0.00497 0.0
C614 C 0.59713 0.54851 0.05608 0.0
C615 C 0.53237 0.51787 0.05913 0.0
H616 H 0.06123 0.62092 0.33279 0.0
H617 H 0.04913 0.63555 0.42833 0.0
H618 H 0.97497 0.52298 0.4315 0.0
H619 H 0.91688 0.41936 0.40667 0.0
H620 H 0.94494 0.40662 0.31207 0.0
H621 H 0.01137 0.51892 0.30906 0.0
C622 C 0.04292 0.59948 0.35439 0.0
C623 C 0.06123 0.63638 0.38031 0.0
C624 C 0.00411 0.53474 0.3562 0.0
C625 C 0.03585 0.60807 0.40805 0.0
C626 C 0.99389 0.54371 0.40984 0.0
C627 C 0.93816 0.44124 0.3855 0.0
C628 C 0.92562 0.40433 0.35959 0.0
C629 C 0.97845 0.50632 0.38407 0.0
C630 C 0.95384 0.43343 0.33238 0.0
C631 C 0.99169 0.4979 0.33058 0.0
H632 H 0.35522 0.98948 0.67933 0.0
H633 H 0.52106 0.15613 0.65214 0.0
H634 H 0.58114 0.10279 0.65462 0.0
H635 H 0.58726 0.00944 0.66719 0.0
H636 H 0.42033 0.83961 0.68955 0.0
H637 H 0.35952 0.89258 0.68707 0.0
C638 C 0.40439 0.01363 0.67377 0.0
C639 C 0.4344 0.07698 0.66607 0.0
C640 C 0.43833 0.98207 0.67501 0.0
C641 C 0.49759 0.10773 0.65832 0.0
C642 C 0.53184 0.07712 0.65981 0.0
C643 C 0.53771 0.98417 0.67164 0.0
C644 C 0.50871 0.92175 0.68092 0.0
C645 C 0.50294 0.01452 0.66861 0.0
C646 C 0.44407 0.88896 0.68519 0.0
C647 C 0.40921 0.91892 0.68287 0.0
H648 H 0.44015 0.58369 0.66808 0.0
H649 H 0.63521 0.65106 0.68277 0.0
H650 H 0.61535 0.54365 0.68443 0.0
H651 H 0.54056 0.42964 0.68394 0.0
H652 H 0.34726 0.3647 0.66478 0.0
H653 H 0.36781 0.47164 0.66307 0.0
C654 C 0.47835 0.57469 0.6712 0.0
C655 C 0.53899 0.6248 0.67519 0.0
C656 C 0.46655 0.51318 0.67189 0.0
C657 C 0.58829 0.613 0.67919 0.0
C658 C 0.57678 0.55164 0.68048 0.0
C659 C 0.50312 0.43923 0.67959 0.0
C660 C 0.44217 0.38951 0.67526 0.0
C661 C 0.51586 0.50124 0.67735 0.0
C662 C 0.39425 0.40224 0.66873 0.0
C663 C 0.40604 0.46337 0.66756 0.0
H664 H 0.12295 0.54119 0.0258 0.0
H665 H 0.03885 0.40379 0.95595 0.0
H666 H 0.95667 0.43045 0.95019 0.0
H667 H 0.90422 0.48808 0.96785 0.0
H668 H 0.98716 0.61962 0.03983 0.0
H669 H 0.07479 0.60073 0.04153 0.0
C670 C 0.08716 0.51706 0.00904 0.0
C671 C 0.08737 0.47001 0.99148 0.0
C672 C 0.03975 0.53198 0.00615 0.0
C673 C 0.04016 0.43996 0.96992 0.0
C674 C 0.993 0.45523 0.9666 0.0
C675 C 0.94242 0.51351 0.98332 0.0
C676 C 0.93996 0.55572 0.00349 0.0
C677 C 0.99178 0.5006 0.98491 0.0
C678 C 0.98857 0.5873 0.02402 0.0
C679 C 0.03841 0.57624 0.02509 0.0
H680 H 0.4369 0.8792 0.34716 0.0
H681 H 0.36574 0.99911 0.32046 0.0
H682 H 0.47204 0.08501 0.31306 0.0
H683 H 0.58623 0.12836 0.3185 0.0
H684 H 0.65441 0.00829 0.34865 0.0
H685 H 0.54845 0.91976 0.34983 0.0
C686 C 0.44414 0.92363 0.33918 0.0
C687 C 0.39276 0.93195 0.33381 0.0
C688 C 0.5053 0.97287 0.33543 0.0
C689 C 0.40395 0.9906 0.32399 0.0
C690 C 0.46493 0.03999 0.31997 0.0
C691 C 0.57762 0.08222 0.32432 0.0
C692 C 0.62781 0.07397 0.33252 0.0
C693 C 0.51607 0.03188 0.32597 0.0
C694 C 0.61648 0.01492 0.34129 0.0
C695 C 0.55588 0.96459 0.34235 0.0
H696 H 0.29826 0.14444 0.75505 0.0
H697 H 0.29909 0.29517 0.70662 0.0
H698 H 0.26139 0.32357 0.75107 0.0
H699 H 0.22033 0.30029 0.80296 0.0
H700 H 0.21445 0.14579 0.85025 0.0
H701 H 0.26374 0.12527 0.80771 0.0
C702 C 0.29237 0.18487 0.75462 0.0
C703 C 0.30347 0.21896 0.72788 0.0
C704 C 0.26942 0.20003 0.78018 0.0
C705 C 0.29207 0.269 0.7271 0.0
C706 C 0.27028 0.2851 0.75252 0.0
C707 C 0.23116 0.26306 0.80407 0.0
C708 C 0.21428 0.22483 0.8297 0.0
C709 C 0.25785 0.25038 0.7791 0.0
C710 C 0.22735 0.17591 0.83075 0.0
C711 C 0.25522 0.164 0.80639 0.0
H712 H 0.95331 0.24931 0.15149 0.0
H713 H 0.1008 0.23574 0.19566 0.0
H714 H 0.16464 0.27287 0.15048 0.0
H715 H 0.17802 0.30621 0.09778 0.0
H716 H 0.03277 0.32195 0.05293 0.0
H717 H 0.96831 0.28601 0.0984 0.0
C718 C 0.99989 0.25574 0.15132 0.0
C719 C 0.02231 0.23997 0.17701 0.0
C720 C 0.03642 0.27654 0.1249 0.0
C721 C 0.08244 0.24753 0.17623 0.0
C722 C 0.11883 0.2683 0.15031 0.0
C723 C 0.13239 0.30211 0.09808 0.0
C724 C 0.11069 0.3179 0.07231 0.0
C725 C 0.09612 0.28224 0.1244 0.0
C726 C 0.05073 0.31063 0.07266 0.0
C727 C 0.01406 0.29046 0.09872 0.0
H728 H 0.8554 0.01905 0.49244 0.0
H729 H 0.69667 0.02297 0.53001 0.0
H730 H 0.69765 0.08622 0.48802 0.0
H731 H 0.74228 0.13944 0.44023 0.0
H732 H 0.90762 0.14534 0.40575 0.0
H733 H 0.9066 0.08139 0.4477 0.0
C734 C 0.8216 0.03454 0.49208 0.0
C735 C 0.77563 0.015 0.51474 0.0
C736 C 0.82389 0.07337 0.46843 0.0
C737 C 0.73166 0.03509 0.51283 0.0
C738 C 0.73261 0.07223 0.4889 0.0
C739 C 0.77872 0.12759 0.44207 0.0
C740 C 0.82453 0.14672 0.4195 0.0
C741 C 0.77835 0.09146 0.46654 0.0
C742 C 0.87142 0.13097 0.42247 0.0
C743 C 0.87075 0.09415 0.44649 0.0
H744 H 0.67188 0.7474 0.74849 0.0
H745 H 0.6674 0.91404 0.7701 0.0
H746 H 0.71532 0.91915 0.81887 0.0
H747 H 0.75387 0.87352 0.85606 0.0
H748 H 0.76567 0.71077 0.83292 0.0
H749 H 0.71668 0.70514 0.78485 0.0
C750 C 0.68144 0.78468 0.76401 0.0
C751 C 0.66494 0.82946 0.75623 0.0
C752 C 0.70889 0.78717 0.792 0.0
C753 C 0.67866 0.87842 0.77601 0.0
C754 C 0.70609 0.88133 0.80383 0.0
C755 C 0.74689 0.83726 0.84046 0.0
C756 C 0.76365 0.79252 0.84863 0.0
C757 C 0.72063 0.83546 0.81224 0.0
C758 C 0.75229 0.7452 0.82796 0.0
C759 C 0.72483 0.74227 0.80014 0.0
H760 H 0.96997 0.82992 0.1675 0.0
H761 H 0.05003 0.7132 0.18475 0.0
H762 H 0.99979 0.65295 0.13985 0.0
H763 H 0.93332 0.63326 0.09559 0.0
H764 H 0.85377 0.75015 0.07822 0.0
H765 H 0.90595 0.8121 0.1225 0.0
C766 C 0.97729 0.79187 0.16133 0.0
C767 C 0.01407 0.77647 0.17975 0.0
C768 C 0.94905 0.75792 0.13513 0.0
C769 C 0.02143 0.72585 0.17148 0.0
C770 C 0.99318 0.69166 0.14555 0.0
C771 C 0.92763 0.67253 0.10137 0.0
C772 C 0.88979 0.68717 0.08341 0.0
C773 C 0.95696 0.70731 0.1272 0.0
C774 C 0.88319 0.7383 0.09128 0.0
C775 C 0.91257 0.77339 0.11683 0.0
H776 H 0.32174 0.12697 0.448 0.0
H777 H 0.19426 0.01874 0.51847 0.0
H778 H 0.16402 0.92271 0.49067 0.0
H779 H 0.1756 0.86945 0.44652 0.0
H780 H 0.31049 0.97712 0.37858 0.0
H781 H 0.3359 0.0736 0.40475 0.0
C782 C 0.28721 0.08224 0.45711 0.0
C783 C 0.25988 0.07953 0.48506 0.0
C784 C 0.27148 0.02736 0.44139 0.0
C785 C 0.21579 0.02156 0.49697 0.0
C786 C 0.1985 0.96685 0.48108 0.0
C787 C 0.21041 0.91423 0.43759 0.0
C788 C 0.24095 0.91685 0.41074 0.0
C789 C 0.22622 0.96913 0.45334 0.0
C790 C 0.28654 0.97455 0.39929 0.0
C791 C 0.30101 0.02953 0.41423 0.0
loop_
_geom_bond_atom_site_label_1
_geom_bond_atom_site_label_2
_geom_bond_distance
_geom_bond_site_symmetry_2
_ccdc_geom_bond_type
Eu0 N29 2.600 . S
Eu0 N35 2.562 1_556 S
Eu0 O44 2.462 . S
Eu0 O45 2.373 1_556 S
Eu0 O47 2.432 . S
Eu0 O48 2.291 1_556 S
Eu0 O52 2.335 . S
Eu0 O55 2.372 . S
Eu0 C64 2.787 . S
C1 N2 1.365 . S
C1 C4 1.405 . S
C1 C8 1.448 . S
N2 C1 1.365 . S
N2 C5 1.319 . S
N2 Eu11 2.600 . S
C3 C5 1.397 . S
C3 C6 1.367 . S
C3 H23 0.931 . S
C4 C1 1.405 . S
C4 C6 1.403 . S
C4 C10 1.439 . S
C5 N2 1.319 . S
C5 C3 1.397 . S
C5 H16 0.930 . S
C6 C3 1.367 . S
C6 C4 1.403 . S
C6 H27 0.929 . S
C7 C8 1.430 . S
C7 C9 1.387 . S
C7 C13 1.394 1_554 S
C8 C1 1.448 . S
C8 C7 1.430 . S
C8 N12 1.351 . S
C9 C7 1.387 . S
C9 C10 1.374 . S
C9 H24 0.931 1_554 S
C10 C4 1.439 . S
C10 C9 1.374 . S
C10 H25 0.931 . S
Eu11 N2 2.600 . S
Eu11 N12 2.562 . S
Eu11 O46 2.335 . S
Eu11 O49 2.372 . S
Eu11 O50 2.462 . S
Eu11 O51 2.373 1_554 S
Eu11 O53 2.432 . S
Eu11 O54 2.291 . S
Eu11 C75 2.787 . S
N12 C8 1.351 . S
N12 Eu11 2.562 . S
N12 C14 1.325 . S
C13 C7 1.394 1_556 S
C13 C15 1.359 1_556 S
C13 H21 0.949 . S
C14 N12 1.325 . S
C14 C15 1.416 . S
C14 H20 0.929 . S
C15 C13 1.359 1_554 S
C15 C14 1.416 . S
C15 H17 0.930 1_554 S
H16 C5 0.930 . S
H17 C15 0.930 1_556 S
H18 C33 0.930 . S
H19 C40 0.930 . S
H20 C14 0.929 . S
H21 C13 0.949 . S
H22 C36 0.929 . S
H23 C3 0.931 . S
H24 C9 0.931 1_556 S
H25 C10 0.931 . S
H26 C31 0.931 . S
H27 C6 0.929 . S
H28 C39 0.930 . S
N29 Eu0 2.600 . S
N29 C30 1.361 1_556 S
N29 C33 1.322 . S
C30 N29 1.361 1_554 S
C30 C32 1.405 1_455 S
C30 C38 1.448 . S
C31 H26 0.931 . S
C31 C33 1.397 1_655 S
C31 C34 1.367 1_556 S
C32 C30 1.405 1_655 S
C32 C34 1.403 . S
C32 C65 1.439 . S
C33 H18 0.930 . S
C33 N29 1.322 . S
C33 C31 1.397 1_455 S
C34 C31 1.367 1_554 S
C34 C32 1.403 . S
C34 H41 0.929 . S
N35 Eu0 2.562 1_554 S
N35 C36 1.325 . S
N35 C38 1.351 . S
C36 H22 0.929 . S
C36 N35 1.325 . S
C36 C40 1.416 . S
C37 C38 1.430 . S
C37 C39 1.404 . S
C37 C66 1.387 . S
C38 C30 1.448 . S
C38 N35 1.351 . S
C38 C37 1.430 . S
C39 H28 0.930 . S
C39 C37 1.404 . S
C39 C40 1.366 . S
C40 H19 0.930 . S
C40 C36 1.416 . S
C40 C39 1.366 . S
H41 C34 0.929 . S
H42 C65 0.931 . S
H43 C66 0.931 . S
O44 Eu0 2.462 . S
O44 C64 1.252 . S
O45 Eu0 2.373 1_554 S
O45 C56 1.249 . S
O46 Eu11 2.335 . S
O46 C56 1.264 . S
O47 Eu0 2.432 . S
O47 C64 1.268 . S
O48 Eu0 2.291 1_554 S
O48 C63 1.255 . S
O49 Eu11 2.372 . S
O49 C63 1.257 . S
O50 Eu11 2.462 . S
O50 C75 1.252 . S
O51 Eu11 2.373 1_556 S
O51 C67 1.249 . S
O52 Eu0 2.335 . S
O52 C67 1.264 . S
O53 Eu11 2.432 . S
O53 C75 1.268 . S
O54 Eu11 2.291 . S
O54 C74 1.255 . S
O55 Eu0 2.372 . S
O55 C74 1.257 1_556 S
C56 O45 1.249 . S
C56 O46 1.264 . S
C57 C60 1.382 . S
C57 C62 1.390 . S
C57 C64 1.506 . S
C58 C59 1.398 . S
C58 C62 1.392 . S
C59 C58 1.398 . S
C59 C61 1.372 . S
C59 H76 0.931 . S
C60 C57 1.382 . S
C60 C61 1.390 . S
C60 H77 0.931 . S
C61 C59 1.372 . S
C61 C60 1.390 . S
C61 H78 0.929 . S
C62 C57 1.390 . S
C62 C58 1.392 . S
C62 H79 0.930 . S
C63 O48 1.255 . S
C63 O49 1.257 . S
C64 Eu0 2.787 . S
C64 O44 1.252 . S
C64 O47 1.268 . S
C64 C57 1.506 . S
C65 C32 1.439 . S
C65 H42 0.931 . S
C65 C66 1.374 1_655 S
C66 C37 1.387 . S
C66 H43 0.931 . S
C66 C65 1.374 1_455 S
C67 O51 1.249 . S
C67 O52 1.264 . S
C68 C71 1.382 . S
C68 C72 1.390 . S
C68 C75 1.506 . S
C69 C70 1.398 . S
C69 C72 1.392 . S
C70 C69 1.398 . S
C70 C73 1.372 . S
C70 H80 0.931 . S
C71 C68 1.382 . S
C71 C73 1.390 . S
C71 H81 0.931 . S
C72 C68 1.390 . S
C72 C69 1.392 . S
C72 H82 0.930 . S
C73 C70 1.372 . S
C73 C71 1.390 . S
C73 H83 0.929 . S
C74 O54 1.255 . S
C74 O55 1.257 1_554 S
C75 Eu11 2.787 . S
C75 O50 1.252 . S
C75 O53 1.268 . S
C75 C68 1.506 . S
H76 C59 0.931 . S
H77 C60 0.931 . S
H78 C61 0.929 . S
H79 C62 0.930 . S
H80 C70 0.931 . S
H81 C71 0.931 . S
H82 C72 0.930 . S
H83 C73 0.929 . S
Eu84 N113 2.600 . S
Eu84 N119 2.562 . S
Eu84 O128 2.462 . S
Eu84 O129 2.373 . S
Eu84 O131 2.432 . S
Eu84 O132 2.291 . S
Eu84 O136 2.335 . S
Eu84 O139 2.372 . S
Eu84 C148 2.787 . S
C85 N86 1.365 . S
C85 C88 1.405 . S
C85 C92 1.448 . S
N86 C85 1.365 . S
N86 C89 1.319 . S
N86 Eu95 2.600 . S
C87 C89 1.397 . S
C87 C90 1.367 . S
C87 H107 0.931 . S
C88 C85 1.405 . S
C88 C90 1.403 . S
C88 C94 1.439 . S
C89 N86 1.319 . S
C89 C87 1.397 . S
C89 H100 0.930 . S
C90 C87 1.367 . S
C90 C88 1.403 . S
C90 H111 0.929 . S
C91 C92 1.430 . S
C91 C93 1.387 . S
C91 C97 1.404 . S
C92 C85 1.448 . S
C92 C91 1.430 . S
C92 N96 1.351 . S
C93 C91 1.387 . S
C93 C94 1.374 . S
C93 H108 0.931 . S
C94 C88 1.439 . S
C94 C93 1.374 . S
C94 H109 0.931 . S
Eu95 N86 2.600 . S
Eu95 N96 2.562 . S
Eu95 O130 2.335 . S
Eu95 O133 2.372 . S
Eu95 O134 2.462 . S
Eu95 O135 2.373 . S
Eu95 O137 2.432 . S
Eu95 O138 2.291 . S
Eu95 C159 2.787 . S
N96 C92 1.351 . S
N96 Eu95 2.562 . S
N96 C98 1.325 . S
C97 C91 1.404 . S
C97 C99 1.366 . S
C97 H105 0.930 . S
C98 N96 1.325 . S
C98 C99 1.416 . S
C98 H104 0.929 . S
C99 C97 1.366 . S
C99 C98 1.416 . S
C99 H101 0.930 . S
H100 C89 0.930 . S
H101 C99 0.930 . S
H102 C117 0.930 . S
H103 C124 0.930 . S
H104 C98 0.929 . S
H105 C97 0.930 . S
H106 C120 0.929 . S
H107 C87 0.931 . S
H108 C93 0.931 . S
H109 C94 0.931 . S
H110 C115 0.931 . S
H111 C90 0.929 . S
H112 C123 0.930 . S
N113 Eu84 2.600 . S
N113 C114 1.365 . S
N113 C117 1.319 . S
C114 N113 1.365 . S
C114 C116 1.405 1_545 S
C114 C122 1.448 . S
C115 H110 0.931 . S
C115 C117 1.397 1_565 S
C115 C118 1.367 . S
C116 C114 1.405 1_565 S
C116 C118 1.403 . S
C116 C149 1.439 . S
C117 H102 0.930 . S
C117 N113 1.319 . S
C117 C115 1.397 1_545 S
C118 C115 1.367 . S
C118 C116 1.403 . S
C118 H125 0.929 . S
N119 Eu84 2.562 . S
N119 C120 1.325 . S
N119 C122 1.351 . S
C120 H106 0.929 . S
C120 N119 1.325 . S
C120 C124 1.416 1_655 S
C121 C122 1.430 . S
C121 C123 1.404 1_655 S
C121 C150 1.387 . S
C122 C114 1.448 . S
C122 N119 1.351 . S
C122 C121 1.430 . S
C123 H112 0.930 . S
C123 C121 1.404 1_455 S
C123 C124 1.366 . S
C124 H103 0.930 . S
C124 C120 1.416 1_455 S
C124 C123 1.366 . S
H125 C118 0.929 . S
H126 C149 0.931 . S
H127 C150 0.931 . S
O128 Eu84 2.462 . S
O128 C148 1.252 . S
O129 Eu84 2.373 . S
O129 C140 1.249 . S
O130 Eu95 2.335 . S
O130 C140 1.264 . S
O131 Eu84 2.432 . S
O131 C148 1.268 . S
O132 Eu84 2.291 . S
O132 C147 1.255 . S
O133 Eu95 2.372 . S
O133 C147 1.257 . S
O134 Eu95 2.462 . S
O134 C159 1.252 . S
O135 Eu95 2.373 . S
O135 C151 1.249 . S
O136 Eu84 2.335 . S
O136 C151 1.264 . S
O137 Eu95 2.432 . S
O137 C159 1.268 . S
O138 Eu95 2.291 . S
O138 C158 1.255 . S
O139 Eu84 2.372 . S
O139 C158 1.257 . S
C140 O129 1.249 . S
C140 O130 1.264 . S
C141 C144 1.382 . S
C141 C146 1.390 . S
C141 C148 1.506 . S
C142 C143 1.398 1_455 S
C142 C146 1.392 1_455 S
C143 C142 1.398 1_655 S
C143 C145 1.372 . S
C143 H160 0.931 1_655 S
C144 C141 1.382 . S
C144 C145 1.390 . S
C144 H161 0.931 . S
C145 C143 1.372 . S
C145 C144 1.390 . S
C145 H162 0.929 . S
C146 C141 1.390 . S
C146 C142 1.392 1_655 S
C146 H163 0.930 1_655 S
C147 O132 1.255 . S
C147 O133 1.257 . S
C148 Eu84 2.787 . S
C148 O128 1.252 . S
C148 O131 1.268 . S
C148 C141 1.506 . S
C149 C116 1.439 . S
C149 H126 0.931 . S
C149 C150 1.374 1_565 S
C150 C121 1.387 . S
C150 H127 0.931 . S
C150 C149 1.374 1_545 S
C151 O135 1.249 . S
C151 O136 1.264 . S
C152 C155 1.382 . S
C152 C156 1.390 . S
C152 C159 1.506 . S
C153 C154 1.398 . S
C153 C156 1.392 . S
C154 C153 1.398 . S
C154 C157 1.372 . S
C154 H164 0.931 . S
C155 C152 1.382 . S
C155 C157 1.390 . S
C155 H165 0.931 . S
C156 C152 1.390 . S
C156 C153 1.392 . S
C156 H166 0.930 . S
C157 C154 1.372 . S
C157 C155 1.390 . S
C157 H167 0.929 . S
C158 O138 1.255 . S
C158 O139 1.257 . S
C159 Eu95 2.787 . S
C159 O134 1.252 . S
C159 O137 1.268 . S
C159 C152 1.506 . S
H160 C143 0.931 1_455 S
H161 C144 0.931 . S
H162 C145 0.929 . S
H163 C146 0.930 1_455 S
H164 C154 0.931 . S
H165 C155 0.931 . S
H166 C156 0.930 . S
H167 C157 0.929 . S
Eu168 N197 2.600 . S
Eu168 N203 2.562 . S
Eu168 O212 2.462 . S
Eu168 O213 2.373 . S
Eu168 O215 2.432 . S
Eu168 O216 2.291 . S
Eu168 O220 2.335 . S
Eu168 O223 2.372 . S
Eu168 C232 2.787 . S
C169 N170 1.365 . S
C169 C172 1.405 . S
C169 C176 1.448 . S
N170 C169 1.365 . S
N170 C173 1.319 . S
N170 Eu179 2.600 . S
C171 C173 1.397 . S
C171 C174 1.367 . S
C171 H191 0.931 . S
C172 C169 1.405 . S
C172 C174 1.403 . S
C172 C178 1.439 . S
C173 N170 1.319 . S
C173 C171 1.397 . S
C173 H184 0.930 . S
C174 C171 1.367 . S
C174 C172 1.403 . S
C174 H195 0.929 . S
C175 C176 1.430 . S
C175 C177 1.387 . S
C175 C181 1.404 . S
C176 C169 1.448 . S
C176 C175 1.430 . S
C176 N180 1.351 . S
C177 C175 1.387 . S
C177 C178 1.374 . S
C177 H192 0.931 . S
C178 C172 1.439 . S
C178 C177 1.374 . S
C178 H193 0.931 . S
Eu179 N170 2.600 . S
Eu179 N180 2.562 . S
Eu179 O214 2.335 . S
Eu179 O217 2.372 . S
Eu179 O218 2.462 . S
Eu179 O219 2.373 . S
Eu179 O221 2.432 . S
Eu179 O222 2.291 . S
Eu179 C243 2.787 . S
N180 C176 1.351 . S
N180 Eu179 2.562 . S
N180 C182 1.325 . S
C181 C175 1.404 . S
C181 C183 1.366 . S
C181 H189 0.930 . S
C182 N180 1.325 . S
C182 C183 1.416 . S
C182 H188 0.929 . S
C183 C181 1.366 . S
C183 C182 1.416 . S
C183 H185 0.930 . S
H184 C173 0.930 . S
H185 C183 0.930 . S
H186 C201 0.930 . S
H187 C208 0.930 . S
H188 C182 0.929 . S
H189 C181 0.930 . S
H190 C204 0.929 . S
H191 C171 0.931 . S
H192 C177 0.931 . S
H193 C178 0.931 . S
H194 C199 0.931 . S
H195 C174 0.929 . S
H196 C207 0.930 . S
N197 Eu168 2.600 . S
N197 C198 1.365 . S
N197 C201 1.319 . S
C198 N197 1.365 . S
C198 C200 1.405 . S
C198 C206 1.448 . S
C199 H194 0.931 . S
C199 C201 1.397 . S
C199 C202 1.367 . S
C200 C198 1.405 . S
C200 C202 1.403 . S
C200 C233 1.439 . S
C201 H186 0.930 . S
C201 N197 1.319 . S
C201 C199 1.397 . S
C202 C199 1.367 . S
C202 C200 1.403 . S
C202 H209 0.929 . S
N203 Eu168 2.562 . S
N203 C204 1.325 . S
N203 C206 1.351 . S
C204 H190 0.929 . S
C204 N203 1.325 . S
C204 C208 1.416 1_565 S
C205 C206 1.430 . S
C205 C207 1.404 1_565 S
C205 C234 1.387 . S
C206 C198 1.448 . S
C206 N203 1.351 . S
C206 C205 1.430 . S
C207 H196 0.930 . S
C207 C205 1.404 1_545 S
C207 C208 1.366 . S
C208 H187 0.930 . S
C208 C204 1.416 1_545 S
C208 C207 1.366 . S
H209 C202 0.929 . S
H210 C233 0.931 . S
H211 C234 0.931 . S
O212 Eu168 2.462 . S
O212 C232 1.252 . S
O213 Eu168 2.373 . S
O213 C224 1.249 . S
O214 Eu179 2.335 . S
O214 C224 1.264 . S
O215 Eu168 2.432 . S
O215 C232 1.268 . S
O216 Eu168 2.291 . S
O216 C231 1.255 . S
O217 Eu179 2.372 . S
O217 C231 1.257 . S
O218 Eu179 2.462 . S
O218 C243 1.252 . S
O219 Eu179 2.373 . S
O219 C235 1.249 . S
O220 Eu168 2.335 . S
O220 C235 1.264 . S
O221 Eu179 2.432 . S
O221 C243 1.268 . S
O222 Eu179 2.291 . S
O222 C242 1.255 . S
O223 Eu168 2.372 . S
O223 C242 1.257 . S
C224 O213 1.249 . S
C224 O214 1.264 . S
C225 C228 1.382 . S
C225 C230 1.390 . S
C225 C232 1.506 . S
C226 C227 1.398 1_545 S
C226 C230 1.392 1_545 S
C227 C226 1.398 1_565 S
C227 C229 1.372 . S
C227 H244 0.931 1_565 S
C228 C225 1.382 . S
C228 C229 1.390 . S
C228 H245 0.931 . S
C229 C227 1.372 . S
C229 C228 1.390 . S
C229 H246 0.929 . S
C230 C225 1.390 . S
C230 C226 1.392 1_565 S
C230 H247 0.930 1_565 S
C231 O216 1.255 . S
C231 O217 1.257 . S
C232 Eu168 2.787 . S
C232 O212 1.252 . S
C232 O215 1.268 . S
C232 C225 1.506 . S
C233 C200 1.439 . S
C233 H210 0.931 . S
C233 C234 1.374 . S
C234 C205 1.387 . S
C234 H211 0.931 . S
C234 C233 1.374 . S
C235 O219 1.249 . S
C235 O220 1.264 . S
C236 C239 1.382 . S
C236 C240 1.390 . S
C236 C243 1.506 . S
C237 C238 1.398 . S
C237 C240 1.392 . S
C238 C237 1.398 . S
C238 C241 1.372 . S
C238 H248 0.931 . S
C239 C236 1.382 . S
C239 C241 1.390 . S
C239 H249 0.931 . S
C240 C236 1.390 . S
C240 C237 1.392 . S
C240 H250 0.930 . S
C241 C238 1.372 . S
C241 C239 1.390 . S
C241 H251 0.929 . S
C242 O222 1.255 . S
C242 O223 1.257 . S
C243 Eu179 2.787 . S
C243 O218 1.252 . S
C243 O221 1.268 . S
C243 C236 1.506 . S
H244 C227 0.931 1_545 S
H245 C228 0.931 . S
H246 C229 0.929 . S
H247 C230 0.930 1_545 S
H248 C238 0.931 . S
H249 C239 0.931 . S
H250 C240 0.930 . S
H251 C241 0.929 . S
Eu252 N281 2.600 . S
Eu252 N287 2.562 1_556 S
Eu252 O296 2.462 . S
Eu252 O297 2.373 1_556 S
Eu252 O299 2.432 . S
Eu252 O300 2.291 1_556 S
Eu252 O304 2.335 . S
Eu252 O307 2.372 . S
Eu252 C316 2.787 . S
C253 N254 1.365 . S
C253 C256 1.405 . S
C253 C260 1.448 . S
N254 C253 1.365 . S
N254 C257 1.319 . S
N254 Eu263 2.600 . S
C255 C257 1.397 . S
C255 C258 1.367 . S
C255 H275 0.931 . S
C256 C253 1.405 . S
C256 C258 1.403 . S
C256 C262 1.439 . S
C257 N254 1.319 . S
C257 C255 1.397 . S
C257 H268 0.930 . S
C258 C255 1.367 . S
C258 C256 1.403 . S
C258 H279 0.929 . S
C259 C260 1.430 . S
C259 C261 1.387 . S
C259 C265 1.394 1_554 S
C260 C253 1.448 . S
C260 C259 1.430 . S
C260 N264 1.351 . S
C261 C259 1.387 . S
C261 C262 1.374 . S
C261 H276 0.931 1_554 S
C262 C256 1.439 . S
C262 C261 1.374 . S
C262 H277 0.931 . S
Eu263 N254 2.600 . S
Eu263 N264 2.562 . S
Eu263 O298 2.335 . S
Eu263 O301 2.372 . S
Eu263 O302 2.462 . S
Eu263 O303 2.373 1_554 S
Eu263 O305 2.432 . S
Eu263 O306 2.291 . S
Eu263 C327 2.787 . S
N264 C260 1.351 . S
N264 Eu263 2.562 . S
N264 C266 1.325 . S
C265 C259 1.394 1_556 S
C265 C267 1.359 1_556 S
C265 H273 0.949 . S
C266 N264 1.325 . S
C266 C267 1.416 . S
C266 H272 0.929 . S
C267 C265 1.359 1_554 S
C267 C266 1.416 . S
C267 H269 0.930 1_554 S
H268 C257 0.930 . S
H269 C267 0.930 1_556 S
H270 C285 0.930 . S
H271 C292 0.930 . S
H272 C266 0.929 . S
H273 C265 0.949 . S
H274 C288 0.929 . S
H275 C255 0.931 . S
H276 C261 0.931 1_556 S
H277 C262 0.931 . S
H278 C283 0.931 . S
H279 C258 0.929 . S
H280 C291 0.930 . S
N281 Eu252 2.600 . S
N281 C282 1.361 1_556 S
N281 C285 1.322 . S
C282 N281 1.361 1_554 S
C282 C284 1.405 1_655 S
C282 C290 1.448 . S
C283 H278 0.931 . S
C283 C285 1.397 1_455 S
C283 C286 1.367 1_556 S
C284 C282 1.405 1_455 S
C284 C286 1.403 . S
C284 C317 1.439 . S
C285 H270 0.930 . S
C285 N281 1.322 . S
C285 C283 1.397 1_655 S
C286 C283 1.367 1_554 S
C286 C284 1.403 . S
C286 H293 0.929 . S
N287 Eu252 2.562 1_554 S
N287 C288 1.325 . S
N287 C290 1.351 . S
C288 H274 0.929 . S
C288 N287 1.325 . S
C288 C292 1.416 . S
C289 C290 1.430 . S
C289 C291 1.404 . S
C289 C318 1.387 . S
C290 C282 1.448 . S
C290 N287 1.351 . S
C290 C289 1.430 . S
C291 H280 0.930 . S
C291 C289 1.404 . S
C291 C292 1.366 . S
C292 H271 0.930 . S
C292 C288 1.416 . S
C292 C291 1.366 . S
H293 C286 0.929 . S
H294 C317 0.931 . S
H295 C318 0.931 . S
O296 Eu252 2.462 . S
O296 C316 1.252 . S
O297 Eu252 2.373 1_554 S
O297 C308 1.249 . S
O298 Eu263 2.335 . S
O298 C308 1.264 . S
O299 Eu252 2.432 . S
O299 C316 1.268 . S
O300 Eu252 2.291 1_554 S
O300 C315 1.255 . S
O301 Eu263 2.372 . S
O301 C315 1.257 . S
O302 Eu263 2.462 . S
O302 C327 1.252 . S
O303 Eu263 2.373 1_556 S
O303 C319 1.249 . S
O304 Eu252 2.335 . S
O304 C319 1.264 . S
O305 Eu263 2.432 . S
O305 C327 1.268 . S
O306 Eu263 2.291 . S
O306 C326 1.255 . S
O307 Eu252 2.372 . S
O307 C326 1.257 1_556 S
C308 O297 1.249 . S
C308 O298 1.264 . S
C309 C312 1.382 . S
C309 C314 1.390 . S
C309 C316 1.506 . S
C310 C311 1.398 . S
C310 C314 1.392 . S
C311 C310 1.398 . S
C311 C313 1.372 . S
C311 H328 0.931 . S
C312 C309 1.382 . S
C312 C313 1.390 . S
C312 H329 0.931 . S
C313 C311 1.372 . S
C313 C312 1.390 . S
C313 H330 0.929 . S
C314 C309 1.390 . S
C314 C310 1.392 . S
C314 H331 0.930 . S
C315 O300 1.255 . S
C315 O301 1.257 . S
C316 Eu252 2.787 . S
C316 O296 1.252 . S
C316 O299 1.268 . S
C316 C309 1.506 . S
C317 C284 1.439 . S
C317 H294 0.931 . S
C317 C318 1.374 1_455 S
C318 C289 1.387 . S
C318 H295 0.931 . S
C318 C317 1.374 1_655 S
C319 O303 1.249 . S
C319 O304 1.264 . S
C320 C323 1.382 . S
C320 C324 1.390 . S
C320 C327 1.506 . S
C321 C322 1.398 . S
C321 C324 1.392 . S
C322 C321 1.398 . S
C322 C325 1.372 . S
C322 H332 0.931 . S
C323 C320 1.382 . S
C323 C325 1.390 . S
C323 H333 0.931 . S
C324 C320 1.390 . S
C324 C321 1.392 . S
C324 H334 0.930 . S
C325 C322 1.372 . S
C325 C323 1.390 . S
C325 H335 0.929 . S
C326 O306 1.255 . S
C326 O307 1.257 1_554 S
C327 Eu263 2.787 . S
C327 O302 1.252 . S
C327 O305 1.268 . S
C327 C320 1.506 . S
H328 C311 0.931 . S
H329 C312 0.931 . S
H330 C313 0.929 . S
H331 C314 0.930 . S
H332 C322 0.931 . S
H333 C323 0.931 . S
H334 C324 0.930 . S
H335 C325 0.929 . S
Eu336 N365 2.600 . S
Eu336 N371 2.562 . S
Eu336 O380 2.462 . S
Eu336 O381 2.373 . S
Eu336 O383 2.432 . S
Eu336 O384 2.291 . S
Eu336 O388 2.335 . S
Eu336 O391 2.372 . S
Eu336 C400 2.787 . S
C337 N338 1.365 . S
C337 C340 1.405 . S
C337 C344 1.448 . S
N338 C337 1.365 . S
N338 C341 1.319 . S
N338 Eu347 2.600 . S
C339 C341 1.397 . S
C339 C342 1.367 . S
C339 H359 0.931 . S
C340 C337 1.405 . S
C340 C342 1.403 . S
C340 C346 1.439 . S
C341 N338 1.319 . S
C341 C339 1.397 . S
C341 H352 0.930 . S
C342 C339 1.367 . S
C342 C340 1.403 . S
C342 H363 0.929 . S
C343 C344 1.430 . S
C343 C345 1.387 . S
C343 C349 1.404 . S
C344 C337 1.448 . S
C344 C343 1.430 . S
C344 N348 1.351 . S
C345 C343 1.387 . S
C345 C346 1.374 . S
C345 H360 0.931 . S
C346 C340 1.439 . S
C346 C345 1.374 . S
C346 H361 0.931 . S
Eu347 N338 2.600 . S
Eu347 N348 2.562 . S
Eu347 O382 2.335 . S
Eu347 O385 2.372 . S
Eu347 O386 2.462 . S
Eu347 O387 2.373 . S
Eu347 O389 2.432 . S
Eu347 O390 2.291 . S
Eu347 C411 2.787 . S
N348 C344 1.351 . S
N348 Eu347 2.562 . S
N348 C350 1.325 . S
C349 C343 1.404 . S
C349 C351 1.366 . S
C349 H357 0.930 . S
C350 N348 1.325 . S
C350 C351 1.416 . S
C350 H356 0.929 . S
C351 C349 1.366 . S
C351 C350 1.416 . S
C351 H353 0.930 . S
H352 C341 0.930 . S
H353 C351 0.930 . S
H354 C369 0.930 . S
H355 C376 0.930 . S
H356 C350 0.929 . S
H357 C349 0.930 . S
H358 C372 0.929 . S
H359 C339 0.931 . S
H360 C345 0.931 . S
H361 C346 0.931 . S
H362 C367 0.931 . S
H363 C342 0.929 . S
H364 C375 0.930 . S
N365 Eu336 2.600 . S
N365 C366 1.365 . S
N365 C369 1.319 . S
C366 N365 1.365 . S
C366 C368 1.405 1_565 S
C366 C374 1.448 . S
C367 H362 0.931 . S
C367 C369 1.397 1_545 S
C367 C370 1.367 . S
C368 C366 1.405 1_545 S
C368 C370 1.403 . S
C368 C401 1.439 . S
C369 H354 0.930 . S
C369 N365 1.319 . S
C369 C367 1.397 1_565 S
C370 C367 1.367 . S
C370 C368 1.403 . S
C370 H377 0.929 . S
N371 Eu336 2.562 . S
N371 C372 1.325 . S
N371 C374 1.351 . S
C372 H358 0.929 . S
C372 N371 1.325 . S
C372 C376 1.416 1_455 S
C373 C374 1.430 . S
C373 C375 1.404 1_455 S
C373 C402 1.387 . S
C374 C366 1.448 . S
C374 N371 1.351 . S
C374 C373 1.430 . S
C375 H364 0.930 . S
C375 C373 1.404 1_655 S
C375 C376 1.366 . S
C376 H355 0.930 . S
C376 C372 1.416 1_655 S
C376 C375 1.366 . S
H377 C370 0.929 . S
H378 C401 0.931 . S
H379 C402 0.931 . S
O380 Eu336 2.462 . S
O380 C400 1.252 . S
O381 Eu336 2.373 . S
O381 C392 1.249 . S
O382 Eu347 2.335 . S
O382 C392 1.264 . S
O383 Eu336 2.432 . S
O383 C400 1.268 . S
O384 Eu336 2.291 . S
O384 C399 1.255 . S
O385 Eu347 2.372 . S
O385 C399 1.257 . S
O386 Eu347 2.462 . S
O386 C411 1.252 . S
O387 Eu347 2.373 . S
O387 C403 1.249 . S
O388 Eu336 2.335 . S
O388 C403 1.264 . S
O389 Eu347 2.432 . S
O389 C411 1.268 . S
O390 Eu347 2.291 . S
O390 C410 1.255 . S
O391 Eu336 2.372 . S
O391 C410 1.257 . S
C392 O381 1.249 . S
C392 O382 1.264 . S
C393 C396 1.382 . S
C393 C398 1.390 . S
C393 C400 1.506 . S
C394 C395 1.398 1_655 S
C394 C398 1.392 1_655 S
C395 C394 1.398 1_455 S
C395 C397 1.372 . S
C395 H412 0.931 1_455 S
C396 C393 1.382 . S
C396 C397 1.390 . S
C396 H413 0.931 . S
C397 C395 1.372 . S
C397 C396 1.390 . S
C397 H414 0.929 . S
C398 C393 1.390 . S
C398 C394 1.392 1_455 S
C398 H415 0.930 1_455 S
C399 O384 1.255 . S
C399 O385 1.257 . S
C400 Eu336 2.787 . S
C400 O380 1.252 . S
C400 O383 1.268 . S
C400 C393 1.506 . S
C401 C368 1.439 . S
C401 H378 0.931 . S
C401 C402 1.374 1_545 S
C402 C373 1.387 . S
C402 H379 0.931 . S
C402 C401 1.374 1_565 S
C403 O387 1.249 . S
C403 O388 1.264 . S
C404 C407 1.382 . S
C404 C408 1.390 . S
C404 C411 1.506 . S
C405 C406 1.398 . S
C405 C408 1.392 . S
C406 C405 1.398 . S
C406 C409 1.372 . S
C406 H416 0.931 . S
C407 C404 1.382 . S
C407 C409 1.390 . S
C407 H417 0.931 . S
C408 C404 1.390 . S
C408 C405 1.392 . S
C408 H418 0.930 . S
C409 C406 1.372 . S
C409 C407 1.390 . S
C409 H419 0.929 . S
C410 O390 1.255 . S
C410 O391 1.257 . S
C411 Eu347 2.787 . S
C411 O386 1.252 . S
C411 O389 1.268 . S
C411 C404 1.506 . S
H412 C395 0.931 1_655 S
H413 C396 0.931 . S
H414 C397 0.929 . S
H415 C398 0.930 1_655 S
H416 C406 0.931 . S
H417 C407 0.931 . S
H418 C408 0.930 . S
H419 C409 0.929 . S
Eu420 N449 2.600 . S
Eu420 N455 2.562 . S
Eu420 O464 2.462 . S
Eu420 O465 2.373 . S
Eu420 O467 2.432 . S
Eu420 O468 2.291 . S
Eu420 O472 2.335 . S
Eu420 O475 2.372 . S
Eu420 C484 2.787 . S
C421 N422 1.365 . S
C421 C424 1.405 . S
C421 C428 1.448 . S
N422 C421 1.365 . S
N422 C425 1.319 . S
N422 Eu431 2.600 . S
C423 C425 1.397 . S
C423 C426 1.367 . S
C423 H443 0.931 . S
C424 C421 1.405 . S
C424 C426 1.403 . S
C424 C430 1.439 . S
C425 N422 1.319 . S
C425 C423 1.397 . S
C425 H436 0.930 . S
C426 C423 1.367 . S
C426 C424 1.403 . S
C426 H447 0.929 . S
C427 C428 1.430 . S
C427 C429 1.387 . S
C427 C433 1.404 . S
C428 C421 1.448 . S
C428 C427 1.430 . S
C428 N432 1.351 . S
C429 C427 1.387 . S
C429 C430 1.374 . S
C429 H444 0.931 . S
C430 C424 1.439 . S
C430 C429 1.374 . S
C430 H445 0.931 . S
Eu431 N422 2.600 . S
Eu431 N432 2.562 . S
Eu431 O466 2.335 . S
Eu431 O469 2.372 . S
Eu431 O470 2.462 . S
Eu431 O471 2.373 . S
Eu431 O473 2.432 . S
Eu431 O474 2.291 . S
Eu431 C495 2.787 . S
N432 C428 1.351 . S
N432 Eu431 2.562 . S
N432 C434 1.325 . S
C433 C427 1.404 . S
C433 C435 1.366 . S
C433 H441 0.930 . S
C434 N432 1.325 . S
C434 C435 1.416 . S
C434 H440 0.929 . S
C435 C433 1.366 . S
C435 C434 1.416 . S
C435 H437 0.930 . S
H436 C425 0.930 . S
H437 C435 0.930 . S
H438 C453 0.930 . S
H439 C460 0.930 . S
H440 C434 0.929 . S
H441 C433 0.930 . S
H442 C456 0.929 . S
H443 C423 0.931 . S
H444 C429 0.931 . S
H445 C430 0.931 . S
H446 C451 0.931 . S
H447 C426 0.929 . S
H448 C459 0.930 . S
N449 Eu420 2.600 . S
N449 C450 1.365 . S
N449 C453 1.319 . S
C450 N449 1.365 . S
C450 C452 1.405 . S
C450 C458 1.448 . S
C451 H446 0.931 . S
C451 C453 1.397 . S
C451 C454 1.367 . S
C452 C450 1.405 . S
C452 C454 1.403 . S
C452 C485 1.439 . S
C453 H438 0.930 . S
C453 N449 1.319 . S
C453 C451 1.397 . S
C454 C451 1.367 . S
C454 C452 1.403 . S
C454 H461 0.929 . S
N455 Eu420 2.562 . S
N455 C456 1.325 . S
N455 C458 1.351 . S
C456 H442 0.929 . S
C456 N455 1.325 . S
C456 C460 1.416 1_545 S
C457 C458 1.430 . S
C457 C459 1.404 1_545 S
C457 C486 1.387 . S
C458 C450 1.448 . S
C458 N455 1.351 . S
C458 C457 1.430 . S
C459 H448 0.930 . S
C459 C457 1.404 1_565 S
C459 C460 1.366 . S
C460 H439 0.930 . S
C460 C456 1.416 1_565 S
C460 C459 1.366 . S
H461 C454 0.929 . S
H462 C485 0.931 . S
H463 C486 0.931 . S
O464 Eu420 2.462 . S
O464 C484 1.252 . S
O465 Eu420 2.373 . S
O465 C476 1.249 . S
O466 Eu431 2.335 . S
O466 C476 1.264 . S
O467 Eu420 2.432 . S
O467 C484 1.268 . S
O468 Eu420 2.291 . S
O468 C483 1.255 . S
O469 Eu431 2.372 . S
O469 C483 1.257 . S
O470 Eu431 2.462 . S
O470 C495 1.252 . S
O471 Eu431 2.373 . S
O471 C487 1.249 . S
O472 Eu420 2.335 . S
O472 C487 1.264 . S
O473 Eu431 2.432 . S
O473 C495 1.268 . S
O474 Eu431 2.291 . S
O474 C494 1.255 . S
O475 Eu420 2.372 . S
O475 C494 1.257 . S
C476 O465 1.249 . S
C476 O466 1.264 . S
C477 C480 1.382 . S
C477 C482 1.390 . S
C477 C484 1.506 . S
C478 C479 1.398 1_565 S
C478 C482 1.392 1_565 S
C479 C478 1.398 1_545 S
C479 C481 1.372 . S
C479 H496 0.931 1_545 S
C480 C477 1.382 . S
C480 C481 1.390 . S
C480 H497 0.931 . S
C481 C479 1.372 . S
C481 C480 1.390 . S
C481 H498 0.929 . S
C482 C477 1.390 . S
C482 C478 1.392 1_545 S
C482 H499 0.930 1_545 S
C483 O468 1.255 . S
C483 O469 1.257 . S
C484 Eu420 2.787 . S
C484 O464 1.252 . S
C484 O467 1.268 . S
C484 C477 1.506 . S
C485 C452 1.439 . S
C485 H462 0.931 . S
C485 C486 1.374 . S
C486 C457 1.387 . S
C486 H463 0.931 . S
C486 C485 1.374 . S
C487 O471 1.249 . S
C487 O472 1.264 . S
C488 C491 1.382 . S
C488 C492 1.390 . S
C488 C495 1.506 . S
C489 C490 1.398 . S
C489 C492 1.392 . S
C490 C489 1.398 . S
C490 C493 1.372 . S
C490 H500 0.931 . S
C491 C488 1.382 . S
C491 C493 1.390 . S
C491 H501 0.931 . S
C492 C488 1.390 . S
C492 C489 1.392 . S
C492 H502 0.930 . S
C493 C490 1.372 . S
C493 C491 1.390 . S
C493 H503 0.929 . S
C494 O474 1.255 . S
C494 O475 1.257 . S
C495 Eu431 2.787 . S
C495 O470 1.252 . S
C495 O473 1.268 . S
C495 C488 1.506 . S
H496 C479 0.931 1_565 S
H497 C480 0.931 . S
H498 C481 0.929 . S
H499 C482 0.930 1_565 S
H500 C490 0.931 . S
H501 C491 0.931 . S
H502 C492 0.930 . S
H503 C493 0.929 . S
H504 C510 0.930 . S
H505 C513 0.930 . S
H506 C514 0.930 . S
H507 C515 0.930 . S
H508 C518 0.930 . S
H509 C519 0.930 . S
C510 H504 0.930 . S
C510 C511 1.355 . S
C510 C512 1.415 . S
C511 C510 1.355 . S
C511 C513 1.419 . S
C512 C510 1.415 . S
C512 C517 1.425 . S
C512 C519 1.409 . S
C513 H505 0.930 . S
C513 C511 1.419 . S
C513 C514 1.362 . S
C514 H506 0.930 . S
C514 C513 1.362 . S
C514 C517 1.409 . S
C515 H507 0.930 . S
C515 C516 1.355 . S
C515 C517 1.415 . S
C516 C515 1.355 . S
C516 C518 1.419 . S
C517 C512 1.425 . S
C517 C514 1.409 . S
C517 C515 1.415 . S
C518 H508 0.930 . S
C518 C516 1.419 . S
C518 C519 1.362 . S
C519 H509 0.930 . S
C519 C512 1.409 . S
C519 C518 1.362 . S
H520 C526 0.930 . S
H521 C529 0.930 . S
H522 C530 0.930 . S
H523 C531 0.930 . S
H524 C534 0.930 . S
H525 C535 0.930 . S
C526 H520 0.930 . S
C526 C527 1.355 . S
C526 C528 1.415 . S
C527 C526 1.355 . S
C527 C529 1.419 . S
C528 C526 1.415 . S
C528 C533 1.425 . S
C528 C535 1.409 . S
C529 H521 0.930 . S
C529 C527 1.419 . S
C529 C530 1.362 . S
C530 H522 0.930 . S
C530 C529 1.362 . S
C530 C533 1.409 . S
C531 H523 0.930 . S
C531 C532 1.355 . S
C531 C533 1.415 . S
C532 C531 1.355 . S
C532 C534 1.419 . S
C533 C528 1.425 . S
C533 C530 1.409 . S
C533 C531 1.415 . S
C534 H524 0.930 . S
C534 C532 1.419 . S
C534 C535 1.362 . S
C535 H525 0.930 . S
C535 C528 1.409 . S
C535 C534 1.362 . S
H536 C542 0.930 . S
H537 C545 0.930 . S
H538 C546 0.930 . S
H539 C547 0.930 . S
H540 C550 0.930 . S
H541 C551 0.930 . S
C542 H536 0.930 . S
C542 C543 1.355 . S
C542 C544 1.415 . S
C543 C542 1.355 . S
C543 C545 1.419 . S
C544 C542 1.415 . S
C544 C549 1.425 . S
C544 C551 1.409 . S
C545 H537 0.930 . S
C545 C543 1.419 . S
C545 C546 1.362 . S
C546 H538 0.930 . S
C546 C545 1.362 . S
C546 C549 1.409 . S
C547 H539 0.930 . S
C547 C548 1.355 . S
C547 C549 1.415 . S
C548 C547 1.355 . S
C548 C550 1.419 . S
C549 C544 1.425 . S
C549 C546 1.409 . S
C549 C547 1.415 . S
C550 H540 0.930 . S
C550 C548 1.419 . S
C550 C551 1.362 . S
C551 H541 0.930 . S
C551 C544 1.409 . S
C551 C550 1.362 . S
H552 C558 0.930 . S
H553 C561 0.930 . S
H554 C562 0.930 . S
H555 C563 0.930 . S
H556 C566 0.930 . S
H557 C567 0.930 . S
C558 H552 0.930 . S
C558 C559 1.355 . S
C558 C560 1.415 . S
C559 C558 1.355 . S
C559 C561 1.419 . S
C560 C558 1.415 . S
C560 C565 1.425 . S
C560 C567 1.409 . S
C561 H553 0.930 . S
C561 C559 1.419 . S
C561 C562 1.362 . S
C562 H554 0.930 . S
C562 C561 1.362 . S
C562 C565 1.409 . S
C563 H555 0.930 . S
C563 C564 1.355 . S
C563 C565 1.415 . S
C564 C563 1.355 . S
C564 C566 1.419 . S
C565 C560 1.425 . S
C565 C562 1.409 . S
C565 C563 1.415 . S
C566 H556 0.930 . S
C566 C564 1.419 . S
C566 C567 1.362 . S
C567 H557 0.930 . S
C567 C560 1.409 . S
C567 C566 1.362 . S
H568 C574 0.930 . S
H569 C577 0.930 . S
H570 C578 0.930 . S
H571 C579 0.930 . S
H572 C582 0.930 . S
H573 C583 0.930 . S
C574 H568 0.930 . S
C574 C575 1.355 . S
C574 C576 1.415 . S
C575 C574 1.355 . S
C575 C577 1.419 . S
C576 C574 1.415 . S
C576 C581 1.425 . S
C576 C583 1.409 . S
C577 H569 0.930 . S
C577 C575 1.419 . S
C577 C578 1.362 . S
C578 H570 0.930 . S
C578 C577 1.362 . S
C578 C581 1.409 . S
C579 H571 0.930 . S
C579 C580 1.355 . S
C579 C581 1.415 . S
C580 C579 1.355 . S
C580 C582 1.419 . S
C581 C576 1.425 . S
C581 C578 1.409 . S
C581 C579 1.415 . S
C582 H572 0.930 . S
C582 C580 1.419 . S
C582 C583 1.362 . S
C583 H573 0.930 . S
C583 C576 1.409 . S
C583 C582 1.362 . S
H584 C590 0.930 . S
H585 C593 0.930 . S
H586 C594 0.930 . S
H587 C595 0.930 . S
H588 C598 0.930 . S
H589 C599 0.930 . S
C590 H584 0.930 . S
C590 C591 1.355 . S
C590 C592 1.415 . S
C591 C590 1.355 . S
C591 C593 1.419 . S
C592 C590 1.415 . S
C592 C597 1.425 . S
C592 C599 1.409 . S
C593 H585 0.930 . S
C593 C591 1.419 . S
C593 C594 1.362 . S
C594 H586 0.930 . S
C594 C593 1.362 . S
C594 C597 1.409 . S
C595 H587 0.930 . S
C595 C596 1.355 . S
C595 C597 1.415 . S
C596 C595 1.355 . S
C596 C598 1.419 . S
C597 C592 1.425 . S
C597 C594 1.409 . S
C597 C595 1.415 . S
C598 H588 0.930 . S
C598 C596 1.419 . S
C598 C599 1.362 . S
C599 H589 0.930 . S
C599 C592 1.409 . S
C599 C598 1.362 . S
H600 C606 0.930 . S
H601 C609 0.930 . S
H602 C610 0.930 . S
H603 C611 0.930 . S
H604 C614 0.930 . S
H605 C615 0.930 . S
C606 H600 0.930 . S
C606 C607 1.355 . S
C606 C608 1.415 . S
C607 C606 1.355 . S
C607 C609 1.419 . S
C608 C606 1.415 . S
C608 C613 1.425 . S
C608 C615 1.409 . S
C609 H601 0.930 . S
C609 C607 1.419 . S
C609 C610 1.362 . S
C610 H602 0.930 . S
C610 C609 1.362 . S
C610 C613 1.409 . S
C611 H603 0.930 . S
C611 C612 1.355 . S
C611 C613 1.415 . S
C612 C611 1.355 . S
C612 C614 1.419 . S
C613 C608 1.425 . S
C613 C610 1.409 . S
C613 C611 1.415 . S
C614 H604 0.930 . S
C614 C612 1.419 . S
C614 C615 1.362 . S
C615 H605 0.930 . S
C615 C608 1.409 . S
C615 C614 1.362 . S
H616 C622 0.930 . S
H617 C625 0.930 . S
H618 C626 0.930 . S
H619 C627 0.930 . S
H620 C630 0.930 . S
H621 C631 0.930 . S
C622 H616 0.930 . S
C622 C623 1.355 1_655 S
C622 C624 1.415 . S
C623 C622 1.355 1_455 S
C623 C625 1.419 . S
C624 C622 1.415 . S
C624 C629 1.425 1_655 S
C624 C631 1.409 . S
C625 H617 0.930 . S
C625 C623 1.419 . S
C625 C626 1.362 . S
C626 H618 0.930 . S
C626 C625 1.362 . S
C626 C629 1.409 . S
C627 H619 0.930 . S
C627 C628 1.355 1_455 S
C627 C629 1.415 . S
C628 C627 1.355 1_655 S
C628 C630 1.419 . S
C629 C624 1.425 1_455 S
C629 C626 1.409 . S
C629 C627 1.415 . S
C630 H620 0.930 . S
C630 C628 1.419 . S
C630 C631 1.362 . S
C631 H621 0.930 . S
C631 C624 1.409 . S
C631 C630 1.362 . S
H632 C638 0.930 . S
H633 C641 0.930 . S
H634 C642 0.930 . S
H635 C643 0.930 . S
H636 C646 0.930 . S
H637 C647 0.930 . S
C638 H632 0.930 . S
C638 C639 1.355 1_565 S
C638 C640 1.415 . S
C639 C638 1.355 1_545 S
C639 C641 1.419 . S
C640 C638 1.415 . S
C640 C645 1.425 1_565 S
C640 C647 1.409 . S
C641 H633 0.930 . S
C641 C639 1.419 . S
C641 C642 1.362 . S
C642 H634 0.930 . S
C642 C641 1.362 . S
C642 C645 1.409 . S
C643 H635 0.930 . S
C643 C644 1.355 1_545 S
C643 C645 1.415 . S
C644 C643 1.355 1_565 S
C644 C646 1.419 . S
C645 C640 1.425 1_545 S
C645 C642 1.409 . S
C645 C643 1.415 . S
C646 H636 0.930 . S
C646 C644 1.419 . S
C646 C647 1.362 . S
C647 H637 0.930 . S
C647 C640 1.409 . S
C647 C646 1.362 . S
H648 C654 0.930 . S
H649 C657 0.930 . S
H650 C658 0.930 . S
H651 C659 0.930 . S
H652 C662 0.930 . S
H653 C663 0.930 . S
C654 H648 0.930 . S
C654 C655 1.355 . S
C654 C656 1.415 . S
C655 C654 1.355 . S
C655 C657 1.419 . S
C656 C654 1.415 . S
C656 C661 1.425 . S
C656 C663 1.409 . S
C657 H649 0.930 . S
C657 C655 1.419 . S
C657 C658 1.362 . S
C658 H650 0.930 . S
C658 C657 1.362 . S
C658 C661 1.409 . S
C659 H651 0.930 . S
C659 C660 1.355 . S
C659 C661 1.415 . S
C660 C659 1.355 . S
C660 C662 1.419 . S
C661 C656 1.425 . S
C661 C658 1.409 . S
C661 C659 1.415 . S
C662 H652 0.930 . S
C662 C660 1.419 . S
C662 C663 1.362 . S
C663 H653 0.930 . S
C663 C656 1.409 . S
C663 C662 1.362 . S
H664 C670 0.930 1_655 S
H665 C673 0.930 . S
H666 C674 0.930 1_556 S
H667 C675 0.930 1_455 S
H668 C678 0.930 . S
H669 C679 0.930 . S
C670 H664 0.930 1_455 S
C670 C671 1.355 . S
C670 C672 1.415 1_455 S
C671 C670 1.355 . S
C671 C673 1.419 . S
C672 C670 1.415 1_655 S
C672 C677 1.425 1_655 S
C672 C679 1.409 . S
C673 H665 0.930 . S
C673 C671 1.419 . S
C673 C674 1.362 . S
C674 H666 0.930 1_554 S
C674 C673 1.362 . S
C674 C677 1.409 . S
C675 H667 0.930 1_655 S
C675 C676 1.355 . S
C675 C677 1.415 1_655 S
C676 C675 1.355 . S
C676 C678 1.419 . S
C677 C672 1.425 1_455 S
C677 C674 1.409 . S
C677 C675 1.415 1_455 S
C678 H668 0.930 . S
C678 C676 1.419 . S
C678 C679 1.362 . S
C679 H669 0.930 . S
C679 C672 1.409 . S
C679 C678 1.362 . S
H680 C686 0.930 . S
H681 C689 0.930 1_545 S
H682 C690 0.930 . S
H683 C691 0.930 . S
H684 C694 0.930 1_565 S
H685 C695 0.930 . S
C686 H680 0.930 . S
C686 C687 1.355 . S
C686 C688 1.415 . S
C687 C686 1.355 . S
C687 C689 1.419 . S
C688 C686 1.415 . S
C688 C693 1.425 1_565 S
C688 C695 1.409 . S
C689 H681 0.930 1_565 S
C689 C687 1.419 . S
C689 C690 1.362 1_565 S
C690 H682 0.930 . S
C690 C689 1.362 1_545 S
C690 C693 1.409 . S
C691 H683 0.930 . S
C691 C692 1.355 . S
C691 C693 1.415 . S
C692 C691 1.355 . S
C692 C694 1.419 . S
C693 C688 1.425 1_545 S
C693 C690 1.409 . S
C693 C691 1.415 . S
C694 H684 0.930 1_545 S
C694 C692 1.419 . S
C694 C695 1.362 1_545 S
C695 H685 0.930 . S
C695 C688 1.409 . S
C695 C694 1.362 1_565 S
H696 C702 0.930 . S
H697 C705 0.930 . S
H698 C706 0.930 . S
H699 C707 0.930 . S
H700 C710 0.930 . S
H701 C711 0.930 . S
C702 H696 0.930 . S
C702 C703 1.355 . S
C702 C704 1.415 . S
C703 C702 1.355 . S
C703 C705 1.419 . S
C704 C702 1.415 . S
C704 C709 1.425 . S
C704 C711 1.409 . S
C705 H697 0.930 . S
C705 C703 1.419 . S
C705 C706 1.362 . S
C706 H698 0.930 . S
C706 C705 1.362 . S
C706 C709 1.409 . S
C707 H699 0.930 . S
C707 C708 1.355 . S
C707 C709 1.415 . S
C708 C707 1.355 . S
C708 C710 1.419 . S
C709 C704 1.425 . S
C709 C706 1.409 . S
C709 C707 1.415 . S
C710 H700 0.930 . S
C710 C708 1.419 . S
C710 C711 1.362 . S
C711 H701 0.930 . S
C711 C704 1.409 . S
C711 C710 1.362 . S
H712 C718 0.930 1_655 S
H713 C721 0.930 . S
H714 C722 0.930 . S
H715 C723 0.930 . S
H716 C726 0.930 . S
H717 C727 0.930 1_655 S
C718 H712 0.930 1_455 S
C718 C719 1.355 . S
C718 C720 1.415 . S
C719 C718 1.355 . S
C719 C721 1.419 . S
C720 C718 1.415 . S
C720 C725 1.425 . S
C720 C727 1.409 . S
C721 H713 0.930 . S
C721 C719 1.419 . S
C721 C722 1.362 . S
C722 H714 0.930 . S
C722 C721 1.362 . S
C722 C725 1.409 . S
C723 H715 0.930 . S
C723 C724 1.355 . S
C723 C725 1.415 . S
C724 C723 1.355 . S
C724 C726 1.419 . S
C725 C720 1.425 . S
C725 C722 1.409 . S
C725 C723 1.415 . S
C726 H716 0.930 . S
C726 C724 1.419 . S
C726 C727 1.362 . S
C727 H717 0.930 1_455 S
C727 C720 1.409 . S
C727 C726 1.362 . S
H728 C734 0.930 1_565 S
H729 C737 0.930 . S
H730 C738 0.930 . S
H731 C739 0.930 . S
H732 C742 0.930 . S
H733 C743 0.930 . S
C734 H728 0.930 1_545 S
C734 C735 1.355 . S
C734 C736 1.415 . S
C735 C734 1.355 . S
C735 C737 1.419 . S
C736 C734 1.415 . S
C736 C741 1.425 . S
C736 C743 1.409 . S
C737 H729 0.930 . S
C737 C735 1.419 . S
C737 C738 1.362 . S
C738 H730 0.930 . S
C738 C737 1.362 . S
C738 C741 1.409 . S
C739 H731 0.930 . S
C739 C740 1.355 . S
C739 C741 1.415 . S
C740 C739 1.355 . S
C740 C742 1.419 . S
C741 C736 1.425 . S
C741 C738 1.409 . S
C741 C739 1.415 . S
C742 H732 0.930 . S
C742 C740 1.419 . S
C742 C743 1.362 . S
C743 H733 0.930 . S
C743 C736 1.409 . S
C743 C742 1.362 . S
H744 C750 0.930 . S
H745 C753 0.930 . S
H746 C754 0.930 . S
H747 C755 0.930 . S
H748 C758 0.930 . S
H749 C759 0.930 . S
C750 H744 0.930 . S
C750 C751 1.355 . S
C750 C752 1.415 . S
C751 C750 1.355 . S
C751 C753 1.419 . S
C752 C750 1.415 . S
C752 C757 1.425 . S
C752 C759 1.409 . S
C753 H745 0.930 . S
C753 C751 1.419 . S
C753 C754 1.362 . S
C754 H746 0.930 . S
C754 C753 1.362 . S
C754 C757 1.409 . S
C755 H747 0.930 . S
C755 C756 1.355 . S
C755 C757 1.415 . S
C756 C755 1.355 . S
C756 C758 1.419 . S
C757 C752 1.425 . S
C757 C754 1.409 . S
C757 C755 1.415 . S
C758 H748 0.930 . S
C758 C756 1.419 . S
C758 C759 1.362 . S
C759 H749 0.930 . S
C759 C752 1.409 . S
C759 C758 1.362 . S
H760 C766 0.930 . S
H761 C769 0.930 . S
H762 C770 0.930 . S
H763 C771 0.930 . S
H764 C774 0.930 . S
H765 C775 0.930 . S
C766 H760 0.930 . S
C766 C767 1.355 . S
C766 C768 1.415 . S
C767 C766 1.355 . S
C767 C769 1.419 . S
C768 C766 1.415 . S
C768 C773 1.425 . S
C768 C775 1.409 . S
C769 H761 0.930 . S
C769 C767 1.419 . S
C769 C770 1.362 . S
C770 H762 0.930 . S
C770 C769 1.362 . S
C770 C773 1.409 . S
C771 H763 0.930 . S
C771 C772 1.355 . S
C771 C773 1.415 . S
C772 C771 1.355 . S
C772 C774 1.419 . S
C773 C768 1.425 . S
C773 C770 1.409 . S
C773 C771 1.415 . S
C774 H764 0.930 . S
C774 C772 1.419 . S
C774 C775 1.362 . S
C775 H765 0.930 . S
C775 C768 1.409 . S
C775 C774 1.362 . S
H776 C782 0.930 1_545 S
H777 C785 0.930 . S
H778 C786 0.930 . S
H779 C787 0.930 . S
H780 C790 0.930 . S
H781 C791 0.930 . S
C782 H776 0.930 1_565 S
C782 C783 1.355 . S
C782 C784 1.415 . S
C783 C782 1.355 . S
C783 C785 1.419 . S
C784 C782 1.415 . S
C784 C789 1.425 . S
C784 C791 1.409 . S
C785 H777 0.930 . S
C785 C783 1.419 . S
C785 C786 1.362 . S
C786 H778 0.930 . S
C786 C785 1.362 . S
C786 C789 1.409 . S
C787 H779 0.930 . S
C787 C788 1.355 . S
C787 C789 1.415 . S
C788 C787 1.355 . S
C788 C790 1.419 . S
C789 C784 1.425 . S
C789 C786 1.409 . S
C789 C787 1.415 . S
C790 H780 0.930 . S
C790 C788 1.419 . S
C790 C791 1.362 . S
C791 H781 0.930 . S
C791 C784 1.409 . S
C791 C790 1.362 . S
C511 C403 1.163 . S
C516 C69 0.899 . S
C527 C487 1.216 . S
C532 C153 1.013 . S
C543 C67 1.233 . S
C548 C237 1.064 . S
C559 C151 1.163 . S
C564 C321 0.899 . S
C575 C235 1.219 . S
C580 C405 1.073 . S
C591 C319 1.207 . S
C596 C489 1.048 . S
C607 C63 1.675 . S
C612 C315 1.661 . S
C623 C399 1.586 . S
C628 C147 1.609 . S
C639 C483 1.579 . S
C644 C231 1.595 . S
C655 C242 1.779 . S
C660 C494 1.753 . S
C671 C74 1.741 . S
C676 C326 1.757 . S
C687 C410 1.776 . S
C692 C158 1.780 . S
C703 C476 1.153 . S
C708 C58 1.115 . S
C719 C142 1.091 . S
C724 C56 1.110 . S
C735 C226 1.109 . S
C740 C140 1.123 . S
C751 C224 1.132 . S
C756 C310 0.956 . S
C767 C394 1.105 . S
C772 C308 1.163 . S
C783 C478 1.112 . S
C788 C392 1.127 . S
