# Generated by pormake.
# Topology rob, (6)-cn, num edge types: 1
# Building blocks:
#     Node 0, Type 0, BuildingBlock: BETDEL_clean_sbu_0, # of connection points: 6
#     Node 1, Type 0, BuildingBlock: BETDEL_clean_sbu_0, # of connection points: 6
#     Node 2, Type 0, BuildingBlock: BETDEL_clean_sbu_0, # of connection points: 6
#     Node 3, Type 0, BuildingBlock: BETDEL_clean_sbu_0, # of connection points: 6
#     Edge 4, Type (0, 0), BuildingBlock: KIFKEQ_clean_linker_1, # of connection points: 2
#     Edge 5, Type (0, 0), BuildingBlock: KIFKEQ_clean_linker_1, # of connection points: 2
#     Edge 6, Type (0, 0), BuildingBlock: KIFKEQ_clean_linker_1, # of connection points: 2
#     Edge 7, Type (0, 0), BuildingBlock: KIFKEQ_clean_linker_1, # of connection points: 2
#     Edge 8, Type (0, 0), BuildingBlock: KIFKEQ_clean_linker_1, # of connection points: 2
#     Edge 9, Type (0, 0), BuildingBlock: KIFKEQ_clean_linker_1, # of connection points: 2
#     Edge 10, Type (0, 0), BuildingBlock: KIFKEQ_clean_linker_1, # of connection points: 2
#     Edge 11, Type (0, 0), BuildingBlock: KIFKEQ_clean_linker_1, # of connection points: 2
#     Edge 12, Type (0, 0), BuildingBlock: KIFKEQ_clean_linker_1, # of connection points: 2
#     Edge 13, Type (0, 0), BuildingBlock: KIFKEQ_clean_linker_1, # of connection points: 2
#     Edge 14, Type (0, 0), BuildingBlock: KIFKEQ_clean_linker_1, # of connection points: 2
#     Edge 15, Type (0, 0), BuildingBlock: KIFKEQ_clean_linker_1, # of connection points: 2
# Relax obj value: 0.076
# Max RMSD: 0.163
# Mean RMSD: 0.163
data_MOF--net-rob--node1-BETDEL_clean_sbu_0--edge1-KIFKEQ_clean_linker_1
_symmetry_space_group_name_H-M    P1
_symmetry_Int_Tables_number       1
_symmetry_cell_setting            triclinic
loop_
_symmetry_equiv_pos_as_xyz
'x, y, z'
_cell_length_a     13.63876
_cell_length_b     25.882912
_cell_length_c     29.749736
_cell_angle_alpha  89.9626
_cell_angle_beta   103.20943
_cell_angle_gamma 90.093334
loop_
_atom_site_label
_atom_site_type_symbol
_atom_site_fract_x
_atom_site_fract_y
_atom_site_fract_z
_atom_type_partial_charge
Dy0 Dy 0.15477 0.28892 0.03004 0.0
C1 C 0.41262 0.24905 0.90898 0.0
C2 C 0.04725 0.29559 0.09699 0.0
Dy3 Dy 0.31043 0.25925 0.97767 0.0
O4 O 0.08996 0.33381 0.08076 0.0
O5 O 0.05813 0.25374 0.07455 0.0
O6 O 0.16899 0.3717 0.01099 0.0
O7 O 0.29722 0.32389 0.02282 0.0
C8 C 0.26368 0.36847 0.01045 0.0
C9 C 0.20138 0.17991 0.99789 0.0
O10 O 0.41269 0.25494 0.04758 0.0
O11 O 0.27651 0.24956 0.08206 0.0
O12 O 0.35879 0.21371 0.92261 0.0
O13 O 0.4158 0.28978 0.93489 0.0
O14 O 0.29629 0.17686 0.99776 0.0
O15 O 0.16788 0.22434 0.98497 0.0
O16 O 0.05418 0.29189 0.95965 0.0
O17 O 0.19187 0.30226 0.92711 0.0
C18 C 0.37381 0.24527 0.08361 0.0
C19 C 0.09395 0.30432 0.92449 0.0
Dy20 Dy 0.64448 0.79087 0.02759 0.0
C21 C 0.95563 0.76785 0.92558 0.0
C22 C 0.54238 0.80865 0.09467 0.0
Dy23 Dy 0.82606 0.75778 0.98286 0.0
O24 O 0.61891 0.83479 0.0881 0.0
O25 O 0.51731 0.77337 0.06273 0.0
O26 O 0.66736 0.8713 0.00437 0.0
O27 O 0.79288 0.82219 0.02435 0.0
C28 C 0.7638 0.86633 0.00857 0.0
C29 C 0.69659 0.67848 0.98153 0.0
O30 O 0.89923 0.7459 0.05786 0.0
O31 O 0.74503 0.74068 0.07898 0.0
O32 O 0.95025 0.72771 0.95143 0.0
O33 O 0.89613 0.80378 0.93427 0.0
O34 O 0.77848 0.67461 0.96645 0.0
O35 O 0.69183 0.72397 0.99556 0.0
O36 O 0.55739 0.78848 0.95516 0.0
O37 O 0.70386 0.79117 0.92655 0.0
C38 C 0.84389 0.73441 0.0881 0.0
C39 C 0.60474 0.7945 0.92127 0.0
Dy40 Dy 0.32107 0.78504 0.48115 0.0
C41 C 0.06654 0.74225 0.60183 0.0
C42 C 0.43637 0.79124 0.41728 0.0
Dy43 Dy 0.16162 0.75315 0.53043 0.0
O44 O 0.4057 0.83023 0.43771 0.0
O45 O 0.40925 0.74863 0.43401 0.0
O46 O 0.29797 0.86782 0.49746 0.0
O47 O 0.17352 0.81727 0.48427 0.0
C48 C 0.20275 0.86267 0.4961 0.0
C49 C 0.27676 0.67537 0.51342 0.0
O50 O 0.06594 0.74117 0.45914 0.0
O51 O 0.20652 0.74439 0.42743 0.0
O52 O 0.13343 0.7115 0.59213 0.0
O53 O 0.04536 0.77798 0.57016 0.0
O54 O 0.18148 0.6709 0.51249 0.0
O55 O 0.30789 0.72034 0.52618 0.0
O56 O 0.4159 0.78757 0.55243 0.0
O57 O 0.27286 0.8023 0.57945 0.0
C58 C 0.11025 0.73406 0.42421 0.0
C59 C 0.37178 0.80287 0.58525 0.0
Dy60 Dy 0.8242 0.28253 0.48258 0.0
C61 C 0.52814 0.25312 0.58649 0.0
C62 C 0.94622 0.28941 0.42148 0.0
Dy63 Dy 0.65216 0.25495 0.526 0.0
O64 O 0.90564 0.32797 0.43818 0.0
O65 O 0.92533 0.24691 0.4406 0.0
O66 O 0.80708 0.36529 0.50114 0.0
O67 O 0.67808 0.31834 0.4821 0.0
C68 C 0.71025 0.36259 0.49619 0.0
C69 C 0.7656 0.17425 0.51315 0.0
O70 O 0.56503 0.25313 0.45282 0.0
O71 O 0.71141 0.24261 0.42678 0.0
O72 O 0.56121 0.21289 0.56863 0.0
O73 O 0.5576 0.2946 0.5688 0.0
O74 O 0.66937 0.17138 0.51032 0.0
O75 O 0.79791 0.21884 0.52619 0.0
O76 O 0.9129 0.28449 0.55537 0.0
O77 O 0.76698 0.29291 0.58232 0.0
C78 C 0.61229 0.24082 0.42009 0.0
C79 C 0.86594 0.29567 0.58845 0.0
H80 H 0.53217 0.67645 0.02061 0.0
H81 H 0.70994 0.58141 0.95049 0.0
H82 H 0.427 0.60133 0.02815 0.0
H83 H 0.60483 0.50712 0.95701 0.0
H84 H 0.46789 0.37231 0.02019 0.0
H85 H 0.5709 0.44828 0.01428 0.0
H86 H 0.30298 0.54278 0.98258 0.0
H87 H 0.20066 0.46701 0.98942 0.0
C88 C 0.5482 0.63964 0.0066 0.0
C89 C 0.6292 0.63468 0.98512 0.0
C90 C 0.48797 0.59665 0.01072 0.0
C91 C 0.50785 0.54798 0.99344 0.0
C92 C 0.58839 0.5436 0.97151 0.0
C93 C 0.64824 0.58635 0.96746 0.0
C94 C 0.43122 0.40933 0.01189 0.0
C95 C 0.32639 0.41377 0.00531 0.0
C96 C 0.49005 0.45287 0.00833 0.0
C97 C 0.44527 0.5018 0.998 0.0
C98 C 0.34017 0.50598 0.99126 0.0
C99 C 0.28146 0.46246 0.99483 0.0
H100 H 0.47535 0.67483 0.50862 0.0
H101 H 0.22397 0.57439 0.51137 0.0
H102 H 0.57973 0.5994 0.50301 0.0
H103 H 0.32841 0.4993 0.50864 0.0
H104 H 0.50844 0.37323 0.46026 0.0
H105 H 0.40546 0.44971 0.4622 0.0
H106 H 0.66501 0.52948 0.54363 0.0
H107 H 0.76838 0.45378 0.5392 0.0
C108 C 0.44277 0.6366 0.50832 0.0
C109 C 0.34162 0.63047 0.51026 0.0
C110 C 0.50264 0.59324 0.50551 0.0
C111 C 0.46293 0.54281 0.50532 0.0
C112 C 0.36158 0.53717 0.50761 0.0
C113 C 0.30163 0.58038 0.5096 0.0
C114 C 0.5431 0.40718 0.47858 0.0
C115 C 0.64623 0.40772 0.49948 0.0
C116 C 0.48408 0.45108 0.47997 0.0
C117 C 0.52644 0.49623 0.50313 0.0
C118 C 0.62975 0.49612 0.52463 0.0
C119 C 0.689 0.45252 0.5225 0.0
H120 H 0.25802 0.07922 1.00054 0.0
H121 H 0.0023 0.177 1.00091 0.0
H122 H 0.15412 1.00292 1.00062 0.0
H123 H 0.8986 0.10058 0.00373 0.0
H124 H 0.71134 0.95664 0.96328 0.0
H125 H 0.81724 0.03178 0.96014 0.0
H126 H 0.07202 0.95085 0.04382 0.0
H127 H 0.96639 0.87484 0.04455 0.0
C128 C 0.17958 0.08435 1.00126 0.0
C129 C 0.13813 0.13406 1.00059 0.0
C130 C 0.1199 0.04048 1.00164 0.0
C131 C 0.01736 0.04511 1.00214 0.0
C132 C 0.97653 0.09516 1.00236 0.0
C133 C 0.03608 0.13911 1.00122 0.0
C134 C 0.79032 0.9549 0.98059 0.0
C135 C 0.83074 0.91003 0.00419 0.0
C136 C 0.851 0.99821 0.97926 0.0
C137 C 0.95347 0.99805 1.00219 0.0
C138 C -0.00598 0.95252 0.0252 0.0
C139 C 0.9335 0.90887 0.02583 0.0
H140 H 0.96457 0.17251 0.51021 0.0
H141 H 0.71055 0.07326 0.51087 0.0
H142 H 0.0681 0.09696 0.50506 0.0
H143 H 0.81469 0.99758 0.50904 0.0
H144 H -0.00082 0.87078 0.46238 0.0
H145 H 0.89392 0.94638 0.46498 0.0
H146 H 0.15275 0.02802 0.54502 0.0
H147 H 0.25795 0.95354 0.53957 0.0
C148 C 0.93122 0.13444 0.5096 0.0
C149 C 0.82955 0.12876 0.51071 0.0
C150 C -0.00927 0.09092 0.50714 0.0
C151 C 0.95045 0.0406 0.50677 0.0
C152 C 0.84848 0.03534 0.50826 0.0
C153 C 0.78868 0.07884 0.50974 0.0
C154 C 0.03302 0.90498 0.48056 0.0
C155 C 0.13658 0.90654 0.50054 0.0
C156 C 0.97273 0.94837 0.48234 0.0
C157 C 0.01433 0.99395 0.50506 0.0
C158 C 0.11789 0.9945 0.52613 0.0
C159 C 0.1783 0.95156 0.52347 0.0
H160 H 0.63846 0.15866 0.3688 0.0
H161 H 0.47225 0.30089 0.36484 0.0
H162 H 0.59134 0.15368 0.28442 0.0
H163 H 0.42659 0.29656 0.28019 0.0
H164 H 0.37436 0.15711 0.1315 0.0
H165 H 0.42604 0.14966 0.2157 0.0
H166 H 0.55318 0.30311 0.22296 0.0
H167 H 0.50318 0.30996 0.13858 0.0
C168 C 0.58872 0.18779 0.34975 0.0
C169 C 0.55748 0.22976 0.37288 0.0
C170 C 0.56286 0.18523 0.30168 0.0
C171 C 0.50747 0.22531 0.27617 0.0
C172 C 0.47082 0.26565 0.29939 0.0
C173 C 0.49509 0.26765 0.34761 0.0
C174 C 0.41789 0.18806 0.15109 0.0
C175 C 0.4371 0.23362 0.12897 0.0
C176 C 0.44599 0.18413 0.19909 0.0
C177 C 0.49133 0.22627 0.22547 0.0
C178 C 0.51682 0.27046 0.20311 0.0
C179 C 0.49035 0.27398 0.15501 0.0
H180 H 0.42101 0.74082 0.1281 0.0
H181 H 0.5967 0.88023 0.16147 0.0
H182 H 0.39739 0.73741 0.20732 0.0
H183 H 0.57751 0.8758 0.24029 0.0
H184 H 0.45352 0.87852 0.36918 0.0
H185 H 0.46647 0.88468 0.28924 0.0
H186 H 0.49511 0.71856 0.28369 0.0
H187 H 0.47771 0.71249 0.36351 0.0
C188 C 0.45293 0.77114 0.15212 0.0
C189 C 0.51032 0.81083 0.13869 0.0
C190 C 0.441 0.76879 0.19766 0.0
C191 C 0.4867 0.80598 0.23047 0.0
C192 C 0.54033 0.84678 0.21609 0.0
C193 C 0.55147 0.84929 0.17077 0.0
C194 C 0.46437 0.8434 0.35113 0.0
C195 C 0.4651 0.79506 0.37256 0.0
C196 C 0.47154 0.84686 0.30518 0.0
C197 C 0.48081 0.80206 0.27971 0.0
C198 C 0.48572 0.75376 0.3019 0.0
C199 C 0.4776 0.7503 0.34785 0.0
H200 H 0.60378 0.88377 0.87517 0.0
H201 H 0.49144 0.72735 0.86222 0.0
H202 H 0.55825 0.89352 0.79096 0.0
H203 H 0.4474 0.73659 0.77793 0.0
H204 H 0.52444 0.74758 0.63747 0.0
H205 H 0.57523 0.75099 0.72199 0.0
H206 H 0.39292 0.88721 0.72192 0.0
H207 H 0.34097 0.88325 0.63767 0.0
C208 C 0.56565 0.85231 0.85416 0.0
C209 C 0.54858 0.80527 0.87454 0.0
C210 C 0.54107 0.85761 0.80627 0.0
C211 C 0.50165 0.81541 0.77844 0.0
C212 C 0.47938 0.76929 0.799 0.0
C213 C 0.50245 0.76432 0.84694 0.0
C214 C 0.49893 0.7794 0.65551 0.0
C215 C 0.42947 0.81527 0.63159 0.0
C216 C 0.52635 0.78085 0.70365 0.0
C217 C 0.48586 0.81873 0.72798 0.0
C218 C 0.42438 0.85757 0.70371 0.0
C219 C 0.39556 0.85555 0.65573 0.0
H220 H 0.51184 0.16891 0.6385 0.0
H221 H 0.4747 0.33452 0.63437 0.0
H222 H 0.49181 0.1674 0.7174 0.0
H223 H 0.4489 0.33306 0.71302 0.0
H224 H 0.51494 0.32155 0.86996 0.0
H225 H 0.5375 0.32228 0.79062 0.0
H226 H 0.38221 0.17557 0.76557 0.0
H227 H 0.36564 0.17372 0.84483 0.0
C228 C 0.49633 0.2049 0.65409 0.0
C229 C 0.49447 0.2518 0.63024 0.0
C230 C 0.4848 0.20412 0.69951 0.0
C231 C 0.46943 0.25019 0.72208 0.0
C232 C 0.4629 0.29694 0.69728 0.0
C233 C 0.47589 0.29775 0.65191 0.0
C234 C 0.48783 0.28908 0.84758 0.0
C235 C 0.43941 0.24742 0.86364 0.0
C236 C 0.49918 0.28978 0.8019 0.0
C237 C 0.46094 0.24916 0.77125 0.0
C238 C 0.41426 0.20717 0.78801 0.0
C239 C 0.40453 0.20612 0.83365 0.0
H240 H 0.74932 0.6831 0.14542 0.0
H241 H 0.03872 0.74726 0.13885 0.0
H242 H 0.80604 0.67267 0.22839 0.0
H243 H 0.09658 0.73496 0.22263 0.0
H244 H 0.18431 0.67107 0.36844 0.0
H245 H 0.12196 0.66085 0.28553 0.0
H246 H 0.85325 0.74527 0.29263 0.0
H247 H 0.91744 0.75694 0.37627 0.0
C248 C 0.82598 0.69409 0.16154 0.0
C249 C 0.88929 0.71687 0.13559 0.0
C250 C 0.85792 0.68818 0.20912 0.0
C251 C 0.95466 0.70377 0.2318 0.0
C252 C 0.02119 0.72273 0.20568 0.0
C253 C -0.01143 0.72945 0.1578 0.0
C254 C 0.11069 0.68648 0.35253 0.0
C255 C 0.05589 0.71532 0.37859 0.0
C256 C 0.07567 0.68087 0.30508 0.0
C257 C 0.98417 0.70313 0.28278 0.0
C258 C 0.92452 0.72789 0.30928 0.0
C259 C 0.96045 0.73416 0.35706 0.0
H260 H 0.94221 0.37336 0.36686 0.0
H261 H 0.01624 0.21107 0.37556 0.0
H262 H 0.95816 0.37525 0.28748 0.0
H263 H 0.0387 0.21332 0.29635 0.0
H264 H 0.96448 0.21851 0.13957 0.0
H265 H 0.9458 0.21767 0.2194 0.0
H266 H 0.06385 0.37345 0.23754 0.0
H267 H 0.07599 0.37504 0.15761 0.0
C268 C 0.96507 0.33835 0.35215 0.0
C269 C 0.9782 0.29208 0.37741 0.0
C270 C 0.97434 0.33938 0.30643 0.0
C271 C -0.00103 0.29432 0.28497 0.0
C272 C 0.01721 0.24851 0.31121 0.0
C273 C 0.00619 0.24733 0.35688 0.0
C274 C 0.98398 0.25285 0.16052 0.0
C275 C 0.0208 0.29694 0.14235 0.0
C276 C 0.97503 0.25217 0.20651 0.0
C277 C 0.00436 0.29531 0.23542 0.0
C278 C 0.03893 0.33973 0.2165 0.0
C279 C 0.04603 0.34069 0.17048 0.0
H280 H -0.00503 0.23377 0.64704 0.0
H281 H 0.8498 0.38266 0.63538 0.0
H282 H 0.03648 0.24206 0.73144 0.0
H283 H 0.89268 0.39153 0.71957 0.0
H284 H 0.103 0.38945 0.87381 0.0
H285 H 0.05344 0.39346 0.78947 0.0
H286 H 0.90783 0.24493 0.7871 0.0
H287 H 0.95608 0.2415 0.87167 0.0
C288 C 0.97617 0.26917 0.66257 0.0
C289 C 0.92104 0.308 0.63523 0.0
C290 C -0.00217 0.27348 0.71063 0.0
C291 C 0.96556 0.31695 0.73162 0.0
C292 C 0.91764 0.3576 0.70404 0.0
C293 C 0.89443 0.35285 0.6561 0.0
C294 C 0.05604 0.35899 0.85521 0.0
C295 C 0.03171 0.31555 0.87879 0.0
C296 C 0.02899 0.36095 0.80714 0.0
C297 C 0.9792 0.31894 0.78216 0.0
C298 C 0.94779 0.27736 0.80589 0.0
C299 C 0.97334 0.27586 0.85409 0.0
H300 H 0.9357 0.80621 0.63386 0.0
H301 H 0.14987 0.6829 0.67527 0.0
H302 H 0.91542 0.81296 0.71342 0.0
H303 H 0.13537 0.69155 0.75438 0.0
H304 H 0.01811 0.68351 0.88521 0.0
H305 H 0.03846 0.67629 0.80649 0.0
H306 H -0.00776 0.84098 0.78808 0.0
H307 H 0.96639 0.84728 0.86644 0.0
C308 C 0.97779 0.78037 0.65987 0.0
C309 C 0.04336 0.74367 0.64815 0.0
C310 C 0.9676 0.78469 0.7057 0.0
C311 C 0.02414 0.75298 0.74092 0.0
C312 C 0.0888 0.71602 0.72858 0.0
C313 C 0.09742 0.71113 0.68292 0.0
C314 C 0.01444 0.71834 0.86467 0.0
C315 C -0.00882 0.76598 0.88214 0.0
C316 C 0.02595 0.71429 0.81925 0.0
C317 C 0.01615 0.75798 0.79019 0.0
C318 C -0.00211 0.80618 0.80871 0.0
C319 C 0.98489 0.81004 0.854 0.0
loop_
_geom_bond_atom_site_label_1
_geom_bond_atom_site_label_2
_geom_bond_distance
_geom_bond_site_symmetry_2
_ccdc_geom_bond_type
Dy0 O4 2.398 . S
Dy0 O5 2.491 . S
Dy0 O6 2.403 . S
Dy0 O7 2.664 1_554 S
Dy0 O11 2.326 . S
Dy0 O15 2.310 . S
Dy0 O16 2.351 1_554 S
C1 O12 1.185 . S
C1 O13 1.355 . S
C2 O4 1.185 . S
C2 O5 1.355 . S
Dy3 O7 2.310 . S
Dy3 O10 2.351 1_556 S
Dy3 O12 2.398 . S
Dy3 O13 2.491 . S
Dy3 O14 2.403 . S
Dy3 O15 2.664 1_556 S
Dy3 O17 2.326 . S
O4 Dy0 2.398 . S
O4 C2 1.185 . S
O5 Dy0 2.491 . S
O5 C2 1.355 . S
O6 Dy0 2.403 . S
O6 C8 1.254 . S
O7 Dy0 2.664 1_556 S
O7 Dy3 2.310 . S
O7 C8 1.268 1_556 S
C8 O6 1.254 . S
C8 O7 1.268 1_554 S
C9 O14 1.254 . S
C9 O15 1.268 1_556 S
O10 Dy3 2.351 1_554 S
O10 C18 1.249 . S
O11 Dy0 2.326 . S
O11 C18 1.267 . S
O12 C1 1.185 . S
O12 Dy3 2.398 . S
O13 C1 1.355 . S
O13 Dy3 2.491 . S
O14 Dy3 2.403 . S
O14 C9 1.254 . S
O15 Dy0 2.310 . S
O15 Dy3 2.664 1_554 S
O15 C9 1.268 1_554 S
O16 Dy0 2.351 1_556 S
O16 C19 1.249 . S
O17 Dy3 2.326 . S
O17 C19 1.267 . S
C18 O10 1.249 . S
C18 O11 1.267 . S
C19 O16 1.249 . S
C19 O17 1.267 . S
Dy20 O24 2.398 . S
Dy20 O25 2.491 . S
Dy20 O26 2.403 . S
Dy20 O27 2.664 1_554 S
Dy20 O31 2.326 . S
Dy20 O35 2.310 . S
Dy20 O36 2.351 1_554 S
C21 O32 1.185 . S
C21 O33 1.355 . S
C22 O24 1.185 . S
C22 O25 1.355 . S
Dy23 O27 2.310 . S
Dy23 O30 2.351 1_556 S
Dy23 O32 2.398 . S
Dy23 O33 2.491 . S
Dy23 O34 2.403 . S
Dy23 O35 2.664 1_556 S
Dy23 O37 2.326 . S
O24 Dy20 2.398 . S
O24 C22 1.185 . S
O25 Dy20 2.491 . S
O25 C22 1.355 . S
O26 Dy20 2.403 . S
O26 C28 1.254 . S
O27 Dy20 2.664 1_556 S
O27 Dy23 2.310 . S
O27 C28 1.268 1_556 S
C28 O26 1.254 . S
C28 O27 1.268 1_554 S
C29 O34 1.254 . S
C29 O35 1.268 1_556 S
O30 Dy23 2.351 1_554 S
O30 C38 1.249 . S
O31 Dy20 2.326 . S
O31 C38 1.267 . S
O32 C21 1.185 . S
O32 Dy23 2.398 . S
O33 C21 1.355 . S
O33 Dy23 2.491 . S
O34 Dy23 2.403 . S
O34 C29 1.254 . S
O35 Dy20 2.310 . S
O35 Dy23 2.664 1_554 S
O35 C29 1.268 1_554 S
O36 Dy20 2.351 1_556 S
O36 C39 1.249 . S
O37 Dy23 2.326 . S
O37 C39 1.267 . S
C38 O30 1.249 . S
C38 O31 1.267 . S
C39 O36 1.249 . S
C39 O37 1.267 . S
Dy40 O44 2.398 . S
Dy40 O45 2.491 . S
Dy40 O46 2.403 . S
Dy40 O47 2.664 . S
Dy40 O51 2.326 . S
Dy40 O55 2.310 . S
Dy40 O56 2.351 . S
C41 O52 1.185 . S
C41 O53 1.355 . S
C42 O44 1.185 . S
C42 O45 1.355 . S
Dy43 O47 2.310 . S
Dy43 O50 2.351 . S
Dy43 O52 2.398 . S
Dy43 O53 2.491 . S
Dy43 O54 2.403 . S
Dy43 O55 2.664 . S
Dy43 O57 2.326 . S
O44 Dy40 2.398 . S
O44 C42 1.185 . S
O45 Dy40 2.491 . S
O45 C42 1.355 . S
O46 Dy40 2.403 . S
O46 C48 1.254 . S
O47 Dy40 2.664 . S
O47 Dy43 2.310 . S
O47 C48 1.268 . S
C48 O46 1.254 . S
C48 O47 1.268 . S
C49 O54 1.254 . S
C49 O55 1.268 . S
O50 Dy43 2.351 . S
O50 C58 1.249 . S
O51 Dy40 2.326 . S
O51 C58 1.267 . S
O52 C41 1.185 . S
O52 Dy43 2.398 . S
O53 C41 1.355 . S
O53 Dy43 2.491 . S
O54 Dy43 2.403 . S
O54 C49 1.254 . S
O55 Dy40 2.310 . S
O55 Dy43 2.664 . S
O55 C49 1.268 . S
O56 Dy40 2.351 . S
O56 C59 1.249 . S
O57 Dy43 2.326 . S
O57 C59 1.267 . S
C58 O50 1.249 . S
C58 O51 1.267 . S
C59 O56 1.249 . S
C59 O57 1.267 . S
Dy60 O64 2.398 . S
Dy60 O65 2.491 . S
Dy60 O66 2.403 . S
Dy60 O67 2.664 . S
Dy60 O71 2.326 . S
Dy60 O75 2.310 . S
Dy60 O76 2.351 . S
C61 O72 1.185 . S
C61 O73 1.355 . S
C62 O64 1.185 . S
C62 O65 1.355 . S
Dy63 O67 2.310 . S
Dy63 O70 2.351 . S
Dy63 O72 2.398 . S
Dy63 O73 2.491 . S
Dy63 O74 2.403 . S
Dy63 O75 2.664 . S
Dy63 O77 2.326 . S
O64 Dy60 2.398 . S
O64 C62 1.185 . S
O65 Dy60 2.491 . S
O65 C62 1.355 . S
O66 Dy60 2.403 . S
O66 C68 1.254 . S
O67 Dy60 2.664 . S
O67 Dy63 2.310 . S
O67 C68 1.268 . S
C68 O66 1.254 . S
C68 O67 1.268 . S
C69 O74 1.254 . S
C69 O75 1.268 . S
O70 Dy63 2.351 . S
O70 C78 1.249 . S
O71 Dy60 2.326 . S
O71 C78 1.267 . S
O72 C61 1.185 . S
O72 Dy63 2.398 . S
O73 C61 1.355 . S
O73 Dy63 2.491 . S
O74 Dy63 2.403 . S
O74 C69 1.254 . S
O75 Dy60 2.310 . S
O75 Dy63 2.664 . S
O75 C69 1.268 . S
O76 Dy60 2.351 . S
O76 C79 1.249 . S
O77 Dy63 2.326 . S
O77 C79 1.267 . S
C78 O70 1.249 . S
C78 O71 1.267 . S
C79 O76 1.249 . S
C79 O77 1.267 . S
H80 C88 0.950 . S
H81 C93 0.950 . S
H82 C90 0.950 . S
H83 C92 0.950 . S
H84 C94 0.950 . S
H85 C96 0.950 . S
H86 C98 0.950 . S
H87 C99 0.950 . S
C88 H80 0.950 . S
C88 C89 1.387 1_554 S
C88 C90 1.391 . S
C89 C88 1.387 1_556 S
C89 C93 1.391 . S
C90 H82 0.950 . S
C90 C88 1.391 . S
C90 C91 1.401 . S
C91 C90 1.401 . S
C91 C92 1.398 1_554 S
C91 C97 1.491 . S
C92 H83 0.950 . S
C92 C91 1.398 1_556 S
C92 C93 1.391 . S
C93 H81 0.950 . S
C93 C89 1.391 . S
C93 C92 1.391 . S
C94 H84 0.950 . S
C94 C95 1.386 1_556 S
C94 C96 1.391 . S
C95 C94 1.386 1_554 S
C95 C99 1.393 . S
C96 H85 0.950 . S
C96 C94 1.391 . S
C96 C97 1.400 1_556 S
C97 C91 1.491 . S
C97 C96 1.400 1_554 S
C97 C98 1.398 . S
C98 H86 0.950 . S
C98 C97 1.398 . S
C98 C99 1.391 . S
C99 H87 0.950 . S
C99 C95 1.393 . S
C99 C98 1.391 . S
H100 C108 0.950 . S
H101 C113 0.950 . S
H102 C110 0.950 . S
H103 C112 0.950 . S
H104 C114 0.950 . S
H105 C116 0.950 . S
H106 C118 0.950 . S
H107 C119 0.950 . S
C108 H100 0.950 . S
C108 C109 1.386 . S
C108 C110 1.391 . S
C109 C108 1.386 . S
C109 C113 1.393 . S
C110 H102 0.950 . S
C110 C108 1.391 . S
C110 C111 1.400 . S
C111 C110 1.400 . S
C111 C112 1.398 . S
C111 C117 1.491 . S
C112 H103 0.950 . S
C112 C111 1.398 . S
C112 C113 1.391 . S
C113 H101 0.950 . S
C113 C109 1.393 . S
C113 C112 1.391 . S
C114 H104 0.950 . S
C114 C115 1.386 . S
C114 C116 1.391 . S
C115 C114 1.386 . S
C115 C119 1.393 . S
C116 H105 0.950 . S
C116 C114 1.391 . S
C116 C117 1.400 . S
C117 C111 1.491 . S
C117 C116 1.400 . S
C117 C118 1.398 . S
C118 H106 0.950 . S
C118 C117 1.398 . S
C118 C119 1.391 . S
C119 H107 0.950 . S
C119 C115 1.393 . S
C119 C118 1.391 . S
H120 C128 0.950 . S
H121 C133 0.950 . S
H122 C130 0.950 1_565 S
H123 C132 0.950 . S
H124 C134 0.950 . S
H125 C136 0.950 1_545 S
H126 C138 0.950 . S
H127 C139 0.950 . S
C128 H120 0.950 . S
C128 C129 1.386 1_556 S
C128 C130 1.391 . S
C129 C128 1.386 1_554 S
C129 C133 1.393 . S
C130 H122 0.950 1_545 S
C130 C128 1.391 . S
C130 C131 1.400 1_556 S
C131 C130 1.400 1_554 S
C131 C132 1.398 1_455 S
C131 C137 1.491 1_444 S
C132 H123 0.950 . S
C132 C131 1.398 1_655 S
C132 C133 1.391 1_655 S
C133 H121 0.950 . S
C133 C129 1.393 . S
C133 C132 1.391 1_455 S
C134 H124 0.950 . S
C134 C135 1.386 1_554 S
C134 C136 1.391 . S
C135 C134 1.386 1_556 S
C135 C139 1.393 . S
C136 H125 0.950 1_565 S
C136 C134 1.391 . S
C136 C137 1.398 1_554 S
C137 C131 1.491 1_666 S
C137 C136 1.398 1_556 S
C137 C138 1.400 1_655 S
C138 H126 0.950 . S
C138 C137 1.400 1_455 S
C138 C139 1.391 1_455 S
C139 H127 0.950 . S
C139 C135 1.393 . S
C139 C138 1.391 1_655 S
H140 C148 0.950 1_455 S
H141 C153 0.950 . S
H142 C150 0.950 . S
H143 C152 0.950 1_565 S
H144 C154 0.950 1_655 S
H145 C156 0.950 . S
H146 C158 0.950 1_545 S
H147 C159 0.950 . S
C148 H140 0.950 1_655 S
C148 C149 1.386 . S
C148 C150 1.391 1_655 S
C149 C148 1.386 . S
C149 C153 1.393 . S
C150 H142 0.950 . S
C150 C148 1.391 1_455 S
C150 C151 1.400 1_455 S
C151 C150 1.400 1_655 S
C151 C152 1.398 . S
C151 C157 1.491 1_645 S
C152 H143 0.950 1_545 S
C152 C151 1.398 . S
C152 C153 1.391 . S
C153 H141 0.950 . S
C153 C149 1.393 . S
C153 C152 1.391 . S
C154 H144 0.950 1_455 S
C154 C155 1.386 . S
C154 C156 1.391 1_455 S
C155 C154 1.386 . S
C155 C159 1.393 . S
C156 H145 0.950 . S
C156 C154 1.391 1_655 S
C156 C157 1.400 1_655 S
C157 C151 1.491 1_465 S
C157 C156 1.400 1_455 S
C157 C158 1.398 . S
C158 H146 0.950 1_565 S
C158 C157 1.398 . S
C158 C159 1.391 . S
C159 H147 0.950 . S
C159 C155 1.393 . S
C159 C158 1.391 . S
H160 C168 0.950 . S
H161 C173 0.950 . S
H162 C170 0.950 . S
H163 C172 0.950 . S
H164 C174 0.950 . S
H165 C176 0.950 . S
H166 C178 0.950 . S
H167 C179 0.950 . S
C168 H160 0.950 . S
C168 C169 1.386 . S
C168 C170 1.391 . S
C169 C168 1.386 . S
C169 C173 1.393 . S
C170 H162 0.950 . S
C170 C168 1.391 . S
C170 C171 1.400 . S
C171 C170 1.400 . S
C171 C172 1.398 . S
C171 C177 1.491 . S
C172 H163 0.950 . S
C172 C171 1.398 . S
C172 C173 1.391 . S
C173 H161 0.950 . S
C173 C169 1.393 . S
C173 C172 1.391 . S
C174 H164 0.950 . S
C174 C175 1.386 . S
C174 C176 1.391 . S
C175 C174 1.386 . S
C175 C179 1.393 . S
C176 H165 0.950 . S
C176 C174 1.391 . S
C176 C177 1.400 . S
C177 C171 1.491 . S
C177 C176 1.400 . S
C177 C178 1.398 . S
C178 H166 0.950 . S
C178 C177 1.398 . S
C178 C179 1.391 . S
C179 H167 0.950 . S
C179 C175 1.393 . S
C179 C178 1.391 . S
H180 C188 0.950 . S
H181 C193 0.950 . S
H182 C190 0.950 . S
H183 C192 0.950 . S
H184 C194 0.950 . S
H185 C196 0.950 . S
H186 C198 0.950 . S
H187 C199 0.950 . S
C188 H180 0.950 . S
C188 C189 1.386 . S
C188 C190 1.391 . S
C189 C188 1.386 . S
C189 C193 1.393 . S
C190 H182 0.950 . S
C190 C188 1.391 . S
C190 C191 1.400 . S
C191 C190 1.400 . S
C191 C192 1.398 . S
C191 C197 1.491 . S
C192 H183 0.950 . S
C192 C191 1.398 . S
C192 C193 1.391 . S
C193 H181 0.950 . S
C193 C189 1.393 . S
C193 C192 1.391 . S
C194 H184 0.950 . S
C194 C195 1.386 . S
C194 C196 1.391 . S
C195 C194 1.386 . S
C195 C199 1.393 . S
C196 H185 0.950 . S
C196 C194 1.391 . S
C196 C197 1.400 . S
C197 C191 1.491 . S
C197 C196 1.400 . S
C197 C198 1.398 . S
C198 H186 0.950 . S
C198 C197 1.398 . S
C198 C199 1.391 . S
C199 H187 0.950 . S
C199 C195 1.393 . S
C199 C198 1.391 . S
H200 C208 0.950 . S
H201 C213 0.950 . S
H202 C210 0.950 . S
H203 C212 0.950 . S
H204 C214 0.950 . S
H205 C216 0.950 . S
H206 C218 0.950 . S
H207 C219 0.950 . S
C208 H200 0.950 . S
C208 C209 1.386 . S
C208 C210 1.391 . S
C209 C208 1.386 . S
C209 C213 1.393 . S
C210 H202 0.950 . S
C210 C208 1.391 . S
C210 C211 1.400 . S
C211 C210 1.400 . S
C211 C212 1.398 . S
C211 C217 1.491 . S
C212 H203 0.950 . S
C212 C211 1.398 . S
C212 C213 1.391 . S
C213 H201 0.950 . S
C213 C209 1.393 . S
C213 C212 1.391 . S
C214 H204 0.950 . S
C214 C215 1.386 . S
C214 C216 1.391 . S
C215 C214 1.386 . S
C215 C219 1.393 . S
C216 H205 0.950 . S
C216 C214 1.391 . S
C216 C217 1.400 . S
C217 C211 1.491 . S
C217 C216 1.400 . S
C217 C218 1.398 . S
C218 H206 0.950 . S
C218 C217 1.398 . S
C218 C219 1.391 . S
C219 H207 0.950 . S
C219 C215 1.393 . S
C219 C218 1.391 . S
H220 C228 0.950 . S
H221 C233 0.950 . S
H222 C230 0.950 . S
H223 C232 0.950 . S
H224 C234 0.950 . S
H225 C236 0.950 . S
H226 C238 0.950 . S
H227 C239 0.950 . S
C228 H220 0.950 . S
C228 C229 1.386 . S
C228 C230 1.391 . S
C229 C228 1.386 . S
C229 C233 1.393 . S
C230 H222 0.950 . S
C230 C228 1.391 . S
C230 C231 1.400 . S
C231 C230 1.400 . S
C231 C232 1.398 . S
C231 C237 1.491 . S
C232 H223 0.950 . S
C232 C231 1.398 . S
C232 C233 1.391 . S
C233 H221 0.950 . S
C233 C229 1.393 . S
C233 C232 1.391 . S
C234 H224 0.950 . S
C234 C235 1.386 . S
C234 C236 1.391 . S
C235 C234 1.386 . S
C235 C239 1.393 . S
C236 H225 0.950 . S
C236 C234 1.391 . S
C236 C237 1.400 . S
C237 C231 1.491 . S
C237 C236 1.400 . S
C237 C238 1.398 . S
C238 H226 0.950 . S
C238 C237 1.398 . S
C238 C239 1.391 . S
C239 H227 0.950 . S
C239 C235 1.393 . S
C239 C238 1.391 . S
H240 C248 0.950 . S
H241 C253 0.950 1_455 S
H242 C250 0.950 . S
H243 C252 0.950 . S
H244 C254 0.950 . S
H245 C256 0.950 . S
H246 C258 0.950 . S
H247 C259 0.950 1_655 S
C248 H240 0.950 . S
C248 C249 1.386 . S
C248 C250 1.391 . S
C249 C248 1.386 . S
C249 C253 1.393 . S
C250 H242 0.950 . S
C250 C248 1.391 . S
C250 C251 1.400 . S
C251 C250 1.400 . S
C251 C252 1.398 1_655 S
C251 C257 1.491 1_655 S
C252 H243 0.950 . S
C252 C251 1.398 1_455 S
C252 C253 1.391 1_455 S
C253 H241 0.950 1_655 S
C253 C249 1.393 . S
C253 C252 1.391 1_655 S
C254 H244 0.950 . S
C254 C255 1.386 . S
C254 C256 1.391 . S
C255 C254 1.386 . S
C255 C259 1.393 . S
C256 H245 0.950 . S
C256 C254 1.391 . S
C256 C257 1.400 . S
C257 C251 1.491 1_455 S
C257 C256 1.400 . S
C257 C258 1.398 1_455 S
C258 H246 0.950 . S
C258 C257 1.398 1_655 S
C258 C259 1.391 1_655 S
C259 H247 0.950 1_455 S
C259 C255 1.393 . S
C259 C258 1.391 1_455 S
H260 C268 0.950 . S
H261 C273 0.950 . S
H262 C270 0.950 . S
H263 C272 0.950 . S
H264 C274 0.950 . S
H265 C276 0.950 . S
H266 C278 0.950 . S
H267 C279 0.950 . S
C268 H260 0.950 . S
C268 C269 1.386 1_455 S
C268 C270 1.391 . S
C269 C268 1.386 1_655 S
C269 C273 1.393 . S
C270 H262 0.950 . S
C270 C268 1.391 . S
C270 C271 1.400 1_455 S
C271 C270 1.400 1_655 S
C271 C272 1.398 . S
C271 C277 1.491 1_655 S
C272 H263 0.950 . S
C272 C271 1.398 . S
C272 C273 1.391 . S
C273 H261 0.950 . S
C273 C269 1.393 . S
C273 C272 1.391 . S
C274 H264 0.950 . S
C274 C275 1.386 1_655 S
C274 C276 1.391 . S
C275 C274 1.386 1_455 S
C275 C279 1.393 . S
C276 H265 0.950 . S
C276 C274 1.391 . S
C276 C277 1.400 1_655 S
C277 C271 1.491 1_455 S
C277 C276 1.400 1_455 S
C277 C278 1.398 . S
C278 H266 0.950 . S
C278 C277 1.398 . S
C278 C279 1.391 . S
C279 H267 0.950 . S
C279 C275 1.393 . S
C279 C278 1.391 . S
H280 C288 0.950 . S
H281 C293 0.950 . S
H282 C290 0.950 . S
H283 C292 0.950 . S
H284 C294 0.950 . S
H285 C296 0.950 . S
H286 C298 0.950 . S
H287 C299 0.950 . S
C288 H280 0.950 . S
C288 C289 1.386 . S
C288 C290 1.391 . S
C289 C288 1.386 . S
C289 C293 1.393 1_655 S
C290 H282 0.950 . S
C290 C288 1.391 . S
C290 C291 1.400 . S
C291 C290 1.400 . S
C291 C292 1.398 1_655 S
C291 C297 1.491 1_655 S
C292 H283 0.950 . S
C292 C291 1.398 1_455 S
C292 C293 1.391 . S
C293 H281 0.950 . S
C293 C289 1.393 1_455 S
C293 C292 1.391 . S
C294 H284 0.950 . S
C294 C295 1.386 . S
C294 C296 1.391 . S
C295 C294 1.386 . S
C295 C299 1.393 1_455 S
C296 H285 0.950 . S
C296 C294 1.391 . S
C296 C297 1.400 . S
C297 C291 1.491 1_455 S
C297 C296 1.400 . S
C297 C298 1.398 1_455 S
C298 H286 0.950 . S
C298 C297 1.398 1_655 S
C298 C299 1.391 . S
C299 H287 0.950 . S
C299 C295 1.393 1_655 S
C299 C298 1.391 . S
H300 C308 0.950 . S
H301 C313 0.950 . S
H302 C310 0.950 . S
H303 C312 0.950 . S
H304 C314 0.950 . S
H305 C316 0.950 . S
H306 C318 0.950 . S
H307 C319 0.950 . S
C308 H300 0.950 . S
C308 C309 1.386 1_655 S
C308 C310 1.391 . S
C309 C308 1.386 1_455 S
C309 C313 1.393 . S
C310 H302 0.950 . S
C310 C308 1.391 . S
C310 C311 1.400 1_655 S
C311 C310 1.400 1_455 S
C311 C312 1.398 . S
C311 C317 1.491 1_455 S
C312 H303 0.950 . S
C312 C311 1.398 . S
C312 C313 1.391 . S
C313 H301 0.950 . S
C313 C309 1.393 . S
C313 C312 1.391 . S
C314 H304 0.950 . S
C314 C315 1.386 1_455 S
C314 C316 1.391 . S
C315 C314 1.386 1_655 S
C315 C319 1.393 . S
C316 H305 0.950 . S
C316 C314 1.391 . S
C316 C317 1.400 1_455 S
C317 C311 1.491 1_655 S
C317 C316 1.400 1_655 S
C317 C318 1.398 . S
C318 H306 0.950 . S
C318 C317 1.398 . S
C318 C319 1.391 . S
C319 H307 0.950 . S
C319 C315 1.393 . S
C319 C318 1.391 . S
C89 C29 1.521 . S
C95 C8 1.522 . S
C109 C49 1.516 . S
C115 C68 1.516 . S
C129 C9 1.525 1_554 S
C135 C28 1.525 1_556 S
C149 C69 1.518 . S
C155 C48 1.518 . S
C169 C78 1.240 . S
C175 C18 1.223 . S
C189 C22 1.184 . S
C195 C42 1.184 . S
C209 C39 1.227 . S
C215 C59 1.233 . S
C229 C61 1.184 . S
C235 C1 1.184 . S
C249 C38 1.240 . S
C255 C58 1.222 . S
C269 C62 1.183 . S
C275 C2 1.183 . S
C289 C79 1.224 . S
C295 C19 1.240 . S
C309 C41 1.182 . S
C315 C21 1.182 . S
