# Generated by pormake.
# Topology zfl, (5)-cn, num edge types: 1
# Building blocks:
#     Node 0, Type 0, BuildingBlock: BEQFEK_clean_sbu_0, # of connection points: 5
#     Node 1, Type 0, BuildingBlock: BEQFEK_clean_sbu_0, # of connection points: 5
#     Node 2, Type 0, BuildingBlock: BEQFEK_clean_sbu_0, # of connection points: 5
#     Node 3, Type 0, BuildingBlock: BEQFEK_clean_sbu_0, # of connection points: 5
#     Node 4, Type 0, BuildingBlock: BEQFEK_clean_sbu_0, # of connection points: 5
#     Node 5, Type 0, BuildingBlock: BEQFEK_clean_sbu_0, # of connection points: 5
#     Node 6, Type 0, BuildingBlock: BEQFEK_clean_sbu_0, # of connection points: 5
#     Node 7, Type 0, BuildingBlock: BEQFEK_clean_sbu_0, # of connection points: 5
#     Node 8, Type 0, BuildingBlock: BEQFEK_clean_sbu_0, # of connection points: 5
#     Node 9, Type 0, BuildingBlock: BEQFEK_clean_sbu_0, # of connection points: 5
#     Node 10, Type 0, BuildingBlock: BEQFEK_clean_sbu_0, # of connection points: 5
#     Node 11, Type 0, BuildingBlock: BEQFEK_clean_sbu_0, # of connection points: 5
#     Node 12, Type 0, BuildingBlock: BEQFEK_clean_sbu_0, # of connection points: 5
#     Node 13, Type 0, BuildingBlock: BEQFEK_clean_sbu_0, # of connection points: 5
#     Node 14, Type 0, BuildingBlock: BEQFEK_clean_sbu_0, # of connection points: 5
#     Node 15, Type 0, BuildingBlock: BEQFEK_clean_sbu_0, # of connection points: 5
#     Edge 16, Type (0, 0), BuildingBlock: MIFKUJ_clean_linker_0, # of connection points: 2
#     Edge 17, Type (0, 0), BuildingBlock: MIFKUJ_clean_linker_0, # of connection points: 2
#     Edge 18, Type (0, 0), BuildingBlock: MIFKUJ_clean_linker_0, # of connection points: 2
#     Edge 19, Type (0, 0), BuildingBlock: MIFKUJ_clean_linker_0, # of connection points: 2
#     Edge 20, Type (0, 0), BuildingBlock: MIFKUJ_clean_linker_0, # of connection points: 2
#     Edge 21, Type (0, 0), BuildingBlock: MIFKUJ_clean_linker_0, # of connection points: 2
#     Edge 22, Type (0, 0), BuildingBlock: MIFKUJ_clean_linker_0, # of connection points: 2
#     Edge 23, Type (0, 0), BuildingBlock: MIFKUJ_clean_linker_0, # of connection points: 2
#     Edge 24, Type (0, 0), BuildingBlock: MIFKUJ_clean_linker_0, # of connection points: 2
#     Edge 25, Type (0, 0), BuildingBlock: MIFKUJ_clean_linker_0, # of connection points: 2
#     Edge 26, Type (0, 0), BuildingBlock: MIFKUJ_clean_linker_0, # of connection points: 2
#     Edge 27, Type (0, 0), BuildingBlock: MIFKUJ_clean_linker_0, # of connection points: 2
#     Edge 28, Type (0, 0), BuildingBlock: MIFKUJ_clean_linker_0, # of connection points: 2
#     Edge 29, Type (0, 0), BuildingBlock: MIFKUJ_clean_linker_0, # of connection points: 2
#     Edge 30, Type (0, 0), BuildingBlock: MIFKUJ_clean_linker_0, # of connection points: 2
#     Edge 31, Type (0, 0), BuildingBlock: MIFKUJ_clean_linker_0, # of connection points: 2
#     Edge 32, Type (0, 0), BuildingBlock: MIFKUJ_clean_linker_0, # of connection points: 2
#     Edge 33, Type (0, 0), BuildingBlock: MIFKUJ_clean_linker_0, # of connection points: 2
#     Edge 34, Type (0, 0), BuildingBlock: MIFKUJ_clean_linker_0, # of connection points: 2
#     Edge 35, Type (0, 0), BuildingBlock: MIFKUJ_clean_linker_0, # of connection points: 2
#     Edge 36, Type (0, 0), BuildingBlock: MIFKUJ_clean_linker_0, # of connection points: 2
#     Edge 37, Type (0, 0), BuildingBlock: MIFKUJ_clean_linker_0, # of connection points: 2
#     Edge 38, Type (0, 0), BuildingBlock: MIFKUJ_clean_linker_0, # of connection points: 2
#     Edge 39, Type (0, 0), BuildingBlock: MIFKUJ_clean_linker_0, # of connection points: 2
#     Edge 40, Type (0, 0), BuildingBlock: MIFKUJ_clean_linker_0, # of connection points: 2
#     Edge 41, Type (0, 0), BuildingBlock: MIFKUJ_clean_linker_0, # of connection points: 2
#     Edge 42, Type (0, 0), BuildingBlock: MIFKUJ_clean_linker_0, # of connection points: 2
#     Edge 43, Type (0, 0), BuildingBlock: MIFKUJ_clean_linker_0, # of connection points: 2
#     Edge 44, Type (0, 0), BuildingBlock: MIFKUJ_clean_linker_0, # of connection points: 2
#     Edge 45, Type (0, 0), BuildingBlock: MIFKUJ_clean_linker_0, # of connection points: 2
#     Edge 46, Type (0, 0), BuildingBlock: MIFKUJ_clean_linker_0, # of connection points: 2
#     Edge 47, Type (0, 0), BuildingBlock: MIFKUJ_clean_linker_0, # of connection points: 2
#     Edge 48, Type (0, 0), BuildingBlock: MIFKUJ_clean_linker_0, # of connection points: 2
#     Edge 49, Type (0, 0), BuildingBlock: MIFKUJ_clean_linker_0, # of connection points: 2
#     Edge 50, Type (0, 0), BuildingBlock: MIFKUJ_clean_linker_0, # of connection points: 2
#     Edge 51, Type (0, 0), BuildingBlock: MIFKUJ_clean_linker_0, # of connection points: 2
#     Edge 52, Type (0, 0), BuildingBlock: MIFKUJ_clean_linker_0, # of connection points: 2
#     Edge 53, Type (0, 0), BuildingBlock: MIFKUJ_clean_linker_0, # of connection points: 2
#     Edge 54, Type (0, 0), BuildingBlock: MIFKUJ_clean_linker_0, # of connection points: 2
#     Edge 55, Type (0, 0), BuildingBlock: MIFKUJ_clean_linker_0, # of connection points: 2
# Relax obj value: 0.204
# Max RMSD: 0.235
# Mean RMSD: 0.222
data_MOF--net-zfl--node1-BEQFEK_clean_sbu_0--edge1-MIFKUJ_clean_linker_0
_symmetry_space_group_name_H-M    P1
_symmetry_Int_Tables_number       1
_symmetry_cell_setting            triclinic
loop_
_symmetry_equiv_pos_as_xyz
'x, y, z'
_cell_length_a     35.030384
_cell_length_b     35.01132
_cell_length_c     94.386192
_cell_angle_alpha  90.018471
_cell_angle_beta   89.98618
_cell_angle_gamma 90.030395
loop_
_atom_site_label
_atom_site_type_symbol
_atom_site_fract_x
_atom_site_fract_y
_atom_site_fract_z
_atom_type_partial_charge
Co0 Co 0.55766 0.04165 0.15013 0.0
Co1 Co 0.57314 0.04218 0.11698 0.0
C2 C 0.49942 0.07039 0.12963 0.0
O3 O 0.50921 0.06263 0.14232 0.0
O4 O 0.5216 0.06379 0.11924 0.0
C5 C 0.51977 0.02261 0.17658 0.0
O6 O 0.49066 0.01525 0.16823 0.0
C7 C 0.55694 0.02443 0.08707 0.0
C8 C 0.6128 0.03455 0.07689 0.0
C9 C 0.57552 0.02364 0.07405 0.0
N10 N 0.58206 0.03537 0.09707 0.0
N11 N 0.61532 0.0416 0.09088 0.0
C12 C 0.51673 0.01285 0.09022 0.0
H13 H 0.51448 0.00204 0.10124 0.0
H14 H 0.50689 0.99058 0.08268 0.0
H15 H 0.4979 0.03818 0.08918 0.0
C16 C 0.57699 0.95941 0.14565 0.0
N17 N 0.57137 0.9952 0.1408 0.0
N18 N 0.57879 0.99596 0.12712 0.0
C19 C 0.5902 0.96108 0.1229 0.0
C20 C 0.5893 0.93661 0.13446 0.0
C21 C 0.56805 0.9471 0.16048 0.0
H22 H 0.5867 0.96278 0.16799 0.0
H23 H 0.53805 0.95454 0.16293 0.0
H24 H 0.57158 0.91594 0.16201 0.0
O25 O 0.599 0.08091 0.14739 0.0
O26 O 0.60983 0.07993 0.12417 0.0
H27 H 0.62422 0.97485 0.10478 0.0
H28 H 0.61939 0.92442 0.10784 0.0
C29 C 0.60426 0.9522 0.10828 0.0
H30 H 0.57969 0.95157 0.10087 0.0
H31 H 0.6399 0.05045 0.09625 0.0
O32 O 0.5511 0.03374 0.17111 0.0
C33 C 0.61691 0.09304 0.13648 0.0
Co34 Co 0.45485 0.55591 0.65485 0.0
Co35 Co 0.45372 0.56035 0.62122 0.0
C36 C 0.42915 0.48991 0.63645 0.0
O37 O 0.4352 0.50553 0.64844 0.0
O38 O 0.43575 0.50772 0.62494 0.0
C39 C 0.48208 0.52396 0.68092 0.0
O40 O 0.49639 0.49819 0.6723 0.0
C41 C 0.45627 0.54464 0.5901 0.0
C42 C 0.47477 0.60071 0.58189 0.0
C43 C 0.46602 0.56383 0.57765 0.0
N44 N 0.46024 0.56887 0.60112 0.0
N45 N 0.47074 0.60246 0.59606 0.0
C46 C 0.43961 0.50547 0.59145 0.0
H47 H 0.41568 0.50613 0.59913 0.0
H48 H 0.46174 0.48564 0.59551 0.0
H49 H 0.42847 0.4948 0.58119 0.0
C50 C 0.535 0.57996 0.64977 0.0
N51 N 0.50014 0.56972 0.64507 0.0
N52 N 0.50024 0.56977 0.6311 0.0
C53 C 0.53557 0.57881 0.62653 0.0
C54 C 0.55847 0.58621 0.63819 0.0
C55 C 0.54523 0.58524 0.66503 0.0
H56 H 0.52063 0.59724 0.67093 0.0
H57 H 0.55263 0.55711 0.66968 0.0
H58 H 0.57018 0.60453 0.6662 0.0
O59 O 0.41496 0.5947 0.65135 0.0
O60 O 0.41365 0.59684 0.6278 0.0
H61 H 0.54387 0.60488 0.60629 0.0
H62 H 0.57931 0.56992 0.61076 0.0
C63 C 0.54844 0.57677 0.61142 0.0
H64 H 0.5322 0.55457 0.60561 0.0
H65 H 0.47552 0.62655 0.60232 0.0
O66 O 0.46353 0.5519 0.67573 0.0
C67 C 0.40124 0.6079 0.63984 0.0
Co68 Co 0.93551 0.45954 0.15355 0.0
Co69 Co 0.93115 0.45873 0.11987 0.0
C70 C 0.00112 0.43321 0.13512 0.0
O71 O 0.98549 0.43932 0.1471 0.0
O72 O 0.98349 0.44003 0.12359 0.0
C73 C 0.9691 0.48343 0.17979 0.0
O74 O 0.99632 0.49527 0.17127 0.0
C75 C 0.94786 0.46469 0.08888 0.0
C76 C 0.89011 0.4749 0.08032 0.0
C77 C 0.92799 0.47118 0.0763 0.0
N78 N 0.92287 0.46539 0.09976 0.0
N79 N 0.8884 0.47117 0.09449 0.0
C80 C 0.98887 0.4537 0.09052 0.0
H81 H 0.99054 0.42719 0.09689 0.0
H82 H 0.00426 0.47657 0.09633 0.0
H83 H 0.00293 0.44827 0.0802 0.0
C84 C 0.91489 0.54065 0.14851 0.0
N85 N 0.92276 0.50519 0.14379 0.0
N86 N 0.92252 0.50526 0.12982 0.0
C87 C 0.9157 0.54108 0.12525 0.0
C88 C 0.91028 0.56451 0.13693 0.0
C89 C 0.91426 0.55193 0.1638 0.0
H90 H 0.89996 0.52945 0.17015 0.0
H91 H 0.94402 0.55505 0.16762 0.0
H92 H 0.89935 0.57951 0.16541 0.0
O93 O 0.89614 0.4202 0.14994 0.0
O94 O 0.89433 0.41888 0.12639 0.0
H95 H 0.88793 0.54194 0.10516 0.0
H96 H 0.91524 0.58417 0.10872 0.0
C97 C 0.91466 0.55271 0.11 0.0
H98 H 0.9392 0.53994 0.10428 0.0
H99 H 0.86363 0.47261 0.10061 0.0
O100 O 0.93961 0.46771 0.17448 0.0
C101 C 0.88302 0.40656 0.1384 0.0
Co102 Co 0.04195 0.93839 0.65261 0.0
Co103 Co 0.04676 0.92893 0.61924 0.0
C104 C 0.07523 -0.00059 0.63414 0.0
O105 O 0.06575 0.98715 0.64635 0.0
O106 O 0.06935 0.97959 0.62305 0.0
C107 C 0.02264 0.97432 0.67915 0.0
O108 O 0.01982 0.00483 0.67112 0.0
C109 C 0.03151 0.94659 0.58893 0.0
C110 C 0.05036 0.89302 0.57876 0.0
C111 C 0.03577 0.92894 0.57577 0.0
N112 N 0.04297 0.92206 0.59909 0.0
N113 N 0.05408 0.89011 0.5929 0.0
C114 C 0.01861 0.98657 0.59186 0.0
H115 H 0.98705 0.98792 0.5911 0.0
H116 H 0.03097 0.00656 0.58397 0.0
H117 H 0.02673 0.99559 0.60268 0.0
C118 C 0.95992 0.92295 0.64614 0.0
N119 N 0.9965 0.92804 0.6421 0.0
N120 N 0.99896 0.92289 0.6283 0.0
C121 C 0.96437 0.91332 0.6232 0.0
C122 C 0.93832 0.91332 0.63429 0.0
C123 C 0.9459 0.92972 0.66092 0.0
H124 H 0.95854 0.90809 0.66811 0.0
H125 H 0.95551 0.95827 0.66451 0.0
H126 H 0.91435 0.92863 0.66165 0.0
O127 O 0.08004 0.89612 0.64984 0.0
O128 O 0.08246 0.89019 0.62641 0.0
H129 H 0.98057 0.8829 0.60443 0.0
H130 H 0.92981 0.88574 0.60712 0.0
C131 C 0.95712 0.90154 0.60819 0.0
H132 H 0.95612 0.92732 0.60138 0.0
H133 H 0.06464 0.86642 0.59832 0.0
O134 O 0.0311 0.94249 0.67343 0.0
C135 C 0.09336 0.88014 0.63873 0.0
Co136 Co 0.55846 0.4525 0.85813 0.0
Co137 Co 0.55989 0.45224 0.89175 0.0
C138 C 0.49159 0.4258 0.87587 0.0
O139 O 0.50807 0.43167 0.86404 0.0
O140 O 0.50812 0.43336 0.88755 0.0
C141 C 0.5273 0.47937 0.83199 0.0
O142 O 0.50108 0.49297 0.84058 0.0
C143 C 0.5402 0.45725 0.92243 0.0
C144 C 0.59711 0.46674 0.93187 0.0
C145 C 0.55886 0.46275 0.9353 0.0
N146 N 0.56627 0.45849 0.91192 0.0
N147 N 0.6002 0.46401 0.91769 0.0
C148 C 0.49909 0.44737 0.92016 0.0
H149 H 0.49725 0.42031 0.9141 0.0
H150 H 0.48531 0.4701 0.91377 0.0
H151 H 0.48349 0.44355 0.93028 0.0
C152 C 0.5825 0.53263 0.8633 0.0
N153 N 0.57112 0.49812 0.86799 0.0
N154 N 0.5695 0.49871 0.88192 0.0
C155 C 0.5782 0.53411 0.88651 0.0
C156 C 0.58727 0.5568 0.87487 0.0
C157 C 0.59156 0.54118 0.84813 0.0
H158 H 0.60313 0.51537 0.84285 0.0
H159 H 0.56501 0.54983 0.84258 0.0
H160 H 0.6127 0.56468 0.84725 0.0
O161 O 0.59731 0.41315 0.86208 0.0
O162 O 0.59753 0.41252 0.88565 0.0
H163 H 0.60215 0.54016 0.90721 0.0
H164 H 0.56927 0.57763 0.90243 0.0
C165 C 0.57501 0.54655 0.90164 0.0
H166 H 0.55155 0.53089 0.90697 0.0
H167 H 0.62555 0.46581 0.91192 0.0
O168 O 0.55545 0.46126 0.83723 0.0
C169 C 0.60966 0.39987 0.87378 0.0
Co170 Co 0.03845 0.56221 0.35713 0.0
Co171 Co 0.04198 0.57173 0.39054 0.0
C172 C 0.07167 0.50159 0.37568 0.0
O173 O 0.06217 0.5139 0.36349 0.0
O174 O 0.06541 0.52119 0.3868 0.0
C175 C 0.01839 0.52612 0.33074 0.0
O176 O 0.01244 0.49649 0.339 0.0
C177 C 0.02626 0.55298 0.42077 0.0
C178 C 0.04382 0.60658 0.43122 0.0
C179 C 0.03013 0.57018 0.43406 0.0
N180 N 0.0372 0.57815 0.41074 0.0
N181 N 0.04747 0.61016 0.41709 0.0
C182 C 0.01418 0.51289 0.41758 0.0
H183 H 0.02132 0.50498 0.40655 0.0
H184 H 0.98277 0.51056 0.41878 0.0
H185 H 0.02798 0.49266 0.42504 0.0
C186 C 0.95651 0.57863 0.36298 0.0
N187 N 0.99265 0.57266 0.36734 0.0
N188 N 0.99438 0.57757 0.38117 0.0
C189 C 0.95964 0.58771 0.38598 0.0
C190 C 0.93432 0.5886 0.37464 0.0
C191 C 0.94346 0.57257 0.34804 0.0
H192 H 0.95831 0.59305 0.34096 0.0
H193 H 0.95128 0.54331 0.34466 0.0
H194 H 0.91218 0.57571 0.34684 0.0
O195 O 0.07623 0.60432 0.36011 0.0
O196 O 0.07794 0.61101 0.38354 0.0
H197 H 0.97498 0.61803 0.40486 0.0
H198 H 0.92431 0.61494 0.40194 0.0
C199 C 0.95172 0.59931 0.40097 0.0
H200 H 0.95072 0.57345 0.40774 0.0
H201 H 0.05756 0.63424 0.4118 0.0
O202 O 0.0289 0.55759 0.33627 0.0
C203 C 0.08919 0.62068 0.37121 0.0
Co204 Co 0.93625 0.04222 0.85606 0.0
Co205 Co 0.93433 0.04129 0.88958 0.0
C206 C 0.00147 0.07177 0.87434 0.0
O207 O 0.9855 0.0654 0.86243 0.0
O208 O 0.98524 0.06279 0.88592 0.0
C209 C 0.96698 0.01335 0.82999 0.0
O210 O 0.99029 0.99564 0.83869 0.0
C211 C 0.95353 0.02814 0.91984 0.0
C212 C 0.89626 0.02972 0.92961 0.0
C213 C 0.93462 0.02502 0.93278 0.0
N214 N 0.92745 0.03444 0.90961 0.0
N215 N 0.89334 0.03555 0.91556 0.0
C216 C 0.99511 0.02222 0.91696 0.0
H217 H -0.00054 0.01208 0.90594 0.0
H218 H 0.00742 0.00119 0.92447 0.0
H219 H 0.01033 0.04981 0.91825 0.0
C220 C 0.91338 0.96111 0.86092 0.0
N221 N 0.92494 0.99561 0.86564 0.0
N222 N 0.92649 0.99487 0.87957 0.0
C223 C 0.91747 0.95956 0.88413 0.0
C224 C 0.90828 0.93699 0.87248 0.0
C225 C 0.90379 0.9526 0.84579 0.0
H226 H 0.89354 0.97879 0.8404 0.0
H227 H 0.92976 0.94226 0.84027 0.0
H228 H 0.88151 0.93013 0.84506 0.0
O229 O 0.89524 0.07964 0.85996 0.0
O230 O 0.89554 0.07965 0.88353 0.0
H231 H 0.89364 0.95689 0.90496 0.0
H232 H 0.92246 0.91593 0.90032 0.0
C233 C 0.91972 0.94736 0.89931 0.0
H234 H 0.94483 0.96072 0.90441 0.0
H235 H 0.86799 0.03997 0.91 0.0
O236 O 0.94084 0.03451 0.83511 0.0
C237 C 0.8826 0.09208 0.87177 0.0
Co238 Co 0.45586 0.9403 0.35447 0.0
Co239 Co 0.45353 0.9336 0.38815 0.0
C240 C 0.42879 0.00468 0.37315 0.0
O241 O 0.43505 0.99029 0.36096 0.0
O242 O 0.43525 0.9859 0.38444 0.0
C243 C 0.47959 0.97415 0.32797 0.0
O244 O 0.49046 0.00218 0.33631 0.0
C245 C 0.4607 0.95192 0.41889 0.0
C246 C 0.46176 0.89424 0.42834 0.0
C247 C 0.46313 0.93269 0.43179 0.0
N248 N 0.45865 0.92593 0.40836 0.0
N249 N 0.45908 0.89155 0.41414 0.0
C250 C 0.45561 0.99386 0.41657 0.0
H251 H 0.47775 0.00434 0.40911 0.0
H252 H 0.45661 0.01044 0.42655 0.0
H253 H 0.42731 0.99862 0.41163 0.0
C254 C 0.53727 0.92026 0.36013 0.0
N255 N 0.50132 0.92726 0.36455 0.0
N256 N 0.50027 0.92506 0.37849 0.0
C257 C 0.53553 0.91723 0.38336 0.0
C258 C 0.56012 0.91379 0.37192 0.0
C259 C 0.5499 0.92262 0.34501 0.0
H260 H 0.55083 0.95303 0.34176 0.0
H261 H 0.57867 0.91016 0.34345 0.0
H262 H 0.5291 0.90755 0.33814 0.0
O263 O 0.41613 0.90059 0.35777 0.0
O264 O 0.41434 0.89703 0.38128 0.0
H265 H 0.5293 0.88854 0.40316 0.0
H266 H 0.57622 0.90778 0.40039 0.0
C267 C 0.54534 0.91304 0.39872 0.0
H268 H 0.53664 0.93917 0.40453 0.0
H269 H 0.45733 0.86618 0.40837 0.0
O270 O 0.46476 0.94442 0.33348 0.0
C271 C 0.40229 0.88657 0.36914 0.0
Co272 Co 0.44132 0.95577 0.90147 0.0
Co273 Co 0.42419 0.95333 0.86846 0.0
C274 C 0.49785 0.92404 0.88106 0.0
O275 O 0.48868 0.93369 0.89361 0.0
O276 O 0.47542 0.92985 0.87067 0.0
C277 C 0.4729 0.94554 0.92928 0.0
O278 O 0.49189 0.91822 0.92285 0.0
C279 C 0.4373 0.97332 0.83831 0.0
C280 C 0.3843 0.95224 0.82836 0.0
C281 C 0.41898 0.96948 0.82525 0.0
N282 N 0.41439 0.95913 0.84851 0.0
N283 N 0.38271 0.94673 0.84246 0.0
C284 C 0.47666 0.98818 0.84108 0.0
H285 H 0.48685 0.97933 0.85168 0.0
H286 H 0.47618 0.01985 0.84084 0.0
H287 H 0.49675 0.97794 0.83281 0.0
C288 C 0.42331 0.0375 0.89664 0.0
N289 N 0.42832 0.00161 0.89185 0.0
N290 N 0.41986 0.00039 0.87827 0.0
C291 C 0.40782 0.03514 0.8741 0.0
C292 C 0.40984 0.06001 0.88557 0.0
C293 C 0.43312 0.04999 0.91136 0.0
H294 H 0.45946 0.03534 0.91495 0.0
H295 H 0.43767 0.0813 0.91195 0.0
H296 H 0.40955 0.04188 0.91862 0.0
O297 O 0.39963 0.9171 0.89943 0.0
O298 O 0.38671 0.91705 0.87633 0.0
H299 H 0.37372 0.01869 0.85623 0.0
H300 H 0.37294 0.06912 0.85995 0.0
C301 C 0.39121 0.04326 0.85979 0.0
H302 H 0.4147 0.04759 0.85208 0.0
H303 H 0.36022 0.93395 0.84794 0.0
O304 O 0.44918 0.96537 0.9222 0.0
C305 C 0.38055 0.9048 0.88884 0.0
Co306 Co 0.54015 0.43327 0.4046 0.0
Co307 Co 0.5412 0.43185 0.37097 0.0
C308 C 0.56831 0.4997 0.38657 0.0
O309 O 0.56243 0.48307 0.39839 0.0
O310 O 0.56019 0.48357 0.37487 0.0
C311 C 0.51582 0.46873 0.43017 0.0
O312 O 0.50824 0.49636 0.42119 0.0
C313 C 0.53238 0.44951 0.34033 0.0
C314 C 0.52897 0.39142 0.33125 0.0
C315 C 0.52787 0.42975 0.32764 0.0
N316 N 0.53536 0.42392 0.35093 0.0
N317 N 0.53355 0.3893 0.34538 0.0
C318 C 0.53667 0.49168 0.34236 0.0
H319 H 0.56425 0.49743 0.34772 0.0
H320 H 0.51352 0.50224 0.34937 0.0
H321 H 0.53635 0.50743 0.33218 0.0
C322 C 0.46005 0.40971 0.39901 0.0
N323 N 0.49477 0.42108 0.39454 0.0
N324 N 0.49474 0.42277 0.38061 0.0
C325 C 0.45967 0.41403 0.37579 0.0
C326 C 0.43654 0.40476 0.38727 0.0
C327 C 0.45067 0.40128 0.41416 0.0
H328 H 0.47592 0.38896 0.41958 0.0
H329 H 0.44295 0.4283 0.4196 0.0
H330 H 0.42642 0.38101 0.41501 0.0
O331 O 0.57899 0.3934 0.401 0.0
O332 O 0.58024 0.39451 0.37743 0.0
H333 H 0.45578 0.39106 0.35485 0.0
H334 H 0.41678 0.42231 0.35956 0.0
C335 C 0.44796 0.41758 0.36059 0.0
H336 H 0.46298 0.44197 0.35561 0.0
H337 H 0.53521 0.36416 0.35129 0.0
O338 O 0.5297 0.43764 0.42544 0.0
C339 C 0.59243 0.38159 0.38922 0.0
Co340 Co 0.05832 0.53839 0.90266 0.0
Co341 Co 0.07027 0.54411 0.86934 0.0
C342 C 0.99812 0.57045 0.8834 0.0
O343 O 0.00998 0.56162 0.89573 0.0
O344 O 0.01845 0.56434 0.87246 0.0
C345 C 0.0196 0.51784 0.92848 0.0
O346 O 0.99047 0.51427 0.91981 0.0
C347 C 0.05605 0.52544 0.83913 0.0
C348 C 0.10668 0.55083 0.82885 0.0
C349 C 0.07317 0.53122 0.82596 0.0
N350 N 0.07861 0.54069 0.84922 0.0
N351 N 0.10884 0.55575 0.84298 0.0
C352 C 0.01791 0.50784 0.84207 0.0
H353 H 0.99694 0.51656 0.83387 0.0
H354 H 0.00745 0.51607 0.85271 0.0
H355 H 0.02055 0.47629 0.84182 0.0
C356 C 0.07866 0.4575 0.89632 0.0
N357 N 0.07141 0.49364 0.89218 0.0
N358 N 0.07813 0.4966 0.87849 0.0
C359 C 0.09105 0.46287 0.87359 0.0
C360 C 0.09156 0.43681 0.88467 0.0
C361 C 0.07133 0.44296 0.91098 0.0
H362 H 0.04253 0.45207 0.91444 0.0
H363 H 0.0728 0.41138 0.91157 0.0
H364 H 0.0925 0.45563 0.91836 0.0
O365 O 0.09962 0.57763 0.90056 0.0
O366 O 0.10589 0.5822 0.87713 0.0
H367 H 0.12525 0.43159 0.8584 0.0
H368 H 0.08184 0.45216 0.85156 0.0
C369 C 0.10608 0.45677 0.85891 0.0
H370 H 0.1222 0.48229 0.85538 0.0
H371 H 0.13075 0.56978 0.84834 0.0
O372 O 0.05201 0.52715 0.92342 0.0
C373 C 0.11488 0.59272 0.88961 0.0
Co374 Co 0.95647 0.06415 0.40388 0.0
Co375 Co 0.96197 0.06936 0.37043 0.0
C376 C 0.93318 -0.00072 0.38426 0.0
O377 O 0.93695 0.01451 0.39645 0.0
O378 O 0.94271 0.01711 0.37305 0.0
C379 C 0.98073 0.02907 0.42931 0.0
O380 O 0.99584 0.00538 0.42008 0.0
C381 C 0.9665 0.05738 0.33921 0.0
C382 C 0.99502 0.11062 0.3325 0.0
C383 C 0.98133 0.0761 0.32737 0.0
N384 N 0.97245 0.07937 0.35073 0.0
N385 N 0.98879 0.11145 0.34655 0.0
C386 C 0.94367 0.02126 0.33949 0.0
H387 H 0.92076 0.02347 0.34756 0.0
H388 H 0.9626 0.99708 0.34238 0.0
H389 H 0.93027 0.01551 0.32906 0.0
C390 C 0.0373 0.08789 0.4011 0.0
N391 N 0.00347 0.07799 0.39541 0.0
N392 N 0.00676 0.07665 0.38153 0.0
C393 C 0.04345 0.08319 0.378 0.0
C394 C 0.06398 0.09137 0.39026 0.0
C395 C 0.04308 0.09633 0.4165 0.0
H396 H 0.01637 0.10764 0.42121 0.0
H397 H 0.05088 0.06961 0.4221 0.0
H398 H 0.06633 0.11747 0.41803 0.0
O399 O 0.91808 0.10351 0.39985 0.0
O400 O 0.92109 0.106 0.37632 0.0
H401 H 0.06057 0.10421 0.35768 0.0
H402 H 0.08897 0.06523 0.36413 0.0
C403 C 0.0595 0.07672 0.36349 0.0
H404 H 0.04154 0.05623 0.35751 0.0
H405 H 0.99621 0.13374 0.35336 0.0
O406 O 0.96223 0.05782 0.42477 0.0
C407 C 0.90661 0.11695 0.38805 0.0
Co408 Co 0.43031 0.54062 0.1079 0.0
Co409 Co 0.42415 0.54291 0.14149 0.0
C410 C 0.49311 0.57218 0.12634 0.0
O411 O 0.47918 0.56419 0.11423 0.0
O412 O 0.4749 0.56496 0.13769 0.0
C413 C 0.46507 0.51527 0.08214 0.0
O414 O 0.49234 0.50539 0.09096 0.0
C415 C 0.44186 0.52703 0.17188 0.0
C416 C 0.38701 0.54248 0.18188 0.0
C417 C 0.42347 0.52955 0.18495 0.0
N418 N 0.4172 0.53778 0.16165 0.0
N419 N 0.3845 0.54688 0.16775 0.0
C420 C 0.48265 0.5165 0.1692 0.0
H421 H 0.49203 0.52617 0.15861 0.0
H422 H 0.48566 0.485 0.16956 0.0
H423 H 0.50138 0.52904 0.17747 0.0
C424 C 0.41053 0.45922 0.1136 0.0
N425 N 0.41894 0.49488 0.11803 0.0
N426 N 0.41725 0.49584 0.13198 0.0
C427 C 0.40822 0.46082 0.13683 0.0
C428 C 0.40358 0.43663 0.12537 0.0
C429 C 0.40996 0.44679 0.09844 0.0
H430 H 0.3951 0.46849 0.0919 0.0
H431 H 0.43974 0.44419 0.09456 0.0
H432 H 0.39564 0.41873 0.09716 0.0
O433 O 0.38907 0.57854 0.11111 0.0
O434 O 0.38532 0.57973 0.13465 0.0
H435 H 0.38193 0.47081 0.15695 0.0
H436 H 0.39237 0.42121 0.15348 0.0
C437 C 0.40281 0.45092 0.15212 0.0
H438 H 0.43036 0.45412 0.15775 0.0
H439 H 0.36049 0.55649 0.16227 0.0
O440 O 0.43497 0.53069 0.08707 0.0
C441 C 0.37431 0.59137 0.12252 0.0
Co442 Co 0.95437 0.43169 0.60616 0.0
Co443 Co 0.95517 0.42794 0.63987 0.0
C444 C 0.92472 0.49578 0.62481 0.0
O445 O 0.93132 0.48047 0.61281 0.0
O446 O 0.93347 0.47889 0.6363 0.0
C447 C 0.9787 0.46689 0.58051 0.0
O448 O 0.99084 0.49274 0.58955 0.0
C449 C 0.96859 0.44382 0.67076 0.0
C450 C 0.97001 0.38495 0.67912 0.0
C451 C 0.97361 0.42281 0.68317 0.0
N452 N 0.96295 0.41932 0.65991 0.0
N453 N 0.96368 0.38424 0.66506 0.0
C454 C 0.96755 0.48638 0.66932 0.0
H455 H 0.94705 0.4949 0.66102 0.0
H456 H 0.99627 0.49678 0.6662 0.0
H457 H 0.95906 0.50018 0.67942 0.0
C458 C 0.03564 0.41181 0.61077 0.0
N459 N 0.00068 0.42078 0.61569 0.0
N460 N 0.00135 0.42065 0.62964 0.0
C461 C 0.03705 0.41261 0.63403 0.0
C462 C 0.05986 0.40634 0.62222 0.0
C463 C 0.04503 0.40632 0.59544 0.0
H464 H 0.02045 0.39329 0.58984 0.0
H465 H 0.05113 0.43452 0.59058 0.0
H466 H 0.07048 0.38778 0.59411 0.0
O467 O 0.9175 0.39016 0.60987 0.0
O468 O 0.91637 0.39007 0.63349 0.0
H469 H 0.0402 0.38704 0.65455 0.0
H470 H 0.0809 0.41645 0.65019 0.0
C471 C 0.04948 0.41368 0.6492 0.0
H472 H 0.03599 0.43826 0.65463 0.0
H473 H 0.96003 0.35969 0.65894 0.0
O474 O 0.9623 0.43708 0.58526 0.0
C475 C 0.90451 0.37751 0.62158 0.0
Co476 Co 0.05796 0.95865 0.10673 0.0
Co477 Co 0.06484 0.96048 0.14031 0.0
C478 C 0.99326 0.93541 0.12641 0.0
O479 O 0.00797 0.94011 0.11418 0.0
O480 O 0.01196 0.94295 0.13764 0.0
C481 C 0.02593 0.95258 0.07867 0.0
O482 O 0.0013 0.93034 0.08515 0.0
C483 C 0.05157 0.96985 0.17124 0.0
C484 C 0.10971 0.98414 0.17861 0.0
C485 C 0.07243 0.97977 0.1832 0.0
N486 N 0.0755 0.96859 0.16007 0.0
N487 N 0.11028 0.97658 0.16463 0.0
C488 C 0.00932 0.96448 0.17019 0.0
H489 H 0.00322 0.93396 0.16797 0.0
H490 H 0.99807 0.98159 0.16123 0.0
H491 H 0.99459 0.97303 0.1801 0.0
C492 C 0.08225 0.03873 0.11057 0.0
N493 N 0.07299 0.00428 0.11587 0.0
N494 N 0.07406 0.00577 0.1298 0.0
C495 C 0.08288 0.04165 0.13381 0.0
C496 C 0.08891 0.06361 0.12176 0.0
C497 C 0.08556 0.04706 0.09507 0.0
H498 H 0.10081 0.02334 0.08971 0.0
H499 H 0.05654 0.04906 0.09042 0.0
H500 H 0.10116 0.07414 0.09311 0.0
O501 O 0.0965 0.91854 0.11022 0.0
O502 O 0.09951 0.91907 0.13378 0.0
H503 H 0.10949 0.05051 0.15391 0.0
H504 H 0.07515 0.08663 0.14928 0.0
C505 C 0.08145 0.05561 0.1488 0.0
H506 H 0.05908 0.04011 0.15479 0.0
H507 H 0.13426 0.97799 0.15809 0.0
O508 O 0.05297 0.96743 0.0858 0.0
C509 C 0.1097 0.90542 0.12183 0.0
Co510 Co 0.53522 0.06597 0.60461 0.0
Co511 Co 0.53709 0.0649 0.63835 0.0
C512 C 0.56609 -0.00067 0.62216 0.0
O513 O 0.55965 0.01686 0.61055 0.0
O514 O 0.55674 0.01376 0.63403 0.0
C515 C 0.50641 0.03342 0.57897 0.0
O516 O 0.49287 0.00826 0.588 0.0
C517 C 0.525 0.0481 0.66928 0.0
C518 C 0.53018 0.10629 0.67811 0.0
C519 C 0.52341 0.06868 0.68192 0.0
N520 N 0.53184 0.07266 0.65854 0.0
N521 N 0.53502 0.1073 0.66398 0.0
C522 C 0.52149 0.00577 0.6675 0.0
H523 H 0.53893 0.99584 0.65847 0.0
H524 H 0.49124 0.99842 0.66533 0.0
H525 H 0.53077 0.99061 0.67723 0.0
C526 C 0.45549 0.08947 0.61066 0.0
N527 N 0.48996 0.07685 0.6149 0.0
N528 N 0.49037 0.07464 0.62883 0.0
C529 C 0.45574 0.0844 0.63385 0.0
C530 C 0.43257 0.09477 0.62253 0.0
C531 C 0.44608 0.09962 0.59565 0.0
H532 H 0.47187 0.11051 0.59017 0.0
H533 H 0.43606 0.07364 0.59004 0.0
H534 H 0.42327 0.12157 0.59518 0.0
O535 O 0.57264 0.10691 0.6083 0.0
O536 O 0.5769 0.10171 0.63182 0.0
H537 H 0.45535 0.10718 0.65487 0.0
H538 H 0.41327 0.07972 0.65046 0.0
C539 C 0.44466 0.08166 0.64913 0.0
H540 H 0.45769 0.05589 0.65389 0.0
H541 H 0.5404 0.13179 0.658 0.0
O542 O 0.52522 0.06178 0.58373 0.0
C543 C 0.5875 0.11646 0.6201 0.0
H544 H 0.46583 0.98117 0.19076 0.0
H545 H 0.4597 0.97174 0.21628 0.0
H546 H 0.55864 0.04284 0.22321 0.0
H547 H 0.56588 0.0509 0.19759 0.0
H548 H 0.56269 0.98667 0.24032 0.0
H549 H 0.46259 0.07379 0.22897 0.0
H550 H 0.406 0.09803 0.21632 0.0
H551 H 0.34071 0.0016 0.2306 0.0
H552 H 0.3971 0.97647 0.24317 0.0
H553 H 0.52437 0.02482 0.31351 0.0
H554 H 0.53157 0.03141 0.28783 0.0
H555 H 0.45275 0.93844 0.28138 0.0
H556 H 0.44577 0.93124 0.30712 0.0
H557 H 0.43819 0.00551 0.26439 0.0
H558 H 0.54184 0.92075 0.27638 0.0
H559 H 0.59918 0.90148 0.28973 0.0
H560 H 0.65856 0.00104 0.27487 0.0
H561 H 0.60135 0.02122 0.2616 0.0
C562 C 0.48629 0.99485 0.19771 0.0
C563 C 0.51624 0.01697 0.19212 0.0
C564 C 0.48262 0.98961 0.21235 0.0
C565 C 0.50821 0.00719 0.22181 0.0
C566 C 0.53842 0.02899 0.21621 0.0
C567 C 0.5425 0.03367 0.20154 0.0
C568 C 0.50371 0.00252 0.23747 0.0
C569 C 0.53552 0.99134 0.24556 0.0
C570 C 0.4682 0.00801 0.24443 0.0
C571 C 0.43419 0.02305 0.2369 0.0
C572 C 0.43625 0.0576 0.22933 0.0
C573 C 0.40419 0.07153 0.22218 0.0
C574 C 0.36981 0.05132 0.22262 0.0
C575 C 0.36738 0.01719 0.23024 0.0
C576 C 0.39937 0.00311 0.23739 0.0
C577 C 0.50862 0.00566 0.30665 0.0
C578 C 0.48452 0.97745 0.31238 0.0
C579 C 0.51284 0.00944 0.29196 0.0
C580 C 0.49278 0.98536 0.28269 0.0
C581 C 0.46849 0.95732 0.28835 0.0
C582 C 0.46468 0.95314 0.30306 0.0
C583 C 0.49705 0.9897 0.26708 0.0
C584 C 0.46524 0.00086 0.25906 0.0
C585 C 0.53267 0.98495 0.26023 0.0
C586 C 0.56719 0.97267 0.26811 0.0
C587 C 0.56702 0.9387 0.27605 0.0
C588 C 0.59952 0.92758 0.28359 0.0
C589 C 0.63246 0.95007 0.28318 0.0
C590 C 0.63301 0.98367 0.2752 0.0
C591 C 0.60057 0.99494 0.26766 0.0
H592 H 0.65759 0.94141 0.28902 0.0
H593 H 0.34502 0.06215 0.21709 0.0
H594 H 0.57164 0.44853 0.81094 0.0
H595 H 0.56454 0.45675 0.78535 0.0
H596 H 0.46851 0.53159 0.79227 0.0
H597 H 0.47482 0.52271 0.81783 0.0
H598 H 0.45256 0.4843 0.77166 0.0
H599 H 0.5584 0.56563 0.7826 0.0
H600 H 0.6213 0.58227 0.79258 0.0
H601 H 0.67497 0.49951 0.76554 0.0
H602 H 0.61228 0.48198 0.75554 0.0
H603 H 0.44602 0.56375 0.70204 0.0
H604 H 0.45439 0.55653 0.72767 0.0
H605 H 0.53926 0.46946 0.72056 0.0
H606 H 0.5309 0.47626 0.69495 0.0
H607 H 0.56099 0.5233 0.74107 0.0
H608 H 0.45364 0.44274 0.73022 0.0
H609 H 0.3903 0.42788 0.72025 0.0
H610 H 0.33903 0.51231 0.74721 0.0
H611 H 0.40219 0.52807 0.7572 0.0
C612 C 0.54908 0.46684 0.80702 0.0
C613 C 0.52385 0.48501 0.81646 0.0
C614 C 0.54514 0.47165 0.79237 0.0
C615 C 0.51625 0.49519 0.78684 0.0
C616 C 0.49101 0.51328 0.79625 0.0
C617 C 0.49475 0.50826 0.81089 0.0
C618 C 0.51192 0.50054 0.77125 0.0
C619 C 0.47619 0.49337 0.76502 0.0
C620 C 0.54284 0.51166 0.76248 0.0
C621 C 0.5806 0.52223 0.76843 0.0
C622 C 0.58358 0.55077 0.77886 0.0
C623 C 0.6192 0.5604 0.78451 0.0
C624 C 0.6521 0.54189 0.77972 0.0
C625 C 0.64945 0.51378 0.76925 0.0
C626 C 0.61389 0.50401 0.76358 0.0
C627 C 0.46654 0.54312 0.70593 0.0
C628 C 0.4877 0.52048 0.69644 0.0
C629 C 0.47119 0.53895 0.72058 0.0
C630 C 0.49727 0.51227 0.72603 0.0
C631 C 0.51896 0.49019 0.71659 0.0
C632 C 0.51403 0.49403 0.70195 0.0
C633 C 0.50171 0.50716 0.74157 0.0
C634 C 0.53743 0.51433 0.74775 0.0
C635 C 0.47073 0.49636 0.75032 0.0
C636 C 0.43271 0.48687 0.74435 0.0
C637 C 0.42891 0.45838 0.73393 0.0
C638 C 0.39303 0.44974 0.7283 0.0
C639 C 0.36068 0.46921 0.73306 0.0
C640 C 0.36413 0.49729 0.74351 0.0
C641 C 0.39996 0.50607 0.74917 0.0
H642 H 0.33292 0.46248 0.72869 0.0
H643 H 0.67965 0.54938 0.78411 0.0
H644 H 0.01949 0.52916 0.19391 0.0
H645 H 0.02671 0.53694 0.21946 0.0
H646 H 0.93552 0.45619 0.22647 0.0
H647 H 0.92719 0.44944 0.20084 0.0
H648 H 0.92791 0.51108 0.24433 0.0
H649 H 0.03299 0.43288 0.23082 0.0
H650 H 0.09002 0.41358 0.21729 0.0
H651 H 0.14954 0.51348 0.23177 0.0
H652 H 0.09265 0.53367 0.24524 0.0
H653 H 0.97808 0.4713 0.31659 0.0
H654 H 0.96868 0.46525 0.29098 0.0
H655 H 0.0361 0.56664 0.28417 0.0
H656 H 0.04509 0.57335 0.30983 0.0
H657 H 0.05575 0.50054 0.26661 0.0
H658 H 0.94681 0.57619 0.28069 0.0
H659 H 0.8895 0.58986 0.29498 0.0
H660 H 0.83704 0.48655 0.28005 0.0
H661 H 0.89433 0.47195 0.26583 0.0
C662 C 0.00093 0.51305 0.20088 0.0
C663 C 0.97289 0.48851 0.19533 0.0
C664 C 0.00524 0.51736 0.21553 0.0
C665 C 0.9822 0.49658 0.22498 0.0
C666 C 0.95376 0.47249 0.21944 0.0
C667 C 0.94906 0.46859 0.20477 0.0
C668 C 0.98767 0.50021 0.24061 0.0
C669 C 0.95584 0.50824 0.24918 0.0
C670 C 0.02413 0.49696 0.24704 0.0
C671 C 0.0584 0.48499 0.23892 0.0
C672 C 0.05813 0.4509 0.23103 0.0
C673 C 0.09045 0.43977 0.22339 0.0
C674 C 0.12335 0.46235 0.22364 0.0
C675 C 0.12401 0.49606 0.23156 0.0
C676 C 0.09175 0.50734 0.23921 0.0
C677 C 0.99086 0.49239 0.30965 0.0
C678 C 0.0123 0.52285 0.31524 0.0
C679 C 0.98538 0.48891 0.29503 0.0
C680 C 0.00163 0.51554 0.28569 0.0
C681 C 0.02333 0.5458 0.29121 0.0
C682 C 0.02829 0.54967 0.30586 0.0
C683 C 0.99613 0.51158 0.27017 0.0
C684 C 0.02793 0.50338 0.26167 0.0
C685 C 0.9596 0.51388 0.26386 0.0
C686 C 0.92502 0.52279 0.27231 0.0
C687 C 0.92319 0.55621 0.28055 0.0
C688 C 0.89069 0.56416 0.28862 0.0
C689 C 0.85968 0.53904 0.28845 0.0
C690 C 0.86109 0.50596 0.28018 0.0
C691 C 0.89357 0.49785 0.27211 0.0
H692 H 0.83454 0.54525 0.29471 0.0
H693 H 0.14835 0.45367 0.21772 0.0
H694 H 0.99381 0.03505 0.69385 0.0
H695 H 0.98369 0.04057 0.71933 0.0
H696 H 0.02679 0.92624 0.72519 0.0
H697 H 0.03591 0.9201 0.69957 0.0
H698 H 0.96779 0.93603 0.74158 0.0
H699 H 0.08123 0.00734 0.73287 0.0
H700 H 0.12238 0.05539 0.7214 0.0
H701 H 0.04776 0.14486 0.73557 0.0
H702 H 0.00583 0.09726 0.74696 0.0
H703 H 0.00558 0.95721 0.8159 0.0
H704 H 0.01366 0.9499 0.79027 0.0
H705 H 0.94707 0.05167 0.78329 0.0
H706 H 0.93826 0.05886 0.80894 0.0
H707 H 0.01878 0.04777 0.76783 0.0
H708 H 0.90583 0.97268 0.77682 0.0
H709 H 0.86865 0.92262 0.78896 0.0
H710 H 0.94844 0.83762 0.77489 0.0
H711 H 0.98646 0.8873 0.76284 0.0
C712 C 0.00114 0.01102 0.70054 0.0
C713 C 0.01589 0.97719 0.69465 0.0
C714 C 0.99551 0.0143 0.71515 0.0
C715 C 0.00512 0.98411 0.72428 0.0
C716 C 0.01925 0.95002 0.71841 0.0
C717 C 0.02453 0.94657 0.70375 0.0
C718 C 0.00031 0.98814 0.73992 0.0
C719 C 0.97943 0.96023 0.74731 0.0
C720 C 0.01503 0.01993 0.74748 0.0
C721 C 0.04017 0.04868 0.74065 0.0
C722 C 0.07342 0.03723 0.73345 0.0
C723 C 0.09692 0.06439 0.72697 0.0
C724 C 0.08764 0.10315 0.72773 0.0
C725 C 0.05488 0.11482 0.73498 0.0
C726 C 0.03125 0.08777 0.74146 0.0
C727 C 0.99256 0.97801 0.80892 0.0
C728 C 0.97124 0.00861 0.81445 0.0
C729 C 0.99715 0.97372 0.79428 0.0
C730 C 0.98091 0.0002 0.78489 0.0
C731 C 0.95984 0.03094 0.79036 0.0
C732 C 0.9547 0.0349 0.80501 0.0
C733 C 0.98616 0.99587 0.76935 0.0
C734 C 0.0072 0.02366 0.76202 0.0
C735 C 0.97217 0.9637 0.76191 0.0
C736 C 0.9492 0.93377 0.76906 0.0
C737 C 0.91564 0.94336 0.77642 0.0
C738 C 0.89438 0.91505 0.78327 0.0
C739 C 0.90623 0.87698 0.78273 0.0
C740 C 0.93932 0.86713 0.77531 0.0
C741 C 0.96072 0.89535 0.76847 0.0
H742 H 0.88973 0.8551 0.78804 0.0
H743 H 0.10587 0.12413 0.72271 0.0
H744 H 0.39969 0.93389 0.80066 0.0
H745 H 0.4197 0.94936 0.77659 0.0
H746 H 0.48898 0.04165 0.79259 0.0
H747 H 0.4673 0.02778 0.81658 0.0
H748 H 0.45252 0.06462 0.77023 0.0
H749 H 0.52806 0.95448 0.78069 0.0
H750 H 0.54061 0.88841 0.78843 0.0
H751 H 0.47062 0.84555 0.75463 0.0
H752 H 0.45722 0.91141 0.74679 0.0
H753 H 0.5538 0.09656 0.7063 0.0
H754 H 0.53866 0.0783 0.73067 0.0
H755 H 0.45938 0.99371 0.71524 0.0
H756 H 0.47399 0.01221 0.69085 0.0
H757 H 0.50313 0.96638 0.73732 0.0
H758 H 0.42715 0.07784 0.72742 0.0
H759 H 0.41638 0.14427 0.71972 0.0
H760 H 0.49002 0.18485 0.75283 0.0
H761 H 0.50165 0.11859 0.76061 0.0
C762 C 0.41927 0.95746 0.79909 0.0
C763 C 0.43265 0.97886 0.81071 0.0
C764 C 0.43099 0.96606 0.78529 0.0
C765 C 0.45664 0.99613 0.78274 0.0
C766 C 0.46959 0.01796 0.79428 0.0
C767 C 0.45762 0.00954 0.80809 0.0
C768 C 0.46883 0.00558 0.76801 0.0
C769 C 0.46417 0.0432 0.76314 0.0
C770 C 0.48329 0.97757 0.75857 0.0
C771 C 0.49136 0.93791 0.76323 0.0
C772 C 0.51511 0.93098 0.77497 0.0
C773 C 0.52242 0.89356 0.77936 0.0
C774 C 0.50635 0.86281 0.77205 0.0
C775 C 0.48301 0.86941 0.7603 0.0
C776 C 0.47558 0.90677 0.75587 0.0
C777 C 0.53331 0.07388 0.70809 0.0
C778 C 0.51567 0.05538 0.69659 0.0
C779 C 0.52464 0.06353 0.72203 0.0
C780 C 0.49772 0.03476 0.7248 0.0
C781 C 0.48046 0.01578 0.71336 0.0
C782 C 0.48913 0.02617 0.69939 0.0
C783 C 0.4868 0.02529 0.73963 0.0
C784 C 0.49163 0.98772 0.74448 0.0
C785 C 0.47276 0.05337 0.7491 0.0
C786 C 0.46555 0.09323 0.74451 0.0
C787 C 0.44127 0.10091 0.73299 0.0
C788 C 0.43497 0.13853 0.72863 0.0
C789 C 0.45258 0.16875 0.73576 0.0
C790 C 0.47644 0.16141 0.74731 0.0
C791 C 0.48287 0.12383 0.7517 0.0
H792 H 0.44767 0.19786 0.73236 0.0
H793 H 0.51204 0.83386 0.77547 0.0
H794 H 0.55855 0.40357 0.30306 0.0
H795 H 0.54384 0.42416 0.27888 0.0
H796 H 0.46598 0.50871 0.29531 0.0
H797 H 0.47999 0.48754 0.3195 0.0
H798 H 0.4342 0.46867 0.2741 0.0
H799 H 0.55164 0.53506 0.28148 0.0
H800 H 0.6194 0.54217 0.28802 0.0
H801 H 0.6515 0.46529 0.25463 0.0
H802 H 0.58384 0.45723 0.24802 0.0
H803 H 0.40283 0.56534 0.20931 0.0
H804 H 0.42339 0.55135 0.23349 0.0
H805 H 0.49686 0.46202 0.21786 0.0
H806 H 0.47579 0.47517 0.1937 0.0
H807 H 0.53188 0.50654 0.23869 0.0
H808 H 0.41409 0.43862 0.232 0.0
H809 H 0.34625 0.43159 0.22555 0.0
H810 H 0.31498 0.51209 0.25786 0.0
H811 H 0.38275 0.52002 0.26437 0.0
C812 C 0.53866 0.42686 0.3015 0.0
C813 C 0.52115 0.44461 0.31316 0.0
C814 C 0.53038 0.43871 0.28769 0.0
C815 C 0.50421 0.46838 0.28527 0.0
C816 C 0.48655 0.48603 0.29692 0.0
C817 C 0.49494 0.47426 0.31074 0.0
C818 C 0.49395 0.47968 0.27056 0.0
C819 C 0.45551 0.47757 0.26643 0.0
C820 C 0.52185 0.49037 0.26044 0.0
C821 C 0.5626 0.49525 0.26434 0.0
C822 C 0.57311 0.51941 0.2756 0.0
C823 C 0.61151 0.52366 0.27931 0.0
C824 C 0.63973 0.50412 0.27177 0.0
C825 C 0.6296 0.48037 0.26048 0.0
C826 C 0.59123 0.47597 0.25674 0.0
C827 C 0.42351 0.5428 0.21099 0.0
C828 C 0.43812 0.52188 0.19947 0.0
C829 C 0.43524 0.53486 0.22483 0.0
C830 C 0.4616 0.50557 0.22749 0.0
C831 C 0.47677 0.485 0.21603 0.0
C832 C 0.46492 0.49285 0.20216 0.0
C833 C 0.47218 0.49556 0.24228 0.0
C834 C 0.51063 0.49781 0.2464 0.0
C835 C 0.44431 0.48505 0.25243 0.0
C836 C 0.40353 0.48021 0.24858 0.0
C837 C 0.39278 0.45507 0.23766 0.0
C838 C 0.35434 0.45087 0.234 0.0
C839 C 0.32633 0.47146 0.24127 0.0
C840 C 0.33671 0.4962 0.25223 0.0
C841 C 0.37513 0.50054 0.25591 0.0
H842 H 0.29658 0.46817 0.23842 0.0
H843 H 0.66945 0.50746 0.27465 0.0
H844 H 0.08477 0.57041 0.80148 0.0
H845 H 0.06524 0.55289 0.77751 0.0
H846 H 0.01182 0.45079 0.79367 0.0
H847 H 0.03265 0.46735 0.81758 0.0
H848 H 0.05193 0.4348 0.77073 0.0
H849 H 0.95856 0.5286 0.78278 0.0
H850 H 0.93459 0.59077 0.79122 0.0
H851 H 0.99272 0.64754 0.75715 0.0
H852 H 0.01751 0.58573 0.74862 0.0
H853 H 0.95001 0.38979 0.70773 0.0
H854 H 0.96486 0.40893 0.73204 0.0
H855 H 0.03059 0.50403 0.71631 0.0
H856 H 0.01695 0.48435 0.69197 0.0
H857 H 0.98203 0.52367 0.73907 0.0
H858 H 0.07624 0.42877 0.72754 0.0
H859 H 0.09872 0.36597 0.71917 0.0
H860 H 0.03652 0.31062 0.75257 0.0
H861 H 0.0132 0.3731 0.76102 0.0
C862 C 0.06869 0.54429 0.79996 0.0
C863 C 0.05949 0.5208 0.81156 0.0
C864 C 0.0573 0.53444 0.78623 0.0
C865 C 0.03638 0.50086 0.78377 0.0
C866 C 0.02753 0.47708 0.79531 0.0
C867 C 0.03899 0.48692 0.80905 0.0
C868 C 0.025 0.48994 0.76911 0.0
C869 C 0.0361 0.45404 0.7639 0.0
C870 C 0.00505 0.5153 0.76004 0.0
C871 C 0.9902 0.55255 0.76514 0.0
C872 C 0.9665 0.55437 0.77716 0.0
C873 C 0.95272 0.58954 0.78195 0.0
C874 C 0.96221 0.6231 0.77475 0.0
C875 C 0.98544 0.62153 0.76273 0.0
C876 C -0.00066 0.58643 0.7579 0.0
C877 C 0.96752 0.41488 0.70943 0.0
C878 C 0.98146 0.43606 0.69786 0.0
C879 C 0.97597 0.42578 0.72333 0.0
C880 C 0.99878 0.45796 0.72599 0.0
C881 C 0.01256 0.47936 0.7145 0.0
C882 C 0.00435 0.46828 0.70057 0.0
C883 C 0.009 0.46866 0.74076 0.0
C884 C 0.99773 0.50448 0.74595 0.0
C885 C 0.02857 0.44317 0.74985 0.0
C886 C 0.04265 0.40558 0.74482 0.0
C887 C 0.06708 0.40318 0.73303 0.0
C888 C 0.08003 0.36765 0.72828 0.0
C889 C 0.06897 0.33432 0.73531 0.0
C890 C 0.04502 0.33646 0.74712 0.0
C891 C 0.03195 0.37193 0.7519 0.0
H892 H 0.07904 0.30683 0.73162 0.0
H893 H 0.9515 0.6503 0.77847 0.0
H894 H 0.08344 0.04448 0.19829 0.0
H895 H 0.06368 0.05785 0.22261 0.0
H896 H 0.01285 0.9457 0.22542 0.0
H897 H 0.03081 0.93331 0.20066 0.0
H898 H 0.96998 0.99131 0.2391 0.0
H899 H 0.1034 0.96907 0.2405 0.0
H900 H 0.1711 0.97576 0.23378 0.0
H901 H 0.16893 0.09392 0.24594 0.0
H902 H 0.10104 0.08809 0.25256 0.0
H903 H 0.98763 0.00235 0.31688 0.0
H904 H 0.9972 0.983 0.29226 0.0
H905 H 0.99811 0.10103 0.27943 0.0
H906 H 0.98609 0.12075 0.30387 0.0
H907 H 0.06605 0.04664 0.27184 0.0
H908 H 0.92766 0.06381 0.26973 0.0
H909 H 0.86209 0.05021 0.27781 0.0
H910 H 0.87797 0.93108 0.26873 0.0
H911 H 0.94389 0.94393 0.26081 0.0
C912 C 0.06781 0.02284 0.2041 0.0
C913 C 0.05865 0.9879 0.19768 0.0
C914 C 0.05676 0.03033 0.21804 0.0
C915 C 0.03764 0.00242 0.22608 0.0
C916 C 0.02772 0.96768 0.21952 0.0
C917 C 0.03798 0.96057 0.2054 0.0
C918 C 0.02853 0.00958 0.24131 0.0
C919 C 0.99124 0.00291 0.24626 0.0
C920 C 0.05612 0.02456 0.25082 0.0
C921 C 0.09702 0.02821 0.24691 0.0
C922 C 0.11728 0.99655 0.24165 0.0
C923 C 0.1557 0.00018 0.23787 0.0
C924 C 0.17428 0.03526 0.2394 0.0
C925 C 0.15449 0.06677 0.24475 0.0
C926 C 0.11605 0.06331 0.24853 0.0
C927 C 0.98813 0.02424 0.30882 0.0
C928 C 0.9848 0.06317 0.31239 0.0
C929 C 0.99422 0.01306 0.29474 0.0
C930 C 0.99805 0.04059 0.28405 0.0
C931 C 0.99498 0.07937 0.28754 0.0
C932 C 0.98815 0.09053 0.30153 0.0
C933 C 0.00759 0.02926 0.26935 0.0
C934 C 0.04504 0.03492 0.26459 0.0
C935 C 0.98051 0.01238 0.26019 0.0
C936 C 0.94084 0.00476 0.26485 0.0
C937 C 0.91731 0.03466 0.2696 0.0
C938 C 0.88005 0.0271 0.27412 0.0
C939 C 0.86591 0.98978 0.27383 0.0
C940 C 0.88897 0.95996 0.26898 0.0
C941 C 0.92627 0.96737 0.26447 0.0
H942 H 0.83706 0.98399 0.27732 0.0
H943 H 0.20402 0.03801 0.23647 0.0
H944 H 0.66054 0.12429 0.11551 0.0
H945 H 0.70524 0.17731 0.11725 0.0
H946 H 0.68283 0.18617 0.16207 0.0
H947 H 0.63797 0.13258 0.16047 0.0
H948 H 0.69169 0.25004 0.12487 0.0
H949 H 0.76556 0.21962 0.1782 0.0
H950 H 0.78192 0.16483 0.19348 0.0
H951 H 0.78539 0.0913 0.15708 0.0
H952 H 0.76957 0.14572 0.14158 0.0
H953 H 0.84603 0.37801 0.16171 0.0
H954 H 0.79991 0.32561 0.16255 0.0
H955 H 0.81112 0.31031 0.11739 0.0
H956 H 0.85656 0.36308 0.11639 0.0
H957 H 0.80522 0.25173 0.15627 0.0
H958 H 0.7278 0.28213 0.10315 0.0
H959 H 0.71133 0.33715 0.08802 0.0
H960 H 0.71426 0.41129 0.12425 0.0
H961 H 0.73021 0.35666 0.13963 0.0
C962 C 0.66516 0.13724 0.12579 0.0
C963 C 0.64555 0.12408 0.13786 0.0
C964 C 0.6907 0.16771 0.12674 0.0
C965 C 0.69747 0.18567 0.13978 0.0
C966 C 0.67833 0.17246 0.15192 0.0
C967 C 0.65265 0.14187 0.15098 0.0
C968 C 0.72394 0.21878 0.14045 0.0
C969 C 0.71673 0.25025 0.13164 0.0
C970 C 0.75596 0.21954 0.14958 0.0
C971 C 0.76592 0.18667 0.15876 0.0
C972 C 0.76992 0.19177 0.17346 0.0
C973 C 0.77909 0.16079 0.18216 0.0
C974 C 0.78455 0.12458 0.17626 0.0
C975 C 0.78099 0.11932 0.16164 0.0
C976 C 0.77186 0.15022 0.1529 0.0
C977 C 0.83853 0.36365 0.15193 0.0
C978 C 0.85472 0.37507 0.13895 0.0
C979 C 0.81226 0.33358 0.15245 0.0
C980 C 0.80162 0.31435 0.14001 0.0
C981 C 0.81824 0.32525 0.12709 0.0
C982 C 0.8443 0.35543 0.12654 0.0
C983 C 0.77329 0.28275 0.14052 0.0
C984 C 0.78006 0.25164 0.14957 0.0
C985 C 0.74073 0.28233 0.13164 0.0
C986 C 0.73055 0.31532 0.12252 0.0
C987 C 0.72475 0.31014 0.1079 0.0
C988 C 0.71555 0.34127 0.09928 0.0
C989 C 0.71187 0.37771 0.10517 0.0
C990 C 0.71725 0.38307 0.1197 0.0
C991 C 0.72642 0.35204 0.12837 0.0
H992 H 0.70478 0.40177 0.09847 0.0
H993 H 0.79162 0.10063 0.18301 0.0
H994 H 0.12743 0.84091 0.61718 0.0
H995 H 0.17884 0.79438 0.61869 0.0
H996 H 0.17956 0.80524 0.6642 0.0
H997 H 0.12759 0.85198 0.66283 0.0
H998 H 0.25018 0.80408 0.6286 0.0
H999 H 0.2074 0.71742 0.67811 0.0
H1000 H 0.14927 0.69826 0.69107 0.0
H1001 H 0.08378 0.70638 0.65274 0.0
H1002 H 0.14157 0.72506 0.63952 0.0
H1003 H 0.36932 0.6407 0.66341 0.0
H1004 H 0.31715 0.68699 0.66435 0.0
H1005 H 0.30878 0.68445 0.61877 0.0
H1006 H 0.36116 0.63859 0.61769 0.0
H1007 H 0.24356 0.68321 0.65591 0.0
H1008 H 0.28581 0.77227 0.6066 0.0
H1009 H 0.34394 0.791 0.59357 0.0
H1010 H 0.41053 0.7781 0.63145 0.0
H1011 H 0.35274 0.75983 0.64475 0.0
C1012 C 0.13823 0.83336 0.62756 0.0
C1013 C 0.1233 0.85031 0.6399 0.0
C1014 C 0.16778 0.80677 0.62838 0.0
C1015 C 0.18301 0.79626 0.64154 0.0
C1016 C 0.16797 0.81267 0.65393 0.0
C1017 C 0.13831 0.83944 0.65312 0.0
C1018 C 0.21531 0.76886 0.64212 0.0
C1019 C 0.24857 0.77747 0.63445 0.0
C1020 C 0.21363 0.73464 0.65007 0.0
C1021 C 0.17873 0.7231 0.65788 0.0
C1022 C 0.1806 0.71502 0.67245 0.0
C1023 C 0.14771 0.70425 0.67984 0.0
C1024 C 0.11283 0.70126 0.67275 0.0
C1025 C 0.11078 0.70888 0.65824 0.0
C1026 C 0.14358 0.71962 0.6508 0.0
C1027 C 0.35652 0.65009 0.65357 0.0
C1028 C 0.36973 0.63615 0.64046 0.0
C1029 C 0.32656 0.67643 0.65414 0.0
C1030 C 0.30936 0.68954 0.64163 0.0
C1031 C 0.32208 0.67525 0.62855 0.0
C1032 C 0.35203 0.64897 0.62796 0.0
C1033 C 0.27818 0.71822 0.64221 0.0
C1034 C 0.24522 0.70992 0.65011 0.0
C1035 C 0.2801 0.7528 0.63448 0.0
C1036 C 0.31497 0.76433 0.62663 0.0
C1037 C 0.31283 0.7736 0.61216 0.0
C1038 C 0.34573 0.7841 0.60472 0.0
C1039 C 0.38092 0.78562 0.61167 0.0
C1040 C 0.38327 0.77678 0.62607 0.0
C1041 C 0.35046 0.7663 0.63356 0.0
H1042 H 0.40636 0.79373 0.60589 0.0
H1043 H 0.0874 0.69293 0.67849 0.0
H1044 H 0.85373 0.13015 0.89472 0.0
H1045 H 0.80692 0.18168 0.89486 0.0
H1046 H 0.79732 0.17432 0.84938 0.0
H1047 H 0.84484 0.1232 0.84908 0.0
H1048 H 0.8028 0.24678 0.85756 0.0
H1049 H 0.72732 0.13873 0.8715 0.0
H1050 H 0.71116 0.08202 0.88579 0.0
H1051 H 0.70586 0.15138 0.92326 0.0
H1052 H 0.72251 0.20844 0.90923 0.0
H1053 H 0.6368 0.36091 0.85074 0.0
H1054 H 0.6824 0.30829 0.85043 0.0
H1055 H 0.69285 0.31503 0.89591 0.0
H1056 H 0.64654 0.36725 0.89636 0.0
H1057 H 0.68661 0.24259 0.88759 0.0
H1058 H 0.76264 0.3505 0.87369 0.0
H1059 H 0.77893 0.40719 0.85941 0.0
H1060 H 0.78322 0.33801 0.82187 0.0
H1061 H 0.76644 0.28097 0.8359 0.0
C1062 C 0.84157 0.13929 0.88473 0.0
C1063 C 0.85303 0.1224 0.87188 0.0
C1064 C 0.81466 0.16871 0.88485 0.0
C1065 C 0.79823 0.18159 0.87215 0.0
C1066 C 0.80958 0.16481 0.85931 0.0
C1067 C 0.83667 0.1355 0.85917 0.0
C1068 C 0.76987 0.21312 0.87225 0.0
C1069 C 0.7771 0.24562 0.86397 0.0
C1070 C 0.73681 0.21203 0.88088 0.0
C1071 C 0.7265 0.1778 0.88933 0.0
C1072 C 0.72297 0.14184 0.8828 0.0
C1073 C 0.71368 0.10964 0.89085 0.0
C1074 C 0.70758 0.11308 0.90543 0.0
C1075 C 0.71064 0.14875 0.91198 0.0
C1076 C 0.71996 0.18104 0.90397 0.0
C1077 C 0.64886 0.35137 0.86069 0.0
C1078 C 0.63809 0.36849 0.87358 0.0
C1079 C 0.67506 0.3213 0.86049 0.0
C1080 C 0.69145 0.30801 0.87313 0.0
C1081 C 0.68062 0.32486 0.88602 0.0
C1082 C 0.65423 0.35481 0.88625 0.0
C1083 C 0.71956 0.27626 0.87292 0.0
C1084 C 0.71228 0.24372 0.88118 0.0
C1085 C 0.75258 0.27731 0.86427 0.0
C1086 C 0.76294 0.31153 0.85583 0.0
C1087 C 0.76679 0.34742 0.86237 0.0
C1088 C 0.77616 0.37961 0.85432 0.0
C1089 C 0.78201 0.37622 0.83973 0.0
C1090 C 0.77863 0.3406 0.83317 0.0
C1091 C 0.76923 0.30833 0.84116 0.0
H1092 H 0.78925 0.40118 0.83352 0.0
H1093 H 0.7004 0.08811 0.91164 0.0
H1094 H 0.12649 0.64431 0.34715 0.0
H1095 H 0.17837 0.6909 0.34541 0.0
H1096 H 0.17213 0.71048 0.39047 0.0
H1097 H 0.12007 0.66445 0.39231 0.0
H1098 H 0.18082 0.77673 0.37645 0.0
H1099 H 0.24069 0.65327 0.3767 0.0
H1100 H 0.25203 0.58735 0.36853 0.0
H1101 H 0.28367 0.62914 0.3274 0.0
H1102 H 0.27214 0.69537 0.3353 0.0
H1103 H 0.36184 0.85543 0.39108 0.0
H1104 H 0.30778 0.81167 0.38976 0.0
H1105 H 0.31681 0.80956 0.34421 0.0
H1106 H 0.37095 0.85382 0.34537 0.0
H1107 H 0.30584 0.73636 0.35672 0.0
H1108 H 0.24887 0.86109 0.35752 0.0
H1109 H 0.24016 0.92643 0.36673 0.0
H1110 H 0.20497 0.88124 0.40695 0.0
H1111 H 0.21373 0.81557 0.39801 0.0
C1112 C 0.13593 0.65874 0.35668 0.0
C1113 C 0.11915 0.65047 0.36988 0.0
C1114 C 0.16572 0.68524 0.35568 0.0
C1115 C 0.17942 0.70388 0.36784 0.0
C1116 C 0.16205 0.69645 0.38095 0.0
C1117 C 0.13233 0.66997 0.38197 0.0
C1118 C 0.21246 0.73042 0.36704 0.0
C1119 C 0.2082 0.76778 0.37223 0.0
C1120 C 0.24806 0.719 0.36131 0.0
C1121 C 0.25515 0.67924 0.35654 0.0
C1122 C 0.24977 0.64839 0.36588 0.0
C1123 C 0.25629 0.61097 0.3613 0.0
C1124 C 0.26843 0.60405 0.34744 0.0
C1125 C 0.2742 0.63455 0.33813 0.0
C1126 C 0.26773 0.67204 0.34266 0.0
C1127 C 0.35248 0.84573 0.38075 0.0
C1128 C 0.37065 0.85845 0.36832 0.0
C1129 C 0.3215 0.82071 0.38003 0.0
C1130 C 0.3081 0.80769 0.36689 0.0
C1131 C 0.32672 0.81938 0.35446 0.0
C1132 C 0.35758 0.84474 0.35515 0.0
C1133 C 0.27416 0.78242 0.36621 0.0
C1134 C 0.27829 0.74535 0.36079 0.0
C1135 C 0.23852 0.79398 0.37181 0.0
C1136 C 0.23223 0.83341 0.37712 0.0
C1137 C 0.23943 0.86508 0.36835 0.0
C1138 C 0.23446 0.90217 0.37352 0.0
C1139 C 0.22219 0.90799 0.38743 0.0
C1140 C 0.21454 0.8767 0.39618 0.0
C1141 C 0.2194 0.83952 0.39105 0.0
H1142 H 0.21854 0.93675 0.39143 0.0
H1143 H 0.27348 0.57506 0.34392 0.0
H1144 H 0.13108 0.64797 0.87039 0.0
H1145 H 0.17664 0.70009 0.87251 0.0
H1146 H 0.20768 0.6612 0.91434 0.0
H1147 H 0.16042 0.60955 0.91251 0.0
H1148 H 0.20474 0.73636 0.91399 0.0
H1149 H 0.265 0.64291 0.88459 0.0
H1150 H 0.26972 0.59744 0.8647 0.0
H1151 H 0.25448 0.68911 0.83504 0.0
H1152 H 0.24916 0.73507 0.85474 0.0
H1153 H 0.37142 0.85754 0.9118 0.0
H1154 H 0.32736 0.80354 0.91402 0.0
H1155 H 0.28066 0.8293 0.87282 0.0
H1156 H 0.32502 0.88252 0.87038 0.0
H1157 H 0.29699 0.75607 0.87478 0.0
H1158 H 0.23229 0.84856 0.90459 0.0
H1159 H 0.22773 0.89355 0.92464 0.0
H1160 H 0.25311 0.80283 0.95376 0.0
H1161 H 0.25828 0.75739 0.93386 0.0
C1162 C 0.14763 0.65037 0.88005 0.0
C1163 C 0.14256 0.62433 0.89121 0.0
C1164 C 0.17381 0.68017 0.88123 0.0
C1165 C 0.19641 0.68401 0.89342 0.0
C1166 C 0.19079 0.65861 0.90477 0.0
C1167 C 0.1639 0.62909 0.90371 0.0
C1168 C 0.22588 0.71452 0.89414 0.0
C1169 C 0.22535 0.7403 0.90554 0.0
C1170 C 0.25262 0.71992 0.88305 0.0
C1171 C 0.25648 0.6924 0.87116 0.0
C1172 C 0.26249 0.65335 0.87383 0.0
C1173 C 0.26528 0.62748 0.86259 0.0
C1174 C 0.26234 0.64037 0.84862 0.0
C1175 C 0.25675 0.67917 0.84586 0.0
C1176 C 0.25391 0.70515 0.85706 0.0
C1177 C 0.35144 0.85195 0.90329 0.0
C1178 C 0.35179 0.87428 0.89089 0.0
C1179 C 0.32623 0.82111 0.90459 0.0
C1180 C 0.30056 0.81244 0.89361 0.0
C1181 C 0.30031 0.83531 0.8814 0.0
C1182 C 0.32566 0.86582 0.88003 0.0
C1183 C 0.27505 0.77861 0.89439 0.0
C1184 C 0.27656 0.75199 0.88329 0.0
C1185 C 0.24946 0.77241 0.90578 0.0
C1186 C 0.24605 0.79968 0.91773 0.0
C1187 C 0.23716 0.83827 0.91526 0.0
C1188 C 0.23442 0.86384 0.9266 0.0
C1189 C 0.24024 0.85108 0.94046 0.0
C1190 C 0.24867 0.81269 0.94302 0.0
C1191 C 0.25147 0.78702 0.93171 0.0
H1192 H 0.23812 0.87092 0.94922 0.0
H1193 H 0.26446 0.62029 0.83993 0.0
H1194 H 0.86905 0.14673 0.3651 0.0
H1195 H 0.81556 0.19151 0.36521 0.0
H1196 H 0.81918 0.19561 0.41087 0.0
H1197 H 0.87221 0.15045 0.4109 0.0
H1198 H 0.74751 0.1876 0.40163 0.0
H1199 H 0.85411 0.26904 0.39081 0.0
H1200 H 0.91111 0.28975 0.37754 0.0
H1201 H 0.84419 0.29961 0.33961 0.0
H1202 H 0.78686 0.27845 0.35262 0.0
H1203 H 0.62993 0.35062 0.41199 0.0
H1204 H 0.683 0.30535 0.41159 0.0
H1205 H 0.6786 0.30254 0.36593 0.0
H1206 H 0.62602 0.3482 0.36619 0.0
H1207 H 0.75045 0.30965 0.37496 0.0
H1208 H 0.64383 0.22856 0.38573 0.0
H1209 H 0.58674 0.20788 0.39896 0.0
H1210 H 0.65358 0.19728 0.43689 0.0
H1211 H 0.711 0.2184 0.42392 0.0
C1212 C 0.85863 0.1573 0.37517 0.0
C1213 C 0.87505 0.14508 0.38799 0.0
C1214 C 0.82809 0.18297 0.37521 0.0
C1215 C 0.81363 0.19718 0.38804 0.0
C1216 C 0.8299 0.185 0.40084 0.0
C1217 C 0.86031 0.15926 0.40083 0.0
C1218 C 0.78111 0.22427 0.38819 0.0
C1219 C 0.74833 0.21453 0.39595 0.0
C1220 C 0.78186 0.25896 0.3805 0.0
C1221 C 0.81627 0.27179 0.37266 0.0
C1222 C 0.85161 0.27533 0.37961 0.0
C1223 C 0.88397 0.28721 0.37214 0.0
C1224 C 0.88129 0.29589 0.35773 0.0
C1225 C 0.84623 0.29282 0.35077 0.0
C1226 C 0.81379 0.28092 0.35819 0.0
C1227 C 0.64009 0.34025 0.40186 0.0
C1228 C 0.62362 0.35302 0.38913 0.0
C1229 C 0.67038 0.31427 0.40166 0.0
C1230 C 0.68453 0.30031 0.38873 0.0
C1231 C 0.66814 0.31296 0.37602 0.0
C1232 C 0.63797 0.33899 0.37621 0.0
C1233 C 0.71688 0.27301 0.38843 0.0
C1234 C 0.74961 0.28271 0.38063 0.0
C1235 C 0.71609 0.23827 0.39608 0.0
C1236 C 0.68163 0.22541 0.40388 0.0
C1237 C 0.64629 0.2221 0.39692 0.0
C1238 C 0.61389 0.21025 0.40437 0.0
C1239 C 0.61651 0.20137 0.41876 0.0
C1240 C 0.65158 0.20422 0.42574 0.0
C1241 C 0.68407 0.21609 0.41834 0.0
H1242 H 0.59138 0.1922 0.42451 0.0
H1243 H 0.90638 0.30508 0.35196 0.0
H1244 H 0.13135 0.8598 0.14387 0.0
H1245 H 0.17548 0.80594 0.1433 0.0
H1246 H 0.19394 0.82398 0.0986 0.0
H1247 H 0.14898 0.87739 0.09899 0.0
H1248 H 0.18581 0.75026 0.10395 0.0
H1249 H 0.26044 0.85214 0.12371 0.0
H1250 H 0.27488 0.90461 0.14031 0.0
H1251 H 0.2704 0.82632 0.17528 0.0
H1252 H 0.25543 0.77345 0.1589 0.0
H1253 H 0.35191 0.63277 0.09931 0.0
H1254 H 0.30619 0.68545 0.09862 0.0
H1255 H 0.28403 0.67082 0.14326 0.0
H1256 H 0.33024 0.61879 0.14413 0.0
H1257 H 0.29499 0.74368 0.13731 0.0
H1258 H 0.21953 0.64188 0.11743 0.0
H1259 H 0.2053 0.5896 0.10072 0.0
H1260 H 0.212 0.66797 0.06583 0.0
H1261 H 0.22676 0.72065 0.08232 0.0
C1262 C 0.14493 0.85247 0.13392 0.0
C1263 C 0.13688 0.8731 0.12149 0.0
C1264 C 0.17023 0.82169 0.13362 0.0
C1265 C 0.18851 0.8113 0.12096 0.0
C1266 C 0.18023 0.83156 0.1085 0.0
C1267 C 0.15461 0.86214 0.10875 0.0
C1268 C 0.21605 0.77911 0.1207 0.0
C1269 C 0.21 0.74907 0.11111 0.0
C1270 C 0.2472 0.77719 0.13023 0.0
C1271 C 0.25649 0.8089 0.14009 0.0
C1272 C 0.26228 0.84616 0.13495 0.0
C1273 C 0.2706 0.87597 0.14432 0.0
C1274 C 0.27347 0.86882 0.15884 0.0
C1275 C 0.26813 0.83182 0.16402 0.0
C1276 C 0.25977 0.80192 0.1547 0.0
C1277 C 0.33707 0.64053 0.10896 0.0
C1278 C 0.34478 0.62156 0.12178 0.0
C1279 C 0.31084 0.6706 0.10853 0.0
C1280 C 0.29145 0.6819 0.12087 0.0
C1281 C 0.29871 0.66265 0.13362 0.0
C1282 C 0.32509 0.63282 0.13408 0.0
C1283 C 0.26456 0.71463 0.12065 0.0
C1284 C 0.27081 0.74486 0.13015 0.0
C1285 C 0.23368 0.71673 0.11102 0.0
C1286 C 0.2246 0.68512 0.1011 0.0
C1287 C 0.21824 0.64791 0.10619 0.0
C1288 C 0.21004 0.61821 0.09676 0.0
C1289 C 0.20785 0.62544 0.08222 0.0
C1290 C 0.21375 0.66241 0.07709 0.0
C1291 C 0.222 0.69219 0.08647 0.0
H1292 H 0.2015 0.60241 0.07494 0.0
H1293 H 0.2799 0.89194 0.16607 0.0
H1294 H 0.59127 0.18762 0.60851 0.0
H1295 H 0.64592 0.23137 0.6089 0.0
H1296 H 0.71229 0.14632 0.63114 0.0
H1297 H 0.6566 0.10436 0.63183 0.0
H1298 H 0.73015 0.20695 0.64165 0.0
H1299 H 0.72072 0.16935 0.59322 0.0
H1300 H 0.68991 0.15908 0.57004 0.0
H1301 H 0.66855 0.27943 0.56637 0.0
H1302 H 0.69883 0.29037 0.58962 0.0
H1303 H 0.89163 0.32209 0.6018 0.0
H1304 H 0.83994 0.275 0.60154 0.0
H1305 H 0.79445 0.32379 0.64004 0.0
H1306 H 0.84738 0.36901 0.6408 0.0
H1307 H 0.76942 0.27792 0.59859 0.0
H1308 H 0.7466 0.26189 0.65956 0.0
H1309 H 0.78504 0.26269 0.68146 0.0
H1310 H 0.88496 0.23182 0.65772 0.0
H1311 H 0.84703 0.23033 0.63572 0.0
C1312 C 0.61758 0.17862 0.61353 0.0
C1313 C 0.62001 0.14291 0.62016 0.0
C1314 C 0.64894 0.20338 0.61364 0.0
C1315 C 0.68376 0.192 0.61978 0.0
C1316 C 0.68591 0.15604 0.62637 0.0
C1317 C 0.65417 0.13198 0.62673 0.0
C1318 C 0.7178 0.21755 0.6196 0.0
C1319 C 0.73874 0.22227 0.63218 0.0
C1320 C 0.72987 0.23704 0.60722 0.0
C1321 C 0.71174 0.23062 0.59322 0.0
C1322 C 0.70924 0.19359 0.58751 0.0
C1323 C 0.6919 0.18765 0.57435 0.0
C1324 C 0.6772 0.21857 0.56675 0.0
C1325 C 0.67991 0.2555 0.57227 0.0
C1326 C 0.69719 0.26159 0.58543 0.0
C1327 C 0.87076 0.32238 0.61027 0.0
C1328 C 0.87368 0.34883 0.6214 0.0
C1329 C 0.84113 0.29561 0.61009 0.0
C1330 C 0.81348 0.29532 0.62089 0.0
C1331 C 0.81598 0.32248 0.63182 0.0
C1332 C 0.84616 0.34849 0.63221 0.0
C1333 C 0.78166 0.26716 0.62061 0.0
C1334 C 0.76099 0.26223 0.60799 0.0
C1335 C 0.77105 0.24589 0.63275 0.0
C1336 C 0.79401 0.24638 0.64597 0.0
C1337 C 0.77673 0.25512 0.65902 0.0
C1338 C 0.79845 0.25572 0.67145 0.0
C1339 C 0.83744 0.24743 0.67097 0.0
C1340 C 0.85478 0.23838 0.65807 0.0
C1341 C 0.8332 0.23769 0.64562 0.0
H1342 H 0.8542 0.24795 0.6806 0.0
H1343 H 0.66378 0.21391 0.55657 0.0
H1344 H 0.52449 0.61635 0.10562 0.0
H1345 H 0.56818 0.66924 0.1091 0.0
H1346 H 0.58488 0.63523 0.15264 0.0
H1347 H 0.53939 0.58307 0.14935 0.0
H1348 H 0.56232 0.70243 0.15289 0.0
H1349 H 0.66284 0.64627 0.12799 0.0
H1350 H 0.6968 0.60962 0.1096 0.0
H1351 H 0.66452 0.69241 0.07829 0.0
H1352 H 0.62981 0.72928 0.0964 0.0
H1353 H 0.63397 0.89606 0.15293 0.0
H1354 H 0.643 0.82638 0.15355 0.0
H1355 H 0.5734 0.81501 0.1161 0.0
H1356 H 0.56251 0.88391 0.11593 0.0
H1357 H 0.64605 0.7667 0.11786 0.0
H1358 H 0.52831 0.80542 0.14377 0.0
H1359 H 0.49727 0.84231 0.16283 0.0
H1360 H 0.57047 0.78946 0.1936 0.0
H1361 H 0.60235 0.75273 0.17464 0.0
C1362 C 0.53844 0.61924 0.11581 0.0
C1363 C 0.52786 0.59603 0.12729 0.0
C1364 C 0.56385 0.64949 0.11778 0.0
C1365 C 0.57993 0.65654 0.13118 0.0
C1366 C 0.57264 0.63067 0.14224 0.0
C1367 C 0.54663 0.60082 0.14034 0.0
C1368 C 0.59721 0.69451 0.1342 0.0
C1369 C 0.58182 0.71583 0.14547 0.0
C1370 C 0.62272 0.71252 0.12464 0.0
C1371 C 0.64354 0.69052 0.1136 0.0
C1372 C 0.6627 0.65655 0.11716 0.0
C1373 C 0.6821 0.63572 0.10678 0.0
C1374 C 0.6827 0.64861 0.09278 0.0
C1375 C 0.66401 0.68244 0.08914 0.0
C1376 C 0.64453 0.70338 0.09948 0.0
C1377 C 0.62058 0.87854 0.14488 0.0
C1378 C 0.59723 0.89515 0.13446 0.0
C1379 C 0.62622 0.83899 0.14512 0.0
C1380 C 0.6092 0.81583 0.13477 0.0
C1381 C 0.58726 0.83259 0.12403 0.0
C1382 C 0.58095 0.87187 0.12398 0.0
C1383 C 0.60958 0.77385 0.13597 0.0
C1384 C 0.62809 0.75225 0.12553 0.0
C1385 C 0.58763 0.75526 0.14643 0.0
C1386 C 0.56797 0.77674 0.1578 0.0
C1387 C 0.53794 0.80191 0.15459 0.0
C1388 C 0.52019 0.82275 0.16537 0.0
C1389 C 0.53197 0.81832 0.17942 0.0
C1390 C 0.56144 0.79293 0.18271 0.0
C1391 C 0.57936 0.77211 0.17196 0.0
H1392 H 0.5182 0.83448 0.18775 0.0
H1393 H 0.69779 0.63247 0.08476 0.0
H1394 H 0.89852 0.53921 0.60271 0.0
H1395 H 0.84364 0.58207 0.60336 0.0
H1396 H 0.83936 0.57173 0.64889 0.0
H1397 H 0.89445 0.52978 0.64837 0.0
H1398 H 0.77965 0.5513 0.61112 0.0
H1399 H 0.78533 0.63848 0.66407 0.0
H1400 H 0.83094 0.679 0.67709 0.0
H1401 H 0.89122 0.70257 0.63846 0.0
H1402 H 0.84568 0.66265 0.62515 0.0
H1403 H 0.61536 0.54987 0.65225 0.0
H1404 H 0.68419 0.5591 0.64906 0.0
H1405 H 0.66251 0.65276 0.62053 0.0
H1406 H 0.59345 0.64336 0.62359 0.0
H1407 H 0.73514 0.64939 0.6453 0.0
H1408 H 0.67905 0.60152 0.60048 0.0
H1409 H 0.63222 0.56085 0.58805 0.0
H1410 H 0.67549 0.46199 0.60965 0.0
H1411 H 0.72226 0.50226 0.62233 0.0
C1412 C 0.88683 0.54721 0.61291 0.0
C1413 C 0.90026 0.53022 0.62546 0.0
C1414 C 0.85545 0.5718 0.61326 0.0
C1415 C 0.83706 0.57981 0.62615 0.0
C1416 C 0.85318 0.56637 0.63881 0.0
C1417 C 0.88467 0.542 0.63848 0.0
C1418 C 0.79727 0.59427 0.62621 0.0
C1419 C 0.77029 0.57365 0.61829 0.0
C1420 C 0.78468 0.6231 0.63566 0.0
C1421 C 0.81209 0.64737 0.64361 0.0
C1422 C 0.80815 0.65248 0.65832 0.0
C1423 C 0.83405 0.67531 0.66577 0.0
C1424 C 0.86399 0.6933 0.65861 0.0
C1425 C 0.86808 0.68853 0.644 0.0
C1426 C 0.84226 0.66573 0.6365 0.0
C1427 C 0.62535 0.5731 0.64563 0.0
C1428 C 0.59943 0.59578 0.63808 0.0
C1429 C 0.66451 0.57841 0.64385 0.0
C1430 C 0.67815 0.60669 0.63462 0.0
C1431 C 0.65235 0.63105 0.62779 0.0
C1432 C 0.61311 0.62546 0.62944 0.0
C1433 C 0.71861 0.60597 0.6304 0.0
C1434 C 0.74523 0.62844 0.6377 0.0
C1435 C 0.73119 0.57925 0.62026 0.0
C1436 C 0.7039 0.55487 0.61238 0.0
C1437 C 0.67842 0.57113 0.60261 0.0
C1438 C 0.65194 0.54817 0.59551 0.0
C1439 C 0.65084 0.50887 0.59807 0.0
C1440 C 0.67635 0.49244 0.60768 0.0
C1441 C 0.70288 0.5153 0.61481 0.0
H1442 H 0.63025 0.49115 0.5926 0.0
H1443 H 0.88401 0.71096 0.6644 0.0
H1444 H 0.85077 0.60704 0.14683 0.0
H1445 H 0.84603 0.67724 0.14728 0.0
H1446 H 0.95708 0.68521 0.12764 0.0
H1447 H 0.96192 0.61552 0.12741 0.0
H1448 H 0.95132 0.73236 0.14986 0.0
H1449 H 0.87644 0.69809 0.10866 0.0
H1450 H 0.82374 0.666 0.09607 0.0
H1451 H 0.74199 0.72577 0.12172 0.0
H1452 H 0.79433 0.7579 0.13461 0.0
H1453 H 0.9561 0.89543 0.10569 0.0
H1454 H 0.91644 0.83966 0.10992 0.0
H1455 H 0.90906 0.86879 0.15421 0.0
H1456 H 0.94946 0.92448 0.15014 0.0
H1457 H 0.85243 0.80532 0.12364 0.0
H1458 H 0.95045 0.80138 0.17084 0.0
H1459 H 0.00715 0.8354 0.18003 0.0
H1460 H 0.04903 0.84997 0.1376 0.0
H1461 H 0.99272 0.81588 0.12823 0.0
C1462 C 0.87402 0.62405 0.14264 0.0
C1463 C 0.90665 0.60636 0.13705 0.0
C1464 C 0.87126 0.66392 0.14285 0.0
C1465 C 0.90117 0.68634 0.13746 0.0
C1466 C 0.93374 0.66842 0.13189 0.0
C1467 C 0.93644 0.62876 0.13168 0.0
C1468 C 0.89941 0.72855 0.13767 0.0
C1469 C 0.92924 0.74824 0.14436 0.0
C1470 C 0.87073 0.74933 0.13042 0.0
C1471 C 0.83929 0.73 0.12272 0.0
C1472 C 0.84724 0.70412 0.11171 0.0
C1473 C 0.81745 0.68599 0.1045 0.0
C1474 C 0.77957 0.69377 0.10812 0.0
C1475 C 0.77138 0.71974 0.11895 0.0
C1476 C 0.80109 0.73792 0.12621 0.0
C1477 C 0.94467 0.89113 0.11622 0.0
C1478 C 0.95742 0.91332 0.12772 0.0
C1479 C 0.92161 0.85925 0.1186 0.0
C1480 C 0.91096 0.84949 0.13245 0.0
C1481 C 0.91764 0.87558 0.14347 0.0
C1482 C 0.94103 0.90727 0.14114 0.0
C1483 C 0.90441 0.80873 0.13574 0.0
C1484 C 0.87342 0.78935 0.12966 0.0
C1485 C 0.93249 0.78785 0.14325 0.0
C1486 C 0.96742 0.80632 0.14887 0.0
C1487 C 0.97196 0.81159 0.16352 0.0
C1488 C 0.00394 0.83098 0.16874 0.0
C1489 C 0.03163 0.84492 0.1594 0.0
C1490 C 0.02757 0.83922 0.14482 0.0
C1491 C 0.99567 0.81986 0.13956 0.0
H1492 H 0.05623 0.86012 0.16346 0.0
H1493 H 0.75659 0.67979 0.1025 0.0
H1494 H 0.61443 0.97709 0.60113 0.0
H1495 H 0.67069 0.93774 0.60401 0.0
H1496 H 0.63349 0.90602 0.64601 0.0
H1497 H 0.57773 0.9473 0.64342 0.0
H1498 H 0.69863 0.93385 0.64831 0.0
H1499 H 0.65288 0.83731 0.61834 0.0
H1500 H 0.62144 0.80715 0.59784 0.0
H1501 H 0.70605 0.85465 0.57003 0.0
H1502 H 0.73773 0.88559 0.59032 0.0
H1503 H 0.89383 0.86748 0.65107 0.0
H1504 H 0.82414 0.85938 0.64983 0.0
H1505 H 0.82025 0.93443 0.61364 0.0
H1506 H 0.8892 0.94409 0.61526 0.0
H1507 H 0.77283 0.86365 0.61192 0.0
H1508 H 0.80379 0.9732 0.64282 0.0
H1509 H 0.8354 0.00075 0.66383 0.0
H1510 H 0.77608 0.92144 0.69067 0.0
H1511 H 0.74459 0.89304 0.66976 0.0
C1512 C 0.61736 0.96068 0.61079 0.0
C1513 C 0.59198 0.96596 0.62215 0.0
C1514 C 0.64966 0.9378 0.61241 0.0
C1515 C 0.65668 0.91883 0.62528 0.0
C1516 C 0.62899 0.92062 0.63604 0.0
C1517 C 0.59702 0.94415 0.63452 0.0
C1518 C 0.6956 0.90384 0.62831 0.0
C1519 C 0.71429 0.91728 0.64053 0.0
C1520 C 0.71656 0.8824 0.61822 0.0
C1521 C 0.69767 0.86387 0.6059 0.0
C1522 C 0.66468 0.84155 0.60785 0.0
C1523 C 0.64682 0.82427 0.59626 0.0
C1524 C 0.66173 0.82899 0.58264 0.0
C1525 C 0.69456 0.85097 0.58059 0.0
C1526 C 0.71255 0.86832 0.59215 0.0
C1527 C 0.87795 0.88235 0.64291 0.0
C1528 C 0.89671 0.90667 0.63333 0.0
C1529 C 0.83837 0.87732 0.64211 0.0
C1530 C 0.81728 0.89607 0.63157 0.0
C1531 C 0.83619 0.91932 0.62172 0.0
C1532 C 0.87549 0.92488 0.62268 0.0
C1533 C 0.77515 0.895 0.63148 0.0
C1534 C 0.75627 0.87874 0.61986 0.0
C1535 C 0.75378 0.91323 0.6422 0.0
C1536 C 0.77226 0.93071 0.65474 0.0
C1537 C 0.79775 0.96146 0.65319 0.0
C1538 C 0.8156 0.97724 0.66508 0.0
C1539 C 0.80785 0.96277 0.67857 0.0
C1540 C 0.78213 0.93256 0.68021 0.0
C1541 C 0.76428 0.9166 0.66835 0.0
H1542 H 0.8217 0.97502 0.68776 0.0
H1543 H 0.64785 0.8156 0.57368 0.0
H1544 H 0.56241 0.61223 0.8568 0.0
H1545 H 0.5758 0.6806 0.85782 0.0
H1546 H 0.64736 0.66311 0.89439 0.0
H1547 H 0.63615 0.59403 0.89285 0.0
H1548 H 0.58058 0.71401 0.89737 0.0
H1549 H 0.69309 0.69962 0.87032 0.0
H1550 H 0.73542 0.67778 0.85109 0.0
H1551 H 0.66467 0.73431 0.82046 0.0
H1552 H 0.62171 0.75627 0.83949 0.0
H1553 H 0.55567 0.90934 0.89988 0.0
H1554 H 0.59922 0.8549 0.89897 0.0
H1555 H 0.55893 0.82761 0.85698 0.0
H1556 H 0.51657 0.88257 0.85757 0.0
H1557 H 0.63067 0.80181 0.8605 0.0
H1558 H 0.50973 0.79702 0.88679 0.0
H1559 H 0.46621 0.82045 0.90544 0.0
H1560 H 0.55164 0.79836 0.93702 0.0
H1561 H 0.59583 0.77527 0.9185 0.0
C1562 C 0.58211 0.62266 0.86474 0.0
C1563 C 0.59804 0.59777 0.8748 0.0
C1564 C 0.58971 0.66176 0.86533 0.0
C1565 C 0.61281 0.67675 0.87611 0.0
C1566 C 0.6297 0.65195 0.88593 0.0
C1567 C 0.62283 0.61264 0.88514 0.0
C1568 C 0.61386 0.71853 0.87826 0.0
C1569 C 0.59264 0.73336 0.88957 0.0
C1570 C 0.62904 0.74351 0.86794 0.0
C1571 C 0.654 0.72939 0.85635 0.0
C1572 C 0.68629 0.70705 0.85947 0.0
C1573 C 0.71049 0.69476 0.84861 0.0
C1574 C 0.7027 0.70459 0.83456 0.0
C1575 C 0.67067 0.72672 0.83135 0.0
C1576 C 0.64643 0.73917 0.84218 0.0
C1577 C 0.55712 0.89259 0.89024 0.0
C1578 C 0.53178 0.89953 0.87897 0.0
C1579 C 0.58205 0.86148 0.88974 0.0
C1580 C 0.58131 0.83647 0.87811 0.0
C1581 C 0.5597 0.84628 0.86614 0.0
C1582 C 0.53525 0.8777 0.86653 0.0
C1583 C 0.59629 0.79701 0.87933 0.0
C1584 C 0.62003 0.78259 0.8686 0.0
C1585 C 0.58308 0.77212 0.89011 0.0
C1586 C 0.55616 0.78484 0.90128 0.0
C1587 C 0.51921 0.79725 0.89772 0.0
C1588 C 0.49446 0.8105 0.90825 0.0
C1589 C 0.5062 0.81099 0.9224 0.0
C1590 C 0.54264 0.79804 0.92605 0.0
C1591 C 0.56754 0.78487 0.91554 0.0
H1592 H 0.48705 0.82135 0.93054 0.0
H1593 H 0.72152 0.69513 0.82617 0.0
H1594 H 0.57486 0.55175 0.36503 0.0
H1595 H 0.62868 0.59522 0.36151 0.0
H1596 H 0.6699 0.56862 0.40343 0.0
H1597 H 0.61565 0.5265 0.40721 0.0
H1598 H 0.69542 0.63761 0.39544 0.0
H1599 H 0.68923 0.50859 0.37492 0.0
H1600 H 0.65788 0.46043 0.35976 0.0
H1601 H 0.66931 0.53458 0.32377 0.0
H1602 H 0.70026 0.5834 0.3388 0.0
H1603 H 0.88223 0.55977 0.39307 0.0
H1604 H 0.8134 0.57132 0.39357 0.0
H1605 H 0.82347 0.64549 0.35732 0.0
H1606 H 0.89307 0.636 0.35733 0.0
H1607 H 0.76897 0.57231 0.35756 0.0
H1608 H 0.79488 0.69275 0.37888 0.0
H1609 H 0.82562 0.73791 0.39535 0.0
H1610 H 0.77896 0.67677 0.43078 0.0
H1611 H 0.7482 0.63099 0.41452 0.0
C1612 C 0.59459 0.55636 0.37369 0.0
C1613 C 0.59179 0.53476 0.38621 0.0
C1614 C 0.62531 0.58125 0.37168 0.0
C1615 C 0.65403 0.584 0.38201 0.0
C1616 C 0.64832 0.56663 0.39524 0.0
C1617 C 0.61726 0.54233 0.39737 0.0
C1618 C 0.69293 0.59728 0.37823 0.0
C1619 C 0.71142 0.62376 0.38705 0.0
C1620 C 0.71372 0.57961 0.36712 0.0
C1621 C 0.69668 0.5497 0.35798 0.0
C1622 C 0.68505 0.51456 0.36377 0.0
C1623 C 0.66728 0.48721 0.35521 0.0
C1624 C 0.66151 0.49449 0.34082 0.0
C1625 C 0.67372 0.52903 0.33493 0.0
C1626 C 0.69137 0.55655 0.34345 0.0
C1627 C 0.86994 0.57926 0.38542 0.0
C1628 C 0.89288 0.5968 0.37511 0.0
C1629 C 0.83069 0.58579 0.38571 0.0
C1630 C 0.8136 0.60944 0.37555 0.0
C1631 C 0.83634 0.62734 0.36529 0.0
C1632 C 0.87587 0.62154 0.36522 0.0
C1633 C 0.77158 0.61174 0.37502 0.0
C1634 C 0.75262 0.58763 0.36551 0.0
C1635 C 0.75065 0.63117 0.38559 0.0
C1636 C 0.76946 0.65825 0.39547 0.0
C1637 C 0.79151 0.68866 0.39019 0.0
C1638 C 0.80883 0.71447 0.39949 0.0
C1639 C 0.80432 0.71016 0.41411 0.0
C1640 C 0.78242 0.68007 0.41946 0.0
C1641 C 0.76495 0.65424 0.4102 0.0
H1642 H 0.81775 0.73017 0.42129 0.0
H1643 H 0.64762 0.47334 0.33422 0.0
H1644 H 0.93245 0.88028 0.85479 0.0
H1645 H 0.91946 0.81185 0.8568 0.0
H1646 H 0.84657 0.83294 0.89274 0.0
H1647 H 0.85736 0.90183 0.8902 0.0
H1648 H 0.92101 0.78533 0.8955 0.0
H1649 H 0.80091 0.79285 0.87238 0.0
H1650 H 0.75375 0.80977 0.85405 0.0
H1651 H 0.81762 0.74679 0.82304 0.0
H1652 H 0.86541 0.72977 0.84116 0.0
H1653 H 0.94708 0.59161 0.90408 0.0
H1654 H 0.90395 0.64638 0.90298 0.0
H1655 H 0.92987 0.66042 0.8586 0.0
H1656 H 0.9715 0.60504 0.85943 0.0
H1657 H 0.86118 0.68908 0.86393 0.0
H1658 H 0.98855 0.69905 0.8847 0.0
H1659 H 0.03826 0.68135 0.90202 0.0
H1660 H 0.96401 0.71351 0.93622 0.0
H1661 H 0.91369 0.73095 0.91907 0.0
C1662 C 0.91249 0.87055 0.86277 0.0
C1663 C 0.8964 0.89632 0.87248 0.0
C1664 C 0.90508 0.83146 0.8639 0.0
C1665 C 0.88191 0.81751 0.87487 0.0
C1666 C 0.86428 0.84328 0.88415 0.0
C1667 C 0.87094 0.88248 0.88281 0.0
C1668 C 0.88243 0.77626 0.87808 0.0
C1669 C 0.90697 0.76417 0.8889 0.0
C1670 C 0.86477 0.74898 0.86921 0.0
C1671 C 0.83697 0.76033 0.85812 0.0
C1672 C 0.80521 0.78303 0.86161 0.0
C1673 C 0.77826 0.7925 0.85127 0.0
C1674 C 0.78273 0.77944 0.83738 0.0
C1675 C 0.8142 0.75691 0.83381 0.0
C1676 C 0.8412 0.74729 0.84411 0.0
C1677 C 0.94247 0.60545 0.89396 0.0
C1678 C 0.96373 0.59475 0.88195 0.0
C1679 C 0.91782 0.63682 0.89336 0.0
C1680 C 0.91482 0.65832 0.88084 0.0
C1681 C 0.93207 0.64459 0.86843 0.0
C1682 C 0.95616 0.61293 0.86896 0.0
C1683 C 0.90057 0.69823 0.88112 0.0
C1684 C 0.874 0.71015 0.87088 0.0
C1685 C 0.91688 0.72569 0.89035 0.0
C1686 C 0.94727 0.71585 0.90064 0.0
C1687 C 0.98282 0.70219 0.89592 0.0
C1688 C 0.01108 0.6922 0.9057 0.0
C1689 C 0.00425 0.6962 0.92021 0.0
C1690 C 0.96921 0.71034 0.92497 0.0
C1691 C 0.94081 0.72028 0.91524 0.0
H1692 H 0.02614 0.68842 0.92777 0.0
H1693 H 0.76176 0.78668 0.82941 0.0
H1694 H 0.60535 0.85894 0.3599 0.0
H1695 H 0.67558 0.85549 0.36056 0.0
H1696 H 0.6784 0.95788 0.38603 0.0
H1697 H 0.60883 0.96177 0.38505 0.0
H1698 H 0.72661 0.96283 0.36452 0.0
H1699 H 0.69284 0.86834 0.39998 0.0
H1700 H 0.66399 0.80883 0.40897 0.0
H1701 H 0.7312 0.74326 0.37973 0.0
H1702 H 0.7602 0.80242 0.37045 0.0
H1703 H 0.89462 0.96087 0.4051 0.0
H1704 H 0.838 0.92192 0.40116 0.0
H1705 H 0.862 0.9191 0.3564 0.0
H1706 H 0.91874 0.95803 0.36017 0.0
H1707 H 0.80299 0.85619 0.38449 0.0
H1708 H 0.79622 0.97065 0.34345 0.0
H1709 H 0.82911 0.0308 0.33715 0.0
H1710 H 0.84198 0.05803 0.38126 0.0
H1711 H 0.80902 0.99819 0.38776 0.0
C1712 C 0.62123 0.88062 0.36559 0.0
C1713 C 0.60206 0.91067 0.3724 0.0
C1714 C 0.66114 0.87848 0.36606 0.0
C1715 C 0.68216 0.90635 0.3734 0.0
C1716 C 0.66276 0.93611 0.38029 0.0
C1717 C 0.62311 0.93829 0.37978 0.0
C1718 C 0.72444 0.90617 0.37349 0.0
C1719 C 0.74314 0.9392 0.36872 0.0
C1720 C 0.74623 0.87535 0.37894 0.0
C1721 C 0.72827 0.83988 0.38437 0.0
C1722 C 0.70115 0.84128 0.39535 0.0
C1723 C 0.68488 0.80758 0.40054 0.0
C1724 C 0.69572 0.77228 0.39491 0.0
C1725 C 0.72285 0.77061 0.38408 0.0
C1726 C 0.7392 0.80421 0.37885 0.0
C1727 C 0.88901 0.95048 0.39449 0.0
C1728 C 0.91016 0.96402 0.38285 0.0
C1729 C 0.85672 0.92784 0.39228 0.0
C1730 C 0.84544 0.91855 0.37846 0.0
C1731 C 0.87017 0.92635 0.36714 0.0
C1732 C 0.90243 0.94901 0.36932 0.0
C1733 C 0.80441 0.91275 0.37562 0.0
C1734 C 0.78617 0.87905 0.37989 0.0
C1735 C 0.78263 0.94304 0.36992 0.0
C1736 C 0.80032 0.98006 0.36606 0.0
C1737 C 0.80579 0.9897 0.35177 0.0
C1738 C 0.82454 0.02364 0.34817 0.0
C1739 C 0.83767 0.0482 0.3588 0.0
C1740 C 0.83184 0.039 0.37304 0.0
C1741 C 0.81313 0.00511 0.37668 0.0
H1742 H 0.85236 0.07433 0.35599 0.0
H1743 H 0.68316 0.74623 0.39896 0.0
H1744 H 0.43963 0.4194 0.89748 0.0
H1745 H 0.39613 0.36557 0.90097 0.0
H1746 H 0.42212 0.32487 0.85891 0.0
H1747 H 0.46414 0.37914 0.85516 0.0
H1748 H 0.35422 0.29827 0.86691 0.0
H1749 H 0.48312 0.30581 0.88754 0.0
H1750 H 0.53086 0.33751 0.90278 0.0
H1751 H 0.45635 0.32558 0.93866 0.0
H1752 H 0.40798 0.29425 0.92355 0.0
H1753 H 0.42926 0.11321 0.8659 0.0
H1754 H 0.41561 0.18158 0.86625 0.0
H1755 H 0.35814 0.16909 0.90639 0.0
H1756 H 0.36979 0.09987 0.90569 0.0
H1757 H 0.42091 0.22537 0.90461 0.0
H1758 H 0.3031 0.19467 0.88285 0.0
H1759 H 0.26017 0.1619 0.86612 0.0
H1760 H 0.31771 0.21495 0.8311 0.0
H1761 H 0.36142 0.24764 0.84761 0.0
C1762 C 0.43485 0.39979 0.88878 0.0
C1763 C 0.4563 0.40269 0.87623 0.0
C1764 C 0.40994 0.36907 0.89079 0.0
C1765 C 0.40711 0.34041 0.88042 0.0
C1766 C 0.4242 0.34635 0.86715 0.0
C1767 C 0.44845 0.37743 0.86503 0.0
C1768 C 0.39432 0.30129 0.88417 0.0
C1769 C 0.36836 0.28238 0.87526 0.0
C1770 C 0.41232 0.28065 0.89524 0.0
C1771 C 0.44189 0.29806 0.90442 0.0
C1772 C 0.47699 0.30995 0.89869 0.0
C1773 C 0.5041 0.3279 0.90729 0.0
C1774 C 0.49661 0.33361 0.92168 0.0
C1775 C 0.46207 0.32119 0.9275 0.0
C1776 C 0.4348 0.30335 0.91893 0.0
C1777 C 0.41285 0.12481 0.87462 0.0
C1778 C 0.40058 0.10126 0.88576 0.0
C1779 C 0.40512 0.16384 0.87482 0.0
C1780 C 0.38552 0.18017 0.88627 0.0
C1781 C 0.37305 0.15683 0.89742 0.0
C1782 C 0.3801 0.1175 0.89707 0.0
C1783 C 0.38195 0.22215 0.88702 0.0
C1784 C 0.40524 0.24152 0.8967 0.0
C1785 C 0.36201 0.2429 0.87652 0.0
C1786 C 0.33566 0.22354 0.86649 0.0
C1787 C 0.30679 0.19918 0.87158 0.0
C1788 C 0.28225 0.18065 0.86213 0.0
C1789 C 0.28621 0.18632 0.84755 0.0
C1790 C 0.31465 0.21062 0.8424 0.0
C1791 C 0.33928 0.22922 0.8518 0.0
H1792 H 0.26729 0.17189 0.84024 0.0
H1793 H 0.51756 0.34765 0.92831 0.0
H1794 H 0.10418 0.47102 0.39947 0.0
H1795 H 0.15892 0.42818 0.40003 0.0
H1796 H 0.14925 0.4108 0.35494 0.0
H1797 H 0.09479 0.45421 0.35419 0.0
H1798 H 0.18772 0.35705 0.39171 0.0
H1799 H 0.23576 0.43365 0.34112 0.0
H1800 H 0.22057 0.49136 0.32716 0.0
H1801 H 0.18317 0.54864 0.36492 0.0
H1802 H 0.19882 0.49157 0.37911 0.0
H1803 H 0.40145 0.35548 0.36897 0.0
H1804 H 0.33256 0.34701 0.36562 0.0
H1805 H 0.31096 0.41852 0.40192 0.0
H1806 H 0.37945 0.42964 0.40464 0.0
H1807 H 0.2868 0.42956 0.36542 0.0
H1808 H 0.22585 0.3508 0.41484 0.0
H1809 H 0.2425 0.29653 0.43029 0.0
H1810 H 0.30993 0.2474 0.39697 0.0
H1811 H 0.29306 0.30085 0.38123 0.0
C1812 C 0.11282 0.45716 0.38972 0.0
C1813 C 0.09597 0.4671 0.3767 0.0
C1814 C 0.14399 0.43235 0.39009 0.0
C1815 C 0.15865 0.41712 0.37747 0.0
C1816 C 0.13862 0.42277 0.36477 0.0
C1817 C 0.10757 0.44775 0.36436 0.0
C1818 C 0.19857 0.40332 0.37722 0.0
C1819 C 0.20944 0.37258 0.38589 0.0
C1820 C 0.2268 0.42349 0.3695 0.0
C1821 C 0.21785 0.45815 0.3611 0.0
C1822 C 0.22435 0.4586 0.34642 0.0
C1823 C 0.2157 0.4912 0.33848 0.0
C1824 C 0.2007 0.52355 0.34514 0.0
C1825 C 0.19459 0.52349 0.35977 0.0
C1826 C 0.20337 0.49105 0.36776 0.0
C1827 C 0.38198 0.3692 0.37629 0.0
C1828 C 0.39574 0.39377 0.38692 0.0
C1829 C 0.34277 0.36382 0.37449 0.0
C1830 C 0.31694 0.38167 0.38367 0.0
C1831 C 0.33067 0.40392 0.39492 0.0
C1832 C 0.36979 0.4102 0.39647 0.0
C1833 C 0.27609 0.38371 0.38007 0.0
C1834 C 0.26505 0.41287 0.37081 0.0
C1835 C 0.24811 0.36246 0.38743 0.0
C1836 C 0.25871 0.33033 0.39692 0.0
C1837 C 0.24425 0.32846 0.4108 0.0
C1838 C 0.25371 0.29778 0.41961 0.0
C1839 C 0.27753 0.26871 0.41466 0.0
C1840 C 0.29189 0.27019 0.40086 0.0
C1841 C 0.2825 0.30078 0.39201 0.0
H1842 H 0.28464 0.24489 0.42147 0.0
H1843 H 0.194 0.54874 0.33898 0.0
H1844 H 0.02942 0.11793 0.85353 0.0
H1845 H 0.07256 0.17133 0.85674 0.0
H1846 H 0.09565 0.13464 0.89957 0.0
H1847 H 0.05064 0.08189 0.8966 0.0
H1848 H 0.07276 0.20151 0.90092 0.0
H1849 H 0.16963 0.1481 0.87333 0.0
H1850 H 0.20099 0.11326 0.85386 0.0
H1851 H 0.16365 0.1984 0.82423 0.0
H1852 H 0.13143 0.23345 0.84345 0.0
H1853 H 0.13751 0.39574 0.90257 0.0
H1854 H 0.14889 0.32644 0.90212 0.0
H1855 H 0.08103 0.31714 0.86415 0.0
H1856 H 0.06823 0.38564 0.86492 0.0
H1857 H 0.15053 0.26922 0.86491 0.0
H1858 H 0.03737 0.30587 0.89355 0.0
H1859 H 0.00905 0.34105 0.91362 0.0
H1860 H 0.08538 0.28452 0.94237 0.0
H1861 H 0.11457 0.24949 0.9224 0.0
C1862 C 0.04463 0.12035 0.86349 0.0
C1863 C 0.03599 0.09612 0.8749 0.0
C1864 C 0.06974 0.15092 0.86529 0.0
C1865 C 0.08751 0.15734 0.87844 0.0
C1866 C 0.08209 0.13059 0.88936 0.0
C1867 C 0.05638 0.10038 0.88764 0.0
C1868 C 0.10482 0.19534 0.88147 0.0
C1869 C 0.09099 0.21567 0.89326 0.0
C1870 C 0.12868 0.21432 0.87158 0.0
C1871 C 0.14795 0.19339 0.85988 0.0
C1872 C 0.1678 0.15927 0.86265 0.0
C1873 C 0.18573 0.13946 0.85165 0.0
C1874 C 0.18421 0.15354 0.83781 0.0
C1875 C 0.1648 0.18752 0.83496 0.0
C1876 C 0.14675 0.20742 0.84592 0.0
C1877 C 0.12513 0.37878 0.89414 0.0
C1878 C 0.10158 0.39582 0.88388 0.0
C1879 C 0.13208 0.33944 0.89379 0.0
C1880 C 0.11596 0.31685 0.88305 0.0
C1881 C 0.09413 0.33421 0.87241 0.0
C1882 C 0.08673 0.37329 0.87288 0.0
C1883 C 0.11679 0.27472 0.88381 0.0
C1884 C 0.13385 0.25403 0.87278 0.0
C1885 C 0.09659 0.25509 0.89451 0.0
C1886 C 0.0784 0.27544 0.9065 0.0
C1887 C 0.04823 0.30114 0.90414 0.0
C1888 C 0.03203 0.32104 0.91549 0.0
C1889 C 0.04548 0.31511 0.92925 0.0
C1890 C 0.07506 0.28915 0.9317 0.0
C1891 C 0.09145 0.26929 0.92037 0.0
H1892 H 0.03291 0.33055 0.93803 0.0
H1893 H 0.19818 0.1382 0.82932 0.0
H1894 H 0.42375 0.05259 0.39597 0.0
H1895 H 0.36946 0.09415 0.40095 0.0
H1896 H 0.32966 0.07952 0.35812 0.0
H1897 H 0.38354 0.0377 0.35306 0.0
H1898 H 0.30715 0.15676 0.38055 0.0
H1899 H 0.28361 0.00819 0.36935 0.0
H1900 H 0.31385 0.94458 0.37145 0.0
H1901 H 0.35086 0.97183 0.41363 0.0
H1902 H 0.32087 0.03551 0.41173 0.0
H1903 H 0.10776 0.13546 0.37274 0.0
H1904 H 0.17705 0.14032 0.37243 0.0
H1905 H 0.18278 0.07451 0.41108 0.0
H1906 H 0.11394 0.06557 0.41037 0.0
H1907 H 0.22775 0.04538 0.39451 0.0
H1908 H 0.21006 0.1753 0.40757 0.0
H1909 H 0.18159 0.23959 0.4063 0.0
H1910 H 0.22738 0.25464 0.36449 0.0
H1911 H 0.25571 0.19021 0.3654 0.0
C1912 C 0.40433 0.05949 0.38744 0.0
C1913 C 0.40693 0.04063 0.37432 0.0
C1914 C 0.37367 0.0838 0.39024 0.0
C1915 C 0.34543 0.08941 0.37995 0.0
C1916 C 0.35136 0.07564 0.36617 0.0
C1917 C 0.38208 0.05141 0.36333 0.0
C1918 C 0.30586 0.09633 0.38457 0.0
C1919 C 0.28953 0.13277 0.38372 0.0
C1920 C 0.28353 0.06505 0.38904 0.0
C1921 C 0.29999 0.02631 0.39042 0.0
C1922 C 0.29797 0.00039 0.37909 0.0
C1923 C 0.31513 0.96444 0.38023 0.0
C1924 C 0.3341 0.95417 0.39269 0.0
C1925 C 0.33601 0.97979 0.40402 0.0
C1926 C 0.31893 0.01575 0.40292 0.0
C1927 C 0.12384 0.12182 0.38112 0.0
C1928 C 0.10537 0.09957 0.39144 0.0
C1929 C 0.16352 0.12542 0.38113 0.0
C1930 C 0.18543 0.10815 0.39182 0.0
C1931 C 0.16665 0.0881 0.40268 0.0
C1932 C 0.12711 0.08337 0.40238 0.0
C1933 C 0.22771 0.10629 0.3906 0.0
C1934 C 0.24486 0.0702 0.39184 0.0
C1935 C 0.25063 0.13835 0.38694 0.0
C1936 C 0.23473 0.17768 0.38651 0.0
C1937 C 0.21388 0.1922 0.39806 0.0
C1938 C 0.19767 0.22864 0.39739 0.0
C1939 C 0.20233 0.25101 0.38526 0.0
C1940 C 0.22357 0.23715 0.37383 0.0
C1941 C 0.23981 0.2007 0.37444 0.0
H1942 H 0.18981 0.27923 0.38477 0.0
H1943 H 0.34733 0.92639 0.39357 0.0
H1944 H 0.48634 0.11699 0.10724 0.0
H1945 H 0.44248 0.17011 0.10657 0.0
H1946 H 0.38851 0.12975 0.14491 0.0
H1947 H 0.43542 0.07796 0.14635 0.0
H1948 H 0.37711 0.19599 0.10587 0.0
H1949 H 0.36573 0.2016 0.16549 0.0
H1950 H 0.39456 0.17388 0.18705 0.0
H1951 H 0.50271 0.16529 0.16583 0.0
H1952 H 0.4745 0.19323 0.14421 0.0
H1953 H 0.3408 0.39652 0.11689 0.0
H1954 H 0.3313 0.32692 0.11841 0.0
H1955 H 0.44438 0.3151 0.13617 0.0
H1956 H 0.4529 0.38426 0.13516 0.0
H1957 H 0.39862 0.2709 0.14974 0.0
H1958 H 0.4232 0.29822 0.09978 0.0
H1959 H 0.40875 0.32922 0.07691 0.0
H1960 H 0.29756 0.27745 0.07673 0.0
H1961 H 0.31137 0.24651 0.09966 0.0
C1962 C 0.46465 0.11877 0.1154 0.0
C1963 C 0.4652 0.0941 0.12713 0.0
C1964 C 0.43917 0.14922 0.11495 0.0
C1965 C 0.413 0.15508 0.12602 0.0
C1966 C 0.40951 0.12686 0.13656 0.0
C1967 C 0.43615 0.09711 0.13734 0.0
C1968 C 0.39568 0.19369 0.12765 0.0
C1969 C 0.38113 0.21217 0.11556 0.0
C1970 C 0.40061 0.21518 0.14028 0.0
C1971 C 0.41792 0.19896 0.15324 0.0
C1972 C 0.39566 0.19383 0.16547 0.0
C1973 C 0.41188 0.17809 0.17768 0.0
C1974 C 0.4504 0.16769 0.17779 0.0
C1975 C 0.47286 0.17326 0.16572 0.0
C1976 C 0.4568 0.18907 0.1535 0.0
C1977 C 0.36337 0.37873 0.12112 0.0
C1978 C 0.39762 0.39515 0.12584 0.0
C1979 C 0.358 0.33918 0.12199 0.0
C1980 C 0.38716 0.31573 0.12737 0.0
C1981 C 0.42128 0.33255 0.13212 0.0
C1982 C 0.42635 0.37192 0.13145 0.0
C1983 C 0.3837 0.27351 0.12763 0.0
C1984 C 0.39332 0.25444 0.14019 0.0
C1985 C 0.37634 0.25196 0.11525 0.0
C1986 C 0.36811 0.27037 0.10146 0.0
C1987 C 0.39562 0.29363 0.09488 0.0
C1988 C 0.38757 0.31118 0.08191 0.0
C1989 C 0.35223 0.30539 0.07539 0.0
C1990 C 0.32491 0.28196 0.0818 0.0
C1991 C 0.33282 0.26439 0.09477 0.0
H1992 H 0.34604 0.31899 0.06535 0.0
H1993 H 0.46287 0.1554 0.18724 0.0
H1994 H 0.41073 0.44698 0.6131 0.0
H1995 H 0.35413 0.40682 0.61124 0.0
H1996 H 0.34008 0.4109 0.65656 0.0
H1997 H 0.39631 0.4514 0.65856 0.0
H1998 H 0.30554 0.34164 0.62612 0.0
H1999 H 0.26561 0.46591 0.65944 0.0
H2000 H 0.29022 0.52846 0.66742 0.0
H2001 H 0.34236 0.54622 0.62676 0.0
H2002 H 0.31762 0.48397 0.61853 0.0
H2003 H 0.09954 0.35315 0.63741 0.0
H2004 H 0.1692 0.34735 0.6393 0.0
H2005 H 0.18256 0.43619 0.608 0.0
H2006 H 0.11329 0.44295 0.60649 0.0
H2007 H 0.21843 0.4522 0.63265 0.0
H2008 H 0.21084 0.34349 0.60016 0.0
H2009 H 0.18414 0.28098 0.59319 0.0
H2010 H 0.22285 0.23202 0.63233 0.0
H2011 H 0.25014 0.29417 0.63946 0.0
C2012 C 0.39663 0.43805 0.62274 0.0
C2013 C 0.40685 0.45397 0.6359 0.0
C2014 C 0.36453 0.41454 0.62167 0.0
C2015 C 0.34254 0.40674 0.63373 0.0
C2016 C 0.35667 0.41685 0.64712 0.0
C2017 C 0.38872 0.44039 0.64821 0.0
C2018 C 0.30108 0.401 0.63195 0.0
C2019 C 0.28634 0.36559 0.62761 0.0
C2020 C 0.27617 0.43236 0.63382 0.0
C2021 C 0.29007 0.47032 0.63844 0.0
C2022 C 0.28216 0.48331 0.65221 0.0
C2023 C 0.29615 0.51864 0.65677 0.0
C2024 C 0.3179 0.54123 0.64761 0.0
C2025 C 0.32557 0.52866 0.63385 0.0
C2026 C 0.31157 0.49337 0.62923 0.0
C2027 C 0.11751 0.37106 0.63084 0.0
C2028 C 0.10129 0.39879 0.62193 0.0
C2029 C 0.15716 0.36743 0.6318 0.0
C2030 C 0.18096 0.39129 0.62376 0.0
C2031 C 0.16462 0.41746 0.61427 0.0
C2032 C 0.12511 0.42122 0.61337 0.0
C2033 C 0.22245 0.39299 0.62653 0.0
C2034 C 0.23732 0.42795 0.63117 0.0
C2035 C 0.24702 0.36117 0.62494 0.0
C2036 C 0.23231 0.32346 0.62037 0.0
C2037 C 0.21369 0.31936 0.60726 0.0
C2038 C 0.19849 0.28401 0.60328 0.0
C2039 C 0.20161 0.25263 0.61235 0.0
C2040 C 0.22035 0.25641 0.62534 0.0
C2041 C 0.23594 0.2916 0.62931 0.0
H2042 H 0.18967 0.22533 0.60928 0.0
H2043 H 0.32871 0.56849 0.6512 0.0
H2044 H 0.04464 0.4153 0.11186 0.0
H2045 H 0.08485 0.35876 0.10997 0.0
H2046 H 0.07933 0.34356 0.15522 0.0
H2047 H 0.03882 0.39972 0.15725 0.0
H2048 H 0.14964 0.31056 0.12495 0.0
H2049 H 0.02379 0.26836 0.1575 0.0
H2050 H 0.96052 0.29222 0.16493 0.0
H2051 H 0.94545 0.34564 0.12437 0.0
H2052 H 0.00839 0.32157 0.11666 0.0
H2053 H 0.14172 0.10474 0.13656 0.0
H2054 H 0.14618 0.17456 0.13822 0.0
H2055 H 0.0566 0.1853 0.10709 0.0
H2056 H 0.05101 0.11589 0.10588 0.0
H2057 H 0.04013 0.22193 0.13115 0.0
H2058 H 0.14924 0.21073 0.09999 0.0
H2059 H 0.21238 0.18516 0.09341 0.0
H2060 H 0.26181 0.2361 0.13051 0.0
H2061 H 0.19878 0.26142 0.13746 0.0
C2062 C 0.05322 0.40093 0.12149 0.0
C2063 C 0.03693 0.41081 0.13461 0.0
C2064 C 0.07677 0.36888 0.1204 0.0
C2065 C 0.08419 0.34662 0.13242 0.0
C2066 C 0.07365 0.36037 0.14581 0.0
C2067 C 0.05011 0.39238 0.14692 0.0
C2068 C 0.09028 0.30525 0.13054 0.0
C2069 C 0.12596 0.29097 0.12637 0.0
C2070 C 0.05915 0.27998 0.13227 0.0
C2071 C 0.0208 0.2935 0.13658 0.0
C2072 C 0.00683 0.28504 0.15016 0.0
C2073 C 0.97109 0.2986 0.15442 0.0
C2074 C 0.94904 0.32049 0.14514 0.0
C2075 C 0.96259 0.32873 0.13155 0.0
C2076 C 0.99829 0.31513 0.12723 0.0
C2077 C 0.12339 0.12217 0.12996 0.0
C2078 C 0.09588 0.10514 0.12115 0.0
C2079 C 0.12621 0.16193 0.13081 0.0
C2080 C 0.10178 0.18504 0.12275 0.0
C2081 C 0.07577 0.16791 0.11338 0.0
C2082 C 0.07275 0.1283 0.11262 0.0
C2083 C 0.09949 0.22663 0.12532 0.0
C2084 C 0.06418 0.24113 0.12973 0.0
C2085 C 0.13104 0.25166 0.12377 0.0
C2086 C 0.16916 0.2376 0.11933 0.0
C2087 C 0.17351 0.21629 0.1068 0.0
C2088 C 0.20928 0.20184 0.103 0.0
C2089 C 0.24101 0.20877 0.11159 0.0
C2090 C 0.23715 0.2306 0.1239 0.0
C2091 C 0.20141 0.24504 0.12777 0.0
H2092 H 0.26857 0.1972 0.10871 0.0
H2093 H 0.92144 0.33096 0.14849 0.0
H2094 H 0.37361 0.07314 0.60549 0.0
H2095 H 0.30604 0.08859 0.60839 0.0
H2096 H 0.33301 0.1597 0.64432 0.0
H2097 H 0.40113 0.14634 0.64089 0.0
H2098 H 0.28295 0.09348 0.64897 0.0
H2099 H 0.2944 0.20337 0.62128 0.0
H2100 H 0.31227 0.24538 0.60146 0.0
H2101 H 0.24163 0.18002 0.57329 0.0
H2102 H 0.22379 0.13709 0.59286 0.0
H2103 H 0.0903 0.05304 0.65469 0.0
H2104 H 0.14129 0.10082 0.65411 0.0
H2105 H 0.16513 0.07131 0.6106 0.0
H2106 H 0.11334 0.02533 0.61086 0.0
H2107 H 0.18666 0.14209 0.61494 0.0
H2108 H 0.20418 0.01936 0.64005 0.0
H2109 H 0.18789 0.97325 0.6589 0.0
H2110 H 0.20712 0.05948 0.69048 0.0
H2111 H 0.22319 0.10616 0.67178 0.0
C2112 C 0.36535 0.09319 0.61367 0.0
C2113 C 0.3925 0.10807 0.6231 0.0
C2114 C 0.32676 0.102 0.61532 0.0
C2115 C 0.31471 0.12535 0.62654 0.0
C2116 C 0.34189 0.14177 0.63557 0.0
C2117 C 0.38062 0.1337 0.6337 0.0
C2118 C 0.27371 0.12671 0.6301 0.0
C2119 C 0.26176 0.10522 0.6418 0.0
C2120 C 0.24639 0.14171 0.62061 0.0
C2121 C 0.25784 0.16676 0.60861 0.0
C2122 C 0.2831 0.19748 0.61082 0.0
C2123 C 0.29312 0.22161 0.59963 0.0
C2124 C 0.27814 0.21534 0.58612 0.0
C2125 C 0.25317 0.18488 0.58377 0.0
C2126 C 0.24301 0.16067 0.59493 0.0
C2127 C 0.10559 0.05767 0.64487 0.0
C2128 C 0.09857 0.03453 0.63296 0.0
C2129 C 0.13475 0.08501 0.64455 0.0
C2130 C 0.15794 0.0887 0.63247 0.0
C2131 C 0.14794 0.06881 0.6201 0.0
C2132 C 0.11839 0.04216 0.62031 0.0
C2133 C 0.19628 0.10673 0.63325 0.0
C2134 C 0.20777 0.13176 0.62241 0.0
C2135 C 0.22359 0.09433 0.64333 0.0
C2136 C 0.21439 0.06626 0.65456 0.0
C2137 C 0.20481 0.02844 0.65102 0.0
C2138 C 0.1956 0.00225 0.66167 0.0
C2139 C 0.19635 0.01347 0.67588 0.0
C2140 C 0.20645 0.05087 0.67947 0.0
C2141 C 0.2156 0.0772 0.66886 0.0
H2142 H 0.18919 0.99316 0.6841 0.0
H2143 H 0.28584 0.23413 0.57747 0.0
H2144 H 0.52965 0.91684 0.94595 0.0
H2145 H 0.54168 0.92968 0.97092 0.0
H2146 H 0.44324 0.00362 0.97238 0.0
H2147 H 0.43188 0.99199 0.94713 0.0
H2148 H 0.498 0.03537 0.98645 0.0
H2149 H 0.44336 0.91107 0.98716 0.0
H2150 H 0.4349 0.84366 0.98027 0.0
H2151 H 0.54821 0.81803 0.99475 0.0
H2152 H 0.55758 0.88542 1.00155 0.0
H2153 H 0.50601 0.04234 0.06245 0.0
H2154 H 0.4832 0.028 0.03847 0.0
H2155 H 0.58864 0.96934 0.02944 0.0
H2156 H 0.61149 0.98345 0.05339 0.0
H2157 H 0.52331 0.92952 0.0201 0.0
H2158 H 0.57717 0.05702 0.01785 0.0
H2159 H 0.58276 0.1245 0.02505 0.0
H2160 H 0.46532 0.14335 0.01407 0.0
H2161 H 0.4589 0.07579 0.00699 0.0
C2162 C 0.51044 0.93578 0.95157 0.0
C2163 C 0.47966 0.95323 0.94454 0.0
C2164 C 0.51723 0.94292 0.96591 0.0
C2165 C 0.49293 0.96702 0.97369 0.0
C2166 C 0.46232 0.98478 0.96667 0.0
C2167 C 0.45579 0.97803 0.95223 0.0
C2168 C 0.50018 0.97422 0.98904 0.0
C2169 C 0.5028 0.01214 0.99384 0.0
C2170 C 0.50685 0.94405 0.99875 0.0
C2171 C 0.50127 0.90339 0.99476 0.0
C2172 C 0.46658 0.89112 0.98879 0.0
C2173 C 0.4616 0.8529 0.98491 0.0
C2174 C 0.49103 0.8266 0.98704 0.0
C2175 C 0.52545 0.83844 0.99309 0.0
C2176 C 0.5306 0.87664 0.99698 0.0
C2177 C 0.524 0.02576 0.05545 0.0
C2178 C 0.56034 0.01353 0.05986 0.0
C2179 C 0.51109 0.01791 0.0417 0.0
C2180 C 0.53426 0.99765 0.03216 0.0
C2181 C 0.57025 0.9849 0.03664 0.0
C2182 C 0.58332 0.9931 0.0503 0.0
C2183 C 0.52166 0.99049 0.01736 0.0
C2184 C 0.51804 0.95261 0.01269 0.0
C2185 C 0.51352 0.02064 0.00784 0.0
C2186 C 0.51744 0.06126 0.01205 0.0
C2187 C 0.55245 0.07547 0.01709 0.0
C2188 C 0.55579 0.11375 0.02113 0.0
C2189 C 0.52438 0.13817 0.02006 0.0
C2190 C 0.4896 0.12439 0.01492 0.0
C2191 C 0.4861 0.08611 0.01088 0.0
H2192 H 0.52702 0.1678 0.02319 0.0
H2193 H 0.48713 0.79702 0.98402 0.0
H2194 H 0.45406 0.60468 0.55357 0.0
H2195 H 0.46046 0.58363 0.52906 0.0
H2196 H 0.48917 0.47022 0.54338 0.0
H2197 H 0.48548 0.49191 0.56795 0.0
H2198 H 0.5337 0.48795 0.52272 0.0
H2199 H 0.39843 0.49406 0.52858 0.0
H2200 H 0.33674 0.523 0.53515 0.0
H2201 H 0.35418 0.61209 0.50457 0.0
H2202 H 0.41621 0.58396 0.49794 0.0
H2203 H 0.52066 0.4159 0.45168 0.0
H2204 H 0.50937 0.4264 0.47702 0.0
H2205 H 0.48468 0.54503 0.46876 0.0
H2206 H 0.49494 0.53457 0.44352 0.0
H2207 H 0.43465 0.51747 0.48682 0.0
H2208 H 0.57271 0.51286 0.48255 0.0
H2209 H 0.63399 0.48283 0.4761 0.0
H2210 H 0.60974 0.38865 0.50382 0.0
H2211 H 0.5481 0.41794 0.51031 0.0
C2212 C 0.46152 0.57516 0.55152 0.0
C2213 C 0.4679 0.54969 0.56279 0.0
C2214 C 0.46486 0.56304 0.53746 0.0
C2215 C 0.47422 0.52496 0.53427 0.0
C2216 C 0.48129 0.49957 0.54551 0.0
C2217 C 0.47845 0.51186 0.5596 0.0
C2218 C 0.47795 0.51221 0.51923 0.0
C2219 C 0.51168 0.49382 0.51494 0.0
C2220 C 0.44956 0.52018 0.50895 0.0
C2221 C 0.4121 0.53702 0.51284 0.0
C2222 C 0.38921 0.51994 0.52331 0.0
C2223 C 0.35417 0.53619 0.52704 0.0
C2224 C 0.34158 0.5694 0.5203 0.0
C2225 C 0.36397 0.58638 0.50978 0.0
C2226 C 0.39905 0.57026 0.50603 0.0
C2227 C 0.5128 0.4442 0.45528 0.0
C2228 C 0.50883 0.47441 0.44556 0.0
C2229 C 0.50649 0.45021 0.46978 0.0
C2230 C 0.49658 0.48666 0.47488 0.0
C2231 C 0.49224 0.51665 0.46514 0.0
C2232 C 0.49824 0.51062 0.45067 0.0
C2233 C 0.49067 0.494 0.49029 0.0
C2234 C 0.45646 0.5113 0.49465 0.0
C2235 C 0.5185 0.48481 0.50063 0.0
C2236 C 0.55565 0.46739 0.4968 0.0
C2237 C 0.58035 0.48563 0.4872 0.0
C2238 C 0.61516 0.46876 0.48355 0.0
C2239 C 0.6257 0.4338 0.48952 0.0
C2240 C 0.60151 0.41569 0.49919 0.0
C2241 C 0.56666 0.43243 0.50286 0.0
H2242 H 0.65266 0.42078 0.48667 0.0
H2243 H 0.31445 0.58194 0.5232 0.0
H2244 H 0.89203 0.44673 0.05247 0.0
H2245 H 0.91284 0.45314 0.0279 0.0
H2246 H 0.01641 0.50822 0.04186 0.0
H2247 H 0.99462 0.50371 0.06646 0.0
H2248 H 0.98963 0.54459 0.01999 0.0
H2249 H 0.01515 0.41354 0.0294 0.0
H2250 H 0.0019 0.34793 0.03752 0.0
H2251 H 0.91332 0.33703 0.00634 0.0
H2252 H 0.92567 0.40279 0.99816 0.0
H2253 H 0.07033 0.53182 0.9501 0.0
H2254 H 0.06017 0.5223 0.97557 0.0
H2255 H 0.94714 0.47902 0.96719 0.0
H2256 H 0.95698 0.48844 0.94182 0.0
H2257 H 0.98589 0.43506 0.98666 0.0
H2258 H 0.95911 0.56895 0.97865 0.0
H2259 H 0.97451 0.63415 0.97058 0.0
H2260 H 0.06935 0.63838 0.99936 0.0
H2261 H 0.05482 0.57294 0.00746 0.0
C2262 C 0.91937 0.46 0.05032 0.0
C2263 C 0.94222 0.47358 0.06148 0.0
C2264 C 0.9314 0.46341 0.03625 0.0
C2265 C 0.96672 0.4803 0.03297 0.0
C2266 C 0.98932 0.49455 0.04409 0.0
C2267 C 0.97712 0.49139 0.05819 0.0
C2268 C 0.97921 0.48416 0.01791 0.0
C2269 C 0.98949 0.52044 0.01279 0.0
C2270 C 0.97865 0.45286 0.00838 0.0
C2271 C 0.97115 0.41324 0.01325 0.0
C2272 C 0.99266 0.39726 0.02434 0.0
C2273 C 0.98534 0.36002 0.02895 0.0
C2274 C 0.95674 0.33835 0.02247 0.0
C2275 C 0.93545 0.35386 0.01136 0.0
C2276 C 0.94262 0.3911 0.00672 0.0
C2277 C 0.04337 0.52015 0.95368 0.0
C2278 C 0.01442 0.51104 0.9439 0.0
C2279 C 0.03756 0.51485 0.96825 0.0
C2280 C 0.00277 0.5002 0.97331 0.0
C2281 C 0.9742 0.49036 0.96355 0.0
C2282 C 0.97986 0.49591 0.94903 0.0
C2283 C 0.99564 0.49547 0.98877 0.0
C2284 C 0.9864 0.45904 0.99394 0.0
C2285 C 0.99753 0.52652 0.99836 0.0
C2286 C 0.00615 0.5659 0.99354 0.0
C2287 C 0.98344 0.58366 0.98317 0.0
C2288 C 0.99197 0.62068 0.97861 0.0
C2289 C 0.02296 0.64035 0.98442 0.0
C2290 C 0.0454 0.62308 0.99484 0.0
C2291 C 0.03702 0.58604 0.99943 0.0
H2292 H 0.02951 0.66901 0.98088 0.0
H2293 H 0.95112 0.30952 0.02605 0.0
H2294 H 0.94748 0.06766 0.45144 0.0
H2295 H 0.95423 0.05444 0.47679 0.0
H2296 H 0.03201 0.96238 0.46733 0.0
H2297 H 0.02473 0.97481 0.44206 0.0
H2298 H 0.98227 0.93984 0.48624 0.0
H2299 H 0.06226 0.05056 0.48046 0.0
H2300 H 0.07716 0.11683 0.47355 0.0
H2301 H 0.99231 0.15854 0.50251 0.0
H2302 H 0.97653 0.09244 0.50946 0.0
H2303 H 0.07274 0.90849 0.55167 0.0
H2304 H 0.06035 0.9293 0.52746 0.0
H2305 H 0.97076 0.00344 0.54236 0.0
H2306 H 0.98193 0.98178 0.56661 0.0
H2307 H 0.02095 0.03753 0.52154 0.0
H2308 H 0.94401 0.9257 0.52809 0.0
H2309 H 0.93133 0.8591 0.53515 0.0
H2310 H 0.01298 0.81932 0.5046 0.0
H2311 H 0.0266 0.88577 0.4975 0.0
C2312 C 0.96612 0.04469 0.45477 0.0
C2313 C 0.98551 0.02225 0.44471 0.0
C2314 C 0.97008 0.03726 0.46928 0.0
C2315 C 0.99388 0.00757 0.47401 0.0
C2316 C 0.0134 0.98536 0.46396 0.0
C2317 C 0.00926 0.99258 0.44949 0.0
C2318 C 0.99794 0.99878 0.48937 0.0
C2319 C 0.99111 0.96119 0.4939 0.0
C2320 C 0.00841 0.0268 0.4995 0.0
C2321 C 0.01791 0.06654 0.49536 0.0
C2322 C 0.04655 0.07385 0.48527 0.0
C2323 C 0.0552 0.11138 0.48136 0.0
C2324 C 0.03561 0.14187 0.48755 0.0
C2325 C 0.00741 0.13489 0.4977 0.0
C2326 C 0.99861 0.0974 0.50163 0.0
C2327 C 0.05042 0.92932 0.54987 0.0
C2328 C 0.02884 0.94387 0.56123 0.0
C2329 C 0.04345 0.94123 0.53599 0.0
C2330 C 0.01464 0.96791 0.53312 0.0
C2331 C 0.9934 0.98311 0.54439 0.0
C2332 C 0.00015 0.97091 0.55831 0.0
C2333 C 0.00603 0.97856 0.51824 0.0
C2334 C 0.01187 0.01639 0.51384 0.0
C2335 C 0.99487 0.95077 0.50818 0.0
C2336 C 0.98655 0.91074 0.51235 0.0
C2337 C 0.95949 0.90277 0.52295 0.0
C2338 C 0.95209 0.86505 0.52695 0.0
C2339 C 0.9714 0.83501 0.52035 0.0
C2340 C 0.99807 0.84263 0.50971 0.0
C2341 C 0.00561 0.88032 0.50568 0.0
H2342 H 0.96563 0.80581 0.52346 0.0
H2343 H 0.04235 0.17091 0.48451 0.0
H2344 H 0.49436 0.49993 0.94441 0.0
H2345 H 0.47125 0.50618 0.96882 0.0
H2346 H 0.5662 0.43867 0.98359 0.0
H2347 H 0.58884 0.43163 0.95918 0.0
H2348 H 0.50038 0.41909 0.99723 0.0
H2349 H 0.56832 0.53495 0.98558 0.0
H2350 H 0.5819 0.59264 0.97147 0.0
H2351 H 0.46874 0.63439 0.97956 0.0
H2352 H 0.45431 0.57664 0.99357 0.0
H2353 H 0.52039 0.47339 0.06896 0.0
H2354 H 0.52879 0.46253 0.0436 0.0
H2355 H 0.42858 0.53004 0.03491 0.0
H2356 H 0.41986 0.54103 0.06038 0.0
H2357 H 0.48931 0.54923 0.01767 0.0
H2358 H 0.42337 0.43635 0.03134 0.0
H2359 H 0.41017 0.3792 0.04579 0.0
H2360 H 0.51873 0.33187 0.03408 0.0
H2361 H 0.5329 0.38905 0.01974 0.0
C2362 C 0.50972 0.4856 0.95282 0.0
C2363 C 0.54302 0.46467 0.94986 0.0
C2364 C 0.49675 0.48958 0.96679 0.0
C2365 C 0.51708 0.47304 0.97807 0.0
C2366 C 0.54994 0.45155 0.97508 0.0
C2367 C 0.56295 0.44769 0.96114 0.0
C2368 C 0.50524 0.47936 0.99305 0.0
C2369 C 0.49822 0.44753 1.00172 0.0
C2370 C 0.50141 0.5165 0.99885 0.0
C2371 C 0.51009 0.55128 0.99048 0.0
C2372 C 0.54623 0.55629 0.98426 0.0
C2373 C 0.5541 0.58902 0.97629 0.0
C2374 C 0.52616 0.61711 0.97458 0.0
C2375 C 0.49032 0.61257 0.98087 0.0
C2376 C 0.48229 0.57986 0.98883 0.0
C2377 C 0.5 0.48587 0.06169 0.0
C2378 C 0.46943 0.50809 0.06672 0.0
C2379 C 0.50477 0.47947 0.04717 0.0
C2380 C 0.47914 0.4952 0.03734 0.0
C2381 C 0.44865 0.51755 0.0423 0.0
C2382 C 0.44365 0.5237 0.05686 0.0
C2383 C 0.48502 0.48896 0.0219 0.0
C2384 C 0.49098 0.52079 0.01314 0.0
C2385 C 0.48783 0.45183 0.01603 0.0
C2386 C 0.47934 0.41718 0.02455 0.0
C2387 C 0.44457 0.4139 0.03193 0.0
C2388 C 0.43689 0.38148 0.04009 0.0
C2389 C 0.46362 0.35196 0.04088 0.0
C2390 C 0.49806 0.35478 0.03347 0.0
C2391 C 0.50592 0.38718 0.02531 0.0
H2392 H 0.45762 0.32689 0.04721 0.0
H2393 H 0.53231 0.64243 0.96842 0.0
H2394 H 0.9807 0.5127 0.44317 0.0
H2395 H 0.97306 0.48814 0.46711 0.0
H2396 H 0.05535 0.57009 0.48236 0.0
H2397 H 0.06521 0.59298 0.4583 0.0
H2398 H 0.06754 0.50579 0.49495 0.0
H2399 H 0.95474 0.58108 0.48567 0.0
H2400 H 0.8966 0.59925 0.47257 0.0
H2401 H 0.84927 0.48774 0.47973 0.0
H2402 H 0.90737 0.46877 0.49273 0.0
H2403 H 0.02071 0.52233 0.56746 0.0
H2404 H 0.02898 0.53302 0.54209 0.0
H2405 H 0.95741 0.43577 0.53308 0.0
H2406 H 0.94896 0.42477 0.55856 0.0
H2407 H 0.93892 0.49964 0.51683 0.0
H2408 H 0.05044 0.42747 0.52838 0.0
H2409 H 0.10825 0.41144 0.54203 0.0
H2410 H 0.15792 0.51959 0.53102 0.0
H2411 H 0.10013 0.53653 0.51749 0.0
C2412 C 0.99813 0.52484 0.45145 0.0
C2413 C 0.02431 0.55437 0.44859 0.0
C2414 C 0.9931 0.51118 0.46528 0.0
C2415 C 0.01334 0.52742 0.47665 0.0
C2416 C 0.03943 0.55688 0.47382 0.0
C2417 C 0.04482 0.57017 0.46001 0.0
C2418 C 0.00732 0.51435 0.49153 0.0
C2419 C 0.03941 0.5048 0.49974 0.0
C2420 C 0.97056 0.51193 0.49776 0.0
C2421 C 0.93555 0.52338 0.49003 0.0
C2422 C 0.93203 0.56036 0.48437 0.0
C2423 C 0.89908 0.57081 0.47698 0.0
C2424 C 0.86931 0.54463 0.47528 0.0
C2425 C 0.87238 0.50797 0.48102 0.0
C2426 C 0.9053 0.49736 0.48841 0.0
C2427 C 0.00677 0.50309 0.56012 0.0
C2428 C 0.98421 0.47264 0.56506 0.0
C2429 C 0.01165 0.50918 0.5456 0.0
C2430 C 0.99407 0.48502 0.53568 0.0
C2431 C 0.9713 0.45471 0.54055 0.0
C2432 C 0.96663 0.4484 0.55511 0.0
C2433 C -0.00082 0.49202 0.52025 0.0
C2434 C 0.96697 0.50032 0.51197 0.0
C2435 C 0.03584 0.49361 0.51397 0.0
C2436 C 0.0708 0.48338 0.522 0.0
C2437 C 0.07356 0.44796 0.52896 0.0
C2438 C 0.10635 0.43869 0.53666 0.0
C2439 C 0.13671 0.46451 0.53742 0.0
C2440 C 0.13437 0.49962 0.53044 0.0
C2441 C 0.10162 0.50906 0.52273 0.0
H2442 H 0.16207 0.45729 0.54339 0.0
H2443 H 0.84382 0.55277 0.46955 0.0
H2444 H 0.96744 0.93075 0.06142 0.0
H2445 H 0.95954 0.94346 0.03624 0.0
H2446 H 0.0665 0.00455 0.03566 0.0
H2447 H 0.07419 0.99271 0.06113 0.0
H2448 H 0.0143 0.04198 0.02058 0.0
H2449 H 0.05932 0.91375 0.0217 0.0
H2450 H 0.06159 0.84651 0.02942 0.0
H2451 H 0.94775 0.82892 0.01386 0.0
H2452 H 0.94458 0.8962 0.00623 0.0
H2453 H 0.00305 0.04823 0.9446 0.0
H2454 H 0.02624 0.03538 0.96859 0.0
H2455 H 0.92275 0.97332 0.97779 0.0
H2456 H 0.90011 0.98485 0.95373 0.0
H2457 H 0.98359 0.93579 0.98767 0.0
H2458 H 0.93733 0.06646 0.98887 0.0
H2459 H 0.93578 0.13383 0.98126 0.0
H2460 H 0.05407 0.14634 0.99225 0.0
H2461 H 0.05643 0.07886 0.99977 0.0
C2462 C 0.98942 0.94682 0.05598 0.0
C2463 C 0.02162 0.96045 0.0633 0.0
C2464 C 0.98493 0.95392 0.04152 0.0
C2465 C 0.01278 0.97433 0.03395 0.0
C2466 C 0.04474 0.98854 0.04125 0.0
C2467 C 0.04915 0.98165 0.0558 0.0
C2468 C 0.00791 0.98103 0.01847 0.0
C2469 C 0.00832 0.01868 0.01333 0.0
C2470 C -0.00024 0.95073 0.00899 0.0
C2471 C 0.00164 0.91012 0.01347 0.0
C2472 C 0.03468 0.89561 0.02 0.0
C2473 C 0.03614 0.85748 0.02435 0.0
C2474 C 0.00481 0.83348 0.02215 0.0
C2475 C 0.97199 0.84754 0.01556 0.0
C2476 C 0.97037 0.88567 0.0112 0.0
C2477 C 0.98564 0.03108 0.9516 0.0
C2478 C 0.95001 0.01693 0.94713 0.0
C2479 C 0.9987 0.02424 0.96541 0.0
C2480 C 0.97616 0.00352 0.97505 0.0
C2481 C 0.94073 0.98926 0.97055 0.0
C2482 C 0.92773 0.99604 0.9568 0.0
C2483 C 0.98886 0.99676 0.98989 0.0
C2484 C 0.99005 0.95904 0.99489 0.0
C2485 C 0.99866 0.02697 0.9992 0.0
C2486 C 0.99717 0.06752 0.99473 0.0
C2487 C 0.96308 0.0835 0.98956 0.0
C2488 C 0.96204 0.12171 0.98528 0.0
C2489 C 0.99483 0.14431 0.98623 0.0
C2490 C 0.02871 0.12878 0.9915 0.0
C2491 C 0.02991 0.09057 0.99578 0.0
H2492 H 0.99397 0.17389 0.98291 0.0
H2493 H 0.006 0.80396 0.02553 0.0
H2494 H 0.50692 0.99255 0.44144 0.0
H2495 H 0.51254 0.01593 0.4658 0.0
H2496 H 0.43452 0.92836 0.47983 0.0
H2497 H 0.4275 0.9061 0.45539 0.0
H2498 H 0.41876 0.99333 0.49292 0.0
H2499 H 0.53302 0.92065 0.48375 0.0
H2500 H 0.59187 0.90393 0.47082 0.0
H2501 H 0.63722 0.01584 0.47885 0.0
H2502 H 0.57838 0.03339 0.49168 0.0
H2503 H 0.46261 0.97934 0.56588 0.0
H2504 H 0.45448 0.96851 0.54052 0.0
H2505 H 0.52854 0.06387 0.5315 0.0
H2506 H 0.53702 0.07486 0.55697 0.0
H2507 H 0.5465 0.00154 0.51541 0.0
H2508 H 0.4338 0.07216 0.52636 0.0
H2509 H 0.37518 0.08793 0.53958 0.0
H2510 H 0.32691 0.97925 0.52843 0.0
H2511 H 0.38549 0.96257 0.51531 0.0
C2512 C 0.49012 0.97901 0.44965 0.0
C2513 C 0.46596 0.94812 0.44643 0.0
C2514 C 0.49385 0.99198 0.46364 0.0
C2515 C 0.47415 0.97379 0.47474 0.0
C2516 C 0.44991 0.94302 0.47149 0.0
C2517 C 0.44605 0.9302 0.45752 0.0
C2518 C 0.47922 0.98609 0.48977 0.0
C2519 C 0.44669 0.99477 0.49786 0.0
C2520 C 0.5157 0.98903 0.49618 0.0
C2521 C 0.55115 0.97846 0.48854 0.0
C2522 C 0.55543 0.94178 0.48267 0.0
C2523 C 0.5888 0.93214 0.47537 0.0
C2524 C 0.61822 0.95884 0.47398 0.0
C2525 C 0.61438 0.99521 0.47992 0.0
C2526 C 0.58104 0.00501 0.48721 0.0
C2527 C 0.47707 0.9982 0.55853 0.0
C2528 C 0.50046 0.02802 0.5635 0.0
C2529 C 0.47225 0.99204 0.544 0.0
C2530 C 0.49061 0.01557 0.53406 0.0
C2531 C 0.51402 0.04538 0.53896 0.0
C2532 C 0.51872 0.05171 0.55353 0.0
C2533 C 0.48601 0.0082 0.5186 0.0
C2534 C 0.51861 0.00044 0.51043 0.0
C2535 C 0.44959 0.00599 0.51213 0.0
C2536 C 0.41419 0.01599 0.51995 0.0
C2537 C 0.41081 0.0515 0.52681 0.0
C2538 C 0.37756 0.06062 0.53428 0.0
C2539 C 0.34737 0.03458 0.53487 0.0
C2540 C 0.35033 -0.00061 0.52797 0.0
C2541 C 0.38354 0.9901 0.52051 0.0
H2542 H 0.32165 0.0417 0.54065 0.0
H2543 H 0.64403 0.95133 0.46833 0.0
loop_
_geom_bond_atom_site_label_1
_geom_bond_atom_site_label_2
_geom_bond_distance
_geom_bond_site_symmetry_2
_ccdc_geom_bond_type
Co0 O3 1.970 . S
Co0 N17 1.989 . S
Co0 O25 1.967 . S
Co0 O32 1.920 . S
Co1 O4 1.966 . S
Co1 N10 2.022 . S
Co1 N18 1.993 . S
Co1 O26 1.941 . S
C2 O3 1.258 . S
C2 O4 1.263 . S
O3 Co0 1.970 . S
O3 C2 1.258 . S
O4 Co1 1.966 . S
O4 C2 1.263 . S
C5 O6 1.235 . S
C5 O32 1.289 . S
O6 C5 1.235 . S
C7 C9 1.400 . S
C7 N10 1.351 . S
C7 C12 1.501 . S
C8 C9 1.387 . S
C8 N11 1.341 . S
C9 C7 1.400 . S
C9 C8 1.387 . S
N10 Co1 2.022 . S
N10 C7 1.351 . S
N10 N11 1.365 . S
N11 C8 1.341 . S
N11 N10 1.365 . S
N11 H31 0.862 . S
C12 C7 1.501 . S
C12 H13 0.961 . S
C12 H14 0.961 . S
C12 H15 0.960 . S
H13 C12 0.961 . S
H14 C12 0.961 . S
H15 C12 0.960 . S
C16 N17 1.342 1_565 S
C16 C20 1.401 . S
C16 C21 1.499 . S
N17 Co0 1.989 . S
N17 C16 1.342 1_545 S
N17 N18 1.388 . S
N18 Co1 1.993 . S
N18 N17 1.388 . S
N18 C19 1.346 1_545 S
C19 N18 1.346 1_565 S
C19 C20 1.396 . S
C19 C29 1.510 . S
C20 C16 1.401 . S
C20 C19 1.396 . S
C21 C16 1.499 . S
C21 H22 0.959 . S
C21 H23 0.960 . S
C21 H24 0.961 . S
H22 C21 0.959 . S
H23 C21 0.960 . S
H24 C21 0.961 . S
O25 Co0 1.967 . S
O25 C33 1.258 . S
O26 Co1 1.941 . S
O26 C33 1.266 . S
H27 C29 0.959 . S
H28 C29 0.961 . S
C29 C19 1.510 . S
C29 H27 0.959 . S
C29 H28 0.961 . S
C29 H30 0.960 . S
H30 C29 0.960 . S
H31 N11 0.862 . S
O32 Co0 1.920 . S
O32 C5 1.289 . S
C33 O25 1.258 . S
C33 O26 1.266 . S
Co34 O37 1.970 . S
Co34 N51 1.989 . S
Co34 O59 1.967 . S
Co34 O66 1.920 . S
Co35 O38 1.966 . S
Co35 N44 2.022 . S
Co35 N52 1.993 . S
Co35 O60 1.941 . S
C36 O37 1.258 . S
C36 O38 1.263 . S
O37 Co34 1.970 . S
O37 C36 1.258 . S
O38 Co35 1.966 . S
O38 C36 1.263 . S
C39 O40 1.235 . S
C39 O66 1.289 . S
O40 C39 1.235 . S
C41 C43 1.400 . S
C41 N44 1.351 . S
C41 C46 1.501 . S
C42 C43 1.387 . S
C42 N45 1.341 . S
C43 C41 1.400 . S
C43 C42 1.387 . S
N44 Co35 2.022 . S
N44 C41 1.351 . S
N44 N45 1.365 . S
N45 C42 1.341 . S
N45 N44 1.365 . S
N45 H65 0.862 . S
C46 C41 1.501 . S
C46 H47 0.961 . S
C46 H48 0.961 . S
C46 H49 0.960 . S
H47 C46 0.961 . S
H48 C46 0.961 . S
H49 C46 0.960 . S
C50 N51 1.342 . S
C50 C54 1.401 . S
C50 C55 1.499 . S
N51 Co34 1.989 . S
N51 C50 1.342 . S
N51 N52 1.388 . S
N52 Co35 1.993 . S
N52 N51 1.388 . S
N52 C53 1.346 . S
C53 N52 1.346 . S
C53 C54 1.396 . S
C53 C63 1.510 . S
C54 C50 1.401 . S
C54 C53 1.396 . S
C55 C50 1.499 . S
C55 H56 0.959 . S
C55 H57 0.960 . S
C55 H58 0.961 . S
H56 C55 0.959 . S
H57 C55 0.960 . S
H58 C55 0.961 . S
O59 Co34 1.967 . S
O59 C67 1.258 . S
O60 Co35 1.941 . S
O60 C67 1.266 . S
H61 C63 0.959 . S
H62 C63 0.961 . S
C63 C53 1.510 . S
C63 H61 0.959 . S
C63 H62 0.961 . S
C63 H64 0.960 . S
H64 C63 0.960 . S
H65 N45 0.862 . S
O66 Co34 1.920 . S
O66 C39 1.289 . S
C67 O59 1.258 . S
C67 O60 1.266 . S
Co68 O71 1.955 1_655 S
Co68 N85 1.989 . S
Co68 O93 1.967 . S
Co68 O100 1.920 . S
Co69 O72 1.966 . S
Co69 N78 2.022 . S
Co69 N86 1.993 . S
Co69 O94 1.941 . S
C70 O71 1.260 . S
C70 O72 1.263 1_455 S
O71 Co68 1.955 1_455 S
O71 C70 1.260 . S
O72 Co69 1.966 . S
O72 C70 1.263 1_655 S
C73 O74 1.235 1_655 S
C73 O100 1.289 . S
O74 C73 1.235 1_455 S
C75 C77 1.400 . S
C75 N78 1.351 . S
C75 C80 1.501 1_655 S
C76 C77 1.387 . S
C76 N79 1.341 . S
C77 C75 1.400 . S
C77 C76 1.387 . S
N78 Co69 2.022 . S
N78 C75 1.351 . S
N78 N79 1.365 . S
N79 C76 1.341 . S
N79 N78 1.365 . S
N79 H99 0.862 . S
C80 C75 1.501 1_455 S
C80 H81 0.961 . S
C80 H82 0.961 . S
C80 H83 0.960 . S
H81 C80 0.961 . S
H82 C80 0.961 . S
H83 C80 0.960 . S
C84 N85 1.342 . S
C84 C88 1.401 . S
C84 C89 1.499 . S
N85 Co68 1.989 . S
N85 C84 1.342 . S
N85 N86 1.388 . S
N86 Co69 1.993 . S
N86 N85 1.388 . S
N86 C87 1.346 . S
C87 N86 1.346 . S
C87 C88 1.396 . S
C87 C97 1.510 . S
C88 C84 1.401 . S
C88 C87 1.396 . S
C89 C84 1.499 . S
C89 H90 0.959 . S
C89 H91 0.949 1_655 S
C89 H92 0.961 . S
H90 C89 0.959 . S
H91 C89 0.949 1_455 S
H92 C89 0.961 . S
O93 Co68 1.967 . S
O93 C101 1.258 . S
O94 Co69 1.941 . S
O94 C101 1.266 . S
H95 C97 0.959 . S
H96 C97 0.961 1_455 S
C97 C87 1.510 . S
C97 H95 0.959 . S
C97 H96 0.961 1_655 S
C97 H98 0.960 . S
H98 C97 0.960 . S
H99 N79 0.862 . S
O100 Co68 1.920 . S
O100 C73 1.289 . S
C101 O93 1.258 . S
C101 O94 1.266 . S
Co102 O105 1.955 1_565 S
Co102 N119 1.989 . S
Co102 O127 1.967 . S
Co102 O134 1.920 . S
Co103 O106 1.966 . S
Co103 N112 2.022 . S
Co103 N120 1.993 . S
Co103 O128 1.941 . S
C104 O105 1.260 . S
C104 O106 1.263 1_545 S
O105 Co102 1.955 1_545 S
O105 C104 1.260 . S
O106 Co103 1.966 . S
O106 C104 1.263 1_565 S
C107 O108 1.235 1_565 S
C107 O134 1.289 . S
O108 C107 1.235 1_545 S
C109 C111 1.400 . S
C109 N112 1.351 . S
C109 C114 1.501 1_565 S
C110 C111 1.387 . S
C110 N113 1.341 . S
C111 C109 1.400 . S
C111 C110 1.387 . S
N112 Co103 2.022 . S
N112 C109 1.351 . S
N112 N113 1.365 . S
N113 C110 1.341 . S
N113 N112 1.365 . S
N113 H133 0.862 . S
C114 C109 1.501 1_545 S
C114 H115 0.961 . S
C114 H116 0.961 . S
C114 H117 0.960 . S
H115 C114 0.961 . S
H116 C114 0.961 . S
H117 C114 0.960 . S
C118 N119 1.342 1_655 S
C118 C122 1.401 . S
C118 C123 1.499 . S
N119 Co102 1.989 . S
N119 C118 1.342 1_455 S
N119 N120 1.388 . S
N120 Co103 1.993 . S
N120 N119 1.388 . S
N120 C121 1.346 1_455 S
C121 N120 1.346 1_655 S
C121 C122 1.396 . S
C121 C131 1.510 . S
C122 C118 1.401 . S
C122 C121 1.396 . S
C123 C118 1.499 . S
C123 H124 0.959 . S
C123 H125 0.949 1_565 S
C123 H126 0.961 . S
H124 C123 0.959 . S
H125 C123 0.949 1_545 S
H126 C123 0.961 . S
O127 Co102 1.967 . S
O127 C135 1.258 . S
O128 Co103 1.941 . S
O128 C135 1.266 . S
H129 C131 0.959 . S
H130 C131 0.961 1_545 S
C131 C121 1.510 . S
C131 H129 0.959 . S
C131 H130 0.961 1_565 S
C131 H132 0.960 . S
H132 C131 0.960 . S
H133 N113 0.862 . S
O134 Co102 1.920 . S
O134 C107 1.289 . S
C135 O127 1.258 . S
C135 O128 1.266 . S
Co136 O139 1.970 . S
Co136 N153 1.989 . S
Co136 O161 1.967 . S
Co136 O168 1.920 . S
Co137 O140 1.966 . S
Co137 N146 2.022 . S
Co137 N154 1.993 . S
Co137 O162 1.941 . S
C138 O139 1.258 . S
C138 O140 1.263 . S
O139 Co136 1.970 . S
O139 C138 1.258 . S
O140 Co137 1.966 . S
O140 C138 1.263 . S
C141 O142 1.235 . S
C141 O168 1.289 . S
O142 C141 1.235 . S
C143 C145 1.400 . S
C143 N146 1.351 . S
C143 C148 1.501 . S
C144 C145 1.387 . S
C144 N147 1.341 . S
C145 C143 1.400 . S
C145 C144 1.387 . S
N146 Co137 2.022 . S
N146 C143 1.351 . S
N146 N147 1.365 . S
N147 C144 1.341 . S
N147 N146 1.365 . S
N147 H167 0.862 . S
C148 C143 1.501 . S
C148 H149 0.961 . S
C148 H150 0.961 . S
C148 H151 0.960 . S
H149 C148 0.961 . S
H150 C148 0.961 . S
H151 C148 0.960 . S
C152 N153 1.342 . S
C152 C156 1.401 . S
C152 C157 1.499 . S
N153 Co136 1.989 . S
N153 C152 1.342 . S
N153 N154 1.388 . S
N154 Co137 1.993 . S
N154 N153 1.388 . S
N154 C155 1.346 . S
C155 N154 1.346 . S
C155 C156 1.396 . S
C155 C165 1.510 . S
C156 C152 1.401 . S
C156 C155 1.396 . S
C157 C152 1.499 . S
C157 H158 0.959 . S
C157 H159 0.960 . S
C157 H160 0.961 . S
H158 C157 0.959 . S
H159 C157 0.960 . S
H160 C157 0.961 . S
O161 Co136 1.967 . S
O161 C169 1.258 . S
O162 Co137 1.941 . S
O162 C169 1.266 . S
H163 C165 0.959 . S
H164 C165 0.961 . S
C165 C155 1.510 . S
C165 H163 0.959 . S
C165 H164 0.961 . S
C165 H166 0.960 . S
H166 C165 0.960 . S
H167 N147 0.862 . S
O168 Co136 1.920 . S
O168 C141 1.289 . S
C169 O161 1.258 . S
C169 O162 1.266 . S
Co170 O173 1.970 . S
Co170 N187 1.989 . S
Co170 O195 1.967 . S
Co170 O202 1.920 . S
Co171 O174 1.966 . S
Co171 N180 2.022 . S
Co171 N188 1.993 . S
Co171 O196 1.941 . S
C172 O173 1.258 . S
C172 O174 1.263 . S
O173 Co170 1.970 . S
O173 C172 1.258 . S
O174 Co171 1.966 . S
O174 C172 1.263 . S
C175 O176 1.235 . S
C175 O202 1.289 . S
O176 C175 1.235 . S
C177 C179 1.400 . S
C177 N180 1.351 . S
C177 C182 1.501 . S
C178 C179 1.387 . S
C178 N181 1.341 . S
C179 C177 1.400 . S
C179 C178 1.387 . S
N180 Co171 2.022 . S
N180 C177 1.351 . S
N180 N181 1.365 . S
N181 C178 1.341 . S
N181 N180 1.365 . S
N181 H201 0.862 . S
C182 C177 1.501 . S
C182 H183 0.961 . S
C182 H184 0.961 . S
C182 H185 0.960 . S
H183 C182 0.961 . S
H184 C182 0.961 . S
H185 C182 0.960 . S
C186 N187 1.342 1_655 S
C186 C190 1.401 . S
C186 C191 1.499 . S
N187 Co170 1.989 . S
N187 C186 1.342 1_455 S
N187 N188 1.388 . S
N188 Co171 1.993 . S
N188 N187 1.388 . S
N188 C189 1.346 1_455 S
C189 N188 1.346 1_655 S
C189 C190 1.396 . S
C189 C199 1.510 . S
C190 C186 1.401 . S
C190 C189 1.396 . S
C191 C186 1.499 . S
C191 H192 0.959 . S
C191 H193 0.960 . S
C191 H194 0.961 . S
H192 C191 0.959 . S
H193 C191 0.960 . S
H194 C191 0.961 . S
O195 Co170 1.967 . S
O195 C203 1.258 . S
O196 Co171 1.941 . S
O196 C203 1.266 . S
H197 C199 0.959 . S
H198 C199 0.961 . S
C199 C189 1.510 . S
C199 H197 0.959 . S
C199 H198 0.961 . S
C199 H200 0.960 . S
H200 C199 0.960 . S
H201 N181 0.862 . S
O202 Co170 1.920 . S
O202 C175 1.289 . S
C203 O195 1.258 . S
C203 O196 1.266 . S
Co204 O207 1.955 1_655 S
Co204 N221 1.989 . S
Co204 O229 1.967 . S
Co204 O236 1.920 . S
Co205 O208 1.966 . S
Co205 N214 2.022 . S
Co205 N222 1.993 . S
Co205 O230 1.941 . S
C206 O207 1.260 . S
C206 O208 1.263 1_455 S
O207 Co204 1.955 1_455 S
O207 C206 1.260 . S
O208 Co205 1.966 . S
O208 C206 1.263 1_655 S
C209 O210 1.235 1_655 S
C209 O236 1.289 . S
O210 C209 1.235 1_455 S
C211 C213 1.400 . S
C211 N214 1.351 . S
C211 C216 1.501 1_655 S
C212 C213 1.387 . S
C212 N215 1.341 . S
C213 C211 1.400 . S
C213 C212 1.387 . S
N214 Co205 2.022 . S
N214 C211 1.351 . S
N214 N215 1.365 . S
N215 C212 1.341 . S
N215 N214 1.365 . S
N215 H235 0.862 . S
C216 C211 1.501 1_455 S
C216 H217 0.961 . S
C216 H218 0.961 . S
C216 H219 0.960 . S
H217 C216 0.961 . S
H218 C216 0.961 . S
H219 C216 0.960 . S
C220 N221 1.342 1_565 S
C220 C224 1.401 . S
C220 C225 1.499 . S
N221 Co204 1.989 . S
N221 C220 1.342 1_545 S
N221 N222 1.388 . S
N222 Co205 1.993 . S
N222 N221 1.388 . S
N222 C223 1.346 1_545 S
C223 N222 1.346 1_565 S
C223 C224 1.396 . S
C223 C233 1.510 . S
C224 C220 1.401 . S
C224 C223 1.396 . S
C225 C220 1.499 . S
C225 H226 0.959 . S
C225 H227 0.949 1_655 S
C225 H228 0.961 . S
H226 C225 0.959 . S
H227 C225 0.949 1_455 S
H228 C225 0.961 . S
O229 Co204 1.967 . S
O229 C237 1.258 . S
O230 Co205 1.941 . S
O230 C237 1.266 . S
H231 C233 0.959 . S
H232 C233 0.961 1_455 S
C233 C223 1.510 . S
C233 H231 0.959 . S
C233 H232 0.961 1_655 S
C233 H234 0.960 . S
H234 C233 0.960 . S
H235 N215 0.862 . S
O236 Co204 1.920 . S
O236 C209 1.289 . S
C237 O229 1.258 . S
C237 O230 1.266 . S
Co238 O241 1.955 1_565 S
Co238 N255 1.989 . S
Co238 O263 1.967 . S
Co238 O270 1.920 . S
Co239 O242 1.966 . S
Co239 N248 2.022 . S
Co239 N256 1.993 . S
Co239 O264 1.941 . S
C240 O241 1.260 . S
C240 O242 1.263 1_545 S
O241 Co238 1.955 1_545 S
O241 C240 1.260 . S
O242 Co239 1.966 . S
O242 C240 1.263 1_565 S
C243 O244 1.235 1_565 S
C243 O270 1.289 . S
O244 C243 1.235 1_545 S
C245 C247 1.400 . S
C245 N248 1.351 . S
C245 C250 1.501 1_565 S
C246 C247 1.387 . S
C246 N249 1.341 . S
C247 C245 1.400 . S
C247 C246 1.387 . S
N248 Co239 2.022 . S
N248 C245 1.351 . S
N248 N249 1.365 . S
N249 C246 1.341 . S
N249 N248 1.365 . S
N249 H269 0.862 . S
C250 C245 1.501 1_545 S
C250 H251 0.961 . S
C250 H252 0.961 . S
C250 H253 0.960 . S
H251 C250 0.961 . S
H252 C250 0.961 . S
H253 C250 0.960 . S
C254 N255 1.342 . S
C254 C258 1.401 . S
C254 C259 1.499 . S
N255 Co238 1.989 . S
N255 C254 1.342 . S
N255 N256 1.388 . S
N256 Co239 1.993 . S
N256 N255 1.388 . S
N256 C257 1.346 . S
C257 N256 1.346 . S
C257 C258 1.396 . S
C257 C267 1.510 . S
C258 C254 1.401 . S
C258 C257 1.396 . S
C259 C254 1.499 . S
C259 H260 0.959 . S
C259 H261 0.949 1_565 S
C259 H262 0.961 . S
H260 C259 0.959 . S
H261 C259 0.949 1_545 S
H262 C259 0.961 . S
O263 Co238 1.967 . S
O263 C271 1.258 . S
O264 Co239 1.941 . S
O264 C271 1.266 . S
H265 C267 0.959 . S
H266 C267 0.961 1_545 S
C267 C257 1.510 . S
C267 H265 0.959 . S
C267 H266 0.961 1_565 S
C267 H268 0.960 . S
H268 C267 0.960 . S
H269 N249 0.862 . S
O270 Co238 1.920 . S
O270 C243 1.289 . S
C271 O263 1.258 . S
C271 O264 1.266 . S
Co272 O275 1.970 . S
Co272 N289 1.989 . S
Co272 O297 1.967 . S
Co272 O304 1.920 . S
Co273 O276 1.966 . S
Co273 N282 2.022 . S
Co273 N290 1.993 . S
Co273 O298 1.941 . S
C274 O275 1.258 . S
C274 O276 1.263 . S
O275 Co272 1.970 . S
O275 C274 1.258 . S
O276 Co273 1.966 . S
O276 C274 1.263 . S
C277 O278 1.235 . S
C277 O304 1.289 . S
O278 C277 1.235 . S
C279 C281 1.400 . S
C279 N282 1.351 . S
C279 C284 1.501 . S
C280 C281 1.387 . S
C280 N283 1.341 . S
C281 C279 1.400 . S
C281 C280 1.387 . S
N282 Co273 2.022 . S
N282 C279 1.351 . S
N282 N283 1.365 . S
N283 C280 1.341 . S
N283 N282 1.365 . S
N283 H303 0.862 . S
C284 C279 1.501 . S
C284 H285 0.961 . S
C284 H286 0.961 . S
C284 H287 0.960 . S
H285 C284 0.961 . S
H286 C284 0.961 . S
H287 C284 0.960 . S
C288 N289 1.342 1_545 S
C288 C292 1.401 . S
C288 C293 1.499 . S
N289 Co272 1.989 . S
N289 C288 1.342 1_565 S
N289 N290 1.388 . S
N290 Co273 1.993 . S
N290 N289 1.388 . S
N290 C291 1.346 1_565 S
C291 N290 1.346 1_545 S
C291 C292 1.396 . S
C291 C301 1.510 . S
C292 C288 1.401 . S
C292 C291 1.396 . S
C293 C288 1.499 . S
C293 H294 0.959 . S
C293 H295 0.960 . S
C293 H296 0.961 . S
H294 C293 0.959 . S
H295 C293 0.960 . S
H296 C293 0.961 . S
O297 Co272 1.967 . S
O297 C305 1.258 . S
O298 Co273 1.941 . S
O298 C305 1.266 . S
H299 C301 0.959 . S
H300 C301 0.961 . S
C301 C291 1.510 . S
C301 H299 0.959 . S
C301 H300 0.961 . S
C301 H302 0.960 . S
H302 C301 0.960 . S
H303 N283 0.862 . S
O304 Co272 1.920 . S
O304 C277 1.289 . S
C305 O297 1.258 . S
C305 O298 1.266 . S
Co306 O309 1.970 . S
Co306 N323 1.989 . S
Co306 O331 1.967 . S
Co306 O338 1.920 . S
Co307 O310 1.966 . S
Co307 N316 2.022 . S
Co307 N324 1.993 . S
Co307 O332 1.941 . S
C308 O309 1.258 . S
C308 O310 1.263 . S
O309 Co306 1.970 . S
O309 C308 1.258 . S
O310 Co307 1.966 . S
O310 C308 1.263 . S
C311 O312 1.235 . S
C311 O338 1.289 . S
O312 C311 1.235 . S
C313 C315 1.400 . S
C313 N316 1.351 . S
C313 C318 1.501 . S
C314 C315 1.387 . S
C314 N317 1.341 . S
C315 C313 1.400 . S
C315 C314 1.387 . S
N316 Co307 2.022 . S
N316 C313 1.351 . S
N316 N317 1.365 . S
N317 C314 1.341 . S
N317 N316 1.365 . S
N317 H337 0.862 . S
C318 C313 1.501 . S
C318 H319 0.961 . S
C318 H320 0.961 . S
C318 H321 0.960 . S
H319 C318 0.961 . S
H320 C318 0.961 . S
H321 C318 0.960 . S
C322 N323 1.342 . S
C322 C326 1.401 . S
C322 C327 1.499 . S
N323 Co306 1.989 . S
N323 C322 1.342 . S
N323 N324 1.388 . S
N324 Co307 1.993 . S
N324 N323 1.388 . S
N324 C325 1.346 . S
C325 N324 1.346 . S
C325 C326 1.396 . S
C325 C335 1.510 . S
C326 C322 1.401 . S
C326 C325 1.396 . S
C327 C322 1.499 . S
C327 H328 0.959 . S
C327 H329 0.960 . S
C327 H330 0.961 . S
H328 C327 0.959 . S
H329 C327 0.960 . S
H330 C327 0.961 . S
O331 Co306 1.967 . S
O331 C339 1.258 . S
O332 Co307 1.941 . S
O332 C339 1.266 . S
H333 C335 0.959 . S
H334 C335 0.961 . S
C335 C325 1.510 . S
C335 H333 0.959 . S
C335 H334 0.961 . S
C335 H336 0.960 . S
H336 C335 0.960 . S
H337 N317 0.862 . S
O338 Co306 1.920 . S
O338 C311 1.289 . S
C339 O331 1.258 . S
C339 O332 1.266 . S
Co340 O343 1.970 . S
Co340 N357 1.989 . S
Co340 O365 1.967 . S
Co340 O372 1.920 . S
Co341 O344 1.966 . S
Co341 N350 2.022 . S
Co341 N358 1.993 . S
Co341 O366 1.941 . S
C342 O343 1.258 . S
C342 O344 1.263 . S
O343 Co340 1.970 . S
O343 C342 1.258 . S
O344 Co341 1.966 . S
O344 C342 1.263 . S
C345 O346 1.235 . S
C345 O372 1.289 . S
O346 C345 1.235 . S
C347 C349 1.400 . S
C347 N350 1.351 . S
C347 C352 1.501 . S
C348 C349 1.387 . S
C348 N351 1.341 . S
C349 C347 1.400 . S
C349 C348 1.387 . S
N350 Co341 2.022 . S
N350 C347 1.351 . S
N350 N351 1.365 . S
N351 C348 1.341 . S
N351 N350 1.365 . S
N351 H371 0.862 . S
C352 C347 1.501 . S
C352 H353 0.961 . S
C352 H354 0.961 1_455 S
C352 H355 0.960 . S
H353 C352 0.961 . S
H354 C352 0.961 1_655 S
H355 C352 0.960 . S
C356 N357 1.342 . S
C356 C360 1.401 . S
C356 C361 1.499 . S
N357 Co340 1.989 . S
N357 C356 1.342 . S
N357 N358 1.388 . S
N358 Co341 1.993 . S
N358 N357 1.388 . S
N358 C359 1.346 . S
C359 N358 1.346 . S
C359 C360 1.396 . S
C359 C369 1.510 . S
C360 C356 1.401 . S
C360 C359 1.396 . S
C361 C356 1.499 . S
C361 H362 0.959 . S
C361 H363 0.960 . S
C361 H364 0.961 . S
H362 C361 0.959 . S
H363 C361 0.960 . S
H364 C361 0.961 . S
O365 Co340 1.967 . S
O365 C373 1.258 . S
O366 Co341 1.941 . S
O366 C373 1.266 . S
H367 C369 0.959 . S
H368 C369 0.961 . S
C369 C359 1.510 . S
C369 H367 0.959 . S
C369 H368 0.961 . S
C369 H370 0.960 . S
H370 C369 0.960 . S
H371 N351 0.862 . S
O372 Co340 1.920 . S
O372 C345 1.289 . S
C373 O365 1.258 . S
C373 O366 1.266 . S
Co374 O377 1.970 . S
Co374 N391 1.989 . S
Co374 O399 1.967 . S
Co374 O406 1.920 . S
Co375 O378 1.966 . S
Co375 N384 2.022 . S
Co375 N392 1.993 . S
Co375 O400 1.941 . S
C376 O377 1.258 . S
C376 O378 1.263 . S
O377 Co374 1.970 . S
O377 C376 1.258 . S
O378 Co375 1.966 . S
O378 C376 1.263 . S
C379 O380 1.235 . S
C379 O406 1.289 . S
O380 C379 1.235 . S
C381 C383 1.400 . S
C381 N384 1.351 . S
C381 C386 1.501 . S
C382 C383 1.387 . S
C382 N385 1.341 . S
C383 C381 1.400 . S
C383 C382 1.387 . S
N384 Co375 2.022 . S
N384 C381 1.351 . S
N384 N385 1.365 . S
N385 C382 1.341 . S
N385 N384 1.365 . S
N385 H405 0.862 . S
C386 C381 1.501 . S
C386 H387 0.961 . S
C386 H388 0.961 1_545 S
C386 H389 0.960 . S
H387 C386 0.961 . S
H388 C386 0.961 1_565 S
H389 C386 0.960 . S
C390 N391 1.342 1_455 S
C390 C394 1.401 . S
C390 C395 1.499 . S
N391 Co374 1.989 . S
N391 C390 1.342 1_655 S
N391 N392 1.388 . S
N392 Co375 1.993 . S
N392 N391 1.388 . S
N392 C393 1.346 1_655 S
C393 N392 1.346 1_455 S
C393 C394 1.396 . S
C393 C403 1.510 . S
C394 C390 1.401 . S
C394 C393 1.396 . S
C395 C390 1.499 . S
C395 H396 0.959 . S
C395 H397 0.960 . S
C395 H398 0.961 . S
H396 C395 0.959 . S
H397 C395 0.960 . S
H398 C395 0.961 . S
O399 Co374 1.967 . S
O399 C407 1.258 . S
O400 Co375 1.941 . S
O400 C407 1.266 . S
H401 C403 0.959 . S
H402 C403 0.961 . S
C403 C393 1.510 . S
C403 H401 0.959 . S
C403 H402 0.961 . S
C403 H404 0.960 . S
H404 C403 0.960 . S
H405 N385 0.862 . S
O406 Co374 1.920 . S
O406 C379 1.289 . S
C407 O399 1.258 . S
C407 O400 1.266 . S
Co408 O411 1.970 . S
Co408 N425 1.989 . S
Co408 O433 1.967 . S
Co408 O440 1.920 . S
Co409 O412 1.966 . S
Co409 N418 2.022 . S
Co409 N426 1.993 . S
Co409 O434 1.941 . S
C410 O411 1.258 . S
C410 O412 1.263 . S
O411 Co408 1.970 . S
O411 C410 1.258 . S
O412 Co409 1.966 . S
O412 C410 1.263 . S
C413 O414 1.235 . S
C413 O440 1.289 . S
O414 C413 1.235 . S
C415 C417 1.400 . S
C415 N418 1.351 . S
C415 C420 1.501 . S
C416 C417 1.387 . S
C416 N419 1.341 . S
C417 C415 1.400 . S
C417 C416 1.387 . S
N418 Co409 2.022 . S
N418 C415 1.351 . S
N418 N419 1.365 . S
N419 C416 1.341 . S
N419 N418 1.365 . S
N419 H439 0.862 . S
C420 C415 1.501 . S
C420 H421 0.961 . S
C420 H422 0.961 . S
C420 H423 0.960 . S
H421 C420 0.961 . S
H422 C420 0.961 . S
H423 C420 0.960 . S
C424 N425 1.342 . S
C424 C428 1.401 . S
C424 C429 1.499 . S
N425 Co408 1.989 . S
N425 C424 1.342 . S
N425 N426 1.388 . S
N426 Co409 1.993 . S
N426 N425 1.388 . S
N426 C427 1.346 . S
C427 N426 1.346 . S
C427 C428 1.396 . S
C427 C437 1.510 . S
C428 C424 1.401 . S
C428 C427 1.396 . S
C429 C424 1.499 . S
C429 H430 0.959 . S
C429 H431 0.960 . S
C429 H432 0.961 . S
H430 C429 0.959 . S
H431 C429 0.960 . S
H432 C429 0.961 . S
O433 Co408 1.967 . S
O433 C441 1.258 . S
O434 Co409 1.941 . S
O434 C441 1.266 . S
H435 C437 0.959 . S
H436 C437 0.961 . S
C437 C427 1.510 . S
C437 H435 0.959 . S
C437 H436 0.961 . S
C437 H438 0.960 . S
H438 C437 0.960 . S
H439 N419 0.862 . S
O440 Co408 1.920 . S
O440 C413 1.289 . S
C441 O433 1.258 . S
C441 O434 1.266 . S
Co442 O445 1.970 . S
Co442 N459 1.989 . S
Co442 O467 1.967 . S
Co442 O474 1.920 . S
Co443 O446 1.966 . S
Co443 N452 2.022 . S
Co443 N460 1.993 . S
Co443 O468 1.941 . S
C444 O445 1.258 . S
C444 O446 1.263 . S
O445 Co442 1.970 . S
O445 C444 1.258 . S
O446 Co443 1.966 . S
O446 C444 1.263 . S
C447 O448 1.235 . S
C447 O474 1.289 . S
O448 C447 1.235 . S
C449 C451 1.400 . S
C449 N452 1.351 . S
C449 C454 1.501 . S
C450 C451 1.387 . S
C450 N453 1.341 . S
C451 C449 1.400 . S
C451 C450 1.387 . S
N452 Co443 2.022 . S
N452 C449 1.351 . S
N452 N453 1.365 . S
N453 C450 1.341 . S
N453 N452 1.365 . S
N453 H473 0.862 . S
C454 C449 1.501 . S
C454 H455 0.961 . S
C454 H456 0.961 . S
C454 H457 0.960 . S
H455 C454 0.961 . S
H456 C454 0.961 . S
H457 C454 0.960 . S
C458 N459 1.342 1_455 S
C458 C462 1.401 . S
C458 C463 1.499 . S
N459 Co442 1.989 . S
N459 C458 1.342 1_655 S
N459 N460 1.388 . S
N460 Co443 1.993 . S
N460 N459 1.388 . S
N460 C461 1.346 1_655 S
C461 N460 1.346 1_455 S
C461 C462 1.396 . S
C461 C471 1.510 . S
C462 C458 1.401 . S
C462 C461 1.396 . S
C463 C458 1.499 . S
C463 H464 0.959 . S
C463 H465 0.960 . S
C463 H466 0.961 . S
H464 C463 0.959 . S
H465 C463 0.960 . S
H466 C463 0.961 . S
O467 Co442 1.967 . S
O467 C475 1.258 . S
O468 Co443 1.941 . S
O468 C475 1.266 . S
H469 C471 0.959 . S
H470 C471 0.961 . S
C471 C461 1.510 . S
C471 H469 0.959 . S
C471 H470 0.961 . S
C471 H472 0.960 . S
H472 C471 0.960 . S
H473 N453 0.862 . S
O474 Co442 1.920 . S
O474 C447 1.289 . S
C475 O467 1.258 . S
C475 O468 1.266 . S
Co476 O479 1.970 . S
Co476 N493 1.989 . S
Co476 O501 1.967 . S
Co476 O508 1.920 . S
Co477 O480 1.966 . S
Co477 N486 2.022 . S
Co477 N494 1.993 . S
Co477 O502 1.941 . S
C478 O479 1.258 . S
C478 O480 1.263 . S
O479 Co476 1.970 . S
O479 C478 1.258 . S
O480 Co477 1.966 . S
O480 C478 1.263 . S
C481 O482 1.235 . S
C481 O508 1.289 . S
O482 C481 1.235 . S
C483 C485 1.400 . S
C483 N486 1.351 . S
C483 C488 1.501 . S
C484 C485 1.387 . S
C484 N487 1.341 . S
C485 C483 1.400 . S
C485 C484 1.387 . S
N486 Co477 2.022 . S
N486 C483 1.351 . S
N486 N487 1.365 . S
N487 C484 1.341 . S
N487 N486 1.365 . S
N487 H507 0.862 . S
C488 C483 1.501 . S
C488 H489 0.961 . S
C488 H490 0.961 1_455 S
C488 H491 0.960 . S
H489 C488 0.961 . S
H490 C488 0.961 1_655 S
H491 C488 0.960 . S
C492 N493 1.342 1_545 S
C492 C496 1.401 . S
C492 C497 1.499 . S
N493 Co476 1.989 . S
N493 C492 1.342 1_565 S
N493 N494 1.388 . S
N494 Co477 1.993 . S
N494 N493 1.388 . S
N494 C495 1.346 1_565 S
C495 N494 1.346 1_545 S
C495 C496 1.396 . S
C495 C505 1.510 . S
C496 C492 1.401 . S
C496 C495 1.396 . S
C497 C492 1.499 . S
C497 H498 0.959 . S
C497 H499 0.960 . S
C497 H500 0.961 . S
H498 C497 0.959 . S
H499 C497 0.960 . S
H500 C497 0.961 . S
O501 Co476 1.967 . S
O501 C509 1.258 . S
O502 Co477 1.941 . S
O502 C509 1.266 . S
H503 C505 0.959 . S
H504 C505 0.961 . S
C505 C495 1.510 . S
C505 H503 0.959 . S
C505 H504 0.961 . S
C505 H506 0.960 . S
H506 C505 0.960 . S
H507 N487 0.862 . S
O508 Co476 1.920 . S
O508 C481 1.289 . S
C509 O501 1.258 . S
C509 O502 1.266 . S
Co510 O513 1.970 . S
Co510 N527 1.989 . S
Co510 O535 1.967 . S
Co510 O542 1.920 . S
Co511 O514 1.966 . S
Co511 N520 2.022 . S
Co511 N528 1.993 . S
Co511 O536 1.941 . S
C512 O513 1.258 . S
C512 O514 1.263 . S
O513 Co510 1.970 . S
O513 C512 1.258 . S
O514 Co511 1.966 . S
O514 C512 1.263 . S
C515 O516 1.235 . S
C515 O542 1.289 . S
O516 C515 1.235 . S
C517 C519 1.400 . S
C517 N520 1.351 . S
C517 C522 1.501 . S
C518 C519 1.387 . S
C518 N521 1.341 . S
C519 C517 1.400 . S
C519 C518 1.387 . S
N520 Co511 2.022 . S
N520 C517 1.351 . S
N520 N521 1.365 . S
N521 C518 1.341 . S
N521 N520 1.365 . S
N521 H541 0.862 . S
C522 C517 1.501 . S
C522 H523 0.961 . S
C522 H524 0.961 1_545 S
C522 H525 0.960 . S
H523 C522 0.961 . S
H524 C522 0.961 1_565 S
H525 C522 0.960 . S
C526 N527 1.342 . S
C526 C530 1.401 . S
C526 C531 1.499 . S
N527 Co510 1.989 . S
N527 C526 1.342 . S
N527 N528 1.388 . S
N528 Co511 1.993 . S
N528 N527 1.388 . S
N528 C529 1.346 . S
C529 N528 1.346 . S
C529 C530 1.396 . S
C529 C539 1.510 . S
C530 C526 1.401 . S
C530 C529 1.396 . S
C531 C526 1.499 . S
C531 H532 0.959 . S
C531 H533 0.960 . S
C531 H534 0.961 . S
H532 C531 0.959 . S
H533 C531 0.960 . S
H534 C531 0.961 . S
O535 Co510 1.967 . S
O535 C543 1.258 . S
O536 Co511 1.941 . S
O536 C543 1.266 . S
H537 C539 0.959 . S
H538 C539 0.961 . S
C539 C529 1.510 . S
C539 H537 0.959 . S
C539 H538 0.961 . S
C539 H540 0.960 . S
H540 C539 0.960 . S
H541 N521 0.862 . S
O542 Co510 1.920 . S
O542 C515 1.289 . S
C543 O535 1.258 . S
C543 O536 1.266 . S
H544 C562 0.951 . S
H545 C564 0.951 1_565 S
H546 C566 0.950 . S
H547 C567 0.950 . S
H548 C569 0.950 . S
H549 C572 0.950 . S
H550 C573 0.950 . S
H551 C575 0.950 1_565 S
H552 C576 0.950 1_565 S
H553 C577 0.951 . S
H554 C579 0.951 . S
H555 C581 0.950 . S
H556 C582 0.950 . S
H557 C584 0.950 . S
H558 C587 0.950 . S
H559 C588 0.950 . S
H560 C590 0.950 . S
H561 C591 0.950 . S
C562 H544 0.951 . S
C562 C563 1.366 . S
C562 C564 1.388 . S
C563 C562 1.366 . S
C563 C567 1.385 . S
C564 H545 0.951 1_545 S
C564 C562 1.388 . S
C564 C565 1.366 . S
C565 C564 1.366 . S
C565 C566 1.414 . S
C565 C568 1.499 . S
C566 H546 0.950 . S
C566 C565 1.414 . S
C566 C567 1.374 . S
C567 H547 0.950 . S
C567 C563 1.385 . S
C567 C566 1.374 . S
C568 C565 1.499 . S
C568 C569 1.373 . S
C568 C570 1.389 . S
C569 H548 0.950 . S
C569 C568 1.373 . S
C569 C585 1.377 . S
C570 C568 1.389 . S
C570 C571 1.524 . S
C570 C584 1.377 . S
C571 C570 1.524 . S
C571 C572 1.397 . S
C571 C576 1.363 . S
C572 H549 0.950 . S
C572 C571 1.397 . S
C572 C573 1.334 . S
C573 H550 0.950 . S
C573 C572 1.334 . S
C573 C574 1.287 . S
C574 C573 1.287 . S
C574 C575 1.524 . S
C574 H593 0.913 . S
C575 H551 0.950 1_545 S
C575 C574 1.524 . S
C575 C576 1.415 . S
C576 H552 0.950 1_545 S
C576 C571 1.363 . S
C576 C575 1.415 . S
C577 H553 0.951 . S
C577 C578 1.366 1_545 S
C577 C579 1.388 . S
C578 C577 1.366 1_565 S
C578 C582 1.385 . S
C579 H554 0.951 . S
C579 C577 1.388 . S
C579 C580 1.366 . S
C580 C579 1.366 . S
C580 C581 1.414 1_545 S
C580 C583 1.499 . S
C581 H555 0.950 . S
C581 C580 1.414 1_565 S
C581 C582 1.374 . S
C582 H556 0.950 . S
C582 C578 1.385 . S
C582 C581 1.374 . S
C583 C580 1.499 . S
C583 C584 1.373 . S
C583 C585 1.389 . S
C584 H557 0.950 . S
C584 C570 1.377 . S
C584 C583 1.373 . S
C585 C569 1.377 . S
C585 C583 1.389 . S
C585 C586 1.524 . S
C586 C585 1.524 . S
C586 C587 1.397 1_545 S
C586 C591 1.363 . S
C587 H558 0.950 . S
C587 C586 1.397 1_565 S
C587 C588 1.334 . S
C588 H559 0.950 . S
C588 C587 1.334 . S
C588 C589 1.287 . S
C589 C588 1.287 . S
C589 C590 1.524 1_565 S
C589 H592 0.999 . S
C590 H560 0.950 . S
C590 C589 1.524 1_545 S
C590 C591 1.415 . S
C591 H561 0.950 . S
C591 C586 1.363 . S
C591 C590 1.415 . S
H592 C589 0.999 . S
H593 C574 0.913 . S
H594 C612 0.951 . S
H595 C614 0.951 . S
H596 C616 0.950 . S
H597 C617 0.950 . S
H598 C619 0.950 . S
H599 C622 0.950 . S
H600 C623 0.950 . S
H601 C625 0.950 . S
H602 C626 0.950 . S
H603 C627 0.951 . S
H604 C629 0.951 . S
H605 C631 0.950 . S
H606 C632 0.950 . S
H607 C634 0.950 . S
H608 C637 0.950 . S
H609 C638 0.950 . S
H610 C640 0.950 . S
H611 C641 0.950 . S
C612 H594 0.951 . S
C612 C613 1.366 . S
C612 C614 1.388 . S
C613 C612 1.366 . S
C613 C617 1.385 . S
C614 H595 0.951 . S
C614 C612 1.388 . S
C614 C615 1.366 . S
C615 C614 1.366 . S
C615 C616 1.414 . S
C615 C618 1.499 . S
C616 H596 0.950 . S
C616 C615 1.414 . S
C616 C617 1.374 . S
C617 H597 0.950 . S
C617 C613 1.385 . S
C617 C616 1.374 . S
C618 C615 1.499 . S
C618 C619 1.373 . S
C618 C620 1.389 . S
C619 H598 0.950 . S
C619 C618 1.373 . S
C619 C635 1.377 . S
C620 C618 1.389 . S
C620 C621 1.524 . S
C620 C634 1.377 . S
C621 C620 1.524 . S
C621 C622 1.397 . S
C621 C626 1.363 . S
C622 H599 0.950 . S
C622 C621 1.397 . S
C622 C623 1.334 . S
C623 H600 0.950 . S
C623 C622 1.334 . S
C623 C624 1.287 . S
C624 C623 1.287 . S
C624 C625 1.524 . S
C624 H643 0.913 . S
C625 H601 0.950 . S
C625 C624 1.524 . S
C625 C626 1.415 . S
C626 H602 0.950 . S
C626 C621 1.363 . S
C626 C625 1.415 . S
C627 H603 0.951 . S
C627 C628 1.366 . S
C627 C629 1.388 . S
C628 C627 1.366 . S
C628 C632 1.385 . S
C629 H604 0.951 . S
C629 C627 1.388 . S
C629 C630 1.366 . S
C630 C629 1.366 . S
C630 C631 1.414 . S
C630 C633 1.499 . S
C631 H605 0.950 . S
C631 C630 1.414 . S
C631 C632 1.374 . S
C632 H606 0.950 . S
C632 C628 1.385 . S
C632 C631 1.374 . S
C633 C630 1.499 . S
C633 C634 1.373 . S
C633 C635 1.389 . S
C634 H607 0.950 . S
C634 C620 1.377 . S
C634 C633 1.373 . S
C635 C619 1.377 . S
C635 C633 1.389 . S
C635 C636 1.524 . S
C636 C635 1.524 . S
C636 C637 1.397 . S
C636 C641 1.363 . S
C637 H608 0.950 . S
C637 C636 1.397 . S
C637 C638 1.334 . S
C638 H609 0.950 . S
C638 C637 1.334 . S
C638 C639 1.287 . S
C639 C638 1.287 . S
C639 C640 1.524 . S
C639 H642 0.999 . S
C640 H610 0.950 . S
C640 C639 1.524 . S
C640 C641 1.415 . S
C641 H611 0.950 . S
C641 C636 1.363 . S
C641 C640 1.415 . S
H642 C639 0.999 . S
H643 C624 0.913 . S
H644 C662 0.951 . S
H645 C664 0.951 . S
H646 C666 0.950 . S
H647 C667 0.950 . S
H648 C669 0.950 . S
H649 C672 0.950 . S
H650 C673 0.950 . S
H651 C675 0.950 . S
H652 C676 0.950 . S
H653 C677 0.951 . S
H654 C679 0.951 1_655 S
H655 C681 0.950 . S
H656 C682 0.950 . S
H657 C684 0.950 . S
H658 C687 0.950 . S
H659 C688 0.950 . S
H660 C690 0.950 . S
H661 C691 0.950 . S
C662 H644 0.951 . S
C662 C663 1.366 1_455 S
C662 C664 1.388 . S
C663 C662 1.366 1_655 S
C663 C667 1.385 . S
C664 H645 0.951 . S
C664 C662 1.388 . S
C664 C665 1.366 . S
C665 C664 1.366 . S
C665 C666 1.414 1_455 S
C665 C668 1.499 . S
C666 H646 0.950 . S
C666 C665 1.414 1_655 S
C666 C667 1.374 . S
C667 H647 0.950 . S
C667 C663 1.385 . S
C667 C666 1.374 . S
C668 C665 1.499 . S
C668 C669 1.373 1_455 S
C668 C670 1.389 . S
C669 H648 0.950 . S
C669 C668 1.373 1_655 S
C669 C685 1.377 . S
C670 C668 1.389 . S
C670 C671 1.524 . S
C670 C684 1.377 . S
C671 C670 1.524 . S
C671 C672 1.397 . S
C671 C676 1.363 . S
C672 H649 0.950 . S
C672 C671 1.397 . S
C672 C673 1.334 . S
C673 H650 0.950 . S
C673 C672 1.334 . S
C673 C674 1.287 . S
C674 C673 1.287 . S
C674 C675 1.524 . S
C674 H693 0.913 . S
C675 H651 0.950 . S
C675 C674 1.524 . S
C675 C676 1.415 . S
C676 H652 0.950 . S
C676 C671 1.363 . S
C676 C675 1.415 . S
C677 H653 0.951 . S
C677 C678 1.366 . S
C677 C679 1.388 . S
C678 C677 1.366 . S
C678 C682 1.385 . S
C679 H654 0.951 1_455 S
C679 C677 1.388 . S
C679 C680 1.366 . S
C680 C679 1.366 . S
C680 C681 1.414 . S
C680 C683 1.499 . S
C681 H655 0.950 . S
C681 C680 1.414 . S
C681 C682 1.374 . S
C682 H656 0.950 . S
C682 C678 1.385 . S
C682 C681 1.374 . S
C683 C680 1.499 . S
C683 C684 1.373 . S
C683 C685 1.389 1_455 S
C684 H657 0.950 . S
C684 C670 1.377 . S
C684 C683 1.373 . S
C685 C669 1.377 . S
C685 C683 1.389 1_655 S
C685 C686 1.524 . S
C686 C685 1.524 . S
C686 C687 1.397 . S
C686 C691 1.363 . S
C687 H658 0.950 . S
C687 C686 1.397 . S
C687 C688 1.334 . S
C688 H659 0.950 . S
C688 C687 1.334 . S
C688 C689 1.287 . S
C689 C688 1.287 . S
C689 C690 1.524 . S
C689 H692 0.999 . S
C690 H660 0.950 . S
C690 C689 1.524 . S
C690 C691 1.415 . S
C691 H661 0.950 . S
C691 C686 1.363 . S
C691 C690 1.415 . S
H692 C689 0.999 . S
H693 C674 0.913 . S
H694 C712 0.951 . S
H695 C714 0.951 . S
H696 C716 0.950 . S
H697 C717 0.950 . S
H698 C719 0.950 1_655 S
H699 C722 0.950 . S
H700 C723 0.950 . S
H701 C725 0.950 . S
H702 C726 0.950 . S
H703 C727 0.951 1_565 S
H704 C729 0.951 1_565 S
H705 C731 0.950 1_455 S
H706 C732 0.950 . S
H707 C734 0.950 . S
H708 C737 0.978 . S
H709 C738 0.950 . S
H710 C740 0.950 . S
H711 C741 0.950 . S
C712 H694 0.951 . S
C712 C713 1.366 1_545 S
C712 C714 1.388 . S
C713 C712 1.366 1_565 S
C713 C717 1.385 . S
C714 H695 0.951 . S
C714 C712 1.388 . S
C714 C715 1.366 . S
C715 C714 1.366 . S
C715 C716 1.414 1_545 S
C715 C718 1.499 . S
C716 H696 0.950 . S
C716 C715 1.414 1_565 S
C716 C717 1.374 . S
C717 H697 0.950 . S
C717 C713 1.385 . S
C717 C716 1.374 . S
C718 C715 1.499 . S
C718 C719 1.373 1_545 S
C718 C720 1.389 . S
C719 H698 0.950 1_455 S
C719 C718 1.373 1_565 S
C719 C735 1.377 1_465 S
C720 C718 1.389 . S
C720 C721 1.524 . S
C720 C734 1.377 . S
C721 C720 1.524 . S
C721 C722 1.397 . S
C721 C726 1.363 . S
C722 H699 0.950 . S
C722 C721 1.397 . S
C722 C723 1.334 . S
C723 H700 0.950 . S
C723 C722 1.334 . S
C723 C724 1.287 . S
C724 C723 1.287 . S
C724 C725 1.524 . S
C724 H743 0.913 . S
C725 H701 0.950 . S
C725 C724 1.524 . S
C725 C726 1.415 . S
C726 H702 0.950 . S
C726 C721 1.363 . S
C726 C725 1.415 . S
C727 H703 0.951 1_545 S
C727 C728 1.366 . S
C727 C729 1.388 1_655 S
C728 C727 1.366 . S
C728 C732 1.385 . S
C729 H704 0.951 1_545 S
C729 C727 1.388 1_455 S
C729 C730 1.366 . S
C730 C729 1.366 . S
C730 C731 1.413 1_455 S
C730 C733 1.499 . S
C731 H705 0.950 1_655 S
C731 C730 1.413 1_655 S
C731 C732 1.374 . S
C732 H706 0.950 . S
C732 C728 1.385 . S
C732 C731 1.374 . S
C733 C730 1.499 . S
C733 C734 1.373 . S
C733 C735 1.389 1_455 S
C734 H707 0.950 . S
C734 C720 1.377 . S
C734 C733 1.373 . S
C735 C719 1.377 1_645 S
C735 C733 1.389 1_655 S
C735 C736 1.524 1_545 S
C736 C735 1.524 1_565 S
C736 C737 1.382 1_565 S
C736 C741 1.363 . S
C737 H708 0.978 . S
C737 C736 1.382 1_545 S
C737 C738 1.322 1_545 S
C738 H709 0.950 . S
C738 C737 1.322 1_565 S
C738 C739 1.287 . S
C739 C738 1.287 . S
C739 C740 1.524 . S
C739 H742 0.999 . S
C740 H710 0.950 . S
C740 C739 1.524 . S
C740 C741 1.415 . S
C741 H711 0.950 . S
C741 C736 1.363 . S
C741 C740 1.415 . S
H742 C739 0.999 . S
H743 C724 0.913 . S
H744 C762 0.951 . S
H745 C764 0.951 . S
H746 C766 0.950 1_545 S
H747 C767 0.950 . S
H748 C769 0.950 . S
H749 C772 0.950 . S
H750 C773 0.950 . S
H751 C775 0.950 . S
H752 C776 0.950 . S
H753 C777 0.951 . S
H754 C779 0.951 . S
H755 C781 0.950 . S
H756 C782 0.940 1_565 S
H757 C784 0.950 . S
H758 C787 0.950 . S
H759 C788 0.950 . S
H760 C790 0.950 . S
H761 C791 0.950 . S
C762 H744 0.951 . S
C762 C763 1.366 . S
C762 C764 1.388 . S
C763 C762 1.366 . S
C763 C767 1.385 . S
C764 H745 0.951 . S
C764 C762 1.388 . S
C764 C765 1.366 . S
C765 C764 1.366 . S
C765 C766 1.414 . S
C765 C768 1.499 . S
C766 H746 0.950 1_565 S
C766 C765 1.414 . S
C766 C767 1.374 . S
C767 H747 0.950 . S
C767 C763 1.385 . S
C767 C766 1.374 . S
C768 C765 1.499 . S
C768 C769 1.373 1_565 S
C768 C770 1.389 . S
C769 H748 0.950 . S
C769 C768 1.373 1_545 S
C769 C785 1.377 . S
C770 C768 1.389 . S
C770 C771 1.524 . S
C770 C784 1.377 . S
C771 C770 1.524 . S
C771 C772 1.397 . S
C771 C776 1.363 . S
C772 H749 0.950 . S
C772 C771 1.397 . S
C772 C773 1.334 . S
C773 H750 0.950 . S
C773 C772 1.334 . S
C773 C774 1.287 . S
C774 C773 1.287 . S
C774 C775 1.524 . S
C774 H793 0.913 . S
C775 H751 0.950 . S
C775 C774 1.524 . S
C775 C776 1.415 . S
C776 H752 0.950 . S
C776 C771 1.363 . S
C776 C775 1.415 . S
C777 H753 0.951 . S
C777 C778 1.366 . S
C777 C779 1.388 . S
C778 C777 1.366 . S
C778 C782 1.400 . S
C779 H754 0.951 . S
C779 C777 1.388 . S
C779 C780 1.366 . S
C780 C779 1.366 . S
C780 C781 1.414 1_545 S
C780 C783 1.499 1_545 S
C781 H755 0.950 . S
C781 C780 1.414 1_565 S
C781 C782 1.368 1_565 S
C782 H756 0.940 1_545 S
C782 C778 1.400 . S
C782 C781 1.368 1_545 S
C783 C780 1.499 1_565 S
C783 C784 1.373 . S
C783 C785 1.389 1_565 S
C784 H757 0.950 . S
C784 C770 1.377 . S
C784 C783 1.373 . S
C785 C769 1.377 . S
C785 C783 1.389 1_545 S
C785 C786 1.524 . S
C786 C785 1.524 . S
C786 C787 1.397 . S
C786 C791 1.363 . S
C787 H758 0.950 . S
C787 C786 1.397 . S
C787 C788 1.334 . S
C788 H759 0.950 . S
C788 C787 1.334 . S
C788 C789 1.287 . S
C789 C788 1.287 . S
C789 C790 1.524 . S
C789 H792 0.999 . S
C790 H760 0.950 . S
C790 C789 1.524 . S
C790 C791 1.415 . S
C791 H761 0.950 . S
C791 C786 1.363 . S
C791 C790 1.415 . S
H792 C789 0.999 . S
H793 C774 0.913 . S
H794 C812 0.951 . S
H795 C814 0.951 . S
H796 C816 0.950 . S
H797 C817 0.950 . S
H798 C819 0.950 . S
H799 C822 0.950 . S
H800 C823 0.950 . S
H801 C825 0.950 . S
H802 C826 0.950 . S
H803 C827 0.951 . S
H804 C829 0.951 . S
H805 C831 0.950 . S
H806 C832 0.950 . S
H807 C834 0.950 . S
H808 C837 0.950 . S
H809 C838 0.950 . S
H810 C840 0.950 . S
H811 C841 0.950 . S
C812 H794 0.951 . S
C812 C813 1.366 . S
C812 C814 1.388 . S
C813 C812 1.366 . S
C813 C817 1.385 . S
C814 H795 0.951 . S
C814 C812 1.388 . S
C814 C815 1.366 . S
C815 C814 1.366 . S
C815 C816 1.414 . S
C815 C818 1.499 . S
C816 H796 0.950 . S
C816 C815 1.414 . S
C816 C817 1.374 . S
C817 H797 0.950 . S
C817 C813 1.385 . S
C817 C816 1.374 . S
C818 C815 1.499 . S
C818 C819 1.373 . S
C818 C820 1.389 . S
C819 H798 0.950 . S
C819 C818 1.373 . S
C819 C835 1.377 . S
C820 C818 1.389 . S
C820 C821 1.524 . S
C820 C834 1.377 . S
C821 C820 1.524 . S
C821 C822 1.397 . S
C821 C826 1.363 . S
C822 H799 0.950 . S
C822 C821 1.397 . S
C822 C823 1.334 . S
C823 H800 0.950 . S
C823 C822 1.334 . S
C823 C824 1.287 . S
C824 C823 1.287 . S
C824 C825 1.524 . S
C824 H843 0.913 . S
C825 H801 0.950 . S
C825 C824 1.524 . S
C825 C826 1.415 . S
C826 H802 0.950 . S
C826 C821 1.363 . S
C826 C825 1.415 . S
C827 H803 0.951 . S
C827 C828 1.366 . S
C827 C829 1.388 . S
C828 C827 1.366 . S
C828 C832 1.385 . S
C829 H804 0.951 . S
C829 C827 1.388 . S
C829 C830 1.366 . S
C830 C829 1.366 . S
C830 C831 1.414 . S
C830 C833 1.499 . S
C831 H805 0.950 . S
C831 C830 1.414 . S
C831 C832 1.374 . S
C832 H806 0.950 . S
C832 C828 1.385 . S
C832 C831 1.374 . S
C833 C830 1.499 . S
C833 C834 1.373 . S
C833 C835 1.389 . S
C834 H807 0.950 . S
C834 C820 1.377 . S
C834 C833 1.373 . S
C835 C819 1.377 . S
C835 C833 1.389 . S
C835 C836 1.524 . S
C836 C835 1.524 . S
C836 C837 1.397 . S
C836 C841 1.363 . S
C837 H808 0.950 . S
C837 C836 1.397 . S
C837 C838 1.334 . S
C838 H809 0.950 . S
C838 C837 1.334 . S
C838 C839 1.287 . S
C839 C838 1.287 . S
C839 C840 1.524 . S
C839 H842 0.999 . S
C840 H810 0.950 . S
C840 C839 1.524 . S
C840 C841 1.415 . S
C841 H811 0.950 . S
C841 C836 1.363 . S
C841 C840 1.415 . S
H842 C839 0.999 . S
H843 C824 0.913 . S
H844 C862 0.951 . S
H845 C864 0.951 . S
H846 C866 0.950 . S
H847 C867 0.950 . S
H848 C869 0.950 . S
H849 C872 0.950 . S
H850 C873 0.950 . S
H851 C875 0.950 . S
H852 C876 0.950 . S
H853 C877 0.951 . S
H854 C879 0.951 . S
H855 C881 0.950 . S
H856 C882 0.950 . S
H857 C884 0.950 . S
H858 C887 0.950 . S
H859 C888 0.950 . S
H860 C890 0.950 . S
H861 C891 0.950 . S
C862 H844 0.951 . S
C862 C863 1.366 . S
C862 C864 1.388 . S
C863 C862 1.366 . S
C863 C867 1.385 . S
C864 H845 0.951 . S
C864 C862 1.388 . S
C864 C865 1.366 . S
C865 C864 1.366 . S
C865 C866 1.414 . S
C865 C868 1.499 1_455 S
C866 H846 0.950 . S
C866 C865 1.414 . S
C866 C867 1.374 . S
C867 H847 0.950 . S
C867 C863 1.385 . S
C867 C866 1.374 . S
C868 C865 1.499 1_655 S
C868 C869 1.373 1_655 S
C868 C870 1.389 . S
C869 H848 0.950 . S
C869 C868 1.373 1_455 S
C869 C885 1.377 . S
C870 C868 1.389 . S
C870 C871 1.524 . S
C870 C884 1.377 . S
C871 C870 1.524 . S
C871 C872 1.397 . S
C871 C876 1.363 . S
C872 H849 0.950 . S
C872 C871 1.397 . S
C872 C873 1.334 . S
C873 H850 0.950 . S
C873 C872 1.334 . S
C873 C874 1.287 . S
C874 C873 1.287 . S
C874 C875 1.524 . S
C874 H893 0.913 . S
C875 H851 0.950 . S
C875 C874 1.524 . S
C875 C876 1.415 . S
C876 H852 0.950 . S
C876 C871 1.363 . S
C876 C875 1.415 . S
C877 H853 0.951 . S
C877 C878 1.366 . S
C877 C879 1.388 . S
C878 C877 1.366 . S
C878 C882 1.385 . S
C879 H854 0.951 . S
C879 C877 1.388 . S
C879 C880 1.366 . S
C880 C879 1.366 . S
C880 C881 1.414 . S
C880 C883 1.499 . S
C881 H855 0.950 . S
C881 C880 1.414 . S
C881 C882 1.374 . S
C882 H856 0.950 . S
C882 C878 1.385 . S
C882 C881 1.374 . S
C883 C880 1.499 . S
C883 C884 1.373 . S
C883 C885 1.389 1_655 S
C884 H857 0.950 . S
C884 C870 1.377 . S
C884 C883 1.373 . S
C885 C869 1.377 . S
C885 C883 1.389 1_455 S
C885 C886 1.524 . S
C886 C885 1.524 . S
C886 C887 1.397 . S
C886 C891 1.363 . S
C887 H858 0.950 . S
C887 C886 1.397 . S
C887 C888 1.334 . S
C888 H859 0.950 . S
C888 C887 1.334 . S
C888 C889 1.287 . S
C889 C888 1.287 . S
C889 C890 1.524 . S
C889 H892 0.999 . S
C890 H860 0.950 . S
C890 C889 1.524 . S
C890 C891 1.415 . S
C891 H861 0.950 . S
C891 C886 1.363 . S
C891 C890 1.415 . S
H892 C889 0.999 . S
H893 C874 0.913 . S
H894 C912 0.951 1_545 S
H895 C914 0.951 1_545 S
H896 C916 0.950 1_655 S
H897 C917 0.950 . S
H898 C919 0.950 . S
H899 C922 0.950 . S
H900 C923 0.950 . S
H901 C925 0.950 . S
H902 C926 0.950 . S
H903 C927 0.951 . S
H904 C929 0.951 . S
H905 C931 0.950 . S
H906 C932 0.950 . S
H907 C934 0.950 . S
H908 C937 0.950 1_545 S
H909 C938 0.950 1_545 S
H910 C940 0.950 . S
H911 C941 0.950 . S
C912 H894 0.951 1_565 S
C912 C913 1.366 . S
C912 C914 1.388 . S
C913 C912 1.366 . S
C913 C917 1.385 . S
C914 H895 0.951 1_565 S
C914 C912 1.388 . S
C914 C915 1.366 . S
C915 C914 1.366 . S
C915 C916 1.414 . S
C915 C918 1.497 1_455 S
C916 H896 0.950 1_455 S
C916 C915 1.414 . S
C916 C917 1.374 . S
C917 H897 0.950 . S
C917 C913 1.385 . S
C917 C916 1.374 . S
C918 C915 1.497 1_655 S
C918 C919 1.382 . S
C918 C920 1.378 1_665 S
C919 H898 0.950 . S
C919 C918 1.382 . S
C919 C935 1.377 . S
C920 C918 1.378 1_445 S
C920 C921 1.527 . S
C920 C934 1.379 . S
C921 C920 1.527 . S
C921 C922 1.397 1_545 S
C921 C926 1.363 . S
C922 H899 0.950 . S
C922 C921 1.397 1_565 S
C922 C923 1.334 . S
C923 H900 0.950 . S
C923 C922 1.334 . S
C923 C924 1.287 1_565 S
C924 C923 1.287 1_545 S
C924 C925 1.524 . S
C924 H943 0.913 . S
C925 H901 0.950 . S
C925 C924 1.524 . S
C925 C926 1.415 . S
C926 H902 0.950 . S
C926 C921 1.363 . S
C926 C925 1.415 . S
C927 H903 0.951 . S
C927 C928 1.366 1_565 S
C927 C929 1.388 . S
C928 C927 1.366 1_545 S
C928 C932 1.385 . S
C929 H904 0.951 . S
C929 C927 1.388 . S
C929 C930 1.366 1_565 S
C930 C929 1.366 1_545 S
C930 C931 1.414 . S
C930 C933 1.496 1_545 S
C931 H905 0.950 . S
C931 C930 1.414 . S
C931 C932 1.374 . S
C932 H906 0.950 . S
C932 C928 1.385 . S
C932 C931 1.374 . S
C933 C930 1.496 1_565 S
C933 C934 1.369 1_665 S
C933 C935 1.397 . S
C934 H907 0.950 . S
C934 C920 1.379 . S
C934 C933 1.369 1_445 S
C935 C919 1.377 . S
C935 C933 1.397 . S
C935 C936 1.524 . S
C936 C935 1.524 . S
C936 C937 1.397 . S
C936 C941 1.363 . S
C937 H908 0.950 1_565 S
C937 C936 1.397 . S
C937 C938 1.334 . S
C938 H909 0.950 1_565 S
C938 C937 1.334 . S
C938 C939 1.287 . S
C939 C938 1.287 . S
C939 C940 1.524 . S
C939 H942 0.999 . S
C940 H910 0.950 . S
C940 C939 1.524 . S
C940 C941 1.415 . S
C941 H911 0.950 . S
C941 C936 1.363 . S
C941 C940 1.415 . S
H942 C939 0.999 . S
H943 C924 0.913 . S
H944 C962 0.951 . S
H945 C964 0.951 . S
H946 C966 0.950 . S
H947 C967 0.950 . S
H948 C969 0.950 . S
H949 C972 0.950 . S
H950 C973 0.950 . S
H951 C975 0.950 . S
H952 C976 0.950 . S
H953 C977 0.951 . S
H954 C979 0.951 . S
H955 C981 0.950 . S
H956 C982 0.950 . S
H957 C984 0.950 . S
H958 C987 0.950 . S
H959 C988 0.950 . S
H960 C990 0.950 . S
H961 C991 0.950 . S
C962 H944 0.951 . S
C962 C963 1.366 . S
C962 C964 1.388 . S
C963 C962 1.366 . S
C963 C967 1.385 . S
C964 H945 0.951 . S
C964 C962 1.388 . S
C964 C965 1.366 . S
C965 C964 1.366 . S
C965 C966 1.414 . S
C965 C968 1.499 . S
C966 H946 0.950 . S
C966 C965 1.414 . S
C966 C967 1.374 . S
C967 H947 0.950 . S
C967 C963 1.385 . S
C967 C966 1.374 . S
C968 C965 1.499 . S
C968 C969 1.373 . S
C968 C970 1.389 . S
C969 H948 0.950 . S
C969 C968 1.373 . S
C969 C985 1.377 . S
C970 C968 1.389 . S
C970 C971 1.524 . S
C970 C984 1.377 . S
C971 C970 1.524 . S
C971 C972 1.397 . S
C971 C976 1.363 . S
C972 H949 0.950 . S
C972 C971 1.397 . S
C972 C973 1.334 . S
C973 H950 0.950 . S
C973 C972 1.334 . S
C973 C974 1.287 . S
C974 C973 1.287 . S
C974 C975 1.524 . S
C974 H993 0.913 . S
C975 H951 0.950 . S
C975 C974 1.524 . S
C975 C976 1.415 . S
C976 H952 0.950 . S
C976 C971 1.363 . S
C976 C975 1.415 . S
C977 H953 0.951 . S
C977 C978 1.366 . S
C977 C979 1.388 . S
C978 C977 1.366 . S
C978 C982 1.385 . S
C979 H954 0.951 . S
C979 C977 1.388 . S
C979 C980 1.366 . S
C980 C979 1.366 . S
C980 C981 1.414 . S
C980 C983 1.499 . S
C981 H955 0.950 . S
C981 C980 1.414 . S
C981 C982 1.374 . S
C982 H956 0.950 . S
C982 C978 1.385 . S
C982 C981 1.374 . S
C983 C980 1.499 . S
C983 C984 1.373 . S
C983 C985 1.389 . S
C984 H957 0.950 . S
C984 C970 1.377 . S
C984 C983 1.373 . S
C985 C969 1.377 . S
C985 C983 1.389 . S
C985 C986 1.524 . S
C986 C985 1.524 . S
C986 C987 1.397 . S
C986 C991 1.363 . S
C987 H958 0.950 . S
C987 C986 1.397 . S
C987 C988 1.334 . S
C988 H959 0.950 . S
C988 C987 1.334 . S
C988 C989 1.287 . S
C989 C988 1.287 . S
C989 C990 1.524 . S
C989 H992 0.999 . S
C990 H960 0.950 . S
C990 C989 1.524 . S
C990 C991 1.415 . S
C991 H961 0.950 . S
C991 C986 1.363 . S
C991 C990 1.415 . S
H992 C989 0.999 . S
H993 C974 0.913 . S
H994 C1012 0.951 . S
H995 C1014 0.951 . S
H996 C1016 0.950 . S
H997 C1017 0.950 . S
H998 C1019 0.950 . S
H999 C1022 0.950 . S
H1000 C1023 0.950 . S
H1001 C1025 0.950 . S
H1002 C1026 0.950 . S
H1003 C1027 0.951 . S
H1004 C1029 0.951 . S
H1005 C1031 0.950 . S
H1006 C1032 0.950 . S
H1007 C1034 0.950 . S
H1008 C1037 0.950 . S
H1009 C1038 0.950 . S
H1010 C1040 0.950 . S
H1011 C1041 0.950 . S
C1012 H994 0.951 . S
C1012 C1013 1.366 . S
C1012 C1014 1.388 . S
C1013 C1012 1.366 . S
C1013 C1017 1.385 . S
C1014 H995 0.951 . S
C1014 C1012 1.388 . S
C1014 C1015 1.366 . S
C1015 C1014 1.366 . S
C1015 C1016 1.414 . S
C1015 C1018 1.499 . S
C1016 H996 0.950 . S
C1016 C1015 1.414 . S
C1016 C1017 1.374 . S
C1017 H997 0.950 . S
C1017 C1013 1.385 . S
C1017 C1016 1.374 . S
C1018 C1015 1.499 . S
C1018 C1019 1.373 . S
C1018 C1020 1.389 . S
C1019 H998 0.950 . S
C1019 C1018 1.373 . S
C1019 C1035 1.377 . S
C1020 C1018 1.389 . S
C1020 C1021 1.524 . S
C1020 C1034 1.377 . S
C1021 C1020 1.524 . S
C1021 C1022 1.397 . S
C1021 C1026 1.363 . S
C1022 H999 0.950 . S
C1022 C1021 1.397 . S
C1022 C1023 1.334 . S
C1023 H1000 0.950 . S
C1023 C1022 1.334 . S
C1023 C1024 1.287 . S
C1024 C1023 1.287 . S
C1024 C1025 1.524 . S
C1024 H1043 0.913 . S
C1025 H1001 0.950 . S
C1025 C1024 1.524 . S
C1025 C1026 1.415 . S
C1026 H1002 0.950 . S
C1026 C1021 1.363 . S
C1026 C1025 1.415 . S
C1027 H1003 0.951 . S
C1027 C1028 1.366 . S
C1027 C1029 1.388 . S
C1028 C1027 1.366 . S
C1028 C1032 1.385 . S
C1029 H1004 0.951 . S
C1029 C1027 1.388 . S
C1029 C1030 1.366 . S
C1030 C1029 1.366 . S
C1030 C1031 1.414 . S
C1030 C1033 1.499 . S
C1031 H1005 0.950 . S
C1031 C1030 1.414 . S
C1031 C1032 1.374 . S
C1032 H1006 0.950 . S
C1032 C1028 1.385 . S
C1032 C1031 1.374 . S
C1033 C1030 1.499 . S
C1033 C1034 1.373 . S
C1033 C1035 1.389 . S
C1034 H1007 0.950 . S
C1034 C1020 1.377 . S
C1034 C1033 1.373 . S
C1035 C1019 1.377 . S
C1035 C1033 1.389 . S
C1035 C1036 1.524 . S
C1036 C1035 1.524 . S
C1036 C1037 1.397 . S
C1036 C1041 1.363 . S
C1037 H1008 0.950 . S
C1037 C1036 1.397 . S
C1037 C1038 1.334 . S
C1038 H1009 0.950 . S
C1038 C1037 1.334 . S
C1038 C1039 1.287 . S
C1039 C1038 1.287 . S
C1039 C1040 1.524 . S
C1039 H1042 0.999 . S
C1040 H1010 0.950 . S
C1040 C1039 1.524 . S
C1040 C1041 1.415 . S
C1041 H1011 0.950 . S
C1041 C1036 1.363 . S
C1041 C1040 1.415 . S
H1042 C1039 0.999 . S
H1043 C1024 0.913 . S
H1044 C1062 0.951 . S
H1045 C1064 0.951 . S
H1046 C1066 0.950 . S
H1047 C1067 0.950 . S
H1048 C1069 0.950 . S
H1049 C1072 0.950 . S
H1050 C1073 0.950 . S
H1051 C1075 0.950 . S
H1052 C1076 0.950 . S
H1053 C1077 0.951 . S
H1054 C1079 0.951 . S
H1055 C1081 0.950 . S
H1056 C1082 0.950 . S
H1057 C1084 0.950 . S
H1058 C1087 0.950 . S
H1059 C1088 0.950 . S
H1060 C1090 0.950 . S
H1061 C1091 0.950 . S
C1062 H1044 0.951 . S
C1062 C1063 1.366 . S
C1062 C1064 1.388 . S
C1063 C1062 1.366 . S
C1063 C1067 1.385 . S
C1064 H1045 0.951 . S
C1064 C1062 1.388 . S
C1064 C1065 1.366 . S
C1065 C1064 1.366 . S
C1065 C1066 1.414 . S
C1065 C1068 1.499 . S
C1066 H1046 0.950 . S
C1066 C1065 1.414 . S
C1066 C1067 1.374 . S
C1067 H1047 0.950 . S
C1067 C1063 1.385 . S
C1067 C1066 1.374 . S
C1068 C1065 1.499 . S
C1068 C1069 1.373 . S
C1068 C1070 1.389 . S
C1069 H1048 0.950 . S
C1069 C1068 1.373 . S
C1069 C1085 1.377 . S
C1070 C1068 1.389 . S
C1070 C1071 1.524 . S
C1070 C1084 1.377 . S
C1071 C1070 1.524 . S
C1071 C1072 1.397 . S
C1071 C1076 1.363 . S
C1072 H1049 0.950 . S
C1072 C1071 1.397 . S
C1072 C1073 1.334 . S
C1073 H1050 0.950 . S
C1073 C1072 1.334 . S
C1073 C1074 1.287 . S
C1074 C1073 1.287 . S
C1074 C1075 1.524 . S
C1074 H1093 0.913 . S
C1075 H1051 0.950 . S
C1075 C1074 1.524 . S
C1075 C1076 1.415 . S
C1076 H1052 0.950 . S
C1076 C1071 1.363 . S
C1076 C1075 1.415 . S
C1077 H1053 0.951 . S
C1077 C1078 1.366 . S
C1077 C1079 1.388 . S
C1078 C1077 1.366 . S
C1078 C1082 1.385 . S
C1079 H1054 0.951 . S
C1079 C1077 1.388 . S
C1079 C1080 1.366 . S
C1080 C1079 1.366 . S
C1080 C1081 1.414 . S
C1080 C1083 1.499 . S
C1081 H1055 0.950 . S
C1081 C1080 1.414 . S
C1081 C1082 1.374 . S
C1082 H1056 0.950 . S
C1082 C1078 1.385 . S
C1082 C1081 1.374 . S
C1083 C1080 1.499 . S
C1083 C1084 1.373 . S
C1083 C1085 1.389 . S
C1084 H1057 0.950 . S
C1084 C1070 1.377 . S
C1084 C1083 1.373 . S
C1085 C1069 1.377 . S
C1085 C1083 1.389 . S
C1085 C1086 1.524 . S
C1086 C1085 1.524 . S
C1086 C1087 1.397 . S
C1086 C1091 1.363 . S
C1087 H1058 0.950 . S
C1087 C1086 1.397 . S
C1087 C1088 1.334 . S
C1088 H1059 0.950 . S
C1088 C1087 1.334 . S
C1088 C1089 1.287 . S
C1089 C1088 1.287 . S
C1089 C1090 1.524 . S
C1089 H1092 0.999 . S
C1090 H1060 0.950 . S
C1090 C1089 1.524 . S
C1090 C1091 1.415 . S
C1091 H1061 0.950 . S
C1091 C1086 1.363 . S
C1091 C1090 1.415 . S
H1092 C1089 0.999 . S
H1093 C1074 0.913 . S
H1094 C1112 0.951 . S
H1095 C1114 0.951 . S
H1096 C1116 0.950 . S
H1097 C1117 0.950 . S
H1098 C1119 0.950 . S
H1099 C1122 0.950 . S
H1100 C1123 0.950 . S
H1101 C1125 0.950 . S
H1102 C1126 0.950 . S
H1103 C1127 0.951 . S
H1104 C1129 0.951 . S
H1105 C1131 0.950 . S
H1106 C1132 0.950 . S
H1107 C1134 0.950 . S
H1108 C1137 0.950 . S
H1109 C1138 0.950 . S
H1110 C1140 0.950 . S
H1111 C1141 0.950 . S
C1112 H1094 0.951 . S
C1112 C1113 1.366 . S
C1112 C1114 1.388 . S
C1113 C1112 1.366 . S
C1113 C1117 1.385 . S
C1114 H1095 0.951 . S
C1114 C1112 1.388 . S
C1114 C1115 1.366 . S
C1115 C1114 1.366 . S
C1115 C1116 1.414 . S
C1115 C1118 1.499 . S
C1116 H1096 0.950 . S
C1116 C1115 1.414 . S
C1116 C1117 1.374 . S
C1117 H1097 0.950 . S
C1117 C1113 1.385 . S
C1117 C1116 1.374 . S
C1118 C1115 1.499 . S
C1118 C1119 1.373 . S
C1118 C1120 1.389 . S
C1119 H1098 0.950 . S
C1119 C1118 1.373 . S
C1119 C1135 1.377 . S
C1120 C1118 1.389 . S
C1120 C1121 1.524 . S
C1120 C1134 1.377 . S
C1121 C1120 1.524 . S
C1121 C1122 1.397 . S
C1121 C1126 1.363 . S
C1122 H1099 0.950 . S
C1122 C1121 1.397 . S
C1122 C1123 1.334 . S
C1123 H1100 0.950 . S
C1123 C1122 1.334 . S
C1123 C1124 1.287 . S
C1124 C1123 1.287 . S
C1124 C1125 1.524 . S
C1124 H1143 0.913 . S
C1125 H1101 0.950 . S
C1125 C1124 1.524 . S
C1125 C1126 1.415 . S
C1126 H1102 0.950 . S
C1126 C1121 1.363 . S
C1126 C1125 1.415 . S
C1127 H1103 0.951 . S
C1127 C1128 1.366 . S
C1127 C1129 1.388 . S
C1128 C1127 1.366 . S
C1128 C1132 1.385 . S
C1129 H1104 0.951 . S
C1129 C1127 1.388 . S
C1129 C1130 1.366 . S
C1130 C1129 1.366 . S
C1130 C1131 1.414 . S
C1130 C1133 1.499 . S
C1131 H1105 0.950 . S
C1131 C1130 1.414 . S
C1131 C1132 1.374 . S
C1132 H1106 0.950 . S
C1132 C1128 1.385 . S
C1132 C1131 1.374 . S
C1133 C1130 1.499 . S
C1133 C1134 1.373 . S
C1133 C1135 1.389 . S
C1134 H1107 0.950 . S
C1134 C1120 1.377 . S
C1134 C1133 1.373 . S
C1135 C1119 1.377 . S
C1135 C1133 1.389 . S
C1135 C1136 1.524 . S
C1136 C1135 1.524 . S
C1136 C1137 1.397 . S
C1136 C1141 1.363 . S
C1137 H1108 0.950 . S
C1137 C1136 1.397 . S
C1137 C1138 1.334 . S
C1138 H1109 0.950 . S
C1138 C1137 1.334 . S
C1138 C1139 1.287 . S
C1139 C1138 1.287 . S
C1139 C1140 1.524 . S
C1139 H1142 0.999 . S
C1140 H1110 0.950 . S
C1140 C1139 1.524 . S
C1140 C1141 1.415 . S
C1141 H1111 0.950 . S
C1141 C1136 1.363 . S
C1141 C1140 1.415 . S
H1142 C1139 0.999 . S
H1143 C1124 0.913 . S
H1144 C1162 0.951 . S
H1145 C1164 0.951 . S
H1146 C1166 0.950 . S
H1147 C1167 0.950 . S
H1148 C1169 0.950 . S
H1149 C1172 0.950 . S
H1150 C1173 0.950 . S
H1151 C1175 0.950 . S
H1152 C1176 0.950 . S
H1153 C1177 0.951 . S
H1154 C1179 0.951 . S
H1155 C1181 0.950 . S
H1156 C1182 0.950 . S
H1157 C1184 0.950 . S
H1158 C1187 0.950 . S
H1159 C1188 0.950 . S
H1160 C1190 0.950 . S
H1161 C1191 0.950 . S
C1162 H1144 0.951 . S
C1162 C1163 1.366 . S
C1162 C1164 1.388 . S
C1163 C1162 1.366 . S
C1163 C1167 1.385 . S
C1164 H1145 0.951 . S
C1164 C1162 1.388 . S
C1164 C1165 1.366 . S
C1165 C1164 1.366 . S
C1165 C1166 1.414 . S
C1165 C1168 1.499 . S
C1166 H1146 0.950 . S
C1166 C1165 1.414 . S
C1166 C1167 1.374 . S
C1167 H1147 0.950 . S
C1167 C1163 1.385 . S
C1167 C1166 1.374 . S
C1168 C1165 1.499 . S
C1168 C1169 1.373 . S
C1168 C1170 1.389 . S
C1169 H1148 0.950 . S
C1169 C1168 1.373 . S
C1169 C1185 1.377 . S
C1170 C1168 1.389 . S
C1170 C1171 1.524 . S
C1170 C1184 1.377 . S
C1171 C1170 1.524 . S
C1171 C1172 1.397 . S
C1171 C1176 1.363 . S
C1172 H1149 0.950 . S
C1172 C1171 1.397 . S
C1172 C1173 1.334 . S
C1173 H1150 0.950 . S
C1173 C1172 1.334 . S
C1173 C1174 1.287 . S
C1174 C1173 1.287 . S
C1174 C1175 1.524 . S
C1174 H1193 0.913 . S
C1175 H1151 0.950 . S
C1175 C1174 1.524 . S
C1175 C1176 1.415 . S
C1176 H1152 0.950 . S
C1176 C1171 1.363 . S
C1176 C1175 1.415 . S
C1177 H1153 0.951 . S
C1177 C1178 1.366 . S
C1177 C1179 1.388 . S
C1178 C1177 1.366 . S
C1178 C1182 1.385 . S
C1179 H1154 0.951 . S
C1179 C1177 1.388 . S
C1179 C1180 1.366 . S
C1180 C1179 1.366 . S
C1180 C1181 1.414 . S
C1180 C1183 1.499 . S
C1181 H1155 0.950 . S
C1181 C1180 1.414 . S
C1181 C1182 1.374 . S
C1182 H1156 0.950 . S
C1182 C1178 1.385 . S
C1182 C1181 1.374 . S
C1183 C1180 1.499 . S
C1183 C1184 1.373 . S
C1183 C1185 1.389 . S
C1184 H1157 0.950 . S
C1184 C1170 1.377 . S
C1184 C1183 1.373 . S
C1185 C1169 1.377 . S
C1185 C1183 1.389 . S
C1185 C1186 1.524 . S
C1186 C1185 1.524 . S
C1186 C1187 1.397 . S
C1186 C1191 1.363 . S
C1187 H1158 0.950 . S
C1187 C1186 1.397 . S
C1187 C1188 1.334 . S
C1188 H1159 0.950 . S
C1188 C1187 1.334 . S
C1188 C1189 1.287 . S
C1189 C1188 1.287 . S
C1189 C1190 1.524 . S
C1189 H1192 0.999 . S
C1190 H1160 0.950 . S
C1190 C1189 1.524 . S
C1190 C1191 1.415 . S
C1191 H1161 0.950 . S
C1191 C1186 1.363 . S
C1191 C1190 1.415 . S
H1192 C1189 0.999 . S
H1193 C1174 0.913 . S
H1194 C1212 0.951 . S
H1195 C1214 0.951 . S
H1196 C1216 0.950 . S
H1197 C1217 0.950 . S
H1198 C1219 0.950 . S
H1199 C1222 0.950 . S
H1200 C1223 0.950 . S
H1201 C1225 0.950 . S
H1202 C1226 0.950 . S
H1203 C1227 0.951 . S
H1204 C1229 0.951 . S
H1205 C1231 0.950 . S
H1206 C1232 0.950 . S
H1207 C1234 0.950 . S
H1208 C1237 0.950 . S
H1209 C1238 0.950 . S
H1210 C1240 0.950 . S
H1211 C1241 0.950 . S
C1212 H1194 0.951 . S
C1212 C1213 1.366 . S
C1212 C1214 1.388 . S
C1213 C1212 1.366 . S
C1213 C1217 1.385 . S
C1214 H1195 0.951 . S
C1214 C1212 1.388 . S
C1214 C1215 1.366 . S
C1215 C1214 1.366 . S
C1215 C1216 1.414 . S
C1215 C1218 1.499 . S
C1216 H1196 0.950 . S
C1216 C1215 1.414 . S
C1216 C1217 1.374 . S
C1217 H1197 0.950 . S
C1217 C1213 1.385 . S
C1217 C1216 1.374 . S
C1218 C1215 1.499 . S
C1218 C1219 1.373 . S
C1218 C1220 1.389 . S
C1219 H1198 0.950 . S
C1219 C1218 1.373 . S
C1219 C1235 1.377 . S
C1220 C1218 1.389 . S
C1220 C1221 1.524 . S
C1220 C1234 1.377 . S
C1221 C1220 1.524 . S
C1221 C1222 1.397 . S
C1221 C1226 1.363 . S
C1222 H1199 0.950 . S
C1222 C1221 1.397 . S
C1222 C1223 1.334 . S
C1223 H1200 0.950 . S
C1223 C1222 1.334 . S
C1223 C1224 1.287 . S
C1224 C1223 1.287 . S
C1224 C1225 1.524 . S
C1224 H1243 0.913 . S
C1225 H1201 0.950 . S
C1225 C1224 1.524 . S
C1225 C1226 1.415 . S
C1226 H1202 0.950 . S
C1226 C1221 1.363 . S
C1226 C1225 1.415 . S
C1227 H1203 0.951 . S
C1227 C1228 1.366 . S
C1227 C1229 1.388 . S
C1228 C1227 1.366 . S
C1228 C1232 1.385 . S
C1229 H1204 0.951 . S
C1229 C1227 1.388 . S
C1229 C1230 1.366 . S
C1230 C1229 1.366 . S
C1230 C1231 1.414 . S
C1230 C1233 1.499 . S
C1231 H1205 0.950 . S
C1231 C1230 1.414 . S
C1231 C1232 1.374 . S
C1232 H1206 0.950 . S
C1232 C1228 1.385 . S
C1232 C1231 1.374 . S
C1233 C1230 1.499 . S
C1233 C1234 1.373 . S
C1233 C1235 1.389 . S
C1234 H1207 0.950 . S
C1234 C1220 1.377 . S
C1234 C1233 1.373 . S
C1235 C1219 1.377 . S
C1235 C1233 1.389 . S
C1235 C1236 1.524 . S
C1236 C1235 1.524 . S
C1236 C1237 1.397 . S
C1236 C1241 1.363 . S
C1237 H1208 0.950 . S
C1237 C1236 1.397 . S
C1237 C1238 1.334 . S
C1238 H1209 0.950 . S
C1238 C1237 1.334 . S
C1238 C1239 1.287 . S
C1239 C1238 1.287 . S
C1239 C1240 1.524 . S
C1239 H1242 0.999 . S
C1240 H1210 0.950 . S
C1240 C1239 1.524 . S
C1240 C1241 1.415 . S
C1241 H1211 0.950 . S
C1241 C1236 1.363 . S
C1241 C1240 1.415 . S
H1242 C1239 0.999 . S
H1243 C1224 0.913 . S
H1244 C1262 0.951 . S
H1245 C1264 0.951 . S
H1246 C1266 0.950 . S
H1247 C1267 0.950 . S
H1248 C1269 0.950 . S
H1249 C1272 0.950 . S
H1250 C1273 0.950 . S
H1251 C1275 0.950 . S
H1252 C1276 0.950 . S
H1253 C1277 0.951 . S
H1254 C1279 0.951 . S
H1255 C1281 0.950 . S
H1256 C1282 0.950 . S
H1257 C1284 0.950 . S
H1258 C1287 0.950 . S
H1259 C1288 0.950 . S
H1260 C1290 0.950 . S
H1261 C1291 0.950 . S
C1262 H1244 0.951 . S
C1262 C1263 1.366 . S
C1262 C1264 1.388 . S
C1263 C1262 1.366 . S
C1263 C1267 1.385 . S
C1264 H1245 0.951 . S
C1264 C1262 1.388 . S
C1264 C1265 1.366 . S
C1265 C1264 1.366 . S
C1265 C1266 1.414 . S
C1265 C1268 1.499 . S
C1266 H1246 0.950 . S
C1266 C1265 1.414 . S
C1266 C1267 1.374 . S
C1267 H1247 0.950 . S
C1267 C1263 1.385 . S
C1267 C1266 1.374 . S
C1268 C1265 1.499 . S
C1268 C1269 1.373 . S
C1268 C1270 1.389 . S
C1269 H1248 0.950 . S
C1269 C1268 1.373 . S
C1269 C1285 1.377 . S
C1270 C1268 1.389 . S
C1270 C1271 1.524 . S
C1270 C1284 1.377 . S
C1271 C1270 1.524 . S
C1271 C1272 1.397 . S
C1271 C1276 1.363 . S
C1272 H1249 0.950 . S
C1272 C1271 1.397 . S
C1272 C1273 1.334 . S
C1273 H1250 0.950 . S
C1273 C1272 1.334 . S
C1273 C1274 1.287 . S
C1274 C1273 1.287 . S
C1274 C1275 1.524 . S
C1274 H1293 0.913 . S
C1275 H1251 0.950 . S
C1275 C1274 1.524 . S
C1275 C1276 1.415 . S
C1276 H1252 0.950 . S
C1276 C1271 1.363 . S
C1276 C1275 1.415 . S
C1277 H1253 0.951 . S
C1277 C1278 1.366 . S
C1277 C1279 1.388 . S
C1278 C1277 1.366 . S
C1278 C1282 1.385 . S
C1279 H1254 0.951 . S
C1279 C1277 1.388 . S
C1279 C1280 1.366 . S
C1280 C1279 1.366 . S
C1280 C1281 1.414 . S
C1280 C1283 1.499 . S
C1281 H1255 0.950 . S
C1281 C1280 1.414 . S
C1281 C1282 1.374 . S
C1282 H1256 0.950 . S
C1282 C1278 1.385 . S
C1282 C1281 1.374 . S
C1283 C1280 1.499 . S
C1283 C1284 1.373 . S
C1283 C1285 1.389 . S
C1284 H1257 0.950 . S
C1284 C1270 1.377 . S
C1284 C1283 1.373 . S
C1285 C1269 1.377 . S
C1285 C1283 1.389 . S
C1285 C1286 1.524 . S
C1286 C1285 1.524 . S
C1286 C1287 1.397 . S
C1286 C1291 1.363 . S
C1287 H1258 0.950 . S
C1287 C1286 1.397 . S
C1287 C1288 1.334 . S
C1288 H1259 0.950 . S
C1288 C1287 1.334 . S
C1288 C1289 1.287 . S
C1289 C1288 1.287 . S
C1289 C1290 1.524 . S
C1289 H1292 0.999 . S
C1290 H1260 0.950 . S
C1290 C1289 1.524 . S
C1290 C1291 1.415 . S
C1291 H1261 0.950 . S
C1291 C1286 1.363 . S
C1291 C1290 1.415 . S
H1292 C1289 0.999 . S
H1293 C1274 0.913 . S
H1294 C1312 0.951 . S
H1295 C1314 0.951 . S
H1296 C1316 0.950 . S
H1297 C1317 0.950 . S
H1298 C1319 0.950 . S
H1299 C1322 0.950 . S
H1300 C1323 0.950 . S
H1301 C1325 0.950 . S
H1302 C1326 0.950 . S
H1303 C1327 0.951 . S
H1304 C1329 0.951 . S
H1305 C1331 0.950 . S
H1306 C1332 0.950 . S
H1307 C1334 0.950 . S
H1308 C1337 0.950 . S
H1309 C1338 0.950 . S
H1310 C1340 0.950 . S
H1311 C1341 0.950 . S
C1312 H1294 0.951 . S
C1312 C1313 1.366 . S
C1312 C1314 1.388 . S
C1313 C1312 1.366 . S
C1313 C1317 1.385 . S
C1314 H1295 0.951 . S
C1314 C1312 1.388 . S
C1314 C1315 1.366 . S
C1315 C1314 1.366 . S
C1315 C1316 1.414 . S
C1315 C1318 1.499 . S
C1316 H1296 0.950 . S
C1316 C1315 1.414 . S
C1316 C1317 1.374 . S
C1317 H1297 0.950 . S
C1317 C1313 1.385 . S
C1317 C1316 1.374 . S
C1318 C1315 1.499 . S
C1318 C1319 1.373 . S
C1318 C1320 1.389 . S
C1319 H1298 0.950 . S
C1319 C1318 1.373 . S
C1319 C1335 1.377 . S
C1320 C1318 1.389 . S
C1320 C1321 1.524 . S
C1320 C1334 1.377 . S
C1321 C1320 1.524 . S
C1321 C1322 1.397 . S
C1321 C1326 1.363 . S
C1322 H1299 0.950 . S
C1322 C1321 1.397 . S
C1322 C1323 1.334 . S
C1323 H1300 0.950 . S
C1323 C1322 1.334 . S
C1323 C1324 1.287 . S
C1324 C1323 1.287 . S
C1324 C1325 1.524 . S
C1324 H1343 0.913 . S
C1325 H1301 0.950 . S
C1325 C1324 1.524 . S
C1325 C1326 1.415 . S
C1326 H1302 0.950 . S
C1326 C1321 1.363 . S
C1326 C1325 1.415 . S
C1327 H1303 0.951 . S
C1327 C1328 1.366 . S
C1327 C1329 1.388 . S
C1328 C1327 1.366 . S
C1328 C1332 1.385 . S
C1329 H1304 0.951 . S
C1329 C1327 1.388 . S
C1329 C1330 1.366 . S
C1330 C1329 1.366 . S
C1330 C1331 1.414 . S
C1330 C1333 1.499 . S
C1331 H1305 0.950 . S
C1331 C1330 1.414 . S
C1331 C1332 1.374 . S
C1332 H1306 0.950 . S
C1332 C1328 1.385 . S
C1332 C1331 1.374 . S
C1333 C1330 1.499 . S
C1333 C1334 1.373 . S
C1333 C1335 1.389 . S
C1334 H1307 0.950 . S
C1334 C1320 1.377 . S
C1334 C1333 1.373 . S
C1335 C1319 1.377 . S
C1335 C1333 1.389 . S
C1335 C1336 1.524 . S
C1336 C1335 1.524 . S
C1336 C1337 1.397 . S
C1336 C1341 1.363 . S
C1337 H1308 0.950 . S
C1337 C1336 1.397 . S
C1337 C1338 1.334 . S
C1338 H1309 0.950 . S
C1338 C1337 1.334 . S
C1338 C1339 1.287 . S
C1339 C1338 1.287 . S
C1339 C1340 1.524 . S
C1339 H1342 0.999 . S
C1340 H1310 0.950 . S
C1340 C1339 1.524 . S
C1340 C1341 1.415 . S
C1341 H1311 0.950 . S
C1341 C1336 1.363 . S
C1341 C1340 1.415 . S
H1342 C1339 0.999 . S
H1343 C1324 0.913 . S
H1344 C1362 0.951 . S
H1345 C1364 0.951 . S
H1346 C1366 0.950 . S
H1347 C1367 0.950 . S
H1348 C1369 0.950 . S
H1349 C1372 0.950 . S
H1350 C1373 0.950 . S
H1351 C1375 0.950 . S
H1352 C1376 0.950 . S
H1353 C1377 0.951 . S
H1354 C1379 0.951 . S
H1355 C1381 0.950 . S
H1356 C1382 0.950 . S
H1357 C1384 0.950 . S
H1358 C1387 0.950 . S
H1359 C1388 0.950 . S
H1360 C1390 0.950 . S
H1361 C1391 0.950 . S
C1362 H1344 0.951 . S
C1362 C1363 1.366 . S
C1362 C1364 1.388 . S
C1363 C1362 1.366 . S
C1363 C1367 1.385 . S
C1364 H1345 0.951 . S
C1364 C1362 1.388 . S
C1364 C1365 1.366 . S
C1365 C1364 1.366 . S
C1365 C1366 1.414 . S
C1365 C1368 1.499 . S
C1366 H1346 0.950 . S
C1366 C1365 1.414 . S
C1366 C1367 1.374 . S
C1367 H1347 0.950 . S
C1367 C1363 1.385 . S
C1367 C1366 1.374 . S
C1368 C1365 1.499 . S
C1368 C1369 1.373 . S
C1368 C1370 1.389 . S
C1369 H1348 0.950 . S
C1369 C1368 1.373 . S
C1369 C1385 1.377 . S
C1370 C1368 1.389 . S
C1370 C1371 1.524 . S
C1370 C1384 1.377 . S
C1371 C1370 1.524 . S
C1371 C1372 1.397 . S
C1371 C1376 1.363 . S
C1372 H1349 0.950 . S
C1372 C1371 1.397 . S
C1372 C1373 1.334 . S
C1373 H1350 0.950 . S
C1373 C1372 1.334 . S
C1373 C1374 1.287 . S
C1374 C1373 1.287 . S
C1374 C1375 1.524 . S
C1374 H1393 0.913 . S
C1375 H1351 0.950 . S
C1375 C1374 1.524 . S
C1375 C1376 1.415 . S
C1376 H1352 0.950 . S
C1376 C1371 1.363 . S
C1376 C1375 1.415 . S
C1377 H1353 0.951 . S
C1377 C1378 1.366 . S
C1377 C1379 1.388 . S
C1378 C1377 1.366 . S
C1378 C1382 1.385 . S
C1379 H1354 0.951 . S
C1379 C1377 1.388 . S
C1379 C1380 1.366 . S
C1380 C1379 1.366 . S
C1380 C1381 1.414 . S
C1380 C1383 1.499 . S
C1381 H1355 0.950 . S
C1381 C1380 1.414 . S
C1381 C1382 1.374 . S
C1382 H1356 0.950 . S
C1382 C1378 1.385 . S
C1382 C1381 1.374 . S
C1383 C1380 1.499 . S
C1383 C1384 1.373 . S
C1383 C1385 1.389 . S
C1384 H1357 0.950 . S
C1384 C1370 1.377 . S
C1384 C1383 1.373 . S
C1385 C1369 1.377 . S
C1385 C1383 1.389 . S
C1385 C1386 1.524 . S
C1386 C1385 1.524 . S
C1386 C1387 1.397 . S
C1386 C1391 1.363 . S
C1387 H1358 0.950 . S
C1387 C1386 1.397 . S
C1387 C1388 1.334 . S
C1388 H1359 0.950 . S
C1388 C1387 1.334 . S
C1388 C1389 1.287 . S
C1389 C1388 1.287 . S
C1389 C1390 1.524 . S
C1389 H1392 0.999 . S
C1390 H1360 0.950 . S
C1390 C1389 1.524 . S
C1390 C1391 1.415 . S
C1391 H1361 0.950 . S
C1391 C1386 1.363 . S
C1391 C1390 1.415 . S
H1392 C1389 0.999 . S
H1393 C1374 0.913 . S
H1394 C1412 0.951 . S
H1395 C1414 0.951 . S
H1396 C1416 0.950 . S
H1397 C1417 0.950 . S
H1398 C1419 0.950 . S
H1399 C1422 0.950 . S
H1400 C1423 0.950 . S
H1401 C1425 0.950 . S
H1402 C1426 0.950 . S
H1403 C1427 0.951 . S
H1404 C1429 0.951 . S
H1405 C1431 0.950 . S
H1406 C1432 0.950 . S
H1407 C1434 0.950 . S
H1408 C1437 0.950 . S
H1409 C1438 0.950 . S
H1410 C1440 0.950 . S
H1411 C1441 0.950 . S
C1412 H1394 0.951 . S
C1412 C1413 1.366 . S
C1412 C1414 1.388 . S
C1413 C1412 1.366 . S
C1413 C1417 1.385 . S
C1414 H1395 0.951 . S
C1414 C1412 1.388 . S
C1414 C1415 1.366 . S
C1415 C1414 1.366 . S
C1415 C1416 1.414 . S
C1415 C1418 1.499 . S
C1416 H1396 0.950 . S
C1416 C1415 1.414 . S
C1416 C1417 1.374 . S
C1417 H1397 0.950 . S
C1417 C1413 1.385 . S
C1417 C1416 1.374 . S
C1418 C1415 1.499 . S
C1418 C1419 1.373 . S
C1418 C1420 1.389 . S
C1419 H1398 0.950 . S
C1419 C1418 1.373 . S
C1419 C1435 1.377 . S
C1420 C1418 1.389 . S
C1420 C1421 1.524 . S
C1420 C1434 1.377 . S
C1421 C1420 1.524 . S
C1421 C1422 1.397 . S
C1421 C1426 1.363 . S
C1422 H1399 0.950 . S
C1422 C1421 1.397 . S
C1422 C1423 1.334 . S
C1423 H1400 0.950 . S
C1423 C1422 1.334 . S
C1423 C1424 1.287 . S
C1424 C1423 1.287 . S
C1424 C1425 1.524 . S
C1424 H1443 0.913 . S
C1425 H1401 0.950 . S
C1425 C1424 1.524 . S
C1425 C1426 1.415 . S
C1426 H1402 0.950 . S
C1426 C1421 1.363 . S
C1426 C1425 1.415 . S
C1427 H1403 0.951 . S
C1427 C1428 1.366 . S
C1427 C1429 1.388 . S
C1428 C1427 1.366 . S
C1428 C1432 1.385 . S
C1429 H1404 0.951 . S
C1429 C1427 1.388 . S
C1429 C1430 1.366 . S
C1430 C1429 1.366 . S
C1430 C1431 1.414 . S
C1430 C1433 1.499 . S
C1431 H1405 0.950 . S
C1431 C1430 1.414 . S
C1431 C1432 1.374 . S
C1432 H1406 0.950 . S
C1432 C1428 1.385 . S
C1432 C1431 1.374 . S
C1433 C1430 1.499 . S
C1433 C1434 1.373 . S
C1433 C1435 1.389 . S
C1434 H1407 0.950 . S
C1434 C1420 1.377 . S
C1434 C1433 1.373 . S
C1435 C1419 1.377 . S
C1435 C1433 1.389 . S
C1435 C1436 1.524 . S
C1436 C1435 1.524 . S
C1436 C1437 1.397 . S
C1436 C1441 1.363 . S
C1437 H1408 0.950 . S
C1437 C1436 1.397 . S
C1437 C1438 1.334 . S
C1438 H1409 0.950 . S
C1438 C1437 1.334 . S
C1438 C1439 1.287 . S
C1439 C1438 1.287 . S
C1439 C1440 1.524 . S
C1439 H1442 0.999 . S
C1440 H1410 0.950 . S
C1440 C1439 1.524 . S
C1440 C1441 1.415 . S
C1441 H1411 0.950 . S
C1441 C1436 1.363 . S
C1441 C1440 1.415 . S
H1442 C1439 0.999 . S
H1443 C1424 0.913 . S
H1444 C1462 0.951 . S
H1445 C1464 0.951 . S
H1446 C1466 0.950 . S
H1447 C1467 0.950 . S
H1448 C1469 0.950 . S
H1449 C1472 0.950 . S
H1450 C1473 0.950 . S
H1451 C1475 0.950 . S
H1452 C1476 0.950 . S
H1453 C1477 0.951 . S
H1454 C1479 0.951 . S
H1455 C1481 0.950 . S
H1456 C1482 0.950 . S
H1457 C1484 0.950 . S
H1458 C1487 0.950 . S
H1459 C1488 0.950 . S
H1460 C1490 0.950 . S
H1461 C1491 0.950 . S
C1462 H1444 0.951 . S
C1462 C1463 1.366 . S
C1462 C1464 1.388 . S
C1463 C1462 1.366 . S
C1463 C1467 1.385 1_655 S
C1464 H1445 0.951 . S
C1464 C1462 1.388 . S
C1464 C1465 1.366 . S
C1465 C1464 1.366 . S
C1465 C1466 1.414 1_655 S
C1465 C1468 1.499 . S
C1466 H1446 0.950 . S
C1466 C1465 1.414 1_455 S
C1466 C1467 1.374 . S
C1467 H1447 0.950 . S
C1467 C1463 1.385 1_455 S
C1467 C1466 1.374 . S
C1468 C1465 1.499 . S
C1468 C1469 1.373 1_655 S
C1468 C1470 1.389 . S
C1469 H1448 0.950 . S
C1469 C1468 1.373 1_455 S
C1469 C1485 1.377 . S
C1470 C1468 1.389 . S
C1470 C1471 1.524 . S
C1470 C1484 1.377 . S
C1471 C1470 1.524 . S
C1471 C1472 1.397 . S
C1471 C1476 1.363 . S
C1472 H1449 0.950 . S
C1472 C1471 1.397 . S
C1472 C1473 1.334 . S
C1473 H1450 0.950 . S
C1473 C1472 1.334 . S
C1473 C1474 1.287 . S
C1474 C1473 1.287 . S
C1474 C1475 1.524 . S
C1474 H1493 0.913 . S
C1475 H1451 0.950 . S
C1475 C1474 1.524 . S
C1475 C1476 1.415 . S
C1476 H1452 0.950 . S
C1476 C1471 1.363 . S
C1476 C1475 1.415 . S
C1477 H1453 0.951 . S
C1477 C1478 1.366 . S
C1477 C1479 1.388 . S
C1478 C1477 1.366 . S
C1478 C1482 1.385 1_455 S
C1479 H1454 0.951 . S
C1479 C1477 1.388 . S
C1479 C1480 1.366 . S
C1480 C1479 1.366 . S
C1480 C1481 1.414 1_455 S
C1480 C1483 1.499 . S
C1481 H1455 0.950 . S
C1481 C1480 1.414 1_655 S
C1481 C1482 1.374 . S
C1482 H1456 0.950 . S
C1482 C1478 1.385 1_655 S
C1482 C1481 1.374 . S
C1483 C1480 1.499 . S
C1483 C1484 1.373 1_455 S
C1483 C1485 1.389 . S
C1484 H1457 0.950 . S
C1484 C1470 1.377 . S
C1484 C1483 1.373 1_655 S
C1485 C1469 1.377 . S
C1485 C1483 1.389 . S
C1485 C1486 1.524 . S
C1486 C1485 1.524 . S
C1486 C1487 1.397 . S
C1486 C1491 1.363 . S
C1487 H1458 0.950 . S
C1487 C1486 1.397 . S
C1487 C1488 1.334 . S
C1488 H1459 0.950 . S
C1488 C1487 1.334 . S
C1488 C1489 1.287 . S
C1489 C1488 1.287 . S
C1489 C1490 1.524 . S
C1489 H1492 0.999 . S
C1490 H1460 0.950 . S
C1490 C1489 1.524 . S
C1490 C1491 1.415 . S
C1491 H1461 0.950 . S
C1491 C1486 1.363 . S
C1491 C1490 1.415 . S
H1492 C1489 0.999 . S
H1493 C1474 0.913 . S
H1494 C1512 0.951 . S
H1495 C1514 0.951 . S
H1496 C1516 0.950 . S
H1497 C1517 0.950 . S
H1498 C1519 0.950 . S
H1499 C1522 0.950 . S
H1500 C1523 0.950 . S
H1501 C1525 0.950 . S
H1502 C1526 0.950 . S
H1503 C1527 0.951 . S
H1504 C1529 0.951 . S
H1505 C1531 0.950 . S
H1506 C1532 0.950 . S
H1507 C1534 0.950 . S
H1508 C1537 0.950 . S
H1509 C1538 0.950 . S
H1510 C1540 0.950 . S
H1511 C1541 0.950 . S
C1512 H1494 0.951 . S
C1512 C1513 1.366 . S
C1512 C1514 1.388 . S
C1513 C1512 1.366 . S
C1513 C1517 1.385 1_545 S
C1514 H1495 0.951 . S
C1514 C1512 1.388 . S
C1514 C1515 1.366 . S
C1515 C1514 1.366 . S
C1515 C1516 1.414 1_545 S
C1515 C1518 1.503 . S
C1516 H1496 0.950 . S
C1516 C1515 1.414 1_565 S
C1516 C1517 1.374 . S
C1517 H1497 0.950 . S
C1517 C1513 1.385 1_565 S
C1517 C1516 1.374 . S
C1518 C1515 1.503 . S
C1518 C1519 1.369 1_545 S
C1518 C1520 1.392 . S
C1519 H1498 0.950 . S
C1519 C1518 1.369 1_565 S
C1519 C1535 1.377 . S
C1520 C1518 1.392 . S
C1520 C1521 1.524 . S
C1520 C1534 1.377 . S
C1521 C1520 1.524 . S
C1521 C1522 1.397 1_545 S
C1521 C1526 1.363 . S
C1522 H1499 0.950 . S
C1522 C1521 1.397 1_565 S
C1522 C1523 1.334 . S
C1523 H1500 0.950 . S
C1523 C1522 1.334 . S
C1523 C1524 1.287 1_565 S
C1524 C1523 1.287 1_545 S
C1524 C1525 1.524 . S
C1524 H1543 0.913 . S
C1525 H1501 0.950 . S
C1525 C1524 1.524 . S
C1525 C1526 1.415 . S
C1526 H1502 0.950 . S
C1526 C1521 1.363 . S
C1526 C1525 1.415 . S
C1527 H1503 0.951 . S
C1527 C1528 1.366 . S
C1527 C1529 1.388 . S
C1528 C1527 1.366 . S
C1528 C1532 1.385 1_565 S
C1529 H1504 0.951 . S
C1529 C1527 1.388 . S
C1529 C1530 1.366 . S
C1530 C1529 1.366 . S
C1530 C1531 1.414 1_565 S
C1530 C1533 1.499 . S
C1531 H1505 0.950 . S
C1531 C1530 1.414 1_545 S
C1531 C1532 1.374 . S
C1532 H1506 0.950 . S
C1532 C1528 1.385 1_545 S
C1532 C1531 1.374 . S
C1533 C1530 1.499 . S
C1533 C1534 1.373 1_565 S
C1533 C1535 1.389 . S
C1534 H1507 0.950 . S
C1534 C1520 1.377 . S
C1534 C1533 1.373 1_545 S
C1535 C1519 1.377 . S
C1535 C1533 1.389 . S
C1535 C1536 1.524 . S
C1536 C1535 1.524 . S
C1536 C1537 1.397 1_565 S
C1536 C1541 1.363 . S
C1537 H1508 0.950 . S
C1537 C1536 1.397 1_545 S
C1537 C1538 1.334 . S
C1538 H1509 0.950 . S
C1538 C1537 1.334 . S
C1538 C1539 1.287 1_545 S
C1539 C1538 1.287 1_565 S
C1539 C1540 1.524 . S
C1539 H1542 0.999 . S
C1540 H1510 0.950 . S
C1540 C1539 1.524 . S
C1540 C1541 1.415 . S
C1541 H1511 0.950 . S
C1541 C1536 1.363 . S
C1541 C1540 1.415 . S
H1542 C1539 0.999 . S
H1543 C1524 0.913 . S
H1544 C1562 0.951 . S
H1545 C1564 0.951 . S
H1546 C1566 0.950 . S
H1547 C1567 0.950 . S
H1548 C1569 0.950 . S
H1549 C1572 0.950 . S
H1550 C1573 0.950 . S
H1551 C1575 0.950 . S
H1552 C1576 0.950 . S
H1553 C1577 0.951 . S
H1554 C1579 0.951 . S
H1555 C1581 0.950 . S
H1556 C1582 0.950 . S
H1557 C1584 0.950 . S
H1558 C1587 0.950 . S
H1559 C1588 0.950 . S
H1560 C1590 0.950 . S
H1561 C1591 0.950 . S
C1562 H1544 0.951 . S
C1562 C1563 1.366 . S
C1562 C1564 1.388 . S
C1563 C1562 1.366 . S
C1563 C1567 1.385 . S
C1564 H1545 0.951 . S
C1564 C1562 1.388 . S
C1564 C1565 1.366 . S
C1565 C1564 1.366 . S
C1565 C1566 1.414 . S
C1565 C1568 1.499 . S
C1566 H1546 0.950 . S
C1566 C1565 1.414 . S
C1566 C1567 1.374 . S
C1567 H1547 0.950 . S
C1567 C1563 1.385 . S
C1567 C1566 1.374 . S
C1568 C1565 1.499 . S
C1568 C1569 1.373 . S
C1568 C1570 1.389 . S
C1569 H1548 0.950 . S
C1569 C1568 1.373 . S
C1569 C1585 1.377 . S
C1570 C1568 1.389 . S
C1570 C1571 1.524 . S
C1570 C1584 1.377 . S
C1571 C1570 1.524 . S
C1571 C1572 1.397 . S
C1571 C1576 1.363 . S
C1572 H1549 0.950 . S
C1572 C1571 1.397 . S
C1572 C1573 1.334 . S
C1573 H1550 0.950 . S
C1573 C1572 1.334 . S
C1573 C1574 1.287 . S
C1574 C1573 1.287 . S
C1574 C1575 1.524 . S
C1574 H1593 0.913 . S
C1575 H1551 0.950 . S
C1575 C1574 1.524 . S
C1575 C1576 1.415 . S
C1576 H1552 0.950 . S
C1576 C1571 1.363 . S
C1576 C1575 1.415 . S
C1577 H1553 0.951 . S
C1577 C1578 1.366 . S
C1577 C1579 1.388 . S
C1578 C1577 1.366 . S
C1578 C1582 1.385 . S
C1579 H1554 0.951 . S
C1579 C1577 1.388 . S
C1579 C1580 1.366 . S
C1580 C1579 1.366 . S
C1580 C1581 1.414 . S
C1580 C1583 1.499 . S
C1581 H1555 0.950 . S
C1581 C1580 1.414 . S
C1581 C1582 1.374 . S
C1582 H1556 0.950 . S
C1582 C1578 1.385 . S
C1582 C1581 1.374 . S
C1583 C1580 1.499 . S
C1583 C1584 1.373 . S
C1583 C1585 1.389 . S
C1584 H1557 0.950 . S
C1584 C1570 1.377 . S
C1584 C1583 1.373 . S
C1585 C1569 1.377 . S
C1585 C1583 1.389 . S
C1585 C1586 1.524 . S
C1586 C1585 1.524 . S
C1586 C1587 1.397 . S
C1586 C1591 1.363 . S
C1587 H1558 0.950 . S
C1587 C1586 1.397 . S
C1587 C1588 1.334 . S
C1588 H1559 0.950 . S
C1588 C1587 1.334 . S
C1588 C1589 1.287 . S
C1589 C1588 1.287 . S
C1589 C1590 1.524 . S
C1589 H1592 0.999 . S
C1590 H1560 0.950 . S
C1590 C1589 1.524 . S
C1590 C1591 1.415 . S
C1591 H1561 0.950 . S
C1591 C1586 1.363 . S
C1591 C1590 1.415 . S
H1592 C1589 0.999 . S
H1593 C1574 0.913 . S
H1594 C1612 0.951 . S
H1595 C1614 0.951 . S
H1596 C1616 0.950 . S
H1597 C1617 0.950 . S
H1598 C1619 0.950 . S
H1599 C1622 0.950 . S
H1600 C1623 0.950 . S
H1601 C1625 0.950 . S
H1602 C1626 0.950 . S
H1603 C1627 0.951 . S
H1604 C1629 0.951 . S
H1605 C1631 0.950 . S
H1606 C1632 0.950 . S
H1607 C1634 0.950 . S
H1608 C1637 0.950 . S
H1609 C1638 0.950 . S
H1610 C1640 0.950 . S
H1611 C1641 0.950 . S
C1612 H1594 0.951 . S
C1612 C1613 1.366 . S
C1612 C1614 1.388 . S
C1613 C1612 1.366 . S
C1613 C1617 1.385 . S
C1614 H1595 0.951 . S
C1614 C1612 1.388 . S
C1614 C1615 1.366 . S
C1615 C1614 1.366 . S
C1615 C1616 1.414 . S
C1615 C1618 1.499 . S
C1616 H1596 0.950 . S
C1616 C1615 1.414 . S
C1616 C1617 1.374 . S
C1617 H1597 0.950 . S
C1617 C1613 1.385 . S
C1617 C1616 1.374 . S
C1618 C1615 1.499 . S
C1618 C1619 1.373 . S
C1618 C1620 1.389 . S
C1619 H1598 0.950 . S
C1619 C1618 1.373 . S
C1619 C1635 1.377 . S
C1620 C1618 1.389 . S
C1620 C1621 1.524 . S
C1620 C1634 1.377 . S
C1621 C1620 1.524 . S
C1621 C1622 1.397 . S
C1621 C1626 1.363 . S
C1622 H1599 0.950 . S
C1622 C1621 1.397 . S
C1622 C1623 1.334 . S
C1623 H1600 0.950 . S
C1623 C1622 1.334 . S
C1623 C1624 1.287 . S
C1624 C1623 1.287 . S
C1624 C1625 1.524 . S
C1624 H1643 0.913 . S
C1625 H1601 0.950 . S
C1625 C1624 1.524 . S
C1625 C1626 1.415 . S
C1626 H1602 0.950 . S
C1626 C1621 1.363 . S
C1626 C1625 1.415 . S
C1627 H1603 0.951 . S
C1627 C1628 1.366 . S
C1627 C1629 1.388 . S
C1628 C1627 1.366 . S
C1628 C1632 1.385 . S
C1629 H1604 0.951 . S
C1629 C1627 1.388 . S
C1629 C1630 1.366 . S
C1630 C1629 1.366 . S
C1630 C1631 1.414 . S
C1630 C1633 1.499 . S
C1631 H1605 0.950 . S
C1631 C1630 1.414 . S
C1631 C1632 1.374 . S
C1632 H1606 0.950 . S
C1632 C1628 1.385 . S
C1632 C1631 1.374 . S
C1633 C1630 1.499 . S
C1633 C1634 1.373 . S
C1633 C1635 1.389 . S
C1634 H1607 0.950 . S
C1634 C1620 1.377 . S
C1634 C1633 1.373 . S
C1635 C1619 1.377 . S
C1635 C1633 1.389 . S
C1635 C1636 1.524 . S
C1636 C1635 1.524 . S
C1636 C1637 1.397 . S
C1636 C1641 1.363 . S
C1637 H1608 0.950 . S
C1637 C1636 1.397 . S
C1637 C1638 1.334 . S
C1638 H1609 0.950 . S
C1638 C1637 1.334 . S
C1638 C1639 1.287 . S
C1639 C1638 1.287 . S
C1639 C1640 1.524 . S
C1639 H1642 0.999 . S
C1640 H1610 0.950 . S
C1640 C1639 1.524 . S
C1640 C1641 1.415 . S
C1641 H1611 0.950 . S
C1641 C1636 1.363 . S
C1641 C1640 1.415 . S
H1642 C1639 0.999 . S
H1643 C1624 0.913 . S
H1644 C1662 0.951 . S
H1645 C1664 0.951 . S
H1646 C1666 0.950 . S
H1647 C1667 0.950 . S
H1648 C1669 0.950 . S
H1649 C1672 0.950 . S
H1650 C1673 0.950 . S
H1651 C1675 0.950 . S
H1652 C1676 0.950 . S
H1653 C1677 0.951 . S
H1654 C1679 0.951 . S
H1655 C1681 0.950 . S
H1656 C1682 0.950 . S
H1657 C1684 0.950 . S
H1658 C1687 0.950 . S
H1659 C1688 0.950 . S
H1660 C1690 0.950 . S
H1661 C1691 0.950 . S
C1662 H1644 0.951 . S
C1662 C1663 1.366 1_455 S
C1662 C1664 1.388 . S
C1663 C1662 1.366 1_655 S
C1663 C1667 1.385 . S
C1664 H1645 0.951 . S
C1664 C1662 1.388 . S
C1664 C1665 1.366 1_455 S
C1665 C1664 1.366 1_655 S
C1665 C1666 1.414 . S
C1665 C1668 1.499 . S
C1666 H1646 0.950 . S
C1666 C1665 1.414 . S
C1666 C1667 1.374 . S
C1667 H1647 0.950 . S
C1667 C1663 1.385 . S
C1667 C1666 1.374 . S
C1668 C1665 1.499 . S
C1668 C1669 1.373 . S
C1668 C1670 1.389 1_655 S
C1669 H1648 0.950 . S
C1669 C1668 1.373 . S
C1669 C1685 1.377 . S
C1670 C1668 1.389 1_455 S
C1670 C1671 1.524 . S
C1670 C1684 1.377 . S
C1671 C1670 1.524 . S
C1671 C1672 1.397 1_455 S
C1671 C1676 1.363 . S
C1672 H1649 0.950 . S
C1672 C1671 1.397 1_655 S
C1672 C1673 1.334 . S
C1673 H1650 0.950 . S
C1673 C1672 1.334 . S
C1673 C1674 1.287 . S
C1674 C1673 1.287 . S
C1674 C1675 1.524 1_655 S
C1674 H1693 0.913 . S
C1675 H1651 0.950 . S
C1675 C1674 1.524 1_455 S
C1675 C1676 1.415 . S
C1676 H1652 0.950 . S
C1676 C1671 1.363 . S
C1676 C1675 1.415 . S
C1677 H1653 0.951 . S
C1677 C1678 1.366 1_655 S
C1677 C1679 1.388 . S
C1678 C1677 1.366 1_455 S
C1678 C1682 1.385 . S
C1679 H1654 0.951 . S
C1679 C1677 1.388 . S
C1679 C1680 1.366 1_655 S
C1680 C1679 1.366 1_455 S
C1680 C1681 1.414 . S
C1680 C1683 1.499 . S
C1681 H1655 0.950 . S
C1681 C1680 1.414 . S
C1681 C1682 1.374 . S
C1682 H1656 0.950 . S
C1682 C1678 1.385 . S
C1682 C1681 1.374 . S
C1683 C1680 1.499 . S
C1683 C1684 1.373 . S
C1683 C1685 1.389 1_455 S
C1684 H1657 0.950 . S
C1684 C1670 1.377 . S
C1684 C1683 1.373 . S
C1685 C1669 1.377 . S
C1685 C1683 1.389 1_655 S
C1685 C1686 1.524 . S
C1686 C1685 1.524 . S
C1686 C1687 1.397 1_655 S
C1686 C1691 1.363 . S
C1687 H1658 0.950 . S
C1687 C1686 1.397 1_455 S
C1687 C1688 1.334 . S
C1688 H1659 0.950 . S
C1688 C1687 1.334 . S
C1688 C1689 1.295 . S
C1689 C1688 1.295 . S
C1689 C1690 1.514 1_455 S
C1689 H1692 0.999 1_455 S
C1690 H1660 0.950 . S
C1690 C1689 1.514 1_655 S
C1690 C1691 1.415 . S
C1691 H1661 0.950 . S
C1691 C1686 1.363 . S
C1691 C1690 1.415 . S
H1692 C1689 0.999 1_655 S
H1693 C1674 0.913 . S
H1694 C1712 0.951 . S
H1695 C1714 0.951 . S
H1696 C1716 0.950 . S
H1697 C1717 0.950 . S
H1698 C1719 0.950 . S
H1699 C1722 0.950 . S
H1700 C1723 0.950 . S
H1701 C1725 0.950 . S
H1702 C1726 0.950 . S
H1703 C1727 0.951 . S
H1704 C1729 0.951 . S
H1705 C1731 0.950 . S
H1706 C1732 0.950 . S
H1707 C1734 0.950 . S
H1708 C1737 0.950 . S
H1709 C1738 0.950 . S
H1710 C1740 0.950 . S
H1711 C1741 0.950 . S
C1712 H1694 0.951 . S
C1712 C1713 1.366 . S
C1712 C1714 1.388 . S
C1713 C1712 1.366 . S
C1713 C1717 1.385 1_565 S
C1714 H1695 0.951 . S
C1714 C1712 1.388 . S
C1714 C1715 1.366 . S
C1715 C1714 1.366 . S
C1715 C1716 1.414 1_565 S
C1715 C1718 1.499 . S
C1716 H1696 0.950 . S
C1716 C1715 1.414 1_545 S
C1716 C1717 1.374 . S
C1717 H1697 0.950 . S
C1717 C1713 1.385 1_545 S
C1717 C1716 1.374 . S
C1718 C1715 1.499 . S
C1718 C1719 1.373 1_565 S
C1718 C1720 1.389 . S
C1719 H1698 0.950 . S
C1719 C1718 1.373 1_545 S
C1719 C1735 1.377 . S
C1720 C1718 1.389 . S
C1720 C1721 1.524 . S
C1720 C1734 1.377 . S
C1721 C1720 1.524 . S
C1721 C1722 1.397 . S
C1721 C1726 1.363 . S
C1722 H1699 0.950 . S
C1722 C1721 1.397 . S
C1722 C1723 1.334 . S
C1723 H1700 0.950 . S
C1723 C1722 1.334 . S
C1723 C1724 1.287 . S
C1724 C1723 1.287 . S
C1724 C1725 1.524 . S
C1724 H1743 0.913 . S
C1725 H1701 0.950 . S
C1725 C1724 1.524 . S
C1725 C1726 1.415 . S
C1726 H1702 0.950 . S
C1726 C1721 1.363 . S
C1726 C1725 1.415 . S
C1727 H1703 0.951 . S
C1727 C1728 1.366 . S
C1727 C1729 1.388 . S
C1728 C1727 1.366 . S
C1728 C1732 1.385 1_545 S
C1729 H1704 0.951 . S
C1729 C1727 1.388 . S
C1729 C1730 1.366 . S
C1730 C1729 1.366 . S
C1730 C1731 1.414 1_545 S
C1730 C1733 1.499 . S
C1731 H1705 0.950 . S
C1731 C1730 1.414 1_565 S
C1731 C1732 1.374 . S
C1732 H1706 0.950 . S
C1732 C1728 1.385 1_565 S
C1732 C1731 1.374 . S
C1733 C1730 1.499 . S
C1733 C1734 1.373 1_545 S
C1733 C1735 1.389 . S
C1734 H1707 0.950 . S
C1734 C1720 1.377 . S
C1734 C1733 1.373 1_565 S
C1735 C1719 1.377 . S
C1735 C1733 1.389 . S
C1735 C1736 1.524 . S
C1736 C1735 1.524 . S
C1736 C1737 1.397 . S
C1736 C1741 1.363 . S
C1737 H1708 0.950 . S
C1737 C1736 1.397 . S
C1737 C1738 1.334 . S
C1738 H1709 0.950 . S
C1738 C1737 1.334 . S
C1738 C1739 1.287 . S
C1739 C1738 1.287 . S
C1739 C1740 1.524 . S
C1739 H1742 0.999 . S
C1740 H1710 0.950 . S
C1740 C1739 1.524 . S
C1740 C1741 1.415 . S
C1741 H1711 0.950 . S
C1741 C1736 1.363 . S
C1741 C1740 1.415 . S
H1742 C1739 0.999 . S
H1743 C1724 0.913 . S
H1744 C1762 0.951 . S
H1745 C1764 0.951 . S
H1746 C1766 0.950 . S
H1747 C1767 0.950 . S
H1748 C1769 0.950 . S
H1749 C1772 0.950 . S
H1750 C1773 0.950 . S
H1751 C1775 0.950 . S
H1752 C1776 0.950 . S
H1753 C1777 0.951 . S
H1754 C1779 0.951 . S
H1755 C1781 0.950 . S
H1756 C1782 0.950 . S
H1757 C1784 0.950 . S
H1758 C1787 0.950 . S
H1759 C1788 0.950 . S
H1760 C1790 0.950 . S
H1761 C1791 0.950 . S
C1762 H1744 0.951 . S
C1762 C1763 1.366 . S
C1762 C1764 1.388 . S
C1763 C1762 1.366 . S
C1763 C1767 1.385 . S
C1764 H1745 0.951 . S
C1764 C1762 1.388 . S
C1764 C1765 1.366 . S
C1765 C1764 1.366 . S
C1765 C1766 1.414 . S
C1765 C1768 1.499 . S
C1766 H1746 0.950 . S
C1766 C1765 1.414 . S
C1766 C1767 1.374 . S
C1767 H1747 0.950 . S
C1767 C1763 1.385 . S
C1767 C1766 1.374 . S
C1768 C1765 1.499 . S
C1768 C1769 1.373 . S
C1768 C1770 1.389 . S
C1769 H1748 0.950 . S
C1769 C1768 1.373 . S
C1769 C1785 1.377 . S
C1770 C1768 1.389 . S
C1770 C1771 1.524 . S
C1770 C1784 1.377 . S
C1771 C1770 1.524 . S
C1771 C1772 1.397 . S
C1771 C1776 1.363 . S
C1772 H1749 0.950 . S
C1772 C1771 1.397 . S
C1772 C1773 1.334 . S
C1773 H1750 0.950 . S
C1773 C1772 1.334 . S
C1773 C1774 1.287 . S
C1774 C1773 1.287 . S
C1774 C1775 1.524 . S
C1774 H1793 0.913 . S
C1775 H1751 0.950 . S
C1775 C1774 1.524 . S
C1775 C1776 1.415 . S
C1776 H1752 0.950 . S
C1776 C1771 1.363 . S
C1776 C1775 1.415 . S
C1777 H1753 0.951 . S
C1777 C1778 1.366 . S
C1777 C1779 1.388 . S
C1778 C1777 1.366 . S
C1778 C1782 1.385 . S
C1779 H1754 0.951 . S
C1779 C1777 1.388 . S
C1779 C1780 1.366 . S
C1780 C1779 1.366 . S
C1780 C1781 1.414 . S
C1780 C1783 1.499 . S
C1781 H1755 0.950 . S
C1781 C1780 1.414 . S
C1781 C1782 1.374 . S
C1782 H1756 0.950 . S
C1782 C1778 1.385 . S
C1782 C1781 1.374 . S
C1783 C1780 1.499 . S
C1783 C1784 1.373 . S
C1783 C1785 1.389 . S
C1784 H1757 0.950 . S
C1784 C1770 1.377 . S
C1784 C1783 1.373 . S
C1785 C1769 1.377 . S
C1785 C1783 1.389 . S
C1785 C1786 1.524 . S
C1786 C1785 1.524 . S
C1786 C1787 1.397 . S
C1786 C1791 1.363 . S
C1787 H1758 0.950 . S
C1787 C1786 1.397 . S
C1787 C1788 1.334 . S
C1788 H1759 0.950 . S
C1788 C1787 1.334 . S
C1788 C1789 1.287 . S
C1789 C1788 1.287 . S
C1789 C1790 1.524 . S
C1789 H1792 0.999 . S
C1790 H1760 0.950 . S
C1790 C1789 1.524 . S
C1790 C1791 1.415 . S
C1791 H1761 0.950 . S
C1791 C1786 1.363 . S
C1791 C1790 1.415 . S
H1792 C1789 0.999 . S
H1793 C1774 0.913 . S
H1794 C1812 0.951 . S
H1795 C1814 0.951 . S
H1796 C1816 0.950 . S
H1797 C1817 0.950 . S
H1798 C1819 0.950 . S
H1799 C1822 0.950 . S
H1800 C1823 0.950 . S
H1801 C1825 0.950 . S
H1802 C1826 0.950 . S
H1803 C1827 0.951 . S
H1804 C1829 0.951 . S
H1805 C1831 0.950 . S
H1806 C1832 0.950 . S
H1807 C1834 0.950 . S
H1808 C1837 0.950 . S
H1809 C1838 0.950 . S
H1810 C1840 0.950 . S
H1811 C1841 0.950 . S
C1812 H1794 0.951 . S
C1812 C1813 1.366 . S
C1812 C1814 1.388 . S
C1813 C1812 1.366 . S
C1813 C1817 1.385 . S
C1814 H1795 0.951 . S
C1814 C1812 1.388 . S
C1814 C1815 1.366 . S
C1815 C1814 1.366 . S
C1815 C1816 1.414 . S
C1815 C1818 1.499 . S
C1816 H1796 0.950 . S
C1816 C1815 1.414 . S
C1816 C1817 1.374 . S
C1817 H1797 0.950 . S
C1817 C1813 1.385 . S
C1817 C1816 1.374 . S
C1818 C1815 1.499 . S
C1818 C1819 1.373 . S
C1818 C1820 1.389 . S
C1819 H1798 0.950 . S
C1819 C1818 1.373 . S
C1819 C1835 1.377 . S
C1820 C1818 1.389 . S
C1820 C1821 1.524 . S
C1820 C1834 1.377 . S
C1821 C1820 1.524 . S
C1821 C1822 1.397 . S
C1821 C1826 1.363 . S
C1822 H1799 0.950 . S
C1822 C1821 1.397 . S
C1822 C1823 1.334 . S
C1823 H1800 0.950 . S
C1823 C1822 1.334 . S
C1823 C1824 1.287 . S
C1824 C1823 1.287 . S
C1824 C1825 1.524 . S
C1824 H1843 0.913 . S
C1825 H1801 0.950 . S
C1825 C1824 1.524 . S
C1825 C1826 1.415 . S
C1826 H1802 0.950 . S
C1826 C1821 1.363 . S
C1826 C1825 1.415 . S
C1827 H1803 0.951 . S
C1827 C1828 1.366 . S
C1827 C1829 1.388 . S
C1828 C1827 1.366 . S
C1828 C1832 1.385 . S
C1829 H1804 0.951 . S
C1829 C1827 1.388 . S
C1829 C1830 1.366 . S
C1830 C1829 1.366 . S
C1830 C1831 1.414 . S
C1830 C1833 1.499 . S
C1831 H1805 0.950 . S
C1831 C1830 1.414 . S
C1831 C1832 1.374 . S
C1832 H1806 0.950 . S
C1832 C1828 1.385 . S
C1832 C1831 1.374 . S
C1833 C1830 1.499 . S
C1833 C1834 1.373 . S
C1833 C1835 1.389 . S
C1834 H1807 0.950 . S
C1834 C1820 1.377 . S
C1834 C1833 1.373 . S
C1835 C1819 1.377 . S
C1835 C1833 1.389 . S
C1835 C1836 1.524 . S
C1836 C1835 1.524 . S
C1836 C1837 1.397 . S
C1836 C1841 1.363 . S
C1837 H1808 0.950 . S
C1837 C1836 1.397 . S
C1837 C1838 1.334 . S
C1838 H1809 0.950 . S
C1838 C1837 1.334 . S
C1838 C1839 1.287 . S
C1839 C1838 1.287 . S
C1839 C1840 1.524 . S
C1839 H1842 0.999 . S
C1840 H1810 0.950 . S
C1840 C1839 1.524 . S
C1840 C1841 1.415 . S
C1841 H1811 0.950 . S
C1841 C1836 1.363 . S
C1841 C1840 1.415 . S
H1842 C1839 0.999 . S
H1843 C1824 0.913 . S
H1844 C1862 0.957 . S
H1845 C1864 0.951 . S
H1846 C1866 0.950 . S
H1847 C1867 0.950 . S
H1848 C1869 0.950 1_655 S
H1849 C1872 0.950 . S
H1850 C1873 0.950 . S
H1851 C1875 0.950 . S
H1852 C1876 0.950 . S
H1853 C1877 0.951 . S
H1854 C1879 0.951 . S
H1855 C1881 0.950 . S
H1856 C1882 0.950 . S
H1857 C1884 0.950 . S
H1858 C1887 0.950 . S
H1859 C1888 0.950 . S
H1860 C1890 0.950 . S
H1861 C1891 0.950 1_455 S
C1862 H1844 0.957 . S
C1862 C1863 1.366 . S
C1862 C1864 1.388 . S
C1863 C1862 1.366 . S
C1863 C1867 1.385 . S
C1864 H1845 0.951 . S
C1864 C1862 1.388 . S
C1864 C1865 1.366 . S
C1865 C1864 1.366 . S
C1865 C1866 1.414 . S
C1865 C1868 1.499 . S
C1866 H1846 0.950 . S
C1866 C1865 1.414 . S
C1866 C1867 1.374 . S
C1867 H1847 0.950 . S
C1867 C1863 1.385 . S
C1867 C1866 1.374 . S
C1868 C1865 1.499 . S
C1868 C1869 1.373 . S
C1868 C1870 1.389 . S
C1869 H1848 0.950 1_455 S
C1869 C1868 1.373 . S
C1869 C1885 1.377 . S
C1870 C1868 1.389 . S
C1870 C1871 1.524 . S
C1870 C1884 1.377 . S
C1871 C1870 1.524 . S
C1871 C1872 1.397 . S
C1871 C1876 1.363 . S
C1872 H1849 0.950 . S
C1872 C1871 1.397 . S
C1872 C1873 1.334 . S
C1873 H1850 0.950 . S
C1873 C1872 1.334 . S
C1873 C1874 1.287 . S
C1874 C1873 1.287 . S
C1874 C1875 1.524 . S
C1874 H1893 0.913 . S
C1875 H1851 0.950 . S
C1875 C1874 1.524 . S
C1875 C1876 1.415 . S
C1876 H1852 0.950 . S
C1876 C1871 1.363 . S
C1876 C1875 1.415 . S
C1877 H1853 0.951 . S
C1877 C1878 1.366 . S
C1877 C1879 1.388 . S
C1878 C1877 1.366 . S
C1878 C1882 1.385 . S
C1879 H1854 0.951 . S
C1879 C1877 1.388 . S
C1879 C1880 1.366 . S
C1880 C1879 1.366 . S
C1880 C1881 1.414 . S
C1880 C1883 1.499 . S
C1881 H1855 0.950 . S
C1881 C1880 1.414 . S
C1881 C1882 1.374 . S
C1882 H1856 0.950 . S
C1882 C1878 1.385 . S
C1882 C1881 1.374 . S
C1883 C1880 1.499 . S
C1883 C1884 1.373 . S
C1883 C1885 1.389 . S
C1884 H1857 0.950 . S
C1884 C1870 1.377 . S
C1884 C1883 1.373 . S
C1885 C1869 1.377 . S
C1885 C1883 1.389 . S
C1885 C1886 1.524 1_455 S
C1886 C1885 1.524 1_655 S
C1886 C1887 1.397 . S
C1886 C1891 1.363 . S
C1887 H1858 0.950 . S
C1887 C1886 1.397 . S
C1887 C1888 1.334 . S
C1888 H1859 0.950 . S
C1888 C1887 1.334 . S
C1888 C1889 1.287 . S
C1889 C1888 1.287 . S
C1889 C1890 1.524 . S
C1889 H1892 0.999 . S
C1890 H1860 0.950 . S
C1890 C1889 1.524 . S
C1890 C1891 1.415 . S
C1891 H1861 0.950 1_655 S
C1891 C1886 1.363 . S
C1891 C1890 1.415 . S
H1892 C1889 0.999 . S
H1893 C1874 0.913 . S
H1894 C1912 0.951 . S
H1895 C1914 0.951 . S
H1896 C1916 0.950 . S
H1897 C1917 0.950 . S
H1898 C1919 0.950 . S
H1899 C1922 0.950 . S
H1900 C1923 0.950 . S
H1901 C1925 0.950 . S
H1902 C1926 0.950 . S
H1903 C1927 0.951 . S
H1904 C1929 0.951 . S
H1905 C1931 0.950 . S
H1906 C1932 0.950 . S
H1907 C1934 0.950 1_565 S
H1908 C1937 0.950 . S
H1909 C1938 0.950 . S
H1910 C1940 0.950 . S
H1911 C1941 0.950 . S
C1912 H1894 0.951 . S
C1912 C1913 1.366 . S
C1912 C1914 1.388 . S
C1913 C1912 1.366 . S
C1913 C1917 1.385 . S
C1914 H1895 0.951 . S
C1914 C1912 1.388 . S
C1914 C1915 1.366 . S
C1915 C1914 1.366 . S
C1915 C1916 1.414 . S
C1915 C1918 1.499 . S
C1916 H1896 0.950 . S
C1916 C1915 1.414 . S
C1916 C1917 1.374 . S
C1917 H1897 0.950 . S
C1917 C1913 1.385 . S
C1917 C1916 1.374 . S
C1918 C1915 1.499 . S
C1918 C1919 1.373 . S
C1918 C1920 1.389 . S
C1919 H1898 0.950 . S
C1919 C1918 1.373 . S
C1919 C1935 1.377 . S
C1920 C1918 1.389 . S
C1920 C1921 1.524 1_545 S
C1920 C1934 1.377 . S
C1921 C1920 1.524 1_565 S
C1921 C1922 1.397 . S
C1921 C1926 1.363 . S
C1922 H1899 0.950 . S
C1922 C1921 1.397 . S
C1922 C1923 1.334 . S
C1923 H1900 0.950 . S
C1923 C1922 1.334 . S
C1923 C1924 1.287 . S
C1924 C1923 1.287 . S
C1924 C1925 1.524 . S
C1924 H1943 0.913 . S
C1925 H1901 0.950 . S
C1925 C1924 1.524 . S
C1925 C1926 1.415 . S
C1926 H1902 0.950 . S
C1926 C1921 1.363 . S
C1926 C1925 1.415 . S
C1927 H1903 0.951 . S
C1927 C1928 1.366 . S
C1927 C1929 1.388 . S
C1928 C1927 1.366 . S
C1928 C1932 1.385 . S
C1929 H1904 0.951 . S
C1929 C1927 1.388 . S
C1929 C1930 1.366 . S
C1930 C1929 1.366 . S
C1930 C1931 1.414 . S
C1930 C1933 1.499 . S
C1931 H1905 0.950 . S
C1931 C1930 1.414 . S
C1931 C1932 1.374 . S
C1932 H1906 0.950 . S
C1932 C1928 1.385 . S
C1932 C1931 1.374 . S
C1933 C1930 1.499 . S
C1933 C1934 1.373 . S
C1933 C1935 1.389 . S
C1934 H1907 0.950 1_545 S
C1934 C1920 1.377 . S
C1934 C1933 1.373 . S
C1935 C1919 1.377 . S
C1935 C1933 1.389 . S
C1935 C1936 1.524 . S
C1936 C1935 1.524 . S
C1936 C1937 1.397 . S
C1936 C1941 1.363 . S
C1937 H1908 0.950 . S
C1937 C1936 1.397 . S
C1937 C1938 1.334 . S
C1938 H1909 0.950 . S
C1938 C1937 1.334 . S
C1938 C1939 1.287 . S
C1939 C1938 1.287 . S
C1939 C1940 1.524 . S
C1939 H1942 0.999 . S
C1940 H1910 0.950 . S
C1940 C1939 1.524 . S
C1940 C1941 1.415 . S
C1941 H1911 0.950 . S
C1941 C1936 1.363 . S
C1941 C1940 1.415 . S
H1942 C1939 0.999 . S
H1943 C1924 0.913 . S
H1944 C1962 0.951 . S
H1945 C1964 0.951 . S
H1946 C1966 0.950 . S
H1947 C1967 0.950 . S
H1948 C1969 0.950 . S
H1949 C1972 0.950 . S
H1950 C1973 0.950 . S
H1951 C1975 0.950 . S
H1952 C1976 0.950 . S
H1953 C1977 0.951 . S
H1954 C1979 0.951 . S
H1955 C1981 0.950 . S
H1956 C1982 0.950 . S
H1957 C1984 0.950 . S
H1958 C1987 0.950 . S
H1959 C1988 0.950 . S
H1960 C1990 0.950 . S
H1961 C1991 0.950 . S
C1962 H1944 0.951 . S
C1962 C1963 1.366 . S
C1962 C1964 1.388 . S
C1963 C1962 1.366 . S
C1963 C1967 1.385 . S
C1964 H1945 0.951 . S
C1964 C1962 1.388 . S
C1964 C1965 1.366 . S
C1965 C1964 1.366 . S
C1965 C1966 1.414 . S
C1965 C1968 1.499 . S
C1966 H1946 0.950 . S
C1966 C1965 1.414 . S
C1966 C1967 1.374 . S
C1967 H1947 0.950 . S
C1967 C1963 1.385 . S
C1967 C1966 1.374 . S
C1968 C1965 1.499 . S
C1968 C1969 1.373 . S
C1968 C1970 1.389 . S
C1969 H1948 0.950 . S
C1969 C1968 1.373 . S
C1969 C1985 1.377 . S
C1970 C1968 1.389 . S
C1970 C1971 1.524 . S
C1970 C1984 1.377 . S
C1971 C1970 1.524 . S
C1971 C1972 1.397 . S
C1971 C1976 1.363 . S
C1972 H1949 0.950 . S
C1972 C1971 1.397 . S
C1972 C1973 1.334 . S
C1973 H1950 0.950 . S
C1973 C1972 1.334 . S
C1973 C1974 1.287 . S
C1974 C1973 1.287 . S
C1974 C1975 1.524 . S
C1974 H1993 0.913 . S
C1975 H1951 0.950 . S
C1975 C1974 1.524 . S
C1975 C1976 1.415 . S
C1976 H1952 0.950 . S
C1976 C1971 1.363 . S
C1976 C1975 1.415 . S
C1977 H1953 0.951 . S
C1977 C1978 1.366 . S
C1977 C1979 1.388 . S
C1978 C1977 1.366 . S
C1978 C1982 1.385 . S
C1979 H1954 0.951 . S
C1979 C1977 1.388 . S
C1979 C1980 1.366 . S
C1980 C1979 1.366 . S
C1980 C1981 1.414 . S
C1980 C1983 1.499 . S
C1981 H1955 0.950 . S
C1981 C1980 1.414 . S
C1981 C1982 1.374 . S
C1982 H1956 0.950 . S
C1982 C1978 1.385 . S
C1982 C1981 1.374 . S
C1983 C1980 1.499 . S
C1983 C1984 1.373 . S
C1983 C1985 1.389 . S
C1984 H1957 0.950 . S
C1984 C1970 1.377 . S
C1984 C1983 1.373 . S
C1985 C1969 1.377 . S
C1985 C1983 1.389 . S
C1985 C1986 1.524 . S
C1986 C1985 1.524 . S
C1986 C1987 1.397 . S
C1986 C1991 1.363 . S
C1987 H1958 0.950 . S
C1987 C1986 1.397 . S
C1987 C1988 1.334 . S
C1988 H1959 0.950 . S
C1988 C1987 1.334 . S
C1988 C1989 1.287 . S
C1989 C1988 1.287 . S
C1989 C1990 1.524 . S
C1989 H1992 0.999 . S
C1990 H1960 0.950 . S
C1990 C1989 1.524 . S
C1990 C1991 1.415 . S
C1991 H1961 0.950 . S
C1991 C1986 1.363 . S
C1991 C1990 1.415 . S
H1992 C1989 0.999 . S
H1993 C1974 0.913 . S
H1994 C2012 0.951 . S
H1995 C2014 0.951 . S
H1996 C2016 0.950 . S
H1997 C2017 0.950 . S
H1998 C2019 0.950 . S
H1999 C2022 0.950 . S
H2000 C2023 0.950 . S
H2001 C2025 0.950 . S
H2002 C2026 0.950 . S
H2003 C2027 0.951 . S
H2004 C2029 0.951 . S
H2005 C2031 0.950 . S
H2006 C2032 0.950 . S
H2007 C2034 0.950 . S
H2008 C2037 0.950 . S
H2009 C2038 0.950 . S
H2010 C2040 0.950 . S
H2011 C2041 0.950 . S
C2012 H1994 0.951 . S
C2012 C2013 1.366 . S
C2012 C2014 1.388 . S
C2013 C2012 1.366 . S
C2013 C2017 1.385 . S
C2014 H1995 0.951 . S
C2014 C2012 1.388 . S
C2014 C2015 1.366 . S
C2015 C2014 1.366 . S
C2015 C2016 1.414 . S
C2015 C2018 1.499 . S
C2016 H1996 0.950 . S
C2016 C2015 1.414 . S
C2016 C2017 1.374 . S
C2017 H1997 0.950 . S
C2017 C2013 1.385 . S
C2017 C2016 1.374 . S
C2018 C2015 1.499 . S
C2018 C2019 1.373 . S
C2018 C2020 1.389 . S
C2019 H1998 0.950 . S
C2019 C2018 1.373 . S
C2019 C2035 1.377 . S
C2020 C2018 1.389 . S
C2020 C2021 1.524 . S
C2020 C2034 1.377 . S
C2021 C2020 1.524 . S
C2021 C2022 1.397 . S
C2021 C2026 1.363 . S
C2022 H1999 0.950 . S
C2022 C2021 1.397 . S
C2022 C2023 1.334 . S
C2023 H2000 0.950 . S
C2023 C2022 1.334 . S
C2023 C2024 1.287 . S
C2024 C2023 1.287 . S
C2024 C2025 1.524 . S
C2024 H2043 0.913 . S
C2025 H2001 0.950 . S
C2025 C2024 1.524 . S
C2025 C2026 1.415 . S
C2026 H2002 0.950 . S
C2026 C2021 1.363 . S
C2026 C2025 1.415 . S
C2027 H2003 0.951 . S
C2027 C2028 1.366 . S
C2027 C2029 1.388 . S
C2028 C2027 1.366 . S
C2028 C2032 1.385 . S
C2029 H2004 0.951 . S
C2029 C2027 1.388 . S
C2029 C2030 1.366 . S
C2030 C2029 1.366 . S
C2030 C2031 1.414 . S
C2030 C2033 1.499 . S
C2031 H2005 0.950 . S
C2031 C2030 1.414 . S
C2031 C2032 1.374 . S
C2032 H2006 0.950 . S
C2032 C2028 1.385 . S
C2032 C2031 1.374 . S
C2033 C2030 1.499 . S
C2033 C2034 1.373 . S
C2033 C2035 1.389 . S
C2034 H2007 0.950 . S
C2034 C2020 1.377 . S
C2034 C2033 1.373 . S
C2035 C2019 1.377 . S
C2035 C2033 1.389 . S
C2035 C2036 1.524 . S
C2036 C2035 1.524 . S
C2036 C2037 1.397 . S
C2036 C2041 1.363 . S
C2037 H2008 0.950 . S
C2037 C2036 1.397 . S
C2037 C2038 1.334 . S
C2038 H2009 0.950 . S
C2038 C2037 1.334 . S
C2038 C2039 1.287 . S
C2039 C2038 1.287 . S
C2039 C2040 1.524 . S
C2039 H2042 0.999 . S
C2040 H2010 0.950 . S
C2040 C2039 1.524 . S
C2040 C2041 1.415 . S
C2041 H2011 0.950 . S
C2041 C2036 1.363 . S
C2041 C2040 1.415 . S
H2042 C2039 0.999 . S
H2043 C2024 0.913 . S
H2044 C2062 0.951 . S
H2045 C2064 0.951 . S
H2046 C2066 0.950 . S
H2047 C2067 0.950 . S
H2048 C2069 0.950 . S
H2049 C2072 0.950 . S
H2050 C2073 0.950 . S
H2051 C2075 0.950 . S
H2052 C2076 0.950 . S
H2053 C2077 0.951 . S
H2054 C2079 0.951 . S
H2055 C2081 0.952 . S
H2056 C2082 0.950 . S
H2057 C2084 0.965 . S
H2058 C2087 0.950 . S
H2059 C2088 0.950 . S
H2060 C2090 0.950 . S
H2061 C2091 0.950 . S
C2062 H2044 0.951 . S
C2062 C2063 1.366 1_655 S
C2062 C2064 1.388 . S
C2063 C2062 1.366 1_455 S
C2063 C2067 1.385 . S
C2064 H2045 0.951 . S
C2064 C2062 1.388 . S
C2064 C2065 1.366 1_655 S
C2065 C2064 1.366 1_455 S
C2065 C2066 1.414 . S
C2065 C2068 1.499 . S
C2066 H2046 0.950 . S
C2066 C2065 1.414 . S
C2066 C2067 1.374 . S
C2067 H2047 0.950 . S
C2067 C2063 1.385 . S
C2067 C2066 1.374 . S
C2068 C2065 1.499 . S
C2068 C2069 1.373 . S
C2068 C2070 1.389 1_455 S
C2069 H2048 0.950 . S
C2069 C2068 1.373 . S
C2069 C2085 1.377 . S
C2070 C2068 1.389 1_655 S
C2070 C2071 1.524 . S
C2070 C2084 1.379 . S
C2071 C2070 1.524 . S
C2071 C2072 1.397 . S
C2071 C2076 1.363 . S
C2072 H2049 0.950 . S
C2072 C2071 1.397 . S
C2072 C2073 1.334 . S
C2073 H2050 0.950 . S
C2073 C2072 1.334 . S
C2073 C2074 1.287 . S
C2074 C2073 1.287 . S
C2074 C2075 1.524 . S
C2074 H2093 0.913 . S
C2075 H2051 0.950 . S
C2075 C2074 1.524 . S
C2075 C2076 1.415 . S
C2076 H2052 0.950 . S
C2076 C2071 1.363 . S
C2076 C2075 1.415 . S
C2077 H2053 0.951 . S
C2077 C2078 1.366 . S
C2077 C2079 1.388 . S
C2078 C2077 1.366 . S
C2078 C2082 1.385 . S
C2079 H2054 0.951 . S
C2079 C2077 1.388 . S
C2079 C2080 1.366 . S
C2080 C2079 1.366 . S
C2080 C2081 1.414 . S
C2080 C2083 1.499 . S
C2081 H2055 0.952 . S
C2081 C2080 1.414 . S
C2081 C2082 1.374 . S
C2082 H2056 0.950 . S
C2082 C2078 1.385 . S
C2082 C2081 1.374 . S
C2083 C2080 1.499 . S
C2083 C2084 1.357 1_455 S
C2083 C2085 1.389 . S
C2084 H2057 0.965 . S
C2084 C2070 1.379 . S
C2084 C2083 1.357 1_655 S
C2085 C2069 1.377 . S
C2085 C2083 1.389 . S
C2085 C2086 1.524 . S
C2086 C2085 1.524 . S
C2086 C2087 1.397 . S
C2086 C2091 1.363 . S
C2087 H2058 0.950 . S
C2087 C2086 1.397 . S
C2087 C2088 1.334 . S
C2088 H2059 0.950 . S
C2088 C2087 1.334 . S
C2088 C2089 1.287 . S
C2089 C2088 1.287 . S
C2089 C2090 1.524 . S
C2089 H2092 0.999 . S
C2090 H2060 0.950 . S
C2090 C2089 1.524 . S
C2090 C2091 1.415 . S
C2091 H2061 0.950 . S
C2091 C2086 1.363 . S
C2091 C2090 1.415 . S
H2092 C2089 0.999 . S
H2093 C2074 0.913 . S
H2094 C2112 0.951 . S
H2095 C2114 0.951 . S
H2096 C2116 0.950 . S
H2097 C2117 0.950 . S
H2098 C2119 0.950 . S
H2099 C2122 0.950 . S
H2100 C2123 0.950 . S
H2101 C2125 0.950 . S
H2102 C2126 0.950 . S
H2103 C2127 0.951 . S
H2104 C2129 0.951 . S
H2105 C2131 0.950 . S
H2106 C2132 0.950 1_565 S
H2107 C2134 0.950 . S
H2108 C2137 0.950 . S
H2109 C2138 0.950 . S
H2110 C2140 0.950 . S
H2111 C2141 0.950 1_545 S
C2112 H2094 0.951 . S
C2112 C2113 1.366 . S
C2112 C2114 1.388 . S
C2113 C2112 1.366 . S
C2113 C2117 1.385 . S
C2114 H2095 0.951 . S
C2114 C2112 1.388 . S
C2114 C2115 1.366 . S
C2115 C2114 1.366 . S
C2115 C2116 1.414 . S
C2115 C2118 1.499 . S
C2116 H2096 0.950 . S
C2116 C2115 1.414 . S
C2116 C2117 1.374 . S
C2117 H2097 0.950 . S
C2117 C2113 1.385 . S
C2117 C2116 1.374 . S
C2118 C2115 1.499 . S
C2118 C2119 1.373 . S
C2118 C2120 1.389 . S
C2119 H2098 0.950 . S
C2119 C2118 1.373 . S
C2119 C2135 1.377 . S
C2120 C2118 1.389 . S
C2120 C2121 1.524 . S
C2120 C2134 1.377 . S
C2121 C2120 1.524 . S
C2121 C2122 1.397 . S
C2121 C2126 1.363 . S
C2122 H2099 0.950 . S
C2122 C2121 1.397 . S
C2122 C2123 1.334 . S
C2123 H2100 0.950 . S
C2123 C2122 1.334 . S
C2123 C2124 1.287 . S
C2124 C2123 1.287 . S
C2124 C2125 1.524 . S
C2124 H2143 0.913 . S
C2125 H2101 0.950 . S
C2125 C2124 1.524 . S
C2125 C2126 1.415 . S
C2126 H2102 0.950 . S
C2126 C2121 1.363 . S
C2126 C2125 1.415 . S
C2127 H2103 0.951 . S
C2127 C2128 1.366 . S
C2127 C2129 1.388 . S
C2128 C2127 1.366 . S
C2128 C2132 1.385 . S
C2129 H2104 0.951 . S
C2129 C2127 1.388 . S
C2129 C2130 1.366 . S
C2130 C2129 1.366 . S
C2130 C2131 1.414 . S
C2130 C2133 1.499 . S
C2131 H2105 0.950 . S
C2131 C2130 1.414 . S
C2131 C2132 1.374 . S
C2132 H2106 0.950 1_545 S
C2132 C2128 1.385 . S
C2132 C2131 1.374 . S
C2133 C2130 1.499 . S
C2133 C2134 1.373 . S
C2133 C2135 1.389 . S
C2134 H2107 0.950 . S
C2134 C2120 1.377 . S
C2134 C2133 1.373 . S
C2135 C2119 1.377 . S
C2135 C2133 1.389 . S
C2135 C2136 1.524 1_545 S
C2136 C2135 1.524 1_565 S
C2136 C2137 1.397 . S
C2136 C2141 1.363 . S
C2137 H2108 0.950 . S
C2137 C2136 1.397 . S
C2137 C2138 1.334 . S
C2138 H2109 0.950 . S
C2138 C2137 1.334 . S
C2138 C2139 1.287 . S
C2139 C2138 1.287 . S
C2139 C2140 1.524 . S
C2139 H2142 0.999 . S
C2140 H2110 0.950 . S
C2140 C2139 1.524 . S
C2140 C2141 1.415 . S
C2141 H2111 0.950 1_565 S
C2141 C2136 1.363 . S
C2141 C2140 1.415 . S
H2142 C2139 0.999 . S
H2143 C2124 0.913 . S
H2144 C2162 0.951 . S
H2145 C2164 0.951 . S
H2146 C2166 0.950 1_545 S
H2147 C2167 0.950 . S
H2148 C2169 0.950 . S
H2149 C2172 0.950 . S
H2150 C2173 0.950 . S
H2151 C2175 0.950 . S
H2152 C2176 0.923 1_554 S
H2153 C2177 0.951 . S
H2154 C2179 0.951 . S
H2155 C2181 0.941 1_565 S
H2156 C2182 0.962 . S
H2157 C2184 0.950 . S
H2158 C2187 0.950 . S
H2159 C2188 0.950 . S
H2160 C2190 0.950 . S
H2161 C2191 0.950 . S
C2162 H2144 0.951 . S
C2162 C2163 1.366 . S
C2162 C2164 1.388 . S
C2163 C2162 1.366 . S
C2163 C2167 1.385 . S
C2164 H2145 0.951 . S
C2164 C2162 1.388 . S
C2164 C2165 1.366 . S
C2165 C2164 1.366 . S
C2165 C2166 1.414 . S
C2165 C2168 1.499 . S
C2166 H2146 0.950 1_565 S
C2166 C2165 1.414 . S
C2166 C2167 1.374 . S
C2167 H2147 0.950 . S
C2167 C2163 1.385 . S
C2167 C2166 1.374 . S
C2168 C2165 1.499 . S
C2168 C2169 1.373 1_565 S
C2168 C2170 1.389 . S
C2169 H2148 0.950 . S
C2169 C2168 1.373 1_545 S
C2169 C2185 1.404 . S
C2170 C2168 1.389 . S
C2170 C2171 1.524 . S
C2170 C2184 1.377 1_556 S
C2171 C2170 1.524 . S
C2171 C2172 1.397 . S
C2171 C2176 1.363 . S
C2172 H2149 0.950 . S
C2172 C2171 1.397 . S
C2172 C2173 1.334 . S
C2173 H2150 0.950 . S
C2173 C2172 1.334 . S
C2173 C2174 1.287 . S
C2174 C2173 1.287 . S
C2174 C2175 1.524 . S
C2174 H2193 0.913 . S
C2175 H2151 0.950 . S
C2175 C2174 1.524 . S
C2175 C2176 1.415 . S
C2176 H2152 0.923 1_556 S
C2176 C2171 1.363 . S
C2176 C2175 1.415 . S
C2177 H2153 0.951 . S
C2177 C2178 1.366 . S
C2177 C2179 1.388 . S
C2178 C2177 1.366 . S
C2178 C2182 1.385 . S
C2179 H2154 0.951 . S
C2179 C2177 1.388 . S
C2179 C2180 1.366 . S
C2180 C2179 1.366 . S
C2180 C2181 1.420 . S
C2180 C2183 1.499 . S
C2181 H2155 0.941 1_545 S
C2181 C2180 1.420 . S
C2181 C2182 1.378 . S
C2182 H2156 0.962 . S
C2182 C2178 1.385 . S
C2182 C2181 1.378 . S
C2183 C2180 1.499 . S
C2183 C2184 1.373 1_545 S
C2183 C2185 1.368 1_554 S
C2184 H2157 0.950 . S
C2184 C2170 1.377 1_554 S
C2184 C2183 1.373 1_565 S
C2185 C2169 1.404 . S
C2185 C2183 1.368 1_556 S
C2185 C2186 1.521 1_556 S
C2186 C2185 1.521 1_554 S
C2186 C2187 1.397 . S
C2186 C2191 1.363 1_554 S
C2187 H2158 0.950 . S
C2187 C2186 1.397 . S
C2187 C2188 1.334 . S
C2188 H2159 0.950 . S
C2188 C2187 1.334 . S
C2188 C2189 1.287 . S
C2189 C2188 1.287 . S
C2189 C2190 1.524 1_554 S
C2189 H2192 0.999 . S
C2190 H2160 0.950 . S
C2190 C2189 1.524 1_556 S
C2190 C2191 1.415 . S
C2191 H2161 0.950 . S
C2191 C2186 1.363 1_556 S
C2191 C2190 1.415 . S
H2192 C2189 0.999 . S
H2193 C2174 0.913 . S
H2194 C2212 0.951 . S
H2195 C2214 0.951 . S
H2196 C2216 0.950 . S
H2197 C2217 0.950 . S
H2198 C2219 0.950 . S
H2199 C2222 0.950 . S
H2200 C2223 0.950 . S
H2201 C2225 0.950 . S
H2202 C2226 0.950 . S
H2203 C2227 0.951 . S
H2204 C2229 0.951 . S
H2205 C2231 0.950 . S
H2206 C2232 0.950 . S
H2207 C2234 0.950 . S
H2208 C2237 0.950 . S
H2209 C2238 0.950 . S
H2210 C2240 0.950 . S
H2211 C2241 0.950 . S
C2212 H2194 0.951 . S
C2212 C2213 1.366 . S
C2212 C2214 1.388 . S
C2213 C2212 1.366 . S
C2213 C2217 1.385 . S
C2214 H2195 0.951 . S
C2214 C2212 1.388 . S
C2214 C2215 1.366 . S
C2215 C2214 1.366 . S
C2215 C2216 1.414 . S
C2215 C2218 1.499 . S
C2216 H2196 0.950 . S
C2216 C2215 1.414 . S
C2216 C2217 1.374 . S
C2217 H2197 0.950 . S
C2217 C2213 1.385 . S
C2217 C2216 1.374 . S
C2218 C2215 1.499 . S
C2218 C2219 1.373 . S
C2218 C2220 1.389 . S
C2219 H2198 0.950 . S
C2219 C2218 1.373 . S
C2219 C2235 1.377 . S
C2220 C2218 1.389 . S
C2220 C2221 1.524 . S
C2220 C2234 1.377 . S
C2221 C2220 1.524 . S
C2221 C2222 1.397 . S
C2221 C2226 1.363 . S
C2222 H2199 0.950 . S
C2222 C2221 1.397 . S
C2222 C2223 1.334 . S
C2223 H2200 0.950 . S
C2223 C2222 1.334 . S
C2223 C2224 1.287 . S
C2224 C2223 1.287 . S
C2224 C2225 1.524 . S
C2224 H2243 0.913 . S
C2225 H2201 0.950 . S
C2225 C2224 1.524 . S
C2225 C2226 1.415 . S
C2226 H2202 0.950 . S
C2226 C2221 1.363 . S
C2226 C2225 1.415 . S
C2227 H2203 0.951 . S
C2227 C2228 1.366 . S
C2227 C2229 1.388 . S
C2228 C2227 1.366 . S
C2228 C2232 1.385 . S
C2229 H2204 0.951 . S
C2229 C2227 1.388 . S
C2229 C2230 1.366 . S
C2230 C2229 1.366 . S
C2230 C2231 1.414 . S
C2230 C2233 1.499 . S
C2231 H2205 0.950 . S
C2231 C2230 1.414 . S
C2231 C2232 1.374 . S
C2232 H2206 0.950 . S
C2232 C2228 1.385 . S
C2232 C2231 1.374 . S
C2233 C2230 1.499 . S
C2233 C2234 1.373 . S
C2233 C2235 1.389 . S
C2234 H2207 0.950 . S
C2234 C2220 1.377 . S
C2234 C2233 1.373 . S
C2235 C2219 1.377 . S
C2235 C2233 1.389 . S
C2235 C2236 1.524 . S
C2236 C2235 1.524 . S
C2236 C2237 1.397 . S
C2236 C2241 1.363 . S
C2237 H2208 0.950 . S
C2237 C2236 1.397 . S
C2237 C2238 1.334 . S
C2238 H2209 0.950 . S
C2238 C2237 1.334 . S
C2238 C2239 1.287 . S
C2239 C2238 1.287 . S
C2239 C2240 1.524 . S
C2239 H2242 0.999 . S
C2240 H2210 0.950 . S
C2240 C2239 1.524 . S
C2240 C2241 1.415 . S
C2241 H2211 0.950 . S
C2241 C2236 1.363 . S
C2241 C2240 1.415 . S
H2242 C2239 0.999 . S
H2243 C2224 0.913 . S
H2244 C2262 0.951 . S
H2245 C2264 0.951 . S
H2246 C2266 0.950 . S
H2247 C2267 0.950 . S
H2248 C2269 0.950 . S
H2249 C2272 0.950 . S
H2250 C2273 0.950 . S
H2251 C2275 0.950 . S
H2252 C2276 0.950 . S
H2253 C2277 0.951 . S
H2254 C2279 0.951 . S
H2255 C2281 0.950 1_655 S
H2256 C2282 0.950 1_655 S
H2257 C2284 0.950 . S
H2258 C2287 0.950 1_655 S
H2259 C2288 0.950 . S
H2260 C2290 0.950 1_554 S
H2261 C2291 0.950 1_554 S
C2262 H2244 0.951 . S
C2262 C2263 1.366 1_655 S
C2262 C2264 1.388 . S
C2263 C2262 1.366 1_455 S
C2263 C2267 1.385 . S
C2264 H2245 0.951 . S
C2264 C2262 1.388 . S
C2264 C2265 1.366 1_655 S
C2265 C2264 1.366 1_455 S
C2265 C2266 1.414 . S
C2265 C2268 1.499 . S
C2266 H2246 0.950 . S
C2266 C2265 1.414 . S
C2266 C2267 1.374 . S
C2267 H2247 0.950 . S
C2267 C2263 1.385 . S
C2267 C2266 1.374 . S
C2268 C2265 1.499 . S
C2268 C2269 1.373 . S
C2268 C2270 1.343 1_554 S
C2269 H2248 0.950 . S
C2269 C2268 1.373 . S
C2269 C2285 1.377 1_554 S
C2270 C2268 1.343 1_556 S
C2270 C2271 1.518 1_556 S
C2270 C2284 1.434 . S
C2271 C2270 1.518 1_554 S
C2271 C2272 1.397 . S
C2271 C2276 1.362 1_454 S
C2272 H2249 0.950 . S
C2272 C2271 1.397 . S
C2272 C2273 1.334 . S
C2273 H2250 0.950 . S
C2273 C2272 1.334 . S
C2273 C2274 1.287 1_455 S
C2274 C2273 1.287 1_655 S
C2274 C2275 1.524 1_554 S
C2274 H2293 0.913 . S
C2275 H2251 0.950 . S
C2275 C2274 1.524 1_556 S
C2275 C2276 1.415 . S
C2276 H2252 0.950 . S
C2276 C2271 1.362 1_656 S
C2276 C2275 1.415 . S
C2277 H2253 0.951 . S
C2277 C2278 1.366 . S
C2277 C2279 1.388 . S
C2278 C2277 1.366 . S
C2278 C2282 1.385 . S
C2279 H2254 0.951 . S
C2279 C2277 1.388 . S
C2279 C2280 1.366 . S
C2280 C2279 1.366 . S
C2280 C2281 1.414 . S
C2280 C2283 1.499 . S
C2281 H2255 0.950 1_455 S
C2281 C2280 1.414 . S
C2281 C2282 1.374 . S
C2282 H2256 0.950 1_455 S
C2282 C2278 1.385 . S
C2282 C2281 1.374 . S
C2283 C2280 1.499 . S
C2283 C2284 1.373 . S
C2283 C2285 1.389 . S
C2284 H2257 0.950 . S
C2284 C2270 1.434 . S
C2284 C2283 1.373 . S
C2285 C2269 1.377 1_556 S
C2285 C2283 1.389 . S
C2285 C2286 1.524 . S
C2286 C2285 1.524 . S
C2286 C2287 1.397 . S
C2286 C2291 1.363 . S
C2287 H2258 0.950 1_455 S
C2287 C2286 1.397 . S
C2287 C2288 1.334 . S
C2288 H2259 0.950 . S
C2288 C2287 1.334 . S
C2288 C2289 1.287 . S
C2289 C2288 1.287 . S
C2289 C2290 1.524 . S
C2289 H2292 0.999 . S
C2290 H2260 0.950 1_556 S
C2290 C2289 1.524 . S
C2290 C2291 1.415 . S
C2291 H2261 0.950 1_556 S
C2291 C2286 1.363 . S
C2291 C2290 1.415 . S
H2292 C2289 0.999 . S
H2293 C2274 0.913 . S
H2294 C2312 0.951 . S
H2295 C2314 0.951 . S
H2296 C2316 0.950 1_465 S
H2297 C2317 0.950 . S
H2298 C2319 0.950 . S
H2299 C2322 0.950 . S
H2300 C2323 0.950 . S
H2301 C2325 0.950 . S
H2302 C2326 0.950 . S
H2303 C2327 0.951 . S
H2304 C2329 0.951 . S
H2305 C2331 0.950 . S
H2306 C2332 0.950 1_655 S
H2307 C2334 0.946 1_455 S
H2308 C2337 0.950 . S
H2309 C2338 0.950 . S
H2310 C2340 0.950 . S
H2311 C2341 0.950 . S
C2312 H2294 0.951 . S
C2312 C2313 1.366 . S
C2312 C2314 1.388 . S
C2313 C2312 1.366 . S
C2313 C2317 1.385 . S
C2314 H2295 0.951 . S
C2314 C2312 1.388 . S
C2314 C2315 1.366 . S
C2315 C2314 1.366 . S
C2315 C2316 1.414 . S
C2315 C2318 1.499 . S
C2316 H2296 0.950 1_645 S
C2316 C2315 1.414 . S
C2316 C2317 1.374 . S
C2317 H2297 0.950 . S
C2317 C2313 1.385 . S
C2317 C2316 1.374 . S
C2318 C2315 1.499 . S
C2318 C2319 1.373 1_545 S
C2318 C2320 1.389 . S
C2319 H2298 0.950 . S
C2319 C2318 1.373 1_565 S
C2319 C2335 1.377 . S
C2320 C2318 1.389 . S
C2320 C2321 1.524 . S
C2320 C2334 1.383 . S
C2321 C2320 1.524 . S
C2321 C2322 1.397 1_655 S
C2321 C2326 1.363 . S
C2322 H2299 0.950 . S
C2322 C2321 1.397 1_455 S
C2322 C2323 1.334 . S
C2323 H2300 0.950 . S
C2323 C2322 1.334 . S
C2323 C2324 1.287 . S
C2324 C2323 1.287 . S
C2324 C2325 1.524 1_455 S
C2324 H2343 0.913 . S
C2325 H2301 0.950 . S
C2325 C2324 1.524 1_655 S
C2325 C2326 1.415 . S
C2326 H2302 0.950 . S
C2326 C2321 1.363 . S
C2326 C2325 1.415 . S
C2327 H2303 0.951 . S
C2327 C2328 1.366 1_565 S
C2327 C2329 1.388 . S
C2328 C2327 1.366 1_545 S
C2328 C2332 1.385 . S
C2329 H2304 0.951 . S
C2329 C2327 1.388 . S
C2329 C2330 1.366 1_565 S
C2330 C2329 1.366 1_545 S
C2330 C2331 1.414 1_455 S
C2330 C2333 1.504 . S
C2331 H2305 0.950 . S
C2331 C2330 1.414 1_655 S
C2331 C2332 1.374 1_655 S
C2332 H2306 0.950 1_455 S
C2332 C2328 1.385 . S
C2332 C2331 1.374 1_455 S
C2333 C2330 1.504 . S
C2333 C2334 1.372 1_455 S
C2333 C2335 1.386 1_445 S
C2334 H2307 0.946 1_655 S
C2334 C2320 1.383 . S
C2334 C2333 1.372 1_655 S
C2335 C2319 1.377 . S
C2335 C2333 1.386 1_665 S
C2335 C2336 1.524 . S
C2336 C2335 1.524 . S
C2336 C2337 1.397 . S
C2336 C2341 1.363 1_655 S
C2337 H2308 0.950 . S
C2337 C2336 1.397 . S
C2337 C2338 1.334 . S
C2338 H2309 0.950 . S
C2338 C2337 1.334 . S
C2338 C2339 1.287 . S
C2339 C2338 1.287 . S
C2339 C2340 1.524 1_655 S
C2339 H2342 0.999 . S
C2340 H2310 0.950 . S
C2340 C2339 1.524 1_455 S
C2340 C2341 1.415 . S
C2341 H2311 0.950 . S
C2341 C2336 1.363 1_455 S
C2341 C2340 1.415 . S
H2342 C2339 0.999 . S
H2343 C2324 0.913 . S
H2344 C2362 0.951 . S
H2345 C2364 0.951 . S
H2346 C2366 0.950 . S
H2347 C2367 0.950 . S
H2348 C2369 0.950 . S
H2349 C2372 0.950 . S
H2350 C2373 0.950 . S
H2351 C2375 0.950 . S
H2352 C2376 0.950 . S
H2353 C2377 0.951 . S
H2354 C2379 0.951 . S
H2355 C2381 0.950 . S
H2356 C2382 0.950 . S
H2357 C2384 0.950 . S
H2358 C2387 0.950 . S
H2359 C2388 0.950 . S
H2360 C2390 0.950 . S
H2361 C2391 0.950 . S
C2362 H2344 0.951 . S
C2362 C2363 1.366 . S
C2362 C2364 1.388 . S
C2363 C2362 1.366 . S
C2363 C2367 1.385 . S
C2364 H2345 0.951 . S
C2364 C2362 1.388 . S
C2364 C2365 1.366 . S
C2365 C2364 1.366 . S
C2365 C2366 1.414 . S
C2365 C2368 1.499 . S
C2366 H2346 0.950 . S
C2366 C2365 1.414 . S
C2366 C2367 1.374 . S
C2367 H2347 0.950 . S
C2367 C2363 1.385 . S
C2367 C2366 1.374 . S
C2368 C2365 1.499 . S
C2368 C2369 1.373 . S
C2368 C2370 1.389 . S
C2369 H2348 0.950 . S
C2369 C2368 1.373 . S
C2369 C2385 1.377 1_556 S
C2370 C2368 1.389 . S
C2370 C2371 1.524 . S
C2370 C2384 1.377 1_556 S
C2371 C2370 1.524 . S
C2371 C2372 1.397 . S
C2371 C2376 1.363 . S
C2372 H2349 0.950 . S
C2372 C2371 1.397 . S
C2372 C2373 1.334 . S
C2373 H2350 0.950 . S
C2373 C2372 1.334 . S
C2373 C2374 1.287 . S
C2374 C2373 1.287 . S
C2374 C2375 1.524 . S
C2374 H2393 0.913 . S
C2375 H2351 0.950 . S
C2375 C2374 1.524 . S
C2375 C2376 1.415 . S
C2376 H2352 0.950 . S
C2376 C2371 1.363 . S
C2376 C2375 1.415 . S
C2377 H2353 0.951 . S
C2377 C2378 1.366 . S
C2377 C2379 1.388 . S
C2378 C2377 1.366 . S
C2378 C2382 1.385 . S
C2379 H2354 0.951 . S
C2379 C2377 1.388 . S
C2379 C2380 1.366 . S
C2380 C2379 1.366 . S
C2380 C2381 1.414 . S
C2380 C2383 1.499 . S
C2381 H2355 0.950 . S
C2381 C2380 1.414 . S
C2381 C2382 1.374 . S
C2382 H2356 0.950 . S
C2382 C2378 1.385 . S
C2382 C2381 1.374 . S
C2383 C2380 1.499 . S
C2383 C2384 1.373 . S
C2383 C2385 1.389 . S
C2384 H2357 0.950 . S
C2384 C2370 1.377 1_554 S
C2384 C2383 1.373 . S
C2385 C2369 1.377 1_554 S
C2385 C2383 1.389 . S
C2385 C2386 1.524 . S
C2386 C2385 1.524 . S
C2386 C2387 1.397 . S
C2386 C2391 1.363 . S
C2387 H2358 0.950 . S
C2387 C2386 1.397 . S
C2387 C2388 1.334 . S
C2388 H2359 0.950 . S
C2388 C2387 1.334 . S
C2388 C2389 1.287 . S
C2389 C2388 1.287 . S
C2389 C2390 1.524 . S
C2389 H2392 0.999 . S
C2390 H2360 0.950 . S
C2390 C2389 1.524 . S
C2390 C2391 1.415 . S
C2391 H2361 0.950 . S
C2391 C2386 1.363 . S
C2391 C2390 1.415 . S
H2392 C2389 0.999 . S
H2393 C2374 0.913 . S
H2394 C2412 0.951 1_655 S
H2395 C2414 0.951 . S
H2396 C2416 0.950 . S
H2397 C2417 0.950 . S
H2398 C2419 0.950 . S
H2399 C2422 0.950 . S
H2400 C2423 0.950 . S
H2401 C2425 0.950 . S
H2402 C2426 0.950 . S
H2403 C2427 0.951 . S
H2404 C2429 0.951 1_455 S
H2405 C2431 0.950 . S
H2406 C2432 0.950 . S
H2407 C2434 0.950 . S
H2408 C2437 0.950 . S
H2409 C2438 0.950 . S
H2410 C2440 0.950 . S
H2411 C2441 0.950 . S
C2412 H2394 0.951 1_455 S
C2412 C2413 1.366 . S
C2412 C2414 1.388 1_455 S
C2413 C2412 1.366 . S
C2413 C2417 1.385 . S
C2414 H2395 0.951 . S
C2414 C2412 1.388 1_655 S
C2414 C2415 1.366 1_655 S
C2415 C2414 1.366 1_455 S
C2415 C2416 1.414 . S
C2415 C2418 1.499 . S
C2416 H2396 0.950 . S
C2416 C2415 1.414 . S
C2416 C2417 1.374 . S
C2417 H2397 0.950 . S
C2417 C2413 1.385 . S
C2417 C2416 1.374 . S
C2418 C2415 1.499 . S
C2418 C2419 1.373 . S
C2418 C2420 1.389 1_455 S
C2419 H2398 0.950 . S
C2419 C2418 1.373 . S
C2419 C2435 1.377 . S
C2420 C2418 1.389 1_655 S
C2420 C2421 1.524 . S
C2420 C2434 1.377 . S
C2421 C2420 1.524 . S
C2421 C2422 1.397 . S
C2421 C2426 1.363 . S
C2422 H2399 0.950 . S
C2422 C2421 1.397 . S
C2422 C2423 1.334 . S
C2423 H2400 0.950 . S
C2423 C2422 1.334 . S
C2423 C2424 1.287 . S
C2424 C2423 1.287 . S
C2424 C2425 1.524 . S
C2424 H2443 0.913 . S
C2425 H2401 0.950 . S
C2425 C2424 1.524 . S
C2425 C2426 1.415 . S
C2426 H2402 0.950 . S
C2426 C2421 1.363 . S
C2426 C2425 1.415 . S
C2427 H2403 0.951 . S
C2427 C2428 1.366 . S
C2427 C2429 1.388 . S
C2428 C2427 1.366 . S
C2428 C2432 1.385 . S
C2429 H2404 0.951 1_655 S
C2429 C2427 1.388 . S
C2429 C2430 1.366 . S
C2430 C2429 1.366 . S
C2430 C2431 1.414 . S
C2430 C2433 1.499 . S
C2431 H2405 0.950 . S
C2431 C2430 1.414 . S
C2431 C2432 1.374 . S
C2432 H2406 0.950 . S
C2432 C2428 1.385 . S
C2432 C2431 1.374 . S
C2433 C2430 1.499 . S
C2433 C2434 1.373 . S
C2433 C2435 1.389 1_655 S
C2434 H2407 0.950 . S
C2434 C2420 1.377 . S
C2434 C2433 1.373 . S
C2435 C2419 1.377 . S
C2435 C2433 1.389 1_455 S
C2435 C2436 1.524 . S
C2436 C2435 1.524 . S
C2436 C2437 1.397 . S
C2436 C2441 1.363 . S
C2437 H2408 0.950 . S
C2437 C2436 1.397 . S
C2437 C2438 1.334 . S
C2438 H2409 0.950 . S
C2438 C2437 1.334 . S
C2438 C2439 1.287 . S
C2439 C2438 1.287 . S
C2439 C2440 1.524 . S
C2439 H2442 0.999 . S
C2440 H2410 0.950 . S
C2440 C2439 1.524 . S
C2440 C2441 1.415 . S
C2441 H2411 0.950 . S
C2441 C2436 1.363 . S
C2441 C2440 1.415 . S
H2442 C2439 0.999 . S
H2443 C2424 0.913 . S
H2444 C2462 0.951 1_655 S
H2445 C2464 0.951 1_655 S
H2446 C2466 0.950 . S
H2447 C2467 0.950 . S
H2448 C2469 0.950 . S
H2449 C2472 0.950 . S
H2450 C2473 0.950 . S
H2451 C2475 0.950 . S
H2452 C2476 0.969 . S
H2453 C2477 0.951 . S
H2454 C2479 0.951 . S
H2455 C2481 0.950 1_565 S
H2456 C2482 0.950 . S
H2457 C2484 0.950 . S
H2458 C2487 0.950 . S
H2459 C2488 0.950 . S
H2460 C2490 0.957 . S
H2461 C2491 0.950 . S
C2462 H2444 0.951 1_455 S
C2462 C2463 1.366 . S
C2462 C2464 1.388 . S
C2463 C2462 1.366 . S
C2463 C2467 1.385 . S
C2464 H2445 0.951 1_455 S
C2464 C2462 1.388 . S
C2464 C2465 1.366 . S
C2465 C2464 1.366 . S
C2465 C2466 1.414 . S
C2465 C2468 1.499 . S
C2466 H2446 0.950 . S
C2466 C2465 1.414 . S
C2466 C2467 1.374 . S
C2467 H2447 0.950 . S
C2467 C2463 1.385 . S
C2467 C2466 1.374 . S
C2468 C2465 1.499 . S
C2468 C2469 1.373 1_565 S
C2468 C2470 1.389 . S
C2469 H2448 0.950 . S
C2469 C2468 1.373 1_545 S
C2469 C2485 1.380 . S
C2470 C2468 1.389 . S
C2470 C2471 1.524 . S
C2470 C2484 1.377 1_554 S
C2471 C2470 1.524 . S
C2471 C2472 1.397 . S
C2471 C2476 1.363 1_455 S
C2472 H2449 0.950 . S
C2472 C2471 1.397 . S
C2472 C2473 1.334 . S
C2473 H2450 0.950 . S
C2473 C2472 1.334 . S
C2473 C2474 1.287 . S
C2474 C2473 1.287 . S
C2474 C2475 1.524 1_455 S
C2474 H2493 0.913 . S
C2475 H2451 0.950 . S
C2475 C2474 1.524 1_655 S
C2475 C2476 1.415 . S
C2476 H2452 0.969 . S
C2476 C2471 1.363 1_655 S
C2476 C2475 1.415 . S
C2477 H2453 0.951 . S
C2477 C2478 1.366 . S
C2477 C2479 1.388 . S
C2478 C2477 1.366 . S
C2478 C2482 1.385 1_455 S
C2479 H2454 0.951 . S
C2479 C2477 1.388 . S
C2479 C2480 1.366 . S
C2480 C2479 1.366 . S
C2480 C2481 1.414 1_455 S
C2480 C2483 1.499 . S
C2481 H2455 0.950 1_545 S
C2481 C2480 1.414 1_655 S
C2481 C2482 1.374 . S
C2482 H2456 0.950 . S
C2482 C2478 1.385 1_655 S
C2482 C2481 1.374 . S
C2483 C2480 1.499 . S
C2483 C2484 1.373 1_545 S
C2483 C2485 1.387 1_556 S
C2484 H2457 0.950 . S
C2484 C2470 1.377 1_556 S
C2484 C2483 1.373 1_565 S
C2485 C2469 1.380 . S
C2485 C2483 1.387 1_554 S
C2485 C2486 1.524 1_554 S
C2486 C2485 1.524 1_556 S
C2486 C2487 1.397 1_455 S
C2486 C2491 1.363 1_556 S
C2487 H2458 0.950 . S
C2487 C2486 1.397 1_655 S
C2487 C2488 1.334 . S
C2488 H2459 0.950 . S
C2488 C2487 1.334 . S
C2488 C2489 1.287 1_655 S
C2489 C2488 1.287 1_455 S
C2489 C2490 1.512 1_556 S
C2489 H2492 0.999 . S
C2490 H2460 0.957 . S
C2490 C2489 1.512 1_554 S
C2490 C2491 1.419 . S
C2491 H2461 0.950 . S
C2491 C2486 1.363 1_554 S
C2491 C2490 1.419 . S
H2492 C2489 0.999 . S
H2493 C2474 0.913 . S
H2494 C2512 0.951 . S
H2495 C2514 0.951 . S
H2496 C2516 0.950 . S
H2497 C2517 0.950 . S
H2498 C2519 0.950 . S
H2499 C2522 0.950 . S
H2500 C2523 0.950 . S
H2501 C2525 0.950 . S
H2502 C2526 0.950 . S
H2503 C2527 0.951 1_565 S
H2504 C2529 0.951 1_565 S
H2505 C2531 0.950 . S
H2506 C2532 0.950 . S
H2507 C2534 0.950 . S
H2508 C2537 0.950 . S
H2509 C2538 0.950 . S
H2510 C2540 0.950 1_565 S
H2511 C2541 0.950 1_565 S
C2512 H2494 0.951 . S
C2512 C2513 1.366 . S
C2512 C2514 1.388 . S
C2513 C2512 1.366 . S
C2513 C2517 1.385 1_545 S
C2514 H2495 0.951 . S
C2514 C2512 1.388 . S
C2514 C2515 1.366 . S
C2515 C2514 1.366 . S
C2515 C2516 1.414 1_545 S
C2515 C2518 1.499 . S
C2516 H2496 0.950 . S
C2516 C2515 1.414 1_565 S
C2516 C2517 1.374 . S
C2517 H2497 0.950 . S
C2517 C2513 1.385 1_565 S
C2517 C2516 1.374 . S
C2518 C2515 1.499 . S
C2518 C2519 1.373 . S
C2518 C2520 1.389 . S
C2519 H2498 0.950 . S
C2519 C2518 1.373 . S
C2519 C2535 1.377 . S
C2520 C2518 1.389 . S
C2520 C2521 1.524 . S
C2520 C2534 1.377 . S
C2521 C2520 1.524 . S
C2521 C2522 1.397 1_545 S
C2521 C2526 1.363 . S
C2522 H2499 0.950 . S
C2522 C2521 1.397 1_565 S
C2522 C2523 1.334 . S
C2523 H2500 0.950 . S
C2523 C2522 1.334 . S
C2523 C2524 1.287 . S
C2524 C2523 1.287 . S
C2524 C2525 1.524 1_565 S
C2524 H2543 0.913 . S
C2525 H2501 0.950 . S
C2525 C2524 1.524 1_545 S
C2525 C2526 1.415 . S
C2526 H2502 0.950 . S
C2526 C2521 1.363 . S
C2526 C2525 1.415 . S
C2527 H2503 0.951 1_545 S
C2527 C2528 1.366 . S
C2527 C2529 1.388 . S
C2528 C2527 1.366 . S
C2528 C2532 1.385 . S
C2529 H2504 0.951 1_545 S
C2529 C2527 1.388 . S
C2529 C2530 1.366 . S
C2530 C2529 1.366 . S
C2530 C2531 1.414 . S
C2530 C2533 1.499 . S
C2531 H2505 0.950 . S
C2531 C2530 1.414 . S
C2531 C2532 1.374 . S
C2532 H2506 0.950 . S
C2532 C2528 1.385 . S
C2532 C2531 1.374 . S
C2533 C2530 1.499 . S
C2533 C2534 1.373 . S
C2533 C2535 1.389 . S
C2534 H2507 0.950 . S
C2534 C2520 1.377 . S
C2534 C2533 1.373 . S
C2535 C2519 1.377 . S
C2535 C2533 1.389 . S
C2535 C2536 1.524 . S
C2536 C2535 1.524 . S
C2536 C2537 1.397 . S
C2536 C2541 1.363 . S
C2537 H2508 0.950 . S
C2537 C2536 1.397 . S
C2537 C2538 1.334 . S
C2538 H2509 0.950 . S
C2538 C2537 1.334 . S
C2538 C2539 1.287 . S
C2539 C2538 1.287 . S
C2539 C2540 1.524 . S
C2539 H2542 0.999 . S
C2540 H2510 0.950 1_545 S
C2540 C2539 1.524 . S
C2540 C2541 1.415 . S
C2541 H2511 0.950 1_545 S
C2541 C2536 1.363 . S
C2541 C2540 1.415 . S
H2542 C2539 0.999 . S
H2543 C2524 0.913 . S
C563 C5 1.931 . S
C578 C243 1.931 . S
C613 C141 1.931 . S
C628 C39 1.931 . S
C663 C73 1.931 . S
C678 C175 1.931 . S
C713 C107 1.931 . S
C728 C209 1.931 . S
C763 C281 1.334 . S
C778 C519 1.335 . S
C813 C315 1.334 . S
C828 C417 1.335 . S
C863 C349 1.334 . S
C878 C451 1.335 . S
C913 C485 1.335 . S
C928 C383 1.335 . S
C963 C33 1.910 . S
C978 C101 1.911 . S
C1013 C135 1.910 . S
C1028 C67 1.910 . S
C1063 C237 1.910 . S
C1078 C169 1.910 . S
C1113 C203 1.911 . S
C1128 C271 1.911 . S
C1163 C373 1.189 . S
C1178 C305 1.189 . S
C1213 C407 1.189 . S
C1228 C339 1.189 . S
C1263 C509 1.189 . S
C1278 C441 1.189 . S
C1313 C543 1.189 . S
C1328 C475 1.189 . S
C1363 C410 0.348 . S
C1378 C20 0.228 . S
C1413 C444 0.348 . S
C1428 C54 0.228 . S
C1463 C88 0.228 . S
C1478 C478 0.349 . S
C1513 C512 0.348 . S
C1528 C122 0.228 . S
C1563 C156 0.227 . S
C1578 C274 0.350 . S
C1613 C308 0.348 . S
C1628 C190 0.228 . S
C1663 C224 0.227 . S
C1678 C342 0.349 . S
C1713 C258 0.227 . S
C1728 C376 0.350 . S
C1763 C138 0.363 . S
C1778 C292 0.278 . S
C1813 C172 0.363 . S
C1828 C326 0.278 . S
C1863 C206 0.361 . S
C1878 C360 0.278 . S
C1913 C240 0.364 . S
C1928 C394 0.278 . S
C1963 C2 0.363 . S
C1978 C428 0.278 . S
C2013 C36 0.363 . S
C2028 C462 0.278 . S
C2063 C70 0.364 . S
C2078 C496 0.278 . S
C2113 C530 0.277 . S
C2128 C104 0.364 . S
C2163 C277 1.669 . S
C2178 C9 1.623 . S
C2213 C43 1.623 . S
C2228 C311 1.669 . S
C2263 C77 1.622 1_455 S
C2278 C345 1.669 . S
C2313 C379 1.669 . S
C2328 C111 1.623 1_545 S
C2363 C145 1.623 . S
C2378 C413 1.669 . S
C2413 C179 1.623 . S
C2428 C447 1.669 . S
C2463 C481 1.669 . S
C2478 C213 1.623 1_455 S
C2513 C247 1.623 1_545 S
C2528 C515 1.669 . S
