# Generated by pormake.
# Topology sml, (6)-cn, num edge types: 1
# Building blocks:
#     Node 0, Type 0, BuildingBlock: INOVEN_clean_sbu_0, # of connection points: 6
#     Node 1, Type 0, BuildingBlock: INOVEN_clean_sbu_0, # of connection points: 6
#     Node 2, Type 0, BuildingBlock: INOVEN_clean_sbu_0, # of connection points: 6
#     Node 3, Type 0, BuildingBlock: INOVEN_clean_sbu_0, # of connection points: 6
#     Node 4, Type 0, BuildingBlock: INOVEN_clean_sbu_0, # of connection points: 6
#     Node 5, Type 0, BuildingBlock: INOVEN_clean_sbu_0, # of connection points: 6
#     Edge 6, Type (0, 0), BuildingBlock: EZIPEK_clean_linker_0, # of connection points: 2
#     Edge 7, Type (0, 0), BuildingBlock: EZIPEK_clean_linker_0, # of connection points: 2
#     Edge 8, Type (0, 0), BuildingBlock: EZIPEK_clean_linker_0, # of connection points: 2
#     Edge 9, Type (0, 0), BuildingBlock: EZIPEK_clean_linker_0, # of connection points: 2
#     Edge 10, Type (0, 0), BuildingBlock: EZIPEK_clean_linker_0, # of connection points: 2
#     Edge 11, Type (0, 0), BuildingBlock: EZIPEK_clean_linker_0, # of connection points: 2
#     Edge 12, Type (0, 0), BuildingBlock: EZIPEK_clean_linker_0, # of connection points: 2
#     Edge 13, Type (0, 0), BuildingBlock: EZIPEK_clean_linker_0, # of connection points: 2
#     Edge 14, Type (0, 0), BuildingBlock: EZIPEK_clean_linker_0, # of connection points: 2
#     Edge 15, Type (0, 0), BuildingBlock: EZIPEK_clean_linker_0, # of connection points: 2
#     Edge 16, Type (0, 0), BuildingBlock: EZIPEK_clean_linker_0, # of connection points: 2
#     Edge 17, Type (0, 0), BuildingBlock: EZIPEK_clean_linker_0, # of connection points: 2
#     Edge 18, Type (0, 0), BuildingBlock: EZIPEK_clean_linker_0, # of connection points: 2
#     Edge 19, Type (0, 0), BuildingBlock: EZIPEK_clean_linker_0, # of connection points: 2
#     Edge 20, Type (0, 0), BuildingBlock: EZIPEK_clean_linker_0, # of connection points: 2
#     Edge 21, Type (0, 0), BuildingBlock: EZIPEK_clean_linker_0, # of connection points: 2
#     Edge 22, Type (0, 0), BuildingBlock: EZIPEK_clean_linker_0, # of connection points: 2
#     Edge 23, Type (0, 0), BuildingBlock: EZIPEK_clean_linker_0, # of connection points: 2
# Relax obj value: 0.273
# Max RMSD: 0.282
# Mean RMSD: 0.282
data_MOF--net-sml--node1-INOVEN_clean_sbu_0--edge1-EZIPEK_clean_linker_0
_symmetry_space_group_name_H-M    P1
_symmetry_Int_Tables_number       1
_symmetry_cell_setting            triclinic
loop_
_symmetry_equiv_pos_as_xyz
'x, y, z'
_cell_length_a     22.118206
_cell_length_b     22.043111
_cell_length_c     20.330185
_cell_angle_alpha  90.444073
_cell_angle_beta   89.670259
_cell_angle_gamma 120.35082
loop_
_atom_site_label
_atom_site_type_symbol
_atom_site_fract_x
_atom_site_fract_y
_atom_site_fract_z
_atom_type_partial_charge
Gd0 Gd 0.15648 0.40063 1.00051 0.0
Gd1 Gd 0.25362 0.39744 0.10643 0.0
C2 C 0.21999 0.29453 0.98629 0.0
C3 C 0.10847 0.41211 0.88814 0.0
C4 C 0.12311 0.40783 0.81767 0.0
C5 C 0.13356 0.35406 0.79275 0.0
C6 C 0.13139 0.46156 0.77537 0.0
C7 C 0.16598 0.41149 0.68593 0.0
C8 C 0.15295 0.46363 0.71019 0.0
C9 C 0.15487 0.35595 0.72731 0.0
C10 C 0.08855 0.32772 0.10838 0.0
C11 C 0.18934 0.50288 0.12181 0.0
C12 C 0.30847 0.39362 0.21726 0.0
C13 C 0.29467 0.40283 0.28709 0.0
C14 C 0.31139 0.4692 0.31258 0.0
C15 C 0.26101 0.34385 0.32822 0.0
C16 C 0.25879 0.41646 0.41759 0.0
C17 C 0.2431 0.35058 0.3928 0.0
C18 C 0.29358 0.47588 0.37735 0.0
C19 C 0.3202 0.47089 0.99767 0.0
O20 O 0.18879 0.32597 0.95964 0.0
O21 O 0.24276 0.30682 0.04739 0.0
O22 O 0.07972 0.35383 0.92221 0.0
O23 O 0.15801 0.46563 0.92042 0.0
O24 O 0.0657 0.35879 0.07039 0.0
O25 O 0.14149 0.32886 0.08309 0.0
O26 O 0.21955 0.4706 0.14859 0.0
O27 O 0.16583 0.49055 0.06085 0.0
O28 O 0.33478 0.4494 0.17988 0.0
O29 O 0.25985 0.33712 0.18742 0.0
O30 O 0.34276 0.43801 0.03347 0.0
O31 O 0.26793 0.46901 1.025 0.0
H32 H 0.12772 0.31204 0.82429 0.0
H33 H 0.12287 0.50303 0.79336 0.0
H34 H 0.16064 0.50658 0.67894 0.0
H35 H 0.16419 0.31498 0.70935 0.0
H36 H 0.33709 0.51582 0.28231 0.0
H37 H 0.24714 0.29215 0.30995 0.0
H38 H 0.21649 0.30425 0.42337 0.0
H39 H 0.30576 0.52705 0.39574 0.0
Gd40 Gd 0.71818 0.16656 0.31433 0.0
Gd41 Gd 0.82038 0.25545 0.42521 0.0
C42 C 0.87915 0.21388 0.30191 0.0
C43 C 0.64162 0.12866 0.20952 0.0
C44 C 0.65826 0.13796 0.13811 0.0
C45 C 0.6873 0.10186 0.10567 0.0
C46 C 0.64887 0.18708 0.10249 0.0
C47 C 0.70161 0.16757 1.00531 0.0
C48 C 0.67061 0.20195 0.03693 0.0
C49 C 0.70848 0.11638 0.03979 0.0
C50 C 0.74359 0.09356 0.40663 0.0
C51 C 0.65373 0.20431 0.44009 0.0
C52 C 0.87911 0.30075 0.53831 0.0
C53 C 0.85368 0.28182 0.60671 0.0
C54 C 0.87479 0.33428 0.65526 0.0
C55 C 0.807 0.21145 0.62381 0.0
C56 C 0.80435 0.24605 0.73717 0.0
C57 C 0.78316 0.19366 0.68854 0.0
C58 C 0.85004 0.31659 0.71997 0.0
C59 C 0.82574 0.32651 0.31523 0.0
O60 O 0.82366 0.20498 0.26955 0.0
O61 O 0.88178 0.21739 0.36681 0.0
O62 O 0.65538 0.08598 0.24208 0.0
O63 O 0.65876 0.18642 0.24228 0.0
O64 O 0.73357 0.07671 0.34457 0.0
O65 O 0.73611 0.1457 0.41632 0.0
O66 O 0.71793 0.23828 0.4646 0.0
O67 O 0.63959 0.16796 0.38454 0.0
O68 O 0.85267 0.33223 0.50453 0.0
O69 O 0.88408 0.25278 0.50405 0.0
O70 O 0.87929 0.34622 0.35352 0.0
O71 O 0.77264 0.27725 0.34192 0.0
H72 H 0.69514 0.06356 0.13142 0.0
H73 H 0.62631 0.21543 0.12591 0.0
H74 H 0.66443 0.24127 1.01111 0.0
H75 H 0.732 0.08911 1.01615 0.0
H76 H 0.91022 0.3889 0.64306 0.0
H77 H 0.78877 0.17013 0.58712 0.0
H78 H 0.74773 0.13902 0.70067 0.0
H79 H 0.86671 0.35781 0.75672 0.0
Gd80 Gd 0.54744 0.73349 0.66056 0.0
Gd81 Gd 0.58325 0.84824 0.76665 0.0
C82 C 0.65156 0.89802 0.62375 0.0
C83 C 0.50606 0.66645 0.54965 0.0
C84 C 0.5152 0.68624 0.47919 0.0
C85 C 0.58145 0.73378 0.45278 0.0
C86 C 0.4562 0.65927 0.43812 0.0
C87 C 0.52894 0.72859 0.34629 0.0
C88 C 0.46299 0.67991 0.37217 0.0
C89 C 0.58816 0.75487 0.38699 0.0
C90 C 0.64547 0.74715 0.74548 0.0
C91 C 0.48058 0.68027 0.80057 0.0
C92 C 0.61047 0.91219 0.87935 0.0
C93 C 0.5966 0.88542 0.94784 0.0
C94 C 0.53293 0.82477 0.96471 0.0
C95 C 0.64753 0.91962 0.99682 0.0
C96 C 0.57168 0.83309 0.07783 0.0
C97 C 0.63506 0.89391 0.0614 0.0
C98 C 0.52075 0.79876 1.02898 0.0
C99 C 0.48479 0.83198 0.68034 0.0
O100 O 0.62544 0.83121 0.60921 0.0
O101 O 0.6477 0.92034 0.68378 0.0
O102 O 0.56117 0.67481 0.58148 0.0
O103 O 0.46848 0.68567 0.58438 0.0
O104 O 0.59734 0.68783 0.72004 0.0
O105 O 0.64106 0.79871 0.72339 0.0
O106 O 0.51879 0.74613 0.82043 0.0
O107 O 0.47771 0.66124 0.73839 0.0
O108 O 0.55541 0.89768 0.84417 0.0
O109 O 0.65683 0.90441 0.84596 0.0
O110 O 0.52367 0.88992 0.71241 0.0
O111 O 0.49356 0.78395 0.70361 0.0
H112 H 0.62789 0.75588 0.48326 0.0
H113 H 0.40469 0.62272 0.4574 0.0
H114 H 0.41676 0.65848 0.34153 0.0
H115 H 0.6395 0.79235 0.36796 0.0
H116 H 0.49243 0.79715 0.92826 0.0
H117 H 0.69708 0.96601 0.98502 0.0
H118 H 0.67502 0.92107 0.09846 0.0
H119 H 0.47151 0.75188 0.04067 0.0
Gd120 Gd 0.83349 0.57117 0.97414 0.0
Gd121 Gd 0.75456 0.61034 0.08 0.0
C122 C 0.78654 0.68619 0.94084 0.0
C123 C 0.85624 0.53199 0.86138 0.0
C124 C 0.8527 0.55206 0.79245 0.0
C125 C 0.90614 0.61575 0.76602 0.0
C126 C 0.79453 0.50831 0.75285 0.0
C127 C 0.843 0.59181 0.66261 0.0
C128 C 0.7893 0.52845 0.68896 0.0
C129 C 0.90174 0.63486 0.70152 0.0
C130 C 0.91512 0.6494 0.07321 0.0
C131 C 0.78793 0.48392 0.10841 0.0
C132 C 0.73783 0.65567 0.19254 0.0
C133 C 0.75758 0.65187 0.26181 0.0
C134 C 0.70658 0.60594 0.3068 0.0
C135 C 0.82742 0.69282 0.28357 0.0
C136 C 0.79516 0.63947 0.39207 0.0
C137 C 0.84597 0.68666 0.34797 0.0
C138 C 0.72524 0.59961 0.37115 0.0
C139 C 0.67158 0.5214 0.9859 0.0
O140 O 0.82831 0.66095 0.92855 0.0
O141 O 0.75433 0.678 0.99805 0.0
O142 O 0.90645 0.57965 0.89837 0.0
O143 O 0.79638 0.49686 0.89283 0.0
O144 O 0.93031 0.6113 0.03494 0.0
O145 O 0.86428 0.65356 0.04896 0.0
O146 O 0.75559 0.5184 0.12438 0.0
O147 O 0.81939 0.49201 0.05067 0.0
O148 O 0.6896 0.59676 0.16554 0.0
O149 O 0.78895 0.69454 0.15169 0.0
O150 O 0.65528 0.56174 1.01995 0.0
O151 O 0.72562 0.52436 1.01036 0.0
H152 H 0.95153 0.65103 0.79505 0.0
H153 H 0.75248 0.45894 0.7716 0.0
H154 H 0.74378 0.49404 0.65957 0.0
H155 H 0.94414 0.6835 0.68193 0.0
H156 H 0.6523 0.57423 0.29197 0.0
H157 H 0.86801 0.72934 0.25078 0.0
H158 H 0.9001 0.71828 0.36328 0.0
H159 H 0.68513 0.5634 0.40464 0.0
Gd160 Gd 0.24969 0.81922 0.3283 0.0
Gd161 Gd 0.14483 0.73242 0.43589 0.0
C162 C 0.08083 0.75252 0.30682 0.0
C163 C 0.31062 0.85927 0.21505 0.0
C164 C 0.28935 0.83281 0.14741 0.0
C165 C 0.32492 0.87597 0.0937 0.0
C166 C 0.23273 0.76461 0.13603 0.0
C167 C 0.24687 0.78357 1.01803 0.0
C168 C 0.21184 0.74003 0.07175 0.0
C169 C 0.30369 0.85157 1.02936 0.0
C170 C 0.24404 0.89761 0.42918 0.0
C171 C 0.31307 0.78979 0.45356 0.0
C172 C 0.08553 0.68608 0.54945 0.0
C173 C 0.11049 0.68553 0.61665 0.0
C174 C 0.06242 0.64708 0.66648 0.0
C175 C 0.18183 0.72645 0.63262 0.0
C176 C 0.155 0.7008 0.74848 0.0
C177 C 0.20389 0.73482 0.69801 0.0
C178 C 0.08452 0.65451 0.73208 0.0
C179 C 0.15801 0.65517 0.33821 0.0
O180 O 0.14277 0.77151 0.28076 0.0
O181 O 0.06936 0.74299 0.37074 0.0
O182 O 0.27656 0.88689 0.24302 0.0
O183 O 0.31969 0.81786 0.25441 0.0
O184 O 0.29867 0.9165 0.39235 0.0
O185 O 0.19209 0.84318 0.40489 0.0
O186 O 0.24917 0.76046 0.47798 0.0
O187 O 0.32753 0.81171 0.39228 0.0
O188 O 0.09312 0.64673 0.50566 0.0
O189 O 0.10203 0.74792 0.52641 0.0
O190 O 0.09942 0.63921 0.36719 0.0
O191 O 0.20631 0.71111 0.36354 0.0
H192 H 0.36855 0.92874 0.10155 0.0
H193 H 0.20424 0.73069 0.17685 0.0
H194 H 0.16759 0.68763 0.0639 0.0
H195 H 0.33096 0.88597 0.98841 0.0
H196 H 0.00762 0.61292 0.6548 0.0
H197 H 0.22036 0.75391 0.59504 0.0
H198 H 0.2587 0.76985 0.70945 0.0
H199 H 0.0464 0.62652 0.77036 0.0
Gd200 Gd 0.41451 0.27276 0.64579 0.0
Gd201 Gd 0.3845 0.16111 0.75434 0.0
C202 C 0.29753 0.10639 0.62133 0.0
C203 C 0.4443 0.33721 0.53462 0.0
C204 C 0.44066 0.31451 0.46517 0.0
C205 C 0.37913 0.29151 0.42828 0.0
C206 C 0.49811 0.31395 0.43548 0.0
C207 C 0.43161 0.26576 0.33496 0.0
C208 C 0.49356 0.28971 0.3709 0.0
C209 C 0.37455 0.26688 0.36391 0.0
C210 C 0.33092 0.26811 0.74554 0.0
C211 C 0.50285 0.32692 0.77755 0.0
C212 C 0.35941 0.09572 0.8648 0.0
C213 C 0.37039 0.11734 0.93496 0.0
C214 C 0.42456 0.11706 0.97073 0.0
C215 C 0.32807 0.13955 0.96663 0.0
C216 C 0.39511 0.16259 0.06722 0.0
C217 C 0.34039 0.16195 0.03218 0.0
C218 C 0.43701 0.13978 0.03629 0.0
C219 C 0.46967 0.16897 0.65491 0.0
O220 O 0.34528 0.16743 0.59604 0.0
O221 O 0.29717 0.0937 0.68495 0.0
O222 O 0.38447 0.31544 0.56516 0.0
O223 O 0.49131 0.33475 0.57167 0.0
O224 O 0.37033 0.32433 0.71146 0.0
O225 O 0.33219 0.21659 0.71975 0.0
O226 O 0.45501 0.26639 0.80367 0.0
O227 O 0.50468 0.33862 0.71364 0.0
O228 O 0.41607 0.11414 0.82995 0.0
O229 O 0.31201 0.10276 0.8327 0.0
O230 O 0.42982 0.1111 0.68666 0.0
O231 O 0.46683 0.21873 0.68217 0.0
H232 H 0.3341 0.2916 0.44939 0.0
H233 H 0.54645 0.33172 0.46227 0.0
H234 H 0.53812 0.28919 0.3491 0.0
H235 H 0.32638 0.24827 0.33667 0.0
H236 H 0.45777 0.09992 0.94777 0.0
H237 H 0.28575 0.14024 0.94078 0.0
H238 H 0.30751 0.17929 0.05552 0.0
H239 H 0.47954 0.14006 0.06276 0.0
C240 C 0.22933 0.21493 0.82621 0.0
C241 C 0.30006 0.26664 0.81145 0.0
C242 C 0.3187 0.29825 0.92783 0.0
C243 C 0.24603 0.26121 0.93922 0.0
N244 N 0.13036 0.18014 0.90039 0.0
N245 N 0.40375 0.37319 0.84939 0.0
C246 C 0.20079 0.2171 0.88886 0.0
C247 C 0.34276 0.31268 0.86243 0.0
N248 N 0.18869 0.16609 0.78002 0.0
N249 N 0.3649 0.32241 0.97889 0.0
H250 H 0.42053 0.39154 0.80223 0.0
H251 H 0.43207 0.41019 0.88594 0.0
H252 H 0.34892 0.30913 1.02757 0.0
H253 H 0.41897 0.34721 0.97163 0.0
H254 H 0.13951 0.12314 0.79048 0.0
H255 H 0.20526 0.16668 0.73182 0.0
H256 H 0.09318 0.15354 0.86386 0.0
H257 H 0.10959 0.17879 0.94701 0.0
C258 C 0.98127 0.22081 0.15122 0.0
C259 C 0.0461 0.28263 0.16369 0.0
C260 C 0.00755 0.29103 0.27422 0.0
C261 C 0.9419 0.22917 0.26237 0.0
N262 N 0.87507 0.12401 0.19747 0.0
N263 N 0.12936 0.35769 0.24433 0.0
C264 C 0.93192 0.19009 0.2034 0.0
C265 C 0.06196 0.31112 0.22773 0.0
N266 N 0.96601 0.19311 0.08914 0.0
N267 N 0.01722 0.33495 0.32588 0.0
H268 H 0.16987 0.36801 0.21216 0.0
H269 H 0.14488 0.37719 0.29188 0.0
H270 H 0.98218 0.32356 0.36435 0.0
H271 H 0.05901 0.38653 0.32721 0.0
H272 H 0.91638 0.15326 0.07495 0.0
H273 H 0.0028 0.21257 0.05107 0.0
H274 H 0.86728 0.09096 0.15755 0.0
H275 H 0.8394 0.09986 0.23587 0.0
C276 C 0.77116 0.0501 0.50969 0.0
C277 C 0.72363 0.04009 0.4585 0.0
C278 C 0.63478 0.93147 0.50978 0.0
C279 C 0.67815 0.94698 0.56676 0.0
N280 N 0.7878 0.02342 0.62146 0.0
N281 N 0.60469 0.9794 0.4179 0.0
C282 C 0.74633 0.00737 0.56709 0.0
C283 C 0.65422 0.98278 0.46036 0.0
N284 N 0.84055 0.09857 0.50215 0.0
N285 N 0.57377 0.8687 0.50231 0.0
H286 H 0.61461 0.0171 0.38236 0.0
H287 H 0.55146 0.94283 0.42233 0.0
H288 H 0.54863 0.83179 0.53899 0.0
H289 H 0.54798 0.85203 0.45734 0.0
H290 H 0.87923 0.10467 0.53496 0.0
H291 H 0.86021 0.12815 0.45944 0.0
H292 H 0.8342 0.07119 0.62762 0.0
H293 H 0.77419 0.99043 0.66207 0.0
C294 C 0.74096 0.79908 0.83278 0.0
C295 C 0.70573 0.75055 0.78147 0.0
C296 C 0.74241 0.67149 0.82463 0.0
C297 C 0.76621 0.71335 0.88334 0.0
N298 N 0.79335 0.82013 0.94134 0.0
N299 N 0.70705 0.66385 0.71076 0.0
C300 C 0.76767 0.77857 0.88664 0.0
C301 C 0.7181 0.69445 0.77164 0.0
N302 N 0.75516 0.86643 0.82642 0.0
N303 N 0.73609 0.60653 0.82119 0.0
H304 H 0.69527 0.68456 0.67001 0.0
H305 H 0.71792 0.62445 0.69838 0.0
H306 H 0.74616 0.58236 0.8597 0.0
H307 H 0.71131 0.57125 0.78275 0.0
H308 H 0.78566 0.90657 0.85954 0.0
H309 H 0.74378 0.88369 0.78311 0.0
H310 H 0.7877 0.86362 0.95014 0.0
H311 H 0.81808 0.80937 0.97925 0.0
C312 C 0.98135 0.65551 0.24792 0.0
C313 C 0.02143 0.72818 0.26011 0.0
C314 C 0.97719 0.74886 0.15671 0.0
C315 C 0.94936 0.67689 0.13875 0.0
N316 N 0.94581 0.567 0.16494 0.0
N317 N 0.05967 0.84617 0.22602 0.0
C318 C 0.95719 0.63159 0.18348 0.0
C319 C 0.01938 0.77558 0.21469 0.0
N320 N 0.96769 0.60884 0.29739 0.0
N321 N 0.96582 0.79229 0.11774 0.0
H322 H 0.08776 0.8664 0.26962 0.0
H323 H 0.06755 0.88413 0.19147 0.0
H324 H 0.94013 0.77671 0.07268 0.0
H325 H 0.97849 0.84284 0.132 0.0
H326 H 0.93454 0.55477 0.29174 0.0
H327 H 0.98131 0.6248 0.34601 0.0
H328 H 0.95768 0.53665 0.19533 0.0
H329 H 0.93162 0.54555 0.11827 0.0
C330 C 0.2496 0.05951 0.50666 0.0
C331 C 0.25412 0.0466 0.57455 0.0
C332 C 0.24198 0.93395 0.54714 0.0
C333 C 0.24 0.94589 0.47893 0.0
N334 N 0.22776 0.01433 0.39385 0.0
N335 N 0.2102 0.95389 0.65513 0.0
C336 C 0.23873 0.00686 0.45862 0.0
C337 C 0.23474 0.97772 0.59342 0.0
N338 N 0.2551 0.12166 0.48876 0.0
N339 N 0.2591 0.88648 0.56865 0.0
H340 H 0.19681 0.98196 0.68778 0.0
H341 H 0.19333 0.9023 0.66926 0.0
H342 H 0.2761 0.8618 0.5364 0.0
H343 H 0.26757 0.88135 0.61823 0.0
H344 H 0.26015 0.13873 0.44044 0.0
H345 H 0.25362 0.15604 0.52347 0.0
H346 H 0.2223 0.05527 0.37565 0.0
H347 H 0.2199 0.97666 0.35828 0.0
C348 C 0.14537 0.40394 0.56377 0.0
C349 C 0.19127 0.4154 0.617 0.0
C350 C 0.28348 0.43101 0.53894 0.0
C351 C 0.2383 0.4224 0.48608 0.0
N352 N 0.134 0.419 0.4475 0.0
N353 N 0.30823 0.45325 0.65532 0.0
C354 C 0.17156 0.41451 0.49834 0.0
C355 C 0.26166 0.4328 0.60459 0.0
N356 N 0.07602 0.38021 0.57552 0.0
N357 N 0.3469 0.43658 0.52632 0.0
H358 H 0.29396 0.45455 0.70379 0.0
H359 H 0.36191 0.47429 0.64918 0.0
H360 H 0.36571 0.43826 0.47879 0.0
H361 H 0.3795 0.43595 0.56265 0.0
H362 H 0.03865 0.36373 0.53838 0.0
H363 H 0.05444 0.37096 0.62268 0.0
H364 H 0.08822 0.42089 0.45396 0.0
H365 H 0.15272 0.42838 0.39935 0.0
C366 C 0.68014 0.1727 0.88431 0.0
C367 C 0.72805 0.18647 0.93639 0.0
C368 C 0.82532 0.2337 0.85694 0.0
C369 C 0.77834 0.22662 0.80611 0.0
N370 N 0.66295 0.20063 0.77337 0.0
N371 N 0.84788 0.24118 0.97403 0.0
C372 C 0.7062 0.19927 0.82038 0.0
C373 C 0.80116 0.22006 0.92321 0.0
N374 N 0.60968 0.13211 0.89541 0.0
N375 N 0.89243 0.25092 0.8417 0.0
H376 H 0.83275 0.23209 1.02328 0.0
H377 H 0.90181 0.27299 0.96778 0.0
H378 H 0.91206 0.26068 0.79378 0.0
H379 H 0.92674 0.24936 0.8756 0.0
H380 H 0.5724 0.11434 0.85811 0.0
H381 H 0.5886 0.11049 0.94118 0.0
H382 H 0.61145 0.18768 0.78258 0.0
H383 H 0.6803 0.22064 0.72634 0.0
C384 C 0.51539 0.80153 0.25859 0.0
C385 C 0.53638 0.75266 0.27658 0.0
C386 C 0.5822 0.75806 0.16482 0.0
C387 C 0.55872 0.80471 0.14616 0.0
N388 N 0.49385 0.86292 0.17128 0.0
N389 N 0.57796 0.67455 0.24469 0.0
C390 C 0.52244 0.82396 0.19192 0.0
C391 C 0.56654 0.72818 0.22902 0.0
N392 N 0.49106 0.82847 0.30581 0.0
N393 N 0.62058 0.7433 0.12141 0.0
H394 H 0.56713 0.65143 0.29108 0.0
H395 H 0.59256 0.64885 0.21057 0.0
H396 H 0.63068 0.76183 0.07322 0.0
H397 H 0.64623 0.71641 0.13407 0.0
H398 H 0.48262 0.8702 0.29791 0.0
H399 H 0.48344 0.81219 0.35466 0.0
H400 H 0.45999 0.87206 0.19976 0.0
H401 H 0.50012 0.88245 0.12361 0.0
C402 C 0.82608 0.66546 0.57775 0.0
C403 C 0.83914 0.6102 0.59277 0.0
C404 C 0.839 0.58557 0.47472 0.0
C405 C 0.81463 0.63263 0.46081 0.0
N406 N 0.78044 0.71466 0.49941 0.0
N407 N 0.85856 0.5171 0.55563 0.0
C408 C 0.80724 0.6721 0.51243 0.0
C409 C 0.84574 0.57009 0.54117 0.0
N410 N 0.83316 0.7127 0.62532 0.0
N411 N 0.85823 0.55763 0.42434 0.0
H412 H 0.87079 0.50844 0.60281 0.0
H413 H 0.85392 0.47956 0.52145 0.0
H414 H 0.85617 0.56996 0.37557 0.0
H415 H 0.88286 0.52845 0.43075 0.0
H416 H 0.83246 0.75863 0.6155 0.0
H417 H 0.84473 0.7089 0.67416 0.0
H418 H 0.76535 0.7377 0.536 0.0
H419 H 0.76874 0.72324 0.45196 0.0
C420 C 0.15773 0.76348 0.85312 0.0
C421 C 0.17668 0.71929 0.81846 0.0
C422 C 0.24459 0.71951 0.91391 0.0
C423 C 0.22147 0.75959 0.94984 0.0
N424 N 0.14664 0.8095 0.95833 0.0
N425 N 0.23033 0.64757 0.81762 0.0
C426 C 0.17514 0.77843 0.9208 0.0
C427 C 0.21799 0.69513 0.84939 0.0
N428 N 0.12595 0.79395 0.82056 0.0
N429 N 0.2934 0.70648 0.94087 0.0
H430 H 0.21318 0.62999 0.76981 0.0
H431 H 0.25256 0.62136 0.84032 0.0
H432 H 0.31264 0.72208 0.9885 0.0
H433 H 0.31838 0.68448 0.91482 0.0
H434 H 0.11825 0.83294 0.84113 0.0
H435 H 0.11262 0.785 0.77089 0.0
H436 H 0.1063 0.81698 0.94214 0.0
H437 H 0.15914 0.82265 1.00777 0.0
C438 C 0.44877 0.28756 0.21348 0.0
C439 C 0.42617 0.23948 0.26657 0.0
C440 C 0.38352 0.14043 0.18908 0.0
C441 C 0.4091 0.18881 0.13614 0.0
N442 N 0.4775 0.30797 0.09737 0.0
N443 N 0.38196 0.12185 0.30687 0.0
C444 C 0.44519 0.26235 0.14822 0.0
C445 C 0.39661 0.16631 0.25492 0.0
N446 N 0.4716 0.357 0.22535 0.0
N447 N 0.34461 0.06987 0.17629 0.0
H448 H 0.38921 0.13878 0.35577 0.0
H449 H 0.36741 0.06917 0.30177 0.0
H450 H 0.33522 0.04892 0.12877 0.0
H451 H 0.31765 0.03221 0.21225 0.0
H452 H 0.48086 0.39316 0.18841 0.0
H453 H 0.47656 0.37777 0.27262 0.0
H454 H 0.51079 0.36184 0.10374 0.0
H455 H 0.47587 0.29131 0.0489 0.0
C456 C 0.11232 0.52697 0.19398 0.0
C457 C 0.17911 0.55101 0.1657 0.0
C458 C 0.23404 0.63537 0.25618 0.0
C459 C 0.16672 0.61308 0.28402 0.0
N460 N 0.0479 0.51498 0.29378 0.0
N461 N 0.30121 0.63768 0.16024 0.0
C462 C 0.10703 0.55289 0.25674 0.0
C463 C 0.23916 0.60852 0.19386 0.0
N464 N 0.05378 0.479 0.16086 0.0
N465 N 0.29314 0.67499 0.29255 0.0
H466 H 0.30564 0.61881 0.11425 0.0
H467 H 0.34567 0.68447 0.17423 0.0
H468 H 0.29161 0.68327 0.34282 0.0
H469 H 0.3434 0.68999 0.27613 0.0
H470 H 0.00303 0.46281 0.17643 0.0
H471 H 0.05586 0.46154 0.11368 0.0
H472 H 0.00457 0.4682 0.27807 0.0
H473 H 0.04614 0.52264 0.34413 0.0
C474 C 0.52689 0.14648 0.48158 0.0
C475 C 0.59714 0.20329 0.48212 0.0
C476 C 0.58101 0.23844 0.59195 0.0
C477 C 0.5133 0.17767 0.59566 0.0
N478 N 0.41939 0.07419 0.54297 0.0
N479 N 0.67196 0.32179 0.52029 0.0
C480 C 0.48531 0.13164 0.54003 0.0
C481 C 0.61808 0.25517 0.53189 0.0
N482 N 0.4987 0.1106 0.42426 0.0
N483 N 0.61252 0.27793 0.64688 0.0
H484 H 0.69616 0.33669 0.47432 0.0
H485 H 0.6858 0.36364 0.55273 0.0
H486 H 0.59025 0.26486 0.69366 0.0
H487 H 0.66452 0.31875 0.64746 0.0
H488 H 0.44809 0.06831 0.41906 0.0
H489 H 0.52285 0.12905 0.37888 0.0
H490 H 0.39535 0.03777 0.50534 0.0
H491 H 0.38814 0.06022 0.58466 0.0
C492 C 0.4289 0.58321 0.9643 0.0
C493 C 0.36386 0.52337 0.94735 0.0
C494 C 0.37216 0.57088 0.83769 0.0
C495 C 0.44098 0.62611 0.85112 0.0
N496 N 0.54188 0.6725 0.92343 0.0
N497 N 0.28955 0.45002 0.86007 0.0
C498 C 0.47163 0.6291 0.9135 0.0
C499 C 0.33985 0.51422 0.88188 0.0
N500 N 0.44952 0.59711 1.02852 0.0
N501 N 0.33599 0.57301 0.78449 0.0
H502 H 0.272 0.4055 0.8885 0.0
H503 H 0.27501 0.43983 0.81098 0.0
H504 H 0.35532 0.61553 0.75262 0.0
H505 H 0.28327 0.53613 0.77728 0.0
H506 H 0.49353 0.64372 0.04369 0.0
H507 H 0.41928 0.56517 0.06718 0.0
H508 H 0.56707 0.67211 0.96645 0.0
H509 H 0.57649 0.70227 0.8861 0.0
C510 C 0.79126 0.41251 0.27876 0.0
C511 C 0.82081 0.37038 0.26352 0.0
C512 C 0.81265 0.38895 0.14642 0.0
C513 C 0.79513 0.4412 0.16154 0.0
N514 N 0.79113 0.51689 0.24761 0.0
N515 N 0.87798 0.33513 0.18342 0.0
C516 C 0.78988 0.45655 0.22928 0.0
C517 C 0.83732 0.36369 0.19749 0.0
N518 N 0.76819 0.41365 0.34103 0.0
N519 N 0.80301 0.36086 0.0847 0.0
H520 H 0.90316 0.32403 0.2204 0.0
H521 H 0.89477 0.33283 0.13591 0.0
H522 H 0.77674 0.37101 0.04791 0.0
H523 H 0.81189 0.31987 0.07331 0.0
H524 H 0.73799 0.43643 0.35235 0.0
H525 H 0.77531 0.38808 0.38055 0.0
H526 H 0.78153 0.52705 0.29519 0.0
H527 H 0.81311 0.56176 0.21863 0.0
C528 C 0.35523 0.74435 0.54176 0.0
C529 C 0.36851 0.80143 0.50099 0.0
C530 C 0.46152 0.882 0.57649 0.0
C531 C 0.44217 0.82483 0.62094 0.0
N532 N 0.35285 0.70811 0.65357 0.0
N533 N 0.43004 0.92661 0.48228 0.0
C534 C 0.38408 0.75774 0.6057 0.0
C535 C 0.42058 0.8708 0.51896 0.0
N536 N 0.31392 0.67702 0.51954 0.0
N537 N 0.52069 0.94604 0.58625 0.0
H538 H 0.40714 0.92157 0.43666 0.0
H539 H 0.45942 0.97859 0.49789 0.0
H540 H 0.55554 0.9587 0.62472 0.0
H541 H 0.54091 0.98609 0.55159 0.0
H542 H 0.30712 0.63333 0.54542 0.0
H543 H 0.29297 0.6658 0.47212 0.0
H544 H 0.30683 0.66027 0.64587 0.0
H545 H 0.36712 0.7187 0.70293 0.0
C546 C 0.59841 0.49446 0.88187 0.0
C547 C 0.62809 0.47226 0.93169 0.0
C548 C 0.58589 0.36008 0.87249 0.0
C549 C 0.55505 0.38158 0.82365 0.0
N550 N 0.55153 0.47847 0.77195 0.0
N551 N 0.6307 0.37523 0.98324 0.0
C552 C 0.56713 0.4514 0.82524 0.0
C553 C 0.61729 0.40295 0.92906 0.0
N554 N 0.59754 0.55577 0.88887 0.0
N555 N 0.58838 0.29988 0.86299 0.0
H556 H 0.64744 0.40192 1.02796 0.0
H557 H 0.61644 0.32256 0.98694 0.0
H558 H 0.5689 0.26893 0.8207 0.0
H559 H 0.61677 0.28503 0.89286 0.0
H560 H 0.56626 0.56807 0.86034 0.0
H561 H 0.62485 0.59348 0.92474 0.0
H562 H 0.56908 0.53182 0.76666 0.0
H563 H 0.52621 0.44984 0.73009 0.0
loop_
_geom_bond_atom_site_label_1
_geom_bond_atom_site_label_2
_geom_bond_distance
_geom_bond_site_symmetry_2
_ccdc_geom_bond_type
Gd0 C3 2.818 . S
Gd0 O20 2.377 . S
Gd0 O22 2.448 . S
Gd0 O23 2.506 . S
Gd0 O24 2.435 . S
Gd0 O25 2.717 1_556 S
Gd0 O27 2.395 1_556 S
Gd0 O31 2.327 . S
Gd1 C12 2.818 . S
Gd1 O21 2.395 1_554 S
Gd1 O25 2.327 . S
Gd1 O26 2.377 . S
Gd1 O28 2.448 . S
Gd1 O29 2.506 . S
Gd1 O30 2.435 . S
Gd1 O31 2.717 1_554 S
C2 O20 1.240 . S
C2 O21 1.240 . S
C3 Gd0 2.818 . S
C3 C4 1.510 . S
C3 O22 1.249 . S
C3 O23 1.252 . S
C4 C3 1.510 . S
C4 C5 1.404 . S
C4 C6 1.352 . S
C5 C4 1.404 . S
C5 C9 1.389 . S
C5 H32 0.930 1_455 S
C6 C4 1.352 . S
C6 C8 1.374 . S
C6 H33 0.931 . S
C7 C8 1.359 . S
C7 C9 1.364 . S
C8 C6 1.374 . S
C8 C7 1.359 . S
C8 H34 0.931 . S
C9 C5 1.389 . S
C9 C7 1.364 . S
C9 H35 0.931 1_455 S
C10 O24 1.256 1_554 S
C10 O25 1.257 . S
C11 O26 1.240 . S
C11 O27 1.240 . S
C12 Gd1 2.818 . S
C12 C13 1.510 . S
C12 O28 1.249 . S
C12 O29 1.252 . S
C13 C12 1.510 . S
C13 C14 1.404 . S
C13 C15 1.352 . S
C14 C13 1.404 . S
C14 C18 1.389 . S
C14 H36 0.930 . S
C15 C13 1.352 . S
C15 C17 1.374 . S
C15 H37 0.931 . S
C16 C17 1.359 . S
C16 C18 1.364 . S
C17 C15 1.374 . S
C17 C16 1.359 . S
C17 H38 0.931 . S
C18 C14 1.389 . S
C18 C16 1.364 . S
C18 H39 0.931 . S
C19 O30 1.256 1_556 S
C19 O31 1.257 . S
O20 Gd0 2.377 . S
O20 C2 1.240 . S
O21 Gd1 2.395 1_556 S
O21 C2 1.240 . S
O22 Gd0 2.448 . S
O22 C3 1.249 . S
O23 Gd0 2.506 . S
O23 C3 1.252 . S
O24 Gd0 2.435 . S
O24 C10 1.256 1_556 S
O25 Gd0 2.717 1_554 S
O25 Gd1 2.327 . S
O25 C10 1.257 . S
O26 Gd1 2.377 . S
O26 C11 1.240 . S
O27 Gd0 2.395 1_554 S
O27 C11 1.240 . S
O28 Gd1 2.448 . S
O28 C12 1.249 . S
O29 Gd1 2.506 . S
O29 C12 1.252 . S
O30 Gd1 2.435 . S
O30 C19 1.256 1_554 S
O31 Gd0 2.327 . S
O31 Gd1 2.717 1_556 S
O31 C19 1.257 . S
H32 C5 0.930 1_655 S
H33 C6 0.931 . S
H34 C8 0.931 . S
H35 C9 0.931 1_655 S
H36 C14 0.930 . S
H37 C15 0.931 . S
H38 C17 0.931 . S
H39 C18 0.931 . S
Gd40 C43 2.818 . S
Gd40 O60 2.377 . S
Gd40 O62 2.448 . S
Gd40 O63 2.506 . S
Gd40 O64 2.435 . S
Gd40 O65 2.717 . S
Gd40 O67 2.395 . S
Gd40 O71 2.327 . S
Gd41 C52 2.818 . S
Gd41 O61 2.395 . S
Gd41 O65 2.327 . S
Gd41 O66 2.377 . S
Gd41 O68 2.448 . S
Gd41 O69 2.506 . S
Gd41 O70 2.435 . S
Gd41 O71 2.717 . S
C42 O60 1.240 . S
C42 O61 1.240 . S
C43 Gd40 2.818 . S
C43 C44 1.510 . S
C43 O62 1.249 . S
C43 O63 1.252 . S
C44 C43 1.510 . S
C44 C45 1.404 . S
C44 C46 1.352 . S
C45 C44 1.404 . S
C45 C49 1.380 1_554 S
C45 H72 0.930 1_545 S
C46 C44 1.352 . S
C46 C48 1.374 1_554 S
C46 H73 0.931 . S
C47 C48 1.359 . S
C47 C49 1.370 . S
C48 C46 1.374 1_556 S
C48 C47 1.359 . S
C48 H74 0.931 . S
C49 C45 1.380 1_556 S
C49 C47 1.370 . S
C49 H75 0.935 1_545 S
C50 O64 1.256 . S
C50 O65 1.257 . S
C51 O66 1.240 . S
C51 O67 1.240 . S
C52 Gd41 2.818 . S
C52 C53 1.510 . S
C52 O68 1.249 . S
C52 O69 1.252 . S
C53 C52 1.510 . S
C53 C54 1.404 . S
C53 C55 1.352 . S
C54 C53 1.404 . S
C54 C58 1.389 . S
C54 H76 0.930 . S
C55 C53 1.352 . S
C55 C57 1.374 . S
C55 H77 0.931 . S
C56 C57 1.359 . S
C56 C58 1.364 . S
C57 C55 1.374 . S
C57 C56 1.359 . S
C57 H78 0.931 . S
C58 C54 1.389 . S
C58 C56 1.364 . S
C58 H79 0.931 . S
C59 O70 1.256 . S
C59 O71 1.257 . S
O60 Gd40 2.377 . S
O60 C42 1.240 . S
O61 Gd41 2.395 . S
O61 C42 1.240 . S
O62 Gd40 2.448 . S
O62 C43 1.249 . S
O63 Gd40 2.506 . S
O63 C43 1.252 . S
O64 Gd40 2.435 . S
O64 C50 1.256 . S
O65 Gd40 2.717 . S
O65 Gd41 2.327 . S
O65 C50 1.257 . S
O66 Gd41 2.377 . S
O66 C51 1.240 . S
O67 Gd40 2.395 . S
O67 C51 1.240 . S
O68 Gd41 2.448 . S
O68 C52 1.249 . S
O69 Gd41 2.506 . S
O69 C52 1.252 . S
O70 Gd41 2.435 . S
O70 C59 1.256 . S
O71 Gd40 2.327 . S
O71 Gd41 2.717 . S
O71 C59 1.257 . S
H72 C45 0.930 1_565 S
H73 C46 0.931 . S
H74 C48 0.931 . S
H75 C49 0.935 1_565 S
H76 C54 0.930 . S
H77 C55 0.931 . S
H78 C57 0.931 . S
H79 C58 0.931 . S
Gd80 C83 2.818 . S
Gd80 O100 2.377 . S
Gd80 O102 2.448 . S
Gd80 O103 2.506 . S
Gd80 O104 2.435 . S
Gd80 O105 2.717 . S
Gd80 O107 2.395 . S
Gd80 O111 2.327 . S
Gd81 C92 2.818 . S
Gd81 O101 2.395 . S
Gd81 O105 2.327 . S
Gd81 O106 2.377 . S
Gd81 O108 2.448 . S
Gd81 O109 2.506 . S
Gd81 O110 2.435 . S
Gd81 O111 2.717 . S
C82 O100 1.240 . S
C82 O101 1.240 . S
C83 Gd80 2.818 . S
C83 C84 1.510 . S
C83 O102 1.249 . S
C83 O103 1.252 . S
C84 C83 1.510 . S
C84 C85 1.404 . S
C84 C86 1.352 . S
C85 C84 1.404 . S
C85 C89 1.389 . S
C85 H112 0.930 . S
C86 C84 1.352 . S
C86 C88 1.374 . S
C86 H113 0.931 . S
C87 C88 1.359 . S
C87 C89 1.364 . S
C88 C86 1.374 . S
C88 C87 1.359 . S
C88 H114 0.931 . S
C89 C85 1.389 . S
C89 C87 1.364 . S
C89 H115 0.931 . S
C90 O104 1.256 . S
C90 O105 1.257 . S
C91 O106 1.240 . S
C91 O107 1.240 . S
C92 Gd81 2.818 . S
C92 C93 1.510 . S
C92 O108 1.249 . S
C92 O109 1.252 . S
C93 C92 1.510 . S
C93 C94 1.404 . S
C93 C95 1.352 . S
C94 C93 1.404 . S
C94 C98 1.389 1_556 S
C94 H116 0.930 . S
C95 C93 1.352 . S
C95 C97 1.374 1_556 S
C95 H117 0.931 . S
C96 C97 1.359 . S
C96 C98 1.364 . S
C97 C95 1.374 1_554 S
C97 C96 1.359 . S
C97 H118 0.931 . S
C98 C94 1.389 1_554 S
C98 C96 1.364 . S
C98 H119 0.931 . S
C99 O110 1.256 . S
C99 O111 1.257 . S
O100 Gd80 2.377 . S
O100 C82 1.240 . S
O101 Gd81 2.395 . S
O101 C82 1.240 . S
O102 Gd80 2.448 . S
O102 C83 1.249 . S
O103 Gd80 2.506 . S
O103 C83 1.252 . S
O104 Gd80 2.435 . S
O104 C90 1.256 . S
O105 Gd80 2.717 . S
O105 Gd81 2.327 . S
O105 C90 1.257 . S
O106 Gd81 2.377 . S
O106 C91 1.240 . S
O107 Gd80 2.395 . S
O107 C91 1.240 . S
O108 Gd81 2.448 . S
O108 C92 1.249 . S
O109 Gd81 2.506 . S
O109 C92 1.252 . S
O110 Gd81 2.435 . S
O110 C99 1.256 . S
O111 Gd80 2.327 . S
O111 Gd81 2.717 . S
O111 C99 1.257 . S
H112 C85 0.930 . S
H113 C86 0.931 . S
H114 C88 0.931 . S
H115 C89 0.931 . S
H116 C94 0.930 . S
H117 C95 0.931 . S
H118 C97 0.931 . S
H119 C98 0.931 . S
Gd120 C123 2.818 . S
Gd120 O140 2.377 . S
Gd120 O142 2.448 . S
Gd120 O143 2.506 . S
Gd120 O144 2.435 . S
Gd120 O145 2.717 1_556 S
Gd120 O147 2.395 1_556 S
Gd120 O151 2.327 . S
Gd121 C132 2.818 . S
Gd121 O141 2.395 1_554 S
Gd121 O145 2.327 . S
Gd121 O146 2.377 . S
Gd121 O148 2.448 . S
Gd121 O149 2.506 . S
Gd121 O150 2.435 . S
Gd121 O151 2.717 1_554 S
C122 O140 1.240 . S
C122 O141 1.240 . S
C123 Gd120 2.818 . S
C123 C124 1.510 . S
C123 O142 1.249 . S
C123 O143 1.252 . S
C124 C123 1.510 . S
C124 C125 1.404 . S
C124 C126 1.352 . S
C125 C124 1.404 . S
C125 C129 1.389 . S
C125 H152 0.930 1_655 S
C126 C124 1.352 . S
C126 C128 1.374 . S
C126 H153 0.931 . S
C127 C128 1.359 . S
C127 C129 1.364 . S
C128 C126 1.374 . S
C128 C127 1.359 . S
C128 H154 0.931 . S
C129 C125 1.389 . S
C129 C127 1.364 . S
C129 H155 0.931 1_655 S
C130 O144 1.256 1_554 S
C130 O145 1.257 . S
C131 O146 1.240 . S
C131 O147 1.240 . S
C132 Gd121 2.818 . S
C132 C133 1.510 . S
C132 O148 1.249 . S
C132 O149 1.252 . S
C133 C132 1.510 . S
C133 C134 1.404 . S
C133 C135 1.352 . S
C134 C133 1.404 . S
C134 C138 1.389 . S
C134 H156 0.930 . S
C135 C133 1.352 . S
C135 C137 1.374 . S
C135 H157 0.931 . S
C136 C137 1.359 . S
C136 C138 1.364 . S
C137 C135 1.374 . S
C137 C136 1.359 . S
C137 H158 0.931 . S
C138 C134 1.389 . S
C138 C136 1.364 . S
C138 H159 0.931 . S
C139 O150 1.256 1_556 S
C139 O151 1.257 . S
O140 Gd120 2.377 . S
O140 C122 1.240 . S
O141 Gd121 2.395 1_556 S
O141 C122 1.240 . S
O142 Gd120 2.448 . S
O142 C123 1.249 . S
O143 Gd120 2.506 . S
O143 C123 1.252 . S
O144 Gd120 2.435 . S
O144 C130 1.256 1_556 S
O145 Gd120 2.717 1_554 S
O145 Gd121 2.327 . S
O145 C130 1.257 . S
O146 Gd121 2.377 . S
O146 C131 1.240 . S
O147 Gd120 2.395 1_554 S
O147 C131 1.240 . S
O148 Gd121 2.448 . S
O148 C132 1.249 . S
O149 Gd121 2.506 . S
O149 C132 1.252 . S
O150 Gd121 2.435 . S
O150 C139 1.256 1_554 S
O151 Gd120 2.327 . S
O151 Gd121 2.717 1_556 S
O151 C139 1.257 . S
H152 C125 0.930 1_455 S
H153 C126 0.931 . S
H154 C128 0.931 . S
H155 C129 0.931 1_455 S
H156 C134 0.930 . S
H157 C135 0.931 . S
H158 C137 0.931 . S
H159 C138 0.931 . S
Gd160 C163 2.818 . S
Gd160 O180 2.377 . S
Gd160 O182 2.448 . S
Gd160 O183 2.506 . S
Gd160 O184 2.435 . S
Gd160 O185 2.717 . S
Gd160 O187 2.395 . S
Gd160 O191 2.327 . S
Gd161 C172 2.818 . S
Gd161 O181 2.395 . S
Gd161 O185 2.327 . S
Gd161 O186 2.377 . S
Gd161 O188 2.448 . S
Gd161 O189 2.506 . S
Gd161 O190 2.435 . S
Gd161 O191 2.717 . S
C162 O180 1.240 . S
C162 O181 1.240 . S
C163 Gd160 2.818 . S
C163 C164 1.510 . S
C163 O182 1.249 . S
C163 O183 1.252 . S
C164 C163 1.510 . S
C164 C165 1.404 . S
C164 C166 1.352 . S
C165 C164 1.404 . S
C165 C169 1.380 1_554 S
C165 H192 0.930 1_565 S
C166 C164 1.352 . S
C166 C168 1.374 1_554 S
C166 H193 0.931 . S
C167 C168 1.359 . S
C167 C169 1.370 . S
C168 C166 1.374 1_556 S
C168 C167 1.359 . S
C168 H194 0.931 . S
C169 C165 1.380 1_556 S
C169 C167 1.370 . S
C169 H195 0.935 1_565 S
C170 O184 1.256 . S
C170 O185 1.257 . S
C171 O186 1.240 . S
C171 O187 1.240 . S
C172 Gd161 2.818 . S
C172 C173 1.510 . S
C172 O188 1.249 . S
C172 O189 1.252 . S
C173 C172 1.510 . S
C173 C174 1.404 . S
C173 C175 1.352 . S
C174 C173 1.404 . S
C174 C178 1.389 . S
C174 H196 0.930 . S
C175 C173 1.352 . S
C175 C177 1.374 . S
C175 H197 0.931 . S
C176 C177 1.359 . S
C176 C178 1.364 . S
C177 C175 1.374 . S
C177 C176 1.359 . S
C177 H198 0.931 . S
C178 C174 1.389 . S
C178 C176 1.364 . S
C178 H199 0.931 . S
C179 O190 1.256 . S
C179 O191 1.257 . S
O180 Gd160 2.377 . S
O180 C162 1.240 . S
O181 Gd161 2.395 . S
O181 C162 1.240 . S
O182 Gd160 2.448 . S
O182 C163 1.249 . S
O183 Gd160 2.506 . S
O183 C163 1.252 . S
O184 Gd160 2.435 . S
O184 C170 1.256 . S
O185 Gd160 2.717 . S
O185 Gd161 2.327 . S
O185 C170 1.257 . S
O186 Gd161 2.377 . S
O186 C171 1.240 . S
O187 Gd160 2.395 . S
O187 C171 1.240 . S
O188 Gd161 2.448 . S
O188 C172 1.249 . S
O189 Gd161 2.506 . S
O189 C172 1.252 . S
O190 Gd161 2.435 . S
O190 C179 1.256 . S
O191 Gd160 2.327 . S
O191 Gd161 2.717 . S
O191 C179 1.257 . S
H192 C165 0.930 1_545 S
H193 C166 0.931 . S
H194 C168 0.931 . S
H195 C169 0.935 1_545 S
H196 C174 0.930 . S
H197 C175 0.931 . S
H198 C177 0.931 . S
H199 C178 0.931 . S
Gd200 C203 2.818 . S
Gd200 O220 2.377 . S
Gd200 O222 2.448 . S
Gd200 O223 2.506 . S
Gd200 O224 2.435 . S
Gd200 O225 2.717 . S
Gd200 O227 2.395 . S
Gd200 O231 2.327 . S
Gd201 C212 2.818 . S
Gd201 O221 2.395 . S
Gd201 O225 2.327 . S
Gd201 O226 2.377 . S
Gd201 O228 2.448 . S
Gd201 O229 2.506 . S
Gd201 O230 2.435 . S
Gd201 O231 2.717 . S
C202 O220 1.240 . S
C202 O221 1.240 . S
C203 Gd200 2.818 . S
C203 C204 1.510 . S
C203 O222 1.249 . S
C203 O223 1.252 . S
C204 C203 1.510 . S
C204 C205 1.404 . S
C204 C206 1.352 . S
C205 C204 1.404 . S
C205 C209 1.389 . S
C205 H232 0.930 . S
C206 C204 1.352 . S
C206 C208 1.374 . S
C206 H233 0.931 . S
C207 C208 1.359 . S
C207 C209 1.364 . S
C208 C206 1.374 . S
C208 C207 1.359 . S
C208 H234 0.931 . S
C209 C205 1.389 . S
C209 C207 1.364 . S
C209 H235 0.931 . S
C210 O224 1.256 . S
C210 O225 1.257 . S
C211 O226 1.240 . S
C211 O227 1.240 . S
C212 Gd201 2.818 . S
C212 C213 1.510 . S
C212 O228 1.249 . S
C212 O229 1.252 . S
C213 C212 1.510 . S
C213 C214 1.404 . S
C213 C215 1.352 . S
C214 C213 1.404 . S
C214 C218 1.389 1_556 S
C214 H236 0.930 . S
C215 C213 1.352 . S
C215 C217 1.374 1_556 S
C215 H237 0.931 . S
C216 C217 1.359 . S
C216 C218 1.364 . S
C217 C215 1.374 1_554 S
C217 C216 1.359 . S
C217 H238 0.931 . S
C218 C214 1.389 1_554 S
C218 C216 1.364 . S
C218 H239 0.931 . S
C219 O230 1.256 . S
C219 O231 1.257 . S
O220 Gd200 2.377 . S
O220 C202 1.240 . S
O221 Gd201 2.395 . S
O221 C202 1.240 . S
O222 Gd200 2.448 . S
O222 C203 1.249 . S
O223 Gd200 2.506 . S
O223 C203 1.252 . S
O224 Gd200 2.435 . S
O224 C210 1.256 . S
O225 Gd200 2.717 . S
O225 Gd201 2.327 . S
O225 C210 1.257 . S
O226 Gd201 2.377 . S
O226 C211 1.240 . S
O227 Gd200 2.395 . S
O227 C211 1.240 . S
O228 Gd201 2.448 . S
O228 C212 1.249 . S
O229 Gd201 2.506 . S
O229 C212 1.252 . S
O230 Gd201 2.435 . S
O230 C219 1.256 . S
O231 Gd200 2.327 . S
O231 Gd201 2.717 . S
O231 C219 1.257 . S
H232 C205 0.930 . S
H233 C206 0.931 . S
H234 C208 0.931 . S
H235 C209 0.931 . S
H236 C214 0.930 . S
H237 C215 0.931 . S
H238 C217 0.931 . S
H239 C218 0.931 . S
C240 C241 1.363 . S
C240 C246 1.379 . S
C240 N248 1.356 . S
C241 C240 1.363 . S
C241 C247 1.363 . S
C242 C243 1.363 . S
C242 C247 1.379 . S
C242 N249 1.356 . S
C243 C242 1.363 . S
C243 C246 1.363 . S
N244 C246 1.356 . S
N244 H256 0.984 . S
N244 H257 0.985 . S
N245 C247 1.356 . S
N245 H250 0.984 . S
N245 H251 0.985 . S
C246 C240 1.379 . S
C246 C243 1.363 . S
C246 N244 1.356 . S
C247 C241 1.363 . S
C247 C242 1.379 . S
C247 N245 1.356 . S
N248 C240 1.356 . S
N248 H254 0.984 . S
N248 H255 0.984 . S
N249 C242 1.356 . S
N249 H252 0.984 . S
N249 H253 0.985 . S
H250 N245 0.984 . S
H251 N245 0.985 . S
H252 N249 0.984 . S
H253 N249 0.985 . S
H254 N248 0.984 . S
H255 N248 0.984 . S
H256 N244 0.984 . S
H257 N244 0.985 . S
C258 C259 1.363 1_655 S
C258 C264 1.379 . S
C258 N266 1.356 . S
C259 C258 1.363 1_455 S
C259 C265 1.363 . S
C260 C261 1.363 1_455 S
C260 C265 1.379 . S
C260 N267 1.356 . S
C261 C260 1.363 1_655 S
C261 C264 1.363 . S
N262 C264 1.356 . S
N262 H274 0.984 . S
N262 H275 0.985 . S
N263 C265 1.356 . S
N263 H268 0.984 . S
N263 H269 0.985 . S
C264 C258 1.379 . S
C264 C261 1.363 . S
C264 N262 1.356 . S
C265 C259 1.363 . S
C265 C260 1.379 . S
C265 N263 1.356 . S
N266 C258 1.356 . S
N266 H272 0.984 . S
N266 H273 0.984 1_655 S
N267 C260 1.356 . S
N267 H270 0.984 1_455 S
N267 H271 0.985 . S
H268 N263 0.984 . S
H269 N263 0.985 . S
H270 N267 0.984 1_655 S
H271 N267 0.985 . S
H272 N266 0.984 . S
H273 N266 0.984 1_455 S
H274 N262 0.984 . S
H275 N262 0.985 . S
C276 C277 1.363 . S
C276 C282 1.379 . S
C276 N284 1.356 . S
C277 C276 1.363 . S
C277 C283 1.363 1_545 S
C278 C279 1.363 . S
C278 C283 1.379 . S
C278 N285 1.356 . S
C279 C278 1.363 . S
C279 C282 1.363 1_565 S
N280 C282 1.356 . S
N280 H292 0.984 . S
N280 H293 0.985 1_545 S
N281 C283 1.356 . S
N281 H286 0.984 . S
N281 H287 0.985 . S
C282 C276 1.379 . S
C282 C279 1.363 1_545 S
C282 N280 1.356 . S
C283 C277 1.363 1_565 S
C283 C278 1.379 . S
C283 N281 1.356 . S
N284 C276 1.356 . S
N284 H290 0.984 . S
N284 H291 0.984 . S
N285 C278 1.356 . S
N285 H288 0.984 . S
N285 H289 0.985 . S
H286 N281 0.984 . S
H287 N281 0.985 . S
H288 N285 0.984 . S
H289 N285 0.985 . S
H290 N284 0.984 . S
H291 N284 0.984 . S
H292 N280 0.984 . S
H293 N280 0.985 1_565 S
C294 C295 1.363 . S
C294 C300 1.379 . S
C294 N302 1.356 . S
C295 C294 1.363 . S
C295 C301 1.363 . S
C296 C297 1.363 . S
C296 C301 1.379 . S
C296 N303 1.356 . S
C297 C296 1.363 . S
C297 C300 1.363 . S
N298 C300 1.356 . S
N298 H310 0.984 . S
N298 H311 0.985 . S
N299 C301 1.356 . S
N299 H304 0.984 . S
N299 H305 0.985 . S
C300 C294 1.379 . S
C300 C297 1.363 . S
C300 N298 1.356 . S
C301 C295 1.363 . S
C301 C296 1.379 . S
C301 N299 1.356 . S
N302 C294 1.356 . S
N302 H308 0.984 . S
N302 H309 0.984 . S
N303 C296 1.356 . S
N303 H306 0.984 . S
N303 H307 0.985 . S
H304 N299 0.984 . S
H305 N299 0.985 . S
H306 N303 0.984 . S
H307 N303 0.985 . S
H308 N302 0.984 . S
H309 N302 0.984 . S
H310 N298 0.984 . S
H311 N298 0.985 . S
C312 C313 1.363 . S
C312 C318 1.379 1_455 S
C312 N320 1.356 . S
C313 C312 1.363 . S
C313 C319 1.363 . S
C314 C315 1.363 . S
C314 C319 1.379 1_655 S
C314 N321 1.356 . S
C315 C314 1.363 . S
C315 C318 1.363 . S
N316 C318 1.356 . S
N316 H328 0.984 . S
N316 H329 0.985 . S
N317 C319 1.356 . S
N317 H322 0.984 . S
N317 H323 0.985 . S
C318 C312 1.379 1_655 S
C318 C315 1.363 . S
C318 N316 1.356 . S
C319 C313 1.363 . S
C319 C314 1.379 1_455 S
C319 N317 1.356 . S
N320 C312 1.356 . S
N320 H326 0.984 . S
N320 H327 0.984 . S
N321 C314 1.356 . S
N321 H324 0.984 . S
N321 H325 0.985 . S
H322 N317 0.984 . S
H323 N317 0.985 . S
H324 N321 0.984 . S
H325 N321 0.985 . S
H326 N320 0.984 . S
H327 N320 0.984 . S
H328 N316 0.984 . S
H329 N316 0.985 . S
C330 C331 1.363 . S
C330 C336 1.379 . S
C330 N338 1.356 . S
C331 C330 1.363 . S
C331 C337 1.363 1_545 S
C332 C333 1.363 . S
C332 C337 1.379 . S
C332 N339 1.356 . S
C333 C332 1.363 . S
C333 C336 1.363 1_565 S
N334 C336 1.356 . S
N334 H346 0.984 . S
N334 H347 0.985 1_545 S
N335 C337 1.356 . S
N335 H340 0.984 1_565 S
N335 H341 0.985 . S
C336 C330 1.379 . S
C336 C333 1.363 1_545 S
C336 N334 1.356 . S
C337 C331 1.363 1_565 S
C337 C332 1.379 . S
C337 N335 1.356 . S
N338 C330 1.356 . S
N338 H344 0.984 . S
N338 H345 0.984 . S
N339 C332 1.356 . S
N339 H342 0.984 . S
N339 H343 0.985 . S
H340 N335 0.984 1_545 S
H341 N335 0.985 . S
H342 N339 0.984 . S
H343 N339 0.985 . S
H344 N338 0.984 . S
H345 N338 0.984 . S
H346 N334 0.984 . S
H347 N334 0.985 1_565 S
C348 C349 1.363 . S
C348 C354 1.379 . S
C348 N356 1.356 . S
C349 C348 1.363 . S
C349 C355 1.363 . S
C350 C351 1.363 . S
C350 C355 1.379 . S
C350 N357 1.356 . S
C351 C350 1.363 . S
C351 C354 1.363 . S
N352 C354 1.356 . S
N352 H364 0.984 . S
N352 H365 0.985 . S
N353 C355 1.356 . S
N353 H358 0.984 . S
N353 H359 0.985 . S
C354 C348 1.379 . S
C354 C351 1.363 . S
C354 N352 1.356 . S
C355 C349 1.363 . S
C355 C350 1.379 . S
C355 N353 1.356 . S
N356 C348 1.356 . S
N356 H362 0.984 . S
N356 H363 0.984 . S
N357 C350 1.356 . S
N357 H360 0.984 . S
N357 H361 0.985 . S
H358 N353 0.984 . S
H359 N353 0.985 . S
H360 N357 0.984 . S
H361 N357 0.985 . S
H362 N356 0.984 . S
H363 N356 0.984 . S
H364 N352 0.984 . S
H365 N352 0.985 . S
C366 C367 1.363 . S
C366 C372 1.379 . S
C366 N374 1.356 . S
C367 C366 1.363 . S
C367 C373 1.363 . S
C368 C369 1.363 . S
C368 C373 1.379 . S
C368 N375 1.356 . S
C369 C368 1.363 . S
C369 C372 1.363 . S
N370 C372 1.356 . S
N370 H382 0.984 . S
N370 H383 0.985 . S
N371 C373 1.356 . S
N371 H376 0.984 . S
N371 H377 0.985 . S
C372 C366 1.379 . S
C372 C369 1.363 . S
C372 N370 1.356 . S
C373 C367 1.363 . S
C373 C368 1.379 . S
C373 N371 1.356 . S
N374 C366 1.356 . S
N374 H380 0.984 . S
N374 H381 0.984 . S
N375 C368 1.356 . S
N375 H378 0.984 . S
N375 H379 0.985 . S
H376 N371 0.984 . S
H377 N371 0.985 . S
H378 N375 0.984 . S
H379 N375 0.985 . S
H380 N374 0.984 . S
H381 N374 0.984 . S
H382 N370 0.984 . S
H383 N370 0.985 . S
C384 C385 1.363 . S
C384 C390 1.379 . S
C384 N392 1.356 . S
C385 C384 1.363 . S
C385 C391 1.363 . S
C386 C387 1.363 . S
C386 C391 1.379 . S
C386 N393 1.356 . S
C387 C386 1.363 . S
C387 C390 1.363 . S
N388 C390 1.356 . S
N388 H400 0.984 . S
N388 H401 0.985 . S
N389 C391 1.356 . S
N389 H394 0.984 . S
N389 H395 0.985 . S
C390 C384 1.379 . S
C390 C387 1.363 . S
C390 N388 1.356 . S
C391 C385 1.363 . S
C391 C386 1.379 . S
C391 N389 1.356 . S
N392 C384 1.356 . S
N392 H398 0.984 . S
N392 H399 0.984 . S
N393 C386 1.356 . S
N393 H396 0.984 . S
N393 H397 0.985 . S
H394 N389 0.984 . S
H395 N389 0.985 . S
H396 N393 0.984 . S
H397 N393 0.985 . S
H398 N392 0.984 . S
H399 N392 0.984 . S
H400 N388 0.984 . S
H401 N388 0.985 . S
C402 C403 1.363 . S
C402 C408 1.379 . S
C402 N410 1.356 . S
C403 C402 1.363 . S
C403 C409 1.363 . S
C404 C405 1.363 . S
C404 C409 1.379 . S
C404 N411 1.356 . S
C405 C404 1.363 . S
C405 C408 1.363 . S
N406 C408 1.356 . S
N406 H418 0.984 . S
N406 H419 0.985 . S
N407 C409 1.356 . S
N407 H412 0.984 . S
N407 H413 0.985 . S
C408 C402 1.379 . S
C408 C405 1.363 . S
C408 N406 1.356 . S
C409 C403 1.363 . S
C409 C404 1.379 . S
C409 N407 1.356 . S
N410 C402 1.356 . S
N410 H416 0.984 . S
N410 H417 0.984 . S
N411 C404 1.356 . S
N411 H414 0.984 . S
N411 H415 0.985 . S
H412 N407 0.984 . S
H413 N407 0.985 . S
H414 N411 0.984 . S
H415 N411 0.985 . S
H416 N410 0.984 . S
H417 N410 0.984 . S
H418 N406 0.984 . S
H419 N406 0.985 . S
C420 C421 1.363 . S
C420 C426 1.379 . S
C420 N428 1.356 . S
C421 C420 1.363 . S
C421 C427 1.363 . S
C422 C423 1.363 . S
C422 C427 1.379 . S
C422 N429 1.356 . S
C423 C422 1.363 . S
C423 C426 1.363 . S
N424 C426 1.356 . S
N424 H436 0.984 . S
N424 H437 0.985 . S
N425 C427 1.356 . S
N425 H430 0.984 . S
N425 H431 0.985 . S
C426 C420 1.379 . S
C426 C423 1.363 . S
C426 N424 1.356 . S
C427 C421 1.363 . S
C427 C422 1.379 . S
C427 N425 1.356 . S
N428 C420 1.356 . S
N428 H434 0.984 . S
N428 H435 0.984 . S
N429 C422 1.356 . S
N429 H432 0.984 . S
N429 H433 0.985 . S
H430 N425 0.984 . S
H431 N425 0.985 . S
H432 N429 0.984 . S
H433 N429 0.985 . S
H434 N428 0.984 . S
H435 N428 0.984 . S
H436 N424 0.984 . S
H437 N424 0.985 . S
C438 C439 1.363 . S
C438 C444 1.379 . S
C438 N446 1.356 . S
C439 C438 1.363 . S
C439 C445 1.363 . S
C440 C441 1.363 . S
C440 C445 1.379 . S
C440 N447 1.356 . S
C441 C440 1.363 . S
C441 C444 1.363 . S
N442 C444 1.356 . S
N442 H454 0.984 . S
N442 H455 0.985 . S
N443 C445 1.356 . S
N443 H448 0.984 . S
N443 H449 0.985 . S
C444 C438 1.379 . S
C444 C441 1.363 . S
C444 N442 1.356 . S
C445 C439 1.363 . S
C445 C440 1.379 . S
C445 N443 1.356 . S
N446 C438 1.356 . S
N446 H452 0.984 . S
N446 H453 0.984 . S
N447 C440 1.356 . S
N447 H450 0.984 . S
N447 H451 0.985 . S
H448 N443 0.984 . S
H449 N443 0.985 . S
H450 N447 0.984 . S
H451 N447 0.985 . S
H452 N446 0.984 . S
H453 N446 0.984 . S
H454 N442 0.984 . S
H455 N442 0.985 . S
C456 C457 1.363 . S
C456 C462 1.379 . S
C456 N464 1.356 . S
C457 C456 1.363 . S
C457 C463 1.363 . S
C458 C459 1.363 . S
C458 C463 1.379 . S
C458 N465 1.356 . S
C459 C458 1.363 . S
C459 C462 1.363 . S
N460 C462 1.356 . S
N460 H472 0.984 . S
N460 H473 0.985 . S
N461 C463 1.356 . S
N461 H466 0.984 . S
N461 H467 0.985 . S
C462 C456 1.379 . S
C462 C459 1.363 . S
C462 N460 1.356 . S
C463 C457 1.363 . S
C463 C458 1.379 . S
C463 N461 1.356 . S
N464 C456 1.356 . S
N464 H470 0.984 . S
N464 H471 0.984 . S
N465 C458 1.356 . S
N465 H468 0.984 . S
N465 H469 0.985 . S
H466 N461 0.984 . S
H467 N461 0.985 . S
H468 N465 0.984 . S
H469 N465 0.985 . S
H470 N464 0.984 . S
H471 N464 0.984 . S
H472 N460 0.984 . S
H473 N460 0.985 . S
C474 C475 1.363 . S
C474 C480 1.379 . S
C474 N482 1.356 . S
C475 C474 1.363 . S
C475 C481 1.363 . S
C476 C477 1.363 . S
C476 C481 1.379 . S
C476 N483 1.356 . S
C477 C476 1.363 . S
C477 C480 1.363 . S
N478 C480 1.356 . S
N478 H490 0.984 . S
N478 H491 0.985 . S
N479 C481 1.356 . S
N479 H484 0.984 . S
N479 H485 0.985 . S
C480 C474 1.379 . S
C480 C477 1.363 . S
C480 N478 1.356 . S
C481 C475 1.363 . S
C481 C476 1.379 . S
C481 N479 1.356 . S
N482 C474 1.356 . S
N482 H488 0.984 . S
N482 H489 0.984 . S
N483 C476 1.356 . S
N483 H486 0.984 . S
N483 H487 0.985 . S
H484 N479 0.984 . S
H485 N479 0.985 . S
H486 N483 0.984 . S
H487 N483 0.985 . S
H488 N482 0.984 . S
H489 N482 0.984 . S
H490 N478 0.984 . S
H491 N478 0.985 . S
C492 C493 1.363 . S
C492 C498 1.379 . S
C492 N500 1.356 . S
C493 C492 1.363 . S
C493 C499 1.363 . S
C494 C495 1.363 . S
C494 C499 1.379 . S
C494 N501 1.356 . S
C495 C494 1.363 . S
C495 C498 1.363 . S
N496 C498 1.356 . S
N496 H508 0.984 . S
N496 H509 0.985 . S
N497 C499 1.356 . S
N497 H502 0.984 . S
N497 H503 0.985 . S
C498 C492 1.379 . S
C498 C495 1.363 . S
C498 N496 1.356 . S
C499 C493 1.363 . S
C499 C494 1.379 . S
C499 N497 1.356 . S
N500 C492 1.356 . S
N500 H506 0.984 . S
N500 H507 0.984 . S
N501 C494 1.356 . S
N501 H504 0.984 . S
N501 H505 0.985 . S
H502 N497 0.984 . S
H503 N497 0.985 . S
H504 N501 0.984 . S
H505 N501 0.985 . S
H506 N500 0.984 . S
H507 N500 0.984 . S
H508 N496 0.984 . S
H509 N496 0.985 . S
C510 C511 1.363 . S
C510 C516 1.379 . S
C510 N518 1.356 . S
C511 C510 1.363 . S
C511 C517 1.363 . S
C512 C513 1.363 . S
C512 C517 1.379 . S
C512 N519 1.356 . S
C513 C512 1.363 . S
C513 C516 1.363 . S
N514 C516 1.356 . S
N514 H526 0.984 . S
N514 H527 0.985 . S
N515 C517 1.356 . S
N515 H520 0.984 . S
N515 H521 0.985 . S
C516 C510 1.379 . S
C516 C513 1.363 . S
C516 N514 1.356 . S
C517 C511 1.363 . S
C517 C512 1.379 . S
C517 N515 1.356 . S
N518 C510 1.356 . S
N518 H524 0.984 . S
N518 H525 0.984 . S
N519 C512 1.356 . S
N519 H522 0.984 . S
N519 H523 0.985 . S
H520 N515 0.984 . S
H521 N515 0.985 . S
H522 N519 0.984 . S
H523 N519 0.985 . S
H524 N518 0.984 . S
H525 N518 0.984 . S
H526 N514 0.984 . S
H527 N514 0.985 . S
C528 C529 1.363 . S
C528 C534 1.379 . S
C528 N536 1.356 . S
C529 C528 1.363 . S
C529 C535 1.363 . S
C530 C531 1.363 . S
C530 C535 1.379 . S
C530 N537 1.356 . S
C531 C530 1.363 . S
C531 C534 1.363 . S
N532 C534 1.356 . S
N532 H544 0.984 . S
N532 H545 0.985 . S
N533 C535 1.356 . S
N533 H538 0.984 . S
N533 H539 0.985 . S
C534 C528 1.379 . S
C534 C531 1.363 . S
C534 N532 1.356 . S
C535 C529 1.363 . S
C535 C530 1.379 . S
C535 N533 1.356 . S
N536 C528 1.356 . S
N536 H542 0.984 . S
N536 H543 0.984 . S
N537 C530 1.356 . S
N537 H540 0.984 . S
N537 H541 0.985 . S
H538 N533 0.984 . S
H539 N533 0.985 . S
H540 N537 0.984 . S
H541 N537 0.985 . S
H542 N536 0.984 . S
H543 N536 0.984 . S
H544 N532 0.984 . S
H545 N532 0.985 . S
C546 C547 1.363 . S
C546 C552 1.379 . S
C546 N554 1.356 . S
C547 C546 1.363 . S
C547 C553 1.363 . S
C548 C549 1.363 . S
C548 C553 1.379 . S
C548 N555 1.356 . S
C549 C548 1.363 . S
C549 C552 1.363 . S
N550 C552 1.356 . S
N550 H562 0.984 . S
N550 H563 0.985 . S
N551 C553 1.356 . S
N551 H556 0.984 . S
N551 H557 0.985 . S
C552 C546 1.379 . S
C552 C549 1.363 . S
C552 N550 1.356 . S
C553 C547 1.363 . S
C553 C548 1.379 . S
C553 N551 1.356 . S
N554 C546 1.356 . S
N554 H560 0.984 . S
N554 H561 0.984 . S
N555 C548 1.356 . S
N555 H558 0.984 . S
N555 H559 0.985 . S
H556 N551 0.984 . S
H557 N551 0.985 . S
H558 N555 0.984 . S
H559 N555 0.985 . S
H560 N554 0.984 . S
H561 N554 0.984 . S
H562 N550 0.984 . S
H563 N550 0.985 . S
C241 C210 1.514 . S
C243 C2 1.547 . S
C259 C10 1.514 . S
C261 C42 1.547 . S
C277 C50 1.514 . S
C279 C82 1.546 . S
C295 C90 1.514 . S
C297 C122 1.547 . S
C313 C162 1.547 . S
C315 C130 1.514 . S
C331 C202 1.546 . S
C333 C170 1.514 . S
C349 C7 2.121 . S
C351 C16 2.121 . S
C367 C47 2.121 . S
C369 C56 2.121 . S
C385 C87 2.121 . S
C387 C96 2.121 . S
C403 C127 2.121 . S
C405 C136 2.121 . S
C421 C176 2.121 . S
C423 C167 2.121 . S
C439 C207 2.121 . S
C441 C216 2.121 . S
C457 C11 1.764 . S
C459 C179 1.768 . S
C475 C51 1.764 . S
C477 C219 1.769 . S
C493 C19 1.769 . S
C495 C91 1.764 . S
C511 C59 1.768 . S
C513 C131 1.764 . S
C529 C171 1.764 . S
C531 C99 1.769 . S
C547 C139 1.768 . S
C549 C211 1.764 . S
