# Generated by pormake.
# Topology snl, (6)-cn, num edge types: 1
# Building blocks:
#     Node 0, Type 0, BuildingBlock: MIFKUJ_clean_sbu_0, # of connection points: 6
#     Node 1, Type 0, BuildingBlock: MIFKUJ_clean_sbu_0, # of connection points: 6
#     Node 2, Type 0, BuildingBlock: MIFKUJ_clean_sbu_0, # of connection points: 6
#     Node 3, Type 0, BuildingBlock: MIFKUJ_clean_sbu_0, # of connection points: 6
#     Node 4, Type 0, BuildingBlock: MIFKUJ_clean_sbu_0, # of connection points: 6
#     Node 5, Type 0, BuildingBlock: MIFKUJ_clean_sbu_0, # of connection points: 6
#     Node 6, Type 0, BuildingBlock: MIFKUJ_clean_sbu_0, # of connection points: 6
#     Node 7, Type 0, BuildingBlock: MIFKUJ_clean_sbu_0, # of connection points: 6
#     Node 8, Type 0, BuildingBlock: MIFKUJ_clean_sbu_0, # of connection points: 6
#     Node 9, Type 0, BuildingBlock: MIFKUJ_clean_sbu_0, # of connection points: 6
#     Node 10, Type 0, BuildingBlock: MIFKUJ_clean_sbu_0, # of connection points: 6
#     Node 11, Type 0, BuildingBlock: MIFKUJ_clean_sbu_0, # of connection points: 6
#     Node 12, Type 0, BuildingBlock: MIFKUJ_clean_sbu_0, # of connection points: 6
#     Node 13, Type 0, BuildingBlock: MIFKUJ_clean_sbu_0, # of connection points: 6
#     Node 14, Type 0, BuildingBlock: MIFKUJ_clean_sbu_0, # of connection points: 6
#     Node 15, Type 0, BuildingBlock: MIFKUJ_clean_sbu_0, # of connection points: 6
#     Edge 16, Type (0, 0), BuildingBlock: UVAHIK_clean_linker_0, # of connection points: 2
#     Edge 17, Type (0, 0), BuildingBlock: UVAHIK_clean_linker_0, # of connection points: 2
#     Edge 18, Type (0, 0), BuildingBlock: UVAHIK_clean_linker_0, # of connection points: 2
#     Edge 19, Type (0, 0), BuildingBlock: UVAHIK_clean_linker_0, # of connection points: 2
#     Edge 20, Type (0, 0), BuildingBlock: UVAHIK_clean_linker_0, # of connection points: 2
#     Edge 21, Type (0, 0), BuildingBlock: UVAHIK_clean_linker_0, # of connection points: 2
#     Edge 22, Type (0, 0), BuildingBlock: UVAHIK_clean_linker_0, # of connection points: 2
#     Edge 23, Type (0, 0), BuildingBlock: UVAHIK_clean_linker_0, # of connection points: 2
#     Edge 24, Type (0, 0), BuildingBlock: UVAHIK_clean_linker_0, # of connection points: 2
#     Edge 25, Type (0, 0), BuildingBlock: UVAHIK_clean_linker_0, # of connection points: 2
#     Edge 26, Type (0, 0), BuildingBlock: UVAHIK_clean_linker_0, # of connection points: 2
#     Edge 27, Type (0, 0), BuildingBlock: UVAHIK_clean_linker_0, # of connection points: 2
#     Edge 28, Type (0, 0), BuildingBlock: UVAHIK_clean_linker_0, # of connection points: 2
#     Edge 29, Type (0, 0), BuildingBlock: UVAHIK_clean_linker_0, # of connection points: 2
#     Edge 30, Type (0, 0), BuildingBlock: UVAHIK_clean_linker_0, # of connection points: 2
#     Edge 31, Type (0, 0), BuildingBlock: UVAHIK_clean_linker_0, # of connection points: 2
#     Edge 32, Type (0, 0), BuildingBlock: UVAHIK_clean_linker_0, # of connection points: 2
#     Edge 33, Type (0, 0), BuildingBlock: UVAHIK_clean_linker_0, # of connection points: 2
#     Edge 34, Type (0, 0), BuildingBlock: UVAHIK_clean_linker_0, # of connection points: 2
#     Edge 35, Type (0, 0), BuildingBlock: UVAHIK_clean_linker_0, # of connection points: 2
#     Edge 36, Type (0, 0), BuildingBlock: UVAHIK_clean_linker_0, # of connection points: 2
#     Edge 37, Type (0, 0), BuildingBlock: UVAHIK_clean_linker_0, # of connection points: 2
#     Edge 38, Type (0, 0), BuildingBlock: UVAHIK_clean_linker_0, # of connection points: 2
#     Edge 39, Type (0, 0), BuildingBlock: UVAHIK_clean_linker_0, # of connection points: 2
#     Edge 40, Type (0, 0), BuildingBlock: UVAHIK_clean_linker_0, # of connection points: 2
#     Edge 41, Type (0, 0), BuildingBlock: UVAHIK_clean_linker_0, # of connection points: 2
#     Edge 42, Type (0, 0), BuildingBlock: UVAHIK_clean_linker_0, # of connection points: 2
#     Edge 43, Type (0, 0), BuildingBlock: UVAHIK_clean_linker_0, # of connection points: 2
#     Edge 44, Type (0, 0), BuildingBlock: UVAHIK_clean_linker_0, # of connection points: 2
#     Edge 45, Type (0, 0), BuildingBlock: UVAHIK_clean_linker_0, # of connection points: 2
#     Edge 46, Type (0, 0), BuildingBlock: UVAHIK_clean_linker_0, # of connection points: 2
#     Edge 47, Type (0, 0), BuildingBlock: UVAHIK_clean_linker_0, # of connection points: 2
#     Edge 48, Type (0, 0), BuildingBlock: UVAHIK_clean_linker_0, # of connection points: 2
#     Edge 49, Type (0, 0), BuildingBlock: UVAHIK_clean_linker_0, # of connection points: 2
#     Edge 50, Type (0, 0), BuildingBlock: UVAHIK_clean_linker_0, # of connection points: 2
#     Edge 51, Type (0, 0), BuildingBlock: UVAHIK_clean_linker_0, # of connection points: 2
#     Edge 52, Type (0, 0), BuildingBlock: UVAHIK_clean_linker_0, # of connection points: 2
#     Edge 53, Type (0, 0), BuildingBlock: UVAHIK_clean_linker_0, # of connection points: 2
#     Edge 54, Type (0, 0), BuildingBlock: UVAHIK_clean_linker_0, # of connection points: 2
#     Edge 55, Type (0, 0), BuildingBlock: UVAHIK_clean_linker_0, # of connection points: 2
#     Edge 56, Type (0, 0), BuildingBlock: UVAHIK_clean_linker_0, # of connection points: 2
#     Edge 57, Type (0, 0), BuildingBlock: UVAHIK_clean_linker_0, # of connection points: 2
#     Edge 58, Type (0, 0), BuildingBlock: UVAHIK_clean_linker_0, # of connection points: 2
#     Edge 59, Type (0, 0), BuildingBlock: UVAHIK_clean_linker_0, # of connection points: 2
#     Edge 60, Type (0, 0), BuildingBlock: UVAHIK_clean_linker_0, # of connection points: 2
#     Edge 61, Type (0, 0), BuildingBlock: UVAHIK_clean_linker_0, # of connection points: 2
#     Edge 62, Type (0, 0), BuildingBlock: UVAHIK_clean_linker_0, # of connection points: 2
#     Edge 63, Type (0, 0), BuildingBlock: UVAHIK_clean_linker_0, # of connection points: 2
# Relax obj value: 0.122
# Max RMSD: 0.178
# Mean RMSD: 0.161
data_MOF--net-snl--node1-MIFKUJ_clean_sbu_0--edge1-UVAHIK_clean_linker_0
_symmetry_space_group_name_H-M    P1
_symmetry_Int_Tables_number       1
_symmetry_cell_setting            triclinic
loop_
_symmetry_equiv_pos_as_xyz
'x, y, z'
_cell_length_a     77.751305
_cell_length_b     79.484448
_cell_length_c     22.985944
_cell_angle_alpha  89.01644
_cell_angle_beta   90.911293
_cell_angle_gamma 90.02271
loop_
_atom_site_label
_atom_site_type_symbol
_atom_site_fract_x
_atom_site_fract_y
_atom_site_fract_z
_atom_type_partial_charge
Zn0 Zn 0.13175 0.62795 0.20491 0.0
Zn1 Zn 0.12893 0.63292 0.06853 0.0
C2 C 0.1658 0.61661 0.22898 0.0
O3 O 0.15686 0.6039 0.24979 0.0
C4 C 0.09309 0.64059 0.06299 0.0
O5 O 0.09907 0.6523 0.02768 0.0
O6 O 0.12606 0.62512 0.29014 0.0
O7 O 0.12252 0.65109 0.18054 0.0
O8 O 0.13772 0.65436 0.10118 0.0
C9 C 0.13169 0.63652 0.32364 0.0
O10 O 0.14007 0.64931 0.30077 0.0
O11 O 0.1578 0.62887 0.20464 0.0
C12 C 0.12398 0.62321 0.9498 0.0
O13 O 0.11694 0.61009 0.97556 0.0
O14 O 0.13022 0.63487 0.98096 0.0
O15 O 0.14187 0.61216 0.09142 0.0
O16 O 0.12433 0.60659 0.16299 0.0
O17 O 0.10365 0.63043 0.08771 0.0
C18 C 0.12984 0.66066 0.14351 0.0
C19 C 0.13369 0.6015 0.1219 0.0
Zn20 Zn 0.62719 0.89523 0.43552 0.0
Zn21 Zn 0.62403 0.86381 0.29088 0.0
C22 C 0.63721 0.92678 0.48505 0.0
O23 O 0.64897 0.9171 0.51007 0.0
C24 C 0.61511 0.82905 0.28121 0.0
O25 O 0.60396 0.83551 0.24353 0.0
O26 O 0.62888 0.88437 0.51565 0.0
O27 O 0.60397 0.8893 0.39985 0.0
O28 O 0.60207 0.87291 0.32254 0.0
C29 C 0.61724 0.88825 0.55134 0.0
O30 O 0.60462 0.8981 0.53319 0.0
O31 O 0.62643 0.92027 0.44985 0.0
C32 C 0.63352 0.86021 0.17066 0.0
O33 O 0.64644 0.85182 0.19452 0.0
O34 O 0.62232 0.86662 0.20339 0.0
O35 O 0.64634 0.87437 0.3157 0.0
O36 O 0.64925 0.89108 0.39172 0.0
O37 O 0.62517 0.83886 0.30858 0.0
C38 C 0.59512 0.88178 0.36118 0.0
C39 C 0.65556 0.88349 0.34865 0.0
Zn40 Zn 0.37242 0.38054 0.6899 0.0
Zn41 Zn 0.3749 0.37575 0.55449 0.0
C42 C 0.33864 0.39184 0.71464 0.0
O43 O 0.34797 0.40348 0.74005 0.0
C44 C 0.41038 0.36535 0.56481 0.0
O45 O 0.40385 0.35137 0.54425 0.0
O46 O 0.37826 0.38299 0.77554 0.0
O47 O 0.3811 0.35721 0.66924 0.0
O48 O 0.36551 0.35429 0.58943 0.0
C49 C 0.37229 0.37171 0.80961 0.0
O50 O 0.36347 0.35922 0.78716 0.0
O51 O 0.34627 0.38037 0.68696 0.0
C52 C 0.38051 0.38471 0.43512 0.0
O53 O 0.38844 0.39738 0.45994 0.0
O54 O 0.37342 0.37359 0.46713 0.0
O55 O 0.36311 0.39751 0.57299 0.0
O56 O 0.38061 0.40179 0.64721 0.0
O57 O 0.40039 0.37766 0.57414 0.0
C58 C 0.37336 0.34777 0.63315 0.0
C59 C 0.37147 0.4076 0.60504 0.0
Zn60 Zn 0.87816 0.10915 0.92778 0.0
Zn61 Zn 0.88285 0.14149 0.78139 0.0
C62 C 0.86601 0.07628 0.96194 0.0
O63 O 0.85255 0.0851 0.97697 0.0
C64 C 0.8766 0.17407 0.83361 0.0
O65 O 0.87016 0.16493 0.8762 0.0
O66 O 0.87638 0.11826 0.00892 0.0
O67 O 0.90139 0.11588 0.89662 0.0
O68 O 0.90469 0.13255 0.81894 0.0
C69 C 0.88756 0.11324 0.04627 0.0
O70 O 0.89981 0.10308 0.02962 0.0
O71 O 0.87861 0.08383 0.93839 0.0
C72 C 0.87336 0.14347 0.66032 0.0
O73 O 0.86074 0.15245 0.68107 0.0
O74 O 0.88454 0.13724 0.69544 0.0
O75 O 0.85989 0.1323 0.80631 0.0
O76 O 0.85638 0.1151 0.88245 0.0
O77 O 0.88269 0.16674 0.78975 0.0
C78 C 0.91093 0.12355 0.86037 0.0
C79 C 0.85029 0.1235 0.83922 0.0
Zn80 Zn 0.12852 0.39537 0.91755 0.0
Zn81 Zn 0.1243 0.36461 0.77241 0.0
C82 C 0.13769 0.43137 0.91619 0.0
O83 O 0.14944 0.42727 0.87855 0.0
C84 C 0.13102 0.33257 0.83167 0.0
O85 O 0.13728 0.34194 0.87352 0.0
O86 O 0.13027 0.38416 0.99698 0.0
O87 O 0.1051 0.38982 0.88293 0.0
O88 O 0.10245 0.37326 0.8064 0.0
C89 C 0.11823 0.38768 0.0316 0.0
O90 O 0.10541 0.39708 0.01218 0.0
O91 O 0.12769 0.42009 0.93608 0.0
C92 C 0.13368 0.3621 0.65261 0.0
O93 O 0.14666 0.35373 0.67625 0.0
O94 O 0.12233 0.36817 0.68548 0.0
O95 O 0.147 0.37449 0.79717 0.0
O96 O 0.15049 0.39107 0.87325 0.0
O97 O 0.12495 0.33961 0.78576 0.0
C98 C 0.09587 0.38227 0.84541 0.0
C99 C 0.15653 0.38335 0.83001 0.0
Zn100 Zn 0.87007 0.87349 0.20171 0.0
Zn101 Zn 0.8869 0.86992 0.05687 0.0
C102 C 0.83784 0.88723 0.23906 0.0
O103 O 0.84827 0.89698 0.26879 0.0
C104 C 0.92291 0.86671 0.06243 0.0
O105 O 0.91848 0.85457 0.02713 0.0
O106 O 0.87858 0.87454 0.28424 0.0
O107 O 0.87412 0.84938 0.17668 0.0
O108 O 0.88128 0.84675 0.08454 0.0
C109 C 0.87348 0.86321 0.31956 0.0
O110 O 0.86341 0.85119 0.30017 0.0
O111 O 0.84422 0.87635 0.20564 0.0
C112 C 0.89315 0.87996 0.93782 0.0
O113 O 0.89911 0.89376 0.96149 0.0
O114 O 0.88737 0.86826 0.97031 0.0
O115 O 0.87007 0.88843 0.07203 0.0
O116 O 0.87954 0.89424 0.15989 0.0
O117 O 0.91112 0.87571 0.08379 0.0
C118 C 0.87745 0.84025 0.13337 0.0
C119 C 0.87428 0.89916 0.10982 0.0
Zn120 Zn 0.3764 0.61909 0.4414 0.0
Zn121 Zn 0.38091 0.6253 0.30287 0.0
C122 C 0.36467 0.58441 0.44937 0.0
O123 O 0.34956 0.5917 0.45257 0.0
C124 C 0.39137 0.6601 0.31944 0.0
O125 O 0.40646 0.65414 0.30524 0.0
O126 O 0.37376 0.62457 0.52598 0.0
O127 O 0.39987 0.62859 0.4197 0.0
O128 O 0.4024 0.6151 0.33764 0.0
C129 C 0.38552 0.61924 0.56064 0.0
O130 O 0.39859 0.61101 0.53933 0.0
O131 O 0.37796 0.59351 0.4419 0.0
C132 C 0.37206 0.63128 0.18316 0.0
O133 O 0.35856 0.6382 0.20678 0.0
O134 O 0.38366 0.62482 0.21611 0.0
O135 O 0.35872 0.61345 0.31821 0.0
O136 O 0.35421 0.62669 0.39977 0.0
O137 O 0.37865 0.65006 0.32304 0.0
C138 C 0.40928 0.62167 0.38218 0.0
C139 C 0.34839 0.61983 0.35384 0.0
Zn140 Zn 0.63273 0.13034 0.70404 0.0
Zn141 Zn 0.62913 0.13523 0.56745 0.0
C142 C 0.66674 0.11928 0.73038 0.0
O143 O 0.65768 0.10754 0.75674 0.0
C144 C 0.59337 0.14387 0.5621 0.0
O145 O 0.59941 0.15513 0.52522 0.0
O146 O 0.62724 0.12794 0.78951 0.0
O147 O 0.62348 0.15336 0.67926 0.0
O148 O 0.639 0.15641 0.60066 0.0
C149 C 0.63303 0.13923 0.82315 0.0
O150 O 0.64173 0.15186 0.80057 0.0
O151 O 0.65882 0.13082 0.70175 0.0
C152 C 0.62353 0.12604 0.44863 0.0
O153 O 0.61623 0.11305 0.47432 0.0
O154 O 0.63019 0.13746 0.47988 0.0
O155 O 0.64074 0.11339 0.58815 0.0
O156 O 0.62459 0.10898 0.66446 0.0
O157 O 0.60383 0.13374 0.58746 0.0
C158 C 0.63112 0.16286 0.64279 0.0
C159 C 0.63293 0.10327 0.62191 0.0
Zn160 Zn 0.87709 0.38341 0.94056 0.0
Zn161 Zn 0.87254 0.38788 0.80241 0.0
C162 C 0.91265 0.37438 0.9219 0.0
O163 O 0.90715 0.35956 0.93968 0.0
C164 C 0.83689 0.39877 0.7895 0.0
O165 O 0.84392 0.41371 0.78344 0.0
O166 O 0.87709 0.38114 0.0281 0.0
O167 O 0.86368 0.40423 0.92059 0.0
O168 O 0.87977 0.40936 0.84464 0.0
C169 C 0.8835 0.39282 0.05875 0.0
O170 O 0.88996 0.40614 0.03243 0.0
O171 O 0.90208 0.38658 0.91791 0.0
C172 C 0.87361 0.3795 0.68354 0.0
O173 O 0.86519 0.36655 0.70518 0.0
O174 O 0.87875 0.39092 0.71783 0.0
O175 O 0.88166 0.36467 0.82637 0.0
O176 O 0.86781 0.36191 0.90879 0.0
O177 O 0.8465 0.38611 0.80029 0.0
C178 C 0.87115 0.41468 0.88722 0.0
C179 C 0.87457 0.35535 0.86469 0.0
Zn180 Zn 0.38088 0.13198 0.70489 0.0
Zn181 Zn 0.37579 0.12858 0.56822 0.0
C182 C 0.38827 0.16721 0.70655 0.0
O183 O 0.40023 0.16145 0.74265 0.0
C184 C 0.3638 0.09501 0.55058 0.0
O185 O 0.34987 0.10353 0.53596 0.0
O186 O 0.38297 0.13102 0.79266 0.0
O187 O 0.35946 0.11911 0.68489 0.0
O188 O 0.35386 0.13566 0.60953 0.0
C189 C 0.37102 0.13721 0.82282 0.0
O190 O 0.35757 0.1439 0.79593 0.0
O191 O 0.3781 0.15676 0.68253 0.0
C192 C 0.3844 0.12926 0.44936 0.0
O193 O 0.39748 0.12091 0.4724 0.0
O194 O 0.37279 0.1346 0.48279 0.0
O195 O 0.39941 0.13781 0.59139 0.0
O196 O 0.40305 0.12344 0.67336 0.0
O197 O 0.37696 0.103 0.56885 0.0
C198 C 0.3486 0.12655 0.65173 0.0
C199 C 0.40935 0.13095 0.62941 0.0
Zn200 Zn 0.62985 0.62148 0.42591 0.0
Zn201 Zn 0.63292 0.61669 0.28944 0.0
C202 C 0.59451 0.63059 0.43104 0.0
O203 O 0.60145 0.64217 0.4641 0.0
C204 C 0.66845 0.60634 0.28271 0.0
O205 O 0.6613 0.59153 0.27553 0.0
O206 O 0.63179 0.62406 0.51292 0.0
O207 O 0.64128 0.59956 0.40946 0.0
O208 O 0.62582 0.59489 0.33048 0.0
C209 C 0.62526 0.61268 0.54527 0.0
O210 O 0.61774 0.59972 0.52083 0.0
O211 O 0.60429 0.61995 0.40741 0.0
C212 C 0.63296 0.62585 0.17026 0.0
O213 O 0.64106 0.63872 0.19321 0.0
O214 O 0.62751 0.61421 0.20386 0.0
O215 O 0.62256 0.6391 0.31172 0.0
O216 O 0.63922 0.64249 0.38874 0.0
O217 O 0.65891 0.61897 0.29221 0.0
C218 C 0.6338 0.58935 0.37563 0.0
C219 C 0.63049 0.64877 0.34657 0.0
Zn220 Zn 0.13076 0.87314 0.24712 0.0
Zn221 Zn 0.13725 0.88372 0.10112 0.0
C222 C 0.1337 0.84092 0.18607 0.0
O223 O 0.1436 0.84922 0.14984 0.0
C224 C 0.14508 0.91636 0.06079 0.0
O225 O 0.15794 0.90766 0.04025 0.0
O226 O 0.12741 0.87422 0.33298 0.0
O227 O 0.15557 0.87917 0.23641 0.0
O228 O 0.16039 0.88041 0.14176 0.0
C229 C 0.13775 0.86587 0.3656 0.0
O230 O 0.14998 0.85704 0.34172 0.0
O231 O 0.12696 0.84862 0.22804 0.0
C232 C 0.12663 0.87937 0.9861 0.0
O233 O 0.11346 0.88734 0.00781 0.0
O234 O 0.13933 0.87567 0.01938 0.0
O235 O 0.11486 0.87348 0.12913 0.0
O236 O 0.11211 0.88743 0.20974 0.0
O237 O 0.13397 0.90879 0.09172 0.0
C238 C 0.16587 0.88025 0.19419 0.0
C239 C 0.10542 0.88138 0.16401 0.0
Zn240 Zn 0.88044 0.62463 0.19643 0.0
Zn241 Zn 0.87583 0.62335 0.06037 0.0
C242 C 0.88891 0.65959 0.19707 0.0
O243 O 0.90204 0.65345 0.22726 0.0
C244 C 0.86473 0.58906 0.0468 0.0
O245 O 0.84989 0.59654 0.03669 0.0
O246 O 0.88265 0.62302 0.28417 0.0
O247 O 0.85876 0.61241 0.17476 0.0
O248 O 0.8537 0.6299 0.10145 0.0
C249 C 0.87086 0.62941 0.31456 0.0
O250 O 0.8576 0.6365 0.28784 0.0
O251 O 0.87766 0.64948 0.17727 0.0
C252 C 0.88468 0.62398 0.94163 0.0
O253 O 0.89777 0.61575 0.96513 0.0
O254 O 0.87299 0.62935 0.97475 0.0
O255 O 0.89912 0.63282 0.08535 0.0
O256 O 0.90259 0.61652 0.16297 0.0
O257 O 0.87776 0.59791 0.06051 0.0
C258 C 0.84815 0.62049 0.14242 0.0
C259 C 0.909 0.62507 0.12147 0.0
Zn260 Zn 0.13092 0.12339 0.95517 0.0
Zn261 Zn 0.13473 0.11996 0.81768 0.0
C262 C 0.09402 0.12702 0.96457 0.0
O263 O 0.09861 0.13427 0.01331 0.0
C264 C 0.17034 0.10961 0.8078 0.0
O265 O 0.16336 0.09467 0.80196 0.0
O266 O 0.13233 0.12523 0.04257 0.0
O267 O 0.14332 0.10225 0.93709 0.0
O268 O 0.12783 0.09794 0.858 0.0
C269 C 0.12754 0.11304 0.07501 0.0
O270 O 0.12177 0.09924 0.05081 0.0
O271 O 0.1056 0.12147 0.9314 0.0
C272 C 0.13346 0.12945 0.69858 0.0
O273 O 0.14139 0.14253 0.72069 0.0
O274 O 0.12861 0.11767 0.73269 0.0
O275 O 0.125 0.14253 0.8418 0.0
O276 O 0.14058 0.14463 0.92207 0.0
O277 O 0.16072 0.12215 0.81772 0.0
C278 C 0.13592 0.09219 0.9026 0.0
C279 C 0.13272 0.15156 0.87921 0.0
Zn280 Zn 0.62485 0.37791 0.69545 0.0
Zn281 Zn 0.6287 0.37968 0.55891 0.0
C282 C 0.61724 0.34285 0.70142 0.0
O283 O 0.60542 0.34867 0.73601 0.0
C284 C 0.63986 0.41253 0.52731 0.0
O285 O 0.65222 0.40342 0.50554 0.0
O286 O 0.62343 0.37915 0.78303 0.0
O287 O 0.64611 0.39054 0.67256 0.0
O288 O 0.65081 0.37277 0.6025 0.0
C289 C 0.63518 0.3726 0.81517 0.0
O290 O 0.64834 0.36539 0.79052 0.0
O291 O 0.62742 0.35321 0.67698 0.0
C292 C 0.61975 0.37871 0.43908 0.0
O293 O 0.6069 0.38748 0.45934 0.0
O294 O 0.6312 0.37317 0.47464 0.0
O295 O 0.60495 0.37137 0.58269 0.0
O296 O 0.60229 0.38599 0.66265 0.0
O297 O 0.62801 0.40514 0.55548 0.0
C298 C 0.65659 0.38252 0.6416 0.0
C299 C 0.59549 0.3784 0.6199 0.0
Zn300 Zn 0.3805 0.8752 0.26481 0.0
Zn301 Zn 0.37673 0.88448 0.40446 0.0
C302 C 0.38682 0.83968 0.26143 0.0
O303 O 0.39601 0.84482 0.21708 0.0
C304 C 0.36366 0.91817 0.41602 0.0
O305 O 0.34966 0.90976 0.42925 0.0
O306 O 0.38217 0.87564 0.17778 0.0
O307 O 0.35869 0.88758 0.27996 0.0
O308 O 0.35469 0.87585 0.36589 0.0
C309 C 0.37026 0.8697 0.14572 0.0
O310 O 0.35665 0.86301 0.17015 0.0
O311 O 0.37893 0.85055 0.29109 0.0
C312 C 0.38567 0.88479 0.52403 0.0
O313 O 0.3984 0.89373 0.50271 0.0
O314 O 0.37435 0.87897 0.48936 0.0
O315 O 0.40074 0.87627 0.38448 0.0
O316 O 0.40252 0.88523 0.29339 0.0
O317 O 0.37694 0.91005 0.40102 0.0
C318 C 0.3486 0.882 0.31847 0.0
C319 C 0.4097 0.881 0.34136 0.0
C320 C 0.11762 0.6115 0.85111 0.0
C321 C 0.12447 0.62444 0.8854 0.0
C322 C 0.11804 0.61264 0.79035 0.0
C323 C 0.1406 0.63426 0.66997 0.0
H324 H 0.10118 0.62026 0.57726 0.0
C325 C 0.13605 0.64796 0.42352 0.0
C326 C 0.12972 0.63515 0.38761 0.0
C327 C 0.13498 0.64651 0.484 0.0
C328 C 0.11237 0.62404 0.60249 0.0
H329 H 0.13705 0.6488 0.88258 0.0
H330 H 0.13766 0.65085 0.7767 0.0
H331 H 0.10023 0.61802 0.68323 0.0
H332 H 0.11706 0.61083 0.38722 0.0
H333 H 0.11529 0.60824 0.49308 0.0
H334 H 0.15275 0.64028 0.58942 0.0
C335 C 0.13216 0.6397 0.79677 0.0
C336 C 0.11183 0.62277 0.66325 0.0
C337 C 0.13173 0.63857 0.85752 0.0
C338 C 0.12203 0.62095 0.41363 0.0
C339 C 0.12096 0.61949 0.47429 0.0
C340 C 0.14114 0.63554 0.60931 0.0
C341 C 0.12533 0.62674 0.76241 0.0
C342 C 0.12592 0.62792 0.69774 0.0
C343 C 0.12757 0.6322 0.51022 0.0
C344 C 0.12701 0.63052 0.57479 0.0
H345 H 0.11196 0.60042 0.87114 0.0
H346 H 0.11286 0.60234 0.76527 0.0
H347 H 0.1518 0.63805 0.69511 0.0
H348 H 0.14197 0.65912 0.40501 0.0
H349 H 0.13992 0.65667 0.51025 0.0
C350 C 0.64453 0.85534 0.0703 0.0
C351 C 0.63189 0.86199 0.10649 0.0
C352 C 0.64297 0.85696 0.00974 0.0
C353 C 0.61106 0.86492 0.89135 0.0
H354 H 0.65099 0.8772 0.80105 0.0
C355 C 0.60572 0.88783 0.65239 0.0
C356 C 0.61849 0.88299 0.61347 0.0
C357 C 0.6073 0.88392 0.71171 0.0
C358 C 0.63976 0.87351 0.82546 0.0
H359 H 0.60769 0.87556 0.10725 0.0
H360 H 0.60505 0.87848 0.00175 0.0
H361 H 0.65393 0.87316 0.90614 0.0
H362 H 0.6428 0.86987 0.60631 0.0
H363 H 0.64547 0.86285 0.70998 0.0
H364 H 0.59686 0.86537 0.8108 0.0
C365 C 0.61608 0.87185 0.02016 0.0
C366 C 0.64144 0.87122 0.88577 0.0
C367 C 0.61765 0.87027 0.0807 0.0
C368 C 0.63274 0.87381 0.63512 0.0
C369 C 0.63432 0.8699 0.69461 0.0
C370 C 0.60938 0.86718 0.83107 0.0
C371 C 0.62872 0.86522 0.98393 0.0
C372 C 0.62708 0.86705 0.91952 0.0
C373 C 0.62169 0.87504 0.73371 0.0
C374 C 0.62368 0.87166 0.79741 0.0
H375 H 0.65564 0.84885 0.0887 0.0
H376 H 0.65284 0.85156 0.9831 0.0
H377 H 0.59979 0.86142 0.9159 0.0
H378 H 0.59459 0.89495 0.63729 0.0
H379 H 0.59743 0.88828 0.74058 0.0
C380 C 0.38762 0.3959 0.33567 0.0
C381 C 0.37998 0.38342 0.37083 0.0
C382 C 0.38717 0.39472 0.27503 0.0
C383 C 0.36347 0.37422 0.1547 0.0
H384 H 0.40359 0.38624 0.06486 0.0
C385 C 0.36741 0.36039 0.91025 0.0
C386 C 0.37433 0.37294 0.87365 0.0
C387 C 0.36854 0.36175 0.97069 0.0
C388 C 0.39221 0.38301 0.08926 0.0
H389 H 0.36595 0.35983 0.36968 0.0
H390 H 0.3653 0.35768 0.26398 0.0
H391 H 0.40463 0.3884 0.17067 0.0
H392 H 0.3881 0.39667 0.87206 0.0
H393 H 0.39 0.39908 0.97785 0.0
H394 H 0.35105 0.36882 0.07345 0.0
C395 C 0.37145 0.36852 0.28326 0.0
C396 C 0.39281 0.38425 0.14993 0.0
C397 C 0.3719 0.36971 0.34392 0.0
C398 C 0.38267 0.38676 0.899 0.0
C399 C 0.38382 0.38811 0.95964 0.0
C400 C 0.36288 0.37297 0.09413 0.0
C401 C 0.37906 0.38102 0.24803 0.0
C402 C 0.37845 0.37982 0.18343 0.0
C403 C 0.37662 0.37569 0.99619 0.0
C404 C 0.37726 0.37729 0.06064 0.0
H405 H 0.39392 0.40666 0.35493 0.0
H406 H 0.39296 0.40468 0.24926 0.0
H407 H 0.35207 0.37101 0.17898 0.0
H408 H 0.36097 0.34952 0.89227 0.0
H409 H 0.36312 0.3518 0.9975 0.0
C410 C 0.8884 0.13167 0.57427 0.0
C411 C 0.87468 0.14089 0.59684 0.0
C412 C 0.88974 0.12945 0.51431 0.0
C413 C 0.86427 0.1305 0.37716 0.0
H414 H 0.90903 0.13372 0.30575 0.0
C415 C 0.87271 0.1278 0.12769 0.0
C416 C 0.88639 0.11792 0.10821 0.0
C417 C 0.87131 0.1315 0.18675 0.0
C418 C 0.89645 0.13264 0.32508 0.0
H419 H 0.85158 0.15499 0.57395 0.0
H420 H 0.85401 0.1512 0.46937 0.0
H421 H 0.90644 0.13819 0.4099 0.0
H422 H 0.90945 0.10438 0.13552 0.0
H423 H 0.90693 0.11071 0.23817 0.0
H424 H 0.8543 0.12482 0.29238 0.0
C425 C 0.86363 0.14554 0.49809 0.0
C426 C 0.89498 0.13518 0.38481 0.0
C427 C 0.8623 0.14778 0.55806 0.0
C428 C 0.89876 0.11205 0.14895 0.0
C429 C 0.89737 0.11577 0.20786 0.0
C430 C 0.86575 0.12794 0.3174 0.0
C431 C 0.8774 0.13638 0.47547 0.0
C432 C 0.87889 0.13404 0.41166 0.0
C433 C 0.88358 0.12545 0.22759 0.0
C434 C 0.88188 0.12887 0.29069 0.0
H435 H 0.89813 0.12615 0.60291 0.0
H436 H 0.90037 0.12212 0.49841 0.0
H437 H 0.85172 0.12931 0.39658 0.0
H438 H 0.86297 0.13254 0.09743 0.0
H439 H 0.86063 0.13917 0.20039 0.0
C440 C 0.13388 0.37451 0.11758 0.0
C441 C 0.11934 0.38286 0.09413 0.0
C442 C 0.13541 0.37138 0.17761 0.0
C443 C 0.1197 0.38732 0.31679 0.0
H444 H 0.1375 0.34541 0.382 0.0
C445 C 0.11786 0.37233 0.56287 0.0
C446 C 0.1322 0.36421 0.58854 0.0
C447 C 0.11642 0.37421 0.50241 0.0
C448 C 0.13269 0.35727 0.36447 0.0
H449 H 0.09471 0.39386 0.1152 0.0
H450 H 0.09733 0.38829 0.21931 0.0
H451 H 0.13469 0.34901 0.27651 0.0
H452 H 0.15632 0.35174 0.57067 0.0
H453 H 0.15391 0.35524 0.46527 0.0
H454 H 0.11779 0.39567 0.40438 0.0
C455 C 0.10769 0.38442 0.19157 0.0
C456 C 0.13106 0.35931 0.30402 0.0
C457 C 0.10615 0.38752 0.13175 0.0
C458 C 0.14508 0.35802 0.55233 0.0
C459 C 0.14365 0.35993 0.49184 0.0
C460 C 0.12136 0.3853 0.37709 0.0
C461 C 0.12245 0.37657 0.21537 0.0
C462 C 0.12445 0.37433 0.27951 0.0
C463 C 0.1293 0.36806 0.46611 0.0
C464 C 0.12779 0.37022 0.40176 0.0
H465 H 0.14428 0.37077 0.0898 0.0
H466 H 0.14698 0.36538 0.19462 0.0
H467 H 0.11488 0.39918 0.2993 0.0
H468 H 0.10767 0.37718 0.58944 0.0
H469 H 0.10507 0.38032 0.48408 0.0
C470 C 0.88611 0.86327 0.84956 0.0
C471 C 0.89277 0.87804 0.87401 0.0
C472 C 0.88517 0.86153 0.78938 0.0
C473 C 0.90257 0.87757 0.65134 0.0
H474 H 0.86017 0.85958 0.58651 0.0
C475 C 0.88637 0.87827 0.40455 0.0
C476 C 0.87773 0.86418 0.38224 0.0
C477 C 0.88929 0.87969 0.4644 0.0
C478 C 0.87219 0.8644 0.60393 0.0
H479 H 0.90399 0.90244 0.85443 0.0
H480 H 0.90226 0.89939 0.74884 0.0
H481 H 0.86321 0.86276 0.69122 0.0
H482 H 0.86595 0.84026 0.40491 0.0
H483 H 0.87126 0.84262 0.50909 0.0
H484 H 0.91152 0.87919 0.56377 0.0
C485 C 0.89787 0.88915 0.77651 0.0
C486 C 0.87391 0.86625 0.66392 0.0
C487 C 0.89877 0.89092 0.83691 0.0
C488 C 0.87252 0.85133 0.42076 0.0
C489 C 0.87547 0.85273 0.4805 0.0
C490 C 0.90086 0.87567 0.59117 0.0
C491 C 0.89088 0.87449 0.7522 0.0
C492 C 0.88913 0.87279 0.6883 0.0
C493 C 0.88364 0.86704 0.50308 0.0
C494 C 0.88566 0.86901 0.56687 0.0
H495 H 0.88147 0.85306 0.87688 0.0
H496 H 0.87998 0.84998 0.77191 0.0
H497 H 0.91451 0.8825 0.66901 0.0
H498 H 0.89053 0.8884 0.37597 0.0
H499 H 0.89548 0.89094 0.48046 0.0
C500 C 0.39739 0.61549 0.66181 0.0
C501 C 0.3843 0.62158 0.6242 0.0
C502 C 0.39607 0.61708 0.72196 0.0
C503 C 0.37383 0.6407 0.83557 0.0
H504 H 0.38718 0.60258 0.93372 0.0
C505 C 0.36056 0.63753 0.0826 0.0
C506 C 0.37358 0.63076 0.11909 0.0
C507 C 0.36186 0.6368 0.0221 0.0
C508 C 0.38359 0.61341 0.907 0.0
H509 H 0.35964 0.63435 0.62033 0.0
H510 H 0.35728 0.63702 0.72559 0.0
H511 H 0.38942 0.6007 0.82849 0.0
H512 H 0.3983 0.61809 0.12057 0.0
H513 H 0.40064 0.61695 0.01513 0.0
H514 H 0.36798 0.6534 0.91428 0.0
C515 C 0.36865 0.63114 0.7084 0.0
C516 C 0.38487 0.61234 0.84665 0.0
C517 C 0.36996 0.62954 0.64811 0.0
C518 C 0.388 0.62336 0.09374 0.0
C519 C 0.38929 0.62262 0.03328 0.0
C520 C 0.37255 0.64178 0.89602 0.0
C521 C 0.38163 0.6248 0.74604 0.0
C522 C 0.38007 0.62598 0.81021 0.0
C523 C 0.37621 0.62927 0.99673 0.0
C524 C 0.37747 0.62816 0.93244 0.0
H525 H 0.40865 0.60937 0.64487 0.0
H526 H 0.40643 0.61232 0.74965 0.0
H527 H 0.37023 0.65151 0.80876 0.0
H528 H 0.34926 0.6433 0.10071 0.0
H529 H 0.35147 0.64187 0.99521 0.0
C530 C 0.63718 0.15058 0.92333 0.0
C531 C 0.63069 0.13795 0.88696 0.0
C532 C 0.63551 0.14926 0.98367 0.0
C533 C 0.62886 0.11822 0.10243 0.0
H534 H 0.61856 0.15776 0.19207 0.0
C535 C 0.61655 0.11466 0.34993 0.0
C536 C 0.62385 0.12737 0.38424 0.0
C537 C 0.61681 0.11589 0.28918 0.0
C538 C 0.62162 0.14663 0.16775 0.0
H539 H 0.61717 0.11408 0.88558 0.0
H540 H 0.61414 0.11185 0.99107 0.0
H541 H 0.61971 0.16001 0.0863 0.0
H542 H 0.63716 0.15136 0.38146 0.0
H543 H 0.63775 0.15342 0.27554 0.0
H544 H 0.63087 0.10487 0.18393 0.0
C545 C 0.6207 0.12269 0.97284 0.0
C546 C 0.62226 0.14792 0.10708 0.0
C547 C 0.62234 0.12403 0.91235 0.0
C548 C 0.63139 0.14135 0.35637 0.0
C549 C 0.63163 0.14259 0.29561 0.0
C550 C 0.62822 0.11694 0.16313 0.0
C551 C 0.62732 0.13528 0.00924 0.0
C552 C 0.62599 0.13375 0.07367 0.0
C553 C 0.62435 0.12987 0.26125 0.0
C554 C 0.62468 0.13115 0.19657 0.0
H555 H 0.64372 0.16147 0.9053 0.0
H556 H 0.64098 0.15907 0.01038 0.0
H557 H 0.63201 0.10712 0.07812 0.0
H558 H 0.61059 0.10374 0.36995 0.0
H559 H 0.61089 0.10597 0.26409 0.0
C560 C 0.89049 0.40456 0.15695 0.0
C561 C 0.88362 0.39151 0.12317 0.0
C562 C 0.89052 0.40339 0.21774 0.0
C563 C 0.88734 0.37265 0.33995 0.0
H564 H 0.8749 0.41171 0.42895 0.0
C565 C 0.87075 0.36802 0.58316 0.0
C566 C 0.87642 0.3809 0.62 0.0
C567 C 0.87278 0.36943 0.52301 0.0
C568 C 0.87864 0.40075 0.40482 0.0
H569 H 0.87143 0.36697 0.12693 0.0
H570 H 0.87135 0.36501 0.23287 0.0
H571 H 0.87613 0.41394 0.32313 0.0
H572 H 0.88888 0.4053 0.62243 0.0
H573 H 0.89254 0.40771 0.51719 0.0
H574 H 0.88971 0.35942 0.42155 0.0
C575 C 0.8769 0.37606 0.21238 0.0
C576 C 0.87933 0.40202 0.34412 0.0
C577 C 0.87685 0.37724 0.1516 0.0
C578 C 0.88435 0.39516 0.59527 0.0
C579 C 0.88635 0.39659 0.53494 0.0
C580 C 0.88665 0.37138 0.4006 0.0
C581 C 0.88371 0.38914 0.24621 0.0
C582 C 0.88355 0.38795 0.31091 0.0
C583 C 0.88053 0.38376 0.49808 0.0
C584 C 0.88214 0.38537 0.43377 0.0
H585 H 0.89585 0.41571 0.13648 0.0
H586 H 0.89604 0.4136 0.24244 0.0
H587 H 0.89094 0.36165 0.3158 0.0
H588 H 0.86456 0.35687 0.60066 0.0
H589 H 0.86793 0.35942 0.49591 0.0
C590 C 0.39611 0.12576 0.34953 0.0
C591 C 0.38301 0.13168 0.38535 0.0
C592 C 0.3947 0.12739 0.28904 0.0
C593 C 0.36278 0.13283 0.16981 0.0
H594 H 0.4029 0.14392 0.07867 0.0
C595 C 0.359 0.14392 0.92035 0.0
C596 C 0.37228 0.13709 0.88727 0.0
C597 C 0.36018 0.1439 0.98113 0.0
C598 C 0.39161 0.14064 0.10343 0.0
H599 H 0.35821 0.14415 0.38554 0.0
H600 H 0.3558 0.14711 0.27968 0.0
H601 H 0.40517 0.14316 0.18457 0.0
H602 H 0.3972 0.12486 0.8923 0.0
H603 H 0.39918 0.12469 0.99829 0.0
H604 H 0.34925 0.1302 0.0886 0.0
C605 C 0.3671 0.14104 0.29853 0.0
C606 C 0.39291 0.14023 0.16417 0.0
C607 C 0.36852 0.13944 0.3592 0.0
C608 C 0.38676 0.13025 0.91641 0.0
C609 C 0.38794 0.13025 0.97721 0.0
C610 C 0.36148 0.13325 0.10901 0.0
C611 C 0.38015 0.13497 0.26272 0.0
C612 C 0.37854 0.13619 0.19813 0.0
C613 C 0.37467 0.13709 0.01033 0.0
C614 C 0.37592 0.13704 0.07506 0.0
H615 H 0.40744 0.11968 0.36812 0.0
H616 H 0.40488 0.12236 0.26284 0.0
H617 H 0.35152 0.12944 0.19457 0.0
H618 H 0.34768 0.14933 0.89934 0.0
H619 H 0.34982 0.14945 0.00523 0.0
C620 C 0.63746 0.63758 0.06995 0.0
C621 C 0.63105 0.62469 0.10621 0.0
C622 C 0.6364 0.6363 0.00947 0.0
C623 C 0.6136 0.61433 0.89069 0.0
H624 H 0.65327 0.62783 0.80093 0.0
C625 C 0.61883 0.6013 0.6449 0.0
C626 C 0.62585 0.61406 0.60947 0.0
C627 C 0.61926 0.60258 0.70548 0.0
C628 C 0.642 0.62419 0.82525 0.0
H629 H 0.61828 0.60043 0.10726 0.0
H630 H 0.61653 0.59815 0.00147 0.0
H631 H 0.65418 0.63007 0.90649 0.0
H632 H 0.6388 0.63824 0.60997 0.0
H633 H 0.63942 0.64056 0.71564 0.0
H634 H 0.60143 0.60845 0.80934 0.0
C635 C 0.62224 0.60932 0.01993 0.0
C636 C 0.64253 0.62547 0.8858 0.0
C637 C 0.62331 0.61059 0.08056 0.0
C638 C 0.63333 0.62815 0.636 0.0
C639 C 0.63376 0.62944 0.69661 0.0
C640 C 0.61307 0.61306 0.83007 0.0
C641 C 0.62892 0.62211 0.98369 0.0
C642 C 0.62832 0.62059 0.91927 0.0
C643 C 0.62673 0.61667 0.7321 0.0
C644 C 0.62726 0.618 0.7966 0.0
H645 H 0.64343 0.64866 0.0882 0.0
H646 H 0.64141 0.6465 0.98287 0.0
H647 H 0.60236 0.61067 0.91511 0.0
H648 H 0.61301 0.59025 0.62591 0.0
H649 H 0.61394 0.59242 0.7315 0.0
C650 C 0.12225 0.87438 0.45495 0.0
C651 C 0.1362 0.86622 0.4295 0.0
C652 C 0.12092 0.87491 0.51536 0.0
C653 C 0.13674 0.85452 0.65192 0.0
H654 H 0.12169 0.89615 0.72043 0.0
C655 C 0.14131 0.86793 0.89885 0.0
C656 C 0.12712 0.87601 0.92317 0.0
C657 C 0.14212 0.86579 0.83872 0.0
C658 C 0.12574 0.88438 0.70189 0.0
H659 H 0.15967 0.85217 0.4474 0.0
H660 H 0.1575 0.85337 0.55288 0.0
H661 H 0.12378 0.89438 0.61518 0.0
H662 H 0.10242 0.88772 0.90373 0.0
H663 H 0.10386 0.88396 0.79909 0.0
H664 H 0.13891 0.84466 0.7391 0.0
C665 C 0.14744 0.85911 0.52615 0.0
C666 C 0.12691 0.88335 0.64159 0.0
C667 C 0.14874 0.85851 0.4657 0.0
C668 C 0.11358 0.88153 0.88638 0.0
C669 C 0.11443 0.87946 0.82639 0.0
C670 C 0.13565 0.85559 0.71237 0.0
C671 C 0.13355 0.86738 0.55166 0.0
C672 C 0.13236 0.8684 0.61587 0.0
C673 C 0.1288 0.87177 0.80187 0.0
C674 C 0.13006 0.87052 0.73789 0.0
H675 H 0.11232 0.88034 0.42823 0.0
H676 H 0.10991 0.88114 0.53362 0.0
H677 H 0.14078 0.84275 0.63342 0.0
H678 H 0.15194 0.86353 0.9261 0.0
H679 H 0.1534 0.8599 0.82092 0.0
C680 C 0.86884 0.63374 0.8508 0.0
C681 C 0.88331 0.6261 0.87747 0.0
C682 C 0.8674 0.63498 0.79003 0.0
C683 C 0.89315 0.63311 0.65553 0.0
H684 H 0.84931 0.62311 0.58112 0.0
C685 C 0.88657 0.62224 0.40814 0.0
C686 C 0.87215 0.62923 0.37903 0.0
C687 C 0.88782 0.62235 0.46895 0.0
C688 C 0.8616 0.62613 0.60119 0.0
H689 H 0.9077 0.61394 0.86102 0.0
H690 H 0.90512 0.61597 0.75563 0.0
H691 H 0.85169 0.62292 0.68706 0.0
H692 H 0.84772 0.64179 0.39119 0.0
H693 H 0.84998 0.64207 0.49701 0.0
H694 H 0.90309 0.6362 0.56969 0.0
C695 C 0.89496 0.6212 0.78146 0.0
C696 C 0.86295 0.62605 0.66198 0.0
C697 C 0.89639 0.61995 0.84203 0.0
C698 C 0.85899 0.63626 0.41216 0.0
C699 C 0.86024 0.63634 0.47292 0.0
C700 C 0.8918 0.63318 0.59478 0.0
C701 C 0.88042 0.62864 0.7546 0.0
C702 C 0.87877 0.62944 0.68993 0.0
C703 C 0.87468 0.62942 0.5021 0.0
C704 C 0.87603 0.6296 0.56682 0.0
H705 H 0.85854 0.63863 0.87681 0.0
H706 H 0.85611 0.64096 0.77079 0.0
H707 H 0.90546 0.63605 0.67556 0.0
H708 H 0.89692 0.6167 0.38399 0.0
H709 H 0.89902 0.61672 0.49002 0.0
C710 C 0.13674 0.14119 0.59768 0.0
C711 C 0.13133 0.12803 0.63471 0.0
C712 C 0.13572 0.13958 0.53732 0.0
C713 C 0.11492 0.11523 0.41982 0.0
H714 H 0.1536 0.13127 0.32993 0.0
C715 C 0.12213 0.10133 0.17505 0.0
C716 C 0.12791 0.11459 0.13914 0.0
C717 C 0.12228 0.10288 0.23557 0.0
C718 C 0.14261 0.12689 0.3543 0.0
H719 H 0.12029 0.10297 0.63726 0.0
H720 H 0.11866 0.1001 0.53174 0.0
H721 H 0.15403 0.13422 0.43521 0.0
H722 H 0.13835 0.13992 0.1387 0.0
H723 H 0.13853 0.14264 0.24413 0.0
H724 H 0.10354 0.10785 0.3387 0.0
C725 C 0.12354 0.11174 0.54947 0.0
C726 C 0.14285 0.12859 0.41468 0.0
C727 C 0.12454 0.11335 0.60996 0.0
C728 C 0.13387 0.12943 0.16508 0.0
C729 C 0.13405 0.13096 0.22556 0.0
C730 C 0.11469 0.11351 0.35935 0.0
C731 C 0.1293 0.12477 0.51245 0.0
C732 C 0.12898 0.12284 0.44818 0.0
C733 C 0.12826 0.11771 0.26153 0.0
C734 C 0.12852 0.11937 0.32587 0.0
H735 H 0.14194 0.15271 0.61526 0.0
H736 H 0.13998 0.14998 0.51009 0.0
H737 H 0.10395 0.11084 0.44425 0.0
H738 H 0.11747 0.08972 0.15648 0.0
H739 H 0.11792 0.09237 0.26206 0.0
C740 C 0.60841 0.38255 0.33721 0.0
C741 C 0.62125 0.37629 0.37552 0.0
C742 C 0.61003 0.38108 0.27707 0.0
C743 C 0.64239 0.37546 0.16332 0.0
H744 H 0.60244 0.36575 0.06646 0.0
C745 C 0.64687 0.36542 0.91493 0.0
C746 C 0.63387 0.37269 0.87947 0.0
C747 C 0.64551 0.36524 0.97556 0.0
C748 C 0.61369 0.36864 0.09282 0.0
H749 H 0.64578 0.36334 0.38053 0.0
H750 H 0.64855 0.36063 0.2753 0.0
H751 H 0.59971 0.36604 0.17191 0.0
H752 H 0.60927 0.38555 0.88012 0.0
H753 H 0.60699 0.38538 0.98578 0.0
H754 H 0.65634 0.37816 0.08411 0.0
C755 C 0.6373 0.36686 0.29191 0.0
C756 C 0.61213 0.36879 0.15332 0.0
C757 C 0.63566 0.36831 0.35223 0.0
C758 C 0.61951 0.37982 0.90608 0.0
C759 C 0.61814 0.37962 0.9667 0.0
C760 C 0.64395 0.37531 0.10276 0.0
C761 C 0.62454 0.37331 0.25359 0.0
C762 C 0.62643 0.37233 0.18934 0.0
C763 C 0.63111 0.37229 0.0022 0.0
C764 C 0.62959 0.37202 0.06673 0.0
H765 H 0.59715 0.38882 0.35356 0.0
H766 H 0.60007 0.38641 0.24891 0.0
H767 H 0.65361 0.37847 0.18967 0.0
H768 H 0.65809 0.35977 0.89589 0.0
H769 H 0.65564 0.35934 0.00153 0.0
C770 C 0.35869 0.8639 0.04559 0.0
C771 C 0.37175 0.87044 0.08168 0.0
C772 C 0.36006 0.8649 0.98505 0.0
C773 C 0.38179 0.88895 0.86929 0.0
H774 H 0.36969 0.85105 0.77282 0.0
C775 C 0.39698 0.88835 0.62548 0.0
C776 C 0.38423 0.88214 0.58757 0.0
C777 C 0.39538 0.88642 0.68561 0.0
C778 C 0.37294 0.8618 0.79914 0.0
H779 H 0.39658 0.88294 0.08253 0.0
H780 H 0.39898 0.88457 0.97717 0.0
H781 H 0.36687 0.84865 0.87833 0.0
H782 H 0.35988 0.86883 0.58299 0.0
H783 H 0.35701 0.86562 0.68813 0.0
H784 H 0.3878 0.90214 0.79039 0.0
C785 C 0.38759 0.87888 0.99559 0.0
C786 C 0.37133 0.86043 0.85953 0.0
C787 C 0.38625 0.87785 0.056 0.0
C788 C 0.36995 0.87374 0.61106 0.0
C789 C 0.36834 0.87182 0.67128 0.0
C790 C 0.38338 0.89034 0.80903 0.0
C791 C 0.37448 0.87249 0.95943 0.0
C792 C 0.37583 0.87397 0.89525 0.0
C793 C 0.38098 0.87826 0.70924 0.0
C794 C 0.37906 0.87676 0.77327 0.0
H795 H 0.34736 0.85812 0.06404 0.0
H796 H 0.34968 0.86 0.95829 0.0
H797 H 0.38507 0.89971 0.89556 0.0
H798 H 0.40819 0.89481 0.6088 0.0
H799 H 0.40549 0.89127 0.71364 0.0
C800 C 0.13633 0.68969 0.10608 0.0
C801 C 0.12877 0.67919 0.14837 0.0
C802 C 0.13538 0.70716 0.11017 0.0
C803 C 0.12866 0.74103 0.21481 0.0
H804 H 0.12144 0.76832 0.07502 0.0
C805 C 0.12176 0.81336 0.22151 0.0
C806 C 0.13109 0.82259 0.1799 0.0
C807 C 0.12007 0.79591 0.2173 0.0
C808 C 0.12358 0.76088 0.11439 0.0
H809 H 0.11424 0.67887 0.22818 0.0
H810 H 0.11247 0.70945 0.23505 0.0
H811 H 0.12105 0.73773 0.06892 0.0
H812 H 0.14567 0.82075 0.10056 0.0
H813 H 0.14279 0.79033 0.0934 0.0
H814 H 0.13134 0.76421 0.26017 0.0
C815 C 0.11927 0.70411 0.199 0.0
C816 C 0.12337 0.74335 0.11091 0.0
C817 C 0.12022 0.68659 0.1949 0.0
C818 C 0.1384 0.81403 0.13335 0.0
C819 C 0.13666 0.79659 0.12905 0.0
C820 C 0.12884 0.75858 0.2183 0.0
C821 C 0.12683 0.71459 0.15661 0.0
C822 C 0.1261 0.73322 0.16096 0.0
C823 C 0.12761 0.78731 0.17126 0.0
C824 C 0.12649 0.76869 0.16802 0.0
H825 H 0.14307 0.68444 0.06972 0.0
H826 H 0.14159 0.71485 0.0773 0.0
H827 H 0.13102 0.73361 0.25407 0.0
H828 H 0.11592 0.81956 0.25785 0.0
H829 H 0.11284 0.78914 0.2501 0.0
C830 C 0.56638 0.87927 0.31129 0.0
C831 C 0.57609 0.88307 0.36149 0.0
C832 C 0.54843 0.88008 0.31155 0.0
C833 C 0.51151 0.87633 0.40608 0.0
H834 H 0.48697 0.89985 0.28116 0.0
C835 C 0.43706 0.88183 0.40108 0.0
C836 C 0.42872 0.88144 0.34642 0.0
C837 C 0.45503 0.88274 0.40521 0.0
C838 C 0.49356 0.89299 0.31597 0.0
H839 H 0.57452 0.89063 0.4515 0.0
H840 H 0.54303 0.8917 0.45214 0.0
H841 H 0.51829 0.90009 0.28381 0.0
H842 H 0.43274 0.88121 0.25329 0.0
H843 H 0.4639 0.88212 0.26038 0.0
H844 H 0.48689 0.86865 0.43721 0.0
C845 C 0.54942 0.88822 0.41256 0.0
C846 C 0.51152 0.89325 0.31759 0.0
C847 C 0.56742 0.8877 0.41204 0.0
C848 C 0.43874 0.88169 0.29609 0.0
C849 C 0.45667 0.88235 0.3002 0.0
C850 C 0.49351 0.87585 0.40401 0.0
C851 C 0.53976 0.88444 0.36226 0.0
C852 C 0.52068 0.88483 0.36241 0.0
C853 C 0.4651 0.88305 0.35477 0.0
C854 C 0.48427 0.88406 0.3586 0.0
H855 H 0.57264 0.87569 0.2716 0.0
H856 H 0.5413 0.87698 0.2723 0.0
H857 H 0.51828 0.86961 0.44086 0.0
H858 H 0.42969 0.88174 0.44067 0.0
H859 H 0.46099 0.88348 0.44798 0.0
C860 C 0.38452 0.32173 0.68457 0.0
C861 C 0.37421 0.32916 0.64039 0.0
C862 C 0.38554 0.3042 0.69086 0.0
C863 C 0.3774 0.26449 0.61118 0.0
H864 H 0.38078 0.2444 0.7658 0.0
C865 C 0.37438 0.19217 0.65544 0.0
C866 C 0.38635 0.18563 0.69642 0.0
C867 C 0.37249 0.20961 0.64741 0.0
C868 C 0.37998 0.24981 0.72228 0.0
H869 H 0.35674 0.32389 0.56846 0.0
H870 H 0.35823 0.2934 0.58016 0.0
H871 H 0.37809 0.27481 0.75459 0.0
H872 H 0.40578 0.19237 0.76076 0.0
H873 H 0.40244 0.22261 0.74684 0.0
H874 H 0.37915 0.23938 0.57911 0.0
C875 C 0.36582 0.30109 0.60933 0.0
C876 C 0.37848 0.26729 0.7158 0.0
C877 C 0.36487 0.31862 0.60284 0.0
C878 C 0.39641 0.19693 0.72888 0.0
C879 C 0.39442 0.2143 0.72119 0.0
C880 C 0.37879 0.24698 0.61771 0.0
C881 C 0.37619 0.29362 0.65337 0.0
C882 C 0.37732 0.27491 0.66016 0.0
C883 C 0.3824 0.22088 0.68058 0.0
C884 C 0.38025 0.23944 0.67335 0.0
H885 H 0.39197 0.32944 0.7141 0.0
H886 H 0.39389 0.29897 0.72468 0.0
H887 H 0.37678 0.26988 0.56761 0.0
H888 H 0.36643 0.18382 0.62972 0.0
H889 H 0.36303 0.21427 0.61601 0.0
C890 C 0.93736 0.11788 0.92155 0.0
C891 C 0.92989 0.12228 0.86738 0.0
C892 C 0.95525 0.11732 0.9288 0.0
C893 C 0.99587 0.13185 0.85883 0.0
H894 H 0.01662 0.10097 0.9719 0.0
C895 C 0.06989 0.12294 0.89196 0.0
C896 C 0.07553 0.12511 0.94977 0.0
C897 C 0.05228 0.12169 0.87863 0.0
C898 C 0.01097 0.10964 0.94014 0.0
H899 H 0.93535 0.12908 0.77783 0.0
H900 H 0.96648 0.12739 0.78963 0.0
H901 H 0.98566 0.10008 0.95388 0.0
H902 H 0.06721 0.12724 0.03897 0.0
H903 H 0.0366 0.12458 0.0158 0.0
H904 H 0.02143 0.14107 0.8445 0.0
C905 C 0.95861 0.12493 0.82726 0.0
C906 C 0.99319 0.10926 0.93006 0.0
C907 C 0.94071 0.12579 0.82031 0.0
C908 C 0.06327 0.12566 0.99398 0.0
C909 C 0.04575 0.12404 0.98082 0.0
C910 C 0.0137 0.132 0.86819 0.0
C911 C 0.96617 0.12083 0.88176 0.0
C912 C 0.98531 0.12055 0.88994 0.0
C913 C 0.04006 0.12217 0.92304 0.0
C914 C 0.02138 0.12108 0.90957 0.0
H915 H 0.9294 0.11526 0.95886 0.0
H916 H 0.96047 0.11447 0.97177 0.0
H917 H 0.99036 0.14095 0.82833 0.0
H918 H 0.07905 0.12252 0.857 0.0
H919 H 0.0482 0.12021 0.83373 0.0
C920 C 0.13807 0.30592 0.88711 0.0
C921 C 0.13103 0.314 0.83736 0.0
C922 C 0.13813 0.28835 0.89193 0.0
C923 C 0.11679 0.25045 0.83439 0.0
H924 H 0.15768 0.22752 0.89308 0.0
C925 C 0.12472 0.1782 0.82505 0.0
C926 C 0.13232 0.17014 0.87392 0.0
C927 C 0.12447 0.19577 0.82038 0.0
C928 C 0.14609 0.23373 0.87721 0.0
H929 H 0.1185 0.30994 0.75367 0.0
H930 H 0.11871 0.27938 0.76202 0.0
H931 H 0.15731 0.25816 0.8864 0.0
H932 H 0.1455 0.17426 0.95645 0.0
H933 H 0.14486 0.20479 0.9486 0.0
H934 H 0.10555 0.22604 0.82535 0.0
C935 C 0.12402 0.2866 0.79757 0.0
C936 C 0.14588 0.25129 0.87342 0.0
C937 C 0.124 0.30413 0.79268 0.0
C938 C 0.13961 0.18004 0.91803 0.0
C939 C 0.13934 0.19757 0.91341 0.0
C940 C 0.11699 0.23289 0.83829 0.0
C941 C 0.1311 0.27851 0.84719 0.0
C942 C 0.13124 0.25985 0.85193 0.0
C943 C 0.13181 0.20565 0.8645 0.0
C944 C 0.13163 0.22432 0.85976 0.0
H945 H 0.14356 0.31315 0.92235 0.0
H946 H 0.14352 0.28249 0.931 0.0
H947 H 0.10523 0.25669 0.81839 0.0
H948 H 0.11905 0.17094 0.79019 0.0
H949 H 0.11875 0.2016 0.78181 0.0
C950 C 0.07574 0.89053 0.19225 0.0
C951 C 0.08651 0.88188 0.15428 0.0
C952 C 0.05788 0.89067 0.18317 0.0
C953 C 0.02429 0.88263 0.06978 0.0
H954 H 0.99404 0.87721 0.20135 0.0
C955 C 0.95399 0.86165 0.04326 0.0
C956 C 0.94136 0.86999 0.07499 0.0
C957 C 0.97144 0.86468 0.05379 0.0
C958 C 1.00231 0.87895 0.16425 0.0
H959 H 0.08688 0.86664 0.07687 0.0
H960 H 0.0559 0.86662 0.06178 0.0
H961 H 0.02507 0.87957 0.21796 0.0
H962 H 0.93719 0.88799 0.14317 0.0
H963 H 0.96786 0.89316 0.16211 0.0
H964 H 1.00159 0.88154 0.01606 0.0
C965 C 0.06119 0.87358 0.09798 0.0
C966 C 0.0201 0.88033 0.17372 0.0
C967 C 0.07901 0.87349 0.10691 0.0
C968 C 0.94661 0.88138 0.11795 0.0
C969 C 0.96415 0.88429 0.12895 0.0
C970 C 0.00656 0.88114 0.06035 0.0
C971 C 0.05037 0.88216 0.13595 0.0
C972 C 0.03134 0.88192 0.1265 0.0
C973 C 0.97674 0.87604 0.09665 0.0
C974 C 0.9954 0.87902 0.10739 0.0
H975 H 0.0811 0.89719 0.22904 0.0
H976 H 0.04997 0.89758 0.2129 0.0
H977 H 0.03248 0.88425 0.03242 0.0
H978 H 0.95044 0.8528 0.00985 0.0
H979 H 0.98081 0.85795 0.02875 0.0
C980 C 0.37258 0.68582 0.3208 0.0
C981 C 0.38901 0.67849 0.3261 0.0
C982 C 0.37064 0.70334 0.32126 0.0
C983 C 0.39167 0.74303 0.36355 0.0
H984 H 0.36653 0.76271 0.23213 0.0
C985 C 0.38024 0.81532 0.32934 0.0
C986 C 0.3853 0.82139 0.27437 0.0
C987 C 0.37929 0.79794 0.34084 0.0
C988 C 0.37349 0.75739 0.26928 0.0
H989 H 0.41616 0.68377 0.33868 0.0
H990 H 0.41271 0.71431 0.3406 0.0
H991 H 0.36741 0.73212 0.2452 0.0
H992 H 0.39295 0.81399 0.18813 0.0
H993 H 0.39088 0.78385 0.20781 0.0
H994 H 0.39791 0.76837 0.38709 0.0
C995 C 0.40136 0.70651 0.33572 0.0
C996 C 0.3739 0.7399 0.27697 0.0
C997 C 0.40334 0.68902 0.33429 0.0
C998 C 0.38908 0.80975 0.23102 0.0
C999 C 0.3878 0.79247 0.24212 0.0
C1000 C 0.39101 0.76057 0.35639 0.0
C1001 C 0.38504 0.71388 0.32809 0.0
C1002 C 0.38326 0.7325 0.32356 0.0
C1003 C 0.38299 0.78636 0.29716 0.0
C1004 C 0.38219 0.76791 0.30851 0.0
H1005 H 0.36128 0.67805 0.31432 0.0
H1006 H 0.35789 0.70867 0.31561 0.0
H1007 H 0.39891 0.73768 0.4 0.0
H1008 H 0.37728 0.82399 0.36364 0.0
H1009 H 0.37551 0.79355 0.38364 0.0
C1010 C 0.56308 0.15261 0.53841 0.0
C1011 C 0.5746 0.14273 0.5721 0.0
C1012 C 0.54535 0.15136 0.54642 0.0
C1013 C 0.5119 0.12318 0.60802 0.0
H1014 H 0.48345 0.16313 0.59282 0.0
C1015 C 0.43937 0.12353 0.66275 0.0
C1016 C 0.42831 0.13217 0.62351 0.0
C1017 C 0.45724 0.12474 0.65748 0.0
C1018 C 0.4912 0.15184 0.59669 0.0
H1019 H 0.57646 0.12389 0.64126 0.0
H1020 H 0.54549 0.12194 0.65616 0.0
H1021 H 0.51454 0.16553 0.58351 0.0
H1022 H 0.42743 0.14885 0.54781 0.0
H1023 H 0.4586 0.151 0.53882 0.0
H1024 H 0.48848 0.10955 0.62181 0.0
C1025 C 0.55016 0.13045 0.62268 0.0
C1026 C 0.50904 0.15319 0.59127 0.0
C1027 C 0.56794 0.13164 0.61441 0.0
C1028 C 0.43556 0.14205 0.57886 0.0
C1029 C 0.45343 0.14336 0.57388 0.0
C1030 C 0.49405 0.12185 0.61384 0.0
C1031 C 0.53862 0.14027 0.58863 0.0
C1032 C 0.51964 0.13887 0.59645 0.0
C1033 C 0.46448 0.13472 0.61312 0.0
C1034 C 0.48348 0.13615 0.60787 0.0
H1035 H 0.56774 0.16121 0.50517 0.0
H1036 H 0.5369 0.1589 0.51865 0.0
H1037 H 0.51957 0.11183 0.61138 0.0
H1038 H 0.43425 0.1158 0.69768 0.0
H1039 H 0.46539 0.11805 0.68873 0.0
C1040 C 0.88342 0.20246 0.79042 0.0
C1041 C 0.8766 0.1927 0.83617 0.0
C1042 C 0.88329 0.22004 0.79251 0.0
C1043 C 0.86153 0.25546 0.86297 0.0
H1044 H 0.90124 0.28107 0.81266 0.0
C1045 C 0.86802 0.32651 0.90414 0.0
C1046 C 0.8749 0.33676 0.8598 0.0
C1047 C 0.86826 0.309 0.9 0.0
C1048 C 0.88996 0.27412 0.82618 0.0
H1049 H 0.86439 0.19381 0.92021 0.0
H1050 H 0.86429 0.22445 0.92405 0.0
H1051 H 0.90167 0.25042 0.8083 0.0
H1052 H 0.88741 0.33658 0.77613 0.0
H1053 H 0.88768 0.30596 0.76867 0.0
H1054 H 0.84981 0.27912 0.88088 0.0
C1055 C 0.86955 0.21851 0.88619 0.0
C1056 C 0.89021 0.25655 0.82374 0.0
C1057 C 0.8697 0.20093 0.88414 0.0
C1058 C 0.88205 0.32906 0.81116 0.0
C1059 C 0.88228 0.3115 0.80702 0.0
C1060 C 0.86127 0.27302 0.86537 0.0
C1061 C 0.87632 0.22828 0.84035 0.0
C1062 C 0.87602 0.247 0.84235 0.0
C1063 C 0.87535 0.30126 0.85137 0.0
C1064 C 0.87551 0.28258 0.84728 0.0
H1065 H 0.8888 0.19654 0.75271 0.0
H1066 H 0.88842 0.22717 0.75616 0.0
H1067 H 0.85026 0.24852 0.87665 0.0
H1068 H 0.86248 0.33199 0.94239 0.0
H1069 H 0.86306 0.30151 0.93541 0.0
C1070 C 0.62773 0.80349 0.33149 0.0
C1071 C 0.61633 0.81056 0.28974 0.0
C1072 C 0.62914 0.78602 0.33827 0.0
C1073 C 0.62159 0.74652 0.26004 0.0
H1074 H 0.62398 0.72587 0.41398 0.0
C1075 C 0.61836 0.67445 0.2958 0.0
C1076 C 0.62902 0.66729 0.33957 0.0
C1077 C 0.6168 0.69192 0.28982 0.0
C1078 C 0.62355 0.73144 0.37066 0.0
H1079 H 0.59738 0.80478 0.22269 0.0
H1080 H 0.59982 0.77435 0.23465 0.0
H1081 H 0.62132 0.75635 0.40382 0.0
H1082 H 0.64653 0.67295 0.41103 0.0
H1083 H 0.64404 0.70337 0.39997 0.0
H1084 H 0.62397 0.72167 0.22677 0.0
C1085 C 0.60778 0.78231 0.26179 0.0
C1086 C 0.622 0.74892 0.36487 0.0
C1087 C 0.60631 0.79977 0.25521 0.0
C1088 C 0.63815 0.67803 0.37699 0.0
C1089 C 0.63663 0.69549 0.37089 0.0
C1090 C 0.62322 0.72906 0.26581 0.0
C1091 C 0.61925 0.77523 0.30324 0.0
C1092 C 0.62097 0.75666 0.3095 0.0
C1093 C 0.6259 0.70267 0.32735 0.0
C1094 C 0.6242 0.72128 0.32119 0.0
H1095 H 0.63566 0.81145 0.35875 0.0
H1096 H 0.63821 0.78095 0.37024 0.0
H1097 H 0.6211 0.75213 0.21676 0.0
H1098 H 0.6111 0.66655 0.26632 0.0
H1099 H 0.60824 0.697 0.2563 0.0
C1100 C 0.89975 0.68899 0.20971 0.0
C1101 C 0.88701 0.67803 0.18852 0.0
C1102 C 0.89782 0.70641 0.20367 0.0
C1103 C 0.87423 0.7394 0.11955 0.0
H1104 H 0.88906 0.76763 0.24683 0.0
C1105 C 0.8817 0.8114 0.09322 0.0
C1106 C 0.87709 0.82162 0.13988 0.0
C1107 C 0.88186 0.79388 0.09945 0.0
C1108 C 0.88467 0.75995 0.21108 0.0
H1109 H 0.86227 0.67683 0.14387 0.0
H1110 H 0.85881 0.70729 0.13378 0.0
H1111 H 0.89111 0.73715 0.25726 0.0
H1112 H 0.8688 0.82128 0.22957 0.0
H1113 H 0.86889 0.79069 0.24018 0.0
H1114 H 0.86755 0.7622 0.0737 0.0
C1115 C 0.8704 0.70238 0.15456 0.0
C1116 C 0.88607 0.74245 0.21676 0.0
C1117 C 0.87235 0.68491 0.16055 0.0
C1118 C 0.87247 0.81383 0.19278 0.0
C1119 C 0.87262 0.79628 0.19897 0.0
C1120 C 0.87283 0.7569 0.11387 0.0
C1121 C 0.88308 0.71335 0.17639 0.0
C1122 C 0.881 0.73195 0.1709 0.0
C1123 C 0.8774 0.78608 0.15245 0.0
C1124 C 0.87816 0.76741 0.15939 0.0
H1125 H 0.91125 0.68413 0.23121 0.0
H1126 H 0.90799 0.71445 0.22003 0.0
H1127 H 0.87031 0.73172 0.08319 0.0
H1128 H 0.8854 0.81693 0.05187 0.0
H1129 H 0.88586 0.78647 0.06297 0.0
C1130 C 0.63951 0.19203 0.61043 0.0
C1131 C 0.63031 0.18141 0.64832 0.0
C1132 C 0.63866 0.20953 0.61553 0.0
C1133 C 0.62681 0.24288 0.71894 0.0
H1134 H 0.62495 0.27128 0.58008 0.0
C1135 C 0.60903 0.31316 0.72601 0.0
C1136 C 0.61897 0.32448 0.69307 0.0
C1137 C 0.61088 0.29581 0.71975 0.0
C1138 C 0.62564 0.26352 0.61926 0.0
H1139 H 0.6129 0.18091 0.72116 0.0
H1140 H 0.61113 0.21134 0.72928 0.0
H1141 H 0.62722 0.24081 0.5709 0.0
H1142 H 0.63853 0.32643 0.62705 0.0
H1143 H 0.6417 0.29603 0.61589 0.0
H1144 H 0.62495 0.26559 0.7672 0.0
C1145 C 0.61929 0.20618 0.69629 0.0
C1146 C 0.62697 0.24605 0.61405 0.0
C1147 C 0.62022 0.1887 0.69139 0.0
C1148 C 0.63068 0.31804 0.6531 0.0
C1149 C 0.63245 0.30064 0.64652 0.0
C1150 C 0.62537 0.26031 0.7241 0.0
C1151 C 0.62851 0.21684 0.65849 0.0
C1152 C 0.62748 0.23549 0.66385 0.0
C1153 C 0.62265 0.28933 0.68012 0.0
C1154 C 0.62468 0.27083 0.67434 0.0
H1155 H 0.64747 0.18684 0.5769 0.0
H1156 H 0.64613 0.21731 0.58619 0.0
H1157 H 0.62753 0.2352 0.75829 0.0
H1158 H 0.59987 0.31767 0.75713 0.0
H1159 H 0.60298 0.28744 0.74569 0.0
C1160 C 0.94119 0.36301 0.89305 0.0
C1161 C 0.93103 0.37682 0.90831 0.0
C1162 C 0.95871 0.36508 0.8821 0.0
C1163 C 0.99585 0.38979 0.92173 0.0
H1164 H 0.01581 0.37351 0.77989 0.0
C1165 C 0.06884 0.39623 0.8791 0.0
C1166 C 0.07685 0.38323 0.84891 0.0
C1167 C 0.05089 0.3968 0.88325 0.0
C1168 C 0.01057 0.3779 0.82022 0.0
H1169 H 0.93124 0.40363 0.92414 0.0
H1170 H 0.96211 0.40712 0.90675 0.0
H1171 H 0.98483 0.37168 0.79319 0.0
H1172 H 0.07228 0.36051 0.80016 0.0
H1173 H 0.04127 0.36103 0.80952 0.0
H1174 H 0.02149 0.39523 0.9505 0.0
C1175 C 0.95638 0.39477 0.90257 0.0
C1176 C 0.99277 0.37697 0.82749 0.0
C1177 C 0.93874 0.39277 0.91223 0.0
C1178 C 0.06652 0.37082 0.82315 0.0
C1179 C 0.04864 0.37121 0.82821 0.0
C1180 C 0.0137 0.39042 0.91504 0.0
C1181 C 0.96651 0.38092 0.88741 0.0
C1182 C 0.98526 0.38281 0.87842 0.0
C1183 C 0.04051 0.38422 0.85824 0.0
C1184 C 0.02137 0.38435 0.86434 0.0
H1185 H 0.9356 0.35057 0.8895 0.0
H1186 H 0.96626 0.3542 0.87077 0.0
H1187 H 0.99036 0.39425 0.96166 0.0
H1188 H 0.07644 0.40604 0.89919 0.0
H1189 H 0.04519 0.4072 0.90584 0.0
C1190 C 0.43861 0.61305 0.34995 0.0
C1191 C 0.42831 0.62214 0.38814 0.0
C1192 C 0.45654 0.61367 0.35458 0.0
C1193 C 0.49228 0.62499 0.45602 0.0
H1194 H 0.51918 0.62562 0.31529 0.0
C1195 C 0.56492 0.63995 0.45708 0.0
C1196 C 0.57554 0.62963 0.42394 0.0
C1197 C 0.54702 0.63879 0.45225 0.0
C1198 C 0.51185 0.62529 0.35499 0.0
H1199 H 0.42886 0.63904 0.46123 0.0
H1200 H 0.46015 0.64042 0.46853 0.0
H1201 H 0.48788 0.62427 0.30823 0.0
H1202 H 0.57565 0.61014 0.35906 0.0
H1203 H 0.5443 0.60823 0.35029 0.0
H1204 H 0.51631 0.62631 0.50262 0.0
C1205 C 0.45437 0.63253 0.43564 0.0
C1206 C 0.49389 0.62448 0.35102 0.0
C1207 C 0.4364 0.63182 0.43126 0.0
C1208 C 0.56783 0.61827 0.38521 0.0
C1209 C 0.54989 0.61722 0.38001 0.0
C1210 C 0.51023 0.62593 0.45994 0.0
C1211 C 0.46469 0.62349 0.39726 0.0
C1212 C 0.48385 0.62433 0.40149 0.0
C1213 C 0.53928 0.62739 0.41384 0.0
C1214 C 0.52022 0.62612 0.40948 0.0
H1215 H 0.43282 0.60538 0.31645 0.0
H1216 H 0.46402 0.60629 0.32495 0.0
H1217 H 0.48504 0.62458 0.49588 0.0
H1218 H 0.5704 0.64885 0.48731 0.0
H1219 H 0.53922 0.64696 0.47833 0.0
C1220 C 0.43698 0.38274 0.58065 0.0
C1221 C 0.42921 0.3669 0.57438 0.0
C1222 C 0.45489 0.38416 0.58634 0.0
C1223 C 0.49527 0.3602 0.56087 0.0
H1224 H 0.51576 0.39493 0.6558 0.0
C1225 C 0.56855 0.37265 0.56183 0.0
C1226 C 0.57648 0.37732 0.61448 0.0
C1227 C 0.55061 0.37168 0.55685 0.0
C1228 C 0.5103 0.38502 0.62956 0.0
H1229 H 0.43408 0.34008 0.57118 0.0
H1230 H 0.46512 0.34246 0.58317 0.0
H1231 H 0.48465 0.39226 0.65012 0.0
H1232 H 0.57177 0.38443 0.70349 0.0
H1233 H 0.54061 0.38222 0.6955 0.0
H1234 H 0.5209 0.35249 0.54228 0.0
C1235 C 0.45753 0.35388 0.58178 0.0
C1236 C 0.49238 0.38365 0.62559 0.0
C1237 C 0.43968 0.35249 0.57535 0.0
C1238 C 0.56607 0.38093 0.66211 0.0
C1239 C 0.54815 0.37976 0.65738 0.0
C1240 C 0.51319 0.36145 0.56535 0.0
C1241 C 0.46544 0.36975 0.58662 0.0
C1242 C 0.48458 0.37122 0.59116 0.0
C1243 C 0.54014 0.37516 0.60464 0.0
C1244 C 0.52099 0.37389 0.5997 0.0
H1245 H 0.42928 0.39409 0.57973 0.0
H1246 H 0.46045 0.39661 0.58914 0.0
H1247 H 0.48982 0.35063 0.53312 0.0
H1248 H 0.5762 0.36991 0.52418 0.0
H1249 H 0.54497 0.3684 0.5152 0.0
C1250 C 0.06278 0.64931 0.03986 0.0
C1251 C 0.0743 0.63906 0.07209 0.0
C1252 C 0.04503 0.64777 0.04709 0.0
C1253 C 0.01168 0.6184 0.10203 0.0
H1254 H 0.98299 0.65831 0.0945 0.0
C1255 C 0.93897 0.61716 0.15394 0.0
C1256 C 0.92797 0.6265 0.1165 0.0
C1257 C 0.95684 0.61858 0.14958 0.0
C1258 C 0.9908 0.64703 0.09618 0.0
H1259 H 0.07618 0.61921 0.13779 0.0
H1260 H 0.04518 0.61672 0.15129 0.0
H1261 H 0.01407 0.66109 0.08662 0.0
H1262 H 0.92721 0.64467 0.04496 0.0
H1263 H 0.95838 0.64716 0.0375 0.0
H1264 H 0.98833 0.60439 0.11208 0.0
C1265 C 0.04986 0.62578 0.11958 0.0
C1266 C 0.00865 0.64861 0.0916 0.0
C1267 C 0.06765 0.62727 0.11212 0.0
C1268 C 0.93528 0.6373 0.07458 0.0
C1269 C 0.95316 0.63881 0.0705 0.0
C1270 C 0.99383 0.61684 0.10695 0.0
C1271 C 0.03831 0.63599 0.08703 0.0
C1272 C 0.01933 0.63431 0.09404 0.0
C1273 C 0.96415 0.62947 0.10796 0.0
C1274 C 0.98317 0.63113 0.10371 0.0
H1275 H 0.06743 0.65846 0.00838 0.0
H1276 H 0.03657 0.65565 0.02051 0.0
H1277 H 0.01944 0.60709 0.10323 0.0
H1278 H 0.93379 0.60872 0.18676 0.0
H1279 H 0.96494 0.61134 0.17946 0.0
C1280 C 0.14518 0.57838 0.06154 0.0
C1281 C 0.13416 0.58355 0.1057 0.0
C1282 C 0.14508 0.56178 0.04298 0.0
C1283 C 0.13232 0.51851 0.08405 0.0
H1284 H 0.13542 0.51146 0.91794 0.0
C1285 C 0.12475 0.45289 0.98095 0.0
C1286 C 0.13648 0.44882 0.93737 0.0
C1287 C 0.12391 0.46923 0.00218 0.0
C1288 C 0.13471 0.5132 0.96447 0.0
H1289 H 0.11462 0.57519 0.16594 0.0
H1290 H 0.11433 0.54606 0.13301 0.0
H1291 H 0.13492 0.53999 0.95475 0.0
H1292 H 0.15648 0.4588 0.88183 0.0
H1293 H 0.15504 0.48731 0.91896 0.0
H1294 H 0.1321 0.49164 0.09355 0.0
C1295 C 0.12316 0.55491 0.11312 0.0
C1296 C 0.13442 0.52956 0.98562 0.0
C1297 C 0.12328 0.57159 0.13187 0.0
C1298 C 0.14727 0.46151 0.91525 0.0
C1299 C 0.14638 0.47787 0.93635 0.0
C1300 C 0.13256 0.50211 0.06282 0.0
C1301 C 0.13391 0.54988 0.06787 0.0
C1302 C 0.13342 0.53242 0.04569 0.0
C1303 C 0.13473 0.48191 0.98017 0.0
C1304 C 0.13392 0.49929 0.00281 0.0
H1305 H 0.15384 0.5872 0.04069 0.0
H1306 H 0.1538 0.55826 0.00896 0.0
H1307 H 0.1317 0.52027 0.13058 0.0
H1308 H 0.11624 0.44342 0.99898 0.0
H1309 H 0.11467 0.47198 0.03547 0.0
C1310 C 0.68157 0.87587 0.29142 0.0
C1311 C 0.67423 0.88506 0.33654 0.0
C1312 C 0.69913 0.87707 0.28007 0.0
C1313 C 0.74076 0.88925 0.34744 0.0
H1314 H 0.7564 0.88876 0.18807 0.0
C1315 C 0.81215 0.89912 0.28862 0.0
C1316 C 0.81898 0.88825 0.24724 0.0
C1317 C 0.79446 0.89955 0.2985 0.0
C1318 C 0.75225 0.88877 0.23283 0.0
H1319 H 0.67973 0.90288 0.40482 0.0
H1320 H 0.71037 0.90515 0.38447 0.0
H1321 H 0.72566 0.88825 0.20745 0.0
H1322 H 0.81247 0.86948 0.18312 0.0
H1323 H 0.78159 0.87024 0.20038 0.0
H1324 H 0.76739 0.88979 0.37272 0.0
C1325 C 0.70254 0.89681 0.35839 0.0
C1326 C 0.73462 0.88846 0.244 0.0
C1327 C 0.68493 0.89557 0.36987 0.0
C1328 C 0.80765 0.87802 0.21526 0.0
C1329 C 0.78993 0.87851 0.22496 0.0
C1330 C 0.7584 0.88963 0.33624 0.0
C1331 C 0.70986 0.88755 0.31337 0.0
C1332 C 0.72864 0.88857 0.30147 0.0
C1333 C 0.78314 0.88918 0.26705 0.0
C1334 C 0.76436 0.88928 0.27882 0.0
H1335 H 0.67378 0.86758 0.26493 0.0
H1336 H 0.70433 0.86953 0.24573 0.0
H1337 H 0.73666 0.88909 0.39224 0.0
H1338 H 0.82049 0.90719 0.31399 0.0
H1339 H 0.78963 0.90807 0.33069 0.0
C1340 C 0.38402 0.43671 0.61167 0.0
C1341 C 0.371 0.42591 0.59136 0.0
C1342 C 0.38384 0.45386 0.59629 0.0
C1343 C 0.35508 0.48826 0.55102 0.0
H1344 H 0.39546 0.50906 0.48395 0.0
C1345 C 0.35182 0.55554 0.45413 0.0
C1346 C 0.36626 0.56602 0.46016 0.0
C1347 C 0.35285 0.5384 0.46863 0.0
C1348 C 0.38413 0.50359 0.50346 0.0
H1349 H 0.34741 0.42473 0.53992 0.0
H1350 H 0.34689 0.45467 0.51447 0.0
H1351 H 0.39644 0.47957 0.51531 0.0
H1352 H 0.39319 0.56669 0.48572 0.0
H1353 H 0.3949 0.53697 0.51307 0.0
H1354 H 0.34283 0.5122 0.54121 0.0
C1355 C 0.35731 0.44985 0.54181 0.0
C1356 C 0.38471 0.48664 0.52124 0.0
C1357 C 0.35765 0.43269 0.55623 0.0
C1358 C 0.38186 0.55891 0.4801 0.0
C1359 C 0.38283 0.5418 0.49561 0.0
C1360 C 0.35457 0.50525 0.5342 0.0
C1361 C 0.37045 0.4606 0.56129 0.0
C1362 C 0.37014 0.47877 0.5447 0.0
C1363 C 0.36828 0.5313 0.4907 0.0
C1364 C 0.36903 0.51317 0.50956 0.0
H1365 H 0.39452 0.43186 0.63859 0.0
H1366 H 0.39409 0.46189 0.61218 0.0
H1367 H 0.34372 0.48257 0.56965 0.0
H1368 H 0.33964 0.5606 0.43841 0.0
H1369 H 0.34147 0.53074 0.46257 0.0
C1370 C 0.82408 0.13391 0.78418 0.0
C1371 C 0.83147 0.12311 0.82679 0.0
C1372 C 0.80635 0.13364 0.77264 0.0
C1373 C 0.76494 0.11987 0.83665 0.0
H1374 H 0.74767 0.12544 0.67827 0.0
C1375 C 0.69396 0.10774 0.77482 0.0
C1376 C 0.68574 0.11954 0.73754 0.0
C1377 C 0.71174 0.10832 0.78433 0.0
C1378 C 0.75229 0.12403 0.72278 0.0
H1379 H 0.82592 0.10341 0.89024 0.0
H1380 H 0.79513 0.1027 0.86939 0.0
H1381 H 0.77862 0.12599 0.69766 0.0
H1382 H 0.68988 0.14104 0.68012 0.0
H1383 H 0.72105 0.14199 0.69656 0.0
H1384 H 0.73861 0.11769 0.86159 0.0
C1385 C 0.80297 0.11165 0.84562 0.0
C1386 C 0.77004 0.12437 0.73399 0.0
C1387 C 0.82068 0.11198 0.85739 0.0
C1388 C 0.69581 0.13176 0.70908 0.0
C1389 C 0.71367 0.13227 0.71833 0.0
C1390 C 0.74723 0.11943 0.82538 0.0
C1391 C 0.79554 0.1225 0.8032 0.0
C1392 C 0.77662 0.12225 0.79109 0.0
C1393 C 0.72181 0.12065 0.75658 0.0
C1394 C 0.74068 0.12145 0.76832 0.0
H1395 H 0.83195 0.14272 0.75993 0.0
H1396 H 0.8011 0.14236 0.74033 0.0
H1397 H 0.76947 0.11854 0.88128 0.0
H1398 H 0.68664 0.09812 0.79739 0.0
H1399 H 0.71763 0.09903 0.81336 0.0
C1400 C 0.85194 0.56032 0.03838 0.0
C1401 C 0.86647 0.57081 0.03669 0.0
C1402 C 0.85325 0.5433 0.02463 0.0
C1403 C 0.87724 0.51452 0.93636 0.0
H1404 H 0.85914 0.47951 0.0376 0.0
C1405 C 0.88381 0.44374 0.88295 0.0
C1406 C 0.87065 0.4328 0.90086 0.0
C1407 C 0.88386 0.46059 0.89988 0.0
C1408 C 0.864 0.4891 0.00816 0.0
H1409 H 0.8938 0.57173 0.0195 0.0
H1410 H 0.89598 0.54199 0.99401 0.0
H1411 H 0.85816 0.50873 0.06757 0.0
H1412 H 0.84686 0.43107 0.94841 0.0
H1413 H 0.84643 0.46048 0.97541 0.0
H1414 H 0.88245 0.49514 0.87572 0.0
C1415 C 0.88364 0.54696 0.0066 0.0
C1416 C 0.86355 0.50584 0.02573 0.0
C1417 C 0.8824 0.56391 0.02157 0.0
C1418 C 0.85729 0.43916 0.93447 0.0
C1419 C 0.85715 0.45603 0.95043 0.0
C1420 C 0.87741 0.4978 0.91821 0.0
C1421 C 0.86905 0.53652 0.00775 0.0
C1422 C 0.87013 0.51871 0.98998 0.0
C1423 C 0.87058 0.46697 0.93426 0.0
C1424 C 0.87072 0.48483 0.95376 0.0
H1425 H 0.8395 0.56529 0.04989 0.0
H1426 H 0.8418 0.53554 0.0256 0.0
H1427 H 0.88224 0.52426 0.90772 0.0
H1428 H 0.89436 0.43915 0.85739 0.0
H1429 H 0.89455 0.46847 0.8871 0.0
C1430 C 0.19525 0.12786 0.77914 0.0
C1431 C 0.18889 0.11204 0.79654 0.0
C1432 C 0.21244 0.12977 0.76307 0.0
C1433 C 0.25033 0.10444 0.71777 0.0
H1434 H 0.27508 0.14608 0.74383 0.0
C1435 C 0.32404 0.11118 0.69717 0.0
C1436 C 0.33002 0.12494 0.66398 0.0
C1437 C 0.30665 0.1098 0.71094 0.0
C1438 C 0.26825 0.13444 0.73587 0.0
H1439 H 0.19575 0.08597 0.81316 0.0
H1440 H 0.22585 0.0894 0.78805 0.0
H1441 H 0.24544 0.1433 0.7761 0.0
H1442 H 0.32245 0.14806 0.61927 0.0
H1443 H 0.29199 0.14583 0.64473 0.0
H1444 H 0.27349 0.09544 0.67955 0.0
C1445 C 0.21749 0.10026 0.78443 0.0
C1446 C 0.25122 0.13283 0.75417 0.0
C1447 C 0.20023 0.0983 0.79946 0.0
C1448 C 0.3182 0.13729 0.64469 0.0
C1449 C 0.30082 0.13607 0.65951 0.0
C1450 C 0.26743 0.10597 0.70045 0.0
C1451 C 0.2238 0.11596 0.76491 0.0
C1452 C 0.242 0.11778 0.74551 0.0
C1453 C 0.29489 0.1223 0.69278 0.0
C1454 C 0.27656 0.12096 0.70936 0.0
H1455 H 0.18678 0.13867 0.77591 0.0
H1456 H 0.21665 0.14201 0.74758 0.0
H1457 H 0.24363 0.09281 0.70881 0.0
H1458 H 0.33281 0.10144 0.71256 0.0
H1459 H 0.30245 0.09911 0.73691 0.0
C1460 C 0.62693 0.55927 0.35191 0.0
C1461 C 0.63405 0.57109 0.39019 0.0
C1462 C 0.627 0.54209 0.36666 0.0
C1463 C 0.63044 0.5128 0.49321 0.0
H1464 H 0.64256 0.47997 0.37799 0.0
C1465 C 0.62556 0.44075 0.53533 0.0
C1466 C 0.63912 0.43088 0.5149 0.0
C1467 C 0.62449 0.4579 0.52061 0.0
C1468 C 0.63922 0.48899 0.41076 0.0
H1469 H 0.64684 0.57409 0.47405 0.0
H1470 H 0.64703 0.54426 0.49939 0.0
H1471 H 0.64158 0.50978 0.35088 0.0
H1472 H 0.66235 0.43139 0.46378 0.0
H1473 H 0.66054 0.4612 0.43862 0.0
H1474 H 0.62839 0.49204 0.55336 0.0
C1475 C 0.64124 0.54824 0.45825 0.0
C1476 C 0.63848 0.50605 0.39503 0.0
C1477 C 0.64124 0.56535 0.44345 0.0
C1478 C 0.6517 0.43859 0.48016 0.0
C1479 C 0.6506 0.45567 0.46532 0.0
C1480 C 0.63111 0.49573 0.50887 0.0
C1481 C 0.63409 0.5364 0.42014 0.0
C1482 C 0.63422 0.51818 0.43619 0.0
C1483 C 0.63692 0.46552 0.48495 0.0
C1484 C 0.63566 0.48363 0.46796 0.0
H1485 H 0.62127 0.56326 0.31059 0.0
H1486 H 0.62127 0.5333 0.33653 0.0
H1487 H 0.62692 0.5218 0.5258 0.0
H1488 H 0.61563 0.4352 0.56205 0.0
H1489 H 0.61372 0.4651 0.53612 0.0
C1490 C 0.32332 0.88642 0.25093 0.0
C1491 C 0.32977 0.88219 0.30679 0.0
C1492 C 0.30563 0.8864 0.2392 0.0
C1493 C 0.26434 0.86975 0.29493 0.0
H1494 H 0.24454 0.90379 0.19114 0.0
C1495 C 0.19096 0.87835 0.26399 0.0
C1496 C 0.18465 0.88087 0.20678 0.0
C1497 C 0.20863 0.87862 0.27611 0.0
C1498 C 0.2499 0.89411 0.21976 0.0
H1499 H 0.32261 0.8748 0.39435 0.0
H1500 H 0.29169 0.87508 0.37422 0.0
H1501 H 0.2753 0.90427 0.2135 0.0
H1502 H 0.19208 0.88581 0.11752 0.0
H1503 H 0.22296 0.88633 0.13883 0.0
H1504 H 0.23886 0.85972 0.30158 0.0
C1505 C 0.30035 0.8781 0.33911 0.0
C1506 C 0.26755 0.89436 0.23257 0.0
C1507 C 0.31808 0.87803 0.35077 0.0
C1508 C 0.19648 0.88381 0.16205 0.0
C1509 C 0.21417 0.8842 0.17429 0.0
C1510 C 0.24667 0.86957 0.28237 0.0
C1511 C 0.29389 0.88226 0.28309 0.0
C1512 C 0.27502 0.88216 0.27022 0.0
C1513 C 0.22045 0.88153 0.23144 0.0
C1514 C 0.23925 0.88172 0.24458 0.0
H1515 H 0.33195 0.88959 0.21586 0.0
H1516 H 0.30119 0.88938 0.19534 0.0
H1517 H 0.26965 0.85998 0.32325 0.0
H1518 H 0.18226 0.87605 0.29961 0.0
H1519 H 0.21303 0.87672 0.32069 0.0
C1520 C 0.62361 0.95533 0.47335 0.0
C1521 C 0.63628 0.94489 0.49917 0.0
C1522 C 0.62264 0.97236 0.48749 0.0
C1523 C 0.63588 0.00268 0.60039 0.0
H1524 H 0.62748 0.03595 0.47793 0.0
C1525 C 0.62493 0.07337 0.64709 0.0
C1526 C 0.63303 0.085 0.60976 0.0
C1527 C 0.62483 0.05619 0.6345 0.0
C1528 C 0.62992 0.02683 0.51263 0.0
H1529 H 0.65788 0.94419 0.5601 0.0
H1530 H 0.65629 0.97387 0.58423 0.0
H1531 H 0.62847 0.00621 0.45407 0.0
H1532 H 0.64746 0.08762 0.53 0.0
H1533 H 0.6474 0.05777 0.50853 0.0
H1534 H 0.6377 0.02335 0.65874 0.0
C1535 C 0.64696 0.96886 0.55361 0.0
C1536 C 0.63029 0.00975 0.49903 0.0
C1537 C 0.64794 0.95186 0.53942 0.0
C1538 C 0.64108 0.07904 0.55976 0.0
C1539 C 0.64093 0.06192 0.54713 0.0
C1540 C 0.63546 0.01976 0.61402 0.0
C1541 C 0.6343 0.97933 0.52786 0.0
C1542 C 0.63339 0.99747 0.54267 0.0
C1543 C 0.63276 0.05027 0.5842 0.0
C1544 C 0.63261 0.03205 0.57022 0.0
H1545 H 0.61437 0.95036 0.44235 0.0
H1546 H 0.61261 0.98002 0.46732 0.0
H1547 H 0.6381 0.99353 0.63518 0.0
H1548 H 0.61859 0.07753 0.68592 0.0
H1549 H 0.61829 0.04757 0.66371 0.0
C1550 C 0.18593 0.39584 0.84731 0.0
C1551 C 0.17521 0.38453 0.81744 0.0
C1552 C 0.20349 0.39688 0.83503 0.0
C1553 C 0.23546 0.3858 0.72268 0.0
H1554 H 0.26838 0.39264 0.84845 0.0
C1555 C 0.30937 0.37933 0.69527 0.0
C1556 C 0.31972 0.39151 0.72234 0.0
C1557 C 0.29164 0.37867 0.70531 0.0
C1558 C 0.25934 0.39088 0.81273 0.0
H1559 H 0.17472 0.36528 0.75153 0.0
H1560 H 0.20525 0.36685 0.73114 0.0
H1561 H 0.2378 0.39111 0.86949 0.0
H1562 H 0.31945 0.41272 0.78057 0.0
H1563 H 0.28867 0.41156 0.79793 0.0
H1564 H 0.25711 0.38534 0.66612 0.0
C1565 C 0.20007 0.37521 0.76316 0.0
C1566 C 0.24177 0.39005 0.82477 0.0
C1567 C 0.18252 0.37425 0.77516 0.0
C1568 C 0.3119 0.40314 0.75903 0.0
C1569 C 0.29425 0.40241 0.76936 0.0
C1570 C 0.25304 0.38652 0.71072 0.0
C1571 C 0.21081 0.38656 0.79281 0.0
C1572 C 0.22957 0.38753 0.77991 0.0
C1573 C 0.28391 0.39011 0.743 0.0
C1574 C 0.26519 0.38912 0.75558 0.0
H1575 H 0.18074 0.40401 0.87995 0.0
H1576 H 0.21128 0.40595 0.8582 0.0
H1577 H 0.22646 0.38412 0.68681 0.0
H1578 H 0.31498 0.37017 0.66683 0.0
H1579 H 0.28405 0.36897 0.68463 0.0
C1580 C 0.87871 0.92954 0.13506 0.0
C1581 C 0.87347 0.91738 0.09472 0.0
C1582 C 0.878 0.9467 0.12039 0.0
C1583 C 0.85665 0.97695 0.01933 0.0
H1584 H 0.89447 0.0064 0.06137 0.0
C1585 C 0.85237 0.04944 0.99695 0.0
C1586 C 0.86678 0.05794 0.9748 0.0
C1587 C 0.8532 0.03226 0.01081 0.0
C1588 C 0.88385 0.99832 0.04901 0.0
H1589 H 0.86341 0.9138 0.00716 0.0
H1590 H 0.86217 0.94365 0.98179 0.0
H1591 H 0.89598 0.97648 0.08712 0.0
H1592 H 0.89337 0.05498 0.94965 0.0
H1593 H 0.8948 0.02497 0.97384 0.0
H1594 H 0.84458 0.99875 0.98083 0.0
C1595 C 0.86669 0.93993 0.02492 0.0
C1596 C 0.88464 0.98122 0.06431 0.0
C1597 C 0.86748 0.9228 0.03944 0.0
C1598 C 0.88203 0.04883 0.96658 0.0
C1599 C 0.88289 0.03165 0.98082 0.0
C1600 C 0.85582 0.99407 0.00438 0.0
C1601 C 0.87194 0.95209 0.06518 0.0
C1602 C 0.87106 0.97032 0.04953 0.0
C1603 C 0.86849 0.02317 0.00321 0.0
C1604 C 0.86942 0.00495 0.01895 0.0
H1605 H 0.88337 0.92582 0.17803 0.0
H1606 H 0.88198 0.95576 0.15259 0.0
H1607 H 0.84591 0.96894 0.00776 0.0
H1608 H 0.84043 0.05607 0.00392 0.0
H1609 H 0.84193 0.02614 0.02852 0.0
C1610 C 0.19437 0.63137 0.2224 0.0
C1611 C 0.18475 0.61699 0.23737 0.0
C1612 C 0.21214 0.63187 0.23342 0.0
C1613 C 0.2499 0.60441 0.26243 0.0
H1614 H 0.27032 0.64462 0.3272 0.0
C1615 C 0.32337 0.61233 0.28915 0.0
C1616 C 0.32963 0.61958 0.34072 0.0
C1617 C 0.30577 0.61221 0.27597 0.0
C1618 C 0.2648 0.63326 0.30947 0.0
H1619 H 0.18634 0.5918 0.27495 0.0
H1620 H 0.21718 0.5927 0.29415 0.0
H1621 H 0.23953 0.64401 0.30445 0.0
H1622 H 0.32217 0.63242 0.41891 0.0
H1623 H 0.29137 0.63211 0.39603 0.0
H1624 H 0.27505 0.59354 0.26835 0.0
C1625 C 0.21107 0.60355 0.27351 0.0
C1626 C 0.24719 0.63298 0.29577 0.0
C1627 C 0.19334 0.60307 0.26273 0.0
C1628 C 0.31781 0.62674 0.3788 0.0
C1629 C 0.30016 0.62666 0.36551 0.0
C1630 C 0.26749 0.60471 0.27592 0.0
C1631 C 0.22069 0.61798 0.25933 0.0
C1632 C 0.23951 0.61852 0.27229 0.0
C1633 C 0.29393 0.61937 0.31394 0.0
C1634 C 0.27517 0.61912 0.29973 0.0
H1635 H 0.18816 0.64231 0.20283 0.0
H1636 H 0.2192 0.64312 0.22136 0.0
H1637 H 0.24445 0.59312 0.24391 0.0
H1638 H 0.33209 0.60678 0.25858 0.0
H1639 H 0.30145 0.60671 0.23551 0.0
C1640 C 0.38014 0.94525 0.42598 0.0
C1641 C 0.36432 0.93666 0.42385 0.0
C1642 C 0.38073 0.96247 0.43816 0.0
C1643 C 0.35431 1.00107 0.43665 0.0
H1644 H 0.38686 0.01667 0.55336 0.0
C1645 C 0.34921 0.06768 0.52913 0.0
C1646 C 0.36445 0.0766 0.54086 0.0
C1647 C 0.34971 0.05062 0.5154 0.0
C1648 C 0.37785 0.01261 0.52007 0.0
H1649 H 0.33671 0.93955 0.43133 0.0
H1650 H 0.33775 0.96954 0.45174 0.0
H1651 H 0.38703 0.98718 0.52535 0.0
H1652 H 0.39219 0.07448 0.54828 0.0
H1653 H 0.39313 0.04477 0.52313 0.0
H1654 H 0.34522 0.02642 0.43055 0.0
C1655 C 0.34969 0.96298 0.44412 0.0
C1656 C 0.37794 0.99568 0.50407 0.0
C1657 C 0.34911 0.94576 0.43264 0.0
C1658 C 0.3802 0.06795 0.53979 0.0
C1659 C 0.38072 0.05087 0.52548 0.0
C1660 C 0.35431 0.018 0.45222 0.0
C1661 C 0.36551 0.97151 0.44771 0.0
C1662 C 0.36605 0.98967 0.46259 0.0
C1663 C 0.36548 0.04202 0.51237 0.0
C1664 C 0.36594 0.024 0.49466 0.0
H1665 H 0.3921 0.93861 0.41961 0.0
H1666 H 0.39311 0.96871 0.4401 0.0
H1667 H 0.34516 0.9969 0.40391 0.0
H1668 H 0.33683 0.07391 0.53008 0.0
H1669 H 0.33766 0.04419 0.50709 0.0
C1670 C 0.81803 0.63189 0.13487 0.0
C1671 C 0.82949 0.61919 0.15384 0.0
C1672 C 0.80056 0.63094 0.14855 0.0
C1673 C 0.76634 0.60125 0.1851 0.0
H1674 H 0.74447 0.63873 0.26027 0.0
C1675 C 0.6982 0.59456 0.27725 0.0
C1676 C 0.68714 0.6085 0.27359 0.0
C1677 C 0.71562 0.59625 0.26409 0.0
C1678 C 0.75023 0.62822 0.23846 0.0
H1679 H 0.83155 0.59535 0.20075 0.0
H1680 H 0.80101 0.59349 0.22318 0.0
H1681 H 0.77443 0.64104 0.23096 0.0
H1682 H 0.68568 0.63521 0.25368 0.0
H1683 H 0.71587 0.63809 0.22862 0.0
H1684 H 0.74222 0.58854 0.19062 0.0
C1685 C 0.80557 0.60425 0.19831 0.0
C1686 C 0.76744 0.62956 0.22187 0.0
C1687 C 0.82306 0.60536 0.18565 0.0
C1688 C 0.69393 0.62425 0.25743 0.0
C1689 C 0.7113 0.6259 0.24324 0.0
C1690 C 0.74908 0.6 0.20074 0.0
C1691 C 0.79417 0.61709 0.18038 0.0
C1692 C 0.7757 0.61602 0.19552 0.0
C1693 C 0.72239 0.61187 0.24577 0.0
C1694 C 0.74079 0.6134 0.22824 0.0
H1695 H 0.82263 0.64274 0.11051 0.0
H1696 H 0.792 0.64096 0.13394 0.0
H1697 H 0.77235 0.59069 0.16424 0.0
H1698 H 0.69338 0.58227 0.29005 0.0
H1699 H 0.72376 0.58523 0.2682 0.0
C1700 C 0.14367 0.06799 0.96887 0.0
C1701 C 0.13609 0.07392 0.91648 0.0
C1702 C 0.14348 0.05088 0.98341 0.0
C1703 C 0.13957 0.00889 0.92036 0.0
H1704 H 0.13081 0.99508 0.07989 0.0
C1705 C 0.1551 0.94224 0.00806 0.0
C1706 C 0.14319 0.93442 0.04514 0.0
C1707 C 0.15316 0.95911 0.99143 0.0
C1708 C 0.13312 0.99871 0.03506 0.0
H1709 H 0.12245 0.06643 0.83804 0.0
H1710 H 0.12215 0.03643 0.86353 0.0
H1711 H 0.12904 0.02479 0.05197 0.0
H1712 H 0.11992 0.93823 0.09404 0.0
H1713 H 0.11656 0.96779 0.06495 0.0
H1714 H 0.14362 0.98279 0.90344 0.0
C1715 C 0.1283 0.0451 0.89318 0.0
C1716 C 0.13228 0.01574 0.01918 0.0
C1717 C 0.12843 0.06228 0.87868 0.0
C1718 C 0.12935 0.9439 0.06558 0.0
C1719 C 0.12745 0.96084 0.04905 0.0
C1720 C 0.14047 0.99185 0.93629 0.0
C1721 C 0.13575 0.03924 0.9459 0.0
C1722 C 0.13568 0.02104 0.96181 0.0
C1723 C 0.1393 0.9686 0.01156 0.0
C1724 C 0.13744 0.98659 0.99396 0.0
H1725 H 0.14972 0.07658 0.99904 0.0
H1726 H 0.14958 0.04675 0.02388 0.0
H1727 H 0.14235 0.01257 0.87591 0.0
H1728 H 0.16593 0.93532 0.99156 0.0
H1729 H 0.16267 0.96478 0.96329 0.0
C1730 C 0.68684 0.37154 0.63614 0.0
C1731 C 0.67531 0.38408 0.65331 0.0
C1732 C 0.7044 0.37275 0.65015 0.0
C1733 C 0.73843 0.40293 0.68472 0.0
H1734 H 0.76132 0.36563 0.76442 0.0
C1735 C 0.807 0.41034 0.77986 0.0
C1736 C 0.81822 0.39652 0.77834 0.0
C1737 C 0.78955 0.40849 0.76555 0.0
C1738 C 0.75527 0.3761 0.74134 0.0
H1739 H 0.67324 0.40789 0.69734 0.0
H1740 H 0.7039 0.41018 0.72036 0.0
H1741 H 0.73123 0.36294 0.73414 0.0
H1742 H 0.81991 0.36987 0.76079 0.0
H1743 H 0.78969 0.36673 0.73378 0.0
H1744 H 0.76239 0.41599 0.69006 0.0
C1745 C 0.69933 0.39936 0.69661 0.0
C1746 C 0.73799 0.37454 0.72418 0.0
C1747 C 0.68177 0.398 0.68362 0.0
C1748 C 0.81156 0.38075 0.76291 0.0
C1749 C 0.79416 0.37894 0.74761 0.0
C1750 C 0.75577 0.40441 0.70096 0.0
C1751 C 0.71081 0.38668 0.68051 0.0
C1752 C 0.72936 0.388 0.69618 0.0
C1753 C 0.78291 0.39282 0.74826 0.0
C1754 C 0.76443 0.39108 0.73007 0.0
H1755 H 0.68224 0.36063 0.61293 0.0
H1756 H 0.713 0.36285 0.63696 0.0
H1757 H 0.73213 0.41344 0.66261 0.0
H1758 H 0.81172 0.42264 0.79203 0.0
H1759 H 0.7813 0.41941 0.76813 0.0
loop_
_geom_bond_atom_site_label_1
_geom_bond_atom_site_label_2
_geom_bond_distance
_geom_bond_site_symmetry_2
_ccdc_geom_bond_type
Zn0 O6 1.969 . S
Zn0 O7 1.965 . S
Zn0 O11 2.024 . S
Zn0 O16 1.969 . S
Zn1 O8 1.969 . S
Zn1 O14 1.969 . S
Zn1 O15 1.965 . S
Zn1 O17 2.024 . S
C2 O3 1.229 . S
C2 O11 1.058 . S
O3 C2 1.229 . S
C4 O5 1.229 . S
C4 O17 1.058 . S
O5 C4 1.229 . S
O6 Zn0 1.969 . S
O6 C9 1.267 . S
O7 Zn0 1.965 . S
O7 C18 1.260 . S
O8 Zn1 1.969 . S
O8 C18 1.258 . S
C9 O6 1.267 . S
C9 O10 1.228 . S
O10 C9 1.228 . S
O11 Zn0 2.024 . S
O11 C2 1.058 . S
C12 O13 1.228 . S
C12 O14 1.267 1_556 S
O13 C12 1.228 . S
O14 Zn1 1.969 . S
O14 C12 1.267 1_554 S
O15 Zn1 1.965 . S
O15 C19 1.260 . S
O16 Zn0 1.969 . S
O16 C19 1.258 . S
O17 Zn1 2.024 . S
O17 C4 1.058 . S
C18 O7 1.260 . S
C18 O8 1.258 . S
C19 O15 1.260 . S
C19 O16 1.258 . S
Zn20 O26 1.969 . S
Zn20 O27 1.965 . S
Zn20 O31 2.024 . S
Zn20 O36 1.969 . S
Zn21 O28 1.969 . S
Zn21 O34 1.969 . S
Zn21 O35 1.965 . S
Zn21 O37 2.024 . S
C22 O23 1.229 . S
C22 O31 1.058 . S
O23 C22 1.229 . S
C24 O25 1.229 . S
C24 O37 1.058 . S
O25 C24 1.229 . S
O26 Zn20 1.969 . S
O26 C29 1.267 . S
O27 Zn20 1.965 . S
O27 C38 1.260 . S
O28 Zn21 1.969 . S
O28 C38 1.258 . S
C29 O26 1.267 . S
C29 O30 1.228 . S
O30 C29 1.228 . S
O31 Zn20 2.024 . S
O31 C22 1.058 . S
C32 O33 1.228 . S
C32 O34 1.267 . S
O33 C32 1.228 . S
O34 Zn21 1.969 . S
O34 C32 1.267 . S
O35 Zn21 1.965 . S
O35 C39 1.260 . S
O36 Zn20 1.969 . S
O36 C39 1.258 . S
O37 Zn21 2.024 . S
O37 C24 1.058 . S
C38 O27 1.260 . S
C38 O28 1.258 . S
C39 O35 1.260 . S
C39 O36 1.258 . S
Zn40 O46 1.969 . S
Zn40 O47 1.965 . S
Zn40 O51 2.024 . S
Zn40 O56 1.969 . S
Zn41 O48 1.969 . S
Zn41 O54 1.969 . S
Zn41 O55 1.965 . S
Zn41 O57 2.024 . S
C42 O43 1.229 . S
C42 O51 1.058 . S
O43 C42 1.229 . S
C44 O45 1.229 . S
C44 O57 1.058 . S
O45 C44 1.229 . S
O46 Zn40 1.969 . S
O46 C49 1.267 . S
O47 Zn40 1.965 . S
O47 C58 1.260 . S
O48 Zn41 1.969 . S
O48 C58 1.258 . S
C49 O46 1.267 . S
C49 O50 1.228 . S
O50 C49 1.228 . S
O51 Zn40 2.024 . S
O51 C42 1.058 . S
C52 O53 1.228 . S
C52 O54 1.267 . S
O53 C52 1.228 . S
O54 Zn41 1.969 . S
O54 C52 1.267 . S
O55 Zn41 1.965 . S
O55 C59 1.260 . S
O56 Zn40 1.969 . S
O56 C59 1.258 . S
O57 Zn41 2.024 . S
O57 C44 1.058 . S
C58 O47 1.260 . S
C58 O48 1.258 . S
C59 O55 1.260 . S
C59 O56 1.258 . S
Zn60 O66 1.969 . S
Zn60 O67 1.965 1_554 S
Zn60 O71 2.024 1_554 S
Zn60 O76 1.969 1_554 S
Zn61 O68 1.969 . S
Zn61 O74 1.969 . S
Zn61 O75 1.965 . S
Zn61 O77 2.024 . S
C62 O63 1.229 . S
C62 O71 1.058 1_554 S
O63 C62 1.229 . S
C64 O65 1.229 . S
C64 O77 1.058 . S
O65 C64 1.229 . S
O66 Zn60 1.969 . S
O66 C69 1.267 . S
O67 Zn60 1.965 1_556 S
O67 C78 1.260 . S
O68 Zn61 1.969 . S
O68 C78 1.258 . S
C69 O66 1.267 . S
C69 O70 1.228 . S
O70 C69 1.228 . S
O71 Zn60 2.024 1_556 S
O71 C62 1.058 1_556 S
C72 O73 1.228 . S
C72 O74 1.267 . S
O73 C72 1.228 . S
O74 Zn61 1.969 . S
O74 C72 1.267 . S
O75 Zn61 1.965 . S
O75 C79 1.260 . S
O76 Zn60 1.969 1_556 S
O76 C79 1.258 . S
O77 Zn61 2.024 . S
O77 C64 1.058 . S
C78 O67 1.260 . S
C78 O68 1.258 . S
C79 O75 1.260 . S
C79 O76 1.258 . S
Zn80 O86 1.969 . S
Zn80 O87 1.965 1_554 S
Zn80 O91 2.024 1_554 S
Zn80 O96 1.969 1_554 S
Zn81 O88 1.969 . S
Zn81 O94 1.969 . S
Zn81 O95 1.965 . S
Zn81 O97 2.024 . S
C82 O83 1.229 . S
C82 O91 1.058 1_554 S
O83 C82 1.229 . S
C84 O85 1.229 . S
C84 O97 1.058 . S
O85 C84 1.229 . S
O86 Zn80 1.969 . S
O86 C89 1.267 . S
O87 Zn80 1.965 1_556 S
O87 C98 1.260 . S
O88 Zn81 1.969 . S
O88 C98 1.258 . S
C89 O86 1.267 . S
C89 O90 1.228 . S
O90 C89 1.228 . S
O91 Zn80 2.024 1_556 S
O91 C82 1.058 1_556 S
C92 O93 1.228 . S
C92 O94 1.267 . S
O93 C92 1.228 . S
O94 Zn81 1.969 . S
O94 C92 1.267 . S
O95 Zn81 1.965 . S
O95 C99 1.260 . S
O96 Zn80 1.969 1_556 S
O96 C99 1.258 . S
O97 Zn81 2.024 . S
O97 C84 1.058 . S
C98 O87 1.260 . S
C98 O88 1.258 . S
C99 O95 1.260 . S
C99 O96 1.258 . S
Zn100 O106 1.969 . S
Zn100 O107 1.965 . S
Zn100 O111 2.024 . S
Zn100 O116 1.969 . S
Zn101 O108 1.969 . S
Zn101 O114 1.969 . S
Zn101 O115 1.965 . S
Zn101 O117 2.024 . S
C102 O103 1.229 . S
C102 O111 1.058 . S
O103 C102 1.229 . S
C104 O105 1.229 . S
C104 O117 1.058 . S
O105 C104 1.229 . S
O106 Zn100 1.969 . S
O106 C109 1.267 . S
O107 Zn100 1.965 . S
O107 C118 1.260 . S
O108 Zn101 1.969 . S
O108 C118 1.258 . S
C109 O106 1.267 . S
C109 O110 1.228 . S
O110 C109 1.228 . S
O111 Zn100 2.024 . S
O111 C102 1.058 . S
C112 O113 1.226 1_556 S
C112 O114 1.267 1_556 S
O113 C112 1.226 1_554 S
O114 Zn101 1.969 . S
O114 C112 1.267 1_554 S
O115 Zn101 1.965 . S
O115 C119 1.260 . S
O116 Zn100 1.969 . S
O116 C119 1.258 . S
O117 Zn101 2.024 . S
O117 C104 1.058 . S
C118 O107 1.260 . S
C118 O108 1.258 . S
C119 O115 1.260 . S
C119 O116 1.258 . S
Zn120 O126 1.969 . S
Zn120 O127 1.965 . S
Zn120 O131 2.024 . S
Zn120 O136 1.969 . S
Zn121 O128 1.969 . S
Zn121 O134 1.969 . S
Zn121 O135 1.965 . S
Zn121 O137 2.024 . S
C122 O123 1.229 . S
C122 O131 1.058 . S
O123 C122 1.229 . S
C124 O125 1.229 . S
C124 O137 1.058 . S
O125 C124 1.229 . S
O126 Zn120 1.969 . S
O126 C129 1.267 . S
O127 Zn120 1.965 . S
O127 C138 1.260 . S
O128 Zn121 1.969 . S
O128 C138 1.258 . S
C129 O126 1.267 . S
C129 O130 1.228 . S
O130 C129 1.228 . S
O131 Zn120 2.024 . S
O131 C122 1.058 . S
C132 O133 1.228 . S
C132 O134 1.267 . S
O133 C132 1.228 . S
O134 Zn121 1.969 . S
O134 C132 1.267 . S
O135 Zn121 1.965 . S
O135 C139 1.260 . S
O136 Zn120 1.969 . S
O136 C139 1.258 . S
O137 Zn121 2.024 . S
O137 C124 1.058 . S
C138 O127 1.260 . S
C138 O128 1.258 . S
C139 O135 1.260 . S
C139 O136 1.258 . S
Zn140 O146 1.969 . S
Zn140 O147 1.965 . S
Zn140 O151 2.024 . S
Zn140 O156 1.969 . S
Zn141 O148 1.969 . S
Zn141 O154 1.969 . S
Zn141 O155 1.965 . S
Zn141 O157 2.024 . S
C142 O143 1.229 . S
C142 O151 1.058 . S
O143 C142 1.229 . S
C144 O145 1.229 . S
C144 O157 1.058 . S
O145 C144 1.229 . S
O146 Zn140 1.969 . S
O146 C149 1.267 . S
O147 Zn140 1.965 . S
O147 C158 1.260 . S
O148 Zn141 1.969 . S
O148 C158 1.258 . S
C149 O146 1.267 . S
C149 O150 1.228 . S
O150 C149 1.228 . S
O151 Zn140 2.024 . S
O151 C142 1.058 . S
C152 O153 1.228 . S
C152 O154 1.267 . S
O153 C152 1.228 . S
O154 Zn141 1.969 . S
O154 C152 1.267 . S
O155 Zn141 1.965 . S
O155 C159 1.260 . S
O156 Zn140 1.969 . S
O156 C159 1.258 . S
O157 Zn141 2.024 . S
O157 C144 1.058 . S
C158 O147 1.260 . S
C158 O148 1.258 . S
C159 O155 1.260 . S
C159 O156 1.258 . S
Zn160 O166 1.969 . S
Zn160 O167 1.965 . S
Zn160 O171 2.024 . S
Zn160 O176 1.969 . S
Zn161 O168 1.969 . S
Zn161 O174 1.969 . S
Zn161 O175 1.965 . S
Zn161 O177 2.024 . S
C162 O163 1.229 . S
C162 O171 1.058 . S
O163 C162 1.229 . S
C164 O165 1.229 . S
C164 O177 1.058 . S
O165 C164 1.229 . S
O166 Zn160 1.969 . S
O166 C169 1.267 1_556 S
O167 Zn160 1.965 . S
O167 C178 1.260 . S
O168 Zn161 1.969 . S
O168 C178 1.258 . S
C169 O166 1.267 1_554 S
C169 O170 1.228 . S
O170 C169 1.228 . S
O171 Zn160 2.024 . S
O171 C162 1.058 . S
C172 O173 1.228 . S
C172 O174 1.267 . S
O173 C172 1.228 . S
O174 Zn161 1.969 . S
O174 C172 1.267 . S
O175 Zn161 1.965 . S
O175 C179 1.260 . S
O176 Zn160 1.969 . S
O176 C179 1.258 . S
O177 Zn161 2.024 . S
O177 C164 1.058 . S
C178 O167 1.260 . S
C178 O168 1.258 . S
C179 O175 1.260 . S
C179 O176 1.258 . S
Zn180 O186 1.969 . S
Zn180 O187 1.965 . S
Zn180 O191 2.024 . S
Zn180 O196 1.969 . S
Zn181 O188 1.969 . S
Zn181 O194 1.969 . S
Zn181 O195 1.965 . S
Zn181 O197 2.024 . S
C182 O183 1.229 . S
C182 O191 1.058 . S
O183 C182 1.229 . S
C184 O185 1.229 . S
C184 O197 1.058 . S
O185 C184 1.229 . S
O186 Zn180 1.969 . S
O186 C189 1.267 . S
O187 Zn180 1.965 . S
O187 C198 1.260 . S
O188 Zn181 1.969 . S
O188 C198 1.258 . S
C189 O186 1.267 . S
C189 O190 1.228 . S
O190 C189 1.228 . S
O191 Zn180 2.024 . S
O191 C182 1.058 . S
C192 O193 1.228 . S
C192 O194 1.267 . S
O193 C192 1.228 . S
O194 Zn181 1.969 . S
O194 C192 1.267 . S
O195 Zn181 1.965 . S
O195 C199 1.260 . S
O196 Zn180 1.969 . S
O196 C199 1.258 . S
O197 Zn181 2.024 . S
O197 C184 1.058 . S
C198 O187 1.260 . S
C198 O188 1.258 . S
C199 O195 1.260 . S
C199 O196 1.258 . S
Zn200 O206 1.969 . S
Zn200 O207 1.965 . S
Zn200 O211 2.024 . S
Zn200 O216 1.969 . S
Zn201 O208 1.969 . S
Zn201 O214 1.969 . S
Zn201 O215 1.965 . S
Zn201 O217 2.024 . S
C202 O203 1.229 . S
C202 O211 1.058 . S
O203 C202 1.229 . S
C204 O205 1.229 . S
C204 O217 1.058 . S
O205 C204 1.229 . S
O206 Zn200 1.969 . S
O206 C209 1.267 . S
O207 Zn200 1.965 . S
O207 C218 1.260 . S
O208 Zn201 1.969 . S
O208 C218 1.258 . S
C209 O206 1.267 . S
C209 O210 1.228 . S
O210 C209 1.228 . S
O211 Zn200 2.024 . S
O211 C202 1.058 . S
C212 O213 1.228 . S
C212 O214 1.267 . S
O213 C212 1.228 . S
O214 Zn201 1.969 . S
O214 C212 1.267 . S
O215 Zn201 1.965 . S
O215 C219 1.260 . S
O216 Zn200 1.969 . S
O216 C219 1.258 . S
O217 Zn201 2.024 . S
O217 C204 1.058 . S
C218 O207 1.260 . S
C218 O208 1.258 . S
C219 O215 1.260 . S
C219 O216 1.258 . S
Zn220 O226 1.969 . S
Zn220 O227 1.965 . S
Zn220 O231 2.024 . S
Zn220 O236 1.969 . S
Zn221 O228 1.969 . S
Zn221 O234 1.969 1_554 S
Zn221 O235 1.965 . S
Zn221 O237 2.024 . S
C222 O223 1.229 . S
C222 O231 1.058 . S
O223 C222 1.229 . S
C224 O225 1.229 1_554 S
C224 O237 1.058 . S
O225 C224 1.229 1_556 S
O226 Zn220 1.969 . S
O226 C229 1.267 . S
O227 Zn220 1.965 . S
O227 C238 1.260 . S
O228 Zn221 1.969 . S
O228 C238 1.258 . S
C229 O226 1.267 . S
C229 O230 1.228 . S
O230 C229 1.228 . S
O231 Zn220 2.024 . S
O231 C222 1.058 . S
C232 O233 1.228 . S
C232 O234 1.267 . S
O233 C232 1.228 . S
O234 Zn221 1.969 1_556 S
O234 C232 1.267 . S
O235 Zn221 1.965 . S
O235 C239 1.260 . S
O236 Zn220 1.969 . S
O236 C239 1.258 . S
O237 Zn221 2.024 . S
O237 C224 1.058 . S
C238 O227 1.260 . S
C238 O228 1.258 . S
C239 O235 1.260 . S
C239 O236 1.258 . S
Zn240 O246 1.969 . S
Zn240 O247 1.965 . S
Zn240 O251 2.024 . S
Zn240 O256 1.969 . S
Zn241 O248 1.969 1_556 S
Zn241 O254 1.969 . S
Zn241 O255 1.965 1_556 S
Zn241 O257 2.024 1_556 S
C242 O243 1.229 . S
C242 O251 1.058 . S
O243 C242 1.229 . S
C244 O245 1.229 . S
C244 O257 1.058 1_556 S
O245 C244 1.229 . S
O246 Zn240 1.969 . S
O246 C249 1.267 . S
O247 Zn240 1.965 . S
O247 C258 1.260 . S
O248 Zn241 1.969 1_554 S
O248 C258 1.258 . S
C249 O246 1.267 . S
C249 O250 1.228 . S
O250 C249 1.228 . S
O251 Zn240 2.024 . S
O251 C242 1.058 . S
C252 O253 1.228 . S
C252 O254 1.267 . S
O253 C252 1.228 . S
O254 Zn241 1.969 . S
O254 C252 1.267 . S
O255 Zn241 1.965 1_554 S
O255 C259 1.260 . S
O256 Zn240 1.969 . S
O256 C259 1.258 . S
O257 Zn241 2.024 1_554 S
O257 C244 1.058 1_554 S
C258 O247 1.260 . S
C258 O248 1.258 . S
C259 O255 1.260 . S
C259 O256 1.258 . S
Zn260 O266 1.969 . S
Zn260 O267 1.965 . S
Zn260 O271 2.024 . S
Zn260 O276 1.969 . S
Zn261 O268 1.969 . S
Zn261 O274 1.969 . S
Zn261 O275 1.965 . S
Zn261 O277 2.024 . S
C262 O263 1.229 . S
C262 O271 1.058 . S
O263 C262 1.229 . S
C264 O265 1.229 . S
C264 O277 1.058 . S
O265 C264 1.229 . S
O266 Zn260 1.969 . S
O266 C269 1.267 1_556 S
O267 Zn260 1.965 . S
O267 C278 1.260 . S
O268 Zn261 1.969 . S
O268 C278 1.258 . S
C269 O266 1.267 1_554 S
C269 O270 1.228 . S
O270 C269 1.228 . S
O271 Zn260 2.024 . S
O271 C262 1.058 . S
C272 O273 1.228 . S
C272 O274 1.267 . S
O273 C272 1.228 . S
O274 Zn261 1.969 . S
O274 C272 1.267 . S
O275 Zn261 1.965 . S
O275 C279 1.260 . S
O276 Zn260 1.969 . S
O276 C279 1.258 . S
O277 Zn261 2.024 . S
O277 C264 1.058 . S
C278 O267 1.260 . S
C278 O268 1.258 . S
C279 O275 1.260 . S
C279 O276 1.258 . S
Zn280 O286 1.969 . S
Zn280 O287 1.965 . S
Zn280 O291 2.024 . S
Zn280 O296 1.969 . S
Zn281 O288 1.969 . S
Zn281 O294 1.969 . S
Zn281 O295 1.965 . S
Zn281 O297 2.024 . S
C282 O283 1.229 . S
C282 O291 1.058 . S
O283 C282 1.229 . S
C284 O285 1.229 . S
C284 O297 1.058 . S
O285 C284 1.229 . S
O286 Zn280 1.969 . S
O286 C289 1.267 . S
O287 Zn280 1.965 . S
O287 C298 1.260 . S
O288 Zn281 1.969 . S
O288 C298 1.258 . S
C289 O286 1.267 . S
C289 O290 1.228 . S
O290 C289 1.228 . S
O291 Zn280 2.024 . S
O291 C282 1.058 . S
C292 O293 1.228 . S
C292 O294 1.267 . S
O293 C292 1.228 . S
O294 Zn281 1.969 . S
O294 C292 1.267 . S
O295 Zn281 1.965 . S
O295 C299 1.260 . S
O296 Zn280 1.969 . S
O296 C299 1.258 . S
O297 Zn281 2.024 . S
O297 C284 1.058 . S
C298 O287 1.260 . S
C298 O288 1.258 . S
C299 O295 1.260 . S
C299 O296 1.258 . S
Zn300 O306 1.969 . S
Zn300 O307 1.965 . S
Zn300 O311 2.024 . S
Zn300 O316 1.969 . S
Zn301 O308 1.969 . S
Zn301 O314 1.969 . S
Zn301 O315 1.965 . S
Zn301 O317 2.024 . S
C302 O303 1.229 . S
C302 O311 1.058 . S
O303 C302 1.229 . S
C304 O305 1.229 . S
C304 O317 1.058 . S
O305 C304 1.229 . S
O306 Zn300 1.969 . S
O306 C309 1.267 . S
O307 Zn300 1.965 . S
O307 C318 1.260 . S
O308 Zn301 1.969 . S
O308 C318 1.258 . S
C309 O306 1.267 . S
C309 O310 1.228 . S
O310 C309 1.228 . S
O311 Zn300 2.024 . S
O311 C302 1.058 . S
C312 O313 1.228 . S
C312 O314 1.267 . S
O313 C312 1.228 . S
O314 Zn301 1.969 . S
O314 C312 1.267 . S
O315 Zn301 1.965 . S
O315 C319 1.260 . S
O316 Zn300 1.969 . S
O316 C319 1.258 . S
O317 Zn301 2.024 . S
O317 C304 1.058 . S
C318 O307 1.260 . S
C318 O308 1.258 . S
C319 O315 1.260 . S
C319 O316 1.258 . S
C320 C321 1.349 . S
C320 C322 1.327 . S
C320 H345 0.950 . S
C321 C320 1.349 . S
C321 C337 1.349 . S
C322 C320 1.327 . S
C322 C341 1.429 . S
C322 H346 0.950 . S
C323 C340 1.574 . S
C323 C342 1.368 . S
C323 H347 0.949 . S
H324 C328 0.949 . S
C325 C326 1.349 . S
C325 C327 1.327 . S
C325 H348 0.950 . S
C326 C325 1.349 . S
C326 C338 1.349 . S
C327 C325 1.327 . S
C327 C343 1.429 . S
C327 H349 0.950 . S
C328 H324 0.949 . S
C328 C336 1.574 . S
C328 C344 1.368 . S
H329 C337 0.950 . S
H330 C335 0.950 . S
H331 C336 0.949 . S
H332 C338 0.950 . S
H333 C339 0.950 . S
H334 C340 0.949 . S
C335 H330 0.950 . S
C335 C337 1.327 . S
C335 C341 1.429 . S
C336 C328 1.574 . S
C336 H331 0.949 . S
C336 C342 1.368 . S
C337 C321 1.349 . S
C337 H329 0.950 . S
C337 C335 1.327 . S
C338 C326 1.349 . S
C338 H332 0.950 . S
C338 C339 1.327 . S
C339 H333 0.950 . S
C339 C338 1.327 . S
C339 C343 1.429 . S
C340 C323 1.574 . S
C340 H334 0.949 . S
C340 C344 1.368 . S
C341 C322 1.429 . S
C341 C335 1.429 . S
C341 C342 1.523 . S
C342 C323 1.368 . S
C342 C336 1.368 . S
C342 C341 1.523 . S
C343 C327 1.429 . S
C343 C339 1.429 . S
C343 C344 1.523 . S
C344 C328 1.368 . S
C344 C340 1.368 . S
C344 C343 1.523 . S
H345 C320 0.950 . S
H346 C322 0.950 . S
H347 C323 0.949 . S
H348 C325 0.950 . S
H349 C327 0.950 . S
C350 C351 1.349 . S
C350 C352 1.327 . S
C350 H375 0.950 . S
C351 C350 1.349 . S
C351 C367 1.349 . S
C352 C350 1.327 . S
C352 C371 1.429 . S
C352 H376 0.950 . S
C353 C370 1.574 . S
C353 C372 1.368 . S
C353 H377 0.949 . S
H354 C358 0.949 . S
C355 C356 1.349 . S
C355 C357 1.327 . S
C355 H378 0.950 . S
C356 C355 1.349 . S
C356 C368 1.349 . S
C357 C355 1.327 . S
C357 C373 1.429 . S
C357 H379 0.950 . S
C358 H354 0.949 . S
C358 C366 1.574 . S
C358 C374 1.368 . S
H359 C367 0.950 . S
H360 C365 0.950 . S
H361 C366 0.949 . S
H362 C368 0.950 . S
H363 C369 0.950 . S
H364 C370 0.949 . S
C365 H360 0.950 . S
C365 C367 1.327 . S
C365 C371 1.429 . S
C366 C358 1.574 . S
C366 H361 0.949 . S
C366 C372 1.368 . S
C367 C351 1.349 . S
C367 H359 0.950 . S
C367 C365 1.327 . S
C368 C356 1.349 . S
C368 H362 0.950 . S
C368 C369 1.327 . S
C369 H363 0.950 . S
C369 C368 1.327 . S
C369 C373 1.429 . S
C370 C353 1.574 . S
C370 H364 0.949 . S
C370 C374 1.368 . S
C371 C352 1.429 . S
C371 C365 1.429 . S
C371 C372 1.523 1_554 S
C372 C353 1.368 . S
C372 C366 1.368 . S
C372 C371 1.523 1_556 S
C373 C357 1.429 . S
C373 C369 1.429 . S
C373 C374 1.523 . S
C374 C358 1.368 . S
C374 C370 1.368 . S
C374 C373 1.523 . S
H375 C350 0.950 . S
H376 C352 0.950 . S
H377 C353 0.949 . S
H378 C355 0.950 . S
H379 C357 0.950 . S
C380 C381 1.349 . S
C380 C382 1.327 . S
C380 H405 0.950 . S
C381 C380 1.349 . S
C381 C397 1.349 . S
C382 C380 1.327 . S
C382 C401 1.429 . S
C382 H406 0.950 . S
C383 C400 1.574 . S
C383 C402 1.368 . S
C383 H407 0.949 . S
H384 C388 0.949 . S
C385 C386 1.349 . S
C385 C387 1.327 1_556 S
C385 H408 0.950 . S
C386 C385 1.349 . S
C386 C398 1.349 . S
C387 C385 1.327 1_554 S
C387 C403 1.429 . S
C387 H409 0.950 . S
C388 H384 0.949 . S
C388 C396 1.574 . S
C388 C404 1.368 . S
H389 C397 0.950 . S
H390 C395 0.950 . S
H391 C396 0.949 . S
H392 C398 0.950 . S
H393 C399 0.950 . S
H394 C400 0.949 . S
C395 H390 0.950 . S
C395 C397 1.327 . S
C395 C401 1.429 . S
C396 C388 1.574 . S
C396 H391 0.949 . S
C396 C402 1.368 . S
C397 C381 1.349 . S
C397 H389 0.950 . S
C397 C395 1.327 . S
C398 C386 1.349 . S
C398 H392 0.950 . S
C398 C399 1.327 1_556 S
C399 H393 0.950 . S
C399 C398 1.327 1_554 S
C399 C403 1.429 . S
C400 C383 1.574 . S
C400 H394 0.949 . S
C400 C404 1.368 . S
C401 C382 1.429 . S
C401 C395 1.429 . S
C401 C402 1.523 . S
C402 C383 1.368 . S
C402 C396 1.368 . S
C402 C401 1.523 . S
C403 C387 1.429 . S
C403 C399 1.429 . S
C403 C404 1.523 . S
C404 C388 1.368 . S
C404 C400 1.368 . S
C404 C403 1.523 . S
H405 C380 0.950 . S
H406 C382 0.950 . S
H407 C383 0.949 . S
H408 C385 0.950 . S
H409 C387 0.950 . S
C410 C411 1.349 . S
C410 C412 1.327 . S
C410 H435 0.950 . S
C411 C410 1.349 . S
C411 C427 1.349 . S
C412 C410 1.327 . S
C412 C431 1.429 . S
C412 H436 0.950 . S
C413 C430 1.574 . S
C413 C432 1.368 . S
C413 H437 0.949 . S
H414 C418 0.949 . S
C415 C416 1.349 . S
C415 C417 1.327 . S
C415 H438 0.950 . S
C416 C415 1.349 . S
C416 C428 1.349 . S
C417 C415 1.327 . S
C417 C433 1.429 . S
C417 H439 0.950 . S
C418 H414 0.949 . S
C418 C426 1.574 . S
C418 C434 1.368 . S
H419 C427 0.950 . S
H420 C425 0.950 . S
H421 C426 0.949 . S
H422 C428 0.950 . S
H423 C429 0.950 . S
H424 C430 0.949 . S
C425 H420 0.950 . S
C425 C427 1.327 . S
C425 C431 1.429 . S
C426 C418 1.574 . S
C426 H421 0.949 . S
C426 C432 1.368 . S
C427 C411 1.349 . S
C427 H419 0.950 . S
C427 C425 1.327 . S
C428 C416 1.349 . S
C428 H422 0.950 . S
C428 C429 1.327 . S
C429 H423 0.950 . S
C429 C428 1.327 . S
C429 C433 1.429 . S
C430 C413 1.574 . S
C430 H424 0.949 . S
C430 C434 1.368 . S
C431 C412 1.429 . S
C431 C425 1.429 . S
C431 C432 1.523 . S
C432 C413 1.368 . S
C432 C426 1.368 . S
C432 C431 1.523 . S
C433 C417 1.429 . S
C433 C429 1.429 . S
C433 C434 1.523 . S
C434 C418 1.368 . S
C434 C430 1.368 . S
C434 C433 1.523 . S
H435 C410 0.950 . S
H436 C412 0.950 . S
H437 C413 0.949 . S
H438 C415 0.950 . S
H439 C417 0.950 . S
C440 C441 1.349 . S
C440 C442 1.327 . S
C440 H465 0.950 . S
C441 C440 1.349 . S
C441 C457 1.349 . S
C442 C440 1.327 . S
C442 C461 1.429 . S
C442 H466 0.950 . S
C443 C460 1.574 . S
C443 C462 1.368 . S
C443 H467 0.949 . S
H444 C448 0.949 . S
C445 C446 1.349 . S
C445 C447 1.327 . S
C445 H468 0.950 . S
C446 C445 1.349 . S
C446 C458 1.349 . S
C447 C445 1.327 . S
C447 C463 1.429 . S
C447 H469 0.950 . S
C448 H444 0.949 . S
C448 C456 1.574 . S
C448 C464 1.368 . S
H449 C457 0.950 . S
H450 C455 0.950 . S
H451 C456 0.949 . S
H452 C458 0.950 . S
H453 C459 0.950 . S
H454 C460 0.949 . S
C455 H450 0.950 . S
C455 C457 1.327 . S
C455 C461 1.429 . S
C456 C448 1.574 . S
C456 H451 0.949 . S
C456 C462 1.368 . S
C457 C441 1.349 . S
C457 H449 0.950 . S
C457 C455 1.327 . S
C458 C446 1.349 . S
C458 H452 0.950 . S
C458 C459 1.327 . S
C459 H453 0.950 . S
C459 C458 1.327 . S
C459 C463 1.429 . S
C460 C443 1.574 . S
C460 H454 0.949 . S
C460 C464 1.368 . S
C461 C442 1.429 . S
C461 C455 1.429 . S
C461 C462 1.523 . S
C462 C443 1.368 . S
C462 C456 1.368 . S
C462 C461 1.523 . S
C463 C447 1.429 . S
C463 C459 1.429 . S
C463 C464 1.523 . S
C464 C448 1.368 . S
C464 C460 1.368 . S
C464 C463 1.523 . S
H465 C440 0.950 . S
H466 C442 0.950 . S
H467 C443 0.949 . S
H468 C445 0.950 . S
H469 C447 0.950 . S
C470 C471 1.349 . S
C470 C472 1.327 . S
C470 H495 0.950 . S
C471 C470 1.349 . S
C471 C487 1.349 . S
C472 C470 1.327 . S
C472 C491 1.429 . S
C472 H496 0.950 . S
C473 C490 1.574 . S
C473 C492 1.368 . S
C473 H497 0.949 . S
H474 C478 0.949 . S
C475 C476 1.349 . S
C475 C477 1.327 . S
C475 H498 0.950 . S
C476 C475 1.349 . S
C476 C488 1.349 . S
C477 C475 1.327 . S
C477 C493 1.429 . S
C477 H499 0.950 . S
C478 H474 0.949 . S
C478 C486 1.574 . S
C478 C494 1.368 . S
H479 C487 0.950 . S
H480 C485 0.950 . S
H481 C486 0.949 . S
H482 C488 0.950 . S
H483 C489 0.950 . S
H484 C490 0.949 . S
C485 H480 0.950 . S
C485 C487 1.327 . S
C485 C491 1.429 . S
C486 C478 1.574 . S
C486 H481 0.949 . S
C486 C492 1.368 . S
C487 C471 1.349 . S
C487 H479 0.950 . S
C487 C485 1.327 . S
C488 C476 1.349 . S
C488 H482 0.950 . S
C488 C489 1.327 . S
C489 H483 0.950 . S
C489 C488 1.327 . S
C489 C493 1.429 . S
C490 C473 1.574 . S
C490 H484 0.949 . S
C490 C494 1.368 . S
C491 C472 1.429 . S
C491 C485 1.429 . S
C491 C492 1.523 . S
C492 C473 1.368 . S
C492 C486 1.368 . S
C492 C491 1.523 . S
C493 C477 1.429 . S
C493 C489 1.429 . S
C493 C494 1.523 . S
C494 C478 1.368 . S
C494 C490 1.368 . S
C494 C493 1.523 . S
H495 C470 0.950 . S
H496 C472 0.950 . S
H497 C473 0.949 . S
H498 C475 0.950 . S
H499 C477 0.950 . S
C500 C501 1.349 . S
C500 C502 1.327 . S
C500 H525 0.950 . S
C501 C500 1.349 . S
C501 C517 1.349 . S
C502 C500 1.327 . S
C502 C521 1.429 . S
C502 H526 0.950 . S
C503 C520 1.574 . S
C503 C522 1.368 . S
C503 H527 0.949 . S
H504 C508 0.949 . S
C505 C506 1.349 . S
C505 C507 1.327 . S
C505 H528 0.950 . S
C506 C505 1.349 . S
C506 C518 1.349 . S
C507 C505 1.327 . S
C507 C523 1.429 . S
C507 H529 0.950 . S
C508 H504 0.949 . S
C508 C516 1.574 . S
C508 C524 1.368 . S
H509 C517 0.950 . S
H510 C515 0.950 . S
H511 C516 0.949 . S
H512 C518 0.950 . S
H513 C519 0.950 . S
H514 C520 0.949 . S
C515 H510 0.950 . S
C515 C517 1.327 . S
C515 C521 1.429 . S
C516 C508 1.574 . S
C516 H511 0.949 . S
C516 C522 1.368 . S
C517 C501 1.349 . S
C517 H509 0.950 . S
C517 C515 1.327 . S
C518 C506 1.349 . S
C518 H512 0.950 . S
C518 C519 1.327 . S
C519 H513 0.950 . S
C519 C518 1.327 . S
C519 C523 1.429 . S
C520 C503 1.574 . S
C520 H514 0.949 . S
C520 C524 1.368 . S
C521 C502 1.429 . S
C521 C515 1.429 . S
C521 C522 1.523 . S
C522 C503 1.368 . S
C522 C516 1.368 . S
C522 C521 1.523 . S
C523 C507 1.429 . S
C523 C519 1.429 . S
C523 C524 1.523 1_554 S
C524 C508 1.368 . S
C524 C520 1.368 . S
C524 C523 1.523 1_556 S
H525 C500 0.950 . S
H526 C502 0.950 . S
H527 C503 0.949 . S
H528 C505 0.950 . S
H529 C507 0.950 . S
C530 C531 1.349 . S
C530 C532 1.327 1_556 S
C530 H555 0.950 . S
C531 C530 1.349 . S
C531 C547 1.349 . S
C532 C530 1.327 1_554 S
C532 C551 1.429 . S
C532 H556 0.950 . S
C533 C550 1.574 . S
C533 C552 1.368 . S
C533 H557 0.949 . S
H534 C538 0.949 . S
C535 C536 1.349 . S
C535 C537 1.327 . S
C535 H558 0.950 . S
C536 C535 1.349 . S
C536 C548 1.349 . S
C537 C535 1.327 . S
C537 C553 1.429 . S
C537 H559 0.950 . S
C538 H534 0.949 . S
C538 C546 1.574 . S
C538 C554 1.368 . S
H539 C547 0.950 . S
H540 C545 0.950 . S
H541 C546 0.949 . S
H542 C548 0.950 . S
H543 C549 0.950 . S
H544 C550 0.949 . S
C545 H540 0.950 . S
C545 C547 1.327 1_554 S
C545 C551 1.429 . S
C546 C538 1.574 . S
C546 H541 0.949 . S
C546 C552 1.368 . S
C547 C531 1.349 . S
C547 H539 0.950 . S
C547 C545 1.327 1_556 S
C548 C536 1.349 . S
C548 H542 0.950 . S
C548 C549 1.327 . S
C549 H543 0.950 . S
C549 C548 1.327 . S
C549 C553 1.429 . S
C550 C533 1.574 . S
C550 H544 0.949 . S
C550 C554 1.368 . S
C551 C532 1.429 . S
C551 C545 1.429 . S
C551 C552 1.523 . S
C552 C533 1.368 . S
C552 C546 1.368 . S
C552 C551 1.523 . S
C553 C537 1.429 . S
C553 C549 1.429 . S
C553 C554 1.523 . S
C554 C538 1.368 . S
C554 C550 1.368 . S
C554 C553 1.523 . S
H555 C530 0.950 . S
H556 C532 0.950 . S
H557 C533 0.949 . S
H558 C535 0.950 . S
H559 C537 0.950 . S
C560 C561 1.349 . S
C560 C562 1.327 . S
C560 H585 0.950 . S
C561 C560 1.349 . S
C561 C577 1.349 . S
C562 C560 1.327 . S
C562 C581 1.429 . S
C562 H586 0.950 . S
C563 C580 1.574 . S
C563 C582 1.368 . S
C563 H587 0.949 . S
H564 C568 0.949 . S
C565 C566 1.349 . S
C565 C567 1.327 . S
C565 H588 0.950 . S
C566 C565 1.349 . S
C566 C578 1.349 . S
C567 C565 1.327 . S
C567 C583 1.429 . S
C567 H589 0.950 . S
C568 H564 0.949 . S
C568 C576 1.574 . S
C568 C584 1.368 . S
H569 C577 0.950 . S
H570 C575 0.950 . S
H571 C576 0.949 . S
H572 C578 0.950 . S
H573 C579 0.950 . S
H574 C580 0.949 . S
C575 H570 0.950 . S
C575 C577 1.327 . S
C575 C581 1.429 . S
C576 C568 1.574 . S
C576 H571 0.949 . S
C576 C582 1.368 . S
C577 C561 1.349 . S
C577 H569 0.950 . S
C577 C575 1.327 . S
C578 C566 1.349 . S
C578 H572 0.950 . S
C578 C579 1.327 . S
C579 H573 0.950 . S
C579 C578 1.327 . S
C579 C583 1.429 . S
C580 C563 1.574 . S
C580 H574 0.949 . S
C580 C584 1.368 . S
C581 C562 1.429 . S
C581 C575 1.429 . S
C581 C582 1.523 . S
C582 C563 1.368 . S
C582 C576 1.368 . S
C582 C581 1.523 . S
C583 C567 1.429 . S
C583 C579 1.429 . S
C583 C584 1.523 . S
C584 C568 1.368 . S
C584 C580 1.368 . S
C584 C583 1.523 . S
H585 C560 0.950 . S
H586 C562 0.950 . S
H587 C563 0.949 . S
H588 C565 0.950 . S
H589 C567 0.950 . S
C590 C591 1.349 . S
C590 C592 1.327 . S
C590 H615 0.950 . S
C591 C590 1.349 . S
C591 C607 1.349 . S
C592 C590 1.327 . S
C592 C611 1.429 . S
C592 H616 0.950 . S
C593 C610 1.574 . S
C593 C612 1.368 . S
C593 H617 0.949 . S
H594 C598 0.949 . S
C595 C596 1.349 . S
C595 C597 1.327 . S
C595 H618 0.950 . S
C596 C595 1.349 . S
C596 C608 1.349 . S
C597 C595 1.327 . S
C597 C613 1.429 . S
C597 H619 0.950 . S
C598 H594 0.949 . S
C598 C606 1.574 . S
C598 C614 1.368 . S
H599 C607 0.950 . S
H600 C605 0.950 . S
H601 C606 0.949 . S
H602 C608 0.950 . S
H603 C609 0.950 . S
H604 C610 0.949 . S
C605 H600 0.950 . S
C605 C607 1.327 . S
C605 C611 1.429 . S
C606 C598 1.574 . S
C606 H601 0.949 . S
C606 C612 1.368 . S
C607 C591 1.349 . S
C607 H599 0.950 . S
C607 C605 1.327 . S
C608 C596 1.349 . S
C608 H602 0.950 . S
C608 C609 1.327 . S
C609 H603 0.950 . S
C609 C608 1.327 . S
C609 C613 1.429 . S
C610 C593 1.574 . S
C610 H604 0.949 . S
C610 C614 1.368 . S
C611 C592 1.429 . S
C611 C605 1.429 . S
C611 C612 1.523 . S
C612 C593 1.368 . S
C612 C606 1.368 . S
C612 C611 1.523 . S
C613 C597 1.429 . S
C613 C609 1.429 . S
C613 C614 1.523 1_556 S
C614 C598 1.368 . S
C614 C610 1.368 . S
C614 C613 1.523 1_554 S
H615 C590 0.950 . S
H616 C592 0.950 . S
H617 C593 0.949 . S
H618 C595 0.950 . S
H619 C597 0.950 . S
C620 C621 1.349 . S
C620 C622 1.327 1_554 S
C620 H645 0.950 . S
C621 C620 1.349 . S
C621 C637 1.349 . S
C622 C620 1.327 1_556 S
C622 C641 1.429 . S
C622 H646 0.950 . S
C623 C640 1.574 . S
C623 C642 1.368 . S
C623 H647 0.949 . S
H624 C628 0.949 . S
C625 C626 1.349 . S
C625 C627 1.327 . S
C625 H648 0.950 . S
C626 C625 1.349 . S
C626 C638 1.349 . S
C627 C625 1.327 . S
C627 C643 1.429 . S
C627 H649 0.950 . S
C628 H624 0.949 . S
C628 C636 1.574 . S
C628 C644 1.368 . S
H629 C637 0.950 . S
H630 C635 0.950 . S
H631 C636 0.949 . S
H632 C638 0.950 . S
H633 C639 0.950 . S
H634 C640 0.949 . S
C635 H630 0.950 . S
C635 C637 1.327 1_556 S
C635 C641 1.429 . S
C636 C628 1.574 . S
C636 H631 0.949 . S
C636 C642 1.368 . S
C637 C621 1.349 . S
C637 H629 0.950 . S
C637 C635 1.327 1_554 S
C638 C626 1.349 . S
C638 H632 0.950 . S
C638 C639 1.327 . S
C639 H633 0.950 . S
C639 C638 1.327 . S
C639 C643 1.429 . S
C640 C623 1.574 . S
C640 H634 0.949 . S
C640 C644 1.368 . S
C641 C622 1.429 . S
C641 C635 1.429 . S
C641 C642 1.523 . S
C642 C623 1.368 . S
C642 C636 1.368 . S
C642 C641 1.523 . S
C643 C627 1.429 . S
C643 C639 1.429 . S
C643 C644 1.523 . S
C644 C628 1.368 . S
C644 C640 1.368 . S
C644 C643 1.523 . S
H645 C620 0.950 . S
H646 C622 0.950 . S
H647 C623 0.949 . S
H648 C625 0.950 . S
H649 C627 0.950 . S
C650 C651 1.349 . S
C650 C652 1.327 . S
C650 H675 0.950 . S
C651 C650 1.349 . S
C651 C667 1.349 . S
C652 C650 1.327 . S
C652 C671 1.429 . S
C652 H676 0.950 . S
C653 C670 1.574 . S
C653 C672 1.368 . S
C653 H677 0.949 . S
H654 C658 0.949 . S
C655 C656 1.349 . S
C655 C657 1.327 . S
C655 H678 0.950 . S
C656 C655 1.349 . S
C656 C668 1.349 . S
C657 C655 1.327 . S
C657 C673 1.429 . S
C657 H679 0.950 . S
C658 H654 0.949 . S
C658 C666 1.574 . S
C658 C674 1.368 . S
H659 C667 0.950 . S
H660 C665 0.950 . S
H661 C666 0.949 . S
H662 C668 0.950 . S
H663 C669 0.950 . S
H664 C670 0.949 . S
C665 H660 0.950 . S
C665 C667 1.327 . S
C665 C671 1.429 . S
C666 C658 1.574 . S
C666 H661 0.949 . S
C666 C672 1.368 . S
C667 C651 1.349 . S
C667 H659 0.950 . S
C667 C665 1.327 . S
C668 C656 1.349 . S
C668 H662 0.950 . S
C668 C669 1.327 . S
C669 H663 0.950 . S
C669 C668 1.327 . S
C669 C673 1.429 . S
C670 C653 1.574 . S
C670 H664 0.949 . S
C670 C674 1.368 . S
C671 C652 1.429 . S
C671 C665 1.429 . S
C671 C672 1.523 . S
C672 C653 1.368 . S
C672 C666 1.368 . S
C672 C671 1.523 . S
C673 C657 1.429 . S
C673 C669 1.429 . S
C673 C674 1.523 . S
C674 C658 1.368 . S
C674 C670 1.368 . S
C674 C673 1.523 . S
H675 C650 0.950 . S
H676 C652 0.950 . S
H677 C653 0.949 . S
H678 C655 0.950 . S
H679 C657 0.950 . S
C680 C681 1.349 . S
C680 C682 1.327 . S
C680 H705 0.950 . S
C681 C680 1.349 . S
C681 C697 1.349 . S
C682 C680 1.327 . S
C682 C701 1.429 . S
C682 H706 0.950 . S
C683 C700 1.574 . S
C683 C702 1.368 . S
C683 H707 0.949 . S
H684 C688 0.949 . S
C685 C686 1.349 . S
C685 C687 1.327 . S
C685 H708 0.950 . S
C686 C685 1.349 . S
C686 C698 1.349 . S
C687 C685 1.327 . S
C687 C703 1.429 . S
C687 H709 0.950 . S
C688 H684 0.949 . S
C688 C696 1.574 . S
C688 C704 1.368 . S
H689 C697 0.950 . S
H690 C695 0.950 . S
H691 C696 0.949 . S
H692 C698 0.950 . S
H693 C699 0.950 . S
H694 C700 0.949 . S
C695 H690 0.950 . S
C695 C697 1.327 . S
C695 C701 1.429 . S
C696 C688 1.574 . S
C696 H691 0.949 . S
C696 C702 1.368 . S
C697 C681 1.349 . S
C697 H689 0.950 . S
C697 C695 1.327 . S
C698 C686 1.349 . S
C698 H692 0.950 . S
C698 C699 1.327 . S
C699 H693 0.950 . S
C699 C698 1.327 . S
C699 C703 1.429 . S
C700 C683 1.574 . S
C700 H694 0.949 . S
C700 C704 1.368 . S
C701 C682 1.429 . S
C701 C695 1.429 . S
C701 C702 1.523 . S
C702 C683 1.368 . S
C702 C696 1.368 . S
C702 C701 1.523 . S
C703 C687 1.429 . S
C703 C699 1.429 . S
C703 C704 1.523 . S
C704 C688 1.368 . S
C704 C700 1.368 . S
C704 C703 1.523 . S
H705 C680 0.950 . S
H706 C682 0.950 . S
H707 C683 0.949 . S
H708 C685 0.950 . S
H709 C687 0.950 . S
C710 C711 1.349 . S
C710 C712 1.327 . S
C710 H735 0.950 . S
C711 C710 1.349 . S
C711 C727 1.349 . S
C712 C710 1.327 . S
C712 C731 1.429 . S
C712 H736 0.950 . S
C713 C730 1.574 . S
C713 C732 1.368 . S
C713 H737 0.949 . S
H714 C718 0.949 . S
C715 C716 1.349 . S
C715 C717 1.327 . S
C715 H738 0.950 . S
C716 C715 1.349 . S
C716 C728 1.349 . S
C717 C715 1.327 . S
C717 C733 1.429 . S
C717 H739 0.950 . S
C718 H714 0.949 . S
C718 C726 1.574 . S
C718 C734 1.368 . S
H719 C727 0.950 . S
H720 C725 0.950 . S
H721 C726 0.949 . S
H722 C728 0.950 . S
H723 C729 0.950 . S
H724 C730 0.949 . S
C725 H720 0.950 . S
C725 C727 1.327 . S
C725 C731 1.429 . S
C726 C718 1.574 . S
C726 H721 0.949 . S
C726 C732 1.368 . S
C727 C711 1.349 . S
C727 H719 0.950 . S
C727 C725 1.327 . S
C728 C716 1.349 . S
C728 H722 0.950 . S
C728 C729 1.327 . S
C729 H723 0.950 . S
C729 C728 1.327 . S
C729 C733 1.429 . S
C730 C713 1.574 . S
C730 H724 0.949 . S
C730 C734 1.368 . S
C731 C712 1.429 . S
C731 C725 1.429 . S
C731 C732 1.523 . S
C732 C713 1.368 . S
C732 C726 1.368 . S
C732 C731 1.523 . S
C733 C717 1.429 . S
C733 C729 1.429 . S
C733 C734 1.523 . S
C734 C718 1.368 . S
C734 C730 1.368 . S
C734 C733 1.523 . S
H735 C710 0.950 . S
H736 C712 0.950 . S
H737 C713 0.949 . S
H738 C715 0.950 . S
H739 C717 0.950 . S
C740 C741 1.349 . S
C740 C742 1.327 . S
C740 H765 0.950 . S
C741 C740 1.349 . S
C741 C757 1.349 . S
C742 C740 1.327 . S
C742 C761 1.429 . S
C742 H766 0.950 . S
C743 C760 1.574 . S
C743 C762 1.368 . S
C743 H767 0.949 . S
H744 C748 0.949 . S
C745 C746 1.349 . S
C745 C747 1.327 . S
C745 H768 0.950 . S
C746 C745 1.349 . S
C746 C758 1.349 . S
C747 C745 1.327 . S
C747 C763 1.429 . S
C747 H769 0.950 . S
C748 H744 0.949 . S
C748 C756 1.574 . S
C748 C764 1.368 . S
H749 C757 0.950 . S
H750 C755 0.950 . S
H751 C756 0.949 . S
H752 C758 0.950 . S
H753 C759 0.950 . S
H754 C760 0.949 . S
C755 H750 0.950 . S
C755 C757 1.327 . S
C755 C761 1.429 . S
C756 C748 1.574 . S
C756 H751 0.949 . S
C756 C762 1.368 . S
C757 C741 1.349 . S
C757 H749 0.950 . S
C757 C755 1.327 . S
C758 C746 1.349 . S
C758 H752 0.950 . S
C758 C759 1.327 . S
C759 H753 0.950 . S
C759 C758 1.327 . S
C759 C763 1.429 . S
C760 C743 1.574 . S
C760 H754 0.949 . S
C760 C764 1.368 . S
C761 C742 1.429 . S
C761 C755 1.429 . S
C761 C762 1.523 . S
C762 C743 1.368 . S
C762 C756 1.368 . S
C762 C761 1.523 . S
C763 C747 1.429 . S
C763 C759 1.429 . S
C763 C764 1.523 1_556 S
C764 C748 1.368 . S
C764 C760 1.368 . S
C764 C763 1.523 1_554 S
H765 C740 0.950 . S
H766 C742 0.950 . S
H767 C743 0.949 . S
H768 C745 0.950 . S
H769 C747 0.950 . S
C770 C771 1.349 . S
C770 C772 1.327 1_554 S
C770 H795 0.950 . S
C771 C770 1.349 . S
C771 C787 1.349 . S
C772 C770 1.327 1_556 S
C772 C791 1.429 . S
C772 H796 0.950 . S
C773 C790 1.574 . S
C773 C792 1.368 . S
C773 H797 0.949 . S
H774 C778 0.949 . S
C775 C776 1.349 . S
C775 C777 1.327 . S
C775 H798 0.950 . S
C776 C775 1.349 . S
C776 C788 1.349 . S
C777 C775 1.327 . S
C777 C793 1.429 . S
C777 H799 0.950 . S
C778 H774 0.949 . S
C778 C786 1.574 . S
C778 C794 1.368 . S
H779 C787 0.950 . S
H780 C785 0.950 . S
H781 C786 0.949 . S
H782 C788 0.950 . S
H783 C789 0.950 . S
H784 C790 0.949 . S
C785 H780 0.950 . S
C785 C787 1.327 1_556 S
C785 C791 1.429 . S
C786 C778 1.574 . S
C786 H781 0.949 . S
C786 C792 1.368 . S
C787 C771 1.349 . S
C787 H779 0.950 . S
C787 C785 1.327 1_554 S
C788 C776 1.349 . S
C788 H782 0.950 . S
C788 C789 1.327 . S
C789 H783 0.950 . S
C789 C788 1.327 . S
C789 C793 1.429 . S
C790 C773 1.574 . S
C790 H784 0.949 . S
C790 C794 1.368 . S
C791 C772 1.429 . S
C791 C785 1.429 . S
C791 C792 1.523 . S
C792 C773 1.368 . S
C792 C786 1.368 . S
C792 C791 1.523 . S
C793 C777 1.429 . S
C793 C789 1.429 . S
C793 C794 1.523 . S
C794 C778 1.368 . S
C794 C790 1.368 . S
C794 C793 1.523 . S
H795 C770 0.950 . S
H796 C772 0.950 . S
H797 C773 0.949 . S
H798 C775 0.950 . S
H799 C777 0.950 . S
C800 C801 1.349 . S
C800 C802 1.327 . S
C800 H825 0.950 . S
C801 C800 1.349 . S
C801 C817 1.349 . S
C802 C800 1.327 . S
C802 C821 1.429 . S
C802 H826 0.950 . S
C803 C820 1.574 . S
C803 C822 1.368 . S
C803 H827 0.949 . S
H804 C808 0.949 . S
C805 C806 1.349 . S
C805 C807 1.327 . S
C805 H828 0.950 . S
C806 C805 1.349 . S
C806 C818 1.349 . S
C807 C805 1.327 . S
C807 C823 1.429 . S
C807 H829 0.950 . S
C808 H804 0.949 . S
C808 C816 1.574 . S
C808 C824 1.368 . S
H809 C817 0.950 . S
H810 C815 0.950 . S
H811 C816 0.949 . S
H812 C818 0.950 . S
H813 C819 0.950 . S
H814 C820 0.949 . S
C815 H810 0.950 . S
C815 C817 1.327 . S
C815 C821 1.429 . S
C816 C808 1.574 . S
C816 H811 0.949 . S
C816 C822 1.368 . S
C817 C801 1.349 . S
C817 H809 0.950 . S
C817 C815 1.327 . S
C818 C806 1.349 . S
C818 H812 0.950 . S
C818 C819 1.327 . S
C819 H813 0.950 . S
C819 C818 1.327 . S
C819 C823 1.429 . S
C820 C803 1.574 . S
C820 H814 0.949 . S
C820 C824 1.368 . S
C821 C802 1.429 . S
C821 C815 1.429 . S
C821 C822 1.523 . S
C822 C803 1.368 . S
C822 C816 1.368 . S
C822 C821 1.523 . S
C823 C807 1.429 . S
C823 C819 1.429 . S
C823 C824 1.523 . S
C824 C808 1.368 . S
C824 C820 1.368 . S
C824 C823 1.523 . S
H825 C800 0.950 . S
H826 C802 0.950 . S
H827 C803 0.949 . S
H828 C805 0.950 . S
H829 C807 0.950 . S
C830 C831 1.349 . S
C830 C832 1.327 . S
C830 H855 0.950 . S
C831 C830 1.349 . S
C831 C847 1.349 . S
C832 C830 1.327 . S
C832 C851 1.429 . S
C832 H856 0.950 . S
C833 C850 1.574 . S
C833 C852 1.368 . S
C833 H857 0.949 . S
H834 C838 0.949 . S
C835 C836 1.349 . S
C835 C837 1.327 . S
C835 H858 0.950 . S
C836 C835 1.349 . S
C836 C848 1.349 . S
C837 C835 1.327 . S
C837 C853 1.429 . S
C837 H859 0.950 . S
C838 H834 0.949 . S
C838 C846 1.574 . S
C838 C854 1.368 . S
H839 C847 0.950 . S
H840 C845 0.950 . S
H841 C846 0.949 . S
H842 C848 0.950 . S
H843 C849 0.950 . S
H844 C850 0.949 . S
C845 H840 0.950 . S
C845 C847 1.327 . S
C845 C851 1.429 . S
C846 C838 1.574 . S
C846 H841 0.949 . S
C846 C852 1.368 . S
C847 C831 1.349 . S
C847 H839 0.950 . S
C847 C845 1.327 . S
C848 C836 1.349 . S
C848 H842 0.950 . S
C848 C849 1.327 . S
C849 H843 0.950 . S
C849 C848 1.327 . S
C849 C853 1.429 . S
C850 C833 1.574 . S
C850 H844 0.949 . S
C850 C854 1.368 . S
C851 C832 1.429 . S
C851 C845 1.429 . S
C851 C852 1.523 . S
C852 C833 1.368 . S
C852 C846 1.368 . S
C852 C851 1.523 . S
C853 C837 1.429 . S
C853 C849 1.429 . S
C853 C854 1.523 . S
C854 C838 1.368 . S
C854 C850 1.368 . S
C854 C853 1.523 . S
H855 C830 0.950 . S
H856 C832 0.950 . S
H857 C833 0.949 . S
H858 C835 0.950 . S
H859 C837 0.950 . S
C860 C861 1.349 . S
C860 C862 1.327 . S
C860 H885 0.950 . S
C861 C860 1.349 . S
C861 C877 1.349 . S
C862 C860 1.327 . S
C862 C881 1.429 . S
C862 H886 0.950 . S
C863 C880 1.574 . S
C863 C882 1.368 . S
C863 H887 0.949 . S
H864 C868 0.949 . S
C865 C866 1.349 . S
C865 C867 1.327 . S
C865 H888 0.950 . S
C866 C865 1.349 . S
C866 C878 1.349 . S
C867 C865 1.327 . S
C867 C883 1.429 . S
C867 H889 0.950 . S
C868 H864 0.949 . S
C868 C876 1.574 . S
C868 C884 1.368 . S
H869 C877 0.950 . S
H870 C875 0.950 . S
H871 C876 0.949 . S
H872 C878 0.950 . S
H873 C879 0.950 . S
H874 C880 0.949 . S
C875 H870 0.950 . S
C875 C877 1.327 . S
C875 C881 1.429 . S
C876 C868 1.574 . S
C876 H871 0.949 . S
C876 C882 1.368 . S
C877 C861 1.349 . S
C877 H869 0.950 . S
C877 C875 1.327 . S
C878 C866 1.349 . S
C878 H872 0.950 . S
C878 C879 1.327 . S
C879 H873 0.950 . S
C879 C878 1.327 . S
C879 C883 1.429 . S
C880 C863 1.574 . S
C880 H874 0.949 . S
C880 C884 1.368 . S
C881 C862 1.429 . S
C881 C875 1.429 . S
C881 C882 1.523 . S
C882 C863 1.368 . S
C882 C876 1.368 . S
C882 C881 1.523 . S
C883 C867 1.429 . S
C883 C879 1.429 . S
C883 C884 1.523 . S
C884 C868 1.368 . S
C884 C880 1.368 . S
C884 C883 1.523 . S
H885 C860 0.950 . S
H886 C862 0.950 . S
H887 C863 0.949 . S
H888 C865 0.950 . S
H889 C867 0.950 . S
C890 C891 1.349 . S
C890 C892 1.327 . S
C890 H915 0.950 1_556 S
C891 C890 1.349 . S
C891 C907 1.349 . S
C892 C890 1.327 . S
C892 C911 1.429 . S
C892 H916 0.950 1_556 S
C893 C910 1.574 . S
C893 C912 1.368 . S
C893 H917 0.949 . S
H894 C898 0.949 1_554 S
C895 C896 1.349 . S
C895 C897 1.327 . S
C895 H918 0.950 . S
C896 C895 1.349 . S
C896 C908 1.349 . S
C897 C895 1.327 . S
C897 C913 1.429 . S
C897 H919 0.950 . S
C898 H894 0.949 1_556 S
C898 C906 1.574 1_455 S
C898 C914 1.368 . S
H899 C907 0.950 . S
H900 C905 0.950 . S
H901 C906 0.949 1_554 S
H902 C908 0.950 . S
H903 C909 0.950 1_554 S
H904 C910 0.949 1_455 S
C905 H900 0.950 . S
C905 C907 1.327 . S
C905 C911 1.429 . S
C906 C898 1.574 1_655 S
C906 H901 0.949 1_556 S
C906 C912 1.368 . S
C907 C891 1.349 . S
C907 H899 0.950 . S
C907 C905 1.327 . S
C908 C896 1.349 . S
C908 H902 0.950 . S
C908 C909 1.327 . S
C909 H903 0.950 1_556 S
C909 C908 1.327 . S
C909 C913 1.429 . S
C910 C893 1.574 . S
C910 H904 0.949 1_655 S
C910 C914 1.368 1_655 S
C911 C892 1.429 . S
C911 C905 1.429 . S
C911 C912 1.523 . S
C912 C893 1.368 . S
C912 C906 1.368 . S
C912 C911 1.523 . S
C913 C897 1.429 . S
C913 C909 1.429 . S
C913 C914 1.523 . S
C914 C898 1.368 . S
C914 C910 1.368 1_455 S
C914 C913 1.523 . S
H915 C890 0.950 1_554 S
H916 C892 0.950 1_554 S
H917 C893 0.949 . S
H918 C895 0.950 . S
H919 C897 0.950 . S
C920 C921 1.349 . S
C920 C922 1.327 . S
C920 H945 0.950 . S
C921 C920 1.349 . S
C921 C937 1.349 . S
C922 C920 1.327 . S
C922 C941 1.429 . S
C922 H946 0.950 . S
C923 C940 1.574 . S
C923 C942 1.368 . S
C923 H947 0.949 . S
H924 C928 0.949 . S
C925 C926 1.349 . S
C925 C927 1.327 . S
C925 H948 0.950 . S
C926 C925 1.349 . S
C926 C938 1.349 . S
C927 C925 1.327 . S
C927 C943 1.429 . S
C927 H949 0.950 . S
C928 H924 0.949 . S
C928 C936 1.574 . S
C928 C944 1.368 . S
H929 C937 0.950 . S
H930 C935 0.950 . S
H931 C936 0.949 . S
H932 C938 0.950 . S
H933 C939 0.950 . S
H934 C940 0.949 . S
C935 H930 0.950 . S
C935 C937 1.327 . S
C935 C941 1.429 . S
C936 C928 1.574 . S
C936 H931 0.949 . S
C936 C942 1.368 . S
C937 C921 1.349 . S
C937 H929 0.950 . S
C937 C935 1.327 . S
C938 C926 1.349 . S
C938 H932 0.950 . S
C938 C939 1.327 . S
C939 H933 0.950 . S
C939 C938 1.327 . S
C939 C943 1.429 . S
C940 C923 1.574 . S
C940 H934 0.949 . S
C940 C944 1.368 . S
C941 C922 1.429 . S
C941 C935 1.429 . S
C941 C942 1.523 . S
C942 C923 1.368 . S
C942 C936 1.368 . S
C942 C941 1.523 . S
C943 C927 1.429 . S
C943 C939 1.429 . S
C943 C944 1.523 . S
C944 C928 1.368 . S
C944 C940 1.368 . S
C944 C943 1.523 . S
H945 C920 0.950 . S
H946 C922 0.950 . S
H947 C923 0.949 . S
H948 C925 0.950 . S
H949 C927 0.950 . S
C950 C951 1.349 . S
C950 C952 1.327 . S
C950 H975 0.950 . S
C951 C950 1.349 . S
C951 C967 1.349 . S
C952 C950 1.327 . S
C952 C971 1.429 . S
C952 H976 0.950 . S
C953 C970 1.574 . S
C953 C972 1.368 . S
C953 H977 0.949 . S
H954 C958 0.983 . S
C955 C956 1.349 . S
C955 C957 1.327 . S
C955 H978 0.950 . S
C956 C955 1.349 . S
C956 C968 1.349 . S
C957 C955 1.327 . S
C957 C973 1.429 . S
C957 H979 0.950 . S
C958 H954 0.983 . S
C958 C966 1.574 . S
C958 C974 1.349 1_455 S
H959 C967 0.950 . S
H960 C965 0.950 . S
H961 C966 0.949 . S
H962 C968 0.950 . S
H963 C969 0.950 . S
H964 C970 0.949 1_655 S
C965 H960 0.950 . S
C965 C967 1.327 . S
C965 C971 1.429 . S
C966 C958 1.574 . S
C966 H961 0.949 . S
C966 C972 1.368 . S
C967 C951 1.349 . S
C967 H959 0.950 . S
C967 C965 1.327 . S
C968 C956 1.349 . S
C968 H962 0.950 . S
C968 C969 1.327 . S
C969 H963 0.950 . S
C969 C968 1.327 . S
C969 C973 1.429 . S
C970 C953 1.574 . S
C970 H964 0.949 1_455 S
C970 C974 1.353 1_455 S
C971 C952 1.429 . S
C971 C965 1.429 . S
C971 C972 1.523 . S
C972 C953 1.368 . S
C972 C966 1.368 . S
C972 C971 1.523 . S
C973 C957 1.429 . S
C973 C969 1.429 . S
C973 C974 1.570 . S
C974 C958 1.349 1_655 S
C974 C970 1.353 1_655 S
C974 C973 1.570 . S
H975 C950 0.950 . S
H976 C952 0.950 . S
H977 C953 0.949 . S
H978 C955 0.950 . S
H979 C957 0.950 . S
C980 C981 1.349 . S
C980 C982 1.327 . S
C980 H1005 0.950 . S
C981 C980 1.349 . S
C981 C997 1.349 . S
C982 C980 1.327 . S
C982 C1001 1.429 . S
C982 H1006 0.950 . S
C983 C1000 1.574 . S
C983 C1002 1.368 . S
C983 H1007 0.949 . S
H984 C988 0.949 . S
C985 C986 1.349 . S
C985 C987 1.327 . S
C985 H1008 0.950 . S
C986 C985 1.349 . S
C986 C998 1.349 . S
C987 C985 1.327 . S
C987 C1003 1.429 . S
C987 H1009 0.950 . S
C988 H984 0.949 . S
C988 C996 1.574 . S
C988 C1004 1.368 . S
H989 C997 0.950 . S
H990 C995 0.950 . S
H991 C996 0.949 . S
H992 C998 0.950 . S
H993 C999 0.950 . S
H994 C1000 0.949 . S
C995 H990 0.950 . S
C995 C997 1.327 . S
C995 C1001 1.429 . S
C996 C988 1.574 . S
C996 H991 0.949 . S
C996 C1002 1.368 . S
C997 C981 1.349 . S
C997 H989 0.950 . S
C997 C995 1.327 . S
C998 C986 1.349 . S
C998 H992 0.950 . S
C998 C999 1.327 . S
C999 H993 0.950 . S
C999 C998 1.327 . S
C999 C1003 1.429 . S
C1000 C983 1.574 . S
C1000 H994 0.949 . S
C1000 C1004 1.368 . S
C1001 C982 1.429 . S
C1001 C995 1.429 . S
C1001 C1002 1.523 . S
C1002 C983 1.368 . S
C1002 C996 1.368 . S
C1002 C1001 1.523 . S
C1003 C987 1.429 . S
C1003 C999 1.429 . S
C1003 C1004 1.523 . S
C1004 C988 1.368 . S
C1004 C1000 1.368 . S
C1004 C1003 1.523 . S
H1005 C980 0.950 . S
H1006 C982 0.950 . S
H1007 C983 0.949 . S
H1008 C985 0.950 . S
H1009 C987 0.950 . S
C1010 C1011 1.349 . S
C1010 C1012 1.327 . S
C1010 H1035 0.950 . S
C1011 C1010 1.349 . S
C1011 C1027 1.349 . S
C1012 C1010 1.327 . S
C1012 C1031 1.429 . S
C1012 H1036 0.950 . S
C1013 C1030 1.574 . S
C1013 C1032 1.368 . S
C1013 H1037 0.949 . S
H1014 C1018 0.949 . S
C1015 C1016 1.349 . S
C1015 C1017 1.327 . S
C1015 H1038 0.950 . S
C1016 C1015 1.349 . S
C1016 C1028 1.349 . S
C1017 C1015 1.327 . S
C1017 C1033 1.429 . S
C1017 H1039 0.950 . S
C1018 H1014 0.949 . S
C1018 C1026 1.574 . S
C1018 C1034 1.368 . S
H1019 C1027 0.950 . S
H1020 C1025 0.950 . S
H1021 C1026 0.949 . S
H1022 C1028 0.950 . S
H1023 C1029 0.950 . S
H1024 C1030 0.949 . S
C1025 H1020 0.950 . S
C1025 C1027 1.327 . S
C1025 C1031 1.429 . S
C1026 C1018 1.574 . S
C1026 H1021 0.949 . S
C1026 C1032 1.368 . S
C1027 C1011 1.349 . S
C1027 H1019 0.950 . S
C1027 C1025 1.327 . S
C1028 C1016 1.349 . S
C1028 H1022 0.950 . S
C1028 C1029 1.327 . S
C1029 H1023 0.950 . S
C1029 C1028 1.327 . S
C1029 C1033 1.429 . S
C1030 C1013 1.574 . S
C1030 H1024 0.949 . S
C1030 C1034 1.368 . S
C1031 C1012 1.429 . S
C1031 C1025 1.429 . S
C1031 C1032 1.523 . S
C1032 C1013 1.368 . S
C1032 C1026 1.368 . S
C1032 C1031 1.523 . S
C1033 C1017 1.429 . S
C1033 C1029 1.429 . S
C1033 C1034 1.523 . S
C1034 C1018 1.368 . S
C1034 C1030 1.368 . S
C1034 C1033 1.523 . S
H1035 C1010 0.950 . S
H1036 C1012 0.950 . S
H1037 C1013 0.949 . S
H1038 C1015 0.950 . S
H1039 C1017 0.950 . S
C1040 C1041 1.349 . S
C1040 C1042 1.327 . S
C1040 H1065 0.950 . S
C1041 C1040 1.349 . S
C1041 C1057 1.349 . S
C1042 C1040 1.327 . S
C1042 C1061 1.429 . S
C1042 H1066 0.950 . S
C1043 C1060 1.574 . S
C1043 C1062 1.368 . S
C1043 H1067 0.949 . S
H1044 C1048 0.949 . S
C1045 C1046 1.349 . S
C1045 C1047 1.327 . S
C1045 H1068 0.950 . S
C1046 C1045 1.349 . S
C1046 C1058 1.349 . S
C1047 C1045 1.327 . S
C1047 C1063 1.429 . S
C1047 H1069 0.950 . S
C1048 H1044 0.949 . S
C1048 C1056 1.574 . S
C1048 C1064 1.368 . S
H1049 C1057 0.950 . S
H1050 C1055 0.950 . S
H1051 C1056 0.949 . S
H1052 C1058 0.950 . S
H1053 C1059 0.950 . S
H1054 C1060 0.949 . S
C1055 H1050 0.950 . S
C1055 C1057 1.327 . S
C1055 C1061 1.429 . S
C1056 C1048 1.574 . S
C1056 H1051 0.949 . S
C1056 C1062 1.368 . S
C1057 C1041 1.349 . S
C1057 H1049 0.950 . S
C1057 C1055 1.327 . S
C1058 C1046 1.349 . S
C1058 H1052 0.950 . S
C1058 C1059 1.327 . S
C1059 H1053 0.950 . S
C1059 C1058 1.327 . S
C1059 C1063 1.429 . S
C1060 C1043 1.574 . S
C1060 H1054 0.949 . S
C1060 C1064 1.368 . S
C1061 C1042 1.429 . S
C1061 C1055 1.429 . S
C1061 C1062 1.523 . S
C1062 C1043 1.368 . S
C1062 C1056 1.368 . S
C1062 C1061 1.523 . S
C1063 C1047 1.429 . S
C1063 C1059 1.429 . S
C1063 C1064 1.523 . S
C1064 C1048 1.368 . S
C1064 C1060 1.368 . S
C1064 C1063 1.523 . S
H1065 C1040 0.950 . S
H1066 C1042 0.950 . S
H1067 C1043 0.949 . S
H1068 C1045 0.950 . S
H1069 C1047 0.950 . S
C1070 C1071 1.349 . S
C1070 C1072 1.327 . S
C1070 H1095 0.950 . S
C1071 C1070 1.349 . S
C1071 C1087 1.349 . S
C1072 C1070 1.327 . S
C1072 C1091 1.429 . S
C1072 H1096 0.950 . S
C1073 C1090 1.574 . S
C1073 C1092 1.368 . S
C1073 H1097 0.949 . S
H1074 C1078 0.949 . S
C1075 C1076 1.349 . S
C1075 C1077 1.327 . S
C1075 H1098 0.950 . S
C1076 C1075 1.349 . S
C1076 C1088 1.349 . S
C1077 C1075 1.327 . S
C1077 C1093 1.429 . S
C1077 H1099 0.950 . S
C1078 H1074 0.949 . S
C1078 C1086 1.574 . S
C1078 C1094 1.368 . S
H1079 C1087 0.950 . S
H1080 C1085 0.950 . S
H1081 C1086 0.949 . S
H1082 C1088 0.950 . S
H1083 C1089 0.950 . S
H1084 C1090 0.949 . S
C1085 H1080 0.950 . S
C1085 C1087 1.327 . S
C1085 C1091 1.429 . S
C1086 C1078 1.574 . S
C1086 H1081 0.949 . S
C1086 C1092 1.368 . S
C1087 C1071 1.349 . S
C1087 H1079 0.950 . S
C1087 C1085 1.327 . S
C1088 C1076 1.349 . S
C1088 H1082 0.950 . S
C1088 C1089 1.327 . S
C1089 H1083 0.950 . S
C1089 C1088 1.327 . S
C1089 C1093 1.429 . S
C1090 C1073 1.574 . S
C1090 H1084 0.949 . S
C1090 C1094 1.368 . S
C1091 C1072 1.429 . S
C1091 C1085 1.429 . S
C1091 C1092 1.523 . S
C1092 C1073 1.368 . S
C1092 C1086 1.368 . S
C1092 C1091 1.523 . S
C1093 C1077 1.429 . S
C1093 C1089 1.429 . S
C1093 C1094 1.523 . S
C1094 C1078 1.368 . S
C1094 C1090 1.368 . S
C1094 C1093 1.523 . S
H1095 C1070 0.950 . S
H1096 C1072 0.950 . S
H1097 C1073 0.949 . S
H1098 C1075 0.950 . S
H1099 C1077 0.950 . S
C1100 C1101 1.349 . S
C1100 C1102 1.327 . S
C1100 H1125 0.950 . S
C1101 C1100 1.349 . S
C1101 C1117 1.349 . S
C1102 C1100 1.327 . S
C1102 C1121 1.429 . S
C1102 H1126 0.950 . S
C1103 C1120 1.574 . S
C1103 C1122 1.368 . S
C1103 H1127 0.949 . S
H1104 C1108 0.949 . S
C1105 C1106 1.349 . S
C1105 C1107 1.327 . S
C1105 H1128 0.950 . S
C1106 C1105 1.349 . S
C1106 C1118 1.349 . S
C1107 C1105 1.327 . S
C1107 C1123 1.429 . S
C1107 H1129 0.950 . S
C1108 H1104 0.949 . S
C1108 C1116 1.574 . S
C1108 C1124 1.368 . S
H1109 C1117 0.950 . S
H1110 C1115 0.950 . S
H1111 C1116 0.949 . S
H1112 C1118 0.950 . S
H1113 C1119 0.950 . S
H1114 C1120 0.949 . S
C1115 H1110 0.950 . S
C1115 C1117 1.327 . S
C1115 C1121 1.429 . S
C1116 C1108 1.574 . S
C1116 H1111 0.949 . S
C1116 C1122 1.368 . S
C1117 C1101 1.349 . S
C1117 H1109 0.950 . S
C1117 C1115 1.327 . S
C1118 C1106 1.349 . S
C1118 H1112 0.950 . S
C1118 C1119 1.327 . S
C1119 H1113 0.950 . S
C1119 C1118 1.327 . S
C1119 C1123 1.429 . S
C1120 C1103 1.574 . S
C1120 H1114 0.949 . S
C1120 C1124 1.368 . S
C1121 C1102 1.429 . S
C1121 C1115 1.429 . S
C1121 C1122 1.523 . S
C1122 C1103 1.368 . S
C1122 C1116 1.368 . S
C1122 C1121 1.523 . S
C1123 C1107 1.429 . S
C1123 C1119 1.429 . S
C1123 C1124 1.523 . S
C1124 C1108 1.368 . S
C1124 C1120 1.368 . S
C1124 C1123 1.523 . S
H1125 C1100 0.950 . S
H1126 C1102 0.950 . S
H1127 C1103 0.949 . S
H1128 C1105 0.950 . S
H1129 C1107 0.950 . S
C1130 C1131 1.349 . S
C1130 C1132 1.327 . S
C1130 H1155 0.950 . S
C1131 C1130 1.349 . S
C1131 C1147 1.349 . S
C1132 C1130 1.327 . S
C1132 C1151 1.429 . S
C1132 H1156 0.950 . S
C1133 C1150 1.574 . S
C1133 C1152 1.368 . S
C1133 H1157 0.949 . S
H1134 C1138 0.949 . S
C1135 C1136 1.349 . S
C1135 C1137 1.327 . S
C1135 H1158 0.950 . S
C1136 C1135 1.349 . S
C1136 C1148 1.349 . S
C1137 C1135 1.327 . S
C1137 C1153 1.429 . S
C1137 H1159 0.950 . S
C1138 H1134 0.949 . S
C1138 C1146 1.574 . S
C1138 C1154 1.368 . S
H1139 C1147 0.950 . S
H1140 C1145 0.950 . S
H1141 C1146 0.949 . S
H1142 C1148 0.950 . S
H1143 C1149 0.950 . S
H1144 C1150 0.949 . S
C1145 H1140 0.950 . S
C1145 C1147 1.327 . S
C1145 C1151 1.429 . S
C1146 C1138 1.574 . S
C1146 H1141 0.949 . S
C1146 C1152 1.368 . S
C1147 C1131 1.349 . S
C1147 H1139 0.950 . S
C1147 C1145 1.327 . S
C1148 C1136 1.349 . S
C1148 H1142 0.950 . S
C1148 C1149 1.327 . S
C1149 H1143 0.950 . S
C1149 C1148 1.327 . S
C1149 C1153 1.429 . S
C1150 C1133 1.574 . S
C1150 H1144 0.949 . S
C1150 C1154 1.368 . S
C1151 C1132 1.429 . S
C1151 C1145 1.429 . S
C1151 C1152 1.523 . S
C1152 C1133 1.368 . S
C1152 C1146 1.368 . S
C1152 C1151 1.523 . S
C1153 C1137 1.429 . S
C1153 C1149 1.429 . S
C1153 C1154 1.523 . S
C1154 C1138 1.368 . S
C1154 C1150 1.368 . S
C1154 C1153 1.523 . S
H1155 C1130 0.950 . S
H1156 C1132 0.950 . S
H1157 C1133 0.949 . S
H1158 C1135 0.950 . S
H1159 C1137 0.950 . S
C1160 C1161 1.349 . S
C1160 C1162 1.327 . S
C1160 H1185 0.950 . S
C1161 C1160 1.349 . S
C1161 C1177 1.349 . S
C1162 C1160 1.327 . S
C1162 C1181 1.429 . S
C1162 H1186 0.950 . S
C1163 C1180 1.574 . S
C1163 C1182 1.368 1_455 S
C1163 H1187 0.949 1_455 S
H1164 C1168 0.949 . S
C1165 C1166 1.349 . S
C1165 C1167 1.327 . S
C1165 H1188 0.950 1_556 S
C1166 C1165 1.349 . S
C1166 C1178 1.349 . S
C1167 C1165 1.327 . S
C1167 C1183 1.429 . S
C1167 H1189 0.950 1_556 S
C1168 H1164 0.949 . S
C1168 C1176 1.574 . S
C1168 C1184 1.368 . S
H1169 C1177 0.950 . S
H1170 C1175 0.950 . S
H1171 C1176 0.949 1_655 S
H1172 C1178 0.950 . S
H1173 C1179 0.950 . S
H1174 C1180 0.949 . S
C1175 H1170 0.950 . S
C1175 C1177 1.327 . S
C1175 C1181 1.429 . S
C1176 C1168 1.574 . S
C1176 H1171 0.949 1_455 S
C1176 C1182 1.368 1_455 S
C1177 C1161 1.349 . S
C1177 H1169 0.950 . S
C1177 C1175 1.327 . S
C1178 C1166 1.349 . S
C1178 H1172 0.950 . S
C1178 C1179 1.327 . S
C1179 H1173 0.950 . S
C1179 C1178 1.327 . S
C1179 C1183 1.429 . S
C1180 C1163 1.574 . S
C1180 H1174 0.949 . S
C1180 C1184 1.368 . S
C1181 C1162 1.429 . S
C1181 C1175 1.429 . S
C1181 C1182 1.523 . S
C1182 C1163 1.368 1_655 S
C1182 C1176 1.368 1_655 S
C1182 C1181 1.523 . S
C1183 C1167 1.429 . S
C1183 C1179 1.429 . S
C1183 C1184 1.523 . S
C1184 C1168 1.368 . S
C1184 C1180 1.368 . S
C1184 C1183 1.523 . S
H1185 C1160 0.950 . S
H1186 C1162 0.950 . S
H1187 C1163 0.949 1_655 S
H1188 C1165 0.950 1_554 S
H1189 C1167 0.950 1_554 S
C1190 C1191 1.349 . S
C1190 C1192 1.327 . S
C1190 H1215 0.950 . S
C1191 C1190 1.349 . S
C1191 C1207 1.349 . S
C1192 C1190 1.327 . S
C1192 C1211 1.429 . S
C1192 H1216 0.950 . S
C1193 C1210 1.574 . S
C1193 C1212 1.368 . S
C1193 H1217 0.949 . S
H1194 C1198 0.949 . S
C1195 C1196 1.349 . S
C1195 C1197 1.327 . S
C1195 H1218 0.950 . S
C1196 C1195 1.349 . S
C1196 C1208 1.349 . S
C1197 C1195 1.327 . S
C1197 C1213 1.429 . S
C1197 H1219 0.950 . S
C1198 H1194 0.949 . S
C1198 C1206 1.574 . S
C1198 C1214 1.368 . S
H1199 C1207 0.950 . S
H1200 C1205 0.950 . S
H1201 C1206 0.949 . S
H1202 C1208 0.950 . S
H1203 C1209 0.950 . S
H1204 C1210 0.949 . S
C1205 H1200 0.950 . S
C1205 C1207 1.327 . S
C1205 C1211 1.429 . S
C1206 C1198 1.574 . S
C1206 H1201 0.949 . S
C1206 C1212 1.368 . S
C1207 C1191 1.349 . S
C1207 H1199 0.950 . S
C1207 C1205 1.327 . S
C1208 C1196 1.349 . S
C1208 H1202 0.950 . S
C1208 C1209 1.327 . S
C1209 H1203 0.950 . S
C1209 C1208 1.327 . S
C1209 C1213 1.429 . S
C1210 C1193 1.574 . S
C1210 H1204 0.949 . S
C1210 C1214 1.368 . S
C1211 C1192 1.429 . S
C1211 C1205 1.429 . S
C1211 C1212 1.523 . S
C1212 C1193 1.368 . S
C1212 C1206 1.368 . S
C1212 C1211 1.523 . S
C1213 C1197 1.429 . S
C1213 C1209 1.429 . S
C1213 C1214 1.523 . S
C1214 C1198 1.368 . S
C1214 C1210 1.368 . S
C1214 C1213 1.523 . S
H1215 C1190 0.950 . S
H1216 C1192 0.950 . S
H1217 C1193 0.949 . S
H1218 C1195 0.950 . S
H1219 C1197 0.950 . S
C1220 C1221 1.349 . S
C1220 C1222 1.327 . S
C1220 H1245 0.950 . S
C1221 C1220 1.349 . S
C1221 C1237 1.349 . S
C1222 C1220 1.327 . S
C1222 C1241 1.429 . S
C1222 H1246 0.950 . S
C1223 C1240 1.574 . S
C1223 C1242 1.368 . S
C1223 H1247 0.949 . S
H1224 C1228 0.949 . S
C1225 C1226 1.349 . S
C1225 C1227 1.327 . S
C1225 H1248 0.950 . S
C1226 C1225 1.349 . S
C1226 C1238 1.349 . S
C1227 C1225 1.327 . S
C1227 C1243 1.429 . S
C1227 H1249 0.950 . S
C1228 H1224 0.949 . S
C1228 C1236 1.574 . S
C1228 C1244 1.368 . S
H1229 C1237 0.950 . S
H1230 C1235 0.950 . S
H1231 C1236 0.949 . S
H1232 C1238 0.950 . S
H1233 C1239 0.950 . S
H1234 C1240 0.949 . S
C1235 H1230 0.950 . S
C1235 C1237 1.327 . S
C1235 C1241 1.429 . S
C1236 C1228 1.574 . S
C1236 H1231 0.949 . S
C1236 C1242 1.368 . S
C1237 C1221 1.349 . S
C1237 H1229 0.950 . S
C1237 C1235 1.327 . S
C1238 C1226 1.349 . S
C1238 H1232 0.950 . S
C1238 C1239 1.327 . S
C1239 H1233 0.950 . S
C1239 C1238 1.327 . S
C1239 C1243 1.429 . S
C1240 C1223 1.574 . S
C1240 H1234 0.949 . S
C1240 C1244 1.368 . S
C1241 C1222 1.429 . S
C1241 C1235 1.429 . S
C1241 C1242 1.523 . S
C1242 C1223 1.368 . S
C1242 C1236 1.368 . S
C1242 C1241 1.523 . S
C1243 C1227 1.429 . S
C1243 C1239 1.429 . S
C1243 C1244 1.523 . S
C1244 C1228 1.368 . S
C1244 C1240 1.368 . S
C1244 C1243 1.523 . S
H1245 C1220 0.950 . S
H1246 C1222 0.950 . S
H1247 C1223 0.949 . S
H1248 C1225 0.950 . S
H1249 C1227 0.950 . S
C1250 C1251 1.349 . S
C1250 C1252 1.327 . S
C1250 H1275 0.950 . S
C1251 C1250 1.349 . S
C1251 C1267 1.349 . S
C1252 C1250 1.327 . S
C1252 C1271 1.429 . S
C1252 H1276 0.950 . S
C1253 C1270 1.574 . S
C1253 C1272 1.368 1_655 S
C1253 H1277 0.949 1_655 S
H1254 C1258 0.949 1_556 S
C1255 C1256 1.349 . S
C1255 C1257 1.327 . S
C1255 H1278 0.950 . S
C1256 C1255 1.349 . S
C1256 C1268 1.349 . S
C1257 C1255 1.327 . S
C1257 C1273 1.429 . S
C1257 H1279 0.950 . S
C1258 H1254 0.949 1_554 S
C1258 C1266 1.625 . S
C1258 C1274 1.368 . S
H1259 C1267 0.950 . S
H1260 C1265 0.950 . S
H1261 C1266 0.917 1_455 S
H1262 C1268 0.950 1_556 S
H1263 C1269 0.950 1_556 S
H1264 C1270 0.949 . S
C1265 H1260 0.950 . S
C1265 C1267 1.327 . S
C1265 C1271 1.429 . S
C1266 C1258 1.625 . S
C1266 H1261 0.917 1_655 S
C1266 C1272 1.354 1_655 S
C1267 C1251 1.349 . S
C1267 H1259 0.950 . S
C1267 C1265 1.327 . S
C1268 C1256 1.349 . S
C1268 H1262 0.950 1_554 S
C1268 C1269 1.327 . S
C1269 H1263 0.950 1_554 S
C1269 C1268 1.327 . S
C1269 C1273 1.429 . S
C1270 C1253 1.574 . S
C1270 H1264 0.949 . S
C1270 C1274 1.368 . S
C1271 C1252 1.429 . S
C1271 C1265 1.429 . S
C1271 C1272 1.523 . S
C1272 C1253 1.368 1_455 S
C1272 C1266 1.354 1_455 S
C1272 C1271 1.523 . S
C1273 C1257 1.429 . S
C1273 C1269 1.429 . S
C1273 C1274 1.523 . S
C1274 C1258 1.368 . S
C1274 C1270 1.368 . S
C1274 C1273 1.523 . S
H1275 C1250 0.950 . S
H1276 C1252 0.950 . S
H1277 C1253 0.949 1_455 S
H1278 C1255 0.950 . S
H1279 C1257 0.950 . S
C1280 C1281 1.349 . S
C1280 C1282 1.327 . S
C1280 H1305 0.950 . S
C1281 C1280 1.349 . S
C1281 C1297 1.349 . S
C1282 C1280 1.327 . S
C1282 C1301 1.429 . S
C1282 H1306 0.950 . S
C1283 C1300 1.574 . S
C1283 C1302 1.368 . S
C1283 H1307 0.949 . S
H1284 C1288 0.949 1_556 S
C1285 C1286 1.349 . S
C1285 C1287 1.327 . S
C1285 H1308 0.950 . S
C1286 C1285 1.349 . S
C1286 C1298 1.349 1_554 S
C1287 C1285 1.327 . S
C1287 C1303 1.429 . S
C1287 H1309 0.950 . S
C1288 H1284 0.949 1_554 S
C1288 C1296 1.574 . S
C1288 C1304 1.368 . S
H1289 C1297 0.950 . S
H1290 C1295 0.950 . S
H1291 C1296 0.949 . S
H1292 C1298 0.950 . S
H1293 C1299 0.950 . S
H1294 C1300 0.949 . S
C1295 H1290 0.950 . S
C1295 C1297 1.327 . S
C1295 C1301 1.429 . S
C1296 C1288 1.574 . S
C1296 H1291 0.949 . S
C1296 C1302 1.368 . S
C1297 C1281 1.349 . S
C1297 H1289 0.950 . S
C1297 C1295 1.327 . S
C1298 C1286 1.349 1_556 S
C1298 H1292 0.950 . S
C1298 C1299 1.327 . S
C1299 H1293 0.950 . S
C1299 C1298 1.327 . S
C1299 C1303 1.429 1_556 S
C1300 C1283 1.574 . S
C1300 H1294 0.949 . S
C1300 C1304 1.368 . S
C1301 C1282 1.429 . S
C1301 C1295 1.429 . S
C1301 C1302 1.523 . S
C1302 C1283 1.368 . S
C1302 C1296 1.368 . S
C1302 C1301 1.523 . S
C1303 C1287 1.429 . S
C1303 C1299 1.429 1_554 S
C1303 C1304 1.523 . S
C1304 C1288 1.368 . S
C1304 C1300 1.368 . S
C1304 C1303 1.523 . S
H1305 C1280 0.950 . S
H1306 C1282 0.950 . S
H1307 C1283 0.949 . S
H1308 C1285 0.950 . S
H1309 C1287 0.950 . S
C1310 C1311 1.349 . S
C1310 C1312 1.327 . S
C1310 H1335 0.950 . S
C1311 C1310 1.349 . S
C1311 C1327 1.349 . S
C1312 C1310 1.327 . S
C1312 C1331 1.429 . S
C1312 H1336 0.950 . S
C1313 C1330 1.574 . S
C1313 C1332 1.368 . S
C1313 H1337 0.949 . S
H1314 C1318 0.949 . S
C1315 C1316 1.349 . S
C1315 C1317 1.327 . S
C1315 H1338 0.950 . S
C1316 C1315 1.349 . S
C1316 C1328 1.349 . S
C1317 C1315 1.327 . S
C1317 C1333 1.429 . S
C1317 H1339 0.950 . S
C1318 H1314 0.949 . S
C1318 C1326 1.574 . S
C1318 C1334 1.368 . S
H1319 C1327 0.950 . S
H1320 C1325 0.950 . S
H1321 C1326 0.949 . S
H1322 C1328 0.950 . S
H1323 C1329 0.950 . S
H1324 C1330 0.949 . S
C1325 H1320 0.950 . S
C1325 C1327 1.327 . S
C1325 C1331 1.429 . S
C1326 C1318 1.574 . S
C1326 H1321 0.949 . S
C1326 C1332 1.368 . S
C1327 C1311 1.349 . S
C1327 H1319 0.950 . S
C1327 C1325 1.327 . S
C1328 C1316 1.349 . S
C1328 H1322 0.950 . S
C1328 C1329 1.327 . S
C1329 H1323 0.950 . S
C1329 C1328 1.327 . S
C1329 C1333 1.429 . S
C1330 C1313 1.574 . S
C1330 H1324 0.949 . S
C1330 C1334 1.368 . S
C1331 C1312 1.429 . S
C1331 C1325 1.429 . S
C1331 C1332 1.523 . S
C1332 C1313 1.368 . S
C1332 C1326 1.368 . S
C1332 C1331 1.523 . S
C1333 C1317 1.429 . S
C1333 C1329 1.429 . S
C1333 C1334 1.523 . S
C1334 C1318 1.368 . S
C1334 C1330 1.368 . S
C1334 C1333 1.523 . S
H1335 C1310 0.950 . S
H1336 C1312 0.950 . S
H1337 C1313 0.949 . S
H1338 C1315 0.950 . S
H1339 C1317 0.950 . S
C1340 C1341 1.349 . S
C1340 C1342 1.327 . S
C1340 H1365 0.950 . S
C1341 C1340 1.349 . S
C1341 C1357 1.349 . S
C1342 C1340 1.327 . S
C1342 C1361 1.429 . S
C1342 H1366 0.950 . S
C1343 C1360 1.574 . S
C1343 C1362 1.368 . S
C1343 H1367 0.949 . S
H1344 C1348 0.949 . S
C1345 C1346 1.349 . S
C1345 C1347 1.327 . S
C1345 H1368 0.950 . S
C1346 C1345 1.349 . S
C1346 C1358 1.349 . S
C1347 C1345 1.327 . S
C1347 C1363 1.429 . S
C1347 H1369 0.950 . S
C1348 H1344 0.949 . S
C1348 C1356 1.574 . S
C1348 C1364 1.368 . S
H1349 C1357 0.950 . S
H1350 C1355 0.950 . S
H1351 C1356 0.949 . S
H1352 C1358 0.950 . S
H1353 C1359 0.950 . S
H1354 C1360 0.949 . S
C1355 H1350 0.950 . S
C1355 C1357 1.327 . S
C1355 C1361 1.429 . S
C1356 C1348 1.574 . S
C1356 H1351 0.949 . S
C1356 C1362 1.368 . S
C1357 C1341 1.349 . S
C1357 H1349 0.950 . S
C1357 C1355 1.327 . S
C1358 C1346 1.349 . S
C1358 H1352 0.950 . S
C1358 C1359 1.327 . S
C1359 H1353 0.950 . S
C1359 C1358 1.327 . S
C1359 C1363 1.429 . S
C1360 C1343 1.574 . S
C1360 H1354 0.949 . S
C1360 C1364 1.368 . S
C1361 C1342 1.429 . S
C1361 C1355 1.429 . S
C1361 C1362 1.523 . S
C1362 C1343 1.368 . S
C1362 C1356 1.368 . S
C1362 C1361 1.523 . S
C1363 C1347 1.429 . S
C1363 C1359 1.429 . S
C1363 C1364 1.523 . S
C1364 C1348 1.368 . S
C1364 C1360 1.368 . S
C1364 C1363 1.523 . S
H1365 C1340 0.950 . S
H1366 C1342 0.950 . S
H1367 C1343 0.949 . S
H1368 C1345 0.950 . S
H1369 C1347 0.950 . S
C1370 C1371 1.349 . S
C1370 C1372 1.327 . S
C1370 H1395 0.950 . S
C1371 C1370 1.349 . S
C1371 C1387 1.349 . S
C1372 C1370 1.327 . S
C1372 C1391 1.429 . S
C1372 H1396 0.950 . S
C1373 C1390 1.574 . S
C1373 C1392 1.368 . S
C1373 H1397 0.949 . S
H1374 C1378 0.949 . S
C1375 C1376 1.349 . S
C1375 C1377 1.327 . S
C1375 H1398 0.950 . S
C1376 C1375 1.349 . S
C1376 C1388 1.349 . S
C1377 C1375 1.327 . S
C1377 C1393 1.429 . S
C1377 H1399 0.950 . S
C1378 H1374 0.949 . S
C1378 C1386 1.574 . S
C1378 C1394 1.368 . S
H1379 C1387 0.950 . S
H1380 C1385 0.950 . S
H1381 C1386 0.949 . S
H1382 C1388 0.950 . S
H1383 C1389 0.950 . S
H1384 C1390 0.949 . S
C1385 H1380 0.950 . S
C1385 C1387 1.327 . S
C1385 C1391 1.429 . S
C1386 C1378 1.574 . S
C1386 H1381 0.949 . S
C1386 C1392 1.368 . S
C1387 C1371 1.349 . S
C1387 H1379 0.950 . S
C1387 C1385 1.327 . S
C1388 C1376 1.349 . S
C1388 H1382 0.950 . S
C1388 C1389 1.327 . S
C1389 H1383 0.950 . S
C1389 C1388 1.327 . S
C1389 C1393 1.429 . S
C1390 C1373 1.574 . S
C1390 H1384 0.949 . S
C1390 C1394 1.368 . S
C1391 C1372 1.429 . S
C1391 C1385 1.429 . S
C1391 C1392 1.523 . S
C1392 C1373 1.368 . S
C1392 C1386 1.368 . S
C1392 C1391 1.523 . S
C1393 C1377 1.429 . S
C1393 C1389 1.429 . S
C1393 C1394 1.523 . S
C1394 C1378 1.368 . S
C1394 C1390 1.368 . S
C1394 C1393 1.523 . S
H1395 C1370 0.950 . S
H1396 C1372 0.950 . S
H1397 C1373 0.949 . S
H1398 C1375 0.950 . S
H1399 C1377 0.950 . S
C1400 C1401 1.349 1_554 S
C1400 C1402 1.327 . S
C1400 H1425 0.950 . S
C1401 C1400 1.349 1_556 S
C1401 C1417 1.349 . S
C1402 C1400 1.327 . S
C1402 C1421 1.429 1_554 S
C1402 H1426 0.950 . S
C1403 C1420 1.574 . S
C1403 C1422 1.368 . S
C1403 H1427 0.949 . S
H1404 C1408 0.949 . S
C1405 C1406 1.349 . S
C1405 C1407 1.327 . S
C1405 H1428 0.950 . S
C1406 C1405 1.349 . S
C1406 C1418 1.349 . S
C1407 C1405 1.327 . S
C1407 C1423 1.429 . S
C1407 H1429 0.950 . S
C1408 H1404 0.949 . S
C1408 C1416 1.574 . S
C1408 C1424 1.368 . S
H1409 C1417 0.950 . S
H1410 C1415 0.950 . S
H1411 C1416 0.949 1_554 S
H1412 C1418 0.950 . S
H1413 C1419 0.950 . S
H1414 C1420 0.949 . S
C1415 H1410 0.950 . S
C1415 C1417 1.327 . S
C1415 C1421 1.429 . S
C1416 C1408 1.574 . S
C1416 H1411 0.949 1_556 S
C1416 C1422 1.368 . S
C1417 C1401 1.349 . S
C1417 H1409 0.950 . S
C1417 C1415 1.327 . S
C1418 C1406 1.349 . S
C1418 H1412 0.950 . S
C1418 C1419 1.327 . S
C1419 H1413 0.950 . S
C1419 C1418 1.327 . S
C1419 C1423 1.429 . S
C1420 C1403 1.574 . S
C1420 H1414 0.949 . S
C1420 C1424 1.368 . S
C1421 C1402 1.429 1_556 S
C1421 C1415 1.429 . S
C1421 C1422 1.523 . S
C1422 C1403 1.368 . S
C1422 C1416 1.368 . S
C1422 C1421 1.523 . S
C1423 C1407 1.429 . S
C1423 C1419 1.429 . S
C1423 C1424 1.523 . S
C1424 C1408 1.368 . S
C1424 C1420 1.368 . S
C1424 C1423 1.523 . S
H1425 C1400 0.950 . S
H1426 C1402 0.950 . S
H1427 C1403 0.949 . S
H1428 C1405 0.950 . S
H1429 C1407 0.950 . S
C1430 C1431 1.349 . S
C1430 C1432 1.327 . S
C1430 H1455 0.950 . S
C1431 C1430 1.349 . S
C1431 C1447 1.349 . S
C1432 C1430 1.327 . S
C1432 C1451 1.429 . S
C1432 H1456 0.950 . S
C1433 C1450 1.574 . S
C1433 C1452 1.368 . S
C1433 H1457 0.949 . S
H1434 C1438 0.949 . S
C1435 C1436 1.349 . S
C1435 C1437 1.327 . S
C1435 H1458 0.950 . S
C1436 C1435 1.349 . S
C1436 C1448 1.349 . S
C1437 C1435 1.327 . S
C1437 C1453 1.429 . S
C1437 H1459 0.950 . S
C1438 H1434 0.949 . S
C1438 C1446 1.574 . S
C1438 C1454 1.368 . S
H1439 C1447 0.950 . S
H1440 C1445 0.950 . S
H1441 C1446 0.949 . S
H1442 C1448 0.950 . S
H1443 C1449 0.950 . S
H1444 C1450 0.949 . S
C1445 H1440 0.950 . S
C1445 C1447 1.327 . S
C1445 C1451 1.429 . S
C1446 C1438 1.574 . S
C1446 H1441 0.949 . S
C1446 C1452 1.368 . S
C1447 C1431 1.349 . S
C1447 H1439 0.950 . S
C1447 C1445 1.327 . S
C1448 C1436 1.349 . S
C1448 H1442 0.950 . S
C1448 C1449 1.327 . S
C1449 H1443 0.950 . S
C1449 C1448 1.327 . S
C1449 C1453 1.429 . S
C1450 C1433 1.574 . S
C1450 H1444 0.949 . S
C1450 C1454 1.368 . S
C1451 C1432 1.429 . S
C1451 C1445 1.429 . S
C1451 C1452 1.523 . S
C1452 C1433 1.368 . S
C1452 C1446 1.368 . S
C1452 C1451 1.523 . S
C1453 C1437 1.429 . S
C1453 C1449 1.429 . S
C1453 C1454 1.523 . S
C1454 C1438 1.368 . S
C1454 C1450 1.368 . S
C1454 C1453 1.523 . S
H1455 C1430 0.950 . S
H1456 C1432 0.950 . S
H1457 C1433 0.949 . S
H1458 C1435 0.950 . S
H1459 C1437 0.950 . S
C1460 C1461 1.349 . S
C1460 C1462 1.327 . S
C1460 H1485 0.950 . S
C1461 C1460 1.349 . S
C1461 C1477 1.349 . S
C1462 C1460 1.327 . S
C1462 C1481 1.429 . S
C1462 H1486 0.950 . S
C1463 C1480 1.574 . S
C1463 C1482 1.368 . S
C1463 H1487 0.949 . S
H1464 C1468 0.949 . S
C1465 C1466 1.349 . S
C1465 C1467 1.327 . S
C1465 H1488 0.950 . S
C1466 C1465 1.349 . S
C1466 C1478 1.349 . S
C1467 C1465 1.327 . S
C1467 C1483 1.429 . S
C1467 H1489 0.950 . S
C1468 H1464 0.949 . S
C1468 C1476 1.574 . S
C1468 C1484 1.368 . S
H1469 C1477 0.950 . S
H1470 C1475 0.950 . S
H1471 C1476 0.949 . S
H1472 C1478 0.950 . S
H1473 C1479 0.950 . S
H1474 C1480 0.949 . S
C1475 H1470 0.950 . S
C1475 C1477 1.327 . S
C1475 C1481 1.429 . S
C1476 C1468 1.574 . S
C1476 H1471 0.949 . S
C1476 C1482 1.368 . S
C1477 C1461 1.349 . S
C1477 H1469 0.950 . S
C1477 C1475 1.327 . S
C1478 C1466 1.349 . S
C1478 H1472 0.950 . S
C1478 C1479 1.327 . S
C1479 H1473 0.950 . S
C1479 C1478 1.327 . S
C1479 C1483 1.429 . S
C1480 C1463 1.574 . S
C1480 H1474 0.949 . S
C1480 C1484 1.368 . S
C1481 C1462 1.429 . S
C1481 C1475 1.429 . S
C1481 C1482 1.523 . S
C1482 C1463 1.368 . S
C1482 C1476 1.368 . S
C1482 C1481 1.523 . S
C1483 C1467 1.429 . S
C1483 C1479 1.429 . S
C1483 C1484 1.523 . S
C1484 C1468 1.368 . S
C1484 C1480 1.368 . S
C1484 C1483 1.523 . S
H1485 C1460 0.950 . S
H1486 C1462 0.950 . S
H1487 C1463 0.949 . S
H1488 C1465 0.950 . S
H1489 C1467 0.950 . S
C1490 C1491 1.349 . S
C1490 C1492 1.327 . S
C1490 H1515 0.950 . S
C1491 C1490 1.349 . S
C1491 C1507 1.349 . S
C1492 C1490 1.327 . S
C1492 C1511 1.429 . S
C1492 H1516 0.950 . S
C1493 C1510 1.574 . S
C1493 C1512 1.368 . S
C1493 H1517 0.949 . S
H1494 C1498 0.949 . S
C1495 C1496 1.349 . S
C1495 C1497 1.327 . S
C1495 H1518 0.950 . S
C1496 C1495 1.349 . S
C1496 C1508 1.349 . S
C1497 C1495 1.327 . S
C1497 C1513 1.429 . S
C1497 H1519 0.950 . S
C1498 H1494 0.949 . S
C1498 C1506 1.574 . S
C1498 C1514 1.368 . S
H1499 C1507 0.950 . S
H1500 C1505 0.950 . S
H1501 C1506 0.949 . S
H1502 C1508 0.950 . S
H1503 C1509 0.950 . S
H1504 C1510 0.949 . S
C1505 H1500 0.950 . S
C1505 C1507 1.327 . S
C1505 C1511 1.429 . S
C1506 C1498 1.574 . S
C1506 H1501 0.949 . S
C1506 C1512 1.368 . S
C1507 C1491 1.349 . S
C1507 H1499 0.950 . S
C1507 C1505 1.327 . S
C1508 C1496 1.349 . S
C1508 H1502 0.950 . S
C1508 C1509 1.327 . S
C1509 H1503 0.950 . S
C1509 C1508 1.327 . S
C1509 C1513 1.429 . S
C1510 C1493 1.574 . S
C1510 H1504 0.949 . S
C1510 C1514 1.368 . S
C1511 C1492 1.429 . S
C1511 C1505 1.429 . S
C1511 C1512 1.523 . S
C1512 C1493 1.368 . S
C1512 C1506 1.368 . S
C1512 C1511 1.523 . S
C1513 C1497 1.429 . S
C1513 C1509 1.429 . S
C1513 C1514 1.523 . S
C1514 C1498 1.368 . S
C1514 C1510 1.368 . S
C1514 C1513 1.523 . S
H1515 C1490 0.950 . S
H1516 C1492 0.950 . S
H1517 C1493 0.949 . S
H1518 C1495 0.950 . S
H1519 C1497 0.950 . S
C1520 C1521 1.349 . S
C1520 C1522 1.327 . S
C1520 H1545 0.950 . S
C1521 C1520 1.349 . S
C1521 C1537 1.349 . S
C1522 C1520 1.327 . S
C1522 C1541 1.429 . S
C1522 H1546 0.950 . S
C1523 C1540 1.574 1_565 S
C1523 C1542 1.368 . S
C1523 H1547 0.949 . S
H1524 C1528 0.949 . S
C1525 C1526 1.349 . S
C1525 C1527 1.327 . S
C1525 H1548 0.950 . S
C1526 C1525 1.349 . S
C1526 C1538 1.349 . S
C1527 C1525 1.327 . S
C1527 C1543 1.429 . S
C1527 H1549 0.950 . S
C1528 H1524 0.949 . S
C1528 C1536 1.574 . S
C1528 C1544 1.368 . S
H1529 C1537 0.950 . S
H1530 C1535 0.950 . S
H1531 C1536 0.949 . S
H1532 C1538 0.950 . S
H1533 C1539 0.950 . S
H1534 C1540 0.949 . S
C1535 H1530 0.950 . S
C1535 C1537 1.327 . S
C1535 C1541 1.429 . S
C1536 C1528 1.574 . S
C1536 H1531 0.949 . S
C1536 C1542 1.368 1_545 S
C1537 C1521 1.349 . S
C1537 H1529 0.950 . S
C1537 C1535 1.327 . S
C1538 C1526 1.349 . S
C1538 H1532 0.950 . S
C1538 C1539 1.327 . S
C1539 H1533 0.950 . S
C1539 C1538 1.327 . S
C1539 C1543 1.429 . S
C1540 C1523 1.574 1_545 S
C1540 H1534 0.949 . S
C1540 C1544 1.368 . S
C1541 C1522 1.429 . S
C1541 C1535 1.429 . S
C1541 C1542 1.523 . S
C1542 C1523 1.368 . S
C1542 C1536 1.368 1_565 S
C1542 C1541 1.523 . S
C1543 C1527 1.429 . S
C1543 C1539 1.429 . S
C1543 C1544 1.523 . S
C1544 C1528 1.368 . S
C1544 C1540 1.368 . S
C1544 C1543 1.523 . S
H1545 C1520 0.950 . S
H1546 C1522 0.950 . S
H1547 C1523 0.949 . S
H1548 C1525 0.950 . S
H1549 C1527 0.950 . S
C1550 C1551 1.349 . S
C1550 C1552 1.327 . S
C1550 H1575 0.950 . S
C1551 C1550 1.349 . S
C1551 C1567 1.349 . S
C1552 C1550 1.327 . S
C1552 C1571 1.429 . S
C1552 H1576 0.950 . S
C1553 C1570 1.574 . S
C1553 C1572 1.368 . S
C1553 H1577 0.949 . S
H1554 C1558 0.949 . S
C1555 C1556 1.349 . S
C1555 C1557 1.327 . S
C1555 H1578 0.950 . S
C1556 C1555 1.349 . S
C1556 C1568 1.349 . S
C1557 C1555 1.327 . S
C1557 C1573 1.429 . S
C1557 H1579 0.950 . S
C1558 H1554 0.949 . S
C1558 C1566 1.574 . S
C1558 C1574 1.368 . S
H1559 C1567 0.950 . S
H1560 C1565 0.950 . S
H1561 C1566 0.949 . S
H1562 C1568 0.950 . S
H1563 C1569 0.950 . S
H1564 C1570 0.949 . S
C1565 H1560 0.950 . S
C1565 C1567 1.327 . S
C1565 C1571 1.429 . S
C1566 C1558 1.574 . S
C1566 H1561 0.949 . S
C1566 C1572 1.368 . S
C1567 C1551 1.349 . S
C1567 H1559 0.950 . S
C1567 C1565 1.327 . S
C1568 C1556 1.349 . S
C1568 H1562 0.950 . S
C1568 C1569 1.327 . S
C1569 H1563 0.950 . S
C1569 C1568 1.327 . S
C1569 C1573 1.429 . S
C1570 C1553 1.574 . S
C1570 H1564 0.949 . S
C1570 C1574 1.368 . S
C1571 C1552 1.429 . S
C1571 C1565 1.429 . S
C1571 C1572 1.523 . S
C1572 C1553 1.368 . S
C1572 C1566 1.368 . S
C1572 C1571 1.523 . S
C1573 C1557 1.429 . S
C1573 C1569 1.429 . S
C1573 C1574 1.523 . S
C1574 C1558 1.368 . S
C1574 C1570 1.368 . S
C1574 C1573 1.523 . S
H1575 C1550 0.950 . S
H1576 C1552 0.950 . S
H1577 C1553 0.949 . S
H1578 C1555 0.950 . S
H1579 C1557 0.950 . S
C1580 C1581 1.349 . S
C1580 C1582 1.327 . S
C1580 H1605 0.950 . S
C1581 C1580 1.349 . S
C1581 C1597 1.349 . S
C1582 C1580 1.327 . S
C1582 C1601 1.429 . S
C1582 H1606 0.950 . S
C1583 C1600 1.574 . S
C1583 C1602 1.368 . S
C1583 H1607 0.949 . S
H1584 C1588 0.949 . S
C1585 C1586 1.349 1_556 S
C1585 C1587 1.327 . S
C1585 H1608 0.950 . S
C1586 C1585 1.349 1_554 S
C1586 C1598 1.349 . S
C1587 C1585 1.327 . S
C1587 C1603 1.429 1_556 S
C1587 H1609 0.950 . S
C1588 H1584 0.949 . S
C1588 C1596 1.574 1_545 S
C1588 C1604 1.368 . S
H1589 C1597 0.950 . S
H1590 C1595 0.950 . S
H1591 C1596 0.949 . S
H1592 C1598 0.950 . S
H1593 C1599 0.950 . S
H1594 C1600 0.935 1_546 S
C1595 H1590 0.950 . S
C1595 C1597 1.327 . S
C1595 C1601 1.429 . S
C1596 C1588 1.574 1_565 S
C1596 H1591 0.949 . S
C1596 C1602 1.368 . S
C1597 C1581 1.349 . S
C1597 H1589 0.950 . S
C1597 C1595 1.327 . S
C1598 C1586 1.349 . S
C1598 H1592 0.950 . S
C1598 C1599 1.327 . S
C1599 H1593 0.950 . S
C1599 C1598 1.327 . S
C1599 C1603 1.429 . S
C1600 C1583 1.574 . S
C1600 H1594 0.935 1_564 S
C1600 C1604 1.368 1_565 S
C1601 C1582 1.429 . S
C1601 C1595 1.429 . S
C1601 C1602 1.523 . S
C1602 C1583 1.368 . S
C1602 C1596 1.368 . S
C1602 C1601 1.523 . S
C1603 C1587 1.429 1_554 S
C1603 C1599 1.429 . S
C1603 C1604 1.523 . S
C1604 C1588 1.368 . S
C1604 C1600 1.368 1_545 S
C1604 C1603 1.523 . S
H1605 C1580 0.950 . S
H1606 C1582 0.950 . S
H1607 C1583 0.949 . S
H1608 C1585 0.950 . S
H1609 C1587 0.950 . S
C1610 C1611 1.349 . S
C1610 C1612 1.327 . S
C1610 H1635 0.950 . S
C1611 C1610 1.349 . S
C1611 C1627 1.349 . S
C1612 C1610 1.327 . S
C1612 C1631 1.429 . S
C1612 H1636 0.950 . S
C1613 C1630 1.574 . S
C1613 C1632 1.368 . S
C1613 H1637 0.949 . S
H1614 C1618 0.949 . S
C1615 C1616 1.349 . S
C1615 C1617 1.327 . S
C1615 H1638 0.950 . S
C1616 C1615 1.349 . S
C1616 C1628 1.349 . S
C1617 C1615 1.327 . S
C1617 C1633 1.429 . S
C1617 H1639 0.950 . S
C1618 H1614 0.949 . S
C1618 C1626 1.574 . S
C1618 C1634 1.368 . S
H1619 C1627 0.950 . S
H1620 C1625 0.950 . S
H1621 C1626 0.949 . S
H1622 C1628 0.950 . S
H1623 C1629 0.950 . S
H1624 C1630 0.949 . S
C1625 H1620 0.950 . S
C1625 C1627 1.327 . S
C1625 C1631 1.429 . S
C1626 C1618 1.574 . S
C1626 H1621 0.949 . S
C1626 C1632 1.368 . S
C1627 C1611 1.349 . S
C1627 H1619 0.950 . S
C1627 C1625 1.327 . S
C1628 C1616 1.349 . S
C1628 H1622 0.950 . S
C1628 C1629 1.327 . S
C1629 H1623 0.950 . S
C1629 C1628 1.327 . S
C1629 C1633 1.429 . S
C1630 C1613 1.574 . S
C1630 H1624 0.949 . S
C1630 C1634 1.368 . S
C1631 C1612 1.429 . S
C1631 C1625 1.429 . S
C1631 C1632 1.523 . S
C1632 C1613 1.368 . S
C1632 C1626 1.368 . S
C1632 C1631 1.523 . S
C1633 C1617 1.429 . S
C1633 C1629 1.429 . S
C1633 C1634 1.523 . S
C1634 C1618 1.368 . S
C1634 C1630 1.368 . S
C1634 C1633 1.523 . S
H1635 C1610 0.950 . S
H1636 C1612 0.950 . S
H1637 C1613 0.949 . S
H1638 C1615 0.950 . S
H1639 C1617 0.950 . S
C1640 C1641 1.349 . S
C1640 C1642 1.327 . S
C1640 H1665 0.950 . S
C1641 C1640 1.349 . S
C1641 C1657 1.349 . S
C1642 C1640 1.327 . S
C1642 C1661 1.429 . S
C1642 H1666 0.950 . S
C1643 C1660 1.574 . S
C1643 C1662 1.368 1_545 S
C1643 H1667 0.935 1_545 S
H1644 C1648 0.949 . S
C1645 C1646 1.349 . S
C1645 C1647 1.327 . S
C1645 H1668 0.950 . S
C1646 C1645 1.349 . S
C1646 C1658 1.349 . S
C1647 C1645 1.327 . S
C1647 C1663 1.429 . S
C1647 H1669 0.950 . S
C1648 H1644 0.949 . S
C1648 C1656 1.574 1_545 S
C1648 C1664 1.368 . S
H1649 C1657 0.950 . S
H1650 C1655 0.950 . S
H1651 C1656 0.949 . S
H1652 C1658 0.950 . S
H1653 C1659 0.950 . S
H1654 C1660 0.949 . S
C1655 H1650 0.950 . S
C1655 C1657 1.327 . S
C1655 C1661 1.429 . S
C1656 C1648 1.574 1_565 S
C1656 H1651 0.949 . S
C1656 C1662 1.368 . S
C1657 C1641 1.349 . S
C1657 H1649 0.950 . S
C1657 C1655 1.327 . S
C1658 C1646 1.349 . S
C1658 H1652 0.950 . S
C1658 C1659 1.327 . S
C1659 H1653 0.950 . S
C1659 C1658 1.327 . S
C1659 C1663 1.429 . S
C1660 C1643 1.574 . S
C1660 H1654 0.949 . S
C1660 C1664 1.368 . S
C1661 C1642 1.429 . S
C1661 C1655 1.429 . S
C1661 C1662 1.523 . S
C1662 C1643 1.368 1_565 S
C1662 C1656 1.368 . S
C1662 C1661 1.523 . S
C1663 C1647 1.429 . S
C1663 C1659 1.429 . S
C1663 C1664 1.523 . S
C1664 C1648 1.368 . S
C1664 C1660 1.368 . S
C1664 C1663 1.523 . S
H1665 C1640 0.950 . S
H1666 C1642 0.950 . S
H1667 C1643 0.935 1_565 S
H1668 C1645 0.950 . S
H1669 C1647 0.950 . S
C1670 C1671 1.349 . S
C1670 C1672 1.327 . S
C1670 H1695 0.950 . S
C1671 C1670 1.349 . S
C1671 C1687 1.349 . S
C1672 C1670 1.327 . S
C1672 C1691 1.429 . S
C1672 H1696 0.950 . S
C1673 C1690 1.574 . S
C1673 C1692 1.368 . S
C1673 H1697 0.949 . S
H1674 C1678 0.949 . S
C1675 C1676 1.349 . S
C1675 C1677 1.327 . S
C1675 H1698 0.950 . S
C1676 C1675 1.349 . S
C1676 C1688 1.349 . S
C1677 C1675 1.327 . S
C1677 C1693 1.429 . S
C1677 H1699 0.950 . S
C1678 H1674 0.949 . S
C1678 C1686 1.574 . S
C1678 C1694 1.368 . S
H1679 C1687 0.950 . S
H1680 C1685 0.950 . S
H1681 C1686 0.949 . S
H1682 C1688 0.950 . S
H1683 C1689 0.950 . S
H1684 C1690 0.949 . S
C1685 H1680 0.950 . S
C1685 C1687 1.327 . S
C1685 C1691 1.429 . S
C1686 C1678 1.574 . S
C1686 H1681 0.949 . S
C1686 C1692 1.368 . S
C1687 C1671 1.349 . S
C1687 H1679 0.950 . S
C1687 C1685 1.327 . S
C1688 C1676 1.349 . S
C1688 H1682 0.950 . S
C1688 C1689 1.327 . S
C1689 H1683 0.950 . S
C1689 C1688 1.327 . S
C1689 C1693 1.429 . S
C1690 C1673 1.574 . S
C1690 H1684 0.949 . S
C1690 C1694 1.368 . S
C1691 C1672 1.429 . S
C1691 C1685 1.429 . S
C1691 C1692 1.523 . S
C1692 C1673 1.368 . S
C1692 C1686 1.368 . S
C1692 C1691 1.523 . S
C1693 C1677 1.429 . S
C1693 C1689 1.429 . S
C1693 C1694 1.523 . S
C1694 C1678 1.368 . S
C1694 C1690 1.368 . S
C1694 C1693 1.523 . S
H1695 C1670 0.950 . S
H1696 C1672 0.950 . S
H1697 C1673 0.949 . S
H1698 C1675 0.950 . S
H1699 C1677 0.950 . S
C1700 C1701 1.349 . S
C1700 C1702 1.327 . S
C1700 H1725 0.950 . S
C1701 C1700 1.349 . S
C1701 C1717 1.349 . S
C1702 C1700 1.327 . S
C1702 C1721 1.429 . S
C1702 H1726 0.950 . S
C1703 C1720 1.574 1_545 S
C1703 C1722 1.368 . S
C1703 H1727 0.949 . S
H1704 C1708 0.940 1_565 S
C1705 C1706 1.349 1_556 S
C1705 C1707 1.327 . S
C1705 H1728 0.950 . S
C1706 C1705 1.349 1_554 S
C1706 C1718 1.349 . S
C1707 C1705 1.327 . S
C1707 C1723 1.429 . S
C1707 H1729 0.950 . S
C1708 H1704 0.940 1_545 S
C1708 C1716 1.574 1_554 S
C1708 C1724 1.368 1_544 S
H1709 C1717 0.950 . S
H1710 C1715 0.950 . S
H1711 C1716 0.949 1_554 S
H1712 C1718 0.950 . S
H1713 C1719 0.950 . S
H1714 C1720 0.949 . S
C1715 H1710 0.950 . S
C1715 C1717 1.327 . S
C1715 C1721 1.429 . S
C1716 C1708 1.574 1_556 S
C1716 H1711 0.949 1_556 S
C1716 C1722 1.368 . S
C1717 C1701 1.349 . S
C1717 H1709 0.950 . S
C1717 C1715 1.327 . S
C1718 C1706 1.349 . S
C1718 H1712 0.950 . S
C1718 C1719 1.327 . S
C1719 H1713 0.950 . S
C1719 C1718 1.327 . S
C1719 C1723 1.429 1_554 S
C1720 C1703 1.574 1_565 S
C1720 H1714 0.949 . S
C1720 C1724 1.368 . S
C1721 C1702 1.429 . S
C1721 C1715 1.429 . S
C1721 C1722 1.523 . S
C1722 C1703 1.368 . S
C1722 C1716 1.368 . S
C1722 C1721 1.523 . S
C1723 C1707 1.429 . S
C1723 C1719 1.429 1_556 S
C1723 C1724 1.523 . S
C1724 C1708 1.368 1_566 S
C1724 C1720 1.368 . S
C1724 C1723 1.523 . S
H1725 C1700 0.950 . S
H1726 C1702 0.950 . S
H1727 C1703 0.949 . S
H1728 C1705 0.950 . S
H1729 C1707 0.950 . S
C1730 C1731 1.349 . S
C1730 C1732 1.327 . S
C1730 H1755 0.950 . S
C1731 C1730 1.349 . S
C1731 C1747 1.349 . S
C1732 C1730 1.327 . S
C1732 C1751 1.429 . S
C1732 H1756 0.950 . S
C1733 C1750 1.574 . S
C1733 C1752 1.368 . S
C1733 H1757 0.949 . S
H1734 C1738 0.949 . S
C1735 C1736 1.349 . S
C1735 C1737 1.327 . S
C1735 H1758 0.950 . S
C1736 C1735 1.349 . S
C1736 C1748 1.349 . S
C1737 C1735 1.327 . S
C1737 C1753 1.429 . S
C1737 H1759 0.950 . S
C1738 H1734 0.949 . S
C1738 C1746 1.574 . S
C1738 C1754 1.368 . S
H1739 C1747 0.950 . S
H1740 C1745 0.950 . S
H1741 C1746 0.949 . S
H1742 C1748 0.950 . S
H1743 C1749 0.950 . S
H1744 C1750 0.949 . S
C1745 H1740 0.950 . S
C1745 C1747 1.327 . S
C1745 C1751 1.429 . S
C1746 C1738 1.574 . S
C1746 H1741 0.949 . S
C1746 C1752 1.368 . S
C1747 C1731 1.349 . S
C1747 H1739 0.950 . S
C1747 C1745 1.327 . S
C1748 C1736 1.349 . S
C1748 H1742 0.950 . S
C1748 C1749 1.327 . S
C1749 H1743 0.950 . S
C1749 C1748 1.327 . S
C1749 C1753 1.429 . S
C1750 C1733 1.574 . S
C1750 H1744 0.949 . S
C1750 C1754 1.368 . S
C1751 C1732 1.429 . S
C1751 C1745 1.429 . S
C1751 C1752 1.523 . S
C1752 C1733 1.368 . S
C1752 C1746 1.368 . S
C1752 C1751 1.523 . S
C1753 C1737 1.429 . S
C1753 C1749 1.429 . S
C1753 C1754 1.523 . S
C1754 C1738 1.368 . S
C1754 C1750 1.368 . S
C1754 C1753 1.523 . S
H1755 C1730 0.950 . S
H1756 C1732 0.950 . S
H1757 C1733 0.949 . S
H1758 C1735 0.950 . S
H1759 C1737 0.950 . S
C321 C12 1.590 . S
C326 C9 1.590 . S
C351 C32 1.564 . S
C356 C29 1.564 . S
C381 C52 1.558 . S
C386 C49 1.558 . S
C411 C72 1.591 . S
C416 C69 1.591 . S
C441 C89 1.573 . S
C446 C92 1.573 . S
C471 C112 1.601 . S
C476 C109 1.601 . S
C501 C129 1.587 . S
C506 C132 1.587 . S
C531 C149 1.592 . S
C536 C152 1.592 . S
C561 C169 1.580 . S
C566 C172 1.580 . S
C591 C192 1.557 . S
C596 C189 1.557 . S
C621 C212 1.578 . S
C626 C209 1.578 . S
C651 C229 1.605 . S
C656 C232 1.605 . S
C681 C252 1.569 . S
C686 C249 1.569 . S
C711 C272 1.579 . S
C716 C269 1.579 . S
C741 C292 1.588 . S
C746 C289 1.588 . S
C771 C309 1.609 . S
C776 C312 1.609 . S
C801 C18 1.808 . S
C806 C222 1.798 . S
C831 C38 2.003 . S
C836 C319 2.018 . S
C861 C58 1.437 . S
C866 C182 1.434 . S
C891 C78 1.565 . S
C896 C262 1.556 . S
C921 C84 1.685 . S
C926 C279 1.695 . S
C951 C239 1.804 . S
C956 C104 1.794 . S
C981 C124 1.377 . S
C986 C302 1.404 . S
C1011 C144 1.488 . S
C1016 C199 1.499 . S
C1041 C64 1.731 . S
C1046 C179 1.740 . S
C1071 C24 1.826 . S
C1076 C219 1.827 . S
C1101 C242 1.713 . S
C1106 C118 1.724 . S
C1131 C158 1.704 . S
C1136 C282 1.699 . S
C1161 C162 1.535 . S
C1166 C98 1.543 . S
C1191 C138 1.446 . S
C1196 C202 1.445 . S
C1221 C44 1.546 . S
C1226 C299 1.555 . S
C1251 C4 1.571 . S
C1256 C259 1.581 . S
C1281 C19 1.623 . S
C1286 C82 1.559 . S
C1311 C39 1.770 . S
C1316 C102 1.705 . S
C1341 C59 1.359 . S
C1346 C122 1.291 . S
C1371 C79 1.527 . S
C1376 C142 1.464 . S
C1401 C244 1.636 . S
C1406 C178 1.703 . S
C1431 C264 1.391 . S
C1436 C198 1.446 . S
C1461 C218 1.640 . S
C1466 C284 1.572 . S
C1491 C318 1.939 . S
C1496 C238 1.932 . S
C1521 C22 1.744 . S
C1526 C159 1.838 . S
C1551 C99 1.560 . S
C1556 C42 1.494 . S
C1581 C119 1.625 . S
C1586 C62 1.565 . S
C1611 C2 1.304 . S
C1616 C139 1.354 . S
C1641 C304 1.191 . S
C1646 C184 1.203 . S
C1671 C258 1.538 . S
C1676 C204 1.474 . S
C1701 C278 1.695 . S
C1706 C224 1.629 . S
C1731 C298 1.475 . S
C1736 C164 1.416 . S
