# Generated by pormake.
# Topology unc, (4)-cn, num edge types: 1
# Building blocks:
#     Node 0, Type 0, BuildingBlock: ICAMEG_clean_sbu_1, # of connection points: 4
#     Node 1, Type 0, BuildingBlock: ICAMEG_clean_sbu_1, # of connection points: 4
#     Node 2, Type 0, BuildingBlock: ICAMEG_clean_sbu_1, # of connection points: 4
#     Node 3, Type 0, BuildingBlock: ICAMEG_clean_sbu_1, # of connection points: 4
#     Edge 4, Type (0, 0), BuildingBlock: FUNLAD_clean_linker_0, # of connection points: 2
#     Edge 5, Type (0, 0), BuildingBlock: FUNLAD_clean_linker_0, # of connection points: 2
#     Edge 6, Type (0, 0), BuildingBlock: FUNLAD_clean_linker_0, # of connection points: 2
#     Edge 7, Type (0, 0), BuildingBlock: FUNLAD_clean_linker_0, # of connection points: 2
#     Edge 8, Type (0, 0), BuildingBlock: FUNLAD_clean_linker_0, # of connection points: 2
#     Edge 9, Type (0, 0), BuildingBlock: FUNLAD_clean_linker_0, # of connection points: 2
#     Edge 10, Type (0, 0), BuildingBlock: FUNLAD_clean_linker_0, # of connection points: 2
#     Edge 11, Type (0, 0), BuildingBlock: FUNLAD_clean_linker_0, # of connection points: 2
# Relax obj value: 0.022
# Max RMSD: 0.081
# Mean RMSD: 0.081
data_MOF--net-unc--node1-ICAMEG_clean_sbu_1--edge1-FUNLAD_clean_linker_0
_symmetry_space_group_name_H-M    P1
_symmetry_Int_Tables_number       1
_symmetry_cell_setting            triclinic
loop_
_symmetry_equiv_pos_as_xyz
'x, y, z'
_cell_length_a     37.420946
_cell_length_b     37.454671
_cell_length_c     25.699103
_cell_angle_alpha  89.974498
_cell_angle_beta   89.831317
_cell_angle_gamma 90.101165
loop_
_atom_site_label
_atom_site_type_symbol
_atom_site_fract_x
_atom_site_fract_y
_atom_site_fract_z
_atom_type_partial_charge
Co0 Co 0.05728 0.6693 0.99534 0.0
Co1 Co 0.96657 0.66551 0.01389 0.0
O2 O 0.01085 0.69284 1.00407 0.0
C3 C 0.07174 0.7252 0.07529 0.0
O4 O 0.04262 0.7156 0.10029 0.0
C5 C 0.94775 0.72112 0.93497 0.0
O6 O 0.98003 0.7193 0.91516 0.0
O7 O 0.97603 0.63837 0.94865 0.0
O8 O 0.03505 0.62927 0.95502 0.0
H9 H 0.89258 0.55351 0.01908 0.0
H10 H 0.05014 0.74533 0.96489 0.0
O11 O 0.08117 0.70892 0.03405 0.0
H12 H 0.08768 0.68275 0.80513 0.0
H13 H 0.18985 0.66578 0.96107 0.0
H14 H 0.08271 0.59465 1.00392 0.0
H15 H 0.07958 0.6497 0.88725 0.0
H16 H 0.13105 0.69476 0.97034 0.0
O17 O 0.9388 0.70161 0.97338 0.0
H18 H 0.94789 0.58871 0.00839 0.0
H19 H 0.89079 0.68452 0.03807 0.0
H20 H 0.14094 0.56454 0.99459 0.0
H21 H 0.05861 0.77957 0.88382 0.0
H22 H 0.19503 0.60018 0.97301 0.0
H23 H 0.07732 0.74823 0.80309 0.0
O24 O 0.05024 0.64243 0.06162 0.0
H25 H 0.95881 0.77723 0.12138 0.0
H26 H 0.94486 0.64635 0.12251 0.0
H27 H 0.93493 0.68019 0.20348 0.0
H28 H 0.94181 0.74617 0.20322 0.0
H29 H 0.96895 0.74223 0.04144 0.0
H30 H 0.83483 0.65039 0.04863 0.0
H31 H 0.83552 0.58438 0.03935 0.0
O32 O 0.99215 0.6285 0.05579 0.0
C33 C 1.00473 0.62287 0.9343 0.0
C34 C 0.89195 0.58225 0.02338 0.0
C35 C 0.85953 0.63662 0.0399 0.0
N36 N 0.92265 0.63858 0.02299 0.0
C37 C 0.9232 0.60231 0.0175 0.0
C38 C 0.8913 0.65581 0.03376 0.0
C39 C 0.85994 0.59959 0.0347 0.0
C40 C 0.05864 0.73154 0.93008 0.0
N41 N 0.0642 0.69549 0.93084 0.0
C42 C 0.06324 0.75105 0.88421 0.0
C43 C 0.07367 0.73344 0.83891 0.0
C44 C 0.07942 0.6967 0.84001 0.0
C45 C 0.07456 0.67807 0.88658 0.0
C46 C 0.16647 0.64996 0.97042 0.0
C47 C 0.1061 0.61031 0.99429 0.0
C48 C 0.13311 0.66623 0.97587 0.0
N49 N 0.10343 0.64638 0.98739 0.0
C50 C 0.13901 0.59313 0.98916 0.0
C51 C 0.16935 0.61315 0.9771 0.0
C52 C 0.02289 0.62474 0.07642 0.0
C53 C 0.95567 0.7485 0.12198 0.0
C54 C 0.9482 0.67497 0.12216 0.0
C55 C 0.94238 0.69404 0.16808 0.0
C56 C 0.9462 0.73105 0.1679 0.0
N57 N 0.95754 0.69226 0.07727 0.0
C58 C 0.96125 0.72855 0.07678 0.0
Co59 Co 0.35974 0.96886 0.27027 0.0
Co60 Co 0.36888 0.05795 0.24457 0.0
O61 O 0.33844 0.01581 0.25688 0.0
C62 C 0.29361 0.95375 0.2056 0.0
O63 O 0.28812 0.98776 0.19666 0.0
C64 C 0.3127 0.08326 0.31822 0.0
O65 O 0.3148 0.05272 0.34305 0.0
O66 O 0.39261 0.05044 0.31275 0.0
O67 O 0.40079 0.99136 0.30844 0.0
H68 H 0.4849 0.12567 0.2421 0.0
H69 H 0.28438 0.98204 0.30238 0.0
O70 O 0.31994 0.9435 0.23313 0.0
H71 H 0.34687 0.9466 0.46276 0.0
H72 H 0.35919 0.8381 0.31661 0.0
H73 H 0.43354 0.9407 0.2633 0.0
H74 H 0.37929 0.94984 0.37933 0.0
H75 H 0.33201 0.89721 0.30229 0.0
O76 O 0.33252 0.08938 0.27889 0.0
H77 H 0.44635 0.07294 0.25515 0.0
H78 H 0.35514 0.133 0.21105 0.0
H79 H 0.46186 0.88212 0.27767 0.0
H80 H 0.25082 0.97853 0.38474 0.0
H81 H 0.4246 0.83031 0.30452 0.0
H82 H 0.2821 0.96083 0.46584 0.0
O83 O 0.38596 0.97221 0.20318 0.0
H84 H 0.26289 0.06974 0.12617 0.0
H85 H 0.39446 0.0707 0.13582 0.0
H86 H 0.36509 0.079 0.05099 0.0
H87 H 0.29882 0.07865 0.04577 0.0
H88 H 0.29338 0.06105 0.21015 0.0
H89 H 0.39267 0.18645 0.19792 0.0
H90 H 0.45807 0.18296 0.21328 0.0
O91 O 0.40648 0.02828 0.20888 0.0
C92 C 0.4075 0.02185 0.32841 0.0
C93 C 0.45646 0.12751 0.23512 0.0
C94 C 0.40468 0.16163 0.21038 0.0
N95 N 0.39858 0.09979 0.2335 0.0
C96 C 0.4345 0.0977 0.24232 0.0
C97 C 0.38356 0.13128 0.21799 0.0
C98 C 0.44138 0.15965 0.219 0.0
C99 C 0.29811 0.97374 0.33716 0.0
N100 N 0.33372 0.96581 0.33571 0.0
C101 C 0.27899 0.97206 0.38386 0.0
C102 C 0.29657 0.96222 0.42937 0.0
C103 C 0.33291 0.95427 0.42768 0.0
C104 C 0.35116 0.95627 0.38028 0.0
C105 C 0.37572 0.86049 0.30502 0.0
C106 C 0.41718 0.91833 0.27526 0.0
C107 C 0.36048 0.89402 0.29673 0.0
N108 N 0.38122 0.92247 0.28234 0.0
C109 C 0.43335 0.8852 0.28322 0.0
C110 C 0.41242 0.85614 0.29824 0.0
C111 C 0.40666 0.99726 0.18835 0.0
C112 C 0.29178 0.06994 0.12793 0.0
C113 C 0.36562 0.07014 0.13387 0.0
C114 C 0.34914 0.07505 0.08572 0.0
C115 C 0.31196 0.0749 0.08283 0.0
N116 N 0.34565 0.06516 0.17794 0.0
C117 C 0.3092 0.06512 0.17541 0.0
Co118 Co 0.97112 0.35939 0.4854 0.0
Co119 Co 0.06005 0.358 0.52006 0.0
O120 O 0.01497 0.33364 0.50355 0.0
C121 C 0.94738 0.30762 0.56678 0.0
O122 O 0.97765 0.31227 0.59151 0.0
C123 C 0.08101 0.30368 0.44104 0.0
O124 O 0.05239 0.31179 0.41412 0.0
O125 O 0.05787 0.38624 0.45422 0.0
O126 O 0.99905 0.39556 0.44516 0.0
H127 H 0.14091 0.46443 0.53856 0.0
H128 H 0.97628 0.28185 0.46444 0.0
O129 O 0.94122 0.32403 0.52443 0.0
H130 H 0.95511 0.33749 0.29339 0.0
H131 H 0.84255 0.36947 0.42977 0.0
H132 H 0.95062 0.43574 0.48207 0.0
H133 H 0.95825 0.37434 0.3727 0.0
H134 H 0.89805 0.33739 0.45144 0.0
O135 O 0.08778 0.31988 0.4834 0.0
H136 H 0.08439 0.43333 0.51884 0.0
H137 H 0.13194 0.33355 0.55529 0.0
H138 H 0.89576 0.46889 0.46029 0.0
H139 H 0.97289 0.24389 0.3862 0.0
H140 H 0.84122 0.43571 0.43392 0.0
H141 H 0.96238 0.27173 0.29986 0.0
O142 O 0.97477 0.3891 0.5495 0.0
H143 H 0.05398 0.24554 0.62647 0.0
H144 H 0.07338 0.37571 0.63174 0.0
H145 H 0.07529 0.34111 0.71327 0.0
H146 H 0.06565 0.27549 0.71095 0.0
H147 H 0.05175 0.28129 0.54594 0.0
H148 H 0.18905 0.36353 0.57497 0.0
H149 H 0.19375 0.42946 0.56684 0.0
O150 O 0.03395 0.39655 0.55818 0.0
C151 C 0.03146 0.40168 0.43251 0.0
C152 C 0.13917 0.4357 0.54238 0.0
C153 C 0.1662 0.37907 0.56274 0.0
N154 N 0.1048 0.3817 0.53621 0.0
C155 C 0.10722 0.41795 0.53139 0.0
C156 C 0.13382 0.36223 0.55141 0.0
C157 C 0.16882 0.41606 0.5582 0.0
C158 C 0.97137 0.29412 0.42708 0.0
N159 N 0.96748 0.33029 0.42317 0.0
C160 C 0.96962 0.27251 0.38288 0.0
C161 C 0.96378 0.28815 0.33444 0.0
C162 C 0.95974 0.32505 0.33078 0.0
C163 C 0.96171 0.34581 0.3758 0.0
C164 C 0.86617 0.38423 0.44111 0.0
C165 C 0.92705 0.42112 0.47033 0.0
C166 C 0.89766 0.36621 0.45353 0.0
N167 N 0.92763 0.3847 0.46764 0.0
C168 C 0.89604 0.44004 0.45818 0.0
C169 C 0.86544 0.4214 0.44343 0.0
C170 C 1.00177 0.40398 0.5706 0.0
C171 C 0.05828 0.27411 0.62798 0.0
C172 C 0.06882 0.34725 0.63043 0.0
C173 C 0.07012 0.32775 0.67671 0.0
C174 C 0.06477 0.29094 0.67538 0.0
N175 N 0.06239 0.33058 0.58408 0.0
C176 C 0.05721 0.29447 0.58247 0.0
Co177 Co 0.66745 0.06121 0.77835 0.0
Co178 Co 0.6695 0.97334 0.74377 0.0
O179 O 0.69405 0.01801 0.7601 0.0
C180 C 0.72086 0.08507 0.70036 0.0
O181 O 0.71188 0.05742 0.67187 0.0
C182 C 0.72662 0.95149 0.81734 0.0
O183 O 0.71774 0.97841 0.84737 0.0
O184 O 0.64496 0.97495 0.81243 0.0
O185 O 0.62919 0.0327 0.81475 0.0
H186 H 0.56309 0.89169 0.7341 0.0
H187 H 0.74409 0.05597 0.80623 0.0
O188 O 0.70508 0.0909 0.74346 0.0
H189 H 0.68053 0.07388 0.97251 0.0
H190 H 0.65574 0.18896 0.8368 0.0
H191 H 0.59106 0.08203 0.77615 0.0
H192 H 0.64733 0.07179 0.88986 0.0
H193 H 0.68837 0.13356 0.81614 0.0
O194 O 0.70972 0.94573 0.77527 0.0
H195 H 0.5946 0.94819 0.75237 0.0
H196 H 0.69285 0.90229 0.70366 0.0
H197 H 0.55734 0.13678 0.79676 0.0
H198 H 0.77839 0.05834 0.88795 0.0
H199 H 0.58972 0.19076 0.82733 0.0
H200 H 0.74657 0.06723 0.97189 0.0
O201 O 0.64049 0.05816 0.71197 0.0
H202 H 0.77633 0.98234 0.62557 0.0
H203 H 0.6463 0.96139 0.63392 0.0
H204 H 0.67681 0.96103 0.54878 0.0
H205 H 0.74232 0.97146 0.54423 0.0
H206 H 0.74466 0.98293 0.70987 0.0
H207 H 0.66247 0.84519 0.68531 0.0
H208 H 0.59709 0.83968 0.70033 0.0
O209 O 0.62866 0.99951 0.71049 0.0
C210 C 0.62679 1.00063 0.83133 0.0
C211 C 0.59157 0.89378 0.72727 0.0
C212 C 0.64735 0.86767 0.69995 0.0
N213 N 0.64546 0.92861 0.72876 0.0
C214 C 0.60953 0.92573 0.73742 0.0
C215 C 0.66442 0.90005 0.71054 0.0
C216 C 0.61067 0.8646 0.70836 0.0
C217 C 0.73009 0.06023 0.84253 0.0
N218 N 0.69377 0.06385 0.84321 0.0
C219 C 0.74964 0.06139 0.88871 0.0
C220 C 0.73176 0.06631 0.93581 0.0
C221 C 0.69471 0.07001 0.93619 0.0
C222 C 0.67604 0.06869 0.88925 0.0
C223 C 0.64132 0.1656 0.82361 0.0
C224 C 0.60531 0.10534 0.78973 0.0
C225 C 0.65966 0.13418 0.81175 0.0
N226 N 0.6416 0.10452 0.79533 0.0
C227 C 0.58609 0.1363 0.80121 0.0
C228 C 0.60428 0.16658 0.8183 0.0
C229 C 0.62335 0.03133 0.69438 0.0
C230 C 0.74779 0.97766 0.62706 0.0
C231 C 0.67477 0.96619 0.63227 0.0
C232 C 0.69193 0.96581 0.58394 0.0
C233 C 0.72869 0.97163 0.58143 0.0
N234 N 0.69369 0.97215 0.67687 0.0
C235 C 0.72974 0.9778 0.6747 0.0
C236 C 0.05882 0.59125 0.14419 0.0
C237 C 0.02587 0.59902 0.1203 0.0
C238 C 0.06035 0.56786 0.18698 0.0
C239 C 0.02885 0.55234 0.20683 0.0
C240 C 0.99626 0.55989 0.18261 0.0
C241 C 0.9948 0.58243 0.13965 0.0
C242 C 0.02783 0.52925 0.25376 0.0
C243 C 0.05358 0.50597 0.26755 0.0
C244 C 0.04804 0.47934 0.31016 0.0
C245 C 0.0775 0.46464 0.33639 0.0
C246 C 0.07251 0.43933 0.37618 0.0
C247 C 0.03788 0.42812 0.39029 0.0
H248 H 0.99011 0.4763 0.303 0.0
C249 C 1.0086 0.44251 0.36335 0.0
C250 C 0.01358 0.46729 0.3236 0.0
H251 H 0.98149 0.43454 0.37256 0.0
H252 H 0.08329 0.60344 0.13019 0.0
H253 H 0.08588 0.56283 0.20525 0.0
H254 H 0.97162 0.54817 0.19694 0.0
H255 H 0.96896 0.58713 0.12214 0.0
H256 H 1.00316 0.53013 0.27601 0.0
H257 H 0.07873 0.50556 0.24636 0.0
H258 H 0.1044 0.47295 0.32637 0.0
H259 H 0.09571 0.42874 0.39597 0.0
C260 C 0.44157 0.05541 0.39763 0.0
C261 C 0.43446 0.02351 0.37065 0.0
C262 C 0.46653 0.05612 0.43829 0.0
C263 C 0.48502 0.02484 0.45263 0.0
C264 C 0.47808 0.99324 0.42507 0.0
C265 C 0.45321 0.99252 0.38483 0.0
C266 C 0.51131 0.023 0.4961 0.0
C267 C 0.52014 0.05007 0.5283 0.0
C268 C 0.54573 0.04528 0.57211 0.0
C269 C 0.56611 0.07444 0.58953 0.0
C270 C 0.59105 0.07025 0.62969 0.0
C271 C 0.59591 0.03678 0.65351 0.0
H272 H 0.53347 0.98937 0.58684 0.0
C273 C 0.57459 1.00795 0.63718 0.0
C274 C 0.54972 0.01216 0.59733 0.0
H275 H 0.57706 0.98189 0.65511 0.0
H276 H 0.42766 0.0798 0.38766 0.0
H277 H 0.47093 0.08116 0.45811 0.0
H278 H 0.49179 0.9687 0.43493 0.0
H279 H 0.44868 0.96742 0.36498 0.0
H280 H 0.52429 0.99738 0.50166 0.0
H281 H 0.5094 0.07659 0.52216 0.0
H282 H 0.56322 0.10038 0.57138 0.0
H283 H 0.60682 0.09311 0.64152 0.0
C284 C 0.97177 0.58822 0.86478 0.0
C285 C 1.00379 0.59686 0.89064 0.0
C286 C 0.97205 0.56516 0.82167 0.0
C287 C 1.00444 0.5506 0.80352 0.0
C288 C 0.03613 0.55891 0.82982 0.0
C289 C 0.03581 0.58133 0.87301 0.0
C290 C 1.0072 0.52791 0.75628 0.0
C291 C 0.98131 0.50585 0.73893 0.0
C292 C 0.9869 0.48057 0.69465 0.0
C293 C 0.95718 0.46597 0.66883 0.0
C294 C 0.9617 0.44137 0.62815 0.0
C295 C 0.99616 0.43075 0.61251 0.0
H296 H 0.04508 0.4786 0.69889 0.0
C297 C 0.0258 0.4454 0.63841 0.0
C298 C 0.02129 0.46954 0.67913 0.0
H299 H 0.05279 0.43789 0.62785 0.0
H300 H 0.94662 0.59967 0.8773 0.0
H301 H 0.94716 0.55972 0.80181 0.0
H302 H 0.06144 0.548 0.81683 0.0
H303 H 0.06101 0.58688 0.89199 0.0
H304 H 0.03279 0.52866 0.73643 0.0
H305 H 0.95546 0.50562 0.75825 0.0
H306 H 0.93035 0.47358 0.6802 0.0
H307 H 0.93823 0.4306 0.60919 0.0
C308 C 0.46467 0.00882 0.14287 0.0
C309 C 0.43178 0.9907 0.14495 0.0
C310 C 0.48732 1.00488 0.09991 0.0
C311 C 0.47714 0.98337 0.05765 0.0
C312 C 0.44435 0.96515 0.05981 0.0
C313 C 0.42212 0.96829 0.10348 0.0
C314 C 0.4989 0.9822 0.00937 0.0
C315 C 0.53484 0.98125 0.00993 0.0
C316 C 0.5566 0.98402 0.96178 0.0
C317 C 0.58812 0.96401 0.95684 0.0
C318 C 0.61025 0.96822 0.91322 0.0
C319 C 0.60182 0.99346 0.87473 0.0
H320 H 0.52391 0.02486 0.92578 0.0
C321 C 0.57027 0.01347 0.87969 0.0
C322 C 0.54767 0.00852 0.92248 0.0
H323 H 0.56321 0.03319 0.85064 0.0
H324 H 0.47269 0.02639 0.17423 0.0
H325 H 0.51211 0.01984 0.09886 0.0
H326 H 0.4358 0.94873 0.02745 0.0
H327 H 0.39672 0.95435 0.10385 0.0
H328 H 0.48489 0.98185 0.97236 0.0
H329 H 0.54878 0.97805 0.04669 0.0
H330 H 0.59571 0.94525 0.98693 0.0
H331 H 0.63463 0.95275 0.91059 0.0
C332 C 0.23308 0.93546 0.17219 0.0
C333 C 0.26812 0.92643 0.18673 0.0
C334 C 0.20884 0.90883 0.15705 0.0
C335 C 0.21944 0.87279 0.15567 0.0
C336 C 0.25464 0.86404 0.16914 0.0
C337 C 0.27857 0.89043 0.18497 0.0
C338 C 0.1954 0.84366 0.13802 0.0
C339 C 0.15957 0.84398 0.14359 0.0
C340 C 0.13687 0.81371 0.12576 0.0
C341 C 0.10492 0.80552 0.15212 0.0
C342 C 0.08367 0.77661 0.13631 0.0
C343 C 0.09384 0.75565 0.09337 0.0
H344 H 0.17028 0.79932 0.05975 0.0
C345 C 0.12542 0.76447 0.06642 0.0
C346 C 0.14656 0.79312 0.08225 0.0
H347 H 0.13393 0.74931 0.03274 0.0
H348 H 0.22426 0.96298 0.17319 0.0
H349 H 0.18213 0.91659 0.14566 0.0
H350 H 0.26362 0.83656 0.1679 0.0
H351 H 0.30542 0.88255 0.19565 0.0
H352 H 0.20822 0.81996 0.12237 0.0
H353 H 0.14675 0.86589 0.16403 0.0
H354 H 0.09663 0.82122 0.18542 0.0
H355 H 0.05932 0.77076 0.15757 0.0
C356 C 0.25557 0.10182 0.36212 0.0
C357 C 0.28684 0.11088 0.33467 0.0
C358 C 0.23059 0.12821 0.37534 0.0
C359 C 0.23686 0.16415 0.36205 0.0
C360 C 0.26846 0.17315 0.33567 0.0
C361 C 0.29295 0.1468 0.32149 0.0
C362 C 0.21203 0.19318 0.37733 0.0
C363 C 0.17624 0.18932 0.37915 0.0
C364 C 0.15218 0.21914 0.39434 0.0
C365 C 0.11804 0.22189 0.37207 0.0
C366 C 0.09501 0.24978 0.38618 0.0
C367 C 0.10548 0.27497 0.4237 0.0
H368 H 0.18827 0.24256 0.4509 0.0
C369 C 0.1395 0.27188 0.44637 0.0
C370 C 0.16257 0.24438 0.43185 0.0
H371 H 0.14839 0.2907 0.47561 0.0
H372 H 0.25016 0.07433 0.37269 0.0
H373 H 0.20682 0.12055 0.39674 0.0
H374 H 0.27408 0.20068 0.32547 0.0
H375 H 0.31689 0.15465 0.30058 0.0
H376 H 0.22369 0.21932 0.38442 0.0
H377 H 0.16417 0.16432 0.36682 0.0
H378 H 0.10928 0.20258 0.34341 0.0
H379 H 0.06884 0.25123 0.3684 0.0
C380 C 0.75528 0.14204 0.70878 0.0
C381 C 0.7505 0.10887 0.68416 0.0
C382 C 0.78375 0.16429 0.69497 0.0
C383 C 0.80826 0.15378 0.65637 0.0
C384 C 0.80387 0.12041 0.6323 0.0
C385 C 0.77503 0.09829 0.64564 0.0
C386 C 0.83881 0.177 0.64122 0.0
C387 C 0.83617 0.21283 0.64024 0.0
C388 C 0.86548 0.23651 0.6223 0.0
C389 C 0.85673 0.26725 0.594 0.0
C390 C 0.88347 0.29021 0.57615 0.0
C391 C 0.91953 0.28351 0.58758 0.0
H392 H 0.90899 0.20654 0.65675 0.0
C393 C 0.92838 0.2533 0.61726 0.0
C394 C 0.90156 0.22972 0.63405 0.0
H395 H 0.956 0.24753 0.62653 0.0
H396 H 0.73701 0.15089 0.73888 0.0
H397 H 0.78684 0.18943 0.71525 0.0
H398 H 0.82256 0.1116 0.60272 0.0
H399 H 0.77231 0.0727 0.62639 0.0
H400 H 0.86311 0.1643 0.62723 0.0
H401 H 0.81062 0.22528 0.6489 0.0
H402 H 0.82912 0.27321 0.58488 0.0
H403 H 0.87584 0.31344 0.55364 0.0
C404 C 0.7626 0.89626 0.80246 0.0
C405 C 0.75668 0.92765 0.83122 0.0
C406 C 0.79085 0.87353 0.81472 0.0
C407 C 0.81396 0.88159 0.85611 0.0
C408 C 0.80863 0.91334 0.88417 0.0
C409 C 0.78007 0.93603 0.87217 0.0
C410 C 0.84378 0.85732 0.87033 0.0
C411 C 0.84102 0.8216 0.86562 0.0
C412 C 0.8693 0.79643 0.88225 0.0
C413 C 0.85899 0.76338 0.90308 0.0
C414 C 0.88461 0.73893 0.91965 0.0
C415 C 0.92121 0.74656 0.91437 0.0
H416 H 0.91466 0.82911 0.8594 0.0
C417 C 0.93172 0.77916 0.89193 0.0
C418 C 0.90594 0.8041 0.87641 0.0
H419 H 0.95978 0.78571 0.88757 0.0
H420 H 0.74535 0.88908 0.77034 0.0
H421 H 0.79474 0.84985 0.79124 0.0
H422 H 0.82627 0.92031 0.91596 0.0
H423 H 0.77645 0.96019 0.89473 0.0
H424 H 0.86739 0.86886 0.88826 0.0
H425 H 0.81589 0.81 0.85287 0.0
H426 H 0.83095 0.7567 0.90749 0.0
H427 H 0.87572 0.71392 0.93657 0.0
loop_
_geom_bond_atom_site_label_1
_geom_bond_atom_site_label_2
_geom_bond_distance
_geom_bond_site_symmetry_2
_ccdc_geom_bond_type
Co0 O2 2.143 . S
Co0 O8 2.073 1_554 S
Co0 O11 2.093 . S
Co0 O24 2.097 . S
Co0 N41 2.150 1_554 S
Co0 N49 2.214 . S
Co1 O2 2.161 1_655 S
Co1 O7 2.058 1_554 S
Co1 O17 2.057 1_554 S
Co1 O32 2.037 . S
Co1 N36 2.145 . S
Co1 N57 2.257 . S
O2 Co0 2.143 . S
O2 Co1 2.161 1_455 S
C3 O4 1.278 . S
C3 O11 1.224 . S
O4 C3 1.278 . S
C5 O6 1.245 . S
C5 O17 1.232 . S
O6 C5 1.245 . S
O7 Co1 2.058 1_556 S
O7 C33 1.269 1_655 S
O8 Co0 2.073 1_556 S
O8 C33 1.257 . S
H9 C34 0.930 . S
H10 C40 0.930 . S
O11 Co0 2.093 . S
O11 C3 1.224 . S
H12 C44 0.929 . S
H13 C46 0.930 . S
H14 C47 0.930 . S
H15 C45 0.929 . S
H16 C48 0.928 . S
O17 Co1 2.057 1_556 S
O17 C5 1.232 . S
H18 C37 0.929 . S
H19 C38 0.930 . S
H20 C50 0.931 . S
H21 C42 0.929 . S
H22 C51 0.930 . S
H23 C43 0.931 . S
O24 Co0 2.097 . S
O24 C52 1.214 . S
H25 C53 0.929 . S
H26 C54 0.929 . S
H27 C55 0.930 . S
H28 C56 0.929 . S
H29 C58 0.930 . S
H30 C35 0.930 . S
H31 C39 0.930 . S
O32 Co1 2.037 . S
O32 C52 1.234 1_655 S
C33 O7 1.269 1_455 S
C33 O8 1.257 . S
C34 H9 0.930 . S
C34 C37 1.388 . S
C34 C39 1.418 . S
C35 H30 0.930 . S
C35 C38 1.404 . S
C35 C39 1.353 . S
N36 Co1 2.145 . S
N36 C37 1.397 . S
N36 C38 1.334 . S
C37 H18 0.929 . S
C37 C34 1.388 . S
C37 N36 1.397 . S
C38 H19 0.930 . S
C38 C35 1.404 . S
C38 N36 1.334 . S
C39 H31 0.930 . S
C39 C34 1.418 . S
C39 C35 1.353 . S
C40 H10 0.930 . S
C40 N41 1.330 . S
C40 C42 1.446 . S
N41 Co0 2.150 1_556 S
N41 C40 1.330 . S
N41 C45 1.418 . S
C42 H21 0.929 . S
C42 C40 1.446 . S
C42 C43 1.332 . S
C43 H23 0.931 . S
C43 C42 1.332 . S
C43 C44 1.267 . S
C44 H12 0.929 . S
C44 C43 1.267 . S
C44 C45 1.251 . S
C45 H15 0.929 . S
C45 N41 1.418 . S
C45 C44 1.251 . S
C46 H13 0.930 . S
C46 C48 1.406 . S
C46 C51 1.259 1_556 S
C47 H14 0.930 . S
C47 N49 1.325 . S
C47 C50 1.357 . S
C48 H16 0.928 . S
C48 C46 1.406 . S
C48 N49 1.261 1_556 S
N49 Co0 2.214 . S
N49 C47 1.325 . S
N49 C48 1.261 1_554 S
C50 H20 0.931 . S
C50 C47 1.357 . S
C50 C51 1.314 . S
C51 H22 0.930 . S
C51 C46 1.259 1_554 S
C51 C50 1.314 . S
C52 O24 1.214 . S
C52 O32 1.234 1_455 S
C53 H25 0.929 . S
C53 C56 1.391 . S
C53 C58 1.391 . S
C54 H26 0.929 . S
C54 C55 1.390 . S
C54 N57 1.391 . S
C55 H27 0.930 . S
C55 C54 1.390 . S
C55 C56 1.392 . S
C56 H28 0.929 . S
C56 C53 1.391 . S
C56 C55 1.392 . S
N57 Co1 2.257 . S
N57 C54 1.391 . S
N57 C58 1.388 . S
C58 H29 0.930 . S
C58 C53 1.391 . S
C58 N57 1.388 . S
Co59 O61 2.143 1_565 S
Co59 O67 2.074 . S
Co59 O70 2.093 . S
Co59 O83 2.097 . S
Co59 N100 2.151 . S
Co59 N108 2.214 . S
Co60 O61 2.160 . S
Co60 O66 2.058 . S
Co60 O76 2.057 . S
Co60 O91 2.037 . S
Co60 N95 2.145 . S
Co60 N116 2.257 . S
O61 Co59 2.143 1_545 S
O61 Co60 2.160 . S
C62 O63 1.278 . S
C62 O70 1.224 . S
O63 C62 1.278 . S
C64 O65 1.245 . S
C64 O76 1.232 . S
O65 C64 1.245 . S
O66 Co60 2.058 . S
O66 C92 1.269 . S
O67 Co59 2.074 . S
O67 C92 1.257 1_565 S
H68 C93 0.930 . S
H69 C99 0.930 . S
O70 Co59 2.093 . S
O70 C62 1.224 . S
H71 C103 0.929 . S
H72 C105 0.930 . S
H73 C106 0.930 . S
H74 C104 0.929 . S
H75 C107 0.928 . S
O76 Co60 2.057 . S
O76 C64 1.232 . S
H77 C96 0.929 . S
H78 C97 0.929 . S
H79 C109 0.931 . S
H80 C101 0.929 . S
H81 C110 0.930 . S
H82 C102 0.931 . S
O83 Co59 2.097 . S
O83 C111 1.214 1_565 S
H84 C112 0.929 . S
H85 C113 0.929 . S
H86 C114 0.930 . S
H87 C115 0.929 . S
H88 C117 0.930 . S
H89 C94 0.930 . S
H90 C98 0.930 . S
O91 Co60 2.037 . S
O91 C111 1.234 . S
C92 O66 1.269 . S
C92 O67 1.257 1_545 S
C93 H68 0.930 . S
C93 C96 1.388 . S
C93 C98 1.418 . S
C94 H89 0.930 . S
C94 C97 1.404 . S
C94 C98 1.353 . S
N95 Co60 2.145 . S
N95 C96 1.397 . S
N95 C97 1.334 . S
C96 H77 0.929 . S
C96 C93 1.388 . S
C96 N95 1.397 . S
C97 H78 0.929 . S
C97 C94 1.404 . S
C97 N95 1.334 . S
C98 H90 0.930 . S
C98 C93 1.418 . S
C98 C94 1.353 . S
C99 H69 0.930 . S
C99 N100 1.330 . S
C99 C101 1.446 . S
N100 Co59 2.151 . S
N100 C99 1.330 . S
N100 C104 1.418 . S
C101 H80 0.929 . S
C101 C99 1.446 . S
C101 C102 1.332 . S
C102 H82 0.931 . S
C102 C101 1.332 . S
C102 C103 1.267 . S
C103 H71 0.929 . S
C103 C102 1.267 . S
C103 C104 1.251 . S
C104 H74 0.929 . S
C104 N100 1.418 . S
C104 C103 1.251 . S
C105 H72 0.930 . S
C105 C107 1.406 . S
C105 C110 1.261 . S
C106 H73 0.930 . S
C106 N108 1.325 . S
C106 C109 1.357 . S
C107 H75 0.928 . S
C107 C105 1.406 . S
C107 N108 1.261 . S
N108 Co59 2.214 . S
N108 C106 1.325 . S
N108 C107 1.261 . S
C109 H79 0.931 . S
C109 C106 1.357 . S
C109 C110 1.312 . S
C110 H81 0.930 . S
C110 C105 1.261 . S
C110 C109 1.312 . S
C111 O83 1.214 1_545 S
C111 O91 1.234 . S
C112 H84 0.929 . S
C112 C115 1.391 . S
C112 C117 1.391 . S
C113 H85 0.929 . S
C113 C114 1.390 . S
C113 N116 1.391 . S
C114 H86 0.930 . S
C114 C113 1.390 . S
C114 C115 1.392 . S
C115 H87 0.929 . S
C115 C112 1.391 . S
C115 C114 1.392 . S
N116 Co60 2.257 . S
N116 C113 1.391 . S
N116 C117 1.388 . S
C117 H88 0.930 . S
C117 C112 1.391 . S
C117 N116 1.388 . S
Co118 O120 2.143 1_655 S
Co118 O126 2.074 . S
Co118 O129 2.093 . S
Co118 O142 2.097 . S
Co118 N159 2.151 . S
Co118 N167 2.214 . S
Co119 O120 2.160 . S
Co119 O125 2.058 . S
Co119 O135 2.057 . S
Co119 O150 2.037 . S
Co119 N154 2.145 . S
Co119 N175 2.257 . S
O120 Co118 2.143 1_455 S
O120 Co119 2.160 . S
C121 O122 1.278 . S
C121 O129 1.224 . S
O122 C121 1.278 . S
C123 O124 1.245 . S
C123 O135 1.232 . S
O124 C123 1.245 . S
O125 Co119 2.058 . S
O125 C151 1.269 . S
O126 Co118 2.074 . S
O126 C151 1.257 1_655 S
H127 C152 0.930 . S
H128 C158 0.930 . S
O129 Co118 2.093 . S
O129 C121 1.224 . S
H130 C162 0.929 . S
H131 C164 0.930 . S
H132 C165 0.930 . S
H133 C163 0.929 . S
H134 C166 0.928 . S
O135 Co119 2.057 . S
O135 C123 1.232 . S
H136 C155 0.929 . S
H137 C156 0.929 . S
H138 C168 0.931 . S
H139 C160 0.929 . S
H140 C169 0.930 . S
H141 C161 0.931 . S
O142 Co118 2.097 . S
O142 C170 1.214 1_655 S
H143 C171 0.929 . S
H144 C172 0.929 . S
H145 C173 0.930 . S
H146 C174 0.929 . S
H147 C176 0.930 . S
H148 C153 0.930 . S
H149 C157 0.930 . S
O150 Co119 2.037 . S
O150 C170 1.234 . S
C151 O125 1.269 . S
C151 O126 1.257 1_455 S
C152 H127 0.930 . S
C152 C155 1.388 . S
C152 C157 1.418 . S
C153 H148 0.930 . S
C153 C156 1.404 . S
C153 C157 1.353 . S
N154 Co119 2.145 . S
N154 C155 1.397 . S
N154 C156 1.334 . S
C155 H136 0.929 . S
C155 C152 1.388 . S
C155 N154 1.397 . S
C156 H137 0.929 . S
C156 C153 1.404 . S
C156 N154 1.334 . S
C157 H149 0.930 . S
C157 C152 1.418 . S
C157 C153 1.353 . S
C158 H128 0.930 . S
C158 N159 1.330 . S
C158 C160 1.446 . S
N159 Co118 2.151 . S
N159 C158 1.330 . S
N159 C163 1.418 . S
C160 H139 0.929 . S
C160 C158 1.446 . S
C160 C161 1.332 . S
C161 H141 0.931 . S
C161 C160 1.332 . S
C161 C162 1.267 . S
C162 H130 0.929 . S
C162 C161 1.267 . S
C162 C163 1.251 . S
C163 H133 0.929 . S
C163 N159 1.418 . S
C163 C162 1.251 . S
C164 H131 0.930 . S
C164 C166 1.406 . S
C164 C169 1.261 . S
C165 H132 0.930 . S
C165 N167 1.325 . S
C165 C168 1.357 . S
C166 H134 0.928 . S
C166 C164 1.406 . S
C166 N167 1.261 . S
N167 Co118 2.214 . S
N167 C165 1.325 . S
N167 C166 1.261 . S
C168 H138 0.931 . S
C168 C165 1.357 . S
C168 C169 1.312 . S
C169 H140 0.930 . S
C169 C164 1.261 . S
C169 C168 1.312 . S
C170 O142 1.214 1_455 S
C170 O150 1.234 . S
C171 H143 0.929 . S
C171 C174 1.391 . S
C171 C176 1.391 . S
C172 H144 0.929 . S
C172 C173 1.390 . S
C172 N175 1.391 . S
C173 H145 0.930 . S
C173 C172 1.390 . S
C173 C174 1.392 . S
C174 H146 0.929 . S
C174 C171 1.391 . S
C174 C173 1.392 . S
N175 Co119 2.257 . S
N175 C172 1.391 . S
N175 C176 1.388 . S
C176 H147 0.930 . S
C176 C171 1.391 . S
C176 N175 1.388 . S
Co177 O179 2.143 . S
Co177 O185 2.074 . S
Co177 O188 2.093 . S
Co177 O201 2.097 . S
Co177 N218 2.151 . S
Co177 N226 2.214 . S
Co178 O179 2.160 1_565 S
Co178 O184 2.058 . S
Co178 O194 2.057 . S
Co178 O209 2.037 . S
Co178 N213 2.145 . S
Co178 N234 2.257 . S
O179 Co177 2.143 . S
O179 Co178 2.160 1_545 S
C180 O181 1.278 . S
C180 O188 1.224 . S
O181 C180 1.278 . S
C182 O183 1.245 . S
C182 O194 1.232 . S
O183 C182 1.245 . S
O184 Co178 2.058 . S
O184 C210 1.269 1_565 S
O185 Co177 2.074 . S
O185 C210 1.257 . S
H186 C211 0.930 . S
H187 C217 0.930 . S
O188 Co177 2.093 . S
O188 C180 1.224 . S
H189 C221 0.929 . S
H190 C223 0.930 . S
H191 C224 0.930 . S
H192 C222 0.929 . S
H193 C225 0.928 . S
O194 Co178 2.057 . S
O194 C182 1.232 . S
H195 C214 0.929 . S
H196 C215 0.929 . S
H197 C227 0.931 . S
H198 C219 0.929 . S
H199 C228 0.930 . S
H200 C220 0.931 . S
O201 Co177 2.097 . S
O201 C229 1.214 . S
H202 C230 0.929 . S
H203 C231 0.929 . S
H204 C232 0.930 . S
H205 C233 0.929 . S
H206 C235 0.930 . S
H207 C212 0.930 . S
H208 C216 0.930 . S
O209 Co178 2.037 . S
O209 C229 1.234 1_565 S
C210 O184 1.269 1_545 S
C210 O185 1.257 . S
C211 H186 0.930 . S
C211 C214 1.388 . S
C211 C216 1.418 . S
C212 H207 0.930 . S
C212 C215 1.404 . S
C212 C216 1.353 . S
N213 Co178 2.145 . S
N213 C214 1.397 . S
N213 C215 1.334 . S
C214 H195 0.929 . S
C214 C211 1.388 . S
C214 N213 1.397 . S
C215 H196 0.929 . S
C215 C212 1.404 . S
C215 N213 1.334 . S
C216 H208 0.930 . S
C216 C211 1.418 . S
C216 C212 1.353 . S
C217 H187 0.930 . S
C217 N218 1.330 . S
C217 C219 1.446 . S
N218 Co177 2.151 . S
N218 C217 1.330 . S
N218 C222 1.418 . S
C219 H198 0.929 . S
C219 C217 1.446 . S
C219 C220 1.332 . S
C220 H200 0.931 . S
C220 C219 1.332 . S
C220 C221 1.267 . S
C221 H189 0.929 . S
C221 C220 1.267 . S
C221 C222 1.251 . S
C222 H192 0.929 . S
C222 N218 1.418 . S
C222 C221 1.251 . S
C223 H190 0.930 . S
C223 C225 1.406 . S
C223 C228 1.261 . S
C224 H191 0.930 . S
C224 N226 1.325 . S
C224 C227 1.357 . S
C225 H193 0.928 . S
C225 C223 1.406 . S
C225 N226 1.261 . S
N226 Co177 2.214 . S
N226 C224 1.325 . S
N226 C225 1.261 . S
C227 H197 0.931 . S
C227 C224 1.357 . S
C227 C228 1.312 . S
C228 H199 0.930 . S
C228 C223 1.261 . S
C228 C227 1.312 . S
C229 O201 1.214 . S
C229 O209 1.234 1_545 S
C230 H202 0.929 . S
C230 C233 1.391 . S
C230 C235 1.391 . S
C231 H203 0.929 . S
C231 C232 1.390 . S
C231 N234 1.391 . S
C232 H204 0.930 . S
C232 C231 1.390 . S
C232 C233 1.392 . S
C233 H205 0.929 . S
C233 C230 1.391 . S
C233 C232 1.392 . S
N234 Co178 2.257 . S
N234 C231 1.391 . S
N234 C235 1.388 . S
C235 H206 0.930 . S
C235 C230 1.391 . S
C235 N234 1.388 . S
C236 C237 1.386 . S
C236 C238 1.383 . S
C236 H252 0.951 . S
C237 C236 1.386 . S
C237 C241 1.383 . S
C238 C236 1.383 . S
C238 C239 1.402 . S
C238 H253 0.951 . S
C239 C238 1.402 . S
C239 C240 1.375 1_455 S
C239 C242 1.481 1_455 S
C240 C239 1.375 1_655 S
C240 C241 1.367 1_655 S
C240 H254 0.951 . S
C241 C237 1.383 . S
C241 C240 1.367 1_455 S
C241 H255 0.950 1_455 S
C242 C239 1.481 1_655 S
C242 C243 1.297 . S
C242 H256 0.950 . S
C243 C242 1.297 . S
C243 C244 1.479 . S
C243 H257 0.951 . S
C244 C243 1.479 . S
C244 C245 1.375 1_655 S
C244 C250 1.404 . S
C245 C244 1.375 1_455 S
C245 C246 1.369 . S
C245 H258 0.950 . S
C246 C245 1.369 . S
C246 C247 1.392 . S
C246 H259 0.951 . S
C247 C246 1.392 . S
C247 C249 1.384 1_455 S
H248 C250 0.949 . S
C249 C247 1.384 1_655 S
C249 C250 1.385 . S
C249 H251 0.950 . S
C250 C244 1.404 . S
C250 H248 0.949 . S
C250 C249 1.385 . S
H251 C249 0.950 . S
H252 C236 0.951 . S
H253 C238 0.951 . S
H254 C240 0.951 . S
H255 C241 0.950 1_655 S
H256 C242 0.950 . S
H257 C243 0.951 . S
H258 C245 0.950 . S
H259 C246 0.951 . S
C260 C261 1.386 . S
C260 C262 1.383 . S
C260 H276 0.951 . S
C261 C260 1.386 . S
C261 C265 1.383 1_545 S
C262 C260 1.383 . S
C262 C263 1.402 . S
C262 H277 0.951 . S
C263 C262 1.402 . S
C263 C264 1.375 1_545 S
C263 C266 1.481 . S
C264 C263 1.375 1_565 S
C264 C265 1.367 . S
C264 H278 0.951 . S
C265 C261 1.383 1_565 S
C265 C264 1.367 . S
C265 H279 0.950 . S
C266 C263 1.481 . S
C266 C267 1.297 . S
C266 H280 0.950 1_545 S
C267 C266 1.297 . S
C267 C268 1.479 . S
C267 H281 0.950 . S
C268 C267 1.479 . S
C268 C269 1.375 . S
C268 C274 1.404 . S
C269 C268 1.375 . S
C269 C270 1.369 . S
C269 H282 0.950 . S
C270 C269 1.369 . S
C270 C271 1.392 . S
C270 H283 0.951 . S
C271 C270 1.392 . S
C271 C273 1.384 . S
H272 C274 0.949 1_565 S
C273 C271 1.384 . S
C273 C274 1.385 . S
C273 H275 0.950 1_545 S
C274 C268 1.404 . S
C274 H272 0.949 1_545 S
C274 C273 1.385 . S
H275 C273 0.950 1_565 S
H276 C260 0.951 . S
H277 C262 0.951 . S
H278 C264 0.951 . S
H279 C265 0.950 . S
H280 C266 0.950 1_565 S
H281 C267 0.950 . S
H282 C269 0.950 . S
H283 C270 0.951 . S
C284 C285 1.386 1_655 S
C284 C286 1.383 . S
C284 H300 0.951 . S
C285 C284 1.386 1_455 S
C285 C289 1.383 . S
C286 C284 1.383 . S
C286 C287 1.407 . S
C286 H301 0.951 . S
C287 C286 1.407 . S
C287 C288 1.369 1_655 S
C287 C290 1.481 1_655 S
C288 C287 1.369 1_455 S
C288 C289 1.367 . S
C288 H302 0.951 . S
C289 C285 1.383 . S
C289 C288 1.367 . S
C289 H303 0.950 . S
C290 C287 1.481 1_455 S
C290 C291 1.298 1_455 S
C290 H304 0.949 . S
C291 C290 1.298 1_655 S
C291 C292 1.479 . S
C291 H305 0.950 . S
C292 C291 1.479 . S
C292 C293 1.375 . S
C292 C298 1.404 1_655 S
C293 C292 1.375 . S
C293 C294 1.369 . S
C293 H306 0.950 . S
C294 C293 1.369 . S
C294 C295 1.392 . S
C294 H307 0.951 . S
C295 C294 1.392 . S
C295 C297 1.384 1_655 S
H296 C298 0.949 . S
C297 C295 1.384 1_455 S
C297 C298 1.385 . S
C297 H299 0.950 . S
C298 C292 1.404 1_455 S
C298 H296 0.949 . S
C298 C297 1.385 . S
H299 C297 0.950 . S
H300 C284 0.951 . S
H301 C286 0.951 . S
H302 C288 0.951 . S
H303 C289 0.950 . S
H304 C290 0.949 . S
H305 C291 0.950 . S
H306 C293 0.950 . S
H307 C294 0.951 . S
C308 C309 1.385 1_545 S
C308 C310 1.381 1_545 S
C308 H324 0.954 . S
C309 C308 1.385 1_565 S
C309 C313 1.386 . S
C310 C308 1.381 1_565 S
C310 C311 1.402 . S
C310 H325 0.951 . S
C311 C310 1.402 . S
C311 C312 1.375 . S
C311 C314 1.492 . S
C312 C311 1.375 . S
C312 C313 1.367 . S
C312 H326 0.951 . S
C313 C309 1.386 . S
C313 C312 1.367 . S
C313 H327 0.950 . S
C314 C311 1.492 . S
C314 C315 1.297 . S
C314 H328 0.938 1_554 S
C315 C314 1.297 . S
C315 C316 1.478 1_554 S
C315 H329 0.952 . S
C316 C315 1.478 1_556 S
C316 C317 1.375 . S
C316 C322 1.404 . S
C317 C316 1.375 . S
C317 C318 1.369 . S
C317 H330 0.950 . S
C318 C317 1.369 . S
C318 C319 1.392 . S
C318 H331 0.951 1_565 S
C319 C318 1.392 . S
C319 C321 1.384 . S
H320 C322 0.949 . S
C321 C319 1.384 . S
C321 C322 1.385 . S
C321 H323 0.950 . S
C322 C316 1.404 . S
C322 H320 0.949 . S
C322 C321 1.385 . S
H323 C321 0.950 . S
H324 C308 0.954 . S
H325 C310 0.951 . S
H326 C312 0.951 . S
H327 C313 0.950 . S
H328 C314 0.938 1_556 S
H329 C315 0.952 . S
H330 C317 0.950 . S
H331 C318 0.951 1_545 S
C332 C333 1.386 . S
C332 C334 1.383 . S
C332 H348 0.951 . S
C333 C332 1.386 . S
C333 C337 1.383 . S
C334 C332 1.383 . S
C334 C335 1.402 . S
C334 H349 0.951 . S
C335 C334 1.402 . S
C335 C336 1.375 . S
C335 C338 1.481 . S
C336 C335 1.375 . S
C336 C337 1.367 . S
C336 H350 0.951 . S
C337 C333 1.383 . S
C337 C336 1.367 . S
C337 H351 0.950 . S
C338 C335 1.481 . S
C338 C339 1.297 . S
C338 H352 0.950 . S
C339 C338 1.297 . S
C339 C340 1.479 . S
C339 H353 0.950 . S
C340 C339 1.479 . S
C340 C341 1.375 . S
C340 C346 1.404 . S
C341 C340 1.375 . S
C341 C342 1.369 . S
C341 H354 0.950 . S
C342 C341 1.369 . S
C342 C343 1.392 . S
C342 H355 0.951 . S
C343 C342 1.392 . S
C343 C345 1.384 . S
H344 C346 0.949 . S
C345 C343 1.384 . S
C345 C346 1.385 . S
C345 H347 0.950 . S
C346 C340 1.404 . S
C346 H344 0.949 . S
C346 C345 1.385 . S
H347 C345 0.950 . S
H348 C332 0.951 . S
H349 C334 0.951 . S
H350 C336 0.951 . S
H351 C337 0.950 . S
H352 C338 0.950 . S
H353 C339 0.950 . S
H354 C341 0.950 . S
H355 C342 0.951 . S
C356 C357 1.386 . S
C356 C358 1.383 . S
C356 H372 0.951 . S
C357 C356 1.386 . S
C357 C361 1.383 . S
C358 C356 1.383 . S
C358 C359 1.402 . S
C358 H373 0.951 . S
C359 C358 1.402 . S
C359 C360 1.375 . S
C359 C362 1.481 . S
C360 C359 1.375 . S
C360 C361 1.367 . S
C360 H374 0.951 . S
C361 C357 1.383 . S
C361 C360 1.367 . S
C361 H375 0.950 . S
C362 C359 1.481 . S
C362 C363 1.297 . S
C362 H376 0.950 . S
C363 C362 1.297 . S
C363 C364 1.479 . S
C363 H377 0.950 . S
C364 C363 1.479 . S
C364 C365 1.375 . S
C364 C370 1.404 . S
C365 C364 1.375 . S
C365 C366 1.369 . S
C365 H378 0.950 . S
C366 C365 1.369 . S
C366 C367 1.392 . S
C366 H379 0.951 . S
C367 C366 1.392 . S
C367 C369 1.384 . S
H368 C370 0.949 . S
C369 C367 1.384 . S
C369 C370 1.385 . S
C369 H371 0.950 . S
C370 C364 1.404 . S
C370 H368 0.949 . S
C370 C369 1.385 . S
H371 C369 0.950 . S
H372 C356 0.951 . S
H373 C358 0.951 . S
H374 C360 0.951 . S
H375 C361 0.950 . S
H376 C362 0.950 . S
H377 C363 0.950 . S
H378 C365 0.950 . S
H379 C366 0.951 . S
C380 C381 1.386 . S
C380 C382 1.383 . S
C380 H396 0.951 . S
C381 C380 1.386 . S
C381 C385 1.383 . S
C382 C380 1.383 . S
C382 C383 1.402 . S
C382 H397 0.951 . S
C383 C382 1.402 . S
C383 C384 1.375 . S
C383 C386 1.481 . S
C384 C383 1.375 . S
C384 C385 1.367 . S
C384 H398 0.951 . S
C385 C381 1.383 . S
C385 C384 1.367 . S
C385 H399 0.950 . S
C386 C383 1.481 . S
C386 C387 1.297 . S
C386 H400 0.950 . S
C387 C386 1.297 . S
C387 C388 1.479 . S
C387 H401 0.950 . S
C388 C387 1.479 . S
C388 C389 1.375 . S
C388 C394 1.404 . S
C389 C388 1.375 . S
C389 C390 1.369 . S
C389 H402 0.950 . S
C390 C389 1.369 . S
C390 C391 1.392 . S
C390 H403 0.951 . S
C391 C390 1.392 . S
C391 C393 1.384 . S
H392 C394 0.949 . S
C393 C391 1.384 . S
C393 C394 1.385 . S
C393 H395 0.950 . S
C394 C388 1.404 . S
C394 H392 0.949 . S
C394 C393 1.385 . S
H395 C393 0.950 . S
H396 C380 0.951 . S
H397 C382 0.951 . S
H398 C384 0.951 . S
H399 C385 0.950 . S
H400 C386 0.950 . S
H401 C387 0.950 . S
H402 C389 0.950 . S
H403 C390 0.951 . S
C404 C405 1.386 . S
C404 C406 1.383 . S
C404 H420 0.951 . S
C405 C404 1.386 . S
C405 C409 1.383 . S
C406 C404 1.383 . S
C406 C407 1.402 . S
C406 H421 0.951 . S
C407 C406 1.402 . S
C407 C408 1.375 . S
C407 C410 1.481 . S
C408 C407 1.375 . S
C408 C409 1.367 . S
C408 H422 0.951 . S
C409 C405 1.383 . S
C409 C408 1.367 . S
C409 H423 0.950 . S
C410 C407 1.481 . S
C410 C411 1.297 . S
C410 H424 0.950 . S
C411 C410 1.297 . S
C411 C412 1.479 . S
C411 H425 0.950 . S
C412 C411 1.479 . S
C412 C413 1.375 . S
C412 C418 1.404 . S
C413 C412 1.375 . S
C413 C414 1.369 . S
C413 H426 0.950 . S
C414 C413 1.369 . S
C414 C415 1.392 . S
C414 H427 0.951 . S
C415 C414 1.392 . S
C415 C417 1.384 . S
H416 C418 0.949 . S
C417 C415 1.384 . S
C417 C418 1.385 . S
C417 H419 0.950 . S
C418 C412 1.404 . S
C418 H416 0.949 . S
C418 C417 1.385 . S
H419 C417 0.950 . S
H420 C404 0.951 . S
H421 C406 0.951 . S
H422 C408 0.951 . S
H423 C409 0.950 . S
H424 C410 0.950 . S
H425 C411 0.950 . S
H426 C413 0.950 . S
H427 C414 0.951 . S
C237 C52 1.673 . S
C247 C151 1.664 . S
C261 C92 1.672 . S
C271 C229 1.670 . S
C285 C33 1.672 . S
C295 C170 1.668 1_655 S
C309 C111 1.665 1_565 S
C319 C210 1.666 1_565 S
C333 C62 1.471 . S
C343 C3 1.474 . S
C357 C64 1.484 . S
C367 C123 1.473 . S
C381 C180 1.487 . S
C391 C121 1.470 . S
C405 C182 1.480 . S
C415 C5 1.478 . S
