# Generated by pormake.
# Topology bcu-h, (3)-cn, num edge types: 1
# Building blocks:
#     Node 0, Type 0, BuildingBlock: OLANEW_clean_sbu_2, # of connection points: 3
#     Node 1, Type 0, BuildingBlock: OLANEW_clean_sbu_2, # of connection points: 3
#     Node 2, Type 0, BuildingBlock: OLANEW_clean_sbu_2, # of connection points: 3
#     Node 3, Type 0, BuildingBlock: OLANEW_clean_sbu_2, # of connection points: 3
#     Node 4, Type 0, BuildingBlock: OLANEW_clean_sbu_2, # of connection points: 3
#     Node 5, Type 0, BuildingBlock: OLANEW_clean_sbu_2, # of connection points: 3
#     Node 6, Type 0, BuildingBlock: OLANEW_clean_sbu_2, # of connection points: 3
#     Node 7, Type 0, BuildingBlock: OLANEW_clean_sbu_2, # of connection points: 3
#     Node 8, Type 0, BuildingBlock: OLANEW_clean_sbu_2, # of connection points: 3
#     Node 9, Type 0, BuildingBlock: OLANEW_clean_sbu_2, # of connection points: 3
#     Node 10, Type 0, BuildingBlock: OLANEW_clean_sbu_2, # of connection points: 3
#     Node 11, Type 0, BuildingBlock: OLANEW_clean_sbu_2, # of connection points: 3
#     Node 12, Type 0, BuildingBlock: OLANEW_clean_sbu_2, # of connection points: 3
#     Node 13, Type 0, BuildingBlock: OLANEW_clean_sbu_2, # of connection points: 3
#     Node 14, Type 0, BuildingBlock: OLANEW_clean_sbu_2, # of connection points: 3
#     Node 15, Type 0, BuildingBlock: OLANEW_clean_sbu_2, # of connection points: 3
#     Edge 16, Type (0, 0), BuildingBlock: CIFDUS_clean_linker_0, # of connection points: 2
#     Edge 17, Type (0, 0), BuildingBlock: CIFDUS_clean_linker_0, # of connection points: 2
#     Edge 18, Type (0, 0), BuildingBlock: CIFDUS_clean_linker_0, # of connection points: 2
#     Edge 19, Type (0, 0), BuildingBlock: CIFDUS_clean_linker_0, # of connection points: 2
#     Edge 20, Type (0, 0), BuildingBlock: CIFDUS_clean_linker_0, # of connection points: 2
#     Edge 21, Type (0, 0), BuildingBlock: CIFDUS_clean_linker_0, # of connection points: 2
#     Edge 22, Type (0, 0), BuildingBlock: CIFDUS_clean_linker_0, # of connection points: 2
#     Edge 23, Type (0, 0), BuildingBlock: CIFDUS_clean_linker_0, # of connection points: 2
#     Edge 24, Type (0, 0), BuildingBlock: CIFDUS_clean_linker_0, # of connection points: 2
#     Edge 25, Type (0, 0), BuildingBlock: CIFDUS_clean_linker_0, # of connection points: 2
#     Edge 26, Type (0, 0), BuildingBlock: CIFDUS_clean_linker_0, # of connection points: 2
#     Edge 27, Type (0, 0), BuildingBlock: CIFDUS_clean_linker_0, # of connection points: 2
#     Edge 28, Type (0, 0), BuildingBlock: CIFDUS_clean_linker_0, # of connection points: 2
#     Edge 29, Type (0, 0), BuildingBlock: CIFDUS_clean_linker_0, # of connection points: 2
#     Edge 30, Type (0, 0), BuildingBlock: CIFDUS_clean_linker_0, # of connection points: 2
#     Edge 31, Type (0, 0), BuildingBlock: CIFDUS_clean_linker_0, # of connection points: 2
#     Edge 32, Type (0, 0), BuildingBlock: CIFDUS_clean_linker_0, # of connection points: 2
#     Edge 33, Type (0, 0), BuildingBlock: CIFDUS_clean_linker_0, # of connection points: 2
#     Edge 34, Type (0, 0), BuildingBlock: CIFDUS_clean_linker_0, # of connection points: 2
#     Edge 35, Type (0, 0), BuildingBlock: CIFDUS_clean_linker_0, # of connection points: 2
#     Edge 36, Type (0, 0), BuildingBlock: CIFDUS_clean_linker_0, # of connection points: 2
#     Edge 37, Type (0, 0), BuildingBlock: CIFDUS_clean_linker_0, # of connection points: 2
#     Edge 38, Type (0, 0), BuildingBlock: CIFDUS_clean_linker_0, # of connection points: 2
#     Edge 39, Type (0, 0), BuildingBlock: CIFDUS_clean_linker_0, # of connection points: 2
# Relax obj value: 0.004
# Max RMSD: 0.052
# Mean RMSD: 0.052
data_MOF--net-bcu-h--node1-OLANEW_clean_sbu_2--edge1-CIFDUS_clean_linker_0
_symmetry_space_group_name_H-M    P1
_symmetry_Int_Tables_number       1
_symmetry_cell_setting            triclinic
loop_
_symmetry_equiv_pos_as_xyz
'x, y, z'
_cell_length_a     51.718977
_cell_length_b     51.720095
_cell_length_c     40.76813
_cell_angle_alpha  90.028935
_cell_angle_beta   89.998038
_cell_angle_gamma 89.988985
loop_
_atom_site_label
_atom_site_type_symbol
_atom_site_fract_x
_atom_site_fract_y
_atom_site_fract_z
_atom_type_partial_charge
O0 O 0.61028 0.02073 0.16053 0.0
Cd1 Cd 0.63046 0.0156 0.10653 0.0
O2 O 0.59069 0.05684 0.14653 0.0
Cd3 Cd 0.61633 0.06096 0.10447 0.0
O4 O 0.65761 0.06605 0.09541 0.0
C5 C 0.67081 0.0676 0.12166 0.0
O6 O 0.65867 0.06612 0.14992 0.0
C7 C 0.59448 0.03885 0.16726 0.0
C8 C 0.59622 0.99382 0.06136 0.0
O9 O 0.61267 0.97977 0.07669 0.0
O10 O 0.59603 0.01815 0.06728 0.0
O11 O 0.49039 0.61271 0.65159 0.0
Cd12 Cd 0.49789 0.63449 0.59911 0.0
O13 O 0.4512 0.60088 0.63699 0.0
Cd14 Cd 0.45064 0.62864 0.59679 0.0
O15 O 0.44596 0.6698 0.5865 0.0
C16 C 0.42431 0.67881 0.57721 0.0
O17 O 0.40523 0.66273 0.57115 0.0
C18 C 0.46975 0.60013 0.65746 0.0
C19 C 0.52585 0.60355 0.55566 0.0
O20 O 0.53718 0.62064 0.57333 0.0
O21 O 0.5013 0.60109 0.5585 0.0
O22 O 0.88759 0.47593 0.1532 0.0
Cd23 Cd 0.86159 0.48827 0.10556 0.0
O24 O 0.90341 0.44158 0.12844 0.0
Cd25 Cd 0.87374 0.44392 0.09062 0.0
O26 O 0.83187 0.44146 0.08475 0.0
C27 C 0.81972 0.44075 0.11185 0.0
O28 O 0.83306 0.44183 0.13926 0.0
C29 C 0.90298 0.45671 0.15306 0.0
C30 C 0.89022 0.51807 0.06169 0.0
O31 O 0.87495 0.52873 0.08243 0.0
O32 O 0.89186 0.49335 0.06156 0.0
O33 O 0.05114 0.91698 0.63581 0.0
Cd34 Cd 0.04521 0.89382 0.58407 0.0
O35 O 0.02644 0.89083 0.66455 0.0
Cd36 Cd 0.02118 0.86293 0.62503 0.0
O37 O 0.02715 0.82253 0.61159 0.0
C38 C 0.04863 0.81296 0.62066 0.0
O39 O 0.06555 0.82816 0.63504 0.0
C40 C 0.04062 0.91086 0.6629 0.0
C41 C 0.00802 0.91706 0.54432 0.0
O42 O 0.00215 0.89795 0.5629 0.0
O43 O 0.03143 0.92517 0.54459 0.0
O44 O 0.10524 0.97071 0.83864 0.0
Cd45 Cd 0.13204 0.98337 0.88546 0.0
O46 O 0.09183 0.93536 0.86335 0.0
Cd47 Cd 0.12227 0.93845 0.9001 0.0
O48 O 0.1637 0.93674 0.91004 0.0
C49 C 0.17394 0.91618 0.92109 0.0
O50 O 0.15898 0.89659 0.92883 0.0
C51 C 0.09075 0.95082 0.83911 0.0
C52 C 0.10362 0.0126 0.93027 0.0
O53 O 0.11827 0.02355 0.90906 0.0
O54 O 0.10254 0.98785 0.93045 0.0
O55 O 0.52464 0.10563 0.34453 0.0
Cd56 Cd 0.51923 0.12564 0.39857 0.0
O57 O 0.56024 0.08526 0.35892 0.0
Cd58 Cd 0.56404 0.10973 0.40218 0.0
O59 O 0.56931 0.15022 0.41576 0.0
C60 C 0.56774 0.16557 0.39148 0.0
O61 O 0.56312 0.15583 0.36228 0.0
C62 C 0.5426 0.08963 0.33787 0.0
C63 C 0.49497 0.09234 0.44273 0.0
O64 O 0.48202 0.10949 0.42708 0.0
O65 O 0.51937 0.09097 0.43756 0.0
O66 O 0.42276 0.56071 0.84891 0.0
Cd67 Cd 0.40576 0.56203 0.90486 0.0
O68 O 0.38981 0.5387 0.82934 0.0
Cd69 Cd 0.36693 0.53908 0.87426 0.0
O70 O 0.32773 0.54459 0.89275 0.0
C71 C 0.31107 0.52758 0.88503 0.0
O72 O 0.31878 0.50689 0.86907 0.0
C73 C 0.41156 0.5496 0.82499 0.0
C74 C 0.42565 0.52288 0.94449 0.0
O75 O 0.43798 0.54413 0.94038 0.0
O76 O 0.40395 0.52009 0.9297 0.0
O77 O 0.93496 0.42184 0.35818 0.0
Cd78 Cd 0.93895 0.39832 0.40992 0.0
O79 O 0.96063 0.39585 0.33053 0.0
Cd80 Cd 0.96502 0.36785 0.37009 0.0
O81 O 0.96181 0.32734 0.38441 0.0
C82 C 0.97619 0.31134 0.36933 0.0
O83 O 0.9932 0.32023 0.3482 0.0
C84 C 0.94639 0.41587 0.33163 0.0
C85 C 0.97742 0.41872 0.45019 0.0
O86 O 0.982 0.3992 0.4317 0.0
O87 O 0.9547 0.4286 0.44957 0.0
O88 O 0.46096 0.9022 0.84988 0.0
Cd89 Cd 0.46985 0.88481 0.90454 0.0
O90 O 0.42262 0.91038 0.86984 0.0
Cd91 Cd 0.38163 0.92098 0.8698 0.0
O92 O 0.3405 0.92933 0.87591 0.0
C93 C 0.32671 0.91427 0.89327 0.0
O94 O 0.33762 0.894 0.90691 0.0
C95 C 0.43821 0.91089 0.84568 0.0
C96 C 0.50798 0.9107 0.94007 0.0
O97 O 0.51346 0.89057 0.92307 0.0
O98 O 0.48459 0.91889 0.9397 0.0
O99 O 0.60382 0.4558 0.34572 0.0
Cd100 Cd 0.6206 0.46483 0.40064 0.0
O101 O 0.59875 0.41631 0.3638 0.0
Cd102 Cd 0.5905 0.37493 0.35977 0.0
O103 O 0.5836 0.3334 0.35587 0.0
C104 C 0.58527 0.31886 0.38091 0.0
O105 O 0.59111 0.32916 0.40943 0.0
C106 C 0.59669 0.43264 0.3406 0.0
C107 C 0.58975 0.49816 0.4376 0.0
O108 O 0.60933 0.50667 0.42163 0.0
O109 O 0.58456 0.47397 0.43572 0.0
O110 O 0.03363 0.60146 0.85143 0.0
Cd111 Cd 0.02343 0.6189 0.90563 0.0
O112 O 0.07071 0.59131 0.87362 0.0
Cd113 Cd 0.11094 0.57828 0.87603 0.0
O114 O 0.15131 0.56683 0.88196 0.0
C115 C 0.16715 0.58206 0.89593 0.0
O116 O 0.15882 0.60456 0.90655 0.0
C117 C 0.05598 0.59149 0.8486 0.0
C118 C 0.99148 0.58678 0.94262 0.0
O119 O 0.98211 0.60599 0.9267 0.0
O120 O 0.01587 0.58262 0.94078 0.0
O121 O 0.89385 0.03638 0.33601 0.0
Cd122 Cd 0.87853 0.02578 0.3911 0.0
O123 O 0.90778 0.07229 0.35808 0.0
Cd124 Cd 0.92345 0.11157 0.35959 0.0
O125 O 0.93635 0.15156 0.36485 0.0
C126 C 0.92448 0.16656 0.38444 0.0
O127 O 0.90472 0.15754 0.40116 0.0
C128 C 0.90513 0.05806 0.33282 0.0
C129 C 0.91633 0.00201 0.42941 0.0
O130 O 0.89932 0.98855 0.41419 0.0
O131 O 0.91554 0.02666 0.42638 0.0
O132 O 0.95874 0.0969 0.14051 0.0
Cd133 Cd 0.96885 0.11224 0.08526 0.0
O134 O 0.91926 0.09441 0.12173 0.0
Cd135 Cd 0.87729 0.08936 0.12342 0.0
O136 O 0.83533 0.08495 0.12253 0.0
C137 C 0.82289 0.08418 0.14938 0.0
O138 O 0.83572 0.08598 0.17712 0.0
C139 C 0.93508 0.09149 0.14536 0.0
C140 C 0.00181 0.07991 0.04994 0.0
O141 O 0.01057 0.09987 0.0649 0.0
O142 O 0.97758 0.07503 0.05208 0.0
O143 O 0.39615 0.96409 0.65418 0.0
Cd144 Cd 0.37848 0.97292 0.59967 0.0
O145 O 0.40596 0.92625 0.63388 0.0
Cd146 Cd 0.4183 0.88575 0.63308 0.0
O147 O 0.42873 0.84524 0.62549 0.0
C148 C 0.41402 0.83082 0.60845 0.0
O149 O 0.39275 0.84068 0.59602 0.0
C150 C 0.40579 0.94171 0.65818 0.0
C151 C 0.40614 0.00915 0.56316 0.0
O152 O 0.38641 0.01591 0.58017 0.0
O153 O 0.41304 0.98535 0.56389 0.0
O154 O 0.5354 0.39782 0.15102 0.0
Cd155 Cd 0.52206 0.38317 0.09658 0.0
O156 O 0.57295 0.40575 0.12856 0.0
Cd157 Cd 0.61414 0.41518 0.12719 0.0
O158 O 0.65568 0.42194 0.12354 0.0
C159 C 0.66899 0.42436 0.14954 0.0
O160 O 0.65727 0.42297 0.17809 0.0
C161 C 0.55855 0.40573 0.15387 0.0
C162 C 0.50223 0.42293 0.05788 0.0
O163 O 0.48718 0.40815 0.07437 0.0
O164 O 0.52665 0.41901 0.05987 0.0
O165 O 0.09671 0.52969 0.66097 0.0
Cd166 Cd 0.11263 0.51682 0.60693 0.0
O167 O 0.08953 0.56722 0.63812 0.0
Cd168 Cd 0.08023 0.60845 0.63547 0.0
O169 O 0.07371 0.64993 0.63 0.0
C170 C 0.09205 0.66541 0.63667 0.0
O171 O 0.11423 0.65591 0.6468 0.0
C172 C 0.08876 0.55286 0.66346 0.0
C173 C 0.07386 0.49623 0.56728 0.0
O174 O 0.0891 0.48142 0.58347 0.0
O175 O 0.07688 0.52073 0.56996 0.0
H176 H 0.50558 0.95842 0.9679 0.0
H177 H 0.55496 0.89157 0.95836 0.0
H178 H 0.58664 0.91137 0.995 0.0
H179 H 0.59976 0.94714 0.03109 0.0
H180 H 0.55125 0.01476 0.03879 0.0
H181 H 0.51983 0.99522 0.00153 0.0
C182 C 0.52332 0.94823 0.97376 0.0
C183 C 0.52782 0.92349 0.96058 0.0
C184 C 0.54157 0.95983 0.9946 0.0
C185 C 0.55102 0.91064 0.96814 0.0
C186 C 0.56912 0.92191 0.98919 0.0
C187 C 0.58231 0.95759 0.02458 0.0
C188 C 0.57774 0.98227 0.03787 0.0
C189 C 0.5645 0.94639 0.00279 0.0
C190 C 0.55522 0.99573 0.02889 0.0
C191 C 0.53722 0.98455 0.00764 0.0
H192 H 0.51086 0.55804 0.52825 0.0
H193 H 0.57438 0.61205 0.5319 0.0
H194 H 0.59926 0.58481 0.49446 0.0
H195 H 0.60334 0.54522 0.46154 0.0
H196 H 0.54088 0.48993 0.46049 0.0
H197 H 0.5152 0.5181 0.49595 0.0
C198 C 0.53011 0.56389 0.52073 0.0
C199 C 0.54073 0.58706 0.53277 0.0
C200 C 0.5445 0.54789 0.49969 0.0
C201 C 0.56579 0.59426 0.52307 0.0
C202 C 0.58002 0.57872 0.50161 0.0
C203 C 0.58404 0.53942 0.46891 0.0
C204 C 0.57398 0.51558 0.45829 0.0
C205 C 0.56961 0.55544 0.48987 0.0
C206 C 0.54908 0.50818 0.46837 0.0
C207 C 0.53438 0.52428 0.48863 0.0
H208 H 0.94514 0.59926 0.96948 0.0
H209 H 0.00064 0.53725 0.96211 0.0
H210 H 0.97358 0.51005 0.99714 0.0
H211 H 0.93463 0.50428 0.03091 0.0
H212 H 0.88074 0.5674 0.04152 0.0
H213 H 0.90664 0.5938 0.00419 0.0
C214 C 0.9512 0.57973 0.9754 0.0
C215 C 0.97476 0.5702 0.96313 0.0
C216 C 0.93588 0.56446 0.99621 0.0
C217 C 0.98258 0.54501 0.97133 0.0
C218 C 0.96712 0.52945 0.99131 0.0
C219 C 0.92851 0.52377 0.02489 0.0
C220 C 0.90577 0.53385 0.03881 0.0
C221 C 0.94381 0.53902 0.00405 0.0
C222 C 0.89822 0.55924 0.03116 0.0
C223 C 0.91299 0.57432 0.00979 0.0
H224 H 0.0102 0.96459 0.51622 0.0
H225 H 0.96167 0.89709 0.52496 0.0
H226 H 0.92936 0.9171 0.48933 0.0
H227 H 0.91481 0.95386 0.45586 0.0
H228 H 0.96224 0.02231 0.44974 0.0
H229 H 0.99508 0.00184 0.48414 0.0
C230 C 0.99258 0.95424 0.51026 0.0
C231 C 0.98838 0.92936 0.52308 0.0
C232 C 0.97389 0.96603 0.49023 0.0
C233 C 0.96533 0.9163 0.51545 0.0
C234 C 0.94687 0.9277 0.49502 0.0
C235 C 0.93239 0.96424 0.46197 0.0
C236 C 0.93617 0.9895 0.45014 0.0
C237 C 0.95095 0.95255 0.48228 0.0
C238 C 0.95887 0.00285 0.45858 0.0
C239 C 0.97767 0.99116 0.47821 0.0
H240 H 0.06027 0.99777 0.96267 0.0
H241 H 0.11202 0.06235 0.94958 0.0
H242 H 0.08589 0.08841 0.98709 0.0
H243 H 0.04762 0.09323 0.02232 0.0
H244 H 0.99416 0.02969 0.03216 0.0
H245 H 0.02169 0.00278 0.99732 0.0
C246 C 0.0659 0.01749 0.9682 0.0
C247 C 0.08808 0.0281 0.95349 0.0
C248 C 0.05045 0.03254 0.98915 0.0
C249 C 0.09498 0.05378 0.96055 0.0
C250 C 0.08007 0.06867 0.98201 0.0
C251 C 0.04212 0.07343 0.01703 0.0
C252 C 0.01898 0.06341 0.02989 0.0
C253 C 0.05768 0.05831 0.99629 0.0
C254 C 0.01188 0.03784 0.02248 0.0
C255 C 0.02761 0.02245 0.00259 0.0
H256 H 0.45377 0.00395 0.53577 0.0
H257 H 0.38956 0.05686 0.54396 0.0
H258 H 0.41131 0.08723 0.50732 0.0
H259 H 0.44812 0.09831 0.47187 0.0
H260 H 0.51318 0.0463 0.46564 0.0
H261 H 0.49156 0.01605 0.5026 0.0
C262 C 0.44457 0.02216 0.5296 0.0
C263 C 0.42002 0.02806 0.54242 0.0
C264 C 0.45731 0.03966 0.50879 0.0
C265 C 0.40847 0.05185 0.53446 0.0
C266 C 0.42085 0.0692 0.51342 0.0
C267 C 0.45755 0.08035 0.47861 0.0
C268 C 0.48212 0.07447 0.46586 0.0
C269 C 0.44518 0.06322 0.50025 0.0
C270 C 0.49426 0.05128 0.47513 0.0
C271 C 0.4819 0.03395 0.49622 0.0
H272 H 0.45288 0.42835 0.03615 0.0
H273 H 0.52819 0.46411 0.03219 0.0
H274 H 0.51106 0.49843 0.99721 0.0
H275 H 0.47473 0.51815 0.96752 0.0
H276 H 0.3999 0.48127 0.9694 0.0
H277 H 0.41681 0.4475 0.00536 0.0
C278 C 0.46552 0.44371 0.02772 0.0
C279 C 0.49173 0.44375 0.03687 0.0
C280 C 0.45564 0.46313 0.00718 0.0
C281 C 0.50793 0.46362 0.02547 0.0
C282 C 0.49815 0.48326 0.00549 0.0
C283 C 0.46211 0.50275 0.97585 0.0
C284 C 0.43608 0.50227 0.96589 0.0
C285 C 0.47205 0.48319 0.99616 0.0
C286 C 0.42004 0.48205 0.97664 0.0
C287 C 0.42967 0.46275 0.99727 0.0
H288 H 0.07182 0.44801 0.54109 0.0
H289 H 0.03033 0.52031 0.5453 0.0
H290 H 0.99652 0.50253 0.51 0.0
H291 H 0.97883 0.46647 0.47777 0.0
H292 H 0.0216 0.39503 0.4709 0.0
H293 H 0.05485 0.41244 0.50734 0.0
C294 C 0.05532 0.45982 0.53436 0.0
C295 C 0.05348 0.48537 0.54593 0.0
C296 C 0.03623 0.44965 0.51352 0.0
C297 C 0.03219 0.50058 0.53667 0.0
C298 C 0.01284 0.49042 0.51653 0.0
C299 C 0.99541 0.45471 0.48432 0.0
C300 C 0.9977 0.42947 0.47181 0.0
C301 C 0.01467 0.46499 0.50479 0.0
C302 C 0.01943 0.41455 0.48017 0.0
C303 C 0.03842 0.42446 0.50105 0.0
H304 H 0.55447 0.06933 0.18683 0.0
H305 H 0.60925 0.013 0.2225 0.0
H306 H 0.596 0.02187 0.27883 0.0
H307 H 0.5727 0.04937 0.31811 0.0
H308 H 0.51764 0.10543 0.28242 0.0
H309 H 0.52692 0.09265 0.22603 0.0
C310 C 0.56322 0.0587 0.20689 0.0
C311 C 0.58309 0.04083 0.20048 0.0
C312 C 0.55561 0.06398 0.23928 0.0
C313 C 0.59398 0.02695 0.22672 0.0
C314 C 0.58652 0.0321 0.259 0.0
C315 C 0.56244 0.05851 0.29802 0.0
C316 C 0.54482 0.0786 0.30448 0.0
C317 C 0.56795 0.05116 0.2656 0.0
C318 C 0.5314 0.08999 0.27818 0.0
C319 C 0.53679 0.08279 0.24587 0.0
H320 H 0.45753 0.57094 0.8062 0.0
H321 H 0.38932 0.53337 0.76789 0.0
H322 H 0.40294 0.54326 0.71213 0.0
H323 H 0.43138 0.56696 0.67471 0.0
H324 H 0.4995 0.60482 0.71261 0.0
H325 H 0.48892 0.59006 0.76789 0.0
C326 C 0.44583 0.56456 0.78565 0.0
C327 C 0.42222 0.55181 0.79135 0.0
C328 C 0.45365 0.57051 0.75351 0.0
C329 C 0.40748 0.54342 0.76435 0.0
C330 C 0.4152 0.54913 0.73237 0.0
C331 C 0.44414 0.57167 0.69497 0.0
C332 C 0.46597 0.58731 0.68958 0.0
C333 C 0.43782 0.56336 0.72673 0.0
C334 C 0.48248 0.59292 0.71606 0.0
C335 C 0.47638 0.5846 0.74774 0.0
H336 H 0.96209 0.40413 0.26975 0.0
H337 H 0.91785 0.46013 0.32478 0.0
H338 H 0.90306 0.4799 0.27376 0.0
H339 H 0.89858 0.47797 0.21387 0.0
H340 H 0.94105 0.42041 0.15918 0.0
H341 H 0.96084 0.4048 0.20975 0.0
C342 C 0.94954 0.42092 0.27067 0.0
C343 C 0.94086 0.43041 0.3011 0.0
C344 C 0.9406 0.4318 0.24126 0.0
C345 C 0.92468 0.45227 0.30173 0.0
C346 C 0.91615 0.46356 0.27254 0.0
C347 C 0.91252 0.46231 0.2129 0.0
C348 C 0.91809 0.45021 0.18279 0.0
C349 C 0.92335 0.45299 0.24219 0.0
C350 C 0.93622 0.42995 0.18204 0.0
C351 C 0.94751 0.42096 0.21097 0.0
H352 H 0.02794 0.89813 0.72553 0.0
H353 H 0.06863 0.95556 0.6686 0.0
H354 H 0.08529 0.97505 0.71891 0.0
H355 H 0.09232 0.97263 0.7784 0.0
H356 H 0.05345 0.91362 0.83476 0.0
H357 H 0.03187 0.89812 0.78532 0.0
C358 C 0.0401 0.91518 0.72407 0.0
C359 C 0.04724 0.92517 0.69326 0.0
C360 C 0.05014 0.92589 0.75301 0.0
C361 C 0.06298 0.94732 0.69194 0.0
C362 C 0.07258 0.95845 0.72072 0.0
C363 C 0.07879 0.95666 0.77999 0.0
C364 C 0.07474 0.94415 0.81021 0.0
C365 C 0.06692 0.94741 0.75131 0.0
C366 C 0.05712 0.92348 0.81179 0.0
C367 C 0.04479 0.91456 0.7835 0.0
H368 H 0.45606 0.89511 0.78649 0.0
H369 H 0.40265 0.94844 0.8315 0.0
H370 H 0.38782 0.96243 0.77751 0.0
H371 H 0.38969 0.95917 0.71738 0.0
H372 H 0.44443 0.90724 0.67232 0.0
H373 H 0.4591 0.89306 0.72631 0.0
C374 C 0.44122 0.90985 0.78445 0.0
C375 C 0.42995 0.9202 0.81299 0.0
C376 C 0.43297 0.91797 0.75328 0.0
C377 C 0.41089 0.9394 0.80998 0.0
C378 C 0.40263 0.94765 0.77907 0.0
C379 C 0.40487 0.94478 0.7194 0.0
C380 C 0.41543 0.93373 0.69084 0.0
C381 C 0.4134 0.93694 0.75056 0.0
C382 C 0.43522 0.91528 0.69384 0.0
C383 C 0.44386 0.90741 0.72475 0.0
H384 H 0.54371 0.38771 0.21323 0.0
H385 H 0.59496 0.44263 0.16741 0.0
H386 H 0.6116 0.45545 0.22107 0.0
H387 H 0.61129 0.4513 0.2813 0.0
H388 H 0.55903 0.3973 0.32703 0.0
H389 H 0.54302 0.38392 0.2733 0.0
C390 C 0.55852 0.40249 0.21503 0.0
C391 C 0.56852 0.41376 0.18633 0.0
C392 C 0.56781 0.40992 0.246 0.0
C393 C 0.58761 0.43297 0.189 0.0
C394 C 0.5969 0.44055 0.21974 0.0
C395 C 0.5964 0.4366 0.27943 0.0
C396 C 0.58678 0.42486 0.30804 0.0
C397 C 0.58717 0.42913 0.24841 0.0
C398 C 0.5674 0.40596 0.30534 0.0
C399 C 0.55802 0.39852 0.27463 0.0
H400 H 0.04047 0.60694 0.78825 0.0
H401 H 0.08993 0.5519 0.837 0.0
H402 H 0.10488 0.53566 0.78409 0.0
H403 H 0.10378 0.53697 0.72381 0.0
H404 H 0.05241 0.59024 0.67511 0.0
H405 H 0.03833 0.60728 0.72799 0.0
C406 C 0.05453 0.59139 0.78727 0.0
C407 C 0.06466 0.58118 0.81656 0.0
C408 C 0.06273 0.58187 0.75671 0.0
C409 C 0.08266 0.56088 0.8149 0.0
C410 C 0.09095 0.55132 0.78461 0.0
C411 C 0.0895 0.55232 0.7248 0.0
C412 C 0.07974 0.56286 0.6955 0.0
C413 C 0.08119 0.56174 0.75536 0.0
C414 C 0.06108 0.58255 0.69717 0.0
C415 C 0.05273 0.59206 0.72747 0.0
H416 H 0.95597 0.10367 0.20432 0.0
H417 H 0.89523 0.05862 0.15976 0.0
H418 H 0.88023 0.04498 0.21377 0.0
H419 H 0.88459 0.04553 0.27384 0.0
H420 H 0.94662 0.08883 0.31832 0.0
H421 H 0.96093 0.10342 0.26435 0.0
C422 C 0.93945 0.09086 0.20647 0.0
C423 C 0.92628 0.08276 0.17807 0.0
C424 C 0.93116 0.08279 0.23765 0.0
C425 C 0.90505 0.06601 0.18121 0.0
C426 C 0.89668 0.05789 0.21212 0.0
C427 C 0.90124 0.05817 0.27169 0.0
C428 C 0.9141 0.06664 0.30012 0.0
C429 C 0.90955 0.06622 0.24051 0.0
C430 C 0.93575 0.08285 0.29696 0.0
C431 C 0.94416 0.09093 0.26604 0.0
H432 H 0.79077 0.08008 0.09656 0.0
H433 H 0.7909 0.0819 0.20248 0.0
H434 H 0.74401 0.0771 0.20302 0.0
H435 H 0.70308 0.07219 0.1737 0.0
H436 H 0.70249 0.07032 0.06783 0.0
H437 H 0.74951 0.07536 0.06706 0.0
C438 C 0.78056 0.07943 0.11978 0.0
C439 C 0.79439 0.08132 0.14944 0.0
C440 C 0.75352 0.07665 0.11994 0.0
C441 C 0.7808 0.08047 0.17928 0.0
C442 C 0.75395 0.07772 0.17963 0.0
C443 C 0.71318 0.07288 0.1504 0.0
C444 C 0.69925 0.07085 0.12086 0.0
C445 C 0.74014 0.07576 0.15014 0.0
C446 C 0.71272 0.07183 0.09094 0.0
C447 C 0.73961 0.07471 0.09048 0.0
H448 H 0.38483 0.79425 0.57788 0.0
H449 H 0.45795 0.80539 0.62701 0.0
H450 H 0.46829 0.75972 0.6196 0.0
H451 H 0.45588 0.71634 0.60123 0.0
H452 H 0.38218 0.70479 0.55373 0.0
H453 H 0.37291 0.75097 0.55817 0.0
C454 C 0.40308 0.78673 0.58686 0.0
C455 C 0.42053 0.80324 0.6031 0.0
C456 C 0.40883 0.76038 0.58277 0.0
C457 C 0.4441 0.79313 0.61456 0.0
C458 C 0.45005 0.767 0.61029 0.0
C459 C 0.4379 0.72393 0.59152 0.0
C460 C 0.41975 0.70709 0.57719 0.0
C461 C 0.43248 0.75041 0.59469 0.0
C462 C 0.39648 0.71729 0.56493 0.0
C463 C 0.39113 0.7437 0.56753 0.0
H464 H 0.78934 0.43895 0.16596 0.0
H465 H 0.78602 0.43683 0.06018 0.0
H466 H 0.73903 0.43186 0.0625 0.0
H467 H 0.69899 0.4276 0.09468 0.0
H468 H 0.70277 0.42964 0.20048 0.0
H469 H 0.74954 0.43519 0.19794 0.0
C470 C 0.77839 0.43745 0.14336 0.0
C471 C 0.79121 0.43824 0.11294 0.0
C472 C 0.75145 0.43456 0.14487 0.0
C473 C 0.77665 0.43628 0.08393 0.0
C474 C 0.74977 0.43342 0.08524 0.0
C475 C 0.71003 0.4293 0.11719 0.0
C476 C 0.69734 0.42817 0.14773 0.0
C477 C 0.73698 0.43246 0.11559 0.0
C478 C 0.71198 0.43043 0.17664 0.0
C479 C 0.73876 0.4336 0.17523 0.0
H480 H 0.05013 0.69107 0.6125 0.0
H481 H 0.12592 0.70342 0.65409 0.0
H482 H 0.11964 0.75009 0.6511 0.0
H483 H 0.09211 0.78731 0.63877 0.0
H484 H 0.01622 0.7753 0.59739 0.0
H485 H 0.02322 0.72857 0.59791 0.0
C486 C 0.0653 0.70396 0.62084 0.0
C487 C 0.08839 0.69371 0.63371 0.0
C488 C 0.06158 0.73084 0.61906 0.0
C489 C 0.10792 0.71073 0.64417 0.0
C490 C 0.10435 0.73745 0.64248 0.0
C491 C 0.07713 0.77452 0.62965 0.0
C492 C 0.05361 0.78482 0.61824 0.0
C493 C 0.08119 0.7477 0.63025 0.0
C494 C 0.03449 0.76791 0.60637 0.0
C495 C 0.03844 0.74117 0.60675 0.0
H496 H 0.20974 0.94905 0.89565 0.0
H497 H 0.20217 0.87661 0.94732 0.0
H498 H 0.24887 0.87007 0.94422 0.0
H499 H 0.29157 0.88397 0.9247 0.0
H500 H 0.29887 0.95581 0.8716 0.0
H501 H 0.25254 0.96349 0.87741 0.0
C502 C 0.2183 0.93194 0.90653 0.0
C503 C 0.20244 0.91334 0.92166 0.0
C504 C 0.24511 0.92809 0.90419 0.0
C505 C 0.21389 0.89122 0.93547 0.0
C506 C 0.24061 0.88744 0.93365 0.0
C507 C 0.28307 0.90137 0.9145 0.0
C508 C 0.29871 0.91923 0.89763 0.0
C509 C 0.25636 0.90558 0.9177 0.0
C510 C 0.28732 0.94167 0.88458 0.0
C511 C 0.2608 0.9461 0.88792 0.0
H512 H 0.58732 0.2825 0.42928 0.0
H513 H 0.57345 0.29175 0.32547 0.0
H514 H 0.56665 0.24533 0.3199 0.0
H515 H 0.56492 0.20219 0.34414 0.0
H516 H 0.57873 0.1924 0.44782 0.0
H517 H 0.58524 0.23902 0.45375 0.0
C518 C 0.58278 0.27438 0.40544 0.0
C519 C 0.58093 0.29064 0.37784 0.0
C520 C 0.57889 0.24759 0.40236 0.0
C521 C 0.57502 0.27975 0.34714 0.0
C522 C 0.57112 0.25317 0.3439 0.0
C523 C 0.56933 0.21019 0.36809 0.0
C524 C 0.57136 0.19379 0.39549 0.0
C525 C 0.57305 0.23693 0.3713 0.0
C526 C 0.57706 0.20457 0.42631 0.0
C527 C 0.58079 0.23123 0.42972 0.0
H528 H 0.18962 0.53599 0.88092 0.0
H529 H 0.20682 0.61221 0.91821 0.0
H530 H 0.25274 0.60141 0.92058 0.0
H531 H 0.28826 0.57122 0.90897 0.0
H532 H 0.27094 0.49518 0.8711 0.0
H533 H 0.22483 0.50497 0.87247 0.0
C534 C 0.20338 0.55023 0.8897 0.0
C535 C 0.19478 0.57496 0.89908 0.0
C536 C 0.22977 0.54393 0.89093 0.0
C537 C 0.21289 0.59306 0.91069 0.0
C538 C 0.23918 0.58691 0.91205 0.0
C539 C 0.2744 0.55667 0.90136 0.0
C540 C 0.28311 0.53257 0.88971 0.0
C541 C 0.24788 0.56252 0.90181 0.0
C542 C 0.26483 0.51394 0.88002 0.0
C543 C 0.23843 0.51954 0.8807 0.0
H544 H 0.96572 0.19039 0.35614 0.0
H545 H 0.90045 0.20456 0.41967 0.0
H546 H 0.9117 0.25034 0.42245 0.0
H547 H 0.93872 0.28675 0.40451 0.0
H548 H 0.00371 0.2725 0.3405 0.0
H549 H 0.99403 0.22636 0.34058 0.0
C550 C 0.954 0.20345 0.37071 0.0
C551 C 0.93215 0.19405 0.38744 0.0
C552 C 0.96053 0.22978 0.37215 0.0
C553 C 0.91731 0.21125 0.40642 0.0
C554 C 0.92373 0.23747 0.40803 0.0
C555 C 0.95094 0.27353 0.39084 0.0
C556 C 0.97181 0.28314 0.37236 0.0
C557 C 0.94511 0.247 0.39067 0.0
C558 C 0.98744 0.26569 0.35483 0.0
C559 C 0.9819 0.23927 0.35478 0.0
loop_
_geom_bond_atom_site_label_1
_geom_bond_atom_site_label_2
_geom_bond_distance
_geom_bond_site_symmetry_2
_ccdc_geom_bond_type
O0 Cd1 2.300 . S
O0 C7 1.275 . S
Cd1 O0 2.300 . S
Cd1 O9 2.381 . S
Cd1 O10 2.378 . S
O2 Cd3 2.385 . S
O2 C7 1.255 . S
Cd3 O2 2.385 . S
Cd3 O4 2.317 . S
O4 Cd3 2.317 . S
O4 C5 1.232 . S
C5 O4 1.232 . S
C5 O6 1.218 . S
O6 C5 1.218 . S
C7 O0 1.275 . S
C7 O2 1.255 . S
C8 O9 1.258 . S
C8 O10 1.256 . S
O9 Cd1 2.381 . S
O9 C8 1.258 . S
O10 Cd1 2.378 . S
O10 C8 1.256 . S
O11 Cd12 2.300 . S
O11 C18 1.275 . S
Cd12 O11 2.300 . S
Cd12 O20 2.381 . S
Cd12 O21 2.378 . S
O13 Cd14 2.385 . S
O13 C18 1.255 . S
Cd14 O13 2.385 . S
Cd14 O15 2.317 . S
O15 Cd14 2.317 . S
O15 C16 1.232 . S
C16 O15 1.232 . S
C16 O17 1.218 . S
O17 C16 1.218 . S
C18 O11 1.275 . S
C18 O13 1.255 . S
C19 O20 1.258 . S
C19 O21 1.256 . S
O20 Cd12 2.381 . S
O20 C19 1.258 . S
O21 Cd12 2.378 . S
O21 C19 1.256 . S
O22 Cd23 2.300 . S
O22 C29 1.275 . S
Cd23 O22 2.300 . S
Cd23 O31 2.381 . S
Cd23 O32 2.378 . S
O24 Cd25 2.385 . S
O24 C29 1.255 . S
Cd25 O24 2.385 . S
Cd25 O26 2.317 . S
O26 Cd25 2.317 . S
O26 C27 1.232 . S
C27 O26 1.232 . S
C27 O28 1.218 . S
O28 C27 1.218 . S
C29 O22 1.275 . S
C29 O24 1.255 . S
C30 O31 1.258 . S
C30 O32 1.256 . S
O31 Cd23 2.381 . S
O31 C30 1.258 . S
O32 Cd23 2.378 . S
O32 C30 1.256 . S
O33 Cd34 2.300 . S
O33 C40 1.275 . S
Cd34 O33 2.300 . S
Cd34 O42 2.381 . S
Cd34 O43 2.378 . S
O35 Cd36 2.385 . S
O35 C40 1.255 . S
Cd36 O35 2.385 . S
Cd36 O37 2.317 . S
O37 Cd36 2.317 . S
O37 C38 1.232 . S
C38 O37 1.232 . S
C38 O39 1.218 . S
O39 C38 1.218 . S
C40 O33 1.275 . S
C40 O35 1.255 . S
C41 O42 1.258 . S
C41 O43 1.256 . S
O42 Cd34 2.381 . S
O42 C41 1.258 . S
O43 Cd34 2.378 . S
O43 C41 1.256 . S
O44 Cd45 2.300 . S
O44 C51 1.275 . S
Cd45 O44 2.300 . S
Cd45 O53 2.381 . S
Cd45 O54 2.378 . S
O46 Cd47 2.385 . S
O46 C51 1.255 . S
Cd47 O46 2.385 . S
Cd47 O48 2.317 . S
O48 Cd47 2.317 . S
O48 C49 1.232 . S
C49 O48 1.232 . S
C49 O50 1.218 . S
O50 C49 1.218 . S
C51 O44 1.275 . S
C51 O46 1.255 . S
C52 O53 1.258 . S
C52 O54 1.256 . S
O53 Cd45 2.381 . S
O53 C52 1.258 . S
O54 Cd45 2.378 . S
O54 C52 1.256 . S
O55 Cd56 2.300 . S
O55 C62 1.275 . S
Cd56 O55 2.300 . S
Cd56 O64 2.381 . S
Cd56 O65 2.378 . S
O57 Cd58 2.385 . S
O57 C62 1.255 . S
Cd58 O57 2.385 . S
Cd58 O59 2.317 . S
O59 Cd58 2.317 . S
O59 C60 1.232 . S
C60 O59 1.232 . S
C60 O61 1.218 . S
O61 C60 1.218 . S
C62 O55 1.275 . S
C62 O57 1.255 . S
C63 O64 1.258 . S
C63 O65 1.256 . S
O64 Cd56 2.381 . S
O64 C63 1.258 . S
O65 Cd56 2.378 . S
O65 C63 1.256 . S
O66 Cd67 2.300 . S
O66 C73 1.275 . S
Cd67 O66 2.300 . S
Cd67 O75 2.381 . S
Cd67 O76 2.378 . S
O68 Cd69 2.385 . S
O68 C73 1.255 . S
Cd69 O68 2.385 . S
Cd69 O70 2.317 . S
O70 Cd69 2.317 . S
O70 C71 1.232 . S
C71 O70 1.232 . S
C71 O72 1.218 . S
O72 C71 1.218 . S
C73 O66 1.275 . S
C73 O68 1.255 . S
C74 O75 1.258 . S
C74 O76 1.256 . S
O75 Cd67 2.381 . S
O75 C74 1.258 . S
O76 Cd67 2.378 . S
O76 C74 1.256 . S
O77 Cd78 2.300 . S
O77 C84 1.275 . S
Cd78 O77 2.300 . S
Cd78 O86 2.381 . S
Cd78 O87 2.378 . S
O79 Cd80 2.385 . S
O79 C84 1.255 . S
Cd80 O79 2.385 . S
Cd80 O81 2.317 . S
O81 Cd80 2.317 . S
O81 C82 1.232 . S
C82 O81 1.232 . S
C82 O83 1.218 . S
O83 C82 1.218 . S
C84 O77 1.275 . S
C84 O79 1.255 . S
C85 O86 1.258 . S
C85 O87 1.256 . S
O86 Cd78 2.381 . S
O86 C85 1.258 . S
O87 Cd78 2.378 . S
O87 C85 1.256 . S
O88 Cd89 2.300 . S
O88 C95 1.275 . S
Cd89 O88 2.300 . S
Cd89 O97 2.381 . S
Cd89 O98 2.378 . S
O90 Cd91 2.385 . S
O90 C95 1.255 . S
Cd91 O90 2.385 . S
Cd91 O92 2.317 . S
O92 Cd91 2.317 . S
O92 C93 1.232 . S
C93 O92 1.232 . S
C93 O94 1.218 . S
O94 C93 1.218 . S
C95 O88 1.275 . S
C95 O90 1.255 . S
C96 O97 1.258 . S
C96 O98 1.256 . S
O97 Cd89 2.381 . S
O97 C96 1.258 . S
O98 Cd89 2.378 . S
O98 C96 1.256 . S
O99 Cd100 2.300 . S
O99 C106 1.275 . S
Cd100 O99 2.300 . S
Cd100 O108 2.381 . S
Cd100 O109 2.378 . S
O101 Cd102 2.385 . S
O101 C106 1.255 . S
Cd102 O101 2.385 . S
Cd102 O103 2.317 . S
O103 Cd102 2.317 . S
O103 C104 1.232 . S
C104 O103 1.232 . S
C104 O105 1.218 . S
O105 C104 1.218 . S
C106 O99 1.275 . S
C106 O101 1.255 . S
C107 O108 1.258 . S
C107 O109 1.256 . S
O108 Cd100 2.381 . S
O108 C107 1.258 . S
O109 Cd100 2.378 . S
O109 C107 1.256 . S
O110 Cd111 2.300 . S
O110 C117 1.275 . S
Cd111 O110 2.300 . S
Cd111 O119 2.381 . S
Cd111 O120 2.378 . S
O112 Cd113 2.385 . S
O112 C117 1.255 . S
Cd113 O112 2.385 . S
Cd113 O114 2.317 . S
O114 Cd113 2.317 . S
O114 C115 1.232 . S
C115 O114 1.232 . S
C115 O116 1.218 . S
O116 C115 1.218 . S
C117 O110 1.275 . S
C117 O112 1.255 . S
C118 O119 1.258 . S
C118 O120 1.256 . S
O119 Cd111 2.381 . S
O119 C118 1.258 . S
O120 Cd111 2.378 . S
O120 C118 1.256 . S
O121 Cd122 2.300 . S
O121 C128 1.275 . S
Cd122 O121 2.300 . S
Cd122 O130 2.381 . S
Cd122 O131 2.378 . S
O123 Cd124 2.385 . S
O123 C128 1.255 . S
Cd124 O123 2.385 . S
Cd124 O125 2.317 . S
O125 Cd124 2.317 . S
O125 C126 1.232 . S
C126 O125 1.232 . S
C126 O127 1.218 . S
O127 C126 1.218 . S
C128 O121 1.275 . S
C128 O123 1.255 . S
C129 O130 1.258 . S
C129 O131 1.256 . S
O130 Cd122 2.381 . S
O130 C129 1.258 . S
O131 Cd122 2.378 . S
O131 C129 1.256 . S
O132 Cd133 2.300 . S
O132 C139 1.275 . S
Cd133 O132 2.300 . S
Cd133 O141 2.381 . S
Cd133 O142 2.378 . S
O134 Cd135 2.385 . S
O134 C139 1.255 . S
Cd135 O134 2.385 . S
Cd135 O136 2.317 . S
O136 Cd135 2.317 . S
O136 C137 1.232 . S
C137 O136 1.232 . S
C137 O138 1.218 . S
O138 C137 1.218 . S
C139 O132 1.275 . S
C139 O134 1.255 . S
C140 O141 1.258 . S
C140 O142 1.256 . S
O141 Cd133 2.381 . S
O141 C140 1.258 . S
O142 Cd133 2.378 . S
O142 C140 1.256 . S
O143 Cd144 2.300 . S
O143 C150 1.275 . S
Cd144 O143 2.300 . S
Cd144 O152 2.381 . S
Cd144 O153 2.378 . S
O145 Cd146 2.385 . S
O145 C150 1.255 . S
Cd146 O145 2.385 . S
Cd146 O147 2.317 . S
O147 Cd146 2.317 . S
O147 C148 1.232 . S
C148 O147 1.232 . S
C148 O149 1.218 . S
O149 C148 1.218 . S
C150 O143 1.275 . S
C150 O145 1.255 . S
C151 O152 1.258 . S
C151 O153 1.256 . S
O152 Cd144 2.381 . S
O152 C151 1.258 . S
O153 Cd144 2.378 . S
O153 C151 1.256 . S
O154 Cd155 2.300 . S
O154 C161 1.275 . S
Cd155 O154 2.300 . S
Cd155 O163 2.381 . S
Cd155 O164 2.378 . S
O156 Cd157 2.385 . S
O156 C161 1.255 . S
Cd157 O156 2.385 . S
Cd157 O158 2.317 . S
O158 Cd157 2.317 . S
O158 C159 1.232 . S
C159 O158 1.232 . S
C159 O160 1.218 . S
O160 C159 1.218 . S
C161 O154 1.275 . S
C161 O156 1.255 . S
C162 O163 1.258 . S
C162 O164 1.256 . S
O163 Cd155 2.381 . S
O163 C162 1.258 . S
O164 Cd155 2.378 . S
O164 C162 1.256 . S
O165 Cd166 2.300 . S
O165 C172 1.275 . S
Cd166 O165 2.300 . S
Cd166 O174 2.381 . S
Cd166 O175 2.378 . S
O167 Cd168 2.385 . S
O167 C172 1.255 . S
Cd168 O167 2.385 . S
Cd168 O169 2.317 . S
O169 Cd168 2.317 . S
O169 C170 1.232 . S
C170 O169 1.232 . S
C170 O171 1.218 . S
O171 C170 1.218 . S
C172 O165 1.275 . S
C172 O167 1.255 . S
C173 O174 1.258 . S
C173 O175 1.256 . S
O174 Cd166 2.381 . S
O174 C173 1.258 . S
O175 Cd166 2.378 . S
O175 C173 1.256 . S
H176 C182 0.930 1_545 S
H177 C185 0.930 . S
H178 C186 0.930 . S
H179 C187 0.930 1_565 S
H180 C190 0.930 . S
H181 C191 0.930 . S
C182 H176 0.930 1_565 S
C182 C183 1.355 . S
C182 C184 1.415 1_565 S
C183 C182 1.355 . S
C183 C185 1.419 . S
C184 C182 1.415 1_545 S
C184 C189 1.425 1_546 S
C184 C191 1.409 . S
C185 H177 0.930 . S
C185 C183 1.419 . S
C185 C186 1.363 1_556 S
C186 H178 0.930 . S
C186 C185 1.363 1_554 S
C186 C189 1.409 . S
C187 H179 0.930 1_545 S
C187 C188 1.355 . S
C187 C189 1.415 1_545 S
C188 C187 1.355 . S
C188 C190 1.419 . S
C189 C184 1.425 1_564 S
C189 C186 1.409 . S
C189 C187 1.415 1_565 S
C190 H180 0.930 . S
C190 C188 1.419 . S
C190 C191 1.363 1_554 S
C191 H181 0.930 . S
C191 C184 1.409 . S
C191 C190 1.363 1_556 S
H192 C198 0.930 . S
H193 C201 0.930 . S
H194 C202 0.930 . S
H195 C203 0.930 . S
H196 C206 0.930 . S
H197 C207 0.930 . S
C198 H192 0.930 . S
C198 C199 1.355 . S
C198 C200 1.415 . S
C199 C198 1.355 . S
C199 C201 1.419 . S
C200 C198 1.415 . S
C200 C205 1.425 . S
C200 C207 1.409 . S
C201 H193 0.930 . S
C201 C199 1.419 . S
C201 C202 1.362 . S
C202 H194 0.930 . S
C202 C201 1.362 . S
C202 C205 1.409 . S
C203 H195 0.930 . S
C203 C204 1.355 . S
C203 C205 1.415 . S
C204 C203 1.355 . S
C204 C206 1.419 . S
C205 C200 1.425 . S
C205 C202 1.409 . S
C205 C203 1.415 . S
C206 H196 0.930 . S
C206 C204 1.419 . S
C206 C207 1.362 . S
C207 H197 0.930 . S
C207 C200 1.409 . S
C207 C206 1.362 . S
H208 C214 0.931 . S
H209 C217 0.930 . S
H210 C218 0.930 . S
H211 C219 0.931 . S
H212 C222 0.930 . S
H213 C223 0.930 . S
C214 H208 0.931 . S
C214 C215 1.352 1_554 S
C214 C216 1.416 . S
C215 C214 1.352 1_556 S
C215 C217 1.419 . S
C216 C214 1.416 . S
C216 C221 1.425 1_454 S
C216 C223 1.409 1_455 S
C217 H209 0.930 . S
C217 C215 1.419 . S
C217 C218 1.362 . S
C218 H210 0.930 . S
C218 C217 1.362 . S
C218 C221 1.409 1_455 S
C219 H211 0.931 . S
C219 C220 1.352 1_556 S
C219 C221 1.416 . S
C220 C219 1.352 1_554 S
C220 C222 1.419 . S
C221 C216 1.425 1_656 S
C221 C218 1.409 1_655 S
C221 C219 1.416 . S
C222 H212 0.930 . S
C222 C220 1.419 . S
C222 C223 1.362 . S
C223 H213 0.930 . S
C223 C216 1.409 1_655 S
C223 C222 1.362 . S
H224 C230 0.930 1_545 S
H225 C233 0.930 . S
H226 C234 0.930 . S
H227 C235 0.930 1_565 S
H228 C238 0.930 . S
H229 C239 0.930 . S
C230 H224 0.930 1_565 S
C230 C231 1.355 . S
C230 C232 1.415 1_565 S
C231 C230 1.355 . S
C231 C233 1.419 . S
C232 C230 1.415 1_545 S
C232 C237 1.425 1_445 S
C232 C239 1.409 . S
C233 H225 0.930 . S
C233 C231 1.419 . S
C233 C234 1.362 1_455 S
C234 H226 0.930 . S
C234 C233 1.362 1_655 S
C234 C237 1.409 . S
C235 H227 0.930 1_545 S
C235 C236 1.355 . S
C235 C237 1.415 1_545 S
C236 C235 1.355 . S
C236 C238 1.419 . S
C237 C232 1.425 1_665 S
C237 C234 1.409 . S
C237 C235 1.415 1_565 S
C238 H228 0.930 . S
C238 C236 1.419 . S
C238 C239 1.362 1_655 S
C239 H229 0.930 . S
C239 C232 1.409 . S
C239 C238 1.362 1_455 S
H240 C246 0.930 . S
H241 C249 0.931 . S
H242 C250 0.930 . S
H243 C251 0.930 . S
H244 C254 0.931 . S
H245 C255 0.930 . S
C246 H240 0.930 . S
C246 C247 1.355 . S
C246 C248 1.421 1_455 S
C247 C246 1.355 . S
C247 C249 1.419 . S
C248 C246 1.421 1_655 S
C248 C253 1.425 1_666 S
C248 C255 1.403 1_556 S
C249 H241 0.931 . S
C249 C247 1.419 . S
C249 C250 1.362 1_565 S
C250 H242 0.930 . S
C250 C249 1.362 1_545 S
C250 C253 1.403 1_556 S
C251 H243 0.930 . S
C251 C252 1.355 . S
C251 C253 1.421 1_655 S
C252 C251 1.355 . S
C252 C254 1.419 . S
C253 C248 1.425 1_444 S
C253 C250 1.403 1_554 S
C253 C251 1.421 1_455 S
C254 H244 0.931 . S
C254 C252 1.419 . S
C254 C255 1.362 1_545 S
C255 H245 0.930 . S
C255 C248 1.403 1_554 S
C255 C254 1.362 1_565 S
H256 C262 0.930 . S
H257 C265 0.930 . S
H258 C266 0.930 . S
H259 C267 0.930 . S
H260 C270 0.930 . S
H261 C271 0.930 . S
C262 H256 0.930 . S
C262 C263 1.355 . S
C262 C264 1.415 . S
C263 C262 1.355 . S
C263 C265 1.419 . S
C264 C262 1.415 . S
C264 C269 1.425 1_565 S
C264 C271 1.409 . S
C265 H257 0.930 . S
C265 C263 1.419 . S
C265 C266 1.362 1_565 S
C266 H258 0.930 . S
C266 C265 1.362 1_545 S
C266 C269 1.409 . S
C267 H259 0.930 . S
C267 C268 1.355 . S
C267 C269 1.415 . S
C268 C267 1.355 . S
C268 C270 1.419 . S
C269 C264 1.425 1_545 S
C269 C266 1.409 . S
C269 C267 1.415 . S
C270 H260 0.930 . S
C270 C268 1.419 . S
C270 C271 1.362 1_545 S
C271 H261 0.930 . S
C271 C264 1.409 . S
C271 C270 1.362 1_565 S
H272 C278 0.930 . S
H273 C281 0.930 . S
H274 C282 0.930 . S
H275 C283 0.930 . S
H276 C286 0.930 . S
H277 C287 0.930 . S
C278 H272 0.930 . S
C278 C279 1.355 . S
C278 C280 1.415 . S
C279 C278 1.355 . S
C279 C281 1.419 1_554 S
C280 C278 1.415 . S
C280 C285 1.425 1_554 S
C280 C287 1.409 . S
C281 H273 0.930 . S
C281 C279 1.419 1_556 S
C281 C282 1.362 . S
C282 H274 0.930 . S
C282 C281 1.362 . S
C282 C285 1.409 . S
C283 H275 0.930 . S
C283 C284 1.355 . S
C283 C285 1.415 . S
C284 C283 1.355 . S
C284 C286 1.419 1_556 S
C285 C280 1.425 1_556 S
C285 C282 1.409 . S
C285 C283 1.415 . S
C286 H276 0.930 . S
C286 C284 1.419 1_554 S
C286 C287 1.362 . S
C287 H277 0.930 . S
C287 C280 1.409 . S
C287 C286 1.362 . S
H288 C294 0.930 . S
H289 C297 0.930 . S
H290 C298 0.930 . S
H291 C299 0.930 . S
H292 C302 0.930 . S
H293 C303 0.930 . S
C294 H288 0.930 . S
C294 C295 1.355 . S
C294 C296 1.435 . S
C295 C294 1.355 . S
C295 C297 1.419 . S
C296 C294 1.435 . S
C296 C301 1.423 1_455 S
C296 C303 1.391 1_455 S
C297 H289 0.930 . S
C297 C295 1.419 . S
C297 C298 1.362 . S
C298 H290 0.930 . S
C298 C297 1.362 . S
C298 C301 1.391 1_455 S
C299 H291 0.930 . S
C299 C300 1.355 . S
C299 C301 1.435 . S
C300 C299 1.355 . S
C300 C302 1.419 . S
C301 C296 1.423 1_655 S
C301 C298 1.391 1_655 S
C301 C299 1.435 . S
C302 H292 0.930 . S
C302 C300 1.419 . S
C302 C303 1.362 . S
C303 H293 0.930 . S
C303 C296 1.391 1_655 S
C303 C302 1.362 . S
H304 C310 0.930 . S
H305 C313 0.930 . S
H306 C314 0.930 . S
H307 C315 0.930 . S
H308 C318 0.930 . S
H309 C319 0.930 . S
C310 H304 0.930 . S
C310 C311 1.355 . S
C310 C312 1.415 . S
C311 C310 1.355 . S
C311 C313 1.419 . S
C312 C310 1.415 . S
C312 C317 1.425 . S
C312 C319 1.409 . S
C313 H305 0.930 . S
C313 C311 1.419 . S
C313 C314 1.362 . S
C314 H306 0.930 . S
C314 C313 1.362 . S
C314 C317 1.409 . S
C315 H307 0.930 . S
C315 C316 1.355 . S
C315 C317 1.415 . S
C316 C315 1.355 . S
C316 C318 1.419 . S
C317 C312 1.425 . S
C317 C314 1.409 . S
C317 C315 1.415 . S
C318 H308 0.930 . S
C318 C316 1.419 . S
C318 C319 1.362 . S
C319 H309 0.930 . S
C319 C312 1.409 . S
C319 C318 1.362 . S
H320 C326 0.930 . S
H321 C329 0.930 . S
H322 C330 0.930 . S
H323 C331 0.930 . S
H324 C334 0.930 . S
H325 C335 0.930 . S
C326 H320 0.930 . S
C326 C327 1.355 . S
C326 C328 1.415 . S
C327 C326 1.355 . S
C327 C329 1.419 . S
C328 C326 1.415 . S
C328 C333 1.425 . S
C328 C335 1.409 . S
C329 H321 0.930 . S
C329 C327 1.419 . S
C329 C330 1.362 . S
C330 H322 0.930 . S
C330 C329 1.362 . S
C330 C333 1.409 . S
C331 H323 0.930 . S
C331 C332 1.355 . S
C331 C333 1.415 . S
C332 C331 1.355 . S
C332 C334 1.419 . S
C333 C328 1.425 . S
C333 C330 1.409 . S
C333 C331 1.415 . S
C334 H324 0.930 . S
C334 C332 1.419 . S
C334 C335 1.362 . S
C335 H325 0.930 . S
C335 C328 1.409 . S
C335 C334 1.362 . S
H336 C342 0.930 . S
H337 C345 0.930 . S
H338 C346 0.930 . S
H339 C347 0.930 . S
H340 C350 0.930 . S
H341 C351 0.930 . S
C342 H336 0.930 . S
C342 C343 1.355 . S
C342 C344 1.415 . S
C343 C342 1.355 . S
C343 C345 1.419 . S
C344 C342 1.415 . S
C344 C349 1.425 . S
C344 C351 1.409 . S
C345 H337 0.930 . S
C345 C343 1.419 . S
C345 C346 1.362 . S
C346 H338 0.930 . S
C346 C345 1.362 . S
C346 C349 1.409 . S
C347 H339 0.930 . S
C347 C348 1.355 . S
C347 C349 1.415 . S
C348 C347 1.355 . S
C348 C350 1.419 . S
C349 C344 1.425 . S
C349 C346 1.409 . S
C349 C347 1.415 . S
C350 H340 0.930 . S
C350 C348 1.419 . S
C350 C351 1.362 . S
C351 H341 0.930 . S
C351 C344 1.409 . S
C351 C350 1.362 . S
H352 C358 0.930 . S
H353 C361 0.930 . S
H354 C362 0.930 . S
H355 C363 0.930 . S
H356 C366 0.930 . S
H357 C367 0.930 . S
C358 H352 0.930 . S
C358 C359 1.355 . S
C358 C360 1.415 . S
C359 C358 1.355 . S
C359 C361 1.419 . S
C360 C358 1.415 . S
C360 C365 1.425 . S
C360 C367 1.409 . S
C361 H353 0.930 . S
C361 C359 1.419 . S
C361 C362 1.362 . S
C362 H354 0.930 . S
C362 C361 1.362 . S
C362 C365 1.409 . S
C363 H355 0.930 . S
C363 C364 1.355 . S
C363 C365 1.415 . S
C364 C363 1.355 . S
C364 C366 1.419 . S
C365 C360 1.425 . S
C365 C362 1.409 . S
C365 C363 1.415 . S
C366 H356 0.930 . S
C366 C364 1.419 . S
C366 C367 1.362 . S
C367 H357 0.930 . S
C367 C360 1.409 . S
C367 C366 1.362 . S
H368 C374 0.930 . S
H369 C377 0.930 . S
H370 C378 0.930 . S
H371 C379 0.930 . S
H372 C382 0.930 . S
H373 C383 0.930 . S
C374 H368 0.930 . S
C374 C375 1.355 . S
C374 C376 1.415 . S
C375 C374 1.355 . S
C375 C377 1.419 . S
C376 C374 1.415 . S
C376 C381 1.425 . S
C376 C383 1.409 . S
C377 H369 0.930 . S
C377 C375 1.419 . S
C377 C378 1.362 . S
C378 H370 0.930 . S
C378 C377 1.362 . S
C378 C381 1.409 . S
C379 H371 0.930 . S
C379 C380 1.355 . S
C379 C381 1.415 . S
C380 C379 1.355 . S
C380 C382 1.419 . S
C381 C376 1.425 . S
C381 C378 1.409 . S
C381 C379 1.415 . S
C382 H372 0.930 . S
C382 C380 1.419 . S
C382 C383 1.362 . S
C383 H373 0.930 . S
C383 C376 1.409 . S
C383 C382 1.362 . S
H384 C390 0.930 . S
H385 C393 0.930 . S
H386 C394 0.930 . S
H387 C395 0.930 . S
H388 C398 0.930 . S
H389 C399 0.930 . S
C390 H384 0.930 . S
C390 C391 1.355 . S
C390 C392 1.415 . S
C391 C390 1.355 . S
C391 C393 1.419 . S
C392 C390 1.415 . S
C392 C397 1.425 . S
C392 C399 1.409 . S
C393 H385 0.930 . S
C393 C391 1.419 . S
C393 C394 1.362 . S
C394 H386 0.930 . S
C394 C393 1.362 . S
C394 C397 1.409 . S
C395 H387 0.930 . S
C395 C396 1.355 . S
C395 C397 1.415 . S
C396 C395 1.355 . S
C396 C398 1.419 . S
C397 C392 1.425 . S
C397 C394 1.409 . S
C397 C395 1.415 . S
C398 H388 0.930 . S
C398 C396 1.419 . S
C398 C399 1.362 . S
C399 H389 0.930 . S
C399 C392 1.409 . S
C399 C398 1.362 . S
H400 C406 0.930 . S
H401 C409 0.930 . S
H402 C410 0.930 . S
H403 C411 0.930 . S
H404 C414 0.930 . S
H405 C415 0.930 . S
C406 H400 0.930 . S
C406 C407 1.355 . S
C406 C408 1.415 . S
C407 C406 1.355 . S
C407 C409 1.419 . S
C408 C406 1.415 . S
C408 C413 1.425 . S
C408 C415 1.409 . S
C409 H401 0.930 . S
C409 C407 1.419 . S
C409 C410 1.362 . S
C410 H402 0.930 . S
C410 C409 1.362 . S
C410 C413 1.409 . S
C411 H403 0.930 . S
C411 C412 1.355 . S
C411 C413 1.415 . S
C412 C411 1.355 . S
C412 C414 1.419 . S
C413 C408 1.425 . S
C413 C410 1.409 . S
C413 C411 1.415 . S
C414 H404 0.930 . S
C414 C412 1.419 . S
C414 C415 1.362 . S
C415 H405 0.930 . S
C415 C408 1.409 . S
C415 C414 1.362 . S
H416 C422 0.930 . S
H417 C425 0.930 . S
H418 C426 0.930 . S
H419 C427 0.930 . S
H420 C430 0.930 . S
H421 C431 0.930 . S
C422 H416 0.930 . S
C422 C423 1.355 . S
C422 C424 1.415 . S
C423 C422 1.355 . S
C423 C425 1.419 . S
C424 C422 1.415 . S
C424 C429 1.425 . S
C424 C431 1.409 . S
C425 H417 0.930 . S
C425 C423 1.419 . S
C425 C426 1.362 . S
C426 H418 0.930 . S
C426 C425 1.362 . S
C426 C429 1.409 . S
C427 H419 0.930 . S
C427 C428 1.355 . S
C427 C429 1.415 . S
C428 C427 1.355 . S
C428 C430 1.419 . S
C429 C424 1.425 . S
C429 C426 1.409 . S
C429 C427 1.415 . S
C430 H420 0.930 . S
C430 C428 1.419 . S
C430 C431 1.362 . S
C431 H421 0.930 . S
C431 C424 1.409 . S
C431 C430 1.362 . S
H432 C438 0.930 . S
H433 C441 0.930 . S
H434 C442 0.930 . S
H435 C443 0.930 . S
H436 C446 0.930 . S
H437 C447 0.930 . S
C438 H432 0.930 . S
C438 C439 1.355 . S
C438 C440 1.415 . S
C439 C438 1.355 . S
C439 C441 1.419 . S
C440 C438 1.415 . S
C440 C445 1.425 . S
C440 C447 1.409 . S
C441 H433 0.930 . S
C441 C439 1.419 . S
C441 C442 1.362 . S
C442 H434 0.930 . S
C442 C441 1.362 . S
C442 C445 1.409 . S
C443 H435 0.930 . S
C443 C444 1.355 . S
C443 C445 1.415 . S
C444 C443 1.355 . S
C444 C446 1.419 . S
C445 C440 1.425 . S
C445 C442 1.409 . S
C445 C443 1.415 . S
C446 H436 0.930 . S
C446 C444 1.419 . S
C446 C447 1.362 . S
C447 H437 0.930 . S
C447 C440 1.409 . S
C447 C446 1.362 . S
H448 C454 0.930 . S
H449 C457 0.930 . S
H450 C458 0.930 . S
H451 C459 0.930 . S
H452 C462 0.930 . S
H453 C463 0.930 . S
C454 H448 0.930 . S
C454 C455 1.355 . S
C454 C456 1.415 . S
C455 C454 1.355 . S
C455 C457 1.419 . S
C456 C454 1.415 . S
C456 C461 1.425 . S
C456 C463 1.409 . S
C457 H449 0.930 . S
C457 C455 1.419 . S
C457 C458 1.362 . S
C458 H450 0.930 . S
C458 C457 1.362 . S
C458 C461 1.409 . S
C459 H451 0.930 . S
C459 C460 1.355 . S
C459 C461 1.415 . S
C460 C459 1.355 . S
C460 C462 1.419 . S
C461 C456 1.425 . S
C461 C458 1.409 . S
C461 C459 1.415 . S
C462 H452 0.930 . S
C462 C460 1.419 . S
C462 C463 1.362 . S
C463 H453 0.930 . S
C463 C456 1.409 . S
C463 C462 1.362 . S
H464 C470 0.930 . S
H465 C473 0.930 . S
H466 C474 0.930 . S
H467 C475 0.930 . S
H468 C478 0.930 . S
H469 C479 0.930 . S
C470 H464 0.930 . S
C470 C471 1.355 . S
C470 C472 1.415 . S
C471 C470 1.355 . S
C471 C473 1.419 . S
C472 C470 1.415 . S
C472 C477 1.425 . S
C472 C479 1.409 . S
C473 H465 0.930 . S
C473 C471 1.419 . S
C473 C474 1.362 . S
C474 H466 0.930 . S
C474 C473 1.362 . S
C474 C477 1.409 . S
C475 H467 0.930 . S
C475 C476 1.355 . S
C475 C477 1.415 . S
C476 C475 1.355 . S
C476 C478 1.419 . S
C477 C472 1.425 . S
C477 C474 1.409 . S
C477 C475 1.415 . S
C478 H468 0.930 . S
C478 C476 1.419 . S
C478 C479 1.362 . S
C479 H469 0.930 . S
C479 C472 1.409 . S
C479 C478 1.362 . S
H480 C486 0.930 . S
H481 C489 0.930 . S
H482 C490 0.930 . S
H483 C491 0.930 . S
H484 C494 0.930 . S
H485 C495 0.930 . S
C486 H480 0.930 . S
C486 C487 1.355 . S
C486 C488 1.415 . S
C487 C486 1.355 . S
C487 C489 1.419 . S
C488 C486 1.415 . S
C488 C493 1.425 . S
C488 C495 1.409 . S
C489 H481 0.930 . S
C489 C487 1.419 . S
C489 C490 1.362 . S
C490 H482 0.930 . S
C490 C489 1.362 . S
C490 C493 1.409 . S
C491 H483 0.930 . S
C491 C492 1.355 . S
C491 C493 1.415 . S
C492 C491 1.355 . S
C492 C494 1.419 . S
C493 C488 1.425 . S
C493 C490 1.409 . S
C493 C491 1.415 . S
C494 H484 0.930 . S
C494 C492 1.419 . S
C494 C495 1.362 . S
C495 H485 0.930 . S
C495 C488 1.409 . S
C495 C494 1.362 . S
H496 C502 0.930 . S
H497 C505 0.930 . S
H498 C506 0.930 . S
H499 C507 0.930 . S
H500 C510 0.930 . S
H501 C511 0.930 . S
C502 H496 0.930 . S
C502 C503 1.355 . S
C502 C504 1.415 . S
C503 C502 1.355 . S
C503 C505 1.419 . S
C504 C502 1.415 . S
C504 C509 1.425 . S
C504 C511 1.409 . S
C505 H497 0.930 . S
C505 C503 1.419 . S
C505 C506 1.362 . S
C506 H498 0.930 . S
C506 C505 1.362 . S
C506 C509 1.409 . S
C507 H499 0.930 . S
C507 C508 1.355 . S
C507 C509 1.415 . S
C508 C507 1.355 . S
C508 C510 1.419 . S
C509 C504 1.425 . S
C509 C506 1.409 . S
C509 C507 1.415 . S
C510 H500 0.930 . S
C510 C508 1.419 . S
C510 C511 1.362 . S
C511 H501 0.930 . S
C511 C504 1.409 . S
C511 C510 1.362 . S
H512 C518 0.930 . S
H513 C521 0.930 . S
H514 C522 0.930 . S
H515 C523 0.930 . S
H516 C526 0.930 . S
H517 C527 0.930 . S
C518 H512 0.930 . S
C518 C519 1.355 . S
C518 C520 1.415 . S
C519 C518 1.355 . S
C519 C521 1.419 . S
C520 C518 1.415 . S
C520 C525 1.425 . S
C520 C527 1.409 . S
C521 H513 0.930 . S
C521 C519 1.419 . S
C521 C522 1.362 . S
C522 H514 0.930 . S
C522 C521 1.362 . S
C522 C525 1.409 . S
C523 H515 0.930 . S
C523 C524 1.355 . S
C523 C525 1.415 . S
C524 C523 1.355 . S
C524 C526 1.419 . S
C525 C520 1.425 . S
C525 C522 1.409 . S
C525 C523 1.415 . S
C526 H516 0.930 . S
C526 C524 1.419 . S
C526 C527 1.362 . S
C527 H517 0.930 . S
C527 C520 1.409 . S
C527 C526 1.362 . S
H528 C534 0.930 . S
H529 C537 0.930 . S
H530 C538 0.930 . S
H531 C539 0.930 . S
H532 C542 0.930 . S
H533 C543 0.930 . S
C534 H528 0.930 . S
C534 C535 1.355 . S
C534 C536 1.415 . S
C535 C534 1.355 . S
C535 C537 1.419 . S
C536 C534 1.415 . S
C536 C541 1.425 . S
C536 C543 1.409 . S
C537 H529 0.930 . S
C537 C535 1.419 . S
C537 C538 1.362 . S
C538 H530 0.930 . S
C538 C537 1.362 . S
C538 C541 1.409 . S
C539 H531 0.930 . S
C539 C540 1.355 . S
C539 C541 1.415 . S
C540 C539 1.355 . S
C540 C542 1.419 . S
C541 C536 1.425 . S
C541 C538 1.409 . S
C541 C539 1.415 . S
C542 H532 0.930 . S
C542 C540 1.419 . S
C542 C543 1.362 . S
C543 H533 0.930 . S
C543 C536 1.409 . S
C543 C542 1.362 . S
H544 C550 0.930 . S
H545 C553 0.930 . S
H546 C554 0.930 . S
H547 C555 0.930 . S
H548 C558 0.930 . S
H549 C559 0.930 . S
C550 H544 0.930 . S
C550 C551 1.355 . S
C550 C552 1.415 . S
C551 C550 1.355 . S
C551 C553 1.419 . S
C552 C550 1.415 . S
C552 C557 1.425 . S
C552 C559 1.409 . S
C553 H545 0.930 . S
C553 C551 1.419 . S
C553 C554 1.362 . S
C554 H546 0.930 . S
C554 C553 1.362 . S
C554 C557 1.409 . S
C555 H547 0.930 . S
C555 C556 1.355 . S
C555 C557 1.415 . S
C556 C555 1.355 . S
C556 C558 1.419 . S
C557 C552 1.425 . S
C557 C554 1.409 . S
C557 C555 1.415 . S
C558 H548 0.930 . S
C558 C556 1.419 . S
C558 C559 1.362 . S
C559 H549 0.930 . S
C559 C552 1.409 . S
C559 C558 1.362 . S
C183 C96 1.639 . S
C188 C8 1.678 . S
C199 C19 1.667 . S
C204 C107 1.586 . S
C215 C118 1.585 . S
C220 C30 1.667 . S
C231 C41 1.670 . S
C236 C129 1.592 . S
C247 C52 1.668 . S
C252 C140 1.586 . S
C263 C151 1.645 . S
C268 C63 1.680 . S
C279 C162 1.637 . S
C284 C74 1.680 . S
C295 C173 1.642 . S
C300 C85 1.681 . S
C311 C7 1.609 . S
C316 C62 1.607 . S
C327 C73 1.611 . S
C332 C18 1.589 . S
C343 C84 1.578 . S
C348 C29 1.598 . S
C359 C40 1.581 . S
C364 C51 1.605 . S
C375 C95 1.485 . S
C380 C150 1.523 . S
C391 C161 1.489 . S
C396 C106 1.560 . S
C407 C117 1.544 . S
C412 C172 1.480 . S
C423 C139 1.494 . S
C428 C128 1.510 . S
C439 C137 1.346 . S
C444 C5 1.495 . S
C455 C148 1.321 . S
C460 C16 1.413 . S
C471 C27 1.470 . S
C476 C159 1.312 . S
C487 C170 1.401 . S
C492 C38 1.516 . S
C503 C49 1.450 . S
C508 C93 1.380 . S
C519 C104 1.290 . S
C524 C60 1.447 . S
C535 C115 1.406 . S
C540 C71 1.477 . S
C551 C126 1.406 . S
C556 C82 1.478 . S
