# Generated by pormake.
# Topology qtz-x, (6)-cn, num edge types: 1
# Building blocks:
#     Node 0, Type 0, BuildingBlock: GEDQOX_clean_sbu_0, # of connection points: 6
#     Node 1, Type 0, BuildingBlock: GEDQOX_clean_sbu_0, # of connection points: 6
#     Node 2, Type 0, BuildingBlock: GEDQOX_clean_sbu_0, # of connection points: 6
#     Edge 3, Type (0, 0), BuildingBlock: MIFKUJ_clean_linker_0, # of connection points: 2
#     Edge 4, Type (0, 0), BuildingBlock: MIFKUJ_clean_linker_0, # of connection points: 2
#     Edge 5, Type (0, 0), BuildingBlock: MIFKUJ_clean_linker_0, # of connection points: 2
#     Edge 6, Type (0, 0), BuildingBlock: MIFKUJ_clean_linker_0, # of connection points: 2
#     Edge 7, Type (0, 0), BuildingBlock: MIFKUJ_clean_linker_0, # of connection points: 2
#     Edge 8, Type (0, 0), BuildingBlock: MIFKUJ_clean_linker_0, # of connection points: 2
#     Edge 9, Type (0, 0), BuildingBlock: MIFKUJ_clean_linker_0, # of connection points: 2
#     Edge 10, Type (0, 0), BuildingBlock: MIFKUJ_clean_linker_0, # of connection points: 2
#     Edge 11, Type (0, 0), BuildingBlock: MIFKUJ_clean_linker_0, # of connection points: 2
# Relax obj value: 0.165
# Max RMSD: 0.238
# Mean RMSD: 0.216
data_MOF--net-qtz-x--node1-GEDQOX_clean_sbu_0--edge1-MIFKUJ_clean_linker_0
_symmetry_space_group_name_H-M    P1
_symmetry_Int_Tables_number       1
_symmetry_cell_setting            triclinic
loop_
_symmetry_equiv_pos_as_xyz
'x, y, z'
_cell_length_a     19.130343
_cell_length_b     19.142261
_cell_length_c     66.055152
_cell_angle_alpha  73.969235
_cell_angle_beta   109.85031
_cell_angle_gamma 121.42671
loop_
_atom_site_label
_atom_site_type_symbol
_atom_site_fract_x
_atom_site_fract_y
_atom_site_fract_z
_atom_type_partial_charge
Nd0 Nd 0.13407 0.70283 0.17601 0.0
Nd1 Nd 0.97314 0.57959 0.18886 0.0
C2 C 0.25227 0.82372 0.15652 0.0
C3 C 0.27157 0.84203 0.1352 0.0
C4 C 0.21358 0.84727 0.11564 0.0
C5 C 0.23256 0.86217 0.09568 0.0
C6 C 0.30954 0.87139 0.09483 0.0
C7 C 0.36729 0.86626 0.11448 0.0
C8 C 0.34868 0.85226 0.13438 0.0
C9 C 0.10502 0.54201 0.18262 0.0
C10 C 0.96046 0.62548 0.13791 0.0
C11 C 0.85702 0.45434 0.20841 0.0
C12 C 0.84358 0.42593 0.23071 0.0
C13 C 0.90752 0.42108 0.2486 0.0
C14 C 0.89337 0.39335 0.26951 0.0
C15 C 0.81508 0.37014 0.27311 0.0
C16 C 0.75141 0.3755 0.25513 0.0
C17 C 0.76552 0.40291 0.2342 0.0
C18 C 0.99982 0.73942 0.18143 0.0
C19 C 0.14901 0.66519 0.22671 0.0
O20 O 0.18559 0.82614 0.15687 0.0
O21 O 0.26097 0.76206 0.16956 0.0
O22 O 0.17813 0.6038 0.18887 0.0
O23 O 0.05091 0.56621 0.17277 0.0
O24 O 0.03393 0.69018 0.1437 0.0
O25 O 0.92603 0.56401 0.15252 0.0
O26 O 0.91853 0.45099 0.20491 0.0
O27 O 0.85162 0.5213 0.1985 0.0
O28 O 0.92697 0.67673 0.17528 0.0
O29 O 0.0549 0.71651 0.19165 0.0
O30 O 0.07431 0.60019 0.22165 0.0
O31 O 0.18281 0.72314 0.21153 0.0
H32 H 0.15328 0.83931 0.11571 0.0
H33 H 0.18681 0.8664 0.08094 0.0
H34 H 0.42636 0.87113 0.11455 0.0
H35 H 0.39422 0.84807 0.14921 0.0
H36 H 0.96851 0.43842 0.24647 0.0
H37 H 0.94366 0.38914 0.28282 0.0
H38 H 0.69084 0.35961 0.25722 0.0
H39 H 0.71532 0.40635 0.22069 0.0
Nd40 Nd 0.68133 0.94965 0.5331 0.0
Nd41 Nd 0.76737 0.1424 0.54413 0.0
C42 C 0.65664 0.82202 0.5185 0.0
C43 C 0.61175 0.79444 0.49677 0.0
C44 C 0.65015 0.77589 0.48578 0.0
C45 C 0.61479 0.76274 0.46393 0.0
C46 C 0.54011 0.76758 0.4527 0.0
C47 C 0.50065 0.78401 0.46394 0.0
C48 C 0.53631 0.79779 0.48568 0.0
C49 C 0.56097 -0.00589 0.53009 0.0
C50 C 0.71902 0.10911 0.4937 0.0
C51 C 0.78592 0.27643 0.55396 0.0
C52 C 0.80422 0.30665 0.57441 0.0
C53 C 0.74684 0.26591 0.58778 0.0
C54 C 0.76732 0.29279 0.60763 0.0
C55 C 0.84578 0.36061 0.61463 0.0
C56 C 0.90258 0.40175 0.60108 0.0
C57 C 0.88177 0.37532 0.58115 0.0
C58 C 0.88819 0.09744 0.5478 0.0
C59 C 0.7324 0.98514 0.58376 0.0
O60 O 0.72592 0.89265 0.51882 0.0
O61 O 0.61076 0.81524 0.5306 0.0
O62 O 0.54204 0.92225 0.52639 0.0
O63 O 0.64009 0.03688 0.53432 0.0
O64 O 0.69241 0.02896 0.49985 0.0
O65 O 0.74727 0.16358 0.5071 0.0
O66 O 0.71217 0.21284 0.54824 0.0
O67 O 0.84743 0.27273 0.55056 0.0
O68 O 0.9066 0.16858 0.55191 0.0
O69 O 0.80895 0.05503 0.54281 0.0
O70 O 0.74773 0.06284 0.57686 0.0
O71 O 0.71376 0.93226 0.57076 0.0
H72 H 0.70904 0.77431 0.49389 0.0
H73 H 0.64632 0.74959 0.45576 0.0
H74 H 0.44378 0.78935 0.45569 0.0
H75 H 0.50631 0.81396 0.49356 0.0
H76 H 0.68637 0.21278 0.58306 0.0
H77 H 0.72139 0.26049 0.61744 0.0
H78 H 0.96402 0.45342 0.60604 0.0
H79 H 0.92712 0.40772 0.57117 0.0
Nd80 Nd 0.86013 0.74703 0.86311 0.0
Nd81 Nd 0.71974 0.78422 0.85748 0.0
C82 C 0.99086 0.7406 0.86024 0.0
C83 C 0.99791 0.7039 0.84476 0.0
C84 C 0.0768 0.72683 0.8419 0.0
C85 C 0.08189 0.69381 0.82631 0.0
C86 C 1.00807 0.63709 0.81358 0.0
C87 C 0.92931 0.61418 0.81664 0.0
C88 C 0.92428 0.64755 0.83203 0.0
C89 C 0.704 0.61039 0.86082 0.0
C90 C 0.76012 0.79171 0.81346 0.0
C91 C 0.5877 0.7875 0.86107 0.0
C92 C 0.56353 0.80184 0.87806 0.0
C93 C 0.49994 0.7361 0.88788 0.0
C94 C 0.47726 0.74833 0.90415 0.0
C95 C 0.51729 0.82684 0.91089 0.0
C96 C 0.5803 0.89279 0.90086 0.0
C97 C 0.60317 0.88049 0.88465 0.0
C98 C 0.87616 0.92039 0.85918 0.0
C99 C 0.8201 0.7379 0.90662 0.0
O100 O 0.9781 0.80465 0.85204 0.0
O101 O 0.94191 0.68796 0.87321 0.0
O102 O 0.77285 0.61109 0.87351 0.0
O103 O 0.71918 0.67841 0.84907 0.0
O104 O 0.83077 0.7928 0.82638 0.0
O105 O 0.69845 0.77651 0.82158 0.0
O106 O 0.59286 0.71954 0.86439 0.0
O107 O 0.64787 0.85065 0.85263 0.0
O108 O 0.8073 0.91925 0.84628 0.0
O109 O 0.86076 0.85308 0.87131 0.0
O110 O 0.74739 0.73193 0.89385 0.0
O111 O 0.88393 0.76112 0.8984 0.0
H112 H 0.13412 0.7708 0.85151 0.0
H113 H 0.14329 0.7126 0.82417 0.0
H114 H 0.87138 0.57215 0.80671 0.0
H115 H 0.86272 0.63017 0.8338 0.0
H116 H 0.46812 0.67487 0.8831 0.0
H117 H 0.4294 0.6958 0.91172 0.0
H118 H 0.61167 0.95431 0.9054 0.0
H119 H 0.65211 0.93276 0.87737 0.0
H120 H 0.88587 0.79666 0.16125 0.0
H121 H 0.90332 0.93286 0.1612 0.0
H122 H 0.15793 0.00723 0.19987 0.0
H123 H 0.14062 0.87078 0.20003 0.0
H124 H 0.07223 0.05036 0.21549 0.0
H125 H 0.12186 0.07709 0.14663 0.0
H126 H 0.08934 0.03723 0.11079 0.0
H127 H 0.86471 0.06274 0.09109 0.0
H128 H 0.89522 0.10154 0.12696 0.0
H129 H 0.2168 0.48206 0.20242 0.0
H130 H 0.1967 0.34518 0.20205 0.0
H131 H 0.94305 0.27554 0.16314 0.0
H132 H 0.96302 0.41278 0.16342 0.0
H133 H 0.02608 0.22921 0.14754 0.0
H134 H 0.97569 0.20285 0.216 0.0
H135 H 1.00652 0.2418 0.25185 0.0
H136 H 0.23023 0.2144 0.27231 0.0
H137 H 0.20143 0.17651 0.23644 0.0
C138 C 0.9457 0.84218 0.16966 0.0
C139 C 1.01187 0.82305 0.18065 0.0
C140 C 0.95569 0.92012 0.16957 0.0
C141 C 0.03213 0.98064 0.18043 0.0
C142 C 0.09837 0.96161 0.1914 0.0
C143 C 0.08853 0.88375 0.1914 0.0
C144 C 0.04246 0.06327 0.1806 0.0
C145 C 0.06332 0.08995 0.20063 0.0
C146 C 0.02858 0.11412 0.16122 0.0
C147 C 1.0104 0.09143 0.13957 0.0
C148 C 0.06517 0.07357 0.13472 0.0
C149 C 0.04716 0.05126 0.11439 0.0
C150 C 0.97489 0.04724 0.09869 0.0
C151 C 0.92061 0.06577 0.10328 0.0
C152 C 0.93826 0.08798 0.1236 0.0
C153 C 0.15662 0.43746 0.19386 0.0
C154 C 0.09147 0.4581 0.18298 0.0
C155 C 0.14511 0.35914 0.1937 0.0
C156 C 0.06814 0.29968 0.18268 0.0
C157 C 1.00298 0.3203 0.17175 0.0
C158 C 1.01433 0.39859 0.172 0.0
C159 C 0.05621 0.21645 0.18244 0.0
C160 C 0.03498 0.18961 0.1624 0.0
C161 C 0.06952 0.16533 0.20181 0.0
C162 C 0.08684 0.18764 0.22345 0.0
C163 C 0.03184 0.20578 0.22808 0.0
C164 C 0.04888 0.22756 0.24841 0.0
C165 C 0.12041 0.23078 0.26433 0.0
C166 C 0.17492 0.212 0.25995 0.0
C167 C 0.15823 0.1903 0.23963 0.0
H168 H 0.13351 0.24766 0.28006 0.0
H169 H 0.96104 0.02995 0.08295 0.0
H170 H 0.39992 0.93726 0.50652 0.0
H171 H 0.28804 0.9566 0.50994 0.0
H172 H 0.464 0.11304 0.55993 0.0
H173 H 0.57598 0.09171 0.55683 0.0
H174 H 0.31733 0.0018 0.57158 0.0
H175 H 0.39213 0.19436 0.50902 0.0
H176 H 0.42233 0.24221 0.47278 0.0
H177 H 0.17072 0.06546 0.44496 0.0
H178 H 0.13934 0.0157 0.4811 0.0
H179 H 0.04802 0.15418 0.57252 0.0
H180 H 0.1618 0.13501 0.57024 0.0
H181 H 0.99056 0.97776 0.52015 0.0
H182 H 0.87694 -0.00141 0.52217 0.0
H183 H 0.13653 0.09133 0.50882 0.0
H184 H 0.06175 0.89868 0.57142 0.0
H185 H 0.03188 0.85014 0.60769 0.0
H186 H 0.28355 0.02677 0.63552 0.0
H187 H 0.3146 0.07726 0.59935 0.0
C188 C 0.41516 0.97697 0.51799 0.0
C189 C 0.49748 0.01507 0.53094 0.0
C190 C 0.35106 -0.01188 0.51991 0.0
C191 C 0.36737 0.03738 0.53496 0.0
C192 C 0.44977 0.0755 0.54801 0.0
C193 C 0.51429 0.06463 0.54597 0.0
C194 C 0.29733 0.04593 0.53749 0.0
C195 C 0.27875 0.02277 0.55792 0.0
C196 C 0.24505 0.07096 0.51959 0.0
C197 C 0.26364 0.10078 0.49781 0.0
C198 C 0.34344 0.16522 0.49521 0.0
C199 C 0.36073 0.19278 0.47468 0.0
C200 C 0.29855 0.15676 0.45659 0.0
C201 C 0.21886 0.09323 0.45899 0.0
C202 C 0.20125 0.06538 0.47949 0.0
C203 C 0.03418 0.11423 0.56129 0.0
C204 C 0.9527 0.07602 0.54791 0.0
C205 C 0.09939 0.10318 0.56002 0.0
C206 C 0.08502 0.05405 0.5452 0.0
C207 C 1.00334 0.01532 0.53188 0.0
C208 C 0.93781 0.02599 0.53328 0.0
C209 C 0.15629 0.04696 0.5429 0.0
C210 C 0.17514 0.07046 0.5225 0.0
C211 C 0.20879 0.0223 0.56084 0.0
C212 C 0.19019 -0.00761 0.58261 0.0
C213 C 0.11048 0.92776 0.58523 0.0
C214 C 0.09339 0.89976 0.60579 0.0
C215 C 0.15569 0.93552 0.62389 0.0
C216 C 0.23529 -0.00077 0.62148 0.0
C217 C 0.25269 0.02753 0.60095 0.0
H218 H 0.14234 0.91371 0.63979 0.0
H219 H 0.31206 0.1782 0.44071 0.0
H220 H 0.02614 0.9328 0.88563 0.0
H221 H 0.16734 0.0496 0.88542 0.0
H222 H 0.05922 0.18276 0.83269 0.0
H223 H 0.91822 0.06606 0.8327 0.0
H224 H 0.19904 0.19488 0.82598 0.0
H225 H 0.12294 0.22984 0.8835 0.0
H226 H 0.07645 0.18961 0.91739 0.0
H227 H 0.28952 0.14939 0.95238 0.0
H228 H 0.33652 0.18809 0.91863 0.0
H229 H 0.55466 0.59587 0.83337 0.0
H230 H 0.41403 0.47685 0.83267 0.0
H231 H 0.52202 0.34502 0.88596 0.0
H232 H 0.66246 0.46382 0.88678 0.0
H233 H 0.38267 0.33196 0.89215 0.0
H234 H 0.46077 0.29553 0.836 0.0
H235 H 0.51229 0.33738 0.80286 0.0
H236 H 0.30068 0.37772 0.766 0.0
H237 H 0.24874 0.33714 0.79899 0.0
C238 C 0.03262 -0.01289 0.87403 0.0
C239 C 0.96132 -0.00927 0.85928 0.0
C240 C 0.11321 0.05379 0.87394 0.0
C241 C 0.1238 0.12526 0.85914 0.0
C242 C 0.05262 0.12835 0.84422 0.0
C243 C 0.97207 0.0618 0.84433 0.0
C244 C 0.209 0.19703 0.85932 0.0
C245 C 0.23882 0.22551 0.84036 0.0
C246 C 0.26172 0.23569 0.87824 0.0
C247 C 0.2328 0.21114 0.8985 0.0
C248 C 0.15938 0.21158 0.89838 0.0
C249 C 0.13301 0.18917 0.91757 0.0
C250 C 0.17989 0.16682 0.93702 0.0
C251 C 0.25314 0.16656 0.93731 0.0
C252 C 0.2797 0.18877 0.91815 0.0
C253 C 0.54828 0.54133 0.84487 0.0
C254 C 0.61931 0.53873 0.86006 0.0
C255 C 0.46807 0.47338 0.84442 0.0
C256 C 0.45771 0.40182 0.85915 0.0
C257 C 0.52863 0.39956 0.87444 0.0
C258 C 0.60878 0.46729 0.87484 0.0
C259 C 0.37277 0.32966 0.85886 0.0
C260 C 0.34297 0.30121 0.87778 0.0
C261 C 0.32053 0.29058 0.83998 0.0
C262 C 0.35117 0.31409 0.82003 0.0
C263 C 0.42554 0.31391 0.82086 0.0
C264 C 0.45483 0.3373 0.80209 0.0
C265 C 0.40994 0.36042 0.78234 0.0
C266 C 0.3355 0.3599 0.78131 0.0
C267 C 0.30605 0.33662 0.80004 0.0
H268 H 0.43272 0.37857 0.76783 0.0
H269 H 0.15966 0.15013 0.95187 0.0
H270 H 0.62319 0.92367 0.94357 0.0
H271 H 0.58703 0.94132 0.97318 0.0
H272 H 0.32484 0.77531 0.94858 0.0
H273 H 0.36018 0.75882 0.91849 0.0
H274 H 0.34349 0.90988 0.96089 0.0
H275 H 0.42705 0.6942 1.00011 0.0
H276 H 0.51857 0.62811 1.01334 0.0
H277 H 0.7322 0.85713 0.03283 0.0
H278 H 0.64076 0.92342 1.02065 0.0
H279 H 0.20065 0.80312 0.05753 0.0
H280 H 0.23559 0.80981 1.02461 0.0
H281 H 0.49679 0.97397 0.05087 0.0
H282 H 0.46238 0.96745 0.08392 0.0
H283 H 0.48055 0.84704 0.03703 0.0
H284 H 0.3732 0.03962 1.00873 0.0
H285 H 0.26858 0.08775 1.00079 0.0
H286 H 0.09165 0.89745 0.95989 0.0
H287 H 0.19403 0.84625 0.96806 0.0
C288 C 0.55765 0.89144 0.94427 0.0
C289 C 0.4947 0.83948 0.92862 0.0
C290 C 0.5372 0.90087 0.9614 0.0
C291 C 0.45337 0.8587 0.96331 0.0
C292 C 0.39004 0.80812 0.94751 0.0
C293 C 0.41048 0.79832 0.9304 0.0
C294 C 0.43206 0.8678 0.98175 0.0
C295 C 0.37278 0.89548 0.97756 0.0
C296 C 0.47138 0.85084 1.00347 0.0
C297 C 0.52766 0.81379 1.00922 0.0
C298 C 0.49373 0.7305 1.00703 0.0
C299 C 0.54536 0.69291 1.01451 0.0
C300 C 0.6313 0.73867 1.0237 0.0
C301 C 0.66569 0.82194 1.02562 0.0
C302 C 0.6139 0.85933 1.01864 0.0
C303 C 0.26532 0.84152 0.05627 0.0
C304 C 0.32885 0.88318 0.07369 0.0
C305 C 0.28519 0.8456 0.03733 0.0
C306 C 0.36887 0.89244 0.03525 0.0
C307 C 0.43184 0.93698 0.05218 0.0
C308 C 0.41207 0.9327 0.07114 0.0
C309 C 0.39205 0.8894 1.01632 0.0
C310 C 0.4517 0.86258 1.0204 0.0
C311 C 0.35242 0.90685 0.99459 0.0
C312 C 0.2911 0.93841 0.98925 0.0
C313 C 0.31164 0.00736 0.99822 0.0
C314 C 0.25262 0.03508 0.99371 0.0
C315 C 0.17316 -0.00496 0.98002 0.0
C316 C 0.15289 0.92777 0.97064 0.0
C317 C 0.21139 0.89935 0.97522 0.0
H318 H 0.12739 0.01633 0.9766 0.0
H319 H 0.67108 0.70947 0.02947 0.0
H320 H 0.8425 0.24748 0.4773 0.0
H321 H 0.85303 0.28992 0.43958 0.0
H322 H 0.60814 0.08278 0.42017 0.0
H323 H 0.60143 0.03662 0.45823 0.0
H324 H 0.69459 0.09209 0.39857 0.0
H325 H 0.6571 0.30323 0.41095 0.0
H326 H 0.68473 0.41355 0.42959 0.0
H327 H 0.93535 0.55556 0.4193 0.0
H328 H 0.9096 0.44565 0.40084 0.0
H329 H 0.66975 0.24828 0.28571 0.0
H330 H 0.64535 0.20341 0.32221 0.0
H331 H 0.90267 0.37819 0.34796 0.0
H332 H 0.92637 0.42629 0.31145 0.0
H333 H 0.80012 0.38355 0.36511 0.0
H334 H 0.82539 0.16104 0.35144 0.0
H335 H 0.7851 0.04714 0.33215 0.0
H336 H 0.53651 0.92317 0.34334 0.0
H337 H 0.5749 0.03686 0.36241 0.0
C338 C 0.79059 0.21169 0.46491 0.0
C339 C 0.7208 0.13931 0.47062 0.0
C340 C 0.79625 0.23626 0.44325 0.0
C341 C 0.73048 0.19102 0.42666 0.0
C342 C 0.65995 0.11918 0.43246 0.0
C343 C 0.65575 0.09301 0.45422 0.0
C344 C 0.73686 0.21626 0.40349 0.0
C345 C 0.71618 0.15575 0.3912 0.0
C346 C 0.76603 0.29939 0.39367 0.0
C347 C 0.78159 0.36586 0.40466 0.0
C348 C 0.71826 0.35778 0.41277 0.0
C349 C 0.73358 0.42027 0.42329 0.0
C350 C 0.8118 0.49143 0.42567 0.0
C351 C 0.87481 0.50037 0.41747 0.0
C352 C 0.85985 0.43805 0.40695 0.0
C353 C 0.72107 0.27785 0.29908 0.0
C354 C 0.80021 0.34104 0.29549 0.0
C355 C 0.70725 0.25124 0.32005 0.0
C356 C 0.77247 0.28641 0.33799 0.0
C357 C 0.85134 0.34961 0.33445 0.0
C358 C 0.86507 0.37659 0.31351 0.0
C359 C 0.75859 0.25957 0.3604 0.0
C360 C 0.77787 0.31988 0.37251 0.0
C361 C 0.72583 0.17594 0.36982 0.0
C362 C 0.70278 0.10809 0.35812 0.0
C363 C 0.7619 0.10994 0.34959 0.0
C364 C 0.73943 0.04529 0.33874 0.0
C365 C 0.65823 0.97811 0.33646 0.0
C366 C 0.59932 0.97533 0.34506 0.0
C367 C 0.62142 0.03985 0.3559 0.0
H368 H 0.64104 0.92814 0.32807 0.0
H369 H 0.82355 0.53971 0.43383 0.0
H370 H 0.61921 0.7772 0.78071 0.0
H371 H 0.60546 0.79961 0.74144 0.0
H372 H 0.86699 0.86507 0.75277 0.0
H373 H 0.88045 0.84063 0.79176 0.0
H374 H 0.67486 0.92823 0.71387 0.0
H375 H 0.9035 0.81572 0.71561 0.0
H376 H 0.95276 0.71638 0.738 0.0
H377 H 0.71597 0.56394 0.75615 0.0
H378 H 0.66554 0.66307 0.73397 0.0
H379 H 0.80354 0.082 0.61615 0.0
H380 H 0.80028 0.04016 0.6542 0.0
H381 H 0.66238 0.78446 0.64345 0.0
H382 H 0.6674 0.82622 0.60508 0.0
H383 H 0.77246 0.8005 0.68098 0.0
H384 H 0.56557 0.89225 0.64747 0.0
H385 H 0.51084 -0.01184 0.6254 0.0
H386 H 0.68367 0.16742 0.66975 0.0
H387 H 0.74112 0.07358 0.69177 0.0
C388 C 0.6737 0.79607 0.77483 0.0
C389 C 0.75076 0.80647 0.78951 0.0
C390 C 0.66581 0.80907 0.75233 0.0
C391 C 0.73472 0.83273 0.74397 0.0
C392 C 0.81209 0.8448 0.75864 0.0
C393 C 0.81983 0.83121 0.78106 0.0
C394 C 0.72659 0.84586 0.72 0.0
C395 C 0.69593 0.90005 0.70669 0.0
C396 C 0.75239 0.80809 0.71036 0.0
C397 C 0.78095 0.74687 0.72318 0.0
C398 C 0.86177 0.76072 0.72426 0.0
C399 C 0.88997 0.70456 0.73699 0.0
C400 C 0.83739 0.63362 0.74843 0.0
C401 C 0.7566 0.61891 0.74727 0.0
C402 C 0.7283 0.67522 0.73469 0.0
C403 C 0.77257 0.01666 0.62176 0.0
C404 C 0.73492 0.95751 0.60735 0.0
C405 C 0.77037 -0.0072 0.64363 0.0
C406 C 0.72908 0.9091 0.65175 0.0
C407 C 0.69398 0.84953 0.63762 0.0
C408 C 0.69693 0.87345 0.61565 0.0
C409 C 0.72274 0.88462 0.6749 0.0
C410 C 0.75069 0.82827 0.68808 0.0
C411 C 0.6931 0.91954 0.68432 0.0
C412 C 0.65811 0.97596 0.6712 0.0
C413 C 0.59242 0.95237 0.65243 0.0
C414 C 0.56099 0.00645 0.6399 0.0
C415 C 0.59407 0.084 0.64611 0.0
C416 C 0.65843 0.10751 0.6649 0.0
C417 C 0.69046 0.05389 0.6774 0.0
H418 H 0.56967 0.12577 0.63639 0.0
H419 H 0.85907 0.59 0.75819 0.0
H420 H 0.69776 0.6235 0.92774 0.0
H421 H 0.71129 0.58529 0.96679 0.0
H422 H 0.97457 0.76684 0.9783 0.0
H423 H 0.96229 0.80022 0.93898 0.0
H424 H 0.95765 0.6392 1.00727 0.0
H425 H 0.80544 0.80448 0.98329 0.0
H426 H 0.68894 0.82903 0.95809 0.0
H427 H 0.50947 0.58085 0.97624 0.0
H428 H 0.62488 0.55544 1.00182 0.0
H429 H 0.95339 0.75056 0.10732 0.0
H430 H 0.91413 0.75308 0.0679 0.0
H431 H 0.84945 0.49663 0.0758 0.0
H432 H 0.8862 0.49315 0.1155 0.0
H433 H 0.75969 0.64997 0.03765 0.0
H434 H 0.95424 0.50546 0.03527 0.0
H435 H 0.06872 0.47519 0.05907 0.0
H436 H 0.1645 0.67981 0.09335 0.0
H437 H 0.05263 0.71314 0.06931 0.0
C438 C 0.75851 0.65531 0.93861 0.0
C439 C 0.82875 0.71595 0.93036 0.0
C440 C 0.76616 0.63378 0.961 0.0
C441 C 0.84332 0.67505 0.9757 0.0
C442 C 0.91412 0.73437 0.96741 0.0
C443 C 0.90706 0.75392 0.94496 0.0
C444 C 0.84963 0.65856 0.9996 0.0
C445 C 0.9142 0.6415 1.01385 0.0
C446 C 0.79285 0.66074 1.00842 0.0
C447 C 0.72348 0.67821 0.99442 0.0
C448 C 0.74098 0.75558 0.98205 0.0
C449 C 0.67518 0.76958 0.96771 0.0
C450 C 0.59184 0.70653 0.9656 0.0
C451 C 0.57405 0.62957 0.97791 0.0
C452 C 0.63947 0.6156 0.99248 0.0
C453 C 0.92855 0.6941 0.10064 0.0
C454 C 0.92215 0.6215 0.11441 0.0
C455 C 0.90618 0.69562 0.07813 0.0
C456 C 0.8794 0.62525 0.06892 0.0
C457 C 0.86996 0.55159 0.0826 0.0
C458 C 0.8904 0.54951 0.10522 0.0
C459 C 0.86804 0.63195 0.04517 0.0
C460 C 0.80267 0.64733 0.03099 0.0
C461 C 0.92415 0.62814 0.0365 0.0
C462 C 0.99387 0.61084 0.05069 0.0
C463 C 0.99998 0.54429 0.04781 0.0
C464 C 0.06459 0.52673 0.06131 0.0
C465 C 0.1236 0.57533 0.07777 0.0
C466 C 0.11845 0.64192 0.08067 0.0
C467 C 0.0544 0.66018 0.06709 0.0
H468 H 0.17345 0.56153 0.08824 0.0
H469 H 0.5409 0.71702 0.95446 0.0
H470 H 0.31385 0.77173 0.24321 0.0
H471 H 0.38569 0.79228 0.28124 0.0
H472 H 0.15648 0.6045 0.30049 0.0
H473 H 0.08422 0.58288 0.2625 0.0
H474 H 0.23866 0.75551 0.31913 0.0
H475 H 0.30538 0.55781 0.30863 0.0
H476 H 0.36158 0.50861 0.29029 0.0
H477 H 0.60511 0.72021 0.30445 0.0
H478 H 0.54998 0.77124 0.32263 0.0
H479 H 0.37513 0.67954 0.43195 0.0
H480 H 0.31575 0.66839 0.39319 0.0
H481 H 0.56474 0.82417 0.38137 0.0
H482 H 0.62466 0.83494 0.42027 0.0
H483 H 0.48073 0.70074 0.35788 0.0
H484 H 0.42546 0.89975 0.36864 0.0
H485 H 0.37732 0.96095 0.38582 0.0
H486 H 0.12372 0.76532 0.3697 0.0
H487 H 0.17057 0.70225 0.35268 0.0
C488 C 0.27873 0.73451 0.25553 0.0
C489 C 0.1933 0.67552 0.24981 0.0
C490 C 0.31999 0.74627 0.27725 0.0
C491 C 0.27646 0.6998 0.29367 0.0
C492 C 0.19117 0.64101 0.28804 0.0
C493 C 0.15012 0.62844 0.26634 0.0
C494 C 0.31957 0.71313 0.31671 0.0
C495 C 0.29084 0.74249 0.32772 0.0
C496 C 0.3901 0.69975 0.32757 0.0
C497 C 0.42333 0.66878 0.31677 0.0
C498 C 0.37072 0.5942 0.30767 0.0
C499 C 0.40242 0.5659 0.29734 0.0
C500 C 0.4868 0.61137 0.29615 0.0
C501 C 0.53973 0.68512 0.30535 0.0
C502 C 0.50831 0.71372 0.31568 0.0
C503 C 0.41723 0.71167 0.42109 0.0
C504 C 0.50457 0.75826 0.42919 0.0
C505 C 0.38321 0.70544 0.39891 0.0
C506 C 0.43554 0.74654 0.38425 0.0
C507 C 0.52302 0.792 0.39232 0.0
C508 C 0.55721 0.79784 0.41457 0.0
C509 C 0.39847 0.74117 0.36059 0.0
C510 C 0.42863 0.71391 0.34936 0.0
C511 C 0.33037 0.75824 0.34937 0.0
C512 C 0.30169 0.79586 0.35956 0.0
C513 C 0.35953 0.8694 0.36891 0.0
C514 C 0.33246 0.90451 0.37859 0.0
C515 C 0.24754 0.86694 0.3789 0.0
C516 C 0.18949 0.79429 0.36947 0.0
C517 C 0.21625 0.75888 0.35978 0.0
H518 H 0.22669 0.89422 0.3864 0.0
H519 H 0.51123 0.58936 0.28815 0.0
H520 H 0.92397 0.47779 0.80491 0.0
H521 H 0.91079 0.42894 0.77259 0.0
H522 H 0.08557 0.6752 0.75051 0.0
H523 H 0.09804 0.72469 0.78267 0.0
H524 H 0.92954 0.60518 0.72084 0.0
H525 H 0.14404 0.52841 0.76574 0.0
H526 H 0.20201 0.45978 0.79916 0.0
H527 H 0.98526 0.22573 0.78519 0.0
H528 H 0.92547 0.29307 0.75177 0.0
H529 H 0.93476 0.51886 0.62505 0.0
H530 H 0.97423 0.56319 0.66025 0.0
H531 H 0.84372 0.30965 0.6876 0.0
H532 H 0.80995 0.26444 0.65281 0.0
H533 H 0.98008 0.38274 0.7154 0.0
H534 H 0.76065 0.44822 0.6729 0.0
H535 H 0.68264 0.5085 0.64247 0.0
H536 H 0.88467 0.75212 0.65403 0.0
H537 H 0.96471 0.69331 0.68428 0.0
C538 C 0.96068 0.52112 0.79333 0.0
C539 C 1.01161 0.60507 0.79617 0.0
C540 C 0.95352 0.49309 0.77497 0.0
C541 C 0.99725 0.54856 0.75921 0.0
C542 C 0.05153 0.63154 0.76256 0.0
C543 C 0.05898 0.65958 0.78097 0.0
C544 C 0.97952 0.52178 0.73826 0.0
C545 C 0.94222 0.55788 0.71952 0.0
C546 C 0.99218 0.45703 0.73686 0.0
C547 C 0.02999 0.41591 0.75635 0.0
C548 C 0.10862 0.46234 0.76982 0.0
C549 C 0.14173 0.42371 0.78877 0.0
C550 C 0.09698 0.33861 0.79436 0.0
C551 C 1.01962 0.29172 0.78086 0.0
C552 C 0.9862 0.33006 0.76189 0.0
C553 C 0.91543 0.47231 0.6386 0.0
C554 C 0.86856 0.38796 0.63601 0.0
C555 C 0.93707 0.4979 0.65869 0.0
C556 C 0.91056 0.43995 0.67652 0.0
C557 C 0.86454 0.35565 0.67407 0.0
C558 C 0.84415 0.32992 0.65406 0.0
C559 C 0.93108 0.4674 0.6977 0.0
C560 C 0.96825 0.43093 0.71656 0.0
C561 C 0.91623 0.53064 0.69933 0.0
C562 C 0.86928 0.56619 0.68069 0.0
C563 C 0.78901 0.5146 0.66878 0.0
C564 C 0.7443 0.54854 0.65159 0.0
C565 C 0.77881 0.63407 0.64627 0.0
C566 C 0.85813 0.68586 0.65812 0.0
C567 C 0.90323 0.65225 0.67528 0.0
H568 H 0.74396 0.66023 0.63301 0.0
H569 H 0.12255 0.30904 0.80911 0.0
loop_
_geom_bond_atom_site_label_1
_geom_bond_atom_site_label_2
_geom_bond_distance
_geom_bond_site_symmetry_2
_ccdc_geom_bond_type
Nd0 C2 2.836 . S
Nd0 O20 2.500 . S
Nd0 O21 2.492 . S
Nd0 O22 2.487 . S
Nd0 O23 2.682 1_455 S
Nd0 O24 2.410 1_455 S
Nd0 O29 2.414 . S
Nd0 O31 2.424 . S
Nd1 C11 2.836 . S
Nd1 O23 2.414 . S
Nd1 O25 2.424 . S
Nd1 O26 2.500 . S
Nd1 O27 2.492 . S
Nd1 O28 2.487 . S
Nd1 O29 2.682 1_655 S
Nd1 O30 2.410 1_655 S
C2 Nd0 2.836 . S
C2 C3 1.498 . S
C2 O20 1.258 . S
C2 O21 1.239 . S
C3 C2 1.498 . S
C3 C4 1.366 . S
C3 C8 1.407 . S
C4 C3 1.366 . S
C4 C5 1.392 . S
C4 H32 0.930 . S
C5 C4 1.392 . S
C5 C6 1.398 . S
C5 H33 0.929 . S
C6 C5 1.398 . S
C6 C7 1.352 . S
C7 C6 1.352 . S
C7 C8 1.384 . S
C7 H34 0.930 . S
C8 C3 1.407 . S
C8 C7 1.384 . S
C8 H35 0.929 . S
C9 O22 1.241 . S
C9 O23 1.273 1_455 S
C10 O24 1.251 . S
C10 O25 1.268 . S
C11 Nd1 2.836 . S
C11 C12 1.498 . S
C11 O26 1.258 . S
C11 O27 1.239 . S
C12 C11 1.498 . S
C12 C13 1.366 . S
C12 C17 1.407 . S
C13 C12 1.366 . S
C13 C14 1.392 . S
C13 H36 0.930 . S
C14 C13 1.392 . S
C14 C15 1.398 . S
C14 H37 0.929 . S
C15 C14 1.398 . S
C15 C16 1.352 . S
C16 C15 1.352 . S
C16 C17 1.384 . S
C16 H38 0.930 . S
C17 C12 1.407 . S
C17 C16 1.384 . S
C17 H39 0.929 . S
C18 O28 1.241 . S
C18 O29 1.273 1_655 S
C19 O30 1.251 . S
C19 O31 1.268 . S
O20 Nd0 2.500 . S
O20 C2 1.258 . S
O21 Nd0 2.492 . S
O21 C2 1.239 . S
O22 Nd0 2.487 . S
O22 C9 1.241 . S
O23 Nd0 2.682 1_655 S
O23 Nd1 2.414 . S
O23 C9 1.273 1_655 S
O24 Nd0 2.410 1_655 S
O24 C10 1.251 . S
O25 Nd1 2.424 . S
O25 C10 1.268 . S
O26 Nd1 2.500 . S
O26 C11 1.258 . S
O27 Nd1 2.492 . S
O27 C11 1.239 . S
O28 Nd1 2.487 . S
O28 C18 1.241 . S
O29 Nd0 2.414 . S
O29 Nd1 2.682 1_455 S
O29 C18 1.273 1_455 S
O30 Nd1 2.410 1_455 S
O30 C19 1.251 . S
O31 Nd0 2.424 . S
O31 C19 1.268 . S
H32 C4 0.930 . S
H33 C5 0.929 . S
H34 C7 0.930 . S
H35 C8 0.929 . S
H36 C13 0.930 . S
H37 C14 0.929 . S
H38 C16 0.930 . S
H39 C17 0.929 . S
Nd40 C42 2.836 . S
Nd40 O60 2.500 . S
Nd40 O61 2.492 . S
Nd40 O62 2.487 . S
Nd40 O63 2.682 1_565 S
Nd40 O64 2.410 1_565 S
Nd40 O69 2.414 . S
Nd40 O71 2.424 . S
Nd41 C51 2.836 . S
Nd41 O63 2.414 . S
Nd41 O65 2.424 . S
Nd41 O66 2.500 . S
Nd41 O67 2.492 . S
Nd41 O68 2.487 . S
Nd41 O69 2.682 1_545 S
Nd41 O70 2.410 . S
C42 Nd40 2.836 . S
C42 C43 1.498 . S
C42 O60 1.258 . S
C42 O61 1.239 . S
C43 C42 1.498 . S
C43 C44 1.366 . S
C43 C48 1.407 . S
C44 C43 1.366 . S
C44 C45 1.392 . S
C44 H72 0.930 . S
C45 C44 1.392 . S
C45 C46 1.398 . S
C45 H73 0.929 . S
C46 C45 1.398 . S
C46 C47 1.352 . S
C47 C46 1.352 . S
C47 C48 1.384 . S
C47 H74 0.930 . S
C48 C43 1.407 . S
C48 C47 1.384 . S
C48 H75 0.929 . S
C49 O62 1.241 . S
C49 O63 1.273 1_565 S
C50 O64 1.251 . S
C50 O65 1.268 . S
C51 Nd41 2.836 . S
C51 C52 1.498 . S
C51 O66 1.258 . S
C51 O67 1.239 . S
C52 C51 1.498 . S
C52 C53 1.366 . S
C52 C57 1.407 . S
C53 C52 1.366 . S
C53 C54 1.392 . S
C53 H76 0.930 . S
C54 C53 1.392 . S
C54 C55 1.398 . S
C54 H77 0.929 . S
C55 C54 1.398 . S
C55 C56 1.352 . S
C56 C55 1.352 . S
C56 C57 1.384 . S
C56 H78 0.930 . S
C57 C52 1.407 . S
C57 C56 1.384 . S
C57 H79 0.929 . S
C58 O68 1.241 . S
C58 O69 1.273 1_545 S
C59 O70 1.251 1_565 S
C59 O71 1.268 . S
O60 Nd40 2.500 . S
O60 C42 1.258 . S
O61 Nd40 2.492 . S
O61 C42 1.239 . S
O62 Nd40 2.487 . S
O62 C49 1.241 . S
O63 Nd40 2.682 1_545 S
O63 Nd41 2.414 . S
O63 C49 1.273 1_545 S
O64 Nd40 2.410 1_545 S
O64 C50 1.251 . S
O65 Nd41 2.424 . S
O65 C50 1.268 . S
O66 Nd41 2.500 . S
O66 C51 1.258 . S
O67 Nd41 2.492 . S
O67 C51 1.239 . S
O68 Nd41 2.487 . S
O68 C58 1.241 . S
O69 Nd40 2.414 . S
O69 Nd41 2.682 1_565 S
O69 C58 1.273 1_565 S
O70 Nd41 2.410 . S
O70 C59 1.251 1_545 S
O71 Nd40 2.424 . S
O71 C59 1.268 . S
H72 C44 0.930 . S
H73 C45 0.929 . S
H74 C47 0.930 . S
H75 C48 0.929 . S
H76 C53 0.930 . S
H77 C54 0.929 . S
H78 C56 0.930 . S
H79 C57 0.929 . S
Nd80 C82 2.836 . S
Nd80 O100 2.500 . S
Nd80 O101 2.492 . S
Nd80 O102 2.487 . S
Nd80 O103 2.682 . S
Nd80 O104 2.410 . S
Nd80 O109 2.414 . S
Nd80 O111 2.424 . S
Nd81 C91 2.836 . S
Nd81 O103 2.414 . S
Nd81 O105 2.424 . S
Nd81 O106 2.500 . S
Nd81 O107 2.492 . S
Nd81 O108 2.487 1_565 S
Nd81 O109 2.682 . S
Nd81 O110 2.410 . S
C82 Nd80 2.836 . S
C82 C83 1.498 . S
C82 O100 1.258 . S
C82 O101 1.239 . S
C83 C82 1.498 . S
C83 C84 1.366 . S
C83 C88 1.407 . S
C84 C83 1.366 . S
C84 C85 1.392 . S
C84 H112 0.930 . S
C85 C84 1.392 . S
C85 C86 1.398 . S
C85 H113 0.929 . S
C86 C85 1.398 . S
C86 C87 1.352 . S
C87 C86 1.352 . S
C87 C88 1.384 . S
C87 H114 0.930 . S
C88 C83 1.407 . S
C88 C87 1.384 . S
C88 H115 0.929 . S
C89 O102 1.241 . S
C89 O103 1.273 . S
C90 O104 1.251 . S
C90 O105 1.268 . S
C91 Nd81 2.836 . S
C91 C92 1.498 . S
C91 O106 1.258 . S
C91 O107 1.239 . S
C92 C91 1.498 . S
C92 C93 1.366 . S
C92 C97 1.407 1_565 S
C93 C92 1.366 . S
C93 C94 1.392 . S
C93 H116 0.930 . S
C94 C93 1.392 . S
C94 C95 1.398 . S
C94 H117 0.929 . S
C95 C94 1.398 . S
C95 C96 1.352 1_565 S
C96 C95 1.352 1_545 S
C96 C97 1.384 . S
C96 H118 0.930 . S
C97 C92 1.407 1_545 S
C97 C96 1.384 . S
C97 H119 0.929 . S
C98 O108 1.241 1_565 S
C98 O109 1.273 . S
C99 O110 1.251 . S
C99 O111 1.268 . S
O100 Nd80 2.500 . S
O100 C82 1.258 . S
O101 Nd80 2.492 . S
O101 C82 1.239 . S
O102 Nd80 2.487 . S
O102 C89 1.241 . S
O103 Nd80 2.682 . S
O103 Nd81 2.414 . S
O103 C89 1.273 . S
O104 Nd80 2.410 . S
O104 C90 1.251 . S
O105 Nd81 2.424 . S
O105 C90 1.268 . S
O106 Nd81 2.500 . S
O106 C91 1.258 . S
O107 Nd81 2.492 . S
O107 C91 1.239 . S
O108 Nd81 2.487 1_545 S
O108 C98 1.241 1_545 S
O109 Nd80 2.414 . S
O109 Nd81 2.682 . S
O109 C98 1.273 . S
O110 Nd81 2.410 . S
O110 C99 1.251 . S
O111 Nd80 2.424 . S
O111 C99 1.268 . S
H112 C84 0.930 . S
H113 C85 0.929 . S
H114 C87 0.930 . S
H115 C88 0.929 . S
H116 C93 0.930 . S
H117 C94 0.929 . S
H118 C96 0.930 . S
H119 C97 0.929 . S
H120 C138 0.951 . S
H121 C140 0.951 . S
H122 C142 0.950 . S
H123 C143 0.950 . S
H124 C145 0.950 . S
H125 C148 0.950 . S
H126 C149 0.950 . S
H127 C151 0.950 . S
H128 C152 0.950 . S
H129 C153 0.951 . S
H130 C155 0.951 . S
H131 C157 0.950 . S
H132 C158 0.950 . S
H133 C160 0.950 . S
H134 C163 0.950 . S
H135 C164 0.950 . S
H136 C166 0.950 . S
H137 C167 0.950 . S
C138 H120 0.951 . S
C138 C139 1.369 . S
C138 C140 1.388 . S
C139 C138 1.369 . S
C139 C143 1.385 1_655 S
C140 H121 0.951 . S
C140 C138 1.388 . S
C140 C141 1.366 1_655 S
C141 C140 1.366 1_455 S
C141 C142 1.414 . S
C141 C144 1.499 1_565 S
C142 H122 0.950 . S
C142 C141 1.414 . S
C142 C143 1.374 . S
C143 H123 0.950 . S
C143 C139 1.385 1_455 S
C143 C142 1.374 . S
C144 C141 1.499 1_545 S
C144 C145 1.373 1_455 S
C144 C146 1.389 . S
C145 H124 0.950 . S
C145 C144 1.373 1_655 S
C145 C161 1.377 . S
C146 C144 1.389 . S
C146 C147 1.524 . S
C146 C160 1.377 . S
C147 C146 1.524 . S
C147 C148 1.397 . S
C147 C152 1.363 . S
C148 H125 0.950 . S
C148 C147 1.397 . S
C148 C149 1.334 . S
C149 H126 0.950 . S
C149 C148 1.334 . S
C149 C150 1.287 . S
C150 C149 1.287 . S
C150 C151 1.524 . S
C150 H169 0.913 . S
C151 H127 0.950 . S
C151 C150 1.524 . S
C151 C152 1.415 . S
C152 H128 0.950 . S
C152 C147 1.363 . S
C152 C151 1.415 . S
C153 H129 0.951 . S
C153 C154 1.371 . S
C153 C155 1.388 . S
C154 C153 1.371 . S
C154 C158 1.385 1_455 S
C155 H130 0.951 . S
C155 C153 1.388 . S
C155 C156 1.366 1_455 S
C156 C155 1.366 1_655 S
C156 C157 1.414 . S
C156 C159 1.499 . S
C157 H131 0.950 . S
C157 C156 1.414 . S
C157 C158 1.374 . S
C158 H132 0.950 . S
C158 C154 1.385 1_655 S
C158 C157 1.374 . S
C159 C156 1.499 . S
C159 C160 1.373 1_655 S
C159 C161 1.389 . S
C160 H133 0.950 . S
C160 C146 1.377 . S
C160 C159 1.373 1_455 S
C161 C145 1.377 . S
C161 C159 1.389 . S
C161 C162 1.524 . S
C162 C161 1.524 . S
C162 C163 1.397 . S
C162 C167 1.363 . S
C163 H134 0.950 . S
C163 C162 1.397 . S
C163 C164 1.334 . S
C164 H135 0.950 . S
C164 C163 1.334 . S
C164 C165 1.287 . S
C165 C164 1.287 . S
C165 C166 1.524 . S
C165 H168 0.999 . S
C166 H136 0.950 . S
C166 C165 1.524 . S
C166 C167 1.415 . S
C167 H137 0.950 . S
C167 C162 1.363 . S
C167 C166 1.415 . S
H168 C165 0.999 . S
H169 C150 0.913 . S
H170 C188 0.951 . S
H171 C190 0.951 . S
H172 C192 0.950 . S
H173 C193 0.950 . S
H174 C195 0.950 . S
H175 C198 0.950 . S
H176 C199 0.950 . S
H177 C201 0.950 . S
H178 C202 0.950 . S
H179 C203 0.951 . S
H180 C205 0.951 . S
H181 C207 0.950 . S
H182 C208 0.950 . S
H183 C210 0.950 . S
H184 C213 0.950 . S
H185 C214 0.950 1_655 S
H186 C216 0.950 . S
H187 C217 0.950 . S
C188 H170 0.951 . S
C188 C189 1.366 1_565 S
C188 C190 1.388 . S
C189 C188 1.366 1_545 S
C189 C193 1.385 . S
C190 H171 0.951 . S
C190 C188 1.388 . S
C190 C191 1.366 1_565 S
C191 C190 1.366 1_545 S
C191 C192 1.414 . S
C191 C194 1.499 . S
C192 H172 0.950 . S
C192 C191 1.414 . S
C192 C193 1.374 . S
C193 H173 0.950 . S
C193 C189 1.385 . S
C193 C192 1.374 . S
C194 C191 1.499 . S
C194 C195 1.373 1_545 S
C194 C196 1.389 . S
C195 H174 0.950 . S
C195 C194 1.373 1_565 S
C195 C211 1.377 . S
C196 C194 1.389 . S
C196 C197 1.524 . S
C196 C210 1.377 . S
C197 C196 1.524 . S
C197 C198 1.397 . S
C197 C202 1.363 . S
C198 H175 0.950 . S
C198 C197 1.397 . S
C198 C199 1.334 . S
C199 H176 0.950 . S
C199 C198 1.334 . S
C199 C200 1.287 . S
C200 C199 1.287 . S
C200 C201 1.524 . S
C200 H219 0.913 . S
C201 H177 0.950 . S
C201 C200 1.524 . S
C201 C202 1.415 . S
C202 H178 0.950 . S
C202 C197 1.363 . S
C202 C201 1.415 . S
C203 H179 0.951 . S
C203 C204 1.366 . S
C203 C205 1.388 1_655 S
C204 C203 1.366 . S
C204 C208 1.385 1_545 S
C205 H180 0.951 . S
C205 C203 1.388 1_455 S
C205 C206 1.366 . S
C206 C205 1.366 . S
C206 C207 1.414 1_445 S
C206 C209 1.491 1_545 S
C207 H181 0.950 . S
C207 C206 1.414 1_665 S
C207 C208 1.374 . S
C208 H182 0.950 . S
C208 C204 1.385 1_565 S
C208 C207 1.374 . S
C209 C206 1.491 1_565 S
C209 C210 1.372 1_565 S
C209 C211 1.397 . S
C210 H183 0.950 . S
C210 C196 1.377 . S
C210 C209 1.372 1_545 S
C211 C195 1.377 . S
C211 C209 1.397 . S
C211 C212 1.524 . S
C212 C211 1.524 . S
C212 C213 1.397 . S
C212 C217 1.363 . S
C213 H184 0.950 . S
C213 C212 1.397 . S
C213 C214 1.334 . S
C214 H185 0.950 1_455 S
C214 C213 1.334 . S
C214 C215 1.287 . S
C215 C214 1.287 . S
C215 C216 1.524 . S
C215 H218 0.999 . S
C216 H186 0.950 . S
C216 C215 1.524 . S
C216 C217 1.415 . S
C217 H187 0.950 . S
C217 C212 1.363 . S
C217 C216 1.415 . S
H218 C215 0.999 . S
H219 C200 0.913 . S
H220 C238 0.951 . S
H221 C240 0.951 . S
H222 C242 0.950 . S
H223 C243 0.950 . S
H224 C245 0.950 . S
H225 C248 0.950 . S
H226 C249 0.950 1_655 S
H227 C251 0.950 . S
H228 C252 0.950 . S
H229 C253 0.951 . S
H230 C255 0.951 . S
H231 C257 0.950 . S
H232 C258 0.950 . S
H233 C260 0.950 . S
H234 C263 0.950 . S
H235 C264 0.950 . S
H236 C266 0.950 . S
H237 C267 0.950 . S
C238 H220 0.951 . S
C238 C239 1.366 1_455 S
C238 C240 1.388 . S
C239 C238 1.366 1_655 S
C239 C243 1.385 . S
C240 H221 0.951 . S
C240 C238 1.388 . S
C240 C241 1.366 . S
C241 C240 1.366 . S
C241 C242 1.414 . S
C241 C244 1.499 . S
C242 H222 0.950 . S
C242 C241 1.414 . S
C242 C243 1.374 1_455 S
C243 H223 0.950 . S
C243 C239 1.385 . S
C243 C242 1.374 1_655 S
C244 C241 1.499 . S
C244 C245 1.373 . S
C244 C246 1.389 . S
C245 H224 0.950 . S
C245 C244 1.373 . S
C245 C261 1.377 . S
C246 C244 1.389 . S
C246 C247 1.524 . S
C246 C260 1.377 . S
C247 C246 1.524 . S
C247 C248 1.397 . S
C247 C252 1.363 . S
C248 H225 0.950 . S
C248 C247 1.397 . S
C248 C249 1.334 . S
C249 H226 0.950 1_455 S
C249 C248 1.334 . S
C249 C250 1.287 . S
C250 C249 1.287 . S
C250 C251 1.524 . S
C250 H269 0.913 . S
C251 H227 0.950 . S
C251 C250 1.524 . S
C251 C252 1.415 . S
C252 H228 0.950 . S
C252 C247 1.363 . S
C252 C251 1.415 . S
C253 H229 0.951 . S
C253 C254 1.366 . S
C253 C255 1.388 . S
C254 C253 1.366 . S
C254 C258 1.385 . S
C255 H230 0.951 . S
C255 C253 1.388 . S
C255 C256 1.366 . S
C256 C255 1.366 . S
C256 C257 1.414 . S
C256 C259 1.499 . S
C257 H231 0.950 . S
C257 C256 1.414 . S
C257 C258 1.374 . S
C258 H232 0.950 . S
C258 C254 1.385 . S
C258 C257 1.374 . S
C259 C256 1.499 . S
C259 C260 1.373 . S
C259 C261 1.389 . S
C260 H233 0.950 . S
C260 C246 1.377 . S
C260 C259 1.373 . S
C261 C245 1.377 . S
C261 C259 1.389 . S
C261 C262 1.524 . S
C262 C261 1.524 . S
C262 C263 1.397 . S
C262 C267 1.363 . S
C263 H234 0.950 . S
C263 C262 1.397 . S
C263 C264 1.334 . S
C264 H235 0.950 . S
C264 C263 1.334 . S
C264 C265 1.287 . S
C265 C264 1.287 . S
C265 C266 1.524 . S
C265 H268 0.999 . S
C266 H236 0.950 . S
C266 C265 1.524 . S
C266 C267 1.415 . S
C267 H237 0.950 . S
C267 C262 1.363 . S
C267 C266 1.415 . S
H268 C265 0.999 . S
H269 C250 0.913 . S
H270 C288 0.951 1_545 S
H271 C290 0.951 . S
H272 C292 0.950 . S
H273 C293 0.950 . S
H274 C295 0.950 . S
H275 C298 0.950 . S
H276 C299 0.950 . S
H277 C301 0.950 . S
H278 C302 0.950 . S
H279 C303 0.951 . S
H280 C305 0.951 1_556 S
H281 C307 0.950 . S
H282 C308 0.950 . S
H283 C310 0.950 . S
H284 C313 0.950 1_554 S
H285 C314 0.950 . S
H286 C316 0.950 . S
H287 C317 0.942 1_565 S
C288 H270 0.951 1_565 S
C288 C289 1.366 . S
C288 C290 1.388 . S
C289 C288 1.366 . S
C289 C293 1.385 . S
C290 H271 0.951 . S
C290 C288 1.388 . S
C290 C291 1.366 . S
C291 C290 1.366 . S
C291 C292 1.414 . S
C291 C294 1.499 . S
C292 H272 0.950 . S
C292 C291 1.414 . S
C292 C293 1.374 . S
C293 H273 0.950 . S
C293 C289 1.385 . S
C293 C292 1.374 . S
C294 C291 1.499 . S
C294 C295 1.373 . S
C294 C296 1.389 . S
C295 H274 0.950 . S
C295 C294 1.373 . S
C295 C311 1.377 . S
C296 C294 1.389 . S
C296 C297 1.524 . S
C296 C310 1.377 1_556 S
C297 C296 1.524 . S
C297 C298 1.397 . S
C297 C302 1.363 1_556 S
C298 H275 0.950 . S
C298 C297 1.397 . S
C298 C299 1.334 . S
C299 H276 0.950 . S
C299 C298 1.334 . S
C299 C300 1.287 1_556 S
C300 C299 1.287 1_554 S
C300 C301 1.524 . S
C300 H319 0.913 . S
C301 H277 0.950 . S
C301 C300 1.524 . S
C301 C302 1.415 . S
C302 H278 0.950 . S
C302 C297 1.363 1_554 S
C302 C301 1.415 . S
C303 H279 0.951 . S
C303 C304 1.366 . S
C303 C305 1.388 . S
C304 C303 1.366 . S
C304 C308 1.385 . S
C305 H280 0.951 1_554 S
C305 C303 1.388 . S
C305 C306 1.366 . S
C306 C305 1.366 . S
C306 C307 1.414 . S
C306 C309 1.538 . S
C307 H281 0.950 . S
C307 C306 1.414 . S
C307 C308 1.374 . S
C308 H282 0.950 . S
C308 C304 1.385 . S
C308 C307 1.374 . S
C309 C306 1.538 . S
C309 C310 1.366 . S
C309 C311 1.356 1_554 S
C310 H283 0.950 . S
C310 C296 1.377 1_554 S
C310 C309 1.366 . S
C311 C295 1.377 . S
C311 C309 1.356 1_556 S
C311 C312 1.524 1_565 S
C312 C311 1.524 1_545 S
C312 C313 1.397 . S
C312 C317 1.361 . S
C313 H284 0.950 1_556 S
C313 C312 1.397 . S
C313 C314 1.334 . S
C314 H285 0.950 . S
C314 C313 1.334 . S
C314 C315 1.287 . S
C315 C314 1.287 . S
C315 C316 1.524 . S
C315 H318 0.999 . S
C316 H286 0.950 . S
C316 C315 1.524 . S
C316 C317 1.425 . S
C317 H287 0.942 1_545 S
C317 C312 1.361 . S
C317 C316 1.425 . S
H318 C315 0.999 . S
H319 C300 0.913 . S
H320 C338 0.951 . S
H321 C340 0.951 . S
H322 C342 0.950 . S
H323 C343 0.950 . S
H324 C345 0.950 . S
H325 C348 0.950 . S
H326 C349 0.950 . S
H327 C351 0.947 1_455 S
H328 C352 0.950 . S
H329 C353 0.951 . S
H330 C355 0.951 . S
H331 C357 0.950 . S
H332 C358 0.950 . S
H333 C360 0.950 . S
H334 C363 0.950 . S
H335 C364 0.950 . S
H336 C366 0.950 . S
H337 C367 0.950 . S
C338 H320 0.951 . S
C338 C339 1.366 . S
C338 C340 1.388 . S
C339 C338 1.366 . S
C339 C343 1.385 . S
C340 H321 0.951 . S
C340 C338 1.388 . S
C340 C341 1.366 . S
C341 C340 1.366 . S
C341 C342 1.414 . S
C341 C344 1.499 . S
C342 H322 0.950 . S
C342 C341 1.414 . S
C342 C343 1.374 . S
C343 H323 0.950 . S
C343 C339 1.385 . S
C343 C342 1.374 . S
C344 C341 1.499 . S
C344 C345 1.373 . S
C344 C346 1.389 . S
C345 H324 0.950 . S
C345 C344 1.373 . S
C345 C361 1.377 . S
C346 C344 1.389 . S
C346 C347 1.524 . S
C346 C360 1.377 . S
C347 C346 1.524 . S
C347 C348 1.397 . S
C347 C352 1.363 . S
C348 H325 0.950 . S
C348 C347 1.397 . S
C348 C349 1.334 . S
C349 H326 0.950 . S
C349 C348 1.334 . S
C349 C350 1.287 . S
C350 C349 1.287 . S
C350 C351 1.526 . S
C350 H369 0.913 1_655 S
C351 H327 0.947 1_655 S
C351 C350 1.526 . S
C351 C352 1.416 . S
C352 H328 0.950 . S
C352 C347 1.363 . S
C352 C351 1.416 . S
C353 H329 0.951 . S
C353 C354 1.366 . S
C353 C355 1.388 . S
C354 C353 1.366 . S
C354 C358 1.385 . S
C355 H330 0.951 . S
C355 C353 1.388 . S
C355 C356 1.366 . S
C356 C355 1.366 . S
C356 C357 1.414 . S
C356 C359 1.499 . S
C357 H331 0.950 . S
C357 C356 1.414 . S
C357 C358 1.374 . S
C358 H332 0.950 . S
C358 C354 1.385 . S
C358 C357 1.374 . S
C359 C356 1.499 . S
C359 C360 1.373 . S
C359 C361 1.389 . S
C360 H333 0.950 . S
C360 C346 1.377 . S
C360 C359 1.373 . S
C361 C345 1.377 . S
C361 C359 1.389 . S
C361 C362 1.524 . S
C362 C361 1.524 . S
C362 C363 1.397 . S
C362 C367 1.363 . S
C363 H334 0.950 . S
C363 C362 1.397 . S
C363 C364 1.334 . S
C364 H335 0.950 . S
C364 C363 1.334 . S
C364 C365 1.287 . S
C365 C364 1.287 . S
C365 C366 1.524 . S
C365 H368 0.999 . S
C366 H336 0.950 . S
C366 C365 1.524 . S
C366 C367 1.415 . S
C367 H337 0.950 . S
C367 C362 1.363 . S
C367 C366 1.415 . S
H368 C365 0.999 . S
H369 C350 0.913 1_455 S
H370 C388 0.951 . S
H371 C390 0.951 . S
H372 C392 0.950 1_545 S
H373 C393 0.950 1_545 S
H374 C395 0.950 . S
H375 C398 0.950 . S
H376 C399 0.950 . S
H377 C401 0.950 . S
H378 C402 0.950 . S
H379 C403 0.951 1_545 S
H380 C405 0.951 1_545 S
H381 C407 0.950 . S
H382 C408 0.950 . S
H383 C410 0.950 . S
H384 C413 0.950 . S
H385 C414 0.950 . S
H386 C416 0.950 . S
H387 C417 0.950 . S
C388 H370 0.951 . S
C388 C389 1.366 . S
C388 C390 1.388 . S
C389 C388 1.366 . S
C389 C393 1.385 . S
C390 H371 0.951 . S
C390 C388 1.388 . S
C390 C391 1.366 . S
C391 C390 1.366 . S
C391 C392 1.414 . S
C391 C394 1.499 . S
C392 H372 0.950 1_565 S
C392 C391 1.414 . S
C392 C393 1.374 . S
C393 H373 0.950 1_565 S
C393 C389 1.385 . S
C393 C392 1.374 . S
C394 C391 1.499 . S
C394 C395 1.373 . S
C394 C396 1.389 . S
C395 H374 0.950 . S
C395 C394 1.373 . S
C395 C411 1.377 . S
C396 C394 1.389 . S
C396 C397 1.524 . S
C396 C410 1.377 . S
C397 C396 1.524 . S
C397 C398 1.397 . S
C397 C402 1.363 . S
C398 H375 0.950 . S
C398 C397 1.397 . S
C398 C399 1.334 . S
C399 H376 0.950 . S
C399 C398 1.334 . S
C399 C400 1.287 . S
C400 C399 1.287 . S
C400 C401 1.524 . S
C400 H419 0.913 . S
C401 H377 0.950 . S
C401 C400 1.524 . S
C401 C402 1.415 . S
C402 H378 0.950 . S
C402 C397 1.363 . S
C402 C401 1.415 . S
C403 H379 0.951 1_565 S
C403 C404 1.366 . S
C403 C405 1.388 . S
C404 C403 1.366 . S
C404 C408 1.385 . S
C405 H380 0.951 1_565 S
C405 C403 1.388 . S
C405 C406 1.366 . S
C406 C405 1.366 . S
C406 C407 1.414 . S
C406 C409 1.499 . S
C407 H381 0.950 . S
C407 C406 1.414 . S
C407 C408 1.374 . S
C408 H382 0.950 . S
C408 C404 1.385 . S
C408 C407 1.374 . S
C409 C406 1.499 . S
C409 C410 1.373 . S
C409 C411 1.389 . S
C410 H383 0.950 . S
C410 C396 1.377 . S
C410 C409 1.373 . S
C411 C395 1.377 . S
C411 C409 1.389 . S
C411 C412 1.524 1_565 S
C412 C411 1.524 1_545 S
C412 C413 1.397 1_545 S
C412 C417 1.363 . S
C413 H384 0.950 . S
C413 C412 1.397 1_565 S
C413 C414 1.334 1_565 S
C414 H385 0.950 . S
C414 C413 1.334 1_545 S
C414 C415 1.287 . S
C415 C414 1.287 . S
C415 C416 1.524 . S
C415 H418 0.999 . S
C416 H386 0.950 . S
C416 C415 1.524 . S
C416 C417 1.415 . S
C417 H387 0.950 . S
C417 C412 1.363 . S
C417 C416 1.415 . S
H418 C415 0.999 . S
H419 C400 0.913 . S
H420 C438 0.951 . S
H421 C440 0.951 . S
H422 C442 0.950 . S
H423 C443 0.950 . S
H424 C445 0.950 . S
H425 C448 0.950 . S
H426 C449 0.950 . S
H427 C451 0.950 . S
H428 C452 0.950 . S
H429 C453 0.951 . S
H430 C455 0.951 . S
H431 C457 0.950 . S
H432 C458 0.950 . S
H433 C460 0.950 . S
H434 C463 0.950 1_655 S
H435 C464 0.950 . S
H436 C466 0.950 . S
H437 C467 0.950 . S
C438 H420 0.951 . S
C438 C439 1.366 . S
C438 C440 1.388 . S
C439 C438 1.366 . S
C439 C443 1.385 . S
C440 H421 0.951 . S
C440 C438 1.388 . S
C440 C441 1.366 . S
C441 C440 1.366 . S
C441 C442 1.414 . S
C441 C444 1.499 . S
C442 H422 0.950 . S
C442 C441 1.414 . S
C442 C443 1.374 . S
C443 H423 0.950 . S
C443 C439 1.385 . S
C443 C442 1.374 . S
C444 C441 1.499 . S
C444 C445 1.373 . S
C444 C446 1.389 . S
C445 H424 0.950 . S
C445 C444 1.373 . S
C445 C461 1.377 1_556 S
C446 C444 1.389 . S
C446 C447 1.524 . S
C446 C460 1.377 1_556 S
C447 C446 1.524 . S
C447 C448 1.397 . S
C447 C452 1.363 . S
C448 H425 0.950 . S
C448 C447 1.397 . S
C448 C449 1.334 . S
C449 H426 0.950 . S
C449 C448 1.334 . S
C449 C450 1.287 . S
C450 C449 1.287 . S
C450 C451 1.524 . S
C450 H469 0.913 . S
C451 H427 0.950 . S
C451 C450 1.524 . S
C451 C452 1.415 . S
C452 H428 0.950 . S
C452 C447 1.363 . S
C452 C451 1.415 . S
C453 H429 0.951 . S
C453 C454 1.366 . S
C453 C455 1.388 . S
C454 C453 1.366 . S
C454 C458 1.385 . S
C455 H430 0.951 . S
C455 C453 1.388 . S
C455 C456 1.366 . S
C456 C455 1.366 . S
C456 C457 1.414 . S
C456 C459 1.499 . S
C457 H431 0.950 . S
C457 C456 1.414 . S
C457 C458 1.374 . S
C458 H432 0.950 . S
C458 C454 1.385 . S
C458 C457 1.374 . S
C459 C456 1.499 . S
C459 C460 1.373 . S
C459 C461 1.389 . S
C460 H433 0.950 . S
C460 C446 1.377 1_554 S
C460 C459 1.373 . S
C461 C445 1.377 1_554 S
C461 C459 1.389 . S
C461 C462 1.524 1_655 S
C462 C461 1.524 1_455 S
C462 C463 1.397 . S
C462 C467 1.363 . S
C463 H434 0.950 1_455 S
C463 C462 1.397 . S
C463 C464 1.334 . S
C464 H435 0.950 . S
C464 C463 1.334 . S
C464 C465 1.287 . S
C465 C464 1.287 . S
C465 C466 1.524 . S
C465 H468 0.999 . S
C466 H436 0.950 . S
C466 C465 1.524 . S
C466 C467 1.415 . S
C467 H437 0.950 . S
C467 C462 1.363 . S
C467 C466 1.415 . S
H468 C465 0.999 . S
H469 C450 0.913 . S
H470 C488 0.951 . S
H471 C490 0.951 . S
H472 C492 0.950 . S
H473 C493 0.950 . S
H474 C495 0.950 . S
H475 C498 0.950 . S
H476 C499 0.950 . S
H477 C501 0.950 . S
H478 C502 0.950 . S
H479 C503 0.951 . S
H480 C505 0.951 . S
H481 C507 0.950 . S
H482 C508 0.950 . S
H483 C510 0.950 . S
H484 C513 0.950 . S
H485 C514 0.950 . S
H486 C516 0.950 . S
H487 C517 0.950 . S
C488 H470 0.951 . S
C488 C489 1.366 . S
C488 C490 1.388 . S
C489 C488 1.366 . S
C489 C493 1.385 . S
C490 H471 0.951 . S
C490 C488 1.388 . S
C490 C491 1.366 . S
C491 C490 1.366 . S
C491 C492 1.414 . S
C491 C494 1.499 . S
C492 H472 0.950 . S
C492 C491 1.414 . S
C492 C493 1.374 . S
C493 H473 0.950 . S
C493 C489 1.385 . S
C493 C492 1.374 . S
C494 C491 1.499 . S
C494 C495 1.373 . S
C494 C496 1.389 . S
C495 H474 0.950 . S
C495 C494 1.373 . S
C495 C511 1.377 . S
C496 C494 1.389 . S
C496 C497 1.524 . S
C496 C510 1.377 . S
C497 C496 1.524 . S
C497 C498 1.397 . S
C497 C502 1.363 . S
C498 H475 0.950 . S
C498 C497 1.397 . S
C498 C499 1.334 . S
C499 H476 0.950 . S
C499 C498 1.334 . S
C499 C500 1.287 . S
C500 C499 1.287 . S
C500 C501 1.524 . S
C500 H519 0.913 . S
C501 H477 0.950 . S
C501 C500 1.524 . S
C501 C502 1.415 . S
C502 H478 0.950 . S
C502 C497 1.363 . S
C502 C501 1.415 . S
C503 H479 0.951 . S
C503 C504 1.366 . S
C503 C505 1.388 . S
C504 C503 1.366 . S
C504 C508 1.385 . S
C505 H480 0.951 . S
C505 C503 1.388 . S
C505 C506 1.366 . S
C506 C505 1.366 . S
C506 C507 1.414 . S
C506 C509 1.499 . S
C507 H481 0.950 . S
C507 C506 1.414 . S
C507 C508 1.374 . S
C508 H482 0.950 . S
C508 C504 1.385 . S
C508 C507 1.374 . S
C509 C506 1.499 . S
C509 C510 1.373 . S
C509 C511 1.389 . S
C510 H483 0.950 . S
C510 C496 1.377 . S
C510 C509 1.373 . S
C511 C495 1.377 . S
C511 C509 1.389 . S
C511 C512 1.524 . S
C512 C511 1.524 . S
C512 C513 1.397 . S
C512 C517 1.363 . S
C513 H484 0.950 . S
C513 C512 1.397 . S
C513 C514 1.334 . S
C514 H485 0.950 . S
C514 C513 1.334 . S
C514 C515 1.287 . S
C515 C514 1.287 . S
C515 C516 1.524 . S
C515 H518 0.999 . S
C516 H486 0.950 . S
C516 C515 1.524 . S
C516 C517 1.415 . S
C517 H487 0.950 . S
C517 C512 1.363 . S
C517 C516 1.415 . S
H518 C515 0.999 . S
H519 C500 0.913 . S
H520 C538 0.951 . S
H521 C540 0.951 . S
H522 C542 0.950 . S
H523 C543 0.950 . S
H524 C545 0.950 . S
H525 C548 0.950 . S
H526 C549 0.950 . S
H527 C551 0.950 1_655 S
H528 C552 0.950 . S
H529 C553 0.951 . S
H530 C555 0.951 . S
H531 C557 0.950 . S
H532 C558 0.950 . S
H533 C560 0.950 . S
H534 C563 0.950 . S
H535 C564 0.950 . S
H536 C566 0.950 . S
H537 C567 0.950 . S
C538 H520 0.951 . S
C538 C539 1.366 . S
C538 C540 1.388 . S
C539 C538 1.366 . S
C539 C543 1.385 . S
C540 H521 0.951 . S
C540 C538 1.388 . S
C540 C541 1.366 . S
C541 C540 1.366 . S
C541 C542 1.414 . S
C541 C544 1.499 . S
C542 H522 0.950 . S
C542 C541 1.414 . S
C542 C543 1.374 . S
C543 H523 0.950 . S
C543 C539 1.385 . S
C543 C542 1.374 . S
C544 C541 1.499 . S
C544 C545 1.373 . S
C544 C546 1.389 . S
C545 H524 0.950 . S
C545 C544 1.373 . S
C545 C561 1.377 . S
C546 C544 1.389 . S
C546 C547 1.524 . S
C546 C560 1.377 . S
C547 C546 1.524 . S
C547 C548 1.397 1_655 S
C547 C552 1.363 . S
C548 H525 0.950 . S
C548 C547 1.397 1_455 S
C548 C549 1.334 . S
C549 H526 0.950 . S
C549 C548 1.334 . S
C549 C550 1.287 . S
C550 C549 1.287 . S
C550 C551 1.524 . S
C550 H569 0.913 . S
C551 H527 0.950 1_455 S
C551 C550 1.524 . S
C551 C552 1.415 1_455 S
C552 H528 0.950 . S
C552 C547 1.363 . S
C552 C551 1.415 1_655 S
C553 H529 0.951 . S
C553 C554 1.366 . S
C553 C555 1.388 . S
C554 C553 1.366 . S
C554 C558 1.385 . S
C555 H530 0.951 . S
C555 C553 1.388 . S
C555 C556 1.366 . S
C556 C555 1.366 . S
C556 C557 1.414 . S
C556 C559 1.499 . S
C557 H531 0.950 . S
C557 C556 1.414 . S
C557 C558 1.374 . S
C558 H532 0.950 . S
C558 C554 1.385 . S
C558 C557 1.374 . S
C559 C556 1.499 . S
C559 C560 1.373 . S
C559 C561 1.389 . S
C560 H533 0.950 . S
C560 C546 1.377 . S
C560 C559 1.373 . S
C561 C545 1.377 . S
C561 C559 1.389 . S
C561 C562 1.524 . S
C562 C561 1.524 . S
C562 C563 1.397 . S
C562 C567 1.363 . S
C563 H534 0.950 . S
C563 C562 1.397 . S
C563 C564 1.334 . S
C564 H535 0.950 . S
C564 C563 1.334 . S
C564 C565 1.287 . S
C565 C564 1.287 . S
C565 C566 1.524 . S
C565 H568 0.999 . S
C566 H536 0.950 . S
C566 C565 1.524 . S
C566 C567 1.415 . S
C567 H537 0.950 . S
C567 C562 1.363 . S
C567 C566 1.415 . S
H568 C565 0.999 . S
H569 C550 0.913 . S
C139 C18 1.280 . S
C154 C9 1.279 . S
C189 C49 1.383 1_545 S
C204 C58 1.383 . S
C239 C98 1.151 1_545 S
C254 C89 1.151 . S
C289 C95 0.929 . S
C304 C6 0.930 . S
C339 C50 1.910 . S
C354 C15 1.890 . S
C389 C90 2.311 . S
C404 C59 2.307 . S
C439 C99 2.199 . S
C454 C10 2.183 . S
C489 C19 1.394 . S
C504 C46 1.360 . S
C539 C86 0.903 . S
C554 C55 0.907 . S
