# Generated by pormake.
# Topology uoe, (4)-cn, num edge types: 1
# Building blocks:
#     Node 0, Type 0, BuildingBlock: QUQFOY_clean_sbu_1, # of connection points: 4
#     Node 1, Type 0, BuildingBlock: QUQFOY_clean_sbu_1, # of connection points: 4
#     Node 2, Type 0, BuildingBlock: QUQFOY_clean_sbu_1, # of connection points: 4
#     Node 3, Type 0, BuildingBlock: QUQFOY_clean_sbu_1, # of connection points: 4
#     Node 4, Type 0, BuildingBlock: QUQFOY_clean_sbu_1, # of connection points: 4
#     Node 5, Type 0, BuildingBlock: QUQFOY_clean_sbu_1, # of connection points: 4
#     Node 6, Type 0, BuildingBlock: QUQFOY_clean_sbu_1, # of connection points: 4
#     Node 7, Type 0, BuildingBlock: QUQFOY_clean_sbu_1, # of connection points: 4
#     Node 8, Type 0, BuildingBlock: QUQFOY_clean_sbu_1, # of connection points: 4
#     Node 9, Type 0, BuildingBlock: QUQFOY_clean_sbu_1, # of connection points: 4
#     Node 10, Type 0, BuildingBlock: QUQFOY_clean_sbu_1, # of connection points: 4
#     Node 11, Type 0, BuildingBlock: QUQFOY_clean_sbu_1, # of connection points: 4
#     Node 12, Type 0, BuildingBlock: QUQFOY_clean_sbu_1, # of connection points: 4
#     Node 13, Type 0, BuildingBlock: QUQFOY_clean_sbu_1, # of connection points: 4
#     Node 14, Type 0, BuildingBlock: QUQFOY_clean_sbu_1, # of connection points: 4
#     Node 15, Type 0, BuildingBlock: QUQFOY_clean_sbu_1, # of connection points: 4
#     Node 16, Type 0, BuildingBlock: QUQFOY_clean_sbu_1, # of connection points: 4
#     Node 17, Type 0, BuildingBlock: QUQFOY_clean_sbu_1, # of connection points: 4
#     Node 18, Type 0, BuildingBlock: QUQFOY_clean_sbu_1, # of connection points: 4
#     Node 19, Type 0, BuildingBlock: QUQFOY_clean_sbu_1, # of connection points: 4
#     Node 20, Type 0, BuildingBlock: QUQFOY_clean_sbu_1, # of connection points: 4
#     Node 21, Type 0, BuildingBlock: QUQFOY_clean_sbu_1, # of connection points: 4
#     Node 22, Type 0, BuildingBlock: QUQFOY_clean_sbu_1, # of connection points: 4
#     Node 23, Type 0, BuildingBlock: QUQFOY_clean_sbu_1, # of connection points: 4
#     Node 24, Type 0, BuildingBlock: QUQFOY_clean_sbu_1, # of connection points: 4
#     Node 25, Type 0, BuildingBlock: QUQFOY_clean_sbu_1, # of connection points: 4
#     Node 26, Type 0, BuildingBlock: QUQFOY_clean_sbu_1, # of connection points: 4
#     Node 27, Type 0, BuildingBlock: QUQFOY_clean_sbu_1, # of connection points: 4
#     Node 28, Type 0, BuildingBlock: QUQFOY_clean_sbu_1, # of connection points: 4
#     Node 29, Type 0, BuildingBlock: QUQFOY_clean_sbu_1, # of connection points: 4
#     Node 30, Type 0, BuildingBlock: QUQFOY_clean_sbu_1, # of connection points: 4
#     Node 31, Type 0, BuildingBlock: QUQFOY_clean_sbu_1, # of connection points: 4
#     Edge 32, Type (0, 0), BuildingBlock: CIFDUS_clean_linker_0, # of connection points: 2
#     Edge 33, Type (0, 0), BuildingBlock: CIFDUS_clean_linker_0, # of connection points: 2
#     Edge 34, Type (0, 0), BuildingBlock: CIFDUS_clean_linker_0, # of connection points: 2
#     Edge 35, Type (0, 0), BuildingBlock: CIFDUS_clean_linker_0, # of connection points: 2
#     Edge 36, Type (0, 0), BuildingBlock: CIFDUS_clean_linker_0, # of connection points: 2
#     Edge 37, Type (0, 0), BuildingBlock: CIFDUS_clean_linker_0, # of connection points: 2
#     Edge 38, Type (0, 0), BuildingBlock: CIFDUS_clean_linker_0, # of connection points: 2
#     Edge 39, Type (0, 0), BuildingBlock: CIFDUS_clean_linker_0, # of connection points: 2
#     Edge 40, Type (0, 0), BuildingBlock: CIFDUS_clean_linker_0, # of connection points: 2
#     Edge 41, Type (0, 0), BuildingBlock: CIFDUS_clean_linker_0, # of connection points: 2
#     Edge 42, Type (0, 0), BuildingBlock: CIFDUS_clean_linker_0, # of connection points: 2
#     Edge 43, Type (0, 0), BuildingBlock: CIFDUS_clean_linker_0, # of connection points: 2
#     Edge 44, Type (0, 0), BuildingBlock: CIFDUS_clean_linker_0, # of connection points: 2
#     Edge 45, Type (0, 0), BuildingBlock: CIFDUS_clean_linker_0, # of connection points: 2
#     Edge 46, Type (0, 0), BuildingBlock: CIFDUS_clean_linker_0, # of connection points: 2
#     Edge 47, Type (0, 0), BuildingBlock: CIFDUS_clean_linker_0, # of connection points: 2
#     Edge 48, Type (0, 0), BuildingBlock: CIFDUS_clean_linker_0, # of connection points: 2
#     Edge 49, Type (0, 0), BuildingBlock: CIFDUS_clean_linker_0, # of connection points: 2
#     Edge 50, Type (0, 0), BuildingBlock: CIFDUS_clean_linker_0, # of connection points: 2
#     Edge 51, Type (0, 0), BuildingBlock: CIFDUS_clean_linker_0, # of connection points: 2
#     Edge 52, Type (0, 0), BuildingBlock: CIFDUS_clean_linker_0, # of connection points: 2
#     Edge 53, Type (0, 0), BuildingBlock: CIFDUS_clean_linker_0, # of connection points: 2
#     Edge 54, Type (0, 0), BuildingBlock: CIFDUS_clean_linker_0, # of connection points: 2
#     Edge 55, Type (0, 0), BuildingBlock: CIFDUS_clean_linker_0, # of connection points: 2
#     Edge 56, Type (0, 0), BuildingBlock: CIFDUS_clean_linker_0, # of connection points: 2
#     Edge 57, Type (0, 0), BuildingBlock: CIFDUS_clean_linker_0, # of connection points: 2
#     Edge 58, Type (0, 0), BuildingBlock: CIFDUS_clean_linker_0, # of connection points: 2
#     Edge 59, Type (0, 0), BuildingBlock: CIFDUS_clean_linker_0, # of connection points: 2
#     Edge 60, Type (0, 0), BuildingBlock: CIFDUS_clean_linker_0, # of connection points: 2
#     Edge 61, Type (0, 0), BuildingBlock: CIFDUS_clean_linker_0, # of connection points: 2
#     Edge 62, Type (0, 0), BuildingBlock: CIFDUS_clean_linker_0, # of connection points: 2
#     Edge 63, Type (0, 0), BuildingBlock: CIFDUS_clean_linker_0, # of connection points: 2
#     Edge 64, Type (0, 0), BuildingBlock: CIFDUS_clean_linker_0, # of connection points: 2
#     Edge 65, Type (0, 0), BuildingBlock: CIFDUS_clean_linker_0, # of connection points: 2
#     Edge 66, Type (0, 0), BuildingBlock: CIFDUS_clean_linker_0, # of connection points: 2
#     Edge 67, Type (0, 0), BuildingBlock: CIFDUS_clean_linker_0, # of connection points: 2
#     Edge 68, Type (0, 0), BuildingBlock: CIFDUS_clean_linker_0, # of connection points: 2
#     Edge 69, Type (0, 0), BuildingBlock: CIFDUS_clean_linker_0, # of connection points: 2
#     Edge 70, Type (0, 0), BuildingBlock: CIFDUS_clean_linker_0, # of connection points: 2
#     Edge 71, Type (0, 0), BuildingBlock: CIFDUS_clean_linker_0, # of connection points: 2
#     Edge 72, Type (0, 0), BuildingBlock: CIFDUS_clean_linker_0, # of connection points: 2
#     Edge 73, Type (0, 0), BuildingBlock: CIFDUS_clean_linker_0, # of connection points: 2
#     Edge 74, Type (0, 0), BuildingBlock: CIFDUS_clean_linker_0, # of connection points: 2
#     Edge 75, Type (0, 0), BuildingBlock: CIFDUS_clean_linker_0, # of connection points: 2
#     Edge 76, Type (0, 0), BuildingBlock: CIFDUS_clean_linker_0, # of connection points: 2
#     Edge 77, Type (0, 0), BuildingBlock: CIFDUS_clean_linker_0, # of connection points: 2
#     Edge 78, Type (0, 0), BuildingBlock: CIFDUS_clean_linker_0, # of connection points: 2
#     Edge 79, Type (0, 0), BuildingBlock: CIFDUS_clean_linker_0, # of connection points: 2
#     Edge 80, Type (0, 0), BuildingBlock: CIFDUS_clean_linker_0, # of connection points: 2
#     Edge 81, Type (0, 0), BuildingBlock: CIFDUS_clean_linker_0, # of connection points: 2
#     Edge 82, Type (0, 0), BuildingBlock: CIFDUS_clean_linker_0, # of connection points: 2
#     Edge 83, Type (0, 0), BuildingBlock: CIFDUS_clean_linker_0, # of connection points: 2
#     Edge 84, Type (0, 0), BuildingBlock: CIFDUS_clean_linker_0, # of connection points: 2
#     Edge 85, Type (0, 0), BuildingBlock: CIFDUS_clean_linker_0, # of connection points: 2
#     Edge 86, Type (0, 0), BuildingBlock: CIFDUS_clean_linker_0, # of connection points: 2
#     Edge 87, Type (0, 0), BuildingBlock: CIFDUS_clean_linker_0, # of connection points: 2
#     Edge 88, Type (0, 0), BuildingBlock: CIFDUS_clean_linker_0, # of connection points: 2
#     Edge 89, Type (0, 0), BuildingBlock: CIFDUS_clean_linker_0, # of connection points: 2
#     Edge 90, Type (0, 0), BuildingBlock: CIFDUS_clean_linker_0, # of connection points: 2
#     Edge 91, Type (0, 0), BuildingBlock: CIFDUS_clean_linker_0, # of connection points: 2
#     Edge 92, Type (0, 0), BuildingBlock: CIFDUS_clean_linker_0, # of connection points: 2
#     Edge 93, Type (0, 0), BuildingBlock: CIFDUS_clean_linker_0, # of connection points: 2
#     Edge 94, Type (0, 0), BuildingBlock: CIFDUS_clean_linker_0, # of connection points: 2
#     Edge 95, Type (0, 0), BuildingBlock: CIFDUS_clean_linker_0, # of connection points: 2
# Relax obj value: 0.067
# Max RMSD: 0.140
# Mean RMSD: 0.140
data_MOF--net-uoe--node1-QUQFOY_clean_sbu_1--edge1-CIFDUS_clean_linker_0
_symmetry_space_group_name_H-M    P1
_symmetry_Int_Tables_number       1
_symmetry_cell_setting            triclinic
loop_
_symmetry_equiv_pos_as_xyz
'x, y, z'
_cell_length_a     69.130551
_cell_length_b     69.121199
_cell_length_c     24.955484
_cell_angle_alpha  90.40409
_cell_angle_beta   89.703999
_cell_angle_gamma 89.63132
loop_
_atom_site_label
_atom_site_type_symbol
_atom_site_fract_x
_atom_site_fract_y
_atom_site_fract_z
_atom_type_partial_charge
O0 O 0.11076 0.47776 0.15875 0.0
Cd1 Cd 0.09519 0.46051 0.10782 0.0
Cd2 Cd 0.10485 0.49475 0.04427 0.0
O3 O 0.12214 0.50131 0.10862 0.0
O4 O 0.09285 0.43744 0.15525 0.0
O5 O 0.10919 0.43688 0.07899 0.0
C6 C 0.10442 0.42838 0.12305 0.0
C7 C 0.11522 0.50244 0.9576 0.0
C8 C 0.12129 0.49259 0.15313 0.0
C9 C 0.06248 0.48576 0.07041 0.0
O10 O 0.07536 0.49751 0.05469 0.0
O11 O 0.06719 0.46923 0.0888 0.0
O12 O 0.11051 0.51565 0.99194 0.0
O13 O 0.11483 0.48466 0.97317 0.0
O14 O 0.79043 0.85763 0.41648 0.0
Cd15 Cd 0.80857 0.84237 0.36622 0.0
Cd16 Cd 0.77556 0.85227 0.30073 0.0
O17 O 0.76733 0.86935 0.36512 0.0
O18 O 0.83072 0.83945 0.41697 0.0
O19 O 0.83274 0.8567 0.34323 0.0
C20 C 0.84029 0.8515 0.38818 0.0
C21 C 0.77318 0.86323 0.21247 0.0
C22 C 0.77551 0.86815 0.41044 0.0
C23 C 0.78364 0.80982 0.32554 0.0
O24 O 0.77204 0.82285 0.30929 0.0
O25 O 0.80005 0.81437 0.34506 0.0
O26 O 0.75802 0.85916 0.24035 0.0
O27 O 0.78982 0.86192 0.23567 0.0
O28 O 0.4091 0.54114 0.66455 0.0
Cd29 Cd 0.42444 0.55785 0.61235 0.0
Cd30 Cd 0.40952 0.52781 0.54484 0.0
O31 O 0.39318 0.52103 0.61188 0.0
O32 O 0.4267 0.58213 0.65666 0.0
O33 O 0.40951 0.5805 0.58231 0.0
C34 C 0.4143 0.59004 0.62497 0.0
C35 C 0.39729 0.52586 0.45758 0.0
C36 C 0.39656 0.52802 0.65814 0.0
C37 C 0.45338 0.53041 0.56273 0.0
O38 O 0.4386 0.52121 0.54676 0.0
O39 O 0.45144 0.54665 0.58713 0.0
O40 O 0.40025 0.5106 0.48577 0.0
O41 O 0.4 0.54247 0.48039 0.0
O42 O 0.72639 0.16008 0.90043 0.0
Cd43 Cd 0.71047 0.17456 0.8445 0.0
Cd44 Cd 0.7483 0.1637 0.7908 0.0
O45 O 0.75291 0.14861 0.8616 0.0
O46 O 0.68756 0.17972 0.89195 0.0
O47 O 0.68615 0.16053 0.82127 0.0
C48 C 0.67807 0.1672 0.86444 0.0
C49 C 0.75727 0.15145 0.70577 0.0
C50 C 0.74185 0.15015 0.90237 0.0
C51 C 0.73696 0.20648 0.80601 0.0
O52 O 0.74961 0.19353 0.79548 0.0
O53 O 0.71999 0.20187 0.82161 0.0
O54 O 0.76998 0.15682 0.74032 0.0
O55 O 0.73933 0.15192 0.72061 0.0
O56 O 0.11092 0.53954 0.44082 0.0
Cd57 Cd 0.09478 0.55717 0.4903 0.0
Cd58 Cd 0.10335 0.52261 0.55526 0.0
O59 O 0.12082 0.51533 0.49116 0.0
O60 O 0.09322 0.5802 0.44218 0.0
O61 O 0.10832 0.58076 0.51989 0.0
C62 C 0.10423 0.58922 0.47532 0.0
C63 C 0.11348 0.51457 0.64177 0.0
C64 C 0.12085 0.52421 0.44683 0.0
C65 C 0.06134 0.5326 0.52648 0.0
O66 O 0.07386 0.52074 0.54429 0.0
O67 O 0.06648 0.54881 0.50705 0.0
O68 O 0.1084 0.50154 0.60764 0.0
O69 O 0.11344 0.53236 0.62625 0.0
O70 O 0.72794 0.85851 0.70048 0.0
Cd71 Cd 0.71079 0.84407 0.75403 0.0
Cd72 Cd 0.74387 0.85329 0.81513 0.0
O73 O 0.75151 0.87006 0.75036 0.0
O74 O 0.68669 0.84253 0.71036 0.0
O75 O 0.68846 0.85924 0.78596 0.0
C76 C 0.67883 0.85461 0.74356 0.0
C77 C 0.74636 0.86436 0.90354 0.0
C78 C 0.74295 0.86882 0.70554 0.0
C79 C 0.73535 0.811 0.79134 0.0
O80 O 0.74733 0.82378 0.80645 0.0
O81 O 0.71883 0.81593 0.77328 0.0
O82 O 0.76151 0.86023 0.87524 0.0
O83 O 0.72969 0.86316 0.88055 0.0
O84 O 0.40599 0.47974 0.9431 0.0
Cd85 Cd 0.42195 0.46074 0.98786 0.0
Cd86 Cd 0.41172 0.49409 0.06106 0.0
O87 O 0.39545 0.50313 0.9967 0.0
O88 O 0.42567 0.4407 0.93014 0.0
O89 O 0.40885 0.43511 1.00356 0.0
C90 C 0.41425 0.42952 0.95627 0.0
C91 C 0.40001 0.49752 0.14903 0.0
C92 C 0.39605 0.495 0.9509 0.0
C93 C 0.45432 0.4851 0.03461 0.0
O94 O 0.44137 0.49634 0.05392 0.0
O95 O 0.44971 0.46942 0.01057 0.0
O96 O 0.40517 0.51227 0.12126 0.0
O97 O 0.40073 0.48072 0.12597 0.0
O98 O 0.79698 0.16507 0.19377 0.0
Cd99 Cd 0.81022 0.17721 0.2584 0.0
Cd100 Cd 0.77669 0.16106 0.30454 0.0
O101 O 0.77481 0.14655 0.23092 0.0
O102 O 0.83686 0.18003 0.22726 0.0
O103 O 0.83006 0.15979 0.29288 0.0
C104 C 0.84216 0.16576 0.25697 0.0
C105 C 0.77032 0.14745 0.38883 0.0
C106 C 0.78426 0.15202 0.1898 0.0
C107 C 0.78057 0.20514 0.30048 0.0
O108 O 0.77007 0.19021 0.30544 0.0
O109 O 0.7983 0.20347 0.28629 0.0
O110 O 0.75676 0.15025 0.3544 0.0
O111 O 0.78789 0.15078 0.3736 0.0
O112 O 0.91473 0.54808 0.93989 0.0
Cd113 Cd 0.92657 0.56194 1.00426 0.0
Cd114 Cd 0.91506 0.52558 0.04679 0.0
O115 O 0.90027 0.52267 0.97448 0.0
O116 O 0.93001 0.58765 0.96962 0.0
O117 O 0.90986 0.58295 0.03723 0.0
C118 C 0.9162 0.59409 0.99973 0.0
C119 C 0.90218 0.51802 0.13143 0.0
C120 C 0.90374 0.53358 0.9347 0.0
C121 C 0.95796 0.53508 0.03982 0.0
O122 O 0.9448 0.52239 0.04397 0.0
O123 O 0.95363 0.5526 0.02927 0.0
O124 O 0.90646 0.50473 0.09674 0.0
O125 O 0.9039 0.53582 0.11663 0.0
O126 O 0.23004 0.15965 0.68991 0.0
Cd127 Cd 0.21478 0.17476 0.7472 0.0
Cd128 Cd 0.24633 0.16007 0.80475 0.0
O129 O 0.25084 0.14294 0.73812 0.0
O130 O 0.1894 0.17742 0.70974 0.0
O131 O 0.19338 0.1598 0.78258 0.0
C132 C 0.18258 0.16492 0.74287 0.0
C133 C 0.25202 0.14808 0.89043 0.0
C134 C 0.24294 0.14659 0.69351 0.0
C135 C 0.24298 0.20373 0.78749 0.0
O136 O 0.25313 0.18894 0.79894 0.0
O137 O 0.22574 0.20172 0.77028 0.0
O138 O 0.26594 0.15082 0.85692 0.0
O139 O 0.23455 0.15109 0.87415 0.0
O140 O 0.60607 0.478 0.44927 0.0
Cd141 Cd 0.59088 0.46054 0.50001 0.0
Cd142 Cd 0.60583 0.49206 0.56922 0.0
O143 O 0.62146 0.49869 0.50147 0.0
O144 O 0.5871 0.43794 0.45029 0.0
O145 O 0.60556 0.43632 0.52198 0.0
C146 C 0.59979 0.42853 0.47763 0.0
C147 C 0.61874 0.49947 0.65339 0.0
C148 C 0.61822 0.49149 0.4555 0.0
C149 C 0.56177 0.48741 0.55208 0.0
O150 O 0.57641 0.49683 0.56805 0.0
O151 O 0.56392 0.47137 0.52681 0.0
O152 O 0.61391 0.51277 0.62016 0.0
O153 O 0.61725 0.4817 0.63774 0.0
O154 O 0.28954 0.8594 0.1944 0.0
Cd155 Cd 0.307 0.84436 0.246 0.0
Cd156 Cd 0.2726 0.85328 0.31028 0.0
O157 O 0.26539 0.86984 0.24531 0.0
O158 O 0.33114 0.84333 0.2014 0.0
O159 O 0.32917 0.85923 0.27833 0.0
C160 C 0.33886 0.85505 0.23532 0.0
C161 C 0.26363 0.86464 0.39552 0.0
C162 C 0.27418 0.86933 0.20056 0.0
C163 C 0.28299 0.81099 0.28417 0.0
O164 O 0.27101 0.82364 0.30141 0.0
O165 O 0.2992 0.81604 0.26417 0.0
O166 O 0.25101 0.85873 0.36152 0.0
O167 O 0.28155 0.86464 0.38061 0.0
O168 O 0.91025 0.47493 0.64189 0.0
Cd169 Cd 0.92327 0.4598 0.58085 0.0
Cd170 Cd 0.91332 0.49682 0.53351 0.0
O171 O 0.89826 0.50135 0.60515 0.0
O172 O 0.92573 0.4345 0.61884 0.0
O173 O 0.90717 0.43851 0.54803 0.0
C174 C 0.91263 0.42778 0.58744 0.0
C175 C 0.90151 0.50528 0.44839 0.0
C176 C 0.9003 0.49036 0.6455 0.0
C177 C 0.9559 0.48546 0.5461 0.0
O178 O 0.94308 0.49837 0.53791 0.0
O179 O 0.95105 0.46832 0.55903 0.0
O180 O 0.90636 0.51822 0.48318 0.0
O181 O 0.90211 0.4874 0.4632 0.0
O182 O 0.28774 0.15786 0.40575 0.0
Cd183 Cd 0.30608 0.17425 0.36003 0.0
Cd184 Cd 0.27117 0.16611 0.29102 0.0
O185 O 0.26322 0.14928 0.35466 0.0
O186 O 0.32679 0.17738 0.41501 0.0
O187 O 0.33147 0.1612 0.33963 0.0
C188 C 0.33772 0.16624 0.38633 0.0
C189 C 0.26278 0.15532 0.20522 0.0
C190 C 0.27215 0.1486 0.39885 0.0
C191 C 0.28186 0.20795 0.3206 0.0
O192 O 0.27007 0.19571 0.30139 0.0
O193 O 0.29769 0.20246 0.34192 0.0
O194 O 0.24997 0.16158 0.23878 0.0
O195 O 0.28056 0.15474 0.22079 0.0
O196 O 0.60665 0.53934 0.16885 0.0
Cd197 Cd 0.59164 0.55699 0.11787 0.0
Cd198 Cd 0.60163 0.52269 0.05146 0.0
O199 O 0.61753 0.5154 0.11775 0.0
O200 O 0.58998 0.58067 0.16461 0.0
O201 O 0.6064 0.57976 0.08847 0.0
C202 C 0.60186 0.58891 0.13216 0.0
C203 C 0.61386 0.51365 0.96718 0.0
C204 C 0.61671 0.52407 0.1627 0.0
C205 C 0.55895 0.53273 0.0745 0.0
O206 O 0.5719 0.52109 0.05712 0.0
O207 O 0.56362 0.54869 0.09687 0.0
O208 O 0.60763 0.50106 1.00072 0.0
O209 O 0.61373 0.53159 0.98209 0.0
O210 O 0.22822 0.85834 0.91388 0.0
Cd211 Cd 0.21154 0.84331 0.8606 0.0
Cd212 Cd 0.24283 0.85742 0.79501 0.0
O213 O 0.24896 0.87371 0.86205 0.0
O214 O 0.18668 0.84193 0.90243 0.0
O215 O 0.18976 0.8588 0.82795 0.0
C216 C 0.17953 0.85442 0.86965 0.0
C217 C 0.24993 0.86969 0.71 0.0
C218 C 0.24162 0.87061 0.90788 0.0
C219 C 0.23861 0.81357 0.81406 0.0
O220 O 0.24824 0.82814 0.79858 0.0
O221 O 0.22216 0.81591 0.8369 0.0
O222 O 0.26334 0.86549 0.74358 0.0
O223 O 0.2322 0.86793 0.72573 0.0
O224 O 0.61037 0.97753 0.65691 0.0
Cd225 Cd 0.59552 0.96058 0.60359 0.0
Cd226 Cd 0.60467 0.99495 0.5425 0.0
O227 O 0.6214 1.00155 0.60798 0.0
O228 O 0.5938 0.93655 0.64742 0.0
O229 O 0.61031 0.938 0.57154 0.0
C230 C 0.60568 0.92848 0.61407 0.0
C231 C 0.61567 1.003 0.45677 0.0
C232 C 0.62056 0.99262 0.65219 0.0
C233 C 0.56237 0.98527 0.56654 0.0
O234 O 0.57507 0.99729 0.55116 0.0
O235 O 0.56738 0.96884 0.58498 0.0
O236 O 0.6105 0.01607 0.49104 0.0
O237 O 0.61537 0.98517 0.47192 0.0
O238 O 0.29395 0.35423 0.91304 0.0
Cd239 Cd 0.30762 0.34164 0.84896 0.0
Cd240 Cd 0.27365 0.35815 0.80389 0.0
O241 O 0.27185 0.37312 0.87662 0.0
O242 O 0.33253 0.33552 0.88566 0.0
O243 O 0.3302 0.35736 0.82185 0.0
C244 C 0.3402 0.34965 0.85989 0.0
C245 C 0.26757 0.37162 0.71945 0.0
C246 C 0.28132 0.36753 0.91737 0.0
C247 C 0.2779 0.31419 0.80797 0.0
O248 O 0.26707 0.32908 0.80475 0.0
O249 O 0.29576 0.31591 0.8198 0.0
O250 O 0.25389 0.36907 0.75395 0.0
O251 O 0.28508 0.36799 0.73455 0.0
O252 O 0.91166 0.04183 0.16763 0.0
Cd253 Cd 0.92681 0.0586 0.1151 0.0
Cd254 Cd 0.912 0.02853 0.04832 0.0
O255 O 0.89584 0.02152 0.11536 0.0
O256 O 0.92896 0.08294 0.15914 0.0
O257 O 0.91177 0.08114 0.08482 0.0
C258 C 0.91656 0.09076 0.12733 0.0
C259 C 0.89968 0.02665 0.96124 0.0
C260 C 0.89924 0.02858 0.16151 0.0
C261 C 0.95584 0.03133 0.06557 0.0
O262 O 0.94108 0.02202 0.04993 0.0
O263 O 0.95385 0.0476 0.08975 0.0
O264 O 0.90275 0.01135 0.98923 0.0
O265 O 0.90232 0.04324 0.98419 0.0
O266 O 0.22307 0.66177 0.40738 0.0
Cd267 Cd 0.20922 0.67394 0.34367 0.0
Cd268 Cd 0.245 0.66298 0.29956 0.0
O269 O 0.24889 0.64797 0.37119 0.0
O270 O 0.18301 0.67658 0.37728 0.0
O271 O 0.18909 0.65709 0.30862 0.0
C272 C 0.17732 0.66292 0.34588 0.0
C273 C 0.24762 0.65001 0.21257 0.0
C274 C 0.23791 0.65103 0.41158 0.0
C275 C 0.23564 0.70579 0.30901 0.0
O276 O 0.24847 0.69266 0.30295 0.0
O277 O 0.21823 0.70132 0.32047 0.0
O278 O 0.26278 0.65345 0.24102 0.0
O279 O 0.23089 0.65266 0.23508 0.0
O280 O 0.60967 0.04012 0.93967 0.0
Cd281 Cd 0.59357 0.05867 0.98663 0.0
Cd282 Cd 0.60362 0.02431 0.0562 0.0
O283 O 0.62035 0.01654 0.99114 0.0
O284 O 0.58985 0.07924 0.93146 0.0
O285 O 0.6067 0.08404 1.00503 0.0
C286 C 0.6013 0.09012 0.95858 0.0
C287 C 0.61451 0.01605 0.14182 0.0
C288 C 0.61982 0.02497 0.94619 0.0
C289 C 0.56112 0.03409 0.03055 0.0
O290 O 0.57401 0.02261 0.04817 0.0
O291 O 0.56576 0.05003 0.00857 0.0
O292 O 0.60896 1.00313 0.10796 0.0
O293 O 0.61454 0.03385 0.12646 0.0
O294 O 0.22456 0.3611 0.21024 0.0
Cd295 Cd 0.20975 0.34728 0.2697 0.0
Cd296 Cd 0.24717 0.35688 0.31755 0.0
O297 O 0.25137 0.37213 0.24684 0.0
O298 O 0.18496 0.34407 0.22981 0.0
O299 O 0.18741 0.36241 0.30213 0.0
C300 C 0.1773 0.35672 0.26164 0.0
C301 C 0.25577 0.36888 0.40258 0.0
C302 C 0.24003 0.37078 0.20697 0.0
C303 C 0.2359 0.31443 0.30266 0.0
O304 O 0.24877 0.32707 0.31204 0.0
O305 O 0.21881 0.31951 0.28949 0.0
O306 O 0.26865 0.36365 0.36775 0.0
O307 O 0.23786 0.36841 0.38797 0.0
O308 O 0.9102 0.98077 0.44807 0.0
Cd309 Cd 0.9256 0.96251 0.49659 0.0
Cd310 Cd 0.91569 0.99582 0.56515 0.0
O311 O 0.89935 1.00435 0.50045 0.0
O312 O 0.92881 0.94065 0.44407 0.0
O313 O 0.91161 0.938 0.51822 0.0
C314 C 0.91697 0.93073 0.47263 0.0
C315 C 0.90365 0.99888 0.65272 0.0
C316 C 0.90015 0.99601 0.45497 0.0
C317 C 0.95821 0.98706 0.54006 0.0
O318 O 0.9453 0.9986 0.55816 0.0
O319 O 0.9535 0.97105 0.51795 0.0
O320 O 0.90858 0.01379 0.62527 0.0
O321 O 0.90483 0.98212 0.62956 0.0
O322 O 0.29383 0.66248 0.70132 0.0
Cd323 Cd 0.30805 0.67559 0.76287 0.0
Cd324 Cd 0.27517 0.66023 0.8142 0.0
O325 O 0.27136 0.64525 0.74184 0.0
O326 O 0.33406 0.67834 0.72764 0.0
O327 O 0.32883 0.65893 0.79615 0.0
C328 C 0.34017 0.66459 0.75803 0.0
C329 C 0.27365 0.64744 0.90111 0.0
C330 C 0.28055 0.64993 0.69951 0.0
C331 C 0.27894 0.70414 0.80602 0.0
O332 O 0.26852 0.68934 0.8142 0.0
O333 O 0.29638 0.70219 0.78937 0.0
O334 O 0.25827 0.64958 0.87256 0.0
O335 O 0.29012 0.65095 0.87843 0.0
O336 O 0.40908 0.0391 0.4475 0.0
Cd337 Cd 0.42406 0.05719 0.49761 0.0
Cd338 Cd 0.41446 0.02399 0.56299 0.0
O339 O 0.39815 0.0155 0.4982 0.0
O340 O 0.42767 0.0789 0.44605 0.0
O341 O 0.40999 0.08184 0.51945 0.0
C342 C 0.41571 0.08901 0.47445 0.0
C343 C 0.4027 0.02166 0.65062 0.0
C344 C 0.39909 0.02392 0.45321 0.0
C345 C 0.45681 0.03265 0.53966 0.0
O346 O 0.44404 0.02088 0.55598 0.0
O347 O 0.45191 0.04882 0.51928 0.0
O348 O 0.40741 1.00649 0.62309 0.0
O349 O 0.40382 0.03827 0.62735 0.0
O350 O 0.7209 0.66145 0.20408 0.0
Cd351 Cd 0.70661 0.6741 0.2671 0.0
Cd352 Cd 0.74311 0.6629 0.31182 0.0
O353 O 0.74652 0.64754 0.23992 0.0
O354 O 0.68071 0.67656 0.23218 0.0
O355 O 0.68603 0.65753 0.30135 0.0
C356 C 0.67467 0.66308 0.26337 0.0
C357 C 0.75107 0.65092 0.39715 0.0
C358 C 0.73565 0.65055 0.19972 0.0
C359 C 0.73328 0.70588 0.30123 0.0
O360 O 0.74589 0.6926 0.30744 0.0
O361 O 0.71581 0.70161 0.28998 0.0
O362 O 0.76421 0.65499 0.3622 0.0
O363 O 0.73323 0.65234 0.38235 0.0
O364 O 0.10795 0.97886 0.94913 0.0
Cd365 Cd 0.09364 0.96217 1.00375 0.0
Cd366 Cd 0.10834 0.99221 0.06847 0.0
O367 O 0.12389 0.99935 1.00056 0.0
O368 O 0.09206 0.93703 0.96313 0.0
O369 O 0.10967 0.94077 0.03617 0.0
C370 C 0.10492 0.9302 0.99535 0.0
C371 C 0.12138 0.9942 0.15463 0.0
C372 C 0.12023 0.99229 0.95458 0.0
C373 C 0.06449 0.9891 0.05386 0.0
O374 O 0.07924 0.99861 0.0686 0.0
O375 O 0.06655 0.97278 0.02995 0.0
O376 O 0.11799 1.00946 0.12678 0.0
O377 O 0.11862 0.97758 0.13198 0.0
O378 O 0.78986 0.36069 0.68919 0.0
Cd379 Cd 0.80776 0.3452 0.73848 0.0
Cd380 Cd 0.77324 0.35417 0.80576 0.0
O381 O 0.76583 0.37085 0.74102 0.0
O382 O 0.83095 0.34363 0.69015 0.0
O383 O 0.83096 0.3595 0.76723 0.0
C384 C 0.83964 0.35516 0.72272 0.0
C385 C 0.76414 0.36517 0.89142 0.0
C386 C 0.7745 0.37057 0.69607 0.0
C387 C 0.78373 0.31189 0.77827 0.0
O388 O 0.77191 0.32452 0.79653 0.0
O389 O 0.79974 0.31695 0.75707 0.0
O390 O 0.75158 0.35928 0.85719 0.0
O391 O 0.78205 0.36539 0.87651 0.0
O392 O 0.41021 0.97738 0.16088 0.0
Cd393 Cd 0.42439 0.96066 0.10483 0.0
Cd394 Cd 0.41416 0.99343 0.04613 0.0
O395 O 0.39768 1.00083 0.11239 0.0
O396 O 0.42578 0.93578 0.14508 0.0
O397 O 0.40877 0.93932 0.07101 0.0
C398 C 0.41339 0.92886 0.11179 0.0
C399 C 0.40224 0.99548 0.95904 0.0
C400 C 0.39946 0.99225 0.15696 0.0
C401 C 0.45679 0.98552 0.06525 0.0
O402 O 0.44362 0.9974 0.0516 0.0
O403 O 0.45234 0.96893 0.08354 0.0
O404 O 0.40611 0.01078 0.98671 0.0
O405 O 0.40417 0.97888 0.98206 0.0
O406 O 0.79465 0.65938 0.90879 0.0
Cd407 Cd 0.80979 0.67341 0.85045 0.0
Cd408 Cd 0.77257 0.66289 0.80044 0.0
O409 O 0.76836 0.64754 0.87125 0.0
O410 O 0.83389 0.67728 0.89309 0.0
O411 O 0.83299 0.65894 0.82043 0.0
C412 C 0.84235 0.66491 0.862 0.0
C413 C 0.76426 0.65125 0.71458 0.0
C414 C 0.77941 0.64933 0.91166 0.0
C415 C 0.78321 0.70558 0.81563 0.0
O416 O 0.7706 0.69267 0.80626 0.0
O417 O 0.80035 0.70089 0.82932 0.0
O418 O 0.75126 0.65598 0.74961 0.0
O419 O 0.78213 0.65189 0.72947 0.0
O420 O 0.11023 0.04111 0.66614 0.0
Cd421 Cd 0.09616 0.05874 0.61298 0.0
Cd422 Cd 0.10566 0.02581 0.54906 0.0
O423 O 0.12137 0.01734 0.61495 0.0
O424 O 0.09551 0.08336 0.65598 0.0
O425 O 0.11196 0.08016 0.58027 0.0
C426 C 0.10775 0.0904 0.62235 0.0
C427 C 0.11826 0.02255 0.46223 0.0
C428 C 0.12015 0.02572 0.66032 0.0
C429 C 0.06312 0.0349 0.57116 0.0
O430 O 0.07601 0.0231 0.55433 0.0
O431 O 0.06793 0.05102 0.59241 0.0
O432 O 0.11314 1.0077 0.48971 0.0
O433 O 0.11699 0.03936 0.48507 0.0
O434 O 0.72848 0.35923 0.4113 0.0
Cd435 Cd 0.71124 0.34303 0.36213 0.0
Cd436 Cd 0.74259 0.35805 0.29191 0.0
O437 O 0.7487 0.37477 0.3582 0.0
O438 O 0.68917 0.33896 0.41334 0.0
O439 O 0.68635 0.35666 0.34059 0.0
C440 C 0.67912 0.35105 0.38573 0.0
C441 C 0.74988 0.36983 0.2063 0.0
C442 C 0.74161 0.37173 0.40436 0.0
C443 C 0.73901 0.3141 0.3134 0.0
O444 O 0.74813 0.32883 0.29687 0.0
O445 O 0.72269 0.31607 0.33725 0.0
O446 O 0.76321 0.36583 0.24031 0.0
O447 O 0.73213 0.36814 0.22182 0.0
H448 H 0.9719 0.49944 0.06656 0.0
H449 H 0.99038 0.55712 0.02603 0.0
H450 H 0.02414 0.54684 0.03194 0.0
H451 H 0.04836 0.52149 0.04702 0.0
H452 H 0.03011 0.46384 0.08843 0.0
H453 H 0.99625 0.47416 0.08361 0.0
C454 C 0.98328 0.50982 0.05912 0.0
C455 C 0.97852 0.52906 0.0457 0.0
C456 C 1.00271 0.5038 0.06254 0.0
C457 C 0.99354 0.54225 0.03644 0.0
C458 C 0.01288 0.53637 0.0397 0.0
C459 C 0.03702 0.51111 0.05493 0.0
C460 C 0.04184 0.49184 0.0678 0.0
C461 C 0.01762 0.51716 0.05239 0.0
C462 C 0.02687 0.47872 0.07835 0.0
C463 C 1.00749 0.48463 0.0756 0.0
H464 H 0.74795 0.79614 0.30021 0.0
H465 H 0.80509 0.77715 0.34625 0.0
H466 H 0.79438 0.7435 0.34372 0.0
H467 H 0.7689 0.71952 0.32813 0.0
H468 H 0.71167 0.73861 0.2831 0.0
H469 H 0.72237 0.77224 0.28598 0.0
C470 C 0.75815 0.78468 0.30955 0.0
C471 C 0.77739 0.78926 0.32317 0.0
C472 C 0.75185 0.76538 0.30845 0.0
C473 C 0.79025 0.77412 0.33554 0.0
C474 C 0.78412 0.75486 0.33415 0.0
C475 C 0.75869 0.731 0.31905 0.0
C476 C 0.73945 0.72643 0.30533 0.0
C477 C 0.76495 0.75032 0.32069 0.0
C478 C 0.72652 0.74161 0.29386 0.0
C479 C 0.73265 0.76087 0.29536 0.0
H480 H 0.48765 0.53743 0.61467 0.0
H481 H 0.46256 0.5024 0.48961 0.0
H482 H 0.49318 0.48534 0.4767 0.0
H483 H 0.5274 0.48006 0.50075 0.0
H484 H 0.55242 0.51505 0.62606 0.0
H485 H 0.52178 0.532 0.63915 0.0
C486 C 0.48894 0.52619 0.5843 0.0
C487 C 0.47274 0.52132 0.55321 0.0
C488 C 0.50665 0.51615 0.57734 0.0
C489 C 0.47471 0.50651 0.51437 0.0
C490 C 0.49226 0.49665 0.50693 0.0
C491 C 0.52609 0.49124 0.53128 0.0
C492 C 0.5423 0.49617 0.56226 0.0
C493 C 0.50834 0.50122 0.5384 0.0
C494 C 0.54027 0.5109 0.60133 0.0
C495 C 0.52271 0.52071 0.60888 0.0
H496 H 0.77165 0.22115 0.77358 0.0
H497 H 0.71488 0.23856 0.82959 0.0
H498 H 0.72452 0.27246 0.82647 0.0
H499 H 0.74903 0.2971 0.80892 0.0
H500 H 0.80574 0.2799 0.75218 0.0
H501 H 0.7961 0.24592 0.75483 0.0
C502 C 0.76131 0.23232 0.78498 0.0
C503 C 0.74251 0.2272 0.80185 0.0
C504 C 0.76697 0.25183 0.78323 0.0
C505 C 0.7294 0.24198 0.81638 0.0
C506 C 0.73493 0.26141 0.81473 0.0
C507 C 0.75937 0.28596 0.79724 0.0
C508 C 0.77817 0.29114 0.78056 0.0
C509 C 0.75369 0.26648 0.79848 0.0
C510 C 0.79122 0.27641 0.76526 0.0
C511 C 0.7857 0.25696 0.76671 0.0
H512 H 0.04645 0.49752 0.55268 0.0
H513 H 0.02955 0.55469 0.50125 0.0
H514 H 0.99561 0.54492 0.50155 0.0
H515 H 0.97079 0.5203 0.51712 0.0
H516 H 0.98779 0.46308 0.56789 0.0
H517 H 0.02171 0.47277 0.56668 0.0
C518 C 0.03538 0.50792 0.54164 0.0
C519 C 0.04062 0.52689 0.5272 0.0
C520 C 0.01591 0.50217 0.54154 0.0
C521 C 0.026 0.54004 0.51265 0.0
C522 C 1.00657 0.53445 0.51276 0.0
C523 C 0.98188 0.50987 0.52777 0.0
C524 C 0.97664 0.49094 0.54267 0.0
C525 C 1.00137 0.51556 0.52717 0.0
C526 C 0.99131 0.4777 0.55619 0.0
C527 C 0.01074 0.48326 0.55566 0.0
H528 H 0.74807 0.72032 0.78742 0.0
H529 H 0.80532 0.73753 0.83639 0.0
H530 H 0.79541 0.77148 0.83372 0.0
H531 H 0.77053 0.79622 0.81833 0.0
H532 H 0.71332 0.7791 0.76885 0.0
H533 H 0.72325 0.74511 0.77118 0.0
C534 C 0.75845 0.73146 0.79741 0.0
C535 C 0.77746 0.72628 0.81212 0.0
C536 C 0.75264 0.75097 0.79594 0.0
C537 C 0.79063 0.74101 0.82486 0.0
C538 C 0.78496 0.76046 0.82346 0.0
C539 C 0.76016 0.78509 0.80816 0.0
C540 C 0.74115 0.79028 0.79359 0.0
C541 C 0.76599 0.76559 0.80927 0.0
C542 C 0.72802 0.77558 0.78029 0.0
C543 C 0.7337 0.75613 0.78155 0.0
H544 H 0.54471 0.49926 0.03232 0.0
H545 H 0.52656 0.55303 0.10672 0.0
H546 H 0.4928 0.54284 0.10157 0.0
H547 H 0.46851 0.51867 0.0765 0.0
H548 H 0.48671 0.46493 1.00195 0.0
H549 H 0.52044 0.47515 1.00701 0.0
C550 C 0.53342 0.50885 0.04734 0.0
C551 C 0.53828 0.52696 0.06988 0.0
C552 C 0.51404 0.50286 0.04448 0.0
C553 C 0.52333 0.53906 0.08912 0.0
C554 C 0.504 0.53321 0.08627 0.0
C555 C 0.47982 0.5091 0.06144 0.0
C556 C 0.47497 0.49097 0.03895 0.0
C557 C 0.4992 0.51512 0.0642 0.0
C558 C 0.48992 0.47891 0.01954 0.0
C559 C 0.50924 0.48477 0.02234 0.0
H560 H 0.72849 0.27873 0.35487 0.0
H561 H 0.77116 0.30588 0.25377 0.0
H562 H 0.78827 0.2753 0.24317 0.0
H563 H 0.79146 0.24051 0.26193 0.0
H564 H 0.74853 0.21296 0.36092 0.0
H565 H 0.73158 0.24374 0.37318 0.0
C566 C 0.74145 0.27793 0.33029 0.0
C567 C 0.7484 0.29475 0.30536 0.0
C568 C 0.75143 0.26012 0.32418 0.0
C569 C 0.76535 0.29331 0.27377 0.0
C570 C 0.77527 0.27576 0.26763 0.0
C571 C 0.77851 0.24129 0.28659 0.0
C572 C 0.77139 0.2244 0.3105 0.0
C573 C 0.76854 0.25906 0.2928 0.0
C574 C 0.75439 0.22569 0.34183 0.0
C575 C 0.74461 0.24332 0.34885 0.0
H576 H 0.29362 0.27847 0.82781 0.0
H577 H 0.24208 0.30633 0.76808 0.0
H578 H 0.22665 0.275 0.75656 0.0
H579 H 0.22744 0.23945 0.76441 0.0
H580 H 0.27898 0.21181 0.82522 0.0
H581 H 0.29448 0.24306 0.83525 0.0
C582 C 0.27907 0.2777 0.81198 0.0
C583 C 0.26912 0.29482 0.79894 0.0
C584 C 0.27011 0.25957 0.80579 0.0
C585 C 0.25017 0.29345 0.77871 0.0
C586 C 0.24126 0.27549 0.77207 0.0
C587 C 0.24204 0.24026 0.77993 0.0
C588 C 0.2519 0.22317 0.79399 0.0
C589 C 0.25103 0.25842 0.78576 0.0
C590 C 0.27089 0.22462 0.81397 0.0
C591 C 0.27987 0.24254 0.81975 0.0
H592 H 0.24768 0.79635 0.30895 0.0
H593 H 0.30557 0.77889 0.26327 0.0
H594 H 0.2959 0.7449 0.26601 0.0
H595 H 0.27106 0.72019 0.28202 0.0
H596 H 0.21312 0.73798 0.3265 0.0
H597 H 0.22282 0.77184 0.32319 0.0
C598 C 0.25827 0.78516 0.29972 0.0
C599 C 0.2774 0.79025 0.2862 0.0
C600 C 0.25258 0.76569 0.30094 0.0
C601 C 0.29078 0.77545 0.2739 0.0
C602 C 0.28525 0.756 0.27544 0.0
C603 C 0.2605 0.73145 0.29086 0.0
C604 C 0.24135 0.72644 0.3046 0.0
C605 C 0.26618 0.75095 0.28893 0.0
C606 C 0.22792 0.74132 0.31576 0.0
C607 C 0.23348 0.76072 0.31401 0.0
H608 H 0.2472 0.22367 0.2928 0.0
H609 H 0.30427 0.23922 0.34717 0.0
H610 H 0.29491 0.2734 0.34734 0.0
H611 H 0.27059 0.29881 0.33183 0.0
H612 H 0.21343 0.28307 0.27851 0.0
H613 H 0.22281 0.24895 0.27859 0.0
C614 C 0.25767 0.2345 0.30452 0.0
C615 C 0.27648 0.2288 0.31971 0.0
C616 C 0.25215 0.25409 0.30499 0.0
C617 C 0.28973 0.24312 0.33519 0.0
C618 C 0.28437 0.26269 0.33536 0.0
C619 C 0.26012 0.28795 0.32035 0.0
C620 C 0.24129 0.2936 0.30512 0.0
C621 C 0.26562 0.26833 0.32039 0.0
C622 C 0.22798 0.27923 0.2905 0.0
C623 C 0.23335 0.25969 0.29039 0.0
H624 H 0.28957 0.73895 0.76314 0.0
H625 H 0.24768 0.71293 0.8686 0.0
H626 H 0.23107 0.74395 0.87953 0.0
H627 H 0.22807 0.77874 0.85859 0.0
H628 H 0.26977 0.80442 0.75161 0.0
H629 H 0.28644 0.77354 0.74169 0.0
C630 C 0.27693 0.74011 0.7889 0.0
C631 C 0.26999 0.72357 0.81504 0.0
C632 C 0.26716 0.75802 0.79444 0.0
C633 C 0.25339 0.72537 0.84779 0.0
C634 C 0.2438 0.74314 0.85405 0.0
C635 C 0.2407 0.77755 0.83282 0.0
C636 C 0.24755 0.79403 0.80608 0.0
C637 C 0.25044 0.75959 0.82726 0.0
C638 C 0.26409 0.7921 0.77303 0.0
C639 C 0.27374 0.77438 0.76729 0.0
H640 H 0.47176 0.99834 0.57386 0.0
H641 H 0.48858 0.05398 0.51191 0.0
H642 H 0.52254 0.04406 0.51426 0.0
H643 H 0.54737 0.01962 0.53323 0.0
H644 H 0.53062 0.96393 0.59495 0.0
H645 H 0.49664 0.97388 0.593 0.0
C646 C 0.48282 1.00837 0.56102 0.0
C647 C 0.47754 0.02694 0.54279 0.0
C648 C 0.50232 1.00253 0.56216 0.0
C649 C 0.49215 0.03964 0.52618 0.0
C650 C 0.5116 0.03396 0.52742 0.0
C651 C 0.53633 0.00959 0.54618 0.0
C652 C 0.54163 0.991 0.56416 0.0
C653 C 0.51683 0.01542 0.54515 0.0
C654 C 0.52703 0.97829 0.58085 0.0
C655 C 0.50758 0.98399 0.57983 0.0
H656 H 0.99035 0.03924 0.11537 0.0
H657 H 0.96489 1.00263 0.99439 0.0
H658 H 0.99559 0.98574 0.98153 0.0
H659 H 0.02995 0.981 1.00456 0.0
H660 H 0.05542 0.01764 0.12546 0.0
H661 H 0.02469 0.03447 0.13854 0.0
C662 C 0.99157 0.02769 0.0859 0.0
C663 C 0.97524 0.02232 0.05599 0.0
C664 C 0.00934 0.01777 0.07891 0.0
C665 C 0.97713 1.00712 0.01827 0.0
C666 C 0.99473 0.99736 0.01085 0.0
C667 C 0.02872 0.99253 0.03411 0.0
C668 C 0.04506 0.99795 0.06389 0.0
C669 C 0.01094 1.00243 0.04117 0.0
C670 C 0.04316 0.01312 0.10169 0.0
C671 C 0.02555 0.02284 0.10922 0.0
H672 H 0.54703 0.99984 0.06662 0.0
H673 H 0.5287 0.05485 1.00271 0.0
H674 H 0.49496 0.04451 1.00725 0.0
H675 H 0.47075 0.01988 0.02907 0.0
H676 H 0.48923 0.96482 0.09243 0.0
H677 H 0.52291 0.97521 0.088 0.0
C678 C 0.5357 0.00966 0.05378 0.0
C679 C 0.54049 0.02817 0.03445 0.0
C680 C 0.51636 1.00357 0.05616 0.0
C681 C 0.52551 0.04056 0.01782 0.0
C682 C 0.5062 0.03464 0.02034 0.0
C683 C 0.48211 0.01008 0.04184 0.0
C684 C 0.47737 0.99153 0.06107 0.0
C685 C 0.50147 0.01616 0.03933 0.0
C686 C 0.49237 0.97912 0.0774 0.0
C687 C 0.51166 0.98508 0.07498 0.0
H688 H 0.04863 1.0009 0.53325 0.0
H689 H 0.03092 0.0558 0.60175 0.0
H690 H 0.99711 0.04566 0.59891 0.0
H691 H 0.97265 0.02119 0.57757 0.0
H692 H 0.99041 0.9663 0.50904 0.0
H693 H 0.02419 0.97649 0.51173 0.0
C694 C 0.03741 0.01074 0.54744 0.0
C695 C 0.04242 0.02916 0.56765 0.0
C696 C 0.01801 1.00477 0.54598 0.0
C697 C 0.02758 0.04159 0.58592 0.0
C698 C 1.00822 0.03577 0.58441 0.0
C699 C 0.98387 0.01137 0.56334 0.0
C700 C 0.97888 0.99292 0.54322 0.0
C701 C 1.00328 0.01737 0.56471 0.0
C702 C 0.99373 0.98053 0.52482 0.0
C703 C 0.01308 0.98637 0.52625 0.0
H704 H 0.11897 0.47814 0.87169 0.0
H705 H 0.11991 0.53854 0.91651 0.0
H706 H 0.12145 0.54767 0.82237 0.0
H707 H 0.11912 0.53865 0.7272 0.0
H708 H 0.11705 0.47826 0.68255 0.0
H709 H 0.11955 0.46904 0.77638 0.0
C710 C 0.11984 0.49328 0.8609 0.0
C711 C 0.11915 0.50761 0.90111 0.0
C712 C 0.12035 0.49847 0.80654 0.0
C713 C 0.12028 0.52719 0.88638 0.0
C714 C 0.12112 0.53245 0.83248 0.0
C715 C 0.11952 0.52347 0.73793 0.0
C716 C 0.11771 0.5092 0.69789 0.0
C717 C 0.12063 0.51824 0.79218 0.0
C718 C 0.11826 0.48958 0.71254 0.0
C719 C 0.11967 0.48427 0.76627 0.0
H720 H 0.77939 0.86853 0.96122 0.0
H721 H 0.71718 0.86894 0.97705 0.0
H722 H 0.72008 0.87053 0.07449 0.0
H723 H 0.74022 0.8684 0.15508 0.0
H724 H 0.80243 0.8674 0.13927 0.0
H725 H 0.79956 0.86965 0.04197 0.0
C726 C 0.76644 0.86925 0.9859 0.0
C727 C 0.74809 0.86841 0.96177 0.0
C728 C 0.76822 0.86991 0.04198 0.0
C729 C 0.73149 0.86949 0.99446 0.0
C730 C 0.73313 0.87032 0.05026 0.0
C731 C 0.75317 0.86894 0.13046 0.0
C732 C 0.77152 0.86752 0.1545 0.0
C733 C 0.75141 0.87001 0.07446 0.0
C734 C 0.78813 0.86839 0.12191 0.0
C735 C 0.7865 0.86961 0.06619 0.0
H736 H 0.39598 0.53103 0.20608 0.0
H737 H 0.39329 0.46896 0.22201 0.0
H738 H 0.38993 0.47246 0.3191 0.0
H739 H 0.3913 0.49292 0.39985 0.0
H740 H 0.39473 0.55496 0.38407 0.0
H741 H 0.39396 0.55168 0.28656 0.0
C742 C 0.39439 0.51826 0.23067 0.0
C743 C 0.39511 0.49974 0.20673 0.0
C744 C 0.39269 0.52037 0.28659 0.0
C745 C 0.39287 0.48338 0.23927 0.0
C746 C 0.39101 0.48537 0.29489 0.0
C747 C 0.39155 0.50577 0.37517 0.0
C748 C 0.39327 0.52416 0.39937 0.0
C749 C 0.39143 0.50376 0.31907 0.0
C750 C 0.39347 0.54063 0.36664 0.0
C751 C 0.39313 0.53876 0.3108 0.0
H752 H 0.73399 0.14269 0.62061 0.0
H753 H 0.79384 0.15004 0.66415 0.0
H754 H 0.80348 0.14725 0.57028 0.0
H755 H 0.79467 0.14622 0.47484 0.0
H756 H 0.73477 0.13945 0.43111 0.0
H757 H 0.72555 0.13823 0.5255 0.0
C758 C 0.74917 0.14337 0.60969 0.0
C759 C 0.76311 0.14676 0.6496 0.0
C760 C 0.75466 0.14197 0.55528 0.0
C761 C 0.78274 0.14755 0.63448 0.0
C762 C 0.7883 0.146 0.58063 0.0
C763 C 0.77965 0.14408 0.48588 0.0
C764 C 0.76546 0.14308 0.44567 0.0
C765 C 0.77435 0.14372 0.54051 0.0
C766 C 0.74604 0.14035 0.461 0.0
C767 C 0.74071 0.13973 0.51512 0.0
H768 H 0.89808 0.54223 0.21802 0.0
H769 H 0.89639 0.48195 0.17219 0.0
H770 H 0.89405 0.47269 0.26613 0.0
H771 H 0.89591 0.48145 0.36184 0.0
H772 H 0.89841 0.5417 0.40761 0.0
H773 H 0.8968 0.55112 0.31372 0.0
C774 C 0.89685 0.52708 0.22848 0.0
C775 C 0.89756 0.51283 0.18786 0.0
C776 C 0.89582 0.52179 0.28289 0.0
C777 C 0.89598 0.49327 0.20242 0.0
C778 C 0.8947 0.48792 0.2563 0.0
C779 C 0.89576 0.49665 0.35138 0.0
C780 C 0.89743 0.51081 0.39197 0.0
C781 C 0.89513 0.50202 0.29698 0.0
C782 C 0.89724 0.53045 0.37741 0.0
C783 C 0.89637 0.53588 0.32356 0.0
H784 H 0.22697 0.14852 0.97488 0.0
H785 H 0.28699 0.13887 0.93371 0.0
H786 H 0.29545 0.1383 0.02842 0.0
H787 H 0.2864 0.14445 0.12239 0.0
H788 H 0.22649 0.15508 0.16315 0.0
H789 H 0.21744 0.15121 0.06948 0.0
C790 C 0.24183 0.1459 0.98663 0.0
C791 C 0.25633 0.14396 0.94725 0.0
C792 C 0.24669 0.14601 0.04122 0.0
C793 C 0.27554 0.14056 0.9632 0.0
C794 C 0.28042 0.1403 0.01741 0.0
C795 C 0.27134 0.14564 0.11089 0.0
C796 C 0.25721 0.15031 0.14966 0.0
C797 C 0.26622 0.14365 0.05671 0.0
C798 C 0.23772 0.15168 0.13409 0.0
C799 C 0.2325 0.14949 0.08045 0.0
H800 H 0.62282 0.53679 0.88273 0.0
H801 H 0.61692 0.47691 0.92761 0.0
H802 H 0.62069 0.46692 0.83428 0.0
H803 H 0.62147 0.47542 0.73896 0.0
H804 H 0.62615 0.53537 0.6938 0.0
H805 H 0.62739 0.54499 0.7879 0.0
C806 C 0.6227 0.52154 0.87221 0.0
C807 C 0.61931 0.50767 0.91203 0.0
C808 C 0.62453 0.51587 0.81821 0.0
C809 C 0.61929 0.48794 0.89771 0.0
C810 C 0.62142 0.48218 0.84427 0.0
C811 C 0.62319 0.49054 0.74968 0.0
C812 C 0.62348 0.50465 0.70942 0.0
C813 C 0.62343 0.49606 0.80399 0.0
C814 C 0.62572 0.5242 0.72402 0.0
C815 C 0.62636 0.52975 0.77788 0.0
H816 H 0.22573 0.87156 0.62442 0.0
H817 H 0.28567 0.87725 0.66902 0.0
H818 H 0.29512 0.87833 0.57483 0.0
H819 H 0.2868 0.87363 0.48005 0.0
H820 H 0.22694 0.86684 0.43569 0.0
H821 H 0.21708 0.8704 0.52915 0.0
C822 C 0.24081 0.87344 0.61355 0.0
C823 C 0.25497 0.8741 0.65371 0.0
C824 C 0.24622 0.87361 0.55919 0.0
C825 C 0.27446 0.87654 0.6389 0.0
C826 C 0.27991 0.87709 0.58498 0.0
C827 C 0.27158 0.87324 0.49073 0.0
C828 C 0.25768 0.86971 0.45098 0.0
C829 C 0.26599 0.87499 0.54479 0.0
C830 C 0.238 0.86934 0.46551 0.0
C831 C 0.23231 0.87136 0.51903 0.0
H832 H 0.62018 0.03993 0.22758 0.0
H833 H 0.6187 0.97965 0.18151 0.0
H834 H 0.62124 0.97018 0.27513 0.0
H835 H 0.62021 0.97898 0.37059 0.0
H836 H 0.62043 0.03927 0.41682 0.0
H837 H 0.62231 0.04869 0.32296 0.0
C838 C 0.62075 0.02472 0.23795 0.0
C839 C 0.61905 0.01055 0.19762 0.0
C840 C 0.62183 0.01934 0.29208 0.0
C841 C 0.61982 0.99089 0.21178 0.0
C842 C 0.62124 0.98543 0.26538 0.0
C843 C 0.62102 0.99417 0.36017 0.0
C844 C 0.61998 1.00838 0.40066 0.0
C845 C 0.62169 0.99953 0.30598 0.0
C846 C 0.62105 0.028 0.38644 0.0
C847 C 0.62207 0.03343 0.33271 0.0
H848 H 0.23215 0.3776 0.48786 0.0
H849 H 0.29219 0.36977 0.44418 0.0
H850 H 0.30146 0.37209 0.53813 0.0
H851 H 0.29225 0.37283 0.63356 0.0
H852 H 0.23216 0.38011 0.67737 0.0
H853 H 0.22332 0.38179 0.58302 0.0
C854 C 0.24729 0.37672 0.49877 0.0
C855 C 0.2614 0.37333 0.45881 0.0
C856 C 0.25256 0.37784 0.55321 0.0
C857 C 0.28097 0.37228 0.4739 0.0
C858 C 0.28631 0.37355 0.52779 0.0
C859 C 0.27727 0.37516 0.62254 0.0
C860 C 0.26291 0.37617 0.66273 0.0
C861 C 0.27219 0.37581 0.56795 0.0
C862 C 0.24355 0.37918 0.64748 0.0
C863 C 0.23844 0.38007 0.59338 0.0
H864 H 0.89415 0.99373 0.9031 0.0
H865 H 0.89671 0.05584 0.88817 0.0
H866 H 0.89617 0.05271 0.79061 0.0
H867 H 0.89878 0.03223 0.70997 0.0
H868 H 0.89708 0.97009 0.7251 0.0
H869 H 0.89331 0.97338 0.82212 0.0
C870 C 0.89426 1.00663 0.87859 0.0
C871 C 0.89568 0.025 0.90303 0.0
C872 C 0.8943 1.0047 0.82248 0.0
C873 C 0.89568 0.04153 0.87054 0.0
C874 C 0.89548 0.03974 0.81467 0.0
C875 C 0.89732 0.01939 0.73436 0.0
C876 C 0.89845 1.00092 0.71026 0.0
C877 C 0.8954 0.02138 0.79024 0.0
C878 C 0.89636 0.98447 0.74252 0.0
C879 C 0.89426 0.98634 0.79809 0.0
H880 H 0.24093 0.64233 0.96108 0.0
H881 H 0.30313 0.64427 0.97346 0.0
H882 H 0.30061 0.64334 0.07109 0.0
H883 H 0.28068 0.64541 0.15311 0.0
H884 H 0.21846 0.64424 0.14057 0.0
H885 H 0.2211 0.64125 0.04323 0.0
C886 C 0.25397 0.6422 0.98502 0.0
C887 C 0.2722 0.64349 0.95966 0.0
C888 C 0.25241 0.64199 0.04137 0.0
C889 C 0.28891 0.64332 0.99162 0.0
C890 C 0.28748 0.64288 0.04762 0.0
C891 C 0.26768 0.64419 0.12923 0.0
C892 C 0.24938 0.6452 0.1544 0.0
C893 C 0.26929 0.64274 0.07298 0.0
C894 C 0.23273 0.64356 0.12254 0.0
C895 C 0.23423 0.64192 0.0667 0.0
H896 H 0.3966 0.02828 0.90151 0.0
H897 H 0.39816 0.96604 0.88626 0.0
H898 H 0.3963 0.96872 0.78887 0.0
H899 H 0.39799 0.98874 0.70812 0.0
H900 H 0.39721 0.05099 0.72336 0.0
H901 H 0.39477 0.04827 0.82071 0.0
C902 C 0.39623 0.01528 0.87698 0.0
C903 C 0.39775 0.99699 0.90119 0.0
C904 C 0.39546 0.01693 0.82095 0.0
C905 C 0.39709 0.9803 0.86875 0.0
C906 C 0.39612 0.98182 0.81299 0.0
C907 C 0.397 1.00173 0.73263 0.0
C908 C 0.39803 0.02005 0.70845 0.0
C909 C 0.39588 1.00006 0.78863 0.0
C910 C 0.39655 0.03671 0.74086 0.0
C911 C 0.39523 0.03517 0.79659 0.0
H912 H 0.7271 0.64706 0.48405 0.0
H913 H 0.78734 0.64596 0.43792 0.0
H914 H 0.79677 0.6441 0.53181 0.0
H915 H 0.7881 0.64599 0.62763 0.0
H916 H 0.72786 0.64785 0.67374 0.0
H917 H 0.71837 0.64601 0.57985 0.0
C918 C 0.74228 0.64608 0.49443 0.0
C919 C 0.75645 0.64678 0.45371 0.0
C920 C 0.74767 0.64531 0.54883 0.0
C921 C 0.77607 0.64553 0.4682 0.0
C922 C 0.78152 0.64453 0.52205 0.0
C923 C 0.77289 0.64567 0.61724 0.0
C924 C 0.75876 0.64719 0.65796 0.0
C925 C 0.76747 0.64489 0.56283 0.0
C926 C 0.73911 0.64678 0.64346 0.0
C927 C 0.73363 0.64578 0.5896 0.0
H928 H 0.12326 0.98908 0.40568 0.0
H929 H 0.12502 0.05119 0.38954 0.0
H930 H 0.12868 0.04768 0.29254 0.0
H931 H 0.12746 0.02718 0.21194 0.0
H932 H 0.12474 0.96511 0.22789 0.0
H933 H 0.1257 0.96842 0.32537 0.0
C934 C 0.12473 1.00186 0.38108 0.0
C935 C 0.12361 0.02039 0.40487 0.0
C936 C 0.12655 0.99975 0.32522 0.0
C937 C 0.12573 0.03677 0.37235 0.0
C938 C 0.12775 0.03477 0.3168 0.0
C939 C 0.12743 0.01433 0.23664 0.0
C940 C 0.1258 0.99592 0.21255 0.0
C941 C 0.1276 0.01636 0.2927 0.0
C942 C 0.12591 0.97945 0.24527 0.0
C943 C 0.12635 0.98135 0.30109 0.0
H944 H 0.72588 0.37152 0.1202 0.0
H945 H 0.78574 0.37712 0.16564 0.0
H946 H 0.79536 0.37821 0.07158 0.0
H947 H 0.78719 0.37377 0.97656 0.0
H948 H 0.72741 0.36714 0.93135 0.0
H949 H 0.7174 0.37044 0.02477 0.0
C950 C 0.74098 0.37337 0.10954 0.0
C951 C 0.75506 0.37404 0.14993 0.0
C952 C 0.74649 0.37357 0.05524 0.0
C953 C 0.77459 0.37642 0.13537 0.0
C954 C 0.78014 0.37698 0.08152 0.0
C955 C 0.77196 0.37335 0.98705 0.0
C956 C 0.75812 0.36998 0.94703 0.0
C957 C 0.76628 0.37496 0.0411 0.0
C958 C 0.73842 0.36954 0.96135 0.0
C959 C 0.73265 0.3714 0.01486 0.0
H960 H 0.13189 0.54254 0.35651 0.0
H961 H 0.12962 0.4861 0.42901 0.0
H962 H 0.13417 0.47086 0.34122 0.0
H963 H 0.13095 0.4738 0.24381 0.0
H964 H 0.13112 0.53029 0.17127 0.0
H965 H 0.13572 0.54531 0.25914 0.0
C966 C 0.13293 0.5269 0.35323 0.0
C967 C 0.12985 0.51542 0.39876 0.0
C968 C 0.13489 0.51828 0.30255 0.0
C969 C 0.13172 0.49523 0.39439 0.0
C970 C 0.13415 0.48651 0.34413 0.0
C971 C 0.13252 0.48938 0.24712 0.0
C972 C 0.13013 0.50099 0.20154 0.0
C973 C 0.13453 0.4979 0.29781 0.0
C974 C 0.13269 0.52107 0.20593 0.0
C975 C 0.13515 0.52967 0.25623 0.0
H976 H 0.72454 0.87769 0.61349 0.0
H977 H 0.78085 0.87787 0.68734 0.0
H978 H 0.79609 0.88195 0.59961 0.0
H979 H 0.79352 0.87834 0.50203 0.0
H980 H 0.73728 0.87646 0.42811 0.0
H981 H 0.72183 0.88065 0.51583 0.0
C982 C 0.74013 0.87912 0.61049 0.0
C983 C 0.75161 0.87698 0.65653 0.0
C984 C 0.74878 0.88092 0.55989 0.0
C985 C 0.77172 0.8793 0.65241 0.0
C986 C 0.78045 0.88147 0.60219 0.0
C987 C 0.77788 0.87937 0.50502 0.0
C988 C 0.76651 0.87662 0.45901 0.0
C989 C 0.76915 0.88121 0.5556 0.0
C990 C 0.74632 0.8784 0.46305 0.0
C991 C 0.73749 0.88061 0.51326 0.0
H992 H 0.38862 0.54667 0.75098 0.0
H993 H 0.38538 0.49067 0.67436 0.0
H994 H 0.38057 0.47544 0.76161 0.0
H995 H 0.38454 0.47764 0.85922 0.0
H996 H 0.38937 0.53357 0.93563 0.0
H997 H 0.38577 0.54936 0.84887 0.0
C998 C 0.38631 0.53118 0.75335 0.0
C999 C 0.38779 0.5197 0.70669 0.0
C1000 C 0.38407 0.52255 0.80359 0.0
C1001 C 0.38441 0.49975 0.70985 0.0
C1002 C 0.38184 0.49105 0.75976 0.0
C1003 C 0.38425 0.49331 0.85702 0.0
C1004 C 0.38769 0.50445 0.90342 0.0
C1005 C 0.38274 0.50221 0.80692 0.0
C1006 C 0.38689 0.52471 0.9004 0.0
C1007 C 0.38502 0.53372 0.85072 0.0
H1008 H 0.74964 0.14026 0.14915 0.0
H1009 H 0.80978 0.14764 0.10807 0.0
H1010 H 0.80243 0.14374 0.01323 0.0
H1011 H 0.77816 0.14459 0.94165 0.0
H1012 H 0.71778 0.13915 0.98261 0.0
H1013 H 0.72593 0.1355 0.07694 0.0
C1014 C 0.76117 0.14038 0.1195 0.0
C1015 C 0.78013 0.14454 0.13544 0.0
C1016 C 0.75675 0.13876 0.06463 0.0
C1017 C 0.79497 0.14474 0.0966 0.0
C1018 C 0.79079 0.14257 0.04229 0.0
C1019 C 0.76688 0.14194 0.97101 0.0
C1020 C 0.74742 0.14245 0.9553 0.0
C1021 C 0.77161 0.14053 0.02564 0.0
C1022 C 0.7329 0.13909 0.99386 0.0
C1023 C 0.73752 0.13708 0.04793 0.0
H1024 H 0.89512 0.52673 0.68621 0.0
H1025 H 0.89034 0.46639 0.72653 0.0
H1026 H 0.88764 0.4747 0.8214 0.0
H1027 H 0.8927 0.49859 0.89355 0.0
H1028 H 0.89903 0.55879 0.8529 0.0
H1029 H 0.89477 0.55114 0.75835 0.0
C1030 C 0.89285 0.51549 0.71563 0.0
C1031 C 0.89323 0.496 0.69947 0.0
C1032 C 0.89195 0.52031 0.77048 0.0
C1033 C 0.89035 0.48153 0.73811 0.0
C1034 C 0.88889 0.48625 0.79246 0.0
C1035 C 0.8926 0.51006 0.86413 0.0
C1036 C 0.89656 0.52913 0.88018 0.0
C1037 C 0.89062 0.50551 0.80934 0.0
C1038 C 0.89636 0.54389 0.84151 0.0
C1039 C 0.89395 0.53955 0.7873 0.0
H1040 H 0.22282 0.13992 0.60313 0.0
H1041 H 0.2796 0.1338 0.67207 0.0
H1042 H 0.29363 0.12922 0.58273 0.0
H1043 H 0.29041 0.13481 0.48619 0.0
H1044 H 0.23374 0.14257 0.41759 0.0
H1045 H 0.21889 0.1381 0.50559 0.0
C1046 C 0.23819 0.13701 0.59857 0.0
C1047 C 0.25028 0.13772 0.64362 0.0
C1048 C 0.24616 0.13494 0.54719 0.0
C1049 C 0.27007 0.1335 0.63775 0.0
C1050 C 0.2781 0.13105 0.58668 0.0
C1051 C 0.27477 0.13494 0.49032 0.0
C1052 C 0.26318 0.13957 0.44603 0.0
C1053 C 0.26641 0.13295 0.54116 0.0
C1054 C 0.24296 0.13925 0.45132 0.0
C1055 C 0.23447 0.13687 0.50171 0.0
H1056 H 0.62701 0.54219 0.25448 0.0
H1057 H 0.62519 0.48593 0.17862 0.0
H1058 H 0.62988 0.47047 0.2653 0.0
H1059 H 0.6271 0.4731 0.36308 0.0
H1060 H 0.62753 0.52929 0.43927 0.0
H1061 H 0.63126 0.5447 0.35191 0.0
C1062 C 0.62814 0.52655 0.25681 0.0
C1063 C 0.62521 0.51517 0.21068 0.0
C1064 C 0.63037 0.51779 0.30684 0.0
C1065 C 0.62719 0.49498 0.21376 0.0
C1066 C 0.62972 0.48613 0.26336 0.0
C1067 C 0.62859 0.48869 0.36056 0.0
C1068 C 0.62658 0.50014 0.40704 0.0
C1069 C 0.6302 0.4974 0.31031 0.0
C1070 C 0.62891 0.52025 0.40381 0.0
C1071 C 0.63085 0.52905 0.35386 0.0
H1072 H 0.22313 0.8794 1.00021 0.0
H1073 H 0.27929 0.88036 0.92428 0.0
H1074 H 0.29467 0.88427 0.01167 0.0
H1075 H 0.29223 0.87993 0.10905 0.0
H1076 H 0.23601 0.87765 0.18466 0.0
H1077 H 0.2205 0.88224 0.09799 0.0
C1078 C 0.2387 0.88104 1.00281 0.0
C1079 C 0.25016 0.87912 0.95639 0.0
C1080 C 0.2474 0.88277 0.05309 0.0
C1081 C 0.27024 0.88166 0.9597 0.0
C1082 C 0.27903 0.88371 0.00967 0.0
C1083 C 0.27659 0.88096 0.10667 0.0
C1084 C 0.26524 0.87789 0.15273 0.0
C1085 C 0.2678 0.88312 0.05664 0.0
C1086 C 0.24504 0.87973 0.14959 0.0
C1087 C 0.23616 0.88221 0.09999 0.0
H1088 H 0.62939 0.97396 0.74383 0.0
H1089 H 0.63046 0.0303 0.67043 0.0
H1090 H 0.6349 0.04544 0.75816 0.0
H1091 H 0.63095 0.04292 0.85551 0.0
H1092 H 0.62795 0.98669 0.92898 0.0
H1093 H 0.63231 0.97119 0.8414 0.0
C1094 C 0.6311 0.98952 0.74693 0.0
C1095 C 0.62903 1.00107 0.70108 0.0
C1096 C 0.63306 0.99813 0.79754 0.0
C1097 C 0.63176 0.02113 0.70527 0.0
C1098 C 0.63415 0.02981 0.75548 0.0
C1099 C 0.63179 0.02726 0.85247 0.0
C1100 C 0.6286 0.01592 0.8982 0.0
C1101 C 0.63366 0.01851 0.80196 0.0
C1102 C 0.63018 0.9957 0.89419 0.0
C1103 C 0.63249 0.98685 0.84406 0.0
H1104 H 0.27615 0.37581 0.16554 0.0
H1105 H 0.21562 0.38191 0.12797 0.0
H1106 H 0.22341 0.38523 0.03309 0.0
H1107 H 0.24686 0.37993 0.95964 0.0
H1108 H 0.30714 0.37176 0.9975 0.0
H1109 H 0.30013 0.37608 0.09264 0.0
C1110 C 0.26475 0.37852 0.13678 0.0
C1111 C 0.24536 0.3783 0.1536 0.0
C1112 C 0.26928 0.37972 0.08188 0.0
C1113 C 0.23069 0.38176 0.11583 0.0
C1114 C 0.23512 0.38357 0.06147 0.0
C1115 C 0.25849 0.37972 0.98864 0.0
C1116 C 0.27739 0.37522 0.97176 0.0
C1117 C 0.25428 0.38158 0.04371 0.0
C1118 C 0.29238 0.37492 0.00973 0.0
C1119 C 0.2884 0.37734 0.06421 0.0
H1120 H 0.88927 0.97819 0.36328 0.0
H1121 H 0.89264 0.03438 0.43896 0.0
H1122 H 0.88842 0.04992 0.3521 0.0
H1123 H 0.89102 0.04717 0.25419 0.0
H1124 H 0.88908 0.99098 0.17825 0.0
H1125 H 0.88504 0.97574 0.26578 0.0
C1126 C 0.88855 0.99385 0.36089 0.0
C1127 C 0.89175 1.00516 0.4071 0.0
C1128 C 0.88663 1.00263 0.31075 0.0
C1129 C 0.89038 0.02538 0.40386 0.0
C1130 C 0.88813 0.03426 0.35413 0.0
C1131 C 0.88915 0.03162 0.25679 0.0
C1132 C 0.89077 0.02012 0.21023 0.0
C1133 C 0.88735 0.023 0.30717 0.0
C1134 C 0.88797 1.00008 0.21367 0.0
C1135 C 0.88586 0.99137 0.26373 0.0
H1136 H 0.24469 0.64237 0.65984 0.0
H1137 H 0.30529 0.64133 0.61853 0.0
H1138 H 0.29745 0.63802 0.52375 0.0
H1139 H 0.27344 0.64169 0.45196 0.0
H1140 H 0.21284 0.64458 0.49339 0.0
H1141 H 0.22051 0.64059 0.58783 0.0
C1142 C 0.25612 0.64072 0.63018 0.0
C1143 C 0.27549 0.64228 0.64599 0.0
C1144 C 0.2515 0.63954 0.57533 0.0
C1145 C 0.29022 0.64032 0.60713 0.0
C1146 C 0.28576 0.63854 0.55285 0.0
C1147 C 0.26192 0.64086 0.48151 0.0
C1148 C 0.24266 0.64378 0.46573 0.0
C1149 C 0.26645 0.6391 0.53624 0.0
C1150 C 0.22785 0.64269 0.50458 0.0
C1151 C 0.2322 0.64044 0.55874 0.0
H1152 H 0.39134 0.97343 0.24887 0.0
H1153 H 0.38947 0.02996 0.17669 0.0
H1154 H 0.38493 0.04487 0.265 0.0
H1155 H 0.38851 0.04205 0.36239 0.0
H1156 H 0.39199 0.98561 0.43457 0.0
H1157 H 0.38839 0.97037 0.34651 0.0
C1158 C 0.38946 0.98899 0.25239 0.0
C1159 C 0.39124 1.00065 0.20664 0.0
C1160 C 0.38736 0.99745 0.30328 0.0
C1161 C 0.38833 0.02071 0.21142 0.0
C1162 C 0.38589 0.02924 0.26194 0.0
C1163 C 0.38796 0.02641 0.35896 0.0
C1164 C 0.39099 0.01493 0.40455 0.0
C1165 C 0.38646 0.01781 0.30818 0.0
C1166 C 0.38983 0.99473 0.39995 0.0
C1167 C 0.38796 0.98602 0.34955 0.0
H1168 H 0.77123 0.64074 0.15911 0.0
H1169 H 0.71081 0.64423 0.11778 0.0
H1170 H 0.71882 0.64043 0.02315 0.0
H1171 H 0.74327 0.64231 0.95144 0.0
H1172 H 0.80375 0.64013 0.99267 0.0
H1173 H 0.79547 0.63679 0.08715 0.0
C1174 C 0.75982 0.64007 0.12952 0.0
C1175 C 0.74053 0.64316 0.14541 0.0
C1176 C 0.76455 0.63838 0.0747 0.0
C1177 C 0.72585 0.64223 0.10651 0.0
C1178 C 0.7304 0.6401 0.05225 0.0
C1179 C 0.75459 0.64046 0.98092 0.0
C1180 C 0.77405 0.64182 0.96513 0.0
C1181 C 0.74975 0.63911 0.03564 0.0
C1182 C 0.7886 0.63943 1.0039 0.0
C1183 C 0.78391 0.63759 0.05807 0.0
H1184 H 0.12798 0.97402 0.86106 0.0
H1185 H 0.12995 0.03 0.93817 0.0
H1186 H 0.13391 0.0455 0.85098 0.0
H1187 H 0.13007 0.04331 0.75327 0.0
H1188 H 0.12715 0.9873 0.67639 0.0
H1189 H 0.13077 0.97154 0.76314 0.0
C1190 C 0.12981 0.98958 0.85878 0.0
C1191 C 0.12827 1.00094 0.90558 0.0
C1192 C 0.13167 0.99835 0.80861 0.0
C1193 C 0.131 0.021 0.90254 0.0
C1194 C 0.13309 0.02986 0.85268 0.0
C1195 C 0.13073 0.02765 0.75541 0.0
C1196 C 0.12788 0.01645 0.70883 0.0
C1197 C 0.13241 0.01873 0.80544 0.0
C1198 C 0.12917 0.99621 0.71179 0.0
C1199 C 0.13107 0.9872 0.76142 0.0
H1200 H 0.79238 0.38157 0.60468 0.0
H1201 H 0.73628 0.37887 0.68081 0.0
H1202 H 0.72064 0.38358 0.59435 0.0
H1203 H 0.72317 0.38078 0.49654 0.0
H1204 H 0.77922 0.38192 0.42006 0.0
H1205 H 0.79469 0.386 0.5073 0.0
C1206 C 0.77674 0.38255 0.60248 0.0
C1207 C 0.76546 0.37932 0.64861 0.0
C1208 C 0.76787 0.38474 0.55254 0.0
C1209 C 0.74525 0.38109 0.64569 0.0
C1210 C 0.7363 0.38363 0.5962 0.0
C1211 C 0.73873 0.38253 0.49897 0.0
C1212 C 0.75014 0.38059 0.45243 0.0
C1213 C 0.74748 0.3843 0.54918 0.0
C1214 C 0.7702 0.38325 0.45554 0.0
C1215 C 0.77904 0.38538 0.50544 0.0
H1216 H 0.10979 0.41624 0.22482 0.0
H1217 H 0.12223 0.40086 0.06034 0.0
H1218 H 0.14365 0.37478 0.09019 0.0
H1219 H 0.16204 0.35944 0.16239 0.0
H1220 H 0.15259 0.3776 0.32622 0.0
H1221 H 0.12658 0.39932 0.29747 0.0
C1222 C 0.11681 0.40688 0.19547 0.0
C1223 C 0.11437 0.41044 0.14035 0.0
C1224 C 0.12979 0.39253 0.21295 0.0
C1225 C 0.12384 0.3984 0.1029 0.0
C1226 C 0.13615 0.38354 0.12001 0.0
C1227 C 0.15396 0.36778 0.19203 0.0
C1228 C 0.1592 0.36685 0.24648 0.0
C1229 C 0.13971 0.3809 0.17486 0.0
C1230 C 0.14882 0.37802 0.28417 0.0
C1231 C 0.13402 0.39051 0.26766 0.0
H1232 H 0.89706 0.90232 0.52499 0.0
H1233 H 0.91496 0.92051 0.36744 0.0
H1234 H 0.89409 0.89635 0.32649 0.0
H1235 H 0.86764 0.87272 0.3352 0.0
H1236 H 0.85111 0.85323 0.49267 0.0
H1237 H 0.87461 0.87486 0.5334 0.0
C1238 C 0.8967 0.90071 0.48175 0.0
C1239 C 0.90743 0.91339 0.44948 0.0
C1240 C 0.88472 0.8866 0.4582 0.0
C1241 C 0.90689 0.91098 0.39343 0.0
C1242 C 0.89482 0.89722 0.36981 0.0
C1243 C 0.86949 0.87291 0.37833 0.0
C1244 C 0.85743 0.8615 0.4107 0.0
C1245 C 0.88321 0.88534 0.40174 0.0
C1246 C 0.86015 0.86182 0.46659 0.0
C1247 C 0.87353 0.87432 0.4901 0.0
H1248 H 0.40706 0.60289 0.72628 0.0
H1249 H 0.39659 0.61668 0.56068 0.0
H1250 H 0.37478 0.64304 0.58828 0.0
H1251 H 0.35598 0.65975 0.65904 0.0
H1252 H 0.36349 0.64325 0.82395 0.0
H1253 H 0.38926 0.62059 0.79736 0.0
C1254 C 0.40036 0.61196 0.69622 0.0
C1255 C 0.40363 0.60793 0.64138 0.0
C1256 C 0.38714 0.62653 0.71243 0.0
C1257 C 0.39444 0.61953 0.60304 0.0
C1258 C 0.38189 0.63456 0.61887 0.0
C1259 C 0.36358 0.65154 0.68935 0.0
C1260 C 0.35794 0.65338 0.74361 0.0
C1261 C 0.37775 0.63788 0.6734 0.0
C1262 C 0.36762 0.64224 0.78209 0.0
C1263 C 0.3823 0.6292 0.7668 0.0
H1264 H 0.6512 0.14469 0.81368 0.0
H1265 H 0.66576 0.16889 0.96801 0.0
H1266 H 0.64187 0.14841 0.01124 0.0
H1267 H 0.61996 0.1204 1.00673 0.0
H1268 H 0.604 0.09748 0.85203 0.0
H1269 H 0.62495 0.12073 0.80784 0.0
C1270 C 0.64881 0.14581 0.85657 0.0
C1271 C 0.66047 0.15815 0.88746 0.0
C1272 C 0.63487 0.13402 0.88144 0.0
C1273 C 0.65705 0.15953 0.94305 0.0
C1274 C 0.64344 0.14769 0.96803 0.0
C1275 C 0.62073 0.1208 0.96333 0.0
C1276 C 0.61059 0.10704 0.93292 0.0
C1277 C 0.63274 0.13439 0.93788 0.0
C1278 C 0.61163 0.10788 0.87661 0.0
C1279 C 0.62374 0.12112 0.85116 0.0
H1280 H 0.1599 0.6598 0.44268 0.0
H1281 H 0.15556 0.64056 0.27843 0.0
H1282 H 0.13005 0.6179 0.30377 0.0
H1283 H 0.1121 0.60082 0.37418 0.0
H1284 H 0.11959 0.61735 0.53971 0.0
H1285 H 0.1406 0.64396 0.51242 0.0
C1286 C 0.15303 0.651 0.41215 0.0
C1287 C 0.15952 0.65196 0.35859 0.0
C1288 C 0.13909 0.63736 0.42751 0.0
C1289 C 0.15077 0.64015 0.3198 0.0
C1290 C 0.13626 0.62713 0.33438 0.0
C1291 C 0.11796 0.61053 0.40423 0.0
C1292 C 0.1142 0.60718 0.45896 0.0
C1293 C 0.13073 0.6252 0.38835 0.0
C1294 C 0.12222 0.61965 0.49742 0.0
C1295 C 0.13429 0.63481 0.48179 0.0
H1296 H 0.61077 0.91412 0.71366 0.0
H1297 H 0.62455 0.90291 0.54749 0.0
H1298 H 0.64633 0.8766 0.57367 0.0
H1299 H 0.66449 0.8598 0.64395 0.0
H1300 H 0.6535 0.87379 0.81011 0.0
H1301 H 0.62741 0.89584 0.78392 0.0
C1302 C 0.61818 0.90562 0.68306 0.0
C1303 C 0.616 0.91042 0.62861 0.0
C1304 C 0.63134 0.89114 0.69858 0.0
C1305 C 0.62596 0.89948 0.58958 0.0
C1306 C 0.63848 0.8845 0.60459 0.0
C1307 C 0.65608 0.86732 0.67454 0.0
C1308 C 0.66088 0.86511 0.72899 0.0
C1309 C 0.64173 0.88062 0.65901 0.0
C1310 C 0.65007 0.87522 0.76802 0.0
C1311 C 0.63521 0.88788 0.753 0.0
H1312 H 0.3642 0.37527 0.80938 0.0
H1313 H 0.35512 0.34634 0.95997 0.0
H1314 H 0.37837 0.36757 1.00327 0.0
H1315 H 0.3982 0.39722 1.00113 0.0
H1316 H 0.40906 0.42469 0.84939 0.0
H1317 H 0.38855 0.4012 0.80413 0.0
C1318 C 0.36769 0.37329 0.85132 0.0
C1319 C 0.35774 0.35932 0.8813 0.0
C1320 C 0.38129 0.38551 0.87617 0.0
C1321 C 0.36254 0.35691 0.93565 0.0
C1322 C 0.37576 0.3692 0.96074 0.0
C1323 C 0.39639 0.39778 0.95802 0.0
C1324 C 0.40502 0.41282 0.9289 0.0
C1325 C 0.38474 0.38398 0.93185 0.0
C1326 C 0.40265 0.41326 0.87292 0.0
C1327 C 0.39079 0.39988 0.84691 0.0
H1328 H 0.85882 0.16107 0.15915 0.0
H1329 H 0.86449 0.14383 0.32402 0.0
H1330 H 0.89022 0.12093 0.29866 0.0
H1331 H 0.9085 0.10331 0.22837 0.0
H1332 H 0.89968 0.11775 0.06247 0.0
H1333 H 0.87798 0.14431 0.08924 0.0
C1334 C 0.86602 0.15265 0.18975 0.0
C1335 C 0.8599 0.15436 0.24362 0.0
C1336 C 0.88013 0.13883 0.17442 0.0
C1337 C 0.86902 0.14293 0.28246 0.0
C1338 C 0.88367 0.12976 0.26786 0.0
C1339 C 0.90218 0.11256 0.19811 0.0
C1340 C 0.9059 0.10867 0.14341 0.0
C1341 C 0.889 0.12723 0.21379 0.0
C1342 C 0.89718 0.12049 0.10474 0.0
C1343 C 0.8847 0.13563 0.12009 0.0
H1344 H 0.91289 0.60916 0.9007 0.0
H1345 H 0.89459 0.61807 0.06453 0.0
H1346 H 0.87213 0.64351 0.03593 0.0
H1347 H 0.85478 0.65991 0.96337 0.0
H1348 H 0.86999 0.64753 0.79881 0.0
H1349 H 0.89677 0.62689 0.82848 0.0
C1350 C 0.90437 0.61703 0.93035 0.0
C1351 C 0.90551 0.61187 0.9848 0.0
C1352 C 0.89078 0.63085 0.91322 0.0
C1353 C 0.89403 0.62186 0.02252 0.0
C1354 C 0.88113 0.63632 1.00609 0.0
C1355 C 0.86427 0.65309 0.93398 0.0
C1356 C 0.86053 0.65536 0.8789 0.0
C1357 C 0.87895 0.64048 0.95139 0.0
C1358 C 0.87265 0.64607 0.84134 0.0
C1359 C 0.88788 0.63421 0.85835 0.0
H1360 H 0.11455 0.10532 0.72119 0.0
H1361 H 0.12625 0.11488 0.55357 0.0
H1362 H 0.14835 0.14114 0.57684 0.0
H1363 H 0.16713 0.15868 0.64483 0.0
H1364 H 0.15832 0.14632 0.81228 0.0
H1365 H 0.13214 0.12407 0.7893 0.0
C1366 C 0.1216 0.11345 0.68969 0.0
C1367 C 0.11866 0.10822 0.63562 0.0
C1368 C 0.13494 0.12794 0.7035 0.0
C1369 C 0.12822 0.11864 0.59539 0.0
C1370 C 0.14091 0.13361 0.60874 0.0
C1371 C 0.15915 0.15149 0.67641 0.0
C1372 C 0.16456 0.15429 0.73031 0.0
C1373 C 0.14477 0.13803 0.66267 0.0
C1374 C 0.15438 0.1445 0.7706 0.0
C1375 C 0.13948 0.1317 0.7574 0.0
H1376 H 0.6504 0.37167 0.33554 0.0
H1377 H 0.66934 0.35295 0.49134 0.0
H1378 H 0.64547 0.3741 0.53434 0.0
H1379 H 0.62169 0.40088 0.52814 0.0
H1380 H 0.60123 0.41804 0.37245 0.0
H1381 H 0.62282 0.39453 0.32954 0.0
C1382 C 0.64901 0.3719 0.37885 0.0
C1383 C 0.66183 0.3608 0.40997 0.0
C1384 C 0.63501 0.38402 0.40364 0.0
C1385 C 0.6597 0.36125 0.46614 0.0
C1386 C 0.64609 0.37349 0.49096 0.0
C1387 C 0.62165 0.39917 0.48491 0.0
C1388 C 0.60991 0.41139 0.45375 0.0
C1389 C 0.63403 0.38538 0.4602 0.0
C1390 C 0.61002 0.40885 0.39768 0.0
C1391 C 0.62251 0.39546 0.37291 0.0
H1392 H 0.4077 0.91343 0.21 0.0
H1393 H 0.39394 0.90492 0.04315 0.0
H1394 H 0.3716 0.87898 0.06703 0.0
H1395 H 0.35317 0.86161 0.13589 0.0
H1396 H 0.36421 0.87295 0.30311 0.0
H1397 H 0.39057 0.89474 0.27868 0.0
C1398 C 0.40016 0.90559 0.17872 0.0
C1399 C 0.40256 0.91102 0.12477 0.0
C1400 C 0.38669 0.89133 0.19301 0.0
C1401 C 0.39239 0.90098 0.08488 0.0
C1402 C 0.37955 0.88621 0.09859 0.0
C1403 C 0.36164 0.8685 0.16704 0.0
C1404 C 0.3568 0.86559 0.22133 0.0
C1405 C 0.37617 0.88166 0.15261 0.0
C1406 C 0.36767 0.87492 0.26112 0.0
C1407 C 0.38269 0.88743 0.24712 0.0
H1408 H 0.85192 0.36152 0.62111 0.0
H1409 H 0.86677 0.3725 0.78616 0.0
H1410 H 0.89297 0.39379 0.75744 0.0
H1411 H 0.90891 0.41223 0.68615 0.0
H1412 H 0.89139 0.4042 0.52191 0.0
H1413 H 0.86916 0.37862 0.54935 0.0
C1414 C 0.86118 0.36822 0.6508 0.0
C1415 C 0.85746 0.36535 0.70577 0.0
C1416 C 0.87563 0.38111 0.634 0.0
C1417 C 0.86935 0.37443 0.74369 0.0
C1418 C 0.88428 0.38666 0.72724 0.0
C1419 C 0.90058 0.40455 0.65614 0.0
C1420 C 0.9019 0.41003 0.60192 0.0
C1421 C 0.88719 0.39053 0.67258 0.0
C1422 C 0.8907 0.40022 0.56377 0.0
C1423 C 0.87792 0.38566 0.57954 0.0
H1424 H 0.39448 0.11698 0.52645 0.0
H1425 H 0.41553 0.0999 0.36997 0.0
H1426 H 0.3946 0.12386 0.3282 0.0
H1427 H 0.36701 0.14655 0.3353 0.0
H1428 H 0.34703 0.16473 0.49194 0.0
H1429 H 0.37093 0.14382 0.53406 0.0
C1430 C 0.3948 0.11882 0.48333 0.0
C1431 C 0.40637 0.10646 0.45148 0.0
C1432 C 0.38273 0.13274 0.45933 0.0
C1433 C 0.40675 0.10916 0.39561 0.0
C1434 C 0.39466 0.12281 0.37151 0.0
C1435 C 0.36819 0.14626 0.37861 0.0
C1436 C 0.35504 0.157 0.41027 0.0
C1437 C 0.38209 0.13421 0.40283 0.0
C1438 C 0.35691 0.15659 0.46642 0.0
C1439 C 0.37052 0.14452 0.4907 0.0
H1440 H 0.60892 0.6014 0.23332 0.0
H1441 H 0.61877 0.61589 0.06766 0.0
H1442 H 0.64001 0.64236 0.09508 0.0
H1443 H 0.65861 0.6588 0.16539 0.0
H1444 H 0.65186 0.64159 0.33015 0.0
H1445 H 0.62638 0.61895 0.30412 0.0
C1446 C 0.61536 0.61064 0.20325 0.0
C1447 C 0.61215 0.60677 0.14845 0.0
C1448 C 0.62824 0.62525 0.21929 0.0
C1449 C 0.62095 0.6186 0.11 0.0
C1450 C 0.63315 0.63369 0.12571 0.0
C1451 C 0.65123 0.65045 0.19583 0.0
C1452 C 0.65701 0.65202 0.2498 0.0
C1453 C 0.6373 0.63681 0.18015 0.0
C1454 C 0.64761 0.64074 0.28848 0.0
C1455 C 0.63312 0.62773 0.27351 0.0
H1456 H 0.16506 0.86163 0.96927 0.0
H1457 H 0.15469 0.87326 0.80231 0.0
H1458 H 0.12863 0.89584 0.82701 0.0
H1459 H 0.11127 0.9149 0.89615 0.0
H1460 H 0.12434 0.90593 0.06293 0.0
H1461 H 0.14666 0.87962 0.03844 0.0
C1462 C 0.1568 0.86876 0.93821 0.0
C1463 C 0.16173 0.8656 0.88389 0.0
C1464 C 0.14241 0.88238 0.95286 0.0
C1465 C 0.15115 0.87533 0.84431 0.0
C1466 C 0.13629 0.88832 0.85848 0.0
C1467 C 0.11866 0.90689 0.92725 0.0
C1468 C 0.11598 0.91229 0.98144 0.0
C1469 C 0.13212 0.89234 0.91265 0.0
C1470 C 0.12605 0.90204 0.02104 0.0
C1471 C 0.13888 0.88703 1.00698 0.0
loop_
_geom_bond_atom_site_label_1
_geom_bond_atom_site_label_2
_geom_bond_distance
_geom_bond_site_symmetry_2
_ccdc_geom_bond_type
O0 Cd1 2.223 . S
O0 C8 1.315 . S
Cd1 O0 2.223 . S
Cd1 O4 2.297 . S
Cd1 O5 2.439 . S
Cd1 O11 2.240 . S
Cd2 O3 2.240 . S
Cd2 O10 2.223 . S
Cd2 O12 2.297 1_554 S
Cd2 O13 2.439 1_554 S
O3 Cd2 2.240 . S
O3 C8 1.279 . S
O4 Cd1 2.297 . S
O4 C6 1.247 . S
O5 Cd1 2.439 . S
O5 C6 1.208 . S
C6 O4 1.247 . S
C6 O5 1.208 . S
C7 O12 1.247 . S
C7 O13 1.208 . S
C8 O0 1.315 . S
C8 O3 1.279 . S
C9 O10 1.315 . S
C9 O11 1.279 . S
O10 Cd2 2.223 . S
O10 C9 1.315 . S
O11 Cd1 2.240 . S
O11 C9 1.279 . S
O12 Cd2 2.297 1_556 S
O12 C7 1.247 . S
O13 Cd2 2.439 1_556 S
O13 C7 1.208 . S
O14 Cd15 2.223 . S
O14 C22 1.315 . S
Cd15 O14 2.223 . S
Cd15 O18 2.297 . S
Cd15 O19 2.439 . S
Cd15 O25 2.240 . S
Cd16 O17 2.240 . S
Cd16 O24 2.223 . S
Cd16 O26 2.297 . S
Cd16 O27 2.439 . S
O17 Cd16 2.240 . S
O17 C22 1.279 . S
O18 Cd15 2.297 . S
O18 C20 1.247 . S
O19 Cd15 2.439 . S
O19 C20 1.208 . S
C20 O18 1.247 . S
C20 O19 1.208 . S
C21 O26 1.247 . S
C21 O27 1.208 . S
C22 O14 1.315 . S
C22 O17 1.279 . S
C23 O24 1.315 . S
C23 O25 1.279 . S
O24 Cd16 2.223 . S
O24 C23 1.315 . S
O25 Cd15 2.240 . S
O25 C23 1.279 . S
O26 Cd16 2.297 . S
O26 C21 1.247 . S
O27 Cd16 2.439 . S
O27 C21 1.208 . S
O28 Cd29 2.223 . S
O28 C36 1.315 . S
Cd29 O28 2.223 . S
Cd29 O32 2.297 . S
Cd29 O33 2.439 . S
Cd29 O39 2.240 . S
Cd30 O31 2.240 . S
Cd30 O38 2.223 . S
Cd30 O40 2.297 . S
Cd30 O41 2.439 . S
O31 Cd30 2.240 . S
O31 C36 1.279 . S
O32 Cd29 2.297 . S
O32 C34 1.247 . S
O33 Cd29 2.439 . S
O33 C34 1.208 . S
C34 O32 1.247 . S
C34 O33 1.208 . S
C35 O40 1.247 . S
C35 O41 1.208 . S
C36 O28 1.315 . S
C36 O31 1.279 . S
C37 O38 1.315 . S
C37 O39 1.279 . S
O38 Cd30 2.223 . S
O38 C37 1.315 . S
O39 Cd29 2.240 . S
O39 C37 1.279 . S
O40 Cd30 2.297 . S
O40 C35 1.247 . S
O41 Cd30 2.439 . S
O41 C35 1.208 . S
O42 Cd43 2.223 . S
O42 C50 1.315 . S
Cd43 O42 2.223 . S
Cd43 O46 2.297 . S
Cd43 O47 2.439 . S
Cd43 O53 2.240 . S
Cd44 O45 2.240 . S
Cd44 O52 2.223 . S
Cd44 O54 2.297 . S
Cd44 O55 2.439 . S
O45 Cd44 2.240 . S
O45 C50 1.279 . S
O46 Cd43 2.297 . S
O46 C48 1.247 . S
O47 Cd43 2.439 . S
O47 C48 1.208 . S
C48 O46 1.247 . S
C48 O47 1.208 . S
C49 O54 1.247 . S
C49 O55 1.208 . S
C50 O42 1.315 . S
C50 O45 1.279 . S
C51 O52 1.315 . S
C51 O53 1.279 . S
O52 Cd44 2.223 . S
O52 C51 1.315 . S
O53 Cd43 2.240 . S
O53 C51 1.279 . S
O54 Cd44 2.297 . S
O54 C49 1.247 . S
O55 Cd44 2.439 . S
O55 C49 1.208 . S
O56 Cd57 2.223 . S
O56 C64 1.315 . S
Cd57 O56 2.223 . S
Cd57 O60 2.297 . S
Cd57 O61 2.439 . S
Cd57 O67 2.240 . S
Cd58 O59 2.240 . S
Cd58 O66 2.223 . S
Cd58 O68 2.297 . S
Cd58 O69 2.439 . S
O59 Cd58 2.240 . S
O59 C64 1.279 . S
O60 Cd57 2.297 . S
O60 C62 1.247 . S
O61 Cd57 2.439 . S
O61 C62 1.208 . S
C62 O60 1.247 . S
C62 O61 1.208 . S
C63 O68 1.247 . S
C63 O69 1.208 . S
C64 O56 1.315 . S
C64 O59 1.279 . S
C65 O66 1.315 . S
C65 O67 1.279 . S
O66 Cd58 2.223 . S
O66 C65 1.315 . S
O67 Cd57 2.240 . S
O67 C65 1.279 . S
O68 Cd58 2.297 . S
O68 C63 1.247 . S
O69 Cd58 2.439 . S
O69 C63 1.208 . S
O70 Cd71 2.223 . S
O70 C78 1.315 . S
Cd71 O70 2.223 . S
Cd71 O74 2.297 . S
Cd71 O75 2.439 . S
Cd71 O81 2.240 . S
Cd72 O73 2.240 . S
Cd72 O80 2.223 . S
Cd72 O82 2.297 . S
Cd72 O83 2.439 . S
O73 Cd72 2.240 . S
O73 C78 1.279 . S
O74 Cd71 2.297 . S
O74 C76 1.247 . S
O75 Cd71 2.439 . S
O75 C76 1.208 . S
C76 O74 1.247 . S
C76 O75 1.208 . S
C77 O82 1.247 . S
C77 O83 1.208 . S
C78 O70 1.315 . S
C78 O73 1.279 . S
C79 O80 1.315 . S
C79 O81 1.279 . S
O80 Cd72 2.223 . S
O80 C79 1.315 . S
O81 Cd71 2.240 . S
O81 C79 1.279 . S
O82 Cd72 2.297 . S
O82 C77 1.247 . S
O83 Cd72 2.439 . S
O83 C77 1.208 . S
O84 Cd85 2.223 . S
O84 C92 1.315 . S
Cd85 O84 2.223 . S
Cd85 O88 2.297 . S
Cd85 O89 2.439 1_556 S
Cd85 O95 2.240 1_556 S
Cd86 O87 2.240 1_554 S
Cd86 O94 2.223 . S
Cd86 O96 2.297 . S
Cd86 O97 2.439 . S
O87 Cd86 2.240 1_556 S
O87 C92 1.279 . S
O88 Cd85 2.297 . S
O88 C90 1.247 . S
O89 Cd85 2.439 1_554 S
O89 C90 1.208 1_554 S
C90 O88 1.247 . S
C90 O89 1.208 1_556 S
C91 O96 1.247 . S
C91 O97 1.208 . S
C92 O84 1.315 . S
C92 O87 1.279 . S
C93 O94 1.315 . S
C93 O95 1.279 . S
O94 Cd86 2.223 . S
O94 C93 1.315 . S
O95 Cd85 2.240 1_554 S
O95 C93 1.279 . S
O96 Cd86 2.297 . S
O96 C91 1.247 . S
O97 Cd86 2.439 . S
O97 C91 1.208 . S
O98 Cd99 2.223 . S
O98 C106 1.315 . S
Cd99 O98 2.223 . S
Cd99 O102 2.297 . S
Cd99 O103 2.439 . S
Cd99 O109 2.240 . S
Cd100 O101 2.240 . S
Cd100 O108 2.223 . S
Cd100 O110 2.297 . S
Cd100 O111 2.439 . S
O101 Cd100 2.240 . S
O101 C106 1.279 . S
O102 Cd99 2.297 . S
O102 C104 1.247 . S
O103 Cd99 2.439 . S
O103 C104 1.208 . S
C104 O102 1.247 . S
C104 O103 1.208 . S
C105 O110 1.247 . S
C105 O111 1.208 . S
C106 O98 1.315 . S
C106 O101 1.279 . S
C107 O108 1.315 . S
C107 O109 1.279 . S
O108 Cd100 2.223 . S
O108 C107 1.315 . S
O109 Cd99 2.240 . S
O109 C107 1.279 . S
O110 Cd100 2.297 . S
O110 C105 1.247 . S
O111 Cd100 2.439 . S
O111 C105 1.208 . S
O112 Cd113 2.223 . S
O112 C120 1.315 . S
Cd113 O112 2.223 . S
Cd113 O116 2.297 . S
Cd113 O117 2.439 1_556 S
Cd113 O123 2.240 1_556 S
Cd114 O115 2.240 1_554 S
Cd114 O122 2.223 . S
Cd114 O124 2.297 . S
Cd114 O125 2.439 . S
O115 Cd114 2.240 1_556 S
O115 C120 1.279 . S
O116 Cd113 2.297 . S
O116 C118 1.247 . S
O117 Cd113 2.439 1_554 S
O117 C118 1.208 1_554 S
C118 O116 1.247 . S
C118 O117 1.208 1_556 S
C119 O124 1.247 . S
C119 O125 1.208 . S
C120 O112 1.315 . S
C120 O115 1.279 . S
C121 O122 1.315 . S
C121 O123 1.279 . S
O122 Cd114 2.223 . S
O122 C121 1.315 . S
O123 Cd113 2.240 1_554 S
O123 C121 1.279 . S
O124 Cd114 2.297 . S
O124 C119 1.247 . S
O125 Cd114 2.439 . S
O125 C119 1.208 . S
O126 Cd127 2.223 . S
O126 C134 1.315 . S
Cd127 O126 2.223 . S
Cd127 O130 2.297 . S
Cd127 O131 2.439 . S
Cd127 O137 2.240 . S
Cd128 O129 2.240 . S
Cd128 O136 2.223 . S
Cd128 O138 2.297 . S
Cd128 O139 2.439 . S
O129 Cd128 2.240 . S
O129 C134 1.279 . S
O130 Cd127 2.297 . S
O130 C132 1.247 . S
O131 Cd127 2.439 . S
O131 C132 1.208 . S
C132 O130 1.247 . S
C132 O131 1.208 . S
C133 O138 1.247 . S
C133 O139 1.208 . S
C134 O126 1.315 . S
C134 O129 1.279 . S
C135 O136 1.315 . S
C135 O137 1.279 . S
O136 Cd128 2.223 . S
O136 C135 1.315 . S
O137 Cd127 2.240 . S
O137 C135 1.279 . S
O138 Cd128 2.297 . S
O138 C133 1.247 . S
O139 Cd128 2.439 . S
O139 C133 1.208 . S
O140 Cd141 2.223 . S
O140 C148 1.315 . S
Cd141 O140 2.223 . S
Cd141 O144 2.297 . S
Cd141 O145 2.439 . S
Cd141 O151 2.240 . S
Cd142 O143 2.240 . S
Cd142 O150 2.223 . S
Cd142 O152 2.297 . S
Cd142 O153 2.439 . S
O143 Cd142 2.240 . S
O143 C148 1.279 . S
O144 Cd141 2.297 . S
O144 C146 1.247 . S
O145 Cd141 2.439 . S
O145 C146 1.208 . S
C146 O144 1.247 . S
C146 O145 1.208 . S
C147 O152 1.247 . S
C147 O153 1.208 . S
C148 O140 1.315 . S
C148 O143 1.279 . S
C149 O150 1.315 . S
C149 O151 1.279 . S
O150 Cd142 2.223 . S
O150 C149 1.315 . S
O151 Cd141 2.240 . S
O151 C149 1.279 . S
O152 Cd142 2.297 . S
O152 C147 1.247 . S
O153 Cd142 2.439 . S
O153 C147 1.208 . S
O154 Cd155 2.223 . S
O154 C162 1.315 . S
Cd155 O154 2.223 . S
Cd155 O158 2.297 . S
Cd155 O159 2.439 . S
Cd155 O165 2.240 . S
Cd156 O157 2.240 . S
Cd156 O164 2.223 . S
Cd156 O166 2.297 . S
Cd156 O167 2.439 . S
O157 Cd156 2.240 . S
O157 C162 1.279 . S
O158 Cd155 2.297 . S
O158 C160 1.247 . S
O159 Cd155 2.439 . S
O159 C160 1.208 . S
C160 O158 1.247 . S
C160 O159 1.208 . S
C161 O166 1.247 . S
C161 O167 1.208 . S
C162 O154 1.315 . S
C162 O157 1.279 . S
C163 O164 1.315 . S
C163 O165 1.279 . S
O164 Cd156 2.223 . S
O164 C163 1.315 . S
O165 Cd155 2.240 . S
O165 C163 1.279 . S
O166 Cd156 2.297 . S
O166 C161 1.247 . S
O167 Cd156 2.439 . S
O167 C161 1.208 . S
O168 Cd169 2.223 . S
O168 C176 1.315 . S
Cd169 O168 2.223 . S
Cd169 O172 2.297 . S
Cd169 O173 2.439 . S
Cd169 O179 2.240 . S
Cd170 O171 2.240 . S
Cd170 O178 2.223 . S
Cd170 O180 2.297 . S
Cd170 O181 2.439 . S
O171 Cd170 2.240 . S
O171 C176 1.279 . S
O172 Cd169 2.297 . S
O172 C174 1.247 . S
O173 Cd169 2.439 . S
O173 C174 1.208 . S
C174 O172 1.247 . S
C174 O173 1.208 . S
C175 O180 1.247 . S
C175 O181 1.208 . S
C176 O168 1.315 . S
C176 O171 1.279 . S
C177 O178 1.315 . S
C177 O179 1.279 . S
O178 Cd170 2.223 . S
O178 C177 1.315 . S
O179 Cd169 2.240 . S
O179 C177 1.279 . S
O180 Cd170 2.297 . S
O180 C175 1.247 . S
O181 Cd170 2.439 . S
O181 C175 1.208 . S
O182 Cd183 2.223 . S
O182 C190 1.315 . S
Cd183 O182 2.223 . S
Cd183 O186 2.297 . S
Cd183 O187 2.439 . S
Cd183 O193 2.240 . S
Cd184 O185 2.240 . S
Cd184 O192 2.223 . S
Cd184 O194 2.297 . S
Cd184 O195 2.439 . S
O185 Cd184 2.240 . S
O185 C190 1.279 . S
O186 Cd183 2.297 . S
O186 C188 1.247 . S
O187 Cd183 2.439 . S
O187 C188 1.208 . S
C188 O186 1.247 . S
C188 O187 1.208 . S
C189 O194 1.247 . S
C189 O195 1.208 . S
C190 O182 1.315 . S
C190 O185 1.279 . S
C191 O192 1.315 . S
C191 O193 1.279 . S
O192 Cd184 2.223 . S
O192 C191 1.315 . S
O193 Cd183 2.240 . S
O193 C191 1.279 . S
O194 Cd184 2.297 . S
O194 C189 1.247 . S
O195 Cd184 2.439 . S
O195 C189 1.208 . S
O196 Cd197 2.223 . S
O196 C204 1.315 . S
Cd197 O196 2.223 . S
Cd197 O200 2.297 . S
Cd197 O201 2.439 . S
Cd197 O207 2.240 . S
Cd198 O199 2.240 . S
Cd198 O206 2.223 . S
Cd198 O208 2.297 1_554 S
Cd198 O209 2.439 1_554 S
O199 Cd198 2.240 . S
O199 C204 1.279 . S
O200 Cd197 2.297 . S
O200 C202 1.247 . S
O201 Cd197 2.439 . S
O201 C202 1.208 . S
C202 O200 1.247 . S
C202 O201 1.208 . S
C203 O208 1.247 . S
C203 O209 1.208 . S
C204 O196 1.315 . S
C204 O199 1.279 . S
C205 O206 1.315 . S
C205 O207 1.279 . S
O206 Cd198 2.223 . S
O206 C205 1.315 . S
O207 Cd197 2.240 . S
O207 C205 1.279 . S
O208 Cd198 2.297 1_556 S
O208 C203 1.247 . S
O209 Cd198 2.439 1_556 S
O209 C203 1.208 . S
O210 Cd211 2.223 . S
O210 C218 1.315 . S
Cd211 O210 2.223 . S
Cd211 O214 2.297 . S
Cd211 O215 2.439 . S
Cd211 O221 2.240 . S
Cd212 O213 2.240 . S
Cd212 O220 2.223 . S
Cd212 O222 2.297 . S
Cd212 O223 2.439 . S
O213 Cd212 2.240 . S
O213 C218 1.279 . S
O214 Cd211 2.297 . S
O214 C216 1.247 . S
O215 Cd211 2.439 . S
O215 C216 1.208 . S
C216 O214 1.247 . S
C216 O215 1.208 . S
C217 O222 1.247 . S
C217 O223 1.208 . S
C218 O210 1.315 . S
C218 O213 1.279 . S
C219 O220 1.315 . S
C219 O221 1.279 . S
O220 Cd212 2.223 . S
O220 C219 1.315 . S
O221 Cd211 2.240 . S
O221 C219 1.279 . S
O222 Cd212 2.297 . S
O222 C217 1.247 . S
O223 Cd212 2.439 . S
O223 C217 1.208 . S
O224 Cd225 2.223 . S
O224 C232 1.315 . S
Cd225 O224 2.223 . S
Cd225 O228 2.297 . S
Cd225 O229 2.439 . S
Cd225 O235 2.240 . S
Cd226 O227 2.257 . S
Cd226 O234 2.223 . S
Cd226 O236 2.291 1_565 S
Cd226 O237 2.461 . S
O227 Cd226 2.257 . S
O227 C232 1.279 . S
O228 Cd225 2.297 . S
O228 C230 1.247 . S
O229 Cd225 2.439 . S
O229 C230 1.208 . S
C230 O228 1.247 . S
C230 O229 1.208 . S
C231 O236 1.247 1_565 S
C231 O237 1.208 . S
C232 O224 1.315 . S
C232 O227 1.279 . S
C233 O234 1.316 . S
C233 O235 1.279 . S
O234 Cd226 2.223 . S
O234 C233 1.316 . S
O235 Cd225 2.240 . S
O235 C233 1.279 . S
O236 Cd226 2.291 1_545 S
O236 C231 1.247 1_545 S
O237 Cd226 2.461 . S
O237 C231 1.208 . S
O238 Cd239 2.223 . S
O238 C246 1.315 . S
Cd239 O238 2.223 . S
Cd239 O242 2.297 . S
Cd239 O243 2.439 . S
Cd239 O249 2.240 . S
Cd240 O241 2.240 . S
Cd240 O248 2.223 . S
Cd240 O250 2.297 . S
Cd240 O251 2.439 . S
O241 Cd240 2.240 . S
O241 C246 1.279 . S
O242 Cd239 2.297 . S
O242 C244 1.247 . S
O243 Cd239 2.439 . S
O243 C244 1.208 . S
C244 O242 1.247 . S
C244 O243 1.208 . S
C245 O250 1.247 . S
C245 O251 1.208 . S
C246 O238 1.315 . S
C246 O241 1.279 . S
C247 O248 1.315 . S
C247 O249 1.279 . S
O248 Cd240 2.223 . S
O248 C247 1.315 . S
O249 Cd239 2.240 . S
O249 C247 1.279 . S
O250 Cd240 2.297 . S
O250 C245 1.247 . S
O251 Cd240 2.439 . S
O251 C245 1.208 . S
O252 Cd253 2.223 . S
O252 C260 1.315 . S
Cd253 O252 2.223 . S
Cd253 O256 2.297 . S
Cd253 O257 2.439 . S
Cd253 O263 2.240 . S
Cd254 O255 2.257 . S
Cd254 O262 2.223 . S
Cd254 O264 2.291 1_544 S
Cd254 O265 2.462 1_554 S
O255 Cd254 2.257 . S
O255 C260 1.279 . S
O256 Cd253 2.297 . S
O256 C258 1.247 . S
O257 Cd253 2.439 . S
O257 C258 1.208 . S
C258 O256 1.247 . S
C258 O257 1.208 . S
C259 O264 1.247 1_545 S
C259 O265 1.208 . S
C260 O252 1.315 . S
C260 O255 1.279 . S
C261 O262 1.317 . S
C261 O263 1.279 . S
O262 Cd254 2.223 . S
O262 C261 1.317 . S
O263 Cd253 2.240 . S
O263 C261 1.279 . S
O264 Cd254 2.291 1_566 S
O264 C259 1.247 1_565 S
O265 Cd254 2.462 1_556 S
O265 C259 1.208 . S
O266 Cd267 2.223 . S
O266 C274 1.315 . S
Cd267 O266 2.223 . S
Cd267 O270 2.297 . S
Cd267 O271 2.439 . S
Cd267 O277 2.240 . S
Cd268 O269 2.240 . S
Cd268 O276 2.223 . S
Cd268 O278 2.297 . S
Cd268 O279 2.439 . S
O269 Cd268 2.240 . S
O269 C274 1.279 . S
O270 Cd267 2.297 . S
O270 C272 1.247 . S
O271 Cd267 2.439 . S
O271 C272 1.208 . S
C272 O270 1.247 . S
C272 O271 1.208 . S
C273 O278 1.247 . S
C273 O279 1.208 . S
C274 O266 1.315 . S
C274 O269 1.279 . S
C275 O276 1.315 . S
C275 O277 1.279 . S
O276 Cd268 2.223 . S
O276 C275 1.315 . S
O277 Cd267 2.240 . S
O277 C275 1.279 . S
O278 Cd268 2.297 . S
O278 C273 1.247 . S
O279 Cd268 2.439 . S
O279 C273 1.208 . S
O280 Cd281 2.223 . S
O280 C288 1.315 . S
Cd281 O280 2.223 . S
Cd281 O284 2.297 . S
Cd281 O285 2.439 1_556 S
Cd281 O291 2.240 1_556 S
Cd282 O283 2.258 1_554 S
Cd282 O290 2.223 . S
Cd282 O292 2.290 1_545 S
Cd282 O293 2.464 . S
O283 Cd282 2.258 1_556 S
O283 C288 1.279 . S
O284 Cd281 2.297 . S
O284 C286 1.247 . S
O285 Cd281 2.439 1_554 S
O285 C286 1.208 1_554 S
C286 O284 1.247 . S
C286 O285 1.208 1_556 S
C287 O292 1.247 1_545 S
C287 O293 1.208 . S
C288 O280 1.315 . S
C288 O283 1.279 . S
C289 O290 1.319 . S
C289 O291 1.279 . S
O290 Cd282 2.223 . S
O290 C289 1.319 . S
O291 Cd281 2.240 1_554 S
O291 C289 1.279 . S
O292 Cd282 2.290 1_565 S
O292 C287 1.247 1_565 S
O293 Cd282 2.464 . S
O293 C287 1.208 . S
O294 Cd295 2.223 . S
O294 C302 1.315 . S
Cd295 O294 2.223 . S
Cd295 O298 2.297 . S
Cd295 O299 2.439 . S
Cd295 O305 2.240 . S
Cd296 O297 2.240 . S
Cd296 O304 2.223 . S
Cd296 O306 2.297 . S
Cd296 O307 2.439 . S
O297 Cd296 2.240 . S
O297 C302 1.279 . S
O298 Cd295 2.297 . S
O298 C300 1.247 . S
O299 Cd295 2.439 . S
O299 C300 1.208 . S
C300 O298 1.247 . S
C300 O299 1.208 . S
C301 O306 1.247 . S
C301 O307 1.208 . S
C302 O294 1.315 . S
C302 O297 1.279 . S
C303 O304 1.315 . S
C303 O305 1.279 . S
O304 Cd296 2.223 . S
O304 C303 1.315 . S
O305 Cd295 2.240 . S
O305 C303 1.279 . S
O306 Cd296 2.297 . S
O306 C301 1.247 . S
O307 Cd296 2.439 . S
O307 C301 1.208 . S
O308 Cd309 2.223 . S
O308 C316 1.315 . S
Cd309 O308 2.223 . S
Cd309 O312 2.297 . S
Cd309 O313 2.439 . S
Cd309 O319 2.240 . S
Cd310 O311 2.258 . S
Cd310 O318 2.223 . S
Cd310 O320 2.291 1_565 S
Cd310 O321 2.463 . S
O311 Cd310 2.258 . S
O311 C316 1.279 . S
O312 Cd309 2.297 . S
O312 C314 1.247 . S
O313 Cd309 2.439 . S
O313 C314 1.208 . S
C314 O312 1.247 . S
C314 O313 1.208 . S
C315 O320 1.247 1_565 S
C315 O321 1.208 . S
C316 O308 1.315 . S
C316 O311 1.279 . S
C317 O318 1.318 . S
C317 O319 1.279 . S
O318 Cd310 2.223 . S
O318 C317 1.318 . S
O319 Cd309 2.240 . S
O319 C317 1.279 . S
O320 Cd310 2.291 1_545 S
O320 C315 1.247 1_545 S
O321 Cd310 2.463 . S
O321 C315 1.208 . S
O322 Cd323 2.223 . S
O322 C330 1.315 . S
Cd323 O322 2.223 . S
Cd323 O326 2.297 . S
Cd323 O327 2.439 . S
Cd323 O333 2.240 . S
Cd324 O325 2.240 . S
Cd324 O332 2.223 . S
Cd324 O334 2.297 . S
Cd324 O335 2.439 . S
O325 Cd324 2.240 . S
O325 C330 1.279 . S
O326 Cd323 2.297 . S
O326 C328 1.247 . S
O327 Cd323 2.439 . S
O327 C328 1.208 . S
C328 O326 1.247 . S
C328 O327 1.208 . S
C329 O334 1.247 . S
C329 O335 1.208 . S
C330 O322 1.315 . S
C330 O325 1.279 . S
C331 O332 1.315 . S
C331 O333 1.279 . S
O332 Cd324 2.223 . S
O332 C331 1.315 . S
O333 Cd323 2.240 . S
O333 C331 1.279 . S
O334 Cd324 2.297 . S
O334 C329 1.247 . S
O335 Cd324 2.439 . S
O335 C329 1.208 . S
O336 Cd337 2.223 . S
O336 C344 1.315 . S
Cd337 O336 2.223 . S
Cd337 O340 2.297 . S
Cd337 O341 2.439 . S
Cd337 O347 2.240 . S
Cd338 O339 2.258 . S
Cd338 O346 2.223 . S
Cd338 O348 2.291 1_545 S
Cd338 O349 2.463 . S
O339 Cd338 2.258 . S
O339 C344 1.279 . S
O340 Cd337 2.297 . S
O340 C342 1.247 . S
O341 Cd337 2.439 . S
O341 C342 1.208 . S
C342 O340 1.247 . S
C342 O341 1.208 . S
C343 O348 1.247 1_545 S
C343 O349 1.208 . S
C344 O336 1.315 . S
C344 O339 1.279 . S
C345 O346 1.318 . S
C345 O347 1.279 . S
O346 Cd338 2.223 . S
O346 C345 1.318 . S
O347 Cd337 2.240 . S
O347 C345 1.279 . S
O348 Cd338 2.291 1_565 S
O348 C343 1.247 1_565 S
O349 Cd338 2.463 . S
O349 C343 1.208 . S
O350 Cd351 2.223 . S
O350 C358 1.315 . S
Cd351 O350 2.223 . S
Cd351 O354 2.297 . S
Cd351 O355 2.439 . S
Cd351 O361 2.240 . S
Cd352 O353 2.240 . S
Cd352 O360 2.223 . S
Cd352 O362 2.297 . S
Cd352 O363 2.439 . S
O353 Cd352 2.240 . S
O353 C358 1.279 . S
O354 Cd351 2.297 . S
O354 C356 1.247 . S
O355 Cd351 2.439 . S
O355 C356 1.208 . S
C356 O354 1.247 . S
C356 O355 1.208 . S
C357 O362 1.247 . S
C357 O363 1.208 . S
C358 O350 1.315 . S
C358 O353 1.279 . S
C359 O360 1.315 . S
C359 O361 1.279 . S
O360 Cd352 2.223 . S
O360 C359 1.315 . S
O361 Cd351 2.240 . S
O361 C359 1.279 . S
O362 Cd352 2.297 . S
O362 C357 1.247 . S
O363 Cd352 2.439 . S
O363 C357 1.208 . S
O364 Cd365 2.223 . S
O364 C372 1.315 . S
Cd365 O364 2.223 . S
Cd365 O368 2.297 . S
Cd365 O369 2.439 1_556 S
Cd365 O375 2.240 1_556 S
Cd366 O367 2.258 1_554 S
Cd366 O374 2.223 . S
Cd366 O376 2.291 1_565 S
Cd366 O377 2.464 . S
O367 Cd366 2.258 1_556 S
O367 C372 1.279 . S
O368 Cd365 2.297 . S
O368 C370 1.247 . S
O369 Cd365 2.439 1_554 S
O369 C370 1.208 1_554 S
C370 O368 1.247 . S
C370 O369 1.208 1_556 S
C371 O376 1.247 1_565 S
C371 O377 1.208 . S
C372 O364 1.315 . S
C372 O367 1.279 . S
C373 O374 1.319 . S
C373 O375 1.279 . S
O374 Cd366 2.223 . S
O374 C373 1.319 . S
O375 Cd365 2.240 1_554 S
O375 C373 1.279 . S
O376 Cd366 2.291 1_545 S
O376 C371 1.247 1_545 S
O377 Cd366 2.464 . S
O377 C371 1.208 . S
O378 Cd379 2.223 . S
O378 C386 1.315 . S
Cd379 O378 2.223 . S
Cd379 O382 2.297 . S
Cd379 O383 2.439 . S
Cd379 O389 2.240 . S
Cd380 O381 2.240 . S
Cd380 O388 2.223 . S
Cd380 O390 2.297 . S
Cd380 O391 2.439 . S
O381 Cd380 2.240 . S
O381 C386 1.279 . S
O382 Cd379 2.297 . S
O382 C384 1.247 . S
O383 Cd379 2.439 . S
O383 C384 1.208 . S
C384 O382 1.247 . S
C384 O383 1.208 . S
C385 O390 1.247 . S
C385 O391 1.208 . S
C386 O378 1.315 . S
C386 O381 1.279 . S
C387 O388 1.315 . S
C387 O389 1.279 . S
O388 Cd380 2.223 . S
O388 C387 1.315 . S
O389 Cd379 2.240 . S
O389 C387 1.279 . S
O390 Cd380 2.297 . S
O390 C385 1.247 . S
O391 Cd380 2.439 . S
O391 C385 1.208 . S
O392 Cd393 2.223 . S
O392 C400 1.315 . S
Cd393 O392 2.223 . S
Cd393 O396 2.297 . S
Cd393 O397 2.439 . S
Cd393 O403 2.240 . S
Cd394 O395 2.257 . S
Cd394 O402 2.223 . S
Cd394 O404 2.291 1_564 S
Cd394 O405 2.462 1_554 S
O395 Cd394 2.257 . S
O395 C400 1.279 . S
O396 Cd393 2.297 . S
O396 C398 1.247 . S
O397 Cd393 2.439 . S
O397 C398 1.208 . S
C398 O396 1.247 . S
C398 O397 1.208 . S
C399 O404 1.247 1_565 S
C399 O405 1.208 . S
C400 O392 1.315 . S
C400 O395 1.279 . S
C401 O402 1.317 . S
C401 O403 1.279 . S
O402 Cd394 2.223 . S
O402 C401 1.317 . S
O403 Cd393 2.240 . S
O403 C401 1.279 . S
O404 Cd394 2.291 1_546 S
O404 C399 1.247 1_545 S
O405 Cd394 2.462 1_556 S
O405 C399 1.208 . S
O406 Cd407 2.223 . S
O406 C414 1.315 . S
Cd407 O406 2.223 . S
Cd407 O410 2.297 . S
Cd407 O411 2.439 . S
Cd407 O417 2.240 . S
Cd408 O409 2.240 . S
Cd408 O416 2.223 . S
Cd408 O418 2.297 . S
Cd408 O419 2.439 . S
O409 Cd408 2.240 . S
O409 C414 1.279 . S
O410 Cd407 2.297 . S
O410 C412 1.247 . S
O411 Cd407 2.439 . S
O411 C412 1.208 . S
C412 O410 1.247 . S
C412 O411 1.208 . S
C413 O418 1.247 . S
C413 O419 1.208 . S
C414 O406 1.315 . S
C414 O409 1.279 . S
C415 O416 1.315 . S
C415 O417 1.279 . S
O416 Cd408 2.223 . S
O416 C415 1.315 . S
O417 Cd407 2.240 . S
O417 C415 1.279 . S
O418 Cd408 2.297 . S
O418 C413 1.247 . S
O419 Cd408 2.439 . S
O419 C413 1.208 . S
O420 Cd421 2.223 . S
O420 C428 1.315 . S
Cd421 O420 2.223 . S
Cd421 O424 2.297 . S
Cd421 O425 2.439 . S
Cd421 O431 2.240 . S
Cd422 O423 2.257 . S
Cd422 O430 2.223 . S
Cd422 O432 2.291 1_545 S
Cd422 O433 2.461 . S
O423 Cd422 2.257 . S
O423 C428 1.279 . S
O424 Cd421 2.297 . S
O424 C426 1.247 . S
O425 Cd421 2.439 . S
O425 C426 1.208 . S
C426 O424 1.247 . S
C426 O425 1.208 . S
C427 O432 1.247 1_545 S
C427 O433 1.208 . S
C428 O420 1.315 . S
C428 O423 1.279 . S
C429 O430 1.316 . S
C429 O431 1.279 . S
O430 Cd422 2.223 . S
O430 C429 1.316 . S
O431 Cd421 2.240 . S
O431 C429 1.279 . S
O432 Cd422 2.291 1_565 S
O432 C427 1.247 1_565 S
O433 Cd422 2.461 . S
O433 C427 1.208 . S
O434 Cd435 2.223 . S
O434 C442 1.315 . S
Cd435 O434 2.223 . S
Cd435 O438 2.297 . S
Cd435 O439 2.439 . S
Cd435 O445 2.240 . S
Cd436 O437 2.240 . S
Cd436 O444 2.223 . S
Cd436 O446 2.297 . S
Cd436 O447 2.439 . S
O437 Cd436 2.240 . S
O437 C442 1.279 . S
O438 Cd435 2.297 . S
O438 C440 1.247 . S
O439 Cd435 2.439 . S
O439 C440 1.208 . S
C440 O438 1.247 . S
C440 O439 1.208 . S
C441 O446 1.247 . S
C441 O447 1.208 . S
C442 O434 1.315 . S
C442 O437 1.279 . S
C443 O444 1.315 . S
C443 O445 1.279 . S
O444 Cd436 2.223 . S
O444 C443 1.315 . S
O445 Cd435 2.240 . S
O445 C443 1.279 . S
O446 Cd436 2.297 . S
O446 C441 1.247 . S
O447 Cd436 2.439 . S
O447 C441 1.208 . S
H448 C454 0.930 . S
H449 C457 0.931 1_556 S
H450 C458 0.930 1_556 S
H451 C459 0.930 . S
H452 C462 0.930 . S
H453 C463 0.930 . S
C454 H448 0.930 . S
C454 C455 1.355 . S
C454 C456 1.415 . S
C455 C454 1.355 . S
C455 C457 1.418 . S
C456 C454 1.415 . S
C456 C461 1.425 1_655 S
C456 C463 1.409 . S
C457 H449 0.931 1_554 S
C457 C455 1.418 . S
C457 C458 1.362 1_655 S
C458 H450 0.930 1_554 S
C458 C457 1.362 1_455 S
C458 C461 1.409 . S
C459 H451 0.930 . S
C459 C460 1.355 . S
C459 C461 1.415 . S
C460 C459 1.355 . S
C460 C462 1.419 . S
C461 C456 1.425 1_455 S
C461 C458 1.409 . S
C461 C459 1.415 . S
C462 H452 0.930 . S
C462 C460 1.419 . S
C462 C463 1.362 1_455 S
C463 H453 0.930 . S
C463 C456 1.409 . S
C463 C462 1.362 1_655 S
H464 C470 0.930 . S
H465 C473 0.930 . S
H466 C474 0.930 . S
H467 C475 0.930 . S
H468 C478 0.930 . S
H469 C479 0.930 . S
C470 H464 0.930 . S
C470 C471 1.355 . S
C470 C472 1.415 . S
C471 C470 1.355 . S
C471 C473 1.419 . S
C472 C470 1.415 . S
C472 C477 1.425 . S
C472 C479 1.409 . S
C473 H465 0.930 . S
C473 C471 1.419 . S
C473 C474 1.362 . S
C474 H466 0.930 . S
C474 C473 1.362 . S
C474 C477 1.409 . S
C475 H467 0.930 . S
C475 C476 1.355 . S
C475 C477 1.415 . S
C476 C475 1.355 . S
C476 C478 1.419 . S
C477 C472 1.425 . S
C477 C474 1.409 . S
C477 C475 1.415 . S
C478 H468 0.930 . S
C478 C476 1.419 . S
C478 C479 1.362 . S
C479 H469 0.930 . S
C479 C472 1.409 . S
C479 C478 1.362 . S
H480 C486 0.930 . S
H481 C489 0.930 . S
H482 C490 0.930 . S
H483 C491 0.930 . S
H484 C494 0.930 . S
H485 C495 0.930 . S
C486 H480 0.930 . S
C486 C487 1.355 . S
C486 C488 1.415 . S
C487 C486 1.355 . S
C487 C489 1.419 . S
C488 C486 1.415 . S
C488 C493 1.425 . S
C488 C495 1.409 . S
C489 H481 0.930 . S
C489 C487 1.419 . S
C489 C490 1.362 . S
C490 H482 0.930 . S
C490 C489 1.362 . S
C490 C493 1.409 . S
C491 H483 0.930 . S
C491 C492 1.355 . S
C491 C493 1.415 . S
C492 C491 1.355 . S
C492 C494 1.419 . S
C493 C488 1.425 . S
C493 C490 1.409 . S
C493 C491 1.415 . S
C494 H484 0.930 . S
C494 C492 1.419 . S
C494 C495 1.362 . S
C495 H485 0.930 . S
C495 C488 1.409 . S
C495 C494 1.362 . S
H496 C502 0.930 . S
H497 C505 0.930 . S
H498 C506 0.930 . S
H499 C507 0.930 . S
H500 C510 0.930 . S
H501 C511 0.930 . S
C502 H496 0.930 . S
C502 C503 1.355 . S
C502 C504 1.415 . S
C503 C502 1.355 . S
C503 C505 1.419 . S
C504 C502 1.415 . S
C504 C509 1.425 . S
C504 C511 1.409 . S
C505 H497 0.930 . S
C505 C503 1.419 . S
C505 C506 1.362 . S
C506 H498 0.930 . S
C506 C505 1.362 . S
C506 C509 1.409 . S
C507 H499 0.930 . S
C507 C508 1.355 . S
C507 C509 1.415 . S
C508 C507 1.355 . S
C508 C510 1.419 . S
C509 C504 1.425 . S
C509 C506 1.409 . S
C509 C507 1.415 . S
C510 H500 0.930 . S
C510 C508 1.419 . S
C510 C511 1.362 . S
C511 H501 0.930 . S
C511 C504 1.409 . S
C511 C510 1.362 . S
H512 C518 0.930 . S
H513 C521 0.930 . S
H514 C522 0.930 . S
H515 C523 0.930 . S
H516 C526 0.930 . S
H517 C527 0.930 . S
C518 H512 0.930 . S
C518 C519 1.355 . S
C518 C520 1.415 . S
C519 C518 1.355 . S
C519 C521 1.419 . S
C520 C518 1.415 . S
C520 C525 1.425 1_455 S
C520 C527 1.409 1_455 S
C521 H513 0.930 . S
C521 C519 1.419 . S
C521 C522 1.362 . S
C522 H514 0.930 . S
C522 C521 1.362 . S
C522 C525 1.409 1_455 S
C523 H515 0.930 . S
C523 C524 1.355 . S
C523 C525 1.415 . S
C524 C523 1.355 . S
C524 C526 1.419 . S
C525 C520 1.425 1_655 S
C525 C522 1.409 1_655 S
C525 C523 1.415 . S
C526 H516 0.930 . S
C526 C524 1.419 . S
C526 C527 1.362 . S
C527 H517 0.930 . S
C527 C520 1.409 1_655 S
C527 C526 1.362 . S
H528 C534 0.930 . S
H529 C537 0.930 . S
H530 C538 0.930 . S
H531 C539 0.930 . S
H532 C542 0.930 . S
H533 C543 0.930 . S
C534 H528 0.930 . S
C534 C535 1.355 . S
C534 C536 1.415 . S
C535 C534 1.355 . S
C535 C537 1.419 . S
C536 C534 1.415 . S
C536 C541 1.425 . S
C536 C543 1.409 . S
C537 H529 0.930 . S
C537 C535 1.419 . S
C537 C538 1.362 . S
C538 H530 0.930 . S
C538 C537 1.362 . S
C538 C541 1.409 . S
C539 H531 0.930 . S
C539 C540 1.355 . S
C539 C541 1.415 . S
C540 C539 1.355 . S
C540 C542 1.419 . S
C541 C536 1.425 . S
C541 C538 1.409 . S
C541 C539 1.415 . S
C542 H532 0.930 . S
C542 C540 1.419 . S
C542 C543 1.362 . S
C543 H533 0.930 . S
C543 C536 1.409 . S
C543 C542 1.362 . S
H544 C550 0.930 . S
H545 C553 0.930 . S
H546 C554 0.930 . S
H547 C555 0.930 . S
H548 C558 0.930 1_556 S
H549 C559 0.930 . S
C550 H544 0.930 . S
C550 C551 1.355 . S
C550 C552 1.415 . S
C551 C550 1.355 . S
C551 C553 1.419 . S
C552 C550 1.415 . S
C552 C557 1.425 . S
C552 C559 1.409 . S
C553 H545 0.930 . S
C553 C551 1.419 . S
C553 C554 1.362 . S
C554 H546 0.930 . S
C554 C553 1.362 . S
C554 C557 1.409 . S
C555 H547 0.930 . S
C555 C556 1.355 . S
C555 C557 1.415 . S
C556 C555 1.355 . S
C556 C558 1.419 . S
C557 C552 1.425 . S
C557 C554 1.409 . S
C557 C555 1.415 . S
C558 H548 0.930 1_554 S
C558 C556 1.419 . S
C558 C559 1.362 . S
C559 H549 0.930 . S
C559 C552 1.409 . S
C559 C558 1.362 . S
H560 C566 0.930 . S
H561 C569 0.930 . S
H562 C570 0.930 . S
H563 C571 0.930 . S
H564 C574 0.930 . S
H565 C575 0.930 . S
C566 H560 0.930 . S
C566 C567 1.355 . S
C566 C568 1.415 . S
C567 C566 1.355 . S
C567 C569 1.419 . S
C568 C566 1.415 . S
C568 C573 1.425 . S
C568 C575 1.409 . S
C569 H561 0.930 . S
C569 C567 1.419 . S
C569 C570 1.362 . S
C570 H562 0.930 . S
C570 C569 1.362 . S
C570 C573 1.409 . S
C571 H563 0.930 . S
C571 C572 1.355 . S
C571 C573 1.415 . S
C572 C571 1.355 . S
C572 C574 1.419 . S
C573 C568 1.425 . S
C573 C570 1.409 . S
C573 C571 1.415 . S
C574 H564 0.930 . S
C574 C572 1.419 . S
C574 C575 1.362 . S
C575 H565 0.930 . S
C575 C568 1.409 . S
C575 C574 1.362 . S
H576 C582 0.930 . S
H577 C585 0.930 . S
H578 C586 0.930 . S
H579 C587 0.930 . S
H580 C590 0.930 . S
H581 C591 0.930 . S
C582 H576 0.930 . S
C582 C583 1.355 . S
C582 C584 1.415 . S
C583 C582 1.355 . S
C583 C585 1.419 . S
C584 C582 1.415 . S
C584 C589 1.425 . S
C584 C591 1.409 . S
C585 H577 0.930 . S
C585 C583 1.419 . S
C585 C586 1.362 . S
C586 H578 0.930 . S
C586 C585 1.362 . S
C586 C589 1.409 . S
C587 H579 0.930 . S
C587 C588 1.355 . S
C587 C589 1.415 . S
C588 C587 1.355 . S
C588 C590 1.419 . S
C589 C584 1.425 . S
C589 C586 1.409 . S
C589 C587 1.415 . S
C590 H580 0.930 . S
C590 C588 1.419 . S
C590 C591 1.362 . S
C591 H581 0.930 . S
C591 C584 1.409 . S
C591 C590 1.362 . S
H592 C598 0.930 . S
H593 C601 0.930 . S
H594 C602 0.930 . S
H595 C603 0.930 . S
H596 C606 0.930 . S
H597 C607 0.930 . S
C598 H592 0.930 . S
C598 C599 1.355 . S
C598 C600 1.415 . S
C599 C598 1.355 . S
C599 C601 1.419 . S
C600 C598 1.415 . S
C600 C605 1.425 . S
C600 C607 1.409 . S
C601 H593 0.930 . S
C601 C599 1.419 . S
C601 C602 1.362 . S
C602 H594 0.930 . S
C602 C601 1.362 . S
C602 C605 1.409 . S
C603 H595 0.930 . S
C603 C604 1.355 . S
C603 C605 1.415 . S
C604 C603 1.355 . S
C604 C606 1.419 . S
C605 C600 1.425 . S
C605 C602 1.409 . S
C605 C603 1.415 . S
C606 H596 0.930 . S
C606 C604 1.419 . S
C606 C607 1.362 . S
C607 H597 0.930 . S
C607 C600 1.409 . S
C607 C606 1.362 . S
H608 C614 0.930 . S
H609 C617 0.930 . S
H610 C618 0.930 . S
H611 C619 0.930 . S
H612 C622 0.930 . S
H613 C623 0.930 . S
C614 H608 0.930 . S
C614 C615 1.355 . S
C614 C616 1.415 . S
C615 C614 1.355 . S
C615 C617 1.419 . S
C616 C614 1.415 . S
C616 C621 1.425 . S
C616 C623 1.409 . S
C617 H609 0.930 . S
C617 C615 1.419 . S
C617 C618 1.362 . S
C618 H610 0.930 . S
C618 C617 1.362 . S
C618 C621 1.409 . S
C619 H611 0.930 . S
C619 C620 1.355 . S
C619 C621 1.415 . S
C620 C619 1.355 . S
C620 C622 1.419 . S
C621 C616 1.425 . S
C621 C618 1.409 . S
C621 C619 1.415 . S
C622 H612 0.930 . S
C622 C620 1.419 . S
C622 C623 1.362 . S
C623 H613 0.930 . S
C623 C616 1.409 . S
C623 C622 1.362 . S
H624 C630 0.930 . S
H625 C633 0.930 . S
H626 C634 0.930 . S
H627 C635 0.930 . S
H628 C638 0.930 . S
H629 C639 0.930 . S
C630 H624 0.930 . S
C630 C631 1.355 . S
C630 C632 1.415 . S
C631 C630 1.355 . S
C631 C633 1.419 . S
C632 C630 1.415 . S
C632 C637 1.425 . S
C632 C639 1.409 . S
C633 H625 0.930 . S
C633 C631 1.419 . S
C633 C634 1.362 . S
C634 H626 0.930 . S
C634 C633 1.362 . S
C634 C637 1.409 . S
C635 H627 0.930 . S
C635 C636 1.355 . S
C635 C637 1.415 . S
C636 C635 1.355 . S
C636 C638 1.419 . S
C637 C632 1.425 . S
C637 C634 1.409 . S
C637 C635 1.415 . S
C638 H628 0.930 . S
C638 C636 1.419 . S
C638 C639 1.362 . S
C639 H629 0.930 . S
C639 C632 1.409 . S
C639 C638 1.362 . S
H640 C646 0.930 . S
H641 C649 0.930 . S
H642 C650 0.930 . S
H643 C651 0.930 . S
H644 C654 0.930 . S
H645 C655 0.930 . S
C646 H640 0.930 . S
C646 C647 1.355 1_565 S
C646 C648 1.415 . S
C647 C646 1.355 1_545 S
C647 C649 1.419 . S
C648 C646 1.415 . S
C648 C653 1.425 1_565 S
C648 C655 1.409 . S
C649 H641 0.930 . S
C649 C647 1.419 . S
C649 C650 1.362 . S
C650 H642 0.930 . S
C650 C649 1.362 . S
C650 C653 1.409 . S
C651 H643 0.930 . S
C651 C652 1.355 1_545 S
C651 C653 1.415 . S
C652 C651 1.355 1_565 S
C652 C654 1.419 . S
C653 C648 1.425 1_545 S
C653 C650 1.409 . S
C653 C651 1.415 . S
C654 H644 0.930 . S
C654 C652 1.419 . S
C654 C655 1.362 . S
C655 H645 0.930 . S
C655 C648 1.409 . S
C655 C654 1.362 . S
H656 C662 0.930 . S
H657 C665 0.932 1_556 S
H658 C666 0.930 . S
H659 C667 0.930 1_556 S
H660 C670 0.932 . S
H661 C671 0.930 . S
C662 H656 0.930 . S
C662 C663 1.355 . S
C662 C664 1.374 1_655 S
C663 C662 1.355 . S
C663 C665 1.419 . S
C664 C662 1.374 1_455 S
C664 C669 1.421 1_445 S
C664 C671 1.454 . S
C665 H657 0.932 1_554 S
C665 C663 1.419 . S
C665 C666 1.362 1_544 S
C666 H658 0.930 . S
C666 C665 1.362 1_566 S
C666 C669 1.454 1_556 S
C667 H659 0.930 1_554 S
C667 C668 1.355 . S
C667 C669 1.375 1_455 S
C668 C667 1.355 . S
C668 C670 1.419 . S
C669 C664 1.421 1_665 S
C669 C666 1.454 1_554 S
C669 C667 1.375 1_655 S
C670 H660 0.932 . S
C670 C668 1.419 . S
C670 C671 1.362 1_565 S
C671 H661 0.930 . S
C671 C664 1.454 . S
C671 C670 1.362 1_545 S
H672 C678 0.930 1_565 S
H673 C681 0.930 . S
H674 C682 0.930 . S
H675 C683 0.930 1_545 S
H676 C686 0.930 . S
H677 C687 0.930 . S
C678 H672 0.930 1_545 S
C678 C679 1.355 . S
C678 C680 1.415 1_545 S
C679 C678 1.355 . S
C679 C681 1.419 1_554 S
C680 C678 1.415 1_565 S
C680 C685 1.425 1_565 S
C680 C687 1.409 . S
C681 H673 0.930 . S
C681 C679 1.419 1_556 S
C681 C682 1.362 . S
C682 H674 0.930 . S
C682 C681 1.362 . S
C682 C685 1.409 1_556 S
C683 H675 0.930 1_565 S
C683 C684 1.355 . S
C683 C685 1.415 1_565 S
C684 C683 1.355 . S
C684 C686 1.419 . S
C685 C680 1.425 1_545 S
C685 C682 1.409 1_554 S
C685 C683 1.415 1_545 S
C686 H676 0.930 . S
C686 C684 1.419 . S
C686 C687 1.362 . S
C687 H677 0.930 . S
C687 C680 1.409 . S
C687 C686 1.362 . S
H688 C694 0.930 . S
H689 C697 0.930 . S
H690 C698 0.930 . S
H691 C699 0.930 . S
H692 C702 0.930 . S
H693 C703 0.930 . S
C694 H688 0.930 . S
C694 C695 1.355 1_565 S
C694 C696 1.415 . S
C695 C694 1.355 1_545 S
C695 C697 1.419 . S
C696 C694 1.415 . S
C696 C701 1.425 1_465 S
C696 C703 1.409 . S
C697 H689 0.930 . S
C697 C695 1.419 . S
C697 C698 1.362 1_455 S
C698 H690 0.930 . S
C698 C697 1.362 1_655 S
C698 C701 1.409 . S
C699 H691 0.930 . S
C699 C700 1.355 1_545 S
C699 C701 1.415 . S
C700 C699 1.355 1_565 S
C700 C702 1.419 . S
C701 C696 1.425 1_645 S
C701 C698 1.409 . S
C701 C699 1.415 . S
C702 H692 0.930 . S
C702 C700 1.419 . S
C702 C703 1.362 1_655 S
C703 H693 0.930 . S
C703 C696 1.409 . S
C703 C702 1.362 1_455 S
H704 C710 0.930 . S
H705 C713 0.930 . S
H706 C714 0.930 . S
H707 C715 0.930 . S
H708 C718 0.930 . S
H709 C719 0.930 . S
C710 H704 0.930 . S
C710 C711 1.355 . S
C710 C712 1.415 . S
C711 C710 1.355 . S
C711 C713 1.419 . S
C712 C710 1.415 . S
C712 C717 1.425 . S
C712 C719 1.409 . S
C713 H705 0.930 . S
C713 C711 1.419 . S
C713 C714 1.362 . S
C714 H706 0.930 . S
C714 C713 1.362 . S
C714 C717 1.409 . S
C715 H707 0.930 . S
C715 C716 1.355 . S
C715 C717 1.415 . S
C716 C715 1.355 . S
C716 C718 1.419 . S
C717 C712 1.425 . S
C717 C714 1.409 . S
C717 C715 1.415 . S
C718 H708 0.930 . S
C718 C716 1.419 . S
C718 C719 1.362 . S
C719 H709 0.930 . S
C719 C712 1.409 . S
C719 C718 1.362 . S
H720 C726 0.930 . S
H721 C729 0.930 . S
H722 C730 0.930 . S
H723 C731 0.930 . S
H724 C734 0.930 . S
H725 C735 0.930 . S
C726 H720 0.930 . S
C726 C727 1.355 . S
C726 C728 1.415 1_556 S
C727 C726 1.355 . S
C727 C729 1.419 . S
C728 C726 1.415 1_554 S
C728 C733 1.425 . S
C728 C735 1.409 . S
C729 H721 0.930 . S
C729 C727 1.419 . S
C729 C730 1.362 1_556 S
C730 H722 0.930 . S
C730 C729 1.362 1_554 S
C730 C733 1.409 . S
C731 H723 0.930 . S
C731 C732 1.355 . S
C731 C733 1.415 . S
C732 C731 1.355 . S
C732 C734 1.419 . S
C733 C728 1.425 . S
C733 C730 1.409 . S
C733 C731 1.415 . S
C734 H724 0.930 . S
C734 C732 1.419 . S
C734 C735 1.362 . S
C735 H725 0.930 . S
C735 C728 1.409 . S
C735 C734 1.362 . S
H736 C742 0.930 . S
H737 C745 0.930 . S
H738 C746 0.930 . S
H739 C747 0.930 . S
H740 C750 0.930 . S
H741 C751 0.930 . S
C742 H736 0.930 . S
C742 C743 1.355 . S
C742 C744 1.415 . S
C743 C742 1.355 . S
C743 C745 1.419 . S
C744 C742 1.415 . S
C744 C749 1.425 . S
C744 C751 1.409 . S
C745 H737 0.930 . S
C745 C743 1.419 . S
C745 C746 1.362 . S
C746 H738 0.930 . S
C746 C745 1.362 . S
C746 C749 1.409 . S
C747 H739 0.930 . S
C747 C748 1.355 . S
C747 C749 1.415 . S
C748 C747 1.355 . S
C748 C750 1.419 . S
C749 C744 1.425 . S
C749 C746 1.409 . S
C749 C747 1.415 . S
C750 H740 0.930 . S
C750 C748 1.419 . S
C750 C751 1.362 . S
C751 H741 0.930 . S
C751 C744 1.409 . S
C751 C750 1.362 . S
H752 C758 0.930 . S
H753 C761 0.930 . S
H754 C762 0.930 . S
H755 C763 0.930 . S
H756 C766 0.930 . S
H757 C767 0.930 . S
C758 H752 0.930 . S
C758 C759 1.355 . S
C758 C760 1.415 . S
C759 C758 1.355 . S
C759 C761 1.419 . S
C760 C758 1.415 . S
C760 C765 1.425 . S
C760 C767 1.409 . S
C761 H753 0.930 . S
C761 C759 1.419 . S
C761 C762 1.362 . S
C762 H754 0.930 . S
C762 C761 1.362 . S
C762 C765 1.409 . S
C763 H755 0.930 . S
C763 C764 1.355 . S
C763 C765 1.415 . S
C764 C763 1.355 . S
C764 C766 1.419 . S
C765 C760 1.425 . S
C765 C762 1.409 . S
C765 C763 1.415 . S
C766 H756 0.930 . S
C766 C764 1.419 . S
C766 C767 1.362 . S
C767 H757 0.930 . S
C767 C760 1.409 . S
C767 C766 1.362 . S
H768 C774 0.930 . S
H769 C777 0.930 . S
H770 C778 0.930 . S
H771 C779 0.930 . S
H772 C782 0.930 . S
H773 C783 0.930 . S
C774 H768 0.930 . S
C774 C775 1.355 . S
C774 C776 1.415 . S
C775 C774 1.355 . S
C775 C777 1.419 . S
C776 C774 1.415 . S
C776 C781 1.425 . S
C776 C783 1.409 . S
C777 H769 0.930 . S
C777 C775 1.419 . S
C777 C778 1.362 . S
C778 H770 0.930 . S
C778 C777 1.362 . S
C778 C781 1.409 . S
C779 H771 0.930 . S
C779 C780 1.355 . S
C779 C781 1.415 . S
C780 C779 1.355 . S
C780 C782 1.419 . S
C781 C776 1.425 . S
C781 C778 1.409 . S
C781 C779 1.415 . S
C782 H772 0.930 . S
C782 C780 1.419 . S
C782 C783 1.362 . S
C783 H773 0.930 . S
C783 C776 1.409 . S
C783 C782 1.362 . S
H784 C790 0.930 . S
H785 C793 0.930 . S
H786 C794 0.930 . S
H787 C795 0.930 . S
H788 C798 0.930 . S
H789 C799 0.930 . S
C790 H784 0.930 . S
C790 C791 1.355 . S
C790 C792 1.415 1_556 S
C791 C790 1.355 . S
C791 C793 1.419 . S
C792 C790 1.415 1_554 S
C792 C797 1.425 . S
C792 C799 1.409 . S
C793 H785 0.930 . S
C793 C791 1.419 . S
C793 C794 1.362 1_556 S
C794 H786 0.930 . S
C794 C793 1.362 1_554 S
C794 C797 1.409 . S
C795 H787 0.930 . S
C795 C796 1.355 . S
C795 C797 1.415 . S
C796 C795 1.355 . S
C796 C798 1.419 . S
C797 C792 1.425 . S
C797 C794 1.409 . S
C797 C795 1.415 . S
C798 H788 0.930 . S
C798 C796 1.419 . S
C798 C799 1.362 . S
C799 H789 0.930 . S
C799 C792 1.409 . S
C799 C798 1.362 . S
H800 C806 0.930 . S
H801 C809 0.930 . S
H802 C810 0.930 . S
H803 C811 0.930 . S
H804 C814 0.930 . S
H805 C815 0.930 . S
C806 H800 0.930 . S
C806 C807 1.355 . S
C806 C808 1.415 . S
C807 C806 1.355 . S
C807 C809 1.419 . S
C808 C806 1.415 . S
C808 C813 1.425 . S
C808 C815 1.409 . S
C809 H801 0.930 . S
C809 C807 1.419 . S
C809 C810 1.362 . S
C810 H802 0.930 . S
C810 C809 1.362 . S
C810 C813 1.409 . S
C811 H803 0.930 . S
C811 C812 1.355 . S
C811 C813 1.415 . S
C812 C811 1.355 . S
C812 C814 1.419 . S
C813 C808 1.425 . S
C813 C810 1.409 . S
C813 C811 1.415 . S
C814 H804 0.930 . S
C814 C812 1.419 . S
C814 C815 1.362 . S
C815 H805 0.930 . S
C815 C808 1.409 . S
C815 C814 1.362 . S
H816 C822 0.930 . S
H817 C825 0.930 . S
H818 C826 0.930 . S
H819 C827 0.930 . S
H820 C830 0.930 . S
H821 C831 0.930 . S
C822 H816 0.930 . S
C822 C823 1.355 . S
C822 C824 1.415 . S
C823 C822 1.355 . S
C823 C825 1.419 . S
C824 C822 1.415 . S
C824 C829 1.425 . S
C824 C831 1.409 . S
C825 H817 0.930 . S
C825 C823 1.419 . S
C825 C826 1.362 . S
C826 H818 0.930 . S
C826 C825 1.362 . S
C826 C829 1.409 . S
C827 H819 0.930 . S
C827 C828 1.355 . S
C827 C829 1.415 . S
C828 C827 1.355 . S
C828 C830 1.419 . S
C829 C824 1.425 . S
C829 C826 1.409 . S
C829 C827 1.415 . S
C830 H820 0.930 . S
C830 C828 1.419 . S
C830 C831 1.362 . S
C831 H821 0.930 . S
C831 C824 1.409 . S
C831 C830 1.362 . S
H832 C838 0.930 . S
H833 C841 0.930 . S
H834 C842 0.930 . S
H835 C843 0.930 . S
H836 C846 0.930 . S
H837 C847 0.930 . S
C838 H832 0.930 . S
C838 C839 1.355 . S
C838 C840 1.415 . S
C839 C838 1.355 . S
C839 C841 1.419 1_545 S
C840 C838 1.415 . S
C840 C845 1.425 1_545 S
C840 C847 1.409 . S
C841 H833 0.930 . S
C841 C839 1.419 1_565 S
C841 C842 1.362 . S
C842 H834 0.930 . S
C842 C841 1.362 . S
C842 C845 1.409 . S
C843 H835 0.930 . S
C843 C844 1.355 . S
C843 C845 1.415 . S
C844 C843 1.355 . S
C844 C846 1.419 1_565 S
C845 C840 1.425 1_565 S
C845 C842 1.409 . S
C845 C843 1.415 . S
C846 H836 0.930 . S
C846 C844 1.419 1_545 S
C846 C847 1.362 . S
C847 H837 0.930 . S
C847 C840 1.409 . S
C847 C846 1.362 . S
H848 C854 0.930 . S
H849 C857 0.930 . S
H850 C858 0.930 . S
H851 C859 0.930 . S
H852 C862 0.930 . S
H853 C863 0.930 . S
C854 H848 0.930 . S
C854 C855 1.355 . S
C854 C856 1.415 . S
C855 C854 1.355 . S
C855 C857 1.419 . S
C856 C854 1.415 . S
C856 C861 1.425 . S
C856 C863 1.409 . S
C857 H849 0.930 . S
C857 C855 1.419 . S
C857 C858 1.362 . S
C858 H850 0.930 . S
C858 C857 1.362 . S
C858 C861 1.409 . S
C859 H851 0.930 . S
C859 C860 1.355 . S
C859 C861 1.415 . S
C860 C859 1.355 . S
C860 C862 1.419 . S
C861 C856 1.425 . S
C861 C858 1.409 . S
C861 C859 1.415 . S
C862 H852 0.930 . S
C862 C860 1.419 . S
C862 C863 1.362 . S
C863 H853 0.930 . S
C863 C856 1.409 . S
C863 C862 1.362 . S
H864 C870 0.930 . S
H865 C873 0.930 . S
H866 C874 0.930 . S
H867 C875 0.930 . S
H868 C878 0.930 . S
H869 C879 0.930 . S
C870 H864 0.930 . S
C870 C871 1.355 1_565 S
C870 C872 1.415 . S
C871 C870 1.355 1_545 S
C871 C873 1.419 . S
C872 C870 1.415 . S
C872 C877 1.425 1_565 S
C872 C879 1.409 . S
C873 H865 0.930 . S
C873 C871 1.419 . S
C873 C874 1.362 . S
C874 H866 0.930 . S
C874 C873 1.362 . S
C874 C877 1.409 . S
C875 H867 0.930 . S
C875 C876 1.355 1_545 S
C875 C877 1.415 . S
C876 C875 1.355 1_565 S
C876 C878 1.419 . S
C877 C872 1.425 1_545 S
C877 C874 1.409 . S
C877 C875 1.415 . S
C878 H868 0.930 . S
C878 C876 1.419 . S
C878 C879 1.362 . S
C879 H869 0.930 . S
C879 C872 1.409 . S
C879 C878 1.362 . S
H880 C886 0.930 . S
H881 C889 0.930 . S
H882 C890 0.930 . S
H883 C891 0.930 . S
H884 C894 0.930 . S
H885 C895 0.930 . S
C886 H880 0.930 . S
C886 C887 1.355 . S
C886 C888 1.415 1_556 S
C887 C886 1.355 . S
C887 C889 1.419 . S
C888 C886 1.415 1_554 S
C888 C893 1.425 . S
C888 C895 1.409 . S
C889 H881 0.930 . S
C889 C887 1.419 . S
C889 C890 1.362 1_556 S
C890 H882 0.930 . S
C890 C889 1.362 1_554 S
C890 C893 1.409 . S
C891 H883 0.930 . S
C891 C892 1.355 . S
C891 C893 1.415 . S
C892 C891 1.355 . S
C892 C894 1.419 . S
C893 C888 1.425 . S
C893 C890 1.409 . S
C893 C891 1.415 . S
C894 H884 0.930 . S
C894 C892 1.419 . S
C894 C895 1.362 . S
C895 H885 0.930 . S
C895 C888 1.409 . S
C895 C894 1.362 . S
H896 C902 0.930 . S
H897 C905 0.930 . S
H898 C906 0.930 . S
H899 C907 0.930 . S
H900 C910 0.930 . S
H901 C911 0.930 . S
C902 H896 0.930 . S
C902 C903 1.355 1_545 S
C902 C904 1.415 . S
C903 C902 1.355 1_565 S
C903 C905 1.419 . S
C904 C902 1.415 . S
C904 C909 1.425 1_545 S
C904 C911 1.409 . S
C905 H897 0.930 . S
C905 C903 1.419 . S
C905 C906 1.362 . S
C906 H898 0.930 . S
C906 C905 1.362 . S
C906 C909 1.409 . S
C907 H899 0.930 . S
C907 C908 1.355 1_565 S
C907 C909 1.415 . S
C908 C907 1.355 1_545 S
C908 C910 1.419 . S
C909 C904 1.425 1_565 S
C909 C906 1.409 . S
C909 C907 1.415 . S
C910 H900 0.930 . S
C910 C908 1.419 . S
C910 C911 1.362 . S
C911 H901 0.930 . S
C911 C904 1.409 . S
C911 C910 1.362 . S
H912 C918 0.930 . S
H913 C921 0.930 . S
H914 C922 0.930 . S
H915 C923 0.930 . S
H916 C926 0.930 . S
H917 C927 0.930 . S
C918 H912 0.930 . S
C918 C919 1.355 . S
C918 C920 1.415 . S
C919 C918 1.355 . S
C919 C921 1.419 . S
C920 C918 1.415 . S
C920 C925 1.425 . S
C920 C927 1.409 . S
C921 H913 0.930 . S
C921 C919 1.419 . S
C921 C922 1.362 . S
C922 H914 0.930 . S
C922 C921 1.362 . S
C922 C925 1.409 . S
C923 H915 0.930 . S
C923 C924 1.355 . S
C923 C925 1.415 . S
C924 C923 1.355 . S
C924 C926 1.419 . S
C925 C920 1.425 . S
C925 C922 1.409 . S
C925 C923 1.415 . S
C926 H916 0.930 . S
C926 C924 1.419 . S
C926 C927 1.362 . S
C927 H917 0.930 . S
C927 C920 1.409 . S
C927 C926 1.362 . S
H928 C934 0.934 . S
H929 C937 0.930 . S
H930 C938 0.930 . S
H931 C939 0.932 . S
H932 C942 0.930 . S
H933 C943 0.930 . S
C934 H928 0.934 . S
C934 C935 1.349 1_565 S
C934 C936 1.417 . S
C935 C934 1.349 1_545 S
C935 C937 1.419 . S
C936 C934 1.417 . S
C936 C941 1.425 1_565 S
C936 C943 1.409 . S
C937 H929 0.930 . S
C937 C935 1.419 . S
C937 C938 1.362 . S
C938 H930 0.930 . S
C938 C937 1.362 . S
C938 C941 1.409 . S
C939 H931 0.932 . S
C939 C940 1.351 1_545 S
C939 C941 1.416 . S
C940 C939 1.351 1_565 S
C940 C942 1.419 . S
C941 C936 1.425 1_545 S
C941 C938 1.409 . S
C941 C939 1.416 . S
C942 H932 0.930 . S
C942 C940 1.419 . S
C942 C943 1.362 . S
C943 H933 0.930 . S
C943 C936 1.409 . S
C943 C942 1.362 . S
H944 C950 0.930 . S
H945 C953 0.930 . S
H946 C954 0.930 . S
H947 C955 0.930 . S
H948 C958 0.930 . S
H949 C959 0.930 . S
C950 H944 0.930 . S
C950 C951 1.355 . S
C950 C952 1.415 . S
C951 C950 1.355 . S
C951 C953 1.419 . S
C952 C950 1.415 . S
C952 C957 1.425 . S
C952 C959 1.409 . S
C953 H945 0.930 . S
C953 C951 1.419 . S
C953 C954 1.362 . S
C954 H946 0.930 . S
C954 C953 1.362 . S
C954 C957 1.409 . S
C955 H947 0.930 . S
C955 C956 1.355 . S
C955 C957 1.415 1_556 S
C956 C955 1.355 . S
C956 C958 1.419 . S
C957 C952 1.425 . S
C957 C954 1.409 . S
C957 C955 1.415 1_554 S
C958 H948 0.930 . S
C958 C956 1.419 . S
C958 C959 1.362 1_556 S
C959 H949 0.930 . S
C959 C952 1.409 . S
C959 C958 1.362 1_554 S
H960 C966 0.930 . S
H961 C969 0.930 . S
H962 C970 0.930 . S
H963 C971 0.930 . S
H964 C974 0.930 . S
H965 C975 0.930 . S
C966 H960 0.930 . S
C966 C967 1.355 . S
C966 C968 1.415 . S
C967 C966 1.355 . S
C967 C969 1.419 . S
C968 C966 1.415 . S
C968 C973 1.425 . S
C968 C975 1.409 . S
C969 H961 0.930 . S
C969 C967 1.419 . S
C969 C970 1.362 . S
C970 H962 0.930 . S
C970 C969 1.362 . S
C970 C973 1.409 . S
C971 H963 0.930 . S
C971 C972 1.355 . S
C971 C973 1.415 . S
C972 C971 1.355 . S
C972 C974 1.419 . S
C973 C968 1.425 . S
C973 C970 1.409 . S
C973 C971 1.415 . S
C974 H964 0.930 . S
C974 C972 1.419 . S
C974 C975 1.362 . S
C975 H965 0.930 . S
C975 C968 1.409 . S
C975 C974 1.362 . S
H976 C982 0.930 . S
H977 C985 0.930 . S
H978 C986 0.930 . S
H979 C987 0.930 . S
H980 C990 0.930 . S
H981 C991 0.930 . S
C982 H976 0.930 . S
C982 C983 1.355 . S
C982 C984 1.415 . S
C983 C982 1.355 . S
C983 C985 1.419 . S
C984 C982 1.415 . S
C984 C989 1.425 . S
C984 C991 1.409 . S
C985 H977 0.930 . S
C985 C983 1.419 . S
C985 C986 1.362 . S
C986 H978 0.930 . S
C986 C985 1.362 . S
C986 C989 1.409 . S
C987 H979 0.930 . S
C987 C988 1.355 . S
C987 C989 1.415 . S
C988 C987 1.355 . S
C988 C990 1.419 . S
C989 C984 1.425 . S
C989 C986 1.409 . S
C989 C987 1.415 . S
C990 H980 0.930 . S
C990 C988 1.419 . S
C990 C991 1.362 . S
C991 H981 0.930 . S
C991 C984 1.409 . S
C991 C990 1.362 . S
H992 C998 0.930 . S
H993 C1001 0.930 . S
H994 C1002 0.930 . S
H995 C1003 0.930 . S
H996 C1006 0.930 . S
H997 C1007 0.930 . S
C998 H992 0.930 . S
C998 C999 1.355 . S
C998 C1000 1.415 . S
C999 C998 1.355 . S
C999 C1001 1.419 . S
C1000 C998 1.415 . S
C1000 C1005 1.425 . S
C1000 C1007 1.409 . S
C1001 H993 0.930 . S
C1001 C999 1.419 . S
C1001 C1002 1.362 . S
C1002 H994 0.930 . S
C1002 C1001 1.362 . S
C1002 C1005 1.409 . S
C1003 H995 0.930 . S
C1003 C1004 1.355 . S
C1003 C1005 1.415 . S
C1004 C1003 1.355 . S
C1004 C1006 1.419 . S
C1005 C1000 1.425 . S
C1005 C1002 1.409 . S
C1005 C1003 1.415 . S
C1006 H996 0.930 . S
C1006 C1004 1.419 . S
C1006 C1007 1.362 . S
C1007 H997 0.930 . S
C1007 C1000 1.409 . S
C1007 C1006 1.362 . S
H1008 C1014 0.930 . S
H1009 C1017 0.930 . S
H1010 C1018 0.930 . S
H1011 C1019 0.930 . S
H1012 C1022 0.930 . S
H1013 C1023 0.930 . S
C1014 H1008 0.930 . S
C1014 C1015 1.355 . S
C1014 C1016 1.415 . S
C1015 C1014 1.355 . S
C1015 C1017 1.419 . S
C1016 C1014 1.415 . S
C1016 C1021 1.425 . S
C1016 C1023 1.409 . S
C1017 H1009 0.930 . S
C1017 C1015 1.419 . S
C1017 C1018 1.362 . S
C1018 H1010 0.930 . S
C1018 C1017 1.362 . S
C1018 C1021 1.409 . S
C1019 H1011 0.930 . S
C1019 C1020 1.355 . S
C1019 C1021 1.415 1_556 S
C1020 C1019 1.355 . S
C1020 C1022 1.419 . S
C1021 C1016 1.425 . S
C1021 C1018 1.409 . S
C1021 C1019 1.415 1_554 S
C1022 H1012 0.930 . S
C1022 C1020 1.419 . S
C1022 C1023 1.362 1_556 S
C1023 H1013 0.930 . S
C1023 C1016 1.409 . S
C1023 C1022 1.362 1_554 S
H1024 C1030 0.930 . S
H1025 C1033 0.930 . S
H1026 C1034 0.930 . S
H1027 C1035 0.930 . S
H1028 C1038 0.930 . S
H1029 C1039 0.930 . S
C1030 H1024 0.930 . S
C1030 C1031 1.355 . S
C1030 C1032 1.415 . S
C1031 C1030 1.355 . S
C1031 C1033 1.419 . S
C1032 C1030 1.415 . S
C1032 C1037 1.425 . S
C1032 C1039 1.409 . S
C1033 H1025 0.930 . S
C1033 C1031 1.419 . S
C1033 C1034 1.362 . S
C1034 H1026 0.930 . S
C1034 C1033 1.362 . S
C1034 C1037 1.409 . S
C1035 H1027 0.930 . S
C1035 C1036 1.355 . S
C1035 C1037 1.415 . S
C1036 C1035 1.355 . S
C1036 C1038 1.419 . S
C1037 C1032 1.425 . S
C1037 C1034 1.409 . S
C1037 C1035 1.415 . S
C1038 H1028 0.930 . S
C1038 C1036 1.419 . S
C1038 C1039 1.362 . S
C1039 H1029 0.930 . S
C1039 C1032 1.409 . S
C1039 C1038 1.362 . S
H1040 C1046 0.930 . S
H1041 C1049 0.930 . S
H1042 C1050 0.930 . S
H1043 C1051 0.930 . S
H1044 C1054 0.930 . S
H1045 C1055 0.930 . S
C1046 H1040 0.930 . S
C1046 C1047 1.355 . S
C1046 C1048 1.415 . S
C1047 C1046 1.355 . S
C1047 C1049 1.419 . S
C1048 C1046 1.415 . S
C1048 C1053 1.425 . S
C1048 C1055 1.409 . S
C1049 H1041 0.930 . S
C1049 C1047 1.419 . S
C1049 C1050 1.362 . S
C1050 H1042 0.930 . S
C1050 C1049 1.362 . S
C1050 C1053 1.409 . S
C1051 H1043 0.930 . S
C1051 C1052 1.355 . S
C1051 C1053 1.415 . S
C1052 C1051 1.355 . S
C1052 C1054 1.419 . S
C1053 C1048 1.425 . S
C1053 C1050 1.409 . S
C1053 C1051 1.415 . S
C1054 H1044 0.930 . S
C1054 C1052 1.419 . S
C1054 C1055 1.362 . S
C1055 H1045 0.930 . S
C1055 C1048 1.409 . S
C1055 C1054 1.362 . S
H1056 C1062 0.930 . S
H1057 C1065 0.930 . S
H1058 C1066 0.930 . S
H1059 C1067 0.930 . S
H1060 C1070 0.930 . S
H1061 C1071 0.930 . S
C1062 H1056 0.930 . S
C1062 C1063 1.355 . S
C1062 C1064 1.415 . S
C1063 C1062 1.355 . S
C1063 C1065 1.419 . S
C1064 C1062 1.415 . S
C1064 C1069 1.425 . S
C1064 C1071 1.409 . S
C1065 H1057 0.930 . S
C1065 C1063 1.419 . S
C1065 C1066 1.362 . S
C1066 H1058 0.930 . S
C1066 C1065 1.362 . S
C1066 C1069 1.409 . S
C1067 H1059 0.930 . S
C1067 C1068 1.355 . S
C1067 C1069 1.415 . S
C1068 C1067 1.355 . S
C1068 C1070 1.419 . S
C1069 C1064 1.425 . S
C1069 C1066 1.409 . S
C1069 C1067 1.415 . S
C1070 H1060 0.930 . S
C1070 C1068 1.419 . S
C1070 C1071 1.362 . S
C1071 H1061 0.930 . S
C1071 C1064 1.409 . S
C1071 C1070 1.362 . S
H1072 C1078 0.930 . S
H1073 C1081 0.930 . S
H1074 C1082 0.930 . S
H1075 C1083 0.930 . S
H1076 C1086 0.930 . S
H1077 C1087 0.930 . S
C1078 H1072 0.930 . S
C1078 C1079 1.355 . S
C1078 C1080 1.415 1_556 S
C1079 C1078 1.355 . S
C1079 C1081 1.419 . S
C1080 C1078 1.415 1_554 S
C1080 C1085 1.425 . S
C1080 C1087 1.409 . S
C1081 H1073 0.930 . S
C1081 C1079 1.419 . S
C1081 C1082 1.362 1_556 S
C1082 H1074 0.930 . S
C1082 C1081 1.362 1_554 S
C1082 C1085 1.409 . S
C1083 H1075 0.930 . S
C1083 C1084 1.355 . S
C1083 C1085 1.415 . S
C1084 C1083 1.355 . S
C1084 C1086 1.419 . S
C1085 C1080 1.425 . S
C1085 C1082 1.409 . S
C1085 C1083 1.415 . S
C1086 H1076 0.930 . S
C1086 C1084 1.419 . S
C1086 C1087 1.362 . S
C1087 H1077 0.930 . S
C1087 C1080 1.409 . S
C1087 C1086 1.362 . S
H1088 C1094 0.930 . S
H1089 C1097 0.930 . S
H1090 C1098 0.930 . S
H1091 C1099 0.930 . S
H1092 C1102 0.930 . S
H1093 C1103 0.930 . S
C1094 H1088 0.930 . S
C1094 C1095 1.355 . S
C1094 C1096 1.415 . S
C1095 C1094 1.355 . S
C1095 C1097 1.419 1_565 S
C1096 C1094 1.415 . S
C1096 C1101 1.425 1_565 S
C1096 C1103 1.409 . S
C1097 H1089 0.930 . S
C1097 C1095 1.419 1_545 S
C1097 C1098 1.362 . S
C1098 H1090 0.930 . S
C1098 C1097 1.362 . S
C1098 C1101 1.409 . S
C1099 H1091 0.930 . S
C1099 C1100 1.355 . S
C1099 C1101 1.415 . S
C1100 C1099 1.355 . S
C1100 C1102 1.419 1_545 S
C1101 C1096 1.425 1_545 S
C1101 C1098 1.409 . S
C1101 C1099 1.415 . S
C1102 H1092 0.930 . S
C1102 C1100 1.419 1_565 S
C1102 C1103 1.362 . S
C1103 H1093 0.930 . S
C1103 C1096 1.409 . S
C1103 C1102 1.362 . S
H1104 C1110 0.930 . S
H1105 C1113 0.930 . S
H1106 C1114 0.930 . S
H1107 C1115 0.930 . S
H1108 C1118 0.930 . S
H1109 C1119 0.930 . S
C1110 H1104 0.930 . S
C1110 C1111 1.355 . S
C1110 C1112 1.415 . S
C1111 C1110 1.355 . S
C1111 C1113 1.419 . S
C1112 C1110 1.415 . S
C1112 C1117 1.425 . S
C1112 C1119 1.409 . S
C1113 H1105 0.930 . S
C1113 C1111 1.419 . S
C1113 C1114 1.362 . S
C1114 H1106 0.930 . S
C1114 C1113 1.362 . S
C1114 C1117 1.409 . S
C1115 H1107 0.930 . S
C1115 C1116 1.355 . S
C1115 C1117 1.415 1_556 S
C1116 C1115 1.355 . S
C1116 C1118 1.419 . S
C1117 C1112 1.425 . S
C1117 C1114 1.409 . S
C1117 C1115 1.415 1_554 S
C1118 H1108 0.930 . S
C1118 C1116 1.419 . S
C1118 C1119 1.362 1_556 S
C1119 H1109 0.930 . S
C1119 C1112 1.409 . S
C1119 C1118 1.362 1_554 S
H1120 C1126 0.930 . S
H1121 C1129 0.930 . S
H1122 C1130 0.930 . S
H1123 C1131 0.930 . S
H1124 C1134 0.930 . S
H1125 C1135 0.930 . S
C1126 H1120 0.930 . S
C1126 C1127 1.355 . S
C1126 C1128 1.415 . S
C1127 C1126 1.355 . S
C1127 C1129 1.419 1_565 S
C1128 C1126 1.415 . S
C1128 C1133 1.425 1_565 S
C1128 C1135 1.409 . S
C1129 H1121 0.930 . S
C1129 C1127 1.419 1_545 S
C1129 C1130 1.362 . S
C1130 H1122 0.930 . S
C1130 C1129 1.362 . S
C1130 C1133 1.409 . S
C1131 H1123 0.930 . S
C1131 C1132 1.355 . S
C1131 C1133 1.415 . S
C1132 C1131 1.355 . S
C1132 C1134 1.419 1_545 S
C1133 C1128 1.425 1_545 S
C1133 C1130 1.409 . S
C1133 C1131 1.415 . S
C1134 H1124 0.930 . S
C1134 C1132 1.419 1_565 S
C1134 C1135 1.362 . S
C1135 H1125 0.930 . S
C1135 C1128 1.409 . S
C1135 C1134 1.362 . S
H1136 C1142 0.930 . S
H1137 C1145 0.930 . S
H1138 C1146 0.930 . S
H1139 C1147 0.930 . S
H1140 C1150 0.930 . S
H1141 C1151 0.930 . S
C1142 H1136 0.930 . S
C1142 C1143 1.355 . S
C1142 C1144 1.415 . S
C1143 C1142 1.355 . S
C1143 C1145 1.419 . S
C1144 C1142 1.415 . S
C1144 C1149 1.425 . S
C1144 C1151 1.409 . S
C1145 H1137 0.930 . S
C1145 C1143 1.419 . S
C1145 C1146 1.362 . S
C1146 H1138 0.930 . S
C1146 C1145 1.362 . S
C1146 C1149 1.409 . S
C1147 H1139 0.930 . S
C1147 C1148 1.355 . S
C1147 C1149 1.415 . S
C1148 C1147 1.355 . S
C1148 C1150 1.419 . S
C1149 C1144 1.425 . S
C1149 C1146 1.409 . S
C1149 C1147 1.415 . S
C1150 H1140 0.930 . S
C1150 C1148 1.419 . S
C1150 C1151 1.362 . S
C1151 H1141 0.930 . S
C1151 C1144 1.409 . S
C1151 C1150 1.362 . S
H1152 C1158 0.930 . S
H1153 C1161 0.930 . S
H1154 C1162 0.930 . S
H1155 C1163 0.930 . S
H1156 C1166 0.930 . S
H1157 C1167 0.930 . S
C1158 H1152 0.930 . S
C1158 C1159 1.355 . S
C1158 C1160 1.415 . S
C1159 C1158 1.355 . S
C1159 C1161 1.419 1_565 S
C1160 C1158 1.415 . S
C1160 C1165 1.425 1_565 S
C1160 C1167 1.409 . S
C1161 H1153 0.930 . S
C1161 C1159 1.419 1_545 S
C1161 C1162 1.362 . S
C1162 H1154 0.930 . S
C1162 C1161 1.362 . S
C1162 C1165 1.409 . S
C1163 H1155 0.930 . S
C1163 C1164 1.355 . S
C1163 C1165 1.415 . S
C1164 C1163 1.355 . S
C1164 C1166 1.419 1_545 S
C1165 C1160 1.425 1_545 S
C1165 C1162 1.409 . S
C1165 C1163 1.415 . S
C1166 H1156 0.930 . S
C1166 C1164 1.419 1_565 S
C1166 C1167 1.362 . S
C1167 H1157 0.930 . S
C1167 C1160 1.409 . S
C1167 C1166 1.362 . S
H1168 C1174 0.930 . S
H1169 C1177 0.930 . S
H1170 C1178 0.930 . S
H1171 C1179 0.930 . S
H1172 C1182 0.930 . S
H1173 C1183 0.930 . S
C1174 H1168 0.930 . S
C1174 C1175 1.355 . S
C1174 C1176 1.415 . S
C1175 C1174 1.355 . S
C1175 C1177 1.419 . S
C1176 C1174 1.415 . S
C1176 C1181 1.425 . S
C1176 C1183 1.409 . S
C1177 H1169 0.930 . S
C1177 C1175 1.419 . S
C1177 C1178 1.362 . S
C1178 H1170 0.930 . S
C1178 C1177 1.362 . S
C1178 C1181 1.409 . S
C1179 H1171 0.930 . S
C1179 C1180 1.355 . S
C1179 C1181 1.415 1_556 S
C1180 C1179 1.355 . S
C1180 C1182 1.419 . S
C1181 C1176 1.425 . S
C1181 C1178 1.409 . S
C1181 C1179 1.415 1_554 S
C1182 H1172 0.930 . S
C1182 C1180 1.419 . S
C1182 C1183 1.362 1_556 S
C1183 H1173 0.930 . S
C1183 C1176 1.409 . S
C1183 C1182 1.362 1_554 S
H1184 C1190 0.930 . S
H1185 C1193 0.930 . S
H1186 C1194 0.930 . S
H1187 C1195 0.930 . S
H1188 C1198 0.930 . S
H1189 C1199 0.930 . S
C1190 H1184 0.930 . S
C1190 C1191 1.355 . S
C1190 C1192 1.415 . S
C1191 C1190 1.355 . S
C1191 C1193 1.419 1_565 S
C1192 C1190 1.415 . S
C1192 C1197 1.425 1_565 S
C1192 C1199 1.409 . S
C1193 H1185 0.930 . S
C1193 C1191 1.419 1_545 S
C1193 C1194 1.362 . S
C1194 H1186 0.930 . S
C1194 C1193 1.362 . S
C1194 C1197 1.409 . S
C1195 H1187 0.930 . S
C1195 C1196 1.355 . S
C1195 C1197 1.415 . S
C1196 C1195 1.355 . S
C1196 C1198 1.419 1_545 S
C1197 C1192 1.425 1_545 S
C1197 C1194 1.409 . S
C1197 C1195 1.415 . S
C1198 H1188 0.930 . S
C1198 C1196 1.419 1_565 S
C1198 C1199 1.362 . S
C1199 H1189 0.930 . S
C1199 C1192 1.409 . S
C1199 C1198 1.362 . S
H1200 C1206 0.930 . S
H1201 C1209 0.930 . S
H1202 C1210 0.930 . S
H1203 C1211 0.930 . S
H1204 C1214 0.930 . S
H1205 C1215 0.930 . S
C1206 H1200 0.930 . S
C1206 C1207 1.355 . S
C1206 C1208 1.415 . S
C1207 C1206 1.355 . S
C1207 C1209 1.419 . S
C1208 C1206 1.415 . S
C1208 C1213 1.425 . S
C1208 C1215 1.409 . S
C1209 H1201 0.930 . S
C1209 C1207 1.419 . S
C1209 C1210 1.362 . S
C1210 H1202 0.930 . S
C1210 C1209 1.362 . S
C1210 C1213 1.409 . S
C1211 H1203 0.930 . S
C1211 C1212 1.355 . S
C1211 C1213 1.415 . S
C1212 C1211 1.355 . S
C1212 C1214 1.419 . S
C1213 C1208 1.425 . S
C1213 C1210 1.409 . S
C1213 C1211 1.415 . S
C1214 H1204 0.930 . S
C1214 C1212 1.419 . S
C1214 C1215 1.362 . S
C1215 H1205 0.930 . S
C1215 C1208 1.409 . S
C1215 C1214 1.362 . S
H1216 C1222 0.930 . S
H1217 C1225 0.930 . S
H1218 C1226 0.930 . S
H1219 C1227 0.930 . S
H1220 C1230 0.930 . S
H1221 C1231 0.930 . S
C1222 H1216 0.930 . S
C1222 C1223 1.355 . S
C1222 C1224 1.415 . S
C1223 C1222 1.355 . S
C1223 C1225 1.419 . S
C1224 C1222 1.415 . S
C1224 C1229 1.425 . S
C1224 C1231 1.409 . S
C1225 H1217 0.930 . S
C1225 C1223 1.419 . S
C1225 C1226 1.362 . S
C1226 H1218 0.930 . S
C1226 C1225 1.362 . S
C1226 C1229 1.409 . S
C1227 H1219 0.930 . S
C1227 C1228 1.355 . S
C1227 C1229 1.415 . S
C1228 C1227 1.355 . S
C1228 C1230 1.419 . S
C1229 C1224 1.425 . S
C1229 C1226 1.409 . S
C1229 C1227 1.415 . S
C1230 H1220 0.930 . S
C1230 C1228 1.419 . S
C1230 C1231 1.362 . S
C1231 H1221 0.930 . S
C1231 C1224 1.409 . S
C1231 C1230 1.362 . S
H1232 C1238 0.930 . S
H1233 C1241 0.930 . S
H1234 C1242 0.930 . S
H1235 C1243 0.930 . S
H1236 C1246 0.930 . S
H1237 C1247 0.930 . S
C1238 H1232 0.930 . S
C1238 C1239 1.355 . S
C1238 C1240 1.415 . S
C1239 C1238 1.355 . S
C1239 C1241 1.419 . S
C1240 C1238 1.415 . S
C1240 C1245 1.425 . S
C1240 C1247 1.409 . S
C1241 H1233 0.930 . S
C1241 C1239 1.419 . S
C1241 C1242 1.362 . S
C1242 H1234 0.930 . S
C1242 C1241 1.362 . S
C1242 C1245 1.409 . S
C1243 H1235 0.930 . S
C1243 C1244 1.355 . S
C1243 C1245 1.415 . S
C1244 C1243 1.355 . S
C1244 C1246 1.419 . S
C1245 C1240 1.425 . S
C1245 C1242 1.409 . S
C1245 C1243 1.415 . S
C1246 H1236 0.930 . S
C1246 C1244 1.419 . S
C1246 C1247 1.362 . S
C1247 H1237 0.930 . S
C1247 C1240 1.409 . S
C1247 C1246 1.362 . S
H1248 C1254 0.930 . S
H1249 C1257 0.930 . S
H1250 C1258 0.930 . S
H1251 C1259 0.930 . S
H1252 C1262 0.930 . S
H1253 C1263 0.930 . S
C1254 H1248 0.930 . S
C1254 C1255 1.355 . S
C1254 C1256 1.415 . S
C1255 C1254 1.355 . S
C1255 C1257 1.419 . S
C1256 C1254 1.415 . S
C1256 C1261 1.425 . S
C1256 C1263 1.409 . S
C1257 H1249 0.930 . S
C1257 C1255 1.419 . S
C1257 C1258 1.362 . S
C1258 H1250 0.930 . S
C1258 C1257 1.362 . S
C1258 C1261 1.409 . S
C1259 H1251 0.930 . S
C1259 C1260 1.355 . S
C1259 C1261 1.415 . S
C1260 C1259 1.355 . S
C1260 C1262 1.419 . S
C1261 C1256 1.425 . S
C1261 C1258 1.409 . S
C1261 C1259 1.415 . S
C1262 H1252 0.930 . S
C1262 C1260 1.419 . S
C1262 C1263 1.362 . S
C1263 H1253 0.930 . S
C1263 C1256 1.409 . S
C1263 C1262 1.362 . S
H1264 C1270 0.930 . S
H1265 C1273 0.930 . S
H1266 C1274 0.930 1_554 S
H1267 C1275 0.930 1_554 S
H1268 C1278 0.930 . S
H1269 C1279 0.930 . S
C1270 H1264 0.930 . S
C1270 C1271 1.355 . S
C1270 C1272 1.415 . S
C1271 C1270 1.355 . S
C1271 C1273 1.419 . S
C1272 C1270 1.415 . S
C1272 C1277 1.425 . S
C1272 C1279 1.409 . S
C1273 H1265 0.930 . S
C1273 C1271 1.419 . S
C1273 C1274 1.362 . S
C1274 H1266 0.930 1_556 S
C1274 C1273 1.362 . S
C1274 C1277 1.409 . S
C1275 H1267 0.930 1_556 S
C1275 C1276 1.355 . S
C1275 C1277 1.415 . S
C1276 C1275 1.355 . S
C1276 C1278 1.419 . S
C1277 C1272 1.425 . S
C1277 C1274 1.409 . S
C1277 C1275 1.415 . S
C1278 H1268 0.930 . S
C1278 C1276 1.419 . S
C1278 C1279 1.362 . S
C1279 H1269 0.930 . S
C1279 C1272 1.409 . S
C1279 C1278 1.362 . S
H1280 C1286 0.930 . S
H1281 C1289 0.930 . S
H1282 C1290 0.930 . S
H1283 C1291 0.930 . S
H1284 C1294 0.930 . S
H1285 C1295 0.930 . S
C1286 H1280 0.930 . S
C1286 C1287 1.355 . S
C1286 C1288 1.415 . S
C1287 C1286 1.355 . S
C1287 C1289 1.419 . S
C1288 C1286 1.415 . S
C1288 C1293 1.425 . S
C1288 C1295 1.409 . S
C1289 H1281 0.930 . S
C1289 C1287 1.419 . S
C1289 C1290 1.362 . S
C1290 H1282 0.930 . S
C1290 C1289 1.362 . S
C1290 C1293 1.409 . S
C1291 H1283 0.930 . S
C1291 C1292 1.355 . S
C1291 C1293 1.415 . S
C1292 C1291 1.355 . S
C1292 C1294 1.419 . S
C1293 C1288 1.425 . S
C1293 C1290 1.409 . S
C1293 C1291 1.415 . S
C1294 H1284 0.930 . S
C1294 C1292 1.419 . S
C1294 C1295 1.362 . S
C1295 H1285 0.930 . S
C1295 C1288 1.409 . S
C1295 C1294 1.362 . S
H1296 C1302 0.930 . S
H1297 C1305 0.930 . S
H1298 C1306 0.930 . S
H1299 C1307 0.930 . S
H1300 C1310 0.930 . S
H1301 C1311 0.930 . S
C1302 H1296 0.930 . S
C1302 C1303 1.355 . S
C1302 C1304 1.415 . S
C1303 C1302 1.355 . S
C1303 C1305 1.419 . S
C1304 C1302 1.415 . S
C1304 C1309 1.425 . S
C1304 C1311 1.409 . S
C1305 H1297 0.930 . S
C1305 C1303 1.419 . S
C1305 C1306 1.362 . S
C1306 H1298 0.930 . S
C1306 C1305 1.362 . S
C1306 C1309 1.409 . S
C1307 H1299 0.930 . S
C1307 C1308 1.355 . S
C1307 C1309 1.415 . S
C1308 C1307 1.355 . S
C1308 C1310 1.419 . S
C1309 C1304 1.425 . S
C1309 C1306 1.409 . S
C1309 C1307 1.415 . S
C1310 H1300 0.930 . S
C1310 C1308 1.419 . S
C1310 C1311 1.362 . S
C1311 H1301 0.930 . S
C1311 C1304 1.409 . S
C1311 C1310 1.362 . S
H1312 C1318 0.930 . S
H1313 C1321 0.930 . S
H1314 C1322 0.930 . S
H1315 C1323 0.930 1_554 S
H1316 C1326 0.930 . S
H1317 C1327 0.930 . S
C1318 H1312 0.930 . S
C1318 C1319 1.355 . S
C1318 C1320 1.415 . S
C1319 C1318 1.355 . S
C1319 C1321 1.419 . S
C1320 C1318 1.415 . S
C1320 C1325 1.425 . S
C1320 C1327 1.409 . S
C1321 H1313 0.930 . S
C1321 C1319 1.419 . S
C1321 C1322 1.362 . S
C1322 H1314 0.930 . S
C1322 C1321 1.362 . S
C1322 C1325 1.409 . S
C1323 H1315 0.930 1_556 S
C1323 C1324 1.355 . S
C1323 C1325 1.415 . S
C1324 C1323 1.355 . S
C1324 C1326 1.419 . S
C1325 C1320 1.425 . S
C1325 C1322 1.409 . S
C1325 C1323 1.415 . S
C1326 H1316 0.930 . S
C1326 C1324 1.419 . S
C1326 C1327 1.362 . S
C1327 H1317 0.930 . S
C1327 C1320 1.409 . S
C1327 C1326 1.362 . S
H1328 C1334 0.930 . S
H1329 C1337 0.930 . S
H1330 C1338 0.930 . S
H1331 C1339 0.930 . S
H1332 C1342 0.930 . S
H1333 C1343 0.930 . S
C1334 H1328 0.930 . S
C1334 C1335 1.355 . S
C1334 C1336 1.415 . S
C1335 C1334 1.355 . S
C1335 C1337 1.419 . S
C1336 C1334 1.415 . S
C1336 C1341 1.425 . S
C1336 C1343 1.409 . S
C1337 H1329 0.930 . S
C1337 C1335 1.419 . S
C1337 C1338 1.362 . S
C1338 H1330 0.930 . S
C1338 C1337 1.362 . S
C1338 C1341 1.409 . S
C1339 H1331 0.930 . S
C1339 C1340 1.355 . S
C1339 C1341 1.415 . S
C1340 C1339 1.355 . S
C1340 C1342 1.419 . S
C1341 C1336 1.425 . S
C1341 C1338 1.409 . S
C1341 C1339 1.415 . S
C1342 H1332 0.930 . S
C1342 C1340 1.419 . S
C1342 C1343 1.362 . S
C1343 H1333 0.930 . S
C1343 C1336 1.409 . S
C1343 C1342 1.362 . S
H1344 C1350 0.930 . S
H1345 C1353 0.930 1_554 S
H1346 C1354 0.930 . S
H1347 C1355 0.930 . S
H1348 C1358 0.930 . S
H1349 C1359 0.930 . S
C1350 H1344 0.930 . S
C1350 C1351 1.355 . S
C1350 C1352 1.415 . S
C1351 C1350 1.355 . S
C1351 C1353 1.419 . S
C1352 C1350 1.415 . S
C1352 C1357 1.425 . S
C1352 C1359 1.409 . S
C1353 H1345 0.930 1_556 S
C1353 C1351 1.419 . S
C1353 C1354 1.362 . S
C1354 H1346 0.930 . S
C1354 C1353 1.362 . S
C1354 C1357 1.409 . S
C1355 H1347 0.930 . S
C1355 C1356 1.355 . S
C1355 C1357 1.415 . S
C1356 C1355 1.355 . S
C1356 C1358 1.419 . S
C1357 C1352 1.425 . S
C1357 C1354 1.409 . S
C1357 C1355 1.415 . S
C1358 H1348 0.930 . S
C1358 C1356 1.419 . S
C1358 C1359 1.362 . S
C1359 H1349 0.930 . S
C1359 C1352 1.409 . S
C1359 C1358 1.362 . S
H1360 C1366 0.930 . S
H1361 C1369 0.930 . S
H1362 C1370 0.930 . S
H1363 C1371 0.930 . S
H1364 C1374 0.930 . S
H1365 C1375 0.930 . S
C1366 H1360 0.930 . S
C1366 C1367 1.355 . S
C1366 C1368 1.415 . S
C1367 C1366 1.355 . S
C1367 C1369 1.419 . S
C1368 C1366 1.415 . S
C1368 C1373 1.425 . S
C1368 C1375 1.409 . S
C1369 H1361 0.930 . S
C1369 C1367 1.419 . S
C1369 C1370 1.362 . S
C1370 H1362 0.930 . S
C1370 C1369 1.362 . S
C1370 C1373 1.409 . S
C1371 H1363 0.930 . S
C1371 C1372 1.355 . S
C1371 C1373 1.415 . S
C1372 C1371 1.355 . S
C1372 C1374 1.419 . S
C1373 C1368 1.425 . S
C1373 C1370 1.409 . S
C1373 C1371 1.415 . S
C1374 H1364 0.930 . S
C1374 C1372 1.419 . S
C1374 C1375 1.362 . S
C1375 H1365 0.930 . S
C1375 C1368 1.409 . S
C1375 C1374 1.362 . S
H1376 C1382 0.930 . S
H1377 C1385 0.930 . S
H1378 C1386 0.930 . S
H1379 C1387 0.930 . S
H1380 C1390 0.930 . S
H1381 C1391 0.930 . S
C1382 H1376 0.930 . S
C1382 C1383 1.355 . S
C1382 C1384 1.415 . S
C1383 C1382 1.355 . S
C1383 C1385 1.419 . S
C1384 C1382 1.415 . S
C1384 C1389 1.425 . S
C1384 C1391 1.409 . S
C1385 H1377 0.930 . S
C1385 C1383 1.419 . S
C1385 C1386 1.362 . S
C1386 H1378 0.930 . S
C1386 C1385 1.362 . S
C1386 C1389 1.409 . S
C1387 H1379 0.930 . S
C1387 C1388 1.355 . S
C1387 C1389 1.415 . S
C1388 C1387 1.355 . S
C1388 C1390 1.419 . S
C1389 C1384 1.425 . S
C1389 C1386 1.409 . S
C1389 C1387 1.415 . S
C1390 H1380 0.930 . S
C1390 C1388 1.419 . S
C1390 C1391 1.362 . S
C1391 H1381 0.930 . S
C1391 C1384 1.409 . S
C1391 C1390 1.362 . S
H1392 C1398 0.930 . S
H1393 C1401 0.930 . S
H1394 C1402 0.930 . S
H1395 C1403 0.930 . S
H1396 C1406 0.930 . S
H1397 C1407 0.930 . S
C1398 H1392 0.930 . S
C1398 C1399 1.355 . S
C1398 C1400 1.415 . S
C1399 C1398 1.355 . S
C1399 C1401 1.419 . S
C1400 C1398 1.415 . S
C1400 C1405 1.425 . S
C1400 C1407 1.409 . S
C1401 H1393 0.930 . S
C1401 C1399 1.419 . S
C1401 C1402 1.362 . S
C1402 H1394 0.930 . S
C1402 C1401 1.362 . S
C1402 C1405 1.409 . S
C1403 H1395 0.930 . S
C1403 C1404 1.355 . S
C1403 C1405 1.415 . S
C1404 C1403 1.355 . S
C1404 C1406 1.419 . S
C1405 C1400 1.425 . S
C1405 C1402 1.409 . S
C1405 C1403 1.415 . S
C1406 H1396 0.930 . S
C1406 C1404 1.419 . S
C1406 C1407 1.362 . S
C1407 H1397 0.930 . S
C1407 C1400 1.409 . S
C1407 C1406 1.362 . S
H1408 C1414 0.930 . S
H1409 C1417 0.930 . S
H1410 C1418 0.930 . S
H1411 C1419 0.930 . S
H1412 C1422 0.930 . S
H1413 C1423 0.930 . S
C1414 H1408 0.930 . S
C1414 C1415 1.355 . S
C1414 C1416 1.415 . S
C1415 C1414 1.355 . S
C1415 C1417 1.419 . S
C1416 C1414 1.415 . S
C1416 C1421 1.425 . S
C1416 C1423 1.409 . S
C1417 H1409 0.930 . S
C1417 C1415 1.419 . S
C1417 C1418 1.362 . S
C1418 H1410 0.930 . S
C1418 C1417 1.362 . S
C1418 C1421 1.409 . S
C1419 H1411 0.930 . S
C1419 C1420 1.355 . S
C1419 C1421 1.415 . S
C1420 C1419 1.355 . S
C1420 C1422 1.419 . S
C1421 C1416 1.425 . S
C1421 C1418 1.409 . S
C1421 C1419 1.415 . S
C1422 H1412 0.930 . S
C1422 C1420 1.419 . S
C1422 C1423 1.362 . S
C1423 H1413 0.930 . S
C1423 C1416 1.409 . S
C1423 C1422 1.362 . S
H1424 C1430 0.930 . S
H1425 C1433 0.930 . S
H1426 C1434 0.930 . S
H1427 C1435 0.930 . S
H1428 C1438 0.930 . S
H1429 C1439 0.930 . S
C1430 H1424 0.930 . S
C1430 C1431 1.355 . S
C1430 C1432 1.415 . S
C1431 C1430 1.355 . S
C1431 C1433 1.419 . S
C1432 C1430 1.415 . S
C1432 C1437 1.425 . S
C1432 C1439 1.409 . S
C1433 H1425 0.930 . S
C1433 C1431 1.419 . S
C1433 C1434 1.362 . S
C1434 H1426 0.930 . S
C1434 C1433 1.362 . S
C1434 C1437 1.409 . S
C1435 H1427 0.930 . S
C1435 C1436 1.355 . S
C1435 C1437 1.415 . S
C1436 C1435 1.355 . S
C1436 C1438 1.419 . S
C1437 C1432 1.425 . S
C1437 C1434 1.409 . S
C1437 C1435 1.415 . S
C1438 H1428 0.930 . S
C1438 C1436 1.419 . S
C1438 C1439 1.362 . S
C1439 H1429 0.930 . S
C1439 C1432 1.409 . S
C1439 C1438 1.362 . S
H1440 C1446 0.930 . S
H1441 C1449 0.930 . S
H1442 C1450 0.930 . S
H1443 C1451 0.930 . S
H1444 C1454 0.930 . S
H1445 C1455 0.930 . S
C1446 H1440 0.930 . S
C1446 C1447 1.355 . S
C1446 C1448 1.415 . S
C1447 C1446 1.355 . S
C1447 C1449 1.419 . S
C1448 C1446 1.415 . S
C1448 C1453 1.425 . S
C1448 C1455 1.409 . S
C1449 H1441 0.930 . S
C1449 C1447 1.419 . S
C1449 C1450 1.362 . S
C1450 H1442 0.930 . S
C1450 C1449 1.362 . S
C1450 C1453 1.409 . S
C1451 H1443 0.930 . S
C1451 C1452 1.355 . S
C1451 C1453 1.415 . S
C1452 C1451 1.355 . S
C1452 C1454 1.419 . S
C1453 C1448 1.425 . S
C1453 C1450 1.409 . S
C1453 C1451 1.415 . S
C1454 H1444 0.930 . S
C1454 C1452 1.419 . S
C1454 C1455 1.362 . S
C1455 H1445 0.930 . S
C1455 C1448 1.409 . S
C1455 C1454 1.362 . S
H1456 C1462 0.930 . S
H1457 C1465 0.930 . S
H1458 C1466 0.930 . S
H1459 C1467 0.930 . S
H1460 C1470 0.930 1_554 S
H1461 C1471 0.930 . S
C1462 H1456 0.930 . S
C1462 C1463 1.355 . S
C1462 C1464 1.415 . S
C1463 C1462 1.355 . S
C1463 C1465 1.419 . S
C1464 C1462 1.415 . S
C1464 C1469 1.425 . S
C1464 C1471 1.409 . S
C1465 H1457 0.930 . S
C1465 C1463 1.419 . S
C1465 C1466 1.362 . S
C1466 H1458 0.930 . S
C1466 C1465 1.362 . S
C1466 C1469 1.409 . S
C1467 H1459 0.930 . S
C1467 C1468 1.355 . S
C1467 C1469 1.415 . S
C1468 C1467 1.355 . S
C1468 C1470 1.419 . S
C1469 C1464 1.425 . S
C1469 C1466 1.409 . S
C1469 C1467 1.415 . S
C1470 H1460 0.930 1_556 S
C1470 C1468 1.419 . S
C1470 C1471 1.362 . S
C1471 H1461 0.930 . S
C1471 C1464 1.409 . S
C1471 C1470 1.362 . S
C455 C121 1.388 . S
C460 C9 1.388 . S
C471 C23 1.371 . S
C476 C359 1.371 . S
C487 C37 1.295 . S
C492 C149 1.295 . S
C503 C51 1.371 . S
C508 C387 1.371 . S
C519 C65 1.339 . S
C524 C177 1.339 . S
C535 C415 1.333 . S
C540 C79 1.333 . S
C551 C205 1.386 . S
C556 C93 1.386 . S
C567 C443 1.305 . S
C572 C107 1.305 . S
C583 C247 1.304 . S
C588 C135 1.304 . S
C599 C163 1.326 . S
C604 C275 1.326 . S
C615 C191 1.385 . S
C620 C303 1.385 . S
C631 C331 1.294 . S
C636 C219 1.294 . S
C647 C345 1.380 . S
C652 C233 1.380 . S
C663 C261 1.306 . S
C668 C373 1.306 . S
C679 C289 1.383 . S
C684 C401 1.383 . S
C695 C429 1.374 . S
C700 C317 1.374 . S
C711 C7 1.221 . S
C716 C63 1.211 . S
C727 C77 1.267 . S
C732 C21 1.268 . S
C743 C91 1.270 . S
C748 C35 1.249 . S
C759 C49 1.215 . S
C764 C105 1.213 . S
C775 C119 1.216 . S
C780 C175 1.244 . S
C791 C133 1.227 . S
C796 C189 1.210 . S
C807 C203 1.214 . S
C812 C147 1.215 . S
C823 C217 1.230 . S
C828 C161 1.210 . S
C839 C287 1.225 . S
C844 C231 1.210 . S
C855 C301 1.216 . S
C860 C245 1.243 . S
C871 C259 1.253 . S
C876 C315 1.271 . S
C887 C329 1.269 . S
C892 C273 1.246 . S
C903 C399 1.268 . S
C908 C343 1.266 . S
C919 C357 1.224 . S
C924 C413 1.210 . S
C935 C427 1.252 . S
C940 C371 1.271 . S
C951 C441 1.211 . S
C956 C385 1.232 . S
C967 C64 1.175 . S
C972 C8 1.181 . S
C983 C78 1.173 . S
C988 C22 1.179 . S
C999 C36 1.179 . S
C1004 C92 1.184 . S
C1015 C106 1.099 . S
C1020 C50 1.093 . S
C1031 C176 1.091 . S
C1036 C120 1.087 . S
C1047 C134 1.181 . S
C1052 C190 1.185 . S
C1063 C204 1.186 . S
C1068 C148 1.187 . S
C1079 C218 1.186 . S
C1084 C162 1.187 . S
C1095 C232 1.148 . S
C1100 C288 1.158 . S
C1111 C302 1.088 . S
C1116 C246 1.085 . S
C1127 C316 1.139 . S
C1132 C260 1.148 . S
C1143 C330 1.112 . S
C1148 C274 1.104 . S
C1159 C400 1.171 . S
C1164 C344 1.163 . S
C1175 C358 1.084 . S
C1180 C414 1.084 . S
C1191 C372 1.170 . S
C1196 C428 1.163 . S
C1207 C386 1.152 . S
C1212 C442 1.161 . S
C1223 C6 1.440 . S
C1228 C300 1.443 . S
C1239 C314 1.385 . S
C1244 C20 1.377 . S
C1255 C34 1.436 . S
C1260 C328 1.444 . S
C1271 C48 1.377 . S
C1276 C286 1.389 . S
C1287 C272 1.420 . S
C1292 C62 1.391 . S
C1303 C230 1.443 . S
C1308 C76 1.440 . S
C1319 C244 1.382 . S
C1324 C90 1.406 . S
C1335 C104 1.444 . S
C1340 C258 1.436 . S
C1351 C118 1.443 . S
C1356 C412 1.424 . S
C1367 C426 1.444 . S
C1372 C132 1.425 . S
C1383 C440 1.404 . S
C1388 C146 1.381 . S
C1399 C398 1.442 . S
C1404 C160 1.420 . S
C1415 C384 1.415 . S
C1420 C174 1.440 . S
C1431 C342 1.409 . S
C1436 C188 1.383 . S
C1447 C202 1.419 . S
C1452 C356 1.442 . S
C1463 C216 1.410 . S
C1468 C370 1.436 . S
