# Generated by pormake.
# Topology ato, (4)-cn, num edge types: 1
# Building blocks:
#     Node 0, Type 0, BuildingBlock: GALJAG_clean_sbu_0, # of connection points: 4
#     Node 1, Type 0, BuildingBlock: GALJAG_clean_sbu_0, # of connection points: 4
#     Node 2, Type 0, BuildingBlock: GALJAG_clean_sbu_0, # of connection points: 4
#     Node 3, Type 0, BuildingBlock: GALJAG_clean_sbu_0, # of connection points: 4
#     Node 4, Type 0, BuildingBlock: GALJAG_clean_sbu_0, # of connection points: 4
#     Node 5, Type 0, BuildingBlock: GALJAG_clean_sbu_0, # of connection points: 4
#     Node 6, Type 0, BuildingBlock: GALJAG_clean_sbu_0, # of connection points: 4
#     Node 7, Type 0, BuildingBlock: GALJAG_clean_sbu_0, # of connection points: 4
#     Node 8, Type 0, BuildingBlock: GALJAG_clean_sbu_0, # of connection points: 4
#     Node 9, Type 0, BuildingBlock: GALJAG_clean_sbu_0, # of connection points: 4
#     Node 10, Type 0, BuildingBlock: GALJAG_clean_sbu_0, # of connection points: 4
#     Node 11, Type 0, BuildingBlock: GALJAG_clean_sbu_0, # of connection points: 4
#     Node 12, Type 0, BuildingBlock: GALJAG_clean_sbu_0, # of connection points: 4
#     Node 13, Type 0, BuildingBlock: GALJAG_clean_sbu_0, # of connection points: 4
#     Node 14, Type 0, BuildingBlock: GALJAG_clean_sbu_0, # of connection points: 4
#     Node 15, Type 0, BuildingBlock: GALJAG_clean_sbu_0, # of connection points: 4
#     Node 16, Type 0, BuildingBlock: GALJAG_clean_sbu_0, # of connection points: 4
#     Node 17, Type 0, BuildingBlock: GALJAG_clean_sbu_0, # of connection points: 4
#     Node 18, Type 0, BuildingBlock: GALJAG_clean_sbu_0, # of connection points: 4
#     Node 19, Type 0, BuildingBlock: GALJAG_clean_sbu_0, # of connection points: 4
#     Node 20, Type 0, BuildingBlock: GALJAG_clean_sbu_0, # of connection points: 4
#     Node 21, Type 0, BuildingBlock: GALJAG_clean_sbu_0, # of connection points: 4
#     Node 22, Type 0, BuildingBlock: GALJAG_clean_sbu_0, # of connection points: 4
#     Node 23, Type 0, BuildingBlock: GALJAG_clean_sbu_0, # of connection points: 4
#     Node 24, Type 0, BuildingBlock: GALJAG_clean_sbu_0, # of connection points: 4
#     Node 25, Type 0, BuildingBlock: GALJAG_clean_sbu_0, # of connection points: 4
#     Node 26, Type 0, BuildingBlock: GALJAG_clean_sbu_0, # of connection points: 4
#     Node 27, Type 0, BuildingBlock: GALJAG_clean_sbu_0, # of connection points: 4
#     Node 28, Type 0, BuildingBlock: GALJAG_clean_sbu_0, # of connection points: 4
#     Node 29, Type 0, BuildingBlock: GALJAG_clean_sbu_0, # of connection points: 4
#     Node 30, Type 0, BuildingBlock: GALJAG_clean_sbu_0, # of connection points: 4
#     Node 31, Type 0, BuildingBlock: GALJAG_clean_sbu_0, # of connection points: 4
#     Node 32, Type 0, BuildingBlock: GALJAG_clean_sbu_0, # of connection points: 4
#     Node 33, Type 0, BuildingBlock: GALJAG_clean_sbu_0, # of connection points: 4
#     Node 34, Type 0, BuildingBlock: GALJAG_clean_sbu_0, # of connection points: 4
#     Node 35, Type 0, BuildingBlock: GALJAG_clean_sbu_0, # of connection points: 4
#     Edge 36, Type (0, 0), BuildingBlock: AJUNOK_clean_linker_0, # of connection points: 2
#     Edge 37, Type (0, 0), BuildingBlock: AJUNOK_clean_linker_0, # of connection points: 2
#     Edge 38, Type (0, 0), BuildingBlock: AJUNOK_clean_linker_0, # of connection points: 2
#     Edge 39, Type (0, 0), BuildingBlock: AJUNOK_clean_linker_0, # of connection points: 2
#     Edge 40, Type (0, 0), BuildingBlock: AJUNOK_clean_linker_0, # of connection points: 2
#     Edge 41, Type (0, 0), BuildingBlock: AJUNOK_clean_linker_0, # of connection points: 2
#     Edge 42, Type (0, 0), BuildingBlock: AJUNOK_clean_linker_0, # of connection points: 2
#     Edge 43, Type (0, 0), BuildingBlock: AJUNOK_clean_linker_0, # of connection points: 2
#     Edge 44, Type (0, 0), BuildingBlock: AJUNOK_clean_linker_0, # of connection points: 2
#     Edge 45, Type (0, 0), BuildingBlock: AJUNOK_clean_linker_0, # of connection points: 2
#     Edge 46, Type (0, 0), BuildingBlock: AJUNOK_clean_linker_0, # of connection points: 2
#     Edge 47, Type (0, 0), BuildingBlock: AJUNOK_clean_linker_0, # of connection points: 2
#     Edge 48, Type (0, 0), BuildingBlock: AJUNOK_clean_linker_0, # of connection points: 2
#     Edge 49, Type (0, 0), BuildingBlock: AJUNOK_clean_linker_0, # of connection points: 2
#     Edge 50, Type (0, 0), BuildingBlock: AJUNOK_clean_linker_0, # of connection points: 2
#     Edge 51, Type (0, 0), BuildingBlock: AJUNOK_clean_linker_0, # of connection points: 2
#     Edge 52, Type (0, 0), BuildingBlock: AJUNOK_clean_linker_0, # of connection points: 2
#     Edge 53, Type (0, 0), BuildingBlock: AJUNOK_clean_linker_0, # of connection points: 2
#     Edge 54, Type (0, 0), BuildingBlock: AJUNOK_clean_linker_0, # of connection points: 2
#     Edge 55, Type (0, 0), BuildingBlock: AJUNOK_clean_linker_0, # of connection points: 2
#     Edge 56, Type (0, 0), BuildingBlock: AJUNOK_clean_linker_0, # of connection points: 2
#     Edge 57, Type (0, 0), BuildingBlock: AJUNOK_clean_linker_0, # of connection points: 2
#     Edge 58, Type (0, 0), BuildingBlock: AJUNOK_clean_linker_0, # of connection points: 2
#     Edge 59, Type (0, 0), BuildingBlock: AJUNOK_clean_linker_0, # of connection points: 2
#     Edge 60, Type (0, 0), BuildingBlock: AJUNOK_clean_linker_0, # of connection points: 2
#     Edge 61, Type (0, 0), BuildingBlock: AJUNOK_clean_linker_0, # of connection points: 2
#     Edge 62, Type (0, 0), BuildingBlock: AJUNOK_clean_linker_0, # of connection points: 2
#     Edge 63, Type (0, 0), BuildingBlock: AJUNOK_clean_linker_0, # of connection points: 2
#     Edge 64, Type (0, 0), BuildingBlock: AJUNOK_clean_linker_0, # of connection points: 2
#     Edge 65, Type (0, 0), BuildingBlock: AJUNOK_clean_linker_0, # of connection points: 2
#     Edge 66, Type (0, 0), BuildingBlock: AJUNOK_clean_linker_0, # of connection points: 2
#     Edge 67, Type (0, 0), BuildingBlock: AJUNOK_clean_linker_0, # of connection points: 2
#     Edge 68, Type (0, 0), BuildingBlock: AJUNOK_clean_linker_0, # of connection points: 2
#     Edge 69, Type (0, 0), BuildingBlock: AJUNOK_clean_linker_0, # of connection points: 2
#     Edge 70, Type (0, 0), BuildingBlock: AJUNOK_clean_linker_0, # of connection points: 2
#     Edge 71, Type (0, 0), BuildingBlock: AJUNOK_clean_linker_0, # of connection points: 2
#     Edge 72, Type (0, 0), BuildingBlock: AJUNOK_clean_linker_0, # of connection points: 2
#     Edge 73, Type (0, 0), BuildingBlock: AJUNOK_clean_linker_0, # of connection points: 2
#     Edge 74, Type (0, 0), BuildingBlock: AJUNOK_clean_linker_0, # of connection points: 2
#     Edge 75, Type (0, 0), BuildingBlock: AJUNOK_clean_linker_0, # of connection points: 2
#     Edge 76, Type (0, 0), BuildingBlock: AJUNOK_clean_linker_0, # of connection points: 2
#     Edge 77, Type (0, 0), BuildingBlock: AJUNOK_clean_linker_0, # of connection points: 2
#     Edge 78, Type (0, 0), BuildingBlock: AJUNOK_clean_linker_0, # of connection points: 2
#     Edge 79, Type (0, 0), BuildingBlock: AJUNOK_clean_linker_0, # of connection points: 2
#     Edge 80, Type (0, 0), BuildingBlock: AJUNOK_clean_linker_0, # of connection points: 2
#     Edge 81, Type (0, 0), BuildingBlock: AJUNOK_clean_linker_0, # of connection points: 2
#     Edge 82, Type (0, 0), BuildingBlock: AJUNOK_clean_linker_0, # of connection points: 2
#     Edge 83, Type (0, 0), BuildingBlock: AJUNOK_clean_linker_0, # of connection points: 2
#     Edge 84, Type (0, 0), BuildingBlock: AJUNOK_clean_linker_0, # of connection points: 2
#     Edge 85, Type (0, 0), BuildingBlock: AJUNOK_clean_linker_0, # of connection points: 2
#     Edge 86, Type (0, 0), BuildingBlock: AJUNOK_clean_linker_0, # of connection points: 2
#     Edge 87, Type (0, 0), BuildingBlock: AJUNOK_clean_linker_0, # of connection points: 2
#     Edge 88, Type (0, 0), BuildingBlock: AJUNOK_clean_linker_0, # of connection points: 2
#     Edge 89, Type (0, 0), BuildingBlock: AJUNOK_clean_linker_0, # of connection points: 2
#     Edge 90, Type (0, 0), BuildingBlock: AJUNOK_clean_linker_0, # of connection points: 2
#     Edge 91, Type (0, 0), BuildingBlock: AJUNOK_clean_linker_0, # of connection points: 2
#     Edge 92, Type (0, 0), BuildingBlock: AJUNOK_clean_linker_0, # of connection points: 2
#     Edge 93, Type (0, 0), BuildingBlock: AJUNOK_clean_linker_0, # of connection points: 2
#     Edge 94, Type (0, 0), BuildingBlock: AJUNOK_clean_linker_0, # of connection points: 2
#     Edge 95, Type (0, 0), BuildingBlock: AJUNOK_clean_linker_0, # of connection points: 2
#     Edge 96, Type (0, 0), BuildingBlock: AJUNOK_clean_linker_0, # of connection points: 2
#     Edge 97, Type (0, 0), BuildingBlock: AJUNOK_clean_linker_0, # of connection points: 2
#     Edge 98, Type (0, 0), BuildingBlock: AJUNOK_clean_linker_0, # of connection points: 2
#     Edge 99, Type (0, 0), BuildingBlock: AJUNOK_clean_linker_0, # of connection points: 2
#     Edge 100, Type (0, 0), BuildingBlock: AJUNOK_clean_linker_0, # of connection points: 2
#     Edge 101, Type (0, 0), BuildingBlock: AJUNOK_clean_linker_0, # of connection points: 2
#     Edge 102, Type (0, 0), BuildingBlock: AJUNOK_clean_linker_0, # of connection points: 2
#     Edge 103, Type (0, 0), BuildingBlock: AJUNOK_clean_linker_0, # of connection points: 2
#     Edge 104, Type (0, 0), BuildingBlock: AJUNOK_clean_linker_0, # of connection points: 2
#     Edge 105, Type (0, 0), BuildingBlock: AJUNOK_clean_linker_0, # of connection points: 2
#     Edge 106, Type (0, 0), BuildingBlock: AJUNOK_clean_linker_0, # of connection points: 2
#     Edge 107, Type (0, 0), BuildingBlock: AJUNOK_clean_linker_0, # of connection points: 2
# Relax obj value: 0.074
# Max RMSD: 0.099
# Mean RMSD: 0.099
data_MOF--net-ato--node1-GALJAG_clean_sbu_0--edge1-AJUNOK_clean_linker_0
_symmetry_space_group_name_H-M    P1
_symmetry_Int_Tables_number       1
_symmetry_cell_setting            triclinic
loop_
_symmetry_equiv_pos_as_xyz
'x, y, z'
_cell_length_a     79.631749
_cell_length_b     79.621094
_cell_length_c     15.832004
_cell_angle_alpha  90.023705
_cell_angle_beta   89.968824
_cell_angle_gamma 120.01021
loop_
_atom_site_label
_atom_site_type_symbol
_atom_site_fract_x
_atom_site_fract_y
_atom_site_fract_z
_atom_type_partial_charge
In0 In 0.25784 0.05983 0.25373 0.0
O1 O 0.2613 0.04323 0.36366 0.0
O2 O 0.23375 0.04076 0.34642 0.0
C3 C 0.29561 0.0809 0.20897 0.0
C4 C 0.24283 0.03117 0.13824 0.0
C5 C 0.24992 0.08909 0.26678 0.0
O6 O 0.2903 0.07604 0.28461 0.0
O7 O 0.28188 0.07532 0.15684 0.0
O8 O 0.24464 0.07764 0.20457 0.0
O9 O 0.25872 0.0854 0.32367 0.0
C10 C 0.24383 0.03536 0.38705 0.0
O11 O 0.2351 0.04135 0.15409 0.0
O12 O 0.25811 0.03586 0.17911 0.0
In13 In 0.94743 0.20103 0.24428 0.0
O14 O 0.9652 0.22166 0.35076 0.0
O15 O 0.96815 0.19694 0.33059 0.0
C16 C 0.92571 0.21778 0.21394 0.0
C17 C 0.97385 0.21401 0.11858 0.0
C18 C 0.9183 0.16381 0.26066 0.0
O19 O 0.93223 0.21759 0.28649 0.0
O20 O 0.92997 0.20932 0.15761 0.0
O21 O 0.92819 0.17025 0.19399 0.0
O22 O 0.92349 0.17603 0.31982 0.0
C23 C 0.97362 0.21242 0.37147 0.0
O24 O 0.96575 0.19665 0.14399 0.0
O25 O 0.96838 0.22442 0.15587 0.0
In26 In 0.80725 0.74889 0.24485 0.0
O27 O 0.8117 0.7715 0.14426 0.0
O28 O 0.78359 0.74702 0.15999 0.0
C29 C 0.84447 0.75682 0.25726 0.0
C30 C 0.79636 0.76368 0.3742 0.0
C31 C 0.7904 0.71049 0.21219 0.0
O32 O 0.83796 0.76111 0.19318 0.0
O33 O 0.83231 0.74901 0.31624 0.0
O34 O 0.79134 0.71707 0.28577 0.0
O35 O 0.79811 0.7233 0.15569 0.0
C36 C 0.79415 0.76267 0.12133 0.0
O37 O 0.78681 0.74613 0.35216 0.0
O38 O 0.81192 0.77356 0.33372 0.0
In39 In 0.06246 0.2592 0.74419 0.0
O40 O 0.04447 0.23677 0.84571 0.0
O41 O 0.0396 0.26033 0.82454 0.0
C42 C 0.09158 0.25111 0.72973 0.0
C43 C 0.03745 0.24473 0.61261 0.0
C44 C 0.08406 0.29728 0.78312 0.0
O45 O 0.08019 0.24583 0.7921 0.0
O46 O 0.08796 0.26007 0.67341 0.0
O47 O 0.0785 0.29135 0.70872 0.0
O48 O 0.07883 0.28397 0.83734 0.0
C49 C 0.03496 0.24502 0.86526 0.0
O50 O 0.04535 0.26224 0.63524 0.0
O51 O 0.04292 0.23476 0.65368 0.0
In52 In 0.75006 0.80676 0.74558 0.0
O53 O 0.747 0.7864 0.63741 0.0
O54 O 0.77459 0.81128 0.6563 0.0
C55 C 0.71177 0.79025 0.78059 0.0
C56 C 0.76383 0.79338 0.86795 0.0
C57 C 0.75836 0.8441 0.73329 0.0
O58 O 0.71807 0.79103 0.70655 0.0
O59 O 0.7248 0.79795 0.8362 0.0
O60 O 0.76256 0.8375 0.79734 0.0
O61 O 0.75045 0.83196 0.67432 0.0
C62 C 0.76457 0.79582 0.61536 0.0
O63 O 0.77266 0.81098 0.84574 0.0
O64 O 0.74819 0.7829 0.82908 0.0
In65 In 0.20089 0.94529 0.75425 0.0
O66 O 0.21857 0.96017 0.63524 0.0
O67 O 0.19829 0.96814 0.67754 0.0
C68 C 0.21863 0.92443 0.78324 0.0
C69 C 0.2116 0.96914 0.88987 0.0
C70 C 0.16416 0.91607 0.73059 0.0
O71 O 0.22689 0.94048 0.74481 0.0
O72 O 0.20144 0.91881 0.8059 0.0
O73 O 0.16986 0.92568 0.79838 0.0
O74 O 0.17693 0.92163 0.67337 0.0
C75 C 0.21136 0.97099 0.62521 0.0
O76 O 0.1956 0.96336 0.85297 0.0
O77 O 0.22164 0.96242 0.85985 0.0
In78 In 0.75008 0.94616 0.7431 0.0
O79 O 0.77335 0.96501 0.84034 0.0
O80 O 0.74883 0.96859 0.82584 0.0
C81 C 0.7586 0.91725 0.7319 0.0
C82 C 0.76311 0.9712 0.61115 0.0
C83 C 0.71183 0.92436 0.77927 0.0
O84 O 0.76233 0.92783 0.79642 0.0
O85 O 0.7511 0.92166 0.67189 0.0
O86 O 0.71812 0.92922 0.70482 0.0
O87 O 0.72487 0.93037 0.8351 0.0
C88 C 0.76474 0.974 0.86268 0.0
O89 O 0.74571 0.9626 0.63555 0.0
O90 O 0.77382 0.96634 0.65042 0.0
In91 In 0.06198 0.80569 0.74579 0.0
O92 O 0.04324 0.78427 0.64291 0.0
O93 O 0.04224 0.81024 0.65531 0.0
C94 C 0.08319 0.78856 0.78038 0.0
C95 C 0.03555 0.79479 0.87072 0.0
C96 C 0.09161 0.84257 0.72769 0.0
O97 O 0.07761 0.78935 0.70654 0.0
O98 O 0.07811 0.79645 0.83615 0.0
O99 O 0.08146 0.83655 0.79386 0.0
O100 O 0.08648 0.83009 0.66968 0.0
C101 C 0.03578 0.79415 0.61831 0.0
O102 O 0.04464 0.812 0.84358 0.0
O103 O 0.04013 0.7834 0.83588 0.0
In104 In 0.2009 0.25738 0.75459 0.0
O105 O 0.21765 0.26141 0.63192 0.0
O106 O 0.199 0.23266 0.67363 0.0
C107 C 0.21942 0.2953 0.79905 0.0
C108 C 0.21206 0.24172 0.87819 0.0
C109 C 0.1641 0.2502 0.73369 0.0
O110 O 0.22459 0.28901 0.73691 0.0
O111 O 0.20483 0.2825 0.83834 0.0
O112 O 0.16958 0.24469 0.79725 0.0
O113 O 0.17715 0.259 0.67883 0.0
C114 C 0.21143 0.24359 0.62028 0.0
O115 O 0.19479 0.23377 0.85229 0.0
O116 O 0.22341 0.25762 0.84297 0.0
In117 In 0.947 0.74921 0.24455 0.0
O118 O 0.96538 0.77305 0.14916 0.0
O119 O 0.96964 0.74884 0.15933 0.0
C120 C 0.91754 0.75687 0.25765 0.0
C121 C 0.97196 0.76286 0.37673 0.0
C122 C 0.92585 0.71124 0.20271 0.0
O123 O 0.9287 0.76175 0.19459 0.0
O124 O 0.92159 0.74856 0.3155 0.0
O125 O 0.93093 0.71684 0.2779 0.0
O126 O 0.9313 0.72479 0.14967 0.0
C127 C 0.97461 0.76488 0.12436 0.0
O128 O 0.96429 0.74556 0.35128 0.0
O129 O 0.96624 0.77295 0.33833 0.0
In130 In 0.25757 0.19924 0.25306 0.0
O131 O 0.26081 0.22277 0.34481 0.0
O132 O 0.23524 0.19537 0.3543 0.0
C133 C 0.296 0.21613 0.22208 0.0
C134 C 0.24198 0.20996 0.12786 0.0
C135 C 0.24975 0.16208 0.26615 0.0
O136 O 0.2893 0.21529 0.29537 0.0
O137 O 0.28329 0.20822 0.16531 0.0
O138 O 0.24529 0.16846 0.20219 0.0
O139 O 0.2577 0.17434 0.32469 0.0
C140 C 0.24454 0.2127 0.37969 0.0
O141 O 0.25924 0.22015 0.1526 0.0
O142 O 0.23248 0.19382 0.16493 0.0
In143 In 0.80838 0.06138 0.24216 0.0
O144 O 0.81288 0.04243 0.14545 0.0
O145 O 0.78578 0.04151 0.14862 0.0
C146 C 0.84562 0.09041 0.25988 0.0
C147 C 0.79521 0.0349 0.36872 0.0
C148 C 0.79207 0.08349 0.21187 0.0
O149 O 0.83924 0.08072 0.19269 0.0
O150 O 0.83337 0.08498 0.31897 0.0
O151 O 0.79262 0.07731 0.28473 0.0
O152 O 0.79995 0.07869 0.15491 0.0
C153 C 0.79598 0.03528 0.11532 0.0
O154 O 0.78651 0.04361 0.34451 0.0
O155 O 0.81114 0.04023 0.33182 0.0
In156 In 0.92371 0.39285 0.57243 0.0
O157 O 0.89797 0.36709 0.50843 0.0
O158 O 0.92208 0.38596 0.43257 0.0
C159 C 0.91662 0.42274 0.5875 0.0
C160 C 0.91144 0.36604 0.69768 0.0
C161 C 0.96255 0.4096 0.54872 0.0
O162 O 0.91355 0.41315 0.52022 0.0
O163 O 0.92283 0.41696 0.64747 0.0
O164 O 0.95025 0.39509 0.50773 0.0
O165 O 0.95533 0.41535 0.60496 0.0
C166 C 0.90585 0.37059 0.43652 0.0
O167 O 0.92773 0.3726 0.66227 0.0
O168 O 0.90174 0.37363 0.67235 0.0
In169 In 0.61277 0.53361 0.58533 0.0
O170 O 0.6302 0.52875 0.48229 0.0
O171 O 0.63569 0.55737 0.50489 0.0
C172 C 0.58341 0.49675 0.6068 0.0
C173 C 0.63835 0.54445 0.7146 0.0
C174 C 0.59154 0.55026 0.54296 0.0
O175 O 0.59399 0.5022 0.5417 0.0
O176 O 0.58804 0.50978 0.66196 0.0
O177 O 0.59741 0.55063 0.6175 0.0
O178 O 0.59619 0.5413 0.49083 0.0
C179 C 0.63992 0.54653 0.4631 0.0
O180 O 0.62987 0.55368 0.69464 0.0
O181 O 0.6332 0.52925 0.67202 0.0
In182 In 0.47442 0.08287 0.57819 0.0
O183 O 0.4534 0.07942 0.68434 0.0
O184 O 0.47845 0.10701 0.66858 0.0
C185 C 0.45776 0.04489 0.53701 0.0
C186 C 0.46272 0.0981 0.45538 0.0
C187 C 0.51148 0.0907 0.59628 0.0
O188 O 0.45796 0.05056 0.61181 0.0
O189 O 0.46613 0.05839 0.48388 0.0
O190 O 0.50561 0.09566 0.53218 0.0
O191 O 0.49873 0.08217 0.65249 0.0
C192 C 0.46274 0.0969 0.7077 0.0
O193 O 0.48013 0.10625 0.48001 0.0
O194 O 0.45153 0.08229 0.4918 0.0
In195 In 0.7277 0.59033 0.08553 0.0
O196 O 0.70927 0.56749 0.18499 0.0
O197 O 0.70582 0.59211 0.16996 0.0
C198 C 0.75688 0.58236 0.07052 0.0
C199 C 0.70231 0.5761 0.95521 0.0
C200 C 0.74923 0.62833 0.12567 0.0
O201 O 0.74577 0.57737 0.13377 0.0
O202 O 0.75289 0.59088 0.01348 0.0
O203 O 0.74366 0.62262 0.05099 0.0
O204 O 0.74419 0.61487 0.1789 0.0
C205 C 0.70066 0.57641 0.2083 0.0
O206 O 0.71051 0.59365 0.97754 0.0
O207 O 0.70766 0.56598 0.99585 0.0
In208 In 0.41571 0.13909 0.08007 0.0
O209 O 0.41289 0.11774 0.97661 0.0
O210 O 0.43945 0.14426 0.98479 0.0
C211 C 0.3774 0.12178 0.11557 0.0
C212 C 0.43163 0.12786 0.20181 0.0
C213 C 0.42311 0.17614 0.07034 0.0
O214 O 0.38373 0.12326 0.04111 0.0
O215 O 0.39041 0.1291 0.17142 0.0
O216 O 0.42755 0.16952 0.13353 0.0
O217 O 0.4153 0.16414 0.01077 0.0
C218 C 0.42993 0.12799 0.9491 0.0
O219 O 0.43983 0.14506 0.17453 0.0
O220 O 0.41541 0.11663 0.16859 0.0
In221 In 0.86743 0.27935 0.07905 0.0
O222 O 0.86088 0.2963 0.17806 0.0
O223 O 0.89032 0.30612 0.14651 0.0
C224 C 0.83008 0.25025 0.0677 0.0
C225 C 0.8792 0.30282 0.94209 0.0
C226 C 0.88489 0.25901 0.12593 0.0
O227 O 0.83685 0.26096 0.13185 0.0
O228 O 0.84206 0.25455 0.00797 0.0
O229 O 0.88201 0.26149 0.04976 0.0
O230 O 0.87891 0.26675 0.17836 0.0
C231 C 0.87851 0.30889 0.18882 0.0
O232 O 0.88817 0.29465 0.96975 0.0
O233 O 0.86359 0.29821 0.98058 0.0
In234 In 0.4161 0.27893 0.09363 0.0
O235 O 0.41287 0.29679 0.98823 0.0
O236 O 0.44007 0.2983 0.00114 0.0
C237 C 0.37815 0.25797 0.1355 0.0
C238 C 0.4319 0.30607 0.21542 0.0
C239 C 0.42338 0.24931 0.07721 0.0
O240 O 0.38377 0.26299 0.06029 0.0
O241 O 0.39166 0.26339 0.18866 0.0
O242 O 0.42844 0.26027 0.14096 0.0
O243 O 0.41505 0.25361 0.02043 0.0
C244 C 0.4302 0.30434 0.96321 0.0
O245 O 0.43978 0.29655 0.19078 0.0
O246 O 0.41609 0.30162 0.17945 0.0
In247 In 0.72826 0.13998 0.09079 0.0
O248 O 0.71067 0.11808 0.98796 0.0
O249 O 0.70745 0.14282 -0.00041 0.0
C250 C 0.7505 0.12423 0.12927 0.0
C251 C 0.70198 0.12748 0.21671 0.0
C252 C 0.75699 0.17732 0.07315 0.0
O253 O 0.7448 0.12434 0.05481 0.0
O254 O 0.74524 0.13235 0.18314 0.0
O255 O 0.74617 0.17121 0.13729 0.0
O256 O 0.75289 0.1647 0.01644 0.0
C257 C 0.70204 0.12682 0.96317 0.0
O258 O 0.70952 0.14456 0.18816 0.0
O259 O 0.70781 0.11709 0.18194 0.0
In260 In 0.86737 0.59085 0.07864 0.0
O261 O 0.86152 0.5665 0.17179 0.0
O262 O 0.88976 0.59124 0.16771 0.0
C263 C 0.83008 0.58274 0.06756 0.0
C264 C 0.88001 0.57812 0.94761 0.0
C265 C 0.88436 0.62918 0.11384 0.0
O266 O 0.83695 0.57918 0.13238 0.0
O267 O 0.84192 0.58998 0.00712 0.0
O268 O 0.88248 0.62275 0.03943 0.0
O269 O 0.87749 0.61624 0.17014 0.0
C270 C 0.87866 0.57486 0.19989 0.0
O271 O 0.88914 0.59525 0.97515 0.0
O272 O 0.86392 0.56758 0.98342 0.0
In273 In 0.6132 0.08202 0.59001 0.0
O274 O 0.62903 0.0773 0.6994 0.0
O275 O 0.63345 0.10563 0.68268 0.0
C276 C 0.59148 0.04432 0.54479 0.0
C277 C 0.64124 0.09669 0.47149 0.0
C278 C 0.58444 0.09066 0.60367 0.0
O279 O 0.59637 0.04954 0.62047 0.0
O280 O 0.59735 0.05813 0.49285 0.0
O281 O 0.59592 0.09583 0.54168 0.0
O282 O 0.5879 0.08167 0.66041 0.0
C283 C 0.63793 0.09477 0.72302 0.0
O284 O 0.63188 0.10505 0.49178 0.0
O285 O 0.63618 0.08105 0.51019 0.0
In286 In 0.92453 0.53298 0.57633 0.0
O287 O 0.89993 0.52723 0.48469 0.0
O288 O 0.92566 0.55474 0.48163 0.0
C289 C 0.91671 0.49583 0.59076 0.0
C290 C 0.91173 0.54627 0.70445 0.0
C291 C 0.96294 0.54976 0.54437 0.0
O292 O 0.91377 0.50254 0.52378 0.0
O293 O 0.92303 0.50771 0.65134 0.0
O294 O 0.95628 0.54838 0.6181 0.0
O295 O 0.9502 0.54254 0.48739 0.0
C296 C 0.90889 0.54396 0.45237 0.0
O297 O 0.92879 0.55544 0.67607 0.0
O298 O 0.90131 0.52985 0.671 0.0
In299 In 0.47377 0.3938 0.59224 0.0
O300 O 0.45275 0.3761 0.69812 0.0
O301 O 0.47811 0.37405 0.68331 0.0
C302 C 0.45672 0.41467 0.5499 0.0
C303 C 0.46242 0.36679 0.46984 0.0
C304 C 0.51055 0.42356 0.61074 0.0
O305 O 0.45656 0.40902 0.62469 0.0
O306 O 0.46561 0.40995 0.49775 0.0
O307 O 0.50486 0.4129 0.54596 0.0
O308 O 0.49779 0.41883 0.66732 0.0
C309 C 0.46232 0.36825 0.72206 0.0
O310 O 0.47974 0.37598 0.4957 0.0
O311 O 0.45117 0.3715 0.50489 0.0
In312 In 0.59224 0.72831 0.91921 0.0
O313 O 0.56931 0.71002 0.81971 0.0
O314 O 0.59304 0.70533 0.83908 0.0
C315 C 0.58412 0.75736 0.93822 0.0
C316 C 0.57916 0.7032 0.0508 0.0
C317 C 0.63001 0.74968 0.87422 0.0
O318 O 0.57934 0.74671 0.87341 0.0
O319 O 0.59243 0.75292 0.99448 0.0
O320 O 0.62473 0.74441 0.94952 0.0
O321 O 0.61624 0.74441 0.8225 0.0
C322 C 0.57754 0.70051 0.79965 0.0
O323 O 0.59676 0.71247 0.0291 0.0
O324 O 0.56828 0.70742 0.00903 0.0
In325 In 0.2797 0.86629 0.92111 0.0
O326 O 0.29141 0.88198 0.04698 0.0
O327 O 0.30307 0.86503 9e-05 0.0
C328 C 0.25897 0.88368 0.88167 0.0
C329 C 0.30605 0.87919 0.79468 0.0
C330 C 0.25102 0.82901 0.93858 0.0
O331 O 0.27322 0.89115 0.93167 0.0
O332 O 0.25502 0.86738 0.85237 0.0
O333 O 0.262 0.83516 0.87488 0.0
O334 O 0.25488 0.84163 0.99527 0.0
C335 C 0.30376 0.87661 0.05609 0.0
O336 O 0.29825 0.86198 0.82145 0.0
O337 O 0.30008 0.88937 0.82992 0.0
In338 In 0.14233 0.41639 0.92915 0.0
O339 O 0.12163 0.41238 0.03743 0.0
O340 O 0.14725 0.4397 0.02623 0.0
C341 C 0.12549 0.37869 0.88262 0.0
C342 C 0.12999 0.43246 0.81319 0.0
C343 C 0.17953 0.4243 0.93733 0.0
O344 O 0.12644 0.3838 0.95891 0.0
O345 O 0.1332 0.39257 0.83097 0.0
O346 O 0.17296 0.42946 0.87638 0.0
O347 O 0.16742 0.41556 0.99567 0.0
C348 C 0.13143 0.42953 0.06451 0.0
O349 O 0.14757 0.44034 0.83514 0.0
O350 O 0.11894 0.41654 0.8491 0.0
In351 In 0.39458 0.92427 0.42061 0.0
O352 O 0.37557 0.90072 0.51669 0.0
O353 O 0.37432 0.92672 0.51268 0.0
C354 C 0.42347 0.91581 0.40695 0.0
C355 C 0.36808 0.91046 0.29436 0.0
C356 C 0.41676 0.96267 0.45144 0.0
O357 O 0.41294 0.91187 0.47184 0.0
O358 O 0.41903 0.92351 0.34784 0.0
O359 O 0.41099 0.956 0.37806 0.0
O360 O 0.41154 0.94995 0.5084 0.0
C361 C 0.36807 0.91027 0.54567 0.0
O362 O 0.37543 0.92751 0.3225 0.0
O363 O 0.37499 0.90069 0.32614 0.0
In364 In 0.08326 0.47192 0.43117 0.0
O365 O 0.10719 0.47865 0.52798 0.0
O366 O 0.08237 0.45051 0.52762 0.0
C367 C 0.08925 0.50827 0.40789 0.0
C368 C 0.09879 0.46081 0.30554 0.0
C369 C 0.0448 0.45271 0.46428 0.0
O370 O 0.09364 0.50287 0.47507 0.0
O371 O 0.08212 0.49539 0.35133 0.0
O372 O 0.05176 0.45112 0.39499 0.0
O373 O 0.05722 0.46439 0.51598 0.0
C374 C 0.09866 0.46186 0.55966 0.0
O375 O 0.08105 0.45148 0.32477 0.0
O376 O 0.10851 0.47627 0.34691 0.0
In377 In 0.53414 0.61311 0.42017 0.0
O378 O 0.52974 0.63238 0.51541 0.0
O379 O 0.55678 0.63318 0.51306 0.0
C380 C 0.49677 0.58409 0.40691 0.0
C381 C 0.54721 0.63925 0.2921 0.0
C382 C 0.55042 0.59108 0.45328 0.0
O383 O 0.50337 0.59472 0.47143 0.0
O384 O 0.50889 0.58854 0.34769 0.0
O385 O 0.54953 0.59665 0.37948 0.0
O386 O 0.54287 0.59642 0.50956 0.0
C387 C 0.54663 0.63953 0.5457 0.0
O388 O 0.55618 0.63099 0.31837 0.0
O389 O 0.53102 0.63354 0.32732 0.0
In390 In 0.08307 0.61156 0.41665 0.0
O391 O 0.07859 0.62874 0.31256 0.0
O392 O 0.10648 0.63174 0.32297 0.0
C393 C 0.04512 0.59063 0.45859 0.0
C394 C 0.09918 0.63872 0.53849 0.0
C395 C 0.09009 0.58175 0.39901 0.0
O396 O 0.05076 0.5957 0.38348 0.0
O397 O 0.05863 0.59597 0.51179 0.0
O398 O 0.0948 0.59233 0.46398 0.0
O399 O 0.08245 0.58667 0.3415 0.0
C400 C 0.09585 0.63707 0.28635 0.0
O401 O 0.1074 0.62977 0.5107 0.0
O402 O 0.08293 0.63369 0.50562 0.0
In403 In 0.39523 0.47309 0.41631 0.0
O404 O 0.37997 0.45248 0.30675 0.0
O405 O 0.37565 0.47654 0.32042 0.0
C406 C 0.41598 0.4557 0.4566 0.0
C407 C 0.36583 0.46127 0.52756 0.0
C408 C 0.42418 0.51057 0.40607 0.0
O409 O 0.41287 0.45867 0.38148 0.0
O410 O 0.4087 0.46163 0.51162 0.0
O411 O 0.41419 0.50333 0.47186 0.0
O412 O 0.41923 0.499 0.34441 0.0
C413 C 0.37132 0.46111 0.28094 0.0
O414 O 0.37757 0.47903 0.51407 0.0
O415 O 0.36945 0.44977 0.4875 0.0
In416 In 0.53397 0.92446 0.41321 0.0
O417 O 0.55489 0.92907 0.30561 0.0
O418 O 0.53079 0.90081 0.32084 0.0
C419 C 0.55022 0.96264 0.44996 0.0
C420 C 0.54735 0.91016 0.5334 0.0
C421 C 0.49645 0.91571 0.40257 0.0
O422 O 0.54902 0.95647 0.37542 0.0
O423 O 0.54301 0.94953 0.50542 0.0
O424 O 0.50335 0.91189 0.46661 0.0
O425 O 0.50834 0.92338 0.34257 0.0
C426 C 0.54631 0.91165 0.28151 0.0
O427 O 0.52984 0.90117 0.5098 0.0
O428 O 0.55767 0.92622 0.49727 0.0
In429 In 0.28146 0.41609 0.91116 0.0
O430 O 0.30124 0.4119 0.00342 0.0
O431 O 0.30036 0.43796 0.01198 0.0
C432 C 0.26254 0.37699 0.89244 0.0
C433 C 0.3036 0.43297 0.7735 0.0
C434 C 0.25248 0.42436 0.92505 0.0
O435 O 0.27922 0.38801 0.86262 0.0
O436 O 0.25574 0.38562 0.93498 0.0
O437 O 0.26205 0.42715 0.85781 0.0
O438 O 0.25784 0.41784 0.98548 0.0
C439 C 0.30779 0.42822 0.03839 0.0
O440 O 0.30633 0.44181 0.84272 0.0
O441 O 0.289 0.41615 0.77256 0.0
In442 In 0.59203 0.86735 0.91205 0.0
O443 O 0.56888 0.86245 0.81316 0.0
O444 O 0.59385 0.89041 0.8238 0.0
C445 C 0.584 0.83031 0.93449 0.0
C446 C 0.57869 0.88011 0.04008 0.0
C447 C 0.62992 0.88338 0.87037 0.0
O448 O 0.57917 0.83586 0.86887 0.0
O449 O 0.5923 0.84331 0.98983 0.0
O450 O 0.62441 0.88399 0.94469 0.0
O451 O 0.61631 0.87443 0.81829 0.0
C452 C 0.57794 0.87978 0.78714 0.0
O453 O 0.5962 0.88873 0.01711 0.0
O454 O 0.56806 0.86444 0.00144 0.0
In455 In 0.14101 0.72665 0.91505 0.0
O456 O 0.11886 0.70909 0.01723 0.0
O457 O 0.14409 0.70664 0.01016 0.0
C458 C 0.12454 0.748 0.87153 0.0
C459 C 0.12987 0.69964 0.79238 0.0
C460 C 0.17808 0.7559 0.93413 0.0
O461 O 0.12465 0.74271 0.9467 0.0
O462 O 0.13298 0.74277 0.81924 0.0
O463 O 0.17234 0.7449 0.87048 0.0
O464 O 0.16521 0.75182 0.98957 0.0
C465 C 0.12787 0.70098 0.0449 0.0
O466 O 0.14693 0.7082 0.82141 0.0
O467 O 0.11881 0.70499 0.82439 0.0
C468 C 0.23743 0.99387 0.52718 0.0
C469 C 0.21894 0.98701 0.56278 0.0
C470 C 0.24556 0.00986 0.47246 0.0
C471 C 0.23542 0.01948 0.45019 0.0
H472 H 0.24585 0.98702 0.54267 0.0
H473 H 0.2598 0.01452 0.44639 0.0
S474 S 0.18638 0.00709 0.52521 0.0
N475 N 0.19068 0.99108 0.57183 0.0
N476 N 0.20581 0.02089 0.46775 0.0
C477 C 0.21686 0.0127 0.48489 0.0
C478 C 0.20866 0.99654 0.54145 0.0
C479 C 0.01329 0.24709 0.52009 0.0
C480 C 0.02172 0.23625 0.54878 0.0
C481 C 0.99755 0.23911 0.46411 0.0
C482 C 0.98967 0.22001 0.43388 0.0
H483 H 0.01872 0.26181 0.5419 0.0
H484 H 0.99163 0.24809 0.4439 0.0
S485 S 0.00658 0.18556 0.48852 0.0
N486 N 0.02104 0.2054 0.54231 0.0
N487 N 0.9916 0.19048 0.43634 0.0
C488 C 0.99803 0.20903 0.4615 0.0
C489 C 0.014 0.21713 0.51907 0.0
C490 C 0.76979 0.76124 0.46685 0.0
C491 C 0.78896 0.77223 0.43719 0.0
C492 C 0.76194 0.76916 0.5228 0.0
C493 C 0.77299 0.78836 0.55205 0.0
H494 H 0.76063 0.7464 0.44608 0.0
H495 H 0.74714 0.76003 0.54401 0.0
S496 S 0.82399 0.82333 0.4938 0.0
N497 N 0.81883 0.80341 0.44108 0.0
N498 N 0.80416 0.81823 0.54699 0.0
C499 C 0.79221 0.79953 0.5231 0.0
C500 C 0.80017 0.79149 0.46556 0.0
C501 C 0.79002 0.99521 0.51862 0.0
C502 C 0.77072 0.9869 0.54697 0.0
C503 C 0.79786 0.01079 0.46149 0.0
C504 C 0.78679 0.01883 0.43117 0.0
H505 H 0.79919 0.98969 0.54089 0.0
H506 H 0.81275 0.01662 0.44123 0.0
S507 S 0.73548 1.00237 0.48559 0.0
N508 N 0.74068 0.98785 0.53975 0.0
N509 N 0.75544 0.01716 0.43339 0.0
C510 C 0.76747 0.01066 0.459 0.0
C511 C 0.75944 0.99469 0.51651 0.0
C512 C 0.01141 0.76757 0.52617 0.0
C513 C 0.01974 0.78676 0.55581 0.0
C514 C 0.99569 0.75986 0.46999 0.0
C515 C 0.98769 0.77105 0.44075 0.0
H516 H 0.01699 0.75833 0.54685 0.0
H517 H 0.98993 0.74506 0.44859 0.0
S518 S 1.00405 0.8221 0.49956 0.0
N519 N 0.01867 0.81676 0.55216 0.0
N520 N 0.98923 0.80233 0.44625 0.0
C521 C 0.99583 0.79025 0.47004 0.0
C522 C 0.01182 0.79809 0.52755 0.0
C523 C 0.21983 0.20854 0.48827 0.0
C524 C 0.23641 0.22091 0.44066 0.0
C525 C 0.21161 0.21601 0.54479 0.0
C526 C 0.21948 0.23614 0.55513 0.0
H527 H 0.21324 0.19295 0.48245 0.0
H528 H 0.19906 0.20588 0.58115 0.0
S529 S 0.26229 0.27477 0.44216 0.0
N530 N 0.26008 0.25433 0.40577 0.0
N531 N 0.24453 0.26832 0.51101 0.0
C532 C 0.23583 0.24867 0.50665 0.0
C533 C 0.24433 0.24107 0.4498 0.0
C534 C 0.88528 0.34332 0.79596 0.0
C535 C 0.90369 0.34992 0.75978 0.0
C536 C 0.87728 0.32777 0.85305 0.0
C537 C 0.88734 0.31813 0.87619 0.0
H538 H 0.87693 0.35024 0.78029 0.0
H539 H 0.86319 0.32345 0.87999 0.0
S540 S 0.93587 0.32941 0.79798 0.0
N541 N 0.93163 0.34535 0.75021 0.0
N542 N 0.91663 0.31614 0.85727 0.0
C543 C 0.90568 0.32442 0.83976 0.0
C544 C 0.91385 0.34031 0.78175 0.0
C545 C 0.66232 0.57092 0.80817 0.0
C546 C 0.65428 0.55183 0.77755 0.0
C547 C 0.67811 0.57874 0.86392 0.0
C548 C 0.68643 0.56776 0.89199 0.0
H549 H 0.65652 0.58002 0.78824 0.0
H550 H 0.68369 0.59348 0.88593 0.0
S551 S 0.67076 0.51698 0.83106 0.0
N552 N 0.65588 0.52211 0.77939 0.0
N553 N 0.68541 0.53674 0.88489 0.0
C554 C 0.67851 0.54862 0.86212 0.0
C555 C 0.66249 0.54069 0.80479 0.0
C556 C 0.43614 0.09367 0.8026 0.0
C557 C 0.45505 0.10516 0.77071 0.0
C558 C 0.42803 0.10131 0.8587 0.0
C559 C 0.43852 0.12075 0.88558 0.0
H560 H 0.42741 0.07864 0.78363 0.0
H561 H 0.41347 0.0918 0.88175 0.0
S562 S 0.48863 0.15704 0.82074 0.0
N563 N 0.48405 0.13708 0.77002 0.0
N564 N 0.46888 0.15138 0.87577 0.0
C565 C 0.45746 0.13243 0.85424 0.0
C566 C 0.4657 0.12466 0.79683 0.0
C567 C 0.43563 0.34428 0.81495 0.0
C568 C 0.45479 0.35234 0.7852 0.0
C569 C 0.42771 0.32852 0.87095 0.0
C570 C 0.43864 0.32022 0.8999 0.0
H571 H 0.42656 0.35006 0.79428 0.0
H572 H 0.41292 0.32294 0.89229 0.0
S573 S 0.48956 0.33593 0.84137 0.0
N574 N 0.48452 0.35078 0.78891 0.0
N575 N 0.46969 0.32128 0.8945 0.0
C576 C 0.45783 0.32814 0.87079 0.0
C577 C 0.46589 0.34416 0.81345 0.0
C578 C 0.6782 0.12964 0.86951 0.0
C579 C 0.68589 0.11838 0.90118 0.0
C580 C 0.66248 0.1218 0.81318 0.0
C581 C 0.65367 0.10231 0.787 0.0
H582 H 0.68441 0.14469 0.88807 0.0
H583 H 0.65726 0.13114 0.78972 0.0
S584 S 0.668 0.06648 0.85307 0.0
N585 N 0.68331 0.08661 0.90293 0.0
N586 N 0.65373 0.07186 0.798 0.0
C587 C 0.66109 0.09082 0.81894 0.0
C588 C 0.67721 0.09886 0.87565 0.0
C589 C 0.8852 0.54336 0.79945 0.0
C590 C 0.90413 0.55463 0.76743 0.0
C591 C 0.87741 0.55115 0.85656 0.0
C592 C 0.88819 0.57057 0.88353 0.0
H593 H 0.87628 0.52836 0.78034 0.0
H594 H 0.86284 0.54181 0.88003 0.0
S595 S 0.93837 0.60638 0.81738 0.0
N596 N 0.93342 0.58633 0.76644 0.0
N597 N 0.91878 0.60096 0.87306 0.0
C598 C 0.9071 0.58205 0.85152 0.0
C599 C 0.91507 0.57408 0.79379 0.0
C600 C 0.54417 0.66266 0.19617 0.0
C601 C 0.5556 0.65534 0.22974 0.0
C602 C 0.55197 0.67832 0.13944 0.0
C603 C 0.57158 0.68743 0.11475 0.0
H604 H 0.52903 0.65621 0.21358 0.0
H605 H 0.54252 0.68326 0.11457 0.0
S606 S 0.60784 0.67412 0.18588 0.0
N607 N 0.58764 0.6586 0.23473 0.0
N608 N 0.6023 0.68805 0.1291 0.0
C609 C 0.58322 0.68038 0.14852 0.0
C610 C 0.57523 0.66433 0.20562 0.0
C611 C 0.3468 0.88489 0.19037 0.0
C612 C 0.35163 0.90211 0.23402 0.0
C613 C 0.33103 0.8765 0.13438 0.0
C614 C 0.31926 0.88482 0.12106 0.0
H615 H 0.3554 0.87792 0.19875 0.0
H616 H 0.32813 0.86345 0.10088 0.0
S617 S 0.32521 0.92947 0.22306 0.0
N618 N 0.34306 0.92694 0.26183 0.0
N619 N 0.3133 0.91105 0.15787 0.0
C620 C 0.32368 0.90182 0.16574 0.0
C621 C 0.33991 0.91052 0.22175 0.0
C622 C 0.09631 0.4347 0.20958 0.0
C623 C 0.1076 0.4534 0.24395 0.0
C624 C 0.10431 0.42693 0.1537 0.0
C625 C 0.12391 0.43757 0.12933 0.0
H626 H 0.08113 0.42591 0.22615 0.0
H627 H 0.09492 0.41256 0.12833 0.0
S628 S 0.15989 0.48705 0.20253 0.0
N629 N 0.13958 0.48224 0.25075 0.0
N630 N 0.15456 0.4677 0.14507 0.0
C631 C 0.13544 0.45624 0.16361 0.0
C632 C 0.1273 0.46413 0.221 0.0
C633 C 0.12288 0.66161 0.19608 0.0
C634 C 0.10345 0.65294 0.2229 0.0
C635 C 0.13072 0.67729 0.13949 0.0
C636 C 0.11949 0.68503 0.10791 0.0
H637 H 0.13218 0.65631 0.21915 0.0
H638 H 0.14571 0.68336 0.12035 0.0
S639 S 0.06776 0.66755 0.15794 0.0
N640 N 0.07311 0.65324 0.21296 0.0
N641 N 0.08784 0.6827 0.10732 0.0
C642 C 0.10004 0.67651 0.13426 0.0
C643 C 0.09202 0.66047 0.19142 0.0
C644 C 0.34575 0.46248 0.19437 0.0
C645 C 0.35584 0.45278 0.2159 0.0
C646 C 0.33012 0.45431 0.13778 0.0
C647 C 0.32387 0.43606 0.10063 0.0
H648 H 0.34982 0.47645 0.22204 0.0
H649 H 0.32287 0.4624 0.12318 0.0
S650 S 0.34556 0.40477 0.13473 0.0
N651 N 0.35859 0.42397 0.19457 0.0
N652 N 0.32921 0.40862 0.08854 0.0
C653 C 0.33388 0.42622 0.12119 0.0
C654 C 0.34987 0.43459 0.1786 0.0
C655 C 0.5439 0.88481 0.19002 0.0
C656 C 0.55462 0.90418 0.21768 0.0
C657 C 0.55184 0.8771 0.13323 0.0
C658 C 0.57091 0.88838 0.10263 0.0
H659 H 0.52925 0.87547 0.21253 0.0
H660 H 0.54296 0.86215 0.11343 0.0
S661 S 0.60509 0.93999 0.15494 0.0
N662 N 0.58531 0.93454 0.20932 0.0
N663 N 0.60025 0.92002 0.10362 0.0
C664 C 0.5818 0.90777 0.12978 0.0
C665 C 0.57365 0.91568 0.1869 0.0
C666 C 0.20961 0.99458 0.97513 0.0
C667 C 0.21888 0.98386 0.95781 0.0
C668 C 0.21737 0.00983 0.03386 0.0
C669 C 0.23464 0.01484 0.07751 0.0
H670 H 0.1965 0.99149 0.94169 0.0
H671 H 0.20988 0.01786 0.04443 0.0
S672 S 0.26387 0.99042 0.05859 0.0
N673 N 0.24578 0.97873 0.99174 0.0
N674 N 0.26033 0.00726 0.10178 0.0
C675 C 0.24377 0.00388 0.06221 0.0
C676 C 0.2359 0.98842 0.00249 0.0
C677 C 0.99774 0.21121 0.02511 0.0
C678 C 0.98901 0.22187 0.05241 0.0
C679 C 0.01272 0.21884 0.96501 0.0
C680 C 0.01937 0.23732 0.92959 0.0
H681 H 0.99316 0.19697 0.05106 0.0
H682 H 0.01906 0.21015 0.94602 0.0
S683 S 1.00098 0.27089 0.97847 0.0
N684 N 0.98793 0.25175 0.0385 0.0
N685 N 0.0159 0.266 0.92572 0.0
C686 C 0.01062 0.24803 0.95587 0.0
C687 C 0.99549 0.24033 0.01721 0.0
C688 C 0.79026 0.79665 0.96426 0.0
C689 C 0.77127 0.78542 0.93302 0.0
C690 C 0.79768 0.78913 0.02444 0.0
C691 C 0.78631 0.77017 0.05597 0.0
H692 H 0.79953 0.81131 0.9417 0.0
H693 H 0.81238 0.7983 0.04683 0.0
S694 S 0.73559 0.73486 0.9949 0.0
N695 N 0.74122 0.75437 0.93832 0.0
N696 N 0.75509 0.74032 0.05122 0.0
C697 C 0.76728 0.75882 0.0253 0.0
C698 C 0.75978 0.76642 0.9639 0.0
C699 C 0.79063 0.99563 0.96509 0.0
C700 C 0.77267 0.98983 0.92595 0.0
C701 C 0.79831 0.01061 0.02522 0.0
C702 C 0.78826 0.02025 0.04853 0.0
H703 H 0.7988 0.98852 0.94951 0.0
H704 H 0.81206 0.01445 0.05446 0.0
S705 S 0.74107 0.01114 0.9621 0.0
N706 N 0.74534 0.99536 0.91317 0.0
N707 N 0.75971 0.02336 0.02571 0.0
C708 C 0.77043 0.01476 0.00898 0.0
C709 C 0.76265 0.99959 0.94784 0.0
C710 C 0.01272 0.76919 0.96927 0.0
C711 C 0.02037 0.78804 0.93662 0.0
C712 C 0.99797 0.76195 0.02981 0.0
C713 C 0.99014 0.7732 0.05995 0.0
H714 H 0.01814 0.75985 0.94792 0.0
H715 H 0.99262 0.74732 0.05278 0.0
S716 S 0.00512 0.82357 0.99524 0.0
N717 N 0.01911 0.81795 0.93922 0.0
N718 N 0.99122 0.80425 0.0531 0.0
C719 C 0.99765 0.79212 0.02811 0.0
C720 C 0.01282 0.79957 0.96653 0.0
C721 C 0.24592 0.23484 0.02273 0.0
C722 C 0.23369 0.21708 0.06303 0.0
C723 C 0.23868 0.24263 0.96362 0.0
C724 C 0.21891 0.233 0.94225 0.0
H725 H 0.26127 0.24293 0.03706 0.0
H726 H 0.24877 0.25635 0.93445 0.0
S727 S 0.18068 0.18605 0.02981 0.0
N728 N 0.20077 0.19002 0.07766 0.0
N729 N 0.18711 0.2047 0.96599 0.0
C730 C 0.20645 0.21518 0.98177 0.0
C731 C 0.21386 0.2072 0.04222 0.0
C732 C 0.87949 0.33996 0.37256 0.0
C733 C 0.89816 0.35636 0.36662 0.0
C734 C 0.87294 0.3249 0.31317 0.0
C735 C 0.88497 0.32556 0.24667 0.0
H736 H 0.87004 0.3385 0.42472 0.0
H737 H 0.85863 0.31235 0.32119 0.0
S738 S 0.93451 0.36591 0.19894 0.0
N739 N 0.92809 0.37289 0.28531 0.0
N740 N 0.91589 0.34449 0.17482 0.0
C741 C 0.90338 0.34218 0.2382 0.0
C742 C 0.90994 0.35761 0.29783 0.0
C743 C 0.67666 0.54966 0.30123 0.0
C744 C 0.68547 0.56908 0.27425 0.0
C745 C 0.66178 0.54237 0.36176 0.0
C746 C 0.65533 0.55429 0.39797 0.0
H747 H 0.68114 0.53997 0.27476 0.0
H748 H 0.65538 0.52732 0.3806 0.0
S749 S 0.67402 0.60636 0.35018 0.0
N750 N 0.68685 0.60016 0.28927 0.0
N751 N 0.65906 0.58656 0.40283 0.0
C752 C 0.66414 0.57378 0.3719 0.0
C753 C 0.67917 0.58114 0.3101 0.0
C754 C 0.42902 0.10215 0.29915 0.0
C755 C 0.44018 0.12102 0.26668 0.0
C756 C 0.43654 0.09495 0.35971 0.0
C757 C 0.4556 0.10627 0.39002 0.0
H758 H 0.41427 0.09279 0.27787 0.0
H759 H 0.42729 0.08033 0.38277 0.0
S760 S 0.49094 0.15665 0.32521 0.0
N761 N 0.47132 0.15097 0.26914 0.0
N762 N 0.48555 0.13734 0.38308 0.0
C763 C 0.46701 0.12516 0.35799 0.0
C764 C 0.45927 0.13257 0.29639 0.0
C765 C 0.4293 0.32949 0.31071 0.0
C766 C 0.44033 0.32141 0.28058 0.0
C767 C 0.43668 0.34417 0.37151 0.0
C768 C 0.45547 0.35151 0.4044 0.0
H769 H 0.41474 0.3244 0.28741 0.0
H770 H 0.42753 0.34983 0.39267 0.0
S771 S 0.49037 0.33541 0.34645 0.0
N772 N 0.47105 0.32182 0.28809 0.0
N773 N 0.48503 0.34962 0.40247 0.0
C774 C 0.46675 0.34366 0.37475 0.0
C775 C 0.45915 0.32855 0.31292 0.0
C776 C 0.67748 0.12994 0.30726 0.0
C777 C 0.68708 0.11986 0.28392 0.0
C778 C 0.66265 0.12238 0.36801 0.0
C779 C 0.65698 0.10453 0.40787 0.0
H780 H 0.68123 0.14363 0.2775 0.0
H781 H 0.65554 0.13056 0.38352 0.0
S782 S 0.6783 0.07292 0.37207 0.0
N783 N 0.69033 0.09142 0.30749 0.0
N784 N 0.66261 0.07726 0.42136 0.0
C785 C 0.66673 0.09448 0.38604 0.0
C786 C 0.68173 0.10213 0.32415 0.0
C787 C 0.9123 0.5694 0.3515 0.0
C788 C 0.90057 0.55093 0.387 0.0
C789 C 0.90498 0.5769 0.29139 0.0
C790 C 0.8856 0.56628 0.26424 0.0
H791 H 0.92732 0.57825 0.37032 0.0
H792 H 0.91468 0.59121 0.26616 0.0
S793 S 0.84876 0.51714 0.33744 0.0
N794 N 0.86855 0.5221 0.39065 0.0
N795 N 0.85473 0.53626 0.27723 0.0
C796 C 0.87365 0.54775 0.29892 0.0
C797 C 0.88115 0.54005 0.36032 0.0
C798 C 0.54427 0.66423 0.63545 0.0
C799 C 0.55432 0.65457 0.6124 0.0
C800 C 0.55186 0.67913 0.69596 0.0
C801 C 0.56971 0.68481 0.73582 0.0
H802 H 0.53057 0.66045 0.6058 0.0
H803 H 0.54369 0.68624 0.71141 0.0
S804 S 0.60136 0.66353 0.70001 0.0
N805 N 0.58281 0.65141 0.63582 0.0
N806 N 0.59701 0.67924 0.74909 0.0
C807 C 0.57976 0.67506 0.71402 0.0
C808 C 0.57208 0.65999 0.65245 0.0
C809 C 0.32862 0.87559 0.69553 0.0
C810 C 0.32166 0.88721 0.73046 0.0
C811 C 0.34383 0.88319 0.6366 0.0
C812 C 0.3526 0.90266 0.61047 0.0
H813 H 0.32232 0.86053 0.71394 0.0
H814 H 0.34864 0.87368 0.61091 0.0
S815 S 0.33999 0.93929 0.68425 0.0
N816 N 0.3249 0.91927 0.73523 0.0
N817 N 0.3534 0.93349 0.62514 0.0
C818 C 0.34583 0.91445 0.6453 0.0
C819 C 0.33038 0.90674 0.70508 0.0
C820 C 0.10316 0.42997 0.72405 0.0
C821 C 0.12261 0.44084 0.75003 0.0
C822 C 0.09558 0.4371 0.66349 0.0
C823 C 0.1071 0.45545 0.62666 0.0
H824 H 0.09367 0.41568 0.75001 0.0
H825 H 0.08056 0.42803 0.64511 0.0
S826 S 0.15884 0.48996 0.6743 0.0
N827 N 0.15322 0.47108 0.73551 0.0
N828 N 0.13889 0.48457 0.62145 0.0
C829 C 0.12651 0.46666 0.65284 0.0
C830 C 0.1343 0.45932 0.7145 0.0
C831 C 0.10423 0.67717 0.69327 0.0
C832 C 0.12292 0.68432 0.72702 0.0
C833 C 0.09681 0.66243 0.63274 0.0
C834 C 0.1077 0.65413 0.60346 0.0
H835 H 0.09517 0.68299 0.71366 0.0
H836 H 0.08233 0.65751 0.60888 0.0
S837 S 0.15746 0.66758 0.67172 0.0
N838 N 0.15224 0.682 0.72685 0.0
N839 N 0.1382 0.65414 0.61274 0.0
C840 C 0.12644 0.6611 0.63654 0.0
C841 C 0.13407 0.67624 0.6983 0.0
C842 C 0.33343 0.45986 0.70656 0.0
C843 C 0.31795 0.4406 0.70395 0.0
C844 C 0.34864 0.46666 0.64779 0.0
C845 C 0.34905 0.45433 0.58525 0.0
H846 H 0.33407 0.46965 0.75562 0.0
H847 H 0.36045 0.48147 0.65314 0.0
S848 S 0.31131 0.40307 0.54707 0.0
N849 N 0.3034 0.40967 0.62992 0.0
N850 N 0.33206 0.42234 0.52058 0.0
C851 C 0.33334 0.43525 0.5801 0.0
C852 C 0.31775 0.42842 0.63909 0.0
C853 C 0.55107 0.87664 0.69396 0.0
C854 C 0.57049 0.88739 0.72059 0.0
C855 C 0.54362 0.8841 0.63354 0.0
C856 C 0.55538 0.90251 0.59732 0.0
H857 H 0.54146 0.86248 0.72075 0.0
H858 H 0.52855 0.87537 0.61526 0.0
S859 S 0.60752 0.93608 0.64306 0.0
N860 N 0.60149 0.91714 0.70429 0.0
N861 N 0.58759 0.93109 0.59115 0.0
C862 C 0.57491 0.91327 0.62266 0.0
C863 C 0.58244 0.90572 0.68417 0.0
C864 C 0.35063 0.10856 0.22221 0.0
C865 C 0.35645 0.11182 0.13696 0.0
C866 C 0.33097 0.0987 0.24482 0.0
C867 C 0.3163 0.09179 0.18314 0.0
H868 H 0.36134 0.11348 0.27219 0.0
H869 H 0.32726 0.09641 0.31128 0.0
S870 S 0.32379 0.09699 0.95084 0.0
N871 N 0.34592 0.10762 0.99049 0.0
N872 N 0.30899 0.0892 0.03279 0.0
C873 C 0.32191 0.09517 0.09758 0.0
C874 C 0.34196 0.10514 0.07456 0.0
C875 C 0.90019 0.23916 0.08897 0.0
C876 C 0.89473 0.24814 0.15115 0.0
C877 C 0.90991 0.22916 0.11026 0.0
C878 C 0.91467 0.22779 0.19462 0.0
H879 H 0.89702 0.23992 0.023 0.0
H880 H 0.91392 0.22266 0.05979 0.0
S881 S 0.90327 0.24837 0.38187 0.0
N882 N 0.89449 0.25468 0.3012 0.0
N883 N 0.91285 0.23596 0.3411 0.0
C884 C 0.90913 0.23651 0.25768 0.0
C885 C 0.89915 0.24666 0.236 0.0
C886 C 0.76742 0.66351 0.08665 0.0
C887 C 0.76026 0.64913 0.14959 0.0
C888 C 0.77739 0.68328 0.10764 0.0
C889 C 0.78047 0.68946 0.19243 0.0
H890 H 0.76525 0.65951 0.02049 0.0
H891 H 0.7825 0.69379 0.05678 0.0
S892 S 0.76485 0.6576 0.38136 0.0
N893 N 0.75719 0.64246 0.3006 0.0
N894 N 0.77579 0.67956 0.33983 0.0
C895 C 0.77353 0.67524 0.25606 0.0
C896 C 0.76348 0.6551 0.23471 0.0
C897 C 0.0983 0.32359 0.89192 0.0
C898 C 0.09526 0.31812 0.80622 0.0
C899 C 0.10821 0.34318 0.91603 0.0
C900 C 0.11561 0.35808 0.85541 0.0
H901 H 0.09275 0.31267 0.94108 0.0
H902 H 0.10998 0.34662 0.98278 0.0
S903 S 0.11213 0.35153 0.62242 0.0
N904 N 0.10084 0.32924 0.66049 0.0
N905 N 0.11955 0.36599 0.70551 0.0
C906 C 0.11295 0.35282 0.76939 0.0
C907 C 0.10275 0.33287 0.74488 0.0
C908 C 0.68502 0.77756 0.88726 0.0
C909 C 0.69083 0.7805 0.80198 0.0
C910 C 0.66536 0.76775 0.90993 0.0
C911 C 0.65069 0.76059 0.84828 0.0
H912 H 0.69574 0.78265 0.93723 0.0
H913 H 0.66166 0.76568 0.97643 0.0
S914 S 0.65813 0.7649 0.61587 0.0
N915 N 0.68027 0.77572 0.65547 0.0
N916 N 0.64335 0.75742 0.6979 0.0
C917 C 0.65628 0.76368 0.76267 0.0
C918 C 0.67632 0.77358 0.73958 0.0
C919 C 0.24861 0.92383 0.82389 0.0
C920 C 0.22867 0.91366 0.80526 0.0
C921 C 0.25823 0.91401 0.85014 0.0
C922 C 0.24835 0.89367 0.85628 0.0
H923 H 0.25675 0.93952 0.82006 0.0
H924 H 0.27356 0.9224 0.86459 0.0
S925 S 0.19621 0.86032 0.81241 0.0
N926 N 0.19938 0.88217 0.79469 0.0
N927 N 0.21764 0.86367 0.84066 0.0
C928 C 0.22851 0.88331 0.83635 0.0
C929 C 0.21861 0.89333 0.81179 0.0
C930 C 0.68493 0.91081 0.88549 0.0
C931 C 0.69088 0.91317 0.80043 0.0
C932 C 0.66522 0.90101 0.90754 0.0
C933 C 0.65066 0.89304 0.84547 0.0
H934 H 0.69558 0.91681 0.93567 0.0
H935 H 0.6614 0.89978 0.97383 0.0
S936 S 0.65849 0.89479 0.61352 0.0
N937 N 0.68055 0.90643 0.65378 0.0
N938 N 0.64357 0.88792 0.69504 0.0
C939 C 0.65639 0.89503 0.76016 0.0
C940 C 0.67647 0.90512 0.7377 0.0
C941 C 0.0971 0.77556 0.88634 0.0
C942 C 0.09433 0.77872 0.80124 0.0
C943 C 0.107 0.76578 0.9084 0.0
C944 C 0.1147 0.75889 0.8463 0.0
H945 H 0.09134 0.78046 0.9366 0.0
H946 H 0.10855 0.76354 0.97477 0.0
S947 S 0.11197 0.76395 0.61418 0.0
N948 N 0.10044 0.7745 0.65446 0.0
N949 N 0.11919 0.75627 0.69573 0.0
C950 C 0.11231 0.76222 0.76089 0.0
C951 C 0.10209 0.77208 0.73843 0.0
C952 C 0.24927 0.32803 0.79798 0.0
C953 C 0.23006 0.31594 0.82507 0.0
C954 C 0.25977 0.34759 0.82189 0.0
C955 C 0.25142 0.35592 0.87327 0.0
H956 H 0.25633 0.32232 0.75824 0.0
H957 H 0.27449 0.3563 0.79897 0.0
S958 S 0.20126 0.3306 0.95874 0.0
N959 N 0.20296 0.31372 0.90514 0.0
N960 N 0.22257 0.35053 0.94935 0.0
C961 C 0.23218 0.34398 0.90077 0.0
C962 C 0.22154 0.324 0.87686 0.0
C963 C 0.90798 0.67598 0.24078 0.0
C964 C 0.91479 0.69047 0.17828 0.0
C965 C 0.89793 0.65624 0.21928 0.0
C966 C 0.89437 0.65018 0.13437 0.0
H967 H 0.91049 0.67988 0.307 0.0
H968 H 0.89311 0.64566 0.2698 0.0
S969 S 0.90888 0.68232 0.94646 0.0
N970 N 0.91699 0.69735 0.02758 0.0
N971 N 0.89822 0.66031 0.98737 0.0
C972 C 0.90095 0.6645 0.0712 0.0
C973 C 0.91111 0.68462 0.09308 0.0
C974 C 0.343 0.23904 0.09685 0.0
C975 C 0.35737 0.24692 0.15971 0.0
C976 C 0.32325 0.22885 0.11787 0.0
C977 C 0.31705 0.22627 0.20261 0.0
H978 H 0.347 0.24076 0.03069 0.0
H979 H 0.31276 0.22318 0.067 0.0
S980 S 0.34888 0.24396 0.39138 0.0
N981 N 0.36403 0.25128 0.31063 0.0
N982 N 0.32693 0.23229 0.34994 0.0
C983 C 0.33126 0.23397 0.26621 0.0
C984 C 0.3514 0.24425 0.24483 0.0
C985 C 0.76926 0.10793 0.08867 0.0
C986 C 0.76177 0.11468 0.15228 0.0
C987 C 0.77935 0.09821 0.10872 0.0
C988 C 0.7822 0.09469 0.19319 0.0
H989 H 0.76723 0.11006 0.0227 0.0
H990 H 0.78467 0.09315 0.05736 0.0
S991 S 0.76575 0.10964 0.38361 0.0
N992 N 0.75821 0.11743 0.30359 0.0
N993 N 0.77701 0.09905 0.34106 0.0
C994 C 0.77497 0.10153 0.25751 0.0
C995 C 0.76481 0.11156 0.23712 0.0
C996 C 0.01652 0.44636 0.55558 0.0
C997 C 0.02383 0.44137 0.4848 0.0
C998 C 0.99675 0.43585 0.5766 0.0
C999 C 0.98355 0.41982 0.52817 0.0
H1000 H 0.0261 0.45861 0.5947 0.0
H1001 H 0.99178 0.44044 0.63091 0.0
S1002 S 0.99547 0.40026 0.33854 0.0
N1003 N 0.01638 0.419 0.36751 0.0
N1004 N 0.97935 0.39917 0.40721 0.0
C1005 C 0.99074 0.41448 0.458 0.0
C1006 C 0.01083 0.42528 0.43622 0.0
C1007 C 0.57348 0.56745 0.58049 0.0
C1008 C 0.58055 0.56 0.51813 0.0
C1009 C 0.56347 0.57716 0.55875 0.0
C1010 C 0.56028 0.57996 0.47373 0.0
H1011 H 0.57572 0.56584 0.64679 0.0
H1012 H 0.55845 0.58275 0.60921 0.0
S1013 S 0.57567 0.56308 0.2861 0.0
N1014 N 0.58343 0.55587 0.36743 0.0
N1015 N 0.56479 0.57425 0.32675 0.0
C1016 C 0.56714 0.57246 0.41066 0.0
C1017 C 0.57722 0.56244 0.4328 0.0
C1018 C 0.4407 0.00973 0.57621 0.0
C1019 C 0.44803 0.02409 0.51313 0.0
C1020 C 0.43094 0.98996 0.55547 0.0
C1021 C 0.42797 0.98372 0.47077 0.0
H1022 H 0.44241 0.01377 0.64232 0.0
H1023 H 0.42542 0.97949 0.60648 0.0
S1024 S 0.44463 0.01546 0.28151 0.0
N1025 N 0.45196 0.03066 0.36207 0.0
N1026 N 0.43349 0.99352 0.32329 0.0
C1027 C 0.43539 0.9979 0.40698 0.0
C1028 C 0.44545 0.01806 0.42809 0.0
C1029 C 0.57308 0.00894 0.58014 0.0
C1030 C 0.58031 0.02367 0.51868 0.0
C1031 C 0.56308 0.98929 0.5572 0.0
C1032 C 0.56001 0.98356 0.47183 0.0
H1033 H 0.57526 0.01258 0.64668 0.0
H1034 H 0.55798 0.97852 0.60699 0.0
S1035 S 0.57561 0.01642 0.2862 0.0
N1036 N 0.58332 0.03114 0.36843 0.0
N1037 N 0.56466 0.99425 0.3255 0.0
C1038 C 0.56695 0.99812 0.40966 0.0
C1039 C 0.57705 0.01815 0.43302 0.0
C1040 C 0.99021 0.56279 0.44028 0.0
C1041 C 0.98398 0.55963 0.52498 0.0
C1042 C 0.00997 0.57269 0.41951 0.0
C1043 C 0.02433 0.57973 0.48258 0.0
H1044 H 0.97974 0.5578 0.38928 0.0
H1045 H 0.014 0.5749 0.35338 0.0
S1046 S 0.01572 0.57485 0.71422 0.0
N1047 N 0.99379 0.56408 0.67249 0.0
N1048 N 0.03092 0.58256 0.63362 0.0
C1049 C 0.01832 0.57643 0.56763 0.0
C1050 C 0.99816 0.56643 0.58878 0.0
C1051 C 0.42873 0.44173 0.56376 0.0
C1052 C 0.42688 0.44569 0.47866 0.0
C1053 C 0.43849 0.43181 0.5863 0.0
C1054 C 0.44687 0.42553 0.52468 0.0
H1055 H 0.42244 0.44618 0.61354 0.0
H1056 H 0.43941 0.429 0.65259 0.0
S1057 S 0.44629 0.43243 0.29281 0.0
N1058 N 0.4344 0.44265 0.33246 0.0
N1059 N 0.45276 0.42412 0.37464 0.0
C1060 C 0.44528 0.42955 0.43935 0.0
C1061 C 0.43528 0.43959 0.4164 0.0
C1062 C 0.25573 0.11977 0.33669 0.0
C1063 C 0.2476 0.10647 0.26961 0.0
C1064 C 0.25568 0.13736 0.33659 0.0
C1065 C 0.24751 0.14241 0.26933 0.0
H1066 H 0.26274 0.11686 0.38871 0.0
H1067 H 0.26266 0.14734 0.38848 0.0
S1068 S 0.22268 0.11189 0.08216 0.0
N1069 N 0.22989 0.09899 0.13688 0.0
N1070 N 0.22982 0.13202 0.13663 0.0
C1071 C 0.23856 0.12888 0.20362 0.0
C1072 C 0.23859 0.11094 0.20378 0.0
C1073 C 0.87721 0.11441 0.19376 0.0
C1074 C 0.86519 0.10792 0.2656 0.0
C1075 C 0.89472 0.13213 0.19391 0.0
C1076 C 0.90095 0.14411 0.26591 0.0
H1077 H 0.87278 0.10605 0.13583 0.0
H1078 H 0.90312 0.13673 0.13612 0.0
S1079 S 0.87575 0.13295 0.47309 0.0
N1080 N 0.86148 0.11427 0.41279 0.0
N1081 N 0.89435 0.14753 0.41306 0.0
C1082 C 0.88953 0.13739 0.33945 0.0
C1083 C 0.87168 0.11932 0.33931 0.0
C1084 C 0.887 0.75126 0.32825 0.0
C1085 C 0.90012 0.75912 0.26043 0.0
C1086 C 0.86938 0.75127 0.32817 0.0
C1087 C 0.86415 0.75911 0.26021 0.0
H1088 H 0.89007 0.74451 0.38085 0.0
H1089 H 0.85953 0.74451 0.38069 0.0
S1090 S 0.89418 0.78309 0.07078 0.0
N1091 N 0.90724 0.77619 0.12612 0.0
N1092 N 0.87417 0.77617 0.12593 0.0
C1093 C 0.8775 0.76777 0.19369 0.0
C1094 C 0.89546 0.76778 0.19382 0.0
C1095 C 0.12287 0.25789 0.66272 0.0
C1096 C 0.10884 0.24861 0.72636 0.0
C1097 C 0.14038 0.25766 0.66357 0.0
C1098 C 0.14455 0.24814 0.72807 0.0
H1099 H 0.12062 0.26596 0.61327 0.0
H1100 H 0.15098 0.26558 0.61481 0.0
S1101 S 0.11176 0.21984 0.90437 0.0
N1102 N 0.09966 0.22831 0.85191 0.0
N1103 N 0.13248 0.22786 0.8535 0.0
C1104 C 0.13024 0.23801 0.78977 0.0
C1105 C 0.11242 0.23825 0.78893 0.0
C1106 C 0.75367 0.86941 0.66094 0.0
C1107 C 0.76083 0.86386 0.73035 0.0
C1108 C 0.75375 0.88707 0.66056 0.0
C1109 C 0.76098 0.8999 0.7296 0.0
H1110 H 0.74737 0.85978 0.6074 0.0
H1111 H 0.74749 0.89036 0.60676 0.0
S1112 S 0.78316 0.89312 0.92344 0.0
N1113 N 0.77669 0.87332 0.86741 0.0
N1114 N 0.77682 0.90645 0.86671 0.0
C1115 C 0.76901 0.89495 0.79775 0.0
C1116 C 0.76894 0.87696 0.79812 0.0
C1117 C 0.13189 0.89255 0.79221 0.0
C1118 C 0.14473 0.89844 0.72312 0.0
C1119 C 0.11443 0.87481 0.79165 0.0
C1120 C 0.10905 0.86218 0.72197 0.0
H1121 H 0.13559 0.90144 0.84852 0.0
H1122 H 0.10536 0.87074 0.84748 0.0
S1123 S 0.13674 0.87145 0.52204 0.0
N1124 N 0.15024 0.89074 0.5807 0.0
N1125 N 0.11742 0.85739 0.5796 0.0
C1126 C 0.12133 0.86825 0.65086 0.0
C1127 C 0.13915 0.88636 0.65144 0.0
C1128 C 0.90963 0.44709 0.52079 0.0
C1129 C 0.91464 0.44029 0.59312 0.0
C1130 C 0.90962 0.46469 0.52166 0.0
C1131 C 0.91462 0.47624 0.59489 0.0
H1132 H 0.90622 0.43903 0.46211 0.0
H1133 H 0.90621 0.46954 0.46357 0.0
S1134 S 0.92721 0.46418 0.80336 0.0
N1135 N 0.92349 0.4459 0.74179 0.0
N1136 N 0.92348 0.47896 0.74338 0.0
C1137 C 0.91886 0.46923 0.66872 0.0
C1138 C 0.91887 0.45128 0.66785 0.0
C1139 C 0.54268 0.44664 0.5463 0.0
C1140 C 0.53004 0.44117 0.61602 0.0
C1141 C 0.56026 0.46428 0.54534 0.0
C1142 C 0.56593 0.4772 0.61405 0.0
H1143 H 0.53872 0.4375 0.49072 0.0
H1144 H 0.56916 0.46807 0.48905 0.0
S1145 S 0.53895 0.46895 0.81538 0.0
N1146 N 0.52511 0.44951 0.75816 0.0
N1147 N 0.55811 0.48265 0.75638 0.0
C1148 C 0.55386 0.47153 0.68577 0.0
C1149 C 0.53594 0.45354 0.68676 0.0
C1150 C 0.55341 0.08454 0.67094 0.0
C1151 C 0.56715 0.09312 0.60572 0.0
C1152 C 0.53578 0.08451 0.66908 0.0
C1153 C 0.53117 0.09306 0.60188 0.0
H1154 H 0.55597 0.07718 0.7226 0.0
H1155 H 0.52544 0.07715 0.7194 0.0
S1156 S 0.56299 0.11924 0.4198 0.0
N1157 N 0.57554 0.11173 0.47522 0.0
N1158 N 0.54246 0.11167 0.47171 0.0
C1159 C 0.54516 0.10251 0.53831 0.0
C1160 C 0.56313 0.10255 0.54024 0.0
C1161 C 0.78718 0.5878 0.99812 0.0
C1162 C 0.77428 0.58009 0.06678 0.0
C1163 C 0.80484 0.58788 0.99735 0.0
C1164 C 0.81034 0.5803 0.06532 0.0
H1165 H 0.78391 0.59439 0.94551 0.0
H1166 H 0.81452 0.59455 0.94424 0.0
S1167 S 0.78094 0.55666 0.25667 0.0
N1168 N 0.76764 0.56334 0.20178 0.0
N1169 N 0.80079 0.56354 0.20042 0.0
C1170 C 0.79719 0.57174 0.13264 0.0
C1171 C 0.77919 0.57162 0.13334 0.0
C1172 C 0.41725 0.20118 0.00271 0.0
C1173 C 0.42535 0.1958 0.06909 0.0
C1174 C 0.41731 0.21884 0.00439 0.0
C1175 C 0.42549 0.23182 0.07247 0.0
H1176 H 0.41026 0.19144 0.95011 0.0
H1177 H 0.41038 0.22203 0.95299 0.0
S1178 S 0.45021 0.22546 0.25829 0.0
N1179 N 0.44299 0.20554 0.20208 0.0
N1180 N 0.44312 0.23866 0.20519 0.0
C1181 C 0.43439 0.22701 0.13748 0.0
C1182 C 0.43431 0.20902 0.13581 0.0
C1183 C 0.78721 0.20205 -0.00019 0.0
C1184 C 0.77429 0.19705 0.06832 0.0
C1185 C 0.80485 0.21966 -0.0015 0.0
C1186 C 0.81032 0.23295 0.0657 0.0
H1187 H 0.78399 0.19203 0.94789 0.0
H1188 H 0.81457 0.22253 0.94564 0.0
S1189 S 0.7808 0.22772 0.25601 0.0
N1190 N 0.76755 0.20755 0.20211 0.0
N1191 N 0.80067 0.24055 0.1997 0.0
C1192 C 0.79713 0.22855 0.1327 0.0
C1193 C 0.77914 0.21064 0.13399 0.0
C1194 C 0.57479 0.78024 0.87386 0.0
C1195 C 0.58191 0.77478 0.94372 0.0
C1196 C 0.57476 0.79785 0.87296 0.0
C1197 C 0.58184 0.81072 0.94189 0.0
H1198 H 0.56978 0.77117 0.81805 0.0
H1199 H 0.56973 0.80165 0.8165 0.0
S1200 S 0.60026 0.8024 0.14381 0.0
N1201 N 0.59487 0.78304 0.08636 0.0
N1202 N 0.59481 0.81607 0.08468 0.0
C1203 C 0.58813 0.80502 0.01383 0.0
C1204 C 0.58816 0.78707 0.01475 0.0
C1205 C 0.2022 0.78682 0.00522 0.0
C1206 C 0.19776 0.77326 0.93972 0.0
C1207 C 0.21983 0.80445 0.00643 0.0
C1208 C 0.23373 0.80925 0.94218 0.0
H1209 H 0.19171 0.78411 0.05454 0.0
H1210 H 0.22226 0.81469 0.05657 0.0
S1211 S 0.23011 0.77786 0.76139 0.0
N1212 N 0.20944 0.7652 0.81263 0.0
N1213 N 0.24249 0.79826 0.8149 0.0
C1214 C 0.22988 0.79541 0.87862 0.0
C1215 C 0.21194 0.77745 0.87738 0.0
C1216 C 0.20501 0.41898 0.00359 0.0
C1217 C 0.19924 0.42667 0.937 0.0
C1218 C 0.22263 0.41903 0.0006 0.0
C1219 C 0.23516 0.42669 0.93071 0.0
H1220 H 0.1956 0.41234 0.05751 0.0
H1221 H 0.22611 0.4124 0.05231 0.0
S1222 S 0.22779 0.45034 0.74369 0.0
N1223 N 0.20822 0.44353 0.80194 0.0
N1224 N 0.24125 0.4435 0.79622 0.0
C1225 C 0.22999 0.4352 0.8654 0.0
C1226 C 0.21207 0.43523 0.86858 0.0
C1227 C 0.45333 0.92043 0.33324 0.0
C1228 C 0.44076 0.91334 0.4032 0.0
C1229 C 0.47093 0.92039 0.33213 0.0
C1230 C 0.47669 0.91325 0.40094 0.0
H1231 H 0.44988 0.92666 0.27984 0.0
H1232 H 0.48037 0.9266 0.27794 0.0
S1233 S 0.44813 0.89128 0.59606 0.0
N1234 N 0.43466 0.89765 0.54056 0.0
N1235 N 0.46768 0.89757 0.53848 0.0
C1236 C 0.46383 0.90528 0.46964 0.0
C1237 C 0.4459 0.90532 0.47077 0.0
C1238 C 0.09888 0.55865 0.46483 0.0
C1239 C 0.09171 0.56397 0.39476 0.0
C1240 C 0.09859 0.54091 0.4671 0.0
C1241 C 0.09112 0.52772 0.39937 0.0
H1242 H 0.10429 0.56801 0.51967 0.0
H1243 H 0.10383 0.53732 0.52353 0.0
S1244 S 0.07195 0.53531 0.19805 0.0
N1245 N 0.07795 0.55507 0.25361 0.0
N1246 N 0.07742 0.52173 0.25787 0.0
C1247 C 0.08462 0.53317 0.32739 0.0
C1248 C 0.0849 0.55128 0.32508 0.0
C1249 C 0.47157 0.55402 0.33421 0.0
C1250 C 0.4771 0.56665 0.404 0.0
C1251 C 0.45406 0.53627 0.33403 0.0
C1252 C 0.44138 0.5304 0.40369 0.0
H1253 H 0.48112 0.55755 0.28022 0.0
H1254 H 0.45078 0.5268 0.27991 0.0
S1255 S 0.4481 0.55904 0.59867 0.0
N1256 N 0.46772 0.57267 0.54205 0.0
N1257 N 0.4349 0.53936 0.54176 0.0
C1258 C 0.4463 0.54329 0.47225 0.0
C1259 C 0.46412 0.56138 0.47238 0.0
loop_
_geom_bond_atom_site_label_1
_geom_bond_atom_site_label_2
_geom_bond_distance
_geom_bond_site_symmetry_2
_ccdc_geom_bond_type
In0 O1 2.294 . S
In0 O2 2.326 . S
In0 O6 2.266 . S
In0 O7 2.326 . S
In0 O8 2.266 . S
In0 O9 2.326 . S
In0 O11 2.294 . S
In0 O12 2.326 . S
O1 In0 2.294 . S
O1 C10 1.240 . S
O2 In0 2.326 . S
O2 C10 1.252 . S
C3 O6 1.252 . S
C3 O7 1.260 . S
C4 O11 1.240 . S
C4 O12 1.252 . S
C5 O8 1.252 . S
C5 O9 1.260 . S
O6 In0 2.266 . S
O6 C3 1.252 . S
O7 In0 2.326 . S
O7 C3 1.260 . S
O8 In0 2.266 . S
O8 C5 1.252 . S
O9 In0 2.326 . S
O9 C5 1.260 . S
C10 O1 1.240 . S
C10 O2 1.252 . S
O11 In0 2.294 . S
O11 C4 1.240 . S
O12 In0 2.326 . S
O12 C4 1.252 . S
In13 O14 2.294 . S
In13 O15 2.326 . S
In13 O19 2.266 . S
In13 O20 2.326 . S
In13 O21 2.266 . S
In13 O22 2.326 . S
In13 O24 2.294 . S
In13 O25 2.326 . S
O14 In13 2.294 . S
O14 C23 1.240 . S
O15 In13 2.326 . S
O15 C23 1.252 . S
C16 O19 1.252 . S
C16 O20 1.260 . S
C17 O24 1.240 . S
C17 O25 1.252 . S
C18 O21 1.252 . S
C18 O22 1.260 . S
O19 In13 2.266 . S
O19 C16 1.252 . S
O20 In13 2.326 . S
O20 C16 1.260 . S
O21 In13 2.266 . S
O21 C18 1.252 . S
O22 In13 2.326 . S
O22 C18 1.260 . S
C23 O14 1.240 . S
C23 O15 1.252 . S
O24 In13 2.294 . S
O24 C17 1.240 . S
O25 In13 2.326 . S
O25 C17 1.252 . S
In26 O27 2.294 . S
In26 O28 2.326 . S
In26 O32 2.266 . S
In26 O33 2.326 . S
In26 O34 2.266 . S
In26 O35 2.326 . S
In26 O37 2.294 . S
In26 O38 2.326 . S
O27 In26 2.294 . S
O27 C36 1.240 . S
O28 In26 2.326 . S
O28 C36 1.252 . S
C29 O32 1.252 . S
C29 O33 1.260 . S
C30 O37 1.240 . S
C30 O38 1.252 . S
C31 O34 1.252 . S
C31 O35 1.260 . S
O32 In26 2.266 . S
O32 C29 1.252 . S
O33 In26 2.326 . S
O33 C29 1.260 . S
O34 In26 2.266 . S
O34 C31 1.252 . S
O35 In26 2.326 . S
O35 C31 1.260 . S
C36 O27 1.240 . S
C36 O28 1.252 . S
O37 In26 2.294 . S
O37 C30 1.240 . S
O38 In26 2.326 . S
O38 C30 1.252 . S
In39 O40 2.294 . S
In39 O41 2.326 . S
In39 O45 2.266 . S
In39 O46 2.326 . S
In39 O47 2.266 . S
In39 O48 2.326 . S
In39 O50 2.294 . S
In39 O51 2.326 . S
O40 In39 2.294 . S
O40 C49 1.240 . S
O41 In39 2.326 . S
O41 C49 1.252 . S
C42 O45 1.252 . S
C42 O46 1.260 . S
C43 O50 1.240 . S
C43 O51 1.252 . S
C44 O47 1.252 . S
C44 O48 1.260 . S
O45 In39 2.266 . S
O45 C42 1.252 . S
O46 In39 2.326 . S
O46 C42 1.260 . S
O47 In39 2.266 . S
O47 C44 1.252 . S
O48 In39 2.326 . S
O48 C44 1.260 . S
C49 O40 1.240 . S
C49 O41 1.252 . S
O50 In39 2.294 . S
O50 C43 1.240 . S
O51 In39 2.326 . S
O51 C43 1.252 . S
In52 O53 2.294 . S
In52 O54 2.326 . S
In52 O58 2.266 . S
In52 O59 2.326 . S
In52 O60 2.266 . S
In52 O61 2.326 . S
In52 O63 2.294 . S
In52 O64 2.326 . S
O53 In52 2.294 . S
O53 C62 1.240 . S
O54 In52 2.326 . S
O54 C62 1.252 . S
C55 O58 1.252 . S
C55 O59 1.260 . S
C56 O63 1.240 . S
C56 O64 1.252 . S
C57 O60 1.252 . S
C57 O61 1.260 . S
O58 In52 2.266 . S
O58 C55 1.252 . S
O59 In52 2.326 . S
O59 C55 1.260 . S
O60 In52 2.266 . S
O60 C57 1.252 . S
O61 In52 2.326 . S
O61 C57 1.260 . S
C62 O53 1.240 . S
C62 O54 1.252 . S
O63 In52 2.294 . S
O63 C56 1.240 . S
O64 In52 2.326 . S
O64 C56 1.252 . S
In65 O66 2.294 . S
In65 O67 2.326 . S
In65 O71 2.266 . S
In65 O72 2.326 . S
In65 O73 2.266 . S
In65 O74 2.326 . S
In65 O76 2.294 . S
In65 O77 2.326 . S
O66 In65 2.294 . S
O66 C75 1.240 . S
O67 In65 2.326 . S
O67 C75 1.252 . S
C68 O71 1.252 . S
C68 O72 1.260 . S
C69 O76 1.240 . S
C69 O77 1.252 . S
C70 O73 1.252 . S
C70 O74 1.260 . S
O71 In65 2.266 . S
O71 C68 1.252 . S
O72 In65 2.326 . S
O72 C68 1.260 . S
O73 In65 2.266 . S
O73 C70 1.252 . S
O74 In65 2.326 . S
O74 C70 1.260 . S
C75 O66 1.240 . S
C75 O67 1.252 . S
O76 In65 2.294 . S
O76 C69 1.240 . S
O77 In65 2.326 . S
O77 C69 1.252 . S
In78 O79 2.294 . S
In78 O80 2.326 . S
In78 O84 2.266 . S
In78 O85 2.326 . S
In78 O86 2.266 . S
In78 O87 2.326 . S
In78 O89 2.294 . S
In78 O90 2.326 . S
O79 In78 2.294 . S
O79 C88 1.240 . S
O80 In78 2.326 . S
O80 C88 1.252 . S
C81 O84 1.252 . S
C81 O85 1.260 . S
C82 O89 1.240 . S
C82 O90 1.252 . S
C83 O86 1.252 . S
C83 O87 1.260 . S
O84 In78 2.266 . S
O84 C81 1.252 . S
O85 In78 2.326 . S
O85 C81 1.260 . S
O86 In78 2.266 . S
O86 C83 1.252 . S
O87 In78 2.326 . S
O87 C83 1.260 . S
C88 O79 1.240 . S
C88 O80 1.252 . S
O89 In78 2.294 . S
O89 C82 1.240 . S
O90 In78 2.326 . S
O90 C82 1.252 . S
In91 O92 2.294 . S
In91 O93 2.326 . S
In91 O97 2.266 . S
In91 O98 2.326 . S
In91 O99 2.266 . S
In91 O100 2.326 . S
In91 O102 2.294 . S
In91 O103 2.326 . S
O92 In91 2.294 . S
O92 C101 1.240 . S
O93 In91 2.326 . S
O93 C101 1.252 . S
C94 O97 1.252 . S
C94 O98 1.260 . S
C95 O102 1.240 . S
C95 O103 1.252 . S
C96 O99 1.252 . S
C96 O100 1.260 . S
O97 In91 2.266 . S
O97 C94 1.252 . S
O98 In91 2.326 . S
O98 C94 1.260 . S
O99 In91 2.266 . S
O99 C96 1.252 . S
O100 In91 2.326 . S
O100 C96 1.260 . S
C101 O92 1.240 . S
C101 O93 1.252 . S
O102 In91 2.294 . S
O102 C95 1.240 . S
O103 In91 2.326 . S
O103 C95 1.252 . S
In104 O105 2.294 . S
In104 O106 2.326 . S
In104 O110 2.266 . S
In104 O111 2.326 . S
In104 O112 2.266 . S
In104 O113 2.326 . S
In104 O115 2.294 . S
In104 O116 2.326 . S
O105 In104 2.294 . S
O105 C114 1.240 . S
O106 In104 2.326 . S
O106 C114 1.252 . S
C107 O110 1.252 . S
C107 O111 1.260 . S
C108 O115 1.240 . S
C108 O116 1.252 . S
C109 O112 1.252 . S
C109 O113 1.260 . S
O110 In104 2.266 . S
O110 C107 1.252 . S
O111 In104 2.326 . S
O111 C107 1.260 . S
O112 In104 2.266 . S
O112 C109 1.252 . S
O113 In104 2.326 . S
O113 C109 1.260 . S
C114 O105 1.240 . S
C114 O106 1.252 . S
O115 In104 2.294 . S
O115 C108 1.240 . S
O116 In104 2.326 . S
O116 C108 1.252 . S
In117 O118 2.294 . S
In117 O119 2.326 . S
In117 O123 2.266 . S
In117 O124 2.326 . S
In117 O125 2.266 . S
In117 O126 2.326 . S
In117 O128 2.294 . S
In117 O129 2.326 . S
O118 In117 2.294 . S
O118 C127 1.240 . S
O119 In117 2.326 . S
O119 C127 1.252 . S
C120 O123 1.252 . S
C120 O124 1.260 . S
C121 O128 1.240 . S
C121 O129 1.252 . S
C122 O125 1.252 . S
C122 O126 1.260 . S
O123 In117 2.266 . S
O123 C120 1.252 . S
O124 In117 2.326 . S
O124 C120 1.260 . S
O125 In117 2.266 . S
O125 C122 1.252 . S
O126 In117 2.326 . S
O126 C122 1.260 . S
C127 O118 1.240 . S
C127 O119 1.252 . S
O128 In117 2.294 . S
O128 C121 1.240 . S
O129 In117 2.326 . S
O129 C121 1.252 . S
In130 O131 2.294 . S
In130 O132 2.326 . S
In130 O136 2.266 . S
In130 O137 2.326 . S
In130 O138 2.266 . S
In130 O139 2.326 . S
In130 O141 2.294 . S
In130 O142 2.326 . S
O131 In130 2.294 . S
O131 C140 1.240 . S
O132 In130 2.326 . S
O132 C140 1.252 . S
C133 O136 1.252 . S
C133 O137 1.260 . S
C134 O141 1.240 . S
C134 O142 1.252 . S
C135 O138 1.252 . S
C135 O139 1.260 . S
O136 In130 2.266 . S
O136 C133 1.252 . S
O137 In130 2.326 . S
O137 C133 1.260 . S
O138 In130 2.266 . S
O138 C135 1.252 . S
O139 In130 2.326 . S
O139 C135 1.260 . S
C140 O131 1.240 . S
C140 O132 1.252 . S
O141 In130 2.294 . S
O141 C134 1.240 . S
O142 In130 2.326 . S
O142 C134 1.252 . S
In143 O144 2.294 . S
In143 O145 2.326 . S
In143 O149 2.266 . S
In143 O150 2.326 . S
In143 O151 2.266 . S
In143 O152 2.326 . S
In143 O154 2.294 . S
In143 O155 2.326 . S
O144 In143 2.294 . S
O144 C153 1.240 . S
O145 In143 2.326 . S
O145 C153 1.252 . S
C146 O149 1.252 . S
C146 O150 1.260 . S
C147 O154 1.240 . S
C147 O155 1.252 . S
C148 O151 1.252 . S
C148 O152 1.260 . S
O149 In143 2.266 . S
O149 C146 1.252 . S
O150 In143 2.326 . S
O150 C146 1.260 . S
O151 In143 2.266 . S
O151 C148 1.252 . S
O152 In143 2.326 . S
O152 C148 1.260 . S
C153 O144 1.240 . S
C153 O145 1.252 . S
O154 In143 2.294 . S
O154 C147 1.240 . S
O155 In143 2.326 . S
O155 C147 1.252 . S
In156 O157 2.294 . S
In156 O158 2.326 . S
In156 O162 2.266 . S
In156 O163 2.326 . S
In156 O164 2.266 . S
In156 O165 2.326 . S
In156 O167 2.294 . S
In156 O168 2.326 . S
O157 In156 2.294 . S
O157 C166 1.240 . S
O158 In156 2.326 . S
O158 C166 1.252 . S
C159 O162 1.252 . S
C159 O163 1.260 . S
C160 O167 1.240 . S
C160 O168 1.252 . S
C161 O164 1.252 . S
C161 O165 1.260 . S
O162 In156 2.266 . S
O162 C159 1.252 . S
O163 In156 2.326 . S
O163 C159 1.260 . S
O164 In156 2.266 . S
O164 C161 1.252 . S
O165 In156 2.326 . S
O165 C161 1.260 . S
C166 O157 1.240 . S
C166 O158 1.252 . S
O167 In156 2.294 . S
O167 C160 1.240 . S
O168 In156 2.326 . S
O168 C160 1.252 . S
In169 O170 2.294 . S
In169 O171 2.326 . S
In169 O175 2.266 . S
In169 O176 2.326 . S
In169 O177 2.266 . S
In169 O178 2.326 . S
In169 O180 2.294 . S
In169 O181 2.326 . S
O170 In169 2.294 . S
O170 C179 1.240 . S
O171 In169 2.326 . S
O171 C179 1.252 . S
C172 O175 1.252 . S
C172 O176 1.260 . S
C173 O180 1.240 . S
C173 O181 1.252 . S
C174 O177 1.252 . S
C174 O178 1.260 . S
O175 In169 2.266 . S
O175 C172 1.252 . S
O176 In169 2.326 . S
O176 C172 1.260 . S
O177 In169 2.266 . S
O177 C174 1.252 . S
O178 In169 2.326 . S
O178 C174 1.260 . S
C179 O170 1.240 . S
C179 O171 1.252 . S
O180 In169 2.294 . S
O180 C173 1.240 . S
O181 In169 2.326 . S
O181 C173 1.252 . S
In182 O183 2.294 . S
In182 O184 2.326 . S
In182 O188 2.266 . S
In182 O189 2.326 . S
In182 O190 2.266 . S
In182 O191 2.326 . S
In182 O193 2.294 . S
In182 O194 2.326 . S
O183 In182 2.294 . S
O183 C192 1.240 . S
O184 In182 2.326 . S
O184 C192 1.252 . S
C185 O188 1.252 . S
C185 O189 1.260 . S
C186 O193 1.240 . S
C186 O194 1.252 . S
C187 O190 1.252 . S
C187 O191 1.260 . S
O188 In182 2.266 . S
O188 C185 1.252 . S
O189 In182 2.326 . S
O189 C185 1.260 . S
O190 In182 2.266 . S
O190 C187 1.252 . S
O191 In182 2.326 . S
O191 C187 1.260 . S
C192 O183 1.240 . S
C192 O184 1.252 . S
O193 In182 2.294 . S
O193 C186 1.240 . S
O194 In182 2.326 . S
O194 C186 1.252 . S
In195 O196 2.294 . S
In195 O197 2.326 . S
In195 O201 2.266 . S
In195 O202 2.326 . S
In195 O203 2.266 . S
In195 O204 2.326 . S
In195 O206 2.294 1_554 S
In195 O207 2.326 . S
O196 In195 2.294 . S
O196 C205 1.240 . S
O197 In195 2.326 . S
O197 C205 1.252 . S
C198 O201 1.252 . S
C198 O202 1.260 . S
C199 O206 1.240 . S
C199 O207 1.252 1_556 S
C200 O203 1.252 . S
C200 O204 1.260 . S
O201 In195 2.266 . S
O201 C198 1.252 . S
O202 In195 2.326 . S
O202 C198 1.260 . S
O203 In195 2.266 . S
O203 C200 1.252 . S
O204 In195 2.326 . S
O204 C200 1.260 . S
C205 O196 1.240 . S
C205 O197 1.252 . S
O206 In195 2.294 1_556 S
O206 C199 1.240 . S
O207 In195 2.326 . S
O207 C199 1.252 1_554 S
In208 O209 2.294 1_554 S
In208 O210 2.326 . S
In208 O214 2.266 . S
In208 O215 2.326 . S
In208 O216 2.266 . S
In208 O217 2.326 . S
In208 O219 2.294 . S
In208 O220 2.326 . S
O209 In208 2.294 1_556 S
O209 C218 1.240 . S
O210 In208 2.326 . S
O210 C218 1.252 1_554 S
C211 O214 1.252 . S
C211 O215 1.260 . S
C212 O219 1.240 . S
C212 O220 1.252 . S
C213 O216 1.252 . S
C213 O217 1.260 . S
O214 In208 2.266 . S
O214 C211 1.252 . S
O215 In208 2.326 . S
O215 C211 1.260 . S
O216 In208 2.266 . S
O216 C213 1.252 . S
O217 In208 2.326 . S
O217 C213 1.260 . S
C218 O209 1.240 . S
C218 O210 1.252 1_556 S
O219 In208 2.294 . S
O219 C212 1.240 . S
O220 In208 2.326 . S
O220 C212 1.252 . S
In221 O222 2.294 . S
In221 O223 2.326 . S
In221 O227 2.266 . S
In221 O228 2.326 . S
In221 O229 2.266 . S
In221 O230 2.326 . S
In221 O232 2.294 1_554 S
In221 O233 2.326 . S
O222 In221 2.294 . S
O222 C231 1.240 . S
O223 In221 2.326 . S
O223 C231 1.252 . S
C224 O227 1.252 . S
C224 O228 1.260 . S
C225 O232 1.240 . S
C225 O233 1.252 1_556 S
C226 O229 1.252 . S
C226 O230 1.260 . S
O227 In221 2.266 . S
O227 C224 1.252 . S
O228 In221 2.326 . S
O228 C224 1.260 . S
O229 In221 2.266 . S
O229 C226 1.252 . S
O230 In221 2.326 . S
O230 C226 1.260 . S
C231 O222 1.240 . S
C231 O223 1.252 . S
O232 In221 2.294 1_556 S
O232 C225 1.240 . S
O233 In221 2.326 . S
O233 C225 1.252 1_554 S
In234 O235 2.294 1_554 S
In234 O236 2.326 . S
In234 O240 2.266 . S
In234 O241 2.326 . S
In234 O242 2.266 . S
In234 O243 2.326 . S
In234 O245 2.294 . S
In234 O246 2.326 . S
O235 In234 2.294 1_556 S
O235 C244 1.240 . S
O236 In234 2.326 . S
O236 C244 1.252 1_554 S
C237 O240 1.252 . S
C237 O241 1.260 . S
C238 O245 1.240 . S
C238 O246 1.252 . S
C239 O242 1.252 . S
C239 O243 1.260 . S
O240 In234 2.266 . S
O240 C237 1.252 . S
O241 In234 2.326 . S
O241 C237 1.260 . S
O242 In234 2.266 . S
O242 C239 1.252 . S
O243 In234 2.326 . S
O243 C239 1.260 . S
C244 O235 1.240 . S
C244 O236 1.252 1_556 S
O245 In234 2.294 . S
O245 C238 1.240 . S
O246 In234 2.326 . S
O246 C238 1.252 . S
In247 O248 2.294 1_554 S
In247 O249 2.326 . S
In247 O253 2.266 . S
In247 O254 2.326 . S
In247 O255 2.266 . S
In247 O256 2.326 . S
In247 O258 2.294 . S
In247 O259 2.326 . S
O248 In247 2.294 1_556 S
O248 C257 1.240 . S
O249 In247 2.326 . S
O249 C257 1.252 1_554 S
C250 O253 1.252 . S
C250 O254 1.260 . S
C251 O258 1.240 . S
C251 O259 1.252 . S
C252 O255 1.252 . S
C252 O256 1.260 . S
O253 In247 2.266 . S
O253 C250 1.252 . S
O254 In247 2.326 . S
O254 C250 1.260 . S
O255 In247 2.266 . S
O255 C252 1.252 . S
O256 In247 2.326 . S
O256 C252 1.260 . S
C257 O248 1.240 . S
C257 O249 1.252 1_556 S
O258 In247 2.294 . S
O258 C251 1.240 . S
O259 In247 2.326 . S
O259 C251 1.252 . S
In260 O261 2.294 . S
In260 O262 2.326 . S
In260 O266 2.266 . S
In260 O267 2.326 . S
In260 O268 2.266 . S
In260 O269 2.326 . S
In260 O271 2.294 1_554 S
In260 O272 2.326 . S
O261 In260 2.294 . S
O261 C270 1.240 . S
O262 In260 2.326 . S
O262 C270 1.252 . S
C263 O266 1.252 . S
C263 O267 1.260 . S
C264 O271 1.240 . S
C264 O272 1.252 1_556 S
C265 O268 1.252 . S
C265 O269 1.260 . S
O266 In260 2.266 . S
O266 C263 1.252 . S
O267 In260 2.326 . S
O267 C263 1.260 . S
O268 In260 2.266 . S
O268 C265 1.252 . S
O269 In260 2.326 . S
O269 C265 1.260 . S
C270 O261 1.240 . S
C270 O262 1.252 . S
O271 In260 2.294 1_556 S
O271 C264 1.240 . S
O272 In260 2.326 . S
O272 C264 1.252 1_554 S
In273 O274 2.294 . S
In273 O275 2.326 . S
In273 O279 2.266 . S
In273 O280 2.326 . S
In273 O281 2.266 . S
In273 O282 2.326 . S
In273 O284 2.294 . S
In273 O285 2.326 . S
O274 In273 2.294 . S
O274 C283 1.240 . S
O275 In273 2.326 . S
O275 C283 1.252 . S
C276 O279 1.252 . S
C276 O280 1.260 . S
C277 O284 1.240 . S
C277 O285 1.252 . S
C278 O281 1.252 . S
C278 O282 1.260 . S
O279 In273 2.266 . S
O279 C276 1.252 . S
O280 In273 2.326 . S
O280 C276 1.260 . S
O281 In273 2.266 . S
O281 C278 1.252 . S
O282 In273 2.326 . S
O282 C278 1.260 . S
C283 O274 1.240 . S
C283 O275 1.252 . S
O284 In273 2.294 . S
O284 C277 1.240 . S
O285 In273 2.326 . S
O285 C277 1.252 . S
In286 O287 2.294 . S
In286 O288 2.326 . S
In286 O292 2.266 . S
In286 O293 2.326 . S
In286 O294 2.266 . S
In286 O295 2.326 . S
In286 O297 2.294 . S
In286 O298 2.326 . S
O287 In286 2.294 . S
O287 C296 1.240 . S
O288 In286 2.326 . S
O288 C296 1.252 . S
C289 O292 1.252 . S
C289 O293 1.260 . S
C290 O297 1.240 . S
C290 O298 1.252 . S
C291 O294 1.252 . S
C291 O295 1.260 . S
O292 In286 2.266 . S
O292 C289 1.252 . S
O293 In286 2.326 . S
O293 C289 1.260 . S
O294 In286 2.266 . S
O294 C291 1.252 . S
O295 In286 2.326 . S
O295 C291 1.260 . S
C296 O287 1.240 . S
C296 O288 1.252 . S
O297 In286 2.294 . S
O297 C290 1.240 . S
O298 In286 2.326 . S
O298 C290 1.252 . S
In299 O300 2.294 . S
In299 O301 2.326 . S
In299 O305 2.266 . S
In299 O306 2.326 . S
In299 O307 2.266 . S
In299 O308 2.326 . S
In299 O310 2.294 . S
In299 O311 2.326 . S
O300 In299 2.294 . S
O300 C309 1.240 . S
O301 In299 2.326 . S
O301 C309 1.252 . S
C302 O305 1.252 . S
C302 O306 1.260 . S
C303 O310 1.240 . S
C303 O311 1.252 . S
C304 O307 1.252 . S
C304 O308 1.260 . S
O305 In299 2.266 . S
O305 C302 1.252 . S
O306 In299 2.326 . S
O306 C302 1.260 . S
O307 In299 2.266 . S
O307 C304 1.252 . S
O308 In299 2.326 . S
O308 C304 1.260 . S
C309 O300 1.240 . S
C309 O301 1.252 . S
O310 In299 2.294 . S
O310 C303 1.240 . S
O311 In299 2.326 . S
O311 C303 1.252 . S
In312 O313 2.294 . S
In312 O314 2.326 . S
In312 O318 2.266 . S
In312 O319 2.326 . S
In312 O320 2.266 . S
In312 O321 2.326 . S
In312 O323 2.294 1_556 S
In312 O324 2.326 . S
O313 In312 2.294 . S
O313 C322 1.240 . S
O314 In312 2.326 . S
O314 C322 1.252 . S
C315 O318 1.252 . S
C315 O319 1.260 . S
C316 O323 1.240 . S
C316 O324 1.252 1_554 S
C317 O320 1.252 . S
C317 O321 1.260 . S
O318 In312 2.266 . S
O318 C315 1.252 . S
O319 In312 2.326 . S
O319 C315 1.260 . S
O320 In312 2.266 . S
O320 C317 1.252 . S
O321 In312 2.326 . S
O321 C317 1.260 . S
C322 O313 1.240 . S
C322 O314 1.252 . S
O323 In312 2.294 1_554 S
O323 C316 1.240 . S
O324 In312 2.326 . S
O324 C316 1.252 1_556 S
In325 O326 2.294 1_556 S
In325 O327 2.326 . S
In325 O331 2.266 . S
In325 O332 2.326 . S
In325 O333 2.266 . S
In325 O334 2.326 . S
In325 O336 2.294 . S
In325 O337 2.326 . S
O326 In325 2.294 1_554 S
O326 C335 1.240 . S
O327 In325 2.326 . S
O327 C335 1.252 1_556 S
C328 O331 1.252 . S
C328 O332 1.260 . S
C329 O336 1.240 . S
C329 O337 1.252 . S
C330 O333 1.252 . S
C330 O334 1.260 . S
O331 In325 2.266 . S
O331 C328 1.252 . S
O332 In325 2.326 . S
O332 C328 1.260 . S
O333 In325 2.266 . S
O333 C330 1.252 . S
O334 In325 2.326 . S
O334 C330 1.260 . S
C335 O326 1.240 . S
C335 O327 1.252 1_554 S
O336 In325 2.294 . S
O336 C329 1.240 . S
O337 In325 2.326 . S
O337 C329 1.252 . S
In338 O339 2.294 1_556 S
In338 O340 2.326 . S
In338 O344 2.266 . S
In338 O345 2.326 . S
In338 O346 2.266 . S
In338 O347 2.326 . S
In338 O349 2.294 . S
In338 O350 2.326 . S
O339 In338 2.294 1_554 S
O339 C348 1.240 . S
O340 In338 2.326 . S
O340 C348 1.252 1_556 S
C341 O344 1.252 . S
C341 O345 1.260 . S
C342 O349 1.240 . S
C342 O350 1.252 . S
C343 O346 1.252 . S
C343 O347 1.260 . S
O344 In338 2.266 . S
O344 C341 1.252 . S
O345 In338 2.326 . S
O345 C341 1.260 . S
O346 In338 2.266 . S
O346 C343 1.252 . S
O347 In338 2.326 . S
O347 C343 1.260 . S
C348 O339 1.240 . S
C348 O340 1.252 1_554 S
O349 In338 2.294 . S
O349 C342 1.240 . S
O350 In338 2.326 . S
O350 C342 1.252 . S
In351 O352 2.294 . S
In351 O353 2.326 . S
In351 O357 2.266 . S
In351 O358 2.326 . S
In351 O359 2.266 . S
In351 O360 2.326 . S
In351 O362 2.294 . S
In351 O363 2.326 . S
O352 In351 2.294 . S
O352 C361 1.240 . S
O353 In351 2.326 . S
O353 C361 1.252 . S
C354 O357 1.252 . S
C354 O358 1.260 . S
C355 O362 1.240 . S
C355 O363 1.252 . S
C356 O359 1.252 . S
C356 O360 1.260 . S
O357 In351 2.266 . S
O357 C354 1.252 . S
O358 In351 2.326 . S
O358 C354 1.260 . S
O359 In351 2.266 . S
O359 C356 1.252 . S
O360 In351 2.326 . S
O360 C356 1.260 . S
C361 O352 1.240 . S
C361 O353 1.252 . S
O362 In351 2.294 . S
O362 C355 1.240 . S
O363 In351 2.326 . S
O363 C355 1.252 . S
In364 O365 2.294 . S
In364 O366 2.326 . S
In364 O370 2.266 . S
In364 O371 2.326 . S
In364 O372 2.266 . S
In364 O373 2.326 . S
In364 O375 2.294 . S
In364 O376 2.326 . S
O365 In364 2.294 . S
O365 C374 1.240 . S
O366 In364 2.326 . S
O366 C374 1.252 . S
C367 O370 1.252 . S
C367 O371 1.260 . S
C368 O375 1.240 . S
C368 O376 1.252 . S
C369 O372 1.252 . S
C369 O373 1.260 . S
O370 In364 2.266 . S
O370 C367 1.252 . S
O371 In364 2.326 . S
O371 C367 1.260 . S
O372 In364 2.266 . S
O372 C369 1.252 . S
O373 In364 2.326 . S
O373 C369 1.260 . S
C374 O365 1.240 . S
C374 O366 1.252 . S
O375 In364 2.294 . S
O375 C368 1.240 . S
O376 In364 2.326 . S
O376 C368 1.252 . S
In377 O378 2.294 . S
In377 O379 2.326 . S
In377 O383 2.266 . S
In377 O384 2.326 . S
In377 O385 2.266 . S
In377 O386 2.326 . S
In377 O388 2.294 . S
In377 O389 2.326 . S
O378 In377 2.294 . S
O378 C387 1.240 . S
O379 In377 2.326 . S
O379 C387 1.252 . S
C380 O383 1.252 . S
C380 O384 1.260 . S
C381 O388 1.240 . S
C381 O389 1.252 . S
C382 O385 1.252 . S
C382 O386 1.260 . S
O383 In377 2.266 . S
O383 C380 1.252 . S
O384 In377 2.326 . S
O384 C380 1.260 . S
O385 In377 2.266 . S
O385 C382 1.252 . S
O386 In377 2.326 . S
O386 C382 1.260 . S
C387 O378 1.240 . S
C387 O379 1.252 . S
O388 In377 2.294 . S
O388 C381 1.240 . S
O389 In377 2.326 . S
O389 C381 1.252 . S
In390 O391 2.294 . S
In390 O392 2.326 . S
In390 O396 2.266 . S
In390 O397 2.326 . S
In390 O398 2.266 . S
In390 O399 2.326 . S
In390 O401 2.294 . S
In390 O402 2.326 . S
O391 In390 2.294 . S
O391 C400 1.240 . S
O392 In390 2.326 . S
O392 C400 1.252 . S
C393 O396 1.252 . S
C393 O397 1.260 . S
C394 O401 1.240 . S
C394 O402 1.252 . S
C395 O398 1.252 . S
C395 O399 1.260 . S
O396 In390 2.266 . S
O396 C393 1.252 . S
O397 In390 2.326 . S
O397 C393 1.260 . S
O398 In390 2.266 . S
O398 C395 1.252 . S
O399 In390 2.326 . S
O399 C395 1.260 . S
C400 O391 1.240 . S
C400 O392 1.252 . S
O401 In390 2.294 . S
O401 C394 1.240 . S
O402 In390 2.326 . S
O402 C394 1.252 . S
In403 O404 2.294 . S
In403 O405 2.326 . S
In403 O409 2.266 . S
In403 O410 2.326 . S
In403 O411 2.266 . S
In403 O412 2.326 . S
In403 O414 2.294 . S
In403 O415 2.326 . S
O404 In403 2.294 . S
O404 C413 1.240 . S
O405 In403 2.326 . S
O405 C413 1.252 . S
C406 O409 1.252 . S
C406 O410 1.260 . S
C407 O414 1.240 . S
C407 O415 1.252 . S
C408 O411 1.252 . S
C408 O412 1.260 . S
O409 In403 2.266 . S
O409 C406 1.252 . S
O410 In403 2.326 . S
O410 C406 1.260 . S
O411 In403 2.266 . S
O411 C408 1.252 . S
O412 In403 2.326 . S
O412 C408 1.260 . S
C413 O404 1.240 . S
C413 O405 1.252 . S
O414 In403 2.294 . S
O414 C407 1.240 . S
O415 In403 2.326 . S
O415 C407 1.252 . S
In416 O417 2.294 . S
In416 O418 2.326 . S
In416 O422 2.266 . S
In416 O423 2.326 . S
In416 O424 2.266 . S
In416 O425 2.326 . S
In416 O427 2.294 . S
In416 O428 2.326 . S
O417 In416 2.294 . S
O417 C426 1.240 . S
O418 In416 2.326 . S
O418 C426 1.252 . S
C419 O422 1.252 . S
C419 O423 1.260 . S
C420 O427 1.240 . S
C420 O428 1.252 . S
C421 O424 1.252 . S
C421 O425 1.260 . S
O422 In416 2.266 . S
O422 C419 1.252 . S
O423 In416 2.326 . S
O423 C419 1.260 . S
O424 In416 2.266 . S
O424 C421 1.252 . S
O425 In416 2.326 . S
O425 C421 1.260 . S
C426 O417 1.240 . S
C426 O418 1.252 . S
O427 In416 2.294 . S
O427 C420 1.240 . S
O428 In416 2.326 . S
O428 C420 1.252 . S
In429 O430 2.294 1_556 S
In429 O431 2.326 . S
In429 O435 2.266 . S
In429 O436 2.326 . S
In429 O437 2.266 . S
In429 O438 2.326 . S
In429 O440 2.294 . S
In429 O441 2.326 . S
O430 In429 2.294 1_554 S
O430 C439 1.240 . S
O431 In429 2.326 . S
O431 C439 1.252 1_556 S
C432 O435 1.252 . S
C432 O436 1.260 . S
C433 O440 1.240 . S
C433 O441 1.252 . S
C434 O437 1.252 . S
C434 O438 1.260 . S
O435 In429 2.266 . S
O435 C432 1.252 . S
O436 In429 2.326 . S
O436 C432 1.260 . S
O437 In429 2.266 . S
O437 C434 1.252 . S
O438 In429 2.326 . S
O438 C434 1.260 . S
C439 O430 1.240 . S
C439 O431 1.252 1_554 S
O440 In429 2.294 . S
O440 C433 1.240 . S
O441 In429 2.326 . S
O441 C433 1.252 . S
In442 O443 2.294 . S
In442 O444 2.326 . S
In442 O448 2.266 . S
In442 O449 2.326 . S
In442 O450 2.266 . S
In442 O451 2.326 . S
In442 O453 2.294 1_556 S
In442 O454 2.326 . S
O443 In442 2.294 . S
O443 C452 1.240 . S
O444 In442 2.326 . S
O444 C452 1.252 . S
C445 O448 1.252 . S
C445 O449 1.260 . S
C446 O453 1.240 . S
C446 O454 1.252 1_554 S
C447 O450 1.252 . S
C447 O451 1.260 . S
O448 In442 2.266 . S
O448 C445 1.252 . S
O449 In442 2.326 . S
O449 C445 1.260 . S
O450 In442 2.266 . S
O450 C447 1.252 . S
O451 In442 2.326 . S
O451 C447 1.260 . S
C452 O443 1.240 . S
C452 O444 1.252 . S
O453 In442 2.294 1_554 S
O453 C446 1.240 . S
O454 In442 2.326 . S
O454 C446 1.252 1_556 S
In455 O456 2.294 1_556 S
In455 O457 2.326 . S
In455 O461 2.266 . S
In455 O462 2.326 . S
In455 O463 2.266 . S
In455 O464 2.326 . S
In455 O466 2.294 . S
In455 O467 2.326 . S
O456 In455 2.294 1_554 S
O456 C465 1.240 . S
O457 In455 2.326 . S
O457 C465 1.252 1_556 S
C458 O461 1.252 . S
C458 O462 1.260 . S
C459 O466 1.240 . S
C459 O467 1.252 . S
C460 O463 1.252 . S
C460 O464 1.260 . S
O461 In455 2.266 . S
O461 C458 1.252 . S
O462 In455 2.326 . S
O462 C458 1.260 . S
O463 In455 2.266 . S
O463 C460 1.252 . S
O464 In455 2.326 . S
O464 C460 1.260 . S
C465 O456 1.240 . S
C465 O457 1.252 1_554 S
O466 In455 2.294 . S
O466 C459 1.240 . S
O467 In455 2.326 . S
O467 C459 1.252 . S
C468 C469 1.366 . S
C468 C470 1.423 1_565 S
C468 H472 0.943 1_565 S
C469 C468 1.366 . S
C469 C478 1.429 . S
C470 C468 1.423 1_545 S
C470 C471 1.363 . S
C470 H473 0.929 . S
C471 C470 1.363 . S
C471 C477 1.406 1_545 S
H472 C468 0.943 1_545 S
H473 C470 0.929 . S
S474 N475 1.613 . S
S474 N476 1.610 . S
N475 S474 1.613 . S
N475 C478 1.350 . S
N476 S474 1.610 . S
N476 C477 1.345 . S
C477 C471 1.406 1_565 S
C477 N476 1.345 . S
C477 C478 1.470 . S
C478 C469 1.429 . S
C478 N475 1.350 . S
C478 C477 1.470 . S
C479 C480 1.369 1_655 S
C479 C481 1.419 . S
C479 H483 0.930 . S
C480 C479 1.369 1_455 S
C480 C489 1.429 . S
C481 C479 1.419 . S
C481 C482 1.363 . S
C481 H484 0.929 . S
C482 C481 1.363 . S
C482 C488 1.428 1_655 S
H483 C479 0.930 . S
H484 C481 0.929 . S
S485 N486 1.613 . S
S485 N487 1.610 . S
N486 S485 1.613 . S
N486 C489 1.350 . S
N487 S485 1.610 . S
N487 C488 1.351 . S
C488 C482 1.428 1_455 S
C488 N487 1.351 . S
C488 C489 1.434 . S
C489 C480 1.429 . S
C489 N486 1.350 . S
C489 C488 1.434 . S
C490 C491 1.369 . S
C490 C492 1.419 . S
C490 H494 0.930 . S
C491 C490 1.369 . S
C491 C500 1.429 . S
C492 C490 1.419 . S
C492 C493 1.363 . S
C492 H495 0.929 . S
C493 C492 1.363 . S
C493 C499 1.428 . S
H494 C490 0.930 . S
H495 C492 0.929 . S
S496 N497 1.613 . S
S496 N498 1.610 . S
N497 S496 1.613 . S
N497 C500 1.350 . S
N498 S496 1.610 . S
N498 C499 1.351 . S
C499 C493 1.428 . S
C499 N498 1.351 . S
C499 C500 1.434 . S
C500 C491 1.429 . S
C500 N497 1.350 . S
C500 C499 1.434 . S
C501 C502 1.369 . S
C501 C503 1.419 1_565 S
C501 H505 0.930 . S
C502 C501 1.369 . S
C502 C511 1.429 . S
C503 C501 1.419 1_545 S
C503 C504 1.363 . S
C503 H506 0.929 . S
C504 C503 1.363 . S
C504 C510 1.428 . S
H505 C501 0.930 . S
H506 C503 0.929 . S
S507 N508 1.613 1_545 S
S507 N509 1.610 . S
N508 S507 1.613 1_565 S
N508 C511 1.350 . S
N509 S507 1.610 . S
N509 C510 1.351 . S
C510 C504 1.428 . S
C510 N509 1.351 . S
C510 C511 1.434 1_545 S
C511 C502 1.429 . S
C511 N508 1.350 . S
C511 C510 1.434 1_565 S
C512 C513 1.369 . S
C512 C514 1.419 1_455 S
C512 H516 0.930 . S
C513 C512 1.369 . S
C513 C522 1.429 . S
C514 C512 1.419 1_655 S
C514 C515 1.363 . S
C514 H517 0.929 . S
C515 C514 1.363 . S
C515 C521 1.428 . S
H516 C512 0.930 . S
H517 C514 0.929 . S
S518 N519 1.613 1_655 S
S518 N520 1.610 . S
N519 S518 1.613 1_455 S
N519 C522 1.350 . S
N520 S518 1.610 . S
N520 C521 1.351 . S
C521 C515 1.428 . S
C521 N520 1.351 . S
C521 C522 1.434 1_655 S
C522 C513 1.429 . S
C522 N519 1.350 . S
C522 C521 1.434 1_455 S
C523 C524 1.369 . S
C523 C525 1.419 . S
C523 H527 0.930 . S
C524 C523 1.369 . S
C524 C533 1.429 . S
C525 C523 1.419 . S
C525 C526 1.363 . S
C525 H528 0.929 . S
C526 C525 1.363 . S
C526 C532 1.428 . S
H527 C523 0.930 . S
H528 C525 0.929 . S
S529 N530 1.613 . S
S529 N531 1.610 . S
N530 S529 1.613 . S
N530 C533 1.350 . S
N531 S529 1.610 . S
N531 C532 1.351 . S
C532 C526 1.428 . S
C532 N531 1.351 . S
C532 C533 1.434 . S
C533 C524 1.429 . S
C533 N530 1.350 . S
C533 C532 1.434 . S
C534 C535 1.369 . S
C534 C536 1.419 . S
C534 H538 0.930 . S
C535 C534 1.369 . S
C535 C544 1.429 . S
C536 C534 1.419 . S
C536 C537 1.363 . S
C536 H539 0.929 . S
C537 C536 1.363 . S
C537 C543 1.428 . S
H538 C534 0.930 . S
H539 C536 0.929 . S
S540 N541 1.613 . S
S540 N542 1.610 . S
N541 S540 1.613 . S
N541 C544 1.350 . S
N542 S540 1.610 . S
N542 C543 1.351 . S
C543 C537 1.428 . S
C543 N542 1.351 . S
C543 C544 1.434 . S
C544 C535 1.429 . S
C544 N541 1.350 . S
C544 C543 1.434 . S
C545 C546 1.369 . S
C545 C547 1.419 . S
C545 H549 0.930 . S
C546 C545 1.369 . S
C546 C555 1.429 . S
C547 C545 1.419 . S
C547 C548 1.363 . S
C547 H550 0.929 . S
C548 C547 1.363 . S
C548 C554 1.428 . S
H549 C545 0.930 . S
H550 C547 0.929 . S
S551 N552 1.613 . S
S551 N553 1.610 . S
N552 S551 1.613 . S
N552 C555 1.350 . S
N553 S551 1.610 . S
N553 C554 1.351 . S
C554 C548 1.428 . S
C554 N553 1.351 . S
C554 C555 1.434 . S
C555 C546 1.429 . S
C555 N552 1.350 . S
C555 C554 1.434 . S
C556 C557 1.369 . S
C556 C558 1.419 . S
C556 H560 0.930 . S
C557 C556 1.369 . S
C557 C566 1.429 . S
C558 C556 1.419 . S
C558 C559 1.363 . S
C558 H561 0.929 . S
C559 C558 1.363 . S
C559 C565 1.428 . S
H560 C556 0.930 . S
H561 C558 0.929 . S
S562 N563 1.613 . S
S562 N564 1.610 . S
N563 S562 1.613 . S
N563 C566 1.350 . S
N564 S562 1.610 . S
N564 C565 1.351 . S
C565 C559 1.428 . S
C565 N564 1.351 . S
C565 C566 1.434 . S
C566 C557 1.429 . S
C566 N563 1.350 . S
C566 C565 1.434 . S
C567 C568 1.369 . S
C567 C569 1.419 . S
C567 H571 0.930 . S
C568 C567 1.369 . S
C568 C577 1.429 . S
C569 C567 1.419 . S
C569 C570 1.363 . S
C569 H572 0.929 . S
C570 C569 1.363 . S
C570 C576 1.428 . S
H571 C567 0.930 . S
H572 C569 0.929 . S
S573 N574 1.613 . S
S573 N575 1.610 . S
N574 S573 1.613 . S
N574 C577 1.350 . S
N575 S573 1.610 . S
N575 C576 1.351 . S
C576 C570 1.428 . S
C576 N575 1.351 . S
C576 C577 1.434 . S
C577 C568 1.429 . S
C577 N574 1.350 . S
C577 C576 1.434 . S
C578 C579 1.369 . S
C578 C580 1.419 . S
C578 H582 0.930 . S
C579 C578 1.369 . S
C579 C588 1.429 . S
C580 C578 1.419 . S
C580 C581 1.363 . S
C580 H583 0.929 . S
C581 C580 1.363 . S
C581 C587 1.428 . S
H582 C578 0.930 . S
H583 C580 0.929 . S
S584 N585 1.613 . S
S584 N586 1.610 . S
N585 S584 1.613 . S
N585 C588 1.350 . S
N586 S584 1.610 . S
N586 C587 1.351 . S
C587 C581 1.428 . S
C587 N586 1.351 . S
C587 C588 1.434 . S
C588 C579 1.429 . S
C588 N585 1.350 . S
C588 C587 1.434 . S
C589 C590 1.369 . S
C589 C591 1.419 . S
C589 H593 0.930 . S
C590 C589 1.369 . S
C590 C599 1.429 . S
C591 C589 1.419 . S
C591 C592 1.363 . S
C591 H594 0.929 . S
C592 C591 1.363 . S
C592 C598 1.428 . S
H593 C589 0.930 . S
H594 C591 0.929 . S
S595 N596 1.613 . S
S595 N597 1.610 . S
N596 S595 1.613 . S
N596 C599 1.350 . S
N597 S595 1.610 . S
N597 C598 1.351 . S
C598 C592 1.428 . S
C598 N597 1.351 . S
C598 C599 1.434 . S
C599 C590 1.429 . S
C599 N596 1.350 . S
C599 C598 1.434 . S
C600 C601 1.369 . S
C600 C602 1.419 . S
C600 H604 0.930 . S
C601 C600 1.369 . S
C601 C610 1.429 . S
C602 C600 1.419 . S
C602 C603 1.363 . S
C602 H605 0.929 . S
C603 C602 1.363 . S
C603 C609 1.428 . S
H604 C600 0.930 . S
H605 C602 0.929 . S
S606 N607 1.613 . S
S606 N608 1.610 . S
N607 S606 1.613 . S
N607 C610 1.350 . S
N608 S606 1.610 . S
N608 C609 1.351 . S
C609 C603 1.428 . S
C609 N608 1.351 . S
C609 C610 1.434 . S
C610 C601 1.429 . S
C610 N607 1.350 . S
C610 C609 1.434 . S
C611 C612 1.369 . S
C611 C613 1.419 . S
C611 H615 0.930 . S
C612 C611 1.369 . S
C612 C621 1.429 . S
C613 C611 1.419 . S
C613 C614 1.363 . S
C613 H616 0.929 . S
C614 C613 1.363 . S
C614 C620 1.428 . S
H615 C611 0.930 . S
H616 C613 0.929 . S
S617 N618 1.613 . S
S617 N619 1.610 . S
N618 S617 1.613 . S
N618 C621 1.350 . S
N619 S617 1.610 . S
N619 C620 1.351 . S
C620 C614 1.428 . S
C620 N619 1.351 . S
C620 C621 1.434 . S
C621 C612 1.429 . S
C621 N618 1.350 . S
C621 C620 1.434 . S
C622 C623 1.369 . S
C622 C624 1.419 . S
C622 H626 0.930 . S
C623 C622 1.369 . S
C623 C632 1.429 . S
C624 C622 1.419 . S
C624 C625 1.363 . S
C624 H627 0.929 . S
C625 C624 1.363 . S
C625 C631 1.428 . S
H626 C622 0.930 . S
H627 C624 0.929 . S
S628 N629 1.613 . S
S628 N630 1.610 . S
N629 S628 1.613 . S
N629 C632 1.350 . S
N630 S628 1.610 . S
N630 C631 1.351 . S
C631 C625 1.428 . S
C631 N630 1.351 . S
C631 C632 1.434 . S
C632 C623 1.429 . S
C632 N629 1.350 . S
C632 C631 1.434 . S
C633 C634 1.369 . S
C633 C635 1.419 . S
C633 H637 0.930 . S
C634 C633 1.369 . S
C634 C643 1.429 . S
C635 C633 1.419 . S
C635 C636 1.363 . S
C635 H638 0.929 . S
C636 C635 1.363 . S
C636 C642 1.428 . S
H637 C633 0.930 . S
H638 C635 0.929 . S
S639 N640 1.613 . S
S639 N641 1.610 . S
N640 S639 1.613 . S
N640 C643 1.350 . S
N641 S639 1.610 . S
N641 C642 1.351 . S
C642 C636 1.428 . S
C642 N641 1.351 . S
C642 C643 1.434 . S
C643 C634 1.429 . S
C643 N640 1.350 . S
C643 C642 1.434 . S
C644 C645 1.369 . S
C644 C646 1.419 . S
C644 H648 0.930 . S
C645 C644 1.369 . S
C645 C654 1.429 . S
C646 C644 1.419 . S
C646 C647 1.363 . S
C646 H649 0.929 . S
C647 C646 1.363 . S
C647 C653 1.428 . S
H648 C644 0.930 . S
H649 C646 0.929 . S
S650 N651 1.613 . S
S650 N652 1.610 . S
N651 S650 1.613 . S
N651 C654 1.350 . S
N652 S650 1.610 . S
N652 C653 1.351 . S
C653 C647 1.428 . S
C653 N652 1.351 . S
C653 C654 1.434 . S
C654 C645 1.429 . S
C654 N651 1.350 . S
C654 C653 1.434 . S
C655 C656 1.369 . S
C655 C657 1.419 . S
C655 H659 0.930 . S
C656 C655 1.369 . S
C656 C665 1.429 . S
C657 C655 1.419 . S
C657 C658 1.363 . S
C657 H660 0.929 . S
C658 C657 1.363 . S
C658 C664 1.428 . S
H659 C655 0.930 . S
H660 C657 0.929 . S
S661 N662 1.613 1_556 S
S661 N663 1.610 . S
N662 S661 1.613 1_554 S
N662 C665 1.350 . S
N663 S661 1.610 . S
N663 C664 1.351 1_556 S
C664 C658 1.428 . S
C664 N663 1.351 1_554 S
C664 C665 1.434 . S
C665 C656 1.429 . S
C665 N662 1.350 . S
C665 C664 1.434 . S
C666 C667 1.369 . S
C666 C668 1.419 1_566 S
C666 H670 0.930 . S
C667 C666 1.369 . S
C667 C676 1.429 . S
C668 C666 1.419 1_544 S
C668 C669 1.363 . S
C668 H671 0.929 . S
C669 C668 1.363 . S
C669 C675 1.428 . S
H670 C666 0.930 . S
H671 C668 0.929 . S
S672 N673 1.618 1_545 S
S672 N674 1.612 1_556 S
N673 S672 1.618 1_565 S
N673 C676 1.350 . S
N674 S672 1.612 1_554 S
N674 C675 1.351 . S
C675 C669 1.428 . S
C675 N674 1.351 . S
C675 C676 1.434 1_544 S
C676 C667 1.429 . S
C676 N673 1.350 . S
C676 C675 1.434 1_566 S
C677 C678 1.369 . S
C677 C679 1.419 1_654 S
C677 H681 0.930 . S
C678 C677 1.369 . S
C678 C687 1.429 . S
C679 C677 1.419 1_456 S
C679 C680 1.363 . S
C679 H682 0.929 . S
C680 C679 1.363 . S
C680 C686 1.428 . S
H681 C677 0.930 . S
H682 C679 0.929 . S
S683 N684 1.613 1_556 S
S683 N685 1.561 1_655 S
N684 S683 1.613 1_554 S
N684 C687 1.350 . S
N685 S683 1.561 1_455 S
N685 C686 1.377 . S
C686 C680 1.428 . S
C686 N685 1.377 . S
C686 C687 1.434 1_456 S
C687 C678 1.429 . S
C687 N684 1.350 . S
C687 C686 1.434 1_654 S
C688 C689 1.369 . S
C688 C690 1.419 1_556 S
C688 H692 0.930 . S
C689 C688 1.369 . S
C689 C698 1.429 . S
C690 C688 1.419 1_554 S
C690 C691 1.363 . S
C690 H693 0.929 . S
C691 C690 1.363 . S
C691 C697 1.428 . S
H692 C688 0.930 . S
H693 C690 0.929 . S
S694 N695 1.613 1_554 S
S694 N696 1.610 . S
N695 S694 1.613 1_556 S
N695 C698 1.350 . S
N696 S694 1.610 . S
N696 C697 1.351 . S
C697 C691 1.428 . S
C697 N696 1.351 . S
C697 C698 1.434 1_554 S
C698 C689 1.429 . S
C698 N695 1.350 . S
C698 C697 1.434 1_556 S
C699 C700 1.369 1_554 S
C699 C701 1.419 . S
C699 H703 0.930 . S
C700 C699 1.369 1_556 S
C700 C709 1.429 1_565 S
C701 C699 1.419 . S
C701 C702 1.363 1_565 S
C701 H704 0.929 . S
C702 C701 1.363 1_545 S
C702 C708 1.428 1_554 S
H703 C699 0.930 . S
H704 C701 0.929 . S
S705 N706 1.613 . S
S705 N707 1.610 . S
N706 S705 1.613 . S
N706 C709 1.350 . S
N707 S705 1.610 . S
N707 C708 1.351 . S
C708 C702 1.428 1_556 S
C708 N707 1.351 . S
C708 C709 1.434 . S
C709 C700 1.429 1_545 S
C709 N706 1.350 . S
C709 C708 1.434 . S
C710 C711 1.369 . S
C710 C712 1.392 1_456 S
C710 H714 0.930 . S
C711 C710 1.369 . S
C711 C720 1.466 . S
C712 C710 1.392 1_654 S
C712 C713 1.409 . S
C712 H715 0.924 . S
C713 C712 1.409 . S
C713 C719 1.428 . S
H714 C710 0.930 . S
H715 C712 0.924 . S
S716 N717 1.607 . S
S716 N718 1.610 1_556 S
N717 S716 1.607 . S
N717 C720 1.335 1_655 S
N718 S716 1.610 1_554 S
N718 C719 1.351 . S
C719 C713 1.428 . S
C719 N718 1.351 . S
C719 C720 1.412 1_654 S
C720 C711 1.466 . S
C720 N717 1.335 1_455 S
C720 C719 1.412 1_456 S
C721 C722 1.369 1_556 S
C721 C723 1.419 . S
C721 H725 0.930 . S
C722 C721 1.369 1_554 S
C722 C731 1.429 . S
C723 C721 1.419 . S
C723 C724 1.363 . S
C723 H726 0.929 . S
C724 C723 1.363 . S
C724 C730 1.428 1_556 S
H725 C721 0.930 . S
H726 C723 0.929 . S
S727 N728 1.613 . S
S727 N729 1.610 . S
N728 S727 1.613 . S
N728 C731 1.350 . S
N729 S727 1.610 . S
N729 C730 1.351 . S
C730 C724 1.428 1_554 S
C730 N729 1.351 . S
C730 C731 1.434 . S
C731 C722 1.429 . S
C731 N728 1.350 . S
C731 C730 1.434 . S
C732 C733 1.369 . S
C732 C734 1.419 . S
C732 H736 0.930 . S
C733 C732 1.369 . S
C733 C742 1.429 . S
C734 C732 1.419 . S
C734 C735 1.363 . S
C734 H737 0.929 . S
C735 C734 1.363 . S
C735 C741 1.428 . S
H736 C732 0.930 . S
H737 C734 0.929 . S
S738 N739 1.613 . S
S738 N740 1.610 . S
N739 S738 1.613 . S
N739 C742 1.350 . S
N740 S738 1.610 . S
N740 C741 1.351 . S
C741 C735 1.428 . S
C741 N740 1.351 . S
C741 C742 1.434 . S
C742 C733 1.429 . S
C742 N739 1.350 . S
C742 C741 1.434 . S
C743 C744 1.369 . S
C743 C745 1.419 . S
C743 H747 0.930 . S
C744 C743 1.369 . S
C744 C753 1.429 . S
C745 C743 1.419 . S
C745 C746 1.363 . S
C745 H748 0.929 . S
C746 C745 1.363 . S
C746 C752 1.428 . S
H747 C743 0.930 . S
H748 C745 0.929 . S
S749 N750 1.613 . S
S749 N751 1.610 . S
N750 S749 1.613 . S
N750 C753 1.350 . S
N751 S749 1.610 . S
N751 C752 1.351 . S
C752 C746 1.428 . S
C752 N751 1.351 . S
C752 C753 1.434 . S
C753 C744 1.429 . S
C753 N750 1.350 . S
C753 C752 1.434 . S
C754 C755 1.369 . S
C754 C756 1.419 . S
C754 H758 0.930 . S
C755 C754 1.369 . S
C755 C764 1.429 . S
C756 C754 1.419 . S
C756 C757 1.363 . S
C756 H759 0.929 . S
C757 C756 1.363 . S
C757 C763 1.428 . S
H758 C754 0.930 . S
H759 C756 0.929 . S
S760 N761 1.613 . S
S760 N762 1.610 . S
N761 S760 1.613 . S
N761 C764 1.350 . S
N762 S760 1.610 . S
N762 C763 1.351 . S
C763 C757 1.428 . S
C763 N762 1.351 . S
C763 C764 1.434 . S
C764 C755 1.429 . S
C764 N761 1.350 . S
C764 C763 1.434 . S
C765 C766 1.369 . S
C765 C767 1.419 . S
C765 H769 0.930 . S
C766 C765 1.369 . S
C766 C775 1.429 . S
C767 C765 1.419 . S
C767 C768 1.363 . S
C767 H770 0.929 . S
C768 C767 1.363 . S
C768 C774 1.428 . S
H769 C765 0.930 . S
H770 C767 0.929 . S
S771 N772 1.613 . S
S771 N773 1.610 . S
N772 S771 1.613 . S
N772 C775 1.350 . S
N773 S771 1.610 . S
N773 C774 1.351 . S
C774 C768 1.428 . S
C774 N773 1.351 . S
C774 C775 1.434 . S
C775 C766 1.429 . S
C775 N772 1.350 . S
C775 C774 1.434 . S
C776 C777 1.369 . S
C776 C778 1.419 . S
C776 H780 0.930 . S
C777 C776 1.369 . S
C777 C786 1.429 . S
C778 C776 1.419 . S
C778 C779 1.363 . S
C778 H781 0.929 . S
C779 C778 1.363 . S
C779 C785 1.428 . S
H780 C776 0.930 . S
H781 C778 0.929 . S
S782 N783 1.613 . S
S782 N784 1.610 . S
N783 S782 1.613 . S
N783 C786 1.350 . S
N784 S782 1.610 . S
N784 C785 1.351 . S
C785 C779 1.428 . S
C785 N784 1.351 . S
C785 C786 1.434 . S
C786 C777 1.429 . S
C786 N783 1.350 . S
C786 C785 1.434 . S
C787 C788 1.369 . S
C787 C789 1.419 . S
C787 H791 0.930 . S
C788 C787 1.369 . S
C788 C797 1.429 . S
C789 C787 1.419 . S
C789 C790 1.363 . S
C789 H792 0.929 . S
C790 C789 1.363 . S
C790 C796 1.428 . S
H791 C787 0.930 . S
H792 C789 0.929 . S
S793 N794 1.613 . S
S793 N795 1.610 . S
N794 S793 1.613 . S
N794 C797 1.350 . S
N795 S793 1.610 . S
N795 C796 1.351 . S
C796 C790 1.428 . S
C796 N795 1.351 . S
C796 C797 1.434 . S
C797 C788 1.429 . S
C797 N794 1.350 . S
C797 C796 1.434 . S
C798 C799 1.369 . S
C798 C800 1.419 . S
C798 H802 0.930 . S
C799 C798 1.369 . S
C799 C808 1.429 . S
C800 C798 1.419 . S
C800 C801 1.363 . S
C800 H803 0.929 . S
C801 C800 1.363 . S
C801 C807 1.428 . S
H802 C798 0.930 . S
H803 C800 0.929 . S
S804 N805 1.613 . S
S804 N806 1.610 . S
N805 S804 1.613 . S
N805 C808 1.350 . S
N806 S804 1.610 . S
N806 C807 1.351 . S
C807 C801 1.428 . S
C807 N806 1.351 . S
C807 C808 1.434 . S
C808 C799 1.429 . S
C808 N805 1.350 . S
C808 C807 1.434 . S
C809 C810 1.369 . S
C809 C811 1.419 . S
C809 H813 0.930 . S
C810 C809 1.369 . S
C810 C819 1.429 . S
C811 C809 1.419 . S
C811 C812 1.363 . S
C811 H814 0.929 . S
C812 C811 1.363 . S
C812 C818 1.428 . S
H813 C809 0.930 . S
H814 C811 0.929 . S
S815 N816 1.613 . S
S815 N817 1.610 . S
N816 S815 1.613 . S
N816 C819 1.350 . S
N817 S815 1.610 . S
N817 C818 1.351 . S
C818 C812 1.428 . S
C818 N817 1.351 . S
C818 C819 1.434 . S
C819 C810 1.429 . S
C819 N816 1.350 . S
C819 C818 1.434 . S
C820 C821 1.369 . S
C820 C822 1.419 . S
C820 H824 0.930 . S
C821 C820 1.369 . S
C821 C830 1.429 . S
C822 C820 1.419 . S
C822 C823 1.363 . S
C822 H825 0.929 . S
C823 C822 1.363 . S
C823 C829 1.428 . S
H824 C820 0.930 . S
H825 C822 0.929 . S
S826 N827 1.613 . S
S826 N828 1.610 . S
N827 S826 1.613 . S
N827 C830 1.350 . S
N828 S826 1.610 . S
N828 C829 1.351 . S
C829 C823 1.428 . S
C829 N828 1.351 . S
C829 C830 1.434 . S
C830 C821 1.429 . S
C830 N827 1.350 . S
C830 C829 1.434 . S
C831 C832 1.369 . S
C831 C833 1.419 . S
C831 H835 0.930 . S
C832 C831 1.369 . S
C832 C841 1.429 . S
C833 C831 1.419 . S
C833 C834 1.363 . S
C833 H836 0.929 . S
C834 C833 1.363 . S
C834 C840 1.428 . S
H835 C831 0.930 . S
H836 C833 0.929 . S
S837 N838 1.613 . S
S837 N839 1.610 . S
N838 S837 1.613 . S
N838 C841 1.350 . S
N839 S837 1.610 . S
N839 C840 1.351 . S
C840 C834 1.428 . S
C840 N839 1.351 . S
C840 C841 1.434 . S
C841 C832 1.429 . S
C841 N838 1.350 . S
C841 C840 1.434 . S
C842 C843 1.369 . S
C842 C844 1.419 . S
C842 H846 0.930 . S
C843 C842 1.369 . S
C843 C852 1.429 . S
C844 C842 1.419 . S
C844 C845 1.363 . S
C844 H847 0.929 . S
C845 C844 1.363 . S
C845 C851 1.428 . S
H846 C842 0.930 . S
H847 C844 0.929 . S
S848 N849 1.613 . S
S848 N850 1.610 . S
N849 S848 1.613 . S
N849 C852 1.350 . S
N850 S848 1.610 . S
N850 C851 1.351 . S
C851 C845 1.428 . S
C851 N850 1.351 . S
C851 C852 1.434 . S
C852 C843 1.429 . S
C852 N849 1.350 . S
C852 C851 1.434 . S
C853 C854 1.369 . S
C853 C855 1.419 . S
C853 H857 0.930 . S
C854 C853 1.369 . S
C854 C863 1.429 . S
C855 C853 1.419 . S
C855 C856 1.363 . S
C855 H858 0.929 . S
C856 C855 1.363 . S
C856 C862 1.428 . S
H857 C853 0.930 . S
H858 C855 0.929 . S
S859 N860 1.613 . S
S859 N861 1.610 . S
N860 S859 1.613 . S
N860 C863 1.350 . S
N861 S859 1.610 . S
N861 C862 1.351 . S
C862 C856 1.428 . S
C862 N861 1.351 . S
C862 C863 1.434 . S
C863 C854 1.429 . S
C863 N860 1.350 . S
C863 C862 1.434 . S
C864 C865 1.369 . S
C864 C866 1.419 . S
C864 H868 0.930 . S
C865 C864 1.369 . S
C865 C874 1.429 . S
C866 C864 1.419 . S
C866 C867 1.363 . S
C866 H869 0.929 . S
C867 C866 1.363 . S
C867 C873 1.428 . S
H868 C864 0.930 . S
H869 C866 0.929 . S
S870 N871 1.613 . S
S870 N872 1.610 . S
N871 S870 1.613 . S
N871 C874 1.350 . S
N872 S870 1.610 . S
N872 C873 1.351 . S
C873 C867 1.428 . S
C873 N872 1.351 . S
C873 C874 1.434 . S
C874 C865 1.429 . S
C874 N871 1.350 . S
C874 C873 1.434 . S
C875 C876 1.369 . S
C875 C877 1.419 . S
C875 H879 0.930 . S
C876 C875 1.369 . S
C876 C885 1.429 . S
C877 C875 1.419 . S
C877 C878 1.363 . S
C877 H880 0.929 . S
C878 C877 1.363 . S
C878 C884 1.428 . S
H879 C875 0.930 . S
H880 C877 0.929 . S
S881 N882 1.613 . S
S881 N883 1.610 . S
N882 S881 1.613 . S
N882 C885 1.350 . S
N883 S881 1.610 . S
N883 C884 1.351 . S
C884 C878 1.428 . S
C884 N883 1.351 . S
C884 C885 1.434 . S
C885 C876 1.429 . S
C885 N882 1.350 . S
C885 C884 1.434 . S
C886 C887 1.369 . S
C886 C888 1.419 . S
C886 H890 0.930 . S
C887 C886 1.369 . S
C887 C896 1.429 . S
C888 C886 1.419 . S
C888 C889 1.363 . S
C888 H891 0.929 . S
C889 C888 1.363 . S
C889 C895 1.428 . S
H890 C886 0.930 . S
H891 C888 0.929 . S
S892 N893 1.613 . S
S892 N894 1.610 . S
N893 S892 1.613 . S
N893 C896 1.350 . S
N894 S892 1.610 . S
N894 C895 1.351 . S
C895 C889 1.428 . S
C895 N894 1.351 . S
C895 C896 1.434 . S
C896 C887 1.429 . S
C896 N893 1.350 . S
C896 C895 1.434 . S
C897 C898 1.369 . S
C897 C899 1.419 . S
C897 H901 0.930 . S
C898 C897 1.369 . S
C898 C907 1.429 . S
C899 C897 1.419 . S
C899 C900 1.363 . S
C899 H902 0.929 . S
C900 C899 1.363 . S
C900 C906 1.428 . S
H901 C897 0.930 . S
H902 C899 0.929 . S
S903 N904 1.613 . S
S903 N905 1.610 . S
N904 S903 1.613 . S
N904 C907 1.350 . S
N905 S903 1.610 . S
N905 C906 1.351 . S
C906 C900 1.428 . S
C906 N905 1.351 . S
C906 C907 1.434 . S
C907 C898 1.429 . S
C907 N904 1.350 . S
C907 C906 1.434 . S
C908 C909 1.369 . S
C908 C910 1.419 . S
C908 H912 0.930 . S
C909 C908 1.369 . S
C909 C918 1.429 . S
C910 C908 1.419 . S
C910 C911 1.363 . S
C910 H913 0.929 . S
C911 C910 1.363 . S
C911 C917 1.428 . S
H912 C908 0.930 . S
H913 C910 0.929 . S
S914 N915 1.613 . S
S914 N916 1.610 . S
N915 S914 1.613 . S
N915 C918 1.350 . S
N916 S914 1.610 . S
N916 C917 1.351 . S
C917 C911 1.428 . S
C917 N916 1.351 . S
C917 C918 1.434 . S
C918 C909 1.429 . S
C918 N915 1.350 . S
C918 C917 1.434 . S
C919 C920 1.369 . S
C919 C921 1.419 . S
C919 H923 0.930 . S
C920 C919 1.369 . S
C920 C929 1.429 . S
C921 C919 1.419 . S
C921 C922 1.363 . S
C921 H924 0.929 . S
C922 C921 1.363 . S
C922 C928 1.428 . S
H923 C919 0.930 . S
H924 C921 0.929 . S
S925 N926 1.613 . S
S925 N927 1.610 . S
N926 S925 1.613 . S
N926 C929 1.350 . S
N927 S925 1.610 . S
N927 C928 1.351 . S
C928 C922 1.428 . S
C928 N927 1.351 . S
C928 C929 1.434 . S
C929 C920 1.429 . S
C929 N926 1.350 . S
C929 C928 1.434 . S
C930 C931 1.369 . S
C930 C932 1.419 . S
C930 H934 0.930 . S
C931 C930 1.369 . S
C931 C940 1.429 . S
C932 C930 1.419 . S
C932 C933 1.363 . S
C932 H935 0.929 . S
C933 C932 1.363 . S
C933 C939 1.428 . S
H934 C930 0.930 . S
H935 C932 0.929 . S
S936 N937 1.613 . S
S936 N938 1.610 . S
N937 S936 1.613 . S
N937 C940 1.350 . S
N938 S936 1.610 . S
N938 C939 1.351 . S
C939 C933 1.428 . S
C939 N938 1.351 . S
C939 C940 1.434 . S
C940 C931 1.429 . S
C940 N937 1.350 . S
C940 C939 1.434 . S
C941 C942 1.369 . S
C941 C943 1.419 . S
C941 H945 0.930 . S
C942 C941 1.369 . S
C942 C951 1.429 . S
C943 C941 1.419 . S
C943 C944 1.363 . S
C943 H946 0.929 . S
C944 C943 1.363 . S
C944 C950 1.428 . S
H945 C941 0.930 . S
H946 C943 0.929 . S
S947 N948 1.613 . S
S947 N949 1.610 . S
N948 S947 1.613 . S
N948 C951 1.350 . S
N949 S947 1.610 . S
N949 C950 1.351 . S
C950 C944 1.428 . S
C950 N949 1.351 . S
C950 C951 1.434 . S
C951 C942 1.429 . S
C951 N948 1.350 . S
C951 C950 1.434 . S
C952 C953 1.369 . S
C952 C954 1.419 . S
C952 H956 0.930 . S
C953 C952 1.369 . S
C953 C962 1.429 . S
C954 C952 1.419 . S
C954 C955 1.363 . S
C954 H957 0.929 . S
C955 C954 1.363 . S
C955 C961 1.428 . S
H956 C952 0.930 . S
H957 C954 0.929 . S
S958 N959 1.613 . S
S958 N960 1.610 . S
N959 S958 1.613 . S
N959 C962 1.350 . S
N960 S958 1.610 . S
N960 C961 1.351 . S
C961 C955 1.428 . S
C961 N960 1.351 . S
C961 C962 1.434 . S
C962 C953 1.429 . S
C962 N959 1.350 . S
C962 C961 1.434 . S
C963 C964 1.369 . S
C963 C965 1.419 . S
C963 H967 0.930 . S
C964 C963 1.369 . S
C964 C973 1.429 . S
C965 C963 1.419 . S
C965 C966 1.363 . S
C965 H968 0.929 . S
C966 C965 1.363 . S
C966 C972 1.428 . S
H967 C963 0.930 . S
H968 C965 0.929 . S
S969 N970 1.613 1_556 S
S969 N971 1.610 1_556 S
N970 S969 1.613 1_554 S
N970 C973 1.350 . S
N971 S969 1.610 1_554 S
N971 C972 1.351 . S
C972 C966 1.428 . S
C972 N971 1.351 . S
C972 C973 1.434 . S
C973 C964 1.429 . S
C973 N970 1.350 . S
C973 C972 1.434 . S
C974 C975 1.369 . S
C974 C976 1.419 . S
C974 H978 0.930 . S
C975 C974 1.369 . S
C975 C984 1.429 . S
C976 C974 1.419 . S
C976 C977 1.363 . S
C976 H979 0.929 . S
C977 C976 1.363 . S
C977 C983 1.428 . S
H978 C974 0.930 . S
H979 C976 0.929 . S
S980 N981 1.613 . S
S980 N982 1.610 . S
N981 S980 1.613 . S
N981 C984 1.350 . S
N982 S980 1.610 . S
N982 C983 1.351 . S
C983 C977 1.428 . S
C983 N982 1.351 . S
C983 C984 1.434 . S
C984 C975 1.429 . S
C984 N981 1.350 . S
C984 C983 1.434 . S
C985 C986 1.369 . S
C985 C987 1.419 . S
C985 H989 0.930 . S
C986 C985 1.369 . S
C986 C995 1.429 . S
C987 C985 1.419 . S
C987 C988 1.363 . S
C987 H990 0.929 . S
C988 C987 1.363 . S
C988 C994 1.428 . S
H989 C985 0.930 . S
H990 C987 0.929 . S
S991 N992 1.613 . S
S991 N993 1.610 . S
N992 S991 1.613 . S
N992 C995 1.350 . S
N993 S991 1.610 . S
N993 C994 1.351 . S
C994 C988 1.428 . S
C994 N993 1.351 . S
C994 C995 1.434 . S
C995 C986 1.429 . S
C995 N992 1.350 . S
C995 C994 1.434 . S
C996 C997 1.369 . S
C996 C998 1.419 1_455 S
C996 H1000 0.930 . S
C997 C996 1.369 . S
C997 C1006 1.429 . S
C998 C996 1.419 1_655 S
C998 C999 1.363 . S
C998 H1001 0.929 . S
C999 C998 1.363 . S
C999 C1005 1.428 . S
H1000 C996 0.930 . S
H1001 C998 0.929 . S
S1002 N1003 1.625 . S
S1002 N1004 1.576 1_455 S
N1003 S1002 1.625 . S
N1003 C1006 1.350 . S
N1004 S1002 1.576 1_655 S
N1004 C1005 1.351 . S
C1005 C999 1.428 . S
C1005 N1004 1.351 . S
C1005 C1006 1.434 1_655 S
C1006 C997 1.429 . S
C1006 N1003 1.350 . S
C1006 C1005 1.434 1_455 S
C1007 C1008 1.369 . S
C1007 C1009 1.419 . S
C1007 H1011 0.930 . S
C1008 C1007 1.369 . S
C1008 C1017 1.429 . S
C1009 C1007 1.419 . S
C1009 C1010 1.363 . S
C1009 H1012 0.929 . S
C1010 C1009 1.363 . S
C1010 C1016 1.428 . S
H1011 C1007 0.930 . S
H1012 C1009 0.929 . S
S1013 N1014 1.613 . S
S1013 N1015 1.610 . S
N1014 S1013 1.613 . S
N1014 C1017 1.350 . S
N1015 S1013 1.610 . S
N1015 C1016 1.351 . S
C1016 C1010 1.428 . S
C1016 N1015 1.351 . S
C1016 C1017 1.434 . S
C1017 C1008 1.429 . S
C1017 N1014 1.350 . S
C1017 C1016 1.434 . S
C1018 C1019 1.369 . S
C1018 C1020 1.419 1_545 S
C1018 H1022 0.930 . S
C1019 C1018 1.369 . S
C1019 C1028 1.429 . S
C1020 C1018 1.419 1_565 S
C1020 C1021 1.363 . S
C1020 H1023 0.929 . S
C1021 C1020 1.363 . S
C1021 C1027 1.428 . S
H1022 C1018 0.930 . S
H1023 C1020 0.929 . S
S1024 N1025 1.613 . S
S1024 N1026 1.610 1_545 S
N1025 S1024 1.613 . S
N1025 C1028 1.350 . S
N1026 S1024 1.610 1_565 S
N1026 C1027 1.351 . S
C1027 C1021 1.428 . S
C1027 N1026 1.351 . S
C1027 C1028 1.434 1_565 S
C1028 C1019 1.429 . S
C1028 N1025 1.350 . S
C1028 C1027 1.434 1_545 S
C1029 C1030 1.369 . S
C1029 C1031 1.419 1_545 S
C1029 H1033 0.930 . S
C1030 C1029 1.369 . S
C1030 C1039 1.429 . S
C1031 C1029 1.419 1_565 S
C1031 C1032 1.363 . S
C1031 H1034 0.929 . S
C1032 C1031 1.363 . S
C1032 C1038 1.428 . S
H1033 C1029 0.930 . S
H1034 C1031 0.929 . S
S1035 N1036 1.613 . S
S1035 N1037 1.610 1_545 S
N1036 S1035 1.613 . S
N1036 C1039 1.350 . S
N1037 S1035 1.610 1_565 S
N1037 C1038 1.351 . S
C1038 C1032 1.428 . S
C1038 N1037 1.351 . S
C1038 C1039 1.434 1_565 S
C1039 C1030 1.429 . S
C1039 N1036 1.350 . S
C1039 C1038 1.434 1_545 S
C1040 C1041 1.369 . S
C1040 C1042 1.419 1_655 S
C1040 H1044 0.930 . S
C1041 C1040 1.369 . S
C1041 C1050 1.429 . S
C1042 C1040 1.419 1_455 S
C1042 C1043 1.363 . S
C1042 H1045 0.929 . S
C1043 C1042 1.363 . S
C1043 C1049 1.428 . S
H1044 C1040 0.930 . S
H1045 C1042 0.929 . S
S1046 N1047 1.613 1_455 S
S1046 N1048 1.610 . S
N1047 S1046 1.613 1_655 S
N1047 C1050 1.350 . S
N1048 S1046 1.610 . S
N1048 C1049 1.351 . S
C1049 C1043 1.428 . S
C1049 N1048 1.351 . S
C1049 C1050 1.434 1_455 S
C1050 C1041 1.429 . S
C1050 N1047 1.350 . S
C1050 C1049 1.434 1_655 S
C1051 C1052 1.369 . S
C1051 C1053 1.419 . S
C1051 H1055 0.930 . S
C1052 C1051 1.369 . S
C1052 C1061 1.429 . S
C1053 C1051 1.419 . S
C1053 C1054 1.363 . S
C1053 H1056 0.929 . S
C1054 C1053 1.363 . S
C1054 C1060 1.428 . S
H1055 C1051 0.930 . S
H1056 C1053 0.929 . S
S1057 N1058 1.613 . S
S1057 N1059 1.610 . S
N1058 S1057 1.613 . S
N1058 C1061 1.350 . S
N1059 S1057 1.610 . S
N1059 C1060 1.351 . S
C1060 C1054 1.428 . S
C1060 N1059 1.351 . S
C1060 C1061 1.434 . S
C1061 C1052 1.429 . S
C1061 N1058 1.350 . S
C1061 C1060 1.434 . S
C1062 C1063 1.369 . S
C1062 C1064 1.419 . S
C1062 H1066 0.930 . S
C1063 C1062 1.369 . S
C1063 C1072 1.429 . S
C1064 C1062 1.419 . S
C1064 C1065 1.363 . S
C1064 H1067 0.929 . S
C1065 C1064 1.363 . S
C1065 C1071 1.428 . S
H1066 C1062 0.930 . S
H1067 C1064 0.929 . S
S1068 N1069 1.613 . S
S1068 N1070 1.610 . S
N1069 S1068 1.613 . S
N1069 C1072 1.350 . S
N1070 S1068 1.610 . S
N1070 C1071 1.351 . S
C1071 C1065 1.428 . S
C1071 N1070 1.351 . S
C1071 C1072 1.434 . S
C1072 C1063 1.429 . S
C1072 N1069 1.350 . S
C1072 C1071 1.434 . S
C1073 C1074 1.369 . S
C1073 C1075 1.419 . S
C1073 H1077 0.930 . S
C1074 C1073 1.369 . S
C1074 C1083 1.429 . S
C1075 C1073 1.419 . S
C1075 C1076 1.363 . S
C1075 H1078 0.929 . S
C1076 C1075 1.363 . S
C1076 C1082 1.428 . S
H1077 C1073 0.930 . S
H1078 C1075 0.929 . S
S1079 N1080 1.613 . S
S1079 N1081 1.610 . S
N1080 S1079 1.613 . S
N1080 C1083 1.350 . S
N1081 S1079 1.610 . S
N1081 C1082 1.351 . S
C1082 C1076 1.428 . S
C1082 N1081 1.351 . S
C1082 C1083 1.434 . S
C1083 C1074 1.429 . S
C1083 N1080 1.350 . S
C1083 C1082 1.434 . S
C1084 C1085 1.369 . S
C1084 C1086 1.419 . S
C1084 H1088 0.930 . S
C1085 C1084 1.369 . S
C1085 C1094 1.429 . S
C1086 C1084 1.419 . S
C1086 C1087 1.363 . S
C1086 H1089 0.929 . S
C1087 C1086 1.363 . S
C1087 C1093 1.428 . S
H1088 C1084 0.930 . S
H1089 C1086 0.929 . S
S1090 N1091 1.613 . S
S1090 N1092 1.610 . S
N1091 S1090 1.613 . S
N1091 C1094 1.350 . S
N1092 S1090 1.610 . S
N1092 C1093 1.351 . S
C1093 C1087 1.428 . S
C1093 N1092 1.351 . S
C1093 C1094 1.434 . S
C1094 C1085 1.429 . S
C1094 N1091 1.350 . S
C1094 C1093 1.434 . S
C1095 C1096 1.369 . S
C1095 C1097 1.419 . S
C1095 H1099 0.930 . S
C1096 C1095 1.369 . S
C1096 C1105 1.429 . S
C1097 C1095 1.419 . S
C1097 C1098 1.363 . S
C1097 H1100 0.929 . S
C1098 C1097 1.363 . S
C1098 C1104 1.428 . S
H1099 C1095 0.930 . S
H1100 C1097 0.929 . S
S1101 N1102 1.613 . S
S1101 N1103 1.610 . S
N1102 S1101 1.613 . S
N1102 C1105 1.350 . S
N1103 S1101 1.610 . S
N1103 C1104 1.351 . S
C1104 C1098 1.428 . S
C1104 N1103 1.351 . S
C1104 C1105 1.434 . S
C1105 C1096 1.429 . S
C1105 N1102 1.350 . S
C1105 C1104 1.434 . S
C1106 C1107 1.369 . S
C1106 C1108 1.419 . S
C1106 H1110 0.930 . S
C1107 C1106 1.369 . S
C1107 C1116 1.429 . S
C1108 C1106 1.419 . S
C1108 C1109 1.363 . S
C1108 H1111 0.929 . S
C1109 C1108 1.363 . S
C1109 C1115 1.428 . S
H1110 C1106 0.930 . S
H1111 C1108 0.929 . S
S1112 N1113 1.613 . S
S1112 N1114 1.610 . S
N1113 S1112 1.613 . S
N1113 C1116 1.350 . S
N1114 S1112 1.610 . S
N1114 C1115 1.351 . S
C1115 C1109 1.428 . S
C1115 N1114 1.351 . S
C1115 C1116 1.434 . S
C1116 C1107 1.429 . S
C1116 N1113 1.350 . S
C1116 C1115 1.434 . S
C1117 C1118 1.369 . S
C1117 C1119 1.419 . S
C1117 H1121 0.930 . S
C1118 C1117 1.369 . S
C1118 C1127 1.429 . S
C1119 C1117 1.419 . S
C1119 C1120 1.363 . S
C1119 H1122 0.929 . S
C1120 C1119 1.363 . S
C1120 C1126 1.428 . S
H1121 C1117 0.930 . S
H1122 C1119 0.929 . S
S1123 N1124 1.613 . S
S1123 N1125 1.610 . S
N1124 S1123 1.613 . S
N1124 C1127 1.350 . S
N1125 S1123 1.610 . S
N1125 C1126 1.351 . S
C1126 C1120 1.428 . S
C1126 N1125 1.351 . S
C1126 C1127 1.434 . S
C1127 C1118 1.429 . S
C1127 N1124 1.350 . S
C1127 C1126 1.434 . S
C1128 C1129 1.369 . S
C1128 C1130 1.419 . S
C1128 H1132 0.930 . S
C1129 C1128 1.369 . S
C1129 C1138 1.429 . S
C1130 C1128 1.419 . S
C1130 C1131 1.363 . S
C1130 H1133 0.929 . S
C1131 C1130 1.363 . S
C1131 C1137 1.428 . S
H1132 C1128 0.930 . S
H1133 C1130 0.929 . S
S1134 N1135 1.613 . S
S1134 N1136 1.610 . S
N1135 S1134 1.613 . S
N1135 C1138 1.350 . S
N1136 S1134 1.610 . S
N1136 C1137 1.351 . S
C1137 C1131 1.428 . S
C1137 N1136 1.351 . S
C1137 C1138 1.434 . S
C1138 C1129 1.429 . S
C1138 N1135 1.350 . S
C1138 C1137 1.434 . S
C1139 C1140 1.369 . S
C1139 C1141 1.419 . S
C1139 H1143 0.930 . S
C1140 C1139 1.369 . S
C1140 C1149 1.429 . S
C1141 C1139 1.419 . S
C1141 C1142 1.363 . S
C1141 H1144 0.929 . S
C1142 C1141 1.363 . S
C1142 C1148 1.428 . S
H1143 C1139 0.930 . S
H1144 C1141 0.929 . S
S1145 N1146 1.613 . S
S1145 N1147 1.610 . S
N1146 S1145 1.613 . S
N1146 C1149 1.350 . S
N1147 S1145 1.610 . S
N1147 C1148 1.351 . S
C1148 C1142 1.428 . S
C1148 N1147 1.351 . S
C1148 C1149 1.434 . S
C1149 C1140 1.429 . S
C1149 N1146 1.350 . S
C1149 C1148 1.434 . S
C1150 C1151 1.369 . S
C1150 C1152 1.419 . S
C1150 H1154 0.930 . S
C1151 C1150 1.369 . S
C1151 C1160 1.429 . S
C1152 C1150 1.419 . S
C1152 C1153 1.363 . S
C1152 H1155 0.929 . S
C1153 C1152 1.363 . S
C1153 C1159 1.428 . S
H1154 C1150 0.930 . S
H1155 C1152 0.929 . S
S1156 N1157 1.613 . S
S1156 N1158 1.610 . S
N1157 S1156 1.613 . S
N1157 C1160 1.350 . S
N1158 S1156 1.610 . S
N1158 C1159 1.351 . S
C1159 C1153 1.428 . S
C1159 N1158 1.351 . S
C1159 C1160 1.434 . S
C1160 C1151 1.429 . S
C1160 N1157 1.350 . S
C1160 C1159 1.434 . S
C1161 C1162 1.369 1_556 S
C1161 C1163 1.419 . S
C1161 H1165 0.930 . S
C1162 C1161 1.369 1_554 S
C1162 C1171 1.429 . S
C1163 C1161 1.419 . S
C1163 C1164 1.363 1_556 S
C1163 H1166 0.929 . S
C1164 C1163 1.363 1_554 S
C1164 C1170 1.428 . S
H1165 C1161 0.930 . S
H1166 C1163 0.929 . S
S1167 N1168 1.613 . S
S1167 N1169 1.610 . S
N1168 S1167 1.613 . S
N1168 C1171 1.350 . S
N1169 S1167 1.610 . S
N1169 C1170 1.351 . S
C1170 C1164 1.428 . S
C1170 N1169 1.351 . S
C1170 C1171 1.434 . S
C1171 C1162 1.429 . S
C1171 N1168 1.350 . S
C1171 C1170 1.434 . S
C1172 C1173 1.369 1_556 S
C1172 C1174 1.419 . S
C1172 H1176 0.930 . S
C1173 C1172 1.369 1_554 S
C1173 C1182 1.429 . S
C1174 C1172 1.419 . S
C1174 C1175 1.363 1_556 S
C1174 H1177 0.929 . S
C1175 C1174 1.363 1_554 S
C1175 C1181 1.428 . S
H1176 C1172 0.930 . S
H1177 C1174 0.929 . S
S1178 N1179 1.613 . S
S1178 N1180 1.610 . S
N1179 S1178 1.613 . S
N1179 C1182 1.350 . S
N1180 S1178 1.610 . S
N1180 C1181 1.351 . S
C1181 C1175 1.428 . S
C1181 N1180 1.351 . S
C1181 C1182 1.434 . S
C1182 C1173 1.429 . S
C1182 N1179 1.350 . S
C1182 C1181 1.434 . S
C1183 C1184 1.369 . S
C1183 C1185 1.419 . S
C1183 H1187 0.930 . S
C1184 C1183 1.369 . S
C1184 C1193 1.429 . S
C1185 C1183 1.419 . S
C1185 C1186 1.363 . S
C1185 H1188 0.932 . S
C1186 C1185 1.363 . S
C1186 C1192 1.428 . S
H1187 C1183 0.930 . S
H1188 C1185 0.932 . S
S1189 N1190 1.613 . S
S1189 N1191 1.610 . S
N1190 S1189 1.613 . S
N1190 C1193 1.350 . S
N1191 S1189 1.610 . S
N1191 C1192 1.351 . S
C1192 C1186 1.428 . S
C1192 N1191 1.351 . S
C1192 C1193 1.434 . S
C1193 C1184 1.429 . S
C1193 N1190 1.350 . S
C1193 C1192 1.434 . S
C1194 C1195 1.369 . S
C1194 C1196 1.419 . S
C1194 H1198 0.930 . S
C1195 C1194 1.369 . S
C1195 C1204 1.429 1_556 S
C1196 C1194 1.419 . S
C1196 C1197 1.363 . S
C1196 H1199 0.929 . S
C1197 C1196 1.363 . S
C1197 C1203 1.428 1_556 S
H1198 C1194 0.930 . S
H1199 C1196 0.929 . S
S1200 N1201 1.613 . S
S1200 N1202 1.610 . S
N1201 S1200 1.613 . S
N1201 C1204 1.350 . S
N1202 S1200 1.610 . S
N1202 C1203 1.351 . S
C1203 C1197 1.428 1_554 S
C1203 N1202 1.351 . S
C1203 C1204 1.434 . S
C1204 C1195 1.429 1_554 S
C1204 N1201 1.350 . S
C1204 C1203 1.434 . S
C1205 C1206 1.369 . S
C1205 C1207 1.419 . S
C1205 H1209 0.930 . S
C1206 C1205 1.369 . S
C1206 C1215 1.429 . S
C1207 C1205 1.419 . S
C1207 C1208 1.363 . S
C1207 H1210 0.929 . S
C1208 C1207 1.363 . S
C1208 C1214 1.428 . S
H1209 C1205 0.930 . S
H1210 C1207 0.929 . S
S1211 N1212 1.613 1_554 S
S1211 N1213 1.610 1_554 S
N1212 S1211 1.613 1_556 S
N1212 C1215 1.350 . S
N1213 S1211 1.610 1_556 S
N1213 C1214 1.351 . S
C1214 C1208 1.428 . S
C1214 N1213 1.351 . S
C1214 C1215 1.434 . S
C1215 C1206 1.429 . S
C1215 N1212 1.350 . S
C1215 C1214 1.434 . S
C1216 C1217 1.369 . S
C1216 C1218 1.419 . S
C1216 H1220 0.930 . S
C1217 C1216 1.369 . S
C1217 C1226 1.429 . S
C1218 C1216 1.419 . S
C1218 C1219 1.363 . S
C1218 H1221 0.929 . S
C1219 C1218 1.363 . S
C1219 C1225 1.428 . S
H1220 C1216 0.930 . S
H1221 C1218 0.929 . S
S1222 N1223 1.613 . S
S1222 N1224 1.610 . S
N1223 S1222 1.613 . S
N1223 C1226 1.350 . S
N1224 S1222 1.610 . S
N1224 C1225 1.351 . S
C1225 C1219 1.428 . S
C1225 N1224 1.351 . S
C1225 C1226 1.434 . S
C1226 C1217 1.429 . S
C1226 N1223 1.350 . S
C1226 C1225 1.434 . S
C1227 C1228 1.369 . S
C1227 C1229 1.419 . S
C1227 H1231 0.930 . S
C1228 C1227 1.369 . S
C1228 C1237 1.429 . S
C1229 C1227 1.419 . S
C1229 C1230 1.363 . S
C1229 H1232 0.929 . S
C1230 C1229 1.363 . S
C1230 C1236 1.428 . S
H1231 C1227 0.930 . S
H1232 C1229 0.929 . S
S1233 N1234 1.613 . S
S1233 N1235 1.610 . S
N1234 S1233 1.613 . S
N1234 C1237 1.350 . S
N1235 S1233 1.610 . S
N1235 C1236 1.351 . S
C1236 C1230 1.428 . S
C1236 N1235 1.351 . S
C1236 C1237 1.434 . S
C1237 C1228 1.429 . S
C1237 N1234 1.350 . S
C1237 C1236 1.434 . S
C1238 C1239 1.369 . S
C1238 C1240 1.419 . S
C1238 H1242 0.930 . S
C1239 C1238 1.369 . S
C1239 C1248 1.429 . S
C1240 C1238 1.419 . S
C1240 C1241 1.363 . S
C1240 H1243 0.929 . S
C1241 C1240 1.363 . S
C1241 C1247 1.428 . S
H1242 C1238 0.930 . S
H1243 C1240 0.929 . S
S1244 N1245 1.613 . S
S1244 N1246 1.610 . S
N1245 S1244 1.613 . S
N1245 C1248 1.350 . S
N1246 S1244 1.610 . S
N1246 C1247 1.351 . S
C1247 C1241 1.428 . S
C1247 N1246 1.351 . S
C1247 C1248 1.434 . S
C1248 C1239 1.429 . S
C1248 N1245 1.350 . S
C1248 C1247 1.434 . S
C1249 C1250 1.369 . S
C1249 C1251 1.419 . S
C1249 H1253 0.930 . S
C1250 C1249 1.369 . S
C1250 C1259 1.429 . S
C1251 C1249 1.419 . S
C1251 C1252 1.363 . S
C1251 H1254 0.929 . S
C1252 C1251 1.363 . S
C1252 C1258 1.428 . S
H1253 C1249 0.930 . S
H1254 C1251 0.929 . S
S1255 N1256 1.613 . S
S1255 N1257 1.610 . S
N1256 S1255 1.613 . S
N1256 C1259 1.350 . S
N1257 S1255 1.610 . S
N1257 C1258 1.351 . S
C1258 C1252 1.428 . S
C1258 N1257 1.351 . S
C1258 C1259 1.434 . S
C1259 C1250 1.429 . S
C1259 N1256 1.350 . S
C1259 C1258 1.434 . S
C469 C75 1.627 . S
C471 C10 1.624 . S
C480 C43 1.626 . S
C482 C23 1.623 . S
C491 C30 1.625 . S
C493 C62 1.626 . S
C502 C82 1.623 . S
C504 C147 1.624 . S
C513 C101 1.624 . S
C515 C121 1.627 . S
C524 C140 1.622 . S
C526 C114 1.625 . S
C535 C160 1.623 . S
C537 C225 1.626 . S
C546 C173 1.627 . S
C548 C199 1.625 . S
C557 C192 1.625 . S
C559 C218 1.626 . S
C568 C309 1.627 . S
C570 C244 1.626 . S
C579 C257 1.622 . S
C581 C283 1.625 . S
C590 C290 1.622 . S
C592 C264 1.625 . S
C601 C381 1.623 . S
C603 C316 1.626 . S
C612 C355 1.623 . S
C614 C335 1.626 . S
C623 C368 1.623 . S
C625 C348 1.626 . S
C634 C400 1.625 . S
C636 C465 1.623 . S
C645 C413 1.626 . S
C647 C439 1.623 . S
C656 C426 1.627 . S
C658 C446 1.623 . S
C667 C69 1.509 . S
C669 C4 1.509 . S
C678 C17 1.508 . S
C680 C49 1.510 . S
C689 C56 1.508 . S
C691 C36 1.509 . S
C700 C88 1.510 . S
C702 C153 1.508 . S
C711 C95 1.509 . S
C713 C127 1.509 . S
C722 C134 1.510 . S
C724 C108 1.509 . S
C733 C166 1.508 . S
C735 C231 1.510 . S
C744 C205 1.508 . S
C746 C179 1.510 . S
C755 C212 1.509 . S
C757 C186 1.509 . S
C766 C238 1.508 . S
C768 C303 1.510 . S
C777 C251 1.509 . S
C779 C277 1.509 . S
C788 C296 1.510 . S
C790 C270 1.509 . S
C799 C387 1.508 . S
C801 C322 1.509 . S
C810 C329 1.509 . S
C812 C361 1.509 . S
C821 C342 1.509 . S
C823 C374 1.508 . S
C832 C459 1.510 . S
C834 C394 1.509 . S
C843 C433 1.509 . S
C845 C407 1.509 . S
C854 C452 1.509 . S
C856 C420 1.509 . S
C865 C211 1.684 . S
C867 C3 1.684 . S
C876 C226 1.684 . S
C878 C16 1.684 . S
C887 C200 1.684 . S
C889 C31 1.683 . S
C898 C44 1.684 . S
C900 C341 1.684 . S
C909 C55 1.684 . S
C911 C317 1.684 . S
C920 C68 1.684 . S
C922 C328 1.684 . S
C931 C83 1.683 . S
C933 C447 1.683 . S
C942 C94 1.684 . S
C944 C458 1.684 . S
C953 C107 1.684 . S
C955 C432 1.684 . S
C964 C122 1.684 . S
C966 C265 1.683 . S
C975 C237 1.683 . S
C977 C133 1.683 . S
C986 C250 1.684 . S
C988 C148 1.683 . S
C997 C369 1.683 . S
C999 C161 1.684 . S
C1008 C174 1.684 . S
C1010 C382 1.683 . S
C1019 C185 1.684 . S
C1021 C356 1.684 . S
C1030 C276 1.684 . S
C1032 C419 1.684 . S
C1041 C291 1.683 . S
C1043 C393 1.684 . S
C1052 C406 1.683 . S
C1054 C302 1.683 . S
C1063 C5 1.384 . S
C1065 C135 1.384 . S
C1074 C146 1.383 . S
C1076 C18 1.383 . S
C1085 C120 1.385 . S
C1087 C29 1.385 . S
C1096 C42 1.384 . S
C1098 C109 1.384 . S
C1107 C57 1.384 . S
C1109 C81 1.384 . S
C1118 C70 1.385 . S
C1120 C96 1.385 . S
C1129 C159 1.385 . S
C1131 C289 1.385 . S
C1140 C304 1.386 . S
C1142 C172 1.386 . S
C1151 C278 1.385 . S
C1153 C187 1.385 . S
C1162 C198 1.382 . S
C1164 C263 1.383 . S
C1173 C213 1.383 . S
C1175 C239 1.383 . S
C1184 C252 1.385 . S
C1186 C224 1.385 . S
C1195 C315 1.385 . S
C1197 C445 1.385 . S
C1206 C460 1.386 . S
C1208 C330 1.385 . S
C1217 C343 1.384 . S
C1219 C434 1.384 . S
C1228 C354 1.382 . S
C1230 C421 1.383 . S
C1239 C395 1.383 . S
C1241 C367 1.384 . S
C1250 C380 1.384 . S
C1252 C408 1.385 . S
