# Generated by pormake.
# Topology sxb, (6)-cn, num edge types: 1
# Building blocks:
#     Node 0, Type 0, BuildingBlock: BETDEL_clean_sbu_0, # of connection points: 6
#     Node 1, Type 0, BuildingBlock: BETDEL_clean_sbu_0, # of connection points: 6
#     Node 2, Type 0, BuildingBlock: BETDEL_clean_sbu_0, # of connection points: 6
#     Node 3, Type 0, BuildingBlock: BETDEL_clean_sbu_0, # of connection points: 6
#     Edge 4, Type (0, 0), BuildingBlock: TEMPAE_clean_linker_10, # of connection points: 2
#     Edge 5, Type (0, 0), BuildingBlock: TEMPAE_clean_linker_10, # of connection points: 2
#     Edge 6, Type (0, 0), BuildingBlock: TEMPAE_clean_linker_10, # of connection points: 2
#     Edge 7, Type (0, 0), BuildingBlock: TEMPAE_clean_linker_10, # of connection points: 2
#     Edge 8, Type (0, 0), BuildingBlock: TEMPAE_clean_linker_10, # of connection points: 2
#     Edge 9, Type (0, 0), BuildingBlock: TEMPAE_clean_linker_10, # of connection points: 2
#     Edge 10, Type (0, 0), BuildingBlock: TEMPAE_clean_linker_10, # of connection points: 2
#     Edge 11, Type (0, 0), BuildingBlock: TEMPAE_clean_linker_10, # of connection points: 2
#     Edge 12, Type (0, 0), BuildingBlock: TEMPAE_clean_linker_10, # of connection points: 2
#     Edge 13, Type (0, 0), BuildingBlock: TEMPAE_clean_linker_10, # of connection points: 2
#     Edge 14, Type (0, 0), BuildingBlock: TEMPAE_clean_linker_10, # of connection points: 2
#     Edge 15, Type (0, 0), BuildingBlock: TEMPAE_clean_linker_10, # of connection points: 2
# Relax obj value: 0.059
# Max RMSD: 0.035
# Mean RMSD: 0.034
data_MOF--net-sxb--node1-BETDEL_clean_sbu_0--edge1-TEMPAE_clean_linker_10
_symmetry_space_group_name_H-M    P1
_symmetry_Int_Tables_number       1
_symmetry_cell_setting            triclinic
loop_
_symmetry_equiv_pos_as_xyz
'x, y, z'
_cell_length_a     16.698468
_cell_length_b     29.577221
_cell_length_c     30.132892
_cell_angle_alpha  91.818578
_cell_angle_beta   94.497076
_cell_angle_gamma 83.572705
loop_
_atom_site_label
_atom_site_type_symbol
_atom_site_fract_x
_atom_site_fract_y
_atom_site_fract_z
_atom_type_partial_charge
Dy0 Dy 0.94464 0.98728 -0.00019 0.0
C1 C 0.21731 0.05025 0.96462 0.0
C2 C 0.79816 0.95755 0.00779 0.0
Dy3 Dy 0.07784 0.03002 -0.0046 0.0
O4 O 0.84812 0.94339 0.9785 0.0
O5 O 0.83069 0.98675 0.03442 0.0
O6 O 0.96725 0.95541 0.93231 0.0
O7 O 0.9814 0.02411 0.94333 0.0
C8 C 0.98503 0.99189 0.91488 0.0
C9 C 0.04147 0.02831 0.081 0.0
O10 O 0.99359 0.09376 0.98233 0.0
O11 O 0.88962 0.06158 0.00913 0.0
O12 O 0.19258 0.06327 0.00325 0.0
O13 O 0.16478 0.02735 0.94305 0.0
O14 O 0.06908 0.06228 0.06324 0.0
O15 O 0.03863 0.99534 0.05312 0.0
O16 O 0.02906 0.92513 0.01924 0.0
O17 O 0.13237 0.95535 0.99014 0.0
C18 C 0.91987 0.09827 -0.00398 0.0
C19 C 0.10249 0.91949 0.00515 0.0
Dy20 Dy 0.01714 0.955 0.49382 0.0
C21 C 0.05865 0.13584 0.47411 0.0
C22 C 0.96425 0.86982 0.48815 0.0
Dy23 Dy 1.00792 0.05547 0.49817 0.0
O24 O 0.96255 0.89808 0.45613 0.0
O25 O 1.00134 0.8867 0.52367 0.0
O26 O 0.0767 0.95575 0.43041 0.0
O27 O 0.98353 0.00758 0.44303 0.0
C28 C 0.03441 0.99226 0.41538 0.0
C29 C 0.02182 0.02994 0.58369 0.0
O30 O 0.86823 0.05141 0.48876 0.0
O31 O 0.88065 0.97487 0.50383 0.0
O32 O 1.0022 0.13275 0.50124 0.0
O33 O 0.0797 0.09572 0.45732 0.0
O34 O 0.0142 0.07178 0.57113 0.0
O35 O 0.01996 1.00324 0.54984 0.0
O36 O 0.15683 0.95754 0.50694 0.0
O37 O 0.14649 0.03511 0.49834 0.0
C38 C 0.83301 0.01381 0.49654 0.0
C39 C 0.19328 0.99564 0.50347 0.0
Dy40 Dy 0.4443 0.48721 0.99102 0.0
C41 C 0.72446 0.5525 0.98331 0.0
C42 C 0.29991 0.45424 0.99269 0.0
Dy43 Dy 0.57635 0.53002 0.00012 0.0
O44 O 0.33868 0.45694 0.95765 0.0
O45 O 0.33964 0.47027 0.02719 0.0
O46 O 0.48458 0.45506 0.92703 0.0
O47 O 0.4957 0.52428 0.93952 0.0
C48 C 0.50563 0.49175 0.91132 0.0
C49 C 0.51815 0.52625 0.08034 0.0
O50 O 0.49767 0.59619 0.99214 0.0
O51 O 0.3833 0.56082 -0.00455 0.0
O52 O 0.69635 0.55317 0.02224 0.0
O53 O 0.66895 0.54186 0.95377 0.0
O54 O 0.54529 0.5619 0.06557 0.0
O55 O 0.52429 0.49356 0.05189 0.0
O56 O 0.52185 0.42161 0.00475 0.0
O57 O 0.63589 0.45596 -0.00089 0.0
C58 C 0.41858 0.59885 0.99386 0.0
C59 C 0.60075 0.41829 0.00276 0.0
Dy60 Dy 0.51013 0.4507 0.49426 0.0
C61 C 0.55333 0.63986 0.46919 0.0
C62 C 0.46956 0.36529 0.51026 0.0
Dy63 Dy 0.50147 0.56063 0.495 0.0
O64 O 0.5099 0.37597 0.4776 0.0
O65 O 0.45891 0.40074 0.53673 0.0
O66 O 0.4937 0.44128 0.419 0.0
O67 O 0.49269 0.50531 0.44743 0.0
C68 C 0.48713 0.48423 0.41051 0.0
C69 C 0.52163 0.52888 0.57903 0.0
O70 O 0.36226 0.55214 0.4856 0.0
O71 O 0.37363 0.47437 0.5003 0.0
O72 O 0.50184 0.6374 0.49932 0.0
O73 O 0.568 0.59995 0.45042 0.0
O74 O 0.51411 0.57181 0.56972 0.0
O75 O 0.51709 0.5064 0.54264 0.0
O76 O 0.64964 0.45811 0.5011 0.0
O77 O 0.63934 0.53726 0.49559 0.0
C78 C 0.32717 0.51399 0.49298 0.0
C79 C 0.68523 0.49698 0.49859 0.0
C80 C 0.40036 0.6807 0.02217 0.0
C81 C 0.37032 0.64524 -0.00409 0.0
C82 C 0.35692 0.72465 0.02481 0.0
C83 C 0.28241 0.73488 -0.00097 0.0
C84 C 0.2524 0.69927 0.97185 0.0
C85 C 0.2955 0.65495 0.97138 0.0
C86 C 0.3906 0.76012 0.05582 0.0
C87 C 0.17527 0.7082 0.94243 0.0
C88 C 0.13112 0.83762 0.03112 0.0
C89 C 0.15004 0.87267 0.00452 0.0
C90 C 0.17391 0.79333 0.03011 0.0
C91 C 0.23628 0.78252 0.0007 0.0
C92 C 0.25508 0.81773 0.97343 0.0
C93 C 0.21294 0.86211 0.97611 0.0
C94 C 0.15278 0.75811 0.06108 0.0
C95 C 0.31911 0.80838 0.94067 0.0
H96 H 0.45761 0.67375 0.04161 0.0
H97 H 0.27171 0.62817 0.95067 0.0
H98 H 0.40484 0.78908 0.03647 0.0
H99 H 0.34478 0.77376 0.07898 0.0
H100 H 0.44632 0.74632 0.0757 0.0
H101 H 0.16164 0.67791 0.92164 0.0
H102 H 0.12383 0.71838 0.96307 0.0
H103 H 0.17984 0.73687 0.92019 0.0
H104 H 0.08313 0.84496 0.05336 0.0
H105 H 0.22815 0.88841 0.955 0.0
H106 H 0.20758 0.74455 0.0818 0.0
H107 H 0.13047 0.72905 0.04154 0.0
H108 H 0.10575 0.7721 0.08344 0.0
H109 H 0.37863 0.79825 0.95862 0.0
H110 H 0.32439 0.83847 0.92036 0.0
H111 H 0.30491 0.77957 0.918 0.0
C112 C 0.61402 0.33382 0.98327 0.0
C113 C 0.64891 0.37173 0.00245 0.0
C114 C 0.6578 0.28992 0.98148 0.0
C115 C 0.73834 0.28238 0.001 0.0
C116 C 0.7735 0.32049 0.02112 0.0
C117 C 0.72933 0.36452 0.02072 0.0
C118 C 0.61799 0.25161 0.95779 0.0
C119 C 0.85786 0.31479 0.04354 0.0
C120 C 0.81824 0.15772 0.03 0.0
C121 C 0.87184 0.14486 -0.0031 0.0
C122 C 0.77654 0.20226 0.03242 0.0
C123 C 0.78533 0.23494 -7e-05 0.0
C124 C 0.83805 0.22164 0.96585 0.0
C125 C 0.88152 0.17753 0.96533 0.0
C126 C 0.72405 0.21465 0.07045 0.0
C127 C 0.84778 0.25386 0.9293 0.0
H128 H 0.55247 0.33873 0.96847 0.0
H129 H 0.75736 0.39324 0.03568 0.0
H130 H 0.65628 0.23599 0.93165 0.0
H131 H 0.61183 0.22461 0.98159 0.0
H132 H 0.55712 0.26326 0.94202 0.0
H133 H 0.87245 0.34575 0.06297 0.0
H134 H 0.86522 0.28549 0.0662 0.0
H135 H 0.90236 0.30754 0.01811 0.0
H136 H 0.81064 0.13327 0.05495 0.0
H137 H 0.92227 0.16827 0.93943 0.0
H138 H 0.66019 0.22256 0.0575 0.0
H139 H 0.74268 0.24569 0.08821 0.0
H140 H 0.72748 0.18684 0.09469 0.0
H141 H 0.78772 0.26602 0.91289 0.0
H142 H 0.8867 0.23773 0.90364 0.0
H143 H 0.87486 0.28418 0.94356 0.0
C144 C 0.09067 0.21606 0.49417 0.0
C145 C 0.11235 0.17297 0.47509 0.0
C146 C 0.1467 0.2487 0.49981 0.0
C147 C 0.22715 0.2374 0.4876 0.0
C148 C 0.24881 0.19399 0.46812 0.0
C149 C 0.1911 0.16281 0.46148 0.0
C150 C 0.12001 0.29514 0.51915 0.0
C151 C 0.33373 0.17992 0.45509 0.0
C152 C 0.36458 0.32746 0.46451 0.0
C153 C 0.41157 0.33051 0.50499 0.0
C154 C 0.30263 0.29874 0.45906 0.0
C155 C 0.28887 0.27081 0.49441 0.0
C156 C 0.33707 0.27327 0.53528 0.0
C157 C 0.39652 0.30393 0.54045 0.0
C158 C 0.25118 0.29876 0.41555 0.0
C159 C 0.32664 0.24299 0.57329 0.0
H160 H 0.03027 0.22408 0.50506 0.0
H161 H 0.20906 0.12945 0.44722 0.0
H162 H 0.15441 0.30035 0.55156 0.0
H163 H 0.13314 0.322 0.49672 0.0
H164 H 0.05444 0.29967 0.52436 0.0
H165 H 0.34256 0.14378 0.44356 0.0
H166 H 0.34763 0.20159 0.42796 0.0
H167 H 0.378 0.18492 0.48377 0.0
H168 H 0.37445 0.3489 0.43736 0.0
H169 H 0.43193 0.30668 0.57194 0.0
H170 H 0.18629 0.30561 0.42184 0.0
H171 H 0.25979 0.26481 0.39883 0.0
H172 H 0.26597 0.32465 0.39246 0.0
H173 H 0.26394 0.24921 0.58354 0.0
H174 H 0.36915 0.2486 0.60268 0.0
H175 H 0.33671 0.20676 0.56229 0.0
C176 C 0.9 0.80761 0.52366 0.0
C177 C 0.91209 0.8319 0.48595 0.0
C178 C 0.84186 0.77612 0.52187 0.0
C179 C 0.79374 0.76935 0.48167 0.0
C180 C 0.80689 0.79336 0.44348 0.0
C181 C 0.86601 0.82383 0.44601 0.0
C182 C 0.83127 0.75045 0.56309 0.0
C183 C 0.75709 0.78769 0.4 0.0
C184 C 0.69076 0.66121 0.45865 0.0
C185 C 0.61113 0.6748 0.46946 0.0
C186 C 0.75087 0.69107 0.46384 0.0
C187 C 0.73085 0.73651 0.47881 0.0
C188 C 0.65 0.75085 0.48887 0.0
C189 C 0.5915 0.71957 0.48492 0.0
C190 C 0.83619 0.67373 0.45365 0.0
C191 C 0.62526 0.7993 0.50363 0.0
H192 H 0.93469 0.81388 0.55473 0.0
H193 H 0.87437 0.84256 0.41668 0.0
H194 H 0.769 0.759 0.57348 0.0
H195 H 0.83941 0.71326 0.55581 0.0
H196 H 0.87479 0.75838 0.59129 0.0
H197 H 0.77364 0.8095 0.37356 0.0
H198 H 0.76523 0.75171 0.38814 0.0
H199 H 0.69198 0.79637 0.40501 0.0
H200 H 0.70718 0.62639 0.44761 0.0
H201 H 0.53046 0.73015 0.49381 0.0
H202 H 0.87905 0.6807 0.48244 0.0
H203 H 0.85359 0.69186 0.42484 0.0
H204 H 0.84333 0.63659 0.44581 0.0
H205 H 0.66144 0.80773 0.53463 0.0
H206 H 0.56012 0.80532 0.50971 0.0
H207 H 0.63772 0.82304 0.47786 0.0
C208 C 0.3308 1.00193 0.93592 0.0
C209 C 0.30228 0.04317 0.95631 0.0
C210 C 0.41248 0.98585 0.94068 0.0
C211 C 0.46649 0.01315 0.96411 0.0
C212 C 0.43912 0.0572 0.98025 0.0
C213 C 0.35624 0.07136 0.97712 0.0
C214 C 0.43939 0.93805 0.92449 0.0
C215 C 0.49648 0.088 0.00331 0.0
C216 C 0.65616 0.95964 0.02638 0.0
C217 C 0.71227 0.96349 -0.00475 0.0
C218 C 0.57436 0.97385 0.01576 0.0
C219 C 0.55065 0.9944 0.9742 0.0
C220 C 0.60748 0.99789 0.94265 0.0
C221 C 0.68772 0.98137 0.95327 0.0
C222 C 0.51389 0.96815 0.04933 0.0
C223 C 0.58458 0.02141 0.89891 0.0
H224 H 0.28848 0.97997 0.92017 0.0
H225 H 0.33338 0.10322 0.99278 0.0
H226 H 0.49247 0.93762 0.90452 0.0
H227 H 0.4581 0.9162 0.95361 0.0
H228 H 0.39062 0.92274 0.90403 0.0
H229 H 0.46733 0.12339 0.00741 0.0
H230 H 0.51752 0.07487 0.03677 0.0
H231 H 0.55058 0.08866 0.98426 0.0
H232 H 0.67641 0.94638 0.05898 0.0
H233 H 0.73237 0.98541 0.92981 0.0
H234 H 0.46205 0.95178 0.03322 0.0
H235 H 0.48971 1.00199 0.06242 0.0
H236 H 0.54107 0.94728 0.07783 0.0
H237 H 0.53498 0.00552 0.87997 0.0
H238 H 0.63636 0.02032 0.87774 0.0
H239 H 0.56197 0.05756 0.90545 0.0
C240 C 0.34425 0.95809 0.49471 0.0
C241 C 0.28825 0.99639 0.50415 0.0
C242 C 0.43038 0.96062 0.49274 0.0
C243 C 0.46644 1.00228 0.50153 0.0
C244 C 0.41026 0.04068 0.51198 0.0
C245 C 0.32449 0.03751 0.51232 0.0
C246 C 0.48311 0.91811 0.48035 0.0
C247 C 0.44101 0.0859 0.52362 0.0
C248 C 0.70394 0.9976 0.53547 0.0
C249 C 0.73854 0.01369 0.49817 0.0
C250 C 0.61821 0.99481 0.53734 0.0
C251 C 0.56103 0.00588 0.50016 0.0
C252 C 0.59594 0.02116 0.46194 0.0
C253 C 0.68164 0.0256 0.46172 0.0
C254 C 0.58876 0.98004 0.58001 0.0
C255 C 0.54248 0.03193 0.42017 0.0
H256 H 0.32053 0.92579 0.48769 0.0
H257 H 0.28519 0.06807 0.51966 0.0
H258 H 0.5205 0.9251 0.45299 0.0
H259 H 0.52509 0.90705 0.50927 0.0
H260 H 0.44726 0.88968 0.46972 0.0
H261 H 0.3928 0.11169 0.53489 0.0
H262 H 0.49072 0.0817 0.55036 0.0
H263 H 0.46612 0.09902 0.49421 0.0
H264 H 0.74447 0.98754 0.56418 0.0
H265 H 0.70458 0.03713 0.43189 0.0
H266 H 0.56834 0.94572 0.57509 0.0
H267 H 0.53622 1.00368 0.58967 0.0
H268 H 0.63665 0.97874 0.60784 0.0
H269 H 0.50713 1.00301 0.41066 0.0
H270 H 0.5776 0.03901 0.39184 0.0
H271 H 0.49863 0.06207 0.42625 0.0
C272 C 0.82213 0.48643 0.97426 0.0
C273 C 0.80704 0.53381 0.97853 0.0
C274 C 0.9007 0.46514 0.9762 0.0
C275 C 0.96491 0.49238 0.98091 0.0
C276 C 0.94996 0.54058 0.98313 0.0
C277 C 0.8702 0.56092 0.9829 0.0
C278 C 0.91464 0.41371 0.97548 0.0
C279 C 0.01805 0.57041 0.98658 0.0
C280 C 0.1734 0.45363 0.02932 0.0
C281 C 0.21438 0.44883 0.99051 0.0
C282 C 0.08965 0.4641 0.02663 0.0
C283 C 0.04809 0.47061 0.98422 0.0
C284 C 0.0883 0.46081 0.94499 0.0
C285 C 0.17156 0.44907 0.9487 0.0
C286 C 0.047 0.47227 0.069 0.0
C287 C 0.04528 0.46753 0.89927 0.0
H288 H 0.77229 0.46579 0.97123 0.0
H289 H 0.85723 0.59755 0.98645 0.0
H290 H 0.96058 0.40102 0.9521 0.0
H291 H 0.93811 0.40199 0.00912 0.0
H292 H 0.85828 0.39792 0.9659 0.0
H293 H 0.99564 0.60715 0.98447 0.0
H294 H 0.0545 0.56478 0.0187 0.0
H295 H 0.05887 0.5613 0.95956 0.0
H296 H 0.20711 0.4527 0.06161 0.0
H297 H 0.2038 0.44469 0.91871 0.0
H298 H 0.98978 0.45624 0.06642 0.0
H299 H 0.03138 0.50937 0.07451 0.0
H300 H 0.0853 0.45873 0.09847 0.0
H301 H 0.98851 0.45112 0.89631 0.0
H302 H 0.08354 0.4536 0.8724 0.0
H303 H 0.02869 0.50447 0.89394 0.0
C304 C 0.17329 0.54086 0.46728 0.0
C305 C 0.2324 0.51365 0.4942 0.0
C306 C 0.08706 0.53734 0.46662 0.0
C307 C 0.05366 0.50717 0.49522 0.0
C308 C 0.11354 0.48048 0.52319 0.0
C309 C 0.19925 0.48318 0.52146 0.0
C310 C 0.03302 0.56581 0.43332 0.0
C311 C 0.08857 0.44819 0.55592 0.0
C312 C 0.81838 0.53655 0.51413 0.0
C313 C 0.78021 0.4976 0.49901 0.0
C314 C 0.90435 0.53945 0.51414 0.0
C315 C 0.95867 0.50362 0.49621 0.0
C316 C 0.92019 0.46432 0.48015 0.0
C317 C 0.83428 0.46153 0.48257 0.0
C318 C 0.93715 0.58136 0.53472 0.0
C319 C 0.96889 0.42424 0.45952 0.0
H320 H 0.19441 0.56426 0.44504 0.0
H321 H 0.24108 0.46123 0.54273 0.0
H322 H 0.9703 0.55653 0.4295 0.0
H323 H 0.03166 0.60223 0.44367 0.0
H324 H 0.05844 0.56231 0.40025 0.0
H325 H 0.13027 0.44685 0.58657 0.0
H326 H 0.02608 0.45776 0.56561 0.0
H327 H 0.09256 0.4134 0.54079 0.0
H328 H 0.78056 0.56534 0.52711 0.0
H329 H 0.80911 0.43098 0.47007 0.0
H330 H 0.95264 0.60311 0.50813 0.0
H331 H 0.99317 0.57187 0.55628 0.0
H332 H 0.89265 0.60185 0.55485 0.0
H333 H 0.02522 0.43354 0.44672 0.0
H334 H 0.93258 0.40889 0.43169 0.0
H335 H 0.98503 0.39771 0.48489 0.0
C336 C 0.09828 0.98777 0.343 0.0
C337 C 0.0321 1.00381 0.36736 0.0
C338 C 0.09662 0.99338 0.29672 0.0
C339 C 0.02653 0.01522 0.2735 0.0
C340 C 0.95977 0.0323 0.29801 0.0
C341 C 0.96351 0.02667 0.34467 0.0
C342 C 0.16986 0.97526 0.27256 0.0
C343 C 0.88363 0.0555 0.27475 0.0
C344 C 0.05552 0.06086 0.15896 0.0
C345 C 0.03378 0.02539 0.12992 0.0
C346 C 0.05152 0.05851 0.2054 0.0
C347 C 0.02409 0.01997 0.2237 0.0
C348 C 0.99991 0.98456 0.19439 0.0
C349 C 1.00543 0.98757 0.14801 0.0
C350 C 0.07894 0.09683 0.23503 0.0
C351 C 0.96956 0.94302 0.21213 0.0
H352 H 0.15166 0.97016 0.36023 0.0
H353 H 0.91184 0.03882 0.3631 0.0
H354 H 0.15364 0.94864 0.24775 0.0
H355 H 0.19111 1.00294 0.25408 0.0
H356 H 0.22056 0.9604 0.29556 0.0
H357 H 0.83769 0.06771 0.2984 0.0
H358 H 0.89782 0.08491 0.25599 0.0
H359 H 0.85713 0.03152 0.25021 0.0
H360 H 0.07721 0.09035 0.14542 0.0
H361 H 0.98788 0.96017 0.12589 0.0
H362 H 0.1326 0.08396 0.25696 0.0
H363 H 0.03078 0.11004 0.2569 0.0
H364 H 0.09495 0.12544 0.21567 0.0
H365 H 0.01886 0.92363 0.23279 0.0
H366 H 0.94749 0.92012 0.18505 0.0
H367 H 0.91973 0.95333 0.23389 0.0
C368 C 0.93745 0.02431 0.84018 0.0
C369 C 0.99389 0.99618 0.86656 0.0
C370 C 0.94237 0.02602 0.79369 0.0
C371 C 1.00708 1.00026 0.77319 0.0
C372 C 0.06498 0.97236 0.80012 0.0
C373 C 0.05667 0.96994 0.84622 0.0
C374 C 0.87795 0.05526 0.76645 0.0
C375 C 0.13666 0.94572 0.7804 0.0
C376 C 0.98963 0.98086 0.64598 0.0
C377 C 0.02566 0.01784 0.63153 0.0
C378 C 0.98373 0.97428 0.69193 0.0
C379 C 0.01649 0.00469 0.7242 0.0
C380 C 0.0562 0.04073 0.70948 0.0
C381 C 0.05913 0.04719 0.6636 0.0
C382 C 0.9394 0.93597 0.70585 0.0
C383 C 0.09426 0.07324 0.74224 0.0
H384 H 0.88816 0.04408 0.85577 0.0
H385 H 0.10027 0.94808 0.86664 0.0
H386 H 0.90498 0.08322 0.75149 0.0
H387 H 0.8517 0.03472 0.73866 0.0
H388 H 0.82846 0.0704 0.78669 0.0
H389 H 0.17662 0.92591 0.80578 0.0
H390 H 0.11584 0.92192 0.7539 0.0
H391 H 0.17266 0.9693 0.76468 0.0
H392 H 0.96269 0.95841 0.62139 0.0
H393 H 0.0872 0.07583 0.65268 0.0
H394 H 0.88503 0.95024 0.72267 0.0
H395 H 0.97821 0.91434 0.73019 0.0
H396 H 0.92015 0.91425 0.6771 0.0
H397 H 0.04666 0.09359 0.7603 0.0
H398 H 0.12883 0.097 0.72568 0.0
H399 H 0.13559 0.05405 0.76742 0.0
C400 C 0.42182 0.48702 0.33351 0.0
C401 C 0.48101 0.50176 0.36454 0.0
C402 C 0.42358 0.49394 0.28756 0.0
C403 C 0.48817 0.51452 0.27165 0.0
C404 C 0.54725 0.53054 0.30308 0.0
C405 C 0.54247 0.52441 0.34918 0.0
C406 C 0.35766 0.47764 0.2559 0.0
C407 C 0.61825 0.55169 0.28791 0.0
C408 C 0.53702 0.48216 0.15145 0.0
C409 C 0.50677 0.52173 0.12854 0.0
C410 C 0.53318 0.47982 0.19802 0.0
C411 C 0.4954 0.51729 0.22221 0.0
C412 C 0.46271 0.5568 0.19877 0.0
C413 C 0.4703 0.55886 0.15257 0.0
C414 C 0.57099 0.43746 0.22149 0.0
C415 C 0.41905 0.59686 0.22243 0.0
H416 H 0.37498 0.46878 0.34519 0.0
H417 H 0.58973 0.5346 0.37289 0.0
H418 H 0.33312 0.50485 0.23246 0.0
H419 H 0.38284 0.44815 0.23576 0.0
H420 H 0.3072 0.4671 0.27368 0.0
H421 H 0.65632 0.56481 0.31628 0.0
H422 H 0.65625 0.5259 0.26894 0.0
H423 H 0.59718 0.58005 0.26517 0.0
H424 H 0.56636 0.45361 0.13321 0.0
H425 H 0.44684 0.58956 0.13501 0.0
H426 H 0.52397 0.42097 0.23697 0.0
H427 H 0.61551 0.4466 0.24868 0.0
H428 H 0.602 0.4124 0.19853 0.0
H429 H 0.36821 0.58563 0.23933 0.0
H430 H 0.39478 0.62446 0.19931 0.0
H431 H 0.46054 0.61091 0.24853 0.0
C432 C 0.58753 0.53031 0.65577 0.0
C433 C 0.53009 0.51262 0.62555 0.0
C434 C 0.58775 0.5243 0.70197 0.0
C435 C 0.52693 0.50146 0.71901 0.0
C436 C 0.46973 0.48245 0.68845 0.0
C437 C 0.47251 0.48783 0.64205 0.0
C438 C 0.65166 0.54391 0.73265 0.0
C439 C 0.40275 0.45867 0.70485 0.0
C440 C 0.55521 0.45993 0.83919 0.0
C441 C 0.51516 0.49617 0.86287 0.0
C442 C 0.56042 0.46138 0.79274 0.0
C443 C 0.5218 0.49925 0.7687 0.0
C444 C 0.48052 0.53583 0.79254 0.0
C445 C 0.47896 0.53422 0.83933 0.0
C446 C 0.60783 0.42245 0.76943 0.0
C447 C 0.4366 0.57637 0.76847 0.0
H448 H 0.63143 0.55009 0.6432 0.0
H449 H 0.42659 0.4752 0.61896 0.0
H450 H 0.62345 0.57272 0.75256 0.0
H451 H 0.68042 0.51789 0.75636 0.0
H452 H 0.69943 0.55642 0.71411 0.0
H453 H 0.36573 0.44367 0.67711 0.0
H454 H 0.42797 0.43127 0.72788 0.0
H455 H 0.36268 0.48334 0.72385 0.0
H456 H 0.58316 0.43037 0.85721 0.0
H457 H 0.44676 0.562 0.85728 0.0
H458 H 0.65583 0.43544 0.75151 0.0
H459 H 0.56763 0.40615 0.74421 0.0
H460 H 0.63642 0.39615 0.79296 0.0
H461 H 0.48016 0.5945 0.75183 0.0
H462 H 0.40369 0.60077 0.79128 0.0
H463 H 0.39266 0.56484 0.74213 0.0
loop_
_geom_bond_atom_site_label_1
_geom_bond_atom_site_label_2
_geom_bond_distance
_geom_bond_site_symmetry_2
_ccdc_geom_bond_type
Dy0 O4 2.398 . S
Dy0 O5 2.491 1_566 S
Dy0 O6 2.403 . S
Dy0 O7 2.664 1_655 S
Dy0 O11 2.326 1_565 S
Dy0 O15 2.310 1_566 S
Dy0 O16 2.351 1_655 S
C1 O12 1.185 . S
C1 O13 1.355 1_544 S
C2 O4 1.185 . S
C2 O5 1.355 1_566 S
Dy3 O7 2.310 1_544 S
Dy3 O10 2.351 1_455 S
Dy3 O12 2.398 . S
Dy3 O13 2.491 1_544 S
Dy3 O14 2.403 . S
Dy3 O15 2.664 1_455 S
Dy3 O17 2.326 1_545 S
O4 Dy0 2.398 . S
O4 C2 1.185 . S
O5 Dy0 2.491 1_544 S
O5 C2 1.355 1_544 S
O6 Dy0 2.403 . S
O6 C8 1.254 . S
O7 Dy0 2.664 1_455 S
O7 Dy3 2.310 1_566 S
O7 C8 1.268 1_455 S
C8 O6 1.254 . S
C8 O7 1.268 1_655 S
C9 O14 1.254 . S
C9 O15 1.268 1_455 S
O10 Dy3 2.351 1_655 S
O10 C18 1.249 1_554 S
O11 Dy0 2.326 1_545 S
O11 C18 1.267 . S
O12 C1 1.185 . S
O12 Dy3 2.398 . S
O13 C1 1.355 1_566 S
O13 Dy3 2.491 1_566 S
O14 Dy3 2.403 . S
O14 C9 1.254 . S
O15 Dy0 2.310 1_544 S
O15 Dy3 2.664 1_655 S
O15 C9 1.268 1_655 S
O16 Dy0 2.351 1_455 S
O16 C19 1.249 1_556 S
O17 Dy3 2.326 1_565 S
O17 C19 1.267 . S
C18 O10 1.249 1_556 S
C18 O11 1.267 . S
C19 O16 1.249 1_554 S
C19 O17 1.267 . S
Dy20 O24 2.398 1_455 S
Dy20 O25 2.491 1_455 S
Dy20 O26 2.403 1_455 S
Dy20 O27 2.664 1_565 S
Dy20 O31 2.326 1_455 S
Dy20 O35 2.310 1_455 S
Dy20 O36 2.351 . S
C21 O32 1.185 . S
C21 O33 1.355 . S
C22 O24 1.185 . S
C22 O25 1.355 . S
Dy23 O27 2.310 1_655 S
Dy23 O30 2.351 . S
Dy23 O32 2.398 1_655 S
Dy23 O33 2.491 1_655 S
Dy23 O34 2.403 1_655 S
Dy23 O35 2.664 1_545 S
Dy23 O37 2.326 1_655 S
O24 Dy20 2.398 1_655 S
O24 C22 1.185 . S
O25 Dy20 2.491 1_655 S
O25 C22 1.355 . S
O26 Dy20 2.403 1_655 S
O26 C28 1.254 1_655 S
O27 Dy20 2.664 1_545 S
O27 Dy23 2.310 1_455 S
O27 C28 1.268 1_545 S
C28 O26 1.254 1_455 S
C28 O27 1.268 1_565 S
C29 O34 1.254 1_655 S
C29 O35 1.268 1_545 S
O30 Dy23 2.351 . S
O30 C38 1.249 . S
O31 Dy20 2.326 1_655 S
O31 C38 1.267 1_565 S
O32 C21 1.185 . S
O32 Dy23 2.398 1_455 S
O33 C21 1.355 . S
O33 Dy23 2.491 1_455 S
O34 Dy23 2.403 1_455 S
O34 C29 1.254 1_455 S
O35 Dy20 2.310 1_655 S
O35 Dy23 2.664 1_565 S
O35 C29 1.268 1_565 S
O36 Dy20 2.351 . S
O36 C39 1.249 . S
O37 Dy23 2.326 1_455 S
O37 C39 1.267 1_545 S
C38 O30 1.249 . S
C38 O31 1.267 1_545 S
C39 O36 1.249 . S
C39 O37 1.267 1_565 S
Dy40 O44 2.398 . S
Dy40 O45 2.491 1_556 S
Dy40 O46 2.403 . S
Dy40 O47 2.664 . S
Dy40 O51 2.326 . S
Dy40 O55 2.310 1_556 S
Dy40 O56 2.351 . S
C41 O52 1.185 . S
C41 O53 1.355 1_554 S
C42 O44 1.185 . S
C42 O45 1.355 1_556 S
Dy43 O47 2.310 1_554 S
Dy43 O50 2.351 . S
Dy43 O52 2.398 . S
Dy43 O53 2.491 1_554 S
Dy43 O54 2.403 . S
Dy43 O55 2.664 . S
Dy43 O57 2.326 . S
O44 Dy40 2.398 . S
O44 C42 1.185 . S
O45 Dy40 2.491 1_554 S
O45 C42 1.355 1_554 S
O46 Dy40 2.403 . S
O46 C48 1.254 . S
O47 Dy40 2.664 . S
O47 Dy43 2.310 1_556 S
O47 C48 1.268 . S
C48 O46 1.254 . S
C48 O47 1.268 . S
C49 O54 1.254 . S
C49 O55 1.268 . S
O50 Dy43 2.351 . S
O50 C58 1.249 1_554 S
O51 Dy40 2.326 . S
O51 C58 1.267 . S
O52 C41 1.185 . S
O52 Dy43 2.398 . S
O53 C41 1.355 1_556 S
O53 Dy43 2.491 1_556 S
O54 Dy43 2.403 . S
O54 C49 1.254 . S
O55 Dy40 2.310 1_554 S
O55 Dy43 2.664 . S
O55 C49 1.268 . S
O56 Dy40 2.351 . S
O56 C59 1.249 1_556 S
O57 Dy43 2.326 . S
O57 C59 1.267 . S
C58 O50 1.249 1_556 S
C58 O51 1.267 . S
C59 O56 1.249 1_554 S
C59 O57 1.267 . S
Dy60 O64 2.398 . S
Dy60 O65 2.491 . S
Dy60 O66 2.403 . S
Dy60 O67 2.664 . S
Dy60 O71 2.326 . S
Dy60 O75 2.310 . S
Dy60 O76 2.351 . S
C61 O72 1.185 . S
C61 O73 1.355 . S
C62 O64 1.185 . S
C62 O65 1.355 . S
Dy63 O67 2.310 . S
Dy63 O70 2.351 . S
Dy63 O72 2.398 . S
Dy63 O73 2.491 . S
Dy63 O74 2.403 . S
Dy63 O75 2.664 . S
Dy63 O77 2.326 . S
O64 Dy60 2.398 . S
O64 C62 1.185 . S
O65 Dy60 2.491 . S
O65 C62 1.355 . S
O66 Dy60 2.403 . S
O66 C68 1.254 . S
O67 Dy60 2.664 . S
O67 Dy63 2.310 . S
O67 C68 1.268 . S
C68 O66 1.254 . S
C68 O67 1.268 . S
C69 O74 1.254 . S
C69 O75 1.268 . S
O70 Dy63 2.351 . S
O70 C78 1.249 . S
O71 Dy60 2.326 . S
O71 C78 1.267 . S
O72 C61 1.185 . S
O72 Dy63 2.398 . S
O73 C61 1.355 . S
O73 Dy63 2.491 . S
O74 Dy63 2.403 . S
O74 C69 1.254 . S
O75 Dy60 2.310 . S
O75 Dy63 2.664 . S
O75 C69 1.268 . S
O76 Dy60 2.351 . S
O76 C79 1.249 . S
O77 Dy63 2.326 . S
O77 C79 1.267 . S
C78 O70 1.249 . S
C78 O71 1.267 . S
C79 O76 1.249 . S
C79 O77 1.267 . S
C80 C81 1.376 1_554 S
C80 C82 1.394 . S
C80 H96 0.931 . S
C81 C80 1.376 1_556 S
C81 C85 1.392 . S
C82 C80 1.394 . S
C82 C83 1.369 1_554 S
C82 C86 1.531 . S
C83 C82 1.369 1_556 S
C83 C84 1.410 . S
C83 C91 1.503 . S
C84 C83 1.410 . S
C84 C85 1.392 . S
C84 C87 1.511 . S
C85 C81 1.392 . S
C85 C84 1.392 . S
C85 H97 0.929 . S
C86 C82 1.531 . S
C86 H98 0.960 . S
C86 H99 0.962 . S
C86 H100 0.960 . S
C87 C84 1.511 . S
C87 H101 0.961 . S
C87 H102 0.961 . S
C87 H103 0.961 . S
C88 C89 1.370 1_554 S
C88 C90 1.363 . S
C88 H104 0.931 . S
C89 C88 1.370 1_556 S
C89 C93 1.408 . S
C90 C88 1.363 . S
C90 C91 1.370 1_554 S
C90 C94 1.524 . S
C91 C83 1.503 . S
C91 C90 1.370 1_556 S
C91 C92 1.403 . S
C92 C91 1.403 . S
C92 C93 1.404 . S
C92 C95 1.539 . S
C93 C89 1.408 . S
C93 C92 1.404 . S
C93 H105 0.930 . S
C94 C90 1.524 . S
C94 H106 0.956 . S
C94 H107 0.961 . S
C94 H108 0.961 . S
C95 C92 1.539 . S
C95 H109 0.958 . S
C95 H110 0.961 . S
C95 H111 0.960 . S
H96 C80 0.931 . S
H97 C85 0.929 . S
H98 C86 0.960 . S
H99 C86 0.962 . S
H100 C86 0.960 . S
H101 C87 0.961 . S
H102 C87 0.961 . S
H103 C87 0.961 . S
H104 C88 0.931 . S
H105 C93 0.930 . S
H106 C94 0.956 . S
H107 C94 0.961 . S
H108 C94 0.961 . S
H109 C95 0.958 . S
H110 C95 0.961 . S
H111 C95 0.960 . S
C112 C113 1.391 . S
C112 C114 1.394 . S
C112 H128 0.931 . S
C113 C112 1.391 . S
C113 C117 1.376 1_556 S
C114 C112 1.394 . S
C114 C115 1.369 . S
C114 C118 1.531 . S
C115 C114 1.369 . S
C115 C116 1.410 1_556 S
C115 C123 1.503 . S
C116 C115 1.410 1_554 S
C116 C117 1.392 . S
C116 C119 1.511 . S
C117 C113 1.376 1_554 S
C117 C116 1.392 . S
C117 H129 0.929 . S
C118 C114 1.531 . S
C118 H130 0.960 . S
C118 H131 0.962 . S
C118 H132 0.960 . S
C119 C116 1.511 . S
C119 H133 0.961 . S
C119 H134 0.961 . S
C119 H135 0.961 . S
C120 C121 1.371 . S
C120 C122 1.363 . S
C120 H136 0.931 . S
C121 C120 1.371 . S
C121 C125 1.408 1_554 S
C122 C120 1.363 . S
C122 C123 1.370 1_554 S
C122 C126 1.524 . S
C123 C115 1.503 . S
C123 C122 1.370 1_556 S
C123 C124 1.403 . S
C124 C123 1.403 . S
C124 C125 1.404 . S
C124 C127 1.539 . S
C125 C121 1.408 1_556 S
C125 C124 1.404 . S
C125 H137 0.930 . S
C126 C122 1.524 . S
C126 H138 0.956 . S
C126 H139 0.961 . S
C126 H140 0.961 . S
C127 C124 1.539 . S
C127 H141 0.958 . S
C127 H142 0.961 . S
C127 H143 0.960 . S
H128 C112 0.931 . S
H129 C117 0.929 . S
H130 C118 0.960 . S
H131 C118 0.962 . S
H132 C118 0.960 . S
H133 C119 0.961 . S
H134 C119 0.961 . S
H135 C119 0.961 . S
H136 C120 0.931 . S
H137 C125 0.930 . S
H138 C126 0.956 . S
H139 C126 0.961 . S
H140 C126 0.961 . S
H141 C127 0.958 . S
H142 C127 0.961 . S
H143 C127 0.960 . S
C144 C145 1.391 . S
C144 C146 1.394 . S
C144 H160 0.931 . S
C145 C144 1.391 . S
C145 C149 1.376 . S
C146 C144 1.394 . S
C146 C147 1.369 . S
C146 C150 1.531 . S
C147 C146 1.369 . S
C147 C148 1.410 . S
C147 C155 1.503 . S
C148 C147 1.410 . S
C148 C149 1.392 . S
C148 C151 1.511 . S
C149 C145 1.376 . S
C149 C148 1.392 . S
C149 H161 0.929 . S
C150 C146 1.531 . S
C150 H162 0.960 . S
C150 H163 0.962 . S
C150 H164 0.960 . S
C151 C148 1.511 . S
C151 H165 0.961 . S
C151 H166 0.961 . S
C151 H167 0.961 . S
C152 C153 1.370 . S
C152 C154 1.363 . S
C152 H168 0.931 . S
C153 C152 1.370 . S
C153 C157 1.408 . S
C154 C152 1.363 . S
C154 C155 1.370 . S
C154 C158 1.524 . S
C155 C147 1.503 . S
C155 C154 1.370 . S
C155 C156 1.403 . S
C156 C155 1.403 . S
C156 C157 1.404 . S
C156 C159 1.539 . S
C157 C153 1.408 . S
C157 C156 1.404 . S
C157 H169 0.930 . S
C158 C154 1.524 . S
C158 H170 0.956 . S
C158 H171 0.961 . S
C158 H172 0.961 . S
C159 C156 1.539 . S
C159 H173 0.958 . S
C159 H174 0.961 . S
C159 H175 0.960 . S
H160 C144 0.931 . S
H161 C149 0.929 . S
H162 C150 0.960 . S
H163 C150 0.962 . S
H164 C150 0.960 . S
H165 C151 0.961 . S
H166 C151 0.961 . S
H167 C151 0.961 . S
H168 C152 0.931 . S
H169 C157 0.930 . S
H170 C158 0.956 . S
H171 C158 0.961 . S
H172 C158 0.961 . S
H173 C159 0.958 . S
H174 C159 0.961 . S
H175 C159 0.960 . S
C176 C177 1.391 . S
C176 C178 1.394 . S
C176 H192 0.931 . S
C177 C176 1.391 . S
C177 C181 1.376 . S
C178 C176 1.394 . S
C178 C179 1.369 . S
C178 C182 1.531 . S
C179 C178 1.369 . S
C179 C180 1.410 . S
C179 C187 1.503 . S
C180 C179 1.410 . S
C180 C181 1.392 . S
C180 C183 1.511 . S
C181 C177 1.376 . S
C181 C180 1.392 . S
C181 H193 0.929 . S
C182 C178 1.531 . S
C182 H194 0.960 . S
C182 H195 0.962 . S
C182 H196 0.960 . S
C183 C180 1.511 . S
C183 H197 0.961 . S
C183 H198 0.961 . S
C183 H199 0.961 . S
C184 C185 1.370 . S
C184 C186 1.363 . S
C184 H200 0.931 . S
C185 C184 1.370 . S
C185 C189 1.408 . S
C186 C184 1.363 . S
C186 C187 1.370 . S
C186 C190 1.524 . S
C187 C179 1.503 . S
C187 C186 1.370 . S
C187 C188 1.403 . S
C188 C187 1.403 . S
C188 C189 1.404 . S
C188 C191 1.539 . S
C189 C185 1.408 . S
C189 C188 1.404 . S
C189 H201 0.930 . S
C190 C186 1.524 . S
C190 H202 0.956 . S
C190 H203 0.961 . S
C190 H204 0.961 . S
C191 C188 1.539 . S
C191 H205 0.958 . S
C191 H206 0.961 . S
C191 H207 0.960 . S
H192 C176 0.931 . S
H193 C181 0.929 . S
H194 C182 0.960 . S
H195 C182 0.962 . S
H196 C182 0.960 . S
H197 C183 0.961 . S
H198 C183 0.961 . S
H199 C183 0.961 . S
H200 C184 0.931 . S
H201 C189 0.930 . S
H202 C190 0.956 . S
H203 C190 0.961 . S
H204 C190 0.961 . S
H205 C191 0.958 . S
H206 C191 0.961 . S
H207 C191 0.960 . S
C208 C209 1.391 . S
C208 C210 1.394 . S
C208 H224 0.931 . S
C209 C208 1.391 . S
C209 C213 1.376 1_566 S
C210 C208 1.394 . S
C210 C211 1.369 1_565 S
C210 C214 1.531 . S
C211 C210 1.369 1_545 S
C211 C212 1.410 1_556 S
C211 C219 1.503 . S
C212 C211 1.410 1_554 S
C212 C213 1.392 . S
C212 C215 1.511 . S
C213 C209 1.376 1_544 S
C213 C212 1.392 . S
C213 H225 0.929 . S
C214 C210 1.531 . S
C214 H226 0.960 . S
C214 H227 0.962 . S
C214 H228 0.960 . S
C215 C212 1.511 . S
C215 H229 0.961 . S
C215 H230 0.961 . S
C215 H231 0.961 1_554 S
C216 C217 1.370 1_564 S
C216 C218 1.363 . S
C216 H232 0.931 . S
C217 C216 1.370 1_546 S
C217 C221 1.408 . S
C218 C216 1.363 . S
C218 C219 1.370 1_564 S
C218 C222 1.524 . S
C219 C211 1.503 . S
C219 C218 1.370 1_546 S
C219 C220 1.403 . S
C220 C219 1.403 . S
C220 C221 1.404 . S
C220 C223 1.539 . S
C221 C217 1.408 . S
C221 C220 1.404 . S
C221 H233 0.930 . S
C222 C218 1.524 . S
C222 H234 0.956 . S
C222 H235 0.961 . S
C222 H236 0.961 . S
C223 C220 1.539 . S
C223 H237 0.958 . S
C223 H238 0.961 . S
C223 H239 0.960 . S
H224 C208 0.931 . S
H225 C213 0.929 . S
H226 C214 0.960 . S
H227 C214 0.962 . S
H228 C214 0.960 . S
H229 C215 0.961 . S
H230 C215 0.961 . S
H231 C215 0.961 1_556 S
H232 C216 0.931 . S
H233 C221 0.930 . S
H234 C222 0.956 . S
H235 C222 0.961 . S
H236 C222 0.961 . S
H237 C223 0.958 . S
H238 C223 0.961 . S
H239 C223 0.960 . S
C240 C241 1.391 . S
C240 C242 1.394 . S
C240 H256 0.931 . S
C241 C240 1.391 . S
C241 C245 1.376 1_565 S
C242 C240 1.394 . S
C242 C243 1.369 . S
C242 C246 1.531 . S
C243 C242 1.369 . S
C243 C244 1.410 1_565 S
C243 C251 1.504 . S
C244 C243 1.410 1_545 S
C244 C245 1.392 . S
C244 C247 1.511 . S
C245 C241 1.376 1_545 S
C245 C244 1.392 . S
C245 H257 0.929 . S
C246 C242 1.531 . S
C246 H258 0.960 . S
C246 H259 0.962 . S
C246 H260 0.960 . S
C247 C244 1.511 . S
C247 H261 0.961 . S
C247 H262 0.961 . S
C247 H263 0.961 . S
C248 C249 1.370 . S
C248 C250 1.363 . S
C248 H264 0.931 . S
C249 C248 1.370 . S
C249 C253 1.408 1_545 S
C250 C248 1.363 . S
C250 C251 1.370 1_545 S
C250 C254 1.524 . S
C251 C243 1.504 . S
C251 C250 1.370 1_565 S
C251 C252 1.403 . S
C252 C251 1.403 . S
C252 C253 1.404 . S
C252 C255 1.539 . S
C253 C249 1.408 1_565 S
C253 C252 1.404 . S
C253 H265 0.930 . S
C254 C250 1.524 . S
C254 H266 0.956 1_545 S
C254 H267 0.961 . S
C254 H268 0.961 . S
C255 C252 1.539 . S
C255 H269 0.958 . S
C255 H270 0.961 1_565 S
C255 H271 0.960 1_565 S
H256 C240 0.931 . S
H257 C245 0.929 . S
H258 C246 0.960 . S
H259 C246 0.962 . S
H260 C246 0.960 . S
H261 C247 0.961 . S
H262 C247 0.961 . S
H263 C247 0.961 . S
H264 C248 0.931 . S
H265 C253 0.930 . S
H266 C254 0.956 1_565 S
H267 C254 0.961 . S
H268 C254 0.961 . S
H269 C255 0.958 . S
H270 C255 0.961 1_545 S
H271 C255 0.960 1_545 S
C272 C273 1.391 1_554 S
C272 C274 1.394 1_554 S
C272 H288 0.931 . S
C273 C272 1.391 1_556 S
C273 C277 1.376 . S
C274 C272 1.394 1_556 S
C274 C275 1.369 . S
C274 C278 1.531 1_556 S
C275 C274 1.369 . S
C275 C276 1.410 . S
C275 C283 1.503 1_655 S
C276 C275 1.410 . S
C276 C277 1.392 . S
C276 C279 1.511 . S
C277 C273 1.376 . S
C277 C276 1.392 . S
C277 H289 0.929 . S
C278 C274 1.531 1_554 S
C278 H290 0.960 1_654 S
C278 H291 0.962 1_655 S
C278 H292 0.960 1_554 S
C279 C276 1.511 . S
C279 H293 0.961 . S
C279 H294 0.961 . S
C279 H295 0.961 . S
C280 C281 1.370 1_554 S
C280 C282 1.363 . S
C280 H296 0.931 . S
C281 C280 1.370 1_556 S
C281 C285 1.408 . S
C282 C280 1.363 . S
C282 C283 1.370 1_554 S
C282 C286 1.524 . S
C283 C275 1.503 1_455 S
C283 C282 1.370 1_556 S
C283 C284 1.403 . S
C284 C283 1.403 . S
C284 C285 1.404 . S
C284 C287 1.539 . S
C285 C281 1.408 . S
C285 C284 1.404 . S
C285 H297 0.930 . S
C286 C282 1.524 . S
C286 H298 0.956 . S
C286 H299 0.961 1_455 S
C286 H300 0.961 . S
C287 C284 1.539 . S
C287 H301 0.958 . S
C287 H302 0.961 . S
C287 H303 0.960 1_455 S
H288 C272 0.931 . S
H289 C277 0.929 . S
H290 C278 0.960 1_456 S
H291 C278 0.962 1_455 S
H292 C278 0.960 1_556 S
H293 C279 0.961 . S
H294 C279 0.961 . S
H295 C279 0.961 . S
H296 C280 0.931 . S
H297 C285 0.930 . S
H298 C286 0.956 . S
H299 C286 0.961 1_655 S
H300 C286 0.961 . S
H301 C287 0.958 . S
H302 C287 0.961 . S
H303 C287 0.960 1_655 S
C304 C305 1.391 . S
C304 C306 1.394 . S
C304 H320 0.931 . S
C305 C304 1.391 . S
C305 C309 1.376 . S
C306 C304 1.394 . S
C306 C307 1.369 . S
C306 C310 1.531 . S
C307 C306 1.369 . S
C307 C308 1.410 . S
C307 C315 1.503 1_455 S
C308 C307 1.410 . S
C308 C309 1.392 . S
C308 C311 1.511 . S
C309 C305 1.376 . S
C309 C308 1.392 . S
C309 H321 0.929 . S
C310 C306 1.531 . S
C310 H322 0.960 1_455 S
C310 H323 0.962 . S
C310 H324 0.960 . S
C311 C308 1.511 . S
C311 H325 0.961 . S
C311 H326 0.961 . S
C311 H327 0.961 . S
C312 C313 1.370 . S
C312 C314 1.363 . S
C312 H328 0.931 . S
C313 C312 1.370 . S
C313 C317 1.408 . S
C314 C312 1.363 . S
C314 C315 1.370 . S
C314 C318 1.524 . S
C315 C307 1.503 1_655 S
C315 C314 1.370 . S
C315 C316 1.403 . S
C316 C315 1.403 . S
C316 C317 1.404 . S
C316 C319 1.539 . S
C317 C313 1.408 . S
C317 C316 1.404 . S
C317 H329 0.930 . S
C318 C314 1.524 . S
C318 H330 0.956 . S
C318 H331 0.956 1_655 S
C318 H332 0.961 . S
C319 C316 1.539 . S
C319 H333 0.958 . S
C319 H334 0.961 . S
C319 H335 0.960 1_655 S
H320 C304 0.931 . S
H321 C309 0.929 . S
H322 C310 0.960 1_655 S
H323 C310 0.962 . S
H324 C310 0.960 . S
H325 C311 0.961 . S
H326 C311 0.961 . S
H327 C311 0.961 . S
H328 C312 0.931 . S
H329 C317 0.930 . S
H330 C318 0.956 . S
H331 C318 0.956 1_455 S
H332 C318 0.961 . S
H333 C319 0.958 . S
H334 C319 0.961 . S
H335 C319 0.960 1_455 S
C336 C337 1.391 1_455 S
C336 C338 1.394 . S
C336 H352 0.931 . S
C337 C336 1.391 1_655 S
C337 C341 1.376 1_565 S
C338 C336 1.394 . S
C338 C339 1.369 1_455 S
C338 C342 1.531 . S
C339 C338 1.369 1_655 S
C339 C340 1.410 1_565 S
C339 C347 1.503 . S
C340 C339 1.410 1_545 S
C340 C341 1.392 . S
C340 C343 1.511 . S
C341 C337 1.376 1_545 S
C341 C340 1.392 . S
C341 H353 0.929 . S
C342 C338 1.531 . S
C342 H354 0.960 . S
C342 H355 0.962 . S
C342 H356 0.960 . S
C343 C340 1.511 . S
C343 H357 0.961 . S
C343 H358 0.961 . S
C343 H359 0.961 . S
C344 C345 1.375 1_455 S
C344 C346 1.363 . S
C344 H360 0.931 . S
C345 C344 1.375 1_655 S
C345 C349 1.403 1_545 S
C346 C344 1.363 . S
C346 C347 1.370 1_445 S
C346 C350 1.524 . S
C347 C339 1.503 . S
C347 C346 1.370 1_665 S
C347 C348 1.403 . S
C348 C347 1.403 . S
C348 C349 1.404 . S
C348 C351 1.539 . S
C349 C345 1.403 1_565 S
C349 C348 1.404 . S
C349 H361 0.930 . S
C350 C346 1.524 . S
C350 H362 0.956 . S
C350 H363 0.961 . S
C350 H364 0.961 . S
C351 C348 1.539 . S
C351 H365 0.958 . S
C351 H366 0.961 . S
C351 H367 0.960 . S
H352 C336 0.931 . S
H353 C341 0.929 . S
H354 C342 0.960 . S
H355 C342 0.962 . S
H356 C342 0.960 . S
H357 C343 0.961 . S
H358 C343 0.961 . S
H359 C343 0.961 . S
H360 C344 0.931 . S
H361 C349 0.930 . S
H362 C350 0.956 . S
H363 C350 0.961 . S
H364 C350 0.961 . S
H365 C351 0.958 . S
H366 C351 0.961 . S
H367 C351 0.960 . S
C368 C369 1.391 1_655 S
C368 C370 1.394 . S
C368 H384 0.931 . S
C369 C368 1.391 1_455 S
C369 C373 1.376 1_545 S
C370 C368 1.394 . S
C370 C371 1.369 1_655 S
C370 C374 1.531 . S
C371 C370 1.369 1_455 S
C371 C372 1.410 1_545 S
C371 C379 1.503 . S
C372 C371 1.410 1_565 S
C372 C373 1.392 . S
C372 C375 1.511 . S
C373 C369 1.376 1_565 S
C373 C372 1.392 . S
C373 H385 0.929 . S
C374 C370 1.531 . S
C374 H386 0.960 . S
C374 H387 0.962 . S
C374 H388 0.960 . S
C375 C372 1.511 . S
C375 H389 0.961 . S
C375 H390 0.961 . S
C375 H391 0.961 . S
C376 C377 1.371 1_665 S
C376 C378 1.363 . S
C376 H392 0.931 . S
C377 C376 1.371 1_445 S
C377 C381 1.407 . S
C378 C376 1.363 . S
C378 C379 1.370 1_665 S
C378 C382 1.524 . S
C379 C371 1.503 . S
C379 C378 1.370 1_445 S
C379 C380 1.403 . S
C380 C379 1.403 . S
C380 C381 1.404 . S
C380 C383 1.539 . S
C381 C377 1.407 . S
C381 C380 1.404 . S
C381 H393 0.930 . S
C382 C378 1.524 . S
C382 H394 0.956 . S
C382 H395 0.961 . S
C382 H396 0.961 . S
C383 C380 1.539 . S
C383 H397 0.958 . S
C383 H398 0.961 . S
C383 H399 0.960 . S
H384 C368 0.931 . S
H385 C373 0.929 . S
H386 C374 0.960 . S
H387 C374 0.962 . S
H388 C374 0.960 . S
H389 C375 0.961 . S
H390 C375 0.961 . S
H391 C375 0.961 . S
H392 C376 0.931 . S
H393 C381 0.930 . S
H394 C382 0.956 . S
H395 C382 0.961 . S
H396 C382 0.961 . S
H397 C383 0.958 . S
H398 C383 0.961 . S
H399 C383 0.960 . S
C400 C401 1.391 . S
C400 C402 1.394 . S
C400 H416 0.931 . S
C401 C400 1.391 . S
C401 C405 1.376 . S
C402 C400 1.394 . S
C402 C403 1.369 . S
C402 C406 1.531 . S
C403 C402 1.369 . S
C403 C404 1.410 . S
C403 C411 1.503 . S
C404 C403 1.410 . S
C404 C405 1.392 . S
C404 C407 1.511 . S
C405 C401 1.376 . S
C405 C404 1.392 . S
C405 H417 0.929 . S
C406 C402 1.531 . S
C406 H418 0.960 . S
C406 H419 0.962 . S
C406 H420 0.960 . S
C407 C404 1.511 . S
C407 H421 0.961 . S
C407 H422 0.961 . S
C407 H423 0.961 . S
C408 C409 1.370 . S
C408 C410 1.363 . S
C408 H424 0.931 . S
C409 C408 1.370 . S
C409 C413 1.408 . S
C410 C408 1.363 . S
C410 C411 1.370 . S
C410 C414 1.524 . S
C411 C403 1.503 . S
C411 C410 1.370 . S
C411 C412 1.403 . S
C412 C411 1.403 . S
C412 C413 1.404 . S
C412 C415 1.539 . S
C413 C409 1.408 . S
C413 C412 1.404 . S
C413 H425 0.930 . S
C414 C410 1.524 . S
C414 H426 0.956 . S
C414 H427 0.961 . S
C414 H428 0.961 . S
C415 C412 1.539 . S
C415 H429 0.958 . S
C415 H430 0.961 . S
C415 H431 0.960 . S
H416 C400 0.931 . S
H417 C405 0.929 . S
H418 C406 0.960 . S
H419 C406 0.962 . S
H420 C406 0.960 . S
H421 C407 0.961 . S
H422 C407 0.961 . S
H423 C407 0.961 . S
H424 C408 0.931 . S
H425 C413 0.930 . S
H426 C414 0.956 . S
H427 C414 0.961 . S
H428 C414 0.961 . S
H429 C415 0.958 . S
H430 C415 0.961 . S
H431 C415 0.960 . S
C432 C433 1.391 . S
C432 C434 1.394 . S
C432 H448 0.931 . S
C433 C432 1.391 . S
C433 C437 1.376 . S
C434 C432 1.394 . S
C434 C435 1.369 . S
C434 C438 1.531 . S
C435 C434 1.369 . S
C435 C436 1.410 . S
C435 C443 1.503 . S
C436 C435 1.410 . S
C436 C437 1.392 . S
C436 C439 1.511 . S
C437 C433 1.376 . S
C437 C436 1.392 . S
C437 H449 0.929 . S
C438 C434 1.531 . S
C438 H450 0.960 . S
C438 H451 0.962 . S
C438 H452 0.960 . S
C439 C436 1.511 . S
C439 H453 0.961 . S
C439 H454 0.961 . S
C439 H455 0.961 . S
C440 C441 1.370 . S
C440 C442 1.363 . S
C440 H456 0.931 . S
C441 C440 1.370 . S
C441 C445 1.408 . S
C442 C440 1.363 . S
C442 C443 1.370 . S
C442 C446 1.524 . S
C443 C435 1.503 . S
C443 C442 1.370 . S
C443 C444 1.403 . S
C444 C443 1.403 . S
C444 C445 1.404 . S
C444 C447 1.539 . S
C445 C441 1.408 . S
C445 C444 1.404 . S
C445 H457 0.930 . S
C446 C442 1.524 . S
C446 H458 0.956 . S
C446 H459 0.961 . S
C446 H460 0.961 . S
C447 C444 1.539 . S
C447 H461 0.958 . S
C447 H462 0.961 . S
C447 H463 0.960 . S
H448 C432 0.931 . S
H449 C437 0.929 . S
H450 C438 0.960 . S
H451 C438 0.962 . S
H452 C438 0.960 . S
H453 C439 0.961 . S
H454 C439 0.961 . S
H455 C439 0.961 . S
H456 C440 0.931 . S
H457 C445 0.930 . S
H458 C446 0.956 . S
H459 C446 0.961 . S
H460 C446 0.961 . S
H461 C447 0.958 . S
H462 C447 0.961 . S
H463 C447 0.960 . S
C81 C58 2.022 . S
C89 C19 2.041 1_556 S
C113 C59 2.044 1_556 S
C121 C18 2.032 1_554 S
C145 C21 1.020 . S
C153 C62 1.030 . S
C177 C22 1.045 . S
C185 C61 1.023 . S
C209 C1 0.645 1_566 S
C217 C2 0.660 1_545 S
C241 C39 2.414 . S
C249 C38 2.410 . S
C273 C41 0.673 1_556 S
C281 C42 0.648 . S
C305 C78 2.405 . S
C313 C79 2.413 . S
C337 C28 1.427 1_655 S
C345 C9 1.469 1_655 S
C369 C8 1.478 1_445 S
C377 C29 1.446 1_455 S
C401 C68 1.475 . S
C409 C49 1.456 . S
C433 C69 1.428 . S
C441 C48 1.455 . S
