# Generated by pormake.
# Topology smn, (6)-cn, num edge types: 1
# Building blocks:
#     Node 0, Type 0, BuildingBlock: IZENUY_clean_sbu_0, # of connection points: 6
#     Node 1, Type 0, BuildingBlock: IZENUY_clean_sbu_0, # of connection points: 6
#     Node 2, Type 0, BuildingBlock: IZENUY_clean_sbu_0, # of connection points: 6
#     Node 3, Type 0, BuildingBlock: IZENUY_clean_sbu_0, # of connection points: 6
#     Node 4, Type 0, BuildingBlock: IZENUY_clean_sbu_0, # of connection points: 6
#     Node 5, Type 0, BuildingBlock: IZENUY_clean_sbu_0, # of connection points: 6
#     Node 6, Type 0, BuildingBlock: IZENUY_clean_sbu_0, # of connection points: 6
#     Node 7, Type 0, BuildingBlock: IZENUY_clean_sbu_0, # of connection points: 6
#     Node 8, Type 0, BuildingBlock: IZENUY_clean_sbu_0, # of connection points: 6
#     Node 9, Type 0, BuildingBlock: IZENUY_clean_sbu_0, # of connection points: 6
#     Node 10, Type 0, BuildingBlock: IZENUY_clean_sbu_0, # of connection points: 6
#     Node 11, Type 0, BuildingBlock: IZENUY_clean_sbu_0, # of connection points: 6
#     Node 12, Type 0, BuildingBlock: IZENUY_clean_sbu_0, # of connection points: 6
#     Node 13, Type 0, BuildingBlock: IZENUY_clean_sbu_0, # of connection points: 6
#     Node 14, Type 0, BuildingBlock: IZENUY_clean_sbu_0, # of connection points: 6
#     Node 15, Type 0, BuildingBlock: IZENUY_clean_sbu_0, # of connection points: 6
#     Node 16, Type 0, BuildingBlock: IZENUY_clean_sbu_0, # of connection points: 6
#     Node 17, Type 0, BuildingBlock: IZENUY_clean_sbu_0, # of connection points: 6
#     Edge 18, Type (0, 0), BuildingBlock: XIVTED_clean_linker_0, # of connection points: 2
#     Edge 19, Type (0, 0), BuildingBlock: XIVTED_clean_linker_0, # of connection points: 2
#     Edge 20, Type (0, 0), BuildingBlock: XIVTED_clean_linker_0, # of connection points: 2
#     Edge 21, Type (0, 0), BuildingBlock: XIVTED_clean_linker_0, # of connection points: 2
#     Edge 22, Type (0, 0), BuildingBlock: XIVTED_clean_linker_0, # of connection points: 2
#     Edge 23, Type (0, 0), BuildingBlock: XIVTED_clean_linker_0, # of connection points: 2
#     Edge 24, Type (0, 0), BuildingBlock: XIVTED_clean_linker_0, # of connection points: 2
#     Edge 25, Type (0, 0), BuildingBlock: XIVTED_clean_linker_0, # of connection points: 2
#     Edge 26, Type (0, 0), BuildingBlock: XIVTED_clean_linker_0, # of connection points: 2
#     Edge 27, Type (0, 0), BuildingBlock: XIVTED_clean_linker_0, # of connection points: 2
#     Edge 28, Type (0, 0), BuildingBlock: XIVTED_clean_linker_0, # of connection points: 2
#     Edge 29, Type (0, 0), BuildingBlock: XIVTED_clean_linker_0, # of connection points: 2
#     Edge 30, Type (0, 0), BuildingBlock: XIVTED_clean_linker_0, # of connection points: 2
#     Edge 31, Type (0, 0), BuildingBlock: XIVTED_clean_linker_0, # of connection points: 2
#     Edge 32, Type (0, 0), BuildingBlock: XIVTED_clean_linker_0, # of connection points: 2
#     Edge 33, Type (0, 0), BuildingBlock: XIVTED_clean_linker_0, # of connection points: 2
#     Edge 34, Type (0, 0), BuildingBlock: XIVTED_clean_linker_0, # of connection points: 2
#     Edge 35, Type (0, 0), BuildingBlock: XIVTED_clean_linker_0, # of connection points: 2
#     Edge 36, Type (0, 0), BuildingBlock: XIVTED_clean_linker_0, # of connection points: 2
#     Edge 37, Type (0, 0), BuildingBlock: XIVTED_clean_linker_0, # of connection points: 2
#     Edge 38, Type (0, 0), BuildingBlock: XIVTED_clean_linker_0, # of connection points: 2
#     Edge 39, Type (0, 0), BuildingBlock: XIVTED_clean_linker_0, # of connection points: 2
#     Edge 40, Type (0, 0), BuildingBlock: XIVTED_clean_linker_0, # of connection points: 2
#     Edge 41, Type (0, 0), BuildingBlock: XIVTED_clean_linker_0, # of connection points: 2
#     Edge 42, Type (0, 0), BuildingBlock: XIVTED_clean_linker_0, # of connection points: 2
#     Edge 43, Type (0, 0), BuildingBlock: XIVTED_clean_linker_0, # of connection points: 2
#     Edge 44, Type (0, 0), BuildingBlock: XIVTED_clean_linker_0, # of connection points: 2
#     Edge 45, Type (0, 0), BuildingBlock: XIVTED_clean_linker_0, # of connection points: 2
#     Edge 46, Type (0, 0), BuildingBlock: XIVTED_clean_linker_0, # of connection points: 2
#     Edge 47, Type (0, 0), BuildingBlock: XIVTED_clean_linker_0, # of connection points: 2
#     Edge 48, Type (0, 0), BuildingBlock: XIVTED_clean_linker_0, # of connection points: 2
#     Edge 49, Type (0, 0), BuildingBlock: XIVTED_clean_linker_0, # of connection points: 2
#     Edge 50, Type (0, 0), BuildingBlock: XIVTED_clean_linker_0, # of connection points: 2
#     Edge 51, Type (0, 0), BuildingBlock: XIVTED_clean_linker_0, # of connection points: 2
#     Edge 52, Type (0, 0), BuildingBlock: XIVTED_clean_linker_0, # of connection points: 2
#     Edge 53, Type (0, 0), BuildingBlock: XIVTED_clean_linker_0, # of connection points: 2
#     Edge 54, Type (0, 0), BuildingBlock: XIVTED_clean_linker_0, # of connection points: 2
#     Edge 55, Type (0, 0), BuildingBlock: XIVTED_clean_linker_0, # of connection points: 2
#     Edge 56, Type (0, 0), BuildingBlock: XIVTED_clean_linker_0, # of connection points: 2
#     Edge 57, Type (0, 0), BuildingBlock: XIVTED_clean_linker_0, # of connection points: 2
#     Edge 58, Type (0, 0), BuildingBlock: XIVTED_clean_linker_0, # of connection points: 2
#     Edge 59, Type (0, 0), BuildingBlock: XIVTED_clean_linker_0, # of connection points: 2
#     Edge 60, Type (0, 0), BuildingBlock: XIVTED_clean_linker_0, # of connection points: 2
#     Edge 61, Type (0, 0), BuildingBlock: XIVTED_clean_linker_0, # of connection points: 2
#     Edge 62, Type (0, 0), BuildingBlock: XIVTED_clean_linker_0, # of connection points: 2
#     Edge 63, Type (0, 0), BuildingBlock: XIVTED_clean_linker_0, # of connection points: 2
#     Edge 64, Type (0, 0), BuildingBlock: XIVTED_clean_linker_0, # of connection points: 2
#     Edge 65, Type (0, 0), BuildingBlock: XIVTED_clean_linker_0, # of connection points: 2
#     Edge 66, Type (0, 0), BuildingBlock: XIVTED_clean_linker_0, # of connection points: 2
#     Edge 67, Type (0, 0), BuildingBlock: XIVTED_clean_linker_0, # of connection points: 2
#     Edge 68, Type (0, 0), BuildingBlock: XIVTED_clean_linker_0, # of connection points: 2
#     Edge 69, Type (0, 0), BuildingBlock: XIVTED_clean_linker_0, # of connection points: 2
#     Edge 70, Type (0, 0), BuildingBlock: XIVTED_clean_linker_0, # of connection points: 2
#     Edge 71, Type (0, 0), BuildingBlock: XIVTED_clean_linker_0, # of connection points: 2
# Relax obj value: 0.165
# Max RMSD: 0.234
# Mean RMSD: 0.233
data_MOF--net-smn--node1-IZENUY_clean_sbu_0--edge1-XIVTED_clean_linker_0
_symmetry_space_group_name_H-M    P1
_symmetry_Int_Tables_number       1
_symmetry_cell_setting            triclinic
loop_
_symmetry_equiv_pos_as_xyz
'x, y, z'
_cell_length_a     62.519144
_cell_length_b     62.429795
_cell_length_c     18.650335
_cell_angle_alpha  90.04653
_cell_angle_beta   89.990433
_cell_angle_gamma 120.06159
loop_
_atom_site_label
_atom_site_type_symbol
_atom_site_fract_x
_atom_site_fract_y
_atom_site_fract_z
_atom_type_partial_charge
Fe0 Fe 0.01506 0.22645 0.6877 0.0
Fe1 Fe 0.02812 0.19108 0.76414 0.0
O2 O 0.02888 0.21995 0.76167 0.0
Fe3 Fe 0.04337 0.24113 0.8337 0.0
O4 O 0.01696 0.24459 0.84985 0.0
O5 O 1.0005 0.24055 0.74247 0.0
O6 O 0.98567 0.19736 0.69591 0.0
C7 C 0.98365 0.17635 0.69197 0.0
C8 C 0.05761 0.27261 0.70986 0.0
O9 O 1.00221 0.17422 0.70368 0.0
C10 C 0.07323 0.22085 0.83344 0.0
O11 O 0.0287 0.21389 0.62253 0.0
O12 O 0.04918 0.2005 0.68964 0.0
O13 O 0.05837 0.26918 0.77675 0.0
O14 O 0.04197 0.25591 0.66988 0.0
C15 C 1.01117 0.19381 0.89588 0.0
O16 O 0.05397 0.20031 0.82516 0.0
O17 O 0.07216 0.24029 0.82613 0.0
C18 C 0.04573 0.20834 0.63055 0.0
O19 O 1.00694 0.18145 0.83854 0.0
O20 O 0.02944 0.2159 0.90171 0.0
C21 C 1.00133 0.24531 0.80912 0.0
Fe22 Fe 0.81003 0.81888 0.83228 0.0
Fe23 Fe 0.85918 0.8537 0.75824 0.0
O24 O 0.83048 0.82536 0.75857 0.0
Fe25 Fe 0.82331 0.80456 0.68531 0.0
O26 O 0.79392 0.8023 0.6691 0.0
O27 O 0.78144 0.80499 0.77756 0.0
O28 O 0.8103 0.84825 0.82411 0.0
C29 C 0.82959 0.86904 0.82888 0.0
C30 C 0.80557 0.77257 0.80812 0.0
O31 O 0.85019 0.8707 0.81863 0.0
C32 C 0.87333 0.82314 0.68769 0.0
O33 O 0.83584 0.83101 0.89833 0.0
O34 O 0.86975 0.84316 0.83284 0.0
O35 O 0.80931 0.77614 0.74104 0.0
O36 O 0.80727 0.78931 0.84921 0.0
C37 C 0.84073 0.85272 0.6255 0.0
O38 O 0.87558 0.84403 0.69777 0.0
O39 O 0.85232 0.80417 0.69261 0.0
C40 C 0.85802 0.83536 0.8912 0.0
O41 O 0.84895 0.86455 0.68363 0.0
O42 O 0.83558 0.83022 0.61869 0.0
C43 C 0.7775 0.80094 0.71072 0.0
Fe44 Fe 0.23181 1.0074 0.83504 0.0
Fe45 Fe 0.19912 0.02437 0.76127 0.0
O46 O 0.2262 0.02181 0.76081 0.0
Fe47 Fe 0.24685 0.034 0.68713 0.0
O48 O 0.2469 1.00568 0.6718 0.0
O49 O 0.24488 0.99159 0.78121 0.0
O50 O 0.20185 0.97917 0.82608 0.0
C51 C 0.18169 0.97891 0.83197 0.0
C52 C 0.27876 0.0478 0.81004 0.0
O53 O 0.18123 0.99863 0.82254 0.0
C54 C 0.23155 0.06809 0.68906 0.0
O55 O 0.2205 0.022 0.901 0.0
O56 O 0.21163 0.04596 0.83452 0.0
O57 O 0.27538 0.04725 0.74258 0.0
O58 O 0.26176 0.0336 0.85171 0.0
C59 C 0.19798 1.00557 0.62881 0.0
O60 O 0.21006 0.05058 0.70024 0.0
O61 O 0.24945 0.06436 0.69347 0.0
C62 C 0.21883 0.04145 0.89294 0.0
O63 O 0.18666 1.0031 0.6873 0.0
O64 O 0.22093 0.0216 0.62122 0.0
C65 C 0.24814 0.99076 0.71419 0.0
Fe66 Fe 1.0138 0.80458 0.18538 0.0
Fe67 Fe 0.04179 0.81802 0.33176 0.0
O68 O 0.02746 0.82483 0.25975 0.0
Fe69 Fe 0.02671 0.85296 0.26256 0.0
O70 O 0.04775 0.86471 0.18804 0.0
O71 O 0.02728 0.83087 0.12058 0.0
O72 O 0.04086 0.80239 0.16746 0.0
C73 C 0.05632 0.80114 0.20758 0.0
C74 C 0.98223 0.82294 0.19014 0.0
O75 O 0.05682 0.80501 0.27466 0.0
C76 C 1.00967 0.83318 0.39423 0.0
O77 O 0.99936 0.77577 0.23947 0.0
O78 O 0.01532 0.78811 0.34739 0.0
O79 O 1.0007 0.84375 0.20227 0.0
O80 O 0.98436 0.80402 0.19384 0.0
C81 C 0.07179 0.86826 0.33209 0.0
O82 O 0.02781 0.8292 0.39994 0.0
O83 O 1.00556 0.8414 0.33697 0.0
C84 C 0.99994 0.77173 0.30611 0.0
O85 O 0.07062 0.84769 0.32467 0.0
O86 O 0.05262 0.86962 0.32353 0.0
C87 C 0.04426 0.8535 0.12876 0.0
Fe88 Fe 0.24672 0.22733 0.18783 0.0
Fe89 Fe 0.19889 0.18985 0.26289 0.0
O90 O 0.22641 0.21921 0.26221 0.0
Fe91 Fe 0.23278 0.23931 0.33685 0.0
O92 O 0.26246 0.2423 0.35229 0.0
O93 O 0.27549 0.24236 0.24229 0.0
O94 O 0.24867 0.19917 0.19355 0.0
C95 C 0.23041 0.17767 0.18942 0.0
C96 C 0.24931 0.27236 0.2162 0.0
O97 O 0.20913 0.17417 0.20106 0.0
C98 C 0.18273 0.21868 0.33513 0.0
O99 O 0.2206 0.21411 0.12265 0.0
O100 O 0.18662 0.19912 0.18965 0.0
O101 O 0.24637 0.26829 0.28329 0.0
O102 O 0.24727 0.25597 0.17324 0.0
C103 C 0.21882 0.19194 0.39383 0.0
O104 O 0.18166 0.19823 0.32506 0.0
O105 O 0.20317 0.23835 0.32921 0.0
C106 C 0.19783 0.20775 0.13091 0.0
O107 O 0.21119 0.1803 0.33536 0.0
O108 O 0.22105 0.21329 0.4025 0.0
C109 C 0.27923 0.24511 0.30965 0.0
Fe110 Fe 0.85934 0.02332 0.25907 0.0
Fe111 Fe 0.81015 1.00916 0.33263 0.0
O112 O 0.83072 0.02307 0.25916 0.0
Fe113 Fe 0.82374 0.03676 0.18584 0.0
O114 O 0.85279 0.06609 0.19353 0.0
O115 O 0.87595 0.04946 0.19871 0.0
O116 O 0.86996 0.04444 0.33375 0.0
C117 C 0.8582 0.04062 0.39201 0.0
C118 C 0.84092 1.0058 0.12622 0.0
O119 O 0.8359 0.0229 0.39895 0.0
C120 C 0.77782 0.99454 0.21059 0.0
O121 O 0.85013 0.99723 0.31943 0.0
O122 O 0.81026 0.98002 0.32462 0.0
O123 O 0.83591 0.02322 0.11935 0.0
O124 O 0.84907 1.0022 0.1844 0.0
C125 C 0.80597 0.05113 0.30832 0.0
O126 O 0.78162 0.99439 0.27751 0.0
O127 O 0.79433 0.00969 0.16931 0.0
C128 C 0.82942 0.97837 0.3298 0.0
O129 O 0.80749 0.03602 0.34941 0.0
O130 O 0.80983 0.05131 0.24131 0.0
C131 C 0.87374 0.0681 0.18837 0.0
Fe132 Fe 0.70834 0.57353 0.16832 0.0
Fe133 Fe 0.69173 0.5238 0.09506 0.0
O134 O 0.6946 0.55356 0.09352 0.0
Fe135 Fe 0.68337 0.56231 0.01826 0.0
O136 O 0.71233 0.59015 1.00403 0.0
O137 O 0.72408 0.60253 0.11492 0.0
O138 O 0.7367 0.57201 0.1611 0.0
C139 C 0.73695 0.55205 0.16692 0.0
C140 C 0.66887 0.58075 0.13907 0.0
O141 O 0.71727 0.53179 0.15716 0.0
C142 C 0.64849 0.51309 0.02134 0.0
O143 O 0.69375 0.54766 0.23424 0.0
O144 O 0.6699 0.51496 0.16734 0.0
O145 O 0.67064 0.57858 0.0717 0.0
O146 O 0.68178 0.57681 0.18279 0.0
C147 C 0.71096 0.54064 0.96261 0.0
O148 O 0.66569 0.50873 0.03353 0.0
O149 O 0.65264 0.53496 0.02389 0.0
C150 C 0.67423 0.52664 0.22575 0.0
O151 O 0.71321 0.53217 0.02198 0.0
O152 O 0.6953 0.54793 0.95381 0.0
C153 C 0.72618 0.60655 0.04774 0.0
Fe154 Fe 0.478 0.15216 0.16683 0.0
Fe155 Fe 0.5278 0.18497 0.09391 0.0
O156 O 0.49798 0.15814 0.09236 0.0
Fe157 Fe 0.48921 0.138 0.01739 0.0
O158 O 0.46154 0.13922 1.00257 0.0
O159 O 0.44907 0.139 0.11305 0.0
O160 O 0.47982 0.1822 0.15911 0.0
C161 C 0.49983 0.20235 0.1654 0.0
C162 C 0.47044 0.10521 0.13854 0.0
O163 O 0.51998 0.20276 0.15581 0.0
C164 C 0.53826 0.15213 0.02037 0.0
O165 O 0.5038 0.16334 0.23298 0.0
O166 O 0.53645 0.17191 0.16643 0.0
O167 O 0.4728 0.10903 0.07112 0.0
O168 O 0.47441 0.12221 0.18185 0.0
C169 C 0.51098 0.18726 0.96135 0.0
O170 O 0.54276 0.17379 0.03257 0.0
O171 O 0.5164 0.13447 0.02356 0.0
C172 C 0.52471 0.16463 0.22471 0.0
O173 O 0.51955 0.19809 0.02062 0.0
O174 O 0.50368 0.16425 0.95273 0.0
C175 C 0.44515 0.1369 0.0458 0.0
Fe176 Fe 0.89829 0.3421 0.16391 0.0
Fe177 Fe 0.86588 0.35952 0.09105 0.0
O178 O 0.89261 0.35643 0.08964 0.0
Fe179 Fe 0.91292 0.36805 0.01509 0.0
O180 O 0.91197 0.33921 0.99981 0.0
O181 O 0.91125 0.3262 0.10994 0.0
O182 O 0.86815 0.31395 0.15568 0.0
C183 C 0.84813 0.31401 0.16172 0.0
C184 C 0.9453 0.38177 0.1369 0.0
O185 O 0.84798 0.33391 0.15255 0.0
C186 C 0.89868 0.40297 0.0187 0.0
O187 O 0.88727 0.35685 0.23022 0.0
O188 O 0.8789 0.38117 0.16396 0.0
O189 O 0.94169 0.38068 0.06944 0.0
O190 O 0.92829 0.3683 0.17957 0.0
C191 C 0.86378 0.34056 0.95827 0.0
O192 O 0.87708 0.3857 0.03007 0.0
O193 O 0.91634 0.39881 0.02153 0.0
C194 C 0.88605 0.37655 0.22224 0.0
O195 O 0.85285 0.33823 0.01739 0.0
O196 O 0.8868 0.35623 0.95005 0.0
C197 C 0.91383 0.32477 0.04276 0.0
Fe198 Fe 0.68381 0.13858 0.51569 0.0
Fe199 Fe 0.70875 0.15345 0.66562 0.0
O200 O 0.69483 0.15899 0.59015 0.0
Fe201 Fe 0.69157 0.18566 0.59009 0.0
O202 O 0.71308 0.19864 0.517 0.0
O203 O 0.69545 0.16455 0.45017 0.0
O204 O 0.71296 0.14015 0.50212 0.0
C205 C 0.72697 0.13812 0.54629 0.0
C206 C 0.64848 0.15219 0.51716 0.0
O207 O 0.72482 0.14031 0.61333 0.0
C208 C 0.67415 0.16582 0.72136 0.0
O209 O 0.67145 0.10985 0.57029 0.0
O210 O 0.68247 0.12344 0.68095 0.0
O211 O 0.66553 0.17398 0.52833 0.0
O212 O 0.65292 0.1347 0.52084 0.0
C213 C 0.73682 0.20366 0.66245 0.0
O214 O 0.69383 0.16471 0.7305 0.0
O215 O 0.66973 0.17276 0.66242 0.0
C216 C 0.66975 0.10624 0.6378 0.0
O217 O 0.73686 0.18358 0.65756 0.0
O218 O 0.717 0.20384 0.65204 0.0
C219 C 0.71101 0.18762 0.45821 0.0
Fe220 Fe 0.86478 0.52287 0.5932 0.0
Fe221 Fe 0.91206 0.56122 0.51749 0.0
O222 O 0.89176 0.55263 0.59199 0.0
Fe223 Fe 0.89766 0.57268 0.66642 0.0
O224 O 0.86774 0.57097 0.65822 0.0
O225 O 0.84709 0.53079 0.65504 0.0
O226 O 0.85195 0.53137 0.51976 0.0
C227 C 0.86293 0.53998 0.46073 0.0
C228 C 0.88505 0.52584 0.72406 0.0
O229 O 0.8859 0.54715 0.45243 0.0
C230 C 0.94449 0.57971 0.63943 0.0
O231 O 0.87571 0.50771 0.53185 0.0
O232 O 0.91506 0.53366 0.5236 0.0
O233 O 0.88641 0.54681 0.73242 0.0
O234 O 0.87765 0.51404 0.66582 0.0
C235 C 0.91349 0.60564 0.54562 0.0
O236 O 0.94087 0.57716 0.57194 0.0
O237 O 0.92751 0.57624 0.68205 0.0
C238 C 0.89723 0.51188 0.52017 0.0
O239 O 0.9115 0.58931 0.50253 0.0
O240 O 0.91087 0.6016 0.61275 0.0
C241 C 0.84758 0.55101 0.66452 0.0
Fe242 Fe 0.47857 0.34216 0.66766 0.0
Fe243 Fe 0.52835 0.35962 0.59419 0.0
O244 O 0.49841 0.35627 0.59293 0.0
Fe245 Fe 0.48943 0.36741 0.51803 0.0
O246 O 0.46175 0.33835 0.50364 0.0
O247 O 0.4496 0.32602 0.61426 0.0
O248 O 0.48069 0.31409 0.66009 0.0
C249 C 0.50084 0.31426 0.66603 0.0
C250 C 0.47078 0.38142 0.63935 0.0
O251 O 0.52084 0.33419 0.65632 0.0
C252 C 0.53842 0.40273 0.52059 0.0
O253 O 0.50444 0.35719 0.73348 0.0
O254 O 0.53692 0.38147 0.66651 0.0
O255 O 0.47309 0.37994 0.57193 0.0
O256 O 0.4747 0.36837 0.68261 0.0
C257 C 0.51142 0.34016 0.46192 0.0
O258 O 0.54307 0.3857 0.53255 0.0
O259 O 0.51651 0.39829 0.52378 0.0
C260 C 0.52524 0.37697 0.72491 0.0
O261 O 0.52017 0.33813 0.52109 0.0
O262 O 0.50387 0.35564 0.45329 0.0
C263 C 0.44549 0.32419 0.54711 0.0
Fe264 Fe 0.37345 0.9062 0.50135 0.0
Fe265 Fe 0.34718 0.89148 0.35292 0.0
O266 O 0.36174 0.88588 0.42671 0.0
Fe267 Fe 0.36493 0.85915 0.42477 0.0
O268 O 0.34371 0.84598 0.49843 0.0
O269 O 0.36165 0.87995 0.5661 0.0
O270 O 0.34473 0.90531 0.51718 0.0
C271 C 0.32995 0.90678 0.47476 0.0
C272 C 0.40832 0.89195 0.49744 0.0
O273 O 0.33108 0.90403 0.40755 0.0
C274 C 0.38185 0.87967 0.29391 0.0
O275 O 0.38601 0.93503 0.44723 0.0
O276 O 0.37306 0.92172 0.33734 0.0
O277 O 0.39109 0.87033 0.48579 0.0
O278 O 0.40415 0.90962 0.49453 0.0
C279 C 0.31944 0.84122 0.35435 0.0
O280 O 0.36212 0.88081 0.28616 0.0
O281 O 0.3865 0.87237 0.35189 0.0
C282 C 0.38666 0.93875 0.37989 0.0
O283 O 0.31927 0.86119 0.36099 0.0
O284 O 0.33938 0.8412 0.36308 0.0
C285 C 0.34602 0.85689 0.55765 0.0
Fe286 Fe 0.14296 0.48256 0.49987 0.0
Fe287 Fe 0.19172 0.52077 0.43143 0.0
O288 O 0.16413 0.49157 0.42742 0.0
Fe289 Fe 0.15873 0.47257 0.35091 0.0
O290 O 0.12908 0.46942 0.33391 0.0
O291 O 0.11478 0.46772 0.44305 0.0
O292 O 0.14096 0.51074 0.49489 0.0
C293 C 0.15929 0.53211 0.5021 0.0
C294 C 0.14156 0.43825 0.4686 0.0
O295 O 0.18068 0.53535 0.4947 0.0
C296 C 0.20878 0.49339 0.35601 0.0
O297 O 0.16827 0.49534 0.56756 0.0
O298 O 0.20279 0.5097 0.50362 0.0
O299 O 0.14497 0.44299 0.40182 0.0
O300 O 0.14262 0.45394 0.51276 0.0
C301 C 0.17306 0.52085 0.2999 0.0
O302 O 0.20964 0.51358 0.3687 0.0
O303 O 0.18837 0.47362 0.35947 0.0
C304 C 0.19069 0.5004 0.56068 0.0
O305 O 0.18041 0.53167 0.35974 0.0
O306 O 0.17083 0.49958 0.28854 0.0
C307 C 0.11173 0.46562 0.37543 0.0
Fe308 Fe 0.57822 0.70345 0.35278 0.0
Fe309 Fe 0.56565 0.67644 0.50032 0.0
O310 O 0.5578 0.68911 0.42631 0.0
Fe311 Fe 0.52852 0.68735 0.42533 0.0
O312 O 0.51896 0.66619 0.3507 0.0
O313 O 0.55263 0.68947 0.28612 0.0
O314 O 0.58147 0.67694 0.33607 0.0
C315 C 0.58427 0.6628 0.378 0.0
C316 C 0.55745 0.73283 0.35607 0.0
O317 O 0.58091 0.66308 0.44527 0.0
C318 C 0.54586 0.70537 0.55874 0.0
O319 O 0.60685 0.7186 0.40741 0.0
O320 O 0.5943 0.70451 0.51662 0.0
O321 O 0.53709 0.71335 0.36512 0.0
O322 O 0.57713 0.7321 0.36152 0.0
C323 C 0.51599 0.64315 0.49705 0.0
O324 O 0.55226 0.68895 0.56618 0.0
O325 O 0.53758 0.70837 0.49997 0.0
C326 C 0.61077 0.71922 0.47445 0.0
O327 O 0.53744 0.64627 0.49315 0.0
O328 O 0.51266 0.66105 0.48539 0.0
C329 C 0.53088 0.6708 0.29258 0.0
Fe330 Fe 0.3744 0.48444 0.9991 0.0
Fe331 Fe 0.36172 0.51995 0.92152 0.0
O332 O 0.36114 0.49118 0.92433 0.0
Fe333 Fe 0.34743 0.47013 0.8517 0.0
O334 O 0.37465 0.46817 0.83586 0.0
O335 O 0.38835 0.46938 0.9456 0.0
O336 O 0.40402 0.51314 0.99031 0.0
C337 C 0.40638 0.53433 0.9934 0.0
C338 C 0.33259 0.43847 0.97536 0.0
O339 O 0.38806 0.5369 0.98097 0.0
C340 C 0.31644 0.48899 0.85344 0.0
O341 O 0.36145 0.49774 0.06379 0.0
O342 O 0.34085 0.51077 0.99643 0.0
O343 O 0.33329 0.4418 0.90795 0.0
O344 O 0.34688 0.45551 0.01682 0.0
C345 C 0.37865 0.51737 0.78946 0.0
O346 O 0.33529 0.50998 0.86161 0.0
O347 O 0.31825 0.46992 0.85972 0.0
C348 C 0.34443 0.50324 0.05577 0.0
O349 O 0.38281 0.52963 0.84681 0.0
O350 O 0.3604 0.49534 0.78372 0.0
C351 C 0.389 0.46602 0.87847 0.0
Fe352 Fe 0.57848 0.89264 0.85229 0.0
Fe353 Fe 0.52896 0.85997 0.92681 0.0
O354 O 0.55867 0.88699 0.92706 0.0
Fe355 Fe 0.56743 0.90754 1.00115 0.0
O356 O 0.5955 0.90701 0.01584 0.0
O357 O 0.60746 0.90581 0.90556 0.0
O358 O 0.57667 0.8626 0.86061 0.0
C359 C 0.55667 0.84242 0.85524 0.0
C360 C 0.58594 0.93976 0.87883 0.0
O361 O 0.53657 0.84205 0.86506 0.0
C362 C 0.51814 0.89267 0.99902 0.0
O363 O 0.55246 0.88132 0.78683 0.0
O364 O 0.51989 0.87261 0.85412 0.0
O365 O 0.58328 0.9362 0.94627 0.0
O366 O 0.58224 0.92263 0.83632 0.0
C367 C 0.54658 0.85861 0.05894 0.0
O368 O 0.51404 0.8711 0.98827 0.0
O369 O 0.53988 0.91055 0.99518 0.0
C370 C 0.53149 0.87986 0.79556 0.0
O371 O 0.53775 0.84737 1.0003 0.0
O372 O 0.55354 0.88158 0.06675 0.0
C373 C 0.61166 0.9087 0.97262 0.0
Fe374 Fe 0.19035 0.68565 0.92492 0.0
Fe375 Fe 0.14322 0.67724 1.00034 0.0
O376 O 0.16362 0.68878 0.92599 0.0
Fe377 Fe 0.15808 0.70317 0.85158 0.0
O378 O 0.18817 0.73126 0.86032 0.0
O379 O 0.2084 0.71137 0.86362 0.0
O380 O 0.2033 0.70689 0.99874 0.0
C381 C 0.19232 0.70465 0.0577 0.0
C382 C 0.17044 0.66878 0.79343 0.0
O383 O 0.16925 0.68912 0.06571 0.0
C384 C 0.11101 0.66353 0.87789 0.0
O385 O 0.17904 0.6594 0.98584 0.0
O386 O 0.13981 0.6465 0.99468 0.0
O387 O 0.16921 0.68847 0.78552 0.0
O388 O 0.17743 0.66406 0.85182 0.0
C389 C 0.14241 0.72056 0.97215 0.0
O390 O 0.11451 0.66455 0.94545 0.0
O391 O 0.12812 0.67701 0.8355 0.0
C392 C 0.15743 0.6423 0.99841 0.0
O393 O 0.14415 0.7061 0.01522 0.0
O394 O 0.14504 0.71909 0.90505 0.0
C395 C 0.2082 0.73124 0.85427 0.0
H396 H 0.05094 0.17079 0.57846 0.0
H397 H 0.17796 0.25828 0.38196 0.0
H398 H 0.07682 0.24839 0.54872 0.0
H399 H 0.13683 0.17888 0.35612 0.0
H400 H 0.14174 0.25611 0.44126 0.0
H401 H 0.08245 0.17392 0.49489 0.0
C402 C 0.06297 0.18839 0.5528 0.0
C403 C 0.06114 0.20927 0.56949 0.0
C404 C 0.14065 0.23926 0.42174 0.0
C405 C 0.09799 0.21336 0.47583 0.0
C406 C 0.16132 0.24047 0.38805 0.0
C407 C 0.16064 0.2187 0.3648 0.0
C408 C 0.11929 0.21611 0.43271 0.0
C409 C 0.13847 0.19615 0.37385 0.0
C410 C 0.08105 0.19024 0.50535 0.0
C411 C 0.07745 0.23179 0.53601 0.0
N412 N 0.1189 0.19545 0.40763 0.0
N413 N 0.09551 0.23336 0.4915 0.0
H414 H 0.78985 0.93599 0.38705 0.0
H415 H 0.8779 0.89266 0.55981 0.0
H416 H 0.86756 0.96927 0.33806 0.0
H417 H 0.7989 0.84489 0.5568 0.0
H418 H 0.87388 0.92034 0.47524 0.0
H419 H 0.79162 0.90168 0.44637 0.0
C420 C 0.80716 0.93596 0.38793 0.0
C421 C 0.82866 0.95578 0.35844 0.0
C422 C 0.85739 0.90358 0.49176 0.0
C423 C 0.83084 0.9168 0.42635 0.0
C424 C 0.85975 0.88776 0.53971 0.0
C425 C 0.83875 0.86638 0.56401 0.0
C426 C 0.83375 0.89839 0.46958 0.0
C427 C 0.81554 0.86103 0.5379 0.0
C428 C 0.80816 0.91639 0.42173 0.0
C429 C 0.85056 0.95467 0.36095 0.0
N430 N 0.81358 0.87715 0.49279 0.0
N431 N 0.85112 0.93576 0.39493 0.0
H432 H 0.15439 0.99891 0.57916 0.0
H433 H 0.11554 0.87234 0.38257 0.0
H434 H 0.20757 0.97527 0.54521 0.0
H435 H 0.07904 0.91468 0.3484 0.0
H436 H 0.14958 0.90861 0.44265 0.0
H437 H 0.12633 0.96721 0.49525 0.0
C438 C 0.16032 0.98731 0.55266 0.0
C439 C 0.18338 0.98984 0.56822 0.0
C440 C 0.13421 0.90993 0.42104 0.0
C441 C 0.15101 0.95281 0.47406 0.0
C442 C 0.11478 0.88925 0.38688 0.0
C443 C 0.09415 0.89026 0.36131 0.0
C444 C 0.13279 0.93157 0.43011 0.0
C445 C 0.09427 0.91276 0.36815 0.0
C446 C 0.1443 0.96915 0.50496 0.0
C447 C 0.19007 0.9741 0.53347 0.0
N448 N 0.11303 0.93228 0.4025 0.0
N449 N 0.17377 0.95591 0.48877 0.0
H450 H 0.25445 0.08925 0.88754 0.0
H451 H 0.19842 0.12837 0.2071 0.0
H452 H 0.19816 0.03569 0.02691 0.0
H453 H 0.26778 0.17932 0.1068 0.0
H454 H 0.19937 0.094 0.1475 0.0
H455 H 0.26138 0.12211 0.97194 0.0
C456 C 0.2439 0.08443 0.93693 0.0
C457 C 0.22577 0.05984 0.95071 0.0
C458 C 0.21458 0.11263 0.13925 0.0
C459 C 0.23304 0.09738 0.04662 0.0
C460 C 0.21402 0.1323 0.17307 0.0
C461 C 0.23291 0.15681 0.16122 0.0
C462 C 0.23397 0.11745 0.09209 0.0
C463 C 0.25278 0.16076 0.11725 0.0
C464 C 0.24783 0.10317 0.98503 0.0
C465 C 0.21244 0.05445 0.01489 0.0
N466 N 0.25258 0.14132 0.08335 0.0
N467 N 0.21605 0.07317 0.06006 0.0
H468 H 0.87537 0.1092 0.12625 0.0
H469 H 1.01297 0.16021 0.98393 0.0
H470 H 0.92169 0.07909 0.1863 0.0
H471 H 0.97197 0.19742 0.94261 0.0
H472 H 0.98091 0.13281 0.06842 0.0
H473 H 0.91126 0.14399 0.06816 0.0
C474 C 0.89309 0.11004 0.12804 0.0
C475 C 0.89538 0.09096 0.16031 0.0
C476 C 0.97906 0.14726 0.04215 0.0
C477 C 0.93643 0.13058 0.09388 0.0
C478 C 0.99747 0.16298 0.99442 0.0
C479 C 0.99517 0.18123 0.95765 0.0
C480 C 0.95788 0.14943 0.05175 0.0
C481 C 0.97449 0.18376 0.97127 0.0
C482 C 0.91357 0.12988 0.09482 0.0
C483 C 0.91886 0.0931 0.16117 0.0
N484 N 0.95644 0.16783 0.01666 0.0
N485 N 0.93831 0.11233 0.12795 0.0
H486 H 0.89748 0.87221 0.95976 0.0
H487 H 0.94089 0.7836 0.12755 0.0
H488 H 0.85014 0.79303 0.95685 0.0
H489 H 0.97208 0.86046 0.18623 0.0
H490 H 0.90685 0.78546 0.06695 0.0
H491 H 0.92467 0.86767 0.04499 0.0
C492 C 0.89257 0.8539 0.97868 0.0
C493 C 0.87145 0.833 0.95262 0.0
C494 C 0.92103 0.80177 0.09401 0.0
C495 C 0.90289 0.82744 0.04774 0.0
C496 C 0.94044 0.80071 0.12858 0.0
C497 C 0.95963 0.82199 0.16112 0.0
C498 C 0.92099 0.82429 0.09168 0.0
C499 C 0.958 0.84366 0.16094 0.0
C500 C 0.9081 0.85124 0.027 0.0
C501 C 0.86609 0.80958 0.97715 0.0
N502 N 0.93929 0.8443 0.12612 0.0
N503 N 0.88193 0.80736 0.02267 0.0
H504 H 0.92127 0.85999 0.6907 0.0
H505 H 0.97359 0.78994 0.45121 0.0
H506 H 0.87541 0.78417 0.62259 0.0
H507 H 1.0082 0.86908 0.47211 0.0
H508 H 0.94113 0.78519 0.53548 0.0
H509 H 0.95663 0.86094 0.63338 0.0
C510 C 0.91862 0.84341 0.66406 0.0
C511 C 0.89513 0.82207 0.66049 0.0
C512 C 0.95611 0.80356 0.52276 0.0
C513 C 0.93594 0.82314 0.59421 0.0
C514 C 0.97474 0.80625 0.47552 0.0
C515 C 0.99371 0.82992 0.45605 0.0
C516 C 0.95664 0.82474 0.55065 0.0
C517 C 0.99404 0.85054 0.48681 0.0
C518 C 0.93891 0.84401 0.63125 0.0
C519 C 0.8931 0.80107 0.62621 0.0
N520 N 0.97577 0.84747 0.53244 0.0
N521 N 0.91322 0.8022 0.59366 0.0
H522 H 0.26919 0.10266 0.605 0.0
H523 H 0.20234 0.18198 0.53363 0.0
H524 H 0.20095 0.087 0.70724 0.0
H525 H 0.25019 0.17451 0.3819 0.0
H526 H 0.20947 0.15588 0.61864 0.0
H527 H 0.27025 0.13803 0.54416 0.0
C528 C 0.2547 0.10692 0.61568 0.0
C529 C 0.23477 0.09166 0.66039 0.0
C530 C 0.21872 0.16036 0.56715 0.0
C531 C 0.23593 0.13207 0.59142 0.0
C532 C 0.21476 0.17531 0.51908 0.0
C533 C 0.2256 0.18014 0.45092 0.0
C534 C 0.23392 0.15069 0.54693 0.0
C535 C 0.24138 0.17097 0.43398 0.0
C536 C 0.25525 0.12702 0.58075 0.0
C537 C 0.21647 0.09808 0.67231 0.0
N538 N 0.24501 0.15664 0.48148 0.0
N539 N 0.21739 0.11769 0.6377 0.0
H540 H 0.84807 0.07236 0.46545 0.0
H541 H 0.97386 0.12879 0.68914 0.0
H542 H 0.89993 0.04617 0.45332 0.0
H543 H 0.94186 0.17357 0.62991 0.0
H544 H 0.94005 0.09354 0.62924 0.0
H545 H 0.87581 0.10468 0.55068 0.0
C546 C 0.86493 0.07298 0.48254 0.0
C547 C 0.87169 0.05649 0.45344 0.0
C548 C 0.94027 0.111 0.62973 0.0
C549 C 0.90334 0.0932 0.54951 0.0
C550 C 0.9596 0.13123 0.66401 0.0
C551 C 0.96104 0.15444 0.66354 0.0
C552 C 0.92195 0.1137 0.59465 0.0
C553 C 0.94165 0.15614 0.63105 0.0
C554 C 0.88082 0.09154 0.53029 0.0
C555 C 0.894 0.05841 0.47531 0.0
N556 N 0.92296 0.13605 0.59722 0.0
N557 N 0.90899 0.0764 0.52205 0.0
H558 H 0.79922 0.97453 0.05125 0.0
H559 H 0.86802 0.91626 0.8333 0.0
H560 H 0.87698 0.99962 0.06674 0.0
H561 H 0.79071 0.87268 0.88835 0.0
H562 H 0.86986 0.95183 0.89234 0.0
H563 H 0.79451 0.94204 0.96658 0.0
C564 C 0.81538 0.97364 0.03499 0.0
C565 C 0.83857 0.98986 0.06495 0.0
C566 C 0.85243 0.93456 0.89115 0.0
C567 C 0.83337 0.95294 0.96947 0.0
C568 C 0.8513 0.91415 0.85735 0.0
C569 C 0.82925 0.89118 0.8569 0.0
C570 C 0.83136 0.93228 0.92481 0.0
C571 C 0.80815 0.88992 0.88797 0.0
C572 C 0.81264 0.95498 0.98755 0.0
C573 C 0.85885 0.98759 0.04413 0.0
N574 N 0.80976 0.91017 0.92136 0.0
N575 N 0.85579 0.9695 0.99767 0.0
H576 H 0.17562 0.93379 0.87604 0.0
H577 H 0.05115 0.89741 0.08121 0.0
H578 H 0.13644 0.97405 0.85502 0.0
H579 H 0.0735 0.84344 0.04208 0.0
H580 H 0.08258 0.92551 0.99687 0.0
H581 H 0.1391 0.9001 0.93549 0.0
C582 C 0.15934 0.93547 0.88319 0.0
C583 C 0.1593 0.957 0.86133 0.0
C584 C 0.08041 0.90737 1.00549 0.0
C585 C 0.11763 0.91868 0.92942 0.0
C586 C 0.0624 0.89133 0.05343 0.0
C587 C 0.05963 0.86806 0.06774 0.0
C588 C 0.09634 0.90044 0.97306 0.0
C589 C 0.07489 0.86113 0.03136 0.0
C590 C 0.13849 0.91622 0.91694 0.0
C591 C 0.13757 0.95804 0.87168 0.0
N592 N 0.09293 0.87744 0.98644 0.0
N593 N 0.11783 0.93937 0.90558 0.0
H594 H 0.11688 0.26031 0.88613 0.0
H595 H 0.15369 0.17136 0.08215 0.0
H596 H 0.08032 0.18157 0.84744 0.0
H597 H 0.20824 0.24784 0.04725 0.0
H598 H 0.12607 0.17559 0.99814 0.0
H599 H 0.15054 0.25764 0.94678 0.0
C600 C 0.11604 0.24258 0.88953 0.0
C601 C 0.09549 0.22108 0.86261 0.0
C602 C 0.14423 0.19141 1.0077 0.0
C603 C 0.13364 0.21791 0.93207 0.0
C604 C 0.15999 0.18894 0.05548 0.0
C605 C 0.18331 0.2092 0.07073 0.0
C606 C 0.15149 0.21454 0.97645 0.0
C607 C 0.19051 0.23172 0.03575 0.0
C608 C 0.13524 0.24108 0.92402 0.0
C609 C 0.09549 0.19862 0.86831 0.0
N610 N 0.17447 0.23395 0.99099 0.0
N611 N 0.114 0.1976 0.90305 0.0
H612 H 0.84119 0.59022 0.70467 0.0
H613 H 0.71988 0.504 0.92445 0.0
H614 H 0.8029 0.51042 0.69317 0.0
H615 H 0.73826 0.57819 0.8678 0.0
H616 H 0.75109 0.50675 0.84052 0.0
H617 H 0.80487 0.58752 0.76501 0.0
C618 C 0.82515 0.57219 0.71413 0.0
C619 C 0.82531 0.55051 0.69461 0.0
C620 C 0.74811 0.52235 0.84535 0.0
C621 C 0.78392 0.54734 0.76373 0.0
C622 C 0.73025 0.52074 0.89316 0.0
C623 C 0.72644 0.54084 0.90256 0.0
C624 C 0.76286 0.5445 0.80794 0.0
C625 C 0.74051 0.5622 0.86129 0.0
C626 C 0.80443 0.57068 0.74833 0.0
C627 C 0.80388 0.52766 0.70788 0.0
N628 N 0.75847 0.56368 0.81653 0.0
N629 N 0.7843 0.5267 0.74224 0.0
H630 H 0.47399 0.17544 0.86305 0.0
H631 H 0.54197 0.31113 0.69295 0.0
H632 H 0.54611 0.234 0.92631 0.0
H633 H 0.46237 0.2681 0.7065 0.0
H634 H 0.54463 0.27784 0.75182 0.0
H635 H 0.47061 0.20436 0.7799 0.0
C636 C 0.48931 0.19416 0.85808 0.0
C637 C 0.51035 0.20241 0.90144 0.0
C638 C 0.52656 0.27558 0.74154 0.0
C639 C 0.5067 0.2353 0.80705 0.0
C640 C 0.52496 0.2946 0.7078 0.0
C641 C 0.50187 0.29268 0.69565 0.0
C642 C 0.50496 0.25419 0.76312 0.0
C643 C 0.48056 0.27053 0.71548 0.0
C644 C 0.48728 0.21066 0.81132 0.0
C645 C 0.52957 0.22693 0.89387 0.0
N646 N 0.4826 0.25215 0.74872 0.0
N647 N 0.52729 0.24246 0.8477 0.0
H648 H 0.87546 0.31508 0.86072 0.0
H649 H 0.74027 0.24824 0.68806 0.0
H650 H 0.81743 0.3296 0.92173 0.0
H651 H 0.78273 0.21113 0.70346 0.0
H652 H 0.77366 0.28426 0.74671 0.0
H653 H 0.84658 0.28294 0.77691 0.0
C654 C 0.85687 0.31192 0.85508 0.0
C655 C 0.84874 0.32492 0.89801 0.0
C656 C 0.77577 0.26831 0.73685 0.0
C657 C 0.81591 0.28858 0.80292 0.0
C658 C 0.7567 0.24766 0.70325 0.0
C659 C 0.75843 0.22633 0.69174 0.0
C660 C 0.79701 0.26795 0.75892 0.0
C661 C 0.78045 0.22703 0.71197 0.0
C662 C 0.84039 0.29349 0.80796 0.0
C663 C 0.82439 0.31995 0.88963 0.0
N664 N 0.79888 0.24748 0.74508 0.0
N665 N 0.80888 0.30221 0.84314 0.0
H666 H 0.86699 0.46249 0.54189 0.0
H667 H 0.92044 0.42471 0.21371 0.0
H668 H 0.93434 0.51446 0.43433 0.0
H669 H 0.86751 0.37063 0.3594 0.0
H670 H 0.9278 0.45751 0.29873 0.0
H671 H 0.86849 0.42847 0.48194 0.0
C672 C 0.88229 0.46673 0.50625 0.0
C673 C 0.90041 0.4914 0.49237 0.0
C674 C 0.91491 0.43848 0.31302 0.0
C675 C 0.90207 0.45244 0.42281 0.0
C676 C 0.91072 0.41978 0.26454 0.0
C677 C 0.89336 0.39505 0.27988 0.0
C678 C 0.90114 0.43251 0.3767 0.0
C679 C 0.88115 0.38952 0.34603 0.0
C680 C 0.88317 0.44726 0.47222 0.0
C681 C 0.91994 0.49576 0.44637 0.0
N682 N 0.88494 0.4082 0.39163 0.0
N683 N 0.92002 0.47649 0.41225 0.0
H684 H 0.53459 0.43647 0.43476 0.0
H685 H 0.68082 0.5178 0.36661 0.0
H686 H 0.58795 0.42309 0.54187 0.0
H687 H 0.62539 0.50891 0.21327 0.0
H688 H 0.64763 0.492 0.45209 0.0
H689 H 0.56864 0.47225 0.37444 0.0
C690 C 0.55345 0.44133 0.44662 0.0
C691 C 0.55845 0.42657 0.49244 0.0
C692 C 0.64283 0.49612 0.40013 0.0
C693 C 0.59739 0.46741 0.42408 0.0
C694 C 0.66172 0.5109 0.35178 0.0
C695 C 0.65567 0.51518 0.28302 0.0
C696 C 0.61794 0.48608 0.37953 0.0
C697 C 0.63069 0.50575 0.26579 0.0
C698 C 0.57286 0.46166 0.41201 0.0
C699 C 0.58328 0.43375 0.50596 0.0
N700 N 0.61275 0.49157 0.31352 0.0
N701 N 0.60181 0.45354 0.47155 0.0
H702 H 0.61461 0.11455 0.43132 0.0
H703 H 0.53404 0.18036 0.36536 0.0
H704 H 0.62812 0.18127 0.53974 0.0
H705 H 0.54151 0.13273 0.21245 0.0
H706 H 0.55971 0.17269 0.45045 0.0
H707 H 0.57875 0.11285 0.37182 0.0
C708 C 0.60976 0.12855 0.44365 0.0
C709 C 0.62458 0.1483 0.48957 0.0
C710 C 0.5553 0.16359 0.3987 0.0
C711 C 0.58366 0.14644 0.42214 0.0
C712 C 0.54058 0.16785 0.35058 0.0
C713 C 0.53594 0.15729 0.28201 0.0
C714 C 0.56496 0.1484 0.37804 0.0
C715 C 0.54495 0.14137 0.26482 0.0
C716 C 0.58939 0.12764 0.40951 0.0
C717 C 0.61742 0.16594 0.5037 0.0
N718 N 0.5591 0.13749 0.31229 0.0
N719 N 0.5976 0.16472 0.46973 0.0
H720 H 0.53455 0.11497 0.93267 0.0
H721 H 0.68074 0.18056 0.86311 0.0
H722 H 0.5878 0.18159 0.04147 0.0
H723 H 0.62517 0.13535 0.70797 0.0
H724 H 0.64758 0.17282 0.94912 0.0
H725 H 0.56863 0.11387 0.87069 0.0
C726 C 0.5534 0.12907 0.94458 0.0
C727 C 0.55835 0.14861 0.9914 0.0
C728 C 0.64275 0.16429 0.89659 0.0
C729 C 0.59732 0.14742 0.9211 0.0
C730 C 0.66161 0.16861 0.8479 0.0
C731 C 0.65553 0.15875 0.77852 0.0
C732 C 0.61785 0.14967 0.87573 0.0
C733 C 0.63052 0.14348 0.76092 0.0
C734 C 0.57282 0.12851 0.909 0.0
C735 C 0.58317 0.1664 1.00486 0.0
N736 N 0.61261 0.13947 0.80902 0.0
N737 N 0.60172 0.1655 0.96952 0.0
H738 H 0.86962 0.42298 0.04562 0.0
H739 H 0.91873 0.51141 0.71113 0.0
H740 H 0.93504 0.43692 0.92968 0.0
H741 H 0.86864 0.51456 0.86368 0.0
H742 H 0.92717 0.48664 0.79544 0.0
H743 H 0.87086 0.45846 0.98631 0.0
C744 C 0.88447 0.43375 1.00831 0.0
C745 C 0.90208 0.4268 0.99182 0.0
C746 C 0.91468 0.49306 0.81133 0.0
C747 C 0.90342 0.46731 0.92294 0.0
C748 C 0.90985 0.50717 0.76321 0.0
C749 C 0.89293 0.51487 0.78071 0.0
C750 C 0.90199 0.486 0.87689 0.0
C751 C 0.88187 0.50899 0.84855 0.0
C752 C 0.88521 0.45406 0.97464 0.0
C753 C 0.92106 0.44157 0.94375 0.0
N754 N 0.88624 0.49446 0.89384 0.0
N755 N 0.92096 0.46086 0.90998 0.0
H756 H 0.62863 0.46382 0.04645 0.0
H757 H 0.53995 0.42526 0.71283 0.0
H758 H 0.61455 0.51568 0.93298 0.0
H759 H 0.53651 0.37155 0.86424 0.0
H760 H 0.56493 0.45835 0.79751 0.0
H761 H 0.59314 0.42969 0.9867 0.0
C762 C 0.61784 0.46801 1.00957 0.0
C763 C 0.62476 0.49265 0.9939 0.0
C764 C 0.55839 0.43935 0.81308 0.0
C765 C 0.58421 0.45359 0.9246 0.0
C766 C 0.54416 0.42048 0.76476 0.0
C767 C 0.53631 0.39577 0.78183 0.0
C768 C 0.56543 0.43355 0.87839 0.0
C769 C 0.54219 0.39043 0.84946 0.0
C770 C 0.59751 0.44848 0.97567 0.0
C771 C 0.60995 0.49698 0.94638 0.0
N772 N 0.55683 0.40926 0.89494 0.0
N773 N 0.59063 0.47764 0.91241 0.0
H774 H 0.46086 0.20901 0.206 0.0
H775 H 0.54786 0.33107 0.42312 0.0
H776 H 0.54052 0.24705 0.19346 0.0
H777 H 0.47362 0.31257 0.36811 0.0
H778 H 0.54478 0.29951 0.33974 0.0
H779 H 0.46384 0.24557 0.26598 0.0
C780 C 0.47891 0.22504 0.21517 0.0
C781 C 0.50047 0.22475 0.19543 0.0
C782 C 0.52924 0.30254 0.3448 0.0
C783 C 0.50396 0.26642 0.26416 0.0
C784 C 0.53104 0.32061 0.39229 0.0
C785 C 0.51103 0.32449 0.402 0.0
C786 C 0.50698 0.28767 0.30802 0.0
C787 C 0.48954 0.31028 0.36133 0.0
C788 C 0.48059 0.2459 0.24917 0.0
C789 C 0.52336 0.24617 0.20834 0.0
N790 N 0.48789 0.29213 0.31688 0.0
N791 N 0.52448 0.2659 0.2425 0.0
H792 H 0.8035 0.31036 0.18583 0.0
H793 H 0.73639 0.17555 0.36138 0.0
H794 H 0.8408 0.26816 0.20429 0.0
H795 H 0.72254 0.23418 0.42132 0.0
H796 H 0.7687 0.2042 0.27771 0.0
H797 H 0.76759 0.27712 0.24496 0.0
C798 C 0.80415 0.29402 0.20181 0.0
C799 C 0.82551 0.29233 0.19102 0.0
C800 C 0.75827 0.21057 0.30853 0.0
C801 C 0.78398 0.25389 0.25879 0.0
C802 C 0.73974 0.19423 0.35559 0.0
C803 C 0.72686 0.20258 0.39815 0.0
C804 C 0.76338 0.23515 0.30314 0.0
C805 C 0.73208 0.22704 0.38952 0.0
C806 C 0.78355 0.27502 0.23568 0.0
C807 C 0.82488 0.2704 0.21219 0.0
N808 N 0.74988 0.24241 0.34305 0.0
N809 N 0.80447 0.25204 0.2456 0.0
H810 H 0.81791 0.5033 0.41867 0.0
H811 H 0.7823 0.59114 0.20989 0.0
H812 H 0.87321 0.57846 0.36985 0.0
H813 H 0.74146 0.51148 0.19102 0.0
H814 H 0.81597 0.58816 0.26881 0.0
H815 H 0.78957 0.50663 0.33557 0.0
C816 C 0.82421 0.52038 0.38916 0.0
C817 C 0.84794 0.54058 0.40052 0.0
C818 C 0.79971 0.57143 0.25084 0.0
C819 C 0.81531 0.54491 0.30705 0.0
C820 C 0.78047 0.5731 0.21744 0.0
C821 C 0.7588 0.55152 0.19631 0.0
C822 C 0.79708 0.54803 0.26376 0.0
C823 C 0.75758 0.52865 0.20711 0.0
C824 C 0.80803 0.52233 0.34187 0.0
C825 C 0.85514 0.5624 0.36167 0.0
N826 N 0.77623 0.52752 0.2407 0.0
N827 N 0.83871 0.56418 0.31745 0.0
H828 H 0.42966 0.91489 0.30281 0.0
H829 H 0.469 0.86253 0.97491 0.0
H830 H 0.37644 0.86112 0.15686 0.0
H831 H 0.52031 0.92956 0.08554 0.0
H832 H 0.43473 0.86366 0.03395 0.0
H833 H 0.46272 0.92283 0.21835 0.0
C834 C 0.42496 0.90512 0.25201 0.0
C835 C 0.4004 0.88735 0.23644 0.0
C836 C 0.45342 0.87836 0.04456 0.0
C837 C 0.43818 0.89579 0.1403 0.0
C838 C 0.47304 0.8777 0.01103 0.0
C839 C 0.49759 0.89582 0.02606 0.0
C840 C 0.45832 0.89705 0.09464 0.0
C841 C 0.5017 0.91517 0.07262 0.0
C842 C 0.44382 0.90963 0.20386 0.0
C843 C 0.39517 0.87507 0.17038 0.0
N844 N 0.48228 0.91503 0.10625 0.0
N845 N 0.414 0.8792 0.12512 0.0
H846 H 0.18388 0.52627 0.15486 0.0
H847 H 0.12204 0.61073 0.09346 0.0
H848 H 0.14702 0.54401 0.32013 0.0
H849 H 0.1855 0.62092 0.9737 0.0
H850 H 0.12178 0.57635 0.15816 0.0
H851 H 0.17572 0.55172 0.0699 0.0
C852 C 0.17376 0.53518 0.17278 0.0
C853 C 0.16639 0.5334 0.24454 0.0
C854 C 0.1355 0.58589 0.11683 0.0
C855 C 0.15662 0.56184 0.14834 0.0
C856 C 0.13555 0.60538 0.07965 0.0
C857 C 0.154 0.61886 0.02881 0.0
C858 C 0.15377 0.57962 0.10221 0.0
C859 C 0.17115 0.61118 0.01324 0.0
C860 C 0.16918 0.54969 0.12461 0.0
C861 C 0.15332 0.54525 0.26537 0.0
N862 N 0.17072 0.59217 0.05005 0.0
N863 N 0.14888 0.55896 0.21764 0.0
H864 H 0.44703 0.53571 0.05772 0.0
H865 H 0.49536 0.67143 0.21089 0.0
H866 H 0.41761 0.58244 0.9952 0.0
H867 H 0.53603 0.63317 0.23886 0.0
H868 H 0.46824 0.63968 0.12508 0.0
H869 H 0.48138 0.57145 0.11799 0.0
C870 C 0.44794 0.55348 0.0558 0.0
C871 C 0.42916 0.55592 0.02222 0.0
C872 C 0.48337 0.63839 0.1487 0.0
C873 C 0.46822 0.59676 0.0913 0.0
C874 C 0.4989 0.65661 0.19726 0.0
C875 C 0.51807 0.65499 0.23061 0.0
C876 C 0.48665 0.61804 0.13488 0.0
C877 C 0.52162 0.63515 0.21294 0.0
C878 C 0.46753 0.57387 0.09024 0.0
C879 C 0.43138 0.57948 0.02128 0.0
N880 N 0.50585 0.61723 0.16686 0.0
N881 N 0.45031 0.5988 0.05588 0.0
H882 H 0.51597 0.79708 0.83532 0.0
H883 H 0.58475 0.73272 0.64925 0.0
H884 H 0.59527 0.83586 0.80929 0.0
H885 H 0.51002 0.71462 0.60303 0.0
H886 H 0.58849 0.76496 0.73348 0.0
H887 H 0.51344 0.7611 0.77673 0.0
C888 C 0.53295 0.79804 0.81775 0.0
C889 C 0.55587 0.81982 0.82628 0.0
C890 C 0.57118 0.75359 0.70572 0.0
C891 C 0.55296 0.77824 0.75904 0.0
C892 C 0.56896 0.73508 0.65845 0.0
C893 C 0.547 0.721 0.61968 0.0
C894 C 0.55111 0.75755 0.71495 0.0
C895 C 0.52722 0.72506 0.63212 0.0
C896 C 0.53143 0.7774 0.7842 0.0
C897 C 0.57719 0.8196 0.80319 0.0
N898 N 0.52974 0.74292 0.6786 0.0
N899 N 0.57521 0.79917 0.77006 0.0
H900 H 0.33685 0.81131 0.59699 0.0
H901 H 0.21522 0.77707 0.81381 0.0
H902 H 0.31873 0.86743 0.6514 0.0
H903 H 0.25273 0.73496 0.82669 0.0
H904 H 0.25185 0.81054 0.754 0.0
H905 H 0.30535 0.783 0.68068 0.0
C906 C 0.32649 0.81779 0.62778 0.0
C907 C 0.33046 0.84175 0.61781 0.0
C908 C 0.25206 0.79405 0.77086 0.0
C909 C 0.2937 0.80916 0.71209 0.0
C910 C 0.23116 0.77492 0.80477 0.0
C911 C 0.23068 0.75296 0.82453 0.0
C912 C 0.27244 0.79101 0.75598 0.0
C913 C 0.25199 0.75133 0.81178 0.0
C914 C 0.30846 0.80162 0.67543 0.0
C915 C 0.31637 0.84917 0.6584 0.0
N916 N 0.27177 0.76988 0.7777 0.0
N917 N 0.29825 0.83277 0.703 0.0
H918 H 0.19492 0.4597 0.57511 0.0
H919 H 0.30319 0.52429 0.86242 0.0
H920 H 0.2159 0.52975 0.67465 0.0
H921 H 0.2777 0.45077 0.78034 0.0
H922 H 0.26851 0.52459 0.80373 0.0
H923 H 0.2219 0.45392 0.65862 0.0
C924 C 0.20481 0.47355 0.61599 0.0
C925 C 0.2031 0.49507 0.61902 0.0
C926 C 0.27028 0.50826 0.79902 0.0
C927 C 0.23448 0.48902 0.71322 0.0
C928 C 0.29014 0.50808 0.83249 0.0
C929 C 0.29355 0.48758 0.82559 0.0
C930 C 0.25374 0.4879 0.75737 0.0
C931 C 0.27585 0.467 0.78688 0.0
C932 C 0.22029 0.47034 0.66332 0.0
C933 C 0.2166 0.51279 0.67148 0.0
N934 N 0.2569 0.46782 0.75338 0.0
N935 N 0.23191 0.50948 0.71619 0.0
H936 H 0.25428 0.53386 0.33636 0.0
H937 H 0.31701 0.46429 0.14578 0.0
H938 H 0.2146 0.45455 0.30751 0.0
H939 H 0.33552 0.53929 0.10049 0.0
H940 H 0.28506 0.46074 0.23061 0.0
H941 H 0.28985 0.53611 0.2764 0.0
C942 C 0.25303 0.51682 0.31792 0.0
C943 C 0.23113 0.49398 0.32609 0.0
C944 C 0.29645 0.47807 0.20293 0.0
C945 C 0.27224 0.49657 0.25731 0.0
C946 C 0.3148 0.48018 0.15534 0.0
C947 C 0.32894 0.50218 0.11678 0.0
C948 C 0.29271 0.49828 0.21264 0.0
C949 C 0.32505 0.52208 0.12953 0.0
C950 C 0.27344 0.51818 0.28357 0.0
C951 C 0.23097 0.47257 0.30174 0.0
N952 N 0.30735 0.51967 0.17635 0.0
N953 N 0.25119 0.47439 0.26793 0.0
H954 H 0.51753 0.73883 0.34179 0.0
H955 H 0.58523 0.87086 0.15086 0.0
H956 H 0.59638 0.77732 0.30592 0.0
H957 H 0.51141 0.81273 0.10086 0.0
H958 H 0.58943 0.84269 0.23509 0.0
H959 H 0.51524 0.77222 0.28244 0.0
C960 C 0.53448 0.75441 0.32196 0.0
C961 C 0.55716 0.75495 0.32777 0.0
C962 C 0.57223 0.83634 0.20637 0.0
C963 C 0.55451 0.79356 0.25983 0.0
C964 C 0.56975 0.85242 0.15906 0.0
C965 C 0.54793 0.84405 0.11923 0.0
C966 C 0.5525 0.81205 0.21485 0.0
C967 C 0.52851 0.81988 0.13067 0.0
C968 C 0.53308 0.77348 0.28801 0.0
C969 C 0.57847 0.77597 0.30196 0.0
N970 N 0.53123 0.80477 0.17746 0.0
N971 N 0.57661 0.79443 0.26847 0.0
H972 H 0.31595 0.7967 0.32781 0.0
H973 H 0.18068 0.73011 0.15555 0.0
H974 H 0.27343 0.83377 0.31424 0.0
H975 H 0.23865 0.71555 0.09426 0.0
H976 H 0.20957 0.76216 0.23955 0.0
H977 H 0.28253 0.76077 0.26897 0.0
C978 C 0.29951 0.79729 0.31295 0.0
C979 C 0.29777 0.81859 0.32505 0.0
C980 C 0.21574 0.75163 0.20839 0.0
C981 C 0.25914 0.77706 0.2576 0.0
C982 C 0.19926 0.73325 0.16114 0.0
C983 C 0.20737 0.72025 0.11806 0.0
C984 C 0.24021 0.7565 0.21341 0.0
C985 C 0.2317 0.72519 0.12644 0.0
C986 C 0.28041 0.77669 0.27925 0.0
C987 C 0.27572 0.8179 0.30529 0.0
N988 N 0.24722 0.74287 0.17304 0.0
N989 N 0.25727 0.7975 0.27202 0.0
H990 H 0.13371 0.62139 0.79659 0.0
H991 H 0.19155 0.58123 0.48461 0.0
H992 H 0.19211 0.67433 0.6613 0.0
H993 H 0.12131 0.53073 0.58115 0.0
H994 H 0.19042 0.61579 0.54207 0.0
H995 H 0.1268 0.58841 0.71263 0.0
C996 C 0.14471 0.62607 0.74809 0.0
C997 C 0.16343 0.65049 0.73537 0.0
C998 C 0.17506 0.59723 0.54998 0.0
C999 C 0.15619 0.61282 0.64013 0.0
C1000 C 0.17572 0.57744 0.51738 0.0
C1001 C 0.15663 0.55301 0.52887 0.0
C1002 C 0.15536 0.5926 0.59559 0.0
C1003 C 0.13646 0.54924 0.57109 0.0
C1004 C 0.1408 0.60726 0.70028 0.0
C1005 C 0.17736 0.6557 0.67243 0.0
N1006 N 0.13656 0.5688 0.60393 0.0
N1007 N 0.17374 0.63691 0.6276 0.0
H1008 H 0.37493 0.54643 0.68728 0.0
H1009 H 0.5163 0.60444 0.5688 0.0
H1010 H 0.42101 0.51753 0.75843 0.0
H1011 H 0.46723 0.62891 0.48961 0.0
H1012 H 0.48085 0.56938 0.62762 0.0
H1013 H 0.40739 0.57355 0.60306 0.0
C1014 C 0.39167 0.54537 0.68349 0.0
C1015 C 0.3953 0.52959 0.72859 0.0
C1016 C 0.47785 0.5823 0.59662 0.0
C1017 C 0.43289 0.56106 0.63465 0.0
C1018 C 0.49808 0.60226 0.56289 0.0
C1019 C 0.49484 0.61987 0.52506 0.0
C1020 C 0.45428 0.57996 0.59237 0.0
C1021 C 0.47075 0.61606 0.51912 0.0
C1022 C 0.4103 0.56095 0.63595 0.0
C1023 C 0.41752 0.52928 0.72344 0.0
N1024 N 0.45155 0.59675 0.55287 0.0
N1025 N 0.43562 0.54497 0.67783 0.0
H1026 H 0.42814 0.86252 0.47295 0.0
H1027 H 0.51626 0.91299 0.80771 0.0
H1028 H 0.44225 0.92871 0.5856 0.0
H1029 H 0.52031 0.86303 0.65619 0.0
H1030 H 0.4913 0.92088 0.72272 0.0
H1031 H 0.46352 0.86398 0.53337 0.0
C1032 C 0.43893 0.87759 0.50976 0.0
C1033 C 0.43205 0.89536 0.52499 0.0
C1034 C 0.49795 0.90853 0.70722 0.0
C1035 C 0.47244 0.89694 0.59511 0.0
C1036 C 0.51216 0.904 0.75574 0.0
C1037 C 0.5202 0.8873 0.7387 0.0
C1038 C 0.49112 0.89574 0.64173 0.0
C1039 C 0.51448 0.8761 0.67097 0.0
C1040 C 0.45918 0.87844 0.54405 0.0
C1041 C 0.44683 0.91459 0.57249 0.0
N1042 N 0.49985 0.88017 0.62527 0.0
N1043 N 0.46606 0.91461 0.60687 0.0
H1044 H 0.08942 0.31797 0.77311 0.0
H1045 H 0.11934 0.39254 0.40051 0.0
H1046 H 0.06415 0.28297 0.56654 0.0
H1047 H 0.14695 0.42721 0.60615 0.0
H1048 H 0.10217 0.35185 0.45874 0.0
H1049 H 0.11358 0.35796 0.71196 0.0
C1050 C 0.0891 0.31859 0.71511 0.0
C1051 C 0.07445 0.29698 0.67535 0.0
C1052 C 0.11223 0.36841 0.49092 0.0
C1053 C 0.10199 0.34275 0.6047 0.0
C1054 C 0.12218 0.39164 0.45746 0.0
C1055 C 0.13439 0.41338 0.49838 0.0
C1056 C 0.11454 0.36693 0.56578 0.0
C1057 C 0.13738 0.411 0.57235 0.0
C1058 C 0.10287 0.34145 0.68008 0.0
C1059 C 0.07488 0.29906 0.59995 0.0
N1060 N 0.12738 0.38833 0.60355 0.0
N1061 N 0.08819 0.32143 0.56739 0.0
H1062 H 0.73236 0.78513 0.77778 0.0
H1063 H 0.65612 0.7465 0.4067 0.0
H1064 H 0.76619 0.7987 0.56846 0.0
H1065 H 0.62215 0.73011 0.61606 0.0
H1066 H 0.69679 0.76976 0.46466 0.0
H1067 H 0.69187 0.76878 0.71946 0.0
C1068 C 0.73137 0.78495 0.7198 0.0
C1069 C 0.75281 0.79315 0.67831 0.0
C1070 C 0.68037 0.76123 0.49781 0.0
C1071 C 0.70649 0.77437 0.61093 0.0
C1072 C 0.65713 0.74805 0.46459 0.0
C1073 C 0.63557 0.7361 0.50627 0.0
C1074 C 0.6821 0.76255 0.57326 0.0
C1075 C 0.63816 0.73876 0.58139 0.0
C1076 C 0.70823 0.77554 0.6864 0.0
C1077 C 0.75025 0.79241 0.60307 0.0
N1078 N 0.66087 0.75148 0.61225 0.0
N1079 N 0.72764 0.78309 0.57205 0.0
H1080 H 0.26473 0.96196 0.7812 0.0
H1081 H 0.30237 0.92472 0.40803 0.0
H1082 H 0.24826 0.97996 0.57254 0.0
H1083 H 0.31814 0.90568 0.61613 0.0
H1084 H 0.27866 0.94139 0.46723 0.0
H1085 H 0.28078 0.93762 0.72209 0.0
C1086 C 0.26413 0.96055 0.72327 0.0
C1087 C 0.25525 0.97327 0.68213 0.0
C1088 C 0.28713 0.93331 0.49982 0.0
C1089 C 0.27375 0.94559 0.61385 0.0
C1090 C 0.30057 0.92367 0.46586 0.0
C1091 C 0.31251 0.91392 0.50685 0.0
C1092 C 0.28561 0.93322 0.57533 0.0
C1093 C 0.30952 0.91319 0.58196 0.0
C1094 C 0.27339 0.94673 0.6894 0.0
C1095 C 0.25505 0.97073 0.60691 0.0
N1096 N 0.29663 0.92286 0.61357 0.0
N1097 N 0.26428 0.95743 0.57547 0.0
H1098 H 0.2884 0.05817 0.95237 0.0
H1099 H 0.43466 0.14152 0.90688 0.0
H1100 H 0.32492 0.07636 0.74654 0.0
H1101 H 0.39901 0.11382 0.11113 0.0
H1102 H 0.39443 0.12291 0.84913 0.0
H1103 H 0.32807 0.08296 0.01102 0.0
C1104 C 0.30477 0.0674 0.91912 0.0
C1105 C 0.30318 0.06475 0.8439 0.0
C1106 C 0.3953 0.12104 0.90661 0.0
C1107 C 0.34911 0.09361 0.91202 0.0
C1108 C 0.41834 0.13179 0.94002 0.0
C1109 C 0.42039 0.12912 0.01431 0.0
C1110 C 0.37384 0.1074 0.94739 0.0
C1111 C 0.39843 0.11641 0.05393 0.0
C1112 C 0.32749 0.08164 0.95307 0.0
C1113 C 0.32515 0.07767 0.80443 0.0
N1114 N 0.37609 0.10583 0.01987 0.0
N1115 N 0.34721 0.0914 0.839 0.0
H1116 H 0.99286 0.24699 0.95193 0.0
H1117 H 0.90985 0.31011 0.90328 0.0
H1118 H 0.97087 0.26051 0.7452 0.0
H1119 H 0.9358 0.30073 0.10871 0.0
H1120 H 0.92779 0.28769 0.84633 0.0
H1121 H 0.96835 0.26229 0.01002 0.0
C1122 C 0.9828 0.2531 0.91838 0.0
C1123 C 0.9843 0.25267 0.843 0.0
C1124 C 0.92941 0.29028 0.9039 0.0
C1125 C 0.95586 0.27039 0.9105 0.0
C1126 C 0.91907 0.30307 0.93683 0.0
C1127 C 0.9214 0.30758 0.01126 0.0
C1128 C 0.9424 0.28183 0.94525 0.0
C1129 C 0.93347 0.29774 0.05138 0.0
C1130 C 0.96872 0.26184 0.95201 0.0
C1131 C 0.97043 0.26054 0.80321 0.0
N1132 N 0.94372 0.28557 0.01778 0.0
N1133 N 0.95698 0.26926 0.83743 0.0
H1134 H 0.79145 0.72731 0.74321 0.0
H1135 H 0.74983 0.65226 0.11554 0.0
H1136 H 0.80222 0.76183 0.951 0.0
H1137 H 0.74115 0.61778 0.90871 0.0
H1138 H 0.77254 0.69296 0.05726 0.0
H1139 H 0.776 0.68719 0.80334 0.0
C1140 C 0.79079 0.72655 0.80123 0.0
C1141 C 0.79796 0.74807 0.84169 0.0
C1142 C 0.76586 0.67644 0.02479 0.0
C1143 C 0.78023 0.70218 0.91112 0.0
C1144 C 0.75303 0.65319 0.05826 0.0
C1145 C 0.74332 0.63147 0.01716 0.0
C1146 C 0.76901 0.67798 0.9497 0.0
C1147 C 0.74801 0.63394 0.94278 0.0
C1148 C 0.78193 0.70363 0.83566 0.0
C1149 C 0.79669 0.74582 0.91706 0.0
N1150 N 0.76025 0.65663 0.91158 0.0
N1151 N 0.78789 0.72341 0.94904 0.0
H1152 H 0.93404 0.65135 0.61321 0.0
H1153 H 0.969 0.72649 0.24047 0.0
H1154 H 0.91115 0.61672 0.40545 0.0
H1155 H 0.99215 0.76081 0.44868 0.0
H1156 H 0.94429 0.68626 0.30023 0.0
H1157 H 0.95186 0.69199 0.55463 0.0
C1158 C 0.93238 0.65222 0.55562 0.0
C1159 C 0.92121 0.63048 0.51444 0.0
C1160 C 0.95468 0.70268 0.33271 0.0
C1161 C 0.94182 0.67694 0.44667 0.0
C1162 C 0.96875 0.72566 0.29848 0.0
C1163 C 0.98296 0.74715 0.33919 0.0
C1164 C 0.95477 0.70117 0.40819 0.0
C1165 C 0.9818 0.74482 0.41455 0.0
C1166 C 0.94269 0.67544 0.52201 0.0
C1167 C 0.91975 0.63288 0.43966 0.0
N1168 N 0.96817 0.72238 0.44631 0.0
N1169 N 0.93007 0.65555 0.40835 0.0
H1170 H 0.32476 0.26253 0.24296 0.0
H1171 H 0.3999 0.29942 0.61507 0.0
H1172 H 0.29005 0.2452 0.45142 0.0
H1173 H 0.43422 0.31035 0.40724 0.0
H1174 H 0.35923 0.27692 0.55664 0.0
H1175 H 0.36502 0.27798 0.30205 0.0
C1176 C 0.32552 0.26178 0.30085 0.0
C1177 C 0.3039 0.25281 0.34195 0.0
C1178 C 0.37572 0.28404 0.52399 0.0
C1179 C 0.34993 0.27055 0.41022 0.0
C1180 C 0.39895 0.29676 0.55752 0.0
C1181 C 0.42062 0.30704 0.51625 0.0
C1182 C 0.37414 0.28164 0.44865 0.0
C1183 C 0.41812 0.30304 0.44152 0.0
C1184 C 0.34852 0.27063 0.33472 0.0
C1185 C 0.30615 0.25227 0.41713 0.0
N1186 N 0.39544 0.29094 0.41029 0.0
N1187 N 0.32863 0.26114 0.44859 0.0
H1188 H 0.79289 0.08301 0.24342 0.0
H1189 H 0.75018 0.11586 0.61483 0.0
H1190 H 0.80184 0.05799 0.45116 0.0
H1191 H 0.74282 0.14249 0.40812 0.0
H1192 H 0.7729 0.09784 0.55709 0.0
H1193 H 0.77773 0.10793 0.30343 0.0
C1194 C 0.79189 0.08288 0.3014 0.0
C1195 C 0.79849 0.06812 0.34186 0.0
C1196 C 0.76653 0.10788 0.52455 0.0
C1197 C 0.7811 0.09657 0.41115 0.0
C1198 C 0.7537 0.11832 0.55772 0.0
C1199 C 0.74433 0.13055 0.51642 0.0
C1200 C 0.77001 0.10968 0.44957 0.0
C1201 C 0.7494 0.13302 0.44227 0.0
C1202 C 0.78321 0.09709 0.33577 0.0
C1203 C 0.7968 0.06881 0.41719 0.0
N1204 N 0.76162 0.12252 0.41133 0.0
N1205 N 0.78818 0.08258 0.44908 0.0
H1206 H 0.65712 0.92837 0.90433 0.0
H1207 H 0.73274 0.96362 0.27629 0.0
H1208 H 0.62298 0.90707 0.11294 0.0
H1209 H 0.76677 0.9868 0.06791 0.0
H1210 H 0.69249 0.93902 0.21684 0.0
H1211 H 0.6978 0.94596 0.96236 0.0
C1212 C 0.6581 0.92699 0.96198 0.0
C1213 C 0.63648 0.91633 1.00356 0.0
C1214 C 0.70886 0.94937 0.18423 0.0
C1215 C 0.68298 0.93665 0.07065 0.0
C1216 C 0.73185 0.96337 0.21829 0.0
C1217 C 0.75328 0.97754 0.17745 0.0
C1218 C 0.70726 0.94947 0.10879 0.0
C1219 C 0.75086 0.97641 0.10211 0.0
C1220 C 0.68134 0.93717 0.99527 0.0
C1221 C 0.63902 0.91523 0.07839 0.0
N1222 N 0.72839 0.96284 0.0705 0.0
N1223 N 0.66171 0.92538 0.10934 0.0
H1224 H 0.06388 0.7988 0.06421 0.0
H1225 H 0.14704 0.73579 0.11112 0.0
H1226 H 0.0873 0.78642 0.27017 0.0
H1227 H 0.12027 0.74447 0.90625 0.0
H1228 H 0.12952 0.75858 0.1681 0.0
H1229 H 0.08811 0.7833 1.00533 0.0
C1230 C 0.07425 0.79298 0.09742 0.0
C1231 C 0.07325 0.7938 0.17284 0.0
C1232 C 0.12763 0.75576 0.11063 0.0
C1233 C 0.10127 0.77575 0.10445 0.0
C1234 C 0.13773 0.74275 0.0777 0.0
C1235 C 0.13504 0.73794 1.00344 0.0
C1236 C 0.11451 0.76411 0.06948 0.0
C1237 C 0.12287 0.74769 0.96344 0.0
C1238 C 0.08814 0.78409 0.06334 0.0
C1239 C 0.08738 0.78612 0.21215 0.0
N1240 N 0.11284 0.76007 0.99706 0.0
N1241 N 0.10062 0.77725 0.17753 0.0
H1242 H 0.26818 0.31806 0.2837 0.0
H1243 H 0.30395 0.39275 0.91015 0.0
H1244 H 0.24865 0.28343 0.07517 0.0
H1245 H 0.3235 0.4279 0.11804 0.0
H1246 H 0.28031 0.35249 0.97015 0.0
H1247 H 0.28528 0.35865 0.22488 0.0
C1248 C 0.26713 0.3189 0.2259 0.0
C1249 C 0.25705 0.29717 0.18464 0.0
C1250 C 0.28965 0.36908 1.00255 0.0
C1251 C 0.27676 0.34355 0.11671 0.0
C1252 C 0.30309 0.39209 0.96816 0.0
C1253 C 0.31598 0.41385 1.00873 0.0
C1254 C 0.28904 0.36778 0.07811 0.0
C1255 C 0.31411 0.41171 0.0841 0.0
C1256 C 0.277 0.34208 0.19218 0.0
C1257 C 0.25633 0.29954 0.10959 0.0
N1258 N 0.30113 0.38921 0.1161 0.0
N1259 N 0.26616 0.32216 0.0783 0.0
H1260 H 0.95531 0.39519 0.27718 0.0
H1261 H 0.10209 0.46707 0.23342 0.0
H1262 H 0.99174 0.40585 0.07281 0.0
H1263 H 0.06525 0.44482 0.43836 0.0
H1264 H 0.06218 0.44964 0.17424 0.0
H1265 H 0.99532 0.41802 0.3355 0.0
C1266 C 0.97175 0.4024 0.2442 0.0
C1267 C 0.97001 0.39817 0.16962 0.0
C1268 C 0.06275 0.44863 0.23211 0.0
C1269 C 0.01631 0.4247 0.23724 0.0
C1270 C 0.0856 0.45861 0.26634 0.0
C1271 C 0.08718 0.45719 0.34143 0.0
C1272 C 0.04103 0.43712 0.27281 0.0
C1273 C 0.06504 0.4463 0.38058 0.0
C1274 C 0.99466 0.41549 0.27793 0.0
C1275 C 0.99209 0.4085 0.13025 0.0
N1276 N 0.04289 0.43655 0.34577 0.0
N1277 N 0.01433 0.42113 0.16462 0.0
H1278 H 0.64516 0.60285 0.07172 0.0
H1279 H 0.60237 0.63518 0.44396 0.0
H1280 H 0.65514 0.57828 0.2789 0.0
H1281 H 0.58639 0.65392 0.2356 0.0
H1282 H 0.62011 0.61248 0.38434 0.0
H1283 H 0.62176 0.62004 0.13015 0.0
C1284 C 0.64228 0.60085 0.12914 0.0
C1285 C 0.65246 0.58934 0.17023 0.0
C1286 C 0.61255 0.62146 0.3518 0.0
C1287 C 0.62585 0.6091 0.23777 0.0
C1288 C 0.60235 0.63436 0.38596 0.0
C1289 C 0.59305 0.64676 0.34512 0.0
C1290 C 0.6135 0.62098 0.27625 0.0
C1291 C 0.59358 0.64498 0.26977 0.0
C1292 C 0.62898 0.61073 0.16265 0.0
C1293 C 0.64803 0.58732 0.24478 0.0
N1294 N 0.60375 0.63257 0.23804 0.0
N1295 N 0.6353 0.59721 0.27596 0.0
H1296 H 0.41292 0.9848 0.44588 0.0
H1297 H 0.44828 0.05912 0.07206 0.0
H1298 H 0.39701 0.94953 0.23809 0.0
H1299 H 0.47223 0.09424 0.27901 0.0
H1300 H 0.43048 0.0186 0.13156 0.0
H1301 H 0.43594 0.02521 0.3859 0.0
C1302 C 0.41439 0.98548 0.38797 0.0
C1303 C 0.40269 0.96364 0.34731 0.0
C1304 C 0.43978 0.03524 0.16377 0.0
C1305 C 0.42885 0.0098 0.27805 0.0
C1306 C 0.45002 0.05837 0.12965 0.0
C1307 C 0.46154 0.08021 0.17033 0.0
C1308 C 0.44105 0.03394 0.23908 0.0
C1309 C 0.46321 0.07799 0.24514 0.0
C1310 C 0.42748 1.00855 0.3536 0.0
C1311 C 0.40533 0.96578 0.27207 0.0
N1312 N 0.45295 0.05541 0.2769 0.0
N1313 N 0.41789 0.98831 0.24013 0.0
H1314 H 0.60626 0.98578 0.94486 0.0
H1315 H 0.64538 0.06019 0.57136 0.0
H1316 H 0.58606 0.95056 0.73711 0.0
H1317 H 0.65755 0.09529 0.77868 0.0
H1318 H 0.62236 0.01968 0.63072 0.0
H1319 H 0.62404 0.02623 0.88506 0.0
C1320 C 0.60535 0.98649 0.88698 0.0
C1321 C 0.59487 0.96465 0.84626 0.0
C1322 C 0.62999 0.03631 0.66304 0.0
C1323 C 0.61535 0.01085 0.77721 0.0
C1324 C 0.64308 0.05944 0.62902 0.0
C1325 C 0.65373 0.08127 0.66981 0.0
C1326 C 0.62756 0.03501 0.73838 0.0
C1327 C 0.65004 0.07905 0.74469 0.0
C1328 C 0.61557 1.00958 0.85272 0.0
C1329 C 0.59424 0.96682 0.77109 0.0
N1330 N 0.6375 0.05647 0.77635 0.0
N1331 N 0.60446 0.98938 0.73921 0.0
H1332 H 0.10117 0.65124 0.73677 0.0
H1333 H 0.9544 0.57643 0.77986 0.0
H1334 H 0.06446 0.63857 0.94144 0.0
H1335 H 0.99102 0.60218 0.57572 0.0
H1336 H 0.99437 0.59401 0.83864 0.0
H1337 H 0.06125 0.62852 0.6779 0.0
C1338 C 0.0847 0.64361 0.76972 0.0
C1339 C 0.08634 0.64724 0.84462 0.0
C1340 C 0.99375 0.59577 0.78102 0.0
C1341 C 0.04014 0.62081 0.77626 0.0
C1342 C 0.97087 0.58572 0.74702 0.0
C1343 C 0.96919 0.58809 0.67234 0.0
C1344 C 0.01544 0.60831 0.74052 0.0
C1345 C 0.99131 0.59995 0.63319 0.0
C1346 C 0.06184 0.63059 0.73564 0.0
C1347 C 0.0642 0.6364 0.88381 0.0
N1348 N 1.01352 0.60975 0.66782 0.0
N1349 N 0.04202 0.62381 0.8491 0.0
H1350 H 0.45005 0.40654 0.57246 0.0
H1351 H 0.41515 0.44645 0.94528 0.0
H1352 H 0.47209 0.39377 0.78017 0.0
H1353 H 0.40043 0.46653 0.73722 0.0
H1354 H 0.43792 0.42873 0.88594 0.0
H1355 H 0.43328 0.43024 0.63145 0.0
C1356 C 0.45155 0.40884 0.63013 0.0
C1357 C 0.46224 0.3978 0.67114 0.0
C1358 C 0.42983 0.4372 0.85342 0.0
C1359 C 0.44299 0.42478 0.73929 0.0
C1360 C 0.41692 0.44742 0.88745 0.0
C1361 C 0.40555 0.45777 0.84647 0.0
C1362 C 0.43133 0.43731 0.77791 0.0
C1363 C 0.40851 0.45844 0.77135 0.0
C1364 C 0.44194 0.42233 0.66395 0.0
C1365 C 0.46369 0.40154 0.74602 0.0
N1366 N 0.42085 0.4482 0.73971 0.0
N1367 N 0.45405 0.41447 0.77747 0.0
loop_
_geom_bond_atom_site_label_1
_geom_bond_atom_site_label_2
_geom_bond_distance
_geom_bond_site_symmetry_2
_ccdc_geom_bond_type
Fe0 O2 1.918 . S
Fe0 O5 1.997 1_455 S
Fe0 O6 2.002 1_455 S
Fe0 O11 1.976 . S
Fe0 O14 1.996 . S
Fe1 O2 1.918 . S
Fe1 O9 1.997 1_455 S
Fe1 O12 1.996 . S
Fe1 O16 1.976 . S
Fe1 O19 2.002 1_455 S
O2 Fe0 1.918 . S
O2 Fe1 1.918 . S
O2 Fe3 1.918 . S
Fe3 O2 1.918 . S
Fe3 O4 2.002 1_455 S
Fe3 O13 1.976 . S
Fe3 O17 1.996 . S
Fe3 O20 1.997 1_455 S
O4 Fe3 2.002 1_655 S
O4 C21 1.295 . S
O5 Fe0 1.997 1_655 S
O5 C21 1.235 . S
O6 Fe0 2.002 1_655 S
O6 C7 1.295 . S
C7 O6 1.295 . S
C7 O9 1.235 . S
C8 O13 1.287 . S
C8 O14 1.255 . S
O9 Fe1 1.997 1_655 S
O9 C7 1.235 . S
C10 O16 1.287 . S
C10 O17 1.255 . S
O11 Fe0 1.976 . S
O11 C18 1.287 . S
O12 Fe1 1.996 . S
O12 C18 1.255 . S
O13 Fe3 1.976 . S
O13 C8 1.287 . S
O14 Fe0 1.996 . S
O14 C8 1.255 . S
C15 O19 1.295 . S
C15 O20 1.235 . S
O16 Fe1 1.976 . S
O16 C10 1.287 . S
O17 Fe3 1.996 . S
O17 C10 1.255 . S
C18 O11 1.287 . S
C18 O12 1.255 . S
O19 Fe1 2.002 1_655 S
O19 C15 1.295 . S
O20 Fe3 1.997 1_655 S
O20 C15 1.235 . S
C21 O4 1.295 . S
C21 O5 1.235 . S
Fe22 O24 1.918 . S
Fe22 O27 1.997 . S
Fe22 O28 2.002 . S
Fe22 O33 1.976 . S
Fe22 O36 1.996 . S
Fe23 O24 1.918 . S
Fe23 O31 1.997 . S
Fe23 O34 1.996 . S
Fe23 O38 1.976 . S
Fe23 O41 2.002 . S
O24 Fe22 1.918 . S
O24 Fe23 1.918 . S
O24 Fe25 1.918 . S
Fe25 O24 1.918 . S
Fe25 O26 2.002 . S
Fe25 O35 1.976 . S
Fe25 O39 1.996 . S
Fe25 O42 1.997 . S
O26 Fe25 2.002 . S
O26 C43 1.295 . S
O27 Fe22 1.997 . S
O27 C43 1.235 . S
O28 Fe22 2.002 . S
O28 C29 1.295 . S
C29 O28 1.295 . S
C29 O31 1.235 . S
C30 O35 1.287 . S
C30 O36 1.255 . S
O31 Fe23 1.997 . S
O31 C29 1.235 . S
C32 O38 1.287 . S
C32 O39 1.255 . S
O33 Fe22 1.976 . S
O33 C40 1.287 . S
O34 Fe23 1.996 . S
O34 C40 1.255 . S
O35 Fe25 1.976 . S
O35 C30 1.287 . S
O36 Fe22 1.996 . S
O36 C30 1.255 . S
C37 O41 1.295 . S
C37 O42 1.235 . S
O38 Fe23 1.976 . S
O38 C32 1.287 . S
O39 Fe25 1.996 . S
O39 C32 1.255 . S
C40 O33 1.287 . S
C40 O34 1.255 . S
O41 Fe23 2.002 . S
O41 C37 1.295 . S
O42 Fe25 1.997 . S
O42 C37 1.235 . S
C43 O26 1.295 . S
C43 O27 1.235 . S
Fe44 O46 1.918 . S
Fe44 O49 1.997 1_545 S
Fe44 O50 2.002 1_545 S
Fe44 O55 1.976 . S
Fe44 O58 1.996 . S
Fe45 O46 1.918 . S
Fe45 O53 1.997 1_545 S
Fe45 O56 1.996 . S
Fe45 O60 1.976 . S
Fe45 O63 2.002 1_545 S
O46 Fe44 1.918 . S
O46 Fe45 1.918 . S
O46 Fe47 1.918 . S
Fe47 O46 1.918 . S
Fe47 O48 2.002 1_545 S
Fe47 O57 1.976 . S
Fe47 O61 1.996 . S
Fe47 O64 1.997 1_545 S
O48 Fe47 2.002 1_565 S
O48 C65 1.295 . S
O49 Fe44 1.997 1_565 S
O49 C65 1.235 . S
O50 Fe44 2.002 1_565 S
O50 C51 1.295 . S
C51 O50 1.295 . S
C51 O53 1.235 . S
C52 O57 1.287 . S
C52 O58 1.255 . S
O53 Fe45 1.997 1_565 S
O53 C51 1.235 . S
C54 O60 1.287 . S
C54 O61 1.255 . S
O55 Fe44 1.976 . S
O55 C62 1.287 . S
O56 Fe45 1.996 . S
O56 C62 1.255 . S
O57 Fe47 1.976 . S
O57 C52 1.287 . S
O58 Fe44 1.996 . S
O58 C52 1.255 . S
C59 O63 1.295 . S
C59 O64 1.235 . S
O60 Fe45 1.976 . S
O60 C54 1.287 . S
O61 Fe47 1.996 . S
O61 C54 1.255 . S
C62 O55 1.287 . S
C62 O56 1.255 . S
O63 Fe45 2.002 1_565 S
O63 C59 1.295 . S
O64 Fe47 1.997 1_565 S
O64 C59 1.235 . S
C65 O48 1.295 . S
C65 O49 1.235 . S
Fe66 O68 1.918 . S
Fe66 O71 1.997 . S
Fe66 O72 2.002 . S
Fe66 O77 1.976 1_455 S
Fe66 O80 1.996 1_455 S
Fe67 O68 1.918 . S
Fe67 O75 1.997 . S
Fe67 O78 1.996 1_455 S
Fe67 O82 1.976 1_455 S
Fe67 O85 2.002 . S
O68 Fe66 1.918 . S
O68 Fe67 1.918 . S
O68 Fe69 1.918 . S
Fe69 O68 1.918 . S
Fe69 O70 2.002 . S
Fe69 O79 1.976 1_455 S
Fe69 O83 1.996 1_455 S
Fe69 O86 1.997 . S
O70 Fe69 2.002 . S
O70 C87 1.295 . S
O71 Fe66 1.997 . S
O71 C87 1.235 . S
O72 Fe66 2.002 . S
O72 C73 1.295 . S
C73 O72 1.295 . S
C73 O75 1.235 . S
C74 O79 1.287 . S
C74 O80 1.255 . S
O75 Fe67 1.997 . S
O75 C73 1.235 . S
C76 O82 1.287 . S
C76 O83 1.255 . S
O77 Fe66 1.976 1_655 S
O77 C84 1.287 . S
O78 Fe67 1.996 1_655 S
O78 C84 1.255 . S
O79 Fe69 1.976 1_655 S
O79 C74 1.287 . S
O80 Fe66 1.996 1_655 S
O80 C74 1.255 . S
C81 O85 1.295 . S
C81 O86 1.235 . S
O82 Fe67 1.976 1_655 S
O82 C76 1.287 . S
O83 Fe69 1.996 1_655 S
O83 C76 1.255 . S
C84 O77 1.287 . S
C84 O78 1.255 . S
O85 Fe67 2.002 . S
O85 C81 1.295 . S
O86 Fe69 1.997 . S
O86 C81 1.235 . S
C87 O70 1.295 . S
C87 O71 1.235 . S
Fe88 O90 1.918 . S
Fe88 O93 1.997 . S
Fe88 O94 2.002 . S
Fe88 O99 1.976 . S
Fe88 O102 1.996 . S
Fe89 O90 1.918 . S
Fe89 O97 1.997 . S
Fe89 O100 1.996 . S
Fe89 O104 1.976 . S
Fe89 O107 2.002 . S
O90 Fe88 1.918 . S
O90 Fe89 1.918 . S
O90 Fe91 1.918 . S
Fe91 O90 1.918 . S
Fe91 O92 2.002 . S
Fe91 O101 1.976 . S
Fe91 O105 1.996 . S
Fe91 O108 1.997 . S
O92 Fe91 2.002 . S
O92 C109 1.295 . S
O93 Fe88 1.997 . S
O93 C109 1.235 . S
O94 Fe88 2.002 . S
O94 C95 1.295 . S
C95 O94 1.295 . S
C95 O97 1.235 . S
C96 O101 1.287 . S
C96 O102 1.255 . S
O97 Fe89 1.997 . S
O97 C95 1.235 . S
C98 O104 1.287 . S
C98 O105 1.255 . S
O99 Fe88 1.976 . S
O99 C106 1.287 . S
O100 Fe89 1.996 . S
O100 C106 1.255 . S
O101 Fe91 1.976 . S
O101 C96 1.287 . S
O102 Fe88 1.996 . S
O102 C96 1.255 . S
C103 O107 1.295 . S
C103 O108 1.235 . S
O104 Fe89 1.976 . S
O104 C98 1.287 . S
O105 Fe91 1.996 . S
O105 C98 1.255 . S
C106 O99 1.287 . S
C106 O100 1.255 . S
O107 Fe89 2.002 . S
O107 C103 1.295 . S
O108 Fe91 1.997 . S
O108 C103 1.235 . S
C109 O92 1.295 . S
C109 O93 1.235 . S
Fe110 O112 1.918 . S
Fe110 O115 1.997 . S
Fe110 O116 2.002 . S
Fe110 O121 1.976 1_545 S
Fe110 O124 1.996 1_545 S
Fe111 O112 1.918 . S
Fe111 O119 1.997 . S
Fe111 O122 1.996 1_545 S
Fe111 O126 1.976 1_545 S
Fe111 O129 2.002 . S
O112 Fe110 1.918 . S
O112 Fe111 1.918 . S
O112 Fe113 1.918 . S
Fe113 O112 1.918 . S
Fe113 O114 2.002 . S
Fe113 O123 1.976 1_545 S
Fe113 O127 1.996 1_545 S
Fe113 O130 1.997 . S
O114 Fe113 2.002 . S
O114 C131 1.295 . S
O115 Fe110 1.997 . S
O115 C131 1.235 . S
O116 Fe110 2.002 . S
O116 C117 1.295 . S
C117 O116 1.295 . S
C117 O119 1.235 . S
C118 O123 1.287 . S
C118 O124 1.255 . S
O119 Fe111 1.997 . S
O119 C117 1.235 . S
C120 O126 1.287 . S
C120 O127 1.255 . S
O121 Fe110 1.976 1_565 S
O121 C128 1.287 . S
O122 Fe111 1.996 1_565 S
O122 C128 1.255 . S
O123 Fe113 1.976 1_565 S
O123 C118 1.287 . S
O124 Fe110 1.996 1_565 S
O124 C118 1.255 . S
C125 O129 1.295 . S
C125 O130 1.235 . S
O126 Fe111 1.976 1_565 S
O126 C120 1.287 . S
O127 Fe113 1.996 1_565 S
O127 C120 1.255 . S
C128 O121 1.287 . S
C128 O122 1.255 . S
O129 Fe111 2.002 . S
O129 C125 1.295 . S
O130 Fe113 1.997 . S
O130 C125 1.235 . S
C131 O114 1.295 . S
C131 O115 1.235 . S
Fe132 O134 1.918 . S
Fe132 O137 1.997 . S
Fe132 O138 2.002 . S
Fe132 O143 1.976 . S
Fe132 O146 1.996 . S
Fe133 O134 1.918 . S
Fe133 O141 1.997 . S
Fe133 O144 1.996 . S
Fe133 O148 1.976 . S
Fe133 O151 2.002 . S
O134 Fe132 1.918 . S
O134 Fe133 1.918 . S
O134 Fe135 1.918 1_554 S
Fe135 O134 1.918 1_556 S
Fe135 O136 2.002 1_556 S
Fe135 O145 1.976 1_556 S
Fe135 O149 1.996 . S
Fe135 O152 1.997 . S
O136 Fe135 2.002 1_554 S
O136 C153 1.295 . S
O137 Fe132 1.997 . S
O137 C153 1.235 . S
O138 Fe132 2.002 . S
O138 C139 1.295 . S
C139 O138 1.295 . S
C139 O141 1.235 . S
C140 O145 1.287 . S
C140 O146 1.255 . S
O141 Fe133 1.997 . S
O141 C139 1.235 . S
C142 O148 1.287 1_556 S
C142 O149 1.255 . S
O143 Fe132 1.976 . S
O143 C150 1.287 . S
O144 Fe133 1.996 . S
O144 C150 1.255 . S
O145 Fe135 1.976 1_554 S
O145 C140 1.287 . S
O146 Fe132 1.996 . S
O146 C140 1.255 . S
C147 O151 1.295 1_556 S
C147 O152 1.235 . S
O148 Fe133 1.976 . S
O148 C142 1.287 1_554 S
O149 Fe135 1.996 . S
O149 C142 1.255 . S
C150 O143 1.287 . S
C150 O144 1.255 . S
O151 Fe133 2.002 . S
O151 C147 1.295 1_554 S
O152 Fe135 1.997 . S
O152 C147 1.235 . S
C153 O136 1.295 . S
C153 O137 1.235 . S
Fe154 O156 1.918 . S
Fe154 O159 1.997 . S
Fe154 O160 2.002 . S
Fe154 O165 1.976 . S
Fe154 O168 1.996 . S
Fe155 O156 1.918 . S
Fe155 O163 1.997 . S
Fe155 O166 1.996 . S
Fe155 O170 1.976 . S
Fe155 O173 2.002 . S
O156 Fe154 1.918 . S
O156 Fe155 1.918 . S
O156 Fe157 1.918 1_554 S
Fe157 O156 1.918 1_556 S
Fe157 O158 2.002 1_556 S
Fe157 O167 1.976 1_556 S
Fe157 O171 1.996 . S
Fe157 O174 1.997 . S
O158 Fe157 2.002 1_554 S
O158 C175 1.295 . S
O159 Fe154 1.997 . S
O159 C175 1.235 . S
O160 Fe154 2.002 . S
O160 C161 1.295 . S
C161 O160 1.295 . S
C161 O163 1.235 . S
C162 O167 1.287 . S
C162 O168 1.255 . S
O163 Fe155 1.997 . S
O163 C161 1.235 . S
C164 O170 1.287 1_556 S
C164 O171 1.255 . S
O165 Fe154 1.976 . S
O165 C172 1.287 . S
O166 Fe155 1.996 . S
O166 C172 1.255 . S
O167 Fe157 1.976 1_554 S
O167 C162 1.287 . S
O168 Fe154 1.996 . S
O168 C162 1.255 . S
C169 O173 1.295 1_556 S
C169 O174 1.235 . S
O170 Fe155 1.976 . S
O170 C164 1.287 1_554 S
O171 Fe157 1.996 . S
O171 C164 1.255 . S
C172 O165 1.287 . S
C172 O166 1.255 . S
O173 Fe155 2.002 . S
O173 C169 1.295 1_554 S
O174 Fe157 1.997 . S
O174 C169 1.235 . S
C175 O158 1.295 . S
C175 O159 1.235 . S
Fe176 O178 1.918 . S
Fe176 O181 1.997 . S
Fe176 O182 2.002 . S
Fe176 O187 1.976 . S
Fe176 O190 1.996 . S
Fe177 O178 1.918 . S
Fe177 O185 1.997 . S
Fe177 O188 1.996 . S
Fe177 O192 1.976 . S
Fe177 O195 2.002 . S
O178 Fe176 1.918 . S
O178 Fe177 1.918 . S
O178 Fe179 1.918 1_554 S
Fe179 O178 1.918 1_556 S
Fe179 O180 2.002 1_556 S
Fe179 O189 1.976 1_556 S
Fe179 O193 1.996 . S
Fe179 O196 1.997 . S
O180 Fe179 2.002 1_554 S
O180 C197 1.295 . S
O181 Fe176 1.997 . S
O181 C197 1.235 . S
O182 Fe176 2.002 . S
O182 C183 1.295 . S
C183 O182 1.295 . S
C183 O185 1.235 . S
C184 O189 1.287 . S
C184 O190 1.255 . S
O185 Fe177 1.997 . S
O185 C183 1.235 . S
C186 O192 1.287 1_556 S
C186 O193 1.255 . S
O187 Fe176 1.976 . S
O187 C194 1.287 . S
O188 Fe177 1.996 . S
O188 C194 1.255 . S
O189 Fe179 1.976 1_554 S
O189 C184 1.287 . S
O190 Fe176 1.996 . S
O190 C184 1.255 . S
C191 O195 1.295 1_556 S
C191 O196 1.235 . S
O192 Fe177 1.976 . S
O192 C186 1.287 1_554 S
O193 Fe179 1.996 . S
O193 C186 1.255 . S
C194 O187 1.287 . S
C194 O188 1.255 . S
O195 Fe177 2.002 . S
O195 C191 1.295 1_554 S
O196 Fe179 1.997 . S
O196 C191 1.235 . S
C197 O180 1.295 . S
C197 O181 1.235 . S
Fe198 O200 1.918 . S
Fe198 O203 1.997 . S
Fe198 O204 2.002 . S
Fe198 O209 1.976 . S
Fe198 O212 1.996 . S
Fe199 O200 1.918 . S
Fe199 O207 1.997 . S
Fe199 O210 1.996 . S
Fe199 O214 1.976 . S
Fe199 O217 2.002 . S
O200 Fe198 1.918 . S
O200 Fe199 1.918 . S
O200 Fe201 1.918 . S
Fe201 O200 1.918 . S
Fe201 O202 2.002 . S
Fe201 O211 1.976 . S
Fe201 O215 1.996 . S
Fe201 O218 1.997 . S
O202 Fe201 2.002 . S
O202 C219 1.295 . S
O203 Fe198 1.997 . S
O203 C219 1.235 . S
O204 Fe198 2.002 . S
O204 C205 1.295 . S
C205 O204 1.295 . S
C205 O207 1.235 . S
C206 O211 1.287 . S
C206 O212 1.255 . S
O207 Fe199 1.997 . S
O207 C205 1.235 . S
C208 O214 1.287 . S
C208 O215 1.255 . S
O209 Fe198 1.976 . S
O209 C216 1.287 . S
O210 Fe199 1.996 . S
O210 C216 1.255 . S
O211 Fe201 1.976 . S
O211 C206 1.287 . S
O212 Fe198 1.996 . S
O212 C206 1.255 . S
C213 O217 1.295 . S
C213 O218 1.235 . S
O214 Fe199 1.976 . S
O214 C208 1.287 . S
O215 Fe201 1.996 . S
O215 C208 1.255 . S
C216 O209 1.287 . S
C216 O210 1.255 . S
O217 Fe199 2.002 . S
O217 C213 1.295 . S
O218 Fe201 1.997 . S
O218 C213 1.235 . S
C219 O202 1.295 . S
C219 O203 1.235 . S
Fe220 O222 1.918 . S
Fe220 O225 1.997 . S
Fe220 O226 2.002 . S
Fe220 O231 1.976 . S
Fe220 O234 1.996 . S
Fe221 O222 1.918 . S
Fe221 O229 1.997 . S
Fe221 O232 1.996 . S
Fe221 O236 1.976 . S
Fe221 O239 2.002 . S
O222 Fe220 1.918 . S
O222 Fe221 1.918 . S
O222 Fe223 1.918 . S
Fe223 O222 1.918 . S
Fe223 O224 2.002 . S
Fe223 O233 1.976 . S
Fe223 O237 1.996 . S
Fe223 O240 1.997 . S
O224 Fe223 2.002 . S
O224 C241 1.295 . S
O225 Fe220 1.997 . S
O225 C241 1.235 . S
O226 Fe220 2.002 . S
O226 C227 1.295 . S
C227 O226 1.295 . S
C227 O229 1.235 . S
C228 O233 1.287 . S
C228 O234 1.255 . S
O229 Fe221 1.997 . S
O229 C227 1.235 . S
C230 O236 1.287 . S
C230 O237 1.255 . S
O231 Fe220 1.976 . S
O231 C238 1.287 . S
O232 Fe221 1.996 . S
O232 C238 1.255 . S
O233 Fe223 1.976 . S
O233 C228 1.287 . S
O234 Fe220 1.996 . S
O234 C228 1.255 . S
C235 O239 1.295 . S
C235 O240 1.235 . S
O236 Fe221 1.976 . S
O236 C230 1.287 . S
O237 Fe223 1.996 . S
O237 C230 1.255 . S
C238 O231 1.287 . S
C238 O232 1.255 . S
O239 Fe221 2.002 . S
O239 C235 1.295 . S
O240 Fe223 1.997 . S
O240 C235 1.235 . S
C241 O224 1.295 . S
C241 O225 1.235 . S
Fe242 O244 1.918 . S
Fe242 O247 1.997 . S
Fe242 O248 2.002 . S
Fe242 O253 1.976 . S
Fe242 O256 1.996 . S
Fe243 O244 1.918 . S
Fe243 O251 1.997 . S
Fe243 O254 1.996 . S
Fe243 O258 1.976 . S
Fe243 O261 2.002 . S
O244 Fe242 1.918 . S
O244 Fe243 1.918 . S
O244 Fe245 1.918 . S
Fe245 O244 1.918 . S
Fe245 O246 2.002 . S
Fe245 O255 1.976 . S
Fe245 O259 1.996 . S
Fe245 O262 1.997 . S
O246 Fe245 2.002 . S
O246 C263 1.295 . S
O247 Fe242 1.997 . S
O247 C263 1.235 . S
O248 Fe242 2.002 . S
O248 C249 1.295 . S
C249 O248 1.295 . S
C249 O251 1.235 . S
C250 O255 1.287 . S
C250 O256 1.255 . S
O251 Fe243 1.997 . S
O251 C249 1.235 . S
C252 O258 1.287 . S
C252 O259 1.255 . S
O253 Fe242 1.976 . S
O253 C260 1.287 . S
O254 Fe243 1.996 . S
O254 C260 1.255 . S
O255 Fe245 1.976 . S
O255 C250 1.287 . S
O256 Fe242 1.996 . S
O256 C250 1.255 . S
C257 O261 1.295 . S
C257 O262 1.235 . S
O258 Fe243 1.976 . S
O258 C252 1.287 . S
O259 Fe245 1.996 . S
O259 C252 1.255 . S
C260 O253 1.287 . S
C260 O254 1.255 . S
O261 Fe243 2.002 . S
O261 C257 1.295 . S
O262 Fe245 1.997 . S
O262 C257 1.235 . S
C263 O246 1.295 . S
C263 O247 1.235 . S
Fe264 O266 1.918 . S
Fe264 O269 1.997 . S
Fe264 O270 2.002 . S
Fe264 O275 1.976 . S
Fe264 O278 1.996 . S
Fe265 O266 1.918 . S
Fe265 O273 1.997 . S
Fe265 O276 1.996 . S
Fe265 O280 1.976 . S
Fe265 O283 2.002 . S
O266 Fe264 1.918 . S
O266 Fe265 1.918 . S
O266 Fe267 1.918 . S
Fe267 O266 1.918 . S
Fe267 O268 2.002 . S
Fe267 O277 1.976 . S
Fe267 O281 1.996 . S
Fe267 O284 1.997 . S
O268 Fe267 2.002 . S
O268 C285 1.295 . S
O269 Fe264 1.997 . S
O269 C285 1.235 . S
O270 Fe264 2.002 . S
O270 C271 1.295 . S
C271 O270 1.295 . S
C271 O273 1.235 . S
C272 O277 1.287 . S
C272 O278 1.255 . S
O273 Fe265 1.997 . S
O273 C271 1.235 . S
C274 O280 1.287 . S
C274 O281 1.255 . S
O275 Fe264 1.976 . S
O275 C282 1.287 . S
O276 Fe265 1.996 . S
O276 C282 1.255 . S
O277 Fe267 1.976 . S
O277 C272 1.287 . S
O278 Fe264 1.996 . S
O278 C272 1.255 . S
C279 O283 1.295 . S
C279 O284 1.235 . S
O280 Fe265 1.976 . S
O280 C274 1.287 . S
O281 Fe267 1.996 . S
O281 C274 1.255 . S
C282 O275 1.287 . S
C282 O276 1.255 . S
O283 Fe265 2.002 . S
O283 C279 1.295 . S
O284 Fe267 1.997 . S
O284 C279 1.235 . S
C285 O268 1.295 . S
C285 O269 1.235 . S
Fe286 O288 1.918 . S
Fe286 O291 1.997 . S
Fe286 O292 2.002 . S
Fe286 O297 1.976 . S
Fe286 O300 1.996 . S
Fe287 O288 1.918 . S
Fe287 O295 1.997 . S
Fe287 O298 1.996 . S
Fe287 O302 1.976 . S
Fe287 O305 2.002 . S
O288 Fe286 1.918 . S
O288 Fe287 1.918 . S
O288 Fe289 1.918 . S
Fe289 O288 1.918 . S
Fe289 O290 2.002 . S
Fe289 O299 1.976 . S
Fe289 O303 1.996 . S
Fe289 O306 1.997 . S
O290 Fe289 2.002 . S
O290 C307 1.295 . S
O291 Fe286 1.997 . S
O291 C307 1.235 . S
O292 Fe286 2.002 . S
O292 C293 1.295 . S
C293 O292 1.295 . S
C293 O295 1.235 . S
C294 O299 1.287 . S
C294 O300 1.255 . S
O295 Fe287 1.997 . S
O295 C293 1.235 . S
C296 O302 1.287 . S
C296 O303 1.255 . S
O297 Fe286 1.976 . S
O297 C304 1.287 . S
O298 Fe287 1.996 . S
O298 C304 1.255 . S
O299 Fe289 1.976 . S
O299 C294 1.287 . S
O300 Fe286 1.996 . S
O300 C294 1.255 . S
C301 O305 1.295 . S
C301 O306 1.235 . S
O302 Fe287 1.976 . S
O302 C296 1.287 . S
O303 Fe289 1.996 . S
O303 C296 1.255 . S
C304 O297 1.287 . S
C304 O298 1.255 . S
O305 Fe287 2.002 . S
O305 C301 1.295 . S
O306 Fe289 1.997 . S
O306 C301 1.235 . S
C307 O290 1.295 . S
C307 O291 1.235 . S
Fe308 O310 1.918 . S
Fe308 O313 1.997 . S
Fe308 O314 2.002 . S
Fe308 O319 1.976 . S
Fe308 O322 1.996 . S
Fe309 O310 1.918 . S
Fe309 O317 1.997 . S
Fe309 O320 1.996 . S
Fe309 O324 1.976 . S
Fe309 O327 2.002 . S
O310 Fe308 1.918 . S
O310 Fe309 1.918 . S
O310 Fe311 1.918 . S
Fe311 O310 1.918 . S
Fe311 O312 2.002 . S
Fe311 O321 1.976 . S
Fe311 O325 1.996 . S
Fe311 O328 1.997 . S
O312 Fe311 2.002 . S
O312 C329 1.295 . S
O313 Fe308 1.997 . S
O313 C329 1.235 . S
O314 Fe308 2.002 . S
O314 C315 1.295 . S
C315 O314 1.295 . S
C315 O317 1.235 . S
C316 O321 1.287 . S
C316 O322 1.255 . S
O317 Fe309 1.997 . S
O317 C315 1.235 . S
C318 O324 1.287 . S
C318 O325 1.255 . S
O319 Fe308 1.976 . S
O319 C326 1.287 . S
O320 Fe309 1.996 . S
O320 C326 1.255 . S
O321 Fe311 1.976 . S
O321 C316 1.287 . S
O322 Fe308 1.996 . S
O322 C316 1.255 . S
C323 O327 1.295 . S
C323 O328 1.235 . S
O324 Fe309 1.976 . S
O324 C318 1.287 . S
O325 Fe311 1.996 . S
O325 C318 1.255 . S
C326 O319 1.287 . S
C326 O320 1.255 . S
O327 Fe309 2.002 . S
O327 C323 1.295 . S
O328 Fe311 1.997 . S
O328 C323 1.235 . S
C329 O312 1.295 . S
C329 O313 1.235 . S
Fe330 O332 1.918 1_554 S
Fe330 O335 1.997 1_554 S
Fe330 O336 2.002 . S
Fe330 O341 1.976 . S
Fe330 O344 1.996 1_554 S
Fe331 O332 1.918 . S
Fe331 O339 1.997 . S
Fe331 O342 1.991 1_556 S
Fe331 O346 1.976 . S
Fe331 O349 2.002 . S
O332 Fe330 1.918 1_556 S
O332 Fe331 1.918 . S
O332 Fe333 1.918 . S
Fe333 O332 1.918 . S
Fe333 O334 2.002 . S
Fe333 O343 1.976 . S
Fe333 O347 1.996 . S
Fe333 O350 1.997 . S
O334 Fe333 2.002 . S
O334 C351 1.295 . S
O335 Fe330 1.997 1_556 S
O335 C351 1.235 . S
O336 Fe330 2.002 . S
O336 C337 1.295 . S
C337 O336 1.295 . S
C337 O339 1.235 1_554 S
C338 O343 1.287 . S
C338 O344 1.255 . S
O339 Fe331 1.997 . S
O339 C337 1.235 1_556 S
C340 O346 1.287 . S
C340 O347 1.255 . S
O341 Fe330 1.976 . S
O341 C348 1.287 . S
O342 Fe331 1.991 1_554 S
O342 C348 1.259 . S
O343 Fe333 1.976 . S
O343 C338 1.287 . S
O344 Fe330 1.996 1_556 S
O344 C338 1.255 . S
C345 O349 1.295 . S
C345 O350 1.235 . S
O346 Fe331 1.976 . S
O346 C340 1.287 . S
O347 Fe333 1.996 . S
O347 C340 1.255 . S
C348 O341 1.287 . S
C348 O342 1.259 . S
O349 Fe331 2.002 . S
O349 C345 1.295 . S
O350 Fe333 1.997 . S
O350 C345 1.235 . S
C351 O334 1.295 . S
C351 O335 1.235 . S
Fe352 O354 1.918 . S
Fe352 O357 1.997 . S
Fe352 O358 2.002 . S
Fe352 O363 1.976 . S
Fe352 O366 1.996 . S
Fe353 O354 1.918 . S
Fe353 O361 1.997 . S
Fe353 O364 1.996 . S
Fe353 O368 1.976 . S
Fe353 O371 2.002 . S
O354 Fe352 1.918 . S
O354 Fe353 1.918 . S
O354 Fe355 1.918 1_556 S
Fe355 O354 1.918 1_554 S
Fe355 O356 2.002 1_554 S
Fe355 O365 1.976 1_554 S
Fe355 O369 1.996 . S
Fe355 O372 1.997 . S
O356 Fe355 2.002 1_556 S
O356 C373 1.295 . S
O357 Fe352 1.997 . S
O357 C373 1.235 . S
O358 Fe352 2.002 . S
O358 C359 1.295 . S
C359 O358 1.295 . S
C359 O361 1.235 . S
C360 O365 1.287 . S
C360 O366 1.255 . S
O361 Fe353 1.997 . S
O361 C359 1.235 . S
C362 O368 1.287 1_554 S
C362 O369 1.255 . S
O363 Fe352 1.976 . S
O363 C370 1.287 . S
O364 Fe353 1.996 . S
O364 C370 1.255 . S
O365 Fe355 1.976 1_556 S
O365 C360 1.287 . S
O366 Fe352 1.996 . S
O366 C360 1.255 . S
C367 O371 1.295 1_554 S
C367 O372 1.235 . S
O368 Fe353 1.976 . S
O368 C362 1.287 1_556 S
O369 Fe355 1.996 . S
O369 C362 1.255 . S
C370 O363 1.287 . S
C370 O364 1.255 . S
O371 Fe353 2.002 . S
O371 C367 1.295 1_556 S
O372 Fe355 1.997 . S
O372 C367 1.235 . S
C373 O356 1.295 . S
C373 O357 1.235 . S
Fe374 O376 1.918 . S
Fe374 O379 1.997 . S
Fe374 O380 2.002 . S
Fe374 O385 1.976 . S
Fe374 O388 1.996 . S
Fe375 O376 1.918 1_554 S
Fe375 O383 1.997 . S
Fe375 O386 1.996 . S
Fe375 O390 1.976 1_554 S
Fe375 O393 2.002 1_554 S
O376 Fe374 1.918 . S
O376 Fe375 1.918 1_556 S
O376 Fe377 1.918 . S
Fe377 O376 1.918 . S
Fe377 O378 2.002 . S
Fe377 O387 1.976 . S
Fe377 O391 1.996 . S
Fe377 O394 1.997 . S
O378 Fe377 2.002 . S
O378 C395 1.295 . S
O379 Fe374 1.997 . S
O379 C395 1.235 . S
O380 Fe374 2.002 . S
O380 C381 1.295 1_556 S
C381 O380 1.295 1_554 S
C381 O383 1.235 . S
C382 O387 1.287 . S
C382 O388 1.255 . S
O383 Fe375 1.997 . S
O383 C381 1.235 . S
C384 O390 1.287 . S
C384 O391 1.255 . S
O385 Fe374 1.976 . S
O385 C392 1.287 1_556 S
O386 Fe375 1.996 . S
O386 C392 1.255 . S
O387 Fe377 1.976 . S
O387 C382 1.287 . S
O388 Fe374 1.996 . S
O388 C382 1.255 . S
C389 O393 1.295 . S
C389 O394 1.235 . S
O390 Fe375 1.976 1_556 S
O390 C384 1.287 . S
O391 Fe377 1.996 . S
O391 C384 1.255 . S
C392 O385 1.287 1_554 S
C392 O386 1.255 . S
O393 Fe375 2.002 1_556 S
O393 C389 1.295 . S
O394 Fe377 1.997 . S
O394 C389 1.235 . S
C395 O378 1.295 . S
C395 O379 1.235 . S
H396 C402 0.930 . S
H397 C406 0.930 . S
H398 C411 0.929 . S
H399 C409 0.929 . S
H400 C404 0.929 . S
H401 C410 0.929 . S
C402 H396 0.930 . S
C402 C403 1.367 . S
C402 C410 1.378 . S
C403 C402 1.367 . S
C403 C411 1.433 . S
C404 H400 0.929 . S
C404 C406 1.378 . S
C404 C408 1.350 . S
C405 C408 1.463 . S
C405 C410 1.350 . S
C405 N413 1.427 . S
C406 H397 0.930 . S
C406 C404 1.378 . S
C406 C407 1.367 . S
C407 C406 1.367 . S
C407 C409 1.433 . S
C408 C404 1.350 . S
C408 C405 1.463 . S
C408 N412 1.427 . S
C409 H399 0.929 . S
C409 C407 1.433 . S
C409 N412 1.384 . S
C410 H401 0.929 . S
C410 C402 1.378 . S
C410 C405 1.350 . S
C411 H398 0.929 . S
C411 C403 1.433 . S
C411 N413 1.384 . S
N412 C408 1.427 . S
N412 C409 1.384 . S
N413 C405 1.427 . S
N413 C411 1.384 . S
H414 C420 0.930 . S
H415 C424 0.930 . S
H416 C429 0.929 . S
H417 C427 0.929 . S
H418 C422 0.929 . S
H419 C428 0.929 . S
C420 H414 0.930 . S
C420 C421 1.367 . S
C420 C428 1.378 . S
C421 C420 1.367 . S
C421 C429 1.433 . S
C422 H418 0.929 . S
C422 C424 1.378 . S
C422 C426 1.350 . S
C423 C426 1.463 . S
C423 C428 1.350 . S
C423 N431 1.427 . S
C424 H415 0.930 . S
C424 C422 1.378 . S
C424 C425 1.367 . S
C425 C424 1.367 . S
C425 C427 1.433 . S
C426 C422 1.350 . S
C426 C423 1.463 . S
C426 N430 1.427 . S
C427 H417 0.929 . S
C427 C425 1.433 . S
C427 N430 1.384 . S
C428 H419 0.929 . S
C428 C420 1.378 . S
C428 C423 1.350 . S
C429 H416 0.929 . S
C429 C421 1.433 . S
C429 N431 1.384 . S
N430 C426 1.427 . S
N430 C427 1.384 . S
N431 C423 1.427 . S
N431 C429 1.384 . S
H432 C438 0.930 . S
H433 C442 0.930 . S
H434 C447 0.929 . S
H435 C445 0.929 . S
H436 C440 0.929 . S
H437 C446 0.929 . S
C438 H432 0.930 . S
C438 C439 1.367 . S
C438 C446 1.378 . S
C439 C438 1.367 . S
C439 C447 1.433 . S
C440 H436 0.929 . S
C440 C442 1.378 . S
C440 C444 1.350 . S
C441 C444 1.463 . S
C441 C446 1.350 . S
C441 N449 1.427 . S
C442 H433 0.930 . S
C442 C440 1.378 . S
C442 C443 1.367 . S
C443 C442 1.367 . S
C443 C445 1.433 . S
C444 C440 1.350 . S
C444 C441 1.463 . S
C444 N448 1.427 . S
C445 H435 0.929 . S
C445 C443 1.433 . S
C445 N448 1.384 . S
C446 H437 0.929 . S
C446 C438 1.378 . S
C446 C441 1.350 . S
C447 H434 0.929 . S
C447 C439 1.433 . S
C447 N449 1.384 . S
N448 C444 1.427 . S
N448 C445 1.384 . S
N449 C441 1.427 . S
N449 C447 1.384 . S
H450 C456 0.930 . S
H451 C460 0.930 . S
H452 C465 0.929 1_554 S
H453 C463 0.929 . S
H454 C458 0.929 . S
H455 C464 0.929 . S
C456 H450 0.930 . S
C456 C457 1.367 . S
C456 C464 1.378 . S
C457 C456 1.367 . S
C457 C465 1.433 . S
C458 H454 0.929 . S
C458 C460 1.378 . S
C458 C462 1.350 . S
C459 C462 1.463 1_556 S
C459 C464 1.350 . S
C459 N467 1.427 1_556 S
C460 H451 0.930 . S
C460 C458 1.378 . S
C460 C461 1.367 . S
C461 C460 1.367 . S
C461 C463 1.433 . S
C462 C458 1.350 . S
C462 C459 1.463 1_554 S
C462 N466 1.427 . S
C463 H453 0.929 . S
C463 C461 1.433 . S
C463 N466 1.384 . S
C464 H455 0.929 . S
C464 C456 1.378 . S
C464 C459 1.350 . S
C465 H452 0.929 1_556 S
C465 C457 1.433 . S
C465 N467 1.384 1_556 S
N466 C462 1.427 . S
N466 C463 1.384 . S
N467 C459 1.427 1_554 S
N467 C465 1.384 1_554 S
H468 C474 0.930 . S
H469 C478 0.930 . S
H470 C483 0.929 . S
H471 C481 0.929 . S
H472 C476 0.929 . S
H473 C482 0.936 . S
C474 H468 0.930 . S
C474 C475 1.367 . S
C474 C482 1.378 . S
C475 C474 1.367 . S
C475 C483 1.433 . S
C476 H472 0.929 . S
C476 C478 1.378 1_554 S
C476 C480 1.350 1_554 S
C477 C480 1.463 1_554 S
C477 C482 1.350 . S
C477 N485 1.427 . S
C478 H469 0.930 . S
C478 C476 1.378 1_556 S
C478 C479 1.367 . S
C479 C478 1.367 . S
C479 C481 1.433 . S
C480 C476 1.350 1_556 S
C480 C477 1.463 1_556 S
C480 N484 1.427 . S
C481 H471 0.929 . S
C481 C479 1.433 . S
C481 N484 1.384 . S
C482 H473 0.936 . S
C482 C474 1.378 . S
C482 C477 1.350 . S
C483 H470 0.929 . S
C483 C475 1.433 . S
C483 N485 1.384 . S
N484 C480 1.427 . S
N484 C481 1.384 . S
N485 C477 1.427 . S
N485 C483 1.384 . S
H486 C492 0.930 . S
H487 C496 0.930 . S
H488 C501 0.929 . S
H489 C499 0.929 . S
H490 C494 0.929 . S
H491 C500 0.928 . S
C492 H486 0.930 . S
C492 C493 1.367 . S
C492 C500 1.379 1_556 S
C493 C492 1.367 . S
C493 C501 1.433 . S
C494 H490 0.929 . S
C494 C496 1.378 . S
C494 C498 1.350 . S
C495 C498 1.463 1_556 S
C495 C500 1.350 1_556 S
C495 N503 1.427 . S
C496 H487 0.930 . S
C496 C494 1.378 . S
C496 C497 1.367 . S
C497 C496 1.367 . S
C497 C499 1.433 . S
C498 C494 1.350 . S
C498 C495 1.463 1_554 S
C498 N502 1.427 . S
C499 H489 0.929 . S
C499 C497 1.433 . S
C499 N502 1.384 . S
C500 H491 0.928 . S
C500 C492 1.379 1_554 S
C500 C495 1.350 1_554 S
C501 H488 0.929 . S
C501 C493 1.433 . S
C501 N503 1.384 . S
N502 C498 1.427 . S
N502 C499 1.384 . S
N503 C495 1.427 . S
N503 C501 1.384 . S
H504 C510 0.930 . S
H505 C514 0.930 . S
H506 C519 0.929 . S
H507 C517 0.929 . S
H508 C512 0.929 . S
H509 C518 0.929 . S
C510 H504 0.930 . S
C510 C511 1.367 . S
C510 C518 1.378 . S
C511 C510 1.367 . S
C511 C519 1.433 . S
C512 H508 0.929 . S
C512 C514 1.378 . S
C512 C516 1.350 . S
C513 C516 1.463 . S
C513 C518 1.350 . S
C513 N521 1.427 . S
C514 H505 0.930 . S
C514 C512 1.378 . S
C514 C515 1.367 . S
C515 C514 1.367 . S
C515 C517 1.433 . S
C516 C512 1.350 . S
C516 C513 1.463 . S
C516 N520 1.427 . S
C517 H507 0.929 . S
C517 C515 1.433 . S
C517 N520 1.384 . S
C518 H509 0.929 . S
C518 C510 1.378 . S
C518 C513 1.350 . S
C519 H506 0.929 . S
C519 C511 1.433 . S
C519 N521 1.384 . S
N520 C516 1.427 . S
N520 C517 1.384 . S
N521 C513 1.427 . S
N521 C519 1.384 . S
H522 C528 0.930 . S
H523 C532 0.930 . S
H524 C537 0.929 . S
H525 C535 0.929 . S
H526 C530 0.929 . S
H527 C536 0.929 . S
C528 H522 0.930 . S
C528 C529 1.367 . S
C528 C536 1.378 . S
C529 C528 1.367 . S
C529 C537 1.433 . S
C530 H526 0.929 . S
C530 C532 1.378 . S
C530 C534 1.350 . S
C531 C534 1.463 . S
C531 C536 1.350 . S
C531 N539 1.427 . S
C532 H523 0.930 . S
C532 C530 1.378 . S
C532 C533 1.367 . S
C533 C532 1.367 . S
C533 C535 1.433 . S
C534 C530 1.350 . S
C534 C531 1.463 . S
C534 N538 1.427 . S
C535 H525 0.929 . S
C535 C533 1.433 . S
C535 N538 1.384 . S
C536 H527 0.929 . S
C536 C528 1.378 . S
C536 C531 1.350 . S
C537 H524 0.929 . S
C537 C529 1.433 . S
C537 N539 1.384 . S
N538 C534 1.427 . S
N538 C535 1.384 . S
N539 C531 1.427 . S
N539 C537 1.384 . S
H540 C546 0.930 . S
H541 C550 0.930 . S
H542 C555 0.929 . S
H543 C553 0.929 . S
H544 C548 0.929 . S
H545 C554 0.929 . S
C546 H540 0.930 . S
C546 C547 1.367 . S
C546 C554 1.378 . S
C547 C546 1.367 . S
C547 C555 1.433 . S
C548 H544 0.929 . S
C548 C550 1.378 . S
C548 C552 1.350 . S
C549 C552 1.463 . S
C549 C554 1.350 . S
C549 N557 1.427 . S
C550 H541 0.930 . S
C550 C548 1.378 . S
C550 C551 1.367 . S
C551 C550 1.367 . S
C551 C553 1.433 . S
C552 C548 1.350 . S
C552 C549 1.463 . S
C552 N556 1.427 . S
C553 H543 0.929 . S
C553 C551 1.433 . S
C553 N556 1.384 . S
C554 H545 0.929 . S
C554 C546 1.378 . S
C554 C549 1.350 . S
C555 H542 0.929 . S
C555 C547 1.433 . S
C555 N557 1.384 . S
N556 C552 1.427 . S
N556 C553 1.384 . S
N557 C549 1.427 . S
N557 C555 1.384 . S
H558 C564 0.930 . S
H559 C568 0.930 . S
H560 C573 0.929 1_556 S
H561 C571 0.929 . S
H562 C566 0.929 . S
H563 C572 0.929 . S
C564 H558 0.930 . S
C564 C565 1.367 . S
C564 C572 1.378 . S
C565 C564 1.367 . S
C565 C573 1.433 . S
C566 H562 0.929 . S
C566 C568 1.378 . S
C566 C570 1.350 . S
C567 C570 1.463 1_554 S
C567 C572 1.350 . S
C567 N575 1.427 1_554 S
C568 H559 0.930 . S
C568 C566 1.378 . S
C568 C569 1.367 . S
C569 C568 1.367 . S
C569 C571 1.433 . S
C570 C566 1.350 . S
C570 C567 1.463 1_556 S
C570 N574 1.427 . S
C571 H561 0.929 . S
C571 C569 1.433 . S
C571 N574 1.384 . S
C572 H563 0.929 . S
C572 C564 1.378 . S
C572 C567 1.350 . S
C573 H560 0.929 1_554 S
C573 C565 1.433 . S
C573 N575 1.384 1_554 S
N574 C570 1.427 . S
N574 C571 1.384 . S
N575 C567 1.427 1_556 S
N575 C573 1.384 1_556 S
H576 C582 0.930 . S
H577 C586 0.930 . S
H578 C591 0.929 . S
H579 C589 0.929 . S
H580 C584 0.929 . S
H581 C590 0.929 . S
C582 H576 0.930 . S
C582 C583 1.367 . S
C582 C590 1.378 . S
C583 C582 1.367 . S
C583 C591 1.433 . S
C584 H580 0.929 . S
C584 C586 1.378 . S
C584 C588 1.350 . S
C585 C588 1.463 1_556 S
C585 C590 1.350 . S
C585 N593 1.427 . S
C586 H577 0.930 . S
C586 C584 1.378 . S
C586 C587 1.367 . S
C587 C586 1.367 . S
C587 C589 1.433 . S
C588 C584 1.350 . S
C588 C585 1.463 1_554 S
C588 N592 1.427 . S
C589 H579 0.929 . S
C589 C587 1.433 . S
C589 N592 1.384 . S
C590 H581 0.929 . S
C590 C582 1.378 . S
C590 C585 1.350 . S
C591 H578 0.929 . S
C591 C583 1.433 . S
C591 N593 1.384 . S
N592 C588 1.427 . S
N592 C589 1.384 . S
N593 C585 1.427 . S
N593 C591 1.384 . S
H594 C600 0.930 . S
H595 C604 0.930 . S
H596 C609 0.929 . S
H597 C607 0.929 . S
H598 C602 0.929 . S
H599 C608 0.929 1_554 S
C600 H594 0.930 . S
C600 C601 1.367 . S
C600 C608 1.378 . S
C601 C600 1.367 . S
C601 C609 1.433 . S
C602 H598 0.929 . S
C602 C604 1.378 1_556 S
C602 C606 1.350 1_556 S
C603 C606 1.463 1_556 S
C603 C608 1.350 . S
C603 N611 1.427 . S
C604 H595 0.930 . S
C604 C602 1.378 1_554 S
C604 C605 1.367 . S
C605 C604 1.367 . S
C605 C607 1.433 . S
C606 C602 1.350 1_554 S
C606 C603 1.463 1_554 S
C606 N610 1.427 . S
C607 H597 0.929 . S
C607 C605 1.433 . S
C607 N610 1.384 . S
C608 H599 0.929 1_556 S
C608 C600 1.378 . S
C608 C603 1.350 . S
C609 H596 0.929 . S
C609 C601 1.433 . S
C609 N611 1.384 . S
N610 C606 1.427 . S
N610 C607 1.384 . S
N611 C603 1.427 . S
N611 C609 1.384 . S
H612 C618 0.930 . S
H613 C622 0.930 . S
H614 C627 0.929 . S
H615 C625 0.929 . S
H616 C620 0.929 . S
H617 C626 0.929 . S
C618 H612 0.930 . S
C618 C619 1.367 . S
C618 C626 1.378 . S
C619 C618 1.367 . S
C619 C627 1.433 . S
C620 H616 0.929 . S
C620 C622 1.378 . S
C620 C624 1.350 . S
C621 C624 1.463 . S
C621 C626 1.350 . S
C621 N629 1.427 . S
C622 H613 0.930 . S
C622 C620 1.378 . S
C622 C623 1.367 . S
C623 C622 1.367 . S
C623 C625 1.433 . S
C624 C620 1.350 . S
C624 C621 1.463 . S
C624 N628 1.427 . S
C625 H615 0.929 . S
C625 C623 1.433 . S
C625 N628 1.384 . S
C626 H617 0.929 . S
C626 C618 1.378 . S
C626 C621 1.350 . S
C627 H614 0.929 . S
C627 C619 1.433 . S
C627 N629 1.384 . S
N628 C624 1.427 . S
N628 C625 1.384 . S
N629 C621 1.427 . S
N629 C627 1.384 . S
H630 C636 0.930 . S
H631 C640 0.930 . S
H632 C645 0.929 . S
H633 C643 0.929 . S
H634 C638 0.929 . S
H635 C644 0.929 . S
C636 H630 0.930 . S
C636 C637 1.367 . S
C636 C644 1.378 . S
C637 C636 1.367 . S
C637 C645 1.433 . S
C638 H634 0.929 . S
C638 C640 1.378 . S
C638 C642 1.350 . S
C639 C642 1.463 . S
C639 C644 1.350 . S
C639 N647 1.427 . S
C640 H631 0.930 . S
C640 C638 1.378 . S
C640 C641 1.367 . S
C641 C640 1.367 . S
C641 C643 1.433 . S
C642 C638 1.350 . S
C642 C639 1.463 . S
C642 N646 1.427 . S
C643 H633 0.929 . S
C643 C641 1.433 . S
C643 N646 1.384 . S
C644 H635 0.929 . S
C644 C636 1.378 . S
C644 C639 1.350 . S
C645 H632 0.929 . S
C645 C637 1.433 . S
C645 N647 1.384 . S
N646 C642 1.427 . S
N646 C643 1.384 . S
N647 C639 1.427 . S
N647 C645 1.384 . S
H648 C654 0.930 . S
H649 C658 0.930 . S
H650 C663 0.929 . S
H651 C661 0.929 . S
H652 C656 0.929 . S
H653 C662 0.929 . S
C654 H648 0.930 . S
C654 C655 1.367 . S
C654 C662 1.378 . S
C655 C654 1.367 . S
C655 C663 1.433 . S
C656 H652 0.929 . S
C656 C658 1.378 . S
C656 C660 1.350 . S
C657 C660 1.463 . S
C657 C662 1.350 . S
C657 N665 1.427 . S
C658 H649 0.930 . S
C658 C656 1.378 . S
C658 C659 1.367 . S
C659 C658 1.367 . S
C659 C661 1.433 . S
C660 C656 1.350 . S
C660 C657 1.463 . S
C660 N664 1.427 . S
C661 H651 0.929 . S
C661 C659 1.433 . S
C661 N664 1.384 . S
C662 H653 0.929 . S
C662 C654 1.378 . S
C662 C657 1.350 . S
C663 H650 0.929 . S
C663 C655 1.433 . S
C663 N665 1.384 . S
N664 C660 1.427 . S
N664 C661 1.384 . S
N665 C657 1.427 . S
N665 C663 1.384 . S
H666 C672 0.930 . S
H667 C676 0.930 . S
H668 C681 0.929 . S
H669 C679 0.929 . S
H670 C674 0.929 . S
H671 C680 0.929 . S
C672 H666 0.930 . S
C672 C673 1.367 . S
C672 C680 1.378 . S
C673 C672 1.367 . S
C673 C681 1.433 . S
C674 H670 0.929 . S
C674 C676 1.378 . S
C674 C678 1.350 . S
C675 C678 1.463 . S
C675 C680 1.350 . S
C675 N683 1.427 . S
C676 H667 0.930 . S
C676 C674 1.378 . S
C676 C677 1.367 . S
C677 C676 1.367 . S
C677 C679 1.433 . S
C678 C674 1.350 . S
C678 C675 1.463 . S
C678 N682 1.427 . S
C679 H669 0.929 . S
C679 C677 1.433 . S
C679 N682 1.384 . S
C680 H671 0.929 . S
C680 C672 1.378 . S
C680 C675 1.350 . S
C681 H668 0.929 . S
C681 C673 1.433 . S
C681 N683 1.384 . S
N682 C678 1.427 . S
N682 C679 1.384 . S
N683 C675 1.427 . S
N683 C681 1.384 . S
H684 C690 0.930 . S
H685 C694 0.930 . S
H686 C699 0.929 . S
H687 C697 0.929 . S
H688 C692 0.929 . S
H689 C698 0.929 . S
C690 H684 0.930 . S
C690 C691 1.367 . S
C690 C698 1.378 . S
C691 C690 1.367 . S
C691 C699 1.433 . S
C692 H688 0.929 . S
C692 C694 1.378 . S
C692 C696 1.350 . S
C693 C696 1.463 . S
C693 C698 1.350 . S
C693 N701 1.427 . S
C694 H685 0.930 . S
C694 C692 1.378 . S
C694 C695 1.367 . S
C695 C694 1.367 . S
C695 C697 1.433 . S
C696 C692 1.350 . S
C696 C693 1.463 . S
C696 N700 1.427 . S
C697 H687 0.929 . S
C697 C695 1.433 . S
C697 N700 1.384 . S
C698 H689 0.929 . S
C698 C690 1.378 . S
C698 C693 1.350 . S
C699 H686 0.929 . S
C699 C691 1.433 . S
C699 N701 1.384 . S
N700 C696 1.427 . S
N700 C697 1.384 . S
N701 C693 1.427 . S
N701 C699 1.384 . S
H702 C708 0.930 . S
H703 C712 0.930 . S
H704 C717 0.929 . S
H705 C715 0.929 . S
H706 C710 0.929 . S
H707 C716 0.929 . S
C708 H702 0.930 . S
C708 C709 1.367 . S
C708 C716 1.378 . S
C709 C708 1.367 . S
C709 C717 1.433 . S
C710 H706 0.929 . S
C710 C712 1.378 . S
C710 C714 1.350 . S
C711 C714 1.463 . S
C711 C716 1.350 . S
C711 N719 1.427 . S
C712 H703 0.930 . S
C712 C710 1.378 . S
C712 C713 1.367 . S
C713 C712 1.367 . S
C713 C715 1.433 . S
C714 C710 1.350 . S
C714 C711 1.463 . S
C714 N718 1.427 . S
C715 H705 0.929 . S
C715 C713 1.433 . S
C715 N718 1.384 . S
C716 H707 0.929 . S
C716 C708 1.378 . S
C716 C711 1.350 . S
C717 H704 0.929 . S
C717 C709 1.433 . S
C717 N719 1.384 . S
N718 C714 1.427 . S
N718 C715 1.384 . S
N719 C711 1.427 . S
N719 C717 1.384 . S
H720 C726 0.930 . S
H721 C730 0.930 . S
H722 C735 0.929 . S
H723 C733 0.929 . S
H724 C728 0.929 . S
H725 C734 0.929 . S
C726 H720 0.930 . S
C726 C727 1.367 . S
C726 C734 1.378 . S
C727 C726 1.367 . S
C727 C735 1.433 . S
C728 H724 0.929 . S
C728 C730 1.378 . S
C728 C732 1.350 . S
C729 C732 1.463 . S
C729 C734 1.350 . S
C729 N737 1.427 . S
C730 H721 0.930 . S
C730 C728 1.378 . S
C730 C731 1.367 . S
C731 C730 1.367 . S
C731 C733 1.433 . S
C732 C728 1.350 . S
C732 C729 1.463 . S
C732 N736 1.427 . S
C733 H723 0.929 . S
C733 C731 1.433 . S
C733 N736 1.384 . S
C734 H725 0.929 . S
C734 C726 1.378 . S
C734 C729 1.350 . S
C735 H722 0.929 . S
C735 C727 1.433 . S
C735 N737 1.384 . S
N736 C732 1.427 . S
N736 C733 1.384 . S
N737 C729 1.427 . S
N737 C735 1.384 . S
H738 C744 0.930 1_554 S
H739 C748 0.930 . S
H740 C753 0.929 . S
H741 C751 0.929 . S
H742 C746 0.929 . S
H743 C752 0.929 . S
C744 H738 0.930 1_556 S
C744 C745 1.367 . S
C744 C752 1.378 . S
C745 C744 1.367 . S
C745 C753 1.433 . S
C746 H742 0.929 . S
C746 C748 1.378 . S
C746 C750 1.350 . S
C747 C750 1.463 . S
C747 C752 1.350 . S
C747 N755 1.427 . S
C748 H739 0.930 . S
C748 C746 1.378 . S
C748 C749 1.367 . S
C749 C748 1.367 . S
C749 C751 1.433 . S
C750 C746 1.350 . S
C750 C747 1.463 . S
C750 N754 1.427 . S
C751 H741 0.929 . S
C751 C749 1.433 . S
C751 N754 1.384 . S
C752 H743 0.929 . S
C752 C744 1.378 . S
C752 C747 1.350 . S
C753 H740 0.929 . S
C753 C745 1.433 . S
C753 N755 1.384 . S
N754 C750 1.427 . S
N754 C751 1.384 . S
N755 C747 1.427 . S
N755 C753 1.384 . S
H756 C762 0.930 1_554 S
H757 C766 0.930 . S
H758 C771 0.929 . S
H759 C769 0.929 . S
H760 C764 0.929 . S
H761 C770 0.929 . S
C762 H756 0.930 1_556 S
C762 C763 1.367 . S
C762 C770 1.378 . S
C763 C762 1.367 . S
C763 C771 1.433 . S
C764 H760 0.929 . S
C764 C766 1.378 . S
C764 C768 1.350 . S
C765 C768 1.463 . S
C765 C770 1.350 . S
C765 N773 1.427 . S
C766 H757 0.930 . S
C766 C764 1.378 . S
C766 C767 1.367 . S
C767 C766 1.367 . S
C767 C769 1.433 . S
C768 C764 1.350 . S
C768 C765 1.463 . S
C768 N772 1.427 . S
C769 H759 0.929 . S
C769 C767 1.433 . S
C769 N772 1.384 . S
C770 H761 0.929 . S
C770 C762 1.378 . S
C770 C765 1.350 . S
C771 H758 0.929 . S
C771 C763 1.433 . S
C771 N773 1.384 . S
N772 C768 1.427 . S
N772 C769 1.384 . S
N773 C765 1.427 . S
N773 C771 1.384 . S
H774 C780 0.930 . S
H775 C784 0.930 . S
H776 C789 0.929 . S
H777 C787 0.929 . S
H778 C782 0.929 . S
H779 C788 0.929 . S
C780 H774 0.930 . S
C780 C781 1.367 . S
C780 C788 1.378 . S
C781 C780 1.367 . S
C781 C789 1.433 . S
C782 H778 0.929 . S
C782 C784 1.378 . S
C782 C786 1.350 . S
C783 C786 1.463 . S
C783 C788 1.350 . S
C783 N791 1.427 . S
C784 H775 0.930 . S
C784 C782 1.378 . S
C784 C785 1.367 . S
C785 C784 1.367 . S
C785 C787 1.433 . S
C786 C782 1.350 . S
C786 C783 1.463 . S
C786 N790 1.427 . S
C787 H777 0.929 . S
C787 C785 1.433 . S
C787 N790 1.384 . S
C788 H779 0.929 . S
C788 C780 1.378 . S
C788 C783 1.350 . S
C789 H776 0.929 . S
C789 C781 1.433 . S
C789 N791 1.384 . S
N790 C786 1.427 . S
N790 C787 1.384 . S
N791 C783 1.427 . S
N791 C789 1.384 . S
H792 C798 0.930 . S
H793 C802 0.930 . S
H794 C807 0.929 . S
H795 C805 0.929 . S
H796 C800 0.929 . S
H797 C806 0.929 . S
C798 H792 0.930 . S
C798 C799 1.367 . S
C798 C806 1.378 . S
C799 C798 1.367 . S
C799 C807 1.433 . S
C800 H796 0.929 . S
C800 C802 1.378 . S
C800 C804 1.350 . S
C801 C804 1.463 . S
C801 C806 1.350 . S
C801 N809 1.427 . S
C802 H793 0.930 . S
C802 C800 1.378 . S
C802 C803 1.367 . S
C803 C802 1.367 . S
C803 C805 1.433 . S
C804 C800 1.350 . S
C804 C801 1.463 . S
C804 N808 1.427 . S
C805 H795 0.929 . S
C805 C803 1.433 . S
C805 N808 1.384 . S
C806 H797 0.929 . S
C806 C798 1.378 . S
C806 C801 1.350 . S
C807 H794 0.929 . S
C807 C799 1.433 . S
C807 N809 1.384 . S
N808 C804 1.427 . S
N808 C805 1.384 . S
N809 C801 1.427 . S
N809 C807 1.384 . S
H810 C816 0.930 . S
H811 C820 0.930 . S
H812 C825 0.929 . S
H813 C823 0.929 . S
H814 C818 0.929 . S
H815 C824 0.929 . S
C816 H810 0.930 . S
C816 C817 1.367 . S
C816 C824 1.378 . S
C817 C816 1.367 . S
C817 C825 1.433 . S
C818 H814 0.929 . S
C818 C820 1.378 . S
C818 C822 1.350 . S
C819 C822 1.463 . S
C819 C824 1.350 . S
C819 N827 1.427 . S
C820 H811 0.930 . S
C820 C818 1.378 . S
C820 C821 1.367 . S
C821 C820 1.367 . S
C821 C823 1.433 . S
C822 C818 1.350 . S
C822 C819 1.463 . S
C822 N826 1.427 . S
C823 H813 0.929 . S
C823 C821 1.433 . S
C823 N826 1.384 . S
C824 H815 0.929 . S
C824 C816 1.378 . S
C824 C819 1.350 . S
C825 H812 0.929 . S
C825 C817 1.433 . S
C825 N827 1.384 . S
N826 C822 1.427 . S
N826 C823 1.384 . S
N827 C819 1.427 . S
N827 C825 1.384 . S
H828 C834 0.930 . S
H829 C838 0.930 . S
H830 C843 0.929 . S
H831 C841 0.929 . S
H832 C836 0.929 . S
H833 C842 0.929 . S
C834 H828 0.930 . S
C834 C835 1.367 . S
C834 C842 1.378 . S
C835 C834 1.367 . S
C835 C843 1.433 . S
C836 H832 0.929 . S
C836 C838 1.378 . S
C836 C840 1.350 . S
C837 C840 1.463 . S
C837 C842 1.350 . S
C837 N845 1.427 . S
C838 H829 0.930 . S
C838 C836 1.378 . S
C838 C839 1.367 . S
C839 C838 1.367 . S
C839 C841 1.433 . S
C840 C836 1.350 . S
C840 C837 1.463 . S
C840 N844 1.427 . S
C841 H831 0.929 . S
C841 C839 1.433 . S
C841 N844 1.384 . S
C842 H833 0.929 . S
C842 C834 1.378 . S
C842 C837 1.350 . S
C843 H830 0.929 . S
C843 C835 1.433 . S
C843 N845 1.384 . S
N844 C840 1.427 . S
N844 C841 1.384 . S
N845 C837 1.427 . S
N845 C843 1.384 . S
H846 C852 0.930 . S
H847 C856 0.930 . S
H848 C861 0.929 . S
H849 C859 0.929 1_556 S
H850 C854 0.929 . S
H851 C860 0.929 . S
C852 H846 0.930 . S
C852 C853 1.367 . S
C852 C860 1.378 . S
C853 C852 1.367 . S
C853 C861 1.433 . S
C854 H850 0.929 . S
C854 C856 1.378 . S
C854 C858 1.350 . S
C855 C858 1.463 . S
C855 C860 1.350 . S
C855 N863 1.427 . S
C856 H847 0.930 . S
C856 C854 1.378 . S
C856 C857 1.367 . S
C857 C856 1.367 . S
C857 C859 1.433 . S
C858 C854 1.350 . S
C858 C855 1.463 . S
C858 N862 1.427 . S
C859 H849 0.929 1_554 S
C859 C857 1.433 . S
C859 N862 1.384 . S
C860 H851 0.929 . S
C860 C852 1.378 . S
C860 C855 1.350 . S
C861 H848 0.929 . S
C861 C853 1.433 . S
C861 N863 1.384 . S
N862 C858 1.427 . S
N862 C859 1.384 . S
N863 C855 1.427 . S
N863 C861 1.384 . S
H864 C870 0.930 . S
H865 C874 0.930 . S
H866 C879 0.929 . S
H867 C877 0.929 . S
H868 C872 0.929 . S
H869 C878 0.929 . S
C870 H864 0.930 . S
C870 C871 1.367 . S
C870 C878 1.378 . S
C871 C870 1.367 . S
C871 C879 1.433 . S
C872 H868 0.929 . S
C872 C874 1.378 . S
C872 C876 1.350 . S
C873 C876 1.463 . S
C873 C878 1.350 . S
C873 N881 1.427 . S
C874 H865 0.930 . S
C874 C872 1.378 . S
C874 C875 1.367 . S
C875 C874 1.367 . S
C875 C877 1.433 . S
C876 C872 1.350 . S
C876 C873 1.463 . S
C876 N880 1.427 . S
C877 H867 0.929 . S
C877 C875 1.433 . S
C877 N880 1.384 . S
C878 H869 0.929 . S
C878 C870 1.378 . S
C878 C873 1.350 . S
C879 H866 0.929 . S
C879 C871 1.433 . S
C879 N881 1.384 . S
N880 C876 1.427 . S
N880 C877 1.384 . S
N881 C873 1.427 . S
N881 C879 1.384 . S
H882 C888 0.930 . S
H883 C892 0.930 . S
H884 C897 0.929 . S
H885 C895 0.929 . S
H886 C890 0.929 . S
H887 C896 0.929 . S
C888 H882 0.930 . S
C888 C889 1.367 . S
C888 C896 1.378 . S
C889 C888 1.367 . S
C889 C897 1.433 . S
C890 H886 0.929 . S
C890 C892 1.378 . S
C890 C894 1.350 . S
C891 C894 1.463 . S
C891 C896 1.350 . S
C891 N899 1.427 . S
C892 H883 0.930 . S
C892 C890 1.378 . S
C892 C893 1.367 . S
C893 C892 1.367 . S
C893 C895 1.433 . S
C894 C890 1.350 . S
C894 C891 1.463 . S
C894 N898 1.427 . S
C895 H885 0.929 . S
C895 C893 1.433 . S
C895 N898 1.384 . S
C896 H887 0.929 . S
C896 C888 1.378 . S
C896 C891 1.350 . S
C897 H884 0.929 . S
C897 C889 1.433 . S
C897 N899 1.384 . S
N898 C894 1.427 . S
N898 C895 1.384 . S
N899 C891 1.427 . S
N899 C897 1.384 . S
H900 C906 0.930 . S
H901 C910 0.930 . S
H902 C915 0.929 . S
H903 C913 0.929 . S
H904 C908 0.929 . S
H905 C914 0.929 . S
C906 H900 0.930 . S
C906 C907 1.367 . S
C906 C914 1.378 . S
C907 C906 1.367 . S
C907 C915 1.433 . S
C908 H904 0.929 . S
C908 C910 1.378 . S
C908 C912 1.350 . S
C909 C912 1.463 . S
C909 C914 1.350 . S
C909 N917 1.427 . S
C910 H901 0.930 . S
C910 C908 1.378 . S
C910 C911 1.367 . S
C911 C910 1.367 . S
C911 C913 1.433 . S
C912 C908 1.350 . S
C912 C909 1.463 . S
C912 N916 1.427 . S
C913 H903 0.929 . S
C913 C911 1.433 . S
C913 N916 1.384 . S
C914 H905 0.929 . S
C914 C906 1.378 . S
C914 C909 1.350 . S
C915 H902 0.929 . S
C915 C907 1.433 . S
C915 N917 1.384 . S
N916 C912 1.427 . S
N916 C913 1.384 . S
N917 C909 1.427 . S
N917 C915 1.384 . S
H918 C924 0.930 . S
H919 C928 0.930 . S
H920 C933 0.929 . S
H921 C931 0.929 . S
H922 C926 0.929 . S
H923 C932 0.929 . S
C924 H918 0.930 . S
C924 C925 1.367 . S
C924 C932 1.378 . S
C925 C924 1.367 . S
C925 C933 1.433 . S
C926 H922 0.929 . S
C926 C928 1.378 . S
C926 C930 1.350 . S
C927 C930 1.463 . S
C927 C932 1.350 . S
C927 N935 1.427 . S
C928 H919 0.930 . S
C928 C926 1.378 . S
C928 C929 1.367 . S
C929 C928 1.367 . S
C929 C931 1.433 . S
C930 C926 1.350 . S
C930 C927 1.463 . S
C930 N934 1.427 . S
C931 H921 0.929 . S
C931 C929 1.433 . S
C931 N934 1.384 . S
C932 H923 0.929 . S
C932 C924 1.378 . S
C932 C927 1.350 . S
C933 H920 0.929 . S
C933 C925 1.433 . S
C933 N935 1.384 . S
N934 C930 1.427 . S
N934 C931 1.384 . S
N935 C927 1.427 . S
N935 C933 1.384 . S
H936 C942 0.930 . S
H937 C946 0.930 . S
H938 C951 0.929 . S
H939 C949 0.929 . S
H940 C944 0.929 . S
H941 C950 0.929 . S
C942 H936 0.930 . S
C942 C943 1.367 . S
C942 C950 1.378 . S
C943 C942 1.367 . S
C943 C951 1.433 . S
C944 H940 0.929 . S
C944 C946 1.378 . S
C944 C948 1.350 . S
C945 C948 1.463 . S
C945 C950 1.350 . S
C945 N953 1.427 . S
C946 H937 0.930 . S
C946 C944 1.378 . S
C946 C947 1.367 . S
C947 C946 1.367 . S
C947 C949 1.433 . S
C948 C944 1.350 . S
C948 C945 1.463 . S
C948 N952 1.427 . S
C949 H939 0.929 . S
C949 C947 1.433 . S
C949 N952 1.384 . S
C950 H941 0.929 . S
C950 C942 1.378 . S
C950 C945 1.350 . S
C951 H938 0.929 . S
C951 C943 1.433 . S
C951 N953 1.384 . S
N952 C948 1.427 . S
N952 C949 1.384 . S
N953 C945 1.427 . S
N953 C951 1.384 . S
H954 C960 0.930 . S
H955 C964 0.930 . S
H956 C969 0.929 . S
H957 C967 0.929 . S
H958 C962 0.929 . S
H959 C968 0.929 . S
C960 H954 0.930 . S
C960 C961 1.367 . S
C960 C968 1.378 . S
C961 C960 1.367 . S
C961 C969 1.433 . S
C962 H958 0.929 . S
C962 C964 1.378 . S
C962 C966 1.350 . S
C963 C966 1.463 . S
C963 C968 1.350 . S
C963 N971 1.427 . S
C964 H955 0.930 . S
C964 C962 1.378 . S
C964 C965 1.367 . S
C965 C964 1.367 . S
C965 C967 1.433 . S
C966 C962 1.350 . S
C966 C963 1.463 . S
C966 N970 1.427 . S
C967 H957 0.929 . S
C967 C965 1.433 . S
C967 N970 1.384 . S
C968 H959 0.929 . S
C968 C960 1.378 . S
C968 C963 1.350 . S
C969 H956 0.929 . S
C969 C961 1.433 . S
C969 N971 1.384 . S
N970 C966 1.427 . S
N970 C967 1.384 . S
N971 C963 1.427 . S
N971 C969 1.384 . S
H972 C978 0.930 . S
H973 C982 0.930 . S
H974 C987 0.929 . S
H975 C985 0.929 . S
H976 C980 0.929 . S
H977 C986 0.929 . S
C978 H972 0.930 . S
C978 C979 1.367 . S
C978 C986 1.378 . S
C979 C978 1.367 . S
C979 C987 1.433 . S
C980 H976 0.929 . S
C980 C982 1.378 . S
C980 C984 1.350 . S
C981 C984 1.463 . S
C981 C986 1.350 . S
C981 N989 1.427 . S
C982 H973 0.930 . S
C982 C980 1.378 . S
C982 C983 1.367 . S
C983 C982 1.367 . S
C983 C985 1.433 . S
C984 C980 1.350 . S
C984 C981 1.463 . S
C984 N988 1.427 . S
C985 H975 0.929 . S
C985 C983 1.433 . S
C985 N988 1.384 . S
C986 H977 0.929 . S
C986 C978 1.378 . S
C986 C981 1.350 . S
C987 H974 0.929 . S
C987 C979 1.433 . S
C987 N989 1.384 . S
N988 C984 1.427 . S
N988 C985 1.384 . S
N989 C981 1.427 . S
N989 C987 1.384 . S
H990 C996 0.930 . S
H991 C1000 0.930 . S
H992 C1005 0.929 . S
H993 C1003 0.929 . S
H994 C998 0.929 . S
H995 C1004 0.929 . S
C996 H990 0.930 . S
C996 C997 1.367 . S
C996 C1004 1.378 . S
C997 C996 1.367 . S
C997 C1005 1.433 . S
C998 H994 0.929 . S
C998 C1000 1.378 . S
C998 C1002 1.350 . S
C999 C1002 1.463 . S
C999 C1004 1.350 . S
C999 N1007 1.427 . S
C1000 H991 0.930 . S
C1000 C998 1.378 . S
C1000 C1001 1.367 . S
C1001 C1000 1.367 . S
C1001 C1003 1.433 . S
C1002 C998 1.350 . S
C1002 C999 1.463 . S
C1002 N1006 1.427 . S
C1003 H993 0.929 . S
C1003 C1001 1.433 . S
C1003 N1006 1.384 . S
C1004 H995 0.929 . S
C1004 C996 1.378 . S
C1004 C999 1.350 . S
C1005 H992 0.929 . S
C1005 C997 1.433 . S
C1005 N1007 1.384 . S
N1006 C1002 1.427 . S
N1006 C1003 1.384 . S
N1007 C999 1.427 . S
N1007 C1005 1.384 . S
H1008 C1014 0.930 . S
H1009 C1018 0.930 . S
H1010 C1023 0.929 . S
H1011 C1021 0.929 . S
H1012 C1016 0.929 . S
H1013 C1022 0.929 . S
C1014 H1008 0.930 . S
C1014 C1015 1.367 . S
C1014 C1022 1.378 . S
C1015 C1014 1.367 . S
C1015 C1023 1.433 . S
C1016 H1012 0.929 . S
C1016 C1018 1.378 . S
C1016 C1020 1.350 . S
C1017 C1020 1.463 . S
C1017 C1022 1.350 . S
C1017 N1025 1.427 . S
C1018 H1009 0.930 . S
C1018 C1016 1.378 . S
C1018 C1019 1.367 . S
C1019 C1018 1.367 . S
C1019 C1021 1.433 . S
C1020 C1016 1.350 . S
C1020 C1017 1.463 . S
C1020 N1024 1.427 . S
C1021 H1011 0.929 . S
C1021 C1019 1.433 . S
C1021 N1024 1.384 . S
C1022 H1013 0.929 . S
C1022 C1014 1.378 . S
C1022 C1017 1.350 . S
C1023 H1010 0.929 . S
C1023 C1015 1.433 . S
C1023 N1025 1.384 . S
N1024 C1020 1.427 . S
N1024 C1021 1.384 . S
N1025 C1017 1.427 . S
N1025 C1023 1.384 . S
H1026 C1032 0.930 . S
H1027 C1036 0.930 . S
H1028 C1041 0.929 . S
H1029 C1039 0.929 . S
H1030 C1034 0.929 . S
H1031 C1040 0.929 . S
C1032 H1026 0.930 . S
C1032 C1033 1.367 . S
C1032 C1040 1.378 . S
C1033 C1032 1.367 . S
C1033 C1041 1.433 . S
C1034 H1030 0.929 . S
C1034 C1036 1.378 . S
C1034 C1038 1.350 . S
C1035 C1038 1.463 . S
C1035 C1040 1.350 . S
C1035 N1043 1.427 . S
C1036 H1027 0.930 . S
C1036 C1034 1.378 . S
C1036 C1037 1.367 . S
C1037 C1036 1.367 . S
C1037 C1039 1.433 . S
C1038 C1034 1.350 . S
C1038 C1035 1.463 . S
C1038 N1042 1.427 . S
C1039 H1029 0.929 . S
C1039 C1037 1.433 . S
C1039 N1042 1.384 . S
C1040 H1031 0.929 . S
C1040 C1032 1.378 . S
C1040 C1035 1.350 . S
C1041 H1028 0.929 . S
C1041 C1033 1.433 . S
C1041 N1043 1.384 . S
N1042 C1038 1.427 . S
N1042 C1039 1.384 . S
N1043 C1035 1.427 . S
N1043 C1041 1.384 . S
H1044 C1050 0.930 . S
H1045 C1054 0.930 . S
H1046 C1059 0.929 . S
H1047 C1057 0.929 . S
H1048 C1052 0.929 . S
H1049 C1058 0.929 . S
C1050 H1044 0.930 . S
C1050 C1051 1.367 . S
C1050 C1058 1.378 . S
C1051 C1050 1.367 . S
C1051 C1059 1.433 . S
C1052 H1048 0.929 . S
C1052 C1054 1.378 . S
C1052 C1056 1.350 . S
C1053 C1056 1.463 . S
C1053 C1058 1.350 . S
C1053 N1061 1.427 . S
C1054 H1045 0.930 . S
C1054 C1052 1.378 . S
C1054 C1055 1.367 . S
C1055 C1054 1.367 . S
C1055 C1057 1.433 . S
C1056 C1052 1.350 . S
C1056 C1053 1.463 . S
C1056 N1060 1.427 . S
C1057 H1047 0.929 . S
C1057 C1055 1.433 . S
C1057 N1060 1.384 . S
C1058 H1049 0.929 . S
C1058 C1050 1.378 . S
C1058 C1053 1.350 . S
C1059 H1046 0.929 . S
C1059 C1051 1.433 . S
C1059 N1061 1.384 . S
N1060 C1056 1.427 . S
N1060 C1057 1.384 . S
N1061 C1053 1.427 . S
N1061 C1059 1.384 . S
H1062 C1068 0.930 . S
H1063 C1072 0.930 . S
H1064 C1077 0.929 . S
H1065 C1075 0.929 . S
H1066 C1070 0.929 . S
H1067 C1076 0.929 . S
C1068 H1062 0.930 . S
C1068 C1069 1.367 . S
C1068 C1076 1.378 . S
C1069 C1068 1.367 . S
C1069 C1077 1.433 . S
C1070 H1066 0.929 . S
C1070 C1072 1.378 . S
C1070 C1074 1.350 . S
C1071 C1074 1.463 . S
C1071 C1076 1.350 . S
C1071 N1079 1.427 . S
C1072 H1063 0.930 . S
C1072 C1070 1.378 . S
C1072 C1073 1.367 . S
C1073 C1072 1.367 . S
C1073 C1075 1.433 . S
C1074 C1070 1.350 . S
C1074 C1071 1.463 . S
C1074 N1078 1.427 . S
C1075 H1065 0.929 . S
C1075 C1073 1.433 . S
C1075 N1078 1.384 . S
C1076 H1067 0.929 . S
C1076 C1068 1.378 . S
C1076 C1071 1.350 . S
C1077 H1064 0.929 . S
C1077 C1069 1.433 . S
C1077 N1079 1.384 . S
N1078 C1074 1.427 . S
N1078 C1075 1.384 . S
N1079 C1071 1.427 . S
N1079 C1077 1.384 . S
H1080 C1086 0.930 . S
H1081 C1090 0.930 . S
H1082 C1095 0.929 . S
H1083 C1093 0.929 . S
H1084 C1088 0.929 . S
H1085 C1094 0.929 . S
C1086 H1080 0.930 . S
C1086 C1087 1.367 . S
C1086 C1094 1.378 . S
C1087 C1086 1.367 . S
C1087 C1095 1.433 . S
C1088 H1084 0.929 . S
C1088 C1090 1.378 . S
C1088 C1092 1.350 . S
C1089 C1092 1.463 . S
C1089 C1094 1.350 . S
C1089 N1097 1.427 . S
C1090 H1081 0.930 . S
C1090 C1088 1.378 . S
C1090 C1091 1.367 . S
C1091 C1090 1.367 . S
C1091 C1093 1.433 . S
C1092 C1088 1.350 . S
C1092 C1089 1.463 . S
C1092 N1096 1.427 . S
C1093 H1083 0.929 . S
C1093 C1091 1.433 . S
C1093 N1096 1.384 . S
C1094 H1085 0.929 . S
C1094 C1086 1.378 . S
C1094 C1089 1.350 . S
C1095 H1082 0.929 . S
C1095 C1087 1.433 . S
C1095 N1097 1.384 . S
N1096 C1092 1.427 . S
N1096 C1093 1.384 . S
N1097 C1089 1.427 . S
N1097 C1095 1.384 . S
H1098 C1104 0.930 . S
H1099 C1108 0.930 . S
H1100 C1113 0.929 . S
H1101 C1111 0.929 . S
H1102 C1106 0.929 . S
H1103 C1112 0.929 . S
C1104 H1098 0.930 . S
C1104 C1105 1.367 . S
C1104 C1112 1.378 . S
C1105 C1104 1.367 . S
C1105 C1113 1.433 . S
C1106 H1102 0.929 . S
C1106 C1108 1.378 . S
C1106 C1110 1.350 . S
C1107 C1110 1.463 . S
C1107 C1112 1.350 . S
C1107 N1115 1.427 . S
C1108 H1099 0.930 . S
C1108 C1106 1.378 . S
C1108 C1109 1.367 1_556 S
C1109 C1108 1.367 1_554 S
C1109 C1111 1.433 . S
C1110 C1106 1.350 . S
C1110 C1107 1.463 . S
C1110 N1114 1.427 1_556 S
C1111 H1101 0.929 . S
C1111 C1109 1.433 . S
C1111 N1114 1.384 . S
C1112 H1103 0.929 . S
C1112 C1104 1.378 . S
C1112 C1107 1.350 . S
C1113 H1100 0.929 . S
C1113 C1105 1.433 . S
C1113 N1115 1.384 . S
N1114 C1110 1.427 1_554 S
N1114 C1111 1.384 . S
N1115 C1107 1.427 . S
N1115 C1113 1.384 . S
H1116 C1122 0.930 . S
H1117 C1126 0.930 . S
H1118 C1131 0.929 . S
H1119 C1129 0.929 . S
H1120 C1124 0.929 . S
H1121 C1130 0.929 . S
C1122 H1116 0.930 . S
C1122 C1123 1.367 . S
C1122 C1130 1.378 . S
C1123 C1122 1.367 . S
C1123 C1131 1.433 . S
C1124 H1120 0.929 . S
C1124 C1126 1.378 . S
C1124 C1128 1.350 . S
C1125 C1128 1.463 . S
C1125 C1130 1.350 . S
C1125 N1133 1.427 . S
C1126 H1117 0.930 . S
C1126 C1124 1.378 . S
C1126 C1127 1.367 1_556 S
C1127 C1126 1.367 1_554 S
C1127 C1129 1.433 . S
C1128 C1124 1.350 . S
C1128 C1125 1.463 . S
C1128 N1132 1.427 . S
C1129 H1119 0.929 . S
C1129 C1127 1.433 . S
C1129 N1132 1.384 1_554 S
C1130 H1121 0.929 . S
C1130 C1122 1.378 . S
C1130 C1125 1.350 . S
C1131 H1118 0.929 . S
C1131 C1123 1.433 . S
C1131 N1133 1.384 . S
N1132 C1128 1.427 . S
N1132 C1129 1.384 1_556 S
N1133 C1125 1.427 . S
N1133 C1131 1.384 . S
H1134 C1140 0.930 . S
H1135 C1144 0.930 . S
H1136 C1149 0.929 . S
H1137 C1147 0.929 . S
H1138 C1142 0.929 . S
H1139 C1148 0.929 . S
C1140 H1134 0.930 . S
C1140 C1141 1.367 . S
C1140 C1148 1.378 . S
C1141 C1140 1.367 . S
C1141 C1149 1.433 . S
C1142 H1138 0.929 . S
C1142 C1144 1.378 1_556 S
C1142 C1146 1.350 . S
C1143 C1146 1.463 . S
C1143 C1148 1.350 . S
C1143 N1151 1.427 . S
C1144 H1135 0.930 . S
C1144 C1142 1.378 1_554 S
C1144 C1145 1.367 . S
C1145 C1144 1.367 . S
C1145 C1147 1.433 1_554 S
C1146 C1142 1.350 . S
C1146 C1143 1.463 . S
C1146 N1150 1.427 . S
C1147 H1137 0.929 . S
C1147 C1145 1.433 1_556 S
C1147 N1150 1.384 . S
C1148 H1139 0.929 . S
C1148 C1140 1.378 . S
C1148 C1143 1.350 . S
C1149 H1136 0.929 . S
C1149 C1141 1.433 . S
C1149 N1151 1.384 . S
N1150 C1146 1.427 . S
N1150 C1147 1.384 . S
N1151 C1143 1.427 . S
N1151 C1149 1.384 . S
H1152 C1158 0.930 . S
H1153 C1162 0.930 . S
H1154 C1167 0.929 . S
H1155 C1165 0.929 . S
H1156 C1160 0.929 . S
H1157 C1166 0.929 . S
C1158 H1152 0.930 . S
C1158 C1159 1.367 . S
C1158 C1166 1.378 . S
C1159 C1158 1.367 . S
C1159 C1167 1.433 . S
C1160 H1156 0.929 . S
C1160 C1162 1.378 . S
C1160 C1164 1.350 . S
C1161 C1164 1.463 . S
C1161 C1166 1.350 . S
C1161 N1169 1.427 . S
C1162 H1153 0.930 . S
C1162 C1160 1.378 . S
C1162 C1163 1.367 . S
C1163 C1162 1.367 . S
C1163 C1165 1.433 . S
C1164 C1160 1.350 . S
C1164 C1161 1.463 . S
C1164 N1168 1.427 . S
C1165 H1155 0.929 . S
C1165 C1163 1.433 . S
C1165 N1168 1.384 . S
C1166 H1157 0.929 . S
C1166 C1158 1.378 . S
C1166 C1161 1.350 . S
C1167 H1154 0.929 . S
C1167 C1159 1.433 . S
C1167 N1169 1.384 . S
N1168 C1164 1.427 . S
N1168 C1165 1.384 . S
N1169 C1161 1.427 . S
N1169 C1167 1.384 . S
H1170 C1176 0.930 . S
H1171 C1180 0.930 . S
H1172 C1185 0.929 . S
H1173 C1183 0.929 . S
H1174 C1178 0.929 . S
H1175 C1184 0.929 . S
C1176 H1170 0.930 . S
C1176 C1177 1.367 . S
C1176 C1184 1.378 . S
C1177 C1176 1.367 . S
C1177 C1185 1.433 . S
C1178 H1174 0.929 . S
C1178 C1180 1.378 . S
C1178 C1182 1.350 . S
C1179 C1182 1.463 . S
C1179 C1184 1.350 . S
C1179 N1187 1.427 . S
C1180 H1171 0.930 . S
C1180 C1178 1.378 . S
C1180 C1181 1.367 . S
C1181 C1180 1.367 . S
C1181 C1183 1.433 . S
C1182 C1178 1.350 . S
C1182 C1179 1.463 . S
C1182 N1186 1.427 . S
C1183 H1173 0.929 . S
C1183 C1181 1.433 . S
C1183 N1186 1.384 . S
C1184 H1175 0.929 . S
C1184 C1176 1.378 . S
C1184 C1179 1.350 . S
C1185 H1172 0.929 . S
C1185 C1177 1.433 . S
C1185 N1187 1.384 . S
N1186 C1182 1.427 . S
N1186 C1183 1.384 . S
N1187 C1179 1.427 . S
N1187 C1185 1.384 . S
H1188 C1194 0.930 . S
H1189 C1198 0.930 . S
H1190 C1203 0.929 . S
H1191 C1201 0.929 . S
H1192 C1196 0.929 . S
H1193 C1202 0.929 . S
C1194 H1188 0.930 . S
C1194 C1195 1.367 . S
C1194 C1202 1.378 . S
C1195 C1194 1.367 . S
C1195 C1203 1.433 . S
C1196 H1192 0.929 . S
C1196 C1198 1.378 . S
C1196 C1200 1.350 . S
C1197 C1200 1.463 . S
C1197 C1202 1.350 . S
C1197 N1205 1.427 . S
C1198 H1189 0.930 . S
C1198 C1196 1.378 . S
C1198 C1199 1.367 . S
C1199 C1198 1.367 . S
C1199 C1201 1.433 . S
C1200 C1196 1.350 . S
C1200 C1197 1.463 . S
C1200 N1204 1.427 . S
C1201 H1191 0.929 . S
C1201 C1199 1.433 . S
C1201 N1204 1.384 . S
C1202 H1193 0.929 . S
C1202 C1194 1.378 . S
C1202 C1197 1.350 . S
C1203 H1190 0.929 . S
C1203 C1195 1.433 . S
C1203 N1205 1.384 . S
N1204 C1200 1.427 . S
N1204 C1201 1.384 . S
N1205 C1197 1.427 . S
N1205 C1203 1.384 . S
H1206 C1212 0.930 . S
H1207 C1216 0.930 . S
H1208 C1221 0.929 . S
H1209 C1219 0.929 . S
H1210 C1214 0.929 . S
H1211 C1220 0.929 . S
C1212 H1206 0.930 . S
C1212 C1213 1.367 . S
C1212 C1220 1.378 . S
C1213 C1212 1.367 . S
C1213 C1221 1.433 1_556 S
C1214 H1210 0.929 . S
C1214 C1216 1.378 . S
C1214 C1218 1.350 . S
C1215 C1218 1.463 . S
C1215 C1220 1.350 1_554 S
C1215 N1223 1.427 . S
C1216 H1207 0.930 . S
C1216 C1214 1.378 . S
C1216 C1217 1.367 . S
C1217 C1216 1.367 . S
C1217 C1219 1.433 . S
C1218 C1214 1.350 . S
C1218 C1215 1.463 . S
C1218 N1222 1.427 . S
C1219 H1209 0.929 . S
C1219 C1217 1.433 . S
C1219 N1222 1.384 . S
C1220 H1211 0.929 . S
C1220 C1212 1.378 . S
C1220 C1215 1.350 1_556 S
C1221 H1208 0.929 . S
C1221 C1213 1.433 1_554 S
C1221 N1223 1.384 . S
N1222 C1218 1.427 . S
N1222 C1219 1.384 . S
N1223 C1215 1.427 . S
N1223 C1221 1.384 . S
H1224 C1230 0.930 . S
H1225 C1234 0.930 1_556 S
H1226 C1239 0.929 . S
H1227 C1237 0.929 . S
H1228 C1232 0.929 . S
H1229 C1238 0.929 . S
C1230 H1224 0.930 . S
C1230 C1231 1.367 . S
C1230 C1238 1.378 . S
C1231 C1230 1.367 . S
C1231 C1239 1.433 . S
C1232 H1228 0.929 . S
C1232 C1234 1.378 . S
C1232 C1236 1.350 . S
C1233 C1236 1.463 . S
C1233 C1238 1.350 . S
C1233 N1241 1.427 . S
C1234 H1225 0.930 1_554 S
C1234 C1232 1.378 . S
C1234 C1235 1.367 1_554 S
C1235 C1234 1.367 1_556 S
C1235 C1237 1.433 . S
C1236 C1232 1.350 . S
C1236 C1233 1.463 . S
C1236 N1240 1.427 . S
C1237 H1227 0.929 . S
C1237 C1235 1.433 . S
C1237 N1240 1.384 1_556 S
C1238 H1229 0.929 . S
C1238 C1230 1.378 . S
C1238 C1233 1.350 . S
C1239 H1226 0.929 . S
C1239 C1231 1.433 . S
C1239 N1241 1.384 . S
N1240 C1236 1.427 . S
N1240 C1237 1.384 1_554 S
N1241 C1233 1.427 . S
N1241 C1239 1.384 . S
H1242 C1248 0.930 . S
H1243 C1252 0.930 . S
H1244 C1257 0.929 . S
H1245 C1255 0.929 . S
H1246 C1250 0.929 . S
H1247 C1256 0.929 . S
C1248 H1242 0.930 . S
C1248 C1249 1.367 . S
C1248 C1256 1.378 . S
C1249 C1248 1.367 . S
C1249 C1257 1.433 . S
C1250 H1246 0.929 . S
C1250 C1252 1.378 . S
C1250 C1254 1.350 1_556 S
C1251 C1254 1.463 . S
C1251 C1256 1.350 . S
C1251 N1259 1.427 . S
C1252 H1243 0.930 . S
C1252 C1250 1.378 . S
C1252 C1253 1.367 . S
C1253 C1252 1.367 . S
C1253 C1255 1.433 1_556 S
C1254 C1250 1.350 1_554 S
C1254 C1251 1.463 . S
C1254 N1258 1.427 . S
C1255 H1245 0.929 . S
C1255 C1253 1.433 1_554 S
C1255 N1258 1.384 . S
C1256 H1247 0.929 . S
C1256 C1248 1.378 . S
C1256 C1251 1.350 . S
C1257 H1244 0.929 . S
C1257 C1249 1.433 . S
C1257 N1259 1.384 . S
N1258 C1254 1.427 . S
N1258 C1255 1.384 . S
N1259 C1251 1.427 . S
N1259 C1257 1.384 . S
H1260 C1266 0.930 . S
H1261 C1270 0.930 . S
H1262 C1275 0.929 . S
H1263 C1273 0.929 . S
H1264 C1268 0.929 . S
H1265 C1274 0.929 . S
C1266 H1260 0.930 . S
C1266 C1267 1.367 . S
C1266 C1274 1.378 . S
C1267 C1266 1.367 . S
C1267 C1275 1.433 . S
C1268 H1264 0.929 . S
C1268 C1270 1.378 . S
C1268 C1272 1.350 . S
C1269 C1272 1.463 . S
C1269 C1274 1.350 1_455 S
C1269 N1277 1.427 . S
C1270 H1261 0.930 . S
C1270 C1268 1.378 . S
C1270 C1271 1.367 . S
C1271 C1270 1.367 . S
C1271 C1273 1.433 . S
C1272 C1268 1.350 . S
C1272 C1269 1.463 . S
C1272 N1276 1.427 . S
C1273 H1263 0.929 . S
C1273 C1271 1.433 . S
C1273 N1276 1.384 . S
C1274 H1265 0.929 . S
C1274 C1266 1.378 . S
C1274 C1269 1.350 1_655 S
C1275 H1262 0.929 . S
C1275 C1267 1.433 . S
C1275 N1277 1.384 1_655 S
N1276 C1272 1.427 . S
N1276 C1273 1.384 . S
N1277 C1269 1.427 . S
N1277 C1275 1.384 1_455 S
H1278 C1284 0.930 . S
H1279 C1288 0.930 . S
H1280 C1293 0.929 . S
H1281 C1291 0.929 . S
H1282 C1286 0.929 . S
H1283 C1292 0.929 . S
C1284 H1278 0.930 . S
C1284 C1285 1.367 . S
C1284 C1292 1.378 . S
C1285 C1284 1.367 . S
C1285 C1293 1.433 . S
C1286 H1282 0.929 . S
C1286 C1288 1.378 . S
C1286 C1290 1.350 . S
C1287 C1290 1.463 . S
C1287 C1292 1.350 . S
C1287 N1295 1.427 . S
C1288 H1279 0.930 . S
C1288 C1286 1.378 . S
C1288 C1289 1.367 . S
C1289 C1288 1.367 . S
C1289 C1291 1.433 . S
C1290 C1286 1.350 . S
C1290 C1287 1.463 . S
C1290 N1294 1.427 . S
C1291 H1281 0.929 . S
C1291 C1289 1.433 . S
C1291 N1294 1.384 . S
C1292 H1283 0.929 . S
C1292 C1284 1.378 . S
C1292 C1287 1.350 . S
C1293 H1280 0.929 . S
C1293 C1285 1.433 . S
C1293 N1295 1.384 . S
N1294 C1290 1.427 . S
N1294 C1291 1.384 . S
N1295 C1287 1.427 . S
N1295 C1293 1.384 . S
H1296 C1302 0.930 . S
H1297 C1306 0.930 . S
H1298 C1311 0.929 . S
H1299 C1309 0.929 . S
H1300 C1304 0.929 . S
H1301 C1310 0.929 . S
C1302 H1296 0.930 . S
C1302 C1303 1.367 . S
C1302 C1310 1.378 1_565 S
C1303 C1302 1.367 . S
C1303 C1311 1.433 . S
C1304 H1300 0.929 . S
C1304 C1306 1.378 . S
C1304 C1308 1.350 . S
C1305 C1308 1.463 . S
C1305 C1310 1.350 . S
C1305 N1313 1.427 1_545 S
C1306 H1297 0.930 . S
C1306 C1304 1.378 . S
C1306 C1307 1.367 . S
C1307 C1306 1.367 . S
C1307 C1309 1.433 . S
C1308 C1304 1.350 . S
C1308 C1305 1.463 . S
C1308 N1312 1.427 . S
C1309 H1299 0.929 . S
C1309 C1307 1.433 . S
C1309 N1312 1.384 . S
C1310 H1301 0.929 . S
C1310 C1302 1.378 1_545 S
C1310 C1305 1.350 . S
C1311 H1298 0.929 . S
C1311 C1303 1.433 . S
C1311 N1313 1.384 . S
N1312 C1308 1.427 . S
N1312 C1309 1.384 . S
N1313 C1305 1.427 1_565 S
N1313 C1311 1.384 . S
H1314 C1320 0.930 . S
H1315 C1324 0.930 . S
H1316 C1329 0.929 . S
H1317 C1327 0.929 . S
H1318 C1322 0.929 . S
H1319 C1328 0.929 . S
C1320 H1314 0.930 . S
C1320 C1321 1.367 . S
C1320 C1328 1.378 1_565 S
C1321 C1320 1.367 . S
C1321 C1329 1.433 . S
C1322 H1318 0.929 . S
C1322 C1324 1.378 . S
C1322 C1326 1.350 . S
C1323 C1326 1.463 . S
C1323 C1328 1.350 . S
C1323 N1331 1.427 1_545 S
C1324 H1315 0.930 . S
C1324 C1322 1.378 . S
C1324 C1325 1.367 . S
C1325 C1324 1.367 . S
C1325 C1327 1.433 . S
C1326 C1322 1.350 . S
C1326 C1323 1.463 . S
C1326 N1330 1.427 . S
C1327 H1317 0.929 . S
C1327 C1325 1.433 . S
C1327 N1330 1.384 . S
C1328 H1319 0.929 . S
C1328 C1320 1.378 1_545 S
C1328 C1323 1.350 . S
C1329 H1316 0.929 . S
C1329 C1321 1.433 . S
C1329 N1331 1.384 . S
N1330 C1326 1.427 . S
N1330 C1327 1.384 . S
N1331 C1323 1.427 1_565 S
N1331 C1329 1.384 . S
H1332 C1338 0.930 . S
H1333 C1342 0.930 . S
H1334 C1347 0.929 . S
H1335 C1345 0.929 . S
H1336 C1340 0.929 . S
H1337 C1346 0.929 . S
C1338 H1332 0.930 . S
C1338 C1339 1.367 . S
C1338 C1346 1.378 . S
C1339 C1338 1.367 . S
C1339 C1347 1.433 . S
C1340 H1336 0.929 . S
C1340 C1342 1.378 . S
C1340 C1344 1.350 1_655 S
C1341 C1344 1.463 . S
C1341 C1346 1.350 . S
C1341 N1349 1.427 . S
C1342 H1333 0.930 . S
C1342 C1340 1.378 . S
C1342 C1343 1.367 . S
C1343 C1342 1.367 . S
C1343 C1345 1.433 . S
C1344 C1340 1.350 1_455 S
C1344 C1341 1.463 . S
C1344 N1348 1.427 1_455 S
C1345 H1335 0.929 . S
C1345 C1343 1.433 . S
C1345 N1348 1.384 . S
C1346 H1337 0.929 . S
C1346 C1338 1.378 . S
C1346 C1341 1.350 . S
C1347 H1334 0.929 . S
C1347 C1339 1.433 . S
C1347 N1349 1.384 . S
N1348 C1344 1.427 1_655 S
N1348 C1345 1.384 . S
N1349 C1341 1.427 . S
N1349 C1347 1.384 . S
H1350 C1356 0.930 . S
H1351 C1360 0.930 . S
H1352 C1365 0.929 . S
H1353 C1363 0.929 . S
H1354 C1358 0.929 . S
H1355 C1364 0.929 . S
C1356 H1350 0.930 . S
C1356 C1357 1.367 . S
C1356 C1364 1.378 . S
C1357 C1356 1.367 . S
C1357 C1365 1.433 . S
C1358 H1354 0.929 . S
C1358 C1360 1.378 . S
C1358 C1362 1.350 . S
C1359 C1362 1.463 . S
C1359 C1364 1.350 . S
C1359 N1367 1.427 . S
C1360 H1351 0.930 . S
C1360 C1358 1.378 . S
C1360 C1361 1.367 . S
C1361 C1360 1.367 . S
C1361 C1363 1.433 . S
C1362 C1358 1.350 . S
C1362 C1359 1.463 . S
C1362 N1366 1.427 . S
C1363 H1353 0.929 . S
C1363 C1361 1.433 . S
C1363 N1366 1.384 . S
C1364 H1355 0.929 . S
C1364 C1356 1.378 . S
C1364 C1359 1.350 . S
C1365 H1352 0.929 . S
C1365 C1357 1.433 . S
C1365 N1367 1.384 . S
N1366 C1362 1.427 . S
N1366 C1363 1.384 . S
N1367 C1359 1.427 . S
N1367 C1365 1.384 . S
C403 C18 1.173 . S
C407 C98 1.186 . S
C421 C128 1.224 . S
C425 C37 1.220 . S
C439 C59 1.238 . S
C443 C81 1.240 . S
C457 C62 1.186 . S
C461 C95 1.196 . S
C475 C131 1.241 . S
C479 C15 1.243 . S
C493 C40 1.157 . S
C497 C74 1.165 . S
C511 C32 1.160 . S
C515 C76 1.149 . S
C529 C54 1.208 . S
C533 C103 1.202 . S
C547 C117 1.242 . S
C551 C7 1.233 . S
C565 C118 1.197 . S
C569 C29 1.204 . S
C583 C51 1.245 . S
C587 C87 1.244 . S
C601 C10 1.191 . S
C605 C106 1.183 . S
C619 C241 1.251 . S
C623 C147 1.249 . S
C637 C169 1.256 . S
C641 C249 1.246 . S
C655 C191 1.232 . S
C659 C213 1.223 . S
C673 C238 1.165 . S
C677 C194 1.152 . S
C691 C252 1.169 . S
C695 C150 1.165 . S
C709 C206 1.191 . S
C713 C172 1.178 . S
C727 C164 1.185 . S
C731 C208 1.176 . S
C745 C186 1.185 . S
C749 C228 1.173 . S
C763 C142 1.160 . S
C767 C260 1.148 . S
C781 C161 1.233 . S
C785 C257 1.232 . S
C799 C183 1.235 . S
C803 C219 1.234 . S
C817 C227 1.256 . S
C821 C139 1.258 . S
C835 C274 1.166 . S
C839 C362 1.176 . S
C853 C301 1.223 . S
C857 C392 1.222 . S
C871 C337 1.254 . S
C875 C329 1.256 . S
C889 C359 1.194 . S
C893 C318 1.186 . S
C907 C285 1.232 . S
C911 C395 1.234 . S
C925 C304 1.165 . S
C929 C340 1.178 . S
C943 C296 1.174 . S
C947 C348 1.163 . S
C961 C316 1.211 . S
C965 C367 1.212 . S
C979 C279 1.223 . S
C983 C381 1.233 . S
C997 C382 1.202 . S
C1001 C293 1.209 . S
C1015 C345 1.257 . S
C1019 C323 1.257 . S
C1033 C272 1.178 . S
C1037 C370 1.169 . S
C1051 C8 1.926 . S
C1055 C294 1.920 . S
C1069 C43 1.930 . S
C1073 C326 1.947 . S
C1087 C65 1.941 . S
C1091 C271 1.948 . S
C1105 C52 1.921 . S
C1109 C175 1.903 . S
C1123 C21 1.951 . S
C1127 C197 1.946 . S
C1141 C30 1.946 . S
C1145 C153 1.925 . S
C1159 C235 1.923 . S
C1163 C84 1.948 . S
C1177 C109 1.969 . S
C1181 C263 1.975 . S
C1195 C125 1.959 . S
C1199 C205 1.949 . S
C1213 C373 1.931 . S
C1217 C120 1.947 . S
C1231 C73 1.939 . S
C1235 C389 1.948 . S
C1249 C96 1.927 . S
C1253 C338 1.928 . S
C1267 C184 1.952 . S
C1271 C307 1.934 . S
C1285 C140 1.944 . S
C1289 C315 1.932 . S
C1303 C282 1.919 . S
C1307 C162 1.921 . S
C1321 C360 1.915 . S
C1325 C216 1.920 . S
C1339 C384 1.893 . S
C1343 C230 1.898 . S
C1357 C250 1.945 . S
C1361 C351 1.929 . S
