# Generated by pormake.
# Topology mok, (4)-cn, num edge types: 1
# Building blocks:
#     Node 0, Type 0, BuildingBlock: AZAVOO_clean_sbu_0, # of connection points: 4
#     Node 1, Type 0, BuildingBlock: AZAVOO_clean_sbu_0, # of connection points: 4
#     Node 2, Type 0, BuildingBlock: AZAVOO_clean_sbu_0, # of connection points: 4
#     Node 3, Type 0, BuildingBlock: AZAVOO_clean_sbu_0, # of connection points: 4
#     Node 4, Type 0, BuildingBlock: AZAVOO_clean_sbu_0, # of connection points: 4
#     Node 5, Type 0, BuildingBlock: AZAVOO_clean_sbu_0, # of connection points: 4
#     Node 6, Type 0, BuildingBlock: AZAVOO_clean_sbu_0, # of connection points: 4
#     Node 7, Type 0, BuildingBlock: AZAVOO_clean_sbu_0, # of connection points: 4
#     Edge 8, Type (0, 0), BuildingBlock: XIVTED_clean_linker_0, # of connection points: 2
#     Edge 9, Type (0, 0), BuildingBlock: XIVTED_clean_linker_0, # of connection points: 2
#     Edge 10, Type (0, 0), BuildingBlock: XIVTED_clean_linker_0, # of connection points: 2
#     Edge 11, Type (0, 0), BuildingBlock: XIVTED_clean_linker_0, # of connection points: 2
#     Edge 12, Type (0, 0), BuildingBlock: XIVTED_clean_linker_0, # of connection points: 2
#     Edge 13, Type (0, 0), BuildingBlock: XIVTED_clean_linker_0, # of connection points: 2
#     Edge 14, Type (0, 0), BuildingBlock: XIVTED_clean_linker_0, # of connection points: 2
#     Edge 15, Type (0, 0), BuildingBlock: XIVTED_clean_linker_0, # of connection points: 2
#     Edge 16, Type (0, 0), BuildingBlock: XIVTED_clean_linker_0, # of connection points: 2
#     Edge 17, Type (0, 0), BuildingBlock: XIVTED_clean_linker_0, # of connection points: 2
#     Edge 18, Type (0, 0), BuildingBlock: XIVTED_clean_linker_0, # of connection points: 2
#     Edge 19, Type (0, 0), BuildingBlock: XIVTED_clean_linker_0, # of connection points: 2
#     Edge 20, Type (0, 0), BuildingBlock: XIVTED_clean_linker_0, # of connection points: 2
#     Edge 21, Type (0, 0), BuildingBlock: XIVTED_clean_linker_0, # of connection points: 2
#     Edge 22, Type (0, 0), BuildingBlock: XIVTED_clean_linker_0, # of connection points: 2
#     Edge 23, Type (0, 0), BuildingBlock: XIVTED_clean_linker_0, # of connection points: 2
# Relax obj value: 0.033
# Max RMSD: 0.042
# Mean RMSD: 0.042
data_MOF--net-mok--node1-AZAVOO_clean_sbu_0--edge1-XIVTED_clean_linker_0
_symmetry_space_group_name_H-M    P1
_symmetry_Int_Tables_number       1
_symmetry_cell_setting            triclinic
loop_
_symmetry_equiv_pos_as_xyz
'x, y, z'
_cell_length_a     43.40229
_cell_length_b     21.644142
_cell_length_c     27.086854
_cell_angle_alpha  90.127553
_cell_angle_beta   90.131619
_cell_angle_gamma 90.181872
loop_
_atom_site_label
_atom_site_type_symbol
_atom_site_fract_x
_atom_site_fract_y
_atom_site_fract_z
_atom_type_partial_charge
Mg0 Mg 0.5738 0.32828 0.01072 0.0
O1 O 0.62601 0.30506 0.01879 0.0
O2 O 0.63048 0.27227 0.09701 0.0
Mg3 Mg 0.58441 0.26855 0.13598 0.0
C4 C 0.64225 0.28554 0.05515 0.0
C5 C 0.55854 0.38806 0.91741 0.0
O6 O 0.54328 0.41538 0.95312 0.0
O7 O 0.56292 0.22567 0.00203 0.0
O8 O 0.56977 0.19514 0.08004 0.0
O9 O 0.58199 0.42364 0.04007 0.0
O10 O 0.57124 0.34236 0.08618 0.0
C11 C 0.56314 0.18367 0.035 0.0
C12 C 0.57899 0.39967 0.08344 0.0
O13 O 0.57602 0.34296 0.9281 0.0
Mg14 Mg 0.434 0.64456 0.01416 0.0
O15 O 0.38391 0.67641 0.00286 0.0
O16 O 0.37213 0.73054 0.07084 0.0
Mg17 Mg 0.41099 0.72375 0.12748 0.0
C18 C 0.36538 0.70967 0.02802 0.0
C19 C 0.45342 0.5714 0.92549 0.0
O20 O 0.46221 0.53811 0.96348 0.0
O21 O 0.45214 0.74287 0.00372 0.0
O22 O 0.44214 0.78206 0.07848 0.0
O23 O 0.41751 0.55566 0.04658 0.0
O24 O 0.42685 0.64041 0.08959 0.0
C25 C 0.45439 0.78591 0.03581 0.0
C26 C 0.41733 0.58408 0.08865 0.0
O27 O 0.4399 0.62248 0.93321 0.0
Mg28 Mg 0.55302 0.64767 0.48967 0.0
O29 O 0.60282 0.68481 0.49704 0.0
O30 O 0.61083 0.74843 0.4332 0.0
Mg31 Mg 0.56771 0.75053 0.38531 0.0
C32 C 0.61993 0.72203 0.47268 0.0
C33 C 0.54697 0.55519 0.57442 0.0
O34 O 0.54 0.52066 0.53602 0.0
O35 O 0.53347 0.73927 0.51499 0.0
O36 O 0.543 0.79903 0.44933 0.0
O37 O 0.57039 0.56985 0.44522 0.0
O38 O 0.555 0.65887 0.41367 0.0
C39 C 0.53238 0.79102 0.49278 0.0
C40 C 0.56713 0.60523 0.40709 0.0
O41 O 0.55395 0.61163 0.56787 0.0
Mg42 Mg 0.43153 0.33082 0.49462 0.0
O43 O 0.37844 0.32064 0.50076 0.0
O44 O 0.36361 0.27383 0.43061 0.0
Mg45 Mg 0.40527 0.24548 0.38574 0.0
C46 C 0.35753 0.29965 0.47182 0.0
C47 C 0.45165 0.41045 0.58132 0.0
O48 O 0.46362 0.4396 0.5434 0.0
O49 O 0.43772 0.23125 0.51638 0.0
O50 O 0.42116 0.18153 0.44887 0.0
O51 O 0.42508 0.4176 0.45329 0.0
O52 O 0.4288 0.32539 0.41827 0.0
C53 C 0.432 0.18154 0.4928 0.0
C54 C 0.42354 0.38368 0.41392 0.0
O55 O 0.43572 0.36195 0.57391 0.0
Mg56 Mg 0.07553 0.83564 0.02598 0.0
O57 O 0.12492 0.80114 0.01468 0.0
O58 O 0.13583 0.74128 0.07968 0.0
Mg59 Mg 0.0962 0.7458 0.13522 0.0
C60 C 0.14301 0.76519 0.03818 0.0
C61 C 0.06418 0.92011 0.93837 0.0
O62 O 0.05868 0.95595 0.97653 0.0
O63 O 0.05612 0.73945 0.00928 0.0
O64 O 0.06486 0.69282 0.08169 0.0
O65 O 0.09353 0.91987 0.0638 0.0
O66 O 0.08162 0.8333 0.10223 0.0
C67 C 0.05317 0.69353 0.03839 0.0
C68 C 0.09256 0.88857 0.1044 0.0
O69 O 0.07202 0.86436 0.94577 0.0
Mg70 Mg 0.93478 0.14931 0.00927 0.0
O71 O 0.88391 0.17857 0.02238 0.0
O72 O 0.88303 0.21691 0.09916 0.0
Mg73 Mg 0.93074 0.21726 0.13307 0.0
C74 C 0.86947 0.20264 0.05882 0.0
C75 C 0.95023 0.1207 0.90264 0.0
O76 O 0.97727 0.12943 0.92349 0.0
O77 O 0.94769 0.25071 -0.0045 0.0
O78 O 0.944 0.28597 0.07297 0.0
O79 O 0.92558 0.05751 0.04405 0.0
O80 O 0.94174 0.13968 0.08498 0.0
C81 C 0.94916 0.2945 0.02712 0.0
C82 C 0.93219 0.08336 0.08588 0.0
O83 O 0.9261 0.13013 0.92803 0.0
Mg84 Mg 0.07393 0.1565 0.502 0.0
O85 O 0.12021 0.20899 0.50451 0.0
O86 O 0.12211 0.26089 0.43318 0.0
Mg87 Mg 0.08077 0.23719 0.3842 0.0
C88 C 0.13361 0.24657 0.47509 0.0
C89 C 0.06336 0.08318 0.5932 0.0
O90 O 0.05307 0.04924 0.55637 0.0
O91 O 0.04764 0.24641 0.51462 0.0
O92 O 0.04832 0.2856 0.4382 0.0
O93 O 0.09668 0.07416 0.46816 0.0
O94 O 0.07677 0.15112 0.4256 0.0
C95 C 0.03923 0.28655 0.48298 0.0
C96 C 0.09173 0.0999 0.42584 0.0
O97 O 0.07493 0.13586 0.58383 0.0
Mg98 Mg 0.91645 0.81871 0.49362 0.0
O99 O 0.86391 0.8011 0.49504 0.0
O100 O 0.85286 0.74744 0.42636 0.0
Mg101 Mg 0.89596 0.73711 0.37944 0.0
C102 C 0.84488 0.77227 0.46712 0.0
C103 C 0.93966 0.88222 0.58547 0.0
O104 O 0.96133 0.89096 0.55239 0.0
O105 O 0.92558 0.7173 0.51254 0.0
O106 O 0.91431 0.67332 0.4398 0.0
O107 O 0.90995 0.90732 0.45367 0.0
O108 O 0.91636 0.81733 0.41671 0.0
C109 C 0.92342 0.66983 0.4846 0.0
C110 C 0.91147 0.87577 0.41311 0.0
O111 O 0.91645 0.84921 0.57388 0.0
H112 H 0.83246 0.24824 0.13092 0.0
H113 H 0.67743 0.26626 0.97109 0.0
H114 H 0.83009 0.18909 0.97848 0.0
H115 H 0.68404 0.28848 0.12919 0.0
H116 H 0.73351 0.24732 0.96847 0.0
H117 H 0.77837 0.27257 0.1263 0.0
C118 C 0.82058 0.24015 0.09628 0.0
C119 C 0.83605 0.21618 0.05506 0.0
C120 C 0.72251 0.25653 0.00355 0.0
C121 C 0.77318 0.24428 0.04957 0.0
C122 C 0.69064 0.26767 0.00504 0.0
C123 C 0.67601 0.27847 0.05047 0.0
C124 C 0.73961 0.25712 0.04774 0.0
C125 C 0.69415 0.27962 0.09336 0.0
C126 C 0.78947 0.25415 0.0937 0.0
C127 C 0.81909 0.20715 0.01127 0.0
N128 N 0.7248 0.26907 0.09087 0.0
N129 N 0.78845 0.22119 0.00963 0.0
H130 H 0.18026 0.8474 -0.00944 0.0
H131 H 0.3266 0.62514 0.98611 0.0
H132 H 0.17719 0.65993 0.04406 0.0
H133 H 0.33217 0.81593 0.03146 0.0
H134 H 0.27074 0.63721 0.97391 0.0
H135 H 0.23535 0.83445 0.97242 0.0
C136 C 0.19101 0.80308 -0.00273 0.0
C137 C 0.17439 0.75479 0.01927 0.0
C138 C 0.28444 0.67667 0.9853 0.0
C139 C 0.23675 0.73958 -0.00211 0.0
C140 C 0.3162 0.67 -0.00806 0.0
C141 C 0.33377 0.7196 0.01005 0.0
C142 C 0.27055 0.73368 -0.00428 0.0
C143 C 0.31925 0.77658 0.01773 0.0
C144 C 0.22233 0.79589 0.98711 0.0
C145 C 0.18937 0.69843 0.02759 0.0
N146 N 0.28839 0.78209 0.01068 0.0
N147 N 0.2198 0.69236 0.01702 0.0
H148 H 0.80678 0.86083 0.50555 0.0
H149 H 0.65947 0.63857 0.51382 0.0
H150 H 0.8095 0.66916 0.46214 0.0
H151 H 0.65378 0.82781 0.46513 0.0
H152 H 0.71534 0.65164 0.525 0.0
H153 H 0.7509 0.85054 0.51999 0.0
C154 C 0.79569 0.81642 0.50005 0.0
C155 C 0.81246 0.76589 0.48218 0.0
C156 C 0.70165 0.69052 0.51282 0.0
C157 C 0.7494 0.75358 0.49952 0.0
C158 C 0.66987 0.68323 0.5067 0.0
C159 C 0.65219 0.73203 0.48806 0.0
C160 C 0.71555 0.74733 0.50127 0.0
C161 C 0.66676 0.78889 0.47905 0.0
C162 C 0.76398 0.81065 0.50811 0.0
C163 C 0.79717 0.70932 0.47538 0.0
N164 N 0.69767 0.79499 0.48558 0.0
N165 N 0.76647 0.70463 0.48406 0.0
H166 H 0.1642 0.34183 0.43109 0.0
H167 H 0.32684 0.26739 0.55675 0.0
H168 H 0.17427 0.20568 0.54626 0.0
H169 H 0.31411 0.34937 0.41333 0.0
H170 H 0.27038 0.26706 0.56809 0.0
H171 H 0.21833 0.36897 0.44052 0.0
C172 C 0.17769 0.31806 0.45883 0.0
C173 C 0.16478 0.27039 0.48717 0.0
C174 C 0.2801 0.28608 0.53461 0.0
C175 C 0.22705 0.30116 0.49787 0.0
C176 C 0.31216 0.28658 0.5283 0.0
C177 C 0.32482 0.30804 0.48393 0.0
C178 C 0.261 0.30825 0.49657 0.0
C179 C 0.30507 0.33198 0.44788 0.0
C180 C 0.20865 0.33362 0.46416 0.0
C181 C 0.18335 0.24222 0.52322 0.0
N182 N 0.27418 0.33125 0.45491 0.0
N183 N 0.21376 0.25735 0.52705 0.0
H184 H 0.6058 0.36073 0.16886 0.0
H185 H 0.55701 0.66155 0.31801 0.0
H186 H 0.56695 0.52166 0.09929 0.0
H187 H 0.59841 0.50028 0.3838 0.0
H188 H 0.56703 0.61817 0.23619 0.0
H189 H 0.60985 0.41759 0.24608 0.0
C190 C 0.59796 0.40802 0.16996 0.0
C191 C 0.58512 0.43602 0.12824 0.0
C192 C 0.57429 0.59271 0.26854 0.0
C193 C 0.5899 0.50189 0.21641 0.0
C194 C 0.56862 0.61748 0.31524 0.0
C195 C 0.57651 0.58401 0.35771 0.0
C196 C 0.58783 0.53408 0.26449 0.0
C197 C 0.59156 0.52726 0.35203 0.0
C198 C 0.60057 0.4408 0.21397 0.0
C199 C 0.57666 0.49835 0.13102 0.0
N200 N 0.59643 0.50381 0.30629 0.0
N201 N 0.57871 0.52908 0.17474 0.0
H202 H 0.40913 0.46004 0.1031 0.0
H203 H 0.40398 0.50107 0.39586 0.0
H204 H 0.40568 0.63548 0.17891 0.0
H205 H 0.42326 0.32778 0.32312 0.0
H206 H 0.39363 0.54758 0.31568 0.0
H207 H 0.40302 0.40766 0.18254 0.0
C208 C 0.40651 0.48758 0.13625 0.0
C209 C 0.4084 0.55226 0.13448 0.0
C210 C 0.39985 0.49921 0.31727 0.0
C211 C 0.40155 0.49288 0.22507 0.0
C212 C 0.40583 0.47267 0.36303 0.0
C213 C 0.41486 0.41069 0.36606 0.0
C214 C 0.4031 0.46361 0.27421 0.0
C215 C 0.4165 0.37584 0.32241 0.0
C216 C 0.40316 0.45767 0.18154 0.0
C217 C 0.4048 0.58566 0.17846 0.0
N218 N 0.41099 0.40298 0.27813 0.0
N219 N 0.40184 0.55558 0.222 0.0
H220 H 0.46613 0.45323 0.89728 0.0
H221 H 0.46982 0.52651 0.60902 0.0
H222 H 0.45088 0.63608 0.83888 0.0
H223 H 0.44447 0.3484 0.66809 0.0
H224 H 0.47472 0.56642 0.6934 0.0
H225 H 0.47005 0.41352 0.813 0.0
C226 C 0.46378 0.48509 0.86673 0.0
C227 C 0.45777 0.5479 0.87494 0.0
C228 C 0.46816 0.51861 0.68772 0.0
C229 C 0.46252 0.50287 0.77881 0.0
C230 C 0.46542 0.49577 0.63973 0.0
C231 C 0.45627 0.43433 0.63172 0.0
C232 C 0.46219 0.47937 0.72773 0.0
C233 C 0.45113 0.39631 0.67273 0.0
C234 C 0.46591 0.46233 0.81874 0.0
C235 C 0.45516 0.58719 0.83405 0.0
N236 N 0.45416 0.41948 0.71906 0.0
N237 N 0.45755 0.56399 0.78759 0.0
H238 H 0.53836 0.50113 0.88897 0.0
H239 H 0.54378 0.43315 0.60042 0.0
H240 H 0.57201 0.32836 0.83055 0.0
H241 H 0.54972 0.61685 0.66233 0.0
H242 H 0.54523 0.39045 0.68412 0.0
H243 H 0.53378 0.54073 0.80511 0.0
C244 C 0.54476 0.47145 0.85843 0.0
C245 C 0.55577 0.41148 0.86662 0.0
C246 C 0.5463 0.44005 0.67917 0.0
C247 C 0.55021 0.45637 0.77065 0.0
C248 C 0.54539 0.46447 0.63157 0.0
C249 C 0.54698 0.52863 0.62448 0.0
C250 C 0.54841 0.48017 0.71977 0.0
C251 C 0.54878 0.5671 0.6661 0.0
C252 C 0.54223 0.49421 0.81064 0.0
C253 C 0.56365 0.37504 0.82572 0.0
N254 N 0.54939 0.54225 0.71201 0.0
N255 N 0.56058 0.398 0.77928 0.0
H256 H 0.09506 0.83371 0.19546 0.0
H257 H 0.09894 0.15324 0.33496 0.0
H258 H 0.11135 0.00727 0.12161 0.0
H259 H 0.10685 0.97895 0.41082 0.0
H260 H 0.10779 0.10063 0.25687 0.0
H261 H 0.10371 0.88469 0.27465 0.0
C262 C 0.10096 0.8823 0.19577 0.0
C263 C 0.10215 0.91641 0.15183 0.0
C264 C 0.10803 0.0739 0.29061 0.0
C265 C 0.1116 0.97528 0.24248 0.0
C266 C 0.10282 0.10399 0.33531 0.0
C267 C 0.10163 0.07033 0.37941 0.0
C268 C 0.11151 0.00946 0.28988 0.0
C269 C 0.10737 0.00661 0.37758 0.0
C270 C 0.10591 0.91142 0.24109 0.0
C271 C 0.10993 0.97928 0.1546 0.0
N272 N 0.11153 0.97799 0.3334 0.0
N273 N 0.11389 0.00691 0.19922 0.0
H274 H 0.90852 -0.00061 0.3944 0.0
H275 H 0.90887 0.96681 0.1007 0.0
H276 H 0.91006 0.82205 0.32115 0.0
H277 H 0.94382 0.12621 0.17916 0.0
H278 H 0.89997 0.91557 0.18016 0.0
H279 H 0.9109 0.04989 0.31398 0.0
C280 C 0.90895 0.97102 0.36142 0.0
C281 C 0.90923 0.90635 0.36455 0.0
C282 C 0.9094 0.96195 0.17973 0.0
C283 C 0.91202 0.96391 0.27249 0.0
C284 C 0.9145 0.9912 0.13451 0.0
C285 C 0.92678 0.05128 0.13322 0.0
C286 C 0.91631 -0.00665 0.2238 0.0
C287 C 0.93377 0.08052 0.17818 0.0
C288 C 0.91047 -0.0001 0.31557 0.0
C289 C 0.90983 0.87198 0.32052 0.0
N290 N 0.92832 0.0514 0.22158 0.0
N291 N 0.91129 0.90121 0.27621 0.0
H292 H 0.89499 0.89041 0.65671 0.0
H293 H 0.99664 0.1034 0.83608 0.0
H294 H 0.98752 0.95017 0.62271 0.0
H295 H 0.89947 0.07007 0.85748 0.0
H296 H 0.99418 0.04508 0.75887 0.0
H297 H 0.897 0.95152 0.73276 0.0
C298 C 0.9158 0.91601 0.66539 0.0
C299 C 0.94112 0.91522 0.63328 0.0
C300 C 0.97338 0.05073 0.78034 0.0
C301 C 0.9435 0.98551 0.72001 0.0
C302 C 0.97474 0.08418 0.82436 0.0
C303 C 0.94824 0.0915 0.85335 0.0
C304 C 0.94539 0.02379 0.76539 0.0
C305 C 0.92046 0.06572 0.83626 0.0
C306 C 0.91686 0.95119 0.70865 0.0
C307 C 0.96744 0.94948 0.64633 0.0
N308 N 0.91981 0.0326 0.79357 0.0
N309 N 0.96795 0.9832 0.68866 0.0
H310 H 0.05863 0.04091 0.9107 0.0
H311 H 0.04822 0.96665 0.62274 0.0
H312 H 0.06466 0.85614 0.85108 0.0
H313 H 0.07451 0.14578 0.67963 0.0
H314 H 0.04631 0.92723 0.70701 0.0
H315 H 0.0568 0.08167 0.82665 0.0
C316 C 0.05946 0.00888 0.87995 0.0
C317 C 0.06203 0.94503 0.88784 0.0
C318 C 0.05257 0.97511 0.70101 0.0
C319 C 0.05969 0.9914 0.79184 0.0
C320 C 0.05356 -0.00224 0.65296 0.0
C321 C 0.06173 0.05953 0.64417 0.0
C322 C 0.0596 0.0146 0.7406 0.0
C323 C 0.06833 0.09773 0.68476 0.0
C324 C 0.05851 0.03223 0.83206 0.0
C325 C 0.06292 0.9057 0.84665 0.0
N326 N 0.06708 0.07463 0.73133 0.0
N327 N 0.06169 0.92954 0.80035 0.0
H328 H 0.46303 0.85023 0.94882 0.0
H329 H 0.58154 0.0796 0.08141 0.0
H330 H 0.49123 0.84285 0.10155 0.0
H331 H 0.52481 0.14223 0.96049 0.0
H332 H 0.55989 0.97656 0.07214 0.0
H333 H 0.49525 0.94383 0.93828 0.0
C334 C 0.47619 0.86798 0.97981 0.0
C335 C 0.47427 0.83965 0.02627 0.0
C336 C 0.5524 0.01261 0.04719 0.0
C337 C 0.51126 0.94406 0.01426 0.0
C338 C 0.56475 0.07142 0.05244 0.0
C339 C 0.55435 0.11974 0.02245 0.0
C340 C 0.52922 0.00192 0.01205 0.0
C341 C 0.53311 0.10619 0.98471 0.0
C342 C 0.49442 0.92105 0.97381 0.0
C343 C 0.4917 0.86394 0.06533 0.0
N344 N 0.5207 0.04844 0.98108 0.0
N345 N 0.50945 0.91455 0.0584 0.0
H346 H 0.4729 0.79577 0.52329 0.0
H347 H 0.47902 0.1613 0.55763 0.0
H348 H 0.55599 0.90434 0.51238 0.0
H349 H 0.40731 0.06712 0.47608 0.0
H350 H 0.50174 0.06102 0.57806 0.0
H351 H 0.44402 0.89044 0.54284 0.0
C352 C 0.48514 0.83927 0.5268 0.0
C353 C 0.51663 0.84306 0.51604 0.0
C354 C 0.48054 0.06254 0.55689 0.0
C355 C 0.48425 0.94989 0.53871 0.0
C356 C 0.46754 0.1195 0.54529 0.0
C357 C 0.44163 0.12226 0.51432 0.0
C358 C 0.46713 0.00833 0.53816 0.0
C359 C 0.42765 0.06681 0.4993 0.0
C360 C 0.46873 0.89294 0.53769 0.0
C361 C 0.53163 0.90013 0.52028 0.0
N362 N 0.44079 0.0119 0.51096 0.0
N363 N 0.51523 0.95165 0.53103 0.0
H364 H 0.05324 0.62479 0.95248 0.0
H365 H 0.9242 0.39974 0.06163 0.0
H366 H 0.00807 0.64407 0.09322 0.0
H367 H 0.99249 0.33301 0.95933 0.0
H368 H 0.9445 0.50396 0.05224 0.0
H369 H 0.02229 0.53054 0.9365 0.0
C370 C 0.03647 0.60968 0.97947 0.0
C371 C 0.03324 0.64136 0.0244 0.0
C372 C 0.95483 0.46679 0.03121 0.0
C373 C 0.99781 0.53596 0.00617 0.0
C374 C 0.94321 0.40739 0.03646 0.0
C375 C 0.95714 0.35781 0.01196 0.0
C376 C 0.98093 0.47678 0.00184 0.0
C377 C 0.98134 0.37023 0.97912 0.0
C378 C 0.01899 0.55617 0.97045 0.0
C379 C 0.01142 0.62035 0.0584 0.0
N380 N 0.99301 0.42866 0.97571 0.0
N381 N 0.99457 0.56907 0.04858 0.0
H382 H 0.98679 0.31283 0.43482 0.0
H383 H 0.96838 0.64252 0.55303 0.0
H384 H 0.0409 0.36795 0.5611 0.0
H385 H 0.90175 0.55814 0.45535 0.0
H386 H 0.99213 0.5407 0.56542 0.0
H387 H 0.95246 0.39952 0.44906 0.0
C388 C 0.99113 0.34311 0.46601 0.0
C389 C 0.01667 0.33391 0.49663 0.0
C390 C 0.97187 0.54438 0.54224 0.0
C391 C 0.97794 0.43439 0.51274 0.0
C392 C 0.95827 0.60236 0.53531 0.0
C393 C 0.93353 0.60875 0.50225 0.0
C394 C 0.96054 0.4931 0.51579 0.0
C395 C 0.92125 0.55543 0.48024 0.0
C396 C 0.9715 0.39255 0.47432 0.0
C397 C 0.02133 0.37394 0.53675 0.0
N398 N 0.93514 0.50014 0.48684 0.0
N399 N 0.00244 0.42351 0.54314 0.0
loop_
_geom_bond_atom_site_label_1
_geom_bond_atom_site_label_2
_geom_bond_distance
_geom_bond_site_symmetry_2
_ccdc_geom_bond_type
Mg0 O1 2.028 . S
Mg0 O7 1.986 . S
Mg0 O9 2.114 . S
Mg0 O10 2.251 . S
Mg0 O13 2.010 1_554 S
O1 Mg0 2.028 . S
O1 C4 1.250 . S
O2 Mg3 2.028 . S
O2 C4 1.248 . S
Mg3 O2 2.028 . S
Mg3 O8 2.032 . S
Mg3 O10 2.079 . S
C4 O1 1.250 . S
C4 O2 1.248 . S
C5 O6 1.264 . S
C5 O13 1.249 . S
O6 C5 1.264 . S
O7 Mg0 1.986 . S
O7 C11 1.246 . S
O8 Mg3 2.032 . S
O8 C11 1.259 . S
O9 Mg0 2.114 . S
O9 C12 1.252 . S
O10 Mg0 2.251 . S
O10 Mg3 2.079 . S
O10 C12 1.273 . S
C11 O7 1.246 . S
C11 O8 1.259 . S
C12 O9 1.252 . S
C12 O10 1.273 . S
O13 Mg0 2.010 1_556 S
O13 C5 1.249 . S
Mg14 O15 2.028 . S
Mg14 O21 1.986 . S
Mg14 O23 2.114 . S
Mg14 O24 2.251 . S
Mg14 O27 2.010 1_554 S
O15 Mg14 2.028 . S
O15 C18 1.250 . S
O16 Mg17 2.028 . S
O16 C18 1.248 . S
Mg17 O16 2.028 . S
Mg17 O22 2.032 . S
Mg17 O24 2.079 . S
C18 O15 1.250 . S
C18 O16 1.248 . S
C19 O20 1.264 . S
C19 O27 1.249 . S
O20 C19 1.264 . S
O21 Mg14 1.986 . S
O21 C25 1.246 . S
O22 Mg17 2.032 . S
O22 C25 1.259 . S
O23 Mg14 2.114 . S
O23 C26 1.252 . S
O24 Mg14 2.251 . S
O24 Mg17 2.079 . S
O24 C26 1.273 . S
C25 O21 1.246 . S
C25 O22 1.259 . S
C26 O23 1.252 . S
C26 O24 1.273 . S
O27 Mg14 2.010 1_556 S
O27 C19 1.249 . S
Mg28 O29 2.028 . S
Mg28 O35 1.986 . S
Mg28 O37 2.114 . S
Mg28 O38 2.251 . S
Mg28 O41 2.010 . S
O29 Mg28 2.028 . S
O29 C32 1.250 . S
O30 Mg31 2.028 . S
O30 C32 1.248 . S
Mg31 O30 2.028 . S
Mg31 O36 2.032 . S
Mg31 O38 2.079 . S
C32 O29 1.250 . S
C32 O30 1.248 . S
C33 O34 1.264 . S
C33 O41 1.249 . S
O34 C33 1.264 . S
O35 Mg28 1.986 . S
O35 C39 1.246 . S
O36 Mg31 2.032 . S
O36 C39 1.259 . S
O37 Mg28 2.114 . S
O37 C40 1.252 . S
O38 Mg28 2.251 . S
O38 Mg31 2.079 . S
O38 C40 1.273 . S
C39 O35 1.246 . S
C39 O36 1.259 . S
C40 O37 1.252 . S
C40 O38 1.273 . S
O41 Mg28 2.010 . S
O41 C33 1.249 . S
Mg42 O43 2.028 . S
Mg42 O49 1.986 . S
Mg42 O51 2.114 . S
Mg42 O52 2.251 . S
Mg42 O55 2.010 . S
O43 Mg42 2.028 . S
O43 C46 1.250 . S
O44 Mg45 2.028 . S
O44 C46 1.248 . S
Mg45 O44 2.028 . S
Mg45 O50 2.032 . S
Mg45 O52 2.079 . S
C46 O43 1.250 . S
C46 O44 1.248 . S
C47 O48 1.264 . S
C47 O55 1.249 . S
O48 C47 1.264 . S
O49 Mg42 1.986 . S
O49 C53 1.246 . S
O50 Mg45 2.032 . S
O50 C53 1.259 . S
O51 Mg42 2.114 . S
O51 C54 1.252 . S
O52 Mg42 2.251 . S
O52 Mg45 2.079 . S
O52 C54 1.273 . S
C53 O49 1.246 . S
C53 O50 1.259 . S
C54 O51 1.252 . S
C54 O52 1.273 . S
O55 Mg42 2.010 . S
O55 C47 1.249 . S
Mg56 O57 2.028 . S
Mg56 O63 1.986 . S
Mg56 O65 2.114 . S
Mg56 O66 2.251 . S
Mg56 O69 2.010 1_554 S
O57 Mg56 2.028 . S
O57 C60 1.250 . S
O58 Mg59 2.028 . S
O58 C60 1.248 . S
Mg59 O58 2.028 . S
Mg59 O64 2.032 . S
Mg59 O66 2.079 . S
C60 O57 1.250 . S
C60 O58 1.248 . S
C61 O62 1.264 . S
C61 O69 1.249 . S
O62 C61 1.264 . S
O63 Mg56 1.986 . S
O63 C67 1.246 . S
O64 Mg59 2.032 . S
O64 C67 1.259 . S
O65 Mg56 2.114 . S
O65 C68 1.252 . S
O66 Mg56 2.251 . S
O66 Mg59 2.079 . S
O66 C68 1.273 . S
C67 O63 1.246 . S
C67 O64 1.259 . S
C68 O65 1.252 . S
C68 O66 1.273 . S
O69 Mg56 2.010 1_556 S
O69 C61 1.249 . S
Mg70 O71 2.028 . S
Mg70 O77 1.986 . S
Mg70 O79 2.114 . S
Mg70 O80 2.251 . S
Mg70 O83 2.010 1_554 S
O71 Mg70 2.028 . S
O71 C74 1.250 . S
O72 Mg73 2.028 . S
O72 C74 1.248 . S
Mg73 O72 2.028 . S
Mg73 O78 2.032 . S
Mg73 O80 2.079 . S
C74 O71 1.250 . S
C74 O72 1.248 . S
C75 O76 1.264 . S
C75 O83 1.249 . S
O76 C75 1.264 . S
O77 Mg70 1.986 . S
O77 C81 1.246 . S
O78 Mg73 2.032 . S
O78 C81 1.259 . S
O79 Mg70 2.114 . S
O79 C82 1.252 . S
O80 Mg70 2.251 . S
O80 Mg73 2.079 . S
O80 C82 1.273 . S
C81 O77 1.246 . S
C81 O78 1.259 . S
C82 O79 1.252 . S
C82 O80 1.273 . S
O83 Mg70 2.010 1_556 S
O83 C75 1.249 . S
Mg84 O85 2.028 . S
Mg84 O91 1.986 . S
Mg84 O93 2.114 . S
Mg84 O94 2.251 . S
Mg84 O97 2.010 . S
O85 Mg84 2.028 . S
O85 C88 1.250 . S
O86 Mg87 2.028 . S
O86 C88 1.248 . S
Mg87 O86 2.028 . S
Mg87 O92 2.032 . S
Mg87 O94 2.079 . S
C88 O85 1.250 . S
C88 O86 1.248 . S
C89 O90 1.264 . S
C89 O97 1.249 . S
O90 C89 1.264 . S
O91 Mg84 1.986 . S
O91 C95 1.246 . S
O92 Mg87 2.032 . S
O92 C95 1.259 . S
O93 Mg84 2.114 . S
O93 C96 1.252 . S
O94 Mg84 2.251 . S
O94 Mg87 2.079 . S
O94 C96 1.273 . S
C95 O91 1.246 . S
C95 O92 1.259 . S
C96 O93 1.252 . S
C96 O94 1.273 . S
O97 Mg84 2.010 . S
O97 C89 1.249 . S
Mg98 O99 2.028 . S
Mg98 O105 1.986 . S
Mg98 O107 2.114 . S
Mg98 O108 2.251 . S
Mg98 O111 2.010 . S
O99 Mg98 2.028 . S
O99 C102 1.250 . S
O100 Mg101 2.028 . S
O100 C102 1.248 . S
Mg101 O100 2.028 . S
Mg101 O106 2.032 . S
Mg101 O108 2.079 . S
C102 O99 1.250 . S
C102 O100 1.248 . S
C103 O104 1.264 . S
C103 O111 1.249 . S
O104 C103 1.264 . S
O105 Mg98 1.986 . S
O105 C109 1.246 . S
O106 Mg101 2.032 . S
O106 C109 1.259 . S
O107 Mg98 2.114 . S
O107 C110 1.252 . S
O108 Mg98 2.251 . S
O108 Mg101 2.079 . S
O108 C110 1.273 . S
C109 O105 1.246 . S
C109 O106 1.259 . S
C110 O107 1.252 . S
C110 O108 1.273 . S
O111 Mg98 2.010 . S
O111 C103 1.249 . S
H112 C118 0.930 . S
H113 C122 0.920 1_556 S
H114 C127 0.925 1_556 S
H115 C125 0.929 . S
H116 C120 0.919 1_556 S
H117 C126 0.929 . S
C118 H112 0.930 . S
C118 C119 1.367 . S
C118 C126 1.378 . S
C119 C118 1.367 . S
C119 C127 1.438 . S
C120 H116 0.919 1_554 S
C120 C122 1.378 . S
C120 C124 1.360 . S
C121 C124 1.463 . S
C121 C126 1.350 . S
C121 N129 1.436 . S
C122 H113 0.920 1_554 S
C122 C120 1.378 . S
C122 C123 1.377 . S
C123 C122 1.377 . S
C123 C125 1.433 . S
C124 C120 1.360 . S
C124 C121 1.463 . S
C124 N128 1.427 . S
C125 H115 0.929 . S
C125 C123 1.433 . S
C125 N128 1.384 . S
C126 H117 0.929 . S
C126 C118 1.378 . S
C126 C121 1.350 . S
C127 H114 0.925 1_554 S
C127 C119 1.438 . S
C127 N129 1.384 . S
N128 C124 1.427 . S
N128 C125 1.384 . S
N129 C121 1.436 . S
N129 C127 1.384 . S
H130 C136 0.930 . S
H131 C140 0.930 1_556 S
H132 C145 0.929 1_556 S
H133 C143 0.929 . S
H134 C138 0.929 1_556 S
H135 C144 0.929 . S
C136 H130 0.930 . S
C136 C137 1.367 . S
C136 C144 1.378 . S
C137 C136 1.367 . S
C137 C145 1.433 . S
C138 H134 0.929 1_554 S
C138 C140 1.378 . S
C138 C142 1.350 . S
C139 C142 1.463 . S
C139 C144 1.350 . S
C139 N147 1.427 . S
C140 H131 0.930 1_554 S
C140 C138 1.378 . S
C140 C141 1.367 . S
C141 C140 1.367 . S
C141 C143 1.433 . S
C142 C138 1.350 . S
C142 C139 1.463 . S
C142 N146 1.427 . S
C143 H133 0.929 . S
C143 C141 1.433 . S
C143 N146 1.384 . S
C144 H135 0.929 . S
C144 C136 1.378 . S
C144 C139 1.350 . S
C145 H132 0.929 1_554 S
C145 C137 1.433 . S
C145 N147 1.384 . S
N146 C142 1.427 . S
N146 C143 1.384 . S
N147 C139 1.427 . S
N147 C145 1.384 . S
H148 C154 0.930 . S
H149 C158 0.930 . S
H150 C163 0.929 . S
H151 C161 0.929 . S
H152 C156 0.929 . S
H153 C162 0.929 . S
C154 H148 0.930 . S
C154 C155 1.367 . S
C154 C162 1.378 . S
C155 C154 1.367 . S
C155 C163 1.433 . S
C156 H152 0.929 . S
C156 C158 1.378 . S
C156 C160 1.350 . S
C157 C160 1.463 . S
C157 C162 1.350 . S
C157 N165 1.427 . S
C158 H149 0.930 . S
C158 C156 1.378 . S
C158 C159 1.367 . S
C159 C158 1.367 . S
C159 C161 1.433 . S
C160 C156 1.350 . S
C160 C157 1.463 . S
C160 N164 1.427 . S
C161 H151 0.929 . S
C161 C159 1.433 . S
C161 N164 1.384 . S
C162 H153 0.929 . S
C162 C154 1.378 . S
C162 C157 1.350 . S
C163 H150 0.929 . S
C163 C155 1.433 . S
C163 N165 1.384 . S
N164 C160 1.427 . S
N164 C161 1.384 . S
N165 C157 1.427 . S
N165 C163 1.384 . S
H166 C172 0.930 . S
H167 C176 0.930 . S
H168 C181 0.929 . S
H169 C179 0.929 . S
H170 C174 0.929 . S
H171 C180 0.929 . S
C172 H166 0.930 . S
C172 C173 1.367 . S
C172 C180 1.378 . S
C173 C172 1.367 . S
C173 C181 1.433 . S
C174 H170 0.929 . S
C174 C176 1.378 . S
C174 C178 1.350 . S
C175 C178 1.463 . S
C175 C180 1.350 . S
C175 N183 1.427 . S
C176 H167 0.930 . S
C176 C174 1.378 . S
C176 C177 1.367 . S
C177 C176 1.367 . S
C177 C179 1.433 . S
C178 C174 1.350 . S
C178 C175 1.463 . S
C178 N182 1.427 . S
C179 H169 0.929 . S
C179 C177 1.433 . S
C179 N182 1.384 . S
C180 H171 0.929 . S
C180 C172 1.378 . S
C180 C175 1.350 . S
C181 H168 0.929 . S
C181 C173 1.433 . S
C181 N183 1.384 . S
N182 C178 1.427 . S
N182 C179 1.384 . S
N183 C175 1.427 . S
N183 C181 1.384 . S
H184 C190 0.930 . S
H185 C194 0.930 . S
H186 C199 0.929 . S
H187 C197 0.929 . S
H188 C192 0.929 . S
H189 C198 0.929 . S
C190 H184 0.930 . S
C190 C191 1.367 . S
C190 C198 1.378 . S
C191 C190 1.367 . S
C191 C199 1.433 . S
C192 H188 0.929 . S
C192 C194 1.378 . S
C192 C196 1.350 . S
C193 C196 1.463 . S
C193 C198 1.350 . S
C193 N201 1.427 . S
C194 H185 0.930 . S
C194 C192 1.378 . S
C194 C195 1.367 . S
C195 C194 1.367 . S
C195 C197 1.433 . S
C196 C192 1.350 . S
C196 C193 1.463 . S
C196 N200 1.427 . S
C197 H187 0.929 . S
C197 C195 1.433 . S
C197 N200 1.384 . S
C198 H189 0.929 . S
C198 C190 1.378 . S
C198 C193 1.350 . S
C199 H186 0.929 . S
C199 C191 1.433 . S
C199 N201 1.384 . S
N200 C196 1.427 . S
N200 C197 1.384 . S
N201 C193 1.427 . S
N201 C199 1.384 . S
H202 C208 0.930 . S
H203 C212 0.930 . S
H204 C217 0.929 . S
H205 C215 0.929 . S
H206 C210 0.929 . S
H207 C216 0.929 . S
C208 H202 0.930 . S
C208 C209 1.367 . S
C208 C216 1.378 . S
C209 C208 1.367 . S
C209 C217 1.433 . S
C210 H206 0.929 . S
C210 C212 1.378 . S
C210 C214 1.350 . S
C211 C214 1.463 . S
C211 C216 1.350 . S
C211 N219 1.427 . S
C212 H203 0.930 . S
C212 C210 1.378 . S
C212 C213 1.367 . S
C213 C212 1.367 . S
C213 C215 1.433 . S
C214 C210 1.350 . S
C214 C211 1.463 . S
C214 N218 1.427 . S
C215 H205 0.929 . S
C215 C213 1.433 . S
C215 N218 1.384 . S
C216 H207 0.929 . S
C216 C208 1.378 . S
C216 C211 1.350 . S
C217 H204 0.929 . S
C217 C209 1.433 . S
C217 N219 1.384 . S
N218 C214 1.427 . S
N218 C215 1.384 . S
N219 C211 1.427 . S
N219 C217 1.384 . S
H220 C226 0.930 . S
H221 C230 0.930 . S
H222 C235 0.929 . S
H223 C233 0.929 . S
H224 C228 0.929 . S
H225 C234 0.929 . S
C226 H220 0.930 . S
C226 C227 1.367 . S
C226 C234 1.378 . S
C227 C226 1.367 . S
C227 C235 1.433 . S
C228 H224 0.929 . S
C228 C230 1.378 . S
C228 C232 1.350 . S
C229 C232 1.463 . S
C229 C234 1.350 . S
C229 N237 1.427 . S
C230 H221 0.930 . S
C230 C228 1.378 . S
C230 C231 1.367 . S
C231 C230 1.367 . S
C231 C233 1.433 . S
C232 C228 1.350 . S
C232 C229 1.463 . S
C232 N236 1.427 . S
C233 H223 0.929 . S
C233 C231 1.433 . S
C233 N236 1.384 . S
C234 H225 0.929 . S
C234 C226 1.378 . S
C234 C229 1.350 . S
C235 H222 0.929 . S
C235 C227 1.433 . S
C235 N237 1.384 . S
N236 C232 1.427 . S
N236 C233 1.384 . S
N237 C229 1.427 . S
N237 C235 1.384 . S
H238 C244 0.930 . S
H239 C248 0.930 . S
H240 C253 0.929 . S
H241 C251 0.929 . S
H242 C246 0.929 . S
H243 C252 0.929 . S
C244 H238 0.930 . S
C244 C245 1.367 . S
C244 C252 1.378 . S
C245 C244 1.367 . S
C245 C253 1.433 . S
C246 H242 0.929 . S
C246 C248 1.378 . S
C246 C250 1.350 . S
C247 C250 1.463 . S
C247 C252 1.350 . S
C247 N255 1.427 . S
C248 H239 0.930 . S
C248 C246 1.378 . S
C248 C249 1.367 . S
C249 C248 1.367 . S
C249 C251 1.433 . S
C250 C246 1.350 . S
C250 C247 1.463 . S
C250 N254 1.427 . S
C251 H241 0.929 . S
C251 C249 1.433 . S
C251 N254 1.384 . S
C252 H243 0.929 . S
C252 C244 1.378 . S
C252 C247 1.350 . S
C253 H240 0.929 . S
C253 C245 1.433 . S
C253 N255 1.384 . S
N254 C250 1.427 . S
N254 C251 1.384 . S
N255 C247 1.427 . S
N255 C253 1.384 . S
H256 C262 0.930 . S
H257 C266 0.930 . S
H258 C271 0.929 . S
H259 C269 0.929 . S
H260 C264 0.929 . S
H261 C270 0.929 . S
C262 H256 0.930 . S
C262 C263 1.367 . S
C262 C270 1.378 . S
C263 C262 1.367 . S
C263 C271 1.433 . S
C264 H260 0.929 . S
C264 C266 1.378 . S
C264 C268 1.350 . S
C265 C268 1.463 1_565 S
C265 C270 1.350 . S
C265 N273 1.427 1_565 S
C266 H257 0.930 . S
C266 C264 1.378 . S
C266 C267 1.367 . S
C267 C266 1.367 . S
C267 C269 1.433 . S
C268 C264 1.350 . S
C268 C265 1.463 1_545 S
C268 N272 1.427 1_545 S
C269 H259 0.929 . S
C269 C267 1.433 . S
C269 N272 1.384 1_545 S
C270 H261 0.929 . S
C270 C262 1.378 . S
C270 C265 1.350 . S
C271 H258 0.929 . S
C271 C263 1.433 . S
C271 N273 1.384 1_565 S
N272 C268 1.427 1_565 S
N272 C269 1.384 1_565 S
N273 C265 1.427 1_545 S
N273 C271 1.384 1_545 S
H274 C280 0.930 1_545 S
H275 C284 0.930 1_565 S
H276 C289 0.929 . S
H277 C287 0.929 . S
H278 C282 0.929 . S
H279 C288 0.929 . S
C280 H274 0.930 1_565 S
C280 C281 1.367 . S
C280 C288 1.378 1_565 S
C281 C280 1.367 . S
C281 C289 1.433 . S
C282 H278 0.929 . S
C282 C284 1.378 1_565 S
C282 C286 1.350 1_565 S
C283 C286 1.463 1_565 S
C283 C288 1.350 1_565 S
C283 N291 1.427 . S
C284 H275 0.930 1_545 S
C284 C282 1.378 1_545 S
C284 C285 1.367 . S
C285 C284 1.367 . S
C285 C287 1.433 . S
C286 C282 1.350 1_545 S
C286 C283 1.463 1_545 S
C286 N290 1.427 . S
C287 H277 0.929 . S
C287 C285 1.433 . S
C287 N290 1.384 . S
C288 H279 0.929 . S
C288 C280 1.378 1_545 S
C288 C283 1.350 1_545 S
C289 H276 0.929 . S
C289 C281 1.433 . S
C289 N291 1.384 . S
N290 C286 1.427 . S
N290 C287 1.384 . S
N291 C283 1.427 . S
N291 C289 1.384 . S
H292 C298 0.930 . S
H293 C302 0.930 . S
H294 C307 0.929 . S
H295 C305 0.929 . S
H296 C300 0.929 . S
H297 C306 0.929 . S
C298 H292 0.930 . S
C298 C299 1.367 . S
C298 C306 1.378 . S
C299 C298 1.367 . S
C299 C307 1.433 . S
C300 H296 0.929 . S
C300 C302 1.378 . S
C300 C304 1.350 . S
C301 C304 1.463 1_565 S
C301 C306 1.350 . S
C301 N309 1.427 . S
C302 H293 0.930 . S
C302 C300 1.378 . S
C302 C303 1.367 . S
C303 C302 1.367 . S
C303 C305 1.433 . S
C304 C300 1.350 . S
C304 C301 1.463 1_545 S
C304 N308 1.427 . S
C305 H295 0.929 . S
C305 C303 1.433 . S
C305 N308 1.384 . S
C306 H297 0.929 . S
C306 C298 1.378 . S
C306 C301 1.350 . S
C307 H294 0.929 . S
C307 C299 1.433 . S
C307 N309 1.384 . S
N308 C304 1.427 . S
N308 C305 1.384 . S
N309 C301 1.427 . S
N309 C307 1.384 . S
H310 C316 0.930 1_545 S
H311 C320 0.930 1_565 S
H312 C325 0.929 . S
H313 C323 0.929 . S
H314 C318 0.929 . S
H315 C324 0.929 . S
C316 H310 0.930 1_565 S
C316 C317 1.367 . S
C316 C324 1.378 1_565 S
C317 C316 1.367 . S
C317 C325 1.433 . S
C318 H314 0.929 . S
C318 C320 1.378 1_565 S
C318 C322 1.350 1_565 S
C319 C322 1.463 1_565 S
C319 C324 1.350 1_565 S
C319 N327 1.427 . S
C320 H311 0.930 1_545 S
C320 C318 1.378 1_545 S
C320 C321 1.367 . S
C321 C320 1.367 . S
C321 C323 1.433 . S
C322 C318 1.350 1_545 S
C322 C319 1.463 1_545 S
C322 N326 1.427 . S
C323 H313 0.929 . S
C323 C321 1.433 . S
C323 N326 1.384 . S
C324 H315 0.929 . S
C324 C316 1.378 1_545 S
C324 C319 1.350 1_545 S
C325 H312 0.929 . S
C325 C317 1.433 . S
C325 N327 1.384 . S
N326 C322 1.427 . S
N326 C323 1.384 . S
N327 C319 1.427 . S
N327 C325 1.384 . S
H328 C334 0.930 . S
H329 C338 0.930 . S
H330 C343 0.929 . S
H331 C341 0.929 . S
H332 C336 0.929 . S
H333 C342 0.929 . S
C334 H328 0.930 . S
C334 C335 1.367 1_556 S
C334 C342 1.378 . S
C335 C334 1.367 1_554 S
C335 C343 1.433 . S
C336 H332 0.929 . S
C336 C338 1.378 . S
C336 C340 1.350 . S
C337 C340 1.463 1_565 S
C337 C342 1.350 1_554 S
C337 N345 1.427 . S
C338 H329 0.930 . S
C338 C336 1.378 . S
C338 C339 1.367 . S
C339 C338 1.367 . S
C339 C341 1.433 1_554 S
C340 C336 1.350 . S
C340 C337 1.463 1_545 S
C340 N344 1.427 1_554 S
C341 H331 0.929 . S
C341 C339 1.433 1_556 S
C341 N344 1.384 . S
C342 H333 0.929 . S
C342 C334 1.378 . S
C342 C337 1.350 1_556 S
C343 H330 0.929 . S
C343 C335 1.433 . S
C343 N345 1.384 . S
N344 C340 1.427 1_556 S
N344 C341 1.384 . S
N345 C337 1.427 . S
N345 C343 1.384 . S
H346 C352 0.930 . S
H347 C356 0.930 . S
H348 C361 0.929 . S
H349 C359 0.929 . S
H350 C354 0.929 . S
H351 C360 0.929 . S
C352 H346 0.930 . S
C352 C353 1.367 . S
C352 C360 1.378 . S
C353 C352 1.367 . S
C353 C361 1.433 . S
C354 H350 0.929 . S
C354 C356 1.378 . S
C354 C358 1.350 . S
C355 C358 1.463 1_565 S
C355 C360 1.350 . S
C355 N363 1.427 . S
C356 H347 0.930 . S
C356 C354 1.378 . S
C356 C357 1.367 . S
C357 C356 1.367 . S
C357 C359 1.433 . S
C358 C354 1.350 . S
C358 C355 1.463 1_545 S
C358 N362 1.427 . S
C359 H349 0.929 . S
C359 C357 1.433 . S
C359 N362 1.384 . S
C360 H351 0.929 . S
C360 C352 1.378 . S
C360 C355 1.350 . S
C361 H348 0.929 . S
C361 C353 1.433 . S
C361 N363 1.384 . S
N362 C358 1.427 . S
N362 C359 1.384 . S
N363 C355 1.427 . S
N363 C361 1.384 . S
H364 C370 0.930 . S
H365 C374 0.930 . S
H366 C379 0.929 . S
H367 C377 0.929 . S
H368 C372 0.929 . S
H369 C378 0.929 . S
C370 H364 0.930 . S
C370 C371 1.367 1_556 S
C370 C378 1.378 . S
C371 C370 1.367 1_554 S
C371 C379 1.433 . S
C372 H368 0.929 . S
C372 C374 1.378 . S
C372 C376 1.350 . S
C373 C376 1.463 1_455 S
C373 C378 1.350 1_554 S
C373 N381 1.427 . S
C374 H365 0.930 . S
C374 C372 1.378 . S
C374 C375 1.367 . S
C375 C374 1.367 . S
C375 C377 1.433 1_554 S
C376 C372 1.350 . S
C376 C373 1.463 1_655 S
C376 N380 1.427 1_554 S
C377 H367 0.929 . S
C377 C375 1.433 1_556 S
C377 N380 1.384 . S
C378 H369 0.929 . S
C378 C370 1.378 . S
C378 C373 1.350 1_556 S
C379 H366 0.929 . S
C379 C371 1.433 . S
C379 N381 1.384 . S
N380 C376 1.427 1_556 S
N380 C377 1.384 . S
N381 C373 1.427 . S
N381 C379 1.384 . S
H382 C388 0.930 . S
H383 C392 0.930 . S
H384 C397 0.929 . S
H385 C395 0.929 . S
H386 C390 0.929 1_455 S
H387 C396 0.929 1_655 S
C388 H382 0.930 . S
C388 C389 1.367 . S
C388 C396 1.378 . S
C389 C388 1.367 . S
C389 C397 1.433 . S
C390 H386 0.929 1_655 S
C390 C392 1.378 . S
C390 C394 1.350 . S
C391 C394 1.463 1_455 S
C391 C396 1.350 . S
C391 N399 1.427 . S
C392 H383 0.930 . S
C392 C390 1.378 . S
C392 C393 1.367 . S
C393 C392 1.367 . S
C393 C395 1.433 . S
C394 C390 1.350 . S
C394 C391 1.463 1_655 S
C394 N398 1.427 . S
C395 H385 0.929 . S
C395 C393 1.433 . S
C395 N398 1.384 . S
C396 H387 0.929 1_455 S
C396 C388 1.378 . S
C396 C391 1.350 . S
C397 H384 0.929 . S
C397 C389 1.433 . S
C397 N399 1.384 . S
N398 C394 1.427 . S
N398 C395 1.384 . S
N399 C391 1.427 . S
N399 C397 1.384 . S
C119 C74 1.478 . S
C123 C4 1.484 . S
C137 C60 1.482 . S
C141 C18 1.487 . S
C155 C102 1.488 . S
C159 C32 1.481 . S
C173 C88 1.477 . S
C177 C46 1.488 . S
C191 C12 1.401 . S
C195 C40 1.403 . S
C209 C26 1.403 . S
C213 C54 1.401 . S
C227 C19 1.251 . S
C231 C47 1.242 . S
C245 C5 1.253 . S
C249 C33 1.241 . S
C263 C68 1.401 . S
C267 C96 1.403 . S
C281 C110 1.402 . S
C285 C82 1.401 . S
C299 C103 1.263 . S
C303 C75 1.236 . S
C317 C61 1.252 . S
C321 C89 1.241 . S
C335 C25 1.503 . S
C339 C11 1.497 . S
C353 C39 1.507 . S
C357 C53 1.507 . S
C371 C67 1.506 . S
C375 C81 1.498 . S
C389 C95 1.502 . S
C393 C109 1.508 . S
