# Generated by pormake.
# Topology etd, (3)-cn, num edge types: 1
# Building blocks:
#     Node 0, Type 0, BuildingBlock: OLANEW_clean_sbu_2, # of connection points: 3
#     Node 1, Type 0, BuildingBlock: OLANEW_clean_sbu_2, # of connection points: 3
#     Node 2, Type 0, BuildingBlock: OLANEW_clean_sbu_2, # of connection points: 3
#     Node 3, Type 0, BuildingBlock: OLANEW_clean_sbu_2, # of connection points: 3
#     Node 4, Type 0, BuildingBlock: OLANEW_clean_sbu_2, # of connection points: 3
#     Node 5, Type 0, BuildingBlock: OLANEW_clean_sbu_2, # of connection points: 3
#     Node 6, Type 0, BuildingBlock: OLANEW_clean_sbu_2, # of connection points: 3
#     Node 7, Type 0, BuildingBlock: OLANEW_clean_sbu_2, # of connection points: 3
#     Node 8, Type 0, BuildingBlock: OLANEW_clean_sbu_2, # of connection points: 3
#     Node 9, Type 0, BuildingBlock: OLANEW_clean_sbu_2, # of connection points: 3
#     Node 10, Type 0, BuildingBlock: OLANEW_clean_sbu_2, # of connection points: 3
#     Node 11, Type 0, BuildingBlock: OLANEW_clean_sbu_2, # of connection points: 3
#     Edge 12, Type (0, 0), BuildingBlock: TEMPAE_clean_linker_10, # of connection points: 2
#     Edge 13, Type (0, 0), BuildingBlock: TEMPAE_clean_linker_10, # of connection points: 2
#     Edge 14, Type (0, 0), BuildingBlock: TEMPAE_clean_linker_10, # of connection points: 2
#     Edge 15, Type (0, 0), BuildingBlock: TEMPAE_clean_linker_10, # of connection points: 2
#     Edge 16, Type (0, 0), BuildingBlock: TEMPAE_clean_linker_10, # of connection points: 2
#     Edge 17, Type (0, 0), BuildingBlock: TEMPAE_clean_linker_10, # of connection points: 2
#     Edge 18, Type (0, 0), BuildingBlock: TEMPAE_clean_linker_10, # of connection points: 2
#     Edge 19, Type (0, 0), BuildingBlock: TEMPAE_clean_linker_10, # of connection points: 2
#     Edge 20, Type (0, 0), BuildingBlock: TEMPAE_clean_linker_10, # of connection points: 2
#     Edge 21, Type (0, 0), BuildingBlock: TEMPAE_clean_linker_10, # of connection points: 2
#     Edge 22, Type (0, 0), BuildingBlock: TEMPAE_clean_linker_10, # of connection points: 2
#     Edge 23, Type (0, 0), BuildingBlock: TEMPAE_clean_linker_10, # of connection points: 2
#     Edge 24, Type (0, 0), BuildingBlock: TEMPAE_clean_linker_10, # of connection points: 2
#     Edge 25, Type (0, 0), BuildingBlock: TEMPAE_clean_linker_10, # of connection points: 2
#     Edge 26, Type (0, 0), BuildingBlock: TEMPAE_clean_linker_10, # of connection points: 2
#     Edge 27, Type (0, 0), BuildingBlock: TEMPAE_clean_linker_10, # of connection points: 2
#     Edge 28, Type (0, 0), BuildingBlock: TEMPAE_clean_linker_10, # of connection points: 2
#     Edge 29, Type (0, 0), BuildingBlock: TEMPAE_clean_linker_10, # of connection points: 2
# Relax obj value: 0.002
# Max RMSD: 0.050
# Mean RMSD: 0.050
data_MOF--net-etd--node1-OLANEW_clean_sbu_2--edge1-TEMPAE_clean_linker_10
_symmetry_space_group_name_H-M    P1
_symmetry_Int_Tables_number       1
_symmetry_cell_setting            triclinic
loop_
_symmetry_equiv_pos_as_xyz
'x, y, z'
_cell_length_a     62.109266
_cell_length_b     62.088391
_cell_length_c     45.610531
_cell_angle_alpha  90.049663
_cell_angle_beta   90.051982
_cell_angle_gamma 119.96449
loop_
_atom_site_label
_atom_site_type_symbol
_atom_site_fract_x
_atom_site_fract_y
_atom_site_fract_z
_atom_type_partial_charge
O0 O 0.58892 0.09171 0.10214 0.0
Cd1 Cd 0.59317 0.08655 0.04959 0.0
O2 O 0.56976 0.11286 0.09441 0.0
Cd3 Cd 0.55652 0.13795 0.10865 0.0
O4 O 0.54969 0.16911 0.11384 0.0
C5 C 0.56395 0.18888 0.09982 0.0
O6 O 0.58176 0.18943 0.08372 0.0
C7 C 0.57905 0.10388 0.1121 0.0
C8 C 0.55952 0.04044 0.02538 0.0
O9 O 0.57882 0.04358 0.03929 0.0
O10 O 0.55577 0.05892 0.02357 0.0
O11 O 0.50652 0.5851 0.26489 0.0
Cd12 Cd 0.52 0.58791 0.21389 0.0
O13 O 0.46687 0.56643 0.2534 0.0
Cd14 Cd 0.42787 0.55396 0.26329 0.0
O15 O 0.38958 0.54665 0.26592 0.0
C16 C 0.38223 0.55639 0.2467 0.0
O17 O 0.39785 0.5703 0.22621 0.0
C18 C 0.48396 0.5759 0.27263 0.0
C19 C 0.52582 0.54886 0.1929 0.0
O20 O 0.54282 0.56636 0.20835 0.0
O21 O 0.50577 0.54944 0.18809 0.0
O22 O 0.86229 0.49043 0.52203 0.0
Cd23 Cd 0.85904 0.49677 0.46969 0.0
O24 O 0.83899 0.45088 0.51224 0.0
Cd25 Cd 0.81618 0.4107 0.51927 0.0
O26 O 0.79099 0.37141 0.50944 0.0
C27 C 0.76784 0.36147 0.51451 0.0
O28 O 0.75945 0.37482 0.52722 0.0
C29 C 0.8512 0.46803 0.53084 0.0
C30 C 0.89643 0.49488 0.43792 0.0
O31 O 0.89864 0.51578 0.4455 0.0
O32 O 0.87655 0.47496 0.44524 0.0
O33 O 0.41229 0.90788 0.59038 0.0
Cd34 Cd 0.40506 0.91551 0.53973 0.0
O35 O 0.43269 0.88899 0.57724 0.0
Cd36 Cd 0.44874 0.86534 0.58658 0.0
O37 O 0.45694 0.83494 0.58653 0.0
C38 C 0.44732 0.81746 0.60523 0.0
O39 O 0.43299 0.81832 0.62584 0.0
C40 C 0.42379 0.89648 0.59728 0.0
C41 C 0.44044 0.96191 0.5182 0.0
O42 O 0.42218 0.95941 0.5338 0.0
O43 O 0.44217 0.94252 0.51311 0.0
O44 O 0.50352 0.42177 0.76637 0.0
Cd45 Cd 0.49294 0.41923 0.71426 0.0
O46 O 0.54305 0.43628 0.75687 0.0
Cd47 Cd 0.58049 0.44427 0.76892 0.0
O48 O 0.61602 0.44508 0.77298 0.0
C49 C 0.62894 0.44856 0.75001 0.0
O50 O 0.6208 0.45222 0.72496 0.0
C51 C 0.52544 0.42885 0.77532 0.0
C52 C 0.48403 0.45607 0.69246 0.0
O53 O 0.46715 0.43733 0.70643 0.0
O54 O 0.50535 0.45776 0.6895 0.0
O55 O 0.14257 0.56315 0.01701 0.0
Cd56 Cd 0.15173 0.57667 0.96588 0.0
O57 O 0.14734 0.59841 0.03412 0.0
Cd58 Cd 0.16269 0.61843 0.99324 0.0
O59 O 0.1919 0.64777 0.96688 0.0
C60 C 0.21409 0.65372 0.97343 0.0
O61 O 0.21779 0.64141 0.99438 0.0
C62 C 0.1417 0.57595 0.03828 0.0
C63 C 0.10915 0.55157 0.93106 0.0
O64 O 0.12238 0.54169 0.93754 0.0
O65 O 0.11611 0.57345 0.94083 0.0
O66 O 0.8965 0.43064 0.74376 0.0
Cd67 Cd 0.90498 0.41757 0.79094 0.0
O68 O 0.86496 0.43299 0.76164 0.0
Cd69 Cd 0.83439 0.44108 0.7602 0.0
O70 O 0.80276 0.4474 0.75915 0.0
C71 C 0.78128 0.42949 0.75282 0.0
O72 O 0.77874 0.40764 0.74682 0.0
C73 C 0.87848 0.43457 0.73986 0.0
C74 C 0.95001 0.45141 0.81731 0.0
O75 O 0.94917 0.43681 0.7969 0.0
O76 O 0.92965 0.45039 0.82486 0.0
O77 O 0.42976 0.84935 0.82432 0.0
Cd78 Cd 0.42745 0.8397 0.87693 0.0
O79 O 0.4134 0.87357 0.82784 0.0
Cd80 Cd 0.39677 0.85661 0.8696 0.0
O81 O 0.36861 0.82543 0.8948 0.0
C82 C 0.35958 0.80424 0.8826 0.0
O83 O 0.36828 0.80268 0.85691 0.0
C84 C 0.42429 0.86464 0.81274 0.0
C85 C 0.45552 0.882 0.91168 0.0
O86 O 0.46593 0.87197 0.89727 0.0
O87 O 0.43187 0.87205 0.90985 0.0
O88 O 0.56713 0.40393 0.99857 0.0
Cd89 Cd 0.57274 0.39793 0.05059 0.0
O90 O 0.52707 0.39017 0.00309 0.0
Cd91 Cd 0.52594 0.36912 0.04202 0.0
O92 O 0.52566 0.33629 0.05993 0.0
C93 C 0.5393 0.33668 0.08096 0.0
O94 O 0.55385 0.35782 0.09437 0.0
C95 C 0.54686 0.40089 0.98794 0.0
C96 C 0.56318 0.42918 0.08582 0.0
O97 O 0.58421 0.43723 0.07311 0.0
O98 O 0.54671 0.40629 0.08224 0.0
O99 O 0.079 0.49611 0.2525 0.0
Cd100 Cd 0.06585 0.47451 0.29948 0.0
O101 O 0.11519 0.49837 0.25671 0.0
Cd102 Cd 0.15216 0.5051 0.24411 0.0
O103 O 0.18996 0.51144 0.23919 0.0
C104 C 0.2078 0.52971 0.25236 0.0
O105 O 0.20304 0.54458 0.26809 0.0
C106 C 0.10031 0.50264 0.24191 0.0
C107 C 0.03023 0.482 0.3276 0.0
O108 O 0.05329 0.49505 0.3344 0.0
O109 O 0.02406 0.46556 0.30742 0.0
O110 O 0.58911 0.15893 0.33838 0.0
Cd111 Cd 0.58977 0.16853 0.39072 0.0
O112 O 0.60569 0.13505 0.34392 0.0
Cd113 Cd 0.62016 0.15171 0.38675 0.0
O114 O 0.64216 0.18146 0.41799 0.0
C115 C 0.65049 0.2034 0.4083 0.0
O116 O 0.64498 0.20627 0.38129 0.0
C117 C 0.5951 0.1437 0.32777 0.0
C118 C 0.55769 0.12572 0.42236 0.0
O119 O 0.54942 0.13791 0.40822 0.0
O120 O 0.58113 0.13391 0.42195 0.0
O121 O 0.43412 0.59358 0.49495 0.0
Cd122 Cd 0.42654 0.59779 0.5469 0.0
O123 O 0.47464 0.61082 0.50013 0.0
Cd124 Cd 0.47336 0.62924 0.54038 0.0
O125 O 0.47058 0.65831 0.56434 0.0
C126 C 0.45371 0.66282 0.55591 0.0
O127 O 0.43865 0.64918 0.53477 0.0
C128 C 0.4552 0.59893 0.48454 0.0
C129 C 0.43834 0.56828 0.5823 0.0
O130 O 0.41761 0.55891 0.5685 0.0
O131 O 0.45344 0.59165 0.57969 0.0
C132 C 0.55928 0.10657 0.15857 0.0
C133 C 0.58013 0.10901 0.14377 0.0
C134 C 0.56019 0.11113 0.18886 0.0
C135 C 0.58274 0.11913 0.20434 0.0
C136 C 0.60392 0.12193 0.18927 0.0
C137 C 0.6022 0.11637 0.15926 0.0
C138 C 0.53702 0.10716 0.20433 0.0
C139 C 0.62851 0.13117 0.20475 0.0
C140 C 0.59302 0.1546 0.27569 0.0
C141 C 0.59069 0.13693 0.29643 0.0
C142 C 0.59039 0.14903 0.24562 0.0
C143 C 0.5844 0.12492 0.23621 0.0
C144 C 0.58112 0.10672 0.2572 0.0
C145 C 0.58478 0.1131 0.28707 0.0
C146 C 0.59485 0.16919 0.22389 0.0
C147 C 0.57392 0.08058 0.2481 0.0
H148 H 0.54214 0.10057 0.14656 0.0
H149 H 0.61834 0.11838 0.14767 0.0
H150 H 0.53254 0.09388 0.2227 0.0
H151 H 0.54015 0.12492 0.21392 0.0
H152 H 0.52073 0.09987 0.18938 0.0
H153 H 0.6434 0.13317 0.18961 0.0
H154 H 0.63439 0.14947 0.2151 0.0
H155 H 0.62657 0.11814 0.22251 0.0
H156 H 0.5978 0.1731 0.28292 0.0
H157 H 0.58276 0.09937 0.30316 0.0
H158 H 0.57824 0.16318 0.20982 0.0
H159 H 0.61053 0.17267 0.20926 0.0
H160 H 0.59924 0.18692 0.23482 0.0
H161 H 0.55717 0.07269 0.23388 0.0
H162 H 0.57003 0.06811 0.26723 0.0
H163 H 0.58911 0.08081 0.2351 0.0
C164 C 0.47506 0.58616 0.44588 0.0
C165 C 0.45727 0.59265 0.45384 0.0
C166 C 0.47794 0.58132 0.41648 0.0
C167 C 0.46335 0.58403 0.39447 0.0
C168 C 0.44521 0.59041 0.40249 0.0
C169 C 0.44209 0.5942 0.43218 0.0
C170 C 0.49688 0.57372 0.40893 0.0
C171 C 0.42988 0.59432 0.37965 0.0
C172 C 0.49213 0.60028 0.31859 0.0
C173 C 0.47809 0.57785 0.30348 0.0
C174 C 0.4871 0.60267 0.34801 0.0
C175 C 0.46819 0.5818 0.36297 0.0
C176 C 0.45414 0.55896 0.34784 0.0
C177 C 0.45898 0.55739 0.31804 0.0
C178 C 0.50194 0.62757 0.36301 0.0
C179 C 0.4344 0.5361 0.36328 0.0
H180 H 0.48666 0.58477 0.46268 0.0
H181 H 0.42846 0.59944 0.43832 0.0
H182 H 0.4883 0.55684 0.39491 0.0
H183 H 0.51231 0.58872 0.39627 0.0
H184 H 0.50479 0.56989 0.42879 0.0
H185 H 0.41607 0.59855 0.38957 0.0
H186 H 0.44231 0.60997 0.36512 0.0
H187 H 0.41988 0.57757 0.36564 0.0
H188 H 0.50682 0.61613 0.30719 0.0
H189 H 0.44834 0.53997 0.30634 0.0
H190 H 0.51283 0.62607 0.38138 0.0
H191 H 0.48923 0.63345 0.37248 0.0
H192 H 0.51498 0.64227 0.34779 0.0
H193 H 0.44275 0.5316 0.38215 0.0
H194 H 0.42543 0.51968 0.34852 0.0
H195 H 0.41985 0.53965 0.37218 0.0
C196 C 0.89305 0.45301 0.69028 0.0
C197 C 0.87343 0.44052 0.71012 0.0
C198 C 0.88863 0.45758 0.6614 0.0
C199 C 0.86396 0.44939 0.65211 0.0
C200 C 0.84408 0.43691 0.6721 0.0
C201 C 0.84904 0.43241 0.7008 0.0
C202 C 0.91034 0.47089 0.64071 0.0
C203 C 0.81752 0.42782 0.663 0.0
C204 C 0.85655 0.47998 0.58372 0.0
C205 C 0.85281 0.46242 0.56202 0.0
C206 C 0.85953 0.47569 0.61327 0.0
C207 C 0.85904 0.45342 0.62124 0.0
C208 C 0.85497 0.43549 0.59946 0.0
C209 C 0.85197 0.44025 0.57009 0.0
C210 C 0.86368 0.49519 0.63587 0.0
C211 C 0.85455 0.41161 0.60704 0.0
H212 H 0.91192 0.45914 0.69733 0.0
H213 H 0.8337 0.42172 0.71554 0.0
H214 H 0.90808 0.4587 0.62177 0.0
H215 H 0.9109 0.48781 0.63191 0.0
H216 H 0.92841 0.47641 0.65151 0.0
H217 H 0.80439 0.41989 0.68168 0.0
H218 H 0.81578 0.44329 0.65339 0.0
H219 H 0.81193 0.41332 0.64583 0.0
H220 H 0.85725 0.49718 0.57756 0.0
H221 H 0.84994 0.427 0.55335 0.0
H222 H 0.88233 0.50259 0.64594 0.0
H223 H 0.8498 0.4868 0.65373 0.0
H224 H 0.86237 0.51094 0.62631 0.0
H225 H 0.87302 0.41587 0.61548 0.0
H226 H 0.84981 0.39901 0.58784 0.0
H227 H 0.84082 0.40166 0.62466 0.0
C228 C 0.40487 0.88287 0.64657 0.0
C229 C 0.4256 0.89106 0.62831 0.0
C230 C 0.40626 0.87819 0.67636 0.0
C231 C 0.4292 0.8827 0.68835 0.0
C232 C 0.45026 0.8911 0.66997 0.0
C233 C 0.44809 0.89484 0.63997 0.0
C234 C 0.38319 0.86849 0.69502 0.0
C235 C 0.47518 0.89682 0.68212 0.0
C236 C 0.43329 0.89345 0.77052 0.0
C237 C 0.42854 0.87033 0.78116 0.0
C238 C 0.43506 0.89823 0.74029 0.0
C239 C 0.43105 0.8791 0.72029 0.0
C240 C 0.42684 0.8559 0.73097 0.0
C241 C 0.42603 0.85194 0.76134 0.0
C242 C 0.44041 0.92348 0.72976 0.0
C243 C 0.42177 0.83481 0.71038 0.0
H244 H 0.38746 0.87985 0.63741 0.0
H245 H 0.46419 0.90151 0.62582 0.0
H246 H 0.37965 0.85128 0.70652 0.0
H247 H 0.38589 0.88239 0.71204 0.0
H248 H 0.36647 0.86436 0.6819 0.0
H249 H 0.48964 0.90293 0.66483 0.0
H250 H 0.48137 0.91172 0.69889 0.0
H251 H 0.47365 0.88021 0.69316 0.0
H252 H 0.43542 0.90773 0.78587 0.0
H253 H 0.42213 0.83397 0.76956 0.0
H254 H 0.4236 0.92188 0.71914 0.0
H255 H 0.45542 0.93077 0.71311 0.0
H256 H 0.44602 0.93714 0.74798 0.0
H257 H 0.40404 0.82884 0.69856 0.0
H258 H 0.4204 0.8185 0.72211 0.0
H259 H 0.43661 0.84099 0.69363 0.0
C260 C 0.5301 0.4171 0.94933 0.0
C261 C 0.54595 0.40813 0.95735 0.0
C262 C 0.52819 0.42276 0.91997 0.0
C263 C 0.54167 0.41833 0.89804 0.0
C264 C 0.55788 0.40946 0.90614 0.0
C265 C 0.56016 0.40491 0.93579 0.0
C266 C 0.51141 0.43304 0.91235 0.0
C267 C 0.57192 0.40368 0.88337 0.0
C268 C 0.51369 0.40459 0.82159 0.0
C269 C 0.52981 0.42646 0.8066 0.0
C270 C 0.51761 0.40159 0.85123 0.0
C271 C 0.53758 0.42136 0.86651 0.0
C272 C 0.55364 0.44374 0.85155 0.0
C273 C 0.54982 0.44584 0.82154 0.0
C274 C 0.50058 0.37713 0.86607 0.0
C275 C 0.57459 0.46552 0.86731 0.0
H276 H 0.51926 0.41977 0.96607 0.0
H277 H 0.57226 0.39774 0.94198 0.0
H278 H 0.52148 0.44984 0.89844 0.0
H279 H 0.49523 0.4191 0.89953 0.0
H280 H 0.50441 0.43798 0.93218 0.0
H281 H 0.58425 0.3975 0.89336 0.0
H282 H 0.55855 0.38878 0.86856 0.0
H283 H 0.58339 0.42026 0.86964 0.0
H284 H 0.49831 0.38956 0.80989 0.0
H285 H 0.56212 0.46284 0.8099 0.0
H286 H 0.49058 0.38004 0.88438 0.0
H287 H 0.51165 0.36929 0.87558 0.0
H288 H 0.48664 0.36326 0.85072 0.0
H289 H 0.56715 0.47092 0.88632 0.0
H290 H 0.58476 0.48193 0.8528 0.0
H291 H 0.58797 0.46023 0.87605 0.0
C292 C 0.13299 0.54192 0.07401 0.0
C293 C 0.13505 0.56506 0.06808 0.0
C294 C 0.12768 0.53186 0.10238 0.0
C295 C 0.12412 0.54512 0.12534 0.0
C296 C 0.12592 0.56835 0.11947 0.0
C297 C 0.13146 0.57808 0.09095 0.0
C298 C 0.12604 0.50709 0.10785 0.0
C299 C 0.12197 0.58291 0.14331 0.0
C300 C 0.08773 0.50861 0.19202 0.0
C301 C 0.10675 0.51384 0.21229 0.0
C302 C 0.09313 0.51875 0.16372 0.0
C303 C 0.11817 0.53451 0.15542 0.0
C304 C 0.13746 0.5401 0.17586 0.0
C305 C 0.13149 0.52989 0.20416 0.0
C306 C 0.07202 0.51252 0.14266 0.0
C307 C 0.1644 0.55691 0.16783 0.0
H308 H 0.13584 0.53178 0.05655 0.0
H309 H 0.13296 0.59595 0.08657 0.0
H310 H 0.13978 0.50918 0.1248 0.0
H311 H 0.10735 0.49358 0.11637 0.0
H312 H 0.12953 0.49925 0.0877 0.0
H313 H 0.12391 0.60064 0.13511 0.0
H314 H 0.10316 0.5716 0.1529 0.0
H315 H 0.13559 0.58719 0.16126 0.0
H316 H 0.06853 0.49632 0.1982 0.0
H317 H 0.14619 0.53493 0.22004 0.0
H318 H 0.0739 0.50305 0.12301 0.0
H319 H 0.07272 0.52983 0.13505 0.0
H320 H 0.05354 0.5003 0.1527 0.0
H321 H 0.16915 0.54947 0.14829 0.0
H322 H 0.17721 0.55889 0.18599 0.0
H323 H 0.16761 0.57563 0.162 0.0
C324 C 0.57463 0.23129 0.08269 0.0
C325 C 0.56012 0.21062 0.1005 0.0
C326 C 0.57067 0.25163 0.08193 0.0
C327 C 0.55181 0.25142 0.09954 0.0
C328 C 0.53746 0.23089 0.11812 0.0
C329 C 0.54173 0.21068 0.11832 0.0
C330 C 0.58632 0.27312 0.06172 0.0
C331 C 0.51731 0.2301 0.13737 0.0
C332 C 0.55661 0.31445 0.11003 0.0
C333 C 0.54056 0.31401 0.08807 0.0
C334 C 0.5597 0.29379 0.11491 0.0
C335 C 0.54651 0.27226 0.09731 0.0
C336 C 0.52955 0.27136 0.07593 0.0
C337 C 0.52673 0.29219 0.07162 0.0
C338 C 0.57778 0.29538 0.13812 0.0
C339 C 0.51514 0.24876 0.05668 0.0
H340 H 0.58891 0.23147 0.06888 0.0
H341 H 0.5305 0.19483 0.13225 0.0
H342 H 0.57427 0.27497 0.04513 0.0
H343 H 0.59565 0.29076 0.07434 0.0
H344 H 0.60073 0.27077 0.05012 0.0
H345 H 0.50879 0.21348 0.15181 0.0
H346 H 0.52498 0.24702 0.15126 0.0
H347 H 0.50251 0.22988 0.12353 0.0
H348 H 0.56727 0.33116 0.12297 0.0
H349 H 0.51419 0.29158 0.05469 0.0
H350 H 0.5939 0.29545 0.12753 0.0
H351 H 0.56888 0.27887 0.15264 0.0
H352 H 0.58476 0.3124 0.15177 0.0
H353 H 0.52819 0.24621 0.04247 0.0
H354 H 0.50147 0.25036 0.04246 0.0
H355 H 0.50509 0.2318 0.07031 0.0
C356 C 0.23844 0.51736 0.235 0.0
C357 C 0.23343 0.53375 0.25083 0.0
C358 C 0.26253 0.52072 0.23398 0.0
C359 C 0.2821 0.54096 0.24912 0.0
C360 C 0.27721 0.55766 0.26497 0.0
C361 C 0.25295 0.55386 0.26564 0.0
C362 C 0.26703 0.50253 0.21681 0.0
C363 C 0.2976 0.57951 0.28133 0.0
C364 C 0.33979 0.53756 0.26924 0.0
C365 C 0.35655 0.55225 0.24732 0.0
C366 C 0.31548 0.53366 0.27003 0.0
C367 C 0.30773 0.5447 0.24839 0.0
C368 C 0.32451 0.55949 0.22619 0.0
C369 C 0.3487 0.56308 0.22592 0.0
C370 C 0.29812 0.51778 0.29407 0.0
C371 C 0.31695 0.57159 0.20275 0.0
H372 H 0.22349 0.50178 0.22349 0.0
H373 H 0.24929 0.56664 0.27791 0.0
H374 H 0.28124 0.51251 0.19965 0.0
H375 H 0.27441 0.49352 0.23155 0.0
H376 H 0.24985 0.48783 0.20613 0.0
H377 H 0.29076 0.59086 0.29247 0.0
H378 H 0.30591 0.57285 0.29802 0.0
H379 H 0.31264 0.59163 0.26595 0.0
H380 H 0.34567 0.52912 0.28586 0.0
H381 H 0.36148 0.57445 0.20888 0.0
H382 H 0.28124 0.50192 0.28438 0.0
H383 H 0.29196 0.52882 0.3071 0.0
H384 H 0.30694 0.51036 0.30911 0.0
H385 H 0.30061 0.55722 0.19053 0.0
H386 H 0.33216 0.58239 0.18689 0.0
H387 H 0.31136 0.58427 0.21299 0.0
C388 C 0.75913 0.32283 0.48736 0.0
C389 C 0.75033 0.33613 0.50345 0.0
C390 C 0.74263 0.29999 0.47413 0.0
C391 C 0.71669 0.29018 0.47709 0.0
C392 C 0.7077 0.30294 0.49439 0.0
C393 C 0.72462 0.32577 0.50734 0.0
C394 C 0.75296 0.28693 0.4559 0.0
C395 C 0.68017 0.29301 0.49818 0.0
C396 C 0.6761 0.24939 0.41496 0.0
C397 C 0.66678 0.22543 0.42652 0.0
C398 C 0.69215 0.27055 0.43133 0.0
C399 C 0.69907 0.26774 0.46004 0.0
C400 C 0.6895 0.24364 0.47204 0.0
C401 C 0.67346 0.22274 0.45512 0.0
C402 C 0.70193 0.29592 0.41773 0.0
C403 C 0.69642 0.23995 0.50261 0.0
H404 H 0.77895 0.3306 0.48434 0.0
H405 H 0.71763 0.33582 0.51987 0.0
H406 H 0.7446 0.26721 0.46271 0.0
H407 H 0.74806 0.28702 0.43252 0.0
H408 H 0.7735 0.29591 0.45774 0.0
H409 H 0.67622 0.30391 0.51444 0.0
H410 H 0.67187 0.29358 0.47686 0.0
H411 H 0.6708 0.27331 0.50532 0.0
H412 H 0.67103 0.25169 0.39292 0.0
H413 H 0.66632 0.2043 0.46423 0.0
H414 H 0.72251 0.30557 0.41648 0.0
H415 H 0.69699 0.30748 0.43163 0.0
H416 H 0.69446 0.29492 0.39532 0.0
H417 H 0.71679 0.24753 0.50403 0.0
H418 H 0.68686 0.22004 0.50903 0.0
H419 H 0.69163 0.25031 0.51868 0.0
C420 C 0.43371 0.68913 0.55766 0.0
C421 C 0.4523 0.68437 0.56765 0.0
C422 C 0.43322 0.71053 0.56644 0.0
C423 C 0.45177 0.72766 0.58573 0.0
C424 C 0.47007 0.72256 0.59675 0.0
C425 C 0.47013 0.70095 0.58758 0.0
C426 C 0.41331 0.71523 0.55426 0.0
C427 C 0.49007 0.74031 0.61747 0.0
C428 C 0.4646 0.79396 0.57906 0.0
C429 C 0.4504 0.79536 0.60212 0.0
C430 C 0.4659 0.77233 0.57416 0.0
C431 C 0.45272 0.75154 0.59278 0.0
C432 C 0.43915 0.75314 0.61679 0.0
C433 C 0.43814 0.77503 0.62117 0.0
C434 C 0.48065 0.7714 0.54836 0.0
C435 C 0.42495 0.73142 0.63721 0.0
H436 H 0.41976 0.67637 0.5424 0.0
H437 H 0.48452 0.6974 0.59549 0.0
H438 H 0.40342 0.71856 0.57238 0.0
H439 H 0.42196 0.73219 0.54045 0.0
H440 H 0.39946 0.69945 0.54077 0.0
H441 H 0.50173 0.73272 0.62587 0.0
H442 H 0.50228 0.75808 0.60601 0.0
H443 H 0.48165 0.74465 0.63637 0.0
H444 H 0.47426 0.80959 0.56431 0.0
H445 H 0.42721 0.77595 0.63913 0.0
H446 H 0.46791 0.75741 0.53226 0.0
H447 H 0.49399 0.76555 0.55563 0.0
H448 H 0.49111 0.78964 0.5371 0.0
H449 H 0.40944 0.71592 0.62511 0.0
H450 H 0.41714 0.73635 0.65627 0.0
H451 H 0.43719 0.72448 0.64542 0.0
C452 C 0.6662 0.45108 0.72552 0.0
C453 C 0.65221 0.44737 0.75108 0.0
C454 C 0.68768 0.44899 0.72582 0.0
C455 C 0.69539 0.44301 0.75231 0.0
C456 C 0.68159 0.43963 0.77829 0.0
C457 C 0.66018 0.44187 0.77738 0.0
C458 C 0.70193 0.4528 0.69766 0.0
C459 C 0.68923 0.43325 0.80697 0.0
C460 C 0.73558 0.41292 0.74693 0.0
C461 C 0.75938 0.43306 0.75262 0.0
C462 C 0.71461 0.4159 0.74689 0.0
C463 C 0.71748 0.43961 0.75261 0.0
C464 C 0.74144 0.46004 0.75833 0.0
C465 C 0.7621 0.45652 0.7583 0.0
C466 C 0.68936 0.39365 0.7407 0.0
C467 C 0.74525 0.48562 0.76443 0.0
H468 H 0.66024 0.45539 0.7051 0.0
H469 H 0.64952 0.43899 0.79725 0.0
H470 H 0.72161 0.46749 0.70068 0.0
H471 H 0.70186 0.43544 0.69169 0.0
H472 H 0.69395 0.45815 0.67913 0.0
H473 H 0.67695 0.43196 0.82539 0.0
H474 H 0.68873 0.4152 0.8049 0.0
H475 H 0.70862 0.4475 0.81247 0.0
H476 H 0.73327 0.39472 0.74254 0.0
H477 H 0.7804 0.4722 0.76271 0.0
H478 H 0.68105 0.39722 0.72109 0.0
H479 H 0.6767 0.39044 0.7594 0.0
H480 H 0.69026 0.37644 0.73689 0.0
H481 H 0.73859 0.49196 0.74554 0.0
H482 H 0.76506 0.49954 0.76859 0.0
H483 H 0.73416 0.485 0.7838 0.0
C484 C 0.23175 0.68973 0.93858 0.0
C485 C 0.23549 0.67503 0.95901 0.0
C486 C 0.25197 0.71063 0.92586 0.0
C487 C 0.27649 0.71692 0.9337 0.0
C488 C 0.2804 0.70196 0.95396 0.0
C489 C 0.25986 0.68122 0.96639 0.0
C490 C 0.24708 0.72614 0.9043 0.0
C491 C 0.30628 0.708 0.96274 0.0
C492 C 0.32908 0.75861 0.88241 0.0
C493 C 0.33881 0.78184 0.89623 0.0
C494 C 0.30887 0.73731 0.89442 0.0
C495 C 0.29809 0.73928 0.92088 0.0
C496 C 0.30794 0.76262 0.93509 0.0
C497 C 0.32821 0.78362 0.92261 0.0
C498 C 0.29894 0.71273 0.87869 0.0
C499 C 0.29693 0.76542 0.96336 0.0
H500 H 0.21299 0.6851 0.93277 0.0
H501 H 0.26295 0.66995 0.9821 0.0
H502 H 0.25511 0.74543 0.91269 0.0
H503 H 0.25631 0.72718 0.88311 0.0
H504 H 0.22693 0.71854 0.90021 0.0
H505 H 0.30615 0.69422 0.97837 0.0
H506 H 0.31703 0.7086 0.94304 0.0
H507 H 0.31623 0.72667 0.97307 0.0
H508 H 0.33716 0.75703 0.86204 0.0
H509 H 0.33559 0.80149 0.93342 0.0
H510 H 0.27918 0.70543 0.87264 0.0
H511 H 0.29963 0.69888 0.89343 0.0
H512 H 0.30959 0.71429 0.85848 0.0
H513 H 0.2771 0.75972 0.95997 0.0
H514 H 0.30685 0.78482 0.97174 0.0
H515 H 0.29762 0.75303 0.98038 0.0
C516 C 0.52793 0.01578 0.98703 0.0
C517 C 0.54273 0.01655 0.01068 0.0
C518 C 0.51332 0.99365 0.97139 0.0
C519 C 0.51305 0.97162 0.98008 0.0
C520 C 0.52734 0.97212 0.00456 0.0
C521 C 0.54226 0.99466 0.01934 0.0
C522 C 0.49874 0.99401 0.94506 0.0
C523 C 0.52707 0.9489 0.01495 0.0
C524 C 0.45919 0.91052 0.95256 0.0
C525 C 0.47034 0.90457 0.92962 0.0
C526 C 0.473 0.93201 0.9696 0.0
C527 C 0.49837 0.94825 0.96302 0.0
C528 C 0.50968 0.94237 0.93977 0.0
C529 C 0.4956 0.92043 0.92359 0.0
C530 C 0.46044 0.93732 0.99465 0.0
C531 C 0.53654 0.95948 0.93165 0.0
H532 H 0.52837 0.0327 0.98011 0.0
H533 H 0.55357 0.99514 0.03772 0.0
H534 H 0.5051 0.98851 0.92515 0.0
H535 H 0.47873 0.98031 0.94792 0.0
H536 H 0.50081 0.01262 0.9413 0.0
H537 H 0.53798 0.95208 0.03541 0.0
H538 H 0.50767 0.93389 0.01892 0.0
H539 H 0.53489 0.94216 0.99774 0.0
H540 H 0.4397 0.89821 0.95742 0.0
H541 H 0.50424 0.91598 0.90575 0.0
H542 H 0.46058 0.955 0.99063 0.0
H543 H 0.47081 0.93962 0.01533 0.0
H544 H 0.44089 0.92227 0.9977 0.0
H545 H 0.53947 0.97814 0.92601 0.0
H546 H 0.54245 0.95237 0.91275 0.0
H547 H 0.54874 0.96187 0.95061 0.0
C548 C 0.53875 0.43631 0.12439 0.0
C549 C 0.55784 0.44597 0.10349 0.0
C550 C 0.53316 0.45205 0.14079 0.0
C551 C 0.54655 0.478 0.1356 0.0
C552 C 0.56586 0.48784 0.11453 0.0
C553 C 0.57147 0.47173 0.09899 0.0
C554 C 0.51286 0.44093 0.16357 0.0
C555 C 0.58024 0.51533 0.10791 0.0
C556 C 0.51648 0.51658 0.15458 0.0
C557 C 0.52982 0.52936 0.17967 0.0
C558 C 0.52157 0.49962 0.14019 0.0
C559 C 0.54002 0.49487 0.1516 0.0
C560 C 0.55287 0.50703 0.17758 0.0
C561 C 0.54784 0.52438 0.1911 0.0
C562 C 0.5078 0.48743 0.11223 0.0
C563 C 0.57222 0.502 0.19082 0.0
H564 H 0.52828 0.41641 0.12809 0.0
H565 H 0.58613 0.47927 0.08272 0.0
H566 H 0.52015 0.45 0.18512 0.0
H567 H 0.49754 0.44435 0.15746 0.0
H568 H 0.50512 0.42058 0.16605 0.0
H569 H 0.59462 0.51999 0.09079 0.0
H570 H 0.56732 0.52166 0.10037 0.0
H571 H 0.58948 0.52595 0.12808 0.0
H572 H 0.50265 0.5205 0.14554 0.0
H573 H 0.55809 0.53411 0.2106 0.0
H574 H 0.49835 0.46691 0.11429 0.0
H575 H 0.52119 0.49277 0.09383 0.0
H576 H 0.4937 0.49277 0.10654 0.0
H577 H 0.56439 0.48172 0.194 0.0
H578 H 0.57916 0.51152 0.21225 0.0
H579 H 0.58822 0.50843 0.17566 0.0
C580 C 0.98787 0.47724 0.33008 0.0
C581 C 0.01119 0.4854 0.34299 0.0
C582 C 0.96938 0.47974 0.34477 0.0
C583 C 0.97414 0.49009 0.37333 0.0
C584 C 0.9977 0.49846 0.38641 0.0
C585 C 0.01605 0.49628 0.37093 0.0
C586 C 0.9447 0.47113 0.32981 0.0
C587 C 0.00331 0.50914 0.41705 0.0
C588 C 0.93346 0.51418 0.40485 0.0
C589 C 0.91629 0.49374 0.42135 0.0
C590 C 0.95222 0.51316 0.38878 0.0
C591 C 0.95419 0.49142 0.38988 0.0
C592 C 0.93707 0.47085 0.40682 0.0
C593 C 0.91813 0.47215 0.42206 0.0
C594 C 0.96978 0.53525 0.37043 0.0
C595 C 0.93887 0.44753 0.40905 0.0
H596 H 0.98411 0.469 0.30838 0.0
H597 H 0.03401 0.50249 0.38105 0.0
H598 H 0.92969 0.4555 0.34225 0.0
H599 H 0.94031 0.4864 0.32949 0.0
H600 H 0.94448 0.46488 0.30693 0.0
H601 H 0.02262 0.51499 0.42398 0.0
H602 H 0.00055 0.52543 0.4184 0.0
H603 H 0.99024 0.49508 0.43282 0.0
H604 H 0.93199 0.53084 0.4041 0.0
H605 H 0.90499 0.45637 0.43496 0.0
H606 H 0.96891 0.52947 0.34723 0.0
H607 H 0.98917 0.54254 0.37803 0.0
H608 H 0.96539 0.55052 0.3714 0.0
H609 H 0.9367 0.43909 0.38702 0.0
H610 H 0.92453 0.43347 0.42381 0.0
H611 H 0.9575 0.45218 0.41738 0.0
C612 C 0.54977 0.09312 0.45972 0.0
C613 C 0.54065 0.10251 0.43806 0.0
C614 C 0.53392 0.07073 0.47417 0.0
C615 C 0.50848 0.05715 0.46628 0.0
C616 C 0.49917 0.06658 0.44447 0.0
C617 C 0.51532 0.0893 0.43084 0.0
C618 C 0.54442 0.06153 0.49776 0.0
C619 C 0.47225 0.05243 0.43508 0.0
C620 C 0.47299 0.98771 0.48142 0.0
C621 C 0.45856 0.98634 0.50573 0.0
C622 C 0.48933 0.01065 0.46838 0.0
C623 C 0.49168 0.03278 0.48035 0.0
C624 C 0.47761 0.03156 0.50535 0.0
C625 C 0.461 0.00831 0.51754 0.0
C626 C 0.50367 0.01115 0.44142 0.0
C627 C 0.48001 0.05479 0.51911 0.0
H628 H 0.56931 0.10335 0.4655 0.0
H629 H 0.50822 0.0964 0.41398 0.0
H630 H 0.53375 0.05825 0.51837 0.0
H631 H 0.5426 0.04352 0.49106 0.0
H632 H 0.56433 0.07488 0.5023 0.0
H633 H 0.46795 0.06232 0.4178 0.0
H634 H 0.46766 0.03385 0.42658 0.0
H635 H 0.46 0.04935 0.45416 0.0
H636 H 0.47106 0.97077 0.4721 0.0
H637 H 0.44999 0.00735 0.53645 0.0
H638 H 0.52391 0.0229 0.44544 0.0
H639 H 0.4989 0.01954 0.42285 0.0
H640 H 0.49972 0.99228 0.43484 0.0
H641 H 0.49974 0.06792 0.52468 0.0
H642 H 0.46866 0.05074 0.53932 0.0
H643 H 0.47405 0.06433 0.50327 0.0
C644 C 0.49264 0.48856 0.65479 0.0
C645 C 0.47861 0.47445 0.67878 0.0
C646 C 0.48639 0.50448 0.6399 0.0
C647 C 0.46601 0.50679 0.6497 0.0
C648 C 0.45237 0.49329 0.67461 0.0
C649 C 0.45863 0.47702 0.68863 0.0
C650 C 0.50109 0.51815 0.61307 0.0
C651 C 0.43091 0.49573 0.68618 0.0
C652 C 0.46277 0.56301 0.62249 0.0
C653 C 0.44487 0.5525 0.60021 0.0
C654 C 0.46941 0.54825 0.63929 0.0
C655 C 0.45835 0.52253 0.63311 0.0
C656 C 0.4403 0.51186 0.61058 0.0
C657 C 0.43354 0.52692 0.59466 0.0
C658 C 0.48827 0.56018 0.6636 0.0
C659 C 0.42847 0.48461 0.60289 0.0
H660 H 0.50799 0.4865 0.64696 0.0
H661 H 0.44783 0.46625 0.70729 0.0
H662 H 0.48867 0.51225 0.59362 0.0
H663 H 0.50876 0.53845 0.61578 0.0
H664 H 0.51668 0.51468 0.60861 0.0
H665 H 0.42343 0.48544 0.70703 0.0
H666 H 0.43686 0.5156 0.68989 0.0
H667 H 0.4157 0.48846 0.66975 0.0
H668 H 0.47144 0.58276 0.62698 0.0
H669 H 0.41982 0.51876 0.57733 0.0
H670 H 0.50493 0.5586 0.65879 0.0
H671 H 0.48039 0.55032 0.68457 0.0
H672 H 0.4942 0.58015 0.66656 0.0
H673 H 0.44305 0.48016 0.59652 0.0
H674 H 0.41491 0.47926 0.58459 0.0
H675 H 0.41874 0.47306 0.62227 0.0
C676 C 0.97336 0.47642 0.86109 0.0
C677 C 0.97363 0.46815 0.83255 0.0
C678 C 0.99556 0.49073 0.87673 0.0
C679 C 0.01859 0.49748 0.86322 0.0
C680 C 0.019 0.48993 0.83401 0.0
C681 C 0.99648 0.47507 0.81916 0.0
C682 C 0.9943 0.49795 0.90805 0.0
C683 C 0.04319 0.49725 0.81859 0.0
C684 C 0.07658 0.55071 0.89788 0.0
C685 C 0.08629 0.53789 0.91323 0.0
C686 C 0.05483 0.53784 0.88099 0.0
C687 C 0.04217 0.51152 0.88009 0.0
C688 C 0.05185 0.49851 0.89571 0.0
C689 C 0.07396 0.51187 0.91178 0.0
C690 C 0.04544 0.55238 0.86405 0.0
C691 C 0.03863 0.47045 0.89583 0.0
H692 H 0.95573 0.47097 0.87161 0.0
H693 H 0.99677 0.46886 0.79702 0.0
H694 H 0.00248 0.48976 0.92287 0.0
H695 H 0.00539 0.51843 0.91065 0.0
H696 H 0.97494 0.49158 0.91519 0.0
H697 H 0.04038 0.49144 0.7952 0.0
H698 H 0.05564 0.5177 0.81971 0.0
H699 H 0.05287 0.4886 0.82972 0.0
H700 H 0.08616 0.57084 0.89878 0.0
H701 H 0.08131 0.50188 0.92376 0.0
H702 H 0.02672 0.54767 0.87202 0.0
H703 H 0.04355 0.54726 0.8405 0.0
H704 H 0.05797 0.57279 0.86611 0.0
H705 H 0.01945 0.4629 0.90433 0.0
H706 H 0.04837 0.46315 0.90951 0.0
H707 H 0.03708 0.46335 0.87316 0.0
loop_
_geom_bond_atom_site_label_1
_geom_bond_atom_site_label_2
_geom_bond_distance
_geom_bond_site_symmetry_2
_ccdc_geom_bond_type
O0 Cd1 2.300 . S
O0 C7 1.275 . S
Cd1 O0 2.300 . S
Cd1 O9 2.381 . S
Cd1 O10 2.378 . S
O2 Cd3 2.385 . S
O2 C7 1.255 . S
Cd3 O2 2.385 . S
Cd3 O4 2.317 . S
O4 Cd3 2.317 . S
O4 C5 1.232 . S
C5 O4 1.232 . S
C5 O6 1.218 . S
O6 C5 1.218 . S
C7 O0 1.275 . S
C7 O2 1.255 . S
C8 O9 1.258 . S
C8 O10 1.256 . S
O9 Cd1 2.381 . S
O9 C8 1.258 . S
O10 Cd1 2.378 . S
O10 C8 1.256 . S
O11 Cd12 2.300 . S
O11 C18 1.275 . S
Cd12 O11 2.300 . S
Cd12 O20 2.381 . S
Cd12 O21 2.378 . S
O13 Cd14 2.385 . S
O13 C18 1.255 . S
Cd14 O13 2.385 . S
Cd14 O15 2.317 . S
O15 Cd14 2.317 . S
O15 C16 1.232 . S
C16 O15 1.232 . S
C16 O17 1.218 . S
O17 C16 1.218 . S
C18 O11 1.275 . S
C18 O13 1.255 . S
C19 O20 1.258 . S
C19 O21 1.256 . S
O20 Cd12 2.381 . S
O20 C19 1.258 . S
O21 Cd12 2.378 . S
O21 C19 1.256 . S
O22 Cd23 2.300 . S
O22 C29 1.275 . S
Cd23 O22 2.300 . S
Cd23 O31 2.381 . S
Cd23 O32 2.378 . S
O24 Cd25 2.385 . S
O24 C29 1.255 . S
Cd25 O24 2.385 . S
Cd25 O26 2.317 . S
O26 Cd25 2.317 . S
O26 C27 1.232 . S
C27 O26 1.232 . S
C27 O28 1.218 . S
O28 C27 1.218 . S
C29 O22 1.275 . S
C29 O24 1.255 . S
C30 O31 1.258 . S
C30 O32 1.256 . S
O31 Cd23 2.381 . S
O31 C30 1.258 . S
O32 Cd23 2.378 . S
O32 C30 1.256 . S
O33 Cd34 2.300 . S
O33 C40 1.275 . S
Cd34 O33 2.300 . S
Cd34 O42 2.381 . S
Cd34 O43 2.378 . S
O35 Cd36 2.385 . S
O35 C40 1.255 . S
Cd36 O35 2.385 . S
Cd36 O37 2.317 . S
O37 Cd36 2.317 . S
O37 C38 1.232 . S
C38 O37 1.232 . S
C38 O39 1.218 . S
O39 C38 1.218 . S
C40 O33 1.275 . S
C40 O35 1.255 . S
C41 O42 1.258 . S
C41 O43 1.256 . S
O42 Cd34 2.381 . S
O42 C41 1.258 . S
O43 Cd34 2.378 . S
O43 C41 1.256 . S
O44 Cd45 2.300 . S
O44 C51 1.275 . S
Cd45 O44 2.300 . S
Cd45 O53 2.381 . S
Cd45 O54 2.378 . S
O46 Cd47 2.385 . S
O46 C51 1.255 . S
Cd47 O46 2.385 . S
Cd47 O48 2.317 . S
O48 Cd47 2.317 . S
O48 C49 1.232 . S
C49 O48 1.232 . S
C49 O50 1.218 . S
O50 C49 1.218 . S
C51 O44 1.275 . S
C51 O46 1.255 . S
C52 O53 1.258 . S
C52 O54 1.256 . S
O53 Cd45 2.381 . S
O53 C52 1.258 . S
O54 Cd45 2.378 . S
O54 C52 1.256 . S
O55 Cd56 2.300 . S
O55 C62 1.275 . S
Cd56 O55 2.300 . S
Cd56 O64 2.381 . S
Cd56 O65 2.378 . S
O57 Cd58 2.385 . S
O57 C62 1.255 . S
Cd58 O57 2.385 . S
Cd58 O59 2.317 . S
O59 Cd58 2.317 . S
O59 C60 1.232 . S
C60 O59 1.232 . S
C60 O61 1.218 . S
O61 C60 1.218 . S
C62 O55 1.275 . S
C62 O57 1.255 . S
C63 O64 1.258 . S
C63 O65 1.256 . S
O64 Cd56 2.381 . S
O64 C63 1.258 . S
O65 Cd56 2.378 . S
O65 C63 1.256 . S
O66 Cd67 2.300 . S
O66 C73 1.275 . S
Cd67 O66 2.300 . S
Cd67 O75 2.381 . S
Cd67 O76 2.378 . S
O68 Cd69 2.385 . S
O68 C73 1.255 . S
Cd69 O68 2.385 . S
Cd69 O70 2.317 . S
O70 Cd69 2.317 . S
O70 C71 1.232 . S
C71 O70 1.232 . S
C71 O72 1.218 . S
O72 C71 1.218 . S
C73 O66 1.275 . S
C73 O68 1.255 . S
C74 O75 1.258 . S
C74 O76 1.256 . S
O75 Cd67 2.381 . S
O75 C74 1.258 . S
O76 Cd67 2.378 . S
O76 C74 1.256 . S
O77 Cd78 2.300 . S
O77 C84 1.275 . S
Cd78 O77 2.300 . S
Cd78 O86 2.381 . S
Cd78 O87 2.378 . S
O79 Cd80 2.385 . S
O79 C84 1.255 . S
Cd80 O79 2.385 . S
Cd80 O81 2.317 . S
O81 Cd80 2.317 . S
O81 C82 1.232 . S
C82 O81 1.232 . S
C82 O83 1.218 . S
O83 C82 1.218 . S
C84 O77 1.275 . S
C84 O79 1.255 . S
C85 O86 1.258 . S
C85 O87 1.256 . S
O86 Cd78 2.381 . S
O86 C85 1.258 . S
O87 Cd78 2.378 . S
O87 C85 1.256 . S
O88 Cd89 2.300 . S
O88 C95 1.275 . S
Cd89 O88 2.300 . S
Cd89 O97 2.381 . S
Cd89 O98 2.378 . S
O90 Cd91 2.385 . S
O90 C95 1.255 . S
Cd91 O90 2.385 . S
Cd91 O92 2.317 . S
O92 Cd91 2.317 . S
O92 C93 1.232 . S
C93 O92 1.232 . S
C93 O94 1.218 . S
O94 C93 1.218 . S
C95 O88 1.275 . S
C95 O90 1.255 . S
C96 O97 1.258 . S
C96 O98 1.256 . S
O97 Cd89 2.381 . S
O97 C96 1.258 . S
O98 Cd89 2.378 . S
O98 C96 1.256 . S
O99 Cd100 2.300 . S
O99 C106 1.275 . S
Cd100 O99 2.300 . S
Cd100 O108 2.381 . S
Cd100 O109 2.378 . S
O101 Cd102 2.385 . S
O101 C106 1.255 . S
Cd102 O101 2.385 . S
Cd102 O103 2.317 . S
O103 Cd102 2.317 . S
O103 C104 1.232 . S
C104 O103 1.232 . S
C104 O105 1.218 . S
O105 C104 1.218 . S
C106 O99 1.275 . S
C106 O101 1.255 . S
C107 O108 1.258 . S
C107 O109 1.256 . S
O108 Cd100 2.381 . S
O108 C107 1.258 . S
O109 Cd100 2.378 . S
O109 C107 1.256 . S
O110 Cd111 2.300 . S
O110 C117 1.275 . S
Cd111 O110 2.300 . S
Cd111 O119 2.381 . S
Cd111 O120 2.378 . S
O112 Cd113 2.385 . S
O112 C117 1.255 . S
Cd113 O112 2.385 . S
Cd113 O114 2.317 . S
O114 Cd113 2.317 . S
O114 C115 1.232 . S
C115 O114 1.232 . S
C115 O116 1.218 . S
O116 C115 1.218 . S
C117 O110 1.275 . S
C117 O112 1.255 . S
C118 O119 1.258 . S
C118 O120 1.256 . S
O119 Cd111 2.381 . S
O119 C118 1.258 . S
O120 Cd111 2.378 . S
O120 C118 1.256 . S
O121 Cd122 2.300 . S
O121 C128 1.275 . S
Cd122 O121 2.300 . S
Cd122 O130 2.381 . S
Cd122 O131 2.378 . S
O123 Cd124 2.385 . S
O123 C128 1.255 . S
Cd124 O123 2.385 . S
Cd124 O125 2.317 . S
O125 Cd124 2.317 . S
O125 C126 1.232 . S
C126 O125 1.232 . S
C126 O127 1.218 . S
O127 C126 1.218 . S
C128 O121 1.275 . S
C128 O123 1.255 . S
C129 O130 1.258 . S
C129 O131 1.256 . S
O130 Cd122 2.381 . S
O130 C129 1.258 . S
O131 Cd122 2.378 . S
O131 C129 1.256 . S
C132 C133 1.391 . S
C132 C134 1.394 . S
C132 H148 0.931 . S
C133 C132 1.391 . S
C133 C137 1.376 . S
C134 C132 1.394 . S
C134 C135 1.369 . S
C134 C138 1.531 . S
C135 C134 1.369 . S
C135 C136 1.410 . S
C135 C143 1.503 . S
C136 C135 1.410 . S
C136 C137 1.392 . S
C136 C139 1.511 . S
C137 C133 1.376 . S
C137 C136 1.392 . S
C137 H149 0.929 . S
C138 C134 1.531 . S
C138 H150 0.960 . S
C138 H151 0.962 . S
C138 H152 0.960 . S
C139 C136 1.511 . S
C139 H153 0.961 . S
C139 H154 0.961 . S
C139 H155 0.961 . S
C140 C141 1.370 . S
C140 C142 1.363 . S
C140 H156 0.931 . S
C141 C140 1.370 . S
C141 C145 1.408 . S
C142 C140 1.363 . S
C142 C143 1.370 . S
C142 C146 1.524 . S
C143 C135 1.503 . S
C143 C142 1.370 . S
C143 C144 1.403 . S
C144 C143 1.403 . S
C144 C145 1.404 . S
C144 C147 1.539 . S
C145 C141 1.408 . S
C145 C144 1.404 . S
C145 H157 0.930 . S
C146 C142 1.524 . S
C146 H158 0.956 . S
C146 H159 0.961 . S
C146 H160 0.961 . S
C147 C144 1.539 . S
C147 H161 0.958 . S
C147 H162 0.961 . S
C147 H163 0.960 . S
H148 C132 0.931 . S
H149 C137 0.929 . S
H150 C138 0.960 . S
H151 C138 0.962 . S
H152 C138 0.960 . S
H153 C139 0.961 . S
H154 C139 0.961 . S
H155 C139 0.961 . S
H156 C140 0.931 . S
H157 C145 0.930 . S
H158 C146 0.956 . S
H159 C146 0.961 . S
H160 C146 0.961 . S
H161 C147 0.958 . S
H162 C147 0.961 . S
H163 C147 0.960 . S
C164 C165 1.391 . S
C164 C166 1.394 . S
C164 H180 0.931 . S
C165 C164 1.391 . S
C165 C169 1.376 . S
C166 C164 1.394 . S
C166 C167 1.369 . S
C166 C170 1.531 . S
C167 C166 1.369 . S
C167 C168 1.410 . S
C167 C175 1.503 . S
C168 C167 1.410 . S
C168 C169 1.392 . S
C168 C171 1.511 . S
C169 C165 1.376 . S
C169 C168 1.392 . S
C169 H181 0.929 . S
C170 C166 1.531 . S
C170 H182 0.960 . S
C170 H183 0.962 . S
C170 H184 0.960 . S
C171 C168 1.511 . S
C171 H185 0.961 . S
C171 H186 0.961 . S
C171 H187 0.961 . S
C172 C173 1.370 . S
C172 C174 1.363 . S
C172 H188 0.931 . S
C173 C172 1.370 . S
C173 C177 1.408 . S
C174 C172 1.363 . S
C174 C175 1.370 . S
C174 C178 1.524 . S
C175 C167 1.503 . S
C175 C174 1.370 . S
C175 C176 1.403 . S
C176 C175 1.403 . S
C176 C177 1.404 . S
C176 C179 1.539 . S
C177 C173 1.408 . S
C177 C176 1.404 . S
C177 H189 0.930 . S
C178 C174 1.524 . S
C178 H190 0.956 . S
C178 H191 0.961 . S
C178 H192 0.961 . S
C179 C176 1.539 . S
C179 H193 0.958 . S
C179 H194 0.961 . S
C179 H195 0.960 . S
H180 C164 0.931 . S
H181 C169 0.929 . S
H182 C170 0.960 . S
H183 C170 0.962 . S
H184 C170 0.960 . S
H185 C171 0.961 . S
H186 C171 0.961 . S
H187 C171 0.961 . S
H188 C172 0.931 . S
H189 C177 0.930 . S
H190 C178 0.956 . S
H191 C178 0.961 . S
H192 C178 0.961 . S
H193 C179 0.958 . S
H194 C179 0.961 . S
H195 C179 0.960 . S
C196 C197 1.391 . S
C196 C198 1.394 . S
C196 H212 0.931 . S
C197 C196 1.391 . S
C197 C201 1.376 . S
C198 C196 1.394 . S
C198 C199 1.369 . S
C198 C202 1.531 . S
C199 C198 1.369 . S
C199 C200 1.410 . S
C199 C207 1.503 . S
C200 C199 1.410 . S
C200 C201 1.392 . S
C200 C203 1.511 . S
C201 C197 1.376 . S
C201 C200 1.392 . S
C201 H213 0.929 . S
C202 C198 1.531 . S
C202 H214 0.960 . S
C202 H215 0.962 . S
C202 H216 0.960 . S
C203 C200 1.511 . S
C203 H217 0.961 . S
C203 H218 0.961 . S
C203 H219 0.961 . S
C204 C205 1.370 . S
C204 C206 1.363 . S
C204 H220 0.931 . S
C205 C204 1.370 . S
C205 C209 1.408 . S
C206 C204 1.363 . S
C206 C207 1.370 . S
C206 C210 1.524 . S
C207 C199 1.503 . S
C207 C206 1.370 . S
C207 C208 1.403 . S
C208 C207 1.403 . S
C208 C209 1.404 . S
C208 C211 1.539 . S
C209 C205 1.408 . S
C209 C208 1.404 . S
C209 H221 0.930 . S
C210 C206 1.524 . S
C210 H222 0.956 . S
C210 H223 0.961 . S
C210 H224 0.961 . S
C211 C208 1.539 . S
C211 H225 0.958 . S
C211 H226 0.961 . S
C211 H227 0.960 . S
H212 C196 0.931 . S
H213 C201 0.929 . S
H214 C202 0.960 . S
H215 C202 0.962 . S
H216 C202 0.960 . S
H217 C203 0.961 . S
H218 C203 0.961 . S
H219 C203 0.961 . S
H220 C204 0.931 . S
H221 C209 0.930 . S
H222 C210 0.956 . S
H223 C210 0.961 . S
H224 C210 0.961 . S
H225 C211 0.958 . S
H226 C211 0.961 . S
H227 C211 0.960 . S
C228 C229 1.391 . S
C228 C230 1.394 . S
C228 H244 0.931 . S
C229 C228 1.391 . S
C229 C233 1.376 . S
C230 C228 1.394 . S
C230 C231 1.369 . S
C230 C234 1.531 . S
C231 C230 1.369 . S
C231 C232 1.410 . S
C231 C239 1.503 . S
C232 C231 1.410 . S
C232 C233 1.392 . S
C232 C235 1.511 . S
C233 C229 1.376 . S
C233 C232 1.392 . S
C233 H245 0.929 . S
C234 C230 1.531 . S
C234 H246 0.960 . S
C234 H247 0.962 . S
C234 H248 0.960 . S
C235 C232 1.511 . S
C235 H249 0.961 . S
C235 H250 0.961 . S
C235 H251 0.961 . S
C236 C237 1.370 . S
C236 C238 1.363 . S
C236 H252 0.931 . S
C237 C236 1.370 . S
C237 C241 1.408 . S
C238 C236 1.363 . S
C238 C239 1.370 . S
C238 C242 1.524 . S
C239 C231 1.503 . S
C239 C238 1.370 . S
C239 C240 1.403 . S
C240 C239 1.403 . S
C240 C241 1.404 . S
C240 C243 1.539 . S
C241 C237 1.408 . S
C241 C240 1.404 . S
C241 H253 0.930 . S
C242 C238 1.524 . S
C242 H254 0.956 . S
C242 H255 0.961 . S
C242 H256 0.961 . S
C243 C240 1.539 . S
C243 H257 0.958 . S
C243 H258 0.961 . S
C243 H259 0.960 . S
H244 C228 0.931 . S
H245 C233 0.929 . S
H246 C234 0.960 . S
H247 C234 0.962 . S
H248 C234 0.960 . S
H249 C235 0.961 . S
H250 C235 0.961 . S
H251 C235 0.961 . S
H252 C236 0.931 . S
H253 C241 0.930 . S
H254 C242 0.956 . S
H255 C242 0.961 . S
H256 C242 0.961 . S
H257 C243 0.958 . S
H258 C243 0.961 . S
H259 C243 0.960 . S
C260 C261 1.391 . S
C260 C262 1.394 . S
C260 H276 0.931 . S
C261 C260 1.391 . S
C261 C265 1.376 . S
C262 C260 1.394 . S
C262 C263 1.369 . S
C262 C266 1.531 . S
C263 C262 1.369 . S
C263 C264 1.410 . S
C263 C271 1.503 . S
C264 C263 1.410 . S
C264 C265 1.392 . S
C264 C267 1.511 . S
C265 C261 1.376 . S
C265 C264 1.392 . S
C265 H277 0.929 . S
C266 C262 1.531 . S
C266 H278 0.960 . S
C266 H279 0.962 . S
C266 H280 0.960 . S
C267 C264 1.511 . S
C267 H281 0.961 . S
C267 H282 0.961 . S
C267 H283 0.961 . S
C268 C269 1.370 . S
C268 C270 1.363 . S
C268 H284 0.931 . S
C269 C268 1.370 . S
C269 C273 1.408 . S
C270 C268 1.363 . S
C270 C271 1.370 . S
C270 C274 1.524 . S
C271 C263 1.503 . S
C271 C270 1.370 . S
C271 C272 1.403 . S
C272 C271 1.403 . S
C272 C273 1.404 . S
C272 C275 1.539 . S
C273 C269 1.408 . S
C273 C272 1.404 . S
C273 H285 0.930 . S
C274 C270 1.524 . S
C274 H286 0.956 . S
C274 H287 0.961 . S
C274 H288 0.961 . S
C275 C272 1.539 . S
C275 H289 0.958 . S
C275 H290 0.961 . S
C275 H291 0.960 . S
H276 C260 0.931 . S
H277 C265 0.929 . S
H278 C266 0.960 . S
H279 C266 0.962 . S
H280 C266 0.960 . S
H281 C267 0.961 . S
H282 C267 0.961 . S
H283 C267 0.961 . S
H284 C268 0.931 . S
H285 C273 0.930 . S
H286 C274 0.956 . S
H287 C274 0.961 . S
H288 C274 0.961 . S
H289 C275 0.958 . S
H290 C275 0.961 . S
H291 C275 0.960 . S
C292 C293 1.391 . S
C292 C294 1.394 . S
C292 H308 0.931 . S
C293 C292 1.391 . S
C293 C297 1.376 . S
C294 C292 1.394 . S
C294 C295 1.369 . S
C294 C298 1.531 . S
C295 C294 1.369 . S
C295 C296 1.410 . S
C295 C303 1.503 . S
C296 C295 1.410 . S
C296 C297 1.392 . S
C296 C299 1.511 . S
C297 C293 1.376 . S
C297 C296 1.392 . S
C297 H309 0.929 . S
C298 C294 1.531 . S
C298 H310 0.960 . S
C298 H311 0.962 . S
C298 H312 0.960 . S
C299 C296 1.511 . S
C299 H313 0.961 . S
C299 H314 0.961 . S
C299 H315 0.961 . S
C300 C301 1.370 . S
C300 C302 1.363 . S
C300 H316 0.931 . S
C301 C300 1.370 . S
C301 C305 1.408 . S
C302 C300 1.363 . S
C302 C303 1.370 . S
C302 C306 1.524 . S
C303 C295 1.503 . S
C303 C302 1.370 . S
C303 C304 1.403 . S
C304 C303 1.403 . S
C304 C305 1.404 . S
C304 C307 1.539 . S
C305 C301 1.408 . S
C305 C304 1.404 . S
C305 H317 0.930 . S
C306 C302 1.524 . S
C306 H318 0.956 . S
C306 H319 0.961 . S
C306 H320 0.961 . S
C307 C304 1.539 . S
C307 H321 0.958 . S
C307 H322 0.961 . S
C307 H323 0.960 . S
H308 C292 0.931 . S
H309 C297 0.929 . S
H310 C298 0.960 . S
H311 C298 0.962 . S
H312 C298 0.960 . S
H313 C299 0.961 . S
H314 C299 0.961 . S
H315 C299 0.961 . S
H316 C300 0.931 . S
H317 C305 0.930 . S
H318 C306 0.956 . S
H319 C306 0.961 . S
H320 C306 0.961 . S
H321 C307 0.958 . S
H322 C307 0.961 . S
H323 C307 0.960 . S
C324 C325 1.391 . S
C324 C326 1.394 . S
C324 H340 0.931 . S
C325 C324 1.391 . S
C325 C329 1.376 . S
C326 C324 1.394 . S
C326 C327 1.369 . S
C326 C330 1.531 . S
C327 C326 1.369 . S
C327 C328 1.410 . S
C327 C335 1.503 . S
C328 C327 1.410 . S
C328 C329 1.392 . S
C328 C331 1.511 . S
C329 C325 1.376 . S
C329 C328 1.392 . S
C329 H341 0.929 . S
C330 C326 1.531 . S
C330 H342 0.960 . S
C330 H343 0.962 . S
C330 H344 0.960 . S
C331 C328 1.511 . S
C331 H345 0.961 . S
C331 H346 0.961 . S
C331 H347 0.961 . S
C332 C333 1.370 . S
C332 C334 1.363 . S
C332 H348 0.931 . S
C333 C332 1.370 . S
C333 C337 1.408 . S
C334 C332 1.363 . S
C334 C335 1.370 . S
C334 C338 1.524 . S
C335 C327 1.503 . S
C335 C334 1.370 . S
C335 C336 1.403 . S
C336 C335 1.403 . S
C336 C337 1.404 . S
C336 C339 1.539 . S
C337 C333 1.408 . S
C337 C336 1.404 . S
C337 H349 0.930 . S
C338 C334 1.524 . S
C338 H350 0.956 . S
C338 H351 0.961 . S
C338 H352 0.961 . S
C339 C336 1.539 . S
C339 H353 0.958 . S
C339 H354 0.961 . S
C339 H355 0.960 . S
H340 C324 0.931 . S
H341 C329 0.929 . S
H342 C330 0.960 . S
H343 C330 0.962 . S
H344 C330 0.960 . S
H345 C331 0.961 . S
H346 C331 0.961 . S
H347 C331 0.961 . S
H348 C332 0.931 . S
H349 C337 0.930 . S
H350 C338 0.956 . S
H351 C338 0.961 . S
H352 C338 0.961 . S
H353 C339 0.958 . S
H354 C339 0.961 . S
H355 C339 0.960 . S
C356 C357 1.391 . S
C356 C358 1.394 . S
C356 H372 0.931 . S
C357 C356 1.391 . S
C357 C361 1.376 . S
C358 C356 1.394 . S
C358 C359 1.369 . S
C358 C362 1.531 . S
C359 C358 1.369 . S
C359 C360 1.410 . S
C359 C367 1.503 . S
C360 C359 1.410 . S
C360 C361 1.392 . S
C360 C363 1.511 . S
C361 C357 1.376 . S
C361 C360 1.392 . S
C361 H373 0.929 . S
C362 C358 1.531 . S
C362 H374 0.960 . S
C362 H375 0.962 . S
C362 H376 0.960 . S
C363 C360 1.511 . S
C363 H377 0.961 . S
C363 H378 0.961 . S
C363 H379 0.961 . S
C364 C365 1.370 . S
C364 C366 1.363 . S
C364 H380 0.931 . S
C365 C364 1.370 . S
C365 C369 1.408 . S
C366 C364 1.363 . S
C366 C367 1.370 . S
C366 C370 1.524 . S
C367 C359 1.503 . S
C367 C366 1.370 . S
C367 C368 1.403 . S
C368 C367 1.403 . S
C368 C369 1.404 . S
C368 C371 1.539 . S
C369 C365 1.408 . S
C369 C368 1.404 . S
C369 H381 0.930 . S
C370 C366 1.524 . S
C370 H382 0.956 . S
C370 H383 0.961 . S
C370 H384 0.961 . S
C371 C368 1.539 . S
C371 H385 0.958 . S
C371 H386 0.961 . S
C371 H387 0.960 . S
H372 C356 0.931 . S
H373 C361 0.929 . S
H374 C362 0.960 . S
H375 C362 0.962 . S
H376 C362 0.960 . S
H377 C363 0.961 . S
H378 C363 0.961 . S
H379 C363 0.961 . S
H380 C364 0.931 . S
H381 C369 0.930 . S
H382 C370 0.956 . S
H383 C370 0.961 . S
H384 C370 0.961 . S
H385 C371 0.958 . S
H386 C371 0.961 . S
H387 C371 0.960 . S
C388 C389 1.391 . S
C388 C390 1.394 . S
C388 H404 0.931 . S
C389 C388 1.391 . S
C389 C393 1.376 . S
C390 C388 1.394 . S
C390 C391 1.369 . S
C390 C394 1.531 . S
C391 C390 1.369 . S
C391 C392 1.410 . S
C391 C399 1.503 . S
C392 C391 1.410 . S
C392 C393 1.392 . S
C392 C395 1.511 . S
C393 C389 1.376 . S
C393 C392 1.392 . S
C393 H405 0.929 . S
C394 C390 1.531 . S
C394 H406 0.960 . S
C394 H407 0.962 . S
C394 H408 0.960 . S
C395 C392 1.511 . S
C395 H409 0.961 . S
C395 H410 0.961 . S
C395 H411 0.961 . S
C396 C397 1.370 . S
C396 C398 1.363 . S
C396 H412 0.931 . S
C397 C396 1.370 . S
C397 C401 1.408 . S
C398 C396 1.363 . S
C398 C399 1.370 . S
C398 C402 1.524 . S
C399 C391 1.503 . S
C399 C398 1.370 . S
C399 C400 1.403 . S
C400 C399 1.403 . S
C400 C401 1.404 . S
C400 C403 1.539 . S
C401 C397 1.408 . S
C401 C400 1.404 . S
C401 H413 0.930 . S
C402 C398 1.524 . S
C402 H414 0.956 . S
C402 H415 0.961 . S
C402 H416 0.961 . S
C403 C400 1.539 . S
C403 H417 0.958 . S
C403 H418 0.961 . S
C403 H419 0.960 . S
H404 C388 0.931 . S
H405 C393 0.929 . S
H406 C394 0.960 . S
H407 C394 0.962 . S
H408 C394 0.960 . S
H409 C395 0.961 . S
H410 C395 0.961 . S
H411 C395 0.961 . S
H412 C396 0.931 . S
H413 C401 0.930 . S
H414 C402 0.956 . S
H415 C402 0.961 . S
H416 C402 0.961 . S
H417 C403 0.958 . S
H418 C403 0.961 . S
H419 C403 0.960 . S
C420 C421 1.391 . S
C420 C422 1.394 . S
C420 H436 0.931 . S
C421 C420 1.391 . S
C421 C425 1.376 . S
C422 C420 1.394 . S
C422 C423 1.369 . S
C422 C426 1.531 . S
C423 C422 1.369 . S
C423 C424 1.410 . S
C423 C431 1.503 . S
C424 C423 1.410 . S
C424 C425 1.392 . S
C424 C427 1.511 . S
C425 C421 1.376 . S
C425 C424 1.392 . S
C425 H437 0.929 . S
C426 C422 1.531 . S
C426 H438 0.960 . S
C426 H439 0.962 . S
C426 H440 0.960 . S
C427 C424 1.511 . S
C427 H441 0.961 . S
C427 H442 0.961 . S
C427 H443 0.961 . S
C428 C429 1.370 . S
C428 C430 1.363 . S
C428 H444 0.931 . S
C429 C428 1.370 . S
C429 C433 1.408 . S
C430 C428 1.363 . S
C430 C431 1.370 . S
C430 C434 1.524 . S
C431 C423 1.503 . S
C431 C430 1.370 . S
C431 C432 1.403 . S
C432 C431 1.403 . S
C432 C433 1.404 . S
C432 C435 1.539 . S
C433 C429 1.408 . S
C433 C432 1.404 . S
C433 H445 0.930 . S
C434 C430 1.524 . S
C434 H446 0.956 . S
C434 H447 0.961 . S
C434 H448 0.961 . S
C435 C432 1.539 . S
C435 H449 0.958 . S
C435 H450 0.961 . S
C435 H451 0.960 . S
H436 C420 0.931 . S
H437 C425 0.929 . S
H438 C426 0.960 . S
H439 C426 0.962 . S
H440 C426 0.960 . S
H441 C427 0.961 . S
H442 C427 0.961 . S
H443 C427 0.961 . S
H444 C428 0.931 . S
H445 C433 0.930 . S
H446 C434 0.956 . S
H447 C434 0.961 . S
H448 C434 0.961 . S
H449 C435 0.958 . S
H450 C435 0.961 . S
H451 C435 0.960 . S
C452 C453 1.391 . S
C452 C454 1.394 . S
C452 H468 0.931 . S
C453 C452 1.391 . S
C453 C457 1.376 . S
C454 C452 1.394 . S
C454 C455 1.369 . S
C454 C458 1.531 . S
C455 C454 1.369 . S
C455 C456 1.410 . S
C455 C463 1.503 . S
C456 C455 1.410 . S
C456 C457 1.392 . S
C456 C459 1.511 . S
C457 C453 1.376 . S
C457 C456 1.392 . S
C457 H469 0.929 . S
C458 C454 1.531 . S
C458 H470 0.960 . S
C458 H471 0.962 . S
C458 H472 0.960 . S
C459 C456 1.511 . S
C459 H473 0.961 . S
C459 H474 0.961 . S
C459 H475 0.961 . S
C460 C461 1.370 . S
C460 C462 1.363 . S
C460 H476 0.931 . S
C461 C460 1.370 . S
C461 C465 1.408 . S
C462 C460 1.363 . S
C462 C463 1.370 . S
C462 C466 1.524 . S
C463 C455 1.503 . S
C463 C462 1.370 . S
C463 C464 1.403 . S
C464 C463 1.403 . S
C464 C465 1.404 . S
C464 C467 1.539 . S
C465 C461 1.408 . S
C465 C464 1.404 . S
C465 H477 0.930 . S
C466 C462 1.524 . S
C466 H478 0.956 . S
C466 H479 0.961 . S
C466 H480 0.961 . S
C467 C464 1.539 . S
C467 H481 0.958 . S
C467 H482 0.961 . S
C467 H483 0.960 . S
H468 C452 0.931 . S
H469 C457 0.929 . S
H470 C458 0.960 . S
H471 C458 0.962 . S
H472 C458 0.960 . S
H473 C459 0.961 . S
H474 C459 0.961 . S
H475 C459 0.961 . S
H476 C460 0.931 . S
H477 C465 0.930 . S
H478 C466 0.956 . S
H479 C466 0.961 . S
H480 C466 0.961 . S
H481 C467 0.958 . S
H482 C467 0.961 . S
H483 C467 0.960 . S
C484 C485 1.391 . S
C484 C486 1.394 . S
C484 H500 0.931 . S
C485 C484 1.391 . S
C485 C489 1.376 . S
C486 C484 1.394 . S
C486 C487 1.369 . S
C486 C490 1.531 . S
C487 C486 1.369 . S
C487 C488 1.410 . S
C487 C495 1.503 . S
C488 C487 1.410 . S
C488 C489 1.392 . S
C488 C491 1.511 . S
C489 C485 1.376 . S
C489 C488 1.392 . S
C489 H501 0.929 . S
C490 C486 1.531 . S
C490 H502 0.960 . S
C490 H503 0.962 . S
C490 H504 0.960 . S
C491 C488 1.511 . S
C491 H505 0.961 . S
C491 H506 0.961 . S
C491 H507 0.961 . S
C492 C493 1.370 . S
C492 C494 1.363 . S
C492 H508 0.931 . S
C493 C492 1.370 . S
C493 C497 1.408 . S
C494 C492 1.363 . S
C494 C495 1.370 . S
C494 C498 1.524 . S
C495 C487 1.503 . S
C495 C494 1.370 . S
C495 C496 1.403 . S
C496 C495 1.403 . S
C496 C497 1.404 . S
C496 C499 1.539 . S
C497 C493 1.408 . S
C497 C496 1.404 . S
C497 H509 0.930 . S
C498 C494 1.524 . S
C498 H510 0.956 . S
C498 H511 0.961 . S
C498 H512 0.961 . S
C499 C496 1.539 . S
C499 H513 0.958 . S
C499 H514 0.961 . S
C499 H515 0.960 . S
H500 C484 0.931 . S
H501 C489 0.929 . S
H502 C490 0.960 . S
H503 C490 0.962 . S
H504 C490 0.960 . S
H505 C491 0.961 . S
H506 C491 0.961 . S
H507 C491 0.961 . S
H508 C492 0.931 . S
H509 C497 0.930 . S
H510 C498 0.956 . S
H511 C498 0.961 . S
H512 C498 0.961 . S
H513 C499 0.958 . S
H514 C499 0.961 . S
H515 C499 0.960 . S
C516 C517 1.391 . S
C516 C518 1.394 1_554 S
C516 H532 0.931 1_554 S
C517 C516 1.391 . S
C517 C521 1.376 . S
C518 C516 1.394 1_556 S
C518 C519 1.369 1_556 S
C518 C522 1.531 . S
C519 C518 1.369 1_554 S
C519 C520 1.410 . S
C519 C527 1.503 1_544 S
C520 C519 1.410 . S
C520 C521 1.392 . S
C520 C523 1.511 1_545 S
C521 C517 1.376 . S
C521 C520 1.392 . S
C521 H533 0.929 . S
C522 C518 1.531 . S
C522 H534 0.960 . S
C522 H535 0.962 . S
C522 H536 0.960 . S
C523 C520 1.511 1_565 S
C523 H537 0.961 . S
C523 H538 0.961 . S
C523 H539 0.961 . S
C524 C525 1.370 . S
C524 C526 1.363 . S
C524 H540 0.931 . S
C525 C524 1.370 . S
C525 C529 1.408 . S
C526 C524 1.363 . S
C526 C527 1.370 . S
C526 C530 1.524 1_556 S
C527 C519 1.503 1_566 S
C527 C526 1.370 . S
C527 C528 1.403 . S
C528 C527 1.403 . S
C528 C529 1.404 . S
C528 C531 1.539 . S
C529 C525 1.408 . S
C529 C528 1.404 . S
C529 H541 0.930 . S
C530 C526 1.524 1_554 S
C530 H542 0.956 1_564 S
C530 H543 0.961 . S
C530 H544 0.961 . S
C531 C528 1.539 . S
C531 H545 0.974 . S
C531 H546 0.961 . S
C531 H547 0.941 1_565 S
H532 C516 0.931 1_556 S
H533 C521 0.929 . S
H534 C522 0.960 . S
H535 C522 0.962 . S
H536 C522 0.960 . S
H537 C523 0.961 . S
H538 C523 0.961 . S
H539 C523 0.961 . S
H540 C524 0.931 . S
H541 C529 0.930 . S
H542 C530 0.956 1_546 S
H543 C530 0.961 . S
H544 C530 0.961 . S
H545 C531 0.974 . S
H546 C531 0.961 . S
H547 C531 0.941 1_545 S
C548 C549 1.391 . S
C548 C550 1.394 . S
C548 H564 0.931 . S
C549 C548 1.391 . S
C549 C553 1.376 . S
C550 C548 1.394 . S
C550 C551 1.369 . S
C550 C554 1.531 . S
C551 C550 1.369 . S
C551 C552 1.410 . S
C551 C559 1.503 . S
C552 C551 1.410 . S
C552 C553 1.392 . S
C552 C555 1.511 . S
C553 C549 1.376 . S
C553 C552 1.392 . S
C553 H565 0.929 . S
C554 C550 1.531 . S
C554 H566 0.960 . S
C554 H567 0.962 . S
C554 H568 0.960 . S
C555 C552 1.511 . S
C555 H569 0.961 . S
C555 H570 0.961 . S
C555 H571 0.961 . S
C556 C557 1.370 . S
C556 C558 1.363 . S
C556 H572 0.931 . S
C557 C556 1.370 . S
C557 C561 1.408 . S
C558 C556 1.363 . S
C558 C559 1.370 . S
C558 C562 1.524 . S
C559 C551 1.503 . S
C559 C558 1.370 . S
C559 C560 1.403 . S
C560 C559 1.403 . S
C560 C561 1.404 . S
C560 C563 1.539 . S
C561 C557 1.408 . S
C561 C560 1.404 . S
C561 H573 0.930 . S
C562 C558 1.524 . S
C562 H574 0.956 . S
C562 H575 0.961 . S
C562 H576 0.961 . S
C563 C560 1.539 . S
C563 H577 0.958 . S
C563 H578 0.961 . S
C563 H579 0.960 . S
H564 C548 0.931 . S
H565 C553 0.929 . S
H566 C554 0.960 . S
H567 C554 0.962 . S
H568 C554 0.960 . S
H569 C555 0.961 . S
H570 C555 0.961 . S
H571 C555 0.961 . S
H572 C556 0.931 . S
H573 C561 0.930 . S
H574 C562 0.956 . S
H575 C562 0.961 . S
H576 C562 0.961 . S
H577 C563 0.958 . S
H578 C563 0.961 . S
H579 C563 0.960 . S
C580 C581 1.391 . S
C580 C582 1.394 . S
C580 H596 0.931 . S
C581 C580 1.391 . S
C581 C585 1.376 . S
C582 C580 1.394 . S
C582 C583 1.369 . S
C582 C586 1.531 . S
C583 C582 1.369 . S
C583 C584 1.410 . S
C583 C591 1.503 1_455 S
C584 C583 1.410 . S
C584 C585 1.392 . S
C584 C587 1.511 . S
C585 C581 1.376 . S
C585 C584 1.392 . S
C585 H597 0.929 . S
C586 C582 1.531 . S
C586 H598 0.960 1_455 S
C586 H599 0.962 1_455 S
C586 H600 0.960 . S
C587 C584 1.511 . S
C587 H601 0.961 . S
C587 H602 0.961 . S
C587 H603 0.961 . S
C588 C589 1.370 . S
C588 C590 1.363 . S
C588 H604 0.931 . S
C589 C588 1.370 . S
C589 C593 1.408 . S
C590 C588 1.363 . S
C590 C591 1.370 . S
C590 C594 1.524 . S
C591 C583 1.503 1_655 S
C591 C590 1.370 . S
C591 C592 1.403 . S
C592 C591 1.403 . S
C592 C593 1.404 . S
C592 C595 1.539 1_655 S
C593 C589 1.408 . S
C593 C592 1.404 . S
C593 H605 0.930 . S
C594 C590 1.524 . S
C594 H606 0.956 . S
C594 H607 0.961 . S
C594 H608 0.961 . S
C595 C592 1.539 1_455 S
C595 H609 0.958 . S
C595 H610 0.961 . S
C595 H611 0.960 . S
H596 C580 0.931 . S
H597 C585 0.929 . S
H598 C586 0.960 1_655 S
H599 C586 0.962 1_655 S
H600 C586 0.960 . S
H601 C587 0.961 . S
H602 C587 0.961 . S
H603 C587 0.961 . S
H604 C588 0.931 . S
H605 C593 0.930 . S
H606 C594 0.956 . S
H607 C594 0.961 . S
H608 C594 0.961 . S
H609 C595 0.958 . S
H610 C595 0.961 . S
H611 C595 0.960 . S
C612 C613 1.391 . S
C612 C614 1.394 . S
C612 H628 0.931 . S
C613 C612 1.391 . S
C613 C617 1.376 . S
C614 C612 1.394 . S
C614 C615 1.369 . S
C614 C618 1.531 . S
C615 C614 1.369 . S
C615 C616 1.410 . S
C615 C623 1.503 1_545 S
C616 C615 1.410 . S
C616 C617 1.392 . S
C616 C619 1.511 . S
C617 C613 1.376 . S
C617 C616 1.392 . S
C617 H629 0.929 . S
C618 C614 1.531 . S
C618 H630 0.960 . S
C618 H631 0.962 . S
C618 H632 0.960 . S
C619 C616 1.511 . S
C619 H633 0.961 . S
C619 H634 0.961 1_545 S
C619 H635 0.961 . S
C620 C621 1.370 . S
C620 C622 1.363 . S
C620 H636 0.931 . S
C621 C620 1.370 . S
C621 C625 1.408 . S
C622 C620 1.363 . S
C622 C623 1.370 . S
C622 C626 1.524 . S
C623 C615 1.503 1_565 S
C623 C622 1.370 . S
C623 C624 1.403 . S
C624 C623 1.403 . S
C624 C625 1.404 . S
C624 C627 1.539 1_565 S
C625 C621 1.408 . S
C625 C624 1.404 . S
C625 H637 0.930 . S
C626 C622 1.524 . S
C626 H638 0.956 . S
C626 H639 0.961 . S
C626 H640 0.961 . S
C627 C624 1.539 1_545 S
C627 H641 0.958 . S
C627 H642 0.961 . S
C627 H643 0.960 . S
H628 C612 0.931 . S
H629 C617 0.929 . S
H630 C618 0.960 . S
H631 C618 0.962 . S
H632 C618 0.960 . S
H633 C619 0.961 . S
H634 C619 0.961 1_565 S
H635 C619 0.961 . S
H636 C620 0.931 . S
H637 C625 0.930 . S
H638 C626 0.956 . S
H639 C626 0.961 . S
H640 C626 0.961 . S
H641 C627 0.958 . S
H642 C627 0.961 . S
H643 C627 0.960 . S
C644 C645 1.391 . S
C644 C646 1.394 . S
C644 H660 0.931 . S
C645 C644 1.391 . S
C645 C649 1.376 . S
C646 C644 1.394 . S
C646 C647 1.369 . S
C646 C650 1.531 . S
C647 C646 1.369 . S
C647 C648 1.410 . S
C647 C655 1.503 . S
C648 C647 1.410 . S
C648 C649 1.392 . S
C648 C651 1.511 . S
C649 C645 1.376 . S
C649 C648 1.392 . S
C649 H661 0.929 . S
C650 C646 1.531 . S
C650 H662 0.960 . S
C650 H663 0.962 . S
C650 H664 0.960 . S
C651 C648 1.511 . S
C651 H665 0.961 . S
C651 H666 0.961 . S
C651 H667 0.961 . S
C652 C653 1.370 . S
C652 C654 1.363 . S
C652 H668 0.931 . S
C653 C652 1.370 . S
C653 C657 1.408 . S
C654 C652 1.363 . S
C654 C655 1.370 . S
C654 C658 1.524 . S
C655 C647 1.503 . S
C655 C654 1.370 . S
C655 C656 1.403 . S
C656 C655 1.403 . S
C656 C657 1.404 . S
C656 C659 1.539 . S
C657 C653 1.408 . S
C657 C656 1.404 . S
C657 H669 0.930 . S
C658 C654 1.524 . S
C658 H670 0.956 . S
C658 H671 0.961 . S
C658 H672 0.961 . S
C659 C656 1.539 . S
C659 H673 0.958 . S
C659 H674 0.961 . S
C659 H675 0.960 . S
H660 C644 0.931 . S
H661 C649 0.929 . S
H662 C650 0.960 . S
H663 C650 0.962 . S
H664 C650 0.960 . S
H665 C651 0.961 . S
H666 C651 0.961 . S
H667 C651 0.961 . S
H668 C652 0.931 . S
H669 C657 0.930 . S
H670 C658 0.956 . S
H671 C658 0.961 . S
H672 C658 0.961 . S
H673 C659 0.958 . S
H674 C659 0.961 . S
H675 C659 0.960 . S
C676 C677 1.391 . S
C676 C678 1.394 . S
C676 H692 0.931 . S
C677 C676 1.391 . S
C677 C681 1.376 . S
C678 C676 1.394 . S
C678 C679 1.369 . S
C678 C682 1.531 . S
C679 C678 1.369 . S
C679 C680 1.410 . S
C679 C687 1.503 1_655 S
C680 C679 1.410 . S
C680 C681 1.392 . S
C680 C683 1.511 . S
C681 C677 1.376 . S
C681 C680 1.392 . S
C681 H693 0.929 . S
C682 C678 1.531 . S
C682 H694 0.960 . S
C682 H695 0.962 . S
C682 H696 0.960 . S
C683 C680 1.511 . S
C683 H697 0.961 . S
C683 H698 0.961 1_655 S
C683 H699 0.961 . S
C684 C685 1.370 . S
C684 C686 1.363 . S
C684 H700 0.931 . S
C685 C684 1.370 . S
C685 C689 1.408 . S
C686 C684 1.363 . S
C686 C687 1.370 . S
C686 C690 1.524 . S
C687 C679 1.503 1_455 S
C687 C686 1.370 . S
C687 C688 1.403 . S
C688 C687 1.403 . S
C688 C689 1.404 . S
C688 C691 1.539 1_455 S
C689 C685 1.408 . S
C689 C688 1.404 . S
C689 H701 0.930 . S
C690 C686 1.524 . S
C690 H702 0.956 . S
C690 H703 0.961 . S
C690 H704 0.961 . S
C691 C688 1.539 1_655 S
C691 H705 0.958 . S
C691 H706 0.961 1_655 S
C691 H707 0.960 . S
H692 C676 0.931 . S
H693 C681 0.929 . S
H694 C682 0.960 . S
H695 C682 0.962 . S
H696 C682 0.960 . S
H697 C683 0.961 . S
H698 C683 0.961 1_455 S
H699 C683 0.961 . S
H700 C684 0.931 . S
H701 C689 0.930 . S
H702 C690 0.956 . S
H703 C690 0.961 . S
H704 C690 0.961 . S
H705 C691 0.958 . S
H706 C691 0.961 1_455 S
H707 C691 0.960 . S
C133 C7 1.521 . S
C141 C117 1.527 . S
C165 C128 1.554 . S
C173 C18 1.530 . S
C197 C73 1.569 . S
C205 C29 1.552 . S
C229 C40 1.554 . S
C237 C84 1.556 . S
C261 C95 1.563 1_556 S
C269 C51 1.533 . S
C293 C62 1.568 1_554 S
C301 C106 1.536 . S
C325 C5 1.325 . S
C333 C93 1.303 . S
C357 C104 1.315 . S
C365 C16 1.354 . S
C389 C27 1.291 . S
C397 C115 1.348 . S
C421 C126 1.385 . S
C429 C38 1.323 . S
C453 C49 1.281 . S
C461 C71 1.307 . S
C485 C60 1.281 . S
C493 C82 1.345 . S
C517 C8 1.603 . S
C525 C85 1.594 . S
C549 C96 1.603 . S
C557 C19 1.585 . S
C581 C107 1.591 . S
C589 C30 1.580 . S
C613 C118 1.603 . S
C621 C41 1.585 . S
C645 C52 1.606 . S
C653 C129 1.588 . S
C677 C74 1.606 . S
C685 C63 1.589 . S
