# Generated by pormake.
# Topology irl, (4)-cn, num edge types: 1
# Building blocks:
#     Node 0, Type 0, BuildingBlock: KUFVIS_clean_sbu_0, # of connection points: 4
#     Node 1, Type 0, BuildingBlock: KUFVIS_clean_sbu_0, # of connection points: 4
#     Node 2, Type 0, BuildingBlock: KUFVIS_clean_sbu_0, # of connection points: 4
#     Node 3, Type 0, BuildingBlock: KUFVIS_clean_sbu_0, # of connection points: 4
#     Node 4, Type 0, BuildingBlock: KUFVIS_clean_sbu_0, # of connection points: 4
#     Node 5, Type 0, BuildingBlock: KUFVIS_clean_sbu_0, # of connection points: 4
#     Node 6, Type 0, BuildingBlock: KUFVIS_clean_sbu_0, # of connection points: 4
#     Node 7, Type 0, BuildingBlock: KUFVIS_clean_sbu_0, # of connection points: 4
#     Edge 8, Type (0, 0), BuildingBlock: XUDNAN_clean_linker_2, # of connection points: 2
#     Edge 9, Type (0, 0), BuildingBlock: XUDNAN_clean_linker_2, # of connection points: 2
#     Edge 10, Type (0, 0), BuildingBlock: XUDNAN_clean_linker_2, # of connection points: 2
#     Edge 11, Type (0, 0), BuildingBlock: XUDNAN_clean_linker_2, # of connection points: 2
#     Edge 12, Type (0, 0), BuildingBlock: XUDNAN_clean_linker_2, # of connection points: 2
#     Edge 13, Type (0, 0), BuildingBlock: XUDNAN_clean_linker_2, # of connection points: 2
#     Edge 14, Type (0, 0), BuildingBlock: XUDNAN_clean_linker_2, # of connection points: 2
#     Edge 15, Type (0, 0), BuildingBlock: XUDNAN_clean_linker_2, # of connection points: 2
#     Edge 16, Type (0, 0), BuildingBlock: XUDNAN_clean_linker_2, # of connection points: 2
#     Edge 17, Type (0, 0), BuildingBlock: XUDNAN_clean_linker_2, # of connection points: 2
#     Edge 18, Type (0, 0), BuildingBlock: XUDNAN_clean_linker_2, # of connection points: 2
#     Edge 19, Type (0, 0), BuildingBlock: XUDNAN_clean_linker_2, # of connection points: 2
#     Edge 20, Type (0, 0), BuildingBlock: XUDNAN_clean_linker_2, # of connection points: 2
#     Edge 21, Type (0, 0), BuildingBlock: XUDNAN_clean_linker_2, # of connection points: 2
#     Edge 22, Type (0, 0), BuildingBlock: XUDNAN_clean_linker_2, # of connection points: 2
#     Edge 23, Type (0, 0), BuildingBlock: XUDNAN_clean_linker_2, # of connection points: 2
# Relax obj value: 0.101
# Max RMSD: 0.151
# Mean RMSD: 0.151
data_MOF--net-irl--node1-KUFVIS_clean_sbu_0--edge1-XUDNAN_clean_linker_2
_symmetry_space_group_name_H-M    P1
_symmetry_Int_Tables_number       1
_symmetry_cell_setting            triclinic
loop_
_symmetry_equiv_pos_as_xyz
'x, y, z'
_cell_length_a     34.173588
_cell_length_b     44.704871
_cell_length_c     27.379865
_cell_angle_alpha  90.072631
_cell_angle_beta   90.044222
_cell_angle_gamma 90.044348
loop_
_atom_site_label
_atom_site_type_symbol
_atom_site_fract_x
_atom_site_fract_y
_atom_site_fract_z
_atom_type_partial_charge
Mn0 Mn 0.05875 0.16285 0.01386 0.0
Mn1 Mn 0.03175 0.23418 0.03265 0.0
C2 C 0.04138 0.17814 0.09165 0.0
C3 C 0.03701 0.11528 0.99018 0.0
C4 C 0.11585 0.21497 0.0133 0.0
O5 O 0.04778 0.17884 0.94587 0.0
O6 O 0.02067 0.22367 0.96336 0.0
C7 C 0.94586 0.23025 0.02063 0.0
N8 N 0.97753 0.23723 0.04861 0.0
C9 C 0.93649 0.2537 0.11475 0.0
C10 C 0.90339 0.24682 0.08657 0.0
C11 C 0.90811 0.23501 0.03934 0.0
C12 C 0.97335 0.24875 0.09399 0.0
H13 H 0.94944 0.22107 0.98439 0.0
C14 C 0.03043 0.20291 0.93332 0.0
O15 O 0.07385 0.12244 0.98682 0.0
O16 O 0.0137 0.13535 0.00756 0.0
N17 N 0.04127 0.24657 0.09838 0.0
C18 C 0.0761 0.24936 0.12221 0.0
C19 C 0.07656 0.25959 0.17064 0.0
C20 C 0.04127 0.26689 0.19392 0.0
C21 C 0.00575 0.26365 0.16877 0.0
C22 C 0.00714 0.2536 0.12041 0.0
H23 H 0.10332 0.24373 0.1045 0.0
O24 O 0.06194 0.15403 0.08556 0.0
O25 O 0.03186 0.19226 0.05197 0.0
O26 O 0.11112 0.18654 0.01553 0.0
O27 O 0.08781 0.23364 0.01731 0.0
C28 C 0.96902 0.26938 0.19006 0.0
C29 C 0.9344 0.26442 0.16311 0.0
H30 H 0.87423 0.25018 0.10104 0.0
H31 H 0.8827 0.2295 0.01748 0.0
H32 H 0.10402 0.2618 0.19002 0.0
H33 H 0.04192 0.27469 0.23122 0.0
H34 H 0.96707 0.27715 0.22735 0.0
H35 H 0.90631 0.26841 0.18023 0.0
Mn36 Mn 0.94181 0.85687 0.00298 0.0
Mn37 Mn 0.98058 0.78842 0.02197 0.0
C38 C 0.96353 0.84375 0.07978 0.0
C39 C 0.95203 0.90682 0.98072 0.0
C40 C 0.89325 0.79928 0.01094 0.0
O41 O 0.95368 0.84239 0.93433 0.0
O42 O 0.98153 0.79784 0.95116 0.0
C43 C 0.06243 0.80154 0.99402 0.0
N44 N 0.03616 0.7914 0.0275 0.0
C45 C 0.08747 0.77993 0.0847 0.0
C46 C 0.11513 0.79005 0.05069 0.0
C47 C 0.10254 0.80097 0.00521 0.0
C48 C 0.04793 0.78084 0.07134 0.0
H49 H 0.05281 0.81002 0.9591 0.0
C50 C 0.97003 0.81804 0.92129 0.0
O51 O 0.91758 0.89457 0.97735 0.0
O52 O 0.98019 0.88993 -0.00397 0.0
N53 N 0.98157 0.7762 0.08882 0.0
C54 C 0.95098 0.76948 0.11875 0.0
C55 C 0.95847 0.75945 0.1664 0.0
C56 C 0.99726 0.75628 0.18257 0.0
C57 C 0.02823 0.76295 0.15094 0.0
C58 C 0.019 0.77264 0.10375 0.0
H59 H 0.92114 0.77197 0.10642 0.0
O60 O 0.9384 0.86524 0.0745 0.0
O61 O 0.97509 0.83058 0.03996 0.0
O62 O 0.89444 0.8278 0.00632 0.0
O63 O 0.92369 0.7832 0.01735 0.0
C64 C 0.06788 0.76119 0.16485 0.0
C65 C 0.09748 0.76969 0.13174 0.0
H66 H 0.14607 0.78986 0.05932 0.0
H67 H 0.1237 0.80899 0.9789 0.0
H68 H 0.93443 0.75431 0.1907 0.0
H69 H 0.00302 0.74907 0.21946 0.0
H70 H 0.07588 0.7539 0.20122 0.0
H71 H 0.12782 0.76875 0.14312 0.0
Mn72 Mn 0.06413 0.85172 0.49544 0.0
Mn73 Mn 0.03165 0.78199 0.47111 0.0
C74 C 0.0566 0.83658 0.41546 0.0
C75 C 0.04612 0.90078 0.51549 0.0
C76 C 0.11542 0.79571 0.50174 0.0
O77 O 0.04373 0.83736 0.56071 0.0
O78 O 0.01766 0.79307 0.53914 0.0
C79 C 0.94638 0.79294 0.47555 0.0
N80 N 0.97831 0.78306 0.4506 0.0
C81 C 0.93813 0.76324 0.38614 0.0
C82 C 0.90473 0.77317 0.41109 0.0
C83 C 0.90892 0.78836 0.45576 0.0
C84 C 0.9747 0.7693 0.4069 0.0
H85 H 0.94952 0.80394 0.51049 0.0
C86 C 0.02468 0.81364 0.57048 0.0
O87 O 0.08102 0.89091 0.52552 0.0
O88 O 0.02258 0.88257 0.4935 0.0
N89 N 0.04275 0.76769 0.40677 0.0
C90 C 0.07796 0.7603 0.38683 0.0
C91 C 0.07905 0.74603 0.34113 0.0
C92 C 0.04395 0.73859 0.31727 0.0
C93 C 0.00805 0.74601 0.3389 0.0
C94 C 0.00883 0.76105 0.38374 0.0
H95 H 0.10497 0.76515 0.40577 0.0
O96 O 0.07774 0.8598 0.42614 0.0
O97 O 0.0389 0.82366 0.45179 0.0
O98 O 0.11301 0.82437 0.50308 0.0
O99 O 0.0866 0.77868 0.49117 0.0
C100 C 0.97149 0.73853 0.31833 0.0
C101 C 0.93657 0.74729 0.34178 0.0
H102 H 0.87577 0.76922 0.39632 0.0
H103 H 0.8833 0.79608 0.47526 0.0
H104 H 0.10686 0.74023 0.32479 0.0
H105 H 0.04496 0.72692 0.28262 0.0
H106 H 0.96979 0.72612 0.28444 0.0
H107 H 0.90868 0.74183 0.32517 0.0
Mn108 Mn 0.93727 0.1577 0.5055 0.0
Mn109 Mn 0.96412 0.22908 0.4843 0.0
C110 C 0.94433 0.17438 0.42595 0.0
C111 C 0.95488 0.10823 0.52362 0.0
C112 C 0.8826 0.21101 0.51707 0.0
O113 O 0.95714 0.17242 0.57162 0.0
O114 O 0.98218 0.2172 0.55019 0.0
C115 C 0.0503 0.22336 0.4815 0.0
N116 N 0.01619 0.23155 0.45963 0.0
C117 C 0.05061 0.25551 0.39385 0.0
C118 C 0.0862 0.24731 0.41557 0.0
C119 C 0.08603 0.23087 0.45931 0.0
C120 C 0.016 0.24648 0.41676 0.0
H121 H 0.05016 0.21152 0.51588 0.0
C122 C 0.97564 0.19653 0.58149 0.0
O123 O 0.9206 0.11883 0.53449 0.0
O124 O 0.97914 0.12645 0.50259 0.0
N125 N 0.94818 0.24384 0.42197 0.0
C126 C 0.91129 0.24951 0.40546 0.0
C127 C 0.90621 0.26491 0.36129 0.0
C128 C 0.93905 0.27513 0.33541 0.0
C129 C 0.9767 0.26926 0.35341 0.0
C130 C 0.97996 0.25306 0.39687 0.0
H131 H 0.88593 0.24254 0.426 0.0
O132 O 0.92437 0.15033 0.43529 0.0
O133 O 0.96069 0.18733 0.4632 0.0
O134 O 0.88692 0.1827 0.51396 0.0
O135 O 0.9101 0.22963 0.50894 0.0
C136 C 0.01109 0.27962 0.33076 0.0
C137 C 0.04804 0.27266 0.35082 0.0
H138 H 0.11381 0.25356 0.39904 0.0
H139 H 0.11337 0.2245 0.47633 0.0
H140 H 0.87706 0.26946 0.34776 0.0
H141 H 0.93491 0.28777 0.30214 0.0
H142 H 0.00936 0.29324 0.29822 0.0
H143 H 0.07429 0.28049 0.33271 0.0
Mn144 Mn 0.57156 0.6585 0.02413 0.0
Mn145 Mn 0.54385 0.73103 0.02025 0.0
C146 C 0.55806 0.68305 0.09583 0.0
C147 C 0.5576 0.60751 0.01563 0.0
C148 C 0.62821 0.7113 0.01033 0.0
O149 O 0.55782 0.66517 0.9536 0.0
O150 O 0.53635 0.71268 0.95378 0.0
C151 C 0.45915 0.72148 0.00348 0.0
N152 N 0.48867 0.73308 0.03109 0.0
C153 C 0.44286 0.755 0.08738 0.0
C154 C 0.41196 0.74342 0.05943 0.0
C155 C 0.42015 0.72647 0.01742 0.0
C156 C 0.48112 0.74902 0.07198 0.0
H157 H 0.4653 0.70855 0.97105 0.0
C158 C 0.5431 0.68772 0.93214 0.0
O159 O 0.5923 0.6183 0.00797 0.0
O160 O 0.53075 0.62636 0.02917 0.0
N161 N 0.54873 0.75178 0.08118 0.0
C162 C 0.58184 0.76122 0.10434 0.0
C163 C 0.57871 0.77782 0.14775 0.0
C164 C 0.54161 0.78505 0.16636 0.0
C165 C 0.50798 0.77577 0.1412 0.0
C166 C 0.5129 0.75906 0.09835 0.0
H167 H 0.61045 0.75587 0.09015 0.0
O168 O 0.57854 0.65859 0.09586 0.0
O169 O 0.54442 0.69187 0.05366 0.0
O170 O 0.62123 0.68347 0.01581 0.0
O171 O 0.60142 0.73125 0.01028 0.0
C172 C 0.46975 0.78255 0.15686 0.0
C173 C 0.43721 0.7722 0.12995 0.0
H174 H 0.38184 0.74733 0.06995 0.0
H175 H 0.39646 0.71738 -0.00426 0.0
H176 H 0.60482 0.78505 0.16678 0.0
H177 H 0.53931 0.79785 0.19986 0.0
H178 H 0.46502 0.79552 0.18978 0.0
H179 H 0.40795 0.77731 0.14264 0.0
Mn180 Mn 0.44397 0.351 0.02398 0.0
Mn181 Mn 0.46167 0.27736 0.03982 0.0
C182 C 0.46013 0.33287 0.1002 0.0
C183 C 0.46815 0.39867 0.00549 0.0
C184 C 0.37991 0.30255 0.0296 0.0
O185 O 0.45299 0.33658 0.95466 0.0
O186 O 0.46475 0.28779 0.96929 0.0
C187 C 0.54494 0.2777 0.01009 0.0
N188 N 0.51698 0.27164 0.04411 0.0
C189 C 0.56524 0.25341 0.10072 0.0
C190 C 0.59452 0.25924 0.06617 0.0
C191 C 0.58431 0.27148 0.02068 0.0
C192 C 0.52645 0.25983 0.08794 0.0
H193 H 0.53729 0.28727 0.97519 0.0
C194 C 0.46114 0.31015 0.94035 0.0
O195 O 0.43106 0.39267 0.00116 0.0
O196 O 0.49063 0.37712 0.01977 0.0
N197 N 0.46021 0.26434 0.10632 0.0
C198 C 0.42882 0.26192 0.13672 0.0
C199 C 0.43427 0.25099 0.1843 0.0
C200 C 0.47183 0.24257 0.19993 0.0
C201 C 0.5036 0.24505 0.16792 0.0
C202 C 0.49636 0.25583 0.12081 0.0
H203 H 0.39996 0.26854 0.12488 0.0
O204 O 0.44156 0.35801 0.09592 0.0
O205 O 0.46841 0.31905 0.05973 0.0
O206 O 0.39013 0.32996 0.02434 0.0
O207 O 0.40423 0.28128 0.03662 0.0
C208 C 0.54231 0.23792 0.18128 0.0
C209 C 0.57311 0.24212 0.14772 0.0
H210 H 0.62495 0.2547 0.07435 0.0
H211 H 0.60676 0.27622 0.99392 0.0
H212 H 0.40965 0.24924 0.20896 0.0
H213 H 0.47609 0.23447 0.23669 0.0
H214 H 0.54882 0.22963 0.2175 0.0
H215 H 0.60281 0.23698 0.15868 0.0
Mn216 Mn 0.56064 0.34872 0.51275 0.0
Mn217 Mn 0.53552 0.27662 0.49273 0.0
C218 C 0.55462 0.33075 0.43413 0.0
C219 C 0.5457 0.3991 0.52674 0.0
C220 C 0.61774 0.29523 0.51815 0.0
O221 O 0.53941 0.33632 0.57888 0.0
O222 O 0.52688 0.28806 0.562 0.0
C223 C 0.45052 0.28466 0.5091 0.0
N224 N 0.48056 0.27554 0.48001 0.0
C225 C 0.4358 0.25586 0.42027 0.0
C226 C 0.40437 0.26497 0.4496 0.0
C227 C 0.41178 0.27967 0.49403 0.0
C228 C 0.47375 0.26221 0.43654 0.0
H229 H 0.45606 0.29551 0.54367 0.0
C230 C 0.52813 0.31029 0.59147 0.0
O231 O 0.57899 0.38759 0.53968 0.0
O232 O 0.52052 0.38112 0.50666 0.0
N233 N 0.5415 0.26172 0.42763 0.0
C234 C 0.57504 0.25408 0.40381 0.0
C235 C 0.5727 0.23969 0.35827 0.0
C236 C 0.53597 0.23229 0.3386 0.0
C237 C 0.50189 0.23959 0.36444 0.0
C238 C 0.50601 0.25464 0.409 0.0
H239 H 0.60336 0.25904 0.41937 0.0
O240 O 0.57536 0.35443 0.44319 0.0
O241 O 0.53695 0.31849 0.47114 0.0
O242 O 0.60957 0.32289 0.52412 0.0
O243 O 0.59258 0.27576 0.5046 0.0
C244 C 0.46403 0.23187 0.34835 0.0
C245 C 0.43099 0.2403 0.37593 0.0
H246 H 0.37446 0.26073 0.43844 0.0
H247 H 0.38769 0.28679 0.51688 0.0
H248 H 0.59915 0.23387 0.33875 0.0
H249 H 0.53427 0.22066 0.30397 0.0
H250 H 0.45989 0.21946 0.31482 0.0
H251 H 0.40202 0.23464 0.36274 0.0
Mn252 Mn 0.44093 0.65836 0.49225 0.0
Mn253 Mn 0.46159 0.73206 0.49706 0.0
C254 C 0.45813 0.6829 0.42153 0.0
C255 C 0.46405 0.60956 0.5034 0.0
C256 C 0.37886 0.70705 0.50234 0.0
O257 O 0.44916 0.66669 0.56379 0.0
O258 O 0.4703 0.71446 0.56384 0.0
C259 C 0.54672 0.7301 0.51675 0.0
N260 N 0.51631 0.73887 0.48797 0.0
C261 C 0.56003 0.76309 0.43158 0.0
C262 C 0.59178 0.75452 0.46085 0.0
C263 C 0.58508 0.73794 0.50359 0.0
C264 C 0.52238 0.75506 0.44696 0.0
H265 H 0.54174 0.71715 0.54943 0.0
C266 C 0.46346 0.68946 0.58538 0.0
O267 O 0.4269 0.61555 0.50672 0.0
O268 O 0.48707 0.63156 0.49252 0.0
N269 N 0.45515 0.75115 0.43495 0.0
C270 C 0.42189 0.75478 0.40808 0.0
C271 C 0.42387 0.76926 0.36266 0.0
C272 C 0.45996 0.77987 0.34532 0.0
C273 C 0.49378 0.77588 0.37358 0.0
C274 C 0.48999 0.76146 0.41875 0.0
H275 H 0.39416 0.7463 0.4208 0.0
O276 O 0.43954 0.65757 0.41958 0.0
O277 O 0.46637 0.69285 0.46511 0.0
O278 O 0.38761 0.67957 0.49515 0.0
O279 O 0.40439 0.72787 0.5055 0.0
C280 C 0.5313 0.78473 0.35792 0.0
C281 C 0.56439 0.77842 0.38696 0.0
H282 H 0.62146 0.76018 0.4505 0.0
H283 H 0.60946 0.73106 0.52618 0.0
H284 H 0.39769 0.77199 0.34086 0.0
H285 H 0.46144 0.79063 0.30994 0.0
H286 H 0.53513 0.79586 0.32312 0.0
H287 H 0.59315 0.78484 0.37409 0.0
H288 H 0.02077 0.93769 0.99096 0.0
H289 H 0.89929 0.94862 0.94817 0.0
H290 H 0.91052 1.00286 0.93723 0.0
H291 H 0.02743 1.0025 0.06133 0.0
H292 H 0.07699 0.0115 0.04428 0.0
H293 H 0.06068 0.97324 0.04321 0.0
H294 H 0.08123 0.9688 0.95244 0.0
H295 H 0.09767 0.00712 0.95321 0.0
H296 H 0.06223 0.99507 0.90852 0.0
H297 H 0.93296 0.05604 0.9393 0.0
H298 H 0.96463 0.10474 0.95431 0.0
H299 H 0.07227 0.05973 0.99455 0.0
C300 C 0.99665 0.95137 0.97839 0.0
C301 C 0.95912 0.93888 0.97018 0.0
C302 C 0.92828 0.95765 0.95445 0.0
C303 C 0.93445 0.98846 0.94803 0.0
C304 C 0.97166 1.0001 0.95719 0.0
C305 C 0.00231 0.98212 0.97182 0.0
C306 C 0.03873 1.00048 0.98251 0.0
C307 C 0.0517 0.9967 0.036 0.0
C308 C 0.07193 0.99238 0.94704 0.0
C309 C 0.0235 0.03177 0.97295 0.0
C310 C 0.98481 0.03093 0.95795 0.0
C311 C 0.96337 0.05694 0.95028 0.0
C312 C 0.98161 0.08449 0.95903 0.0
C313 C 0.02097 0.08595 0.97515 0.0
C314 C 0.04245 0.05924 0.98118 0.0
H315 H 0.07828 0.95636 0.49707 0.0
H316 H 0.97993 0.91173 0.56529 0.0
H317 H 0.94888 0.96057 0.58152 0.0
H318 H 0.07794 0.02501 0.57571 0.0
H319 H 0.08927 0.04927 0.52512 0.0
H320 H 0.10678 0.01124 0.52538 0.0
H321 H 0.07374 1.00216 0.44151 0.0
H322 H 0.05588 0.04002 0.44116 0.0
H323 H 0.0221 0.00928 0.43467 0.0
H324 H 0.92536 0.01309 0.58344 0.0
H325 H 0.91042 0.06644 0.57052 0.0
H326 H 0.02253 0.07815 0.49851 0.0
C327 C 0.05086 0.95711 0.51683 0.0
C328 C 0.03171 0.93045 0.53086 0.0
C329 C 0.99514 0.93203 0.55488 0.0
C330 C 0.97733 0.95964 0.56427 0.0
C331 C 0.99628 0.98556 0.54895 0.0
C332 C 0.03225 0.98467 0.52581 0.0
C333 C 0.04432 0.01575 0.50913 0.0
C334 C 0.0818 0.02592 0.53541 0.0
C335 C 0.04929 0.01685 0.45331 0.0
C336 C 0.00918 0.03398 0.52557 0.0
C337 C 0.9821 0.01611 0.54898 0.0
C338 C 0.94653 0.02741 0.56564 0.0
C339 C 0.93825 0.05777 0.558 0.0
C340 C 0.96528 0.07656 0.53363 0.0
C341 C 0.00138 0.06445 0.51763 0.0
H342 H 0.48787 0.57682 0.02879 0.0
H343 H 0.60902 0.5651 0.98488 0.0
H344 H 0.59707 0.51147 0.97151 0.0
H345 H 0.47953 0.50811 0.09424 0.0
H346 H 0.42993 0.50055 0.07547 0.0
H347 H 0.44712 0.53856 0.07929 0.0
H348 H 0.42718 0.54714 0.98911 0.0
H349 H 0.41012 0.50906 0.98493 0.0
H350 H 0.44613 0.52271 0.94235 0.0
H351 H 0.57411 0.45922 0.96711 0.0
H352 H 0.54131 0.41032 0.97356 0.0
H353 H 0.43399 0.45427 0.01832 0.0
C354 C 0.51178 0.56297 0.01611 0.0
C355 C 0.54943 0.57525 0.00788 0.0
C356 C 0.57996 0.55632 0.99148 0.0
C357 C 0.57344 0.52578 0.98358 0.0
C358 C 0.53616 0.51438 0.992 0.0
C359 C 0.50576 0.53224 0.00791 0.0
C360 C 0.46891 0.51378 0.01578 0.0
C361 C 0.4556 0.51535 0.06938 0.0
C362 C 0.43615 0.52377 0.98096 0.0
C363 C 0.48368 0.48273 0.00263 0.0
C364 C 0.52255 0.4838 0.98876 0.0
C365 C 0.54357 0.45808 0.9774 0.0
C366 C 0.52469 0.43041 0.98121 0.0
C367 C 0.48508 0.42855 -0.00403 0.0
C368 C 0.46406 0.45513 0.00595 0.0
H369 H 0.47816 0.43031 0.50457 0.0
H370 H 0.59628 0.44154 0.56034 0.0
H371 H 0.58645 0.49605 0.5638 0.0
H372 H 0.47731 0.49416 0.42841 0.0
H373 H 0.42724 0.50433 0.44066 0.0
H374 H 0.44224 0.46583 0.4452 0.0
H375 H 0.41668 0.46372 0.53415 0.0
H376 H 0.40142 0.50221 0.52983 0.0
H377 H 0.43398 0.49073 0.57811 0.0
H378 H 0.56666 0.54903 0.55471 0.0
H379 H 0.5364 0.59798 0.53844 0.0
H380 H 0.42946 0.55385 0.49208 0.0
C381 C 0.50175 0.44423 0.51812 0.0
C382 C 0.53804 0.43159 0.53221 0.0
C383 C 0.56822 0.4506 0.54946 0.0
C384 C 0.56293 0.48164 0.55155 0.0
C385 C 0.52714 0.49342 0.53674 0.0
C386 C 0.49684 0.47539 0.52086 0.0
C387 C 0.46163 0.49409 0.50608 0.0
C388 C 0.45153 0.48931 0.45187 0.0
C389 C 0.42634 0.48728 0.53901 0.0
C390 C 0.47726 0.52543 0.5152 0.0
C391 C 0.51517 0.52436 0.53282 0.0
C392 C 0.53684 0.55018 0.54153 0.0
C393 C 0.51944 0.57788 0.53193 0.0
C394 C 0.48056 0.5797 0.51423 0.0
C395 C 0.45904 0.5531 0.50625 0.0
H396 H 0.07269 0.17837 0.18377 0.0
H397 H 0.96347 0.18469 0.10429 0.0
H398 H 0.92749 0.19069 0.18187 0.0
H399 H 0.03142 0.13268 0.27893 0.0
H400 H 0.06203 0.14822 0.32623 0.0
H401 H 0.07916 0.14722 0.26409 0.0
H402 H 0.09143 0.20391 0.26758 0.0
H403 H 0.07306 0.20588 0.32916 0.0
H404 H 0.05172 0.22873 0.28173 0.0
H405 H 0.90294 0.19212 0.26716 0.0
H406 H 0.89075 0.18575 0.35563 0.0
H407 H 0.01544 0.17864 0.38138 0.0
C408 C 0.04131 0.1817 0.18295 0.0
C409 C 0.02092 0.18303 0.13821 0.0
C410 C 0.97969 0.1855 0.13826 0.0
C411 C 0.95904 0.18863 0.1821 0.0
C412 C 0.98003 0.18835 0.22569 0.0
C413 C 0.02014 0.18435 0.22658 0.0
C414 C 0.03503 0.1817 0.27852 0.0
C415 C 0.05295 0.15061 0.28745 0.0
C416 C 0.06457 0.20656 0.29002 0.0
C417 C 0.99714 0.18558 0.30674 0.0
C418 C 0.96575 0.18915 0.27538 0.0
C419 C 0.92728 0.18996 0.29221 0.0
C420 C 0.92059 0.18635 0.34233 0.0
C421 C 0.95221 0.18277 0.37502 0.0
C422 C 0.99096 0.18267 0.35712 0.0
H423 H 0.98597 0.83366 0.36939 0.0
H424 H 0.11101 0.82724 0.34588 0.0
H425 H 0.1003 0.82657 0.25654 0.0
H426 H 0.9523 0.78872 0.26374 0.0
H427 H 0.9124 0.8136 0.25055 0.0
H428 H 0.92928 0.80957 0.31247 0.0
H429 H 0.93994 0.86654 0.31805 0.0
H430 H 0.92367 0.87083 0.25588 0.0
H431 H 0.97099 0.8848 0.274 0.0
H432 H 0.0773 0.83511 0.17162 0.0
H433 H 0.04188 0.84254 0.09378 0.0
H434 H 0.93141 0.8413 0.17103 0.0
C435 C 0.01081 0.83082 0.34527 0.0
C436 C 0.04924 0.82955 0.36399 0.0
C437 C 0.08138 0.82755 0.33176 0.0
C438 C 0.07557 0.82731 0.28118 0.0
C439 C 0.03745 0.82962 0.26365 0.0
C440 C 0.00548 0.83092 0.29455 0.0
C441 C 0.96798 0.83599 0.26605 0.0
C442 C 0.93876 0.8104 0.27372 0.0
C443 C 0.94958 0.86634 0.27929 0.0
C444 C 0.98376 0.83622 0.21444 0.0
C445 C 0.02402 0.83339 0.21406 0.0
C446 C 0.04566 0.83605 0.17123 0.0
C447 C 0.02539 0.83999 0.12728 0.0
C448 C 0.98406 0.84023 0.12648 0.0
C449 C 0.96302 0.83956 0.17071 0.0
H450 H 0.01586 0.85583 0.64265 0.0
H451 H 0.00383 0.76076 0.61299 0.0
H452 H 0.98627 0.75208 0.69906 0.0
H453 H 0.05887 0.84936 0.75919 0.0
H454 H 0.03318 0.88062 0.78567 0.0
H455 H 0.04284 0.87984 0.72106 0.0
H456 H 0.96888 0.88629 0.70307 0.0
H457 H 0.95899 0.88728 0.7677 0.0
H458 H 0.93428 0.86044 0.72933 0.0
H459 H 0.97617 0.7529 0.78888 0.0
H460 H 0.96814 0.76377 0.87665 0.0
H461 H 0.98308 0.85856 0.84788 0.0
C462 C 0.00922 0.83322 0.65418 0.0
C463 C 0.01136 0.80895 0.62115 0.0
C464 C 0.00223 0.77972 0.63757 0.0
C465 C 0.99232 0.77453 0.68641 0.0
C466 C 0.99111 0.79886 0.71813 0.0
C467 C 0.99874 0.82768 0.70267 0.0
C468 C 0.99575 0.84978 0.74449 0.0
C469 C 0.035 0.86583 0.7531 0.0
C470 C 0.96249 0.87227 0.73561 0.0
C471 C 0.98609 0.82873 0.78605 0.0
C472 C 0.98374 0.79946 0.76998 0.0
C473 C 0.97738 0.77575 0.80188 0.0
C474 C 0.97312 0.78213 0.85161 0.0
C475 C 0.97482 0.81199 0.8688 0.0
C476 C 0.98113 0.83558 0.83551 0.0
H477 H 0.01699 0.16024 0.86313 0.0
H478 H 0.02591 0.25617 0.88555 0.0
H479 H 0.01563 0.26436 0.79737 0.0
H480 H 0.06501 0.157 0.74628 0.0
H481 H 0.0325 0.12909 0.72142 0.0
H482 H 0.04159 0.13043 0.78622 0.0
H483 H 0.96717 0.13477 0.80266 0.0
H484 H 0.95782 0.13323 0.73796 0.0
H485 H 0.93959 0.16415 0.77359 0.0
H486 H 0.00687 0.26226 0.70759 0.0
H487 H 0.99242 0.25075 0.62172 0.0
H488 H 0.98505 0.15614 0.65697 0.0
C489 C 0.01684 0.18295 0.84937 0.0
C490 C 0.02243 0.20761 0.88099 0.0
C491 C 0.02151 0.23701 0.86192 0.0
C492 C 0.01595 0.24186 0.81191 0.0
C493 C 0.01084 0.2171 0.78167 0.0
C494 C 0.0106 0.18824 0.79962 0.0
C495 C 0.00272 0.16572 0.75932 0.0
C496 C 0.03754 0.1443 0.75294 0.0
C497 C 0.96455 0.14846 0.76897 0.0
C498 C 0.99869 0.18649 0.71591 0.0
C499 C 0.00405 0.21596 0.7297 0.0
C500 C 0.00242 0.2393 0.6963 0.0
C501 C 0.99438 0.23245 0.64749 0.0
C502 C 0.98755 0.20251 0.63252 0.0
C503 C 0.99001 0.17923 0.66729 0.0
H504 H 0.48529 0.68982 0.13538 0.0
H505 H 0.60869 0.70253 0.16416 0.0
H506 H 0.59423 0.713 0.25078 0.0
H507 H 0.4447 0.7437 0.23296 0.0
H508 H 0.40614 0.71781 0.24742 0.0
H509 H 0.4245 0.71978 0.18588 0.0
H510 H 0.4383 0.66293 0.18824 0.0
H511 H 0.42079 0.66108 0.25002 0.0
H512 H 0.46934 0.64806 0.23563 0.0
H513 H 0.56946 0.70987 0.33487 0.0
H514 H 0.53469 0.69725 0.41105 0.0
H515 H 0.42634 0.68812 0.33067 0.0
C516 C 0.50881 0.69648 0.15959 0.0
C517 C 0.54794 0.69664 0.14308 0.0
C518 C 0.57849 0.7033 0.17612 0.0
C519 C 0.5705 0.70928 0.22528 0.0
C520 C 0.53179 0.70799 0.24106 0.0
C521 C 0.50125 0.70209 0.20918 0.0
C522 C 0.46337 0.69695 0.23698 0.0
C523 C 0.43291 0.72104 0.22501 0.0
C524 C 0.44703 0.66538 0.22713 0.0
C525 C 0.47767 0.70005 0.28912 0.0
C526 C 0.51718 0.70661 0.29062 0.0
C527 C 0.53815 0.70627 0.33431 0.0
C528 C 0.51814 0.69942 0.37751 0.0
C529 C 0.47742 0.69398 0.37704 0.0
C530 C 0.45707 0.69398 0.3322 0.0
H531 H 0.48384 0.32764 0.38912 0.0
H532 H 0.6084 0.31859 0.36447 0.0
H533 H 0.59648 0.3123 0.27589 0.0
H534 H 0.44616 0.27881 0.28769 0.0
H535 H 0.40754 0.30482 0.27464 0.0
H536 H 0.42598 0.30154 0.3361 0.0
H537 H 0.43902 0.35888 0.3354 0.0
H538 H 0.42231 0.36135 0.2732 0.0
H539 H 0.47057 0.3744 0.28914 0.0
H540 H 0.57237 0.31354 0.19043 0.0
H541 H 0.53725 0.32184 0.11268 0.0
H542 H 0.42832 0.33217 0.19158 0.0
C543 C 0.5083 0.32313 0.36507 0.0
C544 C 0.5469 0.32238 0.38325 0.0
C545 C 0.57862 0.31838 0.35089 0.0
C546 C 0.57208 0.31475 0.30074 0.0
C547 C 0.53371 0.31609 0.2836 0.0
C548 C 0.50229 0.32031 0.31469 0.0
C549 C 0.46482 0.32552 0.28624 0.0
C550 C 0.43432 0.3012 0.2969 0.0
C551 C 0.44823 0.3569 0.29662 0.0
C552 C 0.48 0.32315 0.23449 0.0
C553 C 0.51981 0.31766 0.23383 0.0
C554 C 0.54102 0.31694 0.19044 0.0
C555 C 0.52087 0.32144 0.14653 0.0
C556 C 0.47995 0.32599 0.14637 0.0
C557 C 0.45941 0.32746 0.19089 0.0
H558 H 0.47777 0.35161 0.86899 0.0
H559 H 0.45971 0.2565 0.89274 0.0
H560 H 0.47304 0.24684 0.8058 0.0
H561 H 0.43477 0.35489 0.74722 0.0
H562 H 0.47035 0.38129 0.72481 0.0
H563 H 0.45736 0.38115 0.78858 0.0
H564 H 0.53036 0.37459 0.81183 0.0
H565 H 0.54356 0.3746 0.74817 0.0
H566 H 0.55762 0.34371 0.7866 0.0
H567 H 0.48948 0.24699 0.71781 0.0
H568 H 0.50947 0.25667 0.63317 0.0
H569 H 0.51864 0.35167 0.66562 0.0
C570 C 0.47615 0.32879 0.85578 0.0
C571 C 0.46754 0.30481 0.88768 0.0
C572 C 0.46631 0.27523 0.86908 0.0
C573 C 0.47373 0.2695 0.81971 0.0
C574 C 0.48249 0.29355 0.78943 0.0
C575 C 0.48383 0.3226 0.80658 0.0
C576 C 0.49548 0.34417 0.76643 0.0
C577 C 0.46252 0.3667 0.75616 0.0
C578 C 0.53405 0.3602 0.77902 0.0
C579 C 0.50071 0.3226 0.72419 0.0
C580 C 0.49278 0.29358 0.73835 0.0
C581 C 0.49571 0.26962 0.70616 0.0
C582 C 0.50712 0.27542 0.65808 0.0
C583 C 0.51573 0.30496 0.64254 0.0
C584 C 0.51237 0.32884 0.67625 0.0
H585 H 0.52101 0.73073 0.86359 0.0
H586 H 0.53996 0.63518 0.88229 0.0
H587 H 0.52174 0.62661 0.79711 0.0
H588 H 0.43737 0.72411 0.78272 0.0
H589 H 0.45118 0.75507 0.74429 0.0
H590 H 0.46562 0.75461 0.80761 0.0
H591 H 0.53817 0.76076 0.78225 0.0
H592 H 0.52394 0.76126 0.71887 0.0
H593 H 0.55953 0.73448 0.73999 0.0
H594 H 0.50088 0.62699 0.71241 0.0
H595 H 0.47999 0.63653 0.62845 0.0
H596 H 0.47529 0.73199 0.65882 0.0
C597 C 0.52131 0.70805 0.84968 0.0
C598 C 0.53209 0.68369 0.88001 0.0
C599 C 0.53214 0.65434 0.86018 0.0
C600 C 0.5217 0.64913 0.81167 0.0
C601 C 0.51136 0.67343 0.78291 0.0
C602 C 0.51118 0.70234 0.80069 0.0
C603 C 0.49907 0.72418 0.7608 0.0
C604 C 0.46105 0.74045 0.7747 0.0
C605 C 0.53216 0.74649 0.74984 0.0
C606 C 0.49254 0.70284 0.7182 0.0
C607 C 0.49966 0.67371 0.73237 0.0
C608 C 0.4952 0.64968 0.7007 0.0
C609 C 0.48308 0.65542 0.653 0.0
C610 C 0.47568 0.68503 0.63688 0.0
C611 C 0.48076 0.70914 0.66999 0.0
H612 H 0.3426 0.25167 0.06243 0.0
H613 H 0.32267 0.3343 0.98292 0.0
H614 H 0.25488 0.31838 0.96591 0.0
H615 H 0.28543 0.20332 0.98575 0.0
H616 H 0.26564 0.18152 0.03526 0.0
H617 H 0.31293 0.19897 0.04152 0.0
H618 H 0.2899 0.22622 0.1199 0.0
H619 H 0.24276 0.20847 0.11434 0.0
H620 H 0.24611 0.24865 0.11804 0.0
H621 H 0.19093 0.29338 0.95483 0.0
H622 H 0.13033 0.26402 0.95945 0.0
H623 H 0.18903 0.19758 0.0488 0.0
C624 C 0.3239 0.2665 0.04163 0.0
C625 C 0.33807 0.29428 0.02386 0.0
C626 C 0.31253 0.31307 -0.00284 0.0
C627 C 0.27406 0.30409 0.98696 0.0
C628 C 0.26137 0.27638 0.00412 0.0
C629 C 0.28516 0.25805 0.03164 0.0
C630 C 0.26345 0.2299 0.04723 0.0
C631 C 0.28304 0.20176 0.02617 0.0
C632 C 0.26037 0.22822 0.1032 0.0
C633 C 0.22371 0.23525 0.02393 0.0
C634 C 0.22359 0.26211 -0.00117 0.0
C635 C 0.19058 0.27243 0.97457 0.0
C636 C 0.1563 0.25549 0.97739 0.0
C637 C 0.15486 0.22851 0.00457 0.0
C638 C 0.18936 0.21786 0.02724 0.0
H639 H 0.66075 0.76794 0.02078 0.0
H640 H 0.68993 0.67556 0.98706 0.0
H641 H 0.75932 0.68924 0.98107 0.0
H642 H 0.73401 0.80242 0.94073 0.0
H643 H 0.74542 0.83211 0.98304 0.0
H644 H 0.69716 0.8158 0.98247 0.0
H645 H 0.70335 0.8038 0.07463 0.0
H646 H 0.75163 0.82001 0.07548 0.0
H647 H 0.74439 0.7821 0.09594 0.0
H648 H 0.82474 0.71118 0.98188 0.0
H649 H 0.88477 0.74061 0.98862 0.0
H650 H 0.81645 0.82008 0.02204 0.0
C651 C 0.6817 0.75068 0.0116 0.0
C652 C 0.66968 0.72059 0.0044 0.0
C653 C 0.69819 0.69868 0.99296 0.0
C654 C 0.73777 0.70624 0.98932 0.0
C655 C 0.74866 0.73584 -0.00277 0.0
C656 C 0.72169 0.75782 0.00805 0.0
C657 C 0.74203 0.78773 0.01644 0.0
C658 C 0.72886 0.81088 0.97839 0.0
C659 C 0.73492 0.79907 0.06874 0.0
C660 C 0.78459 0.7789 0.00891 0.0
C661 C 0.78733 0.7488 -0.00221 0.0
C662 C 0.82305 0.73479 0.99039 0.0
C663 C 0.8571 0.75182 0.9946 0.0
C664 C 0.85561 0.78278 0.00613 0.0
C665 C 0.81865 0.79656 0.01296 0.0
H666 H 0.19207 0.81581 0.48931 0.0
H667 H 0.12325 0.7396 0.53731 0.0
H668 H 0.18293 0.70954 0.54473 0.0
H669 H 0.25868 0.77498 0.41705 0.0
H670 H 0.30143 0.79654 0.43294 0.0
H671 H 0.25375 0.81363 0.43491 0.0
H672 H 0.26467 0.82851 0.52536 0.0
H673 H 0.31262 0.81179 0.52348 0.0
H674 H 0.27785 0.80017 0.56916 0.0
H675 H 0.24823 0.68572 0.5392 0.0
H676 H 0.31741 0.67117 0.52865 0.0
H677 H 0.3458 0.76247 0.48768 0.0
C678 C 0.18977 0.79305 0.50248 0.0
C679 C 0.15283 0.78011 0.51248 0.0
C680 C 0.15107 0.75003 0.52895 0.0
C681 C 0.18486 0.73268 0.53341 0.0
C682 C 0.22057 0.74563 0.52171 0.0
C683 C 0.22354 0.77521 0.5073 0.0
C684 C 0.26576 0.78303 0.4956 0.0
C685 C 0.27014 0.79261 0.44194 0.0
C686 C 0.28113 0.80731 0.53049 0.0
C687 C 0.28559 0.75315 0.50495 0.0
C688 C 0.25887 0.73189 0.5198 0.0
C689 C 0.26964 0.70225 0.52825 0.0
C690 C 0.30895 0.69413 0.52187 0.0
C691 C 0.33713 0.71562 0.50762 0.0
C692 C 0.32509 0.74554 0.49914 0.0
H693 H 0.65356 0.24296 0.48818 0.0
H694 H 0.67447 0.32515 0.56897 0.0
H695 H 0.74258 0.3096 0.58358 0.0
H696 H 0.71616 0.19426 0.56249 0.0
H697 H 0.73383 0.1734 0.51062 0.0
H698 H 0.68558 0.18967 0.5093 0.0
H699 H 0.70293 0.2179 0.42963 0.0
H700 H 0.75108 0.2016 0.43056 0.0
H701 H 0.74557 0.24167 0.42827 0.0
H702 H 0.80867 0.28722 0.58579 0.0
H703 H 0.8705 0.26026 0.57226 0.0
H704 H 0.80855 0.19206 0.48989 0.0
C705 C 0.67232 0.25752 0.50946 0.0
C706 C 0.65849 0.28528 0.52758 0.0
C707 C 0.68426 0.30385 0.5546 0.0
C708 C 0.72299 0.29513 0.56336 0.0
C709 C 0.73569 0.26778 0.54483 0.0
C710 C 0.7113 0.24926 0.51827 0.0
C711 C 0.73326 0.22191 0.49994 0.0
C712 C 0.71618 0.1931 0.52191 0.0
C713 C 0.7332 0.22071 0.44377 0.0
C714 C 0.77393 0.22822 0.51984 0.0
C715 C 0.77438 0.25472 0.54597 0.0
C716 C 0.80865 0.26631 0.56582 0.0
C717 C 0.84362 0.25084 0.55788 0.0
C718 C 0.84424 0.22397 0.53038 0.0
C719 C 0.80876 0.21219 0.51193 0.0
loop_
_geom_bond_atom_site_label_1
_geom_bond_atom_site_label_2
_geom_bond_distance
_geom_bond_site_symmetry_2
_ccdc_geom_bond_type
Mn0 O5 2.095 1_554 S
Mn0 O15 2.162 . S
Mn0 O16 2.297 . S
Mn0 O24 2.385 . S
Mn0 O25 2.209 . S
Mn0 O26 2.094 . S
Mn1 O6 2.121 1_554 S
Mn1 N8 2.257 1_455 S
Mn1 N17 2.282 . S
Mn1 O25 2.215 . S
Mn1 O27 2.117 . S
C2 O24 1.234 . S
C2 O25 1.283 . S
C3 O15 1.281 . S
C3 O16 1.236 . S
C4 O26 1.240 . S
C4 O27 1.264 . S
O5 Mn0 2.095 1_556 S
O5 C14 1.250 . S
O6 Mn1 2.121 1_556 S
O6 C14 1.258 . S
C7 N8 1.326 . S
C7 C11 1.460 . S
C7 H13 0.929 1_554 S
N8 Mn1 2.257 1_655 S
N8 C7 1.326 . S
N8 C12 1.362 . S
C9 C10 1.258 . S
C9 C12 1.431 . S
C9 C29 1.449 . S
C10 C9 1.258 . S
C10 C11 1.477 . S
C10 H30 0.931 . S
C11 C7 1.460 . S
C11 C10 1.477 . S
C11 H31 0.930 . S
C12 N8 1.362 . S
C12 C9 1.431 . S
C12 C22 1.476 1_655 S
H13 C7 0.929 1_556 S
C14 O5 1.250 . S
C14 O6 1.258 . S
O15 Mn0 2.162 . S
O15 C3 1.281 . S
O16 Mn0 2.297 . S
O16 C3 1.236 . S
N17 Mn1 2.282 . S
N17 C18 1.328 . S
N17 C22 1.318 . S
C18 N17 1.328 . S
C18 C19 1.457 . S
C18 H23 0.929 . S
C19 C18 1.457 . S
C19 C20 1.291 . S
C19 H32 0.931 . S
C20 C19 1.291 . S
C20 C21 1.373 . S
C20 H33 0.929 . S
C21 C20 1.373 . S
C21 C22 1.396 . S
C21 C28 1.403 1_455 S
C22 C12 1.476 1_455 S
C22 N17 1.318 . S
C22 C21 1.396 . S
H23 C18 0.929 . S
O24 Mn0 2.385 . S
O24 C2 1.234 . S
O25 Mn0 2.209 . S
O25 Mn1 2.215 . S
O25 C2 1.283 . S
O26 Mn0 2.094 . S
O26 C4 1.240 . S
O27 Mn1 2.117 . S
O27 C4 1.264 . S
C28 C21 1.403 1_655 S
C28 C29 1.399 . S
C28 H34 0.929 . S
C29 C9 1.449 . S
C29 C28 1.399 . S
C29 H35 0.930 . S
H30 C10 0.931 . S
H31 C11 0.930 . S
H32 C19 0.931 . S
H33 C20 0.929 . S
H34 C28 0.929 . S
H35 C29 0.930 . S
Mn36 O41 2.095 1_554 S
Mn36 O51 2.162 . S
Mn36 O52 2.297 . S
Mn36 O60 2.385 . S
Mn36 O61 2.209 . S
Mn36 O62 2.094 . S
Mn37 O42 2.121 1_554 S
Mn37 N44 2.257 1_655 S
Mn37 N53 2.282 . S
Mn37 O61 2.215 . S
Mn37 O63 2.117 . S
C38 O60 1.234 . S
C38 O61 1.283 . S
C39 O51 1.281 . S
C39 O52 1.236 . S
C40 O62 1.240 . S
C40 O63 1.264 . S
O41 Mn36 2.095 1_556 S
O41 C50 1.250 . S
O42 Mn37 2.121 1_556 S
O42 C50 1.258 . S
C43 N44 1.326 . S
C43 C47 1.460 . S
C43 H49 0.929 1_554 S
N44 Mn37 2.257 1_455 S
N44 C43 1.326 . S
N44 C48 1.362 . S
C45 C46 1.258 . S
C45 C48 1.431 . S
C45 C65 1.449 . S
C46 C45 1.258 . S
C46 C47 1.477 . S
C46 H66 0.931 . S
C47 C43 1.460 . S
C47 C46 1.477 . S
C47 H67 0.930 . S
C48 N44 1.362 . S
C48 C45 1.431 . S
C48 C58 1.476 1_455 S
H49 C43 0.929 1_556 S
C50 O41 1.250 . S
C50 O42 1.258 . S
O51 Mn36 2.162 . S
O51 C39 1.281 . S
O52 Mn36 2.297 . S
O52 C39 1.236 . S
N53 Mn37 2.282 . S
N53 C54 1.328 . S
N53 C58 1.318 . S
C54 N53 1.328 . S
C54 C55 1.457 . S
C54 H59 0.929 . S
C55 C54 1.457 . S
C55 C56 1.291 . S
C55 H68 0.931 . S
C56 C55 1.291 . S
C56 C57 1.373 . S
C56 H69 0.929 . S
C57 C56 1.373 . S
C57 C58 1.396 . S
C57 C64 1.403 1_655 S
C58 C48 1.476 1_655 S
C58 N53 1.318 . S
C58 C57 1.396 . S
H59 C54 0.929 . S
O60 Mn36 2.385 . S
O60 C38 1.234 . S
O61 Mn36 2.209 . S
O61 Mn37 2.215 . S
O61 C38 1.283 . S
O62 Mn36 2.094 . S
O62 C40 1.240 . S
O63 Mn37 2.117 . S
O63 C40 1.264 . S
C64 C57 1.403 1_455 S
C64 C65 1.399 . S
C64 H70 0.929 . S
C65 C45 1.449 . S
C65 C64 1.399 . S
C65 H71 0.930 . S
H66 C46 0.931 . S
H67 C47 0.930 . S
H68 C55 0.931 . S
H69 C56 0.929 . S
H70 C64 0.929 . S
H71 C65 0.930 . S
Mn72 O77 2.095 . S
Mn72 O87 2.162 . S
Mn72 O88 2.297 . S
Mn72 O96 2.385 . S
Mn72 O97 2.209 . S
Mn72 O98 2.094 . S
Mn73 O78 2.121 . S
Mn73 N80 2.257 1_455 S
Mn73 N89 2.282 . S
Mn73 O97 2.215 . S
Mn73 O99 2.117 . S
C74 O96 1.234 . S
C74 O97 1.283 . S
C75 O87 1.281 . S
C75 O88 1.236 . S
C76 O98 1.240 . S
C76 O99 1.264 . S
O77 Mn72 2.095 . S
O77 C86 1.250 . S
O78 Mn73 2.121 . S
O78 C86 1.258 . S
C79 N80 1.326 . S
C79 C83 1.460 . S
C79 H85 0.929 . S
N80 Mn73 2.257 1_655 S
N80 C79 1.326 . S
N80 C84 1.362 . S
C81 C82 1.258 . S
C81 C84 1.431 . S
C81 C101 1.449 . S
C82 C81 1.258 . S
C82 C83 1.477 . S
C82 H102 0.931 . S
C83 C79 1.460 . S
C83 C82 1.477 . S
C83 H103 0.930 . S
C84 N80 1.362 . S
C84 C81 1.431 . S
C84 C94 1.476 1_655 S
H85 C79 0.929 . S
C86 O77 1.250 . S
C86 O78 1.258 . S
O87 Mn72 2.162 . S
O87 C75 1.281 . S
O88 Mn72 2.297 . S
O88 C75 1.236 . S
N89 Mn73 2.282 . S
N89 C90 1.328 . S
N89 C94 1.318 . S
C90 N89 1.328 . S
C90 C91 1.457 . S
C90 H95 0.929 . S
C91 C90 1.457 . S
C91 C92 1.291 . S
C91 H104 0.931 . S
C92 C91 1.291 . S
C92 C93 1.373 . S
C92 H105 0.929 . S
C93 C92 1.373 . S
C93 C94 1.396 . S
C93 C100 1.403 1_455 S
C94 C84 1.476 1_455 S
C94 N89 1.318 . S
C94 C93 1.396 . S
H95 C90 0.929 . S
O96 Mn72 2.385 . S
O96 C74 1.234 . S
O97 Mn72 2.209 . S
O97 Mn73 2.215 . S
O97 C74 1.283 . S
O98 Mn72 2.094 . S
O98 C76 1.240 . S
O99 Mn73 2.117 . S
O99 C76 1.264 . S
C100 C93 1.403 1_655 S
C100 C101 1.399 . S
C100 H106 0.929 . S
C101 C81 1.449 . S
C101 C100 1.399 . S
C101 H107 0.930 . S
H102 C82 0.931 . S
H103 C83 0.930 . S
H104 C91 0.931 . S
H105 C92 0.929 . S
H106 C100 0.929 . S
H107 C101 0.930 . S
Mn108 O113 2.095 . S
Mn108 O123 2.162 . S
Mn108 O124 2.297 . S
Mn108 O132 2.385 . S
Mn108 O133 2.209 . S
Mn108 O134 2.094 . S
Mn109 O114 2.121 . S
Mn109 N116 2.257 1_655 S
Mn109 N125 2.282 . S
Mn109 O133 2.215 . S
Mn109 O135 2.117 . S
C110 O132 1.234 . S
C110 O133 1.283 . S
C111 O123 1.281 . S
C111 O124 1.236 . S
C112 O134 1.240 . S
C112 O135 1.264 . S
O113 Mn108 2.095 . S
O113 C122 1.250 . S
O114 Mn109 2.121 . S
O114 C122 1.258 . S
C115 N116 1.326 . S
C115 C119 1.460 . S
C115 H121 0.929 . S
N116 Mn109 2.257 1_455 S
N116 C115 1.326 . S
N116 C120 1.362 . S
C117 C118 1.258 . S
C117 C120 1.431 . S
C117 C137 1.449 . S
C118 C117 1.258 . S
C118 C119 1.477 . S
C118 H138 0.931 . S
C119 C115 1.460 . S
C119 C118 1.477 . S
C119 H139 0.930 . S
C120 N116 1.362 . S
C120 C117 1.431 . S
C120 C130 1.476 1_455 S
H121 C115 0.929 . S
C122 O113 1.250 . S
C122 O114 1.258 . S
O123 Mn108 2.162 . S
O123 C111 1.281 . S
O124 Mn108 2.297 . S
O124 C111 1.236 . S
N125 Mn109 2.282 . S
N125 C126 1.328 . S
N125 C130 1.318 . S
C126 N125 1.328 . S
C126 C127 1.457 . S
C126 H131 0.929 . S
C127 C126 1.457 . S
C127 C128 1.291 . S
C127 H140 0.931 . S
C128 C127 1.291 . S
C128 C129 1.373 . S
C128 H141 0.929 . S
C129 C128 1.373 . S
C129 C130 1.396 . S
C129 C136 1.403 1_655 S
C130 C120 1.476 1_655 S
C130 N125 1.318 . S
C130 C129 1.396 . S
H131 C126 0.929 . S
O132 Mn108 2.385 . S
O132 C110 1.234 . S
O133 Mn108 2.209 . S
O133 Mn109 2.215 . S
O133 C110 1.283 . S
O134 Mn108 2.094 . S
O134 C112 1.240 . S
O135 Mn109 2.117 . S
O135 C112 1.264 . S
C136 C129 1.403 1_455 S
C136 C137 1.399 . S
C136 H142 0.929 . S
C137 C117 1.449 . S
C137 C136 1.399 . S
C137 H143 0.930 . S
H138 C118 0.931 . S
H139 C119 0.930 . S
H140 C127 0.931 . S
H141 C128 0.929 . S
H142 C136 0.929 . S
H143 C137 0.930 . S
Mn144 O149 2.095 1_554 S
Mn144 O159 2.162 . S
Mn144 O160 2.297 . S
Mn144 O168 2.385 . S
Mn144 O169 2.209 . S
Mn144 O170 2.094 . S
Mn145 O150 2.121 1_554 S
Mn145 N152 2.257 . S
Mn145 N161 2.282 . S
Mn145 O169 2.215 . S
Mn145 O171 2.117 . S
C146 O168 1.234 . S
C146 O169 1.283 . S
C147 O159 1.281 . S
C147 O160 1.236 . S
C148 O170 1.240 . S
C148 O171 1.264 . S
O149 Mn144 2.095 1_556 S
O149 C158 1.250 . S
O150 Mn145 2.121 1_556 S
O150 C158 1.258 . S
C151 N152 1.326 . S
C151 C155 1.460 . S
C151 H157 0.929 1_554 S
N152 Mn145 2.257 . S
N152 C151 1.326 . S
N152 C156 1.362 . S
C153 C154 1.258 . S
C153 C156 1.431 . S
C153 C173 1.449 . S
C154 C153 1.258 . S
C154 C155 1.477 . S
C154 H174 0.931 . S
C155 C151 1.460 . S
C155 C154 1.477 . S
C155 H175 0.930 . S
C156 N152 1.362 . S
C156 C153 1.431 . S
C156 C166 1.476 . S
H157 C151 0.929 1_556 S
C158 O149 1.250 . S
C158 O150 1.258 . S
O159 Mn144 2.162 . S
O159 C147 1.281 . S
O160 Mn144 2.297 . S
O160 C147 1.236 . S
N161 Mn145 2.282 . S
N161 C162 1.328 . S
N161 C166 1.318 . S
C162 N161 1.328 . S
C162 C163 1.457 . S
C162 H167 0.929 . S
C163 C162 1.457 . S
C163 C164 1.291 . S
C163 H176 0.931 . S
C164 C163 1.291 . S
C164 C165 1.373 . S
C164 H177 0.929 . S
C165 C164 1.373 . S
C165 C166 1.396 . S
C165 C172 1.403 . S
C166 C156 1.476 . S
C166 N161 1.318 . S
C166 C165 1.396 . S
H167 C162 0.929 . S
O168 Mn144 2.385 . S
O168 C146 1.234 . S
O169 Mn144 2.209 . S
O169 Mn145 2.215 . S
O169 C146 1.283 . S
O170 Mn144 2.094 . S
O170 C148 1.240 . S
O171 Mn145 2.117 . S
O171 C148 1.264 . S
C172 C165 1.403 . S
C172 C173 1.399 . S
C172 H178 0.929 . S
C173 C153 1.449 . S
C173 C172 1.399 . S
C173 H179 0.930 . S
H174 C154 0.931 . S
H175 C155 0.930 . S
H176 C163 0.931 . S
H177 C164 0.929 . S
H178 C172 0.929 . S
H179 C173 0.930 . S
Mn180 O185 2.095 1_554 S
Mn180 O195 2.162 . S
Mn180 O196 2.297 . S
Mn180 O204 2.385 . S
Mn180 O205 2.209 . S
Mn180 O206 2.094 . S
Mn181 O186 2.121 1_554 S
Mn181 N188 2.257 . S
Mn181 N197 2.282 . S
Mn181 O205 2.215 . S
Mn181 O207 2.117 . S
C182 O204 1.234 . S
C182 O205 1.283 . S
C183 O195 1.281 . S
C183 O196 1.236 . S
C184 O206 1.240 . S
C184 O207 1.264 . S
O185 Mn180 2.095 1_556 S
O185 C194 1.250 . S
O186 Mn181 2.121 1_556 S
O186 C194 1.258 . S
C187 N188 1.326 . S
C187 C191 1.460 . S
C187 H193 0.929 1_554 S
N188 Mn181 2.257 . S
N188 C187 1.326 . S
N188 C192 1.362 . S
C189 C190 1.258 . S
C189 C192 1.431 . S
C189 C209 1.449 . S
C190 C189 1.258 . S
C190 C191 1.477 . S
C190 H210 0.931 . S
C191 C187 1.460 . S
C191 C190 1.477 . S
C191 H211 0.930 . S
C192 N188 1.362 . S
C192 C189 1.431 . S
C192 C202 1.476 . S
H193 C187 0.929 1_556 S
C194 O185 1.250 . S
C194 O186 1.258 . S
O195 Mn180 2.162 . S
O195 C183 1.281 . S
O196 Mn180 2.297 . S
O196 C183 1.236 . S
N197 Mn181 2.282 . S
N197 C198 1.328 . S
N197 C202 1.318 . S
C198 N197 1.328 . S
C198 C199 1.457 . S
C198 H203 0.929 . S
C199 C198 1.457 . S
C199 C200 1.291 . S
C199 H212 0.931 . S
C200 C199 1.291 . S
C200 C201 1.373 . S
C200 H213 0.929 . S
C201 C200 1.373 . S
C201 C202 1.396 . S
C201 C208 1.403 . S
C202 C192 1.476 . S
C202 N197 1.318 . S
C202 C201 1.396 . S
H203 C198 0.929 . S
O204 Mn180 2.385 . S
O204 C182 1.234 . S
O205 Mn180 2.209 . S
O205 Mn181 2.215 . S
O205 C182 1.283 . S
O206 Mn180 2.094 . S
O206 C184 1.240 . S
O207 Mn181 2.117 . S
O207 C184 1.264 . S
C208 C201 1.403 . S
C208 C209 1.399 . S
C208 H214 0.929 . S
C209 C189 1.449 . S
C209 C208 1.399 . S
C209 H215 0.930 . S
H210 C190 0.931 . S
H211 C191 0.930 . S
H212 C199 0.931 . S
H213 C200 0.929 . S
H214 C208 0.929 . S
H215 C209 0.930 . S
Mn216 O221 2.095 . S
Mn216 O231 2.162 . S
Mn216 O232 2.297 . S
Mn216 O240 2.385 . S
Mn216 O241 2.209 . S
Mn216 O242 2.094 . S
Mn217 O222 2.121 . S
Mn217 N224 2.257 . S
Mn217 N233 2.282 . S
Mn217 O241 2.215 . S
Mn217 O243 2.117 . S
C218 O240 1.234 . S
C218 O241 1.283 . S
C219 O231 1.281 . S
C219 O232 1.236 . S
C220 O242 1.240 . S
C220 O243 1.264 . S
O221 Mn216 2.095 . S
O221 C230 1.250 . S
O222 Mn217 2.121 . S
O222 C230 1.258 . S
C223 N224 1.326 . S
C223 C227 1.460 . S
C223 H229 0.929 . S
N224 Mn217 2.257 . S
N224 C223 1.326 . S
N224 C228 1.362 . S
C225 C226 1.258 . S
C225 C228 1.431 . S
C225 C245 1.449 . S
C226 C225 1.258 . S
C226 C227 1.477 . S
C226 H246 0.931 . S
C227 C223 1.460 . S
C227 C226 1.477 . S
C227 H247 0.930 . S
C228 N224 1.362 . S
C228 C225 1.431 . S
C228 C238 1.476 . S
H229 C223 0.929 . S
C230 O221 1.250 . S
C230 O222 1.258 . S
O231 Mn216 2.162 . S
O231 C219 1.281 . S
O232 Mn216 2.297 . S
O232 C219 1.236 . S
N233 Mn217 2.282 . S
N233 C234 1.328 . S
N233 C238 1.318 . S
C234 N233 1.328 . S
C234 C235 1.457 . S
C234 H239 0.929 . S
C235 C234 1.457 . S
C235 C236 1.291 . S
C235 H248 0.931 . S
C236 C235 1.291 . S
C236 C237 1.373 . S
C236 H249 0.929 . S
C237 C236 1.373 . S
C237 C238 1.396 . S
C237 C244 1.403 . S
C238 C228 1.476 . S
C238 N233 1.318 . S
C238 C237 1.396 . S
H239 C234 0.929 . S
O240 Mn216 2.385 . S
O240 C218 1.234 . S
O241 Mn216 2.209 . S
O241 Mn217 2.215 . S
O241 C218 1.283 . S
O242 Mn216 2.094 . S
O242 C220 1.240 . S
O243 Mn217 2.117 . S
O243 C220 1.264 . S
C244 C237 1.403 . S
C244 C245 1.399 . S
C244 H250 0.929 . S
C245 C225 1.449 . S
C245 C244 1.399 . S
C245 H251 0.930 . S
H246 C226 0.931 . S
H247 C227 0.930 . S
H248 C235 0.931 . S
H249 C236 0.929 . S
H250 C244 0.929 . S
H251 C245 0.930 . S
Mn252 O257 2.095 . S
Mn252 O267 2.162 . S
Mn252 O268 2.297 . S
Mn252 O276 2.385 . S
Mn252 O277 2.209 . S
Mn252 O278 2.094 . S
Mn253 O258 2.121 . S
Mn253 N260 2.257 . S
Mn253 N269 2.282 . S
Mn253 O277 2.215 . S
Mn253 O279 2.117 . S
C254 O276 1.234 . S
C254 O277 1.283 . S
C255 O267 1.281 . S
C255 O268 1.236 . S
C256 O278 1.240 . S
C256 O279 1.264 . S
O257 Mn252 2.095 . S
O257 C266 1.250 . S
O258 Mn253 2.121 . S
O258 C266 1.258 . S
C259 N260 1.326 . S
C259 C263 1.460 . S
C259 H265 0.929 . S
N260 Mn253 2.257 . S
N260 C259 1.326 . S
N260 C264 1.362 . S
C261 C262 1.258 . S
C261 C264 1.431 . S
C261 C281 1.449 . S
C262 C261 1.258 . S
C262 C263 1.477 . S
C262 H282 0.931 . S
C263 C259 1.460 . S
C263 C262 1.477 . S
C263 H283 0.930 . S
C264 N260 1.362 . S
C264 C261 1.431 . S
C264 C274 1.476 . S
H265 C259 0.929 . S
C266 O257 1.250 . S
C266 O258 1.258 . S
O267 Mn252 2.162 . S
O267 C255 1.281 . S
O268 Mn252 2.297 . S
O268 C255 1.236 . S
N269 Mn253 2.282 . S
N269 C270 1.328 . S
N269 C274 1.318 . S
C270 N269 1.328 . S
C270 C271 1.457 . S
C270 H275 0.929 . S
C271 C270 1.457 . S
C271 C272 1.291 . S
C271 H284 0.931 . S
C272 C271 1.291 . S
C272 C273 1.373 . S
C272 H285 0.929 . S
C273 C272 1.373 . S
C273 C274 1.396 . S
C273 C280 1.403 . S
C274 C264 1.476 . S
C274 N269 1.318 . S
C274 C273 1.396 . S
H275 C270 0.929 . S
O276 Mn252 2.385 . S
O276 C254 1.234 . S
O277 Mn252 2.209 . S
O277 Mn253 2.215 . S
O277 C254 1.283 . S
O278 Mn252 2.094 . S
O278 C256 1.240 . S
O279 Mn253 2.117 . S
O279 C256 1.264 . S
C280 C273 1.403 . S
C280 C281 1.399 . S
C280 H286 0.929 . S
C281 C261 1.449 . S
C281 C280 1.399 . S
C281 H287 0.930 . S
H282 C262 0.931 . S
H283 C263 0.930 . S
H284 C271 0.931 . S
H285 C272 0.929 . S
H286 C280 0.929 . S
H287 C281 0.930 . S
H288 C300 0.930 1_455 S
H289 C302 0.930 . S
H290 C303 0.930 . S
H291 C307 0.959 . S
H292 C307 0.959 1_545 S
H293 C307 0.961 . S
H294 C308 0.960 1_565 S
H295 C308 0.961 . S
H296 C308 0.959 . S
H297 C311 0.929 . S
H298 C312 0.929 1_655 S
H299 C314 0.930 . S
C300 H288 0.930 1_655 S
C300 C301 1.399 1_556 S
C300 C305 1.399 . S
C301 C300 1.399 1_554 S
C301 C302 1.376 . S
C302 H289 0.930 . S
C302 C301 1.376 . S
C302 C303 1.388 . S
C303 H290 0.930 . S
C303 C302 1.388 . S
C303 C304 1.390 . S
C304 C303 1.390 . S
C304 C305 1.394 1_554 S
C304 C310 1.465 1_565 S
C305 C300 1.399 . S
C305 C304 1.394 1_556 S
C305 C306 1.516 1_655 S
C306 C305 1.516 1_455 S
C306 C307 1.502 . S
C306 C308 1.561 1_465 S
C306 C309 1.526 1_565 S
C307 H291 0.959 . S
C307 H292 0.959 1_565 S
C307 H293 0.961 . S
C307 C306 1.502 . S
C308 H294 0.960 1_545 S
C308 H295 0.961 . S
C308 H296 0.959 . S
C308 C306 1.561 1_645 S
C309 C306 1.526 1_545 S
C309 C310 1.396 1_456 S
C309 C314 1.390 . S
C310 C304 1.465 1_545 S
C310 C309 1.396 1_654 S
C310 C311 1.399 . S
C311 H297 0.929 . S
C311 C310 1.399 . S
C311 C312 1.385 1_655 S
C312 H298 0.929 1_455 S
C312 C311 1.385 1_455 S
C312 C313 1.389 . S
C313 C312 1.389 . S
C313 C314 1.387 1_554 S
C314 H299 0.930 . S
C314 C309 1.390 . S
C314 C313 1.387 1_556 S
H315 C327 0.930 . S
H316 C329 0.930 . S
H317 C330 0.930 . S
H318 C334 0.959 . S
H319 C334 0.959 . S
H320 C334 0.961 1_565 S
H321 C335 0.970 1_455 S
H322 C335 0.951 1_545 S
H323 C335 0.961 . S
H324 C338 0.929 . S
H325 C339 0.931 . S
H326 C341 0.930 1_455 S
C327 H315 0.930 . S
C327 C328 1.399 . S
C327 C332 1.399 . S
C328 C327 1.399 . S
C328 C329 1.376 1_455 S
C329 H316 0.930 . S
C329 C328 1.376 1_655 S
C329 C330 1.388 . S
C330 H317 0.930 . S
C330 C329 1.388 . S
C330 C331 1.390 . S
C331 C330 1.390 . S
C331 C332 1.394 1_655 S
C331 C337 1.465 1_565 S
C332 C327 1.399 . S
C332 C331 1.394 1_455 S
C332 C333 1.516 1_565 S
C333 C332 1.516 1_545 S
C333 C334 1.502 . S
C333 C335 1.560 1_445 S
C333 C336 1.526 1_455 S
C334 H318 0.959 . S
C334 H319 0.959 . S
C334 H320 0.961 1_545 S
C334 C333 1.502 . S
C335 H321 0.970 1_655 S
C335 H322 0.951 1_565 S
C335 H323 0.961 . S
C335 C333 1.560 1_665 S
C336 C333 1.526 1_655 S
C336 C337 1.396 . S
C336 C341 1.390 . S
C337 C331 1.465 1_545 S
C337 C336 1.396 . S
C337 C338 1.399 . S
C338 H324 0.929 . S
C338 C337 1.399 . S
C338 C339 1.385 . S
C339 H325 0.931 . S
C339 C338 1.385 . S
C339 C340 1.389 . S
C340 C339 1.389 . S
C340 C341 1.387 . S
C341 H326 0.930 1_655 S
C341 C336 1.390 . S
C341 C340 1.387 . S
H342 C354 0.930 . S
H343 C356 0.930 . S
H344 C357 0.930 . S
H345 C361 0.959 . S
H346 C361 0.959 . S
H347 C361 0.961 . S
H348 C362 0.960 . S
H349 C362 0.961 . S
H350 C362 0.959 . S
H351 C365 0.929 . S
H352 C366 0.931 . S
H353 C368 0.930 . S
C354 H342 0.930 . S
C354 C355 1.399 1_556 S
C354 C359 1.399 . S
C355 C354 1.399 1_554 S
C355 C356 1.376 . S
C356 H343 0.930 . S
C356 C355 1.376 . S
C356 C357 1.388 . S
C357 H344 0.930 . S
C357 C356 1.388 . S
C357 C358 1.390 . S
C358 C357 1.390 . S
C358 C359 1.394 1_554 S
C358 C364 1.465 . S
C359 C354 1.399 . S
C359 C358 1.394 1_556 S
C359 C360 1.516 . S
C360 C359 1.516 . S
C360 C361 1.502 . S
C360 C362 1.561 . S
C360 C363 1.526 . S
C361 H345 0.959 . S
C361 H346 0.959 . S
C361 H347 0.961 . S
C361 C360 1.502 . S
C362 H348 0.960 . S
C362 H349 0.961 . S
C362 H350 0.959 . S
C362 C360 1.561 . S
C363 C360 1.526 . S
C363 C364 1.396 1_556 S
C363 C368 1.390 . S
C364 C358 1.465 . S
C364 C363 1.396 1_554 S
C364 C365 1.399 . S
C365 H351 0.929 . S
C365 C364 1.399 . S
C365 C366 1.385 . S
C366 H352 0.931 . S
C366 C365 1.385 . S
C366 C367 1.389 . S
C367 C366 1.389 . S
C367 C368 1.387 1_554 S
C368 H353 0.930 . S
C368 C363 1.390 . S
C368 C367 1.387 1_556 S
H369 C381 0.930 . S
H370 C383 0.930 . S
H371 C384 0.930 . S
H372 C388 0.959 . S
H373 C388 0.959 . S
H374 C388 0.961 . S
H375 C389 0.960 . S
H376 C389 0.961 . S
H377 C389 0.959 . S
H378 C392 0.929 . S
H379 C393 0.931 . S
H380 C395 0.930 . S
C381 H369 0.930 . S
C381 C382 1.399 . S
C381 C386 1.399 . S
C382 C381 1.399 . S
C382 C383 1.376 . S
C383 H370 0.930 . S
C383 C382 1.376 . S
C383 C384 1.388 . S
C384 H371 0.930 . S
C384 C383 1.388 . S
C384 C385 1.390 . S
C385 C384 1.390 . S
C385 C386 1.394 . S
C385 C391 1.465 . S
C386 C381 1.399 . S
C386 C385 1.394 . S
C386 C387 1.516 . S
C387 C386 1.516 . S
C387 C388 1.502 . S
C387 C389 1.561 . S
C387 C390 1.526 . S
C388 H372 0.959 . S
C388 H373 0.959 . S
C388 H374 0.961 . S
C388 C387 1.502 . S
C389 H375 0.960 . S
C389 H376 0.961 . S
C389 H377 0.959 . S
C389 C387 1.561 . S
C390 C387 1.526 . S
C390 C391 1.396 . S
C390 C395 1.390 . S
C391 C385 1.465 . S
C391 C390 1.396 . S
C391 C392 1.399 . S
C392 H378 0.929 . S
C392 C391 1.399 . S
C392 C393 1.385 . S
C393 H379 0.931 . S
C393 C392 1.385 . S
C393 C394 1.389 . S
C394 C393 1.389 . S
C394 C395 1.387 . S
C395 H380 0.930 . S
C395 C390 1.390 . S
C395 C394 1.387 . S
H396 C408 0.930 . S
H397 C410 0.930 . S
H398 C411 0.930 . S
H399 C415 0.959 . S
H400 C415 0.959 . S
H401 C415 0.961 . S
H402 C416 0.960 . S
H403 C416 0.961 . S
H404 C416 0.959 . S
H405 C419 0.929 . S
H406 C420 0.931 . S
H407 C422 0.930 1_455 S
C408 H396 0.930 . S
C408 C409 1.399 . S
C408 C413 1.399 . S
C409 C408 1.399 . S
C409 C410 1.376 1_455 S
C410 H397 0.930 . S
C410 C409 1.376 1_655 S
C410 C411 1.388 . S
C411 H398 0.930 . S
C411 C410 1.388 . S
C411 C412 1.390 . S
C412 C411 1.390 . S
C412 C413 1.394 1_655 S
C412 C418 1.465 . S
C413 C408 1.399 . S
C413 C412 1.394 1_455 S
C413 C414 1.516 . S
C414 C413 1.516 . S
C414 C415 1.502 . S
C414 C416 1.561 1_455 S
C414 C417 1.526 1_455 S
C415 H399 0.959 . S
C415 H400 0.959 . S
C415 H401 0.961 . S
C415 C414 1.502 . S
C416 H402 0.960 . S
C416 H403 0.961 . S
C416 H404 0.959 . S
C416 C414 1.561 1_655 S
C417 C414 1.526 1_655 S
C417 C418 1.396 . S
C417 C422 1.390 . S
C418 C412 1.465 . S
C418 C417 1.396 . S
C418 C419 1.399 . S
C419 H405 0.929 . S
C419 C418 1.399 . S
C419 C420 1.385 . S
C420 H406 0.931 . S
C420 C419 1.385 . S
C420 C421 1.389 . S
C421 C420 1.389 . S
C421 C422 1.387 . S
C422 H407 0.930 1_655 S
C422 C417 1.390 . S
C422 C421 1.387 . S
H423 C435 0.930 . S
H424 C437 0.930 . S
H425 C438 0.930 . S
H426 C442 0.959 . S
H427 C442 0.959 . S
H428 C442 0.961 . S
H429 C443 0.960 . S
H430 C443 0.961 . S
H431 C443 0.959 . S
H432 C446 0.929 . S
H433 C447 0.931 . S
H434 C449 0.930 . S
C435 H423 0.930 . S
C435 C436 1.399 1_655 S
C435 C440 1.399 . S
C436 C435 1.399 1_455 S
C436 C437 1.376 . S
C437 H424 0.930 . S
C437 C436 1.376 . S
C437 C438 1.388 . S
C438 H425 0.930 . S
C438 C437 1.388 . S
C438 C439 1.390 . S
C439 C438 1.390 . S
C439 C440 1.394 1_455 S
C439 C445 1.465 . S
C440 C435 1.399 . S
C440 C439 1.394 1_655 S
C440 C441 1.516 . S
C441 C440 1.516 . S
C441 C442 1.502 . S
C441 C443 1.561 1_655 S
C441 C444 1.526 . S
C442 H426 0.959 . S
C442 H427 0.959 . S
C442 H428 0.961 . S
C442 C441 1.502 . S
C443 H429 0.960 . S
C443 H430 0.961 . S
C443 H431 0.959 . S
C443 C441 1.561 1_455 S
C444 C441 1.526 . S
C444 C445 1.396 1_655 S
C444 C449 1.390 . S
C445 C439 1.465 . S
C445 C444 1.396 1_455 S
C445 C446 1.399 . S
C446 H432 0.929 . S
C446 C445 1.399 . S
C446 C447 1.385 . S
C447 H433 0.931 . S
C447 C446 1.385 . S
C447 C448 1.389 1_455 S
C448 C447 1.389 1_655 S
C448 C449 1.387 . S
C449 H434 0.930 . S
C449 C444 1.390 . S
C449 C448 1.387 . S
H450 C462 0.930 . S
H451 C464 0.930 . S
H452 C465 0.930 . S
H453 C469 0.959 . S
H454 C469 0.959 . S
H455 C469 0.961 . S
H456 C470 0.960 . S
H457 C470 0.961 . S
H458 C470 0.959 . S
H459 C473 0.929 . S
H460 C474 0.931 . S
H461 C476 0.930 . S
C462 H450 0.930 . S
C462 C463 1.399 . S
C462 C467 1.399 . S
C463 C462 1.399 . S
C463 C464 1.376 1_455 S
C464 H451 0.930 . S
C464 C463 1.376 1_655 S
C464 C465 1.388 . S
C465 H452 0.930 . S
C465 C464 1.388 . S
C465 C466 1.390 . S
C466 C465 1.390 . S
C466 C467 1.394 1_655 S
C466 C472 1.465 . S
C467 C462 1.399 . S
C467 C466 1.394 1_455 S
C467 C468 1.516 . S
C468 C467 1.516 . S
C468 C469 1.502 . S
C468 C470 1.561 1_455 S
C468 C471 1.526 . S
C469 H453 0.959 . S
C469 H454 0.959 . S
C469 H455 0.961 . S
C469 C468 1.502 . S
C470 H456 0.960 . S
C470 H457 0.961 . S
C470 H458 0.959 . S
C470 C468 1.561 1_655 S
C471 C468 1.526 . S
C471 C472 1.396 1_455 S
C471 C476 1.390 . S
C472 C466 1.465 . S
C472 C471 1.396 1_655 S
C472 C473 1.399 . S
C473 H459 0.929 . S
C473 C472 1.399 . S
C473 C474 1.385 . S
C474 H460 0.931 . S
C474 C473 1.385 . S
C474 C475 1.389 . S
C475 C474 1.389 . S
C475 C476 1.387 1_655 S
C476 H461 0.930 . S
C476 C471 1.390 . S
C476 C475 1.387 1_455 S
H477 C489 0.930 . S
H478 C491 0.930 . S
H479 C492 0.930 . S
H480 C496 0.959 . S
H481 C496 0.959 . S
H482 C496 0.961 . S
H483 C497 0.960 . S
H484 C497 0.961 . S
H485 C497 0.959 . S
H486 C500 0.929 . S
H487 C501 0.931 . S
H488 C503 0.930 . S
C489 H477 0.930 . S
C489 C490 1.399 . S
C489 C494 1.399 . S
C490 C489 1.399 . S
C490 C491 1.376 1_455 S
C491 H478 0.930 . S
C491 C490 1.376 1_655 S
C491 C492 1.388 . S
C492 H479 0.930 . S
C492 C491 1.388 . S
C492 C493 1.390 . S
C493 C492 1.390 . S
C493 C494 1.394 1_655 S
C493 C499 1.465 . S
C494 C489 1.399 . S
C494 C493 1.394 1_455 S
C494 C495 1.516 . S
C495 C494 1.516 . S
C495 C496 1.502 . S
C495 C497 1.561 1_455 S
C495 C498 1.526 . S
C496 H480 0.959 . S
C496 H481 0.959 . S
C496 H482 0.961 . S
C496 C495 1.502 . S
C497 H483 0.960 . S
C497 H484 0.961 . S
C497 H485 0.959 . S
C497 C495 1.561 1_655 S
C498 C495 1.526 . S
C498 C499 1.396 1_455 S
C498 C503 1.390 . S
C499 C493 1.465 . S
C499 C498 1.396 1_655 S
C499 C500 1.399 . S
C500 H486 0.929 . S
C500 C499 1.399 . S
C500 C501 1.385 . S
C501 H487 0.931 . S
C501 C500 1.385 . S
C501 C502 1.389 . S
C502 C501 1.389 . S
C502 C503 1.387 1_655 S
C503 H488 0.930 . S
C503 C498 1.390 . S
C503 C502 1.387 1_455 S
H504 C516 0.930 . S
H505 C518 0.930 . S
H506 C519 0.930 . S
H507 C523 0.959 . S
H508 C523 0.959 . S
H509 C523 0.961 . S
H510 C524 0.960 . S
H511 C524 0.961 . S
H512 C524 0.959 . S
H513 C527 0.929 . S
H514 C528 0.931 . S
H515 C530 0.930 . S
C516 H504 0.930 . S
C516 C517 1.399 . S
C516 C521 1.399 . S
C517 C516 1.399 . S
C517 C518 1.376 . S
C518 H505 0.930 . S
C518 C517 1.376 . S
C518 C519 1.388 . S
C519 H506 0.930 . S
C519 C518 1.388 . S
C519 C520 1.390 . S
C520 C519 1.390 . S
C520 C521 1.394 . S
C520 C526 1.465 . S
C521 C516 1.399 . S
C521 C520 1.394 . S
C521 C522 1.516 . S
C522 C521 1.516 . S
C522 C523 1.502 . S
C522 C524 1.561 . S
C522 C525 1.526 . S
C523 H507 0.959 . S
C523 H508 0.959 . S
C523 H509 0.961 . S
C523 C522 1.502 . S
C524 H510 0.960 . S
C524 H511 0.961 . S
C524 H512 0.959 . S
C524 C522 1.561 . S
C525 C522 1.526 . S
C525 C526 1.396 . S
C525 C530 1.390 . S
C526 C520 1.465 . S
C526 C525 1.396 . S
C526 C527 1.399 . S
C527 H513 0.929 . S
C527 C526 1.399 . S
C527 C528 1.385 . S
C528 H514 0.931 . S
C528 C527 1.385 . S
C528 C529 1.389 . S
C529 C528 1.389 . S
C529 C530 1.387 . S
C530 H515 0.930 . S
C530 C525 1.390 . S
C530 C529 1.387 . S
H531 C543 0.930 . S
H532 C545 0.930 . S
H533 C546 0.930 . S
H534 C550 0.959 . S
H535 C550 0.959 . S
H536 C550 0.961 . S
H537 C551 0.960 . S
H538 C551 0.961 . S
H539 C551 0.959 . S
H540 C554 0.929 . S
H541 C555 0.931 . S
H542 C557 0.930 . S
C543 H531 0.930 . S
C543 C544 1.399 . S
C543 C548 1.399 . S
C544 C543 1.399 . S
C544 C545 1.376 . S
C545 H532 0.930 . S
C545 C544 1.376 . S
C545 C546 1.388 . S
C546 H533 0.930 . S
C546 C545 1.388 . S
C546 C547 1.390 . S
C547 C546 1.390 . S
C547 C548 1.394 . S
C547 C553 1.465 . S
C548 C543 1.399 . S
C548 C547 1.394 . S
C548 C549 1.516 . S
C549 C548 1.516 . S
C549 C550 1.502 . S
C549 C551 1.561 . S
C549 C552 1.526 . S
C550 H534 0.959 . S
C550 H535 0.959 . S
C550 H536 0.961 . S
C550 C549 1.502 . S
C551 H537 0.960 . S
C551 H538 0.961 . S
C551 H539 0.959 . S
C551 C549 1.561 . S
C552 C549 1.526 . S
C552 C553 1.396 . S
C552 C557 1.390 . S
C553 C547 1.465 . S
C553 C552 1.396 . S
C553 C554 1.399 . S
C554 H540 0.929 . S
C554 C553 1.399 . S
C554 C555 1.385 . S
C555 H541 0.931 . S
C555 C554 1.385 . S
C555 C556 1.389 . S
C556 C555 1.389 . S
C556 C557 1.387 . S
C557 H542 0.930 . S
C557 C552 1.390 . S
C557 C556 1.387 . S
H558 C570 0.930 . S
H559 C572 0.930 . S
H560 C573 0.930 . S
H561 C577 0.959 . S
H562 C577 0.959 . S
H563 C577 0.961 . S
H564 C578 0.960 . S
H565 C578 0.961 . S
H566 C578 0.959 . S
H567 C581 0.929 . S
H568 C582 0.931 . S
H569 C584 0.930 . S
C570 H558 0.930 . S
C570 C571 1.399 . S
C570 C575 1.399 . S
C571 C570 1.399 . S
C571 C572 1.376 . S
C572 H559 0.930 . S
C572 C571 1.376 . S
C572 C573 1.388 . S
C573 H560 0.930 . S
C573 C572 1.388 . S
C573 C574 1.390 . S
C574 C573 1.390 . S
C574 C575 1.394 . S
C574 C580 1.465 . S
C575 C570 1.399 . S
C575 C574 1.394 . S
C575 C576 1.516 . S
C576 C575 1.516 . S
C576 C577 1.502 . S
C576 C578 1.561 . S
C576 C579 1.526 . S
C577 H561 0.959 . S
C577 H562 0.959 . S
C577 H563 0.961 . S
C577 C576 1.502 . S
C578 H564 0.960 . S
C578 H565 0.961 . S
C578 H566 0.959 . S
C578 C576 1.561 . S
C579 C576 1.526 . S
C579 C580 1.396 . S
C579 C584 1.390 . S
C580 C574 1.465 . S
C580 C579 1.396 . S
C580 C581 1.399 . S
C581 H567 0.929 . S
C581 C580 1.399 . S
C581 C582 1.385 . S
C582 H568 0.931 . S
C582 C581 1.385 . S
C582 C583 1.389 . S
C583 C582 1.389 . S
C583 C584 1.387 . S
C584 H569 0.930 . S
C584 C579 1.390 . S
C584 C583 1.387 . S
H585 C597 0.930 . S
H586 C599 0.930 . S
H587 C600 0.930 . S
H588 C604 0.959 . S
H589 C604 0.959 . S
H590 C604 0.961 . S
H591 C605 0.960 . S
H592 C605 0.961 . S
H593 C605 0.959 . S
H594 C608 0.929 . S
H595 C609 0.931 . S
H596 C611 0.930 . S
C597 H585 0.930 . S
C597 C598 1.399 . S
C597 C602 1.399 . S
C598 C597 1.399 . S
C598 C599 1.376 . S
C599 H586 0.930 . S
C599 C598 1.376 . S
C599 C600 1.388 . S
C600 H587 0.930 . S
C600 C599 1.388 . S
C600 C601 1.390 . S
C601 C600 1.390 . S
C601 C602 1.394 . S
C601 C607 1.465 . S
C602 C597 1.399 . S
C602 C601 1.394 . S
C602 C603 1.516 . S
C603 C602 1.516 . S
C603 C604 1.502 . S
C603 C605 1.561 . S
C603 C606 1.526 . S
C604 H588 0.959 . S
C604 H589 0.959 . S
C604 H590 0.961 . S
C604 C603 1.502 . S
C605 H591 0.960 . S
C605 H592 0.961 . S
C605 H593 0.959 . S
C605 C603 1.561 . S
C606 C603 1.526 . S
C606 C607 1.396 . S
C606 C611 1.390 . S
C607 C601 1.465 . S
C607 C606 1.396 . S
C607 C608 1.399 . S
C608 H594 0.929 . S
C608 C607 1.399 . S
C608 C609 1.385 . S
C609 H595 0.931 . S
C609 C608 1.385 . S
C609 C610 1.389 . S
C610 C609 1.389 . S
C610 C611 1.387 . S
C611 H596 0.930 . S
C611 C606 1.390 . S
C611 C610 1.387 . S
H612 C624 0.930 . S
H613 C626 0.930 . S
H614 C627 0.930 . S
H615 C631 0.959 . S
H616 C631 0.959 . S
H617 C631 0.961 . S
H618 C632 0.960 . S
H619 C632 0.961 . S
H620 C632 0.959 . S
H621 C635 0.929 . S
H622 C636 0.931 . S
H623 C638 0.930 . S
C624 H612 0.930 . S
C624 C625 1.399 . S
C624 C629 1.399 . S
C625 C624 1.399 . S
C625 C626 1.376 1_554 S
C626 H613 0.930 . S
C626 C625 1.376 1_556 S
C626 C627 1.388 . S
C627 H614 0.930 . S
C627 C626 1.388 . S
C627 C628 1.390 1_556 S
C628 C627 1.390 1_554 S
C628 C629 1.394 . S
C628 C634 1.465 . S
C629 C624 1.399 . S
C629 C628 1.394 . S
C629 C630 1.516 . S
C630 C629 1.516 . S
C630 C631 1.502 . S
C630 C632 1.561 . S
C630 C633 1.526 . S
C631 H615 0.959 . S
C631 H616 0.959 . S
C631 H617 0.961 . S
C631 C630 1.502 . S
C632 H618 0.960 . S
C632 H619 0.961 . S
C632 H620 0.959 . S
C632 C630 1.561 . S
C633 C630 1.526 . S
C633 C634 1.396 . S
C633 C638 1.390 . S
C634 C628 1.465 . S
C634 C633 1.396 . S
C634 C635 1.399 1_554 S
C635 H621 0.929 . S
C635 C634 1.399 1_556 S
C635 C636 1.385 . S
C636 H622 0.931 . S
C636 C635 1.385 . S
C636 C637 1.389 1_556 S
C637 C636 1.389 1_554 S
C637 C638 1.387 . S
C638 H623 0.930 . S
C638 C633 1.390 . S
C638 C637 1.387 . S
H639 C651 0.930 . S
H640 C653 0.930 . S
H641 C654 0.930 . S
H642 C658 0.959 . S
H643 C658 0.959 . S
H644 C658 0.961 . S
H645 C659 0.960 . S
H646 C659 0.961 . S
H647 C659 0.959 . S
H648 C662 0.929 . S
H649 C663 0.931 . S
H650 C665 0.930 . S
C651 H639 0.930 . S
C651 C652 1.399 . S
C651 C656 1.399 . S
C652 C651 1.399 . S
C652 C653 1.376 1_554 S
C653 H640 0.930 . S
C653 C652 1.376 1_556 S
C653 C654 1.388 . S
C654 H641 0.930 . S
C654 C653 1.388 . S
C654 C655 1.376 1_556 S
C655 C654 1.376 1_554 S
C655 C656 1.412 . S
C655 C661 1.465 . S
C656 C651 1.399 . S
C656 C655 1.412 . S
C656 C657 1.516 . S
C657 C656 1.516 . S
C657 C658 1.502 . S
C657 C659 1.561 . S
C657 C660 1.526 . S
C658 H642 0.959 . S
C658 H643 0.959 . S
C658 H644 0.961 . S
C658 C657 1.502 . S
C659 H645 0.960 . S
C659 H646 0.961 . S
C659 H647 0.959 . S
C659 C657 1.561 . S
C660 C657 1.526 . S
C660 C661 1.399 . S
C660 C665 1.390 . S
C661 C655 1.465 . S
C661 C660 1.399 . S
C661 C662 1.397 1_554 S
C662 H648 0.929 . S
C662 C661 1.397 1_556 S
C662 C663 1.385 . S
C663 H649 0.931 . S
C663 C662 1.385 . S
C663 C664 1.389 1_556 S
C664 C663 1.389 1_554 S
C664 C665 1.387 . S
C665 H650 0.930 . S
C665 C660 1.390 . S
C665 C664 1.387 . S
H666 C678 0.930 . S
H667 C680 0.930 . S
H668 C681 0.930 . S
H669 C685 0.959 . S
H670 C685 0.959 . S
H671 C685 0.961 . S
H672 C686 0.960 . S
H673 C686 0.961 . S
H674 C686 0.959 . S
H675 C689 0.929 . S
H676 C690 0.931 . S
H677 C692 0.930 . S
C678 H666 0.930 . S
C678 C679 1.399 . S
C678 C683 1.399 . S
C679 C678 1.399 . S
C679 C680 1.376 . S
C680 H667 0.930 . S
C680 C679 1.376 . S
C680 C681 1.388 . S
C681 H668 0.930 . S
C681 C680 1.388 . S
C681 C682 1.390 . S
C682 C681 1.390 . S
C682 C683 1.394 . S
C682 C688 1.465 . S
C683 C678 1.399 . S
C683 C682 1.394 . S
C683 C684 1.516 . S
C684 C683 1.516 . S
C684 C685 1.502 . S
C684 C686 1.561 . S
C684 C687 1.526 . S
C685 H669 0.959 . S
C685 H670 0.959 . S
C685 H671 0.961 . S
C685 C684 1.502 . S
C686 H672 0.960 . S
C686 H673 0.961 . S
C686 H674 0.959 . S
C686 C684 1.561 . S
C687 C684 1.526 . S
C687 C688 1.396 . S
C687 C692 1.390 . S
C688 C682 1.465 . S
C688 C687 1.396 . S
C688 C689 1.399 . S
C689 H675 0.929 . S
C689 C688 1.399 . S
C689 C690 1.385 . S
C690 H676 0.931 . S
C690 C689 1.385 . S
C690 C691 1.389 . S
C691 C690 1.389 . S
C691 C692 1.387 . S
C692 H677 0.930 . S
C692 C687 1.390 . S
C692 C691 1.387 . S
H693 C705 0.930 . S
H694 C707 0.930 . S
H695 C708 0.930 . S
H696 C712 0.959 . S
H697 C712 0.959 . S
H698 C712 0.961 . S
H699 C713 0.960 . S
H700 C713 0.961 . S
H701 C713 0.959 . S
H702 C716 0.929 . S
H703 C717 0.931 . S
H704 C719 0.930 . S
C705 H693 0.930 . S
C705 C706 1.399 . S
C705 C710 1.399 . S
C706 C705 1.399 . S
C706 C707 1.376 . S
C707 H694 0.930 . S
C707 C706 1.376 . S
C707 C708 1.388 . S
C708 H695 0.930 . S
C708 C707 1.388 . S
C708 C709 1.390 . S
C709 C708 1.390 . S
C709 C710 1.394 . S
C709 C715 1.465 . S
C710 C705 1.399 . S
C710 C709 1.394 . S
C710 C711 1.516 . S
C711 C710 1.516 . S
C711 C712 1.502 . S
C711 C713 1.561 . S
C711 C714 1.526 . S
C712 H696 0.959 . S
C712 H697 0.959 . S
C712 H698 0.961 . S
C712 C711 1.502 . S
C713 H699 0.960 . S
C713 H700 0.961 . S
C713 H701 0.959 . S
C713 C711 1.561 . S
C714 C711 1.526 . S
C714 C715 1.396 . S
C714 C719 1.390 . S
C715 C709 1.465 . S
C715 C714 1.396 . S
C715 C716 1.399 . S
C716 H702 0.929 . S
C716 C715 1.399 . S
C716 C717 1.385 . S
C717 H703 0.931 . S
C717 C716 1.385 . S
C717 C718 1.389 . S
C718 C717 1.389 . S
C718 C719 1.387 . S
C719 H704 0.930 . S
C719 C714 1.390 . S
C719 C718 1.387 . S
C301 C39 1.507 . S
C313 C3 1.505 . S
C328 C75 1.495 . S
C340 C111 1.498 . S
C355 C147 1.507 . S
C367 C183 1.505 . S
C382 C219 1.507 . S
C394 C255 1.505 . S
C409 C2 1.166 . S
C421 C110 1.118 . S
C436 C74 1.151 . S
C448 C38 1.215 . S
C463 C86 1.264 . S
C475 C50 1.221 . S
C490 C14 1.266 . S
C502 C122 1.221 . S
C517 C146 1.158 . S
C529 C254 1.212 . S
C544 C218 1.149 . S
C556 C182 1.216 . S
C571 C194 1.264 . S
C583 C230 1.221 . S
C598 C158 1.237 . S
C610 C266 1.288 . S
C625 C184 1.514 . S
C637 C4 1.502 . S
C652 C148 1.515 . S
C664 C40 1.505 . S
C679 C76 1.510 . S
C691 C256 1.513 . S
C706 C220 1.515 . S
C718 C112 1.505 . S
