# Generated by pormake.
# Topology ecs, (8)-cn, num edge types: 1
# Building blocks:
#     Node 0, Type 0, BuildingBlock: TAGTUT_clean_sbu_3, # of connection points: 8
#     Node 1, Type 0, BuildingBlock: TAGTUT_clean_sbu_3, # of connection points: 8
#     Node 2, Type 0, BuildingBlock: TAGTUT_clean_sbu_3, # of connection points: 8
#     Node 3, Type 0, BuildingBlock: TAGTUT_clean_sbu_3, # of connection points: 8
#     Node 4, Type 0, BuildingBlock: TAGTUT_clean_sbu_3, # of connection points: 8
#     Node 5, Type 0, BuildingBlock: TAGTUT_clean_sbu_3, # of connection points: 8
#     Node 6, Type 0, BuildingBlock: TAGTUT_clean_sbu_3, # of connection points: 8
#     Node 7, Type 0, BuildingBlock: TAGTUT_clean_sbu_3, # of connection points: 8
#     Node 8, Type 0, BuildingBlock: TAGTUT_clean_sbu_3, # of connection points: 8
#     Node 9, Type 0, BuildingBlock: TAGTUT_clean_sbu_3, # of connection points: 8
#     Node 10, Type 0, BuildingBlock: TAGTUT_clean_sbu_3, # of connection points: 8
#     Node 11, Type 0, BuildingBlock: TAGTUT_clean_sbu_3, # of connection points: 8
#     Edge 12, Type (0, 0), BuildingBlock: KIFKEQ_clean_linker_1, # of connection points: 2
#     Edge 13, Type (0, 0), BuildingBlock: KIFKEQ_clean_linker_1, # of connection points: 2
#     Edge 14, Type (0, 0), BuildingBlock: KIFKEQ_clean_linker_1, # of connection points: 2
#     Edge 15, Type (0, 0), BuildingBlock: KIFKEQ_clean_linker_1, # of connection points: 2
#     Edge 16, Type (0, 0), BuildingBlock: KIFKEQ_clean_linker_1, # of connection points: 2
#     Edge 17, Type (0, 0), BuildingBlock: KIFKEQ_clean_linker_1, # of connection points: 2
#     Edge 18, Type (0, 0), BuildingBlock: KIFKEQ_clean_linker_1, # of connection points: 2
#     Edge 19, Type (0, 0), BuildingBlock: KIFKEQ_clean_linker_1, # of connection points: 2
#     Edge 20, Type (0, 0), BuildingBlock: KIFKEQ_clean_linker_1, # of connection points: 2
#     Edge 21, Type (0, 0), BuildingBlock: KIFKEQ_clean_linker_1, # of connection points: 2
#     Edge 22, Type (0, 0), BuildingBlock: KIFKEQ_clean_linker_1, # of connection points: 2
#     Edge 23, Type (0, 0), BuildingBlock: KIFKEQ_clean_linker_1, # of connection points: 2
#     Edge 24, Type (0, 0), BuildingBlock: KIFKEQ_clean_linker_1, # of connection points: 2
#     Edge 25, Type (0, 0), BuildingBlock: KIFKEQ_clean_linker_1, # of connection points: 2
#     Edge 26, Type (0, 0), BuildingBlock: KIFKEQ_clean_linker_1, # of connection points: 2
#     Edge 27, Type (0, 0), BuildingBlock: KIFKEQ_clean_linker_1, # of connection points: 2
#     Edge 28, Type (0, 0), BuildingBlock: KIFKEQ_clean_linker_1, # of connection points: 2
#     Edge 29, Type (0, 0), BuildingBlock: KIFKEQ_clean_linker_1, # of connection points: 2
#     Edge 30, Type (0, 0), BuildingBlock: KIFKEQ_clean_linker_1, # of connection points: 2
#     Edge 31, Type (0, 0), BuildingBlock: KIFKEQ_clean_linker_1, # of connection points: 2
#     Edge 32, Type (0, 0), BuildingBlock: KIFKEQ_clean_linker_1, # of connection points: 2
#     Edge 33, Type (0, 0), BuildingBlock: KIFKEQ_clean_linker_1, # of connection points: 2
#     Edge 34, Type (0, 0), BuildingBlock: KIFKEQ_clean_linker_1, # of connection points: 2
#     Edge 35, Type (0, 0), BuildingBlock: KIFKEQ_clean_linker_1, # of connection points: 2
#     Edge 36, Type (0, 0), BuildingBlock: KIFKEQ_clean_linker_1, # of connection points: 2
#     Edge 37, Type (0, 0), BuildingBlock: KIFKEQ_clean_linker_1, # of connection points: 2
#     Edge 38, Type (0, 0), BuildingBlock: KIFKEQ_clean_linker_1, # of connection points: 2
#     Edge 39, Type (0, 0), BuildingBlock: KIFKEQ_clean_linker_1, # of connection points: 2
#     Edge 40, Type (0, 0), BuildingBlock: KIFKEQ_clean_linker_1, # of connection points: 2
#     Edge 41, Type (0, 0), BuildingBlock: KIFKEQ_clean_linker_1, # of connection points: 2
#     Edge 42, Type (0, 0), BuildingBlock: KIFKEQ_clean_linker_1, # of connection points: 2
#     Edge 43, Type (0, 0), BuildingBlock: KIFKEQ_clean_linker_1, # of connection points: 2
#     Edge 44, Type (0, 0), BuildingBlock: KIFKEQ_clean_linker_1, # of connection points: 2
#     Edge 45, Type (0, 0), BuildingBlock: KIFKEQ_clean_linker_1, # of connection points: 2
#     Edge 46, Type (0, 0), BuildingBlock: KIFKEQ_clean_linker_1, # of connection points: 2
#     Edge 47, Type (0, 0), BuildingBlock: KIFKEQ_clean_linker_1, # of connection points: 2
#     Edge 48, Type (0, 0), BuildingBlock: KIFKEQ_clean_linker_1, # of connection points: 2
#     Edge 49, Type (0, 0), BuildingBlock: KIFKEQ_clean_linker_1, # of connection points: 2
#     Edge 50, Type (0, 0), BuildingBlock: KIFKEQ_clean_linker_1, # of connection points: 2
#     Edge 51, Type (0, 0), BuildingBlock: KIFKEQ_clean_linker_1, # of connection points: 2
#     Edge 52, Type (0, 0), BuildingBlock: KIFKEQ_clean_linker_1, # of connection points: 2
#     Edge 53, Type (0, 0), BuildingBlock: KIFKEQ_clean_linker_1, # of connection points: 2
#     Edge 54, Type (0, 0), BuildingBlock: KIFKEQ_clean_linker_1, # of connection points: 2
#     Edge 55, Type (0, 0), BuildingBlock: KIFKEQ_clean_linker_1, # of connection points: 2
#     Edge 56, Type (0, 0), BuildingBlock: KIFKEQ_clean_linker_1, # of connection points: 2
#     Edge 57, Type (0, 0), BuildingBlock: KIFKEQ_clean_linker_1, # of connection points: 2
#     Edge 58, Type (0, 0), BuildingBlock: KIFKEQ_clean_linker_1, # of connection points: 2
#     Edge 59, Type (0, 0), BuildingBlock: KIFKEQ_clean_linker_1, # of connection points: 2
# Relax obj value: 0.345
# Max RMSD: 0.276
# Mean RMSD: 0.276
data_MOF--net-ecs--node1-TAGTUT_clean_sbu_3--edge1-KIFKEQ_clean_linker_1
_symmetry_space_group_name_H-M    P1
_symmetry_Int_Tables_number       1
_symmetry_cell_setting            triclinic
loop_
_symmetry_equiv_pos_as_xyz
'x, y, z'
_cell_length_a     52.390551
_cell_length_b     52.405171
_cell_length_c     27.722558
_cell_angle_alpha  90.021152
_cell_angle_beta   89.982718
_cell_angle_gamma 120.01777
loop_
_atom_site_label
_atom_site_type_symbol
_atom_site_fract_x
_atom_site_fract_y
_atom_site_fract_z
_atom_type_partial_charge
C0 C 0.43837 0.28638 0.08881 0.0
C1 C 0.47255 0.38994 0.9964 0.0
C2 C 0.47201 0.41936 0.1283 0.0
Mg3 Mg 0.45027 0.27856 0.20195 0.0
Mg4 Mg 0.50883 0.32909 0.2602 0.0
O5 O 0.47532 0.32048 0.22389 0.0
Mg6 Mg 0.47991 0.34023 0.16029 0.0
O7 O 0.481 0.35757 0.09471 0.0
Mg8 Mg 0.43842 0.34899 0.09224 0.0
Mg9 Mg 0.50821 0.39767 0.09211 0.0
C10 C 0.52157 0.39332 0.23711 0.0
O11 O 0.52777 0.35041 0.14686 0.0
O12 O 0.44672 0.26587 0.28374 0.0
O13 O 0.54666 0.39397 0.10777 0.0
O14 O 0.4906 0.27167 0.19263 0.0
O15 O 0.48658 0.30191 0.3214 0.0
O16 O 0.53086 0.31025 0.22298 0.0
O17 O 0.43411 0.33315 0.17119 0.0
O18 O 0.41253 0.28937 0.20837 0.0
C19 C 0.41163 0.31176 0.19155 0.0
C20 C 0.46212 0.27743 0.32209 0.0
O21 O 0.50286 0.38406 0.20238 0.0
O22 O 0.44924 0.36745 0.01342 0.0
O23 O 0.52834 0.37661 0.2611 0.0
O24 O 0.44923 0.39664 0.11173 0.0
O25 O 0.49631 0.40449 0.02102 0.0
O26 O 0.49298 0.41645 0.14445 0.0
O27 O 0.45733 0.29565 0.12316 0.0
O28 O 0.42898 0.3028 0.07113 0.0
C29 C 0.51848 0.28595 0.20006 0.0
C30 C 0.5495 0.37339 0.12761 0.0
C31 C 0.70316 0.14606 0.09335 0.0
C32 C 0.60515 0.08162 0.9908 0.0
C33 C 0.56893 0.04772 0.11802 0.0
Mg34 Mg 0.70843 0.16441 0.20603 0.0
Mg35 Mg 0.6575 0.17327 0.26051 0.0
O36 O 0.66606 0.14777 0.22573 0.0
Mg37 Mg 0.64753 0.13311 0.161 0.0
O38 O 0.63194 0.11782 0.09417 0.0
Mg39 Mg 0.64042 0.08366 0.09171 0.0
Mg40 Mg 0.59232 0.10593 0.08614 0.0
C41 C 0.59317 0.1221 0.23455 0.0
O42 O 0.63813 0.17129 0.14674 0.0
O43 O 0.71955 0.1728 0.28823 0.0
O44 O 0.59609 0.14774 0.10334 0.0
O45 O 0.7166 0.21194 0.19707 0.0
O46 O 0.68339 0.1775 0.32347 0.0
O47 O 0.67789 0.21459 0.22386 0.0
O48 O 0.6538 0.0937 0.17223 0.0
O49 O 0.69699 0.11579 0.21138 0.0
C50 C 0.67494 0.09258 0.19356 0.0
C51 C 0.70754 0.17691 0.32573 0.0
O52 O 0.60267 0.11218 0.20076 0.0
O53 O 0.62558 0.07865 0.0112 0.0
O54 O 0.60985 0.14567 0.2585 0.0
O55 O 0.59174 0.04636 0.10585 0.0
O56 O 0.58968 0.09063 0.01313 0.0
O57 O 0.57274 0.07129 0.13694 0.0
O58 O 0.69292 0.15534 0.12675 0.0
O59 O 0.68732 0.12042 0.07478 0.0
C60 C 0.70285 0.22617 0.20297 0.0
C61 C 0.61597 0.17062 0.12536 0.0
C62 C 0.89336 0.57929 0.18901 0.0
C63 C 0.80962 0.52721 0.32021 0.0
C64 C 0.76258 0.46865 0.20019 0.0
Mg65 Mg 0.90499 0.55249 0.09044 0.0
Mg66 Mg 0.88789 0.48369 0.0909 0.0
O67 O 0.87341 0.50957 0.09528 0.0
Mg68 Mg 0.85666 0.51025 0.15994 0.0
O69 O 0.84047 0.51438 0.22301 0.0
Mg70 Mg 0.82182 0.53767 0.19988 0.0
Mg71 Mg 0.8166 0.48095 0.2602 0.0
C72 C 0.82345 0.44016 0.12884 0.0
O73 O 0.88007 0.48989 0.20228 0.0
O74 O 0.91265 0.54139 0.01158 0.0
O75 O 0.84678 0.46379 0.26052 0.0
O76 O 0.94286 0.54428 0.11247 0.0
O77 O 0.90383 0.49473 0.01833 0.0
O78 O 0.925 0.49833 0.13717 0.0
O79 O 0.83236 0.53019 0.12191 0.0
O80 O 0.86658 0.55899 0.06844 0.0
C81 C 0.84077 0.54851 0.08675 0.0
C82 C 0.91198 0.51832 0.99385 0.0
O83 O 0.82091 0.46131 0.14754 0.0
O84 O 0.81195 0.54138 0.28099 0.0
O85 O 0.84725 0.44417 0.10869 0.0
O86 O 0.77577 0.49634 0.19161 0.0
O87 O 0.81164 0.50381 0.32094 0.0
O88 O 0.77497 0.45702 0.22399 0.0
O89 O 0.89349 0.55722 0.16941 0.0
O90 O 0.86944 0.57714 0.20556 0.0
C91 C 0.94689 0.52385 0.12931 0.0
C92 C 0.87073 0.47128 0.23723 0.0
C93 C 0.28082 0.43843 0.40294 0.0
C94 C 0.37626 0.47224 0.51162 0.0
C95 C 0.41642 0.47866 0.38699 0.0
Mg96 Mg 0.27749 0.45246 0.29099 0.0
Mg97 Mg 0.3279 0.51324 0.23901 0.0
O98 O 0.32007 0.47929 0.27313 0.0
Mg99 Mg 0.33758 0.48296 0.33867 0.0
O100 O 0.3516 0.48267 0.40636 0.0
Mg101 Mg 0.3442 0.44041 0.40782 0.0
Mg102 Mg 0.39022 0.51151 0.41869 0.0
C103 C 0.39279 0.52928 0.26855 0.0
O104 O 0.3447 0.52948 0.35401 0.0
O105 O 0.26779 0.45017 0.20863 0.0
O106 O 0.38501 0.54877 0.40176 0.0
O107 O 0.26755 0.49075 0.30062 0.0
O108 O 0.30385 0.49161 0.17465 0.0
O109 O 0.30589 0.53265 0.27469 0.0
O110 O 0.33287 0.43796 0.32653 0.0
O111 O 0.29036 0.41635 0.28546 0.0
C112 C 0.31253 0.4157 0.30393 0.0
C113 C 0.28022 0.46647 0.17153 0.0
O114 O 0.38361 0.50916 0.30135 0.0
O115 O 0.3573 0.44885 0.48922 0.0
O116 O 0.37541 0.53512 0.24438 0.0
O117 O 0.39349 0.45384 0.39597 0.0
O118 O 0.39112 0.49747 0.49125 0.0
O119 O 0.41307 0.49915 0.36982 0.0
O120 O 0.29176 0.45839 0.37041 0.0
O121 O 0.29627 0.42849 0.42255 0.0
C122 C 0.28084 0.51875 0.29515 0.0
C123 C 0.36535 0.55107 0.37768 0.0
C124 C 0.57472 0.89197 0.30791 0.0
C125 C 0.52279 0.80912 0.17838 0.0
C126 C 0.46407 0.76185 0.29918 0.0
Mg127 Mg 0.54972 0.90389 0.40686 0.0
Mg128 Mg 0.48015 0.88512 0.41319 0.0
O129 O 0.5067 0.87182 0.40494 0.0
Mg130 Mg 0.50619 0.8552 0.33961 0.0
O131 O 0.50973 0.83921 0.2761 0.0
Mg132 Mg 0.53323 0.82059 0.29852 0.0
Mg133 Mg 0.47656 0.81559 0.23851 0.0
C134 C 0.43677 0.82054 0.37539 0.0
O135 O 0.48433 0.87806 0.29861 0.0
O136 O 0.5412 0.91241 0.48614 0.0
O137 O 0.45818 0.8445 0.24087 0.0
O138 O 0.53979 0.94087 0.38657 0.0
O139 O 0.49372 0.90179 0.48506 0.0
O140 O 0.4929 0.92151 0.36606 0.0
O141 O 0.52696 0.83144 0.37639 0.0
O142 O 0.55767 0.86609 0.42775 0.0
C143 C 0.54638 0.8401 0.40987 0.0
C144 C 0.51851 0.91109 0.50649 0.0
O145 O 0.45779 0.81895 0.3541 0.0
O146 O 0.53645 0.81086 0.21785 0.0
O147 O 0.44067 0.84382 0.39729 0.0
O148 O 0.49171 0.77465 0.30822 0.0
O149 O 0.49951 0.81135 0.17721 0.0
O150 O 0.45293 0.77427 0.27435 0.0
O151 O 0.55275 0.8921 0.32788 0.0
O152 O 0.57266 0.86806 0.29162 0.0
C153 C 0.51826 0.94397 0.37235 0.0
C154 C 0.46501 0.86815 0.26457 0.0
C155 C 0.09212 0.68166 0.31322 0.0
C156 C 0.17504 0.71072 0.18144 0.0
C157 C 0.22309 0.70243 0.30274 0.0
Mg158 Mg 0.08241 0.64716 0.4153 0.0
Mg159 Mg 0.10012 0.59569 0.42115 0.0
O160 O 0.11388 0.63548 0.41122 0.0
Mg161 Mg 0.12943 0.65048 0.34509 0.0
O162 O 0.14481 0.66906 0.28057 0.0
Mg163 Mg 0.16361 0.71157 0.30118 0.0
Mg164 Mg 0.16879 0.65906 0.24471 0.0
C165 C 0.16323 0.61459 0.37905 0.0
O166 O 0.10567 0.60538 0.30598 0.0
O167 O 0.07675 0.63208 0.49587 0.0
O168 O 0.1389 0.61176 0.24801 0.0
O169 O 0.04424 0.60009 0.39894 0.0
O170 O 0.08682 0.59487 0.4946 0.0
O171 O 0.06211 0.57141 0.3776 0.0
O172 O 0.15412 0.6956 0.37966 0.0
O173 O 0.12094 0.693 0.4328 0.0
C174 C 0.14649 0.70713 0.41331 0.0
C175 C 0.07884 0.61124 0.51665 0.0
O176 O 0.16538 0.63762 0.35837 0.0
O177 O 0.17274 0.72318 0.21988 0.0
O178 O 0.14006 0.59584 0.40189 0.0
O179 O 0.20985 0.71699 0.31002 0.0
O180 O 0.17326 0.68541 0.18207 0.0
O181 O 0.21067 0.6779 0.2804 0.0
O182 O 0.09225 0.66009 0.33473 0.0
O183 O 0.11586 0.70301 0.29539 0.0
C184 C 0.04021 0.57501 0.38535 0.0
C185 C 0.11514 0.59557 0.27195 0.0
C186 C 0.54999 0.70412 0.9115 0.0
C187 C 0.51889 0.60401 0.0101 0.0
C188 C 0.52492 0.57264 0.88026 0.0
Mg189 Mg 0.53954 0.71031 0.79883 0.0
Mg190 Mg 0.48249 0.65897 0.73915 0.0
O191 O 0.51582 0.66817 0.7766 0.0
Mg192 Mg 0.51143 0.6486 0.84065 0.0
O193 O 0.51048 0.63229 0.90653 0.0
Mg194 Mg 0.55356 0.64399 0.9127 0.0
Mg195 Mg 0.48455 0.59196 0.91216 0.0
C196 C 0.47163 0.59488 0.76489 0.0
O197 O 0.46277 0.6361 0.85202 0.0
O198 O 0.54351 0.72324 0.71772 0.0
O199 O 0.44519 0.593 0.89221 0.0
O200 O 0.49872 0.71573 0.80641 0.0
O201 O 0.50583 0.68601 0.67785 0.0
O202 O 0.45897 0.67793 0.77341 0.0
O203 O 0.55834 0.65821 0.83254 0.0
O204 O 0.57863 0.70151 0.79417 0.0
C205 C 0.5805 0.67989 0.8121 0.0
C206 C 0.52942 0.7113 0.6785 0.0
O207 O 0.49034 0.60415 0.79976 0.0
O208 O 0.54201 0.62643 0.9924 0.0
O209 O 0.46461 0.61149 0.74094 0.0
O210 O 0.54541 0.59775 0.89471 0.0
O211 O 0.4955 0.5882 0.98533 0.0
O212 O 0.50014 0.56948 0.86781 0.0
O213 O 0.5316 0.69307 0.87672 0.0
O214 O 0.56065 0.68956 0.93189 0.0
C215 C 0.47109 0.70194 0.79727 0.0
C216 C 0.44144 0.61264 0.87089 0.0
C217 C 0.30698 0.89219 0.81386 0.0
C218 C 0.27848 0.81059 0.6819 0.0
C219 C 0.29456 0.76448 0.7989 0.0
Mg220 Mg 0.34646 0.90575 0.91093 0.0
Mg221 Mg 0.4014 0.89387 0.90487 0.0
O222 O 0.36044 0.87598 0.90529 0.0
Mg223 Mg 0.3428 0.85864 0.84086 0.0
O224 O 0.32236 0.84183 0.77819 0.0
Mg225 Mg 0.28064 0.82121 0.8024 0.0
Mg226 Mg 0.33333 0.81971 0.73918 0.0
C227 C 0.38451 0.83045 0.86539 0.0
O228 O 0.38582 0.8841 0.79721 0.0
O229 O 0.36688 0.91484 0.98846 0.0
O230 O 0.38002 0.85228 0.73722 0.0
O231 O 0.39101 0.94586 0.88908 0.0
O232 O 0.4073 0.91052 0.97737 0.0
O233 O 0.41917 0.93037 0.85684 0.0
O234 O 0.29928 0.83231 0.87975 0.0
O235 O 0.30259 0.86567 0.93343 0.0
C236 C 0.28848 0.83988 0.91468 0.0
C237 C 0.39108 0.91686 0.00375 0.0
O238 O 0.3588 0.82502 0.85153 0.0
O239 O 0.26658 0.81157 0.72194 0.0
O240 O 0.40366 0.85539 0.88337 0.0
O241 O 0.27902 0.77639 0.80905 0.0
O242 O 0.30443 0.81395 0.67972 0.0
O243 O 0.31824 0.77803 0.77429 0.0
O244 O 0.32992 0.89352 0.83264 0.0
O245 O 0.28582 0.86778 0.79754 0.0
C246 C 0.41557 0.95148 0.8704 0.0
C247 C 0.39559 0.87623 0.76101 0.0
C248 C 0.14957 0.43966 0.90667 0.0
C249 C 0.09133 0.47778 0.01298 0.0
C250 C 0.05606 0.48221 0.88908 0.0
Mg251 Mg 0.16609 0.45071 0.7939 0.0
Mg252 Mg 0.17407 0.50874 0.73377 0.0
O253 O 0.14992 0.47669 0.77345 0.0
Mg254 Mg 0.13759 0.48278 0.8388 0.0
O255 O 0.1244 0.48488 0.90629 0.0
Mg256 Mg 0.08898 0.44309 0.91066 0.0
Mg257 Mg 0.11617 0.51489 0.91802 0.0
C258 C 0.12485 0.52426 0.76341 0.0
O259 O 0.17777 0.52995 0.84971 0.0
O260 O 0.17277 0.4455 0.71236 0.0
O261 O 0.15872 0.55108 0.89774 0.0
O262 O 0.21377 0.48992 0.79922 0.0
O263 O 0.17499 0.48389 0.67229 0.0
O264 O 0.21655 0.53034 0.7673 0.0
O265 O 0.09693 0.43774 0.83015 0.0
O266 O 0.11703 0.41444 0.79162 0.0
C267 C 0.09454 0.41466 0.80972 0.0
C268 C 0.17498 0.45942 0.673 0.0
O269 O 0.11667 0.50696 0.8001 0.0
O270 O 0.0853 0.4537 0.99126 0.0
O271 O 0.14666 0.52903 0.7362 0.0
O272 O 0.05372 0.45711 0.89716 0.0
O273 O 0.10269 0.50284 0.99176 0.0
O274 O 0.0799 0.50257 0.87147 0.0
O275 O 0.15896 0.4589 0.87285 0.0
O276 O 0.1244 0.43091 0.92641 0.0
C277 C 0.22818 0.51757 0.79007 0.0
C278 C 0.17982 0.55236 0.87239 0.0
C279 C 0.67564 0.57479 0.69465 0.0
C280 C 0.70373 0.51907 0.82428 0.0
C281 C 0.696 0.46444 0.69987 0.0
Mg282 Mg 0.64112 0.5512 0.59284 0.0
Mg283 Mg 0.59039 0.48178 0.58288 0.0
O284 O 0.62991 0.50816 0.59446 0.0
Mg285 Mg 0.64468 0.50666 0.66027 0.0
O286 O 0.66288 0.50908 0.72473 0.0
Mg287 Mg 0.70551 0.53322 0.70491 0.0
Mg288 Mg 0.65275 0.47453 0.75886 0.0
C289 C 0.60995 0.43757 0.62247 0.0
O290 O 0.59912 0.48418 0.69878 0.0
O291 O 0.62633 0.54334 0.51218 0.0
O292 O 0.60544 0.45618 0.75436 0.0
O293 O 0.59387 0.5414 0.61076 0.0
O294 O 0.5901 0.49564 0.51021 0.0
O295 O 0.56498 0.49392 0.62685 0.0
O296 O 0.69013 0.5279 0.62585 0.0
O297 O 0.68713 0.55912 0.57454 0.0
C298 C 0.70147 0.54756 0.59279 0.0
C299 C 0.60615 0.52067 0.48989 0.0
O300 O 0.63244 0.45826 0.64457 0.0
O301 O 0.71627 0.5348 0.78669 0.0
O302 O 0.59119 0.44199 0.59968 0.0
O303 O 0.71104 0.49239 0.69408 0.0
O304 O 0.67886 0.49503 0.82231 0.0
O305 O 0.67136 0.45224 0.72173 0.0
O306 O 0.65405 0.5532 0.67295 0.0
O307 O 0.69702 0.57234 0.7121 0.0
C308 C 0.56882 0.51981 0.62329 0.0
C309 C 0.58906 0.46379 0.73112 0.0
C310 C 0.40599 0.09053 0.69162 0.0
C311 C 0.45983 0.1762 0.82131 0.0
C312 C 0.51341 0.22359 0.69705 0.0
Mg313 Mg 0.43065 0.08007 0.58991 0.0
Mg314 Mg 0.50077 0.10066 0.58429 0.0
O315 O 0.47376 0.11354 0.59176 0.0
Mg316 Mg 0.47405 0.12976 0.658 0.0
O317 O 0.47076 0.1454 0.72215 0.0
Mg318 Mg 0.44556 0.16254 0.70195 0.0
Mg319 Mg 0.50518 0.17092 0.75597 0.0
C320 C 0.54326 0.1653 0.62256 0.0
O321 O 0.49744 0.10847 0.69859 0.0
O322 O 0.44016 0.07439 0.50954 0.0
O323 O 0.52462 0.14284 0.75468 0.0
O324 O 0.44043 0.04181 0.60541 0.0
O325 O 0.48777 0.08545 0.51131 0.0
O326 O 0.48451 0.06629 0.63572 0.0
O327 O 0.45157 0.15262 0.62283 0.0
O328 O 0.42174 0.11738 0.57172 0.0
C329 C 0.43208 0.1433 0.58936 0.0
C330 C 0.46336 0.07689 0.48905 0.0
O331 O 0.52207 0.16697 0.64309 0.0
O332 O 0.44349 0.17195 0.78404 0.0
O333 O 0.53956 0.14193 0.60134 0.0
O334 O 0.4854 0.20977 0.69155 0.0
O335 O 0.48431 0.17628 0.81886 0.0
O336 O 0.52647 0.2118 0.71826 0.0
O337 O 0.42796 0.09112 0.67015 0.0
O338 O 0.40769 0.11413 0.70879 0.0
C339 C 0.46464 0.04295 0.61642 0.0
C340 C 0.51722 0.11881 0.73183 0.0
C341 C 0.89089 0.3126 0.69762 0.0
C342 C 0.80585 0.27833 0.82638 0.0
C343 C 0.7564 0.28192 0.70199 0.0
Mg344 Mg 0.90055 0.3467 0.59566 0.0
Mg345 Mg 0.87666 0.3934 0.58663 0.0
O346 O 0.86568 0.35413 0.59549 0.0
Mg347 Mg 0.84958 0.33846 0.66194 0.0
O348 O 0.83441 0.31974 0.72626 0.0
Mg349 Mg 0.81885 0.27752 0.70683 0.0
Mg350 Mg 0.8084 0.32748 0.76091 0.0
C351 C 0.81109 0.36813 0.62288 0.0
O352 O 0.86888 0.38356 0.70176 0.0
O353 O 0.90714 0.36158 0.51529 0.0
O354 O 0.83435 0.37502 0.75817 0.0
O355 O 0.93652 0.39563 0.61093 0.0
O356 O 0.89392 0.39659 0.51492 0.0
O357 O 0.9102 0.41395 0.63904 0.0
O358 O 0.82862 0.29299 0.62754 0.0
O359 O 0.86476 0.29955 0.57748 0.0
C360 C 0.83879 0.28329 0.59466 0.0
C361 C 0.90409 0.3817 0.49398 0.0
O362 O 0.81089 0.3465 0.64524 0.0
O363 O 0.81004 0.26642 0.78884 0.0
O364 O 0.83395 0.38832 0.6012 0.0
O365 O 0.77084 0.26838 0.69588 0.0
O366 O 0.80483 0.30223 0.82418 0.0
O367 O 0.76755 0.3065 0.72389 0.0
O368 O 0.88932 0.33329 0.6757 0.0
O369 O 0.86777 0.29006 0.71454 0.0
C370 C 0.93449 0.41812 0.62269 0.0
C371 C 0.8579 0.3925 0.73481 0.0
H372 H 0.57748 0.30793 0.21515 0.0
H373 H 0.50135 0.23662 0.14522 0.0
H374 H 0.60714 0.28615 0.19077 0.0
H375 H 0.53097 0.21487 0.12139 0.0
H376 H 0.59202 0.1895 0.05763 0.0
H377 H 0.57271 0.22277 0.06986 0.0
H378 H 0.60779 0.24052 0.21473 0.0
H379 H 0.62698 0.2071 0.20239 0.0
C380 C 0.56709 0.28772 0.19434 0.0
C381 C 0.53691 0.27381 0.18257 0.0
C382 C 0.58412 0.27528 0.18049 0.0
C383 C 0.5714 0.24885 0.15423 0.0
C384 C 0.54151 0.23549 0.14109 0.0
C385 C 0.52444 0.24782 0.15512 0.0
C386 C 0.59627 0.20115 0.09163 0.0
C387 C 0.61105 0.19584 0.12909 0.0
C388 C 0.58509 0.22004 0.09869 0.0
C389 C 0.58834 0.23385 0.14346 0.0
C390 C 0.60514 0.23034 0.17969 0.0
C391 C 0.61636 0.21139 0.17256 0.0
H392 H 0.80879 0.39615 0.06433 0.0
H393 H 0.78426 0.41482 0.2029 0.0
H394 H 0.77511 0.34368 0.07656 0.0
H395 H 0.75054 0.36225 0.21543 0.0
H396 H 0.6819 0.26448 0.21321 0.0
H397 H 0.70612 0.31623 0.18931 0.0
H398 H 0.77893 0.30931 0.13108 0.0
H399 H 0.75475 0.25774 0.15419 0.0
C400 C 0.79571 0.38904 0.09702 0.0
C401 C 0.79905 0.40952 0.1327 0.0
C402 C 0.77655 0.35901 0.10412 0.0
C403 C 0.76051 0.34881 0.14725 0.0
C404 C 0.76242 0.36945 0.18162 0.0
C405 C 0.78159 0.3996 0.1744 0.0
C406 C 0.70298 0.27395 0.19497 0.0
C407 C 0.71653 0.25702 0.186 0.0
C408 C 0.71685 0.30361 0.18143 0.0
C409 C 0.7444 0.31684 0.15834 0.0
C410 C 0.7575 0.29967 0.1482 0.0
C411 C 0.74373 0.27012 0.16184 0.0
H412 H 0.73067 0.48518 0.14394 0.0
H413 H 0.72508 0.40969 0.2172 0.0
H414 H 0.67935 0.456 0.1208 0.0
H415 H 0.67336 0.38019 0.19324 0.0
H416 H 0.57477 0.36153 0.20393 0.0
H417 H 0.62724 0.37953 0.21565 0.0
H418 H 0.64476 0.41519 0.07112 0.0
H419 H 0.59235 0.39738 0.05984 0.0
C420 C 0.71861 0.46224 0.15467 0.0
C421 C 0.73195 0.44991 0.18292 0.0
C422 C 0.68917 0.44538 0.14097 0.0
C423 C 0.67227 0.41572 0.1551 0.0
C424 C 0.68578 0.40305 0.18214 0.0
C425 C 0.7154 0.41995 0.19574 0.0
C426 C 0.58969 0.37211 0.17408 0.0
C427 C 0.57957 0.37803 0.13101 0.0
C428 C 0.6198 0.38259 0.18082 0.0
C429 C 0.6402 0.39921 0.14455 0.0
C430 C 0.62965 0.403 0.10009 0.0
C431 C 0.59967 0.39269 0.09352 0.0
H432 H 0.17805 0.58427 0.44158 0.0
H433 H 0.20035 0.62687 0.30244 0.0
H434 H 0.21014 0.56392 0.42602 0.0
H435 H 0.23269 0.6068 0.28692 0.0
H436 H 0.22894 0.49789 0.34456 0.0
H437 H 0.20499 0.52531 0.36972 0.0
H438 H 0.27746 0.60526 0.31149 0.0
H439 H 0.30136 0.57786 0.28568 0.0
C440 C 0.19035 0.58983 0.40809 0.0
C441 C 0.1869 0.60738 0.3733 0.0
C442 C 0.20857 0.57805 0.3991 0.0
C443 C 0.22366 0.58349 0.35506 0.0
C444 C 0.22158 0.60246 0.32143 0.0
C445 C 0.20326 0.61422 0.33043 0.0
C446 C 0.23986 0.52133 0.33725 0.0
C447 C 0.2669 0.53558 0.31263 0.0
C448 C 0.22625 0.5371 0.35206 0.0
C449 C 0.23938 0.56745 0.34254 0.0
C450 C 0.26671 0.58185 0.31887 0.0
C451 C 0.28039 0.56611 0.30421 0.0
H452 H 0.35591 0.576 0.29862 0.0
H453 H 0.38522 0.5934 0.4466 0.0
H454 H 0.37414 0.62832 0.28597 0.0
H455 H 0.40367 0.64585 0.43404 0.0
H456 H 0.40527 0.72571 0.28063 0.0
H457 H 0.37398 0.67475 0.30667 0.0
H458 H 0.4473 0.67917 0.38525 0.0
H459 H 0.47846 0.72995 0.35979 0.0
C460 C 0.36493 0.59081 0.32902 0.0
C461 C 0.36909 0.58071 0.37354 0.0
C462 C 0.37561 0.62084 0.32174 0.0
C463 C 0.39073 0.64117 0.35887 0.0
C464 C 0.39254 0.63069 0.4046 0.0
C465 C 0.3819 0.60072 0.41182 0.0
C466 C 0.41464 0.71589 0.30384 0.0
C467 C 0.4445 0.73175 0.31758 0.0
C468 C 0.39669 0.68674 0.31871 0.0
C469 C 0.40819 0.67303 0.34795 0.0
C470 C 0.43768 0.68928 0.36325 0.0
C471 C 0.45565 0.7183 0.3482 0.0
H472 H 0.25493 0.75185 0.35704 0.0
H473 H 0.26074 0.68097 0.28772 0.0
H474 H 0.30632 0.77455 0.3802 0.0
H475 H 0.31249 0.70374 0.31174 0.0
H476 H 0.411 0.78294 0.2997 0.0
H477 H 0.35848 0.74882 0.28806 0.0
H478 H 0.34102 0.7692 0.4311 0.0
H479 H 0.39352 0.80337 0.44241 0.0
C480 C 0.26707 0.74091 0.34714 0.0
C481 C 0.25378 0.71477 0.31998 0.0
C482 C 0.29654 0.75381 0.36088 0.0
C483 C 0.31349 0.74091 0.34786 0.0
C484 C 0.30003 0.71429 0.32193 0.0
C485 C 0.2704 0.70126 0.3083 0.0
C486 C 0.39607 0.77922 0.32926 0.0
C487 C 0.4063 0.79573 0.37191 0.0
C488 C 0.36593 0.75979 0.32257 0.0
C489 C 0.34556 0.75666 0.35843 0.0
C490 C 0.35612 0.77159 0.40244 0.0
C491 C 0.38616 0.79105 0.409 0.0
H492 H 0.48363 0.74049 0.87096 0.0
H493 H 0.41844 0.69299 0.76096 0.0
H494 H 0.45844 0.76699 0.89254 0.0
H495 H 0.39385 0.72097 0.78091 0.0
H496 H 0.3498 0.77044 0.85067 0.0
H497 H 0.36681 0.73485 0.83885 0.0
H498 H 0.45707 0.80576 0.85038 0.0
H499 H 0.44037 0.84053 0.86288 0.0
C500 C 0.46377 0.73556 0.85155 0.0
C501 C 0.45332 0.715 0.81375 0.0
C502 C 0.44939 0.75091 0.86371 0.0
C503 C 0.4246 0.7467 0.83754 0.0
C504 C 0.41292 0.72475 0.80171 0.0
C505 C 0.42709 0.70886 0.79011 0.0
C506 C 0.37322 0.77823 0.85067 0.0
C507 C 0.39369 0.80824 0.85819 0.0
C508 C 0.38296 0.75791 0.84392 0.0
C509 C 0.41329 0.76739 0.84461 0.0
C510 C 0.43354 0.79748 0.85122 0.0
C511 C 0.4239 0.81753 0.85816 0.0
H512 H 0.20582 0.59444 0.94086 0.0
H513 H 0.21206 0.57677 0.79062 0.0
H514 H 0.24063 0.64659 0.9278 0.0
H515 H 0.24674 0.62912 0.7772 0.0
H516 H 0.31493 0.72735 0.77181 0.0
H517 H 0.29445 0.6755 0.79413 0.0
H518 H 0.23021 0.68098 0.88463 0.0
H519 H 0.25058 0.73234 0.86295 0.0
C520 C 0.21532 0.60165 0.90529 0.0
C521 C 0.20623 0.58166 0.86668 0.0
C522 C 0.23511 0.6315 0.89775 0.0
C523 C 0.24594 0.64205 0.85128 0.0
C524 C 0.23888 0.62165 0.81347 0.0
C525 C 0.21913 0.59163 0.82114 0.0
C526 C 0.29664 0.71752 0.7969 0.0
C527 C 0.28417 0.73391 0.81519 0.0
C528 C 0.28491 0.68784 0.80954 0.0
C529 C 0.26077 0.67416 0.84118 0.0
C530 C 0.2491 0.69093 0.86074 0.0
C531 C 0.26061 0.72038 0.8479 0.0
H532 H 0.26674 0.57652 0.77591 0.0
H533 H 0.25963 0.49839 0.84177 0.0
H534 H 0.3183 0.60471 0.80098 0.0
H535 H 0.31093 0.52634 0.86588 0.0
H536 H 0.41722 0.62536 0.79402 0.0
H537 H 0.36483 0.6062 0.77886 0.0
H538 H 0.34431 0.56546 0.91975 0.0
H539 H 0.39661 0.58441 0.93448 0.0
C540 C 0.2761 0.56536 0.79579 0.0
C541 C 0.2591 0.53512 0.80651 0.0
C542 C 0.30563 0.58152 0.81003 0.0
C543 C 0.31864 0.56778 0.8355 0.0
C544 C 0.30144 0.53772 0.84701 0.0
C545 C 0.27205 0.52159 0.83274 0.0
C546 C 0.40158 0.61325 0.82232 0.0
C547 C 0.4109 0.60637 0.86536 0.0
C548 C 0.37155 0.60213 0.81361 0.0
C549 C 0.35043 0.58395 0.84787 0.0
C550 C 0.36003 0.57888 0.89227 0.0
C551 C 0.38994 0.58984 0.90081 0.0
H552 H 0.74499 0.48142 0.64446 0.0
H553 H 0.67297 0.40511 0.71276 0.0
H554 H 0.76597 0.45147 0.61876 0.0
H555 H 0.69402 0.37508 0.6865 0.0
H556 H 0.77375 0.35598 0.6988 0.0
H557 H 0.73958 0.37422 0.7106 0.0
H558 H 0.75787 0.40999 0.56618 0.0
H559 H 0.79191 0.39152 0.55445 0.0
C560 C 0.73348 0.45821 0.65361 0.0
C561 C 0.70755 0.44578 0.68126 0.0
C562 C 0.74533 0.44095 0.63842 0.0
C563 C 0.73158 0.41091 0.65061 0.0
C564 C 0.70515 0.39822 0.6769 0.0
C565 C 0.69315 0.41545 0.69188 0.0
C566 C 0.76938 0.36645 0.66887 0.0
C567 C 0.78536 0.37227 0.62575 0.0
C568 C 0.74998 0.37713 0.67568 0.0
C569 C 0.74645 0.39392 0.63952 0.0
C570 C 0.76058 0.39755 0.59494 0.0
C571 C 0.77993 0.38688 0.58817 0.0
H572 H 0.58243 0.39403 0.5562 0.0
H573 H 0.62085 0.41136 0.69852 0.0
H574 H 0.56271 0.34134 0.56834 0.0
H575 H 0.6015 0.35877 0.7106 0.0
H576 H 0.57263 0.26138 0.70871 0.0
H577 H 0.60098 0.31299 0.68447 0.0
H578 H 0.52261 0.30676 0.62164 0.0
H579 H 0.49431 0.25526 0.64536 0.0
C580 C 0.58728 0.38661 0.58964 0.0
C581 C 0.60341 0.40681 0.62633 0.0
C582 C 0.57589 0.35648 0.59665 0.0
C583 C 0.58031 0.34592 0.64058 0.0
C584 C 0.59801 0.36626 0.67612 0.0
C585 C 0.60936 0.39645 0.6691 0.0
C586 C 0.56148 0.27094 0.68938 0.0
C587 C 0.53109 0.25426 0.67944 0.0
C588 C 0.57775 0.30052 0.67561 0.0
C589 C 0.56403 0.31392 0.65125 0.0
C590 C 0.5339 0.29696 0.63986 0.0
C591 C 0.51761 0.26748 0.65384 0.0
H592 H 0.56859 0.20279 0.69848 0.0
H593 H 0.58717 0.1815 0.55717 0.0
H594 H 0.62116 0.23556 0.71205 0.0
H595 H 0.6398 0.21406 0.57074 0.0
H596 H 0.72488 0.23086 0.65051 0.0
H597 H 0.67352 0.20791 0.62548 0.0
H598 H 0.66739 0.28044 0.68687 0.0
H599 H 0.71864 0.30334 0.71246 0.0
C600 C 0.58379 0.2061 0.66957 0.0
C601 C 0.57381 0.18981 0.62672 0.0
C602 C 0.61396 0.22466 0.67745 0.0
C603 C 0.63459 0.22703 0.64266 0.0
C604 C 0.62442 0.21224 0.59851 0.0
C605 C 0.59433 0.19377 0.59066 0.0
C606 C 0.71268 0.24202 0.65844 0.0
C607 C 0.7258 0.26874 0.68399 0.0
C608 C 0.68331 0.22901 0.64372 0.0
C609 C 0.66645 0.24241 0.65429 0.0
C610 C 0.67978 0.2695 0.67866 0.0
C611 C 0.70917 0.28259 0.69321 0.0
H612 H 0.56521 0.57291 0.94319 0.0
H613 H 0.48253 0.51403 0.87307 0.0
H614 H 0.55214 0.53948 0.00957 0.0
H615 H 0.47065 0.47854 0.93779 0.0
H616 H 0.4367 0.43565 0.07946 0.0
H617 H 0.45285 0.47201 0.01508 0.0
H618 H 0.54367 0.49933 0.04876 0.0
H619 H 0.52772 0.46569 0.11528 0.0
C620 C 0.54475 0.5521 0.94067 0.0
C621 C 0.52427 0.5469 0.90372 0.0
C622 C 0.53712 0.5327 0.97933 0.0
C623 C 0.50954 0.50668 0.98069 0.0
C624 C 0.49128 0.49919 0.93965 0.0
C625 C 0.4985 0.51916 0.90163 0.0
C626 C 0.46011 0.45032 0.07419 0.0
C627 C 0.4808 0.44718 0.10198 0.0
C628 C 0.46945 0.4707 0.03639 0.0
C629 C 0.49964 0.48794 0.02494 0.0
C630 C 0.52025 0.48666 0.05581 0.0
C631 C 0.51098 0.4671 0.09444 0.0
H632 H 0.52944 0.06539 0.09473 0.0
H633 H 0.55167 -0.00199 0.06314 0.0
H634 H 0.49762 0.0508 0.02545 0.0
H635 H 0.51727 0.98139 0.99561 0.0
H636 H 0.47382 0.96831 0.85613 0.0
H637 H 0.51156 0.9935 0.91705 0.0
H638 H 0.45428 0.0177 0.99178 0.0
H639 H 0.41761 0.99419 0.92991 0.0
C640 C 0.52686 0.04675 0.07391 0.0
C641 C 0.54358 0.03312 0.08437 0.0
C642 C 0.50844 0.03835 0.03379 0.0
C643 C 0.50517 0.01526 0.00391 0.0
C644 C 0.52006 5e-05 0.01655 0.0
C645 C 0.53931 0.0091 0.05598 0.0
C646 C 0.46985 0.9802 0.88436 0.0
C647 C 0.44207 0.97797 0.88929 0.0
C648 C 0.4913 0.99413 0.92002 0.0
C649 C 0.48552 0.0064 0.96085 0.0
C650 C 0.45962 0.00821 0.96147 0.0
C651 C 0.43841 0.9947 0.9255 0.0
H652 H 0.96299 0.48205 0.14513 0.0
H653 H -0.00487 0.56897 0.08516 0.0
H654 H -0.00635 0.47373 0.0889 0.0
H655 H 0.0246 0.56025 0.02796 0.0
H656 H 0.07678 0.53741 0.92661 0.0
H657 H 0.05975 0.55054 0.99824 0.0
H658 H 0.9853 0.46193 0.00627 0.0
H659 H 0.00375 0.44811 0.93612 0.0
C660 C 0.97742 0.49986 0.12128 0.0
C661 C 0.97533 0.52554 0.11782 0.0
C662 C -0.0054 0.49484 0.08831 0.0
C663 C 0.01029 0.5156 0.052 0.0
C664 C 0.01236 0.54338 0.0546 0.0
C665 C -0.00457 0.54849 0.08786 0.0
C666 C 0.05653 0.52068 0.94311 0.0
C667 C 0.04162 0.49156 0.92543 0.0
C668 C 0.04683 0.52828 0.98461 0.0
C669 C 0.02141 0.50726 0.00884 0.0
C670 C 0.00557 0.47852 0.98966 0.0
C671 C 0.01572 0.47069 0.94875 0.0
H672 H 0.43407 0.44414 0.43413 0.0
H673 H 0.45264 0.53411 0.42216 0.0
H674 H 0.467 0.45809 0.5034 0.0
H675 H 0.48337 0.5474 0.49301 0.0
H676 H 0.56638 0.565 0.57857 0.0
H677 H 0.52797 0.55645 0.52214 0.0
H678 H 0.47159 0.47079 0.58553 0.0
H679 H 0.5109 0.47894 0.64101 0.0
C680 C 0.44534 0.46689 0.446 0.0
C681 C 0.44071 0.48789 0.42231 0.0
C682 C 0.46369 0.47481 0.48643 0.0
C683 C 0.47736 0.50379 0.50476 0.0
C684 C 0.47343 0.52494 0.48006 0.0
C685 C 0.45578 0.51724 0.439 0.0
C686 C 0.54539 0.54481 0.58206 0.0
C687 C 0.54231 0.52197 0.61249 0.0
C688 C 0.52321 0.53978 0.5492 0.0
C689 C 0.49715 0.51222 0.54749 0.0
C690 C 0.49198 0.4917 0.58427 0.0
C691 C 0.51434 0.49662 0.6168 0.0
H692 H 0.56063 0.98997 0.42448 0.0
H693 H 0.47642 0.95985 0.35531 0.0
H694 H 0.54859 0.01548 0.48411 0.0
H695 H 0.46492 0.98722 0.4137 0.0
H696 H 0.43182 0.99329 0.5618 0.0
H697 H 0.44877 0.97686 0.49295 0.0
H698 H 0.53784 0.04782 0.51807 0.0
H699 H 0.52154 0.06205 0.58889 0.0
C700 C 0.5401 0.99003 0.42034 0.0
C701 C 0.51878 0.97145 0.38669 0.0
C702 C 0.53303 0.00472 0.4551 0.0
C703 C 0.505 0.00221 0.45553 0.0
C704 C 0.48606 0.98832 0.41617 0.0
C705 C 0.49296 0.97317 0.38185 0.0
C706 C 0.45512 0.00479 0.55323 0.0
C707 C 0.47514 0.02905 0.5809 0.0
C708 C 0.46483 -0.00414 0.51304 0.0
C709 C 0.49468 0.01147 0.49876 0.0
C710 C 0.51477 0.035 0.52765 0.0
C711 C 0.50528 0.04322 0.56866 0.0
H712 H 0.98583 0.43588 0.5722 0.0
H713 H 0.91832 0.45867 0.59897 0.0
H714 H 0.00463 0.47125 0.50613 0.0
H715 H 0.93525 0.49164 0.53103 0.0
H716 H -0.00371 0.57316 0.44107 0.0
H717 H 0.97 0.53542 0.50033 0.0
H718 H -0.00541 0.47811 0.42674 0.0
H719 H 0.02247 0.51687 0.36845 0.0
C720 C 0.9752 0.4486 0.56436 0.0
C721 C 0.95047 0.44418 0.59088 0.0
C722 C 0.9855 0.4684 0.52571 0.0
C723 C 0.97094 0.48377 0.51204 0.0
C724 C 0.94718 0.4804 0.54021 0.0
C725 C 0.93746 0.46136 0.57957 0.0
C726 C -0.00478 0.55214 0.43616 0.0
C727 C 0.01271 0.5486 0.40127 0.0
C728 C 0.98013 0.53033 0.47067 0.0
C729 C 0.98124 0.50405 0.46981 0.0
C730 C -0.00559 0.4986 0.42988 0.0
C731 C 0.00989 0.52062 0.39573 0.0
H732 H 0.44683 0.3558 0.91609 0.0
H733 H 0.50124 0.44567 0.96332 0.0
H734 H 0.46123 0.37156 0.83233 0.0
H735 H 0.51537 0.46148 0.881 0.0
H736 H 0.55459 0.4889 0.7444 0.0
H737 H 0.51057 0.46848 0.79558 0.0
H738 H 0.5104 0.386 0.80317 0.0
H739 H 0.55377 0.40629 0.75228 0.0
C740 C 0.46085 0.37904 0.90839 0.0
C741 C 0.47344 0.39949 0.94608 0.0
C742 C 0.46914 0.38809 0.86052 0.0
C743 C 0.48989 0.41771 0.84992 0.0
C744 C 0.49929 0.43854 0.8874 0.0
C745 C 0.49138 0.42945 0.9349 0.0
C746 C 0.54423 0.46601 0.75531 0.0
C747 C 0.55789 0.44936 0.74578 0.0
C748 C 0.51911 0.45432 0.78471 0.0
C749 C 0.50741 0.42586 0.80458 0.0
C750 C 0.51871 0.40796 0.78879 0.0
C751 C 0.54382 0.41969 0.75992 0.0
H752 H 0.56567 0.03258 0.94197 0.0
H753 H 0.63301 0.12333 0.92383 0.0
H754 H 0.54701 0.03238 0.86084 0.0
H755 H 0.61385 0.1241 0.84476 0.0
H756 H 0.57346 0.13159 0.71707 0.0
H757 H 0.59995 0.11323 0.76514 0.0
H758 H 0.51818 0.05214 0.83613 0.0
H759 H 0.49195 0.06929 0.78556 0.0
C760 C 0.57707 0.0521 0.91975 0.0
C761 C 0.60076 0.07793 0.93857 0.0
C762 C 0.56619 0.0522 0.87365 0.0
C763 C 0.57829 0.07841 0.84645 0.0
C764 C 0.60391 0.10334 0.86391 0.0
C765 C 0.61502 0.10303 0.90949 0.0
C766 C 0.56116 0.11325 0.74141 0.0
C767 C 0.53085 0.10178 0.74798 0.0
C768 C 0.5763 0.10294 0.76943 0.0
C769 C 0.5615 0.08182 0.80583 0.0
C770 C 0.53053 0.0683 0.80857 0.0
C771 C 0.51534 0.07815 0.77966 0.0
H772 H 0.91756 0.43037 0.73996 0.0
H773 H 0.83353 0.42446 0.76565 0.0
H774 H 0.94191 0.47573 0.78778 0.0
H775 H 0.85738 0.46904 0.81359 0.0
H776 H 0.89483 0.5382 0.916 0.0
H777 H 0.89075 0.52009 0.83327 0.0
H778 H 0.93848 0.47601 0.87477 0.0
H779 H 0.9428 0.49441 0.95631 0.0
C780 C 0.90447 0.43938 0.75425 0.0
C781 C 0.87363 0.42363 0.7502 0.0
C782 C 0.91836 0.46526 0.78183 0.0
C783 C 0.90157 0.47575 0.80542 0.0
C784 C 0.87115 0.46182 0.79602 0.0
C785 C 0.85734 0.43599 0.76891 0.0
C786 C 0.90561 0.52582 0.90662 0.0
C787 C 0.91852 0.51708 0.9425 0.0
C788 C 0.90312 0.51526 0.85939 0.0
C789 C 0.91359 0.49593 0.84762 0.0
C790 C 0.9301 0.49076 0.88224 0.0
C791 C 0.93239 0.50112 0.92926 0.0
H792 H 0.49463 0.5708 0.70557 0.0
H793 H 0.41688 0.55098 0.78719 0.0
H794 H 0.46622 0.52671 0.6572 0.0
H795 H 0.38825 0.5058 0.74045 0.0
H796 H 0.41436 0.45901 0.556 0.0
H797 H 0.43545 0.47648 0.63633 0.0
H798 H 0.37207 0.50503 0.661 0.0
H799 H 0.35075 0.4866 0.5822 0.0
C800 C 0.47172 0.55602 0.71473 0.0
C801 C 0.45776 0.56407 0.74964 0.0
C802 C 0.45532 0.53061 0.68714 0.0
C803 C 0.42465 0.51291 0.69413 0.0
C804 C 0.41163 0.51927 0.73334 0.0
C805 C 0.42801 0.54492 0.76044 0.0
C806 C 0.40412 0.46761 0.57993 0.0
C807 C 0.38095 0.47143 0.56348 0.0
C808 C 0.41638 0.47797 0.62557 0.0
C809 C 0.40601 0.49285 0.65479 0.0
C810 C 0.38063 0.49355 0.64002 0.0
C811 C 0.3683 0.483 0.5947 0.0
H812 H 0.44601 0.87698 0.7861 0.0
H813 H 0.41101 0.91816 0.69372 0.0
H814 H 0.4913 0.89852 0.73807 0.0
H815 H 0.45506 0.93861 0.64442 0.0
H816 H 0.52144 0.96062 0.54144 0.0
H817 H 0.50421 0.96524 0.62103 0.0
H818 H 0.49675 0.88211 0.66241 0.0
H819 H 0.51558 0.87882 0.58409 0.0
C820 C 0.44861 0.89159 0.7565 0.0
C821 C 0.42534 0.89602 0.74313 0.0
C822 C 0.47434 0.9037 0.7287 0.0
C823 C 0.47672 0.91977 0.68653 0.0
C824 C 0.45443 0.92663 0.67663 0.0
C825 C 0.42896 0.91479 0.7047 0.0
C826 C 0.51764 0.9443 0.56877 0.0
C827 C 0.5197 0.91936 0.55715 0.0
C828 C 0.50742 0.94668 0.61415 0.0
C829 C 0.49809 0.92358 0.64781 0.0
C830 C 0.5037 0.90044 0.63781 0.0
C831 C 0.51448 0.89841 0.59277 0.0
H832 H 0.07774 0.49894 0.70524 0.0
H833 H 0.133 0.5785 0.78476 0.0
H834 H 0.05728 0.52397 0.65978 0.0
H835 H 0.11141 0.6038 0.74116 0.0
H836 H 0.11816 0.64222 0.58585 0.0
H837 H 0.12074 0.62226 0.66334 0.0
H838 H 0.03244 0.54879 0.64221 0.0
H839 H 0.0311 0.56825 0.56283 0.0
C840 C 0.08443 0.52155 0.71438 0.0
C841 C 0.10689 0.53697 0.74799 0.0
C842 C 0.07258 0.53601 0.68856 0.0
C843 C 0.08297 0.56627 0.696 0.0
C844 C 0.10336 0.58075 0.73355 0.0
C845 C 0.11554 0.56629 0.75889 0.0
C846 C 0.09882 0.62258 0.59898 0.0
C847 C 0.07451 0.60669 0.56874 0.0
C848 C 0.10019 0.61098 0.6436 0.0
C849 C 0.07712 0.58328 0.65874 0.0
C850 C 0.05103 0.56964 0.63112 0.0
C851 C 0.04998 0.58098 0.58599 0.0
H852 H 0.43117 0.50812 0.26265 0.0
H853 H 0.42462 0.58612 0.24047 0.0
H854 H 0.47654 0.52999 0.21469 0.0
H855 H 0.46914 0.6077 0.1924 0.0
H856 H 0.53777 0.64078 0.08853 0.0
H857 H 0.51972 0.6261 0.17116 0.0
H858 H 0.47732 0.53452 0.12839 0.0
H859 H 0.49574 0.54926 0.04708 0.0
C860 C 0.44005 0.53037 0.24912 0.0
C861 C 0.4241 0.54519 0.25414 0.0
C862 C 0.46593 0.54285 0.22141 0.0
C863 C 0.4762 0.57036 0.19865 0.0
C864 C 0.46212 0.58656 0.20921 0.0
C865 C 0.43631 0.57406 0.23648 0.0
C866 C 0.52574 0.61757 0.0976 0.0
C867 C 0.51752 0.59614 0.06145 0.0
C868 C 0.5152 0.6091 0.14478 0.0
C869 C 0.49635 0.57914 0.15623 0.0
C870 C 0.49167 0.55777 0.12126 0.0
C871 C 0.50204 0.56622 0.07433 0.0
H872 H 0.44696 0.94718 0.03762 0.0
H873 H 0.35618 0.90382 0.0841 0.0
H874 H 0.46262 0.94581 0.11926 0.0
H875 H 0.37191 0.90302 0.16695 0.0
H876 H 0.40811 0.8454 0.23914 0.0
H877 H 0.3878 0.86914 0.19021 0.0
H878 H 0.46892 0.95234 0.20535 0.0
H879 H 0.48942 0.92796 0.25448 0.0
C880 C 0.43042 0.93829 0.06584 0.0
C881 C 0.4003 0.92465 0.05443 0.0
C882 C 0.43943 0.93782 0.11296 0.0
C883 C 0.41844 0.92351 0.14959 0.0
C884 C 0.38856 0.91359 0.13928 0.0
C885 C 0.37953 0.91414 0.09191 0.0
C886 C 0.42123 0.86898 0.23339 0.0
C887 C 0.45054 0.88473 0.24931 0.0
C888 C 0.40947 0.88277 0.20568 0.0
C889 C 0.42694 0.9126 0.19283 0.0
C890 C 0.45509 0.9292 0.21391 0.0
C891 C 0.46681 0.91533 0.24218 0.0
H892 H 0.03957 0.46206 0.05859 0.0
H893 H 0.13227 0.49584 0.08245 0.0
H894 H 0.03499 0.47787 0.13993 0.0
H895 H 0.12824 0.51222 0.16242 0.0
H896 H 0.12691 0.55216 0.29244 0.0
H897 H 0.11152 0.50816 0.24321 0.0
H898 H 0.0523 0.52793 0.16422 0.0
H899 H 0.06688 0.57092 0.21506 0.0
C900 C 0.05863 0.47175 0.08212 0.0
C901 C 0.08624 0.47771 0.06488 0.0
C902 C 0.05612 0.48106 0.12835 0.0
C903 C 0.08127 0.49673 0.15754 0.0
C904 C 0.10825 0.49994 0.14153 0.0
C905 C 0.1107 0.49065 0.09554 0.0
C906 C 0.1094 0.546 0.26628 0.0
C907 C 0.09801 0.56468 0.25718 0.0
C908 C 0.10079 0.52103 0.23774 0.0
C909 C 0.08134 0.51496 0.19878 0.0
C910 C 0.06727 0.53176 0.19386 0.0
C911 C 0.0756 0.55649 0.22294 0.0
H912 H 0.49547 0.41505 0.29398 0.0
H913 H 0.57635 0.43911 0.21878 0.0
H914 H 0.52024 0.45984 0.34135 0.0
H915 H 0.60134 0.48545 0.26377 0.0
H916 H 0.63758 0.51339 0.42044 0.0
H917 H 0.61857 0.49296 0.34157 0.0
H918 H 0.54567 0.50865 0.36309 0.0
H919 H 0.56415 0.52725 0.44391 0.0
C920 C 0.51834 0.43081 0.28617 0.0
C921 C 0.53422 0.4238 0.25348 0.0
C922 C 0.53268 0.45674 0.31307 0.0
C923 C 0.5632 0.47627 0.30741 0.0
C924 C 0.57811 0.47061 0.27028 0.0
C925 C 0.56383 0.44428 0.24412 0.0
C926 C 0.61828 0.51373 0.4072 0.0
C927 C 0.60222 0.5217 0.43786 0.0
C928 C 0.60722 0.50198 0.36174 0.0
C929 C 0.5799 0.49816 0.34614 0.0
C930 C 0.56619 0.51025 0.37445 0.0
C931 C 0.57697 0.5214 0.42044 0.0
H932 H 0.47567 0.11914 0.42392 0.0
H933 H 0.45568 0.02922 0.43798 0.0
H934 H 0.49726 0.12236 0.34547 0.0
H935 H 0.47576 0.03137 0.35738 0.0
H936 H 0.5688 0.07179 0.286 0.0
H937 H 0.52442 0.05268 0.33453 0.0
H938 H 0.50356 0.11439 0.26633 0.0
H939 H 0.54951 0.13478 0.2206 0.0
C940 C 0.47443 0.09948 0.40871 0.0
C941 C 0.46421 0.07399 0.43665 0.0
C942 C 0.48683 0.10121 0.36346 0.0
C943 C 0.48909 0.07731 0.34514 0.0
C944 C 0.47533 0.05052 0.3709 0.0
C945 C 0.46342 0.04905 0.41672 0.0
C946 C 0.5541 0.08048 0.28039 0.0
C947 C 0.56243 0.10479 0.25021 0.0
C948 C 0.52845 0.06946 0.30805 0.0
C949 C 0.5105 0.08244 0.30553 0.0
C950 C 0.51725 0.10447 0.27058 0.0
C951 C 0.54334 0.11596 0.24389 0.0
H952 H 0.86244 0.41712 0.21724 0.0
H953 H 0.9174 0.49666 0.29706 0.0
H954 H 0.88131 0.39088 0.26496 0.0
H955 H 0.93518 0.4706 0.34665 0.0
H956 H 0.95439 0.42294 0.45054 0.0
H957 H 0.95699 0.44297 0.36969 0.0
H958 H 0.86715 0.37404 0.34357 0.0
H959 H 0.86556 0.35363 0.42263 0.0
C960 C 0.8794 0.42915 0.24396 0.0
C961 C 0.88855 0.4587 0.25391 0.0
C962 C 0.89 0.41414 0.27165 0.0
C963 C 0.90917 0.42829 0.3107 0.0
C964 C 0.92061 0.45882 0.31692 0.0
C965 C 0.91036 0.47388 0.28865 0.0
C966 C 0.93591 0.41139 0.42622 0.0
C967 C 0.90981 0.38683 0.44225 0.0
C968 C 0.93718 0.42302 0.38027 0.0
C969 C 0.91204 0.41074 0.35047 0.0
C970 C 0.88711 0.38417 0.36496 0.0
C971 C 0.88606 0.37235 0.41048 0.0
H972 H 0.34715 0.39878 0.35187 0.0
H973 H 0.28892 0.37685 0.22923 0.0
H974 H 0.36219 0.36413 0.32367 0.0
H975 H 0.30446 0.34259 0.20074 0.0
H976 H 0.37584 0.29094 0.27031 0.0
H977 H 0.34314 0.30818 0.30036 0.0
H978 H 0.35877 0.35972 0.17096 0.0
H979 H 0.39186 0.34307 0.14133 0.0
C980 C 0.33707 0.38608 0.31954 0.0
C981 C 0.31711 0.39076 0.29251 0.0
C982 C 0.34552 0.36611 0.3036 0.0
C983 C 0.33451 0.35085 0.25998 0.0
C984 C 0.31322 0.35415 0.23447 0.0
C985 C 0.30433 0.37371 0.2509 0.0
C986 C 0.37153 0.30519 0.24761 0.0
C987 C 0.38655 0.31591 0.20367 0.0
C988 C 0.35296 0.31512 0.26495 0.0
C989 C 0.34862 0.33531 0.23803 0.0
C990 C 0.3616 0.34396 0.19222 0.0
C991 C 0.38062 0.33455 0.17537 0.0
H992 H 0.59642 0.94349 0.35749 0.0
H993 H 0.61076 0.90501 0.22985 0.0
H994 H 0.63093 0.99259 0.32718 0.0
H995 H 0.64496 0.95435 0.19909 0.0
H996 H 0.6412 0.04087 0.14566 0.0
H997 H 0.62683 0.9915 0.17441 0.0
H998 H 0.68503 0.02885 0.29658 0.0
H999 H 0.69989 0.07838 0.26749 0.0
C1000 C 0.60762 0.94553 0.32365 0.0
C1001 C 0.60073 0.92052 0.2958 0.0
C1002 C 0.62749 0.9736 0.30642 0.0
C1003 C 0.6404 0.97714 0.2607 0.0
C1004 C 0.63523 0.95209 0.23444 0.0
C1005 C 0.61577 0.92393 0.25215 0.0
C1006 C 0.65159 0.03857 0.17785 0.0
C1007 C 0.67135 0.06343 0.20465 0.0
C1008 C 0.64353 0.01034 0.19411 0.0
C1009 C 0.65477 0.0065 0.2378 0.0
C1010 C 0.6761 0.03134 0.2628 0.0
C1011 C 0.68459 0.05962 0.24606 0.0
H1012 H 0.0795 0.70498 0.23502 0.0
H1013 H 0.03973 0.65013 0.36027 0.0
H1014 H 0.03051 0.68918 0.20218 0.0
H1015 H 0.99089 0.63484 0.32776 0.0
H1016 H 0.94596 0.59943 0.14292 0.0
H1017 H -0.00541 0.63442 0.17458 0.0
H1018 H 0.95422 0.65186 0.29633 0.0
H1019 H 0.90542 0.61719 0.2643 0.0
C1020 C 0.06034 0.69042 0.25638 0.0
C1021 C 0.06339 0.67848 0.29997 0.0
C1022 C 0.03236 0.68134 0.23744 0.0
C1023 C 0.00704 0.66072 0.26234 0.0
C1024 C 0.01008 0.65094 0.30801 0.0
C1025 C 0.03802 0.65957 0.32651 0.0
C1026 C 0.94744 0.61142 0.17561 0.0
C1027 C 0.92193 0.60536 0.20138 0.0
C1028 C 0.97526 0.63157 0.19359 0.0
C1029 C 0.97805 0.64564 0.23802 0.0
C1030 C 0.95256 0.64121 0.26204 0.0
C1031 C 0.92469 0.62147 0.24356 0.0
H1032 H 0.6007 0.6487 0.86165 0.0
H1033 H 0.6172 0.70245 0.73455 0.0
H1034 H 0.63396 0.63252 0.83119 0.0
H1035 H 0.6502 0.68582 0.70377 0.0
H1036 H 0.70062 0.61225 0.77077 0.0
H1037 H 0.6871 0.64768 0.80129 0.0
H1038 H 0.63104 0.63119 0.6774 0.0
H1039 H 0.64412 0.59552 0.64722 0.0
C1040 C 0.61213 0.65773 0.82792 0.0
C1041 C 0.60612 0.67655 0.80024 0.0
C1042 C 0.63129 0.6486 0.81059 0.0
C1043 C 0.64441 0.65778 0.76496 0.0
C1044 C 0.64024 0.6784 0.73899 0.0
C1045 C 0.62148 0.68799 0.75676 0.0
C1046 C 0.68612 0.61685 0.74931 0.0
C1047 C 0.67311 0.60086 0.70689 0.0
C1048 C 0.67835 0.63705 0.7669 0.0
C1049 C 0.65798 0.64203 0.74178 0.0
C1050 C 0.647 0.62794 0.69726 0.0
C1051 C 0.65433 0.60737 0.68015 0.0
H1052 H 0.28296 0.90367 0.73547 0.0
H1053 H 0.33541 0.94411 0.8627 0.0
H1054 H 0.29764 0.95248 0.70287 0.0
H1055 H 0.34961 0.99271 0.8305 0.0
H1056 H 0.38717 0.03794 0.64607 0.0
H1057 H 0.35222 0.98915 0.67708 0.0
H1058 H 0.33281 0.02881 0.79764 0.0
H1059 H 0.36749 0.07776 0.76631 0.0
C1060 C 0.29661 0.9229 0.75735 0.0
C1061 C 0.30835 0.92019 0.80138 0.0
C1062 C 0.30511 0.95079 0.73854 0.0
C1063 C 0.32489 0.97627 0.76403 0.0
C1064 C 0.33416 0.97341 0.81025 0.0
C1065 C 0.32615 0.94561 0.8286 0.0
C1066 C 0.37482 0.03627 0.6784 0.0
C1067 C 0.38034 0.06164 0.70406 0.0
C1068 C 0.35465 0.00835 0.69597 0.0
C1069 C 0.33997 0.00531 0.73986 0.0
C1070 C 0.3439 0.03064 0.76375 0.0
C1071 C 0.36371 0.05861 0.7457 0.0
H1072 H 0.94243 0.34495 0.64874 0.0
H1073 H 0.90566 0.29198 0.77679 0.0
H1074 H 0.99206 0.36116 0.67869 0.0
H1075 H 0.95546 0.30885 0.80719 0.0
H1076 H 0.0435 0.39927 0.85822 0.0
H1077 H 0.99341 0.36547 0.83046 0.0
H1078 H 0.02807 0.34156 0.70824 0.0
H1079 H 0.07824 0.37486 0.73636 0.0
C1080 C 0.94497 0.33624 0.6827 0.0
C1081 C 0.92025 0.31738 0.71057 0.0
C1082 C 0.97332 0.34539 0.69971 0.0
C1083 C 0.97741 0.33626 0.74526 0.0
C1084 C 0.95274 0.3161 0.77194 0.0
C1085 C 0.92433 0.30642 0.75442 0.0
C1086 C 0.04043 0.38617 0.82622 0.0
C1087 C 0.06475 0.38991 0.79923 0.0
C1088 C 0.01179 0.36673 0.8105 0.0
C1089 C 0.00706 0.35112 0.76714 0.0
C1090 C 0.03128 0.35342 0.74177 0.0
C1091 C 0.05992 0.3724 0.75801 0.0
H1092 H 0.40554 0.16684 0.8493 0.0
H1093 H 0.49492 0.20165 0.89967 0.0
H1094 H 0.39338 0.18348 0.92348 0.0
H1095 H 0.48341 0.21959 0.97212 0.0
H1096 H 0.46104 0.24962 0.10354 0.0
H1097 H 0.46026 0.21388 0.04637 0.0
H1098 H 0.40274 0.22868 0.95307 0.0
H1099 H 0.40225 0.26277 0.01097 0.0
C1100 C 0.42254 0.17791 0.87629 0.0
C1101 C 0.45128 0.18327 0.86825 0.0
C1102 C 0.41563 0.18757 0.91882 0.0
C1103 C 0.43746 0.2033 0.95384 0.0
C1104 C 0.46579 0.20723 0.94665 0.0
C1105 C 0.47254 0.19716 0.90462 0.0
C1106 C 0.4475 0.2445 0.07153 0.0
C1107 C 0.43228 0.25962 0.06137 0.0
C1108 C 0.44729 0.22421 0.0384 0.0
C1109 C 0.4321 0.21887 0.99424 0.0
C1110 C 0.41467 0.23196 0.9865 0.0
C1111 C 0.41459 0.25187 0.01978 0.0
H1112 H 0.73869 0.20546 0.10979 0.0
H1113 H 0.7287 0.13485 0.01672 0.0
H1114 H 0.77362 0.24139 0.05291 0.0
H1115 H 0.76198 0.17037 0.95906 0.0
H1116 H 0.8195 0.23628 0.85351 0.0
H1117 H 0.80588 0.20803 0.92832 0.0
H1118 H 0.76515 0.25733 0.97913 0.0
H1119 H 0.78011 0.28633 0.90591 0.0
C1120 C 0.74441 0.19755 0.07781 0.0
C1121 C 0.73023 0.16728 0.0672 0.0
C1122 C 0.76423 0.21817 0.04485 0.0
C1123 C 0.76997 0.20891 0.00047 0.0
C1124 C 0.75825 0.17856 0.99262 0.0
C1125 C 0.73882 0.15802 0.02575 0.0
C1126 C 0.80804 0.24132 0.88109 0.0
C1127 C 0.80047 0.26321 0.87347 0.0
C1128 C 0.80016 0.2251 0.92399 0.0
C1129 C 0.78402 0.23002 0.95979 0.0
C1130 C 0.77792 0.25305 0.95301 0.0
C1131 C 0.78623 0.26956 0.91057 0.0
H1132 H 0.7813 0.52337 0.10393 0.0
H1133 H 0.85042 0.58317 0.00785 0.0
H1134 H 0.74442 0.52156 0.04825 0.0
H1135 H 0.81398 0.58027 0.95154 0.0
H1136 H 0.7466 0.57417 0.85175 0.0
H1137 H 0.77623 0.58776 0.92502 0.0
H1138 H 0.72662 0.49743 0.9742 0.0
H1139 H 0.69618 0.48439 0.90241 0.0
C1140 C 0.78867 0.53658 0.07147 0.0
C1141 C 0.8188 0.55288 0.0599 0.0
C1142 C 0.76751 0.53533 0.03925 0.0
C1143 C 0.77608 0.55018 0.99469 0.0
C1144 C 0.80633 0.5686 0.98542 0.0
C1145 C 0.82739 0.57008 0.01775 0.0
C1146 C 0.74177 0.55737 0.87868 0.0
C1147 C 0.71938 0.52812 0.871 0.0
C1148 C 0.75881 0.56512 0.92066 0.0
C1149 C 0.75424 0.54364 0.9554 0.0
C1150 C 0.73068 0.51473 0.94878 0.0
C1151 C 0.71331 0.50713 0.90725 0.0
H1152 H 0.2436 0.39038 0.45687 0.0
H1153 H 0.25664 0.47387 0.40561 0.0
H1154 H 0.20747 0.38773 0.51499 0.0
H1155 H 0.22236 0.47241 0.46538 0.0
H1156 H 0.1642 0.47046 0.58094 0.0
H1157 H 0.17875 0.45695 0.50594 0.0
H1158 H 0.21372 0.411 0.58794 0.0
H1159 H 0.19753 0.42295 0.66192 0.0
C1160 C 0.23827 0.40786 0.45738 0.0
C1161 C 0.25335 0.43257 0.42737 0.0
C1162 C 0.21782 0.40657 0.4911 0.0
C1163 C 0.21266 0.43035 0.49639 0.0
C1164 C 0.22555 0.45359 0.46277 0.0
C1165 C 0.24543 0.45451 0.42831 0.0
C1166 C 0.17448 0.45696 0.58264 0.0
C1167 C 0.18007 0.44808 0.62732 0.0
C1168 C 0.18298 0.44931 0.53965 0.0
C1169 C 0.19789 0.4332 0.54048 0.0
C1170 C 0.20192 0.423 0.58527 0.0
C1171 C 0.19286 0.4301 0.62805 0.0
H1172 H 0.5163 0.69042 0.58597 0.0
H1173 H 0.5647 0.77066 0.66831 0.0
H1174 H 0.5274 0.71917 0.51197 0.0
H1175 H 0.57444 0.79941 0.59533 0.0
H1176 H 0.59426 0.85016 0.46329 0.0
H1177 H 0.59684 0.81657 0.52118 0.0
H1178 H 0.5106 0.7478 0.4753 0.0
H1179 H 0.50903 0.78083 0.41576 0.0
C1180 C 0.52949 0.71421 0.5882 0.0
C1181 C 0.53935 0.72829 0.63304 0.0
C1182 C 0.53574 0.73073 0.54579 0.0
C1183 C 0.55154 0.76174 0.54738 0.0
C1184 C 0.56264 0.77564 0.59214 0.0
C1185 C 0.55684 0.75912 0.63433 0.0
C1186 C 0.57631 0.82756 0.46469 0.0
C1187 C 0.55127 0.81824 0.43558 0.0
C1188 C 0.57761 0.80835 0.49822 0.0
C1189 C 0.55356 0.77964 0.50418 0.0
C1190 C 0.52966 0.76963 0.47193 0.0
C1191 C 0.52867 0.78866 0.43768 0.0
H1192 H 0.29886 0.82024 0.58897 0.0
H1193 H 0.21899 0.78641 0.67309 0.0
H1194 H 0.26979 0.80537 0.51504 0.0
H1195 H 0.18993 0.77031 0.59989 0.0
H1196 H 0.20565 0.72788 0.41525 0.0
H1197 H 0.23991 0.7608 0.47527 0.0
H1198 H 0.17352 0.78 0.52765 0.0
H1199 H 0.13867 0.74561 0.46896 0.0
C1200 C 0.27509 0.80972 0.59165 0.0
C1201 C 0.26119 0.80417 0.6369 0.0
C1202 C 0.25841 0.80113 0.54926 0.0
C1203 C 0.22743 0.78641 0.55123 0.0
C1204 C 0.2137 0.78206 0.59656 0.0
C1205 C 0.23039 0.79104 0.63881 0.0
C1206 C 0.19863 0.73982 0.43857 0.0
C1207 C 0.16929 0.73368 0.43819 0.0
C1208 C 0.21837 0.75884 0.47313 0.0
C1209 C 0.20926 0.77248 0.50744 0.0
C1210 C 0.18096 0.76905 0.50298 0.0
C1211 C 0.16106 0.74959 0.46903 0.0
H1212 H 0.59695 0.74402 0.96458 0.0
H1213 H 0.51035 0.72281 0.91587 0.0
H1214 H 0.59692 0.77926 0.02205 0.0
H1215 H 0.50943 0.75667 0.97439 0.0
H1216 H 0.50997 0.81694 0.08566 0.0
H1217 H 0.52383 0.80183 0.01156 0.0
H1218 H 0.57248 0.77079 0.09558 0.0
H1219 H 0.55989 0.78717 0.16874 0.0
C1220 C 0.57822 0.74747 0.96541 0.0
C1221 C 0.55356 0.7306 0.93612 0.0
C1222 C 0.57803 0.76742 0.99862 0.0
C1223 C 0.55284 0.77027 0.00397 0.0
C1224 C 0.52933 0.75533 0.97136 0.0
C1225 C 0.52981 0.73584 0.93758 0.0
C1226 C 0.52402 0.8073 0.08806 0.0
C1227 C 0.53352 0.80288 0.13308 0.0
C1228 C 0.53192 0.79858 0.04561 0.0
C1229 C 0.54908 0.78481 0.04736 0.0
C1230 C 0.55969 0.78176 0.09238 0.0
C1231 C 0.5522 0.79089 0.13463 0.0
H1232 H 0.26919 0.78122 0.92222 0.0
H1233 H 0.24826 0.84797 0.96427 0.0
H1234 H 0.23396 0.74744 0.98063 0.0
H1235 H 0.21147 0.81361 0.0207 0.0
H1236 H 0.19728 0.76966 0.1693 0.0
H1237 H 0.21672 0.79794 0.09613 0.0
H1238 H 0.18788 0.71743 0.01529 0.0
H1239 H 0.16972 0.68913 0.08968 0.0
C1240 C 0.25615 0.78824 0.94267 0.0
C1241 C 0.26183 0.81735 0.93956 0.0
C1242 C 0.23579 0.76881 0.97618 0.0
C1243 C 0.2203 0.77797 0.00652 0.0
C1244 C 0.22374 0.80611 0.99928 0.0
C1245 C 0.2446 0.82574 0.96663 0.0
C1246 C 0.19463 0.75791 0.13584 0.0
C1247 C 0.18237 0.72719 0.13546 0.0
C1248 C 0.20558 0.77416 0.09351 0.0
C1249 C 0.20411 0.76008 0.04947 0.0
C1250 C 0.19 0.72911 0.04861 0.0
C1251 C 0.17946 0.71286 0.09122 0.0
H1252 H 0.20855 0.46199 0.88834 0.0
H1253 H 0.13798 0.40215 0.98223 0.0
H1254 H 0.24446 0.46184 0.94397 0.0
H1255 H 0.17352 0.40318 0.03861 0.0
H1256 H 0.23886 0.41072 0.14346 0.0
H1257 H 0.21108 0.39622 0.06819 0.0
H1258 H 0.26075 0.48633 0.01795 0.0
H1259 H 0.28927 0.50028 0.0917 0.0
C1260 C 0.20063 0.44824 0.92018 0.0
C1261 C 0.17043 0.43281 0.93155 0.0
C1262 C 0.22124 0.44837 0.95239 0.0
C1263 C 0.21203 0.4333 0.9967 0.0
C1264 C 0.18165 0.41515 0.00508 0.0
C1265 C 0.16111 0.41474 0.97271 0.0
C1266 C 0.24413 0.42726 0.11588 0.0
C1267 C 0.26587 0.45675 0.12388 0.0
C1268 C 0.22818 0.41898 0.07273 0.0
C1269 C 0.23326 0.44013 0.03706 0.0
C1270 C 0.25634 0.46924 0.04404 0.0
C1271 C 0.27257 0.47738 0.08677 0.0
H1272 H 0.78542 0.56244 0.33104 0.0
H1273 H 0.81741 0.51391 0.41252 0.0
H1274 H 0.76715 0.57262 0.40467 0.0
H1275 H 0.80043 0.52533 0.48693 0.0
H1276 H 0.73967 0.59485 0.53864 0.0
H1277 H 0.77431 0.59596 0.47891 0.0
H1278 H 0.75536 0.50936 0.52517 0.0
H1279 H 0.72215 0.50915 0.58634 0.0
C1280 C 0.78924 0.55459 0.3649 0.0
C1281 C 0.8025 0.53703 0.36581 0.0
C1282 C 0.77894 0.56063 0.40743 0.0
C1283 C 0.78208 0.54967 0.45212 0.0
C1284 C 0.79701 0.53361 0.45323 0.0
C1285 C 0.80688 0.52716 0.41054 0.0
C1286 C 0.7437 0.5765 0.53698 0.0
C1287 C 0.72789 0.55175 0.56668 0.0
C1288 C 0.7633 0.57695 0.50234 0.0
C1289 C 0.76706 0.55238 0.49598 0.0
C1290 C 0.75323 0.52878 0.52881 0.0
C1291 C 0.73405 0.5286 0.56406 0.0
H1292 H 0.49552 0.2852 0.40188 0.0
H1293 H 0.40676 0.23335 0.34728 0.0
H1294 H 0.48175 0.25539 0.47411 0.0
H1295 H 0.3923 0.20425 0.42126 0.0
H1296 H 0.3964 0.13198 0.51121 0.0
H1297 H 0.39897 0.16727 0.45287 0.0
H1298 H 0.45731 0.2386 0.5472 0.0
H1299 H 0.45608 0.20286 0.60474 0.0
C1300 C 0.4728 0.26782 0.40583 0.0
C1301 C 0.45236 0.26132 0.36842 0.0
C1302 C 0.46475 0.25082 0.44774 0.0
C1303 C 0.43586 0.22711 0.45379 0.0
C1304 C 0.41492 0.22185 0.41755 0.0
C1305 C 0.42315 0.23857 0.37512 0.0
C1306 C 0.40934 0.15517 0.52016 0.0
C1307 C 0.42677 0.16456 0.5621 0.0
C1308 C 0.41063 0.17558 0.4866 0.0
C1309 C 0.429 0.20598 0.49445 0.0
C1310 C 0.44372 0.21537 0.53908 0.0
C1311 C 0.44276 0.19486 0.57244 0.0
H1312 H 0.69811 0.20156 0.40543 0.0
H1313 H 0.75189 0.16642 0.35257 0.0
H1314 H 0.72745 0.21819 0.47818 0.0
H1315 H 0.78057 0.18176 0.42695 0.0
H1316 H 0.85143 0.25988 0.51653 0.0
H1317 H 0.81678 0.2264 0.45802 0.0
H1318 H 0.74446 0.21105 0.55183 0.0
H1319 H 0.77944 0.24614 0.60962 0.0
C1320 C 0.71579 0.19671 0.40987 0.0
C1321 C 0.72298 0.18313 0.37275 0.0
C1322 C 0.73254 0.20602 0.45206 0.0
C1323 C 0.7567 0.20162 0.45864 0.0
C1324 C 0.7626 0.18619 0.4228 0.0
C1325 C 0.7461 0.17729 0.38016 0.0
C1326 C 0.82818 0.24893 0.52535 0.0
C1327 C 0.81824 0.25643 0.56724 0.0
C1328 C 0.80815 0.2294 0.49169 0.0
C1329 C 0.77762 0.21645 0.49937 0.0
C1330 C 0.76778 0.22134 0.54389 0.0
C1331 C 0.78788 0.24125 0.57738 0.0
loop_
_geom_bond_atom_site_label_1
_geom_bond_atom_site_label_2
_geom_bond_distance
_geom_bond_site_symmetry_2
_ccdc_geom_bond_type
C0 O27 1.312 . S
C0 O28 1.208 . S
C1 O22 1.331 . S
C1 O25 1.244 . S
C2 O24 1.264 . S
C2 O26 1.273 . S
Mg3 O5 1.936 . S
Mg3 O12 2.081 . S
Mg3 O14 2.023 . S
Mg3 O18 2.031 . S
Mg3 O27 2.291 . S
Mg4 O5 1.963 . S
Mg4 O15 1.942 . S
Mg4 O16 1.955 . S
Mg4 O23 1.986 . S
O5 Mg3 1.936 . S
O5 Mg4 1.963 . S
O5 Mg6 1.915 . S
Mg6 O5 1.915 . S
Mg6 O7 1.915 . S
Mg6 O11 2.013 . S
Mg6 O17 2.114 . S
Mg6 O21 2.013 . S
Mg6 O27 2.114 . S
O7 Mg6 1.915 . S
O7 Mg8 1.936 . S
O7 Mg9 1.963 . S
Mg8 O7 1.936 . S
Mg8 O17 2.291 . S
Mg8 O22 2.081 1_554 S
Mg8 O24 2.023 . S
Mg8 O28 2.031 . S
Mg9 O7 1.963 . S
Mg9 O13 1.986 . S
Mg9 O25 1.942 1_554 S
Mg9 O26 1.955 . S
C10 O21 1.191 . S
C10 O23 1.307 . S
O11 Mg6 2.013 . S
O11 C30 1.191 . S
O12 Mg3 2.081 . S
O12 C20 1.331 . S
O13 Mg9 1.986 . S
O13 C30 1.307 . S
O14 Mg3 2.023 . S
O14 C29 1.264 . S
O15 Mg4 1.942 . S
O15 C20 1.244 . S
O16 Mg4 1.955 . S
O16 C29 1.273 . S
O17 Mg6 2.114 . S
O17 Mg8 2.291 . S
O17 C19 1.312 . S
O18 Mg3 2.031 . S
O18 C19 1.208 . S
C19 O17 1.312 . S
C19 O18 1.208 . S
C20 O12 1.331 . S
C20 O15 1.244 . S
O21 Mg6 2.013 . S
O21 C10 1.191 . S
O22 C1 1.331 . S
O22 Mg8 2.081 1_556 S
O23 Mg4 1.986 . S
O23 C10 1.307 . S
O24 C2 1.264 . S
O24 Mg8 2.023 . S
O25 C1 1.244 . S
O25 Mg9 1.942 1_556 S
O26 C2 1.273 . S
O26 Mg9 1.955 . S
O27 C0 1.312 . S
O27 Mg3 2.291 . S
O27 Mg6 2.114 . S
O28 C0 1.208 . S
O28 Mg8 2.031 . S
C29 O14 1.264 . S
C29 O16 1.273 . S
C30 O11 1.191 . S
C30 O13 1.307 . S
C31 O58 1.312 . S
C31 O59 1.208 . S
C32 O53 1.331 . S
C32 O56 1.244 . S
C33 O55 1.264 . S
C33 O57 1.273 . S
Mg34 O36 1.936 . S
Mg34 O43 2.081 . S
Mg34 O45 2.023 . S
Mg34 O49 2.031 . S
Mg34 O58 2.291 . S
Mg35 O36 1.963 . S
Mg35 O46 1.942 . S
Mg35 O47 1.955 . S
Mg35 O54 1.986 . S
O36 Mg34 1.936 . S
O36 Mg35 1.963 . S
O36 Mg37 1.915 . S
Mg37 O36 1.915 . S
Mg37 O38 1.915 . S
Mg37 O42 2.013 . S
Mg37 O48 2.114 . S
Mg37 O52 2.013 . S
Mg37 O58 2.114 . S
O38 Mg37 1.915 . S
O38 Mg39 1.936 . S
O38 Mg40 1.963 . S
Mg39 O38 1.936 . S
Mg39 O48 2.291 . S
Mg39 O53 2.081 1_554 S
Mg39 O55 2.023 . S
Mg39 O59 2.031 . S
Mg40 O38 1.963 . S
Mg40 O44 1.986 . S
Mg40 O56 1.942 1_554 S
Mg40 O57 1.955 . S
C41 O52 1.191 . S
C41 O54 1.307 . S
O42 Mg37 2.013 . S
O42 C61 1.191 . S
O43 Mg34 2.081 . S
O43 C51 1.331 . S
O44 Mg40 1.986 . S
O44 C61 1.307 . S
O45 Mg34 2.023 . S
O45 C60 1.264 . S
O46 Mg35 1.942 . S
O46 C51 1.244 . S
O47 Mg35 1.955 . S
O47 C60 1.273 . S
O48 Mg37 2.114 . S
O48 Mg39 2.291 . S
O48 C50 1.312 . S
O49 Mg34 2.031 . S
O49 C50 1.208 . S
C50 O48 1.312 . S
C50 O49 1.208 . S
C51 O43 1.331 . S
C51 O46 1.244 . S
O52 Mg37 2.013 . S
O52 C41 1.191 . S
O53 C32 1.331 . S
O53 Mg39 2.081 1_556 S
O54 Mg35 1.986 . S
O54 C41 1.307 . S
O55 C33 1.264 . S
O55 Mg39 2.023 . S
O56 C32 1.244 . S
O56 Mg40 1.942 1_556 S
O57 C33 1.273 . S
O57 Mg40 1.955 . S
O58 C31 1.312 . S
O58 Mg34 2.291 . S
O58 Mg37 2.114 . S
O59 C31 1.208 . S
O59 Mg39 2.031 . S
C60 O45 1.264 . S
C60 O47 1.273 . S
C61 O42 1.191 . S
C61 O44 1.307 . S
C62 O89 1.312 . S
C62 O90 1.208 . S
C63 O84 1.331 . S
C63 O87 1.244 . S
C64 O86 1.264 . S
C64 O88 1.273 . S
Mg65 O67 1.936 . S
Mg65 O74 2.081 1_554 S
Mg65 O76 2.023 . S
Mg65 O80 2.031 . S
Mg65 O89 2.291 . S
Mg66 O67 1.963 . S
Mg66 O77 1.942 1_554 S
Mg66 O78 1.955 . S
Mg66 O85 1.986 . S
O67 Mg65 1.936 . S
O67 Mg66 1.963 . S
O67 Mg68 1.915 . S
Mg68 O67 1.915 . S
Mg68 O69 1.915 . S
Mg68 O73 2.013 . S
Mg68 O79 2.114 . S
Mg68 O83 2.013 . S
Mg68 O89 2.114 . S
O69 Mg68 1.915 . S
O69 Mg70 1.936 . S
O69 Mg71 1.963 . S
Mg70 O69 1.936 . S
Mg70 O79 2.291 . S
Mg70 O84 2.081 . S
Mg70 O86 2.023 . S
Mg70 O90 2.031 . S
Mg71 O69 1.963 . S
Mg71 O75 1.986 . S
Mg71 O87 1.942 . S
Mg71 O88 1.955 . S
C72 O83 1.191 . S
C72 O85 1.307 . S
O73 Mg68 2.013 . S
O73 C92 1.191 . S
O74 Mg65 2.081 1_556 S
O74 C82 1.331 . S
O75 Mg71 1.986 . S
O75 C92 1.307 . S
O76 Mg65 2.023 . S
O76 C91 1.264 . S
O77 Mg66 1.942 1_556 S
O77 C82 1.244 . S
O78 Mg66 1.955 . S
O78 C91 1.273 . S
O79 Mg68 2.114 . S
O79 Mg70 2.291 . S
O79 C81 1.312 . S
O80 Mg65 2.031 . S
O80 C81 1.208 . S
C81 O79 1.312 . S
C81 O80 1.208 . S
C82 O74 1.331 . S
C82 O77 1.244 . S
O83 Mg68 2.013 . S
O83 C72 1.191 . S
O84 C63 1.331 . S
O84 Mg70 2.081 . S
O85 Mg66 1.986 . S
O85 C72 1.307 . S
O86 C64 1.264 . S
O86 Mg70 2.023 . S
O87 C63 1.244 . S
O87 Mg71 1.942 . S
O88 C64 1.273 . S
O88 Mg71 1.955 . S
O89 C62 1.312 . S
O89 Mg65 2.291 . S
O89 Mg68 2.114 . S
O90 C62 1.208 . S
O90 Mg70 2.031 . S
C91 O76 1.264 . S
C91 O78 1.273 . S
C92 O73 1.191 . S
C92 O75 1.307 . S
C93 O120 1.312 . S
C93 O121 1.208 . S
C94 O115 1.331 . S
C94 O118 1.244 . S
C95 O117 1.264 . S
C95 O119 1.273 . S
Mg96 O98 1.936 . S
Mg96 O105 2.081 . S
Mg96 O107 2.023 . S
Mg96 O111 2.031 . S
Mg96 O120 2.291 . S
Mg97 O98 1.963 . S
Mg97 O108 1.942 . S
Mg97 O109 1.955 . S
Mg97 O116 1.986 . S
O98 Mg96 1.936 . S
O98 Mg97 1.963 . S
O98 Mg99 1.915 . S
Mg99 O98 1.915 . S
Mg99 O100 1.915 . S
Mg99 O104 2.013 . S
Mg99 O110 2.114 . S
Mg99 O114 2.013 . S
Mg99 O120 2.114 . S
O100 Mg99 1.915 . S
O100 Mg101 1.936 . S
O100 Mg102 1.963 . S
Mg101 O100 1.936 . S
Mg101 O110 2.291 . S
Mg101 O115 2.081 . S
Mg101 O117 2.023 . S
Mg101 O121 2.031 . S
Mg102 O100 1.963 . S
Mg102 O106 1.986 . S
Mg102 O118 1.942 . S
Mg102 O119 1.955 . S
C103 O114 1.191 . S
C103 O116 1.307 . S
O104 Mg99 2.013 . S
O104 C123 1.191 . S
O105 Mg96 2.081 . S
O105 C113 1.331 . S
O106 Mg102 1.986 . S
O106 C123 1.307 . S
O107 Mg96 2.023 . S
O107 C122 1.264 . S
O108 Mg97 1.942 . S
O108 C113 1.244 . S
O109 Mg97 1.955 . S
O109 C122 1.273 . S
O110 Mg99 2.114 . S
O110 Mg101 2.291 . S
O110 C112 1.312 . S
O111 Mg96 2.031 . S
O111 C112 1.208 . S
C112 O110 1.312 . S
C112 O111 1.208 . S
C113 O105 1.331 . S
C113 O108 1.244 . S
O114 Mg99 2.013 . S
O114 C103 1.191 . S
O115 C94 1.331 . S
O115 Mg101 2.081 . S
O116 Mg97 1.986 . S
O116 C103 1.307 . S
O117 C95 1.264 . S
O117 Mg101 2.023 . S
O118 C94 1.244 . S
O118 Mg102 1.942 . S
O119 C95 1.273 . S
O119 Mg102 1.955 . S
O120 C93 1.312 . S
O120 Mg96 2.291 . S
O120 Mg99 2.114 . S
O121 C93 1.208 . S
O121 Mg101 2.031 . S
C122 O107 1.264 . S
C122 O109 1.273 . S
C123 O104 1.191 . S
C123 O106 1.307 . S
C124 O151 1.312 . S
C124 O152 1.208 . S
C125 O146 1.331 . S
C125 O149 1.244 . S
C126 O148 1.264 . S
C126 O150 1.273 . S
Mg127 O129 1.936 . S
Mg127 O136 2.081 . S
Mg127 O138 2.023 . S
Mg127 O142 2.031 . S
Mg127 O151 2.291 . S
Mg128 O129 1.963 . S
Mg128 O139 1.942 . S
Mg128 O140 1.955 . S
Mg128 O147 1.986 . S
O129 Mg127 1.936 . S
O129 Mg128 1.963 . S
O129 Mg130 1.915 . S
Mg130 O129 1.915 . S
Mg130 O131 1.915 . S
Mg130 O135 2.013 . S
Mg130 O141 2.114 . S
Mg130 O145 2.013 . S
Mg130 O151 2.114 . S
O131 Mg130 1.915 . S
O131 Mg132 1.936 . S
O131 Mg133 1.963 . S
Mg132 O131 1.936 . S
Mg132 O141 2.291 . S
Mg132 O146 2.081 . S
Mg132 O148 2.023 . S
Mg132 O152 2.031 . S
Mg133 O131 1.963 . S
Mg133 O137 1.986 . S
Mg133 O149 1.942 . S
Mg133 O150 1.955 . S
C134 O145 1.191 . S
C134 O147 1.307 . S
O135 Mg130 2.013 . S
O135 C154 1.191 . S
O136 Mg127 2.081 . S
O136 C144 1.331 . S
O137 Mg133 1.986 . S
O137 C154 1.307 . S
O138 Mg127 2.023 . S
O138 C153 1.264 . S
O139 Mg128 1.942 . S
O139 C144 1.244 . S
O140 Mg128 1.955 . S
O140 C153 1.273 . S
O141 Mg130 2.114 . S
O141 Mg132 2.291 . S
O141 C143 1.312 . S
O142 Mg127 2.031 . S
O142 C143 1.208 . S
C143 O141 1.312 . S
C143 O142 1.208 . S
C144 O136 1.331 . S
C144 O139 1.244 . S
O145 Mg130 2.013 . S
O145 C134 1.191 . S
O146 C125 1.331 . S
O146 Mg132 2.081 . S
O147 Mg128 1.986 . S
O147 C134 1.307 . S
O148 C126 1.264 . S
O148 Mg132 2.023 . S
O149 C125 1.244 . S
O149 Mg133 1.942 . S
O150 C126 1.273 . S
O150 Mg133 1.955 . S
O151 C124 1.312 . S
O151 Mg127 2.291 . S
O151 Mg130 2.114 . S
O152 C124 1.208 . S
O152 Mg132 2.031 . S
C153 O138 1.264 . S
C153 O140 1.273 . S
C154 O135 1.191 . S
C154 O137 1.307 . S
C155 O182 1.312 . S
C155 O183 1.208 . S
C156 O177 1.331 . S
C156 O180 1.244 . S
C157 O179 1.264 . S
C157 O181 1.273 . S
Mg158 O160 1.936 . S
Mg158 O167 2.081 . S
Mg158 O169 2.023 . S
Mg158 O173 2.031 . S
Mg158 O182 2.291 . S
Mg159 O160 1.963 . S
Mg159 O170 1.942 . S
Mg159 O171 1.955 . S
Mg159 O178 1.986 . S
O160 Mg158 1.936 . S
O160 Mg159 1.963 . S
O160 Mg161 1.915 . S
Mg161 O160 1.915 . S
Mg161 O162 1.915 . S
Mg161 O166 2.013 . S
Mg161 O172 2.114 . S
Mg161 O176 2.013 . S
Mg161 O182 2.114 . S
O162 Mg161 1.915 . S
O162 Mg163 1.936 . S
O162 Mg164 1.963 . S
Mg163 O162 1.936 . S
Mg163 O172 2.291 . S
Mg163 O177 2.081 . S
Mg163 O179 2.023 . S
Mg163 O183 2.031 . S
Mg164 O162 1.963 . S
Mg164 O168 1.986 . S
Mg164 O180 1.942 . S
Mg164 O181 1.955 . S
C165 O176 1.191 . S
C165 O178 1.307 . S
O166 Mg161 2.013 . S
O166 C185 1.191 . S
O167 Mg158 2.081 . S
O167 C175 1.331 . S
O168 Mg164 1.986 . S
O168 C185 1.307 . S
O169 Mg158 2.023 . S
O169 C184 1.264 . S
O170 Mg159 1.942 . S
O170 C175 1.244 . S
O171 Mg159 1.955 . S
O171 C184 1.273 . S
O172 Mg161 2.114 . S
O172 Mg163 2.291 . S
O172 C174 1.312 . S
O173 Mg158 2.031 . S
O173 C174 1.208 . S
C174 O172 1.312 . S
C174 O173 1.208 . S
C175 O167 1.331 . S
C175 O170 1.244 . S
O176 Mg161 2.013 . S
O176 C165 1.191 . S
O177 C156 1.331 . S
O177 Mg163 2.081 . S
O178 Mg159 1.986 . S
O178 C165 1.307 . S
O179 C157 1.264 . S
O179 Mg163 2.023 . S
O180 C156 1.244 . S
O180 Mg164 1.942 . S
O181 C157 1.273 . S
O181 Mg164 1.955 . S
O182 C155 1.312 . S
O182 Mg158 2.291 . S
O182 Mg161 2.114 . S
O183 C155 1.208 . S
O183 Mg163 2.031 . S
C184 O169 1.264 . S
C184 O171 1.273 . S
C185 O166 1.191 . S
C185 O168 1.307 . S
C186 O213 1.312 . S
C186 O214 1.208 . S
C187 O208 1.331 . S
C187 O211 1.244 . S
C188 O210 1.264 . S
C188 O212 1.273 . S
Mg189 O191 1.936 . S
Mg189 O198 2.081 . S
Mg189 O200 2.023 . S
Mg189 O204 2.031 . S
Mg189 O213 2.291 . S
Mg190 O191 1.963 . S
Mg190 O201 1.942 . S
Mg190 O202 1.955 . S
Mg190 O209 1.986 . S
O191 Mg189 1.936 . S
O191 Mg190 1.963 . S
O191 Mg192 1.915 . S
Mg192 O191 1.915 . S
Mg192 O193 1.915 . S
Mg192 O197 2.013 . S
Mg192 O203 2.114 . S
Mg192 O207 2.013 . S
Mg192 O213 2.114 . S
O193 Mg192 1.915 . S
O193 Mg194 1.936 . S
O193 Mg195 1.963 . S
Mg194 O193 1.936 . S
Mg194 O203 2.291 . S
Mg194 O208 2.081 1_556 S
Mg194 O210 2.023 . S
Mg194 O214 2.031 . S
Mg195 O193 1.963 . S
Mg195 O199 1.986 . S
Mg195 O211 1.942 1_556 S
Mg195 O212 1.955 . S
C196 O207 1.191 . S
C196 O209 1.307 . S
O197 Mg192 2.013 . S
O197 C216 1.191 . S
O198 Mg189 2.081 . S
O198 C206 1.331 . S
O199 Mg195 1.986 . S
O199 C216 1.307 . S
O200 Mg189 2.023 . S
O200 C215 1.264 . S
O201 Mg190 1.942 . S
O201 C206 1.244 . S
O202 Mg190 1.955 . S
O202 C215 1.273 . S
O203 Mg192 2.114 . S
O203 Mg194 2.291 . S
O203 C205 1.312 . S
O204 Mg189 2.031 . S
O204 C205 1.208 . S
C205 O203 1.312 . S
C205 O204 1.208 . S
C206 O198 1.331 . S
C206 O201 1.244 . S
O207 Mg192 2.013 . S
O207 C196 1.191 . S
O208 C187 1.331 . S
O208 Mg194 2.081 1_554 S
O209 Mg190 1.986 . S
O209 C196 1.307 . S
O210 C188 1.264 . S
O210 Mg194 2.023 . S
O211 C187 1.244 . S
O211 Mg195 1.942 1_554 S
O212 C188 1.273 . S
O212 Mg195 1.955 . S
O213 C186 1.312 . S
O213 Mg189 2.291 . S
O213 Mg192 2.114 . S
O214 C186 1.208 . S
O214 Mg194 2.031 . S
C215 O200 1.264 . S
C215 O202 1.273 . S
C216 O197 1.191 . S
C216 O199 1.307 . S
C217 O244 1.312 . S
C217 O245 1.208 . S
C218 O239 1.331 . S
C218 O242 1.244 . S
C219 O241 1.264 . S
C219 O243 1.273 . S
Mg220 O222 1.936 . S
Mg220 O229 2.081 1_556 S
Mg220 O231 2.023 . S
Mg220 O235 2.031 . S
Mg220 O244 2.291 . S
Mg221 O222 1.963 . S
Mg221 O232 1.942 1_556 S
Mg221 O233 1.955 . S
Mg221 O240 1.986 . S
O222 Mg220 1.936 . S
O222 Mg221 1.963 . S
O222 Mg223 1.915 . S
Mg223 O222 1.915 . S
Mg223 O224 1.915 . S
Mg223 O228 2.013 . S
Mg223 O234 2.114 . S
Mg223 O238 2.013 . S
Mg223 O244 2.114 . S
O224 Mg223 1.915 . S
O224 Mg225 1.936 . S
O224 Mg226 1.963 . S
Mg225 O224 1.936 . S
Mg225 O234 2.291 . S
Mg225 O239 2.081 . S
Mg225 O241 2.023 . S
Mg225 O245 2.031 . S
Mg226 O224 1.963 . S
Mg226 O230 1.986 . S
Mg226 O242 1.942 . S
Mg226 O243 1.955 . S
C227 O238 1.191 . S
C227 O240 1.307 . S
O228 Mg223 2.013 . S
O228 C247 1.191 . S
O229 Mg220 2.081 1_554 S
O229 C237 1.331 . S
O230 Mg226 1.986 . S
O230 C247 1.307 . S
O231 Mg220 2.023 . S
O231 C246 1.264 . S
O232 Mg221 1.942 1_554 S
O232 C237 1.244 . S
O233 Mg221 1.955 . S
O233 C246 1.273 . S
O234 Mg223 2.114 . S
O234 Mg225 2.291 . S
O234 C236 1.312 . S
O235 Mg220 2.031 . S
O235 C236 1.208 . S
C236 O234 1.312 . S
C236 O235 1.208 . S
C237 O229 1.331 . S
C237 O232 1.244 . S
O238 Mg223 2.013 . S
O238 C227 1.191 . S
O239 C218 1.331 . S
O239 Mg225 2.081 . S
O240 Mg221 1.986 . S
O240 C227 1.307 . S
O241 C219 1.264 . S
O241 Mg225 2.023 . S
O242 C218 1.244 . S
O242 Mg226 1.942 . S
O243 C219 1.273 . S
O243 Mg226 1.955 . S
O244 C217 1.312 . S
O244 Mg220 2.291 . S
O244 Mg223 2.114 . S
O245 C217 1.208 . S
O245 Mg225 2.031 . S
C246 O231 1.264 . S
C246 O233 1.273 . S
C247 O228 1.191 . S
C247 O230 1.307 . S
C248 O275 1.312 . S
C248 O276 1.208 . S
C249 O270 1.331 . S
C249 O273 1.244 . S
C250 O272 1.264 . S
C250 O274 1.273 . S
Mg251 O253 1.936 . S
Mg251 O260 2.081 . S
Mg251 O262 2.023 . S
Mg251 O266 2.031 . S
Mg251 O275 2.291 . S
Mg252 O253 1.963 . S
Mg252 O263 1.942 . S
Mg252 O264 1.955 . S
Mg252 O271 1.986 . S
O253 Mg251 1.936 . S
O253 Mg252 1.963 . S
O253 Mg254 1.915 . S
Mg254 O253 1.915 . S
Mg254 O255 1.915 . S
Mg254 O259 2.013 . S
Mg254 O265 2.114 . S
Mg254 O269 2.013 . S
Mg254 O275 2.114 . S
O255 Mg254 1.915 . S
O255 Mg256 1.936 . S
O255 Mg257 1.963 . S
Mg256 O255 1.936 . S
Mg256 O265 2.291 . S
Mg256 O270 2.081 1_556 S
Mg256 O272 2.023 . S
Mg256 O276 2.031 . S
Mg257 O255 1.963 . S
Mg257 O261 1.986 . S
Mg257 O273 1.942 1_556 S
Mg257 O274 1.955 . S
C258 O269 1.191 . S
C258 O271 1.307 . S
O259 Mg254 2.013 . S
O259 C278 1.191 . S
O260 Mg251 2.081 . S
O260 C268 1.331 . S
O261 Mg257 1.986 . S
O261 C278 1.307 . S
O262 Mg251 2.023 . S
O262 C277 1.264 . S
O263 Mg252 1.942 . S
O263 C268 1.244 . S
O264 Mg252 1.955 . S
O264 C277 1.273 . S
O265 Mg254 2.114 . S
O265 Mg256 2.291 . S
O265 C267 1.312 . S
O266 Mg251 2.031 . S
O266 C267 1.208 . S
C267 O265 1.312 . S
C267 O266 1.208 . S
C268 O260 1.331 . S
C268 O263 1.244 . S
O269 Mg254 2.013 . S
O269 C258 1.191 . S
O270 C249 1.331 . S
O270 Mg256 2.081 1_554 S
O271 Mg252 1.986 . S
O271 C258 1.307 . S
O272 C250 1.264 . S
O272 Mg256 2.023 . S
O273 C249 1.244 . S
O273 Mg257 1.942 1_554 S
O274 C250 1.273 . S
O274 Mg257 1.955 . S
O275 C248 1.312 . S
O275 Mg251 2.291 . S
O275 Mg254 2.114 . S
O276 C248 1.208 . S
O276 Mg256 2.031 . S
C277 O262 1.264 . S
C277 O264 1.273 . S
C278 O259 1.191 . S
C278 O261 1.307 . S
C279 O306 1.312 . S
C279 O307 1.208 . S
C280 O301 1.331 . S
C280 O304 1.244 . S
C281 O303 1.264 . S
C281 O305 1.273 . S
Mg282 O284 1.936 . S
Mg282 O291 2.081 . S
Mg282 O293 2.023 . S
Mg282 O297 2.031 . S
Mg282 O306 2.291 . S
Mg283 O284 1.963 . S
Mg283 O294 1.942 . S
Mg283 O295 1.955 . S
Mg283 O302 1.986 . S
O284 Mg282 1.936 . S
O284 Mg283 1.963 . S
O284 Mg285 1.915 . S
Mg285 O284 1.915 . S
Mg285 O286 1.915 . S
Mg285 O290 2.013 . S
Mg285 O296 2.114 . S
Mg285 O300 2.013 . S
Mg285 O306 2.114 . S
O286 Mg285 1.915 . S
O286 Mg287 1.936 . S
O286 Mg288 1.963 . S
Mg287 O286 1.936 . S
Mg287 O296 2.291 . S
Mg287 O301 2.081 . S
Mg287 O303 2.023 . S
Mg287 O307 2.031 . S
Mg288 O286 1.963 . S
Mg288 O292 1.986 . S
Mg288 O304 1.942 . S
Mg288 O305 1.955 . S
C289 O300 1.191 . S
C289 O302 1.307 . S
O290 Mg285 2.013 . S
O290 C309 1.191 . S
O291 Mg282 2.081 . S
O291 C299 1.331 . S
O292 Mg288 1.986 . S
O292 C309 1.307 . S
O293 Mg282 2.023 . S
O293 C308 1.264 . S
O294 Mg283 1.942 . S
O294 C299 1.244 . S
O295 Mg283 1.955 . S
O295 C308 1.273 . S
O296 Mg285 2.114 . S
O296 Mg287 2.291 . S
O296 C298 1.312 . S
O297 Mg282 2.031 . S
O297 C298 1.208 . S
C298 O296 1.312 . S
C298 O297 1.208 . S
C299 O291 1.331 . S
C299 O294 1.244 . S
O300 Mg285 2.013 . S
O300 C289 1.191 . S
O301 C280 1.331 . S
O301 Mg287 2.081 . S
O302 Mg283 1.986 . S
O302 C289 1.307 . S
O303 C281 1.264 . S
O303 Mg287 2.023 . S
O304 C280 1.244 . S
O304 Mg288 1.942 . S
O305 C281 1.273 . S
O305 Mg288 1.955 . S
O306 C279 1.312 . S
O306 Mg282 2.291 . S
O306 Mg285 2.114 . S
O307 C279 1.208 . S
O307 Mg287 2.031 . S
C308 O293 1.264 . S
C308 O295 1.273 . S
C309 O290 1.191 . S
C309 O292 1.307 . S
C310 O337 1.312 . S
C310 O338 1.208 . S
C311 O332 1.331 . S
C311 O335 1.244 . S
C312 O334 1.264 . S
C312 O336 1.273 . S
Mg313 O315 1.936 . S
Mg313 O322 2.081 . S
Mg313 O324 2.023 . S
Mg313 O328 2.031 . S
Mg313 O337 2.291 . S
Mg314 O315 1.963 . S
Mg314 O325 1.942 . S
Mg314 O326 1.955 . S
Mg314 O333 1.986 . S
O315 Mg313 1.936 . S
O315 Mg314 1.963 . S
O315 Mg316 1.915 . S
Mg316 O315 1.915 . S
Mg316 O317 1.915 . S
Mg316 O321 2.013 . S
Mg316 O327 2.114 . S
Mg316 O331 2.013 . S
Mg316 O337 2.114 . S
O317 Mg316 1.915 . S
O317 Mg318 1.936 . S
O317 Mg319 1.963 . S
Mg318 O317 1.936 . S
Mg318 O327 2.291 . S
Mg318 O332 2.081 . S
Mg318 O334 2.023 . S
Mg318 O338 2.031 . S
Mg319 O317 1.963 . S
Mg319 O323 1.986 . S
Mg319 O335 1.942 . S
Mg319 O336 1.955 . S
C320 O331 1.191 . S
C320 O333 1.307 . S
O321 Mg316 2.013 . S
O321 C340 1.191 . S
O322 Mg313 2.081 . S
O322 C330 1.331 . S
O323 Mg319 1.986 . S
O323 C340 1.307 . S
O324 Mg313 2.023 . S
O324 C339 1.264 . S
O325 Mg314 1.942 . S
O325 C330 1.244 . S
O326 Mg314 1.955 . S
O326 C339 1.273 . S
O327 Mg316 2.114 . S
O327 Mg318 2.291 . S
O327 C329 1.312 . S
O328 Mg313 2.031 . S
O328 C329 1.208 . S
C329 O327 1.312 . S
C329 O328 1.208 . S
C330 O322 1.331 . S
C330 O325 1.244 . S
O331 Mg316 2.013 . S
O331 C320 1.191 . S
O332 C311 1.331 . S
O332 Mg318 2.081 . S
O333 Mg314 1.986 . S
O333 C320 1.307 . S
O334 C312 1.264 . S
O334 Mg318 2.023 . S
O335 C311 1.244 . S
O335 Mg319 1.942 . S
O336 C312 1.273 . S
O336 Mg319 1.955 . S
O337 C310 1.312 . S
O337 Mg313 2.291 . S
O337 Mg316 2.114 . S
O338 C310 1.208 . S
O338 Mg318 2.031 . S
C339 O324 1.264 . S
C339 O326 1.273 . S
C340 O321 1.191 . S
C340 O323 1.307 . S
C341 O368 1.312 . S
C341 O369 1.208 . S
C342 O363 1.331 . S
C342 O366 1.244 . S
C343 O365 1.264 . S
C343 O367 1.273 . S
Mg344 O346 1.936 . S
Mg344 O353 2.081 . S
Mg344 O355 2.023 . S
Mg344 O359 2.031 . S
Mg344 O368 2.291 . S
Mg345 O346 1.963 . S
Mg345 O356 1.942 . S
Mg345 O357 1.955 . S
Mg345 O364 1.986 . S
O346 Mg344 1.936 . S
O346 Mg345 1.963 . S
O346 Mg347 1.915 . S
Mg347 O346 1.915 . S
Mg347 O348 1.915 . S
Mg347 O352 2.013 . S
Mg347 O358 2.114 . S
Mg347 O362 2.013 . S
Mg347 O368 2.114 . S
O348 Mg347 1.915 . S
O348 Mg349 1.936 . S
O348 Mg350 1.963 . S
Mg349 O348 1.936 . S
Mg349 O358 2.291 . S
Mg349 O363 2.081 . S
Mg349 O365 2.023 . S
Mg349 O369 2.031 . S
Mg350 O348 1.963 . S
Mg350 O354 1.986 . S
Mg350 O366 1.942 . S
Mg350 O367 1.955 . S
C351 O362 1.191 . S
C351 O364 1.307 . S
O352 Mg347 2.013 . S
O352 C371 1.191 . S
O353 Mg344 2.081 . S
O353 C361 1.331 . S
O354 Mg350 1.986 . S
O354 C371 1.307 . S
O355 Mg344 2.023 . S
O355 C370 1.264 . S
O356 Mg345 1.942 . S
O356 C361 1.244 . S
O357 Mg345 1.955 . S
O357 C370 1.273 . S
O358 Mg347 2.114 . S
O358 Mg349 2.291 . S
O358 C360 1.312 . S
O359 Mg344 2.031 . S
O359 C360 1.208 . S
C360 O358 1.312 . S
C360 O359 1.208 . S
C361 O353 1.331 . S
C361 O356 1.244 . S
O362 Mg347 2.013 . S
O362 C351 1.191 . S
O363 C342 1.331 . S
O363 Mg349 2.081 . S
O364 Mg345 1.986 . S
O364 C351 1.307 . S
O365 C343 1.264 . S
O365 Mg349 2.023 . S
O366 C342 1.244 . S
O366 Mg350 1.942 . S
O367 C343 1.273 . S
O367 Mg350 1.955 . S
O368 C341 1.312 . S
O368 Mg344 2.291 . S
O368 Mg347 2.114 . S
O369 C341 1.208 . S
O369 Mg349 2.031 . S
C370 O355 1.264 . S
C370 O357 1.273 . S
C371 O352 1.191 . S
C371 O354 1.307 . S
H372 C380 0.950 . S
H373 C385 0.950 . S
H374 C382 0.950 . S
H375 C384 0.950 . S
H376 C386 0.950 . S
H377 C388 0.950 . S
H378 C390 0.950 . S
H379 C391 0.950 . S
C380 H372 0.950 . S
C380 C381 1.386 . S
C380 C382 1.391 . S
C381 C380 1.386 . S
C381 C385 1.393 . S
C382 H374 0.950 . S
C382 C380 1.391 . S
C382 C383 1.400 . S
C383 C382 1.400 . S
C383 C384 1.398 . S
C383 C389 1.491 . S
C384 H375 0.950 . S
C384 C383 1.398 . S
C384 C385 1.391 . S
C385 H373 0.950 . S
C385 C381 1.393 . S
C385 C384 1.391 . S
C386 H376 0.950 . S
C386 C387 1.386 . S
C386 C388 1.391 . S
C387 C386 1.386 . S
C387 C391 1.393 . S
C388 H377 0.950 . S
C388 C386 1.391 . S
C388 C389 1.400 . S
C389 C383 1.491 . S
C389 C388 1.400 . S
C389 C390 1.398 . S
C390 H378 0.950 . S
C390 C389 1.398 . S
C390 C391 1.391 . S
C391 H379 0.950 . S
C391 C387 1.393 . S
C391 C390 1.391 . S
H392 C400 0.950 . S
H393 C405 0.950 . S
H394 C402 0.950 . S
H395 C404 0.950 . S
H396 C406 0.950 . S
H397 C408 0.950 . S
H398 C410 0.950 . S
H399 C411 0.950 . S
C400 H392 0.950 . S
C400 C401 1.386 . S
C400 C402 1.391 . S
C401 C400 1.386 . S
C401 C405 1.393 . S
C402 H394 0.950 . S
C402 C400 1.391 . S
C402 C403 1.400 . S
C403 C402 1.400 . S
C403 C404 1.398 . S
C403 C409 1.491 . S
C404 H395 0.950 . S
C404 C403 1.398 . S
C404 C405 1.391 . S
C405 H393 0.950 . S
C405 C401 1.393 . S
C405 C404 1.391 . S
C406 H396 0.950 . S
C406 C407 1.386 . S
C406 C408 1.391 . S
C407 C406 1.386 . S
C407 C411 1.393 . S
C408 H397 0.950 . S
C408 C406 1.391 . S
C408 C409 1.400 . S
C409 C403 1.491 . S
C409 C408 1.400 . S
C409 C410 1.398 . S
C410 H398 0.950 . S
C410 C409 1.398 . S
C410 C411 1.391 . S
C411 H399 0.950 . S
C411 C407 1.393 . S
C411 C410 1.391 . S
H412 C420 0.950 . S
H413 C425 0.950 . S
H414 C422 0.950 . S
H415 C424 0.950 . S
H416 C426 0.950 . S
H417 C428 0.950 . S
H418 C430 0.950 . S
H419 C431 0.950 . S
C420 H412 0.950 . S
C420 C421 1.386 . S
C420 C422 1.391 . S
C421 C420 1.386 . S
C421 C425 1.393 . S
C422 H414 0.950 . S
C422 C420 1.391 . S
C422 C423 1.400 . S
C423 C422 1.400 . S
C423 C424 1.398 . S
C423 C429 1.491 . S
C424 H415 0.950 . S
C424 C423 1.398 . S
C424 C425 1.391 . S
C425 H413 0.950 . S
C425 C421 1.393 . S
C425 C424 1.391 . S
C426 H416 0.950 . S
C426 C427 1.386 . S
C426 C428 1.391 . S
C427 C426 1.386 . S
C427 C431 1.393 . S
C428 H417 0.950 . S
C428 C426 1.391 . S
C428 C429 1.400 . S
C429 C423 1.491 . S
C429 C428 1.400 . S
C429 C430 1.398 . S
C430 H418 0.950 . S
C430 C429 1.398 . S
C430 C431 1.391 . S
C431 H419 0.950 . S
C431 C427 1.393 . S
C431 C430 1.391 . S
H432 C440 0.950 . S
H433 C445 0.950 . S
H434 C442 0.950 . S
H435 C444 0.950 . S
H436 C446 0.950 . S
H437 C448 0.950 . S
H438 C450 0.950 . S
H439 C451 0.950 . S
C440 H432 0.950 . S
C440 C441 1.386 . S
C440 C442 1.391 . S
C441 C440 1.386 . S
C441 C445 1.393 . S
C442 H434 0.950 . S
C442 C440 1.391 . S
C442 C443 1.400 . S
C443 C442 1.400 . S
C443 C444 1.398 . S
C443 C449 1.491 . S
C444 H435 0.950 . S
C444 C443 1.398 . S
C444 C445 1.391 . S
C445 H433 0.950 . S
C445 C441 1.393 . S
C445 C444 1.391 . S
C446 H436 0.950 . S
C446 C447 1.386 . S
C446 C448 1.391 . S
C447 C446 1.386 . S
C447 C451 1.393 . S
C448 H437 0.950 . S
C448 C446 1.391 . S
C448 C449 1.400 . S
C449 C443 1.491 . S
C449 C448 1.400 . S
C449 C450 1.398 . S
C450 H438 0.950 . S
C450 C449 1.398 . S
C450 C451 1.391 . S
C451 H439 0.950 . S
C451 C447 1.393 . S
C451 C450 1.391 . S
H452 C460 0.950 . S
H453 C465 0.950 . S
H454 C462 0.950 . S
H455 C464 0.950 . S
H456 C466 0.950 . S
H457 C468 0.950 . S
H458 C470 0.950 . S
H459 C471 0.950 . S
C460 H452 0.950 . S
C460 C461 1.386 . S
C460 C462 1.391 . S
C461 C460 1.386 . S
C461 C465 1.393 . S
C462 H454 0.950 . S
C462 C460 1.391 . S
C462 C463 1.400 . S
C463 C462 1.400 . S
C463 C464 1.398 . S
C463 C469 1.491 . S
C464 H455 0.950 . S
C464 C463 1.398 . S
C464 C465 1.391 . S
C465 H453 0.950 . S
C465 C461 1.393 . S
C465 C464 1.391 . S
C466 H456 0.950 . S
C466 C467 1.386 . S
C466 C468 1.391 . S
C467 C466 1.386 . S
C467 C471 1.393 . S
C468 H457 0.950 . S
C468 C466 1.391 . S
C468 C469 1.400 . S
C469 C463 1.491 . S
C469 C468 1.400 . S
C469 C470 1.398 . S
C470 H458 0.950 . S
C470 C469 1.398 . S
C470 C471 1.391 . S
C471 H459 0.950 . S
C471 C467 1.393 . S
C471 C470 1.391 . S
H472 C480 0.950 . S
H473 C485 0.950 . S
H474 C482 0.950 . S
H475 C484 0.950 . S
H476 C486 0.950 . S
H477 C488 0.950 . S
H478 C490 0.950 . S
H479 C491 0.950 . S
C480 H472 0.950 . S
C480 C481 1.386 . S
C480 C482 1.391 . S
C481 C480 1.386 . S
C481 C485 1.393 . S
C482 H474 0.950 . S
C482 C480 1.391 . S
C482 C483 1.400 . S
C483 C482 1.400 . S
C483 C484 1.398 . S
C483 C489 1.491 . S
C484 H475 0.950 . S
C484 C483 1.398 . S
C484 C485 1.391 . S
C485 H473 0.950 . S
C485 C481 1.393 . S
C485 C484 1.391 . S
C486 H476 0.950 . S
C486 C487 1.386 . S
C486 C488 1.391 . S
C487 C486 1.386 . S
C487 C491 1.393 . S
C488 H477 0.950 . S
C488 C486 1.391 . S
C488 C489 1.400 . S
C489 C483 1.491 . S
C489 C488 1.400 . S
C489 C490 1.398 . S
C490 H478 0.950 . S
C490 C489 1.398 . S
C490 C491 1.391 . S
C491 H479 0.950 . S
C491 C487 1.393 . S
C491 C490 1.391 . S
H492 C500 0.950 . S
H493 C505 0.950 . S
H494 C502 0.950 . S
H495 C504 0.950 . S
H496 C506 0.950 . S
H497 C508 0.950 . S
H498 C510 0.950 . S
H499 C511 0.950 . S
C500 H492 0.950 . S
C500 C501 1.386 . S
C500 C502 1.391 . S
C501 C500 1.386 . S
C501 C505 1.393 . S
C502 H494 0.950 . S
C502 C500 1.391 . S
C502 C503 1.400 . S
C503 C502 1.400 . S
C503 C504 1.398 . S
C503 C509 1.491 . S
C504 H495 0.950 . S
C504 C503 1.398 . S
C504 C505 1.391 . S
C505 H493 0.950 . S
C505 C501 1.393 . S
C505 C504 1.391 . S
C506 H496 0.950 . S
C506 C507 1.386 . S
C506 C508 1.391 . S
C507 C506 1.386 . S
C507 C511 1.393 . S
C508 H497 0.950 . S
C508 C506 1.391 . S
C508 C509 1.400 . S
C509 C503 1.491 . S
C509 C508 1.400 . S
C509 C510 1.398 . S
C510 H498 0.950 . S
C510 C509 1.398 . S
C510 C511 1.391 . S
C511 H499 0.950 . S
C511 C507 1.393 . S
C511 C510 1.391 . S
H512 C520 0.950 . S
H513 C525 0.950 . S
H514 C522 0.950 . S
H515 C524 0.950 . S
H516 C526 0.950 . S
H517 C528 0.950 . S
H518 C530 0.950 . S
H519 C531 0.950 . S
C520 H512 0.950 . S
C520 C521 1.386 . S
C520 C522 1.391 . S
C521 C520 1.386 . S
C521 C525 1.393 . S
C522 H514 0.950 . S
C522 C520 1.391 . S
C522 C523 1.400 . S
C523 C522 1.400 . S
C523 C524 1.398 . S
C523 C529 1.491 . S
C524 H515 0.950 . S
C524 C523 1.398 . S
C524 C525 1.391 . S
C525 H513 0.950 . S
C525 C521 1.393 . S
C525 C524 1.391 . S
C526 H516 0.950 . S
C526 C527 1.386 . S
C526 C528 1.391 . S
C527 C526 1.386 . S
C527 C531 1.393 . S
C528 H517 0.950 . S
C528 C526 1.391 . S
C528 C529 1.400 . S
C529 C523 1.491 . S
C529 C528 1.400 . S
C529 C530 1.398 . S
C530 H518 0.950 . S
C530 C529 1.398 . S
C530 C531 1.391 . S
C531 H519 0.950 . S
C531 C527 1.393 . S
C531 C530 1.391 . S
H532 C540 0.950 . S
H533 C545 0.950 . S
H534 C542 0.950 . S
H535 C544 0.950 . S
H536 C546 0.950 . S
H537 C548 0.950 . S
H538 C550 0.950 . S
H539 C551 0.950 . S
C540 H532 0.950 . S
C540 C541 1.386 . S
C540 C542 1.391 . S
C541 C540 1.386 . S
C541 C545 1.393 . S
C542 H534 0.950 . S
C542 C540 1.391 . S
C542 C543 1.400 . S
C543 C542 1.400 . S
C543 C544 1.398 . S
C543 C549 1.491 . S
C544 H535 0.950 . S
C544 C543 1.398 . S
C544 C545 1.391 . S
C545 H533 0.950 . S
C545 C541 1.393 . S
C545 C544 1.391 . S
C546 H536 0.950 . S
C546 C547 1.386 . S
C546 C548 1.391 . S
C547 C546 1.386 . S
C547 C551 1.393 . S
C548 H537 0.950 . S
C548 C546 1.391 . S
C548 C549 1.400 . S
C549 C543 1.491 . S
C549 C548 1.400 . S
C549 C550 1.398 . S
C550 H538 0.950 . S
C550 C549 1.398 . S
C550 C551 1.391 . S
C551 H539 0.950 . S
C551 C547 1.393 . S
C551 C550 1.391 . S
H552 C560 0.950 . S
H553 C565 0.950 . S
H554 C562 0.950 . S
H555 C564 0.950 . S
H556 C566 0.950 . S
H557 C568 0.950 . S
H558 C570 0.950 . S
H559 C571 0.950 . S
C560 H552 0.950 . S
C560 C561 1.386 . S
C560 C562 1.391 . S
C561 C560 1.386 . S
C561 C565 1.393 . S
C562 H554 0.950 . S
C562 C560 1.391 . S
C562 C563 1.400 . S
C563 C562 1.400 . S
C563 C564 1.398 . S
C563 C569 1.491 . S
C564 H555 0.950 . S
C564 C563 1.398 . S
C564 C565 1.391 . S
C565 H553 0.950 . S
C565 C561 1.393 . S
C565 C564 1.391 . S
C566 H556 0.950 . S
C566 C567 1.386 . S
C566 C568 1.391 . S
C567 C566 1.386 . S
C567 C571 1.393 . S
C568 H557 0.950 . S
C568 C566 1.391 . S
C568 C569 1.400 . S
C569 C563 1.491 . S
C569 C568 1.400 . S
C569 C570 1.398 . S
C570 H558 0.950 . S
C570 C569 1.398 . S
C570 C571 1.391 . S
C571 H559 0.950 . S
C571 C567 1.393 . S
C571 C570 1.391 . S
H572 C580 0.950 . S
H573 C585 0.950 . S
H574 C582 0.950 . S
H575 C584 0.950 . S
H576 C586 0.950 . S
H577 C588 0.950 . S
H578 C590 0.950 . S
H579 C591 0.950 . S
C580 H572 0.950 . S
C580 C581 1.386 . S
C580 C582 1.391 . S
C581 C580 1.386 . S
C581 C585 1.393 . S
C582 H574 0.950 . S
C582 C580 1.391 . S
C582 C583 1.400 . S
C583 C582 1.400 . S
C583 C584 1.398 . S
C583 C589 1.491 . S
C584 H575 0.950 . S
C584 C583 1.398 . S
C584 C585 1.391 . S
C585 H573 0.950 . S
C585 C581 1.393 . S
C585 C584 1.391 . S
C586 H576 0.950 . S
C586 C587 1.386 . S
C586 C588 1.391 . S
C587 C586 1.386 . S
C587 C591 1.393 . S
C588 H577 0.950 . S
C588 C586 1.391 . S
C588 C589 1.400 . S
C589 C583 1.491 . S
C589 C588 1.400 . S
C589 C590 1.398 . S
C590 H578 0.950 . S
C590 C589 1.398 . S
C590 C591 1.391 . S
C591 H579 0.950 . S
C591 C587 1.393 . S
C591 C590 1.391 . S
H592 C600 0.950 . S
H593 C605 0.950 . S
H594 C602 0.950 . S
H595 C604 0.950 . S
H596 C606 0.950 . S
H597 C608 0.950 . S
H598 C610 0.950 . S
H599 C611 0.950 . S
C600 H592 0.950 . S
C600 C601 1.386 . S
C600 C602 1.391 . S
C601 C600 1.386 . S
C601 C605 1.393 . S
C602 H594 0.950 . S
C602 C600 1.391 . S
C602 C603 1.400 . S
C603 C602 1.400 . S
C603 C604 1.398 . S
C603 C609 1.491 . S
C604 H595 0.950 . S
C604 C603 1.398 . S
C604 C605 1.391 . S
C605 H593 0.950 . S
C605 C601 1.393 . S
C605 C604 1.391 . S
C606 H596 0.950 . S
C606 C607 1.386 . S
C606 C608 1.391 . S
C607 C606 1.386 . S
C607 C611 1.393 . S
C608 H597 0.950 . S
C608 C606 1.391 . S
C608 C609 1.400 . S
C609 C603 1.491 . S
C609 C608 1.400 . S
C609 C610 1.398 . S
C610 H598 0.950 . S
C610 C609 1.398 . S
C610 C611 1.391 . S
C611 H599 0.950 . S
C611 C607 1.393 . S
C611 C610 1.391 . S
H612 C620 0.950 . S
H613 C625 0.950 . S
H614 C622 0.950 1_554 S
H615 C624 0.950 . S
H616 C626 0.950 . S
H617 C628 0.950 1_556 S
H618 C630 0.950 . S
H619 C631 0.950 . S
C620 H612 0.950 . S
C620 C621 1.386 . S
C620 C622 1.391 . S
C621 C620 1.386 . S
C621 C625 1.393 . S
C622 H614 0.950 1_556 S
C622 C620 1.391 . S
C622 C623 1.400 . S
C623 C622 1.400 . S
C623 C624 1.398 . S
C623 C629 1.491 1_556 S
C624 H615 0.950 . S
C624 C623 1.398 . S
C624 C625 1.391 . S
C625 H613 0.950 . S
C625 C621 1.393 . S
C625 C624 1.391 . S
C626 H616 0.950 . S
C626 C627 1.386 . S
C626 C628 1.391 . S
C627 C626 1.386 . S
C627 C631 1.393 . S
C628 H617 0.950 1_554 S
C628 C626 1.391 . S
C628 C629 1.400 . S
C629 C623 1.491 1_554 S
C629 C628 1.400 . S
C629 C630 1.398 . S
C630 H618 0.950 . S
C630 C629 1.398 . S
C630 C631 1.391 . S
C631 H619 0.950 . S
C631 C627 1.393 . S
C631 C630 1.391 . S
H632 C640 0.950 . S
H633 C645 0.951 1_565 S
H634 C642 0.950 . S
H635 C644 0.950 . S
H636 C646 0.950 . S
H637 C648 0.950 . S
H638 C650 0.950 . S
H639 C651 0.951 1_545 S
C640 H632 0.950 . S
C640 C641 1.386 . S
C640 C642 1.391 . S
C641 C640 1.386 . S
C641 C645 1.393 . S
C642 H634 0.950 . S
C642 C640 1.391 . S
C642 C643 1.400 . S
C643 C642 1.400 . S
C643 C644 1.398 1_545 S
C643 C649 1.491 1_544 S
C644 H635 0.950 . S
C644 C643 1.398 1_565 S
C644 C645 1.391 1_565 S
C645 H633 0.951 1_545 S
C645 C641 1.393 . S
C645 C644 1.391 1_545 S
C646 H636 0.950 . S
C646 C647 1.386 . S
C646 C648 1.391 . S
C647 C646 1.386 . S
C647 C651 1.393 . S
C648 H637 0.950 . S
C648 C646 1.391 . S
C648 C649 1.400 . S
C649 C643 1.491 1_566 S
C649 C648 1.400 . S
C649 C650 1.398 1_565 S
C650 H638 0.950 . S
C650 C649 1.398 1_545 S
C650 C651 1.391 1_545 S
C651 H639 0.951 1_565 S
C651 C647 1.393 . S
C651 C650 1.391 1_565 S
H652 C660 0.950 . S
H653 C665 0.950 . S
H654 C662 0.950 . S
H655 C664 0.949 1_456 S
H656 C666 0.950 . S
H657 C668 0.950 . S
H658 C670 0.949 1_654 S
H659 C671 0.950 . S
C660 H652 0.950 . S
C660 C661 1.386 . S
C660 C662 1.391 . S
C661 C660 1.386 . S
C661 C665 1.393 . S
C662 H654 0.950 . S
C662 C660 1.391 . S
C662 C663 1.400 . S
C663 C662 1.400 . S
C663 C664 1.398 . S
C663 C669 1.491 1_654 S
C664 H655 0.949 1_654 S
C664 C663 1.398 . S
C664 C665 1.391 . S
C665 H653 0.950 . S
C665 C661 1.393 . S
C665 C664 1.391 . S
C666 H656 0.950 . S
C666 C667 1.386 . S
C666 C668 1.391 . S
C667 C666 1.386 . S
C667 C671 1.393 . S
C668 H657 0.950 . S
C668 C666 1.391 . S
C668 C669 1.400 . S
C669 C663 1.491 1_456 S
C669 C668 1.400 . S
C669 C670 1.398 . S
C670 H658 0.949 1_456 S
C670 C669 1.398 . S
C670 C671 1.391 . S
C671 H659 0.950 . S
C671 C667 1.393 . S
C671 C670 1.391 . S
H672 C680 0.950 . S
H673 C685 0.950 . S
H674 C682 0.950 . S
H675 C684 0.950 . S
H676 C686 0.950 . S
H677 C688 0.950 . S
H678 C690 0.950 . S
H679 C691 0.950 . S
C680 H672 0.950 . S
C680 C681 1.386 . S
C680 C682 1.391 . S
C681 C680 1.386 . S
C681 C685 1.393 . S
C682 H674 0.950 . S
C682 C680 1.391 . S
C682 C683 1.400 . S
C683 C682 1.400 . S
C683 C684 1.398 . S
C683 C689 1.491 . S
C684 H675 0.950 . S
C684 C683 1.398 . S
C684 C685 1.391 . S
C685 H673 0.950 . S
C685 C681 1.393 . S
C685 C684 1.391 . S
C686 H676 0.950 . S
C686 C687 1.386 . S
C686 C688 1.391 . S
C687 C686 1.386 . S
C687 C691 1.393 . S
C688 H677 0.950 . S
C688 C686 1.391 . S
C688 C689 1.400 . S
C689 C683 1.491 . S
C689 C688 1.400 . S
C689 C690 1.398 . S
C690 H678 0.950 . S
C690 C689 1.398 . S
C690 C691 1.391 . S
C691 H679 0.950 . S
C691 C687 1.393 . S
C691 C690 1.391 . S
H692 C700 0.948 1_545 S
H693 C705 0.950 . S
H694 C702 0.950 . S
H695 C704 0.950 . S
H696 C706 0.948 1_565 S
H697 C708 0.950 . S
H698 C710 0.950 . S
H699 C711 0.950 . S
C700 H692 0.948 1_565 S
C700 C701 1.386 . S
C700 C702 1.391 1_565 S
C701 C700 1.386 . S
C701 C705 1.393 . S
C702 H694 0.950 . S
C702 C700 1.391 1_545 S
C702 C703 1.400 1_545 S
C703 C702 1.400 1_565 S
C703 C704 1.398 . S
C703 C709 1.491 1_565 S
C704 H695 0.950 . S
C704 C703 1.398 . S
C704 C705 1.391 . S
C705 H693 0.950 . S
C705 C701 1.393 . S
C705 C704 1.391 . S
C706 H696 0.948 1_545 S
C706 C707 1.386 . S
C706 C708 1.391 1_545 S
C707 C706 1.386 . S
C707 C711 1.393 . S
C708 H697 0.950 . S
C708 C706 1.391 1_565 S
C708 C709 1.400 1_565 S
C709 C703 1.491 1_545 S
C709 C708 1.400 1_545 S
C709 C710 1.398 . S
C710 H698 0.950 . S
C710 C709 1.398 . S
C710 C711 1.391 . S
C711 H699 0.950 . S
C711 C707 1.393 . S
C711 C710 1.391 . S
H712 C720 0.950 . S
H713 C725 0.950 . S
H714 C722 0.956 . S
H715 C724 0.950 . S
H716 C726 0.950 . S
H717 C728 0.956 . S
H718 C730 0.950 . S
H719 C731 0.950 . S
C720 H712 0.950 . S
C720 C721 1.386 . S
C720 C722 1.390 1_655 S
C721 C720 1.386 . S
C721 C725 1.393 . S
C722 H714 0.956 . S
C722 C720 1.390 1_455 S
C722 C723 1.395 1_455 S
C723 C722 1.395 1_655 S
C723 C724 1.398 . S
C723 C729 1.491 1_655 S
C724 H715 0.950 . S
C724 C723 1.398 . S
C724 C725 1.391 . S
C725 H713 0.950 . S
C725 C721 1.393 . S
C725 C724 1.391 . S
C726 H716 0.950 . S
C726 C727 1.386 . S
C726 C728 1.390 1_455 S
C727 C726 1.386 . S
C727 C731 1.393 . S
C728 H717 0.956 . S
C728 C726 1.390 1_655 S
C728 C729 1.395 1_655 S
C729 C723 1.491 1_455 S
C729 C728 1.395 1_455 S
C729 C730 1.398 . S
C730 H718 0.950 . S
C730 C729 1.398 . S
C730 C731 1.391 . S
C731 H719 0.950 . S
C731 C727 1.393 . S
C731 C730 1.391 . S
H732 C740 0.950 . S
H733 C745 0.950 . S
H734 C742 0.950 . S
H735 C744 0.950 . S
H736 C746 0.950 . S
H737 C748 0.950 . S
H738 C750 0.950 . S
H739 C751 0.950 . S
C740 H732 0.950 . S
C740 C741 1.386 . S
C740 C742 1.391 . S
C741 C740 1.386 . S
C741 C745 1.393 . S
C742 H734 0.950 . S
C742 C740 1.391 . S
C742 C743 1.400 . S
C743 C742 1.400 . S
C743 C744 1.398 . S
C743 C749 1.491 . S
C744 H735 0.950 . S
C744 C743 1.398 . S
C744 C745 1.391 . S
C745 H733 0.950 . S
C745 C741 1.393 . S
C745 C744 1.391 . S
C746 H736 0.950 . S
C746 C747 1.386 . S
C746 C748 1.391 . S
C747 C746 1.386 . S
C747 C751 1.393 . S
C748 H737 0.950 . S
C748 C746 1.391 . S
C748 C749 1.400 . S
C749 C743 1.491 . S
C749 C748 1.400 . S
C749 C750 1.398 . S
C750 H738 0.950 . S
C750 C749 1.398 . S
C750 C751 1.391 . S
C751 H739 0.950 . S
C751 C747 1.393 . S
C751 C750 1.391 . S
H752 C760 0.950 . S
H753 C765 0.950 . S
H754 C762 0.950 . S
H755 C764 0.950 . S
H756 C766 0.950 . S
H757 C768 0.950 . S
H758 C770 0.950 . S
H759 C771 0.950 . S
C760 H752 0.950 . S
C760 C761 1.386 . S
C760 C762 1.391 . S
C761 C760 1.386 . S
C761 C765 1.393 . S
C762 H754 0.950 . S
C762 C760 1.391 . S
C762 C763 1.400 . S
C763 C762 1.400 . S
C763 C764 1.398 . S
C763 C769 1.491 . S
C764 H755 0.950 . S
C764 C763 1.398 . S
C764 C765 1.391 . S
C765 H753 0.950 . S
C765 C761 1.393 . S
C765 C764 1.391 . S
C766 H756 0.950 . S
C766 C767 1.386 . S
C766 C768 1.391 . S
C767 C766 1.386 . S
C767 C771 1.393 . S
C768 H757 0.950 . S
C768 C766 1.391 . S
C768 C769 1.400 . S
C769 C763 1.491 . S
C769 C768 1.400 . S
C769 C770 1.398 . S
C770 H758 0.950 . S
C770 C769 1.398 . S
C770 C771 1.391 . S
C771 H759 0.950 . S
C771 C767 1.393 . S
C771 C770 1.391 . S
H772 C780 0.950 . S
H773 C785 0.950 . S
H774 C782 0.950 . S
H775 C784 0.950 . S
H776 C786 0.950 . S
H777 C788 0.950 . S
H778 C790 0.950 . S
H779 C791 0.950 . S
C780 H772 0.950 . S
C780 C781 1.386 . S
C780 C782 1.391 . S
C781 C780 1.386 . S
C781 C785 1.393 . S
C782 H774 0.950 . S
C782 C780 1.391 . S
C782 C783 1.400 . S
C783 C782 1.400 . S
C783 C784 1.398 . S
C783 C789 1.491 . S
C784 H775 0.950 . S
C784 C783 1.398 . S
C784 C785 1.391 . S
C785 H773 0.950 . S
C785 C781 1.393 . S
C785 C784 1.391 . S
C786 H776 0.950 . S
C786 C787 1.386 . S
C786 C788 1.391 . S
C787 C786 1.386 . S
C787 C791 1.393 . S
C788 H777 0.950 . S
C788 C786 1.391 . S
C788 C789 1.400 . S
C789 C783 1.491 . S
C789 C788 1.400 . S
C789 C790 1.398 . S
C790 H778 0.950 . S
C790 C789 1.398 . S
C790 C791 1.391 . S
C791 H779 0.950 . S
C791 C787 1.393 . S
C791 C790 1.391 . S
H792 C800 0.950 . S
H793 C805 0.950 . S
H794 C802 0.950 . S
H795 C804 0.950 . S
H796 C806 0.950 . S
H797 C808 0.950 . S
H798 C810 0.950 . S
H799 C811 0.950 . S
C800 H792 0.950 . S
C800 C801 1.386 . S
C800 C802 1.391 . S
C801 C800 1.386 . S
C801 C805 1.393 . S
C802 H794 0.950 . S
C802 C800 1.391 . S
C802 C803 1.400 . S
C803 C802 1.400 . S
C803 C804 1.398 . S
C803 C809 1.491 . S
C804 H795 0.950 . S
C804 C803 1.398 . S
C804 C805 1.391 . S
C805 H793 0.950 . S
C805 C801 1.393 . S
C805 C804 1.391 . S
C806 H796 0.950 . S
C806 C807 1.386 . S
C806 C808 1.391 . S
C807 C806 1.386 . S
C807 C811 1.393 . S
C808 H797 0.950 . S
C808 C806 1.391 . S
C808 C809 1.400 . S
C809 C803 1.491 . S
C809 C808 1.400 . S
C809 C810 1.398 . S
C810 H798 0.950 . S
C810 C809 1.398 . S
C810 C811 1.391 . S
C811 H799 0.950 . S
C811 C807 1.393 . S
C811 C810 1.391 . S
H812 C820 0.950 . S
H813 C825 0.950 . S
H814 C822 0.950 . S
H815 C824 0.950 . S
H816 C826 0.950 . S
H817 C828 0.950 . S
H818 C830 0.950 . S
H819 C831 0.950 . S
C820 H812 0.950 . S
C820 C821 1.386 . S
C820 C822 1.391 . S
C821 C820 1.386 . S
C821 C825 1.393 . S
C822 H814 0.950 . S
C822 C820 1.391 . S
C822 C823 1.400 . S
C823 C822 1.400 . S
C823 C824 1.398 . S
C823 C829 1.491 . S
C824 H815 0.950 . S
C824 C823 1.398 . S
C824 C825 1.391 . S
C825 H813 0.950 . S
C825 C821 1.393 . S
C825 C824 1.391 . S
C826 H816 0.950 . S
C826 C827 1.386 . S
C826 C828 1.391 . S
C827 C826 1.386 . S
C827 C831 1.393 . S
C828 H817 0.950 . S
C828 C826 1.391 . S
C828 C829 1.400 . S
C829 C823 1.491 . S
C829 C828 1.400 . S
C829 C830 1.398 . S
C830 H818 0.950 . S
C830 C829 1.398 . S
C830 C831 1.391 . S
C831 H819 0.950 . S
C831 C827 1.393 . S
C831 C830 1.391 . S
H832 C840 0.950 . S
H833 C845 0.950 . S
H834 C842 0.950 . S
H835 C844 0.950 . S
H836 C846 0.950 . S
H837 C848 0.950 . S
H838 C850 0.950 . S
H839 C851 0.950 . S
C840 H832 0.950 . S
C840 C841 1.386 . S
C840 C842 1.391 . S
C841 C840 1.386 . S
C841 C845 1.393 . S
C842 H834 0.950 . S
C842 C840 1.391 . S
C842 C843 1.400 . S
C843 C842 1.400 . S
C843 C844 1.398 . S
C843 C849 1.491 . S
C844 H835 0.950 . S
C844 C843 1.398 . S
C844 C845 1.391 . S
C845 H833 0.950 . S
C845 C841 1.393 . S
C845 C844 1.391 . S
C846 H836 0.950 . S
C846 C847 1.386 . S
C846 C848 1.391 . S
C847 C846 1.386 . S
C847 C851 1.393 . S
C848 H837 0.950 . S
C848 C846 1.391 . S
C848 C849 1.400 . S
C849 C843 1.491 . S
C849 C848 1.400 . S
C849 C850 1.398 . S
C850 H838 0.950 . S
C850 C849 1.398 . S
C850 C851 1.391 . S
C851 H839 0.950 . S
C851 C847 1.393 . S
C851 C850 1.391 . S
H852 C860 0.950 . S
H853 C865 0.950 . S
H854 C862 0.950 . S
H855 C864 0.950 . S
H856 C866 0.950 . S
H857 C868 0.950 . S
H858 C870 0.950 . S
H859 C871 0.950 . S
C860 H852 0.950 . S
C860 C861 1.386 . S
C860 C862 1.391 . S
C861 C860 1.386 . S
C861 C865 1.393 . S
C862 H854 0.950 . S
C862 C860 1.391 . S
C862 C863 1.400 . S
C863 C862 1.400 . S
C863 C864 1.398 . S
C863 C869 1.491 . S
C864 H855 0.950 . S
C864 C863 1.398 . S
C864 C865 1.391 . S
C865 H853 0.950 . S
C865 C861 1.393 . S
C865 C864 1.391 . S
C866 H856 0.950 . S
C866 C867 1.386 . S
C866 C868 1.391 . S
C867 C866 1.386 . S
C867 C871 1.393 . S
C868 H857 0.950 . S
C868 C866 1.391 . S
C868 C869 1.400 . S
C869 C863 1.491 . S
C869 C868 1.400 . S
C869 C870 1.398 . S
C870 H858 0.950 . S
C870 C869 1.398 . S
C870 C871 1.391 . S
C871 H859 0.950 . S
C871 C867 1.393 . S
C871 C870 1.391 . S
H872 C880 0.950 . S
H873 C885 0.950 . S
H874 C882 0.950 . S
H875 C884 0.950 . S
H876 C886 0.950 . S
H877 C888 0.950 . S
H878 C890 0.950 . S
H879 C891 0.950 . S
C880 H872 0.950 . S
C880 C881 1.386 . S
C880 C882 1.391 . S
C881 C880 1.386 . S
C881 C885 1.393 . S
C882 H874 0.950 . S
C882 C880 1.391 . S
C882 C883 1.400 . S
C883 C882 1.400 . S
C883 C884 1.398 . S
C883 C889 1.491 . S
C884 H875 0.950 . S
C884 C883 1.398 . S
C884 C885 1.391 . S
C885 H873 0.950 . S
C885 C881 1.393 . S
C885 C884 1.391 . S
C886 H876 0.950 . S
C886 C887 1.386 . S
C886 C888 1.391 . S
C887 C886 1.386 . S
C887 C891 1.393 . S
C888 H877 0.950 . S
C888 C886 1.391 . S
C888 C889 1.400 . S
C889 C883 1.491 . S
C889 C888 1.400 . S
C889 C890 1.398 . S
C890 H878 0.950 . S
C890 C889 1.398 . S
C890 C891 1.391 . S
C891 H879 0.950 . S
C891 C887 1.393 . S
C891 C890 1.391 . S
H892 C900 0.950 . S
H893 C905 0.950 . S
H894 C902 0.950 . S
H895 C904 0.950 . S
H896 C906 0.950 . S
H897 C908 0.950 . S
H898 C910 0.950 . S
H899 C911 0.950 . S
C900 H892 0.950 . S
C900 C901 1.386 . S
C900 C902 1.391 . S
C901 C900 1.386 . S
C901 C905 1.393 . S
C902 H894 0.950 . S
C902 C900 1.391 . S
C902 C903 1.400 . S
C903 C902 1.400 . S
C903 C904 1.398 . S
C903 C909 1.491 . S
C904 H895 0.950 . S
C904 C903 1.398 . S
C904 C905 1.391 . S
C905 H893 0.950 . S
C905 C901 1.393 . S
C905 C904 1.391 . S
C906 H896 0.950 . S
C906 C907 1.386 . S
C906 C908 1.391 . S
C907 C906 1.386 . S
C907 C911 1.393 . S
C908 H897 0.950 . S
C908 C906 1.391 . S
C908 C909 1.400 . S
C909 C903 1.491 . S
C909 C908 1.400 . S
C909 C910 1.398 . S
C910 H898 0.950 . S
C910 C909 1.398 . S
C910 C911 1.391 . S
C911 H899 0.950 . S
C911 C907 1.393 . S
C911 C910 1.391 . S
H912 C920 0.950 . S
H913 C925 0.950 . S
H914 C922 0.950 . S
H915 C924 0.950 . S
H916 C926 0.950 . S
H917 C928 0.950 . S
H918 C930 0.950 . S
H919 C931 0.950 . S
C920 H912 0.950 . S
C920 C921 1.386 . S
C920 C922 1.391 . S
C921 C920 1.386 . S
C921 C925 1.393 . S
C922 H914 0.950 . S
C922 C920 1.391 . S
C922 C923 1.400 . S
C923 C922 1.400 . S
C923 C924 1.398 . S
C923 C929 1.491 . S
C924 H915 0.950 . S
C924 C923 1.398 . S
C924 C925 1.391 . S
C925 H913 0.950 . S
C925 C921 1.393 . S
C925 C924 1.391 . S
C926 H916 0.950 . S
C926 C927 1.386 . S
C926 C928 1.391 . S
C927 C926 1.386 . S
C927 C931 1.393 . S
C928 H917 0.950 . S
C928 C926 1.391 . S
C928 C929 1.400 . S
C929 C923 1.491 . S
C929 C928 1.400 . S
C929 C930 1.398 . S
C930 H918 0.950 . S
C930 C929 1.398 . S
C930 C931 1.391 . S
C931 H919 0.950 . S
C931 C927 1.393 . S
C931 C930 1.391 . S
H932 C940 0.950 . S
H933 C945 0.950 . S
H934 C942 0.950 . S
H935 C944 0.950 . S
H936 C946 0.950 . S
H937 C948 0.950 . S
H938 C950 0.950 . S
H939 C951 0.950 . S
C940 H932 0.950 . S
C940 C941 1.386 . S
C940 C942 1.391 . S
C941 C940 1.386 . S
C941 C945 1.393 . S
C942 H934 0.950 . S
C942 C940 1.391 . S
C942 C943 1.400 . S
C943 C942 1.400 . S
C943 C944 1.398 . S
C943 C949 1.491 . S
C944 H935 0.950 . S
C944 C943 1.398 . S
C944 C945 1.391 . S
C945 H933 0.950 . S
C945 C941 1.393 . S
C945 C944 1.391 . S
C946 H936 0.950 . S
C946 C947 1.386 . S
C946 C948 1.391 . S
C947 C946 1.386 . S
C947 C951 1.393 . S
C948 H937 0.950 . S
C948 C946 1.391 . S
C948 C949 1.400 . S
C949 C943 1.491 . S
C949 C948 1.400 . S
C949 C950 1.398 . S
C950 H938 0.950 . S
C950 C949 1.398 . S
C950 C951 1.391 . S
C951 H939 0.950 . S
C951 C947 1.393 . S
C951 C950 1.391 . S
H952 C960 0.950 . S
H953 C965 0.950 . S
H954 C962 0.950 . S
H955 C964 0.950 . S
H956 C966 0.950 . S
H957 C968 0.950 . S
H958 C970 0.950 . S
H959 C971 0.950 . S
C960 H952 0.950 . S
C960 C961 1.386 . S
C960 C962 1.391 . S
C961 C960 1.386 . S
C961 C965 1.393 . S
C962 H954 0.950 . S
C962 C960 1.391 . S
C962 C963 1.400 . S
C963 C962 1.400 . S
C963 C964 1.398 . S
C963 C969 1.491 . S
C964 H955 0.950 . S
C964 C963 1.398 . S
C964 C965 1.391 . S
C965 H953 0.950 . S
C965 C961 1.393 . S
C965 C964 1.391 . S
C966 H956 0.950 . S
C966 C967 1.386 . S
C966 C968 1.391 . S
C967 C966 1.386 . S
C967 C971 1.393 . S
C968 H957 0.950 . S
C968 C966 1.391 . S
C968 C969 1.400 . S
C969 C963 1.491 . S
C969 C968 1.400 . S
C969 C970 1.398 . S
C970 H958 0.950 . S
C970 C969 1.398 . S
C970 C971 1.391 . S
C971 H959 0.950 . S
C971 C967 1.393 . S
C971 C970 1.391 . S
H972 C980 0.950 . S
H973 C985 0.950 . S
H974 C982 0.950 . S
H975 C984 0.950 . S
H976 C986 0.950 . S
H977 C988 0.950 . S
H978 C990 0.950 . S
H979 C991 0.950 . S
C980 H972 0.950 . S
C980 C981 1.386 . S
C980 C982 1.391 . S
C981 C980 1.386 . S
C981 C985 1.393 . S
C982 H974 0.950 . S
C982 C980 1.391 . S
C982 C983 1.400 . S
C983 C982 1.400 . S
C983 C984 1.398 . S
C983 C989 1.491 . S
C984 H975 0.950 . S
C984 C983 1.398 . S
C984 C985 1.391 . S
C985 H973 0.950 . S
C985 C981 1.393 . S
C985 C984 1.391 . S
C986 H976 0.950 . S
C986 C987 1.386 . S
C986 C988 1.391 . S
C987 C986 1.386 . S
C987 C991 1.393 . S
C988 H977 0.950 . S
C988 C986 1.391 . S
C988 C989 1.400 . S
C989 C983 1.491 . S
C989 C988 1.400 . S
C989 C990 1.398 . S
C990 H978 0.950 . S
C990 C989 1.398 . S
C990 C991 1.391 . S
C991 H979 0.950 . S
C991 C987 1.393 . S
C991 C990 1.391 . S
H992 C1000 0.950 . S
H993 C1005 0.950 . S
H994 C1002 0.950 1_545 S
H995 C1004 0.950 . S
H996 C1006 0.950 . S
H997 C1008 0.950 1_565 S
H998 C1010 0.950 . S
H999 C1011 0.950 . S
C1000 H992 0.950 . S
C1000 C1001 1.386 . S
C1000 C1002 1.391 . S
C1001 C1000 1.386 . S
C1001 C1005 1.393 . S
C1002 H994 0.950 1_565 S
C1002 C1000 1.391 . S
C1002 C1003 1.400 . S
C1003 C1002 1.400 . S
C1003 C1004 1.398 . S
C1003 C1009 1.491 1_565 S
C1004 H995 0.950 . S
C1004 C1003 1.398 . S
C1004 C1005 1.391 . S
C1005 H993 0.950 . S
C1005 C1001 1.393 . S
C1005 C1004 1.391 . S
C1006 H996 0.950 . S
C1006 C1007 1.386 . S
C1006 C1008 1.391 . S
C1007 C1006 1.386 . S
C1007 C1011 1.393 . S
C1008 H997 0.950 1_545 S
C1008 C1006 1.391 . S
C1008 C1009 1.400 . S
C1009 C1003 1.491 1_545 S
C1009 C1008 1.400 . S
C1009 C1010 1.398 . S
C1010 H998 0.950 . S
C1010 C1009 1.398 . S
C1010 C1011 1.391 . S
C1011 H999 0.950 . S
C1011 C1007 1.393 . S
C1011 C1010 1.391 . S
H1012 C1020 0.950 . S
H1013 C1025 0.950 . S
H1014 C1022 0.950 . S
H1015 C1024 0.950 . S
H1016 C1026 0.950 . S
H1017 C1028 0.950 . S
H1018 C1030 0.950 . S
H1019 C1031 0.950 . S
C1020 H1012 0.950 . S
C1020 C1021 1.386 . S
C1020 C1022 1.391 . S
C1021 C1020 1.386 . S
C1021 C1025 1.393 . S
C1022 H1014 0.950 . S
C1022 C1020 1.391 . S
C1022 C1023 1.400 . S
C1023 C1022 1.400 . S
C1023 C1024 1.398 . S
C1023 C1029 1.491 1_455 S
C1024 H1015 0.950 . S
C1024 C1023 1.398 . S
C1024 C1025 1.391 . S
C1025 H1013 0.950 . S
C1025 C1021 1.393 . S
C1025 C1024 1.391 . S
C1026 H1016 0.950 . S
C1026 C1027 1.386 . S
C1026 C1028 1.391 . S
C1027 C1026 1.386 . S
C1027 C1031 1.393 . S
C1028 H1017 0.950 . S
C1028 C1026 1.391 . S
C1028 C1029 1.400 . S
C1029 C1023 1.491 1_655 S
C1029 C1028 1.400 . S
C1029 C1030 1.398 . S
C1030 H1018 0.950 . S
C1030 C1029 1.398 . S
C1030 C1031 1.391 . S
C1031 H1019 0.950 . S
C1031 C1027 1.393 . S
C1031 C1030 1.391 . S
H1032 C1040 0.950 . S
H1033 C1045 0.950 . S
H1034 C1042 0.950 . S
H1035 C1044 0.950 . S
H1036 C1046 0.950 . S
H1037 C1048 0.950 . S
H1038 C1050 0.950 . S
H1039 C1051 0.950 . S
C1040 H1032 0.950 . S
C1040 C1041 1.386 . S
C1040 C1042 1.391 . S
C1041 C1040 1.386 . S
C1041 C1045 1.393 . S
C1042 H1034 0.950 . S
C1042 C1040 1.391 . S
C1042 C1043 1.400 . S
C1043 C1042 1.400 . S
C1043 C1044 1.398 . S
C1043 C1049 1.491 . S
C1044 H1035 0.950 . S
C1044 C1043 1.398 . S
C1044 C1045 1.391 . S
C1045 H1033 0.950 . S
C1045 C1041 1.393 . S
C1045 C1044 1.391 . S
C1046 H1036 0.950 . S
C1046 C1047 1.386 . S
C1046 C1048 1.391 . S
C1047 C1046 1.386 . S
C1047 C1051 1.393 . S
C1048 H1037 0.950 . S
C1048 C1046 1.391 . S
C1048 C1049 1.400 . S
C1049 C1043 1.491 . S
C1049 C1048 1.400 . S
C1049 C1050 1.398 . S
C1050 H1038 0.950 . S
C1050 C1049 1.398 . S
C1050 C1051 1.391 . S
C1051 H1039 0.950 . S
C1051 C1047 1.393 . S
C1051 C1050 1.391 . S
H1052 C1060 0.950 . S
H1053 C1065 0.950 . S
H1054 C1062 0.950 . S
H1055 C1064 0.950 . S
H1056 C1066 0.950 . S
H1057 C1068 0.950 . S
H1058 C1070 0.950 . S
H1059 C1071 0.950 . S
C1060 H1052 0.950 . S
C1060 C1061 1.386 . S
C1060 C1062 1.391 . S
C1061 C1060 1.386 . S
C1061 C1065 1.393 . S
C1062 H1054 0.950 . S
C1062 C1060 1.391 . S
C1062 C1063 1.400 . S
C1063 C1062 1.400 . S
C1063 C1064 1.398 . S
C1063 C1069 1.491 1_565 S
C1064 H1055 0.950 . S
C1064 C1063 1.398 . S
C1064 C1065 1.391 . S
C1065 H1053 0.950 . S
C1065 C1061 1.393 . S
C1065 C1064 1.391 . S
C1066 H1056 0.950 . S
C1066 C1067 1.386 . S
C1066 C1068 1.391 . S
C1067 C1066 1.386 . S
C1067 C1071 1.393 . S
C1068 H1057 0.950 . S
C1068 C1066 1.391 . S
C1068 C1069 1.400 . S
C1069 C1063 1.491 1_545 S
C1069 C1068 1.400 . S
C1069 C1070 1.398 . S
C1070 H1058 0.950 . S
C1070 C1069 1.398 . S
C1070 C1071 1.391 . S
C1071 H1059 0.950 . S
C1071 C1067 1.393 . S
C1071 C1070 1.391 . S
H1072 C1080 0.950 . S
H1073 C1085 0.950 . S
H1074 C1082 0.950 1_455 S
H1075 C1084 0.950 . S
H1076 C1086 0.950 . S
H1077 C1088 0.950 1_655 S
H1078 C1090 0.950 . S
H1079 C1091 0.950 . S
C1080 H1072 0.950 . S
C1080 C1081 1.386 . S
C1080 C1082 1.391 . S
C1081 C1080 1.386 . S
C1081 C1085 1.393 . S
C1082 H1074 0.950 1_655 S
C1082 C1080 1.391 . S
C1082 C1083 1.400 . S
C1083 C1082 1.400 . S
C1083 C1084 1.398 . S
C1083 C1089 1.491 1_655 S
C1084 H1075 0.950 . S
C1084 C1083 1.398 . S
C1084 C1085 1.391 . S
C1085 H1073 0.950 . S
C1085 C1081 1.393 . S
C1085 C1084 1.391 . S
C1086 H1076 0.950 . S
C1086 C1087 1.386 . S
C1086 C1088 1.391 . S
C1087 C1086 1.386 . S
C1087 C1091 1.393 . S
C1088 H1077 0.950 1_455 S
C1088 C1086 1.391 . S
C1088 C1089 1.400 . S
C1089 C1083 1.491 1_455 S
C1089 C1088 1.400 . S
C1089 C1090 1.398 . S
C1090 H1078 0.950 . S
C1090 C1089 1.398 . S
C1090 C1091 1.391 . S
C1091 H1079 0.950 . S
C1091 C1087 1.393 . S
C1091 C1090 1.391 . S
H1092 C1100 0.950 . S
H1093 C1105 0.950 . S
H1094 C1102 0.950 . S
H1095 C1104 0.950 . S
H1096 C1106 0.950 1_554 S
H1097 C1108 0.950 . S
H1098 C1110 0.950 . S
H1099 C1111 0.950 . S
C1100 H1092 0.950 . S
C1100 C1101 1.386 . S
C1100 C1102 1.391 . S
C1101 C1100 1.386 . S
C1101 C1105 1.393 . S
C1102 H1094 0.950 . S
C1102 C1100 1.391 . S
C1102 C1103 1.400 . S
C1103 C1102 1.400 . S
C1103 C1104 1.398 . S
C1103 C1109 1.491 . S
C1104 H1095 0.950 . S
C1104 C1103 1.398 . S
C1104 C1105 1.391 . S
C1105 H1093 0.950 . S
C1105 C1101 1.393 . S
C1105 C1104 1.391 . S
C1106 H1096 0.950 1_556 S
C1106 C1107 1.386 . S
C1106 C1108 1.391 . S
C1107 C1106 1.386 . S
C1107 C1111 1.393 . S
C1108 H1097 0.950 . S
C1108 C1106 1.391 . S
C1108 C1109 1.400 . S
C1109 C1103 1.491 . S
C1109 C1108 1.400 . S
C1109 C1110 1.398 . S
C1110 H1098 0.950 . S
C1110 C1109 1.398 . S
C1110 C1111 1.391 . S
C1111 H1099 0.950 . S
C1111 C1107 1.393 . S
C1111 C1110 1.391 . S
H1112 C1120 0.950 1_554 S
H1113 C1125 0.950 . S
H1114 C1122 0.950 . S
H1115 C1124 0.950 . S
H1116 C1126 0.950 . S
H1117 C1128 0.950 . S
H1118 C1130 0.950 . S
H1119 C1131 0.950 . S
C1120 H1112 0.950 1_556 S
C1120 C1121 1.386 . S
C1120 C1122 1.391 . S
C1121 C1120 1.386 . S
C1121 C1125 1.393 . S
C1122 H1114 0.950 . S
C1122 C1120 1.391 . S
C1122 C1123 1.400 . S
C1123 C1122 1.400 . S
C1123 C1124 1.398 . S
C1123 C1129 1.491 . S
C1124 H1115 0.950 . S
C1124 C1123 1.398 . S
C1124 C1125 1.391 . S
C1125 H1113 0.950 . S
C1125 C1121 1.393 . S
C1125 C1124 1.391 . S
C1126 H1116 0.950 . S
C1126 C1127 1.386 . S
C1126 C1128 1.391 . S
C1127 C1126 1.386 . S
C1127 C1131 1.393 . S
C1128 H1117 0.950 . S
C1128 C1126 1.391 . S
C1128 C1129 1.400 . S
C1129 C1123 1.491 . S
C1129 C1128 1.400 . S
C1129 C1130 1.398 . S
C1130 H1118 0.950 . S
C1130 C1129 1.398 . S
C1130 C1131 1.391 . S
C1131 H1119 0.950 . S
C1131 C1127 1.393 . S
C1131 C1130 1.391 . S
H1132 C1140 0.950 1_554 S
H1133 C1145 0.950 . S
H1134 C1142 0.950 . S
H1135 C1144 0.950 . S
H1136 C1146 0.950 . S
H1137 C1148 0.950 . S
H1138 C1150 0.950 . S
H1139 C1151 0.950 . S
C1140 H1132 0.950 1_556 S
C1140 C1141 1.386 . S
C1140 C1142 1.391 . S
C1141 C1140 1.386 . S
C1141 C1145 1.393 . S
C1142 H1134 0.950 . S
C1142 C1140 1.391 . S
C1142 C1143 1.400 . S
C1143 C1142 1.400 . S
C1143 C1144 1.398 . S
C1143 C1149 1.491 . S
C1144 H1135 0.950 . S
C1144 C1143 1.398 . S
C1144 C1145 1.391 . S
C1145 H1133 0.950 . S
C1145 C1141 1.393 . S
C1145 C1144 1.391 . S
C1146 H1136 0.950 . S
C1146 C1147 1.386 . S
C1146 C1148 1.391 . S
C1147 C1146 1.386 . S
C1147 C1151 1.393 . S
C1148 H1137 0.950 . S
C1148 C1146 1.391 . S
C1148 C1149 1.400 . S
C1149 C1143 1.491 . S
C1149 C1148 1.400 . S
C1149 C1150 1.398 . S
C1150 H1138 0.950 . S
C1150 C1149 1.398 . S
C1150 C1151 1.391 . S
C1151 H1139 0.950 . S
C1151 C1147 1.393 . S
C1151 C1150 1.391 . S
H1152 C1160 0.950 . S
H1153 C1165 0.950 . S
H1154 C1162 0.950 . S
H1155 C1164 0.950 . S
H1156 C1166 0.950 . S
H1157 C1168 0.950 . S
H1158 C1170 0.950 . S
H1159 C1171 0.950 . S
C1160 H1152 0.950 . S
C1160 C1161 1.386 . S
C1160 C1162 1.391 . S
C1161 C1160 1.386 . S
C1161 C1165 1.393 . S
C1162 H1154 0.950 . S
C1162 C1160 1.391 . S
C1162 C1163 1.400 . S
C1163 C1162 1.400 . S
C1163 C1164 1.398 . S
C1163 C1169 1.491 . S
C1164 H1155 0.950 . S
C1164 C1163 1.398 . S
C1164 C1165 1.391 . S
C1165 H1153 0.950 . S
C1165 C1161 1.393 . S
C1165 C1164 1.391 . S
C1166 H1156 0.950 . S
C1166 C1167 1.386 . S
C1166 C1168 1.391 . S
C1167 C1166 1.386 . S
C1167 C1171 1.393 . S
C1168 H1157 0.950 . S
C1168 C1166 1.391 . S
C1168 C1169 1.400 . S
C1169 C1163 1.491 . S
C1169 C1168 1.400 . S
C1169 C1170 1.398 . S
C1170 H1158 0.950 . S
C1170 C1169 1.398 . S
C1170 C1171 1.391 . S
C1171 H1159 0.950 . S
C1171 C1167 1.393 . S
C1171 C1170 1.391 . S
H1172 C1180 0.950 . S
H1173 C1185 0.950 . S
H1174 C1182 0.950 . S
H1175 C1184 0.950 . S
H1176 C1186 0.950 . S
H1177 C1188 0.950 . S
H1178 C1190 0.950 . S
H1179 C1191 0.950 . S
C1180 H1172 0.950 . S
C1180 C1181 1.386 . S
C1180 C1182 1.391 . S
C1181 C1180 1.386 . S
C1181 C1185 1.393 . S
C1182 H1174 0.950 . S
C1182 C1180 1.391 . S
C1182 C1183 1.400 . S
C1183 C1182 1.400 . S
C1183 C1184 1.398 . S
C1183 C1189 1.491 . S
C1184 H1175 0.950 . S
C1184 C1183 1.398 . S
C1184 C1185 1.391 . S
C1185 H1173 0.950 . S
C1185 C1181 1.393 . S
C1185 C1184 1.391 . S
C1186 H1176 0.950 . S
C1186 C1187 1.386 . S
C1186 C1188 1.391 . S
C1187 C1186 1.386 . S
C1187 C1191 1.393 . S
C1188 H1177 0.950 . S
C1188 C1186 1.391 . S
C1188 C1189 1.400 . S
C1189 C1183 1.491 . S
C1189 C1188 1.400 . S
C1189 C1190 1.398 . S
C1190 H1178 0.950 . S
C1190 C1189 1.398 . S
C1190 C1191 1.391 . S
C1191 H1179 0.950 . S
C1191 C1187 1.393 . S
C1191 C1190 1.391 . S
H1192 C1200 0.950 . S
H1193 C1205 0.950 . S
H1194 C1202 0.950 . S
H1195 C1204 0.950 . S
H1196 C1206 0.950 . S
H1197 C1208 0.950 . S
H1198 C1210 0.950 . S
H1199 C1211 0.950 . S
C1200 H1192 0.950 . S
C1200 C1201 1.386 . S
C1200 C1202 1.391 . S
C1201 C1200 1.386 . S
C1201 C1205 1.393 . S
C1202 H1194 0.950 . S
C1202 C1200 1.391 . S
C1202 C1203 1.400 . S
C1203 C1202 1.400 . S
C1203 C1204 1.398 . S
C1203 C1209 1.491 . S
C1204 H1195 0.950 . S
C1204 C1203 1.398 . S
C1204 C1205 1.391 . S
C1205 H1193 0.950 . S
C1205 C1201 1.393 . S
C1205 C1204 1.391 . S
C1206 H1196 0.950 . S
C1206 C1207 1.386 . S
C1206 C1208 1.391 . S
C1207 C1206 1.386 . S
C1207 C1211 1.393 . S
C1208 H1197 0.950 . S
C1208 C1206 1.391 . S
C1208 C1209 1.400 . S
C1209 C1203 1.491 . S
C1209 C1208 1.400 . S
C1209 C1210 1.398 . S
C1210 H1198 0.950 . S
C1210 C1209 1.398 . S
C1210 C1211 1.391 . S
C1211 H1199 0.950 . S
C1211 C1207 1.393 . S
C1211 C1210 1.391 . S
H1212 C1220 0.950 . S
H1213 C1225 0.950 . S
H1214 C1222 0.950 . S
H1215 C1224 0.950 . S
H1216 C1226 0.950 . S
H1217 C1228 0.950 . S
H1218 C1230 0.950 . S
H1219 C1231 0.950 . S
C1220 H1212 0.950 . S
C1220 C1221 1.386 . S
C1220 C1222 1.391 . S
C1221 C1220 1.386 . S
C1221 C1225 1.393 . S
C1222 H1214 0.950 . S
C1222 C1220 1.391 . S
C1222 C1223 1.400 . S
C1223 C1222 1.400 . S
C1223 C1224 1.398 . S
C1223 C1229 1.491 . S
C1224 H1215 0.950 . S
C1224 C1223 1.398 . S
C1224 C1225 1.391 . S
C1225 H1213 0.950 . S
C1225 C1221 1.393 . S
C1225 C1224 1.391 . S
C1226 H1216 0.950 . S
C1226 C1227 1.386 . S
C1226 C1228 1.391 . S
C1227 C1226 1.386 . S
C1227 C1231 1.393 . S
C1228 H1217 0.950 . S
C1228 C1226 1.391 . S
C1228 C1229 1.400 . S
C1229 C1223 1.491 . S
C1229 C1228 1.400 . S
C1229 C1230 1.398 . S
C1230 H1218 0.950 . S
C1230 C1229 1.398 . S
C1230 C1231 1.391 . S
C1231 H1219 0.950 . S
C1231 C1227 1.393 . S
C1231 C1230 1.391 . S
H1232 C1240 0.950 . S
H1233 C1245 0.950 . S
H1234 C1242 0.950 . S
H1235 C1244 0.950 . S
H1236 C1246 0.950 . S
H1237 C1248 0.950 . S
H1238 C1250 0.950 . S
H1239 C1251 0.950 . S
C1240 H1232 0.950 . S
C1240 C1241 1.386 . S
C1240 C1242 1.391 . S
C1241 C1240 1.386 . S
C1241 C1245 1.393 . S
C1242 H1234 0.950 . S
C1242 C1240 1.391 . S
C1242 C1243 1.400 . S
C1243 C1242 1.400 . S
C1243 C1244 1.398 . S
C1243 C1249 1.491 . S
C1244 H1235 0.950 . S
C1244 C1243 1.398 . S
C1244 C1245 1.391 . S
C1245 H1233 0.950 . S
C1245 C1241 1.393 . S
C1245 C1244 1.391 . S
C1246 H1236 0.950 . S
C1246 C1247 1.386 . S
C1246 C1248 1.391 . S
C1247 C1246 1.386 . S
C1247 C1251 1.393 . S
C1248 H1237 0.950 . S
C1248 C1246 1.391 . S
C1248 C1249 1.400 . S
C1249 C1243 1.491 . S
C1249 C1248 1.400 . S
C1249 C1250 1.398 . S
C1250 H1238 0.950 . S
C1250 C1249 1.398 . S
C1250 C1251 1.391 . S
C1251 H1239 0.950 . S
C1251 C1247 1.393 . S
C1251 C1250 1.391 . S
H1252 C1260 0.950 1_556 S
H1253 C1265 0.950 . S
H1254 C1262 0.950 . S
H1255 C1264 0.950 . S
H1256 C1266 0.950 . S
H1257 C1268 0.950 . S
H1258 C1270 0.950 . S
H1259 C1271 0.950 . S
C1260 H1252 0.950 1_554 S
C1260 C1261 1.386 . S
C1260 C1262 1.391 . S
C1261 C1260 1.386 . S
C1261 C1265 1.393 . S
C1262 H1254 0.950 . S
C1262 C1260 1.391 . S
C1262 C1263 1.400 . S
C1263 C1262 1.400 . S
C1263 C1264 1.398 . S
C1263 C1269 1.491 . S
C1264 H1255 0.950 . S
C1264 C1263 1.398 . S
C1264 C1265 1.391 . S
C1265 H1253 0.950 . S
C1265 C1261 1.393 . S
C1265 C1264 1.391 . S
C1266 H1256 0.950 . S
C1266 C1267 1.386 . S
C1266 C1268 1.391 . S
C1267 C1266 1.386 . S
C1267 C1271 1.393 . S
C1268 H1257 0.950 . S
C1268 C1266 1.391 . S
C1268 C1269 1.400 . S
C1269 C1263 1.491 . S
C1269 C1268 1.400 . S
C1269 C1270 1.398 . S
C1270 H1258 0.950 . S
C1270 C1269 1.398 . S
C1270 C1271 1.391 . S
C1271 H1259 0.950 . S
C1271 C1267 1.393 . S
C1271 C1270 1.391 . S
H1272 C1280 0.950 . S
H1273 C1285 0.950 . S
H1274 C1282 0.950 . S
H1275 C1284 0.950 . S
H1276 C1286 0.950 . S
H1277 C1288 0.950 . S
H1278 C1290 0.950 . S
H1279 C1291 0.950 . S
C1280 H1272 0.950 . S
C1280 C1281 1.386 . S
C1280 C1282 1.391 . S
C1281 C1280 1.386 . S
C1281 C1285 1.393 . S
C1282 H1274 0.950 . S
C1282 C1280 1.391 . S
C1282 C1283 1.400 . S
C1283 C1282 1.400 . S
C1283 C1284 1.398 . S
C1283 C1289 1.491 . S
C1284 H1275 0.950 . S
C1284 C1283 1.398 . S
C1284 C1285 1.391 . S
C1285 H1273 0.950 . S
C1285 C1281 1.393 . S
C1285 C1284 1.391 . S
C1286 H1276 0.950 . S
C1286 C1287 1.386 . S
C1286 C1288 1.391 . S
C1287 C1286 1.386 . S
C1287 C1291 1.393 . S
C1288 H1277 0.950 . S
C1288 C1286 1.391 . S
C1288 C1289 1.400 . S
C1289 C1283 1.491 . S
C1289 C1288 1.400 . S
C1289 C1290 1.398 . S
C1290 H1278 0.950 . S
C1290 C1289 1.398 . S
C1290 C1291 1.391 . S
C1291 H1279 0.950 . S
C1291 C1287 1.393 . S
C1291 C1290 1.391 . S
H1292 C1300 0.950 . S
H1293 C1305 0.950 . S
H1294 C1302 0.950 . S
H1295 C1304 0.950 . S
H1296 C1306 0.950 . S
H1297 C1308 0.950 . S
H1298 C1310 0.950 . S
H1299 C1311 0.950 . S
C1300 H1292 0.950 . S
C1300 C1301 1.386 . S
C1300 C1302 1.391 . S
C1301 C1300 1.386 . S
C1301 C1305 1.393 . S
C1302 H1294 0.950 . S
C1302 C1300 1.391 . S
C1302 C1303 1.400 . S
C1303 C1302 1.400 . S
C1303 C1304 1.398 . S
C1303 C1309 1.491 . S
C1304 H1295 0.950 . S
C1304 C1303 1.398 . S
C1304 C1305 1.391 . S
C1305 H1293 0.950 . S
C1305 C1301 1.393 . S
C1305 C1304 1.391 . S
C1306 H1296 0.950 . S
C1306 C1307 1.386 . S
C1306 C1308 1.391 . S
C1307 C1306 1.386 . S
C1307 C1311 1.393 . S
C1308 H1297 0.950 . S
C1308 C1306 1.391 . S
C1308 C1309 1.400 . S
C1309 C1303 1.491 . S
C1309 C1308 1.400 . S
C1309 C1310 1.398 . S
C1310 H1298 0.950 . S
C1310 C1309 1.398 . S
C1310 C1311 1.391 . S
C1311 H1299 0.950 . S
C1311 C1307 1.393 . S
C1311 C1310 1.391 . S
H1312 C1320 0.950 . S
H1313 C1325 0.950 . S
H1314 C1322 0.950 . S
H1315 C1324 0.950 . S
H1316 C1326 0.950 . S
H1317 C1328 0.950 . S
H1318 C1330 0.950 . S
H1319 C1331 0.950 . S
C1320 H1312 0.950 . S
C1320 C1321 1.386 . S
C1320 C1322 1.391 . S
C1321 C1320 1.386 . S
C1321 C1325 1.393 . S
C1322 H1314 0.950 . S
C1322 C1320 1.391 . S
C1322 C1323 1.400 . S
C1323 C1322 1.400 . S
C1323 C1324 1.398 . S
C1323 C1329 1.491 . S
C1324 H1315 0.950 . S
C1324 C1323 1.398 . S
C1324 C1325 1.391 . S
C1325 H1313 0.950 . S
C1325 C1321 1.393 . S
C1325 C1324 1.391 . S
C1326 H1316 0.950 . S
C1326 C1327 1.386 . S
C1326 C1328 1.391 . S
C1327 C1326 1.386 . S
C1327 C1331 1.393 . S
C1328 H1317 0.950 . S
C1328 C1326 1.391 . S
C1328 C1329 1.400 . S
C1329 C1323 1.491 . S
C1329 C1328 1.400 . S
C1329 C1330 1.398 . S
C1330 H1318 0.950 . S
C1330 C1329 1.398 . S
C1330 C1331 1.391 . S
C1331 H1319 0.950 . S
C1331 C1327 1.393 . S
C1331 C1330 1.391 . S
C381 C29 1.530 . S
C387 C61 1.391 . S
C401 C72 1.363 . S
C407 C60 1.532 . S
C421 C64 1.527 . S
C427 C30 1.357 . S
C441 C165 1.359 . S
C447 C122 1.524 . S
C461 C123 1.387 . S
C467 C126 1.540 . S
C481 C157 1.529 . S
C487 C134 1.359 . S
C501 C215 1.537 . S
C507 C227 1.400 . S
C521 C278 1.395 . S
C527 C219 1.532 . S
C541 C277 1.540 . S
C547 C216 1.396 . S
C561 C281 1.533 . S
C567 C351 1.396 . S
C581 C289 1.401 . S
C587 C312 1.538 . S
C601 C320 1.358 . S
C607 C343 1.528 . S
C621 C188 1.032 . S
C627 C2 1.032 . S
C641 C33 1.042 . S
C647 C246 1.042 . S
C661 C91 1.024 . S
C667 C250 1.024 . S
C681 C95 1.078 . S
C687 C308 1.078 . S
C701 C153 1.069 . S
C707 C339 1.069 . S
C721 C370 1.025 . S
C727 C184 1.025 . S
C741 C1 1.017 . S
C747 C309 0.989 . S
C761 C32 0.989 . S
C767 C340 0.990 . S
C781 C371 0.972 . S
C787 C82 0.987 . S
C801 C196 1.004 . S
C807 C94 1.012 . S
C821 C247 0.966 . S
C827 C144 1.007 . S
C841 C258 0.992 . S
C847 C175 0.989 . S
C861 C103 0.986 . S
C867 C187 1.017 . S
C881 C237 0.996 . S
C887 C154 0.963 . S
C901 C249 1.013 . S
C907 C185 0.975 . S
C921 C10 0.972 . S
C927 C299 1.012 . S
C941 C330 0.987 . S
C947 C41 0.983 . S
C961 C92 1.005 . S
C967 C361 1.001 . S
C981 C112 2.265 . S
C987 C19 2.259 . S
C1001 C124 2.263 . S
C1007 C50 2.255 . S
C1021 C155 2.252 . S
C1027 C62 2.254 . S
C1041 C205 2.254 . S
C1047 C279 2.252 . S
C1061 C217 2.262 . S
C1067 C310 2.264 . S
C1081 C341 2.255 . S
C1087 C267 2.263 . S
C1101 C311 1.421 . S
C1107 C0 1.562 1_556 S
C1121 C31 1.561 1_556 S
C1127 C342 1.384 . S
C1141 C81 1.559 1_556 S
C1147 C280 1.398 . S
C1161 C93 1.559 . S
C1167 C268 1.415 . S
C1181 C206 1.379 . S
C1187 C143 1.567 . S
C1201 C218 1.400 . S
C1207 C174 1.558 . S
C1221 C186 1.568 1_554 S
C1227 C125 1.381 . S
C1241 C236 1.558 1_554 S
C1247 C156 1.409 . S
C1261 C248 1.564 1_554 S
C1267 C113 1.420 . S
C1281 C63 1.408 . S
C1287 C298 1.558 . S
C1301 C20 1.405 . S
C1307 C329 1.568 . S
C1321 C51 1.411 . S
C1327 C360 1.567 . S
