# Generated by pormake.
# Topology uoz, (4)-cn, num edge types: 1
# Building blocks:
#     Node 0, Type 0, BuildingBlock: CEKHIL_clean_sbu_0, # of connection points: 4
#     Node 1, Type 0, BuildingBlock: CEKHIL_clean_sbu_0, # of connection points: 4
#     Node 2, Type 0, BuildingBlock: CEKHIL_clean_sbu_0, # of connection points: 4
#     Node 3, Type 0, BuildingBlock: CEKHIL_clean_sbu_0, # of connection points: 4
#     Node 4, Type 0, BuildingBlock: CEKHIL_clean_sbu_0, # of connection points: 4
#     Node 5, Type 0, BuildingBlock: CEKHIL_clean_sbu_0, # of connection points: 4
#     Node 6, Type 0, BuildingBlock: CEKHIL_clean_sbu_0, # of connection points: 4
#     Node 7, Type 0, BuildingBlock: CEKHIL_clean_sbu_0, # of connection points: 4
#     Node 8, Type 0, BuildingBlock: CEKHIL_clean_sbu_0, # of connection points: 4
#     Node 9, Type 0, BuildingBlock: CEKHIL_clean_sbu_0, # of connection points: 4
#     Node 10, Type 0, BuildingBlock: CEKHIL_clean_sbu_0, # of connection points: 4
#     Node 11, Type 0, BuildingBlock: CEKHIL_clean_sbu_0, # of connection points: 4
#     Node 12, Type 0, BuildingBlock: CEKHIL_clean_sbu_0, # of connection points: 4
#     Node 13, Type 0, BuildingBlock: CEKHIL_clean_sbu_0, # of connection points: 4
#     Node 14, Type 0, BuildingBlock: CEKHIL_clean_sbu_0, # of connection points: 4
#     Node 15, Type 0, BuildingBlock: CEKHIL_clean_sbu_0, # of connection points: 4
#     Edge 16, Type (0, 0), BuildingBlock: KIFKEQ_clean_linker_1, # of connection points: 2
#     Edge 17, Type (0, 0), BuildingBlock: KIFKEQ_clean_linker_1, # of connection points: 2
#     Edge 18, Type (0, 0), BuildingBlock: KIFKEQ_clean_linker_1, # of connection points: 2
#     Edge 19, Type (0, 0), BuildingBlock: KIFKEQ_clean_linker_1, # of connection points: 2
#     Edge 20, Type (0, 0), BuildingBlock: KIFKEQ_clean_linker_1, # of connection points: 2
#     Edge 21, Type (0, 0), BuildingBlock: KIFKEQ_clean_linker_1, # of connection points: 2
#     Edge 22, Type (0, 0), BuildingBlock: KIFKEQ_clean_linker_1, # of connection points: 2
#     Edge 23, Type (0, 0), BuildingBlock: KIFKEQ_clean_linker_1, # of connection points: 2
#     Edge 24, Type (0, 0), BuildingBlock: KIFKEQ_clean_linker_1, # of connection points: 2
#     Edge 25, Type (0, 0), BuildingBlock: KIFKEQ_clean_linker_1, # of connection points: 2
#     Edge 26, Type (0, 0), BuildingBlock: KIFKEQ_clean_linker_1, # of connection points: 2
#     Edge 27, Type (0, 0), BuildingBlock: KIFKEQ_clean_linker_1, # of connection points: 2
#     Edge 28, Type (0, 0), BuildingBlock: KIFKEQ_clean_linker_1, # of connection points: 2
#     Edge 29, Type (0, 0), BuildingBlock: KIFKEQ_clean_linker_1, # of connection points: 2
#     Edge 30, Type (0, 0), BuildingBlock: KIFKEQ_clean_linker_1, # of connection points: 2
#     Edge 31, Type (0, 0), BuildingBlock: KIFKEQ_clean_linker_1, # of connection points: 2
#     Edge 32, Type (0, 0), BuildingBlock: KIFKEQ_clean_linker_1, # of connection points: 2
#     Edge 33, Type (0, 0), BuildingBlock: KIFKEQ_clean_linker_1, # of connection points: 2
#     Edge 34, Type (0, 0), BuildingBlock: KIFKEQ_clean_linker_1, # of connection points: 2
#     Edge 35, Type (0, 0), BuildingBlock: KIFKEQ_clean_linker_1, # of connection points: 2
#     Edge 36, Type (0, 0), BuildingBlock: KIFKEQ_clean_linker_1, # of connection points: 2
#     Edge 37, Type (0, 0), BuildingBlock: KIFKEQ_clean_linker_1, # of connection points: 2
#     Edge 38, Type (0, 0), BuildingBlock: KIFKEQ_clean_linker_1, # of connection points: 2
#     Edge 39, Type (0, 0), BuildingBlock: KIFKEQ_clean_linker_1, # of connection points: 2
#     Edge 40, Type (0, 0), BuildingBlock: KIFKEQ_clean_linker_1, # of connection points: 2
#     Edge 41, Type (0, 0), BuildingBlock: KIFKEQ_clean_linker_1, # of connection points: 2
#     Edge 42, Type (0, 0), BuildingBlock: KIFKEQ_clean_linker_1, # of connection points: 2
#     Edge 43, Type (0, 0), BuildingBlock: KIFKEQ_clean_linker_1, # of connection points: 2
#     Edge 44, Type (0, 0), BuildingBlock: KIFKEQ_clean_linker_1, # of connection points: 2
#     Edge 45, Type (0, 0), BuildingBlock: KIFKEQ_clean_linker_1, # of connection points: 2
#     Edge 46, Type (0, 0), BuildingBlock: KIFKEQ_clean_linker_1, # of connection points: 2
#     Edge 47, Type (0, 0), BuildingBlock: KIFKEQ_clean_linker_1, # of connection points: 2
# Relax obj value: 0.187
# Max RMSD: 0.171
# Mean RMSD: 0.171
data_MOF--net-uoz--node1-CEKHIL_clean_sbu_0--edge1-KIFKEQ_clean_linker_1
_symmetry_space_group_name_H-M    P1
_symmetry_Int_Tables_number       1
_symmetry_cell_setting            triclinic
loop_
_symmetry_equiv_pos_as_xyz
'x, y, z'
_cell_length_a     60.745685
_cell_length_b     60.733174
_cell_length_c     20.915701
_cell_angle_alpha  89.913168
_cell_angle_beta   89.935401
_cell_angle_gamma 90.039774
loop_
_atom_site_label
_atom_site_type_symbol
_atom_site_fract_x
_atom_site_fract_y
_atom_site_fract_z
_atom_type_partial_charge
Co0 Co 0.03121 0.58991 0.31419 0.0
O1 O 0.01672 0.56556 0.35706 0.0
O2 O 0.047 0.58126 0.39225 0.0
C3 C 1.00025 0.60984 0.29339 0.0
O4 O 0.0505 0.61572 0.28205 0.0
Co5 Co 0.0192 0.60064 0.17092 0.0
O6 O 0.03716 0.62708 0.18688 0.0
C7 C 0.05196 0.56604 0.2017 0.0
C8 C 0.03212 0.566 0.39986 0.0
C9 C 0.05062 0.62893 0.23323 0.0
O10 O 0.0497 0.5688 0.26239 0.0
O11 O 0.04081 0.57633 0.15933 0.0
O12 O 0.00957 0.61107 0.34931 0.0
O13 O 0.00853 0.59533 0.25589 0.0
Co14 Co 0.7054 0.74675 0.57084 0.0
O15 O 0.72989 0.73291 0.61469 0.0
O16 O 0.71347 0.76306 0.64831 0.0
C17 C 0.68574 0.71557 0.55194 0.0
O18 O 0.67965 0.76564 0.5373 0.0
Co19 Co 0.6951 0.73352 0.42836 0.0
O20 O 0.66953 0.75308 0.44001 0.0
C21 C 0.72949 0.76675 0.45749 0.0
C22 C 0.72906 0.74859 0.65655 0.0
C23 C 0.66727 0.76625 0.48694 0.0
O24 O 0.72653 0.76502 0.51827 0.0
O25 O 0.71941 0.75514 0.41577 0.0
O26 O 0.68412 0.72544 0.60692 0.0
O27 O 0.70037 0.72348 0.51401 0.0
Co28 Co 0.54696 0.42374 0.8159 0.0
O29 O 0.56151 0.44783 0.85957 0.0
O30 O 0.53094 0.43231 0.89365 0.0
C31 C 0.57778 0.40353 0.79518 0.0
O32 O 0.52752 0.39824 0.78281 0.0
Co33 Co 0.55937 0.41361 0.67249 0.0
O34 O 0.54048 0.38766 0.68638 0.0
C35 C 0.52694 0.44842 0.70364 0.0
C36 C 0.54588 0.44748 0.90176 0.0
C37 C 0.52709 0.38559 0.73295 0.0
O38 O 0.52887 0.44523 0.76424 0.0
O39 O 0.53819 0.4383 0.66115 0.0
O40 O 0.5683 0.4022 0.85093 0.0
O41 O 0.56978 0.41829 0.75795 0.0
Co42 Co 0.8695 0.26414 0.06154 0.0
O43 O 0.84401 0.27759 0.10189 0.0
O44 O 0.86148 0.24881 0.1408 0.0
C45 C 0.88822 0.29573 0.03909 0.0
O46 O 0.89642 0.24587 0.03284 0.0
Co47 Co 0.88119 0.27491 0.91829 0.0
O48 O 0.90885 0.25957 0.93927 0.0
C49 C 0.8472 0.24146 0.94946 0.0
C50 C 0.84528 0.26273 0.1463 0.0
C51 C 0.91061 0.24645 0.98653 0.0
O52 O 0.84959 0.2442 1.01014 0.0
O53 O 0.85746 0.2526 0.90689 0.0
O54 O 0.88932 0.28705 0.09594 0.0
O55 O 0.87435 0.2865 1.00132 0.0
Co56 Co 0.02941 0.42437 0.83572 0.0
O57 O 0.01509 0.44863 0.79204 0.0
O58 O 0.04554 0.43291 0.75808 0.0
C59 C 0.9984 0.40435 0.85608 0.0
O60 O 0.04863 0.39871 0.86867 0.0
Co61 Co 0.01685 0.41389 0.97889 0.0
O62 O 0.03562 0.38789 0.96489 0.0
C63 C 0.04983 0.44837 0.94837 0.0
C64 C 0.03071 0.44816 0.74983 0.0
C65 C 0.04902 0.38591 0.91831 0.0
O66 O 0.04771 0.44557 0.88767 0.0
O67 O 0.03852 0.43815 0.99064 0.0
O68 O 0.00791 0.40307 0.80039 0.0
O69 O 1.0065 0.41896 0.89354 0.0
Co70 Co 0.87025 0.74901 0.09031 0.0
O71 O 0.84478 0.73521 0.05102 0.0
O72 O 0.86174 0.76426 1.01147 0.0
C73 C 0.88939 0.71767 0.11203 0.0
O74 O 0.89701 0.76769 0.11796 0.0
Co75 Co 0.8828 0.73846 0.23297 0.0
O76 O 0.91021 0.75408 0.21063 0.0
C77 C 0.84808 0.77126 0.20322 0.0
C78 C 0.84568 0.75013 1.00668 0.0
C79 C 0.91148 0.7673 0.16342 0.0
O80 O 0.85029 0.76861 0.14246 0.0
O81 O 0.85871 0.7603 0.24533 0.0
O82 O 0.89022 0.72637 0.05516 0.0
O83 O 0.87559 0.72676 0.15036 0.0
Co84 Co 0.54722 0.59057 0.33264 0.0
O85 O 0.56142 0.56626 0.28913 0.0
O86 O 0.53054 0.58143 0.25656 0.0
C87 C 0.5783 0.61063 0.34872 0.0
O88 O 0.52814 0.61628 0.36588 0.0
Co89 Co 0.561 0.60225 0.47348 0.0
O90 O 0.54313 0.62879 0.45749 0.0
C91 C 0.5281 0.56717 0.44834 0.0
C92 C 0.54552 0.56634 0.24794 0.0
C93 C 0.52887 0.6301 0.41304 0.0
O94 O 0.5297 0.56946 0.3873 0.0
O95 O 0.53958 0.57794 0.4889 0.0
O96 O 0.56799 0.61195 0.29435 0.0
O97 O 0.57073 0.59625 0.38797 0.0
Co98 Co 0.706 0.2635 0.58696 0.0
O99 O 0.73148 0.27709 0.54674 0.0
O100 O 0.71398 0.2484 0.50744 0.0
C101 C 0.6873 0.29501 0.61001 0.0
O102 O 0.67907 0.24513 0.61538 0.0
Co103 Co 0.69437 0.27383 0.73042 0.0
O104 O 0.66669 0.25858 0.70916 0.0
C105 C 0.72841 0.24059 0.69862 0.0
C106 C 0.73019 0.26234 0.50212 0.0
C107 C 0.66488 0.24559 0.6617 0.0
O108 O 0.72593 0.24345 0.63799 0.0
O109 O 0.71818 0.25161 0.74139 0.0
O110 O 0.68618 0.28651 0.55301 0.0
O111 O 0.70118 0.28567 0.64756 0.0
Co112 Co 0.37278 0.24845 0.58009 0.0
O113 O 0.34836 0.2343 0.53687 0.0
O114 O 0.36349 0.26526 0.50437 0.0
C115 C 0.39291 0.2174 0.59561 0.0
O116 O 0.39855 0.26756 0.61264 0.0
Co117 Co 0.38522 0.23471 0.72041 0.0
O118 O 0.41188 0.25229 0.70294 0.0
C119 C 0.34983 0.2674 0.69655 0.0
C120 C 0.3484 0.25028 0.49577 0.0
C121 C 0.41282 0.26667 0.65859 0.0
O122 O 0.35184 0.26584 0.63542 0.0
O123 O 0.36088 0.25598 0.7367 0.0
O124 O 0.39405 0.22779 0.54123 0.0
O125 O 0.37867 0.22491 0.63531 0.0
Co126 Co 0.20583 0.76637 0.08615 0.0
O127 O 0.23006 0.78101 0.04294 0.0
O128 O 0.21463 0.75047 1.00851 0.0
C129 C 0.18548 0.79705 0.10685 0.0
O130 O 0.18023 0.74685 0.11839 0.0
Co131 Co 0.19482 0.77813 0.22922 0.0
O132 O 0.16815 0.7606 0.21218 0.0
C133 C 0.23023 0.7463 0.19878 0.0
C134 C 0.22982 0.76542 1.00068 0.0
C135 C 0.16659 0.74699 0.16615 0.0
O136 O 0.22721 0.74828 0.13813 0.0
O137 O 0.21977 0.75729 0.24111 0.0
O138 O 0.1844 0.78773 0.0509 0.0
O139 O 0.20012 0.789 0.14435 0.0
Co140 Co 0.20599 0.25036 0.06289 0.0
O141 O 0.23047 0.23581 0.10491 0.0
O142 O 0.21467 0.26588 0.14123 0.0
C143 C 0.18605 0.21949 0.04111 0.0
O144 O 0.18002 0.26964 0.03228 0.0
Co145 Co 0.19476 0.23941 0.91959 0.0
O146 O 0.16757 0.25577 0.93914 0.0
C147 C 0.22993 0.27146 0.95072 0.0
C148 C 0.23002 0.25108 0.14812 0.0
C149 C 0.166 0.26922 0.9856 0.0
O150 O 0.22706 0.26906 1.01135 0.0
O151 O 0.21945 0.26062 0.9081 0.0
O152 O 0.18494 0.22847 0.09753 0.0
O153 O 0.20048 0.228 1.00361 0.0
Co154 Co 0.37401 0.76628 0.57168 0.0
O155 O 0.3501 0.78087 0.61597 0.0
O156 O 0.36417 0.74922 0.64652 0.0
C157 C 0.39512 0.79681 0.55793 0.0
O158 O 0.39914 0.74667 0.53728 0.0
Co159 Co 0.38624 0.78116 0.43178 0.0
O160 O 0.4116 0.76141 0.44494 0.0
C161 C 0.35019 0.74909 0.45448 0.0
C162 C 0.34956 0.76461 0.65604 0.0
C163 C 0.41257 0.74695 0.48904 0.0
O164 O 0.35248 0.74996 0.51562 0.0
O165 O 0.36128 0.7607 0.41482 0.0
O166 O 0.396 0.78597 0.61158 0.0
O167 O 0.38055 0.79011 0.51812 0.0
Co168 Co 0.52944 0.08998 0.81475 0.0
O169 O 0.51514 0.066 0.85979 0.0
O170 O 0.54615 0.08123 0.89113 0.0
C171 C 0.49856 0.11025 0.79732 0.0
O172 O 0.54866 0.11535 0.77992 0.0
Co173 Co 0.51551 0.10055 0.67295 0.0
O174 O 0.53483 0.12632 0.68491 0.0
C175 C 0.54841 0.06574 0.70051 0.0
C176 C 0.53113 0.06622 0.90068 0.0
C177 C 0.54867 0.12818 0.73032 0.0
O178 O 0.54686 0.06847 0.76138 0.0
O179 O 0.53687 0.07614 0.65926 0.0
O180 O 0.50883 0.11175 0.85173 0.0
O181 O 0.50596 0.09548 0.75918 0.0
Co182 Co 0.04495 0.92528 0.31439 0.0
O183 O 0.05958 0.94941 0.3577 0.0
O184 O 0.02925 0.93371 0.39283 0.0
C185 C 0.07572 0.90515 0.29245 0.0
O186 O 0.02553 0.89969 0.28182 0.0
Co187 Co 0.0569 0.91539 0.17041 0.0
O188 O 0.03807 0.88942 0.18458 0.0
C189 C 0.02412 0.94972 0.20293 0.0
C190 C 0.04417 0.94891 0.40057 0.0
C191 C 0.02494 0.88716 0.2317 0.0
O192 O 0.02646 0.94666 0.26348 0.0
O193 O 0.03526 0.93971 0.16002 0.0
O194 O 0.06652 0.90382 0.34858 0.0
O195 O 0.06756 0.91995 0.25562 0.0
Co196 Co 0.53216 0.92324 0.33282 0.0
O197 O 0.51726 0.94735 0.29008 0.0
O198 O 0.54782 0.93219 0.25476 0.0
C199 C 0.50154 0.90289 0.35382 0.0
O200 O 0.55188 0.89782 0.36423 0.0
Co201 Co 0.52043 0.91206 0.47613 0.0
O202 O 0.54096 0.88735 0.46314 0.0
C203 C 0.5523 0.94756 0.4452 0.0
C204 C 0.53274 0.94724 0.24737 0.0
C205 C 0.5534 0.8854 0.41441 0.0
O206 O 0.55023 0.9447 0.38451 0.0
O207 O 0.5413 0.93703 0.48752 0.0
O208 O 0.51099 0.90156 0.29805 0.0
O209 O 0.50956 0.9175 0.39139 0.0
Co210 Co 0.04605 0.09047 0.83577 0.0
O211 O 0.06042 0.06621 0.79229 0.0
O212 O 0.03007 0.08198 0.75795 0.0
C213 C 0.07701 0.11049 0.8564 0.0
O214 O 0.02686 0.11617 0.86862 0.0
Co215 Co 0.0585 0.10067 0.97912 0.0
O216 O 0.03988 0.12677 0.96491 0.0
C217 C 0.02535 0.06644 0.94832 0.0
C218 C 0.04489 0.06672 0.74989 0.0
C219 C 0.02653 0.12889 0.91836 0.0
O220 O 0.0276 0.06927 0.88763 0.0
O221 O 0.03666 0.07655 0.99067 0.0
O222 O 0.06762 0.11178 0.80058 0.0
O223 O 0.06887 0.09579 0.89371 0.0
H224 H 0.15722 0.71203 0.08567 0.0
H225 H 0.13709 0.7421 0.26371 0.0
H226 H 0.1304 0.68244 0.10374 0.0
H227 H 0.11076 0.71279 0.28129 0.0
H228 H 0.08038 0.64468 0.32277 0.0
H229 H 0.10933 0.67235 0.30545 0.0
H230 H 0.08955 0.67871 0.10817 0.0
H231 H 0.061 0.65154 0.12484 0.0
C232 C 0.14707 0.71247 0.12824 0.0
C233 C 0.14939 0.7296 0.17287 0.0
C234 C 0.13175 0.69549 0.13877 0.0
C235 C 0.11861 0.69516 0.19441 0.0
C236 C 0.12088 0.7123 0.23864 0.0
C237 C 0.13592 0.72929 0.22794 0.0
C238 C 0.08221 0.65204 0.27585 0.0
C239 C 0.06812 0.64596 0.22563 0.0
C240 C 0.09877 0.66787 0.26585 0.0
C241 C 0.10179 0.67766 0.20522 0.0
C242 C 0.08789 0.67133 0.15511 0.0
C243 C 0.07129 0.65585 0.16518 0.0
H244 H 0.56662 0.85356 0.32923 0.0
H245 H 0.58067 0.88089 0.51483 0.0
H246 H 0.59378 0.82455 0.34822 0.0
H247 H 0.60869 0.85307 0.53272 0.0
H248 H 0.64214 0.78786 0.57746 0.0
H249 H 0.61478 0.81668 0.55816 0.0
H250 H 0.63023 0.81512 0.35621 0.0
H251 H 0.65622 0.78572 0.3753 0.0
C252 C 0.57591 0.8536 0.37341 0.0
C253 C 0.57154 0.86935 0.42058 0.0
C254 C 0.59155 0.83702 0.38455 0.0
C255 C 0.60351 0.83617 0.44254 0.0
C256 C 0.59953 0.8526 0.4884 0.0
C257 C 0.58362 0.86877 0.47783 0.0
C258 C 0.63953 0.79371 0.52911 0.0
C259 C 0.65111 0.7843 0.47796 0.0
C260 C 0.62395 0.81036 0.51781 0.0
C261 C 0.62001 0.81834 0.45525 0.0
C262 C 0.63213 0.80916 0.40467 0.0
C263 C 0.64724 0.7923 0.41578 0.0
H264 H 0.5125 0.36873 0.62072 0.0
H265 H 0.5011 0.36501 0.82446 0.0
H266 H 0.48451 0.34107 0.60256 0.0
H267 H 0.47263 0.33692 0.80576 0.0
H268 H 0.44604 0.26828 0.7464 0.0
H269 H 0.47182 0.29796 0.76668 0.0
H270 H 0.44434 0.33486 0.6094 0.0
H271 H 0.41819 0.30498 0.58873 0.0
C272 C 0.50404 0.36197 0.66194 0.0
C273 C 0.50935 0.36894 0.72437 0.0
C274 C 0.48775 0.34623 0.65121 0.0
C275 C 0.47631 0.33676 0.70253 0.0
C276 C 0.48131 0.34383 0.76515 0.0
C277 C 0.49754 0.35993 0.77594 0.0
C278 C 0.4454 0.28265 0.7157 0.0
C279 C 0.42992 0.28412 0.66564 0.0
C280 C 0.46012 0.2998 0.72799 0.0
C281 C 0.46 0.3189 0.69031 0.0
C282 C 0.44488 0.32031 0.63932 0.0
C283 C 0.42996 0.30314 0.62723 0.0
H284 H 0.94474 0.24562 0.9016 0.0
H285 H 0.91686 0.20901 0.05965 0.0
H286 H 0.97125 0.21644 0.88338 0.0
H287 H 0.94381 0.17966 0.04123 0.0
H288 H 0.01231 0.14636 0.03035 0.0
H289 H 0.98427 0.174 0.04815 0.0
H290 H 0.97198 0.17721 0.84512 0.0
H291 H 1.00044 0.14913 0.82677 0.0
C292 C 0.9443 0.2314 0.93292 0.0
C293 C 0.92851 0.22974 0.98225 0.0
C294 C 0.95943 0.21454 0.92184 0.0
C295 C 0.95945 0.19558 0.96009 0.0
C296 C 0.9442 0.19411 1.01082 0.0
C297 C 0.92884 0.21098 0.02168 0.0
C298 C 1.00376 0.15292 0.98909 0.0
C299 C 0.00892 0.14567 0.92678 0.0
C300 C 0.98746 0.16865 0.99963 0.0
C301 C 0.97589 0.17784 0.94823 0.0
C302 C 0.98078 0.17053 0.88577 0.0
C303 C 0.99701 0.15443 0.87517 0.0
H304 H 0.06219 0.36688 0.02958 0.0
H305 H 0.07653 0.36751 0.82708 0.0
H306 H 0.0908 0.33978 0.04682 0.0
H307 H 0.10553 0.33997 0.84489 0.0
H308 H 0.13334 0.27126 0.89633 0.0
H309 H 0.10672 0.3003 0.87861 0.0
H310 H 0.1316 0.33522 0.04292 0.0
H311 H 0.15874 0.30596 0.06095 0.0
C312 C 0.07139 0.36119 0.98841 0.0
C313 C 0.06677 0.36925 0.92655 0.0
C314 C 0.08803 0.34578 0.99869 0.0
C315 C 0.10047 0.33772 0.94742 0.0
C316 C 0.09608 0.3458 0.88541 0.0
C317 C 0.07952 0.36157 0.87513 0.0
C318 C 0.13325 0.28504 0.92914 0.0
C319 C 0.14835 0.28617 0.98029 0.0
C320 C 0.11803 0.30184 0.91835 0.0
C321 C 0.11721 0.32021 0.95868 0.0
C322 C 0.13185 0.32122 1.01091 0.0
C323 C 0.14732 0.30442 0.02147 0.0
H324 H 1.00094 0.86472 0.32401 0.0
H325 H 0.00868 0.87193 0.11965 0.0
H326 H 0.973 0.83607 0.30566 0.0
H327 H 0.98123 0.84368 0.10176 0.0
H328 H 0.91541 0.8059 0.09446 0.0
H329 H 0.94152 0.83595 0.1134 0.0
H330 H 0.97278 0.79772 0.26181 0.0
H331 H 0.94702 0.76786 0.2431 0.0
C332 C 0.99665 0.8603 0.27544 0.0
C333 C 0.0073 0.87041 0.2235 0.0
C334 C 0.98075 0.84386 0.26483 0.0
C335 C 0.97495 0.83755 0.20211 0.0
C336 C 0.98515 0.8482 0.15053 0.0
C337 C 1.00111 0.86428 0.16103 0.0
C338 C 0.92807 0.80377 0.13035 0.0
C339 C 0.92902 0.7844 0.16713 0.0
C340 C 0.94294 0.82104 0.14156 0.0
C341 C 0.95901 0.81936 0.18994 0.0
C342 C 0.9603 0.79978 0.22533 0.0
C343 C 0.94561 0.78254 0.21393 0.0
H344 H 0.42784 0.71611 0.57622 0.0
H345 H 0.43411 0.73661 0.37899 0.0
H346 H 0.45487 0.6868 0.55664 0.0
H347 H 0.46072 0.70768 0.36001 0.0
H348 H 0.4936 0.63993 0.33406 0.0
H349 H 0.4642 0.66677 0.35391 0.0
H350 H 0.49518 0.68529 0.53145 0.0
H351 H 0.5243 0.65894 0.51212 0.0
C352 C 0.4349 0.71441 0.52893 0.0
C353 C 0.42892 0.72895 0.47962 0.0
C354 C 0.45039 0.69765 0.51764 0.0
C355 C 0.45991 0.69489 0.45659 0.0
C356 C 0.45356 0.70916 0.40727 0.0
C357 C 0.43842 0.72597 0.41863 0.0
C358 C 0.4942 0.64983 0.37705 0.0
C359 C 0.51148 0.64722 0.42109 0.0
C360 C 0.47733 0.66516 0.38857 0.0
C361 C 0.47725 0.67801 0.4447 0.0
C362 C 0.49451 0.6754 0.48842 0.0
C363 C 0.51139 0.66037 0.4767 0.0
H364 H 0.65801 0.20877 0.58654 0.0
H365 H 0.63117 0.24422 0.74795 0.0
H366 H 0.63091 0.17943 0.60432 0.0
H367 H 0.60459 0.21504 0.76555 0.0
H368 H 0.57582 0.14746 0.82059 0.0
H369 H 0.60432 0.17546 0.80164 0.0
H370 H 0.59007 0.17404 0.59955 0.0
H371 H 0.5619 0.14644 0.618 0.0
C372 C 0.64624 0.21049 0.62515 0.0
C373 C 0.64691 0.22892 0.66571 0.0
C374 C 0.6308 0.19362 0.6356 0.0
C375 C 0.61584 0.19476 0.6871 0.0
C376 C 0.61618 0.21341 0.72646 0.0
C377 C 0.63137 0.23027 0.71575 0.0
C378 C 0.57883 0.15312 0.77224 0.0
C379 C 0.56633 0.14487 0.72113 0.0
C380 C 0.59508 0.16918 0.76132 0.0
C381 C 0.59942 0.17698 0.69897 0.0
C382 C 0.58729 0.1683 0.64796 0.0
C383 C 0.57094 0.15259 0.65888 0.0
H384 H 0.98115 0.36763 0.79628 0.0
H385 H 0.97828 0.40481 0.97197 0.0
H386 H 0.95504 0.3409 0.84144 0.0
H387 H 0.95252 0.37836 0.01658 0.0
H388 H 0.92384 0.3144 0.10022 0.0
H389 H 0.95094 0.33992 0.05452 0.0
H390 H 0.91594 0.33917 0.87499 0.0
H391 H 0.88905 0.31392 0.92026 0.0
C392 C 0.97492 0.37016 0.84424 0.0
C393 C 0.98187 0.38834 0.88042 0.0
C394 C 0.95997 0.35487 0.87018 0.0
C395 C 0.95182 0.3574 0.93295 0.0
C396 C 0.95874 0.37565 0.96867 0.0
C397 C 0.97346 0.39092 0.94273 0.0
C398 C 0.9219 0.3198 0.05118 0.0
C399 C 0.90427 0.3121 1.01403 0.0
C400 C 0.93742 0.3344 0.0249 0.0
C401 C 0.93569 0.34149 0.96083 0.0
C402 C 0.91801 0.33379 0.92401 0.0
C403 C 0.90248 0.31939 0.9503 0.0
H404 H 0.49669 0.15506 0.81655 0.0
H405 H 0.46383 0.10118 0.72218 0.0
H406 H 0.4718 0.18124 0.76263 0.0
H407 H 0.43886 0.12703 0.67 0.0
H408 H 0.38335 0.18049 0.66101 0.0
H409 H 0.40891 0.15499 0.71248 0.0
H410 H 0.4638 0.1918 0.63631 0.0
H411 H 0.43795 0.21717 0.58295 0.0
C412 C 0.48386 0.14883 0.78553 0.0
C413 C 0.48194 0.12612 0.77413 0.0
C414 C 0.46987 0.16376 0.75403 0.0
C415 C 0.45351 0.15612 0.71186 0.0
C416 C 0.45129 0.13337 0.70221 0.0
C417 C 0.46549 0.11859 0.73236 0.0
C418 C 0.40088 0.18284 0.65408 0.0
C419 C 0.40871 0.20048 0.61704 0.0
C420 C 0.41548 0.16836 0.68388 0.0
C421 C 0.4383 0.17153 0.67879 0.0
C422 C 0.44625 0.18911 0.6413 0.0
C423 C 0.43153 0.20337 0.61003 0.0
H424 H 0.61475 0.60082 0.41575 0.0
H425 H 0.57924 0.65564 0.3349 0.0
H426 H 0.64043 0.62623 0.46708 0.0
H427 H 0.60477 0.68133 0.38823 0.0
H428 H 0.64099 0.71353 0.57136 0.0
H429 H 0.61481 0.68883 0.51689 0.0
H430 H 0.66895 0.65638 0.42241 0.0
H431 H 0.69484 0.68125 0.475 0.0
C432 C 0.61268 0.61835 0.40824 0.0
C433 C 0.59531 0.6263 0.37048 0.0
C434 C 0.62727 0.63287 0.43793 0.0
C435 C 0.62446 0.65571 0.43202 0.0
C436 C 0.60717 0.66376 0.39381 0.0
C437 C 0.59281 0.64913 0.36261 0.0
C438 C 0.64722 0.70086 0.53976 0.0
C439 C 0.66992 0.69904 0.52797 0.0
C440 C 0.63228 0.68699 0.50797 0.0
C441 C 0.63991 0.67082 0.46517 0.0
C442 C 0.66264 0.66869 0.45508 0.0
C443 C 0.67744 0.68282 0.48546 0.0
H444 H 0.14861 0.81398 0.04701 0.0
H445 H 0.18517 0.81627 0.2239 0.0
H446 H 0.12126 0.83921 0.09291 0.0
H447 H 0.15805 0.84106 0.26929 0.0
H448 H 0.09344 0.86861 0.352 0.0
H449 H 0.11906 0.84172 0.30572 0.0
H450 H 0.11956 0.87829 0.12856 0.0
H451 H 0.09437 0.90497 0.17437 0.0
C452 C 0.15086 0.81988 0.0954 0.0
C453 C 0.16907 0.81305 0.13166 0.0
C454 C 0.1352 0.8343 0.12178 0.0
C455 C 0.13738 0.842 0.18509 0.0
C456 C 0.15562 0.83516 0.22096 0.0
C457 C 0.17128 0.82101 0.19455 0.0
C458 C 0.09911 0.8709 0.30333 0.0
C459 C 0.09181 0.88894 0.26702 0.0
C460 C 0.11375 0.85552 0.27673 0.0
C461 C 0.12124 0.85778 0.21316 0.0
C462 C 0.11386 0.87581 0.17713 0.0
C463 C 0.09948 0.89121 0.20377 0.0
H464 H 0.98262 0.64627 0.35357 0.0
H465 H 0.98056 0.60953 0.17701 0.0
H466 H 0.95642 0.67285 0.30855 0.0
H467 H 0.95469 0.63582 0.13256 0.0
H468 H 0.92524 0.69961 0.05027 0.0
H469 H 0.95261 0.67431 0.0954 0.0
H470 H 0.91743 0.6741 0.2749 0.0
H471 H 0.89031 0.69913 0.23026 0.0
C472 C 0.97655 0.64381 0.30544 0.0
C473 C 0.98373 0.62579 0.26899 0.0
C474 C 0.96155 0.65901 0.27958 0.0
C475 C 0.95357 0.65655 0.21666 0.0
C476 C 0.96077 0.63847 0.1806 0.0
C477 C 0.97554 0.62329 0.20646 0.0
C478 C 0.92332 0.69404 0.09918 0.0
C479 C 0.90559 0.70141 0.13653 0.0
C480 C 0.93899 0.67957 0.12512 0.0
C481 C 0.9373 0.67229 0.18904 0.0
C482 C 0.91948 0.67965 0.22602 0.0
C483 C 0.90382 0.69391 0.20007 0.0
H484 H 0.09653 0.11029 0.97307 0.0
H485 H 0.09407 0.14742 0.79693 0.0
H486 H 0.12166 0.13711 0.01844 0.0
H487 H 0.11961 0.17448 0.84279 0.0
H488 H 0.18552 0.20108 0.9229 0.0
H489 H 0.1587 0.17596 0.87747 0.0
H490 H 0.12275 0.17592 0.05566 0.0
H491 H 0.1498 0.20145 0.10158 0.0
C492 C 0.10131 0.12424 0.9439 0.0
C493 C 0.09321 0.1267 0.88122 0.0
C494 C 0.11565 0.13972 0.97029 0.0
C495 C 0.12253 0.15805 0.9346 0.0
C496 C 0.11468 0.16046 0.87151 0.0
C497 C 0.10008 0.14498 0.84515 0.0
C498 C 0.17188 0.19585 0.95263 0.0
C499 C 0.16983 0.20334 0.01605 0.0
C500 C 0.1564 0.18151 0.92622 0.0
C501 C 0.13848 0.17403 0.96261 0.0
C502 C 0.13646 0.18132 0.02638 0.0
C503 C 0.15193 0.19591 0.05278 0.0
H504 H 0.68658 0.31282 0.72916 0.0
H505 H 0.65169 0.3139 0.54937 0.0
H506 H 0.6598 0.33799 0.77497 0.0
H507 H 0.6247 0.33935 0.59561 0.0
H508 H 0.5978 0.40415 0.67916 0.0
H509 H 0.62334 0.37768 0.63407 0.0
H510 H 0.62072 0.3398 0.80877 0.0
H511 H 0.59481 0.36656 0.85443 0.0
C512 C 0.67315 0.31841 0.69927 0.0
C513 C 0.6713 0.31131 0.63542 0.0
C514 C 0.65768 0.33276 0.72587 0.0
C515 C 0.64 0.34061 0.68926 0.0
C516 C 0.63822 0.33371 0.62508 0.0
C517 C 0.65367 0.31915 0.59849 0.0
C518 C 0.60255 0.39016 0.7082 0.0
C519 C 0.59417 0.38747 0.77054 0.0
C520 C 0.61714 0.37489 0.68197 0.0
C521 C 0.62398 0.35651 0.71743 0.0
C522 C 0.61585 0.35387 0.78022 0.0
C523 C 0.60103 0.36916 0.80646 0.0
H524 H 0.44022 0.79449 0.56221 0.0
H525 H 0.38624 0.83569 0.50236 0.0
H526 H 0.46627 0.81965 0.50854 0.0
H527 H 0.41203 0.86094 0.45058 0.0
H528 H 0.46902 0.91198 0.43698 0.0
H529 H 0.44407 0.88636 0.4902 0.0
H530 H 0.47241 0.83247 0.38411 0.0
H531 H 0.49736 0.85847 0.32932 0.0
C532 C 0.43404 0.80924 0.53921 0.0
C533 C 0.41132 0.81348 0.5374 0.0
C534 C 0.44884 0.82339 0.50768 0.0
C535 C 0.44112 0.84216 0.47513 0.0
C536 C 0.41845 0.84664 0.47536 0.0
C537 C 0.40372 0.83231 0.50537 0.0
C538 C 0.46972 0.89471 0.4242 0.0
C539 C 0.48491 0.88723 0.37843 0.0
C540 C 0.4555 0.88005 0.4549 0.0
C541 C 0.45642 0.85743 0.44166 0.0
C542 C 0.47152 0.84984 0.39554 0.0
C543 C 0.48553 0.86469 0.36359 0.0
H544 H 0.08115 0.57109 0.10552 0.0
H545 H 0.05632 0.52364 0.24124 0.0
H546 H 0.09534 0.54142 0.03885 0.0
H547 H 0.06979 0.49389 0.17416 0.0
H548 H 0.0549 0.49081 0.90965 0.0
H549 H 0.06955 0.52014 0.97629 0.0
H550 H 0.0944 0.47181 0.11004 0.0
H551 H 0.07902 0.44259 0.04388 0.0
C552 C 0.07956 0.55426 0.12222 0.0
C553 C 0.06725 0.54943 0.17737 0.0
C554 C 0.08762 0.53731 0.08404 0.0
C555 C 0.08308 0.51534 0.10006 0.0
C556 C 0.07359 0.51065 0.16019 0.0
C557 C 0.06576 0.52766 0.1988 0.0
C558 C 0.06439 0.48651 0.95167 0.0
C559 C 0.06541 0.46469 0.97283 0.0
C560 C 0.07291 0.50327 0.98999 0.0
C561 C 0.08262 0.49827 0.04955 0.0
C562 C 0.08655 0.47616 0.06529 0.0
C563 C 0.0778 0.45947 0.02743 0.0
H564 H 0.80581 0.77549 0.16299 0.0
H565 H 0.85245 0.7999 0.30117 0.0
H566 H 0.77567 0.78787 0.2303 0.0
H567 H 0.82234 0.81306 0.36809 0.0
H568 H 0.72372 0.79554 0.36074 0.0
H569 H 0.75291 0.81127 0.29484 0.0
H570 H 0.8012 0.78702 0.42944 0.0
H571 H 0.77188 0.77209 0.49595 0.0
C572 C 0.80957 0.78463 0.20608 0.0
C573 C 0.83125 0.78627 0.228 0.0
C574 C 0.79231 0.79182 0.24488 0.0
C575 C 0.79665 0.80087 0.3057 0.0
C576 C 0.8185 0.80563 0.32239 0.0
C577 C 0.83571 0.79819 0.28401 0.0
C578 C 0.74058 0.7945 0.37737 0.0
C579 C 0.74579 0.78228 0.43234 0.0
C580 C 0.75726 0.80344 0.33964 0.0
C581 C 0.77938 0.79985 0.35577 0.0
C582 C 0.78434 0.79016 0.41543 0.0
C583 C 0.76758 0.78148 0.45368 0.0
H584 H 0.50039 0.57273 0.54789 0.0
H585 H 0.52264 0.52471 0.41057 0.0
H586 H 0.48558 0.54343 0.61517 0.0
H587 H 0.50864 0.4953 0.47839 0.0
H588 H 0.52327 0.49077 0.74361 0.0
H589 H 0.50997 0.52086 0.67737 0.0
H590 H 0.48348 0.474 0.54218 0.0
H591 H 0.49759 0.44398 0.60788 0.0
C592 C 0.50138 0.55587 0.53119 0.0
C593 C 0.51305 0.55074 0.47517 0.0
C594 C 0.49295 0.53914 0.56968 0.0
C595 C 0.49651 0.51704 0.55322 0.0
C596 C 0.50556 0.51214 0.4927 0.0
C597 C 0.51371 0.52896 0.45372 0.0
C598 C 0.51369 0.48698 0.70135 0.0
C599 C 0.51187 0.46529 0.67967 0.0
C600 C 0.50596 0.50419 0.66322 0.0
C601 C 0.49622 0.49978 0.60336 0.0
C602 C 0.49142 0.47789 0.58712 0.0
C603 C 0.49941 0.46074 0.62476 0.0
H604 H 0.80497 0.23621 0.98981 0.0
H605 H 0.85243 0.2125 0.85275 0.0
H606 H 0.77527 0.22219 0.92357 0.0
H607 H 0.8228 0.19773 0.78696 0.0
H608 H 0.77062 0.23587 0.65782 0.0
H609 H 0.80054 0.22232 0.72409 0.0
H610 H 0.75342 0.19712 0.86108 0.0
H611 H 0.72356 0.21141 0.79523 0.0
C612 C 0.80904 0.22691 0.94724 0.0
C613 C 0.83078 0.22586 0.9253 0.0
C614 C 0.79204 0.21877 0.90907 0.0
C615 C 0.79669 0.20938 0.84886 0.0
C616 C 0.8187 0.20537 0.8322 0.0
C617 C 0.83563 0.21374 0.86992 0.0
C618 C 0.7667 0.22648 0.70045 0.0
C619 C 0.74499 0.22511 0.72249 0.0
C620 C 0.78383 0.21863 0.73866 0.0
C621 C 0.77934 0.2092 0.799 0.0
C622 C 0.75739 0.20481 0.81574 0.0
C623 C 0.74033 0.2129 0.77797 0.0
H624 H 0.22662 0.30063 0.85366 0.0
H625 H 0.27215 0.27438 0.99221 0.0
H626 H 0.25727 0.31356 0.78828 0.0
H627 H 0.30283 0.28647 0.9263 0.0
H628 H 0.30741 0.27334 0.65881 0.0
H629 H 0.27812 0.28777 0.72607 0.0
H630 H 0.32635 0.30979 0.86395 0.0
H631 H 0.35551 0.29453 0.79727 0.0
C632 C 0.24326 0.29845 0.87122 0.0
C633 C 0.24723 0.28613 0.9269 0.0
C634 C 0.26077 0.30574 0.83372 0.0
C635 C 0.28245 0.3004 0.85088 0.0
C636 C 0.28635 0.29087 0.91139 0.0
C637 C 0.26878 0.28385 0.94937 0.0
C638 C 0.31172 0.28208 0.70216 0.0
C639 C 0.33347 0.28237 0.72398 0.0
C640 C 0.29498 0.29049 0.74081 0.0
C641 C 0.2999 0.29946 0.80137 0.0
C642 C 0.32202 0.3025 0.81843 0.0
C643 C 0.33868 0.29382 0.78028 0.0
H644 H 0.35561 0.72232 0.35298 0.0
H645 H 0.30761 0.74368 0.49174 0.0
H646 H 0.32635 0.7076 0.28577 0.0
H647 H 0.27821 0.72978 0.42394 0.0
H648 H 0.27256 0.74358 0.15793 0.0
H649 H 0.30311 0.73137 0.22395 0.0
H650 H 0.25724 0.70413 0.36133 0.0
H651 H 0.22673 0.71719 0.29585 0.0
C652 C 0.33876 0.72319 0.36989 0.0
C653 C 0.33362 0.7345 0.42647 0.0
C654 C 0.32205 0.71481 0.33145 0.0
C655 C 0.29995 0.71804 0.34852 0.0
C656 C 0.29506 0.72692 0.40924 0.0
C657 C 0.31185 0.73502 0.44818 0.0
C658 C 0.2691 0.73406 0.20066 0.0
C659 C 0.24751 0.73174 0.22292 0.0
C660 C 0.28659 0.72697 0.23868 0.0
C661 C 0.28255 0.71733 0.299 0.0
C662 C 0.26083 0.71202 0.31601 0.0
C663 C 0.24341 0.71939 0.27847 0.0
H664 H 0.58142 0.94326 0.54164 0.0
H665 H 0.55572 0.99004 0.40558 0.0
H666 H 0.59477 0.9733 0.60837 0.0
H667 H 0.56835 0.02014 0.47271 0.0
H668 H 0.55378 0.0232 0.73814 0.0
H669 H 0.56857 0.99409 0.67089 0.0
H670 H 0.59244 0.04279 0.5365 0.0
H671 H 0.5769 0.07178 0.6032 0.0
C672 C 0.57946 0.96004 0.52489 0.0
C673 C 0.56716 0.96455 0.46961 0.0
C674 C 0.58703 0.9772 0.56311 0.0
C675 C 0.58201 0.99905 0.54698 0.0
C676 C 0.57251 1.00348 0.48677 0.0
C677 C 0.56517 0.98627 0.44812 0.0
C678 C 0.56305 0.02764 0.69573 0.0
C679 C 0.56378 0.04948 0.67466 0.0
C680 C 0.57166 0.011 0.6571 0.0
C681 C 0.58119 0.01615 0.59733 0.0
C682 C 0.58473 0.03832 0.58143 0.0
C683 C 0.57589 0.05487 0.61958 0.0
H684 H 0.0202 0.02395 0.91048 0.0
H685 H 0.99591 0.07254 0.04311 0.0
H686 H 1.00552 0.99481 0.9781 0.0
H687 H 0.98059 0.04349 0.11036 0.0
H688 H 0.99425 0.94429 0.1091 0.0
H689 H 0.97961 0.97374 0.04222 0.0
H690 H 1.00585 0.02172 0.1744 0.0
H691 H 0.01985 0.9922 0.24164 0.0
C692 C 0.01064 0.02837 0.95231 0.0
C693 C 0.0096 0.05025 0.97279 0.0
C694 C 1.00211 0.01172 0.99121 0.0
C695 C 0.99241 0.01688 0.05067 0.0
C696 C 0.98841 0.03902 0.06565 0.0
C697 C 0.99713 0.05561 0.02717 0.0
C698 C 0.99588 0.96117 0.12516 0.0
C699 C 0.00855 0.96621 0.17934 0.0
C700 C 0.98756 0.97799 0.08687 0.0
C701 C 0.99216 1.00001 0.10187 0.0
C702 C 1.002 1.00491 0.16127 0.0
C703 C 0.01013 0.98803 0.19997 0.0
H704 H 0.06489 0.45771 0.66629 0.0
H705 H 0.99858 0.47706 0.71431 0.0
H706 H 0.06604 0.48641 0.58329 0.0
H707 H 0.99971 0.50548 0.63218 0.0
H708 H 0.99967 0.53719 0.43381 0.0
H709 H 1.00011 0.50881 0.51603 0.0
H710 H 0.06618 0.52768 0.56821 0.0
H711 H 0.06572 0.55637 0.48507 0.0
C712 C 0.05053 0.46797 0.65903 0.0
C713 C 0.03161 0.4649 0.69704 0.0
C714 C 0.05124 0.48458 0.61175 0.0
C715 C 0.03295 0.49837 0.6006 0.0
C716 C 0.01405 0.49512 0.63853 0.0
C717 C 0.01343 0.47878 0.68601 0.0
C718 C 0.01432 0.53544 0.46284 0.0
C719 C 0.03263 0.54926 0.45268 0.0
C720 C 0.01454 0.51912 0.51039 0.0
C721 C 0.03316 0.51583 0.54927 0.0
C722 C 0.05159 0.52956 0.539 0.0
C723 C 0.05128 0.54615 0.49164 0.0
H724 H 0.80333 0.73508 1.01164 0.0
H725 H 0.84916 0.76767 0.8853 0.0
H726 H 0.77504 0.73642 0.92828 0.0
H727 H 0.82097 0.7682 0.80083 0.0
H728 H 0.77081 0.73216 0.65553 0.0
H729 H 0.79891 0.73417 0.73911 0.0
H730 H 0.75382 0.7698 0.85992 0.0
H731 H 0.72579 0.76855 0.77493 0.0
C732 C 0.80741 0.74248 0.96598 0.0
C733 C 0.82859 0.75125 0.95525 0.0
C734 C 0.79112 0.74334 0.91835 0.0
C735 C 0.7957 0.75245 0.85795 0.0
C736 C 0.81691 0.76109 0.8469 0.0
C737 C 0.83305 0.76081 0.89528 0.0
C738 C 0.76685 0.74054 0.69976 0.0
C739 C 0.74596 0.75017 0.70842 0.0
C740 C 0.78304 0.74177 0.74753 0.0
C741 C 0.77865 0.75216 0.80615 0.0
C742 C 0.75771 0.76167 0.81526 0.0
C743 C 0.74167 0.76099 0.76658 0.0
H744 H 0.57787 0.5377 0.21306 0.0
H745 H 0.51132 0.55612 0.16507 0.0
H746 H 0.57709 0.50907 0.13202 0.0
H747 H 0.51054 0.52718 0.08287 0.0
H748 H 0.5119 0.45705 0.98599 0.0
H749 H 0.51089 0.48598 0.0681 0.0
H750 H 0.57695 0.50532 0.01659 0.0
H751 H 0.57796 0.47666 0.93554 0.0
C752 C 0.56303 0.53574 0.18498 0.0
C753 C 0.54469 0.54942 0.19575 0.0
C754 C 0.56262 0.51926 0.13806 0.0
C755 C 0.54378 0.51569 0.10031 0.0
C756 C 0.5253 0.52927 0.11119 0.0
C757 C 0.5258 0.54602 0.15801 0.0
C758 C 0.52624 0.46741 0.99252 0.0
C759 C 0.54506 0.46433 0.95412 0.0
C760 C 0.5256 0.48416 0.03928 0.0
C761 C 0.54386 0.4981 0.04946 0.0
C762 C 0.56264 0.49485 1.01107 0.0
C763 C 0.56319 0.47836 0.96419 0.0
H764 H 0.84937 0.24475 0.26704 0.0
H765 H 0.803 0.278 0.14435 0.0
H766 H 0.82167 0.24396 0.353 0.0
H767 H 0.7752 0.27646 0.2292 0.0
H768 H 0.72608 0.24462 0.38123 0.0
H769 H 0.75378 0.24401 0.29528 0.0
H770 H 0.80028 0.27627 0.41936 0.0
H771 H 0.77249 0.27763 0.50421 0.0
C772 C 0.83325 0.25172 0.25819 0.0
C773 C 0.82849 0.26151 0.19874 0.0
C774 C 0.8174 0.25131 0.30747 0.0
C775 C 0.79616 0.26007 0.29792 0.0
C776 C 0.79131 0.26944 0.23806 0.0
C777 C 0.80731 0.27041 0.18953 0.0
C778 C 0.7422 0.25158 0.39014 0.0
C779 C 0.74697 0.26125 0.44967 0.0
C780 C 0.75806 0.25127 0.34087 0.0
C781 C 0.77931 0.26002 0.3505 0.0
C782 C 0.78417 0.26927 0.41043 0.0
C783 C 0.76817 0.27014 0.45896 0.0
H784 H 0.33816 0.28471 0.41373 0.0
H785 H 0.31986 0.2179 0.45987 0.0
H786 H 0.30936 0.2857 0.33118 0.0
H787 H 0.29137 0.21886 0.37827 0.0
H788 H 0.25937 0.21895 0.18057 0.0
H789 H 0.28787 0.21959 0.26227 0.0
H790 H 0.26813 0.2852 0.31647 0.0
H791 H 0.23935 0.28454 0.23392 0.0
C792 C 0.3281 0.27022 0.40619 0.0
C793 C 0.3315 0.2512 0.44353 0.0
C794 C 0.31145 0.27083 0.35915 0.0
C795 C 0.29794 0.25233 0.34758 0.0
C796 C 0.30151 0.23336 0.3849 0.0
C797 C 0.31789 0.23284 0.43212 0.0
C798 C 0.26096 0.23353 0.20995 0.0
C799 C 0.24687 0.25165 0.20053 0.0
C800 C 0.27735 0.23387 0.25719 0.0
C801 C 0.28043 0.25243 0.29649 0.0
C802 C 0.26643 0.27067 0.28694 0.0
C803 C 0.24978 0.27023 0.2399 0.0
H804 H 0.33844 0.73021 0.7376 0.0
H805 H 0.32145 0.79735 0.69162 0.0
H806 H 0.30932 0.7296 0.81944 0.0
H807 H 0.29261 0.79673 0.77223 0.0
H808 H 0.25945 0.79731 0.96788 0.0
H809 H 0.28829 0.79622 0.88717 0.0
H810 H 0.26832 0.73054 0.83422 0.0
H811 H 0.23924 0.73162 0.91599 0.0
C812 C 0.32861 0.74485 0.74501 0.0
C813 C 0.33248 0.76385 0.70795 0.0
C814 C 0.31176 0.74446 0.79163 0.0
C815 C 0.2985 0.76315 0.80298 0.0
C816 C 0.30254 0.78209 0.76587 0.0
C817 C 0.31913 0.78241 0.71918 0.0
C818 C 0.26105 0.78261 0.93899 0.0
C819 C 0.24681 0.7646 0.94857 0.0
C820 C 0.27765 0.78202 0.89228 0.0
C821 C 0.28078 0.76331 0.85359 0.0
C822 C 0.26661 0.74517 0.86328 0.0
C823 C 0.24977 0.74586 0.90986 0.0
H824 H 0.56618 0.95706 0.16157 0.0
H825 H 0.50041 0.9764 0.21545 0.0
H826 H 0.56664 0.98609 0.0795 0.0
H827 H 0.50088 1.00518 0.13443 0.0
H828 H 0.56569 0.05612 0.98228 0.0
H829 H 0.56689 0.02722 0.06475 0.0
H830 H 0.50002 0.00913 0.01908 0.0
H831 H 0.49883 0.03774 0.93773 0.0
C832 C 0.55179 0.96739 0.15582 0.0
C833 C 0.53321 0.96421 0.19515 0.0
C834 C 0.55212 0.98419 0.10907 0.0
C835 C 0.53377 0.99809 0.09986 0.0
C836 C 0.51523 0.99474 0.1392 0.0
C837 C 0.51499 0.97819 0.18606 0.0
C838 C 0.55123 0.04604 0.9902 0.0
C839 C 0.53213 0.04943 0.95331 0.0
C840 C 0.55196 0.02932 0.03715 0.0
C841 C 0.53353 0.01573 0.04904 0.0
C842 C 0.51447 0.01932 1.01223 0.0
C843 C 0.51382 0.03578 0.96515 0.0
H844 H 0.01089 0.05714 0.66603 0.0
H845 H 0.07713 0.03789 0.71477 0.0
H846 H 0.00994 0.02844 0.58323 0.0
H847 H 0.07621 0.00949 0.63285 0.0
H848 H 0.07663 0.97763 0.43485 0.0
H849 H 0.07604 1.00602 0.51684 0.0
H850 H 0.00984 0.98722 0.56839 0.0
H851 H 0.01045 0.95854 0.48551 0.0
C852 C 0.02528 0.04691 0.65897 0.0
C853 C 0.04412 0.05 0.69715 0.0
C854 C 0.02468 0.0303 0.6118 0.0
C855 C 0.04302 0.01653 0.60091 0.0
C856 C 0.06184 0.01982 0.63897 0.0
C857 C 0.06234 0.03616 0.68635 0.0
C858 C 0.06193 0.97939 0.46372 0.0
C859 C 0.04362 0.9656 0.45343 0.0
C860 C 0.06162 0.99572 0.51113 0.0
C861 C 0.04291 0.99905 0.54975 0.0
C862 C 0.02449 0.98533 0.53939 0.0
C863 C 0.0249 0.96873 0.49217 0.0
loop_
_geom_bond_atom_site_label_1
_geom_bond_atom_site_label_2
_geom_bond_distance
_geom_bond_site_symmetry_2
_ccdc_geom_bond_type
Co0 O1 2.216 . S
Co0 O2 2.091 . S
Co0 O4 2.004 . S
Co0 O10 2.021 . S
Co0 O12 2.137 . S
Co0 O13 2.244 . S
O1 Co0 2.216 . S
O1 C8 1.247 . S
O2 Co0 2.091 . S
O2 C8 1.261 . S
C3 O12 1.247 1_655 S
C3 O13 1.272 1_655 S
O4 Co0 2.004 . S
O4 C9 1.259 . S
Co5 O6 2.061 . S
Co5 O11 2.052 . S
Co5 O13 2.135 . S
O6 Co5 2.061 . S
O6 C9 1.235 . S
C7 O10 1.238 . S
C7 O11 1.241 . S
C8 O1 1.247 . S
C8 O2 1.261 . S
C9 O4 1.259 . S
C9 O6 1.235 . S
O10 Co0 2.021 . S
O10 C7 1.238 . S
O11 Co5 2.052 . S
O11 C7 1.241 . S
O12 Co0 2.137 . S
O12 C3 1.247 1_455 S
O13 Co0 2.244 . S
O13 C3 1.272 1_455 S
O13 Co5 2.135 . S
Co14 O15 2.216 . S
Co14 O16 2.091 . S
Co14 O18 2.004 . S
Co14 O24 2.021 . S
Co14 O26 2.137 . S
Co14 O27 2.244 . S
O15 Co14 2.216 . S
O15 C22 1.247 . S
O16 Co14 2.091 . S
O16 C22 1.261 . S
C17 O26 1.247 . S
C17 O27 1.272 . S
O18 Co14 2.004 . S
O18 C23 1.259 . S
Co19 O20 2.061 . S
Co19 O25 2.052 . S
Co19 O27 2.135 . S
O20 Co19 2.061 . S
O20 C23 1.235 . S
C21 O24 1.238 . S
C21 O25 1.241 . S
C22 O15 1.247 . S
C22 O16 1.261 . S
C23 O18 1.259 . S
C23 O20 1.235 . S
O24 Co14 2.021 . S
O24 C21 1.238 . S
O25 Co19 2.052 . S
O25 C21 1.241 . S
O26 Co14 2.137 . S
O26 C17 1.247 . S
O27 Co14 2.244 . S
O27 C17 1.272 . S
O27 Co19 2.135 . S
Co28 O29 2.216 . S
Co28 O30 2.091 . S
Co28 O32 2.004 . S
Co28 O38 2.021 . S
Co28 O40 2.137 . S
Co28 O41 2.244 . S
O29 Co28 2.216 . S
O29 C36 1.247 . S
O30 Co28 2.091 . S
O30 C36 1.261 . S
C31 O40 1.247 . S
C31 O41 1.272 . S
O32 Co28 2.004 . S
O32 C37 1.259 . S
Co33 O34 2.061 . S
Co33 O39 2.052 . S
Co33 O41 2.135 . S
O34 Co33 2.061 . S
O34 C37 1.235 . S
C35 O38 1.238 . S
C35 O39 1.241 . S
C36 O29 1.247 . S
C36 O30 1.261 . S
C37 O32 1.259 . S
C37 O34 1.235 . S
O38 Co28 2.021 . S
O38 C35 1.238 . S
O39 Co33 2.052 . S
O39 C35 1.241 . S
O40 Co28 2.137 . S
O40 C31 1.247 . S
O41 Co28 2.244 . S
O41 C31 1.272 . S
O41 Co33 2.135 . S
Co42 O43 2.216 . S
Co42 O44 2.091 . S
Co42 O46 2.004 . S
Co42 O52 2.021 1_554 S
Co42 O54 2.137 . S
Co42 O55 2.244 1_554 S
O43 Co42 2.216 . S
O43 C50 1.247 . S
O44 Co42 2.091 . S
O44 C50 1.261 . S
C45 O54 1.247 . S
C45 O55 1.272 1_554 S
O46 Co42 2.004 . S
O46 C51 1.259 1_554 S
Co47 O48 2.061 . S
Co47 O53 2.052 . S
Co47 O55 2.135 . S
O48 Co47 2.061 . S
O48 C51 1.235 . S
C49 O52 1.238 . S
C49 O53 1.241 . S
C50 O43 1.247 . S
C50 O44 1.261 . S
C51 O46 1.259 1_556 S
C51 O48 1.235 . S
O52 Co42 2.021 1_556 S
O52 C49 1.238 . S
O53 Co47 2.052 . S
O53 C49 1.241 . S
O54 Co42 2.137 . S
O54 C45 1.247 . S
O55 Co42 2.244 1_556 S
O55 C45 1.272 1_556 S
O55 Co47 2.135 . S
Co56 O57 2.216 . S
Co56 O58 2.091 . S
Co56 O60 2.004 . S
Co56 O66 2.021 . S
Co56 O68 2.137 . S
Co56 O69 2.244 . S
O57 Co56 2.216 . S
O57 C64 1.247 . S
O58 Co56 2.091 . S
O58 C64 1.261 . S
C59 O68 1.247 1_655 S
C59 O69 1.272 1_655 S
O60 Co56 2.004 . S
O60 C65 1.259 . S
Co61 O62 2.061 . S
Co61 O67 2.052 . S
Co61 O69 2.135 . S
O62 Co61 2.061 . S
O62 C65 1.235 . S
C63 O66 1.238 . S
C63 O67 1.241 . S
C64 O57 1.247 . S
C64 O58 1.261 . S
C65 O60 1.259 . S
C65 O62 1.235 . S
O66 Co56 2.021 . S
O66 C63 1.238 . S
O67 Co61 2.052 . S
O67 C63 1.241 . S
O68 Co56 2.137 . S
O68 C59 1.247 1_455 S
O69 Co56 2.244 . S
O69 C59 1.272 1_455 S
O69 Co61 2.135 . S
Co70 O71 2.216 . S
Co70 O72 2.091 1_554 S
Co70 O74 2.004 . S
Co70 O80 2.021 . S
Co70 O82 2.137 . S
Co70 O83 2.244 . S
O71 Co70 2.216 . S
O71 C78 1.247 1_554 S
O72 Co70 2.091 1_556 S
O72 C78 1.261 . S
C73 O82 1.247 . S
C73 O83 1.272 . S
O74 Co70 2.004 . S
O74 C79 1.259 . S
Co75 O76 2.061 . S
Co75 O81 2.052 . S
Co75 O83 2.135 . S
O76 Co75 2.061 . S
O76 C79 1.235 . S
C77 O80 1.238 . S
C77 O81 1.241 . S
C78 O71 1.247 1_556 S
C78 O72 1.261 . S
C79 O74 1.259 . S
C79 O76 1.235 . S
O80 Co70 2.021 . S
O80 C77 1.238 . S
O81 Co75 2.052 . S
O81 C77 1.241 . S
O82 Co70 2.137 . S
O82 C73 1.247 . S
O83 Co70 2.244 . S
O83 C73 1.272 . S
O83 Co75 2.135 . S
Co84 O85 2.216 . S
Co84 O86 2.091 . S
Co84 O88 2.004 . S
Co84 O94 2.021 . S
Co84 O96 2.137 . S
Co84 O97 2.244 . S
O85 Co84 2.216 . S
O85 C92 1.247 . S
O86 Co84 2.091 . S
O86 C92 1.261 . S
C87 O96 1.247 . S
C87 O97 1.272 . S
O88 Co84 2.004 . S
O88 C93 1.259 . S
Co89 O90 2.061 . S
Co89 O95 2.052 . S
Co89 O97 2.135 . S
O90 Co89 2.061 . S
O90 C93 1.235 . S
C91 O94 1.238 . S
C91 O95 1.241 . S
C92 O85 1.247 . S
C92 O86 1.261 . S
C93 O88 1.259 . S
C93 O90 1.235 . S
O94 Co84 2.021 . S
O94 C91 1.238 . S
O95 Co89 2.052 . S
O95 C91 1.241 . S
O96 Co84 2.137 . S
O96 C87 1.247 . S
O97 Co84 2.244 . S
O97 C87 1.272 . S
O97 Co89 2.135 . S
Co98 O99 2.216 . S
Co98 O100 2.091 . S
Co98 O102 2.004 . S
Co98 O108 2.021 . S
Co98 O110 2.137 . S
Co98 O111 2.244 . S
O99 Co98 2.216 . S
O99 C106 1.247 . S
O100 Co98 2.091 . S
O100 C106 1.261 . S
C101 O110 1.247 . S
C101 O111 1.272 . S
O102 Co98 2.004 . S
O102 C107 1.259 . S
Co103 O104 2.061 . S
Co103 O109 2.052 . S
Co103 O111 2.135 . S
O104 Co103 2.061 . S
O104 C107 1.235 . S
C105 O108 1.238 . S
C105 O109 1.241 . S
C106 O99 1.247 . S
C106 O100 1.261 . S
C107 O102 1.259 . S
C107 O104 1.235 . S
O108 Co98 2.021 . S
O108 C105 1.238 . S
O109 Co103 2.052 . S
O109 C105 1.241 . S
O110 Co98 2.137 . S
O110 C101 1.247 . S
O111 Co98 2.244 . S
O111 C101 1.272 . S
O111 Co103 2.135 . S
Co112 O113 2.216 . S
Co112 O114 2.091 . S
Co112 O116 2.004 . S
Co112 O122 2.021 . S
Co112 O124 2.137 . S
Co112 O125 2.244 . S
O113 Co112 2.216 . S
O113 C120 1.247 . S
O114 Co112 2.091 . S
O114 C120 1.261 . S
C115 O124 1.247 . S
C115 O125 1.272 . S
O116 Co112 2.004 . S
O116 C121 1.259 . S
Co117 O118 2.061 . S
Co117 O123 2.052 . S
Co117 O125 2.135 . S
O118 Co117 2.061 . S
O118 C121 1.235 . S
C119 O122 1.238 . S
C119 O123 1.241 . S
C120 O113 1.247 . S
C120 O114 1.261 . S
C121 O116 1.259 . S
C121 O118 1.235 . S
O122 Co112 2.021 . S
O122 C119 1.238 . S
O123 Co117 2.052 . S
O123 C119 1.241 . S
O124 Co112 2.137 . S
O124 C115 1.247 . S
O125 Co112 2.244 . S
O125 C115 1.272 . S
O125 Co117 2.135 . S
Co126 O127 2.216 . S
Co126 O128 2.091 1_554 S
Co126 O130 2.004 . S
Co126 O136 2.021 . S
Co126 O138 2.137 . S
Co126 O139 2.244 . S
O127 Co126 2.216 . S
O127 C134 1.247 1_554 S
O128 Co126 2.091 1_556 S
O128 C134 1.261 . S
C129 O138 1.247 . S
C129 O139 1.272 . S
O130 Co126 2.004 . S
O130 C135 1.259 . S
Co131 O132 2.061 . S
Co131 O137 2.052 . S
Co131 O139 2.135 . S
O132 Co131 2.061 . S
O132 C135 1.235 . S
C133 O136 1.238 . S
C133 O137 1.241 . S
C134 O127 1.247 1_556 S
C134 O128 1.261 . S
C135 O130 1.259 . S
C135 O132 1.235 . S
O136 Co126 2.021 . S
O136 C133 1.238 . S
O137 Co131 2.052 . S
O137 C133 1.241 . S
O138 Co126 2.137 . S
O138 C129 1.247 . S
O139 Co126 2.244 . S
O139 C129 1.272 . S
O139 Co131 2.135 . S
Co140 O141 2.216 . S
Co140 O142 2.091 . S
Co140 O144 2.004 . S
Co140 O150 2.021 1_554 S
Co140 O152 2.137 . S
Co140 O153 2.244 1_554 S
O141 Co140 2.216 . S
O141 C148 1.247 . S
O142 Co140 2.091 . S
O142 C148 1.261 . S
C143 O152 1.247 . S
C143 O153 1.272 1_554 S
O144 Co140 2.004 . S
O144 C149 1.259 1_554 S
Co145 O146 2.061 . S
Co145 O151 2.052 . S
Co145 O153 2.135 . S
O146 Co145 2.061 . S
O146 C149 1.235 . S
C147 O150 1.238 . S
C147 O151 1.241 . S
C148 O141 1.247 . S
C148 O142 1.261 . S
C149 O144 1.259 1_556 S
C149 O146 1.235 . S
O150 Co140 2.021 1_556 S
O150 C147 1.238 . S
O151 Co145 2.052 . S
O151 C147 1.241 . S
O152 Co140 2.137 . S
O152 C143 1.247 . S
O153 Co140 2.244 1_556 S
O153 C143 1.272 1_556 S
O153 Co145 2.135 . S
Co154 O155 2.216 . S
Co154 O156 2.091 . S
Co154 O158 2.004 . S
Co154 O164 2.021 . S
Co154 O166 2.137 . S
Co154 O167 2.244 . S
O155 Co154 2.216 . S
O155 C162 1.247 . S
O156 Co154 2.091 . S
O156 C162 1.261 . S
C157 O166 1.247 . S
C157 O167 1.272 . S
O158 Co154 2.004 . S
O158 C163 1.259 . S
Co159 O160 2.061 . S
Co159 O165 2.052 . S
Co159 O167 2.135 . S
O160 Co159 2.061 . S
O160 C163 1.235 . S
C161 O164 1.238 . S
C161 O165 1.241 . S
C162 O155 1.247 . S
C162 O156 1.261 . S
C163 O158 1.259 . S
C163 O160 1.235 . S
O164 Co154 2.021 . S
O164 C161 1.238 . S
O165 Co159 2.052 . S
O165 C161 1.241 . S
O166 Co154 2.137 . S
O166 C157 1.247 . S
O167 Co154 2.244 . S
O167 C157 1.272 . S
O167 Co159 2.135 . S
Co168 O169 2.216 . S
Co168 O170 2.091 . S
Co168 O172 2.004 . S
Co168 O178 2.021 . S
Co168 O180 2.137 . S
Co168 O181 2.244 . S
O169 Co168 2.216 . S
O169 C176 1.247 . S
O170 Co168 2.091 . S
O170 C176 1.261 . S
C171 O180 1.247 . S
C171 O181 1.272 . S
O172 Co168 2.004 . S
O172 C177 1.259 . S
Co173 O174 2.061 . S
Co173 O179 2.052 . S
Co173 O181 2.135 . S
O174 Co173 2.061 . S
O174 C177 1.235 . S
C175 O178 1.238 . S
C175 O179 1.241 . S
C176 O169 1.247 . S
C176 O170 1.261 . S
C177 O172 1.259 . S
C177 O174 1.235 . S
O178 Co168 2.021 . S
O178 C175 1.238 . S
O179 Co173 2.052 . S
O179 C175 1.241 . S
O180 Co168 2.137 . S
O180 C171 1.247 . S
O181 Co168 2.244 . S
O181 C171 1.272 . S
O181 Co173 2.135 . S
Co182 O183 2.216 . S
Co182 O184 2.091 . S
Co182 O186 2.004 . S
Co182 O192 2.021 . S
Co182 O194 2.137 . S
Co182 O195 2.244 . S
O183 Co182 2.216 . S
O183 C190 1.247 . S
O184 Co182 2.091 . S
O184 C190 1.261 . S
C185 O194 1.247 . S
C185 O195 1.272 . S
O186 Co182 2.004 . S
O186 C191 1.259 . S
Co187 O188 2.061 . S
Co187 O193 2.052 . S
Co187 O195 2.135 . S
O188 Co187 2.061 . S
O188 C191 1.235 . S
C189 O192 1.238 . S
C189 O193 1.241 . S
C190 O183 1.247 . S
C190 O184 1.261 . S
C191 O186 1.259 . S
C191 O188 1.235 . S
O192 Co182 2.021 . S
O192 C189 1.238 . S
O193 Co187 2.052 . S
O193 C189 1.241 . S
O194 Co182 2.137 . S
O194 C185 1.247 . S
O195 Co182 2.244 . S
O195 C185 1.272 . S
O195 Co187 2.135 . S
Co196 O197 2.216 . S
Co196 O198 2.091 . S
Co196 O200 2.004 . S
Co196 O206 2.021 . S
Co196 O208 2.137 . S
Co196 O209 2.244 . S
O197 Co196 2.216 . S
O197 C204 1.247 . S
O198 Co196 2.091 . S
O198 C204 1.261 . S
C199 O208 1.247 . S
C199 O209 1.272 . S
O200 Co196 2.004 . S
O200 C205 1.259 . S
Co201 O202 2.061 . S
Co201 O207 2.052 . S
Co201 O209 2.135 . S
O202 Co201 2.061 . S
O202 C205 1.235 . S
C203 O206 1.238 . S
C203 O207 1.241 . S
C204 O197 1.247 . S
C204 O198 1.261 . S
C205 O200 1.259 . S
C205 O202 1.235 . S
O206 Co196 2.021 . S
O206 C203 1.238 . S
O207 Co201 2.052 . S
O207 C203 1.241 . S
O208 Co196 2.137 . S
O208 C199 1.247 . S
O209 Co196 2.244 . S
O209 C199 1.272 . S
O209 Co201 2.135 . S
Co210 O211 2.216 . S
Co210 O212 2.091 . S
Co210 O214 2.004 . S
Co210 O220 2.021 . S
Co210 O222 2.137 . S
Co210 O223 2.244 . S
O211 Co210 2.216 . S
O211 C218 1.247 . S
O212 Co210 2.091 . S
O212 C218 1.261 . S
C213 O222 1.247 . S
C213 O223 1.272 . S
O214 Co210 2.004 . S
O214 C219 1.259 . S
Co215 O216 2.061 . S
Co215 O221 2.052 . S
Co215 O223 2.135 . S
O216 Co215 2.061 . S
O216 C219 1.235 . S
C217 O220 1.238 . S
C217 O221 1.241 . S
C218 O211 1.247 . S
C218 O212 1.261 . S
C219 O214 1.259 . S
C219 O216 1.235 . S
O220 Co210 2.021 . S
O220 C217 1.238 . S
O221 Co215 2.052 . S
O221 C217 1.241 . S
O222 Co210 2.137 . S
O222 C213 1.247 . S
O223 Co210 2.244 . S
O223 C213 1.272 . S
O223 Co215 2.135 . S
H224 C232 0.950 . S
H225 C237 0.950 . S
H226 C234 0.950 . S
H227 C236 0.950 . S
H228 C238 0.950 . S
H229 C240 0.950 . S
H230 C242 0.950 . S
H231 C243 0.950 . S
C232 H224 0.950 . S
C232 C233 1.386 . S
C232 C234 1.391 . S
C233 C232 1.386 . S
C233 C237 1.393 . S
C234 H226 0.950 . S
C234 C232 1.391 . S
C234 C235 1.400 . S
C235 C234 1.400 . S
C235 C236 1.398 . S
C235 C241 1.491 . S
C236 H227 0.950 . S
C236 C235 1.398 . S
C236 C237 1.391 . S
C237 H225 0.950 . S
C237 C233 1.393 . S
C237 C236 1.391 . S
C238 H228 0.950 . S
C238 C239 1.386 . S
C238 C240 1.391 . S
C239 C238 1.386 . S
C239 C243 1.393 . S
C240 H229 0.950 . S
C240 C238 1.391 . S
C240 C241 1.400 . S
C241 C235 1.491 . S
C241 C240 1.400 . S
C241 C242 1.398 . S
C242 H230 0.950 . S
C242 C241 1.398 . S
C242 C243 1.391 . S
C243 H231 0.950 . S
C243 C239 1.393 . S
C243 C242 1.391 . S
H244 C252 0.950 . S
H245 C257 0.950 . S
H246 C254 0.950 . S
H247 C256 0.950 . S
H248 C258 0.950 . S
H249 C260 0.950 . S
H250 C262 0.950 . S
H251 C263 0.950 . S
C252 H244 0.950 . S
C252 C253 1.386 . S
C252 C254 1.391 . S
C253 C252 1.386 . S
C253 C257 1.393 . S
C254 H246 0.950 . S
C254 C252 1.391 . S
C254 C255 1.400 . S
C255 C254 1.400 . S
C255 C256 1.398 . S
C255 C261 1.491 . S
C256 H247 0.950 . S
C256 C255 1.398 . S
C256 C257 1.391 . S
C257 H245 0.950 . S
C257 C253 1.393 . S
C257 C256 1.391 . S
C258 H248 0.950 . S
C258 C259 1.386 . S
C258 C260 1.391 . S
C259 C258 1.386 . S
C259 C263 1.393 . S
C260 H249 0.950 . S
C260 C258 1.391 . S
C260 C261 1.400 . S
C261 C255 1.491 . S
C261 C260 1.400 . S
C261 C262 1.398 . S
C262 H250 0.950 . S
C262 C261 1.398 . S
C262 C263 1.391 . S
C263 H251 0.950 . S
C263 C259 1.393 . S
C263 C262 1.391 . S
H264 C272 0.950 . S
H265 C277 0.950 . S
H266 C274 0.950 . S
H267 C276 0.950 . S
H268 C278 0.950 . S
H269 C280 0.950 . S
H270 C282 0.950 . S
H271 C283 0.950 . S
C272 H264 0.950 . S
C272 C273 1.386 . S
C272 C274 1.391 . S
C273 C272 1.386 . S
C273 C277 1.393 . S
C274 H266 0.950 . S
C274 C272 1.391 . S
C274 C275 1.400 . S
C275 C274 1.400 . S
C275 C276 1.398 . S
C275 C281 1.491 . S
C276 H267 0.950 . S
C276 C275 1.398 . S
C276 C277 1.391 . S
C277 H265 0.950 . S
C277 C273 1.393 . S
C277 C276 1.391 . S
C278 H268 0.950 . S
C278 C279 1.386 . S
C278 C280 1.391 . S
C279 C278 1.386 . S
C279 C283 1.393 . S
C280 H269 0.950 . S
C280 C278 1.391 . S
C280 C281 1.400 . S
C281 C275 1.491 . S
C281 C280 1.400 . S
C281 C282 1.398 . S
C282 H270 0.950 . S
C282 C281 1.398 . S
C282 C283 1.391 . S
C283 H271 0.950 . S
C283 C279 1.393 . S
C283 C282 1.391 . S
H284 C292 0.950 . S
H285 C297 0.950 1_554 S
H286 C294 0.950 . S
H287 C296 0.950 1_554 S
H288 C298 0.950 . S
H289 C300 0.950 . S
H290 C302 0.950 . S
H291 C303 0.950 . S
C292 H284 0.950 . S
C292 C293 1.386 . S
C292 C294 1.391 . S
C293 C292 1.386 . S
C293 C297 1.393 . S
C294 H286 0.950 . S
C294 C292 1.391 . S
C294 C295 1.400 . S
C295 C294 1.400 . S
C295 C296 1.398 . S
C295 C301 1.491 . S
C296 H287 0.950 1_556 S
C296 C295 1.398 . S
C296 C297 1.391 . S
C297 H285 0.950 1_556 S
C297 C293 1.393 . S
C297 C296 1.391 . S
C298 H288 0.950 . S
C298 C299 1.386 . S
C298 C300 1.391 . S
C299 C298 1.386 . S
C299 C303 1.393 . S
C300 H289 0.950 . S
C300 C298 1.391 . S
C300 C301 1.400 . S
C301 C295 1.491 . S
C301 C300 1.400 . S
C301 C302 1.398 . S
C302 H290 0.950 . S
C302 C301 1.398 . S
C302 C303 1.391 . S
C303 H291 0.950 . S
C303 C299 1.393 . S
C303 C302 1.391 . S
H304 C312 0.950 . S
H305 C317 0.950 . S
H306 C314 0.950 . S
H307 C316 0.950 . S
H308 C318 0.950 . S
H309 C320 0.950 . S
H310 C322 0.950 . S
H311 C323 0.950 . S
C312 H304 0.950 . S
C312 C313 1.386 . S
C312 C314 1.391 . S
C313 C312 1.386 . S
C313 C317 1.393 . S
C314 H306 0.950 . S
C314 C312 1.391 . S
C314 C315 1.400 . S
C315 C314 1.400 . S
C315 C316 1.398 . S
C315 C321 1.491 . S
C316 H307 0.950 . S
C316 C315 1.398 . S
C316 C317 1.391 . S
C317 H305 0.950 . S
C317 C313 1.393 . S
C317 C316 1.391 . S
C318 H308 0.950 . S
C318 C319 1.386 . S
C318 C320 1.391 . S
C319 C318 1.386 . S
C319 C323 1.393 . S
C320 H309 0.950 . S
C320 C318 1.391 . S
C320 C321 1.400 . S
C321 C315 1.491 . S
C321 C320 1.400 . S
C321 C322 1.398 . S
C322 H310 0.950 . S
C322 C321 1.398 . S
C322 C323 1.391 . S
C323 H311 0.950 . S
C323 C319 1.393 . S
C323 C322 1.391 . S
H324 C332 0.950 1_455 S
H325 C337 0.950 . S
H326 C334 0.950 . S
H327 C336 0.950 . S
H328 C338 0.950 . S
H329 C340 0.950 . S
H330 C342 0.950 . S
H331 C343 0.950 . S
C332 H324 0.950 1_655 S
C332 C333 1.386 . S
C332 C334 1.391 . S
C333 C332 1.386 . S
C333 C337 1.393 . S
C334 H326 0.950 . S
C334 C332 1.391 . S
C334 C335 1.400 . S
C335 C334 1.400 . S
C335 C336 1.398 . S
C335 C341 1.491 . S
C336 H327 0.950 . S
C336 C335 1.398 . S
C336 C337 1.391 . S
C337 H325 0.950 . S
C337 C333 1.393 . S
C337 C336 1.391 . S
C338 H328 0.950 . S
C338 C339 1.386 . S
C338 C340 1.391 . S
C339 C338 1.386 . S
C339 C343 1.393 . S
C340 H329 0.950 . S
C340 C338 1.391 . S
C340 C341 1.400 . S
C341 C335 1.491 . S
C341 C340 1.400 . S
C341 C342 1.398 . S
C342 H330 0.950 . S
C342 C341 1.398 . S
C342 C343 1.391 . S
C343 H331 0.950 . S
C343 C339 1.393 . S
C343 C342 1.391 . S
H344 C352 0.950 . S
H345 C357 0.950 . S
H346 C354 0.950 . S
H347 C356 0.950 . S
H348 C358 0.950 . S
H349 C360 0.950 . S
H350 C362 0.950 . S
H351 C363 0.950 . S
C352 H344 0.950 . S
C352 C353 1.386 . S
C352 C354 1.391 . S
C353 C352 1.386 . S
C353 C357 1.393 . S
C354 H346 0.950 . S
C354 C352 1.391 . S
C354 C355 1.400 . S
C355 C354 1.400 . S
C355 C356 1.398 . S
C355 C361 1.491 . S
C356 H347 0.950 . S
C356 C355 1.398 . S
C356 C357 1.391 . S
C357 H345 0.950 . S
C357 C353 1.393 . S
C357 C356 1.391 . S
C358 H348 0.950 . S
C358 C359 1.386 . S
C358 C360 1.391 . S
C359 C358 1.386 . S
C359 C363 1.393 . S
C360 H349 0.950 . S
C360 C358 1.391 . S
C360 C361 1.400 . S
C361 C355 1.491 . S
C361 C360 1.400 . S
C361 C362 1.398 . S
C362 H350 0.950 . S
C362 C361 1.398 . S
C362 C363 1.391 . S
C363 H351 0.950 . S
C363 C359 1.393 . S
C363 C362 1.391 . S
H364 C372 0.950 . S
H365 C377 0.950 . S
H366 C374 0.950 . S
H367 C376 0.950 . S
H368 C378 0.950 . S
H369 C380 0.950 . S
H370 C382 0.950 . S
H371 C383 0.950 . S
C372 H364 0.950 . S
C372 C373 1.386 . S
C372 C374 1.391 . S
C373 C372 1.386 . S
C373 C377 1.393 . S
C374 H366 0.950 . S
C374 C372 1.391 . S
C374 C375 1.400 . S
C375 C374 1.400 . S
C375 C376 1.398 . S
C375 C381 1.491 . S
C376 H367 0.950 . S
C376 C375 1.398 . S
C376 C377 1.391 . S
C377 H365 0.950 . S
C377 C373 1.393 . S
C377 C376 1.391 . S
C378 H368 0.950 . S
C378 C379 1.386 . S
C378 C380 1.391 . S
C379 C378 1.386 . S
C379 C383 1.393 . S
C380 H369 0.950 . S
C380 C378 1.391 . S
C380 C381 1.400 . S
C381 C375 1.491 . S
C381 C380 1.400 . S
C381 C382 1.398 . S
C382 H370 0.950 . S
C382 C381 1.398 . S
C382 C383 1.391 . S
C383 H371 0.950 . S
C383 C379 1.393 . S
C383 C382 1.391 . S
H384 C392 0.950 . S
H385 C397 0.950 . S
H386 C394 0.950 . S
H387 C396 0.950 1_554 S
H388 C398 0.950 . S
H389 C400 0.950 . S
H390 C402 0.950 . S
H391 C403 0.950 . S
C392 H384 0.950 . S
C392 C393 1.386 . S
C392 C394 1.391 . S
C393 C392 1.386 . S
C393 C397 1.393 . S
C394 H386 0.950 . S
C394 C392 1.391 . S
C394 C395 1.400 . S
C395 C394 1.400 . S
C395 C396 1.398 . S
C395 C401 1.491 . S
C396 H387 0.950 1_556 S
C396 C395 1.398 . S
C396 C397 1.391 . S
C397 H385 0.950 . S
C397 C393 1.393 . S
C397 C396 1.391 . S
C398 H388 0.950 . S
C398 C399 1.384 1_554 S
C398 C400 1.391 . S
C399 C398 1.384 1_556 S
C399 C403 1.396 . S
C400 H389 0.950 . S
C400 C398 1.391 . S
C400 C401 1.400 1_554 S
C401 C395 1.491 . S
C401 C400 1.400 1_556 S
C401 C402 1.398 . S
C402 H390 0.950 . S
C402 C401 1.398 . S
C402 C403 1.391 . S
C403 H391 0.950 . S
C403 C399 1.396 . S
C403 C402 1.391 . S
H404 C412 0.950 . S
H405 C417 0.950 . S
H406 C414 0.950 . S
H407 C416 0.950 . S
H408 C418 0.950 . S
H409 C420 0.950 . S
H410 C422 0.950 . S
H411 C423 0.950 . S
C412 H404 0.950 . S
C412 C413 1.386 . S
C412 C414 1.391 . S
C413 C412 1.386 . S
C413 C417 1.393 . S
C414 H406 0.950 . S
C414 C412 1.391 . S
C414 C415 1.400 . S
C415 C414 1.400 . S
C415 C416 1.398 . S
C415 C421 1.491 . S
C416 H407 0.950 . S
C416 C415 1.398 . S
C416 C417 1.391 . S
C417 H405 0.950 . S
C417 C413 1.393 . S
C417 C416 1.391 . S
C418 H408 0.950 . S
C418 C419 1.386 . S
C418 C420 1.391 . S
C419 C418 1.386 . S
C419 C423 1.393 . S
C420 H409 0.950 . S
C420 C418 1.391 . S
C420 C421 1.400 . S
C421 C415 1.491 . S
C421 C420 1.400 . S
C421 C422 1.398 . S
C422 H410 0.950 . S
C422 C421 1.398 . S
C422 C423 1.391 . S
C423 H411 0.950 . S
C423 C419 1.393 . S
C423 C422 1.391 . S
H424 C432 0.950 . S
H425 C437 0.950 . S
H426 C434 0.950 . S
H427 C436 0.950 . S
H428 C438 0.950 . S
H429 C440 0.950 . S
H430 C442 0.950 . S
H431 C443 0.950 . S
C432 H424 0.950 . S
C432 C433 1.386 . S
C432 C434 1.391 . S
C433 C432 1.386 . S
C433 C437 1.393 . S
C434 H426 0.950 . S
C434 C432 1.391 . S
C434 C435 1.400 . S
C435 C434 1.400 . S
C435 C436 1.398 . S
C435 C441 1.491 . S
C436 H427 0.950 . S
C436 C435 1.398 . S
C436 C437 1.391 . S
C437 H425 0.950 . S
C437 C433 1.393 . S
C437 C436 1.391 . S
C438 H428 0.950 . S
C438 C439 1.386 . S
C438 C440 1.391 . S
C439 C438 1.386 . S
C439 C443 1.393 . S
C440 H429 0.950 . S
C440 C438 1.391 . S
C440 C441 1.400 . S
C441 C435 1.491 . S
C441 C440 1.400 . S
C441 C442 1.398 . S
C442 H430 0.950 . S
C442 C441 1.398 . S
C442 C443 1.391 . S
C443 H431 0.950 . S
C443 C439 1.393 . S
C443 C442 1.391 . S
H444 C452 0.950 . S
H445 C457 0.950 . S
H446 C454 0.950 . S
H447 C456 0.950 . S
H448 C458 0.950 . S
H449 C460 0.950 . S
H450 C462 0.950 . S
H451 C463 0.950 . S
C452 H444 0.950 . S
C452 C453 1.386 . S
C452 C454 1.391 . S
C453 C452 1.386 . S
C453 C457 1.393 . S
C454 H446 0.950 . S
C454 C452 1.391 . S
C454 C455 1.400 . S
C455 C454 1.400 . S
C455 C456 1.398 . S
C455 C461 1.491 . S
C456 H447 0.950 . S
C456 C455 1.398 . S
C456 C457 1.391 . S
C457 H445 0.950 . S
C457 C453 1.393 . S
C457 C456 1.391 . S
C458 H448 0.950 . S
C458 C459 1.386 . S
C458 C460 1.391 . S
C459 C458 1.386 . S
C459 C463 1.393 . S
C460 H449 0.950 . S
C460 C458 1.391 . S
C460 C461 1.400 . S
C461 C455 1.491 . S
C461 C460 1.400 . S
C461 C462 1.398 . S
C462 H450 0.950 . S
C462 C461 1.398 . S
C462 C463 1.391 . S
C463 H451 0.950 . S
C463 C459 1.393 . S
C463 C462 1.391 . S
H464 C472 0.950 . S
H465 C477 0.950 . S
H466 C474 0.950 . S
H467 C476 0.950 . S
H468 C478 0.950 . S
H469 C480 0.950 . S
H470 C482 0.950 . S
H471 C483 0.950 . S
C472 H464 0.950 . S
C472 C473 1.386 . S
C472 C474 1.391 . S
C473 C472 1.386 . S
C473 C477 1.393 . S
C474 H466 0.950 . S
C474 C472 1.391 . S
C474 C475 1.400 . S
C475 C474 1.400 . S
C475 C476 1.398 . S
C475 C481 1.491 . S
C476 H467 0.950 . S
C476 C475 1.398 . S
C476 C477 1.391 . S
C477 H465 0.950 . S
C477 C473 1.393 . S
C477 C476 1.391 . S
C478 H468 0.950 . S
C478 C479 1.386 . S
C478 C480 1.391 . S
C479 C478 1.386 . S
C479 C483 1.393 . S
C480 H469 0.950 . S
C480 C478 1.391 . S
C480 C481 1.400 . S
C481 C475 1.491 . S
C481 C480 1.400 . S
C481 C482 1.398 . S
C482 H470 0.950 . S
C482 C481 1.398 . S
C482 C483 1.391 . S
C483 H471 0.950 . S
C483 C479 1.393 . S
C483 C482 1.391 . S
H484 C492 0.950 . S
H485 C497 0.950 . S
H486 C494 0.950 . S
H487 C496 0.950 . S
H488 C498 0.950 . S
H489 C500 0.950 . S
H490 C502 0.950 1_554 S
H491 C503 0.950 . S
C492 H484 0.950 . S
C492 C493 1.386 . S
C492 C494 1.391 . S
C493 C492 1.386 . S
C493 C497 1.393 . S
C494 H486 0.950 . S
C494 C492 1.391 . S
C494 C495 1.400 . S
C495 C494 1.400 . S
C495 C496 1.398 . S
C495 C501 1.491 . S
C496 H487 0.950 . S
C496 C495 1.398 . S
C496 C497 1.391 . S
C497 H485 0.950 . S
C497 C493 1.393 . S
C497 C496 1.391 . S
C498 H488 0.950 . S
C498 C499 1.386 . S
C498 C500 1.391 . S
C499 C498 1.386 . S
C499 C503 1.393 1_556 S
C500 H489 0.950 . S
C500 C498 1.391 . S
C500 C501 1.400 . S
C501 C495 1.491 . S
C501 C500 1.400 . S
C501 C502 1.398 . S
C502 H490 0.950 1_556 S
C502 C501 1.398 . S
C502 C503 1.391 1_556 S
C503 H491 0.950 . S
C503 C499 1.393 1_554 S
C503 C502 1.391 1_554 S
H504 C512 0.950 . S
H505 C517 0.950 . S
H506 C514 0.950 . S
H507 C516 0.950 . S
H508 C518 0.950 . S
H509 C520 0.950 . S
H510 C522 0.950 . S
H511 C523 0.950 . S
C512 H504 0.950 . S
C512 C513 1.386 . S
C512 C514 1.391 . S
C513 C512 1.386 . S
C513 C517 1.393 . S
C514 H506 0.950 . S
C514 C512 1.391 . S
C514 C515 1.400 . S
C515 C514 1.400 . S
C515 C516 1.398 . S
C515 C521 1.491 . S
C516 H507 0.950 . S
C516 C515 1.398 . S
C516 C517 1.391 . S
C517 H505 0.950 . S
C517 C513 1.393 . S
C517 C516 1.391 . S
C518 H508 0.950 . S
C518 C519 1.386 . S
C518 C520 1.391 . S
C519 C518 1.386 . S
C519 C523 1.393 . S
C520 H509 0.950 . S
C520 C518 1.391 . S
C520 C521 1.400 . S
C521 C515 1.491 . S
C521 C520 1.400 . S
C521 C522 1.398 . S
C522 H510 0.950 . S
C522 C521 1.398 . S
C522 C523 1.391 . S
C523 H511 0.950 . S
C523 C519 1.393 . S
C523 C522 1.391 . S
H524 C532 0.950 . S
H525 C537 0.950 . S
H526 C534 0.950 . S
H527 C536 0.950 . S
H528 C538 0.950 . S
H529 C540 0.950 . S
H530 C542 0.950 . S
H531 C543 0.950 . S
C532 H524 0.950 . S
C532 C533 1.386 . S
C532 C534 1.391 . S
C533 C532 1.386 . S
C533 C537 1.393 . S
C534 H526 0.950 . S
C534 C532 1.391 . S
C534 C535 1.400 . S
C535 C534 1.400 . S
C535 C536 1.398 . S
C535 C541 1.491 . S
C536 H527 0.950 . S
C536 C535 1.398 . S
C536 C537 1.391 . S
C537 H525 0.950 . S
C537 C533 1.393 . S
C537 C536 1.391 . S
C538 H528 0.950 . S
C538 C539 1.386 . S
C538 C540 1.391 . S
C539 C538 1.386 . S
C539 C543 1.393 . S
C540 H529 0.950 . S
C540 C538 1.391 . S
C540 C541 1.400 . S
C541 C535 1.491 . S
C541 C540 1.400 . S
C541 C542 1.398 . S
C542 H530 0.950 . S
C542 C541 1.398 . S
C542 C543 1.391 . S
C543 H531 0.950 . S
C543 C539 1.393 . S
C543 C542 1.391 . S
H544 C552 0.950 . S
H545 C557 0.950 . S
H546 C554 0.950 . S
H547 C556 0.950 . S
H548 C558 0.950 . S
H549 C560 0.950 . S
H550 C562 0.950 . S
H551 C563 0.950 . S
C552 H544 0.950 . S
C552 C553 1.386 . S
C552 C554 1.391 . S
C553 C552 1.386 . S
C553 C557 1.393 . S
C554 H546 0.950 . S
C554 C552 1.391 . S
C554 C555 1.400 . S
C555 C554 1.400 . S
C555 C556 1.398 . S
C555 C561 1.491 . S
C556 H547 0.950 . S
C556 C555 1.398 . S
C556 C557 1.391 . S
C557 H545 0.950 . S
C557 C553 1.393 . S
C557 C556 1.391 . S
C558 H548 0.950 . S
C558 C559 1.386 . S
C558 C560 1.391 1_556 S
C559 C558 1.386 . S
C559 C563 1.393 . S
C560 H549 0.950 . S
C560 C558 1.391 1_554 S
C560 C561 1.400 . S
C561 C555 1.491 . S
C561 C560 1.400 . S
C561 C562 1.398 1_554 S
C562 H550 0.950 . S
C562 C561 1.398 1_556 S
C562 C563 1.391 . S
C563 H551 0.950 . S
C563 C559 1.393 . S
C563 C562 1.391 . S
H564 C572 0.950 . S
H565 C577 0.950 . S
H566 C574 0.950 . S
H567 C576 0.950 . S
H568 C578 0.950 . S
H569 C580 0.950 . S
H570 C582 0.950 . S
H571 C583 0.950 . S
C572 H564 0.950 . S
C572 C573 1.386 . S
C572 C574 1.391 . S
C573 C572 1.386 . S
C573 C577 1.393 . S
C574 H566 0.950 . S
C574 C572 1.391 . S
C574 C575 1.400 . S
C575 C574 1.400 . S
C575 C576 1.398 . S
C575 C581 1.491 . S
C576 H567 0.950 . S
C576 C575 1.398 . S
C576 C577 1.391 . S
C577 H565 0.950 . S
C577 C573 1.393 . S
C577 C576 1.391 . S
C578 H568 0.950 . S
C578 C579 1.386 . S
C578 C580 1.391 . S
C579 C578 1.386 . S
C579 C583 1.393 . S
C580 H569 0.950 . S
C580 C578 1.391 . S
C580 C581 1.400 . S
C581 C575 1.491 . S
C581 C580 1.400 . S
C581 C582 1.398 . S
C582 H570 0.950 . S
C582 C581 1.398 . S
C582 C583 1.391 . S
C583 H571 0.950 . S
C583 C579 1.393 . S
C583 C582 1.391 . S
H584 C592 0.950 . S
H585 C597 0.950 . S
H586 C594 0.950 . S
H587 C596 0.950 . S
H588 C598 0.950 . S
H589 C600 0.950 . S
H590 C602 0.950 . S
H591 C603 0.950 . S
C592 H584 0.950 . S
C592 C593 1.386 . S
C592 C594 1.391 . S
C593 C592 1.386 . S
C593 C597 1.393 . S
C594 H586 0.950 . S
C594 C592 1.391 . S
C594 C595 1.400 . S
C595 C594 1.400 . S
C595 C596 1.398 . S
C595 C601 1.491 . S
C596 H587 0.950 . S
C596 C595 1.398 . S
C596 C597 1.391 . S
C597 H585 0.950 . S
C597 C593 1.393 . S
C597 C596 1.391 . S
C598 H588 0.950 . S
C598 C599 1.386 . S
C598 C600 1.391 . S
C599 C598 1.386 . S
C599 C603 1.393 . S
C600 H589 0.950 . S
C600 C598 1.391 . S
C600 C601 1.400 . S
C601 C595 1.491 . S
C601 C600 1.400 . S
C601 C602 1.398 . S
C602 H590 0.950 . S
C602 C601 1.398 . S
C602 C603 1.391 . S
C603 H591 0.950 . S
C603 C599 1.393 . S
C603 C602 1.391 . S
H604 C612 0.950 . S
H605 C617 0.950 . S
H606 C614 0.950 . S
H607 C616 0.950 . S
H608 C618 0.950 . S
H609 C620 0.950 . S
H610 C622 0.950 . S
H611 C623 0.950 . S
C612 H604 0.950 . S
C612 C613 1.386 . S
C612 C614 1.391 . S
C613 C612 1.386 . S
C613 C617 1.393 . S
C614 H606 0.950 . S
C614 C612 1.391 . S
C614 C615 1.400 . S
C615 C614 1.400 . S
C615 C616 1.398 . S
C615 C621 1.491 . S
C616 H607 0.950 . S
C616 C615 1.398 . S
C616 C617 1.391 . S
C617 H605 0.950 . S
C617 C613 1.393 . S
C617 C616 1.391 . S
C618 H608 0.950 . S
C618 C619 1.386 . S
C618 C620 1.391 . S
C619 C618 1.386 . S
C619 C623 1.393 . S
C620 H609 0.950 . S
C620 C618 1.391 . S
C620 C621 1.400 . S
C621 C615 1.491 . S
C621 C620 1.400 . S
C621 C622 1.398 . S
C622 H610 0.950 . S
C622 C621 1.398 . S
C622 C623 1.391 . S
C623 H611 0.950 . S
C623 C619 1.393 . S
C623 C622 1.391 . S
H624 C632 0.950 . S
H625 C637 0.950 . S
H626 C634 0.950 . S
H627 C636 0.950 . S
H628 C638 0.950 . S
H629 C640 0.950 . S
H630 C642 0.950 . S
H631 C643 0.950 . S
C632 H624 0.950 . S
C632 C633 1.386 . S
C632 C634 1.391 . S
C633 C632 1.386 . S
C633 C637 1.393 . S
C634 H626 0.950 . S
C634 C632 1.391 . S
C634 C635 1.400 . S
C635 C634 1.400 . S
C635 C636 1.398 . S
C635 C641 1.491 . S
C636 H627 0.950 . S
C636 C635 1.398 . S
C636 C637 1.391 . S
C637 H625 0.950 . S
C637 C633 1.393 . S
C637 C636 1.391 . S
C638 H628 0.950 . S
C638 C639 1.386 . S
C638 C640 1.391 . S
C639 C638 1.386 . S
C639 C643 1.393 . S
C640 H629 0.950 . S
C640 C638 1.391 . S
C640 C641 1.400 . S
C641 C635 1.491 . S
C641 C640 1.400 . S
C641 C642 1.398 . S
C642 H630 0.950 . S
C642 C641 1.398 . S
C642 C643 1.391 . S
C643 H631 0.950 . S
C643 C639 1.393 . S
C643 C642 1.391 . S
H644 C652 0.950 . S
H645 C657 0.950 . S
H646 C654 0.950 . S
H647 C656 0.950 . S
H648 C658 0.950 . S
H649 C660 0.950 . S
H650 C662 0.950 . S
H651 C663 0.950 . S
C652 H644 0.950 . S
C652 C653 1.386 . S
C652 C654 1.391 . S
C653 C652 1.386 . S
C653 C657 1.393 . S
C654 H646 0.950 . S
C654 C652 1.391 . S
C654 C655 1.400 . S
C655 C654 1.400 . S
C655 C656 1.398 . S
C655 C661 1.491 . S
C656 H647 0.950 . S
C656 C655 1.398 . S
C656 C657 1.391 . S
C657 H645 0.950 . S
C657 C653 1.393 . S
C657 C656 1.391 . S
C658 H648 0.950 . S
C658 C659 1.386 . S
C658 C660 1.391 . S
C659 C658 1.386 . S
C659 C663 1.393 . S
C660 H649 0.950 . S
C660 C658 1.391 . S
C660 C661 1.400 . S
C661 C655 1.491 . S
C661 C660 1.400 . S
C661 C662 1.398 . S
C662 H650 0.950 . S
C662 C661 1.398 . S
C662 C663 1.391 . S
C663 H651 0.950 . S
C663 C659 1.393 . S
C663 C662 1.391 . S
H664 C672 0.950 . S
H665 C677 0.950 . S
H666 C674 0.950 . S
H667 C676 0.950 1_545 S
H668 C678 0.950 . S
H669 C680 0.950 . S
H670 C682 0.950 1_565 S
H671 C683 0.950 . S
C672 H664 0.950 . S
C672 C673 1.386 . S
C672 C674 1.391 . S
C673 C672 1.386 . S
C673 C677 1.393 . S
C674 H666 0.950 . S
C674 C672 1.391 . S
C674 C675 1.400 . S
C675 C674 1.400 . S
C675 C676 1.398 . S
C675 C681 1.491 1_565 S
C676 H667 0.950 1_565 S
C676 C675 1.398 . S
C676 C677 1.391 . S
C677 H665 0.950 . S
C677 C673 1.393 . S
C677 C676 1.391 . S
C678 H668 0.950 . S
C678 C679 1.386 . S
C678 C680 1.391 . S
C679 C678 1.386 . S
C679 C683 1.393 . S
C680 H669 0.950 . S
C680 C678 1.391 . S
C680 C681 1.400 . S
C681 C675 1.491 1_545 S
C681 C680 1.400 . S
C681 C682 1.398 . S
C682 H670 0.950 1_545 S
C682 C681 1.398 . S
C682 C683 1.391 . S
C683 H671 0.950 . S
C683 C679 1.393 . S
C683 C682 1.391 . S
H684 C692 0.950 . S
H685 C697 0.950 1_655 S
H686 C694 0.950 . S
H687 C696 0.950 1_655 S
H688 C698 0.950 1_655 S
H689 C700 0.950 1_655 S
H690 C702 0.950 . S
H691 C703 0.950 . S
C692 H684 0.950 . S
C692 C693 1.386 . S
C692 C694 1.391 1_556 S
C693 C692 1.386 . S
C693 C697 1.393 . S
C694 H686 0.950 . S
C694 C692 1.391 1_554 S
C694 C695 1.400 . S
C695 C694 1.400 . S
C695 C696 1.398 . S
C695 C701 1.491 1_545 S
C696 H687 0.950 1_455 S
C696 C695 1.398 . S
C696 C697 1.391 1_554 S
C697 H685 0.950 1_455 S
C697 C693 1.393 . S
C697 C696 1.391 1_556 S
C698 H688 0.950 1_455 S
C698 C699 1.386 . S
C698 C700 1.391 . S
C699 C698 1.386 . S
C699 C703 1.393 . S
C700 H689 0.950 1_455 S
C700 C698 1.391 . S
C700 C701 1.400 . S
C701 C695 1.491 1_565 S
C701 C700 1.400 . S
C701 C702 1.398 . S
C702 H690 0.950 . S
C702 C701 1.398 . S
C702 C703 1.391 . S
C703 H691 0.950 . S
C703 C699 1.393 . S
C703 C702 1.391 . S
H704 C712 0.950 . S
H705 C717 0.950 1_655 S
H706 C714 0.950 . S
H707 C716 0.950 1_655 S
H708 C718 0.921 1_655 S
H709 C720 0.918 1_655 S
H710 C722 0.950 . S
H711 C723 0.950 . S
C712 H704 0.950 . S
C712 C713 1.386 . S
C712 C714 1.391 . S
C713 C712 1.386 . S
C713 C717 1.393 . S
C714 H706 0.950 . S
C714 C712 1.391 . S
C714 C715 1.400 . S
C715 C714 1.400 . S
C715 C716 1.398 . S
C715 C721 1.491 . S
C716 H707 0.950 1_455 S
C716 C715 1.398 . S
C716 C717 1.391 . S
C717 H705 0.950 1_455 S
C717 C713 1.393 . S
C717 C716 1.391 . S
C718 H708 0.921 1_455 S
C718 C719 1.415 . S
C718 C720 1.391 . S
C719 C718 1.415 . S
C719 C723 1.393 . S
C720 H709 0.918 1_455 S
C720 C718 1.391 . S
C720 C721 1.432 . S
C721 C715 1.491 . S
C721 C720 1.432 . S
C721 C722 1.398 . S
C722 H710 0.950 . S
C722 C721 1.398 . S
C722 C723 1.391 . S
C723 H711 0.950 . S
C723 C719 1.393 . S
C723 C722 1.391 . S
H724 C732 0.950 . S
H725 C737 0.950 . S
H726 C734 0.950 . S
H727 C736 0.950 . S
H728 C738 0.950 . S
H729 C740 0.950 . S
H730 C742 0.950 . S
H731 C743 0.950 . S
C732 H724 0.950 . S
C732 C733 1.386 . S
C732 C734 1.391 . S
C733 C732 1.386 . S
C733 C737 1.393 . S
C734 H726 0.950 . S
C734 C732 1.391 . S
C734 C735 1.400 . S
C735 C734 1.400 . S
C735 C736 1.398 . S
C735 C741 1.491 . S
C736 H727 0.950 . S
C736 C735 1.398 . S
C736 C737 1.391 . S
C737 H725 0.950 . S
C737 C733 1.393 . S
C737 C736 1.391 . S
C738 H728 0.950 . S
C738 C739 1.386 . S
C738 C740 1.391 . S
C739 C738 1.386 . S
C739 C743 1.393 . S
C740 H729 0.950 . S
C740 C738 1.391 . S
C740 C741 1.400 . S
C741 C735 1.491 . S
C741 C740 1.400 . S
C741 C742 1.398 . S
C742 H730 0.950 . S
C742 C741 1.398 . S
C742 C743 1.391 . S
C743 H731 0.950 . S
C743 C739 1.393 . S
C743 C742 1.391 . S
H744 C752 0.950 . S
H745 C757 0.950 . S
H746 C754 0.950 . S
H747 C756 0.950 . S
H748 C758 0.950 . S
H749 C760 0.950 . S
H750 C762 0.950 . S
H751 C763 0.950 . S
C752 H744 0.950 . S
C752 C753 1.386 . S
C752 C754 1.391 . S
C753 C752 1.386 . S
C753 C757 1.393 . S
C754 H746 0.950 . S
C754 C752 1.391 . S
C754 C755 1.400 . S
C755 C754 1.400 . S
C755 C756 1.398 . S
C755 C761 1.491 . S
C756 H747 0.950 . S
C756 C755 1.398 . S
C756 C757 1.391 . S
C757 H745 0.950 . S
C757 C753 1.393 . S
C757 C756 1.391 . S
C758 H748 0.950 . S
C758 C759 1.386 . S
C758 C760 1.391 1_556 S
C759 C758 1.386 . S
C759 C763 1.393 . S
C760 H749 0.950 . S
C760 C758 1.391 1_554 S
C760 C761 1.400 . S
C761 C755 1.491 . S
C761 C760 1.400 . S
C761 C762 1.398 1_554 S
C762 H750 0.950 . S
C762 C761 1.398 1_556 S
C762 C763 1.391 . S
C763 H751 0.950 . S
C763 C759 1.393 . S
C763 C762 1.391 . S
H764 C772 0.950 . S
H765 C777 0.950 . S
H766 C774 0.950 . S
H767 C776 0.950 . S
H768 C778 0.950 . S
H769 C780 0.950 . S
H770 C782 0.950 . S
H771 C783 0.950 . S
C772 H764 0.950 . S
C772 C773 1.386 . S
C772 C774 1.391 . S
C773 C772 1.386 . S
C773 C777 1.393 . S
C774 H766 0.950 . S
C774 C772 1.391 . S
C774 C775 1.400 . S
C775 C774 1.400 . S
C775 C776 1.398 . S
C775 C781 1.491 . S
C776 H767 0.950 . S
C776 C775 1.398 . S
C776 C777 1.391 . S
C777 H765 0.950 . S
C777 C773 1.393 . S
C777 C776 1.391 . S
C778 H768 0.950 . S
C778 C779 1.386 . S
C778 C780 1.391 . S
C779 C778 1.386 . S
C779 C783 1.393 . S
C780 H769 0.950 . S
C780 C778 1.391 . S
C780 C781 1.400 . S
C781 C775 1.491 . S
C781 C780 1.400 . S
C781 C782 1.398 . S
C782 H770 0.950 . S
C782 C781 1.398 . S
C782 C783 1.391 . S
C783 H771 0.950 . S
C783 C779 1.393 . S
C783 C782 1.391 . S
H784 C792 0.950 . S
H785 C797 0.950 . S
H786 C794 0.950 . S
H787 C796 0.950 . S
H788 C798 0.950 . S
H789 C800 0.950 . S
H790 C802 0.950 . S
H791 C803 0.950 . S
C792 H784 0.950 . S
C792 C793 1.386 . S
C792 C794 1.391 . S
C793 C792 1.386 . S
C793 C797 1.393 . S
C794 H786 0.950 . S
C794 C792 1.391 . S
C794 C795 1.400 . S
C795 C794 1.400 . S
C795 C796 1.398 . S
C795 C801 1.491 . S
C796 H787 0.950 . S
C796 C795 1.398 . S
C796 C797 1.391 . S
C797 H785 0.950 . S
C797 C793 1.393 . S
C797 C796 1.391 . S
C798 H788 0.950 . S
C798 C799 1.386 . S
C798 C800 1.391 . S
C799 C798 1.386 . S
C799 C803 1.393 . S
C800 H789 0.950 . S
C800 C798 1.391 . S
C800 C801 1.400 . S
C801 C795 1.491 . S
C801 C800 1.400 . S
C801 C802 1.398 . S
C802 H790 0.950 . S
C802 C801 1.398 . S
C802 C803 1.391 . S
C803 H791 0.950 . S
C803 C799 1.393 . S
C803 C802 1.391 . S
H804 C812 0.950 . S
H805 C817 0.950 . S
H806 C814 0.950 . S
H807 C816 0.950 . S
H808 C818 0.950 . S
H809 C820 0.950 . S
H810 C822 0.950 . S
H811 C823 0.950 . S
C812 H804 0.950 . S
C812 C813 1.386 . S
C812 C814 1.391 . S
C813 C812 1.386 . S
C813 C817 1.393 . S
C814 H806 0.950 . S
C814 C812 1.391 . S
C814 C815 1.400 . S
C815 C814 1.400 . S
C815 C816 1.398 . S
C815 C821 1.491 . S
C816 H807 0.950 . S
C816 C815 1.398 . S
C816 C817 1.391 . S
C817 H805 0.950 . S
C817 C813 1.393 . S
C817 C816 1.391 . S
C818 H808 0.950 . S
C818 C819 1.386 . S
C818 C820 1.391 . S
C819 C818 1.386 . S
C819 C823 1.393 . S
C820 H809 0.950 . S
C820 C818 1.391 . S
C820 C821 1.400 . S
C821 C815 1.491 . S
C821 C820 1.400 . S
C821 C822 1.398 . S
C822 H810 0.950 . S
C822 C821 1.398 . S
C822 C823 1.391 . S
C823 H811 0.950 . S
C823 C819 1.393 . S
C823 C822 1.391 . S
H824 C832 0.950 . S
H825 C837 0.950 . S
H826 C834 0.950 . S
H827 C836 0.950 1_545 S
H828 C838 0.950 1_554 S
H829 C840 0.950 . S
H830 C842 0.950 1_565 S
H831 C843 0.950 . S
C832 H824 0.950 . S
C832 C833 1.386 . S
C832 C834 1.391 . S
C833 C832 1.386 . S
C833 C837 1.393 . S
C834 H826 0.950 . S
C834 C832 1.391 . S
C834 C835 1.400 . S
C835 C834 1.400 . S
C835 C836 1.398 . S
C835 C841 1.491 1_565 S
C836 H827 0.950 1_565 S
C836 C835 1.398 . S
C836 C837 1.391 . S
C837 H825 0.950 . S
C837 C833 1.393 . S
C837 C836 1.391 . S
C838 H828 0.950 1_556 S
C838 C839 1.386 . S
C838 C840 1.391 1_556 S
C839 C838 1.386 . S
C839 C843 1.393 . S
C840 H829 0.950 . S
C840 C838 1.391 1_554 S
C840 C841 1.400 . S
C841 C835 1.491 1_545 S
C841 C840 1.400 . S
C841 C842 1.398 1_554 S
C842 H830 0.950 1_545 S
C842 C841 1.398 1_556 S
C842 C843 1.391 . S
C843 H831 0.950 . S
C843 C839 1.393 . S
C843 C842 1.391 . S
H844 C852 0.950 . S
H845 C857 0.950 . S
H846 C854 0.950 . S
H847 C856 0.950 . S
H848 C858 0.950 . S
H849 C860 0.950 . S
H850 C862 0.950 . S
H851 C863 0.950 . S
C852 H844 0.950 . S
C852 C853 1.386 . S
C852 C854 1.391 . S
C853 C852 1.386 . S
C853 C857 1.393 . S
C854 H846 0.950 . S
C854 C852 1.391 . S
C854 C855 1.400 . S
C855 C854 1.400 . S
C855 C856 1.398 . S
C855 C861 1.491 1_545 S
C856 H847 0.950 . S
C856 C855 1.398 . S
C856 C857 1.391 . S
C857 H845 0.950 . S
C857 C853 1.393 . S
C857 C856 1.391 . S
C858 H848 0.950 . S
C858 C859 1.386 . S
C858 C860 1.391 . S
C859 C858 1.386 . S
C859 C863 1.393 . S
C860 H849 0.950 . S
C860 C858 1.391 . S
C860 C861 1.400 . S
C861 C855 1.491 1_565 S
C861 C860 1.400 . S
C861 C862 1.398 . S
C862 H850 0.950 . S
C862 C861 1.398 . S
C862 C863 1.391 . S
C863 H851 0.950 . S
C863 C859 1.393 . S
C863 C862 1.391 . S
C233 C135 1.465 . S
C239 C9 1.458 . S
C253 C205 1.470 . S
C259 C23 1.458 . S
C273 C37 1.460 . S
C279 C121 1.463 . S
C293 C51 1.463 . S
C299 C219 1.469 1_655 S
C313 C65 1.458 . S
C319 C149 1.465 . S
C333 C191 1.468 1_655 S
C339 C79 1.464 . S
C353 C163 1.470 . S
C359 C93 1.458 . S
C373 C107 1.463 . S
C379 C177 1.459 . S
C393 C59 1.559 . S
C399 C45 1.563 1_556 S
C413 C171 1.554 . S
C419 C115 1.554 . S
C433 C87 1.569 . S
C439 C17 1.569 . S
C453 C129 1.553 . S
C459 C185 1.555 . S
C473 C3 1.562 . S
C479 C73 1.566 . S
C493 C213 1.558 . S
C499 C143 1.555 1_556 S
C513 C101 1.558 . S
C519 C31 1.555 . S
C533 C157 1.556 . S
C539 C199 1.554 . S
C553 C7 0.623 . S
C559 C63 0.614 . S
C573 C77 0.571 . S
C579 C21 0.569 . S
C593 C91 0.623 . S
C599 C35 0.612 . S
C613 C49 0.574 . S
C619 C105 0.594 . S
C633 C147 0.616 . S
C639 C119 0.623 . S
C653 C161 0.623 . S
C659 C133 0.609 . S
C673 C203 0.623 . S
C679 C175 0.610 . S
C693 C217 0.574 . S
C699 C189 0.568 . S
C713 C64 1.763 . S
C719 C8 1.765 . S
C733 C78 1.761 . S
C739 C22 1.766 . S
C753 C92 1.763 . S
C759 C36 1.759 . S
C773 C50 1.765 . S
C779 C106 1.758 . S
C793 C120 1.761 . S
C799 C148 1.766 . S
C813 C162 1.762 . S
C819 C134 1.766 . S
C833 C204 1.766 . S
C839 C176 1.759 . S
C853 C218 1.765 . S
C859 C190 1.763 . S
