# Generated by pormake.
# Topology tfs, (6)-cn, num edge types: 1
# Building blocks:
#     Node 0, Type 0, BuildingBlock: INOVEN_clean_sbu_0, # of connection points: 6
#     Node 1, Type 0, BuildingBlock: INOVEN_clean_sbu_0, # of connection points: 6
#     Node 2, Type 0, BuildingBlock: INOVEN_clean_sbu_0, # of connection points: 6
#     Node 3, Type 0, BuildingBlock: INOVEN_clean_sbu_0, # of connection points: 6
#     Node 4, Type 0, BuildingBlock: INOVEN_clean_sbu_0, # of connection points: 6
#     Node 5, Type 0, BuildingBlock: INOVEN_clean_sbu_0, # of connection points: 6
#     Edge 6, Type (0, 0), None
#     Edge 7, Type (0, 0), None
#     Edge 8, Type (0, 0), None
#     Edge 9, Type (0, 0), None
#     Edge 10, Type (0, 0), None
#     Edge 11, Type (0, 0), None
#     Edge 12, Type (0, 0), None
#     Edge 13, Type (0, 0), None
#     Edge 14, Type (0, 0), None
#     Edge 15, Type (0, 0), None
#     Edge 16, Type (0, 0), None
#     Edge 17, Type (0, 0), None
#     Edge 18, Type (0, 0), None
#     Edge 19, Type (0, 0), None
#     Edge 20, Type (0, 0), None
#     Edge 21, Type (0, 0), None
#     Edge 22, Type (0, 0), None
#     Edge 23, Type (0, 0), None
# Relax obj value: 0.521
# Max RMSD: 0.374
# Mean RMSD: 0.362
data_MOF--net-tfs--node1-INOVEN_clean_sbu_0--edge1-none
_symmetry_space_group_name_H-M    P1
_symmetry_Int_Tables_number       1
_symmetry_cell_setting            triclinic
loop_
_symmetry_equiv_pos_as_xyz
'x, y, z'
_cell_length_a     32.856106
_cell_length_b     32.495764
_cell_length_c     6.0014426
_cell_angle_alpha  90.39649
_cell_angle_beta   95.313965
_cell_angle_gamma 120.20214
loop_
_atom_site_label
_atom_site_type_symbol
_atom_site_fract_x
_atom_site_fract_y
_atom_site_fract_z
_atom_type_partial_charge
Gd0 Gd 0.17259 0.36901 0.84383 0.0
Gd1 Gd 0.14399 0.44534 0.84263 0.0
C2 C 0.06222 0.33826 0.85215 0.0
C3 C 0.18766 0.30016 0.93934 0.0
C4 C 0.22885 0.29439 0.9901 0.0
C5 C 0.22322 0.25392 0.0958 0.0
C6 C 0.27372 0.32892 0.93589 0.0
C7 C 0.30655 0.28069 0.08026 0.0
C8 C 0.31235 0.3221 0.9805 0.0
C9 C 0.26173 0.24708 0.14081 0.0
C10 C 0.16081 0.39864 0.4403 0.0
C11 C 0.2564 0.47636 0.86476 0.0
C12 C 0.12819 0.51355 0.74165 0.0
C13 C 0.14789 0.56531 0.77077 0.0
C14 C 0.11725 0.58146 0.81885 0.0
C15 C 0.1955 0.59861 0.74773 0.0
C16 C 0.1809 0.66382 0.81751 0.0
C17 C 0.2119 0.64766 0.77074 0.0
C18 C 0.13348 0.63007 0.84226 0.0
C19 C 0.15631 0.41662 0.24856 0.0
O20 O 0.09601 0.32817 0.90303 0.0
O21 O 0.07158 0.38029 0.78282 0.0
O22 O 0.18181 0.32534 0.09046 0.0
O23 O 0.18017 0.30995 0.73361 0.0
O24 O 0.19258 0.3868 0.49276 0.0
O25 O 0.13481 0.39107 0.59435 0.0
O26 O 0.22396 0.4893 0.82914 0.0
O27 O 0.245 0.43201 0.90101 0.0
O28 O 0.11476 0.48956 0.92069 0.0
O29 O 0.14814 0.49794 0.61181 0.0
O30 O 0.12557 0.42982 0.19829 0.0
O31 O 0.18153 0.4234 0.09237 0.0
H32 H 0.18884 0.22725 0.14083 0.0
H33 H 0.27865 0.3607 0.85628 0.0
H34 H 0.34639 0.34866 0.93197 0.0
H35 H 0.25605 0.21489 0.21865 0.0
H36 H 0.0804 0.5563 0.83686 0.0
H37 H 0.21981 0.58681 0.711 0.0
H38 H 0.24862 0.67276 0.75078 0.0
H39 H 0.10849 0.64103 0.87818 0.0
Gd40 Gd 0.69805 0.16293 0.14338 0.0
Gd41 Gd 0.80254 0.19215 0.20705 0.0
C42 C 0.77989 0.27594 0.20304 0.0
C43 C 0.61391 0.14625 0.19081 0.0
C44 C 0.58175 0.16507 0.15602 0.0
C45 C 0.53324 0.13228 0.11371 0.0
C46 C 0.59785 0.21416 0.16886 0.0
C47 C 0.51627 0.19694 0.10785 0.0
C48 C 0.56522 0.23004 0.14461 0.0
C49 C 0.50081 0.14795 0.08969 0.0
C50 C 0.7389 0.17469 0.76381 0.0
C51 C 0.72176 0.08 0.12446 0.0
C52 C 0.88494 0.20436 0.15617 0.0
C53 C 0.92791 0.23796 0.05893 0.0
C54 C 0.96088 0.22415 0.02357 0.0
C55 C 0.93672 0.28339 1.00305 0.0
C56 C 0.01379 0.30258 0.89724 0.0
C57 C 0.97953 0.31561 0.92226 0.0
C58 C 0.00343 0.25611 0.94322 0.0
C59 C 0.76131 0.17948 0.58573 0.0
O60 O 0.73527 0.24331 0.22495 0.0
O61 O 0.81106 0.26375 0.15568 0.0
O62 O 0.62457 0.1326 1.01055 0.0
O63 O 0.64957 0.16757 0.34855 0.0
O64 O 0.69484 0.14342 0.77672 0.0
O65 O 0.7577 0.2005 0.9414 0.0
O66 O 0.76582 0.11367 0.10692 0.0
O67 O 0.68981 0.09049 0.17796 0.0
O68 O 0.84744 0.17893 1.01304 0.0
O69 O 0.87587 0.21984 0.33642 0.0
O70 O 0.80531 0.21102 0.57376 0.0
O71 O 0.74278 0.15388 0.40731 0.0
H72 H 0.52029 0.09428 0.10239 0.0
H73 H 0.63537 0.24 0.20044 0.0
H74 H 0.57822 0.268 0.15934 0.0
H75 H 0.46348 0.1214 0.0598 0.0
H76 H 0.95421 0.18894 0.06333 0.0
H77 H 0.91113 0.29426 0.02729 0.0
H78 H 0.98658 0.35119 0.88903 0.0
H79 H 0.02888 0.24479 0.92424 0.0
Gd80 Gd 0.5247 0.69585 0.91382 0.0
Gd81 Gd 0.60212 0.80111 0.9688 0.0
C82 C 0.49586 0.77895 0.94171 0.0
C83 C 0.4565 0.61128 0.97033 0.0
C84 C 0.40527 0.57864 0.92621 0.0
C85 C 0.38892 0.52975 0.9097 0.0
C86 C 0.37261 0.59465 0.91081 0.0
C87 C 0.3074 0.51231 0.87589 0.0
C88 C 0.32381 0.56158 0.88517 0.0
C89 C 0.34057 0.49692 0.88476 0.0
C90 C 0.55404 0.73707 0.53031 0.0
C91 C 0.6309 0.72067 0.93565 0.0
C92 C 0.67286 0.88576 0.9388 0.0
C93 C 0.68459 0.93481 0.98957 0.0
C94 C 0.65104 0.94482 0.06374 0.0
C95 C 0.73013 0.97209 0.96412 0.0
C96 C 0.70876 0.02977 0.08343 0.0
C97 C 0.74219 0.01919 1.01078 0.0
C98 C 0.66304 0.99209 0.11012 0.0
C99 C 0.57104 0.75942 0.34892 0.0
O100 O 0.48201 0.73286 0.94476 0.0
O101 O 0.54055 0.81223 0.93355 0.0
O102 O 0.48094 0.62148 0.79813 0.0
O103 O 0.47118 0.64758 0.11539 0.0
O104 O 0.54091 0.69274 0.55802 0.0
O105 O 0.54797 0.75608 0.69635 0.0
O106 O 0.63979 0.76291 0.87192 0.0
O107 O 0.58941 0.69007 1.00109 0.0
O108 O 0.63953 0.86222 0.77342 0.0
O109 O 0.66926 0.86043 0.11223 0.0
O110 O 0.58326 0.80351 0.3196 0.0
O111 O 0.57841 0.74082 0.18553 0.0
H112 H 0.41368 0.51685 0.92064 0.0
H113 H 0.38479 0.63245 0.92259 0.0
H114 H 0.29913 0.57451 0.87794 0.0
H115 H 0.32934 0.45932 0.8756 0.0
H116 H 0.61567 0.91615 0.08478 0.0
H117 H 0.75637 0.96479 0.90732 0.0
H118 H 0.77769 0.04728 0.9877 0.0
H119 H 0.63652 -0.00093 0.16574 0.0
Gd120 Gd 0.83261 0.54586 0.19833 0.0
Gd121 Gd 0.80403 0.6222 0.19714 0.0
C122 C 0.7202 0.51485 0.1758 0.0
C123 C 0.84835 0.47763 0.29984 0.0
C124 C 0.82866 0.42588 0.27036 0.0
C125 C 0.85931 0.40975 0.22195 0.0
C126 C 0.78106 0.39256 0.29345 0.0
C127 C 0.79568 0.32737 0.22313 0.0
C128 C 0.76467 0.34352 0.27019 0.0
C129 C 0.84309 0.36115 0.1983 0.0
C130 C 0.82023 0.57438 0.79222 0.0
C131 C 0.91439 0.65294 0.18878 0.0
C132 C 0.78896 0.69108 0.10232 0.0
C133 C 0.74776 0.69683 0.05127 0.0
C134 C 0.75341 0.7373 0.94553 0.0
C135 C 0.70288 0.66228 0.10522 0.0
C136 C 0.67006 0.7105 0.96057 0.0
C137 C 0.66424 0.66909 0.06034 0.0
C138 C 0.71489 0.74413 0.90025 0.0
C139 C 0.81573 0.59236 0.60047 0.0
O140 O 0.75263 0.50191 0.21167 0.0
O141 O 0.73162 0.55921 0.13939 0.0
O142 O 0.86196 0.5017 0.12113 0.0
O143 O 0.82828 0.4932 0.42915 0.0
O144 O 0.85095 0.56117 0.84267 0.0
O145 O 0.79503 0.56782 0.94835 0.0
O146 O 0.8806 0.66303 0.13785 0.0
O147 O 0.90502 0.6109 0.25812 0.0
O148 O 0.79494 0.66602 0.95102 0.0
O149 O 0.79633 0.68114 0.30793 0.0
O150 O 0.78396 0.6042 0.54816 0.0
O151 O 0.84177 0.60014 0.44644 0.0
H152 H 0.89615 0.43493 0.2039 0.0
H153 H 0.75674 0.40434 0.33044 0.0
H154 H 0.72796 0.31841 0.29024 0.0
H155 H 0.86807 0.3502 0.16215 0.0
H156 H 0.7878 0.76398 0.90069 0.0
H157 H 0.69793 0.63049 0.18484 0.0
H158 H 0.63019 0.64252 0.10869 0.0
H159 H 0.72059 0.77632 0.82241 0.0
Gd160 Gd 0.17405 0.79906 0.83368 0.0
Gd161 Gd 0.27855 0.82827 0.89737 0.0
C162 C 0.25485 0.91121 0.91621 0.0
C163 C 0.09169 0.78688 0.88519 0.0
C164 C 0.04873 0.75328 0.98241 0.0
C165 C 0.01576 0.76708 1.01788 0.0
C166 C 0.0399 0.70783 0.03806 0.0
C167 C 0.96283 0.68862 0.14383 0.0
C168 C -0.00292 0.6756 0.11871 0.0
C169 C 0.9732 0.73511 0.0981 0.0
C170 C 0.21516 0.81179 0.4548 0.0
C171 C 0.19669 0.71526 0.83751 0.0
C172 C 0.36273 0.845 0.85059 0.0
C173 C 0.3949 0.82618 0.88493 0.0
C174 C 0.44342 0.85898 0.92665 0.0
C175 C 0.37878 0.77709 0.87232 0.0
C176 C 0.46037 0.79431 0.93252 0.0
C177 C 0.41142 0.7612 0.89628 0.0
C178 C 0.47585 0.8433 0.95038 0.0
C179 C 0.23756 0.81658 0.2767 0.0
O180 O 0.21078 0.87755 0.9336 0.0
O181 O 0.28681 0.90072 0.86284 0.0
O182 O 0.12922 0.81226 0.02827 0.0
O183 O 0.10072 0.77144 0.70469 0.0
O184 O 0.17116 0.78026 0.46696 0.0
O185 O 0.23387 0.83736 0.63328 0.0
O186 O 0.24132 0.74789 0.81569 0.0
O187 O 0.16553 0.72746 0.88478 0.0
O188 O 0.35196 0.85845 0.03109 0.0
O189 O 0.32716 0.82382 0.69237 0.0
O190 O 0.28162 0.84787 0.26396 0.0
O191 O 0.21894 0.79075 0.09916 0.0
H192 H 0.02244 0.8023 0.9783 0.0
H193 H 0.06549 0.69696 1.01371 0.0
H194 H -0.00998 0.64 0.15175 0.0
H195 H 0.94775 0.74643 0.11716 0.0
H196 H 0.45637 0.89698 0.93779 0.0
H197 H 0.34126 0.75125 0.84118 0.0
H198 H 0.3984 0.72324 0.88179 0.0
H199 H 0.51319 0.86985 0.97985 0.0
Gd200 Gd 0.37451 0.19008 0.07186 0.0
Gd201 Gd 0.45191 0.29535 0.12684 0.0
C202 C 0.34571 0.27052 0.10499 0.0
C203 C 0.30381 0.10545 0.10258 0.0
C204 C 0.29206 0.0564 0.05165 0.0
C205 C 0.32561 0.04638 0.97741 0.0
C206 C 0.24651 0.01912 0.07693 0.0
C207 C 0.26786 0.96144 0.95736 0.0
C208 C 0.23443 0.97202 0.03006 0.0
C209 C 0.3136 -0.00088 0.93082 0.0
C210 C 0.40536 0.23164 0.69144 0.0
C211 C 0.48077 0.21229 0.09861 0.0
C212 C 0.52008 0.37998 0.07089 0.0
C213 C 0.57132 0.41262 0.11468 0.0
C214 C 0.58768 0.46151 0.13049 0.0
C215 C 0.60396 0.39659 0.13052 0.0
C216 C 0.6692 0.47892 0.16462 0.0
C217 C 0.65277 0.42965 0.15598 0.0
C218 C 0.63603 0.49433 0.15524 0.0
C219 C 0.42237 0.254 0.51008 0.0
O220 O 0.33681 0.22827 0.16861 0.0
O221 O 0.3872 0.30113 0.03959 0.0
O222 O 0.33723 0.129 0.26759 0.0
O223 O 0.3073 0.13075 0.9292 0.0
O224 O 0.39315 0.18756 0.72093 0.0
O225 O 0.39821 0.25042 0.85496 0.0
O226 O 0.49462 0.25837 0.09576 0.0
O227 O 0.43609 0.17899 0.10668 0.0
O228 O 0.49572 0.36968 0.24339 0.0
O229 O 0.50536 0.34376 0.92533 0.0
O230 O 0.43549 0.29833 0.48256 0.0
O231 O 0.42866 0.23518 0.3441 0.0
H232 H 0.36099 0.07506 0.95647 0.0
H233 H 0.22028 0.02642 0.13375 0.0
H234 H 0.19893 0.94394 0.05302 0.0
H235 H 0.34011 0.99214 0.87517 0.0
H236 H 0.56293 0.47442 0.1192 0.0
H237 H 0.59177 0.35878 0.11927 0.0
H238 H 0.67744 0.4167 0.16362 0.0
H239 H 0.64727 0.53193 0.1639 0.0
loop_
_geom_bond_atom_site_label_1
_geom_bond_atom_site_label_2
_geom_bond_distance
_geom_bond_site_symmetry_2
_ccdc_geom_bond_type
Gd0 C3 2.818 . S
Gd0 O20 2.377 1_554 S
Gd0 O22 2.448 1_554 S
Gd0 O23 2.506 . S
Gd0 O24 2.435 1_554 S
Gd0 O25 2.717 1_554 S
Gd0 O27 2.395 1_554 S
Gd0 O31 2.327 . S
Gd1 C12 2.818 . S
Gd1 O21 2.395 1_556 S
Gd1 O25 2.327 . S
Gd1 O26 2.377 1_556 S
Gd1 O28 2.448 1_556 S
Gd1 O29 2.506 . S
Gd1 O30 2.435 1_556 S
Gd1 O31 2.717 1_556 S
C2 O20 1.240 1_554 S
C2 O21 1.240 . S
C3 Gd0 2.818 . S
C3 C4 1.510 . S
C3 O22 1.249 1_554 S
C3 O23 1.252 . S
C4 C3 1.510 . S
C4 C5 1.404 . S
C4 C6 1.352 . S
C5 C4 1.404 . S
C5 C9 1.389 . S
C5 H32 0.930 1_554 S
C6 C4 1.352 . S
C6 C8 1.374 . S
C6 H33 0.931 . S
C7 C8 1.359 . S
C7 C9 1.364 . S
C8 C6 1.374 . S
C8 C7 1.359 . S
C8 H34 0.931 . S
C9 C5 1.389 . S
C9 C7 1.364 . S
C9 H35 0.931 1_554 S
C10 O24 1.256 . S
C10 O25 1.257 . S
C11 O26 1.240 1_556 S
C11 O27 1.240 . S
C12 Gd1 2.818 . S
C12 C13 1.510 . S
C12 O28 1.249 1_556 S
C12 O29 1.252 . S
C13 C12 1.510 . S
C13 C14 1.404 . S
C13 C15 1.352 . S
C14 C13 1.404 . S
C14 C18 1.389 . S
C14 H36 0.930 1_556 S
C15 C13 1.352 . S
C15 C17 1.374 . S
C15 H37 0.931 . S
C16 C17 1.359 . S
C16 C18 1.364 . S
C17 C15 1.374 . S
C17 C16 1.359 . S
C17 H38 0.931 . S
C18 C14 1.389 . S
C18 C16 1.364 . S
C18 H39 0.931 1_556 S
C19 O30 1.256 . S
C19 O31 1.257 . S
O20 Gd0 2.377 1_556 S
O20 C2 1.240 1_556 S
O21 Gd1 2.395 1_554 S
O21 C2 1.240 . S
O22 Gd0 2.448 1_556 S
O22 C3 1.249 1_556 S
O23 Gd0 2.506 . S
O23 C3 1.252 . S
O24 Gd0 2.435 1_556 S
O24 C10 1.256 . S
O25 Gd0 2.717 1_556 S
O25 Gd1 2.327 . S
O25 C10 1.257 . S
O26 Gd1 2.377 1_554 S
O26 C11 1.240 1_554 S
O27 Gd0 2.395 1_556 S
O27 C11 1.240 . S
O28 Gd1 2.448 1_554 S
O28 C12 1.249 1_554 S
O29 Gd1 2.506 . S
O29 C12 1.252 . S
O30 Gd1 2.435 1_554 S
O30 C19 1.256 . S
O31 Gd0 2.327 . S
O31 Gd1 2.717 1_554 S
O31 C19 1.257 . S
H32 C5 0.930 1_556 S
H33 C6 0.931 . S
H34 C8 0.931 . S
H35 C9 0.931 1_556 S
H36 C14 0.930 1_554 S
H37 C15 0.931 . S
H38 C17 0.931 . S
H39 C18 0.931 1_554 S
Gd40 C43 2.818 1_556 S
Gd40 O60 2.377 . S
Gd40 O62 2.448 . S
Gd40 O63 2.506 1_556 S
Gd40 O64 2.435 . S
Gd40 O65 2.717 . S
Gd40 O67 2.395 . S
Gd40 O71 2.327 1_556 S
Gd41 C52 2.818 1_554 S
Gd41 O61 2.395 . S
Gd41 O65 2.327 1_554 S
Gd41 O66 2.377 . S
Gd41 O68 2.448 . S
Gd41 O69 2.506 1_554 S
Gd41 O70 2.435 . S
Gd41 O71 2.717 . S
C42 O60 1.240 1_554 S
C42 O61 1.240 . S
C43 Gd40 2.818 1_554 S
C43 C44 1.510 . S
C43 O62 1.249 1_554 S
C43 O63 1.252 . S
C44 C43 1.510 . S
C44 C45 1.404 1_554 S
C44 C46 1.352 . S
C45 C44 1.404 1_556 S
C45 C49 1.389 1_556 S
C45 H72 0.930 . S
C46 C44 1.352 . S
C46 C48 1.374 . S
C46 H73 0.931 . S
C47 C48 1.359 . S
C47 C49 1.364 . S
C48 C46 1.374 . S
C48 C47 1.359 . S
C48 H74 0.931 . S
C49 C45 1.389 1_554 S
C49 C47 1.364 . S
C49 H75 0.931 1_554 S
C50 O64 1.256 . S
C50 O65 1.257 . S
C51 O66 1.240 1_556 S
C51 O67 1.240 . S
C52 Gd41 2.818 1_556 S
C52 C53 1.510 1_655 S
C52 O68 1.249 1_556 S
C52 O69 1.252 . S
C53 C52 1.510 1_455 S
C53 C54 1.404 1_556 S
C53 C55 1.347 . S
C54 C53 1.404 1_554 S
C54 C58 1.389 1_554 S
C54 H76 0.930 . S
C55 C53 1.347 . S
C55 C57 1.392 . S
C55 H77 0.918 1_455 S
C56 C57 1.359 . S
C56 C58 1.364 . S
C57 C55 1.392 . S
C57 C56 1.359 . S
C57 H78 0.931 . S
C58 C54 1.389 1_556 S
C58 C56 1.364 . S
C58 H79 0.931 1_556 S
C59 O70 1.256 . S
C59 O71 1.257 . S
O60 Gd40 2.377 . S
O60 C42 1.240 1_556 S
O61 Gd41 2.395 . S
O61 C42 1.240 . S
O62 Gd40 2.448 . S
O62 C43 1.249 1_556 S
O63 Gd40 2.506 1_554 S
O63 C43 1.252 . S
O64 Gd40 2.435 . S
O64 C50 1.256 . S
O65 Gd40 2.717 . S
O65 Gd41 2.327 1_556 S
O65 C50 1.257 . S
O66 Gd41 2.377 . S
O66 C51 1.240 1_554 S
O67 Gd40 2.395 . S
O67 C51 1.240 . S
O68 Gd41 2.448 . S
O68 C52 1.249 1_554 S
O69 Gd41 2.506 1_556 S
O69 C52 1.252 . S
O70 Gd41 2.435 . S
O70 C59 1.256 . S
O71 Gd40 2.327 1_554 S
O71 Gd41 2.717 . S
O71 C59 1.257 . S
H72 C45 0.930 . S
H73 C46 0.931 . S
H74 C48 0.931 . S
H75 C49 0.931 1_556 S
H76 C54 0.930 . S
H77 C55 0.918 1_655 S
H78 C57 0.931 . S
H79 C58 0.931 1_554 S
Gd80 C83 2.818 . S
Gd80 O100 2.377 . S
Gd80 O102 2.448 . S
Gd80 O103 2.506 1_556 S
Gd80 O104 2.435 . S
Gd80 O105 2.717 . S
Gd80 O107 2.395 1_556 S
Gd80 O111 2.327 1_556 S
Gd81 C92 2.818 . S
Gd81 O101 2.395 1_554 S
Gd81 O105 2.327 1_554 S
Gd81 O106 2.377 . S
Gd81 O108 2.448 . S
Gd81 O109 2.506 1_554 S
Gd81 O110 2.435 . S
Gd81 O111 2.717 . S
C82 O100 1.240 . S
C82 O101 1.240 . S
C83 Gd80 2.818 . S
C83 C84 1.510 . S
C83 O102 1.249 . S
C83 O103 1.252 1_556 S
C84 C83 1.510 . S
C84 C85 1.404 . S
C84 C86 1.352 1_556 S
C85 C84 1.404 . S
C85 C89 1.389 . S
C85 H112 0.930 . S
C86 C84 1.352 1_554 S
C86 C88 1.374 . S
C86 H113 0.931 . S
C87 C88 1.359 1_556 S
C87 C89 1.364 . S
C88 C86 1.374 . S
C88 C87 1.359 1_554 S
C88 H114 0.931 . S
C89 C85 1.389 . S
C89 C87 1.364 . S
C89 H115 0.931 . S
C90 O104 1.256 . S
C90 O105 1.257 . S
C91 O106 1.240 . S
C91 O107 1.240 . S
C92 Gd81 2.818 . S
C92 C93 1.510 . S
C92 O108 1.249 . S
C92 O109 1.252 1_554 S
C93 C92 1.510 . S
C93 C94 1.404 1_565 S
C93 C95 1.352 1_554 S
C94 C93 1.404 1_545 S
C94 C98 1.389 . S
C94 H116 0.930 . S
C95 C93 1.352 1_556 S
C95 C97 1.374 1_565 S
C95 H117 0.931 . S
C96 C97 1.359 1_554 S
C96 C98 1.364 . S
C97 C95 1.374 1_545 S
C97 C96 1.359 1_556 S
C97 H118 0.931 . S
C98 C94 1.389 . S
C98 C96 1.364 . S
C98 H119 0.931 . S
C99 O110 1.256 . S
C99 O111 1.257 . S
O100 Gd80 2.377 . S
O100 C82 1.240 . S
O101 Gd81 2.395 1_556 S
O101 C82 1.240 . S
O102 Gd80 2.448 . S
O102 C83 1.249 . S
O103 Gd80 2.506 1_554 S
O103 C83 1.252 1_554 S
O104 Gd80 2.435 . S
O104 C90 1.256 . S
O105 Gd80 2.717 . S
O105 Gd81 2.327 1_556 S
O105 C90 1.257 . S
O106 Gd81 2.377 . S
O106 C91 1.240 . S
O107 Gd80 2.395 1_554 S
O107 C91 1.240 . S
O108 Gd81 2.448 . S
O108 C92 1.249 . S
O109 Gd81 2.506 1_556 S
O109 C92 1.252 1_556 S
O110 Gd81 2.435 . S
O110 C99 1.256 . S
O111 Gd80 2.327 1_554 S
O111 Gd81 2.717 . S
O111 C99 1.257 . S
H112 C85 0.930 . S
H113 C86 0.931 . S
H114 C88 0.931 . S
H115 C89 0.931 . S
H116 C94 0.930 . S
H117 C95 0.931 . S
H118 C97 0.931 . S
H119 C98 0.931 . S
Gd120 C123 2.818 . S
Gd120 O140 2.377 1_554 S
Gd120 O142 2.448 1_554 S
Gd120 O143 2.506 . S
Gd120 O144 2.435 1_554 S
Gd120 O145 2.717 1_554 S
Gd120 O147 2.395 1_554 S
Gd120 O151 2.327 . S
Gd121 C132 2.818 . S
Gd121 O141 2.395 1_556 S
Gd121 O145 2.327 . S
Gd121 O146 2.377 1_556 S
Gd121 O148 2.448 1_556 S
Gd121 O149 2.506 . S
Gd121 O150 2.435 1_556 S
Gd121 O151 2.717 1_556 S
C122 O140 1.240 1_554 S
C122 O141 1.240 . S
C123 Gd120 2.818 . S
C123 C124 1.510 . S
C123 O142 1.249 1_554 S
C123 O143 1.252 . S
C124 C123 1.510 . S
C124 C125 1.404 . S
C124 C126 1.352 . S
C125 C124 1.404 . S
C125 C129 1.389 . S
C125 H152 0.930 1_554 S
C126 C124 1.352 . S
C126 C128 1.374 . S
C126 H153 0.931 . S
C127 C128 1.359 . S
C127 C129 1.364 . S
C128 C126 1.374 . S
C128 C127 1.359 . S
C128 H154 0.931 . S
C129 C125 1.389 . S
C129 C127 1.364 . S
C129 H155 0.931 1_554 S
C130 O144 1.256 . S
C130 O145 1.257 . S
C131 O146 1.240 1_556 S
C131 O147 1.240 . S
C132 Gd121 2.818 . S
C132 C133 1.510 . S
C132 O148 1.249 1_556 S
C132 O149 1.252 . S
C133 C132 1.510 . S
C133 C134 1.404 . S
C133 C135 1.352 . S
C134 C133 1.404 . S
C134 C138 1.389 . S
C134 H156 0.930 1_556 S
C135 C133 1.352 . S
C135 C137 1.374 . S
C135 H157 0.931 . S
C136 C137 1.359 . S
C136 C138 1.364 . S
C137 C135 1.374 . S
C137 C136 1.359 . S
C137 H158 0.931 . S
C138 C134 1.389 . S
C138 C136 1.364 . S
C138 H159 0.931 1_556 S
C139 O150 1.256 . S
C139 O151 1.257 . S
O140 Gd120 2.377 1_556 S
O140 C122 1.240 1_556 S
O141 Gd121 2.395 1_554 S
O141 C122 1.240 . S
O142 Gd120 2.448 1_556 S
O142 C123 1.249 1_556 S
O143 Gd120 2.506 . S
O143 C123 1.252 . S
O144 Gd120 2.435 1_556 S
O144 C130 1.256 . S
O145 Gd120 2.717 1_556 S
O145 Gd121 2.327 . S
O145 C130 1.257 . S
O146 Gd121 2.377 1_554 S
O146 C131 1.240 1_554 S
O147 Gd120 2.395 1_556 S
O147 C131 1.240 . S
O148 Gd121 2.448 1_554 S
O148 C132 1.249 1_554 S
O149 Gd121 2.506 . S
O149 C132 1.252 . S
O150 Gd121 2.435 1_554 S
O150 C139 1.256 . S
O151 Gd120 2.327 . S
O151 Gd121 2.717 1_554 S
O151 C139 1.257 . S
H152 C125 0.930 1_556 S
H153 C126 0.931 . S
H154 C128 0.931 . S
H155 C129 0.931 1_556 S
H156 C134 0.930 1_554 S
H157 C135 0.931 . S
H158 C137 0.931 . S
H159 C138 0.931 1_554 S
Gd160 C163 2.818 1_556 S
Gd160 O180 2.377 . S
Gd160 O182 2.448 . S
Gd160 O183 2.506 1_556 S
Gd160 O184 2.435 . S
Gd160 O185 2.717 . S
Gd160 O187 2.395 . S
Gd160 O191 2.327 1_556 S
Gd161 C172 2.818 1_554 S
Gd161 O181 2.395 . S
Gd161 O185 2.327 1_554 S
Gd161 O186 2.377 . S
Gd161 O188 2.448 . S
Gd161 O189 2.506 1_554 S
Gd161 O190 2.435 . S
Gd161 O191 2.717 . S
C162 O180 1.240 1_554 S
C162 O181 1.240 . S
C163 Gd160 2.818 1_554 S
C163 C164 1.510 1_455 S
C163 O182 1.249 1_554 S
C163 O183 1.252 . S
C164 C163 1.510 1_655 S
C164 C165 1.404 1_554 S
C164 C166 1.347 . S
C165 C164 1.404 1_556 S
C165 C169 1.389 1_556 S
C165 H192 0.930 . S
C166 C164 1.347 . S
C166 C168 1.391 . S
C166 H193 0.918 1_655 S
C167 C168 1.359 . S
C167 C169 1.364 . S
C168 C166 1.391 . S
C168 C167 1.359 . S
C168 H194 0.931 . S
C169 C165 1.389 1_554 S
C169 C167 1.364 . S
C169 H195 0.931 1_554 S
C170 O184 1.256 . S
C170 O185 1.257 . S
C171 O186 1.240 1_556 S
C171 O187 1.240 . S
C172 Gd161 2.818 1_556 S
C172 C173 1.510 . S
C172 O188 1.249 1_556 S
C172 O189 1.252 . S
C173 C172 1.510 . S
C173 C174 1.404 1_556 S
C173 C175 1.352 . S
C174 C173 1.404 1_554 S
C174 C178 1.389 1_554 S
C174 H196 0.930 . S
C175 C173 1.352 . S
C175 C177 1.374 . S
C175 H197 0.931 . S
C176 C177 1.359 . S
C176 C178 1.364 . S
C177 C175 1.374 . S
C177 C176 1.359 . S
C177 H198 0.931 . S
C178 C174 1.389 1_556 S
C178 C176 1.364 . S
C178 H199 0.931 1_556 S
C179 O190 1.256 . S
C179 O191 1.257 . S
O180 Gd160 2.377 . S
O180 C162 1.240 1_556 S
O181 Gd161 2.395 . S
O181 C162 1.240 . S
O182 Gd160 2.448 . S
O182 C163 1.249 1_556 S
O183 Gd160 2.506 1_554 S
O183 C163 1.252 . S
O184 Gd160 2.435 . S
O184 C170 1.256 . S
O185 Gd160 2.717 . S
O185 Gd161 2.327 1_556 S
O185 C170 1.257 . S
O186 Gd161 2.377 . S
O186 C171 1.240 1_554 S
O187 Gd160 2.395 . S
O187 C171 1.240 . S
O188 Gd161 2.448 . S
O188 C172 1.249 1_554 S
O189 Gd161 2.506 1_556 S
O189 C172 1.252 . S
O190 Gd161 2.435 . S
O190 C179 1.256 . S
O191 Gd160 2.327 1_554 S
O191 Gd161 2.717 . S
O191 C179 1.257 . S
H192 C165 0.930 . S
H193 C166 0.918 1_455 S
H194 C168 0.931 . S
H195 C169 0.931 1_556 S
H196 C174 0.930 . S
H197 C175 0.931 . S
H198 C177 0.931 . S
H199 C178 0.931 1_554 S
Gd200 C203 2.818 . S
Gd200 O220 2.377 . S
Gd200 O222 2.448 . S
Gd200 O223 2.506 1_556 S
Gd200 O224 2.435 . S
Gd200 O225 2.717 . S
Gd200 O227 2.395 1_556 S
Gd200 O231 2.327 1_556 S
Gd201 C212 2.818 . S
Gd201 O221 2.395 1_554 S
Gd201 O225 2.327 1_554 S
Gd201 O226 2.377 . S
Gd201 O228 2.448 . S
Gd201 O229 2.506 1_554 S
Gd201 O230 2.435 . S
Gd201 O231 2.717 . S
C202 O220 1.240 . S
C202 O221 1.240 . S
C203 Gd200 2.818 . S
C203 C204 1.510 . S
C203 O222 1.249 . S
C203 O223 1.252 1_556 S
C204 C203 1.510 . S
C204 C205 1.404 1_545 S
C204 C206 1.352 1_556 S
C205 C204 1.404 1_565 S
C205 C209 1.389 . S
C205 H232 0.930 . S
C206 C204 1.352 1_554 S
C206 C208 1.374 1_545 S
C206 H233 0.931 . S
C207 C208 1.359 1_556 S
C207 C209 1.364 . S
C208 C206 1.374 1_565 S
C208 C207 1.359 1_554 S
C208 H234 0.931 . S
C209 C205 1.389 . S
C209 C207 1.364 . S
C209 H235 0.931 . S
C210 O224 1.256 . S
C210 O225 1.257 . S
C211 O226 1.240 . S
C211 O227 1.240 . S
C212 Gd201 2.818 . S
C212 C213 1.510 . S
C212 O228 1.249 . S
C212 O229 1.252 1_554 S
C213 C212 1.510 . S
C213 C214 1.404 . S
C213 C215 1.352 1_554 S
C214 C213 1.404 . S
C214 C218 1.389 . S
C214 H236 0.930 . S
C215 C213 1.352 1_556 S
C215 C217 1.374 . S
C215 H237 0.931 . S
C216 C217 1.359 1_554 S
C216 C218 1.364 . S
C217 C215 1.374 . S
C217 C216 1.359 1_556 S
C217 H238 0.931 . S
C218 C214 1.389 . S
C218 C216 1.364 . S
C218 H239 0.931 . S
C219 O230 1.256 . S
C219 O231 1.257 . S
O220 Gd200 2.377 . S
O220 C202 1.240 . S
O221 Gd201 2.395 1_556 S
O221 C202 1.240 . S
O222 Gd200 2.448 . S
O222 C203 1.249 . S
O223 Gd200 2.506 1_554 S
O223 C203 1.252 1_554 S
O224 Gd200 2.435 . S
O224 C210 1.256 . S
O225 Gd200 2.717 . S
O225 Gd201 2.327 1_556 S
O225 C210 1.257 . S
O226 Gd201 2.377 . S
O226 C211 1.240 . S
O227 Gd200 2.395 1_554 S
O227 C211 1.240 . S
O228 Gd201 2.448 . S
O228 C212 1.249 . S
O229 Gd201 2.506 1_556 S
O229 C212 1.252 1_556 S
O230 Gd201 2.435 . S
O230 C219 1.256 . S
O231 Gd200 2.327 1_554 S
O231 Gd201 2.717 . S
O231 C219 1.257 . S
H232 C205 0.930 . S
H233 C206 0.931 . S
H234 C208 0.931 . S
H235 C209 0.931 . S
H236 C214 0.930 . S
H237 C215 0.931 . S
H238 C217 0.931 . S
H239 C218 0.931 . S
C202 C7 4.870 1_556 S
C2 C56 3.434 1_554 S
C51 C96 3.428 1_556 S
C136 C91 4.870 1_556 S
C167 C131 3.434 1_554 S
C162 C207 3.428 1_554 S
C171 C16 2.670 . S
C211 C47 2.401 . S
C87 C11 2.338 . S
C127 C42 2.670 . S
C176 C82 2.401 . S
C122 C216 2.338 . S
C10 C19 1.656 . S
C50 C59 1.689 . S
C90 C99 1.326 . S
C130 C139 1.656 . S
C179 C170 1.689 . S
C210 C219 1.326 . S
