# Generated by pormake.
# Topology wgq, (5)-cn, num edge types: 1
# Building blocks:
#     Node 0, Type 0, BuildingBlock: BEQFEK_clean_sbu_0, # of connection points: 5
#     Node 1, Type 0, BuildingBlock: BEQFEK_clean_sbu_0, # of connection points: 5
#     Node 2, Type 0, BuildingBlock: BEQFEK_clean_sbu_0, # of connection points: 5
#     Node 3, Type 0, BuildingBlock: BEQFEK_clean_sbu_0, # of connection points: 5
#     Node 4, Type 0, BuildingBlock: BEQFEK_clean_sbu_0, # of connection points: 5
#     Node 5, Type 0, BuildingBlock: BEQFEK_clean_sbu_0, # of connection points: 5
#     Node 6, Type 0, BuildingBlock: BEQFEK_clean_sbu_0, # of connection points: 5
#     Node 7, Type 0, BuildingBlock: BEQFEK_clean_sbu_0, # of connection points: 5
#     Node 8, Type 0, BuildingBlock: BEQFEK_clean_sbu_0, # of connection points: 5
#     Node 9, Type 0, BuildingBlock: BEQFEK_clean_sbu_0, # of connection points: 5
#     Node 10, Type 0, BuildingBlock: BEQFEK_clean_sbu_0, # of connection points: 5
#     Node 11, Type 0, BuildingBlock: BEQFEK_clean_sbu_0, # of connection points: 5
#     Node 12, Type 0, BuildingBlock: BEQFEK_clean_sbu_0, # of connection points: 5
#     Node 13, Type 0, BuildingBlock: BEQFEK_clean_sbu_0, # of connection points: 5
#     Node 14, Type 0, BuildingBlock: BEQFEK_clean_sbu_0, # of connection points: 5
#     Node 15, Type 0, BuildingBlock: BEQFEK_clean_sbu_0, # of connection points: 5
#     Node 16, Type 0, BuildingBlock: BEQFEK_clean_sbu_0, # of connection points: 5
#     Node 17, Type 0, BuildingBlock: BEQFEK_clean_sbu_0, # of connection points: 5
#     Node 18, Type 0, BuildingBlock: BEQFEK_clean_sbu_0, # of connection points: 5
#     Node 19, Type 0, BuildingBlock: BEQFEK_clean_sbu_0, # of connection points: 5
#     Node 20, Type 0, BuildingBlock: BEQFEK_clean_sbu_0, # of connection points: 5
#     Node 21, Type 0, BuildingBlock: BEQFEK_clean_sbu_0, # of connection points: 5
#     Node 22, Type 0, BuildingBlock: BEQFEK_clean_sbu_0, # of connection points: 5
#     Node 23, Type 0, BuildingBlock: BEQFEK_clean_sbu_0, # of connection points: 5
#     Node 24, Type 0, BuildingBlock: BEQFEK_clean_sbu_0, # of connection points: 5
#     Node 25, Type 0, BuildingBlock: BEQFEK_clean_sbu_0, # of connection points: 5
#     Node 26, Type 0, BuildingBlock: BEQFEK_clean_sbu_0, # of connection points: 5
#     Node 27, Type 0, BuildingBlock: BEQFEK_clean_sbu_0, # of connection points: 5
#     Node 28, Type 0, BuildingBlock: BEQFEK_clean_sbu_0, # of connection points: 5
#     Node 29, Type 0, BuildingBlock: BEQFEK_clean_sbu_0, # of connection points: 5
#     Node 30, Type 0, BuildingBlock: BEQFEK_clean_sbu_0, # of connection points: 5
#     Node 31, Type 0, BuildingBlock: BEQFEK_clean_sbu_0, # of connection points: 5
#     Edge 32, Type (0, 0), BuildingBlock: KIFKEQ_clean_linker_1, # of connection points: 2
#     Edge 33, Type (0, 0), BuildingBlock: KIFKEQ_clean_linker_1, # of connection points: 2
#     Edge 34, Type (0, 0), BuildingBlock: KIFKEQ_clean_linker_1, # of connection points: 2
#     Edge 35, Type (0, 0), BuildingBlock: KIFKEQ_clean_linker_1, # of connection points: 2
#     Edge 36, Type (0, 0), BuildingBlock: KIFKEQ_clean_linker_1, # of connection points: 2
#     Edge 37, Type (0, 0), BuildingBlock: KIFKEQ_clean_linker_1, # of connection points: 2
#     Edge 38, Type (0, 0), BuildingBlock: KIFKEQ_clean_linker_1, # of connection points: 2
#     Edge 39, Type (0, 0), BuildingBlock: KIFKEQ_clean_linker_1, # of connection points: 2
#     Edge 40, Type (0, 0), BuildingBlock: KIFKEQ_clean_linker_1, # of connection points: 2
#     Edge 41, Type (0, 0), BuildingBlock: KIFKEQ_clean_linker_1, # of connection points: 2
#     Edge 42, Type (0, 0), BuildingBlock: KIFKEQ_clean_linker_1, # of connection points: 2
#     Edge 43, Type (0, 0), BuildingBlock: KIFKEQ_clean_linker_1, # of connection points: 2
#     Edge 44, Type (0, 0), BuildingBlock: KIFKEQ_clean_linker_1, # of connection points: 2
#     Edge 45, Type (0, 0), BuildingBlock: KIFKEQ_clean_linker_1, # of connection points: 2
#     Edge 46, Type (0, 0), BuildingBlock: KIFKEQ_clean_linker_1, # of connection points: 2
#     Edge 47, Type (0, 0), BuildingBlock: KIFKEQ_clean_linker_1, # of connection points: 2
#     Edge 48, Type (0, 0), BuildingBlock: KIFKEQ_clean_linker_1, # of connection points: 2
#     Edge 49, Type (0, 0), BuildingBlock: KIFKEQ_clean_linker_1, # of connection points: 2
#     Edge 50, Type (0, 0), BuildingBlock: KIFKEQ_clean_linker_1, # of connection points: 2
#     Edge 51, Type (0, 0), BuildingBlock: KIFKEQ_clean_linker_1, # of connection points: 2
#     Edge 52, Type (0, 0), BuildingBlock: KIFKEQ_clean_linker_1, # of connection points: 2
#     Edge 53, Type (0, 0), BuildingBlock: KIFKEQ_clean_linker_1, # of connection points: 2
#     Edge 54, Type (0, 0), BuildingBlock: KIFKEQ_clean_linker_1, # of connection points: 2
#     Edge 55, Type (0, 0), BuildingBlock: KIFKEQ_clean_linker_1, # of connection points: 2
#     Edge 56, Type (0, 0), BuildingBlock: KIFKEQ_clean_linker_1, # of connection points: 2
#     Edge 57, Type (0, 0), BuildingBlock: KIFKEQ_clean_linker_1, # of connection points: 2
#     Edge 58, Type (0, 0), BuildingBlock: KIFKEQ_clean_linker_1, # of connection points: 2
#     Edge 59, Type (0, 0), BuildingBlock: KIFKEQ_clean_linker_1, # of connection points: 2
#     Edge 60, Type (0, 0), BuildingBlock: KIFKEQ_clean_linker_1, # of connection points: 2
#     Edge 61, Type (0, 0), BuildingBlock: KIFKEQ_clean_linker_1, # of connection points: 2
#     Edge 62, Type (0, 0), BuildingBlock: KIFKEQ_clean_linker_1, # of connection points: 2
#     Edge 63, Type (0, 0), BuildingBlock: KIFKEQ_clean_linker_1, # of connection points: 2
#     Edge 64, Type (0, 0), BuildingBlock: KIFKEQ_clean_linker_1, # of connection points: 2
#     Edge 65, Type (0, 0), BuildingBlock: KIFKEQ_clean_linker_1, # of connection points: 2
#     Edge 66, Type (0, 0), BuildingBlock: KIFKEQ_clean_linker_1, # of connection points: 2
#     Edge 67, Type (0, 0), BuildingBlock: KIFKEQ_clean_linker_1, # of connection points: 2
#     Edge 68, Type (0, 0), BuildingBlock: KIFKEQ_clean_linker_1, # of connection points: 2
#     Edge 69, Type (0, 0), BuildingBlock: KIFKEQ_clean_linker_1, # of connection points: 2
#     Edge 70, Type (0, 0), BuildingBlock: KIFKEQ_clean_linker_1, # of connection points: 2
#     Edge 71, Type (0, 0), BuildingBlock: KIFKEQ_clean_linker_1, # of connection points: 2
#     Edge 72, Type (0, 0), BuildingBlock: KIFKEQ_clean_linker_1, # of connection points: 2
#     Edge 73, Type (0, 0), BuildingBlock: KIFKEQ_clean_linker_1, # of connection points: 2
#     Edge 74, Type (0, 0), BuildingBlock: KIFKEQ_clean_linker_1, # of connection points: 2
#     Edge 75, Type (0, 0), BuildingBlock: KIFKEQ_clean_linker_1, # of connection points: 2
#     Edge 76, Type (0, 0), BuildingBlock: KIFKEQ_clean_linker_1, # of connection points: 2
#     Edge 77, Type (0, 0), BuildingBlock: KIFKEQ_clean_linker_1, # of connection points: 2
#     Edge 78, Type (0, 0), BuildingBlock: KIFKEQ_clean_linker_1, # of connection points: 2
#     Edge 79, Type (0, 0), BuildingBlock: KIFKEQ_clean_linker_1, # of connection points: 2
#     Edge 80, Type (0, 0), BuildingBlock: KIFKEQ_clean_linker_1, # of connection points: 2
#     Edge 81, Type (0, 0), BuildingBlock: KIFKEQ_clean_linker_1, # of connection points: 2
#     Edge 82, Type (0, 0), BuildingBlock: KIFKEQ_clean_linker_1, # of connection points: 2
#     Edge 83, Type (0, 0), BuildingBlock: KIFKEQ_clean_linker_1, # of connection points: 2
#     Edge 84, Type (0, 0), BuildingBlock: KIFKEQ_clean_linker_1, # of connection points: 2
#     Edge 85, Type (0, 0), BuildingBlock: KIFKEQ_clean_linker_1, # of connection points: 2
#     Edge 86, Type (0, 0), BuildingBlock: KIFKEQ_clean_linker_1, # of connection points: 2
#     Edge 87, Type (0, 0), BuildingBlock: KIFKEQ_clean_linker_1, # of connection points: 2
#     Edge 88, Type (0, 0), BuildingBlock: KIFKEQ_clean_linker_1, # of connection points: 2
#     Edge 89, Type (0, 0), BuildingBlock: KIFKEQ_clean_linker_1, # of connection points: 2
#     Edge 90, Type (0, 0), BuildingBlock: KIFKEQ_clean_linker_1, # of connection points: 2
#     Edge 91, Type (0, 0), BuildingBlock: KIFKEQ_clean_linker_1, # of connection points: 2
#     Edge 92, Type (0, 0), BuildingBlock: KIFKEQ_clean_linker_1, # of connection points: 2
#     Edge 93, Type (0, 0), BuildingBlock: KIFKEQ_clean_linker_1, # of connection points: 2
#     Edge 94, Type (0, 0), BuildingBlock: KIFKEQ_clean_linker_1, # of connection points: 2
#     Edge 95, Type (0, 0), BuildingBlock: KIFKEQ_clean_linker_1, # of connection points: 2
#     Edge 96, Type (0, 0), BuildingBlock: KIFKEQ_clean_linker_1, # of connection points: 2
#     Edge 97, Type (0, 0), BuildingBlock: KIFKEQ_clean_linker_1, # of connection points: 2
#     Edge 98, Type (0, 0), BuildingBlock: KIFKEQ_clean_linker_1, # of connection points: 2
#     Edge 99, Type (0, 0), BuildingBlock: KIFKEQ_clean_linker_1, # of connection points: 2
#     Edge 100, Type (0, 0), BuildingBlock: KIFKEQ_clean_linker_1, # of connection points: 2
#     Edge 101, Type (0, 0), BuildingBlock: KIFKEQ_clean_linker_1, # of connection points: 2
#     Edge 102, Type (0, 0), BuildingBlock: KIFKEQ_clean_linker_1, # of connection points: 2
#     Edge 103, Type (0, 0), BuildingBlock: KIFKEQ_clean_linker_1, # of connection points: 2
#     Edge 104, Type (0, 0), BuildingBlock: KIFKEQ_clean_linker_1, # of connection points: 2
#     Edge 105, Type (0, 0), BuildingBlock: KIFKEQ_clean_linker_1, # of connection points: 2
#     Edge 106, Type (0, 0), BuildingBlock: KIFKEQ_clean_linker_1, # of connection points: 2
#     Edge 107, Type (0, 0), BuildingBlock: KIFKEQ_clean_linker_1, # of connection points: 2
#     Edge 108, Type (0, 0), BuildingBlock: KIFKEQ_clean_linker_1, # of connection points: 2
#     Edge 109, Type (0, 0), BuildingBlock: KIFKEQ_clean_linker_1, # of connection points: 2
#     Edge 110, Type (0, 0), BuildingBlock: KIFKEQ_clean_linker_1, # of connection points: 2
#     Edge 111, Type (0, 0), BuildingBlock: KIFKEQ_clean_linker_1, # of connection points: 2
# Relax obj value: 0.087
# Max RMSD: 0.133
# Mean RMSD: 0.133
data_MOF--net-wgq--node1-BEQFEK_clean_sbu_0--edge1-KIFKEQ_clean_linker_1
_symmetry_space_group_name_H-M    P1
_symmetry_Int_Tables_number       1
_symmetry_cell_setting            triclinic
loop_
_symmetry_equiv_pos_as_xyz
'x, y, z'
_cell_length_a     31.111427
_cell_length_b     31.089519
_cell_length_c     156.53767
_cell_angle_alpha  90.00002
_cell_angle_beta   90.011794
_cell_angle_gamma 90.004721
loop_
_atom_site_label
_atom_site_type_symbol
_atom_site_fract_x
_atom_site_fract_y
_atom_site_fract_z
_atom_type_partial_charge
Co0 Co 0.14778 0.06579 0.17214 0.0
Co1 Co 0.14872 0.06348 0.19217 0.0
C2 C 0.08724 0.00897 0.18246 0.0
O3 O 0.10173 0.02321 0.17535 0.0
O4 O 0.10432 0.01988 0.18954 0.0
C5 C 0.15194 0.03519 0.15446 0.0
O6 O 0.13652 0.9985 0.15728 0.0
C7 C 0.15315 0.03916 0.21039 0.0
C8 C 0.17955 0.0989 0.21598 0.0
C9 C 0.16595 0.05779 0.21805 0.0
N10 N 0.15893 0.06809 0.20411 0.0
N11 N 0.17448 0.10375 0.20751 0.0
C12 C 0.13888 0.99384 0.20889 0.0
H13 H 0.14824 0.98328 0.20238 0.0
H14 H 0.15309 0.97179 0.2137 0.0
H15 H 0.10334 0.99226 0.20939 0.0
C16 C 0.24193 0.05485 0.17501 0.0
N17 N 0.20109 0.05716 0.17789 0.0
N18 N 0.20127 0.05449 0.18627 0.0
C19 C 0.24211 0.04931 0.18899 0.0
C20 C 0.26952 0.04979 0.18196 0.0
C21 C 0.25425 0.06142 0.16586 0.0
H22 H 0.23565 0.08861 0.16315 0.0
H23 H 0.24613 0.03205 0.16217 0.0
H24 H 0.28902 0.06839 0.16515 0.0
O25 O 0.12297 0.12257 0.17486 0.0
O26 O 0.12162 0.11858 0.18899 0.0
H27 H 0.25504 0.07393 0.20147 0.0
H28 H 0.28656 0.02724 0.19868 0.0
C29 C 0.25443 0.04246 0.19813 0.0
H30 H 0.23045 0.02152 0.2013 0.0
H31 H 0.18207 0.1313 0.20401 0.0
O32 O 0.15799 0.06597 0.15965 0.0
C33 C 0.11271 0.13819 0.18209 0.0
Co34 Co 0.18163 0.89902 0.42266 0.0
Co35 Co 0.18821 0.90011 0.44267 0.0
C36 C 0.24112 0.83917 0.43249 0.0
O37 O 0.22509 0.85373 0.42555 0.0
O38 O 0.23172 0.85596 0.43969 0.0
C39 C 0.20921 0.91648 0.40516 0.0
O40 O 0.24796 0.92239 0.40828 0.0
C41 C 0.21297 0.90459 0.46105 0.0
C42 C 0.15168 0.92775 0.46654 0.0
C43 C 0.19303 0.91551 0.4687 0.0
N44 N 0.18461 0.91054 0.45466 0.0
N45 N 0.14815 0.92441 0.45801 0.0
C46 C 0.25712 0.88644 0.45986 0.0
H47 H 0.25688 0.86166 0.45479 0.0
H48 H 0.27915 0.91261 0.45784 0.0
H49 H 0.26942 0.87185 0.46584 0.0
C50 C 0.19177 0.99361 0.4254 0.0
N51 N 0.19078 0.95266 0.42827 0.0
N52 N 0.1952 0.95283 0.43662 0.0
C53 C 0.20025 0.99378 0.43931 0.0
C54 C 0.19798 0.02115 0.43229 0.0
C55 C 0.18252 0.00641 0.41636 0.0
H56 H 0.15803 0.98471 0.41356 0.0
H57 H 0.21246 0.00385 0.41255 0.0
H58 H 0.17067 0.04002 0.41599 0.0
O59 O 0.1259 0.87408 0.42588 0.0
O60 O 0.13285 0.87223 0.43995 0.0
H61 H 0.17725 0.0063 0.45192 0.0
H62 H 0.22285 0.03873 0.44886 0.0
C63 C 0.20821 0.00627 0.44841 0.0
H64 H 0.22997 0.98261 0.45146 0.0
H65 H 0.12061 0.9312 0.45445 0.0
O66 O 0.17859 0.90659 0.41015 0.0
C67 C 0.11185 0.8635 0.4332 0.0
Co68 Co 0.35738 0.94028 0.67232 0.0
Co69 Co 0.36025 0.9251 0.69213 0.0
C70 C 0.42091 0.98688 0.683 0.0
O71 O 0.40319 0.98147 0.67572 0.0
O72 O 0.40664 0.96786 0.68965 0.0
C73 C 0.35657 0.97251 0.65474 0.0
O74 O 0.38309 0.00278 0.65729 0.0
C75 C 0.35201 0.9476 0.7104 0.0
C76 C 0.35138 0.88311 0.71633 0.0
C77 C 0.34972 0.92661 0.71825 0.0
N78 N 0.35462 0.91776 0.70419 0.0
N79 N 0.35417 0.87933 0.70779 0.0
C80 C 0.35402 0.99497 0.70874 0.0
H81 H 0.36773 1.00159 0.70235 0.0
H82 H 0.32101 0.00842 0.70889 0.0
H83 H 0.37355 0.01127 0.71372 0.0
C84 C 0.26493 0.95264 0.67625 0.0
N85 N 0.30585 0.946 0.67876 0.0
N86 N 0.30647 0.93865 0.68703 0.0
C87 C 0.26576 0.93956 0.69002 0.0
C88 C 0.2379 0.94844 0.68328 0.0
C89 C 0.25228 0.96351 0.66728 0.0
H90 H 0.27504 0.98747 0.66462 0.0
H91 H 0.21927 0.97689 0.66696 0.0
H92 H 0.254 0.93406 0.66329 0.0
O93 O 0.38373 0.88259 0.67368 0.0
O94 O 0.3826 0.87044 0.68764 0.0
H95 H 0.2188 0.92078 0.69956 0.0
H96 H 0.26196 0.95479 0.7033 0.0
C97 C 0.25362 0.9278 0.69898 0.0
H98 H 0.27203 0.89909 0.70103 0.0
H99 H 0.3561 0.85044 0.70441 0.0
O100 O 0.3432 0.94471 0.66005 0.0
C101 C 0.3921 0.85877 0.68008 0.0
Co102 Co 0.30788 0.10099 0.922 0.0
Co103 Co 0.32012 0.10081 0.94193 0.0
C104 C 0.25888 0.16191 0.93328 0.0
O105 O 0.26651 0.14599 0.92592 0.0
O106 O 0.2763 0.14638 0.93998 0.0
C107 C 0.29603 0.11873 0.90403 0.0
O108 O 0.29392 0.15915 0.90645 0.0
C109 C 0.30092 0.09788 0.96034 0.0
C110 C 0.36305 0.07615 0.96566 0.0
C111 C 0.32172 0.08803 0.96796 0.0
N112 N 0.32882 0.0923 0.95388 0.0
N113 N 0.36591 0.07945 0.9571 0.0
C114 C 0.2546 0.10913 0.95907 0.0
H115 H 0.24357 0.09811 0.95269 0.0
H116 H 0.23432 0.09433 0.96411 0.0
H117 H 0.25089 0.14459 0.95938 0.0
C118 C 0.29899 0.00735 0.92524 0.0
N119 N 0.30338 0.04813 0.92805 0.0
N120 N 0.30706 0.04789 0.93642 0.0
C121 C 0.3043 0.00691 0.93923 0.0
C122 C 0.2993 0.97965 0.93223 0.0
C123 C 0.29908 0.99525 0.91599 0.0
H124 H 0.32579 0.01212 0.9127 0.0
H125 H 0.26847 0.00586 0.91302 0.0
H126 H 0.30312 0.96017 0.91503 0.0
O127 O 0.36516 0.12729 0.92345 0.0
O128 O 0.37425 0.1257 0.93751 0.0
H129 H 0.33918 0.99633 0.95079 0.0
H130 H 0.29337 0.96119 0.94944 0.0
C131 C 0.30558 0.99434 0.94845 0.0
H132 H 0.2857 0.0169 0.95224 0.0
H133 H 0.39315 0.07269 0.95345 0.0
O134 O 0.30056 0.08957 0.90964 0.0
C135 C 0.38734 0.13581 0.93007 0.0
Co136 Co 0.15231 0.9485 0.32488 0.0
Co137 Co 0.15145 0.9483 0.3048 0.0
C138 C 0.09165 0.00459 0.31457 0.0
O139 O 0.10669 0.9911 0.32167 0.0
O140 O 0.10784 0.99252 0.30748 0.0
C141 C 0.1365 0.96032 0.34295 0.0
O142 O 0.09677 0.96871 0.34064 0.0
C143 C 0.15612 0.96964 0.28626 0.0
C144 C 0.17389 0.90601 0.28103 0.0
C145 C 0.165 0.94799 0.27868 0.0
N146 N 0.16005 0.94165 0.29277 0.0
N147 N 0.17068 0.90376 0.28958 0.0
C148 C 0.14231 0.01548 0.28726 0.0
H149 H 0.12254 0.0196 0.29306 0.0
H150 H 0.17125 0.03609 0.28791 0.0
H151 H 0.12365 0.02635 0.28162 0.0
C152 C 0.24586 0.95699 0.32163 0.0
N153 N 0.20487 0.95547 0.31885 0.0
N154 N 0.2046 0.957 0.31046 0.0
C155 C 0.24541 0.96048 0.30763 0.0
C156 C 0.27313 0.96034 0.31461 0.0
C157 C 0.25847 0.95071 0.33078 0.0
H158 H 0.23983 0.92366 0.33354 0.0
H159 H 0.25055 0.98021 0.33445 0.0
H160 H 0.2932 0.94355 0.33148 0.0
O161 O 0.12659 0.89157 0.32265 0.0
O162 O 0.12409 0.89416 0.30849 0.0
H163 H 0.25544 0.9327 0.29531 0.0
H164 H 0.29039 0.97765 0.29764 0.0
C165 C 0.25738 0.96474 0.29841 0.0
H166 H 0.23447 0.98657 0.29516 0.0
H167 H 0.17551 0.87618 0.29327 0.0
O168 O 0.16434 0.9519 0.33726 0.0
C169 C 0.11555 0.87538 0.31551 0.0
Co170 Co 0.31643 0.90868 0.5752 0.0
Co171 Co 0.30887 0.90803 0.55522 0.0
C172 C 0.25681 0.8476 0.56566 0.0
O173 O 0.27337 0.86272 0.57251 0.0
O174 O 0.26547 0.86395 0.55839 0.0
C175 C 0.28753 0.92188 0.5927 0.0
O176 O 0.24829 0.91704 0.58975 0.0
C177 C 0.28419 0.90943 0.53686 0.0
C178 C 0.34397 0.93572 0.53127 0.0
C179 C 0.30343 0.92079 0.52917 0.0
N180 N 0.31216 0.9177 0.54321 0.0
N181 N 0.34772 0.9334 0.53981 0.0
C182 C 0.24153 0.88821 0.53817 0.0
H183 H 0.2451 0.86093 0.54266 0.0
H184 H 0.21896 0.91166 0.54108 0.0
H185 H 0.2279 0.87596 0.5321 0.0
C186 C 0.30468 0.00245 0.57224 0.0
N187 N 0.30634 0.96147 0.56943 0.0
N188 N 0.30158 0.96115 0.56109 0.0
C189 C 0.29571 1.00189 0.55834 0.0
C190 C 0.29775 0.02961 0.56531 0.0
C191 C 0.31372 0.01548 0.58128 0.0
H192 H 0.34031 0.99577 0.5839 0.0
H193 H 0.2846 0.00979 0.58521 0.0
H194 H 0.32275 0.04992 0.58173 0.0
O195 O 0.37244 0.88414 0.57204 0.0
O196 O 0.36451 0.88081 0.55799 0.0
H197 H 0.31794 0.01505 0.5457 0.0
H198 H 0.27118 0.04569 0.54878 0.0
C199 C 0.28707 0.01382 0.54924 0.0
H200 H 0.26621 0.98926 0.54621 0.0
H201 H 0.37483 0.94215 0.54333 0.0
O202 O 0.31922 0.91879 0.58763 0.0
C203 C 0.38607 0.87296 0.56471 0.0
Co204 Co 0.34881 0.07213 0.82388 0.0
Co205 Co 0.34755 0.06157 0.80392 0.0
C206 C 0.40952 0.01171 0.81443 0.0
O207 O 0.39459 0.02887 0.82122 0.0
O208 O 0.39277 0.01947 0.80715 0.0
C209 C 0.33147 0.04678 0.8415 0.0
O210 O 0.32451 0.00804 0.83844 0.0
C211 C 0.34516 0.03136 0.78596 0.0
C212 C 0.31316 0.08663 0.77975 0.0
C213 C 0.33077 0.04658 0.77811 0.0
N214 N 0.33649 0.06123 0.79193 0.0
N215 N 0.31757 0.0942 0.78816 0.0
C216 C 0.36427 0.98831 0.7879 0.0
H217 H 0.35454 0.97769 0.79438 0.0
H218 H 0.35401 0.96399 0.78312 0.0
H219 H 0.39983 0.99095 0.78775 0.0
C220 C 0.25446 0.0601 0.82133 0.0
N221 N 0.2953 0.06101 0.81841 0.0
N222 N 0.29508 0.05448 0.81011 0.0
C223 C 0.25419 0.04781 0.80753 0.0
C224 C 0.22692 0.0515 0.81454 0.0
C225 C 0.24167 0.07184 0.83025 0.0
H226 H 0.26373 0.09661 0.83283 0.0
H227 H 0.24347 0.04281 0.83435 0.0
H228 H 0.2083 0.0844 0.83045 0.0
O229 O 0.37254 0.12753 0.82015 0.0
O230 O 0.37429 0.11841 0.80611 0.0
H231 H 0.23891 0.06671 0.79477 0.0
H232 H 0.21018 0.01982 0.79841 0.0
C233 C 0.24158 0.03673 0.79857 0.0
H234 H 0.26634 0.01584 0.79563 0.0
H235 H 0.30739 0.12185 0.79136 0.0
O236 O 0.34188 0.07697 0.83643 0.0
C237 C 0.38265 0.14067 0.81273 0.0
Co238 Co 0.1845 0.09868 0.07434 0.0
Co239 Co 0.19418 0.09984 0.0543 0.0
C240 C 0.24437 0.16053 0.06525 0.0
O241 O 0.22774 0.14481 0.07202 0.0
O242 O 0.236 0.1447 0.05791 0.0
C243 C 0.21128 0.09113 0.09205 0.0
O244 O 0.24921 0.10351 0.0893 0.0
C245 C 0.22355 0.09726 0.03607 0.0
C246 C 0.16385 0.07391 0.02998 0.0
C247 C 0.20552 0.08668 0.02819 0.0
N248 N 0.19379 0.09065 0.04219 0.0
N249 N 0.15831 0.07666 0.03847 0.0
C250 C 0.26735 0.11536 0.0377 0.0
H251 H 0.26747 0.13529 0.04355 0.0
H252 H 0.29033 0.08847 0.03863 0.0
H253 H 0.2783 0.13515 0.03222 0.0
C254 C 0.19799 0.00539 0.07137 0.0
N255 N 0.19594 0.0463 0.06853 0.0
N256 N 0.20108 0.04662 0.06019 0.0
C257 C 0.20729 0.00586 0.05748 0.0
C258 C 0.20534 0.97821 0.06446 0.0
C259 C 0.18904 0.99252 0.08042 0.0
H260 H 0.16062 0.01029 0.08282 0.0
H261 H 0.21704 1.00121 0.08445 0.0
H262 H 0.1828 0.95754 0.08101 0.0
O263 O 0.12892 0.12329 0.0708 0.0
O264 O 0.13758 0.12615 0.05675 0.0
H265 H 0.18526 0.99416 0.04477 0.0
H266 H 0.23047 0.96133 0.0479 0.0
C267 C 0.21593 0.99382 0.04838 0.0
H268 H 0.23799 0.0176 0.04545 0.0
H269 H 0.13004 0.06931 0.04175 0.0
O270 O 0.18039 0.08775 0.08679 0.0
C271 C 0.11559 0.13409 0.06342 0.0
Co272 Co 0.84692 0.94271 0.82544 0.0
Co273 Co 0.84921 0.93471 0.80543 0.0
C274 C 0.90964 0.99363 0.81508 0.0
O275 O 0.89233 0.98502 0.82228 0.0
O276 O 0.89527 0.97727 0.80817 0.0
C277 C 0.84644 0.97243 0.84323 0.0
O278 O 0.87112 0.00443 0.84078 0.0
C279 C 0.84538 0.95663 0.78693 0.0
C280 C 0.82973 0.8929 0.7815 0.0
C281 C 0.83765 0.93527 0.77927 0.0
N282 N 0.84172 0.92812 0.79337 0.0
N283 N 0.83233 0.89018 0.79005 0.0
C284 C 0.85772 0.00278 0.78813 0.0
H285 H 0.87504 0.00747 0.79421 0.0
H286 H 0.82818 0.02274 0.78831 0.0
H287 H 0.87819 0.01397 0.78276 0.0
C288 C 0.75404 0.95401 0.82185 0.0
N289 N 0.79499 0.94923 0.8192 0.0
N290 N 0.79567 0.94686 0.81082 0.0
C291 C 0.75507 0.95061 0.80785 0.0
C292 C 0.72715 0.95514 0.81475 0.0
C293 C 0.74093 0.95323 0.83106 0.0
H294 H 0.75573 0.92499 0.83423 0.0
H295 H 0.75309 0.98263 0.83427 0.0
H296 H 0.7056 0.9512 0.83185 0.0
O297 O 0.87339 0.88603 0.82349 0.0
O298 O 0.87304 0.87921 0.80939 0.0
H299 H 0.74751 0.91781 0.79595 0.0
H300 H 0.70997 0.96157 0.79751 0.0
C301 C 0.74351 0.95073 0.79857 0.0
H302 H 0.76551 0.9725 0.79507 0.0
H303 H 0.82795 0.86224 0.79365 0.0
O304 O 0.83399 0.94483 0.83779 0.0
C305 C 0.88246 0.8649 0.81677 0.0
Co306 Co 0.80828 0.10725 0.57541 0.0
Co307 Co 0.81712 0.1118 0.55539 0.0
C308 C 0.757 0.17041 0.56541 0.0
O309 O 0.76538 0.1524 0.57255 0.0
O310 O 0.77385 0.15694 0.55846 0.0
C311 C 0.78193 0.10421 0.59346 0.0
O312 O 0.74914 0.12861 0.59134 0.0
C313 C 0.79159 0.10462 0.53716 0.0
C314 C 0.85535 0.10491 0.53095 0.0
C315 C 0.81171 0.10319 0.52921 0.0
N316 N 0.8221 0.10688 0.54325 0.0
N317 N 0.86007 0.10693 0.53947 0.0
C318 C 0.74443 0.10622 0.539 0.0
H319 H 0.73118 0.07311 0.53879 0.0
H320 H 0.72756 0.12601 0.53414 0.0
H321 H 0.73842 0.11942 0.54547 0.0
C322 C 0.79657 0.01483 0.57136 0.0
N323 N 0.80177 0.05604 0.56889 0.0
N324 N 0.80646 0.05736 0.56055 0.0
C325 C 0.8052 0.01682 0.55745 0.0
C326 C 0.79892 0.98833 0.56421 0.0
C327 C 0.78858 1.00147 0.58041 0.0
H328 H 0.76533 0.02386 0.58342 0.0
H329 H 0.7756 0.96829 0.58079 0.0
H330 H 0.81917 0.0032 0.58404 0.0
O331 O 0.86462 0.13503 0.5734 0.0
O332 O 0.87233 0.13561 0.55932 0.0
H333 H 0.84208 0.02414 0.54599 0.0
H334 H 0.8209 0.97074 0.54752 0.0
C335 C 0.81407 0.00551 0.54833 0.0
H336 H 0.7858 0.01429 0.54437 0.0
H337 H 0.88931 0.10874 0.54272 0.0
O338 O 0.80852 0.0926 0.58775 0.0
C339 C 0.88608 0.1447 0.56675 0.0
Co340 Co 0.65458 0.05748 0.32489 0.0
Co341 Co 0.65083 0.06684 0.30485 0.0
C342 C 0.59122 0.00736 0.31469 0.0
O343 O 0.60917 0.01535 0.32185 0.0
O344 O 0.60496 0.02428 0.30778 0.0
C345 C 0.6508 0.03136 0.34279 0.0
O346 O 0.62131 0.00372 0.34035 0.0
C347 C 0.65654 0.04119 0.28661 0.0
C348 C 0.66175 0.10485 0.28043 0.0
C349 C 0.65993 0.0612 0.27865 0.0
N350 N 0.65657 0.07176 0.2927 0.0
N351 N 0.65975 0.10967 0.28895 0.0
C352 C 0.65128 0.99428 0.28847 0.0
H353 H 0.6389 0.9892 0.29502 0.0
H354 H 0.68305 0.97826 0.28803 0.0
H355 H 0.62912 0.97924 0.28378 0.0
C356 C 0.74699 0.04628 0.32099 0.0
N357 N 0.70585 0.05079 0.31845 0.0
N358 N 0.70478 0.05542 0.3101 0.0
C359 C 0.74539 0.05468 0.30707 0.0
C360 C 0.77366 0.04897 0.31388 0.0
C361 C 0.7602 0.03931 0.33008 0.0
H362 H 0.73836 0.01565 0.33312 0.0
H363 H 0.7937 0.02731 0.33054 0.0
H364 H 0.75746 0.07012 0.33362 0.0
O365 O 0.62792 0.11441 0.32292 0.0
O366 O 0.62778 0.12228 0.30883 0.0
H367 H 0.73989 0.09357 0.29585 0.0
H368 H 0.79185 0.06889 0.29709 0.0
C369 C 0.75683 0.06408 0.29797 0.0
H370 H 0.74593 0.03705 0.29388 0.0
H371 H 0.6602 0.13894 0.29221 0.0
O372 O 0.66827 0.05571 0.33727 0.0
C373 C 0.61881 0.13611 0.31627 0.0
Co374 Co 0.68649 0.90079 0.07542 0.0
Co375 Co 0.69275 0.90087 0.0554 0.0
C376 C 0.74544 0.83997 0.06574 0.0
O377 O 0.72972 0.85502 0.07267 0.0
O378 O 0.73593 0.85642 0.05851 0.0
C379 C 0.71544 0.91531 0.0929 0.0
O380 O 0.75475 0.91306 0.08987 0.0
C381 C 0.71579 0.90253 0.03688 0.0
C382 C 0.65678 0.93232 0.03168 0.0
C383 C 0.6964 0.91595 0.02932 0.0
N384 N 0.68887 0.91117 0.04339 0.0
N385 N 0.65371 0.92883 0.04021 0.0
C386 C 0.75769 0.87945 0.03787 0.0
H387 H 0.75575 0.85595 0.04316 0.0
H388 H 0.78318 0.90315 0.03944 0.0
H389 H 0.7666 0.86218 0.03193 0.0
C390 C 0.69796 0.99488 0.07254 0.0
N391 N 0.69616 0.95392 0.0697 0.0
N392 N 0.70037 0.95383 0.06134 0.0
C393 C 0.70602 0.99466 0.05862 0.0
C394 C 0.70437 0.02221 0.06562 0.0
C395 C 0.68967 0.00779 0.0816 0.0
H396 H 0.66341 0.98794 0.08432 0.0
H397 H 0.71917 0.00227 0.08543 0.0
H398 H 0.68056 0.0422 0.08209 0.0
O399 O 0.6305 0.87589 0.07229 0.0
O400 O 0.63722 0.87368 0.05821 0.0
H401 H 0.68308 0.00894 0.04608 0.0
H402 H 0.73049 0.03863 0.04909 0.0
C403 C 0.71418 0.00695 0.04952 0.0
H404 H 0.73447 0.98229 0.04638 0.0
H405 H 0.62741 0.93838 0.04389 0.0
O406 O 0.68376 0.91039 0.08788 0.0
C407 C 0.61629 0.86521 0.06498 0.0
Co408 Co 0.85877 0.06184 0.67292 0.0
Co409 Co 0.86004 0.05959 0.69302 0.0
C410 C 0.92071 0.00545 0.68263 0.0
O411 O 0.90502 0.01895 0.67557 0.0
O412 O 0.90488 0.01711 0.68979 0.0
C413 C 0.85144 0.03533 0.65498 0.0
O414 O 0.86627 0.99768 0.6574 0.0
C415 C 0.8528 0.03148 0.71115 0.0
C416 C 0.8447 0.09468 0.71742 0.0
C417 C 0.84772 0.05105 0.7191 0.0
N418 N 0.85255 0.06234 0.70511 0.0
N419 N 0.84762 0.09993 0.70892 0.0
C420 C 0.86002 0.98482 0.7093 0.0
H421 H 0.87502 0.98044 0.70295 0.0
H422 H 0.8286 0.96795 0.70926 0.0
H423 H 0.88064 0.9701 0.7143 0.0
C424 C 0.76545 0.04738 0.67622 0.0
N425 N 0.80638 0.0517 0.67896 0.0
N426 N 0.80679 0.05112 0.68736 0.0
C427 C 0.76615 0.04677 0.69025 0.0
C428 C 0.73842 0.04426 0.68328 0.0
C429 C 0.75289 0.04518 0.66701 0.0
H430 H 0.77291 0.02072 0.66374 0.0
H431 H 0.71858 0.0365 0.66618 0.0
H432 H 0.75917 0.07675 0.66394 0.0
O433 O 0.88415 0.11851 0.67587 0.0
O434 O 0.88542 0.11525 0.69 0.0
H435 H 0.76821 0.07812 0.70239 0.0
H436 H 0.71872 0.04997 0.70042 0.0
C437 C 0.75401 0.04889 0.69949 0.0
H438 H 0.76733 0.02046 0.70285 0.0
H439 H 0.8466 0.12934 0.70571 0.0
O440 O 0.84665 0.06495 0.66049 0.0
C441 C 0.89409 0.13466 0.68308 0.0
Co442 Co 0.67982 0.09885 0.42277 0.0
Co443 Co 0.6875 0.09952 0.44287 0.0
C444 C 0.73955 0.15978 0.4322 0.0
O445 O 0.72328 0.14447 0.42535 0.0
O446 O 0.73046 0.14378 0.43949 0.0
C447 C 0.70893 0.08629 0.40529 0.0
O448 O 0.74788 0.09116 0.40839 0.0
C449 C 0.71346 0.09889 0.4613 0.0
C450 C 0.65539 0.06943 0.46696 0.0
C451 C 0.69534 0.08601 0.46903 0.0
N452 N 0.68552 0.08977 0.45497 0.0
N453 N 0.65095 0.07225 0.45843 0.0
C454 C 0.75512 0.12201 0.46 0.0
H455 H 0.75221 0.14531 0.4547 0.0
H456 H 0.78037 0.0983 0.45829 0.0
H457 H 0.76503 0.13953 0.46585 0.0
C458 C 0.69214 0.00517 0.42574 0.0
N459 N 0.69 0.04609 0.42858 0.0
N460 N 0.69458 0.04631 0.43693 0.0
C461 C 0.7007 0.00552 0.43965 0.0
C462 C 0.69911 0.97792 0.43265 0.0
C463 C 0.68384 0.99223 0.41667 0.0
H464 H 0.65695 0.01146 0.41402 0.0
H465 H 0.71301 0.99871 0.41281 0.0
H466 H 0.67561 0.95762 0.41615 0.0
O467 O 0.62415 0.124 0.42608 0.0
O468 O 0.63158 0.12681 0.44016 0.0
H469 H 0.67844 0.99158 0.45225 0.0
H470 H 0.72557 0.96163 0.44915 0.0
C471 C 0.70935 0.99335 0.44873 0.0
H472 H 0.72989 0.01802 0.45181 0.0
H473 H 0.62407 0.06242 0.45495 0.0
O474 O 0.67684 0.08887 0.41028 0.0
C475 C 0.61033 0.13505 0.4334 0.0
Co476 Co 0.65037 0.9429 0.17273 0.0
Co477 Co 0.64674 0.93361 0.19269 0.0
C478 C 0.5871 0.99339 0.18299 0.0
O479 O 0.60491 0.98481 0.17585 0.0
O480 O 0.601 0.97702 0.18996 0.0
C481 C 0.64745 0.97007 0.15489 0.0
O482 O 0.61766 0.99757 0.15724 0.0
C483 C 0.65025 0.95827 0.21086 0.0
C484 C 0.66628 0.89617 0.21695 0.0
C485 C 0.65844 0.93911 0.21871 0.0
N486 N 0.65315 0.92799 0.20476 0.0
N487 N 0.66238 0.8909 0.20846 0.0
C488 C 0.64248 0.00486 0.20906 0.0
H489 H 0.65368 0.01307 0.20253 0.0
H490 H 0.6591 0.02539 0.21383 0.0
H491 H 0.60745 0.01136 0.20942 0.0
C492 C 0.74275 0.95557 0.17655 0.0
N493 N 0.70178 0.94982 0.17911 0.0
N494 N 0.70089 0.94532 0.18745 0.0
C495 C 0.74154 0.94746 0.19047 0.0
C496 C 0.76961 0.95389 0.18364 0.0
C497 C 0.75559 0.96339 0.16746 0.0
H498 H 0.73327 0.9869 0.16451 0.0
H499 H 0.78884 0.97602 0.16699 0.0
H500 H 0.75325 0.93279 0.16384 0.0
O501 O 0.6237 0.88585 0.17457 0.0
O502 O 0.623 0.87839 0.18866 0.0
H503 H 0.7398 0.90787 0.20161 0.0
H504 H 0.78858 0.9384 0.20059 0.0
C505 C 0.75333 0.93924 0.1996 0.0
H506 H 0.73901 0.96462 0.20369 0.0
H507 H 0.66661 0.86203 0.20515 0.0
O508 O 0.66427 0.94539 0.16042 0.0
C509 C 0.61412 0.8644 0.18123 0.0
Co510 Co 0.81337 0.9005 0.92278 0.0
Co511 Co 0.81192 0.8979 0.94278 0.0
C512 C 0.75619 0.83893 0.9326 0.0
O513 O 0.77053 0.85467 0.92561 0.0
O514 O 0.76739 0.85443 0.93982 0.0
C515 C 0.7836 0.9101 0.90516 0.0
O516 O 0.74555 0.89806 0.9079 0.0
C517 C 0.78656 0.90337 0.96092 0.0
C518 C 0.84941 0.91723 0.96692 0.0
C519 C 0.8063 0.91102 0.96875 0.0
N520 N 0.81676 0.90505 0.9548 0.0
N521 N 0.85424 0.91305 0.95844 0.0
C522 C 0.73973 0.89721 0.95915 0.0
H523 H 0.73198 0.90784 0.95256 0.0
H524 H 0.71993 0.91534 0.96383 0.0
H525 H 0.73182 0.86252 0.9597 0.0
C526 C 0.80093 0.9939 0.92623 0.0
N527 N 0.80463 0.95276 0.92888 0.0
N528 N 0.80414 0.95186 0.93728 0.0
C529 C 0.8003 0.99244 0.94025 0.0
C530 C 0.79823 0.02061 0.93335 0.0
C531 C 0.79868 0.00693 0.91704 0.0
H532 H 0.77277 0.9885 0.91384 0.0
H533 H 0.79192 0.04171 0.91627 0.0
H534 H 0.8295 0.99887 0.91385 0.0
O535 O 0.86998 0.87449 0.92534 0.0
O536 O 0.86632 0.8708 0.93944 0.0
H537 H 0.83252 0.99139 0.9523 0.0
H538 H 0.80146 0.03928 0.95057 0.0
C539 C 0.8023 0.00405 0.94953 0.0
H540 H 0.775 0.98881 0.95293 0.0
H541 H 0.88312 0.91609 0.9551 0.0
O542 O 0.81469 0.91259 0.91039 0.0
C543 C 0.88565 0.86283 0.93247 0.0
Co544 Co 0.65937 0.55432 0.67227 0.0
Co545 Co 0.6549 0.56913 0.69207 0.0
C546 C 0.5955 0.50702 0.68287 0.0
O547 O 0.61366 0.51317 0.67567 0.0
O548 O 0.60913 0.52562 0.68962 0.0
C549 C 0.64495 0.54368 0.65433 0.0
O550 O 0.6044 0.54115 0.65662 0.0
C551 C 0.66186 0.54849 0.71044 0.0
C552 C 0.66089 0.61357 0.71611 0.0
C553 C 0.66282 0.57031 0.7182 0.0
N554 N 0.65969 0.57766 0.70411 0.0
N555 N 0.65927 0.61645 0.70755 0.0
C556 C 0.66048 0.50093 0.70899 0.0
H557 H 0.64802 0.49344 0.70253 0.0
H558 H 0.69352 0.48774 0.70946 0.0
H559 H 0.64018 0.48508 0.7139 0.0
C560 C 0.75174 0.54347 0.67644 0.0
N561 N 0.71054 0.54926 0.67884 0.0
N562 N 0.70918 0.55619 0.68712 0.0
C563 C 0.74967 0.55583 0.69024 0.0
C564 C 0.77816 0.54777 0.68356 0.0
C565 C 0.76523 0.53353 0.66747 0.0
H566 H 0.74305 0.50947 0.66466 0.0
H567 H 0.79848 0.52071 0.66722 0.0
H568 H 0.76334 0.5633 0.66358 0.0
O569 O 0.63265 0.61197 0.67341 0.0
O570 O 0.63211 0.62319 0.6874 0.0
H571 H 0.74241 0.59628 0.70121 0.0
H572 H 0.79572 0.57449 0.69997 0.0
C573 C 0.76096 0.56753 0.69924 0.0
H574 H 0.75209 0.54056 0.70353 0.0
H575 H 0.65733 0.64496 0.70405 0.0
O576 O 0.67359 0.54797 0.66004 0.0
C577 C 0.62337 0.63527 0.67984 0.0
Co578 Co 0.69319 0.40073 0.92232 0.0
Co579 Co 0.68213 0.39902 0.94234 0.0
C580 C 0.74224 0.3382 0.93309 0.0
O581 O 0.73493 0.35523 0.92581 0.0
O582 O 0.72478 0.35294 0.93986 0.0
C583 C 0.71176 0.38776 0.90427 0.0
O584 O 0.72506 0.34928 0.90652 0.0
C585 C 0.70341 0.40416 0.96085 0.0
C586 C 0.639 0.41618 0.9663 0.0
C587 C 0.68173 0.41066 0.96853 0.0
N588 N 0.67472 0.40621 0.95442 0.0
N589 N 0.63635 0.4134 0.95774 0.0
C590 C 0.75015 0.39451 0.95965 0.0
H591 H 0.75578 0.37759 0.95354 0.0
H592 H 0.76839 0.42517 0.95947 0.0
H593 H 0.76251 0.37466 0.965 0.0
C594 C 0.703 0.49384 0.92591 0.0
N595 N 0.69854 0.45287 0.92859 0.0
N596 N 0.695 0.45244 0.93696 0.0
C597 C 0.69771 0.49323 0.93989 0.0
C598 C 0.70278 0.52102 0.93298 0.0
C599 C 0.70274 0.50665 0.91669 0.0
H600 H 0.67514 0.49108 0.91344 0.0
H601 H 0.73267 0.49506 0.9136 0.0
H602 H 0.69995 0.54192 0.91583 0.0
O603 O 0.63604 0.37445 0.92394 0.0
O604 O 0.62721 0.37528 0.93802 0.0
H605 H 0.66298 0.49996 0.95159 0.0
H606 H 0.70567 0.53897 0.95024 0.0
C607 C 0.69608 0.50506 0.94915 0.0
H608 H 0.71804 0.4839 0.9528 0.0
H609 H 0.60819 0.41618 0.95415 0.0
O610 O 0.69837 0.41358 0.90996 0.0
C611 C 0.61391 0.36572 0.93056 0.0
Co612 Co 0.84855 0.4411 0.17286 0.0
Co613 Co 0.8488 0.44109 0.19289 0.0
C614 C 0.90969 0.49667 0.18333 0.0
O615 O 0.89473 0.48321 0.17621 0.0
O616 O 0.89308 0.48496 0.19041 0.0
C617 C 0.8651 0.45354 0.15479 0.0
O618 O 0.90449 0.46284 0.15719 0.0
C619 C 0.84753 0.46271 0.21122 0.0
C620 C 0.81917 0.40352 0.21667 0.0
C621 C 0.83514 0.44361 0.21885 0.0
N622 N 0.83942 0.435 0.20484 0.0
N623 N 0.82266 0.39965 0.20814 0.0
C624 C 0.86378 0.50749 0.20989 0.0
H625 H 0.85282 0.51992 0.20361 0.0
H626 H 0.8525 0.52925 0.21504 0.0
H627 H 0.89944 0.50704 0.2099 0.0
C628 C 0.75469 0.45133 0.17603 0.0
N629 N 0.79568 0.44889 0.1788 0.0
N630 N 0.796 0.45095 0.18719 0.0
C631 C 0.75535 0.45596 0.19002 0.0
C632 C 0.72753 0.45595 0.18305 0.0
C633 C 0.74187 0.44514 0.16689 0.0
H634 H 0.76056 0.41825 0.16409 0.0
H635 H 0.74952 0.47476 0.16324 0.0
H636 H 0.70713 0.43788 0.16624 0.0
O637 O 0.87357 0.38384 0.17517 0.0
O638 O 0.87545 0.38646 0.18932 0.0
H639 H 0.74209 0.43038 0.2024 0.0
H640 H 0.71193 0.47827 0.19985 0.0
C641 C 0.74359 0.46218 0.1992 0.0
H642 H 0.76831 0.48202 0.20244 0.0
H643 H 0.81329 0.37297 0.20454 0.0
O644 O 0.83715 0.44441 0.16042 0.0
C645 C 0.88409 0.36752 0.18233 0.0
Co646 Co 0.81488 0.59937 0.42239 0.0
Co647 Co 0.80909 0.5975 0.44235 0.0
C648 C 0.75679 0.65994 0.43233 0.0
O649 O 0.77209 0.64521 0.42534 0.0
O650 O 0.76644 0.64292 0.4395 0.0
C651 C 0.78643 0.58881 0.40474 0.0
O652 O 0.74704 0.59386 0.4076 0.0
C653 C 0.78278 0.59326 0.46048 0.0
C654 C 0.8416 0.5658 0.46624 0.0
C655 C 0.80075 0.58045 0.46821 0.0
N656 N 0.8119 0.58656 0.45428 0.0
N657 N 0.84696 0.57028 0.45777 0.0
C658 C 0.73806 0.60888 0.45884 0.0
H659 H 0.72764 0.5996 0.45232 0.0
H660 H 0.71532 0.59551 0.46362 0.0
H661 H 0.73756 0.6445 0.45928 0.0
C662 C 0.80247 0.50521 0.42489 0.0
N663 N 0.80463 0.54584 0.4279 0.0
N664 N 0.8008 0.54515 0.43626 0.0
C665 C 0.79524 0.50407 0.43883 0.0
C666 C 0.79641 0.47723 0.43172 0.0
C667 C 0.81019 0.49324 0.41575 0.0
H668 H 0.83728 0.51237 0.41316 0.0
H669 H 0.781 0.50072 0.41196 0.0
H670 H 0.81781 0.45858 0.41505 0.0
O671 O 0.87117 0.62329 0.42561 0.0
O672 O 0.86511 0.62396 0.43971 0.0
H673 H 0.81924 0.49013 0.45131 0.0
H674 H 0.77297 0.45858 0.4483 0.0
C675 C 0.78797 0.4909 0.44791 0.0
H676 H 0.76679 0.51453 0.45113 0.0
H677 H 0.87457 0.56209 0.45435 0.0
O678 O 0.81778 0.59076 0.40992 0.0
C679 C 0.8859 0.63285 0.43295 0.0
Co680 Co 0.64814 0.43384 0.82447 0.0
Co681 Co 0.64886 0.44514 0.80449 0.0
C682 C 0.58738 0.49483 0.81518 0.0
O683 O 0.60231 0.4773 0.82195 0.0
O684 O 0.60407 0.4874 0.80788 0.0
C685 C 0.66468 0.45953 0.84206 0.0
O686 O 0.66773 0.49886 0.83905 0.0
C687 C 0.6523 0.47294 0.78618 0.0
C688 C 0.68157 0.41473 0.78052 0.0
C689 C 0.66603 0.45516 0.77848 0.0
N690 N 0.65993 0.4443 0.79246 0.0
N691 N 0.67734 0.40967 0.789 0.0
C692 C 0.63006 0.51509 0.78749 0.0
H693 H 0.60718 0.51296 0.79288 0.0
H694 H 0.65438 0.54 0.78905 0.0
H695 H 0.61237 0.52501 0.78166 0.0
C696 C 0.74228 0.44587 0.82181 0.0
N697 N 0.7014 0.44503 0.81892 0.0
N698 N 0.70146 0.45164 0.81062 0.0
C699 C 0.74232 0.45813 0.80801 0.0
C700 C 0.76972 0.45436 0.81499 0.0
C701 C 0.75514 0.43439 0.83074 0.0
H702 H 0.73385 0.40877 0.83325 0.0
H703 H 0.75197 0.46322 0.83486 0.0
H704 H 0.78891 0.42301 0.83101 0.0
O705 O 0.62397 0.37854 0.82074 0.0
O706 O 0.62178 0.38861 0.80673 0.0
H707 H 0.75684 0.43905 0.79522 0.0
H708 H 0.78635 0.48556 0.79882 0.0
C709 C 0.75474 0.46906 0.79903 0.0
H710 H 0.7301 0.49024 0.79612 0.0
H711 H 0.68619 0.38235 0.79246 0.0
O712 O 0.65637 0.42877 0.83698 0.0
C713 C 0.61349 0.36596 0.81329 0.0
Co714 Co 0.82112 0.39955 0.0746 0.0
Co715 Co 0.81193 0.40177 0.05461 0.0
C716 C 0.76063 0.33997 0.06498 0.0
O717 O 0.77727 0.35456 0.07186 0.0
O718 O 0.76932 0.35676 0.05774 0.0
C719 C 0.79509 0.4146 0.09224 0.0
O720 O 0.75598 0.41923 0.08921 0.0
C721 C 0.78161 0.40631 0.03665 0.0
C722 C 0.83846 0.43545 0.03046 0.0
C723 C 0.79749 0.42016 0.02881 0.0
N724 N 0.81197 0.41311 0.04262 0.0
N725 N 0.84587 0.43032 0.03886 0.0
C726 C 0.7376 0.38962 0.03859 0.0
H727 H 0.72811 0.39876 0.04518 0.0
H728 H 0.7137 0.40231 0.03397 0.0
H729 H 0.73792 0.35399 0.03817 0.0
C730 C 0.8096 0.49408 0.07222 0.0
N731 N 0.81078 0.45341 0.0692 0.0
N732 N 0.80532 0.45418 0.06087 0.0
C733 C 0.79944 0.49534 0.05835 0.0
C734 C 0.80223 0.52213 0.06545 0.0
C735 C 0.81954 0.50618 0.08126 0.0
H736 H 0.84489 0.48483 0.08386 0.0
H737 H 0.79012 0.5024 0.08519 0.0
H738 H 0.83056 0.54004 0.08173 0.0
O739 O 0.87633 0.37496 0.07091 0.0
O740 O 0.86831 0.3743 0.05684 0.0
H741 H 0.82062 0.50981 0.0457 0.0
H742 H 0.7748 0.54088 0.04913 0.0
C743 C 0.79011 0.50866 0.04936 0.0
H744 H 0.76842 0.48496 0.0463 0.0
H745 H 0.87404 0.43887 0.04206 0.0
O746 O 0.82578 0.40628 0.08715 0.0
C747 C 0.88989 0.36514 0.0635 0.0
Co748 Co 0.85786 0.56512 0.32501 0.0
Co749 Co 0.85991 0.56668 0.30497 0.0
C750 C 0.92048 0.51102 0.31505 0.0
O751 O 0.9044 0.52314 0.32216 0.0
O752 O 0.90494 0.52394 0.30796 0.0
C753 C 0.85729 0.53706 0.34278 0.0
O754 O 0.8819 0.50509 0.34029 0.0
C755 C 0.85263 0.54045 0.28682 0.0
C756 C 0.84694 0.60416 0.28065 0.0
C757 C 0.84856 0.56051 0.2789 0.0
N758 N 0.85313 0.57102 0.2929 0.0
N759 N 0.84965 0.60894 0.28916 0.0
C760 C 0.85821 0.4935 0.28861 0.0
H761 H 0.87263 0.48837 0.29499 0.0
H762 H 0.82627 0.47765 0.28855 0.0
H763 H 0.87868 0.47831 0.28365 0.0
C764 C 0.76493 0.55097 0.32151 0.0
N765 N 0.80588 0.55573 0.31884 0.0
N766 N 0.80644 0.55694 0.31045 0.0
C767 C 0.76581 0.55356 0.3075 0.0
C768 C 0.73798 0.54968 0.31442 0.0
C769 C 0.75221 0.54693 0.3307 0.0
H770 H 0.77353 0.52338 0.33391 0.0
H771 H 0.71842 0.53616 0.33141 0.0
H772 H 0.75636 0.57851 0.3339 0.0
O773 O 0.88284 0.62264 0.32261 0.0
O774 O 0.88459 0.62189 0.30846 0.0
H775 H 0.76928 0.58735 0.29561 0.0
H776 H 0.71855 0.56106 0.29738 0.0
C777 C 0.75377 0.55821 0.29828 0.0
H778 H 0.76575 0.52993 0.29468 0.0
H779 H 0.84947 0.63822 0.29242 0.0
O780 O 0.84476 0.56473 0.33736 0.0
C781 C 0.89286 0.64013 0.31553 0.0
Co782 Co 0.68646 0.61077 0.57489 0.0
Co783 Co 0.69049 0.60864 0.55485 0.0
C784 C 0.74416 0.67063 0.56466 0.0
O785 O 0.7294 0.65627 0.57172 0.0
O786 O 0.73366 0.65346 0.55756 0.0
C787 C 0.71605 0.59233 0.59224 0.0
O788 O 0.75396 0.58454 0.58888 0.0
C789 C 0.71346 0.6023 0.53638 0.0
C790 C 0.65119 0.57995 0.53121 0.0
C791 C 0.69258 0.59104 0.52884 0.0
N792 N 0.68558 0.59762 0.54289 0.0
N793 N 0.64852 0.58425 0.53973 0.0
C794 C 0.75827 0.61914 0.53734 0.0
H795 H 0.78048 0.59171 0.53838 0.0
H796 H 0.76848 0.63677 0.53152 0.0
H797 H 0.76063 0.6408 0.54292 0.0
C798 C 0.69608 0.51588 0.57223 0.0
N799 N 0.69504 0.55678 0.56933 0.0
N800 N 0.69884 0.55634 0.56096 0.0
C801 C 0.70376 0.51533 0.5583 0.0
C802 C 0.70188 0.48811 0.56535 0.0
C803 C 0.68682 0.50328 0.58128 0.0
H804 H 0.66327 0.52579 0.58415 0.0
H805 H 0.71703 0.50456 0.58503 0.0
H806 H 0.67373 0.47013 0.58164 0.0
O807 O 0.63015 0.63525 0.5719 0.0
O808 O 0.63509 0.63583 0.55779 0.0
H809 H 0.68013 0.50244 0.54575 0.0
H810 H 0.7261 0.47032 0.54874 0.0
C811 C 0.71127 0.50269 0.5492 0.0
H812 H 0.73276 0.5264 0.54608 0.0
H813 H 0.62118 0.57834 0.54341 0.0
O814 O 0.68518 0.60369 0.58743 0.0
C815 C 0.61494 0.64494 0.56462 0.0
Co816 Co 0.35803 0.44477 0.3252 0.0
Co817 Co 0.35944 0.43516 0.30519 0.0
C818 C 0.42056 0.49445 0.31487 0.0
O819 O 0.4033 0.4872 0.32213 0.0
O820 O 0.40599 0.47704 0.30808 0.0
C821 C 0.36366 0.46585 0.34342 0.0
O822 O 0.39312 0.49425 0.34134 0.0
C823 C 0.35176 0.46219 0.28707 0.0
C824 C 0.34567 0.399 0.28073 0.0
C825 C 0.34728 0.44279 0.27908 0.0
N826 N 0.3525 0.43115 0.29307 0.0
N827 N 0.34879 0.39354 0.28922 0.0
C828 C 0.3573 0.50895 0.28905 0.0
H829 H 0.3708 0.51349 0.29552 0.0
H830 H 0.32546 0.52497 0.28887 0.0
H831 H 0.37862 0.5244 0.28426 0.0
C832 C 0.2653 0.45809 0.32166 0.0
N833 N 0.30605 0.45214 0.31898 0.0
N834 N 0.3062 0.44729 0.31064 0.0
C835 C 0.26538 0.44937 0.30774 0.0
C836 C 0.23793 0.45627 0.31464 0.0
C837 C 0.25318 0.46589 0.33078 0.0
H838 H 0.25411 0.43494 0.33431 0.0
H839 H 0.27672 0.48803 0.33378 0.0
H840 H 0.22053 0.47999 0.33132 0.0
O841 O 0.38443 0.38804 0.32297 0.0
O842 O 0.38213 0.37914 0.30892 0.0
H843 H 0.26958 0.41129 0.29639 0.0
H844 H 0.21771 0.43565 0.29798 0.0
C845 C 0.25283 0.44055 0.29868 0.0
H846 H 0.26301 0.46794 0.29461 0.0
H847 H 0.34868 0.36402 0.2924 0.0
O848 O 0.34553 0.44392 0.3376 0.0
C849 C 0.39231 0.36578 0.31633 0.0
Co850 Co 0.31894 0.6002 0.07532 0.0
Co851 Co 0.31485 0.59795 0.05534 0.0
C852 C 0.26148 0.66031 0.06518 0.0
O853 O 0.2762 0.64575 0.07223 0.0
O854 O 0.27186 0.64328 0.05805 0.0
C855 C 0.29174 0.59902 0.09323 0.0
O856 O 0.2548 0.61489 0.09066 0.0
C857 C 0.29035 0.59501 0.03711 0.0
C858 C 0.34815 0.56441 0.03156 0.0
C859 C 0.30836 0.58127 0.02945 0.0
N860 N 0.31843 0.58675 0.04342 0.0
N861 N 0.35292 0.56864 0.04006 0.0
C862 C 0.24641 0.61314 0.03853 0.0
H863 H 0.23424 0.60339 0.04491 0.0
H864 H 0.22375 0.60212 0.03351 0.0
H865 H 0.24823 0.64878 0.03836 0.0
C866 C 0.3065 0.50623 0.07288 0.0
N867 N 0.30917 0.5467 0.06982 0.0
N868 N 0.30619 0.54572 0.06145 0.0
C869 C 0.30075 0.50457 0.05891 0.0
C870 C 0.30113 0.47799 0.06607 0.0
C871 C 0.31292 0.49487 0.08209 0.0
H872 H 0.34138 0.51219 0.08461 0.0
H873 H 0.28443 0.50542 0.0858 0.0
H874 H 0.31775 0.45984 0.08301 0.0
O875 O 0.37534 0.62445 0.07225 0.0
O876 O 0.37053 0.62471 0.05814 0.0
H877 H 0.32582 0.4892 0.04659 0.0
H878 H 0.27846 0.45904 0.04946 0.0
C879 C 0.29419 0.49102 0.04983 0.0
H880 H 0.27397 0.51495 0.04646 0.0
H881 H 0.37971 0.559 0.04358 0.0
O882 O 0.32108 0.59139 0.0878 0.0
C883 C 0.39064 0.63394 0.06496 0.0
Co884 Co 0.14931 0.56206 0.82579 0.0
Co885 Co 0.14755 0.56903 0.80577 0.0
C886 C 0.08721 0.51027 0.81548 0.0
O887 O 0.10431 0.51929 0.82268 0.0
O888 O 0.10167 0.52636 0.80855 0.0
C889 C 0.15761 0.52947 0.84329 0.0
O890 O 0.14335 0.49234 0.84046 0.0
C891 C 0.15271 0.54546 0.78737 0.0
C892 C 0.16663 0.60909 0.78171 0.0
C893 C 0.16012 0.56629 0.77963 0.0
N894 N 0.15519 0.5747 0.7937 0.0
N895 N 0.16351 0.6126 0.79025 0.0
C896 C 0.14185 0.49906 0.78873 0.0
H897 H 0.12414 0.49451 0.79478 0.0
H898 H 0.17202 0.48015 0.78912 0.0
H899 H 0.12228 0.48657 0.78334 0.0
C900 C 0.24248 0.55133 0.82235 0.0
N901 N 0.20155 0.5556 0.81964 0.0
N902 N 0.20109 0.55762 0.81126 0.0
C903 C 0.24183 0.55417 0.80834 0.0
C904 C 0.26958 0.55015 0.81529 0.0
C905 C 0.25543 0.55258 0.83157 0.0
H906 H 0.23944 0.58009 0.83476 0.0
H907 H 0.24463 0.52257 0.83475 0.0
H908 H 0.29065 0.55609 0.83237 0.0
O909 O 0.12257 0.61842 0.82366 0.0
O910 O 0.12323 0.62466 0.80956 0.0
H911 H 0.24878 0.58656 0.79639 0.0
H912 H 0.28753 0.54398 0.79808 0.0
C913 C 0.25367 0.55391 0.79908 0.0
H914 H 0.23241 0.53134 0.7956 0.0
H915 H 0.16687 0.64101 0.79374 0.0
O916 O 0.1614 0.5609 0.83816 0.0
C917 C 0.11354 0.63923 0.8169 0.0
Co918 Co 0.19046 0.40967 0.57608 0.0
Co919 Co 0.1836 0.40771 0.55601 0.0
C920 C 0.24193 0.3472 0.56572 0.0
O921 O 0.23267 0.36425 0.57291 0.0
O922 O 0.22616 0.36176 0.55877 0.0
C923 C 0.22206 0.41169 0.5937 0.0
O924 O 0.25554 0.38992 0.59097 0.0
C925 C 0.20685 0.41231 0.53757 0.0
C926 C 0.14302 0.42511 0.53192 0.0
C927 C 0.18578 0.41869 0.52982 0.0
N928 N 0.17775 0.41516 0.54392 0.0
N929 N 0.13976 0.42293 0.54047 0.0
C930 C 0.25332 0.40185 0.53891 0.0
H931 H 0.27221 0.43212 0.53889 0.0
H932 H 0.26538 0.38079 0.53372 0.0
H933 H 0.25839 0.38596 0.54515 0.0
C934 C 0.20146 0.50263 0.57258 0.0
N935 N 0.1972 0.4617 0.56988 0.0
N936 N 0.19524 0.4612 0.56149 0.0
C937 C 0.1987 0.50195 0.55857 0.0
C938 C 0.20267 0.52973 0.56551 0.0
C939 C 0.19999 0.51552 0.5818 0.0
H940 H 0.17194 0.50007 0.58491 0.0
H941 H 0.22948 0.50391 0.58505 0.0
H942 H 0.19722 0.55082 0.58262 0.0
O943 O 0.13377 0.38348 0.57402 0.0
O944 O 0.12801 0.38361 0.55989 0.0
H945 H 0.16617 0.50899 0.54664 0.0
H946 H 0.2089 0.54762 0.5483 0.0
C947 C 0.19885 0.51377 0.54931 0.0
H948 H 0.22125 0.49238 0.54581 0.0
H949 H 0.11141 0.4263 0.54397 0.0
O950 O 0.19264 0.42211 0.58847 0.0
C951 C 0.11313 0.37436 0.56724 0.0
Co952 Co 0.34674 0.56036 0.17349 0.0
Co953 Co 0.34999 0.57181 0.19338 0.0
C954 C 0.40998 0.51132 0.18401 0.0
O955 O 0.39222 0.5191 0.17683 0.0
O956 O 0.39597 0.52839 0.19089 0.0
C957 C 0.36256 0.56544 0.15572 0.0
O958 O 0.40063 0.57779 0.15841 0.0
C959 C 0.34738 0.5482 0.21156 0.0
C960 C 0.3308 0.61024 0.21761 0.0
C961 C 0.33954 0.5675 0.21941 0.0
N962 N 0.34352 0.5782 0.20543 0.0
N963 N 0.3339 0.61526 0.2091 0.0
C964 C 0.35586 0.50169 0.2098 0.0
H965 H 0.34375 0.49293 0.20336 0.0
H966 H 0.34047 0.48103 0.2147 0.0
H967 H 0.39106 0.49596 0.20993 0.0
C968 C 0.25425 0.5482 0.17726 0.0
N969 N 0.2952 0.55402 0.17982 0.0
N970 N 0.29601 0.55926 0.18815 0.0
C971 C 0.25534 0.55742 0.19116 0.0
C972 C 0.22734 0.55048 0.18434 0.0
C973 C 0.2415 0.54007 0.16818 0.0
H974 H 0.26369 0.51626 0.16529 0.0
H975 H 0.20814 0.52771 0.16771 0.0
H976 H 0.2442 0.57047 0.16451 0.0
O977 O 0.37285 0.61788 0.17509 0.0
O978 O 0.37351 0.62675 0.18915 0.0
H979 H 0.25664 0.59827 0.20212 0.0
H980 H 0.20823 0.56704 0.20124 0.0
C981 C 0.24348 0.56652 0.20025 0.0
H982 H 0.25813 0.5418 0.20445 0.0
H983 H 0.32904 0.64395 0.20577 0.0
O984 O 0.33425 0.55488 0.16117 0.0
C985 C 0.3823 0.64005 0.18166 0.0
Co986 Co 0.18931 0.59837 0.9229 0.0
Co987 Co 0.19106 0.60299 0.94292 0.0
C988 C 0.24567 0.66172 0.93234 0.0
O989 O 0.23171 0.64498 0.92542 0.0
O990 O 0.23445 0.64699 0.93962 0.0
C991 C 0.2184 0.59127 0.90526 0.0
O992 O 0.25422 0.60941 0.90787 0.0
C993 C 0.21678 0.59808 0.96118 0.0
C994 C 0.15279 0.59201 0.96721 0.0
C995 C 0.19624 0.59453 0.96906 0.0
N996 N 0.18664 0.59744 0.95502 0.0
N997 N 0.14856 0.59376 0.95868 0.0
C998 C 0.26372 0.60423 0.9595 0.0
H999 H 0.26902 0.6187 0.95313 0.0
H1000 H 0.27994 0.57246 0.95961 0.0
H1001 H 0.27837 0.62494 0.96449 0.0
C1002 C 0.20236 0.5056 0.92674 0.0
N1003 N 0.19879 0.54696 0.92924 0.0
N1004 N 0.19919 0.5486 0.93763 0.0
C1005 C 0.20261 0.50825 0.94075 0.0
C1006 C 0.20465 0.47948 0.93394 0.0
C1007 C 0.20447 0.49174 0.91759 0.0
H1008 H 0.17289 0.49761 0.91451 0.0
H1009 H 0.22891 0.51127 0.9142 0.0
H1010 H 0.21311 0.4573 0.91695 0.0
O1011 O 0.13241 0.62407 0.9254 0.0
O1012 O 0.13616 0.62864 0.93949 0.0
H1013 H 0.17066 0.51239 0.95281 0.0
H1014 H 0.19838 0.46229 0.95118 0.0
C1015 C 0.19987 0.49745 0.95006 0.0
H1016 H 0.22822 0.51099 0.95341 0.0
H1017 H 0.11953 0.59275 0.95534 0.0
O1018 O 0.18831 0.58452 0.91058 0.0
C1019 C 0.11662 0.63588 0.93252 0.0
Co1020 Co 0.15618 0.43721 0.67353 0.0
Co1021 Co 0.15654 0.44128 0.69355 0.0
C1022 C 0.09572 0.49522 0.68354 0.0
O1023 O 0.11049 0.48025 0.67652 0.0
O1024 O 0.11232 0.48481 0.6907 0.0
C1025 C 0.16739 0.46862 0.65614 0.0
O1026 O 0.16048 0.5072 0.65927 0.0
C1027 C 0.15934 0.46755 0.71169 0.0
C1028 C 0.18645 0.40898 0.71762 0.0
C1029 C 0.17169 0.44995 0.71948 0.0
N1030 N 0.16636 0.43816 0.70555 0.0
N1031 N 0.18239 0.40321 0.70914 0.0
C1032 C 0.14408 0.51234 0.70996 0.0
H1033 H 0.15443 0.52276 0.7035 0.0
H1034 H 0.15669 0.5351 0.71482 0.0
H1035 H 0.10844 0.5129 0.71018 0.0
C1036 C 0.25017 0.44783 0.67642 0.0
N1037 N 0.2093 0.44606 0.67929 0.0
N1038 N 0.20937 0.44951 0.68765 0.0
C1039 C 0.25023 0.45474 0.69037 0.0
C1040 C 0.27766 0.45351 0.68335 0.0
C1041 C 0.26269 0.43997 0.66732 0.0
H1042 H 0.24287 0.41366 0.66461 0.0
H1043 H 0.25666 0.46956 0.66354 0.0
H1044 H 0.29708 0.43105 0.66673 0.0
O1045 O 0.13128 0.38088 0.67644 0.0
O1046 O 0.12928 0.3858 0.69056 0.0
H1047 H 0.26335 0.43092 0.7029 0.0
H1048 H 0.29463 0.47758 0.69999 0.0
C1049 C 0.26255 0.46219 0.69949 0.0
H1050 H 0.23846 0.48317 0.70263 0.0
H1051 H 0.19085 0.37547 0.70579 0.0
O1052 O 0.16611 0.43619 0.66106 0.0
C1053 C 0.1207 0.36574 0.68368 0.0
Co1054 Co 0.31063 0.40043 0.4232 0.0
Co1055 Co 0.30613 0.39942 0.4433 0.0
C1056 C 0.25288 0.33893 0.43289 0.0
O1057 O 0.26774 0.35459 0.42595 0.0
O1058 O 0.26325 0.35472 0.44013 0.0
C1059 C 0.3191 0.38439 0.40516 0.0
O1060 O 0.3277 0.34484 0.40758 0.0
C1061 C 0.28003 0.40451 0.46165 0.0
C1062 C 0.34227 0.4227 0.46743 0.0
C1063 C 0.29987 0.41367 0.46942 0.0
N1064 N 0.30948 0.40835 0.45539 0.0
N1065 N 0.3465 0.41927 0.45891 0.0
C1066 C 0.23456 0.39055 0.46023 0.0
H1067 H 0.23167 0.37162 0.45428 0.0
H1068 H 0.21388 0.41945 0.45961 0.0
H1069 H 0.22286 0.37104 0.46569 0.0
C1070 C 0.29913 0.4937 0.4263 0.0
N1071 N 0.30126 0.45282 0.42914 0.0
N1072 N 0.29821 0.45268 0.43752 0.0
C1073 C 0.29342 0.49358 0.44027 0.0
C1074 C 0.29397 0.52109 0.43325 0.0
C1075 C 0.30619 0.50625 0.41717 0.0
H1076 H 0.3347 0.48906 0.41464 0.0
H1077 H 0.27784 0.49644 0.41333 0.0
H1078 H 0.31142 0.54133 0.41644 0.0
O1079 O 0.36712 0.37526 0.42607 0.0
O1080 O 0.36175 0.37287 0.4402 0.0
H1081 H 0.31913 0.50348 0.45276 0.0
H1082 H 0.27522 0.5391 0.45009 0.0
C1083 C 0.28772 0.50585 0.44944 0.0
H1084 H 0.26503 0.48328 0.45256 0.0
H1085 H 0.37487 0.42413 0.45549 0.0
O1086 O 0.30996 0.41241 0.41078 0.0
C1087 C 0.38206 0.36453 0.43334 0.0
H1088 H 0.14063 0.9045 0.26445 0.0
H1089 H 0.19061 0.02716 0.27275 0.0
H1090 H 0.14159 0.92946 0.24968 0.0
H1091 H 0.18929 0.05298 0.2581 0.0
H1092 H 0.22621 0.07008 0.23029 0.0
H1093 H 0.22635 0.04285 0.24488 0.0
H1094 H 0.1054 0.97863 0.24016 0.0
H1095 H 0.10576 0.00546 0.22552 0.0
C1096 C 0.15132 0.93699 0.26313 0.0
C1097 C 0.16455 0.96421 0.26979 0.0
C1098 C 0.15154 0.95141 0.25468 0.0
C1099 C 0.16524 0.99332 0.2527 0.0
C1100 C 0.17877 0.02041 0.25938 0.0
C1101 C 0.17871 0.00591 0.26782 0.0
C1102 C 0.1998 0.04993 0.23237 0.0
C1103 C 0.16636 0.03928 0.22674 0.0
C1104 C 0.19971 0.03455 0.24075 0.0
C1105 C 0.16583 0.00863 0.24371 0.0
C1106 C 0.13237 0.9979 0.23805 0.0
C1107 C 0.13263 0.0131 0.22964 0.0
H1108 H 0.27277 0.93982 0.47431 0.0
H1109 H 0.15094 0.88961 0.48294 0.0
H1110 H 0.29926 0.93959 0.48898 0.0
H1111 H 0.17737 0.88895 0.49761 0.0
H1112 H 0.223 0.94175 0.52347 0.0
H1113 H 0.19655 0.93906 0.5088 0.0
H1114 H 0.32 0.89136 0.50039 0.0
H1115 H 0.34636 0.89451 0.51506 0.0
C1116 C 0.25202 0.92786 0.47932 0.0
C1117 C 0.21013 0.91395 0.47748 0.0
C1118 C 0.26709 0.92785 0.48773 0.0
C1119 C 0.24046 0.9141 0.49447 0.0
C1120 C 0.19852 0.90022 0.49259 0.0
C1121 C 0.18345 0.90038 0.4842 0.0
C1122 C 0.24411 0.9299 0.5185 0.0
C1123 C 0.2864 0.91751 0.5204 0.0
C1124 C 0.22907 0.92848 0.5101 0.0
C1125 C 0.25614 0.91484 0.50342 0.0
C1126 C 0.29849 0.90249 0.50536 0.0
C1127 C 0.31352 0.90406 0.51375 0.0
H1128 H 0.38154 0.89111 0.73279 0.0
H1129 H 0.31075 1.00155 0.72371 0.0
H1130 H 0.37623 0.91807 0.74734 0.0
H1131 H 0.30805 0.02997 0.73813 0.0
H1132 H 0.26976 0.04774 0.76577 0.0
H1133 H 0.274 0.01801 0.7514 0.0
H1134 H 0.40265 0.97252 0.75667 0.0
H1135 H 0.39769 1.00138 0.77113 0.0
C1136 C 0.36537 0.92147 0.73387 0.0
C1137 C 0.34751 0.94462 0.72702 0.0
C1138 C 0.36266 0.93713 0.74222 0.0
C1139 C 0.34196 0.97638 0.74393 0.0
C1140 C 0.32398 0.99947 0.73707 0.0
C1141 C 0.32639 0.9836 0.72873 0.0
C1142 C 0.29879 0.03105 0.76386 0.0
C1143 C 0.33311 0.02623 0.7696 0.0
C1144 C 0.3014 0.01432 0.7556 0.0
C1145 C 0.33875 0.99297 0.75283 0.0
C1146 C 0.37309 0.98806 0.75862 0.0
C1147 C 0.37025 0.00447 0.76692 0.0
H1148 H 0.2665 0.14654 0.97515 0.0
H1149 H 0.34058 0.03269 0.98084 0.0
H1150 H 0.23982 0.14779 0.98978 0.0
H1151 H 0.31368 0.03359 0.99547 0.0
H1152 H 0.28867 0.06985 0.02313 0.0
H1153 H 0.31774 0.07289 0.00869 0.0
H1154 H 0.19241 0.10804 -0.00096 0.0
H1155 H 0.16399 0.10709 0.01352 0.0
C1156 C 0.27641 0.12128 0.97948 0.0
C1157 C 0.30483 0.08891 0.97679 0.0
C1158 C 0.26132 0.12211 0.98789 0.0
C1159 C 0.27441 0.09066 0.99381 0.0
C1160 C 0.30332 0.05862 0.99112 0.0
C1161 C 0.31852 0.05792 0.98273 0.0
C1162 C 0.26763 0.0794 0.01797 0.0
C1163 C 0.22425 0.08925 0.01951 0.0
C1164 C 0.2841 0.08038 0.00965 0.0
C1165 C 0.25745 0.09084 0.00269 0.0
C1166 C 0.21405 0.10058 0.00425 0.0
C1167 C 0.19766 0.09968 0.01255 0.0
H1168 H 0.86328 0.89259 0.76501 0.0
H1169 H 0.81218 0.01471 0.77338 0.0
H1170 H 0.86568 0.91922 0.75033 0.0
H1171 H 0.81567 0.04157 0.75879 0.0
H1172 H 0.87603 0.08816 0.73371 0.0
H1173 H 0.87315 0.05975 0.74819 0.0
H1174 H 0.81463 0.94316 0.73874 0.0
H1175 H 0.81646 0.97194 0.72426 0.0
C1176 C 0.85274 0.92517 0.76373 0.0
C1177 C 0.83879 0.95197 0.77041 0.0
C1178 C 0.85402 0.94033 0.75533 0.0
C1179 C 0.84134 0.98261 0.75344 0.0
C1180 C 0.82659 0.00914 0.76009 0.0
C1181 C 0.82501 0.99387 0.76848 0.0
C1182 C 0.86257 0.05641 0.7347 0.0
C1183 C 0.84729 0.032 0.72778 0.0
C1184 C 0.86083 0.04023 0.743 0.0
C1185 C 0.84374 0.99923 0.74458 0.0
C1186 C 0.82862 0.97461 0.73768 0.0
C1187 C 0.83007 0.99098 0.72936 0.0
H1188 H 0.77872 0.07524 0.47446 0.0
H1189 H 0.65053 0.10229 0.48356 0.0
H1190 H 0.80601 0.08043 0.48903 0.0
H1191 H 0.6777 0.1069 0.49816 0.0
H1192 H 0.73739 0.06298 0.52377 0.0
H1193 H 0.70902 0.05986 0.50927 0.0
H1194 H 0.81675 0.13488 0.50029 0.0
H1195 H 0.8448 0.13859 0.5148 0.0
C1196 C 0.75652 0.0832 0.47954 0.0
C1197 C 0.71266 0.08953 0.47782 0.0
C1198 C 0.77209 0.08586 0.4879 0.0
C1199 C 0.74405 0.09435 0.49475 0.0
C1200 C 0.70008 0.10001 0.49304 0.0
C1201 C 0.68457 0.09753 0.48467 0.0
C1202 C 0.75446 0.0798 0.51877 0.0
C1203 C 0.7929 0.10187 0.5205 0.0
C1204 C 0.73836 0.07769 0.51043 0.0
C1205 C 0.76061 0.09718 0.50363 0.0
C1206 C 0.79909 0.11911 0.50537 0.0
C1207 C 0.81505 0.12137 0.5137 0.0
H1208 H 0.63438 0.10055 0.26401 0.0
H1209 H 0.68722 0.98066 0.27321 0.0
H1210 H 0.63545 0.07277 0.24953 0.0
H1211 H 0.68467 0.95157 0.25889 0.0
H1212 H 0.71671 0.92452 0.23125 0.0
H1213 H 0.71801 0.95453 0.24562 0.0
H1214 H 0.60159 0.0254 0.24009 0.0
H1215 H 0.60176 0.99667 0.2256 0.0
C1216 C 0.64559 0.06797 0.26299 0.0
C1217 C 0.65963 0.04259 0.26989 0.0
C1218 C 0.64575 0.05183 0.25466 0.0
C1219 C 0.65973 0.00966 0.25298 0.0
C1220 C 0.67395 0.98431 0.25988 0.0
C1221 C 0.67439 1.00073 0.2682 0.0
C1222 C 0.69164 0.9468 0.23312 0.0
C1223 C 0.65952 0.9588 0.2273 0.0
C1224 C 0.6921 0.96375 0.24138 0.0
C1225 C 0.65982 0.9924 0.24409 0.0
C1226 C 0.62752 0.00419 0.23822 0.0
C1227 C 0.62754 0.98775 0.2299 0.0
H1228 H 0.8282 0.96531 0.98153 0.0
H1229 H 0.74336 0.85962 0.97556 0.0
H1230 H 0.80106 0.96649 0.99612 0.0
H1231 H 0.71656 0.86016 0.99021 0.0
H1232 H 0.64968 0.9019 0.01495 0.0
H1233 H 0.67462 0.90163 0.00019 0.0
H1234 H 0.80444 0.9248 0.0089 0.0
H1235 H 0.77901 0.92753 0.02359 0.0
C1236 C 0.80359 0.9424 0.98335 0.0
C1237 C 0.7874 0.91282 0.97739 0.0
C1238 C 0.78826 0.94285 0.99172 0.0
C1239 C 0.75677 0.91328 0.99436 0.0
C1240 C 0.74033 0.88383 0.98836 0.0
C1241 C 0.75551 0.88362 0.97995 0.0
C1242 C 0.68357 0.90687 0.0137 0.0
C1243 C 0.71255 0.91373 0.02044 0.0
C1244 C 0.69791 0.90638 0.00525 0.0
C1245 C 0.74156 0.91298 0.00335 0.0
C1246 C 0.77053 0.91991 0.01012 0.0
C1247 C 0.75611 0.92061 0.01857 0.0
H1248 H 0.70343 0.4977 0.72429 0.0
H1249 H 0.62508 0.60523 0.73221 0.0
H1250 H 0.70318 0.47027 0.73885 0.0
H1251 H 0.62554 0.57815 0.74684 0.0
H1252 H 0.67829 0.53897 0.77336 0.0
H1253 H 0.67696 0.56692 0.75879 0.0
H1254 H 0.65159 0.43915 0.74921 0.0
H1255 H 0.65223 0.41133 0.76377 0.0
C1256 C 0.68537 0.51502 0.72907 0.0
C1257 C 0.66326 0.55303 0.72702 0.0
C1258 C 0.68556 0.49948 0.73745 0.0
C1259 C 0.6641 0.52191 0.74398 0.0
C1260 C 0.64263 0.56031 0.74196 0.0
C1261 C 0.64227 0.57571 0.73358 0.0
C1262 C 0.67134 0.51705 0.76817 0.0
C1263 C 0.6643 0.47312 0.76973 0.0
C1264 C 0.67093 0.533 0.75982 0.0
C1265 C 0.66406 0.50523 0.75286 0.0
C1266 C 0.65738 0.46127 0.75443 0.0
C1267 C 0.65758 0.4454 0.76277 0.0
H1268 H 0.7596 0.44122 0.9743 0.0
H1269 H 0.64094 0.38374 0.98292 0.0
H1270 H 0.78626 0.44193 0.98887 0.0
H1271 H 0.6666 0.3868 0.99763 0.0
H1272 H 0.74642 0.35738 0.02177 0.0
H1273 H 0.71789 0.35484 0.00725 0.0
H1274 H 0.7752 0.47872 0.002 0.0
H1275 H 0.8042 0.48072 0.01645 0.0
C1276 C 0.73942 0.42806 0.97927 0.0
C1277 C 0.6986 0.41126 0.97739 0.0
C1278 C 0.75437 0.42932 0.98769 0.0
C1279 C 0.7286 0.41441 0.99446 0.0
C1280 C 0.68759 0.39794 0.99258 0.0
C1281 C 0.67274 0.3965 0.98415 0.0
C1282 C 0.75212 0.38442 0.01757 0.0
C1283 C 0.77704 0.41952 0.02027 0.0
C1284 C 0.73594 0.38292 0.00923 0.0
C1285 C 0.74438 0.4165 0.00343 0.0
C1286 C 0.76873 0.4519 0.00623 0.0
C1287 C 0.7851 0.45323 0.01452 0.0
H1288 H 0.8151 0.48258 0.27366 0.0
H1289 H 0.87831 0.59708 0.26434 0.0
H1290 H 0.81438 0.45326 0.25928 0.0
H1291 H 0.87494 0.56909 0.24987 0.0
H1292 H 0.90081 0.48913 0.22611 0.0
H1293 H 0.90514 0.51592 0.24072 0.0
H1294 H 0.77923 0.46317 0.24596 0.0
H1295 H 0.77565 0.43554 0.2314 0.0
C1296 C 0.82952 0.50124 0.26859 0.0
C1297 C 0.84787 0.54169 0.27021 0.0
C1298 C 0.82827 0.48479 0.26029 0.0
C1299 C 0.84472 0.50874 0.2534 0.0
C1300 C 0.86271 0.54937 0.25502 0.0
C1301 C 0.86426 0.56561 0.26333 0.0
C1302 C 0.87387 0.48385 0.23036 0.0
C1303 C 0.83756 0.461 0.2276 0.0
C1304 C 0.87635 0.49907 0.23874 0.0
C1305 C 0.84245 0.49187 0.24452 0.0
C1306 C 0.80621 0.46877 0.24173 0.0
C1307 C 0.80397 0.45321 0.23338 0.0
H1308 H 0.77272 0.56798 0.52311 0.0
H1309 H 0.6484 0.61203 0.51451 0.0
H1310 H 0.7982 0.56703 0.5084 0.0
H1311 H 0.67323 0.60924 0.49974 0.0
H1312 H 0.7487 0.64222 0.47529 0.0
H1313 H 0.72244 0.64541 0.48995 0.0
H1314 H 0.7869 0.52552 0.49552 0.0
H1315 H 0.8132 0.5225 0.48087 0.0
C1316 C 0.75105 0.57813 0.5181 0.0
C1317 C 0.70889 0.59109 0.51998 0.0
C1318 C 0.76539 0.57684 0.50965 0.0
C1319 C 0.73773 0.5881 0.5029 0.0
C1320 C 0.69551 0.60096 0.50479 0.0
C1321 C 0.68121 0.60226 0.51324 0.0
C1322 C 0.75641 0.61608 0.47958 0.0
C1323 C 0.78233 0.58169 0.4769 0.0
C1324 C 0.74161 0.61804 0.48801 0.0
C1325 C 0.75266 0.58575 0.49391 0.0
C1326 C 0.77837 0.55124 0.49118 0.0
C1327 C 0.79319 0.54936 0.48278 0.0
H1328 H 0.3714 0.40482 0.26422 0.0
H1329 H 0.31859 0.52346 0.27404 0.0
H1330 H 0.36825 0.43367 0.24983 0.0
H1331 H 0.31895 0.55364 0.25978 0.0
H1332 H 0.2828 0.58127 0.23226 0.0
H1333 H 0.28387 0.55095 0.24662 0.0
H1334 H 0.40085 0.48238 0.24047 0.0
H1335 H 0.39841 0.51146 0.22602 0.0
C1336 C 0.35975 0.43736 0.26335 0.0
C1337 C 0.34634 0.46208 0.27038 0.0
C1338 C 0.35838 0.45412 0.25508 0.0
C1339 C 0.3438 0.49626 0.2536 0.0
C1340 C 0.33016 0.52096 0.26063 0.0
C1341 C 0.33096 0.50392 0.2689 0.0
C1342 C 0.30852 0.55946 0.234 0.0
C1343 C 0.34009 0.54809 0.22801 0.0
C1344 C 0.30941 0.54233 0.24225 0.0
C1345 C 0.34248 0.51412 0.24476 0.0
C1346 C 0.37432 0.50317 0.23874 0.0
C1347 C 0.37299 0.5198 0.23045 0.0
H1348 H 0.31533 0.52126 0.01699 0.0
H1349 H 0.26358 0.64745 0.02211 0.0
H1350 H 0.28891 0.52529 0.00236 0.0
H1351 H 0.23783 0.65209 0.00743 0.0
H1352 H 0.15859 0.62543 0.98341 0.0
H1353 H 0.18509 0.62233 0.99801 0.0
H1354 H 0.3015 0.56104 0.98913 0.0
H1355 H 0.27376 0.56169 0.97462 0.0
C1356 C 0.29823 0.54986 0.01497 0.0
C1357 C 0.29072 0.58366 0.02072 0.0
C1358 C 0.28339 0.55235 0.00657 0.0
C1359 C 0.26126 0.58904 0.0037 0.0
C1360 C 0.25403 0.62302 0.00947 0.0
C1361 C 0.26859 0.62033 0.0179 0.0
C1362 C 0.1899 0.61134 0.98457 0.0
C1363 C 0.21441 0.5946 0.9778 0.0
C1364 C 0.20526 0.60992 0.99294 0.0
C1365 C 0.24554 0.59165 0.99475 0.0
C1366 C 0.27018 0.57508 0.98797 0.0
C1367 C 0.25465 0.57627 0.9796 0.0
H1368 H 0.2305 0.44057 0.7321 0.0
H1369 H 0.10881 0.50083 0.72644 0.0
H1370 H 0.22769 0.46905 0.74659 0.0
H1371 H 0.10544 0.52881 0.74098 0.0
H1372 H 0.13491 0.60666 0.7651 0.0
H1373 H 0.1382 0.57995 0.75048 0.0
H1374 H 0.1898 0.45946 0.75968 0.0
H1375 H 0.18892 0.48716 0.77419 0.0
C1376 C 0.20317 0.46002 0.73397 0.0
C1377 C 0.17027 0.46913 0.72811 0.0
C1378 C 0.20138 0.4761 0.74228 0.0
C1379 C 0.16629 0.50118 0.74497 0.0
C1380 C 0.13332 0.51027 0.73908 0.0
C1381 C 0.1353 0.4944 0.73073 0.0
C1382 C 0.14693 0.57444 0.76399 0.0
C1383 C 0.16068 0.54868 0.77084 0.0
C1384 C 0.14848 0.559 0.75562 0.0
C1385 C 0.16402 0.51744 0.75389 0.0
C1386 C 0.1779 0.49173 0.76076 0.0
C1387 C 0.17654 0.50729 0.76913 0.0
H1388 H 0.26438 0.44696 0.52397 0.0
H1389 H 0.14513 0.38963 0.5156 0.0
H1390 H 0.29145 0.4446 0.50938 0.0
H1391 H 0.17201 0.38787 0.50096 0.0
H1392 H 0.21904 0.43789 0.47479 0.0
H1393 H 0.19144 0.43821 0.48937 0.0
H1394 H 0.31369 0.39141 0.49856 0.0
H1395 H 0.3411 0.39051 0.48398 0.0
C1396 C 0.24428 0.43297 0.51907 0.0
C1397 C 0.20302 0.4174 0.521 0.0
C1398 C 0.25968 0.43194 0.51068 0.0
C1399 C 0.23397 0.41579 0.50403 0.0
C1400 C 0.19247 0.40082 0.50594 0.0
C1401 C 0.17716 0.4017 0.51432 0.0
C1402 C 0.23968 0.4266 0.47988 0.0
C1403 C 0.28195 0.41317 0.47819 0.0
C1404 C 0.22396 0.42712 0.48825 0.0
C1405 C 0.25035 0.41471 0.49512 0.0
C1406 C 0.29269 0.40157 0.49343 0.0
C1407 C 0.30832 0.4009 0.48507 0.0
H1408 H 0.06373 0.16347 0.19555 0.0
H1409 H 0.09342 0.19581 0.16936 0.0
H1410 H 0.00603 0.21546 0.19556 0.0
H1411 H 0.03688 0.25021 0.16951 0.0
H1412 H 0.90515 0.31239 0.16926 0.0
H1413 H 0.96154 0.25781 0.16932 0.0
H1414 H 0.9886 0.28724 0.19579 0.0
H1415 H 0.93108 0.33933 0.19585 0.0
C1416 C 0.05875 0.1826 0.18985 0.0
C1417 C 0.08328 0.17548 0.18245 0.0
C1418 C 0.02549 0.2126 0.18986 0.0
C1419 C 0.01639 0.23705 0.18252 0.0
C1420 C 0.0422 0.23127 0.17522 0.0
C1421 C 0.07508 0.20055 0.17516 0.0
C1422 C 0.92261 0.30643 0.17512 0.0
C1423 C 0.91342 0.33009 0.18255 0.0
C1424 C 0.9554 0.27561 0.17514 0.0
C1425 C 0.98012 0.2683 0.18254 0.0
C1426 C 0.97 0.29129 0.19 0.0
C1427 C 0.93685 0.32139 0.19003 0.0
H1428 H 0.08811 0.81461 0.44685 0.0
H1429 H 0.05292 0.84422 0.42079 0.0
H1430 H 0.03679 0.75597 0.447 0.0
H1431 H 0.99981 0.78664 0.42107 0.0
H1432 H 0.91233 0.67859 0.44683 0.0
H1433 H 0.96428 0.73661 0.44713 0.0
H1434 H 0.99741 0.71045 0.42081 0.0
H1435 H 0.94364 0.6535 0.42039 0.0
C1436 C 0.06856 0.80937 0.44122 0.0
C1437 C 0.07474 0.834 0.43379 0.0
C1438 C 0.03907 0.77559 0.4413 0.0
C1439 C 0.01453 0.76606 0.434 0.0
C1440 C 0.01905 0.79226 0.42672 0.0
C1441 C 0.04903 0.8257 0.4266 0.0
C1442 C 0.93118 0.68465 0.44114 0.0
C1443 C 0.92364 0.66155 0.43356 0.0
C1444 C 0.96105 0.71807 0.44131 0.0
C1445 C 0.98464 0.72877 0.43396 0.0
C1446 C 0.97891 0.70393 0.42653 0.0
C1447 C 0.94854 0.67085 0.42631 0.0
H1448 H 0.43781 0.83593 0.66584 0.0
H1449 H 0.41161 0.79688 0.69184 0.0
H1450 H 0.49641 0.78407 0.66511 0.0
H1451 H 0.46942 0.74439 0.69101 0.0
H1452 H 0.60517 0.69785 0.6915 0.0
H1453 H 0.5471 0.75009 0.69082 0.0
H1454 H 0.51705 0.70861 0.66516 0.0
H1455 H 0.57594 0.65695 0.66575 0.0
C1456 C 0.44375 0.81551 0.67133 0.0
C1457 C 0.42032 0.82091 0.67894 0.0
C1458 C 0.47748 0.78587 0.67091 0.0
C1459 C 0.48827 0.76092 0.67808 0.0
C1460 C 0.46278 0.76413 0.68547 0.0
C1461 C 0.42927 0.79385 0.6859 0.0
C1462 C 0.58677 0.70044 0.68564 0.0
C1463 C 0.59498 0.67298 0.67871 0.0
C1464 C 0.55311 0.73 0.68529 0.0
C1465 C 0.52671 0.73264 0.67802 0.0
C1466 C 0.5367 0.70725 0.67086 0.0
C1467 C 0.5706 0.67776 0.67119 0.0
H1468 H 0.41071 0.18434 0.91628 0.0
H1469 H 0.44794 0.15398 0.94219 0.0
H1470 H 0.46273 0.24267 0.91601 0.0
H1471 H 0.50114 0.21135 0.94181 0.0
H1472 H 0.5545 0.34519 0.94278 0.0
H1473 H 0.50101 0.28814 0.94214 0.0
H1474 H 0.53645 0.2623 0.91593 0.0
H1475 H 0.58871 0.3203 0.91648 0.0
C1476 C 0.43081 0.18933 0.92184 0.0
C1477 C 0.42496 0.16465 0.92928 0.0
C1478 C 0.46062 0.22293 0.92169 0.0
C1479 C 0.48555 0.23232 0.92895 0.0
C1480 C 0.48153 0.20587 0.9362 0.0
C1481 C 0.45145 0.17256 0.93638 0.0
C1482 C 0.55027 0.32791 0.93683 0.0
C1483 C 0.57605 0.33722 0.9297 0.0
C1484 C 0.52001 0.29478 0.93649 0.0
C1485 C 0.5151 0.26992 0.92904 0.0
C1486 C 0.53926 0.28078 0.92177 0.0
C1487 C 0.56924 0.31419 0.92208 0.0
H1488 H 0.06417 0.85063 0.30241 0.0
H1489 H 0.09829 0.81764 0.32836 0.0
H1490 H 0.00749 0.79769 0.30262 0.0
H1491 H 0.04277 0.76204 0.3284 0.0
H1492 H 0.91342 0.69407 0.32885 0.0
H1493 H 0.9678 0.75079 0.32886 0.0
H1494 H 0.99339 0.72547 0.30217 0.0
H1495 H 0.93784 0.67147 0.30204 0.0
C1496 C 0.06036 0.83117 0.3081 0.0
C1497 C 0.08597 0.83821 0.31536 0.0
C1498 C 0.02769 0.8006 0.30822 0.0
C1499 C 0.02034 0.77535 0.31552 0.0
C1500 C 0.04688 0.78144 0.32271 0.0
C1501 C 0.07913 0.81284 0.32266 0.0
C1502 C 0.93011 0.70141 0.32296 0.0
C1503 C 0.92106 0.67841 0.31544 0.0
C1504 C 0.96174 0.73347 0.32299 0.0
C1505 C 0.98537 0.74266 0.31553 0.0
C1506 C 0.97549 0.7201 0.308 0.0
C1507 C 0.94348 0.68886 0.30793 0.0
H1508 H 0.55798 0.66543 0.57732 0.0
H1509 H 0.58784 0.69106 0.55084 0.0
H1510 H 0.50368 0.72189 0.57702 0.0
H1511 H 0.53537 0.74862 0.55065 0.0
H1512 H 0.44556 0.85463 0.57709 0.0
H1513 H 0.49971 0.79803 0.57677 0.0
H1514 H 0.46257 0.76655 0.55089 0.0
H1515 H 0.41022 0.82422 0.55108 0.0
C1516 C 0.55268 0.68283 0.57142 0.0
C1517 C 0.57725 0.67375 0.56411 0.0
C1518 C 0.522 0.71563 0.57128 0.0
C1519 C 0.51562 0.74041 0.56386 0.0
C1520 C 0.53905 0.73007 0.55646 0.0
C1521 C 0.56924 0.69693 0.55657 0.0
C1522 C 0.44962 0.83614 0.57128 0.0
C1523 C 0.42357 0.84395 0.56412 0.0
C1524 C 0.48022 0.80327 0.57113 0.0
C1525 C 0.48504 0.77714 0.56385 0.0
C1526 C 0.4601 0.78615 0.55658 0.0
C1527 C 0.42999 0.81936 0.55669 0.0
H1528 H 0.43063 0.16449 0.7989 0.0
H1529 H 0.40105 0.20102 0.82489 0.0
H1530 H 0.48904 0.2164 0.79864 0.0
H1531 H 0.45851 0.25412 0.82452 0.0
H1532 H 0.59286 0.30613 0.82543 0.0
H1533 H 0.53536 0.25314 0.82476 0.0
H1534 H 0.50889 0.2902 0.79867 0.0
H1535 H 0.56734 0.34195 0.79923 0.0
C1536 C 0.43581 0.18442 0.80449 0.0
C1537 C 0.41137 0.17836 0.81195 0.0
C1538 C 0.46945 0.21416 0.80434 0.0
C1539 C 0.47908 0.23882 0.81162 0.0
C1540 C 0.45282 0.23469 0.81889 0.0
C1541 C 0.41947 0.20467 0.81906 0.0
C1542 C 0.57533 0.30238 0.8195 0.0
C1543 C 0.58458 0.32846 0.81241 0.0
C1544 C 0.54195 0.27241 0.81915 0.0
C1545 C 0.51682 0.26811 0.81172 0.0
C1546 C 0.52759 0.29257 0.80449 0.0
C1547 C 0.56124 0.32226 0.80481 0.0
H1548 H 0.09043 0.18092 0.04954 0.0
H1549 H 0.05668 0.15408 0.07579 0.0
H1550 H 0.03851 0.23915 0.04922 0.0
H1551 H 0.0033 0.21132 0.07536 0.0
H1552 H 0.94945 0.34538 0.07575 0.0
H1553 H 0.00249 0.28785 0.07529 0.0
H1554 H 0.96537 0.25893 0.0493 0.0
H1555 H 0.91372 0.31748 0.04964 0.0
C1556 C 0.07113 0.18667 0.05518 0.0
C1557 C 0.07797 0.16299 0.06272 0.0
C1558 C 0.0413 0.22021 0.055 0.0
C1559 C 0.01722 0.23053 0.06231 0.0
C1560 C 0.02222 0.20511 0.06968 0.0
C1561 C 0.0524 0.17186 0.0699 0.0
C1562 C 0.95323 0.32728 0.06988 0.0
C1563 C 0.92726 0.33598 0.06274 0.0
C1564 C 0.98321 0.29387 0.06965 0.0
C1565 C 0.9876 0.26808 0.06232 0.0
C1566 C 0.96305 0.27817 0.05505 0.0
C1567 C 0.93342 0.31189 0.05524 0.0
H1568 H 0.0667 0.66478 0.83072 0.0
H1569 H 0.09304 0.69725 0.80439 0.0
H1570 H 0.00822 0.71626 0.83095 0.0
H1571 H 0.03562 0.75049 0.80473 0.0
H1572 H 0.90213 0.80582 0.80441 0.0
H1573 H 0.95949 0.75252 0.80481 0.0
H1574 H 0.98822 0.78869 0.83087 0.0
H1575 H 0.92979 0.84026 0.83059 0.0
C1576 C 0.06081 0.68378 0.82504 0.0
C1577 C 0.08446 0.67672 0.81751 0.0
C1578 C 0.02711 0.71338 0.82517 0.0
C1579 C 0.01663 0.73713 0.81782 0.0
C1580 C 0.04194 0.73185 0.81044 0.0
C1581 C 0.07532 0.70179 0.81027 0.0
C1582 C 0.92013 0.80169 0.81027 0.0
C1583 C 0.91138 0.82732 0.81746 0.0
C1584 C 0.95347 0.77159 0.81047 0.0
C1585 C 0.97915 0.76685 0.81781 0.0
C1586 C 0.96904 0.79116 0.82511 0.0
C1587 C 0.93537 0.82079 0.82496 0.0
H1588 H 0.94638 0.16383 0.55463 0.0
H1589 H 0.90928 0.19259 0.58061 0.0
H1590 H 0.99977 0.22103 0.55516 0.0
H1591 H 0.96117 0.25088 0.58102 0.0
H1592 H 0.08634 0.32834 0.5811 0.0
H1593 H 0.03409 0.27043 0.58131 0.0
H1594 H 1.00157 0.29733 0.55499 0.0
H1595 H 0.0554 0.35418 0.55467 0.0
C1596 C 0.94994 0.18206 0.56048 0.0
C1597 C 0.92354 0.17367 0.56757 0.0
C1598 C 0.98011 0.2153 0.56075 0.0
C1599 C 0.98421 0.24124 0.56807 0.0
C1600 C 0.95914 0.2315 0.57529 0.0
C1601 C 0.92937 0.19792 0.57506 0.0
C1602 C 0.06754 0.32247 0.57539 0.0
C1603 C 0.07526 0.34576 0.56784 0.0
C1604 C 0.03752 0.2891 0.57551 0.0
C1605 C 0.01408 0.2786 0.56812 0.0
C1606 C 0.01997 0.30366 0.56073 0.0
C1607 C 0.05039 0.3367 0.56057 0.0
H1608 H 0.43891 0.34054 0.33023 0.0
H1609 H 0.41077 0.30584 0.30407 0.0
H1610 H 0.49623 0.28757 0.33059 0.0
H1611 H 0.46709 0.25153 0.30455 0.0
H1612 H 0.60024 0.19619 0.30407 0.0
H1613 H 0.54375 0.2503 0.30456 0.0
H1614 H 0.51459 0.21372 0.33057 0.0
H1615 H 0.5721 0.1609 0.33019 0.0
C1616 C 0.44417 0.32081 0.32462 0.0
C1617 C 0.42044 0.32766 0.31709 0.0
C1618 C 0.47717 0.29042 0.32483 0.0
C1619 C 0.48687 0.26583 0.31755 0.0
C1620 C 0.46134 0.27084 0.31019 0.0
C1621 C 0.42863 0.30155 0.30995 0.0
C1622 C 0.58233 0.20032 0.30995 0.0
C1623 C 0.59059 0.17414 0.31707 0.0
C1624 C 0.54952 0.23091 0.31019 0.0
C1625 C 0.52394 0.23571 0.31754 0.0
C1626 C 0.53369 0.21103 0.32481 0.0
C1627 C 0.56681 0.18075 0.3246 0.0
H1628 H 0.59204 0.81669 0.05132 0.0
H1629 H 0.55769 0.84561 0.07746 0.0
H1630 H 0.54074 0.75815 0.05117 0.0
H1631 H 0.50442 0.78814 0.07716 0.0
H1632 H 0.44765 0.65489 0.07765 0.0
H1633 H 0.50115 0.71214 0.07735 0.0
H1634 H 0.46864 0.7387 0.05101 0.0
H1635 H 0.41712 0.68036 0.05118 0.0
C1636 C 0.57266 0.81133 0.05697 0.0
C1637 C 0.5791 0.83577 0.06442 0.0
C1638 C 0.54314 0.7776 0.05688 0.0
C1639 C 0.51873 0.76791 0.06419 0.0
C1640 C 0.52352 0.79389 0.07149 0.0
C1641 C 0.55359 0.82727 0.07163 0.0
C1642 C 0.45265 0.67241 0.07175 0.0
C1643 C 0.42812 0.66303 0.06445 0.0
C1644 C 0.48285 0.70567 0.07161 0.0
C1645 C 0.48874 0.73066 0.0642 0.0
C1646 C 0.46537 0.72002 0.05681 0.0
C1647 C 0.43573 0.6864 0.05691 0.0
H1648 H 0.93783 0.16459 0.6969 0.0
H1649 H 0.91665 0.18946 0.67006 0.0
H1650 H 0.99463 0.21751 0.69713 0.0
H1651 H 0.97231 0.24473 0.6704 0.0
H1652 H 0.10405 0.30651 0.67114 0.0
H1653 H 0.04766 0.25202 0.67113 0.0
H1654 H 0.01185 0.28963 0.69676 0.0
H1655 H 0.06941 0.34195 0.69693 0.0
C1656 C 0.94449 0.18221 0.69108 0.0
C1657 C 0.92269 0.17263 0.68344 0.0
C1658 C 0.97721 0.21278 0.69122 0.0
C1659 C 0.98852 0.23531 0.68377 0.0
C1660 C 0.96526 0.22725 0.67621 0.0
C1661 C 0.93289 0.19602 0.67604 0.0
C1662 C 0.08463 0.30242 0.67683 0.0
C1663 C 0.09138 0.32839 0.68405 0.0
C1664 C 0.05185 0.27164 0.67678 0.0
C1665 C 0.02468 0.26667 0.6839 0.0
C1666 C 0.03235 0.29195 0.6912 0.0
C1667 C 0.06553 0.32208 0.6913 0.0
H1668 H 0.43774 0.34245 0.42047 0.0
H1669 H 0.41032 0.31925 0.44715 0.0
H1670 H 0.49197 0.28588 0.42078 0.0
H1671 H 0.46258 0.26159 0.44734 0.0
H1672 H 0.55066 0.1531 0.42103 0.0
H1673 H 0.49682 0.21003 0.42126 0.0
H1674 H 0.53493 0.2431 0.447 0.0
H1675 H 0.58692 0.18509 0.44692 0.0
C1676 C 0.44355 0.32558 0.42642 0.0
C1677 C 0.41967 0.33545 0.43378 0.0
C1678 C 0.47419 0.29268 0.42657 0.0
C1679 C 0.48127 0.26856 0.43405 0.0
C1680 C 0.45845 0.27961 0.44148 0.0
C1681 C 0.42833 0.31282 0.44137 0.0
C1682 C 0.54688 0.17201 0.42679 0.0
C1683 C 0.57304 0.16446 0.43395 0.0
C1684 C 0.51645 0.2051 0.42689 0.0
C1685 C 0.5119 0.23176 0.4341 0.0
C1686 C 0.53709 0.22309 0.44136 0.0
C1687 C 0.567 0.18966 0.44131 0.0
H1688 H 0.59415 0.80501 0.19348 0.0
H1689 H 0.56735 0.83982 0.16728 0.0
H1690 H 0.53638 0.75227 0.19303 0.0
H1691 H 0.50859 0.78831 0.16693 0.0
H1692 H 0.42892 0.66338 0.16761 0.0
H1693 H 0.4876 0.71494 0.16707 0.0
H1694 H 0.45975 0.75352 0.19302 0.0
H1695 H 0.40207 0.70074 0.19367 0.0
C1696 C 0.57628 0.80105 0.18759 0.0
C1697 C 0.58527 0.82678 0.18043 0.0
C1698 C 0.54273 0.77124 0.18737 0.0
C1699 C 0.5171 0.76676 0.18001 0.0
C1700 C 0.52765 0.79081 0.1727 0.0
C1701 C 0.5615 0.82033 0.1729 0.0
C1702 C 0.43473 0.68344 0.17315 0.0
C1703 C 0.41099 0.6777 0.18072 0.0
C1704 C 0.46854 0.71299 0.17285 0.0
C1705 C 0.47907 0.73776 0.18006 0.0
C1706 C 0.45343 0.73399 0.18743 0.0
C1707 C 0.41992 0.70416 0.18777 0.0
H1708 H 0.94216 0.84352 0.91953 0.0
H1709 H 0.91156 0.81327 0.94579 0.0
H1710 H 0.9969 0.78718 0.91955 0.0
H1711 H 0.96369 0.75586 0.94565 0.0
H1712 H 0.08835 0.68341 0.94594 0.0
H1713 H 0.03574 0.74032 0.94581 0.0
H1714 H 0.0059 0.71165 0.91942 0.0
H1715 H 0.06116 0.65582 0.91941 0.0
C1716 C 0.94732 0.82509 0.92531 0.0
C1717 C 0.92274 0.83314 0.93267 0.0
C1718 C 0.97822 0.79235 0.92529 0.0
C1719 C 0.98464 0.76661 0.93259 0.0
C1720 C 0.96042 0.77536 0.93996 0.0
C1721 C 0.93031 0.80845 0.94003 0.0
C1722 C 0.07026 0.68868 0.94012 0.0
C1723 C 0.07901 0.66495 0.93268 0.0
C1724 C 0.03983 0.72147 0.94005 0.0
C1725 C 0.01647 0.73088 0.93259 0.0
C1726 C 0.02393 0.70596 0.92523 0.0
C1727 C 0.05513 0.67351 0.92525 0.0
H1728 H 0.321 1.00068 0.17174 0.0
H1729 H 0.3259 0.09367 0.19217 0.0
H1730 H 0.3994 0.9958 0.17187 0.0
H1731 H 0.4044 0.0881 0.19246 0.0
H1732 H 0.53566 0.01365 0.1967 0.0
H1733 H 0.45952 0.03252 0.1963 0.0
H1734 H 0.46477 0.03963 0.16878 0.0
H1735 H 0.54071 0.02078 0.16914 0.0
C1736 C 0.3389 0.02039 0.1762 0.0
C1737 C 0.3173 0.04748 0.18195 0.0
C1738 C 0.38382 0.01766 0.17628 0.0
C1739 C 0.40822 0.04169 0.18217 0.0
C1740 C 0.38657 0.06893 0.1879 0.0
C1741 C 0.34163 0.07199 0.18775 0.0
C1742 C 0.52094 0.02032 0.19057 0.0
C1743 C 0.54445 0.01519 0.18295 0.0
C1744 C 0.47719 0.0311 0.19034 0.0
C1745 C 0.45588 0.03676 0.1825 0.0
C1746 C 0.48005 0.03461 0.17492 0.0
C1747 C 0.52379 0.0242 0.17515 0.0
H1748 H 0.23042 0.2915 0.41879 0.0
H1749 H 0.22689 0.28897 0.44639 0.0
H1750 H 0.21093 0.21565 0.41844 0.0
H1751 H 0.2084 0.21297 0.44602 0.0
H1752 H 0.15445 0.07776 0.44251 0.0
H1753 H 0.15844 0.15637 0.44241 0.0
H1754 H 0.24992 0.15057 0.42167 0.0
H1755 H 0.24559 0.07222 0.42179 0.0
C1756 C 0.22463 0.2751 0.42479 0.0
C1757 C 0.23075 0.29646 0.43262 0.0
C1758 C 0.21392 0.23137 0.42458 0.0
C1759 C 0.20902 0.20782 0.4322 0.0
C1760 C 0.21186 0.22996 0.44002 0.0
C1761 C 0.22251 0.27373 0.44023 0.0
C1762 C 0.17551 0.09342 0.43796 0.0
C1763 C 0.1999 0.06892 0.43218 0.0
C1764 C 0.17774 0.13844 0.43788 0.0
C1765 C 0.20437 0.16 0.43201 0.0
C1766 C 0.22839 0.13527 0.42617 0.0
C1767 C 0.22614 0.09032 0.42626 0.0
H1768 H 0.96665 0.97634 0.69641 0.0
H1769 H 0.97204 0.98583 0.66889 0.0
H1770 H 0.04238 0.95661 0.69673 0.0
H1771 H 0.04794 0.96652 0.66924 0.0
H1772 H 0.18163 0.90759 0.67259 0.0
H1773 H 0.10312 0.91257 0.67247 0.0
H1774 H 0.10814 0.998 0.69422 0.0
H1775 H 0.18654 0.99312 0.69426 0.0
C1776 C 0.98364 0.97335 0.6904 0.0
C1777 C 0.96313 0.98321 0.68263 0.0
C1778 C 0.02728 0.96244 0.6906 0.0
C1779 C 0.05153 0.96085 0.68303 0.0
C1780 C 0.03028 0.96742 0.6752 0.0
C1781 C 0.98662 0.97848 0.675 0.0
C1782 C 0.16584 0.92754 0.67732 0.0
C1783 C 0.19015 0.9502 0.68341 0.0
C1784 C 0.1209 0.93032 0.67726 0.0
C1785 C 0.09921 0.9556 0.68334 0.0
C1786 C 0.12366 0.97764 0.68953 0.0
C1787 C 0.16858 0.97501 0.68955 0.0
H1788 H 0.26083 0.71168 0.91823 0.0
H1789 H 0.27826 0.70942 0.94563 0.0
H1790 H 0.27902 0.78788 0.91804 0.0
H1791 H 0.29634 0.78578 0.94539 0.0
H1792 H 0.35132 0.92206 0.94052 0.0
H1793 H 0.34686 0.84332 0.9403 0.0
H1794 H 0.23754 0.8511 0.92337 0.0
H1795 H 0.24154 0.92953 0.92376 0.0
C1796 C 0.26958 0.72703 0.92419 0.0
C1797 C 0.26753 0.7043 0.93196 0.0
C1798 C 0.27958 0.77092 0.92408 0.0
C1799 C 0.28824 0.79311 0.93172 0.0
C1800 C 0.28975 0.76967 0.9394 0.0
C1801 C 0.2794 0.7258 0.93952 0.0
C1802 C 0.32615 0.90683 0.93682 0.0
C1803 C 0.29674 0.93189 0.93216 0.0
C1804 C 0.32373 0.8618 0.93666 0.0
C1805 C 0.29213 0.8409 0.93175 0.0
C1806 C 0.26283 0.86611 0.92708 0.0
C1807 C 0.26499 0.91103 0.92732 0.0
H1808 H 0.32851 0.91292 0.3048 0.0
H1809 H 0.3254 0.01021 0.32444 0.0
H1810 H 0.40727 0.91526 0.30483 0.0
H1811 H 0.40386 0.01192 0.32463 0.0
H1812 H 0.54285 0.98235 0.32845 0.0
H1813 H 0.46646 0.96521 0.32847 0.0
H1814 H 0.4652 0.96828 0.30091 0.0
H1815 H 0.54175 0.98534 0.30083 0.0
C1816 C 0.34469 0.93489 0.3091 0.0
C1817 C 0.32087 0.96146 0.31461 0.0
C1818 C 0.38973 0.93606 0.30914 0.0
C1819 C 0.41183 0.96345 0.31479 0.0
C1820 C 0.38786 0.98982 0.32032 0.0
C1821 C 0.34294 0.98897 0.3202 0.0
C1822 C 0.52671 0.97827 0.32237 0.0
C1823 C 0.54852 0.98582 0.31463 0.0
C1824 C 0.48274 0.96886 0.3224 0.0
C1825 C 0.4596 0.96629 0.3147 0.0
C1826 C 0.48209 0.97013 0.30695 0.0
C1827 C 0.52604 0.9799 0.30691 0.0
H1828 H 0.33922 0.08661 0.55483 0.0
H1829 H 0.25021 0.08021 0.57591 0.0
H1830 H 0.33454 0.16524 0.55497 0.0
H1831 H 0.24571 0.15858 0.57614 0.0
H1832 H 0.26908 0.29908 0.57938 0.0
H1833 H 0.28819 0.2231 0.57932 0.0
H1834 H 0.28159 0.22177 0.55178 0.0
H1835 H 0.26302 0.29788 0.55179 0.0
C1836 C 0.3185 0.10206 0.55947 0.0
C1837 C 0.295 0.07733 0.56535 0.0
C1838 C 0.31594 0.14706 0.55957 0.0
C1839 C 0.29002 0.16831 0.56561 0.0
C1840 C 0.2667 0.14339 0.57151 0.0
C1841 C 0.26909 0.09848 0.57137 0.0
C1842 C 0.27275 0.28298 0.57329 0.0
C1843 C 0.26394 0.30469 0.56559 0.0
C1844 C 0.28327 0.23921 0.57327 0.0
C1845 C 0.28551 0.21608 0.56556 0.0
C1846 C 0.28012 0.23854 0.55783 0.0
C1847 C 0.26944 0.28231 0.55785 0.0
H1848 H 0.17659 0.00731 0.82577 0.0
H1849 H 0.16959 0.0902 0.80372 0.0
H1850 H 0.09832 0.00219 0.82602 0.0
H1851 H 0.09112 0.08509 0.80391 0.0
H1852 H 0.95958 0.01281 0.80115 0.0
H1853 H 0.03543 0.03196 0.80116 0.0
H1854 H 0.03282 0.04279 0.82865 0.0
H1855 H 0.95707 0.02288 0.82869 0.0
C1856 C 0.15821 0.02478 0.82103 0.0
C1857 C 0.1792 0.04894 0.8147 0.0
C1858 C 0.11332 0.02204 0.82118 0.0
C1859 C 0.08825 0.04338 0.815 0.0
C1860 C 0.10936 0.06788 0.80871 0.0
C1861 C 0.15431 0.0707 0.80858 0.0
C1862 C 0.97481 0.02024 0.8072 0.0
C1863 C 0.95211 0.01573 0.81493 0.0
C1864 C 0.01846 0.03128 0.80719 0.0
C1865 C 0.04054 0.03812 0.81492 0.0
C1866 C 0.01708 0.03675 0.8226 0.0
C1867 C 0.97342 0.02578 0.8226 0.0
H1868 H 0.23621 0.70842 0.05135 0.0
H1869 H 0.23867 0.70985 0.07895 0.0
H1870 H 0.21803 0.78458 0.05127 0.0
H1871 H 0.21967 0.78583 0.07885 0.0
H1872 H 0.25481 0.9284 0.07485 0.0
H1873 H 0.25979 0.85009 0.0752 0.0
H1874 H 0.16761 0.84192 0.05461 0.0
H1875 H 0.16285 0.92055 0.0543 0.0
C1876 C 0.23168 0.72457 0.05741 0.0
C1877 C 0.23953 0.7029 0.06516 0.0
C1878 C 0.22124 0.76841 0.05736 0.0
C1879 C 0.21828 0.79167 0.06505 0.0
C1880 C 0.22278 0.7692 0.0728 0.0
C1881 C 0.23322 0.7254 0.07286 0.0
C1882 C 0.2354 0.90979 0.07045 0.0
C1883 C 0.20849 0.93051 0.06455 0.0
C1884 C 0.23802 0.86489 0.07067 0.0
C1885 C 0.21381 0.83951 0.06498 0.0
C1886 C 0.18693 0.86038 0.05905 0.0
C1887 C 0.18427 0.90539 0.05885 0.0
H1888 H 0.45673 0.97806 0.80117 0.0
H1889 H 0.4601 0.99783 0.8285 0.0
H1890 H 0.53301 0.95981 0.80135 0.0
H1891 H 0.53613 0.97933 0.82864 0.0
H1892 H 0.67772 0.01405 0.82303 0.0
H1893 H 0.59943 0.01933 0.82329 0.0
H1894 H 0.59055 0.90987 0.80639 0.0
H1895 H 0.66921 0.90432 0.80627 0.0
C1896 C 0.47333 0.97741 0.80725 0.0
C1897 C 0.45216 0.99 0.8148 0.0
C1898 C 0.51717 0.96697 0.80734 0.0
C1899 C 0.54089 0.96901 0.81498 0.0
C1900 C 0.51901 0.9784 0.82262 0.0
C1901 C 0.47521 0.9886 0.82254 0.0
C1902 C 0.65899 0.99092 0.81944 0.0
C1903 C 0.6795 0.95874 0.81465 0.0
C1904 C 0.61414 0.99379 0.8196 0.0
C1905 C 0.58864 0.96474 0.81492 0.0
C1906 C 0.60923 0.93282 0.81004 0.0
C1907 C 0.65421 0.92974 0.80994 0.0
H1908 H 0.76642 0.72151 0.57831 0.0
H1909 H 0.77018 0.71732 0.55072 0.0
H1910 H 0.78531 0.79756 0.57793 0.0
H1911 H 0.78937 0.79325 0.55038 0.0
H1912 H 0.75164 0.9372 0.55361 0.0
H1913 H 0.7475 0.85869 0.55349 0.0
H1914 H 0.83882 0.85308 0.57425 0.0
H1915 H 0.84322 0.93169 0.57426 0.0
C1916 C 0.77241 0.73639 0.57217 0.0
C1917 C 0.76624 0.71315 0.56455 0.0
C1918 C 0.78323 0.78013 0.57196 0.0
C1919 C 0.78805 0.80175 0.56412 0.0
C1920 C 0.78498 0.7778 0.55652 0.0
C1921 C 0.77439 0.73405 0.55673 0.0
C1922 C 0.77123 0.91911 0.55806 0.0
C1923 C 0.79756 0.94053 0.56397 0.0
C1924 C 0.769 0.87413 0.55798 0.0
C1925 C 0.79291 0.84949 0.56385 0.0
C1926 C 0.81967 0.87103 0.5697 0.0
C1927 C 0.8221 0.91602 0.56972 0.0
H1928 H 0.828 0.09641 0.32385 0.0
H1929 H 0.82684 0.00251 0.30357 0.0
H1930 H 0.9067 0.09537 0.32391 0.0
H1931 H 0.9054 1.00179 0.30351 0.0
H1932 H 0.04498 0.0302 0.30061 0.0
H1933 H 0.96864 0.04731 0.30025 0.0
H1934 H 0.9643 0.04371 0.3278 0.0
H1935 H 0.04077 0.02682 0.32821 0.0
C1936 C 0.84465 0.07552 0.31941 0.0
C1937 C 0.82139 0.04937 0.31372 0.0
C1938 C 0.88966 0.07503 0.31942 0.0
C1939 C 0.91238 0.04868 0.31369 0.0
C1940 C 0.88896 0.02305 0.30791 0.0
C1941 C 0.84399 0.02331 0.30795 0.0
C1942 C 0.02815 0.03414 0.30662 0.0
C1943 C 0.04913 0.0265 0.31445 0.0
C1944 C 0.9842 0.04354 0.30639 0.0
C1945 C 0.96017 0.04592 0.31398 0.0
C1946 C 0.98183 0.04205 0.32183 0.0
C1947 C 0.0258 0.0324 0.32207 0.0
H1948 H 0.75331 0.073 0.07595 0.0
H1949 H 0.66101 0.07904 0.05543 0.0
H1950 H 0.75821 0.15133 0.07603 0.0
H1951 H 0.66556 0.15763 0.05549 0.0
H1952 H 0.73379 0.29039 0.05148 0.0
H1953 H 0.71532 0.21435 0.05182 0.0
H1954 H 0.71945 0.21636 0.07939 0.0
H1955 H 0.73888 0.29222 0.07907 0.0
C1956 C 0.73375 0.09121 0.07151 0.0
C1957 C 0.70691 0.06996 0.06567 0.0
C1958 C 0.73632 0.13615 0.07158 0.0
C1959 C 0.71207 0.16102 0.0658 0.0
C1960 C 0.68501 0.1396 0.05998 0.0
C1961 C 0.68245 0.09459 0.05992 0.0
C1962 C 0.72974 0.27499 0.05763 0.0
C1963 C 0.73844 0.29753 0.06524 0.0
C1964 C 0.71913 0.2312 0.05783 0.0
C1965 C 0.71678 0.20885 0.06563 0.0
C1966 C 0.72211 0.23222 0.07326 0.0
C1967 C 0.73278 0.27596 0.07307 0.0
H1968 H 0.68005 0.09488 0.67494 0.0
H1969 H 0.68954 0.98613 0.69192 0.0
H1970 H 0.60147 0.08914 0.67518 0.0
H1971 H 0.61124 0.98043 0.69226 0.0
H1972 H 0.4712 0.99969 0.69715 0.0
H1973 H 0.54715 0.01857 0.69743 0.0
H1974 H 0.54465 0.0397 0.67017 0.0
H1975 H 0.4685 0.0212 0.66987 0.0
C1976 C 0.66525 0.06966 0.67869 0.0
C1977 C 0.69079 0.04089 0.68341 0.0
C1978 C 0.62031 0.06643 0.67885 0.0
C1979 C 0.59997 0.03455 0.68379 0.0
C1980 C 0.62573 0.00592 0.68852 0.0
C1981 C 0.67057 0.009 0.68831 0.0
C1982 C 0.48647 0.0093 0.69123 0.0
C1983 C 0.46363 0.00839 0.68347 0.0
C1984 C 0.53022 0.01973 0.69138 0.0
C1985 C 0.55225 0.02976 0.6838 0.0
C1986 C 0.52872 0.03211 0.67614 0.0
C1987 C 0.48493 0.02152 0.67597 0.0
H1988 H 0.73094 0.70854 0.44604 0.0
H1989 H 0.73485 0.70916 0.41844 0.0
H1990 H 0.71257 0.78463 0.446 0.0
H1991 H 0.71556 0.78508 0.41842 0.0
H1992 H 0.74866 0.92821 0.42224 0.0
H1993 H 0.7543 0.84994 0.42197 0.0
H1994 H 0.66237 0.84152 0.44259 0.0
H1995 H 0.65704 0.92008 0.44284 0.0
C1996 C 0.7267 0.7245 0.43995 0.0
C1997 C 0.73496 0.7026 0.43225 0.0
C1998 C 0.71614 0.76832 0.43993 0.0
C1999 C 0.71344 0.79136 0.43221 0.0
C2000 C 0.71846 0.76867 0.42449 0.0
C2001 C 0.72906 0.72489 0.42451 0.0
C2002 C 0.72943 0.90955 0.42666 0.0
C2003 C 0.70248 0.93021 0.43256 0.0
C2004 C 0.73243 0.86465 0.42649 0.0
C2005 C 0.70854 0.8392 0.43222 0.0
C2006 C 0.68152 0.86001 0.43813 0.0
C2007 C 0.67851 0.90501 0.43829 0.0
H2008 H 0.82115 0.00338 0.19379 0.0
H2009 H 0.8258 0.90853 0.17371 0.0
H2010 H 0.89963 0.00779 0.1937 0.0
H2011 H 0.90436 0.91341 0.17348 0.0
H2012 H 0.03576 0.98648 0.16889 0.0
H2013 H 0.95964 0.96776 0.16941 0.0
H2014 H 0.96503 0.96479 0.19696 0.0
H2015 H 0.04099 0.98354 0.19648 0.0
C2016 C 0.83904 0.98312 0.18942 0.0
C2017 C 0.81739 0.95563 0.18376 0.0
C2018 C 0.88399 0.98556 0.18937 0.0
C2019 C 0.90835 0.96082 0.18359 0.0
C2020 C 0.8866 0.93312 0.17796 0.0
C2021 C 0.84165 0.9304 0.17808 0.0
C2022 C 0.02109 0.98074 0.17506 0.0
C2023 C 0.04464 0.98704 0.18264 0.0
C2024 C 0.97733 0.97005 0.17536 0.0
C2025 C 0.95604 0.96561 0.18324 0.0
C2026 C 0.98026 0.96888 0.19079 0.0
C2027 C 0.02402 0.97923 0.1905 0.0
H2028 H 0.77525 0.29026 0.91987 0.0
H2029 H 0.75682 0.28843 0.94724 0.0
H2030 H 0.79385 0.21403 0.9202 0.0
H2031 H 0.7755 0.21239 0.94752 0.0
H2032 H 0.74033 0.07 0.94194 0.0
H2033 H 0.73536 0.14844 0.94229 0.0
H2034 H 0.84466 0.15731 0.92537 0.0
H2035 H 0.84992 0.0786 0.92517 0.0
C2036 C 0.77626 0.27402 0.92598 0.0
C2037 C 0.76397 0.29558 0.93351 0.0
C2038 C 0.78689 0.23021 0.92616 0.0
C2039 C 0.7853 0.20693 0.93386 0.0
C2040 C 0.77612 0.2292 0.94146 0.0
C2041 C 0.76578 0.27298 0.9413 0.0
C2042 C 0.76356 0.08879 0.93839 0.0
C2043 C 0.79549 0.0683 0.93354 0.0
C2044 C 0.76085 0.13369 0.93859 0.0
C2045 C 0.78982 0.15919 0.9339 0.0
C2046 C 0.82174 0.13861 0.92902 0.0
C2047 C 0.82468 0.09363 0.92889 0.0
H2048 H 0.04907 0.52338 0.69731 0.0
H2049 H 0.04503 0.5156 0.66975 0.0
H2050 H 0.97312 0.54237 0.69753 0.0
H2051 H 0.96898 0.53413 0.67001 0.0
H2052 H 0.83435 0.59052 0.67316 0.0
H2053 H 0.91294 0.58709 0.67326 0.0
H2054 H 0.90808 0.50005 0.69475 0.0
H2055 H 0.8296 0.50338 0.69457 0.0
C2056 C 0.03235 0.52666 0.69128 0.0
C2057 C 0.05329 0.5174 0.68352 0.0
C2058 C 0.98859 0.53712 0.69142 0.0
C2059 C 0.96468 0.5389 0.6838 0.0
C2060 C 0.98636 0.53307 0.676 0.0
C2061 C 0.03011 0.52244 0.67586 0.0
C2062 C 0.85019 0.57056 0.67788 0.0
C2063 C 0.82592 0.54697 0.68383 0.0
C2064 C 0.89517 0.56868 0.67795 0.0
C2065 C 0.91692 0.54339 0.68402 0.0
C2066 C 0.89249 0.52044 0.69007 0.0
C2067 C 0.84753 0.52217 0.68996 0.0
H2068 H 0.76135 0.57113 0.92477 0.0
H2069 H 0.65042 0.5786 0.94123 0.0
H2070 H 0.76519 0.64956 0.92435 0.0
H2071 H 0.65485 0.65742 0.941 0.0
H2072 H 0.72403 0.79222 0.94608 0.0
H2073 H 0.70602 0.71577 0.94608 0.0
H2074 H 0.72216 0.71186 0.91871 0.0
H2075 H 0.74011 0.7881 0.91866 0.0
C2076 C 0.73767 0.58964 0.92827 0.0
C2077 C 0.70556 0.56878 0.93301 0.0
C2078 C 0.73975 0.63454 0.92801 0.0
C2079 C 0.71004 0.65976 0.93257 0.0
C2080 C 0.67824 0.63889 0.93743 0.0
C2081 C 0.67585 0.59384 0.9376 0.0
C2082 C 0.72259 0.77543 0.94002 0.0
C2083 C 0.73411 0.79643 0.93238 0.0
C2084 C 0.71231 0.73151 0.94004 0.0
C2085 C 0.71358 0.70757 0.93242 0.0
C2086 C 0.72179 0.72925 0.92471 0.0
C2087 C 0.73168 0.77316 0.92468 0.0
H2088 H 0.46128 0.49237 0.19782 0.0
H2089 H 0.45651 0.48283 0.17028 0.0
H2090 H 0.53752 0.47373 0.19751 0.0
H2091 H 0.53253 0.46433 0.17003 0.0
H2092 H 0.67571 0.5053 0.17296 0.0
H2093 H 0.59731 0.50985 0.17314 0.0
H2094 H 0.59302 0.41747 0.19372 0.0
H2095 H 0.67154 0.41208 0.19336 0.0
C2096 C 0.47608 0.48523 0.19172 0.0
C2097 C 0.45264 0.48961 0.18407 0.0
C2098 C 0.51987 0.47459 0.19155 0.0
C2099 C 0.54124 0.46839 0.18373 0.0
C2100 C 0.51716 0.46976 0.17614 0.0
C2101 C 0.47339 0.47998 0.17631 0.0
C2102 C 0.65798 0.4855 0.17743 0.0
C2103 C 0.67978 0.45836 0.18314 0.0
C2104 C 0.61308 0.48805 0.17754 0.0
C2105 C 0.5889 0.46384 0.18342 0.0
C2106 C 0.61072 0.43672 0.18915 0.0
C2107 C 0.65566 0.43379 0.18896 0.0
H2108 H 0.76836 0.20925 0.44556 0.0
H2109 H 0.75959 0.20757 0.418 0.0
H2110 H 0.7872 0.28507 0.44514 0.0
H2111 H 0.77936 0.28337 0.4176 0.0
H2112 H 0.74637 0.4271 0.42147 0.0
H2113 H 0.74146 0.34873 0.42123 0.0
H2114 H 0.83694 0.34128 0.44123 0.0
H2115 H 0.84146 0.41985 0.44146 0.0
C2116 C 0.77165 0.22461 0.43938 0.0
C2117 C 0.76185 0.20215 0.43182 0.0
C2118 C 0.78251 0.26831 0.43915 0.0
C2119 C 0.78398 0.2907 0.43134 0.0
C2120 C 0.77746 0.26744 0.42374 0.0
C2121 C 0.76659 0.22375 0.42397 0.0
C2122 C 0.76655 0.40861 0.42575 0.0
C2123 C 0.79411 0.4295 0.43151 0.0
C2124 C 0.76397 0.36367 0.42559 0.0
C2125 C 0.78896 0.33849 0.43119 0.0
C2126 C 0.8169 0.35956 0.43689 0.0
C2127 C 0.81945 0.40455 0.43704 0.0
H2128 H 0.82664 0.41503 0.80419 0.0
H2129 H 0.82043 0.49878 0.82612 0.0
H2130 H 0.90517 0.41953 0.80437 0.0
H2131 H 0.89874 0.50331 0.82635 0.0
H2132 H 0.03966 0.48143 0.82909 0.0
H2133 H 0.96378 0.46202 0.82906 0.0
H2134 H 0.96139 0.47209 0.80155 0.0
H2135 H 0.03737 0.49075 0.80155 0.0
C2136 C 0.84211 0.43459 0.80902 0.0
C2137 C 0.81744 0.45673 0.81512 0.0
C2138 C 0.88709 0.43705 0.80915 0.0
C2139 C 0.90841 0.46159 0.8154 0.0
C2140 C 0.88355 0.4834 0.82154 0.0
C2141 C 0.83864 0.48101 0.8214 0.0
C2142 C 0.02333 0.47845 0.82301 0.0
C2143 C 0.04473 0.48819 0.81533 0.0
C2144 C 0.9796 0.46778 0.823 0.0
C2145 C 0.95617 0.46639 0.81532 0.0
C2146 C 0.97834 0.47282 0.80759 0.0
C2147 C 0.02206 0.48356 0.8076 0.0
H2148 H 0.76706 0.79147 0.07977 0.0
H2149 H 0.77221 0.79086 0.05218 0.0
H2150 H 0.78685 0.71565 0.07995 0.0
H2151 H 0.79084 0.71501 0.05237 0.0
H2152 H 0.84471 0.57996 0.05535 0.0
H2153 H 0.84022 0.65849 0.05574 0.0
H2154 H 0.74966 0.6502 0.07661 0.0
H2155 H 0.75474 0.57189 0.07623 0.0
C2156 C 0.77323 0.77551 0.07374 0.0
C2157 C 0.76755 0.79745 0.06595 0.0
C2158 C 0.78409 0.73178 0.07385 0.0
C2159 C 0.78956 0.70878 0.06617 0.0
C2160 C 0.78702 0.73151 0.05842 0.0
C2161 C 0.77627 0.77525 0.05831 0.0
C2162 C 0.82378 0.59507 0.05999 0.0
C2163 C 0.79988 0.56988 0.06573 0.0
C2164 C 0.82123 0.64007 0.06023 0.0
C2165 C 0.79466 0.66094 0.06622 0.0
C2166 C 0.77113 0.63549 0.07202 0.0
C2167 C 0.77378 0.59055 0.07178 0.0
H2168 H 0.46937 0.51179 0.30072 0.0
H2169 H 0.46933 0.52476 0.32822 0.0
H2170 H 0.54533 0.53063 0.30039 0.0
H2171 H 0.54546 0.54321 0.32786 0.0
H2172 H 0.68065 0.5986 0.3234 0.0
H2173 H 0.60204 0.59383 0.32326 0.0
H2174 H 0.6096 0.49054 0.30486 0.0
H2175 H 0.68798 0.49522 0.3051 0.0
C2176 C 0.48523 0.51954 0.30669 0.0
C2177 C 0.46315 0.51619 0.31451 0.0
C2178 C 0.52896 0.52994 0.3065 0.0
C2179 C 0.55173 0.53752 0.31411 0.0
C2180 C 0.52894 0.53755 0.32187 0.0
C2181 C 0.48517 0.52699 0.32207 0.0
C2182 C 0.66536 0.57478 0.31937 0.0
C2183 C 0.69031 0.54719 0.31427 0.0
C2184 C 0.62041 0.57212 0.31927 0.0
C2185 C 0.59945 0.54201 0.31401 0.0
C2186 C 0.62459 0.51467 0.30886 0.0
C2187 C 0.66948 0.51718 0.30901 0.0
H2188 H 0.74829 0.43704 0.57609 0.0
H2189 H 0.65927 0.43126 0.555 0.0
H2190 H 0.75235 0.35864 0.57629 0.0
H2191 H 0.66361 0.35264 0.5551 0.0
H2192 H 0.73573 0.22056 0.55161 0.0
H2193 H 0.71685 0.2966 0.55178 0.0
H2194 H 0.71032 0.29355 0.57932 0.0
H2195 H 0.72969 0.21762 0.57919 0.0
C2196 C 0.72926 0.41893 0.57155 0.0
C2197 C 0.70368 0.44029 0.5655 0.0
C2198 C 0.73143 0.37397 0.57167 0.0
C2199 C 0.70816 0.34922 0.56573 0.0
C2200 C 0.68225 0.37067 0.55972 0.0
C2201 C 0.6799 0.41569 0.55963 0.0
C2202 C 0.72925 0.23574 0.5577 0.0
C2203 C 0.7348 0.21286 0.56539 0.0
C2204 C 0.71838 0.27947 0.55779 0.0
C2205 C 0.71289 0.30144 0.56557 0.0
C2206 C 0.71526 0.27783 0.57322 0.0
C2207 C 0.72593 0.23408 0.57313 0.0
H2208 H 0.18155 0.4125 0.32484 0.0
H2209 H 0.18681 0.50491 0.30432 0.0
H2210 H 0.10296 0.41698 0.32487 0.0
H2211 H 0.10841 0.5092 0.30426 0.0
H2212 H 0.96783 0.48562 0.30118 0.0
H2213 H 0.04378 0.46676 0.30097 0.0
H2214 H 0.0467 0.46977 0.32853 0.0
H2215 H 0.97058 0.48827 0.32879 0.0
C2216 C 0.16584 0.43387 0.32035 0.0
C2217 C 0.19022 0.45845 0.31459 0.0
C2218 C 0.12087 0.43633 0.32035 0.0
C2219 C 0.0993 0.46322 0.31453 0.0
C2220 C 0.12386 0.48751 0.30872 0.0
C2221 C 0.16877 0.48522 0.30876 0.0
C2222 C 0.98429 0.48128 0.30722 0.0
C2223 C 0.963 0.48905 0.315 0.0
C2224 C 0.02803 0.47087 0.30708 0.0
C2225 C 0.05158 0.46767 0.31472 0.0
C2226 C 0.02957 0.472 0.32253 0.0
C2227 C 0.9858 0.48259 0.32267 0.0
H2228 H 0.27461 0.21015 0.05206 0.0
H2229 H 0.26233 0.20829 0.07956 0.0
H2230 H 0.29333 0.28605 0.05259 0.0
H2231 H 0.28193 0.28411 0.08009 0.0
H2232 H 0.24952 0.42797 0.07604 0.0
H2233 H 0.24444 0.34958 0.07624 0.0
H2234 H 0.34286 0.34202 0.05683 0.0
H2235 H 0.34759 0.42057 0.05664 0.0
C2236 C 0.27708 0.22551 0.05825 0.0
C2237 C 0.26638 0.20299 0.06575 0.0
C2238 C 0.28786 0.26922 0.05855 0.0
C2239 C 0.28833 0.29153 0.06637 0.0
C2240 C 0.28084 0.26823 0.07393 0.0
C2241 C 0.27005 0.22453 0.07363 0.0
C2242 C 0.27033 0.40945 0.07189 0.0
C2243 C 0.29882 0.43028 0.06631 0.0
C2244 C 0.26763 0.36451 0.07202 0.0
C2245 C 0.29339 0.3393 0.06657 0.0
C2246 C 0.32223 0.36033 0.06105 0.0
C2247 C 0.32492 0.4053 0.06092 0.0
H2248 H 0.31907 0.49182 0.82371 0.0
H2249 H 0.3275 0.60126 0.80687 0.0
H2250 H 0.39737 0.48697 0.82407 0.0
H2251 H 0.40617 0.59626 0.80712 0.0
H2252 H 0.54022 0.52923 0.80199 0.0
H2253 H 0.46398 0.54726 0.80217 0.0
H2254 H 0.46061 0.52638 0.82942 0.0
H2255 H 0.53668 0.50797 0.82927 0.0
C2256 C 0.33779 0.51499 0.82012 0.0
C2257 C 0.31725 0.5469 0.81527 0.0
C2258 C 0.38265 0.51239 0.82035 0.0
C2259 C 0.40815 0.5415 0.81569 0.0
C2260 C 0.38752 0.57323 0.81076 0.0
C2261 C 0.34253 0.57601 0.81058 0.0
C2262 C 0.5236 0.52952 0.80806 0.0
C2263 C 0.54473 0.51654 0.8156 0.0
C2264 C 0.47975 0.53986 0.80816 0.0
C2265 C 0.45594 0.53736 0.81578 0.0
C2266 C 0.47778 0.52764 0.82341 0.0
C2267 C 0.52161 0.5175 0.82333 0.0
H2268 H 0.24262 0.79683 0.5797 0.0
H2269 H 0.22294 0.8007 0.55237 0.0
H2270 H 0.22438 0.72067 0.57977 0.0
H2271 H 0.20503 0.72437 0.55248 0.0
H2272 H 0.15133 0.58741 0.55709 0.0
H2273 H 0.15581 0.66618 0.55738 0.0
H2274 H 0.26494 0.65789 0.57436 0.0
H2275 H 0.26068 0.5795 0.57395 0.0
C2276 C 0.23344 0.78182 0.57373 0.0
C2277 C 0.23489 0.80503 0.56601 0.0
C2278 C 0.2234 0.73795 0.57376 0.0
C2279 C 0.21421 0.71619 0.5661 0.0
C2280 C 0.21206 0.7401 0.55849 0.0
C2281 C 0.22233 0.78399 0.55844 0.0
C2282 C 0.17645 0.60257 0.56081 0.0
C2283 C 0.20568 0.57743 0.5655 0.0
C2284 C 0.17891 0.64761 0.56101 0.0
C2285 C 0.21042 0.66838 0.56597 0.0
C2286 C 0.23969 0.64302 0.57063 0.0
C2287 C 0.23742 0.59812 0.57036 0.0
H2288 H 0.17573 0.50156 0.19455 0.0
H2289 H 0.17134 0.59572 0.17434 0.0
H2290 H 0.09724 0.49758 0.1945 0.0
H2291 H 0.09274 0.59139 0.17417 0.0
H2292 H 0.96084 0.51931 0.16974 0.0
H2293 H 0.03699 0.53778 0.17021 0.0
H2294 H 0.03221 0.54056 0.19776 0.0
H2295 H 0.95622 0.52195 0.19733 0.0
C2296 C 0.15787 0.52175 0.19016 0.0
C2297 C 0.17959 0.54893 0.18445 0.0
C2298 C 0.11293 0.51959 0.19014 0.0
C2299 C 0.08863 0.54432 0.18435 0.0
C2300 C 0.11045 0.57169 0.17866 0.0
C2301 C 0.15542 0.57411 0.17875 0.0
C2302 C 0.97564 0.52497 0.1759 0.0
C2303 C 0.95227 0.51859 0.18349 0.0
C2304 C 0.01943 0.53552 0.17616 0.0
C2305 C 0.04091 0.53981 0.18403 0.0
C2306 C 0.01684 0.53656 0.1916 0.0
C2307 C 0.97307 0.52629 0.19134 0.0
H2308 H 0.15267 0.42197 0.92572 0.0
H2309 H 0.26071 0.42951 0.94292 0.0
H2310 H 0.15698 0.34329 0.92597 0.0
H2311 H 0.26491 0.35103 0.94326 0.0
H2312 H 0.24462 0.21053 0.94762 0.0
H2313 H 0.22581 0.28652 0.94815 0.0
H2314 H 0.20668 0.28685 0.92084 0.0
H2315 H 0.22518 0.21073 0.92027 0.0
C2316 C 0.17736 0.40671 0.92955 0.0
C2317 C 0.20647 0.43175 0.93428 0.0
C2318 C 0.17977 0.36171 0.9297 0.0
C2319 C 0.21114 0.34078 0.93467 0.0
C2320 C 0.23985 0.36601 0.93949 0.0
C2321 C 0.2376 0.41095 0.93928 0.0
C2322 C 0.23539 0.2264 0.94174 0.0
C2323 C 0.23695 0.20439 0.93388 0.0
C2324 C 0.22501 0.27018 0.94204 0.0
C2325 C 0.2156 0.29301 0.93452 0.0
C2326 C 0.21377 0.27027 0.92676 0.0
C2327 C 0.22436 0.2265 0.92644 0.0
H2328 H 0.54573 0.48836 0.69688 0.0
H2329 H 0.54741 0.4785 0.66934 0.0
H2330 H 0.46945 0.47017 0.69692 0.0
H2331 H 0.47128 0.46017 0.66942 0.0
H2332 H 0.32868 0.50127 0.67283 0.0
H2333 H 0.40708 0.50516 0.67263 0.0
H2334 H 0.41302 0.41529 0.69363 0.0
H2335 H 0.33442 0.41076 0.69369 0.0
C2336 C 0.53021 0.48122 0.69085 0.0
C2337 C 0.55281 0.4854 0.6831 0.0
C2338 C 0.48639 0.47079 0.69088 0.0
C2339 C 0.46409 0.46454 0.68316 0.0
C2340 C 0.48735 0.46566 0.67547 0.0
C2341 C 0.53119 0.47574 0.67543 0.0
C2342 C 0.34677 0.48194 0.67733 0.0
C2343 C 0.32542 0.45578 0.68328 0.0
C2344 C 0.39168 0.48406 0.67721 0.0
C2345 C 0.41637 0.46032 0.68308 0.0
C2346 C 0.39496 0.43416 0.68905 0.0
C2347 C 0.34998 0.43174 0.68911 0.0
H2348 H 0.27019 0.79175 0.44612 0.0
H2349 H 0.26028 0.78898 0.41858 0.0
H2350 H 0.28785 0.7155 0.44617 0.0
H2351 H 0.2787 0.71285 0.41865 0.0
H2352 H 0.24205 0.57115 0.42342 0.0
H2353 H 0.23827 0.64951 0.42295 0.0
H2354 H 0.33675 0.65724 0.44235 0.0
H2355 H 0.34036 0.57852 0.44278 0.0
C2356 C 0.273 0.7753 0.44005 0.0
C2357 C 0.26316 0.79664 0.43235 0.0
C2358 C 0.28314 0.73139 0.44008 0.0
C2359 C 0.28376 0.70773 0.43243 0.0
C2360 C 0.27741 0.72984 0.42468 0.0
C2361 C 0.26731 0.77372 0.42464 0.0
C2362 C 0.26308 0.58967 0.42753 0.0
C2363 C 0.29145 0.56882 0.43314 0.0
C2364 C 0.26115 0.63459 0.42723 0.0
C2365 C 0.28751 0.65984 0.43256 0.0
C2366 C 0.31582 0.63886 0.4382 0.0
C2367 C 0.31782 0.59381 0.43847 0.0
H2368 H 0.13995 0.05538 0.09933 0.0
H2369 H 0.26686 0.10292 0.10542 0.0
H2370 H 0.12745 0.03978 0.11438 0.0
H2371 H 0.25442 0.0868 0.12049 0.0
H2372 H 0.19264 0.10352 0.1471 0.0
H2373 H 0.2085 0.11484 0.13205 0.0
H2374 H 0.15184 0.99171 0.126 0.0
H2375 H 0.13541 0.98046 0.14111 0.0
C2376 C 0.16527 0.06238 0.10387 0.0
C2377 C 0.20433 0.08067 0.10118 0.0
C2378 C 0.1582 0.05309 0.11249 0.0
C2379 C 0.18992 0.06207 0.11862 0.0
C2380 C 0.22918 0.07993 0.11592 0.0
C2381 C 0.23637 0.089 0.10729 0.0
C2382 C 0.18357 0.07876 0.14258 0.0
C2383 C 0.16252 0.04115 0.14531 0.0
C2384 C 0.19299 0.08515 0.13395 0.0
C2385 C 0.18145 0.05418 0.12783 0.0
C2386 C 0.16075 0.01636 0.13056 0.0
C2387 C 0.15152 0.00983 0.13921 0.0
H2388 H 0.08613 0.97784 0.35685 0.0
H2389 H 0.214 0.93701 0.34973 0.0
H2390 H 0.10493 0.96988 0.37188 0.0
H2391 H 0.23235 0.92784 0.36473 0.0
H2392 H 0.26254 0.95061 0.39296 0.0
H2393 H 0.24562 0.96489 0.37799 0.0
H2394 H 0.11839 0.91231 0.38172 0.0
H2395 H 0.13482 0.8992 0.39665 0.0
C2396 C 0.11824 0.96722 0.35849 0.0
C2397 C 0.14844 0.95784 0.35209 0.0
C2398 C 0.12896 0.96238 0.36711 0.0
C2399 C 0.17007 0.94786 0.36952 0.0
C2400 C 0.20057 0.9395 0.36311 0.0
C2401 C 0.18992 0.94451 0.3545 0.0
C2402 C 0.23102 0.94206 0.39057 0.0
C2403 C 0.20005 0.92382 0.396 0.0
C2404 C 0.22133 0.95014 0.38198 0.0
C2405 C 0.18053 0.93998 0.37865 0.0
C2406 C 0.1498 0.92137 0.38409 0.0
C2407 C 0.15939 0.91352 0.39266 0.0
H2408 H 0.36398 0.94213 0.60019 0.0
H2409 H 0.22887 0.9258 0.60576 0.0
H2410 H 0.37784 0.95805 0.61514 0.0
H2411 H 0.24282 0.94245 0.62078 0.0
H2412 H 0.29834 0.91688 0.64783 0.0
H2413 H 0.27948 0.90799 0.63286 0.0
H2414 H 0.36462 0.01244 0.62615 0.0
H2415 H 0.38419 0.02096 0.64117 0.0
C2416 C 0.33715 0.94211 0.6046 0.0
C2417 C 0.29532 0.93239 0.60179 0.0
C2418 C 0.34509 0.95166 0.61316 0.0
C2419 C 0.31144 0.95163 0.61914 0.0
C2420 C 0.26948 0.94236 0.61633 0.0
C2421 C 0.26148 0.93295 0.60773 0.0
C2422 C 0.31294 0.93815 0.64318 0.0
C2423 C 0.34313 0.96939 0.64569 0.0
C2424 C 0.30182 0.93324 0.6346 0.0
C2425 C 0.32066 0.95938 0.62832 0.0
C2426 C 0.34998 0.99142 0.63084 0.0
C2427 C 0.36104 0.99643 0.63945 0.0
H2428 H 0.28263 0.17166 0.89031 0.0
H2429 H 0.31155 0.03988 0.89695 0.0
H2430 H 0.28834 0.15353 0.87521 0.0
H2431 H 0.31877 0.0221 0.88189 0.0
H2432 H 0.29434 0.99549 0.85368 0.0
H2433 H 0.28183 0.01264 0.86869 0.0
H2434 H 0.34257 0.13637 0.86507 0.0
H2435 H 0.35368 0.11981 0.85007 0.0
C2436 C 0.29018 0.13882 0.88855 0.0
C2437 C 0.29681 0.1073 0.89484 0.0
C2438 C 0.29377 0.12846 0.87989 0.0
C2439 C 0.30441 0.0864 0.87731 0.0
C2440 C 0.31005 0.05469 0.88361 0.0
C2441 C 0.30614 0.06498 0.89227 0.0
C2442 C 0.30503 0.02631 0.8561 0.0
C2443 C 0.32499 0.05626 0.85068 0.0
C2444 C 0.29799 0.03613 0.86472 0.0
C2445 C 0.31102 0.076 0.86811 0.0
C2446 C 0.33127 0.10573 0.86267 0.0
C2447 C 0.33799 0.09607 0.85406 0.0
H2448 H 0.85824 0.93705 0.89776 0.0
H2449 H 0.72483 0.91059 0.89209 0.0
H2450 H 0.87079 0.95527 0.88287 0.0
H2451 H 0.73731 0.92981 0.87716 0.0
H2452 H 0.79243 0.9123 0.84999 0.0
H2453 H 0.77527 0.9002 0.86494 0.0
H2454 H 0.85441 0.00872 0.87201 0.0
H2455 H 0.87241 0.02039 0.857 0.0
C2456 C 0.83146 0.93537 0.89335 0.0
C2457 C 0.79055 0.92207 0.89611 0.0
C2458 C 0.83863 0.94621 0.88482 0.0
C2459 C 0.80506 0.94409 0.87883 0.0
C2460 C 0.76397 0.93132 0.88161 0.0
C2461 C 0.75678 0.92044 0.89016 0.0
C2462 C 0.80608 0.93377 0.85471 0.0
C2463 C 0.8341 0.96714 0.8523 0.0
C2464 C 0.79593 0.927 0.86329 0.0
C2465 C 0.81353 0.95341 0.86967 0.0
C2466 C 0.84076 0.98745 0.86725 0.0
C2467 C 0.85091 0.99428 0.85865 0.0
H2468 H 0.73374 0.12484 0.60754 0.0
H2469 H 0.84665 0.05404 0.59974 0.0
H2470 H 0.74792 0.10559 0.6224 0.0
H2471 H 0.86133 0.03578 0.61456 0.0
H2472 H 0.85625 0.97981 0.6414 0.0
H2473 H 0.83623 0.99387 0.62657 0.0
H2474 H 0.79955 0.12344 0.63339 0.0
H2475 H 0.81853 0.10916 0.64818 0.0
C2476 C 0.76152 0.10515 0.60899 0.0
C2477 C 0.78916 0.09121 0.60245 0.0
C2478 C 0.7698 0.09431 0.61751 0.0
C2479 C 0.8059 0.06928 0.61969 0.0
C2480 C 0.83298 0.05464 0.61312 0.0
C2481 C 0.8247 0.06543 0.60461 0.0
C2482 C 0.84379 0.01124 0.63973 0.0
C2483 C 0.83917 0.04338 0.64597 0.0
C2484 C 0.83247 0.01936 0.63123 0.0
C2485 C 0.81626 0.05981 0.62878 0.0
C2486 C 0.8113 0.09175 0.63505 0.0
C2487 C 0.82257 0.08363 0.64354 0.0
H2488 H 0.63285 0.06989 0.39724 0.0
H2489 H 0.76943 0.08002 0.39261 0.0
H2490 H 0.62099 0.05419 0.38221 0.0
H2491 H 0.75754 0.06346 0.37754 0.0
H2492 H 0.71034 0.08542 0.34983 0.0
H2493 H 0.72578 0.0967 0.36492 0.0
H2494 H 0.63324 0.99863 0.37156 0.0
H2495 H 0.61707 0.98793 0.35645 0.0
C2496 C 0.66042 0.06861 0.39302 0.0
C2497 C 0.70211 0.0764 0.39613 0.0
C2498 C 0.65362 0.05923 0.3844 0.0
C2499 C 0.68831 0.05741 0.37867 0.0
C2500 C 0.73007 0.06503 0.38178 0.0
C2501 C 0.7369 0.07436 0.39042 0.0
C2502 C 0.69339 0.06609 0.3545 0.0
C2503 C 0.66219 0.03599 0.35193 0.0
C2504 C 0.70248 0.07238 0.36315 0.0
C2505 C 0.68061 0.04873 0.36945 0.0
C2506 C 0.65018 0.01786 0.36687 0.0
C2507 C 0.64109 0.01154 0.35821 0.0
H2508 H 0.71064 0.91924 0.14822 0.0
H2509 H 0.6136 0.01195 0.14104 0.0
H2510 H 0.72884 0.90876 0.13325 0.0
H2511 H 0.63244 1.00195 0.12603 0.0
H2512 H 0.63798 0.92774 0.10065 0.0
H2513 H 0.62397 0.94428 0.11555 0.0
H2514 H 0.7604 0.94387 0.12069 0.0
H2515 H 0.77457 0.92655 0.10572 0.0
C2516 C 0.69342 0.9377 0.14345 0.0
C2517 C 0.66035 0.96616 0.14582 0.0
C2518 C 0.70412 0.93189 0.13487 0.0
C2519 C 0.68196 0.95436 0.12845 0.0
C2520 C 0.64969 0.98371 0.13083 0.0
C2521 C 0.63904 0.9896 0.13943 0.0
C2522 C 0.66509 0.93116 0.10494 0.0
C2523 C 0.70744 0.9256 0.102 0.0
C2524 C 0.65702 0.94105 0.11348 0.0
C2525 C 0.69106 0.94558 0.1193 0.0
C2526 C 0.73347 0.94023 0.11637 0.0
C2527 C 0.74159 0.93043 0.10779 0.0
H2528 H 0.64484 0.6149 0.60128 0.0
H2529 H 0.76805 0.55212 0.60393 0.0
H2530 H 0.62906 0.60023 0.61618 0.0
H2531 H 0.75165 0.53625 0.61887 0.0
H2532 H 0.72429 0.55985 0.64754 0.0
H2533 H 0.74263 0.57034 0.63257 0.0
H2534 H 0.61147 0.54173 0.62545 0.0
H2535 H 0.59281 0.53259 0.64045 0.0
C2536 C 0.66855 0.59779 0.60504 0.0
C2537 C 0.70772 0.58466 0.60141 0.0
C2538 C 0.65931 0.58903 0.61358 0.0
C2539 C 0.68885 0.56662 0.61871 0.0
C2540 C 0.72831 0.55387 0.61511 0.0
C2541 C 0.73769 0.56289 0.60655 0.0
C2542 C 0.69941 0.55549 0.64278 0.0
C2543 C 0.65695 0.54578 0.64519 0.0
C2544 C 0.71001 0.5613 0.63418 0.0
C2545 C 0.67846 0.55731 0.6278 0.0
C2546 C 0.63637 0.54598 0.63021 0.0
C2547 C 0.62571 0.54043 0.63881 0.0
H2548 H 0.73878 0.34173 0.89035 0.0
H2549 H 0.6787 0.46176 0.89751 0.0
H2550 H 0.73038 0.36043 0.87531 0.0
H2551 H 0.66922 0.47984 0.88252 0.0
H2552 H 0.69034 0.5157 0.85457 0.0
H2553 H 0.70573 0.49947 0.86953 0.0
H2554 H 0.67288 0.36623 0.86513 0.0
H2555 H 0.65862 0.38216 0.8502 0.0
C2556 C 0.72387 0.37212 0.88873 0.0
C2557 C 0.70922 0.4001 0.89514 0.0
C2558 C 0.71879 0.38274 0.8801 0.0
C2559 C 0.69879 0.42151 0.8777 0.0
C2560 C 0.68516 0.44995 0.88413 0.0
C2561 C 0.69039 0.43942 0.89274 0.0
C2562 C 0.68642 0.48296 0.85681 0.0
C2563 C 0.67319 0.45027 0.85119 0.0
C2564 C 0.69512 0.47367 0.86538 0.0
C2565 C 0.69069 0.43149 0.86854 0.0
C2566 C 0.6774 0.3989 0.8629 0.0
C2567 C 0.66884 0.40814 0.85434 0.0
H2568 H 0.8705 0.39973 0.10062 0.0
H2569 H 0.74062 0.44458 0.10465 0.0
H2570 H 0.8864 0.41106 0.11565 0.0
H2571 H 0.75695 0.45718 0.1197 0.0
H2572 H 0.78892 0.42758 0.14778 0.0
H2573 H 0.77148 0.41923 0.13272 0.0
H2574 H 0.89748 0.46679 0.12594 0.0
H2575 H 0.91541 0.47388 0.14103 0.0
C2576 C 0.84535 0.41225 0.10471 0.0
C2577 C 0.80423 0.42118 0.10144 0.0
C2578 C 0.8546 0.41908 0.11333 0.0
C2579 C 0.82307 0.43529 0.1189 0.0
C2580 C 0.78187 0.4442 0.11562 0.0
C2581 C 0.77253 0.43712 0.10699 0.0
C2582 C 0.81288 0.43643 0.14308 0.0
C2583 C 0.85369 0.45115 0.14562 0.0
C2584 C 0.80276 0.43188 0.13443 0.0
C2585 C 0.83311 0.44213 0.1281 0.0
C2586 C 0.87358 0.45783 0.13064 0.0
C2587 C 0.88379 0.46218 0.1393 0.0
H2588 H 0.88445 0.48953 0.35649 0.0
H2589 H 0.80051 0.59466 0.34953 0.0
H2590 H 0.86479 0.49922 0.37147 0.0
H2591 H 0.78146 0.60464 0.36448 0.0
H2592 H 0.72863 0.58605 0.39151 0.0
H2593 H 0.74351 0.57013 0.3765 0.0
H2594 H 0.87813 0.55405 0.38246 0.0
H2595 H 0.86337 0.56928 0.39739 0.0
C2596 C 0.86174 0.51458 0.35815 0.0
C2597 C 0.84431 0.54151 0.35183 0.0
C2598 C 0.85062 0.52026 0.36673 0.0
C2599 C 0.82169 0.55281 0.36916 0.0
C2600 C 0.80349 0.57901 0.36281 0.0
C2601 C 0.81472 0.57348 0.35425 0.0
C2602 C 0.76135 0.57901 0.38961 0.0
C2603 C 0.7948 0.57912 0.39564 0.0
C2604 C 0.76989 0.57002 0.38102 0.0
C2605 C 0.81199 0.56074 0.3783 0.0
C2606 C 0.84528 0.56046 0.38436 0.0
C2607 C 0.83681 0.56959 0.39292 0.0
H2608 H 0.39423 0.50705 0.35768 0.0
H2609 H 0.31075 0.40337 0.34971 0.0
H2610 H 0.38123 0.4881 0.37261 0.0
H2611 H 0.29782 0.38469 0.36459 0.0
H2612 H 0.33271 0.33223 0.39135 0.0
H2613 H 0.34138 0.35362 0.37645 0.0
H2614 H 0.32207 0.48653 0.38348 0.0
H2615 H 0.31355 0.46531 0.39839 0.0
C2616 C 0.3729 0.48047 0.3591 0.0
C2617 C 0.35374 0.45661 0.35249 0.0
C2618 C 0.36533 0.46973 0.36765 0.0
C2619 C 0.33873 0.43472 0.36976 0.0
C2620 C 0.31894 0.41144 0.36316 0.0
C2621 C 0.3262 0.42236 0.35463 0.0
C2622 C 0.3301 0.36599 0.38972 0.0
C2623 C 0.32247 0.39703 0.39606 0.0
C2624 C 0.33489 0.37821 0.38118 0.0
C2625 C 0.33245 0.42177 0.3788 0.0
C2626 C 0.32454 0.45278 0.38513 0.0
C2627 C 0.3194 0.44054 0.39366 0.0
H2628 H 0.41506 0.58802 0.1425 0.0
H2629 H 0.28555 0.54642 0.14814 0.0
H2630 H 0.39645 0.59421 0.12745 0.0
H2631 H 0.26717 0.55191 0.13301 0.0
H2632 H 0.24045 0.61839 0.10696 0.0
H2633 H 0.25697 0.60782 0.12208 0.0
H2634 H 0.37825 0.54958 0.11524 0.0
H2635 H 0.36224 0.56074 0.10021 0.0
C2636 C 0.38273 0.5798 0.14052 0.0
C2637 C 0.35181 0.56675 0.14652 0.0
C2638 C 0.3721 0.58316 0.13188 0.0
C2639 C 0.33032 0.57353 0.12903 0.0
C2640 C 0.29948 0.56003 0.13502 0.0
C2641 C 0.31013 0.5566 0.14367 0.0
C2642 C 0.27053 0.60317 0.10869 0.0
C2643 C 0.30017 0.59078 0.10239 0.0
C2644 C 0.2799 0.59691 0.11735 0.0
C2645 C 0.31907 0.57813 0.11986 0.0
C2646 C 0.34816 0.56484 0.11353 0.0
C2647 C 0.33885 0.5711 0.1049 0.0
H2648 H 0.14695 0.47288 0.85657 0.0
H2649 H 0.19575 0.59945 0.85052 0.0
H2650 H 0.16517 0.48439 0.8716 0.0
H2651 H 0.2132 0.61106 0.86546 0.0
H2652 H 0.27292 0.60564 0.89182 0.0
H2653 H 0.26146 0.58692 0.87684 0.0
H2654 H 0.13908 0.52998 0.88332 0.0
H2655 H 0.15074 0.54793 0.89827 0.0
C2656 C 0.16163 0.50305 0.85844 0.0
C2657 C 0.16964 0.53531 0.85236 0.0
C2658 C 0.17191 0.50971 0.86704 0.0
C2659 C 0.19062 0.54866 0.86972 0.0
C2660 C 0.19935 0.5805 0.8636 0.0
C2661 C 0.18896 0.57394 0.85503 0.0
C2662 C 0.24372 0.58889 0.89005 0.0
C2663 C 0.21262 0.5786 0.89623 0.0
C2664 C 0.23708 0.57831 0.88147 0.0
C2665 C 0.19929 0.55709 0.87889 0.0
C2666 C 0.16873 0.54588 0.88511 0.0
C2667 C 0.17529 0.55654 0.89367 0.0
H2668 H 0.19353 0.39476 0.64831 0.0
H2669 H 0.16566 0.52861 0.6433 0.0
H2670 H 0.20977 0.38372 0.63327 0.0
H2671 H 0.1825 0.51753 0.6282 0.0
H2672 H 0.16077 0.46277 0.60094 0.0
H2673 H 0.15039 0.47869 0.61602 0.0
H2674 H 0.26276 0.40336 0.62224 0.0
H2675 H 0.27295 0.38686 0.60711 0.0
C2676 C 0.19099 0.42192 0.64401 0.0
C2677 C 0.17801 0.46254 0.647 0.0
C2678 C 0.2007 0.41563 0.63539 0.0
C2679 C 0.19751 0.44975 0.62955 0.0
C2680 C 0.1849 0.49052 0.63254 0.0
C2681 C 0.1754 0.49689 0.64119 0.0
C2682 C 0.18343 0.4497 0.60551 0.0
C2683 C 0.21752 0.42322 0.60283 0.0
C2684 C 0.17763 0.45914 0.61415 0.0
C2685 C 0.20567 0.4422 0.62032 0.0
C2686 C 0.24032 0.41647 0.61764 0.0
C2687 C 0.24627 0.40718 0.60897 0.0
loop_
_geom_bond_atom_site_label_1
_geom_bond_atom_site_label_2
_geom_bond_distance
_geom_bond_site_symmetry_2
_ccdc_geom_bond_type
Co0 O3 1.970 . S
Co0 N17 1.989 . S
Co0 O25 1.967 . S
Co0 O32 1.920 . S
Co1 O4 1.966 . S
Co1 N10 2.022 . S
Co1 N18 1.993 . S
Co1 O26 1.941 . S
C2 O3 1.258 . S
C2 O4 1.263 . S
O3 Co0 1.970 . S
O3 C2 1.258 . S
O4 Co1 1.966 . S
O4 C2 1.263 . S
C5 O6 1.235 . S
C5 O32 1.289 . S
O6 C5 1.235 . S
C7 C9 1.400 . S
C7 N10 1.351 . S
C7 C12 1.501 1_545 S
C8 C9 1.387 . S
C8 N11 1.341 . S
C9 C7 1.400 . S
C9 C8 1.387 . S
N10 Co1 2.022 . S
N10 C7 1.351 . S
N10 N11 1.365 . S
N11 C8 1.341 . S
N11 N10 1.365 . S
N11 H31 0.862 . S
C12 C7 1.501 1_565 S
C12 H13 0.961 1_565 S
C12 H14 0.961 . S
C12 H15 0.960 . S
H13 C12 0.961 1_545 S
H14 C12 0.961 . S
H15 C12 0.960 . S
C16 N17 1.342 . S
C16 C20 1.401 . S
C16 C21 1.499 . S
N17 Co0 1.989 . S
N17 C16 1.342 . S
N17 N18 1.388 . S
N18 Co1 1.993 . S
N18 N17 1.388 . S
N18 C19 1.346 . S
C19 N18 1.346 . S
C19 C20 1.396 . S
C19 C29 1.510 . S
C20 C16 1.401 . S
C20 C19 1.396 . S
C21 C16 1.499 . S
C21 H22 0.959 . S
C21 H23 0.960 . S
C21 H24 0.961 . S
H22 C21 0.959 . S
H23 C21 0.960 . S
H24 C21 0.961 . S
O25 Co0 1.967 . S
O25 C33 1.258 . S
O26 Co1 1.941 . S
O26 C33 1.266 . S
H27 C29 0.959 . S
H28 C29 0.939 1_565 S
C29 C19 1.510 . S
C29 H27 0.959 . S
C29 H28 0.939 1_545 S
C29 H30 0.960 . S
H30 C29 0.960 . S
H31 N11 0.862 . S
O32 Co0 1.920 . S
O32 C5 1.289 . S
C33 O25 1.258 . S
C33 O26 1.266 . S
Co34 O37 1.970 . S
Co34 N51 1.989 . S
Co34 O59 1.967 . S
Co34 O66 1.920 . S
Co35 O38 1.966 . S
Co35 N44 2.022 . S
Co35 N52 1.993 . S
Co35 O60 1.941 . S
C36 O37 1.258 . S
C36 O38 1.263 . S
O37 Co34 1.970 . S
O37 C36 1.258 . S
O38 Co35 1.966 . S
O38 C36 1.263 . S
C39 O40 1.235 . S
C39 O66 1.289 . S
O40 C39 1.235 . S
C41 C43 1.400 . S
C41 N44 1.351 . S
C41 C46 1.501 . S
C42 C43 1.387 . S
C42 N45 1.341 . S
C43 C41 1.400 . S
C43 C42 1.387 . S
N44 Co35 2.022 . S
N44 C41 1.351 . S
N44 N45 1.365 . S
N45 C42 1.341 . S
N45 N44 1.365 . S
N45 H65 0.862 . S
C46 C41 1.501 . S
C46 H47 0.961 . S
C46 H48 0.961 . S
C46 H49 0.960 . S
H47 C46 0.961 . S
H48 C46 0.961 . S
H49 C46 0.960 . S
C50 N51 1.342 . S
C50 C54 1.401 . S
C50 C55 1.499 . S
N51 Co34 1.989 . S
N51 C50 1.342 . S
N51 N52 1.388 . S
N52 Co35 1.993 . S
N52 N51 1.388 . S
N52 C53 1.346 . S
C53 N52 1.346 . S
C53 C54 1.396 . S
C53 C63 1.510 . S
C54 C50 1.401 . S
C54 C53 1.396 . S
C55 C50 1.499 . S
C55 H56 0.959 . S
C55 H57 0.960 . S
C55 H58 0.961 . S
H56 C55 0.959 . S
H57 C55 0.960 . S
H58 C55 0.961 . S
O59 Co34 1.967 . S
O59 C67 1.258 . S
O60 Co35 1.941 . S
O60 C67 1.266 . S
H61 C63 0.959 . S
H62 C63 0.961 . S
C63 C53 1.510 . S
C63 H61 0.959 . S
C63 H62 0.961 . S
C63 H64 0.960 . S
H64 C63 0.960 . S
H65 N45 0.862 . S
O66 Co34 1.920 . S
O66 C39 1.289 . S
C67 O59 1.258 . S
C67 O60 1.266 . S
Co68 O71 1.970 . S
Co68 N85 1.989 . S
Co68 O93 1.967 . S
Co68 O100 1.920 . S
Co69 O72 1.966 . S
Co69 N78 2.022 . S
Co69 N86 1.993 . S
Co69 O94 1.941 . S
C70 O71 1.258 . S
C70 O72 1.263 . S
O71 Co68 1.970 . S
O71 C70 1.258 . S
O72 Co69 1.966 . S
O72 C70 1.263 . S
C73 O74 1.235 . S
C73 O100 1.289 . S
O74 C73 1.235 . S
C75 C77 1.400 . S
C75 N78 1.351 . S
C75 C80 1.501 1_565 S
C76 C77 1.387 . S
C76 N79 1.341 . S
C77 C75 1.400 . S
C77 C76 1.387 . S
N78 Co69 2.022 . S
N78 C75 1.351 . S
N78 N79 1.365 . S
N79 C76 1.341 . S
N79 N78 1.365 . S
N79 H99 0.862 . S
C80 C75 1.501 1_545 S
C80 H81 0.961 1_545 S
C80 H82 0.961 . S
C80 H83 0.960 . S
H81 C80 0.961 1_565 S
H82 C80 0.961 . S
H83 C80 0.960 . S
C84 N85 1.342 . S
C84 C88 1.401 . S
C84 C89 1.499 . S
N85 Co68 1.989 . S
N85 C84 1.342 . S
N85 N86 1.388 . S
N86 Co69 1.993 . S
N86 N85 1.388 . S
N86 C87 1.346 . S
C87 N86 1.346 . S
C87 C88 1.396 . S
C87 C97 1.510 . S
C88 C84 1.401 . S
C88 C87 1.396 . S
C89 C84 1.499 . S
C89 H90 0.959 . S
C89 H91 0.960 . S
C89 H92 0.961 . S
H90 C89 0.959 . S
H91 C89 0.960 . S
H92 C89 0.961 . S
O93 Co68 1.967 . S
O93 C101 1.258 . S
O94 Co69 1.941 . S
O94 C101 1.266 . S
H95 C97 0.959 . S
H96 C97 0.938 1_545 S
C97 C87 1.510 . S
C97 H95 0.959 . S
C97 H96 0.938 1_565 S
C97 H98 0.960 . S
H98 C97 0.960 . S
H99 N79 0.862 . S
O100 Co68 1.920 . S
O100 C73 1.289 . S
C101 O93 1.258 . S
C101 O94 1.266 . S
Co102 O105 1.970 . S
Co102 N119 1.989 . S
Co102 O127 1.967 . S
Co102 O134 1.920 . S
Co103 O106 1.966 . S
Co103 N112 2.022 . S
Co103 N120 1.993 . S
Co103 O128 1.941 . S
C104 O105 1.258 . S
C104 O106 1.263 . S
O105 Co102 1.970 . S
O105 C104 1.258 . S
O106 Co103 1.966 . S
O106 C104 1.263 . S
C107 O108 1.235 . S
C107 O134 1.289 . S
O108 C107 1.235 . S
C109 C111 1.400 . S
C109 N112 1.351 . S
C109 C114 1.501 . S
C110 C111 1.387 . S
C110 N113 1.341 . S
C111 C109 1.400 . S
C111 C110 1.387 . S
N112 Co103 2.022 . S
N112 C109 1.351 . S
N112 N113 1.365 . S
N113 C110 1.341 . S
N113 N112 1.365 . S
N113 H133 0.862 . S
C114 C109 1.501 . S
C114 H115 0.961 . S
C114 H116 0.961 . S
C114 H117 0.960 . S
H115 C114 0.961 . S
H116 C114 0.961 . S
H117 C114 0.960 . S
C118 N119 1.342 . S
C118 C122 1.401 . S
C118 C123 1.499 . S
N119 Co102 1.989 . S
N119 C118 1.342 . S
N119 N120 1.388 . S
N120 Co103 1.993 . S
N120 N119 1.388 . S
N120 C121 1.346 . S
C121 N120 1.346 . S
C121 C122 1.396 . S
C121 C131 1.510 . S
C122 C118 1.401 . S
C122 C121 1.396 . S
C123 C118 1.499 . S
C123 H124 0.959 . S
C123 H125 0.960 . S
C123 H126 0.961 . S
H124 C123 0.959 . S
H125 C123 0.960 . S
H126 C123 0.961 . S
O127 Co102 1.967 . S
O127 C135 1.258 . S
O128 Co103 1.941 . S
O128 C135 1.266 . S
H129 C131 0.959 . S
H130 C131 0.961 . S
C131 C121 1.510 . S
C131 H129 0.959 . S
C131 H130 0.961 . S
C131 H132 0.960 . S
H132 C131 0.960 . S
H133 N113 0.862 . S
O134 Co102 1.920 . S
O134 C107 1.289 . S
C135 O127 1.258 . S
C135 O128 1.266 . S
Co136 O139 1.970 . S
Co136 N153 1.989 . S
Co136 O161 1.967 . S
Co136 O168 1.920 . S
Co137 O140 1.966 . S
Co137 N146 2.022 . S
Co137 N154 1.993 . S
Co137 O162 1.941 . S
C138 O139 1.258 . S
C138 O140 1.263 . S
O139 Co136 1.970 . S
O139 C138 1.258 . S
O140 Co137 1.966 . S
O140 C138 1.263 . S
C141 O142 1.235 . S
C141 O168 1.289 . S
O142 C141 1.235 . S
C143 C145 1.400 . S
C143 N146 1.351 . S
C143 C148 1.501 1_565 S
C144 C145 1.387 . S
C144 N147 1.341 . S
C145 C143 1.400 . S
C145 C144 1.387 . S
N146 Co137 2.022 . S
N146 C143 1.351 . S
N146 N147 1.365 . S
N147 C144 1.341 . S
N147 N146 1.365 . S
N147 H167 0.862 . S
C148 C143 1.501 1_545 S
C148 H149 0.961 1_545 S
C148 H150 0.961 . S
C148 H151 0.960 . S
H149 C148 0.961 1_565 S
H150 C148 0.961 . S
H151 C148 0.960 . S
C152 N153 1.342 . S
C152 C156 1.401 . S
C152 C157 1.499 . S
N153 Co136 1.989 . S
N153 C152 1.342 . S
N153 N154 1.388 . S
N154 Co137 1.993 . S
N154 N153 1.388 . S
N154 C155 1.346 . S
C155 N154 1.346 . S
C155 C156 1.396 . S
C155 C165 1.510 . S
C156 C152 1.401 . S
C156 C155 1.396 . S
C157 C152 1.499 . S
C157 H158 0.959 . S
C157 H159 0.960 . S
C157 H160 0.961 . S
H158 C157 0.959 . S
H159 C157 0.960 . S
H160 C157 0.961 . S
O161 Co136 1.967 . S
O161 C169 1.258 . S
O162 Co137 1.941 . S
O162 C169 1.266 . S
H163 C165 0.959 . S
H164 C165 0.939 1_545 S
C165 C155 1.510 . S
C165 H163 0.959 . S
C165 H164 0.939 1_565 S
C165 H166 0.960 . S
H166 C165 0.960 . S
H167 N147 0.862 . S
O168 Co136 1.920 . S
O168 C141 1.289 . S
C169 O161 1.258 . S
C169 O162 1.266 . S
Co170 O173 1.970 . S
Co170 N187 1.989 . S
Co170 O195 1.967 . S
Co170 O202 1.920 . S
Co171 O174 1.966 . S
Co171 N180 2.022 . S
Co171 N188 1.993 . S
Co171 O196 1.941 . S
C172 O173 1.258 . S
C172 O174 1.263 . S
O173 Co170 1.970 . S
O173 C172 1.258 . S
O174 Co171 1.966 . S
O174 C172 1.263 . S
C175 O176 1.235 . S
C175 O202 1.289 . S
O176 C175 1.235 . S
C177 C179 1.400 . S
C177 N180 1.351 . S
C177 C182 1.501 . S
C178 C179 1.387 . S
C178 N181 1.341 . S
C179 C177 1.400 . S
C179 C178 1.387 . S
N180 Co171 2.022 . S
N180 C177 1.351 . S
N180 N181 1.365 . S
N181 C178 1.341 . S
N181 N180 1.365 . S
N181 H201 0.862 . S
C182 C177 1.501 . S
C182 H183 0.961 . S
C182 H184 0.961 . S
C182 H185 0.960 . S
H183 C182 0.961 . S
H184 C182 0.961 . S
H185 C182 0.960 . S
C186 N187 1.342 . S
C186 C190 1.401 . S
C186 C191 1.499 . S
N187 Co170 1.989 . S
N187 C186 1.342 . S
N187 N188 1.388 . S
N188 Co171 1.993 . S
N188 N187 1.388 . S
N188 C189 1.346 . S
C189 N188 1.346 . S
C189 C190 1.396 . S
C189 C199 1.510 . S
C190 C186 1.401 . S
C190 C189 1.396 . S
C191 C186 1.499 . S
C191 H192 0.959 . S
C191 H193 0.960 . S
C191 H194 0.961 . S
H192 C191 0.959 . S
H193 C191 0.960 . S
H194 C191 0.961 . S
O195 Co170 1.967 . S
O195 C203 1.258 . S
O196 Co171 1.941 . S
O196 C203 1.266 . S
H197 C199 0.959 . S
H198 C199 0.961 . S
C199 C189 1.510 . S
C199 H197 0.959 . S
C199 H198 0.961 . S
C199 H200 0.960 . S
H200 C199 0.960 . S
H201 N181 0.862 . S
O202 Co170 1.920 . S
O202 C175 1.289 . S
C203 O195 1.258 . S
C203 O196 1.266 . S
Co204 O207 1.970 . S
Co204 N221 1.989 . S
Co204 O229 1.967 . S
Co204 O236 1.920 . S
Co205 O208 1.966 . S
Co205 N214 2.022 . S
Co205 N222 1.993 . S
Co205 O230 1.941 . S
C206 O207 1.258 . S
C206 O208 1.263 . S
O207 Co204 1.970 . S
O207 C206 1.258 . S
O208 Co205 1.966 . S
O208 C206 1.263 . S
C209 O210 1.235 . S
C209 O236 1.289 . S
O210 C209 1.235 . S
C211 C213 1.400 . S
C211 N214 1.351 . S
C211 C216 1.501 1_545 S
C212 C213 1.387 . S
C212 N215 1.341 . S
C213 C211 1.400 . S
C213 C212 1.387 . S
N214 Co205 2.022 . S
N214 C211 1.351 . S
N214 N215 1.365 . S
N215 C212 1.341 . S
N215 N214 1.365 . S
N215 H235 0.862 . S
C216 C211 1.501 1_565 S
C216 H217 0.961 1_565 S
C216 H218 0.961 . S
C216 H219 0.960 . S
H217 C216 0.961 1_545 S
H218 C216 0.961 . S
H219 C216 0.960 . S
C220 N221 1.342 . S
C220 C224 1.401 . S
C220 C225 1.499 . S
N221 Co204 1.989 . S
N221 C220 1.342 . S
N221 N222 1.388 . S
N222 Co205 1.993 . S
N222 N221 1.388 . S
N222 C223 1.346 . S
C223 N222 1.346 . S
C223 C224 1.396 . S
C223 C233 1.510 . S
C224 C220 1.401 . S
C224 C223 1.396 . S
C225 C220 1.499 . S
C225 H226 0.959 . S
C225 H227 0.960 . S
C225 H228 0.961 . S
H226 C225 0.959 . S
H227 C225 0.960 . S
H228 C225 0.961 . S
O229 Co204 1.967 . S
O229 C237 1.258 . S
O230 Co205 1.941 . S
O230 C237 1.266 . S
H231 C233 0.959 . S
H232 C233 0.938 1_565 S
C233 C223 1.510 . S
C233 H231 0.959 . S
C233 H232 0.938 1_545 S
C233 H234 0.960 . S
H234 C233 0.960 . S
H235 N215 0.862 . S
O236 Co204 1.920 . S
O236 C209 1.289 . S
C237 O229 1.258 . S
C237 O230 1.266 . S
Co238 O241 1.970 . S
Co238 N255 1.989 . S
Co238 O263 1.967 . S
Co238 O270 1.920 . S
Co239 O242 1.966 . S
Co239 N248 2.022 . S
Co239 N256 1.993 . S
Co239 O264 1.941 . S
C240 O241 1.258 . S
C240 O242 1.263 . S
O241 Co238 1.970 . S
O241 C240 1.258 . S
O242 Co239 1.966 . S
O242 C240 1.263 . S
C243 O244 1.235 . S
C243 O270 1.289 . S
O244 C243 1.235 . S
C245 C247 1.400 . S
C245 N248 1.351 . S
C245 C250 1.501 . S
C246 C247 1.387 . S
C246 N249 1.341 . S
C247 C245 1.400 . S
C247 C246 1.387 . S
N248 Co239 2.022 . S
N248 C245 1.351 . S
N248 N249 1.365 . S
N249 C246 1.341 . S
N249 N248 1.365 . S
N249 H269 0.862 . S
C250 C245 1.501 . S
C250 H251 0.961 . S
C250 H252 0.961 . S
C250 H253 0.960 . S
H251 C250 0.961 . S
H252 C250 0.961 . S
H253 C250 0.960 . S
C254 N255 1.342 . S
C254 C258 1.401 . S
C254 C259 1.499 . S
N255 Co238 1.989 . S
N255 C254 1.342 . S
N255 N256 1.388 . S
N256 Co239 1.993 . S
N256 N255 1.388 . S
N256 C257 1.346 . S
C257 N256 1.346 . S
C257 C258 1.396 . S
C257 C267 1.510 . S
C258 C254 1.401 . S
C258 C257 1.396 . S
C259 C254 1.499 . S
C259 H260 0.959 . S
C259 H261 0.960 . S
C259 H262 0.961 . S
H260 C259 0.959 . S
H261 C259 0.960 . S
H262 C259 0.961 . S
O263 Co238 1.967 . S
O263 C271 1.258 . S
O264 Co239 1.941 . S
O264 C271 1.266 . S
H265 C267 0.959 . S
H266 C267 0.961 . S
C267 C257 1.510 . S
C267 H265 0.959 . S
C267 H266 0.961 . S
C267 H268 0.960 . S
H268 C267 0.960 . S
H269 N249 0.862 . S
O270 Co238 1.920 . S
O270 C243 1.289 . S
C271 O263 1.258 . S
C271 O264 1.266 . S
Co272 O275 1.970 . S
Co272 N289 1.989 . S
Co272 O297 1.967 . S
Co272 O304 1.920 . S
Co273 O276 1.966 . S
Co273 N282 2.022 . S
Co273 N290 1.993 . S
Co273 O298 1.941 . S
C274 O275 1.258 . S
C274 O276 1.263 . S
O275 Co272 1.970 . S
O275 C274 1.258 . S
O276 Co273 1.966 . S
O276 C274 1.263 . S
C277 O278 1.235 . S
C277 O304 1.289 . S
O278 C277 1.235 . S
C279 C281 1.400 . S
C279 N282 1.351 . S
C279 C284 1.501 1_565 S
C280 C281 1.387 . S
C280 N283 1.341 . S
C281 C279 1.400 . S
C281 C280 1.387 . S
N282 Co273 2.022 . S
N282 C279 1.351 . S
N282 N283 1.365 . S
N283 C280 1.341 . S
N283 N282 1.365 . S
N283 H303 0.862 . S
C284 C279 1.501 1_545 S
C284 H285 0.961 1_545 S
C284 H286 0.961 . S
C284 H287 0.960 . S
H285 C284 0.961 1_565 S
H286 C284 0.961 . S
H287 C284 0.960 . S
C288 N289 1.342 . S
C288 C292 1.401 . S
C288 C293 1.499 . S
N289 Co272 1.989 . S
N289 C288 1.342 . S
N289 N290 1.388 . S
N290 Co273 1.993 . S
N290 N289 1.388 . S
N290 C291 1.346 . S
C291 N290 1.346 . S
C291 C292 1.396 . S
C291 C301 1.510 . S
C292 C288 1.401 . S
C292 C291 1.396 . S
C293 C288 1.499 . S
C293 H294 0.959 . S
C293 H295 0.960 . S
C293 H296 0.961 . S
H294 C293 0.959 . S
H295 C293 0.960 . S
H296 C293 0.961 . S
O297 Co272 1.967 . S
O297 C305 1.258 . S
O298 Co273 1.941 . S
O298 C305 1.266 . S
H299 C301 0.959 . S
H300 C301 0.939 1_545 S
C301 C291 1.510 . S
C301 H299 0.959 . S
C301 H300 0.939 1_565 S
C301 H302 0.960 . S
H302 C301 0.960 . S
H303 N283 0.862 . S
O304 Co272 1.920 . S
O304 C277 1.289 . S
C305 O297 1.258 . S
C305 O298 1.266 . S
Co306 O309 1.970 . S
Co306 N323 1.989 . S
Co306 O331 1.967 . S
Co306 O338 1.920 . S
Co307 O310 1.966 . S
Co307 N316 2.022 . S
Co307 N324 1.993 . S
Co307 O332 1.941 . S
C308 O309 1.258 . S
C308 O310 1.263 . S
O309 Co306 1.970 . S
O309 C308 1.258 . S
O310 Co307 1.966 . S
O310 C308 1.263 . S
C311 O312 1.235 . S
C311 O338 1.289 . S
O312 C311 1.235 . S
C313 C315 1.400 . S
C313 N316 1.351 . S
C313 C318 1.501 . S
C314 C315 1.387 . S
C314 N317 1.341 . S
C315 C313 1.400 . S
C315 C314 1.387 . S
N316 Co307 2.022 . S
N316 C313 1.351 . S
N316 N317 1.365 . S
N317 C314 1.341 . S
N317 N316 1.365 . S
N317 H337 0.862 . S
C318 C313 1.501 . S
C318 H319 0.961 . S
C318 H320 0.961 . S
C318 H321 0.960 . S
H319 C318 0.961 . S
H320 C318 0.961 . S
H321 C318 0.960 . S
C322 N323 1.342 . S
C322 C326 1.401 . S
C322 C327 1.499 . S
N323 Co306 1.989 . S
N323 C322 1.342 . S
N323 N324 1.388 . S
N324 Co307 1.993 . S
N324 N323 1.388 . S
N324 C325 1.346 . S
C325 N324 1.346 . S
C325 C326 1.396 . S
C325 C335 1.510 . S
C326 C322 1.401 . S
C326 C325 1.396 . S
C327 C322 1.499 . S
C327 H328 0.959 . S
C327 H329 0.960 . S
C327 H330 0.961 . S
H328 C327 0.959 . S
H329 C327 0.960 . S
H330 C327 0.961 . S
O331 Co306 1.967 . S
O331 C339 1.258 . S
O332 Co307 1.941 . S
O332 C339 1.266 . S
H333 C335 0.959 . S
H334 C335 0.961 . S
C335 C325 1.510 . S
C335 H333 0.959 . S
C335 H334 0.961 . S
C335 H336 0.960 . S
H336 C335 0.960 . S
H337 N317 0.862 . S
O338 Co306 1.920 . S
O338 C311 1.289 . S
C339 O331 1.258 . S
C339 O332 1.266 . S
Co340 O343 1.970 . S
Co340 N357 1.989 . S
Co340 O365 1.967 . S
Co340 O372 1.920 . S
Co341 O344 1.966 . S
Co341 N350 2.022 . S
Co341 N358 1.993 . S
Co341 O366 1.941 . S
C342 O343 1.258 . S
C342 O344 1.263 . S
O343 Co340 1.970 . S
O343 C342 1.258 . S
O344 Co341 1.966 . S
O344 C342 1.263 . S
C345 O346 1.235 . S
C345 O372 1.289 . S
O346 C345 1.235 . S
C347 C349 1.400 . S
C347 N350 1.351 . S
C347 C352 1.501 1_545 S
C348 C349 1.387 . S
C348 N351 1.341 . S
C349 C347 1.400 . S
C349 C348 1.387 . S
N350 Co341 2.022 . S
N350 C347 1.351 . S
N350 N351 1.365 . S
N351 C348 1.341 . S
N351 N350 1.365 . S
N351 H371 0.862 . S
C352 C347 1.501 1_565 S
C352 H353 0.961 1_565 S
C352 H354 0.961 . S
C352 H355 0.960 . S
H353 C352 0.961 1_545 S
H354 C352 0.961 . S
H355 C352 0.960 . S
C356 N357 1.342 . S
C356 C360 1.401 . S
C356 C361 1.499 . S
N357 Co340 1.989 . S
N357 C356 1.342 . S
N357 N358 1.388 . S
N358 Co341 1.993 . S
N358 N357 1.388 . S
N358 C359 1.346 . S
C359 N358 1.346 . S
C359 C360 1.396 . S
C359 C369 1.510 . S
C360 C356 1.401 . S
C360 C359 1.396 . S
C361 C356 1.499 . S
C361 H362 0.959 . S
C361 H363 0.960 . S
C361 H364 0.961 . S
H362 C361 0.959 . S
H363 C361 0.960 . S
H364 C361 0.961 . S
O365 Co340 1.967 . S
O365 C373 1.258 . S
O366 Co341 1.941 . S
O366 C373 1.266 . S
H367 C369 0.959 . S
H368 C369 0.938 1_565 S
C369 C359 1.510 . S
C369 H367 0.959 . S
C369 H368 0.938 1_545 S
C369 H370 0.960 . S
H370 C369 0.960 . S
H371 N351 0.862 . S
O372 Co340 1.920 . S
O372 C345 1.289 . S
C373 O365 1.258 . S
C373 O366 1.266 . S
Co374 O377 1.970 . S
Co374 N391 1.989 . S
Co374 O399 1.967 . S
Co374 O406 1.920 . S
Co375 O378 1.966 . S
Co375 N384 2.022 . S
Co375 N392 1.993 . S
Co375 O400 1.941 . S
C376 O377 1.258 . S
C376 O378 1.263 . S
O377 Co374 1.970 . S
O377 C376 1.258 . S
O378 Co375 1.966 . S
O378 C376 1.263 . S
C379 O380 1.235 . S
C379 O406 1.289 . S
O380 C379 1.235 . S
C381 C383 1.400 . S
C381 N384 1.351 . S
C381 C386 1.501 . S
C382 C383 1.387 . S
C382 N385 1.341 . S
C383 C381 1.400 . S
C383 C382 1.387 . S
N384 Co375 2.022 . S
N384 C381 1.351 . S
N384 N385 1.365 . S
N385 C382 1.341 . S
N385 N384 1.365 . S
N385 H405 0.862 . S
C386 C381 1.501 . S
C386 H387 0.961 . S
C386 H388 0.961 . S
C386 H389 0.960 . S
H387 C386 0.961 . S
H388 C386 0.961 . S
H389 C386 0.960 . S
C390 N391 1.342 . S
C390 C394 1.401 . S
C390 C395 1.499 . S
N391 Co374 1.989 . S
N391 C390 1.342 . S
N391 N392 1.388 . S
N392 Co375 1.993 . S
N392 N391 1.388 . S
N392 C393 1.346 . S
C393 N392 1.346 . S
C393 C394 1.396 . S
C393 C403 1.510 . S
C394 C390 1.401 . S
C394 C393 1.396 . S
C395 C390 1.499 . S
C395 H396 0.959 . S
C395 H397 0.960 . S
C395 H398 0.961 . S
H396 C395 0.959 . S
H397 C395 0.960 . S
H398 C395 0.961 . S
O399 Co374 1.967 . S
O399 C407 1.258 . S
O400 Co375 1.941 . S
O400 C407 1.266 . S
H401 C403 0.959 . S
H402 C403 0.961 . S
C403 C393 1.510 . S
C403 H401 0.959 . S
C403 H402 0.961 . S
C403 H404 0.960 . S
H404 C403 0.960 . S
H405 N385 0.862 . S
O406 Co374 1.920 . S
O406 C379 1.289 . S
C407 O399 1.258 . S
C407 O400 1.266 . S
Co408 O411 1.970 . S
Co408 N425 1.989 . S
Co408 O433 1.967 . S
Co408 O440 1.920 . S
Co409 O412 1.966 . S
Co409 N418 2.022 . S
Co409 N426 1.993 . S
Co409 O434 1.941 . S
C410 O411 1.258 . S
C410 O412 1.263 . S
O411 Co408 1.970 . S
O411 C410 1.258 . S
O412 Co409 1.966 . S
O412 C410 1.263 . S
C413 O414 1.235 . S
C413 O440 1.289 . S
O414 C413 1.235 . S
C415 C417 1.400 . S
C415 N418 1.351 . S
C415 C420 1.501 1_545 S
C416 C417 1.387 . S
C416 N419 1.341 . S
C417 C415 1.400 . S
C417 C416 1.387 . S
N418 Co409 2.022 . S
N418 C415 1.351 . S
N418 N419 1.365 . S
N419 C416 1.341 . S
N419 N418 1.365 . S
N419 H439 0.862 . S
C420 C415 1.501 1_565 S
C420 H421 0.961 1_565 S
C420 H422 0.961 . S
C420 H423 0.960 . S
H421 C420 0.961 1_545 S
H422 C420 0.961 . S
H423 C420 0.960 . S
C424 N425 1.342 . S
C424 C428 1.401 . S
C424 C429 1.499 . S
N425 Co408 1.989 . S
N425 C424 1.342 . S
N425 N426 1.388 . S
N426 Co409 1.993 . S
N426 N425 1.388 . S
N426 C427 1.346 . S
C427 N426 1.346 . S
C427 C428 1.396 . S
C427 C437 1.510 . S
C428 C424 1.401 . S
C428 C427 1.396 . S
C429 C424 1.499 . S
C429 H430 0.959 . S
C429 H431 0.960 . S
C429 H432 0.961 . S
H430 C429 0.959 . S
H431 C429 0.960 . S
H432 C429 0.961 . S
O433 Co408 1.967 . S
O433 C441 1.258 . S
O434 Co409 1.941 . S
O434 C441 1.266 . S
H435 C437 0.959 . S
H436 C437 0.939 1_565 S
C437 C427 1.510 . S
C437 H435 0.959 . S
C437 H436 0.939 1_545 S
C437 H438 0.960 . S
H438 C437 0.960 . S
H439 N419 0.862 . S
O440 Co408 1.920 . S
O440 C413 1.289 . S
C441 O433 1.258 . S
C441 O434 1.266 . S
Co442 O445 1.970 . S
Co442 N459 1.989 . S
Co442 O467 1.967 . S
Co442 O474 1.920 . S
Co443 O446 1.966 . S
Co443 N452 2.022 . S
Co443 N460 1.993 . S
Co443 O468 1.941 . S
C444 O445 1.258 . S
C444 O446 1.263 . S
O445 Co442 1.970 . S
O445 C444 1.258 . S
O446 Co443 1.966 . S
O446 C444 1.263 . S
C447 O448 1.235 . S
C447 O474 1.289 . S
O448 C447 1.235 . S
C449 C451 1.400 . S
C449 N452 1.351 . S
C449 C454 1.501 . S
C450 C451 1.387 . S
C450 N453 1.341 . S
C451 C449 1.400 . S
C451 C450 1.387 . S
N452 Co443 2.022 . S
N452 C449 1.351 . S
N452 N453 1.365 . S
N453 C450 1.341 . S
N453 N452 1.365 . S
N453 H473 0.862 . S
C454 C449 1.501 . S
C454 H455 0.961 . S
C454 H456 0.961 . S
C454 H457 0.960 . S
H455 C454 0.961 . S
H456 C454 0.961 . S
H457 C454 0.960 . S
C458 N459 1.342 . S
C458 C462 1.401 . S
C458 C463 1.499 . S
N459 Co442 1.989 . S
N459 C458 1.342 . S
N459 N460 1.388 . S
N460 Co443 1.993 . S
N460 N459 1.388 . S
N460 C461 1.346 . S
C461 N460 1.346 . S
C461 C462 1.396 . S
C461 C471 1.510 . S
C462 C458 1.401 . S
C462 C461 1.396 . S
C463 C458 1.499 . S
C463 H464 0.959 . S
C463 H465 0.960 . S
C463 H466 0.961 . S
H464 C463 0.959 . S
H465 C463 0.960 . S
H466 C463 0.961 . S
O467 Co442 1.967 . S
O467 C475 1.258 . S
O468 Co443 1.941 . S
O468 C475 1.266 . S
H469 C471 0.959 . S
H470 C471 0.961 . S
C471 C461 1.510 . S
C471 H469 0.959 . S
C471 H470 0.961 . S
C471 H472 0.960 . S
H472 C471 0.960 . S
H473 N453 0.862 . S
O474 Co442 1.920 . S
O474 C447 1.289 . S
C475 O467 1.258 . S
C475 O468 1.266 . S
Co476 O479 1.970 . S
Co476 N493 1.989 . S
Co476 O501 1.967 . S
Co476 O508 1.920 . S
Co477 O480 1.966 . S
Co477 N486 2.022 . S
Co477 N494 1.993 . S
Co477 O502 1.941 . S
C478 O479 1.258 . S
C478 O480 1.263 . S
O479 Co476 1.970 . S
O479 C478 1.258 . S
O480 Co477 1.966 . S
O480 C478 1.263 . S
C481 O482 1.235 . S
C481 O508 1.289 . S
O482 C481 1.235 . S
C483 C485 1.400 . S
C483 N486 1.351 . S
C483 C488 1.501 1_565 S
C484 C485 1.387 . S
C484 N487 1.341 . S
C485 C483 1.400 . S
C485 C484 1.387 . S
N486 Co477 2.022 . S
N486 C483 1.351 . S
N486 N487 1.365 . S
N487 C484 1.341 . S
N487 N486 1.365 . S
N487 H507 0.862 . S
C488 C483 1.501 1_545 S
C488 H489 0.961 1_545 S
C488 H490 0.961 . S
C488 H491 0.960 . S
H489 C488 0.961 1_565 S
H490 C488 0.961 . S
H491 C488 0.960 . S
C492 N493 1.342 . S
C492 C496 1.401 . S
C492 C497 1.499 . S
N493 Co476 1.989 . S
N493 C492 1.342 . S
N493 N494 1.388 . S
N494 Co477 1.993 . S
N494 N493 1.388 . S
N494 C495 1.346 . S
C495 N494 1.346 . S
C495 C496 1.396 . S
C495 C505 1.510 . S
C496 C492 1.401 . S
C496 C495 1.396 . S
C497 C492 1.499 . S
C497 H498 0.959 . S
C497 H499 0.960 . S
C497 H500 0.961 . S
H498 C497 0.959 . S
H499 C497 0.960 . S
H500 C497 0.961 . S
O501 Co476 1.967 . S
O501 C509 1.258 . S
O502 Co477 1.941 . S
O502 C509 1.266 . S
H503 C505 0.959 . S
H504 C505 0.938 1_545 S
C505 C495 1.510 . S
C505 H503 0.959 . S
C505 H504 0.938 1_565 S
C505 H506 0.960 . S
H506 C505 0.960 . S
H507 N487 0.862 . S
O508 Co476 1.920 . S
O508 C481 1.289 . S
C509 O501 1.258 . S
C509 O502 1.266 . S
Co510 O513 1.970 . S
Co510 N527 1.989 . S
Co510 O535 1.967 . S
Co510 O542 1.920 . S
Co511 O514 1.966 . S
Co511 N520 2.022 . S
Co511 N528 1.993 . S
Co511 O536 1.941 . S
C512 O513 1.258 . S
C512 O514 1.263 . S
O513 Co510 1.970 . S
O513 C512 1.258 . S
O514 Co511 1.966 . S
O514 C512 1.263 . S
C515 O516 1.235 . S
C515 O542 1.289 . S
O516 C515 1.235 . S
C517 C519 1.400 . S
C517 N520 1.351 . S
C517 C522 1.501 . S
C518 C519 1.387 . S
C518 N521 1.341 . S
C519 C517 1.400 . S
C519 C518 1.387 . S
N520 Co511 2.022 . S
N520 C517 1.351 . S
N520 N521 1.365 . S
N521 C518 1.341 . S
N521 N520 1.365 . S
N521 H541 0.862 . S
C522 C517 1.501 . S
C522 H523 0.961 . S
C522 H524 0.961 . S
C522 H525 0.960 . S
H523 C522 0.961 . S
H524 C522 0.961 . S
H525 C522 0.960 . S
C526 N527 1.342 . S
C526 C530 1.401 . S
C526 C531 1.499 . S
N527 Co510 1.989 . S
N527 C526 1.342 . S
N527 N528 1.388 . S
N528 Co511 1.993 . S
N528 N527 1.388 . S
N528 C529 1.346 . S
C529 N528 1.346 . S
C529 C530 1.396 . S
C529 C539 1.510 . S
C530 C526 1.401 . S
C530 C529 1.396 . S
C531 C526 1.499 . S
C531 H532 0.959 . S
C531 H533 0.960 . S
C531 H534 0.961 . S
H532 C531 0.959 . S
H533 C531 0.960 . S
H534 C531 0.961 . S
O535 Co510 1.967 . S
O535 C543 1.258 . S
O536 Co511 1.941 . S
O536 C543 1.266 . S
H537 C539 0.959 . S
H538 C539 0.961 . S
C539 C529 1.510 . S
C539 H537 0.959 . S
C539 H538 0.961 . S
C539 H540 0.960 . S
H540 C539 0.960 . S
H541 N521 0.862 . S
O542 Co510 1.920 . S
O542 C515 1.289 . S
C543 O535 1.258 . S
C543 O536 1.266 . S
Co544 O547 1.970 . S
Co544 N561 1.989 . S
Co544 O569 1.967 . S
Co544 O576 1.920 . S
Co545 O548 1.966 . S
Co545 N554 2.022 . S
Co545 N562 1.993 . S
Co545 O570 1.941 . S
C546 O547 1.258 . S
C546 O548 1.263 . S
O547 Co544 1.970 . S
O547 C546 1.258 . S
O548 Co545 1.966 . S
O548 C546 1.263 . S
C549 O550 1.235 . S
C549 O576 1.289 . S
O550 C549 1.235 . S
C551 C553 1.400 . S
C551 N554 1.351 . S
C551 C556 1.501 . S
C552 C553 1.387 . S
C552 N555 1.341 . S
C553 C551 1.400 . S
C553 C552 1.387 . S
N554 Co545 2.022 . S
N554 C551 1.351 . S
N554 N555 1.365 . S
N555 C552 1.341 . S
N555 N554 1.365 . S
N555 H575 0.862 . S
C556 C551 1.501 . S
C556 H557 0.961 . S
C556 H558 0.961 . S
C556 H559 0.960 . S
H557 C556 0.961 . S
H558 C556 0.961 . S
H559 C556 0.960 . S
C560 N561 1.342 . S
C560 C564 1.401 . S
C560 C565 1.499 . S
N561 Co544 1.989 . S
N561 C560 1.342 . S
N561 N562 1.388 . S
N562 Co545 1.993 . S
N562 N561 1.388 . S
N562 C563 1.346 . S
C563 N562 1.346 . S
C563 C564 1.396 . S
C563 C573 1.510 . S
C564 C560 1.401 . S
C564 C563 1.396 . S
C565 C560 1.499 . S
C565 H566 0.959 . S
C565 H567 0.960 . S
C565 H568 0.961 . S
H566 C565 0.959 . S
H567 C565 0.960 . S
H568 C565 0.961 . S
O569 Co544 1.967 . S
O569 C577 1.258 . S
O570 Co545 1.941 . S
O570 C577 1.266 . S
H571 C573 0.959 . S
H572 C573 0.961 . S
C573 C563 1.510 . S
C573 H571 0.959 . S
C573 H572 0.961 . S
C573 H574 0.960 . S
H574 C573 0.960 . S
H575 N555 0.862 . S
O576 Co544 1.920 . S
O576 C549 1.289 . S
C577 O569 1.258 . S
C577 O570 1.266 . S
Co578 O581 1.970 . S
Co578 N595 1.989 . S
Co578 O603 1.967 . S
Co578 O610 1.920 . S
Co579 O582 1.966 . S
Co579 N588 2.022 . S
Co579 N596 1.993 . S
Co579 O604 1.941 . S
C580 O581 1.258 . S
C580 O582 1.263 . S
O581 Co578 1.970 . S
O581 C580 1.258 . S
O582 Co579 1.966 . S
O582 C580 1.263 . S
C583 O584 1.235 . S
C583 O610 1.289 . S
O584 C583 1.235 . S
C585 C587 1.400 . S
C585 N588 1.351 . S
C585 C590 1.501 . S
C586 C587 1.387 . S
C586 N589 1.341 . S
C587 C585 1.400 . S
C587 C586 1.387 . S
N588 Co579 2.022 . S
N588 C585 1.351 . S
N588 N589 1.365 . S
N589 C586 1.341 . S
N589 N588 1.365 . S
N589 H609 0.862 . S
C590 C585 1.501 . S
C590 H591 0.961 . S
C590 H592 0.961 . S
C590 H593 0.960 . S
H591 C590 0.961 . S
H592 C590 0.961 . S
H593 C590 0.960 . S
C594 N595 1.342 . S
C594 C598 1.401 . S
C594 C599 1.499 . S
N595 Co578 1.989 . S
N595 C594 1.342 . S
N595 N596 1.388 . S
N596 Co579 1.993 . S
N596 N595 1.388 . S
N596 C597 1.346 . S
C597 N596 1.346 . S
C597 C598 1.396 . S
C597 C607 1.510 . S
C598 C594 1.401 . S
C598 C597 1.396 . S
C599 C594 1.499 . S
C599 H600 0.959 . S
C599 H601 0.960 . S
C599 H602 0.961 . S
H600 C599 0.959 . S
H601 C599 0.960 . S
H602 C599 0.961 . S
O603 Co578 1.967 . S
O603 C611 1.258 . S
O604 Co579 1.941 . S
O604 C611 1.266 . S
H605 C607 0.959 . S
H606 C607 0.961 . S
C607 C597 1.510 . S
C607 H605 0.959 . S
C607 H606 0.961 . S
C607 H608 0.960 . S
H608 C607 0.960 . S
H609 N589 0.862 . S
O610 Co578 1.920 . S
O610 C583 1.289 . S
C611 O603 1.258 . S
C611 O604 1.266 . S
Co612 O615 1.970 . S
Co612 N629 1.989 . S
Co612 O637 1.967 . S
Co612 O644 1.920 . S
Co613 O616 1.966 . S
Co613 N622 2.022 . S
Co613 N630 1.993 . S
Co613 O638 1.941 . S
C614 O615 1.258 . S
C614 O616 1.263 . S
O615 Co612 1.970 . S
O615 C614 1.258 . S
O616 Co613 1.966 . S
O616 C614 1.263 . S
C617 O618 1.235 . S
C617 O644 1.289 . S
O618 C617 1.235 . S
C619 C621 1.400 . S
C619 N622 1.351 . S
C619 C624 1.501 . S
C620 C621 1.387 . S
C620 N623 1.341 . S
C621 C619 1.400 . S
C621 C620 1.387 . S
N622 Co613 2.022 . S
N622 C619 1.351 . S
N622 N623 1.365 . S
N623 C620 1.341 . S
N623 N622 1.365 . S
N623 H643 0.862 . S
C624 C619 1.501 . S
C624 H625 0.961 . S
C624 H626 0.961 . S
C624 H627 0.960 . S
H625 C624 0.961 . S
H626 C624 0.961 . S
H627 C624 0.960 . S
C628 N629 1.342 . S
C628 C632 1.401 . S
C628 C633 1.499 . S
N629 Co612 1.989 . S
N629 C628 1.342 . S
N629 N630 1.388 . S
N630 Co613 1.993 . S
N630 N629 1.388 . S
N630 C631 1.346 . S
C631 N630 1.346 . S
C631 C632 1.396 . S
C631 C641 1.510 . S
C632 C628 1.401 . S
C632 C631 1.396 . S
C633 C628 1.499 . S
C633 H634 0.959 . S
C633 H635 0.960 . S
C633 H636 0.961 . S
H634 C633 0.959 . S
H635 C633 0.960 . S
H636 C633 0.961 . S
O637 Co612 1.967 . S
O637 C645 1.258 . S
O638 Co613 1.941 . S
O638 C645 1.266 . S
H639 C641 0.959 . S
H640 C641 0.961 . S
C641 C631 1.510 . S
C641 H639 0.959 . S
C641 H640 0.961 . S
C641 H642 0.960 . S
H642 C641 0.960 . S
H643 N623 0.862 . S
O644 Co612 1.920 . S
O644 C617 1.289 . S
C645 O637 1.258 . S
C645 O638 1.266 . S
Co646 O649 1.970 . S
Co646 N663 1.989 . S
Co646 O671 1.967 . S
Co646 O678 1.920 . S
Co647 O650 1.966 . S
Co647 N656 2.022 . S
Co647 N664 1.993 . S
Co647 O672 1.941 . S
C648 O649 1.258 . S
C648 O650 1.263 . S
O649 Co646 1.970 . S
O649 C648 1.258 . S
O650 Co647 1.966 . S
O650 C648 1.263 . S
C651 O652 1.235 . S
C651 O678 1.289 . S
O652 C651 1.235 . S
C653 C655 1.400 . S
C653 N656 1.351 . S
C653 C658 1.501 . S
C654 C655 1.387 . S
C654 N657 1.341 . S
C655 C653 1.400 . S
C655 C654 1.387 . S
N656 Co647 2.022 . S
N656 C653 1.351 . S
N656 N657 1.365 . S
N657 C654 1.341 . S
N657 N656 1.365 . S
N657 H677 0.862 . S
C658 C653 1.501 . S
C658 H659 0.961 . S
C658 H660 0.961 . S
C658 H661 0.960 . S
H659 C658 0.961 . S
H660 C658 0.961 . S
H661 C658 0.960 . S
C662 N663 1.342 . S
C662 C666 1.401 . S
C662 C667 1.499 . S
N663 Co646 1.989 . S
N663 C662 1.342 . S
N663 N664 1.388 . S
N664 Co647 1.993 . S
N664 N663 1.388 . S
N664 C665 1.346 . S
C665 N664 1.346 . S
C665 C666 1.396 . S
C665 C675 1.510 . S
C666 C662 1.401 . S
C666 C665 1.396 . S
C667 C662 1.499 . S
C667 H668 0.959 . S
C667 H669 0.960 . S
C667 H670 0.961 . S
H668 C667 0.959 . S
H669 C667 0.960 . S
H670 C667 0.961 . S
O671 Co646 1.967 . S
O671 C679 1.258 . S
O672 Co647 1.941 . S
O672 C679 1.266 . S
H673 C675 0.959 . S
H674 C675 0.961 . S
C675 C665 1.510 . S
C675 H673 0.959 . S
C675 H674 0.961 . S
C675 H676 0.960 . S
H676 C675 0.960 . S
H677 N657 0.862 . S
O678 Co646 1.920 . S
O678 C651 1.289 . S
C679 O671 1.258 . S
C679 O672 1.266 . S
Co680 O683 1.970 . S
Co680 N697 1.989 . S
Co680 O705 1.967 . S
Co680 O712 1.920 . S
Co681 O684 1.966 . S
Co681 N690 2.022 . S
Co681 N698 1.993 . S
Co681 O706 1.941 . S
C682 O683 1.258 . S
C682 O684 1.263 . S
O683 Co680 1.970 . S
O683 C682 1.258 . S
O684 Co681 1.966 . S
O684 C682 1.263 . S
C685 O686 1.235 . S
C685 O712 1.289 . S
O686 C685 1.235 . S
C687 C689 1.400 . S
C687 N690 1.351 . S
C687 C692 1.501 . S
C688 C689 1.387 . S
C688 N691 1.341 . S
C689 C687 1.400 . S
C689 C688 1.387 . S
N690 Co681 2.022 . S
N690 C687 1.351 . S
N690 N691 1.365 . S
N691 C688 1.341 . S
N691 N690 1.365 . S
N691 H711 0.862 . S
C692 C687 1.501 . S
C692 H693 0.961 . S
C692 H694 0.961 . S
C692 H695 0.960 . S
H693 C692 0.961 . S
H694 C692 0.961 . S
H695 C692 0.960 . S
C696 N697 1.342 . S
C696 C700 1.401 . S
C696 C701 1.499 . S
N697 Co680 1.989 . S
N697 C696 1.342 . S
N697 N698 1.388 . S
N698 Co681 1.993 . S
N698 N697 1.388 . S
N698 C699 1.346 . S
C699 N698 1.346 . S
C699 C700 1.396 . S
C699 C709 1.510 . S
C700 C696 1.401 . S
C700 C699 1.396 . S
C701 C696 1.499 . S
C701 H702 0.959 . S
C701 H703 0.960 . S
C701 H704 0.961 . S
H702 C701 0.959 . S
H703 C701 0.960 . S
H704 C701 0.961 . S
O705 Co680 1.967 . S
O705 C713 1.258 . S
O706 Co681 1.941 . S
O706 C713 1.266 . S
H707 C709 0.959 . S
H708 C709 0.961 . S
C709 C699 1.510 . S
C709 H707 0.959 . S
C709 H708 0.961 . S
C709 H710 0.960 . S
H710 C709 0.960 . S
H711 N691 0.862 . S
O712 Co680 1.920 . S
O712 C685 1.289 . S
C713 O705 1.258 . S
C713 O706 1.266 . S
Co714 O717 1.970 . S
Co714 N731 1.989 . S
Co714 O739 1.967 . S
Co714 O746 1.920 . S
Co715 O718 1.966 . S
Co715 N724 2.022 . S
Co715 N732 1.993 . S
Co715 O740 1.941 . S
C716 O717 1.258 . S
C716 O718 1.263 . S
O717 Co714 1.970 . S
O717 C716 1.258 . S
O718 Co715 1.966 . S
O718 C716 1.263 . S
C719 O720 1.235 . S
C719 O746 1.289 . S
O720 C719 1.235 . S
C721 C723 1.400 . S
C721 N724 1.351 . S
C721 C726 1.501 . S
C722 C723 1.387 . S
C722 N725 1.341 . S
C723 C721 1.400 . S
C723 C722 1.387 . S
N724 Co715 2.022 . S
N724 C721 1.351 . S
N724 N725 1.365 . S
N725 C722 1.341 . S
N725 N724 1.365 . S
N725 H745 0.862 . S
C726 C721 1.501 . S
C726 H727 0.961 . S
C726 H728 0.961 . S
C726 H729 0.960 . S
H727 C726 0.961 . S
H728 C726 0.961 . S
H729 C726 0.960 . S
C730 N731 1.342 . S
C730 C734 1.401 . S
C730 C735 1.499 . S
N731 Co714 1.989 . S
N731 C730 1.342 . S
N731 N732 1.388 . S
N732 Co715 1.993 . S
N732 N731 1.388 . S
N732 C733 1.346 . S
C733 N732 1.346 . S
C733 C734 1.396 . S
C733 C743 1.510 . S
C734 C730 1.401 . S
C734 C733 1.396 . S
C735 C730 1.499 . S
C735 H736 0.959 . S
C735 H737 0.960 . S
C735 H738 0.961 . S
H736 C735 0.959 . S
H737 C735 0.960 . S
H738 C735 0.961 . S
O739 Co714 1.967 . S
O739 C747 1.258 . S
O740 Co715 1.941 . S
O740 C747 1.266 . S
H741 C743 0.959 . S
H742 C743 0.961 . S
C743 C733 1.510 . S
C743 H741 0.959 . S
C743 H742 0.961 . S
C743 H744 0.960 . S
H744 C743 0.960 . S
H745 N725 0.862 . S
O746 Co714 1.920 . S
O746 C719 1.289 . S
C747 O739 1.258 . S
C747 O740 1.266 . S
Co748 O751 1.970 . S
Co748 N765 1.989 . S
Co748 O773 1.967 . S
Co748 O780 1.920 . S
Co749 O752 1.966 . S
Co749 N758 2.022 . S
Co749 N766 1.993 . S
Co749 O774 1.941 . S
C750 O751 1.258 . S
C750 O752 1.263 . S
O751 Co748 1.970 . S
O751 C750 1.258 . S
O752 Co749 1.966 . S
O752 C750 1.263 . S
C753 O754 1.235 . S
C753 O780 1.289 . S
O754 C753 1.235 . S
C755 C757 1.400 . S
C755 N758 1.351 . S
C755 C760 1.501 . S
C756 C757 1.387 . S
C756 N759 1.341 . S
C757 C755 1.400 . S
C757 C756 1.387 . S
N758 Co749 2.022 . S
N758 C755 1.351 . S
N758 N759 1.365 . S
N759 C756 1.341 . S
N759 N758 1.365 . S
N759 H779 0.862 . S
C760 C755 1.501 . S
C760 H761 0.961 . S
C760 H762 0.961 . S
C760 H763 0.960 . S
H761 C760 0.961 . S
H762 C760 0.961 . S
H763 C760 0.960 . S
C764 N765 1.342 . S
C764 C768 1.401 . S
C764 C769 1.499 . S
N765 Co748 1.989 . S
N765 C764 1.342 . S
N765 N766 1.388 . S
N766 Co749 1.993 . S
N766 N765 1.388 . S
N766 C767 1.346 . S
C767 N766 1.346 . S
C767 C768 1.396 . S
C767 C777 1.510 . S
C768 C764 1.401 . S
C768 C767 1.396 . S
C769 C764 1.499 . S
C769 H770 0.959 . S
C769 H771 0.960 . S
C769 H772 0.961 . S
H770 C769 0.959 . S
H771 C769 0.960 . S
H772 C769 0.961 . S
O773 Co748 1.967 . S
O773 C781 1.258 . S
O774 Co749 1.941 . S
O774 C781 1.266 . S
H775 C777 0.959 . S
H776 C777 0.961 . S
C777 C767 1.510 . S
C777 H775 0.959 . S
C777 H776 0.961 . S
C777 H778 0.960 . S
H778 C777 0.960 . S
H779 N759 0.862 . S
O780 Co748 1.920 . S
O780 C753 1.289 . S
C781 O773 1.258 . S
C781 O774 1.266 . S
Co782 O785 1.970 . S
Co782 N799 1.989 . S
Co782 O807 1.967 . S
Co782 O814 1.920 . S
Co783 O786 1.966 . S
Co783 N792 2.022 . S
Co783 N800 1.993 . S
Co783 O808 1.941 . S
C784 O785 1.258 . S
C784 O786 1.263 . S
O785 Co782 1.970 . S
O785 C784 1.258 . S
O786 Co783 1.966 . S
O786 C784 1.263 . S
C787 O788 1.235 . S
C787 O814 1.289 . S
O788 C787 1.235 . S
C789 C791 1.400 . S
C789 N792 1.351 . S
C789 C794 1.501 . S
C790 C791 1.387 . S
C790 N793 1.341 . S
C791 C789 1.400 . S
C791 C790 1.387 . S
N792 Co783 2.022 . S
N792 C789 1.351 . S
N792 N793 1.365 . S
N793 C790 1.341 . S
N793 N792 1.365 . S
N793 H813 0.862 . S
C794 C789 1.501 . S
C794 H795 0.961 . S
C794 H796 0.961 . S
C794 H797 0.960 . S
H795 C794 0.961 . S
H796 C794 0.961 . S
H797 C794 0.960 . S
C798 N799 1.342 . S
C798 C802 1.401 . S
C798 C803 1.499 . S
N799 Co782 1.989 . S
N799 C798 1.342 . S
N799 N800 1.388 . S
N800 Co783 1.993 . S
N800 N799 1.388 . S
N800 C801 1.346 . S
C801 N800 1.346 . S
C801 C802 1.396 . S
C801 C811 1.510 . S
C802 C798 1.401 . S
C802 C801 1.396 . S
C803 C798 1.499 . S
C803 H804 0.959 . S
C803 H805 0.960 . S
C803 H806 0.961 . S
H804 C803 0.959 . S
H805 C803 0.960 . S
H806 C803 0.961 . S
O807 Co782 1.967 . S
O807 C815 1.258 . S
O808 Co783 1.941 . S
O808 C815 1.266 . S
H809 C811 0.959 . S
H810 C811 0.961 . S
C811 C801 1.510 . S
C811 H809 0.959 . S
C811 H810 0.961 . S
C811 H812 0.960 . S
H812 C811 0.960 . S
H813 N793 0.862 . S
O814 Co782 1.920 . S
O814 C787 1.289 . S
C815 O807 1.258 . S
C815 O808 1.266 . S
Co816 O819 1.970 . S
Co816 N833 1.989 . S
Co816 O841 1.967 . S
Co816 O848 1.920 . S
Co817 O820 1.966 . S
Co817 N826 2.022 . S
Co817 N834 1.993 . S
Co817 O842 1.941 . S
C818 O819 1.258 . S
C818 O820 1.263 . S
O819 Co816 1.970 . S
O819 C818 1.258 . S
O820 Co817 1.966 . S
O820 C818 1.263 . S
C821 O822 1.235 . S
C821 O848 1.289 . S
O822 C821 1.235 . S
C823 C825 1.400 . S
C823 N826 1.351 . S
C823 C828 1.501 . S
C824 C825 1.387 . S
C824 N827 1.341 . S
C825 C823 1.400 . S
C825 C824 1.387 . S
N826 Co817 2.022 . S
N826 C823 1.351 . S
N826 N827 1.365 . S
N827 C824 1.341 . S
N827 N826 1.365 . S
N827 H847 0.862 . S
C828 C823 1.501 . S
C828 H829 0.961 . S
C828 H830 0.961 . S
C828 H831 0.960 . S
H829 C828 0.961 . S
H830 C828 0.961 . S
H831 C828 0.960 . S
C832 N833 1.342 . S
C832 C836 1.401 . S
C832 C837 1.499 . S
N833 Co816 1.989 . S
N833 C832 1.342 . S
N833 N834 1.388 . S
N834 Co817 1.993 . S
N834 N833 1.388 . S
N834 C835 1.346 . S
C835 N834 1.346 . S
C835 C836 1.396 . S
C835 C845 1.510 . S
C836 C832 1.401 . S
C836 C835 1.396 . S
C837 C832 1.499 . S
C837 H838 0.959 . S
C837 H839 0.960 . S
C837 H840 0.961 . S
H838 C837 0.959 . S
H839 C837 0.960 . S
H840 C837 0.961 . S
O841 Co816 1.967 . S
O841 C849 1.258 . S
O842 Co817 1.941 . S
O842 C849 1.266 . S
H843 C845 0.959 . S
H844 C845 0.961 . S
C845 C835 1.510 . S
C845 H843 0.959 . S
C845 H844 0.961 . S
C845 H846 0.960 . S
H846 C845 0.960 . S
H847 N827 0.862 . S
O848 Co816 1.920 . S
O848 C821 1.289 . S
C849 O841 1.258 . S
C849 O842 1.266 . S
Co850 O853 1.970 . S
Co850 N867 1.989 . S
Co850 O875 1.967 . S
Co850 O882 1.920 . S
Co851 O854 1.966 . S
Co851 N860 2.022 . S
Co851 N868 1.993 . S
Co851 O876 1.941 . S
C852 O853 1.258 . S
C852 O854 1.263 . S
O853 Co850 1.970 . S
O853 C852 1.258 . S
O854 Co851 1.966 . S
O854 C852 1.263 . S
C855 O856 1.235 . S
C855 O882 1.289 . S
O856 C855 1.235 . S
C857 C859 1.400 . S
C857 N860 1.351 . S
C857 C862 1.501 . S
C858 C859 1.387 . S
C858 N861 1.341 . S
C859 C857 1.400 . S
C859 C858 1.387 . S
N860 Co851 2.022 . S
N860 C857 1.351 . S
N860 N861 1.365 . S
N861 C858 1.341 . S
N861 N860 1.365 . S
N861 H881 0.862 . S
C862 C857 1.501 . S
C862 H863 0.961 . S
C862 H864 0.961 . S
C862 H865 0.960 . S
H863 C862 0.961 . S
H864 C862 0.961 . S
H865 C862 0.960 . S
C866 N867 1.342 . S
C866 C870 1.401 . S
C866 C871 1.499 . S
N867 Co850 1.989 . S
N867 C866 1.342 . S
N867 N868 1.388 . S
N868 Co851 1.993 . S
N868 N867 1.388 . S
N868 C869 1.346 . S
C869 N868 1.346 . S
C869 C870 1.396 . S
C869 C879 1.510 . S
C870 C866 1.401 . S
C870 C869 1.396 . S
C871 C866 1.499 . S
C871 H872 0.959 . S
C871 H873 0.960 . S
C871 H874 0.961 . S
H872 C871 0.959 . S
H873 C871 0.960 . S
H874 C871 0.961 . S
O875 Co850 1.967 . S
O875 C883 1.258 . S
O876 Co851 1.941 . S
O876 C883 1.266 . S
H877 C879 0.959 . S
H878 C879 0.961 . S
C879 C869 1.510 . S
C879 H877 0.959 . S
C879 H878 0.961 . S
C879 H880 0.960 . S
H880 C879 0.960 . S
H881 N861 0.862 . S
O882 Co850 1.920 . S
O882 C855 1.289 . S
C883 O875 1.258 . S
C883 O876 1.266 . S
Co884 O887 1.970 . S
Co884 N901 1.989 . S
Co884 O909 1.967 . S
Co884 O916 1.920 . S
Co885 O888 1.966 . S
Co885 N894 2.022 . S
Co885 N902 1.993 . S
Co885 O910 1.941 . S
C886 O887 1.258 . S
C886 O888 1.263 . S
O887 Co884 1.970 . S
O887 C886 1.258 . S
O888 Co885 1.966 . S
O888 C886 1.263 . S
C889 O890 1.235 . S
C889 O916 1.289 . S
O890 C889 1.235 . S
C891 C893 1.400 . S
C891 N894 1.351 . S
C891 C896 1.501 . S
C892 C893 1.387 . S
C892 N895 1.341 . S
C893 C891 1.400 . S
C893 C892 1.387 . S
N894 Co885 2.022 . S
N894 C891 1.351 . S
N894 N895 1.365 . S
N895 C892 1.341 . S
N895 N894 1.365 . S
N895 H915 0.862 . S
C896 C891 1.501 . S
C896 H897 0.961 . S
C896 H898 0.961 . S
C896 H899 0.960 . S
H897 C896 0.961 . S
H898 C896 0.961 . S
H899 C896 0.960 . S
C900 N901 1.342 . S
C900 C904 1.401 . S
C900 C905 1.499 . S
N901 Co884 1.989 . S
N901 C900 1.342 . S
N901 N902 1.388 . S
N902 Co885 1.993 . S
N902 N901 1.388 . S
N902 C903 1.346 . S
C903 N902 1.346 . S
C903 C904 1.396 . S
C903 C913 1.510 . S
C904 C900 1.401 . S
C904 C903 1.396 . S
C905 C900 1.499 . S
C905 H906 0.959 . S
C905 H907 0.960 . S
C905 H908 0.961 . S
H906 C905 0.959 . S
H907 C905 0.960 . S
H908 C905 0.961 . S
O909 Co884 1.967 . S
O909 C917 1.258 . S
O910 Co885 1.941 . S
O910 C917 1.266 . S
H911 C913 0.959 . S
H912 C913 0.961 . S
C913 C903 1.510 . S
C913 H911 0.959 . S
C913 H912 0.961 . S
C913 H914 0.960 . S
H914 C913 0.960 . S
H915 N895 0.862 . S
O916 Co884 1.920 . S
O916 C889 1.289 . S
C917 O909 1.258 . S
C917 O910 1.266 . S
Co918 O921 1.970 . S
Co918 N935 1.989 . S
Co918 O943 1.967 . S
Co918 O950 1.920 . S
Co919 O922 1.966 . S
Co919 N928 2.022 . S
Co919 N936 1.993 . S
Co919 O944 1.941 . S
C920 O921 1.258 . S
C920 O922 1.263 . S
O921 Co918 1.970 . S
O921 C920 1.258 . S
O922 Co919 1.966 . S
O922 C920 1.263 . S
C923 O924 1.235 . S
C923 O950 1.289 . S
O924 C923 1.235 . S
C925 C927 1.400 . S
C925 N928 1.351 . S
C925 C930 1.501 . S
C926 C927 1.387 . S
C926 N929 1.341 . S
C927 C925 1.400 . S
C927 C926 1.387 . S
N928 Co919 2.022 . S
N928 C925 1.351 . S
N928 N929 1.365 . S
N929 C926 1.341 . S
N929 N928 1.365 . S
N929 H949 0.862 . S
C930 C925 1.501 . S
C930 H931 0.961 . S
C930 H932 0.961 . S
C930 H933 0.960 . S
H931 C930 0.961 . S
H932 C930 0.961 . S
H933 C930 0.960 . S
C934 N935 1.342 . S
C934 C938 1.401 . S
C934 C939 1.499 . S
N935 Co918 1.989 . S
N935 C934 1.342 . S
N935 N936 1.388 . S
N936 Co919 1.993 . S
N936 N935 1.388 . S
N936 C937 1.346 . S
C937 N936 1.346 . S
C937 C938 1.396 . S
C937 C947 1.510 . S
C938 C934 1.401 . S
C938 C937 1.396 . S
C939 C934 1.499 . S
C939 H940 0.959 . S
C939 H941 0.960 . S
C939 H942 0.961 . S
H940 C939 0.959 . S
H941 C939 0.960 . S
H942 C939 0.961 . S
O943 Co918 1.967 . S
O943 C951 1.258 . S
O944 Co919 1.941 . S
O944 C951 1.266 . S
H945 C947 0.959 . S
H946 C947 0.961 . S
C947 C937 1.510 . S
C947 H945 0.959 . S
C947 H946 0.961 . S
C947 H948 0.960 . S
H948 C947 0.960 . S
H949 N929 0.862 . S
O950 Co918 1.920 . S
O950 C923 1.289 . S
C951 O943 1.258 . S
C951 O944 1.266 . S
Co952 O955 1.970 . S
Co952 N969 1.989 . S
Co952 O977 1.967 . S
Co952 O984 1.920 . S
Co953 O956 1.966 . S
Co953 N962 2.022 . S
Co953 N970 1.993 . S
Co953 O978 1.941 . S
C954 O955 1.258 . S
C954 O956 1.263 . S
O955 Co952 1.970 . S
O955 C954 1.258 . S
O956 Co953 1.966 . S
O956 C954 1.263 . S
C957 O958 1.235 . S
C957 O984 1.289 . S
O958 C957 1.235 . S
C959 C961 1.400 . S
C959 N962 1.351 . S
C959 C964 1.501 . S
C960 C961 1.387 . S
C960 N963 1.341 . S
C961 C959 1.400 . S
C961 C960 1.387 . S
N962 Co953 2.022 . S
N962 C959 1.351 . S
N962 N963 1.365 . S
N963 C960 1.341 . S
N963 N962 1.365 . S
N963 H983 0.862 . S
C964 C959 1.501 . S
C964 H965 0.961 . S
C964 H966 0.961 . S
C964 H967 0.960 . S
H965 C964 0.961 . S
H966 C964 0.961 . S
H967 C964 0.960 . S
C968 N969 1.342 . S
C968 C972 1.401 . S
C968 C973 1.499 . S
N969 Co952 1.989 . S
N969 C968 1.342 . S
N969 N970 1.388 . S
N970 Co953 1.993 . S
N970 N969 1.388 . S
N970 C971 1.346 . S
C971 N970 1.346 . S
C971 C972 1.396 . S
C971 C981 1.510 . S
C972 C968 1.401 . S
C972 C971 1.396 . S
C973 C968 1.499 . S
C973 H974 0.959 . S
C973 H975 0.960 . S
C973 H976 0.961 . S
H974 C973 0.959 . S
H975 C973 0.960 . S
H976 C973 0.961 . S
O977 Co952 1.967 . S
O977 C985 1.258 . S
O978 Co953 1.941 . S
O978 C985 1.266 . S
H979 C981 0.959 . S
H980 C981 0.961 . S
C981 C971 1.510 . S
C981 H979 0.959 . S
C981 H980 0.961 . S
C981 H982 0.960 . S
H982 C981 0.960 . S
H983 N963 0.862 . S
O984 Co952 1.920 . S
O984 C957 1.289 . S
C985 O977 1.258 . S
C985 O978 1.266 . S
Co986 O989 1.970 . S
Co986 N1003 1.989 . S
Co986 O1011 1.967 . S
Co986 O1018 1.920 . S
Co987 O990 1.966 . S
Co987 N996 2.022 . S
Co987 N1004 1.993 . S
Co987 O1012 1.941 . S
C988 O989 1.258 . S
C988 O990 1.263 . S
O989 Co986 1.970 . S
O989 C988 1.258 . S
O990 Co987 1.966 . S
O990 C988 1.263 . S
C991 O992 1.235 . S
C991 O1018 1.289 . S
O992 C991 1.235 . S
C993 C995 1.400 . S
C993 N996 1.351 . S
C993 C998 1.501 . S
C994 C995 1.387 . S
C994 N997 1.341 . S
C995 C993 1.400 . S
C995 C994 1.387 . S
N996 Co987 2.022 . S
N996 C993 1.351 . S
N996 N997 1.365 . S
N997 C994 1.341 . S
N997 N996 1.365 . S
N997 H1017 0.862 . S
C998 C993 1.501 . S
C998 H999 0.961 . S
C998 H1000 0.961 . S
C998 H1001 0.960 . S
H999 C998 0.961 . S
H1000 C998 0.961 . S
H1001 C998 0.960 . S
C1002 N1003 1.342 . S
C1002 C1006 1.401 . S
C1002 C1007 1.499 . S
N1003 Co986 1.989 . S
N1003 C1002 1.342 . S
N1003 N1004 1.388 . S
N1004 Co987 1.993 . S
N1004 N1003 1.388 . S
N1004 C1005 1.346 . S
C1005 N1004 1.346 . S
C1005 C1006 1.396 . S
C1005 C1015 1.510 . S
C1006 C1002 1.401 . S
C1006 C1005 1.396 . S
C1007 C1002 1.499 . S
C1007 H1008 0.959 . S
C1007 H1009 0.960 . S
C1007 H1010 0.961 . S
H1008 C1007 0.959 . S
H1009 C1007 0.960 . S
H1010 C1007 0.961 . S
O1011 Co986 1.967 . S
O1011 C1019 1.258 . S
O1012 Co987 1.941 . S
O1012 C1019 1.266 . S
H1013 C1015 0.959 . S
H1014 C1015 0.961 . S
C1015 C1005 1.510 . S
C1015 H1013 0.959 . S
C1015 H1014 0.961 . S
C1015 H1016 0.960 . S
H1016 C1015 0.960 . S
H1017 N997 0.862 . S
O1018 Co986 1.920 . S
O1018 C991 1.289 . S
C1019 O1011 1.258 . S
C1019 O1012 1.266 . S
Co1020 O1023 1.970 . S
Co1020 N1037 1.989 . S
Co1020 O1045 1.967 . S
Co1020 O1052 1.920 . S
Co1021 O1024 1.966 . S
Co1021 N1030 2.022 . S
Co1021 N1038 1.993 . S
Co1021 O1046 1.941 . S
C1022 O1023 1.258 . S
C1022 O1024 1.263 . S
O1023 Co1020 1.970 . S
O1023 C1022 1.258 . S
O1024 Co1021 1.966 . S
O1024 C1022 1.263 . S
C1025 O1026 1.235 . S
C1025 O1052 1.289 . S
O1026 C1025 1.235 . S
C1027 C1029 1.400 . S
C1027 N1030 1.351 . S
C1027 C1032 1.501 . S
C1028 C1029 1.387 . S
C1028 N1031 1.341 . S
C1029 C1027 1.400 . S
C1029 C1028 1.387 . S
N1030 Co1021 2.022 . S
N1030 C1027 1.351 . S
N1030 N1031 1.365 . S
N1031 C1028 1.341 . S
N1031 N1030 1.365 . S
N1031 H1051 0.862 . S
C1032 C1027 1.501 . S
C1032 H1033 0.961 . S
C1032 H1034 0.961 . S
C1032 H1035 0.960 . S
H1033 C1032 0.961 . S
H1034 C1032 0.961 . S
H1035 C1032 0.960 . S
C1036 N1037 1.342 . S
C1036 C1040 1.401 . S
C1036 C1041 1.499 . S
N1037 Co1020 1.989 . S
N1037 C1036 1.342 . S
N1037 N1038 1.388 . S
N1038 Co1021 1.993 . S
N1038 N1037 1.388 . S
N1038 C1039 1.346 . S
C1039 N1038 1.346 . S
C1039 C1040 1.396 . S
C1039 C1049 1.510 . S
C1040 C1036 1.401 . S
C1040 C1039 1.396 . S
C1041 C1036 1.499 . S
C1041 H1042 0.959 . S
C1041 H1043 0.960 . S
C1041 H1044 0.961 . S
H1042 C1041 0.959 . S
H1043 C1041 0.960 . S
H1044 C1041 0.961 . S
O1045 Co1020 1.967 . S
O1045 C1053 1.258 . S
O1046 Co1021 1.941 . S
O1046 C1053 1.266 . S
H1047 C1049 0.959 . S
H1048 C1049 0.961 . S
C1049 C1039 1.510 . S
C1049 H1047 0.959 . S
C1049 H1048 0.961 . S
C1049 H1050 0.960 . S
H1050 C1049 0.960 . S
H1051 N1031 0.862 . S
O1052 Co1020 1.920 . S
O1052 C1025 1.289 . S
C1053 O1045 1.258 . S
C1053 O1046 1.266 . S
Co1054 O1057 1.970 . S
Co1054 N1071 1.989 . S
Co1054 O1079 1.967 . S
Co1054 O1086 1.920 . S
Co1055 O1058 1.966 . S
Co1055 N1064 2.022 . S
Co1055 N1072 1.993 . S
Co1055 O1080 1.941 . S
C1056 O1057 1.258 . S
C1056 O1058 1.263 . S
O1057 Co1054 1.970 . S
O1057 C1056 1.258 . S
O1058 Co1055 1.966 . S
O1058 C1056 1.263 . S
C1059 O1060 1.235 . S
C1059 O1086 1.289 . S
O1060 C1059 1.235 . S
C1061 C1063 1.400 . S
C1061 N1064 1.351 . S
C1061 C1066 1.501 . S
C1062 C1063 1.387 . S
C1062 N1065 1.341 . S
C1063 C1061 1.400 . S
C1063 C1062 1.387 . S
N1064 Co1055 2.022 . S
N1064 C1061 1.351 . S
N1064 N1065 1.365 . S
N1065 C1062 1.341 . S
N1065 N1064 1.365 . S
N1065 H1085 0.862 . S
C1066 C1061 1.501 . S
C1066 H1067 0.961 . S
C1066 H1068 0.961 . S
C1066 H1069 0.960 . S
H1067 C1066 0.961 . S
H1068 C1066 0.961 . S
H1069 C1066 0.960 . S
C1070 N1071 1.342 . S
C1070 C1074 1.401 . S
C1070 C1075 1.499 . S
N1071 Co1054 1.989 . S
N1071 C1070 1.342 . S
N1071 N1072 1.388 . S
N1072 Co1055 1.993 . S
N1072 N1071 1.388 . S
N1072 C1073 1.346 . S
C1073 N1072 1.346 . S
C1073 C1074 1.396 . S
C1073 C1083 1.510 . S
C1074 C1070 1.401 . S
C1074 C1073 1.396 . S
C1075 C1070 1.499 . S
C1075 H1076 0.959 . S
C1075 H1077 0.960 . S
C1075 H1078 0.961 . S
H1076 C1075 0.959 . S
H1077 C1075 0.960 . S
H1078 C1075 0.961 . S
O1079 Co1054 1.967 . S
O1079 C1087 1.258 . S
O1080 Co1055 1.941 . S
O1080 C1087 1.266 . S
H1081 C1083 0.959 . S
H1082 C1083 0.961 . S
C1083 C1073 1.510 . S
C1083 H1081 0.959 . S
C1083 H1082 0.961 . S
C1083 H1084 0.960 . S
H1084 C1083 0.960 . S
H1085 N1065 0.862 . S
O1086 Co1054 1.920 . S
O1086 C1059 1.289 . S
C1087 O1079 1.258 . S
C1087 O1080 1.266 . S
H1088 C1096 0.950 . S
H1089 C1101 0.950 . S
H1090 C1098 0.950 . S
H1091 C1100 0.950 . S
H1092 C1102 0.950 . S
H1093 C1104 0.950 . S
H1094 C1106 0.950 . S
H1095 C1107 0.950 . S
C1096 H1088 0.950 . S
C1096 C1097 1.386 . S
C1096 C1098 1.391 . S
C1097 C1096 1.386 . S
C1097 C1101 1.393 1_565 S
C1098 H1090 0.950 . S
C1098 C1096 1.391 . S
C1098 C1099 1.408 . S
C1099 C1098 1.408 . S
C1099 C1100 1.391 1_565 S
C1099 C1105 1.490 1_565 S
C1100 H1091 0.950 . S
C1100 C1099 1.391 1_545 S
C1100 C1101 1.391 . S
C1101 H1089 0.950 . S
C1101 C1097 1.393 1_545 S
C1101 C1100 1.391 . S
C1102 H1092 0.950 . S
C1102 C1103 1.386 . S
C1102 C1104 1.391 . S
C1103 C1102 1.386 . S
C1103 C1107 1.393 1_545 S
C1104 H1093 0.950 . S
C1104 C1102 1.391 . S
C1104 C1105 1.408 . S
C1105 C1099 1.490 1_545 S
C1105 C1104 1.408 . S
C1105 C1106 1.391 1_545 S
C1106 H1094 0.950 . S
C1106 C1105 1.391 1_565 S
C1106 C1107 1.391 . S
C1107 H1095 0.950 . S
C1107 C1103 1.393 1_565 S
C1107 C1106 1.391 . S
H1108 C1116 0.950 . S
H1109 C1121 0.950 . S
H1110 C1118 0.950 . S
H1111 C1120 0.950 . S
H1112 C1122 0.950 . S
H1113 C1124 0.950 . S
H1114 C1126 0.950 . S
H1115 C1127 0.950 . S
C1116 H1108 0.950 . S
C1116 C1117 1.386 . S
C1116 C1118 1.391 . S
C1117 C1116 1.386 . S
C1117 C1121 1.393 . S
C1118 H1110 0.950 . S
C1118 C1116 1.391 . S
C1118 C1119 1.400 . S
C1119 C1118 1.400 . S
C1119 C1120 1.398 . S
C1119 C1125 1.491 . S
C1120 H1111 0.950 . S
C1120 C1119 1.398 . S
C1120 C1121 1.391 . S
C1121 H1109 0.950 . S
C1121 C1117 1.393 . S
C1121 C1120 1.391 . S
C1122 H1112 0.950 . S
C1122 C1123 1.386 . S
C1122 C1124 1.391 . S
C1123 C1122 1.386 . S
C1123 C1127 1.393 . S
C1124 H1113 0.950 . S
C1124 C1122 1.391 . S
C1124 C1125 1.400 . S
C1125 C1119 1.491 . S
C1125 C1124 1.400 . S
C1125 C1126 1.398 . S
C1126 H1114 0.950 . S
C1126 C1125 1.398 . S
C1126 C1127 1.391 . S
C1127 H1115 0.950 . S
C1127 C1123 1.393 . S
C1127 C1126 1.391 . S
H1128 C1136 0.950 . S
H1129 C1141 0.950 . S
H1130 C1138 0.950 . S
H1131 C1140 0.950 . S
H1132 C1142 0.950 . S
H1133 C1144 0.950 . S
H1134 C1146 0.950 . S
H1135 C1147 0.950 . S
C1136 H1128 0.950 . S
C1136 C1137 1.386 . S
C1136 C1138 1.391 . S
C1137 C1136 1.386 . S
C1137 C1141 1.393 1_565 S
C1138 H1130 0.950 . S
C1138 C1136 1.391 . S
C1138 C1139 1.409 . S
C1139 C1138 1.409 . S
C1139 C1140 1.390 1_565 S
C1139 C1145 1.490 1_565 S
C1140 H1131 0.950 . S
C1140 C1139 1.390 1_545 S
C1140 C1141 1.391 . S
C1141 H1129 0.950 . S
C1141 C1137 1.393 1_545 S
C1141 C1140 1.391 . S
C1142 H1132 0.950 . S
C1142 C1143 1.386 . S
C1142 C1144 1.391 . S
C1143 C1142 1.386 . S
C1143 C1147 1.393 1_545 S
C1144 H1133 0.950 . S
C1144 C1142 1.391 . S
C1144 C1145 1.409 . S
C1145 C1139 1.490 1_545 S
C1145 C1144 1.409 . S
C1145 C1146 1.390 1_545 S
C1146 H1134 0.950 . S
C1146 C1145 1.390 1_565 S
C1146 C1147 1.391 . S
C1147 H1135 0.950 . S
C1147 C1143 1.393 1_565 S
C1147 C1146 1.391 . S
H1148 C1156 0.950 . S
H1149 C1161 0.950 . S
H1150 C1158 0.950 . S
H1151 C1160 0.950 . S
H1152 C1162 0.950 . S
H1153 C1164 0.950 . S
H1154 C1166 0.950 . S
H1155 C1167 0.950 . S
C1156 H1148 0.950 . S
C1156 C1157 1.386 . S
C1156 C1158 1.391 . S
C1157 C1156 1.386 . S
C1157 C1161 1.393 . S
C1158 H1150 0.950 . S
C1158 C1156 1.391 . S
C1158 C1159 1.400 . S
C1159 C1158 1.400 . S
C1159 C1160 1.398 . S
C1159 C1165 1.491 1_556 S
C1160 H1151 0.950 . S
C1160 C1159 1.398 . S
C1160 C1161 1.391 . S
C1161 H1149 0.950 . S
C1161 C1157 1.393 . S
C1161 C1160 1.391 . S
C1162 H1152 0.950 . S
C1162 C1163 1.386 . S
C1162 C1164 1.391 . S
C1163 C1162 1.386 . S
C1163 C1167 1.393 . S
C1164 H1153 0.950 . S
C1164 C1162 1.391 . S
C1164 C1165 1.400 . S
C1165 C1159 1.491 1_554 S
C1165 C1164 1.400 . S
C1165 C1166 1.398 . S
C1166 H1154 0.950 . S
C1166 C1165 1.398 . S
C1166 C1167 1.391 . S
C1167 H1155 0.950 . S
C1167 C1163 1.393 . S
C1167 C1166 1.391 . S
H1168 C1176 0.950 . S
H1169 C1181 0.950 . S
H1170 C1178 0.950 . S
H1171 C1180 0.950 . S
H1172 C1182 0.950 . S
H1173 C1184 0.950 . S
H1174 C1186 0.950 . S
H1175 C1187 0.950 . S
C1176 H1168 0.950 . S
C1176 C1177 1.386 . S
C1176 C1178 1.391 . S
C1177 C1176 1.386 . S
C1177 C1181 1.393 1_565 S
C1178 H1170 0.950 . S
C1178 C1176 1.391 . S
C1178 C1179 1.400 . S
C1179 C1178 1.400 . S
C1179 C1180 1.398 1_565 S
C1179 C1185 1.491 1_565 S
C1180 H1171 0.950 . S
C1180 C1179 1.398 1_545 S
C1180 C1181 1.391 . S
C1181 H1169 0.950 . S
C1181 C1177 1.393 1_545 S
C1181 C1180 1.391 . S
C1182 H1172 0.950 . S
C1182 C1183 1.386 . S
C1182 C1184 1.391 . S
C1183 C1182 1.386 . S
C1183 C1187 1.393 1_545 S
C1184 H1173 0.950 . S
C1184 C1182 1.391 . S
C1184 C1185 1.400 . S
C1185 C1179 1.491 1_545 S
C1185 C1184 1.400 . S
C1185 C1186 1.398 1_545 S
C1186 H1174 0.950 . S
C1186 C1185 1.398 1_565 S
C1186 C1187 1.391 . S
C1187 H1175 0.950 . S
C1187 C1183 1.393 1_565 S
C1187 C1186 1.391 . S
H1188 C1196 0.950 . S
H1189 C1201 0.950 . S
H1190 C1198 0.950 . S
H1191 C1200 0.950 . S
H1192 C1202 0.950 . S
H1193 C1204 0.950 . S
H1194 C1206 0.950 . S
H1195 C1207 0.950 . S
C1196 H1188 0.950 . S
C1196 C1197 1.386 . S
C1196 C1198 1.391 . S
C1197 C1196 1.386 . S
C1197 C1201 1.393 . S
C1198 H1190 0.950 . S
C1198 C1196 1.391 . S
C1198 C1199 1.400 . S
C1199 C1198 1.400 . S
C1199 C1200 1.398 . S
C1199 C1205 1.491 . S
C1200 H1191 0.950 . S
C1200 C1199 1.398 . S
C1200 C1201 1.391 . S
C1201 H1189 0.950 . S
C1201 C1197 1.393 . S
C1201 C1200 1.391 . S
C1202 H1192 0.950 . S
C1202 C1203 1.386 . S
C1202 C1204 1.391 . S
C1203 C1202 1.386 . S
C1203 C1207 1.393 . S
C1204 H1193 0.950 . S
C1204 C1202 1.391 . S
C1204 C1205 1.400 . S
C1205 C1199 1.491 . S
C1205 C1204 1.400 . S
C1205 C1206 1.398 . S
C1206 H1194 0.950 . S
C1206 C1205 1.398 . S
C1206 C1207 1.391 . S
C1207 H1195 0.950 . S
C1207 C1203 1.393 . S
C1207 C1206 1.391 . S
H1208 C1216 0.950 . S
H1209 C1221 0.953 . S
H1210 C1218 0.950 . S
H1211 C1220 0.950 . S
H1212 C1222 0.950 . S
H1213 C1224 0.950 . S
H1214 C1226 0.950 . S
H1215 C1227 0.953 . S
C1216 H1208 0.950 . S
C1216 C1217 1.386 . S
C1216 C1218 1.391 . S
C1217 C1216 1.386 . S
C1217 C1221 1.389 1_545 S
C1218 H1210 0.950 . S
C1218 C1216 1.391 . S
C1218 C1219 1.400 . S
C1219 C1218 1.400 . S
C1219 C1220 1.398 1_545 S
C1219 C1225 1.491 1_545 S
C1220 H1211 0.950 . S
C1220 C1219 1.398 1_565 S
C1220 C1221 1.392 . S
C1221 H1209 0.953 . S
C1221 C1217 1.389 1_565 S
C1221 C1220 1.392 . S
C1222 H1212 0.950 . S
C1222 C1223 1.386 . S
C1222 C1224 1.391 . S
C1223 C1222 1.386 . S
C1223 C1227 1.389 1_565 S
C1224 H1213 0.950 . S
C1224 C1222 1.391 . S
C1224 C1225 1.400 . S
C1225 C1219 1.491 1_565 S
C1225 C1224 1.400 . S
C1225 C1226 1.398 1_565 S
C1226 H1214 0.950 . S
C1226 C1225 1.398 1_545 S
C1226 C1227 1.392 . S
C1227 H1215 0.953 . S
C1227 C1223 1.389 1_545 S
C1227 C1226 1.392 . S
H1228 C1236 0.950 . S
H1229 C1241 0.950 . S
H1230 C1238 0.950 . S
H1231 C1240 0.950 . S
H1232 C1242 0.950 . S
H1233 C1244 0.950 . S
H1234 C1246 0.950 . S
H1235 C1247 0.950 . S
C1236 H1228 0.950 . S
C1236 C1237 1.386 . S
C1236 C1238 1.391 . S
C1237 C1236 1.386 . S
C1237 C1241 1.393 . S
C1238 H1230 0.950 . S
C1238 C1236 1.391 . S
C1238 C1239 1.400 . S
C1239 C1238 1.400 . S
C1239 C1240 1.398 . S
C1239 C1245 1.491 1_556 S
C1240 H1231 0.950 . S
C1240 C1239 1.398 . S
C1240 C1241 1.391 . S
C1241 H1229 0.950 . S
C1241 C1237 1.393 . S
C1241 C1240 1.391 . S
C1242 H1232 0.950 . S
C1242 C1243 1.386 . S
C1242 C1244 1.391 . S
C1243 C1242 1.386 . S
C1243 C1247 1.393 . S
C1244 H1233 0.950 . S
C1244 C1242 1.391 . S
C1244 C1245 1.400 . S
C1245 C1239 1.491 1_554 S
C1245 C1244 1.400 . S
C1245 C1246 1.398 . S
C1246 H1234 0.950 . S
C1246 C1245 1.398 . S
C1246 C1247 1.391 . S
C1247 H1235 0.950 . S
C1247 C1243 1.393 . S
C1247 C1246 1.391 . S
H1248 C1256 0.950 . S
H1249 C1261 0.950 . S
H1250 C1258 0.950 . S
H1251 C1260 0.950 . S
H1252 C1262 0.950 . S
H1253 C1264 0.950 . S
H1254 C1266 0.950 . S
H1255 C1267 0.950 . S
C1256 H1248 0.950 . S
C1256 C1257 1.386 . S
C1256 C1258 1.391 . S
C1257 C1256 1.386 . S
C1257 C1261 1.393 . S
C1258 H1250 0.950 . S
C1258 C1256 1.391 . S
C1258 C1259 1.400 . S
C1259 C1258 1.400 . S
C1259 C1260 1.398 . S
C1259 C1265 1.491 . S
C1260 H1251 0.950 . S
C1260 C1259 1.398 . S
C1260 C1261 1.391 . S
C1261 H1249 0.950 . S
C1261 C1257 1.393 . S
C1261 C1260 1.391 . S
C1262 H1252 0.950 . S
C1262 C1263 1.386 . S
C1262 C1264 1.391 . S
C1263 C1262 1.386 . S
C1263 C1267 1.393 . S
C1264 H1253 0.950 . S
C1264 C1262 1.391 . S
C1264 C1265 1.400 . S
C1265 C1259 1.491 . S
C1265 C1264 1.400 . S
C1265 C1266 1.398 . S
C1266 H1254 0.950 . S
C1266 C1265 1.398 . S
C1266 C1267 1.391 . S
C1267 H1255 0.950 . S
C1267 C1263 1.393 . S
C1267 C1266 1.391 . S
H1268 C1276 0.950 . S
H1269 C1281 0.950 . S
H1270 C1278 0.950 . S
H1271 C1280 0.950 . S
H1272 C1282 0.950 . S
H1273 C1284 0.950 . S
H1274 C1286 0.950 . S
H1275 C1287 0.950 . S
C1276 H1268 0.950 . S
C1276 C1277 1.386 . S
C1276 C1278 1.391 . S
C1277 C1276 1.386 . S
C1277 C1281 1.393 . S
C1278 H1270 0.950 . S
C1278 C1276 1.391 . S
C1278 C1279 1.400 . S
C1279 C1278 1.400 . S
C1279 C1280 1.398 . S
C1279 C1285 1.491 1_556 S
C1280 H1271 0.950 . S
C1280 C1279 1.398 . S
C1280 C1281 1.391 . S
C1281 H1269 0.950 . S
C1281 C1277 1.393 . S
C1281 C1280 1.391 . S
C1282 H1272 0.950 . S
C1282 C1283 1.386 . S
C1282 C1284 1.391 . S
C1283 C1282 1.386 . S
C1283 C1287 1.393 . S
C1284 H1273 0.950 . S
C1284 C1282 1.391 . S
C1284 C1285 1.400 . S
C1285 C1279 1.491 1_554 S
C1285 C1284 1.400 . S
C1285 C1286 1.398 . S
C1286 H1274 0.950 . S
C1286 C1285 1.398 . S
C1286 C1287 1.391 . S
C1287 H1275 0.950 . S
C1287 C1283 1.393 . S
C1287 C1286 1.391 . S
H1288 C1296 0.950 . S
H1289 C1301 0.950 . S
H1290 C1298 0.950 . S
H1291 C1300 0.950 . S
H1292 C1302 0.950 . S
H1293 C1304 0.950 . S
H1294 C1306 0.950 . S
H1295 C1307 0.950 . S
C1296 H1288 0.950 . S
C1296 C1297 1.386 . S
C1296 C1298 1.391 . S
C1297 C1296 1.386 . S
C1297 C1301 1.393 . S
C1298 H1290 0.950 . S
C1298 C1296 1.391 . S
C1298 C1299 1.400 . S
C1299 C1298 1.400 . S
C1299 C1300 1.398 . S
C1299 C1305 1.491 . S
C1300 H1291 0.950 . S
C1300 C1299 1.398 . S
C1300 C1301 1.391 . S
C1301 H1289 0.950 . S
C1301 C1297 1.393 . S
C1301 C1300 1.391 . S
C1302 H1292 0.950 . S
C1302 C1303 1.386 . S
C1302 C1304 1.391 . S
C1303 C1302 1.386 . S
C1303 C1307 1.393 . S
C1304 H1293 0.950 . S
C1304 C1302 1.391 . S
C1304 C1305 1.400 . S
C1305 C1299 1.491 . S
C1305 C1304 1.400 . S
C1305 C1306 1.398 . S
C1306 H1294 0.950 . S
C1306 C1305 1.398 . S
C1306 C1307 1.391 . S
C1307 H1295 0.950 . S
C1307 C1303 1.393 . S
C1307 C1306 1.391 . S
H1308 C1316 0.950 . S
H1309 C1321 0.950 . S
H1310 C1318 0.950 . S
H1311 C1320 0.950 . S
H1312 C1322 0.950 . S
H1313 C1324 0.950 . S
H1314 C1326 0.950 . S
H1315 C1327 0.950 . S
C1316 H1308 0.950 . S
C1316 C1317 1.386 . S
C1316 C1318 1.391 . S
C1317 C1316 1.386 . S
C1317 C1321 1.393 . S
C1318 H1310 0.950 . S
C1318 C1316 1.391 . S
C1318 C1319 1.400 . S
C1319 C1318 1.400 . S
C1319 C1320 1.398 . S
C1319 C1325 1.491 . S
C1320 H1311 0.950 . S
C1320 C1319 1.398 . S
C1320 C1321 1.391 . S
C1321 H1309 0.950 . S
C1321 C1317 1.393 . S
C1321 C1320 1.391 . S
C1322 H1312 0.950 . S
C1322 C1323 1.386 . S
C1322 C1324 1.391 . S
C1323 C1322 1.386 . S
C1323 C1327 1.393 . S
C1324 H1313 0.950 . S
C1324 C1322 1.391 . S
C1324 C1325 1.400 . S
C1325 C1319 1.491 . S
C1325 C1324 1.400 . S
C1325 C1326 1.398 . S
C1326 H1314 0.950 . S
C1326 C1325 1.398 . S
C1326 C1327 1.391 . S
C1327 H1315 0.950 . S
C1327 C1323 1.393 . S
C1327 C1326 1.391 . S
H1328 C1336 0.950 . S
H1329 C1341 0.950 . S
H1330 C1338 0.950 . S
H1331 C1340 0.950 . S
H1332 C1342 0.950 . S
H1333 C1344 0.950 . S
H1334 C1346 0.950 . S
H1335 C1347 0.950 . S
C1336 H1328 0.950 . S
C1336 C1337 1.386 . S
C1336 C1338 1.391 . S
C1337 C1336 1.386 . S
C1337 C1341 1.393 . S
C1338 H1330 0.950 . S
C1338 C1336 1.391 . S
C1338 C1339 1.400 . S
C1339 C1338 1.400 . S
C1339 C1340 1.398 . S
C1339 C1345 1.491 . S
C1340 H1331 0.950 . S
C1340 C1339 1.398 . S
C1340 C1341 1.391 . S
C1341 H1329 0.950 . S
C1341 C1337 1.393 . S
C1341 C1340 1.391 . S
C1342 H1332 0.950 . S
C1342 C1343 1.386 . S
C1342 C1344 1.391 . S
C1343 C1342 1.386 . S
C1343 C1347 1.393 . S
C1344 H1333 0.950 . S
C1344 C1342 1.391 . S
C1344 C1345 1.400 . S
C1345 C1339 1.491 . S
C1345 C1344 1.400 . S
C1345 C1346 1.398 . S
C1346 H1334 0.950 . S
C1346 C1345 1.398 . S
C1346 C1347 1.391 . S
C1347 H1335 0.950 . S
C1347 C1343 1.393 . S
C1347 C1346 1.391 . S
H1348 C1356 0.950 . S
H1349 C1361 0.950 . S
H1350 C1358 0.950 . S
H1351 C1360 0.950 . S
H1352 C1362 0.950 . S
H1353 C1364 0.950 . S
H1354 C1366 0.950 . S
H1355 C1367 0.950 . S
C1356 H1348 0.950 . S
C1356 C1357 1.386 . S
C1356 C1358 1.391 . S
C1357 C1356 1.386 . S
C1357 C1361 1.393 . S
C1358 H1350 0.950 . S
C1358 C1356 1.391 . S
C1358 C1359 1.400 . S
C1359 C1358 1.400 . S
C1359 C1360 1.398 . S
C1359 C1365 1.491 1_554 S
C1360 H1351 0.950 . S
C1360 C1359 1.398 . S
C1360 C1361 1.391 . S
C1361 H1349 0.950 . S
C1361 C1357 1.393 . S
C1361 C1360 1.391 . S
C1362 H1352 0.950 . S
C1362 C1363 1.386 . S
C1362 C1364 1.391 . S
C1363 C1362 1.386 . S
C1363 C1367 1.393 . S
C1364 H1353 0.950 . S
C1364 C1362 1.391 . S
C1364 C1365 1.400 . S
C1365 C1359 1.491 1_556 S
C1365 C1364 1.400 . S
C1365 C1366 1.398 . S
C1366 H1354 0.950 . S
C1366 C1365 1.398 . S
C1366 C1367 1.391 . S
C1367 H1355 0.950 . S
C1367 C1363 1.393 . S
C1367 C1366 1.391 . S
H1368 C1376 0.950 . S
H1369 C1381 0.950 . S
H1370 C1378 0.950 . S
H1371 C1380 0.950 . S
H1372 C1382 0.950 . S
H1373 C1384 0.950 . S
H1374 C1386 0.950 . S
H1375 C1387 0.950 . S
C1376 H1368 0.950 . S
C1376 C1377 1.386 . S
C1376 C1378 1.391 . S
C1377 C1376 1.386 . S
C1377 C1381 1.393 . S
C1378 H1370 0.950 . S
C1378 C1376 1.391 . S
C1378 C1379 1.400 . S
C1379 C1378 1.400 . S
C1379 C1380 1.398 . S
C1379 C1385 1.491 . S
C1380 H1371 0.950 . S
C1380 C1379 1.398 . S
C1380 C1381 1.391 . S
C1381 H1369 0.950 . S
C1381 C1377 1.393 . S
C1381 C1380 1.391 . S
C1382 H1372 0.950 . S
C1382 C1383 1.386 . S
C1382 C1384 1.391 . S
C1383 C1382 1.386 . S
C1383 C1387 1.393 . S
C1384 H1373 0.950 . S
C1384 C1382 1.391 . S
C1384 C1385 1.400 . S
C1385 C1379 1.491 . S
C1385 C1384 1.400 . S
C1385 C1386 1.398 . S
C1386 H1374 0.950 . S
C1386 C1385 1.398 . S
C1386 C1387 1.391 . S
C1387 H1375 0.950 . S
C1387 C1383 1.393 . S
C1387 C1386 1.391 . S
H1388 C1396 0.950 . S
H1389 C1401 0.950 . S
H1390 C1398 0.950 . S
H1391 C1400 0.950 . S
H1392 C1402 0.950 . S
H1393 C1404 0.950 . S
H1394 C1406 0.950 . S
H1395 C1407 0.950 . S
C1396 H1388 0.950 . S
C1396 C1397 1.386 . S
C1396 C1398 1.391 . S
C1397 C1396 1.386 . S
C1397 C1401 1.393 . S
C1398 H1390 0.950 . S
C1398 C1396 1.391 . S
C1398 C1399 1.400 . S
C1399 C1398 1.400 . S
C1399 C1400 1.398 . S
C1399 C1405 1.491 . S
C1400 H1391 0.950 . S
C1400 C1399 1.398 . S
C1400 C1401 1.391 . S
C1401 H1389 0.950 . S
C1401 C1397 1.393 . S
C1401 C1400 1.391 . S
C1402 H1392 0.950 . S
C1402 C1403 1.386 . S
C1402 C1404 1.391 . S
C1403 C1402 1.386 . S
C1403 C1407 1.393 . S
C1404 H1393 0.950 . S
C1404 C1402 1.391 . S
C1404 C1405 1.400 . S
C1405 C1399 1.491 . S
C1405 C1404 1.400 . S
C1405 C1406 1.398 . S
C1406 H1394 0.950 . S
C1406 C1405 1.398 . S
C1406 C1407 1.391 . S
C1407 H1395 0.950 . S
C1407 C1403 1.393 . S
C1407 C1406 1.391 . S
H1408 C1416 0.950 . S
H1409 C1421 0.950 . S
H1410 C1418 0.950 1_655 S
H1411 C1420 0.950 . S
H1412 C1422 0.950 . S
H1413 C1424 0.950 1_455 S
H1414 C1426 0.950 . S
H1415 C1427 0.950 . S
C1416 H1408 0.950 . S
C1416 C1417 1.386 . S
C1416 C1418 1.391 . S
C1417 C1416 1.386 . S
C1417 C1421 1.393 . S
C1418 H1410 0.950 1_455 S
C1418 C1416 1.391 . S
C1418 C1419 1.400 . S
C1419 C1418 1.400 . S
C1419 C1420 1.398 . S
C1419 C1425 1.491 1_455 S
C1420 H1411 0.950 . S
C1420 C1419 1.398 . S
C1420 C1421 1.391 . S
C1421 H1409 0.950 . S
C1421 C1417 1.393 . S
C1421 C1420 1.391 . S
C1422 H1412 0.950 . S
C1422 C1423 1.386 . S
C1422 C1424 1.391 . S
C1423 C1422 1.386 . S
C1423 C1427 1.393 . S
C1424 H1413 0.950 1_655 S
C1424 C1422 1.391 . S
C1424 C1425 1.400 . S
C1425 C1419 1.491 1_655 S
C1425 C1424 1.400 . S
C1425 C1426 1.398 . S
C1426 H1414 0.950 . S
C1426 C1425 1.398 . S
C1426 C1427 1.391 . S
C1427 H1415 0.950 . S
C1427 C1423 1.393 . S
C1427 C1426 1.391 . S
H1428 C1436 0.950 . S
H1429 C1441 0.950 . S
H1430 C1438 0.950 . S
H1431 C1440 0.950 1_655 S
H1432 C1442 0.950 . S
H1433 C1444 0.950 . S
H1434 C1446 0.950 1_455 S
H1435 C1447 0.950 . S
C1436 H1428 0.950 . S
C1436 C1437 1.386 . S
C1436 C1438 1.391 . S
C1437 C1436 1.386 . S
C1437 C1441 1.393 . S
C1438 H1430 0.950 . S
C1438 C1436 1.391 . S
C1438 C1439 1.400 . S
C1439 C1438 1.400 . S
C1439 C1440 1.398 . S
C1439 C1445 1.491 1_455 S
C1440 H1431 0.950 1_455 S
C1440 C1439 1.398 . S
C1440 C1441 1.391 . S
C1441 H1429 0.950 . S
C1441 C1437 1.393 . S
C1441 C1440 1.391 . S
C1442 H1432 0.950 . S
C1442 C1443 1.386 . S
C1442 C1444 1.391 . S
C1443 C1442 1.386 . S
C1443 C1447 1.393 . S
C1444 H1433 0.950 . S
C1444 C1442 1.391 . S
C1444 C1445 1.400 . S
C1445 C1439 1.491 1_655 S
C1445 C1444 1.400 . S
C1445 C1446 1.398 . S
C1446 H1434 0.950 1_655 S
C1446 C1445 1.398 . S
C1446 C1447 1.391 . S
C1447 H1435 0.950 . S
C1447 C1443 1.393 . S
C1447 C1446 1.391 . S
H1448 C1456 0.950 . S
H1449 C1461 0.950 . S
H1450 C1458 0.950 . S
H1451 C1460 0.950 . S
H1452 C1462 0.950 . S
H1453 C1464 0.950 . S
H1454 C1466 0.950 . S
H1455 C1467 0.950 . S
C1456 H1448 0.950 . S
C1456 C1457 1.386 . S
C1456 C1458 1.391 . S
C1457 C1456 1.386 . S
C1457 C1461 1.393 . S
C1458 H1450 0.950 . S
C1458 C1456 1.391 . S
C1458 C1459 1.400 . S
C1459 C1458 1.400 . S
C1459 C1460 1.398 . S
C1459 C1465 1.491 . S
C1460 H1451 0.950 . S
C1460 C1459 1.398 . S
C1460 C1461 1.391 . S
C1461 H1449 0.950 . S
C1461 C1457 1.393 . S
C1461 C1460 1.391 . S
C1462 H1452 0.950 . S
C1462 C1463 1.386 . S
C1462 C1464 1.391 . S
C1463 C1462 1.386 . S
C1463 C1467 1.393 . S
C1464 H1453 0.950 . S
C1464 C1462 1.391 . S
C1464 C1465 1.400 . S
C1465 C1459 1.491 . S
C1465 C1464 1.400 . S
C1465 C1466 1.398 . S
C1466 H1454 0.950 . S
C1466 C1465 1.398 . S
C1466 C1467 1.391 . S
C1467 H1455 0.950 . S
C1467 C1463 1.393 . S
C1467 C1466 1.391 . S
H1468 C1476 0.950 . S
H1469 C1481 0.950 . S
H1470 C1478 0.950 . S
H1471 C1480 0.950 . S
H1472 C1482 0.950 . S
H1473 C1484 0.950 . S
H1474 C1486 0.950 . S
H1475 C1487 0.950 . S
C1476 H1468 0.950 . S
C1476 C1477 1.386 . S
C1476 C1478 1.391 . S
C1477 C1476 1.386 . S
C1477 C1481 1.393 . S
C1478 H1470 0.950 . S
C1478 C1476 1.391 . S
C1478 C1479 1.400 . S
C1479 C1478 1.400 . S
C1479 C1480 1.398 . S
C1479 C1485 1.491 . S
C1480 H1471 0.950 . S
C1480 C1479 1.398 . S
C1480 C1481 1.391 . S
C1481 H1469 0.950 . S
C1481 C1477 1.393 . S
C1481 C1480 1.391 . S
C1482 H1472 0.950 . S
C1482 C1483 1.386 . S
C1482 C1484 1.391 . S
C1483 C1482 1.386 . S
C1483 C1487 1.393 . S
C1484 H1473 0.950 . S
C1484 C1482 1.391 . S
C1484 C1485 1.400 . S
C1485 C1479 1.491 . S
C1485 C1484 1.400 . S
C1485 C1486 1.398 . S
C1486 H1474 0.950 . S
C1486 C1485 1.398 . S
C1486 C1487 1.391 . S
C1487 H1475 0.950 . S
C1487 C1483 1.393 . S
C1487 C1486 1.391 . S
H1488 C1496 0.950 . S
H1489 C1501 0.950 . S
H1490 C1498 0.950 1_655 S
H1491 C1500 0.950 . S
H1492 C1502 0.950 . S
H1493 C1504 0.950 1_455 S
H1494 C1506 0.950 . S
H1495 C1507 0.950 . S
C1496 H1488 0.950 . S
C1496 C1497 1.386 . S
C1496 C1498 1.391 . S
C1497 C1496 1.386 . S
C1497 C1501 1.393 . S
C1498 H1490 0.950 1_455 S
C1498 C1496 1.391 . S
C1498 C1499 1.400 . S
C1499 C1498 1.400 . S
C1499 C1500 1.398 . S
C1499 C1505 1.491 1_455 S
C1500 H1491 0.950 . S
C1500 C1499 1.398 . S
C1500 C1501 1.391 . S
C1501 H1489 0.950 . S
C1501 C1497 1.393 . S
C1501 C1500 1.391 . S
C1502 H1492 0.950 . S
C1502 C1503 1.386 . S
C1502 C1504 1.391 . S
C1503 C1502 1.386 . S
C1503 C1507 1.393 . S
C1504 H1493 0.950 1_655 S
C1504 C1502 1.391 . S
C1504 C1505 1.400 . S
C1505 C1499 1.491 1_655 S
C1505 C1504 1.400 . S
C1505 C1506 1.398 . S
C1506 H1494 0.950 . S
C1506 C1505 1.398 . S
C1506 C1507 1.391 . S
C1507 H1495 0.950 . S
C1507 C1503 1.393 . S
C1507 C1506 1.391 . S
H1508 C1516 0.950 . S
H1509 C1521 0.950 . S
H1510 C1518 0.950 . S
H1511 C1520 0.950 . S
H1512 C1522 0.950 . S
H1513 C1524 0.950 . S
H1514 C1526 0.950 . S
H1515 C1527 0.950 . S
C1516 H1508 0.950 . S
C1516 C1517 1.386 . S
C1516 C1518 1.391 . S
C1517 C1516 1.386 . S
C1517 C1521 1.393 . S
C1518 H1510 0.950 . S
C1518 C1516 1.391 . S
C1518 C1519 1.400 . S
C1519 C1518 1.400 . S
C1519 C1520 1.398 . S
C1519 C1525 1.491 . S
C1520 H1511 0.950 . S
C1520 C1519 1.398 . S
C1520 C1521 1.391 . S
C1521 H1509 0.950 . S
C1521 C1517 1.393 . S
C1521 C1520 1.391 . S
C1522 H1512 0.950 . S
C1522 C1523 1.386 . S
C1522 C1524 1.391 . S
C1523 C1522 1.386 . S
C1523 C1527 1.393 . S
C1524 H1513 0.950 . S
C1524 C1522 1.391 . S
C1524 C1525 1.400 . S
C1525 C1519 1.491 . S
C1525 C1524 1.400 . S
C1525 C1526 1.398 . S
C1526 H1514 0.950 . S
C1526 C1525 1.398 . S
C1526 C1527 1.391 . S
C1527 H1515 0.950 . S
C1527 C1523 1.393 . S
C1527 C1526 1.391 . S
H1528 C1536 0.950 . S
H1529 C1541 0.950 . S
H1530 C1538 0.950 . S
H1531 C1540 0.950 . S
H1532 C1542 0.950 . S
H1533 C1544 0.950 . S
H1534 C1546 0.950 . S
H1535 C1547 0.950 . S
C1536 H1528 0.950 . S
C1536 C1537 1.386 . S
C1536 C1538 1.391 . S
C1537 C1536 1.386 . S
C1537 C1541 1.393 . S
C1538 H1530 0.950 . S
C1538 C1536 1.391 . S
C1538 C1539 1.400 . S
C1539 C1538 1.400 . S
C1539 C1540 1.398 . S
C1539 C1545 1.491 . S
C1540 H1531 0.950 . S
C1540 C1539 1.398 . S
C1540 C1541 1.391 . S
C1541 H1529 0.950 . S
C1541 C1537 1.393 . S
C1541 C1540 1.391 . S
C1542 H1532 0.950 . S
C1542 C1543 1.386 . S
C1542 C1544 1.391 . S
C1543 C1542 1.386 . S
C1543 C1547 1.393 . S
C1544 H1533 0.950 . S
C1544 C1542 1.391 . S
C1544 C1545 1.400 . S
C1545 C1539 1.491 . S
C1545 C1544 1.400 . S
C1545 C1546 1.398 . S
C1546 H1534 0.950 . S
C1546 C1545 1.398 . S
C1546 C1547 1.391 . S
C1547 H1535 0.950 . S
C1547 C1543 1.393 . S
C1547 C1546 1.391 . S
H1548 C1556 0.950 . S
H1549 C1561 0.950 . S
H1550 C1558 0.950 . S
H1551 C1560 0.950 . S
H1552 C1562 0.950 . S
H1553 C1564 0.950 . S
H1554 C1566 0.950 . S
H1555 C1567 0.950 . S
C1556 H1548 0.950 . S
C1556 C1557 1.386 . S
C1556 C1558 1.391 . S
C1557 C1556 1.386 . S
C1557 C1561 1.393 . S
C1558 H1550 0.950 . S
C1558 C1556 1.391 . S
C1558 C1559 1.400 . S
C1559 C1558 1.400 . S
C1559 C1560 1.398 . S
C1559 C1565 1.491 1_455 S
C1560 H1551 0.950 . S
C1560 C1559 1.398 . S
C1560 C1561 1.391 . S
C1561 H1549 0.950 . S
C1561 C1557 1.393 . S
C1561 C1560 1.391 . S
C1562 H1552 0.950 . S
C1562 C1563 1.386 . S
C1562 C1564 1.391 . S
C1563 C1562 1.386 . S
C1563 C1567 1.393 . S
C1564 H1553 0.950 . S
C1564 C1562 1.391 . S
C1564 C1565 1.400 . S
C1565 C1559 1.491 1_655 S
C1565 C1564 1.400 . S
C1565 C1566 1.398 . S
C1566 H1554 0.950 . S
C1566 C1565 1.398 . S
C1566 C1567 1.391 . S
C1567 H1555 0.950 . S
C1567 C1563 1.393 . S
C1567 C1566 1.391 . S
H1568 C1576 0.950 . S
H1569 C1581 0.950 . S
H1570 C1578 0.950 1_655 S
H1571 C1580 0.950 . S
H1572 C1582 0.950 . S
H1573 C1584 0.950 1_455 S
H1574 C1586 0.950 . S
H1575 C1587 0.950 . S
C1576 H1568 0.950 . S
C1576 C1577 1.386 . S
C1576 C1578 1.391 . S
C1577 C1576 1.386 . S
C1577 C1581 1.393 . S
C1578 H1570 0.950 1_455 S
C1578 C1576 1.391 . S
C1578 C1579 1.400 . S
C1579 C1578 1.400 . S
C1579 C1580 1.398 . S
C1579 C1585 1.491 1_455 S
C1580 H1571 0.950 . S
C1580 C1579 1.398 . S
C1580 C1581 1.391 . S
C1581 H1569 0.950 . S
C1581 C1577 1.393 . S
C1581 C1580 1.391 . S
C1582 H1572 0.950 . S
C1582 C1583 1.386 . S
C1582 C1584 1.391 . S
C1583 C1582 1.386 . S
C1583 C1587 1.393 . S
C1584 H1573 0.950 1_655 S
C1584 C1582 1.391 . S
C1584 C1585 1.400 . S
C1585 C1579 1.491 1_655 S
C1585 C1584 1.400 . S
C1585 C1586 1.398 . S
C1586 H1574 0.950 . S
C1586 C1585 1.398 . S
C1586 C1587 1.391 . S
C1587 H1575 0.950 . S
C1587 C1583 1.393 . S
C1587 C1586 1.391 . S
H1588 C1596 0.950 . S
H1589 C1601 0.950 . S
H1590 C1598 0.950 1_455 S
H1591 C1600 0.950 . S
H1592 C1602 0.950 . S
H1593 C1604 0.950 1_655 S
H1594 C1606 0.950 . S
H1595 C1607 0.950 . S
C1596 H1588 0.950 . S
C1596 C1597 1.386 . S
C1596 C1598 1.391 . S
C1597 C1596 1.386 . S
C1597 C1601 1.393 . S
C1598 H1590 0.950 1_655 S
C1598 C1596 1.391 . S
C1598 C1599 1.400 . S
C1599 C1598 1.400 . S
C1599 C1600 1.398 . S
C1599 C1605 1.491 1_655 S
C1600 H1591 0.950 . S
C1600 C1599 1.398 . S
C1600 C1601 1.391 . S
C1601 H1589 0.950 . S
C1601 C1597 1.393 . S
C1601 C1600 1.391 . S
C1602 H1592 0.950 . S
C1602 C1603 1.386 . S
C1602 C1604 1.391 . S
C1603 C1602 1.386 . S
C1603 C1607 1.393 . S
C1604 H1593 0.950 1_455 S
C1604 C1602 1.391 . S
C1604 C1605 1.400 . S
C1605 C1599 1.491 1_455 S
C1605 C1604 1.400 . S
C1605 C1606 1.398 . S
C1606 H1594 0.950 . S
C1606 C1605 1.398 . S
C1606 C1607 1.391 . S
C1607 H1595 0.950 . S
C1607 C1603 1.393 . S
C1607 C1606 1.391 . S
H1608 C1616 0.950 . S
H1609 C1621 0.950 . S
H1610 C1618 0.950 . S
H1611 C1620 0.950 . S
H1612 C1622 0.950 . S
H1613 C1624 0.950 . S
H1614 C1626 0.950 . S
H1615 C1627 0.950 . S
C1616 H1608 0.950 . S
C1616 C1617 1.386 . S
C1616 C1618 1.391 . S
C1617 C1616 1.386 . S
C1617 C1621 1.393 . S
C1618 H1610 0.950 . S
C1618 C1616 1.391 . S
C1618 C1619 1.400 . S
C1619 C1618 1.400 . S
C1619 C1620 1.398 . S
C1619 C1625 1.491 . S
C1620 H1611 0.950 . S
C1620 C1619 1.398 . S
C1620 C1621 1.391 . S
C1621 H1609 0.950 . S
C1621 C1617 1.393 . S
C1621 C1620 1.391 . S
C1622 H1612 0.950 . S
C1622 C1623 1.386 . S
C1622 C1624 1.391 . S
C1623 C1622 1.386 . S
C1623 C1627 1.393 . S
C1624 H1613 0.950 . S
C1624 C1622 1.391 . S
C1624 C1625 1.400 . S
C1625 C1619 1.491 . S
C1625 C1624 1.400 . S
C1625 C1626 1.398 . S
C1626 H1614 0.950 . S
C1626 C1625 1.398 . S
C1626 C1627 1.391 . S
C1627 H1615 0.950 . S
C1627 C1623 1.393 . S
C1627 C1626 1.391 . S
H1628 C1636 0.950 . S
H1629 C1641 0.950 . S
H1630 C1638 0.950 . S
H1631 C1640 0.950 . S
H1632 C1642 0.950 . S
H1633 C1644 0.950 . S
H1634 C1646 0.950 . S
H1635 C1647 0.950 . S
C1636 H1628 0.950 . S
C1636 C1637 1.386 . S
C1636 C1638 1.391 . S
C1637 C1636 1.386 . S
C1637 C1641 1.393 . S
C1638 H1630 0.950 . S
C1638 C1636 1.391 . S
C1638 C1639 1.400 . S
C1639 C1638 1.400 . S
C1639 C1640 1.398 . S
C1639 C1645 1.491 . S
C1640 H1631 0.950 . S
C1640 C1639 1.398 . S
C1640 C1641 1.391 . S
C1641 H1629 0.950 . S
C1641 C1637 1.393 . S
C1641 C1640 1.391 . S
C1642 H1632 0.950 . S
C1642 C1643 1.386 . S
C1642 C1644 1.391 . S
C1643 C1642 1.386 . S
C1643 C1647 1.393 . S
C1644 H1633 0.950 . S
C1644 C1642 1.391 . S
C1644 C1645 1.400 . S
C1645 C1639 1.491 . S
C1645 C1644 1.400 . S
C1645 C1646 1.398 . S
C1646 H1634 0.950 . S
C1646 C1645 1.398 . S
C1646 C1647 1.391 . S
C1647 H1635 0.950 . S
C1647 C1643 1.393 . S
C1647 C1646 1.391 . S
H1648 C1656 0.950 . S
H1649 C1661 0.950 . S
H1650 C1658 0.950 . S
H1651 C1660 0.950 1_455 S
H1652 C1662 0.950 . S
H1653 C1664 0.950 . S
H1654 C1666 0.950 1_655 S
H1655 C1667 0.950 . S
C1656 H1648 0.950 . S
C1656 C1657 1.386 . S
C1656 C1658 1.391 . S
C1657 C1656 1.386 . S
C1657 C1661 1.393 . S
C1658 H1650 0.950 . S
C1658 C1656 1.391 . S
C1658 C1659 1.400 . S
C1659 C1658 1.400 . S
C1659 C1660 1.398 . S
C1659 C1665 1.491 1_655 S
C1660 H1651 0.950 1_655 S
C1660 C1659 1.398 . S
C1660 C1661 1.391 . S
C1661 H1649 0.950 . S
C1661 C1657 1.393 . S
C1661 C1660 1.391 . S
C1662 H1652 0.950 . S
C1662 C1663 1.386 . S
C1662 C1664 1.391 . S
C1663 C1662 1.386 . S
C1663 C1667 1.393 . S
C1664 H1653 0.950 . S
C1664 C1662 1.391 . S
C1664 C1665 1.400 . S
C1665 C1659 1.491 1_455 S
C1665 C1664 1.400 . S
C1665 C1666 1.398 . S
C1666 H1654 0.950 1_455 S
C1666 C1665 1.398 . S
C1666 C1667 1.391 . S
C1667 H1655 0.950 . S
C1667 C1663 1.393 . S
C1667 C1666 1.391 . S
H1668 C1676 0.950 . S
H1669 C1681 0.950 . S
H1670 C1678 0.950 . S
H1671 C1680 0.950 . S
H1672 C1682 0.950 . S
H1673 C1684 0.950 . S
H1674 C1686 0.950 . S
H1675 C1687 0.950 . S
C1676 H1668 0.950 . S
C1676 C1677 1.386 . S
C1676 C1678 1.391 . S
C1677 C1676 1.386 . S
C1677 C1681 1.393 . S
C1678 H1670 0.950 . S
C1678 C1676 1.391 . S
C1678 C1679 1.400 . S
C1679 C1678 1.400 . S
C1679 C1680 1.398 . S
C1679 C1685 1.491 . S
C1680 H1671 0.950 . S
C1680 C1679 1.398 . S
C1680 C1681 1.391 . S
C1681 H1669 0.950 . S
C1681 C1677 1.393 . S
C1681 C1680 1.391 . S
C1682 H1672 0.950 . S
C1682 C1683 1.386 . S
C1682 C1684 1.391 . S
C1683 C1682 1.386 . S
C1683 C1687 1.393 . S
C1684 H1673 0.950 . S
C1684 C1682 1.391 . S
C1684 C1685 1.400 . S
C1685 C1679 1.491 . S
C1685 C1684 1.400 . S
C1685 C1686 1.398 . S
C1686 H1674 0.950 . S
C1686 C1685 1.398 . S
C1686 C1687 1.391 . S
C1687 H1675 0.950 . S
C1687 C1683 1.393 . S
C1687 C1686 1.391 . S
H1688 C1696 0.950 . S
H1689 C1701 0.950 . S
H1690 C1698 0.950 . S
H1691 C1700 0.950 . S
H1692 C1702 0.950 . S
H1693 C1704 0.950 . S
H1694 C1706 0.950 . S
H1695 C1707 0.950 . S
C1696 H1688 0.950 . S
C1696 C1697 1.386 . S
C1696 C1698 1.391 . S
C1697 C1696 1.386 . S
C1697 C1701 1.393 . S
C1698 H1690 0.950 . S
C1698 C1696 1.391 . S
C1698 C1699 1.400 . S
C1699 C1698 1.400 . S
C1699 C1700 1.398 . S
C1699 C1705 1.491 . S
C1700 H1691 0.950 . S
C1700 C1699 1.398 . S
C1700 C1701 1.391 . S
C1701 H1689 0.950 . S
C1701 C1697 1.393 . S
C1701 C1700 1.391 . S
C1702 H1692 0.950 . S
C1702 C1703 1.386 . S
C1702 C1704 1.391 . S
C1703 C1702 1.386 . S
C1703 C1707 1.393 . S
C1704 H1693 0.950 . S
C1704 C1702 1.391 . S
C1704 C1705 1.400 . S
C1705 C1699 1.491 . S
C1705 C1704 1.400 . S
C1705 C1706 1.398 . S
C1706 H1694 0.950 . S
C1706 C1705 1.398 . S
C1706 C1707 1.391 . S
C1707 H1695 0.950 . S
C1707 C1703 1.393 . S
C1707 C1706 1.391 . S
H1708 C1716 0.950 . S
H1709 C1721 0.950 . S
H1710 C1718 0.950 . S
H1711 C1720 0.950 . S
H1712 C1722 0.950 . S
H1713 C1724 0.950 . S
H1714 C1726 0.950 . S
H1715 C1727 0.950 . S
C1716 H1708 0.950 . S
C1716 C1717 1.386 . S
C1716 C1718 1.391 . S
C1717 C1716 1.386 . S
C1717 C1721 1.393 . S
C1718 H1710 0.950 . S
C1718 C1716 1.391 . S
C1718 C1719 1.400 . S
C1719 C1718 1.400 . S
C1719 C1720 1.398 . S
C1719 C1725 1.491 1_655 S
C1720 H1711 0.950 . S
C1720 C1719 1.398 . S
C1720 C1721 1.391 . S
C1721 H1709 0.950 . S
C1721 C1717 1.393 . S
C1721 C1720 1.391 . S
C1722 H1712 0.950 . S
C1722 C1723 1.386 . S
C1722 C1724 1.391 . S
C1723 C1722 1.386 . S
C1723 C1727 1.393 . S
C1724 H1713 0.950 . S
C1724 C1722 1.391 . S
C1724 C1725 1.400 . S
C1725 C1719 1.491 1_455 S
C1725 C1724 1.400 . S
C1725 C1726 1.398 . S
C1726 H1714 0.950 . S
C1726 C1725 1.398 . S
C1726 C1727 1.391 . S
C1727 H1715 0.950 . S
C1727 C1723 1.393 . S
C1727 C1726 1.391 . S
H1728 C1736 0.950 . S
H1729 C1741 0.950 . S
H1730 C1738 0.950 . S
H1731 C1740 0.950 . S
H1732 C1742 0.950 . S
H1733 C1744 0.950 . S
H1734 C1746 0.950 . S
H1735 C1747 0.950 . S
C1736 H1728 0.950 . S
C1736 C1737 1.386 . S
C1736 C1738 1.391 . S
C1737 C1736 1.386 . S
C1737 C1741 1.393 . S
C1738 H1730 0.950 . S
C1738 C1736 1.391 . S
C1738 C1739 1.400 . S
C1739 C1738 1.400 . S
C1739 C1740 1.398 . S
C1739 C1745 1.491 . S
C1740 H1731 0.950 . S
C1740 C1739 1.398 . S
C1740 C1741 1.391 . S
C1741 H1729 0.950 . S
C1741 C1737 1.393 . S
C1741 C1740 1.391 . S
C1742 H1732 0.950 . S
C1742 C1743 1.386 . S
C1742 C1744 1.391 1_565 S
C1743 C1742 1.386 . S
C1743 C1747 1.393 . S
C1744 H1733 0.950 . S
C1744 C1742 1.391 1_545 S
C1744 C1745 1.400 . S
C1745 C1739 1.491 . S
C1745 C1744 1.400 . S
C1745 C1746 1.398 1_545 S
C1746 H1734 0.950 . S
C1746 C1745 1.398 1_565 S
C1746 C1747 1.391 . S
C1747 H1735 0.950 . S
C1747 C1743 1.393 . S
C1747 C1746 1.391 . S
H1748 C1756 0.950 . S
H1749 C1761 0.950 . S
H1750 C1758 0.950 . S
H1751 C1760 0.950 . S
H1752 C1762 0.950 . S
H1753 C1764 0.950 . S
H1754 C1766 0.950 . S
H1755 C1767 0.950 . S
C1756 H1748 0.950 . S
C1756 C1757 1.386 . S
C1756 C1758 1.391 . S
C1757 C1756 1.386 . S
C1757 C1761 1.393 . S
C1758 H1750 0.950 . S
C1758 C1756 1.391 . S
C1758 C1759 1.400 . S
C1759 C1758 1.400 . S
C1759 C1760 1.398 . S
C1759 C1765 1.491 . S
C1760 H1751 0.950 . S
C1760 C1759 1.398 . S
C1760 C1761 1.391 . S
C1761 H1749 0.950 . S
C1761 C1757 1.393 . S
C1761 C1760 1.391 . S
C1762 H1752 0.950 . S
C1762 C1763 1.386 . S
C1762 C1764 1.391 . S
C1763 C1762 1.386 . S
C1763 C1767 1.393 . S
C1764 H1753 0.950 . S
C1764 C1762 1.391 . S
C1764 C1765 1.400 . S
C1765 C1759 1.491 . S
C1765 C1764 1.400 . S
C1765 C1766 1.398 . S
C1766 H1754 0.950 . S
C1766 C1765 1.398 . S
C1766 C1767 1.391 . S
C1767 H1755 0.950 . S
C1767 C1763 1.393 . S
C1767 C1766 1.391 . S
H1768 C1776 0.950 . S
H1769 C1781 0.950 . S
H1770 C1778 0.950 . S
H1771 C1780 0.950 . S
H1772 C1782 0.950 . S
H1773 C1784 0.950 . S
H1774 C1786 0.950 . S
H1775 C1787 0.950 1_545 S
C1776 H1768 0.950 . S
C1776 C1777 1.386 . S
C1776 C1778 1.391 . S
C1777 C1776 1.386 . S
C1777 C1781 1.393 1_545 S
C1778 H1770 0.950 . S
C1778 C1776 1.391 . S
C1778 C1779 1.400 1_545 S
C1779 C1778 1.400 1_565 S
C1779 C1780 1.398 . S
C1779 C1785 1.491 . S
C1780 H1771 0.950 . S
C1780 C1779 1.398 . S
C1780 C1781 1.391 . S
C1781 H1769 0.950 . S
C1781 C1777 1.393 1_565 S
C1781 C1780 1.391 . S
C1782 H1772 0.950 . S
C1782 C1783 1.386 . S
C1782 C1784 1.391 . S
C1783 C1782 1.386 . S
C1783 C1787 1.393 . S
C1784 H1773 0.950 . S
C1784 C1782 1.391 . S
C1784 C1785 1.400 . S
C1785 C1779 1.491 . S
C1785 C1784 1.400 . S
C1785 C1786 1.398 1_565 S
C1786 H1774 0.950 . S
C1786 C1785 1.398 1_545 S
C1786 C1787 1.391 1_545 S
C1787 H1775 0.950 1_565 S
C1787 C1783 1.393 . S
C1787 C1786 1.391 1_565 S
H1788 C1796 0.950 . S
H1789 C1801 0.950 . S
H1790 C1798 0.950 . S
H1791 C1800 0.950 . S
H1792 C1802 0.950 . S
H1793 C1804 0.950 . S
H1794 C1806 0.950 . S
H1795 C1807 0.950 . S
C1796 H1788 0.950 . S
C1796 C1797 1.386 . S
C1796 C1798 1.391 . S
C1797 C1796 1.386 . S
C1797 C1801 1.393 . S
C1798 H1790 0.950 . S
C1798 C1796 1.391 . S
C1798 C1799 1.400 . S
C1799 C1798 1.400 . S
C1799 C1800 1.398 . S
C1799 C1805 1.491 . S
C1800 H1791 0.950 . S
C1800 C1799 1.398 . S
C1800 C1801 1.391 . S
C1801 H1789 0.950 . S
C1801 C1797 1.393 . S
C1801 C1800 1.391 . S
C1802 H1792 0.950 . S
C1802 C1803 1.386 . S
C1802 C1804 1.391 . S
C1803 C1802 1.386 . S
C1803 C1807 1.393 . S
C1804 H1793 0.950 . S
C1804 C1802 1.391 . S
C1804 C1805 1.400 . S
C1805 C1799 1.491 . S
C1805 C1804 1.400 . S
C1805 C1806 1.398 . S
C1806 H1794 0.950 . S
C1806 C1805 1.398 . S
C1806 C1807 1.391 . S
C1807 H1795 0.950 . S
C1807 C1803 1.393 . S
C1807 C1806 1.391 . S
H1808 C1816 0.950 . S
H1809 C1821 0.950 . S
H1810 C1818 0.950 . S
H1811 C1820 0.950 . S
H1812 C1822 0.950 . S
H1813 C1824 0.950 . S
H1814 C1826 0.950 . S
H1815 C1827 0.950 . S
C1816 H1808 0.950 . S
C1816 C1817 1.386 . S
C1816 C1818 1.391 . S
C1817 C1816 1.386 . S
C1817 C1821 1.393 1_565 S
C1818 H1810 0.950 . S
C1818 C1816 1.391 . S
C1818 C1819 1.400 . S
C1819 C1818 1.400 . S
C1819 C1820 1.398 1_565 S
C1819 C1825 1.491 . S
C1820 H1811 0.950 . S
C1820 C1819 1.398 1_545 S
C1820 C1821 1.391 . S
C1821 H1809 0.950 . S
C1821 C1817 1.393 1_545 S
C1821 C1820 1.391 . S
C1822 H1812 0.950 . S
C1822 C1823 1.386 . S
C1822 C1824 1.391 . S
C1823 C1822 1.386 . S
C1823 C1827 1.393 1_545 S
C1824 H1813 0.950 . S
C1824 C1822 1.391 . S
C1824 C1825 1.400 1_545 S
C1825 C1819 1.491 . S
C1825 C1824 1.400 1_565 S
C1825 C1826 1.398 . S
C1826 H1814 0.950 . S
C1826 C1825 1.398 . S
C1826 C1827 1.391 . S
C1827 H1815 0.950 . S
C1827 C1823 1.393 1_565 S
C1827 C1826 1.391 . S
H1828 C1836 0.950 . S
H1829 C1841 0.950 . S
H1830 C1838 0.950 . S
H1831 C1840 0.950 . S
H1832 C1842 0.950 . S
H1833 C1844 0.950 . S
H1834 C1846 0.950 . S
H1835 C1847 0.950 . S
C1836 H1828 0.950 . S
C1836 C1837 1.386 . S
C1836 C1838 1.391 . S
C1837 C1836 1.386 . S
C1837 C1841 1.393 . S
C1838 H1830 0.950 . S
C1838 C1836 1.391 . S
C1838 C1839 1.400 . S
C1839 C1838 1.400 . S
C1839 C1840 1.398 . S
C1839 C1845 1.491 . S
C1840 H1831 0.950 . S
C1840 C1839 1.398 . S
C1840 C1841 1.391 . S
C1841 H1829 0.950 . S
C1841 C1837 1.393 . S
C1841 C1840 1.391 . S
C1842 H1832 0.950 . S
C1842 C1843 1.386 . S
C1842 C1844 1.391 . S
C1843 C1842 1.386 . S
C1843 C1847 1.393 . S
C1844 H1833 0.950 . S
C1844 C1842 1.391 . S
C1844 C1845 1.400 . S
C1845 C1839 1.491 . S
C1845 C1844 1.400 . S
C1845 C1846 1.398 . S
C1846 H1834 0.950 . S
C1846 C1845 1.398 . S
C1846 C1847 1.391 . S
C1847 H1835 0.950 . S
C1847 C1843 1.393 . S
C1847 C1846 1.391 . S
H1848 C1856 0.950 . S
H1849 C1861 0.950 . S
H1850 C1858 0.950 . S
H1851 C1860 0.950 . S
H1852 C1862 0.938 1_655 S
H1853 C1864 0.950 . S
H1854 C1866 0.950 . S
H1855 C1867 0.950 . S
C1856 H1848 0.950 . S
C1856 C1857 1.386 1_565 S
C1856 C1858 1.391 . S
C1857 C1856 1.386 1_545 S
C1857 C1861 1.393 . S
C1858 H1850 0.950 . S
C1858 C1856 1.391 . S
C1858 C1859 1.400 1_565 S
C1859 C1858 1.400 1_545 S
C1859 C1860 1.398 . S
C1859 C1865 1.491 . S
C1860 H1851 0.950 . S
C1860 C1859 1.398 . S
C1860 C1861 1.391 . S
C1861 H1849 0.950 . S
C1861 C1857 1.393 . S
C1861 C1860 1.391 . S
C1862 H1852 0.938 1_455 S
C1862 C1863 1.386 1_545 S
C1862 C1864 1.391 . S
C1863 C1862 1.386 1_565 S
C1863 C1867 1.393 . S
C1864 H1853 0.950 . S
C1864 C1862 1.391 . S
C1864 C1865 1.400 . S
C1865 C1859 1.491 . S
C1865 C1864 1.400 . S
C1865 C1866 1.398 1_545 S
C1866 H1854 0.950 . S
C1866 C1865 1.398 1_565 S
C1866 C1867 1.391 . S
C1867 H1855 0.950 . S
C1867 C1863 1.393 . S
C1867 C1866 1.391 . S
H1868 C1876 0.950 . S
H1869 C1881 0.950 . S
H1870 C1878 0.950 . S
H1871 C1880 0.950 . S
H1872 C1882 0.950 . S
H1873 C1884 0.950 . S
H1874 C1886 0.950 . S
H1875 C1887 0.950 . S
C1876 H1868 0.950 . S
C1876 C1877 1.386 . S
C1876 C1878 1.391 . S
C1877 C1876 1.386 . S
C1877 C1881 1.393 . S
C1878 H1870 0.950 . S
C1878 C1876 1.391 . S
C1878 C1879 1.400 . S
C1879 C1878 1.400 . S
C1879 C1880 1.398 . S
C1879 C1885 1.491 . S
C1880 H1871 0.950 . S
C1880 C1879 1.398 . S
C1880 C1881 1.391 . S
C1881 H1869 0.950 . S
C1881 C1877 1.393 . S
C1881 C1880 1.391 . S
C1882 H1872 0.950 . S
C1882 C1883 1.386 . S
C1882 C1884 1.391 . S
C1883 C1882 1.386 . S
C1883 C1887 1.393 . S
C1884 H1873 0.950 . S
C1884 C1882 1.391 . S
C1884 C1885 1.400 . S
C1885 C1879 1.491 . S
C1885 C1884 1.400 . S
C1885 C1886 1.398 . S
C1886 H1874 0.950 . S
C1886 C1885 1.398 . S
C1886 C1887 1.391 . S
C1887 H1875 0.950 . S
C1887 C1883 1.393 . S
C1887 C1886 1.391 . S
H1888 C1896 0.950 . S
H1889 C1901 0.950 . S
H1890 C1898 0.950 . S
H1891 C1900 0.950 . S
H1892 C1902 0.950 . S
H1893 C1904 0.950 . S
H1894 C1906 0.950 . S
H1895 C1907 0.950 . S
C1896 H1888 0.950 . S
C1896 C1897 1.386 1_565 S
C1896 C1898 1.391 . S
C1897 C1896 1.386 1_545 S
C1897 C1901 1.393 . S
C1898 H1890 0.950 . S
C1898 C1896 1.391 . S
C1898 C1899 1.400 . S
C1899 C1898 1.400 . S
C1899 C1900 1.398 1_565 S
C1899 C1905 1.491 . S
C1900 H1891 0.950 . S
C1900 C1899 1.398 1_545 S
C1900 C1901 1.391 . S
C1901 H1889 0.950 . S
C1901 C1897 1.393 . S
C1901 C1900 1.391 . S
C1902 H1892 0.950 . S
C1902 C1903 1.386 1_545 S
C1902 C1904 1.391 . S
C1903 C1902 1.386 1_565 S
C1903 C1907 1.393 . S
C1904 H1893 0.950 . S
C1904 C1902 1.391 . S
C1904 C1905 1.400 1_545 S
C1905 C1899 1.491 . S
C1905 C1904 1.400 1_565 S
C1905 C1906 1.398 . S
C1906 H1894 0.950 . S
C1906 C1905 1.398 . S
C1906 C1907 1.391 . S
C1907 H1895 0.950 . S
C1907 C1903 1.393 . S
C1907 C1906 1.391 . S
H1908 C1916 0.950 . S
H1909 C1921 0.950 . S
H1910 C1918 0.950 . S
H1911 C1920 0.950 . S
H1912 C1922 0.950 . S
H1913 C1924 0.950 . S
H1914 C1926 0.950 . S
H1915 C1927 0.950 . S
C1916 H1908 0.950 . S
C1916 C1917 1.386 . S
C1916 C1918 1.391 . S
C1917 C1916 1.386 . S
C1917 C1921 1.393 . S
C1918 H1910 0.950 . S
C1918 C1916 1.391 . S
C1918 C1919 1.400 . S
C1919 C1918 1.400 . S
C1919 C1920 1.398 . S
C1919 C1925 1.491 . S
C1920 H1911 0.950 . S
C1920 C1919 1.398 . S
C1920 C1921 1.391 . S
C1921 H1909 0.950 . S
C1921 C1917 1.393 . S
C1921 C1920 1.391 . S
C1922 H1912 0.950 . S
C1922 C1923 1.386 . S
C1922 C1924 1.391 . S
C1923 C1922 1.386 . S
C1923 C1927 1.393 . S
C1924 H1913 0.950 . S
C1924 C1922 1.391 . S
C1924 C1925 1.400 . S
C1925 C1919 1.491 . S
C1925 C1924 1.400 . S
C1925 C1926 1.398 . S
C1926 H1914 0.950 . S
C1926 C1925 1.398 . S
C1926 C1927 1.391 . S
C1927 H1915 0.950 . S
C1927 C1923 1.393 . S
C1927 C1926 1.391 . S
H1928 C1936 0.950 . S
H1929 C1941 0.950 . S
H1930 C1938 0.950 . S
H1931 C1940 0.950 . S
H1932 C1942 0.950 . S
H1933 C1944 0.950 . S
H1934 C1946 0.950 . S
H1935 C1947 0.950 . S
C1936 H1928 0.950 . S
C1936 C1937 1.386 . S
C1936 C1938 1.391 . S
C1937 C1936 1.386 . S
C1937 C1941 1.393 1_545 S
C1938 H1930 0.950 . S
C1938 C1936 1.391 . S
C1938 C1939 1.400 . S
C1939 C1938 1.400 . S
C1939 C1940 1.398 1_545 S
C1939 C1945 1.491 . S
C1940 H1931 0.950 . S
C1940 C1939 1.398 1_565 S
C1940 C1941 1.391 . S
C1941 H1929 0.950 . S
C1941 C1937 1.393 1_565 S
C1941 C1940 1.391 . S
C1942 H1932 0.950 . S
C1942 C1943 1.386 . S
C1942 C1944 1.391 . S
C1943 C1942 1.386 . S
C1943 C1947 1.393 1_565 S
C1944 H1933 0.950 . S
C1944 C1942 1.391 . S
C1944 C1945 1.400 1_565 S
C1945 C1939 1.491 . S
C1945 C1944 1.400 1_545 S
C1945 C1946 1.398 . S
C1946 H1934 0.950 . S
C1946 C1945 1.398 . S
C1946 C1947 1.391 . S
C1947 H1935 0.950 . S
C1947 C1943 1.393 1_545 S
C1947 C1946 1.391 . S
H1948 C1956 0.950 . S
H1949 C1961 0.950 . S
H1950 C1958 0.950 . S
H1951 C1960 0.950 . S
H1952 C1962 0.950 . S
H1953 C1964 0.950 . S
H1954 C1966 0.950 . S
H1955 C1967 0.950 . S
C1956 H1948 0.950 . S
C1956 C1957 1.386 . S
C1956 C1958 1.391 . S
C1957 C1956 1.386 . S
C1957 C1961 1.393 . S
C1958 H1950 0.950 . S
C1958 C1956 1.391 . S
C1958 C1959 1.400 . S
C1959 C1958 1.400 . S
C1959 C1960 1.398 . S
C1959 C1965 1.491 . S
C1960 H1951 0.950 . S
C1960 C1959 1.398 . S
C1960 C1961 1.391 . S
C1961 H1949 0.950 . S
C1961 C1957 1.393 . S
C1961 C1960 1.391 . S
C1962 H1952 0.950 . S
C1962 C1963 1.386 . S
C1962 C1964 1.391 . S
C1963 C1962 1.386 . S
C1963 C1967 1.393 . S
C1964 H1953 0.950 . S
C1964 C1962 1.391 . S
C1964 C1965 1.400 . S
C1965 C1959 1.491 . S
C1965 C1964 1.400 . S
C1965 C1966 1.398 . S
C1966 H1954 0.950 . S
C1966 C1965 1.398 . S
C1966 C1967 1.391 . S
C1967 H1955 0.950 . S
C1967 C1963 1.393 . S
C1967 C1966 1.391 . S
H1968 C1976 0.950 . S
H1969 C1981 0.957 . S
H1970 C1978 0.950 . S
H1971 C1980 0.950 . S
H1972 C1982 0.950 . S
H1973 C1984 0.950 . S
H1974 C1986 0.950 . S
H1975 C1987 0.950 . S
C1976 H1968 0.950 . S
C1976 C1977 1.386 . S
C1976 C1978 1.391 . S
C1977 C1976 1.386 . S
C1977 C1981 1.383 1_545 S
C1978 H1970 0.950 . S
C1978 C1976 1.391 . S
C1978 C1979 1.400 . S
C1979 C1978 1.400 . S
C1979 C1980 1.398 1_545 S
C1979 C1985 1.491 . S
C1980 H1971 0.950 . S
C1980 C1979 1.398 1_565 S
C1980 C1981 1.394 . S
C1981 H1969 0.957 . S
C1981 C1977 1.383 1_565 S
C1981 C1980 1.394 . S
C1982 H1972 0.950 . S
C1982 C1983 1.386 . S
C1982 C1984 1.391 . S
C1983 C1982 1.386 . S
C1983 C1987 1.393 1_565 S
C1984 H1973 0.950 . S
C1984 C1982 1.391 . S
C1984 C1985 1.400 1_565 S
C1985 C1979 1.491 . S
C1985 C1984 1.400 1_545 S
C1985 C1986 1.398 . S
C1986 H1974 0.950 . S
C1986 C1985 1.398 . S
C1986 C1987 1.391 . S
C1987 H1975 0.950 . S
C1987 C1983 1.393 1_545 S
C1987 C1986 1.391 . S
H1988 C1996 0.950 . S
H1989 C2001 0.950 . S
H1990 C1998 0.950 . S
H1991 C2000 0.950 . S
H1992 C2002 0.950 . S
H1993 C2004 0.950 . S
H1994 C2006 0.950 . S
H1995 C2007 0.950 . S
C1996 H1988 0.950 . S
C1996 C1997 1.386 . S
C1996 C1998 1.391 . S
C1997 C1996 1.386 . S
C1997 C2001 1.393 . S
C1998 H1990 0.950 . S
C1998 C1996 1.391 . S
C1998 C1999 1.400 . S
C1999 C1998 1.400 . S
C1999 C2000 1.398 . S
C1999 C2005 1.491 . S
C2000 H1991 0.950 . S
C2000 C1999 1.398 . S
C2000 C2001 1.391 . S
C2001 H1989 0.950 . S
C2001 C1997 1.393 . S
C2001 C2000 1.391 . S
C2002 H1992 0.950 . S
C2002 C2003 1.386 . S
C2002 C2004 1.391 . S
C2003 C2002 1.386 . S
C2003 C2007 1.393 . S
C2004 H1993 0.950 . S
C2004 C2002 1.391 . S
C2004 C2005 1.400 . S
C2005 C1999 1.491 . S
C2005 C2004 1.400 . S
C2005 C2006 1.398 . S
C2006 H1994 0.950 . S
C2006 C2005 1.398 . S
C2006 C2007 1.391 . S
C2007 H1995 0.950 . S
C2007 C2003 1.393 . S
C2007 C2006 1.391 . S
H2008 C2016 0.950 1_545 S
H2009 C2021 0.950 . S
H2010 C2018 0.950 . S
H2011 C2020 0.950 . S
H2012 C2022 0.950 . S
H2013 C2024 0.950 . S
H2014 C2026 0.950 . S
H2015 C2027 0.950 . S
C2016 H2008 0.950 1_565 S
C2016 C2017 1.386 . S
C2016 C2018 1.391 1_565 S
C2017 C2016 1.386 . S
C2017 C2021 1.393 . S
C2018 H2010 0.950 . S
C2018 C2016 1.391 1_545 S
C2018 C2019 1.400 1_545 S
C2019 C2018 1.400 1_565 S
C2019 C2020 1.398 . S
C2019 C2025 1.491 . S
C2020 H2011 0.950 . S
C2020 C2019 1.398 . S
C2020 C2021 1.391 . S
C2021 H2009 0.950 . S
C2021 C2017 1.393 . S
C2021 C2020 1.391 . S
C2022 H2012 0.950 . S
C2022 C2023 1.386 1_565 S
C2022 C2024 1.391 . S
C2023 C2022 1.386 1_545 S
C2023 C2027 1.393 . S
C2024 H2013 0.950 . S
C2024 C2022 1.391 . S
C2024 C2025 1.400 . S
C2025 C2019 1.491 . S
C2025 C2024 1.400 . S
C2025 C2026 1.398 1_565 S
C2026 H2014 0.950 . S
C2026 C2025 1.398 1_545 S
C2026 C2027 1.391 . S
C2027 H2015 0.950 . S
C2027 C2023 1.393 . S
C2027 C2026 1.391 . S
H2028 C2036 0.950 . S
H2029 C2041 0.950 . S
H2030 C2038 0.950 . S
H2031 C2040 0.950 . S
H2032 C2042 0.950 . S
H2033 C2044 0.950 . S
H2034 C2046 0.950 . S
H2035 C2047 0.950 . S
C2036 H2028 0.950 . S
C2036 C2037 1.386 . S
C2036 C2038 1.391 . S
C2037 C2036 1.386 . S
C2037 C2041 1.393 . S
C2038 H2030 0.950 . S
C2038 C2036 1.391 . S
C2038 C2039 1.400 . S
C2039 C2038 1.400 . S
C2039 C2040 1.398 . S
C2039 C2045 1.491 . S
C2040 H2031 0.950 . S
C2040 C2039 1.398 . S
C2040 C2041 1.391 . S
C2041 H2029 0.950 . S
C2041 C2037 1.393 . S
C2041 C2040 1.391 . S
C2042 H2032 0.950 . S
C2042 C2043 1.386 . S
C2042 C2044 1.391 . S
C2043 C2042 1.386 . S
C2043 C2047 1.393 . S
C2044 H2033 0.950 . S
C2044 C2042 1.391 . S
C2044 C2045 1.400 . S
C2045 C2039 1.491 . S
C2045 C2044 1.400 . S
C2045 C2046 1.398 . S
C2046 H2034 0.950 . S
C2046 C2045 1.398 . S
C2046 C2047 1.391 . S
C2047 H2035 0.950 . S
C2047 C2043 1.393 . S
C2047 C2046 1.391 . S
H2048 C2056 0.950 . S
H2049 C2061 0.950 . S
H2050 C2058 0.950 . S
H2051 C2060 0.950 . S
H2052 C2062 0.950 . S
H2053 C2064 0.950 . S
H2054 C2066 0.950 . S
H2055 C2067 0.950 . S
C2056 H2048 0.950 . S
C2056 C2057 1.386 . S
C2056 C2058 1.391 . S
C2057 C2056 1.386 . S
C2057 C2061 1.393 . S
C2058 H2050 0.950 . S
C2058 C2056 1.391 . S
C2058 C2059 1.400 . S
C2059 C2058 1.400 . S
C2059 C2060 1.398 . S
C2059 C2065 1.491 . S
C2060 H2051 0.950 . S
C2060 C2059 1.398 . S
C2060 C2061 1.391 . S
C2061 H2049 0.950 . S
C2061 C2057 1.393 . S
C2061 C2060 1.391 . S
C2062 H2052 0.950 . S
C2062 C2063 1.386 . S
C2062 C2064 1.391 . S
C2063 C2062 1.386 . S
C2063 C2067 1.393 . S
C2064 H2053 0.950 . S
C2064 C2062 1.391 . S
C2064 C2065 1.400 . S
C2065 C2059 1.491 . S
C2065 C2064 1.400 . S
C2065 C2066 1.398 . S
C2066 H2054 0.950 . S
C2066 C2065 1.398 . S
C2066 C2067 1.391 . S
C2067 H2055 0.950 . S
C2067 C2063 1.393 . S
C2067 C2066 1.391 . S
H2068 C2076 0.950 . S
H2069 C2081 0.950 . S
H2070 C2078 0.950 . S
H2071 C2080 0.950 . S
H2072 C2082 0.950 . S
H2073 C2084 0.950 . S
H2074 C2086 0.950 . S
H2075 C2087 0.950 . S
C2076 H2068 0.950 . S
C2076 C2077 1.386 . S
C2076 C2078 1.391 . S
C2077 C2076 1.386 . S
C2077 C2081 1.393 . S
C2078 H2070 0.950 . S
C2078 C2076 1.391 . S
C2078 C2079 1.400 . S
C2079 C2078 1.400 . S
C2079 C2080 1.398 . S
C2079 C2085 1.491 . S
C2080 H2071 0.950 . S
C2080 C2079 1.398 . S
C2080 C2081 1.391 . S
C2081 H2069 0.950 . S
C2081 C2077 1.393 . S
C2081 C2080 1.391 . S
C2082 H2072 0.950 . S
C2082 C2083 1.386 . S
C2082 C2084 1.391 . S
C2083 C2082 1.386 . S
C2083 C2087 1.393 . S
C2084 H2073 0.950 . S
C2084 C2082 1.391 . S
C2084 C2085 1.400 . S
C2085 C2079 1.491 . S
C2085 C2084 1.400 . S
C2085 C2086 1.398 . S
C2086 H2074 0.950 . S
C2086 C2085 1.398 . S
C2086 C2087 1.391 . S
C2087 H2075 0.950 . S
C2087 C2083 1.393 . S
C2087 C2086 1.391 . S
H2088 C2096 0.950 . S
H2089 C2101 0.950 . S
H2090 C2098 0.950 . S
H2091 C2100 0.950 . S
H2092 C2102 0.950 . S
H2093 C2104 0.950 . S
H2094 C2106 0.950 . S
H2095 C2107 0.950 . S
C2096 H2088 0.950 . S
C2096 C2097 1.386 . S
C2096 C2098 1.391 . S
C2097 C2096 1.386 . S
C2097 C2101 1.393 . S
C2098 H2090 0.950 . S
C2098 C2096 1.391 . S
C2098 C2099 1.400 . S
C2099 C2098 1.400 . S
C2099 C2100 1.398 . S
C2099 C2105 1.491 . S
C2100 H2091 0.950 . S
C2100 C2099 1.398 . S
C2100 C2101 1.391 . S
C2101 H2089 0.950 . S
C2101 C2097 1.393 . S
C2101 C2100 1.391 . S
C2102 H2092 0.950 . S
C2102 C2103 1.386 . S
C2102 C2104 1.391 . S
C2103 C2102 1.386 . S
C2103 C2107 1.393 . S
C2104 H2093 0.950 . S
C2104 C2102 1.391 . S
C2104 C2105 1.400 . S
C2105 C2099 1.491 . S
C2105 C2104 1.400 . S
C2105 C2106 1.398 . S
C2106 H2094 0.950 . S
C2106 C2105 1.398 . S
C2106 C2107 1.391 . S
C2107 H2095 0.950 . S
C2107 C2103 1.393 . S
C2107 C2106 1.391 . S
H2108 C2116 0.950 . S
H2109 C2121 0.950 . S
H2110 C2118 0.950 . S
H2111 C2120 0.950 . S
H2112 C2122 0.950 . S
H2113 C2124 0.950 . S
H2114 C2126 0.950 . S
H2115 C2127 0.950 . S
C2116 H2108 0.950 . S
C2116 C2117 1.386 . S
C2116 C2118 1.391 . S
C2117 C2116 1.386 . S
C2117 C2121 1.393 . S
C2118 H2110 0.950 . S
C2118 C2116 1.391 . S
C2118 C2119 1.400 . S
C2119 C2118 1.400 . S
C2119 C2120 1.398 . S
C2119 C2125 1.491 . S
C2120 H2111 0.950 . S
C2120 C2119 1.398 . S
C2120 C2121 1.391 . S
C2121 H2109 0.950 . S
C2121 C2117 1.393 . S
C2121 C2120 1.391 . S
C2122 H2112 0.950 . S
C2122 C2123 1.386 . S
C2122 C2124 1.391 . S
C2123 C2122 1.386 . S
C2123 C2127 1.393 . S
C2124 H2113 0.950 . S
C2124 C2122 1.391 . S
C2124 C2125 1.400 . S
C2125 C2119 1.491 . S
C2125 C2124 1.400 . S
C2125 C2126 1.398 . S
C2126 H2114 0.950 . S
C2126 C2125 1.398 . S
C2126 C2127 1.391 . S
C2127 H2115 0.950 . S
C2127 C2123 1.393 . S
C2127 C2126 1.391 . S
H2128 C2136 0.950 . S
H2129 C2141 0.950 . S
H2130 C2138 0.950 . S
H2131 C2140 0.950 . S
H2132 C2142 0.950 . S
H2133 C2144 0.950 . S
H2134 C2146 0.950 . S
H2135 C2147 0.950 . S
C2136 H2128 0.950 . S
C2136 C2137 1.386 . S
C2136 C2138 1.391 . S
C2137 C2136 1.386 . S
C2137 C2141 1.393 . S
C2138 H2130 0.950 . S
C2138 C2136 1.391 . S
C2138 C2139 1.400 . S
C2139 C2138 1.400 . S
C2139 C2140 1.398 . S
C2139 C2145 1.491 . S
C2140 H2131 0.950 . S
C2140 C2139 1.398 . S
C2140 C2141 1.391 . S
C2141 H2129 0.950 . S
C2141 C2137 1.393 . S
C2141 C2140 1.391 . S
C2142 H2132 0.950 . S
C2142 C2143 1.386 . S
C2142 C2144 1.391 . S
C2143 C2142 1.386 . S
C2143 C2147 1.393 . S
C2144 H2133 0.950 . S
C2144 C2142 1.391 . S
C2144 C2145 1.400 . S
C2145 C2139 1.491 . S
C2145 C2144 1.400 . S
C2145 C2146 1.398 . S
C2146 H2134 0.950 . S
C2146 C2145 1.398 . S
C2146 C2147 1.391 . S
C2147 H2135 0.950 . S
C2147 C2143 1.393 . S
C2147 C2146 1.391 . S
H2148 C2156 0.950 . S
H2149 C2161 0.950 . S
H2150 C2158 0.950 . S
H2151 C2160 0.950 . S
H2152 C2162 0.950 . S
H2153 C2164 0.950 . S
H2154 C2166 0.950 . S
H2155 C2167 0.950 . S
C2156 H2148 0.950 . S
C2156 C2157 1.386 . S
C2156 C2158 1.391 . S
C2157 C2156 1.386 . S
C2157 C2161 1.393 . S
C2158 H2150 0.950 . S
C2158 C2156 1.391 . S
C2158 C2159 1.400 . S
C2159 C2158 1.400 . S
C2159 C2160 1.398 . S
C2159 C2165 1.491 . S
C2160 H2151 0.950 . S
C2160 C2159 1.398 . S
C2160 C2161 1.391 . S
C2161 H2149 0.950 . S
C2161 C2157 1.393 . S
C2161 C2160 1.391 . S
C2162 H2152 0.950 . S
C2162 C2163 1.386 . S
C2162 C2164 1.391 . S
C2163 C2162 1.386 . S
C2163 C2167 1.393 . S
C2164 H2153 0.950 . S
C2164 C2162 1.391 . S
C2164 C2165 1.400 . S
C2165 C2159 1.491 . S
C2165 C2164 1.400 . S
C2165 C2166 1.398 . S
C2166 H2154 0.950 . S
C2166 C2165 1.398 . S
C2166 C2167 1.391 . S
C2167 H2155 0.950 . S
C2167 C2163 1.393 . S
C2167 C2166 1.391 . S
H2168 C2176 0.950 . S
H2169 C2181 0.950 . S
H2170 C2178 0.950 . S
H2171 C2180 0.950 . S
H2172 C2182 0.950 . S
H2173 C2184 0.950 . S
H2174 C2186 0.950 . S
H2175 C2187 0.950 . S
C2176 H2168 0.950 . S
C2176 C2177 1.386 . S
C2176 C2178 1.391 . S
C2177 C2176 1.386 . S
C2177 C2181 1.393 . S
C2178 H2170 0.950 . S
C2178 C2176 1.391 . S
C2178 C2179 1.400 . S
C2179 C2178 1.400 . S
C2179 C2180 1.398 . S
C2179 C2185 1.491 . S
C2180 H2171 0.950 . S
C2180 C2179 1.398 . S
C2180 C2181 1.391 . S
C2181 H2169 0.950 . S
C2181 C2177 1.393 . S
C2181 C2180 1.391 . S
C2182 H2172 0.950 . S
C2182 C2183 1.386 . S
C2182 C2184 1.391 . S
C2183 C2182 1.386 . S
C2183 C2187 1.393 . S
C2184 H2173 0.950 . S
C2184 C2182 1.391 . S
C2184 C2185 1.400 . S
C2185 C2179 1.491 . S
C2185 C2184 1.400 . S
C2185 C2186 1.398 . S
C2186 H2174 0.950 . S
C2186 C2185 1.398 . S
C2186 C2187 1.391 . S
C2187 H2175 0.950 . S
C2187 C2183 1.393 . S
C2187 C2186 1.391 . S
H2188 C2196 0.950 . S
H2189 C2201 0.950 . S
H2190 C2198 0.950 . S
H2191 C2200 0.950 . S
H2192 C2202 0.950 . S
H2193 C2204 0.950 . S
H2194 C2206 0.950 . S
H2195 C2207 0.950 . S
C2196 H2188 0.950 . S
C2196 C2197 1.386 . S
C2196 C2198 1.391 . S
C2197 C2196 1.386 . S
C2197 C2201 1.393 . S
C2198 H2190 0.950 . S
C2198 C2196 1.391 . S
C2198 C2199 1.400 . S
C2199 C2198 1.400 . S
C2199 C2200 1.398 . S
C2199 C2205 1.491 . S
C2200 H2191 0.950 . S
C2200 C2199 1.398 . S
C2200 C2201 1.391 . S
C2201 H2189 0.950 . S
C2201 C2197 1.393 . S
C2201 C2200 1.391 . S
C2202 H2192 0.950 . S
C2202 C2203 1.386 . S
C2202 C2204 1.391 . S
C2203 C2202 1.386 . S
C2203 C2207 1.393 . S
C2204 H2193 0.950 . S
C2204 C2202 1.391 . S
C2204 C2205 1.400 . S
C2205 C2199 1.491 . S
C2205 C2204 1.400 . S
C2205 C2206 1.398 . S
C2206 H2194 0.950 . S
C2206 C2205 1.398 . S
C2206 C2207 1.391 . S
C2207 H2195 0.950 . S
C2207 C2203 1.393 . S
C2207 C2206 1.391 . S
H2208 C2216 0.950 . S
H2209 C2221 0.950 . S
H2210 C2218 0.950 . S
H2211 C2220 0.950 . S
H2212 C2222 0.950 . S
H2213 C2224 0.950 . S
H2214 C2226 0.950 . S
H2215 C2227 0.949 1_655 S
C2216 H2208 0.950 . S
C2216 C2217 1.386 . S
C2216 C2218 1.391 . S
C2217 C2216 1.386 . S
C2217 C2221 1.393 . S
C2218 H2210 0.950 . S
C2218 C2216 1.391 . S
C2218 C2219 1.400 . S
C2219 C2218 1.400 . S
C2219 C2220 1.398 . S
C2219 C2225 1.491 . S
C2220 H2211 0.950 . S
C2220 C2219 1.398 . S
C2220 C2221 1.391 . S
C2221 H2209 0.950 . S
C2221 C2217 1.393 . S
C2221 C2220 1.391 . S
C2222 H2212 0.950 . S
C2222 C2223 1.386 . S
C2222 C2224 1.391 . S
C2223 C2222 1.386 . S
C2223 C2227 1.393 . S
C2224 H2213 0.950 . S
C2224 C2222 1.391 . S
C2224 C2225 1.400 . S
C2225 C2219 1.491 . S
C2225 C2224 1.400 . S
C2225 C2226 1.398 . S
C2226 H2214 0.950 . S
C2226 C2225 1.398 . S
C2226 C2227 1.391 . S
C2227 H2215 0.949 1_455 S
C2227 C2223 1.393 . S
C2227 C2226 1.391 . S
H2228 C2236 0.950 . S
H2229 C2241 0.950 . S
H2230 C2238 0.950 . S
H2231 C2240 0.950 . S
H2232 C2242 0.950 . S
H2233 C2244 0.950 . S
H2234 C2246 0.950 . S
H2235 C2247 0.950 . S
C2236 H2228 0.950 . S
C2236 C2237 1.386 . S
C2236 C2238 1.391 . S
C2237 C2236 1.386 . S
C2237 C2241 1.393 . S
C2238 H2230 0.950 . S
C2238 C2236 1.391 . S
C2238 C2239 1.400 . S
C2239 C2238 1.400 . S
C2239 C2240 1.398 . S
C2239 C2245 1.491 . S
C2240 H2231 0.950 . S
C2240 C2239 1.398 . S
C2240 C2241 1.391 . S
C2241 H2229 0.950 . S
C2241 C2237 1.393 . S
C2241 C2240 1.391 . S
C2242 H2232 0.950 . S
C2242 C2243 1.386 . S
C2242 C2244 1.391 . S
C2243 C2242 1.386 . S
C2243 C2247 1.393 . S
C2244 H2233 0.950 . S
C2244 C2242 1.391 . S
C2244 C2245 1.400 . S
C2245 C2239 1.491 . S
C2245 C2244 1.400 . S
C2245 C2246 1.398 . S
C2246 H2234 0.950 . S
C2246 C2245 1.398 . S
C2246 C2247 1.391 . S
C2247 H2235 0.950 . S
C2247 C2243 1.393 . S
C2247 C2246 1.391 . S
H2248 C2256 0.950 . S
H2249 C2261 0.950 . S
H2250 C2258 0.950 . S
H2251 C2260 0.950 . S
H2252 C2262 0.950 . S
H2253 C2264 0.950 . S
H2254 C2266 0.950 . S
H2255 C2267 0.950 . S
C2256 H2248 0.950 . S
C2256 C2257 1.386 . S
C2256 C2258 1.391 . S
C2257 C2256 1.386 . S
C2257 C2261 1.393 . S
C2258 H2250 0.950 . S
C2258 C2256 1.391 . S
C2258 C2259 1.400 . S
C2259 C2258 1.400 . S
C2259 C2260 1.398 . S
C2259 C2265 1.491 . S
C2260 H2251 0.950 . S
C2260 C2259 1.398 . S
C2260 C2261 1.391 . S
C2261 H2249 0.950 . S
C2261 C2257 1.393 . S
C2261 C2260 1.391 . S
C2262 H2252 0.950 . S
C2262 C2263 1.386 . S
C2262 C2264 1.391 . S
C2263 C2262 1.386 . S
C2263 C2267 1.393 . S
C2264 H2253 0.950 . S
C2264 C2262 1.391 . S
C2264 C2265 1.400 . S
C2265 C2259 1.491 . S
C2265 C2264 1.400 . S
C2265 C2266 1.398 . S
C2266 H2254 0.950 . S
C2266 C2265 1.398 . S
C2266 C2267 1.391 . S
C2267 H2255 0.950 . S
C2267 C2263 1.393 . S
C2267 C2266 1.391 . S
H2268 C2276 0.950 . S
H2269 C2281 0.950 . S
H2270 C2278 0.950 . S
H2271 C2280 0.950 . S
H2272 C2282 0.950 . S
H2273 C2284 0.950 . S
H2274 C2286 0.950 . S
H2275 C2287 0.950 . S
C2276 H2268 0.950 . S
C2276 C2277 1.386 . S
C2276 C2278 1.391 . S
C2277 C2276 1.386 . S
C2277 C2281 1.393 . S
C2278 H2270 0.950 . S
C2278 C2276 1.391 . S
C2278 C2279 1.400 . S
C2279 C2278 1.400 . S
C2279 C2280 1.398 . S
C2279 C2285 1.491 . S
C2280 H2271 0.950 . S
C2280 C2279 1.398 . S
C2280 C2281 1.391 . S
C2281 H2269 0.950 . S
C2281 C2277 1.393 . S
C2281 C2280 1.391 . S
C2282 H2272 0.950 . S
C2282 C2283 1.386 . S
C2282 C2284 1.391 . S
C2283 C2282 1.386 . S
C2283 C2287 1.393 . S
C2284 H2273 0.950 . S
C2284 C2282 1.391 . S
C2284 C2285 1.400 . S
C2285 C2279 1.491 . S
C2285 C2284 1.400 . S
C2285 C2286 1.398 . S
C2286 H2274 0.950 . S
C2286 C2285 1.398 . S
C2286 C2287 1.391 . S
C2287 H2275 0.950 . S
C2287 C2283 1.393 . S
C2287 C2286 1.391 . S
H2288 C2296 0.950 . S
H2289 C2301 0.950 . S
H2290 C2298 0.950 . S
H2291 C2300 0.950 . S
H2292 C2302 0.950 . S
H2293 C2304 0.950 . S
H2294 C2306 0.950 . S
H2295 C2307 0.950 . S
C2296 H2288 0.950 . S
C2296 C2297 1.386 . S
C2296 C2298 1.391 . S
C2297 C2296 1.386 . S
C2297 C2301 1.393 . S
C2298 H2290 0.950 . S
C2298 C2296 1.391 . S
C2298 C2299 1.400 . S
C2299 C2298 1.400 . S
C2299 C2300 1.398 . S
C2299 C2305 1.491 . S
C2300 H2291 0.950 . S
C2300 C2299 1.398 . S
C2300 C2301 1.391 . S
C2301 H2289 0.950 . S
C2301 C2297 1.393 . S
C2301 C2300 1.391 . S
C2302 H2292 0.950 . S
C2302 C2303 1.386 . S
C2302 C2304 1.391 . S
C2303 C2302 1.386 . S
C2303 C2307 1.393 . S
C2304 H2293 0.950 . S
C2304 C2302 1.391 . S
C2304 C2305 1.400 . S
C2305 C2299 1.491 . S
C2305 C2304 1.400 . S
C2305 C2306 1.398 . S
C2306 H2294 0.950 . S
C2306 C2305 1.398 . S
C2306 C2307 1.391 . S
C2307 H2295 0.950 . S
C2307 C2303 1.393 . S
C2307 C2306 1.391 . S
H2308 C2316 0.950 . S
H2309 C2321 0.950 . S
H2310 C2318 0.950 . S
H2311 C2320 0.950 . S
H2312 C2322 0.950 . S
H2313 C2324 0.950 . S
H2314 C2326 0.950 . S
H2315 C2327 0.950 . S
C2316 H2308 0.950 . S
C2316 C2317 1.386 . S
C2316 C2318 1.391 . S
C2317 C2316 1.386 . S
C2317 C2321 1.393 . S
C2318 H2310 0.950 . S
C2318 C2316 1.391 . S
C2318 C2319 1.400 . S
C2319 C2318 1.400 . S
C2319 C2320 1.398 . S
C2319 C2325 1.491 . S
C2320 H2311 0.950 . S
C2320 C2319 1.398 . S
C2320 C2321 1.391 . S
C2321 H2309 0.950 . S
C2321 C2317 1.393 . S
C2321 C2320 1.391 . S
C2322 H2312 0.950 . S
C2322 C2323 1.386 . S
C2322 C2324 1.391 . S
C2323 C2322 1.386 . S
C2323 C2327 1.393 . S
C2324 H2313 0.950 . S
C2324 C2322 1.391 . S
C2324 C2325 1.400 . S
C2325 C2319 1.491 . S
C2325 C2324 1.400 . S
C2325 C2326 1.398 . S
C2326 H2314 0.950 . S
C2326 C2325 1.398 . S
C2326 C2327 1.391 . S
C2327 H2315 0.950 . S
C2327 C2323 1.393 . S
C2327 C2326 1.391 . S
H2328 C2336 0.950 . S
H2329 C2341 0.950 . S
H2330 C2338 0.950 . S
H2331 C2340 0.950 . S
H2332 C2342 0.950 . S
H2333 C2344 0.950 . S
H2334 C2346 0.950 . S
H2335 C2347 0.950 . S
C2336 H2328 0.950 . S
C2336 C2337 1.386 . S
C2336 C2338 1.391 . S
C2337 C2336 1.386 . S
C2337 C2341 1.393 . S
C2338 H2330 0.950 . S
C2338 C2336 1.391 . S
C2338 C2339 1.400 . S
C2339 C2338 1.400 . S
C2339 C2340 1.398 . S
C2339 C2345 1.491 . S
C2340 H2331 0.950 . S
C2340 C2339 1.398 . S
C2340 C2341 1.391 . S
C2341 H2329 0.950 . S
C2341 C2337 1.393 . S
C2341 C2340 1.391 . S
C2342 H2332 0.950 . S
C2342 C2343 1.386 . S
C2342 C2344 1.391 . S
C2343 C2342 1.386 . S
C2343 C2347 1.393 . S
C2344 H2333 0.950 . S
C2344 C2342 1.391 . S
C2344 C2345 1.400 . S
C2345 C2339 1.491 . S
C2345 C2344 1.400 . S
C2345 C2346 1.398 . S
C2346 H2334 0.950 . S
C2346 C2345 1.398 . S
C2346 C2347 1.391 . S
C2347 H2335 0.950 . S
C2347 C2343 1.393 . S
C2347 C2346 1.391 . S
H2348 C2356 0.950 . S
H2349 C2361 0.950 . S
H2350 C2358 0.950 . S
H2351 C2360 0.950 . S
H2352 C2362 0.950 . S
H2353 C2364 0.950 . S
H2354 C2366 0.950 . S
H2355 C2367 0.950 . S
C2356 H2348 0.950 . S
C2356 C2357 1.386 . S
C2356 C2358 1.391 . S
C2357 C2356 1.386 . S
C2357 C2361 1.393 . S
C2358 H2350 0.950 . S
C2358 C2356 1.391 . S
C2358 C2359 1.400 . S
C2359 C2358 1.400 . S
C2359 C2360 1.398 . S
C2359 C2365 1.491 . S
C2360 H2351 0.950 . S
C2360 C2359 1.398 . S
C2360 C2361 1.391 . S
C2361 H2349 0.950 . S
C2361 C2357 1.393 . S
C2361 C2360 1.391 . S
C2362 H2352 0.950 . S
C2362 C2363 1.386 . S
C2362 C2364 1.391 . S
C2363 C2362 1.386 . S
C2363 C2367 1.393 . S
C2364 H2353 0.950 . S
C2364 C2362 1.391 . S
C2364 C2365 1.400 . S
C2365 C2359 1.491 . S
C2365 C2364 1.400 . S
C2365 C2366 1.398 . S
C2366 H2354 0.950 . S
C2366 C2365 1.398 . S
C2366 C2367 1.391 . S
C2367 H2355 0.950 . S
C2367 C2363 1.393 . S
C2367 C2366 1.391 . S
H2368 C2376 0.950 . S
H2369 C2381 0.950 . S
H2370 C2378 0.950 . S
H2371 C2380 0.950 . S
H2372 C2382 0.950 . S
H2373 C2384 0.950 . S
H2374 C2386 0.950 . S
H2375 C2387 0.950 . S
C2376 H2368 0.950 . S
C2376 C2377 1.386 . S
C2376 C2378 1.391 . S
C2377 C2376 1.386 . S
C2377 C2381 1.393 . S
C2378 H2370 0.950 . S
C2378 C2376 1.391 . S
C2378 C2379 1.400 . S
C2379 C2378 1.400 . S
C2379 C2380 1.398 . S
C2379 C2385 1.491 . S
C2380 H2371 0.950 . S
C2380 C2379 1.398 . S
C2380 C2381 1.391 . S
C2381 H2369 0.950 . S
C2381 C2377 1.393 . S
C2381 C2380 1.391 . S
C2382 H2372 0.950 . S
C2382 C2383 1.386 . S
C2382 C2384 1.391 . S
C2383 C2382 1.386 . S
C2383 C2387 1.393 . S
C2384 H2373 0.950 . S
C2384 C2382 1.391 . S
C2384 C2385 1.400 . S
C2385 C2379 1.491 . S
C2385 C2384 1.400 . S
C2385 C2386 1.398 . S
C2386 H2374 0.950 . S
C2386 C2385 1.398 . S
C2386 C2387 1.391 . S
C2387 H2375 0.950 . S
C2387 C2383 1.393 . S
C2387 C2386 1.391 . S
H2388 C2396 0.950 . S
H2389 C2401 0.950 . S
H2390 C2398 0.950 . S
H2391 C2400 0.950 . S
H2392 C2402 0.950 . S
H2393 C2404 0.950 . S
H2394 C2406 0.950 . S
H2395 C2407 0.950 . S
C2396 H2388 0.950 . S
C2396 C2397 1.386 . S
C2396 C2398 1.391 . S
C2397 C2396 1.386 . S
C2397 C2401 1.393 . S
C2398 H2390 0.950 . S
C2398 C2396 1.391 . S
C2398 C2399 1.400 . S
C2399 C2398 1.400 . S
C2399 C2400 1.398 . S
C2399 C2405 1.491 . S
C2400 H2391 0.950 . S
C2400 C2399 1.398 . S
C2400 C2401 1.391 . S
C2401 H2389 0.950 . S
C2401 C2397 1.393 . S
C2401 C2400 1.391 . S
C2402 H2392 0.950 . S
C2402 C2403 1.386 . S
C2402 C2404 1.391 . S
C2403 C2402 1.386 . S
C2403 C2407 1.393 . S
C2404 H2393 0.950 . S
C2404 C2402 1.391 . S
C2404 C2405 1.400 . S
C2405 C2399 1.491 . S
C2405 C2404 1.400 . S
C2405 C2406 1.398 . S
C2406 H2394 0.950 . S
C2406 C2405 1.398 . S
C2406 C2407 1.391 . S
C2407 H2395 0.950 . S
C2407 C2403 1.393 . S
C2407 C2406 1.391 . S
H2408 C2416 0.950 . S
H2409 C2421 0.950 . S
H2410 C2418 0.950 . S
H2411 C2420 0.950 . S
H2412 C2422 0.950 . S
H2413 C2424 0.950 . S
H2414 C2426 0.950 . S
H2415 C2427 0.950 . S
C2416 H2408 0.950 . S
C2416 C2417 1.386 . S
C2416 C2418 1.391 . S
C2417 C2416 1.386 . S
C2417 C2421 1.393 . S
C2418 H2410 0.950 . S
C2418 C2416 1.391 . S
C2418 C2419 1.400 . S
C2419 C2418 1.400 . S
C2419 C2420 1.398 . S
C2419 C2425 1.491 . S
C2420 H2411 0.950 . S
C2420 C2419 1.398 . S
C2420 C2421 1.391 . S
C2421 H2409 0.950 . S
C2421 C2417 1.393 . S
C2421 C2420 1.391 . S
C2422 H2412 0.950 . S
C2422 C2423 1.386 . S
C2422 C2424 1.391 . S
C2423 C2422 1.386 . S
C2423 C2427 1.393 . S
C2424 H2413 0.950 . S
C2424 C2422 1.391 . S
C2424 C2425 1.400 . S
C2425 C2419 1.491 . S
C2425 C2424 1.400 . S
C2425 C2426 1.398 . S
C2426 H2414 0.950 . S
C2426 C2425 1.398 . S
C2426 C2427 1.391 . S
C2427 H2415 0.950 . S
C2427 C2423 1.393 . S
C2427 C2426 1.391 . S
H2428 C2436 0.950 . S
H2429 C2441 0.950 . S
H2430 C2438 0.950 . S
H2431 C2440 0.950 . S
H2432 C2442 0.950 . S
H2433 C2444 0.950 . S
H2434 C2446 0.950 . S
H2435 C2447 0.950 . S
C2436 H2428 0.950 . S
C2436 C2437 1.386 . S
C2436 C2438 1.391 . S
C2437 C2436 1.386 . S
C2437 C2441 1.393 . S
C2438 H2430 0.950 . S
C2438 C2436 1.391 . S
C2438 C2439 1.400 . S
C2439 C2438 1.400 . S
C2439 C2440 1.398 . S
C2439 C2445 1.491 . S
C2440 H2431 0.950 . S
C2440 C2439 1.398 . S
C2440 C2441 1.391 . S
C2441 H2429 0.950 . S
C2441 C2437 1.393 . S
C2441 C2440 1.391 . S
C2442 H2432 0.950 . S
C2442 C2443 1.386 . S
C2442 C2444 1.391 . S
C2443 C2442 1.386 . S
C2443 C2447 1.393 . S
C2444 H2433 0.950 . S
C2444 C2442 1.391 . S
C2444 C2445 1.400 . S
C2445 C2439 1.491 . S
C2445 C2444 1.400 . S
C2445 C2446 1.398 . S
C2446 H2434 0.950 . S
C2446 C2445 1.398 . S
C2446 C2447 1.391 . S
C2447 H2435 0.950 . S
C2447 C2443 1.393 . S
C2447 C2446 1.391 . S
H2448 C2456 0.950 . S
H2449 C2461 0.950 . S
H2450 C2458 0.950 . S
H2451 C2460 0.950 . S
H2452 C2462 0.950 . S
H2453 C2464 0.950 . S
H2454 C2466 0.950 . S
H2455 C2467 0.950 . S
C2456 H2448 0.950 . S
C2456 C2457 1.386 . S
C2456 C2458 1.391 . S
C2457 C2456 1.386 . S
C2457 C2461 1.393 . S
C2458 H2450 0.950 . S
C2458 C2456 1.391 . S
C2458 C2459 1.400 . S
C2459 C2458 1.400 . S
C2459 C2460 1.398 . S
C2459 C2465 1.491 . S
C2460 H2451 0.950 . S
C2460 C2459 1.398 . S
C2460 C2461 1.391 . S
C2461 H2449 0.950 . S
C2461 C2457 1.393 . S
C2461 C2460 1.391 . S
C2462 H2452 0.950 . S
C2462 C2463 1.386 . S
C2462 C2464 1.391 . S
C2463 C2462 1.386 . S
C2463 C2467 1.393 . S
C2464 H2453 0.950 . S
C2464 C2462 1.391 . S
C2464 C2465 1.400 . S
C2465 C2459 1.491 . S
C2465 C2464 1.400 . S
C2465 C2466 1.398 . S
C2466 H2454 0.950 . S
C2466 C2465 1.398 . S
C2466 C2467 1.391 . S
C2467 H2455 0.950 . S
C2467 C2463 1.393 . S
C2467 C2466 1.391 . S
H2468 C2476 0.950 . S
H2469 C2481 0.950 . S
H2470 C2478 0.950 . S
H2471 C2480 0.950 . S
H2472 C2482 0.950 . S
H2473 C2484 0.950 . S
H2474 C2486 0.950 . S
H2475 C2487 0.950 . S
C2476 H2468 0.950 . S
C2476 C2477 1.386 . S
C2476 C2478 1.391 . S
C2477 C2476 1.386 . S
C2477 C2481 1.393 . S
C2478 H2470 0.950 . S
C2478 C2476 1.391 . S
C2478 C2479 1.400 . S
C2479 C2478 1.400 . S
C2479 C2480 1.398 . S
C2479 C2485 1.491 . S
C2480 H2471 0.950 . S
C2480 C2479 1.398 . S
C2480 C2481 1.391 . S
C2481 H2469 0.950 . S
C2481 C2477 1.393 . S
C2481 C2480 1.391 . S
C2482 H2472 0.950 . S
C2482 C2483 1.386 . S
C2482 C2484 1.391 . S
C2483 C2482 1.386 . S
C2483 C2487 1.393 . S
C2484 H2473 0.950 . S
C2484 C2482 1.391 . S
C2484 C2485 1.400 . S
C2485 C2479 1.491 . S
C2485 C2484 1.400 . S
C2485 C2486 1.398 . S
C2486 H2474 0.950 . S
C2486 C2485 1.398 . S
C2486 C2487 1.391 . S
C2487 H2475 0.950 . S
C2487 C2483 1.393 . S
C2487 C2486 1.391 . S
H2488 C2496 0.950 . S
H2489 C2501 0.950 . S
H2490 C2498 0.950 . S
H2491 C2500 0.950 . S
H2492 C2502 0.950 . S
H2493 C2504 0.950 . S
H2494 C2506 0.950 . S
H2495 C2507 0.950 . S
C2496 H2488 0.950 . S
C2496 C2497 1.386 . S
C2496 C2498 1.391 . S
C2497 C2496 1.386 . S
C2497 C2501 1.393 . S
C2498 H2490 0.950 . S
C2498 C2496 1.391 . S
C2498 C2499 1.400 . S
C2499 C2498 1.400 . S
C2499 C2500 1.398 . S
C2499 C2505 1.491 . S
C2500 H2491 0.950 . S
C2500 C2499 1.398 . S
C2500 C2501 1.391 . S
C2501 H2489 0.950 . S
C2501 C2497 1.393 . S
C2501 C2500 1.391 . S
C2502 H2492 0.950 . S
C2502 C2503 1.386 . S
C2502 C2504 1.391 . S
C2503 C2502 1.386 . S
C2503 C2507 1.393 . S
C2504 H2493 0.950 . S
C2504 C2502 1.391 . S
C2504 C2505 1.400 . S
C2505 C2499 1.491 . S
C2505 C2504 1.400 . S
C2505 C2506 1.398 . S
C2506 H2494 0.950 . S
C2506 C2505 1.398 . S
C2506 C2507 1.391 . S
C2507 H2495 0.950 . S
C2507 C2503 1.393 . S
C2507 C2506 1.391 . S
H2508 C2516 0.950 . S
H2509 C2521 0.950 . S
H2510 C2518 0.950 . S
H2511 C2520 0.950 . S
H2512 C2522 0.950 . S
H2513 C2524 0.950 . S
H2514 C2526 0.950 . S
H2515 C2527 0.950 . S
C2516 H2508 0.950 . S
C2516 C2517 1.386 . S
C2516 C2518 1.391 . S
C2517 C2516 1.386 . S
C2517 C2521 1.393 . S
C2518 H2510 0.950 . S
C2518 C2516 1.391 . S
C2518 C2519 1.400 . S
C2519 C2518 1.400 . S
C2519 C2520 1.398 . S
C2519 C2525 1.491 . S
C2520 H2511 0.950 . S
C2520 C2519 1.398 . S
C2520 C2521 1.391 . S
C2521 H2509 0.950 . S
C2521 C2517 1.393 . S
C2521 C2520 1.391 . S
C2522 H2512 0.950 . S
C2522 C2523 1.386 . S
C2522 C2524 1.391 . S
C2523 C2522 1.386 . S
C2523 C2527 1.393 . S
C2524 H2513 0.950 . S
C2524 C2522 1.391 . S
C2524 C2525 1.400 . S
C2525 C2519 1.491 . S
C2525 C2524 1.400 . S
C2525 C2526 1.398 . S
C2526 H2514 0.950 . S
C2526 C2525 1.398 . S
C2526 C2527 1.391 . S
C2527 H2515 0.950 . S
C2527 C2523 1.393 . S
C2527 C2526 1.391 . S
H2528 C2536 0.950 . S
H2529 C2541 0.950 . S
H2530 C2538 0.950 . S
H2531 C2540 0.950 . S
H2532 C2542 0.950 . S
H2533 C2544 0.950 . S
H2534 C2546 0.950 . S
H2535 C2547 0.950 . S
C2536 H2528 0.950 . S
C2536 C2537 1.386 . S
C2536 C2538 1.391 . S
C2537 C2536 1.386 . S
C2537 C2541 1.393 . S
C2538 H2530 0.950 . S
C2538 C2536 1.391 . S
C2538 C2539 1.400 . S
C2539 C2538 1.400 . S
C2539 C2540 1.398 . S
C2539 C2545 1.491 . S
C2540 H2531 0.950 . S
C2540 C2539 1.398 . S
C2540 C2541 1.391 . S
C2541 H2529 0.950 . S
C2541 C2537 1.393 . S
C2541 C2540 1.391 . S
C2542 H2532 0.950 . S
C2542 C2543 1.386 . S
C2542 C2544 1.391 . S
C2543 C2542 1.386 . S
C2543 C2547 1.393 . S
C2544 H2533 0.950 . S
C2544 C2542 1.391 . S
C2544 C2545 1.400 . S
C2545 C2539 1.491 . S
C2545 C2544 1.400 . S
C2545 C2546 1.398 . S
C2546 H2534 0.950 . S
C2546 C2545 1.398 . S
C2546 C2547 1.391 . S
C2547 H2535 0.950 . S
C2547 C2543 1.393 . S
C2547 C2546 1.391 . S
H2548 C2556 0.950 . S
H2549 C2561 0.950 . S
H2550 C2558 0.950 . S
H2551 C2560 0.950 . S
H2552 C2562 0.950 . S
H2553 C2564 0.950 . S
H2554 C2566 0.950 . S
H2555 C2567 0.950 . S
C2556 H2548 0.950 . S
C2556 C2557 1.386 . S
C2556 C2558 1.391 . S
C2557 C2556 1.386 . S
C2557 C2561 1.393 . S
C2558 H2550 0.950 . S
C2558 C2556 1.391 . S
C2558 C2559 1.400 . S
C2559 C2558 1.400 . S
C2559 C2560 1.398 . S
C2559 C2565 1.491 . S
C2560 H2551 0.950 . S
C2560 C2559 1.398 . S
C2560 C2561 1.391 . S
C2561 H2549 0.950 . S
C2561 C2557 1.393 . S
C2561 C2560 1.391 . S
C2562 H2552 0.950 . S
C2562 C2563 1.386 . S
C2562 C2564 1.391 . S
C2563 C2562 1.386 . S
C2563 C2567 1.393 . S
C2564 H2553 0.950 . S
C2564 C2562 1.391 . S
C2564 C2565 1.400 . S
C2565 C2559 1.491 . S
C2565 C2564 1.400 . S
C2565 C2566 1.398 . S
C2566 H2554 0.950 . S
C2566 C2565 1.398 . S
C2566 C2567 1.391 . S
C2567 H2555 0.950 . S
C2567 C2563 1.393 . S
C2567 C2566 1.391 . S
H2568 C2576 0.950 . S
H2569 C2581 0.950 . S
H2570 C2578 0.950 . S
H2571 C2580 0.950 . S
H2572 C2582 0.950 . S
H2573 C2584 0.950 . S
H2574 C2586 0.950 . S
H2575 C2587 0.950 . S
C2576 H2568 0.950 . S
C2576 C2577 1.386 . S
C2576 C2578 1.391 . S
C2577 C2576 1.386 . S
C2577 C2581 1.393 . S
C2578 H2570 0.950 . S
C2578 C2576 1.391 . S
C2578 C2579 1.400 . S
C2579 C2578 1.400 . S
C2579 C2580 1.398 . S
C2579 C2585 1.491 . S
C2580 H2571 0.950 . S
C2580 C2579 1.398 . S
C2580 C2581 1.391 . S
C2581 H2569 0.950 . S
C2581 C2577 1.393 . S
C2581 C2580 1.391 . S
C2582 H2572 0.950 . S
C2582 C2583 1.386 . S
C2582 C2584 1.391 . S
C2583 C2582 1.386 . S
C2583 C2587 1.393 . S
C2584 H2573 0.950 . S
C2584 C2582 1.391 . S
C2584 C2585 1.400 . S
C2585 C2579 1.491 . S
C2585 C2584 1.400 . S
C2585 C2586 1.398 . S
C2586 H2574 0.950 . S
C2586 C2585 1.398 . S
C2586 C2587 1.391 . S
C2587 H2575 0.950 . S
C2587 C2583 1.393 . S
C2587 C2586 1.391 . S
H2588 C2596 0.950 . S
H2589 C2601 0.950 . S
H2590 C2598 0.950 . S
H2591 C2600 0.950 . S
H2592 C2602 0.950 . S
H2593 C2604 0.950 . S
H2594 C2606 0.950 . S
H2595 C2607 0.950 . S
C2596 H2588 0.950 . S
C2596 C2597 1.386 . S
C2596 C2598 1.391 . S
C2597 C2596 1.386 . S
C2597 C2601 1.393 . S
C2598 H2590 0.950 . S
C2598 C2596 1.391 . S
C2598 C2599 1.400 . S
C2599 C2598 1.400 . S
C2599 C2600 1.398 . S
C2599 C2605 1.491 . S
C2600 H2591 0.950 . S
C2600 C2599 1.398 . S
C2600 C2601 1.391 . S
C2601 H2589 0.950 . S
C2601 C2597 1.393 . S
C2601 C2600 1.391 . S
C2602 H2592 0.950 . S
C2602 C2603 1.386 . S
C2602 C2604 1.391 . S
C2603 C2602 1.386 . S
C2603 C2607 1.393 . S
C2604 H2593 0.950 . S
C2604 C2602 1.391 . S
C2604 C2605 1.400 . S
C2605 C2599 1.491 . S
C2605 C2604 1.400 . S
C2605 C2606 1.398 . S
C2606 H2594 0.950 . S
C2606 C2605 1.398 . S
C2606 C2607 1.391 . S
C2607 H2595 0.950 . S
C2607 C2603 1.393 . S
C2607 C2606 1.391 . S
H2608 C2616 0.950 . S
H2609 C2621 0.950 . S
H2610 C2618 0.950 . S
H2611 C2620 0.950 . S
H2612 C2622 0.950 . S
H2613 C2624 0.950 . S
H2614 C2626 0.950 . S
H2615 C2627 0.950 . S
C2616 H2608 0.950 . S
C2616 C2617 1.386 . S
C2616 C2618 1.391 . S
C2617 C2616 1.386 . S
C2617 C2621 1.393 . S
C2618 H2610 0.950 . S
C2618 C2616 1.391 . S
C2618 C2619 1.400 . S
C2619 C2618 1.400 . S
C2619 C2620 1.398 . S
C2619 C2625 1.491 . S
C2620 H2611 0.950 . S
C2620 C2619 1.398 . S
C2620 C2621 1.391 . S
C2621 H2609 0.950 . S
C2621 C2617 1.393 . S
C2621 C2620 1.391 . S
C2622 H2612 0.950 . S
C2622 C2623 1.386 . S
C2622 C2624 1.391 . S
C2623 C2622 1.386 . S
C2623 C2627 1.393 . S
C2624 H2613 0.950 . S
C2624 C2622 1.391 . S
C2624 C2625 1.400 . S
C2625 C2619 1.491 . S
C2625 C2624 1.400 . S
C2625 C2626 1.398 . S
C2626 H2614 0.950 . S
C2626 C2625 1.398 . S
C2626 C2627 1.391 . S
C2627 H2615 0.950 . S
C2627 C2623 1.393 . S
C2627 C2626 1.391 . S
H2628 C2636 0.950 . S
H2629 C2641 0.950 . S
H2630 C2638 0.950 . S
H2631 C2640 0.950 . S
H2632 C2642 0.950 . S
H2633 C2644 0.950 . S
H2634 C2646 0.950 . S
H2635 C2647 0.950 . S
C2636 H2628 0.950 . S
C2636 C2637 1.386 . S
C2636 C2638 1.391 . S
C2637 C2636 1.386 . S
C2637 C2641 1.393 . S
C2638 H2630 0.950 . S
C2638 C2636 1.391 . S
C2638 C2639 1.400 . S
C2639 C2638 1.400 . S
C2639 C2640 1.398 . S
C2639 C2645 1.491 . S
C2640 H2631 0.950 . S
C2640 C2639 1.398 . S
C2640 C2641 1.391 . S
C2641 H2629 0.950 . S
C2641 C2637 1.393 . S
C2641 C2640 1.391 . S
C2642 H2632 0.950 . S
C2642 C2643 1.386 . S
C2642 C2644 1.391 . S
C2643 C2642 1.386 . S
C2643 C2647 1.393 . S
C2644 H2633 0.950 . S
C2644 C2642 1.391 . S
C2644 C2645 1.400 . S
C2645 C2639 1.491 . S
C2645 C2644 1.400 . S
C2645 C2646 1.398 . S
C2646 H2634 0.950 . S
C2646 C2645 1.398 . S
C2646 C2647 1.391 . S
C2647 H2635 0.950 . S
C2647 C2643 1.393 . S
C2647 C2646 1.391 . S
H2648 C2656 0.950 . S
H2649 C2661 0.950 . S
H2650 C2658 0.950 . S
H2651 C2660 0.950 . S
H2652 C2662 0.950 . S
H2653 C2664 0.950 . S
H2654 C2666 0.950 . S
H2655 C2667 0.950 . S
C2656 H2648 0.950 . S
C2656 C2657 1.386 . S
C2656 C2658 1.391 . S
C2657 C2656 1.386 . S
C2657 C2661 1.393 . S
C2658 H2650 0.950 . S
C2658 C2656 1.391 . S
C2658 C2659 1.400 . S
C2659 C2658 1.400 . S
C2659 C2660 1.398 . S
C2659 C2665 1.491 . S
C2660 H2651 0.950 . S
C2660 C2659 1.398 . S
C2660 C2661 1.391 . S
C2661 H2649 0.950 . S
C2661 C2657 1.393 . S
C2661 C2660 1.391 . S
C2662 H2652 0.950 . S
C2662 C2663 1.386 . S
C2662 C2664 1.391 . S
C2663 C2662 1.386 . S
C2663 C2667 1.393 . S
C2664 H2653 0.950 . S
C2664 C2662 1.391 . S
C2664 C2665 1.400 . S
C2665 C2659 1.491 . S
C2665 C2664 1.400 . S
C2665 C2666 1.398 . S
C2666 H2654 0.950 . S
C2666 C2665 1.398 . S
C2666 C2667 1.391 . S
C2667 H2655 0.950 . S
C2667 C2663 1.393 . S
C2667 C2666 1.391 . S
H2668 C2676 0.950 . S
H2669 C2681 0.950 . S
H2670 C2678 0.950 . S
H2671 C2680 0.950 . S
H2672 C2682 0.950 . S
H2673 C2684 0.950 . S
H2674 C2686 0.950 . S
H2675 C2687 0.950 . S
C2676 H2668 0.950 . S
C2676 C2677 1.386 . S
C2676 C2678 1.391 . S
C2677 C2676 1.386 . S
C2677 C2681 1.393 . S
C2678 H2670 0.950 . S
C2678 C2676 1.391 . S
C2678 C2679 1.400 . S
C2679 C2678 1.400 . S
C2679 C2680 1.398 . S
C2679 C2685 1.491 . S
C2680 H2671 0.950 . S
C2680 C2679 1.398 . S
C2680 C2681 1.391 . S
C2681 H2669 0.950 . S
C2681 C2677 1.393 . S
C2681 C2680 1.391 . S
C2682 H2672 0.950 . S
C2682 C2683 1.386 . S
C2682 C2684 1.391 . S
C2683 C2682 1.386 . S
C2683 C2687 1.393 . S
C2684 H2673 0.950 . S
C2684 C2682 1.391 . S
C2684 C2685 1.400 . S
C2685 C2679 1.491 . S
C2685 C2684 1.400 . S
C2685 C2686 1.398 . S
C2686 H2674 0.950 . S
C2686 C2685 1.398 . S
C2686 C2687 1.391 . S
C2687 H2675 0.950 . S
C2687 C2683 1.393 . S
C2687 C2686 1.391 . S
C1097 C145 1.428 . S
C1103 C9 1.426 . S
C1117 C43 1.407 . S
C1123 C179 1.411 . S
C1137 C77 1.428 . S
C1143 C213 1.425 . S
C1157 C111 1.425 . S
C1163 C247 1.427 . S
C1177 C281 1.414 . S
C1183 C417 1.419 . S
C1197 C451 1.403 . S
C1203 C315 1.399 . S
C1217 C349 1.393 . S
C1223 C485 1.395 . S
C1237 C519 1.418 . S
C1243 C383 1.422 . S
C1257 C553 1.411 . S
C1263 C689 1.416 . S
C1277 C587 1.394 . S
C1283 C723 1.396 . S
C1297 C757 1.394 . S
C1303 C621 1.396 . S
C1317 C791 1.393 . S
C1323 C655 1.393 . S
C1337 C825 1.398 . S
C1343 C961 1.402 . S
C1357 C859 1.428 . S
C1363 C995 1.428 . S
C1377 C1029 1.426 . S
C1383 C893 1.428 . S
C1397 C927 1.418 . S
C1403 C1063 1.413 . S
C1417 C33 0.680 . S
C1423 C645 0.683 . S
C1437 C67 0.658 . S
C1443 C679 0.663 . S
C1457 C101 0.651 . S
C1463 C577 0.647 . S
C1477 C135 0.645 . S
C1483 C611 0.641 . S
C1497 C169 0.683 . S
C1503 C781 0.685 . S
C1517 C815 0.658 . S
C1523 C203 0.653 . S
C1537 C237 0.680 . S
C1543 C713 0.683 . S
C1557 C271 0.688 . S
C1563 C747 0.687 . S
C1577 C917 0.681 . S
C1583 C305 0.677 . S
C1597 C339 0.649 . S
C1603 C951 0.653 . S
C1617 C849 0.664 . S
C1623 C373 0.669 . S
C1637 C407 0.638 . S
C1643 C883 0.640 . S
C1657 C441 0.637 . S
C1663 C1053 0.639 . S
C1677 C1087 0.649 . S
C1683 C475 0.654 . S
C1697 C509 0.648 . S
C1703 C985 0.653 . S
C1717 C543 0.687 . S
C1723 C1019 0.688 . S
C1737 C20 1.452 . S
C1743 C478 1.435 . S
C1757 C1056 1.438 . S
C1763 C54 1.449 1_545 S
C1777 C410 1.447 1_455 S
C1783 C88 1.447 . S
C1797 C988 1.438 . S
C1803 C122 1.450 1_565 S
C1817 C156 1.451 . S
C1823 C342 1.446 . S
C1837 C190 1.449 1_545 S
C1843 C920 1.448 . S
C1857 C224 1.449 . S
C1863 C274 1.437 1_455 S
C1877 C852 1.446 . S
C1883 C258 1.452 1_565 S
C1897 C206 1.438 . S
C1903 C292 1.448 . S
C1917 C784 1.442 . S
C1923 C326 1.448 1_565 S
C1937 C360 1.447 . S
C1943 C138 1.444 1_655 S
C1957 C394 1.453 1_545 S
C1963 C716 1.445 . S
C1977 C428 1.447 . S
C1983 C70 1.446 . S
C1997 C648 1.440 . S
C2003 C462 1.449 1_565 S
C2017 C496 1.453 . S
C2023 C2 1.436 1_655 S
C2037 C580 1.446 . S
C2043 C530 1.447 1_545 S
C2057 C1022 1.443 1_655 S
C2063 C564 1.447 . S
C2077 C598 1.450 . S
C2083 C512 1.437 . S
C2097 C954 1.443 . S
C2103 C632 1.453 . S
C2117 C444 1.448 . S
C2123 C666 1.449 . S
C2137 C700 1.450 . S
C2143 C886 1.447 1_655 S
C2157 C376 1.438 . S
C2163 C734 1.449 . S
C2177 C818 1.446 . S
C2183 C768 1.447 . S
C2197 C802 1.453 . S
C2203 C308 1.436 . S
C2217 C836 1.447 . S
C2223 C750 1.442 1_455 S
C2237 C240 1.437 . S
C2243 C870 1.450 . S
C2257 C904 1.448 . S
C2263 C682 1.448 . S
C2277 C172 1.444 . S
C2283 C938 1.453 . S
C2297 C972 1.453 . S
C2303 C614 1.436 1_455 S
C2317 C1006 1.448 . S
C2323 C104 1.442 . S
C2337 C546 1.435 . S
C2343 C1040 1.452 . S
C2357 C36 1.436 . S
C2363 C1074 1.453 . S
C2377 C243 1.585 . S
C2383 C5 1.592 . S
C2397 C141 1.587 . S
C2403 C39 1.583 . S
C2417 C175 1.587 . S
C2423 C73 1.592 . S
C2437 C107 1.589 . S
C2443 C209 1.583 . S
C2457 C515 1.592 . S
C2463 C277 1.587 . S
C2477 C311 1.583 . S
C2483 C413 1.590 . S
C2497 C447 1.590 . S
C2503 C345 1.583 . S
C2517 C481 1.592 . S
C2523 C379 1.585 . S
C2537 C787 1.583 . S
C2543 C549 1.590 . S
C2557 C583 1.591 . S
C2563 C685 1.583 . S
C2577 C719 1.583 . S
C2583 C617 1.589 . S
C2597 C753 1.590 . S
C2603 C651 1.583 . S
C2617 C821 1.583 . S
C2623 C1059 1.587 . S
C2637 C957 1.587 . S
C2643 C855 1.592 . S
C2657 C889 1.584 . S
C2663 C991 1.591 . S
C2677 C1025 1.591 . S
C2683 C923 1.584 . S
