# Generated by pormake.
# Topology vmd, (6)-cn, num edge types: 1
# Building blocks:
#     Node 0, Type 0, BuildingBlock: IZENUY_clean_sbu_0, # of connection points: 6
#     Node 1, Type 0, BuildingBlock: IZENUY_clean_sbu_0, # of connection points: 6
#     Node 2, Type 0, BuildingBlock: IZENUY_clean_sbu_0, # of connection points: 6
#     Node 3, Type 0, BuildingBlock: IZENUY_clean_sbu_0, # of connection points: 6
#     Node 4, Type 0, BuildingBlock: IZENUY_clean_sbu_0, # of connection points: 6
#     Node 5, Type 0, BuildingBlock: IZENUY_clean_sbu_0, # of connection points: 6
#     Node 6, Type 0, BuildingBlock: IZENUY_clean_sbu_0, # of connection points: 6
#     Node 7, Type 0, BuildingBlock: IZENUY_clean_sbu_0, # of connection points: 6
#     Edge 8, Type (0, 0), BuildingBlock: CIFDUS_clean_linker_0, # of connection points: 2
#     Edge 9, Type (0, 0), BuildingBlock: CIFDUS_clean_linker_0, # of connection points: 2
#     Edge 10, Type (0, 0), BuildingBlock: CIFDUS_clean_linker_0, # of connection points: 2
#     Edge 11, Type (0, 0), BuildingBlock: CIFDUS_clean_linker_0, # of connection points: 2
#     Edge 12, Type (0, 0), BuildingBlock: CIFDUS_clean_linker_0, # of connection points: 2
#     Edge 13, Type (0, 0), BuildingBlock: CIFDUS_clean_linker_0, # of connection points: 2
#     Edge 14, Type (0, 0), BuildingBlock: CIFDUS_clean_linker_0, # of connection points: 2
#     Edge 15, Type (0, 0), BuildingBlock: CIFDUS_clean_linker_0, # of connection points: 2
#     Edge 16, Type (0, 0), BuildingBlock: CIFDUS_clean_linker_0, # of connection points: 2
#     Edge 17, Type (0, 0), BuildingBlock: CIFDUS_clean_linker_0, # of connection points: 2
#     Edge 18, Type (0, 0), BuildingBlock: CIFDUS_clean_linker_0, # of connection points: 2
#     Edge 19, Type (0, 0), BuildingBlock: CIFDUS_clean_linker_0, # of connection points: 2
#     Edge 20, Type (0, 0), BuildingBlock: CIFDUS_clean_linker_0, # of connection points: 2
#     Edge 21, Type (0, 0), BuildingBlock: CIFDUS_clean_linker_0, # of connection points: 2
#     Edge 22, Type (0, 0), BuildingBlock: CIFDUS_clean_linker_0, # of connection points: 2
#     Edge 23, Type (0, 0), BuildingBlock: CIFDUS_clean_linker_0, # of connection points: 2
#     Edge 24, Type (0, 0), BuildingBlock: CIFDUS_clean_linker_0, # of connection points: 2
#     Edge 25, Type (0, 0), BuildingBlock: CIFDUS_clean_linker_0, # of connection points: 2
#     Edge 26, Type (0, 0), BuildingBlock: CIFDUS_clean_linker_0, # of connection points: 2
#     Edge 27, Type (0, 0), BuildingBlock: CIFDUS_clean_linker_0, # of connection points: 2
#     Edge 28, Type (0, 0), BuildingBlock: CIFDUS_clean_linker_0, # of connection points: 2
#     Edge 29, Type (0, 0), BuildingBlock: CIFDUS_clean_linker_0, # of connection points: 2
#     Edge 30, Type (0, 0), BuildingBlock: CIFDUS_clean_linker_0, # of connection points: 2
#     Edge 31, Type (0, 0), BuildingBlock: CIFDUS_clean_linker_0, # of connection points: 2
# Relax obj value: 0.251
# Max RMSD: 0.250
# Mean RMSD: 0.249
data_MOF--net-vmd--node1-IZENUY_clean_sbu_0--edge1-CIFDUS_clean_linker_0
_symmetry_space_group_name_H-M    P1
_symmetry_Int_Tables_number       1
_symmetry_cell_setting            triclinic
loop_
_symmetry_equiv_pos_as_xyz
'x, y, z'
_cell_length_a     41.520308
_cell_length_b     22.891697
_cell_length_c     25.25061
_cell_angle_alpha  89.917412
_cell_angle_beta   96.494698
_cell_angle_gamma 90.100872
loop_
_atom_site_label
_atom_site_type_symbol
_atom_site_fract_x
_atom_site_fract_y
_atom_site_fract_z
_atom_type_partial_charge
Fe0 Fe 0.17806 0.4737 0.27419 0.0
Fe1 Fe 0.16746 0.35122 0.31694 0.0
O2 O 0.19083 0.40039 0.28245 0.0
Fe3 Fe 0.22633 0.37632 0.25647 0.0
O4 O 0.25188 0.43129 0.29181 0.0
O5 O 0.21868 0.5047 0.27315 0.0
O6 O 0.18279 0.48444 0.34583 0.0
C7 C 0.16762 0.45462 0.37704 0.0
C8 C 0.19422 0.4482 0.17472 0.0
O9 O 0.15349 0.40759 0.36116 0.0
C10 C 0.19059 0.27796 0.23789 0.0
O11 O 0.13475 0.45661 0.27249 0.0
O12 O 0.13206 0.36082 0.26825 0.0
O13 O 0.21944 0.42184 0.19581 0.0
O14 O 0.17291 0.46628 0.20263 0.0
C15 C 0.22858 0.32229 0.35945 0.0
O16 O 0.1784 0.28479 0.28123 0.0
O17 O 0.20415 0.32011 0.21774 0.0
C18 C 0.11896 0.41028 0.25975 0.0
O19 O 0.20081 0.33976 0.36732 0.0
O20 O 0.23858 0.32655 0.31362 0.0
C21 C 0.24668 0.48533 0.2882 0.0
Fe22 Fe 0.87535 0.4971 0.22054 0.0
Fe23 Fe 0.86985 0.37666 0.17015 0.0
O24 O 0.85361 0.43109 0.20913 0.0
Fe25 Fe 0.81633 0.42017 0.23582 0.0
O26 O 0.79812 0.48628 0.20532 0.0
O27 O 0.83987 0.54354 0.22667 0.0
O28 O 0.87016 0.51363 0.15049 0.0
C29 C 0.88028 0.48085 0.11608 0.0
C30 C 0.8586 0.47511 0.31929 0.0
O31 O 0.88914 0.42901 0.12784 0.0
C32 C 0.83976 0.30871 0.24607 0.0
O33 O 0.91557 0.46407 0.21722 0.0
O34 O 0.9061 0.36996 0.21711 0.0
O35 O 0.83033 0.45885 0.29925 0.0
O36 O 0.88104 0.48324 0.29051 0.0
C37 C 0.80618 0.37376 0.12952 0.0
O38 O 0.85253 0.31407 0.20312 0.0
O39 O 0.83028 0.35314 0.2692 0.0
C40 C 0.92549 0.41216 0.22585 0.0
O41 O 0.83524 0.38072 0.12143 0.0
O42 O 0.7973 0.37965 0.17606 0.0
C43 C 0.81004 0.53678 0.21144 0.0
Fe44 Fe 0.80917 0.66359 0.73753 0.0
Fe45 Fe 0.86429 0.69141 0.66979 0.0
O46 O 0.8453 0.64335 0.7115 0.0
Fe47 Fe 0.86278 0.57418 0.72663 0.0
O48 O 0.82444 0.53684 0.7353 0.0
O49 O 0.78694 0.60091 0.70785 0.0
O50 O 0.79288 0.70641 0.67775 0.0
C51 C 0.80135 0.70787 0.63084 0.0
C52 C 0.84743 0.60741 0.82335 0.0
O53 O 0.82918 0.6923 0.6221 0.0
C54 C 0.91809 0.64773 0.72587 0.0
O55 O 0.82834 0.72694 0.76973 0.0
O56 O 0.8516 0.75943 0.7017 0.0
O57 O 0.86969 0.59244 0.79607 0.0
O58 O 0.82006 0.62505 0.80131 0.0
C59 C 0.86575 0.58199 0.62044 0.0
O60 O 0.90135 0.69296 0.71533 0.0
O61 O 0.90491 0.59767 0.7206 0.0
C62 C 0.84058 0.76825 0.74593 0.0
O63 O 0.87884 0.63188 0.62889 0.0
O64 O 0.85565 0.55351 0.65779 0.0
C65 C 0.7956 0.54878 0.7168 0.0
Fe66 Fe 0.16631 0.54316 0.77154 0.0
Fe67 Fe 0.22238 0.62939 0.76604 0.0
O68 O 0.18376 0.61281 0.78576 0.0
Fe69 Fe 0.16225 0.66467 0.82067 0.0
O70 O 0.14403 0.60897 0.86106 0.0
O71 O 0.16814 0.52751 0.84206 0.0
O72 O 0.20446 0.50342 0.77206 0.0
C73 C 0.23261 0.51471 0.79372 0.0
C74 C 0.11138 0.61771 0.75792 0.0
O75 O 0.24186 0.56676 0.80094 0.0
C76 C 0.19422 0.73647 0.74905 0.0
O77 O 0.16453 0.55605 0.70063 0.0
O78 O 0.2148 0.58895 0.70263 0.0
O79 O 0.12739 0.66385 0.76959 0.0
O80 O 0.12426 0.56828 0.76792 0.0
C81 C 0.22394 0.67944 0.87018 0.0
O82 O 0.20703 0.6931 0.72923 0.0
O83 O 0.17803 0.72986 0.78839 0.0
C84 C 0.18874 0.56983 0.67697 0.0
O85 O 0.23569 0.67301 0.82616 0.0
O86 O 0.19461 0.66872 0.87426 0.0
C87 C 0.15548 0.55916 0.87491 0.0
Fe88 Fe 0.66424 1.0012 0.27401 0.0
Fe89 Fe 0.66388 0.87901 0.3215 0.0
O90 O 0.68325 0.9327 0.2853 0.0
Fe91 Fe 0.72114 0.91898 0.26149 0.0
O92 O 0.74066 0.98233 0.29521 0.0
O93 O 0.70134 0.04381 0.27167 0.0
O94 O 0.66808 1.0155 0.34419 0.0
C95 C 0.65624 0.98315 0.37729 0.0
C96 C 0.68338 0.98036 0.17714 0.0
O97 O 0.64561 0.9326 0.36394 0.0
C98 C 0.69526 0.80994 0.24721 0.0
O99 O 0.62297 0.97297 0.27346 0.0
O100 O 0.62801 0.87767 0.27265 0.0
O101 O 0.71047 0.96049 0.19863 0.0
O102 O 0.6601 0.98954 0.20384 0.0
C103 C 0.72666 0.8688 0.36608 0.0
O104 O 0.6802 0.81531 0.28797 0.0
O105 O 0.70588 0.85448 0.22555 0.0
C106 C 0.61113 0.92298 0.26218 0.0
O107 O 0.69749 0.87781 0.37232 0.0
O108 O 0.73705 0.87535 0.32082 0.0
C109 C 0.73034 0.03392 0.2899 0.0
Fe110 Fe 0.36406 0.97002 0.22768 0.0
Fe111 Fe 0.36602 0.84705 0.18169 0.0
O112 O 0.34624 0.90018 0.21718 0.0
Fe113 Fe 0.30909 0.88415 0.24175 0.0
O114 O 0.28843 0.94483 0.20624 0.0
O115 O 0.32575 1.00935 0.23173 0.0
O116 O 0.35934 0.98368 0.15638 0.0
C117 C 0.37167 0.95132 0.12353 0.0
C118 C 0.3461 0.94621 0.32598 0.0
O119 O 0.38283 0.90127 0.13771 0.0
C120 C 0.33887 0.77909 0.26078 0.0
O121 O 0.40611 0.94419 0.22675 0.0
O122 O 0.40171 0.84893 0.23022 0.0
O123 O 0.31907 0.92723 0.30345 0.0
O124 O 0.36906 0.95895 0.29907 0.0
C125 C 0.30347 0.83092 0.13851 0.0
O126 O 0.35154 0.78303 0.21749 0.0
O127 O 0.32642 0.82313 0.27976 0.0
C128 C 0.41872 0.89445 0.2374 0.0
O129 O 0.33224 0.8424 0.13135 0.0
O130 O 0.29355 0.83751 0.18408 0.0
C131 C 0.29678 0.99714 0.2143 0.0
Fe132 Fe 0.3129 0.12827 0.73561 0.0
Fe133 Fe 0.37028 0.16741 0.67635 0.0
O134 O 0.35139 0.1146 0.71417 0.0
Fe135 Fe 0.37148 0.04739 0.72941 0.0
O136 O 0.33464 1.00342 0.73111 0.0
O137 O 0.29477 0.0628 0.70395 0.0
O138 O 0.29722 0.16856 0.67425 0.0
C139 C 0.30786 0.17335 0.62905 0.0
C140 C 0.34964 0.07318 0.82487 0.0
O141 O 0.33728 0.16506 0.62399 0.0
C142 C 0.42346 0.12985 0.73831 0.0
O143 O 0.32686 0.19477 0.76965 0.0
O144 O 0.35287 0.23164 0.70662 0.0
O145 O 0.37377 0.06141 0.8003 0.0
O146 O 0.3229 0.09055 0.80012 0.0
C147 C 0.38065 0.06182 0.62501 0.0
O148 O 0.40504 0.1728 0.72663 0.0
O149 O 0.41276 0.07816 0.73078 0.0
C150 C 0.3385 0.23823 0.74785 0.0
O151 O 0.39032 0.1131 0.63728 0.0
O152 O 0.36922 0.02983 0.65905 0.0
C153 C 0.30559 1.01182 0.71188 0.0
Fe154 Fe 0.6684 0.18371 0.82567 0.0
Fe155 Fe 0.67753 0.07011 0.76639 0.0
O156 O 0.69035 0.14203 0.78289 0.0
Fe157 Fe 0.72458 0.17131 0.75663 0.0
O158 O 0.73866 0.21384 0.81772 0.0
O159 O 0.70346 0.1912 0.87357 0.0
O160 O 0.65816 0.11946 0.86473 0.0
C161 C 0.67397 0.07203 0.87239 0.0
C162 C 0.68845 0.27 0.75342 0.0
O163 O 0.68637 0.04789 0.83482 0.0
C164 C 0.68929 0.1108 0.6699 0.0
O165 O 0.63095 0.1782 0.78048 0.0
O166 O 0.63462 0.08314 0.77359 0.0
O167 O 0.7012 0.23167 0.72703 0.0
O168 O 0.67669 0.25579 0.79594 0.0
C169 C 0.74577 0.05945 0.77234 0.0
O170 O 0.66864 0.09 0.6977 0.0
O171 O 0.7154 0.13421 0.6915 0.0
C172 C 0.61782 0.12937 0.76869 0.0
O173 O 0.7176 0.04244 0.75513 0.0
O174 O 0.7511 0.11244 0.78352 0.0
C175 C 0.73013 0.21292 0.86468 0.0
H176 H 0.32306 0.18245 0.52747 0.0
H177 H 0.24656 0.21878 0.62534 0.0
H178 H 0.21562 0.26789 0.55003 0.0
H179 H 0.21158 0.30417 0.45871 0.0
H180 H 0.28804 0.26898 0.36047 0.0
H181 H 0.31813 0.21615 0.43465 0.0
C182 C 0.29952 0.20081 0.53245 0.0
C183 C 0.28724 0.19721 0.58229 0.0
C184 C 0.28214 0.22969 0.48931 0.0
C185 C 0.25658 0.22079 0.58759 0.0
C186 C 0.23899 0.24919 0.54463 0.0
C187 C 0.23484 0.28502 0.45317 0.0
C188 C 0.24762 0.29095 0.40394 0.0
C189 C 0.25179 0.2546 0.49567 0.0
C190 C 0.27773 0.26552 0.39788 0.0
C191 C 0.29486 0.23513 0.44023 0.0
H192 H 0.71613 0.22094 0.96709 0.0
H193 H 0.78455 0.28064 0.86182 0.0
H194 H 0.81152 0.34083 0.93362 0.0
H195 H 0.81603 0.37497 0.02567 0.0
H196 H 0.7488 0.31364 0.13208 0.0
H197 H 0.7199 0.25717 0.059 0.0
C198 C 0.73703 0.24689 0.95964 0.0
C199 C 0.74843 0.24585 0.90894 0.0
C200 C 0.75212 0.28185 0.00083 0.0
C201 C 0.77546 0.28003 0.90037 0.0
C202 C 0.7907 0.31482 0.9413 0.0
C203 C 0.79487 0.34962 0.03303 0.0
C204 C 0.78467 0.3483 0.08453 0.0
C205 C 0.77919 0.31601 0.99153 0.0
C206 C 0.75701 0.3158 0.09292 0.0
C207 C 0.74078 0.28298 0.05129 0.0
H208 H 0.71397 0.86547 0.46869 0.0
H209 H 0.78337 0.80789 0.36465 0.0
H210 H 0.81103 0.74972 0.43742 0.0
H211 H 0.81404 0.71307 0.52836 0.0
H212 H 0.74522 0.77117 0.63326 0.0
H213 H 0.71759 0.82988 0.56064 0.0
C214 C 0.73529 0.84048 0.46186 0.0
C215 C 0.74659 0.84084 0.41118 0.0
C216 C 0.75053 0.80638 0.50334 0.0
C217 C 0.77437 0.80873 0.40328 0.0
C218 C 0.78992 0.775 0.44466 0.0
C219 C 0.79291 0.73836 0.53565 0.0
C220 C 0.78168 0.7377 0.58638 0.0
C221 C 0.77787 0.77295 0.49446 0.0
C222 C 0.75418 0.77051 0.59462 0.0
C223 C 0.73864 0.80449 0.5533 0.0
H224 H 0.31978 0.81273 0.03923 0.0
H225 H 0.24166 0.78554 0.13606 0.0
H226 H 0.2106 0.73441 0.0616 0.0
H227 H 0.20627 0.69697 0.96968 0.0
H228 H 0.28536 0.72396 0.87468 0.0
H229 H 0.31586 0.77496 0.94899 0.0
C230 C 0.29593 0.79579 0.04445 0.0
C231 C 0.28309 0.80303 0.09344 0.0
C232 C 0.27861 0.76595 0.00207 0.0
C233 C 0.25208 0.78083 0.09888 0.0
C234 C 0.23443 0.75137 0.0564 0.0
C235 C 0.23024 0.7138 0.96515 0.0
C236 C 0.24348 0.70662 0.91643 0.0
C237 C 0.24757 0.74346 0.00794 0.0
C238 C 0.2746 0.72859 0.91158 0.0
C239 C 0.29199 0.75803 0.95398 0.0
H240 H 0.26451 0.07191 0.14242 0.0
H241 H 0.2732 1.01805 0.30693 0.0
H242 H 0.23544 0.09445 0.32719 0.0
H243 H 0.20522 0.18346 0.30054 0.0
H244 H 0.199 0.24222 0.13745 0.0
H245 H 0.22939 0.15646 0.11372 0.0
C246 C 0.25759 0.0766 0.18235 0.0
C247 C 0.27148 0.03984 0.22323 0.0
C248 C 0.23612 0.12134 0.19388 0.0
C249 C 0.26268 0.04612 0.27498 0.0
C250 C 0.2411 0.08972 0.28655 0.0
C251 C 0.20945 0.17639 0.25941 0.0
C252 C 0.19965 0.21894 0.22074 0.0
C253 C 0.22822 0.12843 0.24662 0.0
C254 C 0.20608 0.20981 0.16785 0.0
C255 C 0.2238 0.16112 0.1544 0.0
H256 H 0.78976 0.04867 0.25508 0.0
H257 H 0.71957 0.13348 0.34208 0.0
H258 H 0.75049 0.22453 0.34361 0.0
H259 H 0.79324 0.28309 0.31035 0.0
H260 H 0.86085 0.20164 0.21573 0.0
H261 H 0.83566 0.1065 0.2276 0.0
C262 C 0.78181 0.08677 0.2755 0.0
C263 C 0.75255 0.08446 0.2987 0.0
C264 C 0.79908 0.13986 0.27428 0.0
C265 C 0.74206 0.13435 0.32407 0.0
C266 C 0.75967 0.18645 0.32477 0.0
C267 C 0.80303 0.24442 0.2933 0.0
C268 C 0.82893 0.2498 0.26203 0.0
C269 C 0.78764 0.19024 0.29856 0.0
C270 C 0.84093 0.19898 0.23989 0.0
C271 C 0.82642 0.1445 0.24646 0.0
H272 H 0.83323 0.8681 0.6862 0.0
H273 H 0.83104 0.80256 0.84603 0.0
H274 H 0.80501 0.89217 0.87117 0.0
H275 H 0.77457 0.98175 0.84356 0.0
H276 H 0.77533 0.04621 0.68352 0.0
H277 H 0.81027 0.96524 0.66269 0.0
C278 C 0.82809 0.87426 0.72699 0.0
C279 C 0.83382 0.82832 0.76397 0.0
C280 C 0.81231 0.92557 0.74094 0.0
C281 C 0.82668 0.83698 0.8166 0.0
C282 C 0.81158 0.88814 0.831 0.0
C283 C 0.78339 0.97893 0.80481 0.0
C284 C 0.77287 1.01989 0.76526 0.0
C285 C 0.80301 0.93164 0.79293 0.0
C286 C 0.78368 1.01542 0.71472 0.0
C287 C 0.80342 0.96891 0.70271 0.0
H288 H 0.24582 0.99659 0.74567 0.0
H289 H 0.3174 0.91139 0.66181 0.0
H290 H 0.286 0.8208 0.65834 0.0
H291 H 0.24197 0.76313 0.68772 0.0
H292 H 0.17295 0.84381 0.78026 0.0
H293 H 0.19907 0.93879 0.77096 0.0
C294 C 0.25406 0.95842 0.7257 0.0
C295 C 0.28379 0.96057 0.70375 0.0
C296 C 0.23644 0.90554 0.7258 0.0
C297 C 0.2946 0.91064 0.67891 0.0
C298 C 0.27668 0.85885 0.67703 0.0
C299 C 0.23207 0.80152 0.70507 0.0
C300 C 0.20542 0.79591 0.73479 0.0
C301 C 0.24806 0.85534 0.70158 0.0
C302 C 0.19334 0.84654 0.75713 0.0
C303 C 0.20844 0.90091 0.75211 0.0
H304 H 0.74892 0.55082 0.24131 0.0
H305 H 0.82425 0.64145 0.16984 0.0
H306 H 0.79305 0.73195 0.1678 0.0
H307 H 0.74709 0.78745 0.19351 0.0
H308 H 0.67383 0.70072 0.27329 0.0
H309 H 0.70106 0.60687 0.26427 0.0
C310 C 0.75816 0.59023 0.22451 0.0
C311 C 0.78888 0.58934 0.20557 0.0
C312 C 0.74048 0.64299 0.2252 0.0
C313 C 0.80078 0.64099 0.18476 0.0
C314 C 0.78293 0.69279 0.1836 0.0
C315 C 0.73656 0.74797 0.208 0.0
C316 C 0.70816 0.75147 0.23375 0.0
C317 C 0.75309 0.69464 0.20469 0.0
C318 C 0.69546 0.69956 0.25303 0.0
C319 C 0.71119 0.64583 0.24815 0.0
H320 H 0.34316 0.67031 0.21625 0.0
H321 H 0.31553 0.75814 0.35546 0.0
H322 H 0.28724 0.67108 0.38041 0.0
H323 H 0.26219 0.57639 0.35415 0.0
H324 H 0.291 0.4862 0.21771 0.0
H325 H 0.3271 0.56716 0.2005 0.0
C326 C 0.33185 0.66984 0.25291 0.0
C327 C 0.3308 0.7214 0.28301 0.0
C328 C 0.31533 0.61935 0.26717 0.0
C329 C 0.31622 0.71959 0.33077 0.0
C330 C 0.29985 0.66979 0.34511 0.0
C331 C 0.27725 0.57386 0.32179 0.0
C332 C 0.27414 0.52583 0.28725 0.0
C333 C 0.29795 0.62044 0.31229 0.0
C334 C 0.29343 0.52276 0.24511 0.0
C335 C 0.31382 0.56923 0.23501 0.0
H336 H 0.29554 0.26709 0.81741 0.0
H337 H 0.35878 0.34399 0.71198 0.0
H338 H 0.33477 0.43987 0.72394 0.0
H339 H 0.29037 0.4991 0.75426 0.0
H340 H 0.22436 0.41867 0.85246 0.0
H341 H 0.25503 0.32749 0.85411 0.0
C342 C 0.30464 0.30491 0.79784 0.0
C343 C 0.32882 0.29792 0.76341 0.0
C344 C 0.28994 0.35952 0.80338 0.0
C345 C 0.34012 0.34777 0.73847 0.0
C346 C 0.32627 0.40271 0.74512 0.0
C347 C 0.28342 0.46202 0.77726 0.0
C348 C 0.25542 0.46549 0.80369 0.0
C349 C 0.30041 0.40878 0.77603 0.0
C350 C 0.24602 0.4169 0.83225 0.0
C351 C 0.26342 0.36472 0.83289 0.0
H352 H 0.74418 0.52665 0.77231 0.0
H353 H 0.79549 0.46144 0.64571 0.0
H354 H 0.76154 0.37393 0.63868 0.0
H355 H 0.72241 0.3111 0.67544 0.0
H356 H 0.67551 0.36862 0.81025 0.0
H357 H 0.70169 0.46431 0.80632 0.0
C358 C 0.74728 0.49368 0.74252 0.0
C359 C 0.77189 0.5006 0.70889 0.0
C360 C 0.72854 0.44198 0.74044 0.0
C361 C 0.77639 0.45723 0.67133 0.0
C362 C 0.75708 0.40712 0.66753 0.0
C363 C 0.71726 0.34474 0.70349 0.0
C364 C 0.69705 0.3321 0.74338 0.0
C365 C 0.73372 0.39832 0.70282 0.0
C366 C 0.69083 0.3768 0.77905 0.0
C367 C 0.70611 0.43145 0.77715 0.0
H368 H 0.07154 0.32856 0.26992 0.0
H369 H 0.08688 0.50488 0.21703 0.0
H370 H 0.02865 0.52101 0.20316 0.0
H371 H 0.97365 0.48732 0.20946 0.0
H372 H 0.95671 0.31114 0.2607 0.0
H373 H 1.01526 0.29289 0.27223 0.0
C374 C 0.06207 0.37013 0.25459 0.0
C375 C 0.08357 0.41554 0.2448 0.0
C376 C 0.02832 0.37952 0.24721 0.0
C377 C 0.07091 0.46932 0.22526 0.0
C378 C 0.03759 0.47872 0.21746 0.0
C379 C 0.98267 0.44494 0.22348 0.0
C380 C 0.96083 0.40088 0.23478 0.0
C381 C 1.01613 0.43457 0.22919 0.0
C382 C 0.97303 0.34595 0.252 0.0
C383 C 1.00649 0.33544 0.25844 0.0
H384 H 0.06821 0.70643 0.77144 0.0
H385 H 0.07427 0.53117 0.71043 0.0
H386 H 1.01547 0.52456 0.69661 0.0
H387 H 0.96218 0.56594 0.70548 0.0
H388 H 0.95465 0.74178 0.76371 0.0
H389 H 1.01388 0.75053 0.77532 0.0
C390 C 0.05664 0.66725 0.75429 0.0
C391 C 0.07577 0.61926 0.74233 0.0
C392 C 0.02246 0.66336 0.74675 0.0
C393 C 0.06026 0.56866 0.7204 0.0
C394 C 0.02655 0.56466 0.71262 0.0
C395 C 0.97346 0.60611 0.72104 0.0
C396 C 0.95399 0.65282 0.73439 0.0
C397 C 1.00741 0.6112 0.7266 0.0
C398 C 0.96907 0.70498 0.75344 0.0
C399 C 1.00296 0.71006 0.75993 0.0
H400 H 0.46258 0.97117 0.20717 0.0
H401 H 0.45502 0.80432 0.28429 0.0
H402 H 0.51426 0.79494 0.29477 0.0
H403 H 0.56855 0.8368 0.28477 0.0
H404 H 0.57436 1.00315 0.20571 0.0
H405 H 0.51551 1.00941 0.19223 0.0
C406 C 0.47384 0.93288 0.22666 0.0
C407 C 0.45447 0.88898 0.24573 0.0
C408 C 0.50766 0.92734 0.23153 0.0
C409 C 0.46947 0.839 0.2697 0.0
C410 C 0.50331 0.83353 0.27549 0.0
C411 C 0.55684 0.8737 0.26365 0.0
C412 C 0.57579 0.91955 0.24641 0.0
C413 C 0.52272 0.87758 0.25667 0.0
C414 C 0.56031 0.96745 0.21958 0.0
C415 C 0.52665 0.97127 0.21208 0.0
H416 H 0.57045 0.21128 0.78071 0.0
H417 H 0.58436 0.03283 0.73278 0.0
H418 H 0.52618 1.01685 0.72217 0.0
H419 H 0.47131 0.05198 0.72721 0.0
H420 H 0.45562 0.23062 0.77177 0.0
H421 H 0.5143 0.2477 0.78344 0.0
C422 C 0.56071 0.16912 0.76749 0.0
C423 C 0.58198 0.12332 0.75788 0.0
C424 C 0.52684 0.15987 0.76143 0.0
C425 C 0.56879 0.06889 0.74086 0.0
C426 C 0.53541 0.05952 0.73484 0.0
C427 C 0.48063 0.09459 0.73999 0.0
C428 C 0.45901 0.13975 0.74907 0.0
C429 C 0.51424 0.1044 0.74548 0.0
C430 C 0.47169 0.19493 0.76474 0.0
C431 C 0.50526 0.20479 0.77122 0.0
H432 H 0.19545 0.47904 0.92645 0.0
H433 H 0.11741 0.59742 0.94922 0.0
H434 H 0.12211 0.57221 0.04391 0.0
H435 H 0.1498 0.51979 0.12052 0.0
H436 H 0.22969 0.40506 0.09861 0.0
H437 H 0.2229 0.42593 0.00307 0.0
C438 C 0.17911 0.49864 0.95196 0.0
C439 C 0.15589 0.53963 0.93077 0.0
C440 C 0.18255 0.48517 0.00653 0.0
C441 C 0.13537 0.56556 0.96454 0.0
C442 C 0.13813 0.55132 0.01868 0.0
C443 C 0.16573 0.49917 0.09493 0.0
C444 C 0.19031 0.46101 0.11683 0.0
C445 C 0.1619 0.51177 0.04019 0.0
C446 C 0.21073 0.43489 0.08294 0.0
C447 C 0.20679 0.44663 0.02826 0.0
H448 H 0.81849 0.4683 0.39818 0.0
H449 H 0.91398 0.52475 0.36711 0.0
H450 H 0.92442 0.56383 0.45643 0.0
H451 H 0.90631 0.58509 0.54345 0.0
H452 H 0.81232 0.5252 0.57701 0.0
H453 H 0.8015 0.4848 0.48729 0.0
C454 C 0.84162 0.48876 0.4111 0.0
C455 C 0.86513 0.49382 0.37558 0.0
C456 C 0.84782 0.51098 0.46314 0.0
C457 C 0.89517 0.52026 0.39327 0.0
C458 C 0.90129 0.54294 0.44449 0.0
C459 C 0.88355 0.56311 0.5309 0.0
C460 C 0.86024 0.55769 0.56643 0.0
C461 C 0.87771 0.53914 0.4796 0.0
C462 C 0.83083 0.52891 0.55023 0.0
C463 C 0.82455 0.5061 0.49893 0.0
H464 H 0.89046 0.53288 0.87492 0.0
H465 H 0.81391 0.65362 0.90027 0.0
H466 H 0.81953 0.62823 0.99505 0.0
H467 H 0.84407 0.56775 0.06883 0.0
H468 H 0.91771 0.44191 0.04147 0.0
H469 H 0.91552 0.47377 0.94867 0.0
C470 C 0.87521 0.55417 0.90123 0.0
C471 C 0.85179 0.59505 0.88083 0.0
C472 C 0.87803 0.53836 0.95498 0.0
C473 C 0.83198 0.62178 0.91521 0.0
C474 C 0.83521 0.60735 0.96925 0.0
C475 C 0.85997 0.5479 0.0427 0.0
C476 C 0.88114 0.50285 0.0617 0.0
C477 C 0.85787 0.56516 0.98932 0.0
C478 C 0.90122 0.47669 0.02746 0.0
C479 C 0.89995 0.49482 0.97456 0.0
H480 H 0.20732 0.53163 0.43452 0.0
H481 H 0.12307 0.4228 0.44313 0.0
H482 H 0.12125 0.4513 0.53583 0.0
H483 H 0.14489 0.50349 0.61544 0.0
H484 H 0.23079 0.60856 0.6087 0.0
H485 H 0.23059 0.58525 0.51426 0.0
C486 C 0.18835 0.5147 0.45654 0.0
C487 C 0.16531 0.4753 0.43192 0.0
C488 C 0.18786 0.53027 0.51025 0.0
C489 C 0.14113 0.45311 0.46117 0.0
C490 C 0.14008 0.46936 0.5142 0.0
C491 C 0.16347 0.52166 0.59331 0.0
C492 C 0.18786 0.55762 0.61923 0.0
C493 C 0.16354 0.50734 0.53931 0.0
C494 C 0.21183 0.58048 0.58986 0.0
C495 C 0.21172 0.56725 0.53582 0.0
H496 H 0.64773 0.10838 0.9594 0.0
H497 H 0.7098 0.97543 0.90492 0.0
H498 H 0.71948 0.93566 0.99519 0.0
H499 H 0.71062 0.93984 0.09061 0.0
H500 H 0.6477 0.07339 0.14194 0.0
H501 H 0.63846 0.11195 0.05211 0.0
C502 C 0.66321 0.07045 0.96706 0.0
C503 C 0.67786 0.04485 0.92559 0.0
C504 C 0.6688 0.04812 0.01871 0.0
C505 C 0.69797 0.99577 0.93625 0.0
C506 C 0.7037 0.97317 0.98788 0.0
C507 C 0.69508 0.97747 0.08187 0.0
C508 C 0.67977 1.00347 0.12256 0.0
C509 C 0.68939 0.99927 0.02959 0.0
C510 C 0.6595 0.05212 0.11102 0.0
C511 C 0.65417 0.07437 0.05971 0.0
H512 H 0.34109 0.98101 0.57321 0.0
H513 H 0.4205 0.09743 0.55232 0.0
H514 H 0.41773 0.06979 0.45838 0.0
H515 H 0.39106 1.01623 0.38136 0.0
H516 H 0.30924 0.90481 0.40088 0.0
H517 H 0.31457 0.92695 0.49614 0.0
C518 C 0.35812 0.99961 0.54826 0.0
C519 C 0.38119 0.04077 0.56977 0.0
C520 C 0.3557 0.98491 0.49393 0.0
C521 C 0.40262 0.06548 0.53672 0.0
C522 C 0.40098 0.04983 0.48299 0.0
C523 C 0.37449 0.99648 0.40646 0.0
C524 C 0.34976 0.95891 0.38393 0.0
C525 C 0.37734 1.01019 0.46101 0.0
C526 C 0.32837 0.93413 0.41707 0.0
C527 C 0.33146 0.94663 0.4716 0.0
H528 H 0.33459 0.03413 0.06887 0.0
H529 H 0.41322 0.91441 0.05413 0.0
H530 H 0.41461 0.9442 0.96144 0.0
H531 H 0.39194 1.00095 0.88341 0.0
H532 H 0.31103 0.11611 0.89637 0.0
H533 H 0.31216 0.09158 0.99083 0.0
C534 C 0.35228 1.01508 0.04554 0.0
C535 C 0.37388 0.97233 0.0685 0.0
C536 C 0.35241 0.03137 0.99181 0.0
C537 C 0.39631 0.94737 0.03745 0.0
C538 C 0.39711 0.96437 0.98442 0.0
C539 C 0.37472 1.02112 0.90698 0.0
C540 C 0.35145 0.0604 0.88277 0.0
C541 C 0.37505 1.00585 0.961 0.0
C542 C 0.32911 0.08558 0.91388 0.0
C543 C 0.32976 0.07161 0.96794 0.0
H544 H 0.64687 0.03462 0.61875 0.0
H545 H 0.72218 0.15818 0.59208 0.0
H546 H 0.71655 0.13201 0.4975 0.0
H547 H 0.69231 0.07052 0.42443 0.0
H548 H 0.61967 0.94253 0.453 0.0
H549 H 0.62216 0.97443 0.54577 0.0
C550 C 0.66192 0.05638 0.5923 0.0
C551 C 0.68495 0.09834 0.61234 0.0
C552 C 0.65908 0.04021 0.5387 0.0
C553 C 0.70438 0.12564 0.57756 0.0
C554 C 0.70116 0.1107 0.52362 0.0
C555 C 0.67669 0.05008 0.45076 0.0
C556 C 0.65567 1.00448 0.43201 0.0
C557 C 0.67887 0.06756 0.50404 0.0
C558 C 0.63599 0.97773 0.46666 0.0
C559 C 0.63744 0.99591 0.51957 0.0
loop_
_geom_bond_atom_site_label_1
_geom_bond_atom_site_label_2
_geom_bond_distance
_geom_bond_site_symmetry_2
_ccdc_geom_bond_type
Fe0 O2 1.918 . S
Fe0 O5 1.997 . S
Fe0 O6 2.002 . S
Fe0 O11 1.976 . S
Fe0 O14 1.996 . S
Fe1 O2 1.918 . S
Fe1 O9 1.997 . S
Fe1 O12 1.996 . S
Fe1 O16 1.976 . S
Fe1 O19 2.002 . S
O2 Fe0 1.918 . S
O2 Fe1 1.918 . S
O2 Fe3 1.918 . S
Fe3 O2 1.918 . S
Fe3 O4 2.002 . S
Fe3 O13 1.976 . S
Fe3 O17 1.996 . S
Fe3 O20 1.997 . S
O4 Fe3 2.002 . S
O4 C21 1.295 . S
O5 Fe0 1.997 . S
O5 C21 1.235 . S
O6 Fe0 2.002 . S
O6 C7 1.295 . S
C7 O6 1.295 . S
C7 O9 1.235 . S
C8 O13 1.287 . S
C8 O14 1.255 . S
O9 Fe1 1.997 . S
O9 C7 1.235 . S
C10 O16 1.287 . S
C10 O17 1.255 . S
O11 Fe0 1.976 . S
O11 C18 1.287 . S
O12 Fe1 1.996 . S
O12 C18 1.255 . S
O13 Fe3 1.976 . S
O13 C8 1.287 . S
O14 Fe0 1.996 . S
O14 C8 1.255 . S
C15 O19 1.295 . S
C15 O20 1.235 . S
O16 Fe1 1.976 . S
O16 C10 1.287 . S
O17 Fe3 1.996 . S
O17 C10 1.255 . S
C18 O11 1.287 . S
C18 O12 1.255 . S
O19 Fe1 2.002 . S
O19 C15 1.295 . S
O20 Fe3 1.997 . S
O20 C15 1.235 . S
C21 O4 1.295 . S
C21 O5 1.235 . S
Fe22 O24 1.918 . S
Fe22 O27 1.997 . S
Fe22 O28 2.002 . S
Fe22 O33 1.976 . S
Fe22 O36 1.996 . S
Fe23 O24 1.918 . S
Fe23 O31 1.997 . S
Fe23 O34 1.996 . S
Fe23 O38 1.976 . S
Fe23 O41 2.002 . S
O24 Fe22 1.918 . S
O24 Fe23 1.918 . S
O24 Fe25 1.918 . S
Fe25 O24 1.918 . S
Fe25 O26 2.002 . S
Fe25 O35 1.976 . S
Fe25 O39 1.996 . S
Fe25 O42 1.997 . S
O26 Fe25 2.002 . S
O26 C43 1.295 . S
O27 Fe22 1.997 . S
O27 C43 1.235 . S
O28 Fe22 2.002 . S
O28 C29 1.295 . S
C29 O28 1.295 . S
C29 O31 1.235 . S
C30 O35 1.287 . S
C30 O36 1.255 . S
O31 Fe23 1.997 . S
O31 C29 1.235 . S
C32 O38 1.287 . S
C32 O39 1.255 . S
O33 Fe22 1.976 . S
O33 C40 1.287 . S
O34 Fe23 1.996 . S
O34 C40 1.255 . S
O35 Fe25 1.976 . S
O35 C30 1.287 . S
O36 Fe22 1.996 . S
O36 C30 1.255 . S
C37 O41 1.295 . S
C37 O42 1.235 . S
O38 Fe23 1.976 . S
O38 C32 1.287 . S
O39 Fe25 1.996 . S
O39 C32 1.255 . S
C40 O33 1.287 . S
C40 O34 1.255 . S
O41 Fe23 2.002 . S
O41 C37 1.295 . S
O42 Fe25 1.997 . S
O42 C37 1.235 . S
C43 O26 1.295 . S
C43 O27 1.235 . S
Fe44 O46 1.918 . S
Fe44 O49 1.997 . S
Fe44 O50 2.002 . S
Fe44 O55 1.976 . S
Fe44 O58 1.996 . S
Fe45 O46 1.918 . S
Fe45 O53 1.997 . S
Fe45 O56 1.996 . S
Fe45 O60 1.976 . S
Fe45 O63 2.002 . S
O46 Fe44 1.918 . S
O46 Fe45 1.918 . S
O46 Fe47 1.918 . S
Fe47 O46 1.918 . S
Fe47 O48 2.002 . S
Fe47 O57 1.976 . S
Fe47 O61 1.996 . S
Fe47 O64 1.997 . S
O48 Fe47 2.002 . S
O48 C65 1.295 . S
O49 Fe44 1.997 . S
O49 C65 1.235 . S
O50 Fe44 2.002 . S
O50 C51 1.295 . S
C51 O50 1.295 . S
C51 O53 1.235 . S
C52 O57 1.287 . S
C52 O58 1.255 . S
O53 Fe45 1.997 . S
O53 C51 1.235 . S
C54 O60 1.287 . S
C54 O61 1.255 . S
O55 Fe44 1.976 . S
O55 C62 1.287 . S
O56 Fe45 1.996 . S
O56 C62 1.255 . S
O57 Fe47 1.976 . S
O57 C52 1.287 . S
O58 Fe44 1.996 . S
O58 C52 1.255 . S
C59 O63 1.295 . S
C59 O64 1.235 . S
O60 Fe45 1.976 . S
O60 C54 1.287 . S
O61 Fe47 1.996 . S
O61 C54 1.255 . S
C62 O55 1.287 . S
C62 O56 1.255 . S
O63 Fe45 2.002 . S
O63 C59 1.295 . S
O64 Fe47 1.997 . S
O64 C59 1.235 . S
C65 O48 1.295 . S
C65 O49 1.235 . S
Fe66 O68 1.918 . S
Fe66 O71 1.997 . S
Fe66 O72 2.002 . S
Fe66 O77 1.976 . S
Fe66 O80 1.996 . S
Fe67 O68 1.918 . S
Fe67 O75 1.997 . S
Fe67 O78 1.996 . S
Fe67 O82 1.976 . S
Fe67 O85 2.002 . S
O68 Fe66 1.918 . S
O68 Fe67 1.918 . S
O68 Fe69 1.918 . S
Fe69 O68 1.918 . S
Fe69 O70 2.002 . S
Fe69 O79 1.976 . S
Fe69 O83 1.996 . S
Fe69 O86 1.997 . S
O70 Fe69 2.002 . S
O70 C87 1.295 . S
O71 Fe66 1.997 . S
O71 C87 1.235 . S
O72 Fe66 2.002 . S
O72 C73 1.295 . S
C73 O72 1.295 . S
C73 O75 1.235 . S
C74 O79 1.287 . S
C74 O80 1.255 . S
O75 Fe67 1.997 . S
O75 C73 1.235 . S
C76 O82 1.287 . S
C76 O83 1.255 . S
O77 Fe66 1.976 . S
O77 C84 1.287 . S
O78 Fe67 1.996 . S
O78 C84 1.255 . S
O79 Fe69 1.976 . S
O79 C74 1.287 . S
O80 Fe66 1.996 . S
O80 C74 1.255 . S
C81 O85 1.295 . S
C81 O86 1.235 . S
O82 Fe67 1.976 . S
O82 C76 1.287 . S
O83 Fe69 1.996 . S
O83 C76 1.255 . S
C84 O77 1.287 . S
C84 O78 1.255 . S
O85 Fe67 2.002 . S
O85 C81 1.295 . S
O86 Fe69 1.997 . S
O86 C81 1.235 . S
C87 O70 1.295 . S
C87 O71 1.235 . S
Fe88 O90 1.918 . S
Fe88 O93 1.997 . S
Fe88 O94 2.002 . S
Fe88 O99 1.976 . S
Fe88 O102 1.996 . S
Fe89 O90 1.918 . S
Fe89 O97 1.997 . S
Fe89 O100 1.996 . S
Fe89 O104 1.976 . S
Fe89 O107 2.002 . S
O90 Fe88 1.918 . S
O90 Fe89 1.918 . S
O90 Fe91 1.918 . S
Fe91 O90 1.918 . S
Fe91 O92 2.002 . S
Fe91 O101 1.976 . S
Fe91 O105 1.996 . S
Fe91 O108 1.997 . S
O92 Fe91 2.002 . S
O92 C109 1.295 . S
O93 Fe88 1.997 . S
O93 C109 1.235 . S
O94 Fe88 2.002 . S
O94 C95 1.295 . S
C95 O94 1.295 . S
C95 O97 1.235 . S
C96 O101 1.287 . S
C96 O102 1.255 . S
O97 Fe89 1.997 . S
O97 C95 1.235 . S
C98 O104 1.287 . S
C98 O105 1.255 . S
O99 Fe88 1.976 . S
O99 C106 1.287 . S
O100 Fe89 1.996 . S
O100 C106 1.255 . S
O101 Fe91 1.976 . S
O101 C96 1.287 . S
O102 Fe88 1.996 . S
O102 C96 1.255 . S
C103 O107 1.295 . S
C103 O108 1.235 . S
O104 Fe89 1.976 . S
O104 C98 1.287 . S
O105 Fe91 1.996 . S
O105 C98 1.255 . S
C106 O99 1.287 . S
C106 O100 1.255 . S
O107 Fe89 2.002 . S
O107 C103 1.295 . S
O108 Fe91 1.997 . S
O108 C103 1.235 . S
C109 O92 1.295 . S
C109 O93 1.235 . S
Fe110 O112 1.918 . S
Fe110 O115 1.997 . S
Fe110 O116 2.002 . S
Fe110 O121 1.976 . S
Fe110 O124 1.996 . S
Fe111 O112 1.918 . S
Fe111 O119 1.997 . S
Fe111 O122 1.996 . S
Fe111 O126 1.976 . S
Fe111 O129 2.002 . S
O112 Fe110 1.918 . S
O112 Fe111 1.918 . S
O112 Fe113 1.918 . S
Fe113 O112 1.918 . S
Fe113 O114 2.002 . S
Fe113 O123 1.976 . S
Fe113 O127 1.996 . S
Fe113 O130 1.997 . S
O114 Fe113 2.002 . S
O114 C131 1.295 . S
O115 Fe110 1.997 . S
O115 C131 1.235 . S
O116 Fe110 2.002 . S
O116 C117 1.295 . S
C117 O116 1.295 . S
C117 O119 1.235 . S
C118 O123 1.287 . S
C118 O124 1.255 . S
O119 Fe111 1.997 . S
O119 C117 1.235 . S
C120 O126 1.287 . S
C120 O127 1.255 . S
O121 Fe110 1.976 . S
O121 C128 1.287 . S
O122 Fe111 1.996 . S
O122 C128 1.255 . S
O123 Fe113 1.976 . S
O123 C118 1.287 . S
O124 Fe110 1.996 . S
O124 C118 1.255 . S
C125 O129 1.295 . S
C125 O130 1.235 . S
O126 Fe111 1.976 . S
O126 C120 1.287 . S
O127 Fe113 1.996 . S
O127 C120 1.255 . S
C128 O121 1.287 . S
C128 O122 1.255 . S
O129 Fe111 2.002 . S
O129 C125 1.295 . S
O130 Fe113 1.997 . S
O130 C125 1.235 . S
C131 O114 1.295 . S
C131 O115 1.235 . S
Fe132 O134 1.918 . S
Fe132 O137 1.997 . S
Fe132 O138 2.002 . S
Fe132 O143 1.976 . S
Fe132 O146 1.996 . S
Fe133 O134 1.918 . S
Fe133 O141 1.997 . S
Fe133 O144 1.996 . S
Fe133 O148 1.976 . S
Fe133 O151 2.002 . S
O134 Fe132 1.918 . S
O134 Fe133 1.918 . S
O134 Fe135 1.918 . S
Fe135 O134 1.918 . S
Fe135 O136 2.002 . S
Fe135 O145 1.976 . S
Fe135 O149 1.996 . S
Fe135 O152 1.997 . S
O136 Fe135 2.002 . S
O136 C153 1.295 . S
O137 Fe132 1.997 . S
O137 C153 1.235 . S
O138 Fe132 2.002 . S
O138 C139 1.295 . S
C139 O138 1.295 . S
C139 O141 1.235 . S
C140 O145 1.287 . S
C140 O146 1.255 . S
O141 Fe133 1.997 . S
O141 C139 1.235 . S
C142 O148 1.287 . S
C142 O149 1.255 . S
O143 Fe132 1.976 . S
O143 C150 1.287 . S
O144 Fe133 1.996 . S
O144 C150 1.255 . S
O145 Fe135 1.976 . S
O145 C140 1.287 . S
O146 Fe132 1.996 . S
O146 C140 1.255 . S
C147 O151 1.295 . S
C147 O152 1.235 . S
O148 Fe133 1.976 . S
O148 C142 1.287 . S
O149 Fe135 1.996 . S
O149 C142 1.255 . S
C150 O143 1.287 . S
C150 O144 1.255 . S
O151 Fe133 2.002 . S
O151 C147 1.295 . S
O152 Fe135 1.997 . S
O152 C147 1.235 . S
C153 O136 1.295 . S
C153 O137 1.235 . S
Fe154 O156 1.918 . S
Fe154 O159 1.997 . S
Fe154 O160 2.002 . S
Fe154 O165 1.976 . S
Fe154 O168 1.996 . S
Fe155 O156 1.918 . S
Fe155 O163 1.997 . S
Fe155 O166 1.996 . S
Fe155 O170 1.976 . S
Fe155 O173 2.002 . S
O156 Fe154 1.918 . S
O156 Fe155 1.918 . S
O156 Fe157 1.918 . S
Fe157 O156 1.918 . S
Fe157 O158 2.002 . S
Fe157 O167 1.976 . S
Fe157 O171 1.996 . S
Fe157 O174 1.997 . S
O158 Fe157 2.002 . S
O158 C175 1.295 . S
O159 Fe154 1.997 . S
O159 C175 1.235 . S
O160 Fe154 2.002 . S
O160 C161 1.295 . S
C161 O160 1.295 . S
C161 O163 1.235 . S
C162 O167 1.287 . S
C162 O168 1.255 . S
O163 Fe155 1.997 . S
O163 C161 1.235 . S
C164 O170 1.287 . S
C164 O171 1.255 . S
O165 Fe154 1.976 . S
O165 C172 1.287 . S
O166 Fe155 1.996 . S
O166 C172 1.255 . S
O167 Fe157 1.976 . S
O167 C162 1.287 . S
O168 Fe154 1.996 . S
O168 C162 1.255 . S
C169 O173 1.295 . S
C169 O174 1.235 . S
O170 Fe155 1.976 . S
O170 C164 1.287 . S
O171 Fe157 1.996 . S
O171 C164 1.255 . S
C172 O165 1.287 . S
C172 O166 1.255 . S
O173 Fe155 2.002 . S
O173 C169 1.295 . S
O174 Fe157 1.997 . S
O174 C169 1.235 . S
C175 O158 1.295 . S
C175 O159 1.235 . S
H176 C182 0.930 . S
H177 C185 0.930 . S
H178 C186 0.930 . S
H179 C187 0.930 . S
H180 C190 0.930 . S
H181 C191 0.930 . S
C182 H176 0.930 . S
C182 C183 1.355 . S
C182 C184 1.415 . S
C183 C182 1.355 . S
C183 C185 1.419 . S
C184 C182 1.415 . S
C184 C189 1.425 . S
C184 C191 1.409 . S
C185 H177 0.930 . S
C185 C183 1.419 . S
C185 C186 1.362 . S
C186 H178 0.930 . S
C186 C185 1.362 . S
C186 C189 1.409 . S
C187 H179 0.930 . S
C187 C188 1.355 . S
C187 C189 1.415 . S
C188 C187 1.355 . S
C188 C190 1.419 . S
C189 C184 1.425 . S
C189 C186 1.409 . S
C189 C187 1.415 . S
C190 H180 0.930 . S
C190 C188 1.419 . S
C190 C191 1.362 . S
C191 H181 0.930 . S
C191 C184 1.409 . S
C191 C190 1.362 . S
H192 C198 0.930 . S
H193 C201 0.930 . S
H194 C202 0.930 . S
H195 C203 0.930 . S
H196 C206 0.930 . S
H197 C207 0.930 . S
C198 H192 0.930 . S
C198 C199 1.355 . S
C198 C200 1.415 . S
C199 C198 1.355 . S
C199 C201 1.419 . S
C200 C198 1.415 . S
C200 C205 1.425 1_556 S
C200 C207 1.409 . S
C201 H193 0.930 . S
C201 C199 1.419 . S
C201 C202 1.362 1_556 S
C202 H194 0.930 . S
C202 C201 1.362 1_554 S
C202 C205 1.409 . S
C203 H195 0.930 . S
C203 C204 1.355 . S
C203 C205 1.415 . S
C204 C203 1.355 . S
C204 C206 1.419 . S
C205 C200 1.425 1_554 S
C205 C202 1.409 . S
C205 C203 1.415 . S
C206 H196 0.930 . S
C206 C204 1.419 . S
C206 C207 1.362 1_554 S
C207 H197 0.930 . S
C207 C200 1.409 . S
C207 C206 1.362 1_556 S
H208 C214 0.930 . S
H209 C217 0.930 . S
H210 C218 0.930 . S
H211 C219 0.930 . S
H212 C222 0.930 . S
H213 C223 0.930 . S
C214 H208 0.930 . S
C214 C215 1.355 . S
C214 C216 1.415 . S
C215 C214 1.355 . S
C215 C217 1.419 . S
C216 C214 1.415 . S
C216 C221 1.425 . S
C216 C223 1.409 . S
C217 H209 0.930 . S
C217 C215 1.419 . S
C217 C218 1.362 . S
C218 H210 0.930 . S
C218 C217 1.362 . S
C218 C221 1.409 . S
C219 H211 0.930 . S
C219 C220 1.355 . S
C219 C221 1.415 . S
C220 C219 1.355 . S
C220 C222 1.419 . S
C221 C216 1.425 . S
C221 C218 1.409 . S
C221 C219 1.415 . S
C222 H212 0.930 . S
C222 C220 1.419 . S
C222 C223 1.362 . S
C223 H213 0.930 . S
C223 C216 1.409 . S
C223 C222 1.362 . S
H224 C230 0.930 . S
H225 C233 0.930 . S
H226 C234 0.930 . S
H227 C235 0.930 . S
H228 C238 0.930 . S
H229 C239 0.930 . S
C230 H224 0.930 . S
C230 C231 1.355 . S
C230 C232 1.415 1_554 S
C231 C230 1.355 . S
C231 C233 1.419 . S
C232 C230 1.415 1_556 S
C232 C237 1.425 1_556 S
C232 C239 1.409 . S
C233 H225 0.930 . S
C233 C231 1.419 . S
C233 C234 1.362 . S
C234 H226 0.930 . S
C234 C233 1.362 . S
C234 C237 1.409 . S
C235 H227 0.930 . S
C235 C236 1.355 . S
C235 C237 1.415 1_556 S
C236 C235 1.355 . S
C236 C238 1.419 . S
C237 C232 1.425 1_554 S
C237 C234 1.409 . S
C237 C235 1.415 1_554 S
C238 H228 0.930 . S
C238 C236 1.419 . S
C238 C239 1.362 . S
C239 H229 0.930 . S
C239 C232 1.409 . S
C239 C238 1.362 . S
H240 C246 0.930 . S
H241 C249 0.930 1_565 S
H242 C250 0.930 . S
H243 C251 0.930 . S
H244 C254 0.930 . S
H245 C255 0.930 . S
C246 H240 0.930 . S
C246 C247 1.355 . S
C246 C248 1.415 . S
C247 C246 1.355 . S
C247 C249 1.419 . S
C248 C246 1.415 . S
C248 C253 1.425 . S
C248 C255 1.409 . S
C249 H241 0.930 1_545 S
C249 C247 1.419 . S
C249 C250 1.362 . S
C250 H242 0.930 . S
C250 C249 1.362 . S
C250 C253 1.409 . S
C251 H243 0.930 . S
C251 C252 1.355 . S
C251 C253 1.415 . S
C252 C251 1.355 . S
C252 C254 1.419 . S
C253 C248 1.425 . S
C253 C250 1.409 . S
C253 C251 1.415 . S
C254 H244 0.930 . S
C254 C252 1.419 . S
C254 C255 1.362 . S
C255 H245 0.930 . S
C255 C248 1.409 . S
C255 C254 1.362 . S
H256 C262 0.930 . S
H257 C265 0.930 . S
H258 C266 0.930 . S
H259 C267 0.930 . S
H260 C270 0.930 . S
H261 C271 0.930 . S
C262 H256 0.930 . S
C262 C263 1.355 . S
C262 C264 1.415 . S
C263 C262 1.355 . S
C263 C265 1.419 . S
C264 C262 1.415 . S
C264 C269 1.425 . S
C264 C271 1.409 . S
C265 H257 0.930 . S
C265 C263 1.419 . S
C265 C266 1.362 . S
C266 H258 0.930 . S
C266 C265 1.362 . S
C266 C269 1.409 . S
C267 H259 0.930 . S
C267 C268 1.355 . S
C267 C269 1.415 . S
C268 C267 1.355 . S
C268 C270 1.419 . S
C269 C264 1.425 . S
C269 C266 1.409 . S
C269 C267 1.415 . S
C270 H260 0.930 . S
C270 C268 1.419 . S
C270 C271 1.362 . S
C271 H261 0.930 . S
C271 C264 1.409 . S
C271 C270 1.362 . S
H272 C278 0.930 . S
H273 C281 0.930 . S
H274 C282 0.930 . S
H275 C283 0.930 . S
H276 C286 0.930 1_545 S
H277 C287 0.930 . S
C278 H272 0.930 . S
C278 C279 1.355 . S
C278 C280 1.415 . S
C279 C278 1.355 . S
C279 C281 1.419 . S
C280 C278 1.415 . S
C280 C285 1.425 . S
C280 C287 1.409 . S
C281 H273 0.930 . S
C281 C279 1.419 . S
C281 C282 1.362 . S
C282 H274 0.930 . S
C282 C281 1.362 . S
C282 C285 1.409 . S
C283 H275 0.930 . S
C283 C284 1.355 . S
C283 C285 1.415 . S
C284 C283 1.355 . S
C284 C286 1.419 . S
C285 C280 1.425 . S
C285 C282 1.409 . S
C285 C283 1.415 . S
C286 H276 0.930 1_565 S
C286 C284 1.419 . S
C286 C287 1.362 . S
C287 H277 0.930 . S
C287 C280 1.409 . S
C287 C286 1.362 . S
H288 C294 0.930 . S
H289 C297 0.930 . S
H290 C298 0.930 . S
H291 C299 0.930 . S
H292 C302 0.930 . S
H293 C303 0.930 . S
C294 H288 0.930 . S
C294 C295 1.355 . S
C294 C296 1.415 . S
C295 C294 1.355 . S
C295 C297 1.419 . S
C296 C294 1.415 . S
C296 C301 1.425 . S
C296 C303 1.409 . S
C297 H289 0.930 . S
C297 C295 1.419 . S
C297 C298 1.362 . S
C298 H290 0.930 . S
C298 C297 1.362 . S
C298 C301 1.409 . S
C299 H291 0.930 . S
C299 C300 1.355 . S
C299 C301 1.415 . S
C300 C299 1.355 . S
C300 C302 1.419 . S
C301 C296 1.425 . S
C301 C298 1.409 . S
C301 C299 1.415 . S
C302 H292 0.930 . S
C302 C300 1.419 . S
C302 C303 1.362 . S
C303 H293 0.930 . S
C303 C296 1.409 . S
C303 C302 1.362 . S
H304 C310 0.930 . S
H305 C313 0.930 . S
H306 C314 0.930 . S
H307 C315 0.930 . S
H308 C318 0.930 . S
H309 C319 0.930 . S
C310 H304 0.930 . S
C310 C311 1.355 . S
C310 C312 1.415 . S
C311 C310 1.355 . S
C311 C313 1.419 . S
C312 C310 1.415 . S
C312 C317 1.425 . S
C312 C319 1.409 . S
C313 H305 0.930 . S
C313 C311 1.419 . S
C313 C314 1.362 . S
C314 H306 0.930 . S
C314 C313 1.362 . S
C314 C317 1.409 . S
C315 H307 0.930 . S
C315 C316 1.355 . S
C315 C317 1.415 . S
C316 C315 1.355 . S
C316 C318 1.419 . S
C317 C312 1.425 . S
C317 C314 1.409 . S
C317 C315 1.415 . S
C318 H308 0.930 . S
C318 C316 1.419 . S
C318 C319 1.362 . S
C319 H309 0.930 . S
C319 C312 1.409 . S
C319 C318 1.362 . S
H320 C326 0.930 . S
H321 C329 0.930 . S
H322 C330 0.930 . S
H323 C331 0.930 . S
H324 C334 0.930 . S
H325 C335 0.930 . S
C326 H320 0.930 . S
C326 C327 1.355 . S
C326 C328 1.415 . S
C327 C326 1.355 . S
C327 C329 1.419 . S
C328 C326 1.415 . S
C328 C333 1.425 . S
C328 C335 1.409 . S
C329 H321 0.930 . S
C329 C327 1.419 . S
C329 C330 1.362 . S
C330 H322 0.930 . S
C330 C329 1.362 . S
C330 C333 1.409 . S
C331 H323 0.930 . S
C331 C332 1.355 . S
C331 C333 1.415 . S
C332 C331 1.355 . S
C332 C334 1.419 . S
C333 C328 1.425 . S
C333 C330 1.409 . S
C333 C331 1.415 . S
C334 H324 0.930 . S
C334 C332 1.419 . S
C334 C335 1.362 . S
C335 H325 0.930 . S
C335 C328 1.409 . S
C335 C334 1.362 . S
H336 C342 0.930 . S
H337 C345 0.930 . S
H338 C346 0.930 . S
H339 C347 0.930 . S
H340 C350 0.930 . S
H341 C351 0.930 . S
C342 H336 0.930 . S
C342 C343 1.355 . S
C342 C344 1.415 . S
C343 C342 1.355 . S
C343 C345 1.419 . S
C344 C342 1.415 . S
C344 C349 1.425 . S
C344 C351 1.409 . S
C345 H337 0.930 . S
C345 C343 1.419 . S
C345 C346 1.362 . S
C346 H338 0.930 . S
C346 C345 1.362 . S
C346 C349 1.409 . S
C347 H339 0.930 . S
C347 C348 1.355 . S
C347 C349 1.415 . S
C348 C347 1.355 . S
C348 C350 1.419 . S
C349 C344 1.425 . S
C349 C346 1.409 . S
C349 C347 1.415 . S
C350 H340 0.930 . S
C350 C348 1.419 . S
C350 C351 1.362 . S
C351 H341 0.930 . S
C351 C344 1.409 . S
C351 C350 1.362 . S
H352 C358 0.930 . S
H353 C361 0.930 . S
H354 C362 0.930 . S
H355 C363 0.930 . S
H356 C366 0.930 . S
H357 C367 0.930 . S
C358 H352 0.930 . S
C358 C359 1.355 . S
C358 C360 1.415 . S
C359 C358 1.355 . S
C359 C361 1.419 . S
C360 C358 1.415 . S
C360 C365 1.425 . S
C360 C367 1.409 . S
C361 H353 0.930 . S
C361 C359 1.419 . S
C361 C362 1.362 . S
C362 H354 0.930 . S
C362 C361 1.362 . S
C362 C365 1.409 . S
C363 H355 0.930 . S
C363 C364 1.355 . S
C363 C365 1.415 . S
C364 C363 1.355 . S
C364 C366 1.419 . S
C365 C360 1.425 . S
C365 C362 1.409 . S
C365 C363 1.415 . S
C366 H356 0.930 . S
C366 C364 1.419 . S
C366 C367 1.362 . S
C367 H357 0.930 . S
C367 C360 1.409 . S
C367 C366 1.362 . S
H368 C374 0.930 . S
H369 C377 0.930 . S
H370 C378 0.930 . S
H371 C379 0.930 . S
H372 C382 0.930 . S
H373 C383 0.930 . S
C374 H368 0.930 . S
C374 C375 1.355 . S
C374 C376 1.415 . S
C375 C374 1.355 . S
C375 C377 1.419 . S
C376 C374 1.415 . S
C376 C381 1.425 1_455 S
C376 C383 1.409 1_455 S
C377 H369 0.930 . S
C377 C375 1.419 . S
C377 C378 1.362 . S
C378 H370 0.930 . S
C378 C377 1.362 . S
C378 C381 1.409 1_455 S
C379 H371 0.930 . S
C379 C380 1.355 . S
C379 C381 1.415 . S
C380 C379 1.355 . S
C380 C382 1.419 . S
C381 C376 1.425 1_655 S
C381 C378 1.409 1_655 S
C381 C379 1.415 . S
C382 H372 0.930 . S
C382 C380 1.419 . S
C382 C383 1.362 . S
C383 H373 0.930 . S
C383 C376 1.409 1_655 S
C383 C382 1.362 . S
H384 C390 0.930 . S
H385 C393 0.930 . S
H386 C394 0.930 . S
H387 C395 0.930 . S
H388 C398 0.930 . S
H389 C399 0.930 . S
C390 H384 0.930 . S
C390 C391 1.355 . S
C390 C392 1.415 . S
C391 C390 1.355 . S
C391 C393 1.419 . S
C392 C390 1.415 . S
C392 C397 1.425 1_455 S
C392 C399 1.409 1_455 S
C393 H385 0.930 . S
C393 C391 1.419 . S
C393 C394 1.362 . S
C394 H386 0.930 . S
C394 C393 1.362 . S
C394 C397 1.409 1_455 S
C395 H387 0.930 . S
C395 C396 1.355 . S
C395 C397 1.415 . S
C396 C395 1.355 . S
C396 C398 1.419 . S
C397 C392 1.425 1_655 S
C397 C394 1.409 1_655 S
C397 C395 1.415 . S
C398 H388 0.930 . S
C398 C396 1.419 . S
C398 C399 1.362 . S
C399 H389 0.930 . S
C399 C392 1.409 1_655 S
C399 C398 1.362 . S
H400 C406 0.930 . S
H401 C409 0.930 . S
H402 C410 0.930 . S
H403 C411 0.930 . S
H404 C414 0.930 . S
H405 C415 0.930 . S
C406 H400 0.930 . S
C406 C407 1.355 . S
C406 C408 1.415 . S
C407 C406 1.355 . S
C407 C409 1.419 . S
C408 C406 1.415 . S
C408 C413 1.425 . S
C408 C415 1.409 . S
C409 H401 0.930 . S
C409 C407 1.419 . S
C409 C410 1.362 . S
C410 H402 0.930 . S
C410 C409 1.362 . S
C410 C413 1.409 . S
C411 H403 0.930 . S
C411 C412 1.355 . S
C411 C413 1.415 . S
C412 C411 1.355 . S
C412 C414 1.419 . S
C413 C408 1.425 . S
C413 C410 1.409 . S
C413 C411 1.415 . S
C414 H404 0.930 . S
C414 C412 1.419 . S
C414 C415 1.362 . S
C415 H405 0.930 . S
C415 C408 1.409 . S
C415 C414 1.362 . S
H416 C422 0.930 . S
H417 C425 0.930 . S
H418 C426 0.930 . S
H419 C427 0.930 . S
H420 C430 0.930 . S
H421 C431 0.930 . S
C422 H416 0.930 . S
C422 C423 1.355 . S
C422 C424 1.415 . S
C423 C422 1.355 . S
C423 C425 1.419 . S
C424 C422 1.415 . S
C424 C429 1.425 . S
C424 C431 1.409 . S
C425 H417 0.930 . S
C425 C423 1.419 . S
C425 C426 1.362 . S
C426 H418 0.930 . S
C426 C425 1.362 . S
C426 C429 1.409 . S
C427 H419 0.930 . S
C427 C428 1.355 . S
C427 C429 1.415 . S
C428 C427 1.355 . S
C428 C430 1.419 . S
C429 C424 1.425 . S
C429 C426 1.409 . S
C429 C427 1.415 . S
C430 H420 0.930 . S
C430 C428 1.419 . S
C430 C431 1.362 . S
C431 H421 0.930 . S
C431 C424 1.409 . S
C431 C430 1.362 . S
H432 C438 0.930 . S
H433 C441 0.930 . S
H434 C442 0.930 . S
H435 C443 0.930 . S
H436 C446 0.930 . S
H437 C447 0.930 1_556 S
C438 H432 0.930 . S
C438 C439 1.355 . S
C438 C440 1.415 1_556 S
C439 C438 1.355 . S
C439 C441 1.419 . S
C440 C438 1.415 1_554 S
C440 C445 1.425 . S
C440 C447 1.409 . S
C441 H433 0.930 . S
C441 C439 1.419 . S
C441 C442 1.362 1_556 S
C442 H434 0.930 . S
C442 C441 1.362 1_554 S
C442 C445 1.409 . S
C443 H435 0.930 . S
C443 C444 1.355 . S
C443 C445 1.415 . S
C444 C443 1.355 . S
C444 C446 1.419 . S
C445 C440 1.425 . S
C445 C442 1.409 . S
C445 C443 1.415 . S
C446 H436 0.930 . S
C446 C444 1.419 . S
C446 C447 1.362 . S
C447 H437 0.930 1_554 S
C447 C440 1.409 . S
C447 C446 1.362 . S
H448 C454 0.930 . S
H449 C457 0.930 . S
H450 C458 0.930 . S
H451 C459 0.930 . S
H452 C462 0.930 . S
H453 C463 0.930 . S
C454 H448 0.930 . S
C454 C455 1.355 . S
C454 C456 1.415 . S
C455 C454 1.355 . S
C455 C457 1.419 . S
C456 C454 1.415 . S
C456 C461 1.425 . S
C456 C463 1.409 . S
C457 H449 0.930 . S
C457 C455 1.419 . S
C457 C458 1.362 . S
C458 H450 0.930 . S
C458 C457 1.362 . S
C458 C461 1.409 . S
C459 H451 0.930 . S
C459 C460 1.355 . S
C459 C461 1.415 . S
C460 C459 1.355 . S
C460 C462 1.419 . S
C461 C456 1.425 . S
C461 C458 1.409 . S
C461 C459 1.415 . S
C462 H452 0.930 . S
C462 C460 1.419 . S
C462 C463 1.362 . S
C463 H453 0.930 . S
C463 C456 1.409 . S
C463 C462 1.362 . S
H464 C470 0.930 . S
H465 C473 0.930 . S
H466 C474 0.930 . S
H467 C475 0.930 . S
H468 C478 0.930 . S
H469 C479 0.930 . S
C470 H464 0.930 . S
C470 C471 1.355 . S
C470 C472 1.415 . S
C471 C470 1.355 . S
C471 C473 1.419 . S
C472 C470 1.415 . S
C472 C477 1.425 . S
C472 C479 1.409 . S
C473 H465 0.930 . S
C473 C471 1.419 . S
C473 C474 1.362 . S
C474 H466 0.930 . S
C474 C473 1.362 . S
C474 C477 1.409 . S
C475 H467 0.930 . S
C475 C476 1.355 . S
C475 C477 1.415 1_554 S
C476 C475 1.355 . S
C476 C478 1.419 . S
C477 C472 1.425 . S
C477 C474 1.409 . S
C477 C475 1.415 1_556 S
C478 H468 0.930 . S
C478 C476 1.419 . S
C478 C479 1.362 1_554 S
C479 H469 0.930 . S
C479 C472 1.409 . S
C479 C478 1.362 1_556 S
H480 C486 0.930 . S
H481 C489 0.930 . S
H482 C490 0.930 . S
H483 C491 0.930 . S
H484 C494 0.930 . S
H485 C495 0.930 . S
C486 H480 0.930 . S
C486 C487 1.355 . S
C486 C488 1.415 . S
C487 C486 1.355 . S
C487 C489 1.419 . S
C488 C486 1.415 . S
C488 C493 1.425 . S
C488 C495 1.409 . S
C489 H481 0.930 . S
C489 C487 1.419 . S
C489 C490 1.362 . S
C490 H482 0.930 . S
C490 C489 1.362 . S
C490 C493 1.409 . S
C491 H483 0.930 . S
C491 C492 1.355 . S
C491 C493 1.415 . S
C492 C491 1.355 . S
C492 C494 1.419 . S
C493 C488 1.425 . S
C493 C490 1.409 . S
C493 C491 1.415 . S
C494 H484 0.930 . S
C494 C492 1.419 . S
C494 C495 1.362 . S
C495 H485 0.930 . S
C495 C488 1.409 . S
C495 C494 1.362 . S
H496 C502 0.930 . S
H497 C505 0.930 . S
H498 C506 0.930 . S
H499 C507 0.930 . S
H500 C510 0.930 . S
H501 C511 0.930 1_545 S
C502 H496 0.930 . S
C502 C503 1.355 . S
C502 C504 1.415 1_556 S
C503 C502 1.355 . S
C503 C505 1.419 . S
C504 C502 1.415 1_554 S
C504 C509 1.425 1_545 S
C504 C511 1.409 1_545 S
C505 H497 0.930 . S
C505 C503 1.419 . S
C505 C506 1.362 1_545 S
C506 H498 0.930 . S
C506 C505 1.362 1_565 S
C506 C509 1.409 1_556 S
C507 H499 0.930 . S
C507 C508 1.355 . S
C507 C509 1.415 . S
C508 C507 1.355 . S
C508 C510 1.419 . S
C509 C504 1.425 1_565 S
C509 C506 1.409 1_554 S
C509 C507 1.415 . S
C510 H500 0.930 . S
C510 C508 1.419 . S
C510 C511 1.362 . S
C511 H501 0.930 1_565 S
C511 C504 1.409 1_565 S
C511 C510 1.362 . S
H512 C518 0.930 . S
H513 C521 0.930 . S
H514 C522 0.930 . S
H515 C523 0.930 1_545 S
H516 C526 0.930 . S
H517 C527 0.930 . S
C518 H512 0.930 . S
C518 C519 1.355 1_565 S
C518 C520 1.415 . S
C519 C518 1.355 1_545 S
C519 C521 1.419 . S
C520 C518 1.415 . S
C520 C525 1.425 1_565 S
C520 C527 1.409 . S
C521 H513 0.930 . S
C521 C519 1.419 . S
C521 C522 1.362 . S
C522 H514 0.930 . S
C522 C521 1.362 . S
C522 C525 1.409 . S
C523 H515 0.930 1_565 S
C523 C524 1.355 . S
C523 C525 1.415 1_565 S
C524 C523 1.355 . S
C524 C526 1.419 . S
C525 C520 1.425 1_545 S
C525 C522 1.409 . S
C525 C523 1.415 1_545 S
C526 H516 0.930 . S
C526 C524 1.419 . S
C526 C527 1.362 . S
C527 H517 0.930 . S
C527 C520 1.409 . S
C527 C526 1.362 . S
H528 C534 0.930 . S
H529 C537 0.930 . S
H530 C538 0.930 . S
H531 C539 0.930 1_565 S
H532 C542 0.930 . S
H533 C543 0.930 . S
C534 H528 0.930 . S
C534 C535 1.355 1_545 S
C534 C536 1.415 1_554 S
C535 C534 1.355 1_565 S
C535 C537 1.419 . S
C536 C534 1.415 1_556 S
C536 C541 1.425 1_545 S
C536 C543 1.409 . S
C537 H529 0.930 . S
C537 C535 1.419 . S
C537 C538 1.362 1_554 S
C538 H530 0.930 . S
C538 C537 1.362 1_556 S
C538 C541 1.409 . S
C539 H531 0.930 1_545 S
C539 C540 1.355 . S
C539 C541 1.415 1_545 S
C540 C539 1.355 . S
C540 C542 1.419 . S
C541 C536 1.425 1_565 S
C541 C538 1.409 . S
C541 C539 1.415 1_565 S
C542 H532 0.930 . S
C542 C540 1.419 . S
C542 C543 1.362 . S
C543 H533 0.930 . S
C543 C536 1.409 . S
C543 C542 1.362 . S
H544 C550 0.930 1_565 S
H545 C553 0.930 . S
H546 C554 0.930 . S
H547 C555 0.930 . S
H548 C558 0.930 . S
H549 C559 0.930 . S
C550 H544 0.930 1_545 S
C550 C551 1.355 . S
C550 C552 1.415 1_545 S
C551 C550 1.355 . S
C551 C553 1.419 . S
C552 C550 1.415 1_565 S
C552 C557 1.425 1_565 S
C552 C559 1.409 . S
C553 H545 0.930 . S
C553 C551 1.419 . S
C553 C554 1.362 . S
C554 H546 0.930 . S
C554 C553 1.362 . S
C554 C557 1.409 . S
C555 H547 0.930 . S
C555 C556 1.355 1_545 S
C555 C557 1.415 . S
C556 C555 1.355 1_565 S
C556 C558 1.419 . S
C557 C552 1.425 1_545 S
C557 C554 1.409 . S
C557 C555 1.415 . S
C558 H548 0.930 . S
C558 C556 1.419 . S
C558 C559 1.362 . S
C559 H549 0.930 . S
C559 C552 1.409 . S
C559 C558 1.362 . S
C183 C139 1.184 . S
C188 C15 1.178 . S
C199 C175 1.173 . S
C204 C37 1.164 . S
C215 C103 1.109 . S
C220 C51 1.118 . S
C231 C125 1.104 . S
C236 C81 1.114 . S
C247 C131 1.590 1_545 S
C252 C10 1.552 . S
C263 C109 1.620 1_545 S
C268 C32 1.600 . S
C279 C62 1.541 . S
C284 C169 1.610 1_565 S
C295 C153 1.600 1_565 S
C300 C76 1.605 . S
C311 C43 1.635 . S
C316 C98 1.585 . S
C327 C120 1.538 . S
C332 C21 1.638 . S
C343 C150 1.533 . S
C348 C73 1.629 . S
C359 C65 1.619 . S
C364 C162 1.609 . S
C375 C18 1.430 . S
C380 C40 1.452 . S
C391 C74 1.436 . S
C396 C54 1.454 . S
C407 C128 1.436 . S
C412 C106 1.428 . S
C423 C172 1.435 . S
C428 C142 1.455 . S
C439 C87 1.456 . S
C444 C8 1.465 . S
C455 C30 1.422 . S
C460 C59 1.437 . S
C471 C52 1.437 . S
C476 C29 1.466 . S
C487 C7 1.465 . S
C492 C84 1.435 . S
C503 C161 1.434 . S
C508 C96 1.435 . S
C519 C147 1.460 . S
C524 C118 1.464 . S
C535 C117 1.440 . S
C540 C140 1.458 . S
C551 C164 1.467 . S
C556 C95 1.461 . S
