# Generated by pormake.
# Topology crb, (4)-cn, num edge types: 1
# Building blocks:
#     Node 0, Type 0, BuildingBlock: UXUYUI_clean_sbu_0, # of connection points: 4
#     Node 1, Type 0, BuildingBlock: UXUYUI_clean_sbu_0, # of connection points: 4
#     Node 2, Type 0, BuildingBlock: UXUYUI_clean_sbu_0, # of connection points: 4
#     Node 3, Type 0, BuildingBlock: UXUYUI_clean_sbu_0, # of connection points: 4
#     Node 4, Type 0, BuildingBlock: UXUYUI_clean_sbu_0, # of connection points: 4
#     Node 5, Type 0, BuildingBlock: UXUYUI_clean_sbu_0, # of connection points: 4
#     Node 6, Type 0, BuildingBlock: UXUYUI_clean_sbu_0, # of connection points: 4
#     Node 7, Type 0, BuildingBlock: UXUYUI_clean_sbu_0, # of connection points: 4
#     Edge 8, Type (0, 0), BuildingBlock: MIFKUJ_clean_linker_0, # of connection points: 2
#     Edge 9, Type (0, 0), BuildingBlock: MIFKUJ_clean_linker_0, # of connection points: 2
#     Edge 10, Type (0, 0), BuildingBlock: MIFKUJ_clean_linker_0, # of connection points: 2
#     Edge 11, Type (0, 0), BuildingBlock: MIFKUJ_clean_linker_0, # of connection points: 2
#     Edge 12, Type (0, 0), BuildingBlock: MIFKUJ_clean_linker_0, # of connection points: 2
#     Edge 13, Type (0, 0), BuildingBlock: MIFKUJ_clean_linker_0, # of connection points: 2
#     Edge 14, Type (0, 0), BuildingBlock: MIFKUJ_clean_linker_0, # of connection points: 2
#     Edge 15, Type (0, 0), BuildingBlock: MIFKUJ_clean_linker_0, # of connection points: 2
#     Edge 16, Type (0, 0), BuildingBlock: MIFKUJ_clean_linker_0, # of connection points: 2
#     Edge 17, Type (0, 0), BuildingBlock: MIFKUJ_clean_linker_0, # of connection points: 2
#     Edge 18, Type (0, 0), BuildingBlock: MIFKUJ_clean_linker_0, # of connection points: 2
#     Edge 19, Type (0, 0), BuildingBlock: MIFKUJ_clean_linker_0, # of connection points: 2
#     Edge 20, Type (0, 0), BuildingBlock: MIFKUJ_clean_linker_0, # of connection points: 2
#     Edge 21, Type (0, 0), BuildingBlock: MIFKUJ_clean_linker_0, # of connection points: 2
#     Edge 22, Type (0, 0), BuildingBlock: MIFKUJ_clean_linker_0, # of connection points: 2
#     Edge 23, Type (0, 0), BuildingBlock: MIFKUJ_clean_linker_0, # of connection points: 2
# Relax obj value: 0.060
# Max RMSD: 0.078
# Mean RMSD: 0.078
data_MOF--net-crb--node1-UXUYUI_clean_sbu_0--edge1-MIFKUJ_clean_linker_0
_symmetry_space_group_name_H-M    P1
_symmetry_Int_Tables_number       1
_symmetry_cell_setting            triclinic
loop_
_symmetry_equiv_pos_as_xyz
'x, y, z'
_cell_length_a     74.599924
_cell_length_b     74.591899
_cell_length_c     44.564931
_cell_angle_alpha  90.015652
_cell_angle_beta   89.944138
_cell_angle_gamma 90.011402
loop_
_atom_site_label
_atom_site_type_symbol
_atom_site_fract_x
_atom_site_fract_y
_atom_site_fract_z
_atom_type_partial_charge
Li0 Li 0.31467 0.31474 0.03294 0.0
Li1 Li 0.34266 0.31844 0.006 0.0
Li2 Li 0.32012 0.34227 0.00599 0.0
Li3 Li 0.3153 0.31437 0.97607 0.0
C4 C 0.33564 0.33233 0.07056 0.0
N5 N 0.33886 0.33064 0.13226 0.0
C6 C 0.35033 0.32369 0.08356 0.0
C7 C 0.32264 0.3402 0.08894 0.0
C8 C 0.35171 0.32297 0.1148 0.0
C9 C 0.32449 0.33916 0.12008 0.0
C10 C 0.33407 0.28136 0.99794 0.0
C11 C 0.34563 0.26069 0.96104 0.0
N12 N 0.34941 0.24879 0.98326 0.0
C13 C 0.33798 0.26888 0.02038 0.0
C14 C 0.33786 0.27722 0.96799 0.0
C15 C 0.34577 0.25251 0.01252 0.0
C16 C 0.28576 0.30616 0.07208 0.0
N17 N 0.30365 0.30409 0.0674 0.0
C18 C 0.30645 0.2872 0.11275 0.0
C19 C 0.31397 0.29464 0.08691 0.0
C20 C 0.28801 0.28919 0.11841 0.0
C21 C 0.27762 0.29877 0.09751 0.0
H22 H 0.27779 0.31353 0.05603 0.0
H23 H 0.32814 0.29309 0.08263 0.0
C24 C 0.37765 0.33001 0.01542 0.0
N25 N 0.36828 0.31514 0.00726 0.0
C26 C 0.39636 0.32983 0.01572 0.0
C27 C 0.39559 0.29883 1.00015 0.0
C28 C 0.37688 0.29967 0.9998 0.0
C29 C 0.40557 0.3141 0.00794 0.0
H30 H 0.37053 0.34213 0.02139 0.0
H31 H 0.3694 0.28801 0.99319 0.0
C32 C 0.28518 0.33927 1.00031 0.0
N33 N 0.25958 0.36556 0.99212 0.0
C34 C 0.2781 0.34242 0.97177 0.0
C35 C 0.27916 0.34938 0.02472 0.0
C36 C 0.26517 0.35579 0.96809 0.0
C37 C 0.26624 0.36265 0.0201 0.0
C38 C 0.34954 0.33795 0.95778 0.0
C39 C 0.35665 0.35503 0.96283 0.0
C40 C 0.35898 0.32572 0.93999 0.0
C41 C 0.37317 0.35955 0.95013 0.0
C42 C 0.37548 0.33074 0.92776 0.0
N43 N 0.38218 0.34741 0.93304 0.0
C44 C 0.32082 0.37742 0.03022 0.0
C45 C 0.31057 0.3756 0.98001 0.0
C46 C 0.31891 0.39604 0.03 0.0
N47 N 0.3166 0.36763 0.0055 0.0
C48 C 0.30841 0.39419 0.97881 0.0
C49 C 0.31267 0.4047 0.00401 0.0
H50 H 0.32598 0.37082 0.04996 0.0
H51 H 0.30759 0.3675 0.96051 0.0
C52 C 0.29006 0.29404 0.94312 0.0
N53 N 0.30477 0.30468 0.94069 0.0
C54 C 0.28214 0.28673 0.91746 0.0
C55 C 0.30476 0.30139 0.88734 0.0
C56 C 0.31209 0.30858 0.91353 0.0
C57 C 0.28954 0.29028 0.88899 0.0
H58 H 0.28445 0.2913 0.96504 0.0
H59 H 0.32373 0.31717 0.91223 0.0
O60 O 0.33395 0.33301 0.04001 0.0
O61 O 0.32623 0.29736 0.00524 0.0
O62 O 0.2981 0.32649 0.00426 0.0
O63 O 0.33362 0.3331 0.97071 0.0
H64 H 0.36046 0.3174 0.06972 0.0
H65 H 0.31113 0.34684 0.07928 0.0
H66 H 0.36297 0.31625 0.12517 0.0
H67 H 0.31447 0.34508 0.13457 0.0
H68 H 0.3487 0.25735 0.93797 0.0
H69 H 0.33505 0.27179 0.04363 0.0
H70 H 0.33505 0.2867 0.95033 0.0
H71 H 0.34891 0.24275 0.02967 0.0
H72 H 0.3151 0.2802 0.12833 0.0
H73 H 0.26331 0.3004 0.10054 0.0
H74 H 0.40354 0.34185 0.02216 0.0
H75 H 0.4022 0.28648 0.99372 0.0
H76 H 0.28266 0.33476 0.95262 0.0
H77 H 0.28453 0.34712 0.04694 0.0
H78 H 0.25963 0.35845 0.94612 0.0
H79 H 0.26154 0.37066 0.03876 0.0
H80 H 0.34961 0.36462 0.97669 0.0
H81 H 0.35377 0.3124 0.93607 0.0
H82 H 0.37888 0.37268 0.95398 0.0
H83 H 0.383 0.32137 0.91416 0.0
H84 H 0.32272 0.4036 0.04974 0.0
H85 H 0.30344 0.40025 0.95837 0.0
H86 H 0.27024 0.27856 0.91994 0.0
H87 H 0.31116 0.30432 0.86609 0.0
Li88 Li 0.68438 0.34229 0.00451 0.0
Li89 Li 0.68871 0.31396 0.03059 0.0
Li90 Li 0.69037 0.31548 0.97532 0.0
Li91 Li 0.6616 0.31968 1.00158 0.0
C92 C 0.71963 0.33408 0.02283 0.0
N93 N 0.74619 0.34785 0.05934 0.0
C94 C 0.7151 0.34332 0.04908 0.0
C95 C 0.73765 0.33182 0.01519 0.0
C96 C 0.72873 0.35018 0.06722 0.0
C97 C 0.75089 0.3389 0.03392 0.0
C98 C 0.65689 0.33003 0.05849 0.0
C99 C 0.63817 0.31042 0.088 0.0
N100 N 0.62916 0.32493 0.09871 0.0
C101 C 0.64747 0.34474 0.06979 0.0
C102 C 0.65223 0.31271 0.06765 0.0
C103 C 0.63349 0.34188 0.09012 0.0
C104 C 0.67229 0.37754 0.01126 0.0
N105 N 0.68735 0.36779 0.00603 0.0
C106 C 0.70463 0.39458 1.00024 0.0
C107 C 0.70335 0.37588 1.00042 0.0
C108 C 0.68926 0.40501 0.0055 0.0
C109 C 0.67293 0.39624 0.0111 0.0
H110 H 0.65968 0.37075 0.01495 0.0
H111 H 0.71505 0.36786 0.99545 0.0
C112 C 0.70967 0.28866 0.06288 0.0
N113 N 0.69869 0.30311 0.06575 0.0
C114 C 0.71738 0.2808 0.08831 0.0
C115 C 0.70222 0.30276 0.11909 0.0
C116 C 0.69505 0.31034 0.09311 0.0
C117 C 0.71355 0.2878 0.11689 0.0
H118 H 0.71248 0.28329 0.04082 0.0
H119 H 0.68668 0.32212 0.09482 0.0
C120 C 0.67251 0.34864 0.95036 0.0
N121 N 0.67479 0.37966 0.91671 0.0
C122 C 0.65711 0.35869 0.94443 0.0
C123 C 0.68905 0.35429 0.93898 0.0
C124 C 0.65855 0.37436 0.92741 0.0
C125 C 0.68992 0.37003 0.92206 0.0
C126 C 0.67054 0.28426 0.98356 0.0
C127 C 0.66199 0.2883 0.95648 0.0
C128 C 0.67253 0.26639 0.99231 0.0
C129 C 0.65549 0.27434 0.93866 0.0
C130 C 0.66582 0.25281 0.97386 0.0
N131 N 0.65752 0.25703 0.94764 0.0
C132 C 0.71416 0.29263 0.94334 0.0
C133 C 0.69544 0.31064 0.91277 0.0
C134 C 0.72184 0.2847 0.91791 0.0
N135 N 0.70127 0.30539 0.94031 0.0
C136 C 0.70295 0.30331 0.88682 0.0
C137 C 0.71631 0.29015 0.8892 0.0
H138 H 0.71838 0.28853 0.96553 0.0
H139 H 0.68481 0.3204 0.91089 0.0
C140 C 0.62646 0.33217 1.00086 0.0
N141 N 0.6361 0.31672 1.00101 0.0
C142 C 0.60776 0.33169 1.00144 0.0
C143 C 0.60916 0.29934 1.00268 0.0
C144 C 0.62787 0.30047 1.00237 0.0
C145 C 0.59881 0.3151 1.00214 0.0
H146 H 0.63335 0.34492 1.00091 0.0
H147 H 0.63574 0.28835 0.00353 0.0
O148 O 0.70658 0.32707 0.00477 0.0
O149 O 0.67021 0.33248 0.03776 0.0
O150 O 0.67152 0.33356 0.96776 0.0
O151 O 0.67728 0.29764 1.00125 0.0
H152 H 0.70124 0.34522 0.05537 0.0
H153 H 0.74136 0.32466 0.99498 0.0
H154 H 0.72542 0.35736 0.08758 0.0
H155 H 0.7649 0.33726 0.02827 0.0
H156 H 0.63437 0.2971 0.09519 0.0
H157 H 0.65087 0.35822 0.06292 0.0
H158 H 0.65927 0.30116 0.05884 0.0
H159 H 0.62605 0.35314 0.09902 0.0
H160 H 0.71742 0.40079 0.9953 0.0
H161 H 0.66077 0.40374 0.01542 0.0
H162 H 0.72605 0.26926 0.08572 0.0
H163 H 0.69918 0.30872 0.14067 0.0
H164 H 0.6442 0.35448 0.95287 0.0
H165 H 0.70113 0.34674 0.94361 0.0
H166 H 0.64675 0.38231 0.92274 0.0
H167 H 0.70265 0.37462 0.91332 0.0
H168 H 0.66033 0.30204 0.94932 0.0
H169 H 0.6792 0.26306 0.01314 0.0
H170 H 0.64882 0.27726 0.91767 0.0
H171 H 0.66725 0.23891 0.98037 0.0
H172 H 0.73212 0.27458 0.92064 0.0
H173 H 0.6981 0.30765 0.86509 0.0
H174 H 0.60044 0.34421 1.00188 0.0
H175 H 0.60292 0.28624 0.00313 0.0
Li176 Li 0.66167 0.68404 1.00238 0.0
Li177 Li 0.68874 0.68889 0.02932 0.0
Li178 Li 0.68857 0.68987 0.97413 0.0
Li179 Li 0.68423 0.66114 1.00149 0.0
C180 C 0.66869 0.7195 0.01962 0.0
N181 N 0.6536 0.74619 0.05444 0.0
C182 C 0.65828 0.71506 0.04464 0.0
C183 C 0.67142 0.73751 0.0123 0.0
C184 C 0.65078 0.72874 0.06196 0.0
C185 C 0.66368 0.75081 0.03018 0.0
C186 C 0.67527 0.65977 0.06095 0.0
C187 C 0.69775 0.64502 0.09099 0.0
N188 N 0.68473 0.63933 0.11015 0.0
C189 C 0.66213 0.65376 0.08091 0.0
C190 C 0.69324 0.65536 0.06599 0.0
C191 C 0.66718 0.64345 0.10567 0.0
C192 C 0.62632 0.67369 0.01507 0.0
N193 N 0.63623 0.68712 1.00286 0.0
C194 C 0.60969 0.70346 0.99044 0.0
C195 C 0.62836 0.70189 0.99079 0.0
C196 C 0.59909 0.68977 1.0029 0.0
C197 C 0.60765 0.67477 0.01544 0.0
H198 H 0.63297 0.66202 0.02423 0.0
H199 H 0.63657 0.71236 0.98113 0.0
C200 C 0.71528 0.70754 0.0629 0.0
N201 N 0.69906 0.69928 0.06472 0.0
C202 C 0.72313 0.71502 0.08854 0.0
C203 C 0.69745 0.70533 0.11738 0.0
C204 C 0.69003 0.69826 0.0912 0.0
C205 C 0.71424 0.71381 0.11629 0.0
H206 H 0.72214 0.70825 0.04154 0.0
H207 H 0.67701 0.69193 0.0921 0.0
C208 C 0.65596 0.67101 0.94885 0.0
N209 N 0.62523 0.67219 0.91431 0.0
C210 C 0.64495 0.65591 0.94654 0.0
C211 C 0.65138 0.68668 0.93346 0.0
C212 C 0.62946 0.65678 0.92901 0.0
C213 C 0.63579 0.68701 0.91613 0.0
C214 C 0.71988 0.67071 0.9848 0.0
C215 C 0.71664 0.66174 0.95779 0.0
C216 C 0.73749 0.67325 0.99454 0.0
C217 C 0.73113 0.65539 0.94099 0.0
C218 C 0.75162 0.66668 0.97711 0.0
N219 N 0.74817 0.65797 0.95092 0.0
C220 C 0.70965 0.71512 0.94174 0.0
C221 C 0.69595 0.69266 0.91198 0.0
C222 C 0.71765 0.72269 0.91629 0.0
N223 N 0.69902 0.70041 0.93911 0.0
C224 C 0.70353 0.69985 0.88598 0.0
C225 C 0.71462 0.71506 0.88782 0.0
H226 H 0.71202 0.72089 0.96366 0.0
H227 H 0.68763 0.68084 0.9105 0.0
C228 C 0.67211 0.62596 0.00351 0.0
N229 N 0.68751 0.63566 1.00193 0.0
C230 C 0.67266 0.60726 0.00405 0.0
C231 C 0.70499 0.60876 1.00224 0.0
C232 C 0.7038 0.62746 1.00194 0.0
C233 C 0.68926 0.59836 0.00308 0.0
H234 H 0.65937 0.63282 0.00472 0.0
H235 H 0.71593 0.63535 1.00191 0.0
O236 O 0.67628 0.70639 1.00229 0.0
O237 O 0.67041 0.66981 0.03657 0.0
O238 O 0.67094 0.6706 0.96653 0.0
O239 O 0.70596 0.67737 1.00141 0.0
H240 H 0.65599 0.70121 0.05065 0.0
H241 H 0.67946 0.74115 0.993 0.0
H242 H 0.6427 0.7255 0.08138 0.0
H243 H 0.66568 0.76481 0.02478 0.0
H244 H 0.71159 0.64151 0.09517 0.0
H245 H 0.64816 0.65706 0.07731 0.0
H246 H 0.70364 0.65985 0.05085 0.0
H247 H 0.65714 0.63873 0.12131 0.0
H248 H 0.60362 0.71531 0.98076 0.0
H249 H 0.59997 0.66382 0.02492 0.0
H250 H 0.73613 0.72141 0.08679 0.0
H251 H 0.69004 0.70436 0.13822 0.0
H252 H 0.64829 0.64365 0.95816 0.0
H253 H 0.6596 0.69858 0.93534 0.0
H254 H 0.62078 0.64521 0.92711 0.0
H255 H 0.63203 0.69909 0.90428 0.0
H256 H 0.7031 0.65958 0.94995 0.0
H257 H 0.7402 0.68024 0.01534 0.0
H258 H 0.72883 0.64841 0.92008 0.0
H259 H 0.76532 0.66854 0.98438 0.0
H260 H 0.72632 0.73421 0.91899 0.0
H261 H 0.70053 0.69362 0.86463 0.0
H262 H 0.66019 0.59989 0.00561 0.0
H263 H 0.71809 0.60254 1.00147 0.0
Li264 Li 0.31941 0.66051 1.00167 0.0
Li265 Li 0.31509 0.68881 0.02882 0.0
Li266 Li 0.31523 0.68856 0.97216 0.0
Li267 Li 0.34312 0.68481 1.00191 0.0
C268 C 0.28269 0.66834 0.99263 0.0
N269 N 0.2513 0.65132 0.97624 0.0
C270 C 0.2692 0.66542 0.01386 0.0
C271 C 0.28011 0.66283 0.96298 0.0
C272 C 0.25345 0.65672 0.00516 0.0
C273 C 0.26418 0.65419 0.95515 0.0
C274 C 0.33459 0.66861 0.06599 0.0
C275 C 0.34376 0.68015 0.11412 0.0
N276 N 0.33567 0.66599 0.12777 0.0
C277 C 0.32649 0.65409 0.08044 0.0
C278 C 0.34343 0.68168 0.08288 0.0
C279 C 0.32714 0.65303 0.11172 0.0
C280 C 0.32977 0.6251 0.99039 0.0
N281 N 0.3162 0.63511 1.00197 0.0
C282 C 0.2996 0.60861 0.0139 0.0
C283 C 0.30137 0.62727 0.01394 0.0
C284 C 0.31326 0.59794 1.0015 0.0
C285 C 0.32853 0.60644 0.98973 0.0
H286 H 0.34163 0.63165 0.98173 0.0
H287 H 0.29099 0.63546 0.02379 0.0
C288 C 0.30565 0.71697 0.06878 0.0
N289 N 0.30422 0.69906 0.06372 0.0
C290 C 0.29824 0.72459 0.09464 0.0
C291 C 0.28793 0.69521 0.10953 0.0
C292 C 0.29535 0.68821 0.08323 0.0
C293 C 0.28934 0.71367 0.11565 0.0
H294 H 0.31252 0.72537 0.05271 0.0
H295 H 0.29421 0.67404 0.07851 0.0
C296 C 0.33825 0.66272 0.94092 0.0
N297 N 0.34655 0.64791 0.88579 0.0
C298 C 0.35411 0.66751 0.92625 0.0
C299 C 0.32669 0.65028 0.92766 0.0
C300 C 0.35804 0.65991 0.89835 0.0
C301 C 0.33111 0.64297 0.89976 0.0
C302 C 0.33741 0.72057 0.99731 0.0
C303 C 0.33849 0.7294 0.9697 0.0
C304 C 0.34744 0.7268 0.02164 0.0
C305 C 0.34978 0.74425 0.96683 0.0
C306 C 0.3586 0.74167 0.01784 0.0
N307 N 0.35953 0.75001 0.99074 0.0
C308 C 0.28949 0.70846 0.94011 0.0
C309 C 0.31246 0.69651 0.90931 0.0
C310 C 0.28118 0.71622 0.91516 0.0
N311 N 0.3048 0.69877 0.93677 0.0
C312 C 0.30447 0.70377 0.88375 0.0
C313 C 0.28862 0.71376 0.8865 0.0
H314 H 0.28372 0.71013 0.96222 0.0
H315 H 0.32484 0.68919 0.9071 0.0
C316 C 0.37819 0.67823 0.02168 0.0
N317 N 0.36852 0.68835 1.00221 0.0
C318 C 0.39686 0.67943 0.02227 0.0
C319 C 0.39535 0.70165 0.98294 0.0
C320 C 0.37671 0.69981 0.98283 0.0
C321 C 0.40576 0.69128 1.00272 0.0
H322 H 0.37141 0.66892 0.03642 0.0
H323 H 0.36882 0.70736 0.96695 0.0
O324 O 0.29818 0.67682 1.00083 0.0
O325 O 0.33388 0.67001 0.03543 0.0
O326 O 0.33421 0.67007 0.96823 0.0
O327 O 0.32644 0.70601 1.00053 0.0
H328 H 0.27092 0.66974 0.03686 0.0
H329 H 0.29023 0.6653 0.94614 0.0
H330 H 0.24295 0.65427 0.0214 0.0
H331 H 0.26203 0.64981 0.93229 0.0
H332 H 0.35045 0.69023 0.1275 0.0
H333 H 0.31964 0.64384 0.06765 0.0
H334 H 0.34988 0.69291 0.07198 0.0
H335 H 0.32083 0.64193 0.12324 0.0
H336 H 0.2876 0.60261 0.02322 0.0
H337 H 0.33955 0.59874 0.98054 0.0
H338 H 0.29936 0.73893 0.09793 0.0
H339 H 0.28143 0.68616 0.12509 0.0
H340 H 0.36324 0.67706 0.9362 0.0
H341 H 0.31452 0.64616 0.93889 0.0
H342 H 0.37023 0.66356 0.88669 0.0
H343 H 0.32228 0.63333 0.88925 0.0
H344 H 0.33077 0.7248 0.95067 0.0
H345 H 0.34668 0.72017 0.04318 0.0
H346 H 0.35081 0.75118 0.94557 0.0
H347 H 0.36651 0.74658 0.03643 0.0
H348 H 0.26893 0.72382 0.91816 0.0
H349 H 0.31077 0.70183 0.86208 0.0
H350 H 0.40423 0.67082 0.03743 0.0
H351 H 0.40149 0.7111 0.96762 0.0
Li352 Li 0.81482 0.81481 0.52946 0.0
Li353 Li 0.842 0.81944 0.50252 0.0
Li354 Li 0.81936 0.84231 0.50077 0.0
Li355 Li 0.81525 0.81325 0.47426 0.0
C356 C 0.82833 0.84445 0.56013 0.0
N357 N 0.8191 0.86582 0.60837 0.0
C358 C 0.84159 0.85105 0.57929 0.0
C359 C 0.81036 0.84876 0.56544 0.0
C360 C 0.83665 0.86182 0.60358 0.0
C361 C 0.80597 0.85957 0.58997 0.0
C362 C 0.83496 0.78421 0.52097 0.0
C363 C 0.84028 0.75308 0.53255 0.0
N364 N 0.84989 0.75808 0.55708 0.0
C365 C 0.84489 0.78904 0.54631 0.0
C366 C 0.83261 0.76609 0.51402 0.0
C367 C 0.85233 0.77563 0.56427 0.0
C368 C 0.78874 0.79532 0.5626 0.0
N369 N 0.80437 0.80461 0.56497 0.0
C370 C 0.80523 0.79932 0.61791 0.0
C371 C 0.81277 0.80651 0.59188 0.0
C372 C 0.78907 0.78975 0.6162 0.0
C373 C 0.78086 0.78763 0.58806 0.0
H374 H 0.78241 0.79389 0.54089 0.0
H375 H 0.82539 0.81355 0.59322 0.0
C376 C 0.87723 0.83117 0.51177 0.0
N377 N 0.8675 0.81662 0.50331 0.0
C378 C 0.89593 0.83048 0.51188 0.0
C379 C 0.89429 0.79976 0.49485 0.0
C380 C 0.8756 0.80108 0.49488 0.0
C381 C 0.90475 0.81461 0.50337 0.0
H382 H 0.87041 0.84342 0.51799 0.0
H383 H 0.86757 0.78977 0.48788 0.0
C384 C 0.78376 0.83235 0.48434 0.0
N385 N 0.75537 0.84453 0.45023 0.0
C386 C 0.78691 0.84073 0.45677 0.0
C387 C 0.76619 0.8301 0.49451 0.0
C388 C 0.77237 0.8468 0.43987 0.0
C389 C 0.75201 0.83638 0.47696 0.0
C390 C 0.84806 0.83243 0.44917 0.0
C391 C 0.85809 0.84811 0.44555 0.0
C392 C 0.85389 0.81652 0.43573 0.0
C393 C 0.87391 0.84757 0.42877 0.0
C394 C 0.86977 0.81653 0.41911 0.0
N395 N 0.87938 0.83192 0.41604 0.0
C396 C 0.83122 0.8776 0.50276 0.0
C397 C 0.79955 0.87581 0.50032 0.0
C398 C 0.83048 0.89629 0.50366 0.0
N399 N 0.81593 0.86777 0.50072 0.0
C400 C 0.79819 0.8945 0.5009 0.0
C401 C 0.8138 0.90499 0.50255 0.0
H402 H 0.84403 0.87086 0.50401 0.0
H403 H 0.7875 0.86781 0.50002 0.0
C404 C 0.79253 0.78915 0.44244 0.0
N405 N 0.80485 0.80246 0.43942 0.0
C406 C 0.78439 0.78167 0.41705 0.0
C407 C 0.8019 0.80164 0.38601 0.0
C408 C 0.80951 0.80885 0.41194 0.0
C409 C 0.78906 0.78789 0.38823 0.0
H410 H 0.78887 0.78451 0.46461 0.0
H411 H 0.81905 0.81969 0.41009 0.0
O412 O 0.83308 0.83405 0.53611 0.0
O413 O 0.82741 0.79704 0.50305 0.0
O414 O 0.79772 0.82597 0.50108 0.0
O415 O 0.83278 0.83254 0.4662 0.0
H416 H 0.85557 0.84788 0.57539 0.0
H417 H 0.79989 0.84384 0.55086 0.0
H418 H 0.84678 0.86701 0.61861 0.0
H419 H 0.79213 0.863 0.59436 0.0
H420 H 0.83857 0.73901 0.52743 0.0
H421 H 0.84689 0.80298 0.55205 0.0
H422 H 0.82493 0.76215 0.4945 0.0
H423 H 0.86005 0.77919 0.58393 0.0
H424 H 0.81211 0.80101 0.63912 0.0
H425 H 0.76837 0.78036 0.58586 0.0
H426 H 0.90337 0.84237 0.51807 0.0
H427 H 0.90045 0.78719 0.48842 0.0
H428 H 0.80042 0.84262 0.44855 0.0
H429 H 0.76354 0.82356 0.51574 0.0
H430 H 0.77461 0.85333 0.41852 0.0
H431 H 0.73833 0.83475 0.48457 0.0
H432 H 0.85374 0.86056 0.45559 0.0
H433 H 0.84637 0.80422 0.43857 0.0
H434 H 0.88184 0.85958 0.42588 0.0
H435 H 0.87451 0.80429 0.40881 0.0
H436 H 0.84285 0.90386 0.50492 0.0
H437 H 0.78505 0.90067 0.50065 0.0
H438 H 0.77435 0.77135 0.42007 0.0
H439 H 0.8062 0.80674 0.36444 0.0
Li440 Li 0.18481 0.843 0.49915 0.0
Li441 Li 0.18878 0.81575 0.53014 0.0
Li442 Li 0.18917 0.81486 0.47331 0.0
Li443 Li 0.1608 0.81933 0.50036 0.0
C444 C 0.21995 0.83871 0.50406 0.0
N445 N 0.24736 0.86337 0.50975 0.0
C446 C 0.22828 0.84127 0.53181 0.0
C447 C 0.22566 0.84855 0.47914 0.0
C448 C 0.2421 0.85383 0.53423 0.0
C449 C 0.23951 0.861 0.4825 0.0
C450 C 0.16101 0.83747 0.55953 0.0
C451 C 0.14035 0.82745 0.59767 0.0
N452 N 0.14242 0.84332 0.61229 0.0
C453 C 0.16282 0.85373 0.57481 0.0
C454 C 0.1496 0.82425 0.57094 0.0
C455 C 0.15336 0.85641 0.6015 0.0
C456 C 0.18193 0.87791 0.47501 0.0
N457 N 0.18859 0.86832 0.4984 0.0
C458 C 0.19946 0.8951 0.52165 0.0
C459 C 0.19717 0.87651 0.52155 0.0
C460 C 0.19261 0.90542 0.49787 0.0
C461 C 0.18379 0.89654 0.47428 0.0
H462 H 0.17486 0.87113 0.45715 0.0
H463 H 0.20209 0.86861 0.54013 0.0
C464 C 0.2086 0.79076 0.56405 0.0
N465 N 0.19892 0.80615 0.56611 0.0
C466 C 0.21618 0.78309 0.5897 0.0
C467 C 0.2037 0.80725 0.61914 0.0
C468 C 0.19654 0.81454 0.5929 0.0
C469 C 0.21371 0.79129 0.61786 0.0
H470 H 0.21042 0.78444 0.54241 0.0
H471 H 0.18909 0.82691 0.59402 0.0
C472 C 0.16797 0.83282 0.43546 0.0
N473 N 0.16368 0.83138 0.37396 0.0
C474 C 0.15282 0.82464 0.42313 0.0
C475 C 0.18085 0.84044 0.41656 0.0
C476 C 0.15091 0.82402 0.39196 0.0
C477 C 0.17847 0.83951 0.38551 0.0
C478 C 0.16981 0.78212 0.50932 0.0
C479 C 0.16723 0.76915 0.4871 0.0
C480 C 0.16513 0.77827 0.539 0.0
C481 C 0.15964 0.75266 0.49485 0.0
C482 C 0.15759 0.76162 0.54586 0.0
N483 N 0.155 0.74928 0.52383 0.0
C484 C 0.21767 0.805 0.43434 0.0
C485 C 0.18905 0.79472 0.41916 0.0
C486 C 0.22556 0.79743 0.40884 0.0
N487 N 0.1997 0.80364 0.43889 0.0
C488 C 0.19633 0.78713 0.39321 0.0
C489 C 0.21485 0.78844 0.38766 0.0
H490 H 0.22589 0.81198 0.45053 0.0
H491 H 0.17482 0.79371 0.42335 0.0
C492 C 0.12561 0.83106 0.50683 0.0
N493 N 0.13538 0.81617 0.50037 0.0
C494 C 0.10692 0.8303 0.50745 0.0
C495 C 0.10859 0.79893 0.49424 0.0
C496 C 0.12729 0.8003 0.49388 0.0
C497 C 0.09814 0.81406 0.50119 0.0
H498 H 0.13239 0.84358 0.51147 0.0
H499 H 0.13525 0.78872 0.48828 0.0
O500 O 0.20626 0.82664 0.50133 0.0
O501 O 0.17022 0.83465 0.53338 0.0
O502 O 0.17016 0.83339 0.4659 0.0
O503 O 0.17732 0.79829 0.50208 0.0
H504 H 0.22403 0.83374 0.55131 0.0
H505 H 0.21938 0.84668 0.4575 0.0
H506 H 0.24862 0.85602 0.5556 0.0
H507 H 0.24399 0.86879 0.46345 0.0
H508 H 0.13147 0.81734 0.60673 0.0
H509 H 0.17149 0.86416 0.56621 0.0
H510 H 0.14772 0.81175 0.55914 0.0
H511 H 0.1547 0.86891 0.61362 0.0
H512 H 0.20652 0.90128 0.54017 0.0
H513 H 0.17798 0.90391 0.45577 0.0
H514 H 0.22406 0.77099 0.58736 0.0
H515 H 0.20118 0.81399 0.64024 0.0
H516 H 0.14271 0.81871 0.43745 0.0
H517 H 0.19262 0.84686 0.42578 0.0
H518 H 0.13931 0.81764 0.38208 0.0
H519 H 0.18838 0.84523 0.37061 0.0
H520 H 0.17095 0.7718 0.46408 0.0
H521 H 0.16743 0.78793 0.55664 0.0
H522 H 0.15745 0.74254 0.47784 0.0
H523 H 0.15386 0.7585 0.56874 0.0
H524 H 0.23993 0.79851 0.40594 0.0
H525 H 0.18743 0.78059 0.37746 0.0
H526 H 0.09944 0.84239 0.51235 0.0
H527 H 0.10242 0.78611 0.48944 0.0
Li528 Li 0.18779 0.18899 0.53351 0.0
Li529 Li 0.15999 0.18471 0.50413 0.0
Li530 Li 0.18423 0.1609 0.50484 0.0
Li531 Li 0.18816 0.18891 0.4766 0.0
C532 C 0.16555 0.16625 0.5675 0.0
N533 N 0.15844 0.15851 0.62697 0.0
C534 C 0.14971 0.17229 0.58087 0.0
C535 C 0.17765 0.15604 0.58425 0.0
C536 C 0.14639 0.1683 0.611 0.0
C537 C 0.17385 0.15234 0.61432 0.0
C538 C 0.16612 0.2212 0.50552 0.0
C539 C 0.14701 0.24271 0.48089 0.0
N540 N 0.14543 0.25191 0.50712 0.0
C541 C 0.16444 0.23096 0.53217 0.0
C542 C 0.15748 0.22721 0.4796 0.0
C543 C 0.15387 0.24641 0.53254 0.0
C544 C 0.21566 0.20385 0.56863 0.0
N545 N 0.19797 0.19945 0.56891 0.0
C546 C 0.19518 0.20962 0.61963 0.0
C547 C 0.18764 0.20247 0.59358 0.0
C548 C 0.21346 0.21407 0.62011 0.0
C549 C 0.22372 0.21128 0.59409 0.0
H550 H 0.22354 0.20155 0.54861 0.0
H551 H 0.17349 0.19953 0.59301 0.0
C552 C 0.12499 0.17595 0.48681 0.0
N553 N 0.13454 0.18789 0.50341 0.0
C554 C 0.1063 0.17681 0.48607 0.0
C555 C 0.10753 0.2023 0.51947 0.0
C556 C 0.1262 0.20084 0.51978 0.0
C557 C 0.09734 0.19009 0.5026 0.0
H558 H 0.1319 0.16558 0.47441 0.0
H559 H 0.13396 0.20977 0.53368 0.0
C560 C 0.22033 0.16752 0.50944 0.0
N561 N 0.25081 0.1471 0.51779 0.0
C562 C 0.23179 0.16401 0.48531 0.0
C563 C 0.22453 0.1609 0.53789 0.0
C564 C 0.24709 0.15358 0.48996 0.0
C565 C 0.23996 0.15054 0.54164 0.0
C566 C 0.16657 0.16863 0.44064 0.0
C567 C 0.17364 0.15431 0.42423 0.0
C568 C 0.1562 0.18158 0.42612 0.0
C569 C 0.17049 0.15337 0.39337 0.0
C570 C 0.15335 0.18017 0.39523 0.0
N571 N 0.16052 0.16623 0.37962 0.0
C572 C 0.17783 0.12529 0.52289 0.0
C573 C 0.20048 0.12812 0.4859 0.0
C574 C 0.17974 0.10667 0.52296 0.0
N575 N 0.18822 0.1356 0.50471 0.0
C576 C 0.20283 0.10953 0.48521 0.0
C577 C 0.19235 0.09853 0.5039 0.0
H578 H 0.1678 0.13149 0.53697 0.0
H579 H 0.20822 0.13653 0.47104 0.0
C580 C 0.19911 0.21724 0.43822 0.0
N581 N 0.19871 0.19912 0.44142 0.0
C582 C 0.20637 0.22497 0.41235 0.0
C583 C 0.21294 0.19527 0.39373 0.0
C584 C 0.20564 0.18813 0.42001 0.0
C585 C 0.21333 0.21395 0.38953 0.0
H586 H 0.19384 0.22571 0.45581 0.0
H587 H 0.20546 0.17378 0.42329 0.0
O588 O 0.16903 0.17011 0.53805 0.0
O589 O 0.17641 0.20603 0.50478 0.0
O590 O 0.20522 0.17761 0.50526 0.0
O591 O 0.16968 0.16987 0.47081 0.0
H592 H 0.14013 0.18009 0.5682 0.0
H593 H 0.18977 0.15092 0.57411 0.0
H594 H 0.13424 0.173 0.62168 0.0
H595 H 0.18313 0.14451 0.62757 0.0
H596 H 0.14019 0.24747 0.46102 0.0
H597 H 0.17116 0.22661 0.55237 0.0
H598 H 0.15888 0.22002 0.45868 0.0
H599 H 0.15238 0.25404 0.55304 0.0
H600 H 0.18675 0.21191 0.63905 0.0
H601 H 0.23786 0.21454 0.59359 0.0
H602 H 0.09895 0.16718 0.47268 0.0
H603 H 0.10111 0.21253 0.53297 0.0
H604 H 0.22883 0.16918 0.46319 0.0
H605 H 0.21603 0.16383 0.55692 0.0
H606 H 0.256 0.15065 0.47144 0.0
H607 H 0.24333 0.14527 0.56354 0.0
H608 H 0.18158 0.1441 0.43516 0.0
H609 H 0.15035 0.19254 0.43859 0.0
H610 H 0.17598 0.14244 0.38035 0.0
H611 H 0.14541 0.19015 0.38368 0.0
H612 H 0.17109 0.09872 0.53725 0.0
H613 H 0.21274 0.10385 0.4702 0.0
H614 H 0.2067 0.23944 0.41045 0.0
H615 H 0.21798 0.18621 0.37672 0.0
Li616 Li 0.81416 0.18866 0.53004 0.0
Li617 Li 0.81847 0.1609 0.50294 0.0
Li618 Li 0.84162 0.18384 0.50232 0.0
Li619 Li 0.81408 0.18851 0.47537 0.0
C620 C 0.84317 0.17354 0.56154 0.0
N621 N 0.86462 0.1807 0.61059 0.0
C622 C 0.85044 0.15947 0.57823 0.0
C623 C 0.84681 0.19126 0.56976 0.0
C624 C 0.86126 0.16336 0.60297 0.0
C625 C 0.85768 0.1946 0.59463 0.0
C626 C 0.7832 0.1693 0.51958 0.0
C627 C 0.75168 0.16526 0.52954 0.0
N628 N 0.7558 0.15498 0.55378 0.0
C629 C 0.78713 0.1587 0.54458 0.0
C630 C 0.76534 0.17263 0.51198 0.0
C631 C 0.77309 0.15158 0.56158 0.0
C632 C 0.79569 0.21524 0.56383 0.0
N633 N 0.80362 0.19886 0.56545 0.0
C634 C 0.79672 0.19678 0.61776 0.0
C635 C 0.80415 0.18956 0.59168 0.0
C636 C 0.78843 0.2137 0.61695 0.0
C637 C 0.78794 0.22293 0.5894 0.0
H638 H 0.79534 0.22229 0.54264 0.0
H639 H 0.81043 0.17652 0.59245 0.0
C640 C 0.83003 0.12576 0.51059 0.0
N641 N 0.81535 0.13551 0.50301 0.0
C642 C 0.82929 0.10706 0.51092 0.0
C643 C 0.79827 0.10874 0.49556 0.0
C644 C 0.79966 0.12743 0.49533 0.0
C645 C 0.81323 0.09826 0.50346 0.0
H646 H 0.8424 0.13256 0.51616 0.0
H647 H 0.78822 0.13548 0.489 0.0
C648 C 0.83402 0.21911 0.48582 0.0
N649 N 0.8492 0.24606 0.4517 0.0
C650 C 0.84447 0.21486 0.46075 0.0
C651 C 0.8313 0.23706 0.49354 0.0
C652 C 0.85202 0.22868 0.44379 0.0
C653 C 0.83909 0.2505 0.47601 0.0
C654 C 0.82827 0.15942 0.4436 0.0
C655 C 0.84189 0.15272 0.42521 0.0
C656 C 0.81038 0.15549 0.43694 0.0
C657 C 0.83739 0.1422 0.40039 0.0
C658 C 0.80643 0.14492 0.41194 0.0
N659 N 0.8199 0.13855 0.39433 0.0
C660 C 0.87682 0.17302 0.49134 0.0
C661 C 0.87497 0.20189 0.51334 0.0
C662 C 0.8955 0.17387 0.49127 0.0
N663 N 0.86699 0.18689 0.50228 0.0
C664 C 0.89365 0.20329 0.51383 0.0
C665 C 0.90421 0.18911 0.5028 0.0
H666 H 0.87009 0.16123 0.48281 0.0
H667 H 0.86684 0.2127 0.52208 0.0
C668 C 0.78802 0.2079 0.44196 0.0
N669 N 0.804 0.19923 0.44003 0.0
C670 C 0.78044 0.21584 0.41649 0.0
C671 C 0.80586 0.20566 0.38753 0.0
C672 C 0.81303 0.19816 0.41356 0.0
C673 C 0.78933 0.21472 0.38865 0.0
H674 H 0.7812 0.20872 0.46336 0.0
H675 H 0.82582 0.1914 0.41253 0.0
O676 O 0.83267 0.16987 0.53713 0.0
O677 O 0.79667 0.17658 0.50266 0.0
O678 O 0.82638 0.20587 0.5028 0.0
O679 O 0.83256 0.16963 0.46807 0.0
H680 H 0.84776 0.14568 0.57212 0.0
H681 H 0.84131 0.20233 0.5571 0.0
H682 H 0.86698 0.1526 0.61611 0.0
H683 H 0.86061 0.20824 0.60124 0.0
H684 H 0.73779 0.16773 0.52392 0.0
H685 H 0.80086 0.15593 0.55079 0.0
H686 H 0.76209 0.18083 0.4927 0.0
H687 H 0.77594 0.14335 0.58098 0.0
H688 H 0.79772 0.18925 0.63845 0.0
H689 H 0.78147 0.23587 0.58748 0.0
H690 H 0.84127 0.09961 0.51654 0.0
H691 H 0.78557 0.1026 0.48991 0.0
H692 H 0.84677 0.20106 0.45444 0.0
H693 H 0.82324 0.24056 0.5129 0.0
H694 H 0.86013 0.22558 0.42433 0.0
H695 H 0.83709 0.26445 0.48172 0.0
H696 H 0.85581 0.15563 0.43006 0.0
H697 H 0.79964 0.16057 0.45084 0.0
H698 H 0.8478 0.13693 0.38596 0.0
H699 H 0.79265 0.14179 0.40653 0.0
H700 H 0.90304 0.16273 0.48211 0.0
H701 H 0.89974 0.21519 0.52328 0.0
H702 H 0.76785 0.22292 0.41873 0.0
H703 H 0.81314 0.20413 0.36667 0.0
H704 H 0.32131 0.42715 0.9575 0.0
H705 H 0.3199 0.45985 0.95651 0.0
H706 H 0.3 0.46014 0.04741 0.0
H707 H 0.30071 0.42736 0.0482 0.0
H708 H 0.28237 0.48417 0.01355 0.0
H709 H 0.34393 0.46914 0.03231 0.0
H710 H 0.37278 0.45407 0.02262 0.0
H711 H 0.37664 0.4803 0.9371 0.0
H712 H 0.34768 0.49535 0.94611 0.0
H713 H 0.30122 0.57583 0.04631 0.0
H714 H 0.29979 0.54307 0.04605 0.0
H715 H 0.32059 0.54234 0.95569 0.0
H716 H 0.32211 0.57507 0.95586 0.0
H717 H 0.33752 0.51847 0.98941 0.0
H718 H 0.27599 0.53383 0.97099 0.0
H719 H 0.24719 0.54892 0.98094 0.0
H720 H 0.24327 0.52221 0.06604 0.0
H721 H 0.2722 0.50714 0.05678 0.0
C722 C 0.31637 0.43413 0.97714 0.0
C723 C 0.3112 0.4246 1.00299 0.0
C724 C 0.31575 0.45285 0.97665 0.0
C725 C 0.31011 0.46247 1.00205 0.0
C726 C 0.30449 0.45301 0.0276 0.0
C727 C 0.30507 0.43427 0.0281 0.0
C728 C 0.31037 0.48238 1.00215 0.0
C729 C 0.29447 0.49168 0.00863 0.0
C730 C 0.32608 0.49219 0.99516 0.0
C731 C 0.34355 0.48324 0.98977 0.0
C732 C 0.35087 0.47159 0.01134 0.0
C733 C 0.36725 0.46307 0.00599 0.0
C734 C 0.37652 0.46619 0.97923 0.0
C735 C 0.36944 0.47788 0.9578 0.0
C736 C 0.35305 0.48642 0.96303 0.0
C737 C 0.30528 0.5687 0.02626 0.0
C738 C 0.31178 0.57806 1.0011 0.0
C739 C 0.30446 0.54997 0.02614 0.0
C740 C 0.30993 0.54022 1.00074 0.0
C741 C 0.31634 0.54955 0.97556 0.0
C742 C 0.31724 0.56826 0.97572 0.0
C743 C 0.30949 0.5203 1.00066 0.0
C744 C 0.32538 0.51098 0.99426 0.0
C745 C 0.29378 0.5105 0.00775 0.0
C746 C 0.27635 0.51949 0.01331 0.0
C747 C 0.26906 0.53127 0.99193 0.0
C748 C 0.2527 0.53981 0.99742 0.0
C749 C 0.24343 0.53656 0.02413 0.0
C750 C 0.25048 0.52473 0.04537 0.0
C751 C 0.26685 0.51618 0.04 0.0
H752 H 0.23076 0.54318 0.02835 0.0
H753 H 0.3892 0.45958 0.97513 0.0
H754 H 0.42833 0.33898 0.98408 0.0
H755 H 0.46115 0.33825 0.98323 0.0
H756 H 0.46053 0.28761 0.02992 0.0
H757 H 0.42767 0.28831 0.03098 0.0
H758 H 0.48527 0.31237 0.05349 0.0
H759 H 0.46881 0.28741 0.95789 0.0
H760 H 0.4531 0.28691 0.90924 0.0
H761 H 0.48002 0.33531 0.88291 0.0
H762 H 0.4957 0.33625 0.93162 0.0
H763 H 0.57712 0.29153 0.03274 0.0
H764 H 0.54443 0.29041 0.03323 0.0
H765 H 0.54246 0.33631 0.97443 0.0
H766 H 0.57512 0.33686 0.97235 0.0
H767 H 0.51871 0.31308 0.9572 0.0
H768 H 0.53441 0.33925 0.05183 0.0
H769 H 0.54975 0.3412 0.10071 0.0
H770 H 0.52408 0.29258 0.1293 0.0
H771 H 0.50877 0.2902 0.08041 0.0
C772 C 0.4352 0.32775 0.99433 0.0
C773 C 0.42545 0.31369 0.00759 0.0
C774 C 0.45392 0.32729 0.99365 0.0
C775 C 0.46324 0.31281 0.00634 0.0
C776 C 0.45357 0.29888 0.01996 0.0
C777 C 0.43483 0.29924 0.02038 0.0
C778 C 0.4831 0.31225 0.00535 0.0
C779 C 0.49262 0.31226 0.03247 0.0
C780 C 0.49262 0.31259 0.97789 0.0
C781 C 0.4833 0.31199 0.94852 0.0
C782 C 0.47127 0.29803 0.94182 0.0
C783 C 0.46239 0.29765 0.91422 0.0
C784 C 0.46553 0.3111 0.89303 0.0
C785 C 0.47759 0.32492 0.89937 0.0
C786 C 0.48648 0.32537 0.92696 0.0
C787 C 0.56977 0.30125 0.01955 0.0
C788 C 0.57884 0.31434 1.00258 0.0
C789 C 0.55103 0.30073 0.02019 0.0
C790 C 0.54093 0.31346 0.00428 0.0
C791 C 0.54993 0.32639 0.98703 0.0
C792 C 0.56865 0.32681 0.98613 0.0
C793 C 0.521 0.3133 0.00542 0.0
C794 C 0.51143 0.31315 0.97829 0.0
C795 C 0.51143 0.31304 0.0329 0.0
C796 C 0.52059 0.31445 0.06234 0.0
C797 C 0.53215 0.3289 0.06846 0.0
C798 C 0.54082 0.33009 0.09618 0.0
C799 C 0.53794 0.317 0.11807 0.0
C800 C 0.52633 0.3027 0.11231 0.0
C801 C 0.51764 0.30143 0.0846 0.0
H802 H 0.54466 0.31795 0.13952 0.0
H803 H 0.45864 0.31078 0.87167 0.0
H804 H 0.66547 0.42822 0.97962 0.0
H805 H 0.66666 0.46097 0.97905 0.0
H806 H 0.71634 0.45963 0.02842 0.0
H807 H 0.71503 0.42682 0.02967 0.0
H808 H 0.69295 0.48439 0.05112 0.0
H809 H 0.71661 0.46862 0.95445 0.0
H810 H 0.71666 0.45345 0.90529 0.0
H811 H 0.6683 0.481 0.88084 0.0
H812 H 0.66782 0.49616 0.93005 0.0
H813 H 0.71363 0.57653 0.03145 0.0
H814 H 0.71487 0.54382 0.03103 0.0
H815 H 0.66762 0.54216 0.97536 0.0
H816 H 0.66683 0.57485 0.97434 0.0
H817 H 0.69103 0.51872 0.95584 0.0
H818 H 0.66625 0.53349 0.0522 0.0
H819 H 0.66521 0.54841 0.10157 0.0
H820 H 0.71436 0.52257 0.12683 0.0
H821 H 0.71582 0.50768 0.07744 0.0
C822 C 0.67659 0.43489 0.99054 0.0
C823 C 0.69016 0.42492 0.00472 0.0
C824 C 0.67734 0.45361 0.98995 0.0
C825 C 0.69168 0.46274 0.00344 0.0
C826 C 0.70518 0.45284 0.01779 0.0
C827 C 0.70449 0.4341 0.01829 0.0
C828 C 0.69242 0.48263 1.00291 0.0
C829 C 0.69281 0.49191 0.03029 0.0
C830 C 0.69179 0.49242 0.97574 0.0
C831 C 0.6921 0.4834 0.94605 0.0
C832 C 0.70591 0.47134 0.93869 0.0
C833 C 0.70603 0.46276 0.91079 0.0
C834 C 0.69247 0.46623 0.88998 0.0
C835 C 0.67879 0.47832 0.897 0.0
C836 C 0.6786 0.48692 0.92487 0.0
C837 C 0.70362 0.56924 0.01879 0.0
C838 C 0.69008 0.57839 1.00302 0.0
C839 C 0.70423 0.5505 0.01887 0.0
C840 C 0.69117 0.54048 0.00354 0.0
C841 C 0.67779 0.54957 0.98748 0.0
C842 C 0.67725 0.56829 0.9872 0.0
C843 C 0.69144 0.52055 0.00409 0.0
C844 C 0.69124 0.51123 0.9767 0.0
C845 C 0.69211 0.51072 0.03127 0.0
C846 C 0.69124 0.51963 0.06101 0.0
C847 C 0.67691 0.5311 0.0682 0.0
C848 C 0.67623 0.53953 0.0962 0.0
C849 C 0.68973 0.53648 0.11729 0.0
C850 C 0.70392 0.52495 0.11045 0.0
C851 C 0.70468 0.5165 0.08247 0.0
H852 H 0.68918 0.54301 0.13896 0.0
H853 H 0.69258 0.45957 0.8684 0.0
H854 H 0.42813 0.69677 0.95443 0.0
H855 H 0.46074 0.69818 0.95412 0.0
H856 H 0.46157 0.68857 0.04957 0.0
H857 H 0.4289 0.68848 0.05049 0.0
H858 H 0.48553 0.71223 0.03706 0.0
H859 H 0.47049 0.65487 0.99539 0.0
H860 H 0.45558 0.63387 0.96069 0.0
H861 H 0.48187 0.65887 0.88585 0.0
H862 H 0.49677 0.68018 0.92009 0.0
H863 H 0.57586 0.68217 0.04863 0.0
H864 H 0.54308 0.68363 0.04782 0.0
H865 H 0.54464 0.70165 0.95591 0.0
H866 H 0.57745 0.70003 0.95646 0.0
H867 H 0.51982 0.67441 0.96563 0.0
H868 H 0.53583 0.73109 0.00966 0.0
H869 H 0.55111 0.7508 0.04597 0.0
H870 H 0.52322 0.72519 0.11858 0.0
H871 H 0.50795 0.70514 0.08272 0.0
C872 C 0.43517 0.69528 0.97551 0.0
C873 C 0.42574 0.69242 1.00249 0.0
C874 C 0.4539 0.69582 0.9752 0.0
C875 C 0.46369 0.6931 1.00171 0.0
C876 C 0.45435 0.69058 0.02875 0.0
C877 C 0.43562 0.69032 0.02917 0.0
C878 C 0.48365 0.69283 1.00133 0.0
C879 C 0.49299 0.70378 0.02166 0.0
C880 C 0.49349 0.68207 0.9809 0.0
C881 C 0.4846 0.66923 0.96028 0.0
C882 C 0.47299 0.65597 0.97151 0.0
C883 C 0.46456 0.644 0.95194 0.0
C884 C 0.46774 0.64507 0.92108 0.0
C885 C 0.4794 0.65808 0.90975 0.0
C886 C 0.48785 0.67009 0.92923 0.0
C887 C 0.56921 0.68639 0.02822 0.0
C888 C 0.57922 0.69102 1.00262 0.0
C889 C 0.5505 0.68734 0.02786 0.0
C890 C 0.54144 0.69288 1.00188 0.0
C891 C 0.55138 0.69739 0.97621 0.0
C892 C 0.57011 0.69659 0.97663 0.0
C893 C 0.52158 0.69371 1.0014 0.0
C894 C 0.51229 0.68287 0.98092 0.0
C895 C 0.5118 0.70437 0.02195 0.0
C896 C 0.52087 0.71651 0.04352 0.0
C897 C 0.53306 0.72957 0.03339 0.0
C898 C 0.54169 0.74082 0.05389 0.0
C899 C 0.53817 0.73922 0.08457 0.0
C900 C 0.52595 0.7264 0.09481 0.0
C901 C 0.51729 0.7151 0.07441 0.0
H902 H 0.54487 0.74794 0.1004 0.0
H903 H 0.46119 0.63579 0.90596 0.0
H904 H 0.7929 0.92686 0.46789 0.0
H905 H 0.79168 0.95967 0.46841 0.0
H906 H 0.83114 0.96084 0.53906 0.0
H907 H 0.83227 0.92803 0.53889 0.0
H908 H 0.80283 0.9841 0.54942 0.0
H909 H 0.84373 0.9697 0.46931 0.0
H910 H 0.8531 0.9548 0.42245 0.0
H911 H 0.81034 0.98074 0.37484 0.0
H912 H 0.80055 0.9956 0.42155 0.0
H913 H 0.82899 0.07502 0.54318 0.0
H914 H 0.8281 0.04236 0.54279 0.0
H915 H 0.79355 0.04346 0.46524 0.0
H916 H 0.79518 0.07617 0.46445 0.0
H917 H 0.81821 0.01885 0.45803 0.0
H918 H 0.7775 0.03392 0.53707 0.0
H919 H 0.76758 0.04872 0.5837 0.0
H920 H 0.8088 0.02151 0.63306 0.0
H921 H 0.81914 0.00673 0.58664 0.0
C922 C 0.8012 0.93411 0.4837 0.0
C923 C 0.81274 0.92487 0.50327 0.0
C924 C 0.80058 0.95285 0.48383 0.0
C925 C 0.81144 0.96269 0.5036 0.0
C926 C 0.82269 0.9535 0.52357 0.0
C927 C 0.82342 0.93477 0.5233 0.0
C928 C 0.81122 0.98258 0.50327 0.0
C929 C 0.80637 0.99173 0.52956 0.0
C930 C 0.81539 0.99248 0.4771 0.0
C931 C 0.82129 0.98361 0.44899 0.0
C932 C 0.83623 0.97211 0.4489 0.0
C933 C 0.84163 0.96369 0.42236 0.0
C934 C 0.83229 0.96678 0.3957 0.0
C935 C 0.81755 0.97834 0.39552 0.0
C936 C 0.81207 0.98677 0.42201 0.0
C937 C 0.82134 0.06836 0.52582 0.0
C938 C 0.81216 0.0783 0.50383 0.0
C939 C 0.82065 0.04964 0.52588 0.0
C940 C 0.81053 0.04041 0.50427 0.0
C941 C 0.80138 0.05027 0.48225 0.0
C942 C 0.80218 0.069 0.48202 0.0
C943 C 0.80985 0.02048 0.50426 0.0
C944 C 0.81455 0.01128 0.4779 0.0
C945 C 0.80543 0.01053 0.53032 0.0
C946 C 0.79919 0.01934 0.55832 0.0
C947 C 0.78454 0.03119 0.55783 0.0
C948 C 0.77882 0.03956 0.58423 0.0
C949 C 0.78758 0.03609 0.61131 0.0
C950 C 0.80204 0.0242 0.61206 0.0
C951 C 0.80782 0.01581 0.58572 0.0
H952 H 0.78313 0.04258 0.63172 0.0
H953 H 0.8365 0.96026 0.37518 0.0
H954 H 0.07604 0.79589 0.46248 0.0
H955 H 0.04329 0.79466 0.46305 0.0
H956 H 0.04233 0.82904 0.54088 0.0
H957 H 0.07508 0.82979 0.54115 0.0
H958 H 0.01886 0.80213 0.54687 0.0
H959 H 0.03351 0.84536 0.4704 0.0
H960 H 0.04834 0.85609 0.4243 0.0
H961 H 0.02183 0.81516 0.37311 0.0
H962 H 0.00702 0.80403 0.419 0.0
H963 H 0.92823 0.82955 0.54359 0.0
H964 H 0.9609 0.82854 0.54266 0.0
H965 H 0.95927 0.79582 0.46288 0.0
H966 H 0.92657 0.79755 0.46273 0.0
H967 H 0.98409 0.82068 0.45727 0.0
H968 H 0.9687 0.77792 0.53329 0.0
H969 H 0.95384 0.7671 0.57931 0.0
H970 H 0.98171 0.80678 0.63124 0.0
H971 H 0.99656 0.818 0.58546 0.0
C972 C 0.06888 0.80302 0.47994 0.0
C973 C 0.07821 0.81302 0.5017 0.0
C974 C 0.05014 0.80245 0.48005 0.0
C975 C 0.04034 0.81196 0.50177 0.0
C976 C 0.04961 0.82166 0.52383 0.0
C977 C 0.06833 0.82222 0.52378 0.0
C978 C 0.02042 0.8119 0.50148 0.0
C979 C 0.01125 0.80638 0.52739 0.0
C980 C 0.01048 0.81701 0.47581 0.0
C981 C 0.0193 0.82375 0.44818 0.0
C982 C 0.03094 0.83856 0.44935 0.0
C983 C 0.03933 0.84473 0.42325 0.0
C984 C 0.03607 0.83628 0.39581 0.0
C985 C 0.02437 0.82168 0.39439 0.0
C986 C 0.01596 0.81544 0.42043 0.0
C987 C 0.93478 0.82228 0.52564 0.0
C988 C 0.9247 0.81361 0.50325 0.0
C989 C 0.9535 0.82153 0.52537 0.0
C990 C 0.96257 0.81186 0.50298 0.0
C991 C 0.95258 0.80327 0.48049 0.0
C992 C 0.93385 0.80413 0.48062 0.0
C993 C 0.98249 0.81099 0.50273 0.0
C994 C 0.99167 0.81635 0.47671 0.0
C995 C 0.99245 0.80569 0.52829 0.0
C996 C 0.98362 0.79889 0.55589 0.0
C997 C 0.97157 0.78442 0.55449 0.0
C998 C 0.96316 0.7782 0.58054 0.0
C999 C 0.9668 0.78627 0.60817 0.0
C1000 C 0.97889 0.80055 0.60982 0.0
C1001 C 0.98732 0.80683 0.58383 0.0
H1002 H 0.96028 0.78144 0.62831 0.0
H1003 H 0.04257 0.84108 0.37563 0.0
H1004 H 0.19683 0.07705 0.45453 0.0
H1005 H 0.19859 0.04435 0.45294 0.0
H1006 H 0.19302 0.04227 0.54923 0.0
H1007 H 0.19184 0.07501 0.55111 0.0
H1008 H 0.21799 0.01892 0.53028 0.0
H1009 H 0.1575 0.03375 0.50372 0.0
H1010 H 0.13366 0.04892 0.47508 0.0
H1011 H 0.1522 0.02398 0.39393 0.0
H1012 H 0.17633 0.00885 0.42205 0.0
H1013 H 0.1898 0.92823 0.54597 0.0
H1014 H 0.19173 0.9609 0.54601 0.0
H1015 H 0.20029 0.96061 0.45032 0.0
H1016 H 0.19884 0.92786 0.4501 0.0
H1017 H 0.17463 0.98505 0.46774 0.0
H1018 H 0.23459 0.96922 0.49561 0.0
H1019 H 0.25786 0.95382 0.52522 0.0
H1020 H 0.23961 0.98042 0.60506 0.0
H1021 H 0.21604 0.99579 0.57599 0.0
C1022 C 0.19624 0.06966 0.47542 0.0
C1023 C 0.19412 0.07866 0.50295 0.0
C1024 C 0.19707 0.05095 0.47444 0.0
C1025 C 0.19569 0.04084 0.50093 0.0
C1026 C 0.19403 0.04979 0.5285 0.0
C1027 C 0.19321 0.0685 0.5295 0.0
C1028 C 0.19565 0.02093 0.49987 0.0
C1029 C 0.20838 0.01151 0.51687 0.0
C1030 C 0.18334 0.01126 0.4819 0.0
C1031 C 0.16884 0.02032 0.46494 0.0
C1032 C 0.15659 0.03162 0.47973 0.0
C1033 C 0.14301 0.04019 0.4636 0.0
C1034 C 0.14145 0.03746 0.43269 0.0
C1035 C 0.15344 0.02611 0.41787 0.0
C1036 C 0.16707 0.01752 0.43389 0.0
C1037 C 0.1924 0.93504 0.52497 0.0
C1038 C 0.19421 0.92534 0.49803 0.0
C1039 C 0.19343 0.95375 0.52504 0.0
C1040 C 0.19627 0.96317 0.4982 0.0
C1041 C 0.19805 0.95359 0.47127 0.0
C1042 C 0.19713 0.93487 0.47119 0.0
C1043 C 0.19693 0.98306 0.49818 0.0
C1044 C 0.18429 0.99247 0.48103 0.0
C1045 C 0.20925 0.99271 0.51613 0.0
C1046 C 0.22344 0.98353 0.53366 0.0
C1047 C 0.23544 0.97168 0.51953 0.0
C1048 C 0.2487 0.96297 0.5362 0.0
C1049 C 0.25018 0.96611 0.56701 0.0
C1050 C 0.23843 0.97799 0.5812 0.0
C1051 C 0.22513 0.98671 0.56463 0.0
H1052 H 0.26046 0.95936 0.57989 0.0
H1053 H 0.13092 0.0441 0.42024 0.0
H1054 H 0.92572 0.21827 0.49175 0.0
H1055 H 0.95844 0.21965 0.49294 0.0
H1056 H 0.96059 0.16346 0.51553 0.0
H1057 H 0.92791 0.16216 0.51579 0.0
H1058 H 0.98378 0.18136 0.54833 0.0
H1059 H 0.96914 0.17886 0.44357 0.0
H1060 H 0.95421 0.18836 0.39687 0.0
H1061 H 0.97964 0.23988 0.40281 0.0
H1062 H 0.99455 0.23077 0.4498 0.0
H1063 H 0.07388 0.16225 0.50889 0.0
H1064 H 0.04111 0.16347 0.50971 0.0
H1065 H 0.04304 0.22084 0.49812 0.0
H1066 H 0.0759 0.21969 0.49706 0.0
H1067 H 0.01806 0.20388 0.46062 0.0
H1068 H 0.03383 0.20509 0.56494 0.0
H1069 H 0.04909 0.19455 0.6107 0.0
H1070 H 0.02168 0.14407 0.60436 0.0
H1071 H 0.00644 0.15422 0.55827 0.0
C1072 C 0.93314 0.20624 0.49732 0.0
C1073 C 0.92414 0.19007 0.50352 0.0
C1074 C 0.95187 0.20701 0.49766 0.0
C1075 C 0.96201 0.19159 0.5039 0.0
C1076 C 0.95307 0.17551 0.51052 0.0
C1077 C 0.93436 0.17475 0.51035 0.0
C1078 C 0.98193 0.19215 0.50358 0.0
C1079 C 0.99125 0.1861 0.529 0.0
C1080 C 0.99173 0.1987 0.47864 0.0
C1081 C 0.9828 0.2042 0.45037 0.0
C1082 C 0.97144 0.19227 0.43505 0.0
C1083 C 0.963 0.19757 0.4085 0.0
C1084 C 0.96593 0.21473 0.39693 0.0
C1085 C 0.97735 0.2266 0.41183 0.0
C1086 C 0.98581 0.22138 0.43841 0.0
C1087 C 0.06733 0.17511 0.50631 0.0
C1088 C 0.07745 0.19088 0.5029 0.0
C1089 C 0.04862 0.17581 0.507 0.0
C1090 C 0.03967 0.19227 0.50421 0.0
C1091 C 0.04971 0.20802 0.50039 0.0
C1092 C 0.06845 0.20735 0.49997 0.0
C1093 C 0.01981 0.19296 0.50522 0.0
C1094 C 0.01053 0.19923 0.47996 0.0
C1095 C 0.01005 0.18647 0.53019 0.0
C1096 C 0.01912 0.18036 0.55799 0.0
C1097 C 0.03117 0.19169 0.57316 0.0
C1098 C 0.03979 0.18579 0.59918 0.0
C1099 C 0.03639 0.16863 0.61039 0.0
C1100 C 0.02431 0.15735 0.59563 0.0
C1101 C 0.01567 0.16318 0.56957 0.0
H1102 H 0.04308 0.16409 0.63054 0.0
H1103 H 0.95939 0.21881 0.37637 0.0
H1104 H 0.20118 0.24313 0.358 0.0
H1105 H 0.21374 0.2561 0.31231 0.0
H1106 H 0.25473 0.21532 0.31111 0.0
H1107 H 0.2428 0.20279 0.35764 0.0
H1108 H 0.26897 0.24654 0.29812 0.0
H1109 H 0.21781 0.21372 0.26386 0.0
H1110 H 0.18605 0.20462 0.26242 0.0
H1111 H 0.17071 0.25839 0.2396 0.0
H1112 H 0.20238 0.26788 0.24132 0.0
H1113 H 0.29613 0.25731 0.14611 0.0
H1114 H 0.28334 0.24511 0.19223 0.0
H1115 H 0.24794 0.2906 0.19893 0.0
H1116 H 0.26106 0.30329 0.15334 0.0
H1117 H 0.2308 0.25736 0.20881 0.0
H1118 H 0.28283 0.28958 0.24266 0.0
H1119 H 0.31487 0.2977 0.24296 0.0
H1120 H 0.3288 0.24347 0.26531 0.0
H1121 H 0.29684 0.23497 0.26469 0.0
C1122 C 0.213 0.23702 0.34826 0.0
C1123 C 0.22093 0.22186 0.36155 0.0
C1124 C 0.22004 0.24434 0.32188 0.0
C1125 C 0.23503 0.23654 0.30796 0.0
C1126 C 0.24311 0.22153 0.32133 0.0
C1127 C 0.23614 0.21427 0.34781 0.0
C1128 C 0.2424 0.24409 0.27962 0.0
C1129 C 0.26065 0.24867 0.27849 0.0
C1130 C 0.23151 0.24722 0.25411 0.0
C1131 C 0.21245 0.24155 0.25302 0.0
C1132 C 0.20765 0.22364 0.25877 0.0
C1133 C 0.18967 0.2184 0.25786 0.0
C1134 C 0.17636 0.23093 0.251 0.0
C1135 C 0.18103 0.24871 0.24496 0.0
C1136 C 0.19899 0.25402 0.24587 0.0
C1137 C 0.28578 0.26488 0.15751 0.0
C1138 C 0.27974 0.28139 0.14598 0.0
C1139 C 0.27841 0.25781 0.1838 0.0
C1140 C 0.26479 0.26702 0.19909 0.0
C1141 C 0.25843 0.28327 0.18741 0.0
C1142 C 0.2659 0.29045 0.16124 0.0
C1143 C 0.2573 0.25972 0.22742 0.0
C1144 C 0.23906 0.25521 0.22851 0.0
C1145 C 0.26822 0.2565 0.25278 0.0
C1146 C 0.28745 0.2616 0.25333 0.0
C1147 C 0.29273 0.27935 0.24739 0.0
C1148 C 0.31088 0.28403 0.24766 0.0
C1149 C 0.32387 0.2711 0.25407 0.0
C1150 C 0.31873 0.25347 0.2603 0.0
C1151 C 0.3006 0.24872 0.26002 0.0
H1152 H 0.33791 0.27475 0.25428 0.0
H1153 H 0.16245 0.22685 0.25031 0.0
H1154 H 0.74854 0.27893 0.12732 0.0
H1155 H 0.7615 0.26664 0.17338 0.0
H1156 H 0.70899 0.26569 0.21415 0.0
H1157 H 0.69616 0.27862 0.16851 0.0
H1158 H 0.73123 0.27738 0.25305 0.0
H1159 H 0.73148 0.22672 0.18713 0.0
H1160 H 0.73805 0.20985 0.14082 0.0
H1161 H 0.79449 0.21725 0.15501 0.0
H1162 H 0.78825 0.23439 0.20122 0.0
H1163 H 0.75376 0.21712 0.37261 0.0
H1164 H 0.74112 0.22998 0.32686 0.0
H1165 H 0.79422 0.24273 0.29529 0.0
H1166 H 0.80702 0.2307 0.34147 0.0
H1167 H 0.77193 0.22479 0.25226 0.0
H1168 H 0.77044 0.27538 0.31955 0.0
H1169 H 0.76278 0.29104 0.36657 0.0
H1170 H 0.70681 0.28187 0.35021 0.0
H1171 H 0.71416 0.26591 0.30328 0.0
C1172 C 0.73978 0.27596 0.14607 0.0
C1173 C 0.72135 0.27968 0.14434 0.0
C1174 C 0.74717 0.26889 0.17238 0.0
C1175 C 0.73621 0.26495 0.19723 0.0
C1176 C 0.71777 0.26861 0.1954 0.0
C1177 C 0.71043 0.27597 0.1693 0.0
C1178 C 0.74396 0.25737 0.22534 0.0
C1179 C 0.73991 0.26571 0.25281 0.0
C1180 C 0.75559 0.24233 0.22521 0.0
C1181 C 0.75939 0.23199 0.19748 0.0
C1182 C 0.74529 0.22486 0.18026 0.0
C1183 C 0.74895 0.21524 0.15404 0.0
C1184 C 0.76667 0.21252 0.14493 0.0
C1185 C 0.78077 0.21939 0.16207 0.0
C1186 C 0.77718 0.22905 0.18829 0.0
C1187 C 0.76279 0.22292 0.35626 0.0
C1188 C 0.78147 0.22279 0.36093 0.0
C1189 C 0.75552 0.23016 0.32999 0.0
C1190 C 0.76675 0.23729 0.3077 0.0
C1191 C 0.78534 0.23718 0.31214 0.0
C1192 C 0.79262 0.23017 0.33855 0.0
C1193 C 0.75909 0.24478 0.27966 0.0
C1194 C 0.7632 0.23643 0.2523 0.0
C1195 C 0.74732 0.25963 0.27992 0.0
C1196 C 0.74287 0.26928 0.30806 0.0
C1197 C 0.75651 0.27656 0.32611 0.0
C1198 C 0.75222 0.28552 0.35272 0.0
C1199 C 0.73432 0.28741 0.36141 0.0
C1200 C 0.72067 0.28038 0.34347 0.0
C1201 C 0.72489 0.27138 0.31685 0.0
H1202 H 0.73102 0.29435 0.38202 0.0
H1203 H 0.76948 0.20506 0.12463 0.0
H1204 H 0.77869 0.75299 0.37777 0.0
H1205 H 0.76542 0.74051 0.33237 0.0
H1206 H 0.76808 0.79242 0.28996 0.0
H1207 H 0.78012 0.80529 0.33595 0.0
H1208 H 0.73829 0.77777 0.27538 0.0
H1209 H 0.79915 0.75737 0.27541 0.0
H1210 H 0.82619 0.74277 0.29578 0.0
H1211 H 0.79786 0.6928 0.30217 0.0
H1212 H 0.77057 0.70716 0.28219 0.0
H1213 H 0.72989 0.74667 0.12418 0.0
H1214 H 0.74242 0.75915 0.1706 0.0
H1215 H 0.72943 0.71024 0.21739 0.0
H1216 H 0.71688 0.69772 0.17112 0.0
H1217 H 0.76437 0.72315 0.2292 0.0
H1218 H 0.70345 0.74474 0.22753 0.0
H1219 H 0.67739 0.76007 0.20522 0.0
H1220 H 0.70755 0.80899 0.19942 0.0
H1221 H 0.73389 0.79387 0.22131 0.0
C1222 C 0.77621 0.76186 0.35902 0.0
C1223 C 0.78068 0.78018 0.36065 0.0
C1224 C 0.76883 0.75461 0.33281 0.0
C1225 C 0.76608 0.76541 0.30738 0.0
C1226 C 0.77018 0.78375 0.30913 0.0
C1227 C 0.7773 0.79106 0.33543 0.0
C1228 C 0.75894 0.75766 0.27896 0.0
C1229 C 0.74419 0.76597 0.26514 0.0
C1230 C 0.76638 0.74207 0.26564 0.0
C1231 C 0.78277 0.73338 0.27758 0.0
C1232 C 0.79865 0.7433 0.28136 0.0
C1233 C 0.81403 0.73506 0.2928 0.0
C1234 C 0.81373 0.71688 0.30034 0.0
C1235 C 0.79807 0.70689 0.29636 0.0
C1236 C 0.78265 0.71506 0.28496 0.0
C1237 C 0.72983 0.73855 0.14433 0.0
C1238 C 0.72235 0.72125 0.14407 0.0
C1239 C 0.73689 0.74572 0.17084 0.0
C1240 C 0.73674 0.73565 0.19747 0.0
C1241 C 0.72964 0.71824 0.1971 0.0
C1242 C 0.72239 0.71115 0.17072 0.0
C1243 C 0.74386 0.74331 0.22581 0.0
C1244 C 0.75856 0.73497 0.23954 0.0
C1245 C 0.73655 0.759 0.2388 0.0
C1246 C 0.7207 0.76812 0.22577 0.0
C1247 C 0.70458 0.75873 0.22126 0.0
C1248 C 0.68975 0.76738 0.20874 0.0
C1249 C 0.69083 0.78548 0.20083 0.0
C1250 C 0.70674 0.79496 0.20551 0.0
C1251 C 0.72162 0.78636 0.218 0.0
H1252 H 0.67933 0.79216 0.19114 0.0
H1253 H 0.82565 0.71053 0.3092 0.0
H1254 H 0.20538 0.7573 0.35867 0.0
H1255 H 0.21796 0.74495 0.31262 0.0
H1256 H 0.25577 0.78865 0.3084 0.0
H1257 H 0.24249 0.80174 0.35341 0.0
H1258 H 0.2434 0.78275 0.25509 0.0
H1259 H 0.26772 0.74518 0.33178 0.0
H1260 H 0.26713 0.72524 0.3759 0.0
H1261 H 0.23496 0.68733 0.3274 0.0
H1262 H 0.23514 0.70716 0.28309 0.0
H1263 H 0.30284 0.74103 0.1503 0.0
H1264 H 0.29006 0.75383 0.196 0.0
H1265 H 0.24612 0.71641 0.19139 0.0
H1266 H 0.25837 0.70393 0.14501 0.0
H1267 H 0.26208 0.71902 0.24894 0.0
H1268 H 0.23845 0.75763 0.17188 0.0
H1269 H 0.24049 0.77776 0.12813 0.0
H1270 H 0.27357 0.81401 0.17848 0.0
H1271 H 0.27194 0.79395 0.22243 0.0
C1272 C 0.21622 0.76445 0.34782 0.0
C1273 C 0.22289 0.78056 0.35994 0.0
C1274 C 0.22359 0.7572 0.32164 0.0
C1275 C 0.23805 0.76568 0.30722 0.0
C1276 C 0.24469 0.78179 0.31915 0.0
C1277 C 0.2372 0.78916 0.34516 0.0
C1278 C 0.24603 0.75792 0.27945 0.0
C1279 C 0.24772 0.76888 0.25396 0.0
C1280 C 0.25141 0.73972 0.27764 0.0
C1281 C 0.2513 0.72774 0.30422 0.0
C1282 C 0.2604 0.73265 0.3306 0.0
C1283 C 0.26016 0.72136 0.35563 0.0
C1284 C 0.25098 0.70505 0.35448 0.0
C1285 C 0.24205 0.69998 0.32826 0.0
C1286 C 0.24223 0.71123 0.30318 0.0
C1287 C 0.29032 0.73565 0.15865 0.0
C1288 C 0.28164 0.72143 0.14374 0.0
C1289 C 0.2831 0.74294 0.18493 0.0
C1290 C 0.26712 0.73611 0.19701 0.0
C1291 C 0.25851 0.72182 0.18249 0.0
C1292 C 0.26561 0.71464 0.15602 0.0
C1293 C 0.2594 0.74386 0.22483 0.0
C1294 C 0.25777 0.73289 0.25024 0.0
C1295 C 0.25429 0.76209 0.2267 0.0
C1296 C 0.25522 0.7742 0.20034 0.0
C1297 C 0.24629 0.76982 0.17355 0.0
C1298 C 0.24734 0.78123 0.14873 0.0
C1299 C 0.25719 0.79713 0.1505 0.0
C1300 C 0.26597 0.80167 0.17713 0.0
C1301 C 0.26497 0.7903 0.202 0.0
H1302 H 0.25799 0.80595 0.13126 0.0
H1303 H 0.25081 0.69633 0.37388 0.0
H1304 H 0.21761 0.75559 0.63198 0.0
H1305 H 0.23027 0.74261 0.67742 0.0
H1306 H 0.23898 0.79562 0.71331 0.0
H1307 H 0.22754 0.80874 0.66706 0.0
H1308 H 0.26635 0.77632 0.72596 0.0
H1309 H 0.20322 0.76754 0.73629 0.0
H1310 H 0.17294 0.75767 0.72153 0.0
H1311 H 0.19108 0.70309 0.71756 0.0
H1312 H 0.22154 0.71267 0.73191 0.0
H1313 H 0.27703 0.74819 0.8786 0.0
H1314 H 0.26392 0.76138 0.83318 0.0
H1315 H 0.26766 0.71027 0.78838 0.0
H1316 H 0.28095 0.69706 0.83359 0.0
H1317 H 0.23373 0.72873 0.78142 0.0
H1318 H 0.29742 0.739 0.77162 0.0
H1319 H 0.32689 0.74996 0.78864 0.0
H1320 H 0.3061 0.80352 0.79454 0.0
H1321 H 0.27641 0.79282 0.77798 0.0
C1322 C 0.22245 0.76454 0.64928 0.0
C1323 C 0.22143 0.78327 0.64571 0.0
C1324 C 0.22946 0.75707 0.67554 0.0
C1325 C 0.23527 0.76811 0.69917 0.0
C1326 C 0.23448 0.78679 0.69555 0.0
C1327 C 0.22771 0.79428 0.66913 0.0
C1328 C 0.24235 0.76022 0.72749 0.0
C1329 C 0.25905 0.7661 0.73825 0.0
C1330 C 0.23302 0.74668 0.74347 0.0
C1331 C 0.21471 0.74085 0.73489 0.0
C1332 C 0.20078 0.75345 0.73205 0.0
C1333 C 0.18358 0.7479 0.72379 0.0
C1334 C 0.1801 0.72977 0.71853 0.0
C1335 C 0.1938 0.71713 0.7216 0.0
C1336 C 0.21104 0.72261 0.72982 0.0
C1337 C 0.27493 0.73976 0.85911 0.0
C1338 C 0.28004 0.72163 0.85953 0.0
C1339 C 0.26753 0.74732 0.8332 0.0
C1340 C 0.26491 0.7368 0.80743 0.0
C1341 C 0.26959 0.71859 0.80805 0.0
C1342 C 0.27725 0.71111 0.83377 0.0
C1343 C 0.2576 0.74487 0.77962 0.0
C1344 C 0.24091 0.73899 0.76903 0.0
C1345 C 0.26678 0.75861 0.76407 0.0
C1346 C 0.28465 0.76507 0.77387 0.0
C1347 C 0.29909 0.75308 0.77681 0.0
C1348 C 0.31584 0.75926 0.78632 0.0
C1349 C 0.31835 0.77742 0.79275 0.0
C1350 C 0.30413 0.78946 0.7896 0.0
C1351 C 0.28734 0.78334 0.78013 0.0
H1352 H 0.33133 0.78218 0.80011 0.0
H1353 H 0.16677 0.7255 0.71214 0.0
H1354 H 0.27385 0.25717 0.88184 0.0
H1355 H 0.26076 0.24447 0.8365 0.0
H1356 H 0.27491 0.29223 0.78729 0.0
H1357 H 0.28688 0.30557 0.83301 0.0
H1358 H 0.24346 0.28234 0.77085 0.0
H1359 H 0.29929 0.25164 0.78209 0.0
H1360 H 0.32246 0.23387 0.80798 0.0
H1361 H 0.28542 0.19021 0.81802 0.0
H1362 H 0.26194 0.20782 0.79254 0.0
H1363 H 0.23522 0.24343 0.6247 0.0
H1364 H 0.24822 0.25629 0.67045 0.0
H1365 H 0.22338 0.21465 0.72317 0.0
H1366 H 0.21025 0.2018 0.67755 0.0
H1367 H 0.26041 0.22127 0.737 0.0
H1368 H 0.2047 0.2533 0.72444 0.0
H1369 H 0.18279 0.27152 0.69646 0.0
H1370 H 0.2218 0.31342 0.68626 0.0
H1371 H 0.24405 0.29532 0.71382 0.0
C1372 C 0.27396 0.26513 0.86154 0.0
C1373 C 0.28154 0.28243 0.86124 0.0
C1374 C 0.26669 0.25771 0.83543 0.0
C1375 C 0.26715 0.26721 0.80823 0.0
C1376 C 0.27449 0.28455 0.80791 0.0
C1377 C 0.28154 0.29209 0.83409 0.0
C1378 C 0.25984 0.25919 0.78018 0.0
C1379 C 0.2474 0.26909 0.7633 0.0
C1380 C 0.26471 0.24176 0.77039 0.0
C1381 C 0.2788 0.23112 0.78567 0.0
C1382 C 0.29604 0.2383 0.79002 0.0
C1383 C 0.30924 0.22825 0.80459 0.0
C1384 C 0.3054 0.21094 0.81471 0.0
C1385 C 0.28836 0.20363 0.81021 0.0
C1386 C 0.27511 0.21363 0.79568 0.0
C1387 C 0.23263 0.23698 0.64604 0.0
C1388 C 0.22169 0.22166 0.64762 0.0
C1389 C 0.23998 0.24437 0.67212 0.0
C1390 C 0.23667 0.23645 0.70016 0.0
C1391 C 0.22606 0.22095 0.70174 0.0
C1392 C 0.2185 0.21371 0.67572 0.0
C1393 C 0.24414 0.24445 0.72793 0.0
C1394 C 0.25657 0.23453 0.74467 0.0
C1395 C 0.23948 0.26194 0.73734 0.0
C1396 C 0.22609 0.27287 0.72092 0.0
C1397 C 0.20866 0.26633 0.716 0.0
C1398 C 0.19617 0.27665 0.70027 0.0
C1399 C 0.20092 0.29359 0.68952 0.0
C1400 C 0.21815 0.30028 0.69456 0.0
C1401 C 0.2307 0.29 0.71026 0.0
H1402 H 0.19123 0.30156 0.67734 0.0
H1403 H 0.31563 0.20318 0.82598 0.0
H1404 H 0.72104 0.25463 0.87637 0.0
H1405 H 0.73308 0.24148 0.83023 0.0
H1406 H 0.74193 0.2945 0.79433 0.0
H1407 H 0.72926 0.30762 0.83998 0.0
H1408 H 0.72872 0.27495 0.75267 0.0
H1409 H 0.77682 0.26647 0.82252 0.0
H1410 H 0.79108 0.25643 0.8695 0.0
H1411 H 0.77714 0.20189 0.84929 0.0
H1412 H 0.76258 0.21164 0.80236 0.0
H1413 H 0.78835 0.24902 0.63473 0.0
H1414 H 0.7757 0.26176 0.68064 0.0
H1415 H 0.7584 0.20921 0.70856 0.0
H1416 H 0.77047 0.19638 0.66235 0.0
H1417 H 0.77599 0.22818 0.75385 0.0
H1418 H 0.72829 0.23759 0.6829 0.0
H1419 H 0.71507 0.24836 0.63552 0.0
H1420 H 0.7299 0.30238 0.65772 0.0
H1421 H 0.74345 0.29189 0.70506 0.0
C1422 C 0.72569 0.26345 0.85868 0.0
C1423 C 0.72427 0.28214 0.86176 0.0
C1424 C 0.73263 0.25593 0.83233 0.0
C1425 C 0.73871 0.26697 0.80883 0.0
C1426 C 0.73733 0.28567 0.81202 0.0
C1427 C 0.73012 0.29316 0.83813 0.0
C1428 C 0.74616 0.25911 0.78069 0.0
C1429 C 0.73925 0.26491 0.75301 0.0
C1430 C 0.75965 0.24572 0.78093 0.0
C1431 C 0.76846 0.23981 0.80907 0.0
C1432 C 0.77669 0.25235 0.8282 0.0
C1433 C 0.78484 0.24671 0.8548 0.0
C1434 C 0.78498 0.22854 0.86241 0.0
C1435 C 0.777 0.21596 0.84339 0.0
C1436 C 0.76881 0.22154 0.81677 0.0
C1437 C 0.78162 0.24017 0.65036 0.0
C1438 C 0.78047 0.22162 0.6447 0.0
C1439 C 0.77448 0.24748 0.6767 0.0
C1440 C 0.76608 0.23644 0.69798 0.0
C1441 C 0.76492 0.21796 0.69251 0.0
C1442 C 0.77192 0.21064 0.66609 0.0
C1443 C 0.7586 0.24412 0.72608 0.0
C1444 C 0.76549 0.23825 0.75367 0.0
C1445 C 0.74526 0.25759 0.72576 0.0
C1446 C 0.73704 0.26393 0.69738 0.0
C1447 C 0.72887 0.25174 0.67756 0.0
C1448 C 0.72129 0.2578 0.65074 0.0
C1449 C 0.72169 0.27603 0.64358 0.0
C1450 C 0.72962 0.28825 0.66328 0.0
C1451 C 0.73724 0.28226 0.69012 0.0
H1452 H 0.71582 0.28069 0.6228 0.0
H1453 H 0.79129 0.2242 0.88302 0.0
H1454 H 0.72751 0.69722 0.83833 0.0
H1455 H 0.73985 0.70996 0.79244 0.0
H1456 H 0.73394 0.76317 0.82909 0.0
H1457 H 0.7205 0.75059 0.87442 0.0
H1458 H 0.72374 0.76356 0.77364 0.0
H1459 H 0.77557 0.7412 0.82389 0.0
H1460 H 0.79444 0.71899 0.84995 0.0
H1461 H 0.79409 0.68541 0.77169 0.0
H1462 H 0.775 0.70731 0.74528 0.0
H1463 H 0.78315 0.8065 0.66971 0.0
H1464 H 0.77032 0.79365 0.71559 0.0
H1465 H 0.76416 0.74272 0.67096 0.0
H1466 H 0.77681 0.75559 0.62482 0.0
H1467 H 0.7808 0.74138 0.73001 0.0
H1468 H 0.72861 0.76521 0.68038 0.0
H1469 H 0.7109 0.78877 0.65539 0.0
H1470 H 0.71366 0.82135 0.7347 0.0
H1471 H 0.73164 0.79808 0.76003 0.0
C1472 C 0.72861 0.71166 0.8366 0.0
C1473 C 0.72292 0.72284 0.86023 0.0
C1474 C 0.73594 0.71893 0.81041 0.0
C1475 C 0.73811 0.73754 0.80737 0.0
C1476 C 0.73249 0.74876 0.83089 0.0
C1477 C 0.72497 0.74151 0.85699 0.0
C1478 C 0.74588 0.74531 0.77942 0.0
C1479 C 0.73635 0.75885 0.76441 0.0
C1480 C 0.7622 0.73902 0.76692 0.0
C1481 C 0.7737 0.72582 0.78271 0.0
C1482 C 0.7794 0.72901 0.81232 0.0
C1483 C 0.79016 0.71649 0.82714 0.0
C1484 C 0.79542 0.70078 0.81251 0.0
C1485 C 0.78998 0.69758 0.783 0.0
C1486 C 0.7792 0.71005 0.76808 0.0
C1487 C 0.77905 0.79256 0.6697 0.0
C1488 C 0.78094 0.78203 0.64372 0.0
C1489 C 0.77168 0.78527 0.69585 0.0
C1490 C 0.76627 0.76726 0.69661 0.0
C1491 C 0.76826 0.75666 0.67079 0.0
C1492 C 0.77536 0.76403 0.64445 0.0
C1493 C 0.75862 0.7595 0.72447 0.0
C1494 C 0.76819 0.74601 0.73939 0.0
C1495 C 0.7425 0.76601 0.73713 0.0
C1496 C 0.73163 0.77998 0.72199 0.0
C1497 C 0.72558 0.77747 0.6924 0.0
C1498 C 0.71547 0.79075 0.67819 0.0
C1499 C 0.7112 0.80656 0.69342 0.0
C1500 C 0.717 0.8091 0.72292 0.0
C1501 C 0.72714 0.79586 0.73722 0.0
H1502 H 0.70336 0.81683 0.68238 0.0
H1503 H 0.80375 0.6911 0.82402 0.0
loop_
_geom_bond_atom_site_label_1
_geom_bond_atom_site_label_2
_geom_bond_distance
_geom_bond_site_symmetry_2
_ccdc_geom_bond_type
Li0 N17 1.990 . S
Li0 O60 1.956 . S
Li0 O61 1.981 . S
Li0 O62 1.956 1_554 S
Li1 N25 1.991 . S
Li1 O60 1.961 1_556 S
Li1 O61 1.956 1_556 S
Li1 O63 1.970 . S
Li2 N47 1.991 . S
Li2 O60 1.976 . S
Li2 O62 1.956 1_554 S
Li2 O63 1.955 1_554 S
Li3 N53 1.990 . S
Li3 O61 1.950 1_556 S
Li3 O62 1.975 . S
Li3 O63 1.956 . S
C4 C6 1.348 . S
C4 C7 1.356 . S
C4 O60 1.325 . S
N5 C8 1.314 . S
N5 C9 1.279 . S
C6 C4 1.348 . S
C6 C8 1.353 . S
C6 H64 0.929 . S
C7 C4 1.356 . S
C7 C9 1.358 . S
C7 H65 0.930 . S
C8 N5 1.314 . S
C8 C6 1.353 . S
C8 H66 0.930 . S
C9 N5 1.279 . S
C9 C7 1.358 . S
C9 H67 0.930 . S
C10 C13 1.345 . S
C10 C14 1.358 1_554 S
C10 O61 1.325 . S
C11 N12 1.279 . S
C11 C14 1.358 . S
C11 H68 0.930 . S
N12 C11 1.279 . S
N12 C15 1.314 1_556 S
C13 C10 1.345 . S
C13 C15 1.353 . S
C13 H69 0.929 . S
C14 C10 1.358 1_556 S
C14 C11 1.358 . S
C14 H70 0.930 . S
C15 N12 1.314 1_554 S
C15 C13 1.353 . S
C15 H71 0.930 . S
C16 N17 1.314 . S
C16 C21 1.353 . S
C16 H22 0.930 . S
N17 Li0 1.990 . S
N17 C16 1.314 . S
N17 C19 1.279 . S
C18 C19 1.358 . S
C18 C20 1.356 . S
C18 H72 0.930 . S
C19 N17 1.279 . S
C19 C18 1.358 . S
C19 H23 0.930 . S
C20 C18 1.356 . S
C20 C21 1.348 . S
C21 C16 1.353 . S
C21 C20 1.348 . S
C21 H73 0.929 . S
H22 C16 0.930 . S
H23 C19 0.930 . S
C24 N25 1.314 . S
C24 C26 1.353 . S
C24 H30 0.930 . S
N25 Li1 1.991 . S
N25 C24 1.314 . S
N25 C28 1.279 1_556 S
C26 C24 1.353 . S
C26 C29 1.346 1_556 S
C26 H74 0.929 . S
C27 C28 1.358 . S
C27 C29 1.357 . S
C27 H75 0.930 . S
C28 N25 1.279 1_554 S
C28 C27 1.358 . S
C28 H31 0.930 . S
C29 C26 1.346 1_554 S
C29 C27 1.357 . S
H30 C24 0.930 . S
H31 C28 0.930 . S
C32 C34 1.345 1_554 S
C32 C35 1.358 . S
C32 O62 1.325 1_554 S
N33 C36 1.314 1_554 S
N33 C37 1.279 . S
C34 C32 1.345 1_556 S
C34 C36 1.353 . S
C34 H76 0.929 . S
C35 C32 1.358 . S
C35 C37 1.358 . S
C35 H77 0.930 . S
C36 N33 1.314 1_556 S
C36 C34 1.353 . S
C36 H78 0.930 . S
C37 N33 1.279 . S
C37 C35 1.358 . S
C37 H79 0.930 . S
C38 C39 1.348 . S
C38 C40 1.356 . S
C38 O63 1.325 . S
C39 C38 1.348 . S
C39 C41 1.353 . S
C39 H80 0.929 . S
C40 C38 1.356 . S
C40 C42 1.358 . S
C40 H81 0.930 . S
C41 C39 1.353 . S
C41 N43 1.314 . S
C41 H82 0.930 . S
C42 C40 1.358 . S
C42 N43 1.279 . S
C42 H83 0.930 . S
N43 C41 1.314 . S
N43 C42 1.279 . S
C44 C46 1.353 . S
C44 N47 1.314 . S
C44 H50 0.930 . S
C45 N47 1.279 1_556 S
C45 C48 1.358 . S
C45 H51 0.930 . S
C46 C44 1.353 . S
C46 C49 1.349 1_554 S
C46 H84 0.929 . S
N47 Li2 1.991 . S
N47 C44 1.314 . S
N47 C45 1.279 1_554 S
C48 C45 1.358 . S
C48 C49 1.355 . S
C48 H85 0.930 . S
C49 C46 1.349 1_556 S
C49 C48 1.355 . S
H50 C44 0.930 . S
H51 C45 0.930 . S
C52 N53 1.314 . S
C52 C54 1.353 . S
C52 H58 0.930 . S
N53 Li3 1.990 . S
N53 C52 1.314 . S
N53 C56 1.279 . S
C54 C52 1.353 . S
C54 C57 1.348 . S
C54 H86 0.929 . S
C55 C56 1.358 . S
C55 C57 1.356 . S
C55 H87 0.930 . S
C56 N53 1.279 . S
C56 C55 1.358 . S
C56 H59 0.930 . S
C57 C54 1.348 . S
C57 C55 1.356 . S
H58 C52 0.930 . S
H59 C56 0.930 . S
O60 Li0 1.956 . S
O60 Li1 1.961 1_554 S
O60 Li2 1.976 . S
O60 C4 1.325 . S
O61 Li0 1.981 . S
O61 Li1 1.956 1_554 S
O61 Li3 1.950 1_554 S
O61 C10 1.325 . S
O62 Li0 1.956 1_556 S
O62 Li2 1.956 1_556 S
O62 Li3 1.975 . S
O62 C32 1.325 1_556 S
O63 Li1 1.970 . S
O63 Li2 1.955 1_556 S
O63 Li3 1.956 . S
O63 C38 1.325 . S
H64 C6 0.929 . S
H65 C7 0.930 . S
H66 C8 0.930 . S
H67 C9 0.930 . S
H68 C11 0.930 . S
H69 C13 0.929 . S
H70 C14 0.930 . S
H71 C15 0.930 . S
H72 C18 0.930 . S
H73 C21 0.929 . S
H74 C26 0.929 . S
H75 C27 0.930 . S
H76 C34 0.929 . S
H77 C35 0.930 . S
H78 C36 0.930 . S
H79 C37 0.930 . S
H80 C39 0.929 . S
H81 C40 0.930 . S
H82 C41 0.930 . S
H83 C42 0.930 . S
H84 C46 0.929 . S
H85 C48 0.930 . S
H86 C54 0.929 . S
H87 C55 0.930 . S
Li88 N105 1.991 . S
Li88 O148 1.956 1_556 S
Li88 O149 1.961 1_556 S
Li88 O150 1.970 . S
Li89 N113 1.990 . S
Li89 O148 1.981 . S
Li89 O149 1.956 . S
Li89 O151 1.956 1_554 S
Li90 N135 1.990 . S
Li90 O148 1.950 1_556 S
Li90 O150 1.956 . S
Li90 O151 1.975 . S
Li91 N141 1.991 . S
Li91 O149 1.976 . S
Li91 O150 1.955 1_554 S
Li91 O151 1.956 1_554 S
C92 C94 1.345 . S
C92 C95 1.358 1_554 S
C92 O148 1.325 . S
N93 C96 1.314 1_556 S
N93 C97 1.279 . S
C94 C92 1.345 . S
C94 C96 1.353 . S
C94 H152 0.929 . S
C95 C92 1.358 1_556 S
C95 C97 1.358 . S
C95 H153 0.930 . S
C96 N93 1.314 1_554 S
C96 C94 1.353 . S
C96 H154 0.930 . S
C97 N93 1.279 . S
C97 C95 1.358 . S
C97 H155 0.930 . S
C98 C101 1.348 . S
C98 C102 1.356 . S
C98 O149 1.325 . S
C99 N100 1.279 . S
C99 C102 1.358 . S
C99 H156 0.930 . S
N100 C99 1.279 . S
N100 C103 1.314 . S
C101 C98 1.348 . S
C101 C103 1.353 . S
C101 H157 0.929 . S
C102 C98 1.356 . S
C102 C99 1.358 . S
C102 H158 0.930 . S
C103 N100 1.314 . S
C103 C101 1.353 . S
C103 H159 0.930 . S
C104 N105 1.314 . S
C104 C109 1.353 . S
C104 H110 0.930 . S
N105 Li88 1.991 . S
N105 C104 1.314 . S
N105 C107 1.279 1_556 S
C106 C107 1.358 . S
C106 C108 1.357 . S
C106 H160 0.930 . S
C107 N105 1.279 1_554 S
C107 C106 1.358 . S
C107 H111 0.930 . S
C108 C106 1.357 . S
C108 C109 1.346 1_554 S
C109 C104 1.353 . S
C109 C108 1.346 1_556 S
C109 H161 0.929 . S
H110 C104 0.930 . S
H111 C107 0.930 . S
C112 N113 1.314 . S
C112 C114 1.353 . S
C112 H118 0.930 . S
N113 Li89 1.990 . S
N113 C112 1.314 . S
N113 C116 1.279 . S
C114 C112 1.353 . S
C114 C117 1.348 . S
C114 H162 0.929 . S
C115 C116 1.358 . S
C115 C117 1.356 . S
C115 H163 0.930 . S
C116 N113 1.279 . S
C116 C115 1.358 . S
C116 H119 0.930 . S
C117 C114 1.348 . S
C117 C115 1.356 . S
H118 C112 0.930 . S
H119 C116 0.930 . S
C120 C122 1.348 . S
C120 C123 1.356 . S
C120 O150 1.325 . S
N121 C124 1.314 . S
N121 C125 1.279 . S
C122 C120 1.348 . S
C122 C124 1.353 . S
C122 H164 0.929 . S
C123 C120 1.356 . S
C123 C125 1.358 . S
C123 H165 0.930 . S
C124 N121 1.314 . S
C124 C122 1.353 . S
C124 H166 0.930 . S
C125 N121 1.279 . S
C125 C123 1.358 . S
C125 H167 0.930 . S
C126 C127 1.345 1_554 S
C126 C128 1.358 . S
C126 O151 1.325 1_554 S
C127 C126 1.345 1_556 S
C127 C129 1.353 . S
C127 H168 0.929 . S
C128 C126 1.358 . S
C128 C130 1.358 . S
C128 H169 0.930 . S
C129 C127 1.353 . S
C129 N131 1.314 1_556 S
C129 H170 0.930 . S
C130 C128 1.358 . S
C130 N131 1.279 . S
C130 H171 0.930 . S
N131 C129 1.314 1_554 S
N131 C130 1.279 . S
C132 C134 1.353 . S
C132 N135 1.314 . S
C132 H138 0.930 . S
C133 N135 1.279 . S
C133 C136 1.358 . S
C133 H139 0.930 . S
C134 C132 1.353 . S
C134 C137 1.348 . S
C134 H172 0.929 . S
N135 Li90 1.990 . S
N135 C132 1.314 . S
N135 C133 1.279 . S
C136 C133 1.358 . S
C136 C137 1.356 . S
C136 H173 0.930 . S
C137 C134 1.348 . S
C137 C136 1.356 . S
H138 C132 0.930 . S
H139 C133 0.930 . S
C140 N141 1.314 . S
C140 C142 1.353 . S
C140 H146 0.930 . S
N141 Li91 1.991 . S
N141 C140 1.314 . S
N141 C144 1.279 1_554 S
C142 C140 1.353 . S
C142 C145 1.349 1_554 S
C142 H174 0.929 . S
C143 C144 1.358 . S
C143 C145 1.355 . S
C143 H175 0.930 . S
C144 N141 1.279 1_556 S
C144 C143 1.358 . S
C144 H147 0.930 . S
C145 C142 1.349 1_556 S
C145 C143 1.355 . S
H146 C140 0.930 . S
H147 C144 0.930 . S
O148 Li88 1.956 1_554 S
O148 Li89 1.981 . S
O148 Li90 1.950 1_554 S
O148 C92 1.325 . S
O149 Li88 1.961 1_554 S
O149 Li89 1.956 . S
O149 Li91 1.976 . S
O149 C98 1.325 . S
O150 Li88 1.970 . S
O150 Li90 1.956 . S
O150 Li91 1.955 1_556 S
O150 C120 1.325 . S
O151 Li89 1.956 1_556 S
O151 Li90 1.975 . S
O151 Li91 1.956 1_556 S
O151 C126 1.325 1_556 S
H152 C94 0.929 . S
H153 C95 0.930 . S
H154 C96 0.930 . S
H155 C97 0.930 . S
H156 C99 0.930 . S
H157 C101 0.929 . S
H158 C102 0.930 . S
H159 C103 0.930 . S
H160 C106 0.930 . S
H161 C109 0.929 . S
H162 C114 0.929 . S
H163 C115 0.930 . S
H164 C122 0.929 . S
H165 C123 0.930 . S
H166 C124 0.930 . S
H167 C125 0.930 . S
H168 C127 0.929 . S
H169 C128 0.930 . S
H170 C129 0.930 . S
H171 C130 0.930 . S
H172 C134 0.929 . S
H173 C136 0.930 . S
H174 C142 0.929 . S
H175 C143 0.930 . S
Li176 N193 1.991 . S
Li176 O236 1.956 1_556 S
Li176 O237 1.961 1_556 S
Li176 O238 1.970 . S
Li177 N201 1.990 . S
Li177 O236 1.981 . S
Li177 O237 1.956 . S
Li177 O239 1.956 1_554 S
Li178 N223 1.990 . S
Li178 O236 1.950 1_556 S
Li178 O238 1.956 . S
Li178 O239 1.975 . S
Li179 N229 1.991 . S
Li179 O237 1.976 . S
Li179 O238 1.955 1_554 S
Li179 O239 1.956 1_554 S
C180 C182 1.345 . S
C180 C183 1.358 1_554 S
C180 O236 1.325 . S
N181 C184 1.314 1_556 S
N181 C185 1.279 . S
C182 C180 1.345 . S
C182 C184 1.353 . S
C182 H240 0.929 . S
C183 C180 1.358 1_556 S
C183 C185 1.358 . S
C183 H241 0.930 . S
C184 N181 1.314 1_554 S
C184 C182 1.353 . S
C184 H242 0.930 . S
C185 N181 1.279 . S
C185 C183 1.358 . S
C185 H243 0.930 . S
C186 C189 1.348 . S
C186 C190 1.356 . S
C186 O237 1.325 . S
C187 N188 1.279 . S
C187 C190 1.358 . S
C187 H244 0.930 . S
N188 C187 1.279 . S
N188 C191 1.314 . S
C189 C186 1.348 . S
C189 C191 1.353 . S
C189 H245 0.929 . S
C190 C186 1.356 . S
C190 C187 1.358 . S
C190 H246 0.930 . S
C191 N188 1.314 . S
C191 C189 1.353 . S
C191 H247 0.930 . S
C192 N193 1.314 . S
C192 C197 1.353 . S
C192 H198 0.930 . S
N193 Li176 1.991 . S
N193 C192 1.314 . S
N193 C195 1.279 1_556 S
C194 C195 1.358 . S
C194 C196 1.357 . S
C194 H248 0.930 . S
C195 N193 1.279 1_554 S
C195 C194 1.358 . S
C195 H199 0.930 . S
C196 C194 1.357 . S
C196 C197 1.346 1_554 S
C197 C192 1.353 . S
C197 C196 1.346 1_556 S
C197 H249 0.929 . S
H198 C192 0.930 . S
H199 C195 0.930 . S
C200 N201 1.314 . S
C200 C202 1.353 . S
C200 H206 0.930 . S
N201 Li177 1.990 . S
N201 C200 1.314 . S
N201 C204 1.279 . S
C202 C200 1.353 . S
C202 C205 1.348 . S
C202 H250 0.929 . S
C203 C204 1.358 . S
C203 C205 1.356 . S
C203 H251 0.930 . S
C204 N201 1.279 . S
C204 C203 1.358 . S
C204 H207 0.930 . S
C205 C202 1.348 . S
C205 C203 1.356 . S
H206 C200 0.930 . S
H207 C204 0.930 . S
C208 C210 1.348 . S
C208 C211 1.356 . S
C208 O238 1.325 . S
N209 C212 1.314 . S
N209 C213 1.279 . S
C210 C208 1.348 . S
C210 C212 1.353 . S
C210 H252 0.929 . S
C211 C208 1.356 . S
C211 C213 1.358 . S
C211 H253 0.930 . S
C212 N209 1.314 . S
C212 C210 1.353 . S
C212 H254 0.930 . S
C213 N209 1.279 . S
C213 C211 1.358 . S
C213 H255 0.930 . S
C214 C215 1.345 1_554 S
C214 C216 1.358 . S
C214 O239 1.325 1_554 S
C215 C214 1.345 1_556 S
C215 C217 1.353 . S
C215 H256 0.929 . S
C216 C214 1.358 . S
C216 C218 1.358 . S
C216 H257 0.930 . S
C217 C215 1.353 . S
C217 N219 1.314 1_556 S
C217 H258 0.930 . S
C218 C216 1.358 . S
C218 N219 1.279 . S
C218 H259 0.930 . S
N219 C217 1.314 1_554 S
N219 C218 1.279 . S
C220 C222 1.353 . S
C220 N223 1.314 . S
C220 H226 0.930 . S
C221 N223 1.279 . S
C221 C224 1.358 . S
C221 H227 0.930 . S
C222 C220 1.353 . S
C222 C225 1.348 . S
C222 H260 0.929 . S
N223 Li178 1.990 . S
N223 C220 1.314 . S
N223 C221 1.279 . S
C224 C221 1.358 . S
C224 C225 1.356 . S
C224 H261 0.930 . S
C225 C222 1.348 . S
C225 C224 1.356 . S
H226 C220 0.930 . S
H227 C221 0.930 . S
C228 N229 1.314 . S
C228 C230 1.353 . S
C228 H234 0.930 . S
N229 Li179 1.991 . S
N229 C228 1.314 . S
N229 C232 1.279 1_554 S
C230 C228 1.353 . S
C230 C233 1.349 1_554 S
C230 H262 0.929 . S
C231 C232 1.358 . S
C231 C233 1.355 . S
C231 H263 0.930 . S
C232 N229 1.279 1_556 S
C232 C231 1.358 . S
C232 H235 0.930 . S
C233 C230 1.349 1_556 S
C233 C231 1.355 . S
H234 C228 0.930 . S
H235 C232 0.930 . S
O236 Li176 1.956 1_554 S
O236 Li177 1.981 . S
O236 Li178 1.950 1_554 S
O236 C180 1.325 . S
O237 Li176 1.961 1_554 S
O237 Li177 1.956 . S
O237 Li179 1.976 . S
O237 C186 1.325 . S
O238 Li176 1.970 . S
O238 Li178 1.956 . S
O238 Li179 1.955 1_556 S
O238 C208 1.325 . S
O239 Li177 1.956 1_556 S
O239 Li178 1.975 . S
O239 Li179 1.956 1_556 S
O239 C214 1.325 1_556 S
H240 C182 0.929 . S
H241 C183 0.930 . S
H242 C184 0.930 . S
H243 C185 0.930 . S
H244 C187 0.930 . S
H245 C189 0.929 . S
H246 C190 0.930 . S
H247 C191 0.930 . S
H248 C194 0.930 . S
H249 C197 0.929 . S
H250 C202 0.929 . S
H251 C203 0.930 . S
H252 C210 0.929 . S
H253 C211 0.930 . S
H254 C212 0.930 . S
H255 C213 0.930 . S
H256 C215 0.929 . S
H257 C216 0.930 . S
H258 C217 0.930 . S
H259 C218 0.930 . S
H260 C222 0.929 . S
H261 C224 0.930 . S
H262 C230 0.929 . S
H263 C231 0.930 . S
Li264 N281 1.991 . S
Li264 O324 1.956 1_556 S
Li264 O325 1.961 1_556 S
Li264 O326 1.970 . S
Li265 N289 1.990 . S
Li265 O324 1.981 . S
Li265 O325 1.956 . S
Li265 O327 1.956 1_554 S
Li266 N311 1.990 . S
Li266 O324 1.950 1_556 S
Li266 O326 1.956 . S
Li266 O327 1.975 . S
Li267 N317 1.991 . S
Li267 O325 1.976 . S
Li267 O326 1.955 1_554 S
Li267 O327 1.956 1_554 S
C268 C270 1.345 . S
C268 C271 1.358 1_554 S
C268 O324 1.325 . S
N269 C272 1.314 1_556 S
N269 C273 1.279 . S
C270 C268 1.345 . S
C270 C272 1.353 . S
C270 H328 0.929 . S
C271 C268 1.358 1_556 S
C271 C273 1.358 . S
C271 H329 0.930 . S
C272 N269 1.314 1_554 S
C272 C270 1.353 . S
C272 H330 0.930 . S
C273 N269 1.279 . S
C273 C271 1.358 . S
C273 H331 0.930 . S
C274 C277 1.348 . S
C274 C278 1.356 . S
C274 O325 1.325 . S
C275 N276 1.279 . S
C275 C278 1.358 . S
C275 H332 0.930 . S
N276 C275 1.279 . S
N276 C279 1.314 . S
C277 C274 1.348 . S
C277 C279 1.353 . S
C277 H333 0.929 . S
C278 C274 1.356 . S
C278 C275 1.358 . S
C278 H334 0.930 . S
C279 N276 1.314 . S
C279 C277 1.353 . S
C279 H335 0.930 . S
C280 N281 1.314 . S
C280 C285 1.353 . S
C280 H286 0.930 . S
N281 Li264 1.991 . S
N281 C280 1.314 . S
N281 C283 1.279 1_556 S
C282 C283 1.358 . S
C282 C284 1.357 . S
C282 H336 0.930 . S
C283 N281 1.279 1_554 S
C283 C282 1.358 . S
C283 H287 0.930 . S
C284 C282 1.357 . S
C284 C285 1.346 1_554 S
C285 C280 1.353 . S
C285 C284 1.346 1_556 S
C285 H337 0.929 . S
H286 C280 0.930 . S
H287 C283 0.930 . S
C288 N289 1.314 . S
C288 C290 1.353 . S
C288 H294 0.930 . S
N289 Li265 1.990 . S
N289 C288 1.314 . S
N289 C292 1.279 . S
C290 C288 1.353 . S
C290 C293 1.348 . S
C290 H338 0.929 . S
C291 C292 1.358 . S
C291 C293 1.356 . S
C291 H339 0.930 . S
C292 N289 1.279 . S
C292 C291 1.358 . S
C292 H295 0.930 . S
C293 C290 1.348 . S
C293 C291 1.356 . S
H294 C288 0.930 . S
H295 C292 0.930 . S
C296 C298 1.348 . S
C296 C299 1.356 . S
C296 O326 1.325 . S
N297 C300 1.314 . S
N297 C301 1.279 . S
C298 C296 1.348 . S
C298 C300 1.353 . S
C298 H340 0.929 . S
C299 C296 1.356 . S
C299 C301 1.358 . S
C299 H341 0.930 . S
C300 N297 1.314 . S
C300 C298 1.353 . S
C300 H342 0.930 . S
C301 N297 1.279 . S
C301 C299 1.358 . S
C301 H343 0.930 . S
C302 C303 1.345 1_554 S
C302 C304 1.358 . S
C302 O327 1.325 1_554 S
C303 C302 1.345 1_556 S
C303 C305 1.353 . S
C303 H344 0.929 . S
C304 C302 1.358 . S
C304 C306 1.358 . S
C304 H345 0.930 . S
C305 C303 1.353 . S
C305 N307 1.314 1_556 S
C305 H346 0.930 . S
C306 C304 1.358 . S
C306 N307 1.279 . S
C306 H347 0.930 . S
N307 C305 1.314 1_554 S
N307 C306 1.279 . S
C308 C310 1.353 . S
C308 N311 1.314 . S
C308 H314 0.930 . S
C309 N311 1.279 . S
C309 C312 1.358 . S
C309 H315 0.930 . S
C310 C308 1.353 . S
C310 C313 1.348 . S
C310 H348 0.929 . S
N311 Li266 1.990 . S
N311 C308 1.314 . S
N311 C309 1.279 . S
C312 C309 1.358 . S
C312 C313 1.356 . S
C312 H349 0.930 . S
C313 C310 1.348 . S
C313 C312 1.356 . S
H314 C308 0.930 . S
H315 C309 0.930 . S
C316 N317 1.314 . S
C316 C318 1.353 . S
C316 H322 0.930 . S
N317 Li267 1.991 . S
N317 C316 1.314 . S
N317 C320 1.279 1_554 S
C318 C316 1.353 . S
C318 C321 1.349 1_554 S
C318 H350 0.929 . S
C319 C320 1.358 . S
C319 C321 1.355 . S
C319 H351 0.930 . S
C320 N317 1.279 1_556 S
C320 C319 1.358 . S
C320 H323 0.930 . S
C321 C318 1.349 1_556 S
C321 C319 1.355 . S
H322 C316 0.930 . S
H323 C320 0.930 . S
O324 Li264 1.956 1_554 S
O324 Li265 1.981 . S
O324 Li266 1.950 1_554 S
O324 C268 1.325 . S
O325 Li264 1.961 1_554 S
O325 Li265 1.956 . S
O325 Li267 1.976 . S
O325 C274 1.325 . S
O326 Li264 1.970 . S
O326 Li266 1.956 . S
O326 Li267 1.955 1_556 S
O326 C296 1.325 . S
O327 Li265 1.956 1_556 S
O327 Li266 1.975 . S
O327 Li267 1.956 1_556 S
O327 C302 1.325 1_556 S
H328 C270 0.929 . S
H329 C271 0.930 . S
H330 C272 0.930 . S
H331 C273 0.930 . S
H332 C275 0.930 . S
H333 C277 0.929 . S
H334 C278 0.930 . S
H335 C279 0.930 . S
H336 C282 0.930 . S
H337 C285 0.929 . S
H338 C290 0.929 . S
H339 C291 0.930 . S
H340 C298 0.929 . S
H341 C299 0.930 . S
H342 C300 0.930 . S
H343 C301 0.930 . S
H344 C303 0.929 . S
H345 C304 0.930 . S
H346 C305 0.930 . S
H347 C306 0.930 . S
H348 C310 0.929 . S
H349 C312 0.930 . S
H350 C318 0.929 . S
H351 C319 0.930 . S
Li352 N369 1.990 . S
Li352 O412 1.956 . S
Li352 O413 1.970 . S
Li352 O414 1.961 . S
Li353 N377 1.990 . S
Li353 O412 1.970 . S
Li353 O413 1.956 . S
Li353 O415 1.961 . S
Li354 N399 1.990 . S
Li354 O412 1.961 . S
Li354 O414 1.956 . S
Li354 O415 1.970 . S
Li355 N405 1.990 . S
Li355 O413 1.961 . S
Li355 O414 1.970 . S
Li355 O415 1.956 . S
C356 C358 1.348 . S
C356 C359 1.356 . S
C356 O412 1.325 . S
N357 C360 1.314 . S
N357 C361 1.279 . S
C358 C356 1.348 . S
C358 C360 1.353 . S
C358 H416 0.929 . S
C359 C356 1.356 . S
C359 C361 1.358 . S
C359 H417 0.930 . S
C360 N357 1.314 . S
C360 C358 1.353 . S
C360 H418 0.930 . S
C361 N357 1.279 . S
C361 C359 1.358 . S
C361 H419 0.930 . S
C362 C365 1.348 . S
C362 C366 1.356 . S
C362 O413 1.325 . S
C363 N364 1.279 . S
C363 C366 1.358 . S
C363 H420 0.930 . S
N364 C363 1.279 . S
N364 C367 1.314 . S
C365 C362 1.348 . S
C365 C367 1.353 . S
C365 H421 0.929 . S
C366 C362 1.356 . S
C366 C363 1.358 . S
C366 H422 0.930 . S
C367 N364 1.314 . S
C367 C365 1.353 . S
C367 H423 0.930 . S
C368 N369 1.314 . S
C368 C373 1.353 . S
C368 H374 0.930 . S
N369 Li352 1.990 . S
N369 C368 1.314 . S
N369 C371 1.279 . S
C370 C371 1.358 . S
C370 C372 1.356 . S
C370 H424 0.930 . S
C371 N369 1.279 . S
C371 C370 1.358 . S
C371 H375 0.930 . S
C372 C370 1.356 . S
C372 C373 1.348 . S
C373 C368 1.353 . S
C373 C372 1.348 . S
C373 H425 0.929 . S
H374 C368 0.930 . S
H375 C371 0.930 . S
C376 N377 1.314 . S
C376 C378 1.353 . S
C376 H382 0.930 . S
N377 Li353 1.990 . S
N377 C376 1.314 . S
N377 C380 1.279 . S
C378 C376 1.353 . S
C378 C381 1.348 . S
C378 H426 0.929 . S
C379 C380 1.358 . S
C379 C381 1.356 . S
C379 H427 0.930 . S
C380 N377 1.279 . S
C380 C379 1.358 . S
C380 H383 0.930 . S
C381 C378 1.348 . S
C381 C379 1.356 . S
H382 C376 0.930 . S
H383 C380 0.930 . S
C384 C386 1.348 . S
C384 C387 1.356 . S
C384 O414 1.325 . S
N385 C388 1.314 . S
N385 C389 1.279 . S
C386 C384 1.348 . S
C386 C388 1.353 . S
C386 H428 0.929 . S
C387 C384 1.356 . S
C387 C389 1.358 . S
C387 H429 0.930 . S
C388 N385 1.314 . S
C388 C386 1.353 . S
C388 H430 0.930 . S
C389 N385 1.279 . S
C389 C387 1.358 . S
C389 H431 0.930 . S
C390 C391 1.348 . S
C390 C392 1.356 . S
C390 O415 1.325 . S
C391 C390 1.348 . S
C391 C393 1.353 . S
C391 H432 0.929 . S
C392 C390 1.356 . S
C392 C394 1.358 . S
C392 H433 0.930 . S
C393 C391 1.353 . S
C393 N395 1.314 . S
C393 H434 0.930 . S
C394 C392 1.358 . S
C394 N395 1.279 . S
C394 H435 0.930 . S
N395 C393 1.314 . S
N395 C394 1.279 . S
C396 C398 1.353 . S
C396 N399 1.314 . S
C396 H402 0.930 . S
C397 N399 1.279 . S
C397 C400 1.358 . S
C397 H403 0.930 . S
C398 C396 1.353 . S
C398 C401 1.348 . S
C398 H436 0.929 . S
N399 Li354 1.990 . S
N399 C396 1.314 . S
N399 C397 1.279 . S
C400 C397 1.358 . S
C400 C401 1.356 . S
C400 H437 0.930 . S
C401 C398 1.348 . S
C401 C400 1.356 . S
H402 C396 0.930 . S
H403 C397 0.930 . S
C404 N405 1.314 . S
C404 C406 1.353 . S
C404 H410 0.930 . S
N405 Li355 1.990 . S
N405 C404 1.314 . S
N405 C408 1.279 . S
C406 C404 1.353 . S
C406 C409 1.348 . S
C406 H438 0.929 . S
C407 C408 1.358 . S
C407 C409 1.356 . S
C407 H439 0.930 . S
C408 N405 1.279 . S
C408 C407 1.358 . S
C408 H411 0.930 . S
C409 C406 1.348 . S
C409 C407 1.356 . S
H410 C404 0.930 . S
H411 C408 0.930 . S
O412 Li352 1.956 . S
O412 Li353 1.970 . S
O412 Li354 1.961 . S
O412 C356 1.325 . S
O413 Li352 1.970 . S
O413 Li353 1.956 . S
O413 Li355 1.961 . S
O413 C362 1.325 . S
O414 Li352 1.961 . S
O414 Li354 1.956 . S
O414 Li355 1.970 . S
O414 C384 1.325 . S
O415 Li353 1.961 . S
O415 Li354 1.970 . S
O415 Li355 1.956 . S
O415 C390 1.325 . S
H416 C358 0.929 . S
H417 C359 0.930 . S
H418 C360 0.930 . S
H419 C361 0.930 . S
H420 C363 0.930 . S
H421 C365 0.929 . S
H422 C366 0.930 . S
H423 C367 0.930 . S
H424 C370 0.930 . S
H425 C373 0.929 . S
H426 C378 0.929 . S
H427 C379 0.930 . S
H428 C386 0.929 . S
H429 C387 0.930 . S
H430 C388 0.930 . S
H431 C389 0.930 . S
H432 C391 0.929 . S
H433 C392 0.930 . S
H434 C393 0.930 . S
H435 C394 0.930 . S
H436 C398 0.929 . S
H437 C400 0.930 . S
H438 C406 0.929 . S
H439 C407 0.930 . S
Li440 N457 1.990 . S
Li440 O500 1.956 . S
Li440 O501 1.970 . S
Li440 O502 1.961 . S
Li441 N465 1.990 . S
Li441 O500 1.970 . S
Li441 O501 1.956 . S
Li441 O503 1.961 . S
Li442 N487 1.990 . S
Li442 O500 1.961 . S
Li442 O502 1.956 . S
Li442 O503 1.970 . S
Li443 N493 1.990 . S
Li443 O501 1.961 . S
Li443 O502 1.970 . S
Li443 O503 1.956 . S
C444 C446 1.348 . S
C444 C447 1.356 . S
C444 O500 1.325 . S
N445 C448 1.314 . S
N445 C449 1.279 . S
C446 C444 1.348 . S
C446 C448 1.353 . S
C446 H504 0.929 . S
C447 C444 1.356 . S
C447 C449 1.358 . S
C447 H505 0.930 . S
C448 N445 1.314 . S
C448 C446 1.353 . S
C448 H506 0.930 . S
C449 N445 1.279 . S
C449 C447 1.358 . S
C449 H507 0.930 . S
C450 C453 1.348 . S
C450 C454 1.356 . S
C450 O501 1.325 . S
C451 N452 1.279 . S
C451 C454 1.358 . S
C451 H508 0.930 . S
N452 C451 1.279 . S
N452 C455 1.314 . S
C453 C450 1.348 . S
C453 C455 1.353 . S
C453 H509 0.929 . S
C454 C450 1.356 . S
C454 C451 1.358 . S
C454 H510 0.930 . S
C455 N452 1.314 . S
C455 C453 1.353 . S
C455 H511 0.930 . S
C456 N457 1.314 . S
C456 C461 1.353 . S
C456 H462 0.930 . S
N457 Li440 1.990 . S
N457 C456 1.314 . S
N457 C459 1.279 . S
C458 C459 1.358 . S
C458 C460 1.356 . S
C458 H512 0.930 . S
C459 N457 1.279 . S
C459 C458 1.358 . S
C459 H463 0.930 . S
C460 C458 1.356 . S
C460 C461 1.348 . S
C461 C456 1.353 . S
C461 C460 1.348 . S
C461 H513 0.929 . S
H462 C456 0.930 . S
H463 C459 0.930 . S
C464 N465 1.314 . S
C464 C466 1.353 . S
C464 H470 0.930 . S
N465 Li441 1.990 . S
N465 C464 1.314 . S
N465 C468 1.279 . S
C466 C464 1.353 . S
C466 C469 1.348 . S
C466 H514 0.929 . S
C467 C468 1.358 . S
C467 C469 1.356 . S
C467 H515 0.930 . S
C468 N465 1.279 . S
C468 C467 1.358 . S
C468 H471 0.930 . S
C469 C466 1.348 . S
C469 C467 1.356 . S
H470 C464 0.930 . S
H471 C468 0.930 . S
C472 C474 1.348 . S
C472 C475 1.356 . S
C472 O502 1.325 . S
N473 C476 1.314 . S
N473 C477 1.279 . S
C474 C472 1.348 . S
C474 C476 1.353 . S
C474 H516 0.929 . S
C475 C472 1.356 . S
C475 C477 1.358 . S
C475 H517 0.930 . S
C476 N473 1.314 . S
C476 C474 1.353 . S
C476 H518 0.930 . S
C477 N473 1.279 . S
C477 C475 1.358 . S
C477 H519 0.930 . S
C478 C479 1.348 . S
C478 C480 1.356 . S
C478 O503 1.325 . S
C479 C478 1.348 . S
C479 C481 1.353 . S
C479 H520 0.929 . S
C480 C478 1.356 . S
C480 C482 1.358 . S
C480 H521 0.930 . S
C481 C479 1.353 . S
C481 N483 1.314 . S
C481 H522 0.930 . S
C482 C480 1.358 . S
C482 N483 1.279 . S
C482 H523 0.930 . S
N483 C481 1.314 . S
N483 C482 1.279 . S
C484 C486 1.353 . S
C484 N487 1.314 . S
C484 H490 0.930 . S
C485 N487 1.279 . S
C485 C488 1.358 . S
C485 H491 0.930 . S
C486 C484 1.353 . S
C486 C489 1.348 . S
C486 H524 0.929 . S
N487 Li442 1.990 . S
N487 C484 1.314 . S
N487 C485 1.279 . S
C488 C485 1.358 . S
C488 C489 1.356 . S
C488 H525 0.930 . S
C489 C486 1.348 . S
C489 C488 1.356 . S
H490 C484 0.930 . S
H491 C485 0.930 . S
C492 N493 1.314 . S
C492 C494 1.353 . S
C492 H498 0.930 . S
N493 Li443 1.990 . S
N493 C492 1.314 . S
N493 C496 1.279 . S
C494 C492 1.353 . S
C494 C497 1.348 . S
C494 H526 0.929 . S
C495 C496 1.358 . S
C495 C497 1.356 . S
C495 H527 0.930 . S
C496 N493 1.279 . S
C496 C495 1.358 . S
C496 H499 0.930 . S
C497 C494 1.348 . S
C497 C495 1.356 . S
H498 C492 0.930 . S
H499 C496 0.930 . S
O500 Li440 1.956 . S
O500 Li441 1.970 . S
O500 Li442 1.961 . S
O500 C444 1.325 . S
O501 Li440 1.970 . S
O501 Li441 1.956 . S
O501 Li443 1.961 . S
O501 C450 1.325 . S
O502 Li440 1.961 . S
O502 Li442 1.956 . S
O502 Li443 1.970 . S
O502 C472 1.325 . S
O503 Li441 1.961 . S
O503 Li442 1.970 . S
O503 Li443 1.956 . S
O503 C478 1.325 . S
H504 C446 0.929 . S
H505 C447 0.930 . S
H506 C448 0.930 . S
H507 C449 0.930 . S
H508 C451 0.930 . S
H509 C453 0.929 . S
H510 C454 0.930 . S
H511 C455 0.930 . S
H512 C458 0.930 . S
H513 C461 0.929 . S
H514 C466 0.929 . S
H515 C467 0.930 . S
H516 C474 0.929 . S
H517 C475 0.930 . S
H518 C476 0.930 . S
H519 C477 0.930 . S
H520 C479 0.929 . S
H521 C480 0.930 . S
H522 C481 0.930 . S
H523 C482 0.930 . S
H524 C486 0.929 . S
H525 C488 0.930 . S
H526 C494 0.929 . S
H527 C495 0.930 . S
Li528 N545 1.990 . S
Li528 O588 1.956 . S
Li528 O589 1.970 . S
Li528 O590 1.961 . S
Li529 N553 1.990 . S
Li529 O588 1.970 . S
Li529 O589 1.956 . S
Li529 O591 1.961 . S
Li530 N575 1.990 . S
Li530 O588 1.961 . S
Li530 O590 1.956 . S
Li530 O591 1.970 . S
Li531 N581 1.990 . S
Li531 O589 1.961 . S
Li531 O590 1.970 . S
Li531 O591 1.956 . S
C532 C534 1.348 . S
C532 C535 1.356 . S
C532 O588 1.325 . S
N533 C536 1.314 . S
N533 C537 1.279 . S
C534 C532 1.348 . S
C534 C536 1.353 . S
C534 H592 0.929 . S
C535 C532 1.356 . S
C535 C537 1.358 . S
C535 H593 0.930 . S
C536 N533 1.314 . S
C536 C534 1.353 . S
C536 H594 0.930 . S
C537 N533 1.279 . S
C537 C535 1.358 . S
C537 H595 0.930 . S
C538 C541 1.348 . S
C538 C542 1.356 . S
C538 O589 1.325 . S
C539 N540 1.279 . S
C539 C542 1.358 . S
C539 H596 0.930 . S
N540 C539 1.279 . S
N540 C543 1.314 . S
C541 C538 1.348 . S
C541 C543 1.353 . S
C541 H597 0.929 . S
C542 C538 1.356 . S
C542 C539 1.358 . S
C542 H598 0.930 . S
C543 N540 1.314 . S
C543 C541 1.353 . S
C543 H599 0.930 . S
C544 N545 1.314 . S
C544 C549 1.353 . S
C544 H550 0.930 . S
N545 Li528 1.990 . S
N545 C544 1.314 . S
N545 C547 1.279 . S
C546 C547 1.358 . S
C546 C548 1.356 . S
C546 H600 0.930 . S
C547 N545 1.279 . S
C547 C546 1.358 . S
C547 H551 0.930 . S
C548 C546 1.356 . S
C548 C549 1.348 . S
C549 C544 1.353 . S
C549 C548 1.348 . S
C549 H601 0.929 . S
H550 C544 0.930 . S
H551 C547 0.930 . S
C552 N553 1.314 . S
C552 C554 1.353 . S
C552 H558 0.930 . S
N553 Li529 1.990 . S
N553 C552 1.314 . S
N553 C556 1.279 . S
C554 C552 1.353 . S
C554 C557 1.348 . S
C554 H602 0.929 . S
C555 C556 1.358 . S
C555 C557 1.356 . S
C555 H603 0.930 . S
C556 N553 1.279 . S
C556 C555 1.358 . S
C556 H559 0.930 . S
C557 C554 1.348 . S
C557 C555 1.356 . S
H558 C552 0.930 . S
H559 C556 0.930 . S
C560 C562 1.348 . S
C560 C563 1.356 . S
C560 O590 1.325 . S
N561 C564 1.314 . S
N561 C565 1.279 . S
C562 C560 1.348 . S
C562 C564 1.353 . S
C562 H604 0.929 . S
C563 C560 1.356 . S
C563 C565 1.358 . S
C563 H605 0.930 . S
C564 N561 1.314 . S
C564 C562 1.353 . S
C564 H606 0.930 . S
C565 N561 1.279 . S
C565 C563 1.358 . S
C565 H607 0.930 . S
C566 C567 1.348 . S
C566 C568 1.356 . S
C566 O591 1.325 . S
C567 C566 1.348 . S
C567 C569 1.353 . S
C567 H608 0.929 . S
C568 C566 1.356 . S
C568 C570 1.358 . S
C568 H609 0.930 . S
C569 C567 1.353 . S
C569 N571 1.314 . S
C569 H610 0.930 . S
C570 C568 1.358 . S
C570 N571 1.279 . S
C570 H611 0.930 . S
N571 C569 1.314 . S
N571 C570 1.279 . S
C572 C574 1.353 . S
C572 N575 1.314 . S
C572 H578 0.930 . S
C573 N575 1.279 . S
C573 C576 1.358 . S
C573 H579 0.930 . S
C574 C572 1.353 . S
C574 C577 1.348 . S
C574 H612 0.929 . S
N575 Li530 1.990 . S
N575 C572 1.314 . S
N575 C573 1.279 . S
C576 C573 1.358 . S
C576 C577 1.356 . S
C576 H613 0.930 . S
C577 C574 1.348 . S
C577 C576 1.356 . S
H578 C572 0.930 . S
H579 C573 0.930 . S
C580 N581 1.314 . S
C580 C582 1.353 . S
C580 H586 0.930 . S
N581 Li531 1.990 . S
N581 C580 1.314 . S
N581 C584 1.279 . S
C582 C580 1.353 . S
C582 C585 1.348 . S
C582 H614 0.929 . S
C583 C584 1.358 . S
C583 C585 1.356 . S
C583 H615 0.930 . S
C584 N581 1.279 . S
C584 C583 1.358 . S
C584 H587 0.930 . S
C585 C582 1.348 . S
C585 C583 1.356 . S
H586 C580 0.930 . S
H587 C584 0.930 . S
O588 Li528 1.956 . S
O588 Li529 1.970 . S
O588 Li530 1.961 . S
O588 C532 1.325 . S
O589 Li528 1.970 . S
O589 Li529 1.956 . S
O589 Li531 1.961 . S
O589 C538 1.325 . S
O590 Li528 1.961 . S
O590 Li530 1.956 . S
O590 Li531 1.970 . S
O590 C560 1.325 . S
O591 Li529 1.961 . S
O591 Li530 1.970 . S
O591 Li531 1.956 . S
O591 C566 1.325 . S
H592 C534 0.929 . S
H593 C535 0.930 . S
H594 C536 0.930 . S
H595 C537 0.930 . S
H596 C539 0.930 . S
H597 C541 0.929 . S
H598 C542 0.930 . S
H599 C543 0.930 . S
H600 C546 0.930 . S
H601 C549 0.929 . S
H602 C554 0.929 . S
H603 C555 0.930 . S
H604 C562 0.929 . S
H605 C563 0.930 . S
H606 C564 0.930 . S
H607 C565 0.930 . S
H608 C567 0.929 . S
H609 C568 0.930 . S
H610 C569 0.930 . S
H611 C570 0.930 . S
H612 C574 0.929 . S
H613 C576 0.930 . S
H614 C582 0.929 . S
H615 C583 0.930 . S
Li616 N633 1.990 . S
Li616 O676 1.956 . S
Li616 O677 1.970 . S
Li616 O678 1.961 . S
Li617 N641 1.990 . S
Li617 O676 1.970 . S
Li617 O677 1.956 . S
Li617 O679 1.961 . S
Li618 N663 1.990 . S
Li618 O676 1.961 . S
Li618 O678 1.956 . S
Li618 O679 1.970 . S
Li619 N669 1.990 . S
Li619 O677 1.961 . S
Li619 O678 1.970 . S
Li619 O679 1.956 . S
C620 C622 1.348 . S
C620 C623 1.356 . S
C620 O676 1.325 . S
N621 C624 1.314 . S
N621 C625 1.279 . S
C622 C620 1.348 . S
C622 C624 1.353 . S
C622 H680 0.929 . S
C623 C620 1.356 . S
C623 C625 1.358 . S
C623 H681 0.930 . S
C624 N621 1.314 . S
C624 C622 1.353 . S
C624 H682 0.930 . S
C625 N621 1.279 . S
C625 C623 1.358 . S
C625 H683 0.930 . S
C626 C629 1.348 . S
C626 C630 1.356 . S
C626 O677 1.325 . S
C627 N628 1.279 . S
C627 C630 1.358 . S
C627 H684 0.930 . S
N628 C627 1.279 . S
N628 C631 1.314 . S
C629 C626 1.348 . S
C629 C631 1.353 . S
C629 H685 0.929 . S
C630 C626 1.356 . S
C630 C627 1.358 . S
C630 H686 0.930 . S
C631 N628 1.314 . S
C631 C629 1.353 . S
C631 H687 0.930 . S
C632 N633 1.314 . S
C632 C637 1.353 . S
C632 H638 0.930 . S
N633 Li616 1.990 . S
N633 C632 1.314 . S
N633 C635 1.279 . S
C634 C635 1.358 . S
C634 C636 1.356 . S
C634 H688 0.930 . S
C635 N633 1.279 . S
C635 C634 1.358 . S
C635 H639 0.930 . S
C636 C634 1.356 . S
C636 C637 1.348 . S
C637 C632 1.353 . S
C637 C636 1.348 . S
C637 H689 0.929 . S
H638 C632 0.930 . S
H639 C635 0.930 . S
C640 N641 1.314 . S
C640 C642 1.353 . S
C640 H646 0.930 . S
N641 Li617 1.990 . S
N641 C640 1.314 . S
N641 C644 1.279 . S
C642 C640 1.353 . S
C642 C645 1.348 . S
C642 H690 0.929 . S
C643 C644 1.358 . S
C643 C645 1.356 . S
C643 H691 0.930 . S
C644 N641 1.279 . S
C644 C643 1.358 . S
C644 H647 0.930 . S
C645 C642 1.348 . S
C645 C643 1.356 . S
H646 C640 0.930 . S
H647 C644 0.930 . S
C648 C650 1.348 . S
C648 C651 1.356 . S
C648 O678 1.325 . S
N649 C652 1.314 . S
N649 C653 1.279 . S
C650 C648 1.348 . S
C650 C652 1.353 . S
C650 H692 0.929 . S
C651 C648 1.356 . S
C651 C653 1.358 . S
C651 H693 0.930 . S
C652 N649 1.314 . S
C652 C650 1.353 . S
C652 H694 0.930 . S
C653 N649 1.279 . S
C653 C651 1.358 . S
C653 H695 0.930 . S
C654 C655 1.348 . S
C654 C656 1.356 . S
C654 O679 1.325 . S
C655 C654 1.348 . S
C655 C657 1.353 . S
C655 H696 0.929 . S
C656 C654 1.356 . S
C656 C658 1.358 . S
C656 H697 0.930 . S
C657 C655 1.353 . S
C657 N659 1.314 . S
C657 H698 0.930 . S
C658 C656 1.358 . S
C658 N659 1.279 . S
C658 H699 0.930 . S
N659 C657 1.314 . S
N659 C658 1.279 . S
C660 C662 1.353 . S
C660 N663 1.314 . S
C660 H666 0.930 . S
C661 N663 1.279 . S
C661 C664 1.358 . S
C661 H667 0.930 . S
C662 C660 1.353 . S
C662 C665 1.348 . S
C662 H700 0.929 . S
N663 Li618 1.990 . S
N663 C660 1.314 . S
N663 C661 1.279 . S
C664 C661 1.358 . S
C664 C665 1.356 . S
C664 H701 0.930 . S
C665 C662 1.348 . S
C665 C664 1.356 . S
H666 C660 0.930 . S
H667 C661 0.930 . S
C668 N669 1.314 . S
C668 C670 1.353 . S
C668 H674 0.930 . S
N669 Li619 1.990 . S
N669 C668 1.314 . S
N669 C672 1.279 . S
C670 C668 1.353 . S
C670 C673 1.348 . S
C670 H702 0.929 . S
C671 C672 1.358 . S
C671 C673 1.356 . S
C671 H703 0.930 . S
C672 N669 1.279 . S
C672 C671 1.358 . S
C672 H675 0.930 . S
C673 C670 1.348 . S
C673 C671 1.356 . S
H674 C668 0.930 . S
H675 C672 0.930 . S
O676 Li616 1.956 . S
O676 Li617 1.970 . S
O676 Li618 1.961 . S
O676 C620 1.325 . S
O677 Li616 1.970 . S
O677 Li617 1.956 . S
O677 Li619 1.961 . S
O677 C626 1.325 . S
O678 Li616 1.961 . S
O678 Li618 1.956 . S
O678 Li619 1.970 . S
O678 C648 1.325 . S
O679 Li617 1.961 . S
O679 Li618 1.970 . S
O679 Li619 1.956 . S
O679 C654 1.325 . S
H680 C622 0.929 . S
H681 C623 0.930 . S
H682 C624 0.930 . S
H683 C625 0.930 . S
H684 C627 0.930 . S
H685 C629 0.929 . S
H686 C630 0.930 . S
H687 C631 0.930 . S
H688 C634 0.930 . S
H689 C637 0.929 . S
H690 C642 0.929 . S
H691 C643 0.930 . S
H692 C650 0.929 . S
H693 C651 0.930 . S
H694 C652 0.930 . S
H695 C653 0.930 . S
H696 C655 0.929 . S
H697 C656 0.930 . S
H698 C657 0.930 . S
H699 C658 0.930 . S
H700 C662 0.929 . S
H701 C664 0.930 . S
H702 C670 0.929 . S
H703 C671 0.930 . S
H704 C722 0.951 . S
H705 C724 0.951 . S
H706 C726 0.950 . S
H707 C727 0.950 . S
H708 C729 0.950 . S
H709 C732 0.950 . S
H710 C733 0.950 1_554 S
H711 C735 0.950 . S
H712 C736 0.950 . S
H713 C737 0.951 . S
H714 C739 0.951 . S
H715 C741 0.950 . S
H716 C742 0.950 . S
H717 C744 0.950 . S
H718 C747 0.950 . S
H719 C748 0.950 1_556 S
H720 C750 0.950 . S
H721 C751 0.950 . S
C722 H704 0.951 . S
C722 C723 1.376 . S
C722 C724 1.388 . S
C723 C722 1.376 . S
C723 C727 1.374 1_556 S
C724 H705 0.951 . S
C724 C722 1.388 . S
C724 C725 1.354 1_556 S
C725 C724 1.354 1_554 S
C725 C726 1.426 . S
C725 C728 1.499 . S
C726 H706 0.950 . S
C726 C725 1.426 . S
C726 C727 1.374 . S
C727 H707 0.950 . S
C727 C723 1.374 1_554 S
C727 C726 1.374 . S
C728 C725 1.499 . S
C728 C729 1.373 . S
C728 C730 1.389 1_554 S
C729 H708 0.950 . S
C729 C728 1.373 . S
C729 C745 1.377 . S
C730 C728 1.389 1_556 S
C730 C731 1.524 . S
C730 C744 1.377 . S
C731 C730 1.524 . S
C731 C732 1.397 1_556 S
C731 C736 1.363 . S
C732 H709 0.950 . S
C732 C731 1.397 1_554 S
C732 C733 1.334 1_554 S
C733 H710 0.950 1_556 S
C733 C732 1.334 1_556 S
C733 C734 1.287 . S
C734 C733 1.287 . S
C734 C735 1.524 . S
C734 H753 0.913 . S
C735 H711 0.950 . S
C735 C734 1.524 . S
C735 C736 1.415 . S
C736 H712 0.950 . S
C736 C731 1.363 . S
C736 C735 1.415 . S
C737 H713 0.951 . S
C737 C738 1.383 . S
C737 C739 1.388 . S
C738 C737 1.383 . S
C738 C742 1.367 1_554 S
C739 H714 0.951 . S
C739 C737 1.388 . S
C739 C740 1.361 1_554 S
C740 C739 1.361 1_556 S
C740 C741 1.418 . S
C740 C743 1.499 . S
C741 H715 0.950 . S
C741 C740 1.418 . S
C741 C742 1.374 . S
C742 H716 0.950 . S
C742 C738 1.367 1_556 S
C742 C741 1.374 . S
C743 C740 1.499 . S
C743 C744 1.373 . S
C743 C745 1.389 1_556 S
C744 H717 0.950 . S
C744 C730 1.377 . S
C744 C743 1.373 . S
C745 C729 1.377 . S
C745 C743 1.389 1_554 S
C745 C746 1.524 . S
C746 C745 1.524 . S
C746 C747 1.397 1_554 S
C746 C751 1.363 . S
C747 H718 0.950 . S
C747 C746 1.397 1_556 S
C747 C748 1.334 1_556 S
C748 H719 0.950 1_554 S
C748 C747 1.334 1_554 S
C748 C749 1.287 . S
C749 C748 1.287 . S
C749 C750 1.524 . S
C749 H752 0.999 . S
C750 H720 0.950 . S
C750 C749 1.524 . S
C750 C751 1.415 . S
C751 H721 0.950 . S
C751 C746 1.363 . S
C751 C750 1.415 . S
H752 C749 0.999 . S
H753 C734 0.913 . S
H754 C772 0.951 . S
H755 C774 0.951 . S
H756 C776 0.950 . S
H757 C777 0.950 . S
H758 C779 0.950 . S
H759 C782 0.950 . S
H760 C783 0.950 . S
H761 C785 0.950 . S
H762 C786 0.950 . S
H763 C787 0.951 . S
H764 C789 0.951 . S
H765 C791 0.950 . S
H766 C792 0.950 . S
H767 C794 0.950 . S
H768 C797 0.950 . S
H769 C798 0.950 . S
H770 C800 0.950 . S
H771 C801 0.950 . S
C772 H754 0.951 . S
C772 C773 1.352 1_556 S
C772 C774 1.388 . S
C773 C772 1.352 1_554 S
C773 C777 1.398 . S
C774 H755 0.951 . S
C774 C772 1.388 . S
C774 C775 1.383 . S
C775 C774 1.383 . S
C775 C776 1.396 1_556 S
C775 C778 1.499 . S
C776 H756 0.950 . S
C776 C775 1.396 1_554 S
C776 C777 1.374 . S
C777 H757 0.950 . S
C777 C773 1.398 . S
C777 C776 1.374 . S
C778 C775 1.499 . S
C778 C779 1.361 1_556 S
C778 C780 1.401 . S
C779 H758 0.950 . S
C779 C778 1.361 1_554 S
C779 C795 1.377 . S
C780 C778 1.401 . S
C780 C781 1.524 . S
C780 C794 1.377 . S
C781 C780 1.524 . S
C781 C782 1.397 . S
C781 C786 1.363 . S
C782 H759 0.950 . S
C782 C781 1.397 . S
C782 C783 1.334 . S
C783 H760 0.950 . S
C783 C782 1.334 . S
C783 C784 1.287 . S
C784 C783 1.287 . S
C784 C785 1.524 . S
C784 H803 0.913 . S
C785 H761 0.950 . S
C785 C784 1.524 . S
C785 C786 1.415 . S
C786 H762 0.950 . S
C786 C781 1.363 . S
C786 C785 1.415 . S
C787 H763 0.951 . S
C787 C788 1.358 1_554 S
C787 C789 1.388 . S
C788 C787 1.358 1_556 S
C788 C792 1.393 . S
C789 H764 0.951 . S
C789 C787 1.388 . S
C789 C790 1.388 . S
C790 C789 1.388 . S
C790 C791 1.390 1_554 S
C790 C793 1.499 . S
C791 H765 0.950 . S
C791 C790 1.390 1_556 S
C791 C792 1.374 . S
C792 H766 0.950 . S
C792 C788 1.393 . S
C792 C791 1.374 . S
C793 C790 1.499 . S
C793 C794 1.353 1_554 S
C793 C795 1.409 . S
C794 H767 0.950 . S
C794 C780 1.377 . S
C794 C793 1.353 1_556 S
C795 C779 1.377 . S
C795 C793 1.409 . S
C795 C796 1.524 . S
C796 C795 1.524 . S
C796 C797 1.397 . S
C796 C801 1.363 . S
C797 H768 0.950 . S
C797 C796 1.397 . S
C797 C798 1.334 . S
C798 H769 0.950 . S
C798 C797 1.334 . S
C798 C799 1.287 . S
C799 C798 1.287 . S
C799 C800 1.524 . S
C799 H802 0.999 . S
C800 H770 0.950 . S
C800 C799 1.524 . S
C800 C801 1.415 . S
C801 H771 0.950 . S
C801 C796 1.363 . S
C801 C800 1.415 . S
H802 C799 0.999 . S
H803 C784 0.913 . S
H804 C822 0.951 . S
H805 C824 0.951 . S
H806 C826 0.950 . S
H807 C827 0.950 . S
H808 C829 0.950 . S
H809 C832 0.950 . S
H810 C833 0.950 . S
H811 C835 0.950 . S
H812 C836 0.950 . S
H813 C837 0.951 . S
H814 C839 0.951 . S
H815 C841 0.950 . S
H816 C842 0.950 . S
H817 C844 0.950 . S
H818 C847 0.950 . S
H819 C848 0.950 . S
H820 C850 0.950 . S
H821 C851 0.950 . S
C822 H804 0.951 . S
C822 C823 1.354 1_556 S
C822 C824 1.388 . S
C823 C822 1.354 1_554 S
C823 C827 1.396 . S
C824 H805 0.951 . S
C824 C822 1.388 . S
C824 C825 1.383 . S
C825 C824 1.383 . S
C825 C826 1.395 1_556 S
C825 C828 1.499 . S
C826 H806 0.950 . S
C826 C825 1.395 1_554 S
C826 C827 1.374 . S
C827 H807 0.950 . S
C827 C823 1.396 . S
C827 C826 1.374 . S
C828 C825 1.499 . S
C828 C829 1.353 1_556 S
C828 C830 1.409 . S
C829 H808 0.950 . S
C829 C828 1.353 1_554 S
C829 C845 1.377 . S
C830 C828 1.409 . S
C830 C831 1.524 . S
C830 C844 1.377 . S
C831 C830 1.524 . S
C831 C832 1.397 . S
C831 C836 1.363 . S
C832 H809 0.950 . S
C832 C831 1.397 . S
C832 C833 1.334 . S
C833 H810 0.950 . S
C833 C832 1.334 . S
C833 C834 1.287 . S
C834 C833 1.287 . S
C834 C835 1.524 . S
C834 H853 0.913 . S
C835 H811 0.950 . S
C835 C834 1.524 . S
C835 C836 1.415 . S
C836 H812 0.950 . S
C836 C831 1.363 . S
C836 C835 1.415 . S
C837 H813 0.951 . S
C837 C838 1.359 1_554 S
C837 C839 1.388 . S
C838 C837 1.359 1_556 S
C838 C842 1.392 . S
C839 H814 0.951 . S
C839 C837 1.388 . S
C839 C840 1.366 . S
C840 C839 1.366 . S
C840 C841 1.414 1_554 S
C840 C843 1.499 . S
C841 H815 0.950 . S
C841 C840 1.414 1_556 S
C841 C842 1.374 . S
C842 H816 0.950 . S
C842 C838 1.392 . S
C842 C841 1.374 . S
C843 C840 1.499 . S
C843 C844 1.345 1_554 S
C843 C845 1.417 . S
C844 H817 0.950 . S
C844 C830 1.377 . S
C844 C843 1.345 1_556 S
C845 C829 1.377 . S
C845 C843 1.417 . S
C845 C846 1.524 . S
C846 C845 1.524 . S
C846 C847 1.397 . S
C846 C851 1.363 . S
C847 H818 0.950 . S
C847 C846 1.397 . S
C847 C848 1.334 . S
C848 H819 0.950 . S
C848 C847 1.334 . S
C848 C849 1.287 . S
C849 C848 1.287 . S
C849 C850 1.524 . S
C849 H852 0.999 . S
C850 H820 0.950 . S
C850 C849 1.524 . S
C850 C851 1.415 . S
C851 H821 0.950 . S
C851 C846 1.363 . S
C851 C850 1.415 . S
H852 C849 0.999 . S
H853 C834 0.913 . S
H854 C872 0.951 . S
H855 C874 0.951 . S
H856 C876 0.950 . S
H857 C877 0.950 . S
H858 C879 0.950 . S
H859 C882 0.950 . S
H860 C883 0.950 . S
H861 C885 0.950 . S
H862 C886 0.950 . S
H863 C887 0.951 . S
H864 C889 0.951 . S
H865 C891 0.950 . S
H866 C892 0.950 . S
H867 C894 0.950 . S
H868 C897 0.950 . S
H869 C898 0.950 . S
H870 C900 0.950 . S
H871 C901 0.950 . S
C872 H854 0.951 . S
C872 C873 1.374 . S
C872 C874 1.388 . S
C873 C872 1.374 . S
C873 C877 1.377 1_556 S
C874 H855 0.951 . S
C874 C872 1.388 . S
C874 C875 1.391 . S
C875 C874 1.391 . S
C875 C876 1.388 1_556 S
C875 C878 1.498 . S
C876 H856 0.950 . S
C876 C875 1.388 1_554 S
C876 C877 1.374 . S
C877 H857 0.950 . S
C877 C873 1.377 1_554 S
C877 C876 1.374 . S
C878 C875 1.498 . S
C878 C879 1.376 1_556 S
C878 C880 1.387 . S
C879 H858 0.950 . S
C879 C878 1.376 1_554 S
C879 C895 1.377 . S
C880 C878 1.387 . S
C880 C881 1.524 . S
C880 C894 1.377 . S
C881 C880 1.524 . S
C881 C882 1.397 . S
C881 C886 1.363 . S
C882 H859 0.950 . S
C882 C881 1.397 . S
C882 C883 1.334 . S
C883 H860 0.950 . S
C883 C882 1.334 . S
C883 C884 1.287 . S
C884 C883 1.287 . S
C884 C885 1.524 . S
C884 H903 0.913 . S
C885 H861 0.950 . S
C885 C884 1.524 . S
C885 C886 1.415 . S
C886 H862 0.950 . S
C886 C881 1.363 . S
C886 C885 1.415 . S
C887 H863 0.951 . S
C887 C888 1.380 . S
C887 C889 1.388 . S
C888 C887 1.380 . S
C888 C892 1.370 1_554 S
C889 H864 0.951 . S
C889 C887 1.388 . S
C889 C890 1.366 . S
C890 C889 1.366 . S
C890 C891 1.414 1_554 S
C890 C893 1.499 . S
C891 H865 0.950 . S
C891 C890 1.414 1_556 S
C891 C892 1.374 . S
C892 H866 0.950 . S
C892 C888 1.370 1_556 S
C892 C891 1.374 . S
C893 C890 1.499 . S
C893 C894 1.369 1_554 S
C893 C895 1.394 . S
C894 H867 0.950 . S
C894 C880 1.377 . S
C894 C893 1.369 1_556 S
C895 C879 1.377 . S
C895 C893 1.394 . S
C895 C896 1.524 . S
C896 C895 1.524 . S
C896 C897 1.397 . S
C896 C901 1.363 . S
C897 H868 0.950 . S
C897 C896 1.397 . S
C897 C898 1.334 . S
C898 H869 0.950 . S
C898 C897 1.334 . S
C898 C899 1.287 . S
C899 C898 1.287 . S
C899 C900 1.524 . S
C899 H902 0.999 . S
C900 H870 0.950 . S
C900 C899 1.524 . S
C900 C901 1.415 . S
C901 H871 0.950 . S
C901 C896 1.363 . S
C901 C900 1.415 . S
H902 C899 0.999 . S
H903 C884 0.913 . S
H904 C922 0.951 . S
H905 C924 0.951 . S
H906 C926 0.950 . S
H907 C927 0.950 . S
H908 C929 0.950 . S
H909 C932 0.950 . S
H910 C933 0.950 . S
H911 C935 0.950 . S
H912 C936 0.950 . S
H913 C937 0.951 . S
H914 C939 0.951 . S
H915 C941 0.950 . S
H916 C942 0.950 . S
H917 C944 0.950 . S
H918 C947 0.950 . S
H919 C948 0.950 . S
H920 C950 0.950 . S
H921 C951 0.950 . S
C922 H904 0.951 . S
C922 C923 1.366 . S
C922 C924 1.388 . S
C923 C922 1.366 . S
C923 C927 1.385 . S
C924 H905 0.951 . S
C924 C922 1.388 . S
C924 C925 1.366 . S
C925 C924 1.366 . S
C925 C926 1.414 . S
C925 C928 1.499 . S
C926 H906 0.950 . S
C926 C925 1.414 . S
C926 C927 1.374 . S
C927 H907 0.950 . S
C927 C923 1.385 . S
C927 C926 1.374 . S
C928 C925 1.499 . S
C928 C929 1.373 . S
C928 C930 1.389 . S
C929 H908 0.950 . S
C929 C928 1.373 . S
C929 C945 1.377 1_565 S
C930 C928 1.389 . S
C930 C931 1.524 . S
C930 C944 1.377 1_565 S
C931 C930 1.524 . S
C931 C932 1.397 . S
C931 C936 1.363 . S
C932 H909 0.950 . S
C932 C931 1.397 . S
C932 C933 1.334 . S
C933 H910 0.950 . S
C933 C932 1.334 . S
C933 C934 1.287 . S
C934 C933 1.287 . S
C934 C935 1.524 . S
C934 H953 0.913 . S
C935 H911 0.950 . S
C935 C934 1.524 . S
C935 C936 1.415 . S
C936 H912 0.950 . S
C936 C931 1.363 . S
C936 C935 1.415 . S
C937 H913 0.951 . S
C937 C938 1.366 . S
C937 C939 1.388 . S
C938 C937 1.366 . S
C938 C942 1.385 . S
C939 H914 0.951 . S
C939 C937 1.388 . S
C939 C940 1.366 . S
C940 C939 1.366 . S
C940 C941 1.414 . S
C940 C943 1.499 . S
C941 H915 0.950 . S
C941 C940 1.414 . S
C941 C942 1.374 . S
C942 H916 0.950 . S
C942 C938 1.385 . S
C942 C941 1.374 . S
C943 C940 1.499 . S
C943 C944 1.373 . S
C943 C945 1.389 . S
C944 H917 0.950 . S
C944 C930 1.377 1_545 S
C944 C943 1.373 . S
C945 C929 1.377 1_545 S
C945 C943 1.389 . S
C945 C946 1.524 . S
C946 C945 1.524 . S
C946 C947 1.397 . S
C946 C951 1.363 . S
C947 H918 0.950 . S
C947 C946 1.397 . S
C947 C948 1.334 . S
C948 H919 0.950 . S
C948 C947 1.334 . S
C948 C949 1.287 . S
C949 C948 1.287 . S
C949 C950 1.524 . S
C949 H952 0.999 . S
C950 H920 0.950 . S
C950 C949 1.524 . S
C950 C951 1.415 . S
C951 H921 0.950 . S
C951 C946 1.363 . S
C951 C950 1.415 . S
H952 C949 0.999 . S
H953 C934 0.913 . S
H954 C972 0.951 . S
H955 C974 0.951 . S
H956 C976 0.950 . S
H957 C977 0.950 . S
H958 C979 0.950 . S
H959 C982 0.950 . S
H960 C983 0.950 . S
H961 C985 0.950 . S
H962 C986 0.950 . S
H963 C987 0.951 . S
H964 C989 0.951 . S
H965 C991 0.950 . S
H966 C992 0.950 . S
H967 C994 0.950 . S
H968 C997 0.950 . S
H969 C998 0.950 . S
H970 C1000 0.950 . S
H971 C1001 0.950 . S
C972 H954 0.951 . S
C972 C973 1.366 . S
C972 C974 1.388 . S
C973 C972 1.366 . S
C973 C977 1.385 . S
C974 H955 0.951 . S
C974 C972 1.388 . S
C974 C975 1.366 . S
C975 C974 1.366 . S
C975 C976 1.414 . S
C975 C978 1.499 . S
C976 H956 0.950 . S
C976 C975 1.414 . S
C976 C977 1.374 . S
C977 H957 0.950 . S
C977 C973 1.385 . S
C977 C976 1.374 . S
C978 C975 1.499 . S
C978 C979 1.373 . S
C978 C980 1.389 . S
C979 H958 0.950 . S
C979 C978 1.373 . S
C979 C995 1.377 1_455 S
C980 C978 1.389 . S
C980 C981 1.524 . S
C980 C994 1.377 1_455 S
C981 C980 1.524 . S
C981 C982 1.397 . S
C981 C986 1.363 . S
C982 H959 0.950 . S
C982 C981 1.397 . S
C982 C983 1.334 . S
C983 H960 0.950 . S
C983 C982 1.334 . S
C983 C984 1.287 . S
C984 C983 1.287 . S
C984 C985 1.524 . S
C984 H1003 0.913 . S
C985 H961 0.950 . S
C985 C984 1.524 . S
C985 C986 1.415 . S
C986 H962 0.950 . S
C986 C981 1.363 . S
C986 C985 1.415 . S
C987 H963 0.951 . S
C987 C988 1.366 . S
C987 C989 1.388 . S
C988 C987 1.366 . S
C988 C992 1.385 . S
C989 H964 0.951 . S
C989 C987 1.388 . S
C989 C990 1.366 . S
C990 C989 1.366 . S
C990 C991 1.414 . S
C990 C993 1.499 . S
C991 H965 0.950 . S
C991 C990 1.414 . S
C991 C992 1.374 . S
C992 H966 0.950 . S
C992 C988 1.385 . S
C992 C991 1.374 . S
C993 C990 1.499 . S
C993 C994 1.373 . S
C993 C995 1.389 . S
C994 H967 0.950 . S
C994 C980 1.377 1_655 S
C994 C993 1.373 . S
C995 C979 1.377 1_655 S
C995 C993 1.389 . S
C995 C996 1.524 . S
C996 C995 1.524 . S
C996 C997 1.397 . S
C996 C1001 1.363 . S
C997 H968 0.950 . S
C997 C996 1.397 . S
C997 C998 1.334 . S
C998 H969 0.950 . S
C998 C997 1.334 . S
C998 C999 1.287 . S
C999 C998 1.287 . S
C999 C1000 1.524 . S
C999 H1002 0.999 . S
C1000 H970 0.950 . S
C1000 C999 1.524 . S
C1000 C1001 1.415 . S
C1001 H971 0.950 . S
C1001 C996 1.363 . S
C1001 C1000 1.415 . S
H1002 C999 0.999 . S
H1003 C984 0.913 . S
H1004 C1022 0.951 . S
H1005 C1024 0.951 . S
H1006 C1026 0.950 . S
H1007 C1027 0.950 . S
H1008 C1029 0.950 . S
H1009 C1032 0.950 . S
H1010 C1033 0.950 . S
H1011 C1035 0.950 . S
H1012 C1036 0.950 . S
H1013 C1037 0.951 . S
H1014 C1039 0.951 . S
H1015 C1041 0.950 . S
H1016 C1042 0.950 . S
H1017 C1044 0.950 . S
H1018 C1047 0.950 . S
H1019 C1048 0.950 . S
H1020 C1050 0.950 . S
H1021 C1051 0.950 . S
C1022 H1004 0.951 . S
C1022 C1023 1.366 . S
C1022 C1024 1.388 . S
C1023 C1022 1.366 . S
C1023 C1027 1.385 . S
C1024 H1005 0.951 . S
C1024 C1022 1.388 . S
C1024 C1025 1.366 . S
C1025 C1024 1.366 . S
C1025 C1026 1.414 . S
C1025 C1028 1.499 . S
C1026 H1006 0.950 . S
C1026 C1025 1.414 . S
C1026 C1027 1.374 . S
C1027 H1007 0.950 . S
C1027 C1023 1.385 . S
C1027 C1026 1.374 . S
C1028 C1025 1.499 . S
C1028 C1029 1.373 . S
C1028 C1030 1.389 . S
C1029 H1008 0.950 . S
C1029 C1028 1.373 . S
C1029 C1045 1.377 1_545 S
C1030 C1028 1.389 . S
C1030 C1031 1.524 . S
C1030 C1044 1.377 1_545 S
C1031 C1030 1.524 . S
C1031 C1032 1.397 . S
C1031 C1036 1.363 . S
C1032 H1009 0.950 . S
C1032 C1031 1.397 . S
C1032 C1033 1.334 . S
C1033 H1010 0.950 . S
C1033 C1032 1.334 . S
C1033 C1034 1.287 . S
C1034 C1033 1.287 . S
C1034 C1035 1.524 . S
C1034 H1053 0.913 . S
C1035 H1011 0.950 . S
C1035 C1034 1.524 . S
C1035 C1036 1.415 . S
C1036 H1012 0.950 . S
C1036 C1031 1.363 . S
C1036 C1035 1.415 . S
C1037 H1013 0.951 . S
C1037 C1038 1.366 . S
C1037 C1039 1.388 . S
C1038 C1037 1.366 . S
C1038 C1042 1.385 . S
C1039 H1014 0.951 . S
C1039 C1037 1.388 . S
C1039 C1040 1.366 . S
C1040 C1039 1.366 . S
C1040 C1041 1.414 . S
C1040 C1043 1.499 . S
C1041 H1015 0.950 . S
C1041 C1040 1.414 . S
C1041 C1042 1.374 . S
C1042 H1016 0.950 . S
C1042 C1038 1.385 . S
C1042 C1041 1.374 . S
C1043 C1040 1.499 . S
C1043 C1044 1.373 . S
C1043 C1045 1.389 . S
C1044 H1017 0.950 . S
C1044 C1030 1.377 1_565 S
C1044 C1043 1.373 . S
C1045 C1029 1.377 1_565 S
C1045 C1043 1.389 . S
C1045 C1046 1.524 . S
C1046 C1045 1.524 . S
C1046 C1047 1.397 . S
C1046 C1051 1.363 . S
C1047 H1018 0.950 . S
C1047 C1046 1.397 . S
C1047 C1048 1.334 . S
C1048 H1019 0.950 . S
C1048 C1047 1.334 . S
C1048 C1049 1.287 . S
C1049 C1048 1.287 . S
C1049 C1050 1.524 . S
C1049 H1052 0.999 . S
C1050 H1020 0.950 . S
C1050 C1049 1.524 . S
C1050 C1051 1.415 . S
C1051 H1021 0.950 . S
C1051 C1046 1.363 . S
C1051 C1050 1.415 . S
H1052 C1049 0.999 . S
H1053 C1034 0.913 . S
H1054 C1072 0.951 . S
H1055 C1074 0.951 . S
H1056 C1076 0.950 . S
H1057 C1077 0.950 . S
H1058 C1079 0.950 . S
H1059 C1082 0.950 . S
H1060 C1083 0.950 . S
H1061 C1085 0.950 . S
H1062 C1086 0.950 . S
H1063 C1087 0.951 . S
H1064 C1089 0.951 . S
H1065 C1091 0.950 . S
H1066 C1092 0.950 . S
H1067 C1094 0.950 . S
H1068 C1097 0.950 . S
H1069 C1098 0.950 . S
H1070 C1100 0.950 . S
H1071 C1101 0.950 . S
C1072 H1054 0.951 . S
C1072 C1073 1.366 . S
C1072 C1074 1.388 . S
C1073 C1072 1.366 . S
C1073 C1077 1.385 . S
C1074 H1055 0.951 . S
C1074 C1072 1.388 . S
C1074 C1075 1.366 . S
C1075 C1074 1.366 . S
C1075 C1076 1.414 . S
C1075 C1078 1.499 . S
C1076 H1056 0.950 . S
C1076 C1075 1.414 . S
C1076 C1077 1.374 . S
C1077 H1057 0.950 . S
C1077 C1073 1.385 . S
C1077 C1076 1.374 . S
C1078 C1075 1.499 . S
C1078 C1079 1.373 . S
C1078 C1080 1.389 . S
C1079 H1058 0.950 . S
C1079 C1078 1.373 . S
C1079 C1095 1.377 1_655 S
C1080 C1078 1.389 . S
C1080 C1081 1.524 . S
C1080 C1094 1.377 1_655 S
C1081 C1080 1.524 . S
C1081 C1082 1.397 . S
C1081 C1086 1.363 . S
C1082 H1059 0.950 . S
C1082 C1081 1.397 . S
C1082 C1083 1.334 . S
C1083 H1060 0.950 . S
C1083 C1082 1.334 . S
C1083 C1084 1.287 . S
C1084 C1083 1.287 . S
C1084 C1085 1.524 . S
C1084 H1103 0.913 . S
C1085 H1061 0.950 . S
C1085 C1084 1.524 . S
C1085 C1086 1.415 . S
C1086 H1062 0.950 . S
C1086 C1081 1.363 . S
C1086 C1085 1.415 . S
C1087 H1063 0.951 . S
C1087 C1088 1.366 . S
C1087 C1089 1.388 . S
C1088 C1087 1.366 . S
C1088 C1092 1.385 . S
C1089 H1064 0.951 . S
C1089 C1087 1.388 . S
C1089 C1090 1.366 . S
C1090 C1089 1.366 . S
C1090 C1091 1.414 . S
C1090 C1093 1.499 . S
C1091 H1065 0.950 . S
C1091 C1090 1.414 . S
C1091 C1092 1.374 . S
C1092 H1066 0.950 . S
C1092 C1088 1.385 . S
C1092 C1091 1.374 . S
C1093 C1090 1.499 . S
C1093 C1094 1.373 . S
C1093 C1095 1.389 . S
C1094 H1067 0.950 . S
C1094 C1080 1.377 1_455 S
C1094 C1093 1.373 . S
C1095 C1079 1.377 1_455 S
C1095 C1093 1.389 . S
C1095 C1096 1.524 . S
C1096 C1095 1.524 . S
C1096 C1097 1.397 . S
C1096 C1101 1.363 . S
C1097 H1068 0.950 . S
C1097 C1096 1.397 . S
C1097 C1098 1.334 . S
C1098 H1069 0.950 . S
C1098 C1097 1.334 . S
C1098 C1099 1.287 . S
C1099 C1098 1.287 . S
C1099 C1100 1.524 . S
C1099 H1102 0.999 . S
C1100 H1070 0.950 . S
C1100 C1099 1.524 . S
C1100 C1101 1.415 . S
C1101 H1071 0.950 . S
C1101 C1096 1.363 . S
C1101 C1100 1.415 . S
H1102 C1099 0.999 . S
H1103 C1084 0.913 . S
H1104 C1122 0.951 . S
H1105 C1124 0.951 . S
H1106 C1126 0.950 . S
H1107 C1127 0.950 . S
H1108 C1129 0.950 . S
H1109 C1132 0.950 . S
H1110 C1133 0.950 . S
H1111 C1135 0.950 . S
H1112 C1136 0.950 . S
H1113 C1137 0.951 . S
H1114 C1139 0.951 . S
H1115 C1141 0.950 . S
H1116 C1142 0.950 . S
H1117 C1144 0.950 . S
H1118 C1147 0.950 . S
H1119 C1148 0.950 . S
H1120 C1150 0.950 . S
H1121 C1151 0.950 . S
C1122 H1104 0.951 . S
C1122 C1123 1.366 . S
C1122 C1124 1.388 . S
C1123 C1122 1.366 . S
C1123 C1127 1.385 . S
C1124 H1105 0.951 . S
C1124 C1122 1.388 . S
C1124 C1125 1.366 . S
C1125 C1124 1.366 . S
C1125 C1126 1.414 . S
C1125 C1128 1.499 . S
C1126 H1106 0.950 . S
C1126 C1125 1.414 . S
C1126 C1127 1.374 . S
C1127 H1107 0.950 . S
C1127 C1123 1.385 . S
C1127 C1126 1.374 . S
C1128 C1125 1.499 . S
C1128 C1129 1.373 . S
C1128 C1130 1.389 . S
C1129 H1108 0.950 . S
C1129 C1128 1.373 . S
C1129 C1145 1.377 . S
C1130 C1128 1.389 . S
C1130 C1131 1.524 . S
C1130 C1144 1.377 . S
C1131 C1130 1.524 . S
C1131 C1132 1.397 . S
C1131 C1136 1.363 . S
C1132 H1109 0.950 . S
C1132 C1131 1.397 . S
C1132 C1133 1.334 . S
C1133 H1110 0.950 . S
C1133 C1132 1.334 . S
C1133 C1134 1.287 . S
C1134 C1133 1.287 . S
C1134 C1135 1.524 . S
C1134 H1153 0.913 . S
C1135 H1111 0.950 . S
C1135 C1134 1.524 . S
C1135 C1136 1.415 . S
C1136 H1112 0.950 . S
C1136 C1131 1.363 . S
C1136 C1135 1.415 . S
C1137 H1113 0.951 . S
C1137 C1138 1.366 . S
C1137 C1139 1.388 . S
C1138 C1137 1.366 . S
C1138 C1142 1.385 . S
C1139 H1114 0.951 . S
C1139 C1137 1.388 . S
C1139 C1140 1.366 . S
C1140 C1139 1.366 . S
C1140 C1141 1.414 . S
C1140 C1143 1.499 . S
C1141 H1115 0.950 . S
C1141 C1140 1.414 . S
C1141 C1142 1.374 . S
C1142 H1116 0.950 . S
C1142 C1138 1.385 . S
C1142 C1141 1.374 . S
C1143 C1140 1.499 . S
C1143 C1144 1.373 . S
C1143 C1145 1.389 . S
C1144 H1117 0.950 . S
C1144 C1130 1.377 . S
C1144 C1143 1.373 . S
C1145 C1129 1.377 . S
C1145 C1143 1.389 . S
C1145 C1146 1.524 . S
C1146 C1145 1.524 . S
C1146 C1147 1.397 . S
C1146 C1151 1.363 . S
C1147 H1118 0.950 . S
C1147 C1146 1.397 . S
C1147 C1148 1.334 . S
C1148 H1119 0.950 . S
C1148 C1147 1.334 . S
C1148 C1149 1.287 . S
C1149 C1148 1.287 . S
C1149 C1150 1.524 . S
C1149 H1152 0.999 . S
C1150 H1120 0.950 . S
C1150 C1149 1.524 . S
C1150 C1151 1.415 . S
C1151 H1121 0.950 . S
C1151 C1146 1.363 . S
C1151 C1150 1.415 . S
H1152 C1149 0.999 . S
H1153 C1134 0.913 . S
H1154 C1172 0.951 . S
H1155 C1174 0.951 . S
H1156 C1176 0.950 . S
H1157 C1177 0.950 . S
H1158 C1179 0.950 . S
H1159 C1182 0.950 . S
H1160 C1183 0.950 . S
H1161 C1185 0.950 . S
H1162 C1186 0.950 . S
H1163 C1187 0.951 . S
H1164 C1189 0.951 . S
H1165 C1191 0.950 . S
H1166 C1192 0.950 . S
H1167 C1194 0.950 . S
H1168 C1197 0.950 . S
H1169 C1198 0.950 . S
H1170 C1200 0.950 . S
H1171 C1201 0.950 . S
C1172 H1154 0.951 . S
C1172 C1173 1.366 . S
C1172 C1174 1.388 . S
C1173 C1172 1.366 . S
C1173 C1177 1.385 . S
C1174 H1155 0.951 . S
C1174 C1172 1.388 . S
C1174 C1175 1.366 . S
C1175 C1174 1.366 . S
C1175 C1176 1.414 . S
C1175 C1178 1.499 . S
C1176 H1156 0.950 . S
C1176 C1175 1.414 . S
C1176 C1177 1.374 . S
C1177 H1157 0.950 . S
C1177 C1173 1.385 . S
C1177 C1176 1.374 . S
C1178 C1175 1.499 . S
C1178 C1179 1.373 . S
C1178 C1180 1.389 . S
C1179 H1158 0.950 . S
C1179 C1178 1.373 . S
C1179 C1195 1.377 . S
C1180 C1178 1.389 . S
C1180 C1181 1.524 . S
C1180 C1194 1.377 . S
C1181 C1180 1.524 . S
C1181 C1182 1.397 . S
C1181 C1186 1.363 . S
C1182 H1159 0.950 . S
C1182 C1181 1.397 . S
C1182 C1183 1.334 . S
C1183 H1160 0.950 . S
C1183 C1182 1.334 . S
C1183 C1184 1.287 . S
C1184 C1183 1.287 . S
C1184 C1185 1.524 . S
C1184 H1203 0.913 . S
C1185 H1161 0.950 . S
C1185 C1184 1.524 . S
C1185 C1186 1.415 . S
C1186 H1162 0.950 . S
C1186 C1181 1.363 . S
C1186 C1185 1.415 . S
C1187 H1163 0.951 . S
C1187 C1188 1.366 . S
C1187 C1189 1.388 . S
C1188 C1187 1.366 . S
C1188 C1192 1.385 . S
C1189 H1164 0.951 . S
C1189 C1187 1.388 . S
C1189 C1190 1.366 . S
C1190 C1189 1.366 . S
C1190 C1191 1.414 . S
C1190 C1193 1.499 . S
C1191 H1165 0.950 . S
C1191 C1190 1.414 . S
C1191 C1192 1.374 . S
C1192 H1166 0.950 . S
C1192 C1188 1.385 . S
C1192 C1191 1.374 . S
C1193 C1190 1.499 . S
C1193 C1194 1.373 . S
C1193 C1195 1.389 . S
C1194 H1167 0.950 . S
C1194 C1180 1.377 . S
C1194 C1193 1.373 . S
C1195 C1179 1.377 . S
C1195 C1193 1.389 . S
C1195 C1196 1.524 . S
C1196 C1195 1.524 . S
C1196 C1197 1.397 . S
C1196 C1201 1.363 . S
C1197 H1168 0.950 . S
C1197 C1196 1.397 . S
C1197 C1198 1.334 . S
C1198 H1169 0.950 . S
C1198 C1197 1.334 . S
C1198 C1199 1.287 . S
C1199 C1198 1.287 . S
C1199 C1200 1.524 . S
C1199 H1202 0.999 . S
C1200 H1170 0.950 . S
C1200 C1199 1.524 . S
C1200 C1201 1.415 . S
C1201 H1171 0.950 . S
C1201 C1196 1.363 . S
C1201 C1200 1.415 . S
H1202 C1199 0.999 . S
H1203 C1184 0.913 . S
H1204 C1222 0.951 . S
H1205 C1224 0.951 . S
H1206 C1226 0.950 . S
H1207 C1227 0.950 . S
H1208 C1229 0.950 . S
H1209 C1232 0.950 . S
H1210 C1233 0.950 . S
H1211 C1235 0.950 . S
H1212 C1236 0.950 . S
H1213 C1237 0.951 . S
H1214 C1239 0.951 . S
H1215 C1241 0.950 . S
H1216 C1242 0.950 . S
H1217 C1244 0.950 . S
H1218 C1247 0.950 . S
H1219 C1248 0.950 . S
H1220 C1250 0.950 . S
H1221 C1251 0.950 . S
C1222 H1204 0.951 . S
C1222 C1223 1.366 . S
C1222 C1224 1.388 . S
C1223 C1222 1.366 . S
C1223 C1227 1.385 . S
C1224 H1205 0.951 . S
C1224 C1222 1.388 . S
C1224 C1225 1.366 . S
C1225 C1224 1.366 . S
C1225 C1226 1.414 . S
C1225 C1228 1.499 . S
C1226 H1206 0.950 . S
C1226 C1225 1.414 . S
C1226 C1227 1.374 . S
C1227 H1207 0.950 . S
C1227 C1223 1.385 . S
C1227 C1226 1.374 . S
C1228 C1225 1.499 . S
C1228 C1229 1.373 . S
C1228 C1230 1.389 . S
C1229 H1208 0.950 . S
C1229 C1228 1.373 . S
C1229 C1245 1.377 . S
C1230 C1228 1.389 . S
C1230 C1231 1.524 . S
C1230 C1244 1.377 . S
C1231 C1230 1.524 . S
C1231 C1232 1.397 . S
C1231 C1236 1.363 . S
C1232 H1209 0.950 . S
C1232 C1231 1.397 . S
C1232 C1233 1.334 . S
C1233 H1210 0.950 . S
C1233 C1232 1.334 . S
C1233 C1234 1.287 . S
C1234 C1233 1.287 . S
C1234 C1235 1.524 . S
C1234 H1253 0.913 . S
C1235 H1211 0.950 . S
C1235 C1234 1.524 . S
C1235 C1236 1.415 . S
C1236 H1212 0.950 . S
C1236 C1231 1.363 . S
C1236 C1235 1.415 . S
C1237 H1213 0.951 . S
C1237 C1238 1.366 . S
C1237 C1239 1.388 . S
C1238 C1237 1.366 . S
C1238 C1242 1.385 . S
C1239 H1214 0.951 . S
C1239 C1237 1.388 . S
C1239 C1240 1.366 . S
C1240 C1239 1.366 . S
C1240 C1241 1.414 . S
C1240 C1243 1.499 . S
C1241 H1215 0.950 . S
C1241 C1240 1.414 . S
C1241 C1242 1.374 . S
C1242 H1216 0.950 . S
C1242 C1238 1.385 . S
C1242 C1241 1.374 . S
C1243 C1240 1.499 . S
C1243 C1244 1.373 . S
C1243 C1245 1.389 . S
C1244 H1217 0.950 . S
C1244 C1230 1.377 . S
C1244 C1243 1.373 . S
C1245 C1229 1.377 . S
C1245 C1243 1.389 . S
C1245 C1246 1.524 . S
C1246 C1245 1.524 . S
C1246 C1247 1.397 . S
C1246 C1251 1.363 . S
C1247 H1218 0.950 . S
C1247 C1246 1.397 . S
C1247 C1248 1.334 . S
C1248 H1219 0.950 . S
C1248 C1247 1.334 . S
C1248 C1249 1.287 . S
C1249 C1248 1.287 . S
C1249 C1250 1.524 . S
C1249 H1252 0.999 . S
C1250 H1220 0.950 . S
C1250 C1249 1.524 . S
C1250 C1251 1.415 . S
C1251 H1221 0.950 . S
C1251 C1246 1.363 . S
C1251 C1250 1.415 . S
H1252 C1249 0.999 . S
H1253 C1234 0.913 . S
H1254 C1272 0.951 . S
H1255 C1274 0.951 . S
H1256 C1276 0.950 . S
H1257 C1277 0.950 . S
H1258 C1279 0.950 . S
H1259 C1282 0.950 . S
H1260 C1283 0.950 . S
H1261 C1285 0.950 . S
H1262 C1286 0.950 . S
H1263 C1287 0.951 . S
H1264 C1289 0.951 . S
H1265 C1291 0.950 . S
H1266 C1292 0.950 . S
H1267 C1294 0.950 . S
H1268 C1297 0.950 . S
H1269 C1298 0.950 . S
H1270 C1300 0.950 . S
H1271 C1301 0.950 . S
C1272 H1254 0.951 . S
C1272 C1273 1.366 . S
C1272 C1274 1.388 . S
C1273 C1272 1.366 . S
C1273 C1277 1.385 . S
C1274 H1255 0.951 . S
C1274 C1272 1.388 . S
C1274 C1275 1.366 . S
C1275 C1274 1.366 . S
C1275 C1276 1.414 . S
C1275 C1278 1.499 . S
C1276 H1256 0.950 . S
C1276 C1275 1.414 . S
C1276 C1277 1.374 . S
C1277 H1257 0.950 . S
C1277 C1273 1.385 . S
C1277 C1276 1.374 . S
C1278 C1275 1.499 . S
C1278 C1279 1.373 . S
C1278 C1280 1.389 . S
C1279 H1258 0.950 . S
C1279 C1278 1.373 . S
C1279 C1295 1.377 . S
C1280 C1278 1.389 . S
C1280 C1281 1.524 . S
C1280 C1294 1.377 . S
C1281 C1280 1.524 . S
C1281 C1282 1.397 . S
C1281 C1286 1.363 . S
C1282 H1259 0.950 . S
C1282 C1281 1.397 . S
C1282 C1283 1.334 . S
C1283 H1260 0.950 . S
C1283 C1282 1.334 . S
C1283 C1284 1.287 . S
C1284 C1283 1.287 . S
C1284 C1285 1.524 . S
C1284 H1303 0.913 . S
C1285 H1261 0.950 . S
C1285 C1284 1.524 . S
C1285 C1286 1.415 . S
C1286 H1262 0.950 . S
C1286 C1281 1.363 . S
C1286 C1285 1.415 . S
C1287 H1263 0.951 . S
C1287 C1288 1.366 . S
C1287 C1289 1.388 . S
C1288 C1287 1.366 . S
C1288 C1292 1.385 . S
C1289 H1264 0.951 . S
C1289 C1287 1.388 . S
C1289 C1290 1.366 . S
C1290 C1289 1.366 . S
C1290 C1291 1.414 . S
C1290 C1293 1.499 . S
C1291 H1265 0.950 . S
C1291 C1290 1.414 . S
C1291 C1292 1.374 . S
C1292 H1266 0.950 . S
C1292 C1288 1.385 . S
C1292 C1291 1.374 . S
C1293 C1290 1.499 . S
C1293 C1294 1.373 . S
C1293 C1295 1.389 . S
C1294 H1267 0.950 . S
C1294 C1280 1.377 . S
C1294 C1293 1.373 . S
C1295 C1279 1.377 . S
C1295 C1293 1.389 . S
C1295 C1296 1.524 . S
C1296 C1295 1.524 . S
C1296 C1297 1.397 . S
C1296 C1301 1.363 . S
C1297 H1268 0.950 . S
C1297 C1296 1.397 . S
C1297 C1298 1.334 . S
C1298 H1269 0.950 . S
C1298 C1297 1.334 . S
C1298 C1299 1.287 . S
C1299 C1298 1.287 . S
C1299 C1300 1.524 . S
C1299 H1302 0.999 . S
C1300 H1270 0.950 . S
C1300 C1299 1.524 . S
C1300 C1301 1.415 . S
C1301 H1271 0.950 . S
C1301 C1296 1.363 . S
C1301 C1300 1.415 . S
H1302 C1299 0.999 . S
H1303 C1284 0.913 . S
H1304 C1322 0.951 . S
H1305 C1324 0.951 . S
H1306 C1326 0.950 . S
H1307 C1327 0.950 . S
H1308 C1329 0.950 . S
H1309 C1332 0.950 . S
H1310 C1333 0.950 . S
H1311 C1335 0.950 . S
H1312 C1336 0.950 . S
H1313 C1337 0.951 . S
H1314 C1339 0.951 . S
H1315 C1341 0.950 . S
H1316 C1342 0.950 . S
H1317 C1344 0.950 . S
H1318 C1347 0.950 . S
H1319 C1348 0.950 . S
H1320 C1350 0.950 . S
H1321 C1351 0.950 . S
C1322 H1304 0.951 . S
C1322 C1323 1.366 . S
C1322 C1324 1.388 . S
C1323 C1322 1.366 . S
C1323 C1327 1.385 . S
C1324 H1305 0.951 . S
C1324 C1322 1.388 . S
C1324 C1325 1.366 . S
C1325 C1324 1.366 . S
C1325 C1326 1.414 . S
C1325 C1328 1.499 . S
C1326 H1306 0.950 . S
C1326 C1325 1.414 . S
C1326 C1327 1.374 . S
C1327 H1307 0.950 . S
C1327 C1323 1.385 . S
C1327 C1326 1.374 . S
C1328 C1325 1.499 . S
C1328 C1329 1.373 . S
C1328 C1330 1.389 . S
C1329 H1308 0.950 . S
C1329 C1328 1.373 . S
C1329 C1345 1.377 . S
C1330 C1328 1.389 . S
C1330 C1331 1.524 . S
C1330 C1344 1.377 . S
C1331 C1330 1.524 . S
C1331 C1332 1.397 . S
C1331 C1336 1.363 . S
C1332 H1309 0.950 . S
C1332 C1331 1.397 . S
C1332 C1333 1.334 . S
C1333 H1310 0.950 . S
C1333 C1332 1.334 . S
C1333 C1334 1.287 . S
C1334 C1333 1.287 . S
C1334 C1335 1.524 . S
C1334 H1353 0.913 . S
C1335 H1311 0.950 . S
C1335 C1334 1.524 . S
C1335 C1336 1.415 . S
C1336 H1312 0.950 . S
C1336 C1331 1.363 . S
C1336 C1335 1.415 . S
C1337 H1313 0.951 . S
C1337 C1338 1.366 . S
C1337 C1339 1.388 . S
C1338 C1337 1.366 . S
C1338 C1342 1.385 . S
C1339 H1314 0.951 . S
C1339 C1337 1.388 . S
C1339 C1340 1.366 . S
C1340 C1339 1.366 . S
C1340 C1341 1.414 . S
C1340 C1343 1.499 . S
C1341 H1315 0.950 . S
C1341 C1340 1.414 . S
C1341 C1342 1.374 . S
C1342 H1316 0.950 . S
C1342 C1338 1.385 . S
C1342 C1341 1.374 . S
C1343 C1340 1.499 . S
C1343 C1344 1.373 . S
C1343 C1345 1.389 . S
C1344 H1317 0.950 . S
C1344 C1330 1.377 . S
C1344 C1343 1.373 . S
C1345 C1329 1.377 . S
C1345 C1343 1.389 . S
C1345 C1346 1.524 . S
C1346 C1345 1.524 . S
C1346 C1347 1.397 . S
C1346 C1351 1.363 . S
C1347 H1318 0.950 . S
C1347 C1346 1.397 . S
C1347 C1348 1.334 . S
C1348 H1319 0.950 . S
C1348 C1347 1.334 . S
C1348 C1349 1.287 . S
C1349 C1348 1.287 . S
C1349 C1350 1.524 . S
C1349 H1352 0.999 . S
C1350 H1320 0.950 . S
C1350 C1349 1.524 . S
C1350 C1351 1.415 . S
C1351 H1321 0.950 . S
C1351 C1346 1.363 . S
C1351 C1350 1.415 . S
H1352 C1349 0.999 . S
H1353 C1334 0.913 . S
H1354 C1372 0.951 . S
H1355 C1374 0.951 . S
H1356 C1376 0.950 . S
H1357 C1377 0.950 . S
H1358 C1379 0.950 . S
H1359 C1382 0.950 . S
H1360 C1383 0.950 . S
H1361 C1385 0.950 . S
H1362 C1386 0.950 . S
H1363 C1387 0.951 . S
H1364 C1389 0.951 . S
H1365 C1391 0.950 . S
H1366 C1392 0.950 . S
H1367 C1394 0.950 . S
H1368 C1397 0.950 . S
H1369 C1398 0.950 . S
H1370 C1400 0.950 . S
H1371 C1401 0.950 . S
C1372 H1354 0.951 . S
C1372 C1373 1.366 . S
C1372 C1374 1.388 . S
C1373 C1372 1.366 . S
C1373 C1377 1.385 . S
C1374 H1355 0.951 . S
C1374 C1372 1.388 . S
C1374 C1375 1.366 . S
C1375 C1374 1.366 . S
C1375 C1376 1.414 . S
C1375 C1378 1.499 . S
C1376 H1356 0.950 . S
C1376 C1375 1.414 . S
C1376 C1377 1.374 . S
C1377 H1357 0.950 . S
C1377 C1373 1.385 . S
C1377 C1376 1.374 . S
C1378 C1375 1.499 . S
C1378 C1379 1.373 . S
C1378 C1380 1.389 . S
C1379 H1358 0.950 . S
C1379 C1378 1.373 . S
C1379 C1395 1.377 . S
C1380 C1378 1.389 . S
C1380 C1381 1.524 . S
C1380 C1394 1.377 . S
C1381 C1380 1.524 . S
C1381 C1382 1.397 . S
C1381 C1386 1.363 . S
C1382 H1359 0.950 . S
C1382 C1381 1.397 . S
C1382 C1383 1.334 . S
C1383 H1360 0.950 . S
C1383 C1382 1.334 . S
C1383 C1384 1.287 . S
C1384 C1383 1.287 . S
C1384 C1385 1.524 . S
C1384 H1403 0.913 . S
C1385 H1361 0.950 . S
C1385 C1384 1.524 . S
C1385 C1386 1.415 . S
C1386 H1362 0.950 . S
C1386 C1381 1.363 . S
C1386 C1385 1.415 . S
C1387 H1363 0.951 . S
C1387 C1388 1.366 . S
C1387 C1389 1.388 . S
C1388 C1387 1.366 . S
C1388 C1392 1.385 . S
C1389 H1364 0.951 . S
C1389 C1387 1.388 . S
C1389 C1390 1.366 . S
C1390 C1389 1.366 . S
C1390 C1391 1.414 . S
C1390 C1393 1.499 . S
C1391 H1365 0.950 . S
C1391 C1390 1.414 . S
C1391 C1392 1.374 . S
C1392 H1366 0.950 . S
C1392 C1388 1.385 . S
C1392 C1391 1.374 . S
C1393 C1390 1.499 . S
C1393 C1394 1.373 . S
C1393 C1395 1.389 . S
C1394 H1367 0.950 . S
C1394 C1380 1.377 . S
C1394 C1393 1.373 . S
C1395 C1379 1.377 . S
C1395 C1393 1.389 . S
C1395 C1396 1.524 . S
C1396 C1395 1.524 . S
C1396 C1397 1.397 . S
C1396 C1401 1.363 . S
C1397 H1368 0.950 . S
C1397 C1396 1.397 . S
C1397 C1398 1.334 . S
C1398 H1369 0.950 . S
C1398 C1397 1.334 . S
C1398 C1399 1.287 . S
C1399 C1398 1.287 . S
C1399 C1400 1.524 . S
C1399 H1402 0.999 . S
C1400 H1370 0.950 . S
C1400 C1399 1.524 . S
C1400 C1401 1.415 . S
C1401 H1371 0.950 . S
C1401 C1396 1.363 . S
C1401 C1400 1.415 . S
H1402 C1399 0.999 . S
H1403 C1384 0.913 . S
H1404 C1422 0.951 . S
H1405 C1424 0.951 . S
H1406 C1426 0.950 . S
H1407 C1427 0.950 . S
H1408 C1429 0.950 . S
H1409 C1432 0.950 . S
H1410 C1433 0.950 . S
H1411 C1435 0.950 . S
H1412 C1436 0.950 . S
H1413 C1437 0.951 . S
H1414 C1439 0.951 . S
H1415 C1441 0.950 . S
H1416 C1442 0.950 . S
H1417 C1444 0.950 . S
H1418 C1447 0.950 . S
H1419 C1448 0.950 . S
H1420 C1450 0.950 . S
H1421 C1451 0.950 . S
C1422 H1404 0.951 . S
C1422 C1423 1.366 . S
C1422 C1424 1.388 . S
C1423 C1422 1.366 . S
C1423 C1427 1.385 . S
C1424 H1405 0.951 . S
C1424 C1422 1.388 . S
C1424 C1425 1.366 . S
C1425 C1424 1.366 . S
C1425 C1426 1.414 . S
C1425 C1428 1.499 . S
C1426 H1406 0.950 . S
C1426 C1425 1.414 . S
C1426 C1427 1.374 . S
C1427 H1407 0.950 . S
C1427 C1423 1.385 . S
C1427 C1426 1.374 . S
C1428 C1425 1.499 . S
C1428 C1429 1.373 . S
C1428 C1430 1.389 . S
C1429 H1408 0.950 . S
C1429 C1428 1.373 . S
C1429 C1445 1.377 . S
C1430 C1428 1.389 . S
C1430 C1431 1.524 . S
C1430 C1444 1.377 . S
C1431 C1430 1.524 . S
C1431 C1432 1.397 . S
C1431 C1436 1.363 . S
C1432 H1409 0.950 . S
C1432 C1431 1.397 . S
C1432 C1433 1.334 . S
C1433 H1410 0.950 . S
C1433 C1432 1.334 . S
C1433 C1434 1.287 . S
C1434 C1433 1.287 . S
C1434 C1435 1.524 . S
C1434 H1453 0.913 . S
C1435 H1411 0.950 . S
C1435 C1434 1.524 . S
C1435 C1436 1.415 . S
C1436 H1412 0.950 . S
C1436 C1431 1.363 . S
C1436 C1435 1.415 . S
C1437 H1413 0.951 . S
C1437 C1438 1.366 . S
C1437 C1439 1.388 . S
C1438 C1437 1.366 . S
C1438 C1442 1.385 . S
C1439 H1414 0.951 . S
C1439 C1437 1.388 . S
C1439 C1440 1.366 . S
C1440 C1439 1.366 . S
C1440 C1441 1.414 . S
C1440 C1443 1.499 . S
C1441 H1415 0.950 . S
C1441 C1440 1.414 . S
C1441 C1442 1.374 . S
C1442 H1416 0.950 . S
C1442 C1438 1.385 . S
C1442 C1441 1.374 . S
C1443 C1440 1.499 . S
C1443 C1444 1.373 . S
C1443 C1445 1.389 . S
C1444 H1417 0.950 . S
C1444 C1430 1.377 . S
C1444 C1443 1.373 . S
C1445 C1429 1.377 . S
C1445 C1443 1.389 . S
C1445 C1446 1.524 . S
C1446 C1445 1.524 . S
C1446 C1447 1.397 . S
C1446 C1451 1.363 . S
C1447 H1418 0.950 . S
C1447 C1446 1.397 . S
C1447 C1448 1.334 . S
C1448 H1419 0.950 . S
C1448 C1447 1.334 . S
C1448 C1449 1.287 . S
C1449 C1448 1.287 . S
C1449 C1450 1.524 . S
C1449 H1452 0.999 . S
C1450 H1420 0.950 . S
C1450 C1449 1.524 . S
C1450 C1451 1.415 . S
C1451 H1421 0.950 . S
C1451 C1446 1.363 . S
C1451 C1450 1.415 . S
H1452 C1449 0.999 . S
H1453 C1434 0.913 . S
H1454 C1472 0.951 . S
H1455 C1474 0.951 . S
H1456 C1476 0.950 . S
H1457 C1477 0.950 . S
H1458 C1479 0.950 . S
H1459 C1482 0.950 . S
H1460 C1483 0.950 . S
H1461 C1485 0.950 . S
H1462 C1486 0.950 . S
H1463 C1487 0.951 . S
H1464 C1489 0.951 . S
H1465 C1491 0.950 . S
H1466 C1492 0.950 . S
H1467 C1494 0.950 . S
H1468 C1497 0.950 . S
H1469 C1498 0.950 . S
H1470 C1500 0.950 . S
H1471 C1501 0.950 . S
C1472 H1454 0.951 . S
C1472 C1473 1.366 . S
C1472 C1474 1.388 . S
C1473 C1472 1.366 . S
C1473 C1477 1.385 . S
C1474 H1455 0.951 . S
C1474 C1472 1.388 . S
C1474 C1475 1.366 . S
C1475 C1474 1.366 . S
C1475 C1476 1.414 . S
C1475 C1478 1.499 . S
C1476 H1456 0.950 . S
C1476 C1475 1.414 . S
C1476 C1477 1.374 . S
C1477 H1457 0.950 . S
C1477 C1473 1.385 . S
C1477 C1476 1.374 . S
C1478 C1475 1.499 . S
C1478 C1479 1.373 . S
C1478 C1480 1.389 . S
C1479 H1458 0.950 . S
C1479 C1478 1.373 . S
C1479 C1495 1.377 . S
C1480 C1478 1.389 . S
C1480 C1481 1.524 . S
C1480 C1494 1.377 . S
C1481 C1480 1.524 . S
C1481 C1482 1.397 . S
C1481 C1486 1.363 . S
C1482 H1459 0.950 . S
C1482 C1481 1.397 . S
C1482 C1483 1.334 . S
C1483 H1460 0.950 . S
C1483 C1482 1.334 . S
C1483 C1484 1.287 . S
C1484 C1483 1.287 . S
C1484 C1485 1.524 . S
C1484 H1503 0.913 . S
C1485 H1461 0.950 . S
C1485 C1484 1.524 . S
C1485 C1486 1.415 . S
C1486 H1462 0.950 . S
C1486 C1481 1.363 . S
C1486 C1485 1.415 . S
C1487 H1463 0.951 . S
C1487 C1488 1.366 . S
C1487 C1489 1.388 . S
C1488 C1487 1.366 . S
C1488 C1492 1.385 . S
C1489 H1464 0.951 . S
C1489 C1487 1.388 . S
C1489 C1490 1.366 . S
C1490 C1489 1.366 . S
C1490 C1491 1.414 . S
C1490 C1493 1.499 . S
C1491 H1465 0.950 . S
C1491 C1490 1.414 . S
C1491 C1492 1.374 . S
C1492 H1466 0.950 . S
C1492 C1488 1.385 . S
C1492 C1491 1.374 . S
C1493 C1490 1.499 . S
C1493 C1494 1.373 . S
C1493 C1495 1.389 . S
C1494 H1467 0.950 . S
C1494 C1480 1.377 . S
C1494 C1493 1.373 . S
C1495 C1479 1.377 . S
C1495 C1493 1.389 . S
C1495 C1496 1.524 . S
C1496 C1495 1.524 . S
C1496 C1497 1.397 . S
C1496 C1501 1.363 . S
C1497 H1468 0.950 . S
C1497 C1496 1.397 . S
C1497 C1498 1.334 . S
C1498 H1469 0.950 . S
C1498 C1497 1.334 . S
C1498 C1499 1.287 . S
C1499 C1498 1.287 . S
C1499 C1500 1.524 . S
C1499 H1502 0.999 . S
C1500 H1470 0.950 . S
C1500 C1499 1.524 . S
C1500 C1501 1.415 . S
C1501 H1471 0.950 . S
C1501 C1496 1.363 . S
C1501 C1500 1.415 . S
H1502 C1499 0.999 . S
H1503 C1484 0.913 . S
C723 C49 1.481 . S
C738 C284 1.480 . S
C773 C29 1.480 . S
C788 C145 1.480 . S
C823 C108 1.480 . S
C838 C233 1.480 . S
C873 C321 1.481 . S
C888 C196 1.480 . S
C923 C401 1.481 . S
C938 C645 1.480 . S
C973 C497 1.481 . S
C988 C381 1.480 . S
C1023 C577 1.481 . S
C1038 C460 1.480 . S
C1073 C665 1.480 . S
C1088 C557 1.480 . S
C1123 C585 1.314 . S
C1138 C20 1.311 . S
C1173 C117 1.314 . S
C1188 C673 1.310 . S
C1223 C409 1.314 . S
C1238 C205 1.311 . S
C1273 C489 1.314 . S
C1288 C293 1.310 . S
C1323 C469 1.314 . S
C1338 C313 1.318 . S
C1373 C57 1.314 . S
C1388 C548 1.318 . S
C1423 C137 1.314 . S
C1438 C636 1.318 . S
C1473 C225 1.314 . S
C1488 C372 1.318 . S
