# Generated by pormake.
# Topology umz, (4)-cn, num edge types: 1
# Building blocks:
#     Node 0, Type 0, BuildingBlock: KUFVIS_clean_sbu_0, # of connection points: 4
#     Node 1, Type 0, BuildingBlock: KUFVIS_clean_sbu_0, # of connection points: 4
#     Node 2, Type 0, BuildingBlock: KUFVIS_clean_sbu_0, # of connection points: 4
#     Node 3, Type 0, BuildingBlock: KUFVIS_clean_sbu_0, # of connection points: 4
#     Node 4, Type 0, BuildingBlock: KUFVIS_clean_sbu_0, # of connection points: 4
#     Node 5, Type 0, BuildingBlock: KUFVIS_clean_sbu_0, # of connection points: 4
#     Node 6, Type 0, BuildingBlock: KUFVIS_clean_sbu_0, # of connection points: 4
#     Node 7, Type 0, BuildingBlock: KUFVIS_clean_sbu_0, # of connection points: 4
#     Node 8, Type 0, BuildingBlock: KUFVIS_clean_sbu_0, # of connection points: 4
#     Node 9, Type 0, BuildingBlock: KUFVIS_clean_sbu_0, # of connection points: 4
#     Node 10, Type 0, BuildingBlock: KUFVIS_clean_sbu_0, # of connection points: 4
#     Node 11, Type 0, BuildingBlock: KUFVIS_clean_sbu_0, # of connection points: 4
#     Node 12, Type 0, BuildingBlock: KUFVIS_clean_sbu_0, # of connection points: 4
#     Node 13, Type 0, BuildingBlock: KUFVIS_clean_sbu_0, # of connection points: 4
#     Node 14, Type 0, BuildingBlock: KUFVIS_clean_sbu_0, # of connection points: 4
#     Node 15, Type 0, BuildingBlock: KUFVIS_clean_sbu_0, # of connection points: 4
#     Edge 16, Type (0, 0), BuildingBlock: MIFKUJ_clean_linker_0, # of connection points: 2
#     Edge 17, Type (0, 0), BuildingBlock: MIFKUJ_clean_linker_0, # of connection points: 2
#     Edge 18, Type (0, 0), BuildingBlock: MIFKUJ_clean_linker_0, # of connection points: 2
#     Edge 19, Type (0, 0), BuildingBlock: MIFKUJ_clean_linker_0, # of connection points: 2
#     Edge 20, Type (0, 0), BuildingBlock: MIFKUJ_clean_linker_0, # of connection points: 2
#     Edge 21, Type (0, 0), BuildingBlock: MIFKUJ_clean_linker_0, # of connection points: 2
#     Edge 22, Type (0, 0), BuildingBlock: MIFKUJ_clean_linker_0, # of connection points: 2
#     Edge 23, Type (0, 0), BuildingBlock: MIFKUJ_clean_linker_0, # of connection points: 2
#     Edge 24, Type (0, 0), BuildingBlock: MIFKUJ_clean_linker_0, # of connection points: 2
#     Edge 25, Type (0, 0), BuildingBlock: MIFKUJ_clean_linker_0, # of connection points: 2
#     Edge 26, Type (0, 0), BuildingBlock: MIFKUJ_clean_linker_0, # of connection points: 2
#     Edge 27, Type (0, 0), BuildingBlock: MIFKUJ_clean_linker_0, # of connection points: 2
#     Edge 28, Type (0, 0), BuildingBlock: MIFKUJ_clean_linker_0, # of connection points: 2
#     Edge 29, Type (0, 0), BuildingBlock: MIFKUJ_clean_linker_0, # of connection points: 2
#     Edge 30, Type (0, 0), BuildingBlock: MIFKUJ_clean_linker_0, # of connection points: 2
#     Edge 31, Type (0, 0), BuildingBlock: MIFKUJ_clean_linker_0, # of connection points: 2
#     Edge 32, Type (0, 0), BuildingBlock: MIFKUJ_clean_linker_0, # of connection points: 2
#     Edge 33, Type (0, 0), BuildingBlock: MIFKUJ_clean_linker_0, # of connection points: 2
#     Edge 34, Type (0, 0), BuildingBlock: MIFKUJ_clean_linker_0, # of connection points: 2
#     Edge 35, Type (0, 0), BuildingBlock: MIFKUJ_clean_linker_0, # of connection points: 2
#     Edge 36, Type (0, 0), BuildingBlock: MIFKUJ_clean_linker_0, # of connection points: 2
#     Edge 37, Type (0, 0), BuildingBlock: MIFKUJ_clean_linker_0, # of connection points: 2
#     Edge 38, Type (0, 0), BuildingBlock: MIFKUJ_clean_linker_0, # of connection points: 2
#     Edge 39, Type (0, 0), BuildingBlock: MIFKUJ_clean_linker_0, # of connection points: 2
#     Edge 40, Type (0, 0), BuildingBlock: MIFKUJ_clean_linker_0, # of connection points: 2
#     Edge 41, Type (0, 0), BuildingBlock: MIFKUJ_clean_linker_0, # of connection points: 2
#     Edge 42, Type (0, 0), BuildingBlock: MIFKUJ_clean_linker_0, # of connection points: 2
#     Edge 43, Type (0, 0), BuildingBlock: MIFKUJ_clean_linker_0, # of connection points: 2
#     Edge 44, Type (0, 0), BuildingBlock: MIFKUJ_clean_linker_0, # of connection points: 2
#     Edge 45, Type (0, 0), BuildingBlock: MIFKUJ_clean_linker_0, # of connection points: 2
#     Edge 46, Type (0, 0), BuildingBlock: MIFKUJ_clean_linker_0, # of connection points: 2
#     Edge 47, Type (0, 0), BuildingBlock: MIFKUJ_clean_linker_0, # of connection points: 2
# Relax obj value: 0.252
# Max RMSD: 0.161
# Mean RMSD: 0.161
data_MOF--net-umz--node1-KUFVIS_clean_sbu_0--edge1-MIFKUJ_clean_linker_0
_symmetry_space_group_name_H-M    P1
_symmetry_Int_Tables_number       1
_symmetry_cell_setting            triclinic
loop_
_symmetry_equiv_pos_as_xyz
'x, y, z'
_cell_length_a     75.184069
_cell_length_b     75.159999
_cell_length_c     29.418271
_cell_angle_alpha  89.99881
_cell_angle_beta   89.98396
_cell_angle_gamma 89.998973
loop_
_atom_site_label
_atom_site_type_symbol
_atom_site_fract_x
_atom_site_fract_y
_atom_site_fract_z
_atom_type_partial_charge
Mn0 Mn 0.011 0.63541 0.11734 0.0
Mn1 Mn 0.97748 0.63031 0.04229 0.0
C2 C 0.98289 0.62786 0.14246 0.0
C3 C 0.03482 0.62376 0.1581 0.0
C4 C 0.99208 0.66623 0.07076 0.0
O5 O 0.02391 0.63282 0.05671 0.0
O6 O 0.00059 0.62698 0.01078 0.0
C7 C 0.98182 0.59208 0.02083 0.0
N8 N 0.97154 0.60569 0.03644 0.0
C9 C 0.94681 0.58598 0.04909 0.0
C10 C 0.9571 0.57176 0.0329 0.0
C11 C 0.97469 0.57483 0.01877 0.0
C12 C 0.95459 0.6029 0.05004 0.0
H13 H 0.99538 0.59435 0.01015 0.0
C14 C 0.01733 0.62865 0.01807 0.0
O15 O 0.03352 0.64072 0.15027 0.0
O16 O 0.02262 0.61358 0.14093 0.0
N17 N 0.95446 0.63294 0.06928 0.0
C18 C 0.94677 0.64781 0.08703 0.0
C19 C 0.92938 0.64687 0.1043 0.0
C20 C 0.92007 0.63068 0.103 0.0
C21 C 0.92822 0.61557 0.08436 0.0
C22 C 0.94553 0.61734 0.06737 0.0
H23 H 0.9539 0.66028 0.08827 0.0
O24 O 0.99421 0.63512 0.17011 0.0
O25 O 0.98842 0.62526 0.10119 0.0
O26 O 0.00302 0.66044 0.10032 0.0
O27 O 0.98233 0.65614 0.04629 0.0
C28 C 0.91998 0.59874 0.08281 0.0
C29 C 0.92928 0.58395 0.06528 0.0
H30 H 0.95169 0.55841 0.03158 0.0
H31 H 0.98275 0.56391 0.00646 0.0
H32 H 0.9232 0.65858 0.11876 0.0
H33 H 0.90672 0.62996 0.11673 0.0
H34 H 0.9066 0.59697 0.0957 0.0
H35 H 0.92292 0.57102 0.06504 0.0
Mn36 Mn 0.8803 0.99786 0.57176 0.0
Mn37 Mn 0.87922 0.96599 0.49131 0.0
C38 C 0.87694 0.96834 0.59196 0.0
C39 C 0.89594 0.01573 0.62247 0.0
C40 C 0.84789 0.98991 0.51281 0.0
O41 O 0.89018 0.01065 0.51626 0.0
O42 O 0.89037 0.98789 0.46629 0.0
C43 C 0.91795 0.95981 0.48209 0.0
N44 N 0.90134 0.95348 0.49098 0.0
C45 C 0.91253 0.92377 0.50137 0.0
C46 C 0.92975 0.92994 0.49202 0.0
C47 C 0.93248 0.94806 0.48255 0.0
C48 C 0.8986 0.93612 0.50066 0.0
H49 H 0.92011 0.97373 0.47477 0.0
C50 C 0.89366 0.00408 0.47723 0.0
O51 O 0.88017 0.02014 0.60843 0.0
O52 O 0.90287 0.00139 0.60551 0.0
N53 N 0.86897 0.94406 0.51141 0.0
C54 C 0.8517 0.94043 0.52206 0.0
C55 C 0.84682 0.92298 0.53367 0.0
C56 C 0.85969 0.90943 0.53364 0.0
C57 C 0.87734 0.91348 0.52224 0.0
C58 C 0.88144 0.93112 0.51123 0.0
H59 H 0.84173 0.95077 0.52182 0.0
O60 O 0.87207 0.98094 0.61941 0.0
O61 O 0.88394 0.97343 0.55373 0.0
O62 O 0.85536 0.99854 0.54478 0.0
O63 O 0.85573 0.97777 0.48994 0.0
C64 C 0.89103 0.90071 0.52138 0.0
C65 C 0.90865 0.90586 0.51146 0.0
H66 H 0.94098 0.92091 0.49226 0.0
H67 H 0.94574 0.95295 0.47551 0.0
H68 H 0.83317 0.91997 0.54244 0.0
H69 H 0.85588 0.89597 0.54256 0.0
H70 H 0.88809 0.88689 0.52812 0.0
H71 H 0.9191 0.89595 0.51159 0.0
Mn72 Mn 0.48647 0.87328 0.08599 0.0
Mn73 Mn 0.52136 0.87496 0.01461 0.0
C74 C 0.51508 0.87662 0.11438 0.0
C75 C 0.4638 0.88755 0.12577 0.0
C76 C 0.50127 0.84101 0.03677 0.0
O77 O 0.47502 0.87844 0.02451 0.0
O78 O 0.49964 0.88301 0.98212 0.0
C79 C 0.52408 0.91378 0.99923 0.0
N80 N 0.53147 0.89827 0.01391 0.0
C81 C 0.5595 0.91265 0.02826 0.0
C82 C 0.55225 0.92874 0.01281 0.0
C83 C 0.53441 0.92934 0.99867 0.0
C84 C 0.54848 0.89765 0.02873 0.0
H85 H 0.51045 0.91424 0.98776 0.0
C86 C 0.48271 0.88309 0.9876 0.0
O87 O 0.46294 0.87069 0.11639 0.0
O88 O 0.47753 0.89619 0.11073 0.0
N89 N 0.54316 0.86764 0.04256 0.0
C90 C 0.54824 0.851 0.05564 0.0
C91 C 0.56561 0.84821 0.07168 0.0
C92 C 0.57764 0.86248 0.07347 0.0
C93 C 0.5722 0.8794 0.05904 0.0
C94 C 0.55468 0.88142 0.04374 0.0
H95 H 0.53915 0.83992 0.05388 0.0
O96 O 0.5024 0.87066 0.14014 0.0
O97 O 0.51049 0.88046 0.07309 0.0
O98 O 0.49117 0.84763 0.06712 0.0
O99 O 0.5123 0.85025 0.01372 0.0
C100 C 0.58358 0.89427 0.05848 0.0
C101 C 0.5773 0.91081 0.04261 0.0
H102 H 0.56024 0.94072 0.01156 0.0
H103 H 0.52871 0.94173 0.98687 0.0
H104 H 0.56973 0.83507 0.08245 0.0
H105 H 0.59105 0.86026 0.08565 0.0
H106 H 0.59726 0.89308 0.06966 0.0
H107 H 0.58636 0.92196 0.04122 0.0
Mn108 Mn 0.61797 0.4987 0.56275 0.0
Mn109 Mn 0.6155 0.53067 0.48279 0.0
C110 C 0.61504 0.52819 0.58394 0.0
C111 C 0.60441 0.47729 0.6084 0.0
C112 C 0.6498 0.51219 0.50906 0.0
O113 O 0.61273 0.48482 0.5046 0.0
O114 O 0.60824 0.50757 0.45593 0.0
C115 C 0.57655 0.53125 0.46836 0.0
N116 N 0.59183 0.53983 0.48002 0.0
C117 C 0.5763 0.56757 0.48911 0.0
C118 C 0.56039 0.55907 0.47695 0.0
C119 C 0.56051 0.54081 0.46679 0.0
C120 C 0.59183 0.55732 0.4906 0.0
H121 H 0.57661 0.51723 0.46027 0.0
C122 C 0.60839 0.49095 0.46562 0.0
O123 O 0.62119 0.4764 0.59826 0.0
O124 O 0.59541 0.49035 0.59095 0.0
N125 N 0.62206 0.55371 0.50468 0.0
C126 C 0.63847 0.55981 0.51676 0.0
C127 C 0.64056 0.57774 0.52905 0.0
C128 C 0.62585 0.58925 0.52811 0.0
C129 C 0.60917 0.5827 0.51494 0.0
C130 C 0.60785 0.56469 0.50341 0.0
H131 H 0.64986 0.55107 0.51713 0.0
O132 O 0.621 0.5165 0.61258 0.0
O133 O 0.61054 0.52215 0.54424 0.0
O134 O 0.64339 0.50307 0.54164 0.0
O135 O 0.64047 0.52233 0.48367 0.0
C136 C 0.59383 0.59338 0.5124 0.0
C137 C 0.57739 0.58581 0.49957 0.0
H138 H 0.54802 0.56643 0.47545 0.0
H139 H 0.54828 0.53414 0.45752 0.0
H140 H 0.6535 0.5827 0.53903 0.0
H141 H 0.62752 0.60309 0.53747 0.0
H142 H 0.5946 0.60744 0.52001 0.0
H143 H 0.56569 0.59415 0.49753 0.0
Mn144 Mn 0.99871 0.88493 0.92139 0.0
Mn145 Mn 0.96738 0.88667 0.00303 0.0
C146 C 0.9689 0.88375 0.90218 0.0
C147 C 0.01774 0.89933 0.87092 0.0
C148 C 0.9893 0.85375 0.98272 0.0
O149 O 0.01242 0.89382 0.97678 0.0
O150 O 0.98974 0.89736 0.02617 0.0
C151 C 0.96254 0.92568 0.0088 0.0
N152 N 0.95563 0.90918 0.0015 0.0
C153 C 0.92623 0.92115 0.99162 0.0
C154 C 0.93299 0.93828 0.99931 0.0
C155 C 0.95124 0.94056 0.00768 0.0
C156 C 0.93815 0.90686 0.99269 0.0
H157 H 0.97655 0.92747 0.01545 0.0
C158 C 0.00616 0.89885 0.01507 0.0
O159 O 0.02086 0.88318 0.88442 0.0
O160 O 0.0039 0.90724 0.88784 0.0
N161 N 0.94506 0.87685 0.98457 0.0
C162 C 0.94078 0.85954 0.97617 0.0
C163 C 0.9231 0.85505 0.96591 0.0
C164 C 0.90999 0.86835 0.96503 0.0
C165 C 0.9147 0.88604 0.97428 0.0
C166 C 0.93254 0.88974 0.98396 0.0
H167 H 0.95075 0.84922 0.97725 0.0
O168 O 0.98093 0.87809 0.87406 0.0
O169 O 0.97475 0.89031 0.94014 0.0
O170 O 0.99754 0.85997 0.94839 0.0
O171 O 0.9784 0.86283 0.0066 0.0
C172 C 0.90237 0.90012 0.97458 0.0
C173 C 0.90814 0.91768 0.98306 0.0
H174 H 0.92429 0.94977 0.99868 0.0
H175 H 0.95658 0.95374 0.01345 0.0
H176 H 0.91958 0.84136 0.95895 0.0
H177 H 0.89635 0.86484 0.95725 0.0
H178 H 0.88843 0.89752 0.96857 0.0
H179 H 0.89855 0.92842 0.98321 0.0
Mn180 Mn 0.62424 0.00679 0.43147 0.0
Mn181 Mn 0.62409 0.97265 0.50582 0.0
C182 C 0.62102 0.97796 0.40554 0.0
C183 C 0.60948 0.02891 0.39092 0.0
C184 C 0.65768 0.99156 0.47565 0.0
O185 O 0.62009 0.01915 0.49203 0.0
O186 O 0.61871 0.99526 0.53818 0.0
C187 C 0.58585 0.97305 0.52987 0.0
N188 N 0.60032 0.9642 0.51357 0.0
C189 C 0.58332 0.93737 0.5036 0.0
C190 C 0.56827 0.94615 0.52059 0.0
C191 C 0.56953 0.96408 0.53366 0.0
C192 C 0.59924 0.94698 0.50071 0.0
H193 H 0.58675 0.98685 0.53981 0.0
C194 C 0.6178 0.01206 0.53101 0.0
O195 O 0.62643 0.02993 0.399 0.0
O196 O 0.60104 0.01538 0.40785 0.0
N197 N 0.62885 0.94999 0.47897 0.0
C198 C 0.64433 0.94379 0.46081 0.0
C199 C 0.6452 0.92618 0.44509 0.0
C200 C 0.63021 0.91512 0.44851 0.0
C201 C 0.61442 0.92181 0.46724 0.0
C202 C 0.61438 0.93942 0.48261 0.0
H203 H 0.65592 0.95222 0.45831 0.0
O204 O 0.62648 0.99047 0.37855 0.0
O205 O 0.61729 0.98277 0.44696 0.0
O206 O 0.65014 0.00231 0.44828 0.0
O207 O 0.64919 0.98015 0.49943 0.0
C208 C 0.59868 0.91174 0.47098 0.0
C209 C 0.58311 0.91954 0.48885 0.0
H210 H 0.55564 0.93929 0.52343 0.0
H211 H 0.55795 0.97098 0.54658 0.0
H212 H 0.65742 0.92112 0.43054 0.0
H213 H 0.631 0.90152 0.43669 0.0
H214 H 0.59837 0.89803 0.46003 0.0
H215 H 0.57103 0.91172 0.49088 0.0
Mn216 Mn 0.49439 0.61849 0.92479 0.0
Mn217 Mn 0.529 0.61812 0.99756 0.0
C218 C 0.52314 0.61944 0.89724 0.0
C219 C 0.47335 0.6034 0.88135 0.0
C220 C 0.50738 0.65116 0.97738 0.0
O221 O 0.48292 0.61046 0.98368 0.0
O222 O 0.50696 0.6102 0.02916 0.0
C223 C 0.53081 0.57916 0.01179 0.0
N224 N 0.53879 0.59468 0.99924 0.0
C225 C 0.56673 0.57985 0.98708 0.0
C226 C 0.55887 0.56373 0.00017 0.0
C227 C 0.5408 0.56337 0.01235 0.0
C228 C 0.55607 0.59513 0.98683 0.0
H229 H 0.51695 0.57883 0.02133 0.0
C230 C 0.49033 0.6078 0.02201 0.0
O231 O 0.47071 0.61971 0.89435 0.0
O232 O 0.48797 0.59582 0.89449 0.0
N233 N 0.55129 0.62518 0.97203 0.0
C234 C 0.55663 0.64164 0.95817 0.0
C235 C 0.57423 0.64415 0.94357 0.0
C236 C 0.58623 0.62983 0.94422 0.0
C237 C 0.58046 0.61306 0.95906 0.0
C238 C 0.56273 0.61131 0.97274 0.0
H239 H 0.5475 0.65273 0.9581 0.0
O240 O 0.5099 0.62481 0.87253 0.0
O241 O 0.51913 0.61319 0.93724 0.0
O242 O 0.49658 0.64379 0.94972 0.0
O243 O 0.52 0.64281 0.99715 0.0
C244 C 0.5916 0.59803 0.96093 0.0
C245 C 0.58471 0.58139 0.97433 0.0
H246 H 0.56655 0.55154 0.00083 0.0
H247 H 0.53461 0.55097 0.02232 0.0
H248 H 0.57858 0.65713 0.93217 0.0
H249 H 0.59982 0.63185 0.93319 0.0
H250 H 0.60551 0.59915 0.95254 0.0
H251 H 0.59339 0.56988 0.97488 0.0
Mn252 Mn 0.86794 0.47293 0.38425 0.0
Mn253 Mn 0.87248 0.5068 0.45859 0.0
C254 C 0.87329 0.50143 0.35815 0.0
C255 C 0.88034 0.44972 0.34243 0.0
C256 C 0.83697 0.49027 0.43392 0.0
O257 O 0.87212 0.46029 0.44479 0.0
O258 O 0.8778 0.48397 0.48965 0.0
C259 C 0.91129 0.50484 0.47479 0.0
N260 N 0.89675 0.51427 0.46129 0.0
C261 C 0.91451 0.54035 0.44737 0.0
C262 C 0.92966 0.53095 0.46137 0.0
C263 C 0.92804 0.51311 0.47502 0.0
C264 C 0.89816 0.53142 0.44794 0.0
H265 H 0.9101 0.49111 0.48521 0.0
C266 C 0.87672 0.46715 0.4828 0.0
O267 O 0.86347 0.45004 0.35196 0.0
O268 O 0.89003 0.46252 0.3586 0.0
N269 N 0.86787 0.52965 0.43239 0.0
C270 C 0.85214 0.53651 0.41743 0.0
C271 C 0.85156 0.55409 0.40129 0.0
C272 C 0.86711 0.56445 0.401 0.0
C273 C 0.88309 0.55716 0.41696 0.0
C274 C 0.88285 0.5396 0.43282 0.0
H275 H 0.84014 0.52863 0.41765 0.0
O276 O 0.86643 0.48958 0.33131 0.0
O277 O 0.877 0.49614 0.39907 0.0
O278 O 0.84276 0.47963 0.40363 0.0
O279 O 0.847 0.5004 0.45755 0.0
C280 C 0.89931 0.56655 0.4172 0.0
C281 C 0.91502 0.55813 0.43218 0.0
H282 H 0.94261 0.53726 0.46144 0.0
H283 H 0.93969 0.50574 0.48567 0.0
H284 H 0.83917 0.55962 0.38905 0.0
H285 H 0.86663 0.57797 0.38825 0.0
H286 H 0.89989 0.58017 0.40526 0.0
H287 H 0.92746 0.56539 0.43141 0.0
Mn288 Mn 0.98271 0.3622 0.88534 0.0
Mn289 Mn 0.01639 0.36676 0.96021 0.0
C290 C 0.01092 0.36918 0.86006 0.0
C291 C 0.9591 0.3741 0.84422 0.0
C292 C 0.00142 0.33107 0.93123 0.0
O293 O 0.96987 0.36497 0.94607 0.0
O294 O 0.99332 0.37027 0.992 0.0
C295 C 0.01241 0.40503 0.98175 0.0
N296 N 0.02256 0.39132 0.96612 0.0
C297 C 0.04742 0.41084 0.95306 0.0
C298 C 0.03727 0.42515 0.96931 0.0
C299 C 0.01969 0.42222 0.98365 0.0
C300 C 0.0395 0.39398 0.95227 0.0
H301 H 0.99885 0.40287 0.99255 0.0
C302 C 0.97655 0.3689 0.98478 0.0
O303 O 0.96011 0.35716 0.85246 0.0
O304 O 0.97139 0.38415 0.86149 0.0
N305 N 0.03938 0.36393 0.93317 0.0
C306 C 0.04698 0.34896 0.91567 0.0
C307 C 0.06438 0.34974 0.89841 0.0
C308 C 0.0738 0.36587 0.89948 0.0
C309 C 0.06576 0.38108 0.91792 0.0
C310 C 0.04844 0.37946 0.93495 0.0
H311 H 0.03978 0.33654 0.91461 0.0
O312 O -0.00057 0.36215 0.8325 0.0
O313 O 0.00547 0.37199 0.90134 0.0
O314 O 0.99038 0.33708 0.90224 0.0
O315 O 0.01133 0.34097 0.95583 0.0
C316 C 0.07412 0.39784 0.91926 0.0
C317 C 0.06494 0.41273 0.93671 0.0
H318 H 0.04279 0.43845 0.97052 0.0
H319 H 0.01174 0.43321 0.99599 0.0
H320 H 0.07048 0.33796 0.88414 0.0
H321 H 0.08716 0.36647 0.88573 0.0
H322 H 0.0875 0.3995 0.9063 0.0
H323 H 0.07141 0.42561 0.93684 0.0
Mn324 Mn 0.11991 0.00131 0.42081 0.0
Mn325 Mn 0.11918 0.03347 0.50058 0.0
C326 C 0.12246 0.03088 0.40001 0.0
C327 C 0.10537 0.98239 0.3705 0.0
C328 C 0.15151 0.01057 0.48147 0.0
O329 O 0.11002 0.98837 0.47606 0.0
O330 O 0.10862 0.01124 0.52548 0.0
C331 C 0.08015 0.03812 0.50731 0.0
N332 N 0.09659 0.04511 0.49957 0.0
C333 C 0.08442 0.07445 0.48979 0.0
C334 C 0.06737 0.06762 0.49806 0.0
C335 C 0.06522 0.04935 0.50658 0.0
C336 C 0.09877 0.06259 0.49055 0.0
H337 H 0.07844 0.0241 0.51396 0.0
C338 C 0.10595 0.99493 0.5147 0.0
O339 O 0.12125 0.97883 0.38524 0.0
O340 O 0.09777 0.99666 0.38599 0.0
N341 N 0.12873 0.05576 0.48087 0.0
C342 C 0.14592 0.06006 0.47109 0.0
C343 C 0.15024 0.07774 0.46034 0.0
C344 C 0.13692 0.09084 0.46049 0.0
C345 C 0.11936 0.0861 0.47098 0.0
C346 C 0.1158 0.06825 0.48094 0.0
H347 H 0.15624 0.05008 0.47135 0.0
O348 O 0.12794 0.01835 0.37312 0.0
O349 O 0.11528 0.0257 0.43796 0.0
O350 O 0.14456 0.00158 0.44938 0.0
O351 O 0.14314 0.02261 0.50345 0.0
C352 C 0.10525 0.09839 0.47212 0.0
C353 C 0.08775 0.09256 0.48091 0.0
H354 H 0.05583 0.07625 0.49772 0.0
H355 H 0.05209 0.04395 0.51276 0.0
H356 H 0.16383 0.08128 0.45223 0.0
H357 H 0.14031 0.10448 0.45235 0.0
H358 H 0.10778 0.11237 0.46658 0.0
H359 H 0.07697 0.10212 0.48095 0.0
Mn360 Mn 0.51407 0.12204 0.92844 0.0
Mn361 Mn 0.47829 0.1206 0.99768 0.0
C362 C 0.48601 0.11839 0.89782 0.0
C363 C 0.53739 0.10825 0.8902 0.0
C364 C 0.49686 0.15484 0.9714 0.0
O365 O 0.52519 0.11748 0.99035 0.0
O366 O 0.50035 0.11582 0.03286 0.0
C367 C 0.47958 0.0823 0.02122 0.0
N368 N 0.4705 0.09654 0.00437 0.0
C369 C 0.44426 0.0788 0.99273 0.0
C370 C 0.45328 0.06398 0.01028 0.0
C371 C 0.47104 0.06574 0.02447 0.0
C372 C 0.45343 0.09499 0.99056 0.0
H373 H 0.49325 0.08357 0.03204 0.0
C374 C 0.51728 0.11498 0.02819 0.0
O375 O 0.53781 0.12513 0.89959 0.0
O376 O 0.52375 0.09929 0.9046 0.0
N377 N 0.45595 0.12462 0.96837 0.0
C378 C 0.44956 0.13987 0.94936 0.0
C379 C 0.43208 0.14024 0.93256 0.0
C380 C 0.42137 0.12498 0.93572 0.0
C381 C 0.42828 0.10941 0.955 0.0
C382 C 0.4457 0.1099 0.97172 0.0
H383 H 0.45772 0.15167 0.94718 0.0
O384 O 0.49901 0.12447 0.87335 0.0
O385 O 0.48984 0.11437 0.93982 0.0
O386 O 0.5086 0.1477 0.94606 0.0
O387 O 0.485 0.14596 0.99264 0.0
C388 C 0.41864 0.09337 0.95776 0.0
C389 C 0.42665 0.07805 0.97647 0.0
H390 H 0.44677 0.05116 0.0126 0.0
H391 H 0.47813 0.05435 0.03782 0.0
H392 H 0.42684 0.15228 0.91745 0.0
H393 H 0.40784 0.12531 0.92332 0.0
H394 H 0.40516 0.0926 0.94497 0.0
H395 H 0.41921 0.06572 0.97774 0.0
Mn396 Mn 0.37669 0.50717 0.42737 0.0
Mn397 Mn 0.37507 0.47211 0.49858 0.0
C398 C 0.3774 0.47862 0.39916 0.0
C399 C 0.39247 0.52816 0.3856 0.0
C400 C 0.34268 0.49375 0.47335 0.0
O401 O 0.38332 0.51828 0.48784 0.0
O402 O 0.38148 0.49407 0.53315 0.0
C403 C 0.41332 0.47036 0.52205 0.0
N404 N 0.3985 0.4625 0.50464 0.0
C405 C 0.41468 0.43567 0.48775 0.0
C406 C 0.43009 0.44345 0.50581 0.0
C407 C 0.4294 0.46087 0.52302 0.0
C408 C 0.39899 0.4457 0.48821 0.0
H409 H 0.4129 0.48381 0.53494 0.0
C410 C 0.38436 0.51071 0.5266 0.0
O411 O 0.3759 0.5307 0.39631 0.0
O412 O 0.40002 0.51386 0.40091 0.0
N413 N 0.36929 0.45016 0.46909 0.0
C414 C 0.35356 0.44506 0.45011 0.0
C415 C 0.35219 0.4282 0.42981 0.0
C416 C 0.36698 0.41678 0.4293 0.0
C417 C 0.38299 0.42228 0.44928 0.0
C418 C 0.38351 0.43916 0.46943 0.0
H419 H 0.34221 0.45386 0.45002 0.0
O420 O 0.37199 0.4917 0.3739 0.0
O421 O 0.38205 0.48268 0.44046 0.0
O422 O 0.35084 0.5048 0.44792 0.0
O423 O 0.35041 0.48085 0.49354 0.0
C424 C 0.39856 0.41186 0.44905 0.0
C425 C 0.41439 0.41854 0.4683 0.0
H426 H 0.44257 0.43623 0.50621 0.0
H427 H 0.44127 0.467 0.53676 0.0
H428 H 0.33981 0.42408 0.41432 0.0
H429 H 0.36593 0.40387 0.41315 0.0
H430 H 0.39857 0.39877 0.43361 0.0
H431 H 0.42634 0.41049 0.46738 0.0
Mn432 Mn 0.00307 0.11297 0.07274 0.0
Mn433 Mn 0.03394 0.11039 0.99008 0.0
C434 C 0.03291 0.11507 0.09084 0.0
C435 C 0.98423 0.09924 0.1247 0.0
C436 C 0.01157 0.14321 0.00779 0.0
O437 O 0.98926 0.10301 0.01883 0.0
O438 O 0.01168 0.09873 0.96909 0.0
C439 C 0.03964 0.07142 0.98878 0.0
N440 N 0.04623 0.0882 0.99353 0.0
C441 C 0.07601 0.07709 0.00265 0.0
C442 C 0.06959 0.05969 0.99752 0.0
C443 C 0.0513 0.05684 0.99081 0.0
C444 C 0.06374 0.09107 0.0007 0.0
H445 H 0.0256 0.06919 0.98351 0.0
C446 C 0.99536 0.09725 0.98108 0.0
O447 O 0.98103 0.11516 0.10967 0.0
O448 O 0.99817 0.09117 0.1088 0.0
N449 N 0.05615 0.12101 0.00639 0.0
C450 C 0.06005 0.13852 0.01325 0.0
C451 C 0.0777 0.14358 0.02196 0.0
C452 C 0.09117 0.13064 0.02284 0.0
C453 C 0.08683 0.11273 0.01536 0.0
C454 C 0.06901 0.10845 0.00727 0.0
H455 H 0.04979 0.14855 0.01214 0.0
O456 O 0.02087 0.12088 0.11874 0.0
O457 O 0.02706 0.10768 0.05381 0.0
O458 O 0.00377 0.13741 0.04321 0.0
O459 O 0.02238 0.13394 0.98411 0.0
C460 C 0.0995 0.09895 0.01549 0.0
C461 C 0.0941 0.08112 0.00962 0.0
H462 H 0.07855 0.04842 0.99889 0.0
H463 H 0.04623 0.04345 0.98704 0.0
H464 H 0.08092 0.15743 0.02769 0.0
H465 H 0.10478 0.13459 0.02941 0.0
H466 H 0.11344 0.10199 0.0198 0.0
H467 H 0.10395 0.07062 0.01036 0.0
Mn468 Mn 0.37424 0.99019 0.58158 0.0
Mn469 Mn 0.37417 0.02423 0.50698 0.0
C470 C 0.37681 0.01911 0.60686 0.0
C471 C 0.38911 0.96908 0.62519 0.0
C472 C 0.34079 0.00466 0.53562 0.0
O473 O 0.37954 0.97778 0.52171 0.0
O474 O 0.37982 0.00156 0.47483 0.0
C475 C 0.41241 0.02425 0.48292 0.0
N476 N 0.3979 0.03291 0.49962 0.0
C477 C 0.41499 0.05947 0.5129 0.0
C478 C 0.43008 0.05088 0.49551 0.0
C479 C 0.42878 0.03319 0.48048 0.0
C480 C 0.39897 0.04997 0.51392 0.0
H481 H 0.41152 0.0106 0.4717 0.0
C482 C 0.38147 0.98482 0.48247 0.0
O483 O 0.37238 0.96725 0.61519 0.0
O484 O 0.39735 0.9826 0.60765 0.0
N485 N 0.36923 0.04681 0.53432 0.0
C486 C 0.35378 0.05272 0.55326 0.0
C487 C 0.35304 0.06994 0.5717 0.0
C488 C 0.36817 0.08089 0.57043 0.0
C489 C 0.3839 0.07454 0.55057 0.0
C490 C 0.38379 0.05734 0.53231 0.0
H491 H 0.34216 0.0443 0.55474 0.0
O492 O 0.37096 0.00674 0.63372 0.0
O493 O 0.38087 0.01416 0.56581 0.0
O494 O 0.34843 0.99378 0.56246 0.0
O495 O 0.34914 0.01655 0.5131 0.0
C496 C 0.39979 0.08446 0.54919 0.0
C497 C 0.41532 0.07693 0.53034 0.0
H498 H 0.44278 0.05767 0.49403 0.0
H499 H 0.4404 0.02643 0.46729 0.0
H500 H 0.34088 0.07471 0.58713 0.0
H501 H 0.36761 0.09409 0.58516 0.0
H502 H 0.40029 0.09778 0.56314 0.0
H503 H 0.42752 0.08459 0.53007 0.0
Mn504 Mn 0.51004 0.3778 0.06545 0.0
Mn505 Mn 0.47439 0.37967 0.99596 0.0
C506 C 0.48185 0.38039 0.096 0.0
C507 C 0.5328 0.39164 0.10575 0.0
C508 C 0.49375 0.3454 0.01847 0.0
O509 O 0.52118 0.38365 0.00426 0.0
O510 O 0.4964 0.38567 0.96152 0.0
C511 C 0.47461 0.41835 0.97679 0.0
N512 N 0.46593 0.4036 0.99198 0.0
C513 C 0.43925 0.42041 0.00594 0.0
C514 C 0.44785 0.43576 0.99004 0.0
C515 C 0.46562 0.43472 0.97552 0.0
C516 C 0.44884 0.40444 0.00603 0.0
H517 H 0.4883 0.41765 0.96583 0.0
C518 C 0.51331 0.38674 0.96665 0.0
O519 O 0.53379 0.37494 0.09467 0.0
O520 O 0.51897 0.40038 0.09178 0.0
N521 N 0.45218 0.37453 0.02484 0.0
C522 C 0.44631 0.35886 0.04264 0.0
C523 C 0.42895 0.35779 0.06007 0.0
C524 C 0.41783 0.3728 0.05882 0.0
C525 C 0.42422 0.38881 0.04073 0.0
C526 C 0.44154 0.38903 0.02334 0.0
H527 H 0.4548 0.34728 0.04351 0.0
O528 O 0.49488 0.37411 0.11997 0.0
O529 O 0.48571 0.38513 0.05452 0.0
O530 O 0.50526 0.35232 0.04488 0.0
O531 O 0.48176 0.35443 0.99813 0.0
C532 C 0.41417 0.40463 0.03999 0.0
C533 C 0.42169 0.42043 0.0227 0.0
H534 H 0.44101 0.44844 0.98934 0.0
H535 H 0.47239 0.44653 0.9635 0.0
H536 H 0.42412 0.34542 0.0743 0.0
H537 H 0.40441 0.37194 0.07184 0.0
H538 H 0.40074 0.40485 0.05332 0.0
H539 H 0.41395 0.43258 0.02302 0.0
Mn540 Mn 0.12437 0.5222 0.61504 0.0
Mn541 Mn 0.12024 0.48886 0.53902 0.0
C542 C 0.12033 0.49331 0.63959 0.0
C543 C 0.11159 0.54439 0.65953 0.0
C544 C 0.15549 0.50618 0.56246 0.0
O545 O 0.11897 0.53532 0.55616 0.0
O546 O 0.11477 0.51198 0.50919 0.0
C547 C 0.08139 0.49084 0.52357 0.0
N548 N 0.09598 0.48134 0.53632 0.0
C549 C 0.07828 0.45518 0.54976 0.0
C550 C 0.06308 0.46465 0.53651 0.0
C551 C 0.06464 0.48257 0.52345 0.0
C552 C 0.09463 0.4641 0.54901 0.0
H553 H 0.08252 0.50463 0.51366 0.0
C554 C 0.11502 0.52874 0.51742 0.0
O555 O 0.12833 0.54492 0.64866 0.0
O556 O 0.10227 0.53134 0.64328 0.0
N557 N 0.12499 0.46579 0.5638 0.0
C558 C 0.14076 0.45888 0.57824 0.0
C559 C 0.1414 0.44123 0.59382 0.0
C560 C 0.12586 0.43085 0.59411 0.0
C561 C 0.10982 0.43821 0.57872 0.0
C562 C 0.11001 0.45584 0.56337 0.0
H563 H 0.15274 0.4668 0.57813 0.0
O564 O 0.12727 0.50508 0.66652 0.0
O565 O 0.11592 0.49886 0.59934 0.0
O566 O 0.14948 0.51684 0.59248 0.0
O567 O 0.14568 0.49539 0.54016 0.0
C568 C 0.09359 0.42883 0.57871 0.0
C569 C 0.07782 0.43733 0.56443 0.0
H570 H 0.05012 0.45835 0.53659 0.0
H571 H 0.05295 0.48999 0.5134 0.0
H572 H 0.15382 0.43565 0.6057 0.0
H573 H 0.12638 0.41728 0.60649 0.0
H574 H 0.09305 0.41516 0.59026 0.0
H575 H 0.06538 0.43008 0.56535 0.0
H576 H 0.98282 0.68377 0.99314 0.0
H577 H 0.98277 0.71601 0.98033 0.0
H578 H 0.99831 0.72468 0.11959 0.0
H579 H 0.99892 0.69245 0.13246 0.0
H580 H 0.9649 0.74604 0.066 0.0
H581 H 0.02912 0.73161 0.07531 0.0
H582 H 0.0549 0.71339 0.05235 0.0
H583 H 0.0451 0.72608 0.91224 0.0
H584 H 0.01909 0.74416 0.93442 0.0
H585 H 0.98352 0.83756 0.06443 0.0
H586 H 0.98487 0.80577 0.08123 0.0
H587 H 0.00063 0.79514 0.94274 0.0
H588 H 3e-05 0.82699 0.92628 0.0
H589 H 0.01798 0.77408 0.99555 0.0
H590 H 0.95702 0.79013 0.98039 0.0
H591 H 0.92984 0.80752 0.99537 0.0
H592 H 0.93055 0.7908 0.13493 0.0
H593 H 0.95795 0.77356 0.12099 0.0
C594 C 0.98611 0.69255 0.02111 0.0
C595 C 0.99096 0.68563 0.06374 0.0
C596 C 0.98609 0.7109 0.01371 0.0
C597 C 0.99059 0.72256 0.04903 0.0
C598 C 0.99485 0.71577 0.092 0.0
C599 C 0.99525 0.69742 0.0992 0.0
C600 C 0.99138 0.74185 0.04055 0.0
C601 C 0.97655 0.75231 0.05126 0.0
C602 C 0.00635 0.74971 0.01969 0.0
C603 C 0.02207 0.73903 0.00646 0.0
C604 C 0.03236 0.73035 0.03959 0.0
C605 C 0.04704 0.72009 0.02673 0.0
C606 C 0.0516 0.71852 0.98085 0.0
C607 C 0.04153 0.72727 0.94775 0.0
C608 C 0.02683 0.73753 0.96045 0.0
C609 C 0.98743 0.82845 0.03769 0.0
C610 C 0.99156 0.83474 0.99397 0.0
C611 C 0.98811 0.81028 0.04725 0.0
C612 C 0.99245 0.79802 0.01296 0.0
C613 C 0.99719 0.80434 0.96971 0.0
C614 C 0.99683 0.82255 0.96034 0.0
C615 C 0.99155 0.77861 0.02181 0.0
C616 C 0.0063 0.76801 0.01072 0.0
C617 C 0.97629 0.77057 0.04137 0.0
C618 C 0.95965 0.78069 0.04975 0.0
C619 C 0.95145 0.79025 0.01435 0.0
C620 C 0.936 0.80008 0.02265 0.0
C621 C 0.9285 0.80029 0.06609 0.0
C622 C 0.9364 0.79064 0.1013 0.0
C623 C 0.95189 0.78083 0.09323 0.0
H624 H 0.91654 0.80791 0.07245 0.0
H625 H 0.06296 0.71057 0.97096 0.0
H626 H 0.67876 0.97508 0.53888 0.0
H627 H 0.71114 0.97635 0.5451 0.0
H628 H 0.71343 0.01004 0.42648 0.0
H629 H 0.6811 0.00926 0.42071 0.0
H630 H 0.73681 0.96568 0.49199 0.0
H631 H 0.7476 0.03886 0.43455 0.0
H632 H 0.73186 0.06764 0.43747 0.0
H633 H 0.70301 0.05036 0.55547 0.0
H634 H 0.71875 0.02159 0.55364 0.0
H635 H 0.82743 0.97655 0.44372 0.0
H636 H 0.7952 0.97876 0.43554 0.0
H637 H 0.79265 0.01196 0.55499 0.0
H638 H 0.82489 0.01023 0.56288 0.0
H639 H 0.76943 0.0231 0.49352 0.0
H640 H 0.78524 0.9677 0.56228 0.0
H641 H 0.8016 0.93934 0.56764 0.0
H642 H 0.77702 0.92124 0.44429 0.0
H643 H 0.76077 0.94966 0.43769 0.0
C644 C 0.68614 0.98282 0.51419 0.0
C645 C 0.6773 0.99218 0.47951 0.0
C646 C 0.70466 0.98348 0.51773 0.0
C647 C 0.71469 0.99346 0.4866 0.0
C648 C 0.70594 0.00255 0.45147 0.0
C649 C 0.68743 0.00204 0.44815 0.0
C650 C 0.73434 0.99426 0.49063 0.0
C651 C 0.74392 0.97824 0.49232 0.0
C652 C 0.74363 0.01064 0.49191 0.0
C653 C 0.73423 0.028 0.49364 0.0
C654 C 0.73795 0.04123 0.46122 0.0
C655 C 0.72902 0.05754 0.46267 0.0
C656 C 0.7164 0.0608 0.49654 0.0
C657 C 0.71273 0.04779 0.52915 0.0
C658 C 0.72164 0.03147 0.52788 0.0
C659 C 0.82007 0.98455 0.4679 0.0
C660 C 0.82875 0.99304 0.50427 0.0
C661 C 0.80163 0.98575 0.46323 0.0
C662 C 0.79152 0.99524 0.49519 0.0
C663 C 0.80021 0.00452 0.53005 0.0
C664 C 0.81866 0.00346 0.53454 0.0
C665 C 0.77184 0.99456 0.49406 0.0
C666 C 0.76227 0.01057 0.493 0.0
C667 C 0.76254 0.97818 0.49476 0.0
C668 C 0.77191 0.96087 0.49928 0.0
C669 C 0.78339 0.95771 0.53616 0.0
C670 C 0.79265 0.94163 0.53942 0.0
C671 C 0.79038 0.92851 0.50628 0.0
C672 C 0.77878 0.93143 0.4699 0.0
C673 C 0.76954 0.94752 0.46639 0.0
H674 H 0.79758 0.91608 0.50882 0.0
H675 H 0.70949 0.07343 0.49758 0.0
H676 H 0.47804 0.81672 0.0731 0.0
H677 H 0.47808 0.78449 0.06259 0.0
H678 H 0.52332 0.78888 0.97307 0.0
H679 H 0.52321 0.82111 0.98259 0.0
H680 H 0.50024 0.76568 0.9401 0.0
H681 H 0.52837 0.77628 0.08374 0.0
H682 H 0.53092 0.78842 0.16134 0.0
H683 H 0.48493 0.7586 0.20247 0.0
H684 H 0.48197 0.74647 0.12489 0.0
H685 H 0.52981 0.67271 0.02581 0.0
H686 H 0.52783 0.70486 0.03584 0.0
H687 H 0.479 0.70571 0.95892 0.0
H688 H 0.48099 0.67356 0.94795 0.0
H689 H 0.50439 0.72629 0.07508 0.0
H690 H 0.47763 0.74378 0.89602 0.0
H691 H 0.4785 0.73179 0.81795 0.0
H692 H 0.52799 0.70563 0.84695 0.0
H693 H 0.52754 0.71766 0.92493 0.0
C694 C 0.48796 0.81087 0.05099 0.0
C695 C 0.50068 0.82154 0.02889 0.0
C696 C 0.48799 0.79242 0.04514 0.0
C697 C 0.50085 0.78427 0.01751 0.0
C698 C 0.51328 0.7949 0.99455 0.0
C699 C 0.51321 0.81334 0.00015 0.0
C700 C 0.50162 0.76463 0.0132 0.0
C701 C 0.50108 0.75707 0.96962 0.0
C702 C 0.50305 0.75341 0.05168 0.0
C703 C 0.50485 0.76061 0.0984 0.0
C704 C 0.51873 0.77242 0.10925 0.0
C705 C 0.52025 0.77928 0.15324 0.0
C706 C 0.50806 0.77432 0.18679 0.0
C707 C 0.49435 0.76245 0.17644 0.0
C708 C 0.49274 0.75557 0.13247 0.0
C709 C 0.51858 0.67967 0.01117 0.0
C710 C 0.50562 0.67052 0.98579 0.0
C711 C 0.51746 0.69807 0.01706 0.0
C712 C 0.50339 0.7077 0.9977 0.0
C713 C 0.49014 0.69857 0.97352 0.0
C714 C 0.49128 0.68017 0.96741 0.0
C715 C 0.50284 0.72734 0.00201 0.0
C716 C 0.50341 0.7349 0.04559 0.0
C717 C 0.5019 0.73858 0.96347 0.0
C718 C 0.50243 0.73146 0.91645 0.0
C719 C 0.48872 0.73552 0.88566 0.0
C720 C 0.48914 0.72871 0.84144 0.0
C721 C 0.50326 0.71791 0.82755 0.0
C722 C 0.51703 0.71394 0.8578 0.0
C723 C 0.51668 0.72074 0.90203 0.0
H724 H 0.50355 0.71264 0.79332 0.0
H725 H 0.50927 0.77965 0.22083 0.0
H726 H 0.66691 0.51569 0.42772 0.0
H727 H 0.69886 0.51212 0.41294 0.0
H728 H 0.70801 0.50268 0.55556 0.0
H729 H 0.67608 0.50568 0.57049 0.0
H730 H 0.73158 0.53048 0.49836 0.0
H731 H 0.70959 0.46905 0.51111 0.0
H732 H 0.68895 0.44499 0.48949 0.0
H733 H 0.70486 0.45019 0.34991 0.0
H734 H 0.7254 0.47449 0.37068 0.0
H735 H 0.81964 0.50064 0.51082 0.0
H736 H 0.78765 0.50426 0.52148 0.0
H737 H 0.77859 0.48731 0.3832 0.0
H738 H 0.81057 0.48286 0.37306 0.0
H739 H 0.7542 0.47386 0.4334 0.0
H740 H 0.7777 0.5321 0.41607 0.0
H741 H 0.79779 0.55737 0.43078 0.0
H742 H 0.77858 0.56079 0.56797 0.0
H743 H 0.75859 0.53532 0.55435 0.0
C744 C 0.67576 0.51293 0.45591 0.0
C745 C 0.66906 0.51087 0.50021 0.0
C746 C 0.69393 0.51089 0.44741 0.0
C747 C 0.70564 0.50713 0.48322 0.0
C748 C 0.69908 0.50558 0.52761 0.0
C749 C 0.68089 0.5072 0.53599 0.0
C750 C 0.72471 0.50436 0.47426 0.0
C751 C 0.73664 0.51807 0.48462 0.0
C752 C 0.73103 0.48842 0.45471 0.0
C753 C 0.71884 0.47372 0.44235 0.0
C754 C 0.70854 0.46518 0.47575 0.0
C755 C 0.69689 0.45148 0.46367 0.0
C756 C 0.69554 0.4461 0.41833 0.0
C757 C 0.70589 0.45439 0.385 0.0
C758 C 0.71754 0.46812 0.39691 0.0
C759 C 0.81081 0.4976 0.48277 0.0
C760 C 0.81759 0.49156 0.44104 0.0
C761 C 0.79254 0.49977 0.4888 0.0
C762 C 0.78072 0.49647 0.4528 0.0
C763 C 0.78744 0.49001 0.41142 0.0
C764 C 0.80571 0.48747 0.40566 0.0
C765 C 0.7614 0.4999 0.45833 0.0
C766 C 0.74932 0.48634 0.44708 0.0
C767 C 0.75491 0.5162 0.47607 0.0
C768 C 0.76675 0.53169 0.48429 0.0
C769 C 0.77783 0.53816 0.44947 0.0
C770 C 0.78921 0.55253 0.45761 0.0
C771 C 0.78949 0.56066 0.50031 0.0
C772 C 0.77836 0.55447 0.53493 0.0
C773 C 0.767 0.54007 0.52701 0.0
H774 H 0.7983 0.57178 0.50654 0.0
H775 H 0.68652 0.43549 0.40903 0.0
H776 H 0.99472 0.30577 0.86721 0.0
H777 H 0.99678 0.27353 0.87567 0.0
H778 H 0.01278 0.28013 0.01561 0.0
H779 H 0.01162 0.31246 0.00654 0.0
H780 H 0.03124 0.25504 0.98141 0.0
H781 H 0.96896 0.26819 0.98202 0.0
H782 H 0.94081 0.28084 0.95362 0.0
H783 H 0.94478 0.24891 0.83299 0.0
H784 H 0.97309 0.23624 0.86043 0.0
H785 H 0.0021 0.17041 0.06379 0.0
H786 H 0.00024 0.20204 0.045 0.0
H787 H 0.01292 0.19031 0.90528 0.0
H788 H 0.01531 0.15855 0.92395 0.0
H789 H 0.98033 0.21697 0.93571 0.0
H790 H 0.04408 0.20395 0.94149 0.0
H791 H 0.07003 0.19027 0.97899 0.0
H792 H 0.06069 0.22195 0.09809 0.0
H793 H 0.03442 0.23553 0.06161 0.0
C794 C 0.99868 0.30033 0.89978 0.0
C795 C 0.00287 0.3116 0.93635 0.0
C796 C -0.00022 0.2819 0.90464 0.0
C797 C 0.00456 0.27435 0.94657 0.0
C798 C 0.00903 0.28562 0.98294 0.0
C799 C 0.00832 0.30408 0.97778 0.0
C800 C 0.00482 0.25474 0.95263 0.0
C801 C 0.02003 0.2468 0.97158 0.0
C802 C 0.99028 0.24385 0.9396 0.0
C803 C 0.97323 0.25141 0.92306 0.0
C804 C 0.96389 0.26396 0.94929 0.0
C805 C 0.9479 0.27112 0.93339 0.0
C806 C 0.94104 0.26572 0.89147 0.0
C807 C 0.95013 0.25311 0.86542 0.0
C808 C 0.96614 0.24592 0.88114 0.0
C809 C 0.00428 0.1745 0.02893 0.0
C810 C 0.00888 0.16203 0.99531 0.0
C811 C 0.00324 0.19255 0.01834 0.0
C812 C 0.00648 0.19836 0.97389 0.0
C813 C 0.01038 0.18595 0.93978 0.0
C814 C 0.0118 0.16789 0.95052 0.0
C815 C 0.00667 0.21756 0.96401 0.0
C816 C 0.99154 0.22534 0.94478 0.0
C817 C 0.02109 0.22834 0.9776 0.0
C818 C 0.03718 0.22061 0.99901 0.0
C819 C 0.04747 0.20788 0.97582 0.0
C820 C 0.06224 0.20016 0.99687 0.0
C821 C 0.06698 0.2052 0.04094 0.0
C822 C 0.05699 0.21804 0.06398 0.0
C823 C 0.04216 0.22575 0.04313 0.0
H824 H 0.07841 0.1992 0.0572 0.0
H825 H 0.92865 0.27128 0.87921 0.0
H826 H 0.31827 0.97978 0.57201 0.0
H827 H 0.28597 0.97827 0.56456 0.0
H828 H 0.28652 0.02584 0.48257 0.0
H829 H 0.31883 0.02736 0.48916 0.0
H830 H 0.26019 0.00033 0.59042 0.0
H831 H 0.25455 0.02317 0.40231 0.0
H832 H 0.27201 0.02147 0.33142 0.0
H833 H 0.29807 0.9743 0.37977 0.0
H834 H 0.28059 0.97555 0.45063 0.0
H835 H 0.17323 0.03028 0.53688 0.0
H836 H 0.20513 0.0265 0.5488 0.0
H837 H 0.20478 0.98015 0.4623 0.0
H838 H 0.17297 0.98397 0.44947 0.0
H839 H 0.23099 0.00133 0.43921 0.0
H840 H 0.20962 0.97622 0.5774 0.0
H841 H 0.19211 0.97488 0.64819 0.0
H842 H 0.21985 0.02059 0.69955 0.0
H843 H 0.23736 0.02237 0.62876 0.0
C844 C 0.31156 0.98991 0.55226 0.0
C845 C 0.3212 0.00364 0.53095 0.0
C846 C 0.29307 0.98905 0.5482 0.0
C847 C 0.28387 0.00183 0.52268 0.0
C848 C 0.2934 0.01566 0.50181 0.0
C849 C 0.31188 0.01652 0.5057 0.0
C850 C 0.26429 0.00078 0.51793 0.0
C851 C 0.25379 0.00052 0.55738 0.0
C852 C 0.25597 0.00059 0.4748 0.0
C853 C 0.26636 -0.00043 0.43196 0.0
C854 C 0.26394 0.01239 0.39772 0.0
C855 C 0.27386 0.01151 0.35755 0.0
C856 C 0.28618 0.99782 0.35116 0.0
C857 C 0.28857 0.98493 0.38483 0.0
C858 C 0.27867 0.98573 0.42502 0.0
C859 C 0.17987 0.01916 0.52076 0.0
C860 C 0.17051 0.00747 0.49207 0.0
C861 C 0.19812 0.01699 0.52773 0.0
C862 C 0.20732 0.00299 0.50662 0.0
C863 C 0.19795 0.99108 0.4788 0.0
C864 C 0.17974 0.99328 0.47161 0.0
C865 C 0.22685 0.00128 0.51172 0.0
C866 C 0.23736 0.00106 0.47228 0.0
C867 C 0.23515 0.00057 0.55484 0.0
C868 C 0.22471 -0.00049 0.59759 0.0
C869 C 0.2119 0.98607 0.60364 0.0
C870 C 0.20199 0.98522 0.64379 0.0
C871 C 0.20484 0.99766 0.67831 0.0
C872 C 0.21765 0.01097 0.67277 0.0
C873 C 0.22758 0.01189 0.63266 0.0
H874 H 0.19715 0.99698 0.70937 0.0
H875 H 0.29386 0.99718 0.32007 0.0
H876 H 0.48072 0.17508 0.03686 0.0
H877 H 0.48034 0.2075 0.04277 0.0
H878 H 0.51171 0.21137 0.92027 0.0
H879 H 0.51271 0.179 0.91511 0.0
H880 H 0.52354 0.23405 0.97789 0.0
H881 H 0.4658 0.21919 0.92214 0.0
H882 H 0.43696 0.20357 0.92145 0.0
H883 H 0.42355 0.22682 0.05031 0.0
H884 H 0.45244 0.24237 0.05212 0.0
H885 H 0.47474 0.32573 0.95688 0.0
H886 H 0.47544 0.29353 0.94586 0.0
H887 H 0.51364 0.28857 0.05456 0.0
H888 H 0.5134 0.32074 0.06504 0.0
H889 H 0.46672 0.26672 0.9976 0.0
H890 H 0.54175 0.25467 0.03427 0.0
H891 H 0.57037 0.27037 0.02545 0.0
H892 H 0.54854 0.30147 0.91648 0.0
H893 H 0.51988 0.2858 0.92421 0.0
C894 C 0.48755 0.18284 0.01121 0.0
C895 C 0.49672 0.17445 0.97548 0.0
C896 C 0.48726 0.20138 0.01451 0.0
C897 C 0.49577 0.21191 0.98157 0.0
C898 C 0.50506 0.20355 0.94612 0.0
C899 C 0.5056 0.18502 0.94318 0.0
C900 C 0.49508 0.23163 0.98409 0.0
C901 C 0.51111 0.24118 0.98218 0.0
C902 C 0.47883 0.241 0.98864 0.0
C903 C 0.46136 0.23183 0.98744 0.0
C904 C 0.45675 0.22089 0.95047 0.0
C905 C 0.44039 0.21205 0.94986 0.0
C906 C 0.42844 0.21417 0.98586 0.0
C907 C 0.43282 0.22517 0.02248 0.0
C908 C 0.44918 0.23401 0.02329 0.0
C909 C 0.48335 0.31781 0.97835 0.0
C910 C 0.49412 0.32587 0.01163 0.0
C911 C 0.48369 0.29939 0.97209 0.0
C912 C 0.49474 0.28865 0.999 0.0
C913 C 0.50527 0.29661 0.03275 0.0
C914 C 0.50507 0.31503 0.03877 0.0
C915 C 0.4952 0.2691 0.99206 0.0
C916 C 0.47914 0.25958 0.99322 0.0
C917 C 0.51136 0.2598 0.98538 0.0
C918 C 0.52862 0.26917 0.98016 0.0
C919 C 0.54308 0.26481 0.00832 0.0
C920 C 0.5593 0.27371 0.00353 0.0
C921 C 0.56125 0.28695 0.97053 0.0
C922 C 0.547 0.29127 0.94214 0.0
C923 C 0.53075 0.28239 0.94675 0.0
H924 H 0.57382 0.29383 0.9669 0.0
H925 H 0.41579 0.20732 0.98534 0.0
H926 H 0.32153 0.52105 0.44329 0.0
H927 H 0.2898 0.52535 0.45755 0.0
H928 H 0.28815 0.47603 0.53238 0.0
H929 H 0.31986 0.4717 0.51896 0.0
H930 H 0.26075 0.5066 0.43586 0.0
H931 H 0.26033 0.4803 0.62166 0.0
H932 H 0.28063 0.47877 0.68743 0.0
H933 H 0.30931 0.52415 0.63752 0.0
H934 H 0.28904 0.52612 0.57185 0.0
H935 H 0.17404 0.4839 0.50614 0.0
H936 H 0.20583 0.48425 0.48991 0.0
H937 H 0.21258 0.52909 0.57978 0.0
H938 H 0.18079 0.52874 0.59683 0.0
H939 H 0.23776 0.50501 0.594 0.0
H940 H 0.2135 0.53498 0.46589 0.0
H941 H 0.19326 0.53943 0.40093 0.0
H942 H 0.21423 0.49268 0.33639 0.0
H943 H 0.23441 0.48778 0.40132 0.0
C944 C 0.31444 0.51108 0.46273 0.0
C945 C 0.32331 0.4961 0.48031 0.0
C946 C 0.29629 0.51356 0.47071 0.0
C947 C 0.2867 0.50114 0.49651 0.0
C948 C 0.29539 0.48594 0.51307 0.0
C949 C 0.31352 0.48348 0.50525 0.0
C950 C 0.26763 0.5041 0.50666 0.0
C951 C 0.25571 0.50629 0.4704 0.0
C952 C 0.26115 0.50416 0.55183 0.0
C953 C 0.27325 0.50325 0.59162 0.0
C954 C 0.27092 0.49 0.62484 0.0
C955 C 0.28243 0.48905 0.66209 0.0
C956 C 0.29628 0.50132 0.66658 0.0
C957 C 0.29862 0.51461 0.63392 0.0
C958 C 0.28713 0.51564 0.59666 0.0
C959 C 0.18223 0.49389 0.52244 0.0
C960 C 0.17481 0.50634 0.55272 0.0
C961 C 0.20041 0.4941 0.51294 0.0
C962 C 0.21151 0.50684 0.53319 0.0
C963 C 0.20422 0.51917 0.56372 0.0
C964 C 0.18603 0.51895 0.57337 0.0
C965 C 0.23081 0.507 0.52314 0.0
C966 C 0.24279 0.50541 0.55944 0.0
C967 C 0.23736 0.50794 0.47809 0.0
C968 C 0.22538 0.51094 0.43868 0.0
C969 C 0.21372 0.52557 0.438 0.0
C970 C 0.20226 0.52819 0.40116 0.0
C971 C 0.20244 0.51633 0.3646 0.0
C972 C 0.21411 0.50185 0.36475 0.0
C973 C 0.22557 0.49916 0.40155 0.0
H974 H 0.19355 0.51837 0.33613 0.0
H975 H 0.30519 0.50054 0.69541 0.0
H976 H 0.00831 0.6164 0.93392 0.0
H977 H 0.02802 0.60582 0.87435 0.0
H978 H 0.07368 0.62018 0.9549 0.0
H979 H 0.05396 0.6308 0.01572 0.0
H980 H 0.07417 0.6278 0.85053 0.0
H981 H 0.06709 0.58158 0.9628 0.0
H982 H 0.04942 0.56333 0.01582 0.0
H983 H 0.01837 0.54334 0.90447 0.0
H984 H 0.03568 0.56173 0.85085 0.0
H985 H 0.12864 0.56905 0.71266 0.0
H986 H 0.11558 0.58687 0.77401 0.0
H987 H 0.06367 0.56597 0.74139 0.0
H988 H 0.07661 0.548 0.68088 0.0
H989 H 0.07045 0.5624 0.82925 0.0
H990 H 0.07549 0.6092 0.71779 0.0
H991 H 0.09119 0.62856 0.66331 0.0
H992 H 0.12479 0.64797 0.77041 0.0
H993 H 0.10943 0.62852 0.82545 0.0
C994 C 0.02252 0.61761 0.93905 0.0
C995 C 0.02952 0.62431 0.98 0.0
C996 C 0.03376 0.61157 0.90478 0.0
C997 C 0.05224 0.61216 0.91045 0.0
C998 C 0.05941 0.61969 0.95002 0.0
C999 C 0.04812 0.62565 0.98474 0.0
C1000 C 0.06367 0.60321 0.87663 0.0
C1001 C 0.07375 0.61347 0.84629 0.0
C1002 C 0.06274 0.58458 0.87089 0.0
C1003 C 0.0526 0.57314 0.90286 0.0
C1004 C 0.05642 0.57339 0.94966 0.0
C1005 C 0.04647 0.56301 0.97981 0.0
C1006 C 0.03275 0.55221 0.96354 0.0
C1007 C 0.029 0.55172 0.91703 0.0
C1008 C 0.03889 0.56211 0.88673 0.0
C1009 C 0.1144 0.5685 0.71814 0.0
C1010 C 0.10366 0.55705 0.69215 0.0
C1011 C 0.10696 0.5787 0.75317 0.0
C1012 C 0.08865 0.5777 0.76237 0.0
C1013 C 0.07785 0.56684 0.73512 0.0
C1014 C 0.08526 0.55662 0.70042 0.0
C1015 C 0.08073 0.58698 0.80202 0.0
C1016 C 0.07125 0.57671 0.83367 0.0
C1017 C 0.08219 0.60559 0.80867 0.0
C1018 C 0.09146 0.61724 0.77562 0.0
C1019 C 0.08634 0.61747 0.72964 0.0
C1020 C 0.09515 0.62848 0.69868 0.0
C1021 C 0.10902 0.63944 0.71336 0.0
C1022 C 0.11407 0.63944 0.75907 0.0
C1023 C 0.10531 0.62843 0.79017 0.0
H1024 H 0.11582 0.64797 0.68934 0.0
H1025 H 0.02505 0.5442 0.98694 0.0
H1026 H 0.98273 0.06417 0.14774 0.0
H1027 H 0.96488 0.0505 0.20792 0.0
H1028 H 0.94286 0.10176 0.24204 0.0
H1029 H 0.96044 0.11554 0.1812 0.0
H1030 H 0.95673 0.08054 0.31827 0.0
H1031 H 0.91653 0.07662 0.19218 0.0
H1032 H 0.90779 0.06946 0.11351 0.0
H1033 H 0.91999 0.01438 0.13657 0.0
H1034 H 0.92906 0.02126 0.21522 0.0
H1035 H 0.89545 0.0406 0.47482 0.0
H1036 H 0.90875 0.05914 0.41536 0.0
H1037 H 0.92463 0.01192 0.34239 0.0
H1038 H 0.91096 0.99342 0.40054 0.0
H1039 H 0.91123 0.03448 0.28558 0.0
H1040 H 0.95422 0.03791 0.40699 0.0
H1041 H 0.9646 0.04418 0.48488 0.0
H1042 H 0.94898 0.09885 0.47054 0.0
H1043 H 0.9383 0.09284 0.39271 0.0
C1044 C 0.97401 0.07252 0.16786 0.0
C1045 C 0.97292 0.0909 0.15974 0.0
C1046 C 0.96382 0.0647 0.20215 0.0
C1047 C 0.95257 0.07515 0.22924 0.0
C1048 C 0.95149 0.09351 0.22139 0.0
C1049 C 0.96145 0.10132 0.18654 0.0
C1050 C 0.94215 0.06676 0.26608 0.0
C1051 C 0.94653 0.0707 0.31131 0.0
C1052 C 0.92916 0.0537 0.2567 0.0
C1053 C 0.92362 0.04949 0.20948 0.0
C1054 C 0.91749 0.06301 0.18036 0.0
C1055 C 0.91245 0.05899 0.13579 0.0
C1056 C 0.91337 0.04148 0.12002 0.0
C1057 C 0.91929 0.02794 0.14882 0.0
C1058 C 0.92437 0.03189 0.19342 0.0
C1059 C 0.90182 0.03419 0.44614 0.0
C1060 C 0.9021 0.01553 0.4424 0.0
C1061 C 0.90947 0.0448 0.41224 0.0
C1062 C 0.91781 0.03693 0.3745 0.0
C1063 C 0.91818 0.01832 0.371 0.0
C1064 C 0.91038 0.00775 0.40442 0.0
C1065 C 0.92607 0.04788 0.33815 0.0
C1066 C 0.92127 0.04445 0.29283 0.0
C1067 C 0.93885 0.06124 0.34751 0.0
C1068 C 0.94527 0.06488 0.39425 0.0
C1069 C 0.95287 0.05123 0.42059 0.0
C1070 C 0.95883 0.05475 0.46469 0.0
C1071 C 0.9574 0.07189 0.4827 0.0
C1072 C 0.95005 0.08557 0.45658 0.0
C1073 C 0.94405 0.08212 0.41247 0.0
H1074 H 0.96202 0.07459 0.51685 0.0
H1075 H 0.90946 0.0384 0.0855 0.0
H1076 H 0.44671 0.87905 0.97417 0.0
H1077 H 0.42879 0.89147 0.91195 0.0
H1078 H 0.47589 0.91492 0.85367 0.0
H1079 H 0.49387 0.90246 0.91469 0.0
H1080 H 0.44584 0.93869 0.86857 0.0
H1081 H 0.46077 0.88114 0.80349 0.0
H1082 H 0.46136 0.84834 0.80305 0.0
H1083 H 0.40432 0.847 0.80927 0.0
H1084 H 0.40341 0.87983 0.81042 0.0
H1085 H 0.42353 0.97081 0.65359 0.0
H1086 H 0.43721 0.95466 0.71639 0.0
H1087 H 0.38834 0.92577 0.738 0.0
H1088 H 0.37456 0.94183 0.67465 0.0
H1089 H 0.41596 0.90407 0.74699 0.0
H1090 H 0.3994 0.95977 0.8093 0.0
H1091 H 0.39657 0.99218 0.82034 0.0
H1092 H 0.45339 0.99711 0.82714 0.0
H1093 H 0.45658 0.96474 0.81583 0.0
C1094 C 0.45325 0.88676 0.94792 0.0
C1095 C 0.47172 0.88978 0.94947 0.0
C1096 C 0.44302 0.89377 0.91241 0.0
C1097 C 0.45108 0.90407 0.87837 0.0
C1098 C 0.46947 0.90699 0.87969 0.0
C1099 C 0.47971 0.8998 0.9146 0.0
C1100 C 0.44042 0.91257 0.84221 0.0
C1101 C 0.43944 0.93117 0.84165 0.0
C1102 C 0.43148 0.90264 0.80845 0.0
C1103 C 0.43204 0.88293 0.80761 0.0
C1104 C 0.44837 0.87385 0.80523 0.0
C1105 C 0.44876 0.85525 0.80475 0.0
C1106 C 0.43289 0.84559 0.80629 0.0
C1107 C 0.4166 0.85451 0.80817 0.0
C1108 C 0.41614 0.8731 0.80872 0.0
C1109 C 0.41573 0.96088 0.67133 0.0
C1110 C 0.39794 0.95764 0.65926 0.0
C1111 C 0.42353 0.95176 0.70751 0.0
C1112 C 0.41368 0.93927 0.73252 0.0
C1113 C 0.39614 0.93544 0.71935 0.0
C1114 C 0.38831 0.94459 0.68308 0.0
C1115 C 0.42179 0.93034 0.77245 0.0
C1116 C 0.42225 0.91166 0.77391 0.0
C1117 C 0.43 0.94021 0.80769 0.0
C1118 C 0.42823 0.95983 0.81146 0.0
C1119 C 0.4113 0.96779 0.81262 0.0
C1120 C 0.40963 0.98613 0.81928 0.0
C1121 C 0.42479 0.99666 0.82489 0.0
C1122 C 0.44166 0.98891 0.82319 0.0
C1123 C 0.44341 0.97057 0.81666 0.0
H1124 H 0.42346 0.01085 0.83014 0.0
H1125 H 0.43322 0.83119 0.80589 0.0
H1126 H 0.5363 0.42686 0.1249 0.0
H1127 H 0.55469 0.4404 0.18374 0.0
H1128 H 0.57667 0.38899 0.21688 0.0
H1129 H 0.55819 0.37527 0.15775 0.0
H1130 H 0.5642 0.40695 0.29224 0.0
H1131 H 0.60301 0.41894 0.16852 0.0
H1132 H 0.61106 0.42886 0.09133 0.0
H1133 H 0.59371 0.48184 0.12308 0.0
H1134 H 0.58526 0.47219 0.20024 0.0
H1135 H 0.61468 0.45491 0.46053 0.0
H1136 H 0.60715 0.43487 0.39761 0.0
H1137 H 0.58291 0.47865 0.32567 0.0
H1138 H 0.59073 0.49868 0.38732 0.0
H1139 H 0.60252 0.45992 0.26938 0.0
H1140 H 0.55847 0.44651 0.38602 0.0
H1141 H 0.54912 0.43686 0.46256 0.0
H1142 H 0.57566 0.38683 0.44334 0.0
H1143 H 0.58534 0.39628 0.36686 0.0
C1144 C 0.54526 0.41845 0.14413 0.0
C1145 C 0.54579 0.4 0.13674 0.0
C1146 C 0.55582 0.42622 0.17769 0.0
C1147 C 0.56711 0.41571 0.20454 0.0
C1148 C 0.56806 0.39733 0.19644 0.0
C1149 C 0.55758 0.38954 0.16251 0.0
C1150 C 0.57687 0.42395 0.24293 0.0
C1151 C 0.57294 0.41827 0.28728 0.0
C1152 C 0.58807 0.43884 0.23638 0.0
C1153 C 0.59342 0.4448 0.19018 0.0
C1154 C 0.60081 0.43269 0.15899 0.0
C1155 C 0.60545 0.43827 0.11523 0.0
C1156 C 0.60288 0.45596 0.10229 0.0
C1157 C 0.5957 0.46814 0.13315 0.0
C1158 C 0.591 0.46262 0.17694 0.0
C1159 C 0.60769 0.46022 0.43134 0.0
C1160 C 0.60332 0.4784 0.42899 0.0
C1161 C 0.6034 0.44876 0.39541 0.0
C1162 C 0.59441 0.45524 0.35692 0.0
C1163 C 0.58998 0.47335 0.35478 0.0
C1164 C 0.5944 0.48479 0.39026 0.0
C1165 C 0.58926 0.44338 0.31873 0.0
C1166 C 0.59411 0.44836 0.27438 0.0
C1167 C 0.57881 0.42792 0.32529 0.0
C1168 C 0.57281 0.42218 0.37099 0.0
C1169 C 0.5624 0.43349 0.39825 0.0
C1170 C 0.55703 0.42806 0.44159 0.0
C1171 C 0.56185 0.41127 0.45786 0.0
C1172 C 0.57198 0.39985 0.43073 0.0
C1173 C 0.5774 0.40523 0.38739 0.0
H1174 H 0.55772 0.40709 0.49144 0.0
H1175 H 0.60647 0.46025 0.06838 0.0
H1176 H 0.07042 0.98258 0.34625 0.0
H1177 H 0.05625 0.96553 0.28543 0.0
H1178 H 0.1064 0.94053 0.25407 0.0
H1179 H 0.12068 0.9574 0.31548 0.0
H1180 H 0.08738 0.95507 0.17683 0.0
H1181 H 0.07822 0.91583 0.30276 0.0
H1182 H 0.06932 0.90783 0.38079 0.0
H1183 H 0.0158 0.92452 0.35294 0.0
H1184 H 0.02444 0.93288 0.27492 0.0
H1185 H 0.0427 0.89712 0.01844 0.0
H1186 H 0.06217 0.90897 0.07808 0.0
H1187 H 0.01645 0.93057 0.14754 0.0
H1188 H 0.99702 0.9185 0.08919 0.0
H1189 H 0.03682 0.91421 0.20578 0.0
H1190 H 0.04598 0.95667 0.08472 0.0
H1191 H 0.05424 0.96623 0.00733 0.0
H1192 H 0.10678 0.94505 0.02605 0.0
H1193 H 0.09875 0.93516 0.1034 0.0
C1194 C 0.07841 0.97335 0.32669 0.0
C1195 C 0.09664 0.97127 0.33568 0.0
C1196 C 0.0703 0.96362 0.292 0.0
C1197 C 0.08029 0.95178 0.26543 0.0
C1198 C 0.09849 0.94962 0.2743 0.0
C1199 C 0.10658 0.95917 0.30949 0.0
C1200 C 0.07162 0.94196 0.22793 0.0
C1201 C 0.07655 0.94585 0.18302 0.0
C1202 C 0.05731 0.93022 0.23623 0.0
C1203 C 0.05202 0.92511 0.28307 0.0
C1204 C 0.06459 0.91793 0.31338 0.0
C1205 C 0.05958 0.91331 0.35759 0.0
C1206 C 0.04201 0.9157 0.37185 0.0
C1207 C 0.02941 0.92269 0.34186 0.0
C1208 C 0.03435 0.92735 0.29762 0.0
C1209 C 0.03684 0.90449 0.04631 0.0
C1210 C 0.0183 0.90678 0.04915 0.0
C1211 C 0.04798 0.91128 0.08032 0.0
C1212 C 0.04077 0.92069 0.11729 0.0
C1213 C 0.02231 0.92323 0.1196 0.0
C1214 C 0.01121 0.91633 0.08605 0.0
C1215 C 0.05219 0.9277 0.15437 0.0
C1216 C 0.0478 0.92323 0.19937 0.0
C1217 C 0.06686 0.93905 0.14606 0.0
C1218 C 0.0717 0.94498 0.0996 0.0
C1219 C 0.05925 0.95392 0.07218 0.0
C1220 C 0.0639 0.95942 0.02836 0.0
C1221 C 0.08101 0.95619 0.01173 0.0
C1222 C 0.09352 0.9475 0.03894 0.0
C1223 C 0.08893 0.94196 0.08278 0.0
H1224 H 0.08458 0.96047 0.9778 0.0
H1225 H 0.03816 0.91211 0.40609 0.0
H1226 H 0.54283 0.07285 0.87579 0.0
H1227 H 0.56208 0.05921 0.81862 0.0
H1228 H 0.58107 0.11107 0.77889 0.0
H1229 H 0.56194 0.12485 0.83643 0.0
H1230 H 0.56801 0.09069 0.70664 0.0
H1231 H 0.60934 0.08434 0.8284 0.0
H1232 H 0.61931 0.07626 0.90551 0.0
H1233 H 0.60621 0.02156 0.88002 0.0
H1234 H 0.59591 0.02935 0.80296 0.0
H1235 H 0.62108 0.04838 0.5376 0.0
H1236 H 0.61268 0.06727 0.6019 0.0
H1237 H 0.59544 0.02088 0.67627 0.0
H1238 H 0.60429 0.00195 0.61313 0.0
H1239 H 0.6119 0.04238 0.73157 0.0
H1240 H 0.56604 0.04891 0.6173 0.0
H1241 H 0.55448 0.05613 0.54102 0.0
H1242 H 0.57437 0.10947 0.55348 0.0
H1243 H 0.58624 0.10248 0.62965 0.0
C1244 C 0.55135 0.08134 0.85549 0.0
C1245 C 0.55085 0.09992 0.86048 0.0
C1246 C 0.56238 0.07352 0.82294 0.0
C1247 C 0.57301 0.08414 0.79463 0.0
C1248 C 0.57298 0.10266 0.80051 0.0
C1249 C 0.56211 0.11049 0.8335 0.0
C1250 C 0.58288 0.0759 0.75649 0.0
C1251 C 0.57792 0.0804 0.71199 0.0
C1252 C 0.59549 0.06223 0.76367 0.0
C1253 C 0.60174 0.05746 0.80996 0.0
C1254 C 0.60846 0.07061 0.83934 0.0
C1255 C 0.61419 0.06608 0.88303 0.0
C1256 C 0.61337 0.04841 0.89768 0.0
C1257 C 0.60684 0.03524 0.86863 0.0
C1258 C 0.60107 0.0397 0.82491 0.0
C1259 C 0.61558 0.04221 0.56775 0.0
C1260 C 0.61328 0.02366 0.57008 0.0
C1261 C 0.61075 0.05303 0.60445 0.0
C1262 C 0.60321 0.04552 0.64375 0.0
C1263 C 0.60127 0.02699 0.64642 0.0
C1264 C 0.60629 0.01617 0.61011 0.0
C1265 C 0.59668 0.05683 0.68165 0.0
C1266 C 0.60224 0.0529 0.72612 0.0
C1267 C 0.58443 0.07088 0.67452 0.0
C1268 C 0.57721 0.07512 0.62889 0.0
C1269 C 0.56805 0.06214 0.60362 0.0
C1270 C 0.56143 0.0662 0.56044 0.0
C1271 C 0.56374 0.08323 0.54235 0.0
C1272 C 0.57262 0.09627 0.56749 0.0
C1273 C 0.57929 0.09227 0.61067 0.0
H1274 H 0.55861 0.08634 0.50891 0.0
H1275 H 0.61782 0.04493 0.93152 0.0
H1276 H 0.42797 0.52878 0.36712 0.0
H1277 H 0.44308 0.54568 0.30754 0.0
H1278 H 0.39342 0.57043 0.27046 0.0
H1279 H 0.37818 0.55372 0.33055 0.0
H1280 H 0.41286 0.5541 0.1968 0.0
H1281 H 0.4217 0.59556 0.31867 0.0
H1282 H 0.4306 0.60477 0.39582 0.0
H1283 H 0.48413 0.58771 0.36958 0.0
H1284 H 0.47549 0.57815 0.29246 0.0
H1285 H 0.45405 0.6092 0.03066 0.0
H1286 H 0.43606 0.59862 0.09442 0.0
H1287 H 0.4836 0.58081 0.16289 0.0
H1288 H 0.50167 0.59189 0.1002 0.0
H1289 H 0.46293 0.59599 0.22146 0.0
H1290 H 0.45468 0.55189 0.1049 0.0
H1291 H 0.44677 0.54085 0.02858 0.0
H1292 H 0.39354 0.56049 0.04527 0.0
H1293 H 0.4012 0.57187 0.12149 0.0
C1294 C 0.42031 0.53805 0.34684 0.0
C1295 C 0.4019 0.53998 0.35357 0.0
C1296 C 0.42896 0.54768 0.31284 0.0
C1297 C 0.41934 0.55929 0.28476 0.0
C1298 C 0.40104 0.56153 0.29191 0.0
C1299 C 0.3924 0.55207 0.32638 0.0
C1300 C 0.42835 0.56831 0.24647 0.0
C1301 C 0.42359 0.56354 0.20202 0.0
C1302 C 0.44264 0.58019 0.2536 0.0
C1303 C 0.44791 0.58601 0.29989 0.0
C1304 C 0.43534 0.59364 0.32947 0.0
C1305 C 0.44034 0.59894 0.37318 0.0
C1306 C 0.45791 0.59679 0.38763 0.0
C1307 C 0.47052 0.58936 0.35835 0.0
C1308 C 0.46558 0.58401 0.31462 0.0
C1309 C 0.46066 0.60302 0.0593 0.0
C1310 C 0.47929 0.60136 0.06029 0.0
C1311 C 0.45036 0.59693 0.09568 0.0
C1312 C 0.45845 0.5887 0.13326 0.0
C1313 C 0.47705 0.58714 0.13437 0.0
C1314 C 0.48736 0.59346 0.09839 0.0
C1315 C 0.44765 0.58162 0.17147 0.0
C1316 C 0.45208 0.58672 0.21601 0.0
C1317 C 0.43323 0.5698 0.16443 0.0
C1318 C 0.42857 0.56291 0.11868 0.0
C1319 C 0.44132 0.55397 0.09215 0.0
C1320 C 0.43688 0.54764 0.04894 0.0
C1321 C 0.41968 0.55002 0.03203 0.0
C1322 C 0.40687 0.55869 0.05837 0.0
C1323 C 0.41125 0.56508 0.10159 0.0
H1324 H 0.41627 0.5451 0.99857 0.0
H1325 H 0.46176 0.60091 0.42148 0.0
H1326 H 0.9522 0.40904 0.82721 0.0
H1327 H 0.93288 0.42131 0.76843 0.0
H1328 H 0.9166 0.36833 0.73041 0.0
H1329 H 0.93602 0.35589 0.78934 0.0
H1330 H 0.92743 0.38829 0.65711 0.0
H1331 H 0.8872 0.395 0.78095 0.0
H1332 H 0.87813 0.40348 0.85853 0.0
H1333 H 0.88986 0.4582 0.82932 0.0
H1334 H 0.89928 0.45003 0.75178 0.0
H1335 H 0.87286 0.43075 0.48911 0.0
H1336 H 0.88157 0.41158 0.55277 0.0
H1337 H 0.90053 0.45752 0.62614 0.0
H1338 H 0.89158 0.47667 0.56378 0.0
H1339 H 0.88326 0.43635 0.68192 0.0
H1340 H 0.92872 0.42914 0.56591 0.0
H1341 H 0.93953 0.4214 0.48923 0.0
H1342 H 0.91919 0.36836 0.50464 0.0
H1343 H 0.90807 0.37586 0.58126 0.0
C1344 C 0.94429 0.39999 0.80688 0.0
C1345 C 0.94564 0.3815 0.81289 0.0
C1346 C 0.93321 0.40703 0.77336 0.0
C1347 C 0.92323 0.39573 0.7452 0.0
C1348 C 0.92417 0.37727 0.75186 0.0
C1349 C 0.93519 0.3702 0.78567 0.0
C1350 C 0.91282 0.40333 0.70705 0.0
C1351 C 0.91744 0.39849 0.66249 0.0
C1352 C 0.90002 0.41683 0.71415 0.0
C1353 C 0.89404 0.42188 0.76054 0.0
C1354 C 0.88794 0.40884 0.79112 0.0
C1355 C 0.88273 0.41358 0.8351 0.0
C1356 C 0.88344 0.43136 0.84886 0.0
C1357 C 0.88931 0.44443 0.81861 0.0
C1358 C 0.89456 0.43975 0.7746 0.0
C1359 C 0.87881 0.43676 0.5189 0.0
C1360 C 0.88154 0.45527 0.52117 0.0
C1361 C 0.88381 0.42578 0.55523 0.0
C1362 C 0.89182 0.4331 0.59415 0.0
C1363 C 0.89429 0.45157 0.59664 0.0
C1364 C 0.8892 0.46251 0.5607 0.0
C1365 C 0.89831 0.42173 0.63198 0.0
C1366 C 0.89293 0.42585 0.67651 0.0
C1367 C 0.91054 0.40768 0.62487 0.0
C1368 C 0.91737 0.40312 0.57903 0.0
C1369 C 0.92645 0.41586 0.5528 0.0
C1370 C 0.93265 0.41152 0.50938 0.0
C1371 C 0.92999 0.39442 0.492 0.0
C1372 C 0.9212 0.38161 0.5181 0.0
C1373 C 0.91495 0.3859 0.56153 0.0
H1374 H 0.93479 0.39109 0.45837 0.0
H1375 H 0.87942 0.43501 0.88295 0.0
H1376 H 0.94023 0.36427 0.98972 0.0
H1377 H 0.92055 0.37233 0.05289 0.0
H1378 H 0.9658 0.39103 0.12939 0.0
H1379 H 0.98546 0.38265 0.06753 0.0
H1380 H 0.94417 0.37398 0.1838 0.0
H1381 H 0.93777 0.4194 0.06732 0.0
H1382 H 0.93067 0.43016 0.9902 0.0
H1383 H 0.87763 0.40951 0.00252 0.0
H1384 H 0.8845 0.39843 0.07956 0.0
H1385 H 0.91541 0.44333 0.32626 0.0
H1386 H 0.92821 0.42394 0.26834 0.0
H1387 H 0.87565 0.40683 0.22909 0.0
H1388 H 0.86268 0.42628 0.28732 0.0
H1389 H 0.89615 0.41792 0.15608 0.0
H1390 H 0.90201 0.37785 0.28053 0.0
H1391 H 0.90989 0.36879 0.35852 0.0
H1392 H 0.96477 0.38076 0.33218 0.0
H1393 H 0.95719 0.39016 0.25424 0.0
C1394 C 0.94599 0.36998 0.02014 0.0
C1395 C 0.96444 0.37287 0.02335 0.0
C1396 C 0.93472 0.37462 0.05619 0.0
C1397 C 0.94167 0.38247 0.09576 0.0
C1398 C 0.9601 0.38494 0.09935 0.0
C1399 C 0.97135 0.38018 0.06371 0.0
C1400 C 0.92993 0.38891 0.13295 0.0
C1401 C 0.93369 0.3836 0.17774 0.0
C1402 C 0.91589 0.40109 0.12502 0.0
C1403 C 0.91171 0.4079 0.07893 0.0
C1404 C 0.92463 0.41705 0.05344 0.0
C1405 C 0.92064 0.42322 0.00978 0.0
C1406 C 0.90373 0.42046 0.9914 0.0
C1407 C 0.89074 0.41159 0.01675 0.0
C1408 C 0.89467 0.40538 0.06042 0.0
C1409 C 0.90657 0.43524 0.30582 0.0
C1410 C 0.88804 0.43633 0.31132 0.0
C1411 C 0.91391 0.42412 0.27281 0.0
C1412 C 0.90288 0.41387 0.24457 0.0
C1413 C 0.88438 0.4146 0.25064 0.0
C1414 C 0.87701 0.42564 0.28403 0.0
C1415 C 0.91082 0.40342 0.20691 0.0
C1416 C 0.90635 0.40798 0.16208 0.0
C1417 C 0.92432 0.3907 0.21484 0.0
C1418 C 0.929 0.3848 0.26153 0.0
C1419 C 0.91575 0.37865 0.29143 0.0
C1420 C 0.92016 0.37345 0.33564 0.0
C1421 C 0.93781 0.37422 0.35031 0.0
C1422 C 0.9511 0.38016 0.32076 0.0
C1423 C 0.94675 0.3854 0.27653 0.0
H1424 H 0.9412 0.37019 0.38456 0.0
H1425 H 0.90067 0.42523 0.95757 0.0
H1426 H 0.01667 0.93403 0.8444 0.0
H1427 H 0.0326 0.94783 0.78137 0.0
H1428 H 0.05889 0.89803 0.7529 0.0
H1429 H 0.04328 0.8842 0.81698 0.0
H1430 H 0.08155 0.92464 0.74264 0.0
H1431 H 0.02352 0.91181 0.68839 0.0
H1432 H 0.99073 0.91111 0.68878 0.0
H1433 H 0.98921 0.9682 0.68582 0.0
H1434 H 0.022 0.96926 0.68604 0.0
H1435 H 0.10662 0.95844 0.52032 0.0
H1436 H 0.09242 0.93972 0.57839 0.0
H1437 H 0.07129 0.98657 0.64347 0.0
H1438 H 0.0856 0.00532 0.58654 0.0
H1439 H 0.04607 0.95785 0.62842 0.0
H1440 H 0.10521 0.96928 0.68917 0.0
H1441 H 0.13798 0.96865 0.68561 0.0
H1442 H 0.13694 0.91181 0.67106 0.0
H1443 H 0.10412 0.91214 0.67385 0.0
C1444 C 0.02595 0.92603 0.825 0.0
C1445 C 0.02863 0.908 0.83544 0.0
C1446 C 0.03497 0.93391 0.78877 0.0
C1447 C 0.04663 0.92386 0.7617 0.0
C1448 C 0.04987 0.90601 0.77312 0.0
C1449 C 0.04095 0.89814 0.80974 0.0
C1450 C 0.05514 0.93203 0.72119 0.0
C1451 C 0.07375 0.93163 0.71726 0.0
C1452 C 0.04499 0.94115 0.68794 0.0
C1453 C 0.02524 0.94061 0.6876 0.0
C1454 C 0.0162 0.92422 0.68814 0.0
C1455 C 0.99761 0.92376 0.6882 0.0
C1456 C 0.98789 0.9396 0.68742 0.0
C1457 C 0.99675 0.95594 0.68646 0.0
C1458 C 0.01535 0.95648 0.68643 0.0
C1459 C 0.09892 0.96473 0.54698 0.0
C1460 C 0.09729 0.98337 0.54891 0.0
C1461 C 0.09087 0.95404 0.58009 0.0
C1462 C 0.08085 0.96182 0.61512 0.0
C1463 C 0.07896 0.98035 0.61664 0.0
C1464 C 0.08722 0.99103 0.58416 0.0
C1465 C 0.07239 0.95082 0.65077 0.0
C1466 C 0.05379 0.95066 0.6536 0.0
C1467 C 0.08251 0.94096 0.68248 0.0
C1468 C 0.10222 0.94076 0.68115 0.0
C1469 C 0.11197 0.95666 0.68478 0.0
C1470 C 0.13055 0.95636 0.683 0.0
C1471 C 0.13953 0.94021 0.67796 0.0
C1472 C 0.12996 0.92432 0.67486 0.0
C1473 C 0.11137 0.92455 0.67657 0.0
H1474 H 0.15392 0.94 0.67658 0.0
H1475 H 0.9735 0.93922 0.68747 0.0
H1476 H 0.62471 0.05376 0.33533 0.0
H1477 H 0.60998 0.07146 0.27664 0.0
H1478 H 0.55914 0.05037 0.31843 0.0
H1479 H 0.57385 0.03228 0.37621 0.0
H1480 H 0.56261 0.04719 0.23092 0.0
H1481 H 0.57179 0.09459 0.3374 0.0
H1482 H 0.58898 0.11391 0.38892 0.0
H1483 H 0.62128 0.13136 0.27707 0.0
H1484 H 0.60442 0.11195 0.22494 0.0
H1485 H 0.50491 0.1027 0.10959 0.0
H1486 H 0.52211 0.09117 0.17317 0.0
H1487 H 0.57085 0.10343 0.10264 0.0
H1488 H 0.5537 0.11497 0.03806 0.0
H1489 H 0.56984 0.11182 0.20185 0.0
H1490 H 0.55976 0.06402 0.09587 0.0
H1491 H 0.54133 0.04538 0.04552 0.0
H1492 H 0.50954 0.02915 0.15949 0.0
H1493 H 0.52761 0.04796 0.21044 0.0
C1494 C 0.61036 0.05314 0.33251 0.0
C1495 C 0.60044 0.04157 0.36021 0.0
C1496 C 0.60194 0.06331 0.29901 0.0
C1497 C 0.58343 0.0623 0.29313 0.0
C1498 C 0.57345 0.05131 0.32215 0.0
C1499 C 0.58187 0.04102 0.35528 0.0
C1500 C 0.57456 0.07156 0.2547 0.0
C1501 C 0.56404 0.06137 0.22508 0.0
C1502 C 0.57681 0.08998 0.2461 0.0
C1503 C 0.58696 0.10167 0.27736 0.0
C1504 C 0.58266 0.10243 0.32385 0.0
C1505 C 0.59232 0.11342 0.35315 0.0
C1506 C 0.60625 0.12382 0.3363 0.0
C1507 C 0.6105 0.12328 0.29008 0.0
C1508 C 0.60089 0.1123 0.26064 0.0
C1509 C 0.51928 0.1032 0.10756 0.0
C1510 C 0.52791 0.10967 0.06842 0.0
C1511 C 0.52908 0.09658 0.14404 0.0
C1512 C 0.5477 0.09637 0.14238 0.0
C1513 C 0.55646 0.10353 0.10444 0.0
C1514 C 0.54664 0.11002 0.06755 0.0
C1515 C 0.55779 0.08745 0.17902 0.0
C1516 C 0.56853 0.09765 0.20797 0.0
C1517 C 0.55568 0.06905 0.18735 0.0
C1518 C 0.54493 0.05754 0.15689 0.0
C1519 C 0.54875 0.0566 0.11014 0.0
C1520 C 0.53838 0.04599 0.0815 0.0
C1521 C 0.52424 0.03613 0.09927 0.0
C1522 C 0.52048 0.03682 0.14576 0.0
C1523 C 0.53079 0.04744 0.17454 0.0
H1524 H 0.51622 0.02792 0.07704 0.0
H1525 H 0.61371 0.13233 0.35904 0.0
H1526 H 0.37421 0.50659 0.61497 0.0
H1527 H 0.38394 0.52394 0.68075 0.0
H1528 H 0.41745 0.55569 0.59328 0.0
H1529 H 0.40685 0.53911 0.52733 0.0
H1530 H 0.4128 0.52672 0.71988 0.0
H1531 H 0.42638 0.59556 0.63343 0.0
H1532 H 0.41306 0.61448 0.57402 0.0
H1533 H 0.36254 0.58899 0.59395 0.0
H1534 H 0.37549 0.57008 0.65391 0.0
H1535 H 0.47909 0.57259 0.83534 0.0
H1536 H 0.45941 0.55794 0.7814 0.0
H1537 H 0.41939 0.59809 0.80491 0.0
H1538 H 0.43947 0.61329 0.85788 0.0
H1539 H 0.42098 0.5922 0.71956 0.0
H1540 H 0.41486 0.55462 0.84632 0.0
H1541 H 0.42403 0.53633 0.91181 0.0
H1542 H 0.45149 0.5005 0.82238 0.0
H1543 H 0.44273 0.51872 0.75637 0.0
C1544 C 0.38348 0.51744 0.60984 0.0
C1545 C 0.38972 0.52158 0.56609 0.0
C1546 C 0.38907 0.52734 0.64744 0.0
C1547 C 0.40129 0.54135 0.64218 0.0
C1548 C 0.4076 0.54537 0.59834 0.0
C1549 C 0.40164 0.53579 0.56061 0.0
C1550 C 0.40828 0.55102 0.68261 0.0
C1551 C 0.41443 0.54106 0.71986 0.0
C1552 C 0.40991 0.56981 0.68366 0.0
C1553 C 0.40196 0.58131 0.64799 0.0
C1554 C 0.41241 0.59406 0.62534 0.0
C1555 C 0.40492 0.60476 0.59151 0.0
C1556 C 0.38698 0.60291 0.58015 0.0
C1557 C 0.37646 0.59037 0.60269 0.0
C1558 C 0.38387 0.57964 0.63656 0.0
C1559 C 0.46604 0.57824 0.82939 0.0
C1560 C 0.46079 0.59406 0.85098 0.0
C1561 C 0.45474 0.56978 0.79866 0.0
C1562 C 0.43775 0.5767 0.78958 0.0
C1563 C 0.4324 0.59245 0.81142 0.0
C1564 C 0.44385 0.60109 0.84177 0.0
C1565 C 0.42605 0.56781 0.75574 0.0
C1566 C 0.41906 0.5779 0.7198 0.0
C1567 C 0.42294 0.54923 0.75681 0.0
C1568 C 0.42821 0.53812 0.79636 0.0
C1569 C 0.42295 0.5429 0.84061 0.0
C1570 C 0.42806 0.53254 0.87784 0.0
C1571 C 0.43835 0.51727 0.87126 0.0
C1572 C 0.44352 0.51233 0.82742 0.0
C1573 C 0.43846 0.52266 0.79007 0.0
H1574 H 0.4423 0.50927 0.90013 0.0
H1575 H 0.38121 0.6112 0.55392 0.0
H1576 H 0.92991 0.01123 0.65254 0.0
H1577 H 0.94401 0.02531 0.71797 0.0
H1578 H 0.89647 0.05603 0.74231 0.0
H1579 H 0.8824 0.04227 0.67596 0.0
H1580 H 0.92459 0.07607 0.75521 0.0
H1581 H 0.90632 0.01928 0.808 0.0
H1582 H 0.90286 0.98664 0.80842 0.0
H1583 H 0.95954 0.98034 0.81595 0.0
H1584 H 0.96336 0.01294 0.81509 0.0
H1585 H 0.95902 0.10029 0.97573 0.0
H1586 H 0.93928 0.08648 0.91932 0.0
H1587 H 0.98429 0.06009 0.8584 0.0
H1588 H 0.00405 0.07392 0.91383 0.0
H1589 H 0.95348 0.03794 0.87148 0.0
H1590 H 0.97043 0.09586 0.81064 0.0
H1591 H 0.97256 0.12858 0.81399 0.0
H1592 H 0.91578 0.13238 0.82648 0.0
H1593 H 0.91335 0.09964 0.82386 0.0
C1594 C 0.9225 0.02109 0.67155 0.0
C1595 C 0.90502 0.02559 0.65922 0.0
C1596 C 0.93052 0.02902 0.70921 0.0
C1597 C 0.92115 0.04141 0.73575 0.0
C1598 C 0.90391 0.04641 0.72255 0.0
C1599 C 0.8959 0.03857 0.68458 0.0
C1600 C 0.92947 0.04912 0.77705 0.0
C1601 C 0.9306 0.0677 0.78104 0.0
C1602 C 0.93735 0.03824 0.81087 0.0
C1603 C 0.93513 0.01858 0.81112 0.0
C1604 C 0.91806 0.01094 0.80938 0.0
C1605 C 0.91603 0.99244 0.80978 0.0
C1606 C 0.93097 0.98143 0.81211 0.0
C1607 C 0.94797 0.98889 0.81413 0.0
C1608 C 0.95008 0.00738 0.81376 0.0
C1609 C 0.96467 0.09144 0.9505 0.0
C1610 C 0.98311 0.08829 0.94905 0.0
C1611 C 0.9534 0.08361 0.91833 0.0
C1612 C 0.96038 0.07233 0.88472 0.0
C1613 C 0.97867 0.06874 0.88414 0.0
C1614 C 0.98994 0.07674 0.91571 0.0
C1615 C 0.94891 0.06475 0.84874 0.0
C1616 C 0.9472 0.04622 0.84587 0.0
C1617 C 0.94026 0.07565 0.81642 0.0
C1618 C 0.94173 0.09531 0.81761 0.0
C1619 C 0.95842 0.10367 0.8145 0.0
C1620 C 0.95968 0.12222 0.81619 0.0
C1621 C 0.94432 0.13255 0.82059 0.0
C1622 C 0.92767 0.12435 0.82316 0.0
C1623 C 0.92634 0.10581 0.82156 0.0
H1624 H 0.94533 0.14691 0.82189 0.0
H1625 H 0.92938 0.96712 0.81244 0.0
H1626 H 0.3928 0.99509 0.3982 0.0
H1627 H 0.40221 0.97627 0.33542 0.0
H1628 H 0.39065 0.92944 0.41495 0.0
H1629 H 0.3816 0.94827 0.47879 0.0
H1630 H 0.42141 0.92576 0.37565 0.0
H1631 H 0.36409 0.94215 0.32347 0.0
H1632 H 0.33907 0.96212 0.30534 0.0
H1633 H 0.3712 0.98914 0.20636 0.0
H1634 H 0.39653 0.96951 0.22437 0.0
H1635 H 0.43976 0.87163 0.18229 0.0
H1636 H 0.42118 0.88611 0.2399 0.0
H1637 H 0.43966 0.93748 0.19485 0.0
H1638 H 0.45848 0.92312 0.13771 0.0
H1639 H 0.40181 0.93548 0.21647 0.0
H1640 H 0.45998 0.92074 0.27883 0.0
H1641 H 0.48436 0.9 0.29726 0.0
H1642 H 0.44859 0.86845 0.37765 0.0
H1643 H 0.42393 0.88888 0.35908 0.0
C1644 C 0.39208 0.98079 0.40238 0.0
C1645 C 0.3864 0.97322 0.44365 0.0
C1646 C 0.39738 0.97002 0.36622 0.0
C1647 C 0.39686 0.95141 0.37008 0.0
C1648 C 0.39109 0.94377 0.41109 0.0
C1649 C 0.38592 0.95456 0.44755 0.0
C1650 C 0.40332 0.94009 0.33209 0.0
C1651 C 0.4168 0.92763 0.34104 0.0
C1652 C 0.39749 0.94261 0.28672 0.0
C1653 C 0.38226 0.95442 0.27552 0.0
C1654 C 0.36587 0.95243 0.29806 0.0
C1655 C 0.35162 0.96368 0.28777 0.0
C1656 C 0.35356 0.97691 0.25477 0.0
C1657 C 0.36973 0.97889 0.23192 0.0
C1658 C 0.38403 0.96769 0.24212 0.0
C1659 C 0.43961 0.88602 0.1841 0.0
C1660 C 0.45065 0.89625 0.15573 0.0
C1661 C 0.42902 0.89425 0.21705 0.0
C1662 C 0.42916 0.91283 0.2217 0.0
C1663 C 0.43937 0.92312 0.19168 0.0
C1664 C 0.45015 0.91489 0.15921 0.0
C1665 C 0.41997 0.92152 0.26026 0.0
C1666 C 0.40608 0.93346 0.25131 0.0
C1667 C 0.42524 0.91839 0.3057 0.0
C1668 C 0.44008 0.9062 0.31711 0.0
C1669 C 0.45728 0.90929 0.30009 0.0
C1670 C 0.47116 0.89761 0.31063 0.0
C1671 C 0.46801 0.88289 0.33849 0.0
C1672 C 0.451 0.87984 0.35599 0.0
C1673 C 0.43707 0.89147 0.34548 0.0
H1674 H 0.47877 0.87386 0.34662 0.0
H1675 H 0.34251 0.98561 0.24686 0.0
H1676 H 0.54955 0.38485 0.95502 0.0
H1677 H 0.56699 0.39641 0.89126 0.0
H1678 H 0.51879 0.41455 0.82651 0.0
H1679 H 0.5013 0.4025 0.8889 0.0
H1680 H 0.53961 0.40163 0.76505 0.0
H1681 H 0.54727 0.44262 0.88997 0.0
H1682 H 0.55553 0.45129 0.96804 0.0
H1683 H 0.60906 0.43363 0.94463 0.0
H1684 H 0.60106 0.42465 0.86654 0.0
H1685 H 0.56914 0.47355 0.62815 0.0
H1686 H 0.55572 0.45441 0.68599 0.0
H1687 H 0.60751 0.43377 0.72047 0.0
H1688 H 0.62105 0.45283 0.66243 0.0
H1689 H 0.58787 0.44498 0.7959 0.0
H1690 H 0.57979 0.40776 0.66537 0.0
H1691 H 0.57048 0.40078 0.58699 0.0
H1692 H 0.51636 0.41329 0.62091 0.0
H1693 H 0.52538 0.42064 0.69929 0.0
C1694 C 0.54266 0.39119 0.92703 0.0
C1695 C 0.52402 0.39281 0.92725 0.0
C1696 C 0.55266 0.39786 0.89067 0.0
C1697 C 0.54425 0.40663 0.85433 0.0
C1698 C 0.52562 0.40784 0.85404 0.0
C1699 C 0.51562 0.40096 0.88993 0.0
C1700 C 0.55468 0.41504 0.81711 0.0
C1701 C 0.55008 0.41119 0.77187 0.0
C1702 C 0.56865 0.42724 0.82583 0.0
C1703 C 0.57351 0.43277 0.87261 0.0
C1704 C 0.56077 0.44048 0.90158 0.0
C1705 C 0.56541 0.44546 0.94581 0.0
C1706 C 0.58279 0.44295 0.96134 0.0
C1707 C 0.59559 0.43553 0.93259 0.0
C1708 C 0.59102 0.4305 0.88833 0.0
C1709 C 0.57766 0.4648 0.64768 0.0
C1710 C 0.59615 0.46468 0.64072 0.0
C1711 C 0.56996 0.45384 0.68064 0.0
C1712 C 0.58062 0.44262 0.70735 0.0
C1713 C 0.59906 0.44232 0.70015 0.0
C1714 C 0.60676 0.45316 0.66685 0.0
C1715 C 0.5725 0.43183 0.7441 0.0
C1716 C 0.57755 0.43524 0.78918 0.0
C1717 C 0.55878 0.41943 0.73525 0.0
C1718 C 0.55329 0.41487 0.68818 0.0
C1719 C 0.56592 0.40915 0.65604 0.0
C1720 C 0.5607 0.40511 0.61161 0.0
C1721 C 0.54285 0.40662 0.59897 0.0
C1722 C 0.53019 0.41214 0.63075 0.0
C1723 C 0.53534 0.41623 0.6752 0.0
H1724 H 0.53882 0.40347 0.56459 0.0
H1725 H 0.58635 0.4468 0.99561 0.0
H1726 H 0.10333 0.51982 0.43254 0.0
H1727 H 0.09512 0.5396 0.37073 0.0
H1728 H 0.10774 0.58516 0.45386 0.0
H1729 H 0.11579 0.56536 0.51674 0.0
H1730 H 0.07683 0.58976 0.41152 0.0
H1731 H 0.13487 0.57358 0.36598 0.0
H1732 H 0.16016 0.55356 0.35085 0.0
H1733 H 0.13012 0.52712 0.24675 0.0
H1734 H 0.10452 0.54678 0.26175 0.0
H1735 H 0.05667 0.642 0.21601 0.0
H1736 H 0.07587 0.62936 0.27512 0.0
H1737 H 0.06285 0.57646 0.22909 0.0
H1738 H 0.04362 0.58894 0.17024 0.0
H1739 H 0.09892 0.58048 0.25428 0.0
H1740 H 0.03958 0.59435 0.31138 0.0
H1741 H 0.01469 0.61472 0.32771 0.0
H1742 H 0.04877 0.64658 0.41185 0.0
H1743 H 0.074 0.62661 0.39514 0.0
C1744 C 0.1045 0.53403 0.43784 0.0
C1745 C 0.11031 0.54096 0.47972 0.0
C1746 C 0.09989 0.54535 0.40222 0.0
C1747 C 0.10113 0.56386 0.40734 0.0
C1748 C 0.10681 0.5709 0.44909 0.0
C1749 C 0.1114 0.55955 0.48497 0.0
C1750 C 0.09562 0.57568 0.36949 0.0
C1751 C 0.08198 0.58805 0.37735 0.0
C1752 C 0.10227 0.57338 0.32482 0.0
C1753 C 0.11771 0.56162 0.31519 0.0
C1754 C 0.1336 0.56343 0.34004 0.0
C1755 C 0.14801 0.55215 0.33147 0.0
C1756 C 0.14674 0.53907 0.2979 0.0
C1757 C 0.13108 0.53727 0.27274 0.0
C1758 C 0.11662 0.54849 0.28122 0.0
C1759 C 0.05819 0.62769 0.21791 0.0
C1760 C 0.04853 0.61644 0.18879 0.0
C1761 C 0.06912 0.62051 0.25173 0.0
C1762 C 0.07062 0.60199 0.25667 0.0
C1763 C 0.06187 0.59079 0.2258 0.0
C1764 C 0.05083 0.59794 0.19233 0.0
C1765 C 0.07985 0.59411 0.2963 0.0
C1766 C 0.09413 0.58248 0.28869 0.0
C1767 C 0.07394 0.59721 0.34129 0.0
C1768 C 0.05873 0.60913 0.35151 0.0
C1769 C 0.04181 0.60579 0.33301 0.0
C1770 C 0.02763 0.61724 0.3424 0.0
C1771 C 0.03014 0.63194 0.37075 0.0
C1772 C 0.04685 0.63521 0.38981 0.0
C1773 C 0.0611 0.62384 0.38035 0.0
H1774 H 0.01913 0.64078 0.37801 0.0
H1775 H 0.15791 0.53034 0.29134 0.0
H1776 H 0.85657 0.52686 0.30759 0.0
H1777 H 0.87042 0.55297 0.27147 0.0
H1778 H 0.92132 0.53738 0.32657 0.0
H1779 H 0.90747 0.51168 0.3629 0.0
H1780 H 0.91765 0.57194 0.33363 0.0
H1781 H 0.90834 0.52738 0.21712 0.0
H1782 H 0.89054 0.5073 0.16891 0.0
H1783 H 0.86135 0.55195 0.11667 0.0
H1784 H 0.87884 0.57228 0.16508 0.0
H1785 H 0.97552 0.59317 0.13123 0.0
H1786 H 0.95168 0.57599 0.16651 0.0
H1787 H 0.93274 0.62336 0.23392 0.0
H1788 H 0.95676 0.64068 0.19803 0.0
H1789 H 0.91573 0.57728 0.16581 0.0
H1790 H 0.91995 0.60943 0.34269 0.0
H1791 H 0.9411 0.62636 0.39014 0.0
H1792 H 0.98494 0.602 0.32025 0.0
H1793 H 0.96408 0.58487 0.27279 0.0
C1794 C 0.87066 0.52926 0.31225 0.0
C1795 C 0.88095 0.51769 0.33886 0.0
C1796 C 0.87855 0.54408 0.29163 0.0
C1797 C 0.89691 0.54713 0.29635 0.0
C1798 C 0.90711 0.53544 0.32289 0.0
C1799 C 0.89922 0.52079 0.34366 0.0
C1800 C 0.90595 0.56183 0.272 0.0
C1801 C 0.91688 0.57336 0.29705 0.0
C1802 C 0.90525 0.56353 0.2241 0.0
C1803 C 0.89469 0.5513 0.19524 0.0
C1804 C 0.898 0.53289 0.19569 0.0
C1805 C 0.888 0.52147 0.16826 0.0
C1806 C 0.87476 0.52834 0.13989 0.0
C1807 C 0.87155 0.54665 0.13878 0.0
C1808 C 0.8815 0.55812 0.16621 0.0
C1809 C 0.96597 0.59998 0.15265 0.0
C1810 C 0.96753 0.61827 0.16097 0.0
C1811 C 0.9524 0.59017 0.17284 0.0
C1812 C 0.94038 0.59842 0.2026 0.0
C1813 C 0.94186 0.61677 0.21091 0.0
C1814 C 0.95551 0.62662 0.19055 0.0
C1815 C 0.92743 0.58725 0.22754 0.0
C1816 C 0.91583 0.57638 0.20259 0.0
C1817 C 0.9278 0.58586 0.27546 0.0
C1818 C 0.94046 0.59614 0.3037 0.0
C1819 C 0.93411 0.60774 0.33744 0.0
C1820 C 0.94605 0.61736 0.36435 0.0
C1821 C 0.96437 0.61536 0.35802 0.0
C1822 C 0.97078 0.60367 0.32492 0.0
C1823 C 0.9589 0.59403 0.29795 0.0
H1824 H 0.9736 0.62281 0.37888 0.0
H1825 H 0.86704 0.51947 0.11865 0.0
H1826 H 0.90719 0.94899 0.59196 0.0
H1827 H 0.91411 0.92461 0.64338 0.0
H1828 H 0.85945 0.92357 0.6884 0.0
H1829 H 0.85266 0.94836 0.63719 0.0
H1830 H 0.8793 0.93057 0.75562 0.0
H1831 H 0.88092 0.88024 0.65561 0.0
H1832 H 0.88748 0.86222 0.58753 0.0
H1833 H 0.94285 0.87558 0.5983 0.0
H1834 H 0.93668 0.89313 0.66751 0.0
H1835 H 0.94586 0.8597 0.86646 0.0
H1836 H 0.91953 0.86646 0.82061 0.0
H1837 H 0.92688 0.92244 0.8484 0.0
H1838 H 0.95221 0.91544 0.8966 0.0
H1839 H 0.92253 0.881 0.74696 0.0
H1840 H 0.90069 0.94742 0.8219 0.0
H1841 H 0.88743 0.96156 0.88964 0.0
H1842 H 0.86352 0.91182 0.92743 0.0
H1843 H 0.87744 0.89721 0.86111 0.0
C1844 C 0.89647 0.9429 0.61101 0.0
C1845 C 0.87938 0.95037 0.61047 0.0
C1846 C 0.90041 0.92889 0.64046 0.0
C1847 C 0.88732 0.92219 0.66999 0.0
C1848 C 0.86978 0.92851 0.66603 0.0
C1849 C 0.86589 0.94265 0.63682 0.0
C1850 C 0.89286 0.91221 0.7112 0.0
C1851 C 0.88846 0.91944 0.75373 0.0
C1852 C 0.90461 0.89759 0.70932 0.0
C1853 C 0.90832 0.88807 0.66637 0.0
C1854 C 0.89447 0.87941 0.64325 0.0
C1855 C 0.89815 0.86911 0.60484 0.0
C1856 C 0.91556 0.8678 0.58852 0.0
C1857 C 0.92937 0.87661 0.61095 0.0
C1858 C 0.92582 0.88658 0.65003 0.0
C1859 C 0.94123 0.87333 0.86432 0.0
C1860 C 0.95083 0.88705 0.88523 0.0
C1861 C 0.92624 0.87723 0.83805 0.0
C1862 C 0.92106 0.895 0.83069 0.0
C1863 C 0.93006 0.90859 0.85424 0.0
C1864 C 0.94472 0.90461 0.88156 0.0
C1865 C 0.90925 0.89957 0.79171 0.0
C1866 C 0.9128 0.8916 0.74934 0.0
C1867 C 0.89631 0.91321 0.79388 0.0
C1868 C 0.8903 0.9212 0.83711 0.0
C1869 C 0.89294 0.93944 0.84532 0.0
C1870 C 0.88532 0.94752 0.88341 0.0
C1871 C 0.87466 0.93758 0.91286 0.0
C1872 C 0.8719 0.91946 0.90475 0.0
C1873 C 0.8799 0.9112 0.86737 0.0
H1874 H 0.86855 0.94389 0.942 0.0
H1875 H 0.91835 0.85997 0.55847 0.0
H1876 H 0.51783 0.91129 0.13304 0.0
H1877 H 0.5392 0.92557 0.18264 0.0
H1878 H 0.56889 0.87636 0.19103 0.0
H1879 H 0.54527 0.86142 0.14861 0.0
H1880 H 0.56944 0.8869 0.26515 0.0
H1881 H 0.58698 0.92727 0.13323 0.0
H1882 H 0.58149 0.9496 0.07275 0.0
H1883 H 0.54767 0.97913 0.1625 0.0
H1884 H 0.55372 0.95766 0.22409 0.0
H1885 H 0.63869 0.95742 0.34478 0.0
H1886 H 0.62557 0.93449 0.2958 0.0
H1887 H 0.57629 0.93839 0.36998 0.0
H1888 H 0.58903 0.96197 0.41717 0.0
H1889 H 0.58996 0.94931 0.25315 0.0
H1890 H 0.56414 0.88883 0.35474 0.0
H1891 H 0.57398 0.8668 0.41166 0.0
H1892 H 0.62848 0.87678 0.37627 0.0
H1893 H 0.61897 0.89894 0.31948 0.0
C1894 C 0.52914 0.90368 0.14501 0.0
C1895 C 0.53029 0.88542 0.13603 0.0
C1896 C 0.54169 0.91197 0.17276 0.0
C1897 C 0.55635 0.90245 0.1899 0.0
C1898 C 0.55782 0.88423 0.17876 0.0
C1899 C 0.54453 0.87566 0.15368 0.0
C1900 C 0.56883 0.91068 0.22362 0.0
C1901 C 0.57407 0.90048 0.26162 0.0
C1902 C 0.57493 0.92854 0.22058 0.0
C1903 C 0.57044 0.94066 0.1827 0.0
C1904 C 0.57818 0.93839 0.13971 0.0
C1905 C 0.57508 0.95093 0.10543 0.0
C1906 C 0.56394 0.96547 0.11345 0.0
C1907 C 0.55616 0.96777 0.15614 0.0
C1908 C 0.55957 0.95555 0.19087 0.0
C1909 C 0.62529 0.95286 0.35165 0.0
C1910 C 0.615 0.96107 0.38549 0.0
C1911 C 0.61786 0.93972 0.32391 0.0
C1912 C 0.60009 0.93455 0.32989 0.0
C1913 C 0.59018 0.94187 0.36567 0.0
C1914 C 0.59749 0.95526 0.39281 0.0
C1915 C 0.59065 0.92532 0.29279 0.0
C1916 C 0.58566 0.93554 0.25516 0.0
C1917 C 0.58502 0.90751 0.29588 0.0
C1918 C 0.59084 0.89568 0.33326 0.0
C1919 C 0.57823 0.88645 0.35951 0.0
C1920 C 0.58374 0.87389 0.3916 0.0
C1921 C 0.60184 0.87036 0.39751 0.0
C1922 C 0.61447 0.87956 0.37175 0.0
C1923 C 0.60903 0.89224 0.3399 0.0
H1924 H 0.60609 0.86057 0.4222 0.0
H1925 H 0.56151 0.97507 0.08674 0.0
H1926 H 0.58155 0.54099 0.58792 0.0
H1927 H 0.57119 0.56526 0.63582 0.0
H1928 H 0.62568 0.5795 0.66534 0.0
H1929 H 0.63583 0.55387 0.62119 0.0
H1930 H 0.61203 0.57658 0.7377 0.0
H1931 H 0.58886 0.61701 0.62017 0.0
H1932 H 0.57211 0.6275 0.55304 0.0
H1933 H 0.5266 0.59724 0.59532 0.0
H1934 H 0.54277 0.58735 0.66387 0.0
H1935 H 0.54103 0.64295 0.84471 0.0
H1936 H 0.56474 0.63586 0.79057 0.0
H1937 H 0.56708 0.58234 0.84322 0.0
H1938 H 0.54315 0.58934 0.89656 0.0
H1939 H 0.55705 0.61256 0.72715 0.0
H1940 H 0.60607 0.56364 0.81827 0.0
H1941 H 0.62753 0.56295 0.88167 0.0
H1942 H 0.62794 0.62006 0.8857 0.0
H1943 H 0.60629 0.62108 0.8228 0.0
C1944 C 0.59127 0.54969 0.60359 0.0
C1945 C 0.60945 0.5457 0.60093 0.0
C1946 C 0.58535 0.5638 0.63065 0.0
C1947 C 0.59757 0.57449 0.65453 0.0
C1948 C 0.61588 0.57142 0.64798 0.0
C1949 C 0.62174 0.55685 0.62251 0.0
C1950 C 0.5914 0.5861 0.69266 0.0
C1951 C 0.60013 0.58464 0.73487 0.0
C1952 C 0.57611 0.59703 0.68983 0.0
C1953 C 0.56712 0.60117 0.64646 0.0
C1954 C 0.57536 0.61243 0.61476 0.0
C1955 C 0.56588 0.61848 0.57689 0.0
C1956 C 0.54836 0.61293 0.56975 0.0
C1957 C 0.54019 0.60147 0.60076 0.0
C1958 C 0.54943 0.59579 0.63934 0.0
C1959 C 0.54713 0.6299 0.84582 0.0
C1960 C 0.54052 0.61676 0.87519 0.0
C1961 C 0.56068 0.62587 0.81499 0.0
C1962 C 0.56772 0.60858 0.81279 0.0
C1963 C 0.56211 0.59586 0.84474 0.0
C1964 C 0.54846 0.59987 0.87538 0.0
C1965 C 0.57755 0.6027 0.7717 0.0
C1966 C 0.56927 0.60492 0.72934 0.0
C1967 C 0.59361 0.59307 0.77408 0.0
C1968 C 0.60451 0.59242 0.81598 0.0
C1969 C 0.61057 0.57604 0.8331 0.0
C1970 C 0.62283 0.57559 0.86879 0.0
C1971 C 0.62927 0.59145 0.88729 0.0
C1972 C 0.62305 0.60779 0.87107 0.0
C1973 C 0.61061 0.6083 0.83578 0.0
H1974 H 0.63889 0.59109 0.91462 0.0
H1975 H 0.54112 0.61752 0.54021 0.0
H1976 H 0.08635 0.4824 0.63541 0.0
H1977 H 0.07308 0.4565 0.67212 0.0
H1978 H 0.12437 0.44191 0.72659 0.0
H1979 H 0.13769 0.46815 0.68972 0.0
H1980 H 0.07772 0.42156 0.66606 0.0
H1981 H 0.11598 0.42374 0.83477 0.0
H1982 H 0.1332 0.44479 0.88181 0.0
H1983 H 0.10345 0.48851 0.82658 0.0
H1984 H 0.08591 0.4677 0.77973 0.0
H1985 H 0.03688 0.35524 0.80587 0.0
H1986 H 0.0614 0.37163 0.76943 0.0
H1987 H 0.04333 0.42007 0.83342 0.0
H1988 H 0.01913 0.40375 0.86969 0.0
H1989 H 0.07882 0.41856 0.83435 0.0
H1990 H 0.03095 0.40871 0.72606 0.0
H1991 H 0.01076 0.39035 0.67951 0.0
H1992 H 0.0556 0.36597 0.61395 0.0
H1993 H 0.07606 0.38404 0.66062 0.0
C1994 C 0.09484 0.47343 0.65441 0.0
C1995 C 0.11307 0.47685 0.65881 0.0
C1996 C 0.08726 0.45867 0.67543 0.0
C1997 C 0.09774 0.44723 0.70196 0.0
C1998 C 0.11605 0.45059 0.70629 0.0
C1999 C 0.12363 0.46548 0.6853 0.0
C2000 C 0.08895 0.43261 0.72717 0.0
C2001 C 0.07827 0.42065 0.70279 0.0
C2002 C 0.08949 0.43155 0.77517 0.0
C2003 C 0.09987 0.4442 0.80321 0.0
C2004 C 0.11314 0.43785 0.83269 0.0
C2005 C 0.12293 0.44973 0.85934 0.0
C2006 C 0.11948 0.46798 0.857 0.0
C2007 C 0.10617 0.47438 0.82818 0.0
C2008 C 0.09632 0.46255 0.80153 0.0
C2009 C 0.03844 0.36933 0.81253 0.0
C2010 C 0.02656 0.37823 0.8414 0.0
C2011 C 0.05237 0.37865 0.79182 0.0
C2012 C 0.05421 0.39706 0.79884 0.0
C2013 C 0.04233 0.40585 0.828 0.0
C2014 C 0.02854 0.39654 0.84873 0.0
C2015 C 0.06738 0.40772 0.77321 0.0
C2016 C 0.07887 0.41895 0.7975 0.0
C2017 C 0.06731 0.40838 0.72515 0.0
C2018 C 0.05501 0.39749 0.69732 0.0
C2019 C 0.03649 0.3993 0.70204 0.0
C2020 C 0.025 0.38898 0.67558 0.0
C2021 C 0.03189 0.37694 0.64394 0.0
C2022 C 0.05029 0.37525 0.6386 0.0
C2023 C 0.06183 0.38551 0.66505 0.0
H2024 H 0.02298 0.36897 0.62345 0.0
H2025 H 0.12709 0.47716 0.87764 0.0
H2026 H 0.05426 0.14042 0.12733 0.0
H2027 H 0.0806 0.13514 0.17444 0.0
H2028 H 0.07763 0.07908 0.14308 0.0
H2029 H 0.05182 0.08454 0.09516 0.0
H2030 H 0.07752 0.11918 0.24753 0.0
H2031 H 0.10772 0.05664 0.16321 0.0
H2032 H 0.12364 0.04723 0.09379 0.0
H2033 H 0.14086 0.10099 0.07134 0.0
H2034 H 0.12438 0.11081 0.13943 0.0
H2035 H 0.092 0.04994 0.39722 0.0
H2036 H 0.08574 0.0748 0.34675 0.0
H2037 H 0.1411 0.07674 0.30788 0.0
H2038 H 0.14717 0.0513 0.35756 0.0
H2039 H 0.12383 0.07249 0.23744 0.0
H2040 H 0.11766 0.12081 0.34159 0.0
H2041 H 0.10924 0.13824 0.40933 0.0
H2042 H 0.05489 0.12174 0.39392 0.0
H2043 H 0.0629 0.10484 0.32486 0.0
C2044 C 0.05981 0.12714 0.12903 0.0
C2045 C 0.05123 0.11291 0.10738 0.0
C2046 C 0.07483 0.12409 0.15595 0.0
C2047 C 0.0812 0.10669 0.16262 0.0
C2048 C 0.07339 0.0927 0.13791 0.0
C2049 C 0.05852 0.09579 0.11055 0.0
C2050 C 0.0928 0.10251 0.20221 0.0
C2051 C 0.0879 0.10921 0.24504 0.0
C2052 C 0.10677 0.08999 0.19971 0.0
C2053 C 0.1147 0.08446 0.15598 0.0
C2054 C 0.11466 0.06647 0.14295 0.0
C2055 C 0.12376 0.06108 0.10385 0.0
C2056 C 0.13325 0.0735 0.07817 0.0
C2057 C 0.13344 0.09139 0.09116 0.0
C2058 C 0.12398 0.09693 0.12953 0.0
C2059 C 0.10297 0.05625 0.37955 0.0
C2060 C 0.12008 0.04888 0.38142 0.0
C2061 C 0.09941 0.07057 0.3507 0.0
C2062 C 0.11293 0.07778 0.32323 0.0
C2063 C 0.13041 0.07142 0.32847 0.0
C2064 C 0.1339 0.05692 0.35687 0.0
C2065 C 0.10805 0.08866 0.28282 0.0
C2066 C 0.11395 0.08296 0.23987 0.0
C2067 C 0.09562 0.10273 0.28515 0.0
C2068 C 0.09091 0.11143 0.32856 0.0
C2069 C 0.10394 0.12079 0.35293 0.0
C2070 C 0.0992 0.13079 0.39109 0.0
C2071 C 0.08154 0.13106 0.40599 0.0
C2072 C 0.06855 0.12151 0.38238 0.0
C2073 C 0.07315 0.11187 0.34347 0.0
H2074 H 0.07794 0.13865 0.43587 0.0
H2075 H 0.14044 0.06929 0.04816 0.0
H2076 H 0.40963 0.03273 0.59404 0.0
H2077 H 0.42424 0.05551 0.63966 0.0
H2078 H 0.37601 0.06275 0.71701 0.0
H2079 H 0.36094 0.04072 0.6689 0.0
H2080 H 0.3962 0.09383 0.7122 0.0
H2081 H 0.4039 0.03169 0.74425 0.0
H2082 H 0.41161 0.00097 0.72259 0.0
H2083 H 0.46566 0.01679 0.69867 0.0
H2084 H 0.45805 0.04785 0.71738 0.0
H2085 H 0.46871 0.0871 0.90997 0.0
H2086 H 0.44429 0.07514 0.86515 0.0
H2087 H 0.44635 0.12161 0.77871 0.0
H2088 H 0.46869 0.13471 0.82857 0.0
H2089 H 0.44649 0.06388 0.78992 0.0
H2090 H 0.41442 0.1245 0.70399 0.0
H2091 H 0.40482 0.15517 0.7209 0.0
H2092 H 0.39663 0.14118 0.86064 0.0
H2093 H 0.4064 0.11031 0.84474 0.0
C2094 C 0.40185 0.03995 0.61893 0.0
C2095 C 0.38406 0.03539 0.62725 0.0
C2096 C 0.41026 0.05281 0.64536 0.0
C2097 C 0.40128 0.06057 0.68217 0.0
C2098 C 0.38314 0.05693 0.68868 0.0
C2099 C 0.3746 0.0443 0.66149 0.0
C2100 C 0.41151 0.0698 0.71807 0.0
C2101 C 0.40718 0.08736 0.72951 0.0
C2102 C 0.42556 0.0611 0.74113 0.0
C2103 C 0.43033 0.04221 0.73175 0.0
C2104 C 0.41739 0.0287 0.73383 0.0
C2105 C 0.42171 0.01123 0.72179 0.0
C2106 C 0.43911 0.00693 0.70932 0.0
C2107 C 0.45218 0.02014 0.70835 0.0
C2108 C 0.44783 0.03772 0.71933 0.0
C2109 C 0.46294 0.0953 0.8836 0.0
C2110 C 0.46978 0.11226 0.87453 0.0
C2111 C 0.4493 0.08826 0.85695 0.0
C2112 C 0.4431 0.09746 0.81839 0.0
C2113 C 0.45013 0.11443 0.80907 0.0
C2114 C 0.46313 0.12185 0.83728 0.0
C2115 C 0.43128 0.08822 0.7851 0.0
C2116 C 0.43537 0.0705 0.77365 0.0
C2117 C 0.41682 0.0967 0.76279 0.0
C2118 C 0.41127 0.11517 0.77326 0.0
C2119 C 0.41061 0.12796 0.7384 0.0
C2120 C 0.40521 0.14537 0.74784 0.0
C2121 C 0.40026 0.1501 0.79196 0.0
C2122 C 0.4007 0.13745 0.82671 0.0
C2123 C 0.40623 0.12003 0.81755 0.0
H2124 H 0.39601 0.16357 0.79919 0.0
H2125 H 0.44249 0.99336 0.70061 0.0
H2126 H 0.46461 0.36349 0.16462 0.0
H2127 H 0.44257 0.37633 0.21586 0.0
H2128 H 0.44042 0.42347 0.13183 0.0
H2129 H 0.46462 0.41179 0.08594 0.0
H2130 H 0.44343 0.43417 0.20713 0.0
H2131 H 0.40259 0.38857 0.15244 0.0
H2132 H 0.39217 0.358 0.13586 0.0
H2133 H 0.4006 0.34315 0.27491 0.0
H2134 H 0.41082 0.37354 0.29258 0.0
H2135 H 0.36009 0.45867 0.33597 0.0
H2136 H 0.3738 0.43682 0.28462 0.0
H2137 H 0.42309 0.44119 0.35883 0.0
H2138 H 0.40976 0.46358 0.40823 0.0
H2139 H 0.39341 0.4045 0.28672 0.0
H2140 H 0.45503 0.45015 0.28356 0.0
H2141 H 0.4626 0.48143 0.30026 0.0
H2142 H 0.40928 0.49736 0.26753 0.0
H2143 H 0.40149 0.46624 0.24978 0.0
C2144 C 0.45909 0.37644 0.15674 0.0
C2145 C 0.46567 0.38631 0.11988 0.0
C2146 C 0.44626 0.38372 0.18574 0.0
C2147 C 0.43933 0.40082 0.17756 0.0
C2148 C 0.44538 0.41026 0.13921 0.0
C2149 C 0.45888 0.40337 0.11189 0.0
C2150 C 0.42792 0.40999 0.21189 0.0
C2151 C 0.43236 0.42759 0.22372 0.0
C2152 C 0.41351 0.4016 0.23467 0.0
C2153 C 0.40759 0.38328 0.22371 0.0
C2154 C 0.40232 0.37874 0.17937 0.0
C2155 C 0.39643 0.36147 0.1698 0.0
C2156 C 0.39587 0.34866 0.20415 0.0
C2157 C 0.40107 0.35308 0.24829 0.0
C2158 C 0.40682 0.37033 0.25816 0.0
C2159 C 0.37367 0.45447 0.34201 0.0
C2160 C 0.38379 0.46243 0.37655 0.0
C2161 C 0.38144 0.44196 0.31294 0.0
C2162 C 0.39948 0.43755 0.31778 0.0
C2163 C 0.40916 0.44447 0.35451 0.0
C2164 C 0.40148 0.4571 0.38305 0.0
C2165 C 0.40899 0.42834 0.28058 0.0
C2166 C 0.40431 0.4109 0.26891 0.0
C2167 C 0.4229 0.43695 0.25689 0.0
C2168 C 0.42765 0.45583 0.26575 0.0
C2169 C 0.44496 0.46034 0.2796 0.0
C2170 C 0.44928 0.47805 0.28929 0.0
C2171 C 0.43641 0.49136 0.28508 0.0
C2172 C 0.41922 0.48703 0.27088 0.0
C2173 C 0.41485 0.46936 0.26099 0.0
H2174 H 0.43977 0.50504 0.29274 0.0
H2175 H 0.39134 0.33531 0.19659 0.0
loop_
_geom_bond_atom_site_label_1
_geom_bond_atom_site_label_2
_geom_bond_distance
_geom_bond_site_symmetry_2
_ccdc_geom_bond_type
Mn0 O5 2.095 . S
Mn0 O15 2.162 . S
Mn0 O16 2.297 . S
Mn0 O24 2.385 1_455 S
Mn0 O25 2.209 1_455 S
Mn0 O26 2.094 . S
Mn1 O6 2.121 1_655 S
Mn1 N8 2.257 . S
Mn1 N17 2.282 . S
Mn1 O25 2.215 . S
Mn1 O27 2.117 . S
C2 O24 1.234 . S
C2 O25 1.283 . S
C3 O15 1.281 . S
C3 O16 1.236 . S
C4 O26 1.240 . S
C4 O27 1.264 1_455 S
O5 Mn0 2.095 . S
O5 C14 1.250 . S
O6 Mn1 2.121 1_455 S
O6 C14 1.258 . S
C7 N8 1.326 . S
C7 C11 1.460 . S
C7 H13 0.929 . S
N8 Mn1 2.257 . S
N8 C7 1.326 . S
N8 C12 1.362 . S
C9 C10 1.258 . S
C9 C12 1.431 . S
C9 C29 1.449 . S
C10 C9 1.258 . S
C10 C11 1.477 . S
C10 H30 0.931 . S
C11 C7 1.460 . S
C11 C10 1.477 . S
C11 H31 0.930 1_554 S
C12 N8 1.362 . S
C12 C9 1.431 . S
C12 C22 1.476 . S
H13 C7 0.929 . S
C14 O5 1.250 . S
C14 O6 1.258 . S
O15 Mn0 2.162 . S
O15 C3 1.281 . S
O16 Mn0 2.297 . S
O16 C3 1.236 . S
N17 Mn1 2.282 . S
N17 C18 1.328 . S
N17 C22 1.318 . S
C18 N17 1.328 . S
C18 C19 1.457 . S
C18 H23 0.929 . S
C19 C18 1.457 . S
C19 C20 1.291 . S
C19 H32 0.931 . S
C20 C19 1.291 . S
C20 C21 1.373 . S
C20 H33 0.929 . S
C21 C20 1.373 . S
C21 C22 1.396 . S
C21 C28 1.403 . S
C22 C12 1.476 . S
C22 N17 1.318 . S
C22 C21 1.396 . S
H23 C18 0.929 . S
O24 Mn0 2.385 1_655 S
O24 C2 1.234 . S
O25 Mn0 2.209 1_655 S
O25 Mn1 2.215 . S
O25 C2 1.283 . S
O26 Mn0 2.094 . S
O26 C4 1.240 . S
O27 Mn1 2.117 . S
O27 C4 1.264 1_655 S
C28 C21 1.403 . S
C28 C29 1.399 . S
C28 H34 0.929 . S
C29 C9 1.449 . S
C29 C28 1.399 . S
C29 H35 0.930 . S
H30 C10 0.931 . S
H31 C11 0.930 1_556 S
H32 C19 0.931 . S
H33 C20 0.929 . S
H34 C28 0.929 . S
H35 C29 0.930 . S
Mn36 O41 2.095 . S
Mn36 O51 2.162 . S
Mn36 O52 2.297 . S
Mn36 O60 2.385 1_545 S
Mn36 O61 2.209 1_545 S
Mn36 O62 2.094 . S
Mn37 O42 2.121 1_565 S
Mn37 N44 2.257 . S
Mn37 N53 2.282 . S
Mn37 O61 2.215 . S
Mn37 O63 2.117 . S
C38 O60 1.234 . S
C38 O61 1.283 . S
C39 O51 1.281 . S
C39 O52 1.236 . S
C40 O62 1.240 . S
C40 O63 1.264 1_545 S
O41 Mn36 2.095 . S
O41 C50 1.250 . S
O42 Mn37 2.121 1_545 S
O42 C50 1.258 . S
C43 N44 1.326 . S
C43 C47 1.460 . S
C43 H49 0.929 . S
N44 Mn37 2.257 . S
N44 C43 1.326 . S
N44 C48 1.362 . S
C45 C46 1.258 . S
C45 C48 1.431 . S
C45 C65 1.449 . S
C46 C45 1.258 . S
C46 C47 1.477 . S
C46 H66 0.931 . S
C47 C43 1.460 . S
C47 C46 1.477 . S
C47 H67 0.930 . S
C48 N44 1.362 . S
C48 C45 1.431 . S
C48 C58 1.476 . S
H49 C43 0.929 . S
C50 O41 1.250 . S
C50 O42 1.258 . S
O51 Mn36 2.162 . S
O51 C39 1.281 . S
O52 Mn36 2.297 . S
O52 C39 1.236 . S
N53 Mn37 2.282 . S
N53 C54 1.328 . S
N53 C58 1.318 . S
C54 N53 1.328 . S
C54 C55 1.457 . S
C54 H59 0.929 . S
C55 C54 1.457 . S
C55 C56 1.291 . S
C55 H68 0.931 . S
C56 C55 1.291 . S
C56 C57 1.373 . S
C56 H69 0.929 . S
C57 C56 1.373 . S
C57 C58 1.396 . S
C57 C64 1.403 . S
C58 C48 1.476 . S
C58 N53 1.318 . S
C58 C57 1.396 . S
H59 C54 0.929 . S
O60 Mn36 2.385 1_565 S
O60 C38 1.234 . S
O61 Mn36 2.209 1_565 S
O61 Mn37 2.215 . S
O61 C38 1.283 . S
O62 Mn36 2.094 . S
O62 C40 1.240 . S
O63 Mn37 2.117 . S
O63 C40 1.264 1_565 S
C64 C57 1.403 . S
C64 C65 1.399 . S
C64 H70 0.929 . S
C65 C45 1.449 . S
C65 C64 1.399 . S
C65 H71 0.930 . S
H66 C46 0.931 . S
H67 C47 0.930 . S
H68 C55 0.931 . S
H69 C56 0.929 . S
H70 C64 0.929 . S
H71 C65 0.930 . S
Mn72 O77 2.095 . S
Mn72 O87 2.162 . S
Mn72 O88 2.297 . S
Mn72 O96 2.385 . S
Mn72 O97 2.209 . S
Mn72 O98 2.094 . S
Mn73 O78 2.121 . S
Mn73 N80 2.257 . S
Mn73 N89 2.282 . S
Mn73 O97 2.215 . S
Mn73 O99 2.117 . S
C74 O96 1.234 . S
C74 O97 1.283 . S
C75 O87 1.281 . S
C75 O88 1.236 . S
C76 O98 1.240 . S
C76 O99 1.264 . S
O77 Mn72 2.095 . S
O77 C86 1.250 . S
O78 Mn73 2.121 . S
O78 C86 1.258 . S
C79 N80 1.326 . S
C79 C83 1.460 . S
C79 H85 0.929 . S
N80 Mn73 2.257 . S
N80 C79 1.326 . S
N80 C84 1.362 . S
C81 C82 1.258 . S
C81 C84 1.431 . S
C81 C101 1.449 . S
C82 C81 1.258 . S
C82 C83 1.477 . S
C82 H102 0.931 . S
C83 C79 1.460 . S
C83 C82 1.477 . S
C83 H103 0.930 1_554 S
C84 N80 1.362 . S
C84 C81 1.431 . S
C84 C94 1.476 . S
H85 C79 0.929 . S
C86 O77 1.250 . S
C86 O78 1.258 . S
O87 Mn72 2.162 . S
O87 C75 1.281 . S
O88 Mn72 2.297 . S
O88 C75 1.236 . S
N89 Mn73 2.282 . S
N89 C90 1.328 . S
N89 C94 1.318 . S
C90 N89 1.328 . S
C90 C91 1.457 . S
C90 H95 0.929 . S
C91 C90 1.457 . S
C91 C92 1.291 . S
C91 H104 0.931 . S
C92 C91 1.291 . S
C92 C93 1.373 . S
C92 H105 0.929 . S
C93 C92 1.373 . S
C93 C94 1.396 . S
C93 C100 1.403 . S
C94 C84 1.476 . S
C94 N89 1.318 . S
C94 C93 1.396 . S
H95 C90 0.929 . S
O96 Mn72 2.385 . S
O96 C74 1.234 . S
O97 Mn72 2.209 . S
O97 Mn73 2.215 . S
O97 C74 1.283 . S
O98 Mn72 2.094 . S
O98 C76 1.240 . S
O99 Mn73 2.117 . S
O99 C76 1.264 . S
C100 C93 1.403 . S
C100 C101 1.399 . S
C100 H106 0.929 . S
C101 C81 1.449 . S
C101 C100 1.399 . S
C101 H107 0.930 . S
H102 C82 0.931 . S
H103 C83 0.930 1_556 S
H104 C91 0.931 . S
H105 C92 0.929 . S
H106 C100 0.929 . S
H107 C101 0.930 . S
Mn108 O113 2.095 . S
Mn108 O123 2.162 . S
Mn108 O124 2.297 . S
Mn108 O132 2.385 . S
Mn108 O133 2.209 . S
Mn108 O134 2.094 . S
Mn109 O114 2.121 . S
Mn109 N116 2.257 . S
Mn109 N125 2.282 . S
Mn109 O133 2.215 . S
Mn109 O135 2.117 . S
C110 O132 1.234 . S
C110 O133 1.283 . S
C111 O123 1.281 . S
C111 O124 1.236 . S
C112 O134 1.240 . S
C112 O135 1.264 . S
O113 Mn108 2.095 . S
O113 C122 1.250 . S
O114 Mn109 2.121 . S
O114 C122 1.258 . S
C115 N116 1.326 . S
C115 C119 1.460 . S
C115 H121 0.929 . S
N116 Mn109 2.257 . S
N116 C115 1.326 . S
N116 C120 1.362 . S
C117 C118 1.258 . S
C117 C120 1.431 . S
C117 C137 1.449 . S
C118 C117 1.258 . S
C118 C119 1.477 . S
C118 H138 0.931 . S
C119 C115 1.460 . S
C119 C118 1.477 . S
C119 H139 0.930 . S
C120 N116 1.362 . S
C120 C117 1.431 . S
C120 C130 1.476 . S
H121 C115 0.929 . S
C122 O113 1.250 . S
C122 O114 1.258 . S
O123 Mn108 2.162 . S
O123 C111 1.281 . S
O124 Mn108 2.297 . S
O124 C111 1.236 . S
N125 Mn109 2.282 . S
N125 C126 1.328 . S
N125 C130 1.318 . S
C126 N125 1.328 . S
C126 C127 1.457 . S
C126 H131 0.929 . S
C127 C126 1.457 . S
C127 C128 1.291 . S
C127 H140 0.931 . S
C128 C127 1.291 . S
C128 C129 1.373 . S
C128 H141 0.929 . S
C129 C128 1.373 . S
C129 C130 1.396 . S
C129 C136 1.403 . S
C130 C120 1.476 . S
C130 N125 1.318 . S
C130 C129 1.396 . S
H131 C126 0.929 . S
O132 Mn108 2.385 . S
O132 C110 1.234 . S
O133 Mn108 2.209 . S
O133 Mn109 2.215 . S
O133 C110 1.283 . S
O134 Mn108 2.094 . S
O134 C112 1.240 . S
O135 Mn109 2.117 . S
O135 C112 1.264 . S
C136 C129 1.403 . S
C136 C137 1.399 . S
C136 H142 0.929 . S
C137 C117 1.449 . S
C137 C136 1.399 . S
C137 H143 0.930 . S
H138 C118 0.931 . S
H139 C119 0.930 . S
H140 C127 0.931 . S
H141 C128 0.929 . S
H142 C136 0.929 . S
H143 C137 0.930 . S
Mn144 O149 2.095 . S
Mn144 O159 2.162 . S
Mn144 O160 2.297 . S
Mn144 O168 2.385 1_455 S
Mn144 O169 2.209 1_455 S
Mn144 O170 2.094 . S
Mn145 O150 2.121 1_655 S
Mn145 N152 2.257 . S
Mn145 N161 2.282 . S
Mn145 O169 2.215 . S
Mn145 O171 2.117 . S
C146 O168 1.234 . S
C146 O169 1.283 . S
C147 O159 1.281 . S
C147 O160 1.236 . S
C148 O170 1.240 . S
C148 O171 1.264 1_455 S
O149 Mn144 2.095 . S
O149 C158 1.250 . S
O150 Mn145 2.121 1_455 S
O150 C158 1.258 . S
C151 N152 1.326 . S
C151 C155 1.460 . S
C151 H157 0.929 . S
N152 Mn145 2.257 . S
N152 C151 1.326 . S
N152 C156 1.362 . S
C153 C154 1.258 . S
C153 C156 1.431 . S
C153 C173 1.449 . S
C154 C153 1.258 . S
C154 C155 1.477 . S
C154 H174 0.931 . S
C155 C151 1.460 . S
C155 C154 1.477 . S
C155 H175 0.930 1_556 S
C156 N152 1.362 . S
C156 C153 1.431 . S
C156 C166 1.476 . S
H157 C151 0.929 . S
C158 O149 1.250 . S
C158 O150 1.258 . S
O159 Mn144 2.162 . S
O159 C147 1.281 . S
O160 Mn144 2.297 . S
O160 C147 1.236 . S
N161 Mn145 2.282 . S
N161 C162 1.328 . S
N161 C166 1.318 . S
C162 N161 1.328 . S
C162 C163 1.457 . S
C162 H167 0.929 . S
C163 C162 1.457 . S
C163 C164 1.291 . S
C163 H176 0.931 . S
C164 C163 1.291 . S
C164 C165 1.373 . S
C164 H177 0.929 . S
C165 C164 1.373 . S
C165 C166 1.396 . S
C165 C172 1.403 . S
C166 C156 1.476 . S
C166 N161 1.318 . S
C166 C165 1.396 . S
H167 C162 0.929 . S
O168 Mn144 2.385 1_655 S
O168 C146 1.234 . S
O169 Mn144 2.209 1_655 S
O169 Mn145 2.215 . S
O169 C146 1.283 . S
O170 Mn144 2.094 . S
O170 C148 1.240 . S
O171 Mn145 2.117 . S
O171 C148 1.264 1_655 S
C172 C165 1.403 . S
C172 C173 1.399 . S
C172 H178 0.929 . S
C173 C153 1.449 . S
C173 C172 1.399 . S
C173 H179 0.930 . S
H174 C154 0.931 . S
H175 C155 0.930 1_554 S
H176 C163 0.931 . S
H177 C164 0.929 . S
H178 C172 0.929 . S
H179 C173 0.930 . S
Mn180 O185 2.095 . S
Mn180 O195 2.162 . S
Mn180 O196 2.297 . S
Mn180 O204 2.385 1_545 S
Mn180 O205 2.209 1_545 S
Mn180 O206 2.094 . S
Mn181 O186 2.121 1_565 S
Mn181 N188 2.257 . S
Mn181 N197 2.282 . S
Mn181 O205 2.215 . S
Mn181 O207 2.117 . S
C182 O204 1.234 . S
C182 O205 1.283 . S
C183 O195 1.281 . S
C183 O196 1.236 . S
C184 O206 1.240 . S
C184 O207 1.264 1_545 S
O185 Mn180 2.095 . S
O185 C194 1.250 . S
O186 Mn181 2.121 1_545 S
O186 C194 1.258 . S
C187 N188 1.326 . S
C187 C191 1.460 . S
C187 H193 0.929 . S
N188 Mn181 2.257 . S
N188 C187 1.326 . S
N188 C192 1.362 . S
C189 C190 1.258 . S
C189 C192 1.431 . S
C189 C209 1.449 . S
C190 C189 1.258 . S
C190 C191 1.477 . S
C190 H210 0.931 . S
C191 C187 1.460 . S
C191 C190 1.477 . S
C191 H211 0.930 . S
C192 N188 1.362 . S
C192 C189 1.431 . S
C192 C202 1.476 . S
H193 C187 0.929 . S
C194 O185 1.250 . S
C194 O186 1.258 . S
O195 Mn180 2.162 . S
O195 C183 1.281 . S
O196 Mn180 2.297 . S
O196 C183 1.236 . S
N197 Mn181 2.282 . S
N197 C198 1.328 . S
N197 C202 1.318 . S
C198 N197 1.328 . S
C198 C199 1.457 . S
C198 H203 0.929 . S
C199 C198 1.457 . S
C199 C200 1.291 . S
C199 H212 0.931 . S
C200 C199 1.291 . S
C200 C201 1.373 . S
C200 H213 0.929 . S
C201 C200 1.373 . S
C201 C202 1.396 . S
C201 C208 1.403 . S
C202 C192 1.476 . S
C202 N197 1.318 . S
C202 C201 1.396 . S
H203 C198 0.929 . S
O204 Mn180 2.385 1_565 S
O204 C182 1.234 . S
O205 Mn180 2.209 1_565 S
O205 Mn181 2.215 . S
O205 C182 1.283 . S
O206 Mn180 2.094 . S
O206 C184 1.240 . S
O207 Mn181 2.117 . S
O207 C184 1.264 1_565 S
C208 C201 1.403 . S
C208 C209 1.399 . S
C208 H214 0.929 . S
C209 C189 1.449 . S
C209 C208 1.399 . S
C209 H215 0.930 . S
H210 C190 0.931 . S
H211 C191 0.930 . S
H212 C199 0.931 . S
H213 C200 0.929 . S
H214 C208 0.929 . S
H215 C209 0.930 . S
Mn216 O221 2.095 . S
Mn216 O231 2.162 . S
Mn216 O232 2.297 . S
Mn216 O240 2.385 . S
Mn216 O241 2.209 . S
Mn216 O242 2.094 . S
Mn217 O222 2.121 . S
Mn217 N224 2.257 . S
Mn217 N233 2.282 . S
Mn217 O241 2.215 . S
Mn217 O243 2.117 . S
C218 O240 1.234 . S
C218 O241 1.283 . S
C219 O231 1.281 . S
C219 O232 1.236 . S
C220 O242 1.240 . S
C220 O243 1.264 . S
O221 Mn216 2.095 . S
O221 C230 1.250 . S
O222 Mn217 2.121 . S
O222 C230 1.258 . S
C223 N224 1.326 . S
C223 C227 1.460 . S
C223 H229 0.929 . S
N224 Mn217 2.257 . S
N224 C223 1.326 . S
N224 C228 1.362 . S
C225 C226 1.258 . S
C225 C228 1.431 . S
C225 C245 1.449 . S
C226 C225 1.258 . S
C226 C227 1.477 . S
C226 H246 0.931 . S
C227 C223 1.460 . S
C227 C226 1.477 . S
C227 H247 0.930 1_556 S
C228 N224 1.362 . S
C228 C225 1.431 . S
C228 C238 1.476 . S
H229 C223 0.929 . S
C230 O221 1.250 . S
C230 O222 1.258 . S
O231 Mn216 2.162 . S
O231 C219 1.281 . S
O232 Mn216 2.297 . S
O232 C219 1.236 . S
N233 Mn217 2.282 . S
N233 C234 1.328 . S
N233 C238 1.318 . S
C234 N233 1.328 . S
C234 C235 1.457 . S
C234 H239 0.929 . S
C235 C234 1.457 . S
C235 C236 1.291 . S
C235 H248 0.931 . S
C236 C235 1.291 . S
C236 C237 1.373 . S
C236 H249 0.929 . S
C237 C236 1.373 . S
C237 C238 1.396 . S
C237 C244 1.403 . S
C238 C228 1.476 . S
C238 N233 1.318 . S
C238 C237 1.396 . S
H239 C234 0.929 . S
O240 Mn216 2.385 . S
O240 C218 1.234 . S
O241 Mn216 2.209 . S
O241 Mn217 2.215 . S
O241 C218 1.283 . S
O242 Mn216 2.094 . S
O242 C220 1.240 . S
O243 Mn217 2.117 . S
O243 C220 1.264 . S
C244 C237 1.403 . S
C244 C245 1.399 . S
C244 H250 0.929 . S
C245 C225 1.449 . S
C245 C244 1.399 . S
C245 H251 0.930 . S
H246 C226 0.931 . S
H247 C227 0.930 1_554 S
H248 C235 0.931 . S
H249 C236 0.929 . S
H250 C244 0.929 . S
H251 C245 0.930 . S
Mn252 O257 2.095 . S
Mn252 O267 2.162 . S
Mn252 O268 2.297 . S
Mn252 O276 2.385 . S
Mn252 O277 2.209 . S
Mn252 O278 2.094 . S
Mn253 O258 2.121 . S
Mn253 N260 2.257 . S
Mn253 N269 2.282 . S
Mn253 O277 2.215 . S
Mn253 O279 2.117 . S
C254 O276 1.234 . S
C254 O277 1.283 . S
C255 O267 1.281 . S
C255 O268 1.236 . S
C256 O278 1.240 . S
C256 O279 1.264 . S
O257 Mn252 2.095 . S
O257 C266 1.250 . S
O258 Mn253 2.121 . S
O258 C266 1.258 . S
C259 N260 1.326 . S
C259 C263 1.460 . S
C259 H265 0.929 . S
N260 Mn253 2.257 . S
N260 C259 1.326 . S
N260 C264 1.362 . S
C261 C262 1.258 . S
C261 C264 1.431 . S
C261 C281 1.449 . S
C262 C261 1.258 . S
C262 C263 1.477 . S
C262 H282 0.931 . S
C263 C259 1.460 . S
C263 C262 1.477 . S
C263 H283 0.930 . S
C264 N260 1.362 . S
C264 C261 1.431 . S
C264 C274 1.476 . S
H265 C259 0.929 . S
C266 O257 1.250 . S
C266 O258 1.258 . S
O267 Mn252 2.162 . S
O267 C255 1.281 . S
O268 Mn252 2.297 . S
O268 C255 1.236 . S
N269 Mn253 2.282 . S
N269 C270 1.328 . S
N269 C274 1.318 . S
C270 N269 1.328 . S
C270 C271 1.457 . S
C270 H275 0.929 . S
C271 C270 1.457 . S
C271 C272 1.291 . S
C271 H284 0.931 . S
C272 C271 1.291 . S
C272 C273 1.373 . S
C272 H285 0.929 . S
C273 C272 1.373 . S
C273 C274 1.396 . S
C273 C280 1.403 . S
C274 C264 1.476 . S
C274 N269 1.318 . S
C274 C273 1.396 . S
H275 C270 0.929 . S
O276 Mn252 2.385 . S
O276 C254 1.234 . S
O277 Mn252 2.209 . S
O277 Mn253 2.215 . S
O277 C254 1.283 . S
O278 Mn252 2.094 . S
O278 C256 1.240 . S
O279 Mn253 2.117 . S
O279 C256 1.264 . S
C280 C273 1.403 . S
C280 C281 1.399 . S
C280 H286 0.929 . S
C281 C261 1.449 . S
C281 C280 1.399 . S
C281 H287 0.930 . S
H282 C262 0.931 . S
H283 C263 0.930 . S
H284 C271 0.931 . S
H285 C272 0.929 . S
H286 C280 0.929 . S
H287 C281 0.930 . S
Mn288 O293 2.095 . S
Mn288 O303 2.162 . S
Mn288 O304 2.297 . S
Mn288 O312 2.385 1_655 S
Mn288 O313 2.209 1_655 S
Mn288 O314 2.094 . S
Mn289 O294 2.121 1_455 S
Mn289 N296 2.257 . S
Mn289 N305 2.282 . S
Mn289 O313 2.215 . S
Mn289 O315 2.117 . S
C290 O312 1.234 . S
C290 O313 1.283 . S
C291 O303 1.281 . S
C291 O304 1.236 . S
C292 O314 1.240 . S
C292 O315 1.264 1_655 S
O293 Mn288 2.095 . S
O293 C302 1.250 . S
O294 Mn289 2.121 1_655 S
O294 C302 1.258 . S
C295 N296 1.326 . S
C295 C299 1.460 . S
C295 H301 0.929 . S
N296 Mn289 2.257 . S
N296 C295 1.326 . S
N296 C300 1.362 . S
C297 C298 1.258 . S
C297 C300 1.431 . S
C297 C317 1.449 . S
C298 C297 1.258 . S
C298 C299 1.477 . S
C298 H318 0.931 . S
C299 C295 1.460 . S
C299 C298 1.477 . S
C299 H319 0.930 1_556 S
C300 N296 1.362 . S
C300 C297 1.431 . S
C300 C310 1.476 . S
H301 C295 0.929 . S
C302 O293 1.250 . S
C302 O294 1.258 . S
O303 Mn288 2.162 . S
O303 C291 1.281 . S
O304 Mn288 2.297 . S
O304 C291 1.236 . S
N305 Mn289 2.282 . S
N305 C306 1.328 . S
N305 C310 1.318 . S
C306 N305 1.328 . S
C306 C307 1.457 . S
C306 H311 0.929 . S
C307 C306 1.457 . S
C307 C308 1.291 . S
C307 H320 0.931 . S
C308 C307 1.291 . S
C308 C309 1.373 . S
C308 H321 0.929 . S
C309 C308 1.373 . S
C309 C310 1.396 . S
C309 C316 1.403 . S
C310 C300 1.476 . S
C310 N305 1.318 . S
C310 C309 1.396 . S
H311 C306 0.929 . S
O312 Mn288 2.385 1_455 S
O312 C290 1.234 . S
O313 Mn288 2.209 1_455 S
O313 Mn289 2.215 . S
O313 C290 1.283 . S
O314 Mn288 2.094 . S
O314 C292 1.240 . S
O315 Mn289 2.117 . S
O315 C292 1.264 1_455 S
C316 C309 1.403 . S
C316 C317 1.399 . S
C316 H322 0.929 . S
C317 C297 1.449 . S
C317 C316 1.399 . S
C317 H323 0.930 . S
H318 C298 0.931 . S
H319 C299 0.930 1_554 S
H320 C307 0.931 . S
H321 C308 0.929 . S
H322 C316 0.929 . S
H323 C317 0.930 . S
Mn324 O329 2.095 . S
Mn324 O339 2.162 . S
Mn324 O340 2.297 . S
Mn324 O348 2.385 1_565 S
Mn324 O349 2.209 1_565 S
Mn324 O350 2.094 . S
Mn325 O330 2.121 1_545 S
Mn325 N332 2.257 . S
Mn325 N341 2.282 . S
Mn325 O349 2.215 . S
Mn325 O351 2.117 . S
C326 O348 1.234 . S
C326 O349 1.283 . S
C327 O339 1.281 . S
C327 O340 1.236 . S
C328 O350 1.240 . S
C328 O351 1.264 1_565 S
O329 Mn324 2.095 . S
O329 C338 1.250 . S
O330 Mn325 2.121 1_565 S
O330 C338 1.258 . S
C331 N332 1.326 . S
C331 C335 1.460 . S
C331 H337 0.929 . S
N332 Mn325 2.257 . S
N332 C331 1.326 . S
N332 C336 1.362 . S
C333 C334 1.258 . S
C333 C336 1.431 . S
C333 C353 1.449 . S
C334 C333 1.258 . S
C334 C335 1.477 . S
C334 H354 0.931 . S
C335 C331 1.460 . S
C335 C334 1.477 . S
C335 H355 0.930 . S
C336 N332 1.362 . S
C336 C333 1.431 . S
C336 C346 1.476 . S
H337 C331 0.929 . S
C338 O329 1.250 . S
C338 O330 1.258 . S
O339 Mn324 2.162 . S
O339 C327 1.281 . S
O340 Mn324 2.297 . S
O340 C327 1.236 . S
N341 Mn325 2.282 . S
N341 C342 1.328 . S
N341 C346 1.318 . S
C342 N341 1.328 . S
C342 C343 1.457 . S
C342 H347 0.929 . S
C343 C342 1.457 . S
C343 C344 1.291 . S
C343 H356 0.931 . S
C344 C343 1.291 . S
C344 C345 1.373 . S
C344 H357 0.929 . S
C345 C344 1.373 . S
C345 C346 1.396 . S
C345 C352 1.403 . S
C346 C336 1.476 . S
C346 N341 1.318 . S
C346 C345 1.396 . S
H347 C342 0.929 . S
O348 Mn324 2.385 1_545 S
O348 C326 1.234 . S
O349 Mn324 2.209 1_545 S
O349 Mn325 2.215 . S
O349 C326 1.283 . S
O350 Mn324 2.094 . S
O350 C328 1.240 . S
O351 Mn325 2.117 . S
O351 C328 1.264 1_545 S
C352 C345 1.403 . S
C352 C353 1.399 . S
C352 H358 0.929 . S
C353 C333 1.449 . S
C353 C352 1.399 . S
C353 H359 0.930 . S
H354 C334 0.931 . S
H355 C335 0.930 . S
H356 C343 0.931 . S
H357 C344 0.929 . S
H358 C352 0.929 . S
H359 C353 0.930 . S
Mn360 O365 2.095 . S
Mn360 O375 2.162 . S
Mn360 O376 2.297 . S
Mn360 O384 2.385 . S
Mn360 O385 2.209 . S
Mn360 O386 2.094 . S
Mn361 O366 2.121 . S
Mn361 N368 2.257 . S
Mn361 N377 2.282 . S
Mn361 O385 2.215 . S
Mn361 O387 2.117 . S
C362 O384 1.234 . S
C362 O385 1.283 . S
C363 O375 1.281 . S
C363 O376 1.236 . S
C364 O386 1.240 . S
C364 O387 1.264 . S
O365 Mn360 2.095 . S
O365 C374 1.250 . S
O366 Mn361 2.121 . S
O366 C374 1.258 . S
C367 N368 1.326 . S
C367 C371 1.460 . S
C367 H373 0.929 . S
N368 Mn361 2.257 . S
N368 C367 1.326 . S
N368 C372 1.362 . S
C369 C370 1.258 . S
C369 C372 1.431 . S
C369 C389 1.449 . S
C370 C369 1.258 . S
C370 C371 1.477 . S
C370 H390 0.931 . S
C371 C367 1.460 . S
C371 C370 1.477 . S
C371 H391 0.930 1_556 S
C372 N368 1.362 . S
C372 C369 1.431 . S
C372 C382 1.476 . S
H373 C367 0.929 . S
C374 O365 1.250 . S
C374 O366 1.258 . S
O375 Mn360 2.162 . S
O375 C363 1.281 . S
O376 Mn360 2.297 . S
O376 C363 1.236 . S
N377 Mn361 2.282 . S
N377 C378 1.328 . S
N377 C382 1.318 . S
C378 N377 1.328 . S
C378 C379 1.457 . S
C378 H383 0.929 . S
C379 C378 1.457 . S
C379 C380 1.291 . S
C379 H392 0.931 . S
C380 C379 1.291 . S
C380 C381 1.373 . S
C380 H393 0.929 . S
C381 C380 1.373 . S
C381 C382 1.396 . S
C381 C388 1.403 . S
C382 C372 1.476 . S
C382 N377 1.318 . S
C382 C381 1.396 . S
H383 C378 0.929 . S
O384 Mn360 2.385 . S
O384 C362 1.234 . S
O385 Mn360 2.209 . S
O385 Mn361 2.215 . S
O385 C362 1.283 . S
O386 Mn360 2.094 . S
O386 C364 1.240 . S
O387 Mn361 2.117 . S
O387 C364 1.264 . S
C388 C381 1.403 . S
C388 C389 1.399 . S
C388 H394 0.929 . S
C389 C369 1.449 . S
C389 C388 1.399 . S
C389 H395 0.930 . S
H390 C370 0.931 . S
H391 C371 0.930 1_554 S
H392 C379 0.931 . S
H393 C380 0.929 . S
H394 C388 0.929 . S
H395 C389 0.930 . S
Mn396 O401 2.095 . S
Mn396 O411 2.162 . S
Mn396 O412 2.297 . S
Mn396 O420 2.385 . S
Mn396 O421 2.209 . S
Mn396 O422 2.094 . S
Mn397 O402 2.121 . S
Mn397 N404 2.257 . S
Mn397 N413 2.282 . S
Mn397 O421 2.215 . S
Mn397 O423 2.117 . S
C398 O420 1.234 . S
C398 O421 1.283 . S
C399 O411 1.281 . S
C399 O412 1.236 . S
C400 O422 1.240 . S
C400 O423 1.264 . S
O401 Mn396 2.095 . S
O401 C410 1.250 . S
O402 Mn397 2.121 . S
O402 C410 1.258 . S
C403 N404 1.326 . S
C403 C407 1.460 . S
C403 H409 0.929 . S
N404 Mn397 2.257 . S
N404 C403 1.326 . S
N404 C408 1.362 . S
C405 C406 1.258 . S
C405 C408 1.431 . S
C405 C425 1.449 . S
C406 C405 1.258 . S
C406 C407 1.477 . S
C406 H426 0.931 . S
C407 C403 1.460 . S
C407 C406 1.477 . S
C407 H427 0.930 . S
C408 N404 1.362 . S
C408 C405 1.431 . S
C408 C418 1.476 . S
H409 C403 0.929 . S
C410 O401 1.250 . S
C410 O402 1.258 . S
O411 Mn396 2.162 . S
O411 C399 1.281 . S
O412 Mn396 2.297 . S
O412 C399 1.236 . S
N413 Mn397 2.282 . S
N413 C414 1.328 . S
N413 C418 1.318 . S
C414 N413 1.328 . S
C414 C415 1.457 . S
C414 H419 0.929 . S
C415 C414 1.457 . S
C415 C416 1.291 . S
C415 H428 0.931 . S
C416 C415 1.291 . S
C416 C417 1.373 . S
C416 H429 0.929 . S
C417 C416 1.373 . S
C417 C418 1.396 . S
C417 C424 1.403 . S
C418 C408 1.476 . S
C418 N413 1.318 . S
C418 C417 1.396 . S
H419 C414 0.929 . S
O420 Mn396 2.385 . S
O420 C398 1.234 . S
O421 Mn396 2.209 . S
O421 Mn397 2.215 . S
O421 C398 1.283 . S
O422 Mn396 2.094 . S
O422 C400 1.240 . S
O423 Mn397 2.117 . S
O423 C400 1.264 . S
C424 C417 1.403 . S
C424 C425 1.399 . S
C424 H430 0.929 . S
C425 C405 1.449 . S
C425 C424 1.399 . S
C425 H431 0.930 . S
H426 C406 0.931 . S
H427 C407 0.930 . S
H428 C415 0.931 . S
H429 C416 0.929 . S
H430 C424 0.929 . S
H431 C425 0.930 . S
Mn432 O437 2.095 . S
Mn432 O447 2.162 . S
Mn432 O448 2.297 . S
Mn432 O456 2.385 1_655 S
Mn432 O457 2.209 1_655 S
Mn432 O458 2.094 . S
Mn433 O438 2.121 1_455 S
Mn433 N440 2.257 . S
Mn433 N449 2.282 . S
Mn433 O457 2.215 . S
Mn433 O459 2.117 . S
C434 O456 1.234 . S
C434 O457 1.283 . S
C435 O447 1.281 . S
C435 O448 1.236 . S
C436 O458 1.240 . S
C436 O459 1.264 1_655 S
O437 Mn432 2.095 . S
O437 C446 1.250 . S
O438 Mn433 2.121 1_655 S
O438 C446 1.258 . S
C439 N440 1.326 . S
C439 C443 1.460 . S
C439 H445 0.929 . S
N440 Mn433 2.257 . S
N440 C439 1.326 . S
N440 C444 1.362 . S
C441 C442 1.258 . S
C441 C444 1.431 . S
C441 C461 1.449 . S
C442 C441 1.258 . S
C442 C443 1.477 . S
C442 H462 0.931 . S
C443 C439 1.460 . S
C443 C442 1.477 . S
C443 H463 0.930 1_554 S
C444 N440 1.362 . S
C444 C441 1.431 . S
C444 C454 1.476 . S
H445 C439 0.929 . S
C446 O437 1.250 . S
C446 O438 1.258 . S
O447 Mn432 2.162 . S
O447 C435 1.281 . S
O448 Mn432 2.297 . S
O448 C435 1.236 . S
N449 Mn433 2.282 . S
N449 C450 1.328 . S
N449 C454 1.318 . S
C450 N449 1.328 . S
C450 C451 1.457 . S
C450 H455 0.929 . S
C451 C450 1.457 . S
C451 C452 1.291 . S
C451 H464 0.931 . S
C452 C451 1.291 . S
C452 C453 1.373 . S
C452 H465 0.929 . S
C453 C452 1.373 . S
C453 C454 1.396 . S
C453 C460 1.403 . S
C454 C444 1.476 . S
C454 N449 1.318 . S
C454 C453 1.396 . S
H455 C450 0.929 . S
O456 Mn432 2.385 1_455 S
O456 C434 1.234 . S
O457 Mn432 2.209 1_455 S
O457 Mn433 2.215 . S
O457 C434 1.283 . S
O458 Mn432 2.094 . S
O458 C436 1.240 . S
O459 Mn433 2.117 . S
O459 C436 1.264 1_455 S
C460 C453 1.403 . S
C460 C461 1.399 . S
C460 H466 0.929 . S
C461 C441 1.449 . S
C461 C460 1.399 . S
C461 H467 0.930 . S
H462 C442 0.931 . S
H463 C443 0.930 1_556 S
H464 C451 0.931 . S
H465 C452 0.929 . S
H466 C460 0.929 . S
H467 C461 0.930 . S
Mn468 O473 2.095 . S
Mn468 O483 2.162 . S
Mn468 O484 2.297 . S
Mn468 O492 2.385 1_565 S
Mn468 O493 2.209 1_565 S
Mn468 O494 2.094 . S
Mn469 O474 2.121 1_545 S
Mn469 N476 2.257 . S
Mn469 N485 2.282 . S
Mn469 O493 2.215 . S
Mn469 O495 2.117 . S
C470 O492 1.234 . S
C470 O493 1.283 . S
C471 O483 1.281 . S
C471 O484 1.236 . S
C472 O494 1.240 . S
C472 O495 1.264 1_565 S
O473 Mn468 2.095 . S
O473 C482 1.250 . S
O474 Mn469 2.121 1_565 S
O474 C482 1.258 . S
C475 N476 1.326 . S
C475 C479 1.460 . S
C475 H481 0.929 . S
N476 Mn469 2.257 . S
N476 C475 1.326 . S
N476 C480 1.362 . S
C477 C478 1.258 . S
C477 C480 1.431 . S
C477 C497 1.449 . S
C478 C477 1.258 . S
C478 C479 1.477 . S
C478 H498 0.931 . S
C479 C475 1.460 . S
C479 C478 1.477 . S
C479 H499 0.930 . S
C480 N476 1.362 . S
C480 C477 1.431 . S
C480 C490 1.476 . S
H481 C475 0.929 . S
C482 O473 1.250 . S
C482 O474 1.258 . S
O483 Mn468 2.162 . S
O483 C471 1.281 . S
O484 Mn468 2.297 . S
O484 C471 1.236 . S
N485 Mn469 2.282 . S
N485 C486 1.328 . S
N485 C490 1.318 . S
C486 N485 1.328 . S
C486 C487 1.457 . S
C486 H491 0.929 . S
C487 C486 1.457 . S
C487 C488 1.291 . S
C487 H500 0.931 . S
C488 C487 1.291 . S
C488 C489 1.373 . S
C488 H501 0.929 . S
C489 C488 1.373 . S
C489 C490 1.396 . S
C489 C496 1.403 . S
C490 C480 1.476 . S
C490 N485 1.318 . S
C490 C489 1.396 . S
H491 C486 0.929 . S
O492 Mn468 2.385 1_545 S
O492 C470 1.234 . S
O493 Mn468 2.209 1_545 S
O493 Mn469 2.215 . S
O493 C470 1.283 . S
O494 Mn468 2.094 . S
O494 C472 1.240 . S
O495 Mn469 2.117 . S
O495 C472 1.264 1_545 S
C496 C489 1.403 . S
C496 C497 1.399 . S
C496 H502 0.929 . S
C497 C477 1.449 . S
C497 C496 1.399 . S
C497 H503 0.930 . S
H498 C478 0.931 . S
H499 C479 0.930 . S
H500 C487 0.931 . S
H501 C488 0.929 . S
H502 C496 0.929 . S
H503 C497 0.930 . S
Mn504 O509 2.095 . S
Mn504 O519 2.162 . S
Mn504 O520 2.297 . S
Mn504 O528 2.385 . S
Mn504 O529 2.209 . S
Mn504 O530 2.094 . S
Mn505 O510 2.121 . S
Mn505 N512 2.257 . S
Mn505 N521 2.282 . S
Mn505 O529 2.215 . S
Mn505 O531 2.117 . S
C506 O528 1.234 . S
C506 O529 1.283 . S
C507 O519 1.281 . S
C507 O520 1.236 . S
C508 O530 1.240 . S
C508 O531 1.264 . S
O509 Mn504 2.095 . S
O509 C518 1.250 . S
O510 Mn505 2.121 . S
O510 C518 1.258 . S
C511 N512 1.326 . S
C511 C515 1.460 . S
C511 H517 0.929 . S
N512 Mn505 2.257 . S
N512 C511 1.326 . S
N512 C516 1.362 . S
C513 C514 1.258 . S
C513 C516 1.431 . S
C513 C533 1.449 . S
C514 C513 1.258 . S
C514 C515 1.477 . S
C514 H534 0.931 . S
C515 C511 1.460 . S
C515 C514 1.477 . S
C515 H535 0.930 1_554 S
C516 N512 1.362 . S
C516 C513 1.431 . S
C516 C526 1.476 . S
H517 C511 0.929 . S
C518 O509 1.250 . S
C518 O510 1.258 . S
O519 Mn504 2.162 . S
O519 C507 1.281 . S
O520 Mn504 2.297 . S
O520 C507 1.236 . S
N521 Mn505 2.282 . S
N521 C522 1.328 . S
N521 C526 1.318 . S
C522 N521 1.328 . S
C522 C523 1.457 . S
C522 H527 0.929 . S
C523 C522 1.457 . S
C523 C524 1.291 . S
C523 H536 0.931 . S
C524 C523 1.291 . S
C524 C525 1.373 . S
C524 H537 0.929 . S
C525 C524 1.373 . S
C525 C526 1.396 . S
C525 C532 1.403 . S
C526 C516 1.476 . S
C526 N521 1.318 . S
C526 C525 1.396 . S
H527 C522 0.929 . S
O528 Mn504 2.385 . S
O528 C506 1.234 . S
O529 Mn504 2.209 . S
O529 Mn505 2.215 . S
O529 C506 1.283 . S
O530 Mn504 2.094 . S
O530 C508 1.240 . S
O531 Mn505 2.117 . S
O531 C508 1.264 . S
C532 C525 1.403 . S
C532 C533 1.399 . S
C532 H538 0.929 . S
C533 C513 1.449 . S
C533 C532 1.399 . S
C533 H539 0.930 . S
H534 C514 0.931 . S
H535 C515 0.930 1_556 S
H536 C523 0.931 . S
H537 C524 0.929 . S
H538 C532 0.929 . S
H539 C533 0.930 . S
Mn540 O545 2.095 . S
Mn540 O555 2.162 . S
Mn540 O556 2.297 . S
Mn540 O564 2.385 . S
Mn540 O565 2.209 . S
Mn540 O566 2.094 . S
Mn541 O546 2.121 . S
Mn541 N548 2.257 . S
Mn541 N557 2.282 . S
Mn541 O565 2.215 . S
Mn541 O567 2.117 . S
C542 O564 1.234 . S
C542 O565 1.283 . S
C543 O555 1.281 . S
C543 O556 1.236 . S
C544 O566 1.240 . S
C544 O567 1.264 . S
O545 Mn540 2.095 . S
O545 C554 1.250 . S
O546 Mn541 2.121 . S
O546 C554 1.258 . S
C547 N548 1.326 . S
C547 C551 1.460 . S
C547 H553 0.929 . S
N548 Mn541 2.257 . S
N548 C547 1.326 . S
N548 C552 1.362 . S
C549 C550 1.258 . S
C549 C552 1.431 . S
C549 C569 1.449 . S
C550 C549 1.258 . S
C550 C551 1.477 . S
C550 H570 0.931 . S
C551 C547 1.460 . S
C551 C550 1.477 . S
C551 H571 0.930 . S
C552 N548 1.362 . S
C552 C549 1.431 . S
C552 C562 1.476 . S
H553 C547 0.929 . S
C554 O545 1.250 . S
C554 O546 1.258 . S
O555 Mn540 2.162 . S
O555 C543 1.281 . S
O556 Mn540 2.297 . S
O556 C543 1.236 . S
N557 Mn541 2.282 . S
N557 C558 1.328 . S
N557 C562 1.318 . S
C558 N557 1.328 . S
C558 C559 1.457 . S
C558 H563 0.929 . S
C559 C558 1.457 . S
C559 C560 1.291 . S
C559 H572 0.931 . S
C560 C559 1.291 . S
C560 C561 1.373 . S
C560 H573 0.929 . S
C561 C560 1.373 . S
C561 C562 1.396 . S
C561 C568 1.403 . S
C562 C552 1.476 . S
C562 N557 1.318 . S
C562 C561 1.396 . S
H563 C558 0.929 . S
O564 Mn540 2.385 . S
O564 C542 1.234 . S
O565 Mn540 2.209 . S
O565 Mn541 2.215 . S
O565 C542 1.283 . S
O566 Mn540 2.094 . S
O566 C544 1.240 . S
O567 Mn541 2.117 . S
O567 C544 1.264 . S
C568 C561 1.403 . S
C568 C569 1.399 . S
C568 H574 0.929 . S
C569 C549 1.449 . S
C569 C568 1.399 . S
C569 H575 0.930 . S
H570 C550 0.931 . S
H571 C551 0.930 . S
H572 C559 0.931 . S
H573 C560 0.929 . S
H574 C568 0.929 . S
H575 C569 0.930 . S
H576 C594 0.951 . S
H577 C596 0.951 1_556 S
H578 C598 0.950 . S
H579 C599 0.950 . S
H580 C601 0.950 . S
H581 C604 0.950 . S
H582 C605 0.950 . S
H583 C607 0.950 . S
H584 C608 0.950 . S
H585 C609 0.951 . S
H586 C611 0.951 1_554 S
H587 C613 0.950 . S
H588 C614 0.950 . S
H589 C616 0.950 . S
H590 C619 0.950 . S
H591 C620 0.950 . S
H592 C622 0.950 . S
H593 C623 0.950 . S
C594 H576 0.951 . S
C594 C595 1.366 . S
C594 C596 1.388 . S
C595 C594 1.366 . S
C595 C599 1.385 . S
C596 H577 0.951 1_554 S
C596 C594 1.388 . S
C596 C597 1.366 . S
C597 C596 1.366 . S
C597 C598 1.414 . S
C597 C600 1.499 . S
C598 H578 0.950 . S
C598 C597 1.414 . S
C598 C599 1.374 . S
C599 H579 0.950 . S
C599 C595 1.385 . S
C599 C598 1.374 . S
C600 C597 1.499 . S
C600 C601 1.373 1_455 S
C600 C602 1.389 1_554 S
C601 H580 0.950 . S
C601 C600 1.373 1_655 S
C601 C617 1.377 . S
C602 C600 1.389 1_556 S
C602 C603 1.524 . S
C602 C616 1.377 . S
C603 C602 1.524 . S
C603 C604 1.397 1_556 S
C603 C608 1.363 . S
C604 H581 0.950 . S
C604 C603 1.397 1_554 S
C604 C605 1.334 . S
C605 H582 0.950 . S
C605 C604 1.334 . S
C605 C606 1.287 1_554 S
C606 C605 1.287 1_556 S
C606 C607 1.524 . S
C606 H625 0.913 . S
C607 H583 0.950 . S
C607 C606 1.524 . S
C607 C608 1.415 . S
C608 H584 0.950 . S
C608 C603 1.363 . S
C608 C607 1.415 . S
C609 H585 0.951 . S
C609 C610 1.366 . S
C609 C611 1.388 . S
C610 C609 1.366 . S
C610 C614 1.385 . S
C611 H586 0.951 1_556 S
C611 C609 1.388 . S
C611 C612 1.366 . S
C612 C611 1.366 . S
C612 C613 1.414 . S
C612 C615 1.499 . S
C613 H587 0.950 . S
C613 C612 1.414 . S
C613 C614 1.374 . S
C614 H588 0.950 . S
C614 C610 1.385 . S
C614 C613 1.374 . S
C615 C612 1.499 . S
C615 C616 1.373 . S
C615 C617 1.389 1_456 S
C616 H589 0.950 . S
C616 C602 1.377 . S
C616 C615 1.373 . S
C617 C601 1.377 . S
C617 C615 1.389 1_654 S
C617 C618 1.524 . S
C618 C617 1.524 . S
C618 C619 1.397 1_554 S
C618 C623 1.363 . S
C619 H590 0.950 . S
C619 C618 1.397 1_556 S
C619 C620 1.334 . S
C620 H591 0.950 . S
C620 C619 1.334 . S
C620 C621 1.287 1_556 S
C621 C620 1.287 1_554 S
C621 C622 1.524 . S
C621 H624 0.999 . S
C622 H592 0.950 . S
C622 C621 1.524 . S
C622 C623 1.415 . S
C623 H593 0.950 . S
C623 C618 1.363 . S
C623 C622 1.415 . S
H624 C621 0.999 . S
H625 C606 0.913 . S
H626 C644 0.951 . S
H627 C646 0.951 . S
H628 C648 0.950 . S
H629 C649 0.950 . S
H630 C651 0.950 . S
H631 C654 0.950 . S
H632 C655 0.950 . S
H633 C657 0.950 . S
H634 C658 0.950 . S
H635 C659 0.951 . S
H636 C661 0.951 . S
H637 C663 0.950 . S
H638 C664 0.950 . S
H639 C666 0.950 . S
H640 C669 0.950 . S
H641 C670 0.950 . S
H642 C672 0.950 . S
H643 C673 0.950 . S
C644 H626 0.951 . S
C644 C645 1.366 . S
C644 C646 1.388 . S
C645 C644 1.366 . S
C645 C649 1.385 1_545 S
C646 H627 0.951 . S
C646 C644 1.388 . S
C646 C647 1.366 . S
C647 C646 1.366 . S
C647 C648 1.414 1_545 S
C647 C650 1.499 . S
C648 H628 0.950 . S
C648 C647 1.414 1_565 S
C648 C649 1.374 . S
C649 H629 0.950 . S
C649 C645 1.385 1_565 S
C649 C648 1.374 . S
C650 C647 1.499 . S
C650 C651 1.373 1_545 S
C650 C652 1.389 . S
C651 H630 0.950 . S
C651 C650 1.373 1_565 S
C651 C667 1.377 . S
C652 C650 1.389 . S
C652 C653 1.524 . S
C652 C666 1.377 . S
C653 C652 1.524 . S
C653 C654 1.397 . S
C653 C658 1.363 . S
C654 H631 0.950 . S
C654 C653 1.397 . S
C654 C655 1.334 . S
C655 H632 0.950 . S
C655 C654 1.334 . S
C655 C656 1.287 . S
C656 C655 1.287 . S
C656 C657 1.524 . S
C656 H675 0.913 . S
C657 H633 0.950 . S
C657 C656 1.524 . S
C657 C658 1.415 . S
C658 H634 0.950 . S
C658 C653 1.363 . S
C658 C657 1.415 . S
C659 H635 0.951 . S
C659 C660 1.366 1_565 S
C659 C661 1.388 . S
C660 C659 1.366 1_545 S
C660 C664 1.385 . S
C661 H636 0.951 . S
C661 C659 1.388 . S
C661 C662 1.366 1_565 S
C662 C661 1.366 1_545 S
C662 C663 1.414 . S
C662 C665 1.499 . S
C663 H637 0.950 . S
C663 C662 1.414 . S
C663 C664 1.374 . S
C664 H638 0.950 . S
C664 C660 1.385 . S
C664 C663 1.374 . S
C665 C662 1.499 . S
C665 C666 1.373 . S
C665 C667 1.389 1_545 S
C666 H639 0.950 . S
C666 C652 1.377 . S
C666 C665 1.373 . S
C667 C651 1.377 . S
C667 C665 1.389 1_565 S
C667 C668 1.524 . S
C668 C667 1.524 . S
C668 C669 1.397 . S
C668 C673 1.363 . S
C669 H640 0.950 . S
C669 C668 1.397 . S
C669 C670 1.334 . S
C670 H641 0.950 . S
C670 C669 1.334 . S
C670 C671 1.287 . S
C671 C670 1.287 . S
C671 C672 1.524 . S
C671 H674 0.999 . S
C672 H642 0.950 . S
C672 C671 1.524 . S
C672 C673 1.415 . S
C673 H643 0.950 . S
C673 C668 1.363 . S
C673 C672 1.415 . S
H674 C671 0.999 . S
H675 C656 0.913 . S
H676 C694 0.951 . S
H677 C696 0.951 . S
H678 C698 0.950 . S
H679 C699 0.950 . S
H680 C701 0.950 . S
H681 C704 0.950 . S
H682 C705 0.950 . S
H683 C707 0.950 . S
H684 C708 0.950 . S
H685 C709 0.951 . S
H686 C711 0.951 . S
H687 C713 0.950 . S
H688 C714 0.950 . S
H689 C716 0.950 . S
H690 C719 0.950 . S
H691 C720 0.950 . S
H692 C722 0.950 . S
H693 C723 0.950 . S
C694 H676 0.951 . S
C694 C695 1.366 . S
C694 C696 1.388 . S
C695 C694 1.366 . S
C695 C699 1.385 . S
C696 H677 0.951 . S
C696 C694 1.388 . S
C696 C697 1.366 . S
C697 C696 1.366 . S
C697 C698 1.414 . S
C697 C700 1.499 . S
C698 H678 0.950 . S
C698 C697 1.414 . S
C698 C699 1.374 . S
C699 H679 0.950 . S
C699 C695 1.385 . S
C699 C698 1.374 . S
C700 C697 1.499 . S
C700 C701 1.373 1_554 S
C700 C702 1.389 . S
C701 H680 0.950 . S
C701 C700 1.373 1_556 S
C701 C717 1.377 . S
C702 C700 1.389 . S
C702 C703 1.524 . S
C702 C716 1.377 . S
C703 C702 1.524 . S
C703 C704 1.397 . S
C703 C708 1.363 . S
C704 H681 0.950 . S
C704 C703 1.397 . S
C704 C705 1.334 . S
C705 H682 0.950 . S
C705 C704 1.334 . S
C705 C706 1.287 . S
C706 C705 1.287 . S
C706 C707 1.524 . S
C706 H725 0.913 . S
C707 H683 0.950 . S
C707 C706 1.524 . S
C707 C708 1.415 . S
C708 H684 0.950 . S
C708 C703 1.363 . S
C708 C707 1.415 . S
C709 H685 0.951 . S
C709 C710 1.366 . S
C709 C711 1.388 . S
C710 C709 1.366 . S
C710 C714 1.385 . S
C711 H686 0.951 . S
C711 C709 1.388 . S
C711 C712 1.366 . S
C712 C711 1.366 . S
C712 C713 1.414 . S
C712 C715 1.499 . S
C713 H687 0.950 . S
C713 C712 1.414 . S
C713 C714 1.374 . S
C714 H688 0.950 . S
C714 C710 1.385 . S
C714 C713 1.374 . S
C715 C712 1.499 . S
C715 C716 1.373 1_556 S
C715 C717 1.389 . S
C716 H689 0.950 . S
C716 C702 1.377 . S
C716 C715 1.373 1_554 S
C717 C701 1.377 . S
C717 C715 1.389 . S
C717 C718 1.524 . S
C718 C717 1.524 . S
C718 C719 1.397 . S
C718 C723 1.363 . S
C719 H690 0.950 . S
C719 C718 1.397 . S
C719 C720 1.334 . S
C720 H691 0.950 . S
C720 C719 1.334 . S
C720 C721 1.287 . S
C721 C720 1.287 . S
C721 C722 1.524 . S
C721 H724 0.999 . S
C722 H692 0.950 . S
C722 C721 1.524 . S
C722 C723 1.415 . S
C723 H693 0.950 . S
C723 C718 1.363 . S
C723 C722 1.415 . S
H724 C721 0.999 . S
H725 C706 0.913 . S
H726 C744 0.951 . S
H727 C746 0.951 . S
H728 C748 0.950 . S
H729 C749 0.950 . S
H730 C751 0.950 . S
H731 C754 0.950 . S
H732 C755 0.950 . S
H733 C757 0.950 . S
H734 C758 0.950 . S
H735 C759 0.951 . S
H736 C761 0.951 . S
H737 C763 0.950 . S
H738 C764 0.950 . S
H739 C766 0.950 . S
H740 C769 0.950 . S
H741 C770 0.950 . S
H742 C772 0.950 . S
H743 C773 0.950 . S
C744 H726 0.951 . S
C744 C745 1.366 . S
C744 C746 1.388 . S
C745 C744 1.366 . S
C745 C749 1.385 . S
C746 H727 0.951 . S
C746 C744 1.388 . S
C746 C747 1.366 . S
C747 C746 1.366 . S
C747 C748 1.414 . S
C747 C750 1.499 . S
C748 H728 0.950 . S
C748 C747 1.414 . S
C748 C749 1.374 . S
C749 H729 0.950 . S
C749 C745 1.385 . S
C749 C748 1.374 . S
C750 C747 1.499 . S
C750 C751 1.373 . S
C750 C752 1.389 . S
C751 H730 0.950 . S
C751 C750 1.373 . S
C751 C767 1.377 . S
C752 C750 1.389 . S
C752 C753 1.524 . S
C752 C766 1.377 . S
C753 C752 1.524 . S
C753 C754 1.397 . S
C753 C758 1.363 . S
C754 H731 0.950 . S
C754 C753 1.397 . S
C754 C755 1.334 . S
C755 H732 0.950 . S
C755 C754 1.334 . S
C755 C756 1.287 . S
C756 C755 1.287 . S
C756 C757 1.524 . S
C756 H775 0.913 . S
C757 H733 0.950 . S
C757 C756 1.524 . S
C757 C758 1.415 . S
C758 H734 0.950 . S
C758 C753 1.363 . S
C758 C757 1.415 . S
C759 H735 0.951 . S
C759 C760 1.366 . S
C759 C761 1.388 . S
C760 C759 1.366 . S
C760 C764 1.385 . S
C761 H736 0.951 . S
C761 C759 1.388 . S
C761 C762 1.366 . S
C762 C761 1.366 . S
C762 C763 1.414 . S
C762 C765 1.499 . S
C763 H737 0.950 . S
C763 C762 1.414 . S
C763 C764 1.374 . S
C764 H738 0.950 . S
C764 C760 1.385 . S
C764 C763 1.374 . S
C765 C762 1.499 . S
C765 C766 1.373 . S
C765 C767 1.389 . S
C766 H739 0.950 . S
C766 C752 1.377 . S
C766 C765 1.373 . S
C767 C751 1.377 . S
C767 C765 1.389 . S
C767 C768 1.524 . S
C768 C767 1.524 . S
C768 C769 1.397 . S
C768 C773 1.363 . S
C769 H740 0.950 . S
C769 C768 1.397 . S
C769 C770 1.334 . S
C770 H741 0.950 . S
C770 C769 1.334 . S
C770 C771 1.287 . S
C771 C770 1.287 . S
C771 C772 1.524 . S
C771 H774 0.999 . S
C772 H742 0.950 . S
C772 C771 1.524 . S
C772 C773 1.415 . S
C773 H743 0.950 . S
C773 C768 1.363 . S
C773 C772 1.415 . S
H774 C771 0.999 . S
H775 C756 0.913 . S
H776 C794 0.951 . S
H777 C796 0.951 . S
H778 C798 0.931 1_454 S
H779 C799 0.935 1_455 S
H780 C801 0.950 . S
H781 C804 0.950 . S
H782 C805 0.950 . S
H783 C807 0.950 . S
H784 C808 0.950 . S
H785 C809 0.939 1_455 S
H786 C811 0.947 1_455 S
H787 C813 0.950 1_556 S
H788 C814 0.950 . S
H789 C816 0.950 . S
H790 C819 0.950 . S
H791 C820 0.950 . S
H792 C822 0.950 . S
H793 C823 0.950 . S
C794 H776 0.951 . S
C794 C795 1.366 . S
C794 C796 1.388 . S
C795 C794 1.366 . S
C795 C799 1.401 . S
C796 H777 0.951 . S
C796 C794 1.388 . S
C796 C797 1.366 . S
C797 C796 1.366 . S
C797 C798 1.437 . S
C797 C800 1.499 . S
C798 H778 0.931 1_656 S
C798 C797 1.437 . S
C798 C799 1.374 . S
C799 H779 0.935 1_655 S
C799 C795 1.401 . S
C799 C798 1.374 . S
C800 C797 1.499 . S
C800 C801 1.371 1_656 S
C800 C802 1.389 . S
C801 H780 0.950 . S
C801 C800 1.371 1_454 S
C801 C817 1.378 . S
C802 C800 1.389 . S
C802 C803 1.524 . S
C802 C816 1.378 . S
C803 C802 1.524 . S
C803 C804 1.397 . S
C803 C808 1.363 . S
C804 H781 0.950 . S
C804 C803 1.397 . S
C804 C805 1.334 . S
C805 H782 0.950 . S
C805 C804 1.334 . S
C805 C806 1.287 . S
C806 C805 1.287 . S
C806 C807 1.524 . S
C806 H825 0.913 . S
C807 H783 0.950 . S
C807 C806 1.524 . S
C807 C808 1.415 . S
C808 H784 0.950 . S
C808 C803 1.363 . S
C808 C807 1.415 . S
C809 H785 0.939 1_655 S
C809 C810 1.379 . S
C809 C811 1.387 . S
C810 C809 1.379 . S
C810 C814 1.385 . S
C811 H786 0.947 1_655 S
C811 C809 1.387 . S
C811 C812 1.369 . S
C812 C811 1.369 . S
C812 C813 1.414 . S
C812 C815 1.499 . S
C813 H787 0.950 1_554 S
C813 C812 1.414 . S
C813 C814 1.374 . S
C814 H788 0.950 . S
C814 C810 1.385 . S
C814 C813 1.374 . S
C815 C812 1.499 . S
C815 C816 1.372 1_554 S
C815 C817 1.389 1_655 S
C816 H789 0.950 . S
C816 C802 1.378 . S
C816 C815 1.372 1_556 S
C817 C801 1.378 . S
C817 C815 1.389 1_455 S
C817 C818 1.524 . S
C818 C817 1.524 . S
C818 C819 1.397 . S
C818 C823 1.363 . S
C819 H790 0.950 . S
C819 C818 1.397 . S
C819 C820 1.334 . S
C820 H791 0.950 . S
C820 C819 1.334 . S
C820 C821 1.287 . S
C821 C820 1.287 . S
C821 C822 1.524 . S
C821 H824 0.999 . S
C822 H792 0.950 . S
C822 C821 1.524 . S
C822 C823 1.415 . S
C823 H793 0.950 . S
C823 C818 1.363 . S
C823 C822 1.415 . S
H824 C821 0.999 . S
H825 C806 0.913 . S
H826 C844 0.951 . S
H827 C846 0.951 . S
H828 C848 0.950 . S
H829 C849 0.950 . S
H830 C851 0.950 . S
H831 C854 0.950 1_545 S
H832 C855 0.950 . S
H833 C857 0.950 . S
H834 C858 0.950 . S
H835 C859 0.951 . S
H836 C861 0.951 . S
H837 C863 0.950 . S
H838 C864 0.950 . S
H839 C866 0.950 . S
H840 C869 0.950 . S
H841 C870 0.943 1_565 S
H842 C872 0.950 . S
H843 C873 0.950 . S
C844 H826 0.951 . S
C844 C845 1.366 . S
C844 C846 1.388 . S
C845 C844 1.366 . S
C845 C849 1.385 1_565 S
C846 H827 0.951 . S
C846 C844 1.388 . S
C846 C847 1.366 . S
C847 C846 1.366 . S
C847 C848 1.414 1_565 S
C847 C850 1.499 . S
C848 H828 0.950 . S
C848 C847 1.414 1_545 S
C848 C849 1.374 . S
C849 H829 0.950 . S
C849 C845 1.385 1_545 S
C849 C848 1.374 . S
C850 C847 1.499 . S
C850 C851 1.373 1_565 S
C850 C852 1.389 . S
C851 H830 0.950 . S
C851 C850 1.373 1_545 S
C851 C867 1.379 . S
C852 C850 1.389 . S
C852 C853 1.524 . S
C852 C866 1.377 . S
C853 C852 1.524 . S
C853 C854 1.397 . S
C853 C858 1.363 . S
C854 H831 0.950 1_565 S
C854 C853 1.397 . S
C854 C855 1.334 . S
C855 H832 0.950 . S
C855 C854 1.334 . S
C855 C856 1.287 . S
C856 C855 1.287 . S
C856 C857 1.524 . S
C856 H875 0.913 . S
C857 H833 0.950 . S
C857 C856 1.524 . S
C857 C858 1.415 . S
C858 H834 0.950 . S
C858 C853 1.363 . S
C858 C857 1.415 . S
C859 H835 0.951 . S
C859 C860 1.366 1_545 S
C859 C861 1.388 . S
C860 C859 1.366 1_565 S
C860 C864 1.385 . S
C861 H836 0.951 . S
C861 C859 1.388 . S
C861 C862 1.366 1_545 S
C862 C861 1.366 1_565 S
C862 C863 1.414 . S
C862 C865 1.499 . S
C863 H837 0.950 . S
C863 C862 1.414 . S
C863 C864 1.374 . S
C864 H838 0.950 . S
C864 C860 1.385 . S
C864 C863 1.374 . S
C865 C862 1.499 . S
C865 C866 1.373 . S
C865 C867 1.375 1_565 S
C866 H839 0.950 . S
C866 C852 1.377 . S
C866 C865 1.373 . S
C867 C851 1.379 . S
C867 C865 1.375 1_545 S
C867 C868 1.537 . S
C868 C867 1.537 . S
C868 C869 1.397 1_545 S
C868 C873 1.363 . S
C869 H840 0.950 . S
C869 C868 1.397 1_565 S
C869 C870 1.331 1_565 S
C870 H841 0.943 1_545 S
C870 C869 1.331 1_545 S
C870 C871 1.298 . S
C871 C870 1.298 . S
C871 C872 1.524 . S
C871 H874 0.999 . S
C872 H842 0.950 . S
C872 C871 1.524 . S
C872 C873 1.415 . S
C873 H843 0.950 . S
C873 C868 1.363 . S
C873 C872 1.415 . S
H874 C871 0.999 . S
H875 C856 0.913 . S
H876 C894 0.951 . S
H877 C896 0.951 1_554 S
H878 C898 0.950 . S
H879 C899 0.950 . S
H880 C901 0.950 . S
H881 C904 0.950 1_556 S
H882 C905 0.950 1_556 S
H883 C907 0.950 . S
H884 C908 0.950 . S
H885 C909 0.951 . S
H886 C911 0.951 1_556 S
H887 C913 0.950 . S
H888 C914 0.950 . S
H889 C916 0.950 . S
H890 C919 0.950 1_554 S
H891 C920 0.950 1_554 S
H892 C922 0.950 . S
H893 C923 0.950 . S
C894 H876 0.951 . S
C894 C895 1.366 . S
C894 C896 1.388 . S
C895 C894 1.366 . S
C895 C899 1.385 . S
C896 H877 0.951 1_556 S
C896 C894 1.388 . S
C896 C897 1.366 . S
C897 C896 1.366 . S
C897 C898 1.414 . S
C897 C900 1.499 . S
C898 H878 0.950 . S
C898 C897 1.414 . S
C898 C899 1.374 . S
C899 H879 0.950 . S
C899 C895 1.385 . S
C899 C898 1.374 . S
C900 C897 1.499 . S
C900 C901 1.373 . S
C900 C902 1.389 1_556 S
C901 H880 0.950 . S
C901 C900 1.373 . S
C901 C917 1.377 . S
C902 C900 1.389 1_554 S
C902 C903 1.524 . S
C902 C916 1.377 . S
C903 C902 1.524 . S
C903 C904 1.397 . S
C903 C908 1.363 . S
C904 H881 0.950 1_554 S
C904 C903 1.397 . S
C904 C905 1.334 . S
C905 H882 0.950 1_554 S
C905 C904 1.334 . S
C905 C906 1.287 . S
C906 C905 1.287 . S
C906 C907 1.524 . S
C906 H925 0.913 . S
C907 H883 0.950 . S
C907 C906 1.524 . S
C907 C908 1.415 . S
C908 H884 0.950 . S
C908 C903 1.363 . S
C908 C907 1.415 . S
C909 H885 0.951 . S
C909 C910 1.366 . S
C909 C911 1.388 . S
C910 C909 1.366 . S
C910 C914 1.385 . S
C911 H886 0.951 1_554 S
C911 C909 1.388 . S
C911 C912 1.366 . S
C912 C911 1.366 . S
C912 C913 1.414 . S
C912 C915 1.499 . S
C913 H887 0.950 . S
C913 C912 1.414 . S
C913 C914 1.374 . S
C914 H888 0.950 . S
C914 C910 1.385 . S
C914 C913 1.374 . S
C915 C912 1.499 . S
C915 C916 1.373 . S
C915 C917 1.389 1_554 S
C916 H889 0.950 . S
C916 C902 1.377 . S
C916 C915 1.373 . S
C917 C901 1.377 . S
C917 C915 1.389 1_556 S
C917 C918 1.524 . S
C918 C917 1.524 . S
C918 C919 1.397 . S
C918 C923 1.363 . S
C919 H890 0.950 1_556 S
C919 C918 1.397 . S
C919 C920 1.334 . S
C920 H891 0.950 1_556 S
C920 C919 1.334 . S
C920 C921 1.287 . S
C921 C920 1.287 . S
C921 C922 1.524 . S
C921 H924 0.999 . S
C922 H892 0.950 . S
C922 C921 1.524 . S
C922 C923 1.415 . S
C923 H893 0.950 . S
C923 C918 1.363 . S
C923 C922 1.415 . S
H924 C921 0.999 . S
H925 C906 0.913 . S
H926 C944 0.951 . S
H927 C946 0.951 . S
H928 C948 0.950 . S
H929 C949 0.950 . S
H930 C951 0.950 . S
H931 C954 0.950 . S
H932 C955 0.950 . S
H933 C957 0.950 . S
H934 C958 0.950 . S
H935 C959 0.951 . S
H936 C961 0.951 . S
H937 C963 0.950 . S
H938 C964 0.950 . S
H939 C966 0.950 . S
H940 C969 0.950 . S
H941 C970 0.950 . S
H942 C972 0.950 . S
H943 C973 0.950 . S
C944 H926 0.951 . S
C944 C945 1.366 . S
C944 C946 1.388 . S
C945 C944 1.366 . S
C945 C949 1.385 . S
C946 H927 0.951 . S
C946 C944 1.388 . S
C946 C947 1.366 . S
C947 C946 1.366 . S
C947 C948 1.414 . S
C947 C950 1.499 . S
C948 H928 0.950 . S
C948 C947 1.414 . S
C948 C949 1.374 . S
C949 H929 0.950 . S
C949 C945 1.385 . S
C949 C948 1.374 . S
C950 C947 1.499 . S
C950 C951 1.373 . S
C950 C952 1.389 . S
C951 H930 0.950 . S
C951 C950 1.373 . S
C951 C967 1.377 . S
C952 C950 1.389 . S
C952 C953 1.524 . S
C952 C966 1.377 . S
C953 C952 1.524 . S
C953 C954 1.397 . S
C953 C958 1.363 . S
C954 H931 0.950 . S
C954 C953 1.397 . S
C954 C955 1.334 . S
C955 H932 0.950 . S
C955 C954 1.334 . S
C955 C956 1.287 . S
C956 C955 1.287 . S
C956 C957 1.524 . S
C956 H975 0.913 . S
C957 H933 0.950 . S
C957 C956 1.524 . S
C957 C958 1.415 . S
C958 H934 0.950 . S
C958 C953 1.363 . S
C958 C957 1.415 . S
C959 H935 0.951 . S
C959 C960 1.366 . S
C959 C961 1.388 . S
C960 C959 1.366 . S
C960 C964 1.385 . S
C961 H936 0.951 . S
C961 C959 1.388 . S
C961 C962 1.366 . S
C962 C961 1.366 . S
C962 C963 1.414 . S
C962 C965 1.499 . S
C963 H937 0.950 . S
C963 C962 1.414 . S
C963 C964 1.374 . S
C964 H938 0.950 . S
C964 C960 1.385 . S
C964 C963 1.374 . S
C965 C962 1.499 . S
C965 C966 1.373 . S
C965 C967 1.389 . S
C966 H939 0.950 . S
C966 C952 1.377 . S
C966 C965 1.373 . S
C967 C951 1.377 . S
C967 C965 1.389 . S
C967 C968 1.524 . S
C968 C967 1.524 . S
C968 C969 1.397 . S
C968 C973 1.363 . S
C969 H940 0.950 . S
C969 C968 1.397 . S
C969 C970 1.334 . S
C970 H941 0.950 . S
C970 C969 1.334 . S
C970 C971 1.287 . S
C971 C970 1.287 . S
C971 C972 1.524 . S
C971 H974 0.999 . S
C972 H942 0.950 . S
C972 C971 1.524 . S
C972 C973 1.415 . S
C973 H943 0.950 . S
C973 C968 1.363 . S
C973 C972 1.415 . S
H974 C971 0.999 . S
H975 C956 0.913 . S
H976 C994 0.951 . S
H977 C996 0.951 . S
H978 C998 0.950 . S
H979 C999 0.950 . S
H980 C1001 0.950 . S
H981 C1004 0.950 1_556 S
H982 C1005 0.950 . S
H983 C1007 0.950 . S
H984 C1008 0.944 1_556 S
H985 C1009 0.951 . S
H986 C1011 0.951 . S
H987 C1013 0.950 . S
H988 C1014 0.950 . S
H989 C1016 0.950 . S
H990 C1019 0.950 . S
H991 C1020 0.950 . S
H992 C1022 0.950 . S
H993 C1023 0.950 . S
C994 H976 0.951 . S
C994 C995 1.366 . S
C994 C996 1.388 . S
C995 C994 1.366 . S
C995 C999 1.403 . S
C996 H977 0.951 . S
C996 C994 1.388 . S
C996 C997 1.366 1_554 S
C997 C996 1.366 1_556 S
C997 C998 1.414 . S
C997 C1000 1.499 . S
C998 H978 0.950 . S
C998 C997 1.414 . S
C998 C999 1.356 1_556 S
C999 H979 0.950 . S
C999 C995 1.403 . S
C999 C998 1.356 1_554 S
C1000 C997 1.499 . S
C1000 C1001 1.373 . S
C1000 C1002 1.389 . S
C1001 H980 0.950 . S
C1001 C1000 1.373 . S
C1001 C1017 1.377 . S
C1002 C1000 1.389 . S
C1002 C1003 1.524 . S
C1002 C1016 1.377 . S
C1003 C1002 1.524 . S
C1003 C1004 1.397 1_556 S
C1003 C1008 1.359 1_556 S
C1004 H981 0.950 1_554 S
C1004 C1003 1.397 1_554 S
C1004 C1005 1.334 . S
C1005 H982 0.950 . S
C1005 C1004 1.334 . S
C1005 C1006 1.287 . S
C1006 C1005 1.287 . S
C1006 C1007 1.524 . S
C1006 H1025 0.913 . S
C1007 H983 0.950 . S
C1007 C1006 1.524 . S
C1007 C1008 1.425 . S
C1008 H984 0.944 1_554 S
C1008 C1003 1.359 1_554 S
C1008 C1007 1.425 . S
C1009 H985 0.951 . S
C1009 C1010 1.366 . S
C1009 C1011 1.388 . S
C1010 C1009 1.366 . S
C1010 C1014 1.385 . S
C1011 H986 0.951 . S
C1011 C1009 1.388 . S
C1011 C1012 1.366 . S
C1012 C1011 1.366 . S
C1012 C1013 1.414 . S
C1012 C1015 1.499 . S
C1013 H987 0.950 . S
C1013 C1012 1.414 . S
C1013 C1014 1.374 . S
C1014 H988 0.950 . S
C1014 C1010 1.385 . S
C1014 C1013 1.374 . S
C1015 C1012 1.499 . S
C1015 C1016 1.373 . S
C1015 C1017 1.389 . S
C1016 H989 0.950 . S
C1016 C1002 1.377 . S
C1016 C1015 1.373 . S
C1017 C1001 1.377 . S
C1017 C1015 1.389 . S
C1017 C1018 1.524 . S
C1018 C1017 1.524 . S
C1018 C1019 1.397 . S
C1018 C1023 1.363 . S
C1019 H990 0.950 . S
C1019 C1018 1.397 . S
C1019 C1020 1.334 . S
C1020 H991 0.950 . S
C1020 C1019 1.334 . S
C1020 C1021 1.287 . S
C1021 C1020 1.287 . S
C1021 C1022 1.524 . S
C1021 H1024 0.999 . S
C1022 H992 0.950 . S
C1022 C1021 1.524 . S
C1022 C1023 1.415 . S
C1023 H993 0.950 . S
C1023 C1018 1.363 . S
C1023 C1022 1.415 . S
H1024 C1021 0.999 . S
H1025 C1006 0.913 . S
H1026 C1044 0.951 . S
H1027 C1046 0.951 . S
H1028 C1048 0.950 . S
H1029 C1049 0.950 . S
H1030 C1051 0.950 . S
H1031 C1054 0.950 . S
H1032 C1055 0.950 . S
H1033 C1057 0.950 . S
H1034 C1058 0.950 . S
H1035 C1059 0.951 . S
H1036 C1061 0.951 . S
H1037 C1063 0.950 . S
H1038 C1064 0.950 . S
H1039 C1066 0.950 . S
H1040 C1069 0.950 . S
H1041 C1070 0.950 . S
H1042 C1072 0.950 . S
H1043 C1073 0.950 . S
C1044 H1026 0.951 . S
C1044 C1045 1.366 . S
C1044 C1046 1.388 . S
C1045 C1044 1.366 . S
C1045 C1049 1.385 . S
C1046 H1027 0.951 . S
C1046 C1044 1.388 . S
C1046 C1047 1.366 . S
C1047 C1046 1.366 . S
C1047 C1048 1.414 . S
C1047 C1050 1.499 . S
C1048 H1028 0.950 . S
C1048 C1047 1.414 . S
C1048 C1049 1.374 . S
C1049 H1029 0.950 . S
C1049 C1045 1.385 . S
C1049 C1048 1.374 . S
C1050 C1047 1.499 . S
C1050 C1051 1.373 . S
C1050 C1052 1.389 . S
C1051 H1030 0.950 . S
C1051 C1050 1.373 . S
C1051 C1067 1.377 . S
C1052 C1050 1.389 . S
C1052 C1053 1.524 . S
C1052 C1066 1.377 . S
C1053 C1052 1.524 . S
C1053 C1054 1.397 . S
C1053 C1058 1.363 . S
C1054 H1031 0.950 . S
C1054 C1053 1.397 . S
C1054 C1055 1.334 . S
C1055 H1032 0.950 . S
C1055 C1054 1.334 . S
C1055 C1056 1.287 . S
C1056 C1055 1.287 . S
C1056 C1057 1.524 . S
C1056 H1075 0.913 . S
C1057 H1033 0.950 . S
C1057 C1056 1.524 . S
C1057 C1058 1.415 . S
C1058 H1034 0.950 . S
C1058 C1053 1.363 . S
C1058 C1057 1.415 . S
C1059 H1035 0.951 . S
C1059 C1060 1.366 . S
C1059 C1061 1.388 . S
C1060 C1059 1.366 . S
C1060 C1064 1.385 . S
C1061 H1036 0.951 . S
C1061 C1059 1.388 . S
C1061 C1062 1.366 . S
C1062 C1061 1.366 . S
C1062 C1063 1.414 . S
C1062 C1065 1.499 . S
C1063 H1037 0.950 . S
C1063 C1062 1.414 . S
C1063 C1064 1.374 . S
C1064 H1038 0.950 . S
C1064 C1060 1.385 . S
C1064 C1063 1.374 . S
C1065 C1062 1.499 . S
C1065 C1066 1.373 . S
C1065 C1067 1.389 . S
C1066 H1039 0.950 . S
C1066 C1052 1.377 . S
C1066 C1065 1.373 . S
C1067 C1051 1.377 . S
C1067 C1065 1.389 . S
C1067 C1068 1.524 . S
C1068 C1067 1.524 . S
C1068 C1069 1.397 . S
C1068 C1073 1.363 . S
C1069 H1040 0.950 . S
C1069 C1068 1.397 . S
C1069 C1070 1.334 . S
C1070 H1041 0.950 . S
C1070 C1069 1.334 . S
C1070 C1071 1.287 . S
C1071 C1070 1.287 . S
C1071 C1072 1.524 . S
C1071 H1074 0.999 . S
C1072 H1042 0.950 . S
C1072 C1071 1.524 . S
C1072 C1073 1.415 . S
C1073 H1043 0.950 . S
C1073 C1068 1.363 . S
C1073 C1072 1.415 . S
H1074 C1071 0.999 . S
H1075 C1056 0.913 . S
H1076 C1094 0.951 . S
H1077 C1096 0.951 . S
H1078 C1098 0.950 . S
H1079 C1099 0.950 . S
H1080 C1101 0.950 . S
H1081 C1104 0.950 . S
H1082 C1105 0.950 . S
H1083 C1107 0.950 . S
H1084 C1108 0.950 . S
H1085 C1109 0.951 . S
H1086 C1111 0.951 . S
H1087 C1113 0.950 . S
H1088 C1114 0.950 . S
H1089 C1116 0.950 . S
H1090 C1119 0.950 . S
H1091 C1120 0.950 . S
H1092 C1122 0.950 . S
H1093 C1123 0.950 . S
C1094 H1076 0.951 . S
C1094 C1095 1.366 . S
C1094 C1096 1.388 . S
C1095 C1094 1.366 . S
C1095 C1099 1.385 1_554 S
C1096 H1077 0.951 . S
C1096 C1094 1.388 . S
C1096 C1097 1.366 1_554 S
C1097 C1096 1.366 1_556 S
C1097 C1098 1.414 . S
C1097 C1100 1.499 . S
C1098 H1078 0.950 . S
C1098 C1097 1.414 . S
C1098 C1099 1.374 . S
C1099 H1079 0.950 . S
C1099 C1095 1.385 1_556 S
C1099 C1098 1.374 . S
C1100 C1097 1.499 . S
C1100 C1101 1.373 . S
C1100 C1102 1.389 . S
C1101 H1080 0.950 . S
C1101 C1100 1.373 . S
C1101 C1117 1.377 . S
C1102 C1100 1.389 . S
C1102 C1103 1.524 . S
C1102 C1116 1.377 . S
C1103 C1102 1.524 . S
C1103 C1104 1.397 . S
C1103 C1108 1.363 . S
C1104 H1081 0.950 . S
C1104 C1103 1.397 . S
C1104 C1105 1.334 . S
C1105 H1082 0.950 . S
C1105 C1104 1.334 . S
C1105 C1106 1.287 . S
C1106 C1105 1.287 . S
C1106 C1107 1.524 . S
C1106 H1125 0.913 . S
C1107 H1083 0.950 . S
C1107 C1106 1.524 . S
C1107 C1108 1.415 . S
C1108 H1084 0.950 . S
C1108 C1103 1.363 . S
C1108 C1107 1.415 . S
C1109 H1085 0.951 . S
C1109 C1110 1.366 . S
C1109 C1111 1.388 . S
C1110 C1109 1.366 . S
C1110 C1114 1.385 . S
C1111 H1086 0.951 . S
C1111 C1109 1.388 . S
C1111 C1112 1.366 . S
C1112 C1111 1.366 . S
C1112 C1113 1.414 . S
C1112 C1115 1.499 . S
C1113 H1087 0.950 . S
C1113 C1112 1.414 . S
C1113 C1114 1.374 . S
C1114 H1088 0.950 . S
C1114 C1110 1.385 . S
C1114 C1113 1.374 . S
C1115 C1112 1.499 . S
C1115 C1116 1.373 . S
C1115 C1117 1.389 . S
C1116 H1089 0.950 . S
C1116 C1102 1.377 . S
C1116 C1115 1.373 . S
C1117 C1101 1.377 . S
C1117 C1115 1.389 . S
C1117 C1118 1.524 . S
C1118 C1117 1.524 . S
C1118 C1119 1.397 . S
C1118 C1123 1.363 . S
C1119 H1090 0.950 . S
C1119 C1118 1.397 . S
C1119 C1120 1.334 . S
C1120 H1091 0.950 . S
C1120 C1119 1.334 . S
C1120 C1121 1.287 . S
C1121 C1120 1.287 . S
C1121 C1122 1.524 . S
C1121 H1124 0.999 . S
C1122 H1092 0.950 . S
C1122 C1121 1.524 . S
C1122 C1123 1.415 . S
C1123 H1093 0.950 . S
C1123 C1118 1.363 . S
C1123 C1122 1.415 . S
H1124 C1121 0.999 . S
H1125 C1106 0.913 . S
H1126 C1144 0.951 . S
H1127 C1146 0.951 . S
H1128 C1148 0.950 . S
H1129 C1149 0.950 . S
H1130 C1151 0.950 . S
H1131 C1154 0.950 . S
H1132 C1155 0.950 . S
H1133 C1157 0.950 . S
H1134 C1158 0.950 . S
H1135 C1159 0.951 . S
H1136 C1161 0.951 . S
H1137 C1163 0.950 . S
H1138 C1164 0.950 . S
H1139 C1166 0.950 . S
H1140 C1169 0.950 . S
H1141 C1170 0.950 . S
H1142 C1172 0.950 . S
H1143 C1173 0.950 . S
C1144 H1126 0.951 . S
C1144 C1145 1.366 . S
C1144 C1146 1.388 . S
C1145 C1144 1.366 . S
C1145 C1149 1.385 . S
C1146 H1127 0.951 . S
C1146 C1144 1.388 . S
C1146 C1147 1.366 . S
C1147 C1146 1.366 . S
C1147 C1148 1.414 . S
C1147 C1150 1.499 . S
C1148 H1128 0.950 . S
C1148 C1147 1.414 . S
C1148 C1149 1.374 . S
C1149 H1129 0.950 . S
C1149 C1145 1.385 . S
C1149 C1148 1.374 . S
C1150 C1147 1.499 . S
C1150 C1151 1.373 . S
C1150 C1152 1.389 . S
C1151 H1130 0.950 . S
C1151 C1150 1.373 . S
C1151 C1167 1.377 . S
C1152 C1150 1.389 . S
C1152 C1153 1.524 . S
C1152 C1166 1.377 . S
C1153 C1152 1.524 . S
C1153 C1154 1.397 . S
C1153 C1158 1.363 . S
C1154 H1131 0.950 . S
C1154 C1153 1.397 . S
C1154 C1155 1.334 . S
C1155 H1132 0.950 . S
C1155 C1154 1.334 . S
C1155 C1156 1.287 . S
C1156 C1155 1.287 . S
C1156 C1157 1.524 . S
C1156 H1175 0.913 . S
C1157 H1133 0.950 . S
C1157 C1156 1.524 . S
C1157 C1158 1.415 . S
C1158 H1134 0.950 . S
C1158 C1153 1.363 . S
C1158 C1157 1.415 . S
C1159 H1135 0.951 . S
C1159 C1160 1.366 . S
C1159 C1161 1.388 . S
C1160 C1159 1.366 . S
C1160 C1164 1.385 . S
C1161 H1136 0.951 . S
C1161 C1159 1.388 . S
C1161 C1162 1.366 . S
C1162 C1161 1.366 . S
C1162 C1163 1.414 . S
C1162 C1165 1.499 . S
C1163 H1137 0.950 . S
C1163 C1162 1.414 . S
C1163 C1164 1.374 . S
C1164 H1138 0.950 . S
C1164 C1160 1.385 . S
C1164 C1163 1.374 . S
C1165 C1162 1.499 . S
C1165 C1166 1.373 . S
C1165 C1167 1.389 . S
C1166 H1139 0.950 . S
C1166 C1152 1.377 . S
C1166 C1165 1.373 . S
C1167 C1151 1.377 . S
C1167 C1165 1.389 . S
C1167 C1168 1.524 . S
C1168 C1167 1.524 . S
C1168 C1169 1.397 . S
C1168 C1173 1.363 . S
C1169 H1140 0.950 . S
C1169 C1168 1.397 . S
C1169 C1170 1.334 . S
C1170 H1141 0.950 . S
C1170 C1169 1.334 . S
C1170 C1171 1.287 . S
C1171 C1170 1.287 . S
C1171 C1172 1.524 . S
C1171 H1174 0.999 . S
C1172 H1142 0.950 . S
C1172 C1171 1.524 . S
C1172 C1173 1.415 . S
C1173 H1143 0.950 . S
C1173 C1168 1.363 . S
C1173 C1172 1.415 . S
H1174 C1171 0.999 . S
H1175 C1156 0.913 . S
H1176 C1194 0.951 . S
H1177 C1196 0.951 . S
H1178 C1198 0.950 . S
H1179 C1199 0.950 . S
H1180 C1201 0.950 . S
H1181 C1204 0.950 . S
H1182 C1205 0.950 . S
H1183 C1207 0.950 . S
H1184 C1208 0.950 . S
H1185 C1209 0.951 . S
H1186 C1211 0.951 . S
H1187 C1213 0.950 . S
H1188 C1214 0.950 . S
H1189 C1216 0.950 . S
H1190 C1219 0.950 1_554 S
H1191 C1220 0.950 . S
H1192 C1222 0.950 . S
H1193 C1223 0.950 1_554 S
C1194 H1176 0.951 . S
C1194 C1195 1.366 . S
C1194 C1196 1.388 . S
C1195 C1194 1.366 . S
C1195 C1199 1.385 . S
C1196 H1177 0.951 . S
C1196 C1194 1.388 . S
C1196 C1197 1.366 . S
C1197 C1196 1.366 . S
C1197 C1198 1.414 . S
C1197 C1200 1.499 . S
C1198 H1178 0.950 . S
C1198 C1197 1.414 . S
C1198 C1199 1.374 . S
C1199 H1179 0.950 . S
C1199 C1195 1.385 . S
C1199 C1198 1.374 . S
C1200 C1197 1.499 . S
C1200 C1201 1.373 . S
C1200 C1202 1.389 . S
C1201 H1180 0.950 . S
C1201 C1200 1.373 . S
C1201 C1217 1.377 . S
C1202 C1200 1.389 . S
C1202 C1203 1.524 . S
C1202 C1216 1.377 . S
C1203 C1202 1.524 . S
C1203 C1204 1.397 . S
C1203 C1208 1.363 . S
C1204 H1181 0.950 . S
C1204 C1203 1.397 . S
C1204 C1205 1.334 . S
C1205 H1182 0.950 . S
C1205 C1204 1.334 . S
C1205 C1206 1.287 . S
C1206 C1205 1.287 . S
C1206 C1207 1.524 . S
C1206 H1225 0.913 . S
C1207 H1183 0.950 . S
C1207 C1206 1.524 . S
C1207 C1208 1.415 . S
C1208 H1184 0.950 . S
C1208 C1203 1.363 . S
C1208 C1207 1.415 . S
C1209 H1185 0.951 . S
C1209 C1210 1.366 . S
C1209 C1211 1.388 . S
C1210 C1209 1.366 . S
C1210 C1214 1.385 1_556 S
C1211 H1186 0.951 . S
C1211 C1209 1.388 . S
C1211 C1212 1.366 1_556 S
C1212 C1211 1.366 1_554 S
C1212 C1213 1.414 . S
C1212 C1215 1.499 . S
C1213 H1187 0.950 . S
C1213 C1212 1.414 . S
C1213 C1214 1.374 . S
C1214 H1188 0.950 . S
C1214 C1210 1.385 1_554 S
C1214 C1213 1.374 . S
C1215 C1212 1.499 . S
C1215 C1216 1.373 . S
C1215 C1217 1.389 . S
C1216 H1189 0.950 . S
C1216 C1202 1.377 . S
C1216 C1215 1.373 . S
C1217 C1201 1.377 . S
C1217 C1215 1.389 . S
C1217 C1218 1.524 . S
C1218 C1217 1.524 . S
C1218 C1219 1.397 1_554 S
C1218 C1223 1.363 1_554 S
C1219 H1190 0.950 1_556 S
C1219 C1218 1.397 1_556 S
C1219 C1220 1.334 . S
C1220 H1191 0.950 . S
C1220 C1219 1.334 . S
C1220 C1221 1.287 . S
C1221 C1220 1.287 . S
C1221 C1222 1.524 . S
C1221 H1224 0.999 . S
C1222 H1192 0.950 . S
C1222 C1221 1.524 . S
C1222 C1223 1.415 . S
C1223 H1193 0.950 1_556 S
C1223 C1218 1.363 1_556 S
C1223 C1222 1.415 . S
H1224 C1221 0.999 . S
H1225 C1206 0.913 . S
H1226 C1244 0.951 . S
H1227 C1246 0.951 . S
H1228 C1248 0.950 . S
H1229 C1249 0.950 . S
H1230 C1251 0.950 . S
H1231 C1254 0.950 . S
H1232 C1255 0.950 . S
H1233 C1257 0.950 . S
H1234 C1258 0.950 . S
H1235 C1259 0.951 . S
H1236 C1261 0.951 . S
H1237 C1263 0.950 . S
H1238 C1264 0.950 . S
H1239 C1266 0.950 . S
H1240 C1269 0.950 . S
H1241 C1270 0.950 . S
H1242 C1272 0.950 . S
H1243 C1273 0.950 . S
C1244 H1226 0.951 . S
C1244 C1245 1.366 . S
C1244 C1246 1.388 . S
C1245 C1244 1.366 . S
C1245 C1249 1.385 . S
C1246 H1227 0.951 . S
C1246 C1244 1.388 . S
C1246 C1247 1.366 . S
C1247 C1246 1.366 . S
C1247 C1248 1.414 . S
C1247 C1250 1.499 . S
C1248 H1228 0.950 . S
C1248 C1247 1.414 . S
C1248 C1249 1.374 . S
C1249 H1229 0.950 . S
C1249 C1245 1.385 . S
C1249 C1248 1.374 . S
C1250 C1247 1.499 . S
C1250 C1251 1.373 . S
C1250 C1252 1.389 . S
C1251 H1230 0.950 . S
C1251 C1250 1.373 . S
C1251 C1267 1.377 . S
C1252 C1250 1.389 . S
C1252 C1253 1.524 . S
C1252 C1266 1.377 . S
C1253 C1252 1.524 . S
C1253 C1254 1.397 . S
C1253 C1258 1.363 . S
C1254 H1231 0.950 . S
C1254 C1253 1.397 . S
C1254 C1255 1.334 . S
C1255 H1232 0.950 . S
C1255 C1254 1.334 . S
C1255 C1256 1.287 . S
C1256 C1255 1.287 . S
C1256 C1257 1.524 . S
C1256 H1275 0.913 . S
C1257 H1233 0.950 . S
C1257 C1256 1.524 . S
C1257 C1258 1.415 . S
C1258 H1234 0.950 . S
C1258 C1253 1.363 . S
C1258 C1257 1.415 . S
C1259 H1235 0.951 . S
C1259 C1260 1.366 . S
C1259 C1261 1.388 . S
C1260 C1259 1.366 . S
C1260 C1264 1.385 . S
C1261 H1236 0.951 . S
C1261 C1259 1.388 . S
C1261 C1262 1.366 . S
C1262 C1261 1.366 . S
C1262 C1263 1.414 . S
C1262 C1265 1.499 . S
C1263 H1237 0.950 . S
C1263 C1262 1.414 . S
C1263 C1264 1.374 . S
C1264 H1238 0.950 . S
C1264 C1260 1.385 . S
C1264 C1263 1.374 . S
C1265 C1262 1.499 . S
C1265 C1266 1.373 . S
C1265 C1267 1.389 . S
C1266 H1239 0.950 . S
C1266 C1252 1.377 . S
C1266 C1265 1.373 . S
C1267 C1251 1.377 . S
C1267 C1265 1.389 . S
C1267 C1268 1.524 . S
C1268 C1267 1.524 . S
C1268 C1269 1.397 . S
C1268 C1273 1.363 . S
C1269 H1240 0.950 . S
C1269 C1268 1.397 . S
C1269 C1270 1.334 . S
C1270 H1241 0.950 . S
C1270 C1269 1.334 . S
C1270 C1271 1.287 . S
C1271 C1270 1.287 . S
C1271 C1272 1.524 . S
C1271 H1274 0.999 . S
C1272 H1242 0.950 . S
C1272 C1271 1.524 . S
C1272 C1273 1.415 . S
C1273 H1243 0.950 . S
C1273 C1268 1.363 . S
C1273 C1272 1.415 . S
H1274 C1271 0.999 . S
H1275 C1256 0.913 . S
H1276 C1294 0.951 . S
H1277 C1296 0.951 . S
H1278 C1298 0.950 . S
H1279 C1299 0.950 . S
H1280 C1301 0.950 . S
H1281 C1304 0.950 . S
H1282 C1305 0.950 . S
H1283 C1307 0.950 . S
H1284 C1308 0.950 . S
H1285 C1309 0.951 . S
H1286 C1311 0.951 . S
H1287 C1313 0.950 . S
H1288 C1314 0.950 . S
H1289 C1316 0.950 . S
H1290 C1319 0.950 . S
H1291 C1320 0.950 . S
H1292 C1322 0.950 . S
H1293 C1323 0.950 . S
C1294 H1276 0.951 . S
C1294 C1295 1.366 . S
C1294 C1296 1.388 . S
C1295 C1294 1.366 . S
C1295 C1299 1.385 . S
C1296 H1277 0.951 . S
C1296 C1294 1.388 . S
C1296 C1297 1.366 . S
C1297 C1296 1.366 . S
C1297 C1298 1.414 . S
C1297 C1300 1.499 . S
C1298 H1278 0.950 . S
C1298 C1297 1.414 . S
C1298 C1299 1.374 . S
C1299 H1279 0.950 . S
C1299 C1295 1.385 . S
C1299 C1298 1.374 . S
C1300 C1297 1.499 . S
C1300 C1301 1.373 . S
C1300 C1302 1.389 . S
C1301 H1280 0.950 . S
C1301 C1300 1.373 . S
C1301 C1317 1.377 . S
C1302 C1300 1.389 . S
C1302 C1303 1.524 . S
C1302 C1316 1.377 . S
C1303 C1302 1.524 . S
C1303 C1304 1.397 . S
C1303 C1308 1.363 . S
C1304 H1281 0.950 . S
C1304 C1303 1.397 . S
C1304 C1305 1.334 . S
C1305 H1282 0.950 . S
C1305 C1304 1.334 . S
C1305 C1306 1.287 . S
C1306 C1305 1.287 . S
C1306 C1307 1.524 . S
C1306 H1325 0.913 . S
C1307 H1283 0.950 . S
C1307 C1306 1.524 . S
C1307 C1308 1.415 . S
C1308 H1284 0.950 . S
C1308 C1303 1.363 . S
C1308 C1307 1.415 . S
C1309 H1285 0.951 . S
C1309 C1310 1.366 . S
C1309 C1311 1.388 1_556 S
C1310 C1309 1.366 . S
C1310 C1314 1.385 . S
C1311 H1286 0.951 . S
C1311 C1309 1.388 1_554 S
C1311 C1312 1.366 . S
C1312 C1311 1.366 . S
C1312 C1313 1.414 . S
C1312 C1315 1.499 . S
C1313 H1287 0.950 . S
C1313 C1312 1.414 . S
C1313 C1314 1.374 1_554 S
C1314 H1288 0.950 . S
C1314 C1310 1.385 . S
C1314 C1313 1.374 1_556 S
C1315 C1312 1.499 . S
C1315 C1316 1.373 . S
C1315 C1317 1.389 . S
C1316 H1289 0.950 . S
C1316 C1302 1.377 . S
C1316 C1315 1.373 . S
C1317 C1301 1.377 . S
C1317 C1315 1.389 . S
C1317 C1318 1.524 . S
C1318 C1317 1.524 . S
C1318 C1319 1.397 1_554 S
C1318 C1323 1.363 . S
C1319 H1290 0.950 . S
C1319 C1318 1.397 1_556 S
C1319 C1320 1.334 . S
C1320 H1291 0.950 . S
C1320 C1319 1.334 . S
C1320 C1321 1.287 . S
C1321 C1320 1.287 . S
C1321 C1322 1.524 . S
C1321 H1324 0.999 . S
C1322 H1292 0.950 . S
C1322 C1321 1.524 . S
C1322 C1323 1.415 1_556 S
C1323 H1293 0.950 . S
C1323 C1318 1.363 . S
C1323 C1322 1.415 1_554 S
H1324 C1321 0.999 . S
H1325 C1306 0.913 . S
H1326 C1344 0.951 . S
H1327 C1346 0.951 . S
H1328 C1348 0.950 . S
H1329 C1349 0.950 . S
H1330 C1351 0.950 . S
H1331 C1354 0.950 . S
H1332 C1355 0.950 . S
H1333 C1357 0.950 . S
H1334 C1358 0.950 . S
H1335 C1359 0.951 . S
H1336 C1361 0.951 . S
H1337 C1363 0.950 . S
H1338 C1364 0.950 . S
H1339 C1366 0.950 . S
H1340 C1369 0.950 . S
H1341 C1370 0.950 . S
H1342 C1372 0.950 . S
H1343 C1373 0.950 . S
C1344 H1326 0.951 . S
C1344 C1345 1.366 . S
C1344 C1346 1.388 . S
C1345 C1344 1.366 . S
C1345 C1349 1.385 . S
C1346 H1327 0.951 . S
C1346 C1344 1.388 . S
C1346 C1347 1.366 . S
C1347 C1346 1.366 . S
C1347 C1348 1.414 . S
C1347 C1350 1.499 . S
C1348 H1328 0.950 . S
C1348 C1347 1.414 . S
C1348 C1349 1.374 . S
C1349 H1329 0.950 . S
C1349 C1345 1.385 . S
C1349 C1348 1.374 . S
C1350 C1347 1.499 . S
C1350 C1351 1.373 . S
C1350 C1352 1.389 . S
C1351 H1330 0.950 . S
C1351 C1350 1.373 . S
C1351 C1367 1.377 . S
C1352 C1350 1.389 . S
C1352 C1353 1.524 . S
C1352 C1366 1.377 . S
C1353 C1352 1.524 . S
C1353 C1354 1.397 . S
C1353 C1358 1.363 . S
C1354 H1331 0.950 . S
C1354 C1353 1.397 . S
C1354 C1355 1.334 . S
C1355 H1332 0.950 . S
C1355 C1354 1.334 . S
C1355 C1356 1.287 . S
C1356 C1355 1.287 . S
C1356 C1357 1.524 . S
C1356 H1375 0.913 . S
C1357 H1333 0.950 . S
C1357 C1356 1.524 . S
C1357 C1358 1.415 . S
C1358 H1334 0.950 . S
C1358 C1353 1.363 . S
C1358 C1357 1.415 . S
C1359 H1335 0.951 . S
C1359 C1360 1.366 . S
C1359 C1361 1.388 . S
C1360 C1359 1.366 . S
C1360 C1364 1.385 . S
C1361 H1336 0.951 . S
C1361 C1359 1.388 . S
C1361 C1362 1.366 . S
C1362 C1361 1.366 . S
C1362 C1363 1.414 . S
C1362 C1365 1.499 . S
C1363 H1337 0.950 . S
C1363 C1362 1.414 . S
C1363 C1364 1.374 . S
C1364 H1338 0.950 . S
C1364 C1360 1.385 . S
C1364 C1363 1.374 . S
C1365 C1362 1.499 . S
C1365 C1366 1.373 . S
C1365 C1367 1.389 . S
C1366 H1339 0.950 . S
C1366 C1352 1.377 . S
C1366 C1365 1.373 . S
C1367 C1351 1.377 . S
C1367 C1365 1.389 . S
C1367 C1368 1.524 . S
C1368 C1367 1.524 . S
C1368 C1369 1.397 . S
C1368 C1373 1.363 . S
C1369 H1340 0.950 . S
C1369 C1368 1.397 . S
C1369 C1370 1.334 . S
C1370 H1341 0.950 . S
C1370 C1369 1.334 . S
C1370 C1371 1.287 . S
C1371 C1370 1.287 . S
C1371 C1372 1.524 . S
C1371 H1374 0.999 . S
C1372 H1342 0.950 . S
C1372 C1371 1.524 . S
C1372 C1373 1.415 . S
C1373 H1343 0.950 . S
C1373 C1368 1.363 . S
C1373 C1372 1.415 . S
H1374 C1371 0.999 . S
H1375 C1356 0.913 . S
H1376 C1394 0.951 . S
H1377 C1396 0.951 . S
H1378 C1398 0.950 . S
H1379 C1399 0.950 . S
H1380 C1401 0.950 . S
H1381 C1404 0.950 . S
H1382 C1405 0.950 . S
H1383 C1407 0.950 . S
H1384 C1408 0.950 . S
H1385 C1409 0.951 . S
H1386 C1411 0.951 . S
H1387 C1413 0.950 . S
H1388 C1414 0.950 . S
H1389 C1416 0.950 . S
H1390 C1419 0.950 . S
H1391 C1420 0.950 . S
H1392 C1422 0.950 . S
H1393 C1423 0.950 . S
C1394 H1376 0.951 . S
C1394 C1395 1.366 . S
C1394 C1396 1.388 1_556 S
C1395 C1394 1.366 . S
C1395 C1399 1.385 . S
C1396 H1377 0.951 . S
C1396 C1394 1.388 1_554 S
C1396 C1397 1.366 . S
C1397 C1396 1.366 . S
C1397 C1398 1.414 . S
C1397 C1400 1.499 . S
C1398 H1378 0.950 . S
C1398 C1397 1.414 . S
C1398 C1399 1.374 1_554 S
C1399 H1379 0.950 . S
C1399 C1395 1.385 . S
C1399 C1398 1.374 1_556 S
C1400 C1397 1.499 . S
C1400 C1401 1.373 . S
C1400 C1402 1.389 . S
C1401 H1380 0.950 . S
C1401 C1400 1.373 . S
C1401 C1417 1.377 . S
C1402 C1400 1.389 . S
C1402 C1403 1.524 . S
C1402 C1416 1.377 . S
C1403 C1402 1.524 . S
C1403 C1404 1.397 1_554 S
C1403 C1408 1.363 . S
C1404 H1381 0.950 . S
C1404 C1403 1.397 1_556 S
C1404 C1405 1.334 . S
C1405 H1382 0.950 . S
C1405 C1404 1.334 . S
C1405 C1406 1.287 . S
C1406 C1405 1.287 . S
C1406 C1407 1.524 . S
C1406 H1425 0.913 . S
C1407 H1383 0.950 . S
C1407 C1406 1.524 . S
C1407 C1408 1.415 1_556 S
C1408 H1384 0.950 . S
C1408 C1403 1.363 . S
C1408 C1407 1.415 1_554 S
C1409 H1385 0.951 . S
C1409 C1410 1.366 . S
C1409 C1411 1.388 . S
C1410 C1409 1.366 . S
C1410 C1414 1.385 . S
C1411 H1386 0.951 . S
C1411 C1409 1.388 . S
C1411 C1412 1.366 . S
C1412 C1411 1.366 . S
C1412 C1413 1.414 . S
C1412 C1415 1.499 . S
C1413 H1387 0.950 . S
C1413 C1412 1.414 . S
C1413 C1414 1.374 . S
C1414 H1388 0.950 . S
C1414 C1410 1.385 . S
C1414 C1413 1.374 . S
C1415 C1412 1.499 . S
C1415 C1416 1.373 . S
C1415 C1417 1.389 . S
C1416 H1389 0.950 . S
C1416 C1402 1.377 . S
C1416 C1415 1.373 . S
C1417 C1401 1.377 . S
C1417 C1415 1.389 . S
C1417 C1418 1.524 . S
C1418 C1417 1.524 . S
C1418 C1419 1.397 . S
C1418 C1423 1.363 . S
C1419 H1390 0.950 . S
C1419 C1418 1.397 . S
C1419 C1420 1.334 . S
C1420 H1391 0.950 . S
C1420 C1419 1.334 . S
C1420 C1421 1.287 . S
C1421 C1420 1.287 . S
C1421 C1422 1.524 . S
C1421 H1424 0.999 . S
C1422 H1392 0.950 . S
C1422 C1421 1.524 . S
C1422 C1423 1.415 . S
C1423 H1393 0.950 . S
C1423 C1418 1.363 . S
C1423 C1422 1.415 . S
H1424 C1421 0.999 . S
H1425 C1406 0.913 . S
H1426 C1444 0.951 . S
H1427 C1446 0.951 . S
H1428 C1448 0.950 . S
H1429 C1449 0.950 . S
H1430 C1451 0.950 . S
H1431 C1454 0.950 . S
H1432 C1455 0.950 . S
H1433 C1457 0.950 . S
H1434 C1458 0.950 . S
H1435 C1459 0.951 . S
H1436 C1461 0.951 . S
H1437 C1463 0.950 . S
H1438 C1464 0.950 . S
H1439 C1466 0.950 . S
H1440 C1469 0.950 . S
H1441 C1470 0.950 . S
H1442 C1472 0.950 . S
H1443 C1473 0.950 . S
C1444 H1426 0.951 . S
C1444 C1445 1.366 . S
C1444 C1446 1.388 . S
C1445 C1444 1.366 . S
C1445 C1449 1.385 . S
C1446 H1427 0.951 . S
C1446 C1444 1.388 . S
C1446 C1447 1.366 . S
C1447 C1446 1.366 . S
C1447 C1448 1.414 . S
C1447 C1450 1.499 . S
C1448 H1428 0.950 . S
C1448 C1447 1.414 . S
C1448 C1449 1.374 . S
C1449 H1429 0.950 . S
C1449 C1445 1.385 . S
C1449 C1448 1.374 . S
C1450 C1447 1.499 . S
C1450 C1451 1.373 . S
C1450 C1452 1.389 . S
C1451 H1430 0.950 . S
C1451 C1450 1.373 . S
C1451 C1467 1.377 . S
C1452 C1450 1.389 . S
C1452 C1453 1.524 . S
C1452 C1466 1.377 . S
C1453 C1452 1.524 . S
C1453 C1454 1.397 . S
C1453 C1458 1.363 . S
C1454 H1431 0.950 . S
C1454 C1453 1.397 . S
C1454 C1455 1.334 . S
C1455 H1432 0.950 . S
C1455 C1454 1.334 . S
C1455 C1456 1.287 . S
C1456 C1455 1.287 . S
C1456 C1457 1.524 . S
C1456 H1475 0.913 . S
C1457 H1433 0.950 . S
C1457 C1456 1.524 . S
C1457 C1458 1.415 . S
C1458 H1434 0.950 . S
C1458 C1453 1.363 . S
C1458 C1457 1.415 . S
C1459 H1435 0.951 . S
C1459 C1460 1.366 . S
C1459 C1461 1.388 . S
C1460 C1459 1.366 . S
C1460 C1464 1.385 . S
C1461 H1436 0.951 . S
C1461 C1459 1.388 . S
C1461 C1462 1.366 . S
C1462 C1461 1.366 . S
C1462 C1463 1.414 . S
C1462 C1465 1.499 . S
C1463 H1437 0.950 . S
C1463 C1462 1.414 . S
C1463 C1464 1.374 . S
C1464 H1438 0.950 . S
C1464 C1460 1.385 . S
C1464 C1463 1.374 . S
C1465 C1462 1.499 . S
C1465 C1466 1.373 . S
C1465 C1467 1.389 . S
C1466 H1439 0.950 . S
C1466 C1452 1.377 . S
C1466 C1465 1.373 . S
C1467 C1451 1.377 . S
C1467 C1465 1.389 . S
C1467 C1468 1.524 . S
C1468 C1467 1.524 . S
C1468 C1469 1.397 . S
C1468 C1473 1.363 . S
C1469 H1440 0.950 . S
C1469 C1468 1.397 . S
C1469 C1470 1.334 . S
C1470 H1441 0.950 . S
C1470 C1469 1.334 . S
C1470 C1471 1.287 . S
C1471 C1470 1.287 . S
C1471 C1472 1.524 . S
C1471 H1474 0.999 . S
C1472 H1442 0.950 . S
C1472 C1471 1.524 . S
C1472 C1473 1.415 . S
C1473 H1443 0.950 . S
C1473 C1468 1.363 . S
C1473 C1472 1.415 . S
H1474 C1471 0.999 . S
H1475 C1456 0.913 . S
H1476 C1494 0.951 . S
H1477 C1496 0.951 . S
H1478 C1498 0.950 . S
H1479 C1499 0.950 . S
H1480 C1501 0.950 . S
H1481 C1504 0.950 . S
H1482 C1505 0.950 . S
H1483 C1507 0.950 . S
H1484 C1508 0.950 . S
H1485 C1509 0.951 . S
H1486 C1511 0.951 . S
H1487 C1513 0.950 . S
H1488 C1514 0.950 . S
H1489 C1516 0.950 . S
H1490 C1519 0.950 . S
H1491 C1520 0.950 . S
H1492 C1522 0.950 . S
H1493 C1523 0.950 . S
C1494 H1476 0.951 . S
C1494 C1495 1.366 . S
C1494 C1496 1.388 . S
C1495 C1494 1.366 . S
C1495 C1499 1.385 . S
C1496 H1477 0.951 . S
C1496 C1494 1.388 . S
C1496 C1497 1.366 . S
C1497 C1496 1.366 . S
C1497 C1498 1.414 . S
C1497 C1500 1.499 . S
C1498 H1478 0.950 . S
C1498 C1497 1.414 . S
C1498 C1499 1.374 . S
C1499 H1479 0.950 . S
C1499 C1495 1.385 . S
C1499 C1498 1.374 . S
C1500 C1497 1.499 . S
C1500 C1501 1.373 . S
C1500 C1502 1.389 . S
C1501 H1480 0.950 . S
C1501 C1500 1.373 . S
C1501 C1517 1.377 . S
C1502 C1500 1.389 . S
C1502 C1503 1.524 . S
C1502 C1516 1.377 . S
C1503 C1502 1.524 . S
C1503 C1504 1.397 . S
C1503 C1508 1.363 . S
C1504 H1481 0.950 . S
C1504 C1503 1.397 . S
C1504 C1505 1.334 . S
C1505 H1482 0.950 . S
C1505 C1504 1.334 . S
C1505 C1506 1.287 . S
C1506 C1505 1.287 . S
C1506 C1507 1.524 . S
C1506 H1525 0.913 . S
C1507 H1483 0.950 . S
C1507 C1506 1.524 . S
C1507 C1508 1.415 . S
C1508 H1484 0.950 . S
C1508 C1503 1.363 . S
C1508 C1507 1.415 . S
C1509 H1485 0.951 . S
C1509 C1510 1.366 . S
C1509 C1511 1.388 1_556 S
C1510 C1509 1.366 . S
C1510 C1514 1.385 . S
C1511 H1486 0.951 . S
C1511 C1509 1.388 1_554 S
C1511 C1512 1.366 . S
C1512 C1511 1.366 . S
C1512 C1513 1.414 . S
C1512 C1515 1.499 . S
C1513 H1487 0.950 . S
C1513 C1512 1.414 . S
C1513 C1514 1.374 1_554 S
C1514 H1488 0.950 . S
C1514 C1510 1.385 . S
C1514 C1513 1.374 1_556 S
C1515 C1512 1.499 . S
C1515 C1516 1.373 . S
C1515 C1517 1.389 . S
C1516 H1489 0.950 . S
C1516 C1502 1.377 . S
C1516 C1515 1.373 . S
C1517 C1501 1.377 . S
C1517 C1515 1.389 . S
C1517 C1518 1.524 . S
C1518 C1517 1.524 . S
C1518 C1519 1.397 1_554 S
C1518 C1523 1.363 . S
C1519 H1490 0.950 . S
C1519 C1518 1.397 1_556 S
C1519 C1520 1.334 . S
C1520 H1491 0.950 . S
C1520 C1519 1.334 . S
C1520 C1521 1.287 . S
C1521 C1520 1.287 . S
C1521 C1522 1.524 1_556 S
C1521 H1524 0.999 . S
C1522 H1492 0.950 . S
C1522 C1521 1.524 1_554 S
C1522 C1523 1.415 . S
C1523 H1493 0.950 . S
C1523 C1518 1.363 . S
C1523 C1522 1.415 . S
H1524 C1521 0.999 . S
H1525 C1506 0.913 . S
H1526 C1544 0.951 . S
H1527 C1546 0.951 . S
H1528 C1548 0.950 . S
H1529 C1549 0.950 . S
H1530 C1551 0.950 . S
H1531 C1554 0.950 . S
H1532 C1555 0.950 . S
H1533 C1557 0.950 . S
H1534 C1558 0.950 . S
H1535 C1559 0.951 . S
H1536 C1561 0.951 . S
H1537 C1563 0.950 . S
H1538 C1564 0.950 . S
H1539 C1566 0.950 . S
H1540 C1569 0.950 . S
H1541 C1570 0.950 . S
H1542 C1572 0.950 . S
H1543 C1573 0.950 . S
C1544 H1526 0.951 . S
C1544 C1545 1.366 . S
C1544 C1546 1.388 . S
C1545 C1544 1.366 . S
C1545 C1549 1.385 . S
C1546 H1527 0.951 . S
C1546 C1544 1.388 . S
C1546 C1547 1.366 . S
C1547 C1546 1.366 . S
C1547 C1548 1.414 . S
C1547 C1550 1.499 . S
C1548 H1528 0.950 . S
C1548 C1547 1.414 . S
C1548 C1549 1.374 . S
C1549 H1529 0.950 . S
C1549 C1545 1.385 . S
C1549 C1548 1.374 . S
C1550 C1547 1.499 . S
C1550 C1551 1.373 . S
C1550 C1552 1.389 . S
C1551 H1530 0.950 . S
C1551 C1550 1.373 . S
C1551 C1567 1.377 . S
C1552 C1550 1.389 . S
C1552 C1553 1.524 . S
C1552 C1566 1.377 . S
C1553 C1552 1.524 . S
C1553 C1554 1.397 . S
C1553 C1558 1.363 . S
C1554 H1531 0.950 . S
C1554 C1553 1.397 . S
C1554 C1555 1.334 . S
C1555 H1532 0.950 . S
C1555 C1554 1.334 . S
C1555 C1556 1.287 . S
C1556 C1555 1.287 . S
C1556 C1557 1.524 . S
C1556 H1575 0.913 . S
C1557 H1533 0.950 . S
C1557 C1556 1.524 . S
C1557 C1558 1.415 . S
C1558 H1534 0.950 . S
C1558 C1553 1.363 . S
C1558 C1557 1.415 . S
C1559 H1535 0.951 . S
C1559 C1560 1.366 . S
C1559 C1561 1.388 . S
C1560 C1559 1.366 . S
C1560 C1564 1.385 . S
C1561 H1536 0.951 . S
C1561 C1559 1.388 . S
C1561 C1562 1.366 . S
C1562 C1561 1.366 . S
C1562 C1563 1.414 . S
C1562 C1565 1.499 . S
C1563 H1537 0.950 . S
C1563 C1562 1.414 . S
C1563 C1564 1.374 . S
C1564 H1538 0.950 . S
C1564 C1560 1.385 . S
C1564 C1563 1.374 . S
C1565 C1562 1.499 . S
C1565 C1566 1.373 . S
C1565 C1567 1.389 . S
C1566 H1539 0.950 . S
C1566 C1552 1.377 . S
C1566 C1565 1.373 . S
C1567 C1551 1.377 . S
C1567 C1565 1.389 . S
C1567 C1568 1.524 . S
C1568 C1567 1.524 . S
C1568 C1569 1.397 . S
C1568 C1573 1.363 . S
C1569 H1540 0.950 . S
C1569 C1568 1.397 . S
C1569 C1570 1.334 . S
C1570 H1541 0.950 . S
C1570 C1569 1.334 . S
C1570 C1571 1.287 . S
C1571 C1570 1.287 . S
C1571 C1572 1.524 . S
C1571 H1574 0.999 . S
C1572 H1542 0.950 . S
C1572 C1571 1.524 . S
C1572 C1573 1.415 . S
C1573 H1543 0.950 . S
C1573 C1568 1.363 . S
C1573 C1572 1.415 . S
H1574 C1571 0.999 . S
H1575 C1556 0.913 . S
H1576 C1594 0.951 . S
H1577 C1596 0.951 . S
H1578 C1598 0.950 . S
H1579 C1599 0.950 . S
H1580 C1601 0.950 . S
H1581 C1604 0.950 . S
H1582 C1605 0.950 . S
H1583 C1607 0.950 . S
H1584 C1608 0.950 . S
H1585 C1609 0.951 . S
H1586 C1611 0.951 . S
H1587 C1613 0.950 . S
H1588 C1614 0.950 . S
H1589 C1616 0.950 . S
H1590 C1619 0.950 . S
H1591 C1620 0.950 . S
H1592 C1622 0.950 . S
H1593 C1623 0.950 . S
C1594 H1576 0.951 . S
C1594 C1595 1.366 . S
C1594 C1596 1.388 . S
C1595 C1594 1.366 . S
C1595 C1599 1.385 . S
C1596 H1577 0.951 . S
C1596 C1594 1.388 . S
C1596 C1597 1.366 . S
C1597 C1596 1.366 . S
C1597 C1598 1.414 . S
C1597 C1600 1.499 . S
C1598 H1578 0.950 . S
C1598 C1597 1.414 . S
C1598 C1599 1.374 . S
C1599 H1579 0.950 . S
C1599 C1595 1.385 . S
C1599 C1598 1.374 . S
C1600 C1597 1.499 . S
C1600 C1601 1.373 . S
C1600 C1602 1.389 . S
C1601 H1580 0.950 . S
C1601 C1600 1.373 . S
C1601 C1617 1.377 . S
C1602 C1600 1.389 . S
C1602 C1603 1.524 . S
C1602 C1616 1.377 . S
C1603 C1602 1.524 . S
C1603 C1604 1.397 . S
C1603 C1608 1.363 . S
C1604 H1581 0.950 . S
C1604 C1603 1.397 . S
C1604 C1605 1.334 . S
C1605 H1582 0.950 . S
C1605 C1604 1.334 . S
C1605 C1606 1.287 . S
C1606 C1605 1.287 . S
C1606 C1607 1.524 . S
C1606 H1625 0.913 . S
C1607 H1583 0.950 . S
C1607 C1606 1.524 . S
C1607 C1608 1.415 . S
C1608 H1584 0.950 . S
C1608 C1603 1.363 . S
C1608 C1607 1.415 . S
C1609 H1585 0.951 . S
C1609 C1610 1.366 . S
C1609 C1611 1.388 1_554 S
C1610 C1609 1.366 . S
C1610 C1614 1.385 . S
C1611 H1586 0.951 . S
C1611 C1609 1.388 1_556 S
C1611 C1612 1.366 . S
C1612 C1611 1.366 . S
C1612 C1613 1.414 . S
C1612 C1615 1.499 . S
C1613 H1587 0.950 . S
C1613 C1612 1.414 . S
C1613 C1614 1.374 1_556 S
C1614 H1588 0.950 . S
C1614 C1610 1.385 . S
C1614 C1613 1.374 1_554 S
C1615 C1612 1.499 . S
C1615 C1616 1.373 . S
C1615 C1617 1.389 . S
C1616 H1589 0.950 . S
C1616 C1602 1.377 . S
C1616 C1615 1.373 . S
C1617 C1601 1.377 . S
C1617 C1615 1.389 . S
C1617 C1618 1.524 . S
C1618 C1617 1.524 . S
C1618 C1619 1.397 . S
C1618 C1623 1.363 . S
C1619 H1590 0.950 . S
C1619 C1618 1.397 . S
C1619 C1620 1.334 . S
C1620 H1591 0.950 . S
C1620 C1619 1.334 . S
C1620 C1621 1.287 . S
C1621 C1620 1.287 . S
C1621 C1622 1.524 . S
C1621 H1624 0.999 . S
C1622 H1592 0.950 . S
C1622 C1621 1.524 . S
C1622 C1623 1.415 . S
C1623 H1593 0.950 . S
C1623 C1618 1.363 . S
C1623 C1622 1.415 . S
H1624 C1621 0.999 . S
H1625 C1606 0.913 . S
H1626 C1644 0.951 . S
H1627 C1646 0.951 . S
H1628 C1648 0.950 . S
H1629 C1649 0.950 . S
H1630 C1651 0.950 . S
H1631 C1654 0.950 . S
H1632 C1655 0.950 . S
H1633 C1657 0.950 . S
H1634 C1658 0.950 . S
H1635 C1659 0.951 . S
H1636 C1661 0.951 . S
H1637 C1663 0.950 . S
H1638 C1664 0.950 . S
H1639 C1666 0.950 . S
H1640 C1669 0.950 . S
H1641 C1670 0.950 . S
H1642 C1672 0.950 . S
H1643 C1673 0.950 . S
C1644 H1626 0.951 . S
C1644 C1645 1.366 . S
C1644 C1646 1.388 . S
C1645 C1644 1.366 . S
C1645 C1649 1.385 . S
C1646 H1627 0.951 . S
C1646 C1644 1.388 . S
C1646 C1647 1.366 . S
C1647 C1646 1.366 . S
C1647 C1648 1.414 . S
C1647 C1650 1.499 . S
C1648 H1628 0.950 . S
C1648 C1647 1.414 . S
C1648 C1649 1.374 . S
C1649 H1629 0.950 . S
C1649 C1645 1.385 . S
C1649 C1648 1.374 . S
C1650 C1647 1.499 . S
C1650 C1651 1.373 . S
C1650 C1652 1.389 . S
C1651 H1630 0.950 . S
C1651 C1650 1.373 . S
C1651 C1667 1.377 . S
C1652 C1650 1.389 . S
C1652 C1653 1.524 . S
C1652 C1666 1.377 . S
C1653 C1652 1.524 . S
C1653 C1654 1.397 . S
C1653 C1658 1.363 . S
C1654 H1631 0.950 . S
C1654 C1653 1.397 . S
C1654 C1655 1.334 . S
C1655 H1632 0.950 . S
C1655 C1654 1.334 . S
C1655 C1656 1.287 . S
C1656 C1655 1.287 . S
C1656 C1657 1.524 . S
C1656 H1675 0.913 . S
C1657 H1633 0.950 . S
C1657 C1656 1.524 . S
C1657 C1658 1.415 . S
C1658 H1634 0.950 . S
C1658 C1653 1.363 . S
C1658 C1657 1.415 . S
C1659 H1635 0.951 . S
C1659 C1660 1.366 . S
C1659 C1661 1.388 . S
C1660 C1659 1.366 . S
C1660 C1664 1.385 . S
C1661 H1636 0.951 . S
C1661 C1659 1.388 . S
C1661 C1662 1.366 . S
C1662 C1661 1.366 . S
C1662 C1663 1.414 . S
C1662 C1665 1.499 . S
C1663 H1637 0.950 . S
C1663 C1662 1.414 . S
C1663 C1664 1.374 . S
C1664 H1638 0.950 . S
C1664 C1660 1.385 . S
C1664 C1663 1.374 . S
C1665 C1662 1.499 . S
C1665 C1666 1.373 . S
C1665 C1667 1.389 . S
C1666 H1639 0.950 . S
C1666 C1652 1.377 . S
C1666 C1665 1.373 . S
C1667 C1651 1.377 . S
C1667 C1665 1.389 . S
C1667 C1668 1.524 . S
C1668 C1667 1.524 . S
C1668 C1669 1.397 . S
C1668 C1673 1.363 . S
C1669 H1640 0.950 . S
C1669 C1668 1.397 . S
C1669 C1670 1.334 . S
C1670 H1641 0.950 . S
C1670 C1669 1.334 . S
C1670 C1671 1.287 . S
C1671 C1670 1.287 . S
C1671 C1672 1.524 . S
C1671 H1674 0.999 . S
C1672 H1642 0.950 . S
C1672 C1671 1.524 . S
C1672 C1673 1.415 . S
C1673 H1643 0.950 . S
C1673 C1668 1.363 . S
C1673 C1672 1.415 . S
H1674 C1671 0.999 . S
H1675 C1656 0.913 . S
H1676 C1694 0.951 . S
H1677 C1696 0.951 . S
H1678 C1698 0.950 . S
H1679 C1699 0.950 . S
H1680 C1701 0.950 . S
H1681 C1704 0.950 1_556 S
H1682 C1705 0.950 . S
H1683 C1707 0.950 . S
H1684 C1708 0.950 1_556 S
H1685 C1709 0.951 . S
H1686 C1711 0.951 . S
H1687 C1713 0.950 . S
H1688 C1714 0.950 . S
H1689 C1716 0.950 . S
H1690 C1719 0.950 . S
H1691 C1720 0.950 . S
H1692 C1722 0.950 . S
H1693 C1723 0.950 . S
C1694 H1676 0.951 . S
C1694 C1695 1.366 . S
C1694 C1696 1.388 . S
C1695 C1694 1.366 . S
C1695 C1699 1.383 1_554 S
C1696 H1677 0.951 . S
C1696 C1694 1.388 . S
C1696 C1697 1.366 1_554 S
C1697 C1696 1.366 1_556 S
C1697 C1698 1.414 . S
C1697 C1700 1.499 . S
C1698 H1678 0.950 . S
C1698 C1697 1.414 . S
C1698 C1699 1.375 . S
C1699 H1679 0.950 . S
C1699 C1695 1.383 1_556 S
C1699 C1698 1.375 . S
C1700 C1697 1.499 . S
C1700 C1701 1.373 . S
C1700 C1702 1.389 . S
C1701 H1680 0.950 . S
C1701 C1700 1.373 . S
C1701 C1717 1.377 . S
C1702 C1700 1.389 . S
C1702 C1703 1.524 . S
C1702 C1716 1.377 . S
C1703 C1702 1.524 . S
C1703 C1704 1.397 1_556 S
C1703 C1708 1.363 1_556 S
C1704 H1681 0.950 1_554 S
C1704 C1703 1.397 1_554 S
C1704 C1705 1.334 . S
C1705 H1682 0.950 . S
C1705 C1704 1.334 . S
C1705 C1706 1.287 . S
C1706 C1705 1.287 . S
C1706 C1707 1.524 . S
C1706 H1725 0.913 . S
C1707 H1683 0.950 . S
C1707 C1706 1.524 . S
C1707 C1708 1.415 . S
C1708 H1684 0.950 1_554 S
C1708 C1703 1.363 1_554 S
C1708 C1707 1.415 . S
C1709 H1685 0.951 . S
C1709 C1710 1.366 . S
C1709 C1711 1.388 . S
C1710 C1709 1.366 . S
C1710 C1714 1.385 . S
C1711 H1686 0.951 . S
C1711 C1709 1.388 . S
C1711 C1712 1.366 . S
C1712 C1711 1.366 . S
C1712 C1713 1.414 . S
C1712 C1715 1.499 . S
C1713 H1687 0.950 . S
C1713 C1712 1.414 . S
C1713 C1714 1.374 . S
C1714 H1688 0.950 . S
C1714 C1710 1.385 . S
C1714 C1713 1.374 . S
C1715 C1712 1.499 . S
C1715 C1716 1.373 . S
C1715 C1717 1.389 . S
C1716 H1689 0.950 . S
C1716 C1702 1.377 . S
C1716 C1715 1.373 . S
C1717 C1701 1.377 . S
C1717 C1715 1.389 . S
C1717 C1718 1.524 . S
C1718 C1717 1.524 . S
C1718 C1719 1.397 . S
C1718 C1723 1.363 . S
C1719 H1690 0.950 . S
C1719 C1718 1.397 . S
C1719 C1720 1.334 . S
C1720 H1691 0.950 . S
C1720 C1719 1.334 . S
C1720 C1721 1.287 . S
C1721 C1720 1.287 . S
C1721 C1722 1.524 . S
C1721 H1724 0.999 . S
C1722 H1692 0.950 . S
C1722 C1721 1.524 . S
C1722 C1723 1.415 . S
C1723 H1693 0.950 . S
C1723 C1718 1.363 . S
C1723 C1722 1.415 . S
H1724 C1721 0.999 . S
H1725 C1706 0.913 . S
H1726 C1744 0.951 . S
H1727 C1746 0.951 . S
H1728 C1748 0.950 . S
H1729 C1749 0.950 . S
H1730 C1751 0.950 . S
H1731 C1754 0.950 . S
H1732 C1755 0.950 . S
H1733 C1757 0.950 . S
H1734 C1758 0.950 . S
H1735 C1759 0.951 . S
H1736 C1761 0.951 . S
H1737 C1763 0.950 . S
H1738 C1764 0.950 . S
H1739 C1766 0.950 . S
H1740 C1769 0.950 . S
H1741 C1770 0.950 . S
H1742 C1772 0.950 . S
H1743 C1773 0.950 . S
C1744 H1726 0.951 . S
C1744 C1745 1.366 . S
C1744 C1746 1.388 . S
C1745 C1744 1.366 . S
C1745 C1749 1.385 . S
C1746 H1727 0.951 . S
C1746 C1744 1.388 . S
C1746 C1747 1.366 . S
C1747 C1746 1.366 . S
C1747 C1748 1.414 . S
C1747 C1750 1.499 . S
C1748 H1728 0.950 . S
C1748 C1747 1.414 . S
C1748 C1749 1.374 . S
C1749 H1729 0.950 . S
C1749 C1745 1.385 . S
C1749 C1748 1.374 . S
C1750 C1747 1.499 . S
C1750 C1751 1.373 . S
C1750 C1752 1.389 . S
C1751 H1730 0.950 . S
C1751 C1750 1.373 . S
C1751 C1767 1.377 . S
C1752 C1750 1.389 . S
C1752 C1753 1.524 . S
C1752 C1766 1.377 . S
C1753 C1752 1.524 . S
C1753 C1754 1.397 . S
C1753 C1758 1.363 . S
C1754 H1731 0.950 . S
C1754 C1753 1.397 . S
C1754 C1755 1.334 . S
C1755 H1732 0.950 . S
C1755 C1754 1.334 . S
C1755 C1756 1.287 . S
C1756 C1755 1.287 . S
C1756 C1757 1.524 . S
C1756 H1775 0.913 . S
C1757 H1733 0.950 . S
C1757 C1756 1.524 . S
C1757 C1758 1.415 . S
C1758 H1734 0.950 . S
C1758 C1753 1.363 . S
C1758 C1757 1.415 . S
C1759 H1735 0.951 . S
C1759 C1760 1.366 . S
C1759 C1761 1.388 . S
C1760 C1759 1.366 . S
C1760 C1764 1.385 . S
C1761 H1736 0.951 . S
C1761 C1759 1.388 . S
C1761 C1762 1.366 . S
C1762 C1761 1.366 . S
C1762 C1763 1.414 . S
C1762 C1765 1.499 . S
C1763 H1737 0.950 . S
C1763 C1762 1.414 . S
C1763 C1764 1.374 . S
C1764 H1738 0.950 . S
C1764 C1760 1.385 . S
C1764 C1763 1.374 . S
C1765 C1762 1.499 . S
C1765 C1766 1.373 . S
C1765 C1767 1.389 . S
C1766 H1739 0.950 . S
C1766 C1752 1.377 . S
C1766 C1765 1.373 . S
C1767 C1751 1.377 . S
C1767 C1765 1.389 . S
C1767 C1768 1.524 . S
C1768 C1767 1.524 . S
C1768 C1769 1.397 . S
C1768 C1773 1.363 . S
C1769 H1740 0.950 . S
C1769 C1768 1.397 . S
C1769 C1770 1.334 . S
C1770 H1741 0.950 . S
C1770 C1769 1.334 . S
C1770 C1771 1.287 . S
C1771 C1770 1.287 . S
C1771 C1772 1.524 . S
C1771 H1774 0.999 . S
C1772 H1742 0.950 . S
C1772 C1771 1.524 . S
C1772 C1773 1.415 . S
C1773 H1743 0.950 . S
C1773 C1768 1.363 . S
C1773 C1772 1.415 . S
H1774 C1771 0.999 . S
H1775 C1756 0.913 . S
H1776 C1794 0.951 . S
H1777 C1796 0.951 . S
H1778 C1798 0.950 . S
H1779 C1799 0.950 . S
H1780 C1801 0.950 . S
H1781 C1804 0.950 . S
H1782 C1805 0.950 . S
H1783 C1807 0.950 . S
H1784 C1808 0.950 . S
H1785 C1809 0.951 . S
H1786 C1811 0.951 . S
H1787 C1813 0.950 . S
H1788 C1814 0.950 . S
H1789 C1816 0.950 . S
H1790 C1819 0.950 . S
H1791 C1820 0.950 . S
H1792 C1822 0.950 . S
H1793 C1823 0.950 . S
C1794 H1776 0.951 . S
C1794 C1795 1.366 . S
C1794 C1796 1.388 . S
C1795 C1794 1.366 . S
C1795 C1799 1.385 . S
C1796 H1777 0.951 . S
C1796 C1794 1.388 . S
C1796 C1797 1.366 . S
C1797 C1796 1.366 . S
C1797 C1798 1.414 . S
C1797 C1800 1.499 . S
C1798 H1778 0.950 . S
C1798 C1797 1.414 . S
C1798 C1799 1.374 . S
C1799 H1779 0.950 . S
C1799 C1795 1.385 . S
C1799 C1798 1.374 . S
C1800 C1797 1.499 . S
C1800 C1801 1.373 . S
C1800 C1802 1.389 . S
C1801 H1780 0.950 . S
C1801 C1800 1.373 . S
C1801 C1817 1.377 . S
C1802 C1800 1.389 . S
C1802 C1803 1.524 . S
C1802 C1816 1.377 . S
C1803 C1802 1.524 . S
C1803 C1804 1.397 . S
C1803 C1808 1.363 . S
C1804 H1781 0.950 . S
C1804 C1803 1.397 . S
C1804 C1805 1.334 . S
C1805 H1782 0.950 . S
C1805 C1804 1.334 . S
C1805 C1806 1.287 . S
C1806 C1805 1.287 . S
C1806 C1807 1.524 . S
C1806 H1825 0.913 . S
C1807 H1783 0.950 . S
C1807 C1806 1.524 . S
C1807 C1808 1.415 . S
C1808 H1784 0.950 . S
C1808 C1803 1.363 . S
C1808 C1807 1.415 . S
C1809 H1785 0.951 . S
C1809 C1810 1.366 . S
C1809 C1811 1.388 . S
C1810 C1809 1.366 . S
C1810 C1814 1.385 . S
C1811 H1786 0.951 . S
C1811 C1809 1.388 . S
C1811 C1812 1.366 . S
C1812 C1811 1.366 . S
C1812 C1813 1.414 . S
C1812 C1815 1.499 . S
C1813 H1787 0.950 . S
C1813 C1812 1.414 . S
C1813 C1814 1.374 . S
C1814 H1788 0.950 . S
C1814 C1810 1.385 . S
C1814 C1813 1.374 . S
C1815 C1812 1.499 . S
C1815 C1816 1.373 . S
C1815 C1817 1.389 . S
C1816 H1789 0.950 . S
C1816 C1802 1.377 . S
C1816 C1815 1.373 . S
C1817 C1801 1.377 . S
C1817 C1815 1.389 . S
C1817 C1818 1.524 . S
C1818 C1817 1.524 . S
C1818 C1819 1.397 . S
C1818 C1823 1.363 . S
C1819 H1790 0.950 . S
C1819 C1818 1.397 . S
C1819 C1820 1.334 . S
C1820 H1791 0.950 . S
C1820 C1819 1.334 . S
C1820 C1821 1.287 . S
C1821 C1820 1.287 . S
C1821 C1822 1.524 . S
C1821 H1824 0.999 . S
C1822 H1792 0.950 . S
C1822 C1821 1.524 . S
C1822 C1823 1.415 . S
C1823 H1793 0.950 . S
C1823 C1818 1.363 . S
C1823 C1822 1.415 . S
H1824 C1821 0.999 . S
H1825 C1806 0.913 . S
H1826 C1844 0.951 . S
H1827 C1846 0.951 . S
H1828 C1848 0.950 . S
H1829 C1849 0.950 . S
H1830 C1851 0.950 . S
H1831 C1854 0.950 . S
H1832 C1855 0.950 . S
H1833 C1857 0.950 . S
H1834 C1858 0.950 . S
H1835 C1859 0.951 . S
H1836 C1861 0.951 . S
H1837 C1863 0.950 . S
H1838 C1864 0.950 . S
H1839 C1866 0.950 . S
H1840 C1869 0.950 . S
H1841 C1870 0.950 . S
H1842 C1872 0.950 . S
H1843 C1873 0.950 . S
C1844 H1826 0.951 . S
C1844 C1845 1.366 . S
C1844 C1846 1.388 . S
C1845 C1844 1.366 . S
C1845 C1849 1.385 . S
C1846 H1827 0.951 . S
C1846 C1844 1.388 . S
C1846 C1847 1.366 . S
C1847 C1846 1.366 . S
C1847 C1848 1.414 . S
C1847 C1850 1.499 . S
C1848 H1828 0.950 . S
C1848 C1847 1.414 . S
C1848 C1849 1.374 . S
C1849 H1829 0.950 . S
C1849 C1845 1.385 . S
C1849 C1848 1.374 . S
C1850 C1847 1.499 . S
C1850 C1851 1.373 . S
C1850 C1852 1.389 . S
C1851 H1830 0.950 . S
C1851 C1850 1.373 . S
C1851 C1867 1.377 . S
C1852 C1850 1.389 . S
C1852 C1853 1.524 . S
C1852 C1866 1.377 . S
C1853 C1852 1.524 . S
C1853 C1854 1.397 . S
C1853 C1858 1.363 . S
C1854 H1831 0.950 . S
C1854 C1853 1.397 . S
C1854 C1855 1.334 . S
C1855 H1832 0.950 . S
C1855 C1854 1.334 . S
C1855 C1856 1.287 . S
C1856 C1855 1.287 . S
C1856 C1857 1.524 . S
C1856 H1875 0.913 . S
C1857 H1833 0.950 . S
C1857 C1856 1.524 . S
C1857 C1858 1.415 . S
C1858 H1834 0.950 . S
C1858 C1853 1.363 . S
C1858 C1857 1.415 . S
C1859 H1835 0.951 . S
C1859 C1860 1.366 . S
C1859 C1861 1.388 . S
C1860 C1859 1.366 . S
C1860 C1864 1.385 . S
C1861 H1836 0.951 . S
C1861 C1859 1.388 . S
C1861 C1862 1.366 . S
C1862 C1861 1.366 . S
C1862 C1863 1.414 . S
C1862 C1865 1.499 . S
C1863 H1837 0.950 . S
C1863 C1862 1.414 . S
C1863 C1864 1.374 . S
C1864 H1838 0.950 . S
C1864 C1860 1.385 . S
C1864 C1863 1.374 . S
C1865 C1862 1.499 . S
C1865 C1866 1.373 . S
C1865 C1867 1.389 . S
C1866 H1839 0.950 . S
C1866 C1852 1.377 . S
C1866 C1865 1.373 . S
C1867 C1851 1.377 . S
C1867 C1865 1.389 . S
C1867 C1868 1.524 . S
C1868 C1867 1.524 . S
C1868 C1869 1.397 . S
C1868 C1873 1.363 . S
C1869 H1840 0.950 . S
C1869 C1868 1.397 . S
C1869 C1870 1.334 . S
C1870 H1841 0.950 . S
C1870 C1869 1.334 . S
C1870 C1871 1.287 . S
C1871 C1870 1.287 . S
C1871 C1872 1.524 . S
C1871 H1874 0.999 . S
C1872 H1842 0.950 . S
C1872 C1871 1.524 . S
C1872 C1873 1.415 . S
C1873 H1843 0.950 . S
C1873 C1868 1.363 . S
C1873 C1872 1.415 . S
H1874 C1871 0.999 . S
H1875 C1856 0.913 . S
H1876 C1894 0.951 . S
H1877 C1896 0.951 . S
H1878 C1898 0.950 . S
H1879 C1899 0.950 . S
H1880 C1901 0.950 . S
H1881 C1904 0.950 . S
H1882 C1905 0.950 . S
H1883 C1907 0.950 . S
H1884 C1908 0.950 . S
H1885 C1909 0.951 . S
H1886 C1911 0.951 . S
H1887 C1913 0.950 . S
H1888 C1914 0.950 . S
H1889 C1916 0.950 . S
H1890 C1919 0.950 . S
H1891 C1920 0.950 . S
H1892 C1922 0.950 . S
H1893 C1923 0.950 . S
C1894 H1876 0.951 . S
C1894 C1895 1.366 . S
C1894 C1896 1.388 . S
C1895 C1894 1.366 . S
C1895 C1899 1.385 . S
C1896 H1877 0.951 . S
C1896 C1894 1.388 . S
C1896 C1897 1.366 . S
C1897 C1896 1.366 . S
C1897 C1898 1.414 . S
C1897 C1900 1.499 . S
C1898 H1878 0.950 . S
C1898 C1897 1.414 . S
C1898 C1899 1.374 . S
C1899 H1879 0.950 . S
C1899 C1895 1.385 . S
C1899 C1898 1.374 . S
C1900 C1897 1.499 . S
C1900 C1901 1.373 . S
C1900 C1902 1.389 . S
C1901 H1880 0.950 . S
C1901 C1900 1.373 . S
C1901 C1917 1.377 . S
C1902 C1900 1.389 . S
C1902 C1903 1.524 . S
C1902 C1916 1.377 . S
C1903 C1902 1.524 . S
C1903 C1904 1.397 . S
C1903 C1908 1.363 . S
C1904 H1881 0.950 . S
C1904 C1903 1.397 . S
C1904 C1905 1.334 . S
C1905 H1882 0.950 . S
C1905 C1904 1.334 . S
C1905 C1906 1.287 . S
C1906 C1905 1.287 . S
C1906 C1907 1.524 . S
C1906 H1925 0.913 . S
C1907 H1883 0.950 . S
C1907 C1906 1.524 . S
C1907 C1908 1.415 . S
C1908 H1884 0.950 . S
C1908 C1903 1.363 . S
C1908 C1907 1.415 . S
C1909 H1885 0.951 . S
C1909 C1910 1.366 . S
C1909 C1911 1.388 . S
C1910 C1909 1.366 . S
C1910 C1914 1.385 . S
C1911 H1886 0.951 . S
C1911 C1909 1.388 . S
C1911 C1912 1.366 . S
C1912 C1911 1.366 . S
C1912 C1913 1.414 . S
C1912 C1915 1.499 . S
C1913 H1887 0.950 . S
C1913 C1912 1.414 . S
C1913 C1914 1.374 . S
C1914 H1888 0.950 . S
C1914 C1910 1.385 . S
C1914 C1913 1.374 . S
C1915 C1912 1.499 . S
C1915 C1916 1.373 . S
C1915 C1917 1.389 . S
C1916 H1889 0.950 . S
C1916 C1902 1.377 . S
C1916 C1915 1.373 . S
C1917 C1901 1.377 . S
C1917 C1915 1.389 . S
C1917 C1918 1.524 . S
C1918 C1917 1.524 . S
C1918 C1919 1.397 . S
C1918 C1923 1.363 . S
C1919 H1890 0.950 . S
C1919 C1918 1.397 . S
C1919 C1920 1.334 . S
C1920 H1891 0.950 . S
C1920 C1919 1.334 . S
C1920 C1921 1.287 . S
C1921 C1920 1.287 . S
C1921 C1922 1.524 . S
C1921 H1924 0.999 . S
C1922 H1892 0.950 . S
C1922 C1921 1.524 . S
C1922 C1923 1.415 . S
C1923 H1893 0.950 . S
C1923 C1918 1.363 . S
C1923 C1922 1.415 . S
H1924 C1921 0.999 . S
H1925 C1906 0.913 . S
H1926 C1944 0.951 . S
H1927 C1946 0.951 . S
H1928 C1948 0.950 . S
H1929 C1949 0.950 . S
H1930 C1951 0.950 . S
H1931 C1954 0.950 . S
H1932 C1955 0.950 . S
H1933 C1957 0.950 . S
H1934 C1958 0.950 . S
H1935 C1959 0.951 . S
H1936 C1961 0.951 . S
H1937 C1963 0.950 . S
H1938 C1964 0.950 . S
H1939 C1966 0.950 . S
H1940 C1969 0.950 . S
H1941 C1970 0.950 . S
H1942 C1972 0.950 . S
H1943 C1973 0.950 . S
C1944 H1926 0.951 . S
C1944 C1945 1.366 . S
C1944 C1946 1.388 . S
C1945 C1944 1.366 . S
C1945 C1949 1.385 . S
C1946 H1927 0.951 . S
C1946 C1944 1.388 . S
C1946 C1947 1.366 . S
C1947 C1946 1.366 . S
C1947 C1948 1.414 . S
C1947 C1950 1.499 . S
C1948 H1928 0.950 . S
C1948 C1947 1.414 . S
C1948 C1949 1.374 . S
C1949 H1929 0.950 . S
C1949 C1945 1.385 . S
C1949 C1948 1.374 . S
C1950 C1947 1.499 . S
C1950 C1951 1.373 . S
C1950 C1952 1.389 . S
C1951 H1930 0.950 . S
C1951 C1950 1.373 . S
C1951 C1967 1.377 . S
C1952 C1950 1.389 . S
C1952 C1953 1.524 . S
C1952 C1966 1.377 . S
C1953 C1952 1.524 . S
C1953 C1954 1.397 . S
C1953 C1958 1.363 . S
C1954 H1931 0.950 . S
C1954 C1953 1.397 . S
C1954 C1955 1.334 . S
C1955 H1932 0.950 . S
C1955 C1954 1.334 . S
C1955 C1956 1.287 . S
C1956 C1955 1.287 . S
C1956 C1957 1.524 . S
C1956 H1975 0.913 . S
C1957 H1933 0.950 . S
C1957 C1956 1.524 . S
C1957 C1958 1.415 . S
C1958 H1934 0.950 . S
C1958 C1953 1.363 . S
C1958 C1957 1.415 . S
C1959 H1935 0.951 . S
C1959 C1960 1.366 . S
C1959 C1961 1.388 . S
C1960 C1959 1.366 . S
C1960 C1964 1.385 . S
C1961 H1936 0.951 . S
C1961 C1959 1.388 . S
C1961 C1962 1.366 . S
C1962 C1961 1.366 . S
C1962 C1963 1.414 . S
C1962 C1965 1.499 . S
C1963 H1937 0.950 . S
C1963 C1962 1.414 . S
C1963 C1964 1.374 . S
C1964 H1938 0.950 . S
C1964 C1960 1.385 . S
C1964 C1963 1.374 . S
C1965 C1962 1.499 . S
C1965 C1966 1.373 . S
C1965 C1967 1.389 . S
C1966 H1939 0.950 . S
C1966 C1952 1.377 . S
C1966 C1965 1.373 . S
C1967 C1951 1.377 . S
C1967 C1965 1.389 . S
C1967 C1968 1.524 . S
C1968 C1967 1.524 . S
C1968 C1969 1.397 . S
C1968 C1973 1.363 . S
C1969 H1940 0.950 . S
C1969 C1968 1.397 . S
C1969 C1970 1.334 . S
C1970 H1941 0.950 . S
C1970 C1969 1.334 . S
C1970 C1971 1.287 . S
C1971 C1970 1.287 . S
C1971 C1972 1.524 . S
C1971 H1974 0.999 . S
C1972 H1942 0.950 . S
C1972 C1971 1.524 . S
C1972 C1973 1.415 . S
C1973 H1943 0.950 . S
C1973 C1968 1.363 . S
C1973 C1972 1.415 . S
H1974 C1971 0.999 . S
H1975 C1956 0.913 . S
H1976 C1994 0.951 . S
H1977 C1996 0.951 . S
H1978 C1998 0.950 . S
H1979 C1999 0.950 . S
H1980 C2001 0.950 . S
H1981 C2004 0.950 . S
H1982 C2005 0.950 . S
H1983 C2007 0.950 . S
H1984 C2008 0.950 . S
H1985 C2009 0.951 . S
H1986 C2011 0.951 . S
H1987 C2013 0.950 . S
H1988 C2014 0.950 . S
H1989 C2016 0.950 . S
H1990 C2019 0.950 . S
H1991 C2020 0.950 . S
H1992 C2022 0.950 . S
H1993 C2023 0.950 . S
C1994 H1976 0.951 . S
C1994 C1995 1.366 . S
C1994 C1996 1.388 . S
C1995 C1994 1.366 . S
C1995 C1999 1.385 . S
C1996 H1977 0.951 . S
C1996 C1994 1.388 . S
C1996 C1997 1.366 . S
C1997 C1996 1.366 . S
C1997 C1998 1.414 . S
C1997 C2000 1.499 . S
C1998 H1978 0.950 . S
C1998 C1997 1.414 . S
C1998 C1999 1.374 . S
C1999 H1979 0.950 . S
C1999 C1995 1.385 . S
C1999 C1998 1.374 . S
C2000 C1997 1.499 . S
C2000 C2001 1.373 . S
C2000 C2002 1.389 . S
C2001 H1980 0.950 . S
C2001 C2000 1.373 . S
C2001 C2017 1.377 . S
C2002 C2000 1.389 . S
C2002 C2003 1.524 . S
C2002 C2016 1.377 . S
C2003 C2002 1.524 . S
C2003 C2004 1.397 . S
C2003 C2008 1.363 . S
C2004 H1981 0.950 . S
C2004 C2003 1.397 . S
C2004 C2005 1.334 . S
C2005 H1982 0.950 . S
C2005 C2004 1.334 . S
C2005 C2006 1.287 . S
C2006 C2005 1.287 . S
C2006 C2007 1.524 . S
C2006 H2025 0.913 . S
C2007 H1983 0.950 . S
C2007 C2006 1.524 . S
C2007 C2008 1.415 . S
C2008 H1984 0.950 . S
C2008 C2003 1.363 . S
C2008 C2007 1.415 . S
C2009 H1985 0.951 . S
C2009 C2010 1.366 . S
C2009 C2011 1.388 . S
C2010 C2009 1.366 . S
C2010 C2014 1.385 . S
C2011 H1986 0.951 . S
C2011 C2009 1.388 . S
C2011 C2012 1.366 . S
C2012 C2011 1.366 . S
C2012 C2013 1.414 . S
C2012 C2015 1.499 . S
C2013 H1987 0.950 . S
C2013 C2012 1.414 . S
C2013 C2014 1.374 . S
C2014 H1988 0.950 . S
C2014 C2010 1.385 . S
C2014 C2013 1.374 . S
C2015 C2012 1.499 . S
C2015 C2016 1.373 . S
C2015 C2017 1.389 . S
C2016 H1989 0.950 . S
C2016 C2002 1.377 . S
C2016 C2015 1.373 . S
C2017 C2001 1.377 . S
C2017 C2015 1.389 . S
C2017 C2018 1.524 . S
C2018 C2017 1.524 . S
C2018 C2019 1.397 . S
C2018 C2023 1.363 . S
C2019 H1990 0.950 . S
C2019 C2018 1.397 . S
C2019 C2020 1.334 . S
C2020 H1991 0.950 . S
C2020 C2019 1.334 . S
C2020 C2021 1.287 . S
C2021 C2020 1.287 . S
C2021 C2022 1.524 . S
C2021 H2024 0.999 . S
C2022 H1992 0.950 . S
C2022 C2021 1.524 . S
C2022 C2023 1.415 . S
C2023 H1993 0.950 . S
C2023 C2018 1.363 . S
C2023 C2022 1.415 . S
H2024 C2021 0.999 . S
H2025 C2006 0.913 . S
H2026 C2044 0.951 . S
H2027 C2046 0.951 . S
H2028 C2048 0.950 . S
H2029 C2049 0.950 . S
H2030 C2051 0.950 . S
H2031 C2054 0.950 . S
H2032 C2055 0.950 . S
H2033 C2057 0.950 . S
H2034 C2058 0.950 . S
H2035 C2059 0.951 . S
H2036 C2061 0.951 . S
H2037 C2063 0.950 . S
H2038 C2064 0.950 . S
H2039 C2066 0.950 . S
H2040 C2069 0.950 . S
H2041 C2070 0.950 . S
H2042 C2072 0.950 . S
H2043 C2073 0.950 . S
C2044 H2026 0.951 . S
C2044 C2045 1.366 . S
C2044 C2046 1.388 . S
C2045 C2044 1.366 . S
C2045 C2049 1.385 . S
C2046 H2027 0.951 . S
C2046 C2044 1.388 . S
C2046 C2047 1.366 . S
C2047 C2046 1.366 . S
C2047 C2048 1.414 . S
C2047 C2050 1.499 . S
C2048 H2028 0.950 . S
C2048 C2047 1.414 . S
C2048 C2049 1.374 . S
C2049 H2029 0.950 . S
C2049 C2045 1.385 . S
C2049 C2048 1.374 . S
C2050 C2047 1.499 . S
C2050 C2051 1.373 . S
C2050 C2052 1.389 . S
C2051 H2030 0.950 . S
C2051 C2050 1.373 . S
C2051 C2067 1.377 . S
C2052 C2050 1.389 . S
C2052 C2053 1.524 . S
C2052 C2066 1.377 . S
C2053 C2052 1.524 . S
C2053 C2054 1.397 . S
C2053 C2058 1.363 . S
C2054 H2031 0.950 . S
C2054 C2053 1.397 . S
C2054 C2055 1.334 . S
C2055 H2032 0.950 . S
C2055 C2054 1.334 . S
C2055 C2056 1.287 . S
C2056 C2055 1.287 . S
C2056 C2057 1.524 . S
C2056 H2075 0.913 . S
C2057 H2033 0.950 . S
C2057 C2056 1.524 . S
C2057 C2058 1.415 . S
C2058 H2034 0.950 . S
C2058 C2053 1.363 . S
C2058 C2057 1.415 . S
C2059 H2035 0.951 . S
C2059 C2060 1.366 . S
C2059 C2061 1.388 . S
C2060 C2059 1.366 . S
C2060 C2064 1.385 . S
C2061 H2036 0.951 . S
C2061 C2059 1.388 . S
C2061 C2062 1.366 . S
C2062 C2061 1.366 . S
C2062 C2063 1.414 . S
C2062 C2065 1.499 . S
C2063 H2037 0.950 . S
C2063 C2062 1.414 . S
C2063 C2064 1.374 . S
C2064 H2038 0.950 . S
C2064 C2060 1.385 . S
C2064 C2063 1.374 . S
C2065 C2062 1.499 . S
C2065 C2066 1.373 . S
C2065 C2067 1.389 . S
C2066 H2039 0.950 . S
C2066 C2052 1.377 . S
C2066 C2065 1.373 . S
C2067 C2051 1.377 . S
C2067 C2065 1.389 . S
C2067 C2068 1.524 . S
C2068 C2067 1.524 . S
C2068 C2069 1.397 . S
C2068 C2073 1.363 . S
C2069 H2040 0.950 . S
C2069 C2068 1.397 . S
C2069 C2070 1.334 . S
C2070 H2041 0.950 . S
C2070 C2069 1.334 . S
C2070 C2071 1.287 . S
C2071 C2070 1.287 . S
C2071 C2072 1.524 . S
C2071 H2074 0.999 . S
C2072 H2042 0.950 . S
C2072 C2071 1.524 . S
C2072 C2073 1.415 . S
C2073 H2043 0.950 . S
C2073 C2068 1.363 . S
C2073 C2072 1.415 . S
H2074 C2071 0.999 . S
H2075 C2056 0.913 . S
H2076 C2094 0.951 . S
H2077 C2096 0.951 . S
H2078 C2098 0.950 . S
H2079 C2099 0.950 . S
H2080 C2101 0.950 . S
H2081 C2104 0.950 . S
H2082 C2105 0.950 . S
H2083 C2107 0.950 . S
H2084 C2108 0.950 . S
H2085 C2109 0.951 . S
H2086 C2111 0.951 . S
H2087 C2113 0.950 . S
H2088 C2114 0.950 . S
H2089 C2116 0.950 . S
H2090 C2119 0.950 . S
H2091 C2120 0.950 . S
H2092 C2122 0.950 . S
H2093 C2123 0.950 . S
C2094 H2076 0.951 . S
C2094 C2095 1.366 . S
C2094 C2096 1.388 . S
C2095 C2094 1.366 . S
C2095 C2099 1.385 . S
C2096 H2077 0.951 . S
C2096 C2094 1.388 . S
C2096 C2097 1.366 . S
C2097 C2096 1.366 . S
C2097 C2098 1.414 . S
C2097 C2100 1.499 . S
C2098 H2078 0.950 . S
C2098 C2097 1.414 . S
C2098 C2099 1.374 . S
C2099 H2079 0.950 . S
C2099 C2095 1.385 . S
C2099 C2098 1.374 . S
C2100 C2097 1.499 . S
C2100 C2101 1.373 . S
C2100 C2102 1.389 . S
C2101 H2080 0.950 . S
C2101 C2100 1.373 . S
C2101 C2117 1.377 . S
C2102 C2100 1.389 . S
C2102 C2103 1.524 . S
C2102 C2116 1.377 . S
C2103 C2102 1.524 . S
C2103 C2104 1.397 . S
C2103 C2108 1.363 . S
C2104 H2081 0.950 . S
C2104 C2103 1.397 . S
C2104 C2105 1.334 . S
C2105 H2082 0.950 . S
C2105 C2104 1.334 . S
C2105 C2106 1.287 . S
C2106 C2105 1.287 . S
C2106 C2107 1.524 . S
C2106 H2125 0.913 . S
C2107 H2083 0.950 . S
C2107 C2106 1.524 . S
C2107 C2108 1.415 . S
C2108 H2084 0.950 . S
C2108 C2103 1.363 . S
C2108 C2107 1.415 . S
C2109 H2085 0.951 . S
C2109 C2110 1.366 . S
C2109 C2111 1.388 . S
C2110 C2109 1.366 . S
C2110 C2114 1.385 . S
C2111 H2086 0.951 . S
C2111 C2109 1.388 . S
C2111 C2112 1.366 . S
C2112 C2111 1.366 . S
C2112 C2113 1.414 . S
C2112 C2115 1.499 . S
C2113 H2087 0.950 . S
C2113 C2112 1.414 . S
C2113 C2114 1.374 . S
C2114 H2088 0.950 . S
C2114 C2110 1.385 . S
C2114 C2113 1.374 . S
C2115 C2112 1.499 . S
C2115 C2116 1.373 . S
C2115 C2117 1.389 . S
C2116 H2089 0.950 . S
C2116 C2102 1.377 . S
C2116 C2115 1.373 . S
C2117 C2101 1.377 . S
C2117 C2115 1.389 . S
C2117 C2118 1.524 . S
C2118 C2117 1.524 . S
C2118 C2119 1.397 . S
C2118 C2123 1.363 . S
C2119 H2090 0.950 . S
C2119 C2118 1.397 . S
C2119 C2120 1.334 . S
C2120 H2091 0.950 . S
C2120 C2119 1.334 . S
C2120 C2121 1.287 . S
C2121 C2120 1.287 . S
C2121 C2122 1.524 . S
C2121 H2124 0.999 . S
C2122 H2092 0.950 . S
C2122 C2121 1.524 . S
C2122 C2123 1.415 . S
C2123 H2093 0.950 . S
C2123 C2118 1.363 . S
C2123 C2122 1.415 . S
H2124 C2121 0.999 . S
H2125 C2106 0.913 . S
H2126 C2144 0.951 . S
H2127 C2146 0.951 . S
H2128 C2148 0.950 . S
H2129 C2149 0.950 . S
H2130 C2151 0.950 . S
H2131 C2154 0.950 . S
H2132 C2155 0.950 . S
H2133 C2157 0.950 . S
H2134 C2158 0.950 . S
H2135 C2159 0.951 . S
H2136 C2161 0.951 . S
H2137 C2163 0.950 . S
H2138 C2164 0.950 . S
H2139 C2166 0.950 . S
H2140 C2169 0.950 . S
H2141 C2170 0.950 . S
H2142 C2172 0.950 . S
H2143 C2173 0.950 . S
C2144 H2126 0.951 . S
C2144 C2145 1.366 . S
C2144 C2146 1.388 . S
C2145 C2144 1.366 . S
C2145 C2149 1.385 . S
C2146 H2127 0.951 . S
C2146 C2144 1.388 . S
C2146 C2147 1.366 . S
C2147 C2146 1.366 . S
C2147 C2148 1.414 . S
C2147 C2150 1.499 . S
C2148 H2128 0.950 . S
C2148 C2147 1.414 . S
C2148 C2149 1.374 . S
C2149 H2129 0.950 . S
C2149 C2145 1.385 . S
C2149 C2148 1.374 . S
C2150 C2147 1.499 . S
C2150 C2151 1.373 . S
C2150 C2152 1.389 . S
C2151 H2130 0.950 . S
C2151 C2150 1.373 . S
C2151 C2167 1.377 . S
C2152 C2150 1.389 . S
C2152 C2153 1.524 . S
C2152 C2166 1.377 . S
C2153 C2152 1.524 . S
C2153 C2154 1.397 . S
C2153 C2158 1.363 . S
C2154 H2131 0.950 . S
C2154 C2153 1.397 . S
C2154 C2155 1.334 . S
C2155 H2132 0.950 . S
C2155 C2154 1.334 . S
C2155 C2156 1.287 . S
C2156 C2155 1.287 . S
C2156 C2157 1.524 . S
C2156 H2175 0.913 . S
C2157 H2133 0.950 . S
C2157 C2156 1.524 . S
C2157 C2158 1.415 . S
C2158 H2134 0.950 . S
C2158 C2153 1.363 . S
C2158 C2157 1.415 . S
C2159 H2135 0.951 . S
C2159 C2160 1.366 . S
C2159 C2161 1.388 . S
C2160 C2159 1.366 . S
C2160 C2164 1.385 . S
C2161 H2136 0.951 . S
C2161 C2159 1.388 . S
C2161 C2162 1.366 . S
C2162 C2161 1.366 . S
C2162 C2163 1.414 . S
C2162 C2165 1.499 . S
C2163 H2137 0.950 . S
C2163 C2162 1.414 . S
C2163 C2164 1.374 . S
C2164 H2138 0.950 . S
C2164 C2160 1.385 . S
C2164 C2163 1.374 . S
C2165 C2162 1.499 . S
C2165 C2166 1.373 . S
C2165 C2167 1.389 . S
C2166 H2139 0.950 . S
C2166 C2152 1.377 . S
C2166 C2165 1.373 . S
C2167 C2151 1.377 . S
C2167 C2165 1.389 . S
C2167 C2168 1.524 . S
C2168 C2167 1.524 . S
C2168 C2169 1.397 . S
C2168 C2173 1.363 . S
C2169 H2140 0.950 . S
C2169 C2168 1.397 . S
C2169 C2170 1.334 . S
C2170 H2141 0.950 . S
C2170 C2169 1.334 . S
C2170 C2171 1.287 . S
C2171 C2170 1.287 . S
C2171 C2172 1.524 . S
C2171 H2174 0.999 . S
C2172 H2142 0.950 . S
C2172 C2171 1.524 . S
C2172 C2173 1.415 . S
C2173 H2143 0.950 . S
C2173 C2168 1.363 . S
C2173 C2172 1.415 . S
H2174 C2171 0.999 . S
H2175 C2156 0.913 . S
C595 C4 0.981 . S
C610 C148 0.981 . S
C645 C184 0.980 . S
C660 C40 0.980 . S
C695 C76 0.980 . S
C710 C220 0.980 . S
C745 C112 0.981 . S
C760 C256 0.980 . S
C795 C292 0.981 . S
C810 C436 0.981 . S
C845 C472 0.981 . S
C860 C328 0.981 . S
C895 C364 0.980 . S
C910 C508 0.981 . S
C945 C400 0.981 . S
C960 C544 0.981 . S
C995 C14 1.334 . S
C1010 C543 1.362 . S
C1045 C435 1.361 . S
C1060 C50 1.334 . S
C1095 C86 1.334 . S
C1110 C471 1.362 . S
C1145 C507 1.362 . S
C1160 C122 1.334 . S
C1195 C327 1.362 . S
C1210 C158 1.334 . S
C1245 C363 1.361 . S
C1260 C194 1.334 . S
C1295 C399 1.362 . S
C1310 C230 1.334 . S
C1345 C291 1.362 . S
C1360 C266 1.334 . S
C1395 C302 1.334 . S
C1410 C255 1.362 . S
C1445 C147 1.361 . S
C1460 C338 1.335 . S
C1495 C183 1.362 . S
C1510 C374 1.334 . S
C1545 C410 1.334 . S
C1560 C219 1.362 . S
C1595 C39 1.361 . S
C1610 C446 1.335 . S
C1645 C482 1.335 . S
C1660 C75 1.361 . S
C1695 C518 1.334 . S
C1710 C111 1.361 . S
C1745 C554 1.335 . S
C1760 C3 1.361 . S
C1795 C254 0.921 . S
C1810 C2 0.920 . S
C1845 C38 0.919 . S
C1860 C146 0.920 . S
C1895 C74 0.920 . S
C1910 C182 0.919 . S
C1945 C110 0.920 . S
C1960 C218 0.919 . S
C1995 C542 0.921 . S
C2010 C290 0.920 . S
C2045 C434 0.919 . S
C2060 C326 0.920 . S
C2095 C470 0.920 . S
C2110 C362 0.919 . S
C2145 C506 0.919 . S
C2160 C398 0.920 . S
