# Generated by pormake.
# Topology smq, (6)-cn, num edge types: 1
# Building blocks:
#     Node 0, Type 0, BuildingBlock: MAKGUD_clean_sbu_1, # of connection points: 6
#     Node 1, Type 0, BuildingBlock: MAKGUD_clean_sbu_1, # of connection points: 6
#     Node 2, Type 0, BuildingBlock: MAKGUD_clean_sbu_1, # of connection points: 6
#     Node 3, Type 0, BuildingBlock: MAKGUD_clean_sbu_1, # of connection points: 6
#     Node 4, Type 0, BuildingBlock: MAKGUD_clean_sbu_1, # of connection points: 6
#     Node 5, Type 0, BuildingBlock: MAKGUD_clean_sbu_1, # of connection points: 6
#     Node 6, Type 0, BuildingBlock: MAKGUD_clean_sbu_1, # of connection points: 6
#     Node 7, Type 0, BuildingBlock: MAKGUD_clean_sbu_1, # of connection points: 6
#     Node 8, Type 0, BuildingBlock: MAKGUD_clean_sbu_1, # of connection points: 6
#     Node 9, Type 0, BuildingBlock: MAKGUD_clean_sbu_1, # of connection points: 6
#     Node 10, Type 0, BuildingBlock: MAKGUD_clean_sbu_1, # of connection points: 6
#     Node 11, Type 0, BuildingBlock: MAKGUD_clean_sbu_1, # of connection points: 6
#     Node 12, Type 0, BuildingBlock: MAKGUD_clean_sbu_1, # of connection points: 6
#     Node 13, Type 0, BuildingBlock: MAKGUD_clean_sbu_1, # of connection points: 6
#     Node 14, Type 0, BuildingBlock: MAKGUD_clean_sbu_1, # of connection points: 6
#     Node 15, Type 0, BuildingBlock: MAKGUD_clean_sbu_1, # of connection points: 6
#     Node 16, Type 0, BuildingBlock: MAKGUD_clean_sbu_1, # of connection points: 6
#     Node 17, Type 0, BuildingBlock: MAKGUD_clean_sbu_1, # of connection points: 6
#     Node 18, Type 0, BuildingBlock: MAKGUD_clean_sbu_1, # of connection points: 6
#     Node 19, Type 0, BuildingBlock: MAKGUD_clean_sbu_1, # of connection points: 6
#     Node 20, Type 0, BuildingBlock: MAKGUD_clean_sbu_1, # of connection points: 6
#     Node 21, Type 0, BuildingBlock: MAKGUD_clean_sbu_1, # of connection points: 6
#     Node 22, Type 0, BuildingBlock: MAKGUD_clean_sbu_1, # of connection points: 6
#     Node 23, Type 0, BuildingBlock: MAKGUD_clean_sbu_1, # of connection points: 6
#     Edge 24, Type (0, 0), BuildingBlock: XIVTED_clean_linker_0, # of connection points: 2
#     Edge 25, Type (0, 0), BuildingBlock: XIVTED_clean_linker_0, # of connection points: 2
#     Edge 26, Type (0, 0), BuildingBlock: XIVTED_clean_linker_0, # of connection points: 2
#     Edge 27, Type (0, 0), BuildingBlock: XIVTED_clean_linker_0, # of connection points: 2
#     Edge 28, Type (0, 0), BuildingBlock: XIVTED_clean_linker_0, # of connection points: 2
#     Edge 29, Type (0, 0), BuildingBlock: XIVTED_clean_linker_0, # of connection points: 2
#     Edge 30, Type (0, 0), BuildingBlock: XIVTED_clean_linker_0, # of connection points: 2
#     Edge 31, Type (0, 0), BuildingBlock: XIVTED_clean_linker_0, # of connection points: 2
#     Edge 32, Type (0, 0), BuildingBlock: XIVTED_clean_linker_0, # of connection points: 2
#     Edge 33, Type (0, 0), BuildingBlock: XIVTED_clean_linker_0, # of connection points: 2
#     Edge 34, Type (0, 0), BuildingBlock: XIVTED_clean_linker_0, # of connection points: 2
#     Edge 35, Type (0, 0), BuildingBlock: XIVTED_clean_linker_0, # of connection points: 2
#     Edge 36, Type (0, 0), BuildingBlock: XIVTED_clean_linker_0, # of connection points: 2
#     Edge 37, Type (0, 0), BuildingBlock: XIVTED_clean_linker_0, # of connection points: 2
#     Edge 38, Type (0, 0), BuildingBlock: XIVTED_clean_linker_0, # of connection points: 2
#     Edge 39, Type (0, 0), BuildingBlock: XIVTED_clean_linker_0, # of connection points: 2
#     Edge 40, Type (0, 0), BuildingBlock: XIVTED_clean_linker_0, # of connection points: 2
#     Edge 41, Type (0, 0), BuildingBlock: XIVTED_clean_linker_0, # of connection points: 2
#     Edge 42, Type (0, 0), BuildingBlock: XIVTED_clean_linker_0, # of connection points: 2
#     Edge 43, Type (0, 0), BuildingBlock: XIVTED_clean_linker_0, # of connection points: 2
#     Edge 44, Type (0, 0), BuildingBlock: XIVTED_clean_linker_0, # of connection points: 2
#     Edge 45, Type (0, 0), BuildingBlock: XIVTED_clean_linker_0, # of connection points: 2
#     Edge 46, Type (0, 0), BuildingBlock: XIVTED_clean_linker_0, # of connection points: 2
#     Edge 47, Type (0, 0), BuildingBlock: XIVTED_clean_linker_0, # of connection points: 2
#     Edge 48, Type (0, 0), BuildingBlock: XIVTED_clean_linker_0, # of connection points: 2
#     Edge 49, Type (0, 0), BuildingBlock: XIVTED_clean_linker_0, # of connection points: 2
#     Edge 50, Type (0, 0), BuildingBlock: XIVTED_clean_linker_0, # of connection points: 2
#     Edge 51, Type (0, 0), BuildingBlock: XIVTED_clean_linker_0, # of connection points: 2
#     Edge 52, Type (0, 0), BuildingBlock: XIVTED_clean_linker_0, # of connection points: 2
#     Edge 53, Type (0, 0), BuildingBlock: XIVTED_clean_linker_0, # of connection points: 2
#     Edge 54, Type (0, 0), BuildingBlock: XIVTED_clean_linker_0, # of connection points: 2
#     Edge 55, Type (0, 0), BuildingBlock: XIVTED_clean_linker_0, # of connection points: 2
#     Edge 56, Type (0, 0), BuildingBlock: XIVTED_clean_linker_0, # of connection points: 2
#     Edge 57, Type (0, 0), BuildingBlock: XIVTED_clean_linker_0, # of connection points: 2
#     Edge 58, Type (0, 0), BuildingBlock: XIVTED_clean_linker_0, # of connection points: 2
#     Edge 59, Type (0, 0), BuildingBlock: XIVTED_clean_linker_0, # of connection points: 2
#     Edge 60, Type (0, 0), BuildingBlock: XIVTED_clean_linker_0, # of connection points: 2
#     Edge 61, Type (0, 0), BuildingBlock: XIVTED_clean_linker_0, # of connection points: 2
#     Edge 62, Type (0, 0), BuildingBlock: XIVTED_clean_linker_0, # of connection points: 2
#     Edge 63, Type (0, 0), BuildingBlock: XIVTED_clean_linker_0, # of connection points: 2
#     Edge 64, Type (0, 0), BuildingBlock: XIVTED_clean_linker_0, # of connection points: 2
#     Edge 65, Type (0, 0), BuildingBlock: XIVTED_clean_linker_0, # of connection points: 2
#     Edge 66, Type (0, 0), BuildingBlock: XIVTED_clean_linker_0, # of connection points: 2
#     Edge 67, Type (0, 0), BuildingBlock: XIVTED_clean_linker_0, # of connection points: 2
#     Edge 68, Type (0, 0), BuildingBlock: XIVTED_clean_linker_0, # of connection points: 2
#     Edge 69, Type (0, 0), BuildingBlock: XIVTED_clean_linker_0, # of connection points: 2
#     Edge 70, Type (0, 0), BuildingBlock: XIVTED_clean_linker_0, # of connection points: 2
#     Edge 71, Type (0, 0), BuildingBlock: XIVTED_clean_linker_0, # of connection points: 2
#     Edge 72, Type (0, 0), BuildingBlock: XIVTED_clean_linker_0, # of connection points: 2
#     Edge 73, Type (0, 0), BuildingBlock: XIVTED_clean_linker_0, # of connection points: 2
#     Edge 74, Type (0, 0), BuildingBlock: XIVTED_clean_linker_0, # of connection points: 2
#     Edge 75, Type (0, 0), BuildingBlock: XIVTED_clean_linker_0, # of connection points: 2
#     Edge 76, Type (0, 0), BuildingBlock: XIVTED_clean_linker_0, # of connection points: 2
#     Edge 77, Type (0, 0), BuildingBlock: XIVTED_clean_linker_0, # of connection points: 2
#     Edge 78, Type (0, 0), BuildingBlock: XIVTED_clean_linker_0, # of connection points: 2
#     Edge 79, Type (0, 0), BuildingBlock: XIVTED_clean_linker_0, # of connection points: 2
#     Edge 80, Type (0, 0), BuildingBlock: XIVTED_clean_linker_0, # of connection points: 2
#     Edge 81, Type (0, 0), BuildingBlock: XIVTED_clean_linker_0, # of connection points: 2
#     Edge 82, Type (0, 0), BuildingBlock: XIVTED_clean_linker_0, # of connection points: 2
#     Edge 83, Type (0, 0), BuildingBlock: XIVTED_clean_linker_0, # of connection points: 2
#     Edge 84, Type (0, 0), BuildingBlock: XIVTED_clean_linker_0, # of connection points: 2
#     Edge 85, Type (0, 0), BuildingBlock: XIVTED_clean_linker_0, # of connection points: 2
#     Edge 86, Type (0, 0), BuildingBlock: XIVTED_clean_linker_0, # of connection points: 2
#     Edge 87, Type (0, 0), BuildingBlock: XIVTED_clean_linker_0, # of connection points: 2
#     Edge 88, Type (0, 0), BuildingBlock: XIVTED_clean_linker_0, # of connection points: 2
#     Edge 89, Type (0, 0), BuildingBlock: XIVTED_clean_linker_0, # of connection points: 2
#     Edge 90, Type (0, 0), BuildingBlock: XIVTED_clean_linker_0, # of connection points: 2
#     Edge 91, Type (0, 0), BuildingBlock: XIVTED_clean_linker_0, # of connection points: 2
#     Edge 92, Type (0, 0), BuildingBlock: XIVTED_clean_linker_0, # of connection points: 2
#     Edge 93, Type (0, 0), BuildingBlock: XIVTED_clean_linker_0, # of connection points: 2
#     Edge 94, Type (0, 0), BuildingBlock: XIVTED_clean_linker_0, # of connection points: 2
#     Edge 95, Type (0, 0), BuildingBlock: XIVTED_clean_linker_0, # of connection points: 2
# Relax obj value: 0.232
# Max RMSD: 0.218
# Mean RMSD: 0.218
data_MOF--net-smq--node1-MAKGUD_clean_sbu_1--edge1-XIVTED_clean_linker_0
_symmetry_space_group_name_H-M    P1
_symmetry_Int_Tables_number       1
_symmetry_cell_setting            triclinic
loop_
_symmetry_equiv_pos_as_xyz
'x, y, z'
_cell_length_a     46.587324
_cell_length_b     46.589709
_cell_length_c     46.558948
_cell_angle_alpha  89.988257
_cell_angle_beta   90.065831
_cell_angle_gamma 89.965434
loop_
_atom_site_label
_atom_site_type_symbol
_atom_site_fract_x
_atom_site_fract_y
_atom_site_fract_z
_atom_type_partial_charge
O0 O 1.02575 0.32749 0.27051 0.0
Tb1 Tb 1.0415 0.32399 0.31387 0.0
C2 C 1.02792 0.3053 0.37531 0.0
O3 O 0.08402 0.27915 0.29551 0.0
Tb4 Tb 0.07695 0.27169 0.34167 0.0
C5 C 0.11953 0.2905 0.37369 0.0
O6 O 0.08552 0.32683 0.30029 0.0
O7 O 0.09374 0.22822 0.33456 0.0
C8 C 0.11919 0.2273 0.32188 0.0
O9 O 0.13119 0.25164 0.31431 0.0
O10 O 1.03415 0.32822 0.35972 0.0
O11 O 1.03749 0.27942 0.36749 0.0
O12 O 1.01896 0.28344 0.31476 0.0
C13 C 0.09423 0.30394 0.28673 0.0
C14 C 1.01222 0.35159 0.2739 0.0
O15 O 0.10633 0.30605 0.35443 0.0
O16 O 0.1083 0.26509 0.37513 0.0
C17 C 0.99139 0.28588 0.32034 0.0
O18 O 0.9802 0.31176 0.32096 0.0
O19 O 1.01475 0.36049 0.30046 0.0
O20 O 0.31394 0.52572 0.76903 0.0
Tb21 Tb 0.31507 0.5415 0.81254 0.0
C22 C 0.33129 0.52705 0.87475 0.0
O23 O 0.35891 0.58539 0.79703 0.0
Tb24 Tb 0.36507 0.57782 0.8433 0.0
C25 C 0.34589 0.62053 0.87487 0.0
O26 O 0.31113 0.58574 0.79993 0.0
O27 O 0.40884 0.59389 0.83668 0.0
C28 C 0.41026 0.61948 0.82431 0.0
O29 O 0.38618 0.63223 0.81707 0.0
O30 O 0.30906 0.53165 0.85764 0.0
O31 O 0.357 0.53832 0.86899 0.0
O32 O 0.3565 0.52068 0.81505 0.0
C33 C 0.33427 0.59532 0.7875 0.0
C34 C 0.2897 0.51218 0.7712 0.0
O35 O 0.33058 0.60732 0.85544 0.0
O36 O 0.37128 0.60924 0.87673 0.0
C37 C 0.35492 0.49272 0.81856 0.0
O38 O 0.32965 0.48047 0.81604 0.0
O39 O 0.27947 0.51468 0.79725 0.0
O40 O 0.11103 0.81008 0.26977 0.0
Tb41 Tb 0.09482 0.81354 0.31296 0.0
C42 C 0.10923 0.83205 0.37445 0.0
O43 O 1.05298 0.8587 0.29489 0.0
Tb44 Tb 1.06002 0.86568 0.34112 0.0
C45 C 1.01737 0.84655 0.37276 0.0
O46 O 1.05089 0.81093 0.29887 0.0
O47 O 1.04364 0.90932 0.33421 0.0
C48 C 1.01824 0.91057 0.32143 0.0
O49 O 1.00594 0.88639 0.31378 0.0
O50 O 0.10284 0.80922 0.35877 0.0
O51 O 0.09952 0.85795 0.36689 0.0
O52 O 0.11619 0.85467 0.3135 0.0
C53 C 1.04241 0.83418 0.28573 0.0
C54 C 0.12469 0.78609 0.27337 0.0
O55 O 1.03075 0.83114 0.35357 0.0
O56 O 1.02845 0.87202 0.37436 0.0
C57 C 0.14388 0.85324 0.31879 0.0
O58 O 0.15603 0.82779 0.31953 0.0
O59 O 0.12198 0.77724 0.2999 0.0
O60 O 0.8272 0.61098 0.77063 0.0
Tb61 Tb 0.82384 0.59542 0.81405 0.0
C62 C 0.80571 0.60934 0.87557 0.0
O63 O 0.77892 0.55303 0.79608 0.0
Tb64 Tb 0.77161 0.56042 0.84223 0.0
C65 C 0.79001 0.51775 0.87439 0.0
O66 O 0.8266 0.55132 0.80072 0.0
O67 O 0.72796 0.54415 0.83508 0.0
C68 C 0.72676 0.51868 0.82245 0.0
O69 O 0.75097 0.50632 0.81499 0.0
O70 O 0.82846 0.6029 0.85984 0.0
O71 O 0.77971 0.5999 0.86796 0.0
O72 O 0.78326 0.61795 0.81501 0.0
C73 C 0.80364 0.54264 0.78727 0.0
C74 C 0.85134 0.62445 0.77392 0.0
O75 O 0.8057 0.53076 0.85517 0.0
O76 O 0.76467 0.52919 0.87571 0.0
C77 C 0.78565 0.64554 0.82052 0.0
O78 O 0.81152 0.65675 0.82117 0.0
O79 O 0.86033 0.622 0.80047 0.0
O80 O 1.02555 0.81073 0.86824 0.0
Tb81 Tb 1.04167 0.81353 0.82498 0.0
C82 C 1.02822 0.83155 0.76328 0.0
O83 O 0.08451 0.85789 0.84305 0.0
Tb84 Tb 0.07742 0.86506 0.79682 0.0
C85 C 0.12016 0.84602 0.7652 0.0
O86 O 0.08562 0.81015 0.8388 0.0
O87 O 0.09386 0.90867 0.80365 0.0
C88 C 0.11921 0.9099 0.81654 0.0
O89 O 0.13137 0.88573 0.82447 0.0
O90 O 1.03416 0.80877 0.7792 0.0
O91 O 1.03806 0.85741 0.77078 0.0
O92 O 1.02018 0.85465 0.82371 0.0
C93 C 0.09456 0.8331 0.85209 0.0
C94 C 1.01169 0.78682 0.86495 0.0
O95 O 0.10673 0.83053 0.7843 0.0
O96 O 0.10908 0.87151 0.76369 0.0
C97 C 0.99252 0.85301 0.81825 0.0
O98 O 0.98057 0.82747 0.81782 0.0
O99 O 1.0143 0.77761 0.83852 0.0
O100 O 0.82651 0.5263 0.36747 0.0
Tb101 Tb 0.82367 0.54185 0.32399 0.0
C102 C 0.80572 0.52758 0.26236 0.0
O103 O 0.77844 0.58409 0.34141 0.0
Tb104 Tb 0.77153 0.57679 0.29521 0.0
C105 C 0.78979 0.61945 0.26307 0.0
O106 O 0.82618 0.58596 0.33745 0.0
O107 O 0.72792 0.59321 0.30219 0.0
C108 C 0.72684 0.6188 0.31459 0.0
O109 O 0.75112 0.63114 0.32186 0.0
O110 O 0.82844 0.53391 0.27825 0.0
O111 O 0.77974 0.53722 0.26972 0.0
O112 O 0.78302 0.51952 0.32279 0.0
C113 C 0.803 0.59459 0.35053 0.0
C114 C 0.85073 0.51289 0.36455 0.0
O115 O 0.80548 0.60664 0.28248 0.0
O116 O 0.76458 0.60778 0.26152 0.0
C117 C 0.78532 0.49191 0.31735 0.0
O118 O 0.81113 0.48053 0.317 0.0
O119 O 0.86004 0.51531 0.33813 0.0
O120 O 0.11154 0.32561 0.8676 0.0
Tb121 Tb 0.09585 0.32223 0.82421 0.0
C122 C 0.11008 0.3041 0.76268 0.0
O123 O 1.05415 0.27658 0.84195 0.0
Tb124 Tb 1.06125 0.26979 0.79571 0.0
C125 C 1.01851 0.28839 0.76371 0.0
O126 O 1.05179 0.32429 0.83787 0.0
O127 O 1.04492 0.22617 0.80263 0.0
C128 C 1.01943 0.22503 0.8152 0.0
O129 O 1.0071 0.24926 0.82261 0.0
O130 O 0.10345 0.32682 0.77841 0.0
O131 O 0.10077 0.27805 0.7702 0.0
O132 O 0.11879 0.28189 0.82324 0.0
C133 C 1.04349 0.30106 0.85108 0.0
C134 C 0.12452 0.35002 0.86444 0.0
O135 O 1.03148 0.30393 0.78312 0.0
O136 O 1.03005 0.26311 0.76211 0.0
C137 C 0.14638 0.28449 0.81782 0.0
O138 O 0.15741 0.31043 0.81726 0.0
O139 O 0.12186 0.35911 0.83795 0.0
O140 O 0.30799 0.61086 0.36963 0.0
Tb141 Tb 0.31198 0.59515 0.3263 0.0
C142 C 0.33126 0.61024 0.26525 0.0
O143 O 0.35697 0.55333 0.3448 0.0
Tb144 Tb 0.3649 0.56111 0.29883 0.0
C145 C 0.34703 0.51846 0.26642 0.0
O146 O 0.30932 0.55102 0.33963 0.0
O147 O 0.40867 0.54529 0.30622 0.0
C148 C 0.41019 0.51983 0.31885 0.0
O149 O 0.38616 0.50715 0.32629 0.0
O150 O 0.30825 0.60364 0.28055 0.0
O151 O 0.35712 0.60065 0.27312 0.0
O152 O 0.35306 0.61661 0.32658 0.0
C153 C 0.3323 0.5425 0.35322 0.0
C154 C 0.28404 0.62458 0.36591 0.0
O155 O 0.33101 0.53155 0.28531 0.0
O156 O 0.3724 0.52983 0.26552 0.0
C157 C 0.35163 0.64438 0.32179 0.0
O158 O 0.32617 0.65651 0.32113 0.0
O159 O 0.2755 0.62211 0.33923 0.0
O160 O 0.26894 1.02659 0.32541 0.0
Tb161 Tb 0.3125 1.042 0.32328 0.0
C162 C 0.37426 1.02693 0.30593 0.0
O163 O 0.29638 0.08538 0.27891 0.0
Tb164 Tb 0.34254 0.07771 0.27247 0.0
C165 C 0.37455 0.1201 0.29159 0.0
O166 O 0.29993 0.08633 0.32669 0.0
O167 O 0.33575 0.09414 0.22882 0.0
C168 C 0.32356 0.11983 0.22765 0.0
O169 O 0.31651 0.13241 0.25187 0.0
O170 O 0.35766 1.03172 0.32847 0.0
O171 O 0.36793 1.03797 0.28023 0.0
O172 O 0.31397 1.02085 0.28195 0.0
C173 C 0.28716 0.09558 0.30355 0.0
C174 C 0.27148 1.01329 0.34976 0.0
O175 O 0.35509 0.10706 0.30696 0.0
O176 O 0.3762 0.10881 0.26619 0.0
C177 C 0.31624 0.99277 0.28358 0.0
O178 O 0.31296 0.98062 0.30883 0.0
O179 O 0.29774 1.01565 0.35946 0.0
O180 O 0.61104 0.76929 0.82838 0.0
Tb181 Tb 0.5957 0.81276 0.82462 0.0
C182 C 0.60932 0.87425 0.80632 0.0
O183 O 0.55296 0.79465 0.78003 0.0
Tb184 Tb 0.56047 0.84068 0.77227 0.0
C185 C 0.51772 0.87289 0.7903 0.0
O186 O 0.55159 0.7996 0.82771 0.0
O187 O 0.5444 0.83327 0.72855 0.0
C188 C 0.51894 0.82063 0.72723 0.0
O189 O 0.50643 0.81327 0.75139 0.0
O190 O 0.603 0.85854 0.82913 0.0
O191 O 0.59989 0.86655 0.78033 0.0
O192 O 0.61803 0.8136 0.78395 0.0
C193 C 0.5427 0.78606 0.80488 0.0
C194 C 0.62492 0.7728 0.85229 0.0
O195 O 0.53083 0.85389 0.80623 0.0
O196 O 0.52911 0.87398 0.76493 0.0
C197 C 0.6456 0.81925 0.78627 0.0
O198 O 0.65687 0.82013 0.81215 0.0
O199 O 0.62275 0.79945 0.86095 0.0
O200 O 0.86809 0.1123 0.32794 0.0
Tb201 Tb 0.82484 0.09644 0.32406 0.0
C202 C 0.76326 0.11043 0.30591 0.0
O203 O 0.84274 1.0547 0.27838 0.0
Tb204 Tb 0.79652 1.06179 0.27156 0.0
C205 C 0.76497 1.01891 0.29036 0.0
O206 O 0.8388 1.05245 0.32616 0.0
O207 O 0.80329 1.04563 0.22782 0.0
C208 C 0.81592 1.02017 0.22648 0.0
O209 O 0.82352 1.0077 0.25061 0.0
O210 O 0.77901 0.10376 0.32864 0.0
O211 O 0.77082 0.1012 0.27984 0.0
O212 O 0.82385 0.11919 0.2836 0.0
C213 C 0.85193 1.04409 0.3029 0.0
C214 C 0.86453 0.12554 0.35217 0.0
O215 O 0.78434 1.03203 0.30581 0.0
O216 O 0.76312 1.0304 0.26506 0.0
C217 C 0.81823 0.14676 0.28606 0.0
O218 O 0.8175 0.1579 0.31198 0.0
O219 O 0.83796 0.12285 0.36089 0.0
O220 O 0.52687 0.3679 0.82781 0.0
Tb221 Tb 0.54236 0.32447 0.82421 0.0
C222 C 0.52787 0.26311 0.8056 0.0
O223 O 0.58428 0.34232 0.7788 0.0
Tb224 Tb 0.57698 0.29621 0.77163 0.0
C225 C 0.61972 0.26401 0.7898 0.0
O226 O 0.58648 0.33797 0.82654 0.0
O227 O 0.59302 0.30351 0.72793 0.0
C228 C 0.61855 0.316 0.72669 0.0
O229 O 0.63115 0.32315 0.75088 0.0
O230 O 0.53439 0.2787 0.82849 0.0
O231 O 0.53739 0.27074 0.77965 0.0
O232 O 0.51976 0.32382 0.78364 0.0
C233 C 0.59491 0.35127 0.80339 0.0
C234 C 0.51362 0.36459 0.85207 0.0
O235 O 0.60679 0.28321 0.8056 0.0
O236 O 0.60815 0.26272 0.7645 0.0
C237 C 0.49213 0.31853 0.78599 0.0
O238 O 0.48086 0.31809 0.81185 0.0
O239 O 0.51606 0.33803 0.86094 0.0
O240 O 0.27016 0.11027 0.80977 0.0
Tb241 Tb 0.31347 0.09443 0.81363 0.0
C242 C 0.37466 0.1094 0.83261 0.0
O243 O 0.29553 1.05271 0.85888 0.0
Tb244 Tb 0.34159 1.06014 0.86632 0.0
C245 C 0.3739 1.01759 0.84802 0.0
O246 O 0.29986 1.05037 0.81113 0.0
O247 O 0.33435 1.04392 0.90999 0.0
C248 C 0.32185 1.0184 0.91119 0.0
O249 O 0.31463 1.00592 0.88695 0.0
O250 O 0.3592 0.10277 0.80968 0.0
O251 O 0.36703 0.09979 0.85853 0.0
O252 O 0.3135 0.11595 0.85471 0.0
C253 C 0.28664 1.04194 0.83433 0.0
C254 C 0.27379 0.12394 0.78579 0.0
O255 O 0.35472 1.03062 0.83222 0.0
O256 O 0.3751 1.02897 0.87341 0.0
C257 C 0.31847 0.14368 0.85323 0.0
O258 O 0.31926 0.15572 0.82771 0.0
O259 O 0.3004 0.12142 0.77717 0.0
O260 O 0.6104 0.87544 0.37111 0.0
Tb261 Tb 0.57854 0.8425 0.36472 0.0
C262 C 0.59562 0.78684 0.33353 0.0
O263 O 0.53235 0.85775 0.30895 0.0
Tb264 Tb 0.54201 0.81256 0.31459 0.0
C265 C 0.51205 0.77167 0.28933 0.0
O266 O 0.53928 0.86867 0.35696 0.0
O267 O 0.52174 0.81478 0.35627 0.0
C268 C 0.49387 0.8191 0.35507 0.0
O269 O 0.48129 0.81786 0.32983 0.0
O270 O 0.58576 0.79625 0.35824 0.0
O271 O 0.58611 0.79951 0.31044 0.0
O272 O 0.59458 0.8356 0.40852 0.0
C273 C 0.52786 0.87466 0.33133 0.0
C274 C 0.62151 0.87372 0.34564 0.0
O275 O 0.51467 0.79772 0.27916 0.0
O276 O 0.52584 0.76926 0.31343 0.0
C277 C 0.62001 0.82292 0.40996 0.0
O278 O 0.63263 0.81549 0.38588 0.0
O279 O 0.60797 0.85465 0.33019 0.0
O280 O 0.86763 1.02581 0.8101 0.0
Tb281 Tb 0.82437 1.0418 0.8132 0.0
C282 C 0.76272 1.02802 0.83106 0.0
O283 O 0.8422 0.08376 0.85856 0.0
Tb284 Tb 0.796 0.07674 0.86548 0.0
C285 C 0.76421 0.11978 0.84729 0.0
O286 O 0.83817 0.08579 0.81079 0.0
O287 O 0.80321 0.09262 0.90928 0.0
C288 C 0.8159 0.11804 0.9107 0.0
O289 O 0.8233 0.13065 0.88659 0.0
O290 O 0.77859 1.03445 0.80838 0.0
O291 O 0.77018 1.03741 0.85712 0.0
O292 O 0.82314 1.01931 0.8538 0.0
C293 C 0.85135 0.09425 0.83401 0.0
C294 C 0.8644 1.01246 0.78587 0.0
O295 O 0.78332 0.10669 0.83152 0.0
O296 O 0.76277 0.10819 0.87257 0.0
C297 C 0.81752 0.99174 0.85144 0.0
O298 O 0.81691 0.98047 0.82557 0.0
O299 O 0.83796 1.0152 0.77668 0.0
O300 O 0.61112 0.36911 0.30901 0.0
Tb301 Tb 0.59546 0.32576 0.31282 0.0
C302 C 0.60986 0.26428 0.33088 0.0
O303 O 0.5535 0.34364 0.35795 0.0
Tb304 Tb 0.561 0.29749 0.36501 0.0
C305 C 0.51823 0.26564 0.3464 0.0
O306 O 0.55139 0.33934 0.31021 0.0
O307 O 0.54513 0.30422 0.40884 0.0
C308 C 0.51971 0.3169 0.41039 0.0
O309 O 0.5071 0.32465 0.38637 0.0
O310 O 0.60327 0.28005 0.30816 0.0
O311 O 0.60046 0.27177 0.3569 0.0
O312 O 0.61736 0.3251 0.35377 0.0
C313 C 0.54287 0.35259 0.33335 0.0
C314 C 0.6247 0.36553 0.28498 0.0
O315 O 0.53138 0.28481 0.33077 0.0
O316 O 0.5296 0.26417 0.37178 0.0
C317 C 0.64507 0.32001 0.35204 0.0
O318 O 0.6569 0.3195 0.32644 0.0
O319 O 0.62226 0.33891 0.27633 0.0
O320 O 0.32438 0.26958 1.02722 0.0
Tb321 Tb 0.32262 0.31313 1.04271 0.0
C322 C 0.30528 0.37492 1.02819 0.0
O323 O 0.27947 0.2965 0.08661 0.0
Tb324 Tb 0.27195 0.34253 0.07883 0.0
C325 C 0.28999 0.37447 0.12175 0.0
O326 O 0.32711 0.30099 0.08703 0.0
O327 O 0.22817 0.33507 0.09454 0.0
C328 C 0.22671 0.32245 0.12002 0.0
O329 O 0.25077 0.31527 0.13285 0.0
O330 O 0.32781 0.35823 1.0327 0.0
O331 O 0.27969 0.36868 1.03951 0.0
O332 O 0.28093 0.31477 1.02234 0.0
C333 C 0.3044 0.28782 0.09662 0.0
C334 C 0.34841 0.27211 1.01338 0.0
O335 O 0.30595 0.35563 0.10849 0.0
O336 O 0.26459 0.37557 0.1104 0.0
C337 C 0.28207 0.31848 0.99437 0.0
O338 O 0.30725 0.31677 0.9818 0.0
O339 O 0.35818 0.29834 1.01558 0.0
O340 O 0.32779 0.86813 0.11233 0.0
Tb341 Tb 0.32373 0.82479 0.09675 0.0
C342 C 0.30487 0.76352 0.11124 0.0
O343 O 0.2781 0.84288 1.05486 0.0
Tb344 Tb 0.27109 0.79673 1.06203 0.0
C345 C 0.29005 0.76481 1.01945 0.0
O346 O 0.32583 0.83856 1.05267 0.0
O347 O 0.22748 0.80371 1.04559 0.0
C348 C 0.22629 0.81626 1.02007 0.0
O349 O 0.25049 0.82365 1.00769 0.0
O350 O 0.3278 0.77896 0.10463 0.0
O351 O 0.27896 0.77128 0.10171 0.0
O352 O 0.28331 0.82432 0.1195 0.0
C353 C 0.30265 0.85187 1.04428 0.0
C354 C 0.35205 0.86456 0.12555 0.0
O355 O 0.30548 0.78413 1.03263 0.0
O356 O 0.26465 0.76323 1.0307 0.0
C357 C 0.28576 0.81895 0.14713 0.0
O358 O 0.31166 0.81831 0.15834 0.0
O359 O 0.36065 0.83792 0.12306 0.0
O360 O 0.76998 0.82591 0.61137 0.0
Tb361 Tb 0.81342 0.8229 0.59584 0.0
C362 C 0.87498 0.8047 0.60948 0.0
O363 O 0.79548 0.77883 0.5527 0.0
Tb364 Tb 0.84159 0.77131 0.56002 0.0
C365 C 0.87343 0.79034 0.51745 0.0
O366 O 0.80012 0.82652 0.55176 0.0
O367 O 0.83449 0.72778 0.54343 0.0
C368 C 0.82174 0.72673 0.51798 0.0
O369 O 0.81416 0.75101 0.50581 0.0
O370 O 0.85914 0.82753 0.60354 0.0
O371 O 0.86745 0.77887 0.59956 0.0
O372 O 0.81448 0.78177 0.61733 0.0
C373 C 0.78672 0.80372 0.54265 0.0
C374 C 0.77323 0.84972 0.62542 0.0
O375 O 0.85428 0.80582 0.5308 0.0
O376 O 0.87488 0.76484 0.52852 0.0
C377 C 0.81983 0.78344 0.64502 0.0
O378 O 0.82024 0.809 0.65695 0.0
O379 O 0.79975 0.85875 0.62326 0.0
O380 O 0.81045 0.26941 0.11098 0.0
Tb381 Tb 0.81452 0.3127 0.0952 0.0
C382 C 0.83339 0.37398 0.1091 0.0
O383 O 0.85909 0.29412 1.05283 0.0
Tb384 Tb 0.8669 0.34018 1.0601 0.0
C385 C 0.84859 0.37232 1.01736 0.0
O386 O 0.81143 0.29915 1.05114 0.0
O387 O 0.91049 0.33268 1.04387 0.0
C388 C 0.91164 0.31985 1.01849 0.0
O389 O 0.8874 0.31239 1.00616 0.0
O390 O 0.81044 0.3585 0.10272 0.0
O391 O 0.85925 0.36612 0.09955 0.0
O392 O 0.8554 0.31317 0.11721 0.0
C393 C 0.83427 0.28551 1.04246 0.0
C394 C 0.78656 0.27324 0.12472 0.0
O395 O 0.83273 0.35344 1.03065 0.0
O396 O 0.87406 0.37332 1.02856 0.0
C397 C 0.85352 0.31836 0.14491 0.0
O398 O 0.82787 0.31883 0.1566 0.0
O399 O 0.7781 0.29992 0.12226 0.0
O400 O 0.26387 0.37004 0.52906 0.0
Tb401 Tb 0.29717 0.36308 0.56053 0.0
C402 C 0.35212 0.33119 0.54227 0.0
O403 O 0.28004 0.3063 0.6032 0.0
Tb404 Tb 0.32568 0.3111 0.5951 0.0
C405 C 0.36576 0.28411 0.62487 0.0
O406 O 0.27145 0.35495 0.59998 0.0
O407 O 0.32506 0.35243 0.61612 0.0
C408 C 0.31995 0.35123 0.64385 0.0
O409 O 0.31927 0.32588 0.65621 0.0
O410 O 0.34325 0.35581 0.55285 0.0
O411 O 0.33897 0.30808 0.551 0.0
O412 O 0.304 0.40698 0.54488 0.0
C413 C 0.26414 0.32896 0.60958 0.0
C414 C 0.26521 0.34467 0.51771 0.0
O415 O 0.3392 0.27525 0.62264 0.0
O416 O 0.36913 0.30784 0.61072 0.0
C417 C 0.31662 0.40871 0.51944 0.0
O418 O 0.32428 0.3848 0.50664 0.0
O419 O 0.28431 0.32896 0.53091 0.0
O420 O 0.80887 0.86876 1.02661 0.0
Tb421 Tb 0.8124 0.82537 1.04226 0.0
C422 C 0.83037 0.76379 1.02842 0.0
O423 O 0.85703 0.84338 0.08467 0.0
Tb424 Tb 0.8645 0.79727 0.07727 0.0
C425 C 0.84657 0.76534 0.12026 0.0
O426 O 0.80935 0.83881 0.08633 0.0
O427 O 0.90832 0.80435 0.09312 0.0
C428 C 0.90985 0.81717 0.11849 0.0
O429 O 0.88582 0.82493 0.13098 0.0
O430 O 0.80766 0.77966 1.03471 0.0
O431 O 0.85636 0.77129 1.03794 0.0
O432 O 0.85341 0.82448 1.02062 0.0
C433 C 0.83232 0.85219 0.09508 0.0
C434 C 0.78503 0.86527 1.01264 0.0
O435 O 0.83061 0.78424 0.10705 0.0
O436 O 0.87189 0.76417 0.10882 0.0
C437 C 0.85171 0.81927 0.99291 0.0
O438 O 0.82613 0.81879 0.98098 0.0
O439 O 0.77628 0.83868 1.01494 0.0
O440 O 0.7699 0.31134 0.52614 0.0
Tb441 Tb 0.81317 0.31423 0.54219 0.0
C442 C 0.87481 0.33231 0.529 0.0
O443 O 0.79504 0.35862 0.58512 0.0
Tb444 Tb 0.84119 0.36599 0.57809 0.0
C445 C 0.87299 0.34751 0.62105 0.0
O446 O 0.79951 0.31091 0.58619 0.0
O447 O 0.83387 0.40965 0.59421 0.0
C448 C 0.821 0.41094 0.61956 0.0
O449 O 0.81347 0.38679 0.63198 0.0
O450 O 0.85896 0.30951 0.53498 0.0
O451 O 0.86722 0.35819 0.53875 0.0
O452 O 0.81451 0.35503 0.52008 0.0
C453 C 0.78613 0.3338 0.59514 0.0
C454 C 0.77318 0.28739 0.51232 0.0
O455 O 0.85407 0.33175 0.60763 0.0
O456 O 0.87422 0.37295 0.60985 0.0
C457 C 0.82045 0.35282 0.49255 0.0
O458 O 0.82129 0.32702 0.48119 0.0
O459 O 0.79962 0.2782 0.51494 0.0
O460 O 0.26265 0.76522 0.60891 0.0
Tb461 Tb 0.29613 0.77176 0.57763 0.0
C462 C 0.35108 0.80379 0.59539 0.0
O463 O 0.27859 0.82809 0.53423 0.0
Tb464 Tb 0.32428 0.82364 0.54247 0.0
C465 C 0.36459 0.85064 0.51325 0.0
O466 O 0.27042 0.77939 0.538 0.0
O467 O 0.32349 0.78259 0.52084 0.0
C468 C 0.31856 0.78425 0.49307 0.0
O469 O 0.3185 0.80979 0.48108 0.0
O470 O 0.34226 0.77905 0.58504 0.0
O471 O 0.33766 0.82673 0.58659 0.0
O472 O 0.30321 0.72824 0.59426 0.0
C473 C 0.26288 0.80523 0.52809 0.0
C474 C 0.26409 0.79065 0.62012 0.0
O475 O 0.33815 0.85988 0.51566 0.0
O476 O 0.36767 0.82651 0.52681 0.0
C477 C 0.3158 0.72724 0.61979 0.0
O478 O 0.32319 0.75155 0.63199 0.0
O479 O 0.28334 0.80616 0.60695 0.0
H480 H 0.10872 0.35303 0.25742 0.0
H481 H 0.20815 0.27292 0.14354 0.0
H482 H 0.11725 0.26091 0.25349 0.0
H483 H 0.18645 0.36245 0.13623 0.0
H484 H 0.17278 0.26774 0.18192 0.0
H485 H 0.1358 0.35695 0.21254 0.0
C486 C 0.11629 0.33359 0.24716 0.0
C487 C 0.11079 0.30657 0.25946 0.0
C488 C 0.17517 0.28842 0.17158 0.0
C489 C 0.14188 0.31097 0.20779 0.0
C490 C 0.19516 0.2913 0.14941 0.0
C491 C 0.19981 0.31801 0.1363 0.0
C492 C 0.16013 0.31264 0.18139 0.0
C493 C 0.18301 0.34133 0.14531 0.0
C494 C 0.13162 0.33587 0.22139 0.0
C495 C 0.12102 0.28219 0.24496 0.0
N496 N 0.16422 0.33822 0.1676 0.0
N497 N 0.13619 0.28499 0.22008 0.0
H498 H 0.37815 0.61951 0.75659 0.0
H499 H 0.27637 0.68526 0.6332 0.0
H500 H 0.28617 0.6089 0.75586 0.0
H501 H 0.36408 0.71082 0.64729 0.0
H502 H 0.28115 0.65 0.67245 0.0
H503 H 0.3747 0.64677 0.71178 0.0
C504 C 0.35721 0.62288 0.74703 0.0
C505 C 0.33241 0.61206 0.76026 0.0
C506 C 0.29952 0.66292 0.66652 0.0
C507 C 0.3283 0.64306 0.70849 0.0
C508 C 0.2969 0.68269 0.64382 0.0
C509 C 0.31998 0.70068 0.63679 0.0
C510 C 0.32544 0.66112 0.68208 0.0
C511 C 0.34586 0.69714 0.65188 0.0
C512 C 0.35525 0.63842 0.72136 0.0
C513 C 0.30587 0.61702 0.74663 0.0
N514 N 0.34785 0.67795 0.6738 0.0
N515 N 0.30451 0.63213 0.72157 0.0
H516 H 0.95081 0.7768 0.13228 0.0
H517 H 1.01983 0.87833 0.25389 0.0
H518 H 0.9278 0.86543 0.14499 0.0
H519 H 1.02733 0.78604 0.25491 0.0
H520 H 0.99253 0.87507 0.20908 0.0
H521 H 0.98633 0.78111 0.17137 0.0
C522 C 0.95402 0.79742 0.14254 0.0
C523 C 0.93667 0.82091 0.13517 0.0
C524 C 1.00021 0.85551 0.21904 0.0
C525 C 0.9765 0.82584 0.18029 0.0
C526 C 1.01577 0.85736 0.24472 0.0
C527 C 1.02572 0.83242 0.25844 0.0
C528 C 0.99467 0.82852 0.20667 0.0
C529 C 1.01989 0.80585 0.24529 0.0
C530 C 0.97393 0.79977 0.16515 0.0
C531 C 0.941 0.84689 0.14982 0.0
N532 N 1.00477 0.8046 0.22021 0.0
N533 N 0.9603 0.84863 0.17168 0.0
H534 H 0.85258 0.52802 0.75777 0.0
H535 H 0.77168 0.4294 0.6436 0.0
H536 H 0.76041 0.51983 0.75409 0.0
H537 H 0.8612 0.45095 0.63598 0.0
H538 H 0.7668 0.46452 0.68228 0.0
H539 H 0.85623 0.5011 0.71276 0.0
C540 C 0.83307 0.52056 0.74755 0.0
C541 C 0.80612 0.52611 0.75995 0.0
C542 C 0.78741 0.46215 0.67182 0.0
C543 C 0.81021 0.4952 0.70812 0.0
C544 C 0.79013 0.4423 0.64949 0.0
C545 C 0.81675 0.43767 0.6362 0.0
C546 C 0.81171 0.47708 0.68161 0.0
C547 C 0.84015 0.45436 0.64521 0.0
C548 C 0.83519 0.50531 0.72169 0.0
C549 C 0.78165 0.51601 0.74548 0.0
N550 N 0.8372 0.47302 0.66766 0.0
N551 N 0.7843 0.50093 0.72053 0.0
H552 H 0.10894 0.78423 0.88195 0.0
H553 H 0.20803 0.86545 0.99555 0.0
H554 H 0.11763 0.87636 0.88496 0.0
H555 H 0.18616 0.77607 1.00388 0.0
H556 H 0.17293 0.87018 0.95679 0.0
H557 H 0.13592 0.78072 0.927 0.0
C558 C 0.11653 0.80376 0.89203 0.0
C559 C 0.1111 0.83066 0.87943 0.0
C560 C 0.17523 0.84963 0.96742 0.0
C561 C 0.14206 0.82672 0.93129 0.0
C562 C 0.19507 0.84701 0.98979 0.0
C563 C 0.1996 0.82046 1.00331 0.0
C564 C 0.1602 0.82532 0.95781 0.0
C565 C 0.18283 0.79706 0.99447 0.0
C566 C 0.1318 0.80171 0.91791 0.0
C567 C 0.12135 0.85516 0.89372 0.0
N568 N 0.16418 0.79992 0.97198 0.0
N569 N 0.13644 0.85258 0.91869 0.0
H570 H 0.7591 0.61793 0.38212 0.0
H571 H 0.86135 0.68496 0.50434 0.0
H572 H 0.85127 0.60895 0.38152 0.0
H573 H 0.77338 0.71005 0.49079 0.0
H574 H 0.85653 0.64962 0.46518 0.0
H575 H 0.76268 0.64526 0.42688 0.0
C576 C 0.7801 0.62166 0.39138 0.0
C577 C 0.80492 0.61129 0.37779 0.0
C578 C 0.83812 0.66246 0.47121 0.0
C579 C 0.80919 0.64236 0.4295 0.0
C580 C 0.84076 0.68227 0.49386 0.0
C581 C 0.81761 0.70015 0.50102 0.0
C582 C 0.8121 0.66049 0.45585 0.0
C583 C 0.79165 0.69645 0.48611 0.0
C584 C 0.78214 0.63724 0.41702 0.0
C585 C 0.83155 0.61672 0.39104 0.0
N586 N 0.78964 0.67721 0.46424 0.0
N587 N 0.83298 0.63185 0.41608 0.0
H588 H 1.02057 0.25708 0.88291 0.0
H589 H 0.95339 0.3594 1.00485 0.0
H590 H 1.02905 0.34928 0.88201 0.0
H591 H 0.92847 0.27139 0.99159 0.0
H592 H 0.98876 0.35451 0.96577 0.0
H593 H 0.99339 0.26063 0.92775 0.0
C594 C 1.01676 0.27808 0.89212 0.0
C595 C 1.02694 0.30292 0.87842 0.0
C596 C 0.97596 0.3361 0.97185 0.0
C597 C 0.99605 0.30715 0.93021 0.0
C598 C 0.95614 0.33878 0.99446 0.0
C599 C 0.93829 0.31564 1.00168 0.0
C600 C 0.97797 0.31006 0.95657 0.0
C601 C 0.94204 0.28966 0.98687 0.0
C602 C 1.00127 0.2801 0.9178 0.0
C603 C 1.02143 0.32954 0.89161 0.0
N604 N 0.96129 0.28761 0.96503 0.0
N605 N 1.00639 0.33095 0.91669 0.0
H606 H 0.28339 0.52652 0.38213 0.0
H607 H 0.36567 0.42831 0.4958 0.0
H608 H 0.37568 0.52023 0.3865 0.0
H609 H 0.27572 0.44813 0.50328 0.0
H610 H 0.37 0.46391 0.4575 0.0
H611 H 0.27999 0.49902 0.42686 0.0
C612 C 0.30297 0.51936 0.39244 0.0
C613 C 0.32989 0.52561 0.38032 0.0
C614 C 0.3494 0.46106 0.46785 0.0
C615 C 0.3261 0.49406 0.4318 0.0
C616 C 0.347 0.44094 0.48997 0.0
C617 C 0.32043 0.43569 0.50312 0.0
C618 C 0.32484 0.47563 0.45811 0.0
C619 C 0.29673 0.45203 0.49417 0.0
C620 C 0.30099 0.50378 0.41813 0.0
C621 C 0.35447 0.51587 0.39489 0.0
N622 N 0.29939 0.47096 0.47192 0.0
N623 N 0.35196 0.50047 0.41966 0.0
H624 H 0.25594 0.11955 0.25966 0.0
H625 H 0.13297 0.18553 0.36152 0.0
H626 H 0.25588 0.10946 0.35177 0.0
H627 H 0.14665 0.21084 0.27363 0.0
H628 H 0.17235 0.1504 0.35684 0.0
H629 H 0.21117 0.14682 0.26314 0.0
C630 C 0.24654 0.12304 0.28064 0.0
C631 C 0.25994 0.11235 0.30546 0.0
C632 C 0.1663 0.16325 0.33841 0.0
C633 C 0.2082 0.14337 0.30961 0.0
C634 C 0.14354 0.18293 0.34097 0.0
C635 C 0.13633 0.20081 0.3178 0.0
C636 C 0.18177 0.1614 0.31246 0.0
C637 C 0.15136 0.19725 0.29191 0.0
C638 C 0.22088 0.13858 0.28262 0.0
C639 C 0.24651 0.11747 0.33205 0.0
N640 N 0.17334 0.17813 0.28998 0.0
N641 N 0.22145 0.13258 0.33342 0.0
H642 H 0.52819 0.75708 0.85418 0.0
H643 H 0.42892 0.64259 0.77462 0.0
H644 H 0.51961 0.75261 0.76202 0.0
H645 H 0.45037 0.63609 0.86435 0.0
H646 H 0.46426 0.68096 0.76924 0.0
H647 H 0.50112 0.71225 0.85836 0.0
C648 C 0.52061 0.74672 0.83478 0.0
C649 C 0.52609 0.75885 0.80767 0.0
C650 C 0.46183 0.6708 0.79001 0.0
C651 C 0.49501 0.70722 0.81238 0.0
C652 C 0.44186 0.64865 0.79301 0.0
C653 C 0.43714 0.63577 0.81984 0.0
C654 C 0.47678 0.68084 0.81421 0.0
C655 C 0.45386 0.64499 0.84315 0.0
C656 C 0.50528 0.72097 0.83721 0.0
C657 C 0.51584 0.74421 0.78336 0.0
N658 N 0.47264 0.66727 0.83991 0.0
N659 N 0.50068 0.71936 0.78631 0.0
H660 H 1.0051 0.95254 0.36098 0.0
H661 H 0.88343 1.02085 0.25884 0.0
H662 H 0.99104 0.9274 0.27307 0.0
H663 H 0.88284 1.02937 0.3511 0.0
H664 H 0.92798 0.99316 0.26234 0.0
H665 H 0.9663 0.98829 0.35616 0.0
C666 C 0.99458 0.9553 0.3404 0.0
C667 C 1.00148 0.93728 0.31728 0.0
C668 C 0.91817 1.00116 0.28184 0.0
C669 C 0.95674 0.97743 0.31177 0.0
C670 C 0.89265 1.01695 0.27985 0.0
C671 C 0.87912 1.02728 0.30472 0.0
C672 C 0.93057 0.99581 0.30889 0.0
C673 C 0.89231 1.02164 0.33135 0.0
C674 C 0.97215 0.97534 0.33776 0.0
C675 C 0.98654 0.94108 0.29134 0.0
N676 N 0.91723 1.00632 0.33273 0.0
N677 N 0.96488 0.96056 0.28932 0.0
H678 H 0.68545 0.50461 0.86231 0.0
H679 H 0.61779 0.38327 0.75954 0.0
H680 H 0.70951 0.49216 0.77391 0.0
H681 H 0.60958 0.38187 0.85181 0.0
H682 H 0.64498 0.42806 0.76325 0.0
H683 H 0.65016 0.46545 0.85745 0.0
C684 C 0.68252 0.49439 0.84162 0.0
C685 C 0.70009 0.50187 0.81835 0.0
C686 C 0.63717 0.41802 0.78271 0.0
C687 C 0.66052 0.45666 0.8128 0.0
C688 C 0.62167 0.39236 0.78059 0.0
C689 C 0.61155 0.37854 0.8054 0.0
C690 C 0.64247 0.43028 0.80982 0.0
C691 C 0.61715 0.39157 0.8321 0.0
C692 C 0.66275 0.47173 0.83896 0.0
C693 C 0.69613 0.48725 0.79227 0.0
N694 N 0.6322 0.41664 0.8336 0.0
N695 N 0.67694 0.46536 0.79024 0.0
H696 H 0.25473 1.01934 0.87833 0.0
H697 H 0.13319 0.95091 0.77629 0.0
H698 H 0.25604 1.02683 0.78599 0.0
H699 H 0.14601 0.9274 0.86484 0.0
H700 H 0.17238 0.98622 0.78076 0.0
H701 H 0.20998 0.99208 0.87485 0.0
C702 C 0.24563 1.01528 0.8573 0.0
C703 C 0.25941 1.02523 0.83242 0.0
C704 C 0.16618 0.97374 0.79937 0.0
C705 C 0.20771 0.99423 0.82826 0.0
C706 C 0.14351 0.95396 0.79692 0.0
C707 C 0.13613 0.93653 0.82035 0.0
C708 C 0.18135 0.97614 0.82547 0.0
C709 C 0.15085 0.94065 0.84635 0.0
C710 C 0.21999 0.99975 0.85533 0.0
C711 C 0.24637 1.0194 0.80576 0.0
N712 N 0.17275 0.95986 0.84818 0.0
N713 N 0.22131 1.00432 0.80439 0.0
H714 H 0.61944 0.75538 0.37733 0.0
H715 H 0.68528 0.63284 0.27486 0.0
H716 H 0.60927 0.7556 0.28522 0.0
H717 H 0.70998 0.64556 0.3631 0.0
H718 H 0.65017 0.6722 0.2797 0.0
H719 H 0.64645 0.71047 0.3737 0.0
C720 C 0.62286 0.74601 0.35632 0.0
C721 C 0.61222 0.75953 0.33154 0.0
C722 C 0.66285 0.66593 0.29817 0.0
C723 C 0.64296 0.70764 0.32722 0.0
C724 C 0.68252 0.64317 0.29552 0.0
C725 C 0.70023 0.6357 0.31874 0.0
C726 C 0.66088 0.68115 0.32426 0.0
C727 C 0.6965 0.65045 0.34477 0.0
C728 C 0.63825 0.72027 0.35426 0.0
C729 C 0.61724 0.74614 0.30491 0.0
N730 N 0.67742 0.67246 0.34679 0.0
N731 N 0.63222 0.72101 0.30345 0.0
H732 H 0.8834 0.11699 0.87796 0.0
H733 H 1.00525 0.1837 0.77537 0.0
H734 H 0.88221 0.10854 0.7857 0.0
H735 H 0.99297 0.2079 0.86377 0.0
H736 H 0.96595 0.14859 0.78022 0.0
H737 H 0.92841 0.14383 0.87436 0.0
C738 C 0.89258 0.12074 0.85694 0.0
C739 C 0.87875 0.11066 0.8321 0.0
C740 C 0.9723 0.16116 0.79872 0.0
C741 C 0.93074 0.14116 0.82781 0.0
C742 C 0.99503 0.18083 0.79606 0.0
C743 C 1.00259 0.1984 0.81932 0.0
C744 C 0.95723 0.15903 0.82487 0.0
C745 C 0.988 0.19451 0.84541 0.0
C746 C 0.91837 0.13603 0.85489 0.0
C747 C 0.8919 0.11608 0.80544 0.0
N748 N 0.96602 0.17543 0.84744 0.0
N749 N 0.91708 0.13094 0.804 0.0
H750 H 0.52754 0.38248 0.28476 0.0
H751 H 0.42919 0.49524 0.36778 0.0
H752 H 0.5204 0.38523 0.37709 0.0
H753 H 0.44995 0.50414 0.27814 0.0
H754 H 0.46453 0.45668 0.37192 0.0
H755 H 0.50035 0.42741 0.28179 0.0
C756 C 0.52025 0.39248 0.30444 0.0
C757 C 0.52618 0.37984 0.33124 0.0
C758 C 0.46194 0.46739 0.35144 0.0
C759 C 0.49497 0.43156 0.32794 0.0
C760 C 0.44196 0.48966 0.34915 0.0
C761 C 0.43705 0.50328 0.32272 0.0
C762 C 0.47671 0.45799 0.32689 0.0
C763 C 0.45358 0.49466 0.29907 0.0
C764 C 0.50485 0.41828 0.30271 0.0
C765 C 0.51629 0.39402 0.35595 0.0
N766 N 0.47237 0.47225 0.30159 0.0
N767 N 0.50107 0.41892 0.35369 0.0
H768 H 0.35369 0.2585 0.11072 0.0
H769 H 0.27397 0.14326 0.20906 0.0
H770 H 0.26165 0.25456 0.11994 0.0
H771 H 0.36365 0.13683 0.18786 0.0
H772 H 0.26871 0.18209 0.17416 0.0
H773 H 0.35783 0.21341 0.13747 0.0
C774 C 0.33432 0.24821 0.11838 0.0
C775 C 0.30725 0.26055 0.11316 0.0
C776 C 0.28945 0.17186 0.17655 0.0
C777 C 0.31191 0.20863 0.14383 0.0
C778 C 0.29237 0.14943 0.19626 0.0
C779 C 0.31915 0.13643 0.20091 0.0
C780 C 0.31368 0.18203 0.16179 0.0
C781 C 0.3425 0.14582 0.18439 0.0
C782 C 0.33672 0.22231 0.13353 0.0
C783 C 0.28296 0.24601 0.12351 0.0
N784 N 0.33933 0.16835 0.16586 0.0
N785 N 0.28588 0.22101 0.13844 0.0
H786 H 0.25877 0.88366 1.021 0.0
H787 H 0.36132 1.00495 0.95319 0.0
H788 H 0.35097 0.88254 1.02969 0.0
H789 H 0.27338 0.99157 0.92798 0.0
H790 H 0.35637 0.96607 0.98881 0.0
H791 H 0.26244 0.92827 0.99345 0.0
C792 C 0.2798 0.89278 1.01716 0.0
C793 C 0.3046 0.87908 1.02751 0.0
C794 C 0.33799 0.97209 0.97589 0.0
C795 C 0.30897 0.93061 0.99619 0.0
C796 C 0.3407 0.99458 0.95592 0.0
C797 C 0.3176 1.00171 0.93792 0.0
C798 C 0.31194 0.95684 0.9779 0.0
C799 C 0.29161 0.98692 0.94166 0.0
C800 C 0.28189 0.91833 1.00145 0.0
C801 C 0.33126 0.89214 1.02194 0.0
N802 N 0.28952 0.9652 0.96106 0.0
N803 N 0.33274 0.9171 1.0067 0.0
H804 H 0.64343 0.77332 0.42853 0.0
H805 H 0.75745 0.85294 0.52835 0.0
H806 H 0.6364 0.86286 0.45024 0.0
H807 H 0.7535 0.76087 0.51931 0.0
H808 H 0.71258 0.85705 0.50122 0.0
H809 H 0.68181 0.76799 0.46395 0.0
C810 C 0.64938 0.79168 0.44153 0.0
C811 C 0.63636 0.81844 0.43685 0.0
C812 C 0.72142 0.83593 0.50529 0.0
C813 C 0.68143 0.81289 0.47661 0.0
C814 C 0.74719 0.83355 0.52066 0.0
C815 C 0.75948 0.80649 0.52603 0.0
C816 C 0.70782 0.81111 0.49489 0.0
C817 C 0.74498 0.78218 0.51563 0.0
C818 C 0.67154 0.78871 0.46155 0.0
C819 C 0.64543 0.84172 0.45368 0.0
N820 N 0.72011 0.78509 0.50045 0.0
N821 N 0.66772 0.83852 0.47251 0.0
H822 H 0.78509 0.25647 1.02762 0.0
H823 H 0.86539 0.14139 0.92962 0.0
H824 H 0.87725 0.25192 1.01988 0.0
H825 H 0.77562 0.13486 0.95041 0.0
H826 H 0.87047 0.18002 0.96477 0.0
H827 H 0.78112 0.21148 1.00071 0.0
C828 C 0.80453 0.24606 1.02026 0.0
C829 C 0.83157 0.25822 1.02593 0.0
C830 C 0.84975 0.16981 0.96224 0.0
C831 C 0.82711 0.20641 0.99505 0.0
C832 C 0.84692 0.1475 0.94238 0.0
C833 C 0.82018 0.13452 0.93753 0.0
C834 C 0.82544 0.1799 0.97694 0.0
C835 C 0.79676 0.14383 0.95401 0.0
C836 C 0.80222 0.22022 1.00502 0.0
C837 C 0.85594 0.24352 1.01596 0.0
N838 N 0.79982 0.16625 0.97268 0.0
N839 N 0.85311 0.21858 1.0009 0.0
H840 H 0.38192 0.28256 0.52698 0.0
H841 H 0.49551 0.36577 0.42979 0.0
H842 H 0.38488 0.37485 0.51996 0.0
H843 H 0.50363 0.27588 0.44967 0.0
H844 H 0.45682 0.3698 0.46496 0.0
H845 H 0.42696 0.27957 0.50004 0.0
C846 C 0.39199 0.30223 0.51977 0.0
C847 C 0.37938 0.32902 0.52566 0.0
C848 C 0.46739 0.34928 0.46222 0.0
C849 C 0.43122 0.32569 0.49476 0.0
C850 C 0.48973 0.34706 0.44235 0.0
C851 C 0.50315 0.32058 0.43723 0.0
C852 C 0.45774 0.32465 0.47667 0.0
C853 C 0.49429 0.29682 0.45347 0.0
C854 C 0.41785 0.30048 0.50452 0.0
C855 C 0.39364 0.35372 0.51587 0.0
N856 N 0.47183 0.29931 0.47216 0.0
N857 N 0.41861 0.35143 0.5008 0.0
H858 H 0.78342 0.8817 0.10995 0.0
H859 H 0.8651 0.9962 0.20756 0.0
H860 H 0.87564 0.88538 0.11757 0.0
H861 H 0.77531 1.00361 0.1869 0.0
H862 H 0.86968 0.95742 0.17253 0.0
H863 H 0.77992 0.92678 0.13679 0.0
C864 C 0.80297 0.89193 0.11728 0.0
C865 C 0.82989 0.87951 0.11159 0.0
C866 C 0.84906 0.96785 0.17507 0.0
C867 C 0.82598 0.93141 0.14238 0.0
C868 C 0.84652 0.99024 0.19486 0.0
C869 C 0.81992 1.00351 0.19971 0.0
C870 C 0.82461 0.95797 0.16042 0.0
C871 C 0.79635 0.99441 0.1833 0.0
C872 C 0.80093 0.91782 0.13247 0.0
C873 C 0.85442 0.894 0.12151 0.0
N874 N 0.79913 0.9719 0.16469 0.0
N875 N 0.85186 0.91898 0.13652 0.0
H876 H 0.6425 0.36539 0.70833 0.0
H877 H 0.75656 0.28479 0.60943 0.0
H878 H 0.63491 0.27592 0.68655 0.0
H879 H 0.75304 0.3769 0.6182 0.0
H880 H 0.71156 0.28105 0.6363 0.0
H881 H 0.68116 0.37037 0.67325 0.0
C882 C 0.64838 0.34698 0.69538 0.0
C883 C 0.6351 0.32034 0.69992 0.0
C884 C 0.72053 0.30209 0.63223 0.0
C885 C 0.68051 0.32548 0.66058 0.0
C886 C 0.74637 0.30427 0.61701 0.0
C887 C 0.75883 0.33123 0.61163 0.0
C888 C 0.70701 0.32703 0.64248 0.0
C889 C 0.74441 0.35566 0.62188 0.0
C890 C 0.67071 0.34974 0.67555 0.0
C891 C 0.64412 0.29698 0.68319 0.0
N892 N 0.71946 0.35295 0.63692 0.0
N893 N 0.66656 0.29998 0.66456 0.0
H894 H 0.38067 0.8527 0.61007 0.0
H895 H 0.49483 0.7714 0.70862 0.0
H896 H 0.38415 0.76053 0.61829 0.0
H897 H 0.50252 0.86098 0.68731 0.0
H898 H 0.45607 0.76668 0.67352 0.0
H899 H 0.42569 0.85625 0.63705 0.0
C900 C 0.39085 0.83317 0.61755 0.0
C901 C 0.37839 0.80625 0.61198 0.0
C902 C 0.46656 0.78728 0.67593 0.0
C903 C 0.43023 0.81023 0.64295 0.0
C904 C 0.48895 0.78989 0.69577 0.0
C905 C 0.50229 0.81648 0.70046 0.0
C906 C 0.45677 0.81164 0.66108 0.0
C907 C 0.49326 0.83995 0.68384 0.0
C908 C 0.41671 0.83524 0.63283 0.0
C909 C 0.3928 0.78175 0.62211 0.0
N910 N 0.47077 0.83709 0.6652 0.0
N911 N 0.41776 0.78435 0.63721 0.0
H912 H 0.90788 0.81494 1.0104 0.0
H913 H 0.95969 0.76102 0.85623 0.0
H914 H 0.85165 0.79749 0.93871 0.0
H915 H 1.01663 0.79196 0.92235 0.0
H916 H 0.92022 0.76124 0.89105 0.0
H917 H 0.94815 0.79576 0.9825 0.0
C918 C 0.90403 0.80716 0.98881 0.0
C919 C 0.87655 0.80842 0.97661 0.0
C920 C 0.94153 0.76726 0.89813 0.0
C921 C 0.92218 0.78596 0.9449 0.0
C922 C 0.96407 0.76674 0.87836 0.0
C923 C 0.99114 0.77686 0.88652 0.0
C924 C 0.94638 0.77802 0.92598 0.0
C925 C 0.99581 0.78435 0.91529 0.0
C926 C 0.92692 0.79599 0.973 0.0
C927 C 0.8726 0.79749 0.94878 0.0
N928 N 0.97351 0.7853 0.93392 0.0
N929 N 0.89518 0.7869 0.93381 0.0
H930 H 0.84735 0.35103 0.4408 0.0
H931 H 0.84638 0.51939 0.42184 0.0
H932 H 0.82067 0.40999 0.50714 0.0
H933 H 0.87646 0.46069 0.35699 0.0
H934 H 0.84702 0.48057 0.45695 0.0
H935 H 0.86621 0.39106 0.41322 0.0
C936 C 0.8453 0.37248 0.44954 0.0
C937 C 0.83173 0.3773 0.47601 0.0
C938 C 0.8542 0.47622 0.43527 0.0
C939 C 0.85362 0.42332 0.4445 0.0
C940 C 0.85408 0.49843 0.4153 0.0
C941 C 0.86108 0.49297 0.38656 0.0
C942 C 0.8608 0.44829 0.42618 0.0
C943 C 0.87091 0.46563 0.37902 0.0
C944 C 0.85639 0.39532 0.43386 0.0
C945 C 0.83047 0.40542 0.48657 0.0
N946 N 0.86981 0.44403 0.39862 0.0
N947 N 0.84095 0.42746 0.47058 0.0
H948 H 0.17602 0.37701 0.85659 0.0
H949 H 0.226 0.32422 1.01182 0.0
H950 H 0.11838 0.34563 0.92176 0.0
H951 H 0.28267 0.34043 0.94031 0.0
H952 H 0.18606 0.34385 0.98355 0.0
H953 H 0.2148 0.37779 0.89225 0.0
C954 C 0.17131 0.37144 0.87868 0.0
C955 C 0.1443 0.36085 0.88635 0.0
C956 C 0.20733 0.34328 0.9742 0.0
C957 C 0.1883 0.3608 0.92675 0.0
C958 C 0.23001 0.33188 0.99022 0.0
C959 C 0.25747 0.33001 0.97812 0.0
C960 C 0.21231 0.353 0.94603 0.0
C961 C 0.26169 0.34079 0.95027 0.0
C962 C 0.19346 0.37148 0.89894 0.0
C963 C 0.13918 0.35357 0.9151 0.0
N964 N 0.23932 0.35163 0.93512 0.0
N965 N 0.16114 0.35314 0.9342 0.0
H966 H 0.25907 0.67686 0.35653 0.0
H967 H 0.31275 0.72833 0.51088 0.0
H968 H 0.28767 0.6196 0.42342 0.0
H969 H 0.29717 0.78444 0.43868 0.0
H970 H 0.29263 0.6884 0.48315 0.0
H971 H 0.25959 0.7165 0.39116 0.0
C972 C 0.26429 0.67246 0.37878 0.0
C973 C 0.27372 0.64523 0.38722 0.0
C974 C 0.29348 0.70953 0.4735 0.0
C975 C 0.27529 0.69018 0.42648 0.0
C976 C 0.30519 0.73222 0.48921 0.0
C977 C 0.30726 0.75956 0.47683 0.0
C978 C 0.28371 0.71432 0.4453 0.0
C979 C 0.29657 0.76358 0.4489 0.0
C980 C 0.265 0.6951 0.39845 0.0
C981 C 0.28059 0.64053 0.41616 0.0
N982 N 0.28545 0.74118 0.43403 0.0
N983 N 0.28178 0.66293 0.43469 0.0
H984 H 0.90973 0.32328 0.1278 0.0
H985 H 0.96009 0.37715 0.28246 0.0
H986 H 0.85297 0.34014 0.1991 0.0
H987 H 1.01776 0.34753 0.2165 0.0
H988 H 0.92084 0.37693 0.24732 0.0
H989 H 0.94962 0.34301 0.15592 0.0
C990 C 0.90569 0.33104 0.14935 0.0
C991 C 0.87818 0.32944 0.16138 0.0
C992 C 0.94226 0.37122 0.24034 0.0
C993 C 0.92336 0.35255 0.19334 0.0
C994 C 0.96468 0.37177 0.2603 0.0
C995 C 0.99189 0.36197 0.25227 0.0
C996 C 0.94738 0.36075 0.21244 0.0
C997 C 0.99683 0.35489 0.22345 0.0
C998 C 0.92836 0.34253 0.16528 0.0
C999 C 0.87397 0.34038 0.18916 0.0
N1000 N 0.97464 0.35388 0.20463 0.0
N1001 N 0.89634 0.35128 0.20426 0.0
H1002 H 0.26092 0.46154 0.77825 0.0
H1003 H 0.318 0.40738 0.62603 0.0
H1004 H 0.29839 0.51678 0.71419 0.0
H1005 H 0.29645 0.35211 0.69728 0.0
H1006 H 0.29958 0.44845 0.6533 0.0
H1007 H 0.2605 0.42226 0.74317 0.0
C1008 C 0.26803 0.46564 0.75649 0.0
C1009 C 0.28011 0.49207 0.74904 0.0
C1010 C 0.29874 0.42726 0.66282 0.0
C1011 C 0.28043 0.44753 0.70932 0.0
C1012 C 0.30946 0.40391 0.64738 0.0
C1013 C 0.3094 0.37647 0.6597 0.0
C1014 C 0.28779 0.423 0.69063 0.0
C1015 C 0.29753 0.37302 0.68719 0.0
C1016 C 0.26813 0.4432 0.73659 0.0
C1017 C 0.28927 0.49642 0.72071 0.0
N1018 N 0.28738 0.39603 0.70179 0.0
N1019 N 0.28973 0.47419 0.70196 0.0
H1020 H 0.28766 0.7946 0.20022 0.0
H1021 H 0.11903 0.78857 0.21587 0.0
H1022 H 0.22885 0.81636 0.13186 0.0
H1023 H 0.17764 0.76261 0.28266 0.0
H1024 H 0.15855 0.78884 0.1816 0.0
H1025 H 0.24792 0.77509 0.22778 0.0
C1026 C 0.26631 0.79544 0.19103 0.0
C1027 C 0.26143 0.80777 0.16394 0.0
C1028 C 0.16276 0.78234 0.20354 0.0
C1029 C 0.21576 0.78509 0.19541 0.0
C1030 C 0.14016 0.78192 0.22302 0.0
C1031 C 0.14533 0.77583 0.25204 0.0
C1032 C 0.19077 0.77724 0.21339 0.0
C1033 C 0.17291 0.7674 0.26039 0.0
C1034 C 0.24365 0.78398 0.20671 0.0
C1035 C 0.23345 0.80755 0.15288 0.0
N1036 N 0.19486 0.76904 0.24124 0.0
N1037 N 0.21158 0.79669 0.16883 0.0
H1038 H 0.87798 0.67609 0.78216 0.0
H1039 H 0.82385 0.72717 0.62779 0.0
H1040 H 0.84647 0.61892 0.71655 0.0
H1041 H 0.84246 0.78371 0.69888 0.0
H1042 H 0.84314 0.68696 0.65579 0.0
H1043 H 0.87837 0.71521 0.74691 0.0
C1044 C 0.87227 0.67156 0.76006 0.0
C1045 C 0.86179 0.64457 0.75217 0.0
C1046 C 0.84316 0.70825 0.66512 0.0
C1047 C 0.86129 0.68895 0.71221 0.0
C1048 C 0.83193 0.7311 0.64926 0.0
C1049 C 0.8309 0.75864 0.66129 0.0
C1050 C 0.85349 0.71309 0.69311 0.0
C1051 C 0.84223 0.76271 0.68896 0.0
C1052 C 0.8721 0.69391 0.74004 0.0
C1053 C 0.85434 0.6397 0.72341 0.0
N1054 N 0.85285 0.74016 0.70399 0.0
N1055 N 0.85371 0.66184 0.70454 0.0
H1056 H 0.85591 0.96073 0.75947 0.0
H1057 H 1.00994 0.90918 0.81398 0.0
H1058 H 0.92174 1.01772 0.79072 0.0
H1059 H 0.93866 0.85285 0.79565 0.0
H1060 H 0.98213 0.94941 0.79447 0.0
H1061 H 0.89095 0.9214 0.75935 0.0
C1062 C 0.87802 0.96516 0.76516 0.0
C1063 C 0.88604 0.99218 0.7755 0.0
C1064 C 0.97271 0.92817 0.79457 0.0
C1065 C 0.92574 0.94758 0.7763 0.0
C1066 C 0.98847 0.9053 0.80592 0.0
C1067 C 0.97633 0.87782 0.80708 0.0
C1068 C 0.94472 0.92339 0.78425 0.0
C1069 C 0.94866 0.87382 0.79578 0.0
C1070 C 0.89792 0.9427 0.7655 0.0
C1071 C 0.9148 0.99694 0.78295 0.0
N1072 N 0.93373 0.89638 0.78504 0.0
N1073 N 0.93354 0.9747 0.78374 0.0
H1074 H 0.61869 0.42296 0.28758 0.0
H1075 H 0.78722 0.43932 0.29206 0.0
H1076 H 0.67733 0.35665 0.26076 0.0
H1077 H 0.72839 0.50717 0.315 0.0
H1078 H 0.74742 0.4119 0.27242 0.0
H1079 H 0.65801 0.45747 0.28738 0.0
C1080 C 0.63977 0.41596 0.28064 0.0
C1081 C 0.64504 0.38701 0.27448 0.0
C1082 C 0.74316 0.43283 0.28159 0.0
C1083 C 0.69025 0.42594 0.27533 0.0
C1084 C 0.76585 0.44842 0.29313 0.0
C1085 C 0.76097 0.4753 0.30586 0.0
C1086 C 0.71524 0.44398 0.28304 0.0
C1087 C 0.73298 0.48629 0.30589 0.0
C1088 C 0.66226 0.43559 0.28079 0.0
C1089 C 0.67254 0.37886 0.26565 0.0
N1090 N 0.71107 0.4704 0.29496 0.0
N1091 N 0.69438 0.39815 0.26703 0.0
H1092 H 0.21634 0.11803 0.7879 0.0
H1093 H 0.19961 0.2866 0.79395 0.0
H1094 H 0.28287 0.17694 0.76243 0.0
H1095 H 0.13144 0.22751 0.81499 0.0
H1096 H 0.22757 0.24697 0.7747 0.0
H1097 H 0.18185 0.15741 0.78799 0.0
C1098 C 0.2234 0.1392 0.78131 0.0
C1099 C 0.25239 0.14449 0.77541 0.0
C1100 C 0.20645 0.24262 0.78337 0.0
C1101 C 0.21348 0.18977 0.77663 0.0
C1102 C 0.19054 0.26522 0.79467 0.0
C1103 C 0.16338 0.26023 0.80672 0.0
C1104 C 0.19531 0.21469 0.78434 0.0
C1105 C 0.1525 0.2322 0.80639 0.0
C1106 C 0.20378 0.16172 0.78164 0.0
C1107 C 0.26062 0.17212 0.76707 0.0
N1108 N 0.16866 0.2104 0.79567 0.0
N1109 N 0.24134 0.19398 0.76861 0.0
H1110 H 0.40775 0.62664 0.31867 0.0
H1111 H 0.46075 0.77926 0.26178 0.0
H1112 H 0.35206 0.69818 0.29912 0.0
H1113 H 0.51681 0.71458 0.29707 0.0
H1114 H 0.42136 0.74434 0.26198 0.0
H1115 H 0.44838 0.65402 0.29958 0.0
C1116 C 0.4041 0.64809 0.31045 0.0
C1117 C 0.37667 0.66043 0.31112 0.0
C1118 C 0.44249 0.73759 0.26899 0.0
C1119 C 0.42269 0.6915 0.28873 0.0
C1120 C 0.46498 0.7574 0.2685 0.0
C1121 C 0.49172 0.74971 0.27982 0.0
C1122 C 0.44707 0.71018 0.28089 0.0
C1123 C 0.49623 0.72128 0.28854 0.0
C1124 C 0.42719 0.66359 0.29933 0.0
C1125 C 0.37297 0.68806 0.29963 0.0
N1126 N 0.47396 0.70261 0.28938 0.0
N1127 N 0.39575 0.70272 0.28908 0.0
H1128 H 0.92195 0.11941 0.35005 0.0
H1129 H 0.93856 0.2879 0.34506 0.0
H1130 H 0.85558 0.17824 0.37625 0.0
H1131 H 1.00651 0.2289 0.32286 0.0
H1132 H 0.91094 0.24821 0.36456 0.0
H1133 H 0.95651 0.15868 0.35028 0.0
C1134 C 0.91495 0.14052 0.35688 0.0
C1135 C 0.88597 0.14584 0.36287 0.0
C1136 C 0.93193 0.24388 0.35559 0.0
C1137 C 0.92495 0.19101 0.36202 0.0
C1138 C 0.94765 0.26651 0.34413 0.0
C1139 C 0.97463 0.26157 0.33166 0.0
C1140 C 0.94307 0.21595 0.35432 0.0
C1141 C 0.98557 0.23355 0.33177 0.0
C1142 C 0.9346 0.16299 0.35674 0.0
C1143 C 0.87782 0.17339 0.37153 0.0
N1144 N 0.96957 0.2117 0.34262 0.0
N1145 N 0.89713 0.19522 0.37016 0.0
H1146 H 0.52037 0.42194 0.84949 0.0
H1147 H 0.35255 0.43943 0.84211 0.0
H1148 H 0.46099 0.35646 0.87651 0.0
H1149 H 0.41155 0.50851 0.82399 0.0
H1150 H 0.39178 0.41158 0.86224 0.0
H1151 H 0.48148 0.45699 0.8497 0.0
C1152 C 0.49923 0.41524 0.8565 0.0
C1153 C 0.49362 0.38636 0.8627 0.0
C1154 C 0.39622 0.43288 0.85407 0.0
C1155 C 0.44889 0.4259 0.86186 0.0
C1156 C 0.37386 0.44873 0.84223 0.0
C1157 C 0.37896 0.47609 0.83068 0.0
C1158 C 0.42408 0.44422 0.85404 0.0
C1159 C 0.40682 0.48729 0.83218 0.0
C1160 C 0.47698 0.43518 0.85637 0.0
C1161 C 0.46605 0.3786 0.8716 0.0
N1162 N 0.42847 0.47111 0.84329 0.0
N1163 N 0.44444 0.39817 0.87022 0.0
H1164 H 0.27893 0.9624 0.37806 0.0
H1165 H 0.12625 0.90942 0.32138 0.0
H1166 H 0.21433 1.01837 0.34247 0.0
H1167 H 0.19734 0.85367 0.34231 0.0
H1168 H 0.15361 0.95016 0.34035 0.0
H1169 H 0.2438 0.92322 0.37851 0.0
C1170 C 0.25704 0.96667 0.37142 0.0
C1171 C 0.24944 0.9933 0.3598 0.0
C1172 C 0.16308 0.92893 0.34094 0.0
C1173 C 0.20967 0.94885 0.35945 0.0
C1174 C 0.14759 0.90578 0.32989 0.0
C1175 C 0.15983 0.8783 0.32961 0.0
C1176 C 0.19089 0.92445 0.35185 0.0
C1177 C 0.18731 0.87461 0.34148 0.0
C1178 C 0.23711 0.94429 0.37131 0.0
C1179 C 0.22097 0.99787 0.35122 0.0
N1180 N 0.20198 0.89745 0.35192 0.0
N1181 N 0.20219 0.97568 0.3507 0.0
H1182 H 0.61895 0.71538 0.84927 0.0
H1183 H 0.78754 0.6984 0.84524 0.0
H1184 H 0.67773 0.78145 0.87636 0.0
H1185 H 0.72864 0.63055 0.82256 0.0
H1186 H 0.74773 0.72614 0.86437 0.0
H1187 H 0.65825 0.68079 0.84926 0.0
C1188 C 0.64006 0.72231 0.85621 0.0
C1189 C 0.64535 0.75122 0.86254 0.0
C1190 C 0.74345 0.70514 0.85537 0.0
C1191 C 0.69054 0.7122 0.86147 0.0
C1192 C 0.76615 0.68935 0.84413 0.0
C1193 C 0.76127 0.66236 0.83164 0.0
C1194 C 0.71552 0.69406 0.85388 0.0
C1195 C 0.73325 0.65149 0.83151 0.0
C1196 C 0.66253 0.70264 0.85594 0.0
C1197 C 0.6729 0.75927 0.87136 0.0
N1198 N 0.71133 0.66755 0.84216 0.0
N1199 N 0.69472 0.73995 0.86989 0.0
H1200 H 0.79272 0.93893 0.84964 0.0
H1201 H 0.78814 0.9227 1.01838 0.0
H1202 H 0.81532 1.00696 0.90841 0.0
H1203 H 0.76113 0.85642 0.95977 0.0
H1204 H 0.7883 0.95711 0.97891 0.0
H1205 H 0.7734 0.9114 0.88952 0.0
C1206 C 0.79377 0.94806 0.87101 0.0
C1207 C 0.80629 0.97504 0.87584 0.0
C1208 C 0.78161 0.93526 0.9747 0.0
C1209 C 0.78385 0.94359 0.92166 0.0
C1210 C 0.78125 0.91569 0.99727 0.0
C1211 C 0.7749 0.88677 0.99207 0.0
C1212 C 0.77615 0.92558 0.9467 0.0
C1213 C 0.76615 0.87861 0.96452 0.0
C1214 C 0.78243 0.93239 0.89375 0.0
C1215 C 0.80635 0.98602 0.90384 0.0
N1216 N 0.76771 0.89783 0.94261 0.0
N1217 N 0.7956 0.97009 0.92579 0.0
H1218 H 0.78874 0.21576 0.11905 0.0
H1219 H 0.79395 0.19985 0.28784 0.0
H1220 H 0.76295 0.28257 0.17758 0.0
H1221 H 0.81581 0.13156 0.2291 0.0
H1222 H 0.77473 0.22753 0.24795 0.0
H1223 H 0.78867 0.18145 0.1586 0.0
C1224 C 0.78205 0.22292 0.14016 0.0
C1225 C 0.77612 0.25194 0.14531 0.0
C1226 C 0.78357 0.20644 0.24373 0.0
C1227 C 0.77714 0.21324 0.19078 0.0
C1228 C 0.79486 0.19069 0.26647 0.0
C1229 C 0.80713 0.16359 0.26166 0.0
C1230 C 0.78479 0.1952 0.21583 0.0
C1231 C 0.80703 0.15259 0.23366 0.0
C1232 C 0.78229 0.20341 0.16278 0.0
C1233 C 0.76764 0.2603 0.17286 0.0
N1234 N 0.79632 0.1686 0.21171 0.0
N1235 N 0.76908 0.24112 0.19483 0.0
H1236 H 0.43925 0.29387 0.78788 0.0
H1237 H 0.42319 0.28746 0.61918 0.0
H1238 H 0.50736 0.31587 0.72906 0.0
H1239 H 0.35701 0.26065 0.67791 0.0
H1240 H 0.45756 0.2882 0.6587 0.0
H1241 H 0.41179 0.27411 0.74813 0.0
C1242 C 0.4484 0.29472 0.76652 0.0
C1243 C 0.47539 0.30718 0.76164 0.0
C1244 C 0.43574 0.28142 0.66293 0.0
C1245 C 0.44403 0.28421 0.71597 0.0
C1246 C 0.4162 0.28074 0.64034 0.0
C1247 C 0.38731 0.27427 0.64554 0.0
C1248 C 0.42607 0.27618 0.69097 0.0
C1249 C 0.37917 0.26574 0.67315 0.0
C1250 C 0.43278 0.2831 0.74386 0.0
C1251 C 0.48641 0.30696 0.73366 0.0
N1252 N 0.39837 0.26762 0.69508 0.0
N1253 N 0.47051 0.29595 0.71178 0.0
H1254 H 0.35082 0.92197 0.11882 0.0
H1255 H 0.33576 0.93785 0.28591 0.0
H1256 H 0.37512 0.85577 0.17872 0.0
H1257 H 0.32532 1.00912 0.22753 0.0
H1258 H 0.35665 0.90973 0.24737 0.0
H1259 H 0.35024 0.95677 0.15794 0.0
C1260 C 0.35713 0.91506 0.14015 0.0
C1261 C 0.36275 0.88606 0.1458 0.0
C1262 C 0.35001 0.93156 0.24292 0.0
C1263 C 0.36094 0.9253 0.19075 0.0
C1264 C 0.33772 0.94759 0.26488 0.0
C1265 C 0.3282 0.97572 0.25975 0.0
C1266 C 0.35241 0.94349 0.21539 0.0
C1267 C 0.33193 0.98735 0.23225 0.0
C1268 C 0.35654 0.93486 0.16252 0.0
C1269 C 0.3707 0.87801 0.17362 0.0
N1270 N 0.34341 0.97101 0.21094 0.0
N1271 N 0.36882 0.89745 0.19531 0.0
H1272 H 0.71588 0.84564 0.61936 0.0
H1273 H 0.69816 0.84454 0.788 0.0
H1274 H 0.7814 0.87445 0.67803 0.0
H1275 H 0.63076 0.82022 0.72913 0.0
H1276 H 0.72591 0.86315 0.74797 0.0
H1277 H 0.68114 0.8459 0.65849 0.0
C1278 C 0.72266 0.85297 0.6404 0.0
C1279 C 0.75147 0.85974 0.64574 0.0
C1280 C 0.705 0.85391 0.74373 0.0
C1281 C 0.71227 0.85903 0.69074 0.0
C1282 C 0.68922 0.84296 0.76657 0.0
C1283 C 0.66236 0.83016 0.76178 0.0
C1284 C 0.69407 0.85179 0.71576 0.0
C1285 C 0.6516 0.82943 0.73368 0.0
C1286 C 0.7029 0.85288 0.66277 0.0
C1287 C 0.75931 0.86909 0.67318 0.0
N1288 N 0.66767 0.83979 0.71164 0.0
N1289 N 0.73991 0.86781 0.69492 0.0
H1290 H 0.37662 0.27934 0.96243 0.0
H1291 H 0.32076 0.12632 0.90953 0.0
H1292 H 0.34067 0.21503 1.01838 0.0
H1293 H 0.34151 0.19729 0.85362 0.0
H1294 H 0.33923 0.15398 0.95033 0.0
H1295 H 0.37718 0.2441 0.9233 0.0
C1296 C 0.36988 0.2575 0.9667 0.0
C1297 C 0.35817 0.25001 0.9933 0.0
C1298 C 0.33988 0.16336 0.92906 0.0
C1299 C 0.35798 0.2101 0.94893 0.0
C1300 C 0.32913 0.1477 0.90587 0.0
C1301 C 0.32895 0.15981 0.87832 0.0
C1302 C 0.35061 0.19121 0.92455 0.0
C1303 C 0.34061 0.18735 0.87461 0.0
C1304 C 0.36985 0.2375 0.94436 0.0
C1305 C 0.34949 0.22159 0.99789 0.0
N1306 N 0.35079 0.20218 0.89749 0.0
N1307 N 0.34907 0.20274 0.97574 0.0
H1308 H 0.35687 0.87779 0.46173 0.0
H1309 H 0.51132 0.82373 0.4113 0.0
H1310 H 0.42184 0.84525 0.51913 0.0
H1311 H 0.44023 0.84201 0.35456 0.0
H1312 H 0.48328 0.8431 0.45145 0.0
H1313 H 0.39239 0.87846 0.42289 0.0
C1314 C 0.37889 0.8719 0.46637 0.0
C1315 C 0.38652 0.86104 0.49333 0.0
C1316 C 0.47398 0.84304 0.43012 0.0
C1317 C 0.42678 0.86091 0.44928 0.0
C1318 C 0.48987 0.83179 0.40731 0.0
C1319 C 0.4778 0.83058 0.37976 0.0
C1320 C 0.44597 0.85325 0.4252 0.0
C1321 C 0.45015 0.84186 0.3756 0.0
C1322 C 0.39907 0.8719 0.44419 0.0
C1323 C 0.41519 0.85339 0.49836 0.0
N1324 N 0.43511 0.85252 0.3981 0.0
N1325 N 0.43421 0.85294 0.47638 0.0
H1326 H 0.62773 0.31571 0.40824 0.0
H1327 H 0.7819 0.26172 0.46024 0.0
H1328 H 0.69933 0.29839 0.35202 0.0
H1329 H 0.71581 0.29249 0.51717 0.0
H1330 H 0.7471 0.2621 0.42066 0.0
H1331 H 0.6557 0.29655 0.44854 0.0
C1332 C 0.64931 0.30797 0.4044 0.0
C1333 C 0.66146 0.30925 0.37691 0.0
C1334 C 0.74003 0.26805 0.44199 0.0
C1335 C 0.69326 0.28681 0.42258 0.0
C1336 C 0.75978 0.26743 0.46459 0.0
C1337 C 0.75162 0.27745 0.4917 0.0
C1338 C 0.71219 0.27881 0.44681 0.0
C1339 C 0.72287 0.28494 0.49633 0.0
C1340 C 0.66517 0.29681 0.42731 0.0
C1341 C 0.6893 0.29837 0.37298 0.0
N1342 N 0.70425 0.28598 0.47397 0.0
N1343 N 0.70431 0.28779 0.39558 0.0
H1344 H 0.25857 0.29093 0.49501 0.0
H1345 H 0.14236 0.34426 0.37989 0.0
H1346 H 0.23292 0.37933 0.48437 0.0
H1347 H 0.15295 0.256 0.40601 0.0
H1348 H 0.18247 0.35759 0.41143 0.0
H1349 H 0.22653 0.27766 0.45529 0.0
C1350 C 0.24633 0.30747 0.48415 0.0
C1351 C 0.24786 0.33608 0.49304 0.0
C1352 C 0.17606 0.33529 0.41006 0.0
C1353 C 0.21168 0.32136 0.44797 0.0
C1354 C 0.15327 0.32777 0.39214 0.0
C1355 C 0.14427 0.29918 0.39087 0.0
C1356 C 0.1898 0.31394 0.42645 0.0
C1357 C 0.15908 0.2784 0.40683 0.0
C1358 C 0.22812 0.29998 0.46159 0.0
C1359 C 0.23189 0.35691 0.47831 0.0
N1360 N 0.18108 0.28622 0.42411 0.0
N1361 N 0.2143 0.34911 0.45654 0.0
H1362 H 0.34384 0.75901 0.99666 0.0
H1363 H 0.29192 0.64297 0.88088 0.0
H1364 H 0.25583 0.73212 0.98609 0.0
H1365 H 0.38005 0.65427 0.90718 0.0
H1366 H 0.27814 0.68278 0.91257 0.0
H1367 H 0.35749 0.72745 0.95672 0.0
C1368 C 0.32746 0.74659 0.98578 0.0
C1369 C 0.29886 0.74764 0.99475 0.0
C1370 C 0.30051 0.6766 0.91119 0.0
C1371 C 0.314 0.71203 0.9494 0.0
C1372 C 0.30829 0.65399 0.89318 0.0
C1373 C 0.33697 0.64525 0.89195 0.0
C1374 C 0.32169 0.69043 0.9277 0.0
C1375 C 0.35758 0.66019 0.90798 0.0
C1376 C 0.33517 0.72866 0.96308 0.0
C1377 C 0.27824 0.73147 0.97998 0.0
N1378 N 0.34951 0.68201 0.92536 0.0
N1379 N 0.28624 0.71416 0.95807 0.0
H1380 H 0.99518 0.79253 0.37897 0.0
H1381 H 0.87931 0.84424 0.49489 0.0
H1382 H 0.98357 0.88066 0.40504 0.0
H1383 H 0.906 0.7562 0.48392 0.0
H1384 H 0.91081 0.858 0.45497 0.0
H1385 H 0.95549 0.77869 0.41071 0.0
C1386 C 0.98412 0.80889 0.39123 0.0
C1387 C 0.99273 0.8376 0.38991 0.0
C1388 C 0.90958 0.83565 0.46125 0.0
C1389 C 0.94768 0.82223 0.42575 0.0
C1390 C 0.89168 0.82788 0.48393 0.0
C1391 C 0.89058 0.79923 0.49278 0.0
C1392 C 0.92614 0.8145 0.44746 0.0
C1393 C 0.90669 0.77864 0.4779 0.0
C1394 C 0.96157 0.80107 0.40927 0.0
C1395 C 0.97774 0.85818 0.4059 0.0
N1396 N 0.92397 0.78671 0.45601 0.0
N1397 N 0.95598 0.85007 0.42332 0.0
H1398 H 0.75522 0.48447 0.90651 0.0
H1399 H 0.88343 0.40371 0.98344 0.0
H1400 H 0.84371 0.49492 0.88131 0.0
H1401 H 0.79463 0.38049 0.9956 0.0
H1402 H 0.86941 0.4357 0.94453 0.0
H1403 H 0.76911 0.44496 0.93778 0.0
C1404 C 0.77763 0.47831 0.90755 0.0
C1405 C 0.79851 0.49305 0.89174 0.0
C1406 C 0.85297 0.42345 0.95547 0.0
C1407 C 0.81451 0.44801 0.9274 0.0
C1408 C 0.86093 0.40531 0.97776 0.0
C1409 C 0.84001 0.38988 0.99283 0.0
C1410 C 0.82385 0.42639 0.94852 0.0
C1411 C 0.81128 0.39231 0.98452 0.0
C1412 C 0.7855 0.45567 0.92526 0.0
C1413 C 0.8271 0.48411 0.89343 0.0
N1414 N 0.80394 0.41059 0.96302 0.0
N1415 N 0.83437 0.46225 0.9113 0.0
H1416 H 0.25826 0.84438 0.6431 0.0
H1417 H 0.14225 0.79198 0.75855 0.0
H1418 H 0.23137 0.75634 0.65329 0.0
H1419 H 0.15411 0.88032 0.73333 0.0
H1420 H 0.18192 0.7783 0.72668 0.0
H1421 H 0.22677 0.85789 0.68313 0.0
C1422 C 0.24584 0.82797 0.65391 0.0
C1423 C 0.24689 0.7994 0.64481 0.0
C1424 C 0.1759 0.80069 0.72834 0.0
C1425 C 0.21135 0.81437 0.69026 0.0
C1426 C 0.15337 0.80842 0.74645 0.0
C1427 C 0.14483 0.83714 0.74804 0.0
C1428 C 0.18984 0.82196 0.71206 0.0
C1429 C 0.15989 0.85783 0.73226 0.0
C1430 C 0.22796 0.83559 0.67666 0.0
C1431 C 0.23073 0.77873 0.6595 0.0
N1432 N 0.18162 0.84981 0.71476 0.0
N1433 N 0.21346 0.78665 0.68146 0.0
H1434 H 0.75465 0.65261 0.23112 0.0
H1435 H 0.88183 0.73435 0.15422 0.0
H1436 H 0.84328 0.6428 0.25635 0.0
H1437 H 0.7928 0.7571 0.14236 0.0
H1438 H 0.86825 0.7024 0.19328 0.0
H1439 H 0.76809 0.69242 0.20012 0.0
C1440 C 0.777 0.65898 0.23015 0.0
C1441 C 0.79805 0.64431 0.24587 0.0
C1442 C 0.85167 0.71455 0.18238 0.0
C1443 C 0.81353 0.68972 0.2105 0.0
C1444 C 0.85937 0.73266 0.16001 0.0
C1445 C 0.83825 0.74792 0.14495 0.0
C1446 C 0.82261 0.71146 0.18943 0.0
C1447 C 0.80959 0.7454 0.15341 0.0
C1448 C 0.78461 0.68179 0.21259 0.0
C1449 C 0.82654 0.65353 0.24428 0.0
N1450 N 0.80251 0.72713 0.17498 0.0
N1451 N 0.83357 0.67556 0.22653 0.0
H1452 H 0.90419 0.38222 0.65533 0.0
H1453 H 0.98521 0.25374 0.73141 0.0
H1454 H 0.88104 0.29346 0.64263 0.0
H1455 H 0.99551 0.34208 0.75726 0.0
H1456 H 0.94555 0.26773 0.70034 0.0
H1457 H 0.93612 0.36804 0.69426 0.0
C1458 C 0.90579 0.35969 0.66091 0.0
C1459 C 0.8904 0.33882 0.64566 0.0
C1460 C 0.95626 0.28407 0.71296 0.0
C1461 C 0.92685 0.32249 0.68999 0.0
C1462 C 0.97898 0.27614 0.73056 0.0
C1463 C 0.99373 0.29695 0.74649 0.0
C1464 C 0.94852 0.31307 0.71104 0.0
C1465 C 0.9847 0.32552 0.74503 0.0
C1466 C 0.92389 0.35164 0.6832 0.0
C1467 C 0.89282 0.31006 0.65384 0.0
N1468 N 0.96276 0.33286 0.72726 0.0
N1469 N 0.91107 0.30264 0.67535 0.0
H1470 H 0.38224 0.48514 0.23479 0.0
H1471 H 0.25483 0.40552 0.15564 0.0
H1472 H 0.29342 0.49582 0.25871 0.0
H1473 H 0.34375 0.3823 0.14411 0.0
H1474 H 0.26846 0.43698 0.19506 0.0
H1475 H 0.36871 0.44582 0.20315 0.0
C1476 C 0.35984 0.47905 0.2334 0.0
C1477 C 0.33876 0.49383 0.24893 0.0
C1478 C 0.28501 0.42485 0.18415 0.0
C1479 C 0.32317 0.44902 0.21286 0.0
C1480 C 0.27728 0.40702 0.16156 0.0
C1481 C 0.29835 0.39175 0.14652 0.0
C1482 C 0.31406 0.42764 0.19144 0.0
C1483 C 0.327 0.39401 0.15515 0.0
C1484 C 0.35217 0.45653 0.21548 0.0
C1485 C 0.31018 0.48499 0.2468 0.0
N1486 N 0.33411 0.412 0.17696 0.0
N1487 N 0.30311 0.46325 0.22873 0.0
H1488 H 0.3805 0.14298 0.34543 0.0
H1489 H 0.49548 0.25922 0.29258 0.0
H1490 H 0.40693 0.15351 0.25724 0.0
H1491 H 0.48492 0.23331 0.38094 0.0
H1492 H 0.4558 0.22726 0.27916 0.0
H1493 H 0.41191 0.1831 0.35891 0.0
C1494 C 0.39279 0.15388 0.32898 0.0
C1495 C 0.39165 0.14485 0.30037 0.0
C1496 C 0.4621 0.22877 0.3015 0.0
C1497 C 0.42706 0.19041 0.31531 0.0
C1498 C 0.48464 0.24694 0.30908 0.0
C1499 C 0.49356 0.24837 0.33772 0.0
C1500 C 0.44853 0.21228 0.32283 0.0
C1501 C 0.47885 0.23236 0.3585 0.0
C1502 C 0.41063 0.17668 0.33659 0.0
C1503 C 0.40765 0.15965 0.27966 0.0
N1504 N 0.4571 0.21481 0.35062 0.0
N1505 N 0.42485 0.18167 0.28756 0.0
H1506 H 0.40569 0.98412 0.88301 0.0
H1507 H 0.48422 0.90459 0.75521 0.0
H1508 H 0.38134 0.99512 0.79424 0.0
H1509 H 0.49538 0.88062 0.84406 0.0
H1510 H 0.44508 0.93636 0.76895 0.0
H1511 H 0.43718 0.94478 0.86926 0.0
C1512 C 0.40696 0.97811 0.86057 0.0
C1513 C 0.39133 0.99296 0.83957 0.0
C1514 C 0.45585 0.924 0.78545 0.0
C1515 C 0.42726 0.94812 0.82372 0.0
C1516 C 0.47827 0.90599 0.77767 0.0
C1517 C 0.49313 0.8904 0.79869 0.0
C1518 C 0.44854 0.92665 0.81451 0.0
C1519 C 0.48448 0.89256 0.82734 0.0
C1520 C 0.4248 0.95557 0.85277 0.0
C1521 C 0.39332 0.98421 0.81094 0.0
N1522 N 0.46285 0.91072 0.83451 0.0
N1523 N 0.41132 0.96245 0.80375 0.0
H1524 H 0.75986 0.9954 0.34397 0.0
H1525 H 0.64349 0.88028 0.29154 0.0
H1526 H 0.73221 0.98578 0.25599 0.0
H1527 H 0.6559 0.90514 0.37998 0.0
H1528 H 0.68328 0.91197 0.27783 0.0
H1529 H 0.72872 0.9551 0.3574 0.0
C1530 C 0.74736 0.98465 0.32755 0.0
C1531 C 0.74807 0.994 0.29903 0.0
C1532 C 0.67736 0.91026 0.30025 0.0
C1533 C 0.71292 0.94825 0.31392 0.0
C1534 C 0.65476 0.89225 0.308 0.0
C1535 C 0.64632 0.89065 0.33675 0.0
C1536 C 0.69147 0.92641 0.32153 0.0
C1537 C 0.66159 0.90625 0.35746 0.0
C1538 C 0.72967 0.96175 0.33513 0.0
C1539 C 0.73181 0.97939 0.27835 0.0
N1540 N 0.68337 0.92366 0.34942 0.0
N1541 N 0.71473 0.95728 0.28623 0.0
H1542 H 0.73291 0.15353 0.88238 0.0
H1543 H 0.65302 0.2322 0.75472 0.0
H1544 H 0.75657 0.14228 0.79351 0.0
H1545 H 0.64259 0.25668 0.84348 0.0
H1546 H 0.69245 0.20071 0.76838 0.0
H1547 H 0.70132 0.19285 0.86866 0.0
C1548 C 0.73148 0.1595 0.85992 0.0
C1549 C 0.74692 0.14456 0.83889 0.0
C1550 C 0.68177 0.21313 0.78488 0.0
C1551 C 0.71086 0.18936 0.82308 0.0
C1552 C 0.65918 0.23097 0.77714 0.0
C1553 C 0.64444 0.24662 0.79817 0.0
C1554 C 0.68939 0.21069 0.8139 0.0
C1555 C 0.65339 0.24468 0.82676 0.0
C1556 C 0.71358 0.18203 0.85215 0.0
C1557 C 0.74474 0.15325 0.81024 0.0
N1558 N 0.67519 0.22667 0.8339 0.0
N1559 N 0.72667 0.17498 0.80307 0.0
H1560 H 0.90653 0.7625 0.63727 0.0
H1561 H 1.00063 0.87366 0.73149 0.0
H1562 H 0.89866 0.85451 0.63073 0.0
H1563 H 1.00697 0.78167 0.73969 0.0
H1564 H 0.96452 0.86713 0.69357 0.0
H1565 H 0.94433 0.76899 0.67354 0.0
C1566 C 0.91286 0.78407 0.64318 0.0
C1567 C 0.89926 0.80795 0.63059 0.0
C1568 C 0.97391 0.84834 0.70355 0.0
C1569 C 0.94274 0.81562 0.67259 0.0
C1570 C 0.9947 0.85209 0.7252 0.0
C1571 C 1.00719 0.82823 0.73893 0.0
C1572 C 0.96536 0.82051 0.6953 0.0
C1573 C 0.99813 0.8008 0.72987 0.0
C1574 C 0.93444 0.78779 0.66407 0.0
C1575 C 0.90837 0.83537 0.63964 0.0
N1576 N 0.97793 0.79774 0.7088 0.0
N1577 N 0.92936 0.8384 0.65992 0.0
H1578 H 0.87553 0.40502 0.13756 0.0
H1579 H 0.76387 0.49977 0.23048 0.0
H1580 H 0.78354 0.3981 0.12975 0.0
H1581 H 0.8558 0.50608 0.23934 0.0
H1582 H 0.77066 0.46351 0.19281 0.0
H1583 H 0.8689 0.4428 0.1738 0.0
C1584 C 0.85394 0.41155 0.14319 0.0
C1585 C 0.83011 0.39823 0.13024 0.0
C1586 C 0.78938 0.47292 0.20288 0.0
C1587 C 0.82228 0.44168 0.17222 0.0
C1588 C 0.78549 0.4938 0.2244 0.0
C1589 C 0.80925 0.50636 0.23822 0.0
C1590 C 0.81727 0.46433 0.19486 0.0
C1591 C 0.83674 0.49722 0.22943 0.0
C1592 C 0.85015 0.43312 0.16406 0.0
C1593 C 0.80266 0.40759 0.13893 0.0
N1594 N 0.83995 0.47693 0.20847 0.0
N1595 N 0.79955 0.42855 0.15921 0.0
H1596 H 0.13059 0.35438 0.73942 0.0
H1597 H 0.24146 0.27868 0.63071 0.0
H1598 H 0.13875 0.26256 0.73099 0.0
H1599 H 0.23158 0.37048 0.63732 0.0
H1600 H 0.20372 0.27248 0.66664 0.0
H1601 H 0.16677 0.36058 0.7019 0.0
C1602 C 0.13982 0.33542 0.72962 0.0
C1603 C 0.13124 0.30783 0.73853 0.0
C1604 C 0.20965 0.29401 0.6602 0.0
C1605 C 0.17334 0.31494 0.69515 0.0
C1606 C 0.2313 0.29763 0.63955 0.0
C1607 C 0.23988 0.32522 0.63061 0.0
C1608 C 0.19622 0.31811 0.67242 0.0
C1609 C 0.22571 0.34879 0.64318 0.0
C1610 C 0.16062 0.33905 0.7081 0.0
C1611 C 0.14431 0.28425 0.72484 0.0
N1612 N 0.20477 0.3447 0.66337 0.0
N1613 N 0.16463 0.28835 0.70402 0.0
H1614 H 0.37354 0.63822 0.23409 0.0
H1615 H 0.2627 0.7325 0.13945 0.0
H1616 H 0.28151 0.63164 0.24137 0.0
H1617 H 0.35472 0.73978 0.13265 0.0
H1618 H 0.26912 0.6949 0.17588 0.0
H1619 H 0.36718 0.67448 0.19628 0.0
C1620 C 0.35199 0.64413 0.22764 0.0
C1621 C 0.32807 0.6315 0.24106 0.0
C1622 C 0.28793 0.70461 0.16633 0.0
C1623 C 0.32056 0.67352 0.19756 0.0
C1624 C 0.28426 0.72609 0.14535 0.0
C1625 C 0.30816 0.73944 0.1326 0.0
C1626 C 0.31575 0.69616 0.17482 0.0
C1627 C 0.33556 0.73024 0.14166 0.0
C1628 C 0.34836 0.66501 0.20604 0.0
C1629 C 0.30069 0.64056 0.23179 0.0
N1630 N 0.33856 0.70933 0.16204 0.0
N1631 N 0.29773 0.66084 0.2108 0.0
H1632 H 0.9065 0.3744 0.50135 0.0
H1633 H 0.99959 0.26313 0.40631 0.0
H1634 H 0.89816 0.28242 0.5075 0.0
H1635 H 1.0072 0.35513 0.39946 0.0
H1636 H 0.96342 0.26967 0.44412 0.0
H1637 H 0.94415 0.36783 0.46503 0.0
C1638 C 0.9127 0.35282 0.49534 0.0
C1639 C 0.89903 0.32898 0.50786 0.0
C1640 C 0.97311 0.28845 0.43446 0.0
C1641 C 0.94233 0.32121 0.46577 0.0
C1642 C 0.99394 0.28471 0.41287 0.0
C1643 C 1.00681 0.30856 0.39957 0.0
C1644 C 0.96491 0.31629 0.44306 0.0
C1645 C 0.99807 0.33599 0.40895 0.0
C1646 C 0.9342 0.34906 0.47443 0.0
C1647 C 0.90795 0.30154 0.49867 0.0
N1648 N 0.97784 0.33906 0.42995 0.0
N1649 N 0.92887 0.29846 0.47835 0.0
H1650 H 0.2876 0.43161 1.03144 0.0
H1651 H 0.30869 0.47333 0.86991 0.0
H1652 H 0.32985 0.37166 0.97515 0.0
H1653 H 0.34583 0.53049 0.93241 0.0
H1654 H 0.30262 0.43689 0.90758 0.0
H1655 H 0.29499 0.46974 0.99508 0.0
C1656 C 0.2982 0.42642 1.01142 0.0
C1657 C 0.30818 0.39838 1.00639 0.0
C1658 C 0.31201 0.45744 0.91304 0.0
C1659 C 0.31604 0.44161 0.96459 0.0
C1660 C 0.31552 0.47827 0.89158 0.0
C1661 C 0.32802 0.50499 0.8979 0.0
C1662 C 0.31995 0.46362 0.94146 0.0
C1663 C 0.33633 0.51012 0.92652 0.0
C1664 C 0.30257 0.44819 0.99082 0.0
C1665 C 0.32191 0.39294 0.98003 0.0
N1666 N 0.33179 0.48981 0.94733 0.0
N1667 N 0.32504 0.41414 0.96004 0.0
H1668 H 0.23147 0.76303 0.5002 0.0
H1669 H 0.13704 0.87413 0.40603 0.0
H1670 H 0.23918 0.85504 0.5067 0.0
H1671 H 0.1307 0.78214 0.39796 0.0
H1672 H 0.1733 0.8676 0.44381 0.0
H1673 H 0.19367 0.76949 0.46391 0.0
C1674 C 0.22511 0.78459 0.49427 0.0
C1675 C 0.23865 0.80848 0.50687 0.0
C1676 C 0.16389 0.84882 0.43388 0.0
C1677 C 0.19516 0.81611 0.46483 0.0
C1678 C 0.143 0.85255 0.4123 0.0
C1679 C 0.13044 0.8287 0.39866 0.0
C1680 C 0.17248 0.82098 0.44215 0.0
C1681 C 0.13957 0.80127 0.40771 0.0
C1682 C 0.20353 0.78829 0.47337 0.0
C1683 C 0.22951 0.83588 0.49779 0.0
N1684 N 0.15986 0.79821 0.42871 0.0
N1685 N 0.20851 0.8389 0.4775 0.0
H1686 H 0.85592 0.62988 0.89896 0.0
H1687 H 0.78011 0.7408 1.00753 0.0
H1688 H 0.76408 0.63795 0.90723 0.0
H1689 H 0.87194 0.73128 1.00069 0.0
H1690 H 0.77394 0.70293 0.9717 0.0
H1691 H 0.86206 0.66612 0.93644 0.0
C1692 C 0.83694 0.6391 0.90871 0.0
C1693 C 0.80936 0.63048 0.89976 0.0
C1694 C 0.79546 0.70896 0.97807 0.0
C1695 C 0.81641 0.67265 0.94313 0.0
C1696 C 0.79907 0.73069 0.99866 0.0
C1697 C 0.82666 0.73942 1.0075 0.0
C1698 C 0.81957 0.69559 0.96581 0.0
C1699 C 0.85024 0.7253 0.9949 0.0
C1700 C 0.84054 0.65993 0.93022 0.0
C1701 C 0.78576 0.64354 0.91342 0.0
N1702 N 0.84616 0.70427 0.97477 0.0
N1703 N 0.78983 0.6639 0.93423 0.0
H1704 H 0.62982 0.89772 0.85652 0.0
H1705 H 0.73982 1.00711 0.78071 0.0
H1706 H 0.63766 0.90608 0.76461 0.0
H1707 H 0.73051 0.99993 0.87257 0.0
H1708 H 0.70222 0.97102 0.77447 0.0
H1709 H 0.66581 0.93539 0.86263 0.0
C1710 C 0.63894 0.90753 0.83752 0.0
C1711 C 0.63033 0.89854 0.80993 0.0
C1712 C 0.70824 0.97738 0.79601 0.0
C1713 C 0.67222 0.94214 0.81696 0.0
C1714 C 0.72981 0.99812 0.79966 0.0
C1715 C 0.7385 1.00695 0.82728 0.0
C1716 C 0.69501 0.96496 0.82012 0.0
C1717 C 0.72453 0.99418 0.85085 0.0
C1718 C 0.65963 0.92915 0.8411 0.0
C1719 C 0.64326 0.91229 0.78631 0.0
N1720 N 0.70366 0.97391 0.84674 0.0
N1721 N 0.66349 0.93321 0.79036 0.0
H1722 H 0.63068 0.24135 0.28057 0.0
H1723 H 0.74011 0.13097 0.35625 0.0
H1724 H 0.63798 0.23201 0.37244 0.0
H1725 H 0.73135 0.13896 0.26437 0.0
H1726 H 0.70252 0.1671 0.36249 0.0
H1727 H 0.66668 0.20366 0.27435 0.0
C1728 C 0.63969 0.23132 0.29953 0.0
C1729 C 0.63092 0.24004 0.32714 0.0
C1730 C 0.70866 0.16092 0.34094 0.0
C1731 C 0.67281 0.19642 0.32001 0.0
C1732 C 0.73023 0.14015 0.33729 0.0
C1733 C 0.73906 0.13154 0.30967 0.0
C1734 C 0.69559 0.17357 0.31683 0.0
C1735 C 0.72525 0.14455 0.28609 0.0
C1736 C 0.66038 0.2097 0.2959 0.0
C1737 C 0.6437 0.22603 0.35073 0.0
N1738 N 0.70439 0.16484 0.29021 0.0
N1739 N 0.66393 0.2051 0.34662 0.0
H1740 H 0.40603 0.13744 0.87477 0.0
H1741 H 0.49965 0.23189 0.7635 0.0
H1742 H 0.39809 0.13087 0.78272 0.0
H1743 H 0.50673 0.23943 0.85555 0.0
H1744 H 0.46342 0.19418 0.77005 0.0
H1745 H 0.44363 0.1738 0.86825 0.0
C1746 C 0.41229 0.14338 0.85318 0.0
C1747 C 0.39874 0.13072 0.82931 0.0
C1748 C 0.47299 0.20397 0.78884 0.0
C1749 C 0.44202 0.17286 0.8216 0.0
C1750 C 0.49386 0.22551 0.7851 0.0
C1751 C 0.50663 0.23898 0.80896 0.0
C1752 C 0.46463 0.19556 0.8167 0.0
C1753 C 0.4977 0.22981 0.83641 0.0
C1754 C 0.43377 0.16432 0.84945 0.0
C1755 C 0.40777 0.13981 0.80186 0.0
N1756 N 0.47743 0.20885 0.83948 0.0
N1757 N 0.42867 0.16016 0.79881 0.0
H1758 H 0.52935 0.93028 0.35238 0.0
H1759 H 0.36836 0.97069 0.32089 0.0
H1760 H 0.47646 0.87252 0.30317 0.0
H1761 H 0.43292 1.03288 0.2986 0.0
H1762 H 0.40606 0.93422 0.32664 0.0
H1763 H 0.49295 0.96839 0.34523 0.0
C1764 C 0.51008 0.92556 0.34024 0.0
C1765 C 0.50608 0.89815 0.32823 0.0
C1766 C 0.41197 0.95585 0.32049 0.0
C1767 C 0.46411 0.94135 0.32066 0.0
C1768 C 0.39047 0.97668 0.31712 0.0
C1769 C 0.3974 1.00482 0.30883 0.0
C1770 C 0.44092 0.96335 0.31673 0.0
C1771 C 0.42659 1.01138 0.30469 0.0
C1772 C 0.48944 0.94733 0.33603 0.0
C1773 C 0.48062 0.89332 0.31265 0.0
N1774 N 0.44731 0.99093 0.30903 0.0
N1775 N 0.46053 0.91446 0.30968 0.0
loop_
_geom_bond_atom_site_label_1
_geom_bond_atom_site_label_2
_geom_bond_distance
_geom_bond_site_symmetry_2
_ccdc_geom_bond_type
O0 Tb1 2.506 . S
O0 C14 1.265 . S
Tb1 O0 2.506 . S
Tb1 O6 2.312 1_655 S
Tb1 O10 2.271 . S
Tb1 O12 2.338 . S
Tb1 O19 2.441 . S
C2 O10 1.252 . S
C2 O11 1.253 . S
O3 Tb4 2.271 . S
O3 C13 1.252 . S
Tb4 O3 2.271 . S
Tb4 O7 2.338 . S
Tb4 O11 2.312 1_455 S
Tb4 O15 2.441 . S
Tb4 O16 2.506 . S
C5 O15 1.244 . S
C5 O16 1.265 . S
O6 Tb1 2.312 1_455 S
O6 C13 1.253 . S
O7 Tb4 2.338 . S
O7 C8 1.258 . S
C8 O7 1.258 . S
C8 O9 1.251 . S
O9 C8 1.251 . S
O10 Tb1 2.271 . S
O10 C2 1.252 . S
O11 C2 1.253 . S
O11 Tb4 2.312 1_655 S
O12 Tb1 2.338 . S
O12 C17 1.258 . S
C13 O3 1.252 . S
C13 O6 1.253 . S
C14 O0 1.265 . S
C14 O19 1.244 . S
O15 Tb4 2.441 . S
O15 C5 1.244 . S
O16 Tb4 2.506 . S
O16 C5 1.265 . S
C17 O12 1.258 . S
C17 O18 1.251 . S
O18 C17 1.251 . S
O19 Tb1 2.441 . S
O19 C14 1.244 . S
O20 Tb21 2.506 . S
O20 C34 1.265 . S
Tb21 O20 2.506 . S
Tb21 O26 2.312 . S
Tb21 O30 2.271 . S
Tb21 O32 2.338 . S
Tb21 O39 2.441 . S
C22 O30 1.252 . S
C22 O31 1.253 . S
O23 Tb24 2.271 . S
O23 C33 1.252 . S
Tb24 O23 2.271 . S
Tb24 O27 2.338 . S
Tb24 O31 2.312 . S
Tb24 O35 2.441 . S
Tb24 O36 2.506 . S
C25 O35 1.244 . S
C25 O36 1.265 . S
O26 Tb21 2.312 . S
O26 C33 1.253 . S
O27 Tb24 2.338 . S
O27 C28 1.258 . S
C28 O27 1.258 . S
C28 O29 1.251 . S
O29 C28 1.251 . S
O30 Tb21 2.271 . S
O30 C22 1.252 . S
O31 C22 1.253 . S
O31 Tb24 2.312 . S
O32 Tb21 2.338 . S
O32 C37 1.258 . S
C33 O23 1.252 . S
C33 O26 1.253 . S
C34 O20 1.265 . S
C34 O39 1.244 . S
O35 Tb24 2.441 . S
O35 C25 1.244 . S
O36 Tb24 2.506 . S
O36 C25 1.265 . S
C37 O32 1.258 . S
C37 O38 1.251 . S
O38 C37 1.251 . S
O39 Tb21 2.441 . S
O39 C34 1.244 . S
O40 Tb41 2.506 . S
O40 C54 1.265 . S
Tb41 O40 2.506 . S
Tb41 O46 2.312 1_455 S
Tb41 O50 2.271 . S
Tb41 O52 2.338 . S
Tb41 O59 2.441 . S
C42 O50 1.252 . S
C42 O51 1.253 . S
O43 Tb44 2.271 . S
O43 C53 1.252 . S
Tb44 O43 2.271 . S
Tb44 O47 2.338 . S
Tb44 O51 2.312 1_655 S
Tb44 O55 2.441 . S
Tb44 O56 2.506 . S
C45 O55 1.244 . S
C45 O56 1.265 . S
O46 Tb41 2.312 1_655 S
O46 C53 1.253 . S
O47 Tb44 2.338 . S
O47 C48 1.258 . S
C48 O47 1.258 . S
C48 O49 1.251 . S
O49 C48 1.251 . S
O50 Tb41 2.271 . S
O50 C42 1.252 . S
O51 C42 1.253 . S
O51 Tb44 2.312 1_455 S
O52 Tb41 2.338 . S
O52 C57 1.258 . S
C53 O43 1.252 . S
C53 O46 1.253 . S
C54 O40 1.265 . S
C54 O59 1.244 . S
O55 Tb44 2.441 . S
O55 C45 1.244 . S
O56 Tb44 2.506 . S
O56 C45 1.265 . S
C57 O52 1.258 . S
C57 O58 1.251 . S
O58 C57 1.251 . S
O59 Tb41 2.441 . S
O59 C54 1.244 . S
O60 Tb61 2.506 . S
O60 C74 1.265 . S
Tb61 O60 2.506 . S
Tb61 O66 2.312 . S
Tb61 O70 2.271 . S
Tb61 O72 2.338 . S
Tb61 O79 2.441 . S
C62 O70 1.252 . S
C62 O71 1.253 . S
O63 Tb64 2.271 . S
O63 C73 1.252 . S
Tb64 O63 2.271 . S
Tb64 O67 2.338 . S
Tb64 O71 2.312 . S
Tb64 O75 2.441 . S
Tb64 O76 2.506 . S
C65 O75 1.244 . S
C65 O76 1.265 . S
O66 Tb61 2.312 . S
O66 C73 1.253 . S
O67 Tb64 2.338 . S
O67 C68 1.258 . S
C68 O67 1.258 . S
C68 O69 1.251 . S
O69 C68 1.251 . S
O70 Tb61 2.271 . S
O70 C62 1.252 . S
O71 C62 1.253 . S
O71 Tb64 2.312 . S
O72 Tb61 2.338 . S
O72 C77 1.258 . S
C73 O63 1.252 . S
C73 O66 1.253 . S
C74 O60 1.265 . S
C74 O79 1.244 . S
O75 Tb64 2.441 . S
O75 C65 1.244 . S
O76 Tb64 2.506 . S
O76 C65 1.265 . S
C77 O72 1.258 . S
C77 O78 1.251 . S
O78 C77 1.251 . S
O79 Tb61 2.441 . S
O79 C74 1.244 . S
O80 Tb81 2.506 . S
O80 C94 1.265 . S
Tb81 O80 2.506 . S
Tb81 O86 2.312 1_655 S
Tb81 O90 2.271 . S
Tb81 O92 2.338 . S
Tb81 O99 2.441 . S
C82 O90 1.252 . S
C82 O91 1.253 . S
O83 Tb84 2.271 . S
O83 C93 1.252 . S
Tb84 O83 2.271 . S
Tb84 O87 2.338 . S
Tb84 O91 2.312 1_455 S
Tb84 O95 2.441 . S
Tb84 O96 2.506 . S
C85 O95 1.244 . S
C85 O96 1.265 . S
O86 Tb81 2.312 1_455 S
O86 C93 1.253 . S
O87 Tb84 2.338 . S
O87 C88 1.258 . S
C88 O87 1.258 . S
C88 O89 1.251 . S
O89 C88 1.251 . S
O90 Tb81 2.271 . S
O90 C82 1.252 . S
O91 C82 1.253 . S
O91 Tb84 2.312 1_655 S
O92 Tb81 2.338 . S
O92 C97 1.258 . S
C93 O83 1.252 . S
C93 O86 1.253 . S
C94 O80 1.265 . S
C94 O99 1.244 . S
O95 Tb84 2.441 . S
O95 C85 1.244 . S
O96 Tb84 2.506 . S
O96 C85 1.265 . S
C97 O92 1.258 . S
C97 O98 1.251 . S
O98 C97 1.251 . S
O99 Tb81 2.441 . S
O99 C94 1.244 . S
O100 Tb101 2.506 . S
O100 C114 1.265 . S
Tb101 O100 2.506 . S
Tb101 O106 2.312 . S
Tb101 O110 2.271 . S
Tb101 O112 2.338 . S
Tb101 O119 2.441 . S
C102 O110 1.252 . S
C102 O111 1.253 . S
O103 Tb104 2.271 . S
O103 C113 1.252 . S
Tb104 O103 2.271 . S
Tb104 O107 2.338 . S
Tb104 O111 2.312 . S
Tb104 O115 2.441 . S
Tb104 O116 2.506 . S
C105 O115 1.244 . S
C105 O116 1.265 . S
O106 Tb101 2.312 . S
O106 C113 1.253 . S
O107 Tb104 2.338 . S
O107 C108 1.258 . S
C108 O107 1.258 . S
C108 O109 1.251 . S
O109 C108 1.251 . S
O110 Tb101 2.271 . S
O110 C102 1.252 . S
O111 C102 1.253 . S
O111 Tb104 2.312 . S
O112 Tb101 2.338 . S
O112 C117 1.258 . S
C113 O103 1.252 . S
C113 O106 1.253 . S
C114 O100 1.265 . S
C114 O119 1.244 . S
O115 Tb104 2.441 . S
O115 C105 1.244 . S
O116 Tb104 2.506 . S
O116 C105 1.265 . S
C117 O112 1.258 . S
C117 O118 1.251 . S
O118 C117 1.251 . S
O119 Tb101 2.441 . S
O119 C114 1.244 . S
O120 Tb121 2.506 . S
O120 C134 1.265 . S
Tb121 O120 2.506 . S
Tb121 O126 2.312 1_455 S
Tb121 O130 2.271 . S
Tb121 O132 2.338 . S
Tb121 O139 2.441 . S
C122 O130 1.252 . S
C122 O131 1.253 . S
O123 Tb124 2.271 . S
O123 C133 1.252 . S
Tb124 O123 2.271 . S
Tb124 O127 2.338 . S
Tb124 O131 2.312 1_655 S
Tb124 O135 2.441 . S
Tb124 O136 2.506 . S
C125 O135 1.244 . S
C125 O136 1.265 . S
O126 Tb121 2.312 1_655 S
O126 C133 1.253 . S
O127 Tb124 2.338 . S
O127 C128 1.258 . S
C128 O127 1.258 . S
C128 O129 1.251 . S
O129 C128 1.251 . S
O130 Tb121 2.271 . S
O130 C122 1.252 . S
O131 C122 1.253 . S
O131 Tb124 2.312 1_455 S
O132 Tb121 2.338 . S
O132 C137 1.258 . S
C133 O123 1.252 . S
C133 O126 1.253 . S
C134 O120 1.265 . S
C134 O139 1.244 . S
O135 Tb124 2.441 . S
O135 C125 1.244 . S
O136 Tb124 2.506 . S
O136 C125 1.265 . S
C137 O132 1.258 . S
C137 O138 1.251 . S
O138 C137 1.251 . S
O139 Tb121 2.441 . S
O139 C134 1.244 . S
O140 Tb141 2.506 . S
O140 C154 1.265 . S
Tb141 O140 2.506 . S
Tb141 O146 2.312 . S
Tb141 O150 2.271 . S
Tb141 O152 2.338 . S
Tb141 O159 2.441 . S
C142 O150 1.252 . S
C142 O151 1.253 . S
O143 Tb144 2.271 . S
O143 C153 1.252 . S
Tb144 O143 2.271 . S
Tb144 O147 2.338 . S
Tb144 O151 2.312 . S
Tb144 O155 2.441 . S
Tb144 O156 2.506 . S
C145 O155 1.244 . S
C145 O156 1.265 . S
O146 Tb141 2.312 . S
O146 C153 1.253 . S
O147 Tb144 2.338 . S
O147 C148 1.258 . S
C148 O147 1.258 . S
C148 O149 1.251 . S
O149 C148 1.251 . S
O150 Tb141 2.271 . S
O150 C142 1.252 . S
O151 C142 1.253 . S
O151 Tb144 2.312 . S
O152 Tb141 2.338 . S
O152 C157 1.258 . S
C153 O143 1.252 . S
C153 O146 1.253 . S
C154 O140 1.265 . S
C154 O159 1.244 . S
O155 Tb144 2.441 . S
O155 C145 1.244 . S
O156 Tb144 2.506 . S
O156 C145 1.265 . S
C157 O152 1.258 . S
C157 O158 1.251 . S
O158 C157 1.251 . S
O159 Tb141 2.441 . S
O159 C154 1.244 . S
O160 Tb161 2.506 . S
O160 C174 1.265 . S
Tb161 O160 2.506 . S
Tb161 O166 2.312 1_565 S
Tb161 O170 2.271 . S
Tb161 O172 2.338 . S
Tb161 O179 2.441 . S
C162 O170 1.252 . S
C162 O171 1.253 . S
O163 Tb164 2.271 . S
O163 C173 1.252 . S
Tb164 O163 2.271 . S
Tb164 O167 2.338 . S
Tb164 O171 2.312 1_545 S
Tb164 O175 2.441 . S
Tb164 O176 2.506 . S
C165 O175 1.244 . S
C165 O176 1.265 . S
O166 Tb161 2.312 1_545 S
O166 C173 1.253 . S
O167 Tb164 2.338 . S
O167 C168 1.258 . S
C168 O167 1.258 . S
C168 O169 1.251 . S
O169 C168 1.251 . S
O170 Tb161 2.271 . S
O170 C162 1.252 . S
O171 C162 1.253 . S
O171 Tb164 2.312 1_565 S
O172 Tb161 2.338 . S
O172 C177 1.258 . S
C173 O163 1.252 . S
C173 O166 1.253 . S
C174 O160 1.265 . S
C174 O179 1.244 . S
O175 Tb164 2.441 . S
O175 C165 1.244 . S
O176 Tb164 2.506 . S
O176 C165 1.265 . S
C177 O172 1.258 . S
C177 O178 1.251 . S
O178 C177 1.251 . S
O179 Tb161 2.441 . S
O179 C174 1.244 . S
O180 Tb181 2.506 . S
O180 C194 1.265 . S
Tb181 O180 2.506 . S
Tb181 O186 2.312 . S
Tb181 O190 2.271 . S
Tb181 O192 2.338 . S
Tb181 O199 2.441 . S
C182 O190 1.252 . S
C182 O191 1.253 . S
O183 Tb184 2.271 . S
O183 C193 1.252 . S
Tb184 O183 2.271 . S
Tb184 O187 2.338 . S
Tb184 O191 2.312 . S
Tb184 O195 2.441 . S
Tb184 O196 2.506 . S
C185 O195 1.244 . S
C185 O196 1.265 . S
O186 Tb181 2.312 . S
O186 C193 1.253 . S
O187 Tb184 2.338 . S
O187 C188 1.258 . S
C188 O187 1.258 . S
C188 O189 1.251 . S
O189 C188 1.251 . S
O190 Tb181 2.271 . S
O190 C182 1.252 . S
O191 C182 1.253 . S
O191 Tb184 2.312 . S
O192 Tb181 2.338 . S
O192 C197 1.258 . S
C193 O183 1.252 . S
C193 O186 1.253 . S
C194 O180 1.265 . S
C194 O199 1.244 . S
O195 Tb184 2.441 . S
O195 C185 1.244 . S
O196 Tb184 2.506 . S
O196 C185 1.265 . S
C197 O192 1.258 . S
C197 O198 1.251 . S
O198 C197 1.251 . S
O199 Tb181 2.441 . S
O199 C194 1.244 . S
O200 Tb201 2.506 . S
O200 C214 1.265 . S
Tb201 O200 2.506 . S
Tb201 O206 2.312 1_545 S
Tb201 O210 2.271 . S
Tb201 O212 2.338 . S
Tb201 O219 2.441 . S
C202 O210 1.252 . S
C202 O211 1.253 . S
O203 Tb204 2.271 . S
O203 C213 1.252 . S
Tb204 O203 2.271 . S
Tb204 O207 2.338 . S
Tb204 O211 2.312 1_565 S
Tb204 O215 2.441 . S
Tb204 O216 2.506 . S
C205 O215 1.244 . S
C205 O216 1.265 . S
O206 Tb201 2.312 1_565 S
O206 C213 1.253 . S
O207 Tb204 2.338 . S
O207 C208 1.258 . S
C208 O207 1.258 . S
C208 O209 1.251 . S
O209 C208 1.251 . S
O210 Tb201 2.271 . S
O210 C202 1.252 . S
O211 C202 1.253 . S
O211 Tb204 2.312 1_545 S
O212 Tb201 2.338 . S
O212 C217 1.258 . S
C213 O203 1.252 . S
C213 O206 1.253 . S
C214 O200 1.265 . S
C214 O219 1.244 . S
O215 Tb204 2.441 . S
O215 C205 1.244 . S
O216 Tb204 2.506 . S
O216 C205 1.265 . S
C217 O212 1.258 . S
C217 O218 1.251 . S
O218 C217 1.251 . S
O219 Tb201 2.441 . S
O219 C214 1.244 . S
O220 Tb221 2.506 . S
O220 C234 1.265 . S
Tb221 O220 2.506 . S
Tb221 O226 2.312 . S
Tb221 O230 2.271 . S
Tb221 O232 2.338 . S
Tb221 O239 2.441 . S
C222 O230 1.252 . S
C222 O231 1.253 . S
O223 Tb224 2.271 . S
O223 C233 1.252 . S
Tb224 O223 2.271 . S
Tb224 O227 2.338 . S
Tb224 O231 2.312 . S
Tb224 O235 2.441 . S
Tb224 O236 2.506 . S
C225 O235 1.244 . S
C225 O236 1.265 . S
O226 Tb221 2.312 . S
O226 C233 1.253 . S
O227 Tb224 2.338 . S
O227 C228 1.258 . S
C228 O227 1.258 . S
C228 O229 1.251 . S
O229 C228 1.251 . S
O230 Tb221 2.271 . S
O230 C222 1.252 . S
O231 C222 1.253 . S
O231 Tb224 2.312 . S
O232 Tb221 2.338 . S
O232 C237 1.258 . S
C233 O223 1.252 . S
C233 O226 1.253 . S
C234 O220 1.265 . S
C234 O239 1.244 . S
O235 Tb224 2.441 . S
O235 C225 1.244 . S
O236 Tb224 2.506 . S
O236 C225 1.265 . S
C237 O232 1.258 . S
C237 O238 1.251 . S
O238 C237 1.251 . S
O239 Tb221 2.441 . S
O239 C234 1.244 . S
O240 Tb241 2.506 . S
O240 C254 1.265 . S
Tb241 O240 2.506 . S
Tb241 O246 2.312 1_545 S
Tb241 O250 2.271 . S
Tb241 O252 2.338 . S
Tb241 O259 2.441 . S
C242 O250 1.252 . S
C242 O251 1.253 . S
O243 Tb244 2.271 . S
O243 C253 1.252 . S
Tb244 O243 2.271 . S
Tb244 O247 2.338 . S
Tb244 O251 2.312 1_565 S
Tb244 O255 2.441 . S
Tb244 O256 2.506 . S
C245 O255 1.244 . S
C245 O256 1.265 . S
O246 Tb241 2.312 1_565 S
O246 C253 1.253 . S
O247 Tb244 2.338 . S
O247 C248 1.258 . S
C248 O247 1.258 . S
C248 O249 1.251 . S
O249 C248 1.251 . S
O250 Tb241 2.271 . S
O250 C242 1.252 . S
O251 C242 1.253 . S
O251 Tb244 2.312 1_545 S
O252 Tb241 2.338 . S
O252 C257 1.258 . S
C253 O243 1.252 . S
C253 O246 1.253 . S
C254 O240 1.265 . S
C254 O259 1.244 . S
O255 Tb244 2.441 . S
O255 C245 1.244 . S
O256 Tb244 2.506 . S
O256 C245 1.265 . S
C257 O252 1.258 . S
C257 O258 1.251 . S
O258 C257 1.251 . S
O259 Tb241 2.441 . S
O259 C254 1.244 . S
O260 Tb261 2.506 . S
O260 C274 1.265 . S
Tb261 O260 2.506 . S
Tb261 O266 2.312 . S
Tb261 O270 2.271 . S
Tb261 O272 2.338 . S
Tb261 O279 2.441 . S
C262 O270 1.252 . S
C262 O271 1.253 . S
O263 Tb264 2.271 . S
O263 C273 1.252 . S
Tb264 O263 2.271 . S
Tb264 O267 2.338 . S
Tb264 O271 2.312 . S
Tb264 O275 2.441 . S
Tb264 O276 2.506 . S
C265 O275 1.244 . S
C265 O276 1.265 . S
O266 Tb261 2.312 . S
O266 C273 1.253 . S
O267 Tb264 2.338 . S
O267 C268 1.258 . S
C268 O267 1.258 . S
C268 O269 1.251 . S
O269 C268 1.251 . S
O270 Tb261 2.271 . S
O270 C262 1.252 . S
O271 C262 1.253 . S
O271 Tb264 2.312 . S
O272 Tb261 2.338 . S
O272 C277 1.258 . S
C273 O263 1.252 . S
C273 O266 1.253 . S
C274 O260 1.265 . S
C274 O279 1.244 . S
O275 Tb264 2.441 . S
O275 C265 1.244 . S
O276 Tb264 2.506 . S
O276 C265 1.265 . S
C277 O272 1.258 . S
C277 O278 1.251 . S
O278 C277 1.251 . S
O279 Tb261 2.441 . S
O279 C274 1.244 . S
O280 Tb281 2.506 . S
O280 C294 1.265 . S
Tb281 O280 2.506 . S
Tb281 O286 2.312 1_565 S
Tb281 O290 2.271 . S
Tb281 O292 2.338 . S
Tb281 O299 2.441 . S
C282 O290 1.252 . S
C282 O291 1.253 . S
O283 Tb284 2.271 . S
O283 C293 1.252 . S
Tb284 O283 2.271 . S
Tb284 O287 2.338 . S
Tb284 O291 2.312 1_545 S
Tb284 O295 2.441 . S
Tb284 O296 2.506 . S
C285 O295 1.244 . S
C285 O296 1.265 . S
O286 Tb281 2.312 1_545 S
O286 C293 1.253 . S
O287 Tb284 2.338 . S
O287 C288 1.258 . S
C288 O287 1.258 . S
C288 O289 1.251 . S
O289 C288 1.251 . S
O290 Tb281 2.271 . S
O290 C282 1.252 . S
O291 C282 1.253 . S
O291 Tb284 2.312 1_565 S
O292 Tb281 2.338 . S
O292 C297 1.258 . S
C293 O283 1.252 . S
C293 O286 1.253 . S
C294 O280 1.265 . S
C294 O299 1.244 . S
O295 Tb284 2.441 . S
O295 C285 1.244 . S
O296 Tb284 2.506 . S
O296 C285 1.265 . S
C297 O292 1.258 . S
C297 O298 1.251 . S
O298 C297 1.251 . S
O299 Tb281 2.441 . S
O299 C294 1.244 . S
O300 Tb301 2.506 . S
O300 C314 1.265 . S
Tb301 O300 2.506 . S
Tb301 O306 2.312 . S
Tb301 O310 2.271 . S
Tb301 O312 2.338 . S
Tb301 O319 2.441 . S
C302 O310 1.252 . S
C302 O311 1.253 . S
O303 Tb304 2.271 . S
O303 C313 1.252 . S
Tb304 O303 2.271 . S
Tb304 O307 2.338 . S
Tb304 O311 2.312 . S
Tb304 O315 2.441 . S
Tb304 O316 2.506 . S
C305 O315 1.244 . S
C305 O316 1.265 . S
O306 Tb301 2.312 . S
O306 C313 1.253 . S
O307 Tb304 2.338 . S
O307 C308 1.258 . S
C308 O307 1.258 . S
C308 O309 1.251 . S
O309 C308 1.251 . S
O310 Tb301 2.271 . S
O310 C302 1.252 . S
O311 C302 1.253 . S
O311 Tb304 2.312 . S
O312 Tb301 2.338 . S
O312 C317 1.258 . S
C313 O303 1.252 . S
C313 O306 1.253 . S
C314 O300 1.265 . S
C314 O319 1.244 . S
O315 Tb304 2.441 . S
O315 C305 1.244 . S
O316 Tb304 2.506 . S
O316 C305 1.265 . S
C317 O312 1.258 . S
C317 O318 1.251 . S
O318 C317 1.251 . S
O319 Tb301 2.441 . S
O319 C314 1.244 . S
O320 Tb321 2.506 . S
O320 C334 1.265 . S
Tb321 O320 2.506 . S
Tb321 O326 2.312 1_556 S
Tb321 O330 2.271 . S
Tb321 O332 2.338 . S
Tb321 O339 2.441 . S
C322 O330 1.252 . S
C322 O331 1.253 . S
O323 Tb324 2.271 . S
O323 C333 1.252 . S
Tb324 O323 2.271 . S
Tb324 O327 2.338 . S
Tb324 O331 2.312 1_554 S
Tb324 O335 2.441 . S
Tb324 O336 2.506 . S
C325 O335 1.244 . S
C325 O336 1.265 . S
O326 Tb321 2.312 1_554 S
O326 C333 1.253 . S
O327 Tb324 2.338 . S
O327 C328 1.258 . S
C328 O327 1.258 . S
C328 O329 1.251 . S
O329 C328 1.251 . S
O330 Tb321 2.271 . S
O330 C322 1.252 . S
O331 C322 1.253 . S
O331 Tb324 2.312 1_556 S
O332 Tb321 2.338 . S
O332 C337 1.258 . S
C333 O323 1.252 . S
C333 O326 1.253 . S
C334 O320 1.265 . S
C334 O339 1.244 . S
O335 Tb324 2.441 . S
O335 C325 1.244 . S
O336 Tb324 2.506 . S
O336 C325 1.265 . S
C337 O332 1.258 . S
C337 O338 1.251 . S
O338 C337 1.251 . S
O339 Tb321 2.441 . S
O339 C334 1.244 . S
O340 Tb341 2.506 . S
O340 C354 1.265 . S
Tb341 O340 2.506 . S
Tb341 O346 2.312 1_554 S
Tb341 O350 2.271 . S
Tb341 O352 2.338 . S
Tb341 O359 2.441 . S
C342 O350 1.252 . S
C342 O351 1.253 . S
O343 Tb344 2.271 . S
O343 C353 1.252 . S
Tb344 O343 2.271 . S
Tb344 O347 2.338 . S
Tb344 O351 2.312 1_556 S
Tb344 O355 2.441 . S
Tb344 O356 2.506 . S
C345 O355 1.244 . S
C345 O356 1.265 . S
O346 Tb341 2.312 1_556 S
O346 C353 1.253 . S
O347 Tb344 2.338 . S
O347 C348 1.258 . S
C348 O347 1.258 . S
C348 O349 1.251 . S
O349 C348 1.251 . S
O350 Tb341 2.271 . S
O350 C342 1.252 . S
O351 C342 1.253 . S
O351 Tb344 2.312 1_554 S
O352 Tb341 2.338 . S
O352 C357 1.258 . S
C353 O343 1.252 . S
C353 O346 1.253 . S
C354 O340 1.265 . S
C354 O359 1.244 . S
O355 Tb344 2.441 . S
O355 C345 1.244 . S
O356 Tb344 2.506 . S
O356 C345 1.265 . S
C357 O352 1.258 . S
C357 O358 1.251 . S
O358 C357 1.251 . S
O359 Tb341 2.441 . S
O359 C354 1.244 . S
O360 Tb361 2.506 . S
O360 C374 1.265 . S
Tb361 O360 2.506 . S
Tb361 O366 2.312 . S
Tb361 O370 2.271 . S
Tb361 O372 2.338 . S
Tb361 O379 2.441 . S
C362 O370 1.252 . S
C362 O371 1.253 . S
O363 Tb364 2.271 . S
O363 C373 1.252 . S
Tb364 O363 2.271 . S
Tb364 O367 2.338 . S
Tb364 O371 2.312 . S
Tb364 O375 2.441 . S
Tb364 O376 2.506 . S
C365 O375 1.244 . S
C365 O376 1.265 . S
O366 Tb361 2.312 . S
O366 C373 1.253 . S
O367 Tb364 2.338 . S
O367 C368 1.258 . S
C368 O367 1.258 . S
C368 O369 1.251 . S
O369 C368 1.251 . S
O370 Tb361 2.271 . S
O370 C362 1.252 . S
O371 C362 1.253 . S
O371 Tb364 2.312 . S
O372 Tb361 2.338 . S
O372 C377 1.258 . S
C373 O363 1.252 . S
C373 O366 1.253 . S
C374 O360 1.265 . S
C374 O379 1.244 . S
O375 Tb364 2.441 . S
O375 C365 1.244 . S
O376 Tb364 2.506 . S
O376 C365 1.265 . S
C377 O372 1.258 . S
C377 O378 1.251 . S
O378 C377 1.251 . S
O379 Tb361 2.441 . S
O379 C374 1.244 . S
O380 Tb381 2.506 . S
O380 C394 1.265 . S
Tb381 O380 2.506 . S
Tb381 O386 2.312 1_554 S
Tb381 O390 2.271 . S
Tb381 O392 2.338 . S
Tb381 O399 2.441 . S
C382 O390 1.252 . S
C382 O391 1.253 . S
O383 Tb384 2.271 . S
O383 C393 1.252 . S
Tb384 O383 2.271 . S
Tb384 O387 2.338 . S
Tb384 O391 2.312 1_556 S
Tb384 O395 2.441 . S
Tb384 O396 2.506 . S
C385 O395 1.244 . S
C385 O396 1.265 . S
O386 Tb381 2.312 1_556 S
O386 C393 1.253 . S
O387 Tb384 2.338 . S
O387 C388 1.258 . S
C388 O387 1.258 . S
C388 O389 1.251 . S
O389 C388 1.251 . S
O390 Tb381 2.271 . S
O390 C382 1.252 . S
O391 C382 1.253 . S
O391 Tb384 2.312 1_554 S
O392 Tb381 2.338 . S
O392 C397 1.258 . S
C393 O383 1.252 . S
C393 O386 1.253 . S
C394 O380 1.265 . S
C394 O399 1.244 . S
O395 Tb384 2.441 . S
O395 C385 1.244 . S
O396 Tb384 2.506 . S
O396 C385 1.265 . S
C397 O392 1.258 . S
C397 O398 1.251 . S
O398 C397 1.251 . S
O399 Tb381 2.441 . S
O399 C394 1.244 . S
O400 Tb401 2.506 . S
O400 C414 1.265 . S
Tb401 O400 2.506 . S
Tb401 O406 2.312 . S
Tb401 O410 2.271 . S
Tb401 O412 2.338 . S
Tb401 O419 2.441 . S
C402 O410 1.252 . S
C402 O411 1.253 . S
O403 Tb404 2.271 . S
O403 C413 1.252 . S
Tb404 O403 2.271 . S
Tb404 O407 2.338 . S
Tb404 O411 2.312 . S
Tb404 O415 2.441 . S
Tb404 O416 2.506 . S
C405 O415 1.244 . S
C405 O416 1.265 . S
O406 Tb401 2.312 . S
O406 C413 1.253 . S
O407 Tb404 2.338 . S
O407 C408 1.258 . S
C408 O407 1.258 . S
C408 O409 1.251 . S
O409 C408 1.251 . S
O410 Tb401 2.271 . S
O410 C402 1.252 . S
O411 C402 1.253 . S
O411 Tb404 2.312 . S
O412 Tb401 2.338 . S
O412 C417 1.258 . S
C413 O403 1.252 . S
C413 O406 1.253 . S
C414 O400 1.265 . S
C414 O419 1.244 . S
O415 Tb404 2.441 . S
O415 C405 1.244 . S
O416 Tb404 2.506 . S
O416 C405 1.265 . S
C417 O412 1.258 . S
C417 O418 1.251 . S
O418 C417 1.251 . S
O419 Tb401 2.441 . S
O419 C414 1.244 . S
O420 Tb421 2.506 . S
O420 C434 1.265 . S
Tb421 O420 2.506 . S
Tb421 O426 2.312 1_556 S
Tb421 O430 2.271 . S
Tb421 O432 2.338 . S
Tb421 O439 2.441 . S
C422 O430 1.252 . S
C422 O431 1.253 . S
O423 Tb424 2.271 . S
O423 C433 1.252 . S
Tb424 O423 2.271 . S
Tb424 O427 2.338 . S
Tb424 O431 2.312 1_554 S
Tb424 O435 2.441 . S
Tb424 O436 2.506 . S
C425 O435 1.244 . S
C425 O436 1.265 . S
O426 Tb421 2.312 1_554 S
O426 C433 1.253 . S
O427 Tb424 2.338 . S
O427 C428 1.258 . S
C428 O427 1.258 . S
C428 O429 1.251 . S
O429 C428 1.251 . S
O430 Tb421 2.271 . S
O430 C422 1.252 . S
O431 C422 1.253 . S
O431 Tb424 2.312 1_556 S
O432 Tb421 2.338 . S
O432 C437 1.258 . S
C433 O423 1.252 . S
C433 O426 1.253 . S
C434 O420 1.265 . S
C434 O439 1.244 . S
O435 Tb424 2.441 . S
O435 C425 1.244 . S
O436 Tb424 2.506 . S
O436 C425 1.265 . S
C437 O432 1.258 . S
C437 O438 1.251 . S
O438 C437 1.251 . S
O439 Tb421 2.441 . S
O439 C434 1.244 . S
O440 Tb441 2.506 . S
O440 C454 1.265 . S
Tb441 O440 2.506 . S
Tb441 O446 2.312 . S
Tb441 O450 2.271 . S
Tb441 O452 2.338 . S
Tb441 O459 2.441 . S
C442 O450 1.252 . S
C442 O451 1.253 . S
O443 Tb444 2.271 . S
O443 C453 1.252 . S
Tb444 O443 2.271 . S
Tb444 O447 2.338 . S
Tb444 O451 2.312 . S
Tb444 O455 2.441 . S
Tb444 O456 2.506 . S
C445 O455 1.244 . S
C445 O456 1.265 . S
O446 Tb441 2.312 . S
O446 C453 1.253 . S
O447 Tb444 2.338 . S
O447 C448 1.258 . S
C448 O447 1.258 . S
C448 O449 1.251 . S
O449 C448 1.251 . S
O450 Tb441 2.271 . S
O450 C442 1.252 . S
O451 C442 1.253 . S
O451 Tb444 2.312 . S
O452 Tb441 2.338 . S
O452 C457 1.258 . S
C453 O443 1.252 . S
C453 O446 1.253 . S
C454 O440 1.265 . S
C454 O459 1.244 . S
O455 Tb444 2.441 . S
O455 C445 1.244 . S
O456 Tb444 2.506 . S
O456 C445 1.265 . S
C457 O452 1.258 . S
C457 O458 1.251 . S
O458 C457 1.251 . S
O459 Tb441 2.441 . S
O459 C454 1.244 . S
O460 Tb461 2.506 . S
O460 C474 1.265 . S
Tb461 O460 2.506 . S
Tb461 O466 2.312 . S
Tb461 O470 2.271 . S
Tb461 O472 2.338 . S
Tb461 O479 2.441 . S
C462 O470 1.252 . S
C462 O471 1.253 . S
O463 Tb464 2.271 . S
O463 C473 1.252 . S
Tb464 O463 2.271 . S
Tb464 O467 2.338 . S
Tb464 O471 2.312 . S
Tb464 O475 2.441 . S
Tb464 O476 2.506 . S
C465 O475 1.244 . S
C465 O476 1.265 . S
O466 Tb461 2.312 . S
O466 C473 1.253 . S
O467 Tb464 2.338 . S
O467 C468 1.258 . S
C468 O467 1.258 . S
C468 O469 1.251 . S
O469 C468 1.251 . S
O470 Tb461 2.271 . S
O470 C462 1.252 . S
O471 C462 1.253 . S
O471 Tb464 2.312 . S
O472 Tb461 2.338 . S
O472 C477 1.258 . S
C473 O463 1.252 . S
C473 O466 1.253 . S
C474 O460 1.265 . S
C474 O479 1.244 . S
O475 Tb464 2.441 . S
O475 C465 1.244 . S
O476 Tb464 2.506 . S
O476 C465 1.265 . S
C477 O472 1.258 . S
C477 O478 1.251 . S
O478 C477 1.251 . S
O479 Tb461 2.441 . S
O479 C474 1.244 . S
H480 C486 0.930 . S
H481 C490 0.930 . S
H482 C495 0.929 . S
H483 C493 0.929 . S
H484 C488 0.929 . S
H485 C494 0.929 . S
C486 H480 0.930 . S
C486 C487 1.367 . S
C486 C494 1.378 . S
C487 C486 1.367 . S
C487 C495 1.433 . S
C488 H484 0.929 . S
C488 C490 1.378 . S
C488 C492 1.350 . S
C489 C492 1.463 . S
C489 C494 1.350 . S
C489 N497 1.427 . S
C490 H481 0.930 . S
C490 C488 1.378 . S
C490 C491 1.367 . S
C491 C490 1.367 . S
C491 C493 1.433 . S
C492 C488 1.350 . S
C492 C489 1.463 . S
C492 N496 1.427 . S
C493 H483 0.929 . S
C493 C491 1.433 . S
C493 N496 1.384 . S
C494 H485 0.929 . S
C494 C486 1.378 . S
C494 C489 1.350 . S
C495 H482 0.929 . S
C495 C487 1.433 . S
C495 N497 1.384 . S
N496 C492 1.427 . S
N496 C493 1.384 . S
N497 C489 1.427 . S
N497 C495 1.384 . S
H498 C504 0.930 . S
H499 C508 0.930 . S
H500 C513 0.929 . S
H501 C511 0.929 . S
H502 C506 0.929 . S
H503 C512 0.929 . S
C504 H498 0.930 . S
C504 C505 1.367 . S
C504 C512 1.378 . S
C505 C504 1.367 . S
C505 C513 1.433 . S
C506 H502 0.929 . S
C506 C508 1.378 . S
C506 C510 1.350 . S
C507 C510 1.463 . S
C507 C512 1.350 . S
C507 N515 1.427 . S
C508 H499 0.930 . S
C508 C506 1.378 . S
C508 C509 1.367 . S
C509 C508 1.367 . S
C509 C511 1.433 . S
C510 C506 1.350 . S
C510 C507 1.463 . S
C510 N514 1.427 . S
C511 H501 0.929 . S
C511 C509 1.433 . S
C511 N514 1.384 . S
C512 H503 0.929 . S
C512 C504 1.378 . S
C512 C507 1.350 . S
C513 H500 0.929 . S
C513 C505 1.433 . S
C513 N515 1.384 . S
N514 C510 1.427 . S
N514 C511 1.384 . S
N515 C507 1.427 . S
N515 C513 1.384 . S
H516 C522 0.930 . S
H517 C526 0.930 . S
H518 C531 0.929 . S
H519 C529 0.929 . S
H520 C524 0.929 . S
H521 C530 0.929 . S
C522 H516 0.930 . S
C522 C523 1.367 . S
C522 C530 1.378 . S
C523 C522 1.367 . S
C523 C531 1.433 . S
C524 H520 0.929 . S
C524 C526 1.378 . S
C524 C528 1.350 . S
C525 C528 1.463 . S
C525 C530 1.350 . S
C525 N533 1.427 . S
C526 H517 0.930 . S
C526 C524 1.378 . S
C526 C527 1.367 . S
C527 C526 1.367 . S
C527 C529 1.433 . S
C528 C524 1.350 . S
C528 C525 1.463 . S
C528 N532 1.427 . S
C529 H519 0.929 . S
C529 C527 1.433 . S
C529 N532 1.384 . S
C530 H521 0.929 . S
C530 C522 1.378 . S
C530 C525 1.350 . S
C531 H518 0.929 . S
C531 C523 1.433 . S
C531 N533 1.384 . S
N532 C528 1.427 . S
N532 C529 1.384 . S
N533 C525 1.427 . S
N533 C531 1.384 . S
H534 C540 0.930 . S
H535 C544 0.930 . S
H536 C549 0.929 . S
H537 C547 0.929 . S
H538 C542 0.929 . S
H539 C548 0.929 . S
C540 H534 0.930 . S
C540 C541 1.367 . S
C540 C548 1.378 . S
C541 C540 1.367 . S
C541 C549 1.433 . S
C542 H538 0.929 . S
C542 C544 1.378 . S
C542 C546 1.350 . S
C543 C546 1.463 . S
C543 C548 1.350 . S
C543 N551 1.427 . S
C544 H535 0.930 . S
C544 C542 1.378 . S
C544 C545 1.367 . S
C545 C544 1.367 . S
C545 C547 1.433 . S
C546 C542 1.350 . S
C546 C543 1.463 . S
C546 N550 1.427 . S
C547 H537 0.929 . S
C547 C545 1.433 . S
C547 N550 1.384 . S
C548 H539 0.929 . S
C548 C540 1.378 . S
C548 C543 1.350 . S
C549 H536 0.929 . S
C549 C541 1.433 . S
C549 N551 1.384 . S
N550 C546 1.427 . S
N550 C547 1.384 . S
N551 C543 1.427 . S
N551 C549 1.384 . S
H552 C558 0.930 . S
H553 C562 0.930 . S
H554 C567 0.929 . S
H555 C565 0.929 . S
H556 C560 0.929 . S
H557 C566 0.929 . S
C558 H552 0.930 . S
C558 C559 1.367 . S
C558 C566 1.378 . S
C559 C558 1.367 . S
C559 C567 1.433 . S
C560 H556 0.929 . S
C560 C562 1.378 . S
C560 C564 1.350 . S
C561 C564 1.463 . S
C561 C566 1.350 . S
C561 N569 1.427 . S
C562 H553 0.930 . S
C562 C560 1.378 . S
C562 C563 1.367 . S
C563 C562 1.367 . S
C563 C565 1.433 . S
C564 C560 1.350 . S
C564 C561 1.463 . S
C564 N568 1.427 . S
C565 H555 0.929 . S
C565 C563 1.433 . S
C565 N568 1.384 . S
C566 H557 0.929 . S
C566 C558 1.378 . S
C566 C561 1.350 . S
C567 H554 0.929 . S
C567 C559 1.433 . S
C567 N569 1.384 . S
N568 C564 1.427 . S
N568 C565 1.384 . S
N569 C561 1.427 . S
N569 C567 1.384 . S
H570 C576 0.930 . S
H571 C580 0.930 . S
H572 C585 0.929 . S
H573 C583 0.929 . S
H574 C578 0.929 . S
H575 C584 0.929 . S
C576 H570 0.930 . S
C576 C577 1.367 . S
C576 C584 1.378 . S
C577 C576 1.367 . S
C577 C585 1.433 . S
C578 H574 0.929 . S
C578 C580 1.378 . S
C578 C582 1.350 . S
C579 C582 1.463 . S
C579 C584 1.350 . S
C579 N587 1.427 . S
C580 H571 0.930 . S
C580 C578 1.378 . S
C580 C581 1.367 . S
C581 C580 1.367 . S
C581 C583 1.433 . S
C582 C578 1.350 . S
C582 C579 1.463 . S
C582 N586 1.427 . S
C583 H573 0.929 . S
C583 C581 1.433 . S
C583 N586 1.384 . S
C584 H575 0.929 . S
C584 C576 1.378 . S
C584 C579 1.350 . S
C585 H572 0.929 . S
C585 C577 1.433 . S
C585 N587 1.384 . S
N586 C582 1.427 . S
N586 C583 1.384 . S
N587 C579 1.427 . S
N587 C585 1.384 . S
H588 C594 0.930 . S
H589 C598 0.930 . S
H590 C603 0.929 . S
H591 C601 0.929 . S
H592 C596 0.929 . S
H593 C602 0.929 . S
C594 H588 0.930 . S
C594 C595 1.367 . S
C594 C602 1.378 . S
C595 C594 1.367 . S
C595 C603 1.433 . S
C596 H592 0.929 . S
C596 C598 1.378 . S
C596 C600 1.350 . S
C597 C600 1.463 . S
C597 C602 1.350 . S
C597 N605 1.427 . S
C598 H589 0.930 . S
C598 C596 1.378 . S
C598 C599 1.367 . S
C599 C598 1.367 . S
C599 C601 1.433 . S
C600 C596 1.350 . S
C600 C597 1.463 . S
C600 N604 1.427 . S
C601 H591 0.929 . S
C601 C599 1.433 . S
C601 N604 1.384 . S
C602 H593 0.929 . S
C602 C594 1.378 . S
C602 C597 1.350 . S
C603 H590 0.929 . S
C603 C595 1.433 . S
C603 N605 1.384 . S
N604 C600 1.427 . S
N604 C601 1.384 . S
N605 C597 1.427 . S
N605 C603 1.384 . S
H606 C612 0.930 . S
H607 C616 0.930 . S
H608 C621 0.929 . S
H609 C619 0.929 . S
H610 C614 0.929 . S
H611 C620 0.929 . S
C612 H606 0.930 . S
C612 C613 1.367 . S
C612 C620 1.378 . S
C613 C612 1.367 . S
C613 C621 1.433 . S
C614 H610 0.929 . S
C614 C616 1.378 . S
C614 C618 1.350 . S
C615 C618 1.463 . S
C615 C620 1.350 . S
C615 N623 1.427 . S
C616 H607 0.930 . S
C616 C614 1.378 . S
C616 C617 1.367 . S
C617 C616 1.367 . S
C617 C619 1.433 . S
C618 C614 1.350 . S
C618 C615 1.463 . S
C618 N622 1.427 . S
C619 H609 0.929 . S
C619 C617 1.433 . S
C619 N622 1.384 . S
C620 H611 0.929 . S
C620 C612 1.378 . S
C620 C615 1.350 . S
C621 H608 0.929 . S
C621 C613 1.433 . S
C621 N623 1.384 . S
N622 C618 1.427 . S
N622 C619 1.384 . S
N623 C615 1.427 . S
N623 C621 1.384 . S
H624 C630 0.930 . S
H625 C634 0.930 . S
H626 C639 0.929 . S
H627 C637 0.929 . S
H628 C632 0.929 . S
H629 C638 0.929 . S
C630 H624 0.930 . S
C630 C631 1.367 . S
C630 C638 1.378 . S
C631 C630 1.367 . S
C631 C639 1.433 . S
C632 H628 0.929 . S
C632 C634 1.378 . S
C632 C636 1.350 . S
C633 C636 1.463 . S
C633 C638 1.350 . S
C633 N641 1.427 . S
C634 H625 0.930 . S
C634 C632 1.378 . S
C634 C635 1.367 . S
C635 C634 1.367 . S
C635 C637 1.433 . S
C636 C632 1.350 . S
C636 C633 1.463 . S
C636 N640 1.427 . S
C637 H627 0.929 . S
C637 C635 1.433 . S
C637 N640 1.384 . S
C638 H629 0.929 . S
C638 C630 1.378 . S
C638 C633 1.350 . S
C639 H626 0.929 . S
C639 C631 1.433 . S
C639 N641 1.384 . S
N640 C636 1.427 . S
N640 C637 1.384 . S
N641 C633 1.427 . S
N641 C639 1.384 . S
H642 C648 0.930 . S
H643 C652 0.930 . S
H644 C657 0.929 . S
H645 C655 0.929 . S
H646 C650 0.929 . S
H647 C656 0.929 . S
C648 H642 0.930 . S
C648 C649 1.367 . S
C648 C656 1.378 . S
C649 C648 1.367 . S
C649 C657 1.433 . S
C650 H646 0.929 . S
C650 C652 1.378 . S
C650 C654 1.350 . S
C651 C654 1.463 . S
C651 C656 1.350 . S
C651 N659 1.427 . S
C652 H643 0.930 . S
C652 C650 1.378 . S
C652 C653 1.367 . S
C653 C652 1.367 . S
C653 C655 1.433 . S
C654 C650 1.350 . S
C654 C651 1.463 . S
C654 N658 1.427 . S
C655 H645 0.929 . S
C655 C653 1.433 . S
C655 N658 1.384 . S
C656 H647 0.929 . S
C656 C648 1.378 . S
C656 C651 1.350 . S
C657 H644 0.929 . S
C657 C649 1.433 . S
C657 N659 1.384 . S
N658 C654 1.427 . S
N658 C655 1.384 . S
N659 C651 1.427 . S
N659 C657 1.384 . S
H660 C666 0.930 . S
H661 C670 0.930 . S
H662 C675 0.929 . S
H663 C673 0.929 . S
H664 C668 0.929 . S
H665 C674 0.929 . S
C666 H660 0.930 . S
C666 C667 1.367 . S
C666 C674 1.378 . S
C667 C666 1.367 . S
C667 C675 1.433 . S
C668 H664 0.929 . S
C668 C670 1.378 . S
C668 C672 1.350 . S
C669 C672 1.463 . S
C669 C674 1.350 . S
C669 N677 1.427 . S
C670 H661 0.930 . S
C670 C668 1.378 . S
C670 C671 1.367 . S
C671 C670 1.367 . S
C671 C673 1.433 . S
C672 C668 1.350 . S
C672 C669 1.463 . S
C672 N676 1.427 . S
C673 H663 0.929 . S
C673 C671 1.433 . S
C673 N676 1.384 . S
C674 H665 0.929 . S
C674 C666 1.378 . S
C674 C669 1.350 . S
C675 H662 0.929 . S
C675 C667 1.433 . S
C675 N677 1.384 . S
N676 C672 1.427 . S
N676 C673 1.384 . S
N677 C669 1.427 . S
N677 C675 1.384 . S
H678 C684 0.930 . S
H679 C688 0.930 . S
H680 C693 0.929 . S
H681 C691 0.929 . S
H682 C686 0.929 . S
H683 C692 0.929 . S
C684 H678 0.930 . S
C684 C685 1.367 . S
C684 C692 1.378 . S
C685 C684 1.367 . S
C685 C693 1.433 . S
C686 H682 0.929 . S
C686 C688 1.378 . S
C686 C690 1.350 . S
C687 C690 1.463 . S
C687 C692 1.350 . S
C687 N695 1.427 . S
C688 H679 0.930 . S
C688 C686 1.378 . S
C688 C689 1.367 . S
C689 C688 1.367 . S
C689 C691 1.433 . S
C690 C686 1.350 . S
C690 C687 1.463 . S
C690 N694 1.427 . S
C691 H681 0.929 . S
C691 C689 1.433 . S
C691 N694 1.384 . S
C692 H683 0.929 . S
C692 C684 1.378 . S
C692 C687 1.350 . S
C693 H680 0.929 . S
C693 C685 1.433 . S
C693 N695 1.384 . S
N694 C690 1.427 . S
N694 C691 1.384 . S
N695 C687 1.427 . S
N695 C693 1.384 . S
H696 C702 0.930 . S
H697 C706 0.930 . S
H698 C711 0.929 . S
H699 C709 0.929 . S
H700 C704 0.929 . S
H701 C710 0.929 . S
C702 H696 0.930 . S
C702 C703 1.367 . S
C702 C710 1.378 . S
C703 C702 1.367 . S
C703 C711 1.433 . S
C704 H700 0.929 . S
C704 C706 1.378 . S
C704 C708 1.350 . S
C705 C708 1.463 . S
C705 C710 1.350 . S
C705 N713 1.427 . S
C706 H697 0.930 . S
C706 C704 1.378 . S
C706 C707 1.367 . S
C707 C706 1.367 . S
C707 C709 1.433 . S
C708 C704 1.350 . S
C708 C705 1.463 . S
C708 N712 1.427 . S
C709 H699 0.929 . S
C709 C707 1.433 . S
C709 N712 1.384 . S
C710 H701 0.929 . S
C710 C702 1.378 . S
C710 C705 1.350 . S
C711 H698 0.929 . S
C711 C703 1.433 . S
C711 N713 1.384 . S
N712 C708 1.427 . S
N712 C709 1.384 . S
N713 C705 1.427 . S
N713 C711 1.384 . S
H714 C720 0.930 . S
H715 C724 0.930 . S
H716 C729 0.929 . S
H717 C727 0.929 . S
H718 C722 0.929 . S
H719 C728 0.929 . S
C720 H714 0.930 . S
C720 C721 1.367 . S
C720 C728 1.378 . S
C721 C720 1.367 . S
C721 C729 1.433 . S
C722 H718 0.929 . S
C722 C724 1.378 . S
C722 C726 1.350 . S
C723 C726 1.463 . S
C723 C728 1.350 . S
C723 N731 1.427 . S
C724 H715 0.930 . S
C724 C722 1.378 . S
C724 C725 1.367 . S
C725 C724 1.367 . S
C725 C727 1.433 . S
C726 C722 1.350 . S
C726 C723 1.463 . S
C726 N730 1.427 . S
C727 H717 0.929 . S
C727 C725 1.433 . S
C727 N730 1.384 . S
C728 H719 0.929 . S
C728 C720 1.378 . S
C728 C723 1.350 . S
C729 H716 0.929 . S
C729 C721 1.433 . S
C729 N731 1.384 . S
N730 C726 1.427 . S
N730 C727 1.384 . S
N731 C723 1.427 . S
N731 C729 1.384 . S
H732 C738 0.930 . S
H733 C742 0.930 . S
H734 C747 0.929 . S
H735 C745 0.929 . S
H736 C740 0.929 . S
H737 C746 0.929 . S
C738 H732 0.930 . S
C738 C739 1.367 . S
C738 C746 1.378 . S
C739 C738 1.367 . S
C739 C747 1.433 . S
C740 H736 0.929 . S
C740 C742 1.378 . S
C740 C744 1.350 . S
C741 C744 1.463 . S
C741 C746 1.350 . S
C741 N749 1.427 . S
C742 H733 0.930 . S
C742 C740 1.378 . S
C742 C743 1.367 . S
C743 C742 1.367 . S
C743 C745 1.433 . S
C744 C740 1.350 . S
C744 C741 1.463 . S
C744 N748 1.427 . S
C745 H735 0.929 . S
C745 C743 1.433 . S
C745 N748 1.384 . S
C746 H737 0.929 . S
C746 C738 1.378 . S
C746 C741 1.350 . S
C747 H734 0.929 . S
C747 C739 1.433 . S
C747 N749 1.384 . S
N748 C744 1.427 . S
N748 C745 1.384 . S
N749 C741 1.427 . S
N749 C747 1.384 . S
H750 C756 0.930 . S
H751 C760 0.930 . S
H752 C765 0.929 . S
H753 C763 0.929 . S
H754 C758 0.929 . S
H755 C764 0.929 . S
C756 H750 0.930 . S
C756 C757 1.367 . S
C756 C764 1.378 . S
C757 C756 1.367 . S
C757 C765 1.433 . S
C758 H754 0.929 . S
C758 C760 1.378 . S
C758 C762 1.350 . S
C759 C762 1.463 . S
C759 C764 1.350 . S
C759 N767 1.427 . S
C760 H751 0.930 . S
C760 C758 1.378 . S
C760 C761 1.367 . S
C761 C760 1.367 . S
C761 C763 1.433 . S
C762 C758 1.350 . S
C762 C759 1.463 . S
C762 N766 1.427 . S
C763 H753 0.929 . S
C763 C761 1.433 . S
C763 N766 1.384 . S
C764 H755 0.929 . S
C764 C756 1.378 . S
C764 C759 1.350 . S
C765 H752 0.929 . S
C765 C757 1.433 . S
C765 N767 1.384 . S
N766 C762 1.427 . S
N766 C763 1.384 . S
N767 C759 1.427 . S
N767 C765 1.384 . S
H768 C774 0.930 . S
H769 C778 0.930 . S
H770 C783 0.929 . S
H771 C781 0.929 . S
H772 C776 0.929 . S
H773 C782 0.929 . S
C774 H768 0.930 . S
C774 C775 1.367 . S
C774 C782 1.378 . S
C775 C774 1.367 . S
C775 C783 1.433 . S
C776 H772 0.929 . S
C776 C778 1.378 . S
C776 C780 1.350 . S
C777 C780 1.463 . S
C777 C782 1.350 . S
C777 N785 1.427 . S
C778 H769 0.930 . S
C778 C776 1.378 . S
C778 C779 1.367 . S
C779 C778 1.367 . S
C779 C781 1.433 . S
C780 C776 1.350 . S
C780 C777 1.463 . S
C780 N784 1.427 . S
C781 H771 0.929 . S
C781 C779 1.433 . S
C781 N784 1.384 . S
C782 H773 0.929 . S
C782 C774 1.378 . S
C782 C777 1.350 . S
C783 H770 0.929 . S
C783 C775 1.433 . S
C783 N785 1.384 . S
N784 C780 1.427 . S
N784 C781 1.384 . S
N785 C777 1.427 . S
N785 C783 1.384 . S
H786 C792 0.930 . S
H787 C796 0.930 . S
H788 C801 0.929 . S
H789 C799 0.929 . S
H790 C794 0.929 . S
H791 C800 0.929 . S
C792 H786 0.930 . S
C792 C793 1.367 . S
C792 C800 1.378 . S
C793 C792 1.367 . S
C793 C801 1.433 . S
C794 H790 0.929 . S
C794 C796 1.378 . S
C794 C798 1.350 . S
C795 C798 1.463 . S
C795 C800 1.350 . S
C795 N803 1.427 . S
C796 H787 0.930 . S
C796 C794 1.378 . S
C796 C797 1.367 . S
C797 C796 1.367 . S
C797 C799 1.433 . S
C798 C794 1.350 . S
C798 C795 1.463 . S
C798 N802 1.427 . S
C799 H789 0.929 . S
C799 C797 1.433 . S
C799 N802 1.384 . S
C800 H791 0.929 . S
C800 C792 1.378 . S
C800 C795 1.350 . S
C801 H788 0.929 . S
C801 C793 1.433 . S
C801 N803 1.384 . S
N802 C798 1.427 . S
N802 C799 1.384 . S
N803 C795 1.427 . S
N803 C801 1.384 . S
H804 C810 0.930 . S
H805 C814 0.930 . S
H806 C819 0.929 . S
H807 C817 0.929 . S
H808 C812 0.929 . S
H809 C818 0.929 . S
C810 H804 0.930 . S
C810 C811 1.367 . S
C810 C818 1.378 . S
C811 C810 1.367 . S
C811 C819 1.433 . S
C812 H808 0.929 . S
C812 C814 1.378 . S
C812 C816 1.350 . S
C813 C816 1.463 . S
C813 C818 1.350 . S
C813 N821 1.427 . S
C814 H805 0.930 . S
C814 C812 1.378 . S
C814 C815 1.367 . S
C815 C814 1.367 . S
C815 C817 1.433 . S
C816 C812 1.350 . S
C816 C813 1.463 . S
C816 N820 1.427 . S
C817 H807 0.929 . S
C817 C815 1.433 . S
C817 N820 1.384 . S
C818 H809 0.929 . S
C818 C810 1.378 . S
C818 C813 1.350 . S
C819 H806 0.929 . S
C819 C811 1.433 . S
C819 N821 1.384 . S
N820 C816 1.427 . S
N820 C817 1.384 . S
N821 C813 1.427 . S
N821 C819 1.384 . S
H822 C828 0.930 . S
H823 C832 0.930 . S
H824 C837 0.929 . S
H825 C835 0.929 . S
H826 C830 0.929 . S
H827 C836 0.929 . S
C828 H822 0.930 . S
C828 C829 1.367 . S
C828 C836 1.378 . S
C829 C828 1.367 . S
C829 C837 1.433 . S
C830 H826 0.929 . S
C830 C832 1.378 . S
C830 C834 1.350 . S
C831 C834 1.463 . S
C831 C836 1.350 . S
C831 N839 1.427 . S
C832 H823 0.930 . S
C832 C830 1.378 . S
C832 C833 1.367 . S
C833 C832 1.367 . S
C833 C835 1.433 . S
C834 C830 1.350 . S
C834 C831 1.463 . S
C834 N838 1.427 . S
C835 H825 0.929 . S
C835 C833 1.433 . S
C835 N838 1.384 . S
C836 H827 0.929 . S
C836 C828 1.378 . S
C836 C831 1.350 . S
C837 H824 0.929 . S
C837 C829 1.433 . S
C837 N839 1.384 . S
N838 C834 1.427 . S
N838 C835 1.384 . S
N839 C831 1.427 . S
N839 C837 1.384 . S
H840 C846 0.930 . S
H841 C850 0.930 . S
H842 C855 0.929 . S
H843 C853 0.929 . S
H844 C848 0.929 . S
H845 C854 0.929 . S
C846 H840 0.930 . S
C846 C847 1.367 . S
C846 C854 1.378 . S
C847 C846 1.367 . S
C847 C855 1.433 . S
C848 H844 0.929 . S
C848 C850 1.378 . S
C848 C852 1.350 . S
C849 C852 1.463 . S
C849 C854 1.350 . S
C849 N857 1.427 . S
C850 H841 0.930 . S
C850 C848 1.378 . S
C850 C851 1.367 . S
C851 C850 1.367 . S
C851 C853 1.433 . S
C852 C848 1.350 . S
C852 C849 1.463 . S
C852 N856 1.427 . S
C853 H843 0.929 . S
C853 C851 1.433 . S
C853 N856 1.384 . S
C854 H845 0.929 . S
C854 C846 1.378 . S
C854 C849 1.350 . S
C855 H842 0.929 . S
C855 C847 1.433 . S
C855 N857 1.384 . S
N856 C852 1.427 . S
N856 C853 1.384 . S
N857 C849 1.427 . S
N857 C855 1.384 . S
H858 C864 0.930 . S
H859 C868 0.930 . S
H860 C873 0.929 . S
H861 C871 0.929 . S
H862 C866 0.929 . S
H863 C872 0.929 . S
C864 H858 0.930 . S
C864 C865 1.367 . S
C864 C872 1.378 . S
C865 C864 1.367 . S
C865 C873 1.433 . S
C866 H862 0.929 . S
C866 C868 1.378 . S
C866 C870 1.350 . S
C867 C870 1.463 . S
C867 C872 1.350 . S
C867 N875 1.427 . S
C868 H859 0.930 . S
C868 C866 1.378 . S
C868 C869 1.367 . S
C869 C868 1.367 . S
C869 C871 1.433 . S
C870 C866 1.350 . S
C870 C867 1.463 . S
C870 N874 1.427 . S
C871 H861 0.929 . S
C871 C869 1.433 . S
C871 N874 1.384 . S
C872 H863 0.929 . S
C872 C864 1.378 . S
C872 C867 1.350 . S
C873 H860 0.929 . S
C873 C865 1.433 . S
C873 N875 1.384 . S
N874 C870 1.427 . S
N874 C871 1.384 . S
N875 C867 1.427 . S
N875 C873 1.384 . S
H876 C882 0.930 . S
H877 C886 0.930 . S
H878 C891 0.929 . S
H879 C889 0.929 . S
H880 C884 0.929 . S
H881 C890 0.929 . S
C882 H876 0.930 . S
C882 C883 1.367 . S
C882 C890 1.378 . S
C883 C882 1.367 . S
C883 C891 1.433 . S
C884 H880 0.929 . S
C884 C886 1.378 . S
C884 C888 1.350 . S
C885 C888 1.463 . S
C885 C890 1.350 . S
C885 N893 1.427 . S
C886 H877 0.930 . S
C886 C884 1.378 . S
C886 C887 1.367 . S
C887 C886 1.367 . S
C887 C889 1.433 . S
C888 C884 1.350 . S
C888 C885 1.463 . S
C888 N892 1.427 . S
C889 H879 0.929 . S
C889 C887 1.433 . S
C889 N892 1.384 . S
C890 H881 0.929 . S
C890 C882 1.378 . S
C890 C885 1.350 . S
C891 H878 0.929 . S
C891 C883 1.433 . S
C891 N893 1.384 . S
N892 C888 1.427 . S
N892 C889 1.384 . S
N893 C885 1.427 . S
N893 C891 1.384 . S
H894 C900 0.930 . S
H895 C904 0.930 . S
H896 C909 0.929 . S
H897 C907 0.929 . S
H898 C902 0.929 . S
H899 C908 0.929 . S
C900 H894 0.930 . S
C900 C901 1.367 . S
C900 C908 1.378 . S
C901 C900 1.367 . S
C901 C909 1.433 . S
C902 H898 0.929 . S
C902 C904 1.378 . S
C902 C906 1.350 . S
C903 C906 1.463 . S
C903 C908 1.350 . S
C903 N911 1.427 . S
C904 H895 0.930 . S
C904 C902 1.378 . S
C904 C905 1.367 . S
C905 C904 1.367 . S
C905 C907 1.433 . S
C906 C902 1.350 . S
C906 C903 1.463 . S
C906 N910 1.427 . S
C907 H897 0.929 . S
C907 C905 1.433 . S
C907 N910 1.384 . S
C908 H899 0.929 . S
C908 C900 1.378 . S
C908 C903 1.350 . S
C909 H896 0.929 . S
C909 C901 1.433 . S
C909 N911 1.384 . S
N910 C906 1.427 . S
N910 C907 1.384 . S
N911 C903 1.427 . S
N911 C909 1.384 . S
H912 C918 0.930 . S
H913 C922 0.930 . S
H914 C927 0.929 . S
H915 C925 0.929 . S
H916 C920 0.929 . S
H917 C926 0.929 . S
C918 H912 0.930 . S
C918 C919 1.367 . S
C918 C926 1.378 . S
C919 C918 1.367 . S
C919 C927 1.433 . S
C920 H916 0.929 . S
C920 C922 1.378 . S
C920 C924 1.350 . S
C921 C924 1.463 . S
C921 C926 1.350 . S
C921 N929 1.427 . S
C922 H913 0.930 . S
C922 C920 1.378 . S
C922 C923 1.367 . S
C923 C922 1.367 . S
C923 C925 1.433 . S
C924 C920 1.350 . S
C924 C921 1.463 . S
C924 N928 1.427 . S
C925 H915 0.929 . S
C925 C923 1.433 . S
C925 N928 1.384 . S
C926 H917 0.929 . S
C926 C918 1.378 . S
C926 C921 1.350 . S
C927 H914 0.929 . S
C927 C919 1.433 . S
C927 N929 1.384 . S
N928 C924 1.427 . S
N928 C925 1.384 . S
N929 C921 1.427 . S
N929 C927 1.384 . S
H930 C936 0.930 . S
H931 C940 0.930 . S
H932 C945 0.929 . S
H933 C943 0.929 . S
H934 C938 0.929 . S
H935 C944 0.929 . S
C936 H930 0.930 . S
C936 C937 1.367 . S
C936 C944 1.378 . S
C937 C936 1.367 . S
C937 C945 1.433 . S
C938 H934 0.929 . S
C938 C940 1.378 . S
C938 C942 1.350 . S
C939 C942 1.463 . S
C939 C944 1.350 . S
C939 N947 1.427 . S
C940 H931 0.930 . S
C940 C938 1.378 . S
C940 C941 1.367 . S
C941 C940 1.367 . S
C941 C943 1.433 . S
C942 C938 1.350 . S
C942 C939 1.463 . S
C942 N946 1.427 . S
C943 H933 0.929 . S
C943 C941 1.433 . S
C943 N946 1.384 . S
C944 H935 0.929 . S
C944 C936 1.378 . S
C944 C939 1.350 . S
C945 H932 0.929 . S
C945 C937 1.433 . S
C945 N947 1.384 . S
N946 C942 1.427 . S
N946 C943 1.384 . S
N947 C939 1.427 . S
N947 C945 1.384 . S
H948 C954 0.930 . S
H949 C958 0.930 . S
H950 C963 0.929 . S
H951 C961 0.929 . S
H952 C956 0.929 . S
H953 C962 0.929 . S
C954 H948 0.930 . S
C954 C955 1.367 . S
C954 C962 1.378 . S
C955 C954 1.367 . S
C955 C963 1.433 . S
C956 H952 0.929 . S
C956 C958 1.378 . S
C956 C960 1.350 . S
C957 C960 1.463 . S
C957 C962 1.350 . S
C957 N965 1.427 . S
C958 H949 0.930 . S
C958 C956 1.378 . S
C958 C959 1.367 . S
C959 C958 1.367 . S
C959 C961 1.433 . S
C960 C956 1.350 . S
C960 C957 1.463 . S
C960 N964 1.427 . S
C961 H951 0.929 . S
C961 C959 1.433 . S
C961 N964 1.384 . S
C962 H953 0.929 . S
C962 C954 1.378 . S
C962 C957 1.350 . S
C963 H950 0.929 . S
C963 C955 1.433 . S
C963 N965 1.384 . S
N964 C960 1.427 . S
N964 C961 1.384 . S
N965 C957 1.427 . S
N965 C963 1.384 . S
H966 C972 0.930 . S
H967 C976 0.930 . S
H968 C981 0.929 . S
H969 C979 0.929 . S
H970 C974 0.929 . S
H971 C980 0.929 . S
C972 H966 0.930 . S
C972 C973 1.367 . S
C972 C980 1.378 . S
C973 C972 1.367 . S
C973 C981 1.433 . S
C974 H970 0.929 . S
C974 C976 1.378 . S
C974 C978 1.350 . S
C975 C978 1.463 . S
C975 C980 1.350 . S
C975 N983 1.427 . S
C976 H967 0.930 . S
C976 C974 1.378 . S
C976 C977 1.367 . S
C977 C976 1.367 . S
C977 C979 1.433 . S
C978 C974 1.350 . S
C978 C975 1.463 . S
C978 N982 1.427 . S
C979 H969 0.929 . S
C979 C977 1.433 . S
C979 N982 1.384 . S
C980 H971 0.929 . S
C980 C972 1.378 . S
C980 C975 1.350 . S
C981 H968 0.929 . S
C981 C973 1.433 . S
C981 N983 1.384 . S
N982 C978 1.427 . S
N982 C979 1.384 . S
N983 C975 1.427 . S
N983 C981 1.384 . S
H984 C990 0.930 . S
H985 C994 0.930 . S
H986 C999 0.929 . S
H987 C997 0.929 . S
H988 C992 0.929 . S
H989 C998 0.929 . S
C990 H984 0.930 . S
C990 C991 1.367 . S
C990 C998 1.378 . S
C991 C990 1.367 . S
C991 C999 1.433 . S
C992 H988 0.929 . S
C992 C994 1.378 . S
C992 C996 1.350 . S
C993 C996 1.463 . S
C993 C998 1.350 . S
C993 N1001 1.427 . S
C994 H985 0.930 . S
C994 C992 1.378 . S
C994 C995 1.367 . S
C995 C994 1.367 . S
C995 C997 1.433 . S
C996 C992 1.350 . S
C996 C993 1.463 . S
C996 N1000 1.427 . S
C997 H987 0.929 . S
C997 C995 1.433 . S
C997 N1000 1.384 . S
C998 H989 0.929 . S
C998 C990 1.378 . S
C998 C993 1.350 . S
C999 H986 0.929 . S
C999 C991 1.433 . S
C999 N1001 1.384 . S
N1000 C996 1.427 . S
N1000 C997 1.384 . S
N1001 C993 1.427 . S
N1001 C999 1.384 . S
H1002 C1008 0.930 . S
H1003 C1012 0.930 . S
H1004 C1017 0.929 . S
H1005 C1015 0.929 . S
H1006 C1010 0.929 . S
H1007 C1016 0.929 . S
C1008 H1002 0.930 . S
C1008 C1009 1.367 . S
C1008 C1016 1.378 . S
C1009 C1008 1.367 . S
C1009 C1017 1.433 . S
C1010 H1006 0.929 . S
C1010 C1012 1.378 . S
C1010 C1014 1.350 . S
C1011 C1014 1.463 . S
C1011 C1016 1.350 . S
C1011 N1019 1.427 . S
C1012 H1003 0.930 . S
C1012 C1010 1.378 . S
C1012 C1013 1.367 . S
C1013 C1012 1.367 . S
C1013 C1015 1.433 . S
C1014 C1010 1.350 . S
C1014 C1011 1.463 . S
C1014 N1018 1.427 . S
C1015 H1005 0.929 . S
C1015 C1013 1.433 . S
C1015 N1018 1.384 . S
C1016 H1007 0.929 . S
C1016 C1008 1.378 . S
C1016 C1011 1.350 . S
C1017 H1004 0.929 . S
C1017 C1009 1.433 . S
C1017 N1019 1.384 . S
N1018 C1014 1.427 . S
N1018 C1015 1.384 . S
N1019 C1011 1.427 . S
N1019 C1017 1.384 . S
H1020 C1026 0.930 . S
H1021 C1030 0.930 . S
H1022 C1035 0.929 . S
H1023 C1033 0.929 . S
H1024 C1028 0.929 . S
H1025 C1034 0.929 . S
C1026 H1020 0.930 . S
C1026 C1027 1.367 . S
C1026 C1034 1.378 . S
C1027 C1026 1.367 . S
C1027 C1035 1.433 . S
C1028 H1024 0.929 . S
C1028 C1030 1.378 . S
C1028 C1032 1.350 . S
C1029 C1032 1.463 . S
C1029 C1034 1.350 . S
C1029 N1037 1.427 . S
C1030 H1021 0.930 . S
C1030 C1028 1.378 . S
C1030 C1031 1.367 . S
C1031 C1030 1.367 . S
C1031 C1033 1.433 . S
C1032 C1028 1.350 . S
C1032 C1029 1.463 . S
C1032 N1036 1.427 . S
C1033 H1023 0.929 . S
C1033 C1031 1.433 . S
C1033 N1036 1.384 . S
C1034 H1025 0.929 . S
C1034 C1026 1.378 . S
C1034 C1029 1.350 . S
C1035 H1022 0.929 . S
C1035 C1027 1.433 . S
C1035 N1037 1.384 . S
N1036 C1032 1.427 . S
N1036 C1033 1.384 . S
N1037 C1029 1.427 . S
N1037 C1035 1.384 . S
H1038 C1044 0.930 . S
H1039 C1048 0.930 . S
H1040 C1053 0.929 . S
H1041 C1051 0.929 . S
H1042 C1046 0.929 . S
H1043 C1052 0.929 . S
C1044 H1038 0.930 . S
C1044 C1045 1.367 . S
C1044 C1052 1.378 . S
C1045 C1044 1.367 . S
C1045 C1053 1.433 . S
C1046 H1042 0.929 . S
C1046 C1048 1.378 . S
C1046 C1050 1.350 . S
C1047 C1050 1.463 . S
C1047 C1052 1.350 . S
C1047 N1055 1.427 . S
C1048 H1039 0.930 . S
C1048 C1046 1.378 . S
C1048 C1049 1.367 . S
C1049 C1048 1.367 . S
C1049 C1051 1.433 . S
C1050 C1046 1.350 . S
C1050 C1047 1.463 . S
C1050 N1054 1.427 . S
C1051 H1041 0.929 . S
C1051 C1049 1.433 . S
C1051 N1054 1.384 . S
C1052 H1043 0.929 . S
C1052 C1044 1.378 . S
C1052 C1047 1.350 . S
C1053 H1040 0.929 . S
C1053 C1045 1.433 . S
C1053 N1055 1.384 . S
N1054 C1050 1.427 . S
N1054 C1051 1.384 . S
N1055 C1047 1.427 . S
N1055 C1053 1.384 . S
H1056 C1062 0.930 . S
H1057 C1066 0.930 . S
H1058 C1071 0.929 . S
H1059 C1069 0.929 . S
H1060 C1064 0.929 . S
H1061 C1070 0.929 . S
C1062 H1056 0.930 . S
C1062 C1063 1.367 . S
C1062 C1070 1.378 . S
C1063 C1062 1.367 . S
C1063 C1071 1.433 . S
C1064 H1060 0.929 . S
C1064 C1066 1.378 . S
C1064 C1068 1.350 . S
C1065 C1068 1.463 . S
C1065 C1070 1.350 . S
C1065 N1073 1.427 . S
C1066 H1057 0.930 . S
C1066 C1064 1.378 . S
C1066 C1067 1.367 . S
C1067 C1066 1.367 . S
C1067 C1069 1.433 . S
C1068 C1064 1.350 . S
C1068 C1065 1.463 . S
C1068 N1072 1.427 . S
C1069 H1059 0.929 . S
C1069 C1067 1.433 . S
C1069 N1072 1.384 . S
C1070 H1061 0.929 . S
C1070 C1062 1.378 . S
C1070 C1065 1.350 . S
C1071 H1058 0.929 . S
C1071 C1063 1.433 . S
C1071 N1073 1.384 . S
N1072 C1068 1.427 . S
N1072 C1069 1.384 . S
N1073 C1065 1.427 . S
N1073 C1071 1.384 . S
H1074 C1080 0.930 . S
H1075 C1084 0.930 . S
H1076 C1089 0.929 . S
H1077 C1087 0.929 . S
H1078 C1082 0.929 . S
H1079 C1088 0.929 . S
C1080 H1074 0.930 . S
C1080 C1081 1.367 . S
C1080 C1088 1.378 . S
C1081 C1080 1.367 . S
C1081 C1089 1.433 . S
C1082 H1078 0.929 . S
C1082 C1084 1.378 . S
C1082 C1086 1.350 . S
C1083 C1086 1.463 . S
C1083 C1088 1.350 . S
C1083 N1091 1.427 . S
C1084 H1075 0.930 . S
C1084 C1082 1.378 . S
C1084 C1085 1.367 . S
C1085 C1084 1.367 . S
C1085 C1087 1.433 . S
C1086 C1082 1.350 . S
C1086 C1083 1.463 . S
C1086 N1090 1.427 . S
C1087 H1077 0.929 . S
C1087 C1085 1.433 . S
C1087 N1090 1.384 . S
C1088 H1079 0.929 . S
C1088 C1080 1.378 . S
C1088 C1083 1.350 . S
C1089 H1076 0.929 . S
C1089 C1081 1.433 . S
C1089 N1091 1.384 . S
N1090 C1086 1.427 . S
N1090 C1087 1.384 . S
N1091 C1083 1.427 . S
N1091 C1089 1.384 . S
H1092 C1098 0.930 . S
H1093 C1102 0.930 . S
H1094 C1107 0.929 . S
H1095 C1105 0.929 . S
H1096 C1100 0.929 . S
H1097 C1106 0.929 . S
C1098 H1092 0.930 . S
C1098 C1099 1.367 . S
C1098 C1106 1.378 . S
C1099 C1098 1.367 . S
C1099 C1107 1.433 . S
C1100 H1096 0.929 . S
C1100 C1102 1.378 . S
C1100 C1104 1.350 . S
C1101 C1104 1.463 . S
C1101 C1106 1.350 . S
C1101 N1109 1.427 . S
C1102 H1093 0.930 . S
C1102 C1100 1.378 . S
C1102 C1103 1.367 . S
C1103 C1102 1.367 . S
C1103 C1105 1.433 . S
C1104 C1100 1.350 . S
C1104 C1101 1.463 . S
C1104 N1108 1.427 . S
C1105 H1095 0.929 . S
C1105 C1103 1.433 . S
C1105 N1108 1.384 . S
C1106 H1097 0.929 . S
C1106 C1098 1.378 . S
C1106 C1101 1.350 . S
C1107 H1094 0.929 . S
C1107 C1099 1.433 . S
C1107 N1109 1.384 . S
N1108 C1104 1.427 . S
N1108 C1105 1.384 . S
N1109 C1101 1.427 . S
N1109 C1107 1.384 . S
H1110 C1116 0.930 . S
H1111 C1120 0.930 . S
H1112 C1125 0.929 . S
H1113 C1123 0.929 . S
H1114 C1118 0.929 . S
H1115 C1124 0.929 . S
C1116 H1110 0.930 . S
C1116 C1117 1.367 . S
C1116 C1124 1.378 . S
C1117 C1116 1.367 . S
C1117 C1125 1.433 . S
C1118 H1114 0.929 . S
C1118 C1120 1.378 . S
C1118 C1122 1.350 . S
C1119 C1122 1.463 . S
C1119 C1124 1.350 . S
C1119 N1127 1.427 . S
C1120 H1111 0.930 . S
C1120 C1118 1.378 . S
C1120 C1121 1.367 . S
C1121 C1120 1.367 . S
C1121 C1123 1.433 . S
C1122 C1118 1.350 . S
C1122 C1119 1.463 . S
C1122 N1126 1.427 . S
C1123 H1113 0.929 . S
C1123 C1121 1.433 . S
C1123 N1126 1.384 . S
C1124 H1115 0.929 . S
C1124 C1116 1.378 . S
C1124 C1119 1.350 . S
C1125 H1112 0.929 . S
C1125 C1117 1.433 . S
C1125 N1127 1.384 . S
N1126 C1122 1.427 . S
N1126 C1123 1.384 . S
N1127 C1119 1.427 . S
N1127 C1125 1.384 . S
H1128 C1134 0.930 . S
H1129 C1138 0.930 . S
H1130 C1143 0.929 . S
H1131 C1141 0.929 . S
H1132 C1136 0.929 . S
H1133 C1142 0.929 . S
C1134 H1128 0.930 . S
C1134 C1135 1.367 . S
C1134 C1142 1.378 . S
C1135 C1134 1.367 . S
C1135 C1143 1.433 . S
C1136 H1132 0.929 . S
C1136 C1138 1.378 . S
C1136 C1140 1.350 . S
C1137 C1140 1.463 . S
C1137 C1142 1.350 . S
C1137 N1145 1.427 . S
C1138 H1129 0.930 . S
C1138 C1136 1.378 . S
C1138 C1139 1.367 . S
C1139 C1138 1.367 . S
C1139 C1141 1.433 . S
C1140 C1136 1.350 . S
C1140 C1137 1.463 . S
C1140 N1144 1.427 . S
C1141 H1131 0.929 . S
C1141 C1139 1.433 . S
C1141 N1144 1.384 . S
C1142 H1133 0.929 . S
C1142 C1134 1.378 . S
C1142 C1137 1.350 . S
C1143 H1130 0.929 . S
C1143 C1135 1.433 . S
C1143 N1145 1.384 . S
N1144 C1140 1.427 . S
N1144 C1141 1.384 . S
N1145 C1137 1.427 . S
N1145 C1143 1.384 . S
H1146 C1152 0.930 . S
H1147 C1156 0.930 . S
H1148 C1161 0.929 . S
H1149 C1159 0.929 . S
H1150 C1154 0.929 . S
H1151 C1160 0.929 . S
C1152 H1146 0.930 . S
C1152 C1153 1.367 . S
C1152 C1160 1.378 . S
C1153 C1152 1.367 . S
C1153 C1161 1.433 . S
C1154 H1150 0.929 . S
C1154 C1156 1.378 . S
C1154 C1158 1.350 . S
C1155 C1158 1.463 . S
C1155 C1160 1.350 . S
C1155 N1163 1.427 . S
C1156 H1147 0.930 . S
C1156 C1154 1.378 . S
C1156 C1157 1.367 . S
C1157 C1156 1.367 . S
C1157 C1159 1.433 . S
C1158 C1154 1.350 . S
C1158 C1155 1.463 . S
C1158 N1162 1.427 . S
C1159 H1149 0.929 . S
C1159 C1157 1.433 . S
C1159 N1162 1.384 . S
C1160 H1151 0.929 . S
C1160 C1152 1.378 . S
C1160 C1155 1.350 . S
C1161 H1148 0.929 . S
C1161 C1153 1.433 . S
C1161 N1163 1.384 . S
N1162 C1158 1.427 . S
N1162 C1159 1.384 . S
N1163 C1155 1.427 . S
N1163 C1161 1.384 . S
H1164 C1170 0.930 . S
H1165 C1174 0.930 . S
H1166 C1179 0.929 . S
H1167 C1177 0.929 . S
H1168 C1172 0.929 . S
H1169 C1178 0.929 . S
C1170 H1164 0.930 . S
C1170 C1171 1.367 . S
C1170 C1178 1.378 . S
C1171 C1170 1.367 . S
C1171 C1179 1.433 . S
C1172 H1168 0.929 . S
C1172 C1174 1.378 . S
C1172 C1176 1.350 . S
C1173 C1176 1.463 . S
C1173 C1178 1.350 . S
C1173 N1181 1.427 . S
C1174 H1165 0.930 . S
C1174 C1172 1.378 . S
C1174 C1175 1.367 . S
C1175 C1174 1.367 . S
C1175 C1177 1.433 . S
C1176 C1172 1.350 . S
C1176 C1173 1.463 . S
C1176 N1180 1.427 . S
C1177 H1167 0.929 . S
C1177 C1175 1.433 . S
C1177 N1180 1.384 . S
C1178 H1169 0.929 . S
C1178 C1170 1.378 . S
C1178 C1173 1.350 . S
C1179 H1166 0.929 . S
C1179 C1171 1.433 . S
C1179 N1181 1.384 . S
N1180 C1176 1.427 . S
N1180 C1177 1.384 . S
N1181 C1173 1.427 . S
N1181 C1179 1.384 . S
H1182 C1188 0.930 . S
H1183 C1192 0.930 . S
H1184 C1197 0.929 . S
H1185 C1195 0.929 . S
H1186 C1190 0.929 . S
H1187 C1196 0.929 . S
C1188 H1182 0.930 . S
C1188 C1189 1.367 . S
C1188 C1196 1.378 . S
C1189 C1188 1.367 . S
C1189 C1197 1.433 . S
C1190 H1186 0.929 . S
C1190 C1192 1.378 . S
C1190 C1194 1.350 . S
C1191 C1194 1.463 . S
C1191 C1196 1.350 . S
C1191 N1199 1.427 . S
C1192 H1183 0.930 . S
C1192 C1190 1.378 . S
C1192 C1193 1.367 . S
C1193 C1192 1.367 . S
C1193 C1195 1.433 . S
C1194 C1190 1.350 . S
C1194 C1191 1.463 . S
C1194 N1198 1.427 . S
C1195 H1185 0.929 . S
C1195 C1193 1.433 . S
C1195 N1198 1.384 . S
C1196 H1187 0.929 . S
C1196 C1188 1.378 . S
C1196 C1191 1.350 . S
C1197 H1184 0.929 . S
C1197 C1189 1.433 . S
C1197 N1199 1.384 . S
N1198 C1194 1.427 . S
N1198 C1195 1.384 . S
N1199 C1191 1.427 . S
N1199 C1197 1.384 . S
H1200 C1206 0.930 . S
H1201 C1210 0.930 . S
H1202 C1215 0.929 . S
H1203 C1213 0.929 . S
H1204 C1208 0.929 . S
H1205 C1214 0.929 . S
C1206 H1200 0.930 . S
C1206 C1207 1.367 . S
C1206 C1214 1.378 . S
C1207 C1206 1.367 . S
C1207 C1215 1.433 . S
C1208 H1204 0.929 . S
C1208 C1210 1.378 . S
C1208 C1212 1.350 . S
C1209 C1212 1.463 . S
C1209 C1214 1.350 . S
C1209 N1217 1.427 . S
C1210 H1201 0.930 . S
C1210 C1208 1.378 . S
C1210 C1211 1.367 . S
C1211 C1210 1.367 . S
C1211 C1213 1.433 . S
C1212 C1208 1.350 . S
C1212 C1209 1.463 . S
C1212 N1216 1.427 . S
C1213 H1203 0.929 . S
C1213 C1211 1.433 . S
C1213 N1216 1.384 . S
C1214 H1205 0.929 . S
C1214 C1206 1.378 . S
C1214 C1209 1.350 . S
C1215 H1202 0.929 . S
C1215 C1207 1.433 . S
C1215 N1217 1.384 . S
N1216 C1212 1.427 . S
N1216 C1213 1.384 . S
N1217 C1209 1.427 . S
N1217 C1215 1.384 . S
H1218 C1224 0.930 . S
H1219 C1228 0.930 . S
H1220 C1233 0.929 . S
H1221 C1231 0.929 . S
H1222 C1226 0.929 . S
H1223 C1232 0.929 . S
C1224 H1218 0.930 . S
C1224 C1225 1.367 . S
C1224 C1232 1.378 . S
C1225 C1224 1.367 . S
C1225 C1233 1.433 . S
C1226 H1222 0.929 . S
C1226 C1228 1.378 . S
C1226 C1230 1.350 . S
C1227 C1230 1.463 . S
C1227 C1232 1.350 . S
C1227 N1235 1.427 . S
C1228 H1219 0.930 . S
C1228 C1226 1.378 . S
C1228 C1229 1.367 . S
C1229 C1228 1.367 . S
C1229 C1231 1.433 . S
C1230 C1226 1.350 . S
C1230 C1227 1.463 . S
C1230 N1234 1.427 . S
C1231 H1221 0.929 . S
C1231 C1229 1.433 . S
C1231 N1234 1.384 . S
C1232 H1223 0.929 . S
C1232 C1224 1.378 . S
C1232 C1227 1.350 . S
C1233 H1220 0.929 . S
C1233 C1225 1.433 . S
C1233 N1235 1.384 . S
N1234 C1230 1.427 . S
N1234 C1231 1.384 . S
N1235 C1227 1.427 . S
N1235 C1233 1.384 . S
H1236 C1242 0.930 . S
H1237 C1246 0.930 . S
H1238 C1251 0.929 . S
H1239 C1249 0.929 . S
H1240 C1244 0.929 . S
H1241 C1250 0.929 . S
C1242 H1236 0.930 . S
C1242 C1243 1.367 . S
C1242 C1250 1.378 . S
C1243 C1242 1.367 . S
C1243 C1251 1.433 . S
C1244 H1240 0.929 . S
C1244 C1246 1.378 . S
C1244 C1248 1.350 . S
C1245 C1248 1.463 . S
C1245 C1250 1.350 . S
C1245 N1253 1.427 . S
C1246 H1237 0.930 . S
C1246 C1244 1.378 . S
C1246 C1247 1.367 . S
C1247 C1246 1.367 . S
C1247 C1249 1.433 . S
C1248 C1244 1.350 . S
C1248 C1245 1.463 . S
C1248 N1252 1.427 . S
C1249 H1239 0.929 . S
C1249 C1247 1.433 . S
C1249 N1252 1.384 . S
C1250 H1241 0.929 . S
C1250 C1242 1.378 . S
C1250 C1245 1.350 . S
C1251 H1238 0.929 . S
C1251 C1243 1.433 . S
C1251 N1253 1.384 . S
N1252 C1248 1.427 . S
N1252 C1249 1.384 . S
N1253 C1245 1.427 . S
N1253 C1251 1.384 . S
H1254 C1260 0.930 . S
H1255 C1264 0.930 . S
H1256 C1269 0.929 . S
H1257 C1267 0.929 . S
H1258 C1262 0.929 . S
H1259 C1268 0.929 . S
C1260 H1254 0.930 . S
C1260 C1261 1.367 . S
C1260 C1268 1.378 . S
C1261 C1260 1.367 . S
C1261 C1269 1.433 . S
C1262 H1258 0.929 . S
C1262 C1264 1.378 . S
C1262 C1266 1.350 . S
C1263 C1266 1.463 . S
C1263 C1268 1.350 . S
C1263 N1271 1.427 . S
C1264 H1255 0.930 . S
C1264 C1262 1.378 . S
C1264 C1265 1.367 . S
C1265 C1264 1.367 . S
C1265 C1267 1.433 . S
C1266 C1262 1.350 . S
C1266 C1263 1.463 . S
C1266 N1270 1.427 . S
C1267 H1257 0.929 . S
C1267 C1265 1.433 . S
C1267 N1270 1.384 . S
C1268 H1259 0.929 . S
C1268 C1260 1.378 . S
C1268 C1263 1.350 . S
C1269 H1256 0.929 . S
C1269 C1261 1.433 . S
C1269 N1271 1.384 . S
N1270 C1266 1.427 . S
N1270 C1267 1.384 . S
N1271 C1263 1.427 . S
N1271 C1269 1.384 . S
H1272 C1278 0.930 . S
H1273 C1282 0.930 . S
H1274 C1287 0.929 . S
H1275 C1285 0.929 . S
H1276 C1280 0.929 . S
H1277 C1286 0.929 . S
C1278 H1272 0.930 . S
C1278 C1279 1.367 . S
C1278 C1286 1.378 . S
C1279 C1278 1.367 . S
C1279 C1287 1.433 . S
C1280 H1276 0.929 . S
C1280 C1282 1.378 . S
C1280 C1284 1.350 . S
C1281 C1284 1.463 . S
C1281 C1286 1.350 . S
C1281 N1289 1.427 . S
C1282 H1273 0.930 . S
C1282 C1280 1.378 . S
C1282 C1283 1.367 . S
C1283 C1282 1.367 . S
C1283 C1285 1.433 . S
C1284 C1280 1.350 . S
C1284 C1281 1.463 . S
C1284 N1288 1.427 . S
C1285 H1275 0.929 . S
C1285 C1283 1.433 . S
C1285 N1288 1.384 . S
C1286 H1277 0.929 . S
C1286 C1278 1.378 . S
C1286 C1281 1.350 . S
C1287 H1274 0.929 . S
C1287 C1279 1.433 . S
C1287 N1289 1.384 . S
N1288 C1284 1.427 . S
N1288 C1285 1.384 . S
N1289 C1281 1.427 . S
N1289 C1287 1.384 . S
H1290 C1296 0.930 . S
H1291 C1300 0.930 . S
H1292 C1305 0.929 . S
H1293 C1303 0.929 . S
H1294 C1298 0.929 . S
H1295 C1304 0.929 . S
C1296 H1290 0.930 . S
C1296 C1297 1.367 . S
C1296 C1304 1.378 . S
C1297 C1296 1.367 . S
C1297 C1305 1.433 . S
C1298 H1294 0.929 . S
C1298 C1300 1.378 . S
C1298 C1302 1.350 . S
C1299 C1302 1.463 . S
C1299 C1304 1.350 . S
C1299 N1307 1.427 . S
C1300 H1291 0.930 . S
C1300 C1298 1.378 . S
C1300 C1301 1.367 . S
C1301 C1300 1.367 . S
C1301 C1303 1.433 . S
C1302 C1298 1.350 . S
C1302 C1299 1.463 . S
C1302 N1306 1.427 . S
C1303 H1293 0.929 . S
C1303 C1301 1.433 . S
C1303 N1306 1.384 . S
C1304 H1295 0.929 . S
C1304 C1296 1.378 . S
C1304 C1299 1.350 . S
C1305 H1292 0.929 . S
C1305 C1297 1.433 . S
C1305 N1307 1.384 . S
N1306 C1302 1.427 . S
N1306 C1303 1.384 . S
N1307 C1299 1.427 . S
N1307 C1305 1.384 . S
H1308 C1314 0.930 . S
H1309 C1318 0.930 . S
H1310 C1323 0.929 . S
H1311 C1321 0.929 . S
H1312 C1316 0.929 . S
H1313 C1322 0.929 . S
C1314 H1308 0.930 . S
C1314 C1315 1.367 . S
C1314 C1322 1.378 . S
C1315 C1314 1.367 . S
C1315 C1323 1.433 . S
C1316 H1312 0.929 . S
C1316 C1318 1.378 . S
C1316 C1320 1.350 . S
C1317 C1320 1.463 . S
C1317 C1322 1.350 . S
C1317 N1325 1.427 . S
C1318 H1309 0.930 . S
C1318 C1316 1.378 . S
C1318 C1319 1.367 . S
C1319 C1318 1.367 . S
C1319 C1321 1.433 . S
C1320 C1316 1.350 . S
C1320 C1317 1.463 . S
C1320 N1324 1.427 . S
C1321 H1311 0.929 . S
C1321 C1319 1.433 . S
C1321 N1324 1.384 . S
C1322 H1313 0.929 . S
C1322 C1314 1.378 . S
C1322 C1317 1.350 . S
C1323 H1310 0.929 . S
C1323 C1315 1.433 . S
C1323 N1325 1.384 . S
N1324 C1320 1.427 . S
N1324 C1321 1.384 . S
N1325 C1317 1.427 . S
N1325 C1323 1.384 . S
H1326 C1332 0.930 . S
H1327 C1336 0.930 . S
H1328 C1341 0.929 . S
H1329 C1339 0.929 . S
H1330 C1334 0.929 . S
H1331 C1340 0.929 . S
C1332 H1326 0.930 . S
C1332 C1333 1.367 . S
C1332 C1340 1.378 . S
C1333 C1332 1.367 . S
C1333 C1341 1.433 . S
C1334 H1330 0.929 . S
C1334 C1336 1.378 . S
C1334 C1338 1.350 . S
C1335 C1338 1.463 . S
C1335 C1340 1.350 . S
C1335 N1343 1.427 . S
C1336 H1327 0.930 . S
C1336 C1334 1.378 . S
C1336 C1337 1.367 . S
C1337 C1336 1.367 . S
C1337 C1339 1.433 . S
C1338 C1334 1.350 . S
C1338 C1335 1.463 . S
C1338 N1342 1.427 . S
C1339 H1329 0.929 . S
C1339 C1337 1.433 . S
C1339 N1342 1.384 . S
C1340 H1331 0.929 . S
C1340 C1332 1.378 . S
C1340 C1335 1.350 . S
C1341 H1328 0.929 . S
C1341 C1333 1.433 . S
C1341 N1343 1.384 . S
N1342 C1338 1.427 . S
N1342 C1339 1.384 . S
N1343 C1335 1.427 . S
N1343 C1341 1.384 . S
H1344 C1350 0.930 . S
H1345 C1354 0.930 . S
H1346 C1359 0.929 . S
H1347 C1357 0.929 . S
H1348 C1352 0.929 . S
H1349 C1358 0.929 . S
C1350 H1344 0.930 . S
C1350 C1351 1.367 . S
C1350 C1358 1.378 . S
C1351 C1350 1.367 . S
C1351 C1359 1.433 . S
C1352 H1348 0.929 . S
C1352 C1354 1.378 . S
C1352 C1356 1.350 . S
C1353 C1356 1.463 . S
C1353 C1358 1.350 . S
C1353 N1361 1.427 . S
C1354 H1345 0.930 . S
C1354 C1352 1.378 . S
C1354 C1355 1.367 . S
C1355 C1354 1.367 . S
C1355 C1357 1.433 . S
C1356 C1352 1.350 . S
C1356 C1353 1.463 . S
C1356 N1360 1.427 . S
C1357 H1347 0.929 . S
C1357 C1355 1.433 . S
C1357 N1360 1.384 . S
C1358 H1349 0.929 . S
C1358 C1350 1.378 . S
C1358 C1353 1.350 . S
C1359 H1346 0.929 . S
C1359 C1351 1.433 . S
C1359 N1361 1.384 . S
N1360 C1356 1.427 . S
N1360 C1357 1.384 . S
N1361 C1353 1.427 . S
N1361 C1359 1.384 . S
H1362 C1368 0.930 . S
H1363 C1372 0.930 . S
H1364 C1377 0.929 . S
H1365 C1375 0.929 . S
H1366 C1370 0.929 . S
H1367 C1376 0.929 . S
C1368 H1362 0.930 . S
C1368 C1369 1.367 . S
C1368 C1376 1.378 . S
C1369 C1368 1.367 . S
C1369 C1377 1.433 . S
C1370 H1366 0.929 . S
C1370 C1372 1.378 . S
C1370 C1374 1.350 . S
C1371 C1374 1.463 . S
C1371 C1376 1.350 . S
C1371 N1379 1.427 . S
C1372 H1363 0.930 . S
C1372 C1370 1.378 . S
C1372 C1373 1.367 . S
C1373 C1372 1.367 . S
C1373 C1375 1.433 . S
C1374 C1370 1.350 . S
C1374 C1371 1.463 . S
C1374 N1378 1.427 . S
C1375 H1365 0.929 . S
C1375 C1373 1.433 . S
C1375 N1378 1.384 . S
C1376 H1367 0.929 . S
C1376 C1368 1.378 . S
C1376 C1371 1.350 . S
C1377 H1364 0.929 . S
C1377 C1369 1.433 . S
C1377 N1379 1.384 . S
N1378 C1374 1.427 . S
N1378 C1375 1.384 . S
N1379 C1371 1.427 . S
N1379 C1377 1.384 . S
H1380 C1386 0.930 . S
H1381 C1390 0.930 . S
H1382 C1395 0.929 . S
H1383 C1393 0.929 . S
H1384 C1388 0.929 . S
H1385 C1394 0.929 . S
C1386 H1380 0.930 . S
C1386 C1387 1.367 . S
C1386 C1394 1.378 . S
C1387 C1386 1.367 . S
C1387 C1395 1.433 . S
C1388 H1384 0.929 . S
C1388 C1390 1.378 . S
C1388 C1392 1.350 . S
C1389 C1392 1.463 . S
C1389 C1394 1.350 . S
C1389 N1397 1.427 . S
C1390 H1381 0.930 . S
C1390 C1388 1.378 . S
C1390 C1391 1.367 . S
C1391 C1390 1.367 . S
C1391 C1393 1.433 . S
C1392 C1388 1.350 . S
C1392 C1389 1.463 . S
C1392 N1396 1.427 . S
C1393 H1383 0.929 . S
C1393 C1391 1.433 . S
C1393 N1396 1.384 . S
C1394 H1385 0.929 . S
C1394 C1386 1.378 . S
C1394 C1389 1.350 . S
C1395 H1382 0.929 . S
C1395 C1387 1.433 . S
C1395 N1397 1.384 . S
N1396 C1392 1.427 . S
N1396 C1393 1.384 . S
N1397 C1389 1.427 . S
N1397 C1395 1.384 . S
H1398 C1404 0.930 . S
H1399 C1408 0.930 . S
H1400 C1413 0.929 . S
H1401 C1411 0.929 . S
H1402 C1406 0.929 . S
H1403 C1412 0.929 . S
C1404 H1398 0.930 . S
C1404 C1405 1.367 . S
C1404 C1412 1.378 . S
C1405 C1404 1.367 . S
C1405 C1413 1.433 . S
C1406 H1402 0.929 . S
C1406 C1408 1.378 . S
C1406 C1410 1.350 . S
C1407 C1410 1.463 . S
C1407 C1412 1.350 . S
C1407 N1415 1.427 . S
C1408 H1399 0.930 . S
C1408 C1406 1.378 . S
C1408 C1409 1.367 . S
C1409 C1408 1.367 . S
C1409 C1411 1.433 . S
C1410 C1406 1.350 . S
C1410 C1407 1.463 . S
C1410 N1414 1.427 . S
C1411 H1401 0.929 . S
C1411 C1409 1.433 . S
C1411 N1414 1.384 . S
C1412 H1403 0.929 . S
C1412 C1404 1.378 . S
C1412 C1407 1.350 . S
C1413 H1400 0.929 . S
C1413 C1405 1.433 . S
C1413 N1415 1.384 . S
N1414 C1410 1.427 . S
N1414 C1411 1.384 . S
N1415 C1407 1.427 . S
N1415 C1413 1.384 . S
H1416 C1422 0.930 . S
H1417 C1426 0.930 . S
H1418 C1431 0.929 . S
H1419 C1429 0.929 . S
H1420 C1424 0.929 . S
H1421 C1430 0.929 . S
C1422 H1416 0.930 . S
C1422 C1423 1.367 . S
C1422 C1430 1.378 . S
C1423 C1422 1.367 . S
C1423 C1431 1.433 . S
C1424 H1420 0.929 . S
C1424 C1426 1.378 . S
C1424 C1428 1.350 . S
C1425 C1428 1.463 . S
C1425 C1430 1.350 . S
C1425 N1433 1.427 . S
C1426 H1417 0.930 . S
C1426 C1424 1.378 . S
C1426 C1427 1.367 . S
C1427 C1426 1.367 . S
C1427 C1429 1.433 . S
C1428 C1424 1.350 . S
C1428 C1425 1.463 . S
C1428 N1432 1.427 . S
C1429 H1419 0.929 . S
C1429 C1427 1.433 . S
C1429 N1432 1.384 . S
C1430 H1421 0.929 . S
C1430 C1422 1.378 . S
C1430 C1425 1.350 . S
C1431 H1418 0.929 . S
C1431 C1423 1.433 . S
C1431 N1433 1.384 . S
N1432 C1428 1.427 . S
N1432 C1429 1.384 . S
N1433 C1425 1.427 . S
N1433 C1431 1.384 . S
H1434 C1440 0.930 . S
H1435 C1444 0.930 . S
H1436 C1449 0.929 . S
H1437 C1447 0.929 . S
H1438 C1442 0.929 . S
H1439 C1448 0.929 . S
C1440 H1434 0.930 . S
C1440 C1441 1.367 . S
C1440 C1448 1.378 . S
C1441 C1440 1.367 . S
C1441 C1449 1.433 . S
C1442 H1438 0.929 . S
C1442 C1444 1.378 . S
C1442 C1446 1.350 . S
C1443 C1446 1.463 . S
C1443 C1448 1.350 . S
C1443 N1451 1.427 . S
C1444 H1435 0.930 . S
C1444 C1442 1.378 . S
C1444 C1445 1.367 . S
C1445 C1444 1.367 . S
C1445 C1447 1.433 . S
C1446 C1442 1.350 . S
C1446 C1443 1.463 . S
C1446 N1450 1.427 . S
C1447 H1437 0.929 . S
C1447 C1445 1.433 . S
C1447 N1450 1.384 . S
C1448 H1439 0.929 . S
C1448 C1440 1.378 . S
C1448 C1443 1.350 . S
C1449 H1436 0.929 . S
C1449 C1441 1.433 . S
C1449 N1451 1.384 . S
N1450 C1446 1.427 . S
N1450 C1447 1.384 . S
N1451 C1443 1.427 . S
N1451 C1449 1.384 . S
H1452 C1458 0.930 . S
H1453 C1462 0.930 . S
H1454 C1467 0.929 . S
H1455 C1465 0.929 . S
H1456 C1460 0.929 . S
H1457 C1466 0.929 . S
C1458 H1452 0.930 . S
C1458 C1459 1.367 . S
C1458 C1466 1.378 . S
C1459 C1458 1.367 . S
C1459 C1467 1.433 . S
C1460 H1456 0.929 . S
C1460 C1462 1.378 . S
C1460 C1464 1.350 . S
C1461 C1464 1.463 . S
C1461 C1466 1.350 . S
C1461 N1469 1.427 . S
C1462 H1453 0.930 . S
C1462 C1460 1.378 . S
C1462 C1463 1.367 . S
C1463 C1462 1.367 . S
C1463 C1465 1.433 . S
C1464 C1460 1.350 . S
C1464 C1461 1.463 . S
C1464 N1468 1.427 . S
C1465 H1455 0.929 . S
C1465 C1463 1.433 . S
C1465 N1468 1.384 . S
C1466 H1457 0.929 . S
C1466 C1458 1.378 . S
C1466 C1461 1.350 . S
C1467 H1454 0.929 . S
C1467 C1459 1.433 . S
C1467 N1469 1.384 . S
N1468 C1464 1.427 . S
N1468 C1465 1.384 . S
N1469 C1461 1.427 . S
N1469 C1467 1.384 . S
H1470 C1476 0.930 . S
H1471 C1480 0.930 . S
H1472 C1485 0.929 . S
H1473 C1483 0.929 . S
H1474 C1478 0.929 . S
H1475 C1484 0.929 . S
C1476 H1470 0.930 . S
C1476 C1477 1.367 . S
C1476 C1484 1.378 . S
C1477 C1476 1.367 . S
C1477 C1485 1.433 . S
C1478 H1474 0.929 . S
C1478 C1480 1.378 . S
C1478 C1482 1.350 . S
C1479 C1482 1.463 . S
C1479 C1484 1.350 . S
C1479 N1487 1.427 . S
C1480 H1471 0.930 . S
C1480 C1478 1.378 . S
C1480 C1481 1.367 . S
C1481 C1480 1.367 . S
C1481 C1483 1.433 . S
C1482 C1478 1.350 . S
C1482 C1479 1.463 . S
C1482 N1486 1.427 . S
C1483 H1473 0.929 . S
C1483 C1481 1.433 . S
C1483 N1486 1.384 . S
C1484 H1475 0.929 . S
C1484 C1476 1.378 . S
C1484 C1479 1.350 . S
C1485 H1472 0.929 . S
C1485 C1477 1.433 . S
C1485 N1487 1.384 . S
N1486 C1482 1.427 . S
N1486 C1483 1.384 . S
N1487 C1479 1.427 . S
N1487 C1485 1.384 . S
H1488 C1494 0.930 . S
H1489 C1498 0.930 . S
H1490 C1503 0.929 . S
H1491 C1501 0.929 . S
H1492 C1496 0.929 . S
H1493 C1502 0.929 . S
C1494 H1488 0.930 . S
C1494 C1495 1.367 . S
C1494 C1502 1.378 . S
C1495 C1494 1.367 . S
C1495 C1503 1.433 . S
C1496 H1492 0.929 . S
C1496 C1498 1.378 . S
C1496 C1500 1.350 . S
C1497 C1500 1.463 . S
C1497 C1502 1.350 . S
C1497 N1505 1.427 . S
C1498 H1489 0.930 . S
C1498 C1496 1.378 . S
C1498 C1499 1.367 . S
C1499 C1498 1.367 . S
C1499 C1501 1.433 . S
C1500 C1496 1.350 . S
C1500 C1497 1.463 . S
C1500 N1504 1.427 . S
C1501 H1491 0.929 . S
C1501 C1499 1.433 . S
C1501 N1504 1.384 . S
C1502 H1493 0.929 . S
C1502 C1494 1.378 . S
C1502 C1497 1.350 . S
C1503 H1490 0.929 . S
C1503 C1495 1.433 . S
C1503 N1505 1.384 . S
N1504 C1500 1.427 . S
N1504 C1501 1.384 . S
N1505 C1497 1.427 . S
N1505 C1503 1.384 . S
H1506 C1512 0.930 . S
H1507 C1516 0.930 . S
H1508 C1521 0.929 . S
H1509 C1519 0.929 . S
H1510 C1514 0.929 . S
H1511 C1520 0.929 . S
C1512 H1506 0.930 . S
C1512 C1513 1.367 . S
C1512 C1520 1.378 . S
C1513 C1512 1.367 . S
C1513 C1521 1.433 . S
C1514 H1510 0.929 . S
C1514 C1516 1.378 . S
C1514 C1518 1.350 . S
C1515 C1518 1.463 . S
C1515 C1520 1.350 . S
C1515 N1523 1.427 . S
C1516 H1507 0.930 . S
C1516 C1514 1.378 . S
C1516 C1517 1.367 . S
C1517 C1516 1.367 . S
C1517 C1519 1.433 . S
C1518 C1514 1.350 . S
C1518 C1515 1.463 . S
C1518 N1522 1.427 . S
C1519 H1509 0.929 . S
C1519 C1517 1.433 . S
C1519 N1522 1.384 . S
C1520 H1511 0.929 . S
C1520 C1512 1.378 . S
C1520 C1515 1.350 . S
C1521 H1508 0.929 . S
C1521 C1513 1.433 . S
C1521 N1523 1.384 . S
N1522 C1518 1.427 . S
N1522 C1519 1.384 . S
N1523 C1515 1.427 . S
N1523 C1521 1.384 . S
H1524 C1530 0.930 . S
H1525 C1534 0.930 . S
H1526 C1539 0.929 . S
H1527 C1537 0.929 . S
H1528 C1532 0.929 . S
H1529 C1538 0.929 . S
C1530 H1524 0.930 . S
C1530 C1531 1.367 . S
C1530 C1538 1.378 . S
C1531 C1530 1.367 . S
C1531 C1539 1.433 . S
C1532 H1528 0.929 . S
C1532 C1534 1.378 . S
C1532 C1536 1.350 . S
C1533 C1536 1.463 . S
C1533 C1538 1.350 . S
C1533 N1541 1.427 . S
C1534 H1525 0.930 . S
C1534 C1532 1.378 . S
C1534 C1535 1.367 . S
C1535 C1534 1.367 . S
C1535 C1537 1.433 . S
C1536 C1532 1.350 . S
C1536 C1533 1.463 . S
C1536 N1540 1.427 . S
C1537 H1527 0.929 . S
C1537 C1535 1.433 . S
C1537 N1540 1.384 . S
C1538 H1529 0.929 . S
C1538 C1530 1.378 . S
C1538 C1533 1.350 . S
C1539 H1526 0.929 . S
C1539 C1531 1.433 . S
C1539 N1541 1.384 . S
N1540 C1536 1.427 . S
N1540 C1537 1.384 . S
N1541 C1533 1.427 . S
N1541 C1539 1.384 . S
H1542 C1548 0.930 . S
H1543 C1552 0.930 . S
H1544 C1557 0.929 . S
H1545 C1555 0.929 . S
H1546 C1550 0.929 . S
H1547 C1556 0.929 . S
C1548 H1542 0.930 . S
C1548 C1549 1.367 . S
C1548 C1556 1.378 . S
C1549 C1548 1.367 . S
C1549 C1557 1.433 . S
C1550 H1546 0.929 . S
C1550 C1552 1.378 . S
C1550 C1554 1.350 . S
C1551 C1554 1.463 . S
C1551 C1556 1.350 . S
C1551 N1559 1.427 . S
C1552 H1543 0.930 . S
C1552 C1550 1.378 . S
C1552 C1553 1.367 . S
C1553 C1552 1.367 . S
C1553 C1555 1.433 . S
C1554 C1550 1.350 . S
C1554 C1551 1.463 . S
C1554 N1558 1.427 . S
C1555 H1545 0.929 . S
C1555 C1553 1.433 . S
C1555 N1558 1.384 . S
C1556 H1547 0.929 . S
C1556 C1548 1.378 . S
C1556 C1551 1.350 . S
C1557 H1544 0.929 . S
C1557 C1549 1.433 . S
C1557 N1559 1.384 . S
N1558 C1554 1.427 . S
N1558 C1555 1.384 . S
N1559 C1551 1.427 . S
N1559 C1557 1.384 . S
H1560 C1566 0.930 . S
H1561 C1570 0.930 . S
H1562 C1575 0.929 . S
H1563 C1573 0.929 . S
H1564 C1568 0.929 . S
H1565 C1574 0.929 . S
C1566 H1560 0.930 . S
C1566 C1567 1.367 . S
C1566 C1574 1.378 . S
C1567 C1566 1.367 . S
C1567 C1575 1.433 . S
C1568 H1564 0.929 . S
C1568 C1570 1.378 . S
C1568 C1572 1.350 . S
C1569 C1572 1.463 . S
C1569 C1574 1.350 . S
C1569 N1577 1.427 . S
C1570 H1561 0.930 . S
C1570 C1568 1.378 . S
C1570 C1571 1.367 . S
C1571 C1570 1.367 . S
C1571 C1573 1.433 . S
C1572 C1568 1.350 . S
C1572 C1569 1.463 . S
C1572 N1576 1.427 . S
C1573 H1563 0.929 . S
C1573 C1571 1.433 . S
C1573 N1576 1.384 . S
C1574 H1565 0.929 . S
C1574 C1566 1.378 . S
C1574 C1569 1.350 . S
C1575 H1562 0.929 . S
C1575 C1567 1.433 . S
C1575 N1577 1.384 . S
N1576 C1572 1.427 . S
N1576 C1573 1.384 . S
N1577 C1569 1.427 . S
N1577 C1575 1.384 . S
H1578 C1584 0.930 . S
H1579 C1588 0.930 . S
H1580 C1593 0.929 . S
H1581 C1591 0.929 . S
H1582 C1586 0.929 . S
H1583 C1592 0.929 . S
C1584 H1578 0.930 . S
C1584 C1585 1.367 . S
C1584 C1592 1.378 . S
C1585 C1584 1.367 . S
C1585 C1593 1.433 . S
C1586 H1582 0.929 . S
C1586 C1588 1.378 . S
C1586 C1590 1.350 . S
C1587 C1590 1.463 . S
C1587 C1592 1.350 . S
C1587 N1595 1.427 . S
C1588 H1579 0.930 . S
C1588 C1586 1.378 . S
C1588 C1589 1.367 . S
C1589 C1588 1.367 . S
C1589 C1591 1.433 . S
C1590 C1586 1.350 . S
C1590 C1587 1.463 . S
C1590 N1594 1.427 . S
C1591 H1581 0.929 . S
C1591 C1589 1.433 . S
C1591 N1594 1.384 . S
C1592 H1583 0.929 . S
C1592 C1584 1.378 . S
C1592 C1587 1.350 . S
C1593 H1580 0.929 . S
C1593 C1585 1.433 . S
C1593 N1595 1.384 . S
N1594 C1590 1.427 . S
N1594 C1591 1.384 . S
N1595 C1587 1.427 . S
N1595 C1593 1.384 . S
H1596 C1602 0.930 . S
H1597 C1606 0.930 . S
H1598 C1611 0.929 . S
H1599 C1609 0.929 . S
H1600 C1604 0.929 . S
H1601 C1610 0.929 . S
C1602 H1596 0.930 . S
C1602 C1603 1.367 . S
C1602 C1610 1.378 . S
C1603 C1602 1.367 . S
C1603 C1611 1.433 . S
C1604 H1600 0.929 . S
C1604 C1606 1.378 . S
C1604 C1608 1.350 . S
C1605 C1608 1.463 . S
C1605 C1610 1.350 . S
C1605 N1613 1.427 . S
C1606 H1597 0.930 . S
C1606 C1604 1.378 . S
C1606 C1607 1.367 . S
C1607 C1606 1.367 . S
C1607 C1609 1.433 . S
C1608 C1604 1.350 . S
C1608 C1605 1.463 . S
C1608 N1612 1.427 . S
C1609 H1599 0.929 . S
C1609 C1607 1.433 . S
C1609 N1612 1.384 . S
C1610 H1601 0.929 . S
C1610 C1602 1.378 . S
C1610 C1605 1.350 . S
C1611 H1598 0.929 . S
C1611 C1603 1.433 . S
C1611 N1613 1.384 . S
N1612 C1608 1.427 . S
N1612 C1609 1.384 . S
N1613 C1605 1.427 . S
N1613 C1611 1.384 . S
H1614 C1620 0.930 . S
H1615 C1624 0.930 . S
H1616 C1629 0.929 . S
H1617 C1627 0.929 . S
H1618 C1622 0.929 . S
H1619 C1628 0.929 . S
C1620 H1614 0.930 . S
C1620 C1621 1.367 . S
C1620 C1628 1.378 . S
C1621 C1620 1.367 . S
C1621 C1629 1.433 . S
C1622 H1618 0.929 . S
C1622 C1624 1.378 . S
C1622 C1626 1.350 . S
C1623 C1626 1.463 . S
C1623 C1628 1.350 . S
C1623 N1631 1.427 . S
C1624 H1615 0.930 . S
C1624 C1622 1.378 . S
C1624 C1625 1.367 . S
C1625 C1624 1.367 . S
C1625 C1627 1.433 . S
C1626 C1622 1.350 . S
C1626 C1623 1.463 . S
C1626 N1630 1.427 . S
C1627 H1617 0.929 . S
C1627 C1625 1.433 . S
C1627 N1630 1.384 . S
C1628 H1619 0.929 . S
C1628 C1620 1.378 . S
C1628 C1623 1.350 . S
C1629 H1616 0.929 . S
C1629 C1621 1.433 . S
C1629 N1631 1.384 . S
N1630 C1626 1.427 . S
N1630 C1627 1.384 . S
N1631 C1623 1.427 . S
N1631 C1629 1.384 . S
H1632 C1638 0.930 . S
H1633 C1642 0.930 . S
H1634 C1647 0.929 . S
H1635 C1645 0.929 . S
H1636 C1640 0.929 . S
H1637 C1646 0.929 . S
C1638 H1632 0.930 . S
C1638 C1639 1.367 . S
C1638 C1646 1.378 . S
C1639 C1638 1.367 . S
C1639 C1647 1.433 . S
C1640 H1636 0.929 . S
C1640 C1642 1.378 . S
C1640 C1644 1.350 . S
C1641 C1644 1.463 . S
C1641 C1646 1.350 . S
C1641 N1649 1.427 . S
C1642 H1633 0.930 . S
C1642 C1640 1.378 . S
C1642 C1643 1.367 . S
C1643 C1642 1.367 . S
C1643 C1645 1.433 . S
C1644 C1640 1.350 . S
C1644 C1641 1.463 . S
C1644 N1648 1.427 . S
C1645 H1635 0.929 . S
C1645 C1643 1.433 . S
C1645 N1648 1.384 . S
C1646 H1637 0.929 . S
C1646 C1638 1.378 . S
C1646 C1641 1.350 . S
C1647 H1634 0.929 . S
C1647 C1639 1.433 . S
C1647 N1649 1.384 . S
N1648 C1644 1.427 . S
N1648 C1645 1.384 . S
N1649 C1641 1.427 . S
N1649 C1647 1.384 . S
H1650 C1656 0.930 . S
H1651 C1660 0.930 . S
H1652 C1665 0.929 . S
H1653 C1663 0.929 . S
H1654 C1658 0.929 . S
H1655 C1664 0.929 . S
C1656 H1650 0.930 . S
C1656 C1657 1.367 . S
C1656 C1664 1.378 . S
C1657 C1656 1.367 . S
C1657 C1665 1.433 . S
C1658 H1654 0.929 . S
C1658 C1660 1.378 . S
C1658 C1662 1.350 . S
C1659 C1662 1.463 . S
C1659 C1664 1.350 . S
C1659 N1667 1.427 . S
C1660 H1651 0.930 . S
C1660 C1658 1.378 . S
C1660 C1661 1.367 . S
C1661 C1660 1.367 . S
C1661 C1663 1.433 . S
C1662 C1658 1.350 . S
C1662 C1659 1.463 . S
C1662 N1666 1.427 . S
C1663 H1653 0.929 . S
C1663 C1661 1.433 . S
C1663 N1666 1.384 . S
C1664 H1655 0.929 . S
C1664 C1656 1.378 . S
C1664 C1659 1.350 . S
C1665 H1652 0.929 . S
C1665 C1657 1.433 . S
C1665 N1667 1.384 . S
N1666 C1662 1.427 . S
N1666 C1663 1.384 . S
N1667 C1659 1.427 . S
N1667 C1665 1.384 . S
H1668 C1674 0.930 . S
H1669 C1678 0.930 . S
H1670 C1683 0.929 . S
H1671 C1681 0.929 . S
H1672 C1676 0.929 . S
H1673 C1682 0.929 . S
C1674 H1668 0.930 . S
C1674 C1675 1.367 . S
C1674 C1682 1.378 . S
C1675 C1674 1.367 . S
C1675 C1683 1.433 . S
C1676 H1672 0.929 . S
C1676 C1678 1.378 . S
C1676 C1680 1.350 . S
C1677 C1680 1.463 . S
C1677 C1682 1.350 . S
C1677 N1685 1.427 . S
C1678 H1669 0.930 . S
C1678 C1676 1.378 . S
C1678 C1679 1.367 . S
C1679 C1678 1.367 . S
C1679 C1681 1.433 . S
C1680 C1676 1.350 . S
C1680 C1677 1.463 . S
C1680 N1684 1.427 . S
C1681 H1671 0.929 . S
C1681 C1679 1.433 . S
C1681 N1684 1.384 . S
C1682 H1673 0.929 . S
C1682 C1674 1.378 . S
C1682 C1677 1.350 . S
C1683 H1670 0.929 . S
C1683 C1675 1.433 . S
C1683 N1685 1.384 . S
N1684 C1680 1.427 . S
N1684 C1681 1.384 . S
N1685 C1677 1.427 . S
N1685 C1683 1.384 . S
H1686 C1692 0.930 . S
H1687 C1696 0.930 . S
H1688 C1701 0.929 . S
H1689 C1699 0.929 . S
H1690 C1694 0.929 . S
H1691 C1700 0.929 . S
C1692 H1686 0.930 . S
C1692 C1693 1.367 . S
C1692 C1700 1.378 . S
C1693 C1692 1.367 . S
C1693 C1701 1.433 . S
C1694 H1690 0.929 . S
C1694 C1696 1.378 . S
C1694 C1698 1.350 . S
C1695 C1698 1.463 . S
C1695 C1700 1.350 . S
C1695 N1703 1.427 . S
C1696 H1687 0.930 . S
C1696 C1694 1.378 . S
C1696 C1697 1.367 . S
C1697 C1696 1.367 . S
C1697 C1699 1.433 . S
C1698 C1694 1.350 . S
C1698 C1695 1.463 . S
C1698 N1702 1.427 . S
C1699 H1689 0.929 . S
C1699 C1697 1.433 . S
C1699 N1702 1.384 . S
C1700 H1691 0.929 . S
C1700 C1692 1.378 . S
C1700 C1695 1.350 . S
C1701 H1688 0.929 . S
C1701 C1693 1.433 . S
C1701 N1703 1.384 . S
N1702 C1698 1.427 . S
N1702 C1699 1.384 . S
N1703 C1695 1.427 . S
N1703 C1701 1.384 . S
H1704 C1710 0.930 . S
H1705 C1714 0.930 . S
H1706 C1719 0.929 . S
H1707 C1717 0.929 . S
H1708 C1712 0.929 . S
H1709 C1718 0.929 . S
C1710 H1704 0.930 . S
C1710 C1711 1.367 . S
C1710 C1718 1.378 . S
C1711 C1710 1.367 . S
C1711 C1719 1.433 . S
C1712 H1708 0.929 . S
C1712 C1714 1.378 . S
C1712 C1716 1.350 . S
C1713 C1716 1.463 . S
C1713 C1718 1.350 . S
C1713 N1721 1.427 . S
C1714 H1705 0.930 . S
C1714 C1712 1.378 . S
C1714 C1715 1.367 . S
C1715 C1714 1.367 . S
C1715 C1717 1.433 . S
C1716 C1712 1.350 . S
C1716 C1713 1.463 . S
C1716 N1720 1.427 . S
C1717 H1707 0.929 . S
C1717 C1715 1.433 . S
C1717 N1720 1.384 . S
C1718 H1709 0.929 . S
C1718 C1710 1.378 . S
C1718 C1713 1.350 . S
C1719 H1706 0.929 . S
C1719 C1711 1.433 . S
C1719 N1721 1.384 . S
N1720 C1716 1.427 . S
N1720 C1717 1.384 . S
N1721 C1713 1.427 . S
N1721 C1719 1.384 . S
H1722 C1728 0.930 . S
H1723 C1732 0.930 . S
H1724 C1737 0.929 . S
H1725 C1735 0.929 . S
H1726 C1730 0.929 . S
H1727 C1736 0.929 . S
C1728 H1722 0.930 . S
C1728 C1729 1.367 . S
C1728 C1736 1.378 . S
C1729 C1728 1.367 . S
C1729 C1737 1.433 . S
C1730 H1726 0.929 . S
C1730 C1732 1.378 . S
C1730 C1734 1.350 . S
C1731 C1734 1.463 . S
C1731 C1736 1.350 . S
C1731 N1739 1.427 . S
C1732 H1723 0.930 . S
C1732 C1730 1.378 . S
C1732 C1733 1.367 . S
C1733 C1732 1.367 . S
C1733 C1735 1.433 . S
C1734 C1730 1.350 . S
C1734 C1731 1.463 . S
C1734 N1738 1.427 . S
C1735 H1725 0.929 . S
C1735 C1733 1.433 . S
C1735 N1738 1.384 . S
C1736 H1727 0.929 . S
C1736 C1728 1.378 . S
C1736 C1731 1.350 . S
C1737 H1724 0.929 . S
C1737 C1729 1.433 . S
C1737 N1739 1.384 . S
N1738 C1734 1.427 . S
N1738 C1735 1.384 . S
N1739 C1731 1.427 . S
N1739 C1737 1.384 . S
H1740 C1746 0.930 . S
H1741 C1750 0.930 . S
H1742 C1755 0.929 . S
H1743 C1753 0.929 . S
H1744 C1748 0.929 . S
H1745 C1754 0.929 . S
C1746 H1740 0.930 . S
C1746 C1747 1.367 . S
C1746 C1754 1.378 . S
C1747 C1746 1.367 . S
C1747 C1755 1.433 . S
C1748 H1744 0.929 . S
C1748 C1750 1.378 . S
C1748 C1752 1.350 . S
C1749 C1752 1.463 . S
C1749 C1754 1.350 . S
C1749 N1757 1.427 . S
C1750 H1741 0.930 . S
C1750 C1748 1.378 . S
C1750 C1751 1.367 . S
C1751 C1750 1.367 . S
C1751 C1753 1.433 . S
C1752 C1748 1.350 . S
C1752 C1749 1.463 . S
C1752 N1756 1.427 . S
C1753 H1743 0.929 . S
C1753 C1751 1.433 . S
C1753 N1756 1.384 . S
C1754 H1745 0.929 . S
C1754 C1746 1.378 . S
C1754 C1749 1.350 . S
C1755 H1742 0.929 . S
C1755 C1747 1.433 . S
C1755 N1757 1.384 . S
N1756 C1752 1.427 . S
N1756 C1753 1.384 . S
N1757 C1749 1.427 . S
N1757 C1755 1.384 . S
H1758 C1764 0.930 . S
H1759 C1768 0.930 . S
H1760 C1773 0.929 . S
H1761 C1771 0.929 . S
H1762 C1766 0.929 . S
H1763 C1772 0.929 . S
C1764 H1758 0.930 . S
C1764 C1765 1.367 . S
C1764 C1772 1.378 . S
C1765 C1764 1.367 . S
C1765 C1773 1.433 . S
C1766 H1762 0.929 . S
C1766 C1768 1.378 . S
C1766 C1770 1.350 . S
C1767 C1770 1.463 . S
C1767 C1772 1.350 . S
C1767 N1775 1.427 . S
C1768 H1759 0.930 . S
C1768 C1766 1.378 . S
C1768 C1769 1.367 . S
C1769 C1768 1.367 . S
C1769 C1771 1.433 . S
C1770 C1766 1.350 . S
C1770 C1767 1.463 . S
C1770 N1774 1.427 . S
C1771 H1761 0.929 . S
C1771 C1769 1.433 . S
C1771 N1774 1.384 . S
C1772 H1763 0.929 . S
C1772 C1764 1.378 . S
C1772 C1767 1.350 . S
C1773 H1760 0.929 . S
C1773 C1765 1.433 . S
C1773 N1775 1.384 . S
N1774 C1770 1.427 . S
N1774 C1771 1.384 . S
N1775 C1767 1.427 . S
N1775 C1773 1.384 . S
C487 C13 2.851 . S
C491 C328 2.694 . S
C505 C33 2.853 . S
C509 C477 2.683 . S
C523 C428 2.686 . S
C527 C53 2.851 . S
C541 C73 2.851 . S
C545 C448 2.695 . S
C559 C93 2.850 . S
C563 C348 2.694 . S
C577 C113 2.854 . S
C581 C368 2.686 . S
C595 C133 2.853 . S
C599 C388 2.686 . S
C613 C153 2.850 . S
C617 C417 2.693 . S
C631 C173 2.853 . S
C635 C8 2.687 . S
C649 C193 2.850 . S
C653 C28 2.690 . S
C667 C48 2.685 . S
C671 C213 2.853 . S
C685 C68 2.684 . S
C689 C233 2.854 . S
C703 C253 2.854 . S
C707 C88 2.688 . S
C721 C262 2.853 . S
C725 C108 2.690 . S
C739 C293 2.854 . S
C743 C128 2.685 . S
C757 C313 2.850 . S
C761 C148 2.694 . S
C775 C333 2.851 . S
C779 C168 2.694 . S
C793 C353 2.853 . S
C797 C248 2.688 . S
C811 C277 2.687 . S
C815 C373 2.851 . S
C829 C393 2.850 . S
C833 C288 2.694 . S
C847 C402 2.851 . S
C851 C308 2.694 . S
C865 C433 2.850 . S
C869 C208 2.694 . S
C883 C228 2.687 . S
C887 C453 2.850 . S
C901 C462 2.852 . S
C905 C188 2.694 . S
C919 C437 1.520 . S
C923 C94 1.514 . S
C937 C457 1.512 . S
C941 C114 1.514 . S
C955 C134 1.518 . S
C959 C337 1.516 . S
C973 C154 1.520 . S
C977 C468 1.510 . S
C991 C397 1.516 . S
C995 C14 1.518 . S
C1009 C34 1.519 . S
C1013 C408 1.509 . S
C1027 C357 1.527 . S
C1031 C54 1.505 . S
C1045 C74 1.520 . S
C1049 C377 1.510 . S
C1063 C294 1.520 . S
C1067 C97 1.512 . S
C1081 C314 1.502 . S
C1085 C117 1.527 . S
C1099 C254 1.502 . S
C1103 C137 1.524 . S
C1117 C157 1.511 . S
C1121 C265 1.515 . S
C1135 C214 1.509 . S
C1139 C17 1.517 . S
C1153 C234 1.505 . S
C1157 C37 1.520 . S
C1171 C174 1.509 . S
C1175 C57 1.525 . S
C1189 C194 1.513 . S
C1193 C77 1.512 . S
C1207 C297 1.527 . S
C1211 C434 1.505 . S
C1225 C394 1.503 . S
C1229 C217 1.522 . S
C1243 C237 1.522 . S
C1247 C405 1.504 . S
C1261 C354 1.506 . S
C1265 C177 1.519 . S
C1279 C374 1.504 . S
C1283 C197 1.527 . S
C1297 C334 1.521 . S
C1301 C257 1.511 . S
C1315 C465 1.517 . S
C1319 C268 1.517 . S
C1333 C317 1.515 . S
C1337 C454 1.519 . S
C1351 C414 0.689 . S
C1355 C5 0.700 . S
C1369 C345 0.664 . S
C1373 C25 0.695 . S
C1387 C45 0.701 . S
C1391 C365 0.685 . S
C1405 C65 0.657 . S
C1409 C385 0.679 . S
C1423 C474 0.693 . S
C1427 C85 0.698 . S
C1441 C105 0.659 . S
C1445 C425 0.688 . S
C1459 C445 0.672 . S
C1463 C125 0.658 . S
C1477 C145 0.668 . S
C1481 C325 0.660 . S
C1495 C165 0.701 . S
C1499 C305 0.676 . S
C1513 C245 0.663 . S
C1517 C185 0.663 . S
C1531 C205 0.702 . S
C1535 C274 0.683 . S
C1549 C285 0.669 . S
C1553 C225 0.659 . S
C1567 C362 3.324 . S
C1571 C82 3.326 . S
C1585 C382 3.325 . S
C1589 C102 3.323 . S
C1603 C122 3.323 . S
C1607 C413 3.323 . S
C1621 C142 3.326 . S
C1625 C342 3.325 . S
C1639 C442 3.324 . S
C1643 C2 3.326 . S
C1657 C322 3.323 . S
C1661 C22 3.325 . S
C1675 C473 3.326 . S
C1679 C42 3.324 . S
C1693 C62 3.323 . S
C1697 C422 3.324 . S
C1711 C182 3.324 . S
C1715 C282 3.324 . S
C1729 C302 3.324 . S
C1733 C202 3.323 . S
C1747 C242 3.324 . S
C1751 C222 3.326 . S
C1765 C273 3.323 . S
C1769 C162 3.325 . S
