# Generated by pormake.
# Topology wnm, (7)-cn, num edge types: 1
# Building blocks:
#     Node 0, Type 0, BuildingBlock: HICVOG_clean_sbu_0, # of connection points: 7
#     Node 1, Type 0, BuildingBlock: HICVOG_clean_sbu_0, # of connection points: 7
#     Node 2, Type 0, BuildingBlock: HICVOG_clean_sbu_0, # of connection points: 7
#     Node 3, Type 0, BuildingBlock: HICVOG_clean_sbu_0, # of connection points: 7
#     Node 4, Type 0, BuildingBlock: HICVOG_clean_sbu_0, # of connection points: 7
#     Node 5, Type 0, BuildingBlock: HICVOG_clean_sbu_0, # of connection points: 7
#     Node 6, Type 0, BuildingBlock: HICVOG_clean_sbu_0, # of connection points: 7
#     Node 7, Type 0, BuildingBlock: HICVOG_clean_sbu_0, # of connection points: 7
#     Node 8, Type 0, BuildingBlock: HICVOG_clean_sbu_0, # of connection points: 7
#     Node 9, Type 0, BuildingBlock: HICVOG_clean_sbu_0, # of connection points: 7
#     Node 10, Type 0, BuildingBlock: HICVOG_clean_sbu_0, # of connection points: 7
#     Node 11, Type 0, BuildingBlock: HICVOG_clean_sbu_0, # of connection points: 7
#     Node 12, Type 0, BuildingBlock: HICVOG_clean_sbu_0, # of connection points: 7
#     Node 13, Type 0, BuildingBlock: HICVOG_clean_sbu_0, # of connection points: 7
#     Node 14, Type 0, BuildingBlock: HICVOG_clean_sbu_0, # of connection points: 7
#     Node 15, Type 0, BuildingBlock: HICVOG_clean_sbu_0, # of connection points: 7
#     Node 16, Type 0, BuildingBlock: HICVOG_clean_sbu_0, # of connection points: 7
#     Node 17, Type 0, BuildingBlock: HICVOG_clean_sbu_0, # of connection points: 7
#     Edge 18, Type (0, 0), BuildingBlock: ZUJKAS_clean_linker_0, # of connection points: 2
#     Edge 19, Type (0, 0), BuildingBlock: ZUJKAS_clean_linker_0, # of connection points: 2
#     Edge 20, Type (0, 0), BuildingBlock: ZUJKAS_clean_linker_0, # of connection points: 2
#     Edge 21, Type (0, 0), BuildingBlock: ZUJKAS_clean_linker_0, # of connection points: 2
#     Edge 22, Type (0, 0), BuildingBlock: ZUJKAS_clean_linker_0, # of connection points: 2
#     Edge 23, Type (0, 0), BuildingBlock: ZUJKAS_clean_linker_0, # of connection points: 2
#     Edge 24, Type (0, 0), BuildingBlock: ZUJKAS_clean_linker_0, # of connection points: 2
#     Edge 25, Type (0, 0), BuildingBlock: ZUJKAS_clean_linker_0, # of connection points: 2
#     Edge 26, Type (0, 0), BuildingBlock: ZUJKAS_clean_linker_0, # of connection points: 2
#     Edge 27, Type (0, 0), BuildingBlock: ZUJKAS_clean_linker_0, # of connection points: 2
#     Edge 28, Type (0, 0), BuildingBlock: ZUJKAS_clean_linker_0, # of connection points: 2
#     Edge 29, Type (0, 0), BuildingBlock: ZUJKAS_clean_linker_0, # of connection points: 2
#     Edge 30, Type (0, 0), BuildingBlock: ZUJKAS_clean_linker_0, # of connection points: 2
#     Edge 31, Type (0, 0), BuildingBlock: ZUJKAS_clean_linker_0, # of connection points: 2
#     Edge 32, Type (0, 0), BuildingBlock: ZUJKAS_clean_linker_0, # of connection points: 2
#     Edge 33, Type (0, 0), BuildingBlock: ZUJKAS_clean_linker_0, # of connection points: 2
#     Edge 34, Type (0, 0), BuildingBlock: ZUJKAS_clean_linker_0, # of connection points: 2
#     Edge 35, Type (0, 0), BuildingBlock: ZUJKAS_clean_linker_0, # of connection points: 2
#     Edge 36, Type (0, 0), BuildingBlock: ZUJKAS_clean_linker_0, # of connection points: 2
#     Edge 37, Type (0, 0), BuildingBlock: ZUJKAS_clean_linker_0, # of connection points: 2
#     Edge 38, Type (0, 0), BuildingBlock: ZUJKAS_clean_linker_0, # of connection points: 2
#     Edge 39, Type (0, 0), BuildingBlock: ZUJKAS_clean_linker_0, # of connection points: 2
#     Edge 40, Type (0, 0), BuildingBlock: ZUJKAS_clean_linker_0, # of connection points: 2
#     Edge 41, Type (0, 0), BuildingBlock: ZUJKAS_clean_linker_0, # of connection points: 2
#     Edge 42, Type (0, 0), BuildingBlock: ZUJKAS_clean_linker_0, # of connection points: 2
#     Edge 43, Type (0, 0), BuildingBlock: ZUJKAS_clean_linker_0, # of connection points: 2
#     Edge 44, Type (0, 0), BuildingBlock: ZUJKAS_clean_linker_0, # of connection points: 2
#     Edge 45, Type (0, 0), BuildingBlock: ZUJKAS_clean_linker_0, # of connection points: 2
#     Edge 46, Type (0, 0), BuildingBlock: ZUJKAS_clean_linker_0, # of connection points: 2
#     Edge 47, Type (0, 0), BuildingBlock: ZUJKAS_clean_linker_0, # of connection points: 2
#     Edge 48, Type (0, 0), BuildingBlock: ZUJKAS_clean_linker_0, # of connection points: 2
#     Edge 49, Type (0, 0), BuildingBlock: ZUJKAS_clean_linker_0, # of connection points: 2
#     Edge 50, Type (0, 0), BuildingBlock: ZUJKAS_clean_linker_0, # of connection points: 2
#     Edge 51, Type (0, 0), BuildingBlock: ZUJKAS_clean_linker_0, # of connection points: 2
#     Edge 52, Type (0, 0), BuildingBlock: ZUJKAS_clean_linker_0, # of connection points: 2
#     Edge 53, Type (0, 0), BuildingBlock: ZUJKAS_clean_linker_0, # of connection points: 2
#     Edge 54, Type (0, 0), BuildingBlock: ZUJKAS_clean_linker_0, # of connection points: 2
#     Edge 55, Type (0, 0), BuildingBlock: ZUJKAS_clean_linker_0, # of connection points: 2
#     Edge 56, Type (0, 0), BuildingBlock: ZUJKAS_clean_linker_0, # of connection points: 2
#     Edge 57, Type (0, 0), BuildingBlock: ZUJKAS_clean_linker_0, # of connection points: 2
#     Edge 58, Type (0, 0), BuildingBlock: ZUJKAS_clean_linker_0, # of connection points: 2
#     Edge 59, Type (0, 0), BuildingBlock: ZUJKAS_clean_linker_0, # of connection points: 2
#     Edge 60, Type (0, 0), BuildingBlock: ZUJKAS_clean_linker_0, # of connection points: 2
#     Edge 61, Type (0, 0), BuildingBlock: ZUJKAS_clean_linker_0, # of connection points: 2
#     Edge 62, Type (0, 0), BuildingBlock: ZUJKAS_clean_linker_0, # of connection points: 2
#     Edge 63, Type (0, 0), BuildingBlock: ZUJKAS_clean_linker_0, # of connection points: 2
#     Edge 64, Type (0, 0), BuildingBlock: ZUJKAS_clean_linker_0, # of connection points: 2
#     Edge 65, Type (0, 0), BuildingBlock: ZUJKAS_clean_linker_0, # of connection points: 2
#     Edge 66, Type (0, 0), BuildingBlock: ZUJKAS_clean_linker_0, # of connection points: 2
#     Edge 67, Type (0, 0), BuildingBlock: ZUJKAS_clean_linker_0, # of connection points: 2
#     Edge 68, Type (0, 0), BuildingBlock: ZUJKAS_clean_linker_0, # of connection points: 2
#     Edge 69, Type (0, 0), BuildingBlock: ZUJKAS_clean_linker_0, # of connection points: 2
#     Edge 70, Type (0, 0), BuildingBlock: ZUJKAS_clean_linker_0, # of connection points: 2
#     Edge 71, Type (0, 0), BuildingBlock: ZUJKAS_clean_linker_0, # of connection points: 2
#     Edge 72, Type (0, 0), BuildingBlock: ZUJKAS_clean_linker_0, # of connection points: 2
#     Edge 73, Type (0, 0), BuildingBlock: ZUJKAS_clean_linker_0, # of connection points: 2
#     Edge 74, Type (0, 0), BuildingBlock: ZUJKAS_clean_linker_0, # of connection points: 2
#     Edge 75, Type (0, 0), BuildingBlock: ZUJKAS_clean_linker_0, # of connection points: 2
#     Edge 76, Type (0, 0), BuildingBlock: ZUJKAS_clean_linker_0, # of connection points: 2
#     Edge 77, Type (0, 0), BuildingBlock: ZUJKAS_clean_linker_0, # of connection points: 2
#     Edge 78, Type (0, 0), BuildingBlock: ZUJKAS_clean_linker_0, # of connection points: 2
#     Edge 79, Type (0, 0), BuildingBlock: ZUJKAS_clean_linker_0, # of connection points: 2
#     Edge 80, Type (0, 0), BuildingBlock: ZUJKAS_clean_linker_0, # of connection points: 2
# Relax obj value: 0.132
# Max RMSD: 0.193
# Mean RMSD: 0.193
data_MOF--net-wnm--node1-HICVOG_clean_sbu_0--edge1-ZUJKAS_clean_linker_0
_symmetry_space_group_name_H-M    P1
_symmetry_Int_Tables_number       1
_symmetry_cell_setting            triclinic
loop_
_symmetry_equiv_pos_as_xyz
'x, y, z'
_cell_length_a     89.152498
_cell_length_b     89.171356
_cell_length_c     25.186155
_cell_angle_alpha  89.97258
_cell_angle_beta   90.046205
_cell_angle_gamma 119.99253
loop_
_atom_site_label
_atom_site_type_symbol
_atom_site_fract_x
_atom_site_fract_y
_atom_site_fract_z
_atom_type_partial_charge
Zn0 Zn 0.12739 0.43597 0.16003 0.0
C1 C 0.09815 0.39844 0.26565 0.0
N2 N 0.08528 0.39683 0.23424 0.0
C3 C 0.09345 0.4105 0.20157 0.0
N4 N 0.11062 0.41986 0.21152 0.0
N5 N 0.1135 0.41234 0.25257 0.0
C6 C 0.14206 0.39593 0.29055 0.0
O7 O 0.14198 0.40029 0.24074 0.0
O8 O 0.12484 0.45744 0.15329 0.0
Zn9 Zn 0.13405 0.42191 0.29557 0.0
N10 N 0.12125 0.42289 0.09414 0.0
C11 C 0.11051 0.3948 0.05708 0.0
C12 C 0.11589 0.4058 0.10071 0.0
C13 C 0.12212 0.42963 0.04486 0.0
N14 N 0.11117 0.4014 0.00815 0.0
C15 C 0.11697 0.41855 1.00033 0.0
O16 O 0.1558 0.43592 0.25471 0.0
C17 C 0.16232 0.44299 0.21052 0.0
O18 O 0.15294 0.44323 0.17266 0.0
H19 H 0.11565 0.40069 0.13982 0.0
H20 H 0.12659 0.4433 0.04062 0.0
C21 C 0.13291 0.43434 0.402 0.0
C22 C 0.1313 0.44575 0.43734 0.0
C23 C 0.12873 0.46092 0.36331 0.0
C24 C 0.13017 0.44953 0.32883 0.0
N25 N 0.13229 0.43656 0.34869 0.0
N26 N 0.12931 0.45876 0.41641 0.0
H27 H 0.13482 0.42397 0.41615 0.0
C28 C 0.13543 0.47151 0.1765 0.0
O29 O 0.14822 0.47209 0.20407 0.0
O30 O 0.13766 0.40306 0.32632 0.0
H31 H 0.12959 0.45096 0.28637 0.0
H32 H 0.10596 0.38114 0.06193 0.0
H33 H 0.1271 0.47136 0.34807 0.0
Zn34 Zn 0.57144 0.69229 0.17004 0.0
C35 C 0.60951 0.6986 0.26906 0.0
N36 N 0.61019 0.68728 0.23547 0.0
C37 C 0.59575 0.68193 0.20643 0.0
N38 N 0.58694 0.69001 0.21999 0.0
N39 N 0.59545 0.7002 0.26055 0.0
C40 C 0.61888 0.7447 0.29672 0.0
O41 O 0.61558 0.7395 0.2471 0.0
O42 O 0.55002 0.66874 0.15772 0.0
Zn43 Zn 0.58844 0.71317 0.30427 0.0
N44 N 0.58526 0.70091 0.10615 0.0
C45 C 0.61322 0.72146 0.07423 0.0
C46 C 0.60161 0.71402 0.11588 0.0
C47 C 0.57985 0.6951 0.05581 0.0
N48 N 0.60792 0.71575 0.02416 0.0
C49 C 0.59152 0.70283 0.01315 0.0
O50 O 0.57576 0.72265 0.26468 0.0
C51 C 0.56733 0.7217 0.22302 0.0
O52 O 0.56473 0.71074 0.18658 0.0
H53 H 0.60561 0.71857 0.15599 0.0
H54 H 0.56677 0.68461 0.04946 0.0
C55 C 0.5767 0.70073 0.41205 0.0
C56 C 0.56457 0.68891 0.44859 0.0
C57 C 0.54663 0.67243 0.37662 0.0
C58 C 0.5587 0.68409 0.34081 0.0
N59 N 0.57337 0.69803 0.35907 0.0
N60 N 0.54982 0.67512 0.42942 0.0
H61 H 0.58846 0.71206 0.42524 0.0
C62 C 0.53621 0.66438 0.18377 0.0
O63 O 0.53589 0.67552 0.21717 0.0
O64 O 0.60909 0.73462 0.33293 0.0
H65 H 0.55645 0.68215 0.29859 0.0
H66 H 0.62632 0.73179 0.08152 0.0
H67 H 0.53483 0.66132 0.36262 0.0
Zn68 Zn 0.31624 0.88135 0.16805 0.0
C69 C 0.30879 0.91401 0.25908 0.0
N70 N 0.32037 0.92564 0.22515 0.0
C71 C 0.3261 0.91632 0.19924 0.0
N72 N 0.31806 0.89964 0.21503 0.0
N73 N 0.30745 0.89833 0.25385 0.0
C74 C 0.26308 0.87747 0.29017 0.0
O75 O 0.26815 0.87833 0.24074 0.0
O76 O 0.33999 0.88356 0.15863 0.0
Zn77 Zn 0.29458 0.87878 0.29957 0.0
N78 N 0.30761 0.8857 0.10251 0.0
C79 C 0.2862 0.89175 0.06945 0.0
C80 C 0.29391 0.88808 0.11148 0.0
C81 C 0.31377 0.88648 0.05242 0.0
N82 N 0.29228 0.89258 0.01968 0.0
C83 C 0.3058 0.88997 0.00934 0.0
O84 O 0.28512 0.85617 0.2623 0.0
C85 C 0.28646 0.84828 0.22228 0.0
O86 O 0.29785 0.85628 0.18652 0.0
H87 H 0.2891 0.88724 0.15137 0.0
H88 H 0.32473 0.88459 0.04656 0.0
C89 C 0.30717 0.87959 0.40783 0.0
C90 C 0.31937 0.87975 0.44396 0.0
C91 C 0.33647 0.87993 0.37136 0.0
C92 C 0.32446 0.87986 0.33598 0.0
N93 N 0.31003 0.87955 0.3547 0.0
N94 N 0.33364 0.87984 0.42426 0.0
H95 H 0.29548 0.8792 0.42144 0.0
C96 C 0.34414 0.87433 0.18686 0.0
O97 O 0.3327 0.86312 0.2202 0.0
O98 O 0.27316 0.87826 0.32722 0.0
H99 H 0.32652 0.88 0.29369 0.0
H100 H 0.2754 0.89384 0.07618 0.0
H101 H 0.34797 0.88007 0.35695 0.0
Zn102 Zn 0.87821 0.5848 0.70905 0.0
C103 C 0.91828 0.59447 0.80332 0.0
N104 N 0.92689 0.60805 0.77054 0.0
C105 C 0.91426 0.60686 0.73879 0.0
N106 N 0.89867 0.59333 0.75182 0.0
N107 N 0.9011 0.5856 0.79314 0.0
C108 C 0.87542 0.53495 0.834 0.0
O109 O 0.86292 0.5345 0.80519 0.0
O110 O 0.87587 0.60449 0.67934 0.0
Zn111 Zn 0.88394 0.57055 0.84528 0.0
N112 N 0.87908 0.56993 0.65511 0.0
C113 C 0.87878 0.5436 0.63787 0.0
C114 C 0.87817 0.55519 0.67348 0.0
C115 C 0.88069 0.57371 0.60233 0.0
N116 N 0.88029 0.54724 0.58522 0.0
C117 C 0.88123 0.56197 0.56587 0.0
O118 O 0.85846 0.56336 0.83078 0.0
C119 C 0.84937 0.564 0.79269 0.0
O120 O 0.85621 0.57124 0.74899 0.0
H121 H 0.87706 0.55257 0.71562 0.0
H122 H 0.88181 0.5858 0.58956 0.0
C123 C 0.88818 0.57884 0.95935 0.0
C124 C 0.89166 0.59043 0.00186 0.0
C125 C 0.89855 0.61311 0.94012 0.0
C126 C 0.89474 0.60158 0.89839 0.0
N127 N 0.88976 0.58475 0.90856 0.0
N128 N 0.89681 0.60726 0.99062 0.0
H129 H 0.8837 0.56528 0.9663 0.0
C130 C 0.87176 0.6118 0.71532 0.0
O131 O 0.87118 0.6069 0.76486 0.0
O132 O 0.88611 0.54907 0.85674 0.0
H133 H 0.89554 0.606 0.85797 0.0
H134 H 0.87809 0.5318 0.6519 0.0
H135 H 0.90257 0.62654 0.93252 0.0
Zn136 Zn 0.4243 0.29455 0.69508 0.0
C137 C 0.41755 0.32663 0.78957 0.0
N138 N 0.40359 0.32193 0.75862 0.0
C139 C 0.40358 0.30968 0.72769 0.0
N140 N 0.4168 0.30697 0.73949 0.0
N141 N 0.42547 0.31742 0.77933 0.0
C142 C 0.47567 0.34312 0.8156 0.0
O143 O 0.4757 0.33221 0.78063 0.0
O144 O 0.40389 0.27318 0.66558 0.0
Zn145 Zn 0.44074 0.31497 0.82988 0.0
N146 N 0.43899 0.31017 0.64042 0.0
C147 C 0.46464 0.33685 0.62279 0.0
C148 C 0.45297 0.32482 0.65864 0.0
C149 C 0.43597 0.30711 0.58742 0.0
N150 N 0.46176 0.33382 0.56998 0.0
C151 C 0.44769 0.31932 0.55083 0.0
O152 O 0.44788 0.29682 0.81275 0.0
C153 C 0.44581 0.28623 0.77559 0.0
O154 O 0.43756 0.28541 0.73361 0.0
H155 H 0.45497 0.32705 0.70085 0.0
H156 H 0.42477 0.29523 0.57429 0.0
C157 C 0.432 0.31148 0.94381 0.0
C158 C 0.42022 0.30352 0.98609 0.0
C159 C 0.39863 0.28536 0.92403 0.0
C160 C 0.41034 0.29303 0.88273 0.0
N161 N 0.42669 0.30602 0.89315 0.0
N162 N 0.40383 0.29073 0.97442 0.0
H163 H 0.44509 0.32188 0.95069 0.0
C164 C 0.3962 0.2618 0.70137 0.0
O165 O 0.40145 0.26573 0.7508 0.0
O166 O 0.46208 0.33854 0.8431 0.0
H167 H 0.40641 0.28873 0.84236 0.0
H168 H 0.47589 0.34853 0.63677 0.0
H169 H 0.38553 0.27512 0.91622 0.0
Zn170 Zn 0.71569 0.12928 0.71008 0.0
C171 C 0.68429 0.09172 0.81034 0.0
N172 N 0.68991 0.08235 0.78419 0.0
C173 C 0.70155 0.09399 0.75042 0.0
N174 N 0.70296 0.1097 0.75573 0.0
N175 N 0.69238 0.10841 0.79465 0.0
C176 C 0.66727 0.13492 0.82908 0.0
O177 O 0.67924 0.1473 0.79974 0.0
O178 O 0.73726 0.13025 0.68174 0.0
Zn179 Zn 0.69448 0.12653 0.84268 0.0
N180 N 0.7002 0.1288 0.65554 0.0
C181 C 0.67426 0.12942 0.6392 0.0
C182 C 0.68617 0.12925 0.67447 0.0
C183 C 0.70279 0.12835 0.60239 0.0
N184 N 0.67682 0.12908 0.58626 0.0
C185 C 0.69071 0.12848 0.56637 0.0
O186 O 0.71301 0.15158 0.82495 0.0
C187 C 0.72412 0.15956 0.78852 0.0
O188 O 0.72512 0.15167 0.74801 0.0
H189 H 0.68438 0.12958 0.71682 0.0
H190 H 0.71422 0.12823 0.58869 0.0
C191 C 0.69702 0.12124 0.95809 0.0
C192 C 0.70477 0.11736 0.00093 0.0
C193 C 0.72377 0.11474 0.94035 0.0
C194 C 0.71628 0.11879 0.89852 0.0
N195 N 0.70297 0.12175 0.90783 0.0
N196 N 0.71788 0.11414 0.99025 0.0
H197 H 0.6864 0.12364 0.96429 0.0
C198 C 0.74763 0.13143 0.71837 0.0
O199 O 0.74257 0.13013 0.76798 0.0
O200 O 0.67083 0.12443 0.8526 0.0
H201 H 0.72097 0.11946 0.85854 0.0
H202 H 0.66307 0.12987 0.65371 0.0
H203 H 0.73425 0.11218 0.93334 0.0
Zn204 Zn 0.79506 0.77002 0.48989 0.0
C205 C 0.76418 0.73489 0.59848 0.0
N206 N 0.75167 0.73627 0.57316 0.0
C207 C 0.76077 0.74956 0.53974 0.0
N208 N 0.77801 0.7558 0.54345 0.0
N209 N 0.78009 0.74673 0.58138 0.0
C210 C 0.80641 0.72678 0.6121 0.0
O211 O 0.80751 0.73261 0.56349 0.0
O212 O 0.79266 0.79114 0.47422 0.0
Zn213 Zn 0.80044 0.75406 0.62401 0.0
N214 N 0.78959 0.75507 0.42843 0.0
C215 C 0.77963 0.72625 0.39919 0.0
C216 C 0.78339 0.73808 0.43998 0.0
C217 C 0.79263 0.76085 0.3773 0.0
N218 N 0.78263 0.73193 0.34833 0.0
C219 C 0.78911 0.74893 0.33566 0.0
O220 O 0.82266 0.76844 0.58557 0.0
C221 C 0.82958 0.77663 0.54309 0.0
O222 O 0.82053 0.77786 0.50591 0.0
H223 H 0.78145 0.73373 0.48073 0.0
H224 H 0.7982 0.77455 0.36975 0.0
C225 C 0.80096 0.76533 0.73365 0.0
C226 C 0.79946 0.77612 0.77176 0.0
C227 C 0.79452 0.79117 0.70209 0.0
C228 C 0.79586 0.7804 0.6649 0.0
N229 N 0.79911 0.76779 0.68119 0.0
N230 N 0.79633 0.78877 0.75432 0.0
H231 H 0.80371 0.75526 0.74498 0.0
C232 C 0.80031 0.80411 0.50516 0.0
O233 O 0.80969 0.80341 0.54428 0.0
O234 O 0.80227 0.73364 0.6494 0.0
H235 H 0.79427 0.782 0.62316 0.0
H236 H 0.77458 0.71268 0.40782 0.0
H237 H 0.79198 0.8013 0.68965 0.0
Zn238 Zn 0.23847 0.02449 0.49886 0.0
C239 C 0.27104 0.02813 0.61765 0.0
N240 N 0.26881 0.01322 0.59793 0.0
C241 C 0.25649 0.00906 0.5607 0.0
N242 N 0.2516 0.02123 0.55686 0.0
N243 N 0.26044 0.03283 0.59424 0.0
C244 C 0.28216 0.08136 0.61006 0.0
O245 O 0.2762 0.0758 0.56204 0.0
O246 O 0.21716 1.00122 0.48195 0.0
Zn247 Zn 0.25456 0.0484 0.62928 0.0
N248 N 0.25441 0.03441 0.43935 0.0
C249 C 0.28332 0.05479 0.4142 0.0
C250 C 0.27105 0.04581 0.45332 0.0
C251 C 0.24954 0.0315 0.38732 0.0
N252 N 0.27846 0.05216 0.36248 0.0
C253 C 0.26191 0.04071 0.34765 0.0
O254 O 0.24083 0.05564 0.58578 0.0
C255 C 0.23211 0.05342 0.54392 0.0
O256 O 0.23013 0.04207 0.50965 0.0
H257 H 0.27468 0.04816 0.49471 0.0
H258 H 0.23615 0.02261 0.37717 0.0
C259 C 0.24583 0.03923 0.74148 0.0
C260 C 0.23368 0.0312 0.78262 0.0
C261 C 0.21116 0.01838 0.71869 0.0
C262 C 0.22315 0.0265 0.6782 0.0
N263 N 0.24017 0.03683 0.69021 0.0
N264 N 0.21666 0.02104 0.76981 0.0
H265 H 0.25943 0.04771 0.75011 0.0
C266 C 0.20802 0.99272 0.52166 0.0
O267 O 0.21306 0.9993 0.56934 0.0
O268 O 0.27545 0.07105 0.64906 0.0
H269 H 0.2189 0.02488 0.63734 0.0
H270 H 0.29657 0.06398 0.42484 0.0
H271 H 0.19755 0.01023 0.70968 0.0
Zn272 Zn 0.98199 0.21353 0.49238 0.0
C273 C 0.97405 0.24565 0.58435 0.0
N274 N 0.9846 0.25728 0.54855 0.0
C275 C 0.99061 0.24839 0.52153 0.0
N276 N 0.98371 0.2319 0.5388 0.0
N277 N 0.97355 0.23035 0.57932 0.0
C278 C 0.92961 0.20783 0.62038 0.0
O279 O 0.93434 0.20881 0.5705 0.0
O280 O 1.00575 0.2158 0.48233 0.0
Zn281 Zn 0.96191 0.21095 0.62642 0.0
N282 N 0.97283 0.21723 0.42696 0.0
C283 C 0.95095 0.22253 0.39344 0.0
C284 C 0.95963 0.2204 0.43592 0.0
C285 C 0.97766 0.2159 0.3766 0.0
N286 N 0.95554 0.22101 0.34339 0.0
C287 C 0.96861 0.21769 0.33331 0.0
O288 O 0.95241 0.18817 0.59024 0.0
C289 C 0.95321 0.18037 0.54917 0.0
O290 O 0.96386 0.18853 0.51184 0.0
H291 H 0.95571 0.22104 0.47604 0.0
H292 H 0.9879 0.21291 0.37056 0.0
C293 C 0.97575 0.21301 0.73288 0.0
C294 C 0.98868 0.21452 0.76847 0.0
C295 C 1.00591 0.21559 0.6949 0.0
C296 C 0.99311 0.21409 0.66016 0.0
N297 N 0.9783 0.21276 0.67968 0.0
N298 N 1.00341 0.21579 0.74793 0.0
H299 H 0.96397 0.21238 0.74669 0.0
C300 C 0.01007 0.2067 0.51057 0.0
O301 O 0.99877 0.19553 0.54428 0.0
O302 O 0.94036 0.20961 0.65652 0.0
H303 H 0.99494 0.21412 0.61776 0.0
H304 H 0.94045 0.22509 0.4001 0.0
H305 H 0.01777 0.21666 0.67991 0.0
Zn306 Zn 0.54372 0.92042 0.03723 0.0
C307 C 0.58509 0.92423 0.11181 0.0
N308 N 0.59308 0.93712 0.07616 0.0
C309 C 0.57997 0.93797 0.05349 0.0
N310 N 0.56467 0.92627 0.07419 0.0
N311 N 0.56766 0.91787 0.11249 0.0
C312 C 0.55488 0.87485 0.14597 0.0
O313 O 0.55826 0.88203 0.0987 0.0
O314 O 0.54381 0.94178 0.01147 0.0
Zn315 Zn 0.55076 0.90436 0.16902 0.0
N316 N 0.54104 0.90485 0.97981 0.0
C317 C 0.53401 0.87615 0.95801 0.0
C318 C 0.53609 0.88847 0.99554 0.0
C319 C 0.54398 0.90952 0.92763 0.0
N320 N 0.53689 0.8807 0.90607 0.0
C321 C 0.54178 0.89704 0.88916 0.0
O322 O 0.52519 0.89776 0.15776 0.0
C323 C 0.51611 0.90044 0.124 0.0
O324 O 0.5227 0.90864 0.08138 0.0
H325 H 0.53382 0.88506 0.03715 0.0
H326 H 0.54819 0.92277 0.9168 0.0
C327 C 0.55459 0.91423 0.28229 0.0
C328 C 0.55935 0.92657 0.3234 0.0
C329 C 0.56993 0.94899 0.25877 0.0
C330 C 0.56508 0.9368 0.21848 0.0
N331 N 0.55757 0.91969 0.23073 0.0
N332 N 0.56691 0.94362 0.30994 0.0
H333 H 0.54824 0.90052 0.2908 0.0
C334 C 0.54386 0.95145 0.04864 0.0
O335 O 0.5454 0.94752 0.09789 0.0
O336 O 0.55134 0.8821 0.18366 0.0
H337 H 0.5671 0.94096 0.17754 0.0
H338 H 0.53013 0.86305 0.96998 0.0
H339 H 0.57591 0.96263 0.24949 0.0
Zn340 Zn 0.10565 0.64789 0.176 0.0
C341 C 0.0685 0.64096 0.07132 0.0
N342 N 0.06715 0.65219 0.10355 0.0
C343 C 0.081 0.65753 0.13543 0.0
N344 N 0.09018 0.64962 0.12441 0.0
N345 N 0.08239 0.63937 0.08332 0.0
C346 C 0.06305 0.59455 0.04708 0.0
O347 O 0.06781 0.59902 0.09665 0.0
O348 O 0.12713 0.67159 0.18703 0.0
Zn349 Zn 0.09083 0.62739 0.04048 0.0
N350 N 0.09178 0.63986 0.23996 0.0
C351 C 0.06361 0.62036 0.27282 0.0
C352 C 0.07515 0.62727 0.23078 0.0
C353 C 0.09752 0.64563 0.29011 0.0
N354 N 0.06925 0.62602 0.32272 0.0
C355 C 0.08592 0.6384 0.33318 0.0
O356 O 0.10412 0.61859 0.08084 0.0
C357 C 0.11157 0.61928 0.12445 0.0
O358 O 0.11267 0.6295 0.16161 0.0
H359 H 0.07087 0.62266 0.19085 0.0
H360 H 0.11082 0.6557 0.29594 0.0
C361 C 0.10251 0.64041 0.93328 0.0
C362 C 0.11444 0.65257 0.89701 0.0
C363 C 0.13194 0.66929 0.96934 0.0
C364 C 0.12007 0.6573 0.0049 0.0
N365 N 0.10573 0.64307 0.98632 0.0
N366 N 0.12888 0.66664 0.91647 0.0
H367 H 0.09101 0.62886 0.91982 0.0
C368 C 0.14106 0.67567 0.16195 0.0
O369 O 0.14149 0.66417 0.13041 0.0
O370 O 0.07091 0.60566 0.01069 0.0
H371 H 0.12221 0.65922 0.04716 0.0
H372 H 0.0503 0.61044 0.266 0.0
H373 H 0.14348 0.68064 0.98359 0.0
Zn374 Zn 0.38266 0.46223 0.0405 0.0
C375 C 0.3533 0.42432 0.14301 0.0
N376 N 0.35946 0.41547 0.1166 0.0
C377 C 0.37041 0.42726 0.08178 0.0
N378 N 0.37093 0.44258 0.08673 0.0
N379 N 0.36044 0.44087 0.12642 0.0
C380 C 0.33451 0.46794 0.19173 0.0
O381 O 0.3478 0.483 0.20492 0.0
O382 O 0.40429 0.46387 0.00998 0.0
Zn383 Zn 0.3613 0.45881 0.17288 0.0
N384 N 0.36633 0.46095 0.98761 0.0
C385 C 0.33932 0.45963 0.97398 0.0
C386 C 0.35211 0.46069 0.00798 0.0
C387 C 0.3684 0.46026 0.93422 0.0
N388 N 0.34132 0.45896 0.92083 0.0
C389 C 0.35551 0.4593 0.89939 0.0
O390 O 0.37925 0.48399 0.15479 0.0
C391 C 0.39045 0.4923 0.11887 0.0
O392 O 0.39186 0.48468 0.07829 0.0
H393 H 0.35074 0.46126 0.0505 0.0
H394 H 0.37977 0.4602 0.91962 0.0
C395 C 0.36472 0.45665 0.28982 0.0
C396 C 0.37337 0.45477 0.33415 0.0
C397 C 0.39104 0.44927 0.27601 0.0
C398 C 0.3828 0.45154 0.23257 0.0
N399 N 0.36974 0.45502 0.23996 0.0
N400 N 0.38623 0.45105 0.32547 0.0
H401 H 0.35466 0.45996 0.29465 0.0
C402 C 0.41497 0.46507 0.04559 0.0
O403 O 0.41024 0.46353 0.09563 0.0
O404 O 0.33716 0.4557 0.17837 0.0
H405 H 0.38698 0.45075 0.19292 0.0
H406 H 0.32789 0.45935 0.98962 0.0
H407 H 0.40139 0.44642 0.27054 0.0
Zn408 Zn 0.46154 0.10319 0.8188 0.0
C409 C 0.43059 0.0628 0.91106 0.0
N410 N 0.41877 0.06116 0.87508 0.0
C411 C 0.42713 0.07608 0.84795 0.0
N412 N 0.44351 0.08627 0.8654 0.0
N413 N 0.44553 0.07801 0.90611 0.0
C414 C 0.46952 0.05841 0.94942 0.0
O415 O 0.4687 0.06202 0.89926 0.0
O416 O 0.4589 0.12446 0.80822 0.0
Zn417 Zn 0.46493 0.08675 0.95382 0.0
N418 N 0.45833 0.09045 0.75352 0.0
C419 C 0.45402 0.06366 0.71983 0.0
C420 C 0.45566 0.07425 0.76239 0.0
C421 C 0.45961 0.09664 0.70322 0.0
N422 N 0.4555 0.06981 0.66983 0.0
C423 C 0.45831 0.08603 0.65989 0.0
O424 O 0.48786 0.10094 0.91867 0.0
C425 C 0.49522 0.10927 0.87675 0.0
O426 O 0.48658 0.11074 0.83881 0.0
H427 H 0.45506 0.06968 0.8025 0.0
H428 H 0.4622 0.10974 0.69728 0.0
C429 C 0.46236 0.0983 0.05982 0.0
C430 C 0.45995 0.10915 0.09537 0.0
C431 C 0.45679 0.12405 0.0217 0.0
C432 C 0.45915 0.11329 0.987 0.0
N433 N 0.46198 0.10074 0.0066 0.0
N434 N 0.45722 0.12173 0.07477 0.0
H435 H 0.46415 0.08783 0.07369 0.0
C436 C 0.46759 0.13766 0.83765 0.0
O437 O 0.4782 0.13723 0.87302 0.0
O438 O 0.46715 0.06716 0.98491 0.0
H439 H 0.45861 0.11478 0.9446 0.0
H440 H 0.45187 0.05074 0.7264 0.0
H441 H 0.45454 0.13413 0.00666 0.0
Zn442 Zn 0.90578 0.35936 0.83158 0.0
C443 C 0.94033 0.36288 0.94199 0.0
N444 N 0.93933 0.34945 0.91494 0.0
C445 C 0.92639 0.34569 0.8805 0.0
N446 N 0.92 0.35653 0.8852 0.0
N447 N 0.92861 0.36713 0.92483 0.0
C448 C 0.94894 0.41374 0.95344 0.0
O449 O 0.94331 0.4088 0.90477 0.0
O450 O 0.88461 0.33587 0.81662 0.0
Zn451 Zn 0.92157 0.38066 0.96601 0.0
N452 N 0.92068 0.36848 0.77022 0.0
C453 C 0.94912 0.38883 0.74141 0.0
C454 C 0.93706 0.38116 0.78189 0.0
C455 C 0.91567 0.36334 0.71918 0.0
N456 N 0.94422 0.38378 0.6906 0.0
C457 C 0.92779 0.37131 0.67777 0.0
O458 O 0.90762 0.3887 0.92604 0.0
C459 C 0.89951 0.38755 0.88348 0.0
O460 O 0.89814 0.37719 0.84647 0.0
H461 H 0.94074 0.38518 0.82258 0.0
H462 H 0.90254 0.35319 0.71138 0.0
C463 C 0.91115 0.3696 0.07588 0.0
C464 C 0.89944 0.35812 0.11398 0.0
C465 C 0.88097 0.34063 0.04438 0.0
C466 C 0.89259 0.35195 0.00703 0.0
N467 N 0.90732 0.36623 0.02334 0.0
N468 N 0.88463 0.34399 0.09674 0.0
H469 H 0.92294 0.38115 0.08755 0.0
C470 C 0.87114 0.33129 0.84474 0.0
O471 O 0.87134 0.34216 0.88028 0.0
O472 O 0.942 0.40289 0.99107 0.0
H473 H 0.88996 0.34948 0.96514 0.0
H474 H 0.96225 0.39883 0.75018 0.0
H475 H 0.86913 0.32926 0.03192 0.0
Zn476 Zn 0.65035 0.54877 0.82119 0.0
C477 C 0.64102 0.58048 0.91148 0.0
N478 N 0.65132 0.59204 0.87509 0.0
C479 C 0.65748 0.58326 0.84836 0.0
N480 N 0.65092 0.5669 0.86629 0.0
N481 N 0.64085 0.5653 0.90713 0.0
C482 C 0.59709 0.54234 0.94989 0.0
O483 O 0.60178 0.54382 0.89982 0.0
O484 O 0.67449 0.55174 0.81724 0.0
Zn485 Zn 0.62963 0.54582 0.95448 0.0
N486 N 0.64209 0.55216 0.75319 0.0
C487 C 0.62043 0.55707 0.71544 0.0
C488 C 0.62872 0.55525 0.75954 0.0
C489 C 0.64743 0.55058 0.70376 0.0
N490 N 0.6255 0.55526 0.6664 0.0
C491 C 0.63871 0.55199 0.65883 0.0
O492 O 0.62042 0.52322 0.9176 0.0
C493 C 0.6215 0.51547 0.87686 0.0
O494 O 0.63236 0.52368 0.84005 0.0
H495 H 0.62432 0.55603 0.79889 0.0
H496 H 0.65776 0.54763 0.69965 0.0
C497 C 0.64392 0.54722 0.06044 0.0
C498 C 0.65688 0.54813 0.09478 0.0
C499 C 0.67374 0.54972 0.01958 0.0
C500 C 0.66092 0.5488 0.98599 0.0
N501 N 0.6463 0.54754 0.00689 0.0
N502 N 0.6714 0.54931 0.07286 0.0
H503 H 0.63198 0.54591 0.07566 0.0
C504 C 0.6772 0.53954 0.80375 0.0
O505 O 0.66398 0.52458 0.78945 0.0
O506 O 0.60791 0.54387 0.98548 0.0
H507 H 0.6625 0.54896 0.94337 0.0
H508 H 0.60981 0.55957 0.72009 0.0
H509 H 0.68543 0.55067 0.0035 0.0
Zn510 Zn 0.2168 0.23688 0.50843 0.0
C511 C 0.24863 0.27324 0.40418 0.0
N512 N 0.26073 0.27345 0.43636 0.0
C513 C 0.25151 0.25947 0.46706 0.0
N514 N 0.23439 0.25139 0.45588 0.0
N515 N 0.23273 0.25986 0.41506 0.0
C516 C 0.21336 0.28599 0.38592 0.0
O517 O 0.2148 0.282 0.43518 0.0
O518 O 0.21751 0.21459 0.52085 0.0
Zn519 Zn 0.21222 0.25444 0.37534 0.0
N520 N 0.22334 0.25133 0.57169 0.0
C521 C 0.23346 0.28018 0.60111 0.0
C522 C 0.22878 0.2682 0.56034 0.0
C523 C 0.22203 0.24583 0.62295 0.0
N524 N 0.23208 0.27477 0.65199 0.0
C525 C 0.22641 0.25792 0.6647 0.0
O526 O 0.19082 0.24317 0.41867 0.0
C527 C 0.18341 0.23467 0.46023 0.0
O528 O 0.19159 0.23099 0.49461 0.0
H529 H 0.22938 0.27232 0.51967 0.0
H530 H 0.21714 0.23224 0.63084 0.0
C531 C 0.213 0.24277 0.26684 0.0
C532 C 0.21031 0.22983 0.22954 0.0
C533 C 0.20005 0.209 0.29911 0.0
C534 C 0.20259 0.22178 0.33548 0.0
N535 N 0.20916 0.23839 0.31895 0.0
N536 N 0.20396 0.21331 0.24731 0.0
H537 H 0.21821 0.25612 0.25508 0.0
C538 C 0.21932 0.2068 0.4811 0.0
O539 O 0.22112 0.21364 0.43373 0.0
O540 O 0.21291 0.27609 0.34885 0.0
H541 H 0.19933 0.21854 0.37682 0.0
H542 H 0.23791 0.29365 0.59249 0.0
H543 H 0.19495 0.19574 0.31183 0.0
Zn544 Zn 0.77148 0.97987 0.50454 0.0
C545 C 0.73055 0.97152 0.4168 0.0
N546 N 0.73008 0.98244 0.45251 0.0
C547 C 0.7454 0.98864 0.47725 0.0
N548 N 0.75464 0.98151 0.45898 0.0
N549 N 0.7454 0.97101 0.41983 0.0
C550 C 0.72329 0.92711 0.37798 0.0
O551 O 0.727 0.93174 0.42793 0.0
O552 O 0.7927 1.00371 0.51589 0.0
Zn553 Zn 0.7528 0.95937 0.37145 0.0
N554 N 0.75869 0.97053 0.56986 0.0
C555 C 0.73166 0.9483 0.60284 0.0
C556 C 0.74287 0.95644 0.56078 0.0
C557 C 0.76397 0.9767 0.62 0.0
N558 N 0.73681 0.95438 0.65269 0.0
C559 C 0.75268 0.96831 0.66306 0.0
O560 O 0.76659 0.95021 0.40629 0.0
C561 C 0.77575 0.95128 0.44624 0.0
O562 O 0.77862 0.96204 0.4836 0.0
H563 H 0.73898 0.95167 0.5208 0.0
H564 H 0.77659 0.988 0.6259 0.0
C565 C 0.7646 0.97239 0.26418 0.0
C566 C 0.77594 0.98511 0.22805 0.0
C567 C 0.79102 1.00363 0.30054 0.0
C568 C 0.77974 0.99108 0.33594 0.0
N569 N 0.76688 0.97571 0.31726 0.0
N570 N 0.78889 1.00035 0.24768 0.0
H571 H 0.75432 0.95995 0.25066 0.0
C572 C 0.80576 0.00887 0.48539 0.0
O573 O 0.80534 0.99846 0.44781 0.0
O574 O 0.73246 0.9378 0.34203 0.0
H575 H 0.78121 0.99348 0.37817 0.0
H576 H 0.71898 0.93717 0.59606 0.0
H577 H 0.8014 0.01589 0.3149 0.0
Zn578 Zn 0.04781 0.7975 0.37355 0.0
C579 C 0.01748 0.75684 0.4656 0.0
N580 N 0.02261 0.7485 0.43231 0.0
C581 C 0.03423 0.76137 0.40168 0.0
N582 N 0.03626 0.77686 0.41588 0.0
N583 N 0.02588 0.7741 0.45685 0.0
C584 C 1.00035 0.79904 0.49402 0.0
O585 O 0.01224 0.81089 0.46316 0.0
O586 O 0.07018 0.80062 0.34397 0.0
Zn587 Zn 0.02759 0.79094 0.50973 0.0
N588 N 0.03176 0.7961 0.31962 0.0
C589 C 1.00364 0.79179 0.30302 0.0
C590 C 0.01625 0.79315 0.33836 0.0
C591 C 0.03525 0.79766 0.26663 0.0
N592 N 0.00702 0.79328 0.25021 0.0
C593 C 0.02245 0.79613 0.23039 0.0
O594 O 0.04582 0.81639 0.49635 0.0
C595 C 0.05546 0.8258 0.45864 0.0
O596 O 0.0559 0.81932 0.41427 0.0
H597 H 0.01373 0.79183 0.38057 0.0
H598 H 0.04786 0.80024 0.2535 0.0
C599 C 0.03202 0.78823 0.6243 0.0
C600 C 0.03929 0.78424 0.66817 0.0
C601 C 0.05249 0.77353 0.60892 0.0
C602 C 0.04566 0.77787 0.56595 0.0
N603 N 0.03536 0.78487 0.57421 0.0
N604 N 0.04923 0.77688 0.65868 0.0
H605 H 0.02435 0.79444 0.62942 0.0
C606 C 0.08142 0.80457 0.3805 0.0
O607 O 0.07667 0.8043 0.43006 0.0
O608 O 1.00392 0.78886 0.51944 0.0
H609 H 0.04876 0.77583 0.52611 0.0
H610 H 0.99123 0.78948 0.31736 0.0
H611 H 0.06059 0.76783 0.60285 0.0
H612 H 0.96505 0.39565 0.92 0.0
H613 H 0.99368 0.41204 0.96123 0.0
H614 H 0.97994 0.37022 0.07191 0.0
H615 H 0.95094 0.35425 0.03219 0.0
H616 H 1.00078 0.40321 0.11731 0.0
H617 H 0.02805 0.39581 0.9269 0.0
H618 H 0.01598 0.40697 0.92289 0.0
H619 H 1.00511 0.38441 0.94033 0.0
C620 C 0.96782 0.39047 0.95515 0.0
C621 C 0.9556 0.37408 0.97454 0.0
C622 C 0.98432 0.39963 0.97783 0.0
C623 C 0.98905 0.39226 0.01918 0.0
C624 C 0.97656 0.37619 0.04015 0.0
H625 H 0.07439 0.3876 0.12604 0.0
H626 H 0.05132 0.38775 0.07425 0.0
C627 C 0.96 0.3671 0.01769 0.0
C628 C 0.00732 0.40031 0.03731 0.0
H629 H 0.04739 0.40843 0.99787 0.0
C630 C 0.01107 0.40465 0.0911 0.0
C631 C 0.02068 0.40203 0.00296 0.0
C632 C 0.01732 0.39696 0.94514 0.0
C633 C 0.02761 0.41001 0.11199 0.0
C634 C 0.04085 0.4113 0.07791 0.0
C635 C 0.03729 0.40766 0.02369 0.0
C636 C 0.0573 0.41337 0.09939 0.0
C637 C 0.03048 0.41315 0.17097 0.0
C638 C 0.06905 0.42817 0.12807 0.0
C639 C 0.08243 0.42815 0.15741 0.0
C640 C 0.08414 0.41334 0.1581 0.0
C641 C 0.07337 0.39922 0.12565 0.0
C642 C 0.06015 0.39928 0.09625 0.0
H643 H 0.01822 0.40922 0.19271 0.0
H644 H 0.03654 0.40591 0.18765 0.0
H645 H 0.03939 0.42714 0.17828 0.0
H646 H 0.06723 0.43929 0.1304 0.0
H647 H 0.09038 0.43903 0.18304 0.0
H648 H 0.62074 0.59283 0.87874 0.0
H649 H 0.60618 0.60431 0.93299 0.0
H650 H 0.62088 0.58755 0.07469 0.0
H651 H 0.63614 0.57649 0.01975 0.0
H652 H 0.58085 0.59332 0.00801 0.0
H653 H 0.64539 0.63956 0.09361 0.0
H654 H 0.64295 0.62543 0.03915 0.0
H655 H 0.63784 0.61705 0.10569 0.0
C656 C 0.62061 0.59133 0.92148 0.0
C657 C 0.62959 0.58389 0.94527 0.0
C658 C 0.61219 0.59779 0.95244 0.0
C659 C 0.61267 0.59709 0.00795 0.0
C660 C 0.6206 0.58851 0.03189 0.0
H661 H 0.57036 0.64832 0.20596 0.0
H662 H 0.57138 0.62548 0.15464 0.0
C663 C 0.62918 0.58208 0.00065 0.0
C664 C 0.60679 0.60729 0.03939 0.0
H665 H 0.62232 0.64374 0.11534 0.0
C666 C 0.58983 0.60424 0.03206 0.0
C667 C 0.61861 0.6217 0.07004 0.0
C668 C 0.63725 0.62629 0.07742 0.0
C669 C 0.58457 0.61551 0.05318 0.0
C670 C 0.59653 0.63005 0.08295 0.0
C671 C 0.61322 0.63267 0.09199 0.0
C672 C 0.59253 0.6432 0.10421 0.0
C673 C 0.56657 0.61219 0.04159 0.0
C674 C 0.60352 0.66073 0.09144 0.0
C675 C 0.60307 0.6737 0.12111 0.0
C676 C 0.59138 0.66937 0.1633 0.0
C677 C 0.57917 0.65191 0.17261 0.0
C678 C 0.57981 0.63886 0.14344 0.0
H679 H 0.56044 0.60297 0.00815 0.0
H680 H 0.55836 0.60654 0.07732 0.0
H681 H 0.56679 0.62445 0.0319 0.0
H682 H 0.61342 0.66439 0.06129 0.0
H683 H 0.61285 0.68707 0.11409 0.0
H684 H 0.3223 0.92711 0.10278 0.0
H685 H 0.34569 0.95024 0.05151 0.0
H686 H 0.38327 0.94872 0.15608 0.0
H687 H 0.35977 0.92502 0.20599 0.0
H688 H 0.36474 0.98021 0.10471 0.0
H689 H 0.40876 0.96006 0.01467 0.0
H690 H 0.38698 0.94465 0.0354 0.0
H691 H 0.40399 0.95478 0.08373 0.0
C692 C 0.33558 0.93102 0.11274 0.0
C693 C 0.33932 0.92418 0.15764 0.0
C694 C 0.34896 0.94437 0.08388 0.0
C695 C 0.36627 0.95135 0.1001 0.0
C696 C 0.37008 0.94343 0.14219 0.0
H697 H 0.43307 0.0618 0.01984 0.0
H698 H 0.42148 0.03534 0.07438 0.0
C699 C 0.35665 0.92982 0.17059 0.0
C700 C 0.3796 0.96852 0.07926 0.0
H701 H 0.41807 0.99008 0.01274 0.0
C702 C 0.37643 0.98237 0.08467 0.0
C703 C 0.39493 0.97137 0.05379 0.0
C704 C 0.39888 0.95692 0.04607 0.0
C705 C 0.38772 0.99877 0.0635 0.0
C706 C 0.403 1.00164 0.0374 0.0
C707 C 0.40649 0.98794 0.03343 0.0
C708 C 0.41387 0.01786 0.00715 0.0
C709 C 0.38265 0.01257 0.06683 0.0
C710 C 0.41452 0.0169 0.95174 0.0
C711 C 0.42126 0.03188 0.92104 0.0
C712 C 0.42764 0.04815 0.94504 0.0
C713 C 0.42831 0.04937 0.0006 0.0
C714 C 0.42157 0.03427 0.03158 0.0
H715 H 0.36896 0.00721 0.07931 0.0
H716 H 0.391 0.02247 0.0964 0.0
H717 H 0.38443 0.0191 0.02789 0.0
H718 H 0.40871 0.00445 0.93193 0.0
H719 H 0.42063 0.03066 0.87816 0.0
H720 H 0.92122 0.56587 0.8208 0.0
H721 H 0.94378 0.56511 0.87522 0.0
H722 H 0.95915 0.61617 0.93464 0.0
H723 H 0.93676 0.61686 0.88075 0.0
H724 H 0.97831 0.58867 0.85734 0.0
H725 H 0.96284 0.59246 0.06722 0.0
H726 H 0.94674 0.58549 0.01528 0.0
H727 H 0.96099 0.60821 0.02784 0.0
C728 C 0.92889 0.57651 0.84758 0.0
C729 C 0.92717 0.59132 0.84741 0.0
C730 C 0.94189 0.57617 0.87813 0.0
C731 C 0.95312 0.59055 0.90931 0.0
C732 C 0.95047 0.60478 0.91188 0.0
H733 H 0.06001 0.64685 0.97291 0.0
H734 H 0.03148 0.63046 0.9307 0.0
C735 C 0.93766 0.60518 0.88109 0.0
C736 C 0.9691 0.59206 0.933 0.0
H737 H 0.99339 0.605 0.04612 0.0
C738 C 0.98147 0.59183 0.89893 0.0
C739 C 0.97321 0.596 0.98729 0.0
C740 C 0.96015 0.59537 0.02657 0.0
C741 C 0.99821 0.59661 0.91695 0.0
C742 C 1.00279 0.60205 0.97018 0.0
C743 C 0.99002 0.60107 0.00507 0.0
C744 C 0.02095 0.61006 0.98981 0.0
C745 C 0.01092 0.59612 0.87851 0.0
C746 C 0.02466 0.60403 0.03673 0.0
C747 C 0.04089 0.61349 0.06089 0.0
C748 C 0.05382 0.62894 0.03809 0.0
C749 C 0.05044 0.63461 0.99003 0.0
C750 C 0.03413 0.62523 0.96599 0.0
H751 H 1.00413 0.58636 0.84682 0.0
H752 H 0.01844 0.60896 0.8591 0.0
H753 H 0.02012 0.5931 0.89903 0.0
H754 H 0.01469 0.59251 0.05622 0.0
H755 H 0.04298 0.60928 0.09917 0.0
H756 H 0.44147 0.36068 0.78623 0.0
H757 H 0.4401 0.38314 0.83857 0.0
H758 H 0.40085 0.34367 0.93811 0.0
H759 H 0.40183 0.32131 0.88465 0.0
H760 H 0.38982 0.36318 0.88483 0.0
H761 H 0.45247 0.40629 0.98513 0.0
H762 H 0.4539 0.40221 0.91595 0.0
H763 H 0.44648 0.38475 0.9628 0.0
C764 C 0.43326 0.35692 0.82108 0.0
C765 C 0.42198 0.33935 0.83222 0.0
C766 C 0.43242 0.36975 0.85084 0.0
C767 C 0.42035 0.3651 0.89227 0.0
C768 C 0.41028 0.34756 0.9064 0.0
H769 H 0.39082 0.41532 0.11676 0.0
H770 H 0.40569 0.40376 0.06409 0.0
C771 C 0.41098 0.33478 0.87632 0.0
C772 C 0.41592 0.37783 0.91443 0.0
H773 H 0.43134 0.41503 0.98696 0.0
C774 C 0.39892 0.37455 0.90706 0.0
C775 C 0.42786 0.39274 0.94285 0.0
C776 C 0.44618 0.39672 0.95263 0.0
C777 C 0.39332 0.38536 0.92888 0.0
C778 C 0.40517 0.40021 0.95786 0.0
C779 C 0.42234 0.40379 0.96405 0.0
C780 C 0.39921 0.41051 0.98833 0.0
C781 C 0.3745 0.38027 0.92294 0.0
C782 C 0.39121 0.41884 0.96332 0.0
C783 C 0.38254 0.42538 0.9936 0.0
C784 C 0.38204 0.42384 0.04907 0.0
C785 C 0.39105 0.41662 0.07393 0.0
C786 C 0.39963 0.4101 0.0439 0.0
H787 H 0.36647 0.36683 0.90789 0.0
H788 H 0.36906 0.3813 0.96152 0.0
H789 H 0.37338 0.38913 0.89433 0.0
H790 H 0.39093 0.41949 0.92043 0.0
H791 H 0.37555 0.4308 0.97372 0.0
H792 H 0.68689 0.08058 0.90777 0.0
H793 H 0.6629 0.05623 0.95361 0.0
H794 H 0.62677 0.05826 0.84404 0.0
H795 H 0.65079 0.08316 0.79949 0.0
H796 H 0.61219 0.04431 0.94849 0.0
H797 H 0.64635 0.01344 0.85548 0.0
H798 H 0.65978 0.03062 0.90031 0.0
H799 H 0.65174 0.03538 0.84086 0.0
C800 C 0.67374 0.07652 0.89566 0.0
C801 C 0.6706 0.08373 0.85047 0.0
C802 C 0.66005 0.06248 0.92139 0.0
C803 C 0.64313 0.05514 0.90119 0.0
C804 C 0.63974 0.06367 0.86008 0.0
H805 H 0.58129 0.94326 0.94616 0.0
H806 H 0.59213 0.97138 0.90156 0.0
C807 C 0.65344 0.07797 0.83492 0.0
C808 C 0.63004 0.03714 0.9159 0.0
H809 H 0.62372 0.99613 0.91541 0.0
C810 C 0.6146 0.03372 0.94104 0.0
C811 C 0.63287 0.02322 0.90416 0.0
C812 C 0.64849 0.02577 0.8732 0.0
C813 C 0.6024 0.01684 0.9576 0.0
C814 C 0.60596 1.00318 0.94963 0.0
C815 C 0.62096 0.00654 0.92188 0.0
C816 C 0.59551 0.98578 0.97422 0.0
C817 C 0.58584 0.01382 0.98332 0.0
C818 C 0.59332 0.9844 0.02953 0.0
C819 C 0.58705 0.96842 0.0546 0.0
C820 C 0.58288 0.95353 0.02494 0.0
C821 C 0.5842 0.95459 0.96952 0.0
C822 C 0.59041 0.97063 0.94424 0.0
H823 H 0.58204 0.02315 0.9682 0.0
H824 H 0.57502 1.00045 0.97618 0.0
H825 H 0.58787 0.01585 0.02679 0.0
H826 H 0.59761 0.99584 0.05382 0.0
H827 H 0.58634 0.96784 0.09757 0.0
H828 H 0.61206 0.70294 0.37727 0.0
H829 H 0.63911 0.71962 0.42825 0.0
H830 H 0.66787 0.737 0.28176 0.0
H831 H 0.64109 0.72053 0.23148 0.0
H832 H 0.66506 0.71193 0.42076 0.0
H833 H 0.69159 0.78091 0.37011 0.0
H834 H 0.66907 0.76486 0.36025 0.0
H835 H 0.68508 0.76753 0.31191 0.0
C836 C 0.62414 0.71075 0.35636 0.0
C837 C 0.62465 0.71057 0.30076 0.0
C838 C 0.63954 0.72026 0.3853 0.0
C839 C 0.65551 0.72978 0.3588 0.0
C840 C 0.65573 0.73016 0.30315 0.0
H841 H 0.75181 0.73827 0.4386 0.0
H842 H 0.72728 0.73703 0.39112 0.0
C843 C 0.64046 0.7206 0.27445 0.0
C844 C 0.67217 0.73692 0.38798 0.0
H845 H 0.71258 0.77263 0.39807 0.0
C846 C 0.67532 0.72529 0.41662 0.0
C847 C 0.68557 0.75436 0.38269 0.0
C848 C 0.68261 0.76767 0.35503 0.0
C849 C 0.69172 0.73035 0.43775 0.0
C850 C 0.70545 0.74746 0.42933 0.0
C851 C 0.70213 0.75941 0.40327 0.0
C852 C 0.7232 0.75279 0.44809 0.0
C853 C 0.69431 0.71723 0.46824 0.0
C854 C 0.72979 0.76312 0.49359 0.0
C855 C 0.74404 0.76409 0.52019 0.0
C856 C 0.75191 0.75486 0.50136 0.0
C857 C 0.74638 0.74598 0.45295 0.0
C858 C 0.73219 0.74507 0.42624 0.0
H859 H 0.6818 0.70606 0.48134 0.0
H860 H 0.70089 0.71223 0.44236 0.0
H861 H 0.70258 0.72324 0.50372 0.0
H862 H 0.72299 0.76912 0.51117 0.0
H863 H 0.74783 0.77065 0.55819 0.0
H864 H 0.25452 0.97914 0.59006 0.0
H865 H 0.25552 0.9578 0.53231 0.0
H866 H 0.24785 0.98243 0.39589 0.0
H867 H 0.2473 0.00412 0.45387 0.0
H868 H 0.23699 0.93408 0.4528 0.0
H869 H 0.29684 0.99093 0.3746 0.0
H870 H 0.28542 0.99248 0.4314 0.0
H871 H 0.27726 0.99169 0.36554 0.0
C872 C 0.2526 0.9798 0.54782 0.0
C873 C 0.2513 0.9937 0.5264 0.0
C874 C 0.2531 0.9675 0.51484 0.0
C875 C 0.25229 0.9688 0.45964 0.0
C876 C 0.24894 0.98143 0.43841 0.0
H877 H 0.2889 0.92575 0.21797 0.0
H878 H 0.27204 0.93625 0.26544 0.0
C879 C 0.2485 0.99384 0.47165 0.0
C880 C 0.25761 0.9587 0.42531 0.0
H881 H 0.29039 0.9636 0.34391 0.0
C882 C 0.24857 0.9405 0.42857 0.0
C883 C 0.27289 0.96712 0.39431 0.0
C884 C 0.28379 0.98661 0.39141 0.0
C885 C 0.25446 0.93056 0.40172 0.0
C886 C 0.2698 0.93906 0.37142 0.0
C887 C 0.27862 0.95716 0.36733 0.0
C888 C 0.27722 0.92965 0.3433 0.0
C889 C 0.24425 0.91108 0.40532 0.0
C890 C 0.28551 0.92219 0.3714 0.0
C891 C 0.29527 0.91622 0.34421 0.0
C892 C 0.29674 0.91766 0.28874 0.0
C893 C 0.28788 0.92449 0.2608 0.0
C894 C 0.2782 0.93041 0.28778 0.0
H895 H 0.23163 0.90638 0.4257 0.0
H896 H 0.24186 0.90536 0.36491 0.0
H897 H 0.25185 0.90638 0.42756 0.0
H898 H 0.28516 0.92179 0.41438 0.0
H899 H 0.30219 0.91119 0.36646 0.0
H900 H 0.10834 0.37501 0.24819 0.0
H901 H 0.09662 0.34666 0.2908 0.0
H902 H 0.06739 0.35992 0.39826 0.0
H903 H 0.07992 0.38865 0.35735 0.0
H904 H 0.07839 0.33895 0.44571 0.0
H905 H 0.04691 0.31227 0.25071 0.0
H906 H 0.07016 0.32414 0.25031 0.0
H907 H 0.05839 0.33517 0.26454 0.0
C908 C 0.10031 0.37226 0.28312 0.0
C909 C 0.09559 0.38424 0.30102 0.0
C910 C 0.09325 0.35589 0.30658 0.0
C911 C 0.08085 0.35102 0.34704 0.0
C912 C 0.07696 0.36338 0.36716 0.0
H913 H 0.98845 0.26643 0.43924 0.0
H914 H 0.01295 0.28893 0.39008 0.0
C915 C 0.08418 0.37983 0.34407 0.0
C916 C 0.07038 0.33266 0.36437 0.0
H917 H 0.03882 0.29282 0.32166 0.0
C918 C 0.06996 0.32876 0.41852 0.0
C919 C 0.05926 0.31941 0.32877 0.0
C920 C 0.05853 0.3229 0.27041 0.0
C921 C 0.05818 0.31225 0.43846 0.0
C922 C 0.04673 0.29914 0.40305 0.0
C923 C 0.04775 0.3028 0.34857 0.0
C924 C 0.03171 0.2828 0.42278 0.0
C925 C 0.05729 0.30935 0.49771 0.0
C926 C 0.03385 0.27104 0.45466 0.0
C927 C 0.01972 0.25801 0.48262 0.0
C928 C 1.00336 0.25662 0.47867 0.0
C929 C 1.00094 0.26721 0.44257 0.0
C930 C 0.01497 0.28012 0.41468 0.0
H931 H 0.06524 0.32158 0.52002 0.0
H932 H 0.04371 0.30335 0.51184 0.0
H933 H 0.06216 0.30038 0.50728 0.0
H934 H 0.04661 0.27266 0.4607 0.0
H935 H 0.02195 0.25021 0.51104 0.0
H936 H 0.69941 0.94986 0.45805 0.0
H937 H 0.67195 0.93315 0.41093 0.0
H938 H 0.6988 0.94988 0.26122 0.0
H939 H 0.72652 0.96659 0.30881 0.0
H940 H 0.66022 0.95025 0.34616 0.0
H941 H 0.66308 0.89798 0.23547 0.0
H942 H 0.67666 0.90867 0.2923 0.0
H943 H 0.68193 0.91908 0.22853 0.0
C944 C 0.69948 0.94961 0.41503 0.0
C945 C 0.71498 0.9594 0.38685 0.0
C946 C 0.68381 0.94005 0.38821 0.0
C947 C 0.68331 0.94016 0.33261 0.0
C948 C 0.69893 0.94935 0.30416 0.0
H949 H 0.61563 0.92719 0.08571 0.0
H950 H 0.63692 0.92658 0.14415 0.0
C951 C 0.71472 0.95893 0.33119 0.0
C952 C 0.66632 0.9328 0.30529 0.0
H953 H 0.64098 0.90431 0.20936 0.0
C954 C 0.65584 0.94 0.31686 0.0
C955 C 0.66066 0.91939 0.26734 0.0
C956 C 0.67106 0.91068 0.25537 0.0
C957 C 0.64032 0.93488 0.28942 0.0
C958 C 0.63489 0.92187 0.24995 0.0
C959 C 0.64505 0.91416 0.23989 0.0
C960 C 0.62037 0.91829 0.21334 0.0
C961 C 0.63048 0.94426 0.30067 0.0
C962 C 0.60351 0.91283 0.23182 0.0
C963 C 0.59118 0.91332 0.19813 0.0
C964 C 0.59557 0.91927 0.14573 0.0
C965 C 0.61188 0.92296 0.12632 0.0
C966 C 0.62411 0.9225 0.15964 0.0
H967 H 0.63805 0.95595 0.32564 0.0
H968 H 0.62699 0.94829 0.2631 0.0
H969 H 0.61834 0.93546 0.3221 0.0
H970 H 0.60016 0.90906 0.2729 0.0
H971 H 0.57875 0.90997 0.21414 0.0
H972 H 0.05852 0.65388 0.21216 0.0
H973 H 0.05918 0.67724 0.26443 0.0
H974 H 0.11071 0.71237 0.20712 0.0
H975 H 0.10991 0.68883 0.15389 0.0
H976 H 0.08005 0.70153 0.34036 0.0
H977 H 0.08132 0.7322 0.14635 0.0
H978 H 0.07773 0.71046 0.15087 0.0
H979 H 0.09908 0.72864 0.16043 0.0
C980 C 0.07024 0.66643 0.21237 0.0
C981 C 0.08418 0.66962 0.17934 0.0
C982 C 0.0706 0.6798 0.24205 0.0
C983 C 0.08482 0.69665 0.2387 0.0
C984 C 0.09948 0.69951 0.20956 0.0
H985 H 0.06739 0.77047 0.4222 0.0
H986 H 0.08414 0.75896 0.37919 0.0
C987 C 0.09915 0.68603 0.17989 0.0
C988 C 0.08306 0.71116 0.26056 0.0
H989 H 0.0756 0.74366 0.22213 0.0
C990 C 0.07946 0.71102 0.31482 0.0
C991 C 0.082 0.72333 0.22683 0.0
C992 C 0.08511 0.72371 0.16781 0.0
C993 C 0.07404 0.72212 0.33589 0.0
C994 C 0.07253 0.73397 0.30189 0.0
C995 C 0.07689 0.73466 0.24809 0.0
C996 C 0.06454 0.74422 0.3203 0.0
C997 C 0.06889 0.72024 0.39368 0.0
C998 C 0.04852 0.74076 0.29917 0.0
C999 C 0.03923 0.74784 0.32266 0.0
C1000 C 0.04593 0.75867 0.36708 0.0
C1001 C 0.06237 0.76289 0.3863 0.0
C1002 C 0.07175 0.75598 0.36253 0.0
H1003 H 0.06759 0.70825 0.41155 0.0
H1004 H 0.07895 0.73145 0.41628 0.0
H1005 H 0.05641 0.72003 0.39849 0.0
H1006 H 0.04267 0.73168 0.26672 0.0
H1007 H 0.02633 0.74397 0.30831 0.0
H1008 H 0.35612 0.41077 0.23558 0.0
H1009 H 0.33198 0.38663 0.28162 0.0
H1010 H 0.29579 0.3928 0.18337 0.0
H1011 H 0.32006 0.41741 0.13832 0.0
H1012 H 0.28322 0.37907 0.2914 0.0
H1013 H 0.30971 0.34397 0.17969 0.0
H1014 H 0.32546 0.36064 0.22191 0.0
H1015 H 0.31637 0.36637 0.16708 0.0
C1016 C 0.343 0.40758 0.22595 0.0
C1017 C 0.33987 0.41591 0.18377 0.0
C1018 C 0.32922 0.39368 0.25179 0.0
C1019 C 0.31214 0.38765 0.23486 0.0
C1020 C 0.30889 0.3972 0.19682 0.0
H1021 H 0.24596 0.27666 0.29675 0.0
H1022 H 0.25645 0.30407 0.2479 0.0
C1023 C 0.32274 0.41135 0.17146 0.0
C1024 C 0.29837 0.37003 0.25041 0.0
H1025 H 0.28905 0.32799 0.24702 0.0
C1026 C 0.28433 0.36784 0.2813 0.0
C1027 C 0.29945 0.3553 0.2354 0.0
C1028 C 0.31345 0.35661 0.19871 0.0
C1029 C 0.27203 0.35141 0.30076 0.0
C1030 C 0.2741 0.33694 0.28987 0.0
C1031 C 0.28746 0.33903 0.25587 0.0
C1032 C 0.26423 0.32017 0.31843 0.0
C1033 C 0.25705 0.34974 0.33318 0.0
C1034 C 0.26479 0.32003 0.37409 0.0
C1035 C 0.25876 0.30449 0.40154 0.0
C1036 C 0.25207 0.28876 0.37406 0.0
C1037 C 0.25078 0.28865 0.3186 0.0
C1038 C 0.25681 0.30428 0.2909 0.0
H1039 H 0.25358 0.35959 0.32098 0.0
H1040 H 0.24545 0.33666 0.32919 0.0
H1041 H 0.26085 0.35204 0.37565 0.0
H1042 H 0.27092 0.33202 0.39634 0.0
H1043 H 0.25999 0.30484 0.44441 0.0
H1044 H 0.29541 0.06031 0.58805 0.0
H1045 H 0.3247 0.07754 0.6238 0.0
H1046 H 0.3132 0.03802 0.74133 0.0
H1047 H 0.28342 0.02146 0.70787 0.0
H1048 H 0.33493 0.07032 0.78073 0.0
H1049 H 0.35858 0.06207 0.5848 0.0
H1050 H 0.34691 0.07363 0.58297 0.0
H1051 H 0.33591 0.05115 0.60159 0.0
C1052 C 0.2988 0.05592 0.62373 0.0
C1053 C 0.28694 0.04001 0.64686 0.0
C1054 C 0.31572 0.0655 0.64314 0.0
C1055 C 0.3213 0.05894 0.68461 0.0
C1056 C 0.30921 0.04338 0.70934 0.0
H1057 H 0.40902 0.05516 0.76712 0.0
H1058 H 0.38554 0.05589 0.71977 0.0
C1059 C 0.29219 0.03395 0.69041 0.0
C1060 C 0.33995 0.06724 0.69918 0.0
H1061 H 0.37936 0.07576 0.65156 0.0
C1062 C 0.34472 0.07177 0.75239 0.0
C1063 C 0.35269 0.069 0.6621 0.0
C1064 C 0.34831 0.06358 0.60478 0.0
C1065 C 0.36164 0.07723 0.77012 0.0
C1066 C 0.3743 0.07863 0.73326 0.0
C1067 C 0.36972 0.07491 0.67957 0.0
C1068 C 0.39118 0.08078 0.75111 0.0
C1069 C 0.36546 0.08028 0.82879 0.0
C1070 C 0.40301 0.09514 0.78134 0.0
C1071 C 0.41658 0.09474 0.80842 0.0
C1072 C 0.41845 0.08004 0.80507 0.0
C1073 C 0.40785 0.06666 0.77006 0.0
C1074 C 0.39437 0.06705 0.74319 0.0
H1075 H 0.35351 0.07588 0.85273 0.0
H1076 H 0.37218 0.07339 0.84308 0.0
H1077 H 0.37407 0.09433 0.83607 0.0
H1078 H 0.40103 0.10606 0.78704 0.0
H1079 H 0.42441 0.10507 0.83593 0.0
H1080 H 0.9398 0.35053 0.78168 0.0
H1081 H 0.9411 0.3284 0.72797 0.0
H1082 H 0.90671 0.28908 0.83781 0.0
H1083 H 0.90502 0.31127 0.89064 0.0
H1084 H 0.95544 0.31095 0.77802 0.0
H1085 H 0.89112 0.26399 0.69401 0.0
H1086 H 0.89659 0.28556 0.71445 0.0
H1087 H 0.89126 0.26896 0.76324 0.0
C1088 C 0.93163 0.33706 0.79234 0.0
C1089 C 0.9219 0.3325 0.83927 0.0
C1090 C 0.93258 0.32442 0.76213 0.0
C1091 C 0.92398 0.30705 0.77879 0.0
C1092 C 0.91319 0.30231 0.82356 0.0
H1093 H 0.97057 0.24342 0.69296 0.0
H1094 H 0.95559 0.25494 0.74721 0.0
C1095 C 0.91217 0.31497 0.85362 0.0
C1096 C 0.92878 0.29478 0.75513 0.0
H1097 H 0.91323 0.25663 0.68754 0.0
C1098 C 0.9462 0.29906 0.7583 0.0
C1099 C 0.91667 0.2792 0.72995 0.0
C1100 C 0.89787 0.27414 0.72471 0.0
C1101 C 0.95197 0.28846 0.73581 0.0
C1102 C 0.93991 0.2729 0.71027 0.0
C1103 C 0.9224 0.26842 0.70789 0.0
C1104 C 0.9458 0.26255 0.67975 0.0
C1105 C 0.97108 0.29443 0.73755 0.0
C1106 C 0.94448 0.26219 0.62428 0.0
C1107 C 0.95291 0.25562 0.59372 0.0
C1108 C 0.96263 0.24908 0.618 0.0
C1109 C 0.96303 0.24829 0.67356 0.0
C1110 C 0.95457 0.25495 0.70436 0.0
H1111 H 0.97896 0.30814 0.75042 0.0
H1112 H 0.97335 0.28628 0.76608 0.0
H1113 H 0.97573 0.29307 0.69794 0.0
H1114 H 0.93782 0.26798 0.60445 0.0
H1115 H 0.95246 0.25635 0.55084 0.0
H1116 H 0.65454 0.59997 0.76361 0.0
H1117 H 0.67852 0.62219 0.71217 0.0
H1118 H 0.71361 0.60881 0.78839 0.0
H1119 H 0.68942 0.58652 0.8405 0.0
H1120 H 0.7229 0.64258 0.80354 0.0
H1121 H 0.71024 0.62768 0.59029 0.0
H1122 H 0.69123 0.62513 0.62291 0.0
H1123 H 0.69982 0.61133 0.641 0.0
C1124 C 0.66723 0.60122 0.76742 0.0
C1125 C 0.67016 0.59144 0.80533 0.0
C1126 C 0.68096 0.61392 0.73797 0.0
C1127 C 0.6979 0.61716 0.74611 0.0
C1128 C 0.70063 0.60645 0.78113 0.0
H1129 H 0.77219 0.71034 0.57337 0.0
H1130 H 0.76041 0.68158 0.61335 0.0
C1131 C 0.68679 0.59358 0.81037 0.0
C1132 C 0.71267 0.63344 0.72514 0.0
H1133 H 0.72632 0.65837 0.61339 0.0
C1134 C 0.72395 0.64589 0.76174 0.0
C1135 C 0.71423 0.63777 0.67063 0.0
C1136 C 0.70333 0.62467 0.62896 0.0
C1137 C 0.73581 0.66289 0.7458 0.0
C1138 C 0.73619 0.66764 0.69204 0.0
C1139 C 0.72587 0.65485 0.65483 0.0
C1140 C 0.74592 0.68599 0.6742 0.0
C1141 C 0.74748 0.67571 0.78695 0.0
C1142 C 0.74204 0.6982 0.69574 0.0
C1143 C 0.74908 0.71476 0.67354 0.0
C1144 C 0.76022 0.71941 0.62977 0.0
C1145 C 0.76443 0.70737 0.60902 0.0
C1146 C 0.75745 0.69084 0.63124 0.0
H1147 H 0.74995 0.66908 0.82034 0.0
H1148 H 0.76008 0.68543 0.76949 0.0
H1149 H 0.74108 0.68262 0.80353 0.0
H1150 H 0.73277 0.69463 0.72779 0.0
H1151 H 0.74517 0.72363 0.68891 0.0
H1152 H 0.37855 0.27783 0.75657 0.0
H1153 H 0.34993 0.26054 0.71595 0.0
H1154 H 0.36423 0.29923 0.59358 0.0
H1155 H 0.39313 0.31611 0.63323 0.0
H1156 H 0.32696 0.27106 0.70923 0.0
H1157 H 0.33878 0.25552 0.50695 0.0
H1158 H 0.35497 0.26268 0.55864 0.0
H1159 H 0.35208 0.27818 0.52066 0.0
C1160 C 0.37583 0.28213 0.71941 0.0
C1161 C 0.38821 0.29786 0.69652 0.0
C1162 C 0.35941 0.27239 0.69667 0.0
C1163 C 0.35494 0.2784 0.65115 0.0
C1164 C 0.36749 0.29401 0.62767 0.0
H1165 H 0.26704 0.27991 0.55128 0.0
H1166 H 0.28967 0.27976 0.60513 0.0
C1167 C 0.38398 0.30368 0.65029 0.0
C1168 C 0.33669 0.26961 0.63215 0.0
H1169 H 0.3121 0.25605 0.51963 0.0
C1170 C 0.32365 0.26744 0.66795 0.0
C1171 C 0.33219 0.2645 0.57866 0.0
C1172 C 0.34523 0.26516 0.5392 0.0
C1173 C 0.30658 0.2615 0.65091 0.0
C1174 C 0.30248 0.25796 0.59642 0.0
C1175 C 0.31521 0.25892 0.56138 0.0
C1176 C 0.28602 0.25556 0.57363 0.0
C1177 C 0.29321 0.25948 0.69132 0.0
C1178 C 0.27597 0.24174 0.53893 0.0
C1179 C 0.26287 0.2418 0.5082 0.0
C1180 C 0.25972 0.25569 0.51171 0.0
C1181 C 0.2689 0.2688 0.54909 0.0
C1182 C 0.28188 0.26873 0.57983 0.0
H1183 H 0.29613 0.25601 0.73086 0.0
H1184 H 0.29346 0.27198 0.69565 0.0
H1185 H 0.27997 0.2494 0.67924 0.0
H1186 H 0.27902 0.23153 0.53307 0.0
H1187 H 0.25641 0.23189 0.47826 0.0
H1188 H 0.70855 0.09803 0.64321 0.0
H1189 H 0.72417 0.08633 0.59294 0.0
H1190 H 0.7353 0.0686 0.73926 0.0
H1191 H 0.72027 0.08059 0.78898 0.0
H1192 H 0.76222 0.07948 0.66725 0.0
H1193 H 0.69841 0.03389 0.57593 0.0
H1194 H 0.70654 0.05649 0.56337 0.0
H1195 H 0.70046 0.04814 0.62964 0.0
C1196 C 0.7148 0.09206 0.66438 0.0
C1197 C 0.71323 0.0901 0.7197 0.0
C1198 C 0.7236 0.0853 0.63581 0.0
C1199 C 0.73065 0.07632 0.66234 0.0
C1200 C 0.73 0.07545 0.7179 0.0
H1201 H 0.72962 0.98489 0.57141 0.0
H1202 H 0.72989 0.00851 0.62137 0.0
C1203 C 0.72131 0.0822 0.74623 0.0
C1204 C 0.73663 0.06578 0.63324 0.0
H1205 H 0.72128 0.0289 0.55946 0.0
C1206 C 0.75338 0.06855 0.64302 0.0
C1207 C 0.72497 0.05134 0.60238 0.0
C1208 C 0.70655 0.04713 0.59238 0.0
C1209 C 0.75857 0.05698 0.62398 0.0
C1210 C 0.74674 0.0424 0.5942 0.0
C1211 C 0.73028 0.04003 0.58279 0.0
C1212 C 0.75058 0.02888 0.57552 0.0
C1213 C 0.77634 0.06001 0.63764 0.0
C1214 C 0.76297 0.0325 0.53573 0.0
C1215 C 0.76308 0.01892 0.50797 0.0
C1216 C 0.75064 1.00168 0.51933 0.0
C1217 C 0.73947 0.99811 0.56257 0.0
C1218 C 0.73952 0.0116 0.59071 0.0
H1219 H 0.78266 0.06993 0.66922 0.0
H1220 H 0.7756 0.04778 0.65096 0.0
H1221 H 0.78464 0.06455 0.60172 0.0
H1222 H 0.77146 0.04569 0.52285 0.0
H1223 H 0.77154 0.02194 0.47394 0.0
H1224 H 0.02108 0.73725 0.53973 0.0
H1225 H 0.99795 0.71469 0.59296 0.0
H1226 H 0.96295 0.73187 0.5402 0.0
H1227 H 0.98629 0.75454 0.48612 0.0
H1228 H 0.9746 0.71228 0.67181 0.0
H1229 H 0.94181 0.68216 0.48073 0.0
H1230 H 0.96377 0.7 0.4832 0.0
H1231 H 0.94602 0.70372 0.49446 0.0
C1232 C 0.00862 0.73661 0.5411 0.0
C1233 C 1.00543 0.74764 0.50933 0.0
C1234 C 0.99539 0.72369 0.57132 0.0
C1235 C 0.97863 0.72137 0.56971 0.0
C1236 C 0.97574 0.73329 0.54139 0.0
H1237 H 0.9058 0.63134 0.75963 0.0
H1238 H 0.91725 0.65944 0.71545 0.0
C1239 C 0.98911 0.74639 0.51124 0.0
C1240 C 0.96419 0.70531 0.59289 0.0
H1241 H 0.93115 0.66528 0.5575 0.0
C1242 C 0.96482 0.70212 0.64715 0.0
C1243 C 0.95164 0.69198 0.56031 0.0
C1244 C 0.95072 0.69448 0.50136 0.0
C1245 C 0.95383 0.68574 0.66929 0.0
C1246 C 0.94161 0.67225 0.63638 0.0
C1247 C 0.94044 0.67566 0.58262 0.0
C1248 C 0.93145 0.65413 0.65585 0.0
C1249 C 0.95619 0.68273 0.72695 0.0
C1250 C 0.93465 0.64139 0.63484 0.0
C1251 C 0.92764 0.62514 0.65909 0.0
C1252 C 0.91714 0.62132 0.70416 0.0
C1253 C 0.9132 0.63371 0.72341 0.0
C1254 C 0.92003 0.64989 0.69888 0.0
H1255 H 0.96835 0.69347 0.74381 0.0
H1256 H 0.9452 0.68174 0.75039 0.0
H1257 H 0.95639 0.67046 0.73188 0.0
H1258 H 0.94348 0.6444 0.60178 0.0
H1259 H 0.93128 0.61595 0.64466 0.0
H1260 H 0.30459 0.43968 0.15647 0.0
H1261 H 0.27564 0.43631 0.15099 0.0
H1262 H 0.29522 0.48716 0.21859 0.0
H1263 H 0.32422 0.4908 0.22305 0.0
H1264 H 0.25465 0.43598 0.22732 0.0
H1265 H 0.26966 0.49034 0.09086 0.0
H1266 H 0.2845 0.48243 0.10222 0.0
H1267 H 0.28334 0.49721 0.14846 0.0
C1268 C 0.30276 0.45018 0.17 0.0
C1269 C 0.31678 0.46556 0.18994 0.0
C1270 C 0.28619 0.44824 0.16676 0.0
C1271 C 0.28327 0.46163 0.18327 0.0
C1272 C 0.29719 0.47685 0.20411 0.0
H1273 H 0.18701 0.45173 0.28652 0.0
H1274 H 0.21628 0.45662 0.27566 0.0
C1275 C 0.31377 0.47884 0.20711 0.0
C1276 C 0.26556 0.45939 0.18096 0.0
H1277 H 0.24264 0.47842 0.13751 0.0
C1278 C 0.25202 0.44519 0.20726 0.0
C1279 C 0.26198 0.47121 0.15398 0.0
C1280 C 0.2756 0.48605 0.1218 0.0
C1281 C 0.23523 0.44285 0.20903 0.0
C1282 C 0.23191 0.45525 0.18486 0.0
C1283 C 0.24524 0.46907 0.15673 0.0
C1284 C 0.21482 0.45427 0.1901 0.0
C1285 C 0.22117 0.42704 0.23674 0.0
C1286 C 0.20458 0.45236 0.1453 0.0
C1287 C 0.18778 0.44975 0.15133 0.0
C1288 C 0.18098 0.44902 0.2023 0.0
C1289 C 0.19173 0.45201 0.2467 0.0
C1290 C 0.20845 0.45469 0.24062 0.0
H1291 H 0.22437 0.4165 0.23896 0.0
H1292 H 0.21973 0.43053 0.27795 0.0
H1293 H 0.20853 0.42202 0.21613 0.0
H1294 H 0.20932 0.45217 0.10586 0.0
H1295 H 0.17984 0.44744 0.11635 0.0
H1296 H 0.56651 0.85918 0.07767 0.0
H1297 H 0.56654 0.83201 0.09012 0.0
H1298 H 0.54378 0.8261 0.2451 0.0
H1299 H 0.54379 0.85344 0.2332 0.0
H1300 H 0.58309 0.82392 0.17897 0.0
H1301 H 0.51202 0.7791 0.16229 0.0
H1302 H 0.52253 0.80089 0.13615 0.0
H1303 H 0.51909 0.79733 0.20627 0.0
C1304 C 0.56147 0.85212 0.11444 0.0
C1305 C 0.55509 0.85848 0.15441 0.0
C1306 C 0.56151 0.83659 0.12144 0.0
C1307 C 0.55498 0.82695 0.16821 0.0
C1308 C 0.54867 0.83325 0.20839 0.0
H1309 H 0.56933 0.74538 0.29543 0.0
H1310 H 0.5653 0.77012 0.28036 0.0
C1311 C 0.54877 0.84891 0.20165 0.0
C1312 C 0.55526 0.81056 0.17529 0.0
H1313 H 0.52926 0.76661 0.1841 0.0
C1314 C 0.57134 0.81139 0.18003 0.0
C1315 C 0.5399 0.79424 0.17611 0.0
C1316 C 0.52236 0.79268 0.1696 0.0
C1317 C 0.57245 0.79633 0.18661 0.0
C1318 C 0.55708 0.78003 0.18847 0.0
C1319 C 0.541 0.77914 0.18273 0.0
C1320 C 0.55763 0.7639 0.19829 0.0
C1321 C 0.59007 0.79794 0.19157 0.0
C1322 C 0.55406 0.75183 0.15749 0.0
C1323 C 0.55638 0.73755 0.16586 0.0
C1324 C 0.56225 0.73512 0.2153 0.0
C1325 C 0.56492 0.74683 0.2567 0.0
C1326 C 0.56266 0.76105 0.24822 0.0
H1327 H 0.60061 0.8109 0.17897 0.0
H1328 H 0.59236 0.79593 0.23363 0.0
H1329 H 0.59075 0.7879 0.16733 0.0
H1330 H 0.55011 0.75381 0.11866 0.0
H1331 H 0.55422 0.72883 0.13312 0.0
H1332 H 0.14628 0.70171 0.23104 0.0
H1333 H 0.17214 0.7305 0.23907 0.0
H1334 H 0.19664 0.71811 0.11257 0.0
H1335 H 0.17101 0.68936 0.10442 0.0
H1336 H 0.20867 0.73756 0.25685 0.0
H1337 H 0.19976 0.76556 0.06998 0.0
H1338 H 0.18202 0.74729 0.10287 0.0
H1339 H 0.19759 0.7444 0.06595 0.0
C1340 C 0.15717 0.70511 0.2049 0.0
C1341 C 0.15657 0.69319 0.16717 0.0
C1342 C 0.17193 0.72156 0.20956 0.0
C1343 C 0.18624 0.72648 0.17612 0.0
C1344 C 0.18567 0.71464 0.1384 0.0
H1345 H 0.28303 0.82594 0.14099 0.0
H1346 H 0.25987 0.79574 0.12954 0.0
C1347 C 0.17102 0.69817 0.134 0.0
C1348 C 0.20195 0.74385 0.18134 0.0
H1349 H 0.2252 0.78293 0.11905 0.0
C1350 C 0.2123 0.7475 0.22678 0.0
C1351 C 0.20678 0.75668 0.14168 0.0
C1352 C 0.19595 0.75344 0.09239 0.0
C1353 C 0.22737 0.76366 0.23372 0.0
C1354 C 0.23196 0.77674 0.19481 0.0
C1355 C 0.22174 0.77295 0.14886 0.0
C1356 C 0.24663 0.79473 0.20264 0.0
C1357 C 0.23835 0.76645 0.28239 0.0
C1358 C 0.24691 0.80425 0.24729 0.0
C1359 C 0.26014 0.82136 0.25414 0.0
C1360 C 0.27338 0.82957 0.21607 0.0
C1361 C 0.27315 0.82002 0.17128 0.0
C1362 C 0.25987 0.80277 0.16459 0.0
H1363 H 0.23663 0.754 0.29775 0.0
H1364 H 0.2523 0.77526 0.27397 0.0
H1365 H 0.23432 0.77229 0.31421 0.0
H1366 H 0.23663 0.79857 0.27648 0.0
H1367 H 0.25969 0.82826 0.28893 0.0
H1368 H 0.8252 0.55603 0.71545 0.0
H1369 H 0.79592 0.55122 0.72503 0.0
H1370 H 0.8018 0.55445 0.89524 0.0
H1371 H 0.83129 0.55909 0.88602 0.0
H1372 H 0.76866 0.52852 0.86137 0.0
H1373 H 0.78762 0.59106 0.76305 0.0
H1374 H 0.79245 0.57726 0.72359 0.0
H1375 H 0.8033 0.58537 0.78612 0.0
C1376 C 0.82024 0.55551 0.75509 0.0
C1377 C 0.83069 0.55812 0.79999 0.0
C1378 C 0.80351 0.55287 0.76043 0.0
C1379 C 0.79683 0.55296 0.81073 0.0
C1380 C 0.80677 0.55452 0.85596 0.0
H1381 H 0.70694 0.56756 0.84118 0.0
H1382 H 0.73583 0.57083 0.848 0.0
C1383 C 0.82359 0.55708 0.85067 0.0
C1384 C 0.77971 0.55198 0.81531 0.0
H1385 H 0.75727 0.57155 0.7727 0.0
C1386 C 0.76619 0.538 0.8424 0.0
C1387 C 0.77655 0.56454 0.79148 0.0
C1388 C 0.79079 0.5805 0.7649 0.0
C1389 C 0.74945 0.53587 0.84443 0.0
C1390 C 0.74604 0.54786 0.81776 0.0
C1391 C 0.75975 0.56221 0.79252 0.0
C1392 C 0.72835 0.54567 0.81469 0.0
C1393 C 0.73563 0.52086 0.87553 0.0
C1394 C 0.71453 0.53058 0.79285 0.0
C1395 C 0.69798 0.52865 0.78909 0.0
C1396 C 0.6949 0.54186 0.80648 0.0
C1397 C 0.70883 0.55711 0.82745 0.0
C1398 C 0.72536 0.55899 0.83145 0.0
H1399 H 0.74136 0.51638 0.90655 0.0
H1400 H 0.72661 0.52436 0.89488 0.0
H1401 H 0.72805 0.50985 0.84818 0.0
H1402 H 0.71656 0.52033 0.77815 0.0
H1403 H 0.68762 0.51679 0.77236 0.0
H1404 H 0.46105 0.28047 0.86298 0.0
H1405 H 0.46726 0.25678 0.87555 0.0
H1406 H 0.44834 0.23814 0.71779 0.0
H1407 H 0.44259 0.26175 0.70437 0.0
H1408 H 0.44462 0.22219 0.87482 0.0
H1409 H 0.49277 0.23715 0.71576 0.0
H1410 H 0.48656 0.25257 0.73753 0.0
H1411 H 0.47338 0.23591 0.69047 0.0
C1412 C 0.45855 0.27153 0.83061 0.0
C1413 C 0.45141 0.27316 0.78256 0.0
C1414 C 0.46203 0.25794 0.83793 0.0
C1415 C 0.45854 0.24579 0.79729 0.0
C1416 C 0.45161 0.24756 0.74925 0.0
H1417 H 0.45032 0.14518 0.76106 0.0
H1418 H 0.44827 0.17156 0.75318 0.0
C1419 C 0.44822 0.26109 0.74181 0.0
C1420 C 0.46103 0.23062 0.80569 0.0
H1421 H 0.47877 0.20808 0.74976 0.0
C1422 C 0.45229 0.21924 0.84789 0.0
C1423 C 0.471 0.2267 0.77051 0.0
C1424 C 0.4816 0.23883 0.72639 0.0
C1425 C 0.45279 0.20384 0.85475 0.0
C1426 C 0.46232 0.19971 0.81862 0.0
C1427 C 0.4713 0.21118 0.77703 0.0
C1428 C 0.46332 0.18363 0.82383 0.0
C1429 C 0.44277 0.19182 0.89977 0.0
C1430 C 0.47253 0.18174 0.86594 0.0
C1431 C 0.47384 0.16679 0.87033 0.0
C1432 C 0.4659 0.15336 0.83274 0.0
C1433 C 0.45657 0.15525 0.79068 0.0
C1434 C 0.45541 0.17031 0.78609 0.0
H1435 H 0.43366 0.19534 0.9185 0.0
H1436 H 0.43532 0.17824 0.88546 0.0
H1437 H 0.45196 0.19244 0.9306 0.0
H1438 H 0.47887 0.19192 0.89519 0.0
H1439 H 0.48109 0.16578 0.90329 0.0
H1440 H 0.74915 0.17991 0.71735 0.0
H1441 H 0.77314 0.20923 0.72979 0.0
H1442 H 0.75401 0.21104 0.88533 0.0
H1443 H 0.72972 0.18136 0.87352 0.0
H1444 H 0.76574 0.24225 0.81295 0.0
H1445 H 0.81384 0.2204 0.83702 0.0
H1446 H 0.79957 0.21166 0.78087 0.0
H1447 H 0.79089 0.20611 0.84685 0.0
C1448 C 0.74985 0.18649 0.75422 0.0
C1449 C 0.73748 0.17814 0.79465 0.0
C1450 C 0.76367 0.20327 0.76124 0.0
C1451 C 0.7655 0.21218 0.80873 0.0
C1452 C 0.75286 0.20429 0.84847 0.0
H1453 H 0.84238 0.31665 0.90756 0.0
H1454 H 0.8168 0.288 0.8996 0.0
C1455 C 0.73898 0.18736 0.8416 0.0
C1456 C 0.78086 0.2296 0.81662 0.0
H1457 H 0.82493 0.25057 0.82801 0.0
C1458 C 0.77868 0.24411 0.81674 0.0
C1459 C 0.79772 0.23194 0.82088 0.0
C1460 C 0.80074 0.21673 0.82182 0.0
C1461 C 0.79299 0.261 0.81974 0.0
C1462 C 0.8099 0.26338 0.82421 0.0
C1463 C 0.81201 0.24878 0.82451 0.0
C1464 C 0.82558 0.28085 0.82899 0.0
C1465 C 0.78986 0.27611 0.81625 0.0
C1466 C 0.83941 0.28623 0.79308 0.0
C1467 C 0.85425 0.3026 0.79797 0.0
C1468 C 0.85554 0.31391 0.83891 0.0
C1469 C 0.84175 0.30839 0.87511 0.0
C1470 C 0.82702 0.29201 0.87044 0.0
H1471 H 0.77726 0.27237 0.79692 0.0
H1472 H 0.78952 0.28071 0.85691 0.0
H1473 H 0.80031 0.28702 0.79366 0.0
H1474 H 0.83867 0.2778 0.76102 0.0
H1475 H 0.86466 0.30641 0.76961 0.0
H1476 H 0.84795 0.7846 0.44945 0.0
H1477 H 0.87769 0.79029 0.43737 0.0
H1478 H 0.88306 0.78789 0.60679 0.0
H1479 H 0.85358 0.78234 0.61926 0.0
H1480 H 0.91265 0.81521 0.55608 0.0
H1481 H 0.88997 0.75137 0.45921 0.0
H1482 H 0.88252 0.76488 0.42994 0.0
H1483 H 0.87559 0.7564 0.4956 0.0
C1484 C 0.85558 0.78562 0.48416 0.0
C1485 C 0.84832 0.78291 0.5353 0.0
C1486 C 0.87251 0.7887 0.47717 0.0
C1487 C 0.88248 0.7892 0.52116 0.0
C1488 C 0.87558 0.78745 0.57227 0.0
H1489 H 0.97149 0.77436 0.5467 0.0
H1490 H 0.94304 0.7723 0.55276 0.0
C1491 C 0.8587 0.78427 0.57928 0.0
C1492 C 0.89983 0.79089 0.51448 0.0
H1493 H 0.92017 0.76956 0.46851 0.0
C1494 C 0.91433 0.80529 0.53662 0.0
C1495 C 0.90193 0.77776 0.49 0.0
C1496 C 0.8867 0.76163 0.46763 0.0
C1497 C 0.93087 0.80699 0.53465 0.0
C1498 C 0.93302 0.794 0.50945 0.0
C1499 C 0.91851 0.77954 0.48757 0.0
C1500 C 0.95023 0.79519 0.50556 0.0
C1501 C 0.94586 0.82248 0.56066 0.0
C1502 C 0.96365 0.80861 0.47651 0.0
C1503 C 0.97987 0.80981 0.47294 0.0
C1504 C 0.98305 0.7976 0.49831 0.0
C1505 C 0.96953 0.78405 0.52701 0.0
C1506 C 0.95325 0.78282 0.53037 0.0
H1507 H 0.9414 0.82901 0.58887 0.0
H1508 H 0.95427 0.81864 0.58233 0.0
H1509 H 0.95381 0.83199 0.52963 0.0
H1510 H 0.96154 0.81812 0.45629 0.0
H1511 H 0.98993 0.82036 0.45023 0.0
H1512 H 0.22449 0.07073 0.61778 0.0
H1513 H 0.21979 0.09512 0.60379 0.0
H1514 H 0.22193 0.08952 0.43434 0.0
H1515 H 0.22641 0.06474 0.44819 0.0
H1516 H 0.24354 0.12518 0.55616 0.0
H1517 H 0.18073 0.09729 0.44935 0.0
H1518 H 0.18756 0.08403 0.48426 0.0
H1519 H 0.19631 0.09265 0.4199 0.0
C1520 C 0.22357 0.0744 0.57742 0.0
C1521 C 0.22584 0.06578 0.53406 0.0
C1522 C 0.22093 0.08841 0.56951 0.0
C1523 C 0.22049 0.0942 0.51807 0.0
C1524 C 0.22194 0.08514 0.47444 0.0
H1525 H 0.22133 0.18669 0.40281 0.0
H1526 H 0.2216 0.15956 0.41211 0.0
C1527 C 0.22448 0.07096 0.48236 0.0
C1528 C 0.22007 0.11059 0.51102 0.0
H1529 H 0.19687 0.1279 0.4571 0.0
C1530 C 0.23328 0.12574 0.53467 0.0
C1531 C 0.20676 0.11137 0.48273 0.0
C1532 C 0.19194 0.09546 0.45794 0.0
C1533 C 0.23361 0.14163 0.53062 0.0
C1534 C 0.22021 0.14239 0.50283 0.0
C1535 C 0.20709 0.12729 0.47864 0.0
C1536 C 0.21978 0.15881 0.49777 0.0
C1537 C 0.24852 0.15754 0.55523 0.0
C1538 C 0.21849 0.16739 0.54286 0.0
C1539 C 0.21835 0.18299 0.53773 0.0
C1540 C 0.21944 0.19027 0.48733 0.0
C1541 C 0.22054 0.18152 0.44229 0.0
C1542 C 0.22065 0.16595 0.44746 0.0
H1543 H 0.25977 0.15572 0.56322 0.0
H1544 H 0.25282 0.169 0.52907 0.0
H1545 H 0.24429 0.16031 0.59359 0.0
H1546 H 0.21752 0.16199 0.58207 0.0
H1547 H 0.21741 0.18932 0.57321 0.0
H1548 H 0.94693 0.15902 0.46255 0.0
H1549 H 0.92251 0.12947 0.45026 0.0
H1550 H 0.90478 0.13022 0.60881 0.0
H1551 H 0.92894 0.15947 0.62166 0.0
H1552 H 0.91127 0.09779 0.51601 0.0
H1553 H 0.863 0.11986 0.50964 0.0
H1554 H 0.88586 0.13439 0.49926 0.0
H1555 H 0.8776 0.12753 0.5652 0.0
C1556 C 0.93798 0.15282 0.49505 0.0
C1557 C 0.93991 0.16175 0.54296 0.0
C1558 C 0.924 0.13595 0.48789 0.0
C1559 C 0.91167 0.1278 0.5283 0.0
C1560 C 0.91397 0.13638 0.57678 0.0
H1561 H 0.81289 0.03261 0.56496 0.0
H1562 H 0.83885 0.06116 0.57506 0.0
C1563 C 0.92789 0.15312 0.58407 0.0
C1564 C 0.89615 0.11045 0.51997 0.0
H1565 H 0.85196 0.08958 0.51325 0.0
C1566 C 0.8983 0.09597 0.51499 0.0
C1567 C 0.87924 0.10812 0.51918 0.0
C1568 C 0.8762 0.12328 0.52317 0.0
C1569 C 0.88395 0.07914 0.51049 0.0
C1570 C 0.86699 0.07678 0.50945 0.0
C1571 C 0.8649 0.09134 0.5141 0.0
C1572 C 0.85125 0.05937 0.50336 0.0
C1573 C 0.88712 0.06404 0.50866 0.0
C1574 C 0.84938 0.04893 0.4593 0.0
C1575 C 0.83464 0.03257 0.45369 0.0
C1576 C 0.82128 0.02634 0.49164 0.0
C1577 C 0.82296 0.03696 0.53515 0.0
C1578 C 0.8378 0.0533 0.54093 0.0
H1579 H 0.89991 0.06745 0.52593 0.0
H1580 H 0.8769 0.0527 0.53048 0.0
H1581 H 0.88704 0.06021 0.46671 0.0
H1582 H 0.85927 0.05348 0.42889 0.0
H1583 H 0.8337 0.02485 0.41931 0.0
H1584 H 0.37028 0.89399 0.11656 0.0
H1585 H 0.39902 0.89678 0.11129 0.0
H1586 H 0.38666 0.86247 0.24534 0.0
H1587 H 0.35785 0.85926 0.24999 0.0
H1588 H 0.42526 0.90912 0.18248 0.0
H1589 H 0.40375 0.84017 0.14122 0.0
H1590 H 0.38924 0.84873 0.13754 0.0
H1591 H 0.39467 0.84332 0.20081 0.0
C1592 C 0.37363 0.88694 0.14468 0.0
C1593 C 0.36166 0.87625 0.18332 0.0
C1594 C 0.39009 0.88857 0.14169 0.0
C1595 C 0.39493 0.87956 0.17725 0.0
C1596 C 0.38311 0.86916 0.21648 0.0
H1597 H 0.49674 0.88591 0.21508 0.0
H1598 H 0.46711 0.88007 0.23291 0.0
C1599 C 0.36664 0.86743 0.21927 0.0
C1600 C 0.41247 0.88139 0.17408 0.0
H1601 H 0.43374 0.85863 0.15803 0.0
C1602 C 0.42707 0.89806 0.17723 0.0
C1603 C 0.41491 0.86696 0.16729 0.0
C1604 C 0.39982 0.84881 0.161 0.0
C1605 C 0.44394 0.90067 0.17351 0.0
C1606 C 0.44634 0.88628 0.16641 0.0
C1607 C 0.43183 0.8696 0.16417 0.0
C1608 C 0.46375 0.88862 0.15569 0.0
C1609 C 0.45917 0.91885 0.17646 0.0
C1610 C 0.4714 0.89492 0.10613 0.0
C1611 C 0.48811 0.89811 0.09575 0.0
C1612 C 0.49769 0.89516 0.13479 0.0
C1613 C 0.48977 0.88831 0.18412 0.0
C1614 C 0.47288 0.88502 0.19441 0.0
H1615 H 0.4554 0.92817 0.19181 0.0
H1616 H 0.46947 0.91927 0.20234 0.0
H1617 H 0.46471 0.92308 0.13614 0.0
H1618 H 0.46452 0.89763 0.0756 0.0
H1619 H 0.49363 0.90329 0.05715 0.0
H1620 H 0.10955 0.47479 0.12793 0.0
H1621 H 0.10689 0.50084 0.12207 0.0
H1622 H 0.15406 0.52946 0.21191 0.0
H1623 H 0.15691 0.50365 0.21767 0.0
H1624 H 0.10495 0.52159 0.20493 0.0
H1625 H 0.16285 0.55926 0.07798 0.0
H1626 H 0.15291 0.53613 0.08673 0.0
H1627 H 0.16678 0.55061 0.13742 0.0
C1628 C 0.11939 0.48664 0.14627 0.0
C1629 C 0.13352 0.48713 0.17289 0.0
C1630 C 0.11783 0.50151 0.14302 0.0
C1631 C 0.13041 0.51718 0.16591 0.0
C1632 C 0.14437 0.51762 0.19311 0.0
H1633 H 0.11924 0.60881 0.21878 0.0
H1634 H 0.12477 0.58469 0.2319 0.0
C1635 C 0.14592 0.50279 0.19653 0.0
C1636 C 0.12895 0.53306 0.16162 0.0
H1637 H 0.14922 0.57425 0.1117 0.0
C1638 C 0.11463 0.53312 0.18463 0.0
C1639 C 0.14153 0.54806 0.13477 0.0
C1640 C 0.15682 0.54856 0.10736 0.0
C1641 C 0.11261 0.54778 0.18173 0.0
C1642 C 0.12534 0.56287 0.15561 0.0
C1643 C 0.1396 0.56277 0.13238 0.0
C1644 C 0.1234 0.5784 0.14839 0.0
C1645 C 0.09661 0.54684 0.20533 0.0
C1646 C 0.12149 0.58332 0.09709 0.0
C1647 C 0.11842 0.59708 0.08948 0.0
C1648 C 0.11731 0.60639 0.13303 0.0
C1649 C 0.12004 0.60197 0.18437 0.0
C1650 C 0.12303 0.58807 0.19197 0.0
H1651 H 0.08651 0.53332 0.21466 0.0
H1652 H 0.10014 0.55443 0.24272 0.0
H1653 H 0.09104 0.55249 0.17775 0.0
H1654 H 0.12183 0.57614 0.06284 0.0
H1655 H 0.11647 0.60013 0.04933 0.0
H1656 H 0.39433 0.5138 0.20314 0.0
H1657 H 0.41803 0.54362 0.21729 0.0
H1658 H 0.43995 0.54256 0.06589 0.0
H1659 H 0.41653 0.51308 0.05113 0.0
H1660 H 0.46319 0.55263 0.1596 0.0
H1661 H 0.42869 0.58987 0.137 0.0
H1662 H 0.41898 0.57091 0.17868 0.0
H1663 H 0.42049 0.56858 0.10851 0.0
C1664 C 0.40403 0.52001 0.17249 0.0
C1665 C 0.40346 0.51096 0.12602 0.0
C1666 C 0.41757 0.53705 0.18065 0.0
C1667 C 0.43072 0.54529 0.14255 0.0
C1668 C 0.42994 0.53645 0.09576 0.0
H1669 H 0.53073 0.63923 0.11094 0.0
H1670 H 0.50515 0.61042 0.10199 0.0
C1671 C 0.41645 0.51956 0.08743 0.0
C1672 C 0.44587 0.56276 0.15206 0.0
H1673 H 0.4585 0.60575 0.15647 0.0
C1674 C 0.46219 0.56426 0.15913 0.0
C1675 C 0.44449 0.57786 0.15163 0.0
C1676 C 0.42727 0.57689 0.14329 0.0
C1677 C 0.47719 0.58048 0.1659 0.0
C1678 C 0.47592 0.59569 0.16395 0.0
C1679 C 0.45952 0.59413 0.15766 0.0
C1680 C 0.49142 0.61332 0.16853 0.0
C1681 C 0.49417 0.58108 0.17607 0.0
C1682 C 0.49205 0.62483 0.20767 0.0
C1683 C 0.50654 0.6414 0.2123 0.0
C1684 C 0.52077 0.64686 0.17788 0.0
C1685 C 0.52007 0.6354 0.13834 0.0
C1686 C 0.50548 0.61886 0.13344 0.0
H1687 H 0.49212 0.56863 0.19249 0.0
H1688 H 0.50128 0.58345 0.13804 0.0
H1689 H 0.50239 0.59163 0.20415 0.0
H1690 H 0.48137 0.62092 0.23508 0.0
H1691 H 0.50663 0.64987 0.24325 0.0
H1692 H 0.51843 0.11328 0.95407 0.0
H1693 H 0.54826 0.11974 0.94288 0.0
H1694 H 0.54456 0.1255 0.77424 0.0
H1695 H 0.51452 0.11897 0.78497 0.0
H1696 H 0.55692 0.10244 0.8045 0.0
H1697 H 0.59279 0.1658 0.90741 0.0
H1698 H 0.57499 0.14926 0.94455 0.0
H1699 H 0.57086 0.15713 0.88375 0.0
C1700 C 0.524 0.1162 0.91461 0.0
C1701 C 0.51404 0.11563 0.8704 0.0
C1702 C 0.54111 0.11995 0.90835 0.0
C1703 C 0.54869 0.12322 0.85781 0.0
C1704 C 0.53898 0.12309 0.81366 0.0
H1705 H 0.65681 0.15689 0.79076 0.0
H1706 H 0.62807 0.15389 0.79634 0.0
C1707 C 0.52184 0.11946 0.81991 0.0
C1708 C 0.56635 0.12568 0.85105 0.0
H1709 H 0.60858 0.15139 0.88832 0.0
C1710 C 0.56824 0.11321 0.82248 0.0
C1711 C 0.58111 0.13976 0.87437 0.0
C1712 C 0.57994 0.15386 0.90388 0.0
C1713 C 0.58445 0.11423 0.81763 0.0
C1714 C 0.59912 0.12802 0.84239 0.0
C1715 C 0.59729 0.14072 0.86985 0.0
C1716 C 0.61654 0.12968 0.83942 0.0
C1717 C 0.58577 0.10064 0.7857 0.0
C1718 C 0.6197 0.11715 0.86237 0.0
C1719 C 0.63619 0.11885 0.85945 0.0
C1720 C 0.64983 0.13313 0.8335 0.0
C1721 C 0.64662 0.14571 0.81095 0.0
C1722 C 0.63018 0.14403 0.81413 0.0
H1723 H 0.57437 0.09334 0.75938 0.0
H1724 H 0.59768 0.10658 0.76099 0.0
H1725 H 0.58647 0.09127 0.81318 0.0
H1726 H 0.60943 0.10609 0.88281 0.0
H1727 H 0.63821 0.10894 0.87725 0.0
H1728 H 0.89102 0.39764 0.79001 0.0
H1729 H 0.88516 0.42159 0.77789 0.0
H1730 H 0.88887 0.43017 0.947 0.0
H1731 H 0.89456 0.40636 0.95951 0.0
H1732 H 0.86116 0.43196 0.8992 0.0
H1733 H 0.92368 0.47295 0.79518 0.0
H1734 H 0.90996 0.45184 0.76721 0.0
H1735 H 0.91923 0.45377 0.83191 0.0
C1736 C 0.89028 0.40444 0.82465 0.0
C1737 C 0.89337 0.40012 0.87569 0.0
C1738 C 0.8871 0.41823 0.81763 0.0
C1739 C 0.88689 0.42787 0.8615 0.0
C1740 C 0.88909 0.42301 0.91256 0.0
H1741 H 0.9011 0.53154 0.88337 0.0
H1742 H 0.90357 0.50538 0.88961 0.0
C1743 C 0.89235 0.40936 0.91959 0.0
C1744 C 0.88495 0.44339 0.85479 0.0
H1745 H 0.90533 0.48473 0.80614 0.0
C1746 C 0.87075 0.44346 0.87856 0.0
C1747 C 0.89766 0.4585 0.82875 0.0
C1748 C 0.91359 0.45943 0.80461 0.0
C1749 C 0.86886 0.4582 0.87675 0.0
C1750 C 0.88142 0.47322 0.84996 0.0
C1751 C 0.89567 0.47318 0.82642 0.0
C1752 C 0.87997 0.48909 0.84604 0.0
C1753 C 0.85365 0.4577 0.90465 0.0
C1754 C 0.86601 0.48868 0.81899 0.0
C1755 C 0.86456 0.50355 0.81539 0.0
C1756 C 0.87707 0.51922 0.83866 0.0
C1757 C 0.89117 0.51967 0.86535 0.0
C1758 C 0.89263 0.50475 0.86879 0.0
H1759 H 0.84768 0.44697 0.93396 0.0
H1760 H 0.85762 0.47011 0.92546 0.0
H1761 H 0.84363 0.45569 0.87487 0.0
H1762 H 0.85626 0.47684 0.80031 0.0
H1763 H 0.8536 0.50273 0.79421 0.0
H1764 H 0.61642 0.49388 0.79173 0.0
H1765 H 0.59246 0.46407 0.77927 0.0
H1766 H 0.57285 0.46523 0.93459 0.0
H1767 H 0.59654 0.49469 0.94769 0.0
H1768 H 0.58077 0.4326 0.85169 0.0
H1769 H 0.53241 0.45402 0.82541 0.0
H1770 H 0.55536 0.46842 0.81606 0.0
H1771 H 0.54655 0.46281 0.88186 0.0
C1772 C 0.60715 0.48771 0.8235 0.0
C1773 C 0.60842 0.49679 0.87058 0.0
C1774 C 0.59345 0.4707 0.81625 0.0
C1775 C 0.58076 0.46258 0.85573 0.0
C1776 C 0.58237 0.47135 0.90337 0.0
H1777 H 0.4817 0.36795 0.89039 0.0
H1778 H 0.50756 0.3966 0.89985 0.0
C1779 C 0.59602 0.48822 0.91077 0.0
C1780 C 0.56551 0.4451 0.84723 0.0
H1781 H 0.5215 0.42389 0.83348 0.0
C1782 C 0.56781 0.43065 0.84723 0.0
C1783 C 0.54863 0.44263 0.84205 0.0
C1784 C 0.54549 0.45777 0.84092 0.0
C1785 C 0.55359 0.41372 0.84346 0.0
C1786 C 0.53665 0.41122 0.83809 0.0
C1787 C 0.53443 0.42575 0.83766 0.0
C1788 C 0.52105 0.39369 0.83272 0.0
C1789 C 0.55684 0.39869 0.84713 0.0
C1790 C 0.51987 0.38257 0.79145 0.0
C1791 C 0.50519 0.36616 0.78627 0.0
C1792 C 0.49122 0.36055 0.82178 0.0
C1793 C 0.49226 0.37182 0.86253 0.0
C1794 C 0.50703 0.38821 0.86793 0.0
H1795 H 0.56936 0.40246 0.86703 0.0
H1796 H 0.54632 0.38769 0.86925 0.0
H1797 H 0.55741 0.3942 0.8065 0.0
H1798 H 0.53023 0.38665 0.76279 0.0
H1799 H 0.50475 0.35793 0.75399 0.0
H1800 H 0.16387 0.24331 0.39801 0.0
H1801 H 0.13432 0.23691 0.41167 0.0
H1802 H 0.13098 0.20849 0.55395 0.0
H1803 H 0.16108 0.21527 0.54127 0.0
H1804 H 0.1045 0.2066 0.41464 0.0
H1805 H 0.11462 0.24077 0.60723 0.0
H1806 H 0.1324 0.24331 0.5666 0.0
H1807 H 0.12058 0.22428 0.60689 0.0
C1808 C 0.15696 0.23567 0.43237 0.0
C1809 C 0.16499 0.22985 0.46866 0.0
C1810 C 0.13997 0.23202 0.44006 0.0
C1811 C 0.13042 0.22241 0.48416 0.0
C1812 C 0.13819 0.21625 0.52018 0.0
H1813 H 0.02388 0.19136 0.5721 0.0
H1814 H 0.05274 0.19462 0.56622 0.0
C1815 C 0.15536 0.22002 0.51267 0.0
C1816 C 0.11233 0.21888 0.49121 0.0
H1817 H 0.08608 0.22618 0.5733 0.0
C1818 C 0.10048 0.21086 0.44944 0.0
C1819 C 0.10705 0.22445 0.53654 0.0
C1820 C 0.11933 0.23382 0.58173 0.0
C1821 C 0.08363 0.20836 0.45155 0.0
C1822 C 0.07846 0.21415 0.49646 0.0
C1823 C 0.09011 0.22181 0.53881 0.0
C1824 C 0.06101 0.21242 0.50002 0.0
C1825 C 0.07144 0.19947 0.40579 0.0
C1826 C 0.05612 0.22152 0.4651 0.0
C1827 C 0.03961 0.21975 0.46843 0.0
C1828 C 0.02765 0.20878 0.50669 0.0
C1829 C 0.03269 0.19982 0.54188 0.0
C1830 C 0.04921 0.20169 0.53873 0.0
H1831 H 0.07597 0.1924 0.3801 0.0
H1832 H 0.05823 0.19019 0.42043 0.0
H1833 H 0.07057 0.20931 0.38108 0.0
H1834 H 0.06511 0.23007 0.43541 0.0
H1835 H 0.03621 0.22693 0.44097 0.0
H1836 H 0.78429 0.81153 0.42426 0.0
H1837 H 0.78188 0.83759 0.4138 0.0
H1838 H 0.80943 0.85773 0.56106 0.0
H1839 H 0.81227 0.83206 0.57109 0.0
H1840 H 0.76627 0.85047 0.47606 0.0
H1841 H 0.83632 0.89856 0.4646 0.0
H1842 H 0.82811 0.87557 0.45943 0.0
H1843 H 0.83066 0.88553 0.52346 0.0
C1844 C 0.78995 0.82157 0.45419 0.0
C1845 C 0.79863 0.81976 0.49823 0.0
C1846 C 0.78855 0.83646 0.44821 0.0
C1847 C 0.7958 0.84984 0.48606 0.0
C1848 C 0.80418 0.84788 0.53049 0.0
H1849 H 0.79128 0.94493 0.53159 0.0
H1850 H 0.79678 0.92069 0.54195 0.0
C1851 C 0.80568 0.83309 0.53633 0.0
C1852 C 0.79409 0.86556 0.48012 0.0
H1853 H 0.81726 0.90984 0.47515 0.0
C1854 C 0.77744 0.86343 0.47555 0.0
C1855 C 0.80866 0.88253 0.47961 0.0
C1856 C 0.82695 0.88572 0.48151 0.0
C1857 C 0.77494 0.87775 0.47117 0.0
C1858 C 0.78948 0.89468 0.47092 0.0
C1859 C 0.80613 0.89686 0.47572 0.0
C1860 C 0.78758 0.91018 0.46357 0.0
C1861 C 0.75671 0.87467 0.46744 0.0
C1862 C 0.78117 0.91263 0.41551 0.0
C1863 C 0.77812 0.92644 0.40934 0.0
C1864 C 0.78142 0.9382 0.45115 0.0
C1865 C 0.7886 0.93617 0.49857 0.0
C1866 C 0.7917 0.92229 0.50463 0.0
H1867 H 0.74697 0.86141 0.48062 0.0
H1868 H 0.75524 0.88423 0.49181 0.0
H1869 H 0.75384 0.8762 0.42554 0.0
H1870 H 0.77819 0.90361 0.38299 0.0
H1871 H 0.77271 0.92759 0.37207 0.0
H1872 H 0.07492 0.84993 0.38406 0.0
H1873 H 0.09935 0.8789 0.3985 0.0
H1874 H 0.08997 0.87316 0.56718 0.0
H1875 H 0.0655 0.84379 0.5532 0.0
H1876 H 0.10312 0.90867 0.44522 0.0
H1877 H 0.14011 0.88364 0.5554 0.0
H1878 H 0.12069 0.86967 0.51851 0.0
H1879 H 0.11924 0.87765 0.5827 0.0
C1880 C 0.07786 0.85482 0.42432 0.0
C1881 C 0.0683 0.84439 0.46756 0.0
C1882 C 0.09187 0.87145 0.43244 0.0
C1883 C 0.09674 0.87808 0.48395 0.0
C1884 C 0.08667 0.86815 0.52712 0.0
H1885 H 0.18611 0.97224 0.59957 0.0
H1886 H 0.159 0.94491 0.58992 0.0
C1887 C 0.07257 0.85143 0.51903 0.0
C1888 C 0.11278 0.89508 0.4919 0.0
H1889 H 0.15337 0.91394 0.54593 0.0
C1890 C 0.11409 0.90984 0.46738 0.0
C1891 C 0.12715 0.89657 0.52043 0.0
C1892 C 0.12687 0.88104 0.54542 0.0
C1893 C 0.1293 0.92606 0.47104 0.0
C1894 C 0.14369 0.92752 0.4993 0.0
C1895 C 0.14233 0.9128 0.52421 0.0
C1896 C 0.16022 0.94424 0.50427 0.0
C1897 C 0.12974 0.94156 0.4453 0.0
C1898 C 0.17012 0.95289 0.4593 0.0
C1899 C 0.18572 0.9686 0.46464 0.0
C1900 C 0.19174 0.9759 0.51512 0.0
C1901 C 0.18188 0.96705 0.56003 0.0
C1902 C 0.16634 0.95139 0.55465 0.0
H1903 H 0.1165 0.93921 0.43681 0.0
H1904 H 0.13656 0.9532 0.47094 0.0
H1905 H 0.13683 0.94434 0.40709 0.0
H1906 H 0.16584 0.94743 0.42007 0.0
H1907 H 0.19304 0.97502 0.42929 0.0
H1908 H 0.14904 0.37674 0.22179 0.0
H1909 H 0.16214 0.35905 0.2414 0.0
H1910 H 0.16307 0.37046 0.40816 0.0
H1911 H 0.14966 0.38811 0.3889 0.0
H1912 H 0.19427 0.37054 0.28791 0.0
H1913 H 0.14188 0.31782 0.40652 0.0
H1914 H 0.13831 0.33252 0.36631 0.0
H1915 H 0.14876 0.33934 0.42983 0.0
C1916 C 0.15182 0.37535 0.26279 0.0
C1917 C 0.14834 0.38386 0.30384 0.0
C1918 C 0.15936 0.36526 0.27386 0.0
C1919 C 0.16352 0.36338 0.32618 0.0
C1920 C 0.15972 0.37153 0.36754 0.0
H1921 H 0.21205 0.30813 0.45778 0.0
H1922 H 0.20188 0.32863 0.44293 0.0
C1923 C 0.1521 0.38163 0.35649 0.0
C1924 C 0.17248 0.35347 0.33666 0.0
H1925 H 0.16832 0.31776 0.40005 0.0
C1926 C 0.1886 0.35898 0.31239 0.0
C1927 C 0.16506 0.33844 0.36869 0.0
C1928 C 0.14748 0.33154 0.39402 0.0
C1929 C 0.19752 0.34987 0.31941 0.0
C1930 C 0.19003 0.33478 0.35107 0.0
C1931 C 0.17402 0.32938 0.37586 0.0
C1932 C 0.19834 0.32411 0.35834 0.0
C1933 C 0.21498 0.35655 0.29365 0.0
C1934 C 0.20011 0.31509 0.31537 0.0
C1935 C 0.20591 0.3033 0.32368 0.0
C1936 C 0.20992 0.30031 0.37519 0.0
C1937 C 0.20896 0.31004 0.41764 0.0
C1938 C 0.20313 0.32176 0.4093 0.0
H1939 H 0.22061 0.3702 0.2804 0.0
H1940 H 0.22413 0.35566 0.32161 0.0
H1941 H 0.21361 0.3485 0.2584 0.0
H1942 H 0.19629 0.3166 0.27578 0.0
H1943 H 0.20654 0.29603 0.29017 0.0
H1944 H 0.69989 0.90268 0.44488 0.0
H1945 H 0.68196 0.87166 0.42819 0.0
H1946 H 0.69945 0.87937 0.2657 0.0
H1947 H 0.71756 0.91055 0.28206 0.0
H1948 H 0.65548 0.85218 0.34866 0.0
H1949 H 0.71397 0.84523 0.3318 0.0
H1950 H 0.71467 0.86409 0.36079 0.0
H1951 H 0.71339 0.86131 0.29004 0.0
C1952 C 0.69977 0.89784 0.40535 0.0
C1953 C 0.71035 0.90901 0.36498 0.0
C1954 C 0.6895 0.88011 0.39593 0.0
C1955 C 0.6897 0.87324 0.3461 0.0
C1956 C 0.6994 0.88446 0.30471 0.0
H1957 H 0.64292 0.76831 0.22918 0.0
H1958 H 0.66089 0.79949 0.24317 0.0
C1959 C 0.70964 0.90225 0.31403 0.0
C1960 C 0.68041 0.85426 0.33865 0.0
H1961 H 0.68684 0.81995 0.31991 0.0
C1962 C 0.66229 0.84511 0.34232 0.0
C1963 C 0.68942 0.84514 0.3307 0.0
C1964 C 0.70895 0.85436 0.32845 0.0
C1965 C 0.65289 0.82701 0.33751 0.0
C1966 C 0.66191 0.81786 0.33001 0.0
C1967 C 0.68002 0.82703 0.32604 0.0
C1968 C 0.65263 0.79881 0.32428 0.0
C1969 C 0.63336 0.81784 0.33945 0.0
C1970 C 0.64267 0.78803 0.36613 0.0
C1971 C 0.63239 0.77017 0.35835 0.0
C1972 C 0.63194 0.76286 0.30852 0.0
C1973 C 0.64284 0.77358 0.26786 0.0
C1974 C 0.65312 0.79139 0.27573 0.0
H1975 H 0.62838 0.82693 0.33386 0.0
H1976 H 0.62762 0.80764 0.30843 0.0
H1977 H 0.62888 0.8115 0.37872 0.0
H1978 H 0.64242 0.79352 0.40427 0.0
H1979 H 0.62424 0.76224 0.39055 0.0
H1980 H 0.23928 0.87572 0.21905 0.0
H1981 H 0.20855 0.86499 0.23444 0.0
H1982 H 0.21545 0.85916 0.40116 0.0
H1983 H 0.24636 0.87 0.38622 0.0
H1984 H 0.18639 0.83143 0.27563 0.0
H1985 H 0.1855 0.88263 0.39905 0.0
H1986 H 0.2039 0.88655 0.3589 0.0
H1987 H 0.20003 0.87544 0.42124 0.0
C1988 C 0.23436 0.87243 0.25921 0.0
C1989 C 0.24521 0.87353 0.30137 0.0
C1990 C 0.21679 0.86629 0.26786 0.0
C1991 C 0.20976 0.86129 0.31885 0.0
C1992 C 0.22069 0.86313 0.36157 0.0
H1993 H 0.10696 0.81051 0.45073 0.0
H1994 H 0.13789 0.82362 0.43325 0.0
C1995 C 0.23832 0.86927 0.35294 0.0
C1996 C 0.19078 0.85272 0.32624 0.0
H1997 H 0.15893 0.85622 0.3899 0.0
C1998 C 0.18034 0.83688 0.30034 0.0
C1999 C 0.18302 0.85987 0.3586 0.0
C2000 C 0.19363 0.87713 0.38577 0.0
C2001 C 0.1623 0.82778 0.30684 0.0
C2002 C 0.15451 0.83489 0.33935 0.0
C2003 C 0.16496 0.8508 0.36498 0.0
C2004 C 0.13557 0.82587 0.34852 0.0
C2005 C 0.1518 0.81042 0.28009 0.0
C2006 C 0.12396 0.82254 0.30645 0.0
C2007 C 0.10618 0.81492 0.31626 0.0
C2008 C 0.0998 0.81069 0.36838 0.0
C2009 C 0.11145 0.81367 0.41012 0.0
C2010 C 0.12915 0.82121 0.40028 0.0
H2011 H 0.16 0.80492 0.26755 0.0
H2012 H 0.14148 0.80103 0.30689 0.0
H2013 H 0.1455 0.81198 0.24414 0.0
H2014 H 0.12869 0.82628 0.26627 0.0
H2015 H 0.09753 0.81288 0.28336 0.0
H2016 H 0.81437 0.70927 0.5395 0.0
H2017 H 0.82461 0.68895 0.55629 0.0
H2018 H 0.81952 0.69358 0.72489 0.0
H2019 H 0.809 0.71384 0.70844 0.0
H2020 H 0.85427 0.69652 0.61305 0.0
H2021 H 0.796 0.64113 0.70273 0.0
H2022 H 0.79508 0.65809 0.66625 0.0
H2023 H 0.80263 0.66164 0.73376 0.0
C2024 C 0.8152 0.70582 0.58021 0.0
C2025 C 0.81094 0.71322 0.62271 0.0
C2026 C 0.82109 0.69422 0.58967 0.0
C2027 C 0.82274 0.6897 0.64175 0.0
C2028 C 0.81808 0.6967 0.68433 0.0
H2029 H 0.86349 0.62985 0.78485 0.0
H2030 H 0.85244 0.64929 0.76475 0.0
C2031 C 0.81214 0.70832 0.67489 0.0
C2032 C 0.83032 0.67848 0.65127 0.0
H2033 H 0.82214 0.64018 0.70653 0.0
C2034 C 0.84723 0.68415 0.63322 0.0
C2035 C 0.82107 0.66237 0.67755 0.0
C2036 C 0.80263 0.65533 0.69582 0.0
C2037 C 0.85529 0.67428 0.64175 0.0
C2038 C 0.84609 0.65824 0.66836 0.0
C2039 C 0.82915 0.65252 0.68614 0.0
C2040 C 0.85391 0.64733 0.67956 0.0
C2041 C 0.87373 0.68129 0.62349 0.0
C2042 C 0.8586 0.63993 0.63816 0.0
C2043 C 0.86499 0.62879 0.6495 0.0
C2044 C 0.86666 0.62481 0.70241 0.0
C2045 C 0.86232 0.63259 0.74363 0.0
C2046 C 0.85597 0.64369 0.73229 0.0
H2047 H 0.88021 0.69537 0.61463 0.0
H2048 H 0.88141 0.67907 0.65401 0.0
H2049 H 0.87376 0.67446 0.58671 0.0
H2050 H 0.85688 0.64242 0.59715 0.0
H2051 H 0.86817 0.62295 0.61692 0.0
H2052 H 0.29971 0.10566 0.53413 0.0
H2053 H 0.31911 0.13665 0.54683 0.0
H2054 H 0.31394 0.12972 0.7166 0.0
H2055 H 0.29434 0.09857 0.70434 0.0
H2056 H 0.30732 0.15585 0.67435 0.0
H2057 H 0.36953 0.16321 0.6018 0.0
H2058 H 0.35133 0.1516 0.5582 0.0
H2059 H 0.35152 0.14258 0.6218 0.0
C2060 C 0.30287 0.11065 0.57425 0.0
C2061 C 0.29545 0.09968 0.61828 0.0
C2062 C 0.31402 0.12837 0.58137 0.0
C2063 C 0.31801 0.13541 0.6326 0.0
C2064 C 0.31101 0.12446 0.67674 0.0
H2065 H 0.3759 0.23622 0.77045 0.0
H2066 H 0.3556 0.20597 0.75022 0.0
C2067 C 0.29988 0.10669 0.66967 0.0
C2068 C 0.32862 0.15434 0.63987 0.0
H2069 H 0.36892 0.18901 0.61907 0.0
C2070 C 0.3208 0.16312 0.66245 0.0
C2071 C 0.34612 0.16374 0.62363 0.0
C2072 C 0.35521 0.15483 0.60037 0.0
C2073 C 0.33006 0.18114 0.66924 0.0
C2074 C 0.34765 0.19051 0.65381 0.0
C2075 C 0.35539 0.18176 0.63053 0.0
C2076 C 0.35862 0.2092 0.66504 0.0
C2077 C 0.32092 0.19001 0.69244 0.0
C2078 C 0.36705 0.22106 0.62374 0.0
C2079 C 0.37877 0.23844 0.63518 0.0
C2080 C 0.38236 0.2441 0.68816 0.0
C2081 C 0.37346 0.23227 0.72922 0.0
C2082 C 0.36175 0.21498 0.71776 0.0
H2083 H 0.30665 0.18206 0.68743 0.0
H2084 H 0.32372 0.19202 0.7356 0.0
H2085 H 0.32547 0.20285 0.67371 0.0
H2086 H 0.36483 0.21678 0.58277 0.0
H2087 H 0.38544 0.24727 0.60273 0.0
H2088 H 0.91355 0.19908 0.7176 0.0
H2089 H 0.88239 0.18585 0.73491 0.0
H2090 H 0.8734 0.19073 0.56922 0.0
H2091 H 0.90433 0.20382 0.55147 0.0
H2092 H 0.85815 0.19765 0.71329 0.0
H2093 H 0.84316 0.13824 0.6003 0.0
H2094 H 0.8648 0.15372 0.62189 0.0
H2095 H 0.85566 0.15813 0.56448 0.0
C2096 C 0.90496 0.19754 0.68501 0.0
C2097 C 0.91137 0.20228 0.63305 0.0
C2098 C 0.88718 0.18994 0.69493 0.0
C2099 C 0.87561 0.18695 0.65306 0.0
C2100 C 0.8821 0.19257 0.60181 0.0
H2101 H 0.7642 0.14023 0.62198 0.0
H2102 H 0.79538 0.15312 0.60614 0.0
C2103 C 0.8998 0.20013 0.59185 0.0
C2104 C 0.85669 0.17758 0.66243 0.0
H2105 H 0.81919 0.14084 0.62887 0.0
C2106 C 0.84962 0.18519 0.69514 0.0
C2107 C 0.84565 0.16133 0.63852 0.0
C2108 C 0.85266 0.15226 0.60469 0.0
C2109 C 0.83169 0.17713 0.70374 0.0
C2110 C 0.82064 0.16091 0.67969 0.0
C2111 C 0.82772 0.15328 0.64711 0.0
C2112 C 0.80169 0.15168 0.68827 0.0
C2113 C 0.82467 0.18621 0.73754 0.0
C2114 C 0.79491 0.14599 0.73922 0.0
C2115 C 0.77718 0.13862 0.74835 0.0
C2116 C 0.76587 0.13675 0.70662 0.0
C2117 C 0.77257 0.14156 0.65498 0.0
C2118 C 0.79037 0.14896 0.64589 0.0
H2119 H 0.83425 0.20019 0.74248 0.0
H2120 H 0.81266 0.18493 0.71993 0.0
H2121 H 0.82145 0.18018 0.77753 0.0
H2122 H 0.80341 0.14763 0.7722 0.0
H2123 H 0.77242 0.13488 0.78852 0.0
H2124 H 0.47468 0.03758 0.88205 0.0
H2125 H 0.48779 0.01991 0.90233 0.0
H2126 H 0.49109 0.03374 0.0677 0.0
H2127 H 0.47779 0.05142 0.04785 0.0
H2128 H 0.52109 0.0331 0.94695 0.0
H2129 H 0.47022 0.98076 0.07077 0.0
H2130 H 0.46584 0.99452 0.02861 0.0
H2131 H 0.4766 1.00245 0.09119 0.0
C2132 C 0.47795 0.03669 0.92292 0.0
C2133 C 0.47528 0.04598 0.96335 0.0
C2134 C 0.48548 0.02661 0.93436 0.0
C2135 C 0.49038 0.02551 0.98645 0.0
C2136 C 0.4872 0.03426 0.02731 0.0
H2137 H 0.54137 0.97295 0.12047 0.0
H2138 H 0.53021 0.99263 0.10517 0.0
C2139 C 0.47963 0.04438 0.0159 0.0
C2140 C 0.49973 0.016 0.99707 0.0
H2141 H 0.49691 0.98127 0.06305 0.0
C2142 C 0.51581 0.02175 0.97228 0.0
C2143 C 0.49283 1.00128 0.0303 0.0
C2144 C 0.47536 0.99425 0.05649 0.0
C2145 C 0.52522 0.01316 0.98001 0.0
C2146 C 0.51822 0.99832 0.01275 0.0
C2147 C 0.50224 0.99269 0.03802 0.0
C2148 C 0.52701 0.98813 0.0205 0.0
C2149 C 0.54267 0.02017 0.95384 0.0
C2150 C 0.52928 0.97939 0.97767 0.0
C2151 C 0.53567 0.96811 0.98623 0.0
C2152 C 0.53976 0.96531 0.03787 0.0
C2153 C 0.53825 0.97474 0.08024 0.0
C2154 C 0.53185 0.98597 0.07164 0.0
H2155 H 0.54804 0.03382 0.94091 0.0
H2156 H 0.55204 0.01943 0.98129 0.0
H2157 H 0.54135 0.01226 0.91826 0.0
H2158 H 0.52542 0.98071 0.93796 0.0
H2159 H 0.53671 0.96105 0.95277 0.0
H2160 H 0.04352 0.56898 0.11726 0.0
H2161 H 0.02395 0.53844 0.09834 0.0
H2162 H 0.03251 0.54865 0.93046 0.0
H2163 H 0.05241 0.5794 0.94906 0.0
H2164 H 0.99361 0.52157 0.03658 0.0
H2165 H 0.04616 0.51135 0.95837 0.0
H2166 H 0.05048 0.53047 0.99518 0.0
H2167 H 0.04403 0.52827 0.92674 0.0
C2168 C 0.04119 0.56481 0.07622 0.0
C2169 C 0.0497 0.57656 0.03463 0.0
C2170 C 0.02997 0.54733 0.06554 0.0
C2171 C 0.02708 0.54127 0.01314 0.0
C2172 C 0.03489 0.55307 0.97126 0.0
H2173 H 0.96726 0.43874 0.88024 0.0
H2174 H 0.9866 0.46958 0.89597 0.0
C2175 C 0.04614 0.57062 0.98192 0.0
C2176 C 0.01625 0.52249 0.00298 0.0
H2177 H 0.01775 0.48733 0.95628 0.0
C2178 C 0.99885 0.51406 0.01901 0.0
C2179 C 0.02322 0.51278 0.98035 0.0
C2180 C 0.04203 0.5211 0.96451 0.0
C2181 C 0.98815 0.49614 0.01241 0.0
C2182 C 0.99515 0.48642 0.99003 0.0
C2183 C 0.0125 0.49486 0.97369 0.0
C2184 C 0.98444 0.46755 0.9815 0.0
C2185 C 0.96936 0.48779 0.02851 0.0
C2186 C 0.97727 0.45614 0.02459 0.0
C2187 C 0.96619 0.43844 0.01578 0.0
C2188 C 0.96216 0.43195 0.96372 0.0
C2189 C 0.97 0.44335 0.92083 0.0
C2190 C 0.98107 0.46098 0.92968 0.0
H2191 H 0.96517 0.4975 0.03425 0.0
H2192 H 0.96089 0.47826 0.9982 0.0
H2193 H 0.96747 0.48078 0.06656 0.0
H2194 H 0.98 0.46098 0.06494 0.0
H2195 H 0.96042 0.42996 0.04961 0.0
H2196 H 0.43974 0.46653 0.11217 0.0
H2197 H 0.47069 0.47951 0.0946 0.0
H2198 H 0.46246 0.48891 0.93214 0.0
H2199 H 0.43136 0.47603 0.94946 0.0
H2200 H 0.48963 0.47199 0.01845 0.0
H2201 H 0.49755 0.53746 0.99131 0.0
H2202 H 0.47842 0.51974 0.02063 0.0
H2203 H 0.48144 0.52073 0.94995 0.0
C2204 C 0.44445 0.47118 0.07249 0.0
C2205 C 0.43313 0.47047 0.03235 0.0
C2206 C 0.46215 0.47859 0.06257 0.0
C2207 C 0.46888 0.48548 0.01244 0.0
C2208 C 0.45752 0.48395 0.97141 0.0
H2209 H 0.57217 0.54054 0.8834 0.0
H2210 H 0.5412 0.52729 0.90106 0.0
C2211 C 0.43976 0.47648 0.98126 0.0
C2212 C 0.48785 0.49484 0.00403 0.0
H2213 H 0.52236 0.53483 0.97734 0.0
C2214 C 0.49682 0.48573 0.00953 0.0
C2215 C 0.49714 0.51278 0.99276 0.0
C2216 C 0.48822 0.52334 0.98871 0.0
C2217 C 0.51486 0.49404 0.00301 0.0
C2218 C 0.52415 0.51198 0.99173 0.0
C2219 C 0.51518 0.52109 0.98626 0.0
C2220 C 0.54311 0.52135 0.98318 0.0
C2221 C 0.52378 0.48348 0.00699 0.0
C2222 C 0.55452 0.52296 0.02415 0.0
C2223 C 0.5723 0.5306 0.01426 0.0
C2224 C 0.57888 0.53669 0.96318 0.0
C2225 C 0.56749 0.53584 0.92307 0.0
C2226 C 0.54978 0.52828 0.93305 0.0
H2227 H 0.51445 0.46936 0.0046 0.0
H2228 H 0.53353 0.48705 0.97492 0.0
H2229 H 0.53064 0.48615 0.04564 0.0
H2230 H 0.54962 0.51798 0.06343 0.0
H2231 H 0.58075 0.53114 0.04602 0.0
H2232 H 0.09463 0.40166 0.91996 0.0
H2233 H 0.09834 0.40911 0.8257 0.0
H2234 H 0.14573 0.45641 0.86038 0.0
H2235 H 0.14213 0.44901 0.95525 0.0
H2236 H 0.10341 0.44035 0.76997 0.0
H2237 H 0.15869 0.42811 0.75332 0.0
H2238 H 0.14373 0.42021 0.80842 0.0
H2239 H 0.15987 0.4427 0.80467 0.0
C2240 C 0.10572 0.41379 0.90768 0.0
C2241 C 0.11808 0.42475 0.94506 0.0
C2242 C 0.10781 0.41802 0.85382 0.0
C2243 C 0.1224 0.43319 0.83609 0.0
C2244 C 0.13444 0.44457 0.87337 0.0
H2245 H 0.1394 0.47118 0.51041 0.0
H2246 H 0.13791 0.46879 0.60695 0.0
C2247 C 0.13227 0.44041 0.92757 0.0
C2248 C 0.12525 0.43647 0.77829 0.0
H2249 H 0.14978 0.43588 0.67495 0.0
C2250 C 0.11364 0.43955 0.74918 0.0
C2251 C 0.13844 0.43511 0.75135 0.0
C2252 C 0.15088 0.43124 0.78073 0.0
C2253 C 0.11488 0.44132 0.69369 0.0
C2254 C 0.12809 0.44 0.66677 0.0
C2255 C 0.13972 0.43694 0.69585 0.0
C2256 C 0.12984 0.44156 0.60824 0.0
C2257 C 0.10179 0.44415 0.66403 0.0
C2258 C 0.12616 0.42709 0.57698 0.0
C2259 C 0.12691 0.42835 0.52149 0.0
C2260 C 0.13155 0.44419 0.49625 0.0
C2261 C 0.13565 0.45873 0.52815 0.0
C2262 C 0.13482 0.45743 0.58346 0.0
H2263 H 0.09058 0.44166 0.68938 0.0
H2264 H 0.10808 0.45777 0.65007 0.0
H2265 H 0.09694 0.43562 0.6286 0.0
H2266 H 0.12226 0.41471 0.59552 0.0
H2267 H 0.12332 0.41674 0.49875 0.0
H2268 H 0.61306 0.70591 0.93256 0.0
H2269 H 0.60679 0.70208 0.83788 0.0
H2270 H 0.55306 0.68478 0.86974 0.0
H2271 H 0.55931 0.68921 0.96487 0.0
H2272 H 0.58524 0.67432 0.77687 0.0
H2273 H 0.56615 0.72483 0.76782 0.0
H2274 H 0.57642 0.72183 0.82538 0.0
H2275 H 0.55373 0.70748 0.81339 0.0
C2276 C 0.59986 0.70122 0.91966 0.0
C2277 C 0.58673 0.69797 0.95662 0.0
C2278 C 0.5963 0.69898 0.8654 0.0
C2279 C 0.57954 0.69348 0.84661 0.0
C2280 C 0.56617 0.68939 0.88333 0.0
H2281 H 0.53973 0.67893 0.52442 0.0
H2282 H 0.54328 0.67995 0.62081 0.0
C2283 C 0.56974 0.69169 0.93789 0.0
C2284 C 0.5764 0.69257 0.78848 0.0
H2285 H 0.56408 0.70994 0.68812 0.0
C2286 C 0.58059 0.68209 0.75748 0.0
C2287 C 0.57044 0.70282 0.76319 0.0
C2288 C 0.56656 0.715 0.79398 0.0
C2289 C 0.5789 0.68151 0.70197 0.0
C2290 C 0.57304 0.6918 0.67679 0.0
C2291 C 0.56862 0.70211 0.70768 0.0
C2292 C 0.57116 0.69185 0.61835 0.0
C2293 C 0.58324 0.66976 0.67064 0.0
C2294 C 0.58573 0.69852 0.58507 0.0
C2295 C 0.58377 0.69804 0.52981 0.0
C2296 C 0.56718 0.69085 0.50697 0.0
C2297 C 0.55268 0.68448 0.54067 0.0
C2298 C 0.55467 0.68508 0.59577 0.0
H2299 H 0.58415 0.66013 0.69642 0.0
H2300 H 0.57334 0.66275 0.63947 0.0
H2301 H 0.59592 0.67767 0.65068 0.0
H2302 H 0.5986 0.70395 0.60187 0.0
H2303 H 0.59521 0.70282 0.50518 0.0
H2304 H 0.30235 0.90837 0.92934 0.0
H2305 H 0.30638 0.90634 0.83466 0.0
H2306 H 0.32525 0.8711 0.86566 0.0
H2307 H 0.32062 0.87252 0.96096 0.0
H2308 H 0.3341 0.91348 0.77313 0.0
H2309 H 0.28545 0.84328 0.76396 0.0
H2310 H 0.28812 0.8563 0.82183 0.0
H2311 H 0.30313 0.84883 0.80886 0.0
C2312 C 0.30745 0.90022 0.91626 0.0
C2313 C 0.31103 0.89052 0.953 0.0
C2314 C 0.3098 0.89913 0.86198 0.0
C2315 C 0.31577 0.8883 0.8429 0.0
C2316 C 0.32026 0.87926 0.87944 0.0
H2317 H 0.33042 0.86527 0.5179 0.0
H2318 H 0.3296 0.86722 0.61453 0.0
C2319 C 0.31785 0.8803 0.93408 0.0
C2320 C 0.31665 0.8862 0.78465 0.0
H2321 H 0.29961 0.85663 0.68392 0.0
C2322 C 0.32659 0.90104 0.75366 0.0
C2323 C 0.30674 0.86997 0.75922 0.0
C2324 C 0.29512 0.85369 0.79 0.0
C2325 C 0.32691 0.9001 0.69805 0.0
C2326 C 0.3169 0.88392 0.67272 0.0
C2327 C 0.3072 0.86903 0.70359 0.0
C2328 C 0.31658 0.88218 0.61416 0.0
C2329 C 0.33804 0.91639 0.66672 0.0
C2330 C 0.30919 0.88964 0.58196 0.0
C2331 C 0.30954 0.88848 0.52654 0.0
C2332 C 0.31734 0.87984 0.50248 0.0
C2333 C 0.32439 0.87209 0.53511 0.0
C2334 C 0.32391 0.87314 0.59035 0.0
H2335 H 0.34754 0.92706 0.69235 0.0
H2336 H 0.34515 0.91392 0.6349 0.0
H2337 H 0.32964 0.92073 0.64755 0.0
H2338 H 0.30333 0.89654 0.59971 0.0
H2339 H 0.30422 0.89483 0.50275 0.0
H2340 H 0.89353 0.54811 0.4934 0.0
H2341 H 0.89552 0.55192 0.39725 0.0
H2342 H 0.87454 0.58608 0.40883 0.0
H2343 H 0.87214 0.5822 0.50489 0.0
H2344 H 0.86794 0.54467 0.32428 0.0
H2345 H 0.91978 0.61378 0.32149 0.0
H2346 H 0.91531 0.60013 0.37914 0.0
H2347 H 0.90162 0.60897 0.36348 0.0
C2348 C 0.88934 0.55649 0.47574 0.0
C2349 C 0.88292 0.56504 0.50748 0.0
C2350 C 0.89052 0.55864 0.42068 0.0
C2351 C 0.8854 0.56945 0.39608 0.0
C2352 C 0.87889 0.57795 0.42727 0.0
H2353 H 0.88083 0.60305 0.08142 0.0
H2354 H 0.87899 0.59651 0.17586 0.0
C2355 C 0.87764 0.57577 0.48242 0.0
C2356 C 0.88655 0.57155 0.33763 0.0
H2357 H 0.90593 0.6016 0.23961 0.0
C2358 C 0.87631 0.55708 0.30559 0.0
C2359 C 0.89754 0.58773 0.31359 0.0
C2360 C 0.90932 0.60354 0.34605 0.0
C2361 C 0.87633 0.5585 0.25 0.0
C2362 C 0.88714 0.57477 0.22598 0.0
C2363 C 0.89763 0.58914 0.25811 0.0
C2364 C 0.88718 0.57751 0.16786 0.0
C2365 C 0.86436 0.54275 0.21765 0.0
C2366 C 0.89224 0.56886 0.13171 0.0
C2367 C 0.8932 0.57251 0.07724 0.0
C2368 C 0.8893 0.58502 0.05832 0.0
C2369 C 0.88402 0.59342 0.0947 0.0
C2370 C 0.88295 0.58969 0.14875 0.0
H2371 H 0.85415 0.53241 0.24255 0.0
H2372 H 0.85805 0.54618 0.18559 0.0
H2373 H 0.87198 0.53744 0.19888 0.0
H2374 H 0.89591 0.55966 0.14573 0.0
H2375 H 0.89761 0.56604 0.05038 0.0
H2376 H 0.47289 0.3309 0.47567 0.0
H2377 H 0.46957 0.3291 0.37929 0.0
H2378 H 0.41402 0.30138 0.39674 0.0
H2379 H 0.41719 0.30297 0.4934 0.0
H2380 H 0.4252 0.28707 0.32074 0.0
H2381 H 0.45585 0.35798 0.28919 0.0
H2382 H 0.46932 0.35168 0.32447 0.0
H2383 H 0.44947 0.34819 0.35403 0.0
C2384 C 0.45994 0.32439 0.45908 0.0
C2385 C 0.44532 0.31705 0.49241 0.0
C2386 C 0.45808 0.32347 0.40391 0.0
C2387 C 0.44156 0.31543 0.38078 0.0
C2388 C 0.42691 0.30772 0.4138 0.0
H2389 H 0.39849 0.29986 0.06682 0.0
H2390 H 0.40465 0.30338 0.1617 0.0
C2391 C 0.42875 0.30853 0.46911 0.0
C2392 C 0.43958 0.31494 0.32215 0.0
H2393 H 0.44945 0.34058 0.21184 0.0
C2394 C 0.43047 0.29877 0.29699 0.0
C2395 C 0.4465 0.33024 0.29114 0.0
C2396 C 0.45569 0.34801 0.31605 0.0
C2397 C 0.42818 0.29748 0.24171 0.0
C2398 C 0.43505 0.31275 0.21084 0.0
C2399 C 0.44431 0.32892 0.23574 0.0
C2400 C 0.43189 0.31205 0.15295 0.0
C2401 C 0.41846 0.27978 0.21653 0.0
C2402 C 0.44534 0.31633 0.11649 0.0
C2403 C 0.44188 0.31428 0.06183 0.0
C2404 C 0.4249 0.30804 0.0429 0.0
C2405 C 0.41168 0.30452 0.07982 0.0
C2406 C 0.41515 0.30651 0.13416 0.0
H2407 H 0.41716 0.26944 0.24397 0.0
H2408 H 0.40526 0.27701 0.20544 0.0
H2409 H 0.42508 0.27929 0.17978 0.0
H2410 H 0.45838 0.32067 0.13042 0.0
H2411 H 0.45236 0.31688 0.03491 0.0
H2412 H 0.69177 0.13633 0.05008 0.0
H2413 H 0.68794 0.1383 0.14585 0.0
H2414 H 0.70338 0.10033 0.17537 0.0
H2415 H 0.70699 0.09804 0.08036 0.0
H2416 H 0.66748 0.10961 0.22758 0.0
H2417 H 0.73883 0.14614 0.25747 0.0
H2418 H 0.72888 0.14463 0.19368 0.0
H2419 H 0.73049 0.12664 0.21877 0.0
C2420 C 0.69392 0.12807 0.07674 0.0
C2421 C 0.69976 0.11706 0.05738 0.0
C2422 C 0.69185 0.12931 0.1315 0.0
C2423 C 0.69566 0.11966 0.16755 0.0
C2424 C 0.70063 0.10807 0.14819 0.0
H2425 H 0.70564 0.1131 0.50771 0.0
H2426 H 0.70662 0.11135 0.4109 0.0
C2427 C 0.70267 0.10679 0.0938 0.0
C2428 C 0.69527 0.1221 0.2256 0.0
H2429 H 0.72145 0.13683 0.33481 0.0
C2430 C 0.67925 0.11569 0.25111 0.0
C2431 C 0.71067 0.12992 0.25603 0.0
C2432 C 0.72824 0.13736 0.23025 0.0
C2433 C 0.67819 0.1165 0.30665 0.0
C2434 C 0.69362 0.12428 0.33721 0.0
C2435 C 0.70964 0.13084 0.31144 0.0
C2436 C 0.69344 0.12577 0.39594 0.0
C2437 C 0.66054 0.10849 0.33217 0.0
C2438 C 0.68611 0.13482 0.4197 0.0
C2439 C 0.68555 0.13587 0.47492 0.0
C2440 C 0.69256 0.12812 0.50777 0.0
C2441 C 0.70035 0.11946 0.48384 0.0
C2442 C 0.70081 0.11833 0.42843 0.0
H2443 H 0.65027 0.09896 0.30546 0.0
H2444 H 0.66022 0.1019 0.36992 0.0
H2445 H 0.65744 0.11882 0.34115 0.0
H2446 H 0.68077 0.14108 0.3955 0.0
H2447 H 0.6796 0.14279 0.49194 0.0
H2448 H 0.79378 0.74709 0.82924 0.0
H2449 H 0.7945 0.74448 0.92572 0.0
H2450 H 0.80828 0.79791 0.94345 0.0
H2451 H 0.80808 0.80091 0.84728 0.0
H2452 H 0.82487 0.76958 0.00362 0.0
H2453 H 0.76075 0.76523 0.02966 0.0
H2454 H 0.76684 0.75917 0.96837 0.0
H2455 H 0.77621 0.78158 0.98565 0.0
C2456 C 0.79738 0.75844 0.85326 0.0
C2457 C 0.80098 0.77428 0.83 0.0
C2458 C 0.79764 0.75686 0.90855 0.0
C2459 C 0.80133 0.77098 0.94145 0.0
C2460 C 0.80529 0.78684 0.91859 0.0
H2461 H 0.79086 0.77744 0.28454 0.0
H2462 H 0.79567 0.78437 0.18989 0.0
C2463 C 0.80513 0.78848 0.86352 0.0
C2464 C 0.80053 0.76908 0.99984 0.0
H2465 H 0.77546 0.76514 0.10715 0.0
C2466 C 0.81409 0.76859 0.02639 0.0
C2467 C 0.78655 0.76806 0.0292 0.0
C2468 C 0.77166 0.76845 0.00205 0.0
C2469 C 0.81403 0.76706 0.08192 0.0
C2470 C 0.79979 0.76554 0.11132 0.0
C2471 C 0.78637 0.76632 0.08463 0.0
C2472 C 0.79804 0.76208 0.1693 0.0
C2473 C 0.82932 0.76731 0.10855 0.0
C2474 C 0.79765 0.74721 0.18911 0.0
C2475 C 0.7951 0.74331 0.2431 0.0
C2476 C 0.79269 0.75408 0.27879 0.0
C2477 C 0.79305 0.76901 0.25881 0.0
C2478 C 0.79566 0.77294 0.20451 0.0
H2479 H 0.84119 0.77413 0.08381 0.0
H2480 H 0.83198 0.7737 0.14799 0.0
H2481 H 0.8265 0.75381 0.11426 0.0
H2482 H 0.79898 0.73839 0.16259 0.0
H2483 H 0.7949 0.73169 0.25676 0.0
H2484 H 0.21808 0.0391 0.86071 0.0
H2485 H 0.22384 0.041 0.95595 0.0
H2486 H 0.26482 0.02947 0.92854 0.0
H2487 H 0.25966 0.02857 0.83253 0.0
H2488 H 0.22016 0.01741 0.021 0.0
H2489 H 0.2892 0.06862 0.02822 0.0
H2490 H 0.27643 0.06386 0.9686 0.0
H2491 H 0.2857 0.05072 0.98727 0.0
C2492 C 0.22854 0.03731 0.87503 0.0
C2493 C 0.23855 0.03388 0.83938 0.0
C2494 C 0.23178 0.03831 0.92949 0.0
C2495 C 0.24489 0.03556 0.94979 0.0
C2496 C 0.25497 0.03215 0.91405 0.0
H2497 H 0.24391 0.01091 0.28936 0.0
H2498 H 0.23964 0.00864 0.19279 0.0
C2499 C 0.25199 0.03157 0.85919 0.0
C2500 C 0.24727 0.03548 0.00839 0.0
H2501 H 0.27712 0.05305 0.10803 0.0
C2502 C 0.23263 0.0253 0.04001 0.0
C2503 C 0.26348 0.04584 0.03348 0.0
C2504 C 0.27955 0.05801 0.00269 0.0
C2505 C 0.23364 0.02537 0.09569 0.0
C2506 C 0.24993 0.03533 0.12071 0.0
C2507 C 0.26463 0.04532 0.08905 0.0
C2508 C 0.25202 0.03634 0.17959 0.0
C2509 C 0.21708 0.01529 0.12692 0.0
C2510 C 0.26077 0.0526 0.20447 0.0
C2511 C 0.26362 0.05388 0.25921 0.0
C2512 C 0.25749 0.03893 0.29056 0.0
C2513 C 0.24844 0.02262 0.26614 0.0
C2514 C 0.24595 0.02134 0.21097 0.0
H2515 H 0.20559 0.01298 0.10326 0.0
H2516 H 0.2154 1.00248 0.1377 0.0
H2517 H 0.21735 0.02217 0.16394 0.0
H2518 H 0.26557 0.06438 0.18142 0.0
H2519 H 0.27068 0.06661 0.27711 0.0
H2520 H 0.94515 0.20353 0.25423 0.0
H2521 H 0.95043 0.20273 0.15974 0.0
H2522 H 1.0053 0.22678 0.18966 0.0
H2523 H 1.00007 0.22749 0.28517 0.0
H2524 H 0.96983 0.23175 0.09847 0.0
H2525 H 0.99616 0.18692 0.08874 0.0
H2526 H 0.98475 0.18824 0.14616 0.0
H2527 H 0.00683 0.20467 0.13445 0.0
C2528 C 0.95835 0.20847 0.24091 0.0
C2529 C 0.97219 0.21556 0.27722 0.0
C2530 C 0.96133 0.20799 0.18685 0.0
C2531 C 0.97822 0.21462 0.16764 0.0
C2532 C 0.99212 0.22131 0.20377 0.0
H2533 H 0.01485 0.22836 0.84099 0.0
H2534 H 0.0128 0.22886 0.93747 0.0
C2535 C 0.98912 0.2217 0.25831 0.0
C2536 C 0.98109 0.21549 0.10945 0.0
H2537 H 0.99528 0.20021 0.00841 0.0
C2538 C 0.97541 0.22486 0.07878 0.0
C2539 C 0.98844 0.20656 0.08393 0.0
C2540 C 0.99429 0.1959 0.1148 0.0
C2541 C 0.97675 0.22545 0.02326 0.0
C2542 C 0.98377 0.21624 0.99765 0.0
C2543 C 0.98982 0.20718 0.02827 0.0
C2544 C 0.98484 0.21582 0.93903 0.0
C2545 C 0.97079 0.23604 0.99247 0.0
C2546 C 0.96976 0.20816 0.90791 0.0
C2547 C 0.97083 0.20777 0.85254 0.0
C2548 C 0.98706 0.21509 0.8272 0.0
C2549 C 1.00212 0.22261 0.85887 0.0
C2550 C 1.00101 0.22293 0.91412 0.0
H2551 H 0.9697 0.24558 0.0182 0.0
H2552 H 0.97982 0.24309 0.95937 0.0
H2553 H 0.95783 0.22728 0.97519 0.0
H2554 H 0.95712 0.20228 0.92653 0.0
H2555 H 0.9589 0.2014 0.83006 0.0
H2556 H 0.54007 0.92268 0.8308 0.0
H2557 H 0.54311 0.92705 0.73472 0.0
H2558 H 0.55225 0.88416 0.71914 0.0
H2559 H 0.54947 0.87974 0.81489 0.0
H2560 H 0.57155 0.93322 0.66654 0.0
H2561 H 0.5116 0.87186 0.61636 0.0
H2562 H 0.51593 0.88105 0.68228 0.0
H2563 H 0.5264 0.8695 0.65928 0.0
C2564 C 0.543 0.91431 0.80735 0.0
C2565 C 0.54456 0.90084 0.83113 0.0
C2566 C 0.5446 0.91677 0.75219 0.0
C2567 C 0.5476 0.90574 0.7197 0.0
C2568 C 0.54956 0.89259 0.7433 0.0
H2569 H 0.55898 0.89909 0.37637 0.0
H2570 H 0.55614 0.89366 0.47241 0.0
C2571 C 0.54801 0.89014 0.79823 0.0
C2572 C 0.54882 0.908 0.66112 0.0
H2573 H 0.5297 0.88785 0.5445 0.0
C2574 C 0.56237 0.92334 0.63984 0.0
C2575 C 0.53691 0.89501 0.62635 0.0
C2576 C 0.52179 0.87847 0.64706 0.0
C2577 C 0.56445 0.926 0.58471 0.0
C2578 C 0.55241 0.91311 0.54988 0.0
C2579 C 0.53893 0.89769 0.57117 0.0
C2580 C 0.55325 0.91574 0.49142 0.0
C2581 C 0.57972 0.94247 0.56426 0.0
C2582 C 0.55202 0.92961 0.4701 0.0
C2583 C 0.55359 0.93272 0.41552 0.0
C2584 C 0.55621 0.9219 0.38066 0.0
C2585 C 0.55678 0.90758 0.40183 0.0
C2586 C 0.55528 0.90452 0.45679 0.0
H2587 H 0.59026 0.9484 0.59424 0.0
H2588 H 0.58502 0.94006 0.5274 0.0
H2589 H 0.57551 0.95197 0.55509 0.0
H2590 H 0.54997 0.93816 0.49581 0.0
H2591 H 0.55285 0.94373 0.40064 0.0
H2592 H 0.1394 0.66329 0.82129 0.0
H2593 H 0.13587 0.66227 0.72483 0.0
H2594 H 0.08046 0.63698 0.74361 0.0
H2595 H 0.08382 0.63805 0.8403 0.0
H2596 H 0.11485 0.63155 0.65723 0.0
H2597 H 0.09474 0.68136 0.64978 0.0
H2598 H 0.10599 0.679 0.70602 0.0
H2599 H 0.08338 0.66395 0.69629 0.0
C2600 C 0.12643 0.65745 0.80497 0.0
C2601 C 0.1119 0.65067 0.8386 0.0
C2602 C 0.12446 0.65685 0.74985 0.0
C2603 C 0.10793 0.64971 0.72724 0.0
C2604 C 0.09334 0.64267 0.76046 0.0
H2605 H 0.06497 0.63581 0.41505 0.0
H2606 H 0.07174 0.63969 0.50936 0.0
C2607 C 0.09529 0.64313 0.8157 0.0
C2608 C 0.10602 0.64977 0.66885 0.0
H2609 H 0.09361 0.66721 0.56926 0.0
C2610 C 0.11029 0.63939 0.63781 0.0
C2611 C 0.10013 0.66008 0.6439 0.0
C2612 C 0.0959 0.67186 0.67548 0.0
C2613 C 0.10828 0.63859 0.58236 0.0
C2614 C 0.10227 0.64884 0.55728 0.0
C2615 C 0.09828 0.65944 0.58845 0.0
C2616 C 0.09884 0.6478 0.49929 0.0
C2617 C 0.11195 0.62629 0.55146 0.0
C2618 C 0.11195 0.65157 0.4619 0.0
C2619 C 0.10809 0.64921 0.40751 0.0
C2620 C 0.09105 0.64321 0.38959 0.0
C2621 C 0.0782 0.64027 0.42724 0.0
C2622 C 0.08205 0.64255 0.48133 0.0
H2623 H 0.11236 0.61646 0.57762 0.0
H2624 H 0.10199 0.61946 0.52032 0.0
H2625 H 0.12474 0.63371 0.53174 0.0
H2626 H 0.1251 0.65601 0.47481 0.0
H2627 H 0.11833 0.65145 0.38005 0.0
H2628 H 0.3965 0.46827 0.4144 0.0
H2629 H 0.39097 0.46964 0.50836 0.0
H2630 H 0.33658 0.44837 0.47552 0.0
H2631 H 0.342 0.44667 0.38054 0.0
H2632 H 0.37573 0.48648 0.56271 0.0
H2633 H 0.33825 0.41482 0.58656 0.0
H2634 H 0.3514 0.42509 0.52878 0.0
H2635 H 0.33085 0.42397 0.53636 0.0
C2636 C 0.38334 0.46394 0.42692 0.0
C2637 C 0.36968 0.45728 0.38991 0.0
C2638 C 0.38022 0.46481 0.48072 0.0
C2639 C 0.36336 0.4589 0.49905 0.0
C2640 C 0.34969 0.45279 0.4622 0.0
H2641 H 0.32886 0.44591 0.82858 0.0
H2642 H 0.33021 0.44625 0.73188 0.0
C2643 C 0.35282 0.452 0.40791 0.0
C2644 C 0.36036 0.45873 0.55707 0.0
H2645 H 0.34329 0.4316 0.6635 0.0
C2646 C 0.36851 0.4745 0.58476 0.0
C2647 C 0.35101 0.44307 0.58571 0.0
C2648 C 0.34244 0.42573 0.55813 0.0
C2649 C 0.36768 0.47504 0.64037 0.0
C2650 C 0.35877 0.45935 0.66917 0.0
C2651 C 0.35023 0.44361 0.64138 0.0
C2652 C 0.35814 0.45899 0.72814 0.0
C2653 C 0.37627 0.49243 0.66772 0.0
C2654 C 0.37341 0.46577 0.75839 0.0
C2655 C 0.37273 0.46567 0.81398 0.0
C2656 C 0.35671 0.45864 0.84047 0.0
C2657 C 0.34145 0.45154 0.80978 0.0
C2658 C 0.34216 0.45166 0.75436 0.0
H2659 H 0.37823 0.50298 0.64011 0.0
H2660 H 0.36847 0.49244 0.70206 0.0
H2661 H 0.38917 0.49534 0.6826 0.0
H2662 H 0.38589 0.47121 0.73899 0.0
H2663 H 0.3848 0.47151 0.8358 0.0
H2664 H 0.47356 0.07786 0.58132 0.0
H2665 H 0.47442 0.08407 0.48685 0.0
H2666 H 0.44816 0.11282 0.51613 0.0
H2667 H 0.44743 0.10679 0.61156 0.0
H2668 H 0.44554 0.07333 0.42487 0.0
H2669 H 0.48742 0.14493 0.41609 0.0
H2670 H 0.48656 0.13245 0.47368 0.0
H2671 H 0.46943 0.13706 0.46118 0.0
C2672 C 0.46815 0.08571 0.56785 0.0
C2673 C 0.46044 0.09185 0.60392 0.0
C2674 C 0.46867 0.08925 0.51381 0.0
C2675 C 0.46144 0.09896 0.49443 0.0
C2676 C 0.45411 0.10556 0.53037 0.0
H2677 H 0.44499 0.12003 0.16859 0.0
H2678 H 0.44508 0.11768 0.26506 0.0
C2679 C 0.4537 0.10211 0.58487 0.0
C2680 C 0.46055 0.10094 0.43623 0.0
H2681 H 0.47442 0.13057 0.33558 0.0
C2682 C 0.45187 0.08585 0.40536 0.0
C2683 C 0.46875 0.11729 0.41092 0.0
C2684 C 0.4787 0.13388 0.44198 0.0
C2685 C 0.45122 0.08664 0.34986 0.0
C2686 C 0.45965 0.10295 0.32449 0.0
C2687 C 0.46805 0.11808 0.35528 0.0
C2688 C 0.45988 0.10451 0.26593 0.0
C2689 C 0.44138 0.07002 0.31881 0.0
C2690 C 0.46836 0.09804 0.23447 0.0
C2691 C 0.46842 0.0994 0.17911 0.0
C2692 C 0.45993 0.10724 0.15413 0.0
C2693 C 0.45164 0.11388 0.18617 0.0
C2694 C 0.45166 0.11256 0.24142 0.0
H2695 H 0.43238 0.05905 0.34448 0.0
H2696 H 0.43384 0.0715 0.28616 0.0
H2697 H 0.45071 0.06669 0.30087 0.0
H2698 H 0.47508 0.09207 0.25281 0.0
H2699 H 0.47541 0.09458 0.15635 0.0
H2700 H 0.89608 0.35897 0.62743 0.0
H2701 H 0.89038 0.35506 0.532 0.0
H2702 H 0.94408 0.37152 0.503 0.0
H2703 H 0.94981 0.37486 0.59799 0.0
H2704 H 0.90492 0.38048 0.45637 0.0
H2705 H 0.92012 0.32875 0.41111 0.0
H2706 H 0.91673 0.33368 0.47801 0.0
H2707 H 0.93733 0.34662 0.4459 0.0
C2708 C 0.90659 0.36125 0.60105 0.0
C2709 C 0.9234 0.36707 0.62072 0.0
C2710 C 0.90332 0.35917 0.54635 0.0
C2711 C 0.91675 0.36276 0.51038 0.0
C2712 C 0.93343 0.36828 0.52997 0.0
H2713 H 0.93054 0.37261 0.16814 0.0
H2714 H 0.93471 0.37456 0.26464 0.0
C2715 C 0.9367 0.37034 0.58442 0.0
C2716 C 0.91372 0.36198 0.45224 0.0
H2717 H 0.91858 0.34468 0.33694 0.0
C2718 C 0.90774 0.37252 0.43031 0.0
C2719 C 0.91749 0.35166 0.41824 0.0
C2720 C 0.92311 0.33941 0.43953 0.0
C2721 C 0.9058 0.37331 0.37521 0.0
C2722 C 0.90983 0.36319 0.34128 0.0
C2723 C 0.91568 0.35256 0.36313 0.0
C2724 C 0.90746 0.36299 0.28304 0.0
C2725 C 0.89979 0.3852 0.35354 0.0
C2726 C 0.89077 0.35585 0.26163 0.0
C2727 C 0.88834 0.35473 0.20671 0.0
C2728 C 0.90256 0.36078 0.172 0.0
C2729 C 0.91933 0.36815 0.1936 0.0
C2730 C 0.92173 0.36915 0.24873 0.0
H2731 H 0.90092 0.39486 0.38348 0.0
H2732 H 0.9074 0.39217 0.31784 0.0
H2733 H 0.88599 0.3774 0.34163 0.0
H2734 H 0.87957 0.35081 0.28745 0.0
H2735 H 0.87525 0.34895 0.1914 0.0
H2736 H 0.6392 0.55948 0.15855 0.0
H2737 H 0.63811 0.55933 0.25566 0.0
H2738 H 0.67045 0.53613 0.26179 0.0
H2739 H 0.67135 0.53587 0.16498 0.0
H2740 H 0.64177 0.52036 0.32978 0.0
H2741 H 0.67821 0.59176 0.355 0.0
H2742 H 0.65986 0.58391 0.3113 0.0
H2743 H 0.67794 0.58132 0.29328 0.0
C2744 C 0.64588 0.55411 0.18037 0.0
C2745 C 0.65529 0.54759 0.15369 0.0
C2746 C 0.64544 0.55426 0.236 0.0
C2747 C 0.65442 0.54795 0.26596 0.0
C2748 C 0.66353 0.54117 0.2395 0.0
H2749 H 0.67057 0.56288 0.61201 0.0
H2750 H 0.67612 0.56104 0.51707 0.0
C2751 C 0.66405 0.54108 0.18407 0.0
C2752 C 0.65413 0.54815 0.32491 0.0
H2753 H 0.66469 0.57499 0.43227 0.0
C2754 C 0.64689 0.53231 0.3522 0.0
C2755 C 0.66113 0.56376 0.35416 0.0
C2756 C 0.66988 0.58118 0.32708 0.0
C2757 C 0.64582 0.53164 0.40787 0.0
C2758 C 0.65205 0.5472 0.43698 0.0
C2759 C 0.6599 0.56308 0.40986 0.0
C2760 C 0.64903 0.54716 0.49492 0.0
C2761 C 0.63789 0.51427 0.43513 0.0
C2762 C 0.63203 0.53991 0.51374 0.0
C2763 C 0.62887 0.541 0.56738 0.0
C2764 C 0.64263 0.54931 0.60363 0.0
C2765 C 0.65971 0.55618 0.58516 0.0
C2766 C 0.66289 0.55524 0.53098 0.0
H2767 H 0.63838 0.50437 0.40957 0.0
H2768 H 0.6446 0.51516 0.47316 0.0
H2769 H 0.62409 0.50979 0.44401 0.0
H2770 H 0.62117 0.53387 0.48658 0.0
H2771 H 0.61557 0.53558 0.58038 0.0
H2772 H 0.21019 0.2556 0.16789 0.0
H2773 H 0.21412 0.2593 0.07178 0.0
H2774 H 0.22204 0.21547 0.06343 0.0
H2775 H 0.21827 0.21168 0.15933 0.0
H2776 H 0.24237 0.26442 0.00628 0.0
H2777 H 0.18228 0.20291 0.95784 0.0
H2778 H 0.18651 0.21251 0.02316 0.0
H2779 H 0.19696 0.20077 0.00189 0.0
C2780 C 0.21306 0.2469 0.146 0.0
C2781 C 0.21394 0.23333 0.17174 0.0
C2782 C 0.21517 0.24897 0.09085 0.0
C2783 C 0.21806 0.23746 0.06036 0.0
C2784 C 0.21944 0.22426 0.08601 0.0
H2785 H 0.22872 0.23127 0.71448 0.0
H2786 H 0.22727 0.22556 0.81032 0.0
C2787 C 0.21733 0.22217 0.14097 0.0
C2788 C 0.21956 0.23922 0.0017 0.0
H2789 H 0.20023 0.21869 0.88573 0.0
C2790 C 0.23317 0.25443 0.97993 0.0
C2791 C 0.20761 0.22608 0.96737 0.0
C2792 C 0.19242 0.20969 0.98857 0.0
C2793 C 0.23513 0.25689 0.92475 0.0
C2794 C 0.22297 0.24393 0.89043 0.0
C2795 C 0.20956 0.22856 0.91212 0.0
C2796 C 0.22323 0.24674 0.83227 0.0
C2797 C 0.25026 0.27334 0.90361 0.0
C2798 C 0.22094 0.26018 0.81289 0.0
C2799 C 0.22165 0.2634 0.75855 0.0
C2800 C 0.22452 0.25316 0.72194 0.0
C2801 C 0.22629 0.23931 0.74128 0.0
C2802 C 0.22559 0.2361 0.79609 0.0
H2803 H 0.26092 0.2794 0.93316 0.0
H2804 H 0.25541 0.27086 0.86655 0.0
H2805 H 0.24593 0.28276 0.89451 0.0
H2806 H 0.21868 0.26828 0.83996 0.0
H2807 H 0.21997 0.27402 0.74524 0.0
H2808 H 0.73063 0.96386 0.74344 0.0
H2809 H 0.73686 0.96813 0.83817 0.0
H2810 H 0.79114 0.9885 0.80653 0.0
H2811 H 0.78505 0.98401 0.71108 0.0
H2812 H 0.75453 0.95163 0.89353 0.0
H2813 H 0.7875 0.02337 0.9145 0.0
H2814 H 0.77301 0.01211 0.85994 0.0
H2815 H 0.79419 0.01449 0.86141 0.0
C2816 C 0.74396 0.96944 0.75633 0.0
C2817 C 0.75732 0.97357 0.7194 0.0
C2818 C 0.74747 0.97188 0.81057 0.0
C2819 C 0.76443 0.97862 0.82924 0.0
C2820 C 0.77797 0.98343 0.7927 0.0
H2821 H 0.80198 0.99847 0.15554 0.0
H2822 H 0.79977 0.99616 0.0589 0.0
C2823 C 0.77446 0.98094 0.7381 0.0
C2824 C 0.76754 0.9794 0.88719 0.0
H2825 H 0.78371 0.00717 0.99219 0.0
C2826 C 0.76098 0.96376 0.9152 0.0
C2827 C 0.77603 0.99524 0.91504 0.0
C2828 C 0.78306 0.01232 0.88653 0.0
C2829 C 0.76262 0.96352 0.97058 0.0
C2830 C 0.77063 0.97936 0.99884 0.0
C2831 C 0.7775 0.99503 0.97057 0.0
C2832 C 0.77188 0.97999 0.05772 0.0
C2833 C 0.75596 0.94631 0.99811 0.0
C2834 C 0.75691 0.97167 0.08936 0.0
C2835 C 0.75814 0.97284 0.14479 0.0
C2836 C 0.77436 0.98255 0.16961 0.0
C2837 C 0.78929 0.99088 0.13773 0.0
C2838 C 0.78806 0.98958 0.08245 0.0
H2839 H 0.75518 0.93625 0.9704 0.0
H2840 H 0.76436 0.94735 0.03213 0.0
H2841 H 0.74272 0.94188 0.01335 0.0
H2842 H 0.74423 0.96459 0.07116 0.0
H2843 H 0.74633 0.96664 0.16793 0.0
H2844 H 0.01261 0.7874 0.71408 0.0
H2845 H 0.00966 0.79283 0.80782 0.0
H2846 H 0.05781 0.79452 0.84309 0.0
H2847 H 0.06122 0.78977 0.75011 0.0
H2848 H 0.00716 0.77262 0.89317 0.0
H2849 H 0.06479 0.83756 0.91781 0.0
H2850 H 0.05643 0.82827 0.85335 0.0
H2851 H 0.0703 0.82252 0.88933 0.0
C2852 C 0.02279 0.78935 0.74144 0.0
C2853 C 0.03726 0.78831 0.72412 0.0
C2854 C 0.02101 0.79233 0.79516 0.0
C2855 C 0.03369 0.79443 0.83232 0.0
C2856 C 0.04809 0.79341 0.81505 0.0
H2857 H 0.04538 0.79072 0.16948 0.0
H2858 H 0.04778 0.79151 0.07289 0.0
C2859 C 0.04989 0.79048 0.76172 0.0
C2860 C 0.03152 0.79652 0.88979 0.0
H2861 H 0.05268 0.8212 0.99808 0.0
C2862 C 0.01696 0.78339 0.91598 0.0
C2863 C 0.04434 0.81057 0.91957 0.0
C2864 C 0.05975 0.82561 0.89345 0.0
C2865 C 0.01526 0.78357 0.97138 0.0
C2866 C 0.02842 0.79726 0.00119 0.0
C2867 C 0.04273 0.81063 0.97502 0.0
C2868 C 0.02756 0.79775 0.05979 0.0
C2869 C 0.99971 0.76885 0.99802 0.0
C2870 C 0.0156 0.80132 0.08428 0.0
C2871 C 0.01432 0.80113 0.13956 0.0
C2872 C 0.02498 0.79736 0.17169 0.0
C2873 C 0.03717 0.79405 0.14671 0.0
C2874 C 0.0385 0.79435 0.09128 0.0
H2875 H 0.99191 0.75805 0.97014 0.0
H2876 H 1.00386 0.76378 0.03184 0.0
H2877 H 0.99131 0.77367 0.01411 0.0
H2878 H 0.00715 0.80412 0.06055 0.0
H2879 H 1.00484 0.80385 0.15708 0.0
loop_
_geom_bond_atom_site_label_1
_geom_bond_atom_site_label_2
_geom_bond_distance
_geom_bond_site_symmetry_2
_ccdc_geom_bond_type
Zn0 N4 2.020 . S
Zn0 O8 2.019 . S
Zn0 N10 2.119 . S
Zn0 O18 1.975 . S
C1 N2 1.334 . S
C1 N5 1.336 . S
N2 C1 1.334 . S
N2 C3 1.334 . S
C3 N2 1.334 . S
C3 N4 1.336 . S
N4 Zn0 2.020 . S
N4 C3 1.336 . S
N4 N5 1.354 . S
N5 C1 1.336 . S
N5 N4 1.354 . S
N5 Zn9 2.020 . S
C6 O7 1.244 . S
C6 O30 1.257 . S
O7 C6 1.244 . S
O8 Zn0 2.019 . S
O8 C28 1.257 . S
Zn9 N5 2.020 . S
Zn9 O16 1.975 . S
Zn9 N25 2.119 . S
Zn9 O30 2.019 . S
N10 Zn0 2.119 . S
N10 C12 1.334 . S
N10 C13 1.328 . S
C11 C12 1.391 . S
C11 N14 1.329 . S
C11 H32 0.930 . S
C12 N10 1.334 . S
C12 C11 1.391 . S
C12 H19 0.930 . S
C13 N10 1.328 . S
C13 C15 1.392 . S
C13 H20 0.930 . S
N14 C11 1.329 . S
N14 C15 1.331 . S
C15 C13 1.392 . S
C15 N14 1.331 . S
O16 Zn9 1.975 . S
O16 C17 1.252 . S
C17 O16 1.252 . S
C17 O18 1.252 . S
O18 Zn0 1.975 . S
O18 C17 1.252 . S
H19 C12 0.930 . S
H20 C13 0.930 . S
C21 C22 1.392 . S
C21 N25 1.328 . S
C21 H27 0.930 . S
C22 C21 1.392 . S
C22 N26 1.331 . S
C23 C24 1.391 . S
C23 N26 1.329 . S
C23 H33 0.930 . S
C24 C23 1.391 . S
C24 N25 1.334 . S
C24 H31 0.930 . S
N25 Zn9 2.119 . S
N25 C21 1.328 . S
N25 C24 1.334 . S
N26 C22 1.331 . S
N26 C23 1.329 . S
H27 C21 0.930 . S
C28 O8 1.257 . S
C28 O29 1.244 . S
O29 C28 1.244 . S
O30 C6 1.257 . S
O30 Zn9 2.019 . S
H31 C24 0.930 . S
H32 C11 0.930 . S
H33 C23 0.930 . S
Zn34 N38 2.020 . S
Zn34 O42 2.019 . S
Zn34 N44 2.119 . S
Zn34 O52 1.975 . S
C35 N36 1.334 . S
C35 N39 1.336 . S
N36 C35 1.334 . S
N36 C37 1.334 . S
C37 N36 1.334 . S
C37 N38 1.336 . S
N38 Zn34 2.020 . S
N38 C37 1.336 . S
N38 N39 1.354 . S
N39 C35 1.336 . S
N39 N38 1.354 . S
N39 Zn43 2.020 . S
C40 O41 1.244 . S
C40 O64 1.257 . S
O41 C40 1.244 . S
O42 Zn34 2.019 . S
O42 C62 1.257 . S
Zn43 N39 2.020 . S
Zn43 O50 1.975 . S
Zn43 N59 2.119 . S
Zn43 O64 2.019 . S
N44 Zn34 2.119 . S
N44 C46 1.334 . S
N44 C47 1.328 . S
C45 C46 1.391 . S
C45 N48 1.329 . S
C45 H66 0.930 . S
C46 N44 1.334 . S
C46 C45 1.391 . S
C46 H53 0.930 . S
C47 N44 1.328 . S
C47 C49 1.392 . S
C47 H54 0.930 . S
N48 C45 1.329 . S
N48 C49 1.331 . S
C49 C47 1.392 . S
C49 N48 1.331 . S
O50 Zn43 1.975 . S
O50 C51 1.252 . S
C51 O50 1.252 . S
C51 O52 1.252 . S
O52 Zn34 1.975 . S
O52 C51 1.252 . S
H53 C46 0.930 . S
H54 C47 0.930 . S
C55 C56 1.392 . S
C55 N59 1.328 . S
C55 H61 0.930 . S
C56 C55 1.392 . S
C56 N60 1.331 . S
C57 C58 1.391 . S
C57 N60 1.329 . S
C57 H67 0.930 . S
C58 C57 1.391 . S
C58 N59 1.334 . S
C58 H65 0.930 . S
N59 Zn43 2.119 . S
N59 C55 1.328 . S
N59 C58 1.334 . S
N60 C56 1.331 . S
N60 C57 1.329 . S
H61 C55 0.930 . S
C62 O42 1.257 . S
C62 O63 1.244 . S
O63 C62 1.244 . S
O64 C40 1.257 . S
O64 Zn43 2.019 . S
H65 C58 0.930 . S
H66 C45 0.930 . S
H67 C57 0.930 . S
Zn68 N72 2.020 . S
Zn68 O76 2.019 . S
Zn68 N78 2.119 . S
Zn68 O86 1.975 . S
C69 N70 1.334 . S
C69 N73 1.336 . S
N70 C69 1.334 . S
N70 C71 1.334 . S
C71 N70 1.334 . S
C71 N72 1.336 . S
N72 Zn68 2.020 . S
N72 C71 1.336 . S
N72 N73 1.354 . S
N73 C69 1.336 . S
N73 N72 1.354 . S
N73 Zn77 2.020 . S
C74 O75 1.244 . S
C74 O98 1.257 . S
O75 C74 1.244 . S
O76 Zn68 2.019 . S
O76 C96 1.257 . S
Zn77 N73 2.020 . S
Zn77 O84 1.975 . S
Zn77 N93 2.119 . S
Zn77 O98 2.019 . S
N78 Zn68 2.119 . S
N78 C80 1.334 . S
N78 C81 1.328 . S
C79 C80 1.391 . S
C79 N82 1.329 . S
C79 H100 0.930 . S
C80 N78 1.334 . S
C80 C79 1.391 . S
C80 H87 0.930 . S
C81 N78 1.328 . S
C81 C83 1.392 . S
C81 H88 0.930 . S
N82 C79 1.329 . S
N82 C83 1.331 . S
C83 C81 1.392 . S
C83 N82 1.331 . S
O84 Zn77 1.975 . S
O84 C85 1.252 . S
C85 O84 1.252 . S
C85 O86 1.252 . S
O86 Zn68 1.975 . S
O86 C85 1.252 . S
H87 C80 0.930 . S
H88 C81 0.930 . S
C89 C90 1.392 . S
C89 N93 1.328 . S
C89 H95 0.930 . S
C90 C89 1.392 . S
C90 N94 1.331 . S
C91 C92 1.391 . S
C91 N94 1.329 . S
C91 H101 0.930 . S
C92 C91 1.391 . S
C92 N93 1.334 . S
C92 H99 0.930 . S
N93 Zn77 2.119 . S
N93 C89 1.328 . S
N93 C92 1.334 . S
N94 C90 1.331 . S
N94 C91 1.329 . S
H95 C89 0.930 . S
C96 O76 1.257 . S
C96 O97 1.244 . S
O97 C96 1.244 . S
O98 C74 1.257 . S
O98 Zn77 2.019 . S
H99 C92 0.930 . S
H100 C79 0.930 . S
H101 C91 0.930 . S
Zn102 N106 2.020 . S
Zn102 O110 2.019 . S
Zn102 N112 2.119 . S
Zn102 O120 1.975 . S
C103 N104 1.334 . S
C103 N107 1.336 . S
N104 C103 1.334 . S
N104 C105 1.334 . S
C105 N104 1.334 . S
C105 N106 1.336 . S
N106 Zn102 2.020 . S
N106 C105 1.336 . S
N106 N107 1.354 . S
N107 C103 1.336 . S
N107 N106 1.354 . S
N107 Zn111 2.020 . S
C108 O109 1.244 . S
C108 O132 1.257 . S
O109 C108 1.244 . S
O110 Zn102 2.019 . S
O110 C130 1.257 . S
Zn111 N107 2.020 . S
Zn111 O118 1.975 . S
Zn111 N127 2.119 . S
Zn111 O132 2.019 . S
N112 Zn102 2.119 . S
N112 C114 1.334 . S
N112 C115 1.328 . S
C113 C114 1.391 . S
C113 N116 1.329 . S
C113 H134 0.930 . S
C114 N112 1.334 . S
C114 C113 1.391 . S
C114 H121 0.930 . S
C115 N112 1.328 . S
C115 C117 1.392 . S
C115 H122 0.930 . S
N116 C113 1.329 . S
N116 C117 1.331 . S
C117 C115 1.392 . S
C117 N116 1.331 . S
O118 Zn111 1.975 . S
O118 C119 1.252 . S
C119 O118 1.252 . S
C119 O120 1.252 . S
O120 Zn102 1.975 . S
O120 C119 1.252 . S
H121 C114 0.930 . S
H122 C115 0.930 . S
C123 C124 1.392 . S
C123 N127 1.328 . S
C123 H129 0.930 . S
C124 C123 1.392 . S
C124 N128 1.331 . S
C125 C126 1.391 . S
C125 N128 1.329 . S
C125 H135 0.930 . S
C126 C125 1.391 . S
C126 N127 1.334 . S
C126 H133 0.930 . S
N127 Zn111 2.119 . S
N127 C123 1.328 . S
N127 C126 1.334 . S
N128 C124 1.331 . S
N128 C125 1.329 . S
H129 C123 0.930 . S
C130 O110 1.257 . S
C130 O131 1.244 . S
O131 C130 1.244 . S
O132 C108 1.257 . S
O132 Zn111 2.019 . S
H133 C126 0.930 . S
H134 C113 0.930 . S
H135 C125 0.930 . S
Zn136 N140 2.020 . S
Zn136 O144 2.019 . S
Zn136 N146 2.119 . S
Zn136 O154 1.975 . S
C137 N138 1.334 . S
C137 N141 1.336 . S
N138 C137 1.334 . S
N138 C139 1.334 . S
C139 N138 1.334 . S
C139 N140 1.336 . S
N140 Zn136 2.020 . S
N140 C139 1.336 . S
N140 N141 1.354 . S
N141 C137 1.336 . S
N141 N140 1.354 . S
N141 Zn145 2.020 . S
C142 O143 1.244 . S
C142 O166 1.257 . S
O143 C142 1.244 . S
O144 Zn136 2.019 . S
O144 C164 1.257 . S
Zn145 N141 2.020 . S
Zn145 O152 1.975 . S
Zn145 N161 2.119 . S
Zn145 O166 2.019 . S
N146 Zn136 2.119 . S
N146 C148 1.334 . S
N146 C149 1.328 . S
C147 C148 1.391 . S
C147 N150 1.329 . S
C147 H168 0.930 . S
C148 N146 1.334 . S
C148 C147 1.391 . S
C148 H155 0.930 . S
C149 N146 1.328 . S
C149 C151 1.392 . S
C149 H156 0.930 . S
N150 C147 1.329 . S
N150 C151 1.331 . S
C151 C149 1.392 . S
C151 N150 1.331 . S
O152 Zn145 1.975 . S
O152 C153 1.252 . S
C153 O152 1.252 . S
C153 O154 1.252 . S
O154 Zn136 1.975 . S
O154 C153 1.252 . S
H155 C148 0.930 . S
H156 C149 0.930 . S
C157 C158 1.392 . S
C157 N161 1.328 . S
C157 H163 0.930 . S
C158 C157 1.392 . S
C158 N162 1.331 . S
C159 C160 1.391 . S
C159 N162 1.329 . S
C159 H169 0.930 . S
C160 C159 1.391 . S
C160 N161 1.334 . S
C160 H167 0.930 . S
N161 Zn145 2.119 . S
N161 C157 1.328 . S
N161 C160 1.334 . S
N162 C158 1.331 . S
N162 C159 1.329 . S
H163 C157 0.930 . S
C164 O144 1.257 . S
C164 O165 1.244 . S
O165 C164 1.244 . S
O166 C142 1.257 . S
O166 Zn145 2.019 . S
H167 C160 0.930 . S
H168 C147 0.930 . S
H169 C159 0.930 . S
Zn170 N174 2.020 . S
Zn170 O178 2.019 . S
Zn170 N180 2.119 . S
Zn170 O188 1.975 . S
C171 N172 1.334 . S
C171 N175 1.336 . S
N172 C171 1.334 . S
N172 C173 1.334 . S
C173 N172 1.334 . S
C173 N174 1.336 . S
N174 Zn170 2.020 . S
N174 C173 1.336 . S
N174 N175 1.354 . S
N175 C171 1.336 . S
N175 N174 1.354 . S
N175 Zn179 2.020 . S
C176 O177 1.244 . S
C176 O200 1.257 . S
O177 C176 1.244 . S
O178 Zn170 2.019 . S
O178 C198 1.257 . S
Zn179 N175 2.020 . S
Zn179 O186 1.975 . S
Zn179 N195 2.119 . S
Zn179 O200 2.019 . S
N180 Zn170 2.119 . S
N180 C182 1.334 . S
N180 C183 1.328 . S
C181 C182 1.391 . S
C181 N184 1.329 . S
C181 H202 0.930 . S
C182 N180 1.334 . S
C182 C181 1.391 . S
C182 H189 0.930 . S
C183 N180 1.328 . S
C183 C185 1.392 . S
C183 H190 0.930 . S
N184 C181 1.329 . S
N184 C185 1.331 . S
C185 C183 1.392 . S
C185 N184 1.331 . S
O186 Zn179 1.975 . S
O186 C187 1.252 . S
C187 O186 1.252 . S
C187 O188 1.252 . S
O188 Zn170 1.975 . S
O188 C187 1.252 . S
H189 C182 0.930 . S
H190 C183 0.930 . S
C191 C192 1.392 . S
C191 N195 1.328 . S
C191 H197 0.930 . S
C192 C191 1.392 . S
C192 N196 1.331 . S
C193 C194 1.391 . S
C193 N196 1.329 . S
C193 H203 0.930 . S
C194 C193 1.391 . S
C194 N195 1.334 . S
C194 H201 0.930 . S
N195 Zn179 2.119 . S
N195 C191 1.328 . S
N195 C194 1.334 . S
N196 C192 1.331 . S
N196 C193 1.329 . S
H197 C191 0.930 . S
C198 O178 1.257 . S
C198 O199 1.244 . S
O199 C198 1.244 . S
O200 C176 1.257 . S
O200 Zn179 2.019 . S
H201 C194 0.930 . S
H202 C181 0.930 . S
H203 C193 0.930 . S
Zn204 N208 2.020 . S
Zn204 O212 2.019 . S
Zn204 N214 2.119 . S
Zn204 O222 1.975 . S
C205 N206 1.334 . S
C205 N209 1.336 . S
N206 C205 1.334 . S
N206 C207 1.334 . S
C207 N206 1.334 . S
C207 N208 1.336 . S
N208 Zn204 2.020 . S
N208 C207 1.336 . S
N208 N209 1.354 . S
N209 C205 1.336 . S
N209 N208 1.354 . S
N209 Zn213 2.020 . S
C210 O211 1.244 . S
C210 O234 1.257 . S
O211 C210 1.244 . S
O212 Zn204 2.019 . S
O212 C232 1.257 . S
Zn213 N209 2.020 . S
Zn213 O220 1.975 . S
Zn213 N229 2.119 . S
Zn213 O234 2.019 . S
N214 Zn204 2.119 . S
N214 C216 1.334 . S
N214 C217 1.328 . S
C215 C216 1.391 . S
C215 N218 1.329 . S
C215 H236 0.930 . S
C216 N214 1.334 . S
C216 C215 1.391 . S
C216 H223 0.930 . S
C217 N214 1.328 . S
C217 C219 1.392 . S
C217 H224 0.930 . S
N218 C215 1.329 . S
N218 C219 1.331 . S
C219 C217 1.392 . S
C219 N218 1.331 . S
O220 Zn213 1.975 . S
O220 C221 1.252 . S
C221 O220 1.252 . S
C221 O222 1.252 . S
O222 Zn204 1.975 . S
O222 C221 1.252 . S
H223 C216 0.930 . S
H224 C217 0.930 . S
C225 C226 1.392 . S
C225 N229 1.328 . S
C225 H231 0.930 . S
C226 C225 1.392 . S
C226 N230 1.331 . S
C227 C228 1.391 . S
C227 N230 1.329 . S
C227 H237 0.930 . S
C228 C227 1.391 . S
C228 N229 1.334 . S
C228 H235 0.930 . S
N229 Zn213 2.119 . S
N229 C225 1.328 . S
N229 C228 1.334 . S
N230 C226 1.331 . S
N230 C227 1.329 . S
H231 C225 0.930 . S
C232 O212 1.257 . S
C232 O233 1.244 . S
O233 C232 1.244 . S
O234 C210 1.257 . S
O234 Zn213 2.019 . S
H235 C228 0.930 . S
H236 C215 0.930 . S
H237 C227 0.930 . S
Zn238 N242 2.020 . S
Zn238 O246 2.019 . S
Zn238 N248 2.119 . S
Zn238 O256 1.975 . S
C239 N240 1.334 . S
C239 N243 1.336 . S
N240 C239 1.334 . S
N240 C241 1.334 . S
C241 N240 1.334 . S
C241 N242 1.336 . S
N242 Zn238 2.020 . S
N242 C241 1.336 . S
N242 N243 1.354 . S
N243 C239 1.336 . S
N243 N242 1.354 . S
N243 Zn247 2.020 . S
C244 O245 1.244 . S
C244 O268 1.257 . S
O245 C244 1.244 . S
O246 Zn238 2.019 . S
O246 C266 1.257 . S
Zn247 N243 2.020 . S
Zn247 O254 1.975 . S
Zn247 N263 2.119 . S
Zn247 O268 2.019 . S
N248 Zn238 2.119 . S
N248 C250 1.334 . S
N248 C251 1.328 . S
C249 C250 1.391 . S
C249 N252 1.329 . S
C249 H270 0.930 . S
C250 N248 1.334 . S
C250 C249 1.391 . S
C250 H257 0.930 . S
C251 N248 1.328 . S
C251 C253 1.392 . S
C251 H258 0.930 . S
N252 C249 1.329 . S
N252 C253 1.331 . S
C253 C251 1.392 . S
C253 N252 1.331 . S
O254 Zn247 1.975 . S
O254 C255 1.252 . S
C255 O254 1.252 . S
C255 O256 1.252 . S
O256 Zn238 1.975 . S
O256 C255 1.252 . S
H257 C250 0.930 . S
H258 C251 0.930 . S
C259 C260 1.392 . S
C259 N263 1.328 . S
C259 H265 0.930 . S
C260 C259 1.392 . S
C260 N264 1.331 . S
C261 C262 1.391 . S
C261 N264 1.329 . S
C261 H271 0.930 . S
C262 C261 1.391 . S
C262 N263 1.334 . S
C262 H269 0.930 . S
N263 Zn247 2.119 . S
N263 C259 1.328 . S
N263 C262 1.334 . S
N264 C260 1.331 . S
N264 C261 1.329 . S
H265 C259 0.930 . S
C266 O246 1.257 . S
C266 O267 1.244 . S
O267 C266 1.244 . S
O268 C244 1.257 . S
O268 Zn247 2.019 . S
H269 C262 0.930 . S
H270 C249 0.930 . S
H271 C261 0.930 . S
Zn272 N276 2.020 . S
Zn272 O280 2.019 . S
Zn272 N282 2.119 . S
Zn272 O290 1.975 . S
C273 N274 1.334 . S
C273 N277 1.336 . S
N274 C273 1.334 . S
N274 C275 1.334 . S
C275 N274 1.334 . S
C275 N276 1.336 . S
N276 Zn272 2.020 . S
N276 C275 1.336 . S
N276 N277 1.354 . S
N277 C273 1.336 . S
N277 N276 1.354 . S
N277 Zn281 2.020 . S
C278 O279 1.244 . S
C278 O302 1.257 . S
O279 C278 1.244 . S
O280 Zn272 2.019 . S
O280 C300 1.257 . S
Zn281 N277 2.020 . S
Zn281 O288 1.975 . S
Zn281 N297 2.119 . S
Zn281 O302 2.019 . S
N282 Zn272 2.119 . S
N282 C284 1.334 . S
N282 C285 1.328 . S
C283 C284 1.391 . S
C283 N286 1.329 . S
C283 H304 0.930 . S
C284 N282 1.334 . S
C284 C283 1.391 . S
C284 H291 0.930 . S
C285 N282 1.328 . S
C285 C287 1.392 . S
C285 H292 0.930 . S
N286 C283 1.329 . S
N286 C287 1.331 . S
C287 C285 1.392 . S
C287 N286 1.331 . S
O288 Zn281 1.975 . S
O288 C289 1.252 . S
C289 O288 1.252 . S
C289 O290 1.252 . S
O290 Zn272 1.975 . S
O290 C289 1.252 . S
H291 C284 0.930 . S
H292 C285 0.930 . S
C293 C294 1.392 . S
C293 N297 1.328 . S
C293 H299 0.930 . S
C294 C293 1.392 . S
C294 N298 1.331 . S
C295 C296 1.391 . S
C295 N298 1.329 . S
C295 H305 0.930 . S
C296 C295 1.391 . S
C296 N297 1.334 . S
C296 H303 0.930 . S
N297 Zn281 2.119 . S
N297 C293 1.328 . S
N297 C296 1.334 . S
N298 C294 1.331 . S
N298 C295 1.329 . S
H299 C293 0.930 . S
C300 O280 1.257 . S
C300 O301 1.244 . S
O301 C300 1.244 . S
O302 C278 1.257 . S
O302 Zn281 2.019 . S
H303 C296 0.930 . S
H304 C283 0.930 . S
H305 C295 0.930 . S
Zn306 N310 2.020 . S
Zn306 O314 2.019 . S
Zn306 N316 2.119 1_554 S
Zn306 O324 1.975 . S
C307 N308 1.334 . S
C307 N311 1.336 . S
N308 C307 1.334 . S
N308 C309 1.334 . S
C309 N308 1.334 . S
C309 N310 1.336 . S
N310 Zn306 2.020 . S
N310 C309 1.336 . S
N310 N311 1.354 . S
N311 C307 1.336 . S
N311 N310 1.354 . S
N311 Zn315 2.020 . S
C312 O313 1.244 . S
C312 O336 1.257 . S
O313 C312 1.244 . S
O314 Zn306 2.019 . S
O314 C334 1.257 . S
Zn315 N311 2.020 . S
Zn315 O322 1.975 . S
Zn315 N331 2.119 . S
Zn315 O336 2.019 . S
N316 Zn306 2.119 1_556 S
N316 C318 1.334 . S
N316 C319 1.328 . S
C317 C318 1.391 . S
C317 N320 1.329 . S
C317 H338 0.930 . S
C318 N316 1.334 . S
C318 C317 1.391 . S
C318 H325 0.930 1_556 S
C319 N316 1.328 . S
C319 C321 1.392 . S
C319 H326 0.930 . S
N320 C317 1.329 . S
N320 C321 1.331 . S
C321 C319 1.392 . S
C321 N320 1.331 . S
O322 Zn315 1.975 . S
O322 C323 1.252 . S
C323 O322 1.252 . S
C323 O324 1.252 . S
O324 Zn306 1.975 . S
O324 C323 1.252 . S
H325 C318 0.930 1_554 S
H326 C319 0.930 . S
C327 C328 1.392 . S
C327 N331 1.328 . S
C327 H333 0.930 . S
C328 C327 1.392 . S
C328 N332 1.331 . S
C329 C330 1.391 . S
C329 N332 1.329 . S
C329 H339 0.930 . S
C330 C329 1.391 . S
C330 N331 1.334 . S
C330 H337 0.930 . S
N331 Zn315 2.119 . S
N331 C327 1.328 . S
N331 C330 1.334 . S
N332 C328 1.331 . S
N332 C329 1.329 . S
H333 C327 0.930 . S
C334 O314 1.257 . S
C334 O335 1.244 . S
O335 C334 1.244 . S
O336 C312 1.257 . S
O336 Zn315 2.019 . S
H337 C330 0.930 . S
H338 C317 0.930 . S
H339 C329 0.930 . S
Zn340 N344 2.020 . S
Zn340 O348 2.019 . S
Zn340 N350 2.119 . S
Zn340 O358 1.975 . S
C341 N342 1.334 . S
C341 N345 1.336 . S
N342 C341 1.334 . S
N342 C343 1.334 . S
C343 N342 1.334 . S
C343 N344 1.336 . S
N344 Zn340 2.020 . S
N344 C343 1.336 . S
N344 N345 1.354 . S
N345 C341 1.336 . S
N345 N344 1.354 . S
N345 Zn349 2.020 . S
C346 O347 1.244 . S
C346 O370 1.257 . S
O347 C346 1.244 . S
O348 Zn340 2.019 . S
O348 C368 1.257 . S
Zn349 N345 2.020 . S
Zn349 O356 1.975 . S
Zn349 N365 2.119 1_554 S
Zn349 O370 2.019 . S
N350 Zn340 2.119 . S
N350 C352 1.334 . S
N350 C353 1.328 . S
C351 C352 1.391 . S
C351 N354 1.329 . S
C351 H372 0.930 . S
C352 N350 1.334 . S
C352 C351 1.391 . S
C352 H359 0.930 . S
C353 N350 1.328 . S
C353 C355 1.392 . S
C353 H360 0.930 . S
N354 C351 1.329 . S
N354 C355 1.331 . S
C355 C353 1.392 . S
C355 N354 1.331 . S
O356 Zn349 1.975 . S
O356 C357 1.252 . S
C357 O356 1.252 . S
C357 O358 1.252 . S
O358 Zn340 1.975 . S
O358 C357 1.252 . S
H359 C352 0.930 . S
H360 C353 0.930 . S
C361 C362 1.392 . S
C361 N365 1.328 . S
C361 H367 0.930 . S
C362 C361 1.392 . S
C362 N366 1.331 . S
C363 C364 1.391 . S
C363 N366 1.329 . S
C363 H373 0.930 . S
C364 C363 1.391 . S
C364 N365 1.334 . S
C364 H371 0.930 1_556 S
N365 Zn349 2.119 1_556 S
N365 C361 1.328 . S
N365 C364 1.334 . S
N366 C362 1.331 . S
N366 C363 1.329 . S
H367 C361 0.930 . S
C368 O348 1.257 . S
C368 O369 1.244 . S
O369 C368 1.244 . S
O370 C346 1.257 . S
O370 Zn349 2.019 . S
H371 C364 0.930 1_554 S
H372 C351 0.930 . S
H373 C363 0.930 . S
Zn374 N378 2.020 . S
Zn374 O382 2.019 . S
Zn374 N384 2.119 1_554 S
Zn374 O392 1.975 . S
C375 N376 1.334 . S
C375 N379 1.336 . S
N376 C375 1.334 . S
N376 C377 1.334 . S
C377 N376 1.334 . S
C377 N378 1.336 . S
N378 Zn374 2.020 . S
N378 C377 1.336 . S
N378 N379 1.354 . S
N379 C375 1.336 . S
N379 N378 1.354 . S
N379 Zn383 2.020 . S
C380 O381 1.244 . S
C380 O404 1.257 . S
O381 C380 1.244 . S
O382 Zn374 2.019 . S
O382 C402 1.257 . S
Zn383 N379 2.020 . S
Zn383 O390 1.975 . S
Zn383 N399 2.119 . S
Zn383 O404 2.019 . S
N384 Zn374 2.119 1_556 S
N384 C386 1.334 . S
N384 C387 1.328 . S
C385 C386 1.391 . S
C385 N388 1.329 . S
C385 H406 0.930 . S
C386 N384 1.334 . S
C386 C385 1.391 . S
C386 H393 0.930 1_556 S
C387 N384 1.328 . S
C387 C389 1.392 . S
C387 H394 0.930 . S
N388 C385 1.329 . S
N388 C389 1.331 . S
C389 C387 1.392 . S
C389 N388 1.331 . S
O390 Zn383 1.975 . S
O390 C391 1.252 . S
C391 O390 1.252 . S
C391 O392 1.252 . S
O392 Zn374 1.975 . S
O392 C391 1.252 . S
H393 C386 0.930 1_554 S
H394 C387 0.930 . S
C395 C396 1.392 . S
C395 N399 1.328 . S
C395 H401 0.930 . S
C396 C395 1.392 . S
C396 N400 1.331 . S
C397 C398 1.391 . S
C397 N400 1.329 . S
C397 H407 0.930 . S
C398 C397 1.391 . S
C398 N399 1.334 . S
C398 H405 0.930 . S
N399 Zn383 2.119 . S
N399 C395 1.328 . S
N399 C398 1.334 . S
N400 C396 1.331 . S
N400 C397 1.329 . S
H401 C395 0.930 . S
C402 O382 1.257 . S
C402 O403 1.244 . S
O403 C402 1.244 . S
O404 C380 1.257 . S
O404 Zn383 2.019 . S
H405 C398 0.930 . S
H406 C385 0.930 . S
H407 C397 0.930 . S
Zn408 N412 2.020 . S
Zn408 O416 2.019 . S
Zn408 N418 2.119 . S
Zn408 O426 1.975 . S
C409 N410 1.334 . S
C409 N413 1.336 . S
N410 C409 1.334 . S
N410 C411 1.334 . S
C411 N410 1.334 . S
C411 N412 1.336 . S
N412 Zn408 2.020 . S
N412 C411 1.336 . S
N412 N413 1.354 . S
N413 C409 1.336 . S
N413 N412 1.354 . S
N413 Zn417 2.020 . S
C414 O415 1.244 . S
C414 O438 1.257 . S
O415 C414 1.244 . S
O416 Zn408 2.019 . S
O416 C436 1.257 . S
Zn417 N413 2.020 . S
Zn417 O424 1.975 . S
Zn417 N433 2.119 1_556 S
Zn417 O438 2.019 . S
N418 Zn408 2.119 . S
N418 C420 1.334 . S
N418 C421 1.328 . S
C419 C420 1.391 . S
C419 N422 1.329 . S
C419 H440 0.930 . S
C420 N418 1.334 . S
C420 C419 1.391 . S
C420 H427 0.930 . S
C421 N418 1.328 . S
C421 C423 1.392 . S
C421 H428 0.930 . S
N422 C419 1.329 . S
N422 C423 1.331 . S
C423 C421 1.392 . S
C423 N422 1.331 . S
O424 Zn417 1.975 . S
O424 C425 1.252 . S
C425 O424 1.252 . S
C425 O426 1.252 . S
O426 Zn408 1.975 . S
O426 C425 1.252 . S
H427 C420 0.930 . S
H428 C421 0.930 . S
C429 C430 1.392 . S
C429 N433 1.328 . S
C429 H435 0.930 . S
C430 C429 1.392 . S
C430 N434 1.331 . S
C431 C432 1.391 . S
C431 N434 1.329 . S
C431 H441 0.930 . S
C432 C431 1.391 . S
C432 N433 1.334 . S
C432 H439 0.930 1_554 S
N433 Zn417 2.119 1_554 S
N433 C429 1.328 . S
N433 C432 1.334 . S
N434 C430 1.331 . S
N434 C431 1.329 . S
H435 C429 0.930 . S
C436 O416 1.257 . S
C436 O437 1.244 . S
O437 C436 1.244 . S
O438 C414 1.257 . S
O438 Zn417 2.019 . S
H439 C432 0.930 1_556 S
H440 C419 0.930 . S
H441 C431 0.930 . S
Zn442 N446 2.020 . S
Zn442 O450 2.019 . S
Zn442 N452 2.119 . S
Zn442 O460 1.975 . S
C443 N444 1.334 . S
C443 N447 1.336 . S
N444 C443 1.334 . S
N444 C445 1.334 . S
C445 N444 1.334 . S
C445 N446 1.336 . S
N446 Zn442 2.020 . S
N446 C445 1.336 . S
N446 N447 1.354 . S
N447 C443 1.336 . S
N447 N446 1.354 . S
N447 Zn451 2.020 . S
C448 O449 1.244 . S
C448 O472 1.257 . S
O449 C448 1.244 . S
O450 Zn442 2.019 . S
O450 C470 1.257 . S
Zn451 N447 2.020 . S
Zn451 O458 1.975 . S
Zn451 N467 2.119 1_556 S
Zn451 O472 2.019 . S
N452 Zn442 2.119 . S
N452 C454 1.334 . S
N452 C455 1.328 . S
C453 C454 1.391 . S
C453 N456 1.329 . S
C453 H474 0.930 . S
C454 N452 1.334 . S
C454 C453 1.391 . S
C454 H461 0.930 . S
C455 N452 1.328 . S
C455 C457 1.392 . S
C455 H462 0.930 . S
N456 C453 1.329 . S
N456 C457 1.331 . S
C457 C455 1.392 . S
C457 N456 1.331 . S
O458 Zn451 1.975 . S
O458 C459 1.252 . S
C459 O458 1.252 . S
C459 O460 1.252 . S
O460 Zn442 1.975 . S
O460 C459 1.252 . S
H461 C454 0.930 . S
H462 C455 0.930 . S
C463 C464 1.392 . S
C463 N467 1.328 . S
C463 H469 0.930 . S
C464 C463 1.392 . S
C464 N468 1.331 . S
C465 C466 1.391 . S
C465 N468 1.329 . S
C465 H475 0.930 . S
C466 C465 1.391 . S
C466 N467 1.334 . S
C466 H473 0.930 1_554 S
N467 Zn451 2.119 1_554 S
N467 C463 1.328 . S
N467 C466 1.334 . S
N468 C464 1.331 . S
N468 C465 1.329 . S
H469 C463 0.930 . S
C470 O450 1.257 . S
C470 O471 1.244 . S
O471 C470 1.244 . S
O472 C448 1.257 . S
O472 Zn451 2.019 . S
H473 C466 0.930 1_556 S
H474 C453 0.930 . S
H475 C465 0.930 . S
Zn476 N480 2.020 . S
Zn476 O484 2.019 . S
Zn476 N486 2.119 . S
Zn476 O494 1.975 . S
C477 N478 1.334 . S
C477 N481 1.336 . S
N478 C477 1.334 . S
N478 C479 1.334 . S
C479 N478 1.334 . S
C479 N480 1.336 . S
N480 Zn476 2.020 . S
N480 C479 1.336 . S
N480 N481 1.354 . S
N481 C477 1.336 . S
N481 N480 1.354 . S
N481 Zn485 2.020 . S
C482 O483 1.244 . S
C482 O506 1.257 . S
O483 C482 1.244 . S
O484 Zn476 2.019 . S
O484 C504 1.257 . S
Zn485 N481 2.020 . S
Zn485 O492 1.975 . S
Zn485 N501 2.119 1_556 S
Zn485 O506 2.019 . S
N486 Zn476 2.119 . S
N486 C488 1.334 . S
N486 C489 1.328 . S
C487 C488 1.391 . S
C487 N490 1.329 . S
C487 H508 0.930 . S
C488 N486 1.334 . S
C488 C487 1.391 . S
C488 H495 0.930 . S
C489 N486 1.328 . S
C489 C491 1.392 . S
C489 H496 0.930 . S
N490 C487 1.329 . S
N490 C491 1.331 . S
C491 C489 1.392 . S
C491 N490 1.331 . S
O492 Zn485 1.975 . S
O492 C493 1.252 . S
C493 O492 1.252 . S
C493 O494 1.252 . S
O494 Zn476 1.975 . S
O494 C493 1.252 . S
H495 C488 0.930 . S
H496 C489 0.930 . S
C497 C498 1.392 . S
C497 N501 1.328 . S
C497 H503 0.930 . S
C498 C497 1.392 . S
C498 N502 1.331 . S
C499 C500 1.391 . S
C499 N502 1.329 . S
C499 H509 0.930 . S
C500 C499 1.391 . S
C500 N501 1.334 . S
C500 H507 0.930 1_554 S
N501 Zn485 2.119 1_554 S
N501 C497 1.328 . S
N501 C500 1.334 . S
N502 C498 1.331 . S
N502 C499 1.329 . S
H503 C497 0.930 . S
C504 O484 1.257 . S
C504 O505 1.244 . S
O505 C504 1.244 . S
O506 C482 1.257 . S
O506 Zn485 2.019 . S
H507 C500 0.930 1_556 S
H508 C487 0.930 . S
H509 C499 0.930 . S
Zn510 N514 2.020 . S
Zn510 O518 2.019 . S
Zn510 N520 2.119 . S
Zn510 O528 1.975 . S
C511 N512 1.334 . S
C511 N515 1.336 . S
N512 C511 1.334 . S
N512 C513 1.334 . S
C513 N512 1.334 . S
C513 N514 1.336 . S
N514 Zn510 2.020 . S
N514 C513 1.336 . S
N514 N515 1.354 . S
N515 C511 1.336 . S
N515 N514 1.354 . S
N515 Zn519 2.020 . S
C516 O517 1.244 . S
C516 O540 1.257 . S
O517 C516 1.244 . S
O518 Zn510 2.019 . S
O518 C538 1.257 . S
Zn519 N515 2.020 . S
Zn519 O526 1.975 . S
Zn519 N535 2.119 . S
Zn519 O540 2.019 . S
N520 Zn510 2.119 . S
N520 C522 1.334 . S
N520 C523 1.328 . S
C521 C522 1.391 . S
C521 N524 1.329 . S
C521 H542 0.930 . S
C522 N520 1.334 . S
C522 C521 1.391 . S
C522 H529 0.930 . S
C523 N520 1.328 . S
C523 C525 1.392 . S
C523 H530 0.930 . S
N524 C521 1.329 . S
N524 C525 1.331 . S
C525 C523 1.392 . S
C525 N524 1.331 . S
O526 Zn519 1.975 . S
O526 C527 1.252 . S
C527 O526 1.252 . S
C527 O528 1.252 . S
O528 Zn510 1.975 . S
O528 C527 1.252 . S
H529 C522 0.930 . S
H530 C523 0.930 . S
C531 C532 1.392 . S
C531 N535 1.328 . S
C531 H537 0.930 . S
C532 C531 1.392 . S
C532 N536 1.331 . S
C533 C534 1.391 . S
C533 N536 1.329 . S
C533 H543 0.930 . S
C534 C533 1.391 . S
C534 N535 1.334 . S
C534 H541 0.930 . S
N535 Zn519 2.119 . S
N535 C531 1.328 . S
N535 C534 1.334 . S
N536 C532 1.331 . S
N536 C533 1.329 . S
H537 C531 0.930 . S
C538 O518 1.257 . S
C538 O539 1.244 . S
O539 C538 1.244 . S
O540 C516 1.257 . S
O540 Zn519 2.019 . S
H541 C534 0.930 . S
H542 C521 0.930 . S
H543 C533 0.930 . S
Zn544 N548 2.020 . S
Zn544 O552 2.019 . S
Zn544 N554 2.119 . S
Zn544 O562 1.975 . S
C545 N546 1.334 . S
C545 N549 1.336 . S
N546 C545 1.334 . S
N546 C547 1.334 . S
C547 N546 1.334 . S
C547 N548 1.336 . S
N548 Zn544 2.020 . S
N548 C547 1.336 . S
N548 N549 1.354 . S
N549 C545 1.336 . S
N549 N548 1.354 . S
N549 Zn553 2.020 . S
C550 O551 1.244 . S
C550 O574 1.257 . S
O551 C550 1.244 . S
O552 Zn544 2.019 . S
O552 C572 1.257 . S
Zn553 N549 2.020 . S
Zn553 O560 1.975 . S
Zn553 N569 2.119 . S
Zn553 O574 2.019 . S
N554 Zn544 2.119 . S
N554 C556 1.334 . S
N554 C557 1.328 . S
C555 C556 1.391 . S
C555 N558 1.329 . S
C555 H576 0.930 . S
C556 N554 1.334 . S
C556 C555 1.391 . S
C556 H563 0.930 . S
C557 N554 1.328 . S
C557 C559 1.392 . S
C557 H564 0.930 . S
N558 C555 1.329 . S
N558 C559 1.331 . S
C559 C557 1.392 . S
C559 N558 1.331 . S
O560 Zn553 1.975 . S
O560 C561 1.252 . S
C561 O560 1.252 . S
C561 O562 1.252 . S
O562 Zn544 1.975 . S
O562 C561 1.252 . S
H563 C556 0.930 . S
H564 C557 0.930 . S
C565 C566 1.392 . S
C565 N569 1.328 . S
C565 H571 0.930 . S
C566 C565 1.392 . S
C566 N570 1.331 . S
C567 C568 1.391 . S
C567 N570 1.329 . S
C567 H577 0.930 . S
C568 C567 1.391 . S
C568 N569 1.334 . S
C568 H575 0.930 . S
N569 Zn553 2.119 . S
N569 C565 1.328 . S
N569 C568 1.334 . S
N570 C566 1.331 . S
N570 C567 1.329 . S
H571 C565 0.930 . S
C572 O552 1.257 . S
C572 O573 1.244 . S
O573 C572 1.244 . S
O574 C550 1.257 . S
O574 Zn553 2.019 . S
H575 C568 0.930 . S
H576 C555 0.930 . S
H577 C567 0.930 . S
Zn578 N582 2.020 . S
Zn578 O586 2.019 . S
Zn578 N588 2.119 . S
Zn578 O596 1.975 . S
C579 N580 1.334 . S
C579 N583 1.336 . S
N580 C579 1.334 . S
N580 C581 1.334 . S
C581 N580 1.334 . S
C581 N582 1.336 . S
N582 Zn578 2.020 . S
N582 C581 1.336 . S
N582 N583 1.354 . S
N583 C579 1.336 . S
N583 N582 1.354 . S
N583 Zn587 2.020 . S
C584 O585 1.244 . S
C584 O608 1.257 . S
O585 C584 1.244 . S
O586 Zn578 2.019 . S
O586 C606 1.257 . S
Zn587 N583 2.020 . S
Zn587 O594 1.975 . S
Zn587 N603 2.119 . S
Zn587 O608 2.019 . S
N588 Zn578 2.119 . S
N588 C590 1.334 . S
N588 C591 1.328 . S
C589 C590 1.391 . S
C589 N592 1.329 . S
C589 H610 0.930 . S
C590 N588 1.334 . S
C590 C589 1.391 . S
C590 H597 0.930 . S
C591 N588 1.328 . S
C591 C593 1.392 . S
C591 H598 0.930 . S
N592 C589 1.329 . S
N592 C593 1.331 . S
C593 C591 1.392 . S
C593 N592 1.331 . S
O594 Zn587 1.975 . S
O594 C595 1.252 . S
C595 O594 1.252 . S
C595 O596 1.252 . S
O596 Zn578 1.975 . S
O596 C595 1.252 . S
H597 C590 0.930 . S
H598 C591 0.930 . S
C599 C600 1.392 . S
C599 N603 1.328 . S
C599 H605 0.930 . S
C600 C599 1.392 . S
C600 N604 1.331 . S
C601 C602 1.391 . S
C601 N604 1.329 . S
C601 H611 0.930 . S
C602 C601 1.391 . S
C602 N603 1.334 . S
C602 H609 0.930 . S
N603 Zn587 2.119 . S
N603 C599 1.328 . S
N603 C602 1.334 . S
N604 C600 1.331 . S
N604 C601 1.329 . S
H605 C599 0.930 . S
C606 O586 1.257 . S
C606 O607 1.244 . S
O607 C606 1.244 . S
O608 C584 1.257 . S
O608 Zn587 2.019 . S
H609 C602 0.930 . S
H610 C589 0.930 . S
H611 C601 0.930 . S
H612 C620 0.929 . S
H613 C622 0.930 . S
H614 C624 0.930 . S
H615 C627 0.929 . S
H616 C630 0.930 . S
H617 C632 0.960 . S
H618 C632 0.960 . S
H619 C632 0.960 . S
C620 H612 0.929 . S
C620 C621 1.377 . S
C620 C622 1.384 1_556 S
C621 C620 1.377 . S
C621 C627 1.390 . S
C622 H613 0.930 . S
C622 C620 1.384 1_554 S
C622 C623 1.372 . S
C623 C622 1.372 . S
C623 C624 1.400 . S
C623 C628 1.490 1_655 S
C624 H614 0.930 . S
C624 C623 1.400 . S
C624 C627 1.386 1_554 S
H625 C641 0.930 . S
H626 C642 0.931 . S
C627 H615 0.929 . S
C627 C621 1.390 . S
C627 C624 1.386 1_556 S
C628 C623 1.490 1_455 S
C628 C630 1.395 . S
C628 C631 1.403 . S
H629 C635 0.930 . S
C630 H616 0.930 . S
C630 C628 1.395 . S
C630 C633 1.403 . S
C631 C628 1.403 . S
C631 C632 1.524 1_554 S
C631 C635 1.400 . S
C632 H617 0.960 . S
C632 H618 0.960 . S
C632 H619 0.960 . S
C632 C631 1.524 1_556 S
C633 C630 1.403 . S
C633 C634 1.392 . S
C633 C637 1.495 . S
C634 C633 1.392 . S
C634 C635 1.385 . S
C634 C636 1.478 . S
C635 H629 0.930 . S
C635 C631 1.400 . S
C635 C634 1.385 . S
C636 C634 1.478 . S
C636 C638 1.381 . S
C636 C642 1.383 . S
C637 C633 1.495 . S
C637 H643 0.959 . S
C637 H644 0.961 . S
C637 H645 0.960 . S
C638 C636 1.381 . S
C638 C639 1.394 . S
C638 H646 0.930 . S
C639 C638 1.394 . S
C639 C640 1.383 . S
C639 H647 0.929 . S
C640 C639 1.383 . S
C640 C641 1.377 . S
C641 H625 0.930 . S
C641 C640 1.377 . S
C641 C642 1.379 . S
C642 H626 0.931 . S
C642 C636 1.383 . S
C642 C641 1.379 . S
H643 C637 0.959 . S
H644 C637 0.961 . S
H645 C637 0.960 . S
H646 C638 0.930 . S
H647 C639 0.929 . S
H648 C656 0.929 . S
H649 C658 0.930 . S
H650 C660 0.930 . S
H651 C663 0.929 . S
H652 C666 0.930 . S
H653 C668 0.960 . S
H654 C668 0.960 . S
H655 C668 0.960 . S
C656 H648 0.929 . S
C656 C657 1.377 . S
C656 C658 1.384 . S
C657 C656 1.377 . S
C657 C663 1.390 1_556 S
C658 H649 0.930 . S
C658 C656 1.384 . S
C658 C659 1.372 1_556 S
C659 C658 1.372 1_554 S
C659 C660 1.400 . S
C659 C664 1.490 . S
C660 H650 0.930 . S
C660 C659 1.400 . S
C660 C663 1.386 . S
H661 C677 0.930 . S
H662 C678 0.931 . S
C663 H651 0.929 . S
C663 C657 1.390 1_554 S
C663 C660 1.386 . S
C664 C659 1.490 . S
C664 C666 1.395 . S
C664 C667 1.403 . S
H665 C671 0.930 . S
C666 H652 0.930 . S
C666 C664 1.395 . S
C666 C669 1.403 . S
C667 C664 1.403 . S
C667 C668 1.524 . S
C667 C671 1.400 . S
C668 H653 0.960 . S
C668 H654 0.960 . S
C668 H655 0.960 . S
C668 C667 1.524 . S
C669 C666 1.403 . S
C669 C670 1.392 . S
C669 C673 1.495 . S
C670 C669 1.392 . S
C670 C671 1.385 . S
C670 C672 1.478 . S
C671 H665 0.930 . S
C671 C667 1.400 . S
C671 C670 1.385 . S
C672 C670 1.478 . S
C672 C674 1.381 . S
C672 C678 1.383 . S
C673 C669 1.495 . S
C673 H679 0.959 . S
C673 H680 0.961 . S
C673 H681 0.960 . S
C674 C672 1.381 . S
C674 C675 1.394 . S
C674 H682 0.930 . S
C675 C674 1.394 . S
C675 C676 1.383 . S
C675 H683 0.929 . S
C676 C675 1.383 . S
C676 C677 1.377 . S
C677 H661 0.930 . S
C677 C676 1.377 . S
C677 C678 1.379 . S
C678 H662 0.931 . S
C678 C672 1.383 . S
C678 C677 1.379 . S
H679 C673 0.959 . S
H680 C673 0.961 . S
H681 C673 0.960 . S
H682 C674 0.930 . S
H683 C675 0.929 . S
H684 C692 0.929 . S
H685 C694 0.930 . S
H686 C696 0.930 . S
H687 C699 0.929 . S
H688 C702 0.930 . S
H689 C704 0.960 . S
H690 C704 0.960 . S
H691 C704 0.960 . S
C692 H684 0.929 . S
C692 C693 1.377 . S
C692 C694 1.384 . S
C693 C692 1.377 . S
C693 C699 1.390 . S
C694 H685 0.930 . S
C694 C692 1.384 . S
C694 C695 1.372 . S
C695 C694 1.372 . S
C695 C696 1.400 . S
C695 C700 1.490 . S
C696 H686 0.930 . S
C696 C695 1.400 . S
C696 C699 1.386 . S
H697 C713 0.930 . S
H698 C714 0.931 . S
C699 H687 0.929 . S
C699 C693 1.390 . S
C699 C696 1.386 . S
C700 C695 1.490 . S
C700 C702 1.395 . S
C700 C703 1.403 . S
H701 C707 0.952 . S
C702 H688 0.930 . S
C702 C700 1.395 . S
C702 C705 1.403 . S
C703 C700 1.403 . S
C703 C704 1.524 . S
C703 C707 1.400 . S
C704 H689 0.960 . S
C704 H690 0.960 . S
C704 H691 0.960 . S
C704 C703 1.524 . S
C705 C702 1.403 . S
C705 C706 1.392 . S
C705 C709 1.495 1_554 S
C706 C705 1.392 . S
C706 C707 1.385 . S
C706 C708 1.478 1_565 S
C707 H701 0.952 . S
C707 C703 1.400 . S
C707 C706 1.385 . S
C708 C706 1.478 1_545 S
C708 C710 1.381 1_554 S
C708 C714 1.383 . S
C709 C705 1.495 1_556 S
C709 H715 0.959 . S
C709 H716 0.961 . S
C709 H717 0.960 . S
C710 C708 1.381 1_556 S
C710 C711 1.394 . S
C710 H718 0.930 . S
C711 C710 1.394 . S
C711 C712 1.383 . S
C711 H719 0.929 . S
C712 C711 1.383 . S
C712 C713 1.377 1_556 S
C713 H697 0.930 . S
C713 C712 1.377 1_554 S
C713 C714 1.379 . S
C714 H698 0.931 . S
C714 C708 1.383 . S
C714 C713 1.379 . S
H715 C709 0.959 . S
H716 C709 0.961 . S
H717 C709 0.960 . S
H718 C710 0.930 . S
H719 C711 0.929 . S
H720 C728 0.929 . S
H721 C730 0.930 . S
H722 C732 0.930 . S
H723 C735 0.929 . S
H724 C738 0.930 . S
H725 C740 0.960 1_554 S
H726 C740 0.960 . S
H727 C740 0.960 . S
C728 H720 0.929 . S
C728 C729 1.377 . S
C728 C730 1.384 . S
C729 C728 1.377 . S
C729 C735 1.390 . S
C730 H721 0.930 . S
C730 C728 1.384 . S
C730 C731 1.372 . S
C731 C730 1.372 . S
C731 C732 1.400 . S
C731 C736 1.490 . S
C732 H722 0.930 . S
C732 C731 1.400 . S
C732 C735 1.386 . S
H733 C749 0.930 . S
H734 C750 0.931 . S
C735 H723 0.929 . S
C735 C729 1.390 . S
C735 C732 1.386 . S
C736 C731 1.490 . S
C736 C738 1.395 . S
C736 C739 1.403 . S
H737 C743 0.930 1_554 S
C738 H724 0.930 . S
C738 C736 1.395 . S
C738 C741 1.403 . S
C739 C736 1.403 . S
C739 C740 1.524 . S
C739 C743 1.400 . S
C740 H725 0.960 1_556 S
C740 H726 0.960 . S
C740 H727 0.960 . S
C740 C739 1.524 . S
C741 C738 1.403 . S
C741 C742 1.392 . S
C741 C745 1.495 1_655 S
C742 C741 1.392 . S
C742 C743 1.385 . S
C742 C744 1.478 1_655 S
C743 H737 0.930 1_556 S
C743 C739 1.400 . S
C743 C742 1.385 . S
C744 C742 1.478 1_455 S
C744 C746 1.381 . S
C744 C750 1.383 . S
C745 C741 1.495 1_455 S
C745 H751 0.959 1_455 S
C745 H752 0.961 . S
C745 H753 0.960 . S
C746 C744 1.381 . S
C746 C747 1.394 1_556 S
C746 H754 0.930 . S
C747 C746 1.394 1_554 S
C747 C748 1.383 . S
C747 H755 0.929 . S
C748 C747 1.383 . S
C748 C749 1.377 . S
C749 H733 0.930 . S
C749 C748 1.377 . S
C749 C750 1.379 1_554 S
C750 H734 0.931 . S
C750 C744 1.383 . S
C750 C749 1.379 1_556 S
H751 C745 0.959 1_655 S
H752 C745 0.961 . S
H753 C745 0.960 . S
H754 C746 0.930 . S
H755 C747 0.929 . S
H756 C764 0.929 . S
H757 C766 0.930 . S
H758 C768 0.930 . S
H759 C771 0.929 . S
H760 C774 0.930 . S
H761 C776 0.960 . S
H762 C776 0.960 . S
H763 C776 0.960 . S
C764 H756 0.929 . S
C764 C765 1.377 . S
C764 C766 1.384 . S
C765 C764 1.377 . S
C765 C771 1.390 . S
C766 H757 0.930 . S
C766 C764 1.384 . S
C766 C767 1.372 . S
C767 C766 1.372 . S
C767 C768 1.400 . S
C767 C772 1.490 . S
C768 H758 0.930 . S
C768 C767 1.400 . S
C768 C771 1.386 . S
H769 C785 0.930 . S
H770 C786 0.931 . S
C771 H759 0.929 . S
C771 C765 1.390 . S
C771 C768 1.386 . S
C772 C767 1.490 . S
C772 C774 1.395 . S
C772 C775 1.403 . S
H773 C779 0.930 . S
C774 H760 0.930 . S
C774 C772 1.395 . S
C774 C777 1.403 . S
C775 C772 1.403 . S
C775 C776 1.524 . S
C775 C779 1.400 . S
C776 H761 0.960 . S
C776 H762 0.960 . S
C776 H763 0.960 . S
C776 C775 1.524 . S
C777 C774 1.403 . S
C777 C778 1.392 . S
C777 C781 1.495 . S
C778 C777 1.392 . S
C778 C779 1.385 . S
C778 C780 1.478 . S
C779 H773 0.930 . S
C779 C775 1.400 . S
C779 C778 1.385 . S
C780 C778 1.478 . S
C780 C782 1.381 . S
C780 C786 1.383 1_556 S
C781 C777 1.495 . S
C781 H787 0.959 . S
C781 H788 0.961 . S
C781 H789 0.960 . S
C782 C780 1.381 . S
C782 C783 1.394 . S
C782 H790 0.930 . S
C783 C782 1.394 . S
C783 C784 1.383 1_556 S
C783 H791 0.929 . S
C784 C783 1.383 1_554 S
C784 C785 1.377 . S
C785 H769 0.930 . S
C785 C784 1.377 . S
C785 C786 1.379 . S
C786 H770 0.931 . S
C786 C780 1.383 1_554 S
C786 C785 1.379 . S
H787 C781 0.959 . S
H788 C781 0.961 . S
H789 C781 0.960 . S
H790 C782 0.930 . S
H791 C783 0.929 . S
H792 C800 0.929 . S
H793 C802 0.930 . S
H794 C804 0.930 . S
H795 C807 0.929 . S
H796 C810 0.930 . S
H797 C812 0.960 . S
H798 C812 0.960 . S
H799 C812 0.960 . S
C800 H792 0.929 . S
C800 C801 1.377 . S
C800 C802 1.384 . S
C801 C800 1.377 . S
C801 C807 1.390 . S
C802 H793 0.930 . S
C802 C800 1.384 . S
C802 C803 1.372 . S
C803 C802 1.372 . S
C803 C804 1.400 . S
C803 C808 1.490 . S
C804 H794 0.930 . S
C804 C803 1.400 . S
C804 C807 1.386 . S
H805 C821 0.930 . S
H806 C822 0.931 . S
C807 H795 0.929 . S
C807 C801 1.390 . S
C807 C804 1.386 . S
C808 C803 1.490 . S
C808 C810 1.395 . S
C808 C811 1.403 . S
H809 C815 0.930 1_565 S
C810 H796 0.930 . S
C810 C808 1.395 . S
C810 C813 1.403 . S
C811 C808 1.403 . S
C811 C812 1.524 . S
C811 C815 1.400 . S
C812 H797 0.960 . S
C812 H798 0.960 . S
C812 H799 0.960 . S
C812 C811 1.524 . S
C813 C810 1.403 . S
C813 C814 1.392 . S
C813 C817 1.495 . S
C814 C813 1.392 . S
C814 C815 1.385 . S
C814 C816 1.478 1_545 S
C815 H809 0.930 1_545 S
C815 C811 1.400 . S
C815 C814 1.385 . S
C816 C814 1.478 1_565 S
C816 C818 1.381 1_556 S
C816 C822 1.383 . S
C817 C813 1.495 . S
C817 H823 0.959 . S
C817 H824 0.961 . S
C817 H825 0.960 1_556 S
C818 C816 1.381 1_554 S
C818 C819 1.394 . S
C818 H826 0.930 . S
C819 C818 1.394 . S
C819 C820 1.383 . S
C819 H827 0.929 . S
C820 C819 1.383 . S
C820 C821 1.377 1_554 S
C821 H805 0.930 . S
C821 C820 1.377 1_556 S
C821 C822 1.379 . S
C822 H806 0.931 . S
C822 C816 1.383 . S
C822 C821 1.379 . S
H823 C817 0.959 . S
H824 C817 0.961 . S
H825 C817 0.960 1_554 S
H826 C818 0.930 . S
H827 C819 0.929 . S
H828 C836 0.929 . S
H829 C838 0.930 . S
H830 C840 0.930 . S
H831 C843 0.929 . S
H832 C846 0.930 . S
H833 C848 0.960 . S
H834 C848 0.960 . S
H835 C848 0.960 . S
C836 H828 0.929 . S
C836 C837 1.377 . S
C836 C838 1.384 . S
C837 C836 1.377 . S
C837 C843 1.390 . S
C838 H829 0.930 . S
C838 C836 1.384 . S
C838 C839 1.372 . S
C839 C838 1.372 . S
C839 C840 1.400 . S
C839 C844 1.490 . S
C840 H830 0.930 . S
C840 C839 1.400 . S
C840 C843 1.386 . S
H841 C857 0.930 . S
H842 C858 0.931 . S
C843 H831 0.929 . S
C843 C837 1.390 . S
C843 C840 1.386 . S
C844 C839 1.490 . S
C844 C846 1.395 . S
C844 C847 1.403 . S
H845 C851 0.930 . S
C846 H832 0.930 . S
C846 C844 1.395 . S
C846 C849 1.403 . S
C847 C844 1.403 . S
C847 C848 1.524 . S
C847 C851 1.400 . S
C848 H833 0.960 . S
C848 H834 0.960 . S
C848 H835 0.960 . S
C848 C847 1.524 . S
C849 C846 1.403 . S
C849 C850 1.392 . S
C849 C853 1.495 . S
C850 C849 1.392 . S
C850 C851 1.385 . S
C850 C852 1.478 . S
C851 H845 0.930 . S
C851 C847 1.400 . S
C851 C850 1.385 . S
C852 C850 1.478 . S
C852 C854 1.381 . S
C852 C858 1.383 . S
C853 C849 1.495 . S
C853 H859 0.959 . S
C853 H860 0.961 . S
C853 H861 0.960 . S
C854 C852 1.381 . S
C854 C855 1.394 . S
C854 H862 0.930 . S
C855 C854 1.394 . S
C855 C856 1.383 . S
C855 H863 0.929 . S
C856 C855 1.383 . S
C856 C857 1.377 . S
C857 H841 0.930 . S
C857 C856 1.377 . S
C857 C858 1.379 . S
C858 H842 0.931 . S
C858 C852 1.383 . S
C858 C857 1.379 . S
H859 C853 0.959 . S
H860 C853 0.961 . S
H861 C853 0.960 . S
H862 C854 0.930 . S
H863 C855 0.929 . S
H864 C872 0.929 . S
H865 C874 0.930 . S
H866 C876 0.930 . S
H867 C879 0.901 1_545 S
H868 C882 0.930 . S
H869 C884 0.960 . S
H870 C884 0.960 . S
H871 C884 0.960 . S
C872 H864 0.929 . S
C872 C873 1.377 1_565 S
C872 C874 1.384 . S
C873 C872 1.377 1_545 S
C873 C879 1.390 1_545 S
C874 H865 0.930 . S
C874 C872 1.384 . S
C874 C875 1.372 . S
C875 C874 1.372 . S
C875 C876 1.400 . S
C875 C880 1.490 . S
C876 H866 0.930 . S
C876 C875 1.400 . S
C876 C879 1.386 . S
H877 C893 0.930 . S
H878 C894 0.931 . S
C879 H867 0.901 1_565 S
C879 C873 1.390 1_565 S
C879 C876 1.386 . S
C880 C875 1.490 . S
C880 C882 1.395 . S
C880 C883 1.403 . S
H881 C887 0.930 . S
C882 H868 0.930 . S
C882 C880 1.395 . S
C882 C885 1.403 . S
C883 C880 1.403 . S
C883 C884 1.524 . S
C883 C887 1.400 . S
C884 H869 0.960 . S
C884 H870 0.960 . S
C884 H871 0.960 . S
C884 C883 1.524 . S
C885 C882 1.403 . S
C885 C886 1.392 . S
C885 C889 1.495 . S
C886 C885 1.392 . S
C886 C887 1.385 . S
C886 C888 1.478 . S
C887 H881 0.930 . S
C887 C883 1.400 . S
C887 C886 1.385 . S
C888 C886 1.478 . S
C888 C890 1.381 . S
C888 C894 1.383 . S
C889 C885 1.495 . S
C889 H895 0.959 . S
C889 H896 0.961 . S
C889 H897 0.960 . S
C890 C888 1.381 . S
C890 C891 1.394 . S
C890 H898 0.930 . S
C891 C890 1.394 . S
C891 C892 1.383 . S
C891 H899 0.929 . S
C892 C891 1.383 . S
C892 C893 1.377 . S
C893 H877 0.930 . S
C893 C892 1.377 . S
C893 C894 1.379 . S
C894 H878 0.931 . S
C894 C888 1.383 . S
C894 C893 1.379 . S
H895 C889 0.959 . S
H896 C889 0.961 . S
H897 C889 0.960 . S
H898 C890 0.930 . S
H899 C891 0.929 . S
H900 C908 0.929 . S
H901 C910 0.930 . S
H902 C912 0.930 . S
H903 C915 0.929 . S
H904 C918 0.930 . S
H905 C920 0.960 . S
H906 C920 0.960 . S
H907 C920 0.960 . S
C908 H900 0.929 . S
C908 C909 1.377 . S
C908 C910 1.384 . S
C909 C908 1.377 . S
C909 C915 1.390 . S
C910 H901 0.930 . S
C910 C908 1.384 . S
C910 C911 1.372 . S
C911 C910 1.372 . S
C911 C912 1.400 . S
C911 C916 1.490 . S
C912 H902 0.930 . S
C912 C911 1.400 . S
C912 C915 1.386 . S
H913 C929 0.930 . S
H914 C930 0.931 . S
C915 H903 0.929 . S
C915 C909 1.390 . S
C915 C912 1.386 . S
C916 C911 1.490 . S
C916 C918 1.395 . S
C916 C919 1.403 . S
H917 C923 0.930 . S
C918 H904 0.930 . S
C918 C916 1.395 . S
C918 C921 1.403 . S
C919 C916 1.403 . S
C919 C920 1.524 . S
C919 C923 1.400 . S
C920 H905 0.960 . S
C920 H906 0.960 . S
C920 H907 0.960 . S
C920 C919 1.524 . S
C921 C918 1.403 . S
C921 C922 1.392 . S
C921 C925 1.495 . S
C922 C921 1.392 . S
C922 C923 1.385 . S
C922 C924 1.478 . S
C923 H917 0.930 . S
C923 C919 1.400 . S
C923 C922 1.385 . S
C924 C922 1.478 . S
C924 C926 1.381 . S
C924 C930 1.383 . S
C925 C921 1.495 . S
C925 H931 0.959 . S
C925 H932 0.961 . S
C925 H933 0.960 . S
C926 C924 1.381 . S
C926 C927 1.394 . S
C926 H934 0.930 . S
C927 C926 1.394 . S
C927 C928 1.338 1_455 S
C927 H935 0.929 . S
C928 C927 1.338 1_655 S
C928 C929 1.408 . S
C929 H913 0.930 . S
C929 C928 1.408 . S
C929 C930 1.379 1_655 S
C930 H914 0.931 . S
C930 C924 1.383 . S
C930 C929 1.379 1_455 S
H931 C925 0.959 . S
H932 C925 0.961 . S
H933 C925 0.960 . S
H934 C926 0.930 . S
H935 C927 0.929 . S
H936 C944 0.929 . S
H937 C946 0.930 . S
H938 C948 0.930 . S
H939 C951 0.929 . S
H940 C954 0.930 . S
H941 C956 0.960 . S
H942 C956 0.960 . S
H943 C956 0.960 . S
C944 H936 0.929 . S
C944 C945 1.377 . S
C944 C946 1.384 . S
C945 C944 1.377 . S
C945 C951 1.390 . S
C946 H937 0.930 . S
C946 C944 1.384 . S
C946 C947 1.372 . S
C947 C946 1.372 . S
C947 C948 1.400 . S
C947 C952 1.490 . S
C948 H938 0.930 . S
C948 C947 1.400 . S
C948 C951 1.386 . S
H949 C965 0.930 . S
H950 C966 0.931 . S
C951 H939 0.929 . S
C951 C945 1.390 . S
C951 C948 1.386 . S
C952 C947 1.490 . S
C952 C954 1.395 . S
C952 C955 1.403 . S
H953 C959 0.930 . S
C954 H940 0.930 . S
C954 C952 1.395 . S
C954 C957 1.403 . S
C955 C952 1.403 . S
C955 C956 1.524 . S
C955 C959 1.400 . S
C956 H941 0.960 . S
C956 H942 0.960 . S
C956 H943 0.960 . S
C956 C955 1.524 . S
C957 C954 1.403 . S
C957 C958 1.392 . S
C957 C961 1.495 . S
C958 C957 1.392 . S
C958 C959 1.385 . S
C958 C960 1.478 . S
C959 H953 0.930 . S
C959 C955 1.400 . S
C959 C958 1.385 . S
C960 C958 1.478 . S
C960 C962 1.381 . S
C960 C966 1.383 . S
C961 C957 1.495 . S
C961 H967 0.959 . S
C961 H968 0.961 . S
C961 H969 0.960 . S
C962 C960 1.381 . S
C962 C963 1.394 . S
C962 H970 0.930 . S
C963 C962 1.394 . S
C963 C964 1.383 . S
C963 H971 0.929 . S
C964 C963 1.383 . S
C964 C965 1.377 . S
C965 H949 0.930 . S
C965 C964 1.377 . S
C965 C966 1.379 . S
C966 H950 0.931 . S
C966 C960 1.383 . S
C966 C965 1.379 . S
H967 C961 0.959 . S
H968 C961 0.961 . S
H969 C961 0.960 . S
H970 C962 0.930 . S
H971 C963 0.929 . S
H972 C980 0.929 . S
H973 C982 0.930 . S
H974 C984 0.930 . S
H975 C987 0.929 . S
H976 C990 0.930 . S
H977 C992 0.960 . S
H978 C992 0.960 . S
H979 C992 0.960 . S
C980 H972 0.929 . S
C980 C981 1.377 . S
C980 C982 1.384 . S
C981 C980 1.377 . S
C981 C987 1.390 . S
C982 H973 0.930 . S
C982 C980 1.384 . S
C982 C983 1.372 . S
C983 C982 1.372 . S
C983 C984 1.400 . S
C983 C988 1.490 . S
C984 H974 0.930 . S
C984 C983 1.400 . S
C984 C987 1.386 . S
H985 C1001 0.930 . S
H986 C1002 0.931 . S
C987 H975 0.929 . S
C987 C981 1.390 . S
C987 C984 1.386 . S
C988 C983 1.490 . S
C988 C990 1.395 . S
C988 C991 1.403 . S
H989 C995 0.930 . S
C990 H976 0.930 . S
C990 C988 1.395 . S
C990 C993 1.403 . S
C991 C988 1.403 . S
C991 C992 1.524 . S
C991 C995 1.400 . S
C992 H977 0.960 . S
C992 H978 0.960 . S
C992 H979 0.960 . S
C992 C991 1.524 . S
C993 C990 1.403 . S
C993 C994 1.392 . S
C993 C997 1.495 . S
C994 C993 1.392 . S
C994 C995 1.385 . S
C994 C996 1.478 . S
C995 H989 0.930 . S
C995 C991 1.400 . S
C995 C994 1.385 . S
C996 C994 1.478 . S
C996 C998 1.381 . S
C996 C1002 1.383 . S
C997 C993 1.495 . S
C997 H1003 0.959 . S
C997 H1004 0.961 . S
C997 H1005 0.960 . S
C998 C996 1.381 . S
C998 C999 1.394 . S
C998 H1006 0.930 . S
C999 C998 1.394 . S
C999 C1000 1.383 . S
C999 H1007 0.929 . S
C1000 C999 1.383 . S
C1000 C1001 1.377 . S
C1001 H985 0.930 . S
C1001 C1000 1.377 . S
C1001 C1002 1.379 . S
C1002 H986 0.931 . S
C1002 C996 1.383 . S
C1002 C1001 1.379 . S
H1003 C997 0.959 . S
H1004 C997 0.961 . S
H1005 C997 0.960 . S
H1006 C998 0.930 . S
H1007 C999 0.929 . S
H1008 C1016 0.929 . S
H1009 C1018 0.930 . S
H1010 C1020 0.930 . S
H1011 C1023 0.929 . S
H1012 C1026 0.930 . S
H1013 C1028 0.960 . S
H1014 C1028 0.960 . S
H1015 C1028 0.960 . S
C1016 H1008 0.929 . S
C1016 C1017 1.377 . S
C1016 C1018 1.384 . S
C1017 C1016 1.377 . S
C1017 C1023 1.390 . S
C1018 H1009 0.930 . S
C1018 C1016 1.384 . S
C1018 C1019 1.372 . S
C1019 C1018 1.372 . S
C1019 C1020 1.400 . S
C1019 C1024 1.490 . S
C1020 H1010 0.930 . S
C1020 C1019 1.400 . S
C1020 C1023 1.386 . S
H1021 C1037 0.930 . S
H1022 C1038 0.931 . S
C1023 H1011 0.929 . S
C1023 C1017 1.390 . S
C1023 C1020 1.386 . S
C1024 C1019 1.490 . S
C1024 C1026 1.395 . S
C1024 C1027 1.403 . S
H1025 C1031 0.930 . S
C1026 H1012 0.930 . S
C1026 C1024 1.395 . S
C1026 C1029 1.403 . S
C1027 C1024 1.403 . S
C1027 C1028 1.524 . S
C1027 C1031 1.400 . S
C1028 H1013 0.960 . S
C1028 H1014 0.960 . S
C1028 H1015 0.960 . S
C1028 C1027 1.524 . S
C1029 C1026 1.403 . S
C1029 C1030 1.392 . S
C1029 C1033 1.495 . S
C1030 C1029 1.392 . S
C1030 C1031 1.385 . S
C1030 C1032 1.478 . S
C1031 H1025 0.930 . S
C1031 C1027 1.400 . S
C1031 C1030 1.385 . S
C1032 C1030 1.478 . S
C1032 C1034 1.381 . S
C1032 C1038 1.383 . S
C1033 C1029 1.495 . S
C1033 H1039 0.959 . S
C1033 H1040 0.961 . S
C1033 H1041 0.960 . S
C1034 C1032 1.381 . S
C1034 C1035 1.394 . S
C1034 H1042 0.930 . S
C1035 C1034 1.394 . S
C1035 C1036 1.383 . S
C1035 H1043 0.929 . S
C1036 C1035 1.383 . S
C1036 C1037 1.377 . S
C1037 H1021 0.930 . S
C1037 C1036 1.377 . S
C1037 C1038 1.379 . S
C1038 H1022 0.931 . S
C1038 C1032 1.383 . S
C1038 C1037 1.379 . S
H1039 C1033 0.959 . S
H1040 C1033 0.961 . S
H1041 C1033 0.960 . S
H1042 C1034 0.930 . S
H1043 C1035 0.929 . S
H1044 C1052 0.929 . S
H1045 C1054 0.930 . S
H1046 C1056 0.930 . S
H1047 C1059 0.929 . S
H1048 C1062 0.930 . S
H1049 C1064 0.960 . S
H1050 C1064 0.960 . S
H1051 C1064 0.960 . S
C1052 H1044 0.929 . S
C1052 C1053 1.377 . S
C1052 C1054 1.384 . S
C1053 C1052 1.377 . S
C1053 C1059 1.390 . S
C1054 H1045 0.930 . S
C1054 C1052 1.384 . S
C1054 C1055 1.372 . S
C1055 C1054 1.372 . S
C1055 C1056 1.400 . S
C1055 C1060 1.490 . S
C1056 H1046 0.930 . S
C1056 C1055 1.400 . S
C1056 C1059 1.386 . S
H1057 C1073 0.930 . S
H1058 C1074 0.931 . S
C1059 H1047 0.929 . S
C1059 C1053 1.390 . S
C1059 C1056 1.386 . S
C1060 C1055 1.490 . S
C1060 C1062 1.395 . S
C1060 C1063 1.403 . S
H1061 C1067 0.930 . S
C1062 H1048 0.930 . S
C1062 C1060 1.395 . S
C1062 C1065 1.403 . S
C1063 C1060 1.403 . S
C1063 C1064 1.524 . S
C1063 C1067 1.400 . S
C1064 H1049 0.960 . S
C1064 H1050 0.960 . S
C1064 H1051 0.960 . S
C1064 C1063 1.524 . S
C1065 C1062 1.403 . S
C1065 C1066 1.392 . S
C1065 C1069 1.495 . S
C1066 C1065 1.392 . S
C1066 C1067 1.385 . S
C1066 C1068 1.478 . S
C1067 H1061 0.930 . S
C1067 C1063 1.400 . S
C1067 C1066 1.385 . S
C1068 C1066 1.478 . S
C1068 C1070 1.381 . S
C1068 C1074 1.383 . S
C1069 C1065 1.495 . S
C1069 H1075 0.959 . S
C1069 H1076 0.961 . S
C1069 H1077 0.960 . S
C1070 C1068 1.381 . S
C1070 C1071 1.394 . S
C1070 H1078 0.930 . S
C1071 C1070 1.394 . S
C1071 C1072 1.383 . S
C1071 H1079 0.929 . S
C1072 C1071 1.383 . S
C1072 C1073 1.377 . S
C1073 H1057 0.930 . S
C1073 C1072 1.377 . S
C1073 C1074 1.379 . S
C1074 H1058 0.931 . S
C1074 C1068 1.383 . S
C1074 C1073 1.379 . S
H1075 C1069 0.959 . S
H1076 C1069 0.961 . S
H1077 C1069 0.960 . S
H1078 C1070 0.930 . S
H1079 C1071 0.929 . S
H1080 C1088 0.929 . S
H1081 C1090 0.930 . S
H1082 C1092 0.930 . S
H1083 C1095 0.929 . S
H1084 C1098 0.930 . S
H1085 C1100 0.960 . S
H1086 C1100 0.960 . S
H1087 C1100 0.960 . S
C1088 H1080 0.929 . S
C1088 C1089 1.377 . S
C1088 C1090 1.384 . S
C1089 C1088 1.377 . S
C1089 C1095 1.390 . S
C1090 H1081 0.930 . S
C1090 C1088 1.384 . S
C1090 C1091 1.372 . S
C1091 C1090 1.372 . S
C1091 C1092 1.400 . S
C1091 C1096 1.490 . S
C1092 H1082 0.930 . S
C1092 C1091 1.400 . S
C1092 C1095 1.386 . S
H1093 C1109 0.930 . S
H1094 C1110 0.931 . S
C1095 H1083 0.929 . S
C1095 C1089 1.390 . S
C1095 C1092 1.386 . S
C1096 C1091 1.490 . S
C1096 C1098 1.395 . S
C1096 C1099 1.403 . S
H1097 C1103 0.930 . S
C1098 H1084 0.930 . S
C1098 C1096 1.395 . S
C1098 C1101 1.403 . S
C1099 C1096 1.403 . S
C1099 C1100 1.524 . S
C1099 C1103 1.400 . S
C1100 H1085 0.960 . S
C1100 H1086 0.960 . S
C1100 H1087 0.960 . S
C1100 C1099 1.524 . S
C1101 C1098 1.403 . S
C1101 C1102 1.392 . S
C1101 C1105 1.495 . S
C1102 C1101 1.392 . S
C1102 C1103 1.385 . S
C1102 C1104 1.478 . S
C1103 H1097 0.930 . S
C1103 C1099 1.400 . S
C1103 C1102 1.385 . S
C1104 C1102 1.478 . S
C1104 C1106 1.381 . S
C1104 C1110 1.383 . S
C1105 C1101 1.495 . S
C1105 H1111 0.959 . S
C1105 H1112 0.961 . S
C1105 H1113 0.960 . S
C1106 C1104 1.381 . S
C1106 C1107 1.394 . S
C1106 H1114 0.930 . S
C1107 C1106 1.394 . S
C1107 C1108 1.383 . S
C1107 H1115 0.929 . S
C1108 C1107 1.383 . S
C1108 C1109 1.377 . S
C1109 H1093 0.930 . S
C1109 C1108 1.377 . S
C1109 C1110 1.379 . S
C1110 H1094 0.931 . S
C1110 C1104 1.383 . S
C1110 C1109 1.379 . S
H1111 C1105 0.959 . S
H1112 C1105 0.961 . S
H1113 C1105 0.960 . S
H1114 C1106 0.930 . S
H1115 C1107 0.929 . S
H1116 C1124 0.929 . S
H1117 C1126 0.930 . S
H1118 C1128 0.930 . S
H1119 C1131 0.929 . S
H1120 C1134 0.930 . S
H1121 C1136 0.960 . S
H1122 C1136 0.960 . S
H1123 C1136 0.960 . S
C1124 H1116 0.929 . S
C1124 C1125 1.377 . S
C1124 C1126 1.384 . S
C1125 C1124 1.377 . S
C1125 C1131 1.390 . S
C1126 H1117 0.930 . S
C1126 C1124 1.384 . S
C1126 C1127 1.372 . S
C1127 C1126 1.372 . S
C1127 C1128 1.400 . S
C1127 C1132 1.490 . S
C1128 H1118 0.930 . S
C1128 C1127 1.400 . S
C1128 C1131 1.386 . S
H1129 C1145 0.930 . S
H1130 C1146 0.931 . S
C1131 H1119 0.929 . S
C1131 C1125 1.390 . S
C1131 C1128 1.386 . S
C1132 C1127 1.490 . S
C1132 C1134 1.395 . S
C1132 C1135 1.403 . S
H1133 C1139 0.930 . S
C1134 H1120 0.930 . S
C1134 C1132 1.395 . S
C1134 C1137 1.403 . S
C1135 C1132 1.403 . S
C1135 C1136 1.524 . S
C1135 C1139 1.400 . S
C1136 H1121 0.960 . S
C1136 H1122 0.960 . S
C1136 H1123 0.960 . S
C1136 C1135 1.524 . S
C1137 C1134 1.403 . S
C1137 C1138 1.392 . S
C1137 C1141 1.495 . S
C1138 C1137 1.392 . S
C1138 C1139 1.385 . S
C1138 C1140 1.478 . S
C1139 H1133 0.930 . S
C1139 C1135 1.400 . S
C1139 C1138 1.385 . S
C1140 C1138 1.478 . S
C1140 C1142 1.381 . S
C1140 C1146 1.383 . S
C1141 C1137 1.495 . S
C1141 H1147 0.959 . S
C1141 H1148 0.961 . S
C1141 H1149 0.960 . S
C1142 C1140 1.381 . S
C1142 C1143 1.394 . S
C1142 H1150 0.930 . S
C1143 C1142 1.394 . S
C1143 C1144 1.383 . S
C1143 H1151 0.929 . S
C1144 C1143 1.383 . S
C1144 C1145 1.377 . S
C1145 H1129 0.930 . S
C1145 C1144 1.377 . S
C1145 C1146 1.379 . S
C1146 H1130 0.931 . S
C1146 C1140 1.383 . S
C1146 C1145 1.379 . S
H1147 C1141 0.959 . S
H1148 C1141 0.961 . S
H1149 C1141 0.960 . S
H1150 C1142 0.930 . S
H1151 C1143 0.929 . S
H1152 C1160 0.929 . S
H1153 C1162 0.930 . S
H1154 C1164 0.930 . S
H1155 C1167 0.929 . S
H1156 C1170 0.930 . S
H1157 C1172 0.960 . S
H1158 C1172 0.960 . S
H1159 C1172 0.960 . S
C1160 H1152 0.929 . S
C1160 C1161 1.377 . S
C1160 C1162 1.384 . S
C1161 C1160 1.377 . S
C1161 C1167 1.390 . S
C1162 H1153 0.930 . S
C1162 C1160 1.384 . S
C1162 C1163 1.372 . S
C1163 C1162 1.372 . S
C1163 C1164 1.400 . S
C1163 C1168 1.490 . S
C1164 H1154 0.930 . S
C1164 C1163 1.400 . S
C1164 C1167 1.386 . S
H1165 C1181 0.930 . S
H1166 C1182 0.931 . S
C1167 H1155 0.929 . S
C1167 C1161 1.390 . S
C1167 C1164 1.386 . S
C1168 C1163 1.490 . S
C1168 C1170 1.395 . S
C1168 C1171 1.403 . S
H1169 C1175 0.930 . S
C1170 H1156 0.930 . S
C1170 C1168 1.395 . S
C1170 C1173 1.403 . S
C1171 C1168 1.403 . S
C1171 C1172 1.524 . S
C1171 C1175 1.400 . S
C1172 H1157 0.960 . S
C1172 H1158 0.960 . S
C1172 H1159 0.960 . S
C1172 C1171 1.524 . S
C1173 C1170 1.403 . S
C1173 C1174 1.392 . S
C1173 C1177 1.495 . S
C1174 C1173 1.392 . S
C1174 C1175 1.385 . S
C1174 C1176 1.478 . S
C1175 H1169 0.930 . S
C1175 C1171 1.400 . S
C1175 C1174 1.385 . S
C1176 C1174 1.478 . S
C1176 C1178 1.381 . S
C1176 C1182 1.383 . S
C1177 C1173 1.495 . S
C1177 H1183 0.959 . S
C1177 H1184 0.961 . S
C1177 H1185 0.960 . S
C1178 C1176 1.381 . S
C1178 C1179 1.394 . S
C1178 H1186 0.930 . S
C1179 C1178 1.394 . S
C1179 C1180 1.383 . S
C1179 H1187 0.929 . S
C1180 C1179 1.383 . S
C1180 C1181 1.377 . S
C1181 H1165 0.930 . S
C1181 C1180 1.377 . S
C1181 C1182 1.379 . S
C1182 H1166 0.931 . S
C1182 C1176 1.383 . S
C1182 C1181 1.379 . S
H1183 C1177 0.959 . S
H1184 C1177 0.961 . S
H1185 C1177 0.960 . S
H1186 C1178 0.930 . S
H1187 C1179 0.929 . S
H1188 C1196 0.929 . S
H1189 C1198 0.930 . S
H1190 C1200 0.930 . S
H1191 C1203 0.929 . S
H1192 C1206 0.930 . S
H1193 C1208 0.960 . S
H1194 C1208 0.960 . S
H1195 C1208 0.960 . S
C1196 H1188 0.929 . S
C1196 C1197 1.377 . S
C1196 C1198 1.384 . S
C1197 C1196 1.377 . S
C1197 C1203 1.390 . S
C1198 H1189 0.930 . S
C1198 C1196 1.384 . S
C1198 C1199 1.372 . S
C1199 C1198 1.372 . S
C1199 C1200 1.400 . S
C1199 C1204 1.490 . S
C1200 H1190 0.930 . S
C1200 C1199 1.400 . S
C1200 C1203 1.386 . S
H1201 C1217 0.930 . S
H1202 C1218 0.931 . S
C1203 H1191 0.929 . S
C1203 C1197 1.390 . S
C1203 C1200 1.386 . S
C1204 C1199 1.490 . S
C1204 C1206 1.395 . S
C1204 C1207 1.403 . S
H1205 C1211 0.930 . S
C1206 H1192 0.930 . S
C1206 C1204 1.395 . S
C1206 C1209 1.403 . S
C1207 C1204 1.403 . S
C1207 C1208 1.524 . S
C1207 C1211 1.400 . S
C1208 H1193 0.960 . S
C1208 H1194 0.960 . S
C1208 H1195 0.960 . S
C1208 C1207 1.524 . S
C1209 C1206 1.403 . S
C1209 C1210 1.392 . S
C1209 C1213 1.495 . S
C1210 C1209 1.392 . S
C1210 C1211 1.385 . S
C1210 C1212 1.478 . S
C1211 H1205 0.930 . S
C1211 C1207 1.400 . S
C1211 C1210 1.385 . S
C1212 C1210 1.478 . S
C1212 C1214 1.381 . S
C1212 C1218 1.383 . S
C1213 C1209 1.495 . S
C1213 H1219 0.959 . S
C1213 H1220 0.961 . S
C1213 H1221 0.960 . S
C1214 C1212 1.381 . S
C1214 C1215 1.394 . S
C1214 H1222 0.930 . S
C1215 C1214 1.394 . S
C1215 C1216 1.324 1_545 S
C1215 H1223 0.929 . S
C1216 C1215 1.324 1_565 S
C1216 C1217 1.374 . S
C1217 H1201 0.930 . S
C1217 C1216 1.374 . S
C1217 C1218 1.379 1_565 S
C1218 H1202 0.931 . S
C1218 C1212 1.383 . S
C1218 C1217 1.379 1_545 S
H1219 C1213 0.959 . S
H1220 C1213 0.961 . S
H1221 C1213 0.960 . S
H1222 C1214 0.930 . S
H1223 C1215 0.929 . S
H1224 C1232 0.929 . S
H1225 C1234 0.930 . S
H1226 C1236 0.930 . S
H1227 C1239 0.929 . S
H1228 C1242 0.930 . S
H1229 C1244 0.960 . S
H1230 C1244 0.960 . S
H1231 C1244 0.960 . S
C1232 H1224 0.929 . S
C1232 C1233 1.377 . S
C1232 C1234 1.384 1_455 S
C1233 C1232 1.377 . S
C1233 C1239 1.390 1_455 S
C1234 H1225 0.930 . S
C1234 C1232 1.384 1_655 S
C1234 C1235 1.372 . S
C1235 C1234 1.372 . S
C1235 C1236 1.400 . S
C1235 C1240 1.490 . S
C1236 H1226 0.930 . S
C1236 C1235 1.400 . S
C1236 C1239 1.386 . S
H1237 C1253 0.930 . S
H1238 C1254 0.931 . S
C1239 H1227 0.929 . S
C1239 C1233 1.390 1_655 S
C1239 C1236 1.386 . S
C1240 C1235 1.490 . S
C1240 C1242 1.395 . S
C1240 C1243 1.403 . S
H1241 C1247 0.930 . S
C1242 H1228 0.930 . S
C1242 C1240 1.395 . S
C1242 C1245 1.403 . S
C1243 C1240 1.403 . S
C1243 C1244 1.524 . S
C1243 C1247 1.400 . S
C1244 H1229 0.960 . S
C1244 H1230 0.960 . S
C1244 H1231 0.960 . S
C1244 C1243 1.524 . S
C1245 C1242 1.403 . S
C1245 C1246 1.392 . S
C1245 C1249 1.495 . S
C1246 C1245 1.392 . S
C1246 C1247 1.385 . S
C1246 C1248 1.478 . S
C1247 H1241 0.930 . S
C1247 C1243 1.400 . S
C1247 C1246 1.385 . S
C1248 C1246 1.478 . S
C1248 C1250 1.381 . S
C1248 C1254 1.383 . S
C1249 C1245 1.495 . S
C1249 H1255 0.959 . S
C1249 H1256 0.961 . S
C1249 H1257 0.960 . S
C1250 C1248 1.381 . S
C1250 C1251 1.394 . S
C1250 H1258 0.930 . S
C1251 C1250 1.394 . S
C1251 C1252 1.383 . S
C1251 H1259 0.929 . S
C1252 C1251 1.383 . S
C1252 C1253 1.377 . S
C1253 H1237 0.930 . S
C1253 C1252 1.377 . S
C1253 C1254 1.379 . S
C1254 H1238 0.931 . S
C1254 C1248 1.383 . S
C1254 C1253 1.379 . S
H1255 C1249 0.959 . S
H1256 C1249 0.961 . S
H1257 C1249 0.960 . S
H1258 C1250 0.930 . S
H1259 C1251 0.929 . S
H1260 C1268 0.929 . S
H1261 C1270 0.930 . S
H1262 C1272 0.930 . S
H1263 C1275 0.929 . S
H1264 C1278 0.930 . S
H1265 C1280 0.960 . S
H1266 C1280 0.960 . S
H1267 C1280 0.960 . S
C1268 H1260 0.929 . S
C1268 C1269 1.377 . S
C1268 C1270 1.384 . S
C1269 C1268 1.377 . S
C1269 C1275 1.390 . S
C1270 H1261 0.930 . S
C1270 C1268 1.384 . S
C1270 C1271 1.372 . S
C1271 C1270 1.372 . S
C1271 C1272 1.400 . S
C1271 C1276 1.490 . S
C1272 H1262 0.930 . S
C1272 C1271 1.400 . S
C1272 C1275 1.386 . S
H1273 C1289 0.930 . S
H1274 C1290 0.931 . S
C1275 H1263 0.929 . S
C1275 C1269 1.390 . S
C1275 C1272 1.386 . S
C1276 C1271 1.490 . S
C1276 C1278 1.395 . S
C1276 C1279 1.403 . S
H1277 C1283 0.930 . S
C1278 H1264 0.930 . S
C1278 C1276 1.395 . S
C1278 C1281 1.403 . S
C1279 C1276 1.403 . S
C1279 C1280 1.524 . S
C1279 C1283 1.400 . S
C1280 H1265 0.960 . S
C1280 H1266 0.960 . S
C1280 H1267 0.960 . S
C1280 C1279 1.524 . S
C1281 C1278 1.403 . S
C1281 C1282 1.392 . S
C1281 C1285 1.495 . S
C1282 C1281 1.392 . S
C1282 C1283 1.385 . S
C1282 C1284 1.478 . S
C1283 H1277 0.930 . S
C1283 C1279 1.400 . S
C1283 C1282 1.385 . S
C1284 C1282 1.478 . S
C1284 C1286 1.381 . S
C1284 C1290 1.383 . S
C1285 C1281 1.495 . S
C1285 H1291 0.959 . S
C1285 H1292 0.961 . S
C1285 H1293 0.960 . S
C1286 C1284 1.381 . S
C1286 C1287 1.394 . S
C1286 H1294 0.930 . S
C1287 C1286 1.394 . S
C1287 C1288 1.383 . S
C1287 H1295 0.929 . S
C1288 C1287 1.383 . S
C1288 C1289 1.377 . S
C1289 H1273 0.930 . S
C1289 C1288 1.377 . S
C1289 C1290 1.379 . S
C1290 H1274 0.931 . S
C1290 C1284 1.383 . S
C1290 C1289 1.379 . S
H1291 C1285 0.959 . S
H1292 C1285 0.961 . S
H1293 C1285 0.960 . S
H1294 C1286 0.930 . S
H1295 C1287 0.929 . S
H1296 C1304 0.929 . S
H1297 C1306 0.930 . S
H1298 C1308 0.930 . S
H1299 C1311 0.929 . S
H1300 C1314 0.930 . S
H1301 C1316 0.960 . S
H1302 C1316 0.960 . S
H1303 C1316 0.960 . S
C1304 H1296 0.929 . S
C1304 C1305 1.377 . S
C1304 C1306 1.384 . S
C1305 C1304 1.377 . S
C1305 C1311 1.390 . S
C1306 H1297 0.930 . S
C1306 C1304 1.384 . S
C1306 C1307 1.372 . S
C1307 C1306 1.372 . S
C1307 C1308 1.400 . S
C1307 C1312 1.490 . S
C1308 H1298 0.930 . S
C1308 C1307 1.400 . S
C1308 C1311 1.386 . S
H1309 C1325 0.930 . S
H1310 C1326 0.931 . S
C1311 H1299 0.929 . S
C1311 C1305 1.390 . S
C1311 C1308 1.386 . S
C1312 C1307 1.490 . S
C1312 C1314 1.395 . S
C1312 C1315 1.403 . S
H1313 C1319 0.930 . S
C1314 H1300 0.930 . S
C1314 C1312 1.395 . S
C1314 C1317 1.403 . S
C1315 C1312 1.403 . S
C1315 C1316 1.524 . S
C1315 C1319 1.400 . S
C1316 H1301 0.960 . S
C1316 H1302 0.960 . S
C1316 H1303 0.960 . S
C1316 C1315 1.524 . S
C1317 C1314 1.403 . S
C1317 C1318 1.392 . S
C1317 C1321 1.495 . S
C1318 C1317 1.392 . S
C1318 C1319 1.385 . S
C1318 C1320 1.478 . S
C1319 H1313 0.930 . S
C1319 C1315 1.400 . S
C1319 C1318 1.385 . S
C1320 C1318 1.478 . S
C1320 C1322 1.381 . S
C1320 C1326 1.383 . S
C1321 C1317 1.495 . S
C1321 H1327 0.959 . S
C1321 H1328 0.961 . S
C1321 H1329 0.960 . S
C1322 C1320 1.381 . S
C1322 C1323 1.394 . S
C1322 H1330 0.930 . S
C1323 C1322 1.394 . S
C1323 C1324 1.383 . S
C1323 H1331 0.929 . S
C1324 C1323 1.383 . S
C1324 C1325 1.377 . S
C1325 H1309 0.930 . S
C1325 C1324 1.377 . S
C1325 C1326 1.379 . S
C1326 H1310 0.931 . S
C1326 C1320 1.383 . S
C1326 C1325 1.379 . S
H1327 C1321 0.959 . S
H1328 C1321 0.961 . S
H1329 C1321 0.960 . S
H1330 C1322 0.930 . S
H1331 C1323 0.929 . S
H1332 C1340 0.929 . S
H1333 C1342 0.930 . S
H1334 C1344 0.930 . S
H1335 C1347 0.929 . S
H1336 C1350 0.930 . S
H1337 C1352 0.960 . S
H1338 C1352 0.960 . S
H1339 C1352 0.960 . S
C1340 H1332 0.929 . S
C1340 C1341 1.377 . S
C1340 C1342 1.384 . S
C1341 C1340 1.377 . S
C1341 C1347 1.390 . S
C1342 H1333 0.930 . S
C1342 C1340 1.384 . S
C1342 C1343 1.372 . S
C1343 C1342 1.372 . S
C1343 C1344 1.400 . S
C1343 C1348 1.490 . S
C1344 H1334 0.930 . S
C1344 C1343 1.400 . S
C1344 C1347 1.386 . S
H1345 C1361 0.930 . S
H1346 C1362 0.931 . S
C1347 H1335 0.929 . S
C1347 C1341 1.390 . S
C1347 C1344 1.386 . S
C1348 C1343 1.490 . S
C1348 C1350 1.395 . S
C1348 C1351 1.403 . S
H1349 C1355 0.930 . S
C1350 H1336 0.930 . S
C1350 C1348 1.395 . S
C1350 C1353 1.403 . S
C1351 C1348 1.403 . S
C1351 C1352 1.524 . S
C1351 C1355 1.400 . S
C1352 H1337 0.960 . S
C1352 H1338 0.960 . S
C1352 H1339 0.960 . S
C1352 C1351 1.524 . S
C1353 C1350 1.403 . S
C1353 C1354 1.392 . S
C1353 C1357 1.495 . S
C1354 C1353 1.392 . S
C1354 C1355 1.385 . S
C1354 C1356 1.478 . S
C1355 H1349 0.930 . S
C1355 C1351 1.400 . S
C1355 C1354 1.385 . S
C1356 C1354 1.478 . S
C1356 C1358 1.381 . S
C1356 C1362 1.383 . S
C1357 C1353 1.495 . S
C1357 H1363 0.959 . S
C1357 H1364 0.961 . S
C1357 H1365 0.960 . S
C1358 C1356 1.381 . S
C1358 C1359 1.394 . S
C1358 H1366 0.930 . S
C1359 C1358 1.394 . S
C1359 C1360 1.383 . S
C1359 H1367 0.929 . S
C1360 C1359 1.383 . S
C1360 C1361 1.377 . S
C1361 H1345 0.930 . S
C1361 C1360 1.377 . S
C1361 C1362 1.379 . S
C1362 H1346 0.931 . S
C1362 C1356 1.383 . S
C1362 C1361 1.379 . S
H1363 C1357 0.959 . S
H1364 C1357 0.961 . S
H1365 C1357 0.960 . S
H1366 C1358 0.930 . S
H1367 C1359 0.929 . S
H1368 C1376 0.929 . S
H1369 C1378 0.930 . S
H1370 C1380 0.930 . S
H1371 C1383 0.929 . S
H1372 C1386 0.930 . S
H1373 C1388 0.960 . S
H1374 C1388 0.960 . S
H1375 C1388 0.960 . S
C1376 H1368 0.929 . S
C1376 C1377 1.377 . S
C1376 C1378 1.384 . S
C1377 C1376 1.377 . S
C1377 C1383 1.390 . S
C1378 H1369 0.930 . S
C1378 C1376 1.384 . S
C1378 C1379 1.372 . S
C1379 C1378 1.372 . S
C1379 C1380 1.400 . S
C1379 C1384 1.490 . S
C1380 H1370 0.930 . S
C1380 C1379 1.400 . S
C1380 C1383 1.386 . S
H1381 C1397 0.930 . S
H1382 C1398 0.931 . S
C1383 H1371 0.929 . S
C1383 C1377 1.390 . S
C1383 C1380 1.386 . S
C1384 C1379 1.490 . S
C1384 C1386 1.395 . S
C1384 C1387 1.403 . S
H1385 C1391 0.930 . S
C1386 H1372 0.930 . S
C1386 C1384 1.395 . S
C1386 C1389 1.403 . S
C1387 C1384 1.403 . S
C1387 C1388 1.524 . S
C1387 C1391 1.400 . S
C1388 H1373 0.960 . S
C1388 H1374 0.960 . S
C1388 H1375 0.960 . S
C1388 C1387 1.524 . S
C1389 C1386 1.403 . S
C1389 C1390 1.392 . S
C1389 C1393 1.495 . S
C1390 C1389 1.392 . S
C1390 C1391 1.385 . S
C1390 C1392 1.478 . S
C1391 H1385 0.930 . S
C1391 C1387 1.400 . S
C1391 C1390 1.385 . S
C1392 C1390 1.478 . S
C1392 C1394 1.381 . S
C1392 C1398 1.383 . S
C1393 C1389 1.495 . S
C1393 H1399 0.959 . S
C1393 H1400 0.961 . S
C1393 H1401 0.960 . S
C1394 C1392 1.381 . S
C1394 C1395 1.394 . S
C1394 H1402 0.930 . S
C1395 C1394 1.394 . S
C1395 C1396 1.383 . S
C1395 H1403 0.929 . S
C1396 C1395 1.383 . S
C1396 C1397 1.377 . S
C1397 H1381 0.930 . S
C1397 C1396 1.377 . S
C1397 C1398 1.379 . S
C1398 H1382 0.931 . S
C1398 C1392 1.383 . S
C1398 C1397 1.379 . S
H1399 C1393 0.959 . S
H1400 C1393 0.961 . S
H1401 C1393 0.960 . S
H1402 C1394 0.930 . S
H1403 C1395 0.929 . S
H1404 C1412 0.929 . S
H1405 C1414 0.930 . S
H1406 C1416 0.930 . S
H1407 C1419 0.929 . S
H1408 C1422 0.930 . S
H1409 C1424 0.960 . S
H1410 C1424 0.960 . S
H1411 C1424 0.960 . S
C1412 H1404 0.929 . S
C1412 C1413 1.377 . S
C1412 C1414 1.384 . S
C1413 C1412 1.377 . S
C1413 C1419 1.390 . S
C1414 H1405 0.930 . S
C1414 C1412 1.384 . S
C1414 C1415 1.372 . S
C1415 C1414 1.372 . S
C1415 C1416 1.400 . S
C1415 C1420 1.490 . S
C1416 H1406 0.930 . S
C1416 C1415 1.400 . S
C1416 C1419 1.386 . S
H1417 C1433 0.930 . S
H1418 C1434 0.931 . S
C1419 H1407 0.929 . S
C1419 C1413 1.390 . S
C1419 C1416 1.386 . S
C1420 C1415 1.490 . S
C1420 C1422 1.395 . S
C1420 C1423 1.403 . S
H1421 C1427 0.930 . S
C1422 H1408 0.930 . S
C1422 C1420 1.395 . S
C1422 C1425 1.403 . S
C1423 C1420 1.403 . S
C1423 C1424 1.524 . S
C1423 C1427 1.400 . S
C1424 H1409 0.960 . S
C1424 H1410 0.960 . S
C1424 H1411 0.960 . S
C1424 C1423 1.524 . S
C1425 C1422 1.403 . S
C1425 C1426 1.392 . S
C1425 C1429 1.495 . S
C1426 C1425 1.392 . S
C1426 C1427 1.385 . S
C1426 C1428 1.478 . S
C1427 H1421 0.930 . S
C1427 C1423 1.400 . S
C1427 C1426 1.385 . S
C1428 C1426 1.478 . S
C1428 C1430 1.381 . S
C1428 C1434 1.383 . S
C1429 C1425 1.495 . S
C1429 H1435 0.959 . S
C1429 H1436 0.961 . S
C1429 H1437 0.960 . S
C1430 C1428 1.381 . S
C1430 C1431 1.394 . S
C1430 H1438 0.930 . S
C1431 C1430 1.394 . S
C1431 C1432 1.383 . S
C1431 H1439 0.929 . S
C1432 C1431 1.383 . S
C1432 C1433 1.377 . S
C1433 H1417 0.930 . S
C1433 C1432 1.377 . S
C1433 C1434 1.379 . S
C1434 H1418 0.931 . S
C1434 C1428 1.383 . S
C1434 C1433 1.379 . S
H1435 C1429 0.959 . S
H1436 C1429 0.961 . S
H1437 C1429 0.960 . S
H1438 C1430 0.930 . S
H1439 C1431 0.929 . S
H1440 C1448 0.929 . S
H1441 C1450 0.930 . S
H1442 C1452 0.930 . S
H1443 C1455 0.929 . S
H1444 C1458 0.930 . S
H1445 C1460 0.960 . S
H1446 C1460 0.960 . S
H1447 C1460 0.960 . S
C1448 H1440 0.929 . S
C1448 C1449 1.377 . S
C1448 C1450 1.384 . S
C1449 C1448 1.377 . S
C1449 C1455 1.390 . S
C1450 H1441 0.930 . S
C1450 C1448 1.384 . S
C1450 C1451 1.372 . S
C1451 C1450 1.372 . S
C1451 C1452 1.400 . S
C1451 C1456 1.490 . S
C1452 H1442 0.930 . S
C1452 C1451 1.400 . S
C1452 C1455 1.386 . S
H1453 C1469 0.930 . S
H1454 C1470 0.931 . S
C1455 H1443 0.929 . S
C1455 C1449 1.390 . S
C1455 C1452 1.386 . S
C1456 C1451 1.490 . S
C1456 C1458 1.395 . S
C1456 C1459 1.403 . S
H1457 C1463 0.930 . S
C1458 H1444 0.930 . S
C1458 C1456 1.395 . S
C1458 C1461 1.403 . S
C1459 C1456 1.403 . S
C1459 C1460 1.524 . S
C1459 C1463 1.400 . S
C1460 H1445 0.960 . S
C1460 H1446 0.960 . S
C1460 H1447 0.960 . S
C1460 C1459 1.524 . S
C1461 C1458 1.403 . S
C1461 C1462 1.392 . S
C1461 C1465 1.495 . S
C1462 C1461 1.392 . S
C1462 C1463 1.385 . S
C1462 C1464 1.478 . S
C1463 H1457 0.930 . S
C1463 C1459 1.400 . S
C1463 C1462 1.385 . S
C1464 C1462 1.478 . S
C1464 C1466 1.381 . S
C1464 C1470 1.383 . S
C1465 C1461 1.495 . S
C1465 H1471 0.959 . S
C1465 H1472 0.961 . S
C1465 H1473 0.960 . S
C1466 C1464 1.381 . S
C1466 C1467 1.394 . S
C1466 H1474 0.930 . S
C1467 C1466 1.394 . S
C1467 C1468 1.383 . S
C1467 H1475 0.929 . S
C1468 C1467 1.383 . S
C1468 C1469 1.377 . S
C1469 H1453 0.930 . S
C1469 C1468 1.377 . S
C1469 C1470 1.379 . S
C1470 H1454 0.931 . S
C1470 C1464 1.383 . S
C1470 C1469 1.379 . S
H1471 C1465 0.959 . S
H1472 C1465 0.961 . S
H1473 C1465 0.960 . S
H1474 C1466 0.930 . S
H1475 C1467 0.929 . S
H1476 C1484 0.929 . S
H1477 C1486 0.930 . S
H1478 C1488 0.930 . S
H1479 C1491 0.929 . S
H1480 C1494 0.930 . S
H1481 C1496 0.960 . S
H1482 C1496 0.960 . S
H1483 C1496 0.960 . S
C1484 H1476 0.929 . S
C1484 C1485 1.377 . S
C1484 C1486 1.384 . S
C1485 C1484 1.377 . S
C1485 C1491 1.390 . S
C1486 H1477 0.930 . S
C1486 C1484 1.384 . S
C1486 C1487 1.372 . S
C1487 C1486 1.372 . S
C1487 C1488 1.400 . S
C1487 C1492 1.490 . S
C1488 H1478 0.930 . S
C1488 C1487 1.400 . S
C1488 C1491 1.386 . S
H1489 C1505 0.930 . S
H1490 C1506 0.931 . S
C1491 H1479 0.929 . S
C1491 C1485 1.390 . S
C1491 C1488 1.386 . S
C1492 C1487 1.490 . S
C1492 C1494 1.395 . S
C1492 C1495 1.403 . S
H1493 C1499 0.930 . S
C1494 H1480 0.930 . S
C1494 C1492 1.395 . S
C1494 C1497 1.403 . S
C1495 C1492 1.403 . S
C1495 C1496 1.524 . S
C1495 C1499 1.400 . S
C1496 H1481 0.960 . S
C1496 H1482 0.960 . S
C1496 H1483 0.960 . S
C1496 C1495 1.524 . S
C1497 C1494 1.403 . S
C1497 C1498 1.392 . S
C1497 C1501 1.495 . S
C1498 C1497 1.392 . S
C1498 C1499 1.385 . S
C1498 C1500 1.478 . S
C1499 H1493 0.930 . S
C1499 C1495 1.400 . S
C1499 C1498 1.385 . S
C1500 C1498 1.478 . S
C1500 C1502 1.381 . S
C1500 C1506 1.383 . S
C1501 C1497 1.495 . S
C1501 H1507 0.959 . S
C1501 H1508 0.961 . S
C1501 H1509 0.960 . S
C1502 C1500 1.381 . S
C1502 C1503 1.394 . S
C1502 H1510 0.930 . S
C1503 C1502 1.394 . S
C1503 C1504 1.383 . S
C1503 H1511 0.929 . S
C1504 C1503 1.383 . S
C1504 C1505 1.377 . S
C1505 H1489 0.930 . S
C1505 C1504 1.377 . S
C1505 C1506 1.379 . S
C1506 H1490 0.931 . S
C1506 C1500 1.383 . S
C1506 C1505 1.379 . S
H1507 C1501 0.959 . S
H1508 C1501 0.961 . S
H1509 C1501 0.960 . S
H1510 C1502 0.930 . S
H1511 C1503 0.929 . S
H1512 C1520 0.929 . S
H1513 C1522 0.930 . S
H1514 C1524 0.930 . S
H1515 C1527 0.929 . S
H1516 C1530 0.930 . S
H1517 C1532 0.960 . S
H1518 C1532 0.960 . S
H1519 C1532 0.960 . S
C1520 H1512 0.929 . S
C1520 C1521 1.377 . S
C1520 C1522 1.384 . S
C1521 C1520 1.377 . S
C1521 C1527 1.390 . S
C1522 H1513 0.930 . S
C1522 C1520 1.384 . S
C1522 C1523 1.372 . S
C1523 C1522 1.372 . S
C1523 C1524 1.400 . S
C1523 C1528 1.490 . S
C1524 H1514 0.930 . S
C1524 C1523 1.400 . S
C1524 C1527 1.386 . S
H1525 C1541 0.930 . S
H1526 C1542 0.931 . S
C1527 H1515 0.929 . S
C1527 C1521 1.390 . S
C1527 C1524 1.386 . S
C1528 C1523 1.490 . S
C1528 C1530 1.395 . S
C1528 C1531 1.403 . S
H1529 C1535 0.930 . S
C1530 H1516 0.930 . S
C1530 C1528 1.395 . S
C1530 C1533 1.403 . S
C1531 C1528 1.403 . S
C1531 C1532 1.524 . S
C1531 C1535 1.400 . S
C1532 H1517 0.960 . S
C1532 H1518 0.960 . S
C1532 H1519 0.960 . S
C1532 C1531 1.524 . S
C1533 C1530 1.403 . S
C1533 C1534 1.392 . S
C1533 C1537 1.495 . S
C1534 C1533 1.392 . S
C1534 C1535 1.385 . S
C1534 C1536 1.478 . S
C1535 H1529 0.930 . S
C1535 C1531 1.400 . S
C1535 C1534 1.385 . S
C1536 C1534 1.478 . S
C1536 C1538 1.381 . S
C1536 C1542 1.383 . S
C1537 C1533 1.495 . S
C1537 H1543 0.959 . S
C1537 H1544 0.961 . S
C1537 H1545 0.960 . S
C1538 C1536 1.381 . S
C1538 C1539 1.394 . S
C1538 H1546 0.930 . S
C1539 C1538 1.394 . S
C1539 C1540 1.383 . S
C1539 H1547 0.929 . S
C1540 C1539 1.383 . S
C1540 C1541 1.377 . S
C1541 H1525 0.930 . S
C1541 C1540 1.377 . S
C1541 C1542 1.379 . S
C1542 H1526 0.931 . S
C1542 C1536 1.383 . S
C1542 C1541 1.379 . S
H1543 C1537 0.959 . S
H1544 C1537 0.961 . S
H1545 C1537 0.960 . S
H1546 C1538 0.930 . S
H1547 C1539 0.929 . S
H1548 C1556 0.929 . S
H1549 C1558 0.930 . S
H1550 C1560 0.930 . S
H1551 C1563 0.929 . S
H1552 C1566 0.930 . S
H1553 C1568 0.960 . S
H1554 C1568 0.960 . S
H1555 C1568 0.960 . S
C1556 H1548 0.929 . S
C1556 C1557 1.377 . S
C1556 C1558 1.384 . S
C1557 C1556 1.377 . S
C1557 C1563 1.390 . S
C1558 H1549 0.930 . S
C1558 C1556 1.384 . S
C1558 C1559 1.372 . S
C1559 C1558 1.372 . S
C1559 C1560 1.400 . S
C1559 C1564 1.490 . S
C1560 H1550 0.930 . S
C1560 C1559 1.400 . S
C1560 C1563 1.386 . S
H1561 C1577 0.930 . S
H1562 C1578 0.931 . S
C1563 H1551 0.929 . S
C1563 C1557 1.390 . S
C1563 C1560 1.386 . S
C1564 C1559 1.490 . S
C1564 C1566 1.395 . S
C1564 C1567 1.403 . S
H1565 C1571 0.930 . S
C1566 H1552 0.930 . S
C1566 C1564 1.395 . S
C1566 C1569 1.403 . S
C1567 C1564 1.403 . S
C1567 C1568 1.524 . S
C1567 C1571 1.400 . S
C1568 H1553 0.960 . S
C1568 H1554 0.960 . S
C1568 H1555 0.960 . S
C1568 C1567 1.524 . S
C1569 C1566 1.403 . S
C1569 C1570 1.392 . S
C1569 C1573 1.495 . S
C1570 C1569 1.392 . S
C1570 C1571 1.385 . S
C1570 C1572 1.478 . S
C1571 H1565 0.930 . S
C1571 C1567 1.400 . S
C1571 C1570 1.385 . S
C1572 C1570 1.478 . S
C1572 C1574 1.381 . S
C1572 C1578 1.383 . S
C1573 C1569 1.495 . S
C1573 H1579 0.959 . S
C1573 H1580 0.961 . S
C1573 H1581 0.960 . S
C1574 C1572 1.381 . S
C1574 C1575 1.394 . S
C1574 H1582 0.930 . S
C1575 C1574 1.394 . S
C1575 C1576 1.383 . S
C1575 H1583 0.929 . S
C1576 C1575 1.383 . S
C1576 C1577 1.377 . S
C1577 H1561 0.930 . S
C1577 C1576 1.377 . S
C1577 C1578 1.379 . S
C1578 H1562 0.931 . S
C1578 C1572 1.383 . S
C1578 C1577 1.379 . S
H1579 C1573 0.959 . S
H1580 C1573 0.961 . S
H1581 C1573 0.960 . S
H1582 C1574 0.930 . S
H1583 C1575 0.929 . S
H1584 C1592 0.929 . S
H1585 C1594 0.930 . S
H1586 C1596 0.930 . S
H1587 C1599 0.929 . S
H1588 C1602 0.930 . S
H1589 C1604 0.960 . S
H1590 C1604 0.960 . S
H1591 C1604 0.960 . S
C1592 H1584 0.929 . S
C1592 C1593 1.377 . S
C1592 C1594 1.384 . S
C1593 C1592 1.377 . S
C1593 C1599 1.390 . S
C1594 H1585 0.930 . S
C1594 C1592 1.384 . S
C1594 C1595 1.372 . S
C1595 C1594 1.372 . S
C1595 C1596 1.400 . S
C1595 C1600 1.490 . S
C1596 H1586 0.930 . S
C1596 C1595 1.400 . S
C1596 C1599 1.386 . S
H1597 C1613 0.930 . S
H1598 C1614 0.931 . S
C1599 H1587 0.929 . S
C1599 C1593 1.390 . S
C1599 C1596 1.386 . S
C1600 C1595 1.490 . S
C1600 C1602 1.395 . S
C1600 C1603 1.403 . S
H1601 C1607 0.930 . S
C1602 H1588 0.930 . S
C1602 C1600 1.395 . S
C1602 C1605 1.403 . S
C1603 C1600 1.403 . S
C1603 C1604 1.524 . S
C1603 C1607 1.400 . S
C1604 H1589 0.960 . S
C1604 H1590 0.960 . S
C1604 H1591 0.960 . S
C1604 C1603 1.524 . S
C1605 C1602 1.403 . S
C1605 C1606 1.392 . S
C1605 C1609 1.495 . S
C1606 C1605 1.392 . S
C1606 C1607 1.385 . S
C1606 C1608 1.478 . S
C1607 H1601 0.930 . S
C1607 C1603 1.400 . S
C1607 C1606 1.385 . S
C1608 C1606 1.478 . S
C1608 C1610 1.381 . S
C1608 C1614 1.383 . S
C1609 C1605 1.495 . S
C1609 H1615 0.959 . S
C1609 H1616 0.961 . S
C1609 H1617 0.960 . S
C1610 C1608 1.381 . S
C1610 C1611 1.394 . S
C1610 H1618 0.930 . S
C1611 C1610 1.394 . S
C1611 C1612 1.383 . S
C1611 H1619 0.929 . S
C1612 C1611 1.383 . S
C1612 C1613 1.377 . S
C1613 H1597 0.930 . S
C1613 C1612 1.377 . S
C1613 C1614 1.379 . S
C1614 H1598 0.931 . S
C1614 C1608 1.383 . S
C1614 C1613 1.379 . S
H1615 C1609 0.959 . S
H1616 C1609 0.961 . S
H1617 C1609 0.960 . S
H1618 C1610 0.930 . S
H1619 C1611 0.929 . S
H1620 C1628 0.929 . S
H1621 C1630 0.930 . S
H1622 C1632 0.930 . S
H1623 C1635 0.929 . S
H1624 C1638 0.930 . S
H1625 C1640 0.960 . S
H1626 C1640 0.960 . S
H1627 C1640 0.960 . S
C1628 H1620 0.929 . S
C1628 C1629 1.377 . S
C1628 C1630 1.384 . S
C1629 C1628 1.377 . S
C1629 C1635 1.390 . S
C1630 H1621 0.930 . S
C1630 C1628 1.384 . S
C1630 C1631 1.372 . S
C1631 C1630 1.372 . S
C1631 C1632 1.400 . S
C1631 C1636 1.490 . S
C1632 H1622 0.930 . S
C1632 C1631 1.400 . S
C1632 C1635 1.386 . S
H1633 C1649 0.930 . S
H1634 C1650 0.931 . S
C1635 H1623 0.929 . S
C1635 C1629 1.390 . S
C1635 C1632 1.386 . S
C1636 C1631 1.490 . S
C1636 C1638 1.395 . S
C1636 C1639 1.403 . S
H1637 C1643 0.930 . S
C1638 H1624 0.930 . S
C1638 C1636 1.395 . S
C1638 C1641 1.403 . S
C1639 C1636 1.403 . S
C1639 C1640 1.524 . S
C1639 C1643 1.400 . S
C1640 H1625 0.960 . S
C1640 H1626 0.960 . S
C1640 H1627 0.960 . S
C1640 C1639 1.524 . S
C1641 C1638 1.403 . S
C1641 C1642 1.392 . S
C1641 C1645 1.495 . S
C1642 C1641 1.392 . S
C1642 C1643 1.385 . S
C1642 C1644 1.478 . S
C1643 H1637 0.930 . S
C1643 C1639 1.400 . S
C1643 C1642 1.385 . S
C1644 C1642 1.478 . S
C1644 C1646 1.381 . S
C1644 C1650 1.383 . S
C1645 C1641 1.495 . S
C1645 H1651 0.959 . S
C1645 H1652 0.961 . S
C1645 H1653 0.960 . S
C1646 C1644 1.381 . S
C1646 C1647 1.394 . S
C1646 H1654 0.930 . S
C1647 C1646 1.394 . S
C1647 C1648 1.383 . S
C1647 H1655 0.929 . S
C1648 C1647 1.383 . S
C1648 C1649 1.377 . S
C1649 H1633 0.930 . S
C1649 C1648 1.377 . S
C1649 C1650 1.379 . S
C1650 H1634 0.931 . S
C1650 C1644 1.383 . S
C1650 C1649 1.379 . S
H1651 C1645 0.959 . S
H1652 C1645 0.961 . S
H1653 C1645 0.960 . S
H1654 C1646 0.930 . S
H1655 C1647 0.929 . S
H1656 C1664 0.929 . S
H1657 C1666 0.930 . S
H1658 C1668 0.930 . S
H1659 C1671 0.929 . S
H1660 C1674 0.930 . S
H1661 C1676 0.960 . S
H1662 C1676 0.960 . S
H1663 C1676 0.960 . S
C1664 H1656 0.929 . S
C1664 C1665 1.377 . S
C1664 C1666 1.384 . S
C1665 C1664 1.377 . S
C1665 C1671 1.390 . S
C1666 H1657 0.930 . S
C1666 C1664 1.384 . S
C1666 C1667 1.372 . S
C1667 C1666 1.372 . S
C1667 C1668 1.400 . S
C1667 C1672 1.490 . S
C1668 H1658 0.930 . S
C1668 C1667 1.400 . S
C1668 C1671 1.386 . S
H1669 C1685 0.930 . S
H1670 C1686 0.931 . S
C1671 H1659 0.929 . S
C1671 C1665 1.390 . S
C1671 C1668 1.386 . S
C1672 C1667 1.490 . S
C1672 C1674 1.395 . S
C1672 C1675 1.403 . S
H1673 C1679 0.930 . S
C1674 H1660 0.930 . S
C1674 C1672 1.395 . S
C1674 C1677 1.403 . S
C1675 C1672 1.403 . S
C1675 C1676 1.524 . S
C1675 C1679 1.400 . S
C1676 H1661 0.960 . S
C1676 H1662 0.960 . S
C1676 H1663 0.960 . S
C1676 C1675 1.524 . S
C1677 C1674 1.403 . S
C1677 C1678 1.392 . S
C1677 C1681 1.495 . S
C1678 C1677 1.392 . S
C1678 C1679 1.385 . S
C1678 C1680 1.478 . S
C1679 H1673 0.930 . S
C1679 C1675 1.400 . S
C1679 C1678 1.385 . S
C1680 C1678 1.478 . S
C1680 C1682 1.381 . S
C1680 C1686 1.383 . S
C1681 C1677 1.495 . S
C1681 H1687 0.959 . S
C1681 H1688 0.961 . S
C1681 H1689 0.960 . S
C1682 C1680 1.381 . S
C1682 C1683 1.394 . S
C1682 H1690 0.930 . S
C1683 C1682 1.394 . S
C1683 C1684 1.383 . S
C1683 H1691 0.929 . S
C1684 C1683 1.383 . S
C1684 C1685 1.377 . S
C1685 H1669 0.930 . S
C1685 C1684 1.377 . S
C1685 C1686 1.379 . S
C1686 H1670 0.931 . S
C1686 C1680 1.383 . S
C1686 C1685 1.379 . S
H1687 C1681 0.959 . S
H1688 C1681 0.961 . S
H1689 C1681 0.960 . S
H1690 C1682 0.930 . S
H1691 C1683 0.929 . S
H1692 C1700 0.929 . S
H1693 C1702 0.930 . S
H1694 C1704 0.930 . S
H1695 C1707 0.929 . S
H1696 C1710 0.930 . S
H1697 C1712 0.960 . S
H1698 C1712 0.960 . S
H1699 C1712 0.960 . S
C1700 H1692 0.929 . S
C1700 C1701 1.377 . S
C1700 C1702 1.384 . S
C1701 C1700 1.377 . S
C1701 C1707 1.390 . S
C1702 H1693 0.930 . S
C1702 C1700 1.384 . S
C1702 C1703 1.372 . S
C1703 C1702 1.372 . S
C1703 C1704 1.400 . S
C1703 C1708 1.490 . S
C1704 H1694 0.930 . S
C1704 C1703 1.400 . S
C1704 C1707 1.386 . S
H1705 C1721 0.930 . S
H1706 C1722 0.931 . S
C1707 H1695 0.929 . S
C1707 C1701 1.390 . S
C1707 C1704 1.386 . S
C1708 C1703 1.490 . S
C1708 C1710 1.395 . S
C1708 C1711 1.403 . S
H1709 C1715 0.930 . S
C1710 H1696 0.930 . S
C1710 C1708 1.395 . S
C1710 C1713 1.403 . S
C1711 C1708 1.403 . S
C1711 C1712 1.524 . S
C1711 C1715 1.400 . S
C1712 H1697 0.960 . S
C1712 H1698 0.960 . S
C1712 H1699 0.960 . S
C1712 C1711 1.524 . S
C1713 C1710 1.403 . S
C1713 C1714 1.392 . S
C1713 C1717 1.495 . S
C1714 C1713 1.392 . S
C1714 C1715 1.385 . S
C1714 C1716 1.478 . S
C1715 H1709 0.930 . S
C1715 C1711 1.400 . S
C1715 C1714 1.385 . S
C1716 C1714 1.478 . S
C1716 C1718 1.381 . S
C1716 C1722 1.383 . S
C1717 C1713 1.495 . S
C1717 H1723 0.959 . S
C1717 H1724 0.961 . S
C1717 H1725 0.960 . S
C1718 C1716 1.381 . S
C1718 C1719 1.394 . S
C1718 H1726 0.930 . S
C1719 C1718 1.394 . S
C1719 C1720 1.383 . S
C1719 H1727 0.929 . S
C1720 C1719 1.383 . S
C1720 C1721 1.377 . S
C1721 H1705 0.930 . S
C1721 C1720 1.377 . S
C1721 C1722 1.379 . S
C1722 H1706 0.931 . S
C1722 C1716 1.383 . S
C1722 C1721 1.379 . S
H1723 C1717 0.959 . S
H1724 C1717 0.961 . S
H1725 C1717 0.960 . S
H1726 C1718 0.930 . S
H1727 C1719 0.929 . S
H1728 C1736 0.929 . S
H1729 C1738 0.930 . S
H1730 C1740 0.930 . S
H1731 C1743 0.929 . S
H1732 C1746 0.930 . S
H1733 C1748 0.960 . S
H1734 C1748 0.960 . S
H1735 C1748 0.960 . S
C1736 H1728 0.929 . S
C1736 C1737 1.377 . S
C1736 C1738 1.384 . S
C1737 C1736 1.377 . S
C1737 C1743 1.390 . S
C1738 H1729 0.930 . S
C1738 C1736 1.384 . S
C1738 C1739 1.372 . S
C1739 C1738 1.372 . S
C1739 C1740 1.400 . S
C1739 C1744 1.490 . S
C1740 H1730 0.930 . S
C1740 C1739 1.400 . S
C1740 C1743 1.386 . S
H1741 C1757 0.930 . S
H1742 C1758 0.931 . S
C1743 H1731 0.929 . S
C1743 C1737 1.390 . S
C1743 C1740 1.386 . S
C1744 C1739 1.490 . S
C1744 C1746 1.395 . S
C1744 C1747 1.403 . S
H1745 C1751 0.930 . S
C1746 H1732 0.930 . S
C1746 C1744 1.395 . S
C1746 C1749 1.403 . S
C1747 C1744 1.403 . S
C1747 C1748 1.524 . S
C1747 C1751 1.400 . S
C1748 H1733 0.960 . S
C1748 H1734 0.960 . S
C1748 H1735 0.960 . S
C1748 C1747 1.524 . S
C1749 C1746 1.403 . S
C1749 C1750 1.392 . S
C1749 C1753 1.495 . S
C1750 C1749 1.392 . S
C1750 C1751 1.385 . S
C1750 C1752 1.478 . S
C1751 H1745 0.930 . S
C1751 C1747 1.400 . S
C1751 C1750 1.385 . S
C1752 C1750 1.478 . S
C1752 C1754 1.381 . S
C1752 C1758 1.383 . S
C1753 C1749 1.495 . S
C1753 H1759 0.959 . S
C1753 H1760 0.961 . S
C1753 H1761 0.960 . S
C1754 C1752 1.381 . S
C1754 C1755 1.394 . S
C1754 H1762 0.930 . S
C1755 C1754 1.394 . S
C1755 C1756 1.383 . S
C1755 H1763 0.929 . S
C1756 C1755 1.383 . S
C1756 C1757 1.377 . S
C1757 H1741 0.930 . S
C1757 C1756 1.377 . S
C1757 C1758 1.379 . S
C1758 H1742 0.931 . S
C1758 C1752 1.383 . S
C1758 C1757 1.379 . S
H1759 C1753 0.959 . S
H1760 C1753 0.961 . S
H1761 C1753 0.960 . S
H1762 C1754 0.930 . S
H1763 C1755 0.929 . S
H1764 C1772 0.929 . S
H1765 C1774 0.930 . S
H1766 C1776 0.930 . S
H1767 C1779 0.929 . S
H1768 C1782 0.930 . S
H1769 C1784 0.960 . S
H1770 C1784 0.960 . S
H1771 C1784 0.960 . S
C1772 H1764 0.929 . S
C1772 C1773 1.377 . S
C1772 C1774 1.384 . S
C1773 C1772 1.377 . S
C1773 C1779 1.390 . S
C1774 H1765 0.930 . S
C1774 C1772 1.384 . S
C1774 C1775 1.372 . S
C1775 C1774 1.372 . S
C1775 C1776 1.400 . S
C1775 C1780 1.490 . S
C1776 H1766 0.930 . S
C1776 C1775 1.400 . S
C1776 C1779 1.386 . S
H1777 C1793 0.930 . S
H1778 C1794 0.931 . S
C1779 H1767 0.929 . S
C1779 C1773 1.390 . S
C1779 C1776 1.386 . S
C1780 C1775 1.490 . S
C1780 C1782 1.395 . S
C1780 C1783 1.403 . S
H1781 C1787 0.930 . S
C1782 H1768 0.930 . S
C1782 C1780 1.395 . S
C1782 C1785 1.403 . S
C1783 C1780 1.403 . S
C1783 C1784 1.524 . S
C1783 C1787 1.400 . S
C1784 H1769 0.960 . S
C1784 H1770 0.960 . S
C1784 H1771 0.960 . S
C1784 C1783 1.524 . S
C1785 C1782 1.403 . S
C1785 C1786 1.392 . S
C1785 C1789 1.495 . S
C1786 C1785 1.392 . S
C1786 C1787 1.385 . S
C1786 C1788 1.478 . S
C1787 H1781 0.930 . S
C1787 C1783 1.400 . S
C1787 C1786 1.385 . S
C1788 C1786 1.478 . S
C1788 C1790 1.381 . S
C1788 C1794 1.383 . S
C1789 C1785 1.495 . S
C1789 H1795 0.959 . S
C1789 H1796 0.961 . S
C1789 H1797 0.960 . S
C1790 C1788 1.381 . S
C1790 C1791 1.394 . S
C1790 H1798 0.930 . S
C1791 C1790 1.394 . S
C1791 C1792 1.383 . S
C1791 H1799 0.929 . S
C1792 C1791 1.383 . S
C1792 C1793 1.377 . S
C1793 H1777 0.930 . S
C1793 C1792 1.377 . S
C1793 C1794 1.379 . S
C1794 H1778 0.931 . S
C1794 C1788 1.383 . S
C1794 C1793 1.379 . S
H1795 C1789 0.959 . S
H1796 C1789 0.961 . S
H1797 C1789 0.960 . S
H1798 C1790 0.930 . S
H1799 C1791 0.929 . S
H1800 C1808 0.929 . S
H1801 C1810 0.930 . S
H1802 C1812 0.930 . S
H1803 C1815 0.929 . S
H1804 C1818 0.930 . S
H1805 C1820 0.960 . S
H1806 C1820 0.960 . S
H1807 C1820 0.960 . S
C1808 H1800 0.929 . S
C1808 C1809 1.377 . S
C1808 C1810 1.384 . S
C1809 C1808 1.377 . S
C1809 C1815 1.390 . S
C1810 H1801 0.930 . S
C1810 C1808 1.384 . S
C1810 C1811 1.372 . S
C1811 C1810 1.372 . S
C1811 C1812 1.400 . S
C1811 C1816 1.490 . S
C1812 H1802 0.930 . S
C1812 C1811 1.400 . S
C1812 C1815 1.386 . S
H1813 C1829 0.930 . S
H1814 C1830 0.931 . S
C1815 H1803 0.929 . S
C1815 C1809 1.390 . S
C1815 C1812 1.386 . S
C1816 C1811 1.490 . S
C1816 C1818 1.395 . S
C1816 C1819 1.403 . S
H1817 C1823 0.930 . S
C1818 H1804 0.930 . S
C1818 C1816 1.395 . S
C1818 C1821 1.403 . S
C1819 C1816 1.403 . S
C1819 C1820 1.524 . S
C1819 C1823 1.400 . S
C1820 H1805 0.960 . S
C1820 H1806 0.960 . S
C1820 H1807 0.960 . S
C1820 C1819 1.524 . S
C1821 C1818 1.403 . S
C1821 C1822 1.392 . S
C1821 C1825 1.495 . S
C1822 C1821 1.392 . S
C1822 C1823 1.385 . S
C1822 C1824 1.478 . S
C1823 H1817 0.930 . S
C1823 C1819 1.400 . S
C1823 C1822 1.385 . S
C1824 C1822 1.478 . S
C1824 C1826 1.381 . S
C1824 C1830 1.383 . S
C1825 C1821 1.495 . S
C1825 H1831 0.959 . S
C1825 H1832 0.961 . S
C1825 H1833 0.960 . S
C1826 C1824 1.381 . S
C1826 C1827 1.394 . S
C1826 H1834 0.930 . S
C1827 C1826 1.394 . S
C1827 C1828 1.383 . S
C1827 H1835 0.929 . S
C1828 C1827 1.383 . S
C1828 C1829 1.377 . S
C1829 H1813 0.930 . S
C1829 C1828 1.377 . S
C1829 C1830 1.379 . S
C1830 H1814 0.931 . S
C1830 C1824 1.383 . S
C1830 C1829 1.379 . S
H1831 C1825 0.959 . S
H1832 C1825 0.961 . S
H1833 C1825 0.960 . S
H1834 C1826 0.930 . S
H1835 C1827 0.929 . S
H1836 C1844 0.929 . S
H1837 C1846 0.930 . S
H1838 C1848 0.930 . S
H1839 C1851 0.929 . S
H1840 C1854 0.930 . S
H1841 C1856 0.960 . S
H1842 C1856 0.960 . S
H1843 C1856 0.960 . S
C1844 H1836 0.929 . S
C1844 C1845 1.377 . S
C1844 C1846 1.384 . S
C1845 C1844 1.377 . S
C1845 C1851 1.390 . S
C1846 H1837 0.930 . S
C1846 C1844 1.384 . S
C1846 C1847 1.372 . S
C1847 C1846 1.372 . S
C1847 C1848 1.400 . S
C1847 C1852 1.490 . S
C1848 H1838 0.930 . S
C1848 C1847 1.400 . S
C1848 C1851 1.386 . S
H1849 C1865 0.930 . S
H1850 C1866 0.931 . S
C1851 H1839 0.929 . S
C1851 C1845 1.390 . S
C1851 C1848 1.386 . S
C1852 C1847 1.490 . S
C1852 C1854 1.395 . S
C1852 C1855 1.403 . S
H1853 C1859 0.930 . S
C1854 H1840 0.930 . S
C1854 C1852 1.395 . S
C1854 C1857 1.403 . S
C1855 C1852 1.403 . S
C1855 C1856 1.524 . S
C1855 C1859 1.400 . S
C1856 H1841 0.960 . S
C1856 H1842 0.960 . S
C1856 H1843 0.960 . S
C1856 C1855 1.524 . S
C1857 C1854 1.403 . S
C1857 C1858 1.392 . S
C1857 C1861 1.495 . S
C1858 C1857 1.392 . S
C1858 C1859 1.385 . S
C1858 C1860 1.478 . S
C1859 H1853 0.930 . S
C1859 C1855 1.400 . S
C1859 C1858 1.385 . S
C1860 C1858 1.478 . S
C1860 C1862 1.381 . S
C1860 C1866 1.383 . S
C1861 C1857 1.495 . S
C1861 H1867 0.959 . S
C1861 H1868 0.961 . S
C1861 H1869 0.960 . S
C1862 C1860 1.381 . S
C1862 C1863 1.394 . S
C1862 H1870 0.930 . S
C1863 C1862 1.394 . S
C1863 C1864 1.383 . S
C1863 H1871 0.929 . S
C1864 C1863 1.383 . S
C1864 C1865 1.377 . S
C1865 H1849 0.930 . S
C1865 C1864 1.377 . S
C1865 C1866 1.379 . S
C1866 H1850 0.931 . S
C1866 C1860 1.383 . S
C1866 C1865 1.379 . S
H1867 C1861 0.959 . S
H1868 C1861 0.961 . S
H1869 C1861 0.960 . S
H1870 C1862 0.930 . S
H1871 C1863 0.929 . S
H1872 C1880 0.929 . S
H1873 C1882 0.930 . S
H1874 C1884 0.930 . S
H1875 C1887 0.929 . S
H1876 C1890 0.930 . S
H1877 C1892 0.960 . S
H1878 C1892 0.960 . S
H1879 C1892 0.960 . S
C1880 H1872 0.929 . S
C1880 C1881 1.377 . S
C1880 C1882 1.384 . S
C1881 C1880 1.377 . S
C1881 C1887 1.390 . S
C1882 H1873 0.930 . S
C1882 C1880 1.384 . S
C1882 C1883 1.372 . S
C1883 C1882 1.372 . S
C1883 C1884 1.400 . S
C1883 C1888 1.490 . S
C1884 H1874 0.930 . S
C1884 C1883 1.400 . S
C1884 C1887 1.386 . S
H1885 C1901 0.930 . S
H1886 C1902 0.931 . S
C1887 H1875 0.929 . S
C1887 C1881 1.390 . S
C1887 C1884 1.386 . S
C1888 C1883 1.490 . S
C1888 C1890 1.395 . S
C1888 C1891 1.403 . S
H1889 C1895 0.930 . S
C1890 H1876 0.930 . S
C1890 C1888 1.395 . S
C1890 C1893 1.403 . S
C1891 C1888 1.403 . S
C1891 C1892 1.524 . S
C1891 C1895 1.400 . S
C1892 H1877 0.960 . S
C1892 H1878 0.960 . S
C1892 H1879 0.960 . S
C1892 C1891 1.524 . S
C1893 C1890 1.403 . S
C1893 C1894 1.392 . S
C1893 C1897 1.495 . S
C1894 C1893 1.392 . S
C1894 C1895 1.385 . S
C1894 C1896 1.478 . S
C1895 H1889 0.930 . S
C1895 C1891 1.400 . S
C1895 C1894 1.385 . S
C1896 C1894 1.478 . S
C1896 C1898 1.381 . S
C1896 C1902 1.383 . S
C1897 C1893 1.495 . S
C1897 H1903 0.959 . S
C1897 H1904 0.961 . S
C1897 H1905 0.960 . S
C1898 C1896 1.381 . S
C1898 C1899 1.394 . S
C1898 H1906 0.930 . S
C1899 C1898 1.394 . S
C1899 C1900 1.383 . S
C1899 H1907 0.929 . S
C1900 C1899 1.383 . S
C1900 C1901 1.377 . S
C1901 H1885 0.930 . S
C1901 C1900 1.377 . S
C1901 C1902 1.379 . S
C1902 H1886 0.931 . S
C1902 C1896 1.383 . S
C1902 C1901 1.379 . S
H1903 C1897 0.959 . S
H1904 C1897 0.961 . S
H1905 C1897 0.960 . S
H1906 C1898 0.930 . S
H1907 C1899 0.929 . S
H1908 C1916 0.929 . S
H1909 C1918 0.930 . S
H1910 C1920 0.930 . S
H1911 C1923 0.929 . S
H1912 C1926 0.930 . S
H1913 C1928 0.960 . S
H1914 C1928 0.960 . S
H1915 C1928 0.960 . S
C1916 H1908 0.929 . S
C1916 C1917 1.377 . S
C1916 C1918 1.384 . S
C1917 C1916 1.377 . S
C1917 C1923 1.390 . S
C1918 H1909 0.930 . S
C1918 C1916 1.384 . S
C1918 C1919 1.372 . S
C1919 C1918 1.372 . S
C1919 C1920 1.400 . S
C1919 C1924 1.490 . S
C1920 H1910 0.930 . S
C1920 C1919 1.400 . S
C1920 C1923 1.386 . S
H1921 C1937 0.930 . S
H1922 C1938 0.931 . S
C1923 H1911 0.929 . S
C1923 C1917 1.390 . S
C1923 C1920 1.386 . S
C1924 C1919 1.490 . S
C1924 C1926 1.395 . S
C1924 C1927 1.403 . S
H1925 C1931 0.930 . S
C1926 H1912 0.930 . S
C1926 C1924 1.395 . S
C1926 C1929 1.403 . S
C1927 C1924 1.403 . S
C1927 C1928 1.524 . S
C1927 C1931 1.400 . S
C1928 H1913 0.960 . S
C1928 H1914 0.960 . S
C1928 H1915 0.960 . S
C1928 C1927 1.524 . S
C1929 C1926 1.403 . S
C1929 C1930 1.392 . S
C1929 C1933 1.495 . S
C1930 C1929 1.392 . S
C1930 C1931 1.385 . S
C1930 C1932 1.478 . S
C1931 H1925 0.930 . S
C1931 C1927 1.400 . S
C1931 C1930 1.385 . S
C1932 C1930 1.478 . S
C1932 C1934 1.381 . S
C1932 C1938 1.383 . S
C1933 C1929 1.495 . S
C1933 H1939 0.959 . S
C1933 H1940 0.961 . S
C1933 H1941 0.960 . S
C1934 C1932 1.381 . S
C1934 C1935 1.394 . S
C1934 H1942 0.930 . S
C1935 C1934 1.394 . S
C1935 C1936 1.383 . S
C1935 H1943 0.929 . S
C1936 C1935 1.383 . S
C1936 C1937 1.377 . S
C1937 H1921 0.930 . S
C1937 C1936 1.377 . S
C1937 C1938 1.379 . S
C1938 H1922 0.931 . S
C1938 C1932 1.383 . S
C1938 C1937 1.379 . S
H1939 C1933 0.959 . S
H1940 C1933 0.961 . S
H1941 C1933 0.960 . S
H1942 C1934 0.930 . S
H1943 C1935 0.929 . S
H1944 C1952 0.929 . S
H1945 C1954 0.930 . S
H1946 C1956 0.930 . S
H1947 C1959 0.929 . S
H1948 C1962 0.930 . S
H1949 C1964 0.960 . S
H1950 C1964 0.960 . S
H1951 C1964 0.960 . S
C1952 H1944 0.929 . S
C1952 C1953 1.377 . S
C1952 C1954 1.384 . S
C1953 C1952 1.377 . S
C1953 C1959 1.390 . S
C1954 H1945 0.930 . S
C1954 C1952 1.384 . S
C1954 C1955 1.372 . S
C1955 C1954 1.372 . S
C1955 C1956 1.400 . S
C1955 C1960 1.490 . S
C1956 H1946 0.930 . S
C1956 C1955 1.400 . S
C1956 C1959 1.386 . S
H1957 C1973 0.930 . S
H1958 C1974 0.931 . S
C1959 H1947 0.929 . S
C1959 C1953 1.390 . S
C1959 C1956 1.386 . S
C1960 C1955 1.490 . S
C1960 C1962 1.395 . S
C1960 C1963 1.403 . S
H1961 C1967 0.930 . S
C1962 H1948 0.930 . S
C1962 C1960 1.395 . S
C1962 C1965 1.403 . S
C1963 C1960 1.403 . S
C1963 C1964 1.524 . S
C1963 C1967 1.400 . S
C1964 H1949 0.960 . S
C1964 H1950 0.960 . S
C1964 H1951 0.960 . S
C1964 C1963 1.524 . S
C1965 C1962 1.403 . S
C1965 C1966 1.392 . S
C1965 C1969 1.495 . S
C1966 C1965 1.392 . S
C1966 C1967 1.385 . S
C1966 C1968 1.478 . S
C1967 H1961 0.930 . S
C1967 C1963 1.400 . S
C1967 C1966 1.385 . S
C1968 C1966 1.478 . S
C1968 C1970 1.381 . S
C1968 C1974 1.383 . S
C1969 C1965 1.495 . S
C1969 H1975 0.959 . S
C1969 H1976 0.961 . S
C1969 H1977 0.960 . S
C1970 C1968 1.381 . S
C1970 C1971 1.394 . S
C1970 H1978 0.930 . S
C1971 C1970 1.394 . S
C1971 C1972 1.383 . S
C1971 H1979 0.929 . S
C1972 C1971 1.383 . S
C1972 C1973 1.377 . S
C1973 H1957 0.930 . S
C1973 C1972 1.377 . S
C1973 C1974 1.379 . S
C1974 H1958 0.931 . S
C1974 C1968 1.383 . S
C1974 C1973 1.379 . S
H1975 C1969 0.959 . S
H1976 C1969 0.961 . S
H1977 C1969 0.960 . S
H1978 C1970 0.930 . S
H1979 C1971 0.929 . S
H1980 C1988 0.929 . S
H1981 C1990 0.930 . S
H1982 C1992 0.930 . S
H1983 C1995 0.929 . S
H1984 C1998 0.930 . S
H1985 C2000 0.960 . S
H1986 C2000 0.960 . S
H1987 C2000 0.960 . S
C1988 H1980 0.929 . S
C1988 C1989 1.377 . S
C1988 C1990 1.384 . S
C1989 C1988 1.377 . S
C1989 C1995 1.390 . S
C1990 H1981 0.930 . S
C1990 C1988 1.384 . S
C1990 C1991 1.372 . S
C1991 C1990 1.372 . S
C1991 C1992 1.400 . S
C1991 C1996 1.490 . S
C1992 H1982 0.930 . S
C1992 C1991 1.400 . S
C1992 C1995 1.386 . S
H1993 C2009 0.930 . S
H1994 C2010 0.931 . S
C1995 H1983 0.929 . S
C1995 C1989 1.390 . S
C1995 C1992 1.386 . S
C1996 C1991 1.490 . S
C1996 C1998 1.395 . S
C1996 C1999 1.403 . S
H1997 C2003 0.930 . S
C1998 H1984 0.930 . S
C1998 C1996 1.395 . S
C1998 C2001 1.403 . S
C1999 C1996 1.403 . S
C1999 C2000 1.524 . S
C1999 C2003 1.400 . S
C2000 H1985 0.960 . S
C2000 H1986 0.960 . S
C2000 H1987 0.960 . S
C2000 C1999 1.524 . S
C2001 C1998 1.403 . S
C2001 C2002 1.392 . S
C2001 C2005 1.495 . S
C2002 C2001 1.392 . S
C2002 C2003 1.385 . S
C2002 C2004 1.478 . S
C2003 H1997 0.930 . S
C2003 C1999 1.400 . S
C2003 C2002 1.385 . S
C2004 C2002 1.478 . S
C2004 C2006 1.381 . S
C2004 C2010 1.383 . S
C2005 C2001 1.495 . S
C2005 H2011 0.959 . S
C2005 H2012 0.961 . S
C2005 H2013 0.960 . S
C2006 C2004 1.381 . S
C2006 C2007 1.394 . S
C2006 H2014 0.930 . S
C2007 C2006 1.394 . S
C2007 C2008 1.383 . S
C2007 H2015 0.929 . S
C2008 C2007 1.383 . S
C2008 C2009 1.377 . S
C2009 H1993 0.930 . S
C2009 C2008 1.377 . S
C2009 C2010 1.379 . S
C2010 H1994 0.931 . S
C2010 C2004 1.383 . S
C2010 C2009 1.379 . S
H2011 C2005 0.959 . S
H2012 C2005 0.961 . S
H2013 C2005 0.960 . S
H2014 C2006 0.930 . S
H2015 C2007 0.929 . S
H2016 C2024 0.929 . S
H2017 C2026 0.930 . S
H2018 C2028 0.930 . S
H2019 C2031 0.929 . S
H2020 C2034 0.930 . S
H2021 C2036 0.960 . S
H2022 C2036 0.960 . S
H2023 C2036 0.960 . S
C2024 H2016 0.929 . S
C2024 C2025 1.377 . S
C2024 C2026 1.384 . S
C2025 C2024 1.377 . S
C2025 C2031 1.390 . S
C2026 H2017 0.930 . S
C2026 C2024 1.384 . S
C2026 C2027 1.372 . S
C2027 C2026 1.372 . S
C2027 C2028 1.400 . S
C2027 C2032 1.490 . S
C2028 H2018 0.930 . S
C2028 C2027 1.400 . S
C2028 C2031 1.386 . S
H2029 C2045 0.930 . S
H2030 C2046 0.931 . S
C2031 H2019 0.929 . S
C2031 C2025 1.390 . S
C2031 C2028 1.386 . S
C2032 C2027 1.490 . S
C2032 C2034 1.395 . S
C2032 C2035 1.403 . S
H2033 C2039 0.930 . S
C2034 H2020 0.930 . S
C2034 C2032 1.395 . S
C2034 C2037 1.403 . S
C2035 C2032 1.403 . S
C2035 C2036 1.524 . S
C2035 C2039 1.400 . S
C2036 H2021 0.960 . S
C2036 H2022 0.960 . S
C2036 H2023 0.960 . S
C2036 C2035 1.524 . S
C2037 C2034 1.403 . S
C2037 C2038 1.392 . S
C2037 C2041 1.495 . S
C2038 C2037 1.392 . S
C2038 C2039 1.385 . S
C2038 C2040 1.478 . S
C2039 H2033 0.930 . S
C2039 C2035 1.400 . S
C2039 C2038 1.385 . S
C2040 C2038 1.478 . S
C2040 C2042 1.381 . S
C2040 C2046 1.383 . S
C2041 C2037 1.495 . S
C2041 H2047 0.959 . S
C2041 H2048 0.961 . S
C2041 H2049 0.960 . S
C2042 C2040 1.381 . S
C2042 C2043 1.394 . S
C2042 H2050 0.930 . S
C2043 C2042 1.394 . S
C2043 C2044 1.383 . S
C2043 H2051 0.929 . S
C2044 C2043 1.383 . S
C2044 C2045 1.377 . S
C2045 H2029 0.930 . S
C2045 C2044 1.377 . S
C2045 C2046 1.379 . S
C2046 H2030 0.931 . S
C2046 C2040 1.383 . S
C2046 C2045 1.379 . S
H2047 C2041 0.959 . S
H2048 C2041 0.961 . S
H2049 C2041 0.960 . S
H2050 C2042 0.930 . S
H2051 C2043 0.929 . S
H2052 C2060 0.929 . S
H2053 C2062 0.930 . S
H2054 C2064 0.930 . S
H2055 C2067 0.929 . S
H2056 C2070 0.930 . S
H2057 C2072 0.960 . S
H2058 C2072 0.960 . S
H2059 C2072 0.960 . S
C2060 H2052 0.929 . S
C2060 C2061 1.377 . S
C2060 C2062 1.384 . S
C2061 C2060 1.377 . S
C2061 C2067 1.390 . S
C2062 H2053 0.930 . S
C2062 C2060 1.384 . S
C2062 C2063 1.372 . S
C2063 C2062 1.372 . S
C2063 C2064 1.400 . S
C2063 C2068 1.490 . S
C2064 H2054 0.930 . S
C2064 C2063 1.400 . S
C2064 C2067 1.386 . S
H2065 C2081 0.930 . S
H2066 C2082 0.931 . S
C2067 H2055 0.929 . S
C2067 C2061 1.390 . S
C2067 C2064 1.386 . S
C2068 C2063 1.490 . S
C2068 C2070 1.395 . S
C2068 C2071 1.403 . S
H2069 C2075 0.930 . S
C2070 H2056 0.930 . S
C2070 C2068 1.395 . S
C2070 C2073 1.403 . S
C2071 C2068 1.403 . S
C2071 C2072 1.524 . S
C2071 C2075 1.400 . S
C2072 H2057 0.960 . S
C2072 H2058 0.960 . S
C2072 H2059 0.960 . S
C2072 C2071 1.524 . S
C2073 C2070 1.403 . S
C2073 C2074 1.392 . S
C2073 C2077 1.495 . S
C2074 C2073 1.392 . S
C2074 C2075 1.385 . S
C2074 C2076 1.478 . S
C2075 H2069 0.930 . S
C2075 C2071 1.400 . S
C2075 C2074 1.385 . S
C2076 C2074 1.478 . S
C2076 C2078 1.381 . S
C2076 C2082 1.383 . S
C2077 C2073 1.495 . S
C2077 H2083 0.959 . S
C2077 H2084 0.961 . S
C2077 H2085 0.960 . S
C2078 C2076 1.381 . S
C2078 C2079 1.394 . S
C2078 H2086 0.930 . S
C2079 C2078 1.394 . S
C2079 C2080 1.383 . S
C2079 H2087 0.929 . S
C2080 C2079 1.383 . S
C2080 C2081 1.377 . S
C2081 H2065 0.930 . S
C2081 C2080 1.377 . S
C2081 C2082 1.379 . S
C2082 H2066 0.931 . S
C2082 C2076 1.383 . S
C2082 C2081 1.379 . S
H2083 C2077 0.959 . S
H2084 C2077 0.961 . S
H2085 C2077 0.960 . S
H2086 C2078 0.930 . S
H2087 C2079 0.929 . S
H2088 C2096 0.929 . S
H2089 C2098 0.930 . S
H2090 C2100 0.930 . S
H2091 C2103 0.929 . S
H2092 C2106 0.930 . S
H2093 C2108 0.960 . S
H2094 C2108 0.960 . S
H2095 C2108 0.960 . S
C2096 H2088 0.929 . S
C2096 C2097 1.377 . S
C2096 C2098 1.384 . S
C2097 C2096 1.377 . S
C2097 C2103 1.390 . S
C2098 H2089 0.930 . S
C2098 C2096 1.384 . S
C2098 C2099 1.372 . S
C2099 C2098 1.372 . S
C2099 C2100 1.400 . S
C2099 C2104 1.490 . S
C2100 H2090 0.930 . S
C2100 C2099 1.400 . S
C2100 C2103 1.386 . S
H2101 C2117 0.930 . S
H2102 C2118 0.931 . S
C2103 H2091 0.929 . S
C2103 C2097 1.390 . S
C2103 C2100 1.386 . S
C2104 C2099 1.490 . S
C2104 C2106 1.395 . S
C2104 C2107 1.403 . S
H2105 C2111 0.930 . S
C2106 H2092 0.930 . S
C2106 C2104 1.395 . S
C2106 C2109 1.403 . S
C2107 C2104 1.403 . S
C2107 C2108 1.524 . S
C2107 C2111 1.400 . S
C2108 H2093 0.960 . S
C2108 H2094 0.960 . S
C2108 H2095 0.960 . S
C2108 C2107 1.524 . S
C2109 C2106 1.403 . S
C2109 C2110 1.392 . S
C2109 C2113 1.495 . S
C2110 C2109 1.392 . S
C2110 C2111 1.385 . S
C2110 C2112 1.478 . S
C2111 H2105 0.930 . S
C2111 C2107 1.400 . S
C2111 C2110 1.385 . S
C2112 C2110 1.478 . S
C2112 C2114 1.381 . S
C2112 C2118 1.383 . S
C2113 C2109 1.495 . S
C2113 H2119 0.959 . S
C2113 H2120 0.961 . S
C2113 H2121 0.960 . S
C2114 C2112 1.381 . S
C2114 C2115 1.394 . S
C2114 H2122 0.930 . S
C2115 C2114 1.394 . S
C2115 C2116 1.383 . S
C2115 H2123 0.929 . S
C2116 C2115 1.383 . S
C2116 C2117 1.377 . S
C2117 H2101 0.930 . S
C2117 C2116 1.377 . S
C2117 C2118 1.379 . S
C2118 H2102 0.931 . S
C2118 C2112 1.383 . S
C2118 C2117 1.379 . S
H2119 C2113 0.959 . S
H2120 C2113 0.961 . S
H2121 C2113 0.960 . S
H2122 C2114 0.930 . S
H2123 C2115 0.929 . S
H2124 C2132 0.929 . S
H2125 C2134 0.930 . S
H2126 C2136 0.930 . S
H2127 C2139 0.929 . S
H2128 C2142 0.930 . S
H2129 C2144 0.960 . S
H2130 C2144 0.960 . S
H2131 C2144 0.960 1_545 S
C2132 H2124 0.929 . S
C2132 C2133 1.377 . S
C2132 C2134 1.384 . S
C2133 C2132 1.377 . S
C2133 C2139 1.390 1_556 S
C2134 H2125 0.930 . S
C2134 C2132 1.384 . S
C2134 C2135 1.372 . S
C2135 C2134 1.372 . S
C2135 C2136 1.400 1_556 S
C2135 C2140 1.490 . S
C2136 H2126 0.930 . S
C2136 C2135 1.400 1_554 S
C2136 C2139 1.386 . S
H2137 C2153 0.930 . S
H2138 C2154 0.931 . S
C2139 H2127 0.929 . S
C2139 C2133 1.390 1_554 S
C2139 C2136 1.386 . S
C2140 C2135 1.490 . S
C2140 C2142 1.395 . S
C2140 C2143 1.403 1_546 S
H2141 C2147 0.930 . S
C2142 H2128 0.930 . S
C2142 C2140 1.395 . S
C2142 C2145 1.403 . S
C2143 C2140 1.403 1_564 S
C2143 C2144 1.524 . S
C2143 C2147 1.400 . S
C2144 H2129 0.960 . S
C2144 H2130 0.960 . S
C2144 H2131 0.960 1_565 S
C2144 C2143 1.524 . S
C2145 C2142 1.403 . S
C2145 C2146 1.392 1_546 S
C2145 C2149 1.495 . S
C2146 C2145 1.392 1_564 S
C2146 C2147 1.385 . S
C2146 C2148 1.478 . S
C2147 H2141 0.930 . S
C2147 C2143 1.400 . S
C2147 C2146 1.385 . S
C2148 C2146 1.478 . S
C2148 C2150 1.381 1_554 S
C2148 C2154 1.383 . S
C2149 C2145 1.495 . S
C2149 H2155 0.959 . S
C2149 H2156 0.961 . S
C2149 H2157 0.960 1_545 S
C2150 C2148 1.381 1_556 S
C2150 C2151 1.394 . S
C2150 H2158 0.930 . S
C2151 C2150 1.394 . S
C2151 C2152 1.383 1_556 S
C2151 H2159 0.929 . S
C2152 C2151 1.383 1_554 S
C2152 C2153 1.377 . S
C2153 H2137 0.930 . S
C2153 C2152 1.377 . S
C2153 C2154 1.379 . S
C2154 H2138 0.931 . S
C2154 C2148 1.383 . S
C2154 C2153 1.379 . S
H2155 C2149 0.959 . S
H2156 C2149 0.961 . S
H2157 C2149 0.960 1_565 S
H2158 C2150 0.930 . S
H2159 C2151 0.929 . S
H2160 C2168 0.929 . S
H2161 C2170 0.930 . S
H2162 C2172 0.930 . S
H2163 C2175 0.929 . S
H2164 C2178 0.930 . S
H2165 C2180 0.960 . S
H2166 C2180 0.960 1_554 S
H2167 C2180 0.960 . S
C2168 H2160 0.929 . S
C2168 C2169 1.377 . S
C2168 C2170 1.384 . S
C2169 C2168 1.377 . S
C2169 C2175 1.390 1_554 S
C2170 H2161 0.930 . S
C2170 C2168 1.384 . S
C2170 C2171 1.372 . S
C2171 C2170 1.372 . S
C2171 C2172 1.400 1_554 S
C2171 C2176 1.490 . S
C2172 H2162 0.930 . S
C2172 C2171 1.400 1_556 S
C2172 C2175 1.386 . S
H2173 C2189 0.930 . S
H2174 C2190 0.931 . S
C2175 H2163 0.929 . S
C2175 C2169 1.390 1_556 S
C2175 C2172 1.386 . S
C2176 C2171 1.490 . S
C2176 C2178 1.395 1_455 S
C2176 C2179 1.403 1_554 S
H2177 C2183 0.930 . S
C2178 H2164 0.930 . S
C2178 C2176 1.395 1_655 S
C2178 C2181 1.403 . S
C2179 C2176 1.403 1_556 S
C2179 C2180 1.524 . S
C2179 C2183 1.400 . S
C2180 H2165 0.960 . S
C2180 H2166 0.960 1_556 S
C2180 H2167 0.960 . S
C2180 C2179 1.524 . S
C2181 C2178 1.403 . S
C2181 C2182 1.392 1_554 S
C2181 C2185 1.495 . S
C2182 C2181 1.392 1_556 S
C2182 C2183 1.385 1_655 S
C2182 C2184 1.478 . S
C2183 H2177 0.930 . S
C2183 C2179 1.400 . S
C2183 C2182 1.385 1_455 S
C2184 C2182 1.478 . S
C2184 C2186 1.381 1_556 S
C2184 C2190 1.383 . S
C2185 C2181 1.495 . S
C2185 H2191 0.959 . S
C2185 H2192 0.961 1_554 S
C2185 H2193 0.960 . S
C2186 C2184 1.381 1_554 S
C2186 C2187 1.394 . S
C2186 H2194 0.930 . S
C2187 C2186 1.394 . S
C2187 C2188 1.383 1_554 S
C2187 H2195 0.929 . S
C2188 C2187 1.383 1_556 S
C2188 C2189 1.377 . S
C2189 H2173 0.930 . S
C2189 C2188 1.377 . S
C2189 C2190 1.379 . S
C2190 H2174 0.931 . S
C2190 C2184 1.383 . S
C2190 C2189 1.379 . S
H2191 C2185 0.959 . S
H2192 C2185 0.961 1_556 S
H2193 C2185 0.960 . S
H2194 C2186 0.930 . S
H2195 C2187 0.929 . S
H2196 C2204 0.929 . S
H2197 C2206 0.930 . S
H2198 C2208 0.930 . S
H2199 C2211 0.929 . S
H2200 C2214 0.930 . S
H2201 C2216 0.960 . S
H2202 C2216 0.960 . S
H2203 C2216 0.960 . S
C2204 H2196 0.929 . S
C2204 C2205 1.377 . S
C2204 C2206 1.384 . S
C2205 C2204 1.377 . S
C2205 C2211 1.390 1_554 S
C2206 H2197 0.930 . S
C2206 C2204 1.384 . S
C2206 C2207 1.372 . S
C2207 C2206 1.372 . S
C2207 C2208 1.400 1_554 S
C2207 C2212 1.490 . S
C2208 H2198 0.930 . S
C2208 C2207 1.400 1_556 S
C2208 C2211 1.386 . S
H2209 C2225 0.930 . S
H2210 C2226 0.931 . S
C2211 H2199 0.929 . S
C2211 C2205 1.390 1_556 S
C2211 C2208 1.386 . S
C2212 C2207 1.490 . S
C2212 C2214 1.395 . S
C2212 C2215 1.403 1_554 S
H2213 C2219 0.930 . S
C2214 H2200 0.930 . S
C2214 C2212 1.395 . S
C2214 C2217 1.403 . S
C2215 C2212 1.403 1_556 S
C2215 C2216 1.524 . S
C2215 C2219 1.400 . S
C2216 H2201 0.960 . S
C2216 H2202 0.960 . S
C2216 H2203 0.960 . S
C2216 C2215 1.524 . S
C2217 C2214 1.403 . S
C2217 C2218 1.392 1_554 S
C2217 C2221 1.495 . S
C2218 C2217 1.392 1_556 S
C2218 C2219 1.385 . S
C2218 C2220 1.478 . S
C2219 H2213 0.930 . S
C2219 C2215 1.400 . S
C2219 C2218 1.385 . S
C2220 C2218 1.478 . S
C2220 C2222 1.381 1_556 S
C2220 C2226 1.383 . S
C2221 C2217 1.495 . S
C2221 H2227 0.959 . S
C2221 H2228 0.961 . S
C2221 H2229 0.960 . S
C2222 C2220 1.381 1_554 S
C2222 C2223 1.394 . S
C2222 H2230 0.930 . S
C2223 C2222 1.394 . S
C2223 C2224 1.383 1_554 S
C2223 H2231 0.929 . S
C2224 C2223 1.383 1_556 S
C2224 C2225 1.377 . S
C2225 H2209 0.930 . S
C2225 C2224 1.377 . S
C2225 C2226 1.379 . S
C2226 H2210 0.931 . S
C2226 C2220 1.383 . S
C2226 C2225 1.379 . S
H2227 C2221 0.959 . S
H2228 C2221 0.961 . S
H2229 C2221 0.960 . S
H2230 C2222 0.930 . S
H2231 C2223 0.929 . S
H2232 C2240 0.929 . S
H2233 C2242 0.930 . S
H2234 C2244 0.930 . S
H2235 C2247 0.929 . S
H2236 C2250 0.930 . S
H2237 C2252 0.960 . S
H2238 C2252 0.960 . S
H2239 C2252 0.960 . S
C2240 H2232 0.929 . S
C2240 C2241 1.377 . S
C2240 C2242 1.384 . S
C2241 C2240 1.377 . S
C2241 C2247 1.390 . S
C2242 H2233 0.930 . S
C2242 C2240 1.384 . S
C2242 C2243 1.372 . S
C2243 C2242 1.372 . S
C2243 C2244 1.400 . S
C2243 C2248 1.490 . S
C2244 H2234 0.930 . S
C2244 C2243 1.400 . S
C2244 C2247 1.386 . S
H2245 C2261 0.930 . S
H2246 C2262 0.931 . S
C2247 H2235 0.929 . S
C2247 C2241 1.390 . S
C2247 C2244 1.386 . S
C2248 C2243 1.490 . S
C2248 C2250 1.395 . S
C2248 C2251 1.403 . S
H2249 C2255 0.930 . S
C2250 H2236 0.930 . S
C2250 C2248 1.395 . S
C2250 C2253 1.403 . S
C2251 C2248 1.403 . S
C2251 C2252 1.524 . S
C2251 C2255 1.400 . S
C2252 H2237 0.960 . S
C2252 H2238 0.960 . S
C2252 H2239 0.960 . S
C2252 C2251 1.524 . S
C2253 C2250 1.403 . S
C2253 C2254 1.392 . S
C2253 C2257 1.495 . S
C2254 C2253 1.392 . S
C2254 C2255 1.385 . S
C2254 C2256 1.478 . S
C2255 H2249 0.930 . S
C2255 C2251 1.400 . S
C2255 C2254 1.385 . S
C2256 C2254 1.478 . S
C2256 C2258 1.381 . S
C2256 C2262 1.383 . S
C2257 C2253 1.495 . S
C2257 H2263 0.959 . S
C2257 H2264 0.961 . S
C2257 H2265 0.960 . S
C2258 C2256 1.381 . S
C2258 C2259 1.394 . S
C2258 H2266 0.930 . S
C2259 C2258 1.394 . S
C2259 C2260 1.383 . S
C2259 H2267 0.929 . S
C2260 C2259 1.383 . S
C2260 C2261 1.377 . S
C2261 H2245 0.930 . S
C2261 C2260 1.377 . S
C2261 C2262 1.379 . S
C2262 H2246 0.931 . S
C2262 C2256 1.383 . S
C2262 C2261 1.379 . S
H2263 C2257 0.959 . S
H2264 C2257 0.961 . S
H2265 C2257 0.960 . S
H2266 C2258 0.930 . S
H2267 C2259 0.929 . S
H2268 C2276 0.929 . S
H2269 C2278 0.930 . S
H2270 C2280 0.930 . S
H2271 C2283 0.929 . S
H2272 C2286 0.930 . S
H2273 C2288 0.960 . S
H2274 C2288 0.960 . S
H2275 C2288 0.960 . S
C2276 H2268 0.929 . S
C2276 C2277 1.377 . S
C2276 C2278 1.384 . S
C2277 C2276 1.377 . S
C2277 C2283 1.390 . S
C2278 H2269 0.930 . S
C2278 C2276 1.384 . S
C2278 C2279 1.372 . S
C2279 C2278 1.372 . S
C2279 C2280 1.400 . S
C2279 C2284 1.490 . S
C2280 H2270 0.930 . S
C2280 C2279 1.400 . S
C2280 C2283 1.386 . S
H2281 C2297 0.930 . S
H2282 C2298 0.931 . S
C2283 H2271 0.929 . S
C2283 C2277 1.390 . S
C2283 C2280 1.386 . S
C2284 C2279 1.490 . S
C2284 C2286 1.395 . S
C2284 C2287 1.403 . S
H2285 C2291 0.930 . S
C2286 H2272 0.930 . S
C2286 C2284 1.395 . S
C2286 C2289 1.403 . S
C2287 C2284 1.403 . S
C2287 C2288 1.524 . S
C2287 C2291 1.400 . S
C2288 H2273 0.960 . S
C2288 H2274 0.960 . S
C2288 H2275 0.960 . S
C2288 C2287 1.524 . S
C2289 C2286 1.403 . S
C2289 C2290 1.392 . S
C2289 C2293 1.495 . S
C2290 C2289 1.392 . S
C2290 C2291 1.385 . S
C2290 C2292 1.478 . S
C2291 H2285 0.930 . S
C2291 C2287 1.400 . S
C2291 C2290 1.385 . S
C2292 C2290 1.478 . S
C2292 C2294 1.381 . S
C2292 C2298 1.383 . S
C2293 C2289 1.495 . S
C2293 H2299 0.959 . S
C2293 H2300 0.961 . S
C2293 H2301 0.960 . S
C2294 C2292 1.381 . S
C2294 C2295 1.394 . S
C2294 H2302 0.930 . S
C2295 C2294 1.394 . S
C2295 C2296 1.383 . S
C2295 H2303 0.929 . S
C2296 C2295 1.383 . S
C2296 C2297 1.377 . S
C2297 H2281 0.930 . S
C2297 C2296 1.377 . S
C2297 C2298 1.379 . S
C2298 H2282 0.931 . S
C2298 C2292 1.383 . S
C2298 C2297 1.379 . S
H2299 C2293 0.959 . S
H2300 C2293 0.961 . S
H2301 C2293 0.960 . S
H2302 C2294 0.930 . S
H2303 C2295 0.929 . S
H2304 C2312 0.929 . S
H2305 C2314 0.930 . S
H2306 C2316 0.930 . S
H2307 C2319 0.929 . S
H2308 C2322 0.930 . S
H2309 C2324 0.960 . S
H2310 C2324 0.960 . S
H2311 C2324 0.960 . S
C2312 H2304 0.929 . S
C2312 C2313 1.377 . S
C2312 C2314 1.384 . S
C2313 C2312 1.377 . S
C2313 C2319 1.390 . S
C2314 H2305 0.930 . S
C2314 C2312 1.384 . S
C2314 C2315 1.372 . S
C2315 C2314 1.372 . S
C2315 C2316 1.400 . S
C2315 C2320 1.490 . S
C2316 H2306 0.930 . S
C2316 C2315 1.400 . S
C2316 C2319 1.386 . S
H2317 C2333 0.930 . S
H2318 C2334 0.931 . S
C2319 H2307 0.929 . S
C2319 C2313 1.390 . S
C2319 C2316 1.386 . S
C2320 C2315 1.490 . S
C2320 C2322 1.395 . S
C2320 C2323 1.403 . S
H2321 C2327 0.930 . S
C2322 H2308 0.930 . S
C2322 C2320 1.395 . S
C2322 C2325 1.403 . S
C2323 C2320 1.403 . S
C2323 C2324 1.524 . S
C2323 C2327 1.400 . S
C2324 H2309 0.960 . S
C2324 H2310 0.960 . S
C2324 H2311 0.960 . S
C2324 C2323 1.524 . S
C2325 C2322 1.403 . S
C2325 C2326 1.392 . S
C2325 C2329 1.495 . S
C2326 C2325 1.392 . S
C2326 C2327 1.385 . S
C2326 C2328 1.478 . S
C2327 H2321 0.930 . S
C2327 C2323 1.400 . S
C2327 C2326 1.385 . S
C2328 C2326 1.478 . S
C2328 C2330 1.381 . S
C2328 C2334 1.383 . S
C2329 C2325 1.495 . S
C2329 H2335 0.959 . S
C2329 H2336 0.961 . S
C2329 H2337 0.960 . S
C2330 C2328 1.381 . S
C2330 C2331 1.394 . S
C2330 H2338 0.930 . S
C2331 C2330 1.394 . S
C2331 C2332 1.383 . S
C2331 H2339 0.929 . S
C2332 C2331 1.383 . S
C2332 C2333 1.377 . S
C2333 H2317 0.930 . S
C2333 C2332 1.377 . S
C2333 C2334 1.379 . S
C2334 H2318 0.931 . S
C2334 C2328 1.383 . S
C2334 C2333 1.379 . S
H2335 C2329 0.959 . S
H2336 C2329 0.961 . S
H2337 C2329 0.960 . S
H2338 C2330 0.930 . S
H2339 C2331 0.929 . S
H2340 C2348 0.929 . S
H2341 C2350 0.930 . S
H2342 C2352 0.930 . S
H2343 C2355 0.929 . S
H2344 C2358 0.930 . S
H2345 C2360 0.960 . S
H2346 C2360 0.960 . S
H2347 C2360 0.960 . S
C2348 H2340 0.929 . S
C2348 C2349 1.377 . S
C2348 C2350 1.384 . S
C2349 C2348 1.377 . S
C2349 C2355 1.390 . S
C2350 H2341 0.930 . S
C2350 C2348 1.384 . S
C2350 C2351 1.372 . S
C2351 C2350 1.372 . S
C2351 C2352 1.400 . S
C2351 C2356 1.490 . S
C2352 H2342 0.930 . S
C2352 C2351 1.400 . S
C2352 C2355 1.386 . S
H2353 C2369 0.930 . S
H2354 C2370 0.931 . S
C2355 H2343 0.929 . S
C2355 C2349 1.390 . S
C2355 C2352 1.386 . S
C2356 C2351 1.490 . S
C2356 C2358 1.395 . S
C2356 C2359 1.403 . S
H2357 C2363 0.930 . S
C2358 H2344 0.930 . S
C2358 C2356 1.395 . S
C2358 C2361 1.403 . S
C2359 C2356 1.403 . S
C2359 C2360 1.524 . S
C2359 C2363 1.400 . S
C2360 H2345 0.960 . S
C2360 H2346 0.960 . S
C2360 H2347 0.960 . S
C2360 C2359 1.524 . S
C2361 C2358 1.403 . S
C2361 C2362 1.392 . S
C2361 C2365 1.495 . S
C2362 C2361 1.392 . S
C2362 C2363 1.385 . S
C2362 C2364 1.478 . S
C2363 H2357 0.930 . S
C2363 C2359 1.400 . S
C2363 C2362 1.385 . S
C2364 C2362 1.478 . S
C2364 C2366 1.381 . S
C2364 C2370 1.383 . S
C2365 C2361 1.495 . S
C2365 H2371 0.959 . S
C2365 H2372 0.961 . S
C2365 H2373 0.960 . S
C2366 C2364 1.381 . S
C2366 C2367 1.394 . S
C2366 H2374 0.930 . S
C2367 C2366 1.394 . S
C2367 C2368 1.383 . S
C2367 H2375 0.929 . S
C2368 C2367 1.383 . S
C2368 C2369 1.377 . S
C2369 H2353 0.930 . S
C2369 C2368 1.377 . S
C2369 C2370 1.379 . S
C2370 H2354 0.931 . S
C2370 C2364 1.383 . S
C2370 C2369 1.379 . S
H2371 C2365 0.959 . S
H2372 C2365 0.961 . S
H2373 C2365 0.960 . S
H2374 C2366 0.930 . S
H2375 C2367 0.929 . S
H2376 C2384 0.929 . S
H2377 C2386 0.930 . S
H2378 C2388 0.930 . S
H2379 C2391 0.929 . S
H2380 C2394 0.930 . S
H2381 C2396 0.960 . S
H2382 C2396 0.960 . S
H2383 C2396 0.960 . S
C2384 H2376 0.929 . S
C2384 C2385 1.377 . S
C2384 C2386 1.384 . S
C2385 C2384 1.377 . S
C2385 C2391 1.390 . S
C2386 H2377 0.930 . S
C2386 C2384 1.384 . S
C2386 C2387 1.372 . S
C2387 C2386 1.372 . S
C2387 C2388 1.400 . S
C2387 C2392 1.490 . S
C2388 H2378 0.930 . S
C2388 C2387 1.400 . S
C2388 C2391 1.386 . S
H2389 C2405 0.930 . S
H2390 C2406 0.931 . S
C2391 H2379 0.929 . S
C2391 C2385 1.390 . S
C2391 C2388 1.386 . S
C2392 C2387 1.490 . S
C2392 C2394 1.395 . S
C2392 C2395 1.403 . S
H2393 C2399 0.930 . S
C2394 H2380 0.930 . S
C2394 C2392 1.395 . S
C2394 C2397 1.403 . S
C2395 C2392 1.403 . S
C2395 C2396 1.524 . S
C2395 C2399 1.400 . S
C2396 H2381 0.960 . S
C2396 H2382 0.960 . S
C2396 H2383 0.960 . S
C2396 C2395 1.524 . S
C2397 C2394 1.403 . S
C2397 C2398 1.392 . S
C2397 C2401 1.495 . S
C2398 C2397 1.392 . S
C2398 C2399 1.385 . S
C2398 C2400 1.478 . S
C2399 H2393 0.930 . S
C2399 C2395 1.400 . S
C2399 C2398 1.385 . S
C2400 C2398 1.478 . S
C2400 C2402 1.381 . S
C2400 C2406 1.383 . S
C2401 C2397 1.495 . S
C2401 H2407 0.959 . S
C2401 H2408 0.961 . S
C2401 H2409 0.960 . S
C2402 C2400 1.381 . S
C2402 C2403 1.394 . S
C2402 H2410 0.930 . S
C2403 C2402 1.394 . S
C2403 C2404 1.383 . S
C2403 H2411 0.929 . S
C2404 C2403 1.383 . S
C2404 C2405 1.377 . S
C2405 H2389 0.930 . S
C2405 C2404 1.377 . S
C2405 C2406 1.379 . S
C2406 H2390 0.931 . S
C2406 C2400 1.383 . S
C2406 C2405 1.379 . S
H2407 C2401 0.959 . S
H2408 C2401 0.961 . S
H2409 C2401 0.960 . S
H2410 C2402 0.930 . S
H2411 C2403 0.929 . S
H2412 C2420 0.929 . S
H2413 C2422 0.930 . S
H2414 C2424 0.930 . S
H2415 C2427 0.929 . S
H2416 C2430 0.930 . S
H2417 C2432 0.960 . S
H2418 C2432 0.960 . S
H2419 C2432 0.960 . S
C2420 H2412 0.929 . S
C2420 C2421 1.377 . S
C2420 C2422 1.384 . S
C2421 C2420 1.377 . S
C2421 C2427 1.390 . S
C2422 H2413 0.930 . S
C2422 C2420 1.384 . S
C2422 C2423 1.372 . S
C2423 C2422 1.372 . S
C2423 C2424 1.400 . S
C2423 C2428 1.490 . S
C2424 H2414 0.930 . S
C2424 C2423 1.400 . S
C2424 C2427 1.386 . S
H2425 C2441 0.930 . S
H2426 C2442 0.931 . S
C2427 H2415 0.929 . S
C2427 C2421 1.390 . S
C2427 C2424 1.386 . S
C2428 C2423 1.490 . S
C2428 C2430 1.395 . S
C2428 C2431 1.403 . S
H2429 C2435 0.930 . S
C2430 H2416 0.930 . S
C2430 C2428 1.395 . S
C2430 C2433 1.403 . S
C2431 C2428 1.403 . S
C2431 C2432 1.524 . S
C2431 C2435 1.400 . S
C2432 H2417 0.960 . S
C2432 H2418 0.960 . S
C2432 H2419 0.960 . S
C2432 C2431 1.524 . S
C2433 C2430 1.403 . S
C2433 C2434 1.392 . S
C2433 C2437 1.495 . S
C2434 C2433 1.392 . S
C2434 C2435 1.385 . S
C2434 C2436 1.478 . S
C2435 H2429 0.930 . S
C2435 C2431 1.400 . S
C2435 C2434 1.385 . S
C2436 C2434 1.478 . S
C2436 C2438 1.381 . S
C2436 C2442 1.383 . S
C2437 C2433 1.495 . S
C2437 H2443 0.959 . S
C2437 H2444 0.961 . S
C2437 H2445 0.960 . S
C2438 C2436 1.381 . S
C2438 C2439 1.394 . S
C2438 H2446 0.930 . S
C2439 C2438 1.394 . S
C2439 C2440 1.383 . S
C2439 H2447 0.929 . S
C2440 C2439 1.383 . S
C2440 C2441 1.377 . S
C2441 H2425 0.930 . S
C2441 C2440 1.377 . S
C2441 C2442 1.379 . S
C2442 H2426 0.931 . S
C2442 C2436 1.383 . S
C2442 C2441 1.379 . S
H2443 C2437 0.959 . S
H2444 C2437 0.961 . S
H2445 C2437 0.960 . S
H2446 C2438 0.930 . S
H2447 C2439 0.929 . S
H2448 C2456 0.929 . S
H2449 C2458 0.930 . S
H2450 C2460 0.930 . S
H2451 C2463 0.929 . S
H2452 C2466 0.930 . S
H2453 C2468 0.960 . S
H2454 C2468 0.960 1_556 S
H2455 C2468 0.960 1_556 S
C2456 H2448 0.929 . S
C2456 C2457 1.377 . S
C2456 C2458 1.384 . S
C2457 C2456 1.377 . S
C2457 C2463 1.390 . S
C2458 H2449 0.930 . S
C2458 C2456 1.384 . S
C2458 C2459 1.372 . S
C2459 C2458 1.372 . S
C2459 C2460 1.400 . S
C2459 C2464 1.490 1_556 S
C2460 H2450 0.930 . S
C2460 C2459 1.400 . S
C2460 C2463 1.386 . S
H2461 C2477 0.930 . S
H2462 C2478 0.931 . S
C2463 H2451 0.929 . S
C2463 C2457 1.390 . S
C2463 C2460 1.386 . S
C2464 C2459 1.490 1_554 S
C2464 C2466 1.395 . S
C2464 C2467 1.403 . S
H2465 C2471 0.930 . S
C2466 H2452 0.930 . S
C2466 C2464 1.395 . S
C2466 C2469 1.403 . S
C2467 C2464 1.403 . S
C2467 C2468 1.524 . S
C2467 C2471 1.400 . S
C2468 H2453 0.960 . S
C2468 H2454 0.960 1_554 S
C2468 H2455 0.960 1_554 S
C2468 C2467 1.524 . S
C2469 C2466 1.403 . S
C2469 C2470 1.392 . S
C2469 C2473 1.495 . S
C2470 C2469 1.392 . S
C2470 C2471 1.385 . S
C2470 C2472 1.478 . S
C2471 H2465 0.930 . S
C2471 C2467 1.400 . S
C2471 C2470 1.385 . S
C2472 C2470 1.478 . S
C2472 C2474 1.381 . S
C2472 C2478 1.383 . S
C2473 C2469 1.495 . S
C2473 H2479 0.959 . S
C2473 H2480 0.961 . S
C2473 H2481 0.960 . S
C2474 C2472 1.381 . S
C2474 C2475 1.394 . S
C2474 H2482 0.930 . S
C2475 C2474 1.394 . S
C2475 C2476 1.383 . S
C2475 H2483 0.929 . S
C2476 C2475 1.383 . S
C2476 C2477 1.377 . S
C2477 H2461 0.930 . S
C2477 C2476 1.377 . S
C2477 C2478 1.379 . S
C2478 H2462 0.931 . S
C2478 C2472 1.383 . S
C2478 C2477 1.379 . S
H2479 C2473 0.959 . S
H2480 C2473 0.961 . S
H2481 C2473 0.960 . S
H2482 C2474 0.930 . S
H2483 C2475 0.929 . S
H2484 C2492 0.929 . S
H2485 C2494 0.930 . S
H2486 C2496 0.930 . S
H2487 C2499 0.929 . S
H2488 C2502 0.930 . S
H2489 C2504 0.960 . S
H2490 C2504 0.960 . S
H2491 C2504 0.960 1_556 S
C2492 H2484 0.929 . S
C2492 C2493 1.377 . S
C2492 C2494 1.384 . S
C2493 C2492 1.377 . S
C2493 C2499 1.390 . S
C2494 H2485 0.930 . S
C2494 C2492 1.384 . S
C2494 C2495 1.372 . S
C2495 C2494 1.372 . S
C2495 C2496 1.400 . S
C2495 C2500 1.490 1_556 S
C2496 H2486 0.930 . S
C2496 C2495 1.400 . S
C2496 C2499 1.386 . S
H2497 C2513 0.930 . S
H2498 C2514 0.931 . S
C2499 H2487 0.929 . S
C2499 C2493 1.390 . S
C2499 C2496 1.386 . S
C2500 C2495 1.490 1_554 S
C2500 C2502 1.395 . S
C2500 C2503 1.403 . S
H2501 C2507 0.930 . S
C2502 H2488 0.930 . S
C2502 C2500 1.395 . S
C2502 C2505 1.403 . S
C2503 C2500 1.403 . S
C2503 C2504 1.524 . S
C2503 C2507 1.400 . S
C2504 H2489 0.960 . S
C2504 H2490 0.960 . S
C2504 H2491 0.960 1_554 S
C2504 C2503 1.524 . S
C2505 C2502 1.403 . S
C2505 C2506 1.392 . S
C2505 C2509 1.495 . S
C2506 C2505 1.392 . S
C2506 C2507 1.385 . S
C2506 C2508 1.478 . S
C2507 H2501 0.930 . S
C2507 C2503 1.400 . S
C2507 C2506 1.385 . S
C2508 C2506 1.478 . S
C2508 C2510 1.381 . S
C2508 C2514 1.383 . S
C2509 C2505 1.495 . S
C2509 H2515 0.959 . S
C2509 H2516 0.961 . S
C2509 H2517 0.960 . S
C2510 C2508 1.381 . S
C2510 C2511 1.394 . S
C2510 H2518 0.930 . S
C2511 C2510 1.394 . S
C2511 C2512 1.383 . S
C2511 H2519 0.929 . S
C2512 C2511 1.383 . S
C2512 C2513 1.377 . S
C2513 H2497 0.930 . S
C2513 C2512 1.377 . S
C2513 C2514 1.379 . S
C2514 H2498 0.931 . S
C2514 C2508 1.383 . S
C2514 C2513 1.379 . S
H2515 C2509 0.959 . S
H2516 C2509 0.961 . S
H2517 C2509 0.960 . S
H2518 C2510 0.930 . S
H2519 C2511 0.929 . S
H2520 C2528 0.929 . S
H2521 C2530 0.930 . S
H2522 C2532 0.930 . S
H2523 C2535 0.929 . S
H2524 C2538 0.930 . S
H2525 C2540 0.960 . S
H2526 C2540 0.960 . S
H2527 C2540 0.960 . S
C2528 H2520 0.929 . S
C2528 C2529 1.377 . S
C2528 C2530 1.384 . S
C2529 C2528 1.377 . S
C2529 C2535 1.390 . S
C2530 H2521 0.930 . S
C2530 C2528 1.384 . S
C2530 C2531 1.372 . S
C2531 C2530 1.372 . S
C2531 C2532 1.400 . S
C2531 C2536 1.490 . S
C2532 H2522 0.930 . S
C2532 C2531 1.400 . S
C2532 C2535 1.386 . S
H2533 C2549 0.930 . S
H2534 C2550 0.931 . S
C2535 H2523 0.929 . S
C2535 C2529 1.390 . S
C2535 C2532 1.386 . S
C2536 C2531 1.490 . S
C2536 C2538 1.395 . S
C2536 C2539 1.403 . S
H2537 C2543 0.930 . S
C2538 H2524 0.930 . S
C2538 C2536 1.395 . S
C2538 C2541 1.403 . S
C2539 C2536 1.403 . S
C2539 C2540 1.524 . S
C2539 C2543 1.400 . S
C2540 H2525 0.960 . S
C2540 H2526 0.960 . S
C2540 H2527 0.960 . S
C2540 C2539 1.524 . S
C2541 C2538 1.403 . S
C2541 C2542 1.392 . S
C2541 C2545 1.495 . S
C2542 C2541 1.392 . S
C2542 C2543 1.385 . S
C2542 C2544 1.478 1_554 S
C2543 H2537 0.930 . S
C2543 C2539 1.400 . S
C2543 C2542 1.385 . S
C2544 C2542 1.478 1_556 S
C2544 C2546 1.381 . S
C2544 C2550 1.383 . S
C2545 C2541 1.495 . S
C2545 H2551 0.959 . S
C2545 H2552 0.961 1_554 S
C2545 H2553 0.960 1_554 S
C2546 C2544 1.381 . S
C2546 C2547 1.394 . S
C2546 H2554 0.930 . S
C2547 C2546 1.394 . S
C2547 C2548 1.383 . S
C2547 H2555 0.929 . S
C2548 C2547 1.383 . S
C2548 C2549 1.377 . S
C2549 H2533 0.930 . S
C2549 C2548 1.377 . S
C2549 C2550 1.379 . S
C2550 H2534 0.931 . S
C2550 C2544 1.383 . S
C2550 C2549 1.379 . S
H2551 C2545 0.959 . S
H2552 C2545 0.961 1_556 S
H2553 C2545 0.960 1_556 S
H2554 C2546 0.930 . S
H2555 C2547 0.929 . S
H2556 C2564 0.929 . S
H2557 C2566 0.930 . S
H2558 C2568 0.930 . S
H2559 C2571 0.929 . S
H2560 C2574 0.930 . S
H2561 C2576 0.960 . S
H2562 C2576 0.960 . S
H2563 C2576 0.960 . S
C2564 H2556 0.929 . S
C2564 C2565 1.377 . S
C2564 C2566 1.384 . S
C2565 C2564 1.377 . S
C2565 C2571 1.390 . S
C2566 H2557 0.930 . S
C2566 C2564 1.384 . S
C2566 C2567 1.372 . S
C2567 C2566 1.372 . S
C2567 C2568 1.400 . S
C2567 C2572 1.490 . S
C2568 H2558 0.930 . S
C2568 C2567 1.400 . S
C2568 C2571 1.386 . S
H2569 C2585 0.930 . S
H2570 C2586 0.931 . S
C2571 H2559 0.929 . S
C2571 C2565 1.390 . S
C2571 C2568 1.386 . S
C2572 C2567 1.490 . S
C2572 C2574 1.395 . S
C2572 C2575 1.403 . S
H2573 C2579 0.930 . S
C2574 H2560 0.930 . S
C2574 C2572 1.395 . S
C2574 C2577 1.403 . S
C2575 C2572 1.403 . S
C2575 C2576 1.524 . S
C2575 C2579 1.400 . S
C2576 H2561 0.960 . S
C2576 H2562 0.960 . S
C2576 H2563 0.960 . S
C2576 C2575 1.524 . S
C2577 C2574 1.403 . S
C2577 C2578 1.392 . S
C2577 C2581 1.495 . S
C2578 C2577 1.392 . S
C2578 C2579 1.385 . S
C2578 C2580 1.478 . S
C2579 H2573 0.930 . S
C2579 C2575 1.400 . S
C2579 C2578 1.385 . S
C2580 C2578 1.478 . S
C2580 C2582 1.381 . S
C2580 C2586 1.383 . S
C2581 C2577 1.495 . S
C2581 H2587 0.959 . S
C2581 H2588 0.961 . S
C2581 H2589 0.960 . S
C2582 C2580 1.381 . S
C2582 C2583 1.394 . S
C2582 H2590 0.930 . S
C2583 C2582 1.394 . S
C2583 C2584 1.383 . S
C2583 H2591 0.929 . S
C2584 C2583 1.383 . S
C2584 C2585 1.377 . S
C2585 H2569 0.930 . S
C2585 C2584 1.377 . S
C2585 C2586 1.379 . S
C2586 H2570 0.931 . S
C2586 C2580 1.383 . S
C2586 C2585 1.379 . S
H2587 C2581 0.959 . S
H2588 C2581 0.961 . S
H2589 C2581 0.960 . S
H2590 C2582 0.930 . S
H2591 C2583 0.929 . S
H2592 C2600 0.929 . S
H2593 C2602 0.930 . S
H2594 C2604 0.930 . S
H2595 C2607 0.929 . S
H2596 C2610 0.930 . S
H2597 C2612 0.960 . S
H2598 C2612 0.960 . S
H2599 C2612 0.960 . S
C2600 H2592 0.929 . S
C2600 C2601 1.377 . S
C2600 C2602 1.384 . S
C2601 C2600 1.377 . S
C2601 C2607 1.390 . S
C2602 H2593 0.930 . S
C2602 C2600 1.384 . S
C2602 C2603 1.372 . S
C2603 C2602 1.372 . S
C2603 C2604 1.400 . S
C2603 C2608 1.490 . S
C2604 H2594 0.930 . S
C2604 C2603 1.400 . S
C2604 C2607 1.386 . S
H2605 C2621 0.930 . S
H2606 C2622 0.931 . S
C2607 H2595 0.929 . S
C2607 C2601 1.390 . S
C2607 C2604 1.386 . S
C2608 C2603 1.490 . S
C2608 C2610 1.395 . S
C2608 C2611 1.403 . S
H2609 C2615 0.930 . S
C2610 H2596 0.930 . S
C2610 C2608 1.395 . S
C2610 C2613 1.403 . S
C2611 C2608 1.403 . S
C2611 C2612 1.524 . S
C2611 C2615 1.400 . S
C2612 H2597 0.960 . S
C2612 H2598 0.960 . S
C2612 H2599 0.960 . S
C2612 C2611 1.524 . S
C2613 C2610 1.403 . S
C2613 C2614 1.392 . S
C2613 C2617 1.495 . S
C2614 C2613 1.392 . S
C2614 C2615 1.385 . S
C2614 C2616 1.478 . S
C2615 H2609 0.930 . S
C2615 C2611 1.400 . S
C2615 C2614 1.385 . S
C2616 C2614 1.478 . S
C2616 C2618 1.381 . S
C2616 C2622 1.383 . S
C2617 C2613 1.495 . S
C2617 H2623 0.959 . S
C2617 H2624 0.961 . S
C2617 H2625 0.960 . S
C2618 C2616 1.381 . S
C2618 C2619 1.394 . S
C2618 H2626 0.930 . S
C2619 C2618 1.394 . S
C2619 C2620 1.383 . S
C2619 H2627 0.929 . S
C2620 C2619 1.383 . S
C2620 C2621 1.377 . S
C2621 H2605 0.930 . S
C2621 C2620 1.377 . S
C2621 C2622 1.379 . S
C2622 H2606 0.931 . S
C2622 C2616 1.383 . S
C2622 C2621 1.379 . S
H2623 C2617 0.959 . S
H2624 C2617 0.961 . S
H2625 C2617 0.960 . S
H2626 C2618 0.930 . S
H2627 C2619 0.929 . S
H2628 C2636 0.929 . S
H2629 C2638 0.930 . S
H2630 C2640 0.930 . S
H2631 C2643 0.929 . S
H2632 C2646 0.930 . S
H2633 C2648 0.960 . S
H2634 C2648 0.960 . S
H2635 C2648 0.960 . S
C2636 H2628 0.929 . S
C2636 C2637 1.377 . S
C2636 C2638 1.384 . S
C2637 C2636 1.377 . S
C2637 C2643 1.390 . S
C2638 H2629 0.930 . S
C2638 C2636 1.384 . S
C2638 C2639 1.372 . S
C2639 C2638 1.372 . S
C2639 C2640 1.400 . S
C2639 C2644 1.490 . S
C2640 H2630 0.930 . S
C2640 C2639 1.400 . S
C2640 C2643 1.386 . S
H2641 C2657 0.930 . S
H2642 C2658 0.931 . S
C2643 H2631 0.929 . S
C2643 C2637 1.390 . S
C2643 C2640 1.386 . S
C2644 C2639 1.490 . S
C2644 C2646 1.395 . S
C2644 C2647 1.403 . S
H2645 C2651 0.930 . S
C2646 H2632 0.930 . S
C2646 C2644 1.395 . S
C2646 C2649 1.403 . S
C2647 C2644 1.403 . S
C2647 C2648 1.524 . S
C2647 C2651 1.400 . S
C2648 H2633 0.960 . S
C2648 H2634 0.960 . S
C2648 H2635 0.960 . S
C2648 C2647 1.524 . S
C2649 C2646 1.403 . S
C2649 C2650 1.392 . S
C2649 C2653 1.495 . S
C2650 C2649 1.392 . S
C2650 C2651 1.385 . S
C2650 C2652 1.478 . S
C2651 H2645 0.930 . S
C2651 C2647 1.400 . S
C2651 C2650 1.385 . S
C2652 C2650 1.478 . S
C2652 C2654 1.381 . S
C2652 C2658 1.383 . S
C2653 C2649 1.495 . S
C2653 H2659 0.959 . S
C2653 H2660 0.961 . S
C2653 H2661 0.960 . S
C2654 C2652 1.381 . S
C2654 C2655 1.394 . S
C2654 H2662 0.930 . S
C2655 C2654 1.394 . S
C2655 C2656 1.383 . S
C2655 H2663 0.929 . S
C2656 C2655 1.383 . S
C2656 C2657 1.377 . S
C2657 H2641 0.930 . S
C2657 C2656 1.377 . S
C2657 C2658 1.379 . S
C2658 H2642 0.931 . S
C2658 C2652 1.383 . S
C2658 C2657 1.379 . S
H2659 C2653 0.959 . S
H2660 C2653 0.961 . S
H2661 C2653 0.960 . S
H2662 C2654 0.930 . S
H2663 C2655 0.929 . S
H2664 C2672 0.929 . S
H2665 C2674 0.930 . S
H2666 C2676 0.930 . S
H2667 C2679 0.929 . S
H2668 C2682 0.930 . S
H2669 C2684 0.960 . S
H2670 C2684 0.960 . S
H2671 C2684 0.960 . S
C2672 H2664 0.929 . S
C2672 C2673 1.377 . S
C2672 C2674 1.384 . S
C2673 C2672 1.377 . S
C2673 C2679 1.390 . S
C2674 H2665 0.930 . S
C2674 C2672 1.384 . S
C2674 C2675 1.372 . S
C2675 C2674 1.372 . S
C2675 C2676 1.400 . S
C2675 C2680 1.490 . S
C2676 H2666 0.930 . S
C2676 C2675 1.400 . S
C2676 C2679 1.386 . S
H2677 C2693 0.930 . S
H2678 C2694 0.931 . S
C2679 H2667 0.929 . S
C2679 C2673 1.390 . S
C2679 C2676 1.386 . S
C2680 C2675 1.490 . S
C2680 C2682 1.395 . S
C2680 C2683 1.403 . S
H2681 C2687 0.930 . S
C2682 H2668 0.930 . S
C2682 C2680 1.395 . S
C2682 C2685 1.403 . S
C2683 C2680 1.403 . S
C2683 C2684 1.524 . S
C2683 C2687 1.400 . S
C2684 H2669 0.960 . S
C2684 H2670 0.960 . S
C2684 H2671 0.960 . S
C2684 C2683 1.524 . S
C2685 C2682 1.403 . S
C2685 C2686 1.392 . S
C2685 C2689 1.495 . S
C2686 C2685 1.392 . S
C2686 C2687 1.385 . S
C2686 C2688 1.478 . S
C2687 H2681 0.930 . S
C2687 C2683 1.400 . S
C2687 C2686 1.385 . S
C2688 C2686 1.478 . S
C2688 C2690 1.381 . S
C2688 C2694 1.383 . S
C2689 C2685 1.495 . S
C2689 H2695 0.959 . S
C2689 H2696 0.961 . S
C2689 H2697 0.960 . S
C2690 C2688 1.381 . S
C2690 C2691 1.394 . S
C2690 H2698 0.930 . S
C2691 C2690 1.394 . S
C2691 C2692 1.383 . S
C2691 H2699 0.929 . S
C2692 C2691 1.383 . S
C2692 C2693 1.377 . S
C2693 H2677 0.930 . S
C2693 C2692 1.377 . S
C2693 C2694 1.379 . S
C2694 H2678 0.931 . S
C2694 C2688 1.383 . S
C2694 C2693 1.379 . S
H2695 C2689 0.959 . S
H2696 C2689 0.961 . S
H2697 C2689 0.960 . S
H2698 C2690 0.930 . S
H2699 C2691 0.929 . S
H2700 C2708 0.929 . S
H2701 C2710 0.930 . S
H2702 C2712 0.930 . S
H2703 C2715 0.929 . S
H2704 C2718 0.930 . S
H2705 C2720 0.960 . S
H2706 C2720 0.960 . S
H2707 C2720 0.960 . S
C2708 H2700 0.929 . S
C2708 C2709 1.377 . S
C2708 C2710 1.384 . S
C2709 C2708 1.377 . S
C2709 C2715 1.390 . S
C2710 H2701 0.930 . S
C2710 C2708 1.384 . S
C2710 C2711 1.372 . S
C2711 C2710 1.372 . S
C2711 C2712 1.400 . S
C2711 C2716 1.490 . S
C2712 H2702 0.930 . S
C2712 C2711 1.400 . S
C2712 C2715 1.386 . S
H2713 C2729 0.930 . S
H2714 C2730 0.931 . S
C2715 H2703 0.929 . S
C2715 C2709 1.390 . S
C2715 C2712 1.386 . S
C2716 C2711 1.490 . S
C2716 C2718 1.395 . S
C2716 C2719 1.403 . S
H2717 C2723 0.930 . S
C2718 H2704 0.930 . S
C2718 C2716 1.395 . S
C2718 C2721 1.403 . S
C2719 C2716 1.403 . S
C2719 C2720 1.524 . S
C2719 C2723 1.400 . S
C2720 H2705 0.960 . S
C2720 H2706 0.960 . S
C2720 H2707 0.960 . S
C2720 C2719 1.524 . S
C2721 C2718 1.403 . S
C2721 C2722 1.392 . S
C2721 C2725 1.495 . S
C2722 C2721 1.392 . S
C2722 C2723 1.385 . S
C2722 C2724 1.478 . S
C2723 H2717 0.930 . S
C2723 C2719 1.400 . S
C2723 C2722 1.385 . S
C2724 C2722 1.478 . S
C2724 C2726 1.381 . S
C2724 C2730 1.383 . S
C2725 C2721 1.495 . S
C2725 H2731 0.959 . S
C2725 H2732 0.961 . S
C2725 H2733 0.960 . S
C2726 C2724 1.381 . S
C2726 C2727 1.394 . S
C2726 H2734 0.930 . S
C2727 C2726 1.394 . S
C2727 C2728 1.383 . S
C2727 H2735 0.929 . S
C2728 C2727 1.383 . S
C2728 C2729 1.377 . S
C2729 H2713 0.930 . S
C2729 C2728 1.377 . S
C2729 C2730 1.379 . S
C2730 H2714 0.931 . S
C2730 C2724 1.383 . S
C2730 C2729 1.379 . S
H2731 C2725 0.959 . S
H2732 C2725 0.961 . S
H2733 C2725 0.960 . S
H2734 C2726 0.930 . S
H2735 C2727 0.929 . S
H2736 C2744 0.929 . S
H2737 C2746 0.930 . S
H2738 C2748 0.930 . S
H2739 C2751 0.929 . S
H2740 C2754 0.930 . S
H2741 C2756 0.960 . S
H2742 C2756 0.960 . S
H2743 C2756 0.960 . S
C2744 H2736 0.929 . S
C2744 C2745 1.377 . S
C2744 C2746 1.384 . S
C2745 C2744 1.377 . S
C2745 C2751 1.390 . S
C2746 H2737 0.930 . S
C2746 C2744 1.384 . S
C2746 C2747 1.372 . S
C2747 C2746 1.372 . S
C2747 C2748 1.400 . S
C2747 C2752 1.490 . S
C2748 H2738 0.930 . S
C2748 C2747 1.400 . S
C2748 C2751 1.386 . S
H2749 C2765 0.930 . S
H2750 C2766 0.931 . S
C2751 H2739 0.929 . S
C2751 C2745 1.390 . S
C2751 C2748 1.386 . S
C2752 C2747 1.490 . S
C2752 C2754 1.395 . S
C2752 C2755 1.403 . S
H2753 C2759 0.930 . S
C2754 H2740 0.930 . S
C2754 C2752 1.395 . S
C2754 C2757 1.403 . S
C2755 C2752 1.403 . S
C2755 C2756 1.524 . S
C2755 C2759 1.400 . S
C2756 H2741 0.960 . S
C2756 H2742 0.960 . S
C2756 H2743 0.960 . S
C2756 C2755 1.524 . S
C2757 C2754 1.403 . S
C2757 C2758 1.392 . S
C2757 C2761 1.495 . S
C2758 C2757 1.392 . S
C2758 C2759 1.385 . S
C2758 C2760 1.478 . S
C2759 H2753 0.930 . S
C2759 C2755 1.400 . S
C2759 C2758 1.385 . S
C2760 C2758 1.478 . S
C2760 C2762 1.381 . S
C2760 C2766 1.383 . S
C2761 C2757 1.495 . S
C2761 H2767 0.959 . S
C2761 H2768 0.961 . S
C2761 H2769 0.960 . S
C2762 C2760 1.381 . S
C2762 C2763 1.394 . S
C2762 H2770 0.930 . S
C2763 C2762 1.394 . S
C2763 C2764 1.383 . S
C2763 H2771 0.929 . S
C2764 C2763 1.383 . S
C2764 C2765 1.377 . S
C2765 H2749 0.930 . S
C2765 C2764 1.377 . S
C2765 C2766 1.379 . S
C2766 H2750 0.931 . S
C2766 C2760 1.383 . S
C2766 C2765 1.379 . S
H2767 C2761 0.959 . S
H2768 C2761 0.961 . S
H2769 C2761 0.960 . S
H2770 C2762 0.930 . S
H2771 C2763 0.929 . S
H2772 C2780 0.929 . S
H2773 C2782 0.930 . S
H2774 C2784 0.930 . S
H2775 C2787 0.929 . S
H2776 C2790 0.930 . S
H2777 C2792 0.960 . S
H2778 C2792 0.960 1_554 S
H2779 C2792 0.960 1_554 S
C2780 H2772 0.929 . S
C2780 C2781 1.377 . S
C2780 C2782 1.384 . S
C2781 C2780 1.377 . S
C2781 C2787 1.390 . S
C2782 H2773 0.930 . S
C2782 C2780 1.384 . S
C2782 C2783 1.372 . S
C2783 C2782 1.372 . S
C2783 C2784 1.400 . S
C2783 C2788 1.490 1_554 S
C2784 H2774 0.930 . S
C2784 C2783 1.400 . S
C2784 C2787 1.386 . S
H2785 C2801 0.930 . S
H2786 C2802 0.931 . S
C2787 H2775 0.929 . S
C2787 C2781 1.390 . S
C2787 C2784 1.386 . S
C2788 C2783 1.490 1_556 S
C2788 C2790 1.395 . S
C2788 C2791 1.403 . S
H2789 C2795 0.930 . S
C2790 H2776 0.930 . S
C2790 C2788 1.395 . S
C2790 C2793 1.403 . S
C2791 C2788 1.403 . S
C2791 C2792 1.524 . S
C2791 C2795 1.400 . S
C2792 H2777 0.960 . S
C2792 H2778 0.960 1_556 S
C2792 H2779 0.960 1_556 S
C2792 C2791 1.524 . S
C2793 C2790 1.403 . S
C2793 C2794 1.392 . S
C2793 C2797 1.495 . S
C2794 C2793 1.392 . S
C2794 C2795 1.385 . S
C2794 C2796 1.478 . S
C2795 H2789 0.930 . S
C2795 C2791 1.400 . S
C2795 C2794 1.385 . S
C2796 C2794 1.478 . S
C2796 C2798 1.381 . S
C2796 C2802 1.383 . S
C2797 C2793 1.495 . S
C2797 H2803 0.959 . S
C2797 H2804 0.961 . S
C2797 H2805 0.960 . S
C2798 C2796 1.381 . S
C2798 C2799 1.394 . S
C2798 H2806 0.930 . S
C2799 C2798 1.394 . S
C2799 C2800 1.383 . S
C2799 H2807 0.929 . S
C2800 C2799 1.383 . S
C2800 C2801 1.377 . S
C2801 H2785 0.930 . S
C2801 C2800 1.377 . S
C2801 C2802 1.379 . S
C2802 H2786 0.931 . S
C2802 C2796 1.383 . S
C2802 C2801 1.379 . S
H2803 C2797 0.959 . S
H2804 C2797 0.961 . S
H2805 C2797 0.960 . S
H2806 C2798 0.930 . S
H2807 C2799 0.929 . S
H2808 C2816 0.929 . S
H2809 C2818 0.930 . S
H2810 C2820 0.930 . S
H2811 C2823 0.929 . S
H2812 C2826 0.930 . S
H2813 C2828 0.960 . S
H2814 C2828 0.960 . S
H2815 C2828 0.960 . S
C2816 H2808 0.929 . S
C2816 C2817 1.377 . S
C2816 C2818 1.384 . S
C2817 C2816 1.377 . S
C2817 C2823 1.390 . S
C2818 H2809 0.930 . S
C2818 C2816 1.384 . S
C2818 C2819 1.372 . S
C2819 C2818 1.372 . S
C2819 C2820 1.400 . S
C2819 C2824 1.490 . S
C2820 H2810 0.930 . S
C2820 C2819 1.400 . S
C2820 C2823 1.386 . S
H2821 C2837 0.930 . S
H2822 C2838 0.931 . S
C2823 H2811 0.929 . S
C2823 C2817 1.390 . S
C2823 C2820 1.386 . S
C2824 C2819 1.490 . S
C2824 C2826 1.395 . S
C2824 C2827 1.403 . S
H2825 C2831 0.930 . S
C2826 H2812 0.930 . S
C2826 C2824 1.395 . S
C2826 C2829 1.403 . S
C2827 C2824 1.403 . S
C2827 C2828 1.524 . S
C2827 C2831 1.400 . S
C2828 H2813 0.960 . S
C2828 H2814 0.960 . S
C2828 H2815 0.960 . S
C2828 C2827 1.524 . S
C2829 C2826 1.403 . S
C2829 C2830 1.392 . S
C2829 C2833 1.495 . S
C2830 C2829 1.392 . S
C2830 C2831 1.385 . S
C2830 C2832 1.478 1_556 S
C2831 H2825 0.930 . S
C2831 C2827 1.400 . S
C2831 C2830 1.385 . S
C2832 C2830 1.478 1_554 S
C2832 C2834 1.381 . S
C2832 C2838 1.383 . S
C2833 C2829 1.495 . S
C2833 H2839 0.959 . S
C2833 H2840 0.961 . S
C2833 H2841 0.960 1_556 S
C2834 C2832 1.381 . S
C2834 C2835 1.394 . S
C2834 H2842 0.930 . S
C2835 C2834 1.394 . S
C2835 C2836 1.383 . S
C2835 H2843 0.929 . S
C2836 C2835 1.383 . S
C2836 C2837 1.377 . S
C2837 H2821 0.930 . S
C2837 C2836 1.377 . S
C2837 C2838 1.379 . S
C2838 H2822 0.931 . S
C2838 C2832 1.383 . S
C2838 C2837 1.379 . S
H2839 C2833 0.959 . S
H2840 C2833 0.961 . S
H2841 C2833 0.960 1_554 S
H2842 C2834 0.930 . S
H2843 C2835 0.929 . S
H2844 C2852 0.929 . S
H2845 C2854 0.930 . S
H2846 C2856 0.930 . S
H2847 C2859 0.929 . S
H2848 C2862 0.930 . S
H2849 C2864 0.960 . S
H2850 C2864 0.960 . S
H2851 C2864 0.960 . S
C2852 H2844 0.929 . S
C2852 C2853 1.377 . S
C2852 C2854 1.384 . S
C2853 C2852 1.377 . S
C2853 C2859 1.390 . S
C2854 H2845 0.930 . S
C2854 C2852 1.384 . S
C2854 C2855 1.372 . S
C2855 C2854 1.372 . S
C2855 C2856 1.400 . S
C2855 C2860 1.490 . S
C2856 H2846 0.930 . S
C2856 C2855 1.400 . S
C2856 C2859 1.386 . S
H2857 C2873 0.930 . S
H2858 C2874 0.931 . S
C2859 H2847 0.929 . S
C2859 C2853 1.390 . S
C2859 C2856 1.386 . S
C2860 C2855 1.490 . S
C2860 C2862 1.395 . S
C2860 C2863 1.403 . S
H2861 C2867 0.930 . S
C2862 H2848 0.930 . S
C2862 C2860 1.395 . S
C2862 C2865 1.403 . S
C2863 C2860 1.403 . S
C2863 C2864 1.524 . S
C2863 C2867 1.400 . S
C2864 H2849 0.960 . S
C2864 H2850 0.960 . S
C2864 H2851 0.960 . S
C2864 C2863 1.524 . S
C2865 C2862 1.403 . S
C2865 C2866 1.392 . S
C2865 C2869 1.498 . S
C2866 C2865 1.392 . S
C2866 C2867 1.385 . S
C2866 C2868 1.478 1_556 S
C2867 H2861 0.930 . S
C2867 C2863 1.400 . S
C2867 C2866 1.385 . S
C2868 C2866 1.478 1_554 S
C2868 C2870 1.381 . S
C2868 C2874 1.383 . S
C2869 C2865 1.498 . S
C2869 H2875 0.963 . S
C2869 H2876 0.958 1_556 S
C2869 H2877 0.956 1_556 S
C2870 C2868 1.381 . S
C2870 C2871 1.394 . S
C2870 H2878 0.930 . S
C2871 C2870 1.394 . S
C2871 C2872 1.383 . S
C2871 H2879 0.929 . S
C2872 C2871 1.383 . S
C2872 C2873 1.377 . S
C2873 H2857 0.930 . S
C2873 C2872 1.377 . S
C2873 C2874 1.379 . S
C2874 H2858 0.931 . S
C2874 C2868 1.383 . S
C2874 C2873 1.379 . S
H2875 C2869 0.963 . S
H2876 C2869 0.958 1_554 S
H2877 C2869 0.956 1_554 S
H2878 C2870 0.930 . S
H2879 C2871 0.929 . S
C621 C443 2.184 . S
C640 C3 2.124 . S
C657 C477 2.181 . S
C676 C37 2.145 . S
C693 C71 2.131 . S
C712 C409 2.164 . S
C729 C103 2.131 . S
C748 C341 2.195 . S
C765 C137 2.129 . S
C784 C377 2.174 . S
C801 C171 2.126 . S
C820 C309 2.193 . S
C837 C35 2.187 . S
C856 C207 2.111 . S
C873 C241 2.122 . S
C892 C69 2.198 . S
C909 C1 2.184 . S
C928 C275 2.150 . S
C945 C545 2.187 . S
C964 C307 2.122 . S
C981 C343 2.122 . S
C1000 C581 2.164 . S
C1017 C375 2.128 . S
C1036 C511 2.196 . S
C1053 C239 2.184 . S
C1072 C411 2.124 . S
C1089 C445 2.131 . S
C1108 C273 2.163 . S
C1125 C479 2.126 . S
C1144 C205 2.186 . S
C1161 C139 2.188 . S
C1180 C513 2.125 . S
C1197 C173 2.187 . S
C1216 C547 2.207 . S
C1233 C579 2.122 . S
C1252 C105 2.164 . S
C1269 C380 1.248 . S
C1288 C17 1.205 . S
C1305 C312 1.249 . S
C1324 C51 1.201 . S
C1341 C368 1.248 . S
C1360 C85 1.243 . S
C1377 C119 1.229 . S
C1396 C504 1.251 . S
C1413 C153 1.233 . S
C1432 C436 1.236 . S
C1449 C187 1.225 . S
C1468 C470 1.259 . S
C1485 C221 1.229 . S
C1504 C584 1.259 1_655 S
C1521 C255 1.233 . S
C1540 C538 1.248 . S
C1557 C289 1.223 . S
C1576 C572 1.253 1_545 S
C1593 C96 1.252 . S
C1612 C323 1.198 . S
C1629 C28 1.252 . S
C1648 C357 1.202 . S
C1665 C391 1.228 . S
C1684 C62 1.239 . S
C1701 C425 1.226 . S
C1720 C176 1.235 . S
C1737 C459 1.229 . S
C1756 C108 1.260 . S
C1773 C493 1.224 . S
C1792 C142 1.258 . S
C1809 C527 1.222 . S
C1828 C300 1.256 1_455 S
C1845 C232 1.253 . S
C1864 C561 1.199 . S
C1881 C595 1.222 . S
C1900 C266 1.260 1_565 S
C1917 C6 0.316 . S
C1936 C516 0.330 . S
C1953 C550 0.315 . S
C1972 C40 0.326 . S
C1989 C74 0.317 . S
C2008 C606 0.332 . S
C2025 C210 0.316 . S
C2044 C130 0.329 . S
C2061 C244 0.315 . S
C2080 C164 0.328 . S
C2097 C278 0.315 . S
C2116 C198 0.321 . S
C2133 C414 0.317 . S
C2152 C334 0.332 . S
C2169 C346 0.315 . S
C2188 C448 0.321 . S
C2205 C402 0.315 . S
C2224 C482 0.325 . S
C2241 C15 1.548 1_556 S
C2260 C22 1.519 . S
C2277 C49 1.547 1_556 S
C2296 C56 1.524 . S
C2313 C83 1.547 1_556 S
C2332 C90 1.529 . S
C2349 C117 1.545 . S
C2368 C124 1.561 1_554 S
C2385 C151 1.546 . S
C2404 C158 1.522 1_554 S
C2421 C192 1.549 1_554 S
C2440 C185 1.518 . S
C2457 C226 1.550 . S
C2476 C219 1.528 . S
C2493 C260 1.555 . S
C2512 C253 1.570 . S
C2529 C287 1.549 . S
C2548 C294 1.553 . S
C2565 C321 1.550 . S
C2584 C328 1.524 . S
C2601 C362 1.544 . S
C2620 C355 1.536 . S
C2637 C396 1.549 . S
C2656 C389 1.558 . S
C2673 C423 1.551 . S
C2692 C430 1.563 . S
C2709 C457 1.558 . S
C2728 C464 1.558 . S
C2745 C498 1.551 . S
C2764 C491 1.531 . S
C2781 C532 1.554 . S
C2800 C525 1.540 . S
C2817 C559 1.555 . S
C2836 C566 1.575 . S
C2853 C600 1.555 . S
C2872 C593 1.525 . S
