# Generated by pormake.
# Topology qtz-x, (6)-cn, num edge types: 1
# Building blocks:
#     Node 0, Type 0, BuildingBlock: KUMBUR_clean_sbu_1, # of connection points: 6
#     Node 1, Type 0, BuildingBlock: KUMBUR_clean_sbu_1, # of connection points: 6
#     Node 2, Type 0, BuildingBlock: KUMBUR_clean_sbu_1, # of connection points: 6
#     Edge 3, Type (0, 0), BuildingBlock: CIFDUS_clean_linker_0, # of connection points: 2
#     Edge 4, Type (0, 0), BuildingBlock: CIFDUS_clean_linker_0, # of connection points: 2
#     Edge 5, Type (0, 0), BuildingBlock: CIFDUS_clean_linker_0, # of connection points: 2
#     Edge 6, Type (0, 0), BuildingBlock: CIFDUS_clean_linker_0, # of connection points: 2
#     Edge 7, Type (0, 0), BuildingBlock: CIFDUS_clean_linker_0, # of connection points: 2
#     Edge 8, Type (0, 0), BuildingBlock: CIFDUS_clean_linker_0, # of connection points: 2
#     Edge 9, Type (0, 0), BuildingBlock: CIFDUS_clean_linker_0, # of connection points: 2
#     Edge 10, Type (0, 0), BuildingBlock: CIFDUS_clean_linker_0, # of connection points: 2
#     Edge 11, Type (0, 0), BuildingBlock: CIFDUS_clean_linker_0, # of connection points: 2
# Relax obj value: 0.202
# Max RMSD: 0.281
# Mean RMSD: 0.281
data_MOF--net-qtz-x--node1-KUMBUR_clean_sbu_1--edge1-CIFDUS_clean_linker_0
_symmetry_space_group_name_H-M    P1
_symmetry_Int_Tables_number       1
_symmetry_cell_setting            triclinic
loop_
_symmetry_equiv_pos_as_xyz
'x, y, z'
_cell_length_a     13.126851
_cell_length_b     13.076846
_cell_length_c     47.367626
_cell_angle_alpha  90.04811
_cell_angle_beta   89.738393
_cell_angle_gamma 120.28816
loop_
_atom_site_label
_atom_site_type_symbol
_atom_site_fract_x
_atom_site_fract_y
_atom_site_fract_z
_atom_type_partial_charge
Tb0 Tb 0.9686 0.3788 0.14952 0.0
C1 C 0.49649 0.61456 0.14852 0.0
N2 N 0.41384 0.52229 0.16419 0.0
C3 C 0.48278 0.39731 0.14529 0.0
C4 C 0.57249 0.60041 0.12985 0.0
C5 C 0.41211 0.41696 0.16415 0.0
C6 C 0.56252 0.48907 0.12782 0.0
C7 C 0.58251 0.8197 0.13385 0.0
C8 C 0.50241 0.72304 0.15059 0.0
C9 C 0.66004 0.80674 0.11568 0.0
C10 C 0.655 0.69729 0.11367 0.0
Tb11 Tb 0.28662 0.56037 0.18967 0.0
N12 N 0.42244 0.73054 0.16746 0.0
C13 C 0.57941 0.92509 0.13522 0.0
C14 C 0.42257 0.83464 0.16986 0.0
C15 C 0.49901 0.93248 0.15331 0.0
H16 H 0.3596 0.34841 0.17904 0.0
H17 H 0.49685 0.01399 0.15475 0.0
H18 H 0.87314 0.57014 0.15196 0.0
H19 H 0.77177 0.92674 0.18789 0.0
H20 H 0.36288 0.84217 0.18427 0.0
H21 H 0.63881 1.0012 0.12252 0.0
H22 H 0.90339 0.09586 0.15792 0.0
H23 H 0.4787 0.31256 0.14501 0.0
H24 H 0.72283 0.88016 0.10275 0.0
H25 H 0.71447 0.68814 0.09933 0.0
H26 H 0.72417 0.59318 0.17857 0.0
H27 H 0.61873 0.4743 0.11362 0.0
H28 H 0.61899 0.93576 0.21699 0.0
N29 N 0.82138 0.40058 0.16927 0.0
C30 C 0.73982 0.30832 0.18492 0.0
C31 C 0.72763 0.51252 0.18055 0.0
C32 C 0.64935 0.31512 0.19942 0.0
C33 C 0.81301 0.49976 0.16575 0.0
C34 C 0.64553 0.4199 0.19753 0.0
N35 N 0.84059 0.2074 0.17316 0.0
C36 C 0.84431 0.10489 0.17209 0.0
C37 C 0.67027 0.11265 0.20393 0.0
C38 C 0.75137 0.20946 0.18741 0.0
C39 C 0.68115 0.01201 0.20492 0.0
C40 C 0.7672 1.00708 0.18855 0.0
H41 H 0.57925 0.4299 0.20889 0.0
H42 H 0.49848 0.2225 0.22735 0.0
H43 H 0.51578 0.044 0.23101 0.0
O44 O 0.85388 0.25198 0.12062 0.0
O45 O 0.97482 0.44186 0.19273 0.0
O46 O 0.12677 0.4272 0.21115 0.0
O47 O 0.93453 0.4377 0.1111 0.0
O48 O 0.072 0.28812 0.15306 0.0
O49 O 0.19317 0.36461 0.19246 0.0
O50 O 0.33063 0.67084 0.2258 0.0
O51 O 0.26988 0.59529 0.1452 0.0
O52 O 0.13535 0.4104 0.1315 0.0
O53 O 0.4071 0.56108 0.21848 0.0
O54 O 0.17849 0.64675 0.18842 0.0
O55 O 0.0618 0.57426 0.14783 0.0
C56 C 0.03155 0.43394 0.21453 0.0
C57 C 0.75216 0.3076 0.08897 0.0
C58 C 0.64943 0.29476 0.04511 0.0
C59 C 0.54207 0.24275 0.06007 0.0
C60 C 0.64448 0.25641 0.10369 0.0
C61 C 0.53998 0.22451 0.08923 0.0
C62 C 0.75423 0.32773 0.05984 0.0
C63 C 0.13142 0.27793 0.17433 0.0
C64 C 0.86202 0.33049 0.10258 0.0
C65 C 0.56872 0.21915 0.21606 0.0
C66 C 0.57908 0.11796 0.21829 0.0
C67 C 0.21947 0.51711 0.12515 0.0
C68 C 0.51111 0.72239 0.24988 0.0
C69 C 0.60565 0.82931 0.29337 0.0
C70 C 0.71593 0.8583 0.28188 0.0
C71 C 0.62223 0.75098 0.23904 0.0
C72 C 0.50356 0.76297 0.27697 0.0
C73 C 0.72403 0.82027 0.25481 0.0
C74 C 0.11788 0.65707 0.1673 0.0
C75 C 0.4015 0.63659 0.23535 0.0
H76 H 0.46008 0.21687 0.04924 0.0
H77 H 0.64089 0.23917 0.12614 0.0
H78 H 0.45692 0.18431 0.10059 0.0
H79 H 0.83725 0.36517 0.04841 0.0
H80 H 0.79584 0.90983 0.29396 0.0
H81 H 0.63036 0.71957 0.21844 0.0
H82 H 0.41774 0.73756 0.28589 0.0
H83 H 0.80941 0.84273 0.24622 0.0
Tb84 Tb 0.74846 0.19619 0.49352 0.0
C85 C 0.36166 0.67075 0.48365 0.0
N86 N 0.37202 0.74899 0.50389 0.0
C87 C 0.16383 0.67635 0.50136 0.0
C88 C 0.25282 0.59617 0.47041 0.0
C89 C 0.27337 0.74654 0.5142 0.0
C90 C 0.15416 0.60301 0.47886 0.0
C91 C 0.44866 0.56945 0.45955 0.0
C92 C 0.45765 0.65704 0.47837 0.0
C93 C 0.34257 0.49964 0.44497 0.0
C94 C 0.24475 0.51307 0.45037 0.0
Tb95 Tb 0.557 0.86316 0.52238 0.0
N96 N 0.5577 0.72458 0.49326 0.0
C97 C 0.54493 0.55168 0.45688 0.0
C98 C 0.64866 0.70208 0.49228 0.0
C99 C 0.64483 0.61745 0.47359 0.0
H100 H 0.27832 0.79658 0.53275 0.0
H101 H 0.7185 0.60244 0.47238 0.0
H102 H 0.01957 0.2758 0.51335 0.0
H103 H 0.48599 0.40446 0.51304 0.0
H104 H 0.72515 0.75113 0.50548 0.0
H105 H 0.54125 0.48461 0.4428 0.0
H106 H 0.54971 0.2869 0.48577 0.0
H107 H 0.08656 0.67701 0.5092 0.0
H108 H 0.33403 0.43239 0.43022 0.0
H109 H 0.16211 0.45567 0.43977 0.0
H110 H 0.16243 0.40842 0.54897 0.0
H111 H 0.06919 0.548 0.46914 0.0
H112 H 0.59904 0.51622 0.5549 0.0
N113 N 0.88608 0.31356 0.52581 0.0
C114 C 0.85845 0.38292 0.54173 0.0
C115 C 0.07658 0.40069 0.54742 0.0
C116 C 0.93737 0.46018 0.56219 0.0
C117 C 0.99531 0.3251 0.52742 0.0
C118 C 0.04684 0.46717 0.56518 0.0
N119 N 0.68347 0.31083 0.51494 0.0
C120 C 0.59368 0.32586 0.50535 0.0
C121 C 0.72424 0.45498 0.55163 0.0
C122 C 0.75267 0.3796 0.5365 0.0
C123 C 0.62388 0.45941 0.54384 0.0
C124 C 0.55959 0.39614 0.52027 0.0
H125 H 0.11033 0.52618 0.58053 0.0
H126 H 0.96527 0.58992 0.59427 0.0
H127 H 0.77881 0.58552 0.58502 0.0
O128 O 0.82922 0.36774 0.47733 0.0
O129 O 0.76372 0.14426 0.53687 0.0
O130 O 0.57256 0.01321 0.54587 0.0
O131 O 0.84552 0.23477 0.45506 0.0
O132 O 0.55605 0.11004 0.48635 0.0
O133 O 0.46856 0.96945 0.52191 0.0
O134 O 0.62368 0.83362 0.56001 0.0
O135 O 0.63538 0.89882 0.47977 0.0
O136 O 0.62456 0.0591 0.46468 0.0
O137 O 0.44711 0.71259 0.54686 0.0
O138 O 0.7502 0.94195 0.52506 0.0
O139 O 0.84286 0.09689 0.49226 0.0
C140 C 0.67552 0.09531 0.55475 0.0
C141 C 0.83283 0.38267 0.42798 0.0
C142 C 0.85886 0.42384 0.37718 0.0
C143 C 0.79968 0.4883 0.38011 0.0
C144 C 0.76863 0.44212 0.4297 0.0
C145 C 0.75342 0.49537 0.406 0.0
C146 C 0.87603 0.37197 0.40155 0.0
C147 C 0.46416 0.0392 0.50233 0.0
C148 C 0.86282 0.34168 0.4541 0.0
C149 C 0.90621 0.53057 0.57828 0.0
C150 C 0.79982 0.52782 0.57305 0.0
C151 C 0.62467 0.96066 0.45936 0.0
C152 C 0.47778 0.75434 0.59523 0.0
C153 C 0.46794 0.72738 0.64622 0.0
C154 C 0.40367 0.78615 0.64851 0.0
C155 C 0.41137 0.81103 0.59783 0.0
C156 C 0.50488 0.71133 0.6195 0.0
C157 C 0.37456 0.82667 0.62435 0.0
C158 C 0.84174 0.01591 0.50925 0.0
C159 C 0.5221 0.7445 0.56738 0.0
H160 H 0.7898 0.53514 0.36249 0.0
H161 H 0.73245 0.45031 0.44955 0.0
H162 H 0.7073 0.54424 0.40776 0.0
H163 H 0.92288 0.32369 0.40018 0.0
H164 H 0.37474 0.79917 0.66897 0.0
H165 H 0.38947 0.84482 0.57938 0.0
H166 H 0.55556 0.66694 0.61767 0.0
H167 H 0.32438 0.87138 0.62619 0.0
Tb168 Tb 0.76543 0.43518 0.81975 0.0
C169 C 0.56725 0.77719 0.81978 0.0
N170 N 0.65748 0.78385 0.83524 0.0
C171 C 0.77912 0.98778 0.82187 0.0
C172 C 0.58075 0.87441 0.80395 0.0
C173 C 0.76062 0.88944 0.83761 0.0
C174 C 0.68913 0.97974 0.80471 0.0
C175 C 0.36393 0.66103 0.8045 0.0
C176 C 0.46021 0.67274 0.82018 0.0
C177 C 0.37727 0.75718 0.78839 0.0
C178 C 0.4855 0.86383 0.78816 0.0
Tb179 Tb 0.6196 0.61233 0.85755 0.0
N180 N 0.45135 0.58153 0.83573 0.0
C181 C 0.2574 0.55306 0.80553 0.0
C182 C 0.34526 0.4793 0.83853 0.0
C183 C 0.24772 0.46218 0.82288 0.0
H184 H 0.82828 0.8999 0.85206 0.0
H185 H 0.16458 0.37976 0.82459 0.0
H186 H 0.55463 0.15443 0.82716 0.0
H187 H 0.21326 0.67801 0.8598 0.0
H188 H 0.33549 0.41066 0.85271 0.0
H189 H 0.18138 0.54006 0.79367 0.0
H190 H 0.05039 0.64756 0.82937 0.0
H191 H 0.86159 0.07052 0.82369 0.0
H192 H 0.30436 0.75023 0.77621 0.0
H193 H 0.49448 0.93778 0.77585 0.0
H194 H 0.51596 0.98468 0.85725 0.0
H195 H 0.70164 0.0563 0.7931 0.0
H196 H 0.19266 0.51533 0.8905 0.0
N197 N 0.72694 0.26686 0.84327 0.0
C198 C 0.81553 0.27434 0.8595 0.0
C199 C 0.60022 0.0661 0.85832 0.0
C200 C 0.79888 0.17828 0.87636 0.0
C201 C 0.62191 0.16308 0.84152 0.0
C202 C 0.68887 0.07389 0.87595 0.0
N203 N 0.93096 0.47367 0.84468 0.0
C204 C 0.03624 0.57786 0.84367 0.0
C205 C 0.01388 0.39394 0.87748 0.0
C206 C 0.92079 0.38148 0.86033 0.0
C207 C 0.11902 0.50283 0.87775 0.0
C208 C 0.13056 0.59486 0.8606 0.0
H209 H 0.67217 0.99822 0.88873 0.0
H210 H 0.881 0.11711 0.90628 0.0
H211 H 0.06989 0.30567 0.90704 0.0
O212 O 0.89026 0.4371 0.79189 0.0
O213 O 0.72008 0.41172 0.86506 0.0
O214 O 0.76426 0.59819 0.87536 0.0
O215 O 0.70494 0.31725 0.78488 0.0
O216 O 0.86866 0.63038 0.81604 0.0
O217 O 0.81441 0.71226 0.85295 0.0
O218 O 0.52493 0.54531 0.8957 0.0
O219 O 0.5737 0.54809 0.81424 0.0
O220 O 0.74066 0.56212 0.79485 0.0
O221 O 0.6181 0.73211 0.88675 0.0
O222 O 0.52656 0.41771 0.86063 0.0
O223 O 0.57117 0.34969 0.81953 0.0
C224 C 0.74957 0.49658 0.88349 0.0
C225 C 0.84295 0.27499 0.76183 0.0
C226 C 0.85961 0.18536 0.71791 0.0
C227 C 0.92429 0.1432 0.73252 0.0
C228 C 0.9113 0.23595 0.7757 0.0
C229 C 0.94942 0.16806 0.76122 0.0
C230 C 0.81726 0.24933 0.73302 0.0
C231 C 0.8871 0.72041 0.83236 0.0
C232 C 0.81178 0.35678 0.77545 0.0
C233 C 0.89166 0.19018 0.89333 0.0
C234 C 0.99909 0.29763 0.89381 0.0
C235 C 0.64983 0.57798 0.7936 0.0
C236 C 0.45311 0.66046 0.91744 0.0
C237 C 0.33265 0.63363 0.95928 0.0
C238 C 0.28997 0.70134 0.94642 0.0
C239 C 0.40891 0.72726 0.90478 0.0
C240 C 0.41327 0.61244 0.9445 0.0
C241 C 0.32735 0.74703 0.91924 0.0
C242 C 0.49998 0.33609 0.84096 0.0
C243 C 0.54921 0.64958 0.90435 0.0
H244 H 0.9564 0.09191 0.7217 0.0
H245 H 0.93516 0.25812 0.79765 0.0
H246 H 1.00052 0.13644 0.77214 0.0
H247 H 0.76981 0.28516 0.72205 0.0
H248 H 0.22798 0.71898 0.95745 0.0
H249 H 0.4385 0.76541 0.88396 0.0
H250 H 0.44909 0.563 0.9546 0.0
H251 H 0.29399 0.79906 0.90947 0.0
H252 H 0.17001 0.82841 0.2072 0.0
H253 H 0.06099 0.73908 0.1205 0.0
H254 H 0.0554 0.92141 0.11502 0.0
H255 H 0.0829 0.10789 0.1345 0.0
H256 H 0.18853 0.19665 0.22135 0.0
H257 H 0.19626 0.015 0.22683 0.0
C258 C 0.14545 0.84899 0.18707 0.0
C259 C 0.11584 0.76944 0.16435 0.0
C260 C 0.14229 0.95461 0.18399 0.0
C261 C 0.08358 0.79777 0.13847 0.0
C262 C 0.08064 0.90248 0.13524 0.0
C263 C 0.10658 0.08708 0.15471 0.0
C264 C 0.13413 0.16583 0.17751 0.0
C265 C 0.10968 0.98159 0.15784 0.0
C266 C 0.16656 0.13789 0.20341 0.0
C267 C 0.17085 0.03373 0.2066 0.0
H268 H 0.28725 0.97511 0.54105 0.0
H269 H 0.39325 0.11651 0.4569 0.0
H270 H 0.21304 0.12621 0.45191 0.0
H271 H 0.02246 0.09031 0.4711 0.0
H272 H 0.90956 0.93141 0.55357 0.0
H273 H 0.09272 0.92825 0.55905 0.0
C274 C 0.26993 1.00539 0.52134 0.0
C275 C 0.35362 0.04376 0.49929 0.0
C276 C 0.16405 1.00672 0.51821 0.0
C277 C 0.3309 0.08675 0.4743 0.0
C278 C 0.22744 0.0918 0.47136 0.0
C279 C 0.03797 0.055 0.49027 0.0
C280 C 0.9522 1.01144 0.51191 0.0
C281 C 0.14303 0.05155 0.49313 0.0
C282 C 0.97346 0.96498 0.5365 0.0
C283 C 0.07857 0.96358 0.53972 0.0
H284 H 1.00486 0.89092 0.87202 0.0
H285 H 0.02837 0.80074 0.78556 0.0
H286 H 0.22017 0.98158 0.78047 0.0
H287 H 0.3816 0.16668 0.80058 0.0
H288 H 0.35757 0.2534 0.88742 0.0
H289 H 0.16575 0.07416 0.89212 0.0
C290 C 0.05128 0.91139 0.85196 0.0
C291 C 1.00167 0.83262 0.82916 0.0
C292 C 0.16185 0.01533 0.8492 0.0
C293 C 0.06435 0.85975 0.80348 0.0
C294 C 0.17412 0.96327 0.80053 0.0
C295 C 0.33469 0.14608 0.82057 0.0
C296 C 0.3844 0.22416 0.84354 0.0
C297 C 0.22398 0.04179 0.82327 0.0
C298 C 0.32172 0.19577 0.86927 0.0
C299 C 0.21173 0.09293 0.87204 0.0
H300 H 0.35963 0.76573 1.00561 0.0
H301 H 0.23322 0.40683 0.97874 0.0
H302 H 0.18255 0.33742 0.02768 0.0
H303 H 0.17773 0.38022 0.07836 0.0
H304 H 0.31762 0.74224 0.10507 0.0
H305 H 0.35976 0.80911 0.05615 0.0
C306 C 0.32011 0.67227 0.01054 0.0
C307 C 0.29897 0.59115 0.98873 0.0
C308 C 0.29422 0.63378 0.03872 0.0
C309 C 0.24985 0.47057 0.99529 0.0
C310 C 0.22097 0.43104 0.02322 0.0
C311 C 0.21697 0.47359 0.0734 0.0
C312 C 0.24405 0.55595 0.09531 0.0
C313 C 0.24321 0.51194 0.04515 0.0
C314 C 0.29623 0.67692 0.08863 0.0
C315 C 0.32012 0.71534 0.06063 0.0
H316 H 0.7627 0.41788 0.32588 0.0
H317 H 0.05543 0.40603 0.36388 0.0
H318 H 0.13 0.39943 0.31704 0.0
H319 H 0.11762 0.4079 0.265 0.0
H320 H 0.84842 0.46429 0.22923 0.0
H321 H 0.76114 0.44601 0.27546 0.0
C322 C 0.84451 0.4168 0.32426 0.0
C323 C 0.90331 0.41387 0.34877 0.0
C324 C 0.89124 0.42087 0.29742 0.0
C325 C 1.00645 0.4068 0.34565 0.0
C326 C 0.05031 0.4045 0.31877 0.0
C327 C 0.03975 0.41597 0.26733 0.0
C328 C 0.98573 0.43115 0.24331 0.0
C329 C 0.9942 0.41309 0.29448 0.0
C330 C 0.88725 0.44509 0.24693 0.0
C331 C 0.83841 0.4367 0.27353 0.0
H332 H 0.49705 0.4528 0.75235 0.0
H333 H 0.76208 0.80589 0.77622 0.0
H334 H 0.727 0.88563 0.73284 0.0
H335 H 0.62078 0.85329 0.68776 0.0
H336 H 0.37031 0.49773 0.66175 0.0
H337 H 0.40077 0.41915 0.7059 0.0
C338 C 0.54675 0.54702 0.74786 0.0
C339 C 0.62996 0.6243 0.76736 0.0
C340 C 0.52955 0.59103 0.7224 0.0
C341 C 0.69621 0.7458 0.76145 0.0
C342 C 0.6766 0.79106 0.73667 0.0
C343 C 0.57382 0.75868 0.69184 0.0
C344 C 0.49354 0.68079 0.67184 0.0
C345 C 0.5936 0.71443 0.71695 0.0
C346 C 0.4329 0.5585 0.677 0.0
C347 C 0.44993 0.51389 0.70221 0.0
H348 H 0.61328 0.28945 0.91173 0.0
H349 H 0.88343 0.65437 0.92345 0.0
H350 H 0.87802 0.62372 0.97444 0.0
H351 H 0.79285 0.49502 0.01585 0.0
H352 H 0.51397 0.13348 1.00495 0.0
H353 H 0.52486 0.16092 0.95361 0.0
C354 C 0.67141 0.3617 0.92552 0.0
C355 C 0.74898 0.47387 0.91398 0.0
C356 C 0.66519 0.34435 0.95495 0.0
C357 C 0.82283 0.56738 0.93197 0.0
C358 C 0.8197 0.54997 0.96108 0.0
C359 C 0.73475 0.42228 1.00219 0.0
C360 C 0.65291 0.31246 0.01409 0.0
C361 C 0.74055 0.43923 0.97283 0.0
C362 C 0.57703 0.21918 0.99623 0.0
C363 C 0.58373 0.23464 0.96691 0.0
H364 H 0.6924 0.78238 0.34029 0.0
H365 H 0.49907 0.9497 0.31284 0.0
H366 H 0.48957 1.00792 0.36164 0.0
H367 H 0.5375 0.01149 0.41238 0.0
H368 H 0.72364 0.83548 0.43935 0.0
H369 H 0.73378 0.7796 0.39078 0.0
C370 C 0.64845 0.83186 0.34504 0.0
C371 C 0.59728 0.86257 0.32301 0.0
C372 C 0.64157 0.86293 0.37314 0.0
C373 C 0.53897 0.92502 0.32947 0.0
C374 C 0.53383 0.95848 0.35734 0.0
C375 C 0.58033 0.96103 0.40756 0.0
C376 C 0.62913 0.92716 0.42958 0.0
C377 C 0.58502 0.9281 0.3794 0.0
C378 C 0.68366 0.86113 0.42298 0.0
C379 C 0.69029 0.82978 0.39512 0.0
H380 H 0.66202 0.13037 0.68747 0.0
H381 H 0.02103 0.20742 0.678 0.0
H382 H 0.99804 0.19078 0.62678 0.0
H383 H 0.87582 0.15488 0.58434 0.0
H384 H 0.51777 0.07948 0.59401 0.0
H385 H 0.54128 0.09748 0.64525 0.0
C386 C 0.73549 0.14416 0.67422 0.0
C387 C 0.84296 0.1698 0.68671 0.0
C388 C 0.72209 0.13553 0.6447 0.0
C389 C 0.93661 0.18571 0.6691 0.0
C390 C 0.92396 0.1773 0.63973 0.0
C391 C 0.80343 0.14332 0.59771 0.0
C392 C 0.69483 0.11488 0.58549 0.0
C393 C 0.81721 0.15254 0.62725 0.0
C394 C 0.60171 0.09995 0.60301 0.0
C395 C 0.61512 0.11032 0.6323 0.0
loop_
_geom_bond_atom_site_label_1
_geom_bond_atom_site_label_2
_geom_bond_distance
_geom_bond_site_symmetry_2
_ccdc_geom_bond_type
Tb0 N29 2.617 . S
Tb0 N35 2.572 . S
Tb0 O44 2.465 . S
Tb0 O45 2.387 . S
Tb0 O47 2.428 . S
Tb0 O48 2.308 . S
Tb0 O52 2.349 1_655 S
Tb0 O55 2.393 . S
Tb0 C64 2.802 . S
C1 N2 1.379 . S
C1 C4 1.416 . S
C1 C8 1.424 . S
N2 C1 1.379 . S
N2 C5 1.334 . S
N2 Tb11 2.617 . S
C3 C5 1.390 . S
C3 C6 1.339 . S
C3 H23 0.930 . S
C4 C1 1.416 . S
C4 C6 1.416 . S
C4 C10 1.448 . S
C5 N2 1.334 . S
C5 C3 1.390 . S
C5 H16 0.930 . S
C6 C3 1.339 . S
C6 C4 1.416 . S
C6 H27 0.930 . S
C7 C8 1.413 . S
C7 C9 1.427 . S
C7 C13 1.416 . S
C8 C1 1.424 . S
C8 C7 1.413 . S
C8 N12 1.361 . S
C9 C7 1.427 . S
C9 C10 1.328 . S
C9 H24 0.929 . S
C10 C4 1.448 . S
C10 C9 1.328 . S
C10 H25 0.930 . S
Tb11 N2 2.617 . S
Tb11 N12 2.572 . S
Tb11 O46 2.349 1_455 S
Tb11 O49 2.393 . S
Tb11 O50 2.465 . S
Tb11 O51 2.387 . S
Tb11 O53 2.428 . S
Tb11 O54 2.308 . S
Tb11 C75 2.802 . S
N12 C8 1.361 . S
N12 Tb11 2.572 . S
N12 C14 1.340 . S
C13 C7 1.416 . S
C13 C15 1.332 . S
C13 H21 0.931 . S
C14 N12 1.340 . S
C14 C15 1.407 . S
C14 H20 0.930 . S
C15 C13 1.332 . S
C15 C14 1.407 . S
C15 H17 0.929 . S
H16 C5 0.930 . S
H17 C15 0.929 . S
H18 C33 0.930 . S
H19 C40 0.929 1_565 S
H20 C14 0.930 . S
H21 C13 0.931 . S
H22 C36 0.930 . S
H23 C3 0.930 . S
H24 C9 0.929 . S
H25 C10 0.930 . S
H26 C31 0.930 . S
H27 C6 0.930 . S
H28 C39 0.931 1_565 S
N29 Tb0 2.617 . S
N29 C30 1.379 . S
N29 C33 1.334 . S
C30 N29 1.379 . S
C30 C32 1.416 . S
C30 C38 1.424 . S
C31 H26 0.930 . S
C31 C33 1.390 . S
C31 C34 1.339 . S
C32 C30 1.416 . S
C32 C34 1.416 . S
C32 C65 1.448 . S
C33 H18 0.930 . S
C33 N29 1.334 . S
C33 C31 1.390 . S
C34 C31 1.339 . S
C34 C32 1.416 . S
C34 H41 0.930 . S
N35 Tb0 2.572 . S
N35 C36 1.340 . S
N35 C38 1.361 . S
C36 H22 0.930 . S
C36 N35 1.340 . S
C36 C40 1.407 . S
C37 C38 1.413 . S
C37 C39 1.416 . S
C37 C66 1.427 . S
C38 C30 1.424 . S
C38 N35 1.361 . S
C38 C37 1.413 . S
C39 H28 0.931 1_545 S
C39 C37 1.416 . S
C39 C40 1.332 . S
C40 H19 0.929 1_545 S
C40 C36 1.407 . S
C40 C39 1.332 . S
H41 C34 0.930 . S
H42 C65 0.930 . S
H43 C66 0.929 . S
O44 Tb0 2.465 . S
O44 C64 1.264 . S
O45 Tb0 2.387 . S
O45 C56 1.264 . S
O46 Tb11 2.349 1_655 S
O46 C56 1.243 . S
O47 Tb0 2.428 . S
O47 C64 1.256 . S
O48 Tb0 2.308 . S
O48 C63 1.266 . S
O49 Tb11 2.393 . S
O49 C63 1.248 1_455 S
O50 Tb11 2.465 . S
O50 C75 1.264 . S
O51 Tb11 2.387 . S
O51 C67 1.264 . S
O52 Tb0 2.349 1_455 S
O52 C67 1.243 . S
O53 Tb11 2.428 . S
O53 C75 1.256 . S
O54 Tb11 2.308 . S
O54 C74 1.266 . S
O55 Tb0 2.393 . S
O55 C74 1.248 1_655 S
C56 O45 1.264 . S
C56 O46 1.243 . S
C57 C60 1.399 . S
C57 C62 1.383 . S
C57 C64 1.496 . S
C58 C59 1.399 . S
C58 C62 1.389 . S
C59 C58 1.399 . S
C59 C61 1.380 . S
C59 H76 0.929 1_554 S
C60 C57 1.399 . S
C60 C61 1.392 . S
C60 H77 0.929 . S
C61 C59 1.380 . S
C61 C60 1.392 . S
C61 H78 0.929 . S
C62 C57 1.383 . S
C62 C58 1.389 . S
C62 H79 0.931 . S
C63 O48 1.266 . S
C63 O49 1.248 1_655 S
C64 Tb0 2.802 . S
C64 O44 1.264 . S
C64 O47 1.256 . S
C64 C57 1.496 . S
C65 C32 1.448 . S
C65 H42 0.930 . S
C65 C66 1.328 . S
C66 C37 1.427 . S
C66 H43 0.929 . S
C66 C65 1.328 . S
C67 O51 1.264 . S
C67 O52 1.243 . S
C68 C71 1.399 . S
C68 C72 1.383 . S
C68 C75 1.496 . S
C69 C70 1.399 . S
C69 C72 1.389 . S
C70 C69 1.399 . S
C70 C73 1.380 . S
C70 H80 0.929 . S
C71 C68 1.399 . S
C71 C73 1.392 . S
C71 H81 0.929 . S
C72 C68 1.383 . S
C72 C69 1.389 . S
C72 H82 0.931 . S
C73 C70 1.380 . S
C73 C71 1.392 . S
C73 H83 0.929 . S
C74 O54 1.266 . S
C74 O55 1.248 1_455 S
C75 Tb11 2.802 . S
C75 O50 1.264 . S
C75 O53 1.256 . S
C75 C68 1.496 . S
H76 C59 0.929 1_556 S
H77 C60 0.929 . S
H78 C61 0.929 . S
H79 C62 0.931 . S
H80 C70 0.929 . S
H81 C71 0.929 . S
H82 C72 0.931 . S
H83 C73 0.929 . S
Tb84 N113 2.617 1_655 S
Tb84 N119 2.572 . S
Tb84 O128 2.465 . S
Tb84 O129 2.387 . S
Tb84 O131 2.428 . S
Tb84 O132 2.308 . S
Tb84 O136 2.349 . S
Tb84 O139 2.393 . S
Tb84 C148 2.802 . S
C85 N86 1.379 . S
C85 C88 1.416 . S
C85 C92 1.424 . S
N86 C85 1.379 . S
N86 C89 1.334 . S
N86 Tb95 2.617 . S
C87 C89 1.390 . S
C87 C90 1.339 . S
C87 H107 0.930 . S
C88 C85 1.416 . S
C88 C90 1.416 . S
C88 C94 1.448 . S
C89 N86 1.334 . S
C89 C87 1.390 . S
C89 H100 0.930 . S
C90 C87 1.339 . S
C90 C88 1.416 . S
C90 H111 0.930 . S
C91 C92 1.413 . S
C91 C93 1.427 . S
C91 C97 1.416 . S
C92 C85 1.424 . S
C92 C91 1.413 . S
C92 N96 1.361 . S
C93 C91 1.427 . S
C93 C94 1.328 . S
C93 H108 0.929 . S
C94 C88 1.448 . S
C94 C93 1.328 . S
C94 H109 0.930 . S
Tb95 N86 2.617 . S
Tb95 N96 2.572 . S
Tb95 O130 2.349 1_565 S
Tb95 O133 2.393 1_565 S
Tb95 O134 2.465 . S
Tb95 O135 2.387 . S
Tb95 O137 2.428 . S
Tb95 O138 2.308 1_565 S
Tb95 C159 2.802 . S
N96 C92 1.361 . S
N96 Tb95 2.572 . S
N96 C98 1.340 . S
C97 C91 1.416 . S
C97 C99 1.332 . S
C97 H105 0.931 . S
C98 N96 1.340 . S
C98 C99 1.407 . S
C98 H104 0.930 . S
C99 C97 1.332 . S
C99 C98 1.407 . S
C99 H101 0.929 . S
H100 C89 0.930 . S
H101 C99 0.929 . S
H102 C117 0.930 . S
H103 C124 0.929 . S
H104 C98 0.930 . S
H105 C97 0.931 . S
H106 C120 0.930 . S
H107 C87 0.930 . S
H108 C93 0.929 . S
H109 C94 0.930 . S
H110 C115 0.930 . S
H111 C90 0.930 . S
H112 C123 0.931 . S
N113 Tb84 2.617 1_455 S
N113 C114 1.379 . S
N113 C117 1.334 . S
C114 N113 1.379 . S
C114 C116 1.416 . S
C114 C122 1.424 1_455 S
C115 H110 0.930 . S
C115 C117 1.390 . S
C115 C118 1.339 . S
C116 C114 1.416 . S
C116 C118 1.416 . S
C116 C149 1.448 . S
C117 H102 0.930 . S
C117 N113 1.334 . S
C117 C115 1.390 . S
C118 C115 1.339 . S
C118 C116 1.416 . S
C118 H125 0.930 . S
N119 Tb84 2.572 . S
N119 C120 1.340 . S
N119 C122 1.361 . S
C120 H106 0.930 . S
C120 N119 1.340 . S
C120 C124 1.407 . S
C121 C122 1.413 . S
C121 C123 1.416 . S
C121 C150 1.427 1_655 S
C122 C114 1.424 1_655 S
C122 N119 1.361 . S
C122 C121 1.413 . S
C123 H112 0.931 . S
C123 C121 1.416 . S
C123 C124 1.332 . S
C124 H103 0.929 . S
C124 C120 1.407 . S
C124 C123 1.332 . S
H125 C118 0.930 . S
H126 C149 0.930 . S
H127 C150 0.929 . S
O128 Tb84 2.465 . S
O128 C148 1.264 . S
O129 Tb84 2.387 . S
O129 C140 1.264 . S
O130 Tb95 2.349 1_545 S
O130 C140 1.243 . S
O131 Tb84 2.428 . S
O131 C148 1.256 . S
O132 Tb84 2.308 . S
O132 C147 1.266 . S
O133 Tb95 2.393 1_545 S
O133 C147 1.248 . S
O134 Tb95 2.465 . S
O134 C159 1.264 . S
O135 Tb95 2.387 . S
O135 C151 1.264 1_565 S
O136 Tb84 2.349 . S
O136 C151 1.243 . S
O137 Tb95 2.428 . S
O137 C159 1.256 . S
O138 Tb95 2.308 1_545 S
O138 C158 1.266 . S
O139 Tb84 2.393 . S
O139 C158 1.248 . S
C140 O129 1.264 . S
C140 O130 1.243 . S
C141 C144 1.399 . S
C141 C146 1.383 . S
C141 C148 1.496 . S
C142 C143 1.399 . S
C142 C146 1.389 . S
C143 C142 1.399 . S
C143 C145 1.380 . S
C143 H160 0.929 . S
C144 C141 1.399 . S
C144 C145 1.392 . S
C144 H161 0.929 . S
C145 C143 1.380 . S
C145 C144 1.392 . S
C145 H162 0.929 1_655 S
C146 C141 1.383 . S
C146 C142 1.389 . S
C146 H163 0.931 . S
C147 O132 1.266 . S
C147 O133 1.248 . S
C148 Tb84 2.802 . S
C148 O128 1.264 . S
C148 O131 1.256 . S
C148 C141 1.496 . S
C149 C116 1.448 . S
C149 H126 0.930 . S
C149 C150 1.328 . S
C150 C121 1.427 1_455 S
C150 H127 0.929 . S
C150 C149 1.328 . S
C151 O135 1.264 1_545 S
C151 O136 1.243 . S
C152 C155 1.399 . S
C152 C156 1.383 . S
C152 C159 1.496 . S
C153 C154 1.399 . S
C153 C156 1.389 . S
C154 C153 1.399 . S
C154 C157 1.380 . S
C154 H164 0.929 . S
C155 C152 1.399 . S
C155 C157 1.392 . S
C155 H165 0.929 . S
C156 C152 1.383 . S
C156 C153 1.389 . S
C156 H166 0.931 . S
C157 C154 1.380 . S
C157 C155 1.392 . S
C157 H167 0.929 . S
C158 O138 1.266 . S
C158 O139 1.248 . S
C159 Tb95 2.802 . S
C159 O134 1.264 . S
C159 O137 1.256 . S
C159 C152 1.496 . S
H160 C143 0.929 . S
H161 C144 0.929 . S
H162 C145 0.929 1_455 S
H163 C146 0.931 . S
H164 C154 0.929 . S
H165 C155 0.929 . S
H166 C156 0.931 . S
H167 C157 0.929 . S
Tb168 N197 2.617 . S
Tb168 N203 2.572 . S
Tb168 O212 2.465 . S
Tb168 O213 2.387 . S
Tb168 O215 2.428 . S
Tb168 O216 2.308 . S
Tb168 O220 2.349 . S
Tb168 O223 2.393 . S
Tb168 C232 2.802 . S
C169 N170 1.379 . S
C169 C172 1.416 . S
C169 C176 1.424 . S
N170 C169 1.379 . S
N170 C173 1.334 . S
N170 Tb179 2.617 . S
C171 C173 1.390 . S
C171 C174 1.339 . S
C171 H191 0.930 1_565 S
C172 C169 1.416 . S
C172 C174 1.416 . S
C172 C178 1.448 . S
C173 N170 1.334 . S
C173 C171 1.390 . S
C173 H184 0.930 . S
C174 C171 1.339 . S
C174 C172 1.416 . S
C174 H195 0.930 1_565 S
C175 C176 1.413 . S
C175 C177 1.427 . S
C175 C181 1.416 . S
C176 C169 1.424 . S
C176 C175 1.413 . S
C176 N180 1.361 . S
C177 C175 1.427 . S
C177 C178 1.328 . S
C177 H192 0.929 . S
C178 C172 1.448 . S
C178 C177 1.328 . S
C178 H193 0.930 . S
Tb179 N170 2.617 . S
Tb179 N180 2.572 . S
Tb179 O214 2.349 . S
Tb179 O217 2.393 . S
Tb179 O218 2.465 . S
Tb179 O219 2.387 . S
Tb179 O221 2.428 . S
Tb179 O222 2.308 . S
Tb179 C243 2.802 . S
N180 C176 1.361 . S
N180 Tb179 2.572 . S
N180 C182 1.340 . S
C181 C175 1.416 . S
C181 C183 1.332 . S
C181 H189 0.931 . S
C182 N180 1.340 . S
C182 C183 1.407 . S
C182 H188 0.930 . S
C183 C181 1.332 . S
C183 C182 1.407 . S
C183 H185 0.929 . S
H184 C173 0.930 . S
H185 C183 0.929 . S
H186 C201 0.930 . S
H187 C208 0.929 . S
H188 C182 0.930 . S
H189 C181 0.931 . S
H190 C204 0.930 . S
H191 C171 0.930 1_545 S
H192 C177 0.929 . S
H193 C178 0.930 . S
H194 C199 0.930 . S
H195 C174 0.930 1_545 S
H196 C207 0.931 . S
N197 Tb168 2.617 . S
N197 C198 1.379 . S
N197 C201 1.334 . S
C198 N197 1.379 . S
C198 C200 1.416 1_545 S
C198 C206 1.424 . S
C199 H194 0.930 . S
C199 C201 1.390 1_565 S
C199 C202 1.339 . S
C200 C198 1.416 1_565 S
C200 C202 1.416 . S
C200 C233 1.448 . S
C201 H186 0.930 . S
C201 N197 1.334 . S
C201 C199 1.390 1_545 S
C202 C199 1.339 . S
C202 C200 1.416 . S
C202 H209 0.930 . S
N203 Tb168 2.572 . S
N203 C204 1.340 1_655 S
N203 C206 1.361 . S
C204 H190 0.930 . S
C204 N203 1.340 1_455 S
C204 C208 1.407 . S
C205 C206 1.413 . S
C205 C207 1.416 1_655 S
C205 C234 1.427 . S
C206 C198 1.424 . S
C206 N203 1.361 . S
C206 C205 1.413 . S
C207 H196 0.931 . S
C207 C205 1.416 1_455 S
C207 C208 1.332 . S
C208 H187 0.929 . S
C208 C204 1.407 . S
C208 C207 1.332 . S
H209 C202 0.930 . S
H210 C233 0.930 . S
H211 C234 0.929 1_455 S
O212 Tb168 2.465 . S
O212 C232 1.264 . S
O213 Tb168 2.387 . S
O213 C224 1.264 . S
O214 Tb179 2.349 . S
O214 C224 1.243 . S
O215 Tb168 2.428 . S
O215 C232 1.256 . S
O216 Tb168 2.308 . S
O216 C231 1.266 . S
O217 Tb179 2.393 . S
O217 C231 1.248 . S
O218 Tb179 2.465 . S
O218 C243 1.264 . S
O219 Tb179 2.387 . S
O219 C235 1.264 . S
O220 Tb168 2.349 . S
O220 C235 1.243 . S
O221 Tb179 2.428 . S
O221 C243 1.256 . S
O222 Tb179 2.308 . S
O222 C242 1.266 . S
O223 Tb168 2.393 . S
O223 C242 1.248 . S
C224 O213 1.264 . S
C224 O214 1.243 . S
C225 C228 1.399 . S
C225 C230 1.383 . S
C225 C232 1.496 . S
C226 C227 1.399 1_455 S
C226 C230 1.389 1_455 S
C227 C226 1.399 1_655 S
C227 C229 1.380 . S
C227 H244 0.929 . S
C228 C225 1.399 . S
C228 C229 1.392 . S
C228 H245 0.929 . S
C229 C227 1.380 . S
C229 C228 1.392 . S
C229 H246 0.929 . S
C230 C225 1.383 . S
C230 C226 1.389 1_655 S
C230 H247 0.931 1_655 S
C231 O216 1.266 . S
C231 O217 1.248 . S
C232 Tb168 2.802 . S
C232 O212 1.264 . S
C232 O215 1.256 . S
C232 C225 1.496 . S
C233 C200 1.448 . S
C233 H210 0.930 . S
C233 C234 1.328 1_565 S
C234 C205 1.427 . S
C234 H211 0.929 1_655 S
C234 C233 1.328 1_545 S
C235 O219 1.264 . S
C235 O220 1.243 . S
C236 C239 1.399 . S
C236 C240 1.383 . S
C236 C243 1.496 . S
C237 C238 1.399 . S
C237 C240 1.389 . S
C238 C237 1.399 . S
C238 C241 1.380 . S
C238 H248 0.929 1_556 S
C239 C236 1.399 . S
C239 C241 1.392 . S
C239 H249 0.929 . S
C240 C236 1.383 . S
C240 C237 1.389 . S
C240 H250 0.931 . S
C241 C238 1.380 . S
C241 C239 1.392 . S
C241 H251 0.929 . S
C242 O222 1.266 . S
C242 O223 1.248 . S
C243 Tb179 2.802 . S
C243 O218 1.264 . S
C243 O221 1.256 . S
C243 C236 1.496 . S
H244 C227 0.929 . S
H245 C228 0.929 . S
H246 C229 0.929 . S
H247 C230 0.931 1_455 S
H248 C238 0.929 1_554 S
H249 C239 0.929 . S
H250 C240 0.931 . S
H251 C241 0.929 . S
H252 C258 0.930 . S
H253 C261 0.930 . S
H254 C262 0.930 . S
H255 C263 0.930 . S
H256 C266 0.930 . S
H257 C267 0.930 . S
C258 H252 0.930 . S
C258 C259 1.355 1_655 S
C258 C260 1.415 . S
C259 C258 1.355 1_455 S
C259 C261 1.419 . S
C260 C258 1.415 . S
C260 C265 1.425 1_655 S
C260 C267 1.409 . S
C261 H253 0.930 . S
C261 C259 1.419 . S
C261 C262 1.362 . S
C262 H254 0.930 . S
C262 C261 1.362 . S
C262 C265 1.409 . S
C263 H255 0.930 . S
C263 C264 1.355 1_455 S
C263 C265 1.415 1_545 S
C264 C263 1.355 1_655 S
C264 C266 1.419 . S
C265 C260 1.425 1_455 S
C265 C262 1.409 . S
C265 C263 1.415 1_565 S
C266 H256 0.930 . S
C266 C264 1.419 . S
C266 C267 1.362 1_545 S
C267 H257 0.930 . S
C267 C260 1.409 . S
C267 C266 1.362 1_565 S
H268 C274 0.930 . S
H269 C277 0.930 1_565 S
H270 C278 0.930 . S
H271 C279 0.930 1_665 S
H272 C282 0.930 . S
H273 C283 0.930 . S
C274 H268 0.930 . S
C274 C275 1.355 . S
C274 C276 1.415 . S
C275 C274 1.355 . S
C275 C277 1.419 . S
C276 C274 1.415 . S
C276 C281 1.425 . S
C276 C283 1.409 . S
C277 H269 0.930 1_545 S
C277 C275 1.419 . S
C277 C278 1.362 1_545 S
C278 H270 0.930 . S
C278 C277 1.362 1_565 S
C278 C281 1.409 1_565 S
C279 H271 0.930 1_445 S
C279 C280 1.355 . S
C279 C281 1.415 . S
C280 C279 1.355 . S
C280 C282 1.419 . S
C281 C276 1.425 . S
C281 C278 1.409 1_545 S
C281 C279 1.415 . S
C282 H272 0.930 . S
C282 C280 1.419 . S
C282 C283 1.362 . S
C283 H273 0.930 . S
C283 C276 1.409 . S
C283 C282 1.362 . S
H284 C290 0.930 . S
H285 C293 0.930 1_655 S
H286 C294 0.930 . S
H287 C295 0.930 . S
H288 C298 0.930 . S
H289 C299 0.930 . S
C290 H284 0.930 . S
C290 C291 1.355 . S
C290 C292 1.415 . S
C291 C290 1.355 . S
C291 C293 1.419 . S
C292 C290 1.415 . S
C292 C297 1.425 . S
C292 C299 1.409 . S
C293 H285 0.930 1_455 S
C293 C291 1.419 . S
C293 C294 1.362 . S
C294 H286 0.930 . S
C294 C293 1.362 . S
C294 C297 1.409 . S
C295 H287 0.930 . S
C295 C296 1.355 . S
C295 C297 1.415 1_545 S
C296 C295 1.355 . S
C296 C298 1.419 . S
C297 C292 1.425 . S
C297 C294 1.409 . S
C297 C295 1.415 1_565 S
C298 H288 0.930 . S
C298 C296 1.419 . S
C298 C299 1.362 1_545 S
C299 H289 0.930 . S
C299 C292 1.409 . S
C299 C298 1.362 1_565 S
H300 C306 0.930 . S
H301 C309 0.930 1_556 S
H302 C310 0.930 . S
H303 C311 0.930 . S
H304 C314 0.930 . S
H305 C315 0.930 . S
C306 H300 0.930 . S
C306 C307 1.355 1_554 S
C306 C308 1.415 . S
C307 C306 1.355 1_556 S
C307 C309 1.419 1_556 S
C308 C306 1.415 . S
C308 C313 1.425 . S
C308 C315 1.409 . S
C309 H301 0.930 1_554 S
C309 C307 1.419 1_554 S
C309 C310 1.362 . S
C310 H302 0.930 . S
C310 C309 1.362 . S
C310 C313 1.409 . S
C311 H303 0.930 . S
C311 C312 1.355 . S
C311 C313 1.415 . S
C312 C311 1.355 . S
C312 C314 1.419 . S
C313 C308 1.425 . S
C313 C310 1.409 . S
C313 C311 1.415 . S
C314 H304 0.930 . S
C314 C312 1.419 . S
C314 C315 1.362 . S
C315 H305 0.930 . S
C315 C308 1.409 . S
C315 C314 1.362 . S
H316 C322 0.930 . S
H317 C325 0.930 . S
H318 C326 0.930 . S
H319 C327 0.930 . S
H320 C330 0.930 . S
H321 C331 0.930 . S
C322 H316 0.930 . S
C322 C323 1.355 . S
C322 C324 1.415 . S
C323 C322 1.355 . S
C323 C325 1.419 . S
C324 C322 1.415 . S
C324 C329 1.425 . S
C324 C331 1.409 . S
C325 H317 0.930 . S
C325 C323 1.419 . S
C325 C326 1.362 . S
C326 H318 0.930 . S
C326 C325 1.362 . S
C326 C329 1.409 . S
C327 H319 0.930 . S
C327 C328 1.355 . S
C327 C329 1.415 . S
C328 C327 1.355 . S
C328 C330 1.419 . S
C329 C324 1.425 . S
C329 C326 1.409 . S
C329 C327 1.415 . S
C330 H320 0.930 . S
C330 C328 1.419 . S
C330 C331 1.362 . S
C331 H321 0.930 . S
C331 C324 1.409 . S
C331 C330 1.362 . S
H332 C338 0.930 . S
H333 C341 0.930 . S
H334 C342 0.930 . S
H335 C343 0.930 . S
H336 C346 0.930 . S
H337 C347 0.930 . S
C338 H332 0.930 . S
C338 C339 1.355 . S
C338 C340 1.415 . S
C339 C338 1.355 . S
C339 C341 1.419 . S
C340 C338 1.415 . S
C340 C345 1.425 . S
C340 C347 1.409 . S
C341 H333 0.930 . S
C341 C339 1.419 . S
C341 C342 1.362 . S
C342 H334 0.930 . S
C342 C341 1.362 . S
C342 C345 1.409 . S
C343 H335 0.930 . S
C343 C344 1.355 . S
C343 C345 1.415 . S
C344 C343 1.355 . S
C344 C346 1.419 . S
C345 C340 1.425 . S
C345 C342 1.409 . S
C345 C343 1.415 . S
C346 H336 0.930 . S
C346 C344 1.419 . S
C346 C347 1.362 . S
C347 H337 0.930 . S
C347 C340 1.409 . S
C347 C346 1.362 . S
H348 C354 0.930 . S
H349 C357 0.930 . S
H350 C358 0.930 . S
H351 C359 0.930 1_554 S
H352 C362 0.930 1_565 S
H353 C363 0.930 . S
C354 H348 0.930 . S
C354 C355 1.355 . S
C354 C356 1.415 . S
C355 C354 1.355 . S
C355 C357 1.419 . S
C356 C354 1.415 . S
C356 C361 1.425 . S
C356 C363 1.409 . S
C357 H349 0.930 . S
C357 C355 1.419 . S
C357 C358 1.362 . S
C358 H350 0.930 . S
C358 C357 1.362 . S
C358 C361 1.409 . S
C359 H351 0.930 1_556 S
C359 C360 1.355 1_556 S
C359 C361 1.415 . S
C360 C359 1.355 1_554 S
C360 C362 1.419 1_554 S
C361 C356 1.425 . S
C361 C358 1.409 . S
C361 C359 1.415 . S
C362 H352 0.930 1_545 S
C362 C360 1.419 1_556 S
C362 C363 1.362 . S
C363 H353 0.930 . S
C363 C356 1.409 . S
C363 C362 1.362 . S
H364 C370 0.930 . S
H365 C373 0.930 . S
H366 C374 0.930 1_545 S
H367 C375 0.936 . S
H368 C378 0.930 . S
H369 C379 0.930 . S
C370 H364 0.930 . S
C370 C371 1.355 . S
C370 C372 1.415 . S
C371 C370 1.355 . S
C371 C373 1.419 . S
C372 C370 1.415 . S
C372 C377 1.425 . S
C372 C379 1.409 . S
C373 H365 0.930 . S
C373 C371 1.419 . S
C373 C374 1.362 . S
C374 H366 0.930 1_565 S
C374 C373 1.362 . S
C374 C377 1.409 . S
C375 H367 0.936 . S
C375 C376 1.350 1_545 S
C375 C377 1.413 1_545 S
C376 C375 1.350 1_565 S
C376 C378 1.419 . S
C377 C372 1.425 . S
C377 C374 1.409 . S
C377 C375 1.413 1_565 S
C378 H368 0.930 . S
C378 C376 1.419 . S
C378 C379 1.362 . S
C379 H369 0.930 . S
C379 C372 1.409 . S
C379 C378 1.362 . S
H380 C386 0.930 . S
H381 C389 0.930 . S
H382 C390 0.930 . S
H383 C391 0.930 . S
H384 C394 0.930 . S
H385 C395 0.930 . S
C386 H380 0.930 . S
C386 C387 1.355 1_655 S
C386 C388 1.415 . S
C387 C386 1.355 1_455 S
C387 C389 1.419 . S
C388 C386 1.415 . S
C388 C393 1.425 . S
C388 C395 1.409 . S
C389 H381 0.930 . S
C389 C387 1.419 . S
C389 C390 1.362 . S
C390 H382 0.930 . S
C390 C389 1.362 . S
C390 C393 1.409 1_455 S
C391 H383 0.930 . S
C391 C392 1.355 . S
C391 C393 1.415 . S
C392 C391 1.355 . S
C392 C394 1.419 . S
C393 C388 1.425 . S
C393 C390 1.409 1_655 S
C393 C391 1.415 . S
C394 H384 0.930 . S
C394 C392 1.419 . S
C394 C395 1.362 . S
C395 H385 0.930 . S
C395 C388 1.409 . S
C395 C394 1.362 . S
C259 C74 1.567 . S
C264 C63 1.567 . S
C275 C147 1.569 . S
C280 C158 1.569 1_455 S
C291 C231 1.593 1_455 S
C296 C242 1.593 . S
C307 C237 1.440 . S
C312 C67 1.560 . S
C323 C142 1.102 . S
C328 C56 1.545 . S
C339 C235 1.525 . S
C344 C153 1.405 . S
C355 C224 1.616 . S
C360 C58 1.211 . S
C371 C69 1.440 . S
C376 C151 1.560 1_565 S
C387 C226 1.215 . S
C392 C140 1.614 . S
