# Generated by pormake.
# Topology fny, (5)-cn, num edge types: 1
# Building blocks:
#     Node 0, Type 0, BuildingBlock: BEQFEK_clean_sbu_0, # of connection points: 5
#     Node 1, Type 0, BuildingBlock: BEQFEK_clean_sbu_0, # of connection points: 5
#     Node 2, Type 0, BuildingBlock: BEQFEK_clean_sbu_0, # of connection points: 5
#     Node 3, Type 0, BuildingBlock: BEQFEK_clean_sbu_0, # of connection points: 5
#     Node 4, Type 0, BuildingBlock: BEQFEK_clean_sbu_0, # of connection points: 5
#     Node 5, Type 0, BuildingBlock: BEQFEK_clean_sbu_0, # of connection points: 5
#     Node 6, Type 0, BuildingBlock: BEQFEK_clean_sbu_0, # of connection points: 5
#     Node 7, Type 0, BuildingBlock: BEQFEK_clean_sbu_0, # of connection points: 5
#     Node 8, Type 0, BuildingBlock: BEQFEK_clean_sbu_0, # of connection points: 5
#     Node 9, Type 0, BuildingBlock: BEQFEK_clean_sbu_0, # of connection points: 5
#     Node 10, Type 0, BuildingBlock: BEQFEK_clean_sbu_0, # of connection points: 5
#     Node 11, Type 0, BuildingBlock: BEQFEK_clean_sbu_0, # of connection points: 5
#     Edge 12, Type (0, 0), BuildingBlock: AJUNOK_clean_linker_0, # of connection points: 2
#     Edge 13, Type (0, 0), BuildingBlock: AJUNOK_clean_linker_0, # of connection points: 2
#     Edge 14, Type (0, 0), BuildingBlock: AJUNOK_clean_linker_0, # of connection points: 2
#     Edge 15, Type (0, 0), BuildingBlock: AJUNOK_clean_linker_0, # of connection points: 2
#     Edge 16, Type (0, 0), BuildingBlock: AJUNOK_clean_linker_0, # of connection points: 2
#     Edge 17, Type (0, 0), BuildingBlock: AJUNOK_clean_linker_0, # of connection points: 2
#     Edge 18, Type (0, 0), BuildingBlock: AJUNOK_clean_linker_0, # of connection points: 2
#     Edge 19, Type (0, 0), BuildingBlock: AJUNOK_clean_linker_0, # of connection points: 2
#     Edge 20, Type (0, 0), BuildingBlock: AJUNOK_clean_linker_0, # of connection points: 2
#     Edge 21, Type (0, 0), BuildingBlock: AJUNOK_clean_linker_0, # of connection points: 2
#     Edge 22, Type (0, 0), BuildingBlock: AJUNOK_clean_linker_0, # of connection points: 2
#     Edge 23, Type (0, 0), BuildingBlock: AJUNOK_clean_linker_0, # of connection points: 2
#     Edge 24, Type (0, 0), BuildingBlock: AJUNOK_clean_linker_0, # of connection points: 2
#     Edge 25, Type (0, 0), BuildingBlock: AJUNOK_clean_linker_0, # of connection points: 2
#     Edge 26, Type (0, 0), BuildingBlock: AJUNOK_clean_linker_0, # of connection points: 2
#     Edge 27, Type (0, 0), BuildingBlock: AJUNOK_clean_linker_0, # of connection points: 2
#     Edge 28, Type (0, 0), BuildingBlock: AJUNOK_clean_linker_0, # of connection points: 2
#     Edge 29, Type (0, 0), BuildingBlock: AJUNOK_clean_linker_0, # of connection points: 2
#     Edge 30, Type (0, 0), BuildingBlock: AJUNOK_clean_linker_0, # of connection points: 2
#     Edge 31, Type (0, 0), BuildingBlock: AJUNOK_clean_linker_0, # of connection points: 2
#     Edge 32, Type (0, 0), BuildingBlock: AJUNOK_clean_linker_0, # of connection points: 2
#     Edge 33, Type (0, 0), BuildingBlock: AJUNOK_clean_linker_0, # of connection points: 2
#     Edge 34, Type (0, 0), BuildingBlock: AJUNOK_clean_linker_0, # of connection points: 2
#     Edge 35, Type (0, 0), BuildingBlock: AJUNOK_clean_linker_0, # of connection points: 2
#     Edge 36, Type (0, 0), BuildingBlock: AJUNOK_clean_linker_0, # of connection points: 2
#     Edge 37, Type (0, 0), BuildingBlock: AJUNOK_clean_linker_0, # of connection points: 2
#     Edge 38, Type (0, 0), BuildingBlock: AJUNOK_clean_linker_0, # of connection points: 2
#     Edge 39, Type (0, 0), BuildingBlock: AJUNOK_clean_linker_0, # of connection points: 2
#     Edge 40, Type (0, 0), BuildingBlock: AJUNOK_clean_linker_0, # of connection points: 2
#     Edge 41, Type (0, 0), BuildingBlock: AJUNOK_clean_linker_0, # of connection points: 2
# Relax obj value: 0.351
# Max RMSD: 0.110
# Mean RMSD: 0.110
data_MOF--net-fny--node1-BEQFEK_clean_sbu_0--edge1-AJUNOK_clean_linker_0
_symmetry_space_group_name_H-M    P1
_symmetry_Int_Tables_number       1
_symmetry_cell_setting            triclinic
loop_
_symmetry_equiv_pos_as_xyz
'x, y, z'
_cell_length_a     47.368749
_cell_length_b     47.329923
_cell_length_c     18.108222
_cell_angle_alpha  89.8846
_cell_angle_beta   90.190701
_cell_angle_gamma 119.88382
loop_
_atom_site_label
_atom_site_type_symbol
_atom_site_fract_x
_atom_site_fract_y
_atom_site_fract_z
_atom_type_partial_charge
Co0 Co 0.41736 0.53347 0.31822 0.0
Co1 Co 0.36785 0.48643 0.21715 0.0
C2 C 0.41821 0.55321 0.15736 0.0
O3 O 0.42917 0.55913 0.22309 0.0
O4 O 0.39286 0.52554 0.14348 0.0
C5 C 0.43416 0.5871 0.40083 0.0
O6 O 0.41376 0.58965 0.35573 0.0
C7 C 0.31403 0.44883 0.11444 0.0
C8 C 0.2935 0.39946 0.16281 0.0
C9 C 0.28932 0.41684 0.10673 0.0
N10 N 0.33251 0.45026 0.17191 0.0
N11 N 0.32042 0.42066 0.20003 0.0
C12 C 0.31803 0.47806 0.07328 0.0
H13 H 0.32953 0.49991 0.10932 0.0
H14 H 0.29424 0.47413 0.0527 0.0
H15 H 0.33415 0.48249 0.02513 0.0
C16 C 0.3573 0.51474 0.41808 0.0
N17 N 0.37214 0.51392 0.35426 0.0
N18 N 0.34964 0.4962 0.30596 0.0
C19 C 0.31982 0.48715 0.33637 0.0
C20 C 0.32348 0.49914 0.40946 0.0
C21 C 0.37367 0.52333 0.49148 0.0
H22 H 0.39704 0.52344 0.48845 0.0
H23 H 0.37689 0.54708 0.50948 0.0
H24 H 0.35809 0.5051 0.53346 0.0
O25 O 0.43484 0.50288 0.31593 0.0
O26 O 0.39762 0.46711 0.24084 0.0
H27 H 0.28119 0.44121 0.29992 0.0
H28 H 0.26877 0.47072 0.32079 0.0
C29 C 0.28834 0.46734 0.29627 0.0
H30 H 0.29134 0.47427 0.23706 0.0
H31 H 0.32987 0.41518 0.24654 0.0
O32 O 0.44287 0.56635 0.38702 0.0
C33 C 0.42346 0.47655 0.27927 0.0
Co34 Co 0.90459 0.40443 0.78572 0.0
Co35 Co 0.90187 0.35203 0.69966 0.0
C36 C 0.8905 0.40338 0.62126 0.0
O37 O 0.89428 0.41489 0.68584 0.0
O38 O 0.89164 0.37697 0.61311 0.0
C39 C 0.86945 0.43277 0.83278 0.0
O40 O 0.84559 0.41064 0.79247 0.0
C41 C 0.8788 0.29203 0.61754 0.0
C42 C 0.91226 0.27498 0.65575 0.0
C43 C 0.88532 0.26676 0.61217 0.0
N44 N 0.90098 0.31454 0.66239 0.0
N45 N 0.92116 0.30448 0.68462 0.0
C46 C 0.85089 0.294 0.58402 0.0
H47 H 0.85598 0.30022 0.52462 0.0
H48 H 0.84759 0.31301 0.61188 0.0
H49 H 0.82808 0.27017 0.58786 0.0
C50 C 0.86075 0.35042 0.89567 0.0
N51 N 0.87689 0.36174 0.83037 0.0
N52 N 0.87341 0.33718 0.79062 0.0
C53 C 0.85389 0.30907 0.82935 0.0
C54 C 0.84478 0.31611 0.8989 0.0
C55 C 0.86296 0.37215 0.95784 0.0
H56 H 0.88481 0.39662 0.95224 0.0
H57 H 0.8409 0.37455 0.9573 0.0
H58 H 0.86386 0.36136 1.01167 0.0
O59 O 0.95249 0.42019 0.79224 0.0
O60 O 0.95032 0.38016 0.7262 0.0
H61 H 0.86369 0.27071 0.80448 0.0
H62 H 0.82176 0.25687 0.82934 0.0
C63 C 0.84332 0.27585 0.79944 0.0
H64 H 0.83717 0.27494 0.74012 0.0
H65 H 0.94026 0.31715 0.72181 0.0
O66 O 0.89628 0.43299 0.83811 0.0
C67 C 0.96694 0.40658 0.7623 0.0
Co68 Co 0.50767 0.90037 0.32895 0.0
Co69 Co 0.56124 0.89612 0.25172 0.0
C70 C 0.49774 0.88145 0.16848 0.0
O71 O 0.48631 0.88528 0.22891 0.0
O72 O 0.52619 0.88433 0.16853 0.0
C73 C 0.47267 0.9293 0.3827 0.0
O74 O 0.48383 0.94728 0.32305 0.0
C75 C 0.59425 0.86705 0.17497 0.0
C76 C 0.64615 0.9028 0.19631 0.0
C77 C 0.62562 0.87339 0.16266 0.0
N78 N 0.5959 0.89146 0.21524 0.0
N79 N 0.62693 0.91282 0.22782 0.0
C80 C 0.56322 0.83877 0.14724 0.0
H81 H 0.54185 0.83819 0.17366 0.0
H82 H 0.56281 0.81554 0.15859 0.0
H83 H 0.56172 0.84093 0.08648 0.0
C84 C 0.51485 0.85323 0.44117 0.0
N85 N 0.52222 0.87179 0.3784 0.0
N86 N 0.54568 0.87015 0.34388 0.0
C87 C 0.55388 0.8506 0.38343 0.0
C88 C 0.53472 0.83865 0.44791 0.0
C89 C 0.49001 0.85064 0.49561 0.0
H90 H 0.48938 0.87373 0.497 0.0
H91 H 0.46561 0.83104 0.47779 0.0
H92 H 0.49525 0.8448 0.55162 0.0
O93 O 0.54328 0.94822 0.31839 0.0
O94 O 0.58356 0.94487 0.26793 0.0
H95 H 0.60252 0.86456 0.35115 0.0
H96 H 0.58112 0.82503 0.39557 0.0
C97 C 0.57862 0.842 0.35755 0.0
H98 H 0.57113 0.8301 0.30285 0.0
H99 H 0.63502 0.93418 0.25831 0.0
O100 O 0.47592 0.90426 0.38991 0.0
C101 C 0.57215 0.96222 0.29279 0.0
Co102 Co 0.64984 0.51582 0.83147 0.0
Co103 Co 0.6987 0.55964 0.72766 0.0
C104 C 0.64567 0.4929 0.67036 0.0
O105 O 0.63501 0.48791 0.73652 0.0
O106 O 0.67163 0.51998 0.65603 0.0
C107 C 0.63417 0.46394 0.91735 0.0
O108 O 0.6525 0.4602 0.86851 0.0
C109 C 0.74327 0.59547 0.60887 0.0
C110 C 0.78602 0.63113 0.67261 0.0
C111 C 0.77619 0.61812 0.60252 0.0
N112 N 0.73503 0.59346 0.67992 0.0
N113 N 0.76007 0.61612 0.71716 0.0
C114 C 0.71899 0.57888 0.54816 0.0
H115 H 0.6975 0.58192 0.55759 0.0
H116 H 0.71017 0.55243 0.54936 0.0
H117 H 0.72968 0.58903 0.4933 0.0
C118 C 0.71152 0.5333 0.92939 0.0
N119 N 0.69588 0.5341 0.86626 0.0
N120 N 0.71772 0.54878 0.81485 0.0
C121 C 0.74736 0.55471 0.8421 0.0
C122 C 0.74473 0.54494 0.91681 0.0
C123 C 0.69775 0.52945 1.00482 0.0
H124 H 0.67483 0.53028 1.00253 0.0
H125 H 0.69453 0.50668 0.0298 0.0
H126 H 0.71526 0.54966 0.0407 0.0
O127 O 0.63391 0.54815 0.8276 0.0
O128 O 0.67174 0.5823 0.75161 0.0
H129 H 0.79371 0.5942 0.81053 0.0
H130 H 0.7914 0.5553 0.81186 0.0
C131 C 0.77778 0.56802 0.7973 0.0
H132 H 0.772 0.56514 0.73741 0.0
H133 H 0.76011 0.61961 0.77405 0.0
O134 O 0.62522 0.48467 0.90499 0.0
C135 C 0.64636 0.57447 0.79041 0.0
Co136 Co 0.17285 0.64091 0.31355 0.0
Co137 Co 0.18439 0.6891 0.19983 0.0
C138 C 0.18981 0.6311 0.15345 0.0
O139 O 0.18211 0.62163 0.22029 0.0
O140 O 0.19357 0.6589 0.1347 0.0
C141 C 0.2019 0.62041 0.41245 0.0
O142 O 0.22696 0.63645 0.36841 0.0
C143 C 0.18965 0.73064 0.07459 0.0
C144 C 0.19785 0.77498 0.13306 0.0
C145 C 0.19573 0.76237 0.06278 0.0
N146 N 0.18954 0.72577 0.14756 0.0
N147 N 0.19326 0.75189 0.18221 0.0
C148 C 0.1809 0.70397 1.01951 0.0
H149 H 0.1636 0.68008 0.04451 0.0
H150 H 0.20313 0.7032 1.00375 0.0
H151 H 0.16949 0.70774 0.96964 0.0
C152 C 0.22334 0.7016 0.40236 0.0
N153 N 0.20522 0.68612 0.34125 0.0
N154 N 0.21445 0.70697 0.28676 0.0
C155 C 0.24096 0.73551 0.31014 0.0
C156 C 0.24816 0.73318 0.38508 0.0
C157 C 0.21231 0.69059 0.47944 0.0
H158 H 0.1865 0.67112 0.47923 0.0
H159 H 0.22806 0.68243 0.50585 0.0
H160 H 0.21459 0.71126 0.51296 0.0
O161 O 0.12688 0.63192 0.31296 0.0
O162 O 0.13435 0.66471 0.21986 0.0
H163 H 0.25284 0.78303 0.27335 0.0
H164 H 0.28641 0.77559 0.27369 0.0
C165 C 0.26 0.76446 0.2616 0.0
H166 H 0.25526 0.75742 0.20251 0.0
H167 H 0.19325 0.75414 0.23951 0.0
O168 O 0.17416 0.61491 0.39164 0.0
C169 C 0.11517 0.64327 0.26605 0.0
Co170 Co 0.55417 0.15774 0.80691 0.0
Co171 Co 0.50496 0.16051 0.71581 0.0
C172 C 0.56921 0.17599 0.64443 0.0
O173 O 0.57538 0.16998 0.70862 0.0
O174 O 0.54199 0.17523 0.63407 0.0
C175 C 0.61941 0.18784 0.84931 0.0
O176 O 0.62466 0.21089 0.80162 0.0
C177 C 0.46537 0.17724 0.62241 0.0
C178 C 0.41621 0.14601 0.66932 0.0
C179 C 0.43309 0.16901 0.61551 0.0
N180 N 0.46756 0.15944 0.67707 0.0
N181 N 0.43813 0.14059 0.70459 0.0
C182 C 0.4941 0.20376 0.58283 0.0
H183 H 0.5161 0.21363 0.6184 0.0
H184 H 0.48952 0.22374 0.56647 0.0
H185 H 0.49863 0.19351 0.53212 0.0
C186 C 0.54188 0.20119 0.91392 0.0
N187 N 0.53729 0.18442 0.84972 0.0
N188 N 0.51627 0.18754 0.80858 0.0
C189 C 0.50742 0.2073 0.84552 0.0
C190 C 0.52373 0.21748 0.9148 0.0
C191 C 0.56189 0.19985 0.97587 0.0
H192 H 0.5603 0.17566 0.9777 0.0
H193 H 0.58735 0.21841 0.96482 0.0
H194 H 0.55434 0.20512 0.02968 0.0
O195 O 0.52366 0.10948 0.80622 0.0
O196 O 0.48737 0.11139 0.73358 0.0
H197 H 0.45874 0.19641 0.82415 0.0
H198 H 0.48681 0.23897 0.84198 0.0
C199 C 0.48391 0.21668 0.81483 0.0
H200 H 0.48751 0.2207 0.7544 0.0
H201 H 0.43317 0.12463 0.74882 0.0
O202 O 0.59066 0.1649 0.86204 0.0
C203 C 0.49736 0.09472 0.76929 0.0
Co204 Co 0.51572 0.65312 0.76052 0.0
Co205 Co 0.56437 0.70207 0.85542 0.0
C206 C 0.50035 0.64781 0.92237 0.0
O207 O 0.4924 0.63894 0.85607 0.0
O208 O 0.5282 0.67318 0.93468 0.0
C209 C 0.45393 0.62434 0.69522 0.0
O210 O 0.44743 0.64343 0.7355 0.0
C211 C 0.5971 0.75462 0.96022 0.0
C212 C 0.64852 0.77743 0.92452 0.0
C213 C 0.62816 0.77966 0.9758 0.0
N214 N 0.59893 0.73788 0.90298 0.0
N215 N 0.62969 0.75136 0.882 0.0
C216 C 0.56573 0.74854 0.99391 0.0
H217 H 0.54536 0.73564 0.95419 0.0
H218 H 0.56725 0.77179 1.01087 0.0
H219 H 0.5607 0.73305 0.04369 0.0
C220 C 0.52372 0.71116 0.66712 0.0
N221 N 0.53007 0.69737 0.72648 0.0
N222 N 0.55059 0.7203 0.77061 0.0
C223 C 0.55718 0.74974 0.74107 0.0
C224 C 0.53988 0.74534 0.67371 0.0
C225 C 0.50532 0.69224 0.60055 0.0
H226 H 0.50777 0.67027 0.59373 0.0
H227 H 0.47932 0.68445 0.60784 0.0
H228 H 0.51411 0.70745 0.54995 0.0
O229 O 0.54843 0.63735 0.75536 0.0
O230 O 0.58638 0.67562 0.82448 0.0
H231 H 0.60511 0.78775 0.76749 0.0
H232 H 0.57599 0.80147 0.75408 0.0
C233 C 0.57955 0.78169 0.7769 0.0
H234 H 0.57534 0.7798 0.83736 0.0
H235 H 0.63769 0.74318 0.83762 0.0
O236 O 0.4816 0.62633 0.69869 0.0
C237 C 0.57624 0.64962 0.78645 0.0
Co238 Co 0.9094 0.51615 0.21811 0.0
Co239 Co 0.9043 0.55913 0.325 0.0
C240 C 0.89347 0.49316 0.38014 0.0
O241 O 0.89897 0.48857 0.31347 0.0
O242 O 0.89306 0.51948 0.39517 0.0
C243 C 0.87922 0.4646 0.12366 0.0
O244 O 0.85389 0.45681 0.16599 0.0
C245 C 0.88361 0.5897 0.43375 0.0
C246 C 0.8945 0.63495 0.37467 0.0
C247 C 0.87773 0.61564 0.43433 0.0
N248 N 0.90125 0.59254 0.37395 0.0
N249 N 0.90892 0.62029 0.34049 0.0
C250 C 0.87222 0.56216 0.48767 0.0
H251 H 0.89333 0.55967 0.50528 0.0
H252 H 0.85454 0.53902 0.46036 0.0
H253 H 0.86099 0.56633 0.53711 0.0
C254 C 0.86145 0.53062 0.12462 0.0
N255 N 0.87931 0.53211 0.18591 0.0
N256 N 0.87456 0.54895 0.23672 0.0
C257 C 0.85188 0.55659 0.21011 0.0
C258 C 0.84225 0.54491 0.13741 0.0
C259 C 0.8667 0.52178 0.04938 0.0
H260 H 0.89186 0.52643 0.04559 0.0
H261 H 0.84827 0.49612 0.03815 0.0
H262 H 0.86337 0.53684 1.00691 0.0
O263 O 0.95677 0.55088 0.21654 0.0
O264 O 0.95379 0.58158 0.30346 0.0
H265 H 0.85507 0.60134 0.24218 0.0
H266 H 0.81414 0.5678 0.23457 0.0
C267 C 0.83924 0.57488 0.25256 0.0
H268 H 0.83946 0.57006 0.31216 0.0
H269 H 0.9214 0.62766 0.29044 0.0
O270 O 0.90689 0.48678 0.14443 0.0
C271 C 0.9709 0.57562 0.25848 0.0
Co272 Co 0.43596 0.88814 0.72385 0.0
Co273 Co 0.37788 0.88585 0.79791 0.0
C274 C 0.42756 0.8752 0.88798 0.0
O275 O 0.44145 0.8766 0.8272 0.0
O276 O 0.40213 0.87824 0.887 0.0
C277 C 0.49527 0.90934 0.63899 0.0
O278 O 0.52223 0.90866 0.62642 0.0
C279 C 0.31468 0.85346 0.86729 0.0
C280 C 0.29382 0.88446 0.83536 0.0
C281 C 0.2864 0.85531 0.86908 0.0
N282 N 0.33743 0.87963 0.83147 0.0
N283 N 0.32509 0.89837 0.81334 0.0
C284 C 0.32016 0.82719 0.89847 0.0
H285 H 0.34588 0.83718 0.91477 0.0
H286 H 0.31437 0.80826 0.85586 0.0
H287 H 0.30456 0.81566 0.94744 0.0
C288 C 0.38155 0.8371 0.61726 0.0
N289 N 0.39282 0.85713 0.67779 0.0
N290 N 0.36805 0.85767 0.70886 0.0
C291 C 0.34069 0.83889 0.66763 0.0
C292 C 0.34774 0.82467 0.60746 0.0
C293 C 0.40316 0.83191 0.56567 0.0
H294 H 0.40423 0.84374 0.51194 0.0
H295 H 0.4281 0.84236 0.58875 0.0
H296 H 0.39306 0.80555 0.55508 0.0
O297 O 0.44753 0.93645 0.72626 0.0
O298 O 0.40338 0.93367 0.77353 0.0
H299 H 0.31 0.85872 0.69356 0.0
H300 H 0.29007 0.8217 0.63988 0.0
C301 C 0.30789 0.83459 0.68468 0.0
H302 H 0.29846 0.81999 0.73573 0.0
H303 H 0.33758 0.92001 0.78342 0.0
O304 O 0.47408 0.88775 0.68106 0.0
C305 C 0.43196 0.95062 0.74745 0.0
Co306 Co 0.55451 0.39791 0.26323 0.0
Co307 Co 0.50186 0.3481 0.34892 0.0
C308 C 0.56521 0.39959 0.42791 0.0
O309 O 0.57528 0.40927 0.36297 0.0
O310 O 0.53653 0.37465 0.43522 0.0
C311 C 0.61813 0.42582 0.20694 0.0
O312 O 0.62248 0.40482 0.24579 0.0
C313 C 0.4639 0.28892 0.43285 0.0
C314 C 0.41327 0.27642 0.40667 0.0
C315 C 0.43171 0.26596 0.44454 0.0
N316 N 0.4648 0.31223 0.38965 0.0
N317 N 0.43453 0.30484 0.3744 0.0
C318 C 0.49337 0.28839 0.46104 0.0
H319 H 0.51589 0.30859 0.4367 0.0
H320 H 0.49169 0.26473 0.44766 0.0
H321 H 0.49437 0.29075 0.52209 0.0
C322 C 0.54324 0.34189 0.15923 0.0
N323 N 0.5381 0.35434 0.2224 0.0
N324 N 0.51531 0.33077 0.26132 0.0
C325 C 0.50585 0.30206 0.22409 0.0
C326 C 0.52363 0.30765 0.15709 0.0
C327 C 0.56374 0.3628 0.09705 0.0
H328 H 0.56325 0.38597 0.09518 0.0
H329 H 0.58912 0.36854 0.10626 0.0
H330 H 0.55527 0.35005 0.04327 0.0
O331 O 0.52361 0.41557 0.25454 0.0
O332 O 0.48302 0.37686 0.31723 0.0
H333 H 0.45677 0.26983 0.25731 0.0
H334 H 0.47657 0.24953 0.21509 0.0
C335 C 0.48002 0.26967 0.25198 0.0
H336 H 0.48692 0.26546 0.30773 0.0
H337 H 0.42833 0.31877 0.34044 0.0
O338 O 0.59096 0.42502 0.20747 0.0
C339 C 0.49512 0.40363 0.28161 0.0
Co340 Co 0.17592 0.53206 0.75204 0.0
Co341 Co 0.1731 0.47855 0.83794 0.0
C342 C 0.18847 0.54249 0.91575 0.0
O343 O 0.18704 0.55223 0.85146 0.0
O344 O 0.18436 0.51367 0.92298 0.0
C345 C 0.2124 0.59586 0.70279 0.0
O346 O 0.23619 0.59776 0.74391 0.0
C347 C 0.19341 0.44166 0.92828 0.0
C348 C 0.16232 0.39126 0.88766 0.0
C349 C 0.1873 0.4101 0.93607 0.0
N350 N 0.17272 0.44167 0.87807 0.0
N351 N 0.15384 0.41148 0.85449 0.0
C352 C 0.22032 0.47187 0.96282 0.0
H353 H 0.22946 0.49244 0.92309 0.0
H354 H 0.24064 0.46823 0.98134 0.0
H355 H 0.21056 0.47833 1.01158 0.0
C356 C 0.22024 0.52011 0.64838 0.0
N357 N 0.20222 0.51492 0.71074 0.0
N358 N 0.20236 0.49162 0.74951 0.0
C359 C 0.22107 0.48154 0.71277 0.0
C360 C 0.23344 0.49933 0.64628 0.0
C361 C 0.22317 0.54308 0.58823 0.0
H362 H 0.20176 0.54664 0.58761 0.0
H363 H 0.24551 0.5668 0.59788 0.0
H364 H 0.22546 0.53382 0.53359 0.0
O365 O 0.12738 0.50161 0.74598 0.0
O366 O 0.12543 0.46083 0.80922 0.0
H367 H 0.20526 0.43178 0.73784 0.0
H368 H 0.24759 0.45528 0.71058 0.0
C369 C 0.22777 0.45588 0.74175 0.0
H370 H 0.23472 0.46071 0.8008 0.0
H371 H 0.13613 0.40492 0.81346 0.0
O372 O 0.18559 0.5693 0.69776 0.0
C373 C 0.11087 0.4732 0.77375 0.0
Co374 Co 0.66111 0.17329 0.23926 0.0
Co375 Co 0.70908 0.16753 0.33264 0.0
C376 C 0.65871 0.18394 0.4012 0.0
O377 O 0.64936 0.1846 0.33584 0.0
O378 O 0.68275 0.17881 0.41073 0.0
C379 C 0.6166 0.16383 0.12926 0.0
O380 O 0.60243 0.13285 0.1471 0.0
C381 C 0.76162 0.18054 0.43515 0.0
C382 C 0.77806 0.1472 0.39328 0.0
C383 C 0.78411 0.17043 0.4465 0.0
N384 N 0.74265 0.16367 0.3784 0.0
N385 N 0.75224 0.14347 0.35407 0.0
C386 C 0.7604 0.2082 0.47197 0.0
H387 H 0.74681 0.21681 0.43733 0.0
H388 H 0.78538 0.22867 0.48254 0.0
H389 H 0.74787 0.19977 0.52591 0.0
C390 C 0.72189 0.21803 0.1449 0.0
N391 N 0.70686 0.19903 0.20507 0.0
N392 N 0.72881 0.19737 0.24591 0.0
C393 C 0.75861 0.21568 0.21242 0.0
C394 C 0.7556 0.22995 0.14574 0.0
C395 C 0.70379 0.22192 0.08262 0.0
H396 H 0.68559 0.19727 0.06431 0.0
H397 H 0.69183 0.23536 0.1029 0.0
H398 H 0.71928 0.23477 0.03452 0.0
O399 O 0.64155 0.12375 0.23886 0.0
O400 O 0.6787 0.12031 0.30491 0.0
H401 H 0.79103 0.19756 0.23363 0.0
H402 H 0.81111 0.24116 0.21933 0.0
C403 C 0.78963 0.21991 0.24426 0.0
H404 H 0.78987 0.22317 0.30494 0.0
H405 H 0.74182 0.12789 0.30905 0.0
O406 O 0.63717 0.18474 0.17274 0.0
C407 C 0.65181 0.10634 0.26993 0.0
C408 C 0.46798 0.60623 0.11318 0.0
C409 C 0.43722 0.57846 0.09731 0.0
C410 C 0.4876 0.62908 0.0581 0.0
C411 C 0.47768 0.62573 0.9835 0.0
H412 H 0.47759 0.6101 0.16888 0.0
H413 H 0.5112 0.64907 0.07402 0.0
S414 S 0.39818 0.55905 0.91209 0.0
N415 N 0.39742 0.55041 1.00066 0.0
N416 N 0.43328 0.5927 0.8984 0.0
C417 C 0.4464 0.59866 0.96738 0.0
C418 C 0.42658 0.57535 1.02347 0.0
C419 C 0.89494 0.42076 0.48314 0.0
C420 C 0.88738 0.42342 0.55749 0.0
C421 C 0.89601 0.44253 0.42668 0.0
C422 C 0.88963 0.46843 0.44069 0.0
H423 H 0.90115 0.40235 0.46862 0.0
H424 H 0.90276 0.43941 0.3715 0.0
S425 S 0.86567 0.48478 0.62414 0.0
N426 N 0.8712 0.4535 0.63965 0.0
N427 N 0.87337 0.49344 0.53563 0.0
C428 C 0.88098 0.47056 0.51421 0.0
C429 C 0.87982 0.4485 0.57147 0.0
C430 C 0.44996 0.87918 0.09602 0.0
C431 C 0.4785 0.87649 0.09697 0.0
C432 C 0.43306 0.87761 0.02966 0.0
C433 C 0.44357 0.87316 0.95992 0.0
H434 H 0.44087 0.88343 0.14714 0.0
H435 H 0.412 0.88079 0.03309 0.0
S436 S 0.51546 0.86215 0.93074 0.0
N437 N 0.51524 0.86736 1.02077 0.0
N438 N 0.484 0.86419 0.89771 0.0
C439 C 0.47148 0.86931 0.96039 0.0
C440 C 0.4887 0.87102 0.02796 0.0
C441 C 0.57441 0.41963 0.56439 0.0
C442 C 0.58674 0.42057 0.49273 0.0
C443 C 0.59359 0.44225 0.62101 0.0
C444 C 0.62633 0.46747 0.60981 0.0
H445 H 0.54932 0.40187 0.57646 0.0
H446 H 0.58217 0.44038 0.67388 0.0
S447 S 0.67199 0.47928 0.43515 0.0
N448 N 0.63547 0.44828 0.41682 0.0
N449 N 0.67045 0.48979 0.52124 0.0
C450 C 0.63922 0.46792 0.53931 0.0
C451 C 0.61987 0.44493 0.48187 0.0
C452 C 0.19856 0.61818 1.02116 0.0
C453 C 0.1923 0.60868 0.09597 0.0
C454 C 0.19851 0.59716 0.96542 0.0
C455 C 0.19217 0.56504 0.98025 0.0
H456 H 0.20293 0.64204 1.00473 0.0
H457 H 0.20286 0.60621 0.90924 0.0
S458 S 0.17591 0.52795 0.16737 0.0
N459 N 0.18086 0.5646 0.18193 0.0
N460 N 0.18066 0.52552 0.07769 0.0
C461 C 0.18682 0.55543 0.05513 0.0
C462 C 0.18687 0.57696 0.11236 0.0
C463 C 0.60908 0.18622 0.45079 0.0
C464 C 0.63828 0.18545 0.46495 0.0
C465 C 0.58749 0.18418 0.50785 0.0
C466 C 0.59371 0.18131 0.58296 0.0
H467 H 0.60218 0.18757 0.39439 0.0
H468 H 0.56533 0.1841 0.49255 0.0
S469 S 0.66757 0.17999 0.65189 0.0
N470 N 0.67244 0.18292 0.56149 0.0
N471 N 0.63289 0.1792 0.66755 0.0
C472 C 0.62338 0.18147 0.59796 0.0
C473 C 0.64524 0.1835 0.53978 0.0
C474 C 0.63504 0.46989 0.12265 0.0
C475 C 0.63913 0.44393 0.14575 0.0
C476 C 0.62925 0.4728 0.04908 0.0
C477 C 0.63479 0.45503 0.9945 0.0
H478 H 0.62967 0.48366 0.16248 0.0
H479 H 0.62162 0.49026 0.03524 0.0
S480 S 0.65975 0.39323 0.02723 0.0
N481 N 0.65495 0.40423 0.11073 0.0
N482 N 0.6521 0.41543 0.96867 0.0
C483 C 0.64531 0.43326 1.0166 0.0
C484 C 0.64728 0.42751 0.09315 0.0
C485 C 0.23766 0.62536 0.5184 0.0
C486 C 0.20716 0.61923 0.49188 0.0
C487 C 0.24318 0.62527 0.59426 0.0
C488 C 0.21827 0.6191 0.64442 0.0
H489 H 0.25672 0.62867 0.48052 0.0
H490 H 0.26522 0.62581 0.61274 0.0
S491 S 0.13828 0.61153 0.60591 0.0
N492 N 0.15373 0.61207 0.52413 0.0
N493 N 0.16664 0.61644 0.66584 0.0
C494 C 0.19051 0.61937 0.61943 0.0
C495 C 0.18363 0.61681 0.54313 0.0
C496 C 0.62739 0.15281 1.00306 0.0
C497 C 0.62269 0.17318 0.05194 0.0
C498 C 0.63968 0.16368 0.93242 0.0
C499 C 0.64286 0.19308 0.90644 0.0
H500 H 0.62222 0.1287 1.01972 0.0
H501 H 0.63977 0.14626 0.89378 0.0
S502 S 0.65047 0.26076 1.0214 0.0
N503 N 0.63429 0.22867 0.07662 0.0
N504 N 0.65605 0.24768 0.94123 0.0
C505 C 0.64561 0.21603 0.9583 0.0
C506 C 0.63349 0.20561 0.03059 0.0
C507 C 0.44106 0.58315 0.60466 0.0
C508 C 0.43489 0.60733 0.63066 0.0
C509 C 0.44482 0.58037 0.5302 0.0
C510 C 0.4363 0.59694 0.47807 0.0
H511 H 0.44839 0.57009 0.64233 0.0
H512 H 0.45316 0.56374 0.51394 0.0
S513 S 0.40728 0.65485 0.51974 0.0
N514 N 0.41514 0.64465 0.60142 0.0
N515 N 0.41533 0.63409 0.45825 0.0
C516 C 0.42492 0.61751 0.50354 0.0
C517 C 0.42444 0.62294 0.58073 0.0
C518 C 0.84383 0.43507 1.01655 0.0
C519 C 0.87459 0.4582 0.04417 0.0
C520 C 0.83832 0.43096 0.94044 0.0
C521 C 0.86352 0.44999 0.89114 0.0
H522 H 0.8244 0.41932 0.05369 0.0
H523 H 0.81602 0.41016 0.92077 0.0
S524 S 0.94471 0.51955 0.93311 0.0
N525 N 0.92913 0.50314 1.01385 0.0
N526 N 0.91579 0.49838 0.8724 0.0
C527 C 0.89162 0.47706 0.91775 0.0
C528 C 0.89873 0.47931 0.99386 0.0
C529 C 0.4476 0.92558 0.5007 0.0
C530 C 0.47296 0.94493 0.45231 0.0
C531 C 0.45486 0.91808 0.57029 0.0
C532 C 0.48729 0.93011 0.59254 0.0
H533 H 0.42298 0.91103 0.47984 0.0
H534 H 0.43532 0.89926 0.60107 0.0
S535 S 0.5599 0.99642 0.5008 0.0
N536 N 0.52956 0.9874 0.44284 0.0
N537 N 0.54351 0.97247 0.57324 0.0
C538 C 0.51168 0.95627 0.55259 0.0
C539 C 0.50411 0.96453 0.48259 0.0
C540 C 0.20503 0.3958 0.05128 0.0
C541 C 0.20844 0.40077 0.97474 0.0
C542 C 0.23068 0.39783 0.09372 0.0
C543 C 0.2604 0.40555 0.06043 0.0
H544 H 0.18349 0.3929 0.07896 0.0
H545 H 0.22828 0.3962 0.1533 0.0
S546 S 0.2799 0.41741 0.86125 0.0
N547 N 0.24212 0.41038 0.86647 0.0
N548 N 0.29091 0.41522 0.9468 0.0
C549 C 0.26318 0.40819 0.9835 0.0
C550 C 0.23692 0.40551 0.9403 0.0
C551 C 0.83427 0.21439 0.61052 0.0
C552 C 0.86425 0.23547 0.57719 0.0
C553 C 0.80877 0.19039 0.56896 0.0
C554 C 0.81291 0.18686 0.49354 0.0
H555 H 0.8296 0.21852 0.6669 0.0
H556 H 0.785 0.17643 0.59423 0.0
S557 S 0.88827 0.23324 0.3843 0.0
N558 N 0.898 0.24933 0.46784 0.0
N559 N 0.84999 0.2036 0.38931 0.0
C560 C 0.84378 0.20552 0.46178 0.0
C561 C 0.86963 0.23016 0.50396 0.0
C562 C 0.62428 0.82105 0.14759 0.0
C563 C 0.6349 0.85274 0.12195 0.0
C564 C 0.62508 0.79789 0.10151 0.0
C565 C 0.63649 0.80594 0.0288 0.0
H566 H 0.61333 0.8136 0.20174 0.0
H567 H 0.61466 0.77303 0.12105 0.0
S568 S 0.6708 0.88686 0.93966 0.0
N569 N 0.6603 0.89216 1.02321 0.0
N570 N 0.6618 0.84837 0.9358 0.0
C571 C 0.64997 0.83832 1.00498 0.0
C572 C 0.64913 0.86191 0.05199 0.0
C573 C 0.82989 0.64664 0.53958 0.0
C574 C 0.79936 0.61828 0.54806 0.0
C575 C 0.85518 0.64586 0.50147 0.0
C576 C 0.85063 0.61668 0.47086 0.0
H577 H 0.83467 0.66926 0.5653 0.0
H578 H 0.87868 0.66789 0.49802 0.0
S579 S 0.7746 0.53641 0.47007 0.0
N580 N 0.76634 0.56021 0.52074 0.0
N581 N 0.81221 0.56004 0.4416 0.0
C582 C 0.81962 0.58882 0.47405 0.0
C583 C 0.79435 0.58925 0.51477 0.0
C584 C 0.22204 0.77435 0.93785 0.0
C585 C 0.20822 0.78317 0.9958 0.0
C586 C 0.24446 0.79773 0.88984 0.0
C587 C 0.25496 0.83085 0.90011 0.0
H588 H 0.2186 0.75022 0.93268 0.0
H589 H 0.25594 0.79012 0.84895 0.0
S590 S 0.21856 0.8655 0.02554 0.0
N591 N 0.19979 0.82626 0.04578 0.0
N592 N 0.24432 0.87066 0.95865 0.0
C593 C 0.23789 0.83952 0.94941 0.0
C594 C 0.21402 0.81549 0.99685 0.0
C595 C 0.42591 0.18705 0.49293 0.0
C596 C 0.421 0.18603 0.56944 0.0
C597 C 0.42544 0.21134 0.45008 0.0
C598 C 0.42023 0.23513 0.48304 0.0
H599 H 0.43298 0.17083 0.46736 0.0
H600 H 0.43221 0.21336 0.39237 0.0
S601 S 0.40226 0.24042 0.67936 0.0
N602 N 0.40729 0.20833 0.67515 0.0
N603 N 0.40676 0.25447 0.59404 0.0
C604 C 0.41221 0.2325 0.55798 0.0
C605 C 0.41247 0.20764 0.60158 0.0
C606 C 0.79929 0.57414 0.99279 0.0
C607 C 0.77019 0.54532 0.9723 0.0
C608 C 0.82169 0.57436 0.04715 0.0
C609 C 0.81683 0.54566 0.08375 0.0
H610 H 0.80468 0.597 0.96728 0.0
H611 H 0.84339 0.59726 0.05963 0.0
S612 S 0.74573 0.46333 0.04937 0.0
N613 N 0.73879 0.48709 0.99432 0.0
N614 N 0.78043 0.48738 0.09217 0.0
C615 C 0.78816 0.51677 0.06275 0.0
C616 C 0.76516 0.51664 1.00884 0.0
C617 C 0.28296 0.79026 0.44681 0.0
C618 C 0.27554 0.75752 0.43737 0.0
C619 C 0.30632 0.81167 0.50003 0.0
C620 C 0.32417 0.80197 0.5468 0.0
H621 H 0.2699 0.79927 0.41425 0.0
H622 H 0.31022 0.83615 0.50506 0.0
S623 S 0.31588 0.71963 0.54271 0.0
N624 N 0.29011 0.71755 0.47842 0.0
N625 N 0.33252 0.75679 0.57737 0.0
C626 C 0.31754 0.76962 0.53652 0.0
C627 C 0.29378 0.74785 0.48268 0.0
C628 C 0.49413 0.25883 0.06307 0.0
C629 C 0.52314 0.28384 0.09635 0.0
C630 C 0.49424 0.23816 1.00476 0.0
C631 C 0.52335 0.24082 0.97556 0.0
H632 H 0.4709 0.25541 0.08136 0.0
H633 H 0.47107 0.21956 0.98292 0.0
S634 S 0.60623 0.30268 0.03988 0.0
N635 N 0.58195 0.3092 0.09338 0.0
N636 N 0.58221 0.27251 0.98439 0.0
C637 C 0.55237 0.26597 1.00784 0.0
C638 C 0.55224 0.28671 0.06725 0.0
C639 C 0.30466 0.52653 0.50495 0.0
C640 C 0.29885 0.49781 0.46747 0.0
C641 C 0.28381 0.5266 0.56155 0.0
C642 C 0.25587 0.49786 0.58612 0.0
H643 H 0.32569 0.54957 0.49001 0.0
H644 H 0.28997 0.54965 0.58703 0.0
S645 S 0.22883 0.41554 0.50804 0.0
N646 N 0.26225 0.43938 0.46092 0.0
N647 N 0.22358 0.43948 0.56596 0.0
C648 C 0.2497 0.46887 0.54936 0.0
C649 C 0.27082 0.46886 0.49081 0.0
C650 C 0.7802 0.28035 0.05896 0.0
C651 C 0.78075 0.2525 0.08652 0.0
C652 C 0.80031 0.2999 0.99952 0.0
C653 C 0.82304 0.29356 0.96288 0.0
H654 H 0.76345 0.28702 0.08309 0.0
H655 H 0.79741 0.32009 0.98128 0.0
S656 S 0.83684 0.22515 1.01518 0.0
N657 N 0.80753 0.22053 0.07174 0.0
N658 N 0.84586 0.25756 0.96422 0.0
C659 C 0.82463 0.26631 0.9912 0.0
C660 C 0.80376 0.24608 0.05158 0.0
C661 C 0.56515 0.82039 0.5405 0.0
C662 C 0.53553 0.81554 0.5086 0.0
C663 C 0.56649 0.79863 0.594 0.0
C664 C 0.5383 0.77031 0.61976 0.0
H665 H 0.58785 0.84142 0.52387 0.0
H666 H 0.59013 0.8038 0.61421 0.0
S667 S 0.45403 0.74664 0.55949 0.0
N668 N 0.477 0.77974 0.51056 0.0
N669 N 0.47928 0.7405 0.6111 0.0
C670 C 0.5085 0.76574 0.58996 0.0
C671 C 0.50717 0.78775 0.53524 0.0
C672 C 0.42536 0.42359 0.2758 0.0
C673 C 0.44173 0.45798 0.27808 0.0
C674 C 0.44256 0.40617 0.27674 0.0
C675 C 0.47698 0.42232 0.27722 0.0
H676 H 0.39899 0.40998 0.275 0.0
H677 H 0.42876 0.37979 0.27671 0.0
S678 S 0.53156 0.51215 0.28024 0.0
N679 N 0.49457 0.50736 0.27999 0.0
N680 N 0.52655 0.47505 0.2788 0.0
C681 C 0.49353 0.45669 0.27768 0.0
C682 C 0.47607 0.47433 0.27887 0.0
C683 C 0.05726 0.47291 0.76823 0.0
C684 C 0.07418 0.45538 0.76917 0.0
C685 C 1.02287 0.45699 0.76762 0.0
C686 C 1.00357 0.4227 0.76581 0.0
H687 H 0.07072 0.4993 0.76942 0.0
H688 H 1.01131 0.47179 0.76736 0.0
S689 S 1.03546 0.36516 0.76621 0.0
N690 N 0.06856 0.40148 0.76867 0.0
N691 N 1.00435 0.37177 0.76445 0.0
C692 C 1.02014 0.40485 0.76567 0.0
C693 C 0.0552 0.42107 0.76825 0.0
C694 C 0.64539 0.04982 0.28418 0.0
C695 C 0.63114 0.06951 0.27183 0.0
C696 C 0.62637 1.01546 0.2906 0.0
C697 C 0.59201 0.999 0.28734 0.0
H698 H 0.67161 0.06104 0.28873 0.0
H699 H 0.63875 1.00169 0.29926 0.0
S700 S 0.54223 0.03871 0.25607 0.0
N701 N 0.58008 0.06933 0.25608 0.0
N702 N 0.54473 1.00552 0.26961 0.0
C703 C 0.57746 1.0184 0.27529 0.0
C704 C 0.59683 0.05328 0.26714 0.0
C705 C 0.57854 0.5971 0.78588 0.0
C706 C 0.5952 0.63153 0.78465 0.0
C707 C 0.59523 0.57924 0.78892 0.0
C708 C 0.62958 0.59469 0.78848 0.0
H709 H 0.55217 0.58368 0.78632 0.0
H710 H 0.58094 0.55289 0.79064 0.0
S711 S 0.68521 0.6843 0.78379 0.0
N712 N 0.64851 0.68032 0.78366 0.0
N713 N 0.67963 0.64693 0.78537 0.0
C714 C 0.64661 0.62909 0.78572 0.0
C715 C 0.62957 0.64737 0.78499 0.0
C716 C 0.05986 0.62178 0.32752 0.0
C717 C 0.07864 0.62937 0.26239 0.0
C718 C 1.02535 0.60605 0.32563 0.0
C719 C 1.00773 0.59593 0.25861 0.0
H720 H 0.07196 0.62784 0.38075 0.0
H721 H 1.01232 0.60054 0.37747 0.0
S722 S 0.0448 0.60959 0.07213 0.0
N723 N 0.07649 0.62602 0.12854 0.0
N724 N 1.0122 0.5952 0.12518 0.0
C725 C 1.02621 0.60348 0.19312 0.0
C726 C 0.06136 0.62046 0.19494 0.0
C727 C 0.48211 1.00682 0.759 0.0
C728 C 0.44817 0.98742 0.74836 0.0
C729 C 0.49746 0.04109 0.76706 0.0
C730 C 0.47986 0.05795 0.763 0.0
H731 H 0.49695 0.99536 0.76312 0.0
H732 H 0.52356 0.05456 0.77572 0.0
S733 S 0.39061 1.0191 0.73292 0.0
N734 N 0.39752 0.98815 0.73342 0.0
N735 N 0.42639 0.05216 0.74547 0.0
C736 C 0.44603 0.03895 0.75058 0.0
C737 C 0.43026 1.00395 0.74419 0.0
loop_
_geom_bond_atom_site_label_1
_geom_bond_atom_site_label_2
_geom_bond_distance
_geom_bond_site_symmetry_2
_ccdc_geom_bond_type
Co0 O3 1.970 . S
Co0 N17 1.989 . S
Co0 O25 1.967 . S
Co0 O32 1.920 . S
Co1 O4 1.966 . S
Co1 N10 2.022 . S
Co1 N18 1.993 . S
Co1 O26 1.941 . S
C2 O3 1.258 . S
C2 O4 1.263 . S
O3 Co0 1.970 . S
O3 C2 1.258 . S
O4 Co1 1.966 . S
O4 C2 1.263 . S
C5 O6 1.235 . S
C5 O32 1.289 . S
O6 C5 1.235 . S
C7 C9 1.400 . S
C7 N10 1.351 . S
C7 C12 1.501 . S
C8 C9 1.387 . S
C8 N11 1.341 . S
C9 C7 1.400 . S
C9 C8 1.387 . S
N10 Co1 2.022 . S
N10 C7 1.351 . S
N10 N11 1.365 . S
N11 C8 1.341 . S
N11 N10 1.365 . S
N11 H31 0.862 . S
C12 C7 1.501 . S
C12 H13 0.961 . S
C12 H14 0.961 . S
C12 H15 0.960 1_554 S
H13 C12 0.961 . S
H14 C12 0.961 . S
H15 C12 0.960 1_556 S
C16 N17 1.342 . S
C16 C20 1.401 . S
C16 C21 1.499 . S
N17 Co0 1.989 . S
N17 C16 1.342 . S
N17 N18 1.388 . S
N18 Co1 1.993 . S
N18 N17 1.388 . S
N18 C19 1.346 . S
C19 N18 1.346 . S
C19 C20 1.396 . S
C19 C29 1.510 . S
C20 C16 1.401 . S
C20 C19 1.396 . S
C21 C16 1.499 . S
C21 H22 0.959 . S
C21 H23 0.960 . S
C21 H24 0.961 . S
H22 C21 0.959 . S
H23 C21 0.960 . S
H24 C21 0.961 . S
O25 Co0 1.967 . S
O25 C33 1.258 . S
O26 Co1 1.941 . S
O26 C33 1.266 . S
H27 C29 0.959 . S
H28 C29 0.961 . S
C29 C19 1.510 . S
C29 H27 0.959 . S
C29 H28 0.961 . S
C29 H30 0.960 . S
H30 C29 0.960 . S
H31 N11 0.862 . S
O32 Co0 1.920 . S
O32 C5 1.289 . S
C33 O25 1.258 . S
C33 O26 1.266 . S
Co34 O37 1.970 . S
Co34 N51 1.989 . S
Co34 O59 1.967 . S
Co34 O66 1.920 . S
Co35 O38 1.966 . S
Co35 N44 2.022 . S
Co35 N52 1.993 . S
Co35 O60 1.941 . S
C36 O37 1.258 . S
C36 O38 1.263 . S
O37 Co34 1.970 . S
O37 C36 1.258 . S
O38 Co35 1.966 . S
O38 C36 1.263 . S
C39 O40 1.235 . S
C39 O66 1.289 . S
O40 C39 1.235 . S
C41 C43 1.400 . S
C41 N44 1.351 . S
C41 C46 1.501 . S
C42 C43 1.387 . S
C42 N45 1.341 . S
C43 C41 1.400 . S
C43 C42 1.387 . S
N44 Co35 2.022 . S
N44 C41 1.351 . S
N44 N45 1.365 . S
N45 C42 1.341 . S
N45 N44 1.365 . S
N45 H65 0.862 . S
C46 C41 1.501 . S
C46 H47 0.961 . S
C46 H48 0.961 . S
C46 H49 0.960 . S
H47 C46 0.961 . S
H48 C46 0.961 . S
H49 C46 0.960 . S
C50 N51 1.342 . S
C50 C54 1.401 . S
C50 C55 1.499 . S
N51 Co34 1.989 . S
N51 C50 1.342 . S
N51 N52 1.388 . S
N52 Co35 1.993 . S
N52 N51 1.388 . S
N52 C53 1.346 . S
C53 N52 1.346 . S
C53 C54 1.396 . S
C53 C63 1.510 . S
C54 C50 1.401 . S
C54 C53 1.396 . S
C55 C50 1.499 . S
C55 H56 0.959 . S
C55 H57 0.960 . S
C55 H58 0.961 . S
H56 C55 0.959 . S
H57 C55 0.960 . S
H58 C55 0.961 . S
O59 Co34 1.967 . S
O59 C67 1.258 . S
O60 Co35 1.941 . S
O60 C67 1.266 . S
H61 C63 0.959 . S
H62 C63 0.961 . S
C63 C53 1.510 . S
C63 H61 0.959 . S
C63 H62 0.961 . S
C63 H64 0.960 . S
H64 C63 0.960 . S
H65 N45 0.862 . S
O66 Co34 1.920 . S
O66 C39 1.289 . S
C67 O59 1.258 . S
C67 O60 1.266 . S
Co68 O71 1.970 . S
Co68 N85 1.989 . S
Co68 O93 1.967 . S
Co68 O100 1.920 . S
Co69 O72 1.966 . S
Co69 N78 2.022 . S
Co69 N86 1.993 . S
Co69 O94 1.941 . S
C70 O71 1.258 . S
C70 O72 1.263 . S
O71 Co68 1.970 . S
O71 C70 1.258 . S
O72 Co69 1.966 . S
O72 C70 1.263 . S
C73 O74 1.235 . S
C73 O100 1.289 . S
O74 C73 1.235 . S
C75 C77 1.400 . S
C75 N78 1.351 . S
C75 C80 1.501 . S
C76 C77 1.387 . S
C76 N79 1.341 . S
C77 C75 1.400 . S
C77 C76 1.387 . S
N78 Co69 2.022 . S
N78 C75 1.351 . S
N78 N79 1.365 . S
N79 C76 1.341 . S
N79 N78 1.365 . S
N79 H99 0.862 . S
C80 C75 1.501 . S
C80 H81 0.961 . S
C80 H82 0.961 . S
C80 H83 0.960 1_554 S
H81 C80 0.961 . S
H82 C80 0.961 . S
H83 C80 0.960 1_556 S
C84 N85 1.342 . S
C84 C88 1.401 . S
C84 C89 1.499 . S
N85 Co68 1.989 . S
N85 C84 1.342 . S
N85 N86 1.388 . S
N86 Co69 1.993 . S
N86 N85 1.388 . S
N86 C87 1.346 . S
C87 N86 1.346 . S
C87 C88 1.396 . S
C87 C97 1.510 . S
C88 C84 1.401 . S
C88 C87 1.396 . S
C89 C84 1.499 . S
C89 H90 0.959 . S
C89 H91 0.960 . S
C89 H92 0.961 . S
H90 C89 0.959 . S
H91 C89 0.960 . S
H92 C89 0.961 . S
O93 Co68 1.967 . S
O93 C101 1.258 . S
O94 Co69 1.941 . S
O94 C101 1.266 . S
H95 C97 0.959 . S
H96 C97 0.961 . S
C97 C87 1.510 . S
C97 H95 0.959 . S
C97 H96 0.961 . S
C97 H98 0.960 . S
H98 C97 0.960 . S
H99 N79 0.862 . S
O100 Co68 1.920 . S
O100 C73 1.289 . S
C101 O93 1.258 . S
C101 O94 1.266 . S
Co102 O105 1.970 . S
Co102 N119 1.989 . S
Co102 O127 1.967 . S
Co102 O134 1.920 . S
Co103 O106 1.966 . S
Co103 N112 2.022 . S
Co103 N120 1.993 . S
Co103 O128 1.941 . S
C104 O105 1.258 . S
C104 O106 1.263 . S
O105 Co102 1.970 . S
O105 C104 1.258 . S
O106 Co103 1.966 . S
O106 C104 1.263 . S
C107 O108 1.235 . S
C107 O134 1.289 . S
O108 C107 1.235 . S
C109 C111 1.400 . S
C109 N112 1.351 . S
C109 C114 1.501 . S
C110 C111 1.387 . S
C110 N113 1.341 . S
C111 C109 1.400 . S
C111 C110 1.387 . S
N112 Co103 2.022 . S
N112 C109 1.351 . S
N112 N113 1.365 . S
N113 C110 1.341 . S
N113 N112 1.365 . S
N113 H133 0.862 . S
C114 C109 1.501 . S
C114 H115 0.961 . S
C114 H116 0.961 . S
C114 H117 0.960 . S
H115 C114 0.961 . S
H116 C114 0.961 . S
H117 C114 0.960 . S
C118 N119 1.342 . S
C118 C122 1.401 . S
C118 C123 1.499 . S
N119 Co102 1.989 . S
N119 C118 1.342 . S
N119 N120 1.388 . S
N120 Co103 1.993 . S
N120 N119 1.388 . S
N120 C121 1.346 . S
C121 N120 1.346 . S
C121 C122 1.396 . S
C121 C131 1.510 . S
C122 C118 1.401 . S
C122 C121 1.396 . S
C123 C118 1.499 . S
C123 H124 0.959 . S
C123 H125 0.960 . S
C123 H126 0.961 . S
H124 C123 0.959 . S
H125 C123 0.960 . S
H126 C123 0.961 . S
O127 Co102 1.967 . S
O127 C135 1.258 . S
O128 Co103 1.941 . S
O128 C135 1.266 . S
H129 C131 0.959 . S
H130 C131 0.961 . S
C131 C121 1.510 . S
C131 H129 0.959 . S
C131 H130 0.961 . S
C131 H132 0.960 . S
H132 C131 0.960 . S
H133 N113 0.862 . S
O134 Co102 1.920 . S
O134 C107 1.289 . S
C135 O127 1.258 . S
C135 O128 1.266 . S
Co136 O139 1.970 . S
Co136 N153 1.989 . S
Co136 O161 1.967 . S
Co136 O168 1.920 . S
Co137 O140 1.966 . S
Co137 N146 2.022 . S
Co137 N154 1.993 . S
Co137 O162 1.941 . S
C138 O139 1.258 . S
C138 O140 1.263 . S
O139 Co136 1.970 . S
O139 C138 1.258 . S
O140 Co137 1.966 . S
O140 C138 1.263 . S
C141 O142 1.235 . S
C141 O168 1.289 . S
O142 C141 1.235 . S
C143 C145 1.400 . S
C143 N146 1.351 . S
C143 C148 1.501 . S
C144 C145 1.387 . S
C144 N147 1.341 . S
C145 C143 1.400 . S
C145 C144 1.387 . S
N146 Co137 2.022 . S
N146 C143 1.351 . S
N146 N147 1.365 . S
N147 C144 1.341 . S
N147 N146 1.365 . S
N147 H167 0.862 . S
C148 C143 1.501 . S
C148 H149 0.961 . S
C148 H150 0.961 . S
C148 H151 0.960 1_554 S
H149 C148 0.961 . S
H150 C148 0.961 . S
H151 C148 0.960 1_556 S
C152 N153 1.342 . S
C152 C156 1.401 . S
C152 C157 1.499 . S
N153 Co136 1.989 . S
N153 C152 1.342 . S
N153 N154 1.388 . S
N154 Co137 1.993 . S
N154 N153 1.388 . S
N154 C155 1.346 . S
C155 N154 1.346 . S
C155 C156 1.396 . S
C155 C165 1.510 . S
C156 C152 1.401 . S
C156 C155 1.396 . S
C157 C152 1.499 . S
C157 H158 0.959 . S
C157 H159 0.960 . S
C157 H160 0.961 . S
H158 C157 0.959 . S
H159 C157 0.960 . S
H160 C157 0.961 . S
O161 Co136 1.967 . S
O161 C169 1.258 . S
O162 Co137 1.941 . S
O162 C169 1.266 . S
H163 C165 0.959 . S
H164 C165 0.961 . S
C165 C155 1.510 . S
C165 H163 0.959 . S
C165 H164 0.961 . S
C165 H166 0.960 . S
H166 C165 0.960 . S
H167 N147 0.862 . S
O168 Co136 1.920 . S
O168 C141 1.289 . S
C169 O161 1.258 . S
C169 O162 1.266 . S
Co170 O173 1.970 . S
Co170 N187 1.989 . S
Co170 O195 1.967 . S
Co170 O202 1.920 . S
Co171 O174 1.966 . S
Co171 N180 2.022 . S
Co171 N188 1.993 . S
Co171 O196 1.941 . S
C172 O173 1.258 . S
C172 O174 1.263 . S
O173 Co170 1.970 . S
O173 C172 1.258 . S
O174 Co171 1.966 . S
O174 C172 1.263 . S
C175 O176 1.235 . S
C175 O202 1.289 . S
O176 C175 1.235 . S
C177 C179 1.400 . S
C177 N180 1.351 . S
C177 C182 1.501 . S
C178 C179 1.387 . S
C178 N181 1.341 . S
C179 C177 1.400 . S
C179 C178 1.387 . S
N180 Co171 2.022 . S
N180 C177 1.351 . S
N180 N181 1.365 . S
N181 C178 1.341 . S
N181 N180 1.365 . S
N181 H201 0.862 . S
C182 C177 1.501 . S
C182 H183 0.961 . S
C182 H184 0.961 . S
C182 H185 0.960 . S
H183 C182 0.961 . S
H184 C182 0.961 . S
H185 C182 0.960 . S
C186 N187 1.342 . S
C186 C190 1.401 . S
C186 C191 1.499 . S
N187 Co170 1.989 . S
N187 C186 1.342 . S
N187 N188 1.388 . S
N188 Co171 1.993 . S
N188 N187 1.388 . S
N188 C189 1.346 . S
C189 N188 1.346 . S
C189 C190 1.396 . S
C189 C199 1.510 . S
C190 C186 1.401 . S
C190 C189 1.396 . S
C191 C186 1.499 . S
C191 H192 0.959 . S
C191 H193 0.960 . S
C191 H194 0.961 . S
H192 C191 0.959 . S
H193 C191 0.960 . S
H194 C191 0.961 . S
O195 Co170 1.967 . S
O195 C203 1.258 . S
O196 Co171 1.941 . S
O196 C203 1.266 . S
H197 C199 0.959 . S
H198 C199 0.961 . S
C199 C189 1.510 . S
C199 H197 0.959 . S
C199 H198 0.961 . S
C199 H200 0.960 . S
H200 C199 0.960 . S
H201 N181 0.862 . S
O202 Co170 1.920 . S
O202 C175 1.289 . S
C203 O195 1.258 . S
C203 O196 1.266 . S
Co204 O207 1.970 . S
Co204 N221 1.989 . S
Co204 O229 1.967 . S
Co204 O236 1.920 . S
Co205 O208 1.966 . S
Co205 N214 2.022 . S
Co205 N222 1.993 . S
Co205 O230 1.941 . S
C206 O207 1.258 . S
C206 O208 1.263 . S
O207 Co204 1.970 . S
O207 C206 1.258 . S
O208 Co205 1.966 . S
O208 C206 1.263 . S
C209 O210 1.235 . S
C209 O236 1.289 . S
O210 C209 1.235 . S
C211 C213 1.400 . S
C211 N214 1.351 . S
C211 C216 1.501 . S
C212 C213 1.387 . S
C212 N215 1.341 . S
C213 C211 1.400 . S
C213 C212 1.387 . S
N214 Co205 2.022 . S
N214 C211 1.351 . S
N214 N215 1.365 . S
N215 C212 1.341 . S
N215 N214 1.365 . S
N215 H235 0.862 . S
C216 C211 1.501 . S
C216 H217 0.961 . S
C216 H218 0.961 . S
C216 H219 0.960 1_556 S
H217 C216 0.961 . S
H218 C216 0.961 . S
H219 C216 0.960 1_554 S
C220 N221 1.342 . S
C220 C224 1.401 . S
C220 C225 1.499 . S
N221 Co204 1.989 . S
N221 C220 1.342 . S
N221 N222 1.388 . S
N222 Co205 1.993 . S
N222 N221 1.388 . S
N222 C223 1.346 . S
C223 N222 1.346 . S
C223 C224 1.396 . S
C223 C233 1.510 . S
C224 C220 1.401 . S
C224 C223 1.396 . S
C225 C220 1.499 . S
C225 H226 0.959 . S
C225 H227 0.960 . S
C225 H228 0.961 . S
H226 C225 0.959 . S
H227 C225 0.960 . S
H228 C225 0.961 . S
O229 Co204 1.967 . S
O229 C237 1.258 . S
O230 Co205 1.941 . S
O230 C237 1.266 . S
H231 C233 0.959 . S
H232 C233 0.961 . S
C233 C223 1.510 . S
C233 H231 0.959 . S
C233 H232 0.961 . S
C233 H234 0.960 . S
H234 C233 0.960 . S
H235 N215 0.862 . S
O236 Co204 1.920 . S
O236 C209 1.289 . S
C237 O229 1.258 . S
C237 O230 1.266 . S
Co238 O241 1.970 . S
Co238 N255 1.989 . S
Co238 O263 1.967 . S
Co238 O270 1.920 . S
Co239 O242 1.966 . S
Co239 N248 2.022 . S
Co239 N256 1.993 . S
Co239 O264 1.941 . S
C240 O241 1.258 . S
C240 O242 1.263 . S
O241 Co238 1.970 . S
O241 C240 1.258 . S
O242 Co239 1.966 . S
O242 C240 1.263 . S
C243 O244 1.235 . S
C243 O270 1.289 . S
O244 C243 1.235 . S
C245 C247 1.400 . S
C245 N248 1.351 . S
C245 C250 1.501 . S
C246 C247 1.387 . S
C246 N249 1.341 . S
C247 C245 1.400 . S
C247 C246 1.387 . S
N248 Co239 2.022 . S
N248 C245 1.351 . S
N248 N249 1.365 . S
N249 C246 1.341 . S
N249 N248 1.365 . S
N249 H269 0.862 . S
C250 C245 1.501 . S
C250 H251 0.961 . S
C250 H252 0.961 . S
C250 H253 0.960 . S
H251 C250 0.961 . S
H252 C250 0.961 . S
H253 C250 0.960 . S
C254 N255 1.342 . S
C254 C258 1.401 . S
C254 C259 1.499 . S
N255 Co238 1.989 . S
N255 C254 1.342 . S
N255 N256 1.388 . S
N256 Co239 1.993 . S
N256 N255 1.388 . S
N256 C257 1.346 . S
C257 N256 1.346 . S
C257 C258 1.396 . S
C257 C267 1.510 . S
C258 C254 1.401 . S
C258 C257 1.396 . S
C259 C254 1.499 . S
C259 H260 0.959 . S
C259 H261 0.960 . S
C259 H262 0.961 . S
H260 C259 0.959 . S
H261 C259 0.960 . S
H262 C259 0.961 . S
O263 Co238 1.967 . S
O263 C271 1.258 . S
O264 Co239 1.941 . S
O264 C271 1.266 . S
H265 C267 0.959 . S
H266 C267 0.961 . S
C267 C257 1.510 . S
C267 H265 0.959 . S
C267 H266 0.961 . S
C267 H268 0.960 . S
H268 C267 0.960 . S
H269 N249 0.862 . S
O270 Co238 1.920 . S
O270 C243 1.289 . S
C271 O263 1.258 . S
C271 O264 1.266 . S
Co272 O275 1.970 . S
Co272 N289 1.989 . S
Co272 O297 1.967 . S
Co272 O304 1.920 . S
Co273 O276 1.966 . S
Co273 N282 2.022 . S
Co273 N290 1.993 . S
Co273 O298 1.941 . S
C274 O275 1.258 . S
C274 O276 1.263 . S
O275 Co272 1.970 . S
O275 C274 1.258 . S
O276 Co273 1.966 . S
O276 C274 1.263 . S
C277 O278 1.235 . S
C277 O304 1.289 . S
O278 C277 1.235 . S
C279 C281 1.400 . S
C279 N282 1.351 . S
C279 C284 1.501 . S
C280 C281 1.387 . S
C280 N283 1.341 . S
C281 C279 1.400 . S
C281 C280 1.387 . S
N282 Co273 2.022 . S
N282 C279 1.351 . S
N282 N283 1.365 . S
N283 C280 1.341 . S
N283 N282 1.365 . S
N283 H303 0.862 . S
C284 C279 1.501 . S
C284 H285 0.961 . S
C284 H286 0.961 . S
C284 H287 0.960 1_556 S
H285 C284 0.961 . S
H286 C284 0.961 . S
H287 C284 0.960 1_554 S
C288 N289 1.342 . S
C288 C292 1.401 . S
C288 C293 1.499 . S
N289 Co272 1.989 . S
N289 C288 1.342 . S
N289 N290 1.388 . S
N290 Co273 1.993 . S
N290 N289 1.388 . S
N290 C291 1.346 . S
C291 N290 1.346 . S
C291 C292 1.396 . S
C291 C301 1.510 . S
C292 C288 1.401 . S
C292 C291 1.396 . S
C293 C288 1.499 . S
C293 H294 0.959 . S
C293 H295 0.960 . S
C293 H296 0.961 . S
H294 C293 0.959 . S
H295 C293 0.960 . S
H296 C293 0.961 . S
O297 Co272 1.967 . S
O297 C305 1.258 . S
O298 Co273 1.941 . S
O298 C305 1.266 . S
H299 C301 0.959 . S
H300 C301 0.961 . S
C301 C291 1.510 . S
C301 H299 0.959 . S
C301 H300 0.961 . S
C301 H302 0.960 . S
H302 C301 0.960 . S
H303 N283 0.862 . S
O304 Co272 1.920 . S
O304 C277 1.289 . S
C305 O297 1.258 . S
C305 O298 1.266 . S
Co306 O309 1.970 . S
Co306 N323 1.989 . S
Co306 O331 1.967 . S
Co306 O338 1.920 . S
Co307 O310 1.966 . S
Co307 N316 2.022 . S
Co307 N324 1.993 . S
Co307 O332 1.941 . S
C308 O309 1.258 . S
C308 O310 1.263 . S
O309 Co306 1.970 . S
O309 C308 1.258 . S
O310 Co307 1.966 . S
O310 C308 1.263 . S
C311 O312 1.235 . S
C311 O338 1.289 . S
O312 C311 1.235 . S
C313 C315 1.400 . S
C313 N316 1.351 . S
C313 C318 1.501 . S
C314 C315 1.387 . S
C314 N317 1.341 . S
C315 C313 1.400 . S
C315 C314 1.387 . S
N316 Co307 2.022 . S
N316 C313 1.351 . S
N316 N317 1.365 . S
N317 C314 1.341 . S
N317 N316 1.365 . S
N317 H337 0.862 . S
C318 C313 1.501 . S
C318 H319 0.961 . S
C318 H320 0.961 . S
C318 H321 0.960 . S
H319 C318 0.961 . S
H320 C318 0.961 . S
H321 C318 0.960 . S
C322 N323 1.342 . S
C322 C326 1.401 . S
C322 C327 1.499 . S
N323 Co306 1.989 . S
N323 C322 1.342 . S
N323 N324 1.388 . S
N324 Co307 1.993 . S
N324 N323 1.388 . S
N324 C325 1.346 . S
C325 N324 1.346 . S
C325 C326 1.396 . S
C325 C335 1.510 . S
C326 C322 1.401 . S
C326 C325 1.396 . S
C327 C322 1.499 . S
C327 H328 0.959 . S
C327 H329 0.960 . S
C327 H330 0.961 . S
H328 C327 0.959 . S
H329 C327 0.960 . S
H330 C327 0.961 . S
O331 Co306 1.967 . S
O331 C339 1.258 . S
O332 Co307 1.941 . S
O332 C339 1.266 . S
H333 C335 0.959 . S
H334 C335 0.961 . S
C335 C325 1.510 . S
C335 H333 0.959 . S
C335 H334 0.961 . S
C335 H336 0.960 . S
H336 C335 0.960 . S
H337 N317 0.862 . S
O338 Co306 1.920 . S
O338 C311 1.289 . S
C339 O331 1.258 . S
C339 O332 1.266 . S
Co340 O343 1.970 . S
Co340 N357 1.989 . S
Co340 O365 1.967 . S
Co340 O372 1.920 . S
Co341 O344 1.966 . S
Co341 N350 2.022 . S
Co341 N358 1.993 . S
Co341 O366 1.941 . S
C342 O343 1.258 . S
C342 O344 1.263 . S
O343 Co340 1.970 . S
O343 C342 1.258 . S
O344 Co341 1.966 . S
O344 C342 1.263 . S
C345 O346 1.235 . S
C345 O372 1.289 . S
O346 C345 1.235 . S
C347 C349 1.400 . S
C347 N350 1.351 . S
C347 C352 1.501 . S
C348 C349 1.387 . S
C348 N351 1.341 . S
C349 C347 1.400 . S
C349 C348 1.387 . S
N350 Co341 2.022 . S
N350 C347 1.351 . S
N350 N351 1.365 . S
N351 C348 1.341 . S
N351 N350 1.365 . S
N351 H371 0.862 . S
C352 C347 1.501 . S
C352 H353 0.961 . S
C352 H354 0.961 . S
C352 H355 0.960 1_556 S
H353 C352 0.961 . S
H354 C352 0.961 . S
H355 C352 0.960 1_554 S
C356 N357 1.342 . S
C356 C360 1.401 . S
C356 C361 1.499 . S
N357 Co340 1.989 . S
N357 C356 1.342 . S
N357 N358 1.388 . S
N358 Co341 1.993 . S
N358 N357 1.388 . S
N358 C359 1.346 . S
C359 N358 1.346 . S
C359 C360 1.396 . S
C359 C369 1.510 . S
C360 C356 1.401 . S
C360 C359 1.396 . S
C361 C356 1.499 . S
C361 H362 0.959 . S
C361 H363 0.960 . S
C361 H364 0.961 . S
H362 C361 0.959 . S
H363 C361 0.960 . S
H364 C361 0.961 . S
O365 Co340 1.967 . S
O365 C373 1.258 . S
O366 Co341 1.941 . S
O366 C373 1.266 . S
H367 C369 0.959 . S
H368 C369 0.961 . S
C369 C359 1.510 . S
C369 H367 0.959 . S
C369 H368 0.961 . S
C369 H370 0.960 . S
H370 C369 0.960 . S
H371 N351 0.862 . S
O372 Co340 1.920 . S
O372 C345 1.289 . S
C373 O365 1.258 . S
C373 O366 1.266 . S
Co374 O377 1.970 . S
Co374 N391 1.989 . S
Co374 O399 1.967 . S
Co374 O406 1.920 . S
Co375 O378 1.966 . S
Co375 N384 2.022 . S
Co375 N392 1.993 . S
Co375 O400 1.941 . S
C376 O377 1.258 . S
C376 O378 1.263 . S
O377 Co374 1.970 . S
O377 C376 1.258 . S
O378 Co375 1.966 . S
O378 C376 1.263 . S
C379 O380 1.235 . S
C379 O406 1.289 . S
O380 C379 1.235 . S
C381 C383 1.400 . S
C381 N384 1.351 . S
C381 C386 1.501 . S
C382 C383 1.387 . S
C382 N385 1.341 . S
C383 C381 1.400 . S
C383 C382 1.387 . S
N384 Co375 2.022 . S
N384 C381 1.351 . S
N384 N385 1.365 . S
N385 C382 1.341 . S
N385 N384 1.365 . S
N385 H405 0.862 . S
C386 C381 1.501 . S
C386 H387 0.961 . S
C386 H388 0.961 . S
C386 H389 0.960 . S
H387 C386 0.961 . S
H388 C386 0.961 . S
H389 C386 0.960 . S
C390 N391 1.342 . S
C390 C394 1.401 . S
C390 C395 1.499 . S
N391 Co374 1.989 . S
N391 C390 1.342 . S
N391 N392 1.388 . S
N392 Co375 1.993 . S
N392 N391 1.388 . S
N392 C393 1.346 . S
C393 N392 1.346 . S
C393 C394 1.396 . S
C393 C403 1.510 . S
C394 C390 1.401 . S
C394 C393 1.396 . S
C395 C390 1.499 . S
C395 H396 0.959 . S
C395 H397 0.960 . S
C395 H398 0.961 . S
H396 C395 0.959 . S
H397 C395 0.960 . S
H398 C395 0.961 . S
O399 Co374 1.967 . S
O399 C407 1.258 . S
O400 Co375 1.941 . S
O400 C407 1.266 . S
H401 C403 0.959 . S
H402 C403 0.961 . S
C403 C393 1.510 . S
C403 H401 0.959 . S
C403 H402 0.961 . S
C403 H404 0.960 . S
H404 C403 0.960 . S
H405 N385 0.862 . S
O406 Co374 1.920 . S
O406 C379 1.289 . S
C407 O399 1.258 . S
C407 O400 1.266 . S
C408 C409 1.369 . S
C408 C410 1.419 1_554 S
C408 H412 0.930 . S
C409 C408 1.369 . S
C409 C418 1.429 . S
C410 C408 1.419 1_556 S
C410 C411 1.363 . S
C410 H413 0.929 . S
C411 C410 1.363 . S
C411 C417 1.428 . S
H412 C408 0.930 . S
H413 C410 0.929 . S
S414 N415 1.613 1_556 S
S414 N416 1.610 . S
N415 S414 1.613 1_554 S
N415 C418 1.350 . S
N416 S414 1.610 . S
N416 C417 1.351 . S
C417 C411 1.428 . S
C417 N416 1.351 . S
C417 C418 1.434 1_556 S
C418 C409 1.429 . S
C418 N415 1.350 . S
C418 C417 1.434 1_554 S
C419 C420 1.369 . S
C419 C421 1.419 . S
C419 H423 0.930 . S
C420 C419 1.369 . S
C420 C429 1.429 . S
C421 C419 1.419 . S
C421 C422 1.363 . S
C421 H424 0.929 . S
C422 C421 1.363 . S
C422 C428 1.428 . S
H423 C419 0.930 . S
H424 C421 0.929 . S
S425 N426 1.613 . S
S425 N427 1.610 . S
N426 S425 1.613 . S
N426 C429 1.350 . S
N427 S425 1.610 . S
N427 C428 1.351 . S
C428 C422 1.428 . S
C428 N427 1.351 . S
C428 C429 1.434 . S
C429 C420 1.429 . S
C429 N426 1.350 . S
C429 C428 1.434 . S
C430 C431 1.369 . S
C430 C432 1.419 1_554 S
C430 H434 0.930 . S
C431 C430 1.369 . S
C431 C440 1.429 . S
C432 C430 1.419 1_556 S
C432 C433 1.363 . S
C432 H435 0.929 . S
C433 C432 1.363 . S
C433 C439 1.428 . S
H434 C430 0.930 . S
H435 C432 0.929 . S
S436 N437 1.613 . S
S436 N438 1.610 . S
N437 S436 1.613 . S
N437 C440 1.350 1_556 S
N438 S436 1.610 . S
N438 C439 1.351 . S
C439 C433 1.428 . S
C439 N438 1.351 . S
C439 C440 1.434 1_556 S
C440 C431 1.429 . S
C440 N437 1.350 1_554 S
C440 C439 1.434 1_554 S
C441 C442 1.369 . S
C441 C443 1.419 . S
C441 H445 0.930 . S
C442 C441 1.369 . S
C442 C451 1.429 . S
C443 C441 1.419 . S
C443 C444 1.363 . S
C443 H446 0.929 . S
C444 C443 1.363 . S
C444 C450 1.428 . S
H445 C441 0.930 . S
H446 C443 0.929 . S
S447 N448 1.613 . S
S447 N449 1.610 . S
N448 S447 1.613 . S
N448 C451 1.350 . S
N449 S447 1.610 . S
N449 C450 1.351 . S
C450 C444 1.428 . S
C450 N449 1.351 . S
C450 C451 1.434 . S
C451 C442 1.429 . S
C451 N448 1.350 . S
C451 C450 1.434 . S
C452 C453 1.369 . S
C452 C454 1.419 1_554 S
C452 H456 0.930 . S
C453 C452 1.369 . S
C453 C462 1.429 . S
C454 C452 1.419 1_556 S
C454 C455 1.363 . S
C454 H457 0.929 . S
C455 C454 1.363 . S
C455 C461 1.428 . S
H456 C452 0.930 . S
H457 C454 0.929 . S
S458 N459 1.613 . S
S458 N460 1.609 . S
N459 S458 1.613 . S
N459 C462 1.350 . S
N460 S458 1.609 . S
N460 C461 1.351 1_554 S
C461 C455 1.428 . S
C461 N460 1.351 1_556 S
C461 C462 1.434 1_556 S
C462 C453 1.429 . S
C462 N459 1.350 . S
C462 C461 1.434 1_554 S
C463 C464 1.369 . S
C463 C465 1.419 . S
C463 H467 0.930 . S
C464 C463 1.369 . S
C464 C473 1.429 . S
C465 C463 1.419 . S
C465 C466 1.363 . S
C465 H468 0.929 . S
C466 C465 1.363 . S
C466 C472 1.428 . S
H467 C463 0.930 . S
H468 C465 0.929 . S
S469 N470 1.613 . S
S469 N471 1.610 . S
N470 S469 1.613 . S
N470 C473 1.350 . S
N471 S469 1.610 . S
N471 C472 1.351 . S
C472 C466 1.428 . S
C472 N471 1.351 . S
C472 C473 1.434 . S
C473 C464 1.429 . S
C473 N470 1.350 . S
C473 C472 1.434 . S
C474 C475 1.369 . S
C474 C476 1.419 . S
C474 H478 0.930 . S
C475 C474 1.369 . S
C475 C484 1.429 1_554 S
C476 C474 1.419 . S
C476 C477 1.363 1_554 S
C476 H479 0.929 . S
C477 C476 1.363 1_556 S
C477 C483 1.428 . S
H478 C474 0.930 . S
H479 C476 0.929 . S
S480 N481 1.613 . S
S480 N482 1.610 . S
N481 S480 1.613 . S
N481 C484 1.350 . S
N482 S480 1.610 . S
N482 C483 1.351 . S
C483 C477 1.428 . S
C483 N482 1.351 . S
C483 C484 1.434 . S
C484 C475 1.429 1_556 S
C484 N481 1.350 . S
C484 C483 1.434 . S
C485 C486 1.369 . S
C485 C487 1.419 . S
C485 H489 0.930 . S
C486 C485 1.369 . S
C486 C495 1.429 . S
C487 C485 1.419 . S
C487 C488 1.363 . S
C487 H490 0.929 . S
C488 C487 1.363 . S
C488 C494 1.428 . S
H489 C485 0.930 . S
H490 C487 0.929 . S
S491 N492 1.613 . S
S491 N493 1.610 . S
N492 S491 1.613 . S
N492 C495 1.350 . S
N493 S491 1.610 . S
N493 C494 1.351 . S
C494 C488 1.428 . S
C494 N493 1.351 . S
C494 C495 1.434 . S
C495 C486 1.429 . S
C495 N492 1.350 . S
C495 C494 1.434 . S
C496 C497 1.369 . S
C496 C498 1.419 1_554 S
C496 H500 0.930 . S
C497 C496 1.369 . S
C497 C506 1.429 . S
C498 C496 1.419 1_556 S
C498 C499 1.363 . S
C498 H501 0.929 . S
C499 C498 1.363 . S
C499 C505 1.428 . S
H500 C496 0.930 . S
H501 C498 0.929 . S
S502 N503 1.613 1_556 S
S502 N504 1.610 . S
N503 S502 1.613 1_554 S
N503 C506 1.350 . S
N504 S502 1.610 . S
N504 C505 1.351 . S
C505 C499 1.428 . S
C505 N504 1.351 . S
C505 C506 1.434 1_556 S
C506 C497 1.429 . S
C506 N503 1.350 . S
C506 C505 1.434 1_554 S
C507 C508 1.369 . S
C507 C509 1.419 . S
C507 H511 0.930 . S
C508 C507 1.369 . S
C508 C517 1.429 . S
C509 C507 1.419 . S
C509 C510 1.363 . S
C509 H512 0.929 . S
C510 C509 1.363 . S
C510 C516 1.428 . S
H511 C507 0.930 . S
H512 C509 0.929 . S
S513 N514 1.613 . S
S513 N515 1.610 . S
N514 S513 1.613 . S
N514 C517 1.350 . S
N515 S513 1.610 . S
N515 C516 1.351 . S
C516 C510 1.428 . S
C516 N515 1.351 . S
C516 C517 1.434 . S
C517 C508 1.429 . S
C517 N514 1.350 . S
C517 C516 1.434 . S
C518 C519 1.369 . S
C518 C520 1.419 . S
C518 H522 0.930 . S
C519 C518 1.369 . S
C519 C528 1.429 1_554 S
C520 C518 1.419 . S
C520 C521 1.363 1_554 S
C520 H523 0.929 . S
C521 C520 1.363 1_556 S
C521 C527 1.428 . S
H522 C518 0.930 . S
H523 C520 0.929 . S
S524 N525 1.613 . S
S524 N526 1.610 . S
N525 S524 1.613 . S
N525 C528 1.350 . S
N526 S524 1.610 . S
N526 C527 1.351 . S
C527 C521 1.428 . S
C527 N526 1.351 . S
C527 C528 1.434 . S
C528 C519 1.429 1_556 S
C528 N525 1.350 . S
C528 C527 1.434 . S
C529 C530 1.369 . S
C529 C531 1.419 . S
C529 H533 0.930 . S
C530 C529 1.369 . S
C530 C539 1.429 . S
C531 C529 1.419 . S
C531 C532 1.363 . S
C531 H534 0.929 . S
C532 C531 1.363 . S
C532 C538 1.428 . S
H533 C529 0.930 . S
H534 C531 0.929 . S
S535 N536 1.613 . S
S535 N537 1.610 . S
N536 S535 1.613 . S
N536 C539 1.350 . S
N537 S535 1.610 . S
N537 C538 1.351 . S
C538 C532 1.428 . S
C538 N537 1.351 . S
C538 C539 1.434 . S
C539 C530 1.429 . S
C539 N536 1.350 . S
C539 C538 1.434 . S
C540 C541 1.369 1_554 S
C540 C542 1.419 . S
C540 H544 0.930 . S
C541 C540 1.369 1_556 S
C541 C550 1.429 . S
C542 C540 1.419 . S
C542 C543 1.363 . S
C542 H545 0.929 . S
C543 C542 1.363 . S
C543 C549 1.428 1_554 S
H544 C540 0.930 . S
H545 C542 0.929 . S
S546 N547 1.613 . S
S546 N548 1.610 . S
N547 S546 1.613 . S
N547 C550 1.350 . S
N548 S546 1.610 . S
N548 C549 1.351 . S
C549 C543 1.428 1_556 S
C549 N548 1.351 . S
C549 C550 1.434 . S
C550 C541 1.429 . S
C550 N547 1.350 . S
C550 C549 1.434 . S
C551 C552 1.369 . S
C551 C553 1.419 . S
C551 H555 0.930 . S
C552 C551 1.369 . S
C552 C561 1.429 . S
C553 C551 1.419 . S
C553 C554 1.363 . S
C553 H556 0.929 . S
C554 C553 1.363 . S
C554 C560 1.428 . S
H555 C551 0.930 . S
H556 C553 0.929 . S
S557 N558 1.613 . S
S557 N559 1.610 . S
N558 S557 1.613 . S
N558 C561 1.350 . S
N559 S557 1.610 . S
N559 C560 1.351 . S
C560 C554 1.428 . S
C560 N559 1.351 . S
C560 C561 1.434 . S
C561 C552 1.429 . S
C561 N558 1.350 . S
C561 C560 1.434 . S
C562 C563 1.369 . S
C562 C564 1.419 . S
C562 H566 0.930 . S
C563 C562 1.369 . S
C563 C572 1.429 1_554 S
C564 C562 1.419 . S
C564 C565 1.363 1_554 S
C564 H567 0.929 . S
C565 C564 1.363 1_556 S
C565 C571 1.428 . S
H566 C562 0.930 . S
H567 C564 0.929 . S
S568 N569 1.613 . S
S568 N570 1.610 . S
N569 S568 1.613 . S
N569 C572 1.350 . S
N570 S568 1.610 . S
N570 C571 1.351 . S
C571 C565 1.428 . S
C571 N570 1.351 . S
C571 C572 1.434 . S
C572 C563 1.429 1_556 S
C572 N569 1.350 . S
C572 C571 1.434 . S
C573 C574 1.369 . S
C573 C575 1.419 . S
C573 H577 0.930 . S
C574 C573 1.369 . S
C574 C583 1.429 . S
C575 C573 1.419 . S
C575 C576 1.363 . S
C575 H578 0.929 . S
C576 C575 1.363 . S
C576 C582 1.428 . S
H577 C573 0.930 . S
H578 C575 0.929 . S
S579 N580 1.613 . S
S579 N581 1.610 . S
N580 S579 1.613 . S
N580 C583 1.350 . S
N581 S579 1.610 . S
N581 C582 1.351 . S
C582 C576 1.428 . S
C582 N581 1.351 . S
C582 C583 1.434 . S
C583 C574 1.429 . S
C583 N580 1.350 . S
C583 C582 1.434 . S
C584 C585 1.369 . S
C584 C586 1.419 1_554 S
C584 H588 0.930 . S
C585 C584 1.369 . S
C585 C594 1.429 . S
C586 C584 1.419 1_556 S
C586 C587 1.363 . S
C586 H589 0.929 . S
C587 C586 1.363 . S
C587 C593 1.428 . S
H588 C584 0.930 . S
H589 C586 0.929 . S
S590 N591 1.613 1_556 S
S590 N592 1.610 . S
N591 S590 1.613 1_554 S
N591 C594 1.350 . S
N592 S590 1.610 . S
N592 C593 1.351 . S
C593 C587 1.428 . S
C593 N592 1.351 . S
C593 C594 1.434 1_556 S
C594 C585 1.429 . S
C594 N591 1.350 . S
C594 C593 1.434 1_554 S
C595 C596 1.369 . S
C595 C597 1.419 . S
C595 H599 0.930 . S
C596 C595 1.369 . S
C596 C605 1.429 . S
C597 C595 1.419 . S
C597 C598 1.363 . S
C597 H600 0.929 . S
C598 C597 1.363 . S
C598 C604 1.428 . S
H599 C595 0.930 . S
H600 C597 0.929 . S
S601 N602 1.613 . S
S601 N603 1.610 . S
N602 S601 1.613 . S
N602 C605 1.350 . S
N603 S601 1.610 . S
N603 C604 1.351 . S
C604 C598 1.428 . S
C604 N603 1.351 . S
C604 C605 1.434 . S
C605 C596 1.429 . S
C605 N602 1.350 . S
C605 C604 1.434 . S
C606 C607 1.369 . S
C606 C608 1.419 . S
C606 H610 0.930 . S
C607 C606 1.369 . S
C607 C616 1.429 1_556 S
C608 C606 1.419 . S
C608 C609 1.363 1_556 S
C608 H611 0.929 . S
C609 C608 1.363 1_554 S
C609 C615 1.428 . S
H610 C606 0.930 . S
H611 C608 0.929 . S
S612 N613 1.613 . S
S612 N614 1.610 . S
N613 S612 1.613 . S
N613 C616 1.350 . S
N614 S612 1.610 . S
N614 C615 1.351 . S
C615 C609 1.428 . S
C615 N614 1.351 . S
C615 C616 1.434 . S
C616 C607 1.429 1_554 S
C616 N613 1.350 . S
C616 C615 1.434 . S
C617 C618 1.369 . S
C617 C619 1.419 . S
C617 H621 0.930 . S
C618 C617 1.369 . S
C618 C627 1.429 . S
C619 C617 1.419 . S
C619 C620 1.363 . S
C619 H622 0.929 . S
C620 C619 1.363 . S
C620 C626 1.428 . S
H621 C617 0.930 . S
H622 C619 0.929 . S
S623 N624 1.613 . S
S623 N625 1.610 . S
N624 S623 1.613 . S
N624 C627 1.350 . S
N625 S623 1.610 . S
N625 C626 1.351 . S
C626 C620 1.428 . S
C626 N625 1.351 . S
C626 C627 1.434 . S
C627 C618 1.429 . S
C627 N624 1.350 . S
C627 C626 1.434 . S
C628 C629 1.369 . S
C628 C630 1.419 1_554 S
C628 H632 0.930 . S
C629 C628 1.369 . S
C629 C638 1.429 . S
C630 C628 1.419 1_556 S
C630 C631 1.363 . S
C630 H633 0.929 . S
C631 C630 1.363 . S
C631 C637 1.428 . S
H632 C628 0.930 . S
H633 C630 0.929 . S
S634 N635 1.613 . S
S634 N636 1.610 . S
N635 S634 1.613 . S
N635 C638 1.350 1_556 S
N636 S634 1.610 . S
N636 C637 1.351 . S
C637 C631 1.428 . S
C637 N636 1.351 . S
C637 C638 1.434 1_556 S
C638 C629 1.429 . S
C638 N635 1.350 1_554 S
C638 C637 1.434 1_554 S
C639 C640 1.369 . S
C639 C641 1.419 . S
C639 H643 0.930 . S
C640 C639 1.369 . S
C640 C649 1.429 . S
C641 C639 1.419 . S
C641 C642 1.363 . S
C641 H644 0.929 . S
C642 C641 1.363 . S
C642 C648 1.428 . S
H643 C639 0.930 . S
H644 C641 0.929 . S
S645 N646 1.613 . S
S645 N647 1.610 . S
N646 S645 1.613 . S
N646 C649 1.350 . S
N647 S645 1.610 . S
N647 C648 1.351 . S
C648 C642 1.428 . S
C648 N647 1.351 . S
C648 C649 1.434 . S
C649 C640 1.429 . S
C649 N646 1.350 . S
C649 C648 1.434 . S
C650 C651 1.369 . S
C650 C652 1.419 1_554 S
C650 H654 0.930 . S
C651 C650 1.369 . S
C651 C660 1.429 . S
C652 C650 1.419 1_556 S
C652 C653 1.363 . S
C652 H655 0.929 . S
C653 C652 1.363 . S
C653 C659 1.421 1_556 S
H654 C650 0.930 . S
H655 C652 0.929 . S
S656 N657 1.613 . S
S656 N658 1.610 . S
N657 S656 1.613 . S
N657 C660 1.350 . S
N658 S656 1.610 . S
N658 C659 1.352 . S
C659 C653 1.421 1_554 S
C659 N658 1.352 . S
C659 C660 1.441 . S
C660 C651 1.429 . S
C660 N657 1.350 . S
C660 C659 1.441 . S
C661 C662 1.369 . S
C661 C663 1.419 . S
C661 H665 0.930 . S
C662 C661 1.369 . S
C662 C671 1.429 . S
C663 C661 1.419 . S
C663 C664 1.363 . S
C663 H666 0.929 . S
C664 C663 1.363 . S
C664 C670 1.428 . S
H665 C661 0.930 . S
H666 C663 0.929 . S
S667 N668 1.613 . S
S667 N669 1.610 . S
N668 S667 1.613 . S
N668 C671 1.350 . S
N669 S667 1.610 . S
N669 C670 1.351 . S
C670 C664 1.428 . S
C670 N669 1.351 . S
C670 C671 1.434 . S
C671 C662 1.429 . S
C671 N668 1.350 . S
C671 C670 1.434 . S
C672 C673 1.369 . S
C672 C674 1.419 . S
C672 H676 0.930 . S
C673 C672 1.369 . S
C673 C682 1.429 . S
C674 C672 1.419 . S
C674 C675 1.363 . S
C674 H677 0.929 . S
C675 C674 1.363 . S
C675 C681 1.428 . S
H676 C672 0.930 . S
H677 C674 0.929 . S
S678 N679 1.613 . S
S678 N680 1.610 . S
N679 S678 1.613 . S
N679 C682 1.350 . S
N680 S678 1.610 . S
N680 C681 1.351 . S
C681 C675 1.428 . S
C681 N680 1.351 . S
C681 C682 1.434 . S
C682 C673 1.429 . S
C682 N679 1.350 . S
C682 C681 1.434 . S
C683 C684 1.369 . S
C683 C685 1.419 1_455 S
C683 H687 0.930 . S
C684 C683 1.369 . S
C684 C693 1.429 . S
C685 C683 1.419 1_655 S
C685 C686 1.363 . S
C685 H688 0.929 . S
C686 C685 1.363 . S
C686 C692 1.428 . S
H687 C683 0.930 . S
H688 C685 0.929 . S
S689 N690 1.613 1_655 S
S689 N691 1.610 . S
N690 S689 1.613 1_455 S
N690 C693 1.350 . S
N691 S689 1.610 . S
N691 C692 1.351 . S
C692 C686 1.428 . S
C692 N691 1.351 . S
C692 C693 1.434 1_655 S
C693 C684 1.429 . S
C693 N690 1.350 . S
C693 C692 1.434 1_455 S
C694 C695 1.369 . S
C694 C696 1.419 1_545 S
C694 H698 0.930 . S
C695 C694 1.369 . S
C695 C704 1.429 . S
C696 C694 1.419 1_565 S
C696 C697 1.363 . S
C696 H699 0.929 . S
C697 C696 1.363 . S
C697 C703 1.428 . S
H698 C694 0.930 . S
H699 C696 0.929 . S
S700 N701 1.610 1_565 S
S700 N702 1.618 . S
N701 S700 1.610 1_545 S
N701 C704 1.350 . S
N702 S700 1.618 . S
N702 C703 1.351 . S
C703 C697 1.428 . S
C703 N702 1.351 . S
C703 C704 1.434 1_565 S
C704 C695 1.429 . S
C704 N701 1.350 . S
C704 C703 1.434 1_545 S
C705 C706 1.369 . S
C705 C707 1.419 . S
C705 H709 0.930 . S
C706 C705 1.369 . S
C706 C715 1.429 . S
C707 C705 1.419 . S
C707 C708 1.363 . S
C707 H710 0.929 . S
C708 C707 1.363 . S
C708 C714 1.428 . S
H709 C705 0.930 . S
H710 C707 0.929 . S
S711 N712 1.613 . S
S711 N713 1.610 . S
N712 S711 1.613 . S
N712 C715 1.350 . S
N713 S711 1.610 . S
N713 C714 1.351 . S
C714 C708 1.428 . S
C714 N713 1.351 . S
C714 C715 1.434 . S
C715 C706 1.429 . S
C715 N712 1.350 . S
C715 C714 1.434 . S
C716 C717 1.369 . S
C716 C718 1.419 1_455 S
C716 H720 0.930 . S
C717 C716 1.369 . S
C717 C726 1.429 . S
C718 C716 1.419 1_655 S
C718 C719 1.363 . S
C718 H721 0.929 . S
C719 C718 1.363 . S
C719 C725 1.428 . S
H720 C716 0.930 . S
H721 C718 0.929 . S
S722 N723 1.613 1_655 S
S722 N724 1.610 . S
N723 S722 1.613 1_455 S
N723 C726 1.350 . S
N724 S722 1.610 . S
N724 C725 1.351 . S
C725 C719 1.428 . S
C725 N724 1.351 . S
C725 C726 1.434 1_655 S
C726 C717 1.429 . S
C726 N723 1.350 . S
C726 C725 1.434 1_455 S
C727 C728 1.369 . S
C727 C729 1.419 1_565 S
C727 H731 0.930 . S
C728 C727 1.369 . S
C728 C737 1.429 . S
C729 C727 1.419 1_545 S
C729 C730 1.363 . S
C729 H732 0.929 . S
C730 C729 1.363 . S
C730 C736 1.428 . S
H731 C727 0.930 . S
H732 C729 0.929 . S
S733 N734 1.613 . S
S733 N735 1.610 1_565 S
N734 S733 1.613 . S
N734 C737 1.350 . S
N735 S733 1.610 1_545 S
N735 C736 1.351 . S
C736 C730 1.428 . S
C736 N735 1.351 . S
C736 C737 1.434 1_545 S
C737 C728 1.429 . S
C737 N734 1.350 . S
C737 C736 1.434 1_565 S
C409 C2 2.923 . S
C411 C206 2.923 . S
C420 C36 2.923 . S
C422 C240 2.923 . S
C431 C70 2.923 . S
C433 C274 2.923 . S
C442 C308 2.923 . S
C444 C104 2.923 . S
C453 C138 2.923 . S
C455 C342 2.923 . S
C464 C376 2.923 . S
C466 C172 2.923 . S
C475 C311 1.055 . S
C477 C107 1.055 . S
C486 C141 1.059 . S
C488 C345 1.055 . S
C497 C379 1.054 . S
C499 C175 1.055 . S
C508 C209 1.055 . S
C510 C5 1.055 . S
C519 C243 1.064 . S
C521 C39 1.059 . S
C530 C73 1.061 . S
C532 C277 1.063 . S
C541 C349 0.860 . S
C543 C9 0.868 . S
C552 C43 0.866 . S
C554 C383 0.863 . S
C563 C77 0.872 . S
C565 C213 0.862 . S
C574 C111 0.870 . S
C576 C247 0.871 . S
C585 C145 0.866 . S
C587 C281 0.863 . S
C596 C179 0.860 . S
C598 C315 0.869 . S
C607 C122 2.302 . S
C609 C258 2.302 . S
C618 C156 2.301 . S
C620 C292 2.301 . S
C629 C326 2.301 . S
C631 C190 2.301 . S
C640 C20 2.302 . S
C642 C360 2.303 . S
C651 C394 2.302 . S
C653 C54 2.302 . S
C662 C88 2.301 . S
C664 C224 2.301 . S
C673 C33 0.868 . S
C675 C339 0.868 . S
C684 C373 0.874 . S
C686 C67 0.873 . S
C695 C407 0.867 . S
C697 C101 0.868 . S
C706 C237 0.874 . S
C708 C135 0.873 . S
C717 C169 0.870 . S
C719 C271 0.869 . S
C728 C305 0.871 . S
C730 C203 0.872 . S
