# Generated by pormake.
# Topology uon, (4)-cn, num edge types: 1
# Building blocks:
#     Node 0, Type 0, BuildingBlock: NAWXER_clean_sbu_0, # of connection points: 4
#     Node 1, Type 0, BuildingBlock: NAWXER_clean_sbu_0, # of connection points: 4
#     Node 2, Type 0, BuildingBlock: NAWXER_clean_sbu_0, # of connection points: 4
#     Node 3, Type 0, BuildingBlock: NAWXER_clean_sbu_0, # of connection points: 4
#     Node 4, Type 0, BuildingBlock: NAWXER_clean_sbu_0, # of connection points: 4
#     Node 5, Type 0, BuildingBlock: NAWXER_clean_sbu_0, # of connection points: 4
#     Edge 6, Type (0, 0), BuildingBlock: KIFKEQ_clean_linker_1, # of connection points: 2
#     Edge 7, Type (0, 0), BuildingBlock: KIFKEQ_clean_linker_1, # of connection points: 2
#     Edge 8, Type (0, 0), BuildingBlock: KIFKEQ_clean_linker_1, # of connection points: 2
#     Edge 9, Type (0, 0), BuildingBlock: KIFKEQ_clean_linker_1, # of connection points: 2
#     Edge 10, Type (0, 0), BuildingBlock: KIFKEQ_clean_linker_1, # of connection points: 2
#     Edge 11, Type (0, 0), BuildingBlock: KIFKEQ_clean_linker_1, # of connection points: 2
#     Edge 12, Type (0, 0), BuildingBlock: KIFKEQ_clean_linker_1, # of connection points: 2
#     Edge 13, Type (0, 0), BuildingBlock: KIFKEQ_clean_linker_1, # of connection points: 2
#     Edge 14, Type (0, 0), BuildingBlock: KIFKEQ_clean_linker_1, # of connection points: 2
#     Edge 15, Type (0, 0), BuildingBlock: KIFKEQ_clean_linker_1, # of connection points: 2
#     Edge 16, Type (0, 0), BuildingBlock: KIFKEQ_clean_linker_1, # of connection points: 2
#     Edge 17, Type (0, 0), BuildingBlock: KIFKEQ_clean_linker_1, # of connection points: 2
# Relax obj value: 0.135
# Max RMSD: 0.134
# Mean RMSD: 0.134
data_MOF--net-uon--node1-NAWXER_clean_sbu_0--edge1-KIFKEQ_clean_linker_1
_symmetry_space_group_name_H-M    P1
_symmetry_Int_Tables_number       1
_symmetry_cell_setting            triclinic
loop_
_symmetry_equiv_pos_as_xyz
'x, y, z'
_cell_length_a     33.89786
_cell_length_b     34.056828
_cell_length_c     21.333521
_cell_angle_alpha  89.656619
_cell_angle_beta   90.175081
_cell_angle_gamma 119.84133
loop_
_atom_site_label
_atom_site_type_symbol
_atom_site_fract_x
_atom_site_fract_y
_atom_site_fract_z
_atom_type_partial_charge
C0 C 0.20421 0.37346 0.173 0.0
C1 C 0.32829 0.49635 0.04931 0.0
O2 O 0.24435 0.39875 0.1942 0.0
Zn3 Zn 0.26914 0.43531 0.11736 0.0
O4 O 0.19406 0.37965 0.11743 0.0
Zn5 Zn 0.22269 0.42205 0.03784 0.0
O6 O 0.21727 0.37694 0.97604 0.0
O7 O 0.26357 0.38504 0.05432 0.0
O8 O 0.28969 0.47481 1.022 0.0
O9 O 0.33233 0.48556 0.10532 0.0
O10 O 0.23166 0.46904 0.12065 0.0
O11 O 0.18754 0.45452 0.03774 0.0
C12 C 0.24336 0.3653 1.00361 0.0
C13 C 0.20187 0.47405 0.09048 0.0
C14 C 0.84649 0.209 0.51711 0.0
C15 C 0.8528 0.32199 0.36355 0.0
O16 O 0.86227 0.25066 0.53073 0.0
Zn17 Zn 0.85295 0.26961 0.4461 0.0
O18 O 0.83088 0.19493 0.46226 0.0
Zn19 Zn 0.8189 0.21601 0.37527 0.0
O20 O 0.85846 0.20412 0.32038 0.0
O21 O 0.89687 0.2563 0.39163 0.0
O22 O 0.83334 0.28088 0.34514 0.0
O23 O 0.87026 0.33183 0.41827 0.0
O24 O 0.78112 0.23695 0.44598 0.0
O25 O 0.75177 0.18183 0.37618 0.0
C26 C 0.89619 0.2316 0.34627 0.0
C27 C 0.74645 0.20436 0.41963 0.0
C28 C 0.6773 0.90686 0.70793 0.0
C29 C 0.56267 0.7616 0.79344 0.0
O30 O 0.66858 0.8748 0.66898 0.0
Zn31 Zn 0.62043 0.80139 0.66592 0.0
O32 O 0.6553 0.89789 0.75892 0.0
Zn33 Zn 0.61854 0.83415 0.74584 0.0
O34 O 0.66916 0.81121 0.74491 0.0
O35 O 0.65939 0.77668 0.65413 0.0
O36 O 0.57939 0.80125 0.81519 0.0
O37 O 0.57443 0.75648 0.73821 0.0
O38 O 0.5824 0.79395 0.59532 0.0
O39 O 0.57311 0.83208 0.67099 0.0
C40 C 0.68001 0.78927 0.70614 0.0
C41 C 0.56337 0.8153 0.61551 0.0
C42 C 0.84543 0.65167 0.89634 0.0
C43 C 0.84565 0.53773 0.04186 0.0
O44 O 0.86312 0.62739 0.88215 0.0
Zn45 Zn 0.84775 0.59327 0.96249 0.0
O46 O 0.82574 0.6462 0.94925 0.0
Zn47 Zn 0.80888 0.6079 0.03274 0.0
O48 O 0.84467 0.65703 0.0931 0.0
O49 O 0.88701 0.64608 0.02488 0.0
O50 O 0.82446 0.55776 0.06074 0.0
O51 O 0.86457 0.54749 0.98807 0.0
O52 O 0.77658 0.55637 0.95167 0.0
O53 O 0.74174 0.57358 0.02465 0.0
C54 C 0.88387 0.66798 0.07121 0.0
C55 C 0.73985 0.55163 0.97538 0.0
C56 C 0.32085 0.83276 0.36387 0.0
C57 C 0.18307 0.82605 0.27293 0.0
O58 O 0.32073 0.85476 0.3154 0.0
Zn59 Zn 0.25462 0.83308 0.31305 0.0
O60 O 0.28376 0.80801 0.39344 0.0
Zn61 Zn 0.21445 0.7891 0.39124 0.0
O62 O 0.18559 0.72317 0.37929 0.0
O63 O 0.22542 0.76262 0.29725 0.0
O64 O 0.17793 0.80434 0.32417 0.0
O65 O 0.22245 0.84774 0.24784 0.0
O66 O 0.24641 0.867 0.3895 0.0
O67 O 0.20819 0.81931 0.46621 0.0
C68 C 0.19994 0.72431 0.32368 0.0
C69 C 0.22867 0.85949 0.44409 0.0
C70 C 0.48558 0.30122 0.74076 0.0
C71 C 0.36931 0.16019 0.64041 0.0
O72 O 0.46592 0.29995 0.68911 0.0
Zn73 Zn 0.42901 0.23317 0.68218 0.0
O74 O 0.4782 0.26421 0.76658 0.0
Zn75 Zn 0.43942 0.19358 0.75592 0.0
O76 O 0.48533 0.17513 0.7371 0.0
O77 O 0.4771 0.2137 0.65999 0.0
O78 O 0.3879 0.15538 0.6899 0.0
O79 O 0.38306 0.19962 0.6175 0.0
O80 O 0.38699 0.21748 0.76204 0.0
O81 O 0.40279 0.17957 0.833 0.0
C82 C 0.49576 0.19191 0.68199 0.0
C83 C 0.37956 0.19785 0.81545 0.0
H84 H 0.24003 0.33742 0.88181 0.0
H85 H 0.26486 0.3114 0.07196 0.0
H86 H 0.26437 0.28518 0.84381 0.0
H87 H 0.28743 0.25819 0.03472 0.0
H88 H 0.39323 0.23022 0.93467 0.0
H89 H 0.35159 0.2631 0.98412 0.0
H90 H 0.25184 0.21034 0.8353 0.0
H91 H 0.29471 0.17914 0.78517 0.0
C92 C 0.24965 0.31974 0.91546 0.0
C93 C 0.25118 0.32901 0.97964 0.0
C94 C 0.26344 0.28958 0.89389 0.0
C95 C 0.27843 0.26766 0.93621 0.0
C96 C 0.27723 0.27512 1.00063 0.0
C97 C 0.26406 0.30555 1.02198 0.0
C98 C 0.36133 0.22399 0.91424 0.0
C99 C 0.34697 0.20195 0.85649 0.0
C100 C 0.3375 0.24314 0.94219 0.0
C101 C 0.29868 0.24025 0.91302 0.0
C102 C 0.28215 0.21434 0.85825 0.0
C103 C 0.30622 0.19572 0.8301 0.0
H104 H 0.92335 0.22665 0.2267 0.0
H105 H 0.96896 0.25064 0.41886 0.0
H106 H 1.00116 0.25196 0.19235 0.0
H107 H 0.04614 0.27412 0.38534 0.0
H108 H 0.18049 0.38406 0.29115 0.0
H109 H 0.10502 0.3395 0.33737 0.0
H110 H 0.06597 0.2431 0.18623 0.0
H111 H 0.1409 0.28889 0.13927 0.0
C112 C 0.94976 0.23594 0.26163 0.0
C113 C 0.94025 0.23718 0.32525 0.0
C114 C 0.99446 0.25043 0.24215 0.0
C115 C 1.03037 0.26583 0.28606 0.0
C116 C 1.01983 0.26371 0.35004 0.0
C117 C 0.97546 0.24989 0.36929 0.0
C118 C 0.15635 0.35237 0.26943 0.0
C119 C 0.16648 0.33981 0.21189 0.0
C120 C 0.11283 0.3268 0.29558 0.0
C121 C 0.07881 0.28795 0.2649 0.0
C122 C 0.09071 0.27334 0.21034 0.0
C123 C 0.13391 0.29916 0.18394 0.0
H124 H 0.82177 0.19939 0.64197 0.0
H125 H 0.85788 0.13815 0.49309 0.0
H126 H 0.79055 0.12865 0.70213 0.0
H127 H 0.82435 0.06752 0.54927 0.0
H128 H 0.75898 0.93786 0.64931 0.0
H129 H 0.81409 1.01576 0.62173 0.0
H130 H 0.72537 0.05996 0.70138 0.0
H131 H 0.67291 0.98261 0.73374 0.0
C132 C 0.82434 0.1713 0.62307 0.0
C133 C 0.84187 0.1741 0.56272 0.0
C134 C 0.80551 0.13027 0.65678 0.0
C135 C 0.80337 0.09126 0.63026 0.0
C136 C 0.82514 0.09608 0.57235 0.0
C137 C 0.84441 0.13692 0.53954 0.0
C138 C 0.75176 0.96451 0.66137 0.0
C139 C 0.71152 0.95424 0.69287 0.0
C140 C 0.78321 1.00934 0.64528 0.0
C141 C 0.7743 0.04488 0.65794 0.0
C142 C 0.73436 0.0343 0.69135 0.0
C143 C 0.70376 0.98967 0.70934 0.0
H144 H 0.85384 0.73155 0.92771 0.0
H145 H 0.82891 0.64448 0.769 0.0
H146 H 0.82226 0.77114 0.87223 0.0
H147 H 0.79983 0.68666 0.71 0.0
H148 H 0.68025 0.71233 0.67465 0.0
H149 H 0.73313 0.68786 0.7079 0.0
H150 H 0.81397 0.81585 0.80247 0.0
H151 H 0.75825 0.83812 0.77339 0.0
C152 C 0.84338 0.72225 0.87946 0.0
C153 C 0.84319 0.6845 0.85302 0.0
C154 C 0.82526 0.74526 0.8471 0.0
C155 C 0.80703 0.73172 0.78659 0.0
C156 C 0.81194 0.69722 0.75729 0.0
C157 C 0.82958 0.67355 0.79044 0.0
C158 C 0.70947 0.7352 0.70247 0.0
C159 C 0.71474 0.77674 0.72249 0.0
C160 C 0.74036 0.72144 0.72099 0.0
C161 C 0.77818 0.74946 0.7587 0.0
C162 C 0.78473 0.79242 0.77529 0.0
C163 C 0.75292 0.80548 0.75844 0.0
H164 H 0.96836 0.70079 1.02304 0.0
H165 H 0.89759 0.71946 0.17798 0.0
H166 H 0.04025 0.75261 0.06927 0.0
H167 H 0.97099 0.77427 0.22373 0.0
H168 H 0.10073 0.79526 0.32742 0.0
H169 H 1.02858 0.76974 0.27647 0.0
H170 H 0.09774 0.82307 0.09993 0.0
H171 H 0.17073 0.84634 0.15122 0.0
C172 C 0.96805 0.71666 0.06675 0.0
C173 C 0.92693 0.70496 0.09756 0.0
C174 C 1.00977 0.74728 0.09295 0.0
C175 C 1.012 0.7678 0.1507 0.0
C176 C 0.97077 0.75849 0.17973 0.0
C177 C 0.9286 0.72723 0.15351 0.0
C178 C 0.10082 0.80217 0.27777 0.0
C179 C 0.14151 0.8216 0.24296 0.0
C180 C 0.0591 0.78794 0.24851 0.0
C181 C 0.05678 0.79321 0.18354 0.0
C182 C 0.09798 0.81708 0.14978 0.0
C183 C 0.13997 0.83089 0.17914 0.0
H184 H 0.30406 0.08552 0.69858 0.0
H185 H 0.35682 0.14014 0.51526 0.0
H186 H 0.25807 1.0104 0.65401 0.0
H187 H 0.3122 0.06461 0.47041 0.0
H188 H 0.21961 0.92789 0.39619 0.0
H189 H 0.24204 1.00073 0.44396 0.0
H190 H 0.27371 0.95442 0.61602 0.0
H191 H 0.24926 0.88066 0.56831 0.0
C192 C 0.30503 0.08147 0.64834 0.0
C193 C 0.33399 0.11852 0.61024 0.0
C194 C 0.27907 0.03831 0.62292 0.0
C195 C 0.28195 0.031 0.55879 0.0
C196 C 0.30869 0.06882 0.51996 0.0
C197 C 0.33428 0.11226 0.54545 0.0
C198 C 0.23031 0.933 0.44482 0.0
C199 C 0.2329 0.89881 0.47864 0.0
C200 C 0.24361 0.97493 0.472 0.0
C201 C 0.26058 0.98402 0.53349 0.0
C202 C 0.26047 0.94867 0.56869 0.0
C203 C 0.24645 0.90629 0.54156 0.0
H204 H 0.14951 0.63469 0.36112 0.0
H205 H 0.22333 0.71954 0.20338 0.0
H206 H 0.13511 0.56774 0.30099 0.0
H207 H 0.21028 0.65369 0.1448 0.0
H208 H 0.17343 0.52978 0.03599 0.0
H209 H 0.16009 0.58538 0.09089 0.0
H210 H 0.18036 0.53625 0.26856 0.0
H211 H 0.19212 0.48077 0.21433 0.0
C212 C 0.16245 0.6391 0.31372 0.0
C213 C 0.18811 0.68261 0.28764 0.0
C214 C 0.15427 0.60077 0.27917 0.0
C215 C 0.17163 0.60516 0.21784 0.0
C216 C 0.19567 0.64863 0.19124 0.0
C217 C 0.20371 0.68666 0.2255 0.0
C218 C 0.17368 0.53022 0.08675 0.0
C219 C 0.18456 0.50153 0.12077 0.0
C220 C 0.16648 0.56227 0.11832 0.0
C221 C 0.16981 0.56587 0.18435 0.0
C222 C 0.17715 0.53455 0.218 0.0
C223 C 0.18442 0.50292 0.18668 0.0
H224 H 0.51221 0.21461 0.55904 0.0
H225 H 0.55156 0.15574 0.7097 0.0
H226 H 0.56605 0.21004 0.48986 0.0
H227 H 0.6068 0.15167 0.63909 0.0
H228 H 0.68088 0.12545 0.47335 0.0
H229 H 0.61615 0.11642 0.53674 0.0
H230 H 0.64966 0.25279 0.48768 0.0
H231 H 0.71363 0.26149 0.42549 0.0
C232 C 0.53239 0.20063 0.5777 0.0
C233 C 0.52792 0.18623 0.64064 0.0
C234 C 0.56335 0.198 0.53765 0.0
C235 C 0.5911 0.18096 0.55897 0.0
C236 C 0.58569 0.1648 0.62117 0.0
C237 C 0.55435 0.16743 0.66173 0.0
C238 C 0.67315 0.1527 0.47456 0.0
C239 C 0.70139 0.19377 0.44337 0.0
C240 C 0.63674 0.14789 0.51167 0.0
C241 C 0.62779 0.18391 0.51737 0.0
C242 C 0.65514 0.22416 0.48381 0.0
C243 C 0.69164 0.22912 0.44778 0.0
H244 H 0.51969 0.67164 0.76192 0.0
H245 H 0.5341 0.76126 0.91365 0.0
H246 H 0.46763 0.60674 0.82588 0.0
H247 H 0.48155 0.69643 0.97718 0.0
H248 H 0.41096 0.56467 0.09379 0.0
H249 H 0.47062 0.62798 0.03335 0.0
H250 H 0.39085 0.57523 0.86483 0.0
H251 H 0.33235 0.51257 0.92414 0.0
C252 C 0.51173 0.67757 0.80885 0.0
C253 C 0.53089 0.72182 0.83228 0.0
C254 C 0.48178 0.64032 0.84556 0.0
C255 C 0.47021 0.64625 0.9068 0.0
C256 C 0.49003 0.69046 0.93062 0.0
C257 C 0.51989 0.72773 0.89384 0.0
C258 C 0.40653 0.56647 0.04375 0.0
C259 C 0.36673 0.53355 1.01404 0.0
C260 C 0.44052 0.60287 1.00915 0.0
C261 C 0.43562 0.60677 0.94405 0.0
C262 C 0.39625 0.57318 0.91453 0.0
C263 C 0.36239 0.53727 0.9489 0.0
H264 H 0.78223 0.48456 0.12673 0.0
H265 H 0.91441 0.51702 0.05646 0.0
H266 H 0.78664 0.43517 0.20591 0.0
H267 H 0.91907 0.46738 0.13739 0.0
H268 H 0.91846 0.41209 0.34777 0.0
H269 H 0.91953 0.46462 0.26657 0.0
H270 H 0.78908 0.36041 0.19929 0.0
H271 H 0.78824 0.30843 0.27864 0.0
C272 C 0.81221 0.48091 0.12797 0.0
C273 C 0.84782 0.50444 0.08494 0.0
C274 C 0.81474 0.45267 0.17351 0.0
C275 C 0.85329 0.44764 0.17815 0.0
C276 C 0.88911 0.47101 0.13518 0.0
C277 C 0.8862 0.49886 0.08845 0.0
C278 C 0.88995 0.40076 0.3159 0.0
C279 C 0.85319 0.35623 0.31976 0.0
C280 C 0.8908 0.43053 0.26907 0.0
C281 C 0.85445 0.41646 0.22644 0.0
C282 C 0.81753 0.37225 0.23141 0.0
C283 C 0.81708 0.34251 0.277 0.0
H284 H 0.40457 0.9065 0.38991 0.0
H285 H 0.32903 0.7606 0.39509 0.0
H286 H 0.46697 0.90558 0.44846 0.0
H287 H 0.39089 0.75949 0.45201 0.0
H288 H 0.52604 0.77196 0.5057 0.0
H289 H 0.47283 0.78012 0.4375 0.0
H290 H 0.4742 0.88007 0.5622 0.0
H291 H 0.52774 0.87184 0.63128 0.0
C292 C 0.40194 0.87435 0.40198 0.0
C293 C 0.36231 0.8336 0.38748 0.0
C294 C 0.43726 0.87378 0.43611 0.0
C295 C 0.43377 0.83243 0.45499 0.0
C296 C 0.39486 0.79186 0.4378 0.0
C297 C 0.35946 0.79247 0.40509 0.0
C298 C 0.51521 0.79582 0.51876 0.0
C299 C 0.53096 0.82097 0.57441 0.0
C300 C 0.48467 0.80048 0.47953 0.0
C301 C 0.46933 0.83077 0.49435 0.0
C302 C 0.48577 0.85677 0.5492 0.0
C303 C 0.51605 0.85171 0.58906 0.0
H304 H 0.53454 0.38865 0.69393 0.0
H305 H 0.50396 0.31035 0.86494 0.0
H306 H 0.59007 0.45618 0.75131 0.0
H307 H 0.55909 0.37669 0.92132 0.0
H308 H 0.65137 0.50636 1.02028 0.0
H309 H 0.58314 0.45194 0.96244 0.0
H310 H 0.66426 0.47731 0.79541 0.0
H311 H 0.73123 0.53125 0.85217 0.0
C312 C 0.53918 0.38598 0.74371 0.0
C313 C 0.51549 0.34399 0.77449 0.0
C314 C 0.57103 0.42453 0.77663 0.0
C315 C 0.5793 0.42185 0.84103 0.0
C316 C 0.55346 0.38033 0.87215 0.0
C317 C 0.52218 0.34203 0.83938 0.0
C318 C 0.65425 0.50071 0.97101 0.0
C319 C 0.69681 0.52246 0.94124 0.0
C320 C 0.61531 0.46951 0.93785 0.0
C321 C 0.61821 0.46004 0.87418 0.0
C322 C 0.66044 0.48394 0.84396 0.0
C323 C 0.69909 0.51453 0.87698 0.0
loop_
_geom_bond_atom_site_label_1
_geom_bond_atom_site_label_2
_geom_bond_distance
_geom_bond_site_symmetry_2
_ccdc_geom_bond_type
C0 O2 1.247 . S
C0 O4 1.258 . S
C1 O8 1.247 . S
C1 O9 1.258 1_556 S
O2 C0 1.247 . S
O2 Zn3 2.028 . S
Zn3 O2 2.028 . S
Zn3 O7 2.035 . S
Zn3 O9 2.035 . S
Zn3 O10 2.028 . S
O4 C0 1.258 . S
O4 Zn5 2.035 1_554 S
Zn5 O4 2.035 1_556 S
Zn5 O6 2.028 . S
Zn5 O8 2.028 . S
Zn5 O11 2.035 1_556 S
O6 Zn5 2.028 . S
O6 C12 1.247 . S
O7 Zn3 2.035 . S
O7 C12 1.258 1_554 S
O8 C1 1.247 . S
O8 Zn5 2.028 . S
O9 C1 1.258 1_554 S
O9 Zn3 2.035 . S
O10 Zn3 2.028 . S
O10 C13 1.247 . S
O11 Zn5 2.035 1_554 S
O11 C13 1.258 . S
C12 O6 1.247 . S
C12 O7 1.258 1_556 S
C13 O10 1.247 . S
C13 O11 1.258 . S
C14 O16 1.247 . S
C14 O18 1.258 . S
C15 O22 1.247 . S
C15 O23 1.258 . S
O16 C14 1.247 . S
O16 Zn17 2.028 . S
Zn17 O16 2.028 . S
Zn17 O21 2.035 . S
Zn17 O23 2.035 . S
Zn17 O24 2.028 . S
O18 C14 1.258 . S
O18 Zn19 2.035 . S
Zn19 O18 2.035 . S
Zn19 O20 2.028 . S
Zn19 O22 2.028 . S
Zn19 O25 2.035 . S
O20 Zn19 2.028 . S
O20 C26 1.247 . S
O21 Zn17 2.035 . S
O21 C26 1.258 . S
O22 C15 1.247 . S
O22 Zn19 2.028 . S
O23 C15 1.258 . S
O23 Zn17 2.035 . S
O24 Zn17 2.028 . S
O24 C27 1.247 . S
O25 Zn19 2.035 . S
O25 C27 1.258 . S
C26 O20 1.247 . S
C26 O21 1.258 . S
C27 O24 1.247 . S
C27 O25 1.258 . S
C28 O30 1.247 . S
C28 O32 1.258 . S
C29 O36 1.247 . S
C29 O37 1.258 . S
O30 C28 1.247 . S
O30 Zn31 2.028 . S
Zn31 O30 2.028 . S
Zn31 O35 2.035 . S
Zn31 O37 2.035 . S
Zn31 O38 2.028 . S
O32 C28 1.258 . S
O32 Zn33 2.035 . S
Zn33 O32 2.035 . S
Zn33 O34 2.028 . S
Zn33 O36 2.028 . S
Zn33 O39 2.035 . S
O34 Zn33 2.028 . S
O34 C40 1.247 . S
O35 Zn31 2.035 . S
O35 C40 1.258 . S
O36 C29 1.247 . S
O36 Zn33 2.028 . S
O37 C29 1.258 . S
O37 Zn31 2.035 . S
O38 Zn31 2.028 . S
O38 C41 1.247 . S
O39 Zn33 2.035 . S
O39 C41 1.258 . S
C40 O34 1.247 . S
C40 O35 1.258 . S
C41 O38 1.247 . S
C41 O39 1.258 . S
C42 O44 1.247 . S
C42 O46 1.258 1_556 S
C43 O50 1.247 . S
C43 O51 1.258 . S
O44 C42 1.247 . S
O44 Zn45 2.028 . S
Zn45 O44 2.028 . S
Zn45 O49 2.035 1_556 S
Zn45 O51 2.035 1_556 S
Zn45 O52 2.028 . S
O46 C42 1.258 1_554 S
O46 Zn47 2.035 . S
Zn47 O46 2.035 . S
Zn47 O48 2.028 . S
Zn47 O50 2.028 . S
Zn47 O53 2.035 . S
O48 Zn47 2.028 . S
O48 C54 1.247 . S
O49 Zn45 2.035 1_554 S
O49 C54 1.258 . S
O50 C43 1.247 . S
O50 Zn47 2.028 . S
O51 C43 1.258 . S
O51 Zn45 2.035 1_554 S
O52 Zn45 2.028 . S
O52 C55 1.247 . S
O53 Zn47 2.035 . S
O53 C55 1.258 1_554 S
C54 O48 1.247 . S
C54 O49 1.258 . S
C55 O52 1.247 . S
C55 O53 1.258 1_556 S
C56 O58 1.247 . S
C56 O60 1.258 . S
C57 O64 1.247 . S
C57 O65 1.258 . S
O58 C56 1.247 . S
O58 Zn59 2.028 . S
Zn59 O58 2.028 . S
Zn59 O63 2.035 . S
Zn59 O65 2.035 . S
Zn59 O66 2.028 . S
O60 C56 1.258 . S
O60 Zn61 2.035 . S
Zn61 O60 2.035 . S
Zn61 O62 2.028 . S
Zn61 O64 2.028 . S
Zn61 O67 2.035 . S
O62 Zn61 2.028 . S
O62 C68 1.247 . S
O63 Zn59 2.035 . S
O63 C68 1.258 . S
O64 C57 1.247 . S
O64 Zn61 2.028 . S
O65 C57 1.258 . S
O65 Zn59 2.035 . S
O66 Zn59 2.028 . S
O66 C69 1.247 . S
O67 Zn61 2.035 . S
O67 C69 1.258 . S
C68 O62 1.247 . S
C68 O63 1.258 . S
C69 O66 1.247 . S
C69 O67 1.258 . S
C70 O72 1.247 . S
C70 O74 1.258 . S
C71 O78 1.247 . S
C71 O79 1.258 . S
O72 C70 1.247 . S
O72 Zn73 2.028 . S
Zn73 O72 2.028 . S
Zn73 O77 2.035 . S
Zn73 O79 2.035 . S
Zn73 O80 2.028 . S
O74 C70 1.258 . S
O74 Zn75 2.035 . S
Zn75 O74 2.035 . S
Zn75 O76 2.028 . S
Zn75 O78 2.028 . S
Zn75 O81 2.035 . S
O76 Zn75 2.028 . S
O76 C82 1.247 . S
O77 Zn73 2.035 . S
O77 C82 1.258 . S
O78 C71 1.247 . S
O78 Zn75 2.028 . S
O79 C71 1.258 . S
O79 Zn73 2.035 . S
O80 Zn73 2.028 . S
O80 C83 1.247 . S
O81 Zn75 2.035 . S
O81 C83 1.258 . S
C82 O76 1.247 . S
C82 O77 1.258 . S
C83 O80 1.247 . S
C83 O81 1.258 . S
H84 C92 0.950 . S
H85 C97 0.950 . S
H86 C94 0.950 . S
H87 C96 0.950 . S
H88 C98 0.950 . S
H89 C100 0.950 . S
H90 C102 0.950 . S
H91 C103 0.950 . S
C92 H84 0.950 . S
C92 C93 1.386 . S
C92 C94 1.391 . S
C93 C92 1.386 . S
C93 C97 1.393 . S
C94 H86 0.950 . S
C94 C92 1.391 . S
C94 C95 1.400 . S
C95 C94 1.400 . S
C95 C96 1.398 . S
C95 C101 1.491 . S
C96 H87 0.950 . S
C96 C95 1.398 . S
C96 C97 1.391 . S
C97 H85 0.950 . S
C97 C93 1.393 . S
C97 C96 1.391 . S
C98 H88 0.950 . S
C98 C99 1.386 . S
C98 C100 1.391 . S
C99 C98 1.386 . S
C99 C103 1.393 . S
C100 H89 0.950 . S
C100 C98 1.391 . S
C100 C101 1.400 . S
C101 C95 1.491 . S
C101 C100 1.400 . S
C101 C102 1.398 . S
C102 H90 0.950 . S
C102 C101 1.398 . S
C102 C103 1.391 . S
C103 H91 0.950 . S
C103 C99 1.393 . S
C103 C102 1.391 . S
H104 C112 0.950 . S
H105 C117 0.950 . S
H106 C114 0.950 . S
H107 C116 0.950 . S
H108 C118 0.950 . S
H109 C120 0.950 . S
H110 C122 0.950 . S
H111 C123 0.950 . S
C112 H104 0.950 . S
C112 C113 1.386 . S
C112 C114 1.391 . S
C113 C112 1.386 . S
C113 C117 1.393 . S
C114 H106 0.950 . S
C114 C112 1.391 . S
C114 C115 1.400 . S
C115 C114 1.400 . S
C115 C116 1.398 . S
C115 C121 1.491 1_655 S
C116 H107 0.950 . S
C116 C115 1.398 . S
C116 C117 1.391 . S
C117 H105 0.950 . S
C117 C113 1.393 . S
C117 C116 1.391 . S
C118 H108 0.950 . S
C118 C119 1.386 . S
C118 C120 1.391 . S
C119 C118 1.386 . S
C119 C123 1.393 . S
C120 H109 0.950 . S
C120 C118 1.391 . S
C120 C121 1.400 . S
C121 C115 1.491 1_455 S
C121 C120 1.400 . S
C121 C122 1.398 . S
C122 H110 0.950 . S
C122 C121 1.398 . S
C122 C123 1.391 . S
C123 H111 0.950 . S
C123 C119 1.393 . S
C123 C122 1.391 . S
H124 C132 0.950 . S
H125 C137 0.950 . S
H126 C134 0.950 . S
H127 C136 0.950 1_565 S
H128 C138 0.950 . S
H129 C140 0.950 . S
H130 C142 0.950 1_545 S
H131 C143 0.950 . S
C132 H124 0.950 . S
C132 C133 1.386 . S
C132 C134 1.391 . S
C133 C132 1.386 . S
C133 C137 1.393 . S
C134 H126 0.950 . S
C134 C132 1.391 . S
C134 C135 1.400 . S
C135 C134 1.400 . S
C135 C136 1.398 . S
C135 C141 1.491 1_545 S
C136 H127 0.950 1_545 S
C136 C135 1.398 . S
C136 C137 1.391 . S
C137 H125 0.950 . S
C137 C133 1.393 . S
C137 C136 1.391 . S
C138 H128 0.950 . S
C138 C139 1.386 . S
C138 C140 1.391 . S
C139 C138 1.386 . S
C139 C143 1.393 . S
C140 H129 0.950 . S
C140 C138 1.391 . S
C140 C141 1.400 . S
C141 C135 1.491 1_565 S
C141 C140 1.400 . S
C141 C142 1.398 . S
C142 H130 0.950 1_565 S
C142 C141 1.398 . S
C142 C143 1.391 . S
C143 H131 0.950 . S
C143 C139 1.393 . S
C143 C142 1.391 . S
H144 C152 0.950 . S
H145 C157 0.950 . S
H146 C154 0.950 . S
H147 C156 0.950 . S
H148 C158 0.950 . S
H149 C160 0.950 . S
H150 C162 0.950 . S
H151 C163 0.950 . S
C152 H144 0.950 . S
C152 C153 1.386 . S
C152 C154 1.391 . S
C153 C152 1.386 . S
C153 C157 1.393 . S
C154 H146 0.950 . S
C154 C152 1.391 . S
C154 C155 1.400 . S
C155 C154 1.400 . S
C155 C156 1.398 . S
C155 C161 1.491 . S
C156 H147 0.950 . S
C156 C155 1.398 . S
C156 C157 1.391 . S
C157 H145 0.950 . S
C157 C153 1.393 . S
C157 C156 1.391 . S
C158 H148 0.950 . S
C158 C159 1.386 . S
C158 C160 1.391 . S
C159 C158 1.386 . S
C159 C163 1.393 . S
C160 H149 0.950 . S
C160 C158 1.391 . S
C160 C161 1.400 . S
C161 C155 1.491 . S
C161 C160 1.400 . S
C161 C162 1.398 . S
C162 H150 0.950 . S
C162 C161 1.398 . S
C162 C163 1.391 . S
C163 H151 0.950 . S
C163 C159 1.393 . S
C163 C162 1.391 . S
H164 C172 0.950 . S
H165 C177 0.950 . S
H166 C174 0.950 . S
H167 C176 0.950 . S
H168 C178 0.950 . S
H169 C180 0.950 . S
H170 C182 0.950 . S
H171 C183 0.950 . S
C172 H164 0.950 . S
C172 C173 1.386 . S
C172 C174 1.391 . S
C173 C172 1.386 . S
C173 C177 1.393 . S
C174 H166 0.950 . S
C174 C172 1.391 . S
C174 C175 1.400 . S
C175 C174 1.400 . S
C175 C176 1.398 . S
C175 C181 1.491 1_655 S
C176 H167 0.950 . S
C176 C175 1.398 . S
C176 C177 1.391 . S
C177 H165 0.950 . S
C177 C173 1.393 . S
C177 C176 1.391 . S
C178 H168 0.950 . S
C178 C179 1.386 . S
C178 C180 1.391 . S
C179 C178 1.386 . S
C179 C183 1.393 . S
C180 H169 0.950 . S
C180 C178 1.391 . S
C180 C181 1.400 . S
C181 C175 1.491 1_455 S
C181 C180 1.400 . S
C181 C182 1.398 . S
C182 H170 0.950 . S
C182 C181 1.398 . S
C182 C183 1.391 . S
C183 H171 0.950 . S
C183 C179 1.393 . S
C183 C182 1.391 . S
H184 C192 0.950 . S
H185 C197 0.950 . S
H186 C194 0.950 . S
H187 C196 0.950 . S
H188 C198 0.950 . S
H189 C200 0.950 . S
H190 C202 0.950 . S
H191 C203 0.950 . S
C192 H184 0.950 . S
C192 C193 1.386 . S
C192 C194 1.391 . S
C193 C192 1.386 . S
C193 C197 1.393 . S
C194 H186 0.950 . S
C194 C192 1.391 . S
C194 C195 1.400 . S
C195 C194 1.400 . S
C195 C196 1.398 . S
C195 C201 1.491 1_545 S
C196 H187 0.950 . S
C196 C195 1.398 . S
C196 C197 1.391 . S
C197 H185 0.950 . S
C197 C193 1.393 . S
C197 C196 1.391 . S
C198 H188 0.950 . S
C198 C199 1.386 . S
C198 C200 1.391 . S
C199 C198 1.386 . S
C199 C203 1.393 . S
C200 H189 0.950 . S
C200 C198 1.391 . S
C200 C201 1.400 . S
C201 C195 1.491 1_565 S
C201 C200 1.400 . S
C201 C202 1.398 . S
C202 H190 0.950 . S
C202 C201 1.398 . S
C202 C203 1.391 . S
C203 H191 0.950 . S
C203 C199 1.393 . S
C203 C202 1.391 . S
H204 C212 0.950 . S
H205 C217 0.950 . S
H206 C214 0.950 . S
H207 C216 0.950 . S
H208 C218 0.950 . S
H209 C220 0.950 . S
H210 C222 0.950 . S
H211 C223 0.950 . S
C212 H204 0.950 . S
C212 C213 1.386 . S
C212 C214 1.391 . S
C213 C212 1.386 . S
C213 C217 1.393 . S
C214 H206 0.950 . S
C214 C212 1.391 . S
C214 C215 1.400 . S
C215 C214 1.400 . S
C215 C216 1.398 . S
C215 C221 1.491 . S
C216 H207 0.950 . S
C216 C215 1.398 . S
C216 C217 1.391 . S
C217 H205 0.950 . S
C217 C213 1.393 . S
C217 C216 1.391 . S
C218 H208 0.950 . S
C218 C219 1.386 . S
C218 C220 1.391 . S
C219 C218 1.386 . S
C219 C223 1.393 . S
C220 H209 0.950 . S
C220 C218 1.391 . S
C220 C221 1.400 . S
C221 C215 1.491 . S
C221 C220 1.400 . S
C221 C222 1.398 . S
C222 H210 0.950 . S
C222 C221 1.398 . S
C222 C223 1.391 . S
C223 H211 0.950 . S
C223 C219 1.393 . S
C223 C222 1.391 . S
H224 C232 0.950 . S
H225 C237 0.950 . S
H226 C234 0.950 . S
H227 C236 0.950 . S
H228 C238 0.950 . S
H229 C240 0.950 . S
H230 C242 0.950 . S
H231 C243 0.950 . S
C232 H224 0.950 . S
C232 C233 1.386 . S
C232 C234 1.391 . S
C233 C232 1.386 . S
C233 C237 1.393 . S
C234 H226 0.950 . S
C234 C232 1.391 . S
C234 C235 1.400 . S
C235 C234 1.400 . S
C235 C236 1.398 . S
C235 C241 1.491 . S
C236 H227 0.950 . S
C236 C235 1.398 . S
C236 C237 1.391 . S
C237 H225 0.950 . S
C237 C233 1.393 . S
C237 C236 1.391 . S
C238 H228 0.950 . S
C238 C239 1.386 . S
C238 C240 1.391 . S
C239 C238 1.386 . S
C239 C243 1.393 . S
C240 H229 0.950 . S
C240 C238 1.391 . S
C240 C241 1.400 . S
C241 C235 1.491 . S
C241 C240 1.400 . S
C241 C242 1.398 . S
C242 H230 0.950 . S
C242 C241 1.398 . S
C242 C243 1.391 . S
C243 H231 0.950 . S
C243 C239 1.393 . S
C243 C242 1.391 . S
H244 C252 0.950 . S
H245 C257 0.950 . S
H246 C254 0.950 . S
H247 C256 0.950 . S
H248 C258 0.950 . S
H249 C260 0.950 . S
H250 C262 0.950 . S
H251 C263 0.950 . S
C252 H244 0.950 . S
C252 C253 1.386 . S
C252 C254 1.391 . S
C253 C252 1.386 . S
C253 C257 1.393 . S
C254 H246 0.950 . S
C254 C252 1.391 . S
C254 C255 1.400 . S
C255 C254 1.400 . S
C255 C256 1.398 . S
C255 C261 1.491 . S
C256 H247 0.950 . S
C256 C255 1.398 . S
C256 C257 1.391 . S
C257 H245 0.950 . S
C257 C253 1.393 . S
C257 C256 1.391 . S
C258 H248 0.950 . S
C258 C259 1.386 . S
C258 C260 1.391 . S
C259 C258 1.386 . S
C259 C263 1.393 . S
C260 H249 0.950 . S
C260 C258 1.391 . S
C260 C261 1.400 . S
C261 C255 1.491 . S
C261 C260 1.400 . S
C261 C262 1.398 . S
C262 H250 0.950 . S
C262 C261 1.398 . S
C262 C263 1.391 . S
C263 H251 0.950 . S
C263 C259 1.393 . S
C263 C262 1.391 . S
H264 C272 0.950 . S
H265 C277 0.950 . S
H266 C274 0.950 . S
H267 C276 0.950 . S
H268 C278 0.950 . S
H269 C280 0.950 . S
H270 C282 0.950 . S
H271 C283 0.950 . S
C272 H264 0.950 . S
C272 C273 1.386 . S
C272 C274 1.391 . S
C273 C272 1.386 . S
C273 C277 1.393 . S
C274 H266 0.950 . S
C274 C272 1.391 . S
C274 C275 1.400 . S
C275 C274 1.400 . S
C275 C276 1.398 . S
C275 C281 1.491 . S
C276 H267 0.950 . S
C276 C275 1.398 . S
C276 C277 1.391 . S
C277 H265 0.950 . S
C277 C273 1.393 . S
C277 C276 1.391 . S
C278 H268 0.950 . S
C278 C279 1.386 . S
C278 C280 1.391 . S
C279 C278 1.386 . S
C279 C283 1.393 . S
C280 H269 0.950 . S
C280 C278 1.391 . S
C280 C281 1.400 . S
C281 C275 1.491 . S
C281 C280 1.400 . S
C281 C282 1.398 . S
C282 H270 0.950 . S
C282 C281 1.398 . S
C282 C283 1.391 . S
C283 H271 0.950 . S
C283 C279 1.393 . S
C283 C282 1.391 . S
H284 C292 0.950 . S
H285 C297 0.950 . S
H286 C294 0.950 . S
H287 C296 0.950 . S
H288 C298 0.950 . S
H289 C300 0.950 . S
H290 C302 0.950 . S
H291 C303 0.950 . S
C292 H284 0.950 . S
C292 C293 1.386 . S
C292 C294 1.391 . S
C293 C292 1.386 . S
C293 C297 1.393 . S
C294 H286 0.950 . S
C294 C292 1.391 . S
C294 C295 1.400 . S
C295 C294 1.400 . S
C295 C296 1.398 . S
C295 C301 1.491 . S
C296 H287 0.950 . S
C296 C295 1.398 . S
C296 C297 1.391 . S
C297 H285 0.950 . S
C297 C293 1.393 . S
C297 C296 1.391 . S
C298 H288 0.950 . S
C298 C299 1.386 . S
C298 C300 1.391 . S
C299 C298 1.386 . S
C299 C303 1.393 . S
C300 H289 0.950 . S
C300 C298 1.391 . S
C300 C301 1.400 . S
C301 C295 1.491 . S
C301 C300 1.400 . S
C301 C302 1.398 . S
C302 H290 0.950 . S
C302 C301 1.398 . S
C302 C303 1.391 . S
C303 H291 0.950 . S
C303 C299 1.393 . S
C303 C302 1.391 . S
H304 C312 0.950 . S
H305 C317 0.950 . S
H306 C314 0.950 . S
H307 C316 0.950 . S
H308 C318 0.950 . S
H309 C320 0.950 . S
H310 C322 0.950 . S
H311 C323 0.950 . S
C312 H304 0.950 . S
C312 C313 1.386 . S
C312 C314 1.391 . S
C313 C312 1.386 . S
C313 C317 1.393 . S
C314 H306 0.950 . S
C314 C312 1.391 . S
C314 C315 1.400 . S
C315 C314 1.400 . S
C315 C316 1.398 . S
C315 C321 1.491 . S
C316 H307 0.950 . S
C316 C315 1.398 . S
C316 C317 1.391 . S
C317 H305 0.950 . S
C317 C313 1.393 . S
C317 C316 1.391 . S
C318 H308 0.950 . S
C318 C319 1.386 . S
C318 C320 1.391 . S
C319 C318 1.386 . S
C319 C323 1.393 . S
C320 H309 0.950 . S
C320 C318 1.391 . S
C320 C321 1.400 . S
C321 C315 1.491 . S
C321 C320 1.400 . S
C321 C322 1.398 . S
C322 H310 0.950 . S
C322 C321 1.398 . S
C322 C323 1.391 . S
C323 H311 0.950 . S
C323 C319 1.393 . S
C323 C322 1.391 . S
C93 C12 1.414 . S
C99 C83 1.416 . S
C113 C26 1.412 . S
C119 C0 1.413 . S
C133 C14 1.409 . S
C139 C28 1.418 . S
C153 C42 1.418 . S
C159 C40 1.409 . S
C173 C54 1.416 . S
C179 C57 1.414 . S
C193 C71 1.415 . S
C199 C69 1.415 . S
C213 C68 1.493 . S
C219 C13 1.481 . S
C233 C82 1.486 . S
C239 C27 1.485 . S
C253 C29 1.490 . S
C259 C1 1.481 . S
C273 C43 1.485 . S
C279 C15 1.485 . S
C293 C56 1.490 . S
C299 C41 1.487 . S
C313 C70 1.491 . S
C319 C55 1.481 . S
