# Generated by pormake.
# Topology bcg, (8)-cn, num edge types: 1
# Building blocks:
#     Node 0, Type 0, BuildingBlock: HISSIN_clean_sbu_1, # of connection points: 8
#     Node 1, Type 0, BuildingBlock: HISSIN_clean_sbu_1, # of connection points: 8
#     Node 2, Type 0, BuildingBlock: HISSIN_clean_sbu_1, # of connection points: 8
#     Node 3, Type 0, BuildingBlock: HISSIN_clean_sbu_1, # of connection points: 8
#     Edge 4, Type (0, 0), BuildingBlock: XUDNAN_clean_linker_2, # of connection points: 2
#     Edge 5, Type (0, 0), BuildingBlock: XUDNAN_clean_linker_2, # of connection points: 2
#     Edge 6, Type (0, 0), BuildingBlock: XUDNAN_clean_linker_2, # of connection points: 2
#     Edge 7, Type (0, 0), BuildingBlock: XUDNAN_clean_linker_2, # of connection points: 2
#     Edge 8, Type (0, 0), BuildingBlock: XUDNAN_clean_linker_2, # of connection points: 2
#     Edge 9, Type (0, 0), BuildingBlock: XUDNAN_clean_linker_2, # of connection points: 2
#     Edge 10, Type (0, 0), BuildingBlock: XUDNAN_clean_linker_2, # of connection points: 2
#     Edge 11, Type (0, 0), BuildingBlock: XUDNAN_clean_linker_2, # of connection points: 2
#     Edge 12, Type (0, 0), BuildingBlock: XUDNAN_clean_linker_2, # of connection points: 2
#     Edge 13, Type (0, 0), BuildingBlock: XUDNAN_clean_linker_2, # of connection points: 2
#     Edge 14, Type (0, 0), BuildingBlock: XUDNAN_clean_linker_2, # of connection points: 2
#     Edge 15, Type (0, 0), BuildingBlock: XUDNAN_clean_linker_2, # of connection points: 2
#     Edge 16, Type (0, 0), BuildingBlock: XUDNAN_clean_linker_2, # of connection points: 2
#     Edge 17, Type (0, 0), BuildingBlock: XUDNAN_clean_linker_2, # of connection points: 2
#     Edge 18, Type (0, 0), BuildingBlock: XUDNAN_clean_linker_2, # of connection points: 2
#     Edge 19, Type (0, 0), BuildingBlock: XUDNAN_clean_linker_2, # of connection points: 2
# Relax obj value: 0.167
# Max RMSD: 0.235
# Mean RMSD: 0.235
data_MOF--net-bcg--node1-HISSIN_clean_sbu_1--edge1-XUDNAN_clean_linker_2
_symmetry_space_group_name_H-M    P1
_symmetry_Int_Tables_number       1
_symmetry_cell_setting            triclinic
loop_
_symmetry_equiv_pos_as_xyz
'x, y, z'
_cell_length_a     21.994811
_cell_length_b     17.684546
_cell_length_c     33.390108
_cell_angle_alpha  80.459764
_cell_angle_beta   90.328302
_cell_angle_gamma 90.455836
loop_
_atom_site_label
_atom_site_type_symbol
_atom_site_fract_x
_atom_site_fract_y
_atom_site_fract_z
_atom_type_partial_charge
Eu0 Eu 0.35044 0.17368 0.02788 0.0
C1 C 0.33156 0.35932 0.99717 0.0
O2 O 0.39881 0.17372 0.08808 0.0
C3 C 0.07267 0.35125 0.05618 0.0
C4 C 0.95732 0.32515 0.09075 0.0
C5 C 0.02878 0.30986 0.03781 0.0
C6 C 0.97138 0.29596 0.05554 0.0
C7 C 0.05856 0.37916 0.09204 0.0
C8 C 1.00049 0.36685 0.10922 0.0
Eu9 Eu 0.19871 0.34606 0.97674 0.0
O10 O 0.25518 0.12244 0.02667 0.0
O11 O 0.14593 0.36387 0.9178 0.0
O12 O 0.29012 0.40566 0.9786 0.0
O13 O 0.23441 0.2249 0.97891 0.0
C14 C 0.16623 0.33217 0.88758 0.0
O15 O 0.21797 0.29502 0.89229 0.0
O16 O 0.16374 0.29905 0.03636 0.0
C17 C 0.13451 0.36195 0.03989 0.0
C18 C 0.38622 0.22957 0.10828 0.0
O19 O 0.34469 0.27975 0.09371 0.0
O20 O 0.14326 0.4178 0.00914 0.0
O21 O 0.31046 0.29173 0.01347 0.0
C22 C 0.41454 0.1383 0.96865 0.0
O23 O 0.39461 0.20781 0.96947 0.0
C24 C 0.47605 0.13239 0.95247 0.0
C25 C 0.59119 0.12093 0.9193 0.0
C26 C 0.52766 0.12755 0.97768 0.0
C27 C 0.58538 0.12288 0.96079 0.0
C28 C 0.48287 0.13625 0.91026 0.0
C29 C 0.54079 0.13151 0.89295 0.0
C30 C 0.21456 0.16357 0.0033 0.0
O31 O 0.39796 0.08779 1.00035 0.0
H32 H 0.91281 0.31367 0.10437 0.0
H33 H 0.03942 0.28797 0.0103 0.0
H34 H 0.09266 0.41016 0.10659 0.0
H35 H 0.63634 0.11405 0.90775 0.0
H36 H 0.52311 0.12998 0.00975 0.0
H37 H 0.44282 0.14511 0.89112 0.0
Eu38 Eu 0.83814 0.71258 0.03333 0.0
C39 C 0.82933 0.88635 0.99439 0.0
O40 O 0.89142 0.71467 0.09094 0.0
C41 C 0.58145 0.81617 0.0542 0.0
C42 C 0.47164 0.77394 0.09458 0.0
C43 C 0.52608 0.82061 0.03246 0.0
C44 C 0.47082 0.80015 0.05258 0.0
C45 C 0.58098 0.7912 0.09646 0.0
C46 C 0.52619 0.76962 0.11657 0.0
Eu47 Eu 0.70802 0.80853 0.97602 0.0
O48 O 0.75553 0.63618 0.04495 0.0
O49 O 0.65132 0.7915 0.92216 0.0
O50 O 0.79154 0.88349 0.96405 0.0
O51 O 0.72397 0.68209 0.98079 0.0
C52 C 0.64186 0.84282 0.88964 0.0
O53 O 0.66449 0.91236 0.88744 0.0
O54 O 0.68533 0.7924 0.04041 0.0
C55 C 0.63961 0.84063 0.03372 0.0
C56 C 0.87304 0.76086 0.11543 0.0
O57 O 0.82144 0.79736 0.10776 0.0
O58 O 0.63653 0.87694 0.99594 0.0
O59 O 0.82175 0.83901 0.02851 0.0
C60 C 0.90508 0.68302 0.97407 0.0
O61 O 0.85457 0.72277 0.96841 0.0
C62 C 0.95732 0.71302 0.94841 0.0
C63 C 0.05372 0.77018 0.89729 0.0
C64 C 1.01163 0.73789 0.965 0.0
C65 C 0.06016 0.76642 0.93936 0.0
C66 C 0.95255 0.71558 0.90616 0.0
C67 C 1.00056 0.74453 0.88059 0.0
C68 C 0.7166 0.63489 0.0151 0.0
O69 O 0.91571 0.65436 0.01243 0.0
H70 H 0.42938 0.75932 0.1107 0.0
H71 H 0.52581 0.83998 0.99993 0.0
H72 H 0.62305 0.78879 0.11371 0.0
H73 H 0.09123 0.79077 0.87735 0.0
H74 H 1.01609 0.73554 0.99753 0.0
H75 H 0.91142 0.69541 0.89313 0.0
Eu76 Eu 0.3519 0.80307 0.4695 0.0
C77 C 0.32178 0.63883 0.52001 0.0
O78 O 0.40271 0.78658 0.413 0.0
C79 C 0.07437 0.66113 0.44854 0.0
C80 C 0.96587 0.70278 0.40683 0.0
C81 C 1.01869 0.65243 0.46927 0.0
C82 C 0.96414 0.67288 0.44842 0.0
C83 C 0.07521 0.68971 0.40672 0.0
C84 C 1.02112 0.71149 0.38602 0.0
Eu85 Eu 0.19075 0.68708 0.53024 0.0
O86 O 0.26926 0.87817 0.45678 0.0
O87 O 0.13089 0.7169 0.57966 0.0
O88 O 0.27684 0.6196 0.54567 0.0
O89 O 0.23766 0.80087 0.51232 0.0
C90 C 0.11416 0.66561 0.61081 0.0
O91 O 0.13026 0.59379 0.61232 0.0
O92 O 0.17102 0.70271 0.46581 0.0
C93 C 0.13245 0.645 0.47003 0.0
C94 C 0.38647 0.73146 0.393 0.0
O95 O 0.34011 0.68703 0.40598 0.0
O96 O 0.13115 0.60527 0.50711 0.0
O97 O 0.30896 0.6862 0.48644 0.0
C98 C 0.41937 0.83415 0.52884 0.0
O99 O 0.36636 0.79984 0.53417 0.0
C100 C 0.46847 0.79783 0.55525 0.0
C101 C 0.55787 0.7239 0.60734 0.0
C102 C 0.5187 0.76442 0.53929 0.0
C103 C 0.564 0.72827 0.56535 0.0
C104 C 0.46408 0.79529 0.59744 0.0
C105 C 0.50856 0.75778 0.62349 0.0
C106 C 0.22397 0.8541 0.48125 0.0
O107 O 0.4319 0.85915 0.49041 0.0
H108 H 0.924 0.7182 0.39027 0.0
H109 H 1.01782 0.63161 0.50168 0.0
H110 H 0.11802 0.69673 0.3905 0.0
H111 H 0.59342 0.69777 0.62757 0.0
H112 H 0.52277 0.7667 0.50677 0.0
H113 H 0.42605 0.82205 0.61001 0.0
Eu114 Eu 0.8281 0.32616 0.47272 0.0
C115 C 0.84983 0.14498 0.48513 0.0
O116 O 0.8517 0.38031 0.40905 0.0
C117 C 0.5934 0.20701 0.44507 0.0
C118 C 0.48211 0.2488 0.40628 0.0
C119 C 0.54266 0.22336 0.46806 0.0
C120 C 0.48627 0.24343 0.44864 0.0
C121 C 0.58752 0.21254 0.40274 0.0
C122 C 0.53224 0.23391 0.38332 0.0
Eu123 Eu 0.72736 0.19304 0.5233 0.0
O124 O 0.73664 0.38152 0.47904 0.0
O125 O 0.68155 0.14942 0.58294 0.0
O126 O 0.81759 0.13304 0.51883 0.0
O127 O 0.72341 0.30994 0.54113 0.0
C128 C 0.70388 0.16837 0.61654 0.0
O129 O 0.75639 0.20468 0.61507 0.0
O130 O 0.69693 0.23363 0.46112 0.0
C131 C 0.65291 0.18218 0.46368 0.0
C132 C 0.90276 0.3624 0.39276 0.0
O133 O 0.94104 0.31645 0.41508 0.0
O134 O 0.65281 0.13381 0.49817 0.0
O135 O 0.84185 0.20731 0.45808 0.0
C136 C 0.90767 0.35828 0.52548 0.0
O137 O 0.86339 0.30789 0.53477 0.0
C138 C 0.96744 0.3429 0.54622 0.0
C139 C 0.07748 0.33264 0.58957 0.0
C140 C 0.02357 0.34783 0.52517 0.0
C141 C 0.079 0.34313 0.54705 0.0
C142 C 0.96776 0.33115 0.58898 0.0
C143 C 1.02257 0.3262 0.61104 0.0
C144 C 0.70867 0.36963 0.51421 0.0
O145 O 0.90631 0.3931 0.4875 0.0
H146 H 0.43982 0.26658 0.39076 0.0
H147 H 0.5468 0.2196 0.50068 0.0
H148 H 0.62626 0.201 0.38477 0.0
H149 H 0.12016 0.33135 0.60602 0.0
H150 H 0.02421 0.35787 0.49227 0.0
H151 H 0.92489 0.32749 0.60506 0.0
H152 H 0.65094 0.25239 0.95512 0.0
H153 H 0.6468 0.01582 0.01474 0.0
H154 H 0.75188 0.03006 0.04076 0.0
H155 H 0.80492 0.2561 0.92344 0.0
H156 H 0.81897 0.35291 0.9317 0.0
H157 H 0.74349 0.32392 0.91914 0.0
H158 H 0.70071 0.36605 0.98419 0.0
H159 H 0.77565 0.39714 0.99634 0.0
H160 H 0.73455 0.32927 0.03276 0.0
H161 H 0.85799 0.07273 0.05954 0.0
H162 H 0.95104 0.14296 0.07521 0.0
H163 H 0.88417 0.34987 0.00131 0.0
C164 C 0.67183 0.20424 0.97449 0.0
C165 C 0.64134 0.13326 0.98357 0.0
C166 C 0.66982 0.07068 0.00811 0.0
C167 C 0.72939 0.07827 0.02259 0.0
C168 C 0.7591 0.14884 0.01201 0.0
C169 C 0.73079 0.21092 0.98894 0.0
C170 C 0.77176 0.28071 0.98176 0.0
C171 C 0.78558 0.30479 0.93631 0.0
C172 C 0.74405 0.34718 0.99986 0.0
C173 C 0.82755 0.24899 0.00495 0.0
C174 C 0.81984 0.17258 0.02187 0.0
C175 C 0.86456 0.13228 0.04619 0.0
C176 C 0.91739 0.17204 0.05454 0.0
C177 C 0.92476 0.25064 0.03845 0.0
C178 C 0.88 0.28905 0.01278 0.0
H179 H 0.13056 0.68565 0.99962 0.0
H180 H 0.12352 0.89868 0.91411 0.0
H181 H 0.22728 0.93164 0.93446 0.0
H182 H 0.21965 0.75845 0.07855 0.0
H183 H 0.26303 0.67157 0.09097 0.0
H184 H 0.18638 0.66776 0.07204 0.0
H185 H 0.22486 0.59912 0.01425 0.0
H186 H 0.30168 0.60339 0.03271 0.0
H187 H 0.2838 0.64358 0.98087 0.0
H188 H 0.33394 0.93786 0.96092 0.0
H189 H 0.43438 0.91976 0.9945 0.0
H190 H 0.37319 0.70092 0.06128 0.0
C191 C 0.15044 0.73997 0.98593 0.0
C192 C 0.11901 0.78994 0.95553 0.0
C193 C 0.14704 0.85963 0.93743 0.0
C194 C 0.20583 0.87886 0.94881 0.0
C195 C 0.23631 0.82742 0.97805 0.0
C196 C 0.20957 0.75957 0.99653 0.0
C197 C 0.25337 0.71279 0.0257 0.0
C198 C 0.22916 0.70204 0.06941 0.0
C199 C 0.26668 0.63515 0.01258 0.0
C200 C 0.30881 0.76484 0.02058 0.0
C201 C 0.29806 0.83064 0.99296 0.0
C202 C 0.34286 0.88662 0.9827 0.0
C203 C 0.39996 0.87552 0.00164 0.0
C204 C 0.41173 0.80896 0.03051 0.0
C205 C 0.36542 0.75287 0.03973 0.0
H206 H 0.63625 0.80533 0.50608 0.0
H207 H 0.6208 0.59172 0.59044 0.0
H208 H 0.72017 0.55058 0.5675 0.0
H209 H 0.71339 0.72905 0.42466 0.0
H210 H 0.76143 0.81268 0.41232 0.0
H211 H 0.68661 0.8214 0.4327 0.0
H212 H 0.73345 0.88432 0.49077 0.0
H213 H 0.80839 0.8754 0.47081 0.0
H214 H 0.79177 0.83441 0.52269 0.0
H215 H 0.82389 0.53667 0.53806 0.0
H216 H 0.92387 0.55088 0.50383 0.0
H217 H 0.87176 0.77621 0.44132 0.0
C218 C 0.65318 0.74915 0.51897 0.0
C219 C 0.6205 0.70068 0.54925 0.0
C220 C 0.64493 0.62879 0.56659 0.0
C221 C 0.70119 0.60512 0.55383 0.0
C222 C 0.7326 0.65461 0.52412 0.0
C223 C 0.70947 0.72515 0.50695 0.0
C224 C 0.7538 0.76977 0.47751 0.0
C225 C 0.72722 0.78403 0.43422 0.0
C226 C 0.77296 0.84541 0.49129 0.0
C227 C 0.80578 0.71374 0.48116 0.0
C228 C 0.79269 0.64744 0.50797 0.0
C229 C 0.83459 0.58822 0.51688 0.0
C230 C 0.89129 0.59699 0.49758 0.0
C231 C 0.90524 0.66443 0.46982 0.0
C232 C 0.86191 0.72346 0.46184 0.0
H233 H 0.12878 0.25617 0.49398 0.0
H234 H 0.1685 0.44446 0.55844 0.0
H235 H 0.27752 0.43614 0.54271 0.0
H236 H 0.25644 0.14606 0.52458 0.0
H237 H 0.27077 0.11545 0.47665 0.0
H238 H 0.19477 0.13973 0.48944 0.0
H239 H 0.18741 0.24003 0.42369 0.0
H240 H 0.26276 0.21451 0.41006 0.0
H241 H 0.2455 0.31296 0.41288 0.0
H242 H 0.3843 0.39437 0.52891 0.0
H243 H 0.47844 0.34234 0.50373 0.0
H244 H 0.36972 0.18894 0.44335 0.0
C245 C 0.16019 0.29734 0.50344 0.0
C246 C 0.14011 0.35089 0.5275 0.0
C247 C 0.1829 0.40293 0.54 0.0
C248 C 0.24503 0.39825 0.53151 0.0
C249 C 0.26394 0.34196 0.50981 0.0
C250 C 0.22265 0.29409 0.49473 0.0
C251 C 0.25528 0.23881 0.47206 0.0
C252 C 0.2436 0.15508 0.49188 0.0
C253 C 0.23664 0.25242 0.42699 0.0
C254 C 0.32109 0.2621 0.47752 0.0
C255 C 0.32522 0.32094 0.49992 0.0
C256 C 0.38149 0.34933 0.5106 0.0
C257 C 0.43479 0.31911 0.49646 0.0
C258 C 0.43143 0.26285 0.47092 0.0
C259 C 0.3737 0.23281 0.46234 0.0
H260 H 0.60357 0.66242 0.98405 0.0
H261 H 0.71402 0.48507 0.05379 0.0
H262 H 0.62839 0.39244 0.05419 0.0
H263 H 0.46353 0.60456 0.03739 0.0
H264 H 0.41669 0.62933 0.99272 0.0
H265 H 0.48684 0.68028 0.99732 0.0
H266 H 0.52187 0.64817 0.92921 0.0
H267 H 0.45356 0.59415 0.92385 0.0
H268 H 0.52671 0.54956 0.92196 0.0
H269 H 0.53231 0.31808 0.04247 0.0
H270 H 0.42929 0.27261 0.02909 0.0
H271 H 0.37988 0.50194 0.97186 0.0
C272 C 0.60969 0.60398 0.99938 0.0
C273 C 0.66534 0.58017 0.0185 0.0
C274 C 0.67155 0.50402 0.03902 0.0
C275 C 0.62339 0.45117 0.03914 0.0
C276 C 0.56935 0.47618 0.01925 0.0
C277 C 0.56188 0.55129 1.00054 0.0
C278 C 0.49849 0.56487 0.98304 0.0
C279 C 0.46436 0.62314 0.0039 0.0
C280 C 0.50034 0.59062 0.93675 0.0
C281 C 0.47162 0.48524 0.99407 0.0
C282 C 0.51331 0.43471 0.01458 0.0
C283 C 0.49908 0.35758 0.02705 0.0
C284 C 0.44021 0.33216 0.01943 0.0
C285 C 0.39591 0.38358 1.00019 0.0
C286 C 0.41251 0.46091 0.98674 0.0
H287 H 0.64088 0.47368 0.46077 0.0
H288 H 0.65723 0.37077 0.58782 0.0
H289 H 0.56465 0.43679 0.60334 0.0
H290 H 0.57902 0.65996 0.47736 0.0
H291 H 0.52721 0.66683 0.43518 0.0
H292 H 0.5982 0.61682 0.43407 0.0
H293 H 0.53957 0.49536 0.42107 0.0
H294 H 0.46958 0.54723 0.42159 0.0
H295 H 0.47924 0.45759 0.45494 0.0
H296 H 0.46766 0.50577 0.60545 0.0
H297 H 0.36897 0.57126 0.59291 0.0
H298 H 0.41369 0.63202 0.46528 0.0
C299 C 0.62567 0.46654 0.49196 0.0
C300 C 0.65677 0.41735 0.52311 0.0
C301 C 0.6345 0.40813 0.5634 0.0
C302 C 0.5818 0.4454 0.5726 0.0
C303 C 0.55176 0.49249 0.54132 0.0
C304 C 0.57267 0.50353 0.50176 0.0
C305 C 0.52918 0.55384 0.47364 0.0
C306 C 0.56027 0.62879 0.45391 0.0
C307 C 0.5029 0.51085 0.44093 0.0
C308 C 0.48071 0.56839 0.50374 0.0
C309 C 0.49506 0.53292 0.54259 0.0
C310 C 0.45601 0.53439 0.57521 0.0
C311 C 0.40003 0.57164 0.56782 0.0
C312 C 0.38369 0.60726 0.52818 0.0
C313 C 0.42522 0.60665 0.49598 0.0
H314 H 0.15761 0.03642 0.04745 0.0
H315 H 0.12515 0.2351 0.95546 0.0
H316 H 1.0209 0.1911 0.946 0.0
H317 H 0.07796 0.9064 0.99786 0.0
H318 H 0.04741 0.84974 0.04311 0.0
H319 H 0.11789 0.90138 0.04549 0.0
H320 H 0.07177 0.9707 0.10117 0.0
H321 H 1.00156 0.91858 0.09833 0.0
H322 H 1.0013 0.02172 0.09113 0.0
H323 H 0.92388 0.11896 0.94085 0.0
H324 H 0.83875 0.02545 0.94363 0.0
H325 H 0.93236 0.87512 0.04 0.0
C326 C 0.12805 0.0716 0.0261 0.0
C327 C 0.14969 0.14 0.00225 0.0
C328 C 0.10981 0.18316 0.97406 0.0
C329 C 0.05026 0.15848 0.96851 0.0
C330 C 0.03066 0.09034 0.99176 0.0
C331 C 0.06797 0.04776 0.0204 0.0
C332 C 0.03669 0.9739 0.03941 0.0
C333 C 0.07216 0.90365 0.03103 0.0
C334 C 0.02726 0.97115 0.08521 0.0
C335 C 0.97677 0.98153 0.01645 0.0
C336 C 0.97417 0.049 0.98905 0.0
C337 C 0.92501 0.06616 0.96249 0.0
C338 C 0.87711 0.01273 0.96405 0.0
C339 C 0.8789 0.94353 0.99211 0.0
C340 C 0.92927 0.92827 0.01867 0.0
H341 H 0.90982 0.03187 0.53853 0.0
H342 H 0.89677 0.13367 0.41123 0.0
H343 H 0.98269 0.05588 0.39559 0.0
H344 H 0.06526 0.03319 0.54545 0.0
H345 H 0.07451 0.94195 0.57793 0.0
H346 H 1.00495 0.99416 0.57924 0.0
H347 H 0.9432 0.87775 0.56388 0.0
H348 H 1.0118 0.82341 0.56167 0.0
H349 H 0.95998 0.83682 0.51924 0.0
H350 H 0.07796 0.98264 0.39431 0.0
H351 H 0.17663 0.91791 0.408 0.0
H352 H 0.13082 0.86013 0.53557 0.0
C353 C 0.92393 0.03594 0.50723 0.0
C354 C 0.89609 0.08894 0.47614 0.0
C355 C 0.91703 0.09374 0.43568 0.0
C356 C 0.96581 0.04938 0.42636 0.0
C357 C 0.99346 0.99957 0.45769 0.0
C358 C 0.9731 0.99182 0.4973 0.0
C359 C 1.01456 0.93863 0.52556 0.0
C360 C 0.04139 0.97942 0.55901 0.0
C361 C 0.98035 0.86481 0.54368 0.0
C362 C 0.06324 0.922 0.49605 0.0
C363 C 0.04919 0.95638 0.4569 0.0
C364 C 0.08895 0.95431 0.42473 0.0
C365 C 0.14507 0.9176 0.43281 0.0
C366 C 0.1612 0.88318 0.47273 0.0
C367 C 0.11906 0.88412 0.50459 0.0
H368 H 0.51366 0.12508 0.33476 0.0
H369 H 0.53388 0.36955 0.33251 0.0
H370 H 0.51005 0.3933 0.25902 0.0
H371 H 0.57407 0.12159 0.23053 0.0
H372 H 0.51932 0.05115 0.22002 0.0
H373 H 0.54559 0.05069 0.27131 0.0
H374 H 0.4355 0.05867 0.29568 0.0
H375 H 0.40705 0.05989 0.24492 0.0
H376 H 0.38756 0.13594 0.27221 0.0
H377 H 0.47137 0.39198 0.18947 0.0
H378 H 0.42188 0.36617 0.12666 0.0
H379 H 0.42781 0.12179 0.17171 0.0
C380 C 0.51493 0.18322 0.31827 0.0
C381 C 0.52667 0.24568 0.33868 0.0
C382 C 0.52598 0.32129 0.31691 0.0
C383 C 0.51252 0.33515 0.27529 0.0
C384 C 0.49999 0.27261 0.25599 0.0
C385 C 0.50147 0.19802 0.27657 0.0
C386 C 0.48102 0.14192 0.24923 0.0
C387 C 0.5331 0.08813 0.24238 0.0
C388 C 0.42444 0.09643 0.26656 0.0
C389 C 0.46594 0.1968 0.21056 0.0
C390 C 0.47777 0.27184 0.21518 0.0
C391 C 0.46295 0.33346 0.18519 0.0
C392 C 0.43456 0.31825 0.14974 0.0
C393 C 0.42151 0.24207 0.14437 0.0
C394 C 0.43851 0.18043 0.17481 0.0
H395 H 0.53124 0.86034 0.17485 0.0
H396 H 0.50981 0.62483 0.15677 0.0
H397 H 0.48448 0.58614 0.22947 0.0
H398 H 0.59083 0.82034 0.28236 0.0
H399 H 0.54764 0.89785 0.29661 0.0
H400 H 0.57521 0.90451 0.24539 0.0
H401 H 0.46529 0.92874 0.21772 0.0
H402 H 0.43794 0.92214 0.26887 0.0
H403 H 0.40609 0.86097 0.23591 0.0
H404 H 0.44448 0.57738 0.29961 0.0
H405 H 0.39735 0.59739 0.36389 0.0
H406 H 0.44667 0.8384 0.33813 0.0
C407 C 0.52381 0.80025 0.18685 0.0
C408 C 0.52395 0.7449 0.16091 0.0
C409 C 0.51123 0.66731 0.17672 0.0
C410 C 0.49672 0.64505 0.21783 0.0
C411 C 0.49511 0.70128 0.24257 0.0
C412 C 0.50891 0.77724 0.22783 0.0
C413 C 0.49702 0.82757 0.25954 0.0
C414 C 0.55623 0.86474 0.2717 0.0
C415 C 0.44874 0.88845 0.2446 0.0
C416 C 0.47293 0.76848 0.29401 0.0
C417 C 0.47241 0.69596 0.28359 0.0
C418 C 0.44606 0.63347 0.30854 0.0
C419 C 0.41913 0.64545 0.34488 0.0
C420 C 0.41923 0.71915 0.35617 0.0
C421 C 0.44742 0.78108 0.3307 0.0
H422 H 0.52393 0.88118 0.66122 0.0
H423 H 0.49742 0.63493 0.68365 0.0
H424 H 0.51832 0.63226 0.75684 0.0
H425 H 0.64827 0.88779 0.72283 0.0
H426 H 0.6279 0.97397 0.74166 0.0
H427 H 0.60042 0.95809 0.6929 0.0
H428 H 0.49162 0.97752 0.71651 0.0
H429 H 0.51613 0.98556 0.76739 0.0
H430 H 0.46076 0.91441 0.75974 0.0
H431 H 0.55481 0.65435 0.82478 0.0
H432 H 0.60326 0.69852 0.8833 0.0
H433 H 0.60855 0.93148 0.81688 0.0
C434 C 0.52026 0.82734 0.68197 0.0
C435 C 0.50774 0.75844 0.66745 0.0
C436 C 0.50567 0.68829 0.69478 0.0
C437 C 0.51768 0.68632 0.73619 0.0
C438 C 0.53199 0.75501 0.74949 0.0
C439 C 0.533 0.82426 0.72327 0.0
C440 C 0.55442 0.88866 0.74469 0.0
C441 C 0.61111 0.92949 0.72431 0.0
C442 C 0.50254 0.94501 0.74707 0.0
C443 C 0.56901 0.84435 0.78634 0.0
C444 C 0.55424 0.76762 0.78871 0.0
C445 C 0.56561 0.71452 0.82349 0.0
C446 C 0.59312 0.74038 0.85665 0.0
C447 C 0.60928 0.81871 0.85489 0.0
C448 C 0.59643 0.8714 0.8193 0.0
H449 H 0.64321 0.18535 0.84868 0.0
H450 H 0.4593 0.10188 0.83292 0.0
H451 H 0.47773 0.11371 0.75956 0.0
H452 H 0.6588 0.30904 0.7524 0.0
H453 H 0.737 0.28299 0.74687 0.0
H454 H 0.70562 0.28068 0.79677 0.0
H455 H 0.7375 0.13844 0.81648 0.0
H456 H 0.76856 0.13997 0.7666 0.0
H457 H 0.71174 0.06943 0.78587 0.0
H458 H 0.52238 0.1141 0.68877 0.0
H459 H 0.58449 0.12175 0.62663 0.0
H460 H 0.74053 0.19284 0.69172 0.0
C461 C 0.60678 0.16682 0.83066 0.0
C462 C 0.55 0.14065 0.84783 0.0
C463 C 0.50327 0.12246 0.82137 0.0
C464 C 0.51353 0.12808 0.77943 0.0
C465 C 0.57148 0.14833 0.76448 0.0
C466 C 0.61707 0.1681 0.78938 0.0
C467 C 0.67616 0.18546 0.76666 0.0
C468 C 0.69551 0.26954 0.76561 0.0
C469 C 0.72644 0.13001 0.78499 0.0
C470 C 0.65723 0.17069 0.72507 0.0
C471 C 0.59663 0.14965 0.7242 0.0
C472 C 0.56971 0.13109 0.68914 0.0
C473 C 0.60548 0.13513 0.65405 0.0
C474 C 0.66743 0.1579 0.65428 0.0
C475 C 0.69334 0.17541 0.69044 0.0
H476 H 0.04016 0.63349 0.32394 0.0
H477 H 0.99573 0.85727 0.35126 0.0
H478 H 0.97193 0.90263 0.27885 0.0
H479 H 0.09739 0.69918 0.21442 0.0
H480 H 0.0615 0.61668 0.1988 0.0
H481 H 0.09209 0.61015 0.24947 0.0
H482 H 0.98749 0.56132 0.27749 0.0
H483 H 0.95492 0.57296 0.22735 0.0
H484 H 0.92127 0.62045 0.26533 0.0
H485 H 0.93127 0.91405 0.2094 0.0
H486 H 0.87894 0.89257 0.14677 0.0
H487 H 0.94906 0.66107 0.16279 0.0
C488 C 0.02856 0.6931 0.314 0.0
C489 C 1.02091 0.74276 0.34243 0.0
C490 C 1.00275 0.8193 0.32937 0.0
C491 C 0.9894 0.84541 0.2884 0.0
C492 C 0.99468 0.79413 0.26108 0.0
C493 C 1.01466 0.71977 0.27318 0.0
C494 C 1.00636 0.67257 0.23959 0.0
C495 C 0.06802 0.64825 0.22467 0.0
C496 C 0.96505 0.60269 0.25335 0.0
C497 C 0.9755 0.73043 0.20758 0.0
C498 C 0.97028 0.80064 0.22035 0.0
C499 C 0.93652 0.8601 0.19857 0.0
C500 C 0.90644 0.84709 0.1633 0.0
C501 C 0.91032 0.77526 0.15013 0.0
C502 C 0.94664 0.71699 0.17188 0.0
H503 H 1.0018 0.331 0.34882 0.0
H504 H 0.82698 0.44521 0.33706 0.0
H505 H 0.83889 0.47103 0.26266 0.0
H506 H 0.07606 0.45889 0.26338 0.0
H507 H 0.11794 0.3812 0.24821 0.0
H508 H 0.09872 0.3785 0.30085 0.0
H509 H 0.04561 0.2466 0.30223 0.0
H510 H 0.06473 0.24884 0.24975 0.0
H511 H 0.98656 0.23712 0.26567 0.0
H512 H 0.86459 0.47347 0.18987 0.0
H513 H 0.90223 0.45096 0.12328 0.0
H514 H 0.061 0.3372 0.18183 0.0
C515 C 0.96652 0.3627 0.33067 0.0
C516 C 0.91339 0.38594 0.34877 0.0
C517 C 0.86811 0.42685 0.32392 0.0
C518 C 0.87439 0.44169 0.28161 0.0
C519 C 0.92655 0.41615 0.26468 0.0
C520 C 0.97222 0.37842 0.28839 0.0
C521 C 1.0224 0.35413 0.26243 0.0
C522 C 0.08233 0.39567 0.26912 0.0
C523 C 0.03024 0.26649 0.2705 0.0
C524 C 0.99679 0.38186 0.22041 0.0
C525 C 0.94181 0.41834 0.22245 0.0
C526 C 0.90775 0.44544 0.18783 0.0
C527 C 0.92947 0.4326 0.15022 0.0
C528 C 0.98458 0.39292 0.14762 0.0
C529 C 1.01941 0.36912 0.18302 0.0
H530 H 0.19438 0.26425 0.82244 0.0
H531 H 0.05583 0.40122 0.8678 0.0
H532 H 0.99623 0.40129 0.80466 0.0
H533 H 0.19167 0.35728 0.72171 0.0
H534 H 0.20334 0.27165 0.70012 0.0
H535 H 0.23163 0.2771 0.7502 0.0
H536 H 0.17161 0.15332 0.77901 0.0
H537 H 0.14289 0.14767 0.72893 0.0
H538 H 0.09079 0.14897 0.77027 0.0
H539 H 0.95601 0.39429 0.73346 0.0
H540 H 0.94394 0.39031 0.66033 0.0
H541 H 0.1051 0.24866 0.6647 0.0
C542 C 0.15133 0.29399 0.81933 0.0
C543 C 0.12988 0.33293 0.85004 0.0
C544 C 0.07329 0.37111 0.84463 0.0
C545 C 0.039 0.37123 0.80894 0.0
C546 C 0.06179 0.33258 0.77912 0.0
C547 C 0.11663 0.29447 0.78413 0.0
C548 C 0.13286 0.26038 0.74699 0.0
C549 C 0.19344 0.29362 0.72869 0.0
C550 C 0.13462 0.17236 0.75691 0.0
C551 C 0.07967 0.28746 0.71964 0.0
C552 C 0.03871 0.32827 0.7387 0.0
C553 C 0.98811 0.36291 0.71823 0.0
C554 C 0.98109 0.35924 0.67671 0.0
C555 C 0.02389 0.31985 0.65624 0.0
C556 C 0.07216 0.28085 0.67884 0.0
H557 H 0.07571 0.57627 0.68175 0.0
H558 H 0.08394 0.81168 0.61914 0.0
H559 H 0.04086 0.85566 0.67908 0.0
H560 H 0.93325 0.59899 0.74014 0.0
H561 H 0.96099 0.53497 0.78396 0.0
H562 H 0.98368 0.52241 0.7336 0.0
H563 H 0.09628 0.52747 0.75567 0.0
H564 H 0.07455 0.54337 0.8054 0.0
H565 H 0.1242 0.61084 0.77485 0.0
H566 H 1.01068 0.87606 0.74835 0.0
H567 H 0.99544 0.87063 0.82218 0.0
H568 H 1.0048 0.62284 0.84023 0.0
C569 C 0.06722 0.6369 0.68033 0.0
C570 C 0.08272 0.69046 0.64551 0.0
C571 C 0.0717 0.76941 0.64516 0.0
C572 C 0.04722 0.79502 0.67913 0.0
C573 C 0.0336 0.74098 0.71325 0.0
C574 C 0.04281 0.6635 0.71406 0.0
C575 C 0.02856 0.61803 0.75557 0.0
C576 C 0.97329 0.56541 0.75322 0.0
C577 C 0.08422 0.57228 0.77393 0.0
C578 C 1.01325 0.68235 0.77856 0.0
C579 C 1.01526 0.75275 0.75334 0.0
C580 C 1.00752 0.82121 0.76819 0.0
C581 C 0.99877 0.8177 0.81001 0.0
C582 C 0.99755 0.74633 0.83632 0.0
C583 C 1.00364 0.67782 0.82033 0.0
loop_
_geom_bond_atom_site_label_1
_geom_bond_atom_site_label_2
_geom_bond_distance
_geom_bond_site_symmetry_2
_ccdc_geom_bond_type
Eu0 O2 2.323 . S
Eu0 O10 2.328 . S
Eu0 O21 2.316 . S
Eu0 C22 2.837 1_554 S
Eu0 O23 2.488 1_554 S
Eu0 O31 2.461 . S
C1 O12 1.251 1_554 S
C1 O21 1.237 . S
O2 Eu0 2.323 . S
O2 C18 1.279 . S
C3 C5 1.383 . S
C3 C7 1.388 . S
C3 C17 1.491 . S
C4 C6 1.403 . S
C4 C8 1.385 1_655 S
C4 H32 0.931 . S
C5 C3 1.383 . S
C5 C6 1.393 1_455 S
C5 H33 0.930 1_455 S
C6 C4 1.403 . S
C6 C5 1.393 1_655 S
C7 C3 1.388 . S
C7 C8 1.394 . S
C7 H34 0.930 . S
C8 C4 1.385 1_455 S
C8 C7 1.394 . S
Eu9 O11 2.323 . S
Eu9 O12 2.328 . S
Eu9 O13 2.316 . S
Eu9 O16 2.488 1_556 S
Eu9 C17 2.837 1_556 S
Eu9 O20 2.461 . S
O10 Eu0 2.328 . S
O10 C30 1.251 1_554 S
O11 Eu9 2.323 . S
O11 C14 1.279 . S
O12 C1 1.251 1_556 S
O12 Eu9 2.328 . S
O13 Eu9 2.316 . S
O13 C30 1.237 . S
C14 O11 1.279 . S
C14 O15 1.244 . S
O15 C14 1.244 . S
O16 Eu9 2.488 1_554 S
O16 C17 1.271 . S
C17 C3 1.491 . S
C17 Eu9 2.837 1_554 S
C17 O16 1.271 . S
C17 O20 1.261 1_554 S
C18 O2 1.279 . S
C18 O19 1.244 . S
O19 C18 1.244 . S
O20 Eu9 2.461 . S
O20 C17 1.261 1_556 S
O21 Eu0 2.316 . S
O21 C1 1.237 . S
C22 Eu0 2.837 1_556 S
C22 O23 1.271 . S
C22 C24 1.491 . S
C22 O31 1.261 1_556 S
O23 Eu0 2.488 1_556 S
O23 C22 1.271 . S
C24 C22 1.491 . S
C24 C26 1.383 . S
C24 C28 1.388 . S
C25 C27 1.403 . S
C25 C29 1.385 . S
C25 H35 0.931 . S
C26 C24 1.383 . S
C26 C27 1.393 . S
C26 H36 0.930 . S
C27 C25 1.403 . S
C27 C26 1.393 . S
C28 C24 1.388 . S
C28 C29 1.394 . S
C28 H37 0.930 . S
C29 C25 1.385 . S
C29 C28 1.394 . S
C30 O10 1.251 1_556 S
C30 O13 1.237 . S
O31 Eu0 2.461 . S
O31 C22 1.261 1_554 S
H32 C4 0.931 . S
H33 C5 0.930 1_655 S
H34 C7 0.930 . S
H35 C25 0.931 . S
H36 C26 0.930 . S
H37 C28 0.930 . S
Eu38 O40 2.323 . S
Eu38 O48 2.328 . S
Eu38 O59 2.316 . S
Eu38 C60 2.837 1_554 S
Eu38 O61 2.488 1_554 S
Eu38 O69 2.461 . S
C39 O50 1.251 1_554 S
C39 O59 1.237 . S
O40 Eu38 2.323 . S
O40 C56 1.279 . S
C41 C43 1.383 . S
C41 C45 1.388 . S
C41 C55 1.491 . S
C42 C44 1.403 . S
C42 C46 1.385 . S
C42 H70 0.931 . S
C43 C41 1.383 . S
C43 C44 1.393 . S
C43 H71 0.930 . S
C44 C42 1.403 . S
C44 C43 1.393 . S
C45 C41 1.388 . S
C45 C46 1.394 . S
C45 H72 0.930 . S
C46 C42 1.385 . S
C46 C45 1.394 . S
Eu47 O49 2.323 . S
Eu47 O50 2.328 . S
Eu47 O51 2.316 . S
Eu47 O54 2.488 1_556 S
Eu47 C55 2.837 1_556 S
Eu47 O58 2.461 . S
O48 Eu38 2.328 . S
O48 C68 1.251 1_554 S
O49 Eu47 2.323 . S
O49 C52 1.279 . S
O50 C39 1.251 1_556 S
O50 Eu47 2.328 . S
O51 Eu47 2.316 . S
O51 C68 1.237 . S
C52 O49 1.279 . S
C52 O53 1.244 . S
O53 C52 1.244 . S
O54 Eu47 2.488 1_554 S
O54 C55 1.271 . S
C55 C41 1.491 . S
C55 Eu47 2.837 1_554 S
C55 O54 1.271 . S
C55 O58 1.261 1_554 S
C56 O40 1.279 . S
C56 O57 1.244 . S
O57 C56 1.244 . S
O58 Eu47 2.461 . S
O58 C55 1.261 1_556 S
O59 Eu38 2.316 . S
O59 C39 1.237 . S
C60 Eu38 2.837 1_556 S
C60 O61 1.271 . S
C60 C62 1.491 . S
C60 O69 1.261 1_556 S
O61 Eu38 2.488 1_556 S
O61 C60 1.271 . S
C62 C60 1.491 . S
C62 C64 1.383 . S
C62 C66 1.388 . S
C63 C65 1.403 . S
C63 C67 1.385 1_455 S
C63 H73 0.931 . S
C64 C62 1.383 . S
C64 C65 1.393 1_655 S
C64 H74 0.930 1_655 S
C65 C63 1.403 . S
C65 C64 1.393 1_455 S
C66 C62 1.388 . S
C66 C67 1.394 . S
C66 H75 0.930 . S
C67 C63 1.385 1_655 S
C67 C66 1.394 . S
C68 O48 1.251 1_556 S
C68 O51 1.237 . S
O69 Eu38 2.461 . S
O69 C60 1.261 1_554 S
H70 C42 0.931 . S
H71 C43 0.930 . S
H72 C45 0.930 . S
H73 C63 0.931 . S
H74 C64 0.930 1_455 S
H75 C66 0.930 . S
Eu76 O78 2.323 . S
Eu76 O86 2.328 . S
Eu76 O97 2.316 . S
Eu76 C98 2.837 . S
Eu76 O99 2.488 . S
Eu76 O107 2.461 . S
C77 O88 1.251 . S
C77 O97 1.237 . S
O78 Eu76 2.323 . S
O78 C94 1.279 . S
C79 C81 1.383 . S
C79 C83 1.388 . S
C79 C93 1.491 . S
C80 C82 1.403 . S
C80 C84 1.385 1_655 S
C80 H108 0.931 . S
C81 C79 1.383 . S
C81 C82 1.393 1_455 S
C81 H109 0.930 1_455 S
C82 C80 1.403 . S
C82 C81 1.393 1_655 S
C83 C79 1.388 . S
C83 C84 1.394 . S
C83 H110 0.930 . S
C84 C80 1.385 1_455 S
C84 C83 1.394 . S
Eu85 O87 2.323 . S
Eu85 O88 2.328 . S
Eu85 O89 2.316 . S
Eu85 O92 2.488 . S
Eu85 C93 2.837 . S
Eu85 O96 2.461 . S
O86 Eu76 2.328 . S
O86 C106 1.251 . S
O87 Eu85 2.323 . S
O87 C90 1.279 . S
O88 C77 1.251 . S
O88 Eu85 2.328 . S
O89 Eu85 2.316 . S
O89 C106 1.237 . S
C90 O87 1.279 . S
C90 O91 1.244 . S
O91 C90 1.244 . S
O92 Eu85 2.488 . S
O92 C93 1.271 . S
C93 C79 1.491 . S
C93 Eu85 2.837 . S
C93 O92 1.271 . S
C93 O96 1.261 . S
C94 O78 1.279 . S
C94 O95 1.244 . S
O95 C94 1.244 . S
O96 Eu85 2.461 . S
O96 C93 1.261 . S
O97 Eu76 2.316 . S
O97 C77 1.237 . S
C98 Eu76 2.837 . S
C98 O99 1.271 . S
C98 C100 1.491 . S
C98 O107 1.261 . S
O99 Eu76 2.488 . S
O99 C98 1.271 . S
C100 C98 1.491 . S
C100 C102 1.383 . S
C100 C104 1.388 . S
C101 C103 1.403 . S
C101 C105 1.385 . S
C101 H111 0.931 . S
C102 C100 1.383 . S
C102 C103 1.393 . S
C102 H112 0.930 . S
C103 C101 1.403 . S
C103 C102 1.393 . S
C104 C100 1.388 . S
C104 C105 1.394 . S
C104 H113 0.930 . S
C105 C101 1.385 . S
C105 C104 1.394 . S
C106 O86 1.251 . S
C106 O89 1.237 . S
O107 Eu76 2.461 . S
O107 C98 1.261 . S
H108 C80 0.931 . S
H109 C81 0.930 1_655 S
H110 C83 0.930 . S
H111 C101 0.931 . S
H112 C102 0.930 . S
H113 C104 0.930 . S
Eu114 O116 2.323 . S
Eu114 O124 2.328 . S
Eu114 O135 2.316 . S
Eu114 C136 2.837 . S
Eu114 O137 2.488 . S
Eu114 O145 2.461 . S
C115 O126 1.251 . S
C115 O135 1.237 . S
O116 Eu114 2.323 . S
O116 C132 1.279 . S
C117 C119 1.383 . S
C117 C121 1.388 . S
C117 C131 1.491 . S
C118 C120 1.403 . S
C118 C122 1.385 . S
C118 H146 0.931 . S
C119 C117 1.383 . S
C119 C120 1.393 . S
C119 H147 0.930 . S
C120 C118 1.403 . S
C120 C119 1.393 . S
C121 C117 1.388 . S
C121 C122 1.394 . S
C121 H148 0.930 . S
C122 C118 1.385 . S
C122 C121 1.394 . S
Eu123 O125 2.323 . S
Eu123 O126 2.328 . S
Eu123 O127 2.316 . S
Eu123 O130 2.488 . S
Eu123 C131 2.837 . S
Eu123 O134 2.461 . S
O124 Eu114 2.328 . S
O124 C144 1.251 . S
O125 Eu123 2.323 . S
O125 C128 1.279 . S
O126 C115 1.251 . S
O126 Eu123 2.328 . S
O127 Eu123 2.316 . S
O127 C144 1.237 . S
C128 O125 1.279 . S
C128 O129 1.244 . S
O129 C128 1.244 . S
O130 Eu123 2.488 . S
O130 C131 1.271 . S
C131 C117 1.491 . S
C131 Eu123 2.837 . S
C131 O130 1.271 . S
C131 O134 1.261 . S
C132 O116 1.279 . S
C132 O133 1.244 . S
O133 C132 1.244 . S
O134 Eu123 2.461 . S
O134 C131 1.261 . S
O135 Eu114 2.316 . S
O135 C115 1.237 . S
C136 Eu114 2.837 . S
C136 O137 1.271 . S
C136 C138 1.491 . S
C136 O145 1.261 . S
O137 Eu114 2.488 . S
O137 C136 1.271 . S
C138 C136 1.491 . S
C138 C140 1.383 . S
C138 C142 1.388 . S
C139 C141 1.403 . S
C139 C143 1.385 1_455 S
C139 H149 0.931 . S
C140 C138 1.383 . S
C140 C141 1.393 1_655 S
C140 H150 0.930 1_655 S
C141 C139 1.403 . S
C141 C140 1.393 1_455 S
C142 C138 1.388 . S
C142 C143 1.394 . S
C142 H151 0.930 . S
C143 C139 1.385 1_655 S
C143 C142 1.394 . S
C144 O124 1.251 . S
C144 O127 1.237 . S
O145 Eu114 2.461 . S
O145 C136 1.261 . S
H146 C118 0.931 . S
H147 C119 0.930 . S
H148 C121 0.930 . S
H149 C139 0.931 . S
H150 C140 0.930 1_455 S
H151 C142 0.930 . S
H152 C164 0.930 . S
H153 C166 0.930 1_554 S
H154 C167 0.930 . S
H155 C171 0.959 . S
H156 C171 0.959 . S
H157 C171 0.961 . S
H158 C172 0.960 . S
H159 C172 0.961 . S
H160 C172 0.959 . S
H161 C175 0.929 . S
H162 C176 0.931 . S
H163 C178 0.930 1_556 S
C164 H152 0.930 . S
C164 C165 1.399 . S
C164 C169 1.399 . S
C165 C164 1.399 . S
C165 C166 1.376 . S
C166 H153 0.930 1_556 S
C166 C165 1.376 . S
C166 C167 1.388 1_556 S
C167 H154 0.930 . S
C167 C166 1.388 1_554 S
C167 C168 1.390 . S
C168 C167 1.390 . S
C168 C169 1.394 1_554 S
C168 C174 1.465 . S
C169 C164 1.399 . S
C169 C168 1.394 1_556 S
C169 C170 1.516 . S
C170 C169 1.516 . S
C170 C171 1.502 . S
C170 C172 1.561 . S
C170 C173 1.526 1_556 S
C171 H155 0.959 . S
C171 H156 0.959 . S
C171 H157 0.961 . S
C171 C170 1.502 . S
C172 H158 0.960 . S
C172 H159 0.961 . S
C172 H160 0.959 . S
C172 C170 1.561 . S
C173 C170 1.526 1_554 S
C173 C174 1.396 . S
C173 C178 1.390 . S
C174 C168 1.465 . S
C174 C173 1.396 . S
C174 C175 1.399 . S
C175 H161 0.929 . S
C175 C174 1.399 . S
C175 C176 1.385 . S
C176 H162 0.931 . S
C176 C175 1.385 . S
C176 C177 1.389 . S
C177 C176 1.389 . S
C177 C178 1.387 . S
C178 H163 0.930 1_554 S
C178 C173 1.390 . S
C178 C177 1.387 . S
H179 C191 0.930 . S
H180 C193 0.930 . S
H181 C194 0.930 . S
H182 C198 0.959 . S
H183 C198 0.959 . S
H184 C198 0.961 . S
H185 C199 0.960 . S
H186 C199 0.961 . S
H187 C199 0.959 1_556 S
H188 C202 0.929 . S
H189 C203 0.931 . S
H190 C205 0.930 . S
C191 H179 0.930 . S
C191 C192 1.399 . S
C191 C196 1.399 . S
C192 C191 1.399 . S
C192 C193 1.376 . S
C193 H180 0.930 . S
C193 C192 1.376 . S
C193 C194 1.388 . S
C194 H181 0.930 . S
C194 C193 1.388 . S
C194 C195 1.390 . S
C195 C194 1.390 . S
C195 C196 1.394 . S
C195 C201 1.465 . S
C196 C191 1.399 . S
C196 C195 1.394 . S
C196 C197 1.516 1_556 S
C197 C196 1.516 1_554 S
C197 C198 1.502 . S
C197 C199 1.561 . S
C197 C200 1.526 . S
C198 H182 0.959 . S
C198 H183 0.959 . S
C198 H184 0.961 . S
C198 C197 1.502 . S
C199 H185 0.960 . S
C199 H186 0.961 . S
C199 H187 0.959 1_554 S
C199 C197 1.561 . S
C200 C197 1.526 . S
C200 C201 1.396 1_554 S
C200 C205 1.390 . S
C201 C195 1.465 . S
C201 C200 1.396 1_556 S
C201 C202 1.399 . S
C202 H188 0.929 . S
C202 C201 1.399 . S
C202 C203 1.385 1_556 S
C203 H189 0.931 . S
C203 C202 1.385 1_554 S
C203 C204 1.389 . S
C204 C203 1.389 . S
C204 C205 1.387 . S
C205 H190 0.930 . S
C205 C200 1.390 . S
C205 C204 1.387 . S
H206 C218 0.930 . S
H207 C220 0.930 . S
H208 C221 0.930 . S
H209 C225 0.959 . S
H210 C225 0.959 . S
H211 C225 0.961 . S
H212 C226 0.960 . S
H213 C226 0.961 . S
H214 C226 0.959 . S
H215 C229 0.929 . S
H216 C230 0.931 . S
H217 C232 0.930 . S
C218 H206 0.930 . S
C218 C219 1.399 . S
C218 C223 1.399 . S
C219 C218 1.399 . S
C219 C220 1.376 . S
C220 H207 0.930 . S
C220 C219 1.376 . S
C220 C221 1.388 . S
C221 H208 0.930 . S
C221 C220 1.388 . S
C221 C222 1.390 . S
C222 C221 1.390 . S
C222 C223 1.394 . S
C222 C228 1.465 . S
C223 C218 1.399 . S
C223 C222 1.394 . S
C223 C224 1.516 . S
C224 C223 1.516 . S
C224 C225 1.502 . S
C224 C226 1.561 . S
C224 C227 1.526 . S
C225 H209 0.959 . S
C225 H210 0.959 . S
C225 H211 0.961 . S
C225 C224 1.502 . S
C226 H212 0.960 . S
C226 H213 0.961 . S
C226 H214 0.959 . S
C226 C224 1.561 . S
C227 C224 1.526 . S
C227 C228 1.396 . S
C227 C232 1.390 . S
C228 C222 1.465 . S
C228 C227 1.396 . S
C228 C229 1.399 . S
C229 H215 0.929 . S
C229 C228 1.399 . S
C229 C230 1.385 . S
C230 H216 0.931 . S
C230 C229 1.385 . S
C230 C231 1.389 . S
C231 C230 1.389 . S
C231 C232 1.387 . S
C232 H217 0.930 . S
C232 C227 1.390 . S
C232 C231 1.387 . S
H233 C245 0.930 . S
H234 C247 0.930 . S
H235 C248 0.930 . S
H236 C252 0.959 . S
H237 C252 0.959 . S
H238 C252 0.961 . S
H239 C253 0.960 . S
H240 C253 0.961 . S
H241 C253 0.959 . S
H242 C256 0.929 . S
H243 C257 0.931 . S
H244 C259 0.930 . S
C245 H233 0.930 . S
C245 C246 1.399 . S
C245 C250 1.399 . S
C246 C245 1.399 . S
C246 C247 1.376 . S
C247 H234 0.930 . S
C247 C246 1.376 . S
C247 C248 1.388 . S
C248 H235 0.930 . S
C248 C247 1.388 . S
C248 C249 1.390 . S
C249 C248 1.390 . S
C249 C250 1.394 . S
C249 C255 1.465 . S
C250 C245 1.399 . S
C250 C249 1.394 . S
C250 C251 1.516 . S
C251 C250 1.516 . S
C251 C252 1.502 . S
C251 C253 1.561 . S
C251 C254 1.526 . S
C252 H236 0.959 . S
C252 H237 0.959 . S
C252 H238 0.961 . S
C252 C251 1.502 . S
C253 H239 0.960 . S
C253 H240 0.961 . S
C253 H241 0.959 . S
C253 C251 1.561 . S
C254 C251 1.526 . S
C254 C255 1.396 . S
C254 C259 1.390 . S
C255 C249 1.465 . S
C255 C254 1.396 . S
C255 C256 1.399 . S
C256 H242 0.929 . S
C256 C255 1.399 . S
C256 C257 1.385 . S
C257 H243 0.931 . S
C257 C256 1.385 . S
C257 C258 1.389 . S
C258 C257 1.389 . S
C258 C259 1.387 . S
C259 H244 0.930 . S
C259 C254 1.390 . S
C259 C258 1.387 . S
H260 C272 0.930 . S
H261 C274 0.930 . S
H262 C275 0.930 . S
H263 C279 0.959 . S
H264 C279 0.959 . S
H265 C279 0.961 . S
H266 C280 0.960 . S
H267 C280 0.961 . S
H268 C280 0.959 . S
H269 C283 0.929 . S
H270 C284 0.931 . S
H271 C286 0.930 . S
C272 H260 0.930 . S
C272 C273 1.399 1_556 S
C272 C277 1.399 . S
C273 C272 1.399 1_554 S
C273 C274 1.376 . S
C274 H261 0.930 . S
C274 C273 1.376 . S
C274 C275 1.388 . S
C275 H262 0.930 . S
C275 C274 1.388 . S
C275 C276 1.390 . S
C276 C275 1.390 . S
C276 C277 1.394 1_554 S
C276 C282 1.465 . S
C277 C272 1.399 . S
C277 C276 1.394 1_556 S
C277 C278 1.516 . S
C278 C277 1.516 . S
C278 C279 1.502 . S
C278 C280 1.561 . S
C278 C281 1.526 . S
C279 H263 0.959 . S
C279 H264 0.959 . S
C279 H265 0.961 . S
C279 C278 1.502 . S
C280 H266 0.960 . S
C280 H267 0.961 . S
C280 H268 0.959 . S
C280 C278 1.561 . S
C281 C278 1.526 . S
C281 C282 1.396 1_556 S
C281 C286 1.390 . S
C282 C276 1.465 . S
C282 C281 1.396 1_554 S
C282 C283 1.399 . S
C283 H269 0.929 . S
C283 C282 1.399 . S
C283 C284 1.385 . S
C284 H270 0.931 . S
C284 C283 1.385 . S
C284 C285 1.389 . S
C285 C284 1.389 . S
C285 C286 1.387 1_554 S
C286 H271 0.930 . S
C286 C281 1.390 . S
C286 C285 1.387 1_556 S
H287 C299 0.930 . S
H288 C301 0.930 . S
H289 C302 0.930 . S
H290 C306 0.959 . S
H291 C306 0.959 . S
H292 C306 0.961 . S
H293 C307 0.960 . S
H294 C307 0.961 . S
H295 C307 0.959 . S
H296 C310 0.929 . S
H297 C311 0.931 . S
H298 C313 0.930 . S
C299 H287 0.930 . S
C299 C300 1.399 . S
C299 C304 1.399 . S
C300 C299 1.399 . S
C300 C301 1.376 . S
C301 H288 0.930 . S
C301 C300 1.376 . S
C301 C302 1.388 . S
C302 H289 0.930 . S
C302 C301 1.388 . S
C302 C303 1.390 . S
C303 C302 1.390 . S
C303 C304 1.394 . S
C303 C309 1.465 . S
C304 C299 1.399 . S
C304 C303 1.394 . S
C304 C305 1.516 . S
C305 C304 1.516 . S
C305 C306 1.502 . S
C305 C307 1.561 . S
C305 C308 1.526 . S
C306 H290 0.959 . S
C306 H291 0.959 . S
C306 H292 0.961 . S
C306 C305 1.502 . S
C307 H293 0.960 . S
C307 H294 0.961 . S
C307 H295 0.959 . S
C307 C305 1.561 . S
C308 C305 1.526 . S
C308 C309 1.396 . S
C308 C313 1.390 . S
C309 C303 1.465 . S
C309 C308 1.396 . S
C309 C310 1.399 . S
C310 H296 0.929 . S
C310 C309 1.399 . S
C310 C311 1.385 . S
C311 H297 0.931 . S
C311 C310 1.385 . S
C311 C312 1.389 . S
C312 C311 1.389 . S
C312 C313 1.387 . S
C313 H298 0.930 . S
C313 C308 1.390 . S
C313 C312 1.387 . S
H314 C326 0.930 . S
H315 C328 0.930 . S
H316 C329 0.930 . S
H317 C333 0.959 . S
H318 C333 0.959 . S
H319 C333 0.961 . S
H320 C334 0.960 1_455 S
H321 C334 0.961 . S
H322 C334 0.959 1_545 S
H323 C337 0.929 . S
H324 C338 0.931 . S
H325 C340 0.930 . S
C326 H314 0.930 . S
C326 C327 1.399 1_554 S
C326 C331 1.399 . S
C327 C326 1.399 1_556 S
C327 C328 1.376 . S
C328 H315 0.930 . S
C328 C327 1.376 . S
C328 C329 1.388 . S
C329 H316 0.930 . S
C329 C328 1.388 . S
C329 C330 1.390 . S
C330 C329 1.390 . S
C330 C331 1.394 1_556 S
C330 C336 1.465 1_455 S
C331 C326 1.399 . S
C331 C330 1.394 1_554 S
C331 C332 1.516 1_545 S
C332 C331 1.516 1_565 S
C332 C333 1.502 . S
C332 C334 1.561 1_455 S
C332 C335 1.526 1_455 S
C333 H317 0.959 . S
C333 H318 0.959 . S
C333 H319 0.961 . S
C333 C332 1.502 . S
C334 H320 0.960 1_655 S
C334 H321 0.961 . S
C334 H322 0.959 1_565 S
C334 C332 1.561 1_655 S
C335 C332 1.526 1_655 S
C335 C336 1.396 1_564 S
C335 C340 1.390 . S
C336 C330 1.465 1_655 S
C336 C335 1.396 1_546 S
C336 C337 1.399 . S
C337 H323 0.929 . S
C337 C336 1.399 . S
C337 C338 1.385 1_545 S
C338 H324 0.931 . S
C338 C337 1.385 1_565 S
C338 C339 1.389 . S
C339 C338 1.389 . S
C339 C340 1.387 1_556 S
C340 H325 0.930 . S
C340 C335 1.390 . S
C340 C339 1.387 1_554 S
H341 C353 0.930 . S
H342 C355 0.930 . S
H343 C356 0.930 . S
H344 C360 0.959 . S
H345 C360 0.959 . S
H346 C360 0.961 . S
H347 C361 0.960 . S
H348 C361 0.961 1_455 S
H349 C361 0.959 . S
H350 C364 0.929 . S
H351 C365 0.931 . S
H352 C367 0.930 . S
C353 H341 0.930 . S
C353 C354 1.399 . S
C353 C358 1.399 . S
C354 C353 1.399 . S
C354 C355 1.376 . S
C355 H342 0.930 . S
C355 C354 1.376 . S
C355 C356 1.388 . S
C356 H343 0.930 . S
C356 C355 1.388 . S
C356 C357 1.390 . S
C357 C356 1.390 . S
C357 C358 1.394 . S
C357 C363 1.465 1_645 S
C358 C353 1.399 . S
C358 C357 1.394 . S
C358 C359 1.516 1_645 S
C359 C358 1.516 1_465 S
C359 C360 1.502 1_565 S
C359 C361 1.561 1_455 S
C359 C362 1.526 . S
C360 H344 0.959 . S
C360 H345 0.959 . S
C360 H346 0.961 . S
C360 C359 1.502 1_545 S
C361 H347 0.960 . S
C361 H348 0.961 1_655 S
C361 H349 0.959 . S
C361 C359 1.561 1_655 S
C362 C359 1.526 . S
C362 C363 1.396 . S
C362 C367 1.390 . S
C363 C357 1.465 1_465 S
C363 C362 1.396 . S
C363 C364 1.399 . S
C364 H350 0.929 . S
C364 C363 1.399 . S
C364 C365 1.385 . S
C365 H351 0.931 . S
C365 C364 1.385 . S
C365 C366 1.389 . S
C366 C365 1.389 . S
C366 C367 1.387 . S
C367 H352 0.930 . S
C367 C362 1.390 . S
C367 C366 1.387 . S
H368 C380 0.930 . S
H369 C382 0.930 . S
H370 C383 0.930 . S
H371 C387 0.959 . S
H372 C387 0.959 . S
H373 C387 0.961 . S
H374 C388 0.960 . S
H375 C388 0.961 . S
H376 C388 0.959 . S
H377 C391 0.929 . S
H378 C392 0.931 . S
H379 C394 0.930 . S
C380 H368 0.930 . S
C380 C381 1.399 . S
C380 C385 1.399 . S
C381 C380 1.399 . S
C381 C382 1.376 . S
C382 H369 0.930 . S
C382 C381 1.376 . S
C382 C383 1.388 . S
C383 H370 0.930 . S
C383 C382 1.388 . S
C383 C384 1.390 . S
C384 C383 1.390 . S
C384 C385 1.394 . S
C384 C390 1.465 . S
C385 C380 1.399 . S
C385 C384 1.394 . S
C385 C386 1.516 . S
C386 C385 1.516 . S
C386 C387 1.502 . S
C386 C388 1.561 . S
C386 C389 1.526 . S
C387 H371 0.959 . S
C387 H372 0.959 . S
C387 H373 0.961 . S
C387 C386 1.502 . S
C388 H374 0.960 . S
C388 H375 0.961 . S
C388 H376 0.959 . S
C388 C386 1.561 . S
C389 C386 1.526 . S
C389 C390 1.396 . S
C389 C394 1.390 . S
C390 C384 1.465 . S
C390 C389 1.396 . S
C390 C391 1.399 . S
C391 H377 0.929 . S
C391 C390 1.399 . S
C391 C392 1.385 . S
C392 H378 0.931 . S
C392 C391 1.385 . S
C392 C393 1.389 . S
C393 C392 1.389 . S
C393 C394 1.387 . S
C394 H379 0.930 . S
C394 C389 1.390 . S
C394 C393 1.387 . S
H395 C407 0.930 . S
H396 C409 0.930 . S
H397 C410 0.930 . S
H398 C414 0.959 . S
H399 C414 0.959 . S
H400 C414 0.961 . S
H401 C415 0.960 . S
H402 C415 0.961 . S
H403 C415 0.959 . S
H404 C418 0.929 . S
H405 C419 0.931 . S
H406 C421 0.930 . S
C407 H395 0.930 . S
C407 C408 1.399 . S
C407 C412 1.399 . S
C408 C407 1.399 . S
C408 C409 1.376 . S
C409 H396 0.930 . S
C409 C408 1.376 . S
C409 C410 1.388 . S
C410 H397 0.930 . S
C410 C409 1.388 . S
C410 C411 1.390 . S
C411 C410 1.390 . S
C411 C412 1.394 . S
C411 C417 1.465 . S
C412 C407 1.399 . S
C412 C411 1.394 . S
C412 C413 1.516 . S
C413 C412 1.516 . S
C413 C414 1.502 . S
C413 C415 1.561 . S
C413 C416 1.526 . S
C414 H398 0.959 . S
C414 H399 0.959 . S
C414 H400 0.961 . S
C414 C413 1.502 . S
C415 H401 0.960 . S
C415 H402 0.961 . S
C415 H403 0.959 . S
C415 C413 1.561 . S
C416 C413 1.526 . S
C416 C417 1.396 . S
C416 C421 1.390 . S
C417 C411 1.465 . S
C417 C416 1.396 . S
C417 C418 1.399 . S
C418 H404 0.929 . S
C418 C417 1.399 . S
C418 C419 1.385 . S
C419 H405 0.931 . S
C419 C418 1.385 . S
C419 C420 1.389 . S
C420 C419 1.389 . S
C420 C421 1.387 . S
C421 H406 0.930 . S
C421 C416 1.390 . S
C421 C420 1.387 . S
H422 C434 0.930 . S
H423 C436 0.930 . S
H424 C437 0.930 . S
H425 C441 0.959 . S
H426 C441 0.959 . S
H427 C441 0.961 . S
H428 C442 0.960 . S
H429 C442 0.961 . S
H430 C442 0.959 . S
H431 C445 0.929 . S
H432 C446 0.931 . S
H433 C448 0.930 . S
C434 H422 0.930 . S
C434 C435 1.399 . S
C434 C439 1.399 . S
C435 C434 1.399 . S
C435 C436 1.376 . S
C436 H423 0.930 . S
C436 C435 1.376 . S
C436 C437 1.388 . S
C437 H424 0.930 . S
C437 C436 1.388 . S
C437 C438 1.390 . S
C438 C437 1.390 . S
C438 C439 1.394 . S
C438 C444 1.465 . S
C439 C434 1.399 . S
C439 C438 1.394 . S
C439 C440 1.516 . S
C440 C439 1.516 . S
C440 C441 1.502 . S
C440 C442 1.561 . S
C440 C443 1.526 . S
C441 H425 0.959 . S
C441 H426 0.959 . S
C441 H427 0.961 . S
C441 C440 1.502 . S
C442 H428 0.960 . S
C442 H429 0.961 . S
C442 H430 0.959 . S
C442 C440 1.561 . S
C443 C440 1.526 . S
C443 C444 1.396 . S
C443 C448 1.390 . S
C444 C438 1.465 . S
C444 C443 1.396 . S
C444 C445 1.399 . S
C445 H431 0.929 . S
C445 C444 1.399 . S
C445 C446 1.385 . S
C446 H432 0.931 . S
C446 C445 1.385 . S
C446 C447 1.389 . S
C447 C446 1.389 . S
C447 C448 1.387 . S
C448 H433 0.930 . S
C448 C443 1.390 . S
C448 C447 1.387 . S
H449 C461 0.930 . S
H450 C463 0.930 . S
H451 C464 0.930 . S
H452 C468 0.959 . S
H453 C468 0.959 . S
H454 C468 0.961 . S
H455 C469 0.960 . S
H456 C469 0.961 . S
H457 C469 0.959 . S
H458 C472 0.929 . S
H459 C473 0.931 . S
H460 C475 0.930 . S
C461 H449 0.930 . S
C461 C462 1.399 . S
C461 C466 1.399 . S
C462 C461 1.399 . S
C462 C463 1.376 . S
C463 H450 0.930 . S
C463 C462 1.376 . S
C463 C464 1.388 . S
C464 H451 0.930 . S
C464 C463 1.388 . S
C464 C465 1.390 . S
C465 C464 1.390 . S
C465 C466 1.394 . S
C465 C471 1.465 . S
C466 C461 1.399 . S
C466 C465 1.394 . S
C466 C467 1.516 . S
C467 C466 1.516 . S
C467 C468 1.502 . S
C467 C469 1.561 . S
C467 C470 1.526 . S
C468 H452 0.959 . S
C468 H453 0.959 . S
C468 H454 0.961 . S
C468 C467 1.502 . S
C469 H455 0.960 . S
C469 H456 0.961 . S
C469 H457 0.959 . S
C469 C467 1.561 . S
C470 C467 1.526 . S
C470 C471 1.396 . S
C470 C475 1.390 . S
C471 C465 1.465 . S
C471 C470 1.396 . S
C471 C472 1.399 . S
C472 H458 0.929 . S
C472 C471 1.399 . S
C472 C473 1.385 . S
C473 H459 0.931 . S
C473 C472 1.385 . S
C473 C474 1.389 . S
C474 C473 1.389 . S
C474 C475 1.387 . S
C475 H460 0.930 . S
C475 C470 1.390 . S
C475 C474 1.387 . S
H476 C488 0.930 . S
H477 C490 0.930 . S
H478 C491 0.930 . S
H479 C495 0.959 . S
H480 C495 0.959 . S
H481 C495 0.961 . S
H482 C496 0.960 . S
H483 C496 0.961 . S
H484 C496 0.959 . S
H485 C499 0.929 . S
H486 C500 0.931 . S
H487 C502 0.930 . S
C488 H476 0.930 . S
C488 C489 1.399 . S
C488 C493 1.399 1_455 S
C489 C488 1.399 . S
C489 C490 1.376 1_455 S
C490 H477 0.930 . S
C490 C489 1.376 1_655 S
C490 C491 1.388 . S
C491 H478 0.930 . S
C491 C490 1.388 . S
C491 C492 1.390 . S
C492 C491 1.390 . S
C492 C493 1.394 . S
C492 C498 1.465 . S
C493 C488 1.399 1_655 S
C493 C492 1.394 . S
C493 C494 1.516 . S
C494 C493 1.516 . S
C494 C495 1.502 1_655 S
C494 C496 1.561 . S
C494 C497 1.526 . S
C495 H479 0.959 . S
C495 H480 0.959 . S
C495 H481 0.961 . S
C495 C494 1.502 1_455 S
C496 H482 0.960 . S
C496 H483 0.961 . S
C496 H484 0.959 . S
C496 C494 1.561 . S
C497 C494 1.526 . S
C497 C498 1.396 . S
C497 C502 1.390 . S
C498 C492 1.465 . S
C498 C497 1.396 . S
C498 C499 1.399 . S
C499 H485 0.929 . S
C499 C498 1.399 . S
C499 C500 1.385 . S
C500 H486 0.931 . S
C500 C499 1.385 . S
C500 C501 1.389 . S
C501 C500 1.389 . S
C501 C502 1.387 . S
C502 H487 0.930 . S
C502 C497 1.390 . S
C502 C501 1.387 . S
H503 C515 0.930 . S
H504 C517 0.930 . S
H505 C518 0.930 . S
H506 C522 0.959 . S
H507 C522 0.959 . S
H508 C522 0.961 . S
H509 C523 0.960 . S
H510 C523 0.961 . S
H511 C523 0.959 . S
H512 C526 0.929 . S
H513 C527 0.931 . S
H514 C529 0.930 . S
C515 H503 0.930 . S
C515 C516 1.399 . S
C515 C520 1.399 . S
C516 C515 1.399 . S
C516 C517 1.376 . S
C517 H504 0.930 . S
C517 C516 1.376 . S
C517 C518 1.388 . S
C518 H505 0.930 . S
C518 C517 1.388 . S
C518 C519 1.390 . S
C519 C518 1.390 . S
C519 C520 1.394 . S
C519 C525 1.465 . S
C520 C515 1.399 . S
C520 C519 1.394 . S
C520 C521 1.516 . S
C521 C520 1.516 . S
C521 C522 1.502 1_655 S
C521 C523 1.561 . S
C521 C524 1.526 . S
C522 H506 0.959 . S
C522 H507 0.959 . S
C522 H508 0.961 . S
C522 C521 1.502 1_455 S
C523 H509 0.960 . S
C523 H510 0.961 . S
C523 H511 0.959 . S
C523 C521 1.561 . S
C524 C521 1.526 . S
C524 C525 1.396 . S
C524 C529 1.390 1_655 S
C525 C519 1.465 . S
C525 C524 1.396 . S
C525 C526 1.399 . S
C526 H512 0.929 . S
C526 C525 1.399 . S
C526 C527 1.385 1_655 S
C527 H513 0.931 . S
C527 C526 1.385 1_455 S
C527 C528 1.389 . S
C528 C527 1.389 . S
C528 C529 1.387 . S
C529 H514 0.930 . S
C529 C524 1.390 1_455 S
C529 C528 1.387 . S
H530 C542 0.930 . S
H531 C544 0.930 . S
H532 C545 0.930 1_655 S
H533 C549 0.959 . S
H534 C549 0.959 . S
H535 C549 0.961 . S
H536 C550 0.960 . S
H537 C550 0.961 . S
H538 C550 0.959 . S
H539 C553 0.929 . S
H540 C554 0.931 . S
H541 C556 0.930 . S
C542 H530 0.930 . S
C542 C543 1.399 . S
C542 C547 1.399 . S
C543 C542 1.399 . S
C543 C544 1.376 . S
C544 H531 0.930 . S
C544 C543 1.376 . S
C544 C545 1.388 . S
C545 H532 0.930 1_455 S
C545 C544 1.388 . S
C545 C546 1.390 . S
C546 C545 1.390 . S
C546 C547 1.394 . S
C546 C552 1.465 1_455 S
C547 C542 1.399 . S
C547 C546 1.394 . S
C547 C548 1.516 . S
C548 C547 1.516 . S
C548 C549 1.502 . S
C548 C550 1.561 . S
C548 C551 1.526 . S
C549 H533 0.959 . S
C549 H534 0.959 . S
C549 H535 0.961 . S
C549 C548 1.502 . S
C550 H536 0.960 . S
C550 H537 0.961 . S
C550 H538 0.959 . S
C550 C548 1.561 . S
C551 C548 1.526 . S
C551 C552 1.396 1_455 S
C551 C556 1.390 . S
C552 C546 1.465 1_655 S
C552 C551 1.396 1_655 S
C552 C553 1.399 . S
C553 H539 0.929 . S
C553 C552 1.399 . S
C553 C554 1.385 . S
C554 H540 0.931 . S
C554 C553 1.385 . S
C554 C555 1.389 . S
C555 C554 1.389 . S
C555 C556 1.387 1_655 S
C556 H541 0.930 . S
C556 C551 1.390 . S
C556 C555 1.387 1_455 S
H557 C569 0.930 . S
H558 C571 0.930 . S
H559 C572 0.930 . S
H560 C576 0.959 . S
H561 C576 0.959 . S
H562 C576 0.961 . S
H563 C577 0.960 . S
H564 C577 0.961 . S
H565 C577 0.959 . S
H566 C580 0.929 . S
H567 C581 0.931 . S
H568 C583 0.930 . S
C569 H557 0.930 . S
C569 C570 1.399 . S
C569 C574 1.399 . S
C570 C569 1.399 . S
C570 C571 1.376 . S
C571 H558 0.930 . S
C571 C570 1.376 . S
C571 C572 1.388 . S
C572 H559 0.930 . S
C572 C571 1.388 . S
C572 C573 1.390 . S
C573 C572 1.390 . S
C573 C574 1.394 . S
C573 C579 1.465 . S
C574 C569 1.399 . S
C574 C573 1.394 . S
C574 C575 1.516 . S
C575 C574 1.516 . S
C575 C576 1.502 1_455 S
C575 C577 1.561 . S
C575 C578 1.526 . S
C576 H560 0.959 . S
C576 H561 0.959 . S
C576 H562 0.961 . S
C576 C575 1.502 1_655 S
C577 H563 0.960 . S
C577 H564 0.961 . S
C577 H565 0.959 . S
C577 C575 1.561 . S
C578 C575 1.526 . S
C578 C579 1.396 . S
C578 C583 1.390 1_455 S
C579 C573 1.465 . S
C579 C578 1.396 . S
C579 C580 1.399 . S
C580 H566 0.929 . S
C580 C579 1.399 . S
C580 C581 1.385 1_455 S
C581 H567 0.931 . S
C581 C580 1.385 1_655 S
C581 C582 1.389 . S
C582 C581 1.389 . S
C582 C583 1.387 . S
C583 H568 0.930 . S
C583 C578 1.390 1_655 S
C583 C582 1.387 . S
C165 C27 2.028 . S
C177 C6 2.048 . S
C192 C65 2.049 . S
C204 C44 2.034 . S
C219 C103 2.049 . S
C231 C82 2.033 . S
C246 C141 2.037 . S
C258 C120 2.038 . S
C273 C68 1.652 1_554 S
C285 C1 1.648 . S
C300 C144 1.641 . S
C312 C77 1.651 . S
C327 C30 1.640 . S
C339 C39 1.653 1_556 S
C354 C115 1.659 . S
C366 C106 1.640 . S
C381 C122 1.125 . S
C393 C18 1.223 . S
C408 C46 1.137 . S
C420 C94 1.236 . S
C435 C105 1.228 . S
C447 C52 1.267 . S
C462 C29 1.202 . S
C474 C128 1.208 . S
C489 C84 1.129 . S
C501 C56 1.228 . S
C516 C132 1.163 . S
C528 C8 1.151 . S
C543 C14 1.257 . S
C555 C143 1.247 . S
C570 C90 1.224 . S
C582 C67 1.159 . S
