# Generated by pormake.
# Topology unh, (4)-cn, num edge types: 1
# Building blocks:
#     Node 0, Type 0, BuildingBlock: ICAMEG_clean_sbu_1, # of connection points: 4
#     Node 1, Type 0, BuildingBlock: ICAMEG_clean_sbu_1, # of connection points: 4
#     Node 2, Type 0, BuildingBlock: ICAMEG_clean_sbu_1, # of connection points: 4
#     Node 3, Type 0, BuildingBlock: ICAMEG_clean_sbu_1, # of connection points: 4
#     Node 4, Type 0, BuildingBlock: ICAMEG_clean_sbu_1, # of connection points: 4
#     Node 5, Type 0, BuildingBlock: ICAMEG_clean_sbu_1, # of connection points: 4
#     Edge 6, Type (0, 0), BuildingBlock: EZIPEK_clean_linker_0, # of connection points: 2
#     Edge 7, Type (0, 0), BuildingBlock: EZIPEK_clean_linker_0, # of connection points: 2
#     Edge 8, Type (0, 0), BuildingBlock: EZIPEK_clean_linker_0, # of connection points: 2
#     Edge 9, Type (0, 0), BuildingBlock: EZIPEK_clean_linker_0, # of connection points: 2
#     Edge 10, Type (0, 0), BuildingBlock: EZIPEK_clean_linker_0, # of connection points: 2
#     Edge 11, Type (0, 0), BuildingBlock: EZIPEK_clean_linker_0, # of connection points: 2
#     Edge 12, Type (0, 0), BuildingBlock: EZIPEK_clean_linker_0, # of connection points: 2
#     Edge 13, Type (0, 0), BuildingBlock: EZIPEK_clean_linker_0, # of connection points: 2
#     Edge 14, Type (0, 0), BuildingBlock: EZIPEK_clean_linker_0, # of connection points: 2
#     Edge 15, Type (0, 0), BuildingBlock: EZIPEK_clean_linker_0, # of connection points: 2
#     Edge 16, Type (0, 0), BuildingBlock: EZIPEK_clean_linker_0, # of connection points: 2
#     Edge 17, Type (0, 0), BuildingBlock: EZIPEK_clean_linker_0, # of connection points: 2
# Relax obj value: 0.025
# Max RMSD: 0.111
# Mean RMSD: 0.111
data_MOF--net-unh--node1-ICAMEG_clean_sbu_1--edge1-EZIPEK_clean_linker_0
_symmetry_space_group_name_H-M    P1
_symmetry_Int_Tables_number       1
_symmetry_cell_setting            triclinic
loop_
_symmetry_equiv_pos_as_xyz
'x, y, z'
_cell_length_a     32.690065
_cell_length_b     32.765886
_cell_length_c     18.524124
_cell_angle_alpha  90.141407
_cell_angle_beta   89.695448
_cell_angle_gamma 120.02544
loop_
_atom_site_label
_atom_site_type_symbol
_atom_site_fract_x
_atom_site_fract_y
_atom_site_fract_z
_atom_type_partial_charge
Co0 Co 0.16829 0.54532 0.01872 0.0
Co1 Co 0.16293 0.61741 0.15117 0.0
O2 O 0.13337 0.56464 0.08327 0.0
C3 C 0.08256 0.53336 0.93846 0.0
O4 O 0.07124 0.54974 0.9947 0.0
C5 C 0.07329 0.54054 0.22185 0.0
O6 O 0.06689 0.51352 0.16608 0.0
O7 O 0.19863 0.58857 0.19328 0.0
O8 O 0.21728 0.56032 0.09511 0.0
H9 H 0.29791 0.73543 0.30297 0.0
H10 H 0.06578 0.47486 0.04752 0.0
O11 O 0.1198 0.52968 0.93879 0.0
H12 H 0.15415 0.39675 0.12128 0.0
H13 H 0.18779 0.4469 0.82674 0.0
H14 H 0.26989 0.5868 0.98313 0.0
H15 H 0.1959 0.47689 0.07059 0.0
H16 H 0.14305 0.46701 0.91326 0.0
O17 O 0.10993 0.58182 0.22505 0.0
H18 H 0.25914 0.6718 0.21375 0.0
H19 H 0.13027 0.6716 0.24235 0.0
H20 H 0.31614 0.56777 0.89786 0.0
H21 H 0.02273 0.39488 0.09763 0.0
H22 H 0.27502 0.49748 0.81861 0.0
H23 H 0.06685 0.35507 0.13523 0.0
O24 O 0.20494 0.61065 0.982 0.0
H25 H 0.02005 0.61909 0.05129 0.0
H26 H 0.19077 0.71382 0.09917 0.0
H27 H 0.15033 0.75076 0.0398 0.0
H28 H 0.06429 0.70339 0.01537 0.0
H29 H 0.06178 0.58353 0.11002 0.0
H30 H 0.1673 0.73476 0.33275 0.0
H31 H 0.25192 0.76747 0.36338 0.0
O32 O 0.21598 0.65533 0.07978 0.0
C33 C 0.22205 0.57204 0.16167 0.0
C34 C 0.26115 0.72189 0.28954 0.0
C35 C 0.18787 0.72143 0.30635 0.0
N36 N 0.19275 0.66871 0.22075 0.0
C37 C 0.23907 0.68604 0.23841 0.0
C38 C 0.16702 0.68556 0.25493 0.0
C39 C 0.23532 0.73975 0.32354 0.0
C40 C 0.08547 0.45815 0.06326 0.0
N41 N 0.13347 0.48106 0.05592 0.0
C42 C 0.06077 0.41262 0.0918 0.0
C43 C 0.08552 0.39032 0.11291 0.0
C44 C 0.13446 0.41367 0.10509 0.0
C45 C 0.15792 0.45919 0.07638 0.0
C46 C 0.20611 0.4776 0.861 0.0
C47 C 0.25177 0.5559 0.94935 0.0
C48 C 0.1809 0.48923 0.90999 0.0
N49 N 0.20377 0.52793 0.95345 0.0
C50 C 0.27815 0.54539 0.90099 0.0
C51 C 0.25506 0.50598 0.8565 0.0
C52 C 0.22505 0.65054 0.01385 0.0
C53 C 0.05757 0.64015 0.0616 0.0
C54 C 0.15337 0.69265 0.08851 0.0
C55 C 0.13062 0.71395 0.05504 0.0
C56 C 0.08238 0.6874 0.0414 0.0
N57 N 0.12887 0.64612 0.10817 0.0
C58 C 0.08153 0.62009 0.09501 0.0
Co59 Co 0.62329 0.15608 0.18913 0.0
Co60 Co 0.53854 0.1546 0.30266 0.0
O61 O 0.56517 0.12324 0.2452 0.0
C62 C 0.55114 0.09143 0.08512 0.0
O63 O 0.5253 0.11008 0.10384 0.0
C64 C 0.539 0.08227 0.39822 0.0
O65 O 0.58156 0.0959 0.37327 0.0
O66 O 0.60036 0.19226 0.35366 0.0
O67 O 0.65477 0.20408 0.26809 0.0
H68 H 0.53858 0.28826 0.43798 0.0
H69 H 0.58142 0.05395 0.22164 0.0
O70 O 0.59227 0.10698 0.1114 0.0
H71 H 0.74542 0.12832 0.30799 0.0
H72 H 0.74601 0.16594 0.01329 0.0
H73 H 0.69416 0.2566 0.1628 0.0
H74 H 0.71526 0.17616 0.25194 0.0
H75 H 0.67478 0.12509 0.08983 0.0
O76 O 0.517 0.10299 0.37717 0.0
H77 H 0.57221 0.25102 0.36086 0.0
H78 H 0.44681 0.11889 0.38021 0.0
H79 H 0.76615 0.29884 0.08816 0.0
H80 H 0.60992 0.00459 0.2771 0.0
H81 H 0.7923 0.25344 0.01222 0.0
H82 H 0.69257 0.04185 0.32105 0.0
O83 O 0.60035 0.19595 0.14345 0.0
H84 H 0.40676 0.00881 0.18903 0.0
H85 H 0.47107 0.17857 0.23277 0.0
H86 H 0.39778 0.13425 0.16264 0.0
H87 H 0.365 0.04864 0.14059 0.0
H88 H 0.48026 0.05491 0.25831 0.0
H89 H 0.41157 0.15419 0.45844 0.0
H90 H 0.45735 0.23963 0.48729 0.0
O91 O 0.55831 0.20668 0.22884 0.0
C92 C 0.64304 0.2118 0.33048 0.0
C93 C 0.5179 0.25116 0.42483 0.0
C94 C 0.44671 0.17594 0.43642 0.0
N95 N 0.51104 0.1835 0.36301 0.0
C96 C 0.53675 0.23012 0.38035 0.0
C97 C 0.46683 0.1562 0.39176 0.0
C98 C 0.47243 0.22384 0.45269 0.0
C99 C 0.61733 0.07029 0.24002 0.0
N100 N 0.64644 0.11783 0.23341 0.0
C101 C 0.63334 0.04222 0.27166 0.0
C102 C 0.67969 0.06314 0.29633 0.0
C103 C 0.70935 0.11163 0.28901 0.0
C104 C 0.69203 0.13854 0.25718 0.0
C105 C 0.73494 0.18611 0.04607 0.0
C106 C 0.70572 0.23656 0.13084 0.0
C107 C 0.69448 0.16317 0.08926 0.0
N108 N 0.68032 0.18842 0.13087 0.0
C109 C 0.74634 0.26069 0.08828 0.0
C110 C 0.76095 0.23521 0.0456 0.0
C111 C 0.57948 0.21729 0.16747 0.0
C112 C 0.42042 0.04599 0.19874 0.0
C113 C 0.45701 0.14132 0.22355 0.0
C114 C 0.41546 0.1164 0.1838 0.0
C115 C 0.39709 0.06839 0.17145 0.0
N116 N 0.47945 0.11898 0.25077 0.0
C117 C 0.46184 0.0721 0.23826 0.0
Co118 Co 0.39202 0.54175 0.47856 0.0
Co119 Co 0.47847 0.61924 0.35943 0.0
O120 O 0.44859 0.56237 0.41922 0.0
C121 C 0.46781 0.54961 0.57413 0.0
O122 O 0.49598 0.58965 0.54177 0.0
C123 C 0.46093 0.53909 0.26393 0.0
O124 O 0.4178 0.51607 0.29 0.0
O125 O 0.41622 0.60131 0.31411 0.0
O126 O 0.36025 0.55655 0.3966 0.0
H127 H 0.51262 0.77756 0.26119 0.0
H128 H 0.43103 0.47848 0.45283 0.0
O129 O 0.42396 0.52637 0.55843 0.0
H130 H 0.26357 0.38558 0.38439 0.0
H131 H 0.27297 0.44207 0.66861 0.0
H132 H 0.3256 0.57713 0.50324 0.0
H133 H 0.29677 0.46684 0.4298 0.0
H134 H 0.34074 0.46481 0.58669 0.0
O135 O 0.48948 0.58126 0.28381 0.0
H136 H 0.47532 0.70965 0.34212 0.0
H137 H 0.55506 0.65326 0.24794 0.0
H138 H 0.25719 0.55515 0.58351 0.0
H139 H 0.39987 0.39771 0.40676 0.0
H140 H 0.23065 0.48733 0.66729 0.0
H141 H 0.31539 0.35061 0.37192 0.0
O142 O 0.41681 0.60593 0.51866 0.0
H143 H 0.61188 0.59387 0.43492 0.0
H144 H 0.55323 0.70619 0.43074 0.0
H145 H 0.62975 0.72949 0.48746 0.0
H146 H 0.65962 0.67314 0.48996 0.0
H147 H 0.53532 0.57188 0.37962 0.0
H148 H 0.59321 0.72071 0.16575 0.0
H149 H 0.57189 0.7835 0.17116 0.0
O150 O 0.46679 0.65686 0.43615 0.0
C151 C 0.37312 0.57846 0.33568 0.0
C152 C 0.5214 0.74987 0.25698 0.0
C153 C 0.56655 0.71799 0.20347 0.0
N154 N 0.50986 0.67502 0.29732 0.0
C155 C 0.49968 0.71063 0.30243 0.0
C156 C 0.54404 0.67926 0.24979 0.0
C157 C 0.55474 0.75328 0.20669 0.0
C158 C 0.39465 0.45856 0.43677 0.0
N159 N 0.36631 0.47799 0.44181 0.0
C160 C 0.37699 0.41266 0.41119 0.0
C161 C 0.3296 0.38624 0.3918 0.0
C162 C 0.30053 0.40584 0.39876 0.0
C163 C 0.31956 0.45191 0.4244 0.0
C164 C 0.28413 0.47161 0.63224 0.0
C165 C 0.31379 0.54713 0.53872 0.0
C166 C 0.32258 0.48475 0.58585 0.0
N167 N 0.33681 0.52198 0.53967 0.0
C168 C 0.27521 0.53502 0.58436 0.0
C169 C 0.26038 0.497 0.63142 0.0
C170 C 0.44373 0.64763 0.49585 0.0
C171 C 0.59918 0.61868 0.43451 0.0
C172 C 0.56553 0.68114 0.43231 0.0
C173 C 0.60913 0.69471 0.46416 0.0
C174 C 0.62591 0.66313 0.46541 0.0
N175 N 0.53912 0.6372 0.40298 0.0
C176 C 0.55575 0.60638 0.40312 0.0
Co177 Co 0.84276 0.46722 0.52241 0.0
Co178 Co 0.85298 0.38874 0.6397 0.0
O179 O 0.87935 0.44553 0.57846 0.0
C180 C 0.91194 0.46343 0.4208 0.0
O181 O 0.90319 0.4247 0.45423 0.0
C182 C 0.93738 0.46628 0.71875 0.0
O183 O 0.94418 0.49567 0.66646 0.0
O184 O 0.80849 0.40647 0.68603 0.0
O185 O 0.79834 0.45277 0.6064 0.0
H186 H 0.7207 0.23792 0.74456 0.0
H187 H 0.94609 0.53029 0.54349 0.0
O188 O 0.8879 0.48282 0.43806 0.0
H189 H 0.87235 0.621 0.62941 0.0
H190 H 0.82202 0.56524 0.33156 0.0
H191 H 0.74142 0.44428 0.51859 0.0
H192 H 0.82351 0.54074 0.58109 0.0
H193 H 0.86697 0.54081 0.40789 0.0
O194 O 0.90186 0.42439 0.71788 0.0
H195 H 0.75616 0.30626 0.66361 0.0
H196 H 0.89212 0.34844 0.74736 0.0
H197 H 0.69516 0.46756 0.44333 0.0
H198 H 0.99637 0.61034 0.59209 0.0
H199 H 0.73527 0.5283 0.34822 0.0
H200 H 0.9595 0.65632 0.63554 0.0
O201 O 0.80179 0.40238 0.4835 0.0
H202 H 0.00662 0.41738 0.52779 0.0
H203 H 0.84409 0.29719 0.59411 0.0
H204 H 0.89658 0.27261 0.53806 0.0
H205 H 0.97855 0.33283 0.50416 0.0
H206 H 0.95336 0.44049 0.5845 0.0
H207 H 0.8582 0.28059 0.8293 0.0
H208 H 0.77174 0.22463 0.8288 0.0
O209 O 0.80461 0.35175 0.56316 0.0
C210 C 0.78908 0.43019 0.66607 0.0
C211 C 0.75838 0.26234 0.74599 0.0
C212 C 0.83545 0.28628 0.79352 0.0
N213 N 0.82618 0.33288 0.70172 0.0
C214 C 0.7787 0.30157 0.7004 0.0
C215 C 0.8545 0.32515 0.74718 0.0
C216 C 0.787 0.25485 0.79312 0.0
C217 C 0.92976 0.54993 0.56283 0.0
N218 N 0.88189 0.53057 0.56005 0.0
C219 C 0.95844 0.59533 0.59 0.0
C220 C 0.93774 0.62111 0.61426 0.0
C221 C 0.88888 0.60134 0.61078 0.0
C222 C 0.8614 0.55584 0.58322 0.0
C223 C 0.80394 0.53803 0.37182 0.0
C224 C 0.75929 0.46963 0.47655 0.0
C225 C 0.82924 0.52348 0.41493 0.0
N226 N 0.80682 0.4888 0.46564 0.0
C227 C 0.73282 0.48326 0.43445 0.0
C228 C 0.75532 0.51742 0.38131 0.0
C229 C 0.78885 0.36066 0.50569 0.0
C230 C 0.97111 0.39072 0.54291 0.0
C231 C 0.87995 0.32378 0.58119 0.0
C232 C 0.90944 0.30955 0.54873 0.0
C233 C 0.95536 0.34333 0.52959 0.0
N234 N 0.89559 0.37036 0.59474 0.0
C235 C 0.94063 0.40362 0.57557 0.0
Co236 Co 0.3949 0.85412 0.6916 0.0
Co237 Co 0.47751 0.85572 0.80875 0.0
O238 O 0.45273 0.88697 0.7482 0.0
C239 C 0.46944 0.92309 0.59354 0.0
O240 O 0.4986 0.9106 0.62047 0.0
C241 C 0.47253 0.92765 0.89879 0.0
O242 O 0.43083 0.91342 0.87075 0.0
O243 O 0.41471 0.81758 0.85661 0.0
O244 O 0.36194 0.80558 0.76984 0.0
H245 H 0.47252 0.7191 0.94013 0.0
H246 H 0.43591 0.95731 0.71297 0.0
O247 O 0.42627 0.90238 0.61328 0.0
H248 H 0.27732 0.88406 0.82357 0.0
H249 H 0.2711 0.84759 0.52377 0.0
H250 H 0.32923 0.75463 0.65029 0.0
H251 H 0.30544 0.835 0.76484 0.0
H252 H 0.34121 0.88666 0.60198 0.0
O253 O 0.49573 0.90703 0.88291 0.0
H254 H 0.44246 0.75773 0.85949 0.0
H255 H 0.56484 0.8904 0.89651 0.0
H256 H 0.25863 0.71392 0.57354 0.0
H257 H 0.40892 0.00769 0.77015 0.0
H258 H 0.22915 0.76055 0.50938 0.0
H259 H 0.32916 0.97108 0.82642 0.0
O260 O 0.41766 0.81378 0.64694 0.0
H261 H 0.61954 0.00493 0.72098 0.0
H262 H 0.5453 0.83212 0.73799 0.0
H263 H 0.62232 0.87767 0.6769 0.0
H264 H 0.66007 0.96477 0.66815 0.0
H265 H 0.5422 0.95789 0.78048 0.0
H266 H 0.59613 0.85347 0.97852 0.0
H267 H 0.54994 0.76716 1.0006 0.0
O268 O 0.46018 0.80454 0.73411 0.0
C269 C 0.3725 0.7974 0.8326 0.0
C270 C 0.49328 0.75665 0.9303 0.0
C271 C 0.56258 0.83206 0.95195 0.0
N272 N 0.50247 0.82593 0.87123 0.0
C273 C 0.47659 0.77859 0.88397 0.0
C274 C 0.54473 0.85275 0.90526 0.0
C275 C 0.53665 0.78364 0.96433 0.0
C276 C 0.401 0.94108 0.73657 0.0
N277 N 0.37247 0.89319 0.73583 0.0
C278 C 0.38597 0.96982 0.76921 0.0
C279 C 0.34127 0.94925 0.80089 0.0
C280 C 0.3122 0.90042 0.79943 0.0
C281 C 0.32845 0.87279 0.76643 0.0
C282 C 0.28331 0.82682 0.55198 0.0
C283 C 0.316 0.77496 0.62406 0.0
C284 C 0.32294 0.84873 0.59652 0.0
N285 N 0.3385 0.82274 0.63255 0.0
C286 C 0.27626 0.75181 0.58001 0.0
C287 C 0.25981 0.778 0.54389 0.0
C288 C 0.44035 0.79456 0.67192 0.0
C289 C 0.60342 0.96699 0.72426 0.0
C290 C 0.56104 0.86992 0.73354 0.0
C291 C 0.6049 0.89557 0.69931 0.0
C292 C 0.6261 0.94443 0.69456 0.0
N293 N 0.53877 0.89225 0.76202 0.0
C294 C 0.55959 0.94016 0.75808 0.0
Co295 Co 0.60897 0.45314 0.98257 0.0
Co296 Co 0.53388 0.38519 0.84676 0.0
O297 O 0.5575 0.43765 0.91533 0.0
C298 C 0.5304 0.44823 0.07008 0.0
O299 O 0.50162 0.40937 0.03565 0.0
C300 C 0.54838 0.46826 0.76292 0.0
O301 O 0.58998 0.49283 0.79307 0.0
O302 O 0.59918 0.40968 0.80809 0.0
O303 O 0.6449 0.43877 0.90712 0.0
H304 H 0.53841 0.25867 0.69824 0.0
H305 H 0.57816 0.52272 0.95483 0.0
O306 O 0.57469 0.46925 0.05782 0.0
H307 H 0.74856 0.60586 0.89908 0.0
H308 H 0.71928 0.54386 0.18595 0.0
H309 H 0.66615 0.40909 0.01961 0.0
H310 H 0.70806 0.52332 0.94095 0.0
H311 H 0.65806 0.5274 0.09497 0.0
O312 O 0.52237 0.42448 0.77595 0.0
H313 H 0.56638 0.32124 0.79022 0.0
H314 H 0.45143 0.34276 0.74718 0.0
H315 H 0.72778 0.42454 0.10935 0.0
H316 H 0.61702 0.60512 0.91279 0.0
H317 H 0.75461 0.49227 0.1935 0.0
H318 H 0.70292 0.64727 0.88447 0.0
O319 O 0.5767 0.38681 0.01667 0.0
H320 H 0.39367 0.39809 0.9279 0.0
H321 H 0.45818 0.29134 0.89983 0.0
H322 H 0.37875 0.26101 0.95232 0.0
H323 H 0.34591 0.31449 0.96656 0.0
H324 H 0.47319 0.42708 0.87677 0.0
H325 H 0.42197 0.28052 0.65436 0.0
H326 H 0.46543 0.23778 0.62957 0.0
O327 O 0.54404 0.34389 0.91699 0.0
C328 C 0.63871 0.42612 0.84073 0.0
C329 C 0.51885 0.27667 0.70897 0.0
C330 C 0.45356 0.28896 0.68436 0.0
N331 N 0.51012 0.33483 0.77565 0.0
C332 C 0.53452 0.31199 0.76138 0.0
C333 C 0.47037 0.3241 0.73719 0.0
C334 C 0.47799 0.26505 0.67038 0.0
C335 C 0.61544 0.54079 0.9426 0.0
N336 N 0.64065 0.5181 0.94978 0.0
C337 C 0.63732 0.58748 0.91884 0.0
C338 C 0.68549 0.61109 0.90296 0.0
C339 C 0.71112 0.58789 0.91117 0.0
C340 C 0.68798 0.54114 0.93485 0.0
C341 C 0.70798 0.51433 0.14946 0.0
C342 C 0.67806 0.43895 0.05548 0.0
C343 C 0.67327 0.50478 0.09789 0.0
N344 N 0.6589 0.46759 0.05154 0.0
C345 C 0.71281 0.4474 0.10639 0.0
C346 C 0.7278 0.48537 0.15365 0.0
C347 C 0.5564 0.3475 0.98318 0.0
C348 C 0.40755 0.37441 0.92196 0.0
C349 C 0.44443 0.31503 0.90653 0.0
C350 C 0.39927 0.29755 0.93591 0.0
C351 C 0.38083 0.32754 0.94376 0.0
N352 N 0.4706 0.36115 0.8857 0.0
C353 C 0.45255 0.39063 0.89273 0.0
C354 C 0.03167 0.54621 0.85205 0.0
C355 C 0.04915 0.51685 0.87679 0.0
C356 C 0.99619 0.45534 0.7928 0.0
C357 C 0.97385 0.48191 0.77627 0.0
N358 N 0.96512 0.54945 0.80218 0.0
N359 N 0.04028 0.43894 0.88028 0.0
C360 C 0.99018 0.52653 0.80929 0.0
C361 C 0.02941 0.47019 0.84979 0.0
N362 N 0.05546 0.59329 0.86783 0.0
N363 N 0.98787 0.41723 0.75208 0.0
H364 H 0.064 0.44759 0.92238 0.0
H365 H 0.02229 0.40307 0.86808 0.0
H366 H 0.96508 0.40566 0.70853 0.0
H367 H 0.00739 0.40016 0.75695 0.0
H368 H 0.04667 0.61709 0.84572 0.0
H369 H 0.08707 0.60938 0.8966 0.0
H370 H 0.97309 0.57996 0.83075 0.0
H371 H 0.93337 0.53531 0.77394 0.0
C372 C 0.49332 0.96377 0.02186 0.0
C373 C 0.49373 0.96967 0.94614 0.0
C374 C 0.53481 0.05577 0.96116 0.0
C375 C 0.53103 0.04962 0.03705 0.0
N376 N 0.49923 0.99795 0.13991 0.0
N377 N 0.50917 0.02026 0.84293 0.0
C378 C 0.5083 0.00364 0.06752 0.0
C379 C 0.5128 0.01543 0.91551 0.0
N380 N 0.47885 0.92009 0.05017 0.0
N381 N 0.56034 0.10015 0.93284 0.0
H382 H 0.49486 0.99177 0.80751 0.0
H383 H 0.51738 0.05199 0.81827 0.0
H384 H 0.57592 0.13047 0.96473 0.0
H385 H 0.56898 0.10691 0.87834 0.0
H386 H 0.4828 0.91432 0.10429 0.0
H387 H 0.46603 0.88975 0.01859 0.0
H388 H 0.47822 0.9654 0.16458 0.0
H389 H 0.50932 0.02631 0.17462 0.0
C390 C 0.49553 0.48673 0.24283 0.0
C391 C 0.47764 0.5149 0.21422 0.0
C392 C 0.48992 0.49524 0.09107 0.0
C393 C 0.51112 0.47006 0.11976 0.0
N394 N 0.539 0.44557 0.22175 0.0
N395 N 0.46244 0.55081 0.11238 0.0
C396 C 0.51535 0.46691 0.19538 0.0
C397 C 0.47608 0.52047 0.1386 0.0
N398 N 0.49262 0.47816 0.31537 0.0
N399 N 0.4826 0.49462 0.01837 0.0
H400 H 0.45076 0.56874 0.14555 0.0
H401 H 0.46558 0.56077 0.05842 0.0
H402 H 0.49391 0.47817 0.98169 0.0
H403 H 0.46266 0.50763 0.99456 0.0
H404 H 0.49997 0.45381 0.33917 0.0
H405 H 0.47958 0.49316 0.35174 0.0
H406 H 0.54833 0.4469 0.2757 0.0
H407 H 0.55207 0.42876 0.18881 0.0
C408 C 0.9652 0.45524 0.32989 0.0
C409 C 0.95149 0.48502 0.36584 0.0
C410 C 0.01602 0.55236 0.30092 0.0
C411 C 0.03436 0.52349 0.27671 0.0
N412 N 0.031 0.4483 0.28539 0.0
N413 N 0.9722 0.56652 0.39142 0.0
C414 C 0.01043 0.47522 0.29677 0.0
C415 C 0.9792 0.53482 0.35337 0.0
N416 N 0.93417 0.40804 0.32311 0.0
N417 N 0.03106 0.59563 0.27101 0.0
H418 H 0.94413 0.5581 0.42555 0.0
H419 H 0.99674 0.60253 0.39153 0.0
H420 H 0.05631 0.60976 0.23064 0.0
H421 H 0.01446 0.61526 0.28064 0.0
H422 H 0.94186 0.38579 0.29292 0.0
H423 H 0.89874 0.39259 0.33831 0.0
H424 H 0.01619 0.41381 0.30441 0.0
H425 H 0.06519 0.46212 0.26482 0.0
C426 C 0.47482 1.00147 0.43916 0.0
C427 C 0.51788 0.04387 0.45331 0.0
C428 C 0.52493 0.00904 0.56652 0.0
C429 C 0.48725 0.96441 0.54466 0.0
N430 N 0.43146 0.9167 0.45301 0.0
N431 N 0.58474 0.08801 0.53178 0.0
C432 C 0.4637 0.96019 0.47883 0.0
C433 C 0.54345 0.04747 0.51712 0.0
N434 N 0.44327 1.00067 0.39057 0.0
N435 N 0.54078 0.01573 0.63603 0.0
H436 H 0.59679 0.1189 0.50188 0.0
H437 H 0.6079 0.09033 0.57214 0.0
H438 H 0.52569 0.98944 0.67509 0.0
H439 H 0.56503 0.04854 0.65709 0.0
H440 H 0.41008 0.97121 0.38216 0.0
H441 H 0.44674 0.03106 0.36771 0.0
H442 H 0.41683 0.91155 0.40162 0.0
H443 H 0.42311 0.88542 0.47961 0.0
C444 C 0.50763 0.515 0.74481 0.0
C445 C 0.53022 0.49143 0.71472 0.0
C446 C 0.5144 0.50857 0.59276 0.0
C447 C 0.48845 0.52882 0.62272 0.0
N448 N 0.45506 0.5464 0.72625 0.0
N449 N 0.55074 0.4605 0.61137 0.0
C450 C 0.48349 0.53058 0.69856 0.0
C451 C 0.5324 0.48675 0.63901 0.0
N452 N 0.50993 0.52311 0.81751 0.0
N453 N 0.52241 0.51075 0.52005 0.0
H454 H 0.56622 0.44578 0.64339 0.0
H455 H 0.54807 0.4507 0.55734 0.0
H456 H 0.50799 0.52436 0.48411 0.0
H457 H 0.54573 0.50199 0.4956 0.0
H458 H 0.4985 0.54421 0.84227 0.0
H459 H 0.52669 0.51157 0.8529 0.0
H460 H 0.44584 0.54397 0.78057 0.0
H461 H 0.4377 0.55897 0.69398 0.0
C462 C 0.25358 0.53239 0.24265 0.0
C463 C 0.26112 0.572 0.20183 0.0
C464 C 0.3416 0.61663 0.24808 0.0
C465 C 0.33554 0.57612 0.28603 0.0
N466 N 0.29184 0.49128 0.2889 0.0
N467 N 0.31783 0.64495 0.14535 0.0
C468 C 0.29301 0.53264 0.2752 0.0
C469 C 0.30689 0.61194 0.19799 0.0
N470 N 0.20925 0.49435 0.24955 0.0
N471 N 0.37909 0.66012 0.26163 0.0
H472 H 0.2938 0.64142 0.1057 0.0
H473 H 0.35207 0.67268 0.13633 0.0
H474 H 0.40425 0.66561 0.29965 0.0
H475 H 0.3822 0.69108 0.24072 0.0
H476 H 0.20166 0.46615 0.2837 0.0
H477 H 0.17974 0.49291 0.22555 0.0
H478 H 0.26269 0.45839 0.27756 0.0
H479 H 0.32264 0.49063 0.30058 0.0
C480 C 0.71562 0.24156 0.40957 0.0
C481 C 0.68089 0.2488 0.37595 0.0
C482 C 0.71131 0.32295 0.44045 0.0
C483 C 0.75111 0.32042 0.46379 0.0
N484 N 0.79638 0.28088 0.45164 0.0
N485 N 0.65994 0.30638 0.33916 0.0
C486 C 0.75483 0.2805 0.44349 0.0
C487 C 0.68277 0.29246 0.38537 0.0
N488 N 0.71099 0.19787 0.41034 0.0
N489 N 0.69887 0.35227 0.47355 0.0
H490 H 0.64403 0.28711 0.29266 0.0
H491 H 0.66264 0.33944 0.34248 0.0
H492 H 0.71466 0.36901 0.5218 0.0
H493 H 0.66865 0.35351 0.45937 0.0
H494 H 0.73402 0.1904 0.43847 0.0
H495 H 0.68126 0.16846 0.38947 0.0
H496 H 0.80152 0.25365 0.43333 0.0
H497 H 0.82708 0.3112 0.46734 0.0
C498 C 0.43949 0.71691 0.659 0.0
C499 C 0.44279 0.75776 0.6266 0.0
C500 C 0.43902 0.72232 0.5085 0.0
C501 C 0.44579 0.6869 0.54054 0.0
N502 N 0.46273 0.65791 0.64989 0.0
N503 N 0.4582 0.80327 0.51633 0.0
C504 C 0.44947 0.68661 0.61695 0.0
C505 C 0.44659 0.76188 0.55006 0.0
N506 N 0.42296 0.70451 0.72785 0.0
N507 N 0.42097 0.71634 0.44078 0.0
H508 H 0.46784 0.83436 0.54422 0.0
H509 H 0.4639 0.80771 0.46071 0.0
H510 H 0.40804 0.6844 0.41377 0.0
H511 H 0.41243 0.73997 0.41714 0.0
H512 H 0.41705 0.6732 0.75169 0.0
H513 H 0.40835 0.72157 0.75637 0.0
H514 H 0.46902 0.65927 0.70523 0.0
H515 H 0.47265 0.63698 0.621 0.0
C516 C 0.71582 0.47159 0.77208 0.0
C517 C 0.67913 0.4283 0.80003 0.0
C518 C 0.71161 0.38652 0.73347 0.0
C519 C 0.75182 0.42985 0.71356 0.0
N520 N 0.79738 0.51387 0.73214 0.0
N521 N 0.65218 0.34655 0.82544 0.0
C522 C 0.75554 0.47265 0.73814 0.0
C523 C 0.68018 0.38631 0.78657 0.0
N524 N 0.71223 0.51124 0.77563 0.0
N525 N 0.70125 0.34603 0.69803 0.0
H526 H 0.63089 0.34627 0.86783 0.0
H527 H 0.65429 0.31594 0.82048 0.0
H528 H 0.71985 0.3464 0.65198 0.0
H529 H 0.6705 0.31402 0.70797 0.0
H530 H 0.73642 0.54284 0.75088 0.0
H531 H 0.68247 0.51092 0.79679 0.0
H532 H 0.80282 0.54558 0.75387 0.0
H533 H 0.82799 0.51487 0.71334 0.0
C534 C 0.33209 0.77059 0.9549 0.0
C535 C 0.33357 0.76201 0.87999 0.0
C536 C 0.25672 0.69044 0.89352 0.0
C537 C 0.26063 0.69259 0.97022 0.0
N538 N 0.31036 0.73587 0.07278 0.0
N539 N 0.30153 0.70448 0.78391 0.0
C540 C 0.30048 0.73306 0.00094 0.0
C541 C 0.29703 0.71932 0.85076 0.0
N542 N 0.35948 0.8148 0.9824 0.0
N543 N 0.21431 0.66239 0.86085 0.0
H544 H 0.33297 0.72146 0.75461 0.0
H545 H 0.27649 0.67187 0.76292 0.0
H546 H 0.18258 0.64502 0.88963 0.0
H547 H 0.21013 0.66217 0.80501 0.0
H548 H 0.35628 0.82358 0.03547 0.0
H549 H 0.38094 0.84379 0.95028 0.0
H550 H 0.34194 0.76238 0.0945 0.0
H551 H 0.29022 0.71003 0.10986 0.0
C552 C 0.53987 0.30304 0.09906 0.0
C553 C 0.54996 0.30531 0.02459 0.0
C554 C 0.58423 0.25466 0.04275 0.0
C555 C 0.57518 0.25256 0.11895 0.0
N556 N 0.55994 0.29139 0.21853 0.0
N557 N 0.55862 0.26322 0.92462 0.0
C558 C 0.55645 0.28071 0.14688 0.0
C559 C 0.565 0.27501 0.99592 0.0
N560 N 0.51267 0.32104 0.1236 0.0
N561 N 0.61512 0.24219 0.01452 0.0
H562 H 0.53882 0.2721 0.8913 0.0
H563 H 0.56567 0.23818 0.90211 0.0
H564 H 0.63838 0.23691 0.04548 0.0
H565 H 0.62455 0.24626 0.96006 0.0
H566 H 0.49964 0.31652 0.17619 0.0
H567 H 0.4981 0.3351 0.08842 0.0
H568 H 0.55039 0.31458 0.24113 0.0
H569 H 0.57999 0.28391 0.25313 0.0
loop_
_geom_bond_atom_site_label_1
_geom_bond_atom_site_label_2
_geom_bond_distance
_geom_bond_site_symmetry_2
_ccdc_geom_bond_type
Co0 O2 2.143 . S
Co0 O8 2.074 . S
Co0 O11 2.093 1_554 S
Co0 O24 2.097 1_554 S
Co0 N41 2.151 . S
Co0 N49 2.214 1_554 S
Co1 O2 2.160 . S
Co1 O7 2.058 . S
Co1 O17 2.057 . S
Co1 O32 2.037 . S
Co1 N36 2.145 . S
Co1 N57 2.257 . S
O2 Co0 2.143 . S
O2 Co1 2.160 . S
C3 O4 1.278 . S
C3 O11 1.224 . S
O4 C3 1.278 . S
C5 O6 1.245 . S
C5 O17 1.232 . S
O6 C5 1.245 . S
O7 Co1 2.058 . S
O7 C33 1.269 . S
O8 Co0 2.074 . S
O8 C33 1.257 . S
H9 C34 0.930 . S
H10 C40 0.930 . S
O11 Co0 2.093 1_556 S
O11 C3 1.224 . S
H12 C44 0.929 . S
H13 C46 0.930 . S
H14 C47 0.930 . S
H15 C45 0.929 . S
H16 C48 0.928 . S
O17 Co1 2.057 . S
O17 C5 1.232 . S
H18 C37 0.929 . S
H19 C38 0.929 . S
H20 C50 0.931 . S
H21 C42 0.929 . S
H22 C51 0.930 . S
H23 C43 0.931 . S
O24 Co0 2.097 1_556 S
O24 C52 1.214 1_556 S
H25 C53 0.929 . S
H26 C54 0.929 . S
H27 C55 0.930 . S
H28 C56 0.929 . S
H29 C58 0.930 . S
H30 C35 0.930 . S
H31 C39 0.930 . S
O32 Co1 2.037 . S
O32 C52 1.234 . S
C33 O7 1.269 . S
C33 O8 1.257 . S
C34 H9 0.930 . S
C34 C37 1.388 . S
C34 C39 1.418 . S
C35 H30 0.930 . S
C35 C38 1.404 . S
C35 C39 1.353 . S
N36 Co1 2.145 . S
N36 C37 1.397 . S
N36 C38 1.334 . S
C37 H18 0.929 . S
C37 C34 1.388 . S
C37 N36 1.397 . S
C38 H19 0.929 . S
C38 C35 1.404 . S
C38 N36 1.334 . S
C39 H31 0.930 . S
C39 C34 1.418 . S
C39 C35 1.353 . S
C40 H10 0.930 . S
C40 N41 1.330 . S
C40 C42 1.446 . S
N41 Co0 2.151 . S
N41 C40 1.330 . S
N41 C45 1.418 . S
C42 H21 0.929 . S
C42 C40 1.446 . S
C42 C43 1.332 . S
C43 H23 0.931 . S
C43 C42 1.332 . S
C43 C44 1.267 . S
C44 H12 0.929 . S
C44 C43 1.267 . S
C44 C45 1.251 . S
C45 H15 0.929 . S
C45 N41 1.418 . S
C45 C44 1.251 . S
C46 H13 0.930 . S
C46 C48 1.406 . S
C46 C51 1.261 . S
C47 H14 0.930 . S
C47 N49 1.325 . S
C47 C50 1.357 . S
C48 H16 0.928 . S
C48 C46 1.406 . S
C48 N49 1.261 . S
N49 Co0 2.214 1_556 S
N49 C47 1.325 . S
N49 C48 1.261 . S
C50 H20 0.931 . S
C50 C47 1.357 . S
C50 C51 1.312 . S
C51 H22 0.930 . S
C51 C46 1.261 . S
C51 C50 1.312 . S
C52 O24 1.214 1_554 S
C52 O32 1.234 . S
C53 H25 0.929 . S
C53 C56 1.391 . S
C53 C58 1.391 . S
C54 H26 0.929 . S
C54 C55 1.390 . S
C54 N57 1.391 . S
C55 H27 0.930 . S
C55 C54 1.390 . S
C55 C56 1.392 . S
C56 H28 0.929 . S
C56 C53 1.391 . S
C56 C55 1.392 . S
N57 Co1 2.257 . S
N57 C54 1.391 . S
N57 C58 1.388 . S
C58 H29 0.930 . S
C58 C53 1.391 . S
C58 N57 1.388 . S
Co59 O61 2.143 . S
Co59 O67 2.074 . S
Co59 O70 2.093 . S
Co59 O83 2.097 . S
Co59 N100 2.151 . S
Co59 N108 2.214 . S
Co60 O61 2.160 . S
Co60 O66 2.058 . S
Co60 O76 2.057 . S
Co60 O91 2.037 . S
Co60 N95 2.145 . S
Co60 N116 2.257 . S
O61 Co59 2.143 . S
O61 Co60 2.160 . S
C62 O63 1.278 . S
C62 O70 1.224 . S
O63 C62 1.278 . S
C64 O65 1.245 . S
C64 O76 1.232 . S
O65 C64 1.245 . S
O66 Co60 2.058 . S
O66 C92 1.269 . S
O67 Co59 2.074 . S
O67 C92 1.257 . S
H68 C93 0.930 . S
H69 C99 0.930 . S
O70 Co59 2.093 . S
O70 C62 1.224 . S
H71 C103 0.929 . S
H72 C105 0.930 1_556 S
H73 C106 0.930 . S
H74 C104 0.929 . S
H75 C107 0.928 . S
O76 Co60 2.057 . S
O76 C64 1.232 . S
H77 C96 0.929 . S
H78 C97 0.929 . S
H79 C109 0.931 . S
H80 C101 0.929 . S
H81 C110 0.930 1_556 S
H82 C102 0.931 . S
O83 Co59 2.097 . S
O83 C111 1.214 . S
H84 C112 0.929 . S
H85 C113 0.929 . S
H86 C114 0.930 . S
H87 C115 0.929 . S
H88 C117 0.930 . S
H89 C94 0.930 . S
H90 C98 0.930 . S
O91 Co60 2.037 . S
O91 C111 1.234 . S
C92 O66 1.269 . S
C92 O67 1.257 . S
C93 H68 0.930 . S
C93 C96 1.388 . S
C93 C98 1.418 . S
C94 H89 0.930 . S
C94 C97 1.404 . S
C94 C98 1.353 . S
N95 Co60 2.145 . S
N95 C96 1.397 . S
N95 C97 1.334 . S
C96 H77 0.929 . S
C96 C93 1.388 . S
C96 N95 1.397 . S
C97 H78 0.929 . S
C97 C94 1.404 . S
C97 N95 1.334 . S
C98 H90 0.930 . S
C98 C93 1.418 . S
C98 C94 1.353 . S
C99 H69 0.930 . S
C99 N100 1.330 . S
C99 C101 1.446 . S
N100 Co59 2.151 . S
N100 C99 1.330 . S
N100 C104 1.418 . S
C101 H80 0.929 . S
C101 C99 1.446 . S
C101 C102 1.332 . S
C102 H82 0.931 . S
C102 C101 1.332 . S
C102 C103 1.267 . S
C103 H71 0.929 . S
C103 C102 1.267 . S
C103 C104 1.251 . S
C104 H74 0.929 . S
C104 N100 1.418 . S
C104 C103 1.251 . S
C105 H72 0.930 1_554 S
C105 C107 1.406 . S
C105 C110 1.261 . S
C106 H73 0.930 . S
C106 N108 1.325 . S
C106 C109 1.357 . S
C107 H75 0.928 . S
C107 C105 1.406 . S
C107 N108 1.261 . S
N108 Co59 2.214 . S
N108 C106 1.325 . S
N108 C107 1.261 . S
C109 H79 0.931 . S
C109 C106 1.357 . S
C109 C110 1.312 . S
C110 H81 0.930 1_554 S
C110 C105 1.261 . S
C110 C109 1.312 . S
C111 O83 1.214 . S
C111 O91 1.234 . S
C112 H84 0.929 . S
C112 C115 1.391 . S
C112 C117 1.391 . S
C113 H85 0.929 . S
C113 C114 1.390 . S
C113 N116 1.391 . S
C114 H86 0.930 . S
C114 C113 1.390 . S
C114 C115 1.392 . S
C115 H87 0.929 . S
C115 C112 1.391 . S
C115 C114 1.392 . S
N116 Co60 2.257 . S
N116 C113 1.391 . S
N116 C117 1.388 . S
C117 H88 0.930 . S
C117 C112 1.391 . S
C117 N116 1.388 . S
Co118 O120 2.143 . S
Co118 O126 2.074 . S
Co118 O129 2.093 . S
Co118 O142 2.097 . S
Co118 N159 2.151 . S
Co118 N167 2.214 . S
Co119 O120 2.160 . S
Co119 O125 2.058 . S
Co119 O135 2.057 . S
Co119 O150 2.037 . S
Co119 N154 2.145 . S
Co119 N175 2.257 . S
O120 Co118 2.143 . S
O120 Co119 2.160 . S
C121 O122 1.278 . S
C121 O129 1.224 . S
O122 C121 1.278 . S
C123 O124 1.245 . S
C123 O135 1.232 . S
O124 C123 1.245 . S
O125 Co119 2.058 . S
O125 C151 1.269 . S
O126 Co118 2.074 . S
O126 C151 1.257 . S
H127 C152 0.930 . S
H128 C158 0.930 . S
O129 Co118 2.093 . S
O129 C121 1.224 . S
H130 C162 0.929 . S
H131 C164 0.930 . S
H132 C165 0.930 . S
H133 C163 0.929 . S
H134 C166 0.928 . S
O135 Co119 2.057 . S
O135 C123 1.232 . S
H136 C155 0.929 . S
H137 C156 0.929 . S
H138 C168 0.931 . S
H139 C160 0.929 . S
H140 C169 0.930 . S
H141 C161 0.931 . S
O142 Co118 2.097 . S
O142 C170 1.214 . S
H143 C171 0.929 . S
H144 C172 0.929 . S
H145 C173 0.930 . S
H146 C174 0.929 . S
H147 C176 0.930 . S
H148 C153 0.930 . S
H149 C157 0.930 . S
O150 Co119 2.037 . S
O150 C170 1.234 . S
C151 O125 1.269 . S
C151 O126 1.257 . S
C152 H127 0.930 . S
C152 C155 1.388 . S
C152 C157 1.418 . S
C153 H148 0.930 . S
C153 C156 1.404 . S
C153 C157 1.353 . S
N154 Co119 2.145 . S
N154 C155 1.397 . S
N154 C156 1.334 . S
C155 H136 0.929 . S
C155 C152 1.388 . S
C155 N154 1.397 . S
C156 H137 0.929 . S
C156 C153 1.404 . S
C156 N154 1.334 . S
C157 H149 0.930 . S
C157 C152 1.418 . S
C157 C153 1.353 . S
C158 H128 0.930 . S
C158 N159 1.330 . S
C158 C160 1.446 . S
N159 Co118 2.151 . S
N159 C158 1.330 . S
N159 C163 1.418 . S
C160 H139 0.929 . S
C160 C158 1.446 . S
C160 C161 1.332 . S
C161 H141 0.931 . S
C161 C160 1.332 . S
C161 C162 1.267 . S
C162 H130 0.929 . S
C162 C161 1.267 . S
C162 C163 1.251 . S
C163 H133 0.929 . S
C163 N159 1.418 . S
C163 C162 1.251 . S
C164 H131 0.930 . S
C164 C166 1.406 . S
C164 C169 1.261 . S
C165 H132 0.930 . S
C165 N167 1.325 . S
C165 C168 1.357 . S
C166 H134 0.928 . S
C166 C164 1.406 . S
C166 N167 1.261 . S
N167 Co118 2.214 . S
N167 C165 1.325 . S
N167 C166 1.261 . S
C168 H138 0.931 . S
C168 C165 1.357 . S
C168 C169 1.312 . S
C169 H140 0.930 . S
C169 C164 1.261 . S
C169 C168 1.312 . S
C170 O142 1.214 . S
C170 O150 1.234 . S
C171 H143 0.929 . S
C171 C174 1.391 . S
C171 C176 1.391 . S
C172 H144 0.929 . S
C172 C173 1.390 . S
C172 N175 1.391 . S
C173 H145 0.930 . S
C173 C172 1.390 . S
C173 C174 1.392 . S
C174 H146 0.929 . S
C174 C171 1.391 . S
C174 C173 1.392 . S
N175 Co119 2.257 . S
N175 C172 1.391 . S
N175 C176 1.388 . S
C176 H147 0.930 . S
C176 C171 1.391 . S
C176 N175 1.388 . S
Co177 O179 2.143 . S
Co177 O185 2.074 . S
Co177 O188 2.093 . S
Co177 O201 2.097 . S
Co177 N218 2.151 . S
Co177 N226 2.214 . S
Co178 O179 2.160 . S
Co178 O184 2.058 . S
Co178 O194 2.057 . S
Co178 O209 2.037 . S
Co178 N213 2.145 . S
Co178 N234 2.257 . S
O179 Co177 2.143 . S
O179 Co178 2.160 . S
C180 O181 1.278 . S
C180 O188 1.224 . S
O181 C180 1.278 . S
C182 O183 1.245 . S
C182 O194 1.232 . S
O183 C182 1.245 . S
O184 Co178 2.058 . S
O184 C210 1.269 . S
O185 Co177 2.074 . S
O185 C210 1.257 . S
H186 C211 0.930 . S
H187 C217 0.930 . S
O188 Co177 2.093 . S
O188 C180 1.224 . S
H189 C221 0.929 . S
H190 C223 0.930 . S
H191 C224 0.930 . S
H192 C222 0.929 . S
H193 C225 0.928 . S
O194 Co178 2.057 . S
O194 C182 1.232 . S
H195 C214 0.929 . S
H196 C215 0.929 . S
H197 C227 0.931 . S
H198 C219 0.929 . S
H199 C228 0.930 . S
H200 C220 0.931 . S
O201 Co177 2.097 . S
O201 C229 1.214 . S
H202 C230 0.929 . S
H203 C231 0.929 . S
H204 C232 0.930 . S
H205 C233 0.929 . S
H206 C235 0.930 . S
H207 C212 0.930 . S
H208 C216 0.930 . S
O209 Co178 2.037 . S
O209 C229 1.234 . S
C210 O184 1.269 . S
C210 O185 1.257 . S
C211 H186 0.930 . S
C211 C214 1.388 . S
C211 C216 1.418 . S
C212 H207 0.930 . S
C212 C215 1.404 . S
C212 C216 1.353 . S
N213 Co178 2.145 . S
N213 C214 1.397 . S
N213 C215 1.334 . S
C214 H195 0.929 . S
C214 C211 1.388 . S
C214 N213 1.397 . S
C215 H196 0.929 . S
C215 C212 1.404 . S
C215 N213 1.334 . S
C216 H208 0.930 . S
C216 C211 1.418 . S
C216 C212 1.353 . S
C217 H187 0.930 . S
C217 N218 1.330 . S
C217 C219 1.446 . S
N218 Co177 2.151 . S
N218 C217 1.330 . S
N218 C222 1.418 . S
C219 H198 0.929 . S
C219 C217 1.446 . S
C219 C220 1.332 . S
C220 H200 0.931 . S
C220 C219 1.332 . S
C220 C221 1.267 . S
C221 H189 0.929 . S
C221 C220 1.267 . S
C221 C222 1.251 . S
C222 H192 0.929 . S
C222 N218 1.418 . S
C222 C221 1.251 . S
C223 H190 0.930 . S
C223 C225 1.406 . S
C223 C228 1.261 . S
C224 H191 0.930 . S
C224 N226 1.325 . S
C224 C227 1.357 . S
C225 H193 0.928 . S
C225 C223 1.406 . S
C225 N226 1.261 . S
N226 Co177 2.214 . S
N226 C224 1.325 . S
N226 C225 1.261 . S
C227 H197 0.931 . S
C227 C224 1.357 . S
C227 C228 1.312 . S
C228 H199 0.930 . S
C228 C223 1.261 . S
C228 C227 1.312 . S
C229 O201 1.214 . S
C229 O209 1.234 . S
C230 H202 0.929 . S
C230 C233 1.391 . S
C230 C235 1.391 . S
C231 H203 0.929 . S
C231 C232 1.390 . S
C231 N234 1.391 . S
C232 H204 0.930 . S
C232 C231 1.390 . S
C232 C233 1.392 . S
C233 H205 0.929 . S
C233 C230 1.391 . S
C233 C232 1.392 . S
N234 Co178 2.257 . S
N234 C231 1.391 . S
N234 C235 1.388 . S
C235 H206 0.930 . S
C235 C230 1.391 . S
C235 N234 1.388 . S
Co236 O238 2.143 . S
Co236 O244 2.074 . S
Co236 O247 2.093 . S
Co236 O260 2.097 . S
Co236 N277 2.151 . S
Co236 N285 2.214 . S
Co237 O238 2.160 . S
Co237 O243 2.058 . S
Co237 O253 2.057 . S
Co237 O268 2.037 . S
Co237 N272 2.145 . S
Co237 N293 2.257 . S
O238 Co236 2.143 . S
O238 Co237 2.160 . S
C239 O240 1.278 . S
C239 O247 1.224 . S
O240 C239 1.278 . S
C241 O242 1.245 . S
C241 O253 1.232 . S
O242 C241 1.245 . S
O243 Co237 2.058 . S
O243 C269 1.269 . S
O244 Co236 2.074 . S
O244 C269 1.257 . S
H245 C270 0.930 . S
H246 C276 0.930 . S
O247 Co236 2.093 . S
O247 C239 1.224 . S
H248 C280 0.929 . S
H249 C282 0.930 . S
H250 C283 0.930 . S
H251 C281 0.929 . S
H252 C284 0.928 . S
O253 Co237 2.057 . S
O253 C241 1.232 . S
H254 C273 0.929 . S
H255 C274 0.929 . S
H256 C286 0.931 . S
H257 C278 0.929 . S
H258 C287 0.930 . S
H259 C279 0.931 . S
O260 Co236 2.097 . S
O260 C288 1.214 . S
H261 C289 0.929 . S
H262 C290 0.929 . S
H263 C291 0.930 . S
H264 C292 0.929 . S
H265 C294 0.930 . S
H266 C271 0.930 1_554 S
H267 C275 0.930 1_554 S
O268 Co237 2.037 . S
O268 C288 1.234 . S
C269 O243 1.269 . S
C269 O244 1.257 . S
C270 H245 0.930 . S
C270 C273 1.388 . S
C270 C275 1.418 . S
C271 H266 0.930 1_556 S
C271 C274 1.404 . S
C271 C275 1.353 . S
N272 Co237 2.145 . S
N272 C273 1.397 . S
N272 C274 1.334 . S
C273 H254 0.929 . S
C273 C270 1.388 . S
C273 N272 1.397 . S
C274 H255 0.929 . S
C274 C271 1.404 . S
C274 N272 1.334 . S
C275 H267 0.930 1_556 S
C275 C270 1.418 . S
C275 C271 1.353 . S
C276 H246 0.930 . S
C276 N277 1.330 . S
C276 C278 1.446 . S
N277 Co236 2.151 . S
N277 C276 1.330 . S
N277 C281 1.418 . S
C278 H257 0.929 . S
C278 C276 1.446 . S
C278 C279 1.332 . S
C279 H259 0.931 . S
C279 C278 1.332 . S
C279 C280 1.267 . S
C280 H248 0.929 . S
C280 C279 1.267 . S
C280 C281 1.251 . S
C281 H251 0.929 . S
C281 N277 1.418 . S
C281 C280 1.251 . S
C282 H249 0.930 . S
C282 C284 1.406 . S
C282 C287 1.261 . S
C283 H250 0.930 . S
C283 N285 1.325 . S
C283 C286 1.357 . S
C284 H252 0.928 . S
C284 C282 1.406 . S
C284 N285 1.261 . S
N285 Co236 2.214 . S
N285 C283 1.325 . S
N285 C284 1.261 . S
C286 H256 0.931 . S
C286 C283 1.357 . S
C286 C287 1.312 . S
C287 H258 0.930 . S
C287 C282 1.261 . S
C287 C286 1.312 . S
C288 O260 1.214 . S
C288 O268 1.234 . S
C289 H261 0.929 . S
C289 C292 1.391 . S
C289 C294 1.391 . S
C290 H262 0.929 . S
C290 C291 1.390 . S
C290 N293 1.391 . S
C291 H263 0.930 . S
C291 C290 1.390 . S
C291 C292 1.392 . S
C292 H264 0.929 . S
C292 C289 1.391 . S
C292 C291 1.392 . S
N293 Co237 2.257 . S
N293 C290 1.391 . S
N293 C294 1.388 . S
C294 H265 0.930 . S
C294 C289 1.391 . S
C294 N293 1.388 . S
Co295 O297 2.143 . S
Co295 O303 2.074 . S
Co295 O306 2.093 1_556 S
Co295 O319 2.097 1_556 S
Co295 N336 2.151 . S
Co295 N344 2.214 1_556 S
Co296 O297 2.160 . S
Co296 O302 2.058 . S
Co296 O312 2.057 . S
Co296 O327 2.037 . S
Co296 N331 2.145 . S
Co296 N352 2.257 . S
O297 Co295 2.143 . S
O297 Co296 2.160 . S
C298 O299 1.278 . S
C298 O306 1.224 . S
O299 C298 1.278 . S
C300 O301 1.245 . S
C300 O312 1.232 . S
O301 C300 1.245 . S
O302 Co296 2.058 . S
O302 C328 1.269 . S
O303 Co295 2.074 . S
O303 C328 1.257 . S
H304 C329 0.930 . S
H305 C335 0.930 . S
O306 Co295 2.093 1_554 S
O306 C298 1.224 . S
H307 C339 0.929 . S
H308 C341 0.930 . S
H309 C342 0.930 . S
H310 C340 0.929 . S
H311 C343 0.928 . S
O312 Co296 2.057 . S
O312 C300 1.232 . S
H313 C332 0.929 . S
H314 C333 0.929 . S
H315 C345 0.931 . S
H316 C337 0.929 . S
H317 C346 0.930 . S
H318 C338 0.931 . S
O319 Co295 2.097 1_554 S
O319 C347 1.214 1_554 S
H320 C348 0.929 . S
H321 C349 0.929 . S
H322 C350 0.930 . S
H323 C351 0.929 . S
H324 C353 0.930 . S
H325 C330 0.930 . S
H326 C334 0.930 . S
O327 Co296 2.037 . S
O327 C347 1.234 . S
C328 O302 1.269 . S
C328 O303 1.257 . S
C329 H304 0.930 . S
C329 C332 1.388 . S
C329 C334 1.418 . S
C330 H325 0.930 . S
C330 C333 1.404 . S
C330 C334 1.353 . S
N331 Co296 2.145 . S
N331 C332 1.397 . S
N331 C333 1.334 . S
C332 H313 0.929 . S
C332 C329 1.388 . S
C332 N331 1.397 . S
C333 H314 0.929 . S
C333 C330 1.404 . S
C333 N331 1.334 . S
C334 H326 0.930 . S
C334 C329 1.418 . S
C334 C330 1.353 . S
C335 H305 0.930 . S
C335 N336 1.330 . S
C335 C337 1.446 . S
N336 Co295 2.151 . S
N336 C335 1.330 . S
N336 C340 1.418 . S
C337 H316 0.929 . S
C337 C335 1.446 . S
C337 C338 1.332 . S
C338 H318 0.931 . S
C338 C337 1.332 . S
C338 C339 1.267 . S
C339 H307 0.929 . S
C339 C338 1.267 . S
C339 C340 1.251 . S
C340 H310 0.929 . S
C340 N336 1.418 . S
C340 C339 1.251 . S
C341 H308 0.930 . S
C341 C343 1.406 . S
C341 C346 1.261 . S
C342 H309 0.930 . S
C342 N344 1.325 . S
C342 C345 1.357 . S
C343 H311 0.928 . S
C343 C341 1.406 . S
C343 N344 1.261 . S
N344 Co295 2.214 1_554 S
N344 C342 1.325 . S
N344 C343 1.261 . S
C345 H315 0.931 . S
C345 C342 1.357 . S
C345 C346 1.312 . S
C346 H317 0.930 . S
C346 C341 1.261 . S
C346 C345 1.312 . S
C347 O319 1.214 1_556 S
C347 O327 1.234 . S
C348 H320 0.929 . S
C348 C351 1.391 . S
C348 C353 1.391 . S
C349 H321 0.929 . S
C349 C350 1.390 . S
C349 N352 1.391 . S
C350 H322 0.930 . S
C350 C349 1.390 . S
C350 C351 1.392 . S
C351 H323 0.929 . S
C351 C348 1.391 . S
C351 C350 1.392 . S
N352 Co296 2.257 . S
N352 C349 1.391 . S
N352 C353 1.388 . S
C353 H324 0.930 . S
C353 C348 1.391 . S
C353 N352 1.388 . S
C354 C355 1.363 . S
C354 C360 1.379 1_455 S
C354 N362 1.356 . S
C355 C354 1.363 . S
C355 C361 1.363 . S
C356 C357 1.363 . S
C356 C361 1.379 1_655 S
C356 N363 1.356 . S
C357 C356 1.363 . S
C357 C360 1.363 . S
N358 C360 1.356 . S
N358 H370 0.984 . S
N358 H371 0.985 . S
N359 C361 1.356 . S
N359 H364 0.984 . S
N359 H365 0.985 . S
C360 C354 1.379 1_655 S
C360 C357 1.363 . S
C360 N358 1.356 . S
C361 C355 1.363 . S
C361 C356 1.379 1_455 S
C361 N359 1.356 . S
N362 C354 1.356 . S
N362 H368 0.984 . S
N362 H369 0.984 . S
N363 C356 1.356 . S
N363 H366 0.984 . S
N363 H367 0.985 . S
H364 N359 0.984 . S
H365 N359 0.985 . S
H366 N363 0.984 . S
H367 N363 0.985 . S
H368 N362 0.984 . S
H369 N362 0.984 . S
H370 N358 0.984 . S
H371 N358 0.985 . S
C372 C373 1.363 1_554 S
C372 C378 1.379 . S
C372 N380 1.356 . S
C373 C372 1.363 1_556 S
C373 C379 1.363 1_565 S
C374 C375 1.363 1_556 S
C374 C379 1.379 . S
C374 N381 1.356 . S
C375 C374 1.363 1_554 S
C375 C378 1.363 1_545 S
N376 C378 1.356 1_545 S
N376 H388 0.984 1_545 S
N376 H389 0.985 . S
N377 C379 1.356 1_565 S
N377 H382 0.984 . S
N377 H383 0.985 1_565 S
C378 C372 1.379 . S
C378 C375 1.363 1_565 S
C378 N376 1.356 1_565 S
C379 C373 1.363 1_545 S
C379 C374 1.379 . S
C379 N377 1.356 1_545 S
N380 C372 1.356 . S
N380 H386 0.984 . S
N380 H387 0.984 1_554 S
N381 C374 1.356 . S
N381 H384 0.984 1_556 S
N381 H385 0.985 . S
H382 N377 0.984 . S
H383 N377 0.985 1_545 S
H384 N381 0.984 1_554 S
H385 N381 0.985 . S
H386 N380 0.984 . S
H387 N380 0.984 1_556 S
H388 N376 0.984 1_565 S
H389 N376 0.985 . S
C390 C391 1.363 . S
C390 C396 1.379 . S
C390 N398 1.356 . S
C391 C390 1.363 . S
C391 C397 1.363 . S
C392 C393 1.363 . S
C392 C397 1.379 . S
C392 N399 1.356 . S
C393 C392 1.363 . S
C393 C396 1.363 . S
N394 C396 1.356 . S
N394 H406 0.984 . S
N394 H407 0.985 . S
N395 C397 1.356 . S
N395 H400 0.984 . S
N395 H401 0.985 . S
C396 C390 1.379 . S
C396 C393 1.363 . S
C396 N394 1.356 . S
C397 C391 1.363 . S
C397 C392 1.379 . S
C397 N395 1.356 . S
N398 C390 1.356 . S
N398 H404 0.984 . S
N398 H405 0.984 . S
N399 C392 1.356 . S
N399 H402 0.984 . S
N399 H403 0.985 . S
H400 N395 0.984 . S
H401 N395 0.985 . S
H402 N399 0.984 . S
H403 N399 0.985 . S
H404 N398 0.984 . S
H405 N398 0.984 . S
H406 N394 0.984 . S
H407 N394 0.985 . S
C408 C409 1.363 . S
C408 C414 1.379 1_655 S
C408 N416 1.356 . S
C409 C408 1.363 . S
C409 C415 1.363 . S
C410 C411 1.363 . S
C410 C415 1.379 1_455 S
C410 N417 1.356 . S
C411 C410 1.363 . S
C411 C414 1.363 . S
N412 C414 1.356 . S
N412 H424 0.984 1_455 S
N412 H425 0.985 . S
N413 C415 1.356 . S
N413 H418 0.984 . S
N413 H419 0.984 1_655 S
C414 C408 1.379 1_455 S
C414 C411 1.363 . S
C414 N412 1.356 . S
C415 C409 1.363 . S
C415 C410 1.379 1_655 S
C415 N413 1.356 . S
N416 C408 1.356 . S
N416 H422 0.984 . S
N416 H423 0.984 . S
N417 C410 1.356 . S
N417 H420 0.984 . S
N417 H421 0.985 . S
H418 N413 0.984 . S
H419 N413 0.984 1_455 S
H420 N417 0.984 . S
H421 N417 0.985 . S
H422 N416 0.984 . S
H423 N416 0.984 . S
H424 N412 0.984 1_655 S
H425 N412 0.985 . S
C426 C427 1.364 1_565 S
C426 C432 1.377 . S
C426 N434 1.358 1_565 S
C427 C426 1.364 1_545 S
C427 C433 1.363 . S
C428 C429 1.367 . S
C428 C433 1.370 1_565 S
C428 N435 1.363 . S
C429 C428 1.367 . S
C429 C432 1.363 . S
N430 C432 1.356 . S
N430 H442 0.984 . S
N430 H443 0.985 . S
N431 C433 1.356 . S
N431 H436 0.984 . S
N431 H437 0.985 . S
C432 C426 1.377 . S
C432 C429 1.363 . S
C432 N430 1.356 . S
C433 C427 1.363 . S
C433 C428 1.370 1_545 S
C433 N431 1.356 . S
N434 C426 1.358 1_545 S
N434 H440 0.984 1_545 S
N434 H441 0.984 . S
N435 C428 1.363 . S
N435 H438 0.984 . S
N435 H439 0.985 1_565 S
H436 N431 0.984 . S
H437 N431 0.985 . S
H438 N435 0.984 . S
H439 N435 0.985 1_545 S
H440 N434 0.984 1_565 S
H441 N434 0.984 . S
H442 N430 0.984 . S
H443 N430 0.985 . S
C444 C445 1.363 . S
C444 C450 1.379 . S
C444 N452 1.356 . S
C445 C444 1.363 . S
C445 C451 1.363 . S
C446 C447 1.363 . S
C446 C451 1.379 . S
C446 N453 1.356 . S
C447 C446 1.363 . S
C447 C450 1.363 . S
N448 C450 1.356 . S
N448 H460 0.984 . S
N448 H461 0.985 . S
N449 C451 1.356 . S
N449 H454 0.984 . S
N449 H455 0.985 . S
C450 C444 1.379 . S
C450 C447 1.363 . S
C450 N448 1.356 . S
C451 C445 1.363 . S
C451 C446 1.379 . S
C451 N449 1.356 . S
N452 C444 1.356 . S
N452 H458 0.984 . S
N452 H459 0.984 . S
N453 C446 1.356 . S
N453 H456 0.984 . S
N453 H457 0.985 . S
H454 N449 0.984 . S
H455 N449 0.985 . S
H456 N453 0.984 . S
H457 N453 0.985 . S
H458 N452 0.984 . S
H459 N452 0.984 . S
H460 N448 0.984 . S
H461 N448 0.985 . S
C462 C463 1.363 . S
C462 C468 1.379 . S
C462 N470 1.356 . S
C463 C462 1.363 . S
C463 C469 1.363 . S
C464 C465 1.363 . S
C464 C469 1.379 . S
C464 N471 1.356 . S
C465 C464 1.363 . S
C465 C468 1.363 . S
N466 C468 1.356 . S
N466 H478 0.984 . S
N466 H479 0.985 . S
N467 C469 1.356 . S
N467 H472 0.984 . S
N467 H473 0.985 . S
C468 C462 1.379 . S
C468 C465 1.363 . S
C468 N466 1.356 . S
C469 C463 1.363 . S
C469 C464 1.379 . S
C469 N467 1.356 . S
N470 C462 1.356 . S
N470 H476 0.984 . S
N470 H477 0.984 . S
N471 C464 1.356 . S
N471 H474 0.984 . S
N471 H475 0.985 . S
H472 N467 0.984 . S
H473 N467 0.985 . S
H474 N471 0.984 . S
H475 N471 0.985 . S
H476 N470 0.984 . S
H477 N470 0.984 . S
H478 N466 0.984 . S
H479 N466 0.985 . S
C480 C481 1.363 . S
C480 C486 1.379 . S
C480 N488 1.356 . S
C481 C480 1.363 . S
C481 C487 1.363 . S
C482 C483 1.363 . S
C482 C487 1.379 . S
C482 N489 1.356 . S
C483 C482 1.363 . S
C483 C486 1.363 . S
N484 C486 1.356 . S
N484 H496 0.984 . S
N484 H497 0.985 . S
N485 C487 1.356 . S
N485 H490 0.984 . S
N485 H491 0.985 . S
C486 C480 1.379 . S
C486 C483 1.363 . S
C486 N484 1.356 . S
C487 C481 1.363 . S
C487 C482 1.379 . S
C487 N485 1.356 . S
N488 C480 1.356 . S
N488 H494 0.984 . S
N488 H495 0.984 . S
N489 C482 1.356 . S
N489 H492 0.984 . S
N489 H493 0.985 . S
H490 N485 0.984 . S
H491 N485 0.985 . S
H492 N489 0.984 . S
H493 N489 0.985 . S
H494 N488 0.984 . S
H495 N488 0.984 . S
H496 N484 0.984 . S
H497 N484 0.985 . S
C498 C499 1.363 . S
C498 C504 1.379 . S
C498 N506 1.356 . S
C499 C498 1.363 . S
C499 C505 1.363 . S
C500 C501 1.363 . S
C500 C505 1.379 . S
C500 N507 1.356 . S
C501 C500 1.363 . S
C501 C504 1.363 . S
N502 C504 1.356 . S
N502 H514 0.984 . S
N502 H515 0.985 . S
N503 C505 1.356 . S
N503 H508 0.984 . S
N503 H509 0.985 . S
C504 C498 1.379 . S
C504 C501 1.363 . S
C504 N502 1.356 . S
C505 C499 1.363 . S
C505 C500 1.379 . S
C505 N503 1.356 . S
N506 C498 1.356 . S
N506 H512 0.984 . S
N506 H513 0.984 . S
N507 C500 1.356 . S
N507 H510 0.984 . S
N507 H511 0.985 . S
H508 N503 0.984 . S
H509 N503 0.985 . S
H510 N507 0.984 . S
H511 N507 0.985 . S
H512 N506 0.984 . S
H513 N506 0.984 . S
H514 N502 0.984 . S
H515 N502 0.985 . S
C516 C517 1.363 . S
C516 C522 1.379 . S
C516 N524 1.356 . S
C517 C516 1.363 . S
C517 C523 1.363 . S
C518 C519 1.363 . S
C518 C523 1.379 . S
C518 N525 1.356 . S
C519 C518 1.363 . S
C519 C522 1.363 . S
N520 C522 1.356 . S
N520 H532 0.984 . S
N520 H533 0.985 . S
N521 C523 1.356 . S
N521 H526 0.984 . S
N521 H527 0.985 . S
C522 C516 1.379 . S
C522 C519 1.363 . S
C522 N520 1.356 . S
C523 C517 1.363 . S
C523 C518 1.379 . S
C523 N521 1.356 . S
N524 C516 1.356 . S
N524 H530 0.984 . S
N524 H531 0.984 . S
N525 C518 1.356 . S
N525 H528 0.984 . S
N525 H529 0.985 . S
H526 N521 0.984 . S
H527 N521 0.985 . S
H528 N525 0.984 . S
H529 N525 0.985 . S
H530 N524 0.984 . S
H531 N524 0.984 . S
H532 N520 0.984 . S
H533 N520 0.985 . S
C534 C535 1.363 . S
C534 C540 1.379 . S
C534 N542 1.356 . S
C535 C534 1.363 . S
C535 C541 1.363 . S
C536 C537 1.363 . S
C536 C541 1.379 . S
C536 N543 1.356 . S
C537 C536 1.363 . S
C537 C540 1.363 . S
N538 C540 1.356 1_554 S
N538 H550 0.984 . S
N538 H551 0.985 . S
N539 C541 1.356 . S
N539 H544 0.984 . S
N539 H545 0.985 . S
C540 C534 1.379 . S
C540 C537 1.363 . S
C540 N538 1.356 1_556 S
C541 C535 1.363 . S
C541 C536 1.379 . S
C541 N539 1.356 . S
N542 C534 1.356 . S
N542 H548 0.984 . S
N542 H549 0.984 . S
N543 C536 1.356 . S
N543 H546 0.984 . S
N543 H547 0.985 . S
H544 N539 0.984 . S
H545 N539 0.985 . S
H546 N543 0.984 . S
H547 N543 0.985 . S
H548 N542 0.984 . S
H549 N542 0.984 . S
H550 N538 0.984 . S
H551 N538 0.985 . S
C552 C553 1.363 . S
C552 C558 1.379 . S
C552 N560 1.356 . S
C553 C552 1.363 . S
C553 C559 1.363 . S
C554 C555 1.363 . S
C554 C559 1.379 . S
C554 N561 1.356 . S
C555 C554 1.363 . S
C555 C558 1.363 . S
N556 C558 1.356 . S
N556 H568 0.984 . S
N556 H569 0.985 . S
N557 C559 1.356 1_556 S
N557 H562 0.984 . S
N557 H563 0.985 . S
C558 C552 1.379 . S
C558 C555 1.363 . S
C558 N556 1.356 . S
C559 C553 1.363 . S
C559 C554 1.379 . S
C559 N557 1.356 1_554 S
N560 C552 1.356 . S
N560 H566 0.984 . S
N560 H567 0.984 . S
N561 C554 1.356 . S
N561 H564 0.984 . S
N561 H565 0.985 . S
H562 N557 0.984 . S
H563 N557 0.985 . S
H564 N561 0.984 . S
H565 N561 0.985 . S
H566 N560 0.984 . S
H567 N560 0.984 . S
H568 N556 0.984 . S
H569 N556 0.985 . S
C355 C3 1.338 . S
C357 C182 1.340 . S
C373 C241 1.341 . S
C375 C62 1.339 . S
C391 C123 1.340 . S
C393 C298 1.339 . S
C409 C180 1.338 . S
C411 C5 1.340 . S
C427 C64 1.341 . S
C429 C239 1.339 . S
C445 C300 1.340 . S
C447 C121 1.339 . S
C463 C33 1.538 . S
C465 C151 1.538 . S
C481 C92 1.539 . S
C483 C229 1.538 . S
C499 C288 1.539 . S
C501 C170 1.539 . S
C517 C328 1.538 . S
C519 C210 1.538 . S
C535 C269 1.539 . S
C537 C52 1.538 1_556 S
C553 C347 1.539 1_554 S
C555 C111 1.539 . S
