# Generated by pormake.
# Topology vmg, (6)-cn, num edge types: 1
# Building blocks:
#     Node 0, Type 0, BuildingBlock: MIDCAF_clean_sbu_0, # of connection points: 6
#     Node 1, Type 0, BuildingBlock: MIDCAF_clean_sbu_0, # of connection points: 6
#     Node 2, Type 0, BuildingBlock: MIDCAF_clean_sbu_0, # of connection points: 6
#     Node 3, Type 0, BuildingBlock: MIDCAF_clean_sbu_0, # of connection points: 6
#     Node 4, Type 0, BuildingBlock: MIDCAF_clean_sbu_0, # of connection points: 6
#     Node 5, Type 0, BuildingBlock: MIDCAF_clean_sbu_0, # of connection points: 6
#     Node 6, Type 0, BuildingBlock: MIDCAF_clean_sbu_0, # of connection points: 6
#     Node 7, Type 0, BuildingBlock: MIDCAF_clean_sbu_0, # of connection points: 6
#     Edge 8, Type (0, 0), BuildingBlock: XIVTED_clean_linker_0, # of connection points: 2
#     Edge 9, Type (0, 0), BuildingBlock: XIVTED_clean_linker_0, # of connection points: 2
#     Edge 10, Type (0, 0), BuildingBlock: XIVTED_clean_linker_0, # of connection points: 2
#     Edge 11, Type (0, 0), BuildingBlock: XIVTED_clean_linker_0, # of connection points: 2
#     Edge 12, Type (0, 0), BuildingBlock: XIVTED_clean_linker_0, # of connection points: 2
#     Edge 13, Type (0, 0), BuildingBlock: XIVTED_clean_linker_0, # of connection points: 2
#     Edge 14, Type (0, 0), BuildingBlock: XIVTED_clean_linker_0, # of connection points: 2
#     Edge 15, Type (0, 0), BuildingBlock: XIVTED_clean_linker_0, # of connection points: 2
#     Edge 16, Type (0, 0), BuildingBlock: XIVTED_clean_linker_0, # of connection points: 2
#     Edge 17, Type (0, 0), BuildingBlock: XIVTED_clean_linker_0, # of connection points: 2
#     Edge 18, Type (0, 0), BuildingBlock: XIVTED_clean_linker_0, # of connection points: 2
#     Edge 19, Type (0, 0), BuildingBlock: XIVTED_clean_linker_0, # of connection points: 2
#     Edge 20, Type (0, 0), BuildingBlock: XIVTED_clean_linker_0, # of connection points: 2
#     Edge 21, Type (0, 0), BuildingBlock: XIVTED_clean_linker_0, # of connection points: 2
#     Edge 22, Type (0, 0), BuildingBlock: XIVTED_clean_linker_0, # of connection points: 2
#     Edge 23, Type (0, 0), BuildingBlock: XIVTED_clean_linker_0, # of connection points: 2
#     Edge 24, Type (0, 0), BuildingBlock: XIVTED_clean_linker_0, # of connection points: 2
#     Edge 25, Type (0, 0), BuildingBlock: XIVTED_clean_linker_0, # of connection points: 2
#     Edge 26, Type (0, 0), BuildingBlock: XIVTED_clean_linker_0, # of connection points: 2
#     Edge 27, Type (0, 0), BuildingBlock: XIVTED_clean_linker_0, # of connection points: 2
#     Edge 28, Type (0, 0), BuildingBlock: XIVTED_clean_linker_0, # of connection points: 2
#     Edge 29, Type (0, 0), BuildingBlock: XIVTED_clean_linker_0, # of connection points: 2
#     Edge 30, Type (0, 0), BuildingBlock: XIVTED_clean_linker_0, # of connection points: 2
#     Edge 31, Type (0, 0), BuildingBlock: XIVTED_clean_linker_0, # of connection points: 2
# Relax obj value: 0.370
# Max RMSD: 0.252
# Mean RMSD: 0.252
data_MOF--net-vmg--node1-MIDCAF_clean_sbu_0--edge1-XIVTED_clean_linker_0
_symmetry_space_group_name_H-M    P1
_symmetry_Int_Tables_number       1
_symmetry_cell_setting            triclinic
loop_
_symmetry_equiv_pos_as_xyz
'x, y, z'
_cell_length_a     24.803382
_cell_length_b     44.711304
_cell_length_c     25.890954
_cell_angle_alpha  90.234785
_cell_angle_beta   93.508034
_cell_angle_gamma 89.895684
loop_
_atom_site_label
_atom_site_type_symbol
_atom_site_fract_x
_atom_site_fract_y
_atom_site_fract_z
_atom_type_partial_charge
Zn0 Zn 0.22556 0.41226 0.1829 0.0
Zn1 Zn 0.28477 0.3885 0.02763 0.0
Zn2 Zn 0.24215 0.40505 0.10045 0.0
C3 C 0.3479 0.36785 0.11333 0.0
C4 C 0.17956 0.36235 0.0248 0.0
O5 O 0.15439 0.40615 0.09551 0.0
O6 O 0.1623 0.44084 0.1555 0.0
C7 C 0.29289 0.45259 0.16763 0.0
O8 O 0.30845 0.37992 0.13507 0.0
O9 O 0.34805 0.36775 0.06451 0.0
O10 O 0.22191 0.36469 1.0003 0.0
O11 O 0.17513 0.37766 0.06673 0.0
O12 O 0.30054 0.42891 0.19352 0.0
O13 O 0.26118 0.45121 0.12649 0.0
O14 O 0.17015 0.37764 0.12531 0.0
O15 O 0.20319 0.37108 0.20499 0.0
C16 C 0.16655 0.36535 0.17018 0.0
O17 O 0.25708 0.44846 0.0627 0.0
O18 O 0.29682 0.42815 0.99717 0.0
C19 C 0.13562 0.42999 0.11645 0.0
C20 C 0.28042 0.45113 0.01998 0.0
Zn21 Zn 0.80348 0.44659 0.41501 0.0
Zn22 Zn 0.66729 0.38526 0.44215 0.0
Zn23 Zn 0.74796 0.40639 0.41623 0.0
C24 C 0.67506 0.37724 0.33178 0.0
C25 C 0.75172 0.34976 0.48526 0.0
O26 O 0.81763 0.40027 0.4709 0.0
O27 O 0.79946 0.44612 0.49305 0.0
C28 C 0.74574 0.44992 0.32405 0.0
O29 O 0.72072 0.39077 0.33908 0.0
O30 O 0.64535 0.37338 0.36921 0.0
O31 O 0.70128 0.35349 0.48605 0.0
O32 O 0.77996 0.36836 0.46087 0.0
O33 O 0.75674 0.46877 0.35997 0.0
O34 O 0.74709 0.4218 0.3352 0.0
O35 O 0.79098 0.39773 0.3449 0.0
O36 O 0.86127 0.41929 0.3851 0.0
C37 C 0.84276 0.40084 0.35124 0.0
O38 O 0.70498 0.44363 0.44989 0.0
O39 O 0.63442 0.42036 0.47672 0.0
C40 C 0.82639 0.42244 0.50204 0.0
C41 C 0.66183 0.44405 0.4744 0.0
Zn42 Zn 0.80909 0.56615 0.82417 0.0
Zn43 Zn 0.70795 0.59799 0.95683 0.0
Zn44 Zn 0.76135 0.58561 0.8885 0.0
C45 C 0.64754 0.61444 0.86991 0.0
C46 C 0.79438 0.63582 0.96625 0.0
O47 O 0.80368 0.54567 0.91941 0.0
O48 O 0.87101 0.54904 0.86831 0.0
C49 C 0.71182 0.55411 0.78654 0.0
O50 O 0.68202 0.59644 0.85117 0.0
O51 O 0.65264 0.62176 0.91704 0.0
O52 O 0.76635 0.62109 0.99634 0.0
O53 O 0.79476 0.62782 0.91856 0.0
O54 O 0.75484 0.53898 0.78979 0.0
O55 O 0.70687 0.57663 0.81723 0.0
O56 O 0.82563 0.61733 0.87359 0.0
O57 O 0.81871 0.6062 0.79125 0.0
C58 C 0.83816 0.62281 0.8272 0.0
O59 O 0.76189 0.55065 0.9502 0.0
O60 O 0.68497 0.55932 0.98571 0.0
C61 C 0.85183 0.53838 0.90831 0.0
C62 C 0.72589 0.54299 0.98147 0.0
Zn63 Zn 0.33434 0.58008 0.56933 0.0
Zn64 Zn 0.22865 0.53273 0.63168 0.0
Zn65 Zn 0.24495 0.58055 0.59743 0.0
C66 C 0.15309 0.57678 0.6636 0.0
C67 C 0.30415 0.54336 0.69254 0.0
O68 O 0.26072 0.55692 0.52539 0.0
O69 O 0.34337 0.53981 0.53709 0.0
C70 C 0.29018 0.63405 0.53869 0.0
O71 O 0.16364 0.58555 0.61832 0.0
O72 O 0.17864 0.55442 0.68254 0.0
O73 O 0.3004 0.51975 0.66529 0.0
O74 O 0.28299 0.56747 0.6741 0.0
O75 O 0.32038 0.61493 0.51869 0.0
O76 O 0.26248 0.62604 0.57643 0.0
O77 O 0.29126 0.61654 0.63886 0.0
O78 O 0.37143 0.59535 0.63398 0.0
C79 C 0.34208 0.61566 0.65199 0.0
O80 O 0.1637 0.564 0.5677 0.0
O81 O 0.19327 0.51755 0.56535 0.0
C82 C 0.29931 0.54095 0.50974 0.0
C83 C 0.15717 0.53666 0.55249 0.0
Zn84 Zn 0.65691 0.91794 0.16295 0.0
Zn85 Zn 0.78392 0.85634 0.00944 0.0
Zn86 Zn 0.72925 0.89637 0.12699 0.0
C87 C 0.84757 0.86499 0.09981 0.0
C88 C 0.71565 0.83778 0.07682 0.0
O89 O 0.68246 0.92732 0.07437 0.0
O90 O 0.65419 0.95846 0.13296 0.0
C91 C 0.73362 0.91787 0.24141 0.0
O92 O 0.80278 0.87683 0.10997 0.0
O93 O 0.85078 0.85021 0.05817 0.0
O94 O 0.71243 0.85696 0.04154 0.0
O95 O 0.71812 0.84781 0.12317 0.0
O96 O 0.68331 0.9139 0.23596 0.0
O97 O 0.76122 0.91693 0.20109 0.0
O98 O 0.67079 0.86274 0.1527 0.0
O99 O 0.59773 0.88983 0.13905 0.0
C100 C 0.61917 0.86478 0.14922 0.0
O101 O 0.7348 0.92026 0.04905 0.0
O102 O 0.78178 0.89849 0.98658 0.0
C103 C 0.65695 0.95137 0.08604 0.0
C104 C 0.75699 0.92072 0.00471 0.0
Zn105 Zn 0.33891 0.92439 0.34221 0.0
Zn106 Zn 0.21524 0.89118 0.44825 0.0
Zn107 Zn 0.2784 0.91137 0.39423 0.0
C108 C 0.16369 0.89272 0.3512 0.0
C109 C 0.29243 0.8503 0.46027 0.0
O110 O 0.32702 0.94955 0.42772 0.0
O111 O 0.39876 0.92964 0.39603 0.0
C112 C 0.25714 0.95308 0.30028 0.0
O113 O 0.20296 0.91097 0.34597 0.0
O114 O 0.16223 0.87737 0.39191 0.0
O115 O 0.2567 0.86034 0.48828 0.0
O116 O 0.30374 0.86492 0.41951 0.0
O117 O 0.30439 0.96126 0.31426 0.0
O118 O 0.23812 0.92935 0.32065 0.0
O119 O 0.33135 0.87269 0.3765 0.0
O120 O 0.33722 0.88837 0.29691 0.0
C121 C 0.34357 0.86765 0.32956 0.0
O122 O 0.27814 0.94439 0.45842 0.0
O123 O 0.20046 0.92865 0.48482 0.0
C124 C 0.37865 0.94938 0.42411 0.0
C125 C 0.23783 0.94781 0.48703 0.0
Zn126 Zn 0.33411 0.08641 0.83986 0.0
Zn127 Zn 0.20889 0.11872 0.94285 0.0
Zn128 Zn 0.27035 0.10543 0.88794 0.0
C129 C 0.15457 0.1247 0.85308 0.0
C130 C 0.27279 0.16192 0.9589 0.0
O131 O 0.31489 0.06709 0.92543 0.0
O132 O 0.33934 0.04306 0.8563 0.0
C133 C 0.25608 0.09386 0.76791 0.0
O134 O 0.19073 0.10482 0.84471 0.0
O135 O 0.16064 0.14109 0.89268 0.0
O136 O 0.25613 0.14347 0.99105 0.0
O137 O 0.28116 0.15245 0.91303 0.0
O138 O 0.3063 0.09838 0.76973 0.0
O139 O 0.23216 0.09274 0.81066 0.0
O140 O 0.33015 0.14227 0.8823 0.0
O141 O 0.3949 0.10976 0.87213 0.0
C142 C 0.38077 0.13623 0.88114 0.0
O143 O 0.26822 0.07429 0.95493 0.0
O144 O 0.18206 0.07972 0.96797 0.0
C145 C 0.33809 0.04445 0.90491 0.0
C146 C 0.22561 0.06557 0.97666 0.0
Zn147 Zn 0.8143 0.08589 0.60749 0.0
Zn148 Zn 0.63589 0.07454 0.62829 0.0
Zn149 Zn 0.72226 0.08605 0.61786 0.0
C150 C 0.64941 0.12446 0.68248 0.0
C151 C 0.69591 0.03069 0.67778 0.0
O152 O 0.74778 0.03953 0.59311 0.0
O153 O 0.82274 0.05311 0.55851 0.0
C154 C 0.76966 0.13392 0.55246 0.0
O155 O 0.69572 0.11141 0.6858 0.0
O156 O 0.61476 0.11597 0.64782 0.0
O157 O 0.6525 0.04474 0.68344 0.0
O158 O 0.72705 0.03916 0.64257 0.0
O159 O 0.81267 0.12706 0.57844 0.0
O160 O 0.72803 0.11693 0.55404 0.0
O161 O 0.75611 0.1084 0.68753 0.0
O162 O 0.82712 0.0793 0.68321 0.0
C163 C 0.79934 0.09696 0.70899 0.0
O164 O 0.67717 0.09983 0.54511 0.0
O165 O 0.62336 0.06166 0.55667 0.0
C166 C 0.78616 0.03392 0.56264 0.0
C167 C 0.64062 0.08145 0.52733 0.0
H168 H 0.63385 0.41965 0.26816 0.0
H169 H 0.43177 0.3323 0.08488 0.0
H170 H 0.6496 0.32418 0.28433 0.0
H171 H 0.38026 0.38745 0.21002 0.0
H172 H 0.52363 0.33119 0.12715 0.0
H173 H 0.55541 0.41215 0.20774 0.0
C174 C 0.62306 0.39708 0.25625 0.0
C175 C 0.64896 0.37248 0.28012 0.0
C176 C 0.49172 0.34309 0.14534 0.0
C177 C 0.55804 0.36384 0.21332 0.0
C178 C 0.43943 0.34361 0.12168 0.0
C179 C 0.39834 0.3602 0.14384 0.0
C180 C 0.5028 0.35994 0.1904 0.0
C181 C 0.41047 0.37446 0.19145 0.0
C182 C 0.5776 0.39284 0.2228 0.0
C183 C 0.63117 0.34363 0.26574 0.0
N184 N 0.4619 0.37456 0.21253 0.0
N185 N 0.58597 0.34001 0.23372 0.0
H186 H 0.63448 0.61756 0.76404 0.0
H187 H 0.40995 0.65942 0.62754 0.0
H188 H 0.55567 0.63915 0.90366 0.0
H189 H 0.33744 0.61824 0.75627 0.0
H190 H 0.4885 0.67295 0.68467 0.0
H191 H 0.55457 0.63538 0.71319 0.0
C192 C 0.60062 0.6263 0.78392 0.0
C193 C 0.60127 0.62641 0.83802 0.0
C194 C 0.45452 0.66193 0.70079 0.0
C195 C 0.51043 0.64739 0.78042 0.0
C196 C 0.40941 0.65472 0.66856 0.0
C197 C 0.36821 0.63725 0.68746 0.0
C198 C 0.45792 0.65122 0.75171 0.0
C199 C 0.36894 0.63154 0.74051 0.0
C200 C 0.55545 0.63703 0.75497 0.0
C201 C 0.55658 0.63839 0.86192 0.0
N202 N 0.41415 0.63779 0.77084 0.0
N203 N 0.51236 0.64772 0.83295 0.0
H204 H 0.11935 0.93533 0.28586 0.0
H205 H 0.92907 0.82492 0.11942 0.0
H206 H 0.11 0.84174 0.32422 0.0
H207 H 0.8734 0.91264 0.16167 0.0
H208 H 0.00948 0.8319 0.17848 0.0
H209 H 0.04238 0.92859 0.22217 0.0
C210 C 0.10149 0.91337 0.28036 0.0
C211 C 0.12052 0.88906 0.31025 0.0
C212 C 0.97956 0.84956 0.17461 0.0
C213 C 0.03395 0.88125 0.23789 0.0
C214 C 0.93396 0.84562 0.14111 0.0
C215 C 0.89484 0.86821 0.13616 0.0
C216 C 0.9865 0.87657 0.20193 0.0
C217 C 0.90265 0.89463 0.16498 0.0
C218 C 0.0576 0.90961 0.2445 0.0
C219 C 0.096 0.86106 0.30212 0.0
N220 N 0.94804 0.89826 0.1964 0.0
N221 N 0.05406 0.85784 0.26642 0.0
H222 H 0.08972 0.17244 0.82981 0.0
H223 H 0.83393 0.0659 0.79397 0.0
H224 H 0.0956 0.07618 0.82127 0.0
H225 H 0.83172 0.15407 0.72775 0.0
H226 H 0.92391 0.07569 0.83381 0.0
H227 H 0.99145 0.1706 0.81134 0.0
C228 C 0.07039 0.15099 0.82261 0.0
C229 C 0.10063 0.1244 0.82638 0.0
C230 C 0.90304 0.09327 0.81191 0.0
C231 C 0.98871 0.12214 0.8086 0.0
C232 C 0.85111 0.08801 0.79039 0.0
C233 C 0.82639 0.10891 0.75637 0.0
C234 C 0.92951 0.1198 0.79983 0.0
C235 C 0.85007 0.13724 0.75319 0.0
C236 C 0.01444 0.14997 0.81303 0.0
C237 C 0.07383 0.09717 0.81777 0.0
N238 N 0.90148 0.14161 0.77314 0.0
N239 N 0.01918 0.09671 0.81 0.0
H240 H 0.14231 0.33935 0.93155 0.0
H241 H 0.2676 0.18986 0.05203 0.0
H242 H 0.15359 0.32002 0.0945 0.0
H243 H 0.24656 0.20553 0.88771 0.0
H244 H 0.22021 0.23654 0.0677 0.0
H245 H 0.16327 0.28713 0.91339 0.0
C246 C 0.14609 0.32375 0.9635 0.0
C247 C 0.14927 0.33442 0.01474 0.0
C248 C 0.22617 0.22992 0.02818 0.0
C249 C 0.17519 0.27511 0.99454 0.0
C250 C 0.25423 0.20355 0.01925 0.0
C251 C 0.26128 0.1938 0.9685 0.0
C252 C 0.20498 0.24683 0.98607 0.0
C253 C 0.24265 0.21233 0.92749 0.0
C254 C 0.15973 0.29409 0.95315 0.0
C255 C 0.15294 0.31313 0.05443 0.0
N256 N 0.215 0.23786 0.93717 0.0
N257 N 0.16832 0.2847 0.04372 0.0
H258 H 0.82915 0.31464 0.44354 0.0
H259 H 0.68405 0.17217 0.54951 0.0
H260 H 0.71897 0.31786 0.56601 0.0
H261 H 0.84907 0.16454 0.50732 0.0
H262 H 0.68858 0.2263 0.53605 0.0
H263 H 0.83517 0.25993 0.45392 0.0
C264 C 0.808 0.30403 0.47393 0.0
C265 C 0.77313 0.32068 0.50373 0.0
C266 C 0.72352 0.21266 0.529 0.0
C267 C 0.77761 0.2586 0.51372 0.0
C268 C 0.72057 0.18177 0.5357 0.0
C269 C 0.76626 0.16401 0.52957 0.0
C270 C 0.77217 0.2257 0.51534 0.0
C271 C 0.81303 0.17764 0.51254 0.0
C272 C 0.81068 0.27284 0.47916 0.0
C273 C 0.74589 0.30577 0.54193 0.0
N274 N 0.81496 0.20779 0.50616 0.0
N275 N 0.74772 0.27554 0.54505 0.0
H276 H 0.70544 0.81111 0.98355 0.0
H277 H 0.82003 0.65459 0.06523 0.0
H278 H 0.77179 0.79652 0.13945 0.0
H279 H 0.8077 0.68542 0.9073 0.0
H280 H 0.81213 0.70629 0.09508 0.0
H281 H 0.74525 0.76449 0.9568 0.0
C282 C 0.72841 0.79796 0.0123 0.0
C283 C 0.73543 0.80773 0.0638 0.0
C284 C 0.81275 0.70183 0.05397 0.0
C285 C 0.78165 0.75404 0.03316 0.0
C286 C 0.81765 0.67237 0.03686 0.0
C287 C 0.81295 0.66571 0.98367 0.0
C288 C 0.80239 0.72451 0.0175 0.0
C289 C 0.81067 0.68951 0.94863 0.0
C290 C 0.7517 0.77146 0.99681 0.0
C291 C 0.76515 0.78965 0.09944 0.0
N292 N 0.80382 0.71783 0.96616 0.0
N293 N 0.78704 0.76344 0.08347 0.0
H294 H 0.26552 0.682 0.59783 0.0
H295 H 0.31989 0.80664 0.39126 0.0
H296 H 0.32899 0.65894 0.45132 0.0
H297 H 0.30914 0.82423 0.55416 0.0
H298 H 0.32755 0.75293 0.41018 0.0
H299 H 0.28052 0.73462 0.57992 0.0
C300 C 0.28206 0.68804 0.56154 0.0
C301 C 0.29544 0.66606 0.52577 0.0
C302 C 0.3248 0.76865 0.44184 0.0
C303 C 0.31332 0.72653 0.50506 0.0
C304 C 0.32109 0.79933 0.43111 0.0
C305 C 0.31329 0.81984 0.47119 0.0
C306 C 0.32017 0.75868 0.49283 0.0
C307 C 0.31428 0.80911 0.52205 0.0
C308 C 0.2913 0.71812 0.55158 0.0
C309 C 0.31779 0.67524 0.4798 0.0
N310 N 0.31666 0.77929 0.5313 0.0
N311 N 0.3256 0.70485 0.47048 0.0
H312 H 0.8305 0.48498 0.95482 0.0
H313 H 0.09831 0.48574 0.1377 0.0
H314 H 0.95215 0.55315 0.94539 0.0
H315 H 0.05791 0.40637 0.04805 0.0
H316 H 0.02148 0.51153 0.09356 0.0
H317 H 0.89302 0.45656 0.01455 0.0
C318 C 0.87017 0.49394 0.96562 0.0
C319 C 0.88686 0.5211 0.94499 0.0
C320 C 0.02896 0.48825 0.08459 0.0
C321 C 0.95665 0.48971 0.01364 0.0
C322 C 0.07256 0.4735 0.1097 0.0
C323 C 0.08468 0.44393 0.09621 0.0
C324 C 0.99666 0.47313 0.04667 0.0
C325 C 0.05003 0.4292 0.05948 0.0
C326 C 0.90549 0.47785 0.99947 0.0
C327 C 0.93829 0.53206 0.96013 0.0
N328 N 0.00751 0.44402 0.03572 0.0
N329 N 0.97132 0.51642 0.99386 0.0
H330 H 0.13646 0.49424 0.47925 0.0
H331 H 0.85028 0.45602 0.58791 0.0
H332 H 0.05957 0.54888 0.59094 0.0
H333 H 0.92445 0.40284 0.4725 0.0
H334 H 0.93184 0.48647 0.59779 0.0
H335 H 0.05925 0.46027 0.47636 0.0
C336 C 0.10227 0.49962 0.50176 0.0
C337 C 0.10414 0.52442 0.53516 0.0
C338 C 0.93081 0.46777 0.57103 0.0
C339 C 0.01706 0.48485 0.5343 0.0
C340 C 0.88478 0.44986 0.56638 0.0
C341 C 0.88003 0.42739 0.52829 0.0
C342 C 0.97247 0.46293 0.53763 0.0
C343 C 0.92595 0.42029 0.50163 0.0
C344 C 0.05877 0.47989 0.50098 0.0
C345 C 0.05935 0.5302 0.56416 0.0
N346 N 0.96978 0.43858 0.50569 0.0
N347 N 0.0179 0.51027 0.56366 0.0
H348 H 0.59597 0.92398 0.00931 0.0
H349 H 0.38147 0.05567 0.00211 0.0
H350 H 0.62474 0.00953 0.08319 0.0
H351 H 0.3824 0.99071 0.8784 0.0
H352 H 0.46254 0.03259 0.04222 0.0
H353 H 0.5139 0.94414 0.96497 0.0
C354 C 0.58632 0.94742 0.01432 0.0
C355 C 0.61798 0.96544 0.04865 0.0
C356 C 0.44464 0.02319 0.00656 0.0
C357 C 0.5223 0.98782 1.00141 0.0
C358 C 0.39758 0.03593 0.98424 0.0
C359 C 0.37526 0.02521 0.93667 0.0
C360 C 0.46934 -0.00053 0.98136 0.0
C361 C 0.39865 -0.00018 0.9149 0.0
C362 C 0.5389 0.95868 0.9899 0.0
C363 C 0.60187 0.9951 0.05627 0.0
N364 N 0.44486 0.98792 0.93719 0.0
N365 N 0.55475 0.00528 0.03332 0.0
H366 H 0.3522 0.00924 0.42775 0.0
H367 H 0.66493 0.05057 0.44169 0.0
H368 H 0.48607 0.94792 0.44844 0.0
H369 H 0.54906 0.1123 0.49792 0.0
H370 H 0.59121 0.01867 0.40813 0.0
H371 H 0.41671 0.05121 0.43078 0.0
C372 C 0.39485 0.00466 0.43487 0.0
C373 C 0.4137 0.97506 0.43932 0.0
C374 C 0.58167 0.03973 0.42632 0.0
C375 C 0.48734 0.0225 0.4381 0.0
C376 C 0.62383 0.05854 0.44395 0.0
C377 C 0.61299 0.08295 0.4758 0.0
C378 C 0.52859 0.04649 0.43869 0.0
C379 C 0.559 0.09267 0.47574 0.0
C380 C 0.43161 0.02852 0.43505 0.0
C381 C 0.46968 0.97036 0.44545 0.0
N382 N 0.51835 0.07357 0.46028 0.0
N383 N 0.50435 0.99371 0.44415 0.0
H384 H 0.14565 0.33709 0.26017 0.0
H385 H 0.83709 0.39104 0.24543 0.0
H386 H 0.06558 0.3713 0.12009 0.0
H387 H 0.93699 0.37589 0.38496 0.0
H388 H 0.91115 0.37205 0.19446 0.0
H389 H 0.05947 0.33713 0.30047 0.0
C390 C 0.1097 0.34387 0.23729 0.0
C391 C 0.11337 0.35503 0.18703 0.0
C392 C 0.91627 0.37237 0.23629 0.0
C393 C 0.01423 0.3559 0.23366 0.0
C394 C 0.87402 0.38303 0.26525 0.0
C395 C 0.8813 0.38512 0.31931 0.0
C396 C 0.96535 0.36334 0.26192 0.0
C397 C 0.93 0.37484 0.34329 0.0
C398 C 0.06043 0.34419 0.26057 0.0
C399 C 0.06501 0.36316 0.15927 0.0
N400 N 0.97005 0.36455 0.31454 0.0
N401 N 0.0176 0.36414 0.18332 0.0
H402 H 0.13617 0.57141 0.76611 0.0
H403 H 0.85947 0.65517 0.74212 0.0
H404 H 0.07848 0.61827 0.62811 0.0
H405 H 0.93224 0.62282 0.88664 0.0
H406 H 0.94738 0.65305 0.70503 0.0
H407 H 0.06884 0.5974 0.81445 0.0
C408 C 0.10915 0.58712 0.74595 0.0
C409 C 0.11207 0.59222 0.69282 0.0
C410 C 0.9447 0.64743 0.74543 0.0
C411 C 0.0353 0.62243 0.74807 0.0
C412 C 0.89459 0.64917 0.7669 0.0
C413 C 0.88848 0.63836 0.81699 0.0
C414 C 0.98844 0.63451 0.77433 0.0
C415 C 0.93513 0.63093 0.84755 0.0
C416 C 0.07118 0.60229 0.77373 0.0
C417 C 0.07701 0.61336 0.66891 0.0
N418 N 0.98297 0.62803 0.82513 0.0
N419 N 0.03953 0.6274 0.69657 0.0
H420 H 0.43418 0.8447 0.37922 0.0
H421 H 0.52386 0.84414 0.10602 0.0
H422 H 0.32634 0.83326 0.24396 0.0
H423 H 0.63543 0.83403 0.23889 0.0
H424 H 0.45301 0.82199 0.15445 0.0
H425 H 0.50704 0.82247 0.33242 0.0
C426 C 0.42513 0.83592 0.3406 0.0
C427 C 0.37495 0.84152 0.31465 0.0
C428 C 0.49333 0.82356 0.1728 0.0
C429 C 0.45795 0.81717 0.26036 0.0
C430 C 0.53384 0.83605 0.14484 0.0
C431 C 0.58501 0.84119 0.16888 0.0
C432 C 0.50361 0.81758 0.22585 0.0
C433 C 0.59614 0.83049 0.21922 0.0
C434 C 0.46691 0.82351 0.31353 0.0
C435 C 0.36509 0.82985 0.26473 0.0
N436 N 0.55518 0.82015 0.24681 0.0
N437 N 0.40669 0.81905 0.23856 0.0
H438 H 0.58443 0.17275 0.66769 0.0
H439 H 0.47586 0.13976 0.93805 0.0
H440 H 0.6688 0.1214 0.78772 0.0
H441 H 0.38435 0.18118 0.81108 0.0
H442 H 0.55931 0.15238 0.89793 0.0
H443 H 0.52694 0.19402 0.73166 0.0
C444 C 0.59216 0.16684 0.70802 0.0
C445 C 0.63085 0.145 0.72245 0.0
C446 C 0.5212 0.15988 0.87977 0.0
C447 C 0.56394 0.16848 0.79568 0.0
C448 C 0.47346 0.1532 0.90324 0.0
C449 C 0.42313 0.15897 0.87731 0.0
C450 C 0.5183 0.17226 0.82994 0.0
C451 C 0.42232 0.17616 0.83217 0.0
C452 C 0.55908 0.17886 0.74452 0.0
C453 C 0.63931 0.13813 0.77506 0.0
N454 N 0.46916 0.18126 0.80887 0.0
N455 N 0.60504 0.1492 0.80965 0.0
H456 H 0.37628 0.47616 0.00317 0.0
H457 H 0.37381 0.50465 0.74441 0.0
H458 H 0.20514 0.48864 0.97303 0.0
H459 H 0.25654 0.5737 0.76947 0.0
H460 H 0.37505 0.49217 0.83655 0.0
H461 H 0.39277 0.50737 0.9283 0.0
C462 C 0.34225 0.48677 0.98229 0.0
C463 C 0.2893 0.47994 0.99439 0.0
C464 C 0.35032 0.51069 0.8222 0.0
C465 C 0.30777 0.51458 0.90748 0.0
C466 C 0.34965 0.5178 0.7696 0.0
C467 C 0.31561 0.54047 0.74927 0.0
C468 C 0.31553 0.52576 0.85451 0.0
C469 C 0.28407 0.55635 0.78364 0.0
C470 C 0.35168 0.50408 0.93903 0.0
C471 C 0.24657 0.49369 0.96536 0.0
N472 N 0.28367 0.54816 0.83428 0.0
N473 N 0.25667 0.50999 0.92253 0.0
H474 H 0.71597 0.49762 0.48811 0.0
H475 H 0.63928 0.50899 0.77099 0.0
H476 H 0.58083 0.44807 0.54108 0.0
H477 H 0.7076 0.58474 0.69668 0.0
H478 H 0.60988 0.4887 0.68589 0.0
H479 H 0.70846 0.53244 0.56069 0.0
C480 C 0.68384 0.49448 0.51408 0.0
C481 C 0.64957 0.46955 0.50881 0.0
C482 C 0.62953 0.51032 0.68809 0.0
C483 C 0.64155 0.50893 0.59257 0.0
C484 C 0.6457 0.52204 0.73673 0.0
C485 C 0.67504 0.54876 0.7407 0.0
C486 C 0.6448 0.52488 0.64319 0.0
C487 C 0.68419 0.5643 0.69508 0.0
C488 C 0.67959 0.51437 0.55559 0.0
C489 C 0.60866 0.46671 0.54382 0.0
N490 N 0.67049 0.55175 0.6481 0.0
N491 N 0.60665 0.48566 0.58483 0.0
H492 H 0.72912 0.41539 0.23658 0.0
H493 H 0.81785 0.53643 0.04194 0.0
H494 H 0.75938 0.50636 0.28694 0.0
H495 H 0.65836 0.49954 0.01273 0.0
H496 H 0.82633 0.50913 0.12415 0.0
H497 H 0.72886 0.4321 0.14633 0.0
C498 C 0.73475 0.43889 0.22882 0.0
C499 C 0.74243 0.45968 0.26947 0.0
C500 C 0.7903 0.50635 0.09875 0.0
C501 C 0.74628 0.47817 0.16704 0.0
C502 C 0.78565 0.52154 0.0518 0.0
C503 C 0.7374 0.51999 0.0208 0.0
C504 C 0.74683 0.48918 0.11387 0.0
C505 C 0.69618 0.50109 0.0358 0.0
C506 C 0.7354 0.4482 0.17746 0.0
C507 C 0.75223 0.48963 0.25698 0.0
N508 N 0.70163 0.48644 0.08171 0.0
N509 N 0.75433 0.49795 0.20679 0.0
H510 H 0.38607 0.47144 0.21676 0.0
H511 H 0.21423 0.54345 0.43666 0.0
H512 H 0.21739 0.49348 0.19245 0.0
H513 H 0.37978 0.51384 0.45898 0.0
H514 H 0.21637 0.53151 0.34434 0.0
H515 H 0.38845 0.49726 0.30002 0.0
C516 C 0.3502 0.48316 0.22777 0.0
C517 C 0.30148 0.48028 0.19774 0.0
C518 C 0.25218 0.52765 0.36951 0.0
C519 C 0.30285 0.50825 0.2945 0.0
C520 C 0.25083 0.53413 0.42234 0.0
C521 C 0.29687 0.52954 0.45581 0.0
C522 C 0.29996 0.51659 0.34994 0.0
C523 C 0.34321 0.51762 0.43488 0.0
C524 C 0.35116 0.49724 0.27598 0.0
C525 C 0.25587 0.49533 0.21433 0.0
N526 N 0.34356 0.51166 0.38343 0.0
N527 N 0.2572 0.50796 0.26235 0.0
H528 H 0.82976 0.95947 0.96803 0.0
H529 H 0.63307 0.98815 0.71648 0.0
H530 H 0.66375 0.93201 0.95035 0.0
H531 H 0.79357 0.02503 0.73238 0.0
H532 H 0.64783 0.96456 0.80073 0.0
H533 H 0.81958 0.98433 0.88343 0.0
C534 C 0.79033 0.96012 0.94758 0.0
C535 C 0.74655 0.945 0.96739 0.0
C536 C 0.68029 0.97745 0.78578 0.0
C537 C 0.73544 0.9716 0.86954 0.0
C538 C 0.67217 0.99045 0.73719 0.0
C539 C 0.71222 0.00842 0.71747 0.0
C540 C 0.72871 0.98267 0.81541 0.0
C541 C 0.76192 0.01104 0.7461 0.0
C542 C 0.78484 0.97374 0.8989 0.0
C543 C 0.69722 0.94506 0.93824 0.0
N544 N 0.76859 -0.00135 0.79414 0.0
N545 N 0.69311 0.95787 0.89073 0.0
H546 H 0.28219 0.10845 0.67075 0.0
H547 H 0.16651 0.95304 0.56205 0.0
H548 H 0.17662 0.05171 0.75309 0.0
H549 H 0.29719 0.00029 0.49611 0.0
H550 H 0.15609 0.99401 0.62225 0.0
H551 H 0.27006 0.07564 0.59526 0.0
C552 C 0.25484 0.08964 0.67227 0.0
C553 C 0.23112 0.08245 0.71854 0.0
C554 C 0.18681 0.99563 0.59441 0.0
C555 C 0.21835 0.04443 0.63287 0.0
C556 C 0.19304 0.97215 0.55989 0.0
C557 C 0.23309 0.97312 0.5237 0.0
C558 C 0.2207 0.02055 0.59305 0.0
C559 C 0.26609 -0.00149 0.5233 0.0
C560 C 0.24858 0.07071 0.62939 0.0
C561 C 0.19586 0.05799 0.71832 0.0
N562 N 0.25926 0.02125 0.55758 0.0
N563 N 0.19146 0.03944 0.67647 0.0
H564 H 0.2555 0.01246 0.28523 0.0
H565 H 0.15114 0.02249 0.99494 0.0
H566 H 0.20226 0.9295 0.21374 0.0
H567 H 0.30368 0.05898 0.05348 0.0
H568 H 0.14733 0.99269 0.07468 0.0
H569 H 0.24443 0.03705 0.20132 0.0
C570 C 0.23958 -0.00032 0.25206 0.0
C571 C 0.23027 0.9689 0.25612 0.0
C572 C 0.18198 0.0068 0.06931 0.0
C573 C 0.21868 0.99674 0.16014 0.0
C574 C 0.18437 0.02363 0.02405 0.0
C575 C 0.22819 0.04288 0.01767 0.0
C576 C 0.2227 0.0103 0.10875 0.0
C577 C 0.26989 0.04395 0.05648 0.0
C578 C 0.23408 0.01361 0.20422 0.0
C579 C 0.20969 0.95332 0.21202 0.0
N580 N 0.2656 0.02835 0.10087 0.0
N581 N 0.20524 0.96738 0.16523 0.0
H582 H 0.7031 0.99453 0.53631 0.0
H583 H 0.82393 0.95212 0.27085 0.0
H584 H 0.86855 0.01435 0.50636 0.0
H585 H 0.69268 0.90311 0.33225 0.0
H586 H 0.84384 0.9742 0.35733 0.0
H587 H 0.69937 0.95966 0.46265 0.0
C588 C 0.73899 0.99099 0.51523 0.0
C589 C 0.78596 0.00761 0.52738 0.0
C590 C 0.81133 0.95815 0.35191 0.0
C591 C 0.7816 0.96851 0.44217 0.0
C592 C 0.80026 0.94543 0.30264 0.0
C593 C 0.75606 0.92613 0.29407 0.0
C594 C 0.77757 0.95168 0.39235 0.0
C595 C 0.72652 0.91836 0.33677 0.0
C596 C 0.73682 0.97125 0.47291 0.0
C597 C 0.83116 0.00231 0.49811 0.0
N598 N 0.73711 0.93152 0.3836 0.0
N599 N 0.82756 0.98372 0.4564 0.0
loop_
_geom_bond_atom_site_label_1
_geom_bond_atom_site_label_2
_geom_bond_distance
_geom_bond_site_symmetry_2
_ccdc_geom_bond_type
Zn0 O6 1.920 . S
Zn0 O12 1.898 . S
Zn0 O15 1.905 . S
Zn1 O9 1.905 . S
Zn1 O10 1.898 . S
Zn1 O18 1.920 . S
Zn2 O5 2.080 . S
Zn2 O8 2.114 . S
Zn2 O11 2.120 . S
Zn2 O13 2.120 . S
Zn2 O14 2.114 . S
Zn2 O17 2.080 . S
C3 O8 1.166 . S
C3 O9 1.182 . S
C4 O10 1.167 . S
C4 O11 1.299 . S
O5 Zn2 2.080 . S
O5 C19 1.305 . S
O6 Zn0 1.920 . S
O6 C19 1.234 . S
C7 O12 1.167 . S
C7 O13 1.299 . S
O8 Zn2 2.114 . S
O8 C3 1.166 . S
O9 Zn1 1.905 . S
O9 C3 1.182 . S
O10 Zn1 1.898 . S
O10 C4 1.167 . S
O11 Zn2 2.120 . S
O11 C4 1.299 . S
O12 Zn0 1.898 . S
O12 C7 1.167 . S
O13 Zn2 2.120 . S
O13 C7 1.299 . S
O14 Zn2 2.114 . S
O14 C16 1.166 . S
O15 Zn0 1.905 . S
O15 C16 1.182 . S
C16 O14 1.166 . S
C16 O15 1.182 . S
O17 Zn2 2.080 . S
O17 C20 1.305 . S
O18 Zn1 1.920 . S
O18 C20 1.234 . S
C19 O5 1.305 . S
C19 O6 1.234 . S
C20 O17 1.305 . S
C20 O18 1.234 . S
Zn21 O27 1.920 . S
Zn21 O33 1.898 . S
Zn21 O36 1.905 . S
Zn22 O30 1.905 . S
Zn22 O31 1.898 . S
Zn22 O39 1.920 . S
Zn23 O26 2.080 . S
Zn23 O29 2.114 . S
Zn23 O32 2.120 . S
Zn23 O34 2.120 . S
Zn23 O35 2.114 . S
Zn23 O38 2.080 . S
C24 O29 1.166 . S
C24 O30 1.182 . S
C25 O31 1.167 . S
C25 O32 1.299 . S
O26 Zn23 2.080 . S
O26 C40 1.305 . S
O27 Zn21 1.920 . S
O27 C40 1.234 . S
C28 O33 1.167 . S
C28 O34 1.299 . S
O29 Zn23 2.114 . S
O29 C24 1.166 . S
O30 Zn22 1.905 . S
O30 C24 1.182 . S
O31 Zn22 1.898 . S
O31 C25 1.167 . S
O32 Zn23 2.120 . S
O32 C25 1.299 . S
O33 Zn21 1.898 . S
O33 C28 1.167 . S
O34 Zn23 2.120 . S
O34 C28 1.299 . S
O35 Zn23 2.114 . S
O35 C37 1.166 . S
O36 Zn21 1.905 . S
O36 C37 1.182 . S
C37 O35 1.166 . S
C37 O36 1.182 . S
O38 Zn23 2.080 . S
O38 C41 1.305 . S
O39 Zn22 1.920 . S
O39 C41 1.234 . S
C40 O26 1.305 . S
C40 O27 1.234 . S
C41 O38 1.305 . S
C41 O39 1.234 . S
Zn42 O48 1.920 . S
Zn42 O54 1.898 . S
Zn42 O57 1.905 . S
Zn43 O51 1.905 . S
Zn43 O52 1.898 . S
Zn43 O60 1.920 . S
Zn44 O47 2.080 . S
Zn44 O50 2.114 . S
Zn44 O53 2.120 . S
Zn44 O55 2.120 . S
Zn44 O56 2.114 . S
Zn44 O59 2.080 . S
C45 O50 1.166 . S
C45 O51 1.182 . S
C46 O52 1.167 . S
C46 O53 1.299 . S
O47 Zn44 2.080 . S
O47 C61 1.305 . S
O48 Zn42 1.920 . S
O48 C61 1.234 . S
C49 O54 1.167 . S
C49 O55 1.299 . S
O50 Zn44 2.114 . S
O50 C45 1.166 . S
O51 Zn43 1.905 . S
O51 C45 1.182 . S
O52 Zn43 1.898 . S
O52 C46 1.167 . S
O53 Zn44 2.120 . S
O53 C46 1.299 . S
O54 Zn42 1.898 . S
O54 C49 1.167 . S
O55 Zn44 2.120 . S
O55 C49 1.299 . S
O56 Zn44 2.114 . S
O56 C58 1.166 . S
O57 Zn42 1.905 . S
O57 C58 1.182 . S
C58 O56 1.166 . S
C58 O57 1.182 . S
O59 Zn44 2.080 . S
O59 C62 1.305 . S
O60 Zn43 1.920 . S
O60 C62 1.234 . S
C61 O47 1.305 . S
C61 O48 1.234 . S
C62 O59 1.305 . S
C62 O60 1.234 . S
Zn63 O69 1.920 . S
Zn63 O75 1.898 . S
Zn63 O78 1.905 . S
Zn64 O72 1.905 . S
Zn64 O73 1.898 . S
Zn64 O81 1.920 . S
Zn65 O68 2.080 . S
Zn65 O71 2.114 . S
Zn65 O74 2.120 . S
Zn65 O76 2.120 . S
Zn65 O77 2.114 . S
Zn65 O80 2.080 . S
C66 O71 1.166 . S
C66 O72 1.182 . S
C67 O73 1.167 . S
C67 O74 1.299 . S
O68 Zn65 2.080 . S
O68 C82 1.305 . S
O69 Zn63 1.920 . S
O69 C82 1.234 . S
C70 O75 1.167 . S
C70 O76 1.299 . S
O71 Zn65 2.114 . S
O71 C66 1.166 . S
O72 Zn64 1.905 . S
O72 C66 1.182 . S
O73 Zn64 1.898 . S
O73 C67 1.167 . S
O74 Zn65 2.120 . S
O74 C67 1.299 . S
O75 Zn63 1.898 . S
O75 C70 1.167 . S
O76 Zn65 2.120 . S
O76 C70 1.299 . S
O77 Zn65 2.114 . S
O77 C79 1.166 . S
O78 Zn63 1.905 . S
O78 C79 1.182 . S
C79 O77 1.166 . S
C79 O78 1.182 . S
O80 Zn65 2.080 . S
O80 C83 1.305 . S
O81 Zn64 1.920 . S
O81 C83 1.234 . S
C82 O68 1.305 . S
C82 O69 1.234 . S
C83 O80 1.305 . S
C83 O81 1.234 . S
Zn84 O90 1.920 . S
Zn84 O96 1.898 . S
Zn84 O99 1.905 . S
Zn85 O93 1.905 . S
Zn85 O94 1.898 . S
Zn85 O102 1.920 . S
Zn86 O89 2.080 . S
Zn86 O92 2.114 . S
Zn86 O95 2.120 . S
Zn86 O97 2.120 . S
Zn86 O98 2.114 . S
Zn86 O101 2.080 . S
C87 O92 1.166 . S
C87 O93 1.182 . S
C88 O94 1.167 . S
C88 O95 1.299 . S
O89 Zn86 2.080 . S
O89 C103 1.305 . S
O90 Zn84 1.920 . S
O90 C103 1.234 . S
C91 O96 1.167 . S
C91 O97 1.299 . S
O92 Zn86 2.114 . S
O92 C87 1.166 . S
O93 Zn85 1.905 . S
O93 C87 1.182 . S
O94 Zn85 1.898 . S
O94 C88 1.167 . S
O95 Zn86 2.120 . S
O95 C88 1.299 . S
O96 Zn84 1.898 . S
O96 C91 1.167 . S
O97 Zn86 2.120 . S
O97 C91 1.299 . S
O98 Zn86 2.114 . S
O98 C100 1.166 . S
O99 Zn84 1.905 . S
O99 C100 1.182 . S
C100 O98 1.166 . S
C100 O99 1.182 . S
O101 Zn86 2.080 . S
O101 C104 1.305 . S
O102 Zn85 1.920 . S
O102 C104 1.234 . S
C103 O89 1.305 . S
C103 O90 1.234 . S
C104 O101 1.305 . S
C104 O102 1.234 . S
Zn105 O111 1.920 . S
Zn105 O117 1.898 . S
Zn105 O120 1.905 . S
Zn106 O114 1.905 . S
Zn106 O115 1.898 . S
Zn106 O123 1.920 . S
Zn107 O110 2.080 . S
Zn107 O113 2.114 . S
Zn107 O116 2.120 . S
Zn107 O118 2.120 . S
Zn107 O119 2.114 . S
Zn107 O122 2.080 . S
C108 O113 1.166 . S
C108 O114 1.182 . S
C109 O115 1.167 . S
C109 O116 1.299 . S
O110 Zn107 2.080 . S
O110 C124 1.305 . S
O111 Zn105 1.920 . S
O111 C124 1.234 . S
C112 O117 1.167 . S
C112 O118 1.299 . S
O113 Zn107 2.114 . S
O113 C108 1.166 . S
O114 Zn106 1.905 . S
O114 C108 1.182 . S
O115 Zn106 1.898 . S
O115 C109 1.167 . S
O116 Zn107 2.120 . S
O116 C109 1.299 . S
O117 Zn105 1.898 . S
O117 C112 1.167 . S
O118 Zn107 2.120 . S
O118 C112 1.299 . S
O119 Zn107 2.114 . S
O119 C121 1.166 . S
O120 Zn105 1.905 . S
O120 C121 1.182 . S
C121 O119 1.166 . S
C121 O120 1.182 . S
O122 Zn107 2.080 . S
O122 C125 1.305 . S
O123 Zn106 1.920 . S
O123 C125 1.234 . S
C124 O110 1.305 . S
C124 O111 1.234 . S
C125 O122 1.305 . S
C125 O123 1.234 . S
Zn126 O132 1.920 . S
Zn126 O138 1.898 . S
Zn126 O141 1.905 . S
Zn127 O135 1.905 . S
Zn127 O136 1.898 . S
Zn127 O144 1.920 . S
Zn128 O131 2.080 . S
Zn128 O134 2.114 . S
Zn128 O137 2.120 . S
Zn128 O139 2.120 . S
Zn128 O140 2.114 . S
Zn128 O143 2.080 . S
C129 O134 1.166 . S
C129 O135 1.182 . S
C130 O136 1.167 . S
C130 O137 1.299 . S
O131 Zn128 2.080 . S
O131 C145 1.305 . S
O132 Zn126 1.920 . S
O132 C145 1.234 . S
C133 O138 1.167 . S
C133 O139 1.299 . S
O134 Zn128 2.114 . S
O134 C129 1.166 . S
O135 Zn127 1.905 . S
O135 C129 1.182 . S
O136 Zn127 1.898 . S
O136 C130 1.167 . S
O137 Zn128 2.120 . S
O137 C130 1.299 . S
O138 Zn126 1.898 . S
O138 C133 1.167 . S
O139 Zn128 2.120 . S
O139 C133 1.299 . S
O140 Zn128 2.114 . S
O140 C142 1.166 . S
O141 Zn126 1.905 . S
O141 C142 1.182 . S
C142 O140 1.166 . S
C142 O141 1.182 . S
O143 Zn128 2.080 . S
O143 C146 1.305 . S
O144 Zn127 1.920 . S
O144 C146 1.234 . S
C145 O131 1.305 . S
C145 O132 1.234 . S
C146 O143 1.305 . S
C146 O144 1.234 . S
Zn147 O153 1.920 . S
Zn147 O159 1.898 . S
Zn147 O162 1.905 . S
Zn148 O156 1.905 . S
Zn148 O157 1.898 . S
Zn148 O165 1.920 . S
Zn149 O152 2.080 . S
Zn149 O155 2.114 . S
Zn149 O158 2.120 . S
Zn149 O160 2.120 . S
Zn149 O161 2.114 . S
Zn149 O164 2.080 . S
C150 O155 1.166 . S
C150 O156 1.182 . S
C151 O157 1.167 . S
C151 O158 1.299 . S
O152 Zn149 2.080 . S
O152 C166 1.305 . S
O153 Zn147 1.920 . S
O153 C166 1.234 . S
C154 O159 1.167 . S
C154 O160 1.299 . S
O155 Zn149 2.114 . S
O155 C150 1.166 . S
O156 Zn148 1.905 . S
O156 C150 1.182 . S
O157 Zn148 1.898 . S
O157 C151 1.167 . S
O158 Zn149 2.120 . S
O158 C151 1.299 . S
O159 Zn147 1.898 . S
O159 C154 1.167 . S
O160 Zn149 2.120 . S
O160 C154 1.299 . S
O161 Zn149 2.114 . S
O161 C163 1.166 . S
O162 Zn147 1.905 . S
O162 C163 1.182 . S
C163 O161 1.166 . S
C163 O162 1.182 . S
O164 Zn149 2.080 . S
O164 C167 1.305 . S
O165 Zn148 1.920 . S
O165 C167 1.234 . S
C166 O152 1.305 . S
C166 O153 1.234 . S
C167 O164 1.305 . S
C167 O165 1.234 . S
H168 C174 0.930 . S
H169 C178 0.930 . S
H170 C183 0.929 . S
H171 C181 0.929 . S
H172 C176 0.929 . S
H173 C182 0.929 . S
C174 H168 0.930 . S
C174 C175 1.367 . S
C174 C182 1.378 . S
C175 C174 1.367 . S
C175 C183 1.433 . S
C176 H172 0.929 . S
C176 C178 1.378 . S
C176 C180 1.350 . S
C177 C180 1.463 . S
C177 C182 1.350 . S
C177 N185 1.427 . S
C178 H169 0.930 . S
C178 C176 1.378 . S
C178 C179 1.367 . S
C179 C178 1.367 . S
C179 C181 1.433 . S
C180 C176 1.350 . S
C180 C177 1.463 . S
C180 N184 1.427 . S
C181 H171 0.929 . S
C181 C179 1.433 . S
C181 N184 1.384 . S
C182 H173 0.929 . S
C182 C174 1.378 . S
C182 C177 1.350 . S
C183 H170 0.929 . S
C183 C175 1.433 . S
C183 N185 1.384 . S
N184 C180 1.427 . S
N184 C181 1.384 . S
N185 C177 1.427 . S
N185 C183 1.384 . S
H186 C192 0.930 . S
H187 C196 0.930 . S
H188 C201 0.929 . S
H189 C199 0.929 . S
H190 C194 0.929 . S
H191 C200 0.929 . S
C192 H186 0.930 . S
C192 C193 1.367 . S
C192 C200 1.378 . S
C193 C192 1.367 . S
C193 C201 1.433 . S
C194 H190 0.929 . S
C194 C196 1.378 . S
C194 C198 1.350 . S
C195 C198 1.463 . S
C195 C200 1.350 . S
C195 N203 1.427 . S
C196 H187 0.930 . S
C196 C194 1.378 . S
C196 C197 1.367 . S
C197 C196 1.367 . S
C197 C199 1.433 . S
C198 C194 1.350 . S
C198 C195 1.463 . S
C198 N202 1.427 . S
C199 H189 0.929 . S
C199 C197 1.433 . S
C199 N202 1.384 . S
C200 H191 0.929 . S
C200 C192 1.378 . S
C200 C195 1.350 . S
C201 H188 0.929 . S
C201 C193 1.433 . S
C201 N203 1.384 . S
N202 C198 1.427 . S
N202 C199 1.384 . S
N203 C195 1.427 . S
N203 C201 1.384 . S
H204 C210 0.930 . S
H205 C214 0.930 . S
H206 C219 0.929 . S
H207 C217 0.929 . S
H208 C212 0.929 . S
H209 C218 0.929 . S
C210 H204 0.930 . S
C210 C211 1.367 . S
C210 C218 1.378 . S
C211 C210 1.367 . S
C211 C219 1.433 . S
C212 H208 0.929 . S
C212 C214 1.378 . S
C212 C216 1.350 . S
C213 C216 1.463 1_455 S
C213 C218 1.350 . S
C213 N221 1.427 . S
C214 H205 0.930 . S
C214 C212 1.378 . S
C214 C215 1.367 . S
C215 C214 1.367 . S
C215 C217 1.433 . S
C216 C212 1.350 . S
C216 C213 1.463 1_655 S
C216 N220 1.427 . S
C217 H207 0.929 . S
C217 C215 1.433 . S
C217 N220 1.384 . S
C218 H209 0.929 . S
C218 C210 1.378 . S
C218 C213 1.350 . S
C219 H206 0.929 . S
C219 C211 1.433 . S
C219 N221 1.384 . S
N220 C216 1.427 . S
N220 C217 1.384 . S
N221 C213 1.427 . S
N221 C219 1.384 . S
H222 C228 0.930 . S
H223 C232 0.930 . S
H224 C237 0.929 . S
H225 C235 0.929 . S
H226 C230 0.929 . S
H227 C236 0.929 . S
C228 H222 0.930 . S
C228 C229 1.367 . S
C228 C236 1.378 . S
C229 C228 1.367 . S
C229 C237 1.433 . S
C230 H226 0.929 . S
C230 C232 1.378 . S
C230 C234 1.350 . S
C231 C234 1.463 1_455 S
C231 C236 1.350 . S
C231 N239 1.427 . S
C232 H223 0.930 . S
C232 C230 1.378 . S
C232 C233 1.367 . S
C233 C232 1.367 . S
C233 C235 1.433 . S
C234 C230 1.350 . S
C234 C231 1.463 1_655 S
C234 N238 1.427 . S
C235 H225 0.929 . S
C235 C233 1.433 . S
C235 N238 1.384 . S
C236 H227 0.929 . S
C236 C228 1.378 . S
C236 C231 1.350 . S
C237 H224 0.929 . S
C237 C229 1.433 . S
C237 N239 1.384 . S
N238 C234 1.427 . S
N238 C235 1.384 . S
N239 C231 1.427 . S
N239 C237 1.384 . S
H240 C246 0.930 1_556 S
H241 C250 0.930 1_554 S
H242 C255 0.929 . S
H243 C253 0.929 . S
H244 C248 0.929 . S
H245 C254 0.929 . S
C246 H240 0.930 1_554 S
C246 C247 1.367 . S
C246 C254 1.378 1_554 S
C247 C246 1.367 . S
C247 C255 1.433 . S
C248 H244 0.929 . S
C248 C250 1.378 1_554 S
C248 C252 1.350 1_554 S
C249 C252 1.463 1_554 S
C249 C254 1.350 1_554 S
C249 N257 1.427 . S
C250 H241 0.930 1_556 S
C250 C248 1.378 1_556 S
C250 C251 1.367 . S
C251 C250 1.367 . S
C251 C253 1.433 . S
C252 C248 1.350 1_556 S
C252 C249 1.463 1_556 S
C252 N256 1.427 . S
C253 H243 0.929 . S
C253 C251 1.433 . S
C253 N256 1.384 . S
C254 H245 0.929 . S
C254 C246 1.378 1_556 S
C254 C249 1.350 1_556 S
C255 H242 0.929 . S
C255 C247 1.433 . S
C255 N257 1.384 . S
N256 C252 1.427 . S
N256 C253 1.384 . S
N257 C249 1.427 . S
N257 C255 1.384 . S
H258 C264 0.930 . S
H259 C268 0.930 . S
H260 C273 0.929 . S
H261 C271 0.929 . S
H262 C266 0.929 . S
H263 C272 0.929 . S
C264 H258 0.930 . S
C264 C265 1.367 . S
C264 C272 1.378 . S
C265 C264 1.367 . S
C265 C273 1.433 . S
C266 H262 0.929 . S
C266 C268 1.378 . S
C266 C270 1.350 . S
C267 C270 1.463 . S
C267 C272 1.350 . S
C267 N275 1.427 . S
C268 H259 0.930 . S
C268 C266 1.378 . S
C268 C269 1.367 . S
C269 C268 1.367 . S
C269 C271 1.433 . S
C270 C266 1.350 . S
C270 C267 1.463 . S
C270 N274 1.427 . S
C271 H261 0.929 . S
C271 C269 1.433 . S
C271 N274 1.384 . S
C272 H263 0.929 . S
C272 C264 1.378 . S
C272 C267 1.350 . S
C273 H260 0.929 . S
C273 C265 1.433 . S
C273 N275 1.384 . S
N274 C270 1.427 . S
N274 C271 1.384 . S
N275 C267 1.427 . S
N275 C273 1.384 . S
H276 C282 0.930 . S
H277 C286 0.930 . S
H278 C291 0.929 . S
H279 C289 0.929 . S
H280 C284 0.929 . S
H281 C290 0.929 . S
C282 H276 0.930 . S
C282 C283 1.367 . S
C282 C290 1.378 . S
C283 C282 1.367 . S
C283 C291 1.433 . S
C284 H280 0.929 . S
C284 C286 1.378 . S
C284 C288 1.350 . S
C285 C288 1.463 1_554 S
C285 C290 1.350 . S
C285 N293 1.427 . S
C286 H277 0.930 . S
C286 C284 1.378 . S
C286 C287 1.367 . S
C287 C286 1.367 . S
C287 C289 1.433 . S
C288 C284 1.350 . S
C288 C285 1.463 1_556 S
C288 N292 1.427 . S
C289 H279 0.929 . S
C289 C287 1.433 . S
C289 N292 1.384 . S
C290 H281 0.929 . S
C290 C282 1.378 . S
C290 C285 1.350 . S
C291 H278 0.929 . S
C291 C283 1.433 . S
C291 N293 1.384 . S
N292 C288 1.427 . S
N292 C289 1.384 . S
N293 C285 1.427 . S
N293 C291 1.384 . S
H294 C300 0.930 . S
H295 C304 0.930 . S
H296 C309 0.929 . S
H297 C307 0.929 . S
H298 C302 0.929 . S
H299 C308 0.929 . S
C300 H294 0.930 . S
C300 C301 1.367 . S
C300 C308 1.378 . S
C301 C300 1.367 . S
C301 C309 1.433 . S
C302 H298 0.929 . S
C302 C304 1.378 . S
C302 C306 1.350 . S
C303 C306 1.463 . S
C303 C308 1.350 . S
C303 N311 1.427 . S
C304 H295 0.930 . S
C304 C302 1.378 . S
C304 C305 1.367 . S
C305 C304 1.367 . S
C305 C307 1.433 . S
C306 C302 1.350 . S
C306 C303 1.463 . S
C306 N310 1.427 . S
C307 H297 0.929 . S
C307 C305 1.433 . S
C307 N310 1.384 . S
C308 H299 0.929 . S
C308 C300 1.378 . S
C308 C303 1.350 . S
C309 H296 0.929 . S
C309 C301 1.433 . S
C309 N311 1.384 . S
N310 C306 1.427 . S
N310 C307 1.384 . S
N311 C303 1.427 . S
N311 C309 1.384 . S
H312 C318 0.930 . S
H313 C322 0.930 . S
H314 C327 0.929 . S
H315 C325 0.929 . S
H316 C320 0.929 . S
H317 C326 0.929 . S
C318 H312 0.930 . S
C318 C319 1.367 . S
C318 C326 1.378 1_556 S
C319 C318 1.367 . S
C319 C327 1.433 . S
C320 H316 0.929 . S
C320 C322 1.378 1_556 S
C320 C324 1.350 1_556 S
C321 C324 1.463 1_656 S
C321 C326 1.350 1_556 S
C321 N329 1.427 . S
C322 H313 0.930 . S
C322 C320 1.378 1_554 S
C322 C323 1.367 . S
C323 C322 1.367 . S
C323 C325 1.433 . S
C324 C320 1.350 1_554 S
C324 C321 1.463 1_454 S
C324 N328 1.427 . S
C325 H315 0.929 . S
C325 C323 1.433 . S
C325 N328 1.384 . S
C326 H317 0.929 . S
C326 C318 1.378 1_554 S
C326 C321 1.350 1_554 S
C327 H314 0.929 . S
C327 C319 1.433 . S
C327 N329 1.384 . S
N328 C324 1.427 . S
N328 C325 1.384 . S
N329 C321 1.427 . S
N329 C327 1.384 . S
H330 C336 0.930 . S
H331 C340 0.930 . S
H332 C345 0.929 . S
H333 C343 0.929 . S
H334 C338 0.929 . S
H335 C344 0.929 . S
C336 H330 0.930 . S
C336 C337 1.367 . S
C336 C344 1.378 . S
C337 C336 1.367 . S
C337 C345 1.433 . S
C338 H334 0.929 . S
C338 C340 1.378 . S
C338 C342 1.350 . S
C339 C342 1.463 1_455 S
C339 C344 1.350 . S
C339 N347 1.427 . S
C340 H331 0.930 . S
C340 C338 1.378 . S
C340 C341 1.367 . S
C341 C340 1.367 . S
C341 C343 1.433 . S
C342 C338 1.350 . S
C342 C339 1.463 1_655 S
C342 N346 1.427 . S
C343 H333 0.929 . S
C343 C341 1.433 . S
C343 N346 1.384 . S
C344 H335 0.929 . S
C344 C336 1.378 . S
C344 C339 1.350 . S
C345 H332 0.929 . S
C345 C337 1.433 . S
C345 N347 1.384 . S
N346 C342 1.427 . S
N346 C343 1.384 . S
N347 C339 1.427 . S
N347 C345 1.384 . S
H348 C354 0.930 . S
H349 C358 0.930 . S
H350 C363 0.929 . S
H351 C361 0.929 . S
H352 C356 0.929 . S
H353 C362 0.929 . S
C354 H348 0.930 . S
C354 C355 1.367 1_556 S
C354 C362 1.378 . S
C355 C354 1.367 1_554 S
C355 C363 1.433 . S
C356 H352 0.929 . S
C356 C358 1.378 . S
C356 C360 1.350 1_554 S
C357 C360 1.463 1_564 S
C357 C362 1.350 1_554 S
C357 N365 1.427 . S
C358 H349 0.930 . S
C358 C356 1.378 . S
C358 C359 1.367 1_554 S
C359 C358 1.367 1_556 S
C359 C361 1.433 . S
C360 C356 1.350 1_556 S
C360 C357 1.463 1_546 S
C360 N364 1.427 . S
C361 H351 0.929 . S
C361 C359 1.433 . S
C361 N364 1.384 . S
C362 H353 0.929 . S
C362 C354 1.378 . S
C362 C357 1.350 1_556 S
C363 H350 0.929 . S
C363 C355 1.433 . S
C363 N365 1.384 . S
N364 C360 1.427 . S
N364 C361 1.384 . S
N365 C357 1.427 . S
N365 C363 1.384 . S
H366 C372 0.930 . S
H367 C376 0.930 . S
H368 C381 0.929 . S
H369 C379 0.929 . S
H370 C374 0.929 . S
H371 C380 0.929 . S
C372 H366 0.930 . S
C372 C373 1.367 . S
C372 C380 1.378 1_565 S
C373 C372 1.367 . S
C373 C381 1.433 . S
C374 H370 0.929 . S
C374 C376 1.378 1_565 S
C374 C378 1.350 1_565 S
C375 C378 1.463 1_565 S
C375 C380 1.350 1_565 S
C375 N383 1.427 . S
C376 H367 0.930 . S
C376 C374 1.378 1_545 S
C376 C377 1.367 . S
C377 C376 1.367 . S
C377 C379 1.433 . S
C378 C374 1.350 1_545 S
C378 C375 1.463 1_545 S
C378 N382 1.427 . S
C379 H369 0.929 . S
C379 C377 1.433 . S
C379 N382 1.384 . S
C380 H371 0.929 . S
C380 C372 1.378 1_545 S
C380 C375 1.350 1_545 S
C381 H368 0.929 . S
C381 C373 1.433 . S
C381 N383 1.384 . S
N382 C378 1.427 . S
N382 C379 1.384 . S
N383 C375 1.427 . S
N383 C381 1.384 . S
H384 C390 0.930 . S
H385 C394 0.930 . S
H386 C399 0.929 . S
H387 C397 0.929 . S
H388 C392 0.929 . S
H389 C398 0.929 . S
C390 H384 0.930 . S
C390 C391 1.367 . S
C390 C398 1.378 . S
C391 C390 1.367 . S
C391 C399 1.433 . S
C392 H388 0.929 . S
C392 C394 1.378 . S
C392 C396 1.350 . S
C393 C396 1.463 1_455 S
C393 C398 1.350 . S
C393 N401 1.427 . S
C394 H385 0.930 . S
C394 C392 1.378 . S
C394 C395 1.367 . S
C395 C394 1.367 . S
C395 C397 1.433 . S
C396 C392 1.350 . S
C396 C393 1.463 1_655 S
C396 N400 1.427 . S
C397 H387 0.929 . S
C397 C395 1.433 . S
C397 N400 1.384 . S
C398 H389 0.929 . S
C398 C390 1.378 . S
C398 C393 1.350 . S
C399 H386 0.929 . S
C399 C391 1.433 . S
C399 N401 1.384 . S
N400 C396 1.427 . S
N400 C397 1.384 . S
N401 C393 1.427 . S
N401 C399 1.384 . S
H402 C408 0.930 . S
H403 C412 0.930 . S
H404 C417 0.929 . S
H405 C415 0.929 . S
H406 C410 0.929 . S
H407 C416 0.929 . S
C408 H402 0.930 . S
C408 C409 1.367 . S
C408 C416 1.378 . S
C409 C408 1.367 . S
C409 C417 1.433 . S
C410 H406 0.929 . S
C410 C412 1.378 . S
C410 C414 1.350 . S
C411 C414 1.463 1_455 S
C411 C416 1.350 . S
C411 N419 1.427 . S
C412 H403 0.930 . S
C412 C410 1.378 . S
C412 C413 1.367 . S
C413 C412 1.367 . S
C413 C415 1.433 . S
C414 C410 1.350 . S
C414 C411 1.463 1_655 S
C414 N418 1.427 . S
C415 H405 0.929 . S
C415 C413 1.433 . S
C415 N418 1.384 . S
C416 H407 0.929 . S
C416 C408 1.378 . S
C416 C411 1.350 . S
C417 H404 0.929 . S
C417 C409 1.433 . S
C417 N419 1.384 . S
N418 C414 1.427 . S
N418 C415 1.384 . S
N419 C411 1.427 . S
N419 C417 1.384 . S
H420 C426 0.930 . S
H421 C430 0.930 . S
H422 C435 0.929 . S
H423 C433 0.929 . S
H424 C428 0.929 . S
H425 C434 0.929 . S
C426 H420 0.930 . S
C426 C427 1.367 . S
C426 C434 1.378 . S
C427 C426 1.367 . S
C427 C435 1.433 . S
C428 H424 0.929 . S
C428 C430 1.378 . S
C428 C432 1.350 . S
C429 C432 1.463 . S
C429 C434 1.350 . S
C429 N437 1.427 . S
C430 H421 0.930 . S
C430 C428 1.378 . S
C430 C431 1.367 . S
C431 C430 1.367 . S
C431 C433 1.433 . S
C432 C428 1.350 . S
C432 C429 1.463 . S
C432 N436 1.427 . S
C433 H423 0.929 . S
C433 C431 1.433 . S
C433 N436 1.384 . S
C434 H425 0.929 . S
C434 C426 1.378 . S
C434 C429 1.350 . S
C435 H422 0.929 . S
C435 C427 1.433 . S
C435 N437 1.384 . S
N436 C432 1.427 . S
N436 C433 1.384 . S
N437 C429 1.427 . S
N437 C435 1.384 . S
H438 C444 0.930 . S
H439 C448 0.930 . S
H440 C453 0.929 . S
H441 C451 0.929 . S
H442 C446 0.929 . S
H443 C452 0.929 . S
C444 H438 0.930 . S
C444 C445 1.367 . S
C444 C452 1.378 . S
C445 C444 1.367 . S
C445 C453 1.433 . S
C446 H442 0.929 . S
C446 C448 1.378 . S
C446 C450 1.350 . S
C447 C450 1.463 . S
C447 C452 1.350 . S
C447 N455 1.427 . S
C448 H439 0.930 . S
C448 C446 1.378 . S
C448 C449 1.367 . S
C449 C448 1.367 . S
C449 C451 1.433 . S
C450 C446 1.350 . S
C450 C447 1.463 . S
C450 N454 1.427 . S
C451 H441 0.929 . S
C451 C449 1.433 . S
C451 N454 1.384 . S
C452 H443 0.929 . S
C452 C444 1.378 . S
C452 C447 1.350 . S
C453 H440 0.929 . S
C453 C445 1.433 . S
C453 N455 1.384 . S
N454 C450 1.427 . S
N454 C451 1.384 . S
N455 C447 1.427 . S
N455 C453 1.384 . S
H456 C462 0.930 1_554 S
H457 C466 0.930 . S
H458 C471 0.929 . S
H459 C469 0.929 . S
H460 C464 0.929 . S
H461 C470 0.929 . S
C462 H456 0.930 1_556 S
C462 C463 1.367 . S
C462 C470 1.378 . S
C463 C462 1.367 . S
C463 C471 1.433 . S
C464 H460 0.929 . S
C464 C466 1.378 . S
C464 C468 1.350 . S
C465 C468 1.463 . S
C465 C470 1.350 . S
C465 N473 1.427 . S
C466 H457 0.930 . S
C466 C464 1.378 . S
C466 C467 1.367 . S
C467 C466 1.367 . S
C467 C469 1.433 . S
C468 C464 1.350 . S
C468 C465 1.463 . S
C468 N472 1.427 . S
C469 H459 0.929 . S
C469 C467 1.433 . S
C469 N472 1.384 . S
C470 H461 0.929 . S
C470 C462 1.378 . S
C470 C465 1.350 . S
C471 H458 0.929 . S
C471 C463 1.433 . S
C471 N473 1.384 . S
N472 C468 1.427 . S
N472 C469 1.384 . S
N473 C465 1.427 . S
N473 C471 1.384 . S
H474 C480 0.930 . S
H475 C484 0.930 . S
H476 C489 0.929 . S
H477 C487 0.929 . S
H478 C482 0.929 . S
H479 C488 0.929 . S
C480 H474 0.930 . S
C480 C481 1.367 . S
C480 C488 1.378 . S
C481 C480 1.367 . S
C481 C489 1.433 . S
C482 H478 0.929 . S
C482 C484 1.378 . S
C482 C486 1.350 . S
C483 C486 1.463 . S
C483 C488 1.350 . S
C483 N491 1.427 . S
C484 H475 0.930 . S
C484 C482 1.378 . S
C484 C485 1.367 . S
C485 C484 1.367 . S
C485 C487 1.433 . S
C486 C482 1.350 . S
C486 C483 1.463 . S
C486 N490 1.427 . S
C487 H477 0.929 . S
C487 C485 1.433 . S
C487 N490 1.384 . S
C488 H479 0.929 . S
C488 C480 1.378 . S
C488 C483 1.350 . S
C489 H476 0.929 . S
C489 C481 1.433 . S
C489 N491 1.384 . S
N490 C486 1.427 . S
N490 C487 1.384 . S
N491 C483 1.427 . S
N491 C489 1.384 . S
H492 C498 0.930 . S
H493 C502 0.930 . S
H494 C507 0.929 . S
H495 C505 0.929 . S
H496 C500 0.929 . S
H497 C506 0.929 . S
C498 H492 0.930 . S
C498 C499 1.367 . S
C498 C506 1.378 . S
C499 C498 1.367 . S
C499 C507 1.433 . S
C500 H496 0.929 . S
C500 C502 1.378 . S
C500 C504 1.350 . S
C501 C504 1.463 . S
C501 C506 1.350 . S
C501 N509 1.427 . S
C502 H493 0.930 . S
C502 C500 1.378 . S
C502 C503 1.367 . S
C503 C502 1.367 . S
C503 C505 1.433 . S
C504 C500 1.350 . S
C504 C501 1.463 . S
C504 N508 1.427 . S
C505 H495 0.929 . S
C505 C503 1.433 . S
C505 N508 1.384 . S
C506 H497 0.929 . S
C506 C498 1.378 . S
C506 C501 1.350 . S
C507 H494 0.929 . S
C507 C499 1.433 . S
C507 N509 1.384 . S
N508 C504 1.427 . S
N508 C505 1.384 . S
N509 C501 1.427 . S
N509 C507 1.384 . S
H510 C516 0.930 . S
H511 C520 0.930 . S
H512 C525 0.929 . S
H513 C523 0.929 . S
H514 C518 0.929 . S
H515 C524 0.929 . S
C516 H510 0.930 . S
C516 C517 1.367 . S
C516 C524 1.378 . S
C517 C516 1.367 . S
C517 C525 1.433 . S
C518 H514 0.929 . S
C518 C520 1.378 . S
C518 C522 1.350 . S
C519 C522 1.463 . S
C519 C524 1.350 . S
C519 N527 1.427 . S
C520 H511 0.930 . S
C520 C518 1.378 . S
C520 C521 1.367 . S
C521 C520 1.367 . S
C521 C523 1.433 . S
C522 C518 1.350 . S
C522 C519 1.463 . S
C522 N526 1.427 . S
C523 H513 0.929 . S
C523 C521 1.433 . S
C523 N526 1.384 . S
C524 H515 0.929 . S
C524 C516 1.378 . S
C524 C519 1.350 . S
C525 H512 0.929 . S
C525 C517 1.433 . S
C525 N527 1.384 . S
N526 C522 1.427 . S
N526 C523 1.384 . S
N527 C519 1.427 . S
N527 C525 1.384 . S
H528 C534 0.930 . S
H529 C538 0.930 . S
H530 C543 0.929 . S
H531 C541 0.929 . S
H532 C536 0.917 1_565 S
H533 C542 0.929 . S
C534 H528 0.930 . S
C534 C535 1.367 . S
C534 C542 1.378 . S
C535 C534 1.367 . S
C535 C543 1.433 . S
C536 H532 0.917 1_545 S
C536 C538 1.396 . S
C536 C540 1.345 1_545 S
C537 C540 1.463 . S
C537 C542 1.350 . S
C537 N545 1.427 . S
C538 H529 0.930 . S
C538 C536 1.396 . S
C538 C539 1.367 . S
C539 C538 1.367 . S
C539 C541 1.433 . S
C540 C536 1.345 1_565 S
C540 C537 1.463 . S
C540 N544 1.427 1_565 S
C541 H531 0.929 . S
C541 C539 1.433 . S
C541 N544 1.384 . S
C542 H533 0.929 . S
C542 C534 1.378 . S
C542 C537 1.350 . S
C543 H530 0.929 . S
C543 C535 1.433 . S
C543 N545 1.384 . S
N544 C540 1.427 1_545 S
N544 C541 1.384 . S
N545 C537 1.427 . S
N545 C543 1.384 . S
H546 C552 0.930 . S
H547 C556 0.930 . S
H548 C561 0.929 . S
H549 C559 0.929 . S
H550 C554 0.929 . S
H551 C560 0.929 . S
C552 H546 0.930 . S
C552 C553 1.367 . S
C552 C560 1.378 . S
C553 C552 1.367 . S
C553 C561 1.433 1_545 S
C554 H550 0.929 . S
C554 C556 1.378 . S
C554 C558 1.350 . S
C555 C558 1.463 . S
C555 C560 1.350 1_565 S
C555 N563 1.427 . S
C556 H547 0.930 . S
C556 C554 1.378 . S
C556 C557 1.367 . S
C557 C556 1.367 . S
C557 C559 1.433 . S
C558 C554 1.350 . S
C558 C555 1.463 . S
C558 N562 1.427 . S
C559 H549 0.929 . S
C559 C557 1.433 . S
C559 N562 1.384 . S
C560 H551 0.929 . S
C560 C552 1.378 . S
C560 C555 1.350 1_545 S
C561 H548 0.929 . S
C561 C553 1.433 1_565 S
C561 N563 1.384 . S
N562 C558 1.427 . S
N562 C559 1.384 . S
N563 C555 1.427 . S
N563 C561 1.384 . S
H564 C570 0.930 . S
H565 C574 0.930 1_556 S
H566 C579 0.929 . S
H567 C577 0.929 . S
H568 C572 0.929 1_565 S
H569 C578 0.929 . S
C570 H564 0.930 . S
C570 C571 1.367 1_545 S
C570 C578 1.378 . S
C571 C570 1.367 1_565 S
C571 C579 1.433 . S
C572 H568 0.929 1_545 S
C572 C574 1.378 . S
C572 C576 1.350 . S
C573 C576 1.463 . S
C573 C578 1.350 . S
C573 N581 1.427 1_545 S
C574 H565 0.930 1_554 S
C574 C572 1.378 . S
C574 C575 1.367 . S
C575 C574 1.367 . S
C575 C577 1.433 . S
C576 C572 1.350 . S
C576 C573 1.463 . S
C576 N580 1.427 . S
C577 H567 0.929 . S
C577 C575 1.433 . S
C577 N580 1.384 . S
C578 H569 0.929 . S
C578 C570 1.378 . S
C578 C573 1.350 . S
C579 H566 0.929 . S
C579 C571 1.433 . S
C579 N581 1.384 . S
N580 C576 1.427 . S
N580 C577 1.384 . S
N581 C573 1.427 1_565 S
N581 C579 1.384 . S
H582 C588 0.930 . S
H583 C592 0.930 . S
H584 C597 0.929 . S
H585 C595 0.929 . S
H586 C590 0.929 . S
H587 C596 0.929 1_565 S
C588 H582 0.930 . S
C588 C589 1.367 . S
C588 C596 1.378 . S
C589 C588 1.367 . S
C589 C597 1.433 . S
C590 H586 0.929 . S
C590 C592 1.378 . S
C590 C594 1.350 . S
C591 C594 1.463 . S
C591 C596 1.350 . S
C591 N599 1.427 . S
C592 H583 0.930 . S
C592 C590 1.378 . S
C592 C593 1.367 1_545 S
C593 C592 1.367 1_565 S
C593 C595 1.433 . S
C594 C590 1.350 . S
C594 C591 1.463 . S
C594 N598 1.427 1_545 S
C595 H585 0.929 . S
C595 C593 1.433 . S
C595 N598 1.384 . S
C596 H587 0.929 1_545 S
C596 C588 1.378 . S
C596 C591 1.350 . S
C597 H584 0.929 . S
C597 C589 1.433 . S
C597 N599 1.384 . S
N598 C594 1.427 1_565 S
N598 C595 1.384 . S
N599 C591 1.427 . S
N599 C597 1.384 . S
C175 C24 1.042 . S
C179 C3 1.033 . S
C193 C45 1.036 . S
C197 C79 1.029 . S
C211 C108 1.049 . S
C215 C87 1.041 . S
C229 C129 1.035 . S
C233 C163 1.044 . S
C247 C4 1.260 . S
C251 C130 1.260 . S
C265 C25 1.286 . S
C269 C154 1.286 . S
C283 C88 1.286 . S
C287 C46 1.286 . S
C301 C70 1.267 . S
C305 C109 1.267 . S
C319 C61 0.981 . S
C323 C19 0.981 . S
C337 C83 0.985 . S
C341 C40 0.985 . S
C355 C103 0.987 . S
C359 C145 0.987 . S
C373 C124 0.972 . S
C377 C167 0.972 . S
C391 C16 1.045 . S
C395 C37 1.007 . S
C409 C66 1.031 . S
C413 C58 1.025 . S
C427 C121 1.018 . S
C431 C100 1.030 . S
C445 C150 1.044 . S
C449 C142 1.006 . S
C463 C20 1.471 1_556 S
C467 C67 1.348 . S
C481 C41 1.468 . S
C485 C49 1.342 . S
C499 C28 1.356 . S
C503 C62 1.463 1_554 S
C517 C7 1.355 . S
C521 C82 1.462 . S
C535 C104 1.462 1_556 S
C539 C151 1.335 . S
C553 C133 1.339 . S
C557 C125 1.458 . S
C571 C112 1.344 . S
C575 C146 1.469 1_554 S
C589 C166 1.472 . S
C593 C91 1.356 . S
