# Generated by pormake.
# Topology uoq, (4)-cn, num edge types: 1
# Building blocks:
#     Node 0, Type 0, BuildingBlock: GALJAG_clean_sbu_0, # of connection points: 4
#     Node 1, Type 0, BuildingBlock: GALJAG_clean_sbu_0, # of connection points: 4
#     Node 2, Type 0, BuildingBlock: GALJAG_clean_sbu_0, # of connection points: 4
#     Node 3, Type 0, BuildingBlock: GALJAG_clean_sbu_0, # of connection points: 4
#     Node 4, Type 0, BuildingBlock: GALJAG_clean_sbu_0, # of connection points: 4
#     Node 5, Type 0, BuildingBlock: GALJAG_clean_sbu_0, # of connection points: 4
#     Node 6, Type 0, BuildingBlock: GALJAG_clean_sbu_0, # of connection points: 4
#     Node 7, Type 0, BuildingBlock: GALJAG_clean_sbu_0, # of connection points: 4
#     Node 8, Type 0, BuildingBlock: GALJAG_clean_sbu_0, # of connection points: 4
#     Node 9, Type 0, BuildingBlock: GALJAG_clean_sbu_0, # of connection points: 4
#     Node 10, Type 0, BuildingBlock: GALJAG_clean_sbu_0, # of connection points: 4
#     Node 11, Type 0, BuildingBlock: GALJAG_clean_sbu_0, # of connection points: 4
#     Edge 12, Type (0, 0), BuildingBlock: TEMPAE_clean_linker_10, # of connection points: 2
#     Edge 13, Type (0, 0), BuildingBlock: TEMPAE_clean_linker_10, # of connection points: 2
#     Edge 14, Type (0, 0), BuildingBlock: TEMPAE_clean_linker_10, # of connection points: 2
#     Edge 15, Type (0, 0), BuildingBlock: TEMPAE_clean_linker_10, # of connection points: 2
#     Edge 16, Type (0, 0), BuildingBlock: TEMPAE_clean_linker_10, # of connection points: 2
#     Edge 17, Type (0, 0), BuildingBlock: TEMPAE_clean_linker_10, # of connection points: 2
#     Edge 18, Type (0, 0), BuildingBlock: TEMPAE_clean_linker_10, # of connection points: 2
#     Edge 19, Type (0, 0), BuildingBlock: TEMPAE_clean_linker_10, # of connection points: 2
#     Edge 20, Type (0, 0), BuildingBlock: TEMPAE_clean_linker_10, # of connection points: 2
#     Edge 21, Type (0, 0), BuildingBlock: TEMPAE_clean_linker_10, # of connection points: 2
#     Edge 22, Type (0, 0), BuildingBlock: TEMPAE_clean_linker_10, # of connection points: 2
#     Edge 23, Type (0, 0), BuildingBlock: TEMPAE_clean_linker_10, # of connection points: 2
#     Edge 24, Type (0, 0), BuildingBlock: TEMPAE_clean_linker_10, # of connection points: 2
#     Edge 25, Type (0, 0), BuildingBlock: TEMPAE_clean_linker_10, # of connection points: 2
#     Edge 26, Type (0, 0), BuildingBlock: TEMPAE_clean_linker_10, # of connection points: 2
#     Edge 27, Type (0, 0), BuildingBlock: TEMPAE_clean_linker_10, # of connection points: 2
#     Edge 28, Type (0, 0), BuildingBlock: TEMPAE_clean_linker_10, # of connection points: 2
#     Edge 29, Type (0, 0), BuildingBlock: TEMPAE_clean_linker_10, # of connection points: 2
#     Edge 30, Type (0, 0), BuildingBlock: TEMPAE_clean_linker_10, # of connection points: 2
#     Edge 31, Type (0, 0), BuildingBlock: TEMPAE_clean_linker_10, # of connection points: 2
#     Edge 32, Type (0, 0), BuildingBlock: TEMPAE_clean_linker_10, # of connection points: 2
#     Edge 33, Type (0, 0), BuildingBlock: TEMPAE_clean_linker_10, # of connection points: 2
#     Edge 34, Type (0, 0), BuildingBlock: TEMPAE_clean_linker_10, # of connection points: 2
#     Edge 35, Type (0, 0), BuildingBlock: TEMPAE_clean_linker_10, # of connection points: 2
# Relax obj value: 0.135
# Max RMSD: 0.151
# Mean RMSD: 0.151
data_MOF--net-uoq--node1-GALJAG_clean_sbu_0--edge1-TEMPAE_clean_linker_10
_symmetry_space_group_name_H-M    P1
_symmetry_Int_Tables_number       1
_symmetry_cell_setting            triclinic
loop_
_symmetry_equiv_pos_as_xyz
'x, y, z'
_cell_length_a     63.208497
_cell_length_b     63.207072
_cell_length_c     20.399843
_cell_angle_alpha  90.005072
_cell_angle_beta   90.00024
_cell_angle_gamma 119.99958
loop_
_atom_site_label
_atom_site_type_symbol
_atom_site_fract_x
_atom_site_fract_y
_atom_site_fract_z
_atom_type_partial_charge
In0 In 0.30592 0.44593 0.25696 0.0
O1 O 0.27884 0.4327 0.34076 0.0
O2 O 0.28659 0.46576 0.29237 0.0
C3 C 0.31977 0.41293 0.28494 0.0
C4 C 0.27706 0.43484 0.15 0.0
C5 C 0.34851 0.48761 0.27847 0.0
O6 O 0.30678 0.41741 0.32294 0.0
O7 O 0.32525 0.42461 0.23157 0.0
O8 O 0.34439 0.47574 0.22564 0.0
O9 O 0.33126 0.47859 0.31919 0.0
C10 C 0.27467 0.45024 0.33633 0.0
O11 O 0.29662 0.45501 0.15598 0.0
O12 O 0.27326 0.41976 0.19516 0.0
In13 In 0.86625 0.31435 0.55319 0.0
O14 O 0.85613 0.29235 0.64702 0.0
O15 O 0.82757 0.29256 0.59177 0.0
C16 C 0.91373 0.3277 0.56855 0.0
C17 C 0.8461 0.28504 0.44762 0.0
C18 C 0.86661 0.35628 0.58161 0.0
O19 O 0.89672 0.31034 0.59974 0.0
O20 O 0.90677 0.33781 0.52727 0.0
O21 O 0.87197 0.35218 0.5251 0.0
O22 O 0.86111 0.3394 0.62244 0.0
C23 C 0.83356 0.28487 0.64157 0.0
O24 O 0.84606 0.30487 0.45428 0.0
O25 O 0.85784 0.28114 0.49118 0.0
In26 In 0.55338 0.86143 0.91973 0.0
O27 O 0.562 0.85366 0.02192 0.0
O28 O 0.53113 0.82532 0.97296 0.0
C29 C 0.58994 0.90824 0.92173 0.0
C30 C 0.56493 0.83842 0.82646 0.0
C31 C 0.51234 0.86446 0.92807 0.0
O32 O 0.58831 0.89239 0.96201 0.0
O33 O 0.57366 0.90024 0.87779 0.0
O34 O 0.51469 0.85099 0.88644 0.0
O35 O 0.53074 0.87658 0.96404 0.0
C36 C 0.54446 0.83197 0.02336 0.0
O37 O 0.55088 0.84681 0.81493 0.0
O38 O 0.57397 0.84289 0.88316 0.0
In39 In 0.68348 0.54564 0.23581 0.0
O40 O 0.70344 0.55864 0.3327 0.0
O41 O 0.70584 0.53056 0.28093 0.0
C42 C 0.66985 0.57923 0.2571 0.0
C43 C 0.71443 0.55645 0.13301 0.0
C44 C 0.64109 0.50291 0.25326 0.0
O45 O 0.68258 0.57514 0.29705 0.0
O46 O 0.66443 0.56679 0.20496 0.0
O47 O 0.64295 0.51879 0.21264 0.0
O48 O 0.66056 0.50826 0.28284 0.0
C49 C 0.71204 0.54439 0.33046 0.0
O50 O 0.69418 0.53683 0.13574 0.0
O51 O 0.71795 0.57112 0.17896 0.0
In52 In 0.13698 0.6894 0.58186 0.0
O53 O 0.17075 0.69991 0.51998 0.0
O54 O 0.14483 0.70859 0.48183 0.0
C55 C 0.13333 0.6472 0.62313 0.0
C56 C 0.16376 0.72599 0.66503 0.0
C57 C 0.08926 0.67623 0.58694 0.0
O58 O 0.13324 0.65195 0.56294 0.0
O59 O 0.13526 0.66367 0.66165 0.0
O60 O 0.10522 0.69225 0.62375 0.0
O61 O 0.0975 0.6675 0.54503 0.0
C62 C 0.16541 0.71012 0.47516 0.0
O63 O 0.15049 0.72776 0.62159 0.0
O64 O 0.16316 0.70575 0.66664 0.0
In65 In 0.44962 0.13653 0.92374 0.0
O66 O 0.43461 0.14521 0.01408 0.0
O67 O 0.46711 0.17391 0.97123 0.0
C68 C 0.41799 0.09 0.95796 0.0
C69 C 0.43752 0.1554 0.82055 0.0
C70 C 0.49245 0.1367 0.93001 0.0
O71 O 0.42779 0.10724 -0.0013 0.0
O72 O 0.4238 0.0962 0.89881 0.0
O73 O 0.48866 0.15197 0.95949 0.0
O74 O 0.47487 0.12162 0.89513 0.0
C75 C 0.45115 0.16739 0.01568 0.0
O76 O 0.45682 0.15416 0.82146 0.0
O77 O 0.42364 0.1454 0.86876 0.0
In78 In 0.54853 0.68059 0.42266 0.0
O79 O 0.5597 0.70408 0.33112 0.0
O80 O 0.53212 0.70374 0.39211 0.0
C81 C 0.58139 0.66591 0.40173 0.0
C82 C 0.55944 0.70854 0.5316 0.0
C83 C 0.50616 0.63931 0.39594 0.0
O84 O 0.58164 0.68325 0.37051 0.0
O85 O 0.56507 0.65652 0.44527 0.0
O86 O 0.5163 0.6431 0.45144 0.0
O87 O 0.5173 0.6562 0.35494 0.0
C88 C 0.54513 0.71196 0.34129 0.0
O89 O 0.53893 0.68956 0.52332 0.0
O90 O 0.57486 0.71226 0.48745 0.0
In91 In 0.86612 0.55144 0.74212 0.0
O92 O 0.8558 0.56443 0.65057 0.0
O93 O 0.82735 0.5353 0.70534 0.0
C94 C 0.91329 0.58552 0.72118 0.0
C95 C 0.84645 0.56047 0.84895 0.0
C96 C 0.86609 0.50944 0.71571 0.0
O97 O 0.89606 0.58322 0.68525 0.0
O98 O 0.9067 0.57111 0.76947 0.0
O99 O 0.87529 0.52139 0.76771 0.0
O100 O 0.85688 0.51851 0.6784 0.0
C101 C 0.83321 0.54948 0.65662 0.0
O102 O 0.84658 0.54071 0.84179 0.0
O103 O 0.85796 0.57619 0.80536 0.0
In104 In 0.31641 0.86581 0.07102 0.0
O105 O 0.29579 0.82713 0.11045 0.0
O106 O 0.30033 0.85547 0.17497 0.0
C107 C 0.35683 0.86414 0.03729 0.0
C108 C 0.28349 0.84855 0.97352 0.0
C109 C 0.33156 0.91379 0.08742 0.0
O110 O 0.34711 0.85767 0.09326 0.0
O111 O 0.34614 0.87139 -0.00117 0.0
O112 O 0.31184 0.89913 0.0595 0.0
O113 O 0.34308 0.90401 0.11076 0.0
C114 C 0.29117 0.83277 0.1657 0.0
O115 O 0.3053 0.8535 0.96578 0.0
O116 O 0.27844 0.85269 0.03017 0.0
In117 In 0.44332 0.31323 0.4302 0.0
O118 O 0.4544 0.30393 0.52872 0.0
O119 O 0.41922 0.27943 0.49071 0.0
C120 C 0.48459 0.35453 0.39628 0.0
C121 C 0.44612 0.28357 0.34166 0.0
C122 C 0.40929 0.32702 0.42416 0.0
O123 O 0.47798 0.34955 0.45549 0.0
O124 O 0.4704 0.33894 0.35551 0.0
O125 O 0.40795 0.30953 0.39128 0.0
O126 O 0.4274 0.33709 0.46234 0.0
C127 C 0.43489 0.28366 0.53451 0.0
O128 O 0.43101 0.29104 0.33649 0.0
O129 O 0.45992 0.29131 0.39117 0.0
In130 In 0.13122 0.45097 0.76387 0.0
O131 O 0.14558 0.45414 0.8692 0.0
O132 O 0.14161 0.42479 0.81039 0.0
C133 C 0.13175 0.49415 0.76511 0.0
C134 C 0.16128 0.4586 0.66273 0.0
C135 C 0.0855 0.41544 0.73564 0.0
O136 O 0.15048 0.49248 0.75496 0.0
O137 O 0.11282 0.47413 0.77777 0.0
O138 O 0.10358 0.42038 0.69948 0.0
O139 O 0.09058 0.4279 0.78773 0.0
C140 C 0.14888 0.43611 0.86379 0.0
O141 O 0.1385 0.44918 0.65526 0.0
O142 O 0.16875 0.46443 0.72084 0.0
In143 In 0.68794 0.13216 0.05647 0.0
O144 O 0.69778 0.15213 0.15563 0.0
O145 O 0.72329 0.1439 0.11224 0.0
C146 C 0.64511 0.13038 0.03187 0.0
C147 C 0.71512 0.1647 0.9648 0.0
C148 C 0.67599 0.08485 0.04605 0.0
O149 O 0.6515 0.12863 0.08943 0.0
O150 O 0.66011 0.13278 0.9879 0.0
O151 O 0.69228 0.10163 0.01172 0.0
O152 O 0.66629 0.09201 0.08809 0.0
C153 C 0.71876 0.15437 0.15813 0.0
O154 O 0.70867 0.14233 0.96058 0.0
O155 O 0.70755 0.17056 0.01506 0.0
C156 C 0.3484 0.39702 0.26817 0.0
C157 C 0.32952 0.39695 0.30429 0.0
C158 C 0.35967 0.38401 0.29 0.0
C159 C 0.35162 0.37039 0.34892 0.0
C160 C 0.33191 0.36947 0.3842 0.0
C161 C 0.32118 0.3829 0.36165 0.0
C162 C 0.38074 0.38554 0.2512 0.0
C163 C 0.3226 0.35484 0.44664 0.0
C164 C 0.37192 0.32371 0.37298 0.0
C165 C 0.39262 0.33667 0.41264 0.0
C166 C 0.35772 0.33405 0.3541 0.0
C167 C 0.36461 0.35801 0.37477 0.0
C168 C 0.38492 0.37078 0.41704 0.0
C169 C 0.39861 0.35987 0.43583 0.0
C170 C 0.33595 0.31972 0.3099 0.0
C171 C 0.3929 0.39642 0.43987 0.0
H172 H 0.35495 0.40792 0.22393 0.0
H173 H 0.30651 0.38273 0.3896 0.0
H174 H 0.39757 0.39418 0.28153 0.0
H175 H 0.37703 0.36695 0.23823 0.0
H176 H 0.38426 0.3963 0.20539 0.0
H177 H 0.30599 0.35456 0.46556 0.0
H178 H 0.31832 0.33575 0.43834 0.0
H179 H 0.33698 0.36275 0.4849 0.0
H180 H 0.36717 0.3057 0.35517 0.0
H181 H 0.41465 0.36997 0.46633 0.0
H182 H 0.33967 0.32853 0.26096 0.0
H183 H 0.31963 0.31969 0.33002 0.0
H184 H 0.33163 0.30051 0.30349 0.0
H185 H 0.39884 0.40894 0.3971 0.0
H186 H 0.40821 0.40329 0.47553 0.0
H187 H 0.37739 0.39712 0.46305 0.0
C188 C 0.94627 0.32431 0.62874 0.0
C189 C 0.93967 0.33723 0.58529 0.0
C190 C 0.97025 0.33462 0.65246 0.0
C191 C 0.9879 0.35851 0.63283 0.0
C192 C 0.98158 0.37123 0.58684 0.0
C193 C 0.95753 0.36035 0.56328 0.0
C194 C 0.97642 0.32035 0.70052 0.0
C195 C -0.00011 0.39679 0.56491 0.0
C196 C 0.04052 0.39833 0.74635 0.0
C197 C 0.0602 0.39843 0.71449 0.0
C198 C 0.01674 0.38484 0.72119 0.0
C199 C 0.01256 0.37091 0.6633 0.0
C200 C 0.03218 0.36998 0.63282 0.0
C201 C 0.05583 0.38389 0.65858 0.0
C202 C 0.99628 0.38637 0.75494 0.0
C203 C 0.02836 0.35502 0.57168 0.0
H204 H 0.93251 0.30637 0.64568 0.0
H205 H 0.95248 0.37042 0.52987 0.0
H206 H 0.99319 0.32026 0.68482 0.0
H207 H 0.9802 0.32923 0.74937 0.0
H208 H 0.96136 0.30116 0.7057 0.0
H209 H 0.99243 0.40365 0.52633 0.0
H210 H 0.00548 0.40941 0.60744 0.0
H211 H 0.01658 0.39735 0.54569 0.0
H212 H 0.04385 0.40961 0.78944 0.0
H213 H 0.071 0.38384 0.63393 0.0
H214 H 0.98105 0.36779 0.76639 0.0
H215 H 0.98896 0.39508 0.7217 0.0
H216 H 0.00236 0.3971 0.80113 0.0
H217 H 0.01316 0.33604 0.57894 0.0
H218 H 0.04503 0.35442 0.55757 0.0
H219 H 0.02318 0.36293 0.53038 0.0
C220 C 0.60421 0.95211 0.8981 0.0
C221 C 0.60725 0.93452 0.93188 0.0
C222 C 0.61766 0.97687 0.91575 0.0
C223 C 0.63464 0.98413 0.96802 0.0
C224 C 0.63884 0.96664 -0.00044 0.0
C225 C 0.62502 0.94201 0.98125 0.0
C226 C 0.61271 0.99502 0.88085 0.0
C227 C 0.65703 0.97373 0.05487 0.0
C228 C 0.67891 0.05215 0.98522 0.0
C229 C 0.6671 0.05879 0.03229 0.0
C230 C 0.66898 0.02776 0.96523 0.0
C231 C 0.64664 0.00967 0.99265 0.0
C232 C 0.63511 0.01614 0.04196 0.0
C233 C 0.64554 0.04064 0.06139 0.0
C234 C 0.68195 0.02151 0.91318 0.0
C235 C 0.61125 0.99733 0.07241 0.0
H236 H 0.59046 0.94641 0.86002 0.0
H237 H 0.62751 0.92847 0.00735 0.0
H238 H 0.60425 0.00218 0.91548 0.0
H239 H 0.63006 0.01081 0.86344 0.0
H240 H 0.60029 0.98678 0.83824 0.0
H241 H 0.66003 0.95849 0.06946 0.0
H242 H 0.67483 0.98965 0.04062 0.0
H243 H 0.65031 0.97924 0.0982 0.0
H244 H 0.69562 0.06613 0.96267 0.0
H245 H 0.63632 0.0457 0.09764 0.0
H246 H 0.67068 0.01543 0.86801 0.0
H247 H 0.68443 0.00617 0.92972 0.0
H248 H 0.70013 0.03731 0.90071 0.0
H249 H 0.59682 0.98951 0.03423 0.0
H250 H 0.60516 0.00516 0.11198 0.0
H251 H 0.61304 0.98207 0.09308 0.0
C252 C 0.64067 0.59438 0.23795 0.0
C253 C 0.66022 0.59559 0.27344 0.0
C254 C 0.62935 0.60753 0.25828 0.0
C255 C 0.63805 0.62248 0.31486 0.0
C256 C 0.65855 0.62468 0.34895 0.0
C257 C 0.66928 0.61106 0.32809 0.0
C258 C 0.60741 0.60458 0.22092 0.0
C259 C 0.66859 0.64073 0.40883 0.0
C260 C 0.61667 0.66839 0.33987 0.0
C261 C 0.59738 0.65595 0.38427 0.0
C262 C 0.63055 0.65803 0.31813 0.0
C263 C 0.62473 0.63455 0.34065 0.0
C264 C 0.60561 0.62216 0.38661 0.0
C265 C 0.59228 0.63311 0.40823 0.0
C266 C 0.65108 0.67194 0.27 0.0
C267 C 0.59874 0.59701 0.41141 0.0
H268 H 0.63356 0.58237 0.19583 0.0
H269 H 0.68449 0.61213 0.35547 0.0
H270 H 0.59101 0.59577 0.25286 0.0
H271 H 0.61013 0.62271 0.20659 0.0
H272 H 0.60373 0.5933 0.17605 0.0
H273 H 0.68593 0.64216 0.42615 0.0
H274 H 0.6719 0.65936 0.39815 0.0
H275 H 0.65504 0.63318 0.44918 0.0
H276 H 0.6207 0.6861 0.32135 0.0
H277 H 0.5773 0.62338 0.4423 0.0
H278 H 0.64676 0.66193 0.22277 0.0
H279 H 0.66824 0.67339 0.28867 0.0
H280 H 0.65428 0.69063 0.26058 0.0
H281 H 0.59285 0.58399 0.36976 0.0
H282 H 0.58373 0.59007 0.44803 0.0
H283 H 0.61481 0.59729 0.43419 0.0
C284 C 0.95772 0.6002 0.73587 0.0
C285 C 0.93915 0.60216 0.70403 0.0
C286 C 0.98207 0.61394 0.71494 0.0
C287 C 0.98796 0.63021 0.66135 0.0
C288 C 0.9694 0.63296 0.63068 0.0
C289 C 0.94517 0.6188 0.65219 0.0
C290 C 0.00137 0.61046 0.74877 0.0
C291 C 0.97504 0.65036 0.57404 0.0
C292 C 0.0551 0.67749 0.64443 0.0
C293 C 0.0629 0.66636 0.59837 0.0
C294 C 0.03052 0.66642 0.66343 0.0
C295 C 0.01341 0.6436 0.6361 0.0
C296 C 0.02099 0.63282 0.58737 0.0
C297 C 0.04566 0.64441 0.56884 0.0
C298 C 0.02307 0.67864 0.71483 0.0
C299 C 0.00326 0.60847 0.55713 0.0
H300 H 0.95312 0.5873 0.77579 0.0
H301 H 0.93086 0.62042 0.62754 0.0
H302 H 0.00948 0.60319 0.71337 0.0
H303 H 0.01635 0.62827 0.76666 0.0
H304 H 0.99391 0.59768 0.79095 0.0
H305 H 0.95884 0.6516 0.55855 0.0
H306 H 0.98992 0.66889 0.58754 0.0
H307 H 0.98154 0.64422 0.53154 0.0
H308 H 0.06836 0.69452 0.66724 0.0
H309 H 0.05163 0.63572 0.53336 0.0
H310 H 0.01781 0.66764 0.7605 0.0
H311 H 0.00689 0.67965 0.69814 0.0
H312 H 0.03802 0.69739 0.72651 0.0
H313 H 0.99655 0.59404 0.59531 0.0
H314 H 0.01172 0.60332 0.51704 0.0
H315 H 0.98714 0.60889 0.53727 0.0
C316 C 0.32788 0.95014 0.05861 0.0
C317 C 0.34209 0.9405 0.08268 0.0
C318 C 0.33858 0.97497 0.04235 0.0
C319 C 0.3641 0.99036 0.04958 0.0
C320 C 0.37832 0.98097 0.07703 0.0
C321 C 0.36708 0.95614 0.09371 0.0
C322 C 0.32275 0.98442 0.01448 0.0
C323 C 0.40562 0.99682 0.08533 0.0
C324 C 0.39731 0.0451 0.93673 0.0
C325 C 0.4023 0.06445 0.97922 0.0
C326 C 0.3845 0.02082 0.9588 0.0
C327 C 0.37624 0.01585 0.02461 0.0
C328 C 0.38042 0.03529 0.06693 0.0
C329 C 0.39357 0.05939 0.04384 0.0
C330 C 0.38051 0.00055 0.91233 0.0
C331 C 0.37152 0.03068 0.137 0.0
H332 H 0.30852 0.9381 0.05021 0.0
H333 H 0.37815 0.94873 0.11203 0.0
H334 H 0.3264 0.00143 0.03998 0.0
H335 H 0.3272 0.98899 0.96193 0.0
H336 H 0.30297 0.97083 0.01867 0.0
H337 H 0.41378 0.98713 0.11117 0.0
H338 H 0.41437 0.00266 0.03647 0.0
H339 H 0.41 0.01359 0.11321 0.0
H340 H 0.40411 0.04897 0.88685 0.0
H341 H 0.3973 0.07432 0.07676 0.0
H342 H 0.36076 0.98692 0.9089 0.0
H343 H 0.38987 0.99092 0.93137 0.0
H344 H 0.38751 0.00743 0.86229 0.0
H345 H 0.35171 0.01713 0.13865 0.0
H346 H 0.37472 0.04764 0.16206 0.0
H347 H 0.38108 0.02285 0.16483 0.0
C348 C 0.17296 0.41589 0.89107 0.0
C349 C 0.164 0.43129 0.91006 0.0
C350 C 0.1907 0.41423 0.92849 0.0
C351 C 0.19936 0.42798 0.98692 0.0
C352 C 0.18939 0.44251 0.00825 0.0
C353 C 0.17196 0.44417 0.96921 0.0
C354 C 0.20103 0.39873 0.90372 0.0
C355 C 0.1978 0.45703 0.07108 0.0
C356 C 0.23382 0.41213 0.11186 0.0
C357 C 0.25797 0.43091 0.10176 0.0
C358 C 0.21458 0.41065 0.07406 0.0
C359 C 0.21967 0.42811 0.02418 0.0
C360 C 0.24418 0.44631 0.01141 0.0
C361 C 0.26303 0.44763 0.0508 0.0
C362 C 0.1887 0.39114 0.08965 0.0
C363 C 0.2504 0.46492 0.95763 0.0
H364 H 0.167 0.40598 0.84516 0.0
H365 H 0.16509 0.45609 0.98406 0.0
H366 H 0.2206 0.41065 0.89107 0.0
H367 H 0.20008 0.38597 0.94245 0.0
H368 H 0.19125 0.38796 0.85962 0.0
H369 H 0.18686 0.46581 0.08344 0.0
H370 H 0.19657 0.44503 0.11235 0.0
H371 H 0.21724 0.47149 0.06644 0.0
H372 H 0.22975 0.39926 0.15157 0.0
H373 H 0.28166 0.46218 0.04287 0.0
H374 H 0.17931 0.3808 0.04476 0.0
H375 H 0.17832 0.39982 0.10803 0.0
H376 H 0.18794 0.37806 0.12726 0.0
H377 H 0.24219 0.45562 0.91058 0.0
H378 H 0.27043 0.47669 0.95079 0.0
H379 H 0.24261 0.47677 0.96951 0.0
C380 C 0.82372 0.24154 0.41175 0.0
C381 C 0.83022 0.26594 0.40016 0.0
C382 C 0.80592 0.22251 0.37348 0.0
C383 C 0.79475 0.22804 0.32128 0.0
C384 C 0.802 0.25274 0.30754 0.0
C385 C 0.81944 0.2714 0.34772 0.0
C386 C 0.7984 0.19643 0.39053 0.0
C387 C 0.79096 0.25942 0.25124 0.0
C388 C 0.76261 0.18023 0.18863 0.0
C389 C 0.73792 0.17117 0.20414 0.0
C390 C 0.78128 0.1987 0.22633 0.0
C391 C 0.77514 0.20795 0.28186 0.0
C392 C 0.75026 0.1982 0.29928 0.0
C393 C 0.73192 0.18012 0.25968 0.0
C394 C 0.80753 0.2089 0.20538 0.0
C395 C 0.74301 0.20715 0.3591 0.0
H396 H 0.83177 0.23716 0.45273 0.0
H397 H 0.82438 0.29022 0.33871 0.0
H398 H 0.77878 0.18634 0.40422 0.0
H399 H 0.80061 0.18703 0.34737 0.0
H400 H 0.80922 0.19523 0.43183 0.0
H401 H 0.79973 0.2795 0.24439 0.0
H402 H 0.79274 0.25115 0.20508 0.0
H403 H 0.77117 0.25197 0.26012 0.0
H404 H 0.76737 0.17359 0.14526 0.0
H405 H 0.71286 0.17321 0.27173 0.0
H406 H 0.81832 0.20722 0.24583 0.0
H407 H 0.81577 0.22865 0.19413 0.0
H408 H 0.80924 0.19948 0.16145 0.0
H409 H 0.75254 0.20569 0.40308 0.0
H410 H 0.723 0.19669 0.36809 0.0
H411 H 0.74867 0.22672 0.35303 0.0
C412 C 0.55728 0.81661 0.71892 0.0
C413 C 0.56812 0.82194 0.78112 0.0
C414 C 0.55777 0.79872 0.67907 0.0
C415 C 0.56914 0.7857 0.70238 0.0
C416 C 0.58078 0.79158 0.76429 0.0
C417 C 0.58024 0.80971 0.80273 0.0
C418 C 0.54547 0.79321 0.61284 0.0
C419 C 0.59297 0.77806 0.79106 0.0
C420 C 0.54573 0.72258 0.62898 0.0
C421 C 0.56363 0.72715 0.58179 0.0
C422 C 0.54771 0.74133 0.67002 0.0
C423 C 0.56794 0.76526 0.66314 0.0
C424 C 0.58653 0.76975 0.61729 0.0
C425 C 0.58422 0.7506 0.57743 0.0
C426 C 0.52771 0.73572 0.71915 0.0
C427 C 0.60831 0.79501 0.60829 0.0
H428 H 0.5479 0.826 0.702 0.0
H429 H 0.5886 0.81368 0.85089 0.0
H430 H 0.55833 0.79428 0.5742 0.0
H431 H 0.52968 0.77431 0.61245 0.0
H432 H 0.53885 0.806 0.60014 0.0
H433 H 0.60234 0.78573 0.83847 0.0
H434 H 0.5791 0.75855 0.79852 0.0
H435 H 0.60653 0.77868 0.75547 0.0
H436 H 0.52978 0.70451 0.63251 0.0
H437 H 0.59806 0.7543 0.54077 0.0
H438 H 0.51813 0.7458 0.70591 0.0
H439 H 0.53563 0.74194 0.76872 0.0
H440 H 0.51406 0.71591 0.72137 0.0
H441 H 0.60212 0.80751 0.58956 0.0
H442 H 0.62188 0.79517 0.57338 0.0
H443 H 0.61748 0.80244 0.65597 0.0
C444 C 0.75854 0.577 0.10345 0.0
C445 C 0.73419 0.56019 0.08733 0.0
C446 C 0.77797 0.57847 0.06663 0.0
C447 C 0.77296 0.56318 0.0113 0.0
C448 C 0.74838 0.54692 0.99308 0.0
C449 C 0.72927 0.54538 0.03188 0.0
C450 C 0.80387 0.59569 0.08849 0.0
C451 C 0.74229 0.53078 0.93337 0.0
C452 C 0.82272 0.5803 0.88368 0.0
C453 C 0.83022 0.56321 0.89619 0.0
C454 C 0.80424 0.58062 0.92102 0.0
C455 C 0.79341 0.56385 0.97324 0.0
C456 C 0.80175 0.54734 0.98815 0.0
C457 C 0.81984 0.54699 0.94883 0.0
C458 C 0.79557 0.5982 0.90273 0.0
C459 C 0.79113 0.52963 0.04461 0.0
H460 H 0.76248 0.5883 0.14677 0.0
H461 H 0.71049 0.53233 0.01937 0.0
H462 H 0.81297 0.58509 0.10119 0.0
H463 H 0.8145 0.60827 0.04807 0.0
H464 H 0.80468 0.60673 0.13179 0.0
H465 H 0.72235 0.52039 0.92334 0.0
H466 H 0.75179 0.54198 0.88965 0.0
H467 H 0.74882 0.51759 0.94042 0.0
H468 H 0.83045 0.59269 0.8425 0.0
H469 H 0.82555 0.53372 0.95853 0.0
H470 H 0.79672 0.60949 0.94564 0.0
H471 H 0.7761 0.5878 0.88767 0.0
H472 H 0.80637 0.61054 0.86195 0.0
H473 H 0.79201 0.53955 0.09034 0.0
H474 H 0.80086 0.51929 0.05273 0.0
H475 H 0.7716 0.5164 0.03493 0.0
C476 C 0.2073 0.72965 0.42713 0.0
C477 C 0.1833 0.72541 0.42443 0.0
C478 C 0.22546 0.74654 0.38505 0.0
C479 C 0.21944 0.75935 0.33871 0.0
C480 C 0.19504 0.7545 0.33412 0.0
C481 C 0.17726 0.73764 0.37726 0.0
C482 C 0.25126 0.75123 0.39159 0.0
C483 C 0.18785 0.76756 0.2847 0.0
C484 C 0.2694 0.82059 0.27376 0.0
C485 C 0.27431 0.81398 0.21247 0.0
C486 C 0.25185 0.80292 0.31585 0.0
C487 C 0.23876 0.77813 0.29579 0.0
C488 C 0.24395 0.77134 0.2344 0.0
C489 C 0.26173 0.78931 0.19367 0.0
C490 C 0.24703 0.81081 0.38136 0.0
C491 C 0.23032 0.74516 0.21106 0.0
H492 H 0.21213 0.72034 0.46367 0.0
H493 H 0.15877 0.73447 0.37504 0.0
H494 H 0.25782 0.74838 0.34379 0.0
H495 H 0.26362 0.77052 0.40601 0.0
H496 H 0.25277 0.73917 0.42866 0.0
H497 H 0.16792 0.76089 0.28531 0.0
H498 H 0.19776 0.78745 0.29514 0.0
H499 H 0.19313 0.76509 0.23463 0.0
H500 H 0.27904 0.83961 0.28848 0.0
H501 H 0.26534 0.78408 0.14619 0.0
H502 H 0.24942 0.8003 0.42136 0.0
H503 H 0.22785 0.80686 0.38349 0.0
H504 H 0.25936 0.83061 0.39066 0.0
H505 H 0.23235 0.73313 0.24704 0.0
H506 H 0.23688 0.74281 0.16256 0.0
H507 H 0.21053 0.73886 0.20726 0.0
C508 C 0.448 0.18024 0.71761 0.0
C509 C 0.4336 0.17108 0.77405 0.0
C510 C 0.4467 0.19782 0.67829 0.0
C511 C 0.43105 0.20684 0.69682 0.0
C512 C 0.41605 0.1972 0.7529 0.0
C513 C 0.4173 0.17924 0.79038 0.0
C514 C 0.46252 0.20719 0.61784 0.0
C515 C 0.39942 0.20659 0.77493 0.0
C516 C 0.44858 0.27017 0.63338 0.0
C517 C 0.43219 0.26456 0.58126 0.0
C518 C 0.44792 0.25158 0.67271 0.0
C519 C 0.43085 0.2268 0.65848 0.0
C520 C 0.41395 0.2211 0.60671 0.0
C521 C 0.41465 0.24006 0.56924 0.0
C522 C 0.46584 0.25841 0.72856 0.0
C523 C 0.39577 0.19495 0.5892 0.0
H524 H 0.46064 0.17401 0.7049 0.0
H525 H 0.4063 0.17243 0.83438 0.0
H526 H 0.45121 0.20566 0.57454 0.0
H527 H 0.4762 0.22682 0.62413 0.0
H528 H 0.47233 0.19707 0.6076 0.0
H529 H 0.38835 0.19662 0.81845 0.0
H530 H 0.4105 0.22627 0.78736 0.0
H531 H 0.38688 0.20492 0.7347 0.0
H532 H 0.46218 0.28906 0.64274 0.0
H533 H 0.40209 0.23556 0.52853 0.0
H534 H 0.47851 0.25141 0.71876 0.0
H535 H 0.456 0.24982 0.77474 0.0
H536 H 0.4768 0.27849 0.73592 0.0
H537 H 0.40564 0.18534 0.57412 0.0
H538 H 0.38342 0.19362 0.54868 0.0
H539 H 0.3845 0.18517 0.6325 0.0
C540 C 0.16843 0.4507 0.54743 0.0
C541 C 0.17781 0.46094 0.60896 0.0
C542 C 0.18378 0.4503 0.49848 0.0
C543 C 0.20899 0.46044 0.51174 0.0
C544 C 0.21871 0.47188 0.57265 0.0
C545 C 0.20296 0.47196 0.62065 0.0
C546 C 0.17286 0.438 0.43389 0.0
C547 C 0.24556 0.48302 0.58827 0.0
C548 C 0.24411 0.4345 0.42648 0.0
C549 C 0.25732 0.45254 0.37961 0.0
C550 C 0.2279 0.43664 0.46892 0.0
C551 C 0.22493 0.45736 0.46427 0.0
C552 C 0.23793 0.47546 0.41636 0.0
C553 C 0.25402 0.47282 0.37443 0.0
C554 C 0.21425 0.41695 0.51946 0.0
C555 C 0.23519 0.49777 0.41025 0.0
H556 H 0.14897 0.44222 0.53828 0.0
H557 H 0.21028 0.48004 0.6681 0.0
H558 H 0.18335 0.45006 0.39245 0.0
H559 H 0.17393 0.42107 0.4295 0.0
H560 H 0.15343 0.43313 0.42906 0.0
H561 H 0.25048 0.49296 0.63576 0.0
H562 H 0.25042 0.46842 0.59065 0.0
H563 H 0.25681 0.49587 0.54898 0.0
H564 H 0.24657 0.41875 0.43036 0.0
H565 H 0.26419 0.48676 0.33803 0.0
H566 H 0.1943 0.4096 0.51447 0.0
H567 H 0.21956 0.42479 0.56944 0.0
H568 H 0.21796 0.40159 0.51495 0.0
H569 H 0.21567 0.49224 0.40373 0.0
H570 H 0.24577 0.50958 0.36841 0.0
H571 H 0.24153 0.5087 0.45597 0.0
C572 C 0.7906 0.25964 0.6798 0.0
C573 C 0.81555 0.26829 0.68955 0.0
C574 C 0.7732 0.24321 0.72406 0.0
C575 C 0.78107 0.23539 0.77913 0.0
C576 C 0.80626 0.24437 0.78975 0.0
C577 C 0.82324 0.26074 0.74466 0.0
C578 C 0.74643 0.23394 0.71139 0.0
C579 C 0.81525 0.23642 0.84818 0.0
C580 C 0.73933 0.2076 0.92533 0.0
C581 C 0.73084 0.18269 0.91556 0.0
C582 C 0.75538 0.22502 0.8805 0.0
C583 C 0.76295 0.21721 0.82479 0.0
C584 C 0.75396 0.19203 0.8139 0.0
C585 C 0.73801 0.17503 0.85961 0.0
C586 C 0.76468 0.25177 0.89351 0.0
C587 C 0.76161 0.18309 0.75475 0.0
H588 H 0.78462 0.26549 0.63717 0.0
H589 H 0.84254 0.26746 0.75235 0.0
H590 H 0.73671 0.21384 0.70435 0.0
H591 H 0.73805 0.23768 0.75437 0.0
H592 H 0.74343 0.24245 0.66736 0.0
H593 H 0.83551 0.24571 0.8503 0.0
H594 H 0.8085 0.24032 0.89423 0.0
H595 H 0.80793 0.2164 0.84619 0.0
H596 H 0.73379 0.21354 0.96861 0.0
H597 H 0.73138 0.15575 0.85188 0.0
H598 H 0.761 0.26026 0.85066 0.0
H599 H 0.78477 0.26144 0.9007 0.0
H600 H 0.75615 0.25471 0.93759 0.0
H601 H 0.75774 0.1901 0.70915 0.0
H602 H 0.75211 0.16283 0.7521 0.0
H603 H 0.7816 0.19019 0.75634 0.0
C604 C 0.52352 0.79023 0.07171 0.0
C605 C 0.5413 0.81498 0.07675 0.0
C606 C 0.52241 0.77326 0.11773 0.0
C607 C 0.53943 0.78136 0.16989 0.0
C608 C 0.55659 0.80651 0.1771 0.0
C609 C 0.55735 0.82307 0.13025 0.0
C610 C 0.50383 0.74655 0.10869 0.0
C611 C 0.57491 0.81579 0.23248 0.0
C612 C 0.52826 0.739 0.31335 0.0
C613 C 0.54341 0.72947 0.29725 0.0
C614 C 0.52671 0.75594 0.27227 0.0
C615 C 0.54058 0.76334 0.21382 0.0
C616 C 0.55579 0.75365 0.19716 0.0
C617 C 0.55707 0.73684 0.23926 0.0
C618 C 0.51038 0.76601 0.2915 0.0
C619 C 0.57078 0.76111 0.13497 0.0
H620 H 0.51105 0.78394 0.03044 0.0
H621 H 0.57104 0.84223 0.1344 0.0
H622 H 0.51333 0.73631 0.09635 0.0
H623 H 0.4936 0.73873 0.15487 0.0
H624 H 0.49057 0.74355 0.06901 0.0
H625 H 0.58553 0.83606 0.23443 0.0
H626 H 0.56553 0.80883 0.28017 0.0
H627 H 0.58786 0.80892 0.22624 0.0
H628 H 0.51771 0.73334 0.3583 0.0
H629 H 0.56877 0.72946 0.22669 0.0
H630 H 0.49663 0.76203 0.25259 0.0
H631 H 0.52138 0.78616 0.29649 0.0
H632 H 0.50068 0.75822 0.33846 0.0
H633 H 0.55865 0.75694 0.09179 0.0
H634 H 0.58148 0.75164 0.12894 0.0
H635 H 0.58362 0.78111 0.13513 0.0
C636 C 0.73805 0.52852 0.37486 0.0
C637 C 0.72859 0.54429 0.38092 0.0
C638 C 0.75466 0.52892 0.42087 0.0
C639 C 0.76189 0.54547 0.474 0.0
C640 C 0.7521 0.56117 0.48097 0.0
C641 C 0.73552 0.56039 0.43417 0.0
C642 C 0.76477 0.51191 0.41208 0.0
C643 C 0.75942 0.57901 0.53725 0.0
C644 C 0.79004 0.53273 0.62149 0.0
C645 C 0.81499 0.54856 0.61018 0.0
C646 C 0.77248 0.53166 0.57774 0.0
C647 C 0.78016 0.54674 0.52145 0.0
C648 C 0.80532 0.56281 0.50987 0.0
C649 C 0.82248 0.56356 0.55457 0.0
C650 C 0.74575 0.51437 0.59155 0.0
C651 C 0.8141 0.57908 0.45009 0.0
H652 H 0.7327 0.51604 0.3337 0.0
H653 H 0.72819 0.57259 0.43892 0.0
H654 H 0.78489 0.5227 0.4058 0.0
H655 H 0.7611 0.50045 0.45645 0.0
H656 H 0.75679 0.49972 0.36893 0.0
H657 H 0.74955 0.58943 0.53659 0.0
H658 H 0.75573 0.56916 0.58462 0.0
H659 H 0.77934 0.59215 0.53512 0.0
H660 H 0.78422 0.52117 0.66464 0.0
H661 H 0.84178 0.57582 0.54579 0.0
H662 H 0.73752 0.50103 0.5509 0.0
H663 H 0.73581 0.52467 0.59431 0.0
H664 H 0.74284 0.50417 0.63813 0.0
H665 H 0.80799 0.56777 0.40497 0.0
H666 H 0.83431 0.59069 0.44868 0.0
H667 H 0.806 0.59112 0.4492 0.0
C668 C 0.19317 0.74253 0.75731 0.0
C669 C 0.17947 0.74617 0.70935 0.0
C670 C 0.20914 0.76164 0.79815 0.0
C671 C 0.21147 0.78497 0.79068 0.0
C672 C 0.19742 0.78873 0.74305 0.0
C673 C 0.18149 0.76919 0.70279 0.0
C674 C 0.22379 0.75691 0.84866 0.0
C675 C 0.19954 0.81341 0.73392 0.0
C676 C 0.23995 0.82455 0.93955 0.0
C677 C 0.26475 0.83622 0.92271 0.0
C678 C 0.22202 0.80899 0.89505 0.0
C679 C 0.22918 0.80535 0.83227 0.0
C680 C 0.25401 0.81872 0.81322 0.0
C681 C 0.27158 0.83392 0.85899 0.0
C682 C 0.19572 0.79494 0.91717 0.0
C683 C 0.26226 0.81558 0.74628 0.0
H684 H 0.19162 0.72474 0.76258 0.0
H685 H 0.1709 0.77203 0.66563 0.0
H686 H 0.24359 0.76856 0.83839 0.0
H687 H 0.22039 0.76179 0.89825 0.0
H688 H 0.21928 0.73752 0.84927 0.0
H689 H 0.18661 0.81304 0.69643 0.0
H690 H 0.19598 0.81988 0.78097 0.0
H691 H 0.21841 0.82696 0.71874 0.0
H692 H 0.23463 0.82638 0.98881 0.0
H693 H 0.29076 0.84318 0.8457 0.0
H694 H 0.19046 0.77558 0.92581 0.0
H695 H 0.18341 0.79514 0.87874 0.0
H696 H 0.19271 0.80244 0.96325 0.0
H697 H 0.26103 0.79746 0.74344 0.0
H698 H 0.28142 0.82988 0.73579 0.0
H699 H 0.25025 0.81615 0.70754 0.0
C700 C 0.46826 0.20955 0.05962 0.0
C701 C 0.45138 0.18453 0.06474 0.0
C702 C 0.46805 0.22618 0.10457 0.0
C703 C 0.45065 0.21745 0.15582 0.0
C704 C 0.43379 0.19217 0.16175 0.0
C705 C 0.43431 0.17598 0.11587 0.0
C706 C 0.4862 0.25308 0.09676 0.0
C707 C 0.4151 0.18227 0.2162 0.0
C708 C 0.46271 0.25715 0.30557 0.0
C709 C 0.44756 0.26701 0.29362 0.0
C710 C 0.46397 0.24101 0.2609 0.0
C711 C 0.44985 0.23481 0.20292 0.0
C712 C 0.43469 0.2449 0.19027 0.0
C713 C 0.43366 0.26086 0.23604 0.0
C714 C 0.48021 0.23043 0.276 0.0
C715 C 0.41951 0.23874 0.1286 0.0
H716 H 0.48144 0.21618 0.01995 0.0
H717 H 0.42128 0.15662 0.11994 0.0
H718 H 0.47636 0.26333 0.08946 0.0
H719 H 0.4973 0.26027 0.14197 0.0
H720 H 0.49871 0.25681 0.05459 0.0
H721 H 0.40367 0.16204 0.21469 0.0
H722 H 0.42436 0.18771 0.26451 0.0
H723 H 0.40293 0.19018 0.21263 0.0
H724 H 0.47344 0.26186 0.35021 0.0
H725 H 0.42198 0.26854 0.22668 0.0
H726 H 0.49376 0.23499 0.23615 0.0
H727 H 0.46908 0.21021 0.27853 0.0
H728 H 0.49016 0.2373 0.32309 0.0
H729 H 0.43145 0.24345 0.08482 0.0
H730 H 0.40908 0.24857 0.12559 0.0
H731 H 0.40642 0.21881 0.12661 0.0
C732 C 0.39335 0.51511 0.26093 0.0
C733 C 0.37174 0.51006 0.29306 0.0
C734 C 0.4157 0.53578 0.2777 0.0
C735 C 0.41623 0.55199 0.32653 0.0
C736 C 0.39433 0.54717 0.35811 0.0
C737 C 0.3724 0.5261 0.34152 0.0
C738 C 0.43878 0.54013 0.24387 0.0
C739 C 0.39403 0.56431 0.40922 0.0
C740 C 0.47532 0.59533 0.4147 0.0
C741 C 0.48313 0.61696 0.37922 0.0
C742 C 0.45382 0.57384 0.39717 0.0
C743 C 0.43958 0.57426 0.34404 0.0
C744 C 0.44729 0.59617 0.30866 0.0
C745 C 0.46913 0.61718 0.32621 0.0
C746 C 0.44639 0.55068 0.43522 0.0
C747 C 0.43232 0.59752 0.2528 0.0
H748 H 0.39287 0.50259 0.22385 0.0
H749 H 0.35566 0.52226 0.36622 0.0
H750 H 0.44729 0.55785 0.21753 0.0
H751 H 0.45219 0.54122 0.28078 0.0
H752 H 0.43534 0.52546 0.20821 0.0
H753 H 0.37534 0.55819 0.42798 0.0
H754 H 0.40585 0.56576 0.45116 0.0
H755 H 0.40154 0.5829 0.38822 0.0
H756 H 0.48625 0.59511 0.45535 0.0
H757 H 0.4751 0.63394 0.2989 0.0
H758 H 0.44411 0.53594 0.40136 0.0
H759 H 0.4285 0.54444 0.45935 0.0
H760 H 0.45999 0.55317 0.47337 0.0
H761 H 0.43007 0.58426 0.21399 0.0
H762 H 0.44079 0.61604 0.23069 0.0
H763 H 0.41378 0.59245 0.2705 0.0
C764 C 0.84968 0.47096 0.65163 0.0
C765 C 0.86633 0.48692 0.69815 0.0
C766 C 0.84992 0.44982 0.63221 0.0
C767 C 0.86763 0.44482 0.65885 0.0
C768 C 0.88463 0.46098 0.70557 0.0
C769 C 0.88359 0.48175 0.72532 0.0
C770 C 0.83108 0.43273 0.58357 0.0
C771 C 0.90404 0.45644 0.73417 0.0
C772 C 0.8541 0.37923 0.65602 0.0
C773 C 0.86678 0.37896 0.59992 0.0
C774 C 0.85423 0.40054 0.67565 0.0
C775 C 0.86781 0.42226 0.63905 0.0
C776 C 0.88087 0.42218 0.58265 0.0
C777 C 0.87997 0.4004 0.56327 0.0
C778 C 0.8396 0.39971 0.73515 0.0
C779 C 0.89587 0.44512 0.54308 0.0
H780 H 0.83625 0.4749 0.63074 0.0
H781 H 0.89661 0.49422 0.76084 0.0
H782 H 0.84025 0.43093 0.53931 0.0
H783 H 0.82026 0.41424 0.60536 0.0
H784 H 0.81835 0.43912 0.5682 0.0
H785 H 0.9164 0.4712 0.76821 0.0
H786 H 0.89537 0.43885 0.76114 0.0
H787 H 0.91514 0.45496 0.6942 0.0
H788 H 0.84379 0.36263 0.68433 0.0
H789 H 0.88995 0.40026 0.52021 0.0
H790 H 0.82595 0.40505 0.72124 0.0
H791 H 0.8518 0.41299 0.77243 0.0
H792 H 0.82987 0.38128 0.75791 0.0
H793 H 0.88388 0.45162 0.52251 0.0
H794 H 0.90572 0.44224 0.50209 0.0
H795 H 0.90942 0.45985 0.57519 0.0
C796 C 0.46734 0.84637 0.91203 0.0
C797 C 0.48946 0.86503 0.93734 0.0
C798 C 0.44522 0.84568 0.92573 0.0
C799 C 0.44538 0.86431 0.9647 0.0
C800 C 0.46779 0.8836 0.98854 0.0
C801 C 0.48954 0.88361 0.97501 0.0
C802 C 0.42163 0.82469 0.90006 0.0
C803 C 0.46877 0.90403 0.0293 0.0
C804 C 0.39107 0.8745 0.9593 0.0
C805 C 0.37909 0.86359 0.01813 0.0
C806 C 0.41255 0.87467 0.94094 0.0
C807 C 0.42209 0.86341 0.98205 0.0
C808 C 0.40982 0.852 0.04097 0.0
C809 C 0.38853 0.85236 0.05852 0.0
C810 C 0.42527 0.88728 0.87817 0.0
C811 C 0.41932 0.83959 0.08575 0.0
H812 H 0.46722 0.8319 0.88322 0.0
H813 H 0.50665 0.89813 0.9944 0.0
H814 H 0.40968 0.81423 0.94174 0.0
H815 H 0.41164 0.83169 0.87081 0.0
H816 H 0.4247 0.81202 0.86903 0.0
H817 H 0.48779 0.91829 0.0413 0.0
H818 H 0.45978 0.91274 0.0028 0.0
H819 H 0.45863 0.89656 0.07578 0.0
H820 H 0.38386 0.88325 0.92795 0.0
H821 H 0.37925 0.84381 0.10387 0.0
H822 H 0.42735 0.87434 0.84578 0.0
H823 H 0.4439 0.90251 0.88931 0.0
H824 H 0.4152 0.89473 0.85099 0.0
H825 H 0.4214 0.82561 0.05814 0.0
H826 H 0.40706 0.83063 0.12826 0.0
H827 H 0.43765 0.85317 0.10447 0.0
C828 C 0.61803 0.46159 0.30364 0.0
C829 C 0.6178 0.48068 0.26926 0.0
C830 C 0.59622 0.44106 0.32386 0.0
C831 C 0.57366 0.43982 0.31046 0.0
C832 C 0.5733 0.45898 0.27538 0.0
C833 C 0.59541 0.47912 0.25459 0.0
C834 C 0.59735 0.42077 0.35985 0.0
C835 C 0.5496 0.45842 0.26093 0.0
C836 C 0.5164 0.37741 0.31194 0.0
C837 C 0.50728 0.37654 0.37517 0.0
C838 C 0.53794 0.39791 0.29028 0.0
C839 C 0.55045 0.41824 0.33246 0.0
C840 C 0.54116 0.41762 0.39612 0.0
C841 C 0.51976 0.39662 0.41702 0.0
C842 C 0.54751 0.39764 0.2226 0.0
C843 C 0.55383 0.43912 0.44207 0.0
H844 H 0.63534 0.46275 0.31498 0.0
H845 H 0.59522 0.49398 0.2286 0.0
H846 H 0.5894 0.41855 0.40956 0.0
H847 H 0.58632 0.40321 0.33357 0.0
H848 H 0.61634 0.42427 0.36482 0.0
H849 H 0.55247 0.47488 0.23373 0.0
H850 H 0.53743 0.44198 0.23157 0.0
H851 H 0.53994 0.45717 0.30745 0.0
H852 H 0.50686 0.36185 0.2795 0.0
H853 H 0.51266 0.39603 0.46577 0.0
H854 H 0.56608 0.39999 0.22628 0.0
H855 H 0.54908 0.41313 0.19324 0.0
H856 H 0.53557 0.38037 0.19585 0.0
H857 H 0.57246 0.44258 0.45339 0.0
H858 H 0.54371 0.43614 0.48884 0.0
H859 H 0.55587 0.45582 0.41823 0.0
C860 C 0.13349 0.62112 0.71465 0.0
C861 C 0.13175 0.62442 0.64726 0.0
C862 C 0.13278 0.59998 0.73861 0.0
C863 C 0.13017 0.58167 0.69409 0.0
C864 C 0.12798 0.5847 0.62607 0.0
C865 C 0.12885 0.60609 0.60342 0.0
C866 C 0.13525 0.59743 0.81141 0.0
C867 C 0.12507 0.56549 0.57715 0.0
C868 C 0.15331 0.53868 0.7399 0.0
C869 C 0.13154 0.51717 0.75488 0.0
C870 C 0.15317 0.55999 0.72173 0.0
C871 C 0.13069 0.55975 0.71826 0.0
C872 C 0.10872 0.53835 0.73564 0.0
C873 C 0.10942 0.51729 0.75391 0.0
C874 C 0.17701 0.58253 0.70414 0.0
C875 C 0.08442 0.53745 0.73266 0.0
H876 H 0.13572 0.63523 0.7488 0.0
H877 H 0.12741 0.60853 0.55134 0.0
H878 H 0.11952 0.5802 0.82962 0.0
H879 H 0.152 0.59646 0.82136 0.0
H880 H 0.13625 0.61293 0.83969 0.0
H881 H 0.12268 0.57021 0.52627 0.0
H882 H 0.14138 0.56324 0.57858 0.0
H883 H 0.10903 0.5476 0.59018 0.0
H884 H 0.17047 0.53869 0.74065 0.0
H885 H 0.09252 0.50067 0.76525 0.0
H886 H 0.17937 0.5984 0.73326 0.0
H887 H 0.17678 0.58705 0.65167 0.0
H888 H 0.19302 0.5801 0.71277 0.0
H889 H 0.08511 0.55263 0.76166 0.0
H890 H 0.06923 0.51989 0.75141 0.0
H891 H 0.08032 0.53986 0.68121 0.0
C892 C 0.61905 0.13744 0.95365 0.0
C893 C 0.62224 0.13028 0.01625 0.0
C894 C 0.59784 0.13809 0.93759 0.0
C895 C 0.57918 0.13108 0.98501 0.0
C896 C 0.58209 0.12342 0.04801 0.0
C897 C 0.60373 0.1233 0.06311 0.0
C898 C 0.5956 0.14674 0.87027 0.0
C899 C 0.56242 0.1155 0.09953 0.0
C900 C 0.53544 0.15545 0.96891 0.0
C901 C 0.51503 0.13565 0.93999 0.0
C902 C 0.55652 0.15427 0.98321 0.0
C903 C 0.55702 0.13259 0.96924 0.0
C904 C 0.53651 0.11257 0.93963 0.0
C905 C 0.51579 0.11442 0.92479 0.0
C906 C 0.57819 0.17618 0.01359 0.0
C907 C 0.53629 0.08907 0.92471 0.0
H908 H 0.63337 0.14294 0.91729 0.0
H909 H 0.6061 0.11765 0.11142 0.0
H910 H 0.57894 0.13246 0.8454 0.0
H911 H 0.59369 0.1632 0.87473 0.0
H912 H 0.61166 0.15128 0.83877 0.0
H913 H 0.56702 0.109 0.14502 0.0
H914 H 0.55959 0.13098 0.11221 0.0
H915 H 0.54484 0.10062 0.0801 0.0
H916 H 0.53491 0.17191 0.98063 0.0
H917 H 0.49993 0.099 0.90298 0.0
H918 H 0.59462 0.18209 0.98252 0.0
H919 H 0.58226 0.17123 0.06227 0.0
H920 H 0.57506 0.19186 0.01986 0.0
H921 H 0.55151 0.09267 0.89103 0.0
H922 H 0.51885 0.07515 0.90199 0.0
H923 H 0.53918 0.08138 0.97052 0.0
loop_
_geom_bond_atom_site_label_1
_geom_bond_atom_site_label_2
_geom_bond_distance
_geom_bond_site_symmetry_2
_ccdc_geom_bond_type
In0 O1 2.294 . S
In0 O2 2.326 . S
In0 O6 2.266 . S
In0 O7 2.326 . S
In0 O8 2.266 . S
In0 O9 2.326 . S
In0 O11 2.294 . S
In0 O12 2.326 . S
O1 In0 2.294 . S
O1 C10 1.240 . S
O2 In0 2.326 . S
O2 C10 1.252 . S
C3 O6 1.252 . S
C3 O7 1.260 . S
C4 O11 1.240 . S
C4 O12 1.252 . S
C5 O8 1.252 . S
C5 O9 1.260 . S
O6 In0 2.266 . S
O6 C3 1.252 . S
O7 In0 2.326 . S
O7 C3 1.260 . S
O8 In0 2.266 . S
O8 C5 1.252 . S
O9 In0 2.326 . S
O9 C5 1.260 . S
C10 O1 1.240 . S
C10 O2 1.252 . S
O11 In0 2.294 . S
O11 C4 1.240 . S
O12 In0 2.326 . S
O12 C4 1.252 . S
In13 O14 2.294 . S
In13 O15 2.326 . S
In13 O19 2.266 . S
In13 O20 2.326 . S
In13 O21 2.266 . S
In13 O22 2.326 . S
In13 O24 2.294 . S
In13 O25 2.326 . S
O14 In13 2.294 . S
O14 C23 1.240 . S
O15 In13 2.326 . S
O15 C23 1.252 . S
C16 O19 1.252 . S
C16 O20 1.260 . S
C17 O24 1.240 . S
C17 O25 1.252 . S
C18 O21 1.252 . S
C18 O22 1.260 . S
O19 In13 2.266 . S
O19 C16 1.252 . S
O20 In13 2.326 . S
O20 C16 1.260 . S
O21 In13 2.266 . S
O21 C18 1.252 . S
O22 In13 2.326 . S
O22 C18 1.260 . S
C23 O14 1.240 . S
C23 O15 1.252 . S
O24 In13 2.294 . S
O24 C17 1.240 . S
O25 In13 2.326 . S
O25 C17 1.252 . S
In26 O27 2.294 1_556 S
In26 O28 2.326 . S
In26 O32 2.266 . S
In26 O33 2.326 . S
In26 O34 2.266 . S
In26 O35 2.326 1_556 S
In26 O37 2.294 . S
In26 O38 2.326 . S
O27 In26 2.294 1_554 S
O27 C36 1.240 . S
O28 In26 2.326 . S
O28 C36 1.252 1_556 S
C29 O32 1.252 . S
C29 O33 1.260 . S
C30 O37 1.240 . S
C30 O38 1.252 . S
C31 O34 1.252 . S
C31 O35 1.260 1_556 S
O32 In26 2.266 . S
O32 C29 1.252 . S
O33 In26 2.326 . S
O33 C29 1.260 . S
O34 In26 2.266 . S
O34 C31 1.252 . S
O35 In26 2.326 1_554 S
O35 C31 1.260 1_554 S
C36 O27 1.240 . S
C36 O28 1.252 1_554 S
O37 In26 2.294 . S
O37 C30 1.240 . S
O38 In26 2.326 . S
O38 C30 1.252 . S
In39 O40 2.294 . S
In39 O41 2.326 . S
In39 O45 2.266 . S
In39 O46 2.326 . S
In39 O47 2.266 . S
In39 O48 2.326 . S
In39 O50 2.294 . S
In39 O51 2.326 . S
O40 In39 2.294 . S
O40 C49 1.240 . S
O41 In39 2.326 . S
O41 C49 1.252 . S
C42 O45 1.252 . S
C42 O46 1.260 . S
C43 O50 1.240 . S
C43 O51 1.252 . S
C44 O47 1.252 . S
C44 O48 1.260 . S
O45 In39 2.266 . S
O45 C42 1.252 . S
O46 In39 2.326 . S
O46 C42 1.260 . S
O47 In39 2.266 . S
O47 C44 1.252 . S
O48 In39 2.326 . S
O48 C44 1.260 . S
C49 O40 1.240 . S
C49 O41 1.252 . S
O50 In39 2.294 . S
O50 C43 1.240 . S
O51 In39 2.326 . S
O51 C43 1.252 . S
In52 O53 2.294 . S
In52 O54 2.326 . S
In52 O58 2.266 . S
In52 O59 2.326 . S
In52 O60 2.266 . S
In52 O61 2.326 . S
In52 O63 2.294 . S
In52 O64 2.326 . S
O53 In52 2.294 . S
O53 C62 1.240 . S
O54 In52 2.326 . S
O54 C62 1.252 . S
C55 O58 1.252 . S
C55 O59 1.260 . S
C56 O63 1.240 . S
C56 O64 1.252 . S
C57 O60 1.252 . S
C57 O61 1.260 . S
O58 In52 2.266 . S
O58 C55 1.252 . S
O59 In52 2.326 . S
O59 C55 1.260 . S
O60 In52 2.266 . S
O60 C57 1.252 . S
O61 In52 2.326 . S
O61 C57 1.260 . S
C62 O53 1.240 . S
C62 O54 1.252 . S
O63 In52 2.294 . S
O63 C56 1.240 . S
O64 In52 2.326 . S
O64 C56 1.252 . S
In65 O66 2.294 1_556 S
In65 O67 2.326 . S
In65 O71 2.266 . S
In65 O72 2.326 . S
In65 O73 2.266 . S
In65 O74 2.326 1_556 S
In65 O76 2.294 . S
In65 O77 2.326 . S
O66 In65 2.294 1_554 S
O66 C75 1.240 . S
O67 In65 2.326 . S
O67 C75 1.252 1_556 S
C68 O71 1.252 . S
C68 O72 1.260 . S
C69 O76 1.240 . S
C69 O77 1.252 . S
C70 O73 1.252 . S
C70 O74 1.260 1_556 S
O71 In65 2.266 . S
O71 C68 1.252 . S
O72 In65 2.326 . S
O72 C68 1.260 . S
O73 In65 2.266 . S
O73 C70 1.252 . S
O74 In65 2.326 1_554 S
O74 C70 1.260 1_554 S
C75 O66 1.240 . S
C75 O67 1.252 1_554 S
O76 In65 2.294 . S
O76 C69 1.240 . S
O77 In65 2.326 . S
O77 C69 1.252 . S
In78 O79 2.294 . S
In78 O80 2.326 . S
In78 O84 2.266 . S
In78 O85 2.326 . S
In78 O86 2.266 . S
In78 O87 2.326 . S
In78 O89 2.294 . S
In78 O90 2.326 . S
O79 In78 2.294 . S
O79 C88 1.240 . S
O80 In78 2.326 . S
O80 C88 1.252 . S
C81 O84 1.252 . S
C81 O85 1.260 . S
C82 O89 1.240 . S
C82 O90 1.252 . S
C83 O86 1.252 . S
C83 O87 1.260 . S
O84 In78 2.266 . S
O84 C81 1.252 . S
O85 In78 2.326 . S
O85 C81 1.260 . S
O86 In78 2.266 . S
O86 C83 1.252 . S
O87 In78 2.326 . S
O87 C83 1.260 . S
C88 O79 1.240 . S
C88 O80 1.252 . S
O89 In78 2.294 . S
O89 C82 1.240 . S
O90 In78 2.326 . S
O90 C82 1.252 . S
In91 O92 2.294 . S
In91 O93 2.326 . S
In91 O97 2.266 . S
In91 O98 2.326 . S
In91 O99 2.266 . S
In91 O100 2.326 . S
In91 O102 2.294 . S
In91 O103 2.326 . S
O92 In91 2.294 . S
O92 C101 1.240 . S
O93 In91 2.326 . S
O93 C101 1.252 . S
C94 O97 1.252 . S
C94 O98 1.260 . S
C95 O102 1.240 . S
C95 O103 1.252 . S
C96 O99 1.252 . S
C96 O100 1.260 . S
O97 In91 2.266 . S
O97 C94 1.252 . S
O98 In91 2.326 . S
O98 C94 1.260 . S
O99 In91 2.266 . S
O99 C96 1.252 . S
O100 In91 2.326 . S
O100 C96 1.260 . S
C101 O92 1.240 . S
C101 O93 1.252 . S
O102 In91 2.294 . S
O102 C95 1.240 . S
O103 In91 2.326 . S
O103 C95 1.252 . S
In104 O105 2.294 . S
In104 O106 2.326 . S
In104 O110 2.266 . S
In104 O111 2.326 1_554 S
In104 O112 2.266 . S
In104 O113 2.326 . S
In104 O115 2.294 1_554 S
In104 O116 2.326 . S
O105 In104 2.294 . S
O105 C114 1.240 . S
O106 In104 2.326 . S
O106 C114 1.252 . S
C107 O110 1.252 . S
C107 O111 1.260 1_554 S
C108 O115 1.240 . S
C108 O116 1.252 1_556 S
C109 O112 1.252 . S
C109 O113 1.260 . S
O110 In104 2.266 . S
O110 C107 1.252 . S
O111 In104 2.326 1_556 S
O111 C107 1.260 1_556 S
O112 In104 2.266 . S
O112 C109 1.252 . S
O113 In104 2.326 . S
O113 C109 1.260 . S
C114 O105 1.240 . S
C114 O106 1.252 . S
O115 In104 2.294 1_556 S
O115 C108 1.240 . S
O116 In104 2.326 . S
O116 C108 1.252 1_554 S
In117 O118 2.294 . S
In117 O119 2.326 . S
In117 O123 2.266 . S
In117 O124 2.326 . S
In117 O125 2.266 . S
In117 O126 2.326 . S
In117 O128 2.294 . S
In117 O129 2.326 . S
O118 In117 2.294 . S
O118 C127 1.240 . S
O119 In117 2.326 . S
O119 C127 1.252 . S
C120 O123 1.252 . S
C120 O124 1.260 . S
C121 O128 1.240 . S
C121 O129 1.252 . S
C122 O125 1.252 . S
C122 O126 1.260 . S
O123 In117 2.266 . S
O123 C120 1.252 . S
O124 In117 2.326 . S
O124 C120 1.260 . S
O125 In117 2.266 . S
O125 C122 1.252 . S
O126 In117 2.326 . S
O126 C122 1.260 . S
C127 O118 1.240 . S
C127 O119 1.252 . S
O128 In117 2.294 . S
O128 C121 1.240 . S
O129 In117 2.326 . S
O129 C121 1.252 . S
In130 O131 2.294 . S
In130 O132 2.326 . S
In130 O136 2.266 . S
In130 O137 2.326 . S
In130 O138 2.266 . S
In130 O139 2.326 . S
In130 O141 2.294 . S
In130 O142 2.326 . S
O131 In130 2.294 . S
O131 C140 1.240 . S
O132 In130 2.326 . S
O132 C140 1.252 . S
C133 O136 1.252 . S
C133 O137 1.260 . S
C134 O141 1.240 . S
C134 O142 1.252 . S
C135 O138 1.252 . S
C135 O139 1.260 . S
O136 In130 2.266 . S
O136 C133 1.252 . S
O137 In130 2.326 . S
O137 C133 1.260 . S
O138 In130 2.266 . S
O138 C135 1.252 . S
O139 In130 2.326 . S
O139 C135 1.260 . S
C140 O131 1.240 . S
C140 O132 1.252 . S
O141 In130 2.294 . S
O141 C134 1.240 . S
O142 In130 2.326 . S
O142 C134 1.252 . S
In143 O144 2.294 . S
In143 O145 2.326 . S
In143 O149 2.266 . S
In143 O150 2.326 1_554 S
In143 O151 2.266 . S
In143 O152 2.326 . S
In143 O154 2.294 1_554 S
In143 O155 2.326 . S
O144 In143 2.294 . S
O144 C153 1.240 . S
O145 In143 2.326 . S
O145 C153 1.252 . S
C146 O149 1.252 . S
C146 O150 1.260 1_554 S
C147 O154 1.240 . S
C147 O155 1.252 1_556 S
C148 O151 1.252 . S
C148 O152 1.260 . S
O149 In143 2.266 . S
O149 C146 1.252 . S
O150 In143 2.326 1_556 S
O150 C146 1.260 1_556 S
O151 In143 2.266 . S
O151 C148 1.252 . S
O152 In143 2.326 . S
O152 C148 1.260 . S
C153 O144 1.240 . S
C153 O145 1.252 . S
O154 In143 2.294 1_556 S
O154 C147 1.240 . S
O155 In143 2.326 . S
O155 C147 1.252 1_554 S
C156 C157 1.391 . S
C156 C158 1.394 . S
C156 H172 0.931 . S
C157 C156 1.391 . S
C157 C161 1.376 . S
C158 C156 1.394 . S
C158 C159 1.369 . S
C158 C162 1.531 . S
C159 C158 1.369 . S
C159 C160 1.410 . S
C159 C167 1.503 . S
C160 C159 1.410 . S
C160 C161 1.392 . S
C160 C163 1.511 . S
C161 C157 1.376 . S
C161 C160 1.392 . S
C161 H173 0.929 . S
C162 C158 1.531 . S
C162 H174 0.960 . S
C162 H175 0.962 . S
C162 H176 0.960 . S
C163 C160 1.511 . S
C163 H177 0.961 . S
C163 H178 0.961 . S
C163 H179 0.961 . S
C164 C165 1.370 . S
C164 C166 1.363 . S
C164 H180 0.931 . S
C165 C164 1.370 . S
C165 C169 1.408 . S
C166 C164 1.363 . S
C166 C167 1.370 . S
C166 C170 1.524 . S
C167 C159 1.503 . S
C167 C166 1.370 . S
C167 C168 1.403 . S
C168 C167 1.403 . S
C168 C169 1.404 . S
C168 C171 1.539 . S
C169 C165 1.408 . S
C169 C168 1.404 . S
C169 H181 0.930 . S
C170 C166 1.524 . S
C170 H182 0.956 . S
C170 H183 0.961 . S
C170 H184 0.961 . S
C171 C168 1.539 . S
C171 H185 0.958 . S
C171 H186 0.961 . S
C171 H187 0.960 . S
H172 C156 0.931 . S
H173 C161 0.929 . S
H174 C162 0.960 . S
H175 C162 0.962 . S
H176 C162 0.960 . S
H177 C163 0.961 . S
H178 C163 0.961 . S
H179 C163 0.961 . S
H180 C164 0.931 . S
H181 C169 0.930 . S
H182 C170 0.956 . S
H183 C170 0.961 . S
H184 C170 0.961 . S
H185 C171 0.958 . S
H186 C171 0.961 . S
H187 C171 0.960 . S
C188 C189 1.391 . S
C188 C190 1.394 . S
C188 H204 0.931 . S
C189 C188 1.391 . S
C189 C193 1.376 . S
C190 C188 1.394 . S
C190 C191 1.369 . S
C190 C194 1.531 . S
C191 C190 1.369 . S
C191 C192 1.410 . S
C191 C199 1.503 1_655 S
C192 C191 1.410 . S
C192 C193 1.392 . S
C192 C195 1.511 . S
C193 C189 1.376 . S
C193 C192 1.392 . S
C193 H205 0.929 . S
C194 C190 1.531 . S
C194 H206 0.960 1_655 S
C194 H207 0.962 . S
C194 H208 0.960 . S
C195 C192 1.511 . S
C195 H209 0.961 . S
C195 H210 0.961 1_655 S
C195 H211 0.961 1_655 S
C196 C197 1.370 . S
C196 C198 1.363 . S
C196 H212 0.931 . S
C197 C196 1.370 . S
C197 C201 1.408 . S
C198 C196 1.363 . S
C198 C199 1.370 . S
C198 C202 1.524 1_455 S
C199 C191 1.503 1_455 S
C199 C198 1.370 . S
C199 C200 1.403 . S
C200 C199 1.403 . S
C200 C201 1.404 . S
C200 C203 1.539 . S
C201 C197 1.408 . S
C201 C200 1.404 . S
C201 H213 0.930 . S
C202 C198 1.524 1_655 S
C202 H214 0.956 . S
C202 H215 0.961 . S
C202 H216 0.961 1_655 S
C203 C200 1.539 . S
C203 H217 0.958 . S
C203 H218 0.961 . S
C203 H219 0.960 . S
H204 C188 0.931 . S
H205 C193 0.929 . S
H206 C194 0.960 1_455 S
H207 C194 0.962 . S
H208 C194 0.960 . S
H209 C195 0.961 . S
H210 C195 0.961 1_455 S
H211 C195 0.961 1_455 S
H212 C196 0.931 . S
H213 C201 0.930 . S
H214 C202 0.956 . S
H215 C202 0.961 . S
H216 C202 0.961 1_455 S
H217 C203 0.958 . S
H218 C203 0.961 . S
H219 C203 0.960 . S
C220 C221 1.391 . S
C220 C222 1.394 . S
C220 H236 0.931 . S
C221 C220 1.391 . S
C221 C225 1.376 1_556 S
C222 C220 1.394 . S
C222 C223 1.369 . S
C222 C226 1.531 1_565 S
C223 C222 1.369 . S
C223 C224 1.410 1_556 S
C223 C231 1.503 1_566 S
C224 C223 1.410 1_554 S
C224 C225 1.392 . S
C224 C227 1.511 . S
C225 C221 1.376 1_554 S
C225 C224 1.392 . S
C225 H237 0.929 . S
C226 C222 1.531 1_545 S
C226 H238 0.960 . S
C226 H239 0.962 . S
C226 H240 0.960 1_545 S
C227 C224 1.511 . S
C227 H241 0.961 . S
C227 H242 0.961 . S
C227 H243 0.961 . S
C228 C229 1.370 . S
C228 C230 1.363 . S
C228 H244 0.931 . S
C229 C228 1.370 . S
C229 C233 1.408 . S
C230 C228 1.363 . S
C230 C231 1.370 . S
C230 C234 1.524 . S
C231 C223 1.503 1_544 S
C231 C230 1.370 . S
C231 C232 1.403 . S
C232 C231 1.403 . S
C232 C233 1.404 . S
C232 C235 1.539 1_554 S
C233 C229 1.408 . S
C233 C232 1.404 . S
C233 H245 0.930 . S
C234 C230 1.524 . S
C234 H246 0.956 1_554 S
C234 H247 0.961 1_545 S
C234 H248 0.961 . S
C235 C232 1.539 1_556 S
C235 H249 0.958 . S
C235 H250 0.961 1_556 S
C235 H251 0.960 . S
H236 C220 0.931 . S
H237 C225 0.929 . S
H238 C226 0.960 . S
H239 C226 0.962 . S
H240 C226 0.960 1_565 S
H241 C227 0.961 . S
H242 C227 0.961 . S
H243 C227 0.961 . S
H244 C228 0.931 . S
H245 C233 0.930 . S
H246 C234 0.956 1_556 S
H247 C234 0.961 1_565 S
H248 C234 0.961 . S
H249 C235 0.958 . S
H250 C235 0.961 1_554 S
H251 C235 0.960 . S
C252 C253 1.391 . S
C252 C254 1.394 . S
C252 H268 0.931 . S
C253 C252 1.391 . S
C253 C257 1.376 . S
C254 C252 1.394 . S
C254 C255 1.369 . S
C254 C258 1.531 . S
C255 C254 1.369 . S
C255 C256 1.410 . S
C255 C263 1.503 . S
C256 C255 1.410 . S
C256 C257 1.392 . S
C256 C259 1.511 . S
C257 C253 1.376 . S
C257 C256 1.392 . S
C257 H269 0.929 . S
C258 C254 1.531 . S
C258 H270 0.960 . S
C258 H271 0.962 . S
C258 H272 0.960 . S
C259 C256 1.511 . S
C259 H273 0.961 . S
C259 H274 0.961 . S
C259 H275 0.961 . S
C260 C261 1.370 . S
C260 C262 1.363 . S
C260 H276 0.931 . S
C261 C260 1.370 . S
C261 C265 1.408 . S
C262 C260 1.363 . S
C262 C263 1.370 . S
C262 C266 1.524 . S
C263 C255 1.503 . S
C263 C262 1.370 . S
C263 C264 1.403 . S
C264 C263 1.403 . S
C264 C265 1.404 . S
C264 C267 1.539 . S
C265 C261 1.408 . S
C265 C264 1.404 . S
C265 H277 0.930 . S
C266 C262 1.524 . S
C266 H278 0.956 . S
C266 H279 0.961 . S
C266 H280 0.961 . S
C267 C264 1.539 . S
C267 H281 0.958 . S
C267 H282 0.961 . S
C267 H283 0.960 . S
H268 C252 0.931 . S
H269 C257 0.929 . S
H270 C258 0.960 . S
H271 C258 0.962 . S
H272 C258 0.960 . S
H273 C259 0.961 . S
H274 C259 0.961 . S
H275 C259 0.961 . S
H276 C260 0.931 . S
H277 C265 0.930 . S
H278 C266 0.956 . S
H279 C266 0.961 . S
H280 C266 0.961 . S
H281 C267 0.958 . S
H282 C267 0.961 . S
H283 C267 0.960 . S
C284 C285 1.391 . S
C284 C286 1.394 . S
C284 H300 0.931 . S
C285 C284 1.391 . S
C285 C289 1.376 . S
C286 C284 1.394 . S
C286 C287 1.369 . S
C286 C290 1.531 . S
C287 C286 1.369 . S
C287 C288 1.410 . S
C287 C295 1.503 1_655 S
C288 C287 1.410 . S
C288 C289 1.392 . S
C288 C291 1.511 . S
C289 C285 1.376 . S
C289 C288 1.392 . S
C289 H301 0.929 . S
C290 C286 1.531 . S
C290 H302 0.942 1_655 S
C290 H303 0.962 . S
C290 H304 0.960 . S
C291 C288 1.511 . S
C291 H305 0.961 . S
C291 H306 0.996 . S
C291 H307 0.961 . S
C292 C293 1.370 . S
C292 C294 1.363 . S
C292 H308 0.931 . S
C293 C292 1.370 . S
C293 C297 1.408 . S
C294 C292 1.363 . S
C294 C295 1.370 . S
C294 C298 1.524 . S
C295 C287 1.503 1_455 S
C295 C294 1.370 . S
C295 C296 1.403 . S
C296 C295 1.403 . S
C296 C297 1.404 . S
C296 C299 1.539 1_455 S
C297 C293 1.408 . S
C297 C296 1.404 . S
C297 H309 0.930 . S
C298 C294 1.524 . S
C298 H310 0.956 . S
C298 H311 0.961 . S
C298 H312 0.961 . S
C299 C296 1.539 1_655 S
C299 H313 0.958 . S
C299 H314 0.961 1_655 S
C299 H315 0.960 . S
H300 C284 0.931 . S
H301 C289 0.929 . S
H302 C290 0.942 1_455 S
H303 C290 0.962 . S
H304 C290 0.960 . S
H305 C291 0.961 . S
H306 C291 0.996 . S
H307 C291 0.961 . S
H308 C292 0.931 . S
H309 C297 0.930 . S
H310 C298 0.956 . S
H311 C298 0.961 . S
H312 C298 0.961 . S
H313 C299 0.958 . S
H314 C299 0.961 1_455 S
H315 C299 0.960 . S
C316 C317 1.391 . S
C316 C318 1.394 . S
C316 H332 0.931 . S
C317 C316 1.391 . S
C317 C321 1.376 . S
C318 C316 1.394 . S
C318 C319 1.369 . S
C318 C322 1.531 . S
C319 C318 1.369 . S
C319 C320 1.410 . S
C319 C327 1.503 1_564 S
C320 C319 1.410 . S
C320 C321 1.392 . S
C320 C323 1.511 . S
C321 C317 1.376 . S
C321 C320 1.392 . S
C321 H333 0.929 . S
C322 C318 1.531 . S
C322 H334 0.960 1_565 S
C322 H335 0.962 . S
C322 H336 0.960 . S
C323 C320 1.511 . S
C323 H337 0.961 1_554 S
C323 H338 0.999 1_554 S
C323 H339 0.961 . S
C324 C325 1.370 . S
C324 C326 1.363 . S
C324 H340 0.931 . S
C325 C324 1.370 . S
C325 C329 1.408 1_556 S
C326 C324 1.363 . S
C326 C327 1.370 . S
C326 C330 1.524 1_545 S
C327 C319 1.503 1_546 S
C327 C326 1.370 . S
C327 C328 1.403 1_556 S
C328 C327 1.403 1_554 S
C328 C329 1.404 . S
C328 C331 1.539 . S
C329 C325 1.408 1_554 S
C329 C328 1.404 . S
C329 H341 0.930 . S
C330 C326 1.524 1_565 S
C330 H342 0.956 . S
C330 H343 0.961 . S
C330 H344 0.961 1_565 S
C331 C328 1.539 . S
C331 H345 0.958 . S
C331 H346 0.961 . S
C331 H347 0.960 . S
H332 C316 0.931 . S
H333 C321 0.929 . S
H334 C322 0.960 1_545 S
H335 C322 0.962 . S
H336 C322 0.960 . S
H337 C323 0.961 1_556 S
H338 C323 0.999 1_556 S
H339 C323 0.961 . S
H340 C324 0.931 . S
H341 C329 0.930 . S
H342 C330 0.956 . S
H343 C330 0.961 . S
H344 C330 0.961 1_545 S
H345 C331 0.958 . S
H346 C331 0.961 . S
H347 C331 0.960 . S
C348 C349 1.391 . S
C348 C350 1.394 . S
C348 H364 0.931 . S
C349 C348 1.391 . S
C349 C353 1.376 . S
C350 C348 1.394 . S
C350 C351 1.369 . S
C350 C354 1.531 . S
C351 C350 1.369 . S
C351 C352 1.410 . S
C351 C359 1.503 1_556 S
C352 C351 1.410 . S
C352 C353 1.392 . S
C352 C355 1.511 1_556 S
C353 C349 1.376 . S
C353 C352 1.392 . S
C353 H365 0.929 . S
C354 C350 1.531 . S
C354 H366 0.960 . S
C354 H367 0.962 . S
C354 H368 0.960 . S
C355 C352 1.511 1_554 S
C355 H369 0.961 . S
C355 H370 0.961 . S
C355 H371 0.961 . S
C356 C357 1.370 . S
C356 C358 1.363 . S
C356 H372 0.931 . S
C357 C356 1.370 . S
C357 C361 1.408 . S
C358 C356 1.363 . S
C358 C359 1.370 . S
C358 C362 1.524 . S
C359 C351 1.503 1_554 S
C359 C358 1.370 . S
C359 C360 1.403 . S
C360 C359 1.403 . S
C360 C361 1.404 . S
C360 C363 1.539 . S
C361 C357 1.408 . S
C361 C360 1.404 . S
C361 H373 0.930 . S
C362 C358 1.524 . S
C362 H374 0.956 1_554 S
C362 H375 0.961 . S
C362 H376 0.961 . S
C363 C360 1.539 . S
C363 H377 0.958 1_554 S
C363 H378 0.961 . S
C363 H379 0.960 . S
H364 C348 0.931 . S
H365 C353 0.929 . S
H366 C354 0.960 . S
H367 C354 0.962 . S
H368 C354 0.960 . S
H369 C355 0.961 . S
H370 C355 0.961 . S
H371 C355 0.961 . S
H372 C356 0.931 . S
H373 C361 0.930 . S
H374 C362 0.956 1_556 S
H375 C362 0.961 . S
H376 C362 0.961 . S
H377 C363 0.958 1_556 S
H378 C363 0.961 . S
H379 C363 0.960 . S
C380 C381 1.391 . S
C380 C382 1.394 . S
C380 H396 0.931 . S
C381 C380 1.391 . S
C381 C385 1.376 . S
C382 C380 1.394 . S
C382 C383 1.369 . S
C382 C386 1.531 . S
C383 C382 1.369 . S
C383 C384 1.410 . S
C383 C391 1.503 . S
C384 C383 1.410 . S
C384 C385 1.392 . S
C384 C387 1.511 . S
C385 C381 1.376 . S
C385 C384 1.392 . S
C385 H397 0.929 . S
C386 C382 1.531 . S
C386 H398 0.960 . S
C386 H399 0.962 . S
C386 H400 0.960 . S
C387 C384 1.511 . S
C387 H401 0.961 . S
C387 H402 0.961 . S
C387 H403 0.961 . S
C388 C389 1.370 . S
C388 C390 1.363 . S
C388 H404 0.931 . S
C389 C388 1.370 . S
C389 C393 1.408 . S
C390 C388 1.363 . S
C390 C391 1.370 . S
C390 C394 1.524 . S
C391 C383 1.503 . S
C391 C390 1.370 . S
C391 C392 1.403 . S
C392 C391 1.403 . S
C392 C393 1.404 . S
C392 C395 1.539 . S
C393 C389 1.408 . S
C393 C392 1.404 . S
C393 H405 0.930 . S
C394 C390 1.524 . S
C394 H406 0.956 . S
C394 H407 0.961 . S
C394 H408 0.961 . S
C395 C392 1.539 . S
C395 H409 0.958 . S
C395 H410 0.961 . S
C395 H411 0.960 . S
H396 C380 0.931 . S
H397 C385 0.929 . S
H398 C386 0.960 . S
H399 C386 0.962 . S
H400 C386 0.960 . S
H401 C387 0.961 . S
H402 C387 0.961 . S
H403 C387 0.961 . S
H404 C388 0.931 . S
H405 C393 0.930 . S
H406 C394 0.956 . S
H407 C394 0.961 . S
H408 C394 0.961 . S
H409 C395 0.958 . S
H410 C395 0.961 . S
H411 C395 0.960 . S
C412 C413 1.391 . S
C412 C414 1.394 . S
C412 H428 0.931 . S
C413 C412 1.391 . S
C413 C417 1.376 . S
C414 C412 1.394 . S
C414 C415 1.369 . S
C414 C418 1.531 . S
C415 C414 1.369 . S
C415 C416 1.410 . S
C415 C423 1.503 . S
C416 C415 1.410 . S
C416 C417 1.392 . S
C416 C419 1.511 . S
C417 C413 1.376 . S
C417 C416 1.392 . S
C417 H429 0.929 . S
C418 C414 1.531 . S
C418 H430 0.960 . S
C418 H431 0.962 . S
C418 H432 0.960 . S
C419 C416 1.511 . S
C419 H433 0.961 . S
C419 H434 0.961 . S
C419 H435 0.961 . S
C420 C421 1.370 . S
C420 C422 1.363 . S
C420 H436 0.931 . S
C421 C420 1.370 . S
C421 C425 1.408 . S
C422 C420 1.363 . S
C422 C423 1.370 . S
C422 C426 1.524 . S
C423 C415 1.503 . S
C423 C422 1.370 . S
C423 C424 1.403 . S
C424 C423 1.403 . S
C424 C425 1.404 . S
C424 C427 1.539 . S
C425 C421 1.408 . S
C425 C424 1.404 . S
C425 H437 0.930 . S
C426 C422 1.524 . S
C426 H438 0.956 . S
C426 H439 0.961 . S
C426 H440 0.961 . S
C427 C424 1.539 . S
C427 H441 0.958 . S
C427 H442 0.961 . S
C427 H443 0.960 . S
H428 C412 0.931 . S
H429 C417 0.929 . S
H430 C418 0.960 . S
H431 C418 0.962 . S
H432 C418 0.960 . S
H433 C419 0.961 . S
H434 C419 0.961 . S
H435 C419 0.961 . S
H436 C420 0.931 . S
H437 C425 0.930 . S
H438 C426 0.956 . S
H439 C426 0.961 . S
H440 C426 0.961 . S
H441 C427 0.958 . S
H442 C427 0.961 . S
H443 C427 0.960 . S
C444 C445 1.391 . S
C444 C446 1.394 . S
C444 H460 0.931 . S
C445 C444 1.391 . S
C445 C449 1.376 . S
C446 C444 1.394 . S
C446 C447 1.369 . S
C446 C450 1.531 . S
C447 C446 1.369 . S
C447 C448 1.410 . S
C447 C455 1.503 1_554 S
C448 C447 1.410 . S
C448 C449 1.392 . S
C448 C451 1.511 1_554 S
C449 C445 1.376 . S
C449 C448 1.392 . S
C449 H461 0.929 . S
C450 C446 1.531 . S
C450 H462 0.960 . S
C450 H463 0.962 . S
C450 H464 0.960 . S
C451 C448 1.511 1_556 S
C451 H465 0.961 . S
C451 H466 0.961 . S
C451 H467 0.961 . S
C452 C453 1.370 . S
C452 C454 1.363 . S
C452 H468 0.931 . S
C453 C452 1.370 . S
C453 C457 1.408 . S
C454 C452 1.363 . S
C454 C455 1.370 . S
C454 C458 1.524 . S
C455 C447 1.503 1_556 S
C455 C454 1.370 . S
C455 C456 1.403 . S
C456 C455 1.403 . S
C456 C457 1.404 . S
C456 C459 1.539 . S
C457 C453 1.408 . S
C457 C456 1.404 . S
C457 H469 0.930 . S
C458 C454 1.524 . S
C458 H470 0.956 1_556 S
C458 H471 0.961 . S
C458 H472 0.961 . S
C459 C456 1.539 . S
C459 H473 0.958 1_556 S
C459 H474 0.961 . S
C459 H475 0.960 . S
H460 C444 0.931 . S
H461 C449 0.929 . S
H462 C450 0.960 . S
H463 C450 0.962 . S
H464 C450 0.960 . S
H465 C451 0.961 . S
H466 C451 0.961 . S
H467 C451 0.961 . S
H468 C452 0.931 . S
H469 C457 0.930 . S
H470 C458 0.956 1_554 S
H471 C458 0.961 . S
H472 C458 0.961 . S
H473 C459 0.958 1_554 S
H474 C459 0.961 . S
H475 C459 0.960 . S
C476 C477 1.391 . S
C476 C478 1.394 . S
C476 H492 0.931 . S
C477 C476 1.391 . S
C477 C481 1.376 . S
C478 C476 1.394 . S
C478 C479 1.369 . S
C478 C482 1.531 . S
C479 C478 1.369 . S
C479 C480 1.410 . S
C479 C487 1.503 . S
C480 C479 1.410 . S
C480 C481 1.392 . S
C480 C483 1.511 . S
C481 C477 1.376 . S
C481 C480 1.392 . S
C481 H493 0.929 . S
C482 C478 1.531 . S
C482 H494 0.960 . S
C482 H495 0.962 . S
C482 H496 0.960 . S
C483 C480 1.511 . S
C483 H497 0.961 . S
C483 H498 0.961 . S
C483 H499 0.961 . S
C484 C485 1.370 . S
C484 C486 1.363 . S
C484 H500 0.931 . S
C485 C484 1.370 . S
C485 C489 1.408 . S
C486 C484 1.363 . S
C486 C487 1.370 . S
C486 C490 1.524 . S
C487 C479 1.503 . S
C487 C486 1.370 . S
C487 C488 1.403 . S
C488 C487 1.403 . S
C488 C489 1.404 . S
C488 C491 1.539 . S
C489 C485 1.408 . S
C489 C488 1.404 . S
C489 H501 0.930 . S
C490 C486 1.524 . S
C490 H502 0.956 . S
C490 H503 0.961 . S
C490 H504 0.961 . S
C491 C488 1.539 . S
C491 H505 0.958 . S
C491 H506 0.961 . S
C491 H507 0.960 . S
H492 C476 0.931 . S
H493 C481 0.929 . S
H494 C482 0.960 . S
H495 C482 0.962 . S
H496 C482 0.960 . S
H497 C483 0.961 . S
H498 C483 0.961 . S
H499 C483 0.961 . S
H500 C484 0.931 . S
H501 C489 0.930 . S
H502 C490 0.956 . S
H503 C490 0.961 . S
H504 C490 0.961 . S
H505 C491 0.958 . S
H506 C491 0.961 . S
H507 C491 0.960 . S
C508 C509 1.391 . S
C508 C510 1.394 . S
C508 H524 0.931 . S
C509 C508 1.391 . S
C509 C513 1.376 . S
C510 C508 1.394 . S
C510 C511 1.369 . S
C510 C514 1.531 . S
C511 C510 1.369 . S
C511 C512 1.410 . S
C511 C519 1.503 . S
C512 C511 1.410 . S
C512 C513 1.392 . S
C512 C515 1.511 . S
C513 C509 1.376 . S
C513 C512 1.392 . S
C513 H525 0.929 . S
C514 C510 1.531 . S
C514 H526 0.960 . S
C514 H527 0.962 . S
C514 H528 0.960 . S
C515 C512 1.511 . S
C515 H529 0.961 . S
C515 H530 0.961 . S
C515 H531 0.961 . S
C516 C517 1.370 . S
C516 C518 1.363 . S
C516 H532 0.931 . S
C517 C516 1.370 . S
C517 C521 1.408 . S
C518 C516 1.363 . S
C518 C519 1.370 . S
C518 C522 1.524 . S
C519 C511 1.503 . S
C519 C518 1.370 . S
C519 C520 1.403 . S
C520 C519 1.403 . S
C520 C521 1.404 . S
C520 C523 1.539 . S
C521 C517 1.408 . S
C521 C520 1.404 . S
C521 H533 0.930 . S
C522 C518 1.524 . S
C522 H534 0.956 . S
C522 H535 0.961 . S
C522 H536 0.961 . S
C523 C520 1.539 . S
C523 H537 0.958 . S
C523 H538 0.961 . S
C523 H539 0.960 . S
H524 C508 0.931 . S
H525 C513 0.929 . S
H526 C514 0.960 . S
H527 C514 0.962 . S
H528 C514 0.960 . S
H529 C515 0.961 . S
H530 C515 0.961 . S
H531 C515 0.961 . S
H532 C516 0.931 . S
H533 C521 0.930 . S
H534 C522 0.956 . S
H535 C522 0.961 . S
H536 C522 0.961 . S
H537 C523 0.958 . S
H538 C523 0.961 . S
H539 C523 0.960 . S
C540 C541 1.391 . S
C540 C542 1.394 . S
C540 H556 0.931 . S
C541 C540 1.391 . S
C541 C545 1.376 . S
C542 C540 1.394 . S
C542 C543 1.369 . S
C542 C546 1.531 . S
C543 C542 1.369 . S
C543 C544 1.410 . S
C543 C551 1.503 . S
C544 C543 1.410 . S
C544 C545 1.392 . S
C544 C547 1.511 . S
C545 C541 1.376 . S
C545 C544 1.392 . S
C545 H557 0.929 . S
C546 C542 1.531 . S
C546 H558 0.960 . S
C546 H559 0.962 . S
C546 H560 0.960 . S
C547 C544 1.511 . S
C547 H561 0.961 . S
C547 H562 0.961 . S
C547 H563 0.961 . S
C548 C549 1.370 . S
C548 C550 1.363 . S
C548 H564 0.931 . S
C549 C548 1.370 . S
C549 C553 1.408 . S
C550 C548 1.363 . S
C550 C551 1.370 . S
C550 C554 1.524 . S
C551 C543 1.503 . S
C551 C550 1.370 . S
C551 C552 1.403 . S
C552 C551 1.403 . S
C552 C553 1.404 . S
C552 C555 1.539 . S
C553 C549 1.408 . S
C553 C552 1.404 . S
C553 H565 0.930 . S
C554 C550 1.524 . S
C554 H566 0.956 . S
C554 H567 0.961 . S
C554 H568 0.961 . S
C555 C552 1.539 . S
C555 H569 0.958 . S
C555 H570 0.961 . S
C555 H571 0.960 . S
H556 C540 0.931 . S
H557 C545 0.929 . S
H558 C546 0.960 . S
H559 C546 0.962 . S
H560 C546 0.960 . S
H561 C547 0.961 . S
H562 C547 0.961 . S
H563 C547 0.961 . S
H564 C548 0.931 . S
H565 C553 0.930 . S
H566 C554 0.956 . S
H567 C554 0.961 . S
H568 C554 0.961 . S
H569 C555 0.958 . S
H570 C555 0.961 . S
H571 C555 0.960 . S
C572 C573 1.391 . S
C572 C574 1.394 . S
C572 H588 0.931 . S
C573 C572 1.391 . S
C573 C577 1.376 . S
C574 C572 1.394 . S
C574 C575 1.369 . S
C574 C578 1.531 . S
C575 C574 1.369 . S
C575 C576 1.410 . S
C575 C583 1.503 . S
C576 C575 1.410 . S
C576 C577 1.392 . S
C576 C579 1.511 . S
C577 C573 1.376 . S
C577 C576 1.392 . S
C577 H589 0.929 . S
C578 C574 1.531 . S
C578 H590 0.960 . S
C578 H591 0.962 . S
C578 H592 0.960 . S
C579 C576 1.511 . S
C579 H593 0.961 . S
C579 H594 0.961 . S
C579 H595 0.961 . S
C580 C581 1.370 . S
C580 C582 1.363 . S
C580 H596 0.931 1_556 S
C581 C580 1.370 . S
C581 C585 1.408 . S
C582 C580 1.363 . S
C582 C583 1.370 . S
C582 C586 1.524 . S
C583 C575 1.503 . S
C583 C582 1.370 . S
C583 C584 1.403 . S
C584 C583 1.403 . S
C584 C585 1.404 . S
C584 C587 1.539 . S
C585 C581 1.408 . S
C585 C584 1.404 . S
C585 H597 0.930 . S
C586 C582 1.524 . S
C586 H598 0.956 . S
C586 H599 0.961 . S
C586 H600 0.961 . S
C587 C584 1.539 . S
C587 H601 0.958 . S
C587 H602 0.961 . S
C587 H603 0.960 . S
H588 C572 0.931 . S
H589 C577 0.929 . S
H590 C578 0.960 . S
H591 C578 0.962 . S
H592 C578 0.960 . S
H593 C579 0.961 . S
H594 C579 0.961 . S
H595 C579 0.961 . S
H596 C580 0.931 1_554 S
H597 C585 0.930 . S
H598 C586 0.956 . S
H599 C586 0.961 . S
H600 C586 0.961 . S
H601 C587 0.958 . S
H602 C587 0.961 . S
H603 C587 0.960 . S
C604 C605 1.391 . S
C604 C606 1.394 . S
C604 H620 0.931 . S
C605 C604 1.391 . S
C605 C609 1.376 . S
C606 C604 1.394 . S
C606 C607 1.369 . S
C606 C610 1.531 . S
C607 C606 1.369 . S
C607 C608 1.410 . S
C607 C615 1.503 . S
C608 C607 1.410 . S
C608 C609 1.392 . S
C608 C611 1.511 . S
C609 C605 1.376 . S
C609 C608 1.392 . S
C609 H621 0.929 . S
C610 C606 1.531 . S
C610 H622 0.960 . S
C610 H623 0.962 . S
C610 H624 0.960 . S
C611 C608 1.511 . S
C611 H625 0.961 . S
C611 H626 0.961 . S
C611 H627 0.961 . S
C612 C613 1.370 . S
C612 C614 1.363 . S
C612 H628 0.931 . S
C613 C612 1.370 . S
C613 C617 1.408 . S
C614 C612 1.363 . S
C614 C615 1.370 . S
C614 C618 1.524 . S
C615 C607 1.503 . S
C615 C614 1.370 . S
C615 C616 1.403 . S
C616 C615 1.403 . S
C616 C617 1.404 . S
C616 C619 1.539 . S
C617 C613 1.408 . S
C617 C616 1.404 . S
C617 H629 0.930 . S
C618 C614 1.524 . S
C618 H630 0.956 . S
C618 H631 0.961 . S
C618 H632 0.961 . S
C619 C616 1.539 . S
C619 H633 0.958 . S
C619 H634 0.961 . S
C619 H635 0.960 . S
H620 C604 0.931 . S
H621 C609 0.929 . S
H622 C610 0.960 . S
H623 C610 0.962 . S
H624 C610 0.960 . S
H625 C611 0.961 . S
H626 C611 0.961 . S
H627 C611 0.961 . S
H628 C612 0.931 . S
H629 C617 0.930 . S
H630 C618 0.956 . S
H631 C618 0.961 . S
H632 C618 0.961 . S
H633 C619 0.958 . S
H634 C619 0.961 . S
H635 C619 0.960 . S
C636 C637 1.391 . S
C636 C638 1.394 . S
C636 H652 0.931 . S
C637 C636 1.391 . S
C637 C641 1.376 . S
C638 C636 1.394 . S
C638 C639 1.369 . S
C638 C642 1.531 . S
C639 C638 1.369 . S
C639 C640 1.410 . S
C639 C647 1.503 . S
C640 C639 1.410 . S
C640 C641 1.392 . S
C640 C643 1.511 . S
C641 C637 1.376 . S
C641 C640 1.392 . S
C641 H653 0.929 . S
C642 C638 1.531 . S
C642 H654 0.960 . S
C642 H655 0.962 . S
C642 H656 0.960 . S
C643 C640 1.511 . S
C643 H657 0.961 . S
C643 H658 0.961 . S
C643 H659 0.961 . S
C644 C645 1.370 . S
C644 C646 1.363 . S
C644 H660 0.931 . S
C645 C644 1.370 . S
C645 C649 1.408 . S
C646 C644 1.363 . S
C646 C647 1.370 . S
C646 C650 1.524 . S
C647 C639 1.503 . S
C647 C646 1.370 . S
C647 C648 1.403 . S
C648 C647 1.403 . S
C648 C649 1.404 . S
C648 C651 1.539 . S
C649 C645 1.408 . S
C649 C648 1.404 . S
C649 H661 0.930 . S
C650 C646 1.524 . S
C650 H662 0.956 . S
C650 H663 0.961 . S
C650 H664 0.961 . S
C651 C648 1.539 . S
C651 H665 0.958 . S
C651 H666 0.961 . S
C651 H667 0.960 . S
H652 C636 0.931 . S
H653 C641 0.929 . S
H654 C642 0.960 . S
H655 C642 0.962 . S
H656 C642 0.960 . S
H657 C643 0.961 . S
H658 C643 0.961 . S
H659 C643 0.961 . S
H660 C644 0.931 . S
H661 C649 0.930 . S
H662 C650 0.956 . S
H663 C650 0.961 . S
H664 C650 0.961 . S
H665 C651 0.958 . S
H666 C651 0.961 . S
H667 C651 0.960 . S
C668 C669 1.391 . S
C668 C670 1.394 . S
C668 H684 0.931 . S
C669 C668 1.391 . S
C669 C673 1.376 . S
C670 C668 1.394 . S
C670 C671 1.369 . S
C670 C674 1.531 . S
C671 C670 1.369 . S
C671 C672 1.410 . S
C671 C679 1.503 . S
C672 C671 1.410 . S
C672 C673 1.392 . S
C672 C675 1.511 . S
C673 C669 1.376 . S
C673 C672 1.392 . S
C673 H685 0.929 . S
C674 C670 1.531 . S
C674 H686 0.960 . S
C674 H687 0.962 . S
C674 H688 0.960 . S
C675 C672 1.511 . S
C675 H689 0.961 . S
C675 H690 0.961 . S
C675 H691 0.961 . S
C676 C677 1.370 . S
C676 C678 1.363 . S
C676 H692 0.931 . S
C677 C676 1.370 . S
C677 C681 1.408 . S
C678 C676 1.363 . S
C678 C679 1.370 . S
C678 C682 1.524 . S
C679 C671 1.503 . S
C679 C678 1.370 . S
C679 C680 1.403 . S
C680 C679 1.403 . S
C680 C681 1.404 . S
C680 C683 1.539 . S
C681 C677 1.408 . S
C681 C680 1.404 . S
C681 H693 0.930 . S
C682 C678 1.524 . S
C682 H694 0.956 . S
C682 H695 0.961 . S
C682 H696 0.961 . S
C683 C680 1.539 . S
C683 H697 0.958 . S
C683 H698 0.961 . S
C683 H699 0.960 . S
H684 C668 0.931 . S
H685 C673 0.929 . S
H686 C674 0.960 . S
H687 C674 0.962 . S
H688 C674 0.960 . S
H689 C675 0.961 . S
H690 C675 0.961 . S
H691 C675 0.961 . S
H692 C676 0.931 . S
H693 C681 0.930 . S
H694 C682 0.956 . S
H695 C682 0.961 . S
H696 C682 0.961 . S
H697 C683 0.958 . S
H698 C683 0.961 . S
H699 C683 0.960 . S
C700 C701 1.391 . S
C700 C702 1.394 . S
C700 H716 0.931 . S
C701 C700 1.391 . S
C701 C705 1.376 . S
C702 C700 1.394 . S
C702 C703 1.369 . S
C702 C706 1.531 . S
C703 C702 1.369 . S
C703 C704 1.410 . S
C703 C711 1.503 . S
C704 C703 1.410 . S
C704 C705 1.392 . S
C704 C707 1.511 . S
C705 C701 1.376 . S
C705 C704 1.392 . S
C705 H717 0.929 . S
C706 C702 1.531 . S
C706 H718 0.960 . S
C706 H719 0.962 . S
C706 H720 0.960 . S
C707 C704 1.511 . S
C707 H721 0.961 . S
C707 H722 0.961 . S
C707 H723 0.961 . S
C708 C709 1.370 . S
C708 C710 1.363 . S
C708 H724 0.931 . S
C709 C708 1.370 . S
C709 C713 1.408 . S
C710 C708 1.363 . S
C710 C711 1.370 . S
C710 C714 1.524 . S
C711 C703 1.503 . S
C711 C710 1.370 . S
C711 C712 1.403 . S
C712 C711 1.403 . S
C712 C713 1.404 . S
C712 C715 1.539 . S
C713 C709 1.408 . S
C713 C712 1.404 . S
C713 H725 0.930 . S
C714 C710 1.524 . S
C714 H726 0.956 . S
C714 H727 0.961 . S
C714 H728 0.961 . S
C715 C712 1.539 . S
C715 H729 0.958 . S
C715 H730 0.961 . S
C715 H731 0.960 . S
H716 C700 0.931 . S
H717 C705 0.929 . S
H718 C706 0.960 . S
H719 C706 0.962 . S
H720 C706 0.960 . S
H721 C707 0.961 . S
H722 C707 0.961 . S
H723 C707 0.961 . S
H724 C708 0.931 . S
H725 C713 0.930 . S
H726 C714 0.956 . S
H727 C714 0.961 . S
H728 C714 0.961 . S
H729 C715 0.958 . S
H730 C715 0.961 . S
H731 C715 0.960 . S
C732 C733 1.391 . S
C732 C734 1.394 . S
C732 H748 0.931 . S
C733 C732 1.391 . S
C733 C737 1.376 . S
C734 C732 1.394 . S
C734 C735 1.369 . S
C734 C738 1.531 . S
C735 C734 1.369 . S
C735 C736 1.410 . S
C735 C743 1.503 . S
C736 C735 1.410 . S
C736 C737 1.392 . S
C736 C739 1.511 . S
C737 C733 1.376 . S
C737 C736 1.392 . S
C737 H749 0.929 . S
C738 C734 1.531 . S
C738 H750 0.960 . S
C738 H751 0.962 . S
C738 H752 0.960 . S
C739 C736 1.511 . S
C739 H753 0.961 . S
C739 H754 0.961 . S
C739 H755 0.961 . S
C740 C741 1.370 . S
C740 C742 1.363 . S
C740 H756 0.931 . S
C741 C740 1.370 . S
C741 C745 1.408 . S
C742 C740 1.363 . S
C742 C743 1.370 . S
C742 C746 1.524 . S
C743 C735 1.503 . S
C743 C742 1.370 . S
C743 C744 1.403 . S
C744 C743 1.403 . S
C744 C745 1.404 . S
C744 C747 1.539 . S
C745 C741 1.408 . S
C745 C744 1.404 . S
C745 H757 0.930 . S
C746 C742 1.524 . S
C746 H758 0.956 . S
C746 H759 0.961 . S
C746 H760 0.961 . S
C747 C744 1.539 . S
C747 H761 0.958 . S
C747 H762 0.961 . S
C747 H763 0.960 . S
H748 C732 0.931 . S
H749 C737 0.929 . S
H750 C738 0.960 . S
H751 C738 0.962 . S
H752 C738 0.960 . S
H753 C739 0.961 . S
H754 C739 0.961 . S
H755 C739 0.961 . S
H756 C740 0.931 . S
H757 C745 0.930 . S
H758 C746 0.956 . S
H759 C746 0.961 . S
H760 C746 0.961 . S
H761 C747 0.958 . S
H762 C747 0.961 . S
H763 C747 0.960 . S
C764 C765 1.391 . S
C764 C766 1.394 . S
C764 H780 0.931 . S
C765 C764 1.391 . S
C765 C769 1.376 . S
C766 C764 1.394 . S
C766 C767 1.369 . S
C766 C770 1.531 . S
C767 C766 1.369 . S
C767 C768 1.410 . S
C767 C775 1.503 . S
C768 C767 1.410 . S
C768 C769 1.392 . S
C768 C771 1.511 . S
C769 C765 1.376 . S
C769 C768 1.392 . S
C769 H781 0.929 . S
C770 C766 1.531 . S
C770 H782 0.960 . S
C770 H783 0.962 . S
C770 H784 0.960 . S
C771 C768 1.511 . S
C771 H785 0.961 . S
C771 H786 0.961 . S
C771 H787 0.961 . S
C772 C773 1.370 . S
C772 C774 1.363 . S
C772 H788 0.931 . S
C773 C772 1.370 . S
C773 C777 1.408 . S
C774 C772 1.363 . S
C774 C775 1.370 . S
C774 C778 1.524 . S
C775 C767 1.503 . S
C775 C774 1.370 . S
C775 C776 1.403 . S
C776 C775 1.403 . S
C776 C777 1.404 . S
C776 C779 1.539 . S
C777 C773 1.408 . S
C777 C776 1.404 . S
C777 H789 0.930 . S
C778 C774 1.524 . S
C778 H790 0.956 . S
C778 H791 0.961 . S
C778 H792 0.961 . S
C779 C776 1.539 . S
C779 H793 0.958 . S
C779 H794 0.961 . S
C779 H795 0.960 . S
H780 C764 0.931 . S
H781 C769 0.929 . S
H782 C770 0.960 . S
H783 C770 0.962 . S
H784 C770 0.960 . S
H785 C771 0.961 . S
H786 C771 0.961 . S
H787 C771 0.961 . S
H788 C772 0.931 . S
H789 C777 0.930 . S
H790 C778 0.956 . S
H791 C778 0.961 . S
H792 C778 0.961 . S
H793 C779 0.958 . S
H794 C779 0.961 . S
H795 C779 0.960 . S
C796 C797 1.391 . S
C796 C798 1.394 . S
C796 H812 0.931 . S
C797 C796 1.391 . S
C797 C801 1.376 1_556 S
C798 C796 1.394 . S
C798 C799 1.369 1_556 S
C798 C802 1.531 . S
C799 C798 1.369 1_554 S
C799 C800 1.410 . S
C799 C807 1.503 . S
C800 C799 1.410 . S
C800 C801 1.392 . S
C800 C803 1.511 . S
C801 C797 1.376 1_554 S
C801 C800 1.392 . S
C801 H813 0.929 . S
C802 C798 1.531 . S
C802 H814 0.960 . S
C802 H815 0.962 . S
C802 H816 0.960 . S
C803 C800 1.511 . S
C803 H817 0.961 . S
C803 H818 0.961 . S
C803 H819 0.961 . S
C804 C805 1.370 1_556 S
C804 C806 1.363 . S
C804 H820 0.931 . S
C805 C804 1.370 1_554 S
C805 C809 1.408 . S
C806 C804 1.363 . S
C806 C807 1.370 1_556 S
C806 C810 1.524 . S
C807 C799 1.503 . S
C807 C806 1.370 1_554 S
C807 C808 1.403 . S
C808 C807 1.403 . S
C808 C809 1.404 . S
C808 C811 1.539 . S
C809 C805 1.408 . S
C809 C808 1.404 . S
C809 H821 0.930 . S
C810 C806 1.524 . S
C810 H822 0.956 . S
C810 H823 0.961 . S
C810 H824 0.961 . S
C811 C808 1.539 . S
C811 H825 0.958 . S
C811 H826 0.961 . S
C811 H827 0.960 . S
H812 C796 0.931 . S
H813 C801 0.929 . S
H814 C802 0.960 . S
H815 C802 0.962 . S
H816 C802 0.960 . S
H817 C803 0.961 . S
H818 C803 0.961 . S
H819 C803 0.961 . S
H820 C804 0.931 . S
H821 C809 0.930 . S
H822 C810 0.956 . S
H823 C810 0.961 . S
H824 C810 0.961 . S
H825 C811 0.958 . S
H826 C811 0.961 . S
H827 C811 0.960 . S
C828 C829 1.391 . S
C828 C830 1.394 . S
C828 H844 0.931 . S
C829 C828 1.391 . S
C829 C833 1.376 . S
C830 C828 1.394 . S
C830 C831 1.369 . S
C830 C834 1.531 . S
C831 C830 1.369 . S
C831 C832 1.410 . S
C831 C839 1.503 . S
C832 C831 1.410 . S
C832 C833 1.392 . S
C832 C835 1.511 . S
C833 C829 1.376 . S
C833 C832 1.392 . S
C833 H845 0.929 . S
C834 C830 1.531 . S
C834 H846 0.960 . S
C834 H847 0.962 . S
C834 H848 0.960 . S
C835 C832 1.511 . S
C835 H849 0.961 . S
C835 H850 0.961 . S
C835 H851 0.961 . S
C836 C837 1.370 . S
C836 C838 1.363 . S
C836 H852 0.931 . S
C837 C836 1.370 . S
C837 C841 1.408 . S
C838 C836 1.363 . S
C838 C839 1.370 . S
C838 C842 1.524 . S
C839 C831 1.503 . S
C839 C838 1.370 . S
C839 C840 1.403 . S
C840 C839 1.403 . S
C840 C841 1.404 . S
C840 C843 1.539 . S
C841 C837 1.408 . S
C841 C840 1.404 . S
C841 H853 0.930 . S
C842 C838 1.524 . S
C842 H854 0.956 . S
C842 H855 0.961 . S
C842 H856 0.961 . S
C843 C840 1.539 . S
C843 H857 0.958 . S
C843 H858 0.961 . S
C843 H859 0.960 . S
H844 C828 0.931 . S
H845 C833 0.929 . S
H846 C834 0.960 . S
H847 C834 0.962 . S
H848 C834 0.960 . S
H849 C835 0.961 . S
H850 C835 0.961 . S
H851 C835 0.961 . S
H852 C836 0.931 . S
H853 C841 0.930 . S
H854 C842 0.956 . S
H855 C842 0.961 . S
H856 C842 0.961 . S
H857 C843 0.958 . S
H858 C843 0.961 . S
H859 C843 0.960 . S
C860 C861 1.391 . S
C860 C862 1.394 . S
C860 H876 0.931 . S
C861 C860 1.391 . S
C861 C865 1.376 . S
C862 C860 1.394 . S
C862 C863 1.369 . S
C862 C866 1.531 . S
C863 C862 1.369 . S
C863 C864 1.410 . S
C863 C871 1.503 . S
C864 C863 1.410 . S
C864 C865 1.392 . S
C864 C867 1.511 . S
C865 C861 1.376 . S
C865 C864 1.392 . S
C865 H877 0.929 . S
C866 C862 1.531 . S
C866 H878 0.960 . S
C866 H879 0.962 . S
C866 H880 0.960 . S
C867 C864 1.511 . S
C867 H881 0.961 . S
C867 H882 0.961 . S
C867 H883 0.961 . S
C868 C869 1.370 . S
C868 C870 1.363 . S
C868 H884 0.931 . S
C869 C868 1.370 . S
C869 C873 1.408 . S
C870 C868 1.363 . S
C870 C871 1.370 . S
C870 C874 1.524 . S
C871 C863 1.503 . S
C871 C870 1.370 . S
C871 C872 1.403 . S
C872 C871 1.403 . S
C872 C873 1.404 . S
C872 C875 1.539 . S
C873 C869 1.408 . S
C873 C872 1.404 . S
C873 H885 0.930 . S
C874 C870 1.524 . S
C874 H886 0.956 . S
C874 H887 0.961 . S
C874 H888 0.961 . S
C875 C872 1.539 . S
C875 H889 0.958 . S
C875 H890 0.961 . S
C875 H891 0.960 . S
H876 C860 0.931 . S
H877 C865 0.929 . S
H878 C866 0.960 . S
H879 C866 0.962 . S
H880 C866 0.960 . S
H881 C867 0.961 . S
H882 C867 0.961 . S
H883 C867 0.961 . S
H884 C868 0.931 . S
H885 C873 0.930 . S
H886 C874 0.956 . S
H887 C874 0.961 . S
H888 C874 0.961 . S
H889 C875 0.958 . S
H890 C875 0.961 . S
H891 C875 0.960 . S
C892 C893 1.391 1_556 S
C892 C894 1.394 . S
C892 H908 0.931 . S
C893 C892 1.391 1_554 S
C893 C897 1.376 . S
C894 C892 1.394 . S
C894 C895 1.369 1_556 S
C894 C898 1.531 . S
C895 C894 1.369 1_554 S
C895 C896 1.410 . S
C895 C903 1.503 1_554 S
C896 C895 1.410 . S
C896 C897 1.392 . S
C896 C899 1.511 . S
C897 C893 1.376 . S
C897 C896 1.392 . S
C897 H909 0.929 . S
C898 C894 1.531 . S
C898 H910 0.960 . S
C898 H911 0.962 . S
C898 H912 0.960 . S
C899 C896 1.511 . S
C899 H913 0.961 . S
C899 H914 0.961 . S
C899 H915 0.961 . S
C900 C901 1.370 . S
C900 C902 1.363 . S
C900 H916 0.931 . S
C901 C900 1.370 . S
C901 C905 1.408 1_556 S
C902 C900 1.363 . S
C902 C903 1.370 . S
C902 C906 1.524 . S
C903 C895 1.503 1_556 S
C903 C902 1.370 . S
C903 C904 1.403 1_556 S
C904 C903 1.403 1_554 S
C904 C905 1.404 . S
C904 C907 1.539 . S
C905 C901 1.408 1_554 S
C905 C904 1.404 . S
C905 H917 0.930 . S
C906 C902 1.524 . S
C906 H918 0.956 . S
C906 H919 0.961 1_556 S
C906 H920 0.961 . S
C907 C904 1.539 . S
C907 H921 0.958 1_554 S
C907 H922 0.961 . S
C907 H923 0.960 . S
H908 C892 0.931 . S
H909 C897 0.929 . S
H910 C898 0.960 . S
H911 C898 0.962 . S
H912 C898 0.960 . S
H913 C899 0.961 . S
H914 C899 0.961 . S
H915 C899 0.961 . S
H916 C900 0.931 . S
H917 C905 0.930 . S
H918 C906 0.956 . S
H919 C906 0.961 1_554 S
H920 C906 0.961 . S
H921 C907 0.958 1_556 S
H922 C907 0.961 . S
H923 C907 0.960 . S
C157 C3 1.393 . S
C165 C122 1.388 . S
C189 C16 1.413 . S
C197 C135 1.383 . S
C221 C29 1.389 . S
C229 C148 1.389 . S
C253 C42 1.387 . S
C261 C81 1.391 . S
C285 C94 1.364 . S
C293 C57 1.402 . S
C317 C109 1.411 . S
C325 C68 1.382 . S
C349 C140 1.838 . S
C357 C4 1.849 . S
C381 C17 1.840 . S
C389 C153 1.858 . S
C413 C30 1.866 . S
C421 C82 1.859 . S
C445 C43 1.837 . S
C453 C95 1.849 . S
C477 C62 1.851 . S
C485 C114 1.848 . S
C509 C69 1.866 . S
C517 C127 1.855 . S
C541 C134 0.989 . S
C549 C10 0.988 . S
C573 C23 0.989 . S
C581 C147 0.987 . S
C605 C36 0.986 . S
C613 C88 0.986 . S
C637 C49 0.988 . S
C645 C101 0.986 . S
C669 C56 0.985 . S
C677 C108 0.986 . S
C701 C75 0.986 . S
C709 C121 0.986 . S
C733 C5 1.717 . S
C741 C83 1.726 . S
C765 C96 1.729 . S
C773 C18 1.728 . S
C797 C31 1.723 . S
C805 C107 1.724 . S
C829 C44 1.730 . S
C837 C120 1.726 . S
C861 C55 1.727 . S
C869 C133 1.729 . S
C893 C146 1.725 . S
C901 C70 1.730 . S
