# Generated by pormake.
# Topology unc, (4)-cn, num edge types: 1
# Building blocks:
#     Node 0, Type 0, BuildingBlock: QUQFOY_clean_sbu_1, # of connection points: 4
#     Node 1, Type 0, BuildingBlock: QUQFOY_clean_sbu_1, # of connection points: 4
#     Node 2, Type 0, BuildingBlock: QUQFOY_clean_sbu_1, # of connection points: 4
#     Node 3, Type 0, BuildingBlock: QUQFOY_clean_sbu_1, # of connection points: 4
#     Edge 4, Type (0, 0), BuildingBlock: UVAHIK_clean_linker_0, # of connection points: 2
#     Edge 5, Type (0, 0), BuildingBlock: UVAHIK_clean_linker_0, # of connection points: 2
#     Edge 6, Type (0, 0), BuildingBlock: UVAHIK_clean_linker_0, # of connection points: 2
#     Edge 7, Type (0, 0), BuildingBlock: UVAHIK_clean_linker_0, # of connection points: 2
#     Edge 8, Type (0, 0), BuildingBlock: UVAHIK_clean_linker_0, # of connection points: 2
#     Edge 9, Type (0, 0), BuildingBlock: UVAHIK_clean_linker_0, # of connection points: 2
#     Edge 10, Type (0, 0), BuildingBlock: UVAHIK_clean_linker_0, # of connection points: 2
#     Edge 11, Type (0, 0), BuildingBlock: UVAHIK_clean_linker_0, # of connection points: 2
# Relax obj value: 0.065
# Max RMSD: 0.109
# Mean RMSD: 0.109
data_MOF--net-unc--node1-QUQFOY_clean_sbu_1--edge1-UVAHIK_clean_linker_0
_symmetry_space_group_name_H-M    P1
_symmetry_Int_Tables_number       1
_symmetry_cell_setting            triclinic
loop_
_symmetry_equiv_pos_as_xyz
'x, y, z'
_cell_length_a     40.349038
_cell_length_b     40.375387
_cell_length_c     29.287321
_cell_angle_alpha  90.125075
_cell_angle_beta   90.026418
_cell_angle_gamma 89.994065
loop_
_atom_site_label
_atom_site_type_symbol
_atom_site_fract_x
_atom_site_fract_y
_atom_site_fract_z
_atom_type_partial_charge
O0 O 0.98496 0.63152 0.93726 0.0
Cd1 Cd 0.97179 0.66357 0.98886 0.0
Cd2 Cd 0.03646 0.66664 -0.00133 0.0
O3 O 0.03817 0.64368 0.93549 0.0
O4 O 0.92619 0.67842 0.97342 0.0
O5 O 0.9692 0.71242 0.97584 0.0
C6 C 0.93806 0.70778 0.96763 0.0
C7 C 0.07097 0.71118 0.01682 0.0
C8 C 0.01337 0.62831 0.91909 0.0
C9 C 0.99678 0.6313 0.07139 0.0
O10 O 0.02495 0.63663 0.05343 0.0
O11 O 0.97077 0.64305 0.05311 0.0
O12 O 0.0824 0.68155 0.01218 0.0
O13 O 0.03982 0.71593 0.00898 0.0
O14 O 0.37498 0.02516 0.30494 0.0
Cd15 Cd 0.34567 0.03861 0.25051 0.0
Cd16 Cd 0.34545 0.97338 0.23713 0.0
O17 O 0.36922 0.97104 0.29954 0.0
O18 O 0.33079 0.0842 0.26598 0.0
O19 O 0.29633 0.0418 0.26009 0.0
C20 C 0.30108 0.07271 0.26955 0.0
C21 C 0.30063 0.939 0.22011 0.0
C22 C 0.38073 0.99628 0.32015 0.0
C23 C 0.37987 0.01565 0.16677 0.0
O24 O 0.37408 0.98678 0.18202 0.0
O25 O 0.36872 0.04095 0.18762 0.0
O26 O 0.33044 0.92766 0.22266 0.0
O27 O 0.29597 0.97002 0.22898 0.0
O28 O 0.02488 0.37338 0.43264 0.0
Cd29 Cd 0.03617 0.34436 0.4885 0.0
Cd30 Cd 0.97128 0.34737 0.49853 0.0
O31 O 0.97059 0.36794 0.43429 0.0
O32 O 0.08215 0.32895 0.47638 0.0
O33 O 0.03934 0.29488 0.48003 0.0
C34 C 0.07062 0.29928 0.47287 0.0
C35 C 0.93739 0.30285 0.51803 0.0
C36 C 0.99658 0.37895 0.41515 0.0
C37 C 0.01265 0.38298 0.56809 0.0
O38 O 0.98409 0.3792 0.55056 0.0
O39 O 0.03758 0.36819 0.55108 0.0
O40 O 0.92555 0.33227 0.5127 0.0
O41 O 0.96868 0.29842 0.5108 0.0
O42 O 0.63674 0.98563 0.80538 0.0
Cd43 Cd 0.66584 0.97286 0.75031 0.0
Cd44 Cd 0.6657 0.03802 0.73888 0.0
O45 O 0.64284 0.03978 0.80192 0.0
O46 O 0.68073 0.92695 0.76362 0.0
O47 O 0.7153 0.96929 0.75862 0.0
C48 C 0.71056 0.93818 0.76656 0.0
C49 C 0.70984 0.07281 0.7203 0.0
C50 C 0.63113 0.01431 0.82159 0.0
C51 C 0.62999 0.99655 0.66857 0.0
O52 O 0.63575 0.02521 0.68471 0.0
O53 O 0.64202 0.97109 0.68791 0.0
O54 O 0.68004 0.08393 0.72454 0.0
O55 O 0.71497 0.04182 0.72871 0.0
C56 C 0.96337 0.59727 0.12646 0.0
C57 C 0.99435 0.60845 0.11074 0.0
C58 C 0.96148 0.57221 0.1593 0.0
C59 C 0.01034 0.5021 0.20229 0.0
H60 H 0.94928 0.503 0.30444 0.0
C61 C 0.02286 0.41305 0.3539 0.0
C62 C 0.99401 0.40083 0.37479 0.0
C63 C 0.02084 0.43663 0.31927 0.0
C64 C 0.96609 0.50212 0.27565 0.0
H65 H 0.04757 0.60337 0.11918 0.0
H66 H 0.04419 0.56008 0.17654 0.0
H67 H 0.94969 0.54929 0.2508 0.0
H68 H 0.94026 0.40294 0.37437 0.0
H69 H 0.93675 0.44394 0.31333 0.0
H70 H 0.02688 0.45513 0.22697 0.0
C71 C 0.02139 0.57016 0.16282 0.0
C72 C 0.96639 0.5287 0.24506 0.0
C73 C 0.0233 0.59517 0.13016 0.0
C74 C 0.96298 0.41187 0.35905 0.0
C75 C 0.96097 0.43556 0.32435 0.0
C76 C 0.00997 0.47556 0.23269 0.0
C77 C 0.99051 0.55783 0.17692 0.0
C78 C 0.98891 0.52918 0.20849 0.0
C79 C 0.98991 0.44856 0.30457 0.0
C80 C 0.98821 0.47546 0.27012 0.0
H81 H 0.94059 0.60697 0.11219 0.0
H82 H 0.93732 0.56317 0.16951 0.0
H83 H 0.02745 0.50139 0.17381 0.0
H84 H 0.04718 0.40514 0.36517 0.0
H85 H 0.04364 0.44637 0.30517 0.0
C86 C 0.41409 0.0205 0.38384 0.0
C87 C 0.4027 0.99235 0.3603 0.0
C88 C 0.43704 0.0175 0.41919 0.0
C89 C 0.5026 0.96268 0.46227 0.0
H90 H 0.49783 0.02092 0.56752 0.0
C91 C 0.59653 0.96162 0.6142 0.0
C92 C 0.60669 0.99302 0.62975 0.0
C93 C 0.57149 0.95871 0.58128 0.0
C94 C 0.49959 1.00462 0.53819 0.0
H95 H 0.40589 0.93877 0.35638 0.0
H96 H 0.44593 0.93352 0.41871 0.0
H97 H 0.4525 0.02018 0.51265 0.0
H98 H 0.59961 0.04598 0.62114 0.0
H99 H 0.55628 0.04082 0.56396 0.0
H100 H 0.54996 0.94732 0.48806 0.0
C101 C 0.43727 0.95796 0.40928 0.0
C102 C 0.47363 1.00418 0.50677 0.0
C103 C 0.41416 0.96096 0.37382 0.0
C104 C 0.59226 0.02138 0.61031 0.0
C105 C 0.56724 0.01846 0.57773 0.0
C106 C 0.5286 0.963 0.49395 0.0
C107 C 0.44919 0.98626 0.43204 0.0
C108 C 0.47513 0.98377 0.4679 0.0
C109 C 0.55606 0.98714 0.5636 0.0
C110 C 0.52765 0.98455 0.53166 0.0
H111 H 0.40585 0.04508 0.37436 0.0
H112 H 0.44602 0.03986 0.43551 0.0
H113 H 0.50464 0.94686 0.43249 0.0
H114 H 0.60715 0.93928 0.62845 0.0
H115 H 0.56336 0.93425 0.57094 0.0
C116 C 0.04522 0.60595 0.85197 0.0
C117 C 0.01775 0.60431 0.88141 0.0
C118 C 0.04954 0.58208 0.81768 0.0
C119 C 0.03199 0.49661 0.78945 0.0
H120 H 0.02967 0.52221 0.66192 0.0
C121 C 0.04501 0.4058 0.63444 0.0
C122 C 0.01705 0.40695 0.60581 0.0
C123 C 0.04943 0.4297 0.66864 0.0
C124 C 0.03077 0.51483 0.69744 0.0
H125 H 0.97356 0.57624 0.89839 0.0
H126 H 0.98167 0.53432 0.83943 0.0
H127 H 0.03036 0.56509 0.72146 0.0
H128 H 0.97203 0.43415 0.59025 0.0
H129 H 0.98029 0.47616 0.64909 0.0
H130 H 0.03198 0.44636 0.76544 0.0
C131 C 0.99958 0.5542 0.84262 0.0
C132 C 0.0313 0.53926 0.73131 0.0
C133 C 0.99485 0.57835 0.87605 0.0
C134 C 0.99371 0.43243 0.61195 0.0
C135 C 0.99852 0.45664 0.64531 0.0
C136 C 0.0322 0.4722 0.75556 0.0
C137 C 0.02693 0.55582 0.81323 0.0
C138 C 0.03108 0.53029 0.77755 0.0
C139 C 0.02641 0.45552 0.67383 0.0
C140 C 0.03075 0.48115 0.70936 0.0
H141 H 0.06325 0.62567 0.85537 0.0
H142 H 0.07075 0.58378 0.79516 0.0
H143 H 0.03183 0.48923 0.825 0.0
H144 H 0.06338 0.38645 0.63045 0.0
H145 H 0.07106 0.42839 0.6905 0.0
C146 C 0.41303 0.99126 0.10302 0.0
C147 C 0.40177 0.01947 0.12654 0.0
C148 C 0.43624 0.99412 0.06802 0.0
C149 C 0.50266 0.04855 0.02642 0.0
H150 H 0.49897 0.9901 0.92132 0.0
C151 C 0.59779 0.04929 0.87599 0.0
C152 C 0.60804 0.01786 0.86063 0.0
C153 C 0.57264 0.05223 0.9087 0.0
C154 C 0.50044 0.00645 0.95063 0.0
H155 H 0.40537 0.07302 0.13063 0.0
H156 H 0.44582 0.07802 0.06884 0.0
H157 H 0.45298 0.99112 0.97505 0.0
H158 H 0.60108 0.96492 0.86949 0.0
H159 H 0.55753 0.97015 0.92631 0.0
H160 H 0.55037 0.06371 0.00168 0.0
C161 C 0.43689 0.05364 0.07807 0.0
C162 C 0.47409 0.00706 0.9814 0.0
C163 C 0.41353 0.05079 0.1132 0.0
C164 C 0.59367 0.98953 0.88018 0.0
C165 C 0.56851 0.99249 0.91255 0.0
C166 C 0.52903 0.04807 -0.00463 0.0
C167 C 0.44879 0.02526 0.05546 0.0
C168 C 0.47517 0.02756 0.02021 0.0
C169 C 0.55718 0.02382 0.92635 0.0
C170 C 0.52846 0.02646 0.95773 0.0
H171 H 0.40455 0.96674 0.11237 0.0
H172 H 0.44517 0.97169 0.05182 0.0
H173 H 0.50441 0.06442 0.05618 0.0
H174 H 0.60836 0.07162 0.86165 0.0
H175 H 0.56439 0.0767 0.9188 0.0
C176 C 0.2414 0.92992 0.19621 0.0
C177 C 0.27322 0.9172 0.20498 0.0
C178 C 0.2165 0.90943 0.17835 0.0
C179 C 0.19426 0.82091 0.16245 0.0
H180 H 0.14114 0.85264 0.06115 0.0
C181 C 0.12597 0.73115 0.04448 0.0
C182 C 0.09267 0.73801 0.03411 0.0
C183 C 0.1458 0.75489 0.06575 0.0
C184 C 0.15553 0.84359 0.08975 0.0
H185 H 0.3036 0.87288 0.20271 0.0
H186 H 0.26059 0.83749 0.17152 0.0
H187 H 0.17915 0.89057 0.10018 0.0
H188 H 0.05446 0.77577 0.03621 0.0
H189 H 0.08945 0.81757 0.07326 0.0
H190 H 0.17134 0.77383 0.15145 0.0
C191 C 0.25457 0.8631 0.17883 0.0
C192 C 0.17722 0.8653 0.11221 0.0
C193 C 0.27936 0.8835 0.19652 0.0
C194 C 0.08003 0.76973 0.04377 0.0
C195 C 0.10003 0.79366 0.06494 0.0
C196 C 0.1728 0.79927 0.13994 0.0
C197 C 0.22291 0.87582 0.16916 0.0
C198 C 0.19732 0.854 0.14825 0.0
C199 C 0.13291 0.78616 0.07708 0.0
C200 C 0.15369 0.81016 0.10277 0.0
H201 H 0.23591 0.95582 0.2023 0.0
H202 H 0.19227 0.91991 0.17167 0.0
H203 H 0.2088 0.81157 0.19074 0.0
H204 H 0.13661 0.70707 0.03728 0.0
H205 H 0.17124 0.74862 0.07382 0.0
C206 C 0.24211 0.08133 0.29497 0.0
C207 C 0.27411 0.09399 0.2874 0.0
C208 C 0.2179 0.10082 0.31641 0.0
C209 C 0.21105 0.17129 0.39544 0.0
H210 H 0.12086 0.17986 0.35129 0.0
C211 C 0.12659 0.27756 0.45236 0.0
C212 C 0.09255 0.27179 0.4584 0.0
C213 C 0.14719 0.25284 0.43497 0.0
C214 C 0.14579 0.17727 0.36454 0.0
H215 H 0.30534 0.13746 0.29478 0.0
H216 H 0.2633 0.1712 0.33184 0.0
H217 H 0.15939 0.14252 0.31221 0.0
H218 H 0.05353 0.23515 0.45187 0.0
H219 H 0.08976 0.19163 0.42172 0.0
H220 H 0.19781 0.20601 0.4475 0.0
C221 C 0.257 0.14612 0.32186 0.0
C222 C 0.16785 0.15597 0.34205 0.0
C223 C 0.28103 0.12682 0.30029 0.0
C224 C 0.07968 0.24035 0.44766 0.0
C225 C 0.10037 0.21552 0.43007 0.0
C226 C 0.18905 0.19236 0.41798 0.0
C227 C 0.22539 0.13317 0.33096 0.0
C228 C 0.20092 0.15338 0.35668 0.0
C229 C 0.13433 0.22161 0.42316 0.0
C230 C 0.15637 0.19624 0.40221 0.0
H231 H 0.23602 0.05612 0.28545 0.0
H232 H 0.19372 0.0902 0.32299 0.0
H233 H 0.23618 0.16922 0.40816 0.0
H234 H 0.13734 0.3015 0.46014 0.0
H235 H 0.17309 0.25861 0.42946 0.0
C236 C 0.72922 0.12768 0.69172 0.0
C237 C 0.7365 0.09466 0.70303 0.0
C238 C 0.75294 0.14763 0.67077 0.0
C239 C 0.84189 0.15857 0.6497 0.0
H240 H 0.81073 0.2103 0.54681 0.0
C241 C 0.92877 0.24418 0.54427 0.0
C242 C 0.91576 0.27562 0.53404 0.0
C243 C 0.90833 0.21937 0.56229 0.0
C244 C 0.81982 0.19622 0.57565 0.0
H245 H 0.77493 0.05709 0.7028 0.0
H246 H 0.81668 0.0923 0.6663 0.0
H247 H 0.77289 0.17268 0.58536 0.0
H248 H 0.87104 0.30546 0.53409 0.0
H249 H 0.83573 0.26261 0.56563 0.0
H250 H 0.8887 0.18278 0.64053 0.0
C251 C 0.79246 0.10257 0.67367 0.0
C252 C 0.79812 0.17465 0.59773 0.0
C253 C 0.76856 0.08244 0.69451 0.0
C254 C 0.88187 0.28151 0.5414 0.0
C255 C 0.86153 0.25681 0.55928 0.0
C256 C 0.86365 0.18036 0.62768 0.0
C257 C 0.7846 0.13515 0.6607 0.0
C258 C 0.8087 0.15607 0.63554 0.0
C259 C 0.87448 0.22549 0.57022 0.0
C260 C 0.85264 0.19991 0.59093 0.0
H261 H 0.70486 0.13799 0.69801 0.0
H262 H 0.74636 0.17284 0.66202 0.0
H263 H 0.8507 0.1446 0.67882 0.0
H264 H 0.9548 0.23888 0.53903 0.0
H265 H 0.91901 0.19541 0.56996 0.0
C266 C 0.73173 0.88228 0.78816 0.0
C267 C 0.73792 0.91611 0.78101 0.0
C268 C 0.75647 0.86157 0.80517 0.0
C269 C 0.83352 0.86267 0.87244 0.0
H270 H 0.83947 0.77176 0.83027 0.0
C271 C 0.92969 0.76625 0.94028 0.0
C272 C 0.91683 0.73452 0.94915 0.0
C273 C 0.91008 0.79031 0.91886 0.0
C274 C 0.838 0.79704 0.84258 0.0
H275 H 0.77527 0.95462 0.78526 0.0
H276 H 0.81879 0.91817 0.81474 0.0
H277 H 0.8023 0.81014 0.79181 0.0
H278 H 0.87298 0.70361 0.9439 0.0
H279 H 0.83901 0.7454 0.90688 0.0
H280 H 0.86923 0.84922 0.92349 0.0
C281 C 0.79458 0.90783 0.80755 0.0
C282 C 0.8167 0.81904 0.82055 0.0
C283 C 0.76973 0.92864 0.79036 0.0
C284 C 0.88376 0.72771 0.93739 0.0
C285 C 0.86432 0.75159 0.91584 0.0
C286 C 0.85503 0.8406 0.89442 0.0
C287 C 0.78811 0.87408 0.81547 0.0
C288 C 0.8136 0.85193 0.83582 0.0
C289 C 0.87739 0.78296 0.90563 0.0
C290 C 0.85689 0.80736 0.88032 0.0
H291 H 0.7075 0.8718 0.78147 0.0
H292 H 0.75041 0.83585 0.81151 0.0
H293 H 0.83155 0.88776 0.88529 0.0
H294 H 0.95509 0.77226 0.94891 0.0
H295 H 0.9208 0.81429 0.91138 0.0
loop_
_geom_bond_atom_site_label_1
_geom_bond_atom_site_label_2
_geom_bond_distance
_geom_bond_site_symmetry_2
_ccdc_geom_bond_type
O0 Cd1 2.223 1_556 S
O0 C8 1.315 . S
Cd1 O0 2.223 1_554 S
Cd1 O4 2.297 1_554 S
Cd1 O5 2.439 1_554 S
Cd1 O11 2.240 . S
Cd2 O3 2.240 . S
Cd2 O10 2.223 1_556 S
Cd2 O12 2.297 1_556 S
Cd2 O13 2.439 1_556 S
O3 Cd2 2.240 . S
O3 C8 1.279 1_455 S
O4 Cd1 2.297 1_556 S
O4 C6 1.247 . S
O5 Cd1 2.439 1_556 S
O5 C6 1.208 . S
C6 O4 1.247 . S
C6 O5 1.208 . S
C7 O12 1.247 . S
C7 O13 1.208 . S
C8 O0 1.315 . S
C8 O3 1.279 1_655 S
C9 O10 1.315 . S
C9 O11 1.279 1_455 S
O10 Cd2 2.223 1_554 S
O10 C9 1.315 . S
O11 Cd1 2.240 . S
O11 C9 1.279 1_655 S
O12 Cd2 2.297 1_554 S
O12 C7 1.247 . S
O13 Cd2 2.439 1_554 S
O13 C7 1.208 . S
O14 Cd15 2.223 . S
O14 C22 1.315 . S
Cd15 O14 2.223 . S
Cd15 O18 2.297 . S
Cd15 O19 2.439 . S
Cd15 O25 2.240 . S
Cd16 O17 2.240 . S
Cd16 O24 2.223 . S
Cd16 O26 2.297 . S
Cd16 O27 2.439 . S
O17 Cd16 2.240 . S
O17 C22 1.279 1_565 S
O18 Cd15 2.297 . S
O18 C20 1.247 . S
O19 Cd15 2.439 . S
O19 C20 1.208 . S
C20 O18 1.247 . S
C20 O19 1.208 . S
C21 O26 1.247 . S
C21 O27 1.208 . S
C22 O14 1.315 . S
C22 O17 1.279 1_545 S
C23 O24 1.315 . S
C23 O25 1.279 1_565 S
O24 Cd16 2.223 . S
O24 C23 1.315 . S
O25 Cd15 2.240 . S
O25 C23 1.279 1_545 S
O26 Cd16 2.297 . S
O26 C21 1.247 . S
O27 Cd16 2.439 . S
O27 C21 1.208 . S
O28 Cd29 2.223 . S
O28 C36 1.315 . S
Cd29 O28 2.223 . S
Cd29 O32 2.297 . S
Cd29 O33 2.439 . S
Cd29 O39 2.240 . S
Cd30 O31 2.240 . S
Cd30 O38 2.223 . S
Cd30 O40 2.297 . S
Cd30 O41 2.439 . S
O31 Cd30 2.240 . S
O31 C36 1.279 1_655 S
O32 Cd29 2.297 . S
O32 C34 1.247 . S
O33 Cd29 2.439 . S
O33 C34 1.208 . S
C34 O32 1.247 . S
C34 O33 1.208 . S
C35 O40 1.247 . S
C35 O41 1.208 . S
C36 O28 1.315 . S
C36 O31 1.279 1_455 S
C37 O38 1.315 . S
C37 O39 1.279 1_655 S
O38 Cd30 2.223 . S
O38 C37 1.315 . S
O39 Cd29 2.240 . S
O39 C37 1.279 1_455 S
O40 Cd30 2.297 . S
O40 C35 1.247 . S
O41 Cd30 2.439 . S
O41 C35 1.208 . S
O42 Cd43 2.223 . S
O42 C50 1.315 . S
Cd43 O42 2.223 . S
Cd43 O46 2.297 . S
Cd43 O47 2.439 . S
Cd43 O53 2.240 . S
Cd44 O45 2.240 . S
Cd44 O52 2.223 . S
Cd44 O54 2.297 . S
Cd44 O55 2.439 . S
O45 Cd44 2.240 . S
O45 C50 1.279 1_545 S
O46 Cd43 2.297 . S
O46 C48 1.247 . S
O47 Cd43 2.439 . S
O47 C48 1.208 . S
C48 O46 1.247 . S
C48 O47 1.208 . S
C49 O54 1.247 . S
C49 O55 1.208 . S
C50 O42 1.315 . S
C50 O45 1.279 1_565 S
C51 O52 1.315 . S
C51 O53 1.279 1_545 S
O52 Cd44 2.223 . S
O52 C51 1.315 . S
O53 Cd43 2.240 . S
O53 C51 1.279 1_565 S
O54 Cd44 2.297 . S
O54 C49 1.247 . S
O55 Cd44 2.439 . S
O55 C49 1.208 . S
C56 C57 1.349 1_655 S
C56 C58 1.327 . S
C56 H81 0.950 . S
C57 C56 1.349 1_455 S
C57 C73 1.349 . S
C58 C56 1.327 . S
C58 C77 1.429 1_655 S
C58 H82 0.950 . S
C59 C76 1.574 . S
C59 C78 1.368 . S
C59 H83 0.949 . S
H60 C64 0.949 . S
C61 C62 1.349 . S
C61 C63 1.327 . S
C61 H84 0.950 . S
C62 C61 1.349 . S
C62 C74 1.349 1_455 S
C63 C61 1.327 . S
C63 C79 1.429 . S
C63 H85 0.950 . S
C64 H60 0.949 . S
C64 C72 1.574 . S
C64 C80 1.368 1_655 S
H65 C73 0.950 . S
H66 C71 0.950 . S
H67 C72 0.949 . S
H68 C74 0.950 . S
H69 C75 0.950 . S
H70 C76 0.949 . S
C71 H66 0.950 . S
C71 C73 1.327 . S
C71 C77 1.429 . S
C72 C64 1.574 . S
C72 H67 0.949 . S
C72 C78 1.368 1_655 S
C73 C57 1.349 . S
C73 H65 0.950 . S
C73 C71 1.327 . S
C74 C62 1.349 1_655 S
C74 H68 0.950 . S
C74 C75 1.327 . S
C75 H69 0.950 . S
C75 C74 1.327 . S
C75 C79 1.429 1_655 S
C76 C59 1.574 . S
C76 H70 0.949 . S
C76 C80 1.368 . S
C77 C58 1.429 1_455 S
C77 C71 1.429 . S
C77 C78 1.523 . S
C78 C59 1.368 . S
C78 C72 1.368 1_455 S
C78 C77 1.523 . S
C79 C63 1.429 . S
C79 C75 1.429 1_455 S
C79 C80 1.523 . S
C80 C64 1.368 1_455 S
C80 C76 1.368 . S
C80 C79 1.523 . S
H81 C56 0.950 . S
H82 C58 0.950 . S
H83 C59 0.949 . S
H84 C61 0.950 . S
H85 C63 0.950 . S
C86 C87 1.349 . S
C86 C88 1.327 . S
C86 H111 0.950 . S
C87 C86 1.349 . S
C87 C103 1.349 1_545 S
C88 C86 1.327 . S
C88 C107 1.429 . S
C88 H112 0.950 . S
C89 C106 1.574 . S
C89 C108 1.368 1_565 S
C89 H113 0.949 . S
H90 C94 0.949 . S
C91 C92 1.349 1_565 S
C91 C93 1.327 . S
C91 H114 0.950 . S
C92 C91 1.349 1_545 S
C92 C104 1.349 . S
C93 C91 1.327 . S
C93 C109 1.429 1_565 S
C93 H115 0.950 . S
C94 H90 0.949 . S
C94 C102 1.574 . S
C94 C110 1.368 . S
H95 C103 0.950 . S
H96 C101 0.950 . S
H97 C102 0.949 . S
H98 C104 0.950 . S
H99 C105 0.950 . S
H100 C106 0.949 . S
C101 H96 0.950 . S
C101 C103 1.327 . S
C101 C107 1.429 1_565 S
C102 C94 1.574 . S
C102 H97 0.949 . S
C102 C108 1.368 . S
C103 C87 1.349 1_565 S
C103 H95 0.950 . S
C103 C101 1.327 . S
C104 C92 1.349 . S
C104 H98 0.950 . S
C104 C105 1.327 . S
C105 H99 0.950 . S
C105 C104 1.327 . S
C105 C109 1.429 . S
C106 C89 1.574 . S
C106 H100 0.949 . S
C106 C110 1.368 1_565 S
C107 C88 1.429 . S
C107 C101 1.429 1_545 S
C107 C108 1.523 . S
C108 C89 1.368 1_545 S
C108 C102 1.368 . S
C108 C107 1.523 . S
C109 C93 1.429 1_545 S
C109 C105 1.429 . S
C109 C110 1.523 . S
C110 C94 1.368 . S
C110 C106 1.368 1_545 S
C110 C109 1.523 . S
H111 C86 0.950 . S
H112 C88 0.950 . S
H113 C89 0.949 . S
H114 C91 0.950 . S
H115 C93 0.950 . S
C116 C117 1.349 . S
C116 C118 1.327 . S
C116 H141 0.950 . S
C117 C116 1.349 . S
C117 C133 1.349 . S
C118 C116 1.327 . S
C118 C137 1.429 . S
C118 H142 0.950 . S
C119 C136 1.574 . S
C119 C138 1.368 . S
C119 H143 0.949 . S
H120 C124 0.949 . S
C121 C122 1.349 . S
C121 C123 1.327 . S
C121 H144 0.950 . S
C122 C121 1.349 . S
C122 C134 1.349 . S
C123 C121 1.327 . S
C123 C139 1.429 . S
C123 H145 0.950 . S
C124 H120 0.949 . S
C124 C132 1.574 . S
C124 C140 1.368 . S
H125 C133 0.950 . S
H126 C131 0.950 . S
H127 C132 0.949 . S
H128 C134 0.950 . S
H129 C135 0.950 . S
H130 C136 0.949 . S
C131 H126 0.950 . S
C131 C133 1.327 . S
C131 C137 1.429 . S
C132 C124 1.574 . S
C132 H127 0.949 . S
C132 C138 1.368 . S
C133 C117 1.349 . S
C133 H125 0.950 . S
C133 C131 1.327 . S
C134 C122 1.349 . S
C134 H128 0.950 . S
C134 C135 1.327 . S
C135 H129 0.950 . S
C135 C134 1.327 . S
C135 C139 1.429 . S
C136 C119 1.574 . S
C136 H130 0.949 . S
C136 C140 1.368 . S
C137 C118 1.429 . S
C137 C131 1.429 . S
C137 C138 1.523 . S
C138 C119 1.368 . S
C138 C132 1.368 . S
C138 C137 1.523 . S
C139 C123 1.429 . S
C139 C135 1.429 . S
C139 C140 1.523 . S
C140 C124 1.368 . S
C140 C136 1.368 . S
C140 C139 1.523 . S
H141 C116 0.950 . S
H142 C118 0.950 . S
H143 C119 0.949 . S
H144 C121 0.950 . S
H145 C123 0.950 . S
C146 C147 1.349 . S
C146 C148 1.327 . S
C146 H171 0.950 . S
C147 C146 1.349 . S
C147 C163 1.349 1_565 S
C148 C146 1.327 . S
C148 C167 1.429 . S
C148 H172 0.950 . S
C149 C166 1.574 1_554 S
C149 C168 1.368 1_545 S
C149 H173 0.949 . S
H150 C154 0.949 . S
C151 C152 1.349 1_545 S
C151 C153 1.327 . S
C151 H174 0.950 . S
C152 C151 1.349 1_565 S
C152 C164 1.349 . S
C153 C151 1.327 . S
C153 C169 1.429 1_545 S
C153 H175 0.950 . S
C154 H150 0.949 . S
C154 C162 1.574 1_556 S
C154 C170 1.368 . S
H155 C163 0.950 . S
H156 C161 0.950 . S
H157 C162 0.949 . S
H158 C164 0.950 . S
H159 C165 0.950 . S
H160 C166 0.949 . S
C161 H156 0.950 . S
C161 C163 1.327 . S
C161 C167 1.429 1_545 S
C162 C154 1.574 1_554 S
C162 H157 0.949 . S
C162 C168 1.368 . S
C163 C147 1.349 1_545 S
C163 H155 0.950 . S
C163 C161 1.327 . S
C164 C152 1.349 . S
C164 H158 0.950 . S
C164 C165 1.327 . S
C165 H159 0.950 . S
C165 C164 1.327 . S
C165 C169 1.429 . S
C166 C149 1.574 1_556 S
C166 H160 0.949 . S
C166 C170 1.368 1_545 S
C167 C148 1.429 . S
C167 C161 1.429 1_565 S
C167 C168 1.523 . S
C168 C149 1.368 1_565 S
C168 C162 1.368 . S
C168 C167 1.523 . S
C169 C153 1.429 1_565 S
C169 C165 1.429 . S
C169 C170 1.523 . S
C170 C154 1.368 . S
C170 C166 1.368 1_565 S
C170 C169 1.523 . S
H171 C146 0.950 . S
H172 C148 0.950 . S
H173 C149 0.949 . S
H174 C151 0.950 . S
H175 C153 0.950 . S
C176 C177 1.349 . S
C176 C178 1.327 . S
C176 H201 0.950 . S
C177 C176 1.349 . S
C177 C193 1.349 . S
C178 C176 1.327 . S
C178 C197 1.429 . S
C178 H202 0.950 . S
C179 C196 1.574 . S
C179 C198 1.368 . S
C179 H203 0.949 . S
H180 C184 0.949 . S
C181 C182 1.349 . S
C181 C183 1.327 . S
C181 H204 0.950 . S
C182 C181 1.349 . S
C182 C194 1.349 . S
C183 C181 1.327 . S
C183 C199 1.429 . S
C183 H205 0.950 . S
C184 H180 0.949 . S
C184 C192 1.574 . S
C184 C200 1.368 . S
H185 C193 0.950 . S
H186 C191 0.950 . S
H187 C192 0.949 . S
H188 C194 0.950 . S
H189 C195 0.950 . S
H190 C196 0.949 . S
C191 H186 0.950 . S
C191 C193 1.327 . S
C191 C197 1.429 . S
C192 C184 1.574 . S
C192 H187 0.949 . S
C192 C198 1.368 . S
C193 C177 1.349 . S
C193 H185 0.950 . S
C193 C191 1.327 . S
C194 C182 1.349 . S
C194 H188 0.950 . S
C194 C195 1.327 . S
C195 H189 0.950 . S
C195 C194 1.327 . S
C195 C199 1.429 . S
C196 C179 1.574 . S
C196 H190 0.949 . S
C196 C200 1.368 . S
C197 C178 1.429 . S
C197 C191 1.429 . S
C197 C198 1.523 . S
C198 C179 1.368 . S
C198 C192 1.368 . S
C198 C197 1.523 . S
C199 C183 1.429 . S
C199 C195 1.429 . S
C199 C200 1.523 . S
C200 C184 1.368 . S
C200 C196 1.368 . S
C200 C199 1.523 . S
H201 C176 0.950 . S
H202 C178 0.950 . S
H203 C179 0.949 . S
H204 C181 0.950 . S
H205 C183 0.950 . S
C206 C207 1.349 . S
C206 C208 1.327 . S
C206 H231 0.950 . S
C207 C206 1.349 . S
C207 C223 1.349 . S
C208 C206 1.327 . S
C208 C227 1.429 . S
C208 H232 0.950 . S
C209 C226 1.574 . S
C209 C228 1.368 . S
C209 H233 0.949 . S
H210 C214 0.949 . S
C211 C212 1.349 . S
C211 C213 1.327 . S
C211 H234 0.950 . S
C212 C211 1.349 . S
C212 C224 1.349 . S
C213 C211 1.327 . S
C213 C229 1.429 . S
C213 H235 0.950 . S
C214 H210 0.949 . S
C214 C222 1.574 . S
C214 C230 1.368 . S
H215 C223 0.950 . S
H216 C221 0.950 . S
H217 C222 0.949 . S
H218 C224 0.950 . S
H219 C225 0.950 . S
H220 C226 0.949 . S
C221 H216 0.950 . S
C221 C223 1.327 . S
C221 C227 1.429 . S
C222 C214 1.574 . S
C222 H217 0.949 . S
C222 C228 1.368 . S
C223 C207 1.349 . S
C223 H215 0.950 . S
C223 C221 1.327 . S
C224 C212 1.349 . S
C224 H218 0.950 . S
C224 C225 1.327 . S
C225 H219 0.950 . S
C225 C224 1.327 . S
C225 C229 1.429 . S
C226 C209 1.574 . S
C226 H220 0.949 . S
C226 C230 1.368 . S
C227 C208 1.429 . S
C227 C221 1.429 . S
C227 C228 1.523 . S
C228 C209 1.368 . S
C228 C222 1.368 . S
C228 C227 1.523 . S
C229 C213 1.429 . S
C229 C225 1.429 . S
C229 C230 1.523 . S
C230 C214 1.368 . S
C230 C226 1.368 . S
C230 C229 1.523 . S
H231 C206 0.950 . S
H232 C208 0.950 . S
H233 C209 0.949 . S
H234 C211 0.950 . S
H235 C213 0.950 . S
C236 C237 1.349 . S
C236 C238 1.327 . S
C236 H261 0.950 . S
C237 C236 1.349 . S
C237 C253 1.349 . S
C238 C236 1.327 . S
C238 C257 1.429 . S
C238 H262 0.950 . S
C239 C256 1.574 . S
C239 C258 1.368 . S
C239 H263 0.949 . S
H240 C244 0.949 . S
C241 C242 1.349 . S
C241 C243 1.327 . S
C241 H264 0.950 . S
C242 C241 1.349 . S
C242 C254 1.349 . S
C243 C241 1.327 . S
C243 C259 1.429 . S
C243 H265 0.950 . S
C244 H240 0.949 . S
C244 C252 1.574 . S
C244 C260 1.368 . S
H245 C253 0.950 . S
H246 C251 0.950 . S
H247 C252 0.949 . S
H248 C254 0.950 . S
H249 C255 0.950 . S
H250 C256 0.949 . S
C251 H246 0.950 . S
C251 C253 1.327 . S
C251 C257 1.429 . S
C252 C244 1.574 . S
C252 H247 0.949 . S
C252 C258 1.368 . S
C253 C237 1.349 . S
C253 H245 0.950 . S
C253 C251 1.327 . S
C254 C242 1.349 . S
C254 H248 0.950 . S
C254 C255 1.327 . S
C255 H249 0.950 . S
C255 C254 1.327 . S
C255 C259 1.429 . S
C256 C239 1.574 . S
C256 H250 0.949 . S
C256 C260 1.368 . S
C257 C238 1.429 . S
C257 C251 1.429 . S
C257 C258 1.523 . S
C258 C239 1.368 . S
C258 C252 1.368 . S
C258 C257 1.523 . S
C259 C243 1.429 . S
C259 C255 1.429 . S
C259 C260 1.523 . S
C260 C244 1.368 . S
C260 C256 1.368 . S
C260 C259 1.523 . S
H261 C236 0.950 . S
H262 C238 0.950 . S
H263 C239 0.949 . S
H264 C241 0.950 . S
H265 C243 0.950 . S
C266 C267 1.349 . S
C266 C268 1.327 . S
C266 H291 0.950 . S
C267 C266 1.349 . S
C267 C283 1.349 . S
C268 C266 1.327 . S
C268 C287 1.429 . S
C268 H292 0.950 . S
C269 C286 1.574 . S
C269 C288 1.368 . S
C269 H293 0.949 . S
H270 C274 0.949 . S
C271 C272 1.349 . S
C271 C273 1.327 . S
C271 H294 0.950 . S
C272 C271 1.349 . S
C272 C284 1.349 . S
C273 C271 1.327 . S
C273 C289 1.429 . S
C273 H295 0.950 . S
C274 H270 0.949 . S
C274 C282 1.574 . S
C274 C290 1.368 . S
H275 C283 0.950 . S
H276 C281 0.950 . S
H277 C282 0.949 . S
H278 C284 0.950 . S
H279 C285 0.950 . S
H280 C286 0.949 . S
C281 H276 0.950 . S
C281 C283 1.327 . S
C281 C287 1.429 . S
C282 C274 1.574 . S
C282 H277 0.949 . S
C282 C288 1.368 . S
C283 C267 1.349 . S
C283 H275 0.950 . S
C283 C281 1.327 . S
C284 C272 1.349 . S
C284 H278 0.950 . S
C284 C285 1.327 . S
C285 H279 0.950 . S
C285 C284 1.327 . S
C285 C289 1.429 . S
C286 C269 1.574 . S
C286 H280 0.949 . S
C286 C290 1.368 . S
C287 C268 1.429 . S
C287 C281 1.429 . S
C287 C288 1.523 . S
C288 C269 1.368 . S
C288 C282 1.368 . S
C288 C287 1.523 . S
C289 C273 1.429 . S
C289 C285 1.429 . S
C289 C290 1.523 . S
C290 C274 1.368 . S
C290 C286 1.368 . S
C290 C289 1.523 . S
H291 C266 0.950 . S
H292 C268 0.950 . S
H293 C269 0.949 . S
H294 C271 0.950 . S
H295 C273 0.950 . S
C57 C9 1.662 . S
C62 C36 1.660 . S
C87 C22 1.662 . S
C92 C51 1.662 . S
C117 C8 1.662 . S
C122 C37 1.664 . S
C147 C23 1.662 . S
C152 C50 1.662 . S
C177 C21 1.435 . S
C182 C7 1.434 . S
C207 C20 1.435 . S
C212 C34 1.430 . S
C237 C49 1.435 . S
C242 C35 1.434 . S
C267 C48 1.435 . S
C272 C6 1.441 . S
