# Generated by pormake.
# Topology umh, (4)-cn, num edge types: 1
# Building blocks:
#     Node 0, Type 0, BuildingBlock: ICAMEG_clean_sbu_1, # of connection points: 4
#     Node 1, Type 0, BuildingBlock: ICAMEG_clean_sbu_1, # of connection points: 4
#     Node 2, Type 0, BuildingBlock: ICAMEG_clean_sbu_1, # of connection points: 4
#     Node 3, Type 0, BuildingBlock: ICAMEG_clean_sbu_1, # of connection points: 4
#     Node 4, Type 0, BuildingBlock: ICAMEG_clean_sbu_1, # of connection points: 4
#     Node 5, Type 0, BuildingBlock: ICAMEG_clean_sbu_1, # of connection points: 4
#     Node 6, Type 0, BuildingBlock: ICAMEG_clean_sbu_1, # of connection points: 4
#     Node 7, Type 0, BuildingBlock: ICAMEG_clean_sbu_1, # of connection points: 4
#     Node 8, Type 0, BuildingBlock: ICAMEG_clean_sbu_1, # of connection points: 4
#     Node 9, Type 0, BuildingBlock: ICAMEG_clean_sbu_1, # of connection points: 4
#     Node 10, Type 0, BuildingBlock: ICAMEG_clean_sbu_1, # of connection points: 4
#     Node 11, Type 0, BuildingBlock: ICAMEG_clean_sbu_1, # of connection points: 4
#     Node 12, Type 0, BuildingBlock: ICAMEG_clean_sbu_1, # of connection points: 4
#     Node 13, Type 0, BuildingBlock: ICAMEG_clean_sbu_1, # of connection points: 4
#     Node 14, Type 0, BuildingBlock: ICAMEG_clean_sbu_1, # of connection points: 4
#     Node 15, Type 0, BuildingBlock: ICAMEG_clean_sbu_1, # of connection points: 4
#     Edge 16, Type (0, 0), BuildingBlock: AJUNOK_clean_linker_0, # of connection points: 2
#     Edge 17, Type (0, 0), BuildingBlock: AJUNOK_clean_linker_0, # of connection points: 2
#     Edge 18, Type (0, 0), BuildingBlock: AJUNOK_clean_linker_0, # of connection points: 2
#     Edge 19, Type (0, 0), BuildingBlock: AJUNOK_clean_linker_0, # of connection points: 2
#     Edge 20, Type (0, 0), BuildingBlock: AJUNOK_clean_linker_0, # of connection points: 2
#     Edge 21, Type (0, 0), BuildingBlock: AJUNOK_clean_linker_0, # of connection points: 2
#     Edge 22, Type (0, 0), BuildingBlock: AJUNOK_clean_linker_0, # of connection points: 2
#     Edge 23, Type (0, 0), BuildingBlock: AJUNOK_clean_linker_0, # of connection points: 2
#     Edge 24, Type (0, 0), BuildingBlock: AJUNOK_clean_linker_0, # of connection points: 2
#     Edge 25, Type (0, 0), BuildingBlock: AJUNOK_clean_linker_0, # of connection points: 2
#     Edge 26, Type (0, 0), BuildingBlock: AJUNOK_clean_linker_0, # of connection points: 2
#     Edge 27, Type (0, 0), BuildingBlock: AJUNOK_clean_linker_0, # of connection points: 2
#     Edge 28, Type (0, 0), BuildingBlock: AJUNOK_clean_linker_0, # of connection points: 2
#     Edge 29, Type (0, 0), BuildingBlock: AJUNOK_clean_linker_0, # of connection points: 2
#     Edge 30, Type (0, 0), BuildingBlock: AJUNOK_clean_linker_0, # of connection points: 2
#     Edge 31, Type (0, 0), BuildingBlock: AJUNOK_clean_linker_0, # of connection points: 2
#     Edge 32, Type (0, 0), BuildingBlock: AJUNOK_clean_linker_0, # of connection points: 2
#     Edge 33, Type (0, 0), BuildingBlock: AJUNOK_clean_linker_0, # of connection points: 2
#     Edge 34, Type (0, 0), BuildingBlock: AJUNOK_clean_linker_0, # of connection points: 2
#     Edge 35, Type (0, 0), BuildingBlock: AJUNOK_clean_linker_0, # of connection points: 2
#     Edge 36, Type (0, 0), BuildingBlock: AJUNOK_clean_linker_0, # of connection points: 2
#     Edge 37, Type (0, 0), BuildingBlock: AJUNOK_clean_linker_0, # of connection points: 2
#     Edge 38, Type (0, 0), BuildingBlock: AJUNOK_clean_linker_0, # of connection points: 2
#     Edge 39, Type (0, 0), BuildingBlock: AJUNOK_clean_linker_0, # of connection points: 2
#     Edge 40, Type (0, 0), BuildingBlock: AJUNOK_clean_linker_0, # of connection points: 2
#     Edge 41, Type (0, 0), BuildingBlock: AJUNOK_clean_linker_0, # of connection points: 2
#     Edge 42, Type (0, 0), BuildingBlock: AJUNOK_clean_linker_0, # of connection points: 2
#     Edge 43, Type (0, 0), BuildingBlock: AJUNOK_clean_linker_0, # of connection points: 2
#     Edge 44, Type (0, 0), BuildingBlock: AJUNOK_clean_linker_0, # of connection points: 2
#     Edge 45, Type (0, 0), BuildingBlock: AJUNOK_clean_linker_0, # of connection points: 2
#     Edge 46, Type (0, 0), BuildingBlock: AJUNOK_clean_linker_0, # of connection points: 2
#     Edge 47, Type (0, 0), BuildingBlock: AJUNOK_clean_linker_0, # of connection points: 2
# Relax obj value: 0.088
# Max RMSD: 0.243
# Mean RMSD: 0.243
data_MOF--net-umh--node1-ICAMEG_clean_sbu_1--edge1-AJUNOK_clean_linker_0
_symmetry_space_group_name_H-M    P1
_symmetry_Int_Tables_number       1
_symmetry_cell_setting            triclinic
loop_
_symmetry_equiv_pos_as_xyz
'x, y, z'
_cell_length_a     31.816722
_cell_length_b     31.840849
_cell_length_c     42.368968
_cell_angle_alpha  90.020512
_cell_angle_beta   90.016089
_cell_angle_gamma 89.900623
loop_
_atom_site_label
_atom_site_type_symbol
_atom_site_fract_x
_atom_site_fract_y
_atom_site_fract_z
_atom_type_partial_charge
Co0 Co 0.30659 0.08839 0.13849 0.0
Co1 Co 0.38139 0.12866 0.18913 0.0
O2 O 0.36439 0.09844 0.15123 0.0
C3 C 0.34545 0.1295 0.08332 0.0
O4 O 0.36084 0.15679 0.10346 0.0
C5 C 0.41745 0.04479 0.19532 0.0
O6 O 0.37895 0.03289 0.189 0.0
O7 O 0.34134 0.09684 0.2157 0.0
O8 O 0.28865 0.07825 0.1833 0.0
H9 H 0.35919 0.20564 0.29144 0.0
H10 H 0.37544 0.04135 0.10716 0.0
O11 O 0.32296 0.09916 0.09335 0.0
H12 H 0.28659 0.93356 0.15724 0.0
H13 H 0.19437 0.02957 0.06745 0.0
H14 H 0.22299 0.11569 0.16177 0.0
H15 H 0.26728 0.00853 0.16039 0.0
H16 H 0.26714 0.04101 0.08561 0.0
O17 O 0.42573 0.08402 0.19662 0.0
H18 H 0.33727 0.16813 0.24324 0.0
H19 H 0.46468 0.15058 0.21675 0.0
H20 H 0.1497 0.10471 0.14469 0.0
H21 H 0.39576 0.96669 0.10326 0.0
H22 H 0.13502 0.06141 0.09717 0.0
H23 H 0.35131 0.91227 0.1286 0.0
O24 O 0.29298 0.1487 0.14377 0.0
H25 H 0.49381 0.14667 0.10695 0.0
H26 H 0.39997 0.21968 0.1817 0.0
H27 H 0.44762 0.2611 0.148 0.0
H28 H 0.49498 0.22454 0.11029 0.0
H29 H 0.44546 0.1065 0.14096 0.0
H30 H 0.48817 0.18762 0.26483 0.0
H31 H 0.4352 0.21556 0.3025 0.0
O32 O 0.33623 0.17249 0.18213 0.0
C33 C 0.30507 0.08136 0.21073 0.0
C34 C 0.38258 0.19379 0.27514 0.0
C35 C 0.45496 0.18364 0.26021 0.0
N36 N 0.3996 0.15802 0.22688 0.0
C37 C 0.37032 0.17286 0.24767 0.0
C38 C 0.44149 0.16276 0.23301 0.0
C39 C 0.42523 0.19925 0.28137 0.0
C40 C 0.3556 0.01777 0.11783 0.0
N41 N 0.3201 0.02926 0.13382 0.0
C42 C 0.36739 0.97558 0.11569 0.0
C43 C 0.34248 0.94506 0.12997 0.0
C44 C 0.30617 0.95699 0.14606 0.0
C45 C 0.29542 0.99949 0.14778 0.0
C46 C 0.20034 0.0484 0.08824 0.0
C47 C 0.21682 0.0965 0.14125 0.0
C48 C 0.24148 0.05505 0.09859 0.0
N49 N 0.24924 0.07865 0.12488 0.0
C50 C 0.17527 0.09052 0.13162 0.0
C51 C 0.16706 0.06627 0.10493 0.0
C52 C 0.30487 0.17674 0.16332 0.0
C53 C 0.47341 0.16294 0.12335 0.0
C54 C 0.42045 0.20357 0.1653 0.0
C55 C 0.44741 0.22718 0.14633 0.0
C56 C 0.474 0.20664 0.1252 0.0
N57 N 0.42012 0.16072 0.16338 0.0
C58 C 0.44611 0.14035 0.14276 0.0
Co59 Co 0.41493 0.30423 0.63776 0.0
Co60 Co 0.37476 0.38069 0.68702 0.0
O61 O 0.40556 0.36236 0.64975 0.0
C62 C 0.37539 0.34294 0.5819 0.0
O63 O 0.34799 0.35899 0.6017 0.0
C64 C 0.45898 0.41567 0.69347 0.0
O65 O 0.4706 0.37678 0.68823 0.0
O66 O 0.40552 0.34072 0.71451 0.0
O67 O 0.42407 0.28713 0.68295 0.0
H68 H 0.29436 0.3624 0.78821 0.0
H69 H 0.46363 0.37161 0.6063 0.0
O70 O 0.40521 0.31995 0.59233 0.0
H71 H 0.56921 0.28153 0.6582 0.0
H72 H 0.47368 0.18959 0.56877 0.0
H73 H 0.38547 0.22173 0.66139 0.0
H74 H 0.49385 0.26381 0.66082 0.0
H75 H 0.46285 0.26289 0.58591 0.0
O76 O 0.41979 0.42446 0.69434 0.0
H77 H 0.33282 0.33862 0.74092 0.0
H78 H 0.3538 0.46494 0.71334 0.0
H79 H 0.39578 0.14796 0.64533 0.0
H80 H 0.53873 0.39037 0.60292 0.0
H81 H 0.44018 0.13151 0.59869 0.0
H82 H 0.59204 0.34528 0.62917 0.0
O83 O 0.35427 0.29182 0.64249 0.0
H84 H 0.35997 0.4912 0.60303 0.0
H85 H 0.28407 0.40057 0.67815 0.0
H86 H 0.24399 0.44791 0.64319 0.0
H87 H 0.282 0.49365 0.60529 0.0
H88 H 0.39879 0.44317 0.63826 0.0
H89 H 0.31587 0.49027 0.76052 0.0
H90 H 0.28572 0.43878 0.79828 0.0
O91 O 0.33047 0.33618 0.68013 0.0
C92 C 0.42055 0.30403 0.71021 0.0
C93 C 0.3072 0.38515 0.77188 0.0
C94 C 0.31931 0.45691 0.75634 0.0
N95 N 0.34481 0.40032 0.72411 0.0
C96 C 0.32871 0.37184 0.74493 0.0
C97 C 0.34072 0.4424 0.72967 0.0
C98 C 0.30245 0.42801 0.77754 0.0
C99 C 0.48672 0.35151 0.61738 0.0
N100 N 0.47439 0.31654 0.63358 0.0
C101 C 0.52916 0.36241 0.61553 0.0
C102 C 0.55907 0.33714 0.6303 0.0
C103 C 0.54627 0.30138 0.64663 0.0
C104 C 0.50355 0.29153 0.64806 0.0
C105 C 0.4544 0.19634 0.5892 0.0
C106 C 0.40508 0.21478 0.64122 0.0
C107 C 0.44812 0.23777 0.59899 0.0
N108 N 0.424 0.2465 0.62485 0.0
C109 C 0.41069 0.17297 0.63217 0.0
C110 C 0.43558 0.16377 0.60599 0.0
C111 C 0.32609 0.30459 0.66163 0.0
C112 C 0.34307 0.47151 0.61951 0.0
C113 C 0.30081 0.42035 0.66168 0.0
C114 C 0.27796 0.44714 0.64199 0.0
C115 C 0.29931 0.47282 0.62075 0.0
N116 N 0.34372 0.41929 0.66034 0.0
C117 C 0.36489 0.4444 0.63961 0.0
Co118 Co 0.19741 0.41357 0.13807 0.0
Co119 Co 0.12371 0.37464 0.19013 0.0
O120 O 0.13995 0.40435 0.15189 0.0
C121 C 0.15612 0.37121 0.08475 0.0
O122 O 0.14203 0.34474 0.10596 0.0
C123 C 0.08808 0.45888 0.19601 0.0
O124 O 0.12655 0.4706 0.18942 0.0
O125 O 0.16479 0.40648 0.21585 0.0
O126 O 0.21669 0.42461 0.1826 0.0
H127 H 0.14787 0.29738 0.29203 0.0
H128 H 0.12785 0.46048 0.10748 0.0
O129 O 0.17941 0.40176 0.09336 0.0
H130 H 0.2194 0.56861 0.1544 0.0
H131 H 0.30768 0.46976 0.06423 0.0
H132 H 0.28149 0.38564 0.15989 0.0
H133 H 0.23814 0.49354 0.15814 0.0
H134 H 0.23538 0.45902 0.08369 0.0
O135 O 0.07985 0.41968 0.1979 0.0
H136 H 0.16887 0.33512 0.24373 0.0
H137 H 0.04095 0.35374 0.21904 0.0
H138 H 0.35429 0.39582 0.14146 0.0
H139 H 0.10804 0.53522 0.10303 0.0
H140 H 0.36775 0.43821 0.0933 0.0
H141 H 0.15383 0.58982 0.12678 0.0
O142 O 0.21085 0.35334 0.14385 0.0
H143 H 0.00876 0.3567 0.10985 0.0
H144 H 0.10429 0.28365 0.18335 0.0
H145 H 0.05537 0.2423 0.1506 0.0
H146 H 0.00711 0.27888 0.11355 0.0
H147 H 0.05846 0.3968 0.14281 0.0
H148 H 0.01838 0.31655 0.26727 0.0
H149 H 0.07207 0.28785 0.30405 0.0
O150 O 0.1683 0.33031 0.18282 0.0
C151 C 0.20109 0.42169 0.21035 0.0
C152 C 0.12416 0.30955 0.27612 0.0
C153 C 0.0515 0.32034 0.26223 0.0
N154 N 0.10622 0.34579 0.22827 0.0
C155 C 0.1359 0.33063 0.2486 0.0
C156 C 0.06445 0.34134 0.23496 0.0
C157 C 0.08163 0.3043 0.28288 0.0
C158 C 0.14827 0.48412 0.11745 0.0
N159 N 0.18423 0.47269 0.13289 0.0
C160 C 0.13677 0.52636 0.11501 0.0
C161 C 0.16245 0.55699 0.12838 0.0
C162 C 0.19922 0.5451 0.14391 0.0
C163 C 0.20965 0.50255 0.14598 0.0
C164 C 0.30225 0.45145 0.08535 0.0
C165 C 0.28715 0.40448 0.13911 0.0
C166 C 0.2614 0.4453 0.09649 0.0
N167 N 0.25435 0.42245 0.12326 0.0
C168 C 0.32841 0.40997 0.1287 0.0
C169 C 0.33594 0.43372 0.10167 0.0
C170 C 0.19921 0.32562 0.1637 0.0
C171 C 0.02949 0.34043 0.12601 0.0
C172 C 0.08345 0.29977 0.16722 0.0
C173 C 0.05575 0.27621 0.14881 0.0
C174 C 0.02864 0.29675 0.12806 0.0
N175 N 0.08403 0.3426 0.16512 0.0
C176 C 0.05758 0.36298 0.14482 0.0
Co177 Co 0.08767 0.19933 0.63786 0.0
Co178 Co 0.12864 0.12421 0.68779 0.0
O179 O 0.09783 0.1415 0.65028 0.0
C180 C 0.12842 0.16062 0.5825 0.0
O181 O 0.15588 0.14525 0.60256 0.0
C182 C 0.04507 0.08683 0.69377 0.0
O183 O 0.03178 0.12534 0.68904 0.0
O184 O 0.0966 0.16371 0.71477 0.0
O185 O 0.07782 0.21684 0.68289 0.0
H186 H 0.20728 0.14521 0.78951 0.0
H187 H 0.04046 0.13075 0.60659 0.0
O188 O 0.09809 0.1832 0.59262 0.0
H189 H 0.93277 0.22006 0.65678 0.0
H190 H 0.02778 0.31211 0.56775 0.0
H191 H 0.11582 0.28257 0.66096 0.0
H192 H 0.00786 0.23878 0.66012 0.0
H193 H 0.03948 0.23924 0.58552 0.0
O194 O 0.08457 0.07961 0.69495 0.0
H195 H 0.1686 0.16768 0.74195 0.0
H196 H 0.15129 0.04067 0.71462 0.0
H197 H 0.10461 0.35595 0.64427 0.0
H198 H 0.9657 0.11096 0.60253 0.0
H199 H 0.0603 0.3711 0.59733 0.0
H200 H 0.91131 0.15565 0.62789 0.0
O201 O 0.14805 0.21277 0.64281 0.0
H202 H 0.14679 0.01275 0.60483 0.0
H203 H 0.21985 0.10613 0.67971 0.0
H204 H 0.26133 0.05899 0.64553 0.0
H205 H 0.22476 0.01183 0.60777 0.0
H206 H 0.10656 0.06064 0.63925 0.0
H207 H 0.1894 0.01665 0.7621 0.0
H208 H 0.21787 0.06914 0.79984 0.0
O209 O 0.17217 0.16951 0.68099 0.0
C210 C 0.08113 0.20015 0.71023 0.0
C211 C 0.19521 0.12203 0.77317 0.0
C212 C 0.18513 0.04988 0.7578 0.0
N213 N 0.15852 0.10559 0.72521 0.0
C214 C 0.1736 0.13461 0.74607 0.0
C215 C 0.16362 0.06365 0.73096 0.0
C216 C 0.20105 0.07934 0.77899 0.0
C217 C 0.01691 0.15065 0.61733 0.0
N218 N 0.02848 0.186 0.63342 0.0
C219 C 0.97466 0.13917 0.61509 0.0
C220 C 0.94416 0.16423 0.62937 0.0
C221 C 0.95618 0.20035 0.64561 0.0
C222 C 0.99875 0.21077 0.64745 0.0
C223 C 0.047 0.30594 0.58831 0.0
C224 C 0.09621 0.28895 0.64068 0.0
C225 C 0.05376 0.26475 0.59846 0.0
N226 N 0.07782 0.25674 0.6245 0.0
C227 C 0.09011 0.33055 0.63126 0.0
C228 C 0.06527 0.33902 0.60491 0.0
C229 C 0.17629 0.20082 0.66221 0.0
C230 C 0.16307 0.03306 0.62125 0.0
C231 C 0.20373 0.08579 0.66327 0.0
C232 C 0.22737 0.05909 0.64403 0.0
C233 C 0.20683 0.03261 0.62287 0.0
N234 N 0.16083 0.08599 0.66156 0.0
C235 C 0.14045 0.06011 0.6409 0.0
Co236 Co 0.30901 0.41559 0.39358 0.0
Co237 Co 0.38108 0.37185 0.34214 0.0
O238 O 0.3661 0.40365 0.37978 0.0
C239 C 0.34885 0.37266 0.44733 0.0
O240 O 0.36247 0.34557 0.42634 0.0
C241 C 0.41932 0.45471 0.3344 0.0
O242 O 0.38117 0.46848 0.34004 0.0
O243 O 0.34056 0.40375 0.31596 0.0
O244 O 0.2901 0.42651 0.34901 0.0
H245 H 0.35288 0.2898 0.24296 0.0
H246 H 0.38057 0.46001 0.42341 0.0
O247 O 0.32655 0.40386 0.43841 0.0
H248 H 0.29253 0.57114 0.37631 0.0
H249 H 0.20117 0.47701 0.46727 0.0
H250 H 0.22382 0.3922 0.37135 0.0
H251 H 0.27125 0.4968 0.37289 0.0
H252 H 0.27296 0.4628 0.44792 0.0
O253 O 0.42597 0.41515 0.33318 0.0
H254 H 0.3337 0.32893 0.29112 0.0
H255 H 0.46265 0.34897 0.31209 0.0
H256 H 0.15149 0.40592 0.38966 0.0
H257 H 0.40299 0.53399 0.42746 0.0
H258 H 0.13983 0.44862 0.43797 0.0
H259 H 0.35887 0.59009 0.4037 0.0
O260 O 0.29314 0.35589 0.38856 0.0
H261 H 0.49654 0.3539 0.42204 0.0
H262 H 0.39876 0.28067 0.35048 0.0
H263 H 0.44722 0.23929 0.38368 0.0
H264 H 0.49659 0.27596 0.41977 0.0
H265 H 0.44728 0.39404 0.38865 0.0
H266 H 0.48326 0.31017 0.26403 0.0
H267 H 0.42813 0.28027 0.22912 0.0
O268 O 0.33574 0.32919 0.35091 0.0
C269 C 0.30537 0.42149 0.32133 0.0
C270 C 0.37718 0.30267 0.25799 0.0
C271 C 0.45036 0.31414 0.26981 0.0
N272 N 0.39705 0.34089 0.30454 0.0
C273 C 0.36653 0.32468 0.28538 0.0
C274 C 0.43853 0.33608 0.29697 0.0
C275 C 0.41942 0.29741 0.25021 0.0
C276 C 0.36098 0.48433 0.41335 0.0
N277 N 0.32452 0.47416 0.39812 0.0
C278 C 0.37393 0.52612 0.41558 0.0
C279 C 0.3492 0.55759 0.40219 0.0
C280 C 0.31198 0.54697 0.38681 0.0
C281 C 0.30009 0.50483 0.38493 0.0
C282 C 0.20584 0.45853 0.44611 0.0
C283 C 0.21895 0.41119 0.39218 0.0
C284 C 0.2464 0.45038 0.43506 0.0
N285 N 0.25249 0.42727 0.40826 0.0
C286 C 0.17795 0.41868 0.40253 0.0
C287 C 0.17143 0.44259 0.42966 0.0
C288 C 0.30457 0.32656 0.36995 0.0
C289 C 0.47529 0.33758 0.40632 0.0
C290 C 0.4201 0.29684 0.36617 0.0
C291 C 0.44753 0.27325 0.38486 0.0
C292 C 0.47526 0.29384 0.40507 0.0
N293 N 0.42036 0.33973 0.36751 0.0
C294 C 0.44745 0.36015 0.38727 0.0
Co295 Co 0.08509 0.30269 0.89538 0.0
Co296 Co 0.12681 0.37717 0.8452 0.0
O297 O 0.09536 0.36043 0.88257 0.0
C298 C 0.12573 0.34195 0.95056 0.0
O299 O 0.15293 0.35739 0.93038 0.0
C300 C 0.04289 0.41388 0.83769 0.0
O301 O 0.02991 0.37543 0.8429 0.0
O302 O 0.09593 0.33684 0.81833 0.0
O303 O 0.0754 0.28463 0.85049 0.0
H304 H 0.20966 0.35349 0.74574 0.0
H305 H 0.03791 0.37191 0.92605 0.0
O306 O 0.09547 0.31928 0.94057 0.0
H307 H 0.93022 0.2825 0.87628 0.0
H308 H 0.02553 0.1911 0.9665 0.0
H309 H 0.11222 0.21897 0.87237 0.0
H310 H 0.0053 0.26336 0.87323 0.0
H311 H 0.03726 0.2637 0.94818 0.0
O312 O 0.08234 0.4213 0.8368 0.0
H313 H 0.17101 0.33219 0.79356 0.0
H314 H 0.14762 0.45997 0.81645 0.0
H315 H 0.10095 0.14585 0.8896 0.0
H316 H 0.96317 0.39214 0.92979 0.0
H317 H 0.05737 0.13156 0.93702 0.0
H318 H 0.90878 0.34738 0.90465 0.0
O319 O 0.14545 0.2888 0.89069 0.0
H320 H 0.14164 0.49061 0.92694 0.0
H321 H 0.21756 0.39662 0.85397 0.0
H322 H 0.25765 0.44503 0.88799 0.0
H323 H 0.21963 0.49248 0.9248 0.0
H324 H 0.10282 0.44147 0.89268 0.0
H325 H 0.18584 0.48271 0.76871 0.0
H326 H 0.21718 0.42924 0.73301 0.0
O327 O 0.17069 0.33254 0.85332 0.0
C328 C 0.07962 0.30092 0.82311 0.0
C329 C 0.19616 0.37708 0.76112 0.0
C330 C 0.18275 0.44961 0.77401 0.0
N331 N 0.15742 0.39484 0.80792 0.0
C332 C 0.17442 0.36523 0.78832 0.0
C333 C 0.16114 0.43657 0.80098 0.0
C334 C 0.2003 0.41959 0.75396 0.0
C335 C 0.01436 0.352 0.9154 0.0
N336 N 0.02591 0.31638 0.8996 0.0
C337 C 0.97212 0.36372 0.91746 0.0
C338 C 0.94162 0.33863 0.9033 0.0
C339 C 0.95364 0.30224 0.88736 0.0
C340 C 0.99619 0.29158 0.88569 0.0
C341 C 0.04447 0.19691 0.94574 0.0
C342 C 0.09288 0.21296 0.89284 0.0
C343 C 0.05128 0.23794 0.93531 0.0
N344 N 0.07504 0.24549 0.90907 0.0
C345 C 0.08676 0.17151 0.90256 0.0
C346 C 0.06234 0.16352 0.92919 0.0
C347 C 0.17438 0.30121 0.8721 0.0
C348 C 0.15855 0.47017 0.91094 0.0
C349 C 0.20081 0.41712 0.86997 0.0
C350 C 0.22367 0.44452 0.88913 0.0
C351 C 0.20232 0.47116 0.90976 0.0
N352 N 0.1579 0.41638 0.87125 0.0
C353 C 0.13673 0.44241 0.89139 0.0
Co354 Co 0.19807 0.08866 0.39467 0.0
Co355 Co 0.12466 0.13026 0.34327 0.0
O356 O 0.14066 0.09896 0.38089 0.0
C357 C 0.15709 0.13079 0.44822 0.0
O358 O 0.14289 0.15739 0.42711 0.0
C359 C 0.0897 0.04613 0.33543 0.0
O360 O 0.1282 0.03429 0.34192 0.0
O361 O 0.16631 0.09981 0.31709 0.0
O362 O 0.2172 0.07801 0.35008 0.0
H363 H 0.15023 0.21442 0.24475 0.0
H364 H 0.12788 0.0424 0.42474 0.0
O365 O 0.18024 0.10013 0.43947 0.0
H366 H 0.21813 0.93356 0.37699 0.0
H367 H 0.30765 0.02953 0.468 0.0
H368 H 0.28247 0.11563 0.37313 0.0
H369 H 0.23783 0.00837 0.37394 0.0
H370 H 0.23547 0.04177 0.44865 0.0
O371 O 0.08127 0.08537 0.33411 0.0
H372 H 0.17066 0.17492 0.29243 0.0
H373 H 0.04242 0.15061 0.3132 0.0
H374 H 0.35514 0.10396 0.39146 0.0
H375 H 0.10709 0.96792 0.42848 0.0
H376 H 0.36809 0.06057 0.43922 0.0
H377 H 0.15226 0.91297 0.40432 0.0
O378 O 0.21229 0.14876 0.38947 0.0
H379 H 0.00876 0.14416 0.42322 0.0
H380 H 0.10404 0.22079 0.35185 0.0
H381 H 0.05433 0.26045 0.38519 0.0
H382 H 0.00621 0.22207 0.42118 0.0
H383 H 0.0592 0.10575 0.38966 0.0
H384 H 0.02056 0.18971 0.26559 0.0
H385 H 0.0747 0.22204 0.23107 0.0
O386 O 0.16859 0.17434 0.35211 0.0
C387 C 0.202 0.08296 0.32236 0.0
C388 C 0.12635 0.20051 0.25962 0.0
C389 C 0.05357 0.18661 0.27131 0.0
N390 N 0.10772 0.16082 0.30573 0.0
C391 C 0.13771 0.17827 0.28674 0.0
C392 C 0.06611 0.16448 0.29821 0.0
C393 C 0.08396 0.20471 0.25193 0.0
C394 C 0.148 0.01859 0.41459 0.0
N395 N 0.18414 0.02968 0.39932 0.0
C396 C 0.13596 0.9765 0.41663 0.0
C397 C 0.16129 0.94568 0.40303 0.0
C398 C 0.19824 0.95722 0.38766 0.0
C399 C 0.20921 0.99962 0.38599 0.0
C400 C 0.30243 0.04827 0.44705 0.0
C401 C 0.2879 0.09636 0.39373 0.0
C402 C 0.26166 0.05527 0.43598 0.0
N403 N 0.25489 0.07865 0.40941 0.0
C404 C 0.3291 0.09002 0.40409 0.0
C405 C 0.33633 0.06572 0.4309 0.0
C406 C 0.19991 0.17777 0.37093 0.0
C407 C 0.02943 0.16121 0.40752 0.0
C408 C 0.08322 0.20388 0.36748 0.0
C409 C 0.05509 0.2265 0.38625 0.0
C410 C 0.02806 0.20494 0.4064 0.0
N411 N 0.08432 0.16099 0.36867 0.0
C412 C 0.05794 0.13963 0.38838 0.0
Co413 Co 0.41567 0.19983 0.8952 0.0
Co414 Co 0.3753 0.12539 0.84418 0.0
O415 O 0.40631 0.14217 0.88174 0.0
C416 C 0.37418 0.15878 0.94894 0.0
O417 O 0.34783 0.14407 0.92786 0.0
C418 C 0.46016 0.09127 0.83647 0.0
O419 O 0.47156 0.12989 0.84281 0.0
O420 O 0.40512 0.16707 0.81782 0.0
O421 O 0.426 0.21865 0.85053 0.0
H422 H 0.29156 0.14899 0.7451 0.0
H423 H 0.46301 0.13056 0.9257 0.0
O424 O 0.40444 0.18229 0.94011 0.0
H425 H 0.5706 0.22165 0.87767 0.0
H426 H 0.47214 0.31073 0.96837 0.0
H427 H 0.38879 0.28371 0.87238 0.0
H428 H 0.49542 0.24034 0.87435 0.0
H429 H 0.46104 0.23827 0.94944 0.0
O430 O 0.42098 0.08251 0.83525 0.0
H431 H 0.32996 0.1703 0.79306 0.0
H432 H 0.35646 0.04269 0.81447 0.0
H433 H 0.39936 0.35667 0.89027 0.0
H434 H 0.53785 0.11078 0.9297 0.0
H435 H 0.44132 0.37053 0.93861 0.0
H436 H 0.59219 0.15635 0.9054 0.0
O437 O 0.35529 0.21326 0.88989 0.0
H438 H 0.36331 0.0101 0.92468 0.0
H439 H 0.28506 0.10359 0.85275 0.0
H440 H 0.24619 0.05366 0.88629 0.0
H441 H 0.28539 0.00644 0.92256 0.0
H442 H 0.4009 0.06076 0.89093 0.0
H443 H 0.31844 0.01995 0.7666 0.0
H444 H 0.28563 0.07333 0.7316 0.0
O445 O 0.33035 0.1688 0.85282 0.0
C446 C 0.42149 0.20288 0.82296 0.0
C447 C 0.30569 0.12544 0.76019 0.0
C448 C 0.32081 0.05301 0.77225 0.0
N449 N 0.34509 0.10772 0.80669 0.0
C450 C 0.32731 0.13729 0.78746 0.0
C451 C 0.3423 0.06605 0.7993 0.0
C452 C 0.30244 0.08298 0.75259 0.0
C453 C 0.48653 0.15087 0.91548 0.0
N454 N 0.4749 0.18669 0.89999 0.0
C455 C 0.52884 0.13939 0.91767 0.0
C456 C 0.55931 0.16496 0.904 0.0
C457 C 0.54721 0.20157 0.8884 0.0
C458 C 0.50461 0.21199 0.88659 0.0
C459 C 0.45397 0.30511 0.9472 0.0
C460 C 0.40746 0.28955 0.89323 0.0
C461 C 0.44758 0.26417 0.93638 0.0
N462 N 0.42485 0.25688 0.90957 0.0
C463 C 0.41317 0.3309 0.90334 0.0
C464 C 0.43666 0.33865 0.93049 0.0
C465 C 0.32639 0.20024 0.87149 0.0
C466 C 0.3459 0.03038 0.90887 0.0
C467 C 0.30232 0.08317 0.8685 0.0
C468 C 0.28015 0.05491 0.88739 0.0
C469 C 0.30217 0.02839 0.9077 0.0
N470 N 0.34521 0.08489 0.86976 0.0
C471 C 0.36702 0.05901 0.88961 0.0
Co472 Co 0.69853 0.91451 0.89441 0.0
Co473 Co 0.62424 0.87652 0.84231 0.0
O474 O 0.64092 0.90647 0.88035 0.0
C475 C 0.6559 0.87332 0.94763 0.0
O476 O 0.64102 0.84743 0.92631 0.0
C477 C 0.59041 0.96162 0.83554 0.0
O478 O 0.62909 0.97291 0.84191 0.0
O479 O 0.66643 0.90679 0.81657 0.0
O480 O 0.71846 0.92467 0.84994 0.0
H481 H 0.64792 0.79704 0.74134 0.0
H482 H 0.62975 0.96306 0.92446 0.0
O483 O 0.67995 0.90332 0.9391 0.0
H484 H 0.72389 0.06893 0.87764 0.0
H485 H 0.80931 0.96795 0.96901 0.0
H486 H 0.7823 0.88591 0.8724 0.0
H487 H 0.74109 0.99346 0.87424 0.0
H488 H 0.73696 0.95869 0.9492 0.0
O489 O 0.58164 0.92252 0.83389 0.0
H490 H 0.6692 0.8327 0.7905 0.0
H491 H 0.54152 0.8589 0.8122 0.0
H492 H 0.85517 0.89462 0.89118 0.0
H493 H 0.61142 0.03821 0.92854 0.0
H494 H 0.86903 0.93591 0.93984 0.0
H495 H 0.65853 0.09169 0.90484 0.0
O496 O 0.7107 0.854 0.88897 0.0
H497 H 0.5083 0.86319 0.92224 0.0
H498 H 0.60174 0.78629 0.84943 0.0
H499 H 0.55138 0.74691 0.88228 0.0
H500 H 0.50419 0.78542 0.91899 0.0
H501 H 0.55939 0.9013 0.88918 0.0
H502 H 0.51881 0.82341 0.76326 0.0
H503 H 0.57225 0.79225 0.72744 0.0
O504 O 0.66729 0.83102 0.8505 0.0
C505 C 0.70284 0.9216 0.82221 0.0
C506 C 0.62435 0.81046 0.75677 0.0
C507 C 0.55188 0.8253 0.76907 0.0
N508 N 0.60659 0.84754 0.8043 0.0
C509 C 0.63618 0.83052 0.78471 0.0
C510 C 0.5649 0.84531 0.79674 0.0
C511 C 0.58188 0.80786 0.74896 0.0
C512 C 0.65072 0.9862 0.91451 0.0
N513 N 0.68657 0.97393 0.89931 0.0
C514 C 0.64007 0.02868 0.91675 0.0
C515 C 0.66649 0.05868 0.9034 0.0
C516 C 0.70314 0.04592 0.88811 0.0
C517 C 0.71271 0.00315 0.88624 0.0
C518 C 0.8037 0.95006 0.9477 0.0
C519 C 0.78815 0.9043 0.89338 0.0
C520 C 0.76282 0.94472 0.93638 0.0
N521 N 0.75554 0.92235 0.9094 0.0
C522 C 0.82944 0.90896 0.90399 0.0
C523 C 0.83719 0.93207 0.93132 0.0
C524 C 0.69789 0.8259 0.86983 0.0
C525 C 0.52857 0.84608 0.90623 0.0
C526 C 0.58134 0.80326 0.86538 0.0
C527 C 0.55283 0.7808 0.88387 0.0
C528 C 0.52632 0.80243 0.90443 0.0
N529 N 0.58332 0.84606 0.86728 0.0
C530 C 0.55743 0.8675 0.88736 0.0
Co531 Co 0.59122 0.69513 0.393 0.0
Co532 Co 0.63191 0.62273 0.34058 0.0
O533 O 0.60209 0.638 0.37904 0.0
C534 C 0.63573 0.65517 0.44604 0.0
O535 O 0.66235 0.64182 0.42461 0.0
C536 C 0.54893 0.58398 0.33525 0.0
O537 O 0.53525 0.62202 0.34135 0.0
O538 O 0.59816 0.66264 0.31521 0.0
O539 O 0.57904 0.71416 0.34854 0.0
H540 H 0.70604 0.64933 0.23773 0.0
H541 H 0.54687 0.62431 0.42381 0.0
O542 O 0.60423 0.67745 0.43765 0.0
H543 H 0.43524 0.71342 0.37848 0.0
H544 H 0.53234 0.80357 0.46736 0.0
H545 H 0.61634 0.77994 0.37118 0.0
H546 H 0.50977 0.7337 0.37363 0.0
H547 H 0.54523 0.73169 0.44776 0.0
O548 O 0.58848 0.57745 0.33321 0.0
H549 H 0.66869 0.6691 0.28655 0.0
H550 H 0.6555 0.54076 0.31149 0.0
H551 H 0.60398 0.85234 0.38976 0.0
H552 H 0.4727 0.60291 0.42932 0.0
H553 H 0.56164 0.86451 0.43817 0.0
H554 H 0.41635 0.64759 0.40647 0.0
O555 O 0.65091 0.71024 0.38682 0.0
H556 H 0.65528 0.50832 0.42044 0.0
H557 H 0.72373 0.60633 0.34652 0.0
H558 H 0.76736 0.55868 0.37873 0.0
H559 H 0.73311 0.50918 0.41599 0.0
H560 H 0.61287 0.55681 0.38802 0.0
H561 H 0.69235 0.51942 0.26275 0.0
H562 H 0.71808 0.57394 0.22557 0.0
O563 O 0.67476 0.66867 0.34751 0.0
C564 C 0.58201 0.69854 0.32078 0.0
C565 C 0.69516 0.62527 0.25381 0.0
C566 C 0.68743 0.55237 0.26785 0.0
N567 N 0.66079 0.6062 0.30217 0.0
C568 C 0.67433 0.63633 0.28163 0.0
C569 C 0.66665 0.56463 0.29542 0.0
C570 C 0.70181 0.58297 0.24696 0.0
C571 C 0.52246 0.64414 0.41414 0.0
N572 N 0.53259 0.68033 0.3986 0.0
C573 C 0.48055 0.63177 0.4172 0.0
C574 C 0.44894 0.65679 0.4043 0.0
C575 C 0.45953 0.69374 0.38859 0.0
C576 C 0.50177 0.70504 0.38589 0.0
C577 C 0.55061 0.79869 0.44612 0.0
C578 C 0.59751 0.78503 0.39206 0.0
C579 C 0.55796 0.75809 0.4349 0.0
N580 N 0.58074 0.75173 0.40797 0.0
C581 C 0.59079 0.82607 0.40256 0.0
C582 C 0.56707 0.83287 0.42975 0.0
C583 C 0.67873 0.69959 0.3667 0.0
C584 C 0.67055 0.52963 0.4042 0.0
C585 C 0.70861 0.58497 0.36276 0.0
C586 C 0.73347 0.55798 0.38087 0.0
C587 C 0.71423 0.53017 0.40173 0.0
N588 N 0.66579 0.58418 0.36528 0.0
C589 C 0.64669 0.55704 0.3857 0.0
Co590 Co 0.80017 0.58445 0.89479 0.0
Co591 Co 0.87291 0.62516 0.84281 0.0
O592 O 0.85747 0.59441 0.88072 0.0
C593 C 0.84171 0.62625 0.94824 0.0
O594 O 0.85529 0.65312 0.92713 0.0
C595 C 0.91114 0.54176 0.83613 0.0
O596 O 0.87298 0.52799 0.84158 0.0
O597 O 0.83227 0.59292 0.81706 0.0
O598 O 0.78038 0.57409 0.85017 0.0
H599 H 0.84569 0.70478 0.74251 0.0
H600 H 0.87051 0.53761 0.92437 0.0
O601 O 0.81862 0.59559 0.93954 0.0
H602 H 0.77907 0.42951 0.87729 0.0
H603 H 0.69145 0.52525 0.96859 0.0
H604 H 0.71563 0.61311 0.87458 0.0
H605 H 0.75992 0.50452 0.87409 0.0
H606 H 0.76334 0.53698 0.94863 0.0
O607 O 0.9176 0.58129 0.83457 0.0
H608 H 0.82611 0.66733 0.79121 0.0
H609 H 0.95484 0.64621 0.81259 0.0
H610 H 0.6432 0.60194 0.89348 0.0
H611 H 0.89079 0.46294 0.92822 0.0
H612 H 0.63075 0.55766 0.94083 0.0
H613 H 0.845 0.40835 0.90445 0.0
O614 O 0.78613 0.64467 0.88983 0.0
H615 H 0.98842 0.64375 0.92255 0.0
H616 H 0.89137 0.71635 0.84992 0.0
H617 H 0.94022 0.75796 0.88254 0.0
H618 H 0.98925 0.72161 0.91913 0.0
H619 H 0.93873 0.60339 0.88978 0.0
H620 H 0.97586 0.68301 0.76379 0.0
H621 H 0.92104 0.71252 0.72834 0.0
O622 O 0.82792 0.66872 0.85084 0.0
C623 C 0.7961 0.57732 0.82245 0.0
C624 C 0.86988 0.69191 0.75766 0.0
C625 C 0.94293 0.67972 0.76964 0.0
N626 N 0.88932 0.65492 0.80484 0.0
C627 C 0.85899 0.67094 0.78541 0.0
C628 C 0.93085 0.65892 0.79722 0.0
C629 C 0.91216 0.69622 0.74974 0.0
C630 C 0.85016 0.51397 0.91432 0.0
N631 N 0.81396 0.52537 0.8992 0.0
C632 C 0.86191 0.47177 0.91644 0.0
C633 C 0.83624 0.44115 0.90304 0.0
C634 C 0.79926 0.45301 0.88778 0.0
C635 C 0.78859 0.49553 0.88602 0.0
C636 C 0.69643 0.54431 0.94779 0.0
C637 C 0.71038 0.59331 0.89489 0.0
C638 C 0.73704 0.551 0.93635 0.0
N639 N 0.74352 0.57478 0.90996 0.0
C640 C 0.66934 0.58732 0.90563 0.0
C641 C 0.66239 0.56254 0.93221 0.0
C642 C 0.79748 0.67299 0.87038 0.0
C643 C 0.96733 0.65993 0.90659 0.0
C644 C 0.91253 0.70033 0.86586 0.0
C645 C 0.94019 0.72404 0.88421 0.0
C646 C 0.96774 0.70362 0.9047 0.0
N647 N 0.91236 0.65748 0.86783 0.0
C648 C 0.93924 0.63724 0.88789 0.0
Co649 Co 0.91396 0.80787 0.3929 0.0
Co650 Co 0.87509 0.88229 0.34124 0.0
O651 O 0.90473 0.86547 0.37942 0.0
C652 C 0.87113 0.84849 0.44645 0.0
O653 O 0.84486 0.86311 0.42524 0.0
C654 C 0.95955 0.91713 0.33547 0.0
O655 O 0.97104 0.87854 0.34194 0.0
O656 O 0.90663 0.84122 0.31528 0.0
O657 O 0.92507 0.78905 0.34829 0.0
H658 H 0.7982 0.85977 0.23895 0.0
H659 H 0.96064 0.87689 0.42412 0.0
O660 O 0.90183 0.82533 0.43774 0.0
H661 H 0.0692 0.78582 0.37683 0.0
H662 H 0.9692 0.69672 0.4665 0.0
H663 H 0.88737 0.72409 0.3698 0.0
H664 H 0.99411 0.76727 0.37276 0.0
H665 H 0.95848 0.76923 0.4475 0.0
O666 O 0.92037 0.92578 0.33369 0.0
H667 H 0.8353 0.838 0.28738 0.0
H668 H 0.85463 0.96541 0.31277 0.0
H669 H 0.89759 0.6511 0.38775 0.0
H670 H 0.03539 0.89652 0.42889 0.0
H671 H 0.93877 0.63705 0.43645 0.0
H672 H 0.0902 0.85097 0.40495 0.0
O673 O 0.85378 0.79465 0.38682 0.0
H674 H 0.85778 0.99639 0.42227 0.0
H675 H 0.78415 0.9024 0.34814 0.0
H676 H 0.74303 0.95119 0.38125 0.0
H677 H 0.7799 0.99865 0.41863 0.0
H678 H 0.89764 0.94684 0.38891 0.0
H679 H 0.81801 0.98875 0.26444 0.0
H680 H 0.78933 0.9357 0.22722 0.0
O681 O 0.83059 0.83801 0.34831 0.0
C682 C 0.92194 0.80493 0.32065 0.0
C683 C 0.81037 0.8832 0.25505 0.0
C684 C 0.82152 0.95557 0.26935 0.0
N685 N 0.84631 0.90036 0.30319 0.0
C686 C 0.83109 0.87102 0.28264 0.0
C687 C 0.84218 0.9422 0.29668 0.0
C688 C 0.80549 0.9258 0.24845 0.0
C689 C 0.98438 0.85658 0.41407 0.0
N690 N 0.97307 0.82085 0.39836 0.0
C691 C 0.02662 0.86797 0.4167 0.0
C692 C 0.05737 0.84243 0.40322 0.0
C693 C 0.0456 0.80589 0.38741 0.0
C694 C 0.00304 0.79556 0.38517 0.0
C695 C 0.95138 0.70242 0.44516 0.0
C696 C 0.90573 0.71818 0.3908 0.0
C697 C 0.94521 0.74339 0.4343 0.0
N698 N 0.92291 0.75078 0.40729 0.0
C699 C 0.91123 0.6768 0.40094 0.0
C700 C 0.93429 0.66896 0.42829 0.0
C701 C 0.82601 0.80677 0.36711 0.0
C702 C 0.84138 0.97599 0.40597 0.0
C703 C 0.80039 0.92291 0.36439 0.0
C704 C 0.77696 0.95054 0.38302 0.0
C705 C 0.79767 0.9772 0.40395 0.0
N706 N 0.84325 0.92197 0.36647 0.0
C707 C 0.86379 0.948 0.38694 0.0
Co708 Co 0.70148 0.58072 0.63569 0.0
Co709 Co 0.62526 0.62769 0.68206 0.0
O710 O 0.64359 0.59459 0.64613 0.0
C711 C 0.66752 0.62562 0.58012 0.0
O712 O 0.65229 0.65291 0.60034 0.0
C713 C 0.5894 0.5441 0.6911 0.0
O714 O 0.62784 0.53163 0.68519 0.0
O715 O 0.66527 0.59883 0.71081 0.0
O716 O 0.71511 0.56802 0.68109 0.0
H717 H 0.64508 0.71531 0.7796 0.0
H718 H 0.6313 0.54023 0.60097 0.0
O719 O 0.68876 0.59426 0.59015 0.0
H720 H 0.70857 0.42431 0.652 0.0
H721 H 0.81266 0.51777 0.56563 0.0
H722 H 0.78543 0.59395 0.66473 0.0
H723 H 0.73319 0.49742 0.65726 0.0
H724 H 0.74021 0.53511 0.5817 0.0
O725 O 0.58129 0.58342 0.69135 0.0
H726 H 0.66823 0.67525 0.73285 0.0
H727 H 0.54133 0.64947 0.70868 0.0
H728 H 0.85845 0.57716 0.64987 0.0
H729 H 0.60572 0.46756 0.59497 0.0
H730 H 0.87246 0.53883 0.59986 0.0
H731 H 0.6443 0.40906 0.62078 0.0
O732 O 0.71974 0.63989 0.64301 0.0
H733 H 0.51511 0.63651 0.59727 0.0
H734 H 0.60465 0.7175 0.67018 0.0
H735 H 0.55728 0.75505 0.63367 0.0
H736 H 0.5121 0.71447 0.59687 0.0
H737 H 0.56315 0.60026 0.63403 0.0
H738 H 0.51676 0.68938 0.75516 0.0
H739 H 0.56887 0.72251 0.79102 0.0
O740 O 0.6696 0.67104 0.67285 0.0
C741 C 0.69896 0.57748 0.70782 0.0
C742 C 0.62209 0.70104 0.76413 0.0
C743 C 0.55006 0.68645 0.75043 0.0
N744 N 0.60613 0.66032 0.71796 0.0
C745 C 0.63499 0.67848 0.73755 0.0
C746 C 0.56413 0.66392 0.72416 0.0
C747 C 0.57931 0.705 0.77056 0.0
C748 C 0.64862 0.51487 0.61187 0.0
N749 N 0.68385 0.52303 0.62927 0.0
C750 C 0.63386 0.47381 0.60853 0.0
C751 C 0.65549 0.44099 0.62306 0.0
C752 C 0.69155 0.44954 0.64059 0.0
C753 C 0.70534 0.49099 0.64348 0.0
C754 C 0.80703 0.53471 0.58738 0.0
C755 C 0.79132 0.57755 0.64296 0.0
C756 C 0.76606 0.54488 0.59649 0.0
N757 N 0.75866 0.56627 0.62391 0.0
C758 C 0.83272 0.56798 0.63465 0.0
C759 C 0.84055 0.54648 0.60661 0.0
C760 C 0.70489 0.67132 0.65824 0.0
C761 C 0.53455 0.65453 0.61326 0.0
C762 C 0.58507 0.69965 0.65423 0.0
C763 C 0.55828 0.72107 0.63364 0.0
C764 C 0.53292 0.69828 0.61301 0.0
N765 N 0.58647 0.65675 0.65432 0.0
C766 C 0.56167 0.63418 0.63421 0.0
Co767 Co 0.91352 0.69585 0.13718 0.0
Co768 Co 0.87289 0.62219 0.18858 0.0
O769 O 0.90407 0.63836 0.15089 0.0
C770 C 0.87349 0.65477 0.0824 0.0
O771 O 0.84668 0.639 0.10271 0.0
C772 C 0.95749 0.58801 0.19651 0.0
O773 O 0.96884 0.62665 0.19021 0.0
O774 O 0.9028 0.66407 0.21489 0.0
O775 O 0.92298 0.7153 0.18183 0.0
H776 H 0.78876 0.64721 0.28729 0.0
H777 H 0.96181 0.62664 0.10752 0.0
O778 O 0.90342 0.67803 0.09222 0.0
H779 H 0.06803 0.71873 0.15629 0.0
H780 H 0.97207 0.80662 0.06484 0.0
H781 H 0.88389 0.77958 0.15831 0.0
H782 H 0.9927 0.73695 0.15884 0.0
H783 H 0.96154 0.73433 0.08422 0.0
O784 O 0.91833 0.57922 0.19776 0.0
H785 H 0.82742 0.66785 0.2393 0.0
H786 H 0.85366 0.53991 0.21876 0.0
H787 H 0.89391 0.8524 0.14001 0.0
H788 H 0.03685 0.60734 0.10426 0.0
H789 H 0.93827 0.86629 0.09292 0.0
H790 H 0.09049 0.65344 0.12891 0.0
O791 O 0.85298 0.70879 0.14162 0.0
H792 H 0.86037 0.50623 0.10861 0.0
H793 H 0.78259 0.60067 0.18014 0.0
H794 H 0.74348 0.55053 0.1469 0.0
H795 H 0.78244 0.50287 0.1108 0.0
H796 H 0.89821 0.55703 0.14213 0.0
H797 H 0.81535 0.51785 0.26665 0.0
H798 H 0.78256 0.57173 0.30125 0.0
O799 O 0.82822 0.66568 0.1796 0.0
C800 C 0.91862 0.70012 0.20958 0.0
C801 C 0.80291 0.62344 0.2724 0.0
C802 C 0.81786 0.55084 0.26082 0.0
N803 N 0.84248 0.60506 0.22612 0.0
C804 C 0.82467 0.63491 0.24511 0.0
C805 C 0.83952 0.56349 0.23376 0.0
C806 C 0.7995 0.58109 0.28024 0.0
C807 C 0.98504 0.64716 0.11791 0.0
N808 N 0.97292 0.683 0.13318 0.0
C809 C 0.02745 0.63596 0.11613 0.0
C810 C 0.05754 0.66181 0.13001 0.0
C811 C 0.04495 0.69842 0.14541 0.0
C812 C 0.00225 0.70856 0.14681 0.0
C813 C 0.95281 0.801 0.08546 0.0
C814 C 0.90353 0.78542 0.13798 0.0
C815 C 0.94672 0.76015 0.09651 0.0
N816 N 0.9226 0.75284 0.12262 0.0
C817 C 0.90896 0.8267 0.12765 0.0
C818 C 0.93383 0.83446 0.10122 0.0
C819 C 0.82416 0.69635 0.16027 0.0
C820 C 0.84306 0.52676 0.12431 0.0
C821 C 0.79975 0.58005 0.16447 0.0
C822 C 0.77744 0.55168 0.14574 0.0
C823 C 0.79932 0.52493 0.12552 0.0
N824 N 0.84264 0.5816 0.16318 0.0
C825 C 0.86432 0.55545 0.14344 0.0
Co826 Co 0.8028 0.9164 0.63687 0.0
Co827 Co 0.88024 0.87311 0.68407 0.0
O828 O 0.86117 0.90574 0.648 0.0
C829 C 0.83975 0.87502 0.58093 0.0
O830 O 0.85579 0.8478 0.60086 0.0
C831 C 0.91538 0.95747 0.693 0.0
O832 O 0.87672 0.97055 0.68849 0.0
O833 O 0.83921 0.90116 0.71258 0.0
O834 O 0.7875 0.92705 0.68214 0.0
H835 H 0.86182 0.78536 0.78163 0.0
H836 H 0.87114 0.962 0.60388 0.0
O837 O 0.81706 0.90514 0.59129 0.0
H838 H 0.7854 0.07173 0.65506 0.0
H839 H 0.68838 0.97665 0.56838 0.0
H840 H 0.71982 0.89214 0.66299 0.0
H841 H 0.7655 0.99708 0.65925 0.0
H842 H 0.76175 0.96346 0.5845 0.0
O843 O 0.92305 0.91813 0.69321 0.0
H844 H 0.83816 0.82438 0.73456 0.0
H845 H 0.96455 0.85423 0.71161 0.0
H846 H 0.64599 0.90481 0.64797 0.0
H847 H 0.89209 0.03628 0.59898 0.0
H848 H 0.62988 0.94737 0.60032 0.0
H849 H 0.8492 0.0917 0.62483 0.0
O850 O 0.78805 0.85622 0.64277 0.0
H851 H 0.98893 0.8675 0.5981 0.0
H852 H 0.90797 0.78451 0.67504 0.0
H853 H 0.95664 0.74834 0.63874 0.0
H854 H 0.99758 0.78998 0.59989 0.0
H855 H 0.9394 0.90217 0.63455 0.0
H856 H 0.98961 0.81538 0.7584 0.0
H857 H 0.93803 0.78064 0.79378 0.0
O858 O 0.83737 0.82818 0.6748 0.0
C859 C 0.8039 0.91966 0.70912 0.0
C860 C 0.88459 0.8003 0.76635 0.0
C861 C 0.95632 0.81719 0.75334 0.0
N862 N 0.89998 0.8413 0.72024 0.0
C863 C 0.87141 0.82228 0.73959 0.0
C864 C 0.94196 0.83917 0.7269 0.0
C865 C 0.92737 0.79773 0.7732 0.0
C866 C 0.85201 0.98599 0.61485 0.0
N867 N 0.817 0.97524 0.63167 0.0
C868 C 0.86414 0.02797 0.61212 0.0
C869 C 0.8401 0.05905 0.62668 0.0
C870 C 0.80432 0.04786 0.64366 0.0
C871 C 0.79322 0.00554 0.64597 0.0
C872 C 0.69498 0.95811 0.58921 0.0
C873 C 0.71304 0.91079 0.64231 0.0
C874 C 0.73645 0.95045 0.5984 0.0
N875 N 0.74502 0.92724 0.62476 0.0
C876 C 0.67118 0.91781 0.63388 0.0
C877 C 0.66217 0.94167 0.60714 0.0
C878 C 0.80324 0.82578 0.65877 0.0
C879 C 0.97116 0.84898 0.61482 0.0
C880 C 0.92516 0.80265 0.65789 0.0
C881 C 0.95295 0.7821 0.63756 0.0
C882 C 0.97597 0.80549 0.61582 0.0
N883 N 0.92029 0.84523 0.65657 0.0
C884 C 0.9431 0.86844 0.63556 0.0
Co885 Co 0.58496 0.8041 0.1369 0.0
Co886 Co 0.62909 0.8771 0.18728 0.0
O887 O 0.59687 0.86139 0.15 0.0
C888 C 0.6262 0.84287 0.08176 0.0
O889 O 0.65392 0.85745 0.10191 0.0
C890 C 0.54587 0.91405 0.19576 0.0
O891 O 0.53321 0.8758 0.18953 0.0
O892 O 0.59816 0.83674 0.21417 0.0
O893 O 0.57516 0.78584 0.18172 0.0
H894 H 0.71393 0.8508 0.28547 0.0
H895 H 0.53935 0.87479 0.10675 0.0
O896 O 0.59545 0.82086 0.09175 0.0
H897 H 0.42987 0.7884 0.15722 0.0
H898 H 0.52163 0.6949 0.06547 0.0
H899 H 0.61009 0.71945 0.15924 0.0
H900 H 0.50434 0.76682 0.15931 0.0
H901 H 0.5356 0.76696 0.08411 0.0
O902 O 0.58529 0.92171 0.19649 0.0
H903 H 0.67354 0.83074 0.23812 0.0
H904 H 0.65172 0.95915 0.2165 0.0
H905 H 0.59657 0.64684 0.14168 0.0
H906 H 0.46521 0.8974 0.10394 0.0
H907 H 0.55207 0.63421 0.09444 0.0
H908 H 0.40996 0.85419 0.12949 0.0
O909 O 0.64498 0.7886 0.14132 0.0
H910 H 0.64432 0.99107 0.10605 0.0
H911 H 0.71995 0.89527 0.17784 0.0
H912 H 0.76024 0.94329 0.14368 0.0
H913 H 0.72236 0.99162 0.10744 0.0
H914 H 0.60529 0.94235 0.14049 0.0
H915 H 0.69174 0.98066 0.26377 0.0
H916 H 0.72322 0.92625 0.29856 0.0
O917 O 0.672 0.83191 0.17835 0.0
C918 C 0.58057 0.80144 0.20923 0.0
C919 C 0.70039 0.8748 0.27047 0.0
C920 C 0.6879 0.94769 0.2583 0.0
N921 N 0.66065 0.89378 0.22441 0.0
C922 C 0.67766 0.86364 0.24354 0.0
C923 C 0.66527 0.93535 0.2316 0.0
C924 C 0.70552 0.91714 0.27784 0.0
C925 C 0.51539 0.8555 0.11751 0.0
N926 N 0.52613 0.81941 0.13301 0.0
C927 C 0.4735 0.86858 0.11599 0.0
C928 C 0.44251 0.84436 0.13037 0.0
C929 C 0.45367 0.80745 0.14596 0.0
C930 C 0.49589 0.79541 0.14708 0.0
C931 C 0.54095 0.69998 0.08614 0.0
C932 C 0.59037 0.71417 0.13885 0.0
C933 C 0.54903 0.7407 0.09676 0.0
N934 N 0.57327 0.74734 0.12291 0.0
C935 C 0.58297 0.673 0.12894 0.0
C936 C 0.55804 0.66595 0.10241 0.0
C937 C 0.67454 0.80042 0.1596 0.0
C938 C 0.66117 0.97025 0.12181 0.0
C939 C 0.70326 0.91621 0.16212 0.0
C940 C 0.72624 0.94336 0.14287 0.0
C941 C 0.70496 0.97049 0.12256 0.0
N942 N 0.66032 0.91619 0.16126 0.0
C943 C 0.63923 0.94273 0.14146 0.0
C944 C 0.38908 0.17264 1.00618 0.0
C945 C 0.3677 0.14935 0.98297 0.0
C946 C 0.38197 0.16567 0.03845 0.0
C947 C 0.35342 0.13489 0.04893 0.0
H948 H 0.411 0.19703 0.99944 0.0
H949 H 0.39893 0.18485 0.05529 0.0
S950 S 0.29092 0.06372 0.99768 0.0
N951 N 0.31776 0.09311 0.97278 0.0
N952 N 0.30465 0.07989 0.03321 0.0
C953 C 0.33253 0.1107 0.02594 0.0
C954 C 0.33957 0.11798 0.99307 0.0
C955 C 0.33486 0.38808 0.50444 0.0
C956 C 0.35774 0.36586 0.48141 0.0
C957 C 0.34113 0.38071 0.53675 0.0
C958 C 0.37078 0.35103 0.54746 0.0
H959 H 0.3113 0.4109 0.49752 0.0
H960 H 0.3223 0.39838 0.55343 0.0
S961 S 0.44054 0.28598 0.49679 0.0
N962 N 0.41243 0.3139 0.47165 0.0
N963 N 0.42433 0.30025 0.5322 0.0
C964 C 0.3946 0.32926 0.52468 0.0
C965 C 0.38802 0.33659 0.49175 0.0
C966 C 0.16212 0.37869 0.99521 0.0
C967 C 0.13128 0.35007 0.98491 0.0
C968 C 0.16936 0.38592 0.02743 0.0
C969 C 0.14631 0.36458 0.05078 0.0
H970 H 0.18115 0.39561 0.97827 0.0
H971 H 0.19379 0.4079 0.03402 0.0
S972 S 0.06057 0.28774 0.03656 0.0
N973 N 0.07643 0.30133 1.00093 0.0
N974 N 0.09017 0.31467 0.0613 0.0
C975 C 0.11485 0.3364 0.04086 0.0
C976 C 0.10729 0.32924 1.00803 0.0
C977 C 0.16407 0.12338 0.5377 0.0
C978 C 0.13359 0.15239 0.54814 0.0
C979 C 0.17087 0.11599 0.50545 0.0
C980 C 0.14771 0.13753 0.48222 0.0
H981 H 0.18314 0.10628 0.55456 0.0
H982 H 0.19506 0.09372 0.49874 0.0
S983 S 0.06279 0.21543 0.49685 0.0
N984 N 0.07896 0.20175 0.5324 0.0
N985 N 0.09186 0.18807 0.47197 0.0
C986 C 0.1166 0.1661 0.49229 0.0
C987 C 0.10949 0.17343 0.52515 0.0
C988 C 0.66258 0.8798 0.03721 0.0
C989 C 0.63162 0.85127 0.04743 0.0
C990 C 0.66963 0.88735 1.00501 0.0
C991 C 0.64626 0.86645 0.98159 0.0
H992 H 0.68183 0.89641 0.0542 0.0
H993 H 0.69417 0.90923 0.99848 0.0
S994 S 0.5603 0.78979 0.99564 0.0
N995 N 0.57647 0.80294 0.0313 0.0
N996 N 0.58981 0.81689 0.97097 0.0
C997 C 0.61473 0.83831 0.99145 0.0
C998 C 0.60737 0.83082 0.02427 0.0
C999 C 0.6298 0.66158 0.53567 0.0
C1000 C 0.65937 0.63142 0.54577 0.0
C1001 C 0.62181 0.66848 0.5035 0.0
C1002 C 0.64331 0.64579 0.47998 0.0
H1003 H 0.61256 0.68019 0.55273 0.0
H1004 H 0.59905 0.69233 0.49707 0.0
S1005 S 0.7228 0.56207 0.49367 0.0
N1006 N 0.70939 0.57778 0.5294 0.0
N1007 N 0.69462 0.59085 0.46912 0.0
C1008 C 0.67256 0.61511 0.48971 0.0
C1009 C 0.6805 0.60789 0.5225 0.0
C1010 C 0.8296 0.61062 1.00561 0.0
C1011 C 0.8519 0.63262 0.98219 0.0
C1012 C 0.8372 0.61764 0.03782 0.0
C1013 C 0.86768 0.64671 0.04804 0.0
H1014 H 0.80546 0.58829 0.99908 0.0
H1015 H 0.81872 0.60024 0.05482 0.0
S1016 S 0.93635 0.71097 0.99618 0.0
N1017 N 0.90691 0.68373 0.97153 0.0
N1018 N 0.92132 0.69667 0.03185 0.0
C1019 C 0.89091 0.66822 0.02484 0.0
C1020 C 0.88298 0.66128 0.99203 0.0
C1021 C 0.88485 0.83349 0.50369 0.0
C1022 C 0.86391 0.8573 0.48052 0.0
C1023 C 0.877 0.83971 0.53595 0.0
C1024 C 0.84809 0.87023 0.54652 0.0
H1025 H 0.90701 0.80925 0.49691 0.0
H1026 H 0.89372 0.82017 0.55272 0.0
S1027 S 0.7867 0.94275 0.49548 0.0
N1028 N 0.81412 0.91389 0.4705 0.0
N1029 N 0.79959 0.92569 0.53096 0.0
C1030 C 0.82765 0.89498 0.52361 0.0
C1031 C 0.83547 0.88847 0.49071 0.0
C1032 C 0.23801 0.26836 0.13616 0.0
C1033 C 0.22433 0.28655 0.16462 0.0
C1034 C 0.26457 0.23322 0.13605 0.0
C1035 C 0.27948 0.21566 0.16439 0.0
H1036 H 0.22793 0.28132 0.11375 0.0
H1037 H 0.27375 0.21981 0.11356 0.0
S1038 S 0.25354 0.25194 0.2453 0.0
N1039 N 0.22783 0.28456 0.22189 0.0
N1040 N 0.2783 0.21884 0.22169 0.0
C1041 C 0.26638 0.23374 0.19303 0.0
C1042 C 0.23858 0.26905 0.19315 0.0
C1043 C 0.26799 0.26686 0.63439 0.0
C1044 C 0.28687 0.27991 0.66274 0.0
C1045 C 0.23251 0.24084 0.63453 0.0
C1046 C 0.21537 0.22586 0.66298 0.0
H1047 H 0.28065 0.27702 0.61192 0.0
H1048 H 0.21854 0.23211 0.61214 0.0
S1049 S 0.2539 0.25003 0.74361 0.0
N1050 N 0.28625 0.27561 0.71999 0.0
N1051 N 0.21992 0.22613 0.72025 0.0
C1052 C 0.23425 0.23828 0.69149 0.0
C1053 C 0.26989 0.26553 0.69136 0.0
C1054 C 0.26534 0.26952 0.34201 0.0
C1055 C 0.2792 0.28784 0.37038 0.0
C1056 C 0.23805 0.23483 0.34226 0.0
C1057 C 0.22468 0.21688 0.37089 0.0
H1058 H 0.27491 0.2826 0.31954 0.0
H1059 H 0.22824 0.22136 0.31997 0.0
S1060 S 0.2526 0.2529 0.45143 0.0
N1061 N 0.27736 0.28571 0.4277 0.0
N1062 N 0.22742 0.21979 0.42816 0.0
C1063 C 0.23867 0.23474 0.39932 0.0
C1064 C 0.26558 0.27043 0.39907 0.0
C1065 C 0.26805 0.23764 0.84336 0.0
C1066 C 0.28653 0.22405 0.87177 0.0
C1067 C 0.23253 0.26402 0.84354 0.0
C1068 C 0.21387 0.27673 0.87212 0.0
H1069 H 0.28173 0.2287 0.82093 0.0
H1070 H 0.2191 0.27379 0.82121 0.0
S1071 S 0.2499 0.24898 0.95273 0.0
N1072 N 0.28369 0.22531 0.92907 0.0
N1073 N 0.21626 0.27346 0.9294 0.0
C1074 C 0.2318 0.26284 0.90058 0.0
C1075 C 0.26832 0.23688 0.90041 0.0
C1076 C 0.73491 0.76738 0.84165 0.0
C1077 C 0.721 0.78565 0.87003 0.0
C1078 C 0.76092 0.7316 0.84185 0.0
C1079 C 0.77296 0.71247 0.87042 0.0
H1080 H 0.72658 0.78146 0.81922 0.0
H1081 H 0.77103 0.71841 0.81953 0.0
S1082 S 0.744 0.7478 0.95101 0.0
N1083 N 0.72105 0.78203 0.92731 0.0
N1084 N 0.76864 0.71427 0.92769 0.0
C1085 C 0.75867 0.73018 0.89887 0.0
C1086 C 0.73303 0.76691 0.89867 0.0
C1087 C 0.73381 0.74131 0.39416 0.0
C1088 C 0.71711 0.72566 0.36574 0.0
C1089 C 0.76849 0.76832 0.39424 0.0
C1090 C 0.78708 0.78168 0.36589 0.0
H1091 H 0.72016 0.7323 0.41658 0.0
H1092 H 0.78086 0.77889 0.41671 0.0
S1093 S 0.75498 0.75047 0.28507 0.0
N1094 N 0.72166 0.72577 0.30847 0.0
N1095 N 0.78658 0.77708 0.30865 0.0
C1096 C 0.77049 0.76673 0.33728 0.0
C1097 C 0.73562 0.73849 0.33721 0.0
C1098 C 0.73487 0.78678 0.65541 0.0
C1099 C 0.77896 0.78591 0.65907 0.0
C1100 C 0.71096 0.74973 0.65576 0.0
C1101 C 0.73031 0.71028 0.65898 0.0
H1102 H 0.7185 0.81635 0.65253 0.0
H1103 H 0.6772 0.75196 0.65286 0.0
S1104 S 0.84445 0.69044 0.66968 0.0
N1105 N 0.84061 0.74195 0.66655 0.0
N1106 N 0.79595 0.67263 0.66671 0.0
C1107 C 0.77423 0.70896 0.66274 0.0
C1108 C 0.79847 0.74665 0.66294 0.0
C1109 C 0.76708 0.73544 0.18831 0.0
C1110 C 0.7846 0.72053 0.15995 0.0
C1111 C 0.73222 0.76261 0.18806 0.0
C1112 C 0.71327 0.77485 0.15947 0.0
H1113 H 0.78111 0.72699 0.21073 0.0
H1114 H 0.71955 0.77345 0.21036 0.0
S1115 S 0.74681 0.74356 0.07898 0.0
N1116 N 0.78056 0.71989 0.10269 0.0
N1117 N 0.71425 0.76959 0.10224 0.0
C1118 C 0.73016 0.75955 0.13106 0.0
C1119 C 0.76606 0.73275 0.13129 0.0
C1120 C 0.21012 0.07533 0.26391 0.0
C1121 C 0.22806 0.07236 0.29429 0.0
C1122 C 0.23504 0.07466 0.23671 0.0
C1123 C 0.27901 0.07137 0.23871 0.0
H1124 H 0.17667 0.08044 0.26102 0.0
H1125 H 0.21982 0.07961 0.21416 0.0
S1126 S 0.34099 0.05372 0.31178 0.0
N1127 N 0.29208 0.05887 0.32416 0.0
N1128 N 0.33897 0.05847 0.27302 0.0
C1129 C 0.29706 0.06444 0.26861 0.0
C1130 C 0.27158 0.06464 0.29638 0.0
C1131 C 0.42604 0.29714 0.76901 0.0
C1132 C 0.43048 0.27877 0.73886 0.0
C1133 C 0.42668 0.27273 0.79651 0.0
C1134 C 0.43142 0.22891 0.79499 0.0
H1135 H 0.41983 0.33044 0.77147 0.0
H1136 H 0.42057 0.28809 0.81884 0.0
S1137 S 0.45281 0.16614 0.72291 0.0
N1138 N 0.44659 0.2146 0.70992 0.0
N1139 N 0.44694 0.16877 0.76156 0.0
C1140 C 0.43961 0.21055 0.7654 0.0
C1141 C 0.43942 0.23546 0.73737 0.0
C1142 C 0.20988 0.42997 0.26877 0.0
C1143 C 0.22756 0.43216 0.23826 0.0
C1144 C 0.23513 0.43019 0.29585 0.0
C1145 C 0.27913 0.43222 0.29357 0.0
H1146 H 0.17636 0.42572 0.27187 0.0
H1147 H 0.22009 0.42579 0.31852 0.0
S1148 S 0.34072 0.44763 0.22009 0.0
N1149 N 0.29156 0.44375 0.208 0.0
N1150 N 0.33899 0.44322 0.25887 0.0
C1151 C 0.29699 0.43844 0.26354 0.0
C1152 C 0.27122 0.43872 0.23592 0.0
C1153 C 0.07419 0.20694 0.7689 0.0
C1154 C 0.07073 0.22546 0.73875 0.0
C1155 C 0.07352 0.2313 0.79641 0.0
C1156 C 0.06972 0.27522 0.79493 0.0
H1157 H 0.07972 0.17353 0.77136 0.0
H1158 H 0.07888 0.21575 0.81878 0.0
S1159 S 0.05086 0.3385 0.72272 0.0
N1160 N 0.05636 0.28994 0.70972 0.0
N1161 N 0.05597 0.33571 0.76142 0.0
C1162 C 0.06239 0.29379 0.76529 0.0
C1163 C 0.06261 0.26893 0.73723 0.0
C1164 C 0.77295 0.92206 0.79572 0.0
C1165 C 0.72972 0.931 0.79456 0.0
C1166 C 0.79727 0.92111 0.76815 0.0
C1167 C 0.77947 0.92948 0.73827 0.0
H1168 H 0.78762 0.91293 0.81774 0.0
H1169 H 0.82988 0.91165 0.77024 0.0
S1170 S 0.66921 0.96314 0.72368 0.0
N1171 N 0.67123 0.95414 0.76201 0.0
N1172 N 0.71699 0.95358 0.71029 0.0
C1173 C 0.73708 0.94245 0.73732 0.0
C1174 C 0.71221 0.94282 0.7654 0.0
C1175 C 0.57269 0.70666 0.26241 0.0
C1176 C 0.57079 0.72465 0.29283 0.0
C1177 C 0.57225 0.73159 0.2352 0.0
C1178 C 0.57025 0.77558 0.23725 0.0
H1179 H 0.57694 0.67312 0.25948 0.0
H1180 H 0.57645 0.7163 0.21259 0.0
S1181 S 0.55529 0.83794 0.31044 0.0
N1182 N 0.55933 0.78895 0.32279 0.0
N1183 N 0.55943 0.8358 0.27165 0.0
C1184 C 0.56423 0.79377 0.2672 0.0
C1185 C 0.56417 0.76832 0.29497 0.0
C1186 C 0.78967 0.56318 0.76454 0.0
C1187 C 0.77015 0.56664 0.79432 0.0
C1188 C 0.76614 0.56289 0.73658 0.0
C1189 C 0.72213 0.56676 0.73718 0.0
H1190 H 0.82362 0.56285 0.76262 0.0
H1191 H 0.78293 0.56243 0.71441 0.0
S1192 S 0.65506 0.56763 0.8089 0.0
N1193 N 0.70361 0.56673 0.82261 0.0
N1194 N 0.65947 0.56723 0.77009 0.0
C1195 C 0.70197 0.56617 0.76678 0.0
C1196 C 0.72594 0.5658 0.79532 0.0
C1197 C 0.92729 0.73437 0.29514 0.0
C1198 C 0.93138 0.7782 0.29284 0.0
C1199 C 0.92592 0.7091 0.26809 0.0
C1200 C 0.929 0.72653 0.23756 0.0
H1201 H 0.92231 0.71957 0.31782 0.0
H1202 H 0.92033 0.67582 0.27125 0.0
S1203 S 0.94894 0.83885 0.21918 0.0
N1204 N 0.9447 0.8374 0.25798 0.0
N1205 N 0.94294 0.78991 0.20718 0.0
C1206 C 0.93723 0.76987 0.23514 0.0
C1207 C 0.93818 0.79569 0.26274 0.0
C1208 C 0.49361 0.02218 0.19608 0.0
C1209 C 0.45064 0.01216 0.19889 0.0
C1210 C 0.52468 0.99056 0.19625 0.0
C1211 C 0.51385 0.94784 0.19926 0.0
H1212 H 0.50323 0.05448 0.19267 0.0
H1213 H 0.5572 0.99955 0.19292 0.0
S1214 S 0.40612 0.90543 0.21086 0.0
N1215 N 0.39941 0.95656 0.20738 0.0
N1216 N 0.45719 0.89776 0.20774 0.0
C1217 C 0.47113 0.93775 0.20353 0.0
C1218 C 0.43972 0.96971 0.20334 0.0
C1219 C 0.51302 0.52274 0.6929 0.0
C1220 C 0.55591 0.51194 0.69495 0.0
C1221 C 0.48152 0.49169 0.69344 0.0
C1222 C 0.49179 0.44875 0.69604 0.0
H1223 H 0.50374 0.55524 0.68989 0.0
H1224 H 0.44904 0.50134 0.69085 0.0
S1225 S 0.59927 0.40422 0.70518 0.0
N1226 N 0.60659 0.45527 0.70201 0.0
N1227 N 0.548 0.39753 0.70297 0.0
C1228 C 0.5345 0.43782 0.69938 0.0
C1229 C 0.56636 0.46922 0.69885 0.0
C1230 C 0.01176 0.4808 0.19851 0.0
C1231 C 0.05472 0.49152 0.19909 0.0
C1232 C 0.98024 0.51196 0.19868 0.0
C1233 C 0.99052 0.555 0.19945 0.0
H1234 H 0.00238 0.44817 0.19704 0.0
H1235 H 0.94768 0.50225 0.1973 0.0
S1236 S 0.09833 0.59966 0.20394 0.0
N1237 N 0.10559 0.54844 0.20251 0.0
N1238 N 0.04698 0.60639 0.20289 0.0
C1239 C 0.03336 0.56596 0.20121 0.0
C1240 C 0.06526 0.53443 0.201 0.0
C1241 C 0.93945 0.03192 0.6951 0.0
C1242 C 0.94976 0.98893 0.69542 0.0
C1243 C 0.97053 0.06287 0.69525 0.0
C1244 C 0.01357 0.05246 0.69573 0.0
H1245 H 0.90695 0.04206 0.69424 0.0
H1246 H 0.96044 0.09537 0.69453 0.0
S1247 S 0.05778 0.94449 0.69737 0.0
N1248 N 0.00638 0.93741 0.69682 0.0
N1249 N 0.06499 0.99584 0.69712 0.0
C1250 C 0.02455 0.00961 0.69664 0.0
C1251 C 0.99267 0.97784 0.69648 0.0
C1252 C 0.47473 0.55979 0.33175 0.0
C1253 C 0.51773 0.54943 0.33246 0.0
C1254 C 0.4437 0.52884 0.33146 0.0
C1255 C 0.45398 0.48584 0.3319 0.0
H1256 H 0.46458 0.59228 0.33189 0.0
H1257 H 0.4112 0.53905 0.33143 0.0
S1258 S 0.56198 0.44144 0.33287 0.0
N1259 N 0.56921 0.49281 0.33276 0.0
N1260 N 0.51057 0.4343 0.33227 0.0
C1261 C 0.49688 0.47473 0.33183 0.0
C1262 C 0.52878 0.50655 0.3321 0.0
C1263 C 0.96812 0.4371 0.83471 0.0
C1264 C 0.01099 0.44797 0.83492 0.0
C1265 C 0.93657 0.46769 0.83432 0.0
C1266 C 0.94619 0.51081 0.83409 0.0
H1267 H 0.95848 0.4045 0.83535 0.0
H1268 H 0.90423 0.45714 0.83469 0.0
S1269 S 0.05353 0.55649 0.83368 0.0
N1270 N 0.06155 0.50523 0.83416 0.0
N1271 N 0.00202 0.56298 0.8334 0.0
C1272 C 0.98894 0.52239 0.83359 0.0
C1273 C 0.02133 0.49097 0.83401 0.0
C1274 C 0.982 0.99316 0.33332 0.0
C1275 C 0.99242 0.95013 0.33244 0.0
C1276 C 0.01343 0.02431 0.33326 0.0
C1277 C 0.0564 0.01356 0.3323 0.0
H1278 H 0.94943 0.00287 0.33497 0.0
H1279 H 0.00397 0.05694 0.3349 0.0
S1280 S 0.10026 0.90541 0.3269 0.0
N1281 N 0.04895 0.89871 0.32844 0.0
N1282 N 0.10739 0.95664 0.3283 0.0
C1283 C 0.06704 0.97066 0.33021 0.0
C1284 C 0.03525 0.93914 0.33029 0.0
C1285 C 0.5142 0.98396 0.83338 0.0
C1286 C 0.55721 0.99452 0.83282 0.0
C1287 C 0.48277 0.01522 0.8336 0.0
C1288 C 0.49316 0.05823 0.83326 0.0
H1289 H 0.50469 0.95134 0.83452 0.0
H1290 H 0.45019 0.00557 0.83491 0.0
S1291 S 0.60113 0.10259 0.8291 0.0
N1292 N 0.60824 0.05131 0.82994 0.0
N1293 N 0.5498 0.10948 0.83032 0.0
C1294 C 0.53606 0.06907 0.83156 0.0
C1295 C 0.56787 0.03742 0.83135 0.0
loop_
_geom_bond_atom_site_label_1
_geom_bond_atom_site_label_2
_geom_bond_distance
_geom_bond_site_symmetry_2
_ccdc_geom_bond_type
Co0 O2 2.143 . S
Co0 O8 2.074 . S
Co0 O11 2.093 . S
Co0 O24 2.097 . S
Co0 N41 2.151 . S
Co0 N49 2.214 . S
Co1 O2 2.160 . S
Co1 O7 2.058 . S
Co1 O17 2.057 . S
Co1 O32 2.037 . S
Co1 N36 2.145 . S
Co1 N57 2.257 . S
O2 Co0 2.143 . S
O2 Co1 2.160 . S
C3 O4 1.278 . S
C3 O11 1.224 . S
O4 C3 1.278 . S
C5 O6 1.245 . S
C5 O17 1.232 . S
O6 C5 1.245 . S
O7 Co1 2.058 . S
O7 C33 1.269 . S
O8 Co0 2.074 . S
O8 C33 1.257 . S
H9 C34 0.930 . S
H10 C40 0.930 . S
O11 Co0 2.093 . S
O11 C3 1.224 . S
H12 C44 0.929 . S
H13 C46 0.930 . S
H14 C47 0.930 . S
H15 C45 0.929 . S
H16 C48 0.928 . S
O17 Co1 2.057 . S
O17 C5 1.232 . S
H18 C37 0.929 . S
H19 C38 0.929 . S
H20 C50 0.931 . S
H21 C42 0.929 . S
H22 C51 0.930 . S
H23 C43 0.931 . S
O24 Co0 2.097 . S
O24 C52 1.214 . S
H25 C53 0.929 . S
H26 C54 0.929 . S
H27 C55 0.930 . S
H28 C56 0.929 . S
H29 C58 0.930 . S
H30 C35 0.930 . S
H31 C39 0.930 . S
O32 Co1 2.037 . S
O32 C52 1.234 . S
C33 O7 1.269 . S
C33 O8 1.257 . S
C34 H9 0.930 . S
C34 C37 1.388 . S
C34 C39 1.418 . S
C35 H30 0.930 . S
C35 C38 1.404 . S
C35 C39 1.353 . S
N36 Co1 2.145 . S
N36 C37 1.397 . S
N36 C38 1.334 . S
C37 H18 0.929 . S
C37 C34 1.388 . S
C37 N36 1.397 . S
C38 H19 0.929 . S
C38 C35 1.404 . S
C38 N36 1.334 . S
C39 H31 0.930 . S
C39 C34 1.418 . S
C39 C35 1.353 . S
C40 H10 0.930 . S
C40 N41 1.330 . S
C40 C42 1.446 1_545 S
N41 Co0 2.151 . S
N41 C40 1.330 . S
N41 C45 1.418 . S
C42 H21 0.929 . S
C42 C40 1.446 1_565 S
C42 C43 1.332 . S
C43 H23 0.931 . S
C43 C42 1.332 . S
C43 C44 1.267 . S
C44 H12 0.929 . S
C44 C43 1.267 . S
C44 C45 1.251 1_565 S
C45 H15 0.929 . S
C45 N41 1.418 . S
C45 C44 1.251 1_545 S
C46 H13 0.930 . S
C46 C48 1.406 . S
C46 C51 1.261 . S
C47 H14 0.930 . S
C47 N49 1.325 . S
C47 C50 1.357 . S
C48 H16 0.928 . S
C48 C46 1.406 . S
C48 N49 1.261 . S
N49 Co0 2.214 . S
N49 C47 1.325 . S
N49 C48 1.261 . S
C50 H20 0.931 . S
C50 C47 1.357 . S
C50 C51 1.312 . S
C51 H22 0.930 . S
C51 C46 1.261 . S
C51 C50 1.312 . S
C52 O24 1.214 . S
C52 O32 1.234 . S
C53 H25 0.929 . S
C53 C56 1.391 . S
C53 C58 1.391 . S
C54 H26 0.929 . S
C54 C55 1.390 . S
C54 N57 1.391 . S
C55 H27 0.930 . S
C55 C54 1.390 . S
C55 C56 1.392 . S
C56 H28 0.929 . S
C56 C53 1.391 . S
C56 C55 1.392 . S
N57 Co1 2.257 . S
N57 C54 1.391 . S
N57 C58 1.388 . S
C58 H29 0.930 . S
C58 C53 1.391 . S
C58 N57 1.388 . S
Co59 O61 2.143 . S
Co59 O67 2.074 . S
Co59 O70 2.093 . S
Co59 O83 2.097 . S
Co59 N100 2.151 . S
Co59 N108 2.214 . S
Co60 O61 2.160 . S
Co60 O66 2.058 . S
Co60 O76 2.057 . S
Co60 O91 2.037 . S
Co60 N95 2.145 . S
Co60 N116 2.257 . S
O61 Co59 2.143 . S
O61 Co60 2.160 . S
C62 O63 1.278 . S
C62 O70 1.224 . S
O63 C62 1.278 . S
C64 O65 1.245 . S
C64 O76 1.232 . S
O65 C64 1.245 . S
O66 Co60 2.058 . S
O66 C92 1.269 . S
O67 Co59 2.074 . S
O67 C92 1.257 . S
H68 C93 0.930 . S
H69 C99 0.930 . S
O70 Co59 2.093 . S
O70 C62 1.224 . S
H71 C103 0.929 . S
H72 C105 0.930 . S
H73 C106 0.930 . S
H74 C104 0.929 . S
H75 C107 0.928 . S
O76 Co60 2.057 . S
O76 C64 1.232 . S
H77 C96 0.929 . S
H78 C97 0.929 . S
H79 C109 0.931 . S
H80 C101 0.929 . S
H81 C110 0.930 . S
H82 C102 0.931 . S
O83 Co59 2.097 . S
O83 C111 1.214 . S
H84 C112 0.929 . S
H85 C113 0.929 . S
H86 C114 0.930 . S
H87 C115 0.929 . S
H88 C117 0.930 . S
H89 C94 0.930 . S
H90 C98 0.930 . S
O91 Co60 2.037 . S
O91 C111 1.234 . S
C92 O66 1.269 . S
C92 O67 1.257 . S
C93 H68 0.930 . S
C93 C96 1.388 . S
C93 C98 1.418 . S
C94 H89 0.930 . S
C94 C97 1.404 . S
C94 C98 1.353 . S
N95 Co60 2.145 . S
N95 C96 1.397 . S
N95 C97 1.334 . S
C96 H77 0.929 . S
C96 C93 1.388 . S
C96 N95 1.397 . S
C97 H78 0.929 . S
C97 C94 1.404 . S
C97 N95 1.334 . S
C98 H90 0.930 . S
C98 C93 1.418 . S
C98 C94 1.353 . S
C99 H69 0.930 . S
C99 N100 1.330 . S
C99 C101 1.446 . S
N100 Co59 2.151 . S
N100 C99 1.330 . S
N100 C104 1.418 . S
C101 H80 0.929 . S
C101 C99 1.446 . S
C101 C102 1.332 . S
C102 H82 0.931 . S
C102 C101 1.332 . S
C102 C103 1.267 . S
C103 H71 0.929 . S
C103 C102 1.267 . S
C103 C104 1.251 . S
C104 H74 0.929 . S
C104 N100 1.418 . S
C104 C103 1.251 . S
C105 H72 0.930 . S
C105 C107 1.406 . S
C105 C110 1.261 . S
C106 H73 0.930 . S
C106 N108 1.325 . S
C106 C109 1.357 . S
C107 H75 0.928 . S
C107 C105 1.406 . S
C107 N108 1.261 . S
N108 Co59 2.214 . S
N108 C106 1.325 . S
N108 C107 1.261 . S
C109 H79 0.931 . S
C109 C106 1.357 . S
C109 C110 1.312 . S
C110 H81 0.930 . S
C110 C105 1.261 . S
C110 C109 1.312 . S
C111 O83 1.214 . S
C111 O91 1.234 . S
C112 H84 0.929 . S
C112 C115 1.391 . S
C112 C117 1.391 . S
C113 H85 0.929 . S
C113 C114 1.390 . S
C113 N116 1.391 . S
C114 H86 0.930 . S
C114 C113 1.390 . S
C114 C115 1.392 . S
C115 H87 0.929 . S
C115 C112 1.391 . S
C115 C114 1.392 . S
N116 Co60 2.257 . S
N116 C113 1.391 . S
N116 C117 1.388 . S
C117 H88 0.930 . S
C117 C112 1.391 . S
C117 N116 1.388 . S
Co118 O120 2.143 . S
Co118 O126 2.074 . S
Co118 O129 2.093 . S
Co118 O142 2.097 . S
Co118 N159 2.151 . S
Co118 N167 2.214 . S
Co119 O120 2.160 . S
Co119 O125 2.058 . S
Co119 O135 2.057 . S
Co119 O150 2.037 . S
Co119 N154 2.145 . S
Co119 N175 2.257 . S
O120 Co118 2.143 . S
O120 Co119 2.160 . S
C121 O122 1.278 . S
C121 O129 1.224 . S
O122 C121 1.278 . S
C123 O124 1.245 . S
C123 O135 1.232 . S
O124 C123 1.245 . S
O125 Co119 2.058 . S
O125 C151 1.269 . S
O126 Co118 2.074 . S
O126 C151 1.257 . S
H127 C152 0.930 . S
H128 C158 0.930 . S
O129 Co118 2.093 . S
O129 C121 1.224 . S
H130 C162 0.929 . S
H131 C164 0.930 . S
H132 C165 0.930 . S
H133 C163 0.929 . S
H134 C166 0.928 . S
O135 Co119 2.057 . S
O135 C123 1.232 . S
H136 C155 0.929 . S
H137 C156 0.929 . S
H138 C168 0.931 . S
H139 C160 0.929 . S
H140 C169 0.930 . S
H141 C161 0.931 . S
O142 Co118 2.097 . S
O142 C170 1.214 . S
H143 C171 0.929 . S
H144 C172 0.929 . S
H145 C173 0.930 . S
H146 C174 0.929 . S
H147 C176 0.930 . S
H148 C153 0.930 . S
H149 C157 0.930 . S
O150 Co119 2.037 . S
O150 C170 1.234 . S
C151 O125 1.269 . S
C151 O126 1.257 . S
C152 H127 0.930 . S
C152 C155 1.388 . S
C152 C157 1.418 . S
C153 H148 0.930 . S
C153 C156 1.404 . S
C153 C157 1.353 . S
N154 Co119 2.145 . S
N154 C155 1.397 . S
N154 C156 1.334 . S
C155 H136 0.929 . S
C155 C152 1.388 . S
C155 N154 1.397 . S
C156 H137 0.929 . S
C156 C153 1.404 . S
C156 N154 1.334 . S
C157 H149 0.930 . S
C157 C152 1.418 . S
C157 C153 1.353 . S
C158 H128 0.930 . S
C158 N159 1.330 . S
C158 C160 1.446 . S
N159 Co118 2.151 . S
N159 C158 1.330 . S
N159 C163 1.418 . S
C160 H139 0.929 . S
C160 C158 1.446 . S
C160 C161 1.332 . S
C161 H141 0.931 . S
C161 C160 1.332 . S
C161 C162 1.267 . S
C162 H130 0.929 . S
C162 C161 1.267 . S
C162 C163 1.251 . S
C163 H133 0.929 . S
C163 N159 1.418 . S
C163 C162 1.251 . S
C164 H131 0.930 . S
C164 C166 1.406 . S
C164 C169 1.261 . S
C165 H132 0.930 . S
C165 N167 1.325 . S
C165 C168 1.357 . S
C166 H134 0.928 . S
C166 C164 1.406 . S
C166 N167 1.261 . S
N167 Co118 2.214 . S
N167 C165 1.325 . S
N167 C166 1.261 . S
C168 H138 0.931 . S
C168 C165 1.357 . S
C168 C169 1.312 . S
C169 H140 0.930 . S
C169 C164 1.261 . S
C169 C168 1.312 . S
C170 O142 1.214 . S
C170 O150 1.234 . S
C171 H143 0.929 . S
C171 C174 1.391 . S
C171 C176 1.391 . S
C172 H144 0.929 . S
C172 C173 1.390 . S
C172 N175 1.391 . S
C173 H145 0.930 . S
C173 C172 1.390 . S
C173 C174 1.392 . S
C174 H146 0.929 . S
C174 C171 1.391 . S
C174 C173 1.392 . S
N175 Co119 2.257 . S
N175 C172 1.391 . S
N175 C176 1.388 . S
C176 H147 0.930 . S
C176 C171 1.391 . S
C176 N175 1.388 . S
Co177 O179 2.143 . S
Co177 O185 2.074 . S
Co177 O188 2.093 . S
Co177 O201 2.097 . S
Co177 N218 2.151 . S
Co177 N226 2.214 . S
Co178 O179 2.160 . S
Co178 O184 2.058 . S
Co178 O194 2.057 . S
Co178 O209 2.037 . S
Co178 N213 2.145 . S
Co178 N234 2.257 . S
O179 Co177 2.143 . S
O179 Co178 2.160 . S
C180 O181 1.278 . S
C180 O188 1.224 . S
O181 C180 1.278 . S
C182 O183 1.245 . S
C182 O194 1.232 . S
O183 C182 1.245 . S
O184 Co178 2.058 . S
O184 C210 1.269 . S
O185 Co177 2.074 . S
O185 C210 1.257 . S
H186 C211 0.930 . S
H187 C217 0.930 . S
O188 Co177 2.093 . S
O188 C180 1.224 . S
H189 C221 0.929 . S
H190 C223 0.930 . S
H191 C224 0.930 . S
H192 C222 0.929 . S
H193 C225 0.928 . S
O194 Co178 2.057 . S
O194 C182 1.232 . S
H195 C214 0.929 . S
H196 C215 0.929 . S
H197 C227 0.931 . S
H198 C219 0.929 . S
H199 C228 0.930 . S
H200 C220 0.931 . S
O201 Co177 2.097 . S
O201 C229 1.214 . S
H202 C230 0.929 . S
H203 C231 0.929 . S
H204 C232 0.930 . S
H205 C233 0.929 . S
H206 C235 0.930 . S
H207 C212 0.930 . S
H208 C216 0.930 . S
O209 Co178 2.037 . S
O209 C229 1.234 . S
C210 O184 1.269 . S
C210 O185 1.257 . S
C211 H186 0.930 . S
C211 C214 1.388 . S
C211 C216 1.418 . S
C212 H207 0.930 . S
C212 C215 1.404 . S
C212 C216 1.353 . S
N213 Co178 2.145 . S
N213 C214 1.397 . S
N213 C215 1.334 . S
C214 H195 0.929 . S
C214 C211 1.388 . S
C214 N213 1.397 . S
C215 H196 0.929 . S
C215 C212 1.404 . S
C215 N213 1.334 . S
C216 H208 0.930 . S
C216 C211 1.418 . S
C216 C212 1.353 . S
C217 H187 0.930 . S
C217 N218 1.330 . S
C217 C219 1.446 1_455 S
N218 Co177 2.151 . S
N218 C217 1.330 . S
N218 C222 1.418 . S
C219 H198 0.929 . S
C219 C217 1.446 1_655 S
C219 C220 1.332 . S
C220 H200 0.931 . S
C220 C219 1.332 . S
C220 C221 1.267 . S
C221 H189 0.929 . S
C221 C220 1.267 . S
C221 C222 1.251 1_655 S
C222 H192 0.929 . S
C222 N218 1.418 . S
C222 C221 1.251 1_455 S
C223 H190 0.930 . S
C223 C225 1.406 . S
C223 C228 1.261 . S
C224 H191 0.930 . S
C224 N226 1.325 . S
C224 C227 1.357 . S
C225 H193 0.928 . S
C225 C223 1.406 . S
C225 N226 1.261 . S
N226 Co177 2.214 . S
N226 C224 1.325 . S
N226 C225 1.261 . S
C227 H197 0.931 . S
C227 C224 1.357 . S
C227 C228 1.312 . S
C228 H199 0.930 . S
C228 C223 1.261 . S
C228 C227 1.312 . S
C229 O201 1.214 . S
C229 O209 1.234 . S
C230 H202 0.929 . S
C230 C233 1.391 . S
C230 C235 1.391 . S
C231 H203 0.929 . S
C231 C232 1.390 . S
C231 N234 1.391 . S
C232 H204 0.930 . S
C232 C231 1.390 . S
C232 C233 1.392 . S
C233 H205 0.929 . S
C233 C230 1.391 . S
C233 C232 1.392 . S
N234 Co178 2.257 . S
N234 C231 1.391 . S
N234 C235 1.388 . S
C235 H206 0.930 . S
C235 C230 1.391 . S
C235 N234 1.388 . S
Co236 O238 2.143 . S
Co236 O244 2.074 . S
Co236 O247 2.093 . S
Co236 O260 2.097 . S
Co236 N277 2.151 . S
Co236 N285 2.214 . S
Co237 O238 2.160 . S
Co237 O243 2.058 . S
Co237 O253 2.057 . S
Co237 O268 2.037 . S
Co237 N272 2.145 . S
Co237 N293 2.257 . S
O238 Co236 2.143 . S
O238 Co237 2.160 . S
C239 O240 1.278 . S
C239 O247 1.224 . S
O240 C239 1.278 . S
C241 O242 1.245 . S
C241 O253 1.232 . S
O242 C241 1.245 . S
O243 Co237 2.058 . S
O243 C269 1.269 . S
O244 Co236 2.074 . S
O244 C269 1.257 . S
H245 C270 0.930 . S
H246 C276 0.930 . S
O247 Co236 2.093 . S
O247 C239 1.224 . S
H248 C280 0.929 . S
H249 C282 0.930 . S
H250 C283 0.930 . S
H251 C281 0.929 . S
H252 C284 0.928 . S
O253 Co237 2.057 . S
O253 C241 1.232 . S
H254 C273 0.929 . S
H255 C274 0.929 . S
H256 C286 0.931 . S
H257 C278 0.929 . S
H258 C287 0.930 . S
H259 C279 0.931 . S
O260 Co236 2.097 . S
O260 C288 1.214 . S
H261 C289 0.929 . S
H262 C290 0.929 . S
H263 C291 0.930 . S
H264 C292 0.929 . S
H265 C294 0.930 . S
H266 C271 0.930 . S
H267 C275 0.930 . S
O268 Co237 2.037 . S
O268 C288 1.234 . S
C269 O243 1.269 . S
C269 O244 1.257 . S
C270 H245 0.930 . S
C270 C273 1.388 . S
C270 C275 1.418 . S
C271 H266 0.930 . S
C271 C274 1.404 . S
C271 C275 1.353 . S
N272 Co237 2.145 . S
N272 C273 1.397 . S
N272 C274 1.334 . S
C273 H254 0.929 . S
C273 C270 1.388 . S
C273 N272 1.397 . S
C274 H255 0.929 . S
C274 C271 1.404 . S
C274 N272 1.334 . S
C275 H267 0.930 . S
C275 C270 1.418 . S
C275 C271 1.353 . S
C276 H246 0.930 . S
C276 N277 1.330 . S
C276 C278 1.446 . S
N277 Co236 2.151 . S
N277 C276 1.330 . S
N277 C281 1.418 . S
C278 H257 0.929 . S
C278 C276 1.446 . S
C278 C279 1.332 . S
C279 H259 0.931 . S
C279 C278 1.332 . S
C279 C280 1.267 . S
C280 H248 0.929 . S
C280 C279 1.267 . S
C280 C281 1.251 . S
C281 H251 0.929 . S
C281 N277 1.418 . S
C281 C280 1.251 . S
C282 H249 0.930 . S
C282 C284 1.406 . S
C282 C287 1.261 . S
C283 H250 0.930 . S
C283 N285 1.325 . S
C283 C286 1.357 . S
C284 H252 0.928 . S
C284 C282 1.406 . S
C284 N285 1.261 . S
N285 Co236 2.214 . S
N285 C283 1.325 . S
N285 C284 1.261 . S
C286 H256 0.931 . S
C286 C283 1.357 . S
C286 C287 1.312 . S
C287 H258 0.930 . S
C287 C282 1.261 . S
C287 C286 1.312 . S
C288 O260 1.214 . S
C288 O268 1.234 . S
C289 H261 0.929 . S
C289 C292 1.391 . S
C289 C294 1.391 . S
C290 H262 0.929 . S
C290 C291 1.390 . S
C290 N293 1.391 . S
C291 H263 0.930 . S
C291 C290 1.390 . S
C291 C292 1.392 . S
C292 H264 0.929 . S
C292 C289 1.391 . S
C292 C291 1.392 . S
N293 Co237 2.257 . S
N293 C290 1.391 . S
N293 C294 1.388 . S
C294 H265 0.930 . S
C294 C289 1.391 . S
C294 N293 1.388 . S
Co295 O297 2.143 . S
Co295 O303 2.074 . S
Co295 O306 2.093 . S
Co295 O319 2.097 . S
Co295 N336 2.151 . S
Co295 N344 2.214 . S
Co296 O297 2.160 . S
Co296 O302 2.058 . S
Co296 O312 2.057 . S
Co296 O327 2.037 . S
Co296 N331 2.145 . S
Co296 N352 2.257 . S
O297 Co295 2.143 . S
O297 Co296 2.160 . S
C298 O299 1.278 . S
C298 O306 1.224 . S
O299 C298 1.278 . S
C300 O301 1.245 . S
C300 O312 1.232 . S
O301 C300 1.245 . S
O302 Co296 2.058 . S
O302 C328 1.269 . S
O303 Co295 2.074 . S
O303 C328 1.257 . S
H304 C329 0.930 . S
H305 C335 0.930 . S
O306 Co295 2.093 . S
O306 C298 1.224 . S
H307 C339 0.929 . S
H308 C341 0.930 . S
H309 C342 0.930 . S
H310 C340 0.929 . S
H311 C343 0.928 . S
O312 Co296 2.057 . S
O312 C300 1.232 . S
H313 C332 0.929 . S
H314 C333 0.929 . S
H315 C345 0.931 . S
H316 C337 0.929 . S
H317 C346 0.930 . S
H318 C338 0.931 . S
O319 Co295 2.097 . S
O319 C347 1.214 . S
H320 C348 0.929 . S
H321 C349 0.929 . S
H322 C350 0.930 . S
H323 C351 0.929 . S
H324 C353 0.930 . S
H325 C330 0.930 . S
H326 C334 0.930 . S
O327 Co296 2.037 . S
O327 C347 1.234 . S
C328 O302 1.269 . S
C328 O303 1.257 . S
C329 H304 0.930 . S
C329 C332 1.388 . S
C329 C334 1.418 . S
C330 H325 0.930 . S
C330 C333 1.404 . S
C330 C334 1.353 . S
N331 Co296 2.145 . S
N331 C332 1.397 . S
N331 C333 1.334 . S
C332 H313 0.929 . S
C332 C329 1.388 . S
C332 N331 1.397 . S
C333 H314 0.929 . S
C333 C330 1.404 . S
C333 N331 1.334 . S
C334 H326 0.930 . S
C334 C329 1.418 . S
C334 C330 1.353 . S
C335 H305 0.930 . S
C335 N336 1.330 . S
C335 C337 1.446 1_455 S
N336 Co295 2.151 . S
N336 C335 1.330 . S
N336 C340 1.418 . S
C337 H316 0.929 . S
C337 C335 1.446 1_655 S
C337 C338 1.332 . S
C338 H318 0.931 . S
C338 C337 1.332 . S
C338 C339 1.267 . S
C339 H307 0.929 . S
C339 C338 1.267 . S
C339 C340 1.251 1_655 S
C340 H310 0.929 . S
C340 N336 1.418 . S
C340 C339 1.251 1_455 S
C341 H308 0.930 . S
C341 C343 1.406 . S
C341 C346 1.261 . S
C342 H309 0.930 . S
C342 N344 1.325 . S
C342 C345 1.357 . S
C343 H311 0.928 . S
C343 C341 1.406 . S
C343 N344 1.261 . S
N344 Co295 2.214 . S
N344 C342 1.325 . S
N344 C343 1.261 . S
C345 H315 0.931 . S
C345 C342 1.357 . S
C345 C346 1.312 . S
C346 H317 0.930 . S
C346 C341 1.261 . S
C346 C345 1.312 . S
C347 O319 1.214 . S
C347 O327 1.234 . S
C348 H320 0.929 . S
C348 C351 1.391 . S
C348 C353 1.391 . S
C349 H321 0.929 . S
C349 C350 1.390 . S
C349 N352 1.391 . S
C350 H322 0.930 . S
C350 C349 1.390 . S
C350 C351 1.392 . S
C351 H323 0.929 . S
C351 C348 1.391 . S
C351 C350 1.392 . S
N352 Co296 2.257 . S
N352 C349 1.391 . S
N352 C353 1.388 . S
C353 H324 0.930 . S
C353 C348 1.391 . S
C353 N352 1.388 . S
Co354 O356 2.143 . S
Co354 O362 2.074 . S
Co354 O365 2.093 . S
Co354 O378 2.097 . S
Co354 N395 2.151 . S
Co354 N403 2.214 . S
Co355 O356 2.160 . S
Co355 O361 2.058 . S
Co355 O371 2.057 . S
Co355 O386 2.037 . S
Co355 N390 2.145 . S
Co355 N411 2.257 . S
O356 Co354 2.143 . S
O356 Co355 2.160 . S
C357 O358 1.278 . S
C357 O365 1.224 . S
O358 C357 1.278 . S
C359 O360 1.245 . S
C359 O371 1.232 . S
O360 C359 1.245 . S
O361 Co355 2.058 . S
O361 C387 1.269 . S
O362 Co354 2.074 . S
O362 C387 1.257 . S
H363 C388 0.930 . S
H364 C394 0.930 . S
O365 Co354 2.093 . S
O365 C357 1.224 . S
H366 C398 0.929 . S
H367 C400 0.930 . S
H368 C401 0.930 . S
H369 C399 0.929 . S
H370 C402 0.928 . S
O371 Co355 2.057 . S
O371 C359 1.232 . S
H372 C391 0.929 . S
H373 C392 0.929 . S
H374 C404 0.931 . S
H375 C396 0.929 . S
H376 C405 0.930 . S
H377 C397 0.931 . S
O378 Co354 2.097 . S
O378 C406 1.214 . S
H379 C407 0.929 . S
H380 C408 0.929 . S
H381 C409 0.930 . S
H382 C410 0.929 . S
H383 C412 0.930 . S
H384 C389 0.930 . S
H385 C393 0.930 . S
O386 Co355 2.037 . S
O386 C406 1.234 . S
C387 O361 1.269 . S
C387 O362 1.257 . S
C388 H363 0.930 . S
C388 C391 1.388 . S
C388 C393 1.418 . S
C389 H384 0.930 . S
C389 C392 1.404 . S
C389 C393 1.353 . S
N390 Co355 2.145 . S
N390 C391 1.397 . S
N390 C392 1.334 . S
C391 H372 0.929 . S
C391 C388 1.388 . S
C391 N390 1.397 . S
C392 H373 0.929 . S
C392 C389 1.404 . S
C392 N390 1.334 . S
C393 H385 0.930 . S
C393 C388 1.418 . S
C393 C389 1.353 . S
C394 H364 0.930 . S
C394 N395 1.330 . S
C394 C396 1.446 1_545 S
N395 Co354 2.151 . S
N395 C394 1.330 . S
N395 C399 1.418 . S
C396 H375 0.929 . S
C396 C394 1.446 1_565 S
C396 C397 1.332 . S
C397 H377 0.931 . S
C397 C396 1.332 . S
C397 C398 1.267 . S
C398 H366 0.929 . S
C398 C397 1.267 . S
C398 C399 1.251 1_565 S
C399 H369 0.929 . S
C399 N395 1.418 . S
C399 C398 1.251 1_545 S
C400 H367 0.930 . S
C400 C402 1.406 . S
C400 C405 1.261 . S
C401 H368 0.930 . S
C401 N403 1.325 . S
C401 C404 1.357 . S
C402 H370 0.928 . S
C402 C400 1.406 . S
C402 N403 1.261 . S
N403 Co354 2.214 . S
N403 C401 1.325 . S
N403 C402 1.261 . S
C404 H374 0.931 . S
C404 C401 1.357 . S
C404 C405 1.312 . S
C405 H376 0.930 . S
C405 C400 1.261 . S
C405 C404 1.312 . S
C406 O378 1.214 . S
C406 O386 1.234 . S
C407 H379 0.929 . S
C407 C410 1.391 . S
C407 C412 1.391 . S
C408 H380 0.929 . S
C408 C409 1.390 . S
C408 N411 1.391 . S
C409 H381 0.930 . S
C409 C408 1.390 . S
C409 C410 1.392 . S
C410 H382 0.929 . S
C410 C407 1.391 . S
C410 C409 1.392 . S
N411 Co355 2.257 . S
N411 C408 1.391 . S
N411 C412 1.388 . S
C412 H383 0.930 . S
C412 C407 1.391 . S
C412 N411 1.388 . S
Co413 O415 2.143 . S
Co413 O421 2.074 . S
Co413 O424 2.093 . S
Co413 O437 2.097 . S
Co413 N454 2.151 . S
Co413 N462 2.214 . S
Co414 O415 2.160 . S
Co414 O420 2.058 . S
Co414 O430 2.057 . S
Co414 O445 2.037 . S
Co414 N449 2.145 . S
Co414 N470 2.257 . S
O415 Co413 2.143 . S
O415 Co414 2.160 . S
C416 O417 1.278 . S
C416 O424 1.224 . S
O417 C416 1.278 . S
C418 O419 1.245 . S
C418 O430 1.232 . S
O419 C418 1.245 . S
O420 Co414 2.058 . S
O420 C446 1.269 . S
O421 Co413 2.074 . S
O421 C446 1.257 . S
H422 C447 0.930 . S
H423 C453 0.930 . S
O424 Co413 2.093 . S
O424 C416 1.224 . S
H425 C457 0.929 . S
H426 C459 0.930 . S
H427 C460 0.930 . S
H428 C458 0.929 . S
H429 C461 0.928 . S
O430 Co414 2.057 . S
O430 C418 1.232 . S
H431 C450 0.929 . S
H432 C451 0.929 . S
H433 C463 0.931 . S
H434 C455 0.929 . S
H435 C464 0.930 . S
H436 C456 0.931 . S
O437 Co413 2.097 . S
O437 C465 1.214 . S
H438 C466 0.929 . S
H439 C467 0.929 . S
H440 C468 0.930 . S
H441 C469 0.929 . S
H442 C471 0.930 . S
H443 C448 0.930 . S
H444 C452 0.930 . S
O445 Co414 2.037 . S
O445 C465 1.234 . S
C446 O420 1.269 . S
C446 O421 1.257 . S
C447 H422 0.930 . S
C447 C450 1.388 . S
C447 C452 1.418 . S
C448 H443 0.930 . S
C448 C451 1.404 . S
C448 C452 1.353 . S
N449 Co414 2.145 . S
N449 C450 1.397 . S
N449 C451 1.334 . S
C450 H431 0.929 . S
C450 C447 1.388 . S
C450 N449 1.397 . S
C451 H432 0.929 . S
C451 C448 1.404 . S
C451 N449 1.334 . S
C452 H444 0.930 . S
C452 C447 1.418 . S
C452 C448 1.353 . S
C453 H423 0.930 . S
C453 N454 1.330 . S
C453 C455 1.446 . S
N454 Co413 2.151 . S
N454 C453 1.330 . S
N454 C458 1.418 . S
C455 H434 0.929 . S
C455 C453 1.446 . S
C455 C456 1.332 . S
C456 H436 0.931 . S
C456 C455 1.332 . S
C456 C457 1.267 . S
C457 H425 0.929 . S
C457 C456 1.267 . S
C457 C458 1.251 . S
C458 H428 0.929 . S
C458 N454 1.418 . S
C458 C457 1.251 . S
C459 H426 0.930 . S
C459 C461 1.406 . S
C459 C464 1.261 . S
C460 H427 0.930 . S
C460 N462 1.325 . S
C460 C463 1.357 . S
C461 H429 0.928 . S
C461 C459 1.406 . S
C461 N462 1.261 . S
N462 Co413 2.214 . S
N462 C460 1.325 . S
N462 C461 1.261 . S
C463 H433 0.931 . S
C463 C460 1.357 . S
C463 C464 1.312 . S
C464 H435 0.930 . S
C464 C459 1.261 . S
C464 C463 1.312 . S
C465 O437 1.214 . S
C465 O445 1.234 . S
C466 H438 0.929 . S
C466 C469 1.391 . S
C466 C471 1.391 . S
C467 H439 0.929 . S
C467 C468 1.390 . S
C467 N470 1.391 . S
C468 H440 0.930 . S
C468 C467 1.390 . S
C468 C469 1.392 . S
C469 H441 0.929 . S
C469 C466 1.391 . S
C469 C468 1.392 . S
N470 Co414 2.257 . S
N470 C467 1.391 . S
N470 C471 1.388 . S
C471 H442 0.930 . S
C471 C466 1.391 . S
C471 N470 1.388 . S
Co472 O474 2.143 . S
Co472 O480 2.074 . S
Co472 O483 2.093 . S
Co472 O496 2.097 . S
Co472 N513 2.151 . S
Co472 N521 2.214 . S
Co473 O474 2.160 . S
Co473 O479 2.058 . S
Co473 O489 2.057 . S
Co473 O504 2.037 . S
Co473 N508 2.145 . S
Co473 N529 2.257 . S
O474 Co472 2.143 . S
O474 Co473 2.160 . S
C475 O476 1.278 . S
C475 O483 1.224 . S
O476 C475 1.278 . S
C477 O478 1.245 . S
C477 O489 1.232 . S
O478 C477 1.245 . S
O479 Co473 2.058 . S
O479 C505 1.269 . S
O480 Co472 2.074 . S
O480 C505 1.257 . S
H481 C506 0.930 . S
H482 C512 0.930 . S
O483 Co472 2.093 . S
O483 C475 1.224 . S
H484 C516 0.929 . S
H485 C518 0.930 . S
H486 C519 0.930 . S
H487 C517 0.929 . S
H488 C520 0.928 . S
O489 Co473 2.057 . S
O489 C477 1.232 . S
H490 C509 0.929 . S
H491 C510 0.929 . S
H492 C522 0.931 . S
H493 C514 0.929 . S
H494 C523 0.930 . S
H495 C515 0.931 . S
O496 Co472 2.097 . S
O496 C524 1.214 . S
H497 C525 0.929 . S
H498 C526 0.929 . S
H499 C527 0.930 . S
H500 C528 0.929 . S
H501 C530 0.930 . S
H502 C507 0.930 . S
H503 C511 0.930 . S
O504 Co473 2.037 . S
O504 C524 1.234 . S
C505 O479 1.269 . S
C505 O480 1.257 . S
C506 H481 0.930 . S
C506 C509 1.388 . S
C506 C511 1.418 . S
C507 H502 0.930 . S
C507 C510 1.404 . S
C507 C511 1.353 . S
N508 Co473 2.145 . S
N508 C509 1.397 . S
N508 C510 1.334 . S
C509 H490 0.929 . S
C509 C506 1.388 . S
C509 N508 1.397 . S
C510 H491 0.929 . S
C510 C507 1.404 . S
C510 N508 1.334 . S
C511 H503 0.930 . S
C511 C506 1.418 . S
C511 C507 1.353 . S
C512 H482 0.930 . S
C512 N513 1.330 . S
C512 C514 1.446 1_565 S
N513 Co472 2.151 . S
N513 C512 1.330 . S
N513 C517 1.418 . S
C514 H493 0.929 . S
C514 C512 1.446 1_545 S
C514 C515 1.332 . S
C515 H495 0.931 . S
C515 C514 1.332 . S
C515 C516 1.267 . S
C516 H484 0.929 . S
C516 C515 1.267 . S
C516 C517 1.251 1_545 S
C517 H487 0.929 . S
C517 N513 1.418 . S
C517 C516 1.251 1_565 S
C518 H485 0.930 . S
C518 C520 1.406 . S
C518 C523 1.261 . S
C519 H486 0.930 . S
C519 N521 1.325 . S
C519 C522 1.357 . S
C520 H488 0.928 . S
C520 C518 1.406 . S
C520 N521 1.261 . S
N521 Co472 2.214 . S
N521 C519 1.325 . S
N521 C520 1.261 . S
C522 H492 0.931 . S
C522 C519 1.357 . S
C522 C523 1.312 . S
C523 H494 0.930 . S
C523 C518 1.261 . S
C523 C522 1.312 . S
C524 O496 1.214 . S
C524 O504 1.234 . S
C525 H497 0.929 . S
C525 C528 1.391 . S
C525 C530 1.391 . S
C526 H498 0.929 . S
C526 C527 1.390 . S
C526 N529 1.391 . S
C527 H499 0.930 . S
C527 C526 1.390 . S
C527 C528 1.392 . S
C528 H500 0.929 . S
C528 C525 1.391 . S
C528 C527 1.392 . S
N529 Co473 2.257 . S
N529 C526 1.391 . S
N529 C530 1.388 . S
C530 H501 0.930 . S
C530 C525 1.391 . S
C530 N529 1.388 . S
Co531 O533 2.143 . S
Co531 O539 2.074 . S
Co531 O542 2.093 . S
Co531 O555 2.097 . S
Co531 N572 2.151 . S
Co531 N580 2.214 . S
Co532 O533 2.160 . S
Co532 O538 2.058 . S
Co532 O548 2.057 . S
Co532 O563 2.037 . S
Co532 N567 2.145 . S
Co532 N588 2.257 . S
O533 Co531 2.143 . S
O533 Co532 2.160 . S
C534 O535 1.278 . S
C534 O542 1.224 . S
O535 C534 1.278 . S
C536 O537 1.245 . S
C536 O548 1.232 . S
O537 C536 1.245 . S
O538 Co532 2.058 . S
O538 C564 1.269 . S
O539 Co531 2.074 . S
O539 C564 1.257 . S
H540 C565 0.930 . S
H541 C571 0.930 . S
O542 Co531 2.093 . S
O542 C534 1.224 . S
H543 C575 0.929 . S
H544 C577 0.930 . S
H545 C578 0.930 . S
H546 C576 0.929 . S
H547 C579 0.928 . S
O548 Co532 2.057 . S
O548 C536 1.232 . S
H549 C568 0.929 . S
H550 C569 0.929 . S
H551 C581 0.931 . S
H552 C573 0.929 . S
H553 C582 0.930 . S
H554 C574 0.931 . S
O555 Co531 2.097 . S
O555 C583 1.214 . S
H556 C584 0.929 . S
H557 C585 0.929 . S
H558 C586 0.930 . S
H559 C587 0.929 . S
H560 C589 0.930 . S
H561 C566 0.930 . S
H562 C570 0.930 . S
O563 Co532 2.037 . S
O563 C583 1.234 . S
C564 O538 1.269 . S
C564 O539 1.257 . S
C565 H540 0.930 . S
C565 C568 1.388 . S
C565 C570 1.418 . S
C566 H561 0.930 . S
C566 C569 1.404 . S
C566 C570 1.353 . S
N567 Co532 2.145 . S
N567 C568 1.397 . S
N567 C569 1.334 . S
C568 H549 0.929 . S
C568 C565 1.388 . S
C568 N567 1.397 . S
C569 H550 0.929 . S
C569 C566 1.404 . S
C569 N567 1.334 . S
C570 H562 0.930 . S
C570 C565 1.418 . S
C570 C566 1.353 . S
C571 H541 0.930 . S
C571 N572 1.330 . S
C571 C573 1.446 . S
N572 Co531 2.151 . S
N572 C571 1.330 . S
N572 C576 1.418 . S
C573 H552 0.929 . S
C573 C571 1.446 . S
C573 C574 1.332 . S
C574 H554 0.931 . S
C574 C573 1.332 . S
C574 C575 1.267 . S
C575 H543 0.929 . S
C575 C574 1.267 . S
C575 C576 1.251 . S
C576 H546 0.929 . S
C576 N572 1.418 . S
C576 C575 1.251 . S
C577 H544 0.930 . S
C577 C579 1.406 . S
C577 C582 1.261 . S
C578 H545 0.930 . S
C578 N580 1.325 . S
C578 C581 1.357 . S
C579 H547 0.928 . S
C579 C577 1.406 . S
C579 N580 1.261 . S
N580 Co531 2.214 . S
N580 C578 1.325 . S
N580 C579 1.261 . S
C581 H551 0.931 . S
C581 C578 1.357 . S
C581 C582 1.312 . S
C582 H553 0.930 . S
C582 C577 1.261 . S
C582 C581 1.312 . S
C583 O555 1.214 . S
C583 O563 1.234 . S
C584 H556 0.929 . S
C584 C587 1.391 . S
C584 C589 1.391 . S
C585 H557 0.929 . S
C585 C586 1.390 . S
C585 N588 1.391 . S
C586 H558 0.930 . S
C586 C585 1.390 . S
C586 C587 1.392 . S
C587 H559 0.929 . S
C587 C584 1.391 . S
C587 C586 1.392 . S
N588 Co532 2.257 . S
N588 C585 1.391 . S
N588 C589 1.388 . S
C589 H560 0.930 . S
C589 C584 1.391 . S
C589 N588 1.388 . S
Co590 O592 2.143 . S
Co590 O598 2.074 . S
Co590 O601 2.093 . S
Co590 O614 2.097 . S
Co590 N631 2.151 . S
Co590 N639 2.214 . S
Co591 O592 2.160 . S
Co591 O597 2.058 . S
Co591 O607 2.057 . S
Co591 O622 2.037 . S
Co591 N626 2.145 . S
Co591 N647 2.257 . S
O592 Co590 2.143 . S
O592 Co591 2.160 . S
C593 O594 1.278 . S
C593 O601 1.224 . S
O594 C593 1.278 . S
C595 O596 1.245 . S
C595 O607 1.232 . S
O596 C595 1.245 . S
O597 Co591 2.058 . S
O597 C623 1.269 . S
O598 Co590 2.074 . S
O598 C623 1.257 . S
H599 C624 0.930 . S
H600 C630 0.930 . S
O601 Co590 2.093 . S
O601 C593 1.224 . S
H602 C634 0.929 . S
H603 C636 0.930 . S
H604 C637 0.930 . S
H605 C635 0.929 . S
H606 C638 0.928 . S
O607 Co591 2.057 . S
O607 C595 1.232 . S
H608 C627 0.929 . S
H609 C628 0.929 . S
H610 C640 0.931 . S
H611 C632 0.929 . S
H612 C641 0.930 . S
H613 C633 0.931 . S
O614 Co590 2.097 . S
O614 C642 1.214 . S
H615 C643 0.929 . S
H616 C644 0.929 . S
H617 C645 0.930 . S
H618 C646 0.929 . S
H619 C648 0.930 . S
H620 C625 0.930 . S
H621 C629 0.930 . S
O622 Co591 2.037 . S
O622 C642 1.234 . S
C623 O597 1.269 . S
C623 O598 1.257 . S
C624 H599 0.930 . S
C624 C627 1.388 . S
C624 C629 1.418 . S
C625 H620 0.930 . S
C625 C628 1.404 . S
C625 C629 1.353 . S
N626 Co591 2.145 . S
N626 C627 1.397 . S
N626 C628 1.334 . S
C627 H608 0.929 . S
C627 C624 1.388 . S
C627 N626 1.397 . S
C628 H609 0.929 . S
C628 C625 1.404 . S
C628 N626 1.334 . S
C629 H621 0.930 . S
C629 C624 1.418 . S
C629 C625 1.353 . S
C630 H600 0.930 . S
C630 N631 1.330 . S
C630 C632 1.446 . S
N631 Co590 2.151 . S
N631 C630 1.330 . S
N631 C635 1.418 . S
C632 H611 0.929 . S
C632 C630 1.446 . S
C632 C633 1.332 . S
C633 H613 0.931 . S
C633 C632 1.332 . S
C633 C634 1.267 . S
C634 H602 0.929 . S
C634 C633 1.267 . S
C634 C635 1.251 . S
C635 H605 0.929 . S
C635 N631 1.418 . S
C635 C634 1.251 . S
C636 H603 0.930 . S
C636 C638 1.406 . S
C636 C641 1.261 . S
C637 H604 0.930 . S
C637 N639 1.325 . S
C637 C640 1.357 . S
C638 H606 0.928 . S
C638 C636 1.406 . S
C638 N639 1.261 . S
N639 Co590 2.214 . S
N639 C637 1.325 . S
N639 C638 1.261 . S
C640 H610 0.931 . S
C640 C637 1.357 . S
C640 C641 1.312 . S
C641 H612 0.930 . S
C641 C636 1.261 . S
C641 C640 1.312 . S
C642 O614 1.214 . S
C642 O622 1.234 . S
C643 H615 0.929 . S
C643 C646 1.391 . S
C643 C648 1.391 . S
C644 H616 0.929 . S
C644 C645 1.390 . S
C644 N647 1.391 . S
C645 H617 0.930 . S
C645 C644 1.390 . S
C645 C646 1.392 . S
C646 H618 0.929 . S
C646 C643 1.391 . S
C646 C645 1.392 . S
N647 Co591 2.257 . S
N647 C644 1.391 . S
N647 C648 1.388 . S
C648 H619 0.930 . S
C648 C643 1.391 . S
C648 N647 1.388 . S
Co649 O651 2.143 . S
Co649 O657 2.074 . S
Co649 O660 2.093 . S
Co649 O673 2.097 . S
Co649 N690 2.151 . S
Co649 N698 2.214 . S
Co650 O651 2.160 . S
Co650 O656 2.058 . S
Co650 O666 2.057 . S
Co650 O681 2.037 . S
Co650 N685 2.145 . S
Co650 N706 2.257 . S
O651 Co649 2.143 . S
O651 Co650 2.160 . S
C652 O653 1.278 . S
C652 O660 1.224 . S
O653 C652 1.278 . S
C654 O655 1.245 . S
C654 O666 1.232 . S
O655 C654 1.245 . S
O656 Co650 2.058 . S
O656 C682 1.269 . S
O657 Co649 2.074 . S
O657 C682 1.257 . S
H658 C683 0.930 . S
H659 C689 0.930 . S
O660 Co649 2.093 . S
O660 C652 1.224 . S
H661 C693 0.929 . S
H662 C695 0.930 . S
H663 C696 0.930 . S
H664 C694 0.929 . S
H665 C697 0.928 . S
O666 Co650 2.057 . S
O666 C654 1.232 . S
H667 C686 0.929 . S
H668 C687 0.929 . S
H669 C699 0.931 . S
H670 C691 0.929 . S
H671 C700 0.930 . S
H672 C692 0.931 . S
O673 Co649 2.097 . S
O673 C701 1.214 . S
H674 C702 0.929 . S
H675 C703 0.929 . S
H676 C704 0.930 . S
H677 C705 0.929 . S
H678 C707 0.930 . S
H679 C684 0.930 . S
H680 C688 0.930 . S
O681 Co650 2.037 . S
O681 C701 1.234 . S
C682 O656 1.269 . S
C682 O657 1.257 . S
C683 H658 0.930 . S
C683 C686 1.388 . S
C683 C688 1.418 . S
C684 H679 0.930 . S
C684 C687 1.404 . S
C684 C688 1.353 . S
N685 Co650 2.145 . S
N685 C686 1.397 . S
N685 C687 1.334 . S
C686 H667 0.929 . S
C686 C683 1.388 . S
C686 N685 1.397 . S
C687 H668 0.929 . S
C687 C684 1.404 . S
C687 N685 1.334 . S
C688 H680 0.930 . S
C688 C683 1.418 . S
C688 C684 1.353 . S
C689 H659 0.930 . S
C689 N690 1.330 . S
C689 C691 1.446 1_655 S
N690 Co649 2.151 . S
N690 C689 1.330 . S
N690 C694 1.418 . S
C691 H670 0.929 . S
C691 C689 1.446 1_455 S
C691 C692 1.332 . S
C692 H672 0.931 . S
C692 C691 1.332 . S
C692 C693 1.267 . S
C693 H661 0.929 . S
C693 C692 1.267 . S
C693 C694 1.251 1_455 S
C694 H664 0.929 . S
C694 N690 1.418 . S
C694 C693 1.251 1_655 S
C695 H662 0.930 . S
C695 C697 1.406 . S
C695 C700 1.261 . S
C696 H663 0.930 . S
C696 N698 1.325 . S
C696 C699 1.357 . S
C697 H665 0.928 . S
C697 C695 1.406 . S
C697 N698 1.261 . S
N698 Co649 2.214 . S
N698 C696 1.325 . S
N698 C697 1.261 . S
C699 H669 0.931 . S
C699 C696 1.357 . S
C699 C700 1.312 . S
C700 H671 0.930 . S
C700 C695 1.261 . S
C700 C699 1.312 . S
C701 O673 1.214 . S
C701 O681 1.234 . S
C702 H674 0.929 . S
C702 C705 1.391 . S
C702 C707 1.391 . S
C703 H675 0.929 . S
C703 C704 1.390 . S
C703 N706 1.391 . S
C704 H676 0.930 . S
C704 C703 1.390 . S
C704 C705 1.392 . S
C705 H677 0.929 . S
C705 C702 1.391 . S
C705 C704 1.392 . S
N706 Co650 2.257 . S
N706 C703 1.391 . S
N706 C707 1.388 . S
C707 H678 0.930 . S
C707 C702 1.391 . S
C707 N706 1.388 . S
Co708 O710 2.143 . S
Co708 O716 2.074 . S
Co708 O719 2.093 . S
Co708 O732 2.097 . S
Co708 N749 2.151 . S
Co708 N757 2.214 . S
Co709 O710 2.160 . S
Co709 O715 2.058 . S
Co709 O725 2.057 . S
Co709 O740 2.037 . S
Co709 N744 2.145 . S
Co709 N765 2.257 . S
O710 Co708 2.143 . S
O710 Co709 2.160 . S
C711 O712 1.278 . S
C711 O719 1.224 . S
O712 C711 1.278 . S
C713 O714 1.245 . S
C713 O725 1.232 . S
O714 C713 1.245 . S
O715 Co709 2.058 . S
O715 C741 1.269 . S
O716 Co708 2.074 . S
O716 C741 1.257 . S
H717 C742 0.930 . S
H718 C748 0.930 . S
O719 Co708 2.093 . S
O719 C711 1.224 . S
H720 C752 0.929 . S
H721 C754 0.930 . S
H722 C755 0.930 . S
H723 C753 0.929 . S
H724 C756 0.928 . S
O725 Co709 2.057 . S
O725 C713 1.232 . S
H726 C745 0.929 . S
H727 C746 0.929 . S
H728 C758 0.931 . S
H729 C750 0.929 . S
H730 C759 0.930 . S
H731 C751 0.931 . S
O732 Co708 2.097 . S
O732 C760 1.214 . S
H733 C761 0.929 . S
H734 C762 0.929 . S
H735 C763 0.930 . S
H736 C764 0.929 . S
H737 C766 0.930 . S
H738 C743 0.930 . S
H739 C747 0.930 . S
O740 Co709 2.037 . S
O740 C760 1.234 . S
C741 O715 1.269 . S
C741 O716 1.257 . S
C742 H717 0.930 . S
C742 C745 1.388 . S
C742 C747 1.418 . S
C743 H738 0.930 . S
C743 C746 1.404 . S
C743 C747 1.353 . S
N744 Co709 2.145 . S
N744 C745 1.397 . S
N744 C746 1.334 . S
C745 H726 0.929 . S
C745 C742 1.388 . S
C745 N744 1.397 . S
C746 H727 0.929 . S
C746 C743 1.404 . S
C746 N744 1.334 . S
C747 H739 0.930 . S
C747 C742 1.418 . S
C747 C743 1.353 . S
C748 H718 0.930 . S
C748 N749 1.330 . S
C748 C750 1.446 . S
N749 Co708 2.151 . S
N749 C748 1.330 . S
N749 C753 1.418 . S
C750 H729 0.929 . S
C750 C748 1.446 . S
C750 C751 1.332 . S
C751 H731 0.931 . S
C751 C750 1.332 . S
C751 C752 1.267 . S
C752 H720 0.929 . S
C752 C751 1.267 . S
C752 C753 1.251 . S
C753 H723 0.929 . S
C753 N749 1.418 . S
C753 C752 1.251 . S
C754 H721 0.930 . S
C754 C756 1.406 . S
C754 C759 1.261 . S
C755 H722 0.930 . S
C755 N757 1.325 . S
C755 C758 1.357 . S
C756 H724 0.928 . S
C756 C754 1.406 . S
C756 N757 1.261 . S
N757 Co708 2.214 . S
N757 C755 1.325 . S
N757 C756 1.261 . S
C758 H728 0.931 . S
C758 C755 1.357 . S
C758 C759 1.312 . S
C759 H730 0.930 . S
C759 C754 1.261 . S
C759 C758 1.312 . S
C760 O732 1.214 . S
C760 O740 1.234 . S
C761 H733 0.929 . S
C761 C764 1.391 . S
C761 C766 1.391 . S
C762 H734 0.929 . S
C762 C763 1.390 . S
C762 N765 1.391 . S
C763 H735 0.930 . S
C763 C762 1.390 . S
C763 C764 1.392 . S
C764 H736 0.929 . S
C764 C761 1.391 . S
C764 C763 1.392 . S
N765 Co709 2.257 . S
N765 C762 1.391 . S
N765 C766 1.388 . S
C766 H737 0.930 . S
C766 C761 1.391 . S
C766 N765 1.388 . S
Co767 O769 2.143 . S
Co767 O775 2.074 . S
Co767 O778 2.093 . S
Co767 O791 2.097 . S
Co767 N808 2.151 . S
Co767 N816 2.214 . S
Co768 O769 2.160 . S
Co768 O774 2.058 . S
Co768 O784 2.057 . S
Co768 O799 2.037 . S
Co768 N803 2.145 . S
Co768 N824 2.257 . S
O769 Co767 2.143 . S
O769 Co768 2.160 . S
C770 O771 1.278 . S
C770 O778 1.224 . S
O771 C770 1.278 . S
C772 O773 1.245 . S
C772 O784 1.232 . S
O773 C772 1.245 . S
O774 Co768 2.058 . S
O774 C800 1.269 . S
O775 Co767 2.074 . S
O775 C800 1.257 . S
H776 C801 0.930 . S
H777 C807 0.930 . S
O778 Co767 2.093 . S
O778 C770 1.224 . S
H779 C811 0.929 . S
H780 C813 0.930 . S
H781 C814 0.930 . S
H782 C812 0.929 . S
H783 C815 0.928 . S
O784 Co768 2.057 . S
O784 C772 1.232 . S
H785 C804 0.929 . S
H786 C805 0.929 . S
H787 C817 0.931 . S
H788 C809 0.929 . S
H789 C818 0.930 . S
H790 C810 0.931 . S
O791 Co767 2.097 . S
O791 C819 1.214 . S
H792 C820 0.929 . S
H793 C821 0.929 . S
H794 C822 0.930 . S
H795 C823 0.929 . S
H796 C825 0.930 . S
H797 C802 0.930 . S
H798 C806 0.930 . S
O799 Co768 2.037 . S
O799 C819 1.234 . S
C800 O774 1.269 . S
C800 O775 1.257 . S
C801 H776 0.930 . S
C801 C804 1.388 . S
C801 C806 1.418 . S
C802 H797 0.930 . S
C802 C805 1.404 . S
C802 C806 1.353 . S
N803 Co768 2.145 . S
N803 C804 1.397 . S
N803 C805 1.334 . S
C804 H785 0.929 . S
C804 C801 1.388 . S
C804 N803 1.397 . S
C805 H786 0.929 . S
C805 C802 1.404 . S
C805 N803 1.334 . S
C806 H798 0.930 . S
C806 C801 1.418 . S
C806 C802 1.353 . S
C807 H777 0.930 . S
C807 N808 1.330 . S
C807 C809 1.446 1_655 S
N808 Co767 2.151 . S
N808 C807 1.330 . S
N808 C812 1.418 . S
C809 H788 0.929 . S
C809 C807 1.446 1_455 S
C809 C810 1.332 . S
C810 H790 0.931 . S
C810 C809 1.332 . S
C810 C811 1.267 . S
C811 H779 0.929 . S
C811 C810 1.267 . S
C811 C812 1.251 1_455 S
C812 H782 0.929 . S
C812 N808 1.418 . S
C812 C811 1.251 1_655 S
C813 H780 0.930 . S
C813 C815 1.406 . S
C813 C818 1.261 . S
C814 H781 0.930 . S
C814 N816 1.325 . S
C814 C817 1.357 . S
C815 H783 0.928 . S
C815 C813 1.406 . S
C815 N816 1.261 . S
N816 Co767 2.214 . S
N816 C814 1.325 . S
N816 C815 1.261 . S
C817 H787 0.931 . S
C817 C814 1.357 . S
C817 C818 1.312 . S
C818 H789 0.930 . S
C818 C813 1.261 . S
C818 C817 1.312 . S
C819 O791 1.214 . S
C819 O799 1.234 . S
C820 H792 0.929 . S
C820 C823 1.391 . S
C820 C825 1.391 . S
C821 H793 0.929 . S
C821 C822 1.390 . S
C821 N824 1.391 . S
C822 H794 0.930 . S
C822 C821 1.390 . S
C822 C823 1.392 . S
C823 H795 0.929 . S
C823 C820 1.391 . S
C823 C822 1.392 . S
N824 Co768 2.257 . S
N824 C821 1.391 . S
N824 C825 1.388 . S
C825 H796 0.930 . S
C825 C820 1.391 . S
C825 N824 1.388 . S
Co826 O828 2.143 . S
Co826 O834 2.074 . S
Co826 O837 2.093 . S
Co826 O850 2.097 . S
Co826 N867 2.151 . S
Co826 N875 2.214 . S
Co827 O828 2.160 . S
Co827 O833 2.058 . S
Co827 O843 2.057 . S
Co827 O858 2.037 . S
Co827 N862 2.145 . S
Co827 N883 2.257 . S
O828 Co826 2.143 . S
O828 Co827 2.160 . S
C829 O830 1.278 . S
C829 O837 1.224 . S
O830 C829 1.278 . S
C831 O832 1.245 . S
C831 O843 1.232 . S
O832 C831 1.245 . S
O833 Co827 2.058 . S
O833 C859 1.269 . S
O834 Co826 2.074 . S
O834 C859 1.257 . S
H835 C860 0.930 . S
H836 C866 0.930 . S
O837 Co826 2.093 . S
O837 C829 1.224 . S
H838 C870 0.929 . S
H839 C872 0.930 . S
H840 C873 0.930 . S
H841 C871 0.929 . S
H842 C874 0.928 . S
O843 Co827 2.057 . S
O843 C831 1.232 . S
H844 C863 0.929 . S
H845 C864 0.929 . S
H846 C876 0.931 . S
H847 C868 0.929 . S
H848 C877 0.930 . S
H849 C869 0.931 . S
O850 Co826 2.097 . S
O850 C878 1.214 . S
H851 C879 0.929 . S
H852 C880 0.929 . S
H853 C881 0.930 . S
H854 C882 0.929 . S
H855 C884 0.930 . S
H856 C861 0.930 . S
H857 C865 0.930 . S
O858 Co827 2.037 . S
O858 C878 1.234 . S
C859 O833 1.269 . S
C859 O834 1.257 . S
C860 H835 0.930 . S
C860 C863 1.388 . S
C860 C865 1.418 . S
C861 H856 0.930 . S
C861 C864 1.404 . S
C861 C865 1.353 . S
N862 Co827 2.145 . S
N862 C863 1.397 . S
N862 C864 1.334 . S
C863 H844 0.929 . S
C863 C860 1.388 . S
C863 N862 1.397 . S
C864 H845 0.929 . S
C864 C861 1.404 . S
C864 N862 1.334 . S
C865 H857 0.930 . S
C865 C860 1.418 . S
C865 C861 1.353 . S
C866 H836 0.930 . S
C866 N867 1.330 . S
C866 C868 1.446 1_565 S
N867 Co826 2.151 . S
N867 C866 1.330 . S
N867 C871 1.418 . S
C868 H847 0.929 . S
C868 C866 1.446 1_545 S
C868 C869 1.332 . S
C869 H849 0.931 . S
C869 C868 1.332 . S
C869 C870 1.267 . S
C870 H838 0.929 . S
C870 C869 1.267 . S
C870 C871 1.251 1_545 S
C871 H841 0.929 . S
C871 N867 1.418 . S
C871 C870 1.251 1_565 S
C872 H839 0.930 . S
C872 C874 1.406 . S
C872 C877 1.261 . S
C873 H840 0.930 . S
C873 N875 1.325 . S
C873 C876 1.357 . S
C874 H842 0.928 . S
C874 C872 1.406 . S
C874 N875 1.261 . S
N875 Co826 2.214 . S
N875 C873 1.325 . S
N875 C874 1.261 . S
C876 H846 0.931 . S
C876 C873 1.357 . S
C876 C877 1.312 . S
C877 H848 0.930 . S
C877 C872 1.261 . S
C877 C876 1.312 . S
C878 O850 1.214 . S
C878 O858 1.234 . S
C879 H851 0.929 . S
C879 C882 1.391 . S
C879 C884 1.391 . S
C880 H852 0.929 . S
C880 C881 1.390 . S
C880 N883 1.391 . S
C881 H853 0.930 . S
C881 C880 1.390 . S
C881 C882 1.392 . S
C882 H854 0.929 . S
C882 C879 1.391 . S
C882 C881 1.392 . S
N883 Co827 2.257 . S
N883 C880 1.391 . S
N883 C884 1.388 . S
C884 H855 0.930 . S
C884 C879 1.391 . S
C884 N883 1.388 . S
Co885 O887 2.143 . S
Co885 O893 2.074 . S
Co885 O896 2.093 . S
Co885 O909 2.097 . S
Co885 N926 2.151 . S
Co885 N934 2.214 . S
Co886 O887 2.160 . S
Co886 O892 2.058 . S
Co886 O902 2.057 . S
Co886 O917 2.037 . S
Co886 N921 2.145 . S
Co886 N942 2.257 . S
O887 Co885 2.143 . S
O887 Co886 2.160 . S
C888 O889 1.278 . S
C888 O896 1.224 . S
O889 C888 1.278 . S
C890 O891 1.245 . S
C890 O902 1.232 . S
O891 C890 1.245 . S
O892 Co886 2.058 . S
O892 C918 1.269 . S
O893 Co885 2.074 . S
O893 C918 1.257 . S
H894 C919 0.930 . S
H895 C925 0.930 . S
O896 Co885 2.093 . S
O896 C888 1.224 . S
H897 C929 0.929 . S
H898 C931 0.930 . S
H899 C932 0.930 . S
H900 C930 0.929 . S
H901 C933 0.928 . S
O902 Co886 2.057 . S
O902 C890 1.232 . S
H903 C922 0.929 . S
H904 C923 0.929 . S
H905 C935 0.931 . S
H906 C927 0.929 . S
H907 C936 0.930 . S
H908 C928 0.931 . S
O909 Co885 2.097 . S
O909 C937 1.214 . S
H910 C938 0.929 . S
H911 C939 0.929 . S
H912 C940 0.930 . S
H913 C941 0.929 . S
H914 C943 0.930 . S
H915 C920 0.930 . S
H916 C924 0.930 . S
O917 Co886 2.037 . S
O917 C937 1.234 . S
C918 O892 1.269 . S
C918 O893 1.257 . S
C919 H894 0.930 . S
C919 C922 1.388 . S
C919 C924 1.418 . S
C920 H915 0.930 . S
C920 C923 1.404 . S
C920 C924 1.353 . S
N921 Co886 2.145 . S
N921 C922 1.397 . S
N921 C923 1.334 . S
C922 H903 0.929 . S
C922 C919 1.388 . S
C922 N921 1.397 . S
C923 H904 0.929 . S
C923 C920 1.404 . S
C923 N921 1.334 . S
C924 H916 0.930 . S
C924 C919 1.418 . S
C924 C920 1.353 . S
C925 H895 0.930 . S
C925 N926 1.330 . S
C925 C927 1.446 . S
N926 Co885 2.151 . S
N926 C925 1.330 . S
N926 C930 1.418 . S
C927 H906 0.929 . S
C927 C925 1.446 . S
C927 C928 1.332 . S
C928 H908 0.931 . S
C928 C927 1.332 . S
C928 C929 1.267 . S
C929 H897 0.929 . S
C929 C928 1.267 . S
C929 C930 1.251 . S
C930 H900 0.929 . S
C930 N926 1.418 . S
C930 C929 1.251 . S
C931 H898 0.930 . S
C931 C933 1.406 . S
C931 C936 1.261 . S
C932 H899 0.930 . S
C932 N934 1.325 . S
C932 C935 1.357 . S
C933 H901 0.928 . S
C933 C931 1.406 . S
C933 N934 1.261 . S
N934 Co885 2.214 . S
N934 C932 1.325 . S
N934 C933 1.261 . S
C935 H905 0.931 . S
C935 C932 1.357 . S
C935 C936 1.312 . S
C936 H907 0.930 . S
C936 C931 1.261 . S
C936 C935 1.312 . S
C937 O909 1.214 . S
C937 O917 1.234 . S
C938 H910 0.929 . S
C938 C941 1.391 . S
C938 C943 1.391 . S
C939 H911 0.929 . S
C939 C940 1.390 . S
C939 N942 1.391 . S
C940 H912 0.930 . S
C940 C939 1.390 . S
C940 C941 1.392 . S
C941 H913 0.929 . S
C941 C938 1.391 . S
C941 C940 1.392 . S
N942 Co886 2.257 . S
N942 C939 1.391 . S
N942 C943 1.388 . S
C943 H914 0.930 . S
C943 C938 1.391 . S
C943 N942 1.388 . S
C944 C945 1.369 1_554 S
C944 C946 1.419 . S
C944 H948 0.930 . S
C945 C944 1.369 1_556 S
C945 C954 1.429 . S
C946 C944 1.419 . S
C946 C947 1.363 . S
C946 H949 0.929 . S
C947 C946 1.363 . S
C947 C953 1.428 1_554 S
H948 C944 0.930 . S
H949 C946 0.929 . S
S950 N951 1.613 . S
S950 N952 1.610 . S
N951 S950 1.613 . S
N951 C954 1.350 . S
N952 S950 1.610 . S
N952 C953 1.351 . S
C953 C947 1.428 1_556 S
C953 N952 1.351 . S
C953 C954 1.434 . S
C954 C945 1.429 . S
C954 N951 1.350 . S
C954 C953 1.434 . S
C955 C956 1.369 . S
C955 C957 1.419 . S
C955 H959 0.930 . S
C956 C955 1.369 . S
C956 C965 1.429 . S
C957 C955 1.419 . S
C957 C958 1.363 . S
C957 H960 0.929 . S
C958 C957 1.363 . S
C958 C964 1.428 . S
H959 C955 0.930 . S
H960 C957 0.929 . S
S961 N962 1.613 . S
S961 N963 1.610 . S
N962 S961 1.613 . S
N962 C965 1.350 . S
N963 S961 1.610 . S
N963 C964 1.351 . S
C964 C958 1.428 . S
C964 N963 1.351 . S
C964 C965 1.434 . S
C965 C956 1.429 . S
C965 N962 1.350 . S
C965 C964 1.434 . S
C966 C967 1.369 . S
C966 C968 1.419 1_556 S
C966 H970 0.930 . S
C967 C966 1.369 . S
C967 C976 1.429 . S
C968 C966 1.419 1_554 S
C968 C969 1.363 . S
C968 H971 0.929 . S
C969 C968 1.363 . S
C969 C975 1.428 . S
H970 C966 0.930 . S
H971 C968 0.929 . S
S972 N973 1.613 1_554 S
S972 N974 1.610 . S
N973 S972 1.613 1_556 S
N973 C976 1.350 . S
N974 S972 1.610 . S
N974 C975 1.351 . S
C975 C969 1.428 . S
C975 N974 1.351 . S
C975 C976 1.434 1_554 S
C976 C967 1.429 . S
C976 N973 1.350 . S
C976 C975 1.434 1_556 S
C977 C978 1.369 . S
C977 C979 1.419 . S
C977 H981 0.930 . S
C978 C977 1.369 . S
C978 C987 1.429 . S
C979 C977 1.419 . S
C979 C980 1.363 . S
C979 H982 0.929 . S
C980 C979 1.363 . S
C980 C986 1.428 . S
H981 C977 0.930 . S
H982 C979 0.929 . S
S983 N984 1.613 . S
S983 N985 1.610 . S
N984 S983 1.613 . S
N984 C987 1.350 . S
N985 S983 1.610 . S
N985 C986 1.351 . S
C986 C980 1.428 . S
C986 N985 1.351 . S
C986 C987 1.434 . S
C987 C978 1.429 . S
C987 N984 1.350 . S
C987 C986 1.434 . S
C988 C989 1.369 . S
C988 C990 1.419 1_554 S
C988 H992 0.930 . S
C989 C988 1.369 . S
C989 C998 1.429 . S
C990 C988 1.419 1_556 S
C990 C991 1.363 . S
C990 H993 0.929 . S
C991 C990 1.363 . S
C991 C997 1.428 . S
H992 C988 0.930 . S
H993 C990 0.929 . S
S994 N995 1.613 1_556 S
S994 N996 1.610 . S
N995 S994 1.613 1_554 S
N995 C998 1.350 . S
N996 S994 1.610 . S
N996 C997 1.351 . S
C997 C991 1.428 . S
C997 N996 1.351 . S
C997 C998 1.434 1_556 S
C998 C989 1.429 . S
C998 N995 1.350 . S
C998 C997 1.434 1_554 S
C999 C1000 1.369 . S
C999 C1001 1.419 . S
C999 H1003 0.930 . S
C1000 C999 1.369 . S
C1000 C1009 1.429 . S
C1001 C999 1.419 . S
C1001 C1002 1.363 . S
C1001 H1004 0.929 . S
C1002 C1001 1.363 . S
C1002 C1008 1.428 . S
H1003 C999 0.930 . S
H1004 C1001 0.929 . S
S1005 N1006 1.613 . S
S1005 N1007 1.610 . S
N1006 S1005 1.613 . S
N1006 C1009 1.350 . S
N1007 S1005 1.610 . S
N1007 C1008 1.351 . S
C1008 C1002 1.428 . S
C1008 N1007 1.351 . S
C1008 C1009 1.434 . S
C1009 C1000 1.429 . S
C1009 N1006 1.350 . S
C1009 C1008 1.434 . S
C1010 C1011 1.369 1_554 S
C1010 C1012 1.419 . S
C1010 H1014 0.930 . S
C1011 C1010 1.369 1_556 S
C1011 C1020 1.429 . S
C1012 C1010 1.419 . S
C1012 C1013 1.363 . S
C1012 H1015 0.929 . S
C1013 C1012 1.363 . S
C1013 C1019 1.428 1_554 S
H1014 C1010 0.930 . S
H1015 C1012 0.929 . S
S1016 N1017 1.613 . S
S1016 N1018 1.610 . S
N1017 S1016 1.613 . S
N1017 C1020 1.350 . S
N1018 S1016 1.610 . S
N1018 C1019 1.351 . S
C1019 C1013 1.428 1_556 S
C1019 N1018 1.351 . S
C1019 C1020 1.434 . S
C1020 C1011 1.429 . S
C1020 N1017 1.350 . S
C1020 C1019 1.434 . S
C1021 C1022 1.369 . S
C1021 C1023 1.419 . S
C1021 H1025 0.930 . S
C1022 C1021 1.369 . S
C1022 C1031 1.429 . S
C1023 C1021 1.419 . S
C1023 C1024 1.363 . S
C1023 H1026 0.929 . S
C1024 C1023 1.363 . S
C1024 C1030 1.428 . S
H1025 C1021 0.930 . S
H1026 C1023 0.929 . S
S1027 N1028 1.613 . S
S1027 N1029 1.610 . S
N1028 S1027 1.613 . S
N1028 C1031 1.350 . S
N1029 S1027 1.610 . S
N1029 C1030 1.351 . S
C1030 C1024 1.428 . S
C1030 N1029 1.351 . S
C1030 C1031 1.434 . S
C1031 C1022 1.429 . S
C1031 N1028 1.350 . S
C1031 C1030 1.434 . S
C1032 C1033 1.369 . S
C1032 C1034 1.419 . S
C1032 H1036 0.930 . S
C1033 C1032 1.369 . S
C1033 C1042 1.429 . S
C1034 C1032 1.419 . S
C1034 C1035 1.363 . S
C1034 H1037 0.929 . S
C1035 C1034 1.363 . S
C1035 C1041 1.428 . S
H1036 C1032 0.930 . S
H1037 C1034 0.929 . S
S1038 N1039 1.613 . S
S1038 N1040 1.610 . S
N1039 S1038 1.613 . S
N1039 C1042 1.350 . S
N1040 S1038 1.610 . S
N1040 C1041 1.351 . S
C1041 C1035 1.428 . S
C1041 N1040 1.351 . S
C1041 C1042 1.434 . S
C1042 C1033 1.429 . S
C1042 N1039 1.350 . S
C1042 C1041 1.434 . S
C1043 C1044 1.369 . S
C1043 C1045 1.419 . S
C1043 H1047 0.930 . S
C1044 C1043 1.369 . S
C1044 C1053 1.429 . S
C1045 C1043 1.419 . S
C1045 C1046 1.363 . S
C1045 H1048 0.929 . S
C1046 C1045 1.363 . S
C1046 C1052 1.428 . S
H1047 C1043 0.930 . S
H1048 C1045 0.929 . S
S1049 N1050 1.613 . S
S1049 N1051 1.610 . S
N1050 S1049 1.613 . S
N1050 C1053 1.350 . S
N1051 S1049 1.610 . S
N1051 C1052 1.351 . S
C1052 C1046 1.428 . S
C1052 N1051 1.351 . S
C1052 C1053 1.434 . S
C1053 C1044 1.429 . S
C1053 N1050 1.350 . S
C1053 C1052 1.434 . S
C1054 C1055 1.369 . S
C1054 C1056 1.419 . S
C1054 H1058 0.930 . S
C1055 C1054 1.369 . S
C1055 C1064 1.429 . S
C1056 C1054 1.419 . S
C1056 C1057 1.363 . S
C1056 H1059 0.929 . S
C1057 C1056 1.363 . S
C1057 C1063 1.428 . S
H1058 C1054 0.930 . S
H1059 C1056 0.929 . S
S1060 N1061 1.613 . S
S1060 N1062 1.610 . S
N1061 S1060 1.613 . S
N1061 C1064 1.350 . S
N1062 S1060 1.610 . S
N1062 C1063 1.351 . S
C1063 C1057 1.428 . S
C1063 N1062 1.351 . S
C1063 C1064 1.434 . S
C1064 C1055 1.429 . S
C1064 N1061 1.350 . S
C1064 C1063 1.434 . S
C1065 C1066 1.369 . S
C1065 C1067 1.419 . S
C1065 H1069 0.930 . S
C1066 C1065 1.369 . S
C1066 C1075 1.429 . S
C1067 C1065 1.419 . S
C1067 C1068 1.363 . S
C1067 H1070 0.929 . S
C1068 C1067 1.363 . S
C1068 C1074 1.428 . S
H1069 C1065 0.930 . S
H1070 C1067 0.929 . S
S1071 N1072 1.613 . S
S1071 N1073 1.610 . S
N1072 S1071 1.613 . S
N1072 C1075 1.350 . S
N1073 S1071 1.610 . S
N1073 C1074 1.351 . S
C1074 C1068 1.428 . S
C1074 N1073 1.351 . S
C1074 C1075 1.434 . S
C1075 C1066 1.429 . S
C1075 N1072 1.350 . S
C1075 C1074 1.434 . S
C1076 C1077 1.369 . S
C1076 C1078 1.419 . S
C1076 H1080 0.930 . S
C1077 C1076 1.369 . S
C1077 C1086 1.429 . S
C1078 C1076 1.419 . S
C1078 C1079 1.363 . S
C1078 H1081 0.929 . S
C1079 C1078 1.363 . S
C1079 C1085 1.428 . S
H1080 C1076 0.930 . S
H1081 C1078 0.929 . S
S1082 N1083 1.613 . S
S1082 N1084 1.610 . S
N1083 S1082 1.613 . S
N1083 C1086 1.350 . S
N1084 S1082 1.610 . S
N1084 C1085 1.351 . S
C1085 C1079 1.428 . S
C1085 N1084 1.351 . S
C1085 C1086 1.434 . S
C1086 C1077 1.429 . S
C1086 N1083 1.350 . S
C1086 C1085 1.434 . S
C1087 C1088 1.369 . S
C1087 C1089 1.419 . S
C1087 H1091 0.930 . S
C1088 C1087 1.369 . S
C1088 C1097 1.429 . S
C1089 C1087 1.419 . S
C1089 C1090 1.363 . S
C1089 H1092 0.929 . S
C1090 C1089 1.363 . S
C1090 C1096 1.428 . S
H1091 C1087 0.930 . S
H1092 C1089 0.929 . S
S1093 N1094 1.613 . S
S1093 N1095 1.610 . S
N1094 S1093 1.613 . S
N1094 C1097 1.350 . S
N1095 S1093 1.610 . S
N1095 C1096 1.351 . S
C1096 C1090 1.428 . S
C1096 N1095 1.351 . S
C1096 C1097 1.434 . S
C1097 C1088 1.429 . S
C1097 N1094 1.350 . S
C1097 C1096 1.434 . S
C1098 C1099 1.369 . S
C1098 C1100 1.419 . S
C1098 H1102 0.930 . S
C1099 C1098 1.369 . S
C1099 C1108 1.429 . S
C1100 C1098 1.419 . S
C1100 C1101 1.363 . S
C1100 H1103 0.929 . S
C1101 C1100 1.363 . S
C1101 C1107 1.428 . S
H1102 C1098 0.930 . S
H1103 C1100 0.929 . S
S1104 N1105 1.613 . S
S1104 N1106 1.610 . S
N1105 S1104 1.613 . S
N1105 C1108 1.350 . S
N1106 S1104 1.610 . S
N1106 C1107 1.351 . S
C1107 C1101 1.428 . S
C1107 N1106 1.351 . S
C1107 C1108 1.434 . S
C1108 C1099 1.429 . S
C1108 N1105 1.350 . S
C1108 C1107 1.434 . S
C1109 C1110 1.369 . S
C1109 C1111 1.419 . S
C1109 H1113 0.930 . S
C1110 C1109 1.369 . S
C1110 C1119 1.429 . S
C1111 C1109 1.419 . S
C1111 C1112 1.363 . S
C1111 H1114 0.929 . S
C1112 C1111 1.363 . S
C1112 C1118 1.428 . S
H1113 C1109 0.930 . S
H1114 C1111 0.929 . S
S1115 N1116 1.613 . S
S1115 N1117 1.610 . S
N1116 S1115 1.613 . S
N1116 C1119 1.350 . S
N1117 S1115 1.610 . S
N1117 C1118 1.351 . S
C1118 C1112 1.428 . S
C1118 N1117 1.351 . S
C1118 C1119 1.434 . S
C1119 C1110 1.429 . S
C1119 N1116 1.350 . S
C1119 C1118 1.434 . S
C1120 C1121 1.369 . S
C1120 C1122 1.419 . S
C1120 H1124 0.930 . S
C1121 C1120 1.369 . S
C1121 C1130 1.429 . S
C1122 C1120 1.419 . S
C1122 C1123 1.363 . S
C1122 H1125 0.929 . S
C1123 C1122 1.363 . S
C1123 C1129 1.428 . S
H1124 C1120 0.930 . S
H1125 C1122 0.929 . S
S1126 N1127 1.613 1_565 S
S1126 N1128 1.610 1_565 S
N1127 S1126 1.613 1_545 S
N1127 C1130 1.350 . S
N1128 S1126 1.610 1_545 S
N1128 C1129 1.351 . S
C1129 C1123 1.428 . S
C1129 N1128 1.351 . S
C1129 C1130 1.434 . S
C1130 C1121 1.429 . S
C1130 N1127 1.350 . S
C1130 C1129 1.434 . S
C1131 C1132 1.369 . S
C1131 C1133 1.419 . S
C1131 H1135 0.930 . S
C1132 C1131 1.369 . S
C1132 C1141 1.429 . S
C1133 C1131 1.419 . S
C1133 C1134 1.363 . S
C1133 H1136 0.929 . S
C1134 C1133 1.363 . S
C1134 C1140 1.428 . S
H1135 C1131 0.930 . S
H1136 C1133 0.929 . S
S1137 N1138 1.613 . S
S1137 N1139 1.610 . S
N1138 S1137 1.613 . S
N1138 C1141 1.350 . S
N1139 S1137 1.610 . S
N1139 C1140 1.351 . S
C1140 C1134 1.428 . S
C1140 N1139 1.351 . S
C1140 C1141 1.434 . S
C1141 C1132 1.429 . S
C1141 N1138 1.350 . S
C1141 C1140 1.434 . S
C1142 C1143 1.369 . S
C1142 C1144 1.419 . S
C1142 H1146 0.930 . S
C1143 C1142 1.369 . S
C1143 C1152 1.429 . S
C1144 C1142 1.419 . S
C1144 C1145 1.363 . S
C1144 H1147 0.929 . S
C1145 C1144 1.363 . S
C1145 C1151 1.428 . S
H1146 C1142 0.930 . S
H1147 C1144 0.929 . S
S1148 N1149 1.613 . S
S1148 N1150 1.610 . S
N1149 S1148 1.613 . S
N1149 C1152 1.350 . S
N1150 S1148 1.610 . S
N1150 C1151 1.351 . S
C1151 C1145 1.428 . S
C1151 N1150 1.351 . S
C1151 C1152 1.434 . S
C1152 C1143 1.429 . S
C1152 N1149 1.350 . S
C1152 C1151 1.434 . S
C1153 C1154 1.369 . S
C1153 C1155 1.419 . S
C1153 H1157 0.930 . S
C1154 C1153 1.369 . S
C1154 C1163 1.429 . S
C1155 C1153 1.419 . S
C1155 C1156 1.363 . S
C1155 H1158 0.929 . S
C1156 C1155 1.363 . S
C1156 C1162 1.428 . S
H1157 C1153 0.930 . S
H1158 C1155 0.929 . S
S1159 N1160 1.598 1_655 S
S1159 N1161 1.598 1_655 S
N1160 S1159 1.598 1_455 S
N1160 C1163 1.373 . S
N1161 S1159 1.598 1_455 S
N1161 C1162 1.369 . S
C1162 C1156 1.428 . S
C1162 N1161 1.369 . S
C1162 C1163 1.434 . S
C1163 C1154 1.429 . S
C1163 N1160 1.373 . S
C1163 C1162 1.434 . S
C1164 C1165 1.369 . S
C1164 C1166 1.419 . S
C1164 H1168 0.930 . S
C1165 C1164 1.369 . S
C1165 C1174 1.429 . S
C1166 C1164 1.419 . S
C1166 C1167 1.363 . S
C1166 H1169 0.929 . S
C1167 C1166 1.363 . S
C1167 C1173 1.428 . S
H1168 C1164 0.930 . S
H1169 C1166 0.929 . S
S1170 N1171 1.613 . S
S1170 N1172 1.610 . S
N1171 S1170 1.613 . S
N1171 C1174 1.350 1_545 S
N1172 S1170 1.610 . S
N1172 C1173 1.351 1_545 S
C1173 C1167 1.428 . S
C1173 N1172 1.351 1_565 S
C1173 C1174 1.434 . S
C1174 C1165 1.429 . S
C1174 N1171 1.350 1_565 S
C1174 C1173 1.434 . S
C1175 C1176 1.369 . S
C1175 C1177 1.419 . S
C1175 H1179 0.930 . S
C1176 C1175 1.369 . S
C1176 C1185 1.429 . S
C1177 C1175 1.419 . S
C1177 C1178 1.363 . S
C1177 H1180 0.929 . S
C1178 C1177 1.363 . S
C1178 C1184 1.428 . S
H1179 C1175 0.930 . S
H1180 C1177 0.929 . S
S1181 N1182 1.613 . S
S1181 N1183 1.610 . S
N1182 S1181 1.613 . S
N1182 C1185 1.350 . S
N1183 S1181 1.610 . S
N1183 C1184 1.351 . S
C1184 C1178 1.428 . S
C1184 N1183 1.351 . S
C1184 C1185 1.434 . S
C1185 C1176 1.429 . S
C1185 N1182 1.350 . S
C1185 C1184 1.434 . S
C1186 C1187 1.369 . S
C1186 C1188 1.419 . S
C1186 H1190 0.930 . S
C1187 C1186 1.369 . S
C1187 C1196 1.429 . S
C1188 C1186 1.419 . S
C1188 C1189 1.363 . S
C1188 H1191 0.929 . S
C1189 C1188 1.363 . S
C1189 C1195 1.428 . S
H1190 C1186 0.930 . S
H1191 C1188 0.929 . S
S1192 N1193 1.613 . S
S1192 N1194 1.610 . S
N1193 S1192 1.613 . S
N1193 C1196 1.350 . S
N1194 S1192 1.610 . S
N1194 C1195 1.351 . S
C1195 C1189 1.428 . S
C1195 N1194 1.351 . S
C1195 C1196 1.434 . S
C1196 C1187 1.429 . S
C1196 N1193 1.350 . S
C1196 C1195 1.434 . S
C1197 C1198 1.369 . S
C1197 C1199 1.419 . S
C1197 H1201 0.930 . S
C1198 C1197 1.369 . S
C1198 C1207 1.429 . S
C1199 C1197 1.419 . S
C1199 C1200 1.363 . S
C1199 H1202 0.929 . S
C1200 C1199 1.363 . S
C1200 C1206 1.428 . S
H1201 C1197 0.930 . S
H1202 C1199 0.929 . S
S1203 N1204 1.613 1_455 S
S1203 N1205 1.610 1_455 S
N1204 S1203 1.613 1_655 S
N1204 C1207 1.350 . S
N1205 S1203 1.610 1_655 S
N1205 C1206 1.351 . S
C1206 C1200 1.428 . S
C1206 N1205 1.351 . S
C1206 C1207 1.434 . S
C1207 C1198 1.429 . S
C1207 N1204 1.350 . S
C1207 C1206 1.434 . S
C1208 C1209 1.368 1_545 S
C1208 C1210 1.419 1_545 S
C1208 H1212 0.930 . S
C1209 C1208 1.368 1_565 S
C1209 C1218 1.438 . S
C1210 C1208 1.419 1_565 S
C1210 C1211 1.363 . S
C1210 H1213 0.929 . S
C1211 C1210 1.363 . S
C1211 C1217 1.428 . S
H1212 C1208 0.930 . S
H1213 C1210 0.929 . S
S1214 N1215 1.613 . S
S1214 N1216 1.610 . S
N1215 S1214 1.613 . S
N1215 C1218 1.350 . S
N1216 S1214 1.610 . S
N1216 C1217 1.351 . S
C1217 C1211 1.428 . S
C1217 N1216 1.351 . S
C1217 C1218 1.434 . S
C1218 C1209 1.438 . S
C1218 N1215 1.350 . S
C1218 C1217 1.434 . S
C1219 C1220 1.369 . S
C1219 C1221 1.419 . S
C1219 H1223 0.930 . S
C1220 C1219 1.369 . S
C1220 C1229 1.429 . S
C1221 C1219 1.419 . S
C1221 C1222 1.363 . S
C1221 H1224 0.929 . S
C1222 C1221 1.363 . S
C1222 C1228 1.428 . S
H1223 C1219 0.930 . S
H1224 C1221 0.929 . S
S1225 N1226 1.613 . S
S1225 N1227 1.610 . S
N1226 S1225 1.613 . S
N1226 C1229 1.350 . S
N1227 S1225 1.610 . S
N1227 C1228 1.351 . S
C1228 C1222 1.428 . S
C1228 N1227 1.351 . S
C1228 C1229 1.434 . S
C1229 C1220 1.429 . S
C1229 N1226 1.350 . S
C1229 C1228 1.434 . S
C1230 C1231 1.369 . S
C1230 C1232 1.419 . S
C1230 H1234 0.930 . S
C1231 C1230 1.369 . S
C1231 C1240 1.429 . S
C1232 C1230 1.419 . S
C1232 C1233 1.366 . S
C1232 H1235 0.929 . S
C1233 C1232 1.366 . S
C1233 C1239 1.430 . S
H1234 C1230 0.930 . S
H1235 C1232 0.929 . S
S1236 N1237 1.613 . S
S1236 N1238 1.610 . S
N1237 S1236 1.613 . S
N1237 C1240 1.350 . S
N1238 S1236 1.610 . S
N1238 C1239 1.351 . S
C1239 C1233 1.430 . S
C1239 N1238 1.351 . S
C1239 C1240 1.434 . S
C1240 C1231 1.429 . S
C1240 N1237 1.350 . S
C1240 C1239 1.434 . S
C1241 C1242 1.368 . S
C1241 C1243 1.419 . S
C1241 H1245 0.930 . S
C1242 C1241 1.368 . S
C1242 C1251 1.429 1_545 S
C1243 C1241 1.419 . S
C1243 C1244 1.362 . S
C1243 H1246 0.929 . S
C1244 C1243 1.362 . S
C1244 C1250 1.428 1_655 S
H1245 C1241 0.930 . S
H1246 C1243 0.929 . S
S1247 N1248 1.613 1_455 S
S1247 N1249 1.610 1_565 S
N1248 S1247 1.613 1_655 S
N1248 C1251 1.350 . S
N1249 S1247 1.610 1_545 S
N1249 C1250 1.351 . S
C1250 C1244 1.428 1_455 S
C1250 N1249 1.351 . S
C1250 C1251 1.434 1_445 S
C1251 C1242 1.429 1_565 S
C1251 N1248 1.350 . S
C1251 C1250 1.434 1_665 S
C1252 C1253 1.369 . S
C1252 C1254 1.419 . S
C1252 H1256 0.930 . S
C1253 C1252 1.369 . S
C1253 C1262 1.429 . S
C1254 C1252 1.419 . S
C1254 C1255 1.363 . S
C1254 H1257 0.929 . S
C1255 C1254 1.363 . S
C1255 C1261 1.428 . S
H1256 C1252 0.930 . S
H1257 C1254 0.929 . S
S1258 N1259 1.613 . S
S1258 N1260 1.610 . S
N1259 S1258 1.613 . S
N1259 C1262 1.350 . S
N1260 S1258 1.610 . S
N1260 C1261 1.351 . S
C1261 C1255 1.428 . S
C1261 N1260 1.351 . S
C1261 C1262 1.434 . S
C1262 C1253 1.429 . S
C1262 N1259 1.350 . S
C1262 C1261 1.434 . S
C1263 C1264 1.372 . S
C1263 C1265 1.419 . S
C1263 H1267 0.930 . S
C1264 C1263 1.372 . S
C1264 C1273 1.429 . S
C1265 C1263 1.419 . S
C1265 C1266 1.363 . S
C1265 H1268 0.929 . S
C1266 C1265 1.363 . S
C1266 C1272 1.428 . S
H1267 C1263 0.930 . S
H1268 C1265 0.929 . S
S1269 N1270 1.613 1_655 S
S1269 N1271 1.610 . S
N1270 S1269 1.613 1_455 S
N1270 C1273 1.350 1_455 S
N1271 S1269 1.610 . S
N1271 C1272 1.351 . S
C1272 C1266 1.428 . S
C1272 N1271 1.351 . S
C1272 C1273 1.434 . S
C1273 C1264 1.429 . S
C1273 N1270 1.350 1_655 S
C1273 C1272 1.434 . S
C1274 C1275 1.368 1_655 S
C1274 C1276 1.419 1_665 S
C1274 H1278 0.930 . S
C1275 C1274 1.368 1_455 S
C1275 C1284 1.438 . S
C1276 C1274 1.419 1_445 S
C1276 C1277 1.362 1_545 S
C1276 H1279 0.929 . S
C1277 C1276 1.362 1_565 S
C1277 C1283 1.436 . S
H1278 C1274 0.930 . S
H1279 C1276 0.929 . S
S1280 N1281 1.613 . S
S1280 N1282 1.610 . S
N1281 S1280 1.613 . S
N1281 C1284 1.350 . S
N1282 S1280 1.610 . S
N1282 C1283 1.351 . S
C1283 C1277 1.436 . S
C1283 N1282 1.351 . S
C1283 C1284 1.434 . S
C1284 C1275 1.438 . S
C1284 N1281 1.350 . S
C1284 C1283 1.434 . S
C1285 C1286 1.370 1_545 S
C1285 C1287 1.419 . S
C1285 H1289 0.930 . S
C1286 C1285 1.370 1_565 S
C1286 C1295 1.429 1_565 S
C1287 C1285 1.419 . S
C1287 C1288 1.363 . S
C1287 H1290 0.929 . S
C1288 C1287 1.363 . S
C1288 C1294 1.428 . S
H1289 C1285 0.930 . S
H1290 C1287 0.929 . S
S1291 N1292 1.613 1_545 S
S1291 N1293 1.610 . S
N1292 S1291 1.613 1_565 S
N1292 C1295 1.350 1_565 S
N1293 S1291 1.610 . S
N1293 C1294 1.351 . S
C1294 C1288 1.428 . S
C1294 N1293 1.351 . S
C1294 C1295 1.434 . S
C1295 C1286 1.429 1_545 S
C1295 N1292 1.350 1_545 S
C1295 C1294 1.434 . S
C945 C416 1.681 . S
C947 C3 1.687 . S
C956 C239 1.679 . S
C958 C62 1.689 . S
C967 C298 1.686 . S
C969 C121 1.682 . S
C978 C180 1.687 . S
C980 C357 1.682 . S
C989 C888 1.689 . S
C991 C475 1.685 . S
C1000 C711 1.691 . S
C1002 C534 1.682 . S
C1011 C593 1.679 . S
C1013 C770 1.689 . S
C1022 C652 1.690 . S
C1024 C829 1.683 . S
C1033 C170 1.277 . S
C1035 C52 1.284 . S
C1044 C111 1.276 . S
C1046 C229 1.283 . S
C1055 C288 1.280 . S
C1057 C406 1.278 . S
C1066 C465 1.278 . S
C1068 C347 1.279 . S
C1077 C524 1.282 . S
C1079 C642 1.277 . S
C1088 C583 1.283 . S
C1090 C701 1.283 . S
C1099 C878 1.283 . S
C1101 C760 1.277 . S
C1110 C819 1.283 . S
C1112 C937 1.277 . S
C1121 C387 1.464 . S
C1123 C33 1.464 . S
C1132 C92 1.463 . S
C1134 C446 1.458 . S
C1143 C151 1.462 . S
C1145 C269 1.458 . S
C1154 C210 1.467 . S
C1156 C328 1.461 . S
C1165 C505 1.463 . S
C1167 C859 1.464 . S
C1176 C564 1.466 . S
C1178 C918 1.458 . S
C1187 C623 1.458 . S
C1189 C741 1.461 . S
C1198 C682 1.460 . S
C1200 C800 1.466 . S
C1209 C5 1.428 1_565 S
C1211 C890 1.435 . S
C1220 C713 1.434 . S
C1222 C64 1.434 . S
C1231 C123 1.433 . S
C1233 C772 1.430 1_455 S
C1242 C831 1.437 1_545 S
C1244 C182 1.437 1_655 S
C1253 C536 1.436 . S
C1255 C241 1.436 . S
C1264 C300 1.431 1_655 S
C1266 C595 1.434 . S
C1275 C654 1.426 1_455 S
C1277 C359 1.427 1_565 S
C1286 C477 1.433 . S
C1288 C418 1.435 . S
