# Generated by pormake.
# Topology umh, (4)-cn, num edge types: 1
# Building blocks:
#     Node 0, Type 0, BuildingBlock: KOZSID_clean_sbu_0, # of connection points: 4
#     Node 1, Type 0, BuildingBlock: KOZSID_clean_sbu_0, # of connection points: 4
#     Node 2, Type 0, BuildingBlock: KOZSID_clean_sbu_0, # of connection points: 4
#     Node 3, Type 0, BuildingBlock: KOZSID_clean_sbu_0, # of connection points: 4
#     Node 4, Type 0, BuildingBlock: KOZSID_clean_sbu_0, # of connection points: 4
#     Node 5, Type 0, BuildingBlock: KOZSID_clean_sbu_0, # of connection points: 4
#     Node 6, Type 0, BuildingBlock: KOZSID_clean_sbu_0, # of connection points: 4
#     Node 7, Type 0, BuildingBlock: KOZSID_clean_sbu_0, # of connection points: 4
#     Node 8, Type 0, BuildingBlock: KOZSID_clean_sbu_0, # of connection points: 4
#     Node 9, Type 0, BuildingBlock: KOZSID_clean_sbu_0, # of connection points: 4
#     Node 10, Type 0, BuildingBlock: KOZSID_clean_sbu_0, # of connection points: 4
#     Node 11, Type 0, BuildingBlock: KOZSID_clean_sbu_0, # of connection points: 4
#     Node 12, Type 0, BuildingBlock: KOZSID_clean_sbu_0, # of connection points: 4
#     Node 13, Type 0, BuildingBlock: KOZSID_clean_sbu_0, # of connection points: 4
#     Node 14, Type 0, BuildingBlock: KOZSID_clean_sbu_0, # of connection points: 4
#     Node 15, Type 0, BuildingBlock: KOZSID_clean_sbu_0, # of connection points: 4
#     Edge 16, Type (0, 0), BuildingBlock: XUDNAN_clean_linker_2, # of connection points: 2
#     Edge 17, Type (0, 0), BuildingBlock: XUDNAN_clean_linker_2, # of connection points: 2
#     Edge 18, Type (0, 0), BuildingBlock: XUDNAN_clean_linker_2, # of connection points: 2
#     Edge 19, Type (0, 0), BuildingBlock: XUDNAN_clean_linker_2, # of connection points: 2
#     Edge 20, Type (0, 0), BuildingBlock: XUDNAN_clean_linker_2, # of connection points: 2
#     Edge 21, Type (0, 0), BuildingBlock: XUDNAN_clean_linker_2, # of connection points: 2
#     Edge 22, Type (0, 0), BuildingBlock: XUDNAN_clean_linker_2, # of connection points: 2
#     Edge 23, Type (0, 0), BuildingBlock: XUDNAN_clean_linker_2, # of connection points: 2
#     Edge 24, Type (0, 0), BuildingBlock: XUDNAN_clean_linker_2, # of connection points: 2
#     Edge 25, Type (0, 0), BuildingBlock: XUDNAN_clean_linker_2, # of connection points: 2
#     Edge 26, Type (0, 0), BuildingBlock: XUDNAN_clean_linker_2, # of connection points: 2
#     Edge 27, Type (0, 0), BuildingBlock: XUDNAN_clean_linker_2, # of connection points: 2
#     Edge 28, Type (0, 0), BuildingBlock: XUDNAN_clean_linker_2, # of connection points: 2
#     Edge 29, Type (0, 0), BuildingBlock: XUDNAN_clean_linker_2, # of connection points: 2
#     Edge 30, Type (0, 0), BuildingBlock: XUDNAN_clean_linker_2, # of connection points: 2
#     Edge 31, Type (0, 0), BuildingBlock: XUDNAN_clean_linker_2, # of connection points: 2
#     Edge 32, Type (0, 0), BuildingBlock: XUDNAN_clean_linker_2, # of connection points: 2
#     Edge 33, Type (0, 0), BuildingBlock: XUDNAN_clean_linker_2, # of connection points: 2
#     Edge 34, Type (0, 0), BuildingBlock: XUDNAN_clean_linker_2, # of connection points: 2
#     Edge 35, Type (0, 0), BuildingBlock: XUDNAN_clean_linker_2, # of connection points: 2
#     Edge 36, Type (0, 0), BuildingBlock: XUDNAN_clean_linker_2, # of connection points: 2
#     Edge 37, Type (0, 0), BuildingBlock: XUDNAN_clean_linker_2, # of connection points: 2
#     Edge 38, Type (0, 0), BuildingBlock: XUDNAN_clean_linker_2, # of connection points: 2
#     Edge 39, Type (0, 0), BuildingBlock: XUDNAN_clean_linker_2, # of connection points: 2
#     Edge 40, Type (0, 0), BuildingBlock: XUDNAN_clean_linker_2, # of connection points: 2
#     Edge 41, Type (0, 0), BuildingBlock: XUDNAN_clean_linker_2, # of connection points: 2
#     Edge 42, Type (0, 0), BuildingBlock: XUDNAN_clean_linker_2, # of connection points: 2
#     Edge 43, Type (0, 0), BuildingBlock: XUDNAN_clean_linker_2, # of connection points: 2
#     Edge 44, Type (0, 0), BuildingBlock: XUDNAN_clean_linker_2, # of connection points: 2
#     Edge 45, Type (0, 0), BuildingBlock: XUDNAN_clean_linker_2, # of connection points: 2
#     Edge 46, Type (0, 0), BuildingBlock: XUDNAN_clean_linker_2, # of connection points: 2
#     Edge 47, Type (0, 0), BuildingBlock: XUDNAN_clean_linker_2, # of connection points: 2
# Relax obj value: 0.072
# Max RMSD: 0.155
# Mean RMSD: 0.155
data_MOF--net-umh--node1-KOZSID_clean_sbu_0--edge1-XUDNAN_clean_linker_2
_symmetry_space_group_name_H-M    P1
_symmetry_Int_Tables_number       1
_symmetry_cell_setting            triclinic
loop_
_symmetry_equiv_pos_as_xyz
'x, y, z'
_cell_length_a     54.066868
_cell_length_b     54.228149
_cell_length_c     59.424934
_cell_angle_alpha  90.112785
_cell_angle_beta   89.937693
_cell_angle_gamma 90.035551
loop_
_atom_site_label
_atom_site_type_symbol
_atom_site_fract_x
_atom_site_fract_y
_atom_site_fract_z
_atom_type_partial_charge
C0 C 0.30569 0.08753 0.16803 0.0
C1 C 0.28516 0.07212 0.16906 0.0
C2 C 0.2851 0.05844 0.14963 0.0
C3 C 0.30524 0.06641 0.13761 0.0
N4 N 0.31789 0.08432 0.14829 0.0
Co5 Co 0.34674 0.10248 0.1361 0.0
N6 N 0.33866 0.0926 0.10489 0.0
C7 C 0.32432 0.07344 0.09881 0.0
C8 C 0.32226 0.07098 0.07589 0.0
C9 C 0.33631 0.08969 0.06706 0.0
C10 C 0.34621 0.10251 0.0852 0.0
N11 N 0.37544 0.12074 0.1239 0.0
C12 C 0.37977 0.12855 0.1026 0.0
C13 C 0.40232 0.14064 0.10124 0.0
C14 C 0.41236 0.14021 0.12252 0.0
C15 C 0.39544 0.12788 0.13566 0.0
N16 N 0.35476 0.11191 0.16741 0.0
C17 C 0.37696 0.11962 0.1748 0.0
C18 C 0.37674 0.1251 0.19741 0.0
C19 C 0.35293 0.12049 0.20452 0.0
C20 C 0.33987 0.11253 0.18579 0.0
N21 N 0.3678 0.07261 0.13913 0.0
C22 C 0.40166 0.03295 0.14514 0.0
C23 C 0.38367 0.03884 0.16151 0.0
C24 C 0.36711 0.05857 0.15824 0.0
C25 C 0.40141 0.047 0.12528 0.0
C26 C 0.38445 0.06649 0.1226 0.0
N27 N 0.32643 0.13262 0.13307 0.0
C28 C 0.32176 0.17655 0.13915 0.0
C29 C 0.29938 0.17679 0.12732 0.0
C30 C 0.29064 0.15423 0.11871 0.0
C31 C 0.30423 0.13237 0.12201 0.0
C32 C 0.33505 0.15451 0.14157 0.0
H33 H 0.29696 0.11532 0.11535 0.0
H34 H 0.35261 0.15537 0.15006 0.0
H35 H 0.35403 0.06279 0.17144 0.0
H36 H 0.38533 0.07705 0.10726 0.0
C37 C 0.30962 0.06146 0.11482 0.0
C38 C 0.31389 0.10427 0.18616 0.0
C39 C 0.36371 0.12305 0.08327 0.0
C40 C 0.39554 0.1262 0.1593 0.0
H41 H 0.27129 0.07097 0.18211 0.0
H42 H 0.27113 0.04536 0.14433 0.0
H43 H 0.31103 0.05788 0.06668 0.0
H44 H 0.33894 0.09342 0.04934 0.0
H45 H 0.41066 0.14872 0.08642 0.0
H46 H 0.42952 0.14864 0.12789 0.0
H47 H 0.3917 0.13269 0.20734 0.0
H48 H 0.34597 0.12276 0.22148 0.0
H49 H 0.38235 0.02839 0.17696 0.0
H50 H 0.41478 0.04362 0.11207 0.0
H51 H 0.32945 0.19348 0.14585 0.0
H52 H 0.27338 0.15346 0.10951 0.0
C53 C 0.43374 0.30583 0.67025 0.0
C54 C 0.44777 0.28438 0.67153 0.0
C55 C 0.46112 0.28284 0.65197 0.0
C56 C 0.45426 0.30301 0.6396 0.0
N57 N 0.43732 0.31709 0.65015 0.0
Co58 Co 0.42081 0.34653 0.63735 0.0
N59 N 0.42965 0.3367 0.60628 0.0
C60 C 0.44783 0.32103 0.60042 0.0
C61 C 0.45013 0.3183 0.57754 0.0
C62 C 0.43235 0.33331 0.56849 0.0
C63 C 0.42012 0.34431 0.58646 0.0
N64 N 0.40451 0.37602 0.62446 0.0
C65 C 0.39694 0.38032 0.60306 0.0
C66 C 0.38628 0.4035 0.60133 0.0
C67 C 0.38758 0.41403 0.6224 0.0
C68 C 0.39886 0.39674 0.63582 0.0
N69 N 0.41209 0.35605 0.66851 0.0
C70 C 0.40572 0.37883 0.67537 0.0
C71 C 0.4005 0.37973 0.69801 0.0
C72 C 0.40388 0.35606 0.70574 0.0
C73 C 0.41089 0.34193 0.68733 0.0
N74 N 0.45208 0.36567 0.63965 0.0
C75 C 0.49406 0.39696 0.64418 0.0
C76 C 0.4867 0.38083 0.66154 0.0
C77 C 0.46589 0.36542 0.65894 0.0
C78 C 0.47996 0.39649 0.62434 0.0
C79 C 0.4593 0.38083 0.6224 0.0
N80 N 0.38925 0.32825 0.63506 0.0
C81 C 0.34474 0.32845 0.63898 0.0
C82 C 0.34303 0.30455 0.63026 0.0
C83 C 0.3651 0.29243 0.62443 0.0
C84 C 0.38802 0.30468 0.62679 0.0
C85 C 0.36783 0.33978 0.64147 0.0
H86 H 0.40468 0.29526 0.62164 0.0
H87 H 0.36821 0.35817 0.64828 0.0
H88 H 0.46068 0.35363 0.67278 0.0
H89 H 0.44892 0.38137 0.60693 0.0
C90 C 0.45914 0.30626 0.61667 0.0
C91 C 0.41805 0.3157 0.68851 0.0
C92 C 0.40099 0.36327 0.58409 0.0
C93 C 0.40047 0.39731 0.65946 0.0
H94 H 0.44818 0.27083 0.68481 0.0
H95 H 0.47316 0.26791 0.64683 0.0
H96 H 0.4626 0.30619 0.56852 0.0
H97 H 0.42894 0.33601 0.55072 0.0
H98 H 0.37845 0.41191 0.58647 0.0
H99 H 0.38024 0.43175 0.62747 0.0
H100 H 0.394 0.39544 0.70759 0.0
H101 H 0.40154 0.34991 0.72293 0.0
H102 H 0.49659 0.38042 0.67736 0.0
H103 H 0.48489 0.40803 0.61018 0.0
H104 H 0.32821 0.33849 0.64373 0.0
H105 H 0.36458 0.27397 0.61745 0.0
C106 C 0.21873 0.43537 0.16316 0.0
C107 C 0.24009 0.44959 0.16161 0.0
C108 C 0.23958 0.46088 0.14108 0.0
C109 C 0.21837 0.4526 0.13099 0.0
N110 N 0.20552 0.4366 0.14379 0.0
Co111 Co 0.17545 0.41817 0.13441 0.0
N112 N 0.18137 0.42565 0.1021 0.0
C113 C 0.19618 0.4436 0.09412 0.0
C114 C 0.19645 0.44493 0.0711 0.0
C115 C 0.18065 0.42682 0.06407 0.0
C116 C 0.17159 0.41536 0.08332 0.0
N117 N 0.14552 0.39961 0.12493 0.0
C118 C 0.13851 0.39163 0.10419 0.0
C119 C 0.11581 0.37973 0.10522 0.0
C120 C 0.10826 0.38068 0.12728 0.0
C121 C 0.12673 0.39298 0.1385 0.0
N122 N 0.16968 0.4111 0.16685 0.0
C123 C 0.14807 0.40367 0.17585 0.0
C124 C 0.14927 0.40073 0.19877 0.0
C125 C 0.17307 0.40685 0.20458 0.0
C126 C 0.18518 0.41312 0.18479 0.0
N127 N 0.15496 0.44853 0.13713 0.0
C128 C 0.12041 0.48742 0.14391 0.0
C129 C 0.13938 0.48254 0.15954 0.0
C130 C 0.15641 0.46328 0.15581 0.0
C131 C 0.12017 0.47305 0.12422 0.0
C132 C 0.13743 0.45388 0.12119 0.0
N133 N 0.19509 0.38749 0.13176 0.0
C134 C 0.19977 0.344 0.14002 0.0
C135 C 0.22082 0.34247 0.12637 0.0
C136 C 0.22899 0.36413 0.11576 0.0
C137 C 0.21615 0.38647 0.11895 0.0
C138 C 0.18706 0.36643 0.14221 0.0
H139 H 0.22304 0.40281 0.11074 0.0
H140 H 0.17037 0.3665 0.1521 0.0
H141 H 0.17031 0.45986 0.16844 0.0
H142 H 0.13589 0.44282 0.10617 0.0
C143 C 0.21256 0.45585 0.10835 0.0
C144 C 0.21064 0.42287 0.18394 0.0
C145 C 0.15185 0.39677 0.08305 0.0
C146 C 0.12861 0.39601 0.16189 0.0
H147 H 0.25461 0.45171 0.17396 0.0
H148 H 0.25366 0.47273 0.13393 0.0
H149 H 0.20743 0.45706 0.06064 0.0
H150 H 0.17607 0.42284 0.04671 0.0
H151 H 0.10563 0.37154 0.09143 0.0
H152 H 0.09156 0.37283 0.13433 0.0
H153 H 0.13483 0.39416 0.20988 0.0
H154 H 0.18059 0.40688 0.22145 0.0
H155 H 0.14095 0.49334 0.17481 0.0
H156 H 0.10604 0.4758 0.11158 0.0
H157 H 0.19259 0.32772 0.1483 0.0
H158 H 0.24521 0.3638 0.10505 0.0
C159 C 0.09318 0.20506 0.67724 0.0
C160 C 0.07481 0.22183 0.68313 0.0
C161 C 0.05962 0.22416 0.66481 0.0
C162 C 0.0692 0.20846 0.64892 0.0
N163 N 0.08942 0.19638 0.65611 0.0
Co164 Co 0.10684 0.17002 0.63926 0.0
N165 N 0.09354 0.18176 0.61009 0.0
C166 C 0.07377 0.19659 0.60753 0.0
C167 C 0.06841 0.20139 0.58541 0.0
C168 C 0.08567 0.18851 0.57327 0.0
C169 C 0.10062 0.17642 0.58873 0.0
N170 N 0.12391 0.14338 0.62239 0.0
C171 C 0.12809 0.1408 0.59998 0.0
C172 C 0.14016 0.11873 0.59547 0.0
C173 C 0.14332 0.10708 0.61574 0.0
C174 C 0.13304 0.12258 0.63146 0.0
N175 N 0.12019 0.15885 0.66865 0.0
C176 C 0.13084 0.13685 0.67259 0.0
C177 C 0.14215 0.13589 0.69321 0.0
C178 C 0.13825 0.15856 0.70282 0.0
C179 C 0.12395 0.17211 0.68785 0.0
N180 N 0.07766 0.14797 0.64282 0.0
C181 C 0.03799 0.11387 0.64835 0.0
C182 C 0.04619 0.12904 0.66618 0.0
C183 C 0.06594 0.14569 0.66314 0.0
C184 C 0.04993 0.11693 0.62751 0.0
C185 C 0.06941 0.13397 0.6251 0.0
N186 N 0.13621 0.1914 0.63566 0.0
C187 C 0.18074 0.19604 0.63632 0.0
C188 C 0.17907 0.22112 0.63075 0.0
C189 C 0.15511 0.23091 0.62781 0.0
C190 C 0.13405 0.21579 0.63022 0.0
C191 C 0.15934 0.18171 0.63877 0.0
H192 H 0.11601 0.22384 0.62771 0.0
H193 H 0.16167 0.16262 0.64314 0.0
H194 H 0.07191 0.15656 0.67737 0.0
H195 H 0.07811 0.13537 0.60883 0.0
C196 C 0.06248 0.20763 0.62621 0.0
C197 C 0.11308 0.19686 0.69244 0.0
C198 C 0.11895 0.15761 0.58244 0.0
C199 C 0.13533 0.12038 0.65484 0.0
H200 H 0.07248 0.23136 0.699 0.0
H201 H 0.04398 0.23646 0.66306 0.0
H202 H 0.0539 0.2131 0.57888 0.0
H203 H 0.08666 0.18753 0.5551 0.0
H204 H 0.14585 0.1117 0.57922 0.0
H205 H 0.15271 0.08977 0.61869 0.0
H206 H 0.15368 0.12123 0.69971 0.0
H207 H 0.14607 0.16439 0.71866 0.0
H208 H 0.03749 0.12817 0.68256 0.0
H209 H 0.04482 0.10577 0.61313 0.0
H210 H 0.19853 0.1872 0.6384 0.0
H211 H 0.15247 0.25019 0.62386 0.0
C212 C 0.30769 0.43903 0.33885 0.0
C213 C 0.28559 0.45215 0.33852 0.0
C214 C 0.2819 0.46102 0.35969 0.0
C215 C 0.30158 0.45256 0.37187 0.0
N216 N 0.31785 0.43897 0.35976 0.0
Co217 Co 0.34713 0.42041 0.37181 0.0
N218 N 0.33864 0.42951 0.40363 0.0
C219 C 0.32018 0.44455 0.41049 0.0
C220 C 0.31848 0.44704 0.43338 0.0
C221 C 0.33678 0.43245 0.44174 0.0
C222 C 0.34863 0.42189 0.42335 0.0
N223 N 0.37619 0.40166 0.38402 0.0
C224 C 0.38228 0.39612 0.40562 0.0
C225 C 0.40341 0.38171 0.40666 0.0
C226 C 0.41079 0.37773 0.38493 0.0
C227 C 0.3938 0.38992 0.3719 0.0
N228 N 0.35522 0.41109 0.33994 0.0
C229 C 0.37521 0.39819 0.33294 0.0
C230 C 0.37541 0.39377 0.31021 0.0
C231 C 0.35413 0.40416 0.30224 0.0
C232 C 0.34201 0.4143 0.32063 0.0
N233 N 0.36852 0.451 0.36926 0.0
C234 C 0.39981 0.49369 0.36739 0.0
C235 C 0.40808 0.47051 0.36028 0.0
C236 C 0.39233 0.44984 0.36113 0.0
C237 C 0.37536 0.49502 0.37528 0.0
C238 C 0.3603 0.47378 0.37613 0.0
N239 N 0.32638 0.38996 0.37429 0.0
C240 C 0.32139 0.34585 0.36844 0.0
C241 C 0.29647 0.34695 0.37445 0.0
C242 C 0.28692 0.36986 0.38107 0.0
C243 C 0.3022 0.39089 0.38129 0.0
C244 C 0.33578 0.36737 0.36822 0.0
H245 H 0.29404 0.40785 0.3868 0.0
H246 H 0.35439 0.36536 0.36257 0.0
H247 H 0.40003 0.43315 0.35498 0.0
H248 H 0.34207 0.47635 0.38248 0.0
C249 C 0.30357 0.45451 0.39516 0.0
C250 C 0.31794 0.42669 0.31893 0.0
C251 C 0.3684 0.40379 0.42555 0.0
C252 C 0.39239 0.3888 0.34836 0.0
H253 H 0.2729 0.45455 0.32464 0.0
H254 H 0.26609 0.47133 0.36574 0.0
H255 H 0.30502 0.45756 0.44286 0.0
H256 H 0.34056 0.42947 0.45941 0.0
H257 H 0.41228 0.37451 0.42159 0.0
H258 H 0.42621 0.3666 0.37928 0.0
H259 H 0.38905 0.38356 0.30064 0.0
H260 H 0.34802 0.40394 0.2849 0.0
H261 H 0.42658 0.46832 0.35357 0.0
H262 H 0.36784 0.51239 0.38113 0.0
H263 H 0.32951 0.3286 0.36294 0.0
H264 H 0.26767 0.37158 0.38589 0.0
C265 C 0.09138 0.3086 0.83356 0.0
C266 C 0.07455 0.28965 0.83 0.0
C267 C 0.0609 0.28758 0.84938 0.0
C268 C 0.06999 0.30548 0.86351 0.0
N269 N 0.08838 0.31865 0.85418 0.0
Co270 Co 0.10494 0.34751 0.86779 0.0
N271 N 0.09546 0.33694 0.89851 0.0
C272 C 0.07747 0.32065 0.90356 0.0
C273 C 0.07469 0.31706 0.92625 0.0
C274 C 0.09175 0.33228 0.93613 0.0
C275 C 0.104 0.34448 0.91882 0.0
N276 N 0.12074 0.37692 0.88149 0.0
C277 C 0.12641 0.38179 0.9033 0.0
C278 C 0.13628 0.40532 0.90543 0.0
C279 C 0.13641 0.4155 0.88426 0.0
C280 C 0.12664 0.39773 0.87036 0.0
N281 N 0.11462 0.35724 0.8368 0.0
C282 C 0.12207 0.3798 0.83041 0.0
C283 C 0.13013 0.38014 0.80845 0.0
C284 C 0.12754 0.35632 0.80069 0.0
C285 C 0.11777 0.34269 0.8183 0.0
N286 N 0.07382 0.36681 0.8652 0.0
C287 C 0.03412 0.40056 0.85923 0.0
C288 C 0.04123 0.38394 0.84211 0.0
C289 C 0.06098 0.36742 0.84538 0.0
C290 C 0.04665 0.39866 0.87986 0.0
C291 C 0.06614 0.38172 0.88252 0.0
N292 N 0.13653 0.32919 0.87003 0.0
C293 C 0.18077 0.32999 0.86456 0.0
C294 C 0.18274 0.30454 0.86812 0.0
C295 C 0.16087 0.2918 0.87387 0.0
C296 C 0.13796 0.3045 0.87483 0.0
C297 C 0.15787 0.34167 0.86521 0.0
H298 H 0.12138 0.29429 0.87886 0.0
H299 H 0.1576 0.36092 0.86108 0.0
H300 H 0.06636 0.35565 0.83155 0.0
H301 H 0.07562 0.38149 0.89846 0.0
C302 C 0.06538 0.30733 0.8866 0.0
C303 C 0.11011 0.31649 0.81719 0.0
C304 C 0.12079 0.36545 0.92247 0.0
C305 C 0.12644 0.39819 0.84667 0.0
H306 H 0.07267 0.27826 0.81512 0.0
H307 H 0.04695 0.27385 0.8531 0.0
H308 H 0.06197 0.30468 0.93464 0.0
H309 H 0.09425 0.33473 0.95406 0.0
H310 H 0.14247 0.41427 0.92071 0.0
H311 H 0.14347 0.43343 0.87952 0.0
H312 H 0.13843 0.39546 0.79956 0.0
H313 H 0.13272 0.34994 0.78413 0.0
H314 H 0.03186 0.38382 0.82603 0.0
H315 H 0.04224 0.41087 0.89372 0.0
H316 H 0.19692 0.34107 0.86082 0.0
H317 H 0.16129 0.27213 0.8769 0.0
C318 C 0.21121 0.09345 0.33636 0.0
C319 C 0.23344 0.08058 0.33587 0.0
C320 C 0.23554 0.06878 0.35612 0.0
C321 C 0.21483 0.07535 0.36803 0.0
N322 N 0.19983 0.0906 0.35655 0.0
Co323 Co 0.16913 0.1061 0.36831 0.0
N324 N 0.17883 0.09975 0.39997 0.0
C325 C 0.19611 0.08352 0.40675 0.0
C326 C 0.19861 0.0825 0.42968 0.0
C327 C 0.18167 0.09893 0.43792 0.0
C328 C 0.16971 0.10916 0.41944 0.0
N329 N 0.13822 0.12119 0.38002 0.0
C330 C 0.13224 0.12864 0.40117 0.0
C331 C 0.10829 0.13785 0.40178 0.0
C332 C 0.09889 0.1355 0.38044 0.0
C333 C 0.11756 0.12515 0.36792 0.0
N334 N 0.15986 0.11256 0.3366 0.0
C335 C 0.13693 0.11739 0.32909 0.0
C336 C 0.13628 0.12133 0.30625 0.0
C337 C 0.16031 0.11876 0.29903 0.0
C338 C 0.17435 0.11347 0.31794 0.0
N339 N 0.15173 0.07383 0.36708 0.0
C340 C 0.1213 0.03125 0.36301 0.0
C341 C 0.13776 0.03833 0.34577 0.0
C342 C 0.15276 0.05943 0.34815 0.0
C343 C 0.12124 0.04574 0.38263 0.0
C344 C 0.13651 0.06668 0.38435 0.0
N345 N 0.18567 0.13862 0.36931 0.0
C346 C 0.18341 0.18232 0.36195 0.0
C347 C 0.20837 0.18579 0.3677 0.0
C348 C 0.22146 0.16486 0.37516 0.0
C349 C 0.20974 0.14155 0.37602 0.0
C350 C 0.17273 0.15889 0.36244 0.0
H351 H 0.22026 0.12586 0.38174 0.0
H352 H 0.15386 0.15728 0.35693 0.0
H353 H 0.1647 0.06449 0.33434 0.0
H354 H 0.13544 0.07742 0.39959 0.0
C355 C 0.21176 0.07217 0.39117 0.0
C356 C 0.20095 0.10757 0.31739 0.0
C357 C 0.1479 0.12525 0.42124 0.0
C358 C 0.11779 0.12241 0.3444 0.0
H359 H 0.24715 0.08003 0.32264 0.0
H360 H 0.25113 0.05807 0.36198 0.0
H361 H 0.21155 0.07151 0.43926 0.0
H362 H 0.17815 0.10247 0.45556 0.0
H363 H 0.09851 0.14522 0.4162 0.0
H364 H 0.08085 0.14133 0.37463 0.0
H365 H 0.12045 0.12647 0.29617 0.0
H366 H 0.16676 0.12048 0.28186 0.0
H367 H 0.13864 0.02809 0.33014 0.0
H368 H 0.10947 0.041 0.39672 0.0
H369 H 0.17183 0.19761 0.35694 0.0
H370 H 0.24075 0.16623 0.37985 0.0
C371 C 0.43611 0.21379 0.83854 0.0
C372 C 0.45104 0.23463 0.83714 0.0
C373 C 0.46438 0.23577 0.85672 0.0
C374 C 0.45666 0.21596 0.86921 0.0
N375 N 0.43922 0.20251 0.85867 0.0
Co376 Co 0.42145 0.17381 0.87153 0.0
N377 N 0.4301 0.18368 0.90257 0.0
C378 C 0.44878 0.19872 0.90852 0.0
C379 C 0.45067 0.20171 0.9314 0.0
C380 C 0.43208 0.18755 0.94034 0.0
C381 C 0.41984 0.17672 0.9223 0.0
N382 N 0.40385 0.14507 0.88443 0.0
C383 C 0.39567 0.14137 0.90574 0.0
C384 C 0.38425 0.11856 0.9076 0.0
C385 C 0.3856 0.10768 0.88667 0.0
C386 C 0.39773 0.1244 0.87321 0.0
N387 N 0.41294 0.16427 0.84039 0.0
C388 C 0.40585 0.14168 0.83361 0.0
C389 C 0.40064 0.14091 0.81096 0.0
C390 C 0.40473 0.16448 0.80319 0.0
C391 C 0.41214 0.17841 0.82158 0.0
N392 N 0.45215 0.15372 0.86981 0.0
C393 C 0.49451 0.12296 0.86677 0.0
C394 C 0.47886 0.12223 0.88559 0.0
C395 C 0.45814 0.13786 0.88692 0.0
C396 C 0.48848 0.1397 0.84956 0.0
C397 C 0.46722 0.15463 0.85128 0.0
N398 N 0.39056 0.19321 0.87318 0.0
C399 C 0.34637 0.1958 0.86701 0.0
C400 C 0.34629 0.22078 0.87283 0.0
C401 C 0.36882 0.2316 0.8793 0.0
C402 C 0.39062 0.21743 0.87973 0.0
C403 C 0.3686 0.1825 0.86701 0.0
H404 H 0.40763 0.22617 0.88491 0.0
H405 H 0.36801 0.16358 0.8615 0.0
H406 H 0.44686 0.13693 0.90187 0.0
H407 H 0.46287 0.16682 0.8375 0.0
C408 C 0.46103 0.21281 0.89225 0.0
C409 C 0.41983 0.2045 0.82048 0.0
C410 C 0.3999 0.15858 0.92452 0.0
C411 C 0.3997 0.12352 0.84959 0.0
H412 H 0.45204 0.24807 0.82379 0.0
H413 H 0.47695 0.25028 0.86182 0.0
H414 H 0.4634 0.21349 0.94048 0.0
H415 H 0.42812 0.18529 0.95808 0.0
H416 H 0.3759 0.11062 0.92248 0.0
H417 H 0.37777 0.09013 0.8817 0.0
H418 H 0.39356 0.12542 0.80142 0.0
H419 H 0.40249 0.17071 0.78603 0.0
H420 H 0.48285 0.10996 0.89948 0.0
H421 H 0.49993 0.14099 0.83465 0.0
H422 H 0.32951 0.18682 0.86153 0.0
H423 H 0.3696 0.25095 0.88379 0.0
C424 C 0.67842 0.90782 0.81863 0.0
C425 C 0.6655 0.89694 0.80106 0.0
C426 C 0.64333 0.88933 0.80969 0.0
C427 C 0.6439 0.89598 0.83197 0.0
N428 N 0.6648 0.90802 0.83794 0.0
Co429 Co 0.67449 0.9181 0.86921 0.0
N430 N 0.64366 0.90363 0.88268 0.0
C431 C 0.62422 0.89423 0.87122 0.0
C432 C 0.60544 0.88614 0.88489 0.0
C433 C 0.61333 0.89074 0.90634 0.0
C434 C 0.6366 0.90135 0.90455 0.0
N435 N 0.6852 0.9268 0.90053 0.0
C436 C 0.67496 0.92123 0.92075 0.0
C437 C 0.68913 0.93022 0.93847 0.0
C438 C 0.70907 0.94168 0.92914 0.0
C439 C 0.70597 0.93904 0.9064 0.0
N440 N 0.70478 0.93364 0.85571 0.0
C441 C 0.72194 0.9471 0.86679 0.0
C442 C 0.74145 0.95425 0.85368 0.0
C443 C 0.73677 0.94445 0.83302 0.0
C444 C 0.71432 0.932 0.83458 0.0
N445 N 0.65604 0.95042 0.86639 0.0
C446 C 0.62622 0.99404 0.86641 0.0
C447 C 0.6494 0.99343 0.87703 0.0
C448 C 0.66378 0.97166 0.87694 0.0
C449 C 0.61881 0.97266 0.85515 0.0
C450 C 0.63392 0.95159 0.85502 0.0
N451 N 0.69208 0.88573 0.8719 0.0
C452 C 0.72958 0.86086 0.87343 0.0
C453 C 0.71604 0.839 0.87014 0.0
C454 C 0.69027 0.84118 0.86924 0.0
C455 C 0.67892 0.86425 0.86984 0.0
C456 C 0.71728 0.88389 0.87446 0.0
H457 H 0.65934 0.8641 0.86806 0.0
H458 H 0.72847 0.90006 0.87686 0.0
H459 H 0.68099 0.97242 0.88571 0.0
H460 H 0.62701 0.93645 0.84561 0.0
C461 C 0.62561 0.89048 0.84792 0.0
C462 C 0.70375 0.91728 0.81623 0.0
C463 C 0.65159 0.90827 0.92406 0.0
C464 C 0.72185 0.94841 0.89014 0.0
H465 H 0.67169 0.89437 0.78389 0.0
H466 H 0.62881 0.87951 0.80091 0.0
H467 H 0.5884 0.8772 0.87989 0.0
H468 H 0.60334 0.88633 0.92161 0.0
H469 H 0.68536 0.92886 0.95631 0.0
H470 H 0.72398 0.95095 0.93789 0.0
H471 H 0.75807 0.96379 0.85894 0.0
H472 H 0.74939 0.94543 0.81897 0.0
H473 H 0.65625 1.00954 0.88583 0.0
H474 H 0.60145 0.97223 0.84606 0.0
H475 H 0.74955 0.86037 0.87454 0.0
H476 H 0.67859 0.82504 0.8677 0.0
C477 C 0.60864 0.68351 0.32105 0.0
C478 C 0.61416 0.67123 0.30116 0.0
C479 C 0.61971 0.64735 0.30687 0.0
C480 C 0.61721 0.64629 0.32985 0.0
N481 N 0.61055 0.66804 0.33896 0.0
Co482 Co 0.60446 0.67417 0.37151 0.0
N483 N 0.62263 0.64398 0.38062 0.0
C484 C 0.62852 0.62504 0.36697 0.0
C485 C 0.64081 0.60647 0.37795 0.0
C486 C 0.64252 0.61411 0.39993 0.0
C487 C 0.63105 0.63696 0.40117 0.0
N488 N 0.59788 0.68042 0.40393 0.0
C489 C 0.60838 0.67048 0.42249 0.0
C490 C 0.59752 0.67981 0.44197 0.0
C491 C 0.57956 0.69594 0.43529 0.0
C492 C 0.58038 0.69558 0.41225 0.0
N493 N 0.58651 0.70453 0.36244 0.0
C494 C 0.57092 0.71765 0.37547 0.0
C495 C 0.56272 0.73883 0.3654 0.0
C496 C 0.57364 0.73901 0.34464 0.0
C497 C 0.58759 0.71754 0.34298 0.0
N498 N 0.57343 0.65454 0.3697 0.0
C499 C 0.53104 0.6237 0.3661 0.0
C500 C 0.5362 0.64205 0.35 0.0
C501 C 0.55737 0.65712 0.35205 0.0
C502 C 0.54756 0.62155 0.38418 0.0
C503 C 0.56831 0.6371 0.38575 0.0
N504 N 0.63572 0.69307 0.37342 0.0
C505 C 0.6602 0.72614 0.38935 0.0
C506 C 0.68162 0.7174 0.37859 0.0
C507 C 0.67938 0.69658 0.36478 0.0
C508 C 0.65649 0.68457 0.36267 0.0
C509 C 0.63743 0.714 0.38627 0.0
H510 H 0.65582 0.668 0.35268 0.0
H511 H 0.62132 0.72129 0.39465 0.0
H512 H 0.56089 0.67069 0.33917 0.0
H513 H 0.58034 0.63475 0.40001 0.0
C514 C 0.62485 0.62681 0.34367 0.0
C515 C 0.59981 0.70919 0.32211 0.0
C516 C 0.62652 0.65034 0.42239 0.0
C517 C 0.56806 0.71205 0.39821 0.0
H518 H 0.61406 0.6787 0.28429 0.0
H519 H 0.62572 0.63277 0.29567 0.0
H520 H 0.64815 0.58964 0.37077 0.0
H521 H 0.65089 0.60387 0.41355 0.0
H522 H 0.60176 0.67519 0.45924 0.0
H523 H 0.56785 0.70714 0.44598 0.0
H524 H 0.55119 0.75308 0.37268 0.0
H525 H 0.57147 0.75339 0.33222 0.0
H526 H 0.52421 0.64453 0.33561 0.0
H527 H 0.54435 0.60813 0.39733 0.0
H528 H 0.66107 0.74223 0.40015 0.0
H529 H 0.69545 0.68903 0.35633 0.0
C530 C 0.84488 0.61351 0.81953 0.0
C531 C 0.85779 0.62108 0.80058 0.0
C532 C 0.88171 0.62548 0.80734 0.0
C533 C 0.88213 0.62027 0.82997 0.0
N534 N 0.85999 0.61288 0.83775 0.0
Co535 Co 0.85229 0.60393 0.86928 0.0
N536 N 0.8818 0.6215 0.88098 0.0
C537 C 0.90163 0.62815 0.86867 0.0
C538 C 0.91947 0.63975 0.88127 0.0
C539 C 0.9104 0.64012 0.90286 0.0
C540 C 0.88748 0.62856 0.90228 0.0
N541 N 0.84417 0.595 0.90077 0.0
C542 C 0.85273 0.60442 0.92042 0.0
C543 C 0.84244 0.59209 0.93867 0.0
C544 C 0.82717 0.57427 0.93006 0.0
C545 C 0.82895 0.57664 0.90715 0.0
N546 N 0.82294 0.58609 0.85746 0.0
C547 C 0.80993 0.56874 0.8685 0.0
C548 C 0.7894 0.5611 0.85687 0.0
C549 C 0.78954 0.57442 0.83731 0.0
C550 C 0.81055 0.58922 0.83783 0.0
N551 N 0.87256 0.57355 0.86629 0.0
C552 C 0.90567 0.53342 0.86003 0.0
C553 C 0.90539 0.54711 0.88013 0.0
C554 C 0.88882 0.5669 0.88291 0.0
C555 C 0.88806 0.53981 0.84357 0.0
C556 C 0.8718 0.55973 0.84701 0.0
N557 N 0.83264 0.63447 0.87209 0.0
C558 C 0.79396 0.65525 0.87957 0.0
C559 C 0.8039 0.67789 0.87249 0.0
C560 C 0.82873 0.6784 0.86586 0.0
C561 C 0.84263 0.65656 0.86553 0.0
C562 C 0.8087 0.6339 0.87959 0.0
H563 H 0.86133 0.65753 0.85937 0.0
H564 H 0.80055 0.6168 0.88515 0.0
H565 H 0.88975 0.57727 0.89837 0.0
H566 H 0.85895 0.56432 0.83377 0.0
C567 C 0.90109 0.62649 0.84507 0.0
C568 C 0.81882 0.60549 0.81942 0.0
C569 C 0.87264 0.62277 0.92242 0.0
C570 C 0.81407 0.56457 0.89138 0.0
H571 H 0.85067 0.62318 0.78367 0.0
H572 H 0.89666 0.63269 0.79716 0.0
H573 H 0.93668 0.64766 0.87539 0.0
H574 H 0.91973 0.64775 0.91739 0.0
H575 H 0.84598 0.59523 0.95636 0.0
H576 H 0.8157 0.56153 0.93942 0.0
H577 H 0.77505 0.54869 0.86261 0.0
H578 H 0.7753 0.57356 0.82461 0.0
H579 H 0.91851 0.54324 0.8934 0.0
H580 H 0.8869 0.52962 0.82793 0.0
H581 H 0.77482 0.65401 0.88484 0.0
H582 H 0.83707 0.69538 0.85998 0.0
C583 C 0.90656 0.84025 0.32004 0.0
C584 C 0.8951 0.8527 0.30254 0.0
C585 C 0.89028 0.8762 0.31022 0.0
C586 C 0.89872 0.87687 0.33203 0.0
N587 N 0.90851 0.85519 0.33838 0.0
Co588 Co 0.91966 0.84677 0.36919 0.0
N589 N 0.90062 0.87401 0.38297 0.0
C590 C 0.89196 0.8939 0.37207 0.0
C591 C 0.87935 0.90965 0.38616 0.0
C592 C 0.88038 0.89897 0.40715 0.0
C593 C 0.8936 0.87722 0.4047 0.0
N594 N 0.93115 0.83793 0.39967 0.0
C595 C 0.92161 0.84407 0.41994 0.0
C596 C 0.93598 0.83459 0.43724 0.0
C597 C 0.95525 0.82222 0.42725 0.0
C598 C 0.9516 0.82484 0.40452 0.0
N599 N 0.93886 0.81969 0.3556 0.0
C600 C 0.95893 0.80892 0.36461 0.0
C601 C 0.96927 0.79159 0.35056 0.0
C602 C 0.95471 0.79158 0.33162 0.0
C603 C 0.93615 0.80881 0.3353 0.0
N604 N 0.94852 0.86919 0.36588 0.0
C605 C 0.98954 0.90165 0.36133 0.0
C606 C 0.98229 0.88575 0.34374 0.0
C607 C 0.9619 0.86982 0.34632 0.0
C608 C 0.97542 0.9009 0.38119 0.0
C609 C 0.9552 0.88466 0.38312 0.0
N610 N 0.89051 0.82501 0.37252 0.0
C611 C 0.87083 0.78765 0.38575 0.0
C612 C 0.8476 0.79586 0.37817 0.0
C613 C 0.84652 0.81882 0.36755 0.0
C614 C 0.86791 0.83313 0.36521 0.0
C615 C 0.89209 0.80232 0.38247 0.0
H616 H 0.86595 0.85104 0.35768 0.0
H617 H 0.90974 0.7955 0.38822 0.0
H618 H 0.95694 0.85799 0.3324 0.0
H619 H 0.94501 0.88464 0.39873 0.0
C620 C 0.89215 0.89457 0.34837 0.0
C621 C 0.91653 0.81481 0.31911 0.0
C622 C 0.90044 0.86057 0.42324 0.0
C623 C 0.96452 0.81238 0.38744 0.0
H624 H 0.89005 0.84572 0.28617 0.0
H625 H 0.88013 0.89044 0.30145 0.0
H626 H 0.86965 0.92636 0.3816 0.0
H627 H 0.87233 0.9063 0.42244 0.0
H628 H 0.93307 0.83672 0.45516 0.0
H629 H 0.96975 0.81197 0.43559 0.0
H630 H 0.98482 0.77965 0.35402 0.0
H631 H 0.9573 0.7801 0.31688 0.0
H632 H 0.99213 0.88571 0.32788 0.0
H633 H 0.98019 0.91242 0.39543 0.0
H634 H 0.87256 0.76999 0.39408 0.0
H635 H 0.82901 0.82612 0.36174 0.0
C636 C 0.68032 0.61167 0.68648 0.0
C637 C 0.66625 0.61969 0.7046 0.0
C638 C 0.6427 0.62349 0.6966 0.0
C639 C 0.64364 0.61752 0.67412 0.0
N640 N 0.66628 0.6102 0.66759 0.0
Co641 Co 0.67594 0.60046 0.63667 0.0
N642 N 0.64683 0.61704 0.62317 0.0
C643 C 0.62618 0.6236 0.63437 0.0
C644 C 0.60869 0.63402 0.62061 0.0
C645 C 0.61888 0.6337 0.59943 0.0
C646 C 0.6421 0.62302 0.60143 0.0
N647 N 0.68609 0.59076 0.60581 0.0
C648 C 0.67854 0.59941 0.58558 0.0
C649 C 0.69037 0.58701 0.56812 0.0
C650 C 0.70549 0.56983 0.57782 0.0
C651 C 0.70215 0.57268 0.60055 0.0
N652 N 0.70486 0.58353 0.65025 0.0
C653 C 0.71882 0.56612 0.64022 0.0
C654 C 0.73871 0.55915 0.65299 0.0
C655 C 0.73717 0.57296 0.67225 0.0
C656 C 0.71599 0.58736 0.6704 0.0
N657 N 0.65603 0.56975 0.63932 0.0
C658 C 0.62452 0.52803 0.64409 0.0
C659 C 0.62528 0.54171 0.62405 0.0
C660 C 0.64106 0.56223 0.62199 0.0
C661 C 0.64036 0.53574 0.66158 0.0
C662 C 0.65586 0.55643 0.65887 0.0
N663 N 0.69519 0.63136 0.63412 0.0
C664 C 0.73383 0.65288 0.62815 0.0
C665 C 0.72291 0.67552 0.63392 0.0
C666 C 0.6977 0.67562 0.63922 0.0
C667 C 0.68431 0.65344 0.63947 0.0
C668 C 0.7196 0.63113 0.62797 0.0
H669 H 0.66523 0.65418 0.64462 0.0
H670 H 0.7285 0.61405 0.62339 0.0
H671 H 0.64086 0.57217 0.60632 0.0
H672 H 0.66747 0.56188 0.67279 0.0
C673 C 0.62544 0.6228 0.658 0.0
C674 C 0.70641 0.60396 0.68805 0.0
C675 C 0.65814 0.61688 0.58217 0.0
C676 C 0.71623 0.56131 0.61726 0.0
H677 H 0.67237 0.62246 0.72175 0.0
H678 H 0.62709 0.63079 0.70588 0.0
H679 H 0.59091 0.64153 0.62544 0.0
H680 H 0.6101 0.64022 0.58421 0.0
H681 H 0.68792 0.58968 0.55022 0.0
H682 H 0.71787 0.5572 0.56931 0.0
H683 H 0.75359 0.54687 0.6482 0.0
H684 H 0.75064 0.57269 0.68564 0.0
H685 H 0.61393 0.53649 0.60982 0.0
H686 H 0.64052 0.52617 0.67754 0.0
H687 H 0.75334 0.65195 0.62406 0.0
H688 H 0.68861 0.6926 0.64413 0.0
C689 C 0.89977 0.67155 0.18877 0.0
C690 C 0.88592 0.65808 0.20418 0.0
C691 C 0.88143 0.63548 0.19464 0.0
C692 C 0.892 0.63643 0.17368 0.0
N693 N 0.90273 0.65835 0.16943 0.0
Co694 Co 0.91568 0.66924 0.13977 0.0
N695 N 0.89807 0.64259 0.12334 0.0
C696 C 0.88879 0.62198 0.13269 0.0
C697 C 0.87814 0.60643 0.11722 0.0
C698 C 0.88119 0.61784 0.09683 0.0
C699 C 0.89356 0.63982 0.10101 0.0
N700 N 0.9287 0.68055 0.1103 0.0
C701 C 0.9213 0.67502 0.08909 0.0
C702 C 0.93605 0.68693 0.07331 0.0
C703 C 0.95354 0.69988 0.0851 0.0
C704 C 0.94848 0.6953 0.10732 0.0
N705 N 0.93352 0.69572 0.15614 0.0
C706 C 0.95356 0.7078 0.14848 0.0
C707 C 0.96343 0.7237 0.16404 0.0
C708 C 0.94866 0.72147 0.18267 0.0
C709 C 0.93025 0.70454 0.1773 0.0
N710 N 0.94476 0.64705 0.14315 0.0
C711 C 0.9845 0.61302 0.14861 0.0
C712 C 0.97205 0.61553 0.12797 0.0
C713 C 0.95255 0.63255 0.12558 0.0
C714 C 0.97674 0.62871 0.16625 0.0
C715 C 0.95694 0.64526 0.16326 0.0
N716 N 0.88643 0.69083 0.13635 0.0
C717 C 0.86776 0.73007 0.12709 0.0
C718 C 0.84382 0.72081 0.13128 0.0
C719 C 0.84198 0.69617 0.13823 0.0
C720 C 0.86328 0.68164 0.1406 0.0
C721 C 0.8887 0.71488 0.12975 0.0
H722 H 0.86085 0.66279 0.14576 0.0
H723 H 0.90676 0.72256 0.12639 0.0
H724 H 0.9435 0.63359 0.10946 0.0
H725 H 0.95133 0.65648 0.17739 0.0
C726 C 0.88694 0.61993 0.15611 0.0
C727 C 0.91098 0.69615 0.19311 0.0
C728 C 0.90271 0.65632 0.08321 0.0
C729 C 0.95997 0.70664 0.12571 0.0
H730 H 0.87893 0.66392 0.22036 0.0
H731 H 0.87009 0.62086 0.20152 0.0
H732 H 0.86864 0.58922 0.12043 0.0
H733 H 0.87527 0.61069 0.08069 0.0
H734 H 0.93474 0.68584 0.05517 0.0
H735 H 0.96795 0.71153 0.07826 0.0
H736 H 0.97903 0.73599 0.1619 0.0
H737 H 0.95138 0.73112 0.19843 0.0
H738 H 0.97678 0.60398 0.11374 0.0
H739 H 0.98584 0.62836 0.18244 0.0
H740 H 0.87041 0.74903 0.12194 0.0
H741 H 0.82411 0.68783 0.14136 0.0
C742 C 0.84497 0.90821 0.68564 0.0
C743 C 0.85913 0.90209 0.70425 0.0
C744 C 0.88305 0.89919 0.69671 0.0
C745 C 0.88224 0.90376 0.67396 0.0
N746 N 0.85929 0.90929 0.66688 0.0
Co747 Co 0.84978 0.91682 0.63552 0.0
N748 N 0.87988 0.901 0.62312 0.0
C749 C 0.90083 0.89657 0.63461 0.0
C750 C 0.91869 0.88567 0.62143 0.0
C751 C 0.90828 0.88334 0.60038 0.0
C752 C 0.88457 0.89293 0.60192 0.0
N753 N 0.83995 0.92438 0.60421 0.0
C754 C 0.84791 0.91436 0.58465 0.0
C755 C 0.83625 0.92523 0.56637 0.0
C756 C 0.82065 0.94283 0.57492 0.0
C757 C 0.8236 0.94168 0.59784 0.0
N758 N 0.81979 0.93299 0.64783 0.0
C759 C 0.8053 0.94916 0.63683 0.0
C760 C 0.7848 0.95586 0.64897 0.0
C761 C 0.78654 0.94322 0.66883 0.0
C762 C 0.80842 0.92976 0.66795 0.0
N763 N 0.86831 0.94846 0.63732 0.0
C764 C 0.90239 0.98783 0.64362 0.0
C765 C 0.90126 0.97471 0.62322 0.0
C766 C 0.88417 0.95531 0.6204 0.0
C767 C 0.88469 0.98172 0.66012 0.0
C768 C 0.86791 0.96222 0.65665 0.0
N769 N 0.83226 0.88477 0.63415 0.0
C770 C 0.79568 0.85937 0.62908 0.0
C771 C 0.80838 0.83823 0.63661 0.0
C772 C 0.83355 0.84107 0.64176 0.0
C773 C 0.84483 0.86416 0.64079 0.0
C774 C 0.80798 0.88242 0.62786 0.0
H775 H 0.86384 0.86526 0.64597 0.0
H776 H 0.79776 0.89839 0.62232 0.0
H777 H 0.88469 0.94506 0.60483 0.0
H778 H 0.8553 0.95758 0.67009 0.0
C779 C 0.90114 0.89881 0.65824 0.0
C780 C 0.81848 0.91479 0.68652 0.0
C781 C 0.86754 0.89584 0.58285 0.0
C782 C 0.80844 0.95316 0.61377 0.0
H783 H 0.85284 0.90007 0.72144 0.0
H784 H 0.89888 0.89345 0.70651 0.0
H785 H 0.93676 0.87929 0.62664 0.0
H786 H 0.91711 0.87565 0.5856 0.0
H787 H 0.83879 0.921 0.54871 0.0
H788 H 0.80796 0.95435 0.56559 0.0
H789 H 0.76952 0.96724 0.64347 0.0
H790 H 0.77279 0.94366 0.68201 0.0
H791 H 0.91431 0.97852 0.60983 0.0
H792 H 0.88407 0.99159 0.67596 0.0
H793 H 0.77626 0.85834 0.62476 0.0
H794 H 0.84472 0.8255 0.64685 0.0
C795 C 0.60943 0.84129 0.18689 0.0
C796 C 0.61562 0.85415 0.2063 0.0
C797 C 0.62089 0.87787 0.19985 0.0
C798 C 0.61758 0.87825 0.17694 0.0
N799 N 0.6107 0.85623 0.16855 0.0
Co800 Co 0.60353 0.84913 0.13634 0.0
N801 N 0.62087 0.8794 0.12596 0.0
C802 C 0.62689 0.89881 0.13903 0.0
C803 C 0.63831 0.91739 0.12729 0.0
C804 C 0.63923 0.90932 0.10541 0.0
C805 C 0.62819 0.88621 0.10499 0.0
N806 N 0.59618 0.84173 0.10423 0.0
C807 C 0.60576 0.85146 0.08512 0.0
C808 C 0.59462 0.8412 0.06619 0.0
C809 C 0.57741 0.82472 0.07375 0.0
C810 C 0.57892 0.82579 0.09674 0.0
N811 N 0.58613 0.81886 0.14667 0.0
C812 C 0.57035 0.80513 0.13438 0.0
C813 C 0.56247 0.78431 0.14527 0.0
C814 C 0.57381 0.785 0.1658 0.0
C815 C 0.58773 0.80656 0.16648 0.0
N816 N 0.57235 0.86849 0.13861 0.0
C817 C 0.53199 0.90159 0.14456 0.0
C818 C 0.54648 0.90185 0.12492 0.0
C819 C 0.5663 0.88527 0.12227 0.0
C820 C 0.53759 0.88327 0.1606 0.0
C821 C 0.55764 0.86703 0.15732 0.0
N822 N 0.63497 0.83055 0.13414 0.0
C823 C 0.65892 0.79528 0.1217 0.0
C824 C 0.6808 0.80594 0.1299 0.0
C825 C 0.67916 0.82892 0.1405 0.0
C826 C 0.65622 0.84078 0.14255 0.0
C827 C 0.63621 0.80788 0.12397 0.0
H828 H 0.65585 0.8585 0.15071 0.0
H829 H 0.61975 0.79944 0.1172 0.0
H830 H 0.57725 0.88673 0.10719 0.0
H831 H 0.56163 0.85373 0.1703 0.0
C832 C 0.62429 0.89751 0.16247 0.0
C833 C 0.60044 0.81564 0.18679 0.0
C834 C 0.62301 0.87236 0.08417 0.0
C835 C 0.56709 0.80974 0.11152 0.0
H836 H 0.61608 0.84717 0.22334 0.0
H837 H 0.62713 0.89282 0.21052 0.0
H838 H 0.64558 0.93454 0.13389 0.0
H839 H 0.64679 0.91945 0.09132 0.0
H840 H 0.59809 0.84552 0.0487 0.0
H841 H 0.56562 0.81295 0.06366 0.0
H842 H 0.55086 0.76972 0.13868 0.0
H843 H 0.57197 0.77112 0.17874 0.0
H844 H 0.54327 0.91546 0.11195 0.0
H845 H 0.52675 0.88157 0.17583 0.0
H846 H 0.65943 0.77763 0.11316 0.0
H847 H 0.69563 0.8379 0.1469 0.0
H848 H 0.4112 0.12306 0.95567 0.0
H849 H 0.36529 0.18727 0.94471 0.0
H850 H 0.35182 0.18608 0.9846 0.0
H851 H 0.36956 0.09161 0.99561 0.0
H852 H 0.39481 0.08022 0.01241 0.0
H853 H 0.39908 0.08528 0.9827 0.0
H854 H 0.43642 0.11368 0.99149 0.0
H855 H 0.43192 0.10916 0.02124 0.0
H856 H 0.43221 0.13991 0.00978 0.0
H857 H 0.34464 0.17868 0.02616 0.0
H858 H 0.34235 0.16402 0.06566 0.0
H859 H 0.39385 0.10538 0.04989 0.0
C860 C 0.39773 0.13635 0.96161 0.0
C861 C 0.38866 0.15487 0.94712 0.0
C862 C 0.37187 0.17262 0.95553 0.0
C863 C 0.36432 0.17218 0.97815 0.0
C864 C 0.37393 0.15396 0.99219 0.0
C865 C 0.3901 0.13621 0.9842 0.0
C866 C 0.39825 0.11909 1.00293 0.0
C867 C 0.38992 0.09247 0.99813 0.0
C868 C 0.42637 0.12056 0.00657 0.0
C869 C 0.38429 0.13002 0.02273 0.0
C870 C 0.37036 0.15014 0.01618 0.0
C871 C 0.35555 0.16301 0.03147 0.0
C872 C 0.35449 0.15474 0.05385 0.0
C873 C 0.36827 0.13396 0.06073 0.0
C874 C 0.38358 0.12166 0.04504 0.0
H875 H 0.39607 0.42208 0.46053 0.0
H876 H 0.34939 0.36075 0.44117 0.0
H877 H 0.35109 0.34463 0.48017 0.0
H878 H 0.4352 0.38774 0.50013 0.0
H879 H 0.43752 0.41329 0.51946 0.0
H880 H 0.43349 0.41894 0.48983 0.0
H881 H 0.39477 0.44534 0.49877 0.0
H882 H 0.39834 0.4393 0.52839 0.0
H883 H 0.36964 0.43192 0.51451 0.0
H884 H 0.35657 0.33623 0.52166 0.0
H885 H 0.36849 0.33403 0.56186 0.0
H886 H 0.41167 0.40081 0.55449 0.0
C887 C 0.38673 0.40496 0.46451 0.0
C888 C 0.37287 0.39234 0.44794 0.0
C889 C 0.36037 0.37034 0.45366 0.0
C890 C 0.3611 0.36122 0.47577 0.0
C891 C 0.37441 0.37438 0.49193 0.0
C892 C 0.38728 0.39561 0.48652 0.0
C893 C 0.39999 0.40634 0.50711 0.0
C894 C 0.42823 0.40658 0.50394 0.0
C895 C 0.39009 0.43226 0.5125 0.0
C896 C 0.39222 0.38791 0.52495 0.0
C897 C 0.37734 0.36969 0.51586 0.0
C898 C 0.36812 0.35045 0.52896 0.0
C899 C 0.37477 0.34944 0.55177 0.0
C900 C 0.39039 0.36758 0.56131 0.0
C901 C 0.39906 0.38715 0.54774 0.0
H902 H 0.15377 0.35041 0.95495 0.0
H903 H 0.09243 0.4 0.94312 0.0
H904 H 0.09172 0.41102 0.98359 0.0
H905 H 0.13395 0.32805 0.00842 0.0
H906 H 0.16438 0.3271 0.02075 0.0
H907 H 0.16072 0.32348 0.99079 0.0
H908 H 0.19064 0.36 0.98364 0.0
H909 H 0.19483 0.36332 0.01355 0.0
H910 H 0.18477 0.38928 0.99704 0.0
H911 H 0.0967 0.4155 0.0255 0.0
H912 H 0.11048 0.41727 0.06519 0.0
H913 H 0.1692 0.36549 0.0502 0.0
C914 C 0.1406 0.36397 0.96092 0.0
C915 C 0.1234 0.37474 0.94599 0.0
C916 C 0.10602 0.39199 0.95432 0.0
C917 C 0.10534 0.39813 0.97727 0.0
C918 C 0.12222 0.38687 0.9917 0.0
C919 C 0.13982 0.37048 0.98383 0.0
C920 C 0.1561 0.36139 1.00291 0.0
C921 C 0.15363 0.33334 0.00589 0.0
C922 C 0.18319 0.36895 0.99905 0.0
C923 C 0.14487 0.37515 0.02272 0.0
C924 C 0.12516 0.38953 0.01589 0.0
C925 C 0.11204 0.40424 0.03104 0.0
C926 C 0.11977 0.40492 0.05358 0.0
C927 C 0.14044 0.39105 0.06079 0.0
C928 C 0.15291 0.37572 0.0452 0.0
H929 H 0.15002 0.17428 0.54888 0.0
H930 H 0.0898 0.12362 0.5621 0.0
H931 H 0.08911 0.11159 0.52188 0.0
H932 H 0.12923 0.19454 0.49422 0.0
H933 H 0.15977 0.1959 0.48208 0.0
H934 H 0.15563 0.20068 0.51187 0.0
H935 H 0.18667 0.16552 0.52033 0.0
H936 H 0.19111 0.16086 0.49058 0.0
H937 H 0.1817 0.13545 0.50814 0.0
H938 H 0.09507 0.10485 0.48049 0.0
H939 H 0.10883 0.10209 0.44085 0.0
H940 H 0.16524 0.15707 0.45377 0.0
C941 C 0.13687 0.16056 0.54319 0.0
C942 C 0.12004 0.14967 0.55843 0.0
C943 C 0.10291 0.13193 0.55057 0.0
C944 C 0.10233 0.12511 0.5278 0.0
C945 C 0.11902 0.13624 0.51307 0.0
C946 C 0.13612 0.15344 0.52043 0.0
C947 C 0.15228 0.16217 0.50108 0.0
C948 C 0.14902 0.18997 0.49708 0.0
C949 C 0.17956 0.1556 0.50529 0.0
C950 C 0.14162 0.14719 0.48176 0.0
C951 C 0.12235 0.13246 0.48907 0.0
C952 C 0.10997 0.11648 0.47453 0.0
C953 C 0.11773 0.11517 0.45202 0.0
C954 C 0.13759 0.12984 0.44419 0.0
C955 C 0.14958 0.14615 0.45925 0.0
H956 H 0.65353 0.85635 0.0502 0.0
H957 H 0.60015 0.9129 0.06718 0.0
H958 H 0.60081 0.92772 0.02778 0.0
H959 H 0.68927 0.89322 0.0092 0.0
H960 H 0.69434 0.86717 0.99089 0.0
H961 H 0.69095 0.86255 0.02075 0.0
H962 H 0.65531 0.83169 0.01311 0.0
H963 H 0.65821 0.83664 0.98326 0.0
H964 H 0.62887 0.84154 0.997 0.0
H965 H 0.60531 0.93462 0.98595 0.0
H966 H 0.61649 0.93566 0.94546 0.0
H967 H 0.66681 0.87459 0.95544 0.0
C968 C 0.64261 0.87231 0.04567 0.0
C969 C 0.62724 0.88394 0.06173 0.0
C970 C 0.6125 0.90424 0.05517 0.0
C971 C 0.61259 0.91258 0.03281 0.0
C972 C 0.62747 0.90036 0.01719 0.0
C973 C 0.64249 0.88088 0.02338 0.0
C974 C 0.65629 0.87059 0.00318 0.0
C975 C 0.68438 0.87357 0.00619 0.0
C976 C 0.64924 0.84351 0.99889 0.0
C977 C 0.64659 0.8872 0.98467 0.0
C978 C 0.62988 0.90417 0.99309 0.0
C979 C 0.6184 0.92144 0.9792 0.0
C980 C 0.62465 0.92179 0.95624 0.0
C981 C 0.64217 0.905 0.94744 0.0
C982 C 0.65306 0.88734 0.9618 0.0
H983 H 0.67374 0.64987 0.55001 0.0
H984 H 0.62287 0.58947 0.56153 0.0
H985 H 0.61161 0.58946 0.52114 0.0
H986 H 0.63514 0.68197 0.50857 0.0
H987 H 0.66128 0.69175 0.49198 0.0
H988 H 0.66468 0.68715 0.52183 0.0
H989 H 0.70071 0.65677 0.5141 0.0
H990 H 0.697 0.66085 0.4842 0.0
H991 H 0.69554 0.63038 0.49621 0.0
H992 H 0.60694 0.59506 0.47943 0.0
H993 H 0.60515 0.60935 0.43994 0.0
H994 H 0.65846 0.66664 0.45511 0.0
C995 C 0.65987 0.63705 0.544 0.0
C996 C 0.64879 0.61992 0.55878 0.0
C997 C 0.63112 0.603 0.55041 0.0
C998 C 0.62483 0.60272 0.52751 0.0
C999 C 0.63639 0.61952 0.51321 0.0
C1000 C 0.65321 0.63668 0.52115 0.0
C1001 C 0.66255 0.65297 0.5022 0.0
C1002 C 0.65548 0.68006 0.5064 0.0
C1003 C 0.69062 0.65006 0.499 0.0
C1004 C 0.64843 0.64225 0.48239 0.0
C1005 C 0.63365 0.62279 0.4891 0.0
C1006 C 0.61852 0.61019 0.47396 0.0
C1007 C 0.61782 0.61821 0.45153 0.0
C1008 C 0.63214 0.63862 0.44446 0.0
C1009 C 0.6479 0.65055 0.46002 0.0
H1010 H 0.85347 0.65274 0.95556 0.0
H1011 H 0.91345 0.60217 0.94122 0.0
H1012 H 0.92754 0.60534 0.98073 0.0
H1013 H 0.88779 0.69221 0.99538 0.0
H1014 H 0.86137 0.69668 0.01346 0.0
H1015 H 0.857 0.69156 0.98376 0.0
H1016 H 0.82817 0.65469 0.99265 0.0
H1017 H 0.83271 0.65946 0.02237 0.0
H1018 H 0.83941 0.62984 0.00996 0.0
H1019 H 0.93367 0.61198 0.02207 0.0
H1020 H 0.93319 0.62397 0.06231 0.0
H1021 H 0.86961 0.67069 0.05043 0.0
C1022 C 0.8699 0.64286 0.96073 0.0
C1023 C 0.88281 0.62767 0.94533 0.0
C1024 C 0.90378 0.61437 0.9527 0.0
C1025 C 0.91176 0.61591 0.97511 0.0
C1026 C 0.89851 0.63081 0.99 0.0
C1027 C 0.87818 0.64427 0.98311 0.0
C1028 C 0.86698 0.65844 1.00272 0.0
C1029 C 0.86838 0.68638 0.99858 0.0
C1030 C 0.84023 0.6501 0.00718 0.0
C1031 C 0.88406 0.65069 0.0217 0.0
C1032 C 0.90206 0.63466 0.01395 0.0
C1033 C 0.91975 0.62461 0.0283 0.0
C1034 C 0.91929 0.63139 0.05108 0.0
C1035 C 0.90132 0.64808 0.05931 0.0
C1036 C 0.88343 0.65779 0.04447 0.0
H1037 H 0.90986 0.89752 0.45375 0.0
H1038 H 0.8702 0.82877 0.44521 0.0
H1039 H 0.85874 0.8293 0.48563 0.0
H1040 H 0.93505 0.88395 0.50732 0.0
H1041 H 0.93211 0.91478 0.51841 0.0
H1042 H 0.93578 0.91005 0.48858 0.0
H1043 H 0.8954 0.93431 0.48086 0.0
H1044 H 0.89192 0.93959 0.51063 0.0
H1045 H 0.86725 0.92531 0.49492 0.0
H1046 H 0.85266 0.83684 0.52733 0.0
H1047 H 0.85023 0.85227 0.56663 0.0
H1048 H 0.89481 0.91547 0.54837 0.0
C1049 C 0.89817 0.88301 0.46035 0.0
C1050 C 0.89028 0.86342 0.44638 0.0
C1051 C 0.87585 0.84419 0.45564 0.0
C1052 C 0.86946 0.84426 0.47857 0.0
C1053 C 0.87786 0.86361 0.49205 0.0
C1054 C 0.89172 0.88276 0.48325 0.0
C1055 C 0.89888 0.90105 0.50148 0.0
C1056 C 0.92713 0.90253 0.50409 0.0
C1057 C 0.88769 0.92658 0.49669 0.0
C1058 C 0.88697 0.8892 0.52191 0.0
C1059 C 0.87495 0.86759 0.51612 0.0
C1060 C 0.86211 0.85367 0.53206 0.0
C1061 C 0.86098 0.86239 0.55433 0.0
C1062 C 0.87275 0.88468 0.56046 0.0
C1063 C 0.88618 0.89805 0.54411 0.0
H1064 H 0.2407 0.30989 0.15731 0.0
H1065 H 0.22817 0.31976 0.08589 0.0
H1066 H 0.24568 0.27832 0.07849 0.0
H1067 H 0.30003 0.27834 0.15071 0.0
H1068 H 0.29501 0.2581 0.1743 0.0
H1069 H 0.28103 0.28825 0.17398 0.0
H1070 H 0.23794 0.26843 0.17981 0.0
H1071 H 0.25177 0.23821 0.18 0.0
H1072 H 0.22732 0.24513 0.1604 0.0
H1073 H 0.26262 0.23454 0.07911 0.0
H1074 H 0.28214 0.19422 0.08709 0.0
H1075 H 0.28692 0.2136 0.15777 0.0
C1076 C 0.24177 0.30331 0.14012 0.0
C1077 C 0.23301 0.31808 0.12214 0.0
C1078 C 0.23488 0.30888 0.09988 0.0
C1079 C 0.24468 0.28528 0.09554 0.0
C1080 C 0.25301 0.27111 0.11361 0.0
C1081 C 0.25208 0.27995 0.13543 0.0
C1082 C 0.26322 0.26136 0.15169 0.0
C1083 C 0.28619 0.27216 0.16336 0.0
C1084 C 0.24391 0.25278 0.169 0.0
C1085 C 0.27024 0.24056 0.13568 0.0
C1086 C 0.2639 0.24645 0.11382 0.0
C1087 C 0.26783 0.22987 0.09616 0.0
C1088 C 0.2788 0.2069 0.10086 0.0
C1089 C 0.28614 0.20065 0.12302 0.0
C1090 C 0.2817 0.21784 0.14062 0.0
H1091 H 0.32121 0.26363 0.65016 0.0
H1092 H 0.30813 0.32145 0.60141 0.0
H1093 H 0.26542 0.30623 0.59578 0.0
H1094 H 0.28391 0.21566 0.62286 0.0
H1095 H 0.27206 0.20362 0.64899 0.0
H1096 H 0.30207 0.21807 0.64819 0.0
H1097 H 0.28845 0.24833 0.67959 0.0
H1098 H 0.25837 0.23404 0.68041 0.0
H1099 H 0.26105 0.26675 0.67567 0.0
H1100 H 0.22373 0.28511 0.5958 0.0
H1101 H 0.18623 0.26014 0.60159 0.0
H1102 H 0.22489 0.21724 0.65225 0.0
C1103 C 0.30942 0.27276 0.63804 0.0
C1104 C 0.31809 0.29357 0.62596 0.0
C1105 C 0.30193 0.3054 0.61067 0.0
C1106 C 0.27763 0.29688 0.60739 0.0
C1107 C 0.26947 0.27657 0.61971 0.0
C1108 C 0.28484 0.26466 0.63478 0.0
C1109 C 0.27099 0.24389 0.64656 0.0
C1110 C 0.28297 0.21882 0.64133 0.0
C1111 C 0.26964 0.24854 0.67207 0.0
C1112 C 0.24555 0.24598 0.63574 0.0
C1113 C 0.24515 0.26489 0.62023 0.0
C1114 C 0.22383 0.27033 0.60801 0.0
C1115 C 0.20241 0.2561 0.61162 0.0
C1116 C 0.20209 0.23657 0.62752 0.0
C1117 C 0.2242 0.23168 0.63974 0.0
H1118 H 0.29959 0.30119 0.39524 0.0
H1119 H 0.25684 0.34284 0.34676 0.0
H1120 H 0.23116 0.30602 0.33911 0.0
H1121 H 0.29876 0.24264 0.36642 0.0
H1122 H 0.29474 0.22435 0.39146 0.0
H1123 H 0.31029 0.25371 0.39305 0.0
H1124 H 0.27936 0.26836 0.42353 0.0
H1125 H 0.26385 0.23897 0.42217 0.0
H1126 H 0.24663 0.26702 0.41788 0.0
H1127 H 0.21228 0.26425 0.33456 0.0
H1128 H 0.19675 0.22201 0.33699 0.0
H1129 H 0.24775 0.20723 0.3919 0.0
C1130 C 0.28469 0.30249 0.38313 0.0
C1131 C 0.28016 0.32491 0.37154 0.0
C1132 C 0.2605 0.32596 0.35589 0.0
C1133 C 0.24593 0.30508 0.35135 0.0
C1134 C 0.25091 0.28325 0.36288 0.0
C1135 C 0.26947 0.28186 0.37878 0.0
C1136 C 0.27006 0.25626 0.38938 0.0
C1137 C 0.29495 0.24349 0.3848 0.0
C1138 C 0.26465 0.25774 0.41475 0.0
C1139 C 0.24908 0.24348 0.3768 0.0
C1140 C 0.23866 0.2594 0.36138 0.0
C1141 C 0.21984 0.25183 0.34701 0.0
C1142 C 0.21091 0.22763 0.34877 0.0
C1143 C 0.22011 0.21101 0.36526 0.0
C1144 C 0.23992 0.21917 0.37921 0.0
H1145 H 0.30088 0.21661 0.89456 0.0
H1146 H 0.34 0.25875 0.84383 0.0
H1147 H 0.30195 0.2825 0.83605 0.0
H1148 H 0.24129 0.21414 0.86685 0.0
H1149 H 0.22341 0.2185 0.89216 0.0
H1150 H 0.25337 0.20403 0.89355 0.0
H1151 H 0.26776 0.23646 0.92274 0.0
H1152 H 0.23777 0.25088 0.9216 0.0
H1153 H 0.26522 0.2688 0.91614 0.0
H1154 H 0.25962 0.30001 0.83213 0.0
H1155 H 0.21715 0.31519 0.83584 0.0
H1156 H 0.20473 0.26534 0.89189 0.0
C1157 C 0.30135 0.23094 0.8819 0.0
C1158 C 0.32344 0.23589 0.86975 0.0
C1159 C 0.3234 0.2548 0.8534 0.0
C1160 C 0.30181 0.26825 0.84878 0.0
C1161 C 0.28033 0.2629 0.86088 0.0
C1162 C 0.27995 0.24505 0.87742 0.0
C1163 C 0.25453 0.24403 0.88861 0.0
C1164 C 0.24244 0.21866 0.88508 0.0
C1165 C 0.25644 0.25043 0.91377 0.0
C1166 C 0.24072 0.26403 0.87571 0.0
C1167 C 0.25601 0.27427 0.85957 0.0
C1168 C 0.24766 0.2925 0.84503 0.0
C1169 C 0.22339 0.30114 0.84744 0.0
C1170 C 0.20748 0.29219 0.86465 0.0
C1171 C 0.21626 0.27283 0.87865 0.0
H1172 H 0.75894 0.81907 0.88977 0.0
H1173 H 0.70051 0.80204 0.84203 0.0
H1174 H 0.71607 0.75981 0.83855 0.0
H1175 H 0.80641 0.78239 0.86005 0.0
H1176 H 0.82124 0.77241 0.88561 0.0
H1177 H 0.80557 0.80172 0.88475 0.0
H1178 H 0.77876 0.78867 0.91882 0.0
H1179 H 0.79419 0.75925 0.91965 0.0
H1180 H 0.76098 0.76057 0.91732 0.0
H1181 H 0.7356 0.71839 0.84186 0.0
H1182 H 0.76158 0.68158 0.84821 0.0
H1183 H 0.8103 0.7247 0.89081 0.0
C1184 C 0.74957 0.80658 0.87839 0.0
C1185 C 0.72786 0.81405 0.86675 0.0
C1186 C 0.71648 0.79687 0.85192 0.0
C1187 C 0.72532 0.77271 0.84962 0.0
C1188 C 0.74609 0.76575 0.86182 0.0
C1189 C 0.75847 0.78222 0.87556 0.0
C1190 C 0.78083 0.76976 0.88626 0.0
C1191 C 0.80494 0.78232 0.87871 0.0
C1192 C 0.77854 0.76956 0.91204 0.0
C1193 C 0.77876 0.74376 0.87658 0.0
C1194 C 0.75837 0.74191 0.86271 0.0
C1195 C 0.75179 0.71967 0.8525 0.0
C1196 C 0.76655 0.6988 0.85631 0.0
C1197 C 0.78794 0.70021 0.86996 0.0
C1198 C 0.79413 0.7231 0.88019 0.0
H1199 H 0.71482 0.7366 0.34772 0.0
H1200 H 0.70453 0.72387 0.41907 0.0
H1201 H 0.74636 0.74065 0.42655 0.0
H1202 H 0.77995 0.72256 0.34467 0.0
H1203 H 0.78709 0.74695 0.32514 0.0
H1204 H 0.75673 0.73323 0.32525 0.0
H1205 H 0.73697 0.77624 0.33114 0.0
H1206 H 0.76725 0.7901 0.33089 0.0
H1207 H 0.74686 0.79512 0.35447 0.0
H1208 H 0.79045 0.75733 0.42602 0.0
H1209 H 0.83073 0.77738 0.41818 0.0
H1210 H 0.8114 0.78257 0.34759 0.0
C1211 C 0.72142 0.73739 0.3649 0.0
C1212 C 0.70642 0.72882 0.38284 0.0
C1213 C 0.71563 0.7304 0.40511 0.0
C1214 C 0.73944 0.73978 0.40948 0.0
C1215 C 0.75384 0.74796 0.39145 0.0
C1216 C 0.745 0.74728 0.36963 0.0
C1217 C 0.76376 0.75838 0.35343 0.0
C1218 C 0.77239 0.73913 0.3361 0.0
C1219 C 0.75307 0.78133 0.3418 0.0
C1220 C 0.78456 0.76526 0.36949 0.0
C1221 C 0.77862 0.75873 0.39131 0.0
C1222 C 0.79517 0.76265 0.40901 0.0
C1223 C 0.81811 0.7739 0.40439 0.0
C1224 C 0.8243 0.78156 0.38231 0.0
C1225 C 0.80721 0.77701 0.36466 0.0
H1226 H 0.76996 0.81541 0.6122 0.0
H1227 H 0.81821 0.80456 0.66979 0.0
H1228 H 0.80253 0.76249 0.6741 0.0
H1229 H 0.71771 0.78075 0.63698 0.0
H1230 H 0.70799 0.76795 0.61041 0.0
H1231 H 0.72312 0.79757 0.6113 0.0
H1232 H 0.75602 0.78178 0.5831 0.0
H1233 H 0.74113 0.75206 0.58227 0.0
H1234 H 0.77339 0.75434 0.58962 0.0
H1235 H 0.78435 0.72036 0.67102 0.0
H1236 H 0.76012 0.68248 0.66376 0.0
H1237 H 0.71987 0.72013 0.61097 0.0
C1238 C 0.77705 0.80432 0.62587 0.0
C1239 C 0.79613 0.81346 0.64013 0.0
C1240 C 0.8045 0.79807 0.65792 0.0
C1241 C 0.79552 0.77401 0.6607 0.0
C1242 C 0.77751 0.76535 0.64599 0.0
C1243 C 0.76787 0.78012 0.62922 0.0
C1244 C 0.74792 0.76613 0.61627 0.0
C1245 C 0.72269 0.77886 0.6189 0.0
C1246 C 0.75505 0.76342 0.59133 0.0
C1247 C 0.74825 0.74123 0.62819 0.0
C1248 C 0.76573 0.74123 0.64513 0.0
C1249 C 0.7704 0.72022 0.65797 0.0
C1250 C 0.75666 0.69873 0.65366 0.0
C1251 C 0.73814 0.69832 0.63687 0.0
C1252 C 0.73386 0.71995 0.62399 0.0
H1253 H 0.79988 0.72116 0.15594 0.0
H1254 H 0.83531 0.7555 0.09836 0.0
H1255 H 0.79769 0.78012 0.09168 0.0
H1256 H 0.73881 0.71673 0.13167 0.0
H1257 H 0.72291 0.72361 0.15761 0.0
H1258 H 0.75277 0.70888 0.15824 0.0
H1259 H 0.76951 0.74364 0.18398 0.0
H1260 H 0.73968 0.75842 0.18349 0.0
H1261 H 0.76688 0.77529 0.17508 0.0
H1262 H 0.75583 0.8012 0.09096 0.0
H1263 H 0.71352 0.81753 0.09693 0.0
H1264 H 0.70433 0.76929 0.15433 0.0
C1265 C 0.79977 0.73373 0.14182 0.0
C1266 C 0.82093 0.73627 0.12774 0.0
C1267 C 0.81977 0.75333 0.10968 0.0
C1268 C 0.7983 0.76732 0.10562 0.0
C1269 C 0.77787 0.76425 0.11971 0.0
C1270 C 0.77842 0.74792 0.13751 0.0
C1271 C 0.75393 0.74828 0.15022 0.0
C1272 C 0.74136 0.72286 0.14938 0.0
C1273 C 0.75773 0.75692 0.17464 0.0
C1274 C 0.73945 0.76724 0.13673 0.0
C1275 C 0.75367 0.77623 0.11919 0.0
C1276 C 0.74456 0.79419 0.10458 0.0
C1277 C 0.72049 0.80333 0.10804 0.0
C1278 C 0.70557 0.7945 0.12588 0.0
C1279 C 0.71521 0.77613 0.14037 0.0
H1280 H 0.22279 0.07356 0.289 0.0
H1281 H 0.21283 0.15209 0.29873 0.0
H1282 H 0.24031 0.16026 0.26604 0.0
H1283 H 0.2877 0.07737 0.27691 0.0
H1284 H 0.28729 0.05249 0.25675 0.0
H1285 H 0.26513 0.05305 0.27941 0.0
H1286 H 0.22927 0.05044 0.2506 0.0
H1287 H 0.25131 0.04984 0.22785 0.0
H1288 H 0.22737 0.07294 0.22837 0.0
H1289 H 0.26989 0.15939 0.23209 0.0
H1290 H 0.29852 0.14959 0.2006 0.0
H1291 H 0.29309 0.07193 0.21676 0.0
C1292 C 0.22652 0.09249 0.28432 0.0
C1293 C 0.21605 0.11225 0.29664 0.0
C1294 C 0.22081 0.13672 0.28959 0.0
C1295 C 0.23645 0.14149 0.27111 0.0
C1296 C 0.24734 0.12157 0.25991 0.0
C1297 C 0.24261 0.09755 0.26636 0.0
C1298 C 0.25748 0.0794 0.25238 0.0
C1299 C 0.27547 0.06472 0.26725 0.0
C1300 C 0.24033 0.06214 0.23901 0.0
C1301 C 0.27125 0.09688 0.23691 0.0
C1302 C 0.26498 0.12114 0.24128 0.0
C1303 C 0.27489 0.14044 0.2286 0.0
C1304 C 0.29119 0.13475 0.21081 0.0
C1305 C 0.29758 0.11 0.20591 0.0
C1306 C 0.28799 0.09098 0.21965 0.0
H1307 H 0.45159 0.29524 0.71816 0.0
H1308 H 0.37301 0.3028 0.70599 0.0
H1309 H 0.36431 0.27535 0.73849 0.0
H1310 H 0.44895 0.23037 0.7297 0.0
H1311 H 0.47317 0.23132 0.75051 0.0
H1312 H 0.47285 0.25348 0.72797 0.0
H1313 H 0.47354 0.28919 0.757 0.0
H1314 H 0.47394 0.26715 0.77964 0.0
H1315 H 0.45018 0.29042 0.77865 0.0
H1316 H 0.36478 0.24621 0.77285 0.0
H1317 H 0.37436 0.21832 0.8048 0.0
H1318 H 0.45252 0.22505 0.78999 0.0
C1319 C 0.43253 0.29096 0.72222 0.0
C1320 C 0.41294 0.30075 0.70925 0.0
C1321 C 0.38828 0.29535 0.7156 0.0
C1322 C 0.38321 0.2797 0.73397 0.0
C1323 C 0.40304 0.2694 0.74575 0.0
C1324 C 0.42722 0.27475 0.73997 0.0
C1325 C 0.4453 0.26033 0.75433 0.0
C1326 C 0.46099 0.24284 0.73976 0.0
C1327 C 0.4617 0.27782 0.76823 0.0
C1328 C 0.4276 0.24612 0.76927 0.0
C1329 C 0.40328 0.25181 0.76435 0.0
C1330 C 0.38379 0.24162 0.77671 0.0
C1331 C 0.38935 0.22571 0.79475 0.0
C1332 C 0.41417 0.21992 0.80019 0.0
C1333 C 0.43338 0.22966 0.78668 0.0
H1334 H 0.23246 0.38873 0.21269 0.0
H1335 H 0.22027 0.46711 0.20383 0.0
H1336 H 0.24892 0.47601 0.23511 0.0
H1337 H 0.2335 0.3929 0.27498 0.0
H1338 H 0.25621 0.3688 0.27792 0.0
H1339 H 0.23521 0.3685 0.25439 0.0
H1340 H 0.27257 0.36671 0.22714 0.0
H1341 H 0.29368 0.36752 0.25058 0.0
H1342 H 0.29602 0.3903 0.22863 0.0
H1343 H 0.2825 0.47674 0.26399 0.0
H1344 H 0.31019 0.46956 0.29635 0.0
H1345 H 0.29661 0.39095 0.29146 0.0
C1346 C 0.23571 0.40771 0.21756 0.0
C1347 C 0.22489 0.42732 0.20527 0.0
C1348 C 0.22896 0.45188 0.21255 0.0
C1349 C 0.24527 0.45711 0.23025 0.0
C1350 C 0.25667 0.43753 0.24126 0.0
C1351 C 0.25139 0.41329 0.23586 0.0
C1352 C 0.26489 0.39586 0.25175 0.0
C1353 C 0.24635 0.38062 0.26558 0.0
C1354 C 0.28285 0.37911 0.23874 0.0
C1355 C 0.27885 0.41413 0.26656 0.0
C1356 C 0.27422 0.43803 0.25973 0.0
C1357 C 0.28581 0.45815 0.26984 0.0
C1358 C 0.30163 0.4539 0.2881 0.0
C1359 C 0.30513 0.42982 0.2967 0.0
C1360 C 0.29408 0.40958 0.28536 0.0
H1361 H 0.11866 0.24733 0.69719 0.0
H1362 H 0.11379 0.18045 0.73674 0.0
H1363 H 0.12204 0.20423 0.77109 0.0
H1364 H 0.15898 0.28591 0.73206 0.0
H1365 H 0.1396 0.31282 0.7298 0.0
H1366 H 0.14031 0.29047 0.7073 0.0
H1367 H 0.09276 0.28527 0.70991 0.0
H1368 H 0.0919 0.30788 0.73211 0.0
H1369 H 0.07889 0.27767 0.73661 0.0
H1370 H 0.13171 0.2355 0.80139 0.0
H1371 H 0.12749 0.27112 0.82688 0.0
H1372 H 0.11127 0.31807 0.76971 0.0
C1373 C 0.11996 0.23758 0.71303 0.0
C1374 C 0.11802 0.21143 0.71373 0.0
C1375 C 0.11802 0.19984 0.73511 0.0
C1376 C 0.12215 0.21339 0.75493 0.0
C1377 C 0.12449 0.23894 0.75352 0.0
C1378 C 0.12207 0.25105 0.73324 0.0
C1379 C 0.11944 0.27874 0.73701 0.0
C1380 C 0.14086 0.29281 0.72587 0.0
C1381 C 0.09425 0.28793 0.72841 0.0
C1382 C 0.12105 0.28025 0.76256 0.0
C1383 C 0.1251 0.25712 0.77154 0.0
C1384 C 0.12812 0.25363 0.79456 0.0
C1385 C 0.12579 0.27405 0.80891 0.0
C1386 C 0.11921 0.29763 0.80051 0.0
C1387 C 0.11722 0.30076 0.77685 0.0
H1388 H 0.72401 0.9495 0.78542 0.0
H1389 H 0.71826 0.87177 0.8011 0.0
H1390 H 0.74708 0.86208 0.76974 0.0
H1391 H 0.73139 0.94492 0.72496 0.0
H1392 H 0.75414 0.96918 0.72375 0.0
H1393 H 0.73101 0.96935 0.74559 0.0
H1394 H 0.76554 0.97129 0.77577 0.0
H1395 H 0.78878 0.9709 0.75403 0.0
H1396 H 0.7893 0.94799 0.77596 0.0
H1397 H 0.77729 0.86142 0.73608 0.0
H1398 H 0.80591 0.86995 0.70427 0.0
H1399 H 0.79693 0.94837 0.71548 0.0
C1400 C 0.72875 0.93043 0.78217 0.0
C1401 C 0.71902 0.91137 0.79578 0.0
C1402 C 0.72547 0.88663 0.79084 0.0
C1403 C 0.74193 0.881 0.77316 0.0
C1404 C 0.75211 0.90036 0.76072 0.0
C1405 C 0.74583 0.92461 0.76517 0.0
C1406 C 0.76051 0.9422 0.75051 0.0
C1407 C 0.74323 0.9573 0.7353 0.0
C1408 C 0.77701 0.95909 0.76493 0.0
C1409 C 0.77585 0.92414 0.7369 0.0
C1410 C 0.77054 0.90006 0.74274 0.0
C1411 C 0.78162 0.88024 0.73152 0.0
C1412 C 0.79795 0.88522 0.71357 0.0
C1413 C 0.80328 0.90977 0.70714 0.0
C1414 C 0.79278 0.92938 0.71965 0.0
H1415 H 0.63485 0.73023 0.29374 0.0
H1416 H 0.55587 0.71981 0.30203 0.0
H1417 H 0.54802 0.7479 0.2702 0.0
H1418 H 0.63451 0.79353 0.2771 0.0
H1419 H 0.65782 0.7905 0.25557 0.0
H1420 H 0.65778 0.76986 0.2793 0.0
H1421 H 0.65609 0.73221 0.2525 0.0
H1422 H 0.65656 0.75272 0.22868 0.0
H1423 H 0.63203 0.73042 0.23157 0.0
H1424 H 0.5484 0.78042 0.24056 0.0
H1425 H 0.55673 0.8077 0.2082 0.0
H1426 H 0.63529 0.79353 0.21459 0.0
C1427 C 0.61596 0.73378 0.28866 0.0
C1428 C 0.59588 0.72356 0.30085 0.0
C1429 C 0.57144 0.72804 0.29334 0.0
C1430 C 0.56681 0.744 0.27532 0.0
C1431 C 0.58686 0.75472 0.2643 0.0
C1432 C 0.61098 0.74921 0.27011 0.0
C1433 C 0.629 0.76217 0.25432 0.0
C1434 C 0.64577 0.78008 0.26736 0.0
C1435 C 0.64433 0.74325 0.24097 0.0
C1436 C 0.61121 0.77605 0.23905 0.0
C1437 C 0.58702 0.77181 0.24554 0.0
C1438 C 0.56722 0.78341 0.23497 0.0
C1439 C 0.57212 0.79894 0.21668 0.0
C1440 C 0.59653 0.80216 0.20853 0.0
C1441 C 0.61642 0.79106 0.22027 0.0
H1442 H 0.79707 0.5721 0.79027 0.0
H1443 H 0.8047 0.6504 0.80298 0.0
H1444 H 0.77653 0.65918 0.77098 0.0
H1445 H 0.7915 0.57369 0.73035 0.0
H1446 H 0.76812 0.55002 0.72923 0.0
H1447 H 0.79026 0.55031 0.75186 0.0
H1448 H 0.7545 0.55095 0.78095 0.0
H1449 H 0.73226 0.55066 0.7584 0.0
H1450 H 0.73132 0.57476 0.77932 0.0
H1451 H 0.74756 0.65881 0.73644 0.0
H1452 H 0.72007 0.64932 0.70407 0.0
H1453 H 0.7262 0.57139 0.71885 0.0
C1454 C 0.79248 0.5911 0.78659 0.0
C1455 C 0.80262 0.61059 0.79947 0.0
C1456 C 0.79696 0.6352 0.79345 0.0
C1457 C 0.78092 0.64032 0.77536 0.0
C1458 C 0.77042 0.62059 0.76359 0.0
C1459 C 0.77585 0.59645 0.76917 0.0
C1460 C 0.76136 0.57848 0.75472 0.0
C1461 C 0.77886 0.56217 0.74071 0.0
C1462 C 0.74382 0.56279 0.76921 0.0
C1463 C 0.74711 0.59618 0.73989 0.0
C1464 C 0.75281 0.62041 0.74497 0.0
C1465 C 0.74288 0.63988 0.73252 0.0
C1466 C 0.72721 0.63436 0.71422 0.0
C1467 C 0.7214 0.60963 0.70866 0.0
C1468 C 0.73081 0.59046 0.72229 0.0
H1469 H 0.91373 0.81622 0.27175 0.0
H1470 H 0.90388 0.76791 0.32919 0.0
H1471 H 0.89999 0.73234 0.30355 0.0
H1472 H 0.8654 0.78263 0.23669 0.0
H1473 H 0.88212 0.7885 0.21098 0.0
H1474 H 0.88352 0.81038 0.23383 0.0
H1475 H 0.9313 0.80751 0.2333 0.0
H1476 H 0.93007 0.78525 0.21081 0.0
H1477 H 0.94592 0.77785 0.23659 0.0
H1478 H 0.90761 0.70181 0.27219 0.0
H1479 H 0.91349 0.67878 0.23694 0.0
H1480 H 0.90453 0.74631 0.19892 0.0
C1481 C 0.9092 0.79856 0.27902 0.0
C1482 C 0.90875 0.79513 0.3027 0.0
C1483 C 0.90433 0.77109 0.3112 0.0
C1484 C 0.90214 0.75072 0.29676 0.0
C1485 C 0.90324 0.75464 0.27364 0.0
C1486 C 0.90552 0.77806 0.26474 0.0
C1487 C 0.90546 0.77698 0.23913 0.0
C1488 C 0.88277 0.79042 0.22959 0.0
C1489 C 0.92962 0.78753 0.2294 0.0
C1490 C 0.90372 0.7493 0.23516 0.0
C1491 C 0.90323 0.73678 0.25536 0.0
C1492 C 0.90619 0.71127 0.25622 0.0
C1493 C 0.90901 0.69818 0.23596 0.0
C1494 C 0.90723 0.71019 0.21484 0.0
C1495 C 0.90464 0.73627 0.21466 0.0
H1496 H 0.42509 1.00132 0.11421 0.0
H1497 H 0.42321 0.01964 0.18541 0.0
H1498 H 0.45474 0.98803 0.1927 0.0
H1499 H 0.4344 0.93556 0.12071 0.0
H1500 H 0.4554 0.93294 0.09724 0.0
H1501 H 0.43207 0.95665 0.09739 0.0
H1502 H 0.46587 0.9899 0.09181 0.0
H1503 H 0.4893 0.96628 0.09163 0.0
H1504 H 0.49136 0.99155 0.11128 0.0
H1505 H 0.48741 0.95463 0.1926 0.0
H1506 H 0.51864 0.9227 0.18503 0.0
H1507 H 0.50048 0.92532 0.11388 0.0
C1508 C 0.4313 0.99886 0.13136 0.0
C1509 C 0.42102 0.01317 0.14923 0.0
C1510 C 0.42994 1.00883 0.17136 0.0
C1511 C 0.44816 0.99092 0.17571 0.0
C1512 C 0.45773 0.97723 0.15782 0.0
C1513 C 0.44967 0.98098 0.13605 0.0
C1514 C 0.46336 0.96386 0.11986 0.0
C1515 C 0.44522 0.94621 0.10811 0.0
C1516 C 0.47836 0.97879 0.10262 0.0
C1517 C 0.48035 0.94996 0.13593 0.0
C1518 C 0.47671 0.95799 0.15775 0.0
C1519 C 0.49025 0.94812 0.17556 0.0
C1520 C 0.50792 0.92968 0.17106 0.0
C1521 C 0.51222 0.9209 0.14885 0.0
C1522 C 0.49803 0.93143 0.13108 0.0
H1523 H 0.57701 0.52015 0.6268 0.0
H1524 H 0.63385 0.48478 0.66695 0.0
H1525 H 0.607 0.44839 0.67147 0.0
H1526 H 0.5246 0.49701 0.65817 0.0
H1527 H 0.50543 0.49254 0.6337 0.0
H1528 H 0.52898 0.51606 0.63366 0.0
H1529 H 0.54813 0.49704 0.59767 0.0
H1530 H 0.52463 0.47346 0.5976 0.0
H1531 H 0.55686 0.46496 0.59753 0.0
H1532 H 0.57393 0.41506 0.67139 0.0
H1533 H 0.53768 0.38796 0.66687 0.0
H1534 H 0.50157 0.44442 0.62694 0.0
C1535 C 0.58398 0.50473 0.63642 0.0
C1536 C 0.60781 0.50575 0.64661 0.0
C1537 C 0.61571 0.485 0.65926 0.0
C1538 C 0.60057 0.46403 0.66181 0.0
C1539 C 0.57732 0.46372 0.65164 0.0
C1540 C 0.56902 0.48353 0.63919 0.0
C1541 C 0.54316 0.47842 0.63005 0.0
C1542 C 0.52444 0.49712 0.63946 0.0
C1543 C 0.54321 0.47848 0.60418 0.0
C1544 C 0.53827 0.45263 0.63922 0.0
C1545 C 0.55825 0.44453 0.65165 0.0
C1546 C 0.55816 0.42133 0.66178 0.0
C1547 C 0.53725 0.40605 0.65923 0.0
C1548 C 0.51632 0.41378 0.64665 0.0
C1549 C 0.51712 0.43756 0.6365 0.0
H1550 H 0.09623 0.51971 0.11436 0.0
H1551 H 0.09822 0.49761 0.18451 0.0
H1552 H 0.06475 0.52698 0.19303 0.0
H1553 H 0.08395 0.58475 0.12474 0.0
H1554 H 0.06347 0.58808 0.10103 0.0
H1555 H 0.08785 0.56546 0.10025 0.0
H1556 H 0.05572 0.53127 0.09187 0.0
H1557 H 0.03124 0.55379 0.09268 0.0
H1558 H 0.02987 0.5271 0.11067 0.0
H1559 H 0.02963 0.55777 0.19399 0.0
H1560 H 0.99703 0.58847 0.18776 0.0
H1561 H 0.01801 0.59283 0.11723 0.0
C1562 C 0.08964 0.52098 0.13153 0.0
C1563 C 0.10032 0.50618 0.14876 0.0
C1564 C 0.09098 0.50882 0.17099 0.0
C1565 C 0.07171 0.52542 0.176 0.0
C1566 C 0.06169 0.53961 0.15871 0.0
C1567 C 0.0704 0.5377 0.13691 0.0
C1568 C 0.05635 0.55533 0.12153 0.0
C1569 C 0.07396 0.57455 0.11129 0.0
C1570 C 0.04247 0.54102 0.10309 0.0
C1571 C 0.03834 0.5673 0.13806 0.0
C1572 C 0.04174 0.55784 0.15938 0.0
C1573 C 0.02707 0.56552 0.17739 0.0
C1574 C 1.00859 0.58333 0.17365 0.0
C1575 C 1.0047 0.59386 0.15203 0.0
C1576 C 0.02002 0.58542 0.13401 0.0
H1577 H 0.92506 0.02183 0.61448 0.0
H1578 H 0.92678 0.99582 0.68353 0.0
H1579 H 0.96036 0.02501 0.69196 0.0
H1580 H 0.99126 0.02983 0.60847 0.0
H1581 H 0.98896 0.05742 0.59174 0.0
H1582 H 0.96456 0.03479 0.59092 0.0
H1583 H 0.93271 0.06828 0.60203 0.0
H1584 H 0.95702 0.09101 0.60286 0.0
H1585 H 0.93763 0.08629 0.62717 0.0
H1586 H 0.99501 0.05623 0.69302 0.0
H1587 H 0.02713 0.08754 0.6869 0.0
H1588 H 1.00323 0.09516 0.61744 0.0
C1589 C 0.93248 0.0222 0.63138 0.0
C1590 C 0.92272 1.0064 0.64836 0.0
C1591 C 0.9332 1.00786 0.67024 0.0
C1592 C 0.95257 0.02434 0.6752 0.0
C1593 C 0.96163 0.03957 0.6582 0.0
C1594 C 0.95191 0.03875 0.63672 0.0
C1595 C 0.96518 0.05727 0.62159 0.0
C1596 C 0.97827 0.04403 0.60202 0.0
C1597 C 0.94705 0.07688 0.6129 0.0
C1598 C 0.98388 0.06849 0.63791 0.0
C1599 C 0.98147 0.05791 0.6589 0.0
C1600 C 0.99683 0.06481 0.67668 0.0
C1601 C 0.01502 0.08297 0.67303 0.0
C1602 C 0.01796 0.09454 0.65174 0.0
C1603 C 1.00194 0.08691 0.63396 0.0
H1604 H 0.5262 0.57362 0.37606 0.0
H1605 H 0.48412 0.63658 0.35248 0.0
H1606 H 0.4467 0.61057 0.35026 0.0
H1607 H 0.49574 0.52808 0.34086 0.0
H1608 H 0.4963 0.50428 0.36198 0.0
H1609 H 0.51987 0.52777 0.36177 0.0
H1610 H 0.50932 0.53892 0.40304 0.0
H1611 H 0.48571 0.51546 0.40337 0.0
H1612 H 0.47795 0.54687 0.4104 0.0
H1613 H 0.41305 0.57772 0.35157 0.0
H1614 H 0.38676 0.54064 0.35452 0.0
H1615 H 0.45024 0.49827 0.37672 0.0
C1616 C 0.50911 0.58202 0.37051 0.0
C1617 C 0.50838 0.6074 0.36442 0.0
C1618 C 0.48551 0.6173 0.35699 0.0
C1619 C 0.46401 0.60263 0.3558 0.0
C1620 C 0.46539 0.57783 0.36196 0.0
C1621 C 0.48741 0.56753 0.36903 0.0
C1622 C 0.48389 0.54026 0.37438 0.0
C1623 C 0.49991 0.52415 0.35882 0.0
C1624 C 0.48955 0.53507 0.39928 0.0
C1625 C 0.45646 0.53685 0.36935 0.0
C1626 C 0.44613 0.55882 0.36232 0.0
C1627 C 0.42103 0.56045 0.35704 0.0
C1628 C 0.40613 0.53921 0.35892 0.0
C1629 C 0.41616 0.51628 0.36591 0.0
C1630 C 0.44184 0.5153 0.37112 0.0
H1631 H 1.00075 0.42243 0.88962 0.0
H1632 H 0.02381 0.42487 0.81957 0.0
H1633 H 0.99332 0.45746 0.81239 0.0
H1634 H 0.93557 0.43405 0.88022 0.0
H1635 H 0.93203 0.4535 0.90464 0.0
H1636 H 0.95512 0.42955 0.90442 0.0
H1637 H 0.98896 0.46179 0.91364 0.0
H1638 H 0.96597 0.48582 0.91389 0.0
H1639 H 0.99258 0.48836 0.89575 0.0
H1640 H 0.96067 0.49072 0.81252 0.0
H1641 H 0.92898 0.52222 0.82012 0.0
H1642 H 0.92674 0.4997 0.89019 0.0
C1643 C 0.99956 0.42979 0.87275 0.0
C1644 C 0.01485 0.4204 0.85514 0.0
C1645 C 0.01217 0.43085 0.83336 0.0
C1646 C 0.99493 0.4497 0.82909 0.0
C1647 C 0.98028 0.45838 0.84673 0.0
C1648 C 0.98242 0.44884 0.86816 0.0
C1649 C 0.96464 0.46192 0.88417 0.0
C1650 C 0.94572 0.44366 0.89394 0.0
C1651 C 0.97889 0.47526 0.90298 0.0
C1652 C 0.95224 0.48029 0.86839 0.0
C1653 C 0.96155 0.47782 0.84685 0.0
C1654 C 0.95317 0.49268 0.82932 0.0
C1655 C 0.93489 0.51049 0.83381 0.0
C1656 C 0.92485 0.51361 0.85574 0.0
C1657 C 0.93389 0.49813 0.87324 0.0
H1658 H 0.99705 0.94919 0.3785 0.0
H1659 H 0.03347 0.89196 0.33949 0.0
H1660 H 0.07024 0.91848 0.33567 0.0
H1661 H 0.02149 1.001 0.34734 0.0
H1662 H 0.02531 0.02035 0.37179 0.0
H1663 H 1.00161 0.99699 0.37144 0.0
H1664 H 0.01949 0.97822 0.40797 0.0
H1665 H 0.04326 1.00151 0.40842 0.0
H1666 H 0.0516 0.96934 0.40889 0.0
H1667 H 0.10382 0.9512 0.33635 0.0
H1668 H 0.13098 0.98732 0.34112 0.0
H1669 H 0.07332 0.02409 0.37947 0.0
C1670 C 0.01277 0.94209 0.36926 0.0
C1671 C 0.01195 0.91825 0.35918 0.0
C1672 C 0.0331 0.91012 0.34705 0.0
C1673 C 0.05429 0.92507 0.34492 0.0
C1674 C 0.05441 0.94834 0.35498 0.0
C1675 C 0.03419 0.95686 0.36691 0.0
C1676 C 0.03917 0.98271 0.37599 0.0
C1677 C 0.0208 1.00136 0.36605 0.0
C1678 C 0.03833 0.98295 0.40185 0.0
C1679 C 0.06533 0.98734 0.36737 0.0
C1680 C 0.07374 0.96724 0.35529 0.0
C1681 C 0.09731 0.96708 0.34568 0.0
C1682 C 0.11262 0.9879 0.34838 0.0
C1683 C 0.10456 1.00899 0.36057 0.0
C1684 C 0.08043 1.00841 0.37022 0.0
H1685 H 0.57563 0.99778 0.87411 0.0
H1686 H 0.64019 0.04199 0.85836 0.0
H1687 H 0.61382 0.07922 0.85639 0.0
H1688 H 0.53223 0.02966 0.83864 0.0
H1689 H 0.50693 0.02768 0.85833 0.0
H1690 H 0.53076 1.00447 0.85836 0.0
H1691 H 0.53897 0.01282 0.90059 0.0
H1692 H 0.51511 0.03599 0.90071 0.0
H1693 H 0.54594 0.04374 0.90982 0.0
H1694 H 0.57965 0.1117 0.85419 0.0
H1695 H 0.54165 0.13707 0.85552 0.0
H1696 H 0.49927 0.07268 0.87505 0.0
C1697 C 0.58424 0.0153 0.87024 0.0
C1698 C 0.61016 0.0168 0.86632 0.0
C1699 C 0.62055 0.04024 0.86159 0.0
C1700 C 0.60563 0.06153 0.86031 0.0
C1701 C 0.58021 0.05937 0.86411 0.0
C1702 C 0.56963 0.03688 0.8693 0.0
C1703 C 0.54192 0.03975 0.87328 0.0
C1704 C 0.52709 0.02448 0.85613 0.0
C1705 C 0.53509 0.03265 0.89754 0.0
C1706 C 0.53848 0.06729 0.86935 0.0
C1707 C 0.56079 0.07821 0.86383 0.0
C1708 C 0.56218 0.1033 0.85869 0.0
C1709 C 0.54041 0.1176 0.85938 0.0
C1710 C 0.51735 0.10705 0.86548 0.0
C1711 C 0.51657 0.08145 0.87056 0.0
loop_
_geom_bond_atom_site_label_1
_geom_bond_atom_site_label_2
_geom_bond_distance
_geom_bond_site_symmetry_2
_ccdc_geom_bond_type
C0 C1 1.443 . S
C0 N4 1.376 . S
C0 C38 1.389 . S
C1 C0 1.443 . S
C1 C2 1.340 . S
C1 H41 0.951 . S
C2 C1 1.340 . S
C2 C3 1.439 . S
C2 H42 0.950 . S
C3 C2 1.439 . S
C3 N4 1.374 . S
C3 C37 1.395 . S
N4 C0 1.376 . S
N4 C3 1.374 . S
N4 Co5 2.008 . S
Co5 N4 2.008 . S
Co5 N6 1.995 . S
Co5 N11 2.008 . S
Co5 N16 1.995 . S
Co5 N21 2.282 . S
Co5 N27 2.282 . S
N6 Co5 1.995 . S
N6 C7 1.376 . S
N6 C10 1.383 . S
C7 N6 1.376 . S
C7 C8 1.446 . S
C7 C37 1.391 . S
C8 C7 1.446 . S
C8 C9 1.339 . S
C8 H43 0.949 . S
C9 C8 1.339 . S
C9 C10 1.439 . S
C9 H44 0.950 . S
C10 N6 1.383 . S
C10 C9 1.439 . S
C10 C39 1.392 . S
N11 Co5 2.008 . S
N11 C12 1.376 . S
N11 C15 1.374 . S
C12 N11 1.376 . S
C12 C13 1.443 . S
C12 C39 1.389 . S
C13 C12 1.443 . S
C13 C14 1.340 . S
C13 H45 0.951 . S
C14 C13 1.340 . S
C14 C15 1.439 . S
C14 H46 0.950 . S
C15 N11 1.374 . S
C15 C14 1.439 . S
C15 C40 1.395 . S
N16 Co5 1.995 . S
N16 C17 1.376 . S
N16 C20 1.383 . S
C17 N16 1.376 . S
C17 C18 1.446 . S
C17 C40 1.391 . S
C18 C17 1.446 . S
C18 C19 1.339 . S
C18 H47 0.949 . S
C19 C18 1.339 . S
C19 C20 1.439 . S
C19 H48 0.950 . S
C20 N16 1.383 . S
C20 C19 1.439 . S
C20 C38 1.392 . S
N21 Co5 2.282 . S
N21 C24 1.332 . S
N21 C26 1.332 . S
C22 C23 1.386 . S
C22 C25 1.388 . S
C23 C22 1.386 . S
C23 C24 1.382 . S
C23 H49 0.950 . S
C24 N21 1.332 . S
C24 C23 1.382 . S
C24 H35 0.952 . S
C25 C22 1.388 . S
C25 C26 1.382 . S
C25 H50 0.950 . S
C26 N21 1.332 . S
C26 C25 1.382 . S
C26 H36 0.948 . S
N27 Co5 2.282 . S
N27 C31 1.332 . S
N27 C32 1.332 . S
C28 C29 1.388 . S
C28 C32 1.382 . S
C28 H51 0.950 . S
C29 C28 1.388 . S
C29 C30 1.386 . S
C30 C29 1.386 . S
C30 C31 1.382 . S
C30 H52 0.950 . S
C31 N27 1.332 . S
C31 C30 1.382 . S
C31 H33 0.952 . S
C32 N27 1.332 . S
C32 C28 1.382 . S
C32 H34 0.948 . S
H33 C31 0.952 . S
H34 C32 0.948 . S
H35 C24 0.952 . S
H36 C26 0.948 . S
C37 C3 1.395 . S
C37 C7 1.391 . S
C38 C0 1.389 . S
C38 C20 1.392 . S
C39 C10 1.392 . S
C39 C12 1.389 . S
C40 C15 1.395 . S
C40 C17 1.391 . S
H41 C1 0.951 . S
H42 C2 0.950 . S
H43 C8 0.949 . S
H44 C9 0.950 . S
H45 C13 0.951 . S
H46 C14 0.950 . S
H47 C18 0.949 . S
H48 C19 0.950 . S
H49 C23 0.950 . S
H50 C25 0.950 . S
H51 C28 0.950 . S
H52 C30 0.950 . S
C53 C54 1.443 . S
C53 N57 1.376 . S
C53 C91 1.389 . S
C54 C53 1.443 . S
C54 C55 1.340 . S
C54 H94 0.951 . S
C55 C54 1.340 . S
C55 C56 1.439 . S
C55 H95 0.950 . S
C56 C55 1.439 . S
C56 N57 1.374 . S
C56 C90 1.395 . S
N57 C53 1.376 . S
N57 C56 1.374 . S
N57 Co58 2.008 . S
Co58 N57 2.008 . S
Co58 N59 1.995 . S
Co58 N64 2.008 . S
Co58 N69 1.995 . S
Co58 N74 2.282 . S
Co58 N80 2.282 . S
N59 Co58 1.995 . S
N59 C60 1.376 . S
N59 C63 1.383 . S
C60 N59 1.376 . S
C60 C61 1.446 . S
C60 C90 1.391 . S
C61 C60 1.446 . S
C61 C62 1.339 . S
C61 H96 0.949 . S
C62 C61 1.339 . S
C62 C63 1.439 . S
C62 H97 0.950 . S
C63 N59 1.383 . S
C63 C62 1.439 . S
C63 C92 1.392 . S
N64 Co58 2.008 . S
N64 C65 1.376 . S
N64 C68 1.374 . S
C65 N64 1.376 . S
C65 C66 1.443 . S
C65 C92 1.389 . S
C66 C65 1.443 . S
C66 C67 1.340 . S
C66 H98 0.951 . S
C67 C66 1.340 . S
C67 C68 1.439 . S
C67 H99 0.950 . S
C68 N64 1.374 . S
C68 C67 1.439 . S
C68 C93 1.395 . S
N69 Co58 1.995 . S
N69 C70 1.376 . S
N69 C73 1.383 . S
C70 N69 1.376 . S
C70 C71 1.446 . S
C70 C93 1.391 . S
C71 C70 1.446 . S
C71 C72 1.339 . S
C71 H100 0.949 . S
C72 C71 1.339 . S
C72 C73 1.439 . S
C72 H101 0.950 . S
C73 N69 1.383 . S
C73 C72 1.439 . S
C73 C91 1.392 . S
N74 Co58 2.282 . S
N74 C77 1.332 . S
N74 C79 1.332 . S
C75 C76 1.386 . S
C75 C78 1.388 . S
C76 C75 1.386 . S
C76 C77 1.382 . S
C76 H102 0.950 . S
C77 N74 1.332 . S
C77 C76 1.382 . S
C77 H88 0.952 . S
C78 C75 1.388 . S
C78 C79 1.382 . S
C78 H103 0.950 . S
C79 N74 1.332 . S
C79 C78 1.382 . S
C79 H89 0.948 . S
N80 Co58 2.282 . S
N80 C84 1.332 . S
N80 C85 1.332 . S
C81 C82 1.388 . S
C81 C85 1.382 . S
C81 H104 0.950 . S
C82 C81 1.388 . S
C82 C83 1.386 . S
C83 C82 1.386 . S
C83 C84 1.382 . S
C83 H105 0.950 . S
C84 N80 1.332 . S
C84 C83 1.382 . S
C84 H86 0.952 . S
C85 N80 1.332 . S
C85 C81 1.382 . S
C85 H87 0.948 . S
H86 C84 0.952 . S
H87 C85 0.948 . S
H88 C77 0.952 . S
H89 C79 0.948 . S
C90 C56 1.395 . S
C90 C60 1.391 . S
C91 C53 1.389 . S
C91 C73 1.392 . S
C92 C63 1.392 . S
C92 C65 1.389 . S
C93 C68 1.395 . S
C93 C70 1.391 . S
H94 C54 0.951 . S
H95 C55 0.950 . S
H96 C61 0.949 . S
H97 C62 0.950 . S
H98 C66 0.951 . S
H99 C67 0.950 . S
H100 C71 0.949 . S
H101 C72 0.950 . S
H102 C76 0.950 . S
H103 C78 0.950 . S
H104 C81 0.950 . S
H105 C83 0.950 . S
C106 C107 1.443 . S
C106 N110 1.376 . S
C106 C144 1.389 . S
C107 C106 1.443 . S
C107 C108 1.340 . S
C107 H147 0.951 . S
C108 C107 1.340 . S
C108 C109 1.439 . S
C108 H148 0.950 . S
C109 C108 1.439 . S
C109 N110 1.374 . S
C109 C143 1.395 . S
N110 C106 1.376 . S
N110 C109 1.374 . S
N110 Co111 2.008 . S
Co111 N110 2.008 . S
Co111 N112 1.995 . S
Co111 N117 2.008 . S
Co111 N122 1.995 . S
Co111 N127 2.282 . S
Co111 N133 2.282 . S
N112 Co111 1.995 . S
N112 C113 1.376 . S
N112 C116 1.383 . S
C113 N112 1.376 . S
C113 C114 1.446 . S
C113 C143 1.391 . S
C114 C113 1.446 . S
C114 C115 1.339 . S
C114 H149 0.949 . S
C115 C114 1.339 . S
C115 C116 1.439 . S
C115 H150 0.950 . S
C116 N112 1.383 . S
C116 C115 1.439 . S
C116 C145 1.392 . S
N117 Co111 2.008 . S
N117 C118 1.376 . S
N117 C121 1.374 . S
C118 N117 1.376 . S
C118 C119 1.443 . S
C118 C145 1.389 . S
C119 C118 1.443 . S
C119 C120 1.340 . S
C119 H151 0.951 . S
C120 C119 1.340 . S
C120 C121 1.439 . S
C120 H152 0.950 . S
C121 N117 1.374 . S
C121 C120 1.439 . S
C121 C146 1.395 . S
N122 Co111 1.995 . S
N122 C123 1.376 . S
N122 C126 1.383 . S
C123 N122 1.376 . S
C123 C124 1.446 . S
C123 C146 1.391 . S
C124 C123 1.446 . S
C124 C125 1.339 . S
C124 H153 0.949 . S
C125 C124 1.339 . S
C125 C126 1.439 . S
C125 H154 0.950 . S
C126 N122 1.383 . S
C126 C125 1.439 . S
C126 C144 1.392 . S
N127 Co111 2.282 . S
N127 C130 1.332 . S
N127 C132 1.332 . S
C128 C129 1.386 . S
C128 C131 1.388 . S
C129 C128 1.386 . S
C129 C130 1.382 . S
C129 H155 0.950 . S
C130 N127 1.332 . S
C130 C129 1.382 . S
C130 H141 0.952 . S
C131 C128 1.388 . S
C131 C132 1.382 . S
C131 H156 0.950 . S
C132 N127 1.332 . S
C132 C131 1.382 . S
C132 H142 0.948 . S
N133 Co111 2.282 . S
N133 C137 1.332 . S
N133 C138 1.332 . S
C134 C135 1.388 . S
C134 C138 1.382 . S
C134 H157 0.950 . S
C135 C134 1.388 . S
C135 C136 1.386 . S
C136 C135 1.386 . S
C136 C137 1.382 . S
C136 H158 0.950 . S
C137 N133 1.332 . S
C137 C136 1.382 . S
C137 H139 0.952 . S
C138 N133 1.332 . S
C138 C134 1.382 . S
C138 H140 0.948 . S
H139 C137 0.952 . S
H140 C138 0.948 . S
H141 C130 0.952 . S
H142 C132 0.948 . S
C143 C109 1.395 . S
C143 C113 1.391 . S
C144 C106 1.389 . S
C144 C126 1.392 . S
C145 C116 1.392 . S
C145 C118 1.389 . S
C146 C121 1.395 . S
C146 C123 1.391 . S
H147 C107 0.951 . S
H148 C108 0.950 . S
H149 C114 0.949 . S
H150 C115 0.950 . S
H151 C119 0.951 . S
H152 C120 0.950 . S
H153 C124 0.949 . S
H154 C125 0.950 . S
H155 C129 0.950 . S
H156 C131 0.950 . S
H157 C134 0.950 . S
H158 C136 0.950 . S
C159 C160 1.443 . S
C159 N163 1.376 . S
C159 C197 1.389 . S
C160 C159 1.443 . S
C160 C161 1.340 . S
C160 H200 0.951 . S
C161 C160 1.340 . S
C161 C162 1.439 . S
C161 H201 0.950 . S
C162 C161 1.439 . S
C162 N163 1.374 . S
C162 C196 1.395 . S
N163 C159 1.376 . S
N163 C162 1.374 . S
N163 Co164 2.008 . S
Co164 N163 2.008 . S
Co164 N165 1.995 . S
Co164 N170 2.008 . S
Co164 N175 1.995 . S
Co164 N180 2.282 . S
Co164 N186 2.282 . S
N165 Co164 1.995 . S
N165 C166 1.376 . S
N165 C169 1.383 . S
C166 N165 1.376 . S
C166 C167 1.446 . S
C166 C196 1.391 . S
C167 C166 1.446 . S
C167 C168 1.339 . S
C167 H202 0.949 . S
C168 C167 1.339 . S
C168 C169 1.439 . S
C168 H203 0.950 . S
C169 N165 1.383 . S
C169 C168 1.439 . S
C169 C198 1.392 . S
N170 Co164 2.008 . S
N170 C171 1.376 . S
N170 C174 1.374 . S
C171 N170 1.376 . S
C171 C172 1.443 . S
C171 C198 1.389 . S
C172 C171 1.443 . S
C172 C173 1.340 . S
C172 H204 0.951 . S
C173 C172 1.340 . S
C173 C174 1.439 . S
C173 H205 0.950 . S
C174 N170 1.374 . S
C174 C173 1.439 . S
C174 C199 1.395 . S
N175 Co164 1.995 . S
N175 C176 1.376 . S
N175 C179 1.383 . S
C176 N175 1.376 . S
C176 C177 1.446 . S
C176 C199 1.391 . S
C177 C176 1.446 . S
C177 C178 1.339 . S
C177 H206 0.949 . S
C178 C177 1.339 . S
C178 C179 1.439 . S
C178 H207 0.950 . S
C179 N175 1.383 . S
C179 C178 1.439 . S
C179 C197 1.392 . S
N180 Co164 2.282 . S
N180 C183 1.332 . S
N180 C185 1.332 . S
C181 C182 1.386 . S
C181 C184 1.388 . S
C182 C181 1.386 . S
C182 C183 1.382 . S
C182 H208 0.950 . S
C183 N180 1.332 . S
C183 C182 1.382 . S
C183 H194 0.952 . S
C184 C181 1.388 . S
C184 C185 1.382 . S
C184 H209 0.950 . S
C185 N180 1.332 . S
C185 C184 1.382 . S
C185 H195 0.948 . S
N186 Co164 2.282 . S
N186 C190 1.332 . S
N186 C191 1.332 . S
C187 C188 1.388 . S
C187 C191 1.382 . S
C187 H210 0.950 . S
C188 C187 1.388 . S
C188 C189 1.386 . S
C189 C188 1.386 . S
C189 C190 1.382 . S
C189 H211 0.950 . S
C190 N186 1.332 . S
C190 C189 1.382 . S
C190 H192 0.952 . S
C191 N186 1.332 . S
C191 C187 1.382 . S
C191 H193 0.948 . S
H192 C190 0.952 . S
H193 C191 0.948 . S
H194 C183 0.952 . S
H195 C185 0.948 . S
C196 C162 1.395 . S
C196 C166 1.391 . S
C197 C159 1.389 . S
C197 C179 1.392 . S
C198 C169 1.392 . S
C198 C171 1.389 . S
C199 C174 1.395 . S
C199 C176 1.391 . S
H200 C160 0.951 . S
H201 C161 0.950 . S
H202 C167 0.949 . S
H203 C168 0.950 . S
H204 C172 0.951 . S
H205 C173 0.950 . S
H206 C177 0.949 . S
H207 C178 0.950 . S
H208 C182 0.950 . S
H209 C184 0.950 . S
H210 C187 0.950 . S
H211 C189 0.950 . S
C212 C213 1.443 . S
C212 N216 1.376 . S
C212 C250 1.389 . S
C213 C212 1.443 . S
C213 C214 1.340 . S
C213 H253 0.951 . S
C214 C213 1.340 . S
C214 C215 1.439 . S
C214 H254 0.950 . S
C215 C214 1.439 . S
C215 N216 1.374 . S
C215 C249 1.395 . S
N216 C212 1.376 . S
N216 C215 1.374 . S
N216 Co217 2.008 . S
Co217 N216 2.008 . S
Co217 N218 1.995 . S
Co217 N223 2.008 . S
Co217 N228 1.995 . S
Co217 N233 2.282 . S
Co217 N239 2.282 . S
N218 Co217 1.995 . S
N218 C219 1.376 . S
N218 C222 1.383 . S
C219 N218 1.376 . S
C219 C220 1.446 . S
C219 C249 1.391 . S
C220 C219 1.446 . S
C220 C221 1.339 . S
C220 H255 0.949 . S
C221 C220 1.339 . S
C221 C222 1.439 . S
C221 H256 0.950 . S
C222 N218 1.383 . S
C222 C221 1.439 . S
C222 C251 1.392 . S
N223 Co217 2.008 . S
N223 C224 1.376 . S
N223 C227 1.374 . S
C224 N223 1.376 . S
C224 C225 1.443 . S
C224 C251 1.389 . S
C225 C224 1.443 . S
C225 C226 1.340 . S
C225 H257 0.951 . S
C226 C225 1.340 . S
C226 C227 1.439 . S
C226 H258 0.950 . S
C227 N223 1.374 . S
C227 C226 1.439 . S
C227 C252 1.395 . S
N228 Co217 1.995 . S
N228 C229 1.376 . S
N228 C232 1.383 . S
C229 N228 1.376 . S
C229 C230 1.446 . S
C229 C252 1.391 . S
C230 C229 1.446 . S
C230 C231 1.339 . S
C230 H259 0.949 . S
C231 C230 1.339 . S
C231 C232 1.439 . S
C231 H260 0.950 . S
C232 N228 1.383 . S
C232 C231 1.439 . S
C232 C250 1.392 . S
N233 Co217 2.282 . S
N233 C236 1.332 . S
N233 C238 1.332 . S
C234 C235 1.386 . S
C234 C237 1.388 . S
C235 C234 1.386 . S
C235 C236 1.382 . S
C235 H261 0.950 . S
C236 N233 1.332 . S
C236 C235 1.382 . S
C236 H247 0.952 . S
C237 C234 1.388 . S
C237 C238 1.382 . S
C237 H262 0.950 . S
C238 N233 1.332 . S
C238 C237 1.382 . S
C238 H248 0.948 . S
N239 Co217 2.282 . S
N239 C243 1.332 . S
N239 C244 1.332 . S
C240 C241 1.388 . S
C240 C244 1.382 . S
C240 H263 0.950 . S
C241 C240 1.388 . S
C241 C242 1.386 . S
C242 C241 1.386 . S
C242 C243 1.382 . S
C242 H264 0.950 . S
C243 N239 1.332 . S
C243 C242 1.382 . S
C243 H245 0.952 . S
C244 N239 1.332 . S
C244 C240 1.382 . S
C244 H246 0.948 . S
H245 C243 0.952 . S
H246 C244 0.948 . S
H247 C236 0.952 . S
H248 C238 0.948 . S
C249 C215 1.395 . S
C249 C219 1.391 . S
C250 C212 1.389 . S
C250 C232 1.392 . S
C251 C222 1.392 . S
C251 C224 1.389 . S
C252 C227 1.395 . S
C252 C229 1.391 . S
H253 C213 0.951 . S
H254 C214 0.950 . S
H255 C220 0.949 . S
H256 C221 0.950 . S
H257 C225 0.951 . S
H258 C226 0.950 . S
H259 C230 0.949 . S
H260 C231 0.950 . S
H261 C235 0.950 . S
H262 C237 0.950 . S
H263 C240 0.950 . S
H264 C242 0.950 . S
C265 C266 1.443 . S
C265 N269 1.376 . S
C265 C303 1.389 . S
C266 C265 1.443 . S
C266 C267 1.340 . S
C266 H306 0.951 . S
C267 C266 1.340 . S
C267 C268 1.439 . S
C267 H307 0.950 . S
C268 C267 1.439 . S
C268 N269 1.374 . S
C268 C302 1.395 . S
N269 C265 1.376 . S
N269 C268 1.374 . S
N269 Co270 2.008 . S
Co270 N269 2.008 . S
Co270 N271 1.995 . S
Co270 N276 2.008 . S
Co270 N281 1.995 . S
Co270 N286 2.282 . S
Co270 N292 2.282 . S
N271 Co270 1.995 . S
N271 C272 1.376 . S
N271 C275 1.383 . S
C272 N271 1.376 . S
C272 C273 1.446 . S
C272 C302 1.391 . S
C273 C272 1.446 . S
C273 C274 1.339 . S
C273 H308 0.949 . S
C274 C273 1.339 . S
C274 C275 1.439 . S
C274 H309 0.950 . S
C275 N271 1.383 . S
C275 C274 1.439 . S
C275 C304 1.392 . S
N276 Co270 2.008 . S
N276 C277 1.376 . S
N276 C280 1.374 . S
C277 N276 1.376 . S
C277 C278 1.443 . S
C277 C304 1.389 . S
C278 C277 1.443 . S
C278 C279 1.340 . S
C278 H310 0.951 . S
C279 C278 1.340 . S
C279 C280 1.439 . S
C279 H311 0.950 . S
C280 N276 1.374 . S
C280 C279 1.439 . S
C280 C305 1.395 . S
N281 Co270 1.995 . S
N281 C282 1.376 . S
N281 C285 1.383 . S
C282 N281 1.376 . S
C282 C283 1.446 . S
C282 C305 1.391 . S
C283 C282 1.446 . S
C283 C284 1.339 . S
C283 H312 0.949 . S
C284 C283 1.339 . S
C284 C285 1.439 . S
C284 H313 0.950 . S
C285 N281 1.383 . S
C285 C284 1.439 . S
C285 C303 1.392 . S
N286 Co270 2.282 . S
N286 C289 1.332 . S
N286 C291 1.332 . S
C287 C288 1.386 . S
C287 C290 1.388 . S
C288 C287 1.386 . S
C288 C289 1.382 . S
C288 H314 0.950 . S
C289 N286 1.332 . S
C289 C288 1.382 . S
C289 H300 0.952 . S
C290 C287 1.388 . S
C290 C291 1.382 . S
C290 H315 0.950 . S
C291 N286 1.332 . S
C291 C290 1.382 . S
C291 H301 0.948 . S
N292 Co270 2.282 . S
N292 C296 1.332 . S
N292 C297 1.332 . S
C293 C294 1.388 . S
C293 C297 1.382 . S
C293 H316 0.950 . S
C294 C293 1.388 . S
C294 C295 1.386 . S
C295 C294 1.386 . S
C295 C296 1.382 . S
C295 H317 0.950 . S
C296 N292 1.332 . S
C296 C295 1.382 . S
C296 H298 0.952 . S
C297 N292 1.332 . S
C297 C293 1.382 . S
C297 H299 0.948 . S
H298 C296 0.952 . S
H299 C297 0.948 . S
H300 C289 0.952 . S
H301 C291 0.948 . S
C302 C268 1.395 . S
C302 C272 1.391 . S
C303 C265 1.389 . S
C303 C285 1.392 . S
C304 C275 1.392 . S
C304 C277 1.389 . S
C305 C280 1.395 . S
C305 C282 1.391 . S
H306 C266 0.951 . S
H307 C267 0.950 . S
H308 C273 0.949 . S
H309 C274 0.950 . S
H310 C278 0.951 . S
H311 C279 0.950 . S
H312 C283 0.949 . S
H313 C284 0.950 . S
H314 C288 0.950 . S
H315 C290 0.950 . S
H316 C293 0.950 . S
H317 C295 0.950 . S
C318 C319 1.443 . S
C318 N322 1.376 . S
C318 C356 1.389 . S
C319 C318 1.443 . S
C319 C320 1.340 . S
C319 H359 0.951 . S
C320 C319 1.340 . S
C320 C321 1.439 . S
C320 H360 0.950 . S
C321 C320 1.439 . S
C321 N322 1.374 . S
C321 C355 1.395 . S
N322 C318 1.376 . S
N322 C321 1.374 . S
N322 Co323 2.008 . S
Co323 N322 2.008 . S
Co323 N324 1.995 . S
Co323 N329 2.008 . S
Co323 N334 1.995 . S
Co323 N339 2.282 . S
Co323 N345 2.282 . S
N324 Co323 1.995 . S
N324 C325 1.376 . S
N324 C328 1.383 . S
C325 N324 1.376 . S
C325 C326 1.446 . S
C325 C355 1.391 . S
C326 C325 1.446 . S
C326 C327 1.339 . S
C326 H361 0.949 . S
C327 C326 1.339 . S
C327 C328 1.439 . S
C327 H362 0.950 . S
C328 N324 1.383 . S
C328 C327 1.439 . S
C328 C357 1.392 . S
N329 Co323 2.008 . S
N329 C330 1.376 . S
N329 C333 1.374 . S
C330 N329 1.376 . S
C330 C331 1.443 . S
C330 C357 1.389 . S
C331 C330 1.443 . S
C331 C332 1.340 . S
C331 H363 0.951 . S
C332 C331 1.340 . S
C332 C333 1.439 . S
C332 H364 0.950 . S
C333 N329 1.374 . S
C333 C332 1.439 . S
C333 C358 1.395 . S
N334 Co323 1.995 . S
N334 C335 1.376 . S
N334 C338 1.383 . S
C335 N334 1.376 . S
C335 C336 1.446 . S
C335 C358 1.391 . S
C336 C335 1.446 . S
C336 C337 1.339 . S
C336 H365 0.949 . S
C337 C336 1.339 . S
C337 C338 1.439 . S
C337 H366 0.950 . S
C338 N334 1.383 . S
C338 C337 1.439 . S
C338 C356 1.392 . S
N339 Co323 2.282 . S
N339 C342 1.332 . S
N339 C344 1.332 . S
C340 C341 1.386 . S
C340 C343 1.388 . S
C341 C340 1.386 . S
C341 C342 1.382 . S
C341 H367 0.950 . S
C342 N339 1.332 . S
C342 C341 1.382 . S
C342 H353 0.952 . S
C343 C340 1.388 . S
C343 C344 1.382 . S
C343 H368 0.950 . S
C344 N339 1.332 . S
C344 C343 1.382 . S
C344 H354 0.948 . S
N345 Co323 2.282 . S
N345 C349 1.332 . S
N345 C350 1.332 . S
C346 C347 1.388 . S
C346 C350 1.382 . S
C346 H369 0.950 . S
C347 C346 1.388 . S
C347 C348 1.386 . S
C348 C347 1.386 . S
C348 C349 1.382 . S
C348 H370 0.950 . S
C349 N345 1.332 . S
C349 C348 1.382 . S
C349 H351 0.952 . S
C350 N345 1.332 . S
C350 C346 1.382 . S
C350 H352 0.948 . S
H351 C349 0.952 . S
H352 C350 0.948 . S
H353 C342 0.952 . S
H354 C344 0.948 . S
C355 C321 1.395 . S
C355 C325 1.391 . S
C356 C318 1.389 . S
C356 C338 1.392 . S
C357 C328 1.392 . S
C357 C330 1.389 . S
C358 C333 1.395 . S
C358 C335 1.391 . S
H359 C319 0.951 . S
H360 C320 0.950 . S
H361 C326 0.949 . S
H362 C327 0.950 . S
H363 C331 0.951 . S
H364 C332 0.950 . S
H365 C336 0.949 . S
H366 C337 0.950 . S
H367 C341 0.950 . S
H368 C343 0.950 . S
H369 C346 0.950 . S
H370 C348 0.950 . S
C371 C372 1.443 . S
C371 N375 1.376 . S
C371 C409 1.389 . S
C372 C371 1.443 . S
C372 C373 1.340 . S
C372 H412 0.951 . S
C373 C372 1.340 . S
C373 C374 1.439 . S
C373 H413 0.950 . S
C374 C373 1.439 . S
C374 N375 1.374 . S
C374 C408 1.395 . S
N375 C371 1.376 . S
N375 C374 1.374 . S
N375 Co376 2.008 . S
Co376 N375 2.008 . S
Co376 N377 1.995 . S
Co376 N382 2.008 . S
Co376 N387 1.995 . S
Co376 N392 2.282 . S
Co376 N398 2.282 . S
N377 Co376 1.995 . S
N377 C378 1.376 . S
N377 C381 1.383 . S
C378 N377 1.376 . S
C378 C379 1.446 . S
C378 C408 1.391 . S
C379 C378 1.446 . S
C379 C380 1.339 . S
C379 H414 0.949 . S
C380 C379 1.339 . S
C380 C381 1.439 . S
C380 H415 0.950 . S
C381 N377 1.383 . S
C381 C380 1.439 . S
C381 C410 1.392 . S
N382 Co376 2.008 . S
N382 C383 1.376 . S
N382 C386 1.374 . S
C383 N382 1.376 . S
C383 C384 1.443 . S
C383 C410 1.389 . S
C384 C383 1.443 . S
C384 C385 1.340 . S
C384 H416 0.951 . S
C385 C384 1.340 . S
C385 C386 1.439 . S
C385 H417 0.950 . S
C386 N382 1.374 . S
C386 C385 1.439 . S
C386 C411 1.395 . S
N387 Co376 1.995 . S
N387 C388 1.376 . S
N387 C391 1.383 . S
C388 N387 1.376 . S
C388 C389 1.446 . S
C388 C411 1.391 . S
C389 C388 1.446 . S
C389 C390 1.339 . S
C389 H418 0.949 . S
C390 C389 1.339 . S
C390 C391 1.439 . S
C390 H419 0.950 . S
C391 N387 1.383 . S
C391 C390 1.439 . S
C391 C409 1.392 . S
N392 Co376 2.282 . S
N392 C395 1.332 . S
N392 C397 1.332 . S
C393 C394 1.386 . S
C393 C396 1.388 . S
C394 C393 1.386 . S
C394 C395 1.382 . S
C394 H420 0.950 . S
C395 N392 1.332 . S
C395 C394 1.382 . S
C395 H406 0.952 . S
C396 C393 1.388 . S
C396 C397 1.382 . S
C396 H421 0.950 . S
C397 N392 1.332 . S
C397 C396 1.382 . S
C397 H407 0.948 . S
N398 Co376 2.282 . S
N398 C402 1.332 . S
N398 C403 1.332 . S
C399 C400 1.388 . S
C399 C403 1.382 . S
C399 H422 0.950 . S
C400 C399 1.388 . S
C400 C401 1.386 . S
C401 C400 1.386 . S
C401 C402 1.382 . S
C401 H423 0.950 . S
C402 N398 1.332 . S
C402 C401 1.382 . S
C402 H404 0.952 . S
C403 N398 1.332 . S
C403 C399 1.382 . S
C403 H405 0.948 . S
H404 C402 0.952 . S
H405 C403 0.948 . S
H406 C395 0.952 . S
H407 C397 0.948 . S
C408 C374 1.395 . S
C408 C378 1.391 . S
C409 C371 1.389 . S
C409 C391 1.392 . S
C410 C381 1.392 . S
C410 C383 1.389 . S
C411 C386 1.395 . S
C411 C388 1.391 . S
H412 C372 0.951 . S
H413 C373 0.950 . S
H414 C379 0.949 . S
H415 C380 0.950 . S
H416 C384 0.951 . S
H417 C385 0.950 . S
H418 C389 0.949 . S
H419 C390 0.950 . S
H420 C394 0.950 . S
H421 C396 0.950 . S
H422 C399 0.950 . S
H423 C401 0.950 . S
C424 C425 1.443 . S
C424 N428 1.376 . S
C424 C462 1.389 . S
C425 C424 1.443 . S
C425 C426 1.340 . S
C425 H465 0.951 . S
C426 C425 1.340 . S
C426 C427 1.439 . S
C426 H466 0.950 . S
C427 C426 1.439 . S
C427 N428 1.374 . S
C427 C461 1.395 . S
N428 C424 1.376 . S
N428 C427 1.374 . S
N428 Co429 2.008 . S
Co429 N428 2.008 . S
Co429 N430 1.995 . S
Co429 N435 2.008 . S
Co429 N440 1.995 . S
Co429 N445 2.282 . S
Co429 N451 2.282 . S
N430 Co429 1.995 . S
N430 C431 1.376 . S
N430 C434 1.383 . S
C431 N430 1.376 . S
C431 C432 1.446 . S
C431 C461 1.391 . S
C432 C431 1.446 . S
C432 C433 1.339 . S
C432 H467 0.949 . S
C433 C432 1.339 . S
C433 C434 1.439 . S
C433 H468 0.950 . S
C434 N430 1.383 . S
C434 C433 1.439 . S
C434 C463 1.392 . S
N435 Co429 2.008 . S
N435 C436 1.376 . S
N435 C439 1.374 . S
C436 N435 1.376 . S
C436 C437 1.443 . S
C436 C463 1.389 . S
C437 C436 1.443 . S
C437 C438 1.340 . S
C437 H469 0.951 . S
C438 C437 1.340 . S
C438 C439 1.439 . S
C438 H470 0.950 . S
C439 N435 1.374 . S
C439 C438 1.439 . S
C439 C464 1.395 . S
N440 Co429 1.995 . S
N440 C441 1.376 . S
N440 C444 1.383 . S
C441 N440 1.376 . S
C441 C442 1.446 . S
C441 C464 1.391 . S
C442 C441 1.446 . S
C442 C443 1.339 . S
C442 H471 0.949 . S
C443 C442 1.339 . S
C443 C444 1.439 . S
C443 H472 0.950 . S
C444 N440 1.383 . S
C444 C443 1.439 . S
C444 C462 1.392 . S
N445 Co429 2.282 . S
N445 C448 1.332 . S
N445 C450 1.332 . S
C446 C447 1.386 . S
C446 C449 1.388 . S
C447 C446 1.386 . S
C447 C448 1.382 . S
C447 H473 0.950 . S
C448 N445 1.332 . S
C448 C447 1.382 . S
C448 H459 0.952 . S
C449 C446 1.388 . S
C449 C450 1.382 . S
C449 H474 0.950 . S
C450 N445 1.332 . S
C450 C449 1.382 . S
C450 H460 0.948 . S
N451 Co429 2.282 . S
N451 C455 1.332 . S
N451 C456 1.332 . S
C452 C453 1.388 . S
C452 C456 1.382 . S
C452 H475 0.950 . S
C453 C452 1.388 . S
C453 C454 1.386 . S
C454 C453 1.386 . S
C454 C455 1.382 . S
C454 H476 0.950 . S
C455 N451 1.332 . S
C455 C454 1.382 . S
C455 H457 0.952 . S
C456 N451 1.332 . S
C456 C452 1.382 . S
C456 H458 0.948 . S
H457 C455 0.952 . S
H458 C456 0.948 . S
H459 C448 0.952 . S
H460 C450 0.948 . S
C461 C427 1.395 . S
C461 C431 1.391 . S
C462 C424 1.389 . S
C462 C444 1.392 . S
C463 C434 1.392 . S
C463 C436 1.389 . S
C464 C439 1.395 . S
C464 C441 1.391 . S
H465 C425 0.951 . S
H466 C426 0.950 . S
H467 C432 0.949 . S
H468 C433 0.950 . S
H469 C437 0.951 . S
H470 C438 0.950 . S
H471 C442 0.949 . S
H472 C443 0.950 . S
H473 C447 0.950 . S
H474 C449 0.950 . S
H475 C452 0.950 . S
H476 C454 0.950 . S
C477 C478 1.443 . S
C477 N481 1.376 . S
C477 C515 1.389 . S
C478 C477 1.443 . S
C478 C479 1.340 . S
C478 H518 0.951 . S
C479 C478 1.340 . S
C479 C480 1.439 . S
C479 H519 0.950 . S
C480 C479 1.439 . S
C480 N481 1.374 . S
C480 C514 1.395 . S
N481 C477 1.376 . S
N481 C480 1.374 . S
N481 Co482 2.008 . S
Co482 N481 2.008 . S
Co482 N483 1.995 . S
Co482 N488 2.008 . S
Co482 N493 1.995 . S
Co482 N498 2.282 . S
Co482 N504 2.282 . S
N483 Co482 1.995 . S
N483 C484 1.376 . S
N483 C487 1.383 . S
C484 N483 1.376 . S
C484 C485 1.446 . S
C484 C514 1.391 . S
C485 C484 1.446 . S
C485 C486 1.339 . S
C485 H520 0.949 . S
C486 C485 1.339 . S
C486 C487 1.439 . S
C486 H521 0.950 . S
C487 N483 1.383 . S
C487 C486 1.439 . S
C487 C516 1.392 . S
N488 Co482 2.008 . S
N488 C489 1.376 . S
N488 C492 1.374 . S
C489 N488 1.376 . S
C489 C490 1.443 . S
C489 C516 1.389 . S
C490 C489 1.443 . S
C490 C491 1.340 . S
C490 H522 0.951 . S
C491 C490 1.340 . S
C491 C492 1.439 . S
C491 H523 0.950 . S
C492 N488 1.374 . S
C492 C491 1.439 . S
C492 C517 1.395 . S
N493 Co482 1.995 . S
N493 C494 1.376 . S
N493 C497 1.383 . S
C494 N493 1.376 . S
C494 C495 1.446 . S
C494 C517 1.391 . S
C495 C494 1.446 . S
C495 C496 1.339 . S
C495 H524 0.949 . S
C496 C495 1.339 . S
C496 C497 1.439 . S
C496 H525 0.950 . S
C497 N493 1.383 . S
C497 C496 1.439 . S
C497 C515 1.392 . S
N498 Co482 2.282 . S
N498 C501 1.332 . S
N498 C503 1.332 . S
C499 C500 1.386 . S
C499 C502 1.388 . S
C500 C499 1.386 . S
C500 C501 1.382 . S
C500 H526 0.950 . S
C501 N498 1.332 . S
C501 C500 1.382 . S
C501 H512 0.952 . S
C502 C499 1.388 . S
C502 C503 1.382 . S
C502 H527 0.950 . S
C503 N498 1.332 . S
C503 C502 1.382 . S
C503 H513 0.948 . S
N504 Co482 2.282 . S
N504 C508 1.332 . S
N504 C509 1.332 . S
C505 C506 1.388 . S
C505 C509 1.382 . S
C505 H528 0.950 . S
C506 C505 1.388 . S
C506 C507 1.386 . S
C507 C506 1.386 . S
C507 C508 1.382 . S
C507 H529 0.950 . S
C508 N504 1.332 . S
C508 C507 1.382 . S
C508 H510 0.952 . S
C509 N504 1.332 . S
C509 C505 1.382 . S
C509 H511 0.948 . S
H510 C508 0.952 . S
H511 C509 0.948 . S
H512 C501 0.952 . S
H513 C503 0.948 . S
C514 C480 1.395 . S
C514 C484 1.391 . S
C515 C477 1.389 . S
C515 C497 1.392 . S
C516 C487 1.392 . S
C516 C489 1.389 . S
C517 C492 1.395 . S
C517 C494 1.391 . S
H518 C478 0.951 . S
H519 C479 0.950 . S
H520 C485 0.949 . S
H521 C486 0.950 . S
H522 C490 0.951 . S
H523 C491 0.950 . S
H524 C495 0.949 . S
H525 C496 0.950 . S
H526 C500 0.950 . S
H527 C502 0.950 . S
H528 C505 0.950 . S
H529 C507 0.950 . S
C530 C531 1.443 . S
C530 N534 1.376 . S
C530 C568 1.389 . S
C531 C530 1.443 . S
C531 C532 1.340 . S
C531 H571 0.951 . S
C532 C531 1.340 . S
C532 C533 1.439 . S
C532 H572 0.950 . S
C533 C532 1.439 . S
C533 N534 1.374 . S
C533 C567 1.395 . S
N534 C530 1.376 . S
N534 C533 1.374 . S
N534 Co535 2.008 . S
Co535 N534 2.008 . S
Co535 N536 1.995 . S
Co535 N541 2.008 . S
Co535 N546 1.995 . S
Co535 N551 2.282 . S
Co535 N557 2.282 . S
N536 Co535 1.995 . S
N536 C537 1.376 . S
N536 C540 1.383 . S
C537 N536 1.376 . S
C537 C538 1.446 . S
C537 C567 1.391 . S
C538 C537 1.446 . S
C538 C539 1.339 . S
C538 H573 0.949 . S
C539 C538 1.339 . S
C539 C540 1.439 . S
C539 H574 0.950 . S
C540 N536 1.383 . S
C540 C539 1.439 . S
C540 C569 1.392 . S
N541 Co535 2.008 . S
N541 C542 1.376 . S
N541 C545 1.374 . S
C542 N541 1.376 . S
C542 C543 1.443 . S
C542 C569 1.389 . S
C543 C542 1.443 . S
C543 C544 1.340 . S
C543 H575 0.951 . S
C544 C543 1.340 . S
C544 C545 1.439 . S
C544 H576 0.950 . S
C545 N541 1.374 . S
C545 C544 1.439 . S
C545 C570 1.395 . S
N546 Co535 1.995 . S
N546 C547 1.376 . S
N546 C550 1.383 . S
C547 N546 1.376 . S
C547 C548 1.446 . S
C547 C570 1.391 . S
C548 C547 1.446 . S
C548 C549 1.339 . S
C548 H577 0.949 . S
C549 C548 1.339 . S
C549 C550 1.439 . S
C549 H578 0.950 . S
C550 N546 1.383 . S
C550 C549 1.439 . S
C550 C568 1.392 . S
N551 Co535 2.282 . S
N551 C554 1.332 . S
N551 C556 1.332 . S
C552 C553 1.386 . S
C552 C555 1.388 . S
C553 C552 1.386 . S
C553 C554 1.382 . S
C553 H579 0.950 . S
C554 N551 1.332 . S
C554 C553 1.382 . S
C554 H565 0.952 . S
C555 C552 1.388 . S
C555 C556 1.382 . S
C555 H580 0.950 . S
C556 N551 1.332 . S
C556 C555 1.382 . S
C556 H566 0.948 . S
N557 Co535 2.282 . S
N557 C561 1.332 . S
N557 C562 1.332 . S
C558 C559 1.388 . S
C558 C562 1.382 . S
C558 H581 0.950 . S
C559 C558 1.388 . S
C559 C560 1.386 . S
C560 C559 1.386 . S
C560 C561 1.382 . S
C560 H582 0.950 . S
C561 N557 1.332 . S
C561 C560 1.382 . S
C561 H563 0.952 . S
C562 N557 1.332 . S
C562 C558 1.382 . S
C562 H564 0.948 . S
H563 C561 0.952 . S
H564 C562 0.948 . S
H565 C554 0.952 . S
H566 C556 0.948 . S
C567 C533 1.395 . S
C567 C537 1.391 . S
C568 C530 1.389 . S
C568 C550 1.392 . S
C569 C540 1.392 . S
C569 C542 1.389 . S
C570 C545 1.395 . S
C570 C547 1.391 . S
H571 C531 0.951 . S
H572 C532 0.950 . S
H573 C538 0.949 . S
H574 C539 0.950 . S
H575 C543 0.951 . S
H576 C544 0.950 . S
H577 C548 0.949 . S
H578 C549 0.950 . S
H579 C553 0.950 . S
H580 C555 0.950 . S
H581 C558 0.950 . S
H582 C560 0.950 . S
C583 C584 1.443 . S
C583 N587 1.376 . S
C583 C621 1.389 . S
C584 C583 1.443 . S
C584 C585 1.340 . S
C584 H624 0.951 . S
C585 C584 1.340 . S
C585 C586 1.439 . S
C585 H625 0.950 . S
C586 C585 1.439 . S
C586 N587 1.374 . S
C586 C620 1.395 . S
N587 C583 1.376 . S
N587 C586 1.374 . S
N587 Co588 2.008 . S
Co588 N587 2.008 . S
Co588 N589 1.995 . S
Co588 N594 2.008 . S
Co588 N599 1.995 . S
Co588 N604 2.282 . S
Co588 N610 2.282 . S
N589 Co588 1.995 . S
N589 C590 1.376 . S
N589 C593 1.383 . S
C590 N589 1.376 . S
C590 C591 1.446 . S
C590 C620 1.391 . S
C591 C590 1.446 . S
C591 C592 1.339 . S
C591 H626 0.949 . S
C592 C591 1.339 . S
C592 C593 1.439 . S
C592 H627 0.950 . S
C593 N589 1.383 . S
C593 C592 1.439 . S
C593 C622 1.392 . S
N594 Co588 2.008 . S
N594 C595 1.376 . S
N594 C598 1.374 . S
C595 N594 1.376 . S
C595 C596 1.443 . S
C595 C622 1.389 . S
C596 C595 1.443 . S
C596 C597 1.340 . S
C596 H628 0.951 . S
C597 C596 1.340 . S
C597 C598 1.439 . S
C597 H629 0.950 . S
C598 N594 1.374 . S
C598 C597 1.439 . S
C598 C623 1.395 . S
N599 Co588 1.995 . S
N599 C600 1.376 . S
N599 C603 1.383 . S
C600 N599 1.376 . S
C600 C601 1.446 . S
C600 C623 1.391 . S
C601 C600 1.446 . S
C601 C602 1.339 . S
C601 H630 0.949 . S
C602 C601 1.339 . S
C602 C603 1.439 . S
C602 H631 0.950 . S
C603 N599 1.383 . S
C603 C602 1.439 . S
C603 C621 1.392 . S
N604 Co588 2.282 . S
N604 C607 1.332 . S
N604 C609 1.332 . S
C605 C606 1.386 . S
C605 C608 1.388 . S
C606 C605 1.386 . S
C606 C607 1.382 . S
C606 H632 0.950 . S
C607 N604 1.332 . S
C607 C606 1.382 . S
C607 H618 0.952 . S
C608 C605 1.388 . S
C608 C609 1.382 . S
C608 H633 0.950 . S
C609 N604 1.332 . S
C609 C608 1.382 . S
C609 H619 0.948 . S
N610 Co588 2.282 . S
N610 C614 1.332 . S
N610 C615 1.332 . S
C611 C612 1.388 . S
C611 C615 1.382 . S
C611 H634 0.950 . S
C612 C611 1.388 . S
C612 C613 1.386 . S
C613 C612 1.386 . S
C613 C614 1.382 . S
C613 H635 0.950 . S
C614 N610 1.332 . S
C614 C613 1.382 . S
C614 H616 0.952 . S
C615 N610 1.332 . S
C615 C611 1.382 . S
C615 H617 0.948 . S
H616 C614 0.952 . S
H617 C615 0.948 . S
H618 C607 0.952 . S
H619 C609 0.948 . S
C620 C586 1.395 . S
C620 C590 1.391 . S
C621 C583 1.389 . S
C621 C603 1.392 . S
C622 C593 1.392 . S
C622 C595 1.389 . S
C623 C598 1.395 . S
C623 C600 1.391 . S
H624 C584 0.951 . S
H625 C585 0.950 . S
H626 C591 0.949 . S
H627 C592 0.950 . S
H628 C596 0.951 . S
H629 C597 0.950 . S
H630 C601 0.949 . S
H631 C602 0.950 . S
H632 C606 0.950 . S
H633 C608 0.950 . S
H634 C611 0.950 . S
H635 C613 0.950 . S
C636 C637 1.443 . S
C636 N640 1.376 . S
C636 C674 1.389 . S
C637 C636 1.443 . S
C637 C638 1.340 . S
C637 H677 0.951 . S
C638 C637 1.340 . S
C638 C639 1.439 . S
C638 H678 0.950 . S
C639 C638 1.439 . S
C639 N640 1.374 . S
C639 C673 1.395 . S
N640 C636 1.376 . S
N640 C639 1.374 . S
N640 Co641 2.008 . S
Co641 N640 2.008 . S
Co641 N642 1.995 . S
Co641 N647 2.008 . S
Co641 N652 1.995 . S
Co641 N657 2.282 . S
Co641 N663 2.282 . S
N642 Co641 1.995 . S
N642 C643 1.376 . S
N642 C646 1.383 . S
C643 N642 1.376 . S
C643 C644 1.446 . S
C643 C673 1.391 . S
C644 C643 1.446 . S
C644 C645 1.339 . S
C644 H679 0.949 . S
C645 C644 1.339 . S
C645 C646 1.439 . S
C645 H680 0.950 . S
C646 N642 1.383 . S
C646 C645 1.439 . S
C646 C675 1.392 . S
N647 Co641 2.008 . S
N647 C648 1.376 . S
N647 C651 1.374 . S
C648 N647 1.376 . S
C648 C649 1.443 . S
C648 C675 1.389 . S
C649 C648 1.443 . S
C649 C650 1.340 . S
C649 H681 0.951 . S
C650 C649 1.340 . S
C650 C651 1.439 . S
C650 H682 0.950 . S
C651 N647 1.374 . S
C651 C650 1.439 . S
C651 C676 1.395 . S
N652 Co641 1.995 . S
N652 C653 1.376 . S
N652 C656 1.383 . S
C653 N652 1.376 . S
C653 C654 1.446 . S
C653 C676 1.391 . S
C654 C653 1.446 . S
C654 C655 1.339 . S
C654 H683 0.949 . S
C655 C654 1.339 . S
C655 C656 1.439 . S
C655 H684 0.950 . S
C656 N652 1.383 . S
C656 C655 1.439 . S
C656 C674 1.392 . S
N657 Co641 2.282 . S
N657 C660 1.332 . S
N657 C662 1.332 . S
C658 C659 1.386 . S
C658 C661 1.388 . S
C659 C658 1.386 . S
C659 C660 1.382 . S
C659 H685 0.950 . S
C660 N657 1.332 . S
C660 C659 1.382 . S
C660 H671 0.952 . S
C661 C658 1.388 . S
C661 C662 1.382 . S
C661 H686 0.950 . S
C662 N657 1.332 . S
C662 C661 1.382 . S
C662 H672 0.948 . S
N663 Co641 2.282 . S
N663 C667 1.332 . S
N663 C668 1.332 . S
C664 C665 1.388 . S
C664 C668 1.382 . S
C664 H687 0.950 . S
C665 C664 1.388 . S
C665 C666 1.386 . S
C666 C665 1.386 . S
C666 C667 1.382 . S
C666 H688 0.950 . S
C667 N663 1.332 . S
C667 C666 1.382 . S
C667 H669 0.952 . S
C668 N663 1.332 . S
C668 C664 1.382 . S
C668 H670 0.948 . S
H669 C667 0.952 . S
H670 C668 0.948 . S
H671 C660 0.952 . S
H672 C662 0.948 . S
C673 C639 1.395 . S
C673 C643 1.391 . S
C674 C636 1.389 . S
C674 C656 1.392 . S
C675 C646 1.392 . S
C675 C648 1.389 . S
C676 C651 1.395 . S
C676 C653 1.391 . S
H677 C637 0.951 . S
H678 C638 0.950 . S
H679 C644 0.949 . S
H680 C645 0.950 . S
H681 C649 0.951 . S
H682 C650 0.950 . S
H683 C654 0.949 . S
H684 C655 0.950 . S
H685 C659 0.950 . S
H686 C661 0.950 . S
H687 C664 0.950 . S
H688 C666 0.950 . S
C689 C690 1.443 . S
C689 N693 1.376 . S
C689 C727 1.389 . S
C690 C689 1.443 . S
C690 C691 1.340 . S
C690 H730 0.951 . S
C691 C690 1.340 . S
C691 C692 1.439 . S
C691 H731 0.950 . S
C692 C691 1.439 . S
C692 N693 1.374 . S
C692 C726 1.395 . S
N693 C689 1.376 . S
N693 C692 1.374 . S
N693 Co694 2.008 . S
Co694 N693 2.008 . S
Co694 N695 1.995 . S
Co694 N700 2.008 . S
Co694 N705 1.995 . S
Co694 N710 2.282 . S
Co694 N716 2.282 . S
N695 Co694 1.995 . S
N695 C696 1.376 . S
N695 C699 1.383 . S
C696 N695 1.376 . S
C696 C697 1.446 . S
C696 C726 1.391 . S
C697 C696 1.446 . S
C697 C698 1.339 . S
C697 H732 0.949 . S
C698 C697 1.339 . S
C698 C699 1.439 . S
C698 H733 0.950 . S
C699 N695 1.383 . S
C699 C698 1.439 . S
C699 C728 1.392 . S
N700 Co694 2.008 . S
N700 C701 1.376 . S
N700 C704 1.374 . S
C701 N700 1.376 . S
C701 C702 1.443 . S
C701 C728 1.389 . S
C702 C701 1.443 . S
C702 C703 1.340 . S
C702 H734 0.951 . S
C703 C702 1.340 . S
C703 C704 1.439 . S
C703 H735 0.950 . S
C704 N700 1.374 . S
C704 C703 1.439 . S
C704 C729 1.395 . S
N705 Co694 1.995 . S
N705 C706 1.376 . S
N705 C709 1.383 . S
C706 N705 1.376 . S
C706 C707 1.446 . S
C706 C729 1.391 . S
C707 C706 1.446 . S
C707 C708 1.339 . S
C707 H736 0.949 . S
C708 C707 1.339 . S
C708 C709 1.439 . S
C708 H737 0.950 . S
C709 N705 1.383 . S
C709 C708 1.439 . S
C709 C727 1.392 . S
N710 Co694 2.282 . S
N710 C713 1.332 . S
N710 C715 1.332 . S
C711 C712 1.386 . S
C711 C714 1.388 . S
C712 C711 1.386 . S
C712 C713 1.382 . S
C712 H738 0.950 . S
C713 N710 1.332 . S
C713 C712 1.382 . S
C713 H724 0.952 . S
C714 C711 1.388 . S
C714 C715 1.382 . S
C714 H739 0.950 . S
C715 N710 1.332 . S
C715 C714 1.382 . S
C715 H725 0.948 . S
N716 Co694 2.282 . S
N716 C720 1.332 . S
N716 C721 1.332 . S
C717 C718 1.388 . S
C717 C721 1.382 . S
C717 H740 0.950 . S
C718 C717 1.388 . S
C718 C719 1.386 . S
C719 C718 1.386 . S
C719 C720 1.382 . S
C719 H741 0.950 . S
C720 N716 1.332 . S
C720 C719 1.382 . S
C720 H722 0.952 . S
C721 N716 1.332 . S
C721 C717 1.382 . S
C721 H723 0.948 . S
H722 C720 0.952 . S
H723 C721 0.948 . S
H724 C713 0.952 . S
H725 C715 0.948 . S
C726 C692 1.395 . S
C726 C696 1.391 . S
C727 C689 1.389 . S
C727 C709 1.392 . S
C728 C699 1.392 . S
C728 C701 1.389 . S
C729 C704 1.395 . S
C729 C706 1.391 . S
H730 C690 0.951 . S
H731 C691 0.950 . S
H732 C697 0.949 . S
H733 C698 0.950 . S
H734 C702 0.951 . S
H735 C703 0.950 . S
H736 C707 0.949 . S
H737 C708 0.950 . S
H738 C712 0.950 . S
H739 C714 0.950 . S
H740 C717 0.950 . S
H741 C719 0.950 . S
C742 C743 1.443 . S
C742 N746 1.376 . S
C742 C780 1.389 . S
C743 C742 1.443 . S
C743 C744 1.340 . S
C743 H783 0.951 . S
C744 C743 1.340 . S
C744 C745 1.439 . S
C744 H784 0.950 . S
C745 C744 1.439 . S
C745 N746 1.374 . S
C745 C779 1.395 . S
N746 C742 1.376 . S
N746 C745 1.374 . S
N746 Co747 2.008 . S
Co747 N746 2.008 . S
Co747 N748 1.995 . S
Co747 N753 2.008 . S
Co747 N758 1.995 . S
Co747 N763 2.282 . S
Co747 N769 2.282 . S
N748 Co747 1.995 . S
N748 C749 1.376 . S
N748 C752 1.383 . S
C749 N748 1.376 . S
C749 C750 1.446 . S
C749 C779 1.391 . S
C750 C749 1.446 . S
C750 C751 1.339 . S
C750 H785 0.949 . S
C751 C750 1.339 . S
C751 C752 1.439 . S
C751 H786 0.950 . S
C752 N748 1.383 . S
C752 C751 1.439 . S
C752 C781 1.392 . S
N753 Co747 2.008 . S
N753 C754 1.376 . S
N753 C757 1.374 . S
C754 N753 1.376 . S
C754 C755 1.443 . S
C754 C781 1.389 . S
C755 C754 1.443 . S
C755 C756 1.340 . S
C755 H787 0.951 . S
C756 C755 1.340 . S
C756 C757 1.439 . S
C756 H788 0.950 . S
C757 N753 1.374 . S
C757 C756 1.439 . S
C757 C782 1.395 . S
N758 Co747 1.995 . S
N758 C759 1.376 . S
N758 C762 1.383 . S
C759 N758 1.376 . S
C759 C760 1.446 . S
C759 C782 1.391 . S
C760 C759 1.446 . S
C760 C761 1.339 . S
C760 H789 0.949 . S
C761 C760 1.339 . S
C761 C762 1.439 . S
C761 H790 0.950 . S
C762 N758 1.383 . S
C762 C761 1.439 . S
C762 C780 1.392 . S
N763 Co747 2.282 . S
N763 C766 1.332 . S
N763 C768 1.332 . S
C764 C765 1.386 . S
C764 C767 1.388 . S
C765 C764 1.386 . S
C765 C766 1.382 . S
C765 H791 0.950 . S
C766 N763 1.332 . S
C766 C765 1.382 . S
C766 H777 0.952 . S
C767 C764 1.388 . S
C767 C768 1.382 . S
C767 H792 0.950 . S
C768 N763 1.332 . S
C768 C767 1.382 . S
C768 H778 0.948 . S
N769 Co747 2.282 . S
N769 C773 1.332 . S
N769 C774 1.332 . S
C770 C771 1.388 . S
C770 C774 1.382 . S
C770 H793 0.950 . S
C771 C770 1.388 . S
C771 C772 1.386 . S
C772 C771 1.386 . S
C772 C773 1.382 . S
C772 H794 0.950 . S
C773 N769 1.332 . S
C773 C772 1.382 . S
C773 H775 0.952 . S
C774 N769 1.332 . S
C774 C770 1.382 . S
C774 H776 0.948 . S
H775 C773 0.952 . S
H776 C774 0.948 . S
H777 C766 0.952 . S
H778 C768 0.948 . S
C779 C745 1.395 . S
C779 C749 1.391 . S
C780 C742 1.389 . S
C780 C762 1.392 . S
C781 C752 1.392 . S
C781 C754 1.389 . S
C782 C757 1.395 . S
C782 C759 1.391 . S
H783 C743 0.951 . S
H784 C744 0.950 . S
H785 C750 0.949 . S
H786 C751 0.950 . S
H787 C755 0.951 . S
H788 C756 0.950 . S
H789 C760 0.949 . S
H790 C761 0.950 . S
H791 C765 0.950 . S
H792 C767 0.950 . S
H793 C770 0.950 . S
H794 C772 0.950 . S
C795 C796 1.443 . S
C795 N799 1.376 . S
C795 C833 1.389 . S
C796 C795 1.443 . S
C796 C797 1.340 . S
C796 H836 0.951 . S
C797 C796 1.340 . S
C797 C798 1.439 . S
C797 H837 0.950 . S
C798 C797 1.439 . S
C798 N799 1.374 . S
C798 C832 1.395 . S
N799 C795 1.376 . S
N799 C798 1.374 . S
N799 Co800 2.008 . S
Co800 N799 2.008 . S
Co800 N801 1.995 . S
Co800 N806 2.008 . S
Co800 N811 1.995 . S
Co800 N816 2.282 . S
Co800 N822 2.282 . S
N801 Co800 1.995 . S
N801 C802 1.376 . S
N801 C805 1.383 . S
C802 N801 1.376 . S
C802 C803 1.446 . S
C802 C832 1.391 . S
C803 C802 1.446 . S
C803 C804 1.339 . S
C803 H838 0.949 . S
C804 C803 1.339 . S
C804 C805 1.439 . S
C804 H839 0.950 . S
C805 N801 1.383 . S
C805 C804 1.439 . S
C805 C834 1.392 . S
N806 Co800 2.008 . S
N806 C807 1.376 . S
N806 C810 1.374 . S
C807 N806 1.376 . S
C807 C808 1.443 . S
C807 C834 1.389 . S
C808 C807 1.443 . S
C808 C809 1.340 . S
C808 H840 0.951 . S
C809 C808 1.340 . S
C809 C810 1.439 . S
C809 H841 0.950 . S
C810 N806 1.374 . S
C810 C809 1.439 . S
C810 C835 1.395 . S
N811 Co800 1.995 . S
N811 C812 1.376 . S
N811 C815 1.383 . S
C812 N811 1.376 . S
C812 C813 1.446 . S
C812 C835 1.391 . S
C813 C812 1.446 . S
C813 C814 1.339 . S
C813 H842 0.949 . S
C814 C813 1.339 . S
C814 C815 1.439 . S
C814 H843 0.950 . S
C815 N811 1.383 . S
C815 C814 1.439 . S
C815 C833 1.392 . S
N816 Co800 2.282 . S
N816 C819 1.332 . S
N816 C821 1.332 . S
C817 C818 1.386 . S
C817 C820 1.388 . S
C818 C817 1.386 . S
C818 C819 1.382 . S
C818 H844 0.950 . S
C819 N816 1.332 . S
C819 C818 1.382 . S
C819 H830 0.952 . S
C820 C817 1.388 . S
C820 C821 1.382 . S
C820 H845 0.950 . S
C821 N816 1.332 . S
C821 C820 1.382 . S
C821 H831 0.948 . S
N822 Co800 2.282 . S
N822 C826 1.332 . S
N822 C827 1.332 . S
C823 C824 1.388 . S
C823 C827 1.382 . S
C823 H846 0.950 . S
C824 C823 1.388 . S
C824 C825 1.386 . S
C825 C824 1.386 . S
C825 C826 1.382 . S
C825 H847 0.950 . S
C826 N822 1.332 . S
C826 C825 1.382 . S
C826 H828 0.952 . S
C827 N822 1.332 . S
C827 C823 1.382 . S
C827 H829 0.948 . S
H828 C826 0.952 . S
H829 C827 0.948 . S
H830 C819 0.952 . S
H831 C821 0.948 . S
C832 C798 1.395 . S
C832 C802 1.391 . S
C833 C795 1.389 . S
C833 C815 1.392 . S
C834 C805 1.392 . S
C834 C807 1.389 . S
C835 C810 1.395 . S
C835 C812 1.391 . S
H836 C796 0.951 . S
H837 C797 0.950 . S
H838 C803 0.949 . S
H839 C804 0.950 . S
H840 C808 0.951 . S
H841 C809 0.950 . S
H842 C813 0.949 . S
H843 C814 0.950 . S
H844 C818 0.950 . S
H845 C820 0.950 . S
H846 C823 0.950 . S
H847 C825 0.950 . S
H848 C860 0.930 . S
H849 C862 0.930 . S
H850 C863 0.930 . S
H851 C867 0.959 . S
H852 C867 0.959 1_554 S
H853 C867 0.961 . S
H854 C868 0.960 . S
H855 C868 0.961 1_554 S
H856 C868 0.961 . S
H857 C871 0.929 . S
H858 C872 0.931 . S
H859 C874 0.930 . S
C860 H848 0.930 . S
C860 C861 1.399 . S
C860 C865 1.399 . S
C861 C860 1.399 . S
C861 C862 1.376 . S
C862 H849 0.930 . S
C862 C861 1.376 . S
C862 C863 1.388 . S
C863 H850 0.930 . S
C863 C862 1.388 . S
C863 C864 1.390 . S
C864 C863 1.390 . S
C864 C865 1.394 . S
C864 C870 1.465 1_556 S
C865 C860 1.399 . S
C865 C864 1.394 . S
C865 C866 1.516 . S
C866 C865 1.516 . S
C866 C867 1.502 . S
C866 C868 1.561 . S
C866 C869 1.526 1_556 S
C867 H851 0.959 . S
C867 H852 0.959 1_556 S
C867 H853 0.961 . S
C867 C866 1.502 . S
C868 H854 0.960 . S
C868 H855 0.961 1_556 S
C868 H856 0.961 . S
C868 C866 1.561 . S
C869 C866 1.526 1_554 S
C869 C870 1.396 . S
C869 C874 1.390 . S
C870 C864 1.465 1_554 S
C870 C869 1.396 . S
C870 C871 1.399 . S
C871 H857 0.929 . S
C871 C870 1.399 . S
C871 C872 1.385 . S
C872 H858 0.931 . S
C872 C871 1.385 . S
C872 C873 1.389 . S
C873 C872 1.389 . S
C873 C874 1.387 . S
C874 H859 0.930 . S
C874 C869 1.390 . S
C874 C873 1.387 . S
H875 C887 0.930 . S
H876 C889 0.930 . S
H877 C890 0.930 . S
H878 C894 0.959 . S
H879 C894 0.959 . S
H880 C894 0.961 . S
H881 C895 0.960 . S
H882 C895 0.961 . S
H883 C895 0.959 . S
H884 C898 0.929 . S
H885 C899 0.931 . S
H886 C901 0.930 . S
C887 H875 0.930 . S
C887 C888 1.399 . S
C887 C892 1.399 . S
C888 C887 1.399 . S
C888 C889 1.376 . S
C889 H876 0.930 . S
C889 C888 1.376 . S
C889 C890 1.388 . S
C890 H877 0.930 . S
C890 C889 1.388 . S
C890 C891 1.390 . S
C891 C890 1.390 . S
C891 C892 1.394 . S
C891 C897 1.465 . S
C892 C887 1.399 . S
C892 C891 1.394 . S
C892 C893 1.516 . S
C893 C892 1.516 . S
C893 C894 1.502 . S
C893 C895 1.561 . S
C893 C896 1.526 . S
C894 H878 0.959 . S
C894 H879 0.959 . S
C894 H880 0.961 . S
C894 C893 1.502 . S
C895 H881 0.960 . S
C895 H882 0.961 . S
C895 H883 0.959 . S
C895 C893 1.561 . S
C896 C893 1.526 . S
C896 C897 1.396 . S
C896 C901 1.390 . S
C897 C891 1.465 . S
C897 C896 1.396 . S
C897 C898 1.399 . S
C898 H884 0.929 . S
C898 C897 1.399 . S
C898 C899 1.385 . S
C899 H885 0.931 . S
C899 C898 1.385 . S
C899 C900 1.389 . S
C900 C899 1.389 . S
C900 C901 1.387 . S
C901 H886 0.930 . S
C901 C896 1.390 . S
C901 C900 1.387 . S
H902 C914 0.930 . S
H903 C916 0.930 . S
H904 C917 0.930 . S
H905 C921 0.959 . S
H906 C921 0.959 . S
H907 C921 0.961 1_556 S
H908 C922 0.960 1_556 S
H909 C922 0.961 . S
H910 C922 0.959 . S
H911 C925 0.929 . S
H912 C926 0.931 . S
H913 C928 0.930 . S
C914 H902 0.930 . S
C914 C915 1.399 . S
C914 C919 1.399 . S
C915 C914 1.399 . S
C915 C916 1.376 . S
C916 H903 0.930 . S
C916 C915 1.376 . S
C916 C917 1.388 . S
C917 H904 0.930 . S
C917 C916 1.388 . S
C917 C918 1.390 . S
C918 C917 1.390 . S
C918 C919 1.394 . S
C918 C924 1.465 1_556 S
C919 C914 1.399 . S
C919 C918 1.394 . S
C919 C920 1.516 1_556 S
C920 C919 1.516 1_554 S
C920 C921 1.502 . S
C920 C922 1.561 . S
C920 C923 1.526 . S
C921 H905 0.959 . S
C921 H906 0.959 . S
C921 H907 0.961 1_554 S
C921 C920 1.502 . S
C922 H908 0.960 1_554 S
C922 H909 0.961 . S
C922 H910 0.959 . S
C922 C920 1.561 . S
C923 C920 1.526 . S
C923 C924 1.396 . S
C923 C928 1.390 . S
C924 C918 1.465 1_554 S
C924 C923 1.396 . S
C924 C925 1.399 . S
C925 H911 0.929 . S
C925 C924 1.399 . S
C925 C926 1.385 . S
C926 H912 0.931 . S
C926 C925 1.385 . S
C926 C927 1.389 . S
C927 C926 1.389 . S
C927 C928 1.387 . S
C928 H913 0.930 . S
C928 C923 1.390 . S
C928 C927 1.387 . S
H929 C941 0.930 . S
H930 C943 0.930 . S
H931 C944 0.930 . S
H932 C948 0.959 . S
H933 C948 0.959 . S
H934 C948 0.961 . S
H935 C949 0.960 . S
H936 C949 0.961 . S
H937 C949 0.959 . S
H938 C952 0.929 . S
H939 C953 0.931 . S
H940 C955 0.930 . S
C941 H929 0.930 . S
C941 C942 1.399 . S
C941 C946 1.399 . S
C942 C941 1.399 . S
C942 C943 1.376 . S
C943 H930 0.930 . S
C943 C942 1.376 . S
C943 C944 1.388 . S
C944 H931 0.930 . S
C944 C943 1.388 . S
C944 C945 1.390 . S
C945 C944 1.390 . S
C945 C946 1.394 . S
C945 C951 1.465 . S
C946 C941 1.399 . S
C946 C945 1.394 . S
C946 C947 1.516 . S
C947 C946 1.516 . S
C947 C948 1.502 . S
C947 C949 1.561 . S
C947 C950 1.526 . S
C948 H932 0.959 . S
C948 H933 0.959 . S
C948 H934 0.961 . S
C948 C947 1.502 . S
C949 H935 0.960 . S
C949 H936 0.961 . S
C949 H937 0.959 . S
C949 C947 1.561 . S
C950 C947 1.526 . S
C950 C951 1.396 . S
C950 C955 1.390 . S
C951 C945 1.465 . S
C951 C950 1.396 . S
C951 C952 1.399 . S
C952 H938 0.929 . S
C952 C951 1.399 . S
C952 C953 1.385 . S
C953 H939 0.931 . S
C953 C952 1.385 . S
C953 C954 1.389 . S
C954 C953 1.389 . S
C954 C955 1.387 . S
C955 H940 0.930 . S
C955 C950 1.390 . S
C955 C954 1.387 . S
H956 C968 0.930 . S
H957 C970 0.930 . S
H958 C971 0.930 . S
H959 C975 0.959 . S
H960 C975 0.959 . S
H961 C975 0.961 1_554 S
H962 C976 0.960 1_554 S
H963 C976 0.961 . S
H964 C976 0.959 . S
H965 C979 0.929 . S
H966 C980 0.931 . S
H967 C982 0.930 . S
C968 H956 0.930 . S
C968 C969 1.399 . S
C968 C973 1.399 . S
C969 C968 1.399 . S
C969 C970 1.376 . S
C970 H957 0.930 . S
C970 C969 1.376 . S
C970 C971 1.388 . S
C971 H958 0.930 . S
C971 C970 1.388 . S
C971 C972 1.390 . S
C972 C971 1.390 . S
C972 C973 1.394 . S
C972 C978 1.465 1_554 S
C973 C968 1.399 . S
C973 C972 1.394 . S
C973 C974 1.516 1_554 S
C974 C973 1.516 1_556 S
C974 C975 1.502 . S
C974 C976 1.561 . S
C974 C977 1.526 . S
C975 H959 0.959 . S
C975 H960 0.959 . S
C975 H961 0.961 1_556 S
C975 C974 1.502 . S
C976 H962 0.960 1_556 S
C976 H963 0.961 . S
C976 H964 0.959 . S
C976 C974 1.561 . S
C977 C974 1.526 . S
C977 C978 1.396 . S
C977 C982 1.390 . S
C978 C972 1.465 1_556 S
C978 C977 1.396 . S
C978 C979 1.399 . S
C979 H965 0.929 . S
C979 C978 1.399 . S
C979 C980 1.385 . S
C980 H966 0.931 . S
C980 C979 1.385 . S
C980 C981 1.389 . S
C981 C980 1.389 . S
C981 C982 1.387 . S
C982 H967 0.930 . S
C982 C977 1.390 . S
C982 C981 1.387 . S
H983 C995 0.930 . S
H984 C997 0.930 . S
H985 C998 0.930 . S
H986 C1002 0.959 . S
H987 C1002 0.959 . S
H988 C1002 0.961 . S
H989 C1003 0.960 . S
H990 C1003 0.961 . S
H991 C1003 0.959 . S
H992 C1006 0.929 . S
H993 C1007 0.931 . S
H994 C1009 0.930 . S
C995 H983 0.930 . S
C995 C996 1.399 . S
C995 C1000 1.399 . S
C996 C995 1.399 . S
C996 C997 1.376 . S
C997 H984 0.930 . S
C997 C996 1.376 . S
C997 C998 1.388 . S
C998 H985 0.930 . S
C998 C997 1.388 . S
C998 C999 1.390 . S
C999 C998 1.390 . S
C999 C1000 1.394 . S
C999 C1005 1.465 . S
C1000 C995 1.399 . S
C1000 C999 1.394 . S
C1000 C1001 1.516 . S
C1001 C1000 1.516 . S
C1001 C1002 1.502 . S
C1001 C1003 1.561 . S
C1001 C1004 1.526 . S
C1002 H986 0.959 . S
C1002 H987 0.959 . S
C1002 H988 0.961 . S
C1002 C1001 1.502 . S
C1003 H989 0.960 . S
C1003 H990 0.961 . S
C1003 H991 0.959 . S
C1003 C1001 1.561 . S
C1004 C1001 1.526 . S
C1004 C1005 1.396 . S
C1004 C1009 1.390 . S
C1005 C999 1.465 . S
C1005 C1004 1.396 . S
C1005 C1006 1.399 . S
C1006 H992 0.929 . S
C1006 C1005 1.399 . S
C1006 C1007 1.385 . S
C1007 H993 0.931 . S
C1007 C1006 1.385 . S
C1007 C1008 1.389 . S
C1008 C1007 1.389 . S
C1008 C1009 1.387 . S
C1009 H994 0.930 . S
C1009 C1004 1.390 . S
C1009 C1008 1.387 . S
H1010 C1022 0.930 . S
H1011 C1024 0.930 . S
H1012 C1025 0.930 . S
H1013 C1029 0.959 . S
H1014 C1029 0.959 1_554 S
H1015 C1029 0.961 . S
H1016 C1030 0.960 . S
H1017 C1030 0.961 1_554 S
H1018 C1030 0.964 . S
H1019 C1033 0.929 . S
H1020 C1034 0.931 . S
H1021 C1036 0.930 . S
C1022 H1010 0.930 . S
C1022 C1023 1.399 . S
C1022 C1027 1.399 . S
C1023 C1022 1.399 . S
C1023 C1024 1.376 . S
C1024 H1011 0.930 . S
C1024 C1023 1.376 . S
C1024 C1025 1.388 . S
C1025 H1012 0.930 . S
C1025 C1024 1.388 . S
C1025 C1026 1.390 . S
C1026 C1025 1.390 . S
C1026 C1027 1.394 . S
C1026 C1032 1.465 1_556 S
C1027 C1022 1.399 . S
C1027 C1026 1.394 . S
C1027 C1028 1.516 . S
C1028 C1027 1.516 . S
C1028 C1029 1.502 . S
C1028 C1030 1.561 . S
C1028 C1031 1.526 1_556 S
C1029 H1013 0.959 . S
C1029 H1014 0.959 1_556 S
C1029 H1015 0.961 . S
C1029 C1028 1.502 . S
C1030 H1016 0.960 . S
C1030 H1017 0.961 1_556 S
C1030 H1018 0.964 . S
C1030 C1028 1.561 . S
C1031 C1028 1.526 1_554 S
C1031 C1032 1.396 . S
C1031 C1036 1.390 . S
C1032 C1026 1.465 1_554 S
C1032 C1031 1.396 . S
C1032 C1033 1.399 . S
C1033 H1019 0.929 . S
C1033 C1032 1.399 . S
C1033 C1034 1.385 . S
C1034 H1020 0.931 . S
C1034 C1033 1.385 . S
C1034 C1035 1.389 . S
C1035 C1034 1.389 . S
C1035 C1036 1.387 . S
C1036 H1021 0.930 . S
C1036 C1031 1.390 . S
C1036 C1035 1.387 . S
H1037 C1049 0.930 . S
H1038 C1051 0.930 . S
H1039 C1052 0.930 . S
H1040 C1056 0.959 . S
H1041 C1056 0.959 . S
H1042 C1056 0.961 . S
H1043 C1057 0.960 . S
H1044 C1057 0.961 . S
H1045 C1057 0.959 . S
H1046 C1060 0.929 . S
H1047 C1061 0.931 . S
H1048 C1063 0.930 . S
C1049 H1037 0.930 . S
C1049 C1050 1.399 . S
C1049 C1054 1.399 . S
C1050 C1049 1.399 . S
C1050 C1051 1.376 . S
C1051 H1038 0.930 . S
C1051 C1050 1.376 . S
C1051 C1052 1.388 . S
C1052 H1039 0.930 . S
C1052 C1051 1.388 . S
C1052 C1053 1.390 . S
C1053 C1052 1.390 . S
C1053 C1054 1.394 . S
C1053 C1059 1.465 . S
C1054 C1049 1.399 . S
C1054 C1053 1.394 . S
C1054 C1055 1.516 . S
C1055 C1054 1.516 . S
C1055 C1056 1.502 . S
C1055 C1057 1.561 . S
C1055 C1058 1.526 . S
C1056 H1040 0.959 . S
C1056 H1041 0.959 . S
C1056 H1042 0.961 . S
C1056 C1055 1.502 . S
C1057 H1043 0.960 . S
C1057 H1044 0.961 . S
C1057 H1045 0.959 . S
C1057 C1055 1.561 . S
C1058 C1055 1.526 . S
C1058 C1059 1.396 . S
C1058 C1063 1.390 . S
C1059 C1053 1.465 . S
C1059 C1058 1.396 . S
C1059 C1060 1.399 . S
C1060 H1046 0.929 . S
C1060 C1059 1.399 . S
C1060 C1061 1.385 . S
C1061 H1047 0.931 . S
C1061 C1060 1.385 . S
C1061 C1062 1.389 . S
C1062 C1061 1.389 . S
C1062 C1063 1.387 . S
C1063 H1048 0.930 . S
C1063 C1058 1.390 . S
C1063 C1062 1.387 . S
H1064 C1076 0.930 . S
H1065 C1078 0.930 . S
H1066 C1079 0.930 . S
H1067 C1083 0.959 . S
H1068 C1083 0.959 . S
H1069 C1083 0.961 . S
H1070 C1084 0.960 . S
H1071 C1084 0.961 . S
H1072 C1084 0.959 . S
H1073 C1087 0.929 . S
H1074 C1088 0.931 . S
H1075 C1090 0.930 . S
C1076 H1064 0.930 . S
C1076 C1077 1.399 . S
C1076 C1081 1.399 . S
C1077 C1076 1.399 . S
C1077 C1078 1.376 . S
C1078 H1065 0.930 . S
C1078 C1077 1.376 . S
C1078 C1079 1.388 . S
C1079 H1066 0.930 . S
C1079 C1078 1.388 . S
C1079 C1080 1.390 . S
C1080 C1079 1.390 . S
C1080 C1081 1.394 . S
C1080 C1086 1.465 . S
C1081 C1076 1.399 . S
C1081 C1080 1.394 . S
C1081 C1082 1.516 . S
C1082 C1081 1.516 . S
C1082 C1083 1.502 . S
C1082 C1084 1.561 . S
C1082 C1085 1.526 . S
C1083 H1067 0.959 . S
C1083 H1068 0.959 . S
C1083 H1069 0.961 . S
C1083 C1082 1.502 . S
C1084 H1070 0.960 . S
C1084 H1071 0.961 . S
C1084 H1072 0.959 . S
C1084 C1082 1.561 . S
C1085 C1082 1.526 . S
C1085 C1086 1.396 . S
C1085 C1090 1.390 . S
C1086 C1080 1.465 . S
C1086 C1085 1.396 . S
C1086 C1087 1.399 . S
C1087 H1073 0.929 . S
C1087 C1086 1.399 . S
C1087 C1088 1.385 . S
C1088 H1074 0.931 . S
C1088 C1087 1.385 . S
C1088 C1089 1.389 . S
C1089 C1088 1.389 . S
C1089 C1090 1.387 . S
C1090 H1075 0.930 . S
C1090 C1085 1.390 . S
C1090 C1089 1.387 . S
H1091 C1103 0.930 . S
H1092 C1105 0.930 . S
H1093 C1106 0.930 . S
H1094 C1110 0.959 . S
H1095 C1110 0.959 . S
H1096 C1110 0.961 . S
H1097 C1111 0.960 . S
H1098 C1111 0.961 . S
H1099 C1111 0.959 . S
H1100 C1114 0.929 . S
H1101 C1115 0.931 . S
H1102 C1117 0.930 . S
C1103 H1091 0.930 . S
C1103 C1104 1.399 . S
C1103 C1108 1.399 . S
C1104 C1103 1.399 . S
C1104 C1105 1.376 . S
C1105 H1092 0.930 . S
C1105 C1104 1.376 . S
C1105 C1106 1.388 . S
C1106 H1093 0.930 . S
C1106 C1105 1.388 . S
C1106 C1107 1.390 . S
C1107 C1106 1.390 . S
C1107 C1108 1.394 . S
C1107 C1113 1.465 . S
C1108 C1103 1.399 . S
C1108 C1107 1.394 . S
C1108 C1109 1.516 . S
C1109 C1108 1.516 . S
C1109 C1110 1.502 . S
C1109 C1111 1.561 . S
C1109 C1112 1.526 . S
C1110 H1094 0.959 . S
C1110 H1095 0.959 . S
C1110 H1096 0.961 . S
C1110 C1109 1.502 . S
C1111 H1097 0.960 . S
C1111 H1098 0.961 . S
C1111 H1099 0.959 . S
C1111 C1109 1.561 . S
C1112 C1109 1.526 . S
C1112 C1113 1.396 . S
C1112 C1117 1.390 . S
C1113 C1107 1.465 . S
C1113 C1112 1.396 . S
C1113 C1114 1.399 . S
C1114 H1100 0.929 . S
C1114 C1113 1.399 . S
C1114 C1115 1.385 . S
C1115 H1101 0.931 . S
C1115 C1114 1.385 . S
C1115 C1116 1.389 . S
C1116 C1115 1.389 . S
C1116 C1117 1.387 . S
C1117 H1102 0.930 . S
C1117 C1112 1.390 . S
C1117 C1116 1.387 . S
H1118 C1130 0.930 . S
H1119 C1132 0.930 . S
H1120 C1133 0.930 . S
H1121 C1137 0.959 . S
H1122 C1137 0.959 . S
H1123 C1137 0.961 . S
H1124 C1138 0.960 . S
H1125 C1138 0.961 . S
H1126 C1138 0.959 . S
H1127 C1141 0.929 . S
H1128 C1142 0.931 . S
H1129 C1144 0.930 . S
C1130 H1118 0.930 . S
C1130 C1131 1.399 . S
C1130 C1135 1.399 . S
C1131 C1130 1.399 . S
C1131 C1132 1.376 . S
C1132 H1119 0.930 . S
C1132 C1131 1.376 . S
C1132 C1133 1.388 . S
C1133 H1120 0.930 . S
C1133 C1132 1.388 . S
C1133 C1134 1.390 . S
C1134 C1133 1.390 . S
C1134 C1135 1.394 . S
C1134 C1140 1.465 . S
C1135 C1130 1.399 . S
C1135 C1134 1.394 . S
C1135 C1136 1.516 . S
C1136 C1135 1.516 . S
C1136 C1137 1.502 . S
C1136 C1138 1.561 . S
C1136 C1139 1.526 . S
C1137 H1121 0.959 . S
C1137 H1122 0.959 . S
C1137 H1123 0.961 . S
C1137 C1136 1.502 . S
C1138 H1124 0.960 . S
C1138 H1125 0.961 . S
C1138 H1126 0.959 . S
C1138 C1136 1.561 . S
C1139 C1136 1.526 . S
C1139 C1140 1.396 . S
C1139 C1144 1.390 . S
C1140 C1134 1.465 . S
C1140 C1139 1.396 . S
C1140 C1141 1.399 . S
C1141 H1127 0.929 . S
C1141 C1140 1.399 . S
C1141 C1142 1.385 . S
C1142 H1128 0.931 . S
C1142 C1141 1.385 . S
C1142 C1143 1.389 . S
C1143 C1142 1.389 . S
C1143 C1144 1.387 . S
C1144 H1129 0.930 . S
C1144 C1139 1.390 . S
C1144 C1143 1.387 . S
H1145 C1157 0.930 . S
H1146 C1159 0.930 . S
H1147 C1160 0.930 . S
H1148 C1164 0.959 . S
H1149 C1164 0.959 . S
H1150 C1164 0.961 . S
H1151 C1165 0.960 . S
H1152 C1165 0.961 . S
H1153 C1165 0.959 . S
H1154 C1168 0.929 . S
H1155 C1169 0.931 . S
H1156 C1171 0.930 . S
C1157 H1145 0.930 . S
C1157 C1158 1.399 . S
C1157 C1162 1.399 . S
C1158 C1157 1.399 . S
C1158 C1159 1.376 . S
C1159 H1146 0.930 . S
C1159 C1158 1.376 . S
C1159 C1160 1.388 . S
C1160 H1147 0.930 . S
C1160 C1159 1.388 . S
C1160 C1161 1.390 . S
C1161 C1160 1.390 . S
C1161 C1162 1.394 . S
C1161 C1167 1.465 . S
C1162 C1157 1.399 . S
C1162 C1161 1.394 . S
C1162 C1163 1.516 . S
C1163 C1162 1.516 . S
C1163 C1164 1.502 . S
C1163 C1165 1.561 . S
C1163 C1166 1.526 . S
C1164 H1148 0.959 . S
C1164 H1149 0.959 . S
C1164 H1150 0.961 . S
C1164 C1163 1.502 . S
C1165 H1151 0.960 . S
C1165 H1152 0.961 . S
C1165 H1153 0.959 . S
C1165 C1163 1.561 . S
C1166 C1163 1.526 . S
C1166 C1167 1.396 . S
C1166 C1171 1.390 . S
C1167 C1161 1.465 . S
C1167 C1166 1.396 . S
C1167 C1168 1.399 . S
C1168 H1154 0.929 . S
C1168 C1167 1.399 . S
C1168 C1169 1.385 . S
C1169 H1155 0.931 . S
C1169 C1168 1.385 . S
C1169 C1170 1.389 . S
C1170 C1169 1.389 . S
C1170 C1171 1.387 . S
C1171 H1156 0.930 . S
C1171 C1166 1.390 . S
C1171 C1170 1.387 . S
H1172 C1184 0.930 . S
H1173 C1186 0.930 . S
H1174 C1187 0.930 . S
H1175 C1191 0.959 . S
H1176 C1191 0.959 . S
H1177 C1191 0.961 . S
H1178 C1192 0.960 . S
H1179 C1192 0.961 . S
H1180 C1192 0.959 . S
H1181 C1195 0.929 . S
H1182 C1196 0.931 . S
H1183 C1198 0.930 . S
C1184 H1172 0.930 . S
C1184 C1185 1.399 . S
C1184 C1189 1.399 . S
C1185 C1184 1.399 . S
C1185 C1186 1.376 . S
C1186 H1173 0.930 . S
C1186 C1185 1.376 . S
C1186 C1187 1.388 . S
C1187 H1174 0.930 . S
C1187 C1186 1.388 . S
C1187 C1188 1.390 . S
C1188 C1187 1.390 . S
C1188 C1189 1.394 . S
C1188 C1194 1.465 . S
C1189 C1184 1.399 . S
C1189 C1188 1.394 . S
C1189 C1190 1.516 . S
C1190 C1189 1.516 . S
C1190 C1191 1.502 . S
C1190 C1192 1.561 . S
C1190 C1193 1.526 . S
C1191 H1175 0.959 . S
C1191 H1176 0.959 . S
C1191 H1177 0.961 . S
C1191 C1190 1.502 . S
C1192 H1178 0.960 . S
C1192 H1179 0.961 . S
C1192 H1180 0.959 . S
C1192 C1190 1.561 . S
C1193 C1190 1.526 . S
C1193 C1194 1.396 . S
C1193 C1198 1.390 . S
C1194 C1188 1.465 . S
C1194 C1193 1.396 . S
C1194 C1195 1.399 . S
C1195 H1181 0.929 . S
C1195 C1194 1.399 . S
C1195 C1196 1.385 . S
C1196 H1182 0.931 . S
C1196 C1195 1.385 . S
C1196 C1197 1.389 . S
C1197 C1196 1.389 . S
C1197 C1198 1.387 . S
C1198 H1183 0.930 . S
C1198 C1193 1.390 . S
C1198 C1197 1.387 . S
H1199 C1211 0.930 . S
H1200 C1213 0.930 . S
H1201 C1214 0.930 . S
H1202 C1218 0.959 . S
H1203 C1218 0.959 . S
H1204 C1218 0.961 . S
H1205 C1219 0.960 . S
H1206 C1219 0.961 . S
H1207 C1219 0.959 . S
H1208 C1222 0.929 . S
H1209 C1223 0.931 . S
H1210 C1225 0.930 . S
C1211 H1199 0.930 . S
C1211 C1212 1.399 . S
C1211 C1216 1.399 . S
C1212 C1211 1.399 . S
C1212 C1213 1.376 . S
C1213 H1200 0.930 . S
C1213 C1212 1.376 . S
C1213 C1214 1.388 . S
C1214 H1201 0.930 . S
C1214 C1213 1.388 . S
C1214 C1215 1.390 . S
C1215 C1214 1.390 . S
C1215 C1216 1.394 . S
C1215 C1221 1.465 . S
C1216 C1211 1.399 . S
C1216 C1215 1.394 . S
C1216 C1217 1.516 . S
C1217 C1216 1.516 . S
C1217 C1218 1.502 . S
C1217 C1219 1.561 . S
C1217 C1220 1.526 . S
C1218 H1202 0.959 . S
C1218 H1203 0.959 . S
C1218 H1204 0.961 . S
C1218 C1217 1.502 . S
C1219 H1205 0.960 . S
C1219 H1206 0.961 . S
C1219 H1207 0.959 . S
C1219 C1217 1.561 . S
C1220 C1217 1.526 . S
C1220 C1221 1.396 . S
C1220 C1225 1.390 . S
C1221 C1215 1.465 . S
C1221 C1220 1.396 . S
C1221 C1222 1.399 . S
C1222 H1208 0.929 . S
C1222 C1221 1.399 . S
C1222 C1223 1.385 . S
C1223 H1209 0.931 . S
C1223 C1222 1.385 . S
C1223 C1224 1.389 . S
C1224 C1223 1.389 . S
C1224 C1225 1.387 . S
C1225 H1210 0.930 . S
C1225 C1220 1.390 . S
C1225 C1224 1.387 . S
H1226 C1238 0.930 . S
H1227 C1240 0.930 . S
H1228 C1241 0.930 . S
H1229 C1245 0.959 . S
H1230 C1245 0.959 . S
H1231 C1245 0.961 . S
H1232 C1246 0.960 . S
H1233 C1246 0.961 . S
H1234 C1246 0.959 . S
H1235 C1249 0.929 . S
H1236 C1250 0.931 . S
H1237 C1252 0.930 . S
C1238 H1226 0.930 . S
C1238 C1239 1.399 . S
C1238 C1243 1.399 . S
C1239 C1238 1.399 . S
C1239 C1240 1.376 . S
C1240 H1227 0.930 . S
C1240 C1239 1.376 . S
C1240 C1241 1.388 . S
C1241 H1228 0.930 . S
C1241 C1240 1.388 . S
C1241 C1242 1.390 . S
C1242 C1241 1.390 . S
C1242 C1243 1.394 . S
C1242 C1248 1.465 . S
C1243 C1238 1.399 . S
C1243 C1242 1.394 . S
C1243 C1244 1.516 . S
C1244 C1243 1.516 . S
C1244 C1245 1.502 . S
C1244 C1246 1.561 . S
C1244 C1247 1.526 . S
C1245 H1229 0.959 . S
C1245 H1230 0.959 . S
C1245 H1231 0.961 . S
C1245 C1244 1.502 . S
C1246 H1232 0.960 . S
C1246 H1233 0.961 . S
C1246 H1234 0.959 . S
C1246 C1244 1.561 . S
C1247 C1244 1.526 . S
C1247 C1248 1.396 . S
C1247 C1252 1.390 . S
C1248 C1242 1.465 . S
C1248 C1247 1.396 . S
C1248 C1249 1.399 . S
C1249 H1235 0.929 . S
C1249 C1248 1.399 . S
C1249 C1250 1.385 . S
C1250 H1236 0.931 . S
C1250 C1249 1.385 . S
C1250 C1251 1.389 . S
C1251 C1250 1.389 . S
C1251 C1252 1.387 . S
C1252 H1237 0.930 . S
C1252 C1247 1.390 . S
C1252 C1251 1.387 . S
H1253 C1265 0.930 . S
H1254 C1267 0.930 . S
H1255 C1268 0.930 . S
H1256 C1272 0.959 . S
H1257 C1272 0.959 . S
H1258 C1272 0.961 . S
H1259 C1273 0.960 . S
H1260 C1273 0.961 . S
H1261 C1273 0.959 . S
H1262 C1276 0.929 . S
H1263 C1277 0.931 . S
H1264 C1279 0.930 . S
C1265 H1253 0.930 . S
C1265 C1266 1.399 . S
C1265 C1270 1.399 . S
C1266 C1265 1.399 . S
C1266 C1267 1.376 . S
C1267 H1254 0.930 . S
C1267 C1266 1.376 . S
C1267 C1268 1.388 . S
C1268 H1255 0.930 . S
C1268 C1267 1.388 . S
C1268 C1269 1.390 . S
C1269 C1268 1.390 . S
C1269 C1270 1.394 . S
C1269 C1275 1.465 . S
C1270 C1265 1.399 . S
C1270 C1269 1.394 . S
C1270 C1271 1.516 . S
C1271 C1270 1.516 . S
C1271 C1272 1.502 . S
C1271 C1273 1.561 . S
C1271 C1274 1.526 . S
C1272 H1256 0.959 . S
C1272 H1257 0.959 . S
C1272 H1258 0.961 . S
C1272 C1271 1.502 . S
C1273 H1259 0.960 . S
C1273 H1260 0.961 . S
C1273 H1261 0.959 . S
C1273 C1271 1.561 . S
C1274 C1271 1.526 . S
C1274 C1275 1.396 . S
C1274 C1279 1.390 . S
C1275 C1269 1.465 . S
C1275 C1274 1.396 . S
C1275 C1276 1.399 . S
C1276 H1262 0.929 . S
C1276 C1275 1.399 . S
C1276 C1277 1.385 . S
C1277 H1263 0.931 . S
C1277 C1276 1.385 . S
C1277 C1278 1.389 . S
C1278 C1277 1.389 . S
C1278 C1279 1.387 . S
C1279 H1264 0.930 . S
C1279 C1274 1.390 . S
C1279 C1278 1.387 . S
H1280 C1292 0.930 . S
H1281 C1294 0.930 . S
H1282 C1295 0.930 . S
H1283 C1299 0.959 . S
H1284 C1299 0.959 . S
H1285 C1299 0.961 . S
H1286 C1300 0.960 . S
H1287 C1300 0.961 . S
H1288 C1300 0.959 . S
H1289 C1303 0.929 . S
H1290 C1304 0.931 . S
H1291 C1306 0.930 . S
C1292 H1280 0.930 . S
C1292 C1293 1.399 . S
C1292 C1297 1.399 . S
C1293 C1292 1.399 . S
C1293 C1294 1.376 . S
C1294 H1281 0.930 . S
C1294 C1293 1.376 . S
C1294 C1295 1.388 . S
C1295 H1282 0.930 . S
C1295 C1294 1.388 . S
C1295 C1296 1.390 . S
C1296 C1295 1.390 . S
C1296 C1297 1.394 . S
C1296 C1302 1.465 . S
C1297 C1292 1.399 . S
C1297 C1296 1.394 . S
C1297 C1298 1.516 . S
C1298 C1297 1.516 . S
C1298 C1299 1.502 . S
C1298 C1300 1.561 . S
C1298 C1301 1.526 . S
C1299 H1283 0.959 . S
C1299 H1284 0.959 . S
C1299 H1285 0.961 . S
C1299 C1298 1.502 . S
C1300 H1286 0.960 . S
C1300 H1287 0.961 . S
C1300 H1288 0.959 . S
C1300 C1298 1.561 . S
C1301 C1298 1.526 . S
C1301 C1302 1.396 . S
C1301 C1306 1.390 . S
C1302 C1296 1.465 . S
C1302 C1301 1.396 . S
C1302 C1303 1.399 . S
C1303 H1289 0.929 . S
C1303 C1302 1.399 . S
C1303 C1304 1.385 . S
C1304 H1290 0.931 . S
C1304 C1303 1.385 . S
C1304 C1305 1.389 . S
C1305 C1304 1.389 . S
C1305 C1306 1.387 . S
C1306 H1291 0.930 . S
C1306 C1301 1.390 . S
C1306 C1305 1.387 . S
H1307 C1319 0.930 . S
H1308 C1321 0.930 . S
H1309 C1322 0.930 . S
H1310 C1326 0.959 . S
H1311 C1326 0.959 . S
H1312 C1326 0.961 . S
H1313 C1327 0.960 . S
H1314 C1327 0.961 . S
H1315 C1327 0.959 . S
H1316 C1330 0.929 . S
H1317 C1331 0.931 . S
H1318 C1333 0.930 . S
C1319 H1307 0.930 . S
C1319 C1320 1.399 . S
C1319 C1324 1.399 . S
C1320 C1319 1.399 . S
C1320 C1321 1.376 . S
C1321 H1308 0.930 . S
C1321 C1320 1.376 . S
C1321 C1322 1.388 . S
C1322 H1309 0.930 . S
C1322 C1321 1.388 . S
C1322 C1323 1.390 . S
C1323 C1322 1.390 . S
C1323 C1324 1.394 . S
C1323 C1329 1.465 . S
C1324 C1319 1.399 . S
C1324 C1323 1.394 . S
C1324 C1325 1.516 . S
C1325 C1324 1.516 . S
C1325 C1326 1.502 . S
C1325 C1327 1.561 . S
C1325 C1328 1.526 . S
C1326 H1310 0.959 . S
C1326 H1311 0.959 . S
C1326 H1312 0.961 . S
C1326 C1325 1.502 . S
C1327 H1313 0.960 . S
C1327 H1314 0.961 . S
C1327 H1315 0.959 . S
C1327 C1325 1.561 . S
C1328 C1325 1.526 . S
C1328 C1329 1.396 . S
C1328 C1333 1.390 . S
C1329 C1323 1.465 . S
C1329 C1328 1.396 . S
C1329 C1330 1.399 . S
C1330 H1316 0.929 . S
C1330 C1329 1.399 . S
C1330 C1331 1.385 . S
C1331 H1317 0.931 . S
C1331 C1330 1.385 . S
C1331 C1332 1.389 . S
C1332 C1331 1.389 . S
C1332 C1333 1.387 . S
C1333 H1318 0.930 . S
C1333 C1328 1.390 . S
C1333 C1332 1.387 . S
H1334 C1346 0.930 . S
H1335 C1348 0.930 . S
H1336 C1349 0.930 . S
H1337 C1353 0.959 . S
H1338 C1353 0.959 . S
H1339 C1353 0.961 . S
H1340 C1354 0.960 . S
H1341 C1354 0.961 . S
H1342 C1354 0.959 . S
H1343 C1357 0.929 . S
H1344 C1358 0.931 . S
H1345 C1360 0.930 . S
C1346 H1334 0.930 . S
C1346 C1347 1.399 . S
C1346 C1351 1.399 . S
C1347 C1346 1.399 . S
C1347 C1348 1.376 . S
C1348 H1335 0.930 . S
C1348 C1347 1.376 . S
C1348 C1349 1.388 . S
C1349 H1336 0.930 . S
C1349 C1348 1.388 . S
C1349 C1350 1.390 . S
C1350 C1349 1.390 . S
C1350 C1351 1.394 . S
C1350 C1356 1.465 . S
C1351 C1346 1.399 . S
C1351 C1350 1.394 . S
C1351 C1352 1.516 . S
C1352 C1351 1.516 . S
C1352 C1353 1.502 . S
C1352 C1354 1.561 . S
C1352 C1355 1.526 . S
C1353 H1337 0.959 . S
C1353 H1338 0.959 . S
C1353 H1339 0.961 . S
C1353 C1352 1.502 . S
C1354 H1340 0.960 . S
C1354 H1341 0.961 . S
C1354 H1342 0.959 . S
C1354 C1352 1.561 . S
C1355 C1352 1.526 . S
C1355 C1356 1.396 . S
C1355 C1360 1.390 . S
C1356 C1350 1.465 . S
C1356 C1355 1.396 . S
C1356 C1357 1.399 . S
C1357 H1343 0.929 . S
C1357 C1356 1.399 . S
C1357 C1358 1.385 . S
C1358 H1344 0.931 . S
C1358 C1357 1.385 . S
C1358 C1359 1.389 . S
C1359 C1358 1.389 . S
C1359 C1360 1.387 . S
C1360 H1345 0.930 . S
C1360 C1355 1.390 . S
C1360 C1359 1.387 . S
H1361 C1373 0.930 . S
H1362 C1375 0.930 . S
H1363 C1376 0.930 . S
H1364 C1380 0.959 . S
H1365 C1380 0.959 . S
H1366 C1380 0.961 . S
H1367 C1381 0.960 . S
H1368 C1381 0.961 . S
H1369 C1381 0.959 . S
H1370 C1384 0.929 . S
H1371 C1385 0.931 . S
H1372 C1387 0.930 . S
C1373 H1361 0.930 . S
C1373 C1374 1.399 . S
C1373 C1378 1.399 . S
C1374 C1373 1.399 . S
C1374 C1375 1.376 . S
C1375 H1362 0.930 . S
C1375 C1374 1.376 . S
C1375 C1376 1.388 . S
C1376 H1363 0.930 . S
C1376 C1375 1.388 . S
C1376 C1377 1.390 . S
C1377 C1376 1.390 . S
C1377 C1378 1.394 . S
C1377 C1383 1.465 . S
C1378 C1373 1.399 . S
C1378 C1377 1.394 . S
C1378 C1379 1.516 . S
C1379 C1378 1.516 . S
C1379 C1380 1.502 . S
C1379 C1381 1.561 . S
C1379 C1382 1.526 . S
C1380 H1364 0.959 . S
C1380 H1365 0.959 . S
C1380 H1366 0.961 . S
C1380 C1379 1.502 . S
C1381 H1367 0.960 . S
C1381 H1368 0.961 . S
C1381 H1369 0.959 . S
C1381 C1379 1.561 . S
C1382 C1379 1.526 . S
C1382 C1383 1.396 . S
C1382 C1387 1.390 . S
C1383 C1377 1.465 . S
C1383 C1382 1.396 . S
C1383 C1384 1.399 . S
C1384 H1370 0.929 . S
C1384 C1383 1.399 . S
C1384 C1385 1.385 . S
C1385 H1371 0.931 . S
C1385 C1384 1.385 . S
C1385 C1386 1.389 . S
C1386 C1385 1.389 . S
C1386 C1387 1.387 . S
C1387 H1372 0.930 . S
C1387 C1382 1.390 . S
C1387 C1386 1.387 . S
H1388 C1400 0.930 . S
H1389 C1402 0.930 . S
H1390 C1403 0.930 . S
H1391 C1407 0.959 . S
H1392 C1407 0.959 . S
H1393 C1407 0.961 . S
H1394 C1408 0.960 . S
H1395 C1408 0.961 . S
H1396 C1408 0.959 . S
H1397 C1411 0.929 . S
H1398 C1412 0.931 . S
H1399 C1414 0.930 . S
C1400 H1388 0.930 . S
C1400 C1401 1.399 . S
C1400 C1405 1.399 . S
C1401 C1400 1.399 . S
C1401 C1402 1.376 . S
C1402 H1389 0.930 . S
C1402 C1401 1.376 . S
C1402 C1403 1.388 . S
C1403 H1390 0.930 . S
C1403 C1402 1.388 . S
C1403 C1404 1.390 . S
C1404 C1403 1.390 . S
C1404 C1405 1.394 . S
C1404 C1410 1.465 . S
C1405 C1400 1.399 . S
C1405 C1404 1.394 . S
C1405 C1406 1.516 . S
C1406 C1405 1.516 . S
C1406 C1407 1.502 . S
C1406 C1408 1.561 . S
C1406 C1409 1.526 . S
C1407 H1391 0.959 . S
C1407 H1392 0.959 . S
C1407 H1393 0.961 . S
C1407 C1406 1.502 . S
C1408 H1394 0.960 . S
C1408 H1395 0.961 . S
C1408 H1396 0.959 . S
C1408 C1406 1.561 . S
C1409 C1406 1.526 . S
C1409 C1410 1.396 . S
C1409 C1414 1.390 . S
C1410 C1404 1.465 . S
C1410 C1409 1.396 . S
C1410 C1411 1.399 . S
C1411 H1397 0.929 . S
C1411 C1410 1.399 . S
C1411 C1412 1.385 . S
C1412 H1398 0.931 . S
C1412 C1411 1.385 . S
C1412 C1413 1.389 . S
C1413 C1412 1.389 . S
C1413 C1414 1.387 . S
C1414 H1399 0.930 . S
C1414 C1409 1.390 . S
C1414 C1413 1.387 . S
H1415 C1427 0.930 . S
H1416 C1429 0.930 . S
H1417 C1430 0.930 . S
H1418 C1434 0.959 . S
H1419 C1434 0.959 . S
H1420 C1434 0.961 . S
H1421 C1435 0.960 . S
H1422 C1435 0.961 . S
H1423 C1435 0.959 . S
H1424 C1438 0.929 . S
H1425 C1439 0.931 . S
H1426 C1441 0.930 . S
C1427 H1415 0.930 . S
C1427 C1428 1.399 . S
C1427 C1432 1.399 . S
C1428 C1427 1.399 . S
C1428 C1429 1.376 . S
C1429 H1416 0.930 . S
C1429 C1428 1.376 . S
C1429 C1430 1.388 . S
C1430 H1417 0.930 . S
C1430 C1429 1.388 . S
C1430 C1431 1.390 . S
C1431 C1430 1.390 . S
C1431 C1432 1.394 . S
C1431 C1437 1.465 . S
C1432 C1427 1.399 . S
C1432 C1431 1.394 . S
C1432 C1433 1.516 . S
C1433 C1432 1.516 . S
C1433 C1434 1.502 . S
C1433 C1435 1.561 . S
C1433 C1436 1.526 . S
C1434 H1418 0.959 . S
C1434 H1419 0.959 . S
C1434 H1420 0.961 . S
C1434 C1433 1.502 . S
C1435 H1421 0.960 . S
C1435 H1422 0.961 . S
C1435 H1423 0.959 . S
C1435 C1433 1.561 . S
C1436 C1433 1.526 . S
C1436 C1437 1.396 . S
C1436 C1441 1.390 . S
C1437 C1431 1.465 . S
C1437 C1436 1.396 . S
C1437 C1438 1.399 . S
C1438 H1424 0.929 . S
C1438 C1437 1.399 . S
C1438 C1439 1.385 . S
C1439 H1425 0.931 . S
C1439 C1438 1.385 . S
C1439 C1440 1.389 . S
C1440 C1439 1.389 . S
C1440 C1441 1.387 . S
C1441 H1426 0.930 . S
C1441 C1436 1.390 . S
C1441 C1440 1.387 . S
H1442 C1454 0.930 . S
H1443 C1456 0.930 . S
H1444 C1457 0.930 . S
H1445 C1461 0.959 . S
H1446 C1461 0.959 . S
H1447 C1461 0.961 . S
H1448 C1462 0.960 . S
H1449 C1462 0.961 . S
H1450 C1462 0.959 . S
H1451 C1465 0.929 . S
H1452 C1466 0.931 . S
H1453 C1468 0.930 . S
C1454 H1442 0.930 . S
C1454 C1455 1.399 . S
C1454 C1459 1.399 . S
C1455 C1454 1.399 . S
C1455 C1456 1.376 . S
C1456 H1443 0.930 . S
C1456 C1455 1.376 . S
C1456 C1457 1.388 . S
C1457 H1444 0.930 . S
C1457 C1456 1.388 . S
C1457 C1458 1.390 . S
C1458 C1457 1.390 . S
C1458 C1459 1.394 . S
C1458 C1464 1.465 . S
C1459 C1454 1.399 . S
C1459 C1458 1.394 . S
C1459 C1460 1.516 . S
C1460 C1459 1.516 . S
C1460 C1461 1.502 . S
C1460 C1462 1.561 . S
C1460 C1463 1.526 . S
C1461 H1445 0.959 . S
C1461 H1446 0.959 . S
C1461 H1447 0.961 . S
C1461 C1460 1.502 . S
C1462 H1448 0.960 . S
C1462 H1449 0.961 . S
C1462 H1450 0.959 . S
C1462 C1460 1.561 . S
C1463 C1460 1.526 . S
C1463 C1464 1.396 . S
C1463 C1468 1.390 . S
C1464 C1458 1.465 . S
C1464 C1463 1.396 . S
C1464 C1465 1.399 . S
C1465 H1451 0.929 . S
C1465 C1464 1.399 . S
C1465 C1466 1.385 . S
C1466 H1452 0.931 . S
C1466 C1465 1.385 . S
C1466 C1467 1.389 . S
C1467 C1466 1.389 . S
C1467 C1468 1.387 . S
C1468 H1453 0.930 . S
C1468 C1463 1.390 . S
C1468 C1467 1.387 . S
H1469 C1481 0.930 . S
H1470 C1483 0.930 . S
H1471 C1484 0.930 . S
H1472 C1488 0.959 . S
H1473 C1488 0.959 . S
H1474 C1488 0.961 . S
H1475 C1489 0.960 . S
H1476 C1489 0.961 . S
H1477 C1489 0.959 . S
H1478 C1492 0.929 . S
H1479 C1493 0.931 . S
H1480 C1495 0.930 . S
C1481 H1469 0.930 . S
C1481 C1482 1.399 . S
C1481 C1486 1.399 . S
C1482 C1481 1.399 . S
C1482 C1483 1.376 . S
C1483 H1470 0.930 . S
C1483 C1482 1.376 . S
C1483 C1484 1.388 . S
C1484 H1471 0.930 . S
C1484 C1483 1.388 . S
C1484 C1485 1.390 . S
C1485 C1484 1.390 . S
C1485 C1486 1.394 . S
C1485 C1491 1.465 . S
C1486 C1481 1.399 . S
C1486 C1485 1.394 . S
C1486 C1487 1.516 . S
C1487 C1486 1.516 . S
C1487 C1488 1.502 . S
C1487 C1489 1.561 . S
C1487 C1490 1.526 . S
C1488 H1472 0.959 . S
C1488 H1473 0.959 . S
C1488 H1474 0.961 . S
C1488 C1487 1.502 . S
C1489 H1475 0.960 . S
C1489 H1476 0.961 . S
C1489 H1477 0.959 . S
C1489 C1487 1.561 . S
C1490 C1487 1.526 . S
C1490 C1491 1.396 . S
C1490 C1495 1.390 . S
C1491 C1485 1.465 . S
C1491 C1490 1.396 . S
C1491 C1492 1.399 . S
C1492 H1478 0.929 . S
C1492 C1491 1.399 . S
C1492 C1493 1.385 . S
C1493 H1479 0.931 . S
C1493 C1492 1.385 . S
C1493 C1494 1.389 . S
C1494 C1493 1.389 . S
C1494 C1495 1.387 . S
C1495 H1480 0.930 . S
C1495 C1490 1.390 . S
C1495 C1494 1.387 . S
H1496 C1508 0.930 . S
H1497 C1510 0.930 . S
H1498 C1511 0.930 . S
H1499 C1515 0.959 . S
H1500 C1515 0.959 . S
H1501 C1515 0.961 . S
H1502 C1516 0.960 . S
H1503 C1516 0.961 . S
H1504 C1516 0.959 . S
H1505 C1519 0.929 . S
H1506 C1520 0.931 . S
H1507 C1522 0.930 . S
C1508 H1496 0.930 . S
C1508 C1509 1.399 1_565 S
C1508 C1513 1.399 . S
C1509 C1508 1.399 1_545 S
C1509 C1510 1.376 . S
C1510 H1497 0.930 . S
C1510 C1509 1.376 . S
C1510 C1511 1.388 1_545 S
C1511 H1498 0.930 . S
C1511 C1510 1.388 1_565 S
C1511 C1512 1.390 . S
C1512 C1511 1.390 . S
C1512 C1513 1.394 . S
C1512 C1518 1.465 . S
C1513 C1508 1.399 . S
C1513 C1512 1.394 . S
C1513 C1514 1.516 . S
C1514 C1513 1.516 . S
C1514 C1515 1.502 . S
C1514 C1516 1.561 . S
C1514 C1517 1.526 . S
C1515 H1499 0.959 . S
C1515 H1500 0.959 . S
C1515 H1501 0.961 . S
C1515 C1514 1.502 . S
C1516 H1502 0.960 . S
C1516 H1503 0.961 . S
C1516 H1504 0.959 . S
C1516 C1514 1.561 . S
C1517 C1514 1.526 . S
C1517 C1518 1.396 . S
C1517 C1522 1.390 . S
C1518 C1512 1.465 . S
C1518 C1517 1.396 . S
C1518 C1519 1.399 . S
C1519 H1505 0.929 . S
C1519 C1518 1.399 . S
C1519 C1520 1.385 . S
C1520 H1506 0.931 . S
C1520 C1519 1.385 . S
C1520 C1521 1.389 . S
C1521 C1520 1.389 . S
C1521 C1522 1.387 . S
C1522 H1507 0.930 . S
C1522 C1517 1.390 . S
C1522 C1521 1.387 . S
H1523 C1535 0.930 . S
H1524 C1537 0.930 . S
H1525 C1538 0.930 . S
H1526 C1542 0.959 . S
H1527 C1542 0.959 . S
H1528 C1542 0.961 . S
H1529 C1543 0.960 . S
H1530 C1543 0.961 . S
H1531 C1543 0.959 . S
H1532 C1546 0.929 . S
H1533 C1547 0.931 . S
H1534 C1549 0.930 . S
C1535 H1523 0.930 . S
C1535 C1536 1.399 . S
C1535 C1540 1.399 . S
C1536 C1535 1.399 . S
C1536 C1537 1.376 . S
C1537 H1524 0.930 . S
C1537 C1536 1.376 . S
C1537 C1538 1.388 . S
C1538 H1525 0.930 . S
C1538 C1537 1.388 . S
C1538 C1539 1.390 . S
C1539 C1538 1.390 . S
C1539 C1540 1.394 . S
C1539 C1545 1.465 . S
C1540 C1535 1.399 . S
C1540 C1539 1.394 . S
C1540 C1541 1.516 . S
C1541 C1540 1.516 . S
C1541 C1542 1.502 . S
C1541 C1543 1.561 . S
C1541 C1544 1.526 . S
C1542 H1526 0.959 . S
C1542 H1527 0.959 . S
C1542 H1528 0.961 . S
C1542 C1541 1.502 . S
C1543 H1529 0.960 . S
C1543 H1530 0.961 . S
C1543 H1531 0.959 . S
C1543 C1541 1.561 . S
C1544 C1541 1.526 . S
C1544 C1545 1.396 . S
C1544 C1549 1.390 . S
C1545 C1539 1.465 . S
C1545 C1544 1.396 . S
C1545 C1546 1.399 . S
C1546 H1532 0.929 . S
C1546 C1545 1.399 . S
C1546 C1547 1.385 . S
C1547 H1533 0.931 . S
C1547 C1546 1.385 . S
C1547 C1548 1.389 . S
C1548 C1547 1.389 . S
C1548 C1549 1.387 . S
C1549 H1534 0.930 . S
C1549 C1544 1.390 . S
C1549 C1548 1.387 . S
H1550 C1562 0.930 . S
H1551 C1564 0.930 . S
H1552 C1565 0.930 . S
H1553 C1569 0.959 . S
H1554 C1569 0.959 . S
H1555 C1569 0.961 . S
H1556 C1570 0.960 . S
H1557 C1570 0.961 . S
H1558 C1570 0.959 . S
H1559 C1573 0.929 . S
H1560 C1574 0.931 . S
H1561 C1576 0.930 . S
C1562 H1550 0.930 . S
C1562 C1563 1.399 . S
C1562 C1567 1.399 . S
C1563 C1562 1.399 . S
C1563 C1564 1.376 . S
C1564 H1551 0.930 . S
C1564 C1563 1.376 . S
C1564 C1565 1.388 . S
C1565 H1552 0.930 . S
C1565 C1564 1.388 . S
C1565 C1566 1.390 . S
C1566 C1565 1.390 . S
C1566 C1567 1.394 . S
C1566 C1572 1.465 . S
C1567 C1562 1.399 . S
C1567 C1566 1.394 . S
C1567 C1568 1.516 . S
C1568 C1567 1.516 . S
C1568 C1569 1.502 . S
C1568 C1570 1.561 . S
C1568 C1571 1.526 . S
C1569 H1553 0.959 . S
C1569 H1554 0.959 . S
C1569 H1555 0.961 . S
C1569 C1568 1.502 . S
C1570 H1556 0.960 . S
C1570 H1557 0.961 . S
C1570 H1558 0.959 . S
C1570 C1568 1.561 . S
C1571 C1568 1.526 . S
C1571 C1572 1.396 . S
C1571 C1576 1.390 . S
C1572 C1566 1.465 . S
C1572 C1571 1.396 . S
C1572 C1573 1.399 . S
C1573 H1559 0.929 . S
C1573 C1572 1.399 . S
C1573 C1574 1.385 1_455 S
C1574 H1560 0.931 . S
C1574 C1573 1.385 1_655 S
C1574 C1575 1.389 . S
C1575 C1574 1.389 . S
C1575 C1576 1.387 1_655 S
C1576 H1561 0.930 . S
C1576 C1571 1.390 . S
C1576 C1575 1.387 1_455 S
H1577 C1589 0.930 . S
H1578 C1591 0.930 . S
H1579 C1592 0.930 . S
H1580 C1596 0.959 . S
H1581 C1596 0.959 . S
H1582 C1596 0.961 . S
H1583 C1597 0.960 . S
H1584 C1597 0.961 . S
H1585 C1597 0.959 . S
H1586 C1600 0.929 . S
H1587 C1601 0.931 . S
H1588 C1603 0.930 . S
C1589 H1577 0.930 . S
C1589 C1590 1.399 1_545 S
C1589 C1594 1.399 . S
C1590 C1589 1.399 1_565 S
C1590 C1591 1.376 . S
C1591 H1578 0.930 . S
C1591 C1590 1.376 . S
C1591 C1592 1.388 1_565 S
C1592 H1579 0.930 . S
C1592 C1591 1.388 1_545 S
C1592 C1593 1.390 . S
C1593 C1592 1.390 . S
C1593 C1594 1.394 . S
C1593 C1599 1.465 . S
C1594 C1589 1.399 . S
C1594 C1593 1.394 . S
C1594 C1595 1.516 . S
C1595 C1594 1.516 . S
C1595 C1596 1.502 . S
C1595 C1597 1.561 . S
C1595 C1598 1.526 . S
C1596 H1580 0.959 . S
C1596 H1581 0.959 . S
C1596 H1582 0.961 . S
C1596 C1595 1.502 . S
C1597 H1583 0.960 . S
C1597 H1584 0.961 . S
C1597 H1585 0.959 . S
C1597 C1595 1.561 . S
C1598 C1595 1.526 . S
C1598 C1599 1.396 . S
C1598 C1603 1.390 . S
C1599 C1593 1.465 . S
C1599 C1598 1.396 . S
C1599 C1600 1.399 . S
C1600 H1586 0.929 . S
C1600 C1599 1.399 . S
C1600 C1601 1.385 1_655 S
C1601 H1587 0.931 . S
C1601 C1600 1.385 1_455 S
C1601 C1602 1.389 . S
C1602 C1601 1.389 . S
C1602 C1603 1.387 1_455 S
C1603 H1588 0.930 . S
C1603 C1598 1.390 . S
C1603 C1602 1.387 1_655 S
H1604 C1616 0.930 . S
H1605 C1618 0.930 . S
H1606 C1619 0.930 . S
H1607 C1623 0.959 . S
H1608 C1623 0.959 . S
H1609 C1623 0.961 . S
H1610 C1624 0.960 . S
H1611 C1624 0.961 . S
H1612 C1624 0.959 . S
H1613 C1627 0.929 . S
H1614 C1628 0.931 . S
H1615 C1630 0.930 . S
C1616 H1604 0.930 . S
C1616 C1617 1.399 . S
C1616 C1621 1.399 . S
C1617 C1616 1.399 . S
C1617 C1618 1.376 . S
C1618 H1605 0.930 . S
C1618 C1617 1.376 . S
C1618 C1619 1.388 . S
C1619 H1606 0.930 . S
C1619 C1618 1.388 . S
C1619 C1620 1.390 . S
C1620 C1619 1.390 . S
C1620 C1621 1.394 . S
C1620 C1626 1.465 . S
C1621 C1616 1.399 . S
C1621 C1620 1.394 . S
C1621 C1622 1.516 . S
C1622 C1621 1.516 . S
C1622 C1623 1.502 . S
C1622 C1624 1.561 . S
C1622 C1625 1.526 . S
C1623 H1607 0.959 . S
C1623 H1608 0.959 . S
C1623 H1609 0.961 . S
C1623 C1622 1.502 . S
C1624 H1610 0.960 . S
C1624 H1611 0.961 . S
C1624 H1612 0.959 . S
C1624 C1622 1.561 . S
C1625 C1622 1.526 . S
C1625 C1626 1.396 . S
C1625 C1630 1.390 . S
C1626 C1620 1.465 . S
C1626 C1625 1.396 . S
C1626 C1627 1.399 . S
C1627 H1613 0.929 . S
C1627 C1626 1.399 . S
C1627 C1628 1.385 . S
C1628 H1614 0.931 . S
C1628 C1627 1.385 . S
C1628 C1629 1.389 . S
C1629 C1628 1.389 . S
C1629 C1630 1.387 . S
C1630 H1615 0.930 . S
C1630 C1625 1.390 . S
C1630 C1629 1.387 . S
H1631 C1643 0.930 . S
H1632 C1645 0.930 . S
H1633 C1646 0.930 . S
H1634 C1650 0.959 . S
H1635 C1650 0.959 . S
H1636 C1650 0.961 . S
H1637 C1651 0.960 . S
H1638 C1651 0.961 . S
H1639 C1651 0.959 . S
H1640 C1654 0.929 . S
H1641 C1655 0.931 . S
H1642 C1657 0.930 . S
C1643 H1631 0.930 . S
C1643 C1644 1.399 1_655 S
C1643 C1648 1.399 . S
C1644 C1643 1.399 1_455 S
C1644 C1645 1.376 . S
C1645 H1632 0.930 . S
C1645 C1644 1.376 . S
C1645 C1646 1.388 1_455 S
C1646 H1633 0.930 . S
C1646 C1645 1.388 1_655 S
C1646 C1647 1.390 . S
C1647 C1646 1.390 . S
C1647 C1648 1.394 . S
C1647 C1653 1.465 . S
C1648 C1643 1.399 . S
C1648 C1647 1.394 . S
C1648 C1649 1.516 . S
C1649 C1648 1.516 . S
C1649 C1650 1.502 . S
C1649 C1651 1.561 . S
C1649 C1652 1.526 . S
C1650 H1634 0.959 . S
C1650 H1635 0.959 . S
C1650 H1636 0.961 . S
C1650 C1649 1.502 . S
C1651 H1637 0.960 . S
C1651 H1638 0.961 . S
C1651 H1639 0.959 . S
C1651 C1649 1.561 . S
C1652 C1649 1.526 . S
C1652 C1653 1.396 . S
C1652 C1657 1.390 . S
C1653 C1647 1.465 . S
C1653 C1652 1.396 . S
C1653 C1654 1.399 . S
C1654 H1640 0.929 . S
C1654 C1653 1.399 . S
C1654 C1655 1.385 . S
C1655 H1641 0.931 . S
C1655 C1654 1.385 . S
C1655 C1656 1.389 . S
C1656 C1655 1.389 . S
C1656 C1657 1.387 . S
C1657 H1642 0.930 . S
C1657 C1652 1.390 . S
C1657 C1656 1.387 . S
H1658 C1670 0.930 . S
H1659 C1672 0.930 . S
H1660 C1673 0.930 . S
H1661 C1677 0.959 . S
H1662 C1677 0.959 1_545 S
H1663 C1677 0.961 1_655 S
H1664 C1678 0.960 . S
H1665 C1678 0.961 . S
H1666 C1678 0.959 . S
H1667 C1681 0.929 . S
H1668 C1682 0.931 . S
H1669 C1684 0.930 . S
C1670 H1658 0.930 . S
C1670 C1671 1.399 . S
C1670 C1675 1.399 1_655 S
C1671 C1670 1.399 . S
C1671 C1672 1.376 1_655 S
C1672 H1659 0.930 . S
C1672 C1671 1.376 1_455 S
C1672 C1673 1.388 . S
C1673 H1660 0.930 . S
C1673 C1672 1.388 . S
C1673 C1674 1.390 . S
C1674 C1673 1.390 . S
C1674 C1675 1.394 . S
C1674 C1680 1.465 . S
C1675 C1670 1.399 1_455 S
C1675 C1674 1.394 . S
C1675 C1676 1.516 . S
C1676 C1675 1.516 . S
C1676 C1677 1.502 . S
C1676 C1678 1.561 . S
C1676 C1679 1.526 . S
C1677 H1661 0.959 . S
C1677 H1662 0.959 1_565 S
C1677 H1663 0.961 1_455 S
C1677 C1676 1.502 . S
C1678 H1664 0.960 . S
C1678 H1665 0.961 . S
C1678 H1666 0.959 . S
C1678 C1676 1.561 . S
C1679 C1676 1.526 . S
C1679 C1680 1.396 . S
C1679 C1684 1.390 1_565 S
C1680 C1674 1.465 . S
C1680 C1679 1.396 . S
C1680 C1681 1.399 . S
C1681 H1667 0.929 . S
C1681 C1680 1.399 . S
C1681 C1682 1.385 . S
C1682 H1668 0.931 . S
C1682 C1681 1.385 . S
C1682 C1683 1.389 1_565 S
C1683 C1682 1.389 1_545 S
C1683 C1684 1.387 . S
C1684 H1669 0.930 . S
C1684 C1679 1.390 1_545 S
C1684 C1683 1.387 . S
H1685 C1697 0.930 . S
H1686 C1699 0.930 . S
H1687 C1700 0.930 . S
H1688 C1704 0.963 . S
H1689 C1704 0.959 . S
H1690 C1704 0.961 1_565 S
H1691 C1705 0.960 . S
H1692 C1705 0.961 . S
H1693 C1705 0.959 . S
H1694 C1708 0.929 . S
H1695 C1709 0.931 . S
H1696 C1711 0.930 . S
C1697 H1685 0.930 . S
C1697 C1698 1.399 . S
C1697 C1702 1.399 1_565 S
C1698 C1697 1.399 . S
C1698 C1699 1.376 1_565 S
C1699 H1686 0.930 . S
C1699 C1698 1.376 1_545 S
C1699 C1700 1.388 . S
C1700 H1687 0.930 . S
C1700 C1699 1.388 . S
C1700 C1701 1.390 . S
C1701 C1700 1.390 . S
C1701 C1702 1.394 . S
C1701 C1707 1.465 . S
C1702 C1697 1.399 1_545 S
C1702 C1701 1.394 . S
C1702 C1703 1.516 . S
C1703 C1702 1.516 . S
C1703 C1704 1.502 . S
C1703 C1705 1.561 . S
C1703 C1706 1.526 . S
C1704 H1688 0.963 . S
C1704 H1689 0.959 . S
C1704 H1690 0.961 1_545 S
C1704 C1703 1.502 . S
C1705 H1691 0.960 . S
C1705 H1692 0.961 . S
C1705 H1693 0.959 . S
C1705 C1703 1.561 . S
C1706 C1703 1.526 . S
C1706 C1707 1.396 . S
C1706 C1711 1.390 . S
C1707 C1701 1.465 . S
C1707 C1706 1.396 . S
C1707 C1708 1.399 . S
C1708 H1694 0.929 . S
C1708 C1707 1.399 . S
C1708 C1709 1.385 . S
C1709 H1695 0.931 . S
C1709 C1708 1.385 . S
C1709 C1710 1.389 . S
C1710 C1709 1.389 . S
C1710 C1711 1.387 . S
C1711 H1696 0.930 . S
C1711 C1706 1.390 . S
C1711 C1710 1.387 . S
C861 C410 1.804 . S
C873 C39 1.817 . S
C888 C251 1.792 . S
C900 C92 1.792 . S
C915 C304 1.819 . S
C927 C145 1.807 . S
C942 C198 1.819 . S
C954 C357 1.807 . S
C969 C834 1.829 . S
C981 C463 1.824 . S
C996 C675 1.797 . S
C1008 C516 1.826 . S
C1023 C569 1.796 . S
C1035 C728 1.825 . S
C1050 C622 1.785 . S
C1062 C781 1.802 . S
C1077 C135 1.405 . S
C1089 C29 1.443 . S
C1104 C82 1.405 . S
C1116 C188 1.443 . S
C1131 C241 1.454 . S
C1143 C347 1.423 . S
C1158 C400 1.457 . S
C1170 C294 1.413 . S
C1185 C453 1.422 . S
C1197 C559 1.452 . S
C1212 C506 1.438 . S
C1224 C612 1.423 . S
C1239 C771 1.425 . S
C1251 C665 1.450 . S
C1266 C718 1.446 . S
C1278 C824 1.416 . S
C1293 C356 1.860 . S
C1305 C38 1.835 . S
C1320 C91 1.840 . S
C1332 C409 1.856 . S
C1347 C144 1.831 . S
C1359 C250 1.849 . S
C1374 C197 1.858 . S
C1386 C303 1.825 . S
C1401 C462 1.835 . S
C1413 C780 1.858 . S
C1428 C515 1.851 . S
C1440 C833 1.856 . S
C1455 C568 1.835 . S
C1467 C674 1.858 . S
C1482 C621 1.832 . S
C1494 C727 1.869 . S
C1509 C22 1.506 . S
C1521 C817 1.503 . S
C1536 C658 1.512 . S
C1548 C75 1.510 . S
C1563 C128 1.506 . S
C1575 C711 1.503 . S
C1590 C764 1.504 . S
C1602 C181 1.507 . S
C1617 C499 1.523 . S
C1629 C234 1.521 . S
C1644 C287 1.506 . S
C1656 C552 1.503 . S
C1671 C605 1.513 . S
C1683 C340 1.511 . S
C1698 C446 1.517 . S
C1710 C393 1.515 . S
