# Generated by pormake.
# Topology zft, (5)-cn, num edge types: 1
# Building blocks:
#     Node 0, Type 0, BuildingBlock: BEQFEK_clean_sbu_0, # of connection points: 5
#     Node 1, Type 0, BuildingBlock: BEQFEK_clean_sbu_0, # of connection points: 5
#     Node 2, Type 0, BuildingBlock: BEQFEK_clean_sbu_0, # of connection points: 5
#     Node 3, Type 0, BuildingBlock: BEQFEK_clean_sbu_0, # of connection points: 5
#     Node 4, Type 0, BuildingBlock: BEQFEK_clean_sbu_0, # of connection points: 5
#     Node 5, Type 0, BuildingBlock: BEQFEK_clean_sbu_0, # of connection points: 5
#     Node 6, Type 0, BuildingBlock: BEQFEK_clean_sbu_0, # of connection points: 5
#     Node 7, Type 0, BuildingBlock: BEQFEK_clean_sbu_0, # of connection points: 5
#     Edge 8, Type (0, 0), BuildingBlock: EZIPEK_clean_linker_0, # of connection points: 2
#     Edge 9, Type (0, 0), BuildingBlock: EZIPEK_clean_linker_0, # of connection points: 2
#     Edge 10, Type (0, 0), BuildingBlock: EZIPEK_clean_linker_0, # of connection points: 2
#     Edge 11, Type (0, 0), BuildingBlock: EZIPEK_clean_linker_0, # of connection points: 2
#     Edge 12, Type (0, 0), BuildingBlock: EZIPEK_clean_linker_0, # of connection points: 2
#     Edge 13, Type (0, 0), BuildingBlock: EZIPEK_clean_linker_0, # of connection points: 2
#     Edge 14, Type (0, 0), BuildingBlock: EZIPEK_clean_linker_0, # of connection points: 2
#     Edge 15, Type (0, 0), BuildingBlock: EZIPEK_clean_linker_0, # of connection points: 2
#     Edge 16, Type (0, 0), BuildingBlock: EZIPEK_clean_linker_0, # of connection points: 2
#     Edge 17, Type (0, 0), BuildingBlock: EZIPEK_clean_linker_0, # of connection points: 2
#     Edge 18, Type (0, 0), BuildingBlock: EZIPEK_clean_linker_0, # of connection points: 2
#     Edge 19, Type (0, 0), BuildingBlock: EZIPEK_clean_linker_0, # of connection points: 2
#     Edge 20, Type (0, 0), BuildingBlock: EZIPEK_clean_linker_0, # of connection points: 2
#     Edge 21, Type (0, 0), BuildingBlock: EZIPEK_clean_linker_0, # of connection points: 2
#     Edge 22, Type (0, 0), BuildingBlock: EZIPEK_clean_linker_0, # of connection points: 2
#     Edge 23, Type (0, 0), BuildingBlock: EZIPEK_clean_linker_0, # of connection points: 2
#     Edge 24, Type (0, 0), BuildingBlock: EZIPEK_clean_linker_0, # of connection points: 2
#     Edge 25, Type (0, 0), BuildingBlock: EZIPEK_clean_linker_0, # of connection points: 2
#     Edge 26, Type (0, 0), BuildingBlock: EZIPEK_clean_linker_0, # of connection points: 2
#     Edge 27, Type (0, 0), BuildingBlock: EZIPEK_clean_linker_0, # of connection points: 2
# Relax obj value: 0.044
# Max RMSD: 0.117
# Mean RMSD: 0.117
data_MOF--net-zft--node1-BEQFEK_clean_sbu_0--edge1-EZIPEK_clean_linker_0
_symmetry_space_group_name_H-M    P1
_symmetry_Int_Tables_number       1
_symmetry_cell_setting            triclinic
loop_
_symmetry_equiv_pos_as_xyz
'x, y, z'
_cell_length_a     22.031614
_cell_length_b     22.061534
_cell_length_c     40.969906
_cell_angle_alpha  89.844008
_cell_angle_beta   89.908639
_cell_angle_gamma 89.987638
loop_
_atom_site_label
_atom_site_type_symbol
_atom_site_fract_x
_atom_site_fract_y
_atom_site_fract_z
_atom_type_partial_charge
Co0 Co 0.03905 0.27064 0.19025 0.0
Co1 Co 0.15061 0.34307 0.16177 0.0
C2 C 0.02712 0.34297 0.12954 0.0
O3 O 0.00282 0.3102 0.15161 0.0
O4 O 0.08268 0.35879 0.13087 0.0
C5 C 0.91927 0.23276 0.21176 0.0
O6 O 0.8981 0.27081 0.18987 0.0
C7 C 0.21186 0.45481 0.14153 0.0
C8 C 0.30813 0.42724 0.13913 0.0
C9 C 0.26948 0.47596 0.13445 0.0
N10 N 0.21587 0.39606 0.15002 0.0
N11 N 0.27359 0.3798 0.14851 0.0
C12 C 0.15396 0.48996 0.14043 0.0
H13 H 0.13456 0.4867 0.11552 0.0
H14 H 0.12081 0.47075 0.15807 0.0
H15 H 0.16228 0.53851 0.14589 0.0
C16 C 0.0681 0.34411 0.24813 0.0
N17 N 0.07882 0.32709 0.21713 0.0
N18 N 0.12702 0.35571 0.206 0.0
C19 C 0.14947 0.39077 0.23003 0.0
C20 C 0.11273 0.38474 0.25746 0.0
C21 C 0.01477 0.32344 0.26787 0.0
H22 H 0.97269 0.32973 0.25344 0.0
H23 H 0.01083 0.34882 0.29112 0.0
H24 H 0.01958 0.27438 0.2733 0.0
O25 O 0.09646 0.20776 0.17452 0.0
O26 O 0.17643 0.25794 0.15491 0.0
H27 H 0.22159 0.44431 0.25115 0.0
H28 H 0.19374 0.4701 0.21215 0.0
C29 C 0.20493 0.42944 0.22691 0.0
H30 H 0.24131 0.40395 0.21424 0.0
H31 H 0.28942 0.33632 0.15388 0.0
O32 O 0.97616 0.22709 0.21571 0.0
C33 C 0.14855 0.20859 0.16101 0.0
Co34 Co 0.21337 0.53446 0.44086 0.0
Co35 Co 0.12757 0.63491 0.41313 0.0
C36 C 0.1433 0.51809 0.37828 0.0
O37 O 0.18197 0.49915 0.39909 0.0
O38 O 0.11628 0.56846 0.382 0.0
C39 C 0.24946 0.41562 0.46354 0.0
O40 O 0.20408 0.39529 0.44597 0.0
C41 C 0.01548 0.68939 0.38949 0.0
C42 C 0.03366 0.78736 0.39488 0.0
C43 C 0.99043 0.74606 0.38465 0.0
N44 N 0.07139 0.69657 0.40189 0.0
N45 N 0.0822 0.75523 0.40489 0.0
C46 C 0.9862 0.62937 0.38334 0.0
H47 H 0.00133 0.59582 0.40185 0.0
H48 H 0.93597 0.63334 0.38371 0.0
H49 H 0.00039 0.61286 0.35892 0.0
C50 C 0.13874 0.55799 0.50024 0.0
N51 N 0.15148 0.56636 0.46832 0.0
N52 N 0.11475 0.60791 0.45645 0.0
C53 C 0.07657 0.62622 0.48017 0.0
C54 C 0.09057 0.59538 0.50876 0.0
C55 C 0.17507 0.51859 0.52262 0.0
H56 H 0.22412 0.52818 0.51929 0.0
H57 H 0.16713 0.47052 0.51616 0.0
H58 H 0.1623 0.52569 0.54855 0.0
O59 O 0.27136 0.59864 0.42858 0.0
O60 O 0.21081 0.66891 0.4071 0.0
H61 H 0.05095 0.71748 0.46914 0.0
H62 H 0.00171 0.68043 0.49841 0.0
C63 C 0.02899 0.67399 0.4759 0.0
H64 H 0.99817 0.66069 0.45583 0.0
H65 H 0.1225 0.77327 0.41403 0.0
O66 O 0.26036 0.4721 0.46467 0.0
C67 C 0.26353 0.64947 0.41449 0.0
Co68 Co 0.95706 0.72344 0.69078 0.0
Co69 Co 0.84406 0.654 0.66238 0.0
C70 C 0.96847 0.6524 0.63 0.0
O71 O 0.99327 0.68373 0.65236 0.0
O72 O 0.91235 0.63824 0.63112 0.0
C73 C 0.07545 0.75484 0.71729 0.0
O74 O 0.09346 0.70238 0.70562 0.0
C75 C 0.7756 0.54557 0.64131 0.0
C76 C 0.68409 0.56932 0.65831 0.0
C77 C 0.71774 0.52057 0.64679 0.0
N78 N 0.77618 0.60305 0.6523 0.0
N79 N 0.72063 0.6176 0.66126 0.0
C80 C 0.82803 0.51887 0.62294 0.0
H81 H 0.8491 0.55416 0.60733 0.0
H82 H 0.86296 0.50297 0.64044 0.0
H83 H 0.8137 0.48119 0.60688 0.0
C84 C 0.9278 0.64447 0.74881 0.0
N85 N 0.91754 0.66538 0.71824 0.0
N86 N 0.86765 0.63989 0.70697 0.0
C87 C 0.84354 0.60453 0.73068 0.0
C88 C 0.88088 0.60634 0.75779 0.0
C89 C 0.98313 0.65624 0.76878 0.0
H90 H 0.02108 0.6715 0.75331 0.0
H91 H 0.99689 0.61439 0.78195 0.0
H92 H 0.97245 0.69081 0.7875 0.0
O93 O 0.89902 0.78666 0.67541 0.0
O94 O 0.81784 0.73876 0.65623 0.0
H95 H 0.74825 0.60205 0.72172 0.0
H96 H 0.77312 0.5474 0.75133 0.0
C97 C 0.78524 0.57023 0.72806 0.0
H98 H 0.78942 0.5355 0.70875 0.0
H99 H 0.70842 0.65949 0.67106 0.0
O100 O 0.02044 0.77075 0.71383 0.0
C101 C 0.84643 0.78731 0.66261 0.0
Co102 Co 0.77768 0.45469 0.94207 0.0
Co103 Co 0.86342 0.35585 0.91229 0.0
C104 C 0.84902 0.47139 0.87841 0.0
O105 O 0.80924 0.48783 0.89934 0.0
O106 O 0.87823 0.42199 0.88155 0.0
C107 C 0.74772 0.56638 0.97708 0.0
O108 O 0.80621 0.57801 0.97677 0.0
C109 C 0.96509 0.28592 0.8832 0.0
C110 C 0.96404 0.2042 0.91446 0.0
C111 C 0.99677 0.23272 0.8899 0.0
N112 N 0.91714 0.28929 0.90359 0.0
N113 N 0.91607 0.23953 0.92159 0.0
C114 C 0.97981 0.3328 0.85794 0.0
H115 H 0.93843 0.34347 0.84365 0.0
H116 H 0.99458 0.37506 0.87022 0.0
H117 H 0.01609 0.31708 0.84116 0.0
C118 C 0.85371 0.42938 1.00107 0.0
N119 N 0.83966 0.4227 0.9692 0.0
N120 N 0.87802 0.38414 0.9559 0.0
C121 C 0.9201 0.36882 0.97841 0.0
C122 C 0.90531 0.39594 0.00779 0.0
C123 C 0.81509 0.46104 0.02567 0.0
H124 H 0.76702 0.45726 0.01855 0.0
H125 H 0.8282 0.50946 0.02686 0.0
H126 H 0.82126 0.44109 0.05035 0.0
O127 O 0.72009 0.39065 0.93245 0.0
O128 O 0.77705 0.32739 0.90384 0.0
H129 H 0.96275 0.28192 0.97669 0.0
H130 H 0.01177 0.34203 0.98947 0.0
C131 C 0.97465 0.33008 0.97236 0.0
H132 H 0.99098 0.33611 0.94699 0.0
H133 H 0.88401 0.23097 0.93981 0.0
O134 O 0.72821 0.51871 0.9634 0.0
C135 C 0.72507 0.34473 0.91408 0.0
Co136 Co 0.53727 0.22907 0.55977 0.0
Co137 Co 0.64079 0.15427 0.59427 0.0
C138 C 0.51483 0.15578 0.6206 0.0
O139 O 0.4969 0.19236 0.59851 0.0
O140 O 0.56878 0.1353 0.62123 0.0
C141 C 0.42128 0.25897 0.52978 0.0
O142 O 0.40361 0.20585 0.54086 0.0
C143 C 0.70205 0.04421 0.61658 0.0
C144 C 0.79671 0.07474 0.62323 0.0
C145 C 0.75916 0.02461 0.62575 0.0
N146 N 0.70532 0.1034 0.60897 0.0
N147 N 0.76199 0.12151 0.61317 0.0
C148 C 0.64558 0.00693 0.61429 0.0
H149 H 0.61364 0.02725 0.5964 0.0
H150 H 0.65667 0.95966 0.6072 0.0
H151 H 0.62318 0.00577 0.63856 0.0
C152 C 0.57486 0.15059 0.5037 0.0
N153 N 0.57983 0.17021 0.53476 0.0
N154 N 0.62623 0.14258 0.54863 0.0
C155 C 0.65328 0.10647 0.52635 0.0
C156 C 0.62139 0.11036 0.49728 0.0
C157 C 0.52514 0.16692 0.4806 0.0
H158 H 0.48368 0.17958 0.49404 0.0
H159 H 0.51467 0.12829 0.46423 0.0
H160 H 0.54055 0.20516 0.46507 0.0
O161 O 0.59401 0.29162 0.57611 0.0
O162 O 0.66079 0.23933 0.60528 0.0
H163 H 0.72928 0.05318 0.50938 0.0
H164 H 0.69519 0.02813 0.54704 0.0
C165 C 0.70837 0.0686 0.53259 0.0
H166 H 0.74212 0.09495 0.54668 0.0
H167 H 0.77707 0.16566 0.60886 0.0
O168 O 0.47576 0.27581 0.5344 0.0
C169 C 0.63837 0.28966 0.59594 0.0
Co170 Co 0.28122 0.02678 0.80856 0.0
Co171 Co 0.36205 0.12647 0.84137 0.0
C172 C 0.3541 0.00318 0.86979 0.0
O173 O 0.31661 0.98725 0.84781 0.0
O174 O 0.37809 0.05561 0.86998 0.0
C175 C 0.24613 0.9095 0.78466 0.0
O176 O 0.28941 0.88849 0.80355 0.0
C177 C 0.46548 0.1917 0.87138 0.0
C178 C 0.46188 0.27817 0.84417 0.0
C179 C 0.49661 0.24587 0.86645 0.0
N180 N 0.41592 0.19157 0.85214 0.0
N181 N 0.41339 0.24403 0.83659 0.0
C182 C 0.48191 0.14112 0.89411 0.0
H183 H 0.44158 0.12834 0.90885 0.0
H184 H 0.49557 0.10086 0.87967 0.0
H185 H 0.51945 0.15419 0.91068 0.0
C186 C 0.3498 0.06348 0.75027 0.0
N187 N 0.33822 0.06692 0.78244 0.0
N188 N 0.37249 0.10851 0.79572 0.0
C189 C 0.40831 0.13247 0.77228 0.0
C190 C 0.39038 0.10993 0.74161 0.0
C191 C 0.33436 0.00752 0.73131 0.0
H192 H 0.3383 0.96754 0.74758 0.0
H193 H 0.36576 0.00026 0.71053 0.0
H194 H 0.28662 0.00966 0.72281 0.0
O195 O 0.22095 0.08611 0.82334 0.0
O196 O 0.27604 0.15247 0.85115 0.0
H197 H 0.46429 0.2104 0.78247 0.0
H198 H 0.50278 0.15034 0.76108 0.0
C199 C 0.4686 0.16067 0.78019 0.0
H200 H 0.48556 0.14282 0.80382 0.0
H201 H 0.37999 0.25535 0.8196 0.0
O202 O 0.23619 0.96611 0.78297 0.0
C203 C 0.22458 0.13238 0.84169 0.0
Co204 Co 0.46628 0.77125 0.06242 0.0
Co205 Co 0.35491 0.84498 0.08943 0.0
C206 C 0.47758 0.84563 0.12231 0.0
O207 O 0.50216 0.81258 0.10058 0.0
O208 O 0.4221 0.86147 0.12055 0.0
C209 C 0.58687 0.7377 0.04025 0.0
O210 O 0.60667 0.78205 0.0587 0.0
C211 C 0.29115 0.95261 0.11368 0.0
C212 C 0.19522 0.93123 0.1032 0.0
C213 C 0.23287 0.97533 0.11605 0.0
N214 N 0.28851 0.89733 0.10002 0.0
N215 N 0.23094 0.88464 0.094 0.0
C216 C 0.34868 0.98411 0.12281 0.0
H217 H 0.36595 0.96445 0.14596 0.0
H218 H 0.38335 0.97658 0.10359 0.0
H219 H 0.34133 0.03346 0.12626 0.0
C220 C 0.43467 0.83809 0.00227 0.0
N221 N 0.42534 0.82494 0.03396 0.0
N222 N 0.37825 0.85513 0.04473 0.0
C223 C 0.35528 0.88827 0.02001 0.0
C224 C 0.38639 0.87419 0.99084 0.0
C225 C 0.49628 0.82983 0.98726 0.0
H226 H 0.53133 0.83521 0.00641 0.0
H227 H 0.50575 0.86418 0.96815 0.0
H228 H 0.50093 0.78328 0.9774 0.0
O229 O 0.4089 0.70862 0.07883 0.0
O230 O 0.32883 0.75996 0.09732 0.0
H231 H 0.2669 0.92559 0.02956 0.0
H232 H 0.31676 0.97574 0.00652 0.0
C233 C 0.3143 0.94139 0.02624 0.0
H234 H 0.3283 0.9641 0.04907 0.0
H235 H 0.21613 0.84454 0.08316 0.0
O236 O 0.53035 0.72667 0.03853 0.0
C237 C 0.35649 0.71023 0.09198 0.0
Co238 Co 0.71965 0.95708 0.31308 0.0
Co239 Co 0.62767 0.86168 0.34166 0.0
C240 C 0.65016 0.97609 0.37652 0.0
O241 O 0.69012 0.99195 0.35555 0.0
O242 O 0.61887 0.92823 0.37281 0.0
C243 C 0.75708 0.06988 0.28111 0.0
O244 O 0.7005 0.0873 0.28509 0.0
C245 C 0.51582 0.80578 0.36688 0.0
C246 C 0.53209 0.70884 0.35656 0.0
C247 C 0.49035 0.74871 0.36981 0.0
N248 N 0.57047 0.80007 0.35258 0.0
N249 N 0.58011 0.74195 0.34672 0.0
C250 C 0.48807 0.86487 0.37664 0.0
H251 H 0.50688 0.87856 0.40062 0.0
H252 H 0.49996 0.90049 0.35855 0.0
H253 H 0.438 0.86094 0.37888 0.0
C254 C 0.64316 0.93381 0.25324 0.0
N255 N 0.65564 0.92767 0.2854 0.0
N256 N 0.61599 0.88972 0.29826 0.0
C257 C 0.57602 0.87275 0.27514 0.0
C258 C 0.5922 0.8997 0.24585 0.0
C259 C 0.6841 0.9632 0.22884 0.0
H260 H 0.72731 0.93757 0.2282 0.0
H261 H 0.69315 0.01057 0.23592 0.0
H262 H 0.66428 0.96299 0.20397 0.0
O263 O 0.77373 0.89037 0.32484 0.0
O264 O 0.70988 0.82504 0.34799 0.0
H265 H 0.54382 0.7834 0.28552 0.0
H266 H 0.49481 0.82658 0.25889 0.0
C267 C 0.52502 0.8291 0.28049 0.0
H268 H 0.49798 0.8436 0.3019 0.0
H269 H 0.61921 0.72498 0.3356 0.0
O270 O 0.77316 0.01788 0.29127 0.0
C271 C 0.76336 0.841 0.33979 0.0
C272 C 0.1137 0.48216 0.28866 0.0
C273 C 0.11751 0.41817 0.2888 0.0
C274 C 0.12652 0.41939 0.3484 0.0
C275 C 0.13284 0.48348 0.34761 0.0
N276 N 0.14706 0.574 0.31446 0.0
N277 N 0.13812 0.32569 0.31843 0.0
C278 C 0.13025 0.51454 0.31707 0.0
C279 C 0.12696 0.38659 0.31858 0.0
N280 N 0.09307 0.51225 0.26166 0.0
N281 N 0.11724 0.38998 0.37736 0.0
H282 H 0.1398 0.30018 0.29706 0.0
H283 H 0.15124 0.30175 0.33922 0.0
H284 H 0.11256 0.41274 0.39949 0.0
H285 H 0.1071 0.34392 0.37886 0.0
H286 H 0.08396 0.55862 0.26159 0.0
H287 H 0.07887 0.49007 0.24056 0.0
H288 H 0.15148 0.59615 0.29208 0.0
H289 H 0.16353 0.59939 0.33386 0.0
C290 C 0.00587 0.5751 0.58955 0.0
C291 C 0.00459 0.636 0.60066 0.0
C292 C 0.07256 0.66513 0.55591 0.0
C293 C 0.0652 0.60703 0.54183 0.0
N294 N 0.01931 0.50775 0.54347 0.0
N295 N 0.02804 0.74167 0.59039 0.0
C296 C 0.03055 0.56205 0.55822 0.0
C297 C 0.03597 0.68181 0.58292 0.0
N298 N 0.98554 0.52953 0.60938 0.0
N299 N 0.11506 0.70424 0.5437 0.0
H300 H 0.99941 0.7568 0.60892 0.0
H301 H 0.04491 0.77675 0.57591 0.0
H302 H 0.14362 0.69307 0.52429 0.0
H303 H 0.12623 0.74498 0.55503 0.0
H304 H 0.99031 0.48376 0.60376 0.0
H305 H 0.96969 0.53734 0.633 0.0
H306 H 0.98885 0.47596 0.55276 0.0
H307 H 0.03675 0.49641 0.52061 0.0
C308 C 0.85687 0.47634 0.81731 0.0
C309 C 0.85723 0.50693 0.84784 0.0
C310 C 0.86601 0.60395 0.81889 0.0
C311 C 0.87396 0.57239 0.78902 0.0
N312 N 0.89151 0.47748 0.76136 0.0
N313 N 0.87422 0.59962 0.87778 0.0
C314 C 0.87402 0.50822 0.78872 0.0
C315 C 0.86516 0.57079 0.84872 0.0
N316 N 0.83662 0.41791 0.81512 0.0
N317 N 0.85705 0.66523 0.81877 0.0
H318 H 0.87615 0.57677 0.90006 0.0
H319 H 0.88599 0.64525 0.8794 0.0
H320 H 0.85595 0.69094 0.79738 0.0
H321 H 0.845 0.6895 0.83958 0.0
H322 H 0.8305 0.3959 0.79289 0.0
H323 H 0.81886 0.39392 0.8349 0.0
H324 H 0.89777 0.43064 0.76106 0.0
H325 H 0.90573 0.49917 0.74003 0.0
C326 C 0.96214 0.43094 0.05767 0.0
C327 C 0.93296 0.38378 0.04021 0.0
C328 C 0.96714 0.30983 0.08077 0.0
C329 C 0.99198 0.35756 0.09974 0.0
N330 N 0.00142 0.46474 0.10979 0.0
N331 N 0.89356 0.28167 0.03986 0.0
C332 C 0.98607 0.4186 0.08923 0.0
C333 C 0.93108 0.32421 0.05322 0.0
N334 N 0.96896 0.48685 0.04371 0.0
N335 N 0.98062 0.25071 0.08782 0.0
H336 H 0.86495 0.29086 0.0202 0.0
H337 H 0.88615 0.2393 0.05045 0.0
H338 H 0.00887 0.23764 0.10697 0.0
H339 H 0.96885 0.2149 0.07256 0.0
H340 H 0.99545 0.52101 0.05388 0.0
H341 H 0.95232 0.49752 0.02058 0.0
H342 H 0.99288 0.5102 0.10464 0.0
H343 H 0.01714 0.45714 0.13345 0.0
C344 C 0.62419 0.01219 0.46648 0.0
C345 C 0.63111 0.07594 0.46659 0.0
C346 C 0.64237 0.07531 0.40705 0.0
C347 C 0.64335 0.01089 0.40744 0.0
N348 N 0.65132 0.91887 0.43997 0.0
N349 N 0.6593 0.16728 0.43785 0.0
C350 C 0.63878 0.97945 0.43783 0.0
C351 C 0.64408 0.10728 0.43712 0.0
N352 N 0.60169 0.98277 0.4933 0.0
N353 N 0.63665 0.10611 0.37824 0.0
H354 H 0.66201 0.19194 0.45949 0.0
H355 H 0.67491 0.19083 0.41741 0.0
H356 H 0.63155 0.08457 0.35579 0.0
H357 H 0.63009 0.15284 0.37701 0.0
H358 H 0.58981 0.93703 0.49308 0.0
H359 H 0.58902 0.00506 0.51466 0.0
H360 H 0.65454 0.89598 0.4622 0.0
H361 H 0.66538 0.8927 0.4203 0.0
C362 C 0.38944 0.10519 0.67851 0.0
C363 C 0.4103 0.13162 0.70794 0.0
C364 C 0.48618 0.18787 0.67682 0.0
C365 C 0.47684 0.14832 0.65 0.0
N366 N 0.41559 0.07166 0.62407 0.0
N367 N 0.43612 0.23351 0.72285 0.0
C368 C 0.42706 0.10772 0.65034 0.0
C369 C 0.44696 0.18373 0.70411 0.0
N370 N 0.32992 0.08961 0.67556 0.0
N371 N 0.53203 0.22954 0.67641 0.0
H372 H 0.3994 0.23507 0.73897 0.0
H373 H 0.45768 0.27502 0.71908 0.0
H374 H 0.56088 0.23579 0.65647 0.0
H375 H 0.54345 0.2551 0.69689 0.0
H376 H 0.31078 0.07508 0.65368 0.0
H377 H 0.29859 0.10031 0.6938 0.0
H378 H 0.38272 0.03764 0.6246 0.0
H379 H 0.44162 0.07332 0.60278 0.0
C380 C 0.31515 0.92299 0.94896 0.0
C381 C 0.37083 0.89404 0.95616 0.0
C382 C 0.40766 0.9216 0.90174 0.0
C383 C 0.35988 0.96425 0.899 0.0
N384 N 0.26521 0.0042 0.92001 0.0
N385 N 0.43226 0.82478 0.92541 0.0
C386 C 0.3124 0.96429 0.92249 0.0
C387 C 0.40801 0.88115 0.92879 0.0
N388 N 0.26321 0.90383 0.96387 0.0
N389 N 0.45212 0.91891 0.8786 0.0
H390 H 0.42059 0.78988 0.94149 0.0
H391 H 0.45535 0.81089 0.90449 0.0
H392 H 0.45237 0.94692 0.85802 0.0
H393 H 0.49038 0.89148 0.88126 0.0
H394 H 0.22025 0.91954 0.95737 0.0
H395 H 0.26312 0.86645 0.97956 0.0
H396 H 0.23277 0.00914 0.93838 0.0
H397 H 0.26119 0.03539 0.90095 0.0
C398 C 0.57063 0.82766 0.19998 0.0
C399 C 0.56675 0.88702 0.21295 0.0
C400 C 0.51655 0.92138 0.16286 0.0
C401 C 0.512 0.86037 0.15234 0.0
N402 N 0.52447 0.7536 0.1646 0.0
N403 N 0.52916 0.9895 0.20862 0.0
C404 C 0.53654 0.81289 0.17178 0.0
C405 C 0.53789 0.9338 0.19489 0.0
N406 N 0.60792 0.78564 0.21412 0.0
N407 N 0.50253 0.96746 0.14186 0.0
H408 H 0.54415 0.00036 0.23202 0.0
H409 H 0.50272 0.02322 0.19787 0.0
H410 H 0.48933 0.95973 0.11779 0.0
H411 H 0.51007 0.01299 0.14717 0.0
H412 H 0.6168 0.74352 0.20369 0.0
H413 H 0.63489 0.79515 0.23437 0.0
H414 H 0.53595 0.71791 0.18012 0.0
H415 H 0.49762 0.74014 0.145 0.0
C416 C 0.21024 0.04768 0.16168 0.0
C417 C 0.21418 0.03608 0.12768 0.0
C418 C 0.17545 0.1378 0.1156 0.0
C419 C 0.17451 0.15059 0.14954 0.0
N420 N 0.19976 0.12253 0.20471 0.0
N421 N 0.21215 0.07284 0.07222 0.0
C422 C 0.19447 0.10685 0.17257 0.0
C423 C 0.20025 0.08201 0.1046 0.0
N424 N 0.21979 0.00163 0.18348 0.0
N425 N 0.15005 0.17773 0.09396 0.0
H426 H 0.22976 0.03233 0.06317 0.0
H427 H 0.20947 0.10695 0.05466 0.0
H428 H 0.13162 0.2193 0.1009 0.0
H429 H 0.1428 0.16773 0.06945 0.0
H430 H 0.21112 0.00521 0.20838 0.0
H431 H 0.23247 0.95804 0.1764 0.0
H432 H 0.21986 0.09495 0.22228 0.0
H433 H 0.18847 0.16549 0.21341 0.0
C434 C 0.41718 0.72746 0.41558 0.0
C435 C 0.42898 0.7323 0.38162 0.0
C436 C 0.33059 0.68662 0.36923 0.0
C437 C 0.3178 0.6831 0.40318 0.0
N438 N 0.34257 0.71055 0.4584 0.0
N439 N 0.39198 0.73109 0.32632 0.0
C440 C 0.35922 0.70685 0.42631 0.0
C441 C 0.38395 0.71666 0.35852 0.0
N442 N 0.46211 0.74029 0.43747 0.0
N443 N 0.29391 0.65785 0.3473 0.0
H444 H 0.43073 0.75296 0.3176 0.0
H445 H 0.35802 0.72666 0.30884 0.0
H446 H 0.2551 0.63406 0.35412 0.0
H447 H 0.30474 0.65287 0.3227 0.0
H448 H 0.45885 0.73108 0.46234 0.0
H449 H 0.50451 0.75692 0.43048 0.0
H450 H 0.36819 0.73262 0.47608 0.0
H451 H 0.30032 0.69594 0.46688 0.0
C452 C 0.80978 0.92654 0.61146 0.0
C453 C 0.7781 0.96225 0.63466 0.0
C454 C 0.78326 0.87911 0.67451 0.0
C455 C 0.8203 0.84613 0.65251 0.0
N456 N 0.87333 0.83882 0.60114 0.0
N457 N 0.7384 0.97595 0.689 0.0
C458 C 0.83467 0.86988 0.62122 0.0
C459 C 0.76544 0.93932 0.66636 0.0
N460 N 0.81441 0.94606 0.57983 0.0
N461 N 0.76456 0.85243 0.70297 0.0
H462 H 0.72393 0.01993 0.68376 0.0
H463 H 0.73386 0.96457 0.71355 0.0
H464 H 0.77789 0.80886 0.70989 0.0
H465 H 0.73244 0.87132 0.71856 0.0
H466 H 0.83095 0.91936 0.56089 0.0
H467 H 0.79713 0.98751 0.57184 0.0
H468 H 0.89163 0.85688 0.57979 0.0
H469 H 0.8903 0.79591 0.6068 0.0
C470 C 0.60889 0.23179 0.8797 0.0
C471 C 0.5551 0.26754 0.88063 0.0
C472 C 0.61632 0.35471 0.89616 0.0
C473 C 0.66772 0.31683 0.90159 0.0
N474 N 0.70676 0.21427 0.90468 0.0
N475 N 0.50737 0.35987 0.89937 0.0
C476 C 0.66237 0.25371 0.89523 0.0
C477 C 0.55868 0.32792 0.89204 0.0
N478 N 0.61054 0.17896 0.86248 0.0
N479 N 0.62246 0.416 0.89254 0.0
H480 H 0.46412 0.3407 0.89868 0.0
H481 H 0.50887 0.40284 0.90991 0.0
H482 H 0.6645 0.43747 0.89076 0.0
H483 H 0.58606 0.44404 0.88642 0.0
H484 H 0.65041 0.15427 0.85907 0.0
H485 H 0.57416 0.16376 0.84851 0.0
H486 H 0.70194 0.16741 0.90265 0.0
H487 H 0.74491 0.22759 0.91783 0.0
C488 C 0.7201 0.35756 0.61885 0.0
C489 C 0.65779 0.34658 0.61246 0.0
C490 C 0.63202 0.4421 0.64054 0.0
C491 C 0.69504 0.45638 0.64186 0.0
N492 N 0.78858 0.40704 0.65596 0.0
N493 N 0.55284 0.37281 0.6234 0.0
C494 C 0.73648 0.40804 0.63809 0.0
C495 C 0.61312 0.38745 0.62495 0.0
N496 N 0.76425 0.32184 0.60555 0.0
N497 N 0.59141 0.47534 0.65832 0.0
H498 H 0.53712 0.32894 0.61937 0.0
H499 H 0.51782 0.404 0.62616 0.0
H500 H 0.6048 0.50333 0.67736 0.0
H501 H 0.54479 0.46824 0.65866 0.0
H502 H 0.81031 0.3319 0.60788 0.0
H503 H 0.75508 0.28648 0.58948 0.0
H504 H 0.81814 0.3701 0.65612 0.0
H505 H 0.79744 0.43988 0.67363 0.0
C506 C 0.1607 0.2234 0.8586 0.0
C507 C 0.16682 0.15981 0.85399 0.0
C508 C 0.05849 0.14808 0.86605 0.0
C509 C 0.05478 0.20957 0.87572 0.0
N510 N 0.10978 0.30074 0.89 0.0
N511 N 0.12343 0.06054 0.865 0.0
C512 C 0.10796 0.24607 0.87452 0.0
C513 C 0.11627 0.12165 0.861 0.0
N514 N 0.20351 0.26261 0.84692 0.0
N515 N 0.00707 0.11484 0.86105 0.0
H516 H 0.1657 0.03935 0.86539 0.0
H517 H 0.08808 0.03229 0.87249 0.0
H518 H 0.96362 0.13338 0.86268 0.0
H519 H 0.00812 0.07107 0.8515 0.0
H520 H 0.19789 0.30953 0.84765 0.0
H521 H 0.24072 0.24871 0.83311 0.0
H522 H 0.14945 0.32623 0.89193 0.0
H523 H 0.07395 0.31709 0.90407 0.0
C524 C 0.30443 0.61189 0.0799 0.0
C525 C 0.32901 0.65256 0.10313 0.0
C526 C 0.30603 0.58077 0.14731 0.0
C527 C 0.2873 0.53772 0.12374 0.0
N528 N 0.27179 0.50933 0.0676 0.0
N529 N 0.35918 0.6748 0.15839 0.0
C530 C 0.28705 0.55256 0.09 0.0
C531 C 0.33099 0.63699 0.13676 0.0
N532 N 0.29646 0.6307 0.04836 0.0
N533 N 0.29907 0.56818 0.1798 0.0
H534 H 0.37703 0.71686 0.15175 0.0
H535 H 0.3687 0.66297 0.18245 0.0
H536 H 0.28251 0.52685 0.18841 0.0
H537 H 0.30531 0.60005 0.19818 0.0
H538 H 0.27322 0.60579 0.03085 0.0
H539 H 0.30905 0.67378 0.04023 0.0
H540 H 0.27727 0.51475 0.04253 0.0
H541 H 0.25691 0.46608 0.07415 0.0
C542 C 0.85459 0.77636 0.32963 0.0
C543 C 0.81612 0.8066 0.35203 0.0
C544 C 0.88586 0.78265 0.39668 0.0
C545 C 0.9284 0.76094 0.37358 0.0
N546 N 0.95577 0.73863 0.31787 0.0
N547 N 0.79787 0.84548 0.40624 0.0
C548 C 0.91325 0.75743 0.33998 0.0
C549 C 0.83202 0.81094 0.38551 0.0
N550 N 0.83464 0.76548 0.29862 0.0
N551 N 0.89675 0.77567 0.42932 0.0
H552 H 0.75865 0.86801 0.39893 0.0
H553 H 0.81113 0.8561 0.42994 0.0
H554 H 0.93592 0.7551 0.43837 0.0
H555 H 0.86456 0.78492 0.44728 0.0
H556 H 0.85803 0.73879 0.28189 0.0
H557 H 0.7918 0.779 0.29053 0.0
H558 H 0.94993 0.74142 0.29271 0.0
H559 H 0.99884 0.72359 0.32464 0.0
C560 C 0.80498 0.17245 0.27356 0.0
C561 C 0.80149 0.11047 0.26428 0.0
C562 C 0.87932 0.12846 0.22214 0.0
C563 C 0.87766 0.19127 0.22929 0.0
N564 N 0.83419 0.27498 0.25893 0.0
N565 N 0.83184 0.03047 0.22714 0.0
C566 C 0.83879 0.21388 0.25402 0.0
C567 C 0.83815 0.08856 0.2381 0.0
N568 N 0.77916 0.19103 0.30222 0.0
N569 N 0.92045 0.10663 0.20001 0.0
H570 H 0.80581 0.99788 0.2388 0.0
H571 H 0.84974 0.01509 0.20514 0.0
H572 H 0.9474 0.13437 0.18531 0.0
H573 H 0.93049 0.06076 0.19742 0.0
H574 H 0.78525 0.23413 0.31198 0.0
H575 H 0.75709 0.16151 0.31823 0.0
H576 H 0.80144 0.29457 0.27392 0.0
H577 H 0.86016 0.30663 0.24613 0.0
C578 C 0.39345 0.3272 0.48221 0.0
C579 C 0.37755 0.29941 0.51249 0.0
C580 C 0.27433 0.34069 0.50765 0.0
C581 C 0.29216 0.37293 0.47927 0.0
N582 N 0.36991 0.4022 0.44082 0.0
N583 N 0.30717 0.29257 0.55769 0.0
C584 C 0.35216 0.36791 0.46704 0.0
C585 C 0.31899 0.30934 0.52615 0.0
N586 N 0.44671 0.31275 0.46699 0.0
N587 N 0.21479 0.34009 0.51706 0.0
H588 H 0.33965 0.27316 0.57296 0.0
H589 H 0.26742 0.30416 0.56998 0.0
H590 H 0.18094 0.36358 0.50456 0.0
H591 H 0.19815 0.31204 0.5355 0.0
H592 H 0.45684 0.32488 0.44302 0.0
H593 H 0.47931 0.2847 0.47721 0.0
H594 H 0.41504 0.40733 0.43373 0.0
H595 H 0.33997 0.42848 0.42707 0.0
C596 C 0.17728 0.80578 0.72112 0.0
C597 C 0.11888 0.79492 0.73478 0.0
C598 C 0.14376 0.86202 0.78067 0.0
C599 C 0.20372 0.86756 0.7685 0.0
N600 N 0.28128 0.83685 0.73044 0.0
N601 N 0.04986 0.80604 0.78061 0.0
C602 C 0.22174 0.83664 0.73985 0.0
C603 C 0.10283 0.82147 0.76531 0.0
N604 N 0.1891 0.79035 0.68943 0.0
N605 N 0.12565 0.89579 0.80692 0.0
H606 H 0.01726 0.77807 0.77041 0.0
H607 H 0.04002 0.81727 0.80471 0.0
H608 H 0.15525 0.92237 0.82064 0.0
H609 H 0.08045 0.90044 0.81397 0.0
H610 H 0.22876 0.80262 0.67723 0.0
H611 H 0.15667 0.77142 0.67402 0.0
H612 H 0.29812 0.80977 0.71171 0.0
H613 H 0.31494 0.85999 0.74321 0.0
C614 C 0.66359 0.59048 0.01711 0.0
C615 C 0.70457 0.61005 0.99228 0.0
C616 C 0.66836 0.71511 0.99886 0.0
C617 C 0.63002 0.69532 0.02464 0.0
N618 N 0.60176 0.61834 0.06358 0.0
N619 N 0.73822 0.6882 0.95514 0.0
C620 C 0.63044 0.63417 0.03512 0.0
C621 C 0.7054 0.67192 0.9822 0.0
N622 N 0.65414 0.53017 0.02295 0.0
N623 N 0.66934 0.77523 0.99055 0.0
H624 H 0.76239 0.65719 0.94103 0.0
H625 H 0.73856 0.73128 0.94485 0.0
H626 H 0.64099 0.80731 1.0013 0.0
H627 H 0.69971 0.79461 0.97414 0.0
H628 H 0.61925 0.51385 0.03773 0.0
H629 H 0.67622 0.49554 0.01071 0.0
H630 H 0.60687 0.57627 0.07483 0.0
H631 H 0.57792 0.64917 0.07799 0.0
loop_
_geom_bond_atom_site_label_1
_geom_bond_atom_site_label_2
_geom_bond_distance
_geom_bond_site_symmetry_2
_ccdc_geom_bond_type
Co0 O3 1.970 1_455 S
Co0 N17 1.989 . S
Co0 O25 1.967 . S
Co0 O32 1.920 1_455 S
Co1 O4 1.966 . S
Co1 N10 2.022 . S
Co1 N18 1.993 . S
Co1 O26 1.941 . S
C2 O3 1.258 1_455 S
C2 O4 1.263 . S
O3 Co0 1.970 1_655 S
O3 C2 1.258 1_655 S
O4 Co1 1.966 . S
O4 C2 1.263 . S
C5 O6 1.235 . S
C5 O32 1.289 . S
O6 C5 1.235 . S
C7 C9 1.400 . S
C7 N10 1.351 . S
C7 C12 1.501 . S
C8 C9 1.387 . S
C8 N11 1.341 . S
C9 C7 1.400 . S
C9 C8 1.387 . S
N10 Co1 2.022 . S
N10 C7 1.351 . S
N10 N11 1.365 . S
N11 C8 1.341 . S
N11 N10 1.365 . S
N11 H31 0.862 . S
C12 C7 1.501 . S
C12 H13 0.961 . S
C12 H14 0.961 . S
C12 H15 0.960 . S
H13 C12 0.961 . S
H14 C12 0.961 . S
H15 C12 0.960 . S
C16 N17 1.342 . S
C16 C20 1.401 . S
C16 C21 1.499 . S
N17 Co0 1.989 . S
N17 C16 1.342 . S
N17 N18 1.388 . S
N18 Co1 1.993 . S
N18 N17 1.388 . S
N18 C19 1.346 . S
C19 N18 1.346 . S
C19 C20 1.396 . S
C19 C29 1.510 . S
C20 C16 1.401 . S
C20 C19 1.396 . S
C21 C16 1.499 . S
C21 H22 0.959 . S
C21 H23 0.960 1_455 S
C21 H24 0.961 . S
H22 C21 0.959 . S
H23 C21 0.960 1_655 S
H24 C21 0.961 . S
O25 Co0 1.967 . S
O25 C33 1.258 . S
O26 Co1 1.941 . S
O26 C33 1.266 . S
H27 C29 0.959 . S
H28 C29 0.961 . S
C29 C19 1.510 . S
C29 H27 0.959 . S
C29 H28 0.961 . S
C29 H30 0.960 . S
H30 C29 0.960 . S
H31 N11 0.862 . S
O32 Co0 1.920 1_655 S
O32 C5 1.289 . S
C33 O25 1.258 . S
C33 O26 1.266 . S
Co34 O37 1.970 . S
Co34 N51 1.989 . S
Co34 O59 1.967 . S
Co34 O66 1.920 . S
Co35 O38 1.966 . S
Co35 N44 2.022 . S
Co35 N52 1.993 . S
Co35 O60 1.941 . S
C36 O37 1.258 . S
C36 O38 1.263 . S
O37 Co34 1.970 . S
O37 C36 1.258 . S
O38 Co35 1.966 . S
O38 C36 1.263 . S
C39 O40 1.235 . S
C39 O66 1.289 . S
O40 C39 1.235 . S
C41 C43 1.400 . S
C41 N44 1.351 1_655 S
C41 C46 1.501 . S
C42 C43 1.387 . S
C42 N45 1.341 1_655 S
C43 C41 1.400 . S
C43 C42 1.387 . S
N44 Co35 2.022 . S
N44 C41 1.351 1_455 S
N44 N45 1.365 . S
N45 C42 1.341 1_455 S
N45 N44 1.365 . S
N45 H65 0.862 . S
C46 C41 1.501 . S
C46 H47 0.961 1_655 S
C46 H48 0.961 . S
C46 H49 0.960 . S
H47 C46 0.961 1_455 S
H48 C46 0.961 . S
H49 C46 0.960 . S
C50 N51 1.342 . S
C50 C54 1.401 . S
C50 C55 1.499 . S
N51 Co34 1.989 . S
N51 C50 1.342 . S
N51 N52 1.388 . S
N52 Co35 1.993 . S
N52 N51 1.388 . S
N52 C53 1.346 . S
C53 N52 1.346 . S
C53 C54 1.396 . S
C53 C63 1.510 . S
C54 C50 1.401 . S
C54 C53 1.396 . S
C55 C50 1.499 . S
C55 H56 0.959 . S
C55 H57 0.960 . S
C55 H58 0.961 . S
H56 C55 0.959 . S
H57 C55 0.960 . S
H58 C55 0.961 . S
O59 Co34 1.967 . S
O59 C67 1.258 . S
O60 Co35 1.941 . S
O60 C67 1.266 . S
H61 C63 0.959 . S
H62 C63 0.961 1_655 S
C63 C53 1.510 . S
C63 H61 0.959 . S
C63 H62 0.961 1_455 S
C63 H64 0.960 . S
H64 C63 0.960 . S
H65 N45 0.862 . S
O66 Co34 1.920 . S
O66 C39 1.289 . S
C67 O59 1.258 . S
C67 O60 1.266 . S
Co68 O71 1.970 . S
Co68 N85 1.989 . S
Co68 O93 1.967 . S
Co68 O100 1.920 1_655 S
Co69 O72 1.966 . S
Co69 N78 2.022 . S
Co69 N86 1.993 . S
Co69 O94 1.941 . S
C70 O71 1.258 . S
C70 O72 1.263 . S
O71 Co68 1.970 . S
O71 C70 1.258 . S
O72 Co69 1.966 . S
O72 C70 1.263 . S
C73 O74 1.235 . S
C73 O100 1.289 . S
O74 C73 1.235 . S
C75 C77 1.400 . S
C75 N78 1.351 . S
C75 C80 1.501 . S
C76 C77 1.387 . S
C76 N79 1.341 . S
C77 C75 1.400 . S
C77 C76 1.387 . S
N78 Co69 2.022 . S
N78 C75 1.351 . S
N78 N79 1.365 . S
N79 C76 1.341 . S
N79 N78 1.365 . S
N79 H99 0.862 . S
C80 C75 1.501 . S
C80 H81 0.961 . S
C80 H82 0.961 . S
C80 H83 0.960 . S
H81 C80 0.961 . S
H82 C80 0.961 . S
H83 C80 0.960 . S
C84 N85 1.342 . S
C84 C88 1.401 . S
C84 C89 1.499 . S
N85 Co68 1.989 . S
N85 C84 1.342 . S
N85 N86 1.388 . S
N86 Co69 1.993 . S
N86 N85 1.388 . S
N86 C87 1.346 . S
C87 N86 1.346 . S
C87 C88 1.396 . S
C87 C97 1.510 . S
C88 C84 1.401 . S
C88 C87 1.396 . S
C89 C84 1.499 . S
C89 H90 0.959 . S
C89 H91 0.960 . S
C89 H92 0.961 . S
H90 C89 0.959 . S
H91 C89 0.960 . S
H92 C89 0.961 . S
O93 Co68 1.967 . S
O93 C101 1.258 . S
O94 Co69 1.941 . S
O94 C101 1.266 . S
H95 C97 0.959 . S
H96 C97 0.961 . S
C97 C87 1.510 . S
C97 H95 0.959 . S
C97 H96 0.961 . S
C97 H98 0.960 . S
H98 C97 0.960 . S
H99 N79 0.862 . S
O100 Co68 1.920 1_455 S
O100 C73 1.289 . S
C101 O93 1.258 . S
C101 O94 1.266 . S
Co102 O105 1.970 . S
Co102 N119 1.989 . S
Co102 O127 1.967 . S
Co102 O134 1.920 . S
Co103 O106 1.966 . S
Co103 N112 2.022 . S
Co103 N120 1.993 . S
Co103 O128 1.941 . S
C104 O105 1.258 . S
C104 O106 1.263 . S
O105 Co102 1.970 . S
O105 C104 1.258 . S
O106 Co103 1.966 . S
O106 C104 1.263 . S
C107 O108 1.235 . S
C107 O134 1.289 . S
O108 C107 1.235 . S
C109 C111 1.400 1_655 S
C109 N112 1.351 . S
C109 C114 1.501 1_655 S
C110 C111 1.387 . S
C110 N113 1.341 1_455 S
C111 C109 1.400 1_455 S
C111 C110 1.387 . S
N112 Co103 2.022 . S
N112 C109 1.351 . S
N112 N113 1.365 . S
N113 C110 1.341 1_655 S
N113 N112 1.365 . S
N113 H133 0.862 . S
C114 C109 1.501 1_455 S
C114 H115 0.961 1_455 S
C114 H116 0.961 . S
C114 H117 0.960 . S
H115 C114 0.961 1_655 S
H116 C114 0.961 . S
H117 C114 0.960 . S
C118 N119 1.342 1_554 S
C118 C122 1.401 . S
C118 C123 1.499 . S
N119 Co102 1.989 . S
N119 C118 1.342 1_556 S
N119 N120 1.388 . S
N120 Co103 1.993 . S
N120 N119 1.388 . S
N120 C121 1.346 . S
C121 N120 1.346 . S
C121 C122 1.396 1_556 S
C121 C131 1.510 . S
C122 C118 1.401 . S
C122 C121 1.396 1_554 S
C123 C118 1.499 . S
C123 H124 0.959 . S
C123 H125 0.960 . S
C123 H126 0.961 . S
H124 C123 0.959 . S
H125 C123 0.960 . S
H126 C123 0.961 . S
O127 Co102 1.967 . S
O127 C135 1.258 . S
O128 Co103 1.941 . S
O128 C135 1.266 . S
H129 C131 0.959 . S
H130 C131 0.961 1_455 S
C131 C121 1.510 . S
C131 H129 0.959 . S
C131 H130 0.961 1_655 S
C131 H132 0.960 . S
H132 C131 0.960 . S
H133 N113 0.862 . S
O134 Co102 1.920 . S
O134 C107 1.289 . S
C135 O127 1.258 . S
C135 O128 1.266 . S
Co136 O139 1.970 . S
Co136 N153 1.989 . S
Co136 O161 1.967 . S
Co136 O168 1.920 . S
Co137 O140 1.966 . S
Co137 N146 2.022 . S
Co137 N154 1.993 . S
Co137 O162 1.941 . S
C138 O139 1.258 . S
C138 O140 1.263 . S
O139 Co136 1.970 . S
O139 C138 1.258 . S
O140 Co137 1.966 . S
O140 C138 1.263 . S
C141 O142 1.235 . S
C141 O168 1.289 . S
O142 C141 1.235 . S
C143 C145 1.400 . S
C143 N146 1.351 1_565 S
C143 C148 1.501 . S
C144 C145 1.387 . S
C144 N147 1.341 1_565 S
C145 C143 1.400 . S
C145 C144 1.387 . S
N146 Co137 2.022 . S
N146 C143 1.351 1_545 S
N146 N147 1.365 . S
N147 C144 1.341 1_545 S
N147 N146 1.365 . S
N147 H167 0.862 . S
C148 C143 1.501 . S
C148 H149 0.961 1_565 S
C148 H150 0.961 . S
C148 H151 0.960 . S
H149 C148 0.961 1_545 S
H150 C148 0.961 . S
H151 C148 0.960 . S
C152 N153 1.342 . S
C152 C156 1.401 . S
C152 C157 1.499 . S
N153 Co136 1.989 . S
N153 C152 1.342 . S
N153 N154 1.388 . S
N154 Co137 1.993 . S
N154 N153 1.388 . S
N154 C155 1.346 . S
C155 N154 1.346 . S
C155 C156 1.396 . S
C155 C165 1.510 . S
C156 C152 1.401 . S
C156 C155 1.396 . S
C157 C152 1.499 . S
C157 H158 0.959 . S
C157 H159 0.960 . S
C157 H160 0.961 . S
H158 C157 0.959 . S
H159 C157 0.960 . S
H160 C157 0.961 . S
O161 Co136 1.967 . S
O161 C169 1.258 . S
O162 Co137 1.941 . S
O162 C169 1.266 . S
H163 C165 0.959 . S
H164 C165 0.961 1_565 S
C165 C155 1.510 . S
C165 H163 0.959 . S
C165 H164 0.961 1_545 S
C165 H166 0.960 . S
H166 C165 0.960 . S
H167 N147 0.862 . S
O168 Co136 1.920 . S
O168 C141 1.289 . S
C169 O161 1.258 . S
C169 O162 1.266 . S
Co170 O173 1.970 1_545 S
Co170 N187 1.989 . S
Co170 O195 1.967 . S
Co170 O202 1.920 1_545 S
Co171 O174 1.966 . S
Co171 N180 2.022 . S
Co171 N188 1.993 . S
Co171 O196 1.941 . S
C172 O173 1.258 1_545 S
C172 O174 1.263 . S
O173 Co170 1.970 1_565 S
O173 C172 1.258 1_565 S
O174 Co171 1.966 . S
O174 C172 1.263 . S
C175 O176 1.235 . S
C175 O202 1.289 . S
O176 C175 1.235 . S
C177 C179 1.400 . S
C177 N180 1.351 . S
C177 C182 1.501 . S
C178 C179 1.387 . S
C178 N181 1.341 . S
C179 C177 1.400 . S
C179 C178 1.387 . S
N180 Co171 2.022 . S
N180 C177 1.351 . S
N180 N181 1.365 . S
N181 C178 1.341 . S
N181 N180 1.365 . S
N181 H201 0.862 . S
C182 C177 1.501 . S
C182 H183 0.961 . S
C182 H184 0.961 . S
C182 H185 0.960 . S
H183 C182 0.961 . S
H184 C182 0.961 . S
H185 C182 0.960 . S
C186 N187 1.342 . S
C186 C190 1.401 . S
C186 C191 1.499 . S
N187 Co170 1.989 . S
N187 C186 1.342 . S
N187 N188 1.388 . S
N188 Co171 1.993 . S
N188 N187 1.388 . S
N188 C189 1.346 . S
C189 N188 1.346 . S
C189 C190 1.396 . S
C189 C199 1.510 . S
C190 C186 1.401 . S
C190 C189 1.396 . S
C191 C186 1.499 . S
C191 H192 0.959 . S
C191 H193 0.960 1_545 S
C191 H194 0.961 . S
H192 C191 0.959 . S
H193 C191 0.960 1_565 S
H194 C191 0.961 . S
O195 Co170 1.967 . S
O195 C203 1.258 . S
O196 Co171 1.941 . S
O196 C203 1.266 . S
H197 C199 0.959 . S
H198 C199 0.961 . S
C199 C189 1.510 . S
C199 H197 0.959 . S
C199 H198 0.961 . S
C199 H200 0.960 . S
H200 C199 0.960 . S
H201 N181 0.862 . S
O202 Co170 1.920 1_565 S
O202 C175 1.289 . S
C203 O195 1.258 . S
C203 O196 1.266 . S
Co204 O207 1.970 . S
Co204 N221 1.989 . S
Co204 O229 1.967 . S
Co204 O236 1.920 . S
Co205 O208 1.966 . S
Co205 N214 2.022 . S
Co205 N222 1.993 . S
Co205 O230 1.941 . S
C206 O207 1.258 . S
C206 O208 1.263 . S
O207 Co204 1.970 . S
O207 C206 1.258 . S
O208 Co205 1.966 . S
O208 C206 1.263 . S
C209 O210 1.235 . S
C209 O236 1.289 . S
O210 C209 1.235 . S
C211 C213 1.400 1_565 S
C211 N214 1.351 . S
C211 C216 1.501 1_565 S
C212 C213 1.387 . S
C212 N215 1.341 1_545 S
C213 C211 1.400 1_545 S
C213 C212 1.387 . S
N214 Co205 2.022 . S
N214 C211 1.351 . S
N214 N215 1.365 . S
N215 C212 1.341 1_565 S
N215 N214 1.365 . S
N215 H235 0.862 . S
C216 C211 1.501 1_545 S
C216 H217 0.961 1_545 S
C216 H218 0.961 . S
C216 H219 0.960 . S
H217 C216 0.961 1_565 S
H218 C216 0.961 . S
H219 C216 0.960 . S
C220 N221 1.342 1_556 S
C220 C224 1.401 . S
C220 C225 1.499 . S
N221 Co204 1.989 . S
N221 C220 1.342 1_554 S
N221 N222 1.388 . S
N222 Co205 1.993 . S
N222 N221 1.388 . S
N222 C223 1.346 . S
C223 N222 1.346 . S
C223 C224 1.396 1_554 S
C223 C233 1.510 . S
C224 C220 1.401 . S
C224 C223 1.396 1_556 S
C225 C220 1.499 . S
C225 H226 0.959 . S
C225 H227 0.960 . S
C225 H228 0.961 . S
H226 C225 0.959 . S
H227 C225 0.960 . S
H228 C225 0.961 . S
O229 Co204 1.967 . S
O229 C237 1.258 . S
O230 Co205 1.941 . S
O230 C237 1.266 . S
H231 C233 0.959 . S
H232 C233 0.961 1_545 S
C233 C223 1.510 . S
C233 H231 0.959 . S
C233 H232 0.961 1_565 S
C233 H234 0.960 . S
H234 C233 0.960 . S
H235 N215 0.862 . S
O236 Co204 1.920 . S
O236 C209 1.289 . S
C237 O229 1.258 . S
C237 O230 1.266 . S
Co238 O241 1.970 . S
Co238 N255 1.989 . S
Co238 O263 1.967 . S
Co238 O270 1.920 1_565 S
Co239 O242 1.966 . S
Co239 N248 2.022 . S
Co239 N256 1.993 . S
Co239 O264 1.941 . S
C240 O241 1.258 . S
C240 O242 1.263 . S
O241 Co238 1.970 . S
O241 C240 1.258 . S
O242 Co239 1.966 . S
O242 C240 1.263 . S
C243 O244 1.235 . S
C243 O270 1.289 . S
O244 C243 1.235 . S
C245 C247 1.400 . S
C245 N248 1.351 . S
C245 C250 1.501 . S
C246 C247 1.387 . S
C246 N249 1.341 . S
C247 C245 1.400 . S
C247 C246 1.387 . S
N248 Co239 2.022 . S
N248 C245 1.351 . S
N248 N249 1.365 . S
N249 C246 1.341 . S
N249 N248 1.365 . S
N249 H269 0.862 . S
C250 C245 1.501 . S
C250 H251 0.961 . S
C250 H252 0.961 . S
C250 H253 0.960 . S
H251 C250 0.961 . S
H252 C250 0.961 . S
H253 C250 0.960 . S
C254 N255 1.342 . S
C254 C258 1.401 . S
C254 C259 1.499 . S
N255 Co238 1.989 . S
N255 C254 1.342 . S
N255 N256 1.388 . S
N256 Co239 1.993 . S
N256 N255 1.388 . S
N256 C257 1.346 . S
C257 N256 1.346 . S
C257 C258 1.396 . S
C257 C267 1.510 . S
C258 C254 1.401 . S
C258 C257 1.396 . S
C259 C254 1.499 . S
C259 H260 0.959 . S
C259 H261 0.960 . S
C259 H262 0.961 . S
H260 C259 0.959 . S
H261 C259 0.960 . S
H262 C259 0.961 . S
O263 Co238 1.967 . S
O263 C271 1.258 . S
O264 Co239 1.941 . S
O264 C271 1.266 . S
H265 C267 0.959 . S
H266 C267 0.961 . S
C267 C257 1.510 . S
C267 H265 0.959 . S
C267 H266 0.961 . S
C267 H268 0.960 . S
H268 C267 0.960 . S
H269 N249 0.862 . S
O270 Co238 1.920 1_545 S
O270 C243 1.289 . S
C271 O263 1.258 . S
C271 O264 1.266 . S
C272 C273 1.363 . S
C272 C278 1.379 . S
C272 N280 1.356 . S
C273 C272 1.363 . S
C273 C279 1.363 . S
C274 C275 1.363 . S
C274 C279 1.379 . S
C274 N281 1.356 . S
C275 C274 1.363 . S
C275 C278 1.363 . S
N276 C278 1.356 . S
N276 H288 0.984 . S
N276 H289 0.985 . S
N277 C279 1.356 . S
N277 H282 0.984 . S
N277 H283 0.985 . S
C278 C272 1.379 . S
C278 C275 1.363 . S
C278 N276 1.356 . S
C279 C273 1.363 . S
C279 C274 1.379 . S
C279 N277 1.356 . S
N280 C272 1.356 . S
N280 H286 0.984 . S
N280 H287 0.984 . S
N281 C274 1.356 . S
N281 H284 0.984 . S
N281 H285 0.985 . S
H282 N277 0.984 . S
H283 N277 0.985 . S
H284 N281 0.984 . S
H285 N281 0.985 . S
H286 N280 0.984 . S
H287 N280 0.984 . S
H288 N276 0.984 . S
H289 N276 0.985 . S
C290 C291 1.369 . S
C290 C296 1.379 . S
C290 N298 1.356 . S
C291 C290 1.369 . S
C291 C297 1.361 1_455 S
C292 C293 1.363 . S
C292 C297 1.379 1_455 S
C292 N299 1.356 . S
C293 C292 1.363 . S
C293 C296 1.363 . S
N294 C296 1.356 . S
N294 H306 0.984 . S
N294 H307 0.985 . S
N295 C297 1.356 . S
N295 H300 0.984 . S
N295 H301 0.985 . S
C296 C290 1.379 . S
C296 C293 1.363 . S
C296 N294 1.356 . S
C297 C291 1.361 1_655 S
C297 C292 1.379 1_655 S
C297 N295 1.356 . S
N298 C290 1.356 . S
N298 H304 0.984 . S
N298 H305 0.984 . S
N299 C292 1.356 . S
N299 H302 0.984 . S
N299 H303 0.985 1_455 S
H300 N295 0.984 . S
H301 N295 0.985 . S
H302 N299 0.984 . S
H303 N299 0.985 1_655 S
H304 N298 0.984 . S
H305 N298 0.984 . S
H306 N294 0.984 . S
H307 N294 0.985 . S
C308 C309 1.363 . S
C308 C314 1.379 . S
C308 N316 1.356 . S
C309 C308 1.363 . S
C309 C315 1.363 . S
C310 C311 1.363 . S
C310 C315 1.379 . S
C310 N317 1.356 . S
C311 C310 1.363 . S
C311 C314 1.363 . S
N312 C314 1.356 . S
N312 H324 0.984 . S
N312 H325 0.985 . S
N313 C315 1.356 . S
N313 H318 0.984 . S
N313 H319 0.985 . S
C314 C308 1.379 . S
C314 C311 1.363 . S
C314 N312 1.356 . S
C315 C309 1.363 . S
C315 C310 1.379 . S
C315 N313 1.356 . S
N316 C308 1.356 . S
N316 H322 0.984 . S
N316 H323 0.984 . S
N317 C310 1.356 . S
N317 H320 0.984 . S
N317 H321 0.985 . S
H318 N313 0.984 . S
H319 N313 0.985 . S
H320 N317 0.984 . S
H321 N317 0.985 . S
H322 N316 0.984 . S
H323 N316 0.984 . S
H324 N312 0.984 . S
H325 N312 0.985 . S
C326 C327 1.363 . S
C326 C332 1.379 . S
C326 N334 1.356 . S
C327 C326 1.363 . S
C327 C333 1.363 . S
C328 C329 1.363 . S
C328 C333 1.379 . S
C328 N335 1.356 . S
C329 C328 1.363 . S
C329 C332 1.363 . S
N330 C332 1.356 1_455 S
N330 H342 0.984 . S
N330 H343 0.985 . S
N331 C333 1.356 . S
N331 H336 0.984 . S
N331 H337 0.985 . S
C332 C326 1.379 . S
C332 C329 1.363 . S
C332 N330 1.356 1_655 S
C333 C327 1.363 . S
C333 C328 1.379 . S
C333 N331 1.356 . S
N334 C326 1.356 . S
N334 H340 0.984 . S
N334 H341 0.984 . S
N335 C328 1.356 . S
N335 H338 0.984 . S
N335 H339 0.985 . S
H336 N331 0.984 . S
H337 N331 0.985 . S
H338 N335 0.984 . S
H339 N335 0.985 . S
H340 N334 0.984 . S
H341 N334 0.984 . S
H342 N330 0.984 . S
H343 N330 0.985 . S
C344 C345 1.363 . S
C344 C350 1.379 1_545 S
C344 N352 1.356 1_545 S
C345 C344 1.363 . S
C345 C351 1.363 . S
C346 C347 1.370 . S
C346 C351 1.379 . S
C346 N353 1.356 . S
C347 C346 1.370 . S
C347 C350 1.360 1_545 S
N348 C350 1.356 . S
N348 H360 0.984 . S
N348 H361 0.985 . S
N349 C351 1.356 . S
N349 H354 0.984 . S
N349 H355 0.985 . S
C350 C344 1.379 1_565 S
C350 C347 1.360 1_565 S
C350 N348 1.356 . S
C351 C345 1.363 . S
C351 C346 1.379 . S
C351 N349 1.356 . S
N352 C344 1.356 1_565 S
N352 H358 0.984 . S
N352 H359 0.984 1_565 S
N353 C346 1.356 . S
N353 H356 0.984 . S
N353 H357 0.985 . S
H354 N349 0.984 . S
H355 N349 0.985 . S
H356 N353 0.984 . S
H357 N353 0.985 . S
H358 N352 0.984 . S
H359 N352 0.984 1_545 S
H360 N348 0.984 . S
H361 N348 0.985 . S
C362 C363 1.363 . S
C362 C368 1.379 . S
C362 N370 1.356 . S
C363 C362 1.363 . S
C363 C369 1.363 . S
C364 C365 1.363 . S
C364 C369 1.379 . S
C364 N371 1.356 . S
C365 C364 1.363 . S
C365 C368 1.363 . S
N366 C368 1.356 . S
N366 H378 0.984 . S
N366 H379 0.985 . S
N367 C369 1.356 . S
N367 H372 0.984 . S
N367 H373 0.985 . S
C368 C362 1.379 . S
C368 C365 1.363 . S
C368 N366 1.356 . S
C369 C363 1.363 . S
C369 C364 1.379 . S
C369 N367 1.356 . S
N370 C362 1.356 . S
N370 H376 0.984 . S
N370 H377 0.984 . S
N371 C364 1.356 . S
N371 H374 0.984 . S
N371 H375 0.985 . S
H372 N367 0.984 . S
H373 N367 0.985 . S
H374 N371 0.984 . S
H375 N371 0.985 . S
H376 N370 0.984 . S
H377 N370 0.984 . S
H378 N366 0.984 . S
H379 N366 0.985 . S
C380 C381 1.363 . S
C380 C386 1.379 1_565 S
C380 N388 1.356 . S
C381 C380 1.363 . S
C381 C387 1.363 . S
C382 C383 1.363 . S
C382 C387 1.379 . S
C382 N389 1.356 . S
C383 C382 1.363 . S
C383 C386 1.363 1_565 S
N384 C386 1.356 . S
N384 H396 0.984 . S
N384 H397 0.985 . S
N385 C387 1.356 . S
N385 H390 0.984 . S
N385 H391 0.985 . S
C386 C380 1.379 1_545 S
C386 C383 1.363 1_545 S
C386 N384 1.356 . S
C387 C381 1.363 . S
C387 C382 1.379 . S
C387 N385 1.356 . S
N388 C380 1.356 . S
N388 H394 0.984 1_565 S
N388 H395 0.984 1_556 S
N389 C382 1.356 . S
N389 H392 0.984 . S
N389 H393 0.985 . S
H390 N385 0.984 . S
H391 N385 0.985 . S
H392 N389 0.984 . S
H393 N389 0.985 . S
H394 N388 0.984 1_545 S
H395 N388 0.984 1_554 S
H396 N384 0.984 . S
H397 N384 0.985 . S
C398 C399 1.363 . S
C398 C404 1.379 . S
C398 N406 1.356 . S
C399 C398 1.363 . S
C399 C405 1.363 . S
C400 C401 1.363 . S
C400 C405 1.379 . S
C400 N407 1.356 . S
C401 C400 1.363 . S
C401 C404 1.363 . S
N402 C404 1.356 . S
N402 H414 0.984 . S
N402 H415 0.985 . S
N403 C405 1.356 . S
N403 H408 0.984 . S
N403 H409 0.980 1_565 S
C404 C398 1.379 . S
C404 C401 1.363 . S
C404 N402 1.356 . S
C405 C399 1.363 . S
C405 C400 1.379 . S
C405 N403 1.356 . S
N406 C398 1.356 . S
N406 H412 0.984 . S
N406 H413 0.984 . S
N407 C400 1.356 . S
N407 H410 0.984 . S
N407 H411 0.985 . S
H408 N403 0.984 . S
H409 N403 0.980 1_545 S
H410 N407 0.984 . S
H411 N407 0.985 . S
H412 N406 0.984 . S
H413 N406 0.984 . S
H414 N402 0.984 . S
H415 N402 0.985 . S
C416 C417 1.363 . S
C416 C422 1.379 . S
C416 N424 1.356 . S
C417 C416 1.363 . S
C417 C423 1.363 . S
C418 C419 1.363 . S
C418 C423 1.379 . S
C418 N425 1.356 . S
C419 C418 1.363 . S
C419 C422 1.363 . S
N420 C422 1.356 . S
N420 H432 0.984 . S
N420 H433 0.985 . S
N421 C423 1.356 . S
N421 H426 0.984 . S
N421 H427 0.985 . S
C422 C416 1.379 . S
C422 C419 1.363 . S
C422 N420 1.356 . S
C423 C417 1.363 . S
C423 C418 1.379 . S
C423 N421 1.356 . S
N424 C416 1.356 . S
N424 H430 0.984 . S
N424 H431 0.984 . S
N425 C418 1.356 . S
N425 H428 0.984 . S
N425 H429 0.985 . S
H426 N421 0.984 . S
H427 N421 0.985 . S
H428 N425 0.984 . S
H429 N425 0.985 . S
H430 N424 0.984 . S
H431 N424 0.984 . S
H432 N420 0.984 . S
H433 N420 0.985 . S
C434 C435 1.363 . S
C434 C440 1.379 . S
C434 N442 1.356 . S
C435 C434 1.363 . S
C435 C441 1.363 . S
C436 C437 1.363 . S
C436 C441 1.379 . S
C436 N443 1.356 . S
C437 C436 1.363 . S
C437 C440 1.363 . S
N438 C440 1.356 . S
N438 H450 0.984 . S
N438 H451 0.985 . S
N439 C441 1.356 . S
N439 H444 0.984 . S
N439 H445 0.985 . S
C440 C434 1.379 . S
C440 C437 1.363 . S
C440 N438 1.356 . S
C441 C435 1.363 . S
C441 C436 1.379 . S
C441 N439 1.356 . S
N442 C434 1.356 . S
N442 H448 0.984 . S
N442 H449 0.984 . S
N443 C436 1.356 . S
N443 H446 0.984 . S
N443 H447 0.985 . S
H444 N439 0.984 . S
H445 N439 0.985 . S
H446 N443 0.984 . S
H447 N443 0.985 . S
H448 N442 0.984 . S
H449 N442 0.984 . S
H450 N438 0.984 . S
H451 N438 0.985 . S
C452 C453 1.363 . S
C452 C458 1.379 . S
C452 N460 1.356 . S
C453 C452 1.363 . S
C453 C459 1.363 . S
C454 C455 1.363 . S
C454 C459 1.379 . S
C454 N461 1.356 . S
C455 C454 1.363 . S
C455 C458 1.363 . S
N456 C458 1.356 . S
N456 H468 0.984 . S
N456 H469 0.985 . S
N457 C459 1.356 . S
N457 H462 0.984 . S
N457 H463 0.985 . S
C458 C452 1.379 . S
C458 C455 1.363 . S
C458 N456 1.356 . S
C459 C453 1.363 . S
C459 C454 1.379 . S
C459 N457 1.356 . S
N460 C452 1.356 . S
N460 H466 0.984 . S
N460 H467 0.984 . S
N461 C454 1.356 . S
N461 H464 0.984 . S
N461 H465 0.985 . S
H462 N457 0.984 . S
H463 N457 0.985 . S
H464 N461 0.984 . S
H465 N461 0.985 . S
H466 N460 0.984 . S
H467 N460 0.984 . S
H468 N456 0.984 . S
H469 N456 0.985 . S
C470 C471 1.363 . S
C470 C476 1.379 . S
C470 N478 1.356 . S
C471 C470 1.363 . S
C471 C477 1.363 . S
C472 C473 1.363 . S
C472 C477 1.379 . S
C472 N479 1.356 . S
C473 C472 1.363 . S
C473 C476 1.363 . S
N474 C476 1.356 . S
N474 H486 0.984 . S
N474 H487 0.985 . S
N475 C477 1.356 . S
N475 H480 0.984 . S
N475 H481 0.985 . S
C476 C470 1.379 . S
C476 C473 1.363 . S
C476 N474 1.356 . S
C477 C471 1.363 . S
C477 C472 1.379 . S
C477 N475 1.356 . S
N478 C470 1.356 . S
N478 H484 0.984 . S
N478 H485 0.984 . S
N479 C472 1.356 . S
N479 H482 0.984 . S
N479 H483 0.985 . S
H480 N475 0.984 . S
H481 N475 0.985 . S
H482 N479 0.984 . S
H483 N479 0.985 . S
H484 N478 0.984 . S
H485 N478 0.984 . S
H486 N474 0.984 . S
H487 N474 0.985 . S
C488 C489 1.363 . S
C488 C494 1.379 . S
C488 N496 1.356 . S
C489 C488 1.363 . S
C489 C495 1.363 . S
C490 C491 1.363 . S
C490 C495 1.379 . S
C490 N497 1.356 . S
C491 C490 1.363 . S
C491 C494 1.363 . S
N492 C494 1.356 . S
N492 H504 0.984 . S
N492 H505 0.985 . S
N493 C495 1.356 . S
N493 H498 0.984 . S
N493 H499 0.985 . S
C494 C488 1.379 . S
C494 C491 1.363 . S
C494 N492 1.356 . S
C495 C489 1.363 . S
C495 C490 1.379 . S
C495 N493 1.356 . S
N496 C488 1.356 . S
N496 H502 0.984 . S
N496 H503 0.984 . S
N497 C490 1.356 . S
N497 H500 0.984 . S
N497 H501 0.985 . S
H498 N493 0.984 . S
H499 N493 0.985 . S
H500 N497 0.984 . S
H501 N497 0.985 . S
H502 N496 0.984 . S
H503 N496 0.984 . S
H504 N492 0.984 . S
H505 N492 0.985 . S
C506 C507 1.363 . S
C506 C512 1.379 . S
C506 N514 1.356 . S
C507 C506 1.363 . S
C507 C513 1.363 . S
C508 C509 1.363 . S
C508 C513 1.379 . S
C508 N515 1.356 . S
C509 C508 1.363 . S
C509 C512 1.363 . S
N510 C512 1.356 . S
N510 H522 0.984 . S
N510 H523 0.985 . S
N511 C513 1.356 . S
N511 H516 0.984 . S
N511 H517 0.985 . S
C512 C506 1.379 . S
C512 C509 1.363 . S
C512 N510 1.356 . S
C513 C507 1.363 . S
C513 C508 1.379 . S
C513 N511 1.356 . S
N514 C506 1.356 . S
N514 H520 0.984 . S
N514 H521 0.984 . S
N515 C508 1.356 . S
N515 H518 0.984 . S
N515 H519 0.985 . S
H516 N511 0.984 . S
H517 N511 0.985 . S
H518 N515 0.984 . S
H519 N515 0.985 . S
H520 N514 0.984 . S
H521 N514 0.984 . S
H522 N510 0.984 . S
H523 N510 0.985 . S
C524 C525 1.363 . S
C524 C530 1.379 . S
C524 N532 1.356 . S
C525 C524 1.363 . S
C525 C531 1.363 . S
C526 C527 1.363 . S
C526 C531 1.379 . S
C526 N533 1.356 . S
C527 C526 1.363 . S
C527 C530 1.363 . S
N528 C530 1.356 . S
N528 H540 0.984 . S
N528 H541 0.985 . S
N529 C531 1.356 . S
N529 H534 0.984 . S
N529 H535 0.985 . S
C530 C524 1.379 . S
C530 C527 1.363 . S
C530 N528 1.356 . S
C531 C525 1.363 . S
C531 C526 1.379 . S
C531 N529 1.356 . S
N532 C524 1.356 . S
N532 H538 0.984 . S
N532 H539 0.984 . S
N533 C526 1.356 . S
N533 H536 0.984 . S
N533 H537 0.985 . S
H534 N529 0.984 . S
H535 N529 0.985 . S
H536 N533 0.984 . S
H537 N533 0.985 . S
H538 N532 0.984 . S
H539 N532 0.984 . S
H540 N528 0.984 . S
H541 N528 0.985 . S
C542 C543 1.363 . S
C542 C548 1.379 . S
C542 N550 1.356 . S
C543 C542 1.363 . S
C543 C549 1.363 . S
C544 C545 1.363 . S
C544 C549 1.379 . S
C544 N551 1.356 . S
C545 C544 1.363 . S
C545 C548 1.363 . S
N546 C548 1.356 . S
N546 H558 0.984 . S
N546 H559 0.985 . S
N547 C549 1.356 . S
N547 H552 0.984 . S
N547 H553 0.985 . S
C548 C542 1.379 . S
C548 C545 1.363 . S
C548 N546 1.356 . S
C549 C543 1.363 . S
C549 C544 1.379 . S
C549 N547 1.356 . S
N550 C542 1.356 . S
N550 H556 0.984 . S
N550 H557 0.984 . S
N551 C544 1.356 . S
N551 H554 0.984 . S
N551 H555 0.985 . S
H552 N547 0.984 . S
H553 N547 0.985 . S
H554 N551 0.984 . S
H555 N551 0.985 . S
H556 N550 0.984 . S
H557 N550 0.984 . S
H558 N546 0.984 . S
H559 N546 0.985 . S
C560 C561 1.363 . S
C560 C566 1.379 . S
C560 N568 1.356 . S
C561 C560 1.363 . S
C561 C567 1.363 . S
C562 C563 1.363 . S
C562 C567 1.379 . S
C562 N569 1.356 . S
C563 C562 1.363 . S
C563 C566 1.363 . S
N564 C566 1.356 . S
N564 H576 0.984 . S
N564 H577 0.985 . S
N565 C567 1.356 . S
N565 H570 0.984 . S
N565 H571 0.981 1_545 S
C566 C560 1.379 . S
C566 C563 1.363 . S
C566 N564 1.356 . S
C567 C561 1.363 . S
C567 C562 1.379 . S
C567 N565 1.356 . S
N568 C560 1.356 . S
N568 H574 0.984 . S
N568 H575 0.984 . S
N569 C562 1.356 . S
N569 H572 0.984 . S
N569 H573 0.985 . S
H570 N565 0.984 . S
H571 N565 0.981 1_565 S
H572 N569 0.984 . S
H573 N569 0.985 . S
H574 N568 0.984 . S
H575 N568 0.984 . S
H576 N564 0.984 . S
H577 N564 0.985 . S
C578 C579 1.363 . S
C578 C584 1.379 . S
C578 N586 1.356 . S
C579 C578 1.363 . S
C579 C585 1.363 . S
C580 C581 1.363 . S
C580 C585 1.379 . S
C580 N587 1.356 . S
C581 C580 1.363 . S
C581 C584 1.363 . S
N582 C584 1.356 . S
N582 H594 0.984 . S
N582 H595 0.985 . S
N583 C585 1.356 . S
N583 H588 0.984 . S
N583 H589 0.985 . S
C584 C578 1.379 . S
C584 C581 1.363 . S
C584 N582 1.356 . S
C585 C579 1.363 . S
C585 C580 1.379 . S
C585 N583 1.356 . S
N586 C578 1.356 . S
N586 H592 0.984 . S
N586 H593 0.984 . S
N587 C580 1.356 . S
N587 H590 0.984 . S
N587 H591 0.985 . S
H588 N583 0.984 . S
H589 N583 0.985 . S
H590 N587 0.984 . S
H591 N587 0.985 . S
H592 N586 0.984 . S
H593 N586 0.984 . S
H594 N582 0.984 . S
H595 N582 0.985 . S
C596 C597 1.363 . S
C596 C602 1.379 . S
C596 N604 1.356 . S
C597 C596 1.363 . S
C597 C603 1.363 . S
C598 C599 1.363 . S
C598 C603 1.379 . S
C598 N605 1.356 . S
C599 C598 1.363 . S
C599 C602 1.363 . S
N600 C602 1.356 . S
N600 H612 0.984 . S
N600 H613 0.985 . S
N601 C603 1.356 . S
N601 H606 0.984 . S
N601 H607 0.985 . S
C602 C596 1.379 . S
C602 C599 1.363 . S
C602 N600 1.356 . S
C603 C597 1.363 . S
C603 C598 1.379 . S
C603 N601 1.356 . S
N604 C596 1.356 . S
N604 H610 0.984 . S
N604 H611 0.984 . S
N605 C598 1.356 . S
N605 H608 0.984 . S
N605 H609 0.985 . S
H606 N601 0.984 . S
H607 N601 0.985 . S
H608 N605 0.984 . S
H609 N605 0.985 . S
H610 N604 0.984 . S
H611 N604 0.984 . S
H612 N600 0.984 . S
H613 N600 0.985 . S
C614 C615 1.363 1_554 S
C614 C620 1.379 . S
C614 N622 1.356 . S
C615 C614 1.363 1_556 S
C615 C621 1.363 . S
C616 C617 1.363 1_556 S
C616 C621 1.379 . S
C616 N623 1.356 . S
C617 C616 1.363 1_554 S
C617 C620 1.363 . S
N618 C620 1.356 . S
N618 H630 0.984 . S
N618 H631 0.985 . S
N619 C621 1.356 . S
N619 H624 0.984 . S
N619 H625 0.985 . S
C620 C614 1.379 . S
C620 C617 1.363 . S
C620 N618 1.356 . S
C621 C615 1.363 . S
C621 C616 1.379 . S
C621 N619 1.356 . S
N622 C614 1.356 . S
N622 H628 0.984 . S
N622 H629 0.984 1_554 S
N623 C616 1.356 . S
N623 H626 0.984 1_556 S
N623 H627 0.985 . S
H624 N619 0.984 . S
H625 N619 0.985 . S
H626 N623 0.984 1_554 S
H627 N623 0.985 . S
H628 N622 0.984 . S
H629 N622 0.984 1_556 S
H630 N618 0.984 . S
H631 N618 0.985 . S
C273 C20 1.365 . S
C275 C36 1.367 . S
C291 C70 1.363 1_455 S
C293 C54 1.365 . S
C309 C104 1.367 . S
C311 C88 1.365 . S
C327 C122 1.365 . S
C329 C2 1.367 1_655 S
C345 C156 1.365 . S
C347 C240 1.363 1_545 S
C363 C190 1.365 . S
C365 C138 1.367 . S
C381 C224 1.365 . S
C383 C172 1.367 1_565 S
C399 C258 1.365 . S
C401 C206 1.367 . S
C417 C213 1.388 . S
C419 C33 1.423 . S
C435 C247 1.388 . S
C437 C67 1.423 . S
C453 C145 1.388 . S
C455 C101 1.423 . S
C471 C179 1.388 . S
C473 C135 1.423 . S
C489 C169 1.423 . S
C491 C77 1.388 . S
C507 C203 1.423 . S
C509 C111 1.388 . S
C525 C237 1.423 . S
C527 C9 1.388 . S
C543 C271 1.423 . S
C545 C43 1.388 . S
C561 C243 1.627 . S
C563 C5 1.627 . S
C579 C141 1.627 . S
C581 C39 1.627 . S
C597 C73 1.627 . S
C599 C175 1.627 . S
C615 C107 1.627 . S
C617 C209 1.627 . S
