# Generated by pormake.
# Topology nbo, (4)-cn, num edge types: 1
# Building blocks:
#     Node 0, Type 0, BuildingBlock: NAWXER_clean_sbu_0, # of connection points: 4
#     Node 1, Type 0, BuildingBlock: NAWXER_clean_sbu_0, # of connection points: 4
#     Node 2, Type 0, BuildingBlock: NAWXER_clean_sbu_0, # of connection points: 4
#     Node 3, Type 0, BuildingBlock: NAWXER_clean_sbu_0, # of connection points: 4
#     Node 4, Type 0, BuildingBlock: NAWXER_clean_sbu_0, # of connection points: 4
#     Node 5, Type 0, BuildingBlock: NAWXER_clean_sbu_0, # of connection points: 4
#     Edge 6, Type (0, 0), BuildingBlock: ZUJKAS_clean_linker_0, # of connection points: 2
#     Edge 7, Type (0, 0), BuildingBlock: ZUJKAS_clean_linker_0, # of connection points: 2
#     Edge 8, Type (0, 0), BuildingBlock: ZUJKAS_clean_linker_0, # of connection points: 2
#     Edge 9, Type (0, 0), BuildingBlock: ZUJKAS_clean_linker_0, # of connection points: 2
#     Edge 10, Type (0, 0), BuildingBlock: ZUJKAS_clean_linker_0, # of connection points: 2
#     Edge 11, Type (0, 0), BuildingBlock: ZUJKAS_clean_linker_0, # of connection points: 2
#     Edge 12, Type (0, 0), BuildingBlock: ZUJKAS_clean_linker_0, # of connection points: 2
#     Edge 13, Type (0, 0), BuildingBlock: ZUJKAS_clean_linker_0, # of connection points: 2
#     Edge 14, Type (0, 0), BuildingBlock: ZUJKAS_clean_linker_0, # of connection points: 2
#     Edge 15, Type (0, 0), BuildingBlock: ZUJKAS_clean_linker_0, # of connection points: 2
#     Edge 16, Type (0, 0), BuildingBlock: ZUJKAS_clean_linker_0, # of connection points: 2
#     Edge 17, Type (0, 0), BuildingBlock: ZUJKAS_clean_linker_0, # of connection points: 2
# Relax obj value: 0.000
# Max RMSD: 0.000
# Mean RMSD: 0.000
data_MOF--net-nbo--node1-NAWXER_clean_sbu_0--edge1-ZUJKAS_clean_linker_0
_symmetry_space_group_name_H-M    P1
_symmetry_Int_Tables_number       1
_symmetry_cell_setting            triclinic
loop_
_symmetry_equiv_pos_as_xyz
'x, y, z'
_cell_length_a     38.344692
_cell_length_b     38.356863
_cell_length_c     38.335009
_cell_angle_alpha  96.99499
_cell_angle_beta   97.490221
_cell_angle_gamma 97.075186
loop_
_atom_site_label
_atom_site_type_symbol
_atom_site_fract_x
_atom_site_fract_y
_atom_site_fract_z
_atom_type_partial_charge
C0 C 0.08221 0.13908 0.55181 0.0
C1 C 0.07378 0.01137 0.55336 0.0
O2 O 0.07571 0.12141 0.52049 0.0
Zn3 Zn 0.06852 0.06688 0.49668 0.0
O4 O 0.08612 0.12264 0.57857 0.0
Zn5 Zn 0.07828 0.07515 0.5528 0.0
O6 O 0.12481 0.07295 0.52715 0.0
O7 O 0.10724 0.06532 0.46929 0.0
O8 O 0.07985 0.03598 0.57967 0.0
O9 O 0.06905 0.01934 0.52166 0.0
O10 O 0.02094 0.0611 0.47137 0.0
O11 O 0.02303 0.06881 0.52964 0.0
C12 C 0.13218 0.06913 0.49533 0.0
C13 C 1.00494 0.0638 0.49838 0.0
C14 C 0.46286 1.00444 0.94493 0.0
C15 C 0.46603 0.87697 0.93543 0.0
O16 O 0.49468 0.99686 0.94962 0.0
Zn17 Zn 0.52034 0.94991 0.95018 0.0
O18 O 0.4368 0.97955 0.93889 0.0
Zn19 Zn 0.46418 0.94069 0.94022 0.0
O20 O 0.48703 0.94624 0.99532 0.0
O21 O 0.54529 0.95595 0.99808 0.0
O22 O 0.43898 0.89304 0.93227 0.0
O23 O 0.49722 0.89498 0.94188 0.0
O24 O 0.54795 0.95253 0.91173 0.0
O25 O 0.49008 0.94372 0.89384 0.0
C26 C 0.51813 0.9519 0.01373 0.0
C27 C 0.52196 0.94833 0.88668 0.0
C28 C 0.02412 0.4787 0.0507 0.0
C29 C 0.89659 0.48126 0.044 0.0
O30 O 0.99945 0.45256 0.04661 0.0
Zn31 Zn 0.9604 0.47971 0.04753 0.0
O32 O 0.01637 0.51043 0.05437 0.0
Zn33 Zn 0.9693 0.5358 0.0561 0.0
O34 O 0.97703 0.5614 0.10363 0.0
O35 O 0.96746 0.50334 0.10228 0.0
O36 O 0.9145 0.51246 0.04985 0.0
O37 O 0.91278 0.45436 0.04047 0.0
O38 O 0.96187 0.50477 1.00021 0.0
O39 O 0.96997 0.56269 0.01678 0.0
C40 C 0.97365 0.5346 0.12002 0.0
C41 C 0.9656 0.53643 0.99224 0.0
C42 C 0.44585 0.50439 0.96108 0.0
C43 C 0.43875 0.37678 0.96304 0.0
O44 O 0.44115 0.47989 0.93473 0.0
Zn45 Zn 0.44237 0.44058 0.96166 0.0
O46 O 0.45012 0.49639 0.99276 0.0
Zn47 Zn 0.45209 0.44926 0.01791 0.0
O48 O 0.50003 0.45625 0.04295 0.0
O49 O 0.49741 0.44659 0.9847 0.0
O50 O 0.4453 0.39462 0.99429 0.0
O51 O 0.43459 0.39301 0.93614 0.0
O52 O 0.39581 0.44255 0.98742 0.0
O53 O 0.41338 0.45032 0.04533 0.0
C54 C 0.51576 0.45245 0.01582 0.0
C55 C 0.38844 0.44632 0.01925 0.0
C56 C 0.05514 0.63888 0.5784 0.0
C57 C 0.05862 0.51151 0.57091 0.0
O58 O 0.0822 0.623 0.58311 0.0
Zn59 Zn 0.05717 0.57522 0.57505 0.0
O60 O 0.02404 0.6207 0.57141 0.0
Zn61 Zn 1.00103 0.56581 0.56441 0.0
O62 O 0.97311 0.56389 0.60278 0.0
O63 O 0.03087 0.57262 0.62107 0.0
O64 O 0.0268 0.519 0.56576 0.0
O65 O 0.08464 0.53645 0.5771 0.0
O66 O 0.03475 0.56908 0.51965 0.0
O67 O 0.97643 0.55899 0.51642 0.0
C68 C 0.99891 0.56823 0.62802 0.0
C69 C 1.00375 0.56304 0.50099 0.0
C70 C 0.6245 0.037 0.47095 0.0
C71 C 0.49669 0.038 0.46317 0.0
O72 O 0.60703 1.00561 0.46583 0.0
Zn73 Zn 0.55236 0.98165 0.45886 0.0
O74 O 0.60786 0.06366 0.47313 0.0
Zn75 Zn 0.56054 0.03772 0.46657 0.0
O76 O 0.55931 0.01323 0.51438 0.0
O77 O 0.55165 0.95521 0.49839 0.0
O78 O 0.52109 0.06436 0.46693 0.0
O79 O 0.50486 1.00642 0.46 0.0
O80 O 0.54531 0.95554 0.41152 0.0
O81 O 0.55394 0.01351 0.41215 0.0
C82 C 0.55578 0.98168 0.52269 0.0
C83 C 0.54833 0.9821 0.39477 0.0
H84 H 0.1002 0.18621 0.6134 0.0
H85 H 0.10135 0.25073 0.62012 0.0
H86 H 0.06879 0.24464 0.50727 0.0
H87 H 0.06838 0.18057 0.50018 0.0
H88 H 0.1219 0.29926 0.53243 0.0
H89 H 0.01399 0.301 0.61603 0.0
H90 H 0.05127 0.2811 0.63362 0.0
H91 H 0.02405 0.26052 0.59279 0.0
C92 C 0.09337 0.19864 0.59002 0.0
C93 C 0.08402 0.1782 0.55629 0.0
C94 C 0.09385 0.23548 0.59393 0.0
C95 C 0.0846 0.25242 0.56426 0.0
C96 C 0.07595 0.23213 0.53054 0.0
H97 H 1.00936 0.45242 0.55096 0.0
H98 H 0.01841 0.39054 0.55043 0.0
C99 C 0.07567 0.19545 0.52657 0.0
C100 C 0.0835 0.29121 0.56799 0.0
H101 H 0.04126 0.35645 0.60524 0.0
C102 C 0.1044 0.31184 0.54847 0.0
C103 C 0.06032 0.30745 0.58861 0.0
C104 C 0.03587 0.2864 0.60872 0.0
C105 C 0.10243 0.34818 0.54863 0.0
C106 C 0.07952 0.36448 0.56954 0.0
C107 C 0.05899 0.34394 0.58943 0.0
C108 C 0.0748 0.40231 0.5696 0.0
C109 C 0.12388 0.36842 0.52536 0.0
C110 C 0.1035 0.42958 0.58066 0.0
C111 C 0.09848 0.46512 0.5807 0.0
C112 C 0.06454 0.474 0.57011 0.0
C113 C 0.03585 0.44658 0.55929 0.0
C114 C 0.04095 0.41114 0.55903 0.0
H115 H 0.13303 0.35037 0.50459 0.0
H116 H 0.10816 0.38687 0.51214 0.0
H117 H 0.14773 0.38432 0.542 0.0
H118 H 0.12972 0.42341 0.58962 0.0
H119 H 0.12106 0.48562 0.58946 0.0
H120 H 0.9593 0.06741 0.43809 0.0
H121 H 0.8948 0.06627 0.43206 0.0
H122 H 0.89753 0.05325 0.54254 0.0
H123 H 0.96198 0.05556 0.54906 0.0
H124 H 0.84321 0.0165 0.44001 0.0
H125 H 0.84165 0.13464 0.53783 0.0
H126 H 0.8819 0.1237 0.52224 0.0
H127 H 0.86504 0.10234 0.55718 0.0
C128 C 0.94616 0.06443 0.46113 0.0
C129 C 0.96579 0.06187 0.49413 0.0
C130 C 0.9093 0.06381 0.45765 0.0
C131 C 0.89138 0.06049 0.48705 0.0
C132 C 0.91085 0.05699 0.51977 0.0
H133 H 0.6683 0.98705 0.48063 0.0
H134 H 0.73277 0.99401 0.48359 0.0
C135 C 0.9477 0.05802 0.52337 0.0
C136 C 0.85221 0.05954 0.48327 0.0
H137 H 0.78627 0.09647 0.51966 0.0
C138 C 0.83078 0.0342 0.45722 0.0
C139 C 0.83594 0.08309 0.50526 0.0
C140 C 0.85735 0.11271 0.53192 0.0
C141 C 0.79356 0.03103 0.45326 0.0
C142 C 0.7773 0.05311 0.47672 0.0
C143 C 0.79872 0.07919 0.50203 0.0
C144 C 0.73816 0.04926 0.47575 0.0
C145 C 0.77214 1.00432 0.42366 0.0
C146 C 0.71981 0.07842 0.47194 0.0
C147 C 0.68291 0.0747 0.47092 0.0
C148 C 0.6637 0.04168 0.47356 0.0
C149 C 0.68225 0.01274 0.47805 0.0
C150 C 0.71911 0.01659 0.47948 0.0
H151 H 0.78774 0.9983 0.40175 0.0
H152 H 0.76466 0.97917 0.43415 0.0
H153 H 0.74747 0.01398 0.41256 0.0
H154 H 0.734 0.10397 0.46932 0.0
H155 H 0.6694 0.0975 0.46748 0.0
H156 H 1.00298 0.67934 0.56297 0.0
H157 H 1.00931 0.7433 0.56245 0.0
H158 H 0.122 0.75129 0.59701 0.0
H159 H 0.11606 0.68692 0.59683 0.0
H160 H 0.03309 0.79859 0.61513 0.0
H161 H 0.11865 0.80053 0.50889 0.0
H162 H 0.09562 0.75996 0.51909 0.0
H163 H 0.13602 0.78118 0.54667 0.0
C164 C 0.02917 0.69462 0.5705 0.0
C165 C 0.05908 0.67795 0.57971 0.0
C166 C 0.03271 0.73123 0.57023 0.0
C167 C 0.06618 0.75201 0.57917 0.0
C168 C 0.09602 0.73565 0.58927 0.0
H169 H 0.09092 0.98473 0.61564 0.0
H170 H 0.09043 0.92237 0.62384 0.0
C171 C 0.09255 0.6989 0.58935 0.0
C172 C 0.06951 0.79071 0.57758 0.0
H173 H 0.10741 0.85602 0.53569 0.0
C174 C 0.04943 0.81122 0.59787 0.0
C175 C 0.09049 0.80699 0.55468 0.0
C176 C 0.11119 0.78604 0.53082 0.0
C177 C 0.04953 0.84751 0.59568 0.0
C178 C 0.07093 0.86389 0.57317 0.0
C179 C 0.09123 0.84345 0.55312 0.0
C180 C 0.07135 0.9018 0.56862 0.0
C181 C 0.02576 0.86763 0.61652 0.0
C182 C 0.06157 0.91101 0.53475 0.0
C183 C 0.06221 0.94656 0.52991 0.0
C184 C 0.07263 0.97371 0.55888 0.0
C185 C 0.08247 0.96446 0.59282 0.0
C186 C 0.08205 0.92881 0.5976 0.0
H187 H 1.00462 0.84948 0.62507 0.0
H188 H 0.04192 0.88336 0.64073 0.0
H189 H 0.013 0.8862 0.60061 0.0
H190 H 0.05329 0.89061 0.512 0.0
H191 H 0.05447 0.95272 0.50341 0.0
H192 H 0.46715 0.09885 0.45623 0.0
H193 H 0.405 0.1072 0.45755 0.0
H194 H 0.37964 0.99795 0.47307 0.0
H195 H 0.44121 0.9891 0.4705 0.0
H196 H 0.3302 0.01564 0.42594 0.0
H197 H 0.35736 0.11871 0.54462 0.0
H198 H 0.37983 0.13056 0.50864 0.0
H199 H 0.39093 0.09352 0.53038 0.0
C200 C 0.4483 0.07663 0.45991 0.0
C201 C 0.45914 0.04336 0.46342 0.0
C202 C 0.41283 0.08149 0.46088 0.0
C203 C 0.38775 0.05338 0.4661 0.0
C204 C 0.39849 0.02006 0.46911 0.0
H205 H 0.18848 0.0619 0.5438 0.0
H206 H 0.24973 0.05893 0.53426 0.0
C207 C 0.43375 0.01505 0.46767 0.0
C208 C 0.35026 0.05832 0.46842 0.0
H209 H 0.298 0.10589 0.5156 0.0
C210 C 0.32314 0.03541 0.44551 0.0
C211 C 0.34107 0.08386 0.49425 0.0
C212 C 0.36878 0.10784 0.52111 0.0
C213 C 0.28713 0.03698 0.448 0.0
C214 C 0.27794 0.06297 0.47338 0.0
C215 C 0.30506 0.08619 0.49595 0.0
C216 C 0.24052 0.06516 0.47858 0.0
C217 C 0.25944 0.00983 0.42438 0.0
C218 C 0.21489 0.07 0.45053 0.0
C219 C 0.17958 0.07121 0.4558 0.0
C220 C 0.16946 0.06831 0.48941 0.0
C221 C 0.19537 0.06429 0.51759 0.0
C222 C 0.23046 0.06261 0.51219 0.0
H223 H 0.27104 0.98636 0.41362 0.0
H224 H 0.23767 1.00063 0.43898 0.0
H225 H 0.24785 0.02197 0.40152 0.0
H226 H 0.22218 0.07295 0.42459 0.0
H227 H 0.16031 0.07469 0.43365 0.0
H228 H 0.56067 0.03319 0.35247 0.0
H229 H 0.55563 0.02589 0.28785 0.0
H230 H 0.52428 0.91332 0.2832 0.0
H231 H 0.52999 0.92025 0.3482 0.0
H232 H 0.57351 0.92886 0.23913 0.0
H233 H 0.46356 0.00886 0.21899 0.0
H234 H 0.50146 0.0325 0.24862 0.0
H235 H 0.47692 0.99393 0.26092 0.0
C236 C 0.5526 1.00683 0.33778 0.0
C237 C 0.54546 0.97731 0.35552 0.0
C238 C 0.54957 1.00277 0.30078 0.0
C239 C 0.53889 0.96919 0.28067 0.0
C240 C 0.53233 0.93952 0.29824 0.0
H241 H 0.46599 0.93605 0.0537 0.0
H242 H 0.47175 0.93836 0.1181 0.0
C243 C 0.53556 0.94353 0.33536 0.0
C244 C 0.53498 0.96514 0.24132 0.0
H245 H 0.49245 0.99433 0.16889 0.0
C246 C 0.55564 0.94299 0.22371 0.0
C247 C 0.5113 0.98323 0.22123 0.0
C248 C 0.48678 1.00568 0.23834 0.0
C249 C 0.5538 0.93901 0.18656 0.0
C250 C 0.53122 0.95829 0.16662 0.0
C251 C 0.51007 0.97989 0.18422 0.0
C252 C 0.52842 0.95596 0.1274 0.0
C253 C 0.57557 0.91372 0.16903 0.0
C254 C 0.55835 0.96533 0.11115 0.0
C255 C 0.55519 0.9638 0.07418 0.0
C256 C 0.52193 0.95334 0.05286 0.0
C257 C 0.492 0.94427 0.06929 0.0
C258 C 0.49523 0.94556 0.10614 0.0
H259 H 0.58327 0.89393 0.18642 0.0
H260 H 0.56079 0.89936 0.14345 0.0
H261 H 0.60032 0.92894 0.16353 0.0
H262 H 0.58408 0.97428 0.12708 0.0
H263 H 0.57872 0.9712 0.06238 0.0
H264 H 0.99282 0.59598 0.16712 0.0
H265 H 0.99876 0.60232 0.2321 0.0
H266 H 0.96629 0.48981 0.22645 0.0
H267 H 0.96101 0.48309 0.16182 0.0
H268 H 0.94943 0.58692 0.27595 0.0
H269 H 0.05828 0.50546 0.29535 0.0
H270 H 0.04516 0.52083 0.25359 0.0
H271 H 0.02018 0.48237 0.26561 0.0
C272 C 0.98706 0.57258 0.17973 0.0
C273 C 0.97674 0.53899 0.15928 0.0
C274 C 0.99043 0.57625 0.21684 0.0
C275 C 0.98359 0.54643 0.23413 0.0
C276 C 0.97256 0.51304 0.21373 0.0
H277 H 0.94335 0.54379 0.45213 0.0
H278 H 0.93824 0.54071 0.38746 0.0
C279 C 0.96938 0.50931 0.17673 0.0
C280 C 0.98749 0.55018 0.27346 0.0
H281 H 0.02958 0.5201 0.34558 0.0
C282 C 0.96709 0.57249 0.29124 0.0
C283 C 0.01092 0.53169 0.29338 0.0
C284 C 0.03516 0.50903 0.27607 0.0
C285 C 0.96895 0.57626 0.32838 0.0
C286 C 0.99127 0.5566 0.34813 0.0
C287 C 0.01216 0.53483 0.33038 0.0
C288 C 0.994 0.55869 0.38733 0.0
C289 C 0.94747 0.60173 0.3461 0.0
C290 C 0.02717 0.56884 0.40867 0.0
C291 C 0.03026 0.57015 0.44552 0.0
C292 C 1.00019 0.56133 0.46185 0.0
C293 C 0.96698 0.551 0.44042 0.0
C294 C 0.96396 0.54947 0.40346 0.0
H295 H 0.94001 0.62173 0.32886 0.0
H296 H 0.92261 0.5867 0.35155 0.0
H297 H 0.96239 0.61585 0.37172 0.0
H298 H 0.05074 0.57591 0.39679 0.0
H299 H 0.05625 0.57825 0.4612 0.0
H300 H 0.5626 0.92094 0.55245 0.0
H301 H 0.56093 0.91265 0.61458 0.0
H302 H 0.54543 0.0219 0.63957 0.0
H303 H 0.54839 0.03071 0.578 0.0
H304 H 0.59195 1.00428 0.68947 0.0
H305 H 0.47345 0.90093 0.66139 0.0
H306 H 0.50961 0.88907 0.63926 0.0
H307 H 0.48805 0.92613 0.62792 0.0
C308 C 0.55886 0.94319 0.57122 0.0
C309 C 0.55546 0.97644 0.56027 0.0
C310 C 0.55769 0.93835 0.60667 0.0
C311 C 0.55233 0.96645 0.63163 0.0
C312 C 0.54948 0.99978 0.6208 0.0
H313 H 0.47352 0.9556 0.83037 0.0
H314 H 0.48324 0.95941 0.76928 0.0
C315 C 0.55114 1.00477 0.58555 0.0
C316 C 0.54968 0.96146 0.66907 0.0
H317 H 0.50231 0.91331 0.72085 0.0
C318 C 0.57236 0.98437 0.69635 0.0
C319 C 0.52381 0.93575 0.67804 0.0
C320 C 0.4971 0.9118 0.65015 0.0
C321 C 0.56968 0.98258 0.7323 0.0
C322 C 0.54434 0.95635 0.74126 0.0
C323 C 0.52194 0.93318 0.71398 0.0
C324 C 0.53905 0.95378 0.77862 0.0
C325 C 0.59307 0.00972 0.76016 0.0
C326 C 0.56711 0.949 0.80426 0.0
C327 C 0.56174 0.94732 0.83948 0.0
C328 C 0.52801 0.94965 0.84949 0.0
C329 C 0.49982 0.95363 0.82356 0.0
C330 C 0.50533 0.95579 0.78857 0.0
H331 H 0.60366 0.0334 0.74872 0.0
H332 H 0.57836 0.01857 0.78195 0.0
H333 H 0.61605 0.99773 0.7717 0.0
H334 H 0.59315 0.94644 0.79704 0.0
H335 H 0.58389 0.9439 0.85878 0.0
H336 H 0.04697 0.56119 0.68469 0.0
H337 H 0.03697 0.5582 0.74581 0.0
H338 H 0.92731 0.57171 0.71734 0.0
H339 H 0.93685 0.57341 0.65555 0.0
H340 H 0.01806 0.60498 0.79367 0.0
H341 H 0.91597 0.48543 0.76658 0.0
H342 H 0.94148 0.49969 0.73327 0.0
H343 H 0.90401 0.52104 0.74328 0.0
C344 C 0.02066 0.56345 0.69134 0.0
C345 C 0.99263 0.56734 0.6652 0.0
C346 C 0.015 0.56177 0.72636 0.0
C347 C 0.98127 0.56418 0.73614 0.0
C348 C 0.95335 0.56885 0.71027 0.0
H349 H 0.95899 0.59751 0.96295 0.0
H350 H 0.9602 0.60608 0.90081 0.0
C351 C 0.95888 0.57005 0.67501 0.0
C352 C 0.97584 0.56205 0.77354 0.0
H353 H 0.9282 0.51466 0.82572 0.0
C354 C 0.99836 0.58527 0.80069 0.0
C355 C 0.95039 0.53605 0.78269 0.0
C356 C 0.92681 0.5089 0.75497 0.0
C357 C 0.9966 0.58288 0.83669 0.0
C358 C 0.97072 0.55732 0.84585 0.0
C359 C 0.94782 0.53446 0.81869 0.0
C360 C 0.9684 0.55224 0.88333 0.0
C361 C 0.02349 0.6068 0.86443 0.0
C362 C 0.97123 0.51883 0.89396 0.0
C363 C 0.96984 0.51369 0.9292 0.0
C364 C 0.96582 0.54195 0.95471 0.0
C365 C 0.9625 0.57531 0.944 0.0
C366 C 0.9634 0.58031 0.90853 0.0
H367 H 0.04704 0.61766 0.85303 0.0
H368 H 0.01108 0.62953 0.87548 0.0
H369 H 0.03271 0.59244 0.88658 0.0
H370 H 0.97504 0.49674 0.87502 0.0
H371 H 0.97253 0.48767 0.93656 0.0
H372 H 0.08003 0.52721 0.04365 0.0
H373 H 0.14148 0.51785 0.04123 0.0
H374 H 0.11503 0.40854 0.05605 0.0
H375 H 0.05298 0.4174 0.0572 0.0
H376 H 0.19037 0.49963 0.08844 0.0
H377 H 0.16325 0.39696 0.96941 0.0
H378 H 0.12976 0.42233 0.98354 0.0
H379 H 0.14047 0.38513 1.00521 0.0
C380 C 0.08722 0.50113 0.04634 0.0
C381 C 0.06156 0.47297 0.05037 0.0
C382 C 0.12241 0.49583 0.045 0.0
C383 C 0.13283 0.46236 0.04788 0.0
C384 C 0.10746 0.43437 0.05282 0.0
H385 H 0.36021 0.44037 0.08083 0.0
H386 H 0.29829 0.44198 0.08983 0.0
C387 C 0.07206 0.43952 0.05369 0.0
C388 C 0.17029 0.45716 0.04576 0.0
H389 H 0.22251 0.40946 0.99865 0.0
C390 C 0.19742 0.47987 0.06885 0.0
C391 C 0.17947 0.43163 0.01991 0.0
C392 C 0.15175 0.40785 0.99287 0.0
C393 C 0.23343 0.47816 0.06649 0.0
C394 C 0.2426 0.45221 0.04106 0.0
C395 C 0.21547 0.42914 0.01834 0.0
C396 C 0.28003 0.44998 0.03589 0.0
C397 C 0.26114 0.50514 0.09028 0.0
C398 C 0.29014 0.45266 1.00232 0.0
C399 C 0.32524 0.45106 0.99695 0.0
C400 C 0.35112 0.44696 0.02513 0.0
C401 C 0.34095 0.4439 0.0587 0.0
C402 C 0.30562 0.44504 0.06392 0.0
H403 H 0.2496 0.52862 0.10113 0.0
H404 H 0.27264 0.49284 0.11307 0.0
H405 H 0.28299 0.51437 0.07577 0.0
H406 H 0.27089 0.45644 0.98026 0.0
H407 H 0.33217 0.45358 0.97078 0.0
H408 H 0.45323 0.33573 0.01491 0.0
H409 H 0.45306 0.2717 0.00821 0.0
H410 H 0.4197 0.26478 0.89541 0.0
H411 H 0.4206 0.32926 0.90173 0.0
H412 H 0.39998 0.21692 0.98371 0.0
H413 H 0.50717 0.21469 0.89926 0.0
H414 H 0.49716 0.25528 0.92234 0.0
H415 H 0.46973 0.23441 0.88174 0.0
C416 C 0.44582 0.32068 0.98861 0.0
C417 C 0.43716 0.33768 0.95879 0.0
C418 C 0.44568 0.28402 0.98487 0.0
C419 C 0.43686 0.26351 0.95127 0.0
C420 C 0.42733 0.2802 0.92149 0.0
H421 H 0.40037 0.03045 0.92707 0.0
H422 H 0.39178 0.09268 0.92699 0.0
C423 C 0.42768 0.31702 0.92518 0.0
C424 C 0.43805 0.22474 0.94777 0.0
H425 H 0.48006 0.15933 0.91049 0.0
C426 C 0.41736 0.20425 0.96758 0.0
C427 C 0.46108 0.2084 0.92705 0.0
C428 C 0.48531 0.2293 0.90662 0.0
C429 C 0.41938 0.16794 0.9676 0.0
C430 C 0.44212 0.15153 0.94656 0.0
C431 C 0.46246 0.17193 0.9264 0.0
C432 C 0.44681 0.1137 0.94657 0.0
C433 C 0.39816 0.14786 0.99115 0.0
C434 C 0.48069 0.1048 0.95687 0.0
C435 C 0.48575 0.06935 0.95656 0.0
C436 C 0.45699 0.04198 0.94596 0.0
C437 C 0.42301 0.05091 0.93567 0.0
C438 C 0.41802 0.08647 0.93576 0.0
H439 H 0.38922 0.16602 0.01198 0.0
H440 H 0.37418 0.13195 0.97473 0.0
H441 H 0.41395 0.12943 1.0043 0.0
H442 H 0.50329 0.12537 0.96527 0.0
H443 H 0.51227 0.06345 0.96465 0.0
H444 H 0.84912 0.42007 0.02544 0.0
H445 H 0.78422 0.41401 0.02048 0.0
H446 H 0.79076 0.52655 0.05314 0.0
H447 H 0.85532 0.53299 0.05743 0.0
H448 H 0.7411 0.42962 0.07051 0.0
H449 H 0.72097 0.51125 0.96176 0.0
H450 H 0.7627 0.49568 0.97441 0.0
H451 H 0.75111 0.53416 0.99966 0.0
C452 C 0.83672 0.44353 0.03145 0.0
C453 C 0.85739 0.47705 0.04152 0.0
C454 C 0.79966 0.44002 0.02866 0.0
C455 C 0.78264 0.46993 0.03582 0.0
C456 C 0.80326 0.50325 0.04663 0.0
H457 H 0.56432 0.4718 0.07651 0.0
H458 H 0.62905 0.47531 0.08193 0.0
C459 C 0.84022 0.50683 0.04923 0.0
C460 C 0.74334 0.46636 0.03237 0.0
H461 H 0.67102 0.49638 0.99068 0.0
C462 C 0.72571 0.44405 0.05294 0.0
C463 C 0.72329 0.48487 0.00908 0.0
C464 C 0.74042 0.50756 0.9847 0.0
C465 C 0.6886 0.44023 0.0513 0.0
C466 C 0.66871 0.45984 0.02903 0.0
C467 C 0.68632 0.48169 0.00806 0.0
C468 C 0.62949 0.45742 0.02621 0.0
C469 C 0.67102 0.41473 0.07289 0.0
C470 C 0.60829 0.44713 0.99298 0.0
C471 C 0.57143 0.44558 0.98972 0.0
C472 C 0.55492 0.45429 0.01967 0.0
C473 C 0.57619 0.46469 0.05297 0.0
C474 C 0.61317 0.46647 0.05616 0.0
H475 H 0.68839 0.39491 0.0805 0.0
H476 H 0.66545 0.42977 0.09768 0.0
H477 H 0.64547 0.40041 0.05799 0.0
H478 H 0.62031 0.44016 0.96949 0.0
H479 H 0.55589 0.43741 0.96368 0.0
H480 H 0.44005 0.56011 0.01022 0.0
H481 H 0.44068 0.62225 1.00215 0.0
H482 H 0.45409 0.59642 0.89241 0.0
H483 H 0.45222 0.53375 0.90001 0.0
H484 H 0.4919 0.66688 0.98601 0.0
H485 H 0.37449 0.6551 0.88215 0.0
H486 H 0.38426 0.61901 0.90618 0.0
H487 H 0.40707 0.62819 0.86944 0.0
C488 C 0.44291 0.56756 0.98428 0.0
C489 C 0.44601 0.54197 0.95572 0.0
C490 C 0.44325 0.60313 0.9797 0.0
C491 C 0.44691 0.61401 0.94655 0.0
C492 C 0.45028 0.58857 0.91799 0.0
H493 H 0.51682 0.83418 0.92638 0.0
H494 H 0.51165 0.77017 0.92688 0.0
C495 C 0.44949 0.5528 0.92244 0.0
C496 C 0.44879 0.65223 0.94265 0.0
H497 H 0.41114 0.71125 0.89497 0.0
C498 C 0.47415 0.67655 0.96616 0.0
C499 C 0.4253 0.66495 0.91707 0.0
C500 C 0.39601 0.64051 0.89251 0.0
C501 C 0.47682 0.71313 0.96476 0.0
C502 C 0.45428 0.72575 0.93829 0.0
C503 C 0.42869 0.70151 0.91494 0.0
C504 C 0.45652 0.76408 0.93495 0.0
C505 C 0.50317 0.73791 0.99232 0.0
C506 C 0.42673 0.78169 0.93747 0.0
C507 C 0.42942 0.81827 0.93653 0.0
C508 C 0.46203 0.83787 0.93325 0.0
C509 C 0.49144 0.81992 0.92945 0.0
C510 C 0.4886 0.78335 0.92993 0.0
H511 H 0.5104 0.7253 0.01636 0.0
H512 H 0.52786 0.74495 0.98099 0.0
H513 H 0.49244 0.76273 1.00055 0.0
H514 H 0.40162 0.76728 0.9411 0.0
H515 H 0.40628 0.83133 0.93946 0.0
loop_
_geom_bond_atom_site_label_1
_geom_bond_atom_site_label_2
_geom_bond_distance
_geom_bond_site_symmetry_2
_ccdc_geom_bond_type
C0 O2 1.247 1_455 S
C0 O4 1.258 . S
C1 O8 1.247 1_655 S
C1 O9 1.258 . S
O2 C0 1.247 1_655 S
O2 Zn3 2.028 1_545 S
Zn3 O2 2.028 1_565 S
Zn3 O7 2.035 1_655 S
Zn3 O9 2.035 . S
Zn3 O10 2.028 . S
O4 C0 1.258 . S
O4 Zn5 2.035 . S
Zn5 O4 2.035 . S
Zn5 O6 2.028 . S
Zn5 O8 2.028 1_545 S
Zn5 O11 2.035 1_455 S
O6 Zn5 2.028 . S
O6 C12 1.247 . S
O7 Zn3 2.035 1_455 S
O7 C12 1.258 1_565 S
O8 C1 1.247 1_455 S
O8 Zn5 2.028 1_565 S
O9 C1 1.258 . S
O9 Zn3 2.035 . S
O10 Zn3 2.028 . S
O10 C13 1.247 . S
O11 Zn5 2.035 1_655 S
O11 C13 1.258 1_545 S
C12 O6 1.247 . S
C12 O7 1.258 1_545 S
C13 O10 1.247 . S
C13 O11 1.258 1_565 S
C14 O16 1.247 . S
C14 O18 1.258 1_554 S
C15 O22 1.247 . S
C15 O23 1.258 1_556 S
O16 C14 1.247 . S
O16 Zn17 2.028 . S
Zn17 O16 2.028 . S
Zn17 O21 2.035 . S
Zn17 O23 2.035 1_545 S
Zn17 O24 2.028 1_554 S
O18 C14 1.258 1_556 S
O18 Zn19 2.035 1_545 S
Zn19 O18 2.035 1_565 S
Zn19 O20 2.028 1_556 S
Zn19 O22 2.028 . S
Zn19 O25 2.035 . S
O20 Zn19 2.028 1_554 S
O20 C26 1.247 1_565 S
O21 Zn17 2.035 . S
O21 C26 1.258 . S
O22 C15 1.247 . S
O22 Zn19 2.028 . S
O23 C15 1.258 1_554 S
O23 Zn17 2.035 1_565 S
O24 Zn17 2.028 1_556 S
O24 C27 1.247 1_545 S
O25 Zn19 2.035 . S
O25 C27 1.258 . S
C26 O20 1.247 1_545 S
C26 O21 1.258 . S
C27 O24 1.247 1_565 S
C27 O25 1.258 . S
C28 O30 1.247 1_554 S
C28 O32 1.258 . S
C29 O36 1.247 1_556 S
C29 O37 1.258 . S
O30 C28 1.247 1_556 S
O30 Zn31 2.028 1_455 S
Zn31 O30 2.028 1_655 S
Zn31 O35 2.035 1_556 S
Zn31 O37 2.035 . S
Zn31 O38 2.028 . S
O32 C28 1.258 . S
O32 Zn33 2.035 . S
Zn33 O32 2.035 . S
Zn33 O34 2.028 . S
Zn33 O36 2.028 1_455 S
Zn33 O39 2.035 1_554 S
O34 Zn33 2.028 . S
O34 C40 1.247 . S
O35 Zn31 2.035 1_554 S
O35 C40 1.258 1_655 S
O36 C29 1.247 1_554 S
O36 Zn33 2.028 1_655 S
O37 C29 1.258 . S
O37 Zn31 2.035 . S
O38 Zn31 2.028 . S
O38 C41 1.247 . S
O39 Zn33 2.035 1_556 S
O39 C41 1.258 1_455 S
C40 O34 1.247 . S
C40 O35 1.258 1_455 S
C41 O38 1.247 . S
C41 O39 1.258 1_655 S
C42 O44 1.244 . S
C42 O46 1.261 1_556 S
C43 O50 1.251 . S
C43 O51 1.254 1_554 S
O44 C42 1.244 . S
O44 Zn45 2.028 . S
Zn45 O44 2.028 . S
Zn45 O49 2.035 . S
Zn45 O51 2.035 . S
Zn45 O52 2.028 . S
O46 C42 1.261 1_554 S
O46 Zn47 2.035 . S
Zn47 O46 2.035 . S
Zn47 O48 2.028 . S
Zn47 O50 2.028 . S
Zn47 O53 2.035 . S
O48 Zn47 2.028 . S
O48 C54 1.251 . S
O49 Zn45 2.035 . S
O49 C54 1.254 1_556 S
O50 C43 1.251 . S
O50 Zn47 2.028 . S
O51 C43 1.254 1_556 S
O51 Zn45 2.035 . S
O52 Zn45 2.028 . S
O52 C55 1.244 . S
O53 Zn47 2.035 . S
O53 C55 1.260 1_554 S
C54 O48 1.251 . S
C54 O49 1.254 1_554 S
C55 O52 1.244 . S
C55 O53 1.260 1_556 S
C56 O58 1.251 . S
C56 O60 1.254 1_455 S
C57 O64 1.244 . S
C57 O65 1.260 1_655 S
O58 C56 1.251 . S
O58 Zn59 2.028 . S
Zn59 O58 2.028 . S
Zn59 O63 2.035 . S
Zn59 O65 2.035 . S
Zn59 O66 2.028 . S
O60 C56 1.254 1_655 S
O60 Zn61 2.035 . S
Zn61 O60 2.035 . S
Zn61 O62 2.028 . S
Zn61 O64 2.028 . S
Zn61 O67 2.035 . S
O62 Zn61 2.028 . S
O62 C68 1.244 . S
O63 Zn59 2.035 . S
O63 C68 1.261 1_455 S
O64 C57 1.244 . S
O64 Zn61 2.028 . S
O65 C57 1.260 1_455 S
O65 Zn59 2.035 . S
O66 Zn59 2.028 . S
O66 C69 1.251 . S
O67 Zn61 2.035 . S
O67 C69 1.254 1_655 S
C68 O62 1.244 . S
C68 O63 1.261 1_655 S
C69 O66 1.251 . S
C69 O67 1.254 1_455 S
C70 O72 1.244 . S
C70 O74 1.261 1_565 S
C71 O78 1.251 . S
C71 O79 1.254 1_545 S
O72 C70 1.244 . S
O72 Zn73 2.028 . S
Zn73 O72 2.028 . S
Zn73 O77 2.035 . S
Zn73 O79 2.035 . S
Zn73 O80 2.028 . S
O74 C70 1.261 1_545 S
O74 Zn75 2.035 . S
Zn75 O74 2.035 . S
Zn75 O76 2.028 . S
Zn75 O78 2.028 . S
Zn75 O81 2.035 . S
O76 Zn75 2.028 . S
O76 C82 1.251 . S
O77 Zn73 2.035 . S
O77 C82 1.254 1_565 S
O78 C71 1.251 . S
O78 Zn75 2.028 . S
O79 C71 1.254 1_565 S
O79 Zn73 2.035 . S
O80 Zn73 2.028 . S
O80 C83 1.244 . S
O81 Zn75 2.035 . S
O81 C83 1.260 1_545 S
C82 O76 1.251 . S
C82 O77 1.254 1_545 S
C83 O80 1.244 . S
C83 O81 1.260 1_565 S
H84 C92 0.929 . S
H85 C94 0.930 . S
H86 C96 0.930 . S
H87 C99 0.929 . S
H88 C102 0.930 . S
H89 C104 0.960 . S
H90 C104 0.960 . S
H91 C104 0.960 . S
C92 H84 0.929 . S
C92 C93 1.376 . S
C92 C94 1.384 . S
C93 C92 1.376 . S
C93 C99 1.391 1_455 S
C94 H85 0.930 . S
C94 C92 1.384 . S
C94 C95 1.372 . S
C95 C94 1.372 . S
C95 C96 1.400 1_455 S
C95 C100 1.490 . S
C96 H86 0.930 . S
C96 C95 1.400 1_655 S
C96 C99 1.386 . S
H97 C113 0.930 . S
H98 C114 0.931 . S
C99 H87 0.929 . S
C99 C93 1.391 1_655 S
C99 C96 1.386 . S
C100 C95 1.490 . S
C100 C102 1.395 . S
C100 C103 1.403 1_455 S
H101 C107 0.930 . S
C102 H88 0.930 . S
C102 C100 1.395 . S
C102 C105 1.403 . S
C103 C100 1.403 1_655 S
C103 C104 1.524 . S
C103 C107 1.400 . S
C104 H89 0.960 . S
C104 H90 0.960 . S
C104 H91 0.960 . S
C104 C103 1.524 . S
C105 C102 1.403 . S
C105 C106 1.392 . S
C105 C109 1.495 . S
C106 C105 1.392 . S
C106 C107 1.385 1_455 S
C106 C108 1.478 . S
C107 H101 0.930 . S
C107 C103 1.400 . S
C107 C106 1.385 1_655 S
C108 C106 1.478 . S
C108 C110 1.381 . S
C108 C114 1.383 1_455 S
C109 C105 1.495 . S
C109 H115 0.959 . S
C109 H116 0.961 . S
C109 H117 0.960 . S
C110 C108 1.381 . S
C110 C111 1.394 . S
C110 H118 0.930 . S
C111 C110 1.394 . S
C111 C112 1.383 . S
C111 H119 0.929 . S
C112 C111 1.383 . S
C112 C113 1.377 1_455 S
C113 H97 0.930 . S
C113 C112 1.377 1_655 S
C113 C114 1.379 . S
C114 H98 0.931 . S
C114 C108 1.383 1_655 S
C114 C113 1.379 . S
H115 C109 0.959 . S
H116 C109 0.961 . S
H117 C109 0.960 . S
H118 C110 0.930 . S
H119 C111 0.929 . S
H120 C128 0.929 . S
H121 C130 0.930 . S
H122 C132 0.930 . S
H123 C135 0.929 . S
H124 C138 0.930 . S
H125 C140 0.960 . S
H126 C140 0.960 . S
H127 C140 0.960 . S
C128 H120 0.929 . S
C128 C129 1.391 . S
C128 C130 1.384 . S
C129 C128 1.391 . S
C129 C135 1.378 1_545 S
C130 H121 0.930 . S
C130 C128 1.384 . S
C130 C131 1.372 . S
C131 C130 1.372 . S
C131 C132 1.400 1_545 S
C131 C136 1.490 . S
C132 H122 0.930 . S
C132 C131 1.400 1_565 S
C132 C135 1.386 . S
H133 C149 0.930 . S
H134 C150 0.931 . S
C135 H123 0.929 . S
C135 C129 1.378 1_565 S
C135 C132 1.386 . S
C136 C131 1.490 . S
C136 C138 1.395 . S
C136 C139 1.403 1_545 S
H137 C143 0.930 . S
C138 H124 0.930 . S
C138 C136 1.395 . S
C138 C141 1.403 . S
C139 C136 1.403 1_565 S
C139 C140 1.524 . S
C139 C143 1.400 . S
C140 H125 0.960 . S
C140 H126 0.960 . S
C140 H127 0.960 . S
C140 C139 1.524 . S
C141 C138 1.403 . S
C141 C142 1.392 . S
C141 C145 1.495 . S
C142 C141 1.392 . S
C142 C143 1.385 1_545 S
C142 C144 1.478 . S
C143 H137 0.930 . S
C143 C139 1.400 . S
C143 C142 1.385 1_565 S
C144 C142 1.478 . S
C144 C146 1.381 . S
C144 C150 1.383 1_545 S
C145 C141 1.495 . S
C145 H151 0.959 . S
C145 H152 0.961 . S
C145 H153 0.960 . S
C146 C144 1.381 . S
C146 C147 1.394 . S
C146 H154 0.930 . S
C147 C146 1.394 . S
C147 C148 1.408 . S
C147 H155 0.929 . S
C148 C147 1.408 . S
C148 C149 1.349 1_545 S
C149 H133 0.930 . S
C149 C148 1.349 1_565 S
C149 C150 1.379 . S
C150 H134 0.931 . S
C150 C144 1.383 1_565 S
C150 C149 1.379 . S
H151 C145 0.959 . S
H152 C145 0.961 . S
H153 C145 0.960 . S
H154 C146 0.930 . S
H155 C147 0.929 . S
H156 C164 0.929 . S
H157 C166 0.930 . S
H158 C168 0.930 . S
H159 C171 0.929 . S
H160 C174 0.930 . S
H161 C176 0.960 . S
H162 C176 0.960 . S
H163 C176 0.960 . S
C164 H156 0.929 . S
C164 C165 1.377 . S
C164 C166 1.384 . S
C165 C164 1.377 . S
C165 C171 1.390 1_655 S
C166 H157 0.930 . S
C166 C164 1.384 . S
C166 C167 1.372 . S
C167 C166 1.372 . S
C167 C168 1.400 1_655 S
C167 C172 1.490 . S
C168 H158 0.930 . S
C168 C167 1.400 1_455 S
C168 C171 1.386 . S
H169 C185 0.930 . S
H170 C186 0.931 . S
C171 H159 0.929 . S
C171 C165 1.390 1_455 S
C171 C168 1.386 . S
C172 C167 1.490 . S
C172 C174 1.395 . S
C172 C175 1.403 1_655 S
H173 C179 0.930 . S
C174 H160 0.930 . S
C174 C172 1.395 . S
C174 C177 1.403 . S
C175 C172 1.403 1_455 S
C175 C176 1.524 . S
C175 C179 1.400 . S
C176 H161 0.960 . S
C176 H162 0.960 . S
C176 H163 0.960 . S
C176 C175 1.524 . S
C177 C174 1.403 . S
C177 C178 1.392 . S
C177 C181 1.495 . S
C178 C177 1.392 . S
C178 C179 1.385 1_655 S
C178 C180 1.478 . S
C179 H173 0.930 . S
C179 C175 1.400 . S
C179 C178 1.385 1_455 S
C180 C178 1.478 . S
C180 C182 1.381 . S
C180 C186 1.383 1_655 S
C181 C177 1.495 . S
C181 H187 0.959 . S
C181 H188 0.961 . S
C181 H189 0.960 . S
C182 C180 1.381 . S
C182 C183 1.394 . S
C182 H190 0.930 . S
C183 C182 1.394 . S
C183 C184 1.383 . S
C183 H191 0.929 . S
C184 C183 1.383 . S
C184 C185 1.377 1_655 S
C185 H169 0.930 . S
C185 C184 1.377 1_455 S
C185 C186 1.379 . S
C186 H170 0.931 . S
C186 C180 1.383 1_455 S
C186 C185 1.379 . S
H187 C181 0.959 . S
H188 C181 0.961 . S
H189 C181 0.960 . S
H190 C182 0.930 . S
H191 C183 0.929 . S
H192 C200 0.929 . S
H193 C202 0.932 . S
H194 C204 0.930 . S
H195 C207 0.929 . S
H196 C210 0.930 . S
H197 C212 0.960 . S
H198 C212 0.960 . S
H199 C212 0.960 . S
C200 H192 0.929 . S
C200 C201 1.376 . S
C200 C202 1.385 . S
C201 C200 1.376 . S
C201 C207 1.390 . S
C202 H193 0.932 . S
C202 C200 1.385 . S
C202 C203 1.372 . S
C203 C202 1.372 . S
C203 C204 1.397 . S
C203 C208 1.494 1_545 S
C204 H194 0.930 . S
C204 C203 1.397 . S
C204 C207 1.390 . S
H205 C221 0.930 . S
H206 C222 0.931 . S
C207 H195 0.929 . S
C207 C201 1.390 . S
C207 C204 1.390 . S
C208 C203 1.494 1_565 S
C208 C210 1.409 . S
C208 C211 1.387 1_565 S
H209 C215 0.930 . S
C210 H196 0.930 . S
C210 C208 1.409 . S
C210 C213 1.403 . S
C211 C208 1.387 1_545 S
C211 C212 1.524 . S
C211 C215 1.400 . S
C212 H197 0.960 . S
C212 H198 0.960 . S
C212 H199 0.960 . S
C212 C211 1.524 . S
C213 C210 1.403 . S
C213 C214 1.392 . S
C213 C217 1.495 . S
C214 C213 1.392 . S
C214 C215 1.385 1_565 S
C214 C216 1.478 . S
C215 H209 0.930 . S
C215 C211 1.400 . S
C215 C214 1.385 1_545 S
C216 C214 1.478 . S
C216 C218 1.381 . S
C216 C222 1.383 . S
C217 C213 1.495 . S
C217 H223 0.959 . S
C217 H224 0.961 . S
C217 H225 0.960 . S
C218 C216 1.381 . S
C218 C219 1.394 1_565 S
C218 H226 0.933 . S
C219 C218 1.394 1_545 S
C219 C220 1.383 1_545 S
C219 H227 0.930 . S
C220 C219 1.383 1_565 S
C220 C221 1.377 . S
C221 H205 0.930 . S
C221 C220 1.377 . S
C221 C222 1.379 . S
C222 H206 0.931 . S
C222 C216 1.383 . S
C222 C221 1.379 . S
H223 C217 0.959 . S
H224 C217 0.961 . S
H225 C217 0.960 . S
H226 C218 0.933 . S
H227 C219 0.930 . S
H228 C236 0.929 . S
H229 C238 0.930 . S
H230 C240 0.930 . S
H231 C243 0.929 . S
H232 C246 0.930 . S
H233 C248 0.960 . S
H234 C248 0.960 . S
H235 C248 0.960 . S
C236 H228 0.929 . S
C236 C237 1.384 . S
C236 C238 1.384 . S
C237 C236 1.384 . S
C237 C243 1.387 1_545 S
C238 H229 0.930 . S
C238 C236 1.384 . S
C238 C239 1.372 . S
C239 C238 1.372 . S
C239 C240 1.400 1_545 S
C239 C244 1.489 . S
C240 H230 0.930 . S
C240 C239 1.400 1_565 S
C240 C243 1.386 . S
H241 C257 0.930 . S
H242 C258 0.931 . S
C243 H231 0.929 . S
C243 C237 1.387 1_565 S
C243 C240 1.386 . S
C244 C239 1.489 . S
C244 C246 1.387 1_545 S
C244 C247 1.411 . S
H245 C251 0.930 . S
C246 H232 0.930 . S
C246 C244 1.387 1_565 S
C246 C249 1.403 . S
C247 C244 1.411 . S
C247 C248 1.524 . S
C247 C251 1.400 . S
C248 H233 0.960 . S
C248 H234 0.960 . S
C248 H235 0.960 . S
C248 C247 1.524 . S
C249 C246 1.403 . S
C249 C250 1.392 . S
C249 C253 1.495 . S
C250 C249 1.392 . S
C250 C251 1.385 1_565 S
C250 C252 1.478 . S
C251 H245 0.930 . S
C251 C247 1.400 . S
C251 C250 1.385 1_545 S
C252 C250 1.478 . S
C252 C254 1.381 1_565 S
C252 C258 1.383 . S
C253 C249 1.495 . S
C253 H259 0.959 . S
C253 H260 0.961 . S
C253 H261 0.960 . S
C254 C252 1.381 1_545 S
C254 C255 1.394 . S
C254 H262 0.930 . S
C255 C254 1.394 . S
C255 C256 1.383 1_545 S
C255 H263 0.929 . S
C256 C255 1.383 1_565 S
C256 C257 1.377 . S
C257 H241 0.930 . S
C257 C256 1.377 . S
C257 C258 1.379 . S
C258 H242 0.931 . S
C258 C252 1.383 . S
C258 C257 1.379 . S
H259 C253 0.959 . S
H260 C253 0.961 . S
H261 C253 0.960 . S
H262 C254 0.930 . S
H263 C255 0.929 . S
H264 C272 0.929 . S
H265 C274 0.930 . S
H266 C276 0.930 . S
H267 C279 0.929 . S
H268 C282 0.930 . S
H269 C284 0.960 . S
H270 C284 0.960 . S
H271 C284 0.960 . S
C272 H264 0.929 . S
C272 C273 1.389 . S
C272 C274 1.384 . S
C273 C272 1.389 . S
C273 C279 1.377 1_455 S
C274 H265 0.930 . S
C274 C272 1.384 . S
C274 C275 1.372 . S
C275 C274 1.372 . S
C275 C276 1.400 1_455 S
C275 C280 1.490 . S
C276 H266 0.930 . S
C276 C275 1.400 1_655 S
C276 C279 1.386 . S
H277 C293 0.930 . S
H278 C294 0.931 . S
C279 H267 0.929 . S
C279 C273 1.377 1_655 S
C279 C276 1.386 . S
C280 C275 1.490 . S
C280 C282 1.395 . S
C280 C283 1.403 1_455 S
H281 C287 0.930 . S
C282 H268 0.930 . S
C282 C280 1.395 . S
C282 C285 1.403 . S
C283 C280 1.403 1_655 S
C283 C284 1.524 . S
C283 C287 1.400 . S
C284 H269 0.960 . S
C284 H270 0.960 . S
C284 H271 0.960 . S
C284 C283 1.524 . S
C285 C282 1.403 . S
C285 C286 1.392 . S
C285 C289 1.495 . S
C286 C285 1.392 . S
C286 C287 1.385 1_455 S
C286 C288 1.478 . S
C287 H281 0.930 . S
C287 C283 1.400 . S
C287 C286 1.385 1_655 S
C288 C286 1.478 . S
C288 C290 1.381 . S
C288 C294 1.383 1_455 S
C289 C285 1.495 . S
C289 H295 0.959 . S
C289 H296 0.961 . S
C289 H297 0.960 . S
C290 C288 1.381 . S
C290 C291 1.394 . S
C290 H298 0.930 . S
C291 C290 1.394 . S
C291 C292 1.413 . S
C291 H299 0.929 . S
C292 C291 1.413 . S
C292 C293 1.353 1_455 S
C293 H277 0.930 . S
C293 C292 1.353 1_655 S
C293 C294 1.379 . S
C294 H278 0.931 . S
C294 C288 1.383 1_655 S
C294 C293 1.379 . S
H295 C289 0.959 . S
H296 C289 0.961 . S
H297 C289 0.960 . S
H298 C290 0.930 . S
H299 C291 0.929 . S
H300 C308 0.929 . S
H301 C310 0.930 . S
H302 C312 0.930 . S
H303 C315 0.929 . S
H304 C318 0.930 . S
H305 C320 0.960 . S
H306 C320 0.960 . S
H307 C320 0.960 . S
C308 H300 0.929 . S
C308 C309 1.381 . S
C308 C310 1.384 . S
C309 C308 1.381 . S
C309 C315 1.388 1_565 S
C310 H301 0.930 . S
C310 C308 1.384 . S
C310 C311 1.376 . S
C311 C310 1.376 . S
C311 C312 1.394 1_565 S
C311 C316 1.494 1_565 S
C312 H302 0.930 . S
C312 C311 1.394 1_545 S
C312 C315 1.386 . S
H313 C329 0.930 . S
H314 C330 0.931 . S
C315 H303 0.929 . S
C315 C309 1.388 1_545 S
C315 C312 1.386 . S
C316 C311 1.494 1_545 S
C316 C318 1.402 . S
C316 C319 1.394 1_545 S
H317 C323 0.930 . S
C318 H304 0.930 . S
C318 C316 1.402 . S
C318 C321 1.403 . S
C319 C316 1.394 1_565 S
C319 C320 1.524 . S
C319 C323 1.400 . S
C320 H305 0.960 . S
C320 H306 0.960 . S
C320 H307 0.960 . S
C320 C319 1.524 . S
C321 C318 1.403 . S
C321 C322 1.392 . S
C321 C325 1.495 . S
C322 C321 1.392 . S
C322 C323 1.385 1_545 S
C322 C324 1.478 . S
C323 H317 0.930 . S
C323 C319 1.400 . S
C323 C322 1.385 1_565 S
C324 C322 1.478 . S
C324 C326 1.381 1_545 S
C324 C330 1.383 . S
C325 C321 1.495 . S
C325 H331 0.959 . S
C325 H332 0.961 . S
C325 H333 0.960 . S
C326 C324 1.381 1_565 S
C326 C327 1.394 . S
C326 H334 0.930 . S
C327 C326 1.394 . S
C327 C328 1.383 1_565 S
C327 H335 0.929 . S
C328 C327 1.383 1_545 S
C328 C329 1.377 . S
C329 H313 0.930 . S
C329 C328 1.377 . S
C329 C330 1.379 . S
C330 H314 0.931 . S
C330 C324 1.383 . S
C330 C329 1.379 . S
H331 C325 0.959 . S
H332 C325 0.961 . S
H333 C325 0.960 . S
H334 C326 0.930 . S
H335 C327 0.929 . S
H336 C344 0.929 . S
H337 C346 0.930 . S
H338 C348 0.930 . S
H339 C351 0.929 . S
H340 C354 0.930 . S
H341 C356 0.960 . S
H342 C356 0.960 . S
H343 C356 0.960 . S
C344 H336 0.929 . S
C344 C345 1.382 . S
C344 C346 1.384 . S
C345 C344 1.382 . S
C345 C351 1.385 1_455 S
C346 H337 0.930 . S
C346 C344 1.384 . S
C346 C347 1.372 . S
C347 C346 1.372 . S
C347 C348 1.400 1_455 S
C347 C352 1.490 . S
C348 H338 0.930 . S
C348 C347 1.400 1_655 S
C348 C351 1.386 . S
H349 C365 0.930 . S
H350 C366 0.931 . S
C351 H339 0.929 . S
C351 C345 1.385 1_655 S
C351 C348 1.386 . S
C352 C347 1.490 . S
C352 C354 1.395 . S
C352 C355 1.403 1_455 S
H353 C359 0.930 . S
C354 H340 0.930 . S
C354 C352 1.395 . S
C354 C357 1.403 . S
C355 C352 1.403 1_655 S
C355 C356 1.524 . S
C355 C359 1.400 . S
C356 H341 0.960 . S
C356 H342 0.960 . S
C356 H343 0.960 . S
C356 C355 1.524 . S
C357 C354 1.403 . S
C357 C358 1.392 . S
C357 C361 1.495 . S
C358 C357 1.392 . S
C358 C359 1.385 1_455 S
C358 C360 1.478 . S
C359 H353 0.930 . S
C359 C355 1.400 . S
C359 C358 1.385 1_655 S
C360 C358 1.478 . S
C360 C362 1.381 . S
C360 C366 1.383 1_455 S
C361 C357 1.495 . S
C361 H367 0.959 . S
C361 H368 0.961 . S
C361 H369 0.960 . S
C362 C360 1.381 . S
C362 C363 1.394 . S
C362 H370 0.930 . S
C363 C362 1.394 . S
C363 C364 1.383 . S
C363 H371 0.929 . S
C364 C363 1.383 . S
C364 C365 1.377 1_455 S
C365 H349 0.930 . S
C365 C364 1.377 1_655 S
C365 C366 1.379 . S
C366 H350 0.931 . S
C366 C360 1.383 1_655 S
C366 C365 1.379 . S
H367 C361 0.959 . S
H368 C361 0.961 . S
H369 C361 0.960 . S
H370 C362 0.930 . S
H371 C363 0.929 . S
H372 C380 0.929 . S
H373 C382 0.930 . S
H374 C384 0.930 . S
H375 C387 0.929 . S
H376 C390 0.930 . S
H377 C392 0.960 . S
H378 C392 0.960 . S
H379 C392 0.960 . S
C380 H372 0.929 . S
C380 C381 1.379 1_554 S
C380 C382 1.384 . S
C381 C380 1.379 1_556 S
C381 C387 1.390 . S
C382 H373 0.930 . S
C382 C380 1.384 . S
C382 C383 1.372 1_554 S
C383 C382 1.372 1_556 S
C383 C384 1.399 . S
C383 C388 1.494 1_556 S
C384 H374 0.930 . S
C384 C383 1.399 . S
C384 C387 1.386 . S
H385 C401 0.930 . S
H386 C402 0.931 . S
C387 H375 0.929 . S
C387 C381 1.390 . S
C387 C384 1.386 . S
C388 C383 1.494 1_554 S
C388 C390 1.418 . S
C388 C391 1.377 1_554 S
H389 C395 0.930 . S
C390 H376 0.930 . S
C390 C388 1.418 . S
C390 C393 1.403 . S
C391 C388 1.377 1_556 S
C391 C392 1.524 . S
C391 C395 1.400 . S
C392 H377 0.960 . S
C392 H378 0.960 . S
C392 H379 0.960 . S
C392 C391 1.524 . S
C393 C390 1.403 . S
C393 C394 1.392 . S
C393 C397 1.495 . S
C394 C393 1.392 . S
C394 C395 1.385 1_554 S
C394 C396 1.478 . S
C395 H389 0.930 . S
C395 C391 1.400 . S
C395 C394 1.385 1_556 S
C396 C394 1.478 . S
C396 C398 1.381 . S
C396 C402 1.383 . S
C397 C393 1.495 . S
C397 H403 0.959 . S
C397 H404 0.961 . S
C397 H405 0.960 . S
C398 C396 1.381 . S
C398 C399 1.394 . S
C398 H406 0.930 . S
C399 C398 1.394 . S
C399 C400 1.383 . S
C399 H407 0.924 1_554 S
C400 C399 1.383 . S
C400 C401 1.377 . S
C401 H385 0.930 . S
C401 C400 1.377 . S
C401 C402 1.379 . S
C402 H386 0.931 . S
C402 C396 1.383 . S
C402 C401 1.379 . S
H403 C397 0.959 . S
H404 C397 0.961 . S
H405 C397 0.960 . S
H406 C398 0.930 . S
H407 C399 0.924 1_556 S
H408 C416 0.929 . S
H409 C418 0.930 . S
H410 C420 0.930 . S
H411 C423 0.929 . S
H412 C426 0.930 . S
H413 C428 0.960 . S
H414 C428 0.960 . S
H415 C428 0.960 . S
C416 H408 0.929 . S
C416 C417 1.376 . S
C416 C418 1.384 . S
C417 C416 1.376 . S
C417 C423 1.391 1_554 S
C418 H409 0.930 . S
C418 C416 1.384 . S
C418 C419 1.372 . S
C419 C418 1.372 . S
C419 C420 1.400 1_554 S
C419 C424 1.490 . S
C420 H410 0.930 . S
C420 C419 1.400 1_556 S
C420 C423 1.386 . S
H421 C437 0.930 . S
H422 C438 0.931 . S
C423 H411 0.929 . S
C423 C417 1.391 1_556 S
C423 C420 1.386 . S
C424 C419 1.490 . S
C424 C426 1.395 . S
C424 C427 1.403 1_554 S
H425 C431 0.930 . S
C426 H412 0.930 . S
C426 C424 1.395 . S
C426 C429 1.403 . S
C427 C424 1.403 1_556 S
C427 C428 1.524 . S
C427 C431 1.400 . S
C428 H413 0.960 . S
C428 H414 0.960 . S
C428 H415 0.960 . S
C428 C427 1.524 . S
C429 C426 1.403 . S
C429 C430 1.392 . S
C429 C433 1.495 . S
C430 C429 1.392 . S
C430 C431 1.385 1_554 S
C430 C432 1.478 . S
C431 H425 0.930 . S
C431 C427 1.400 . S
C431 C430 1.385 1_556 S
C432 C430 1.478 . S
C432 C434 1.381 . S
C432 C438 1.383 1_554 S
C433 C429 1.495 . S
C433 H439 0.959 . S
C433 H440 0.961 . S
C433 H441 0.960 . S
C434 C432 1.381 . S
C434 C435 1.394 . S
C434 H442 0.930 . S
C435 C434 1.394 . S
C435 C436 1.383 . S
C435 H443 0.929 . S
C436 C435 1.383 . S
C436 C437 1.377 1_554 S
C437 H421 0.930 . S
C437 C436 1.377 1_556 S
C437 C438 1.379 . S
C438 H422 0.931 . S
C438 C432 1.383 1_556 S
C438 C437 1.379 . S
H439 C433 0.959 . S
H440 C433 0.961 . S
H441 C433 0.960 . S
H442 C434 0.930 . S
H443 C435 0.929 . S
H444 C452 0.929 . S
H445 C454 0.930 . S
H446 C456 0.930 . S
H447 C459 0.929 . S
H448 C462 0.930 . S
H449 C464 0.960 . S
H450 C464 0.960 . S
H451 C464 0.960 . S
C452 H444 0.929 . S
C452 C453 1.382 . S
C452 C454 1.384 . S
C453 C452 1.382 . S
C453 C459 1.383 1_556 S
C454 H445 0.930 . S
C454 C452 1.384 . S
C454 C455 1.372 . S
C455 C454 1.372 . S
C455 C456 1.400 1_556 S
C455 C460 1.495 . S
C456 H446 0.930 . S
C456 C455 1.400 1_554 S
C456 C459 1.386 . S
H457 C473 0.930 . S
H458 C474 0.931 . S
C459 H447 0.929 . S
C459 C453 1.383 1_554 S
C459 C456 1.386 . S
C460 C455 1.495 . S
C460 C462 1.379 1_556 S
C460 C463 1.414 . S
H461 C467 0.930 . S
C462 H448 0.930 . S
C462 C460 1.379 1_554 S
C462 C465 1.403 . S
C463 C460 1.414 . S
C463 C464 1.524 . S
C463 C467 1.400 . S
C464 H449 0.960 . S
C464 H450 0.960 . S
C464 H451 0.960 . S
C464 C463 1.524 . S
C465 C462 1.403 . S
C465 C466 1.392 . S
C465 C469 1.495 . S
C466 C465 1.392 . S
C466 C467 1.385 1_554 S
C466 C468 1.478 . S
C467 H461 0.930 . S
C467 C463 1.400 . S
C467 C466 1.385 1_556 S
C468 C466 1.478 . S
C468 C470 1.381 1_554 S
C468 C474 1.383 . S
C469 C465 1.495 . S
C469 H475 0.959 . S
C469 H476 0.961 . S
C469 H477 0.960 . S
C470 C468 1.381 1_556 S
C470 C471 1.394 . S
C470 H478 0.930 . S
C471 C470 1.394 . S
C471 C472 1.383 1_556 S
C471 H479 0.929 . S
C472 C471 1.383 1_554 S
C472 C473 1.377 . S
C473 H457 0.930 . S
C473 C472 1.377 . S
C473 C474 1.379 . S
C474 H458 0.931 . S
C474 C468 1.383 . S
C474 C473 1.379 . S
H475 C469 0.959 . S
H476 C469 0.961 . S
H477 C469 0.960 . S
H478 C470 0.930 . S
H479 C471 0.929 . S
H480 C488 0.929 . S
H481 C490 0.930 . S
H482 C492 0.930 . S
H483 C495 0.929 . S
H484 C498 0.930 . S
H485 C500 0.960 . S
H486 C500 0.960 . S
H487 C500 0.960 . S
C488 H480 0.929 . S
C488 C489 1.383 . S
C488 C490 1.384 . S
C489 C488 1.383 . S
C489 C495 1.384 1_554 S
C490 H481 0.930 . S
C490 C488 1.384 . S
C490 C491 1.372 . S
C491 C490 1.372 . S
C491 C492 1.400 1_554 S
C491 C496 1.490 . S
C492 H482 0.930 . S
C492 C491 1.400 1_556 S
C492 C495 1.386 . S
H493 C509 0.930 . S
H494 C510 0.931 . S
C495 H483 0.929 . S
C495 C489 1.384 1_556 S
C495 C492 1.386 . S
C496 C491 1.490 . S
C496 C498 1.395 . S
C496 C499 1.403 1_554 S
H497 C503 0.930 . S
C498 H484 0.930 . S
C498 C496 1.395 . S
C498 C501 1.403 . S
C499 C496 1.403 1_556 S
C499 C500 1.524 . S
C499 C503 1.400 . S
C500 H485 0.960 . S
C500 H486 0.960 . S
C500 H487 0.960 . S
C500 C499 1.524 . S
C501 C498 1.403 . S
C501 C502 1.392 . S
C501 C505 1.495 . S
C502 C501 1.392 . S
C502 C503 1.385 1_554 S
C502 C504 1.478 . S
C503 H497 0.930 . S
C503 C499 1.400 . S
C503 C502 1.385 1_556 S
C504 C502 1.478 . S
C504 C506 1.381 . S
C504 C510 1.383 1_554 S
C505 C501 1.495 . S
C505 H511 0.959 . S
C505 H512 0.961 . S
C505 H513 0.960 . S
C506 C504 1.381 . S
C506 C507 1.394 . S
C506 H514 0.930 . S
C507 C506 1.394 . S
C507 C508 1.383 . S
C507 H515 0.929 . S
C508 C507 1.383 . S
C508 C509 1.377 1_554 S
C509 H493 0.930 . S
C509 C508 1.377 1_556 S
C509 C510 1.379 . S
C510 H494 0.931 . S
C510 C504 1.383 1_556 S
C510 C509 1.379 . S
H511 C505 0.959 . S
H512 C505 0.961 . S
H513 C505 0.960 . S
H514 C506 0.930 . S
H515 C507 0.929 . S
C93 C0 1.498 . S
C112 C57 1.490 1_455 S
C129 C13 1.496 1_545 S
C148 C70 1.506 1_545 S
C165 C56 1.499 1_655 S
C184 C1 1.495 . S
C201 C71 1.496 . S
C220 C12 1.495 1_565 S
C237 C83 1.496 1_545 S
C256 C26 1.495 1_565 S
C273 C40 1.500 . S
C292 C69 1.492 . S
C309 C82 1.496 1_565 S
C328 C27 1.502 1_545 S
C345 C68 1.500 1_455 S
C364 C41 1.502 1_455 S
C381 C28 1.498 1_556 S
C400 C55 1.494 1_554 S
C417 C43 1.500 . S
C436 C14 1.487 . S
C453 C29 1.500 . S
C472 C54 1.502 . S
C489 C42 1.500 1_554 S
C508 C15 1.502 1_554 S
