# Generated by pormake.
# Topology whz, (6)-cn, num edge types: 1
# Building blocks:
#     Node 0, Type 0, BuildingBlock: CUWYAW_clean_sbu_0, # of connection points: 6
#     Node 1, Type 0, BuildingBlock: CUWYAW_clean_sbu_0, # of connection points: 6
#     Node 2, Type 0, BuildingBlock: CUWYAW_clean_sbu_0, # of connection points: 6
#     Node 3, Type 0, BuildingBlock: CUWYAW_clean_sbu_0, # of connection points: 6
#     Node 4, Type 0, BuildingBlock: CUWYAW_clean_sbu_0, # of connection points: 6
#     Node 5, Type 0, BuildingBlock: CUWYAW_clean_sbu_0, # of connection points: 6
#     Node 6, Type 0, BuildingBlock: CUWYAW_clean_sbu_0, # of connection points: 6
#     Node 7, Type 0, BuildingBlock: CUWYAW_clean_sbu_0, # of connection points: 6
#     Node 8, Type 0, BuildingBlock: CUWYAW_clean_sbu_0, # of connection points: 6
#     Node 9, Type 0, BuildingBlock: CUWYAW_clean_sbu_0, # of connection points: 6
#     Node 10, Type 0, BuildingBlock: CUWYAW_clean_sbu_0, # of connection points: 6
#     Node 11, Type 0, BuildingBlock: CUWYAW_clean_sbu_0, # of connection points: 6
#     Node 12, Type 0, BuildingBlock: CUWYAW_clean_sbu_0, # of connection points: 6
#     Node 13, Type 0, BuildingBlock: CUWYAW_clean_sbu_0, # of connection points: 6
#     Node 14, Type 0, BuildingBlock: CUWYAW_clean_sbu_0, # of connection points: 6
#     Node 15, Type 0, BuildingBlock: CUWYAW_clean_sbu_0, # of connection points: 6
#     Edge 16, Type (0, 0), BuildingBlock: TEMPAE_clean_linker_10, # of connection points: 2
#     Edge 17, Type (0, 0), BuildingBlock: TEMPAE_clean_linker_10, # of connection points: 2
#     Edge 18, Type (0, 0), BuildingBlock: TEMPAE_clean_linker_10, # of connection points: 2
#     Edge 19, Type (0, 0), BuildingBlock: TEMPAE_clean_linker_10, # of connection points: 2
#     Edge 20, Type (0, 0), BuildingBlock: TEMPAE_clean_linker_10, # of connection points: 2
#     Edge 21, Type (0, 0), BuildingBlock: TEMPAE_clean_linker_10, # of connection points: 2
#     Edge 22, Type (0, 0), BuildingBlock: TEMPAE_clean_linker_10, # of connection points: 2
#     Edge 23, Type (0, 0), BuildingBlock: TEMPAE_clean_linker_10, # of connection points: 2
#     Edge 24, Type (0, 0), BuildingBlock: TEMPAE_clean_linker_10, # of connection points: 2
#     Edge 25, Type (0, 0), BuildingBlock: TEMPAE_clean_linker_10, # of connection points: 2
#     Edge 26, Type (0, 0), BuildingBlock: TEMPAE_clean_linker_10, # of connection points: 2
#     Edge 27, Type (0, 0), BuildingBlock: TEMPAE_clean_linker_10, # of connection points: 2
#     Edge 28, Type (0, 0), BuildingBlock: TEMPAE_clean_linker_10, # of connection points: 2
#     Edge 29, Type (0, 0), BuildingBlock: TEMPAE_clean_linker_10, # of connection points: 2
#     Edge 30, Type (0, 0), BuildingBlock: TEMPAE_clean_linker_10, # of connection points: 2
#     Edge 31, Type (0, 0), BuildingBlock: TEMPAE_clean_linker_10, # of connection points: 2
#     Edge 32, Type (0, 0), BuildingBlock: TEMPAE_clean_linker_10, # of connection points: 2
#     Edge 33, Type (0, 0), BuildingBlock: TEMPAE_clean_linker_10, # of connection points: 2
#     Edge 34, Type (0, 0), BuildingBlock: TEMPAE_clean_linker_10, # of connection points: 2
#     Edge 35, Type (0, 0), BuildingBlock: TEMPAE_clean_linker_10, # of connection points: 2
#     Edge 36, Type (0, 0), BuildingBlock: TEMPAE_clean_linker_10, # of connection points: 2
#     Edge 37, Type (0, 0), BuildingBlock: TEMPAE_clean_linker_10, # of connection points: 2
#     Edge 38, Type (0, 0), BuildingBlock: TEMPAE_clean_linker_10, # of connection points: 2
#     Edge 39, Type (0, 0), BuildingBlock: TEMPAE_clean_linker_10, # of connection points: 2
#     Edge 40, Type (0, 0), BuildingBlock: TEMPAE_clean_linker_10, # of connection points: 2
#     Edge 41, Type (0, 0), BuildingBlock: TEMPAE_clean_linker_10, # of connection points: 2
#     Edge 42, Type (0, 0), BuildingBlock: TEMPAE_clean_linker_10, # of connection points: 2
#     Edge 43, Type (0, 0), BuildingBlock: TEMPAE_clean_linker_10, # of connection points: 2
#     Edge 44, Type (0, 0), BuildingBlock: TEMPAE_clean_linker_10, # of connection points: 2
#     Edge 45, Type (0, 0), BuildingBlock: TEMPAE_clean_linker_10, # of connection points: 2
#     Edge 46, Type (0, 0), BuildingBlock: TEMPAE_clean_linker_10, # of connection points: 2
#     Edge 47, Type (0, 0), BuildingBlock: TEMPAE_clean_linker_10, # of connection points: 2
#     Edge 48, Type (0, 0), BuildingBlock: TEMPAE_clean_linker_10, # of connection points: 2
#     Edge 49, Type (0, 0), BuildingBlock: TEMPAE_clean_linker_10, # of connection points: 2
#     Edge 50, Type (0, 0), BuildingBlock: TEMPAE_clean_linker_10, # of connection points: 2
#     Edge 51, Type (0, 0), BuildingBlock: TEMPAE_clean_linker_10, # of connection points: 2
#     Edge 52, Type (0, 0), BuildingBlock: TEMPAE_clean_linker_10, # of connection points: 2
#     Edge 53, Type (0, 0), BuildingBlock: TEMPAE_clean_linker_10, # of connection points: 2
#     Edge 54, Type (0, 0), BuildingBlock: TEMPAE_clean_linker_10, # of connection points: 2
#     Edge 55, Type (0, 0), BuildingBlock: TEMPAE_clean_linker_10, # of connection points: 2
#     Edge 56, Type (0, 0), BuildingBlock: TEMPAE_clean_linker_10, # of connection points: 2
#     Edge 57, Type (0, 0), BuildingBlock: TEMPAE_clean_linker_10, # of connection points: 2
#     Edge 58, Type (0, 0), BuildingBlock: TEMPAE_clean_linker_10, # of connection points: 2
#     Edge 59, Type (0, 0), BuildingBlock: TEMPAE_clean_linker_10, # of connection points: 2
#     Edge 60, Type (0, 0), BuildingBlock: TEMPAE_clean_linker_10, # of connection points: 2
#     Edge 61, Type (0, 0), BuildingBlock: TEMPAE_clean_linker_10, # of connection points: 2
#     Edge 62, Type (0, 0), BuildingBlock: TEMPAE_clean_linker_10, # of connection points: 2
#     Edge 63, Type (0, 0), BuildingBlock: TEMPAE_clean_linker_10, # of connection points: 2
# Relax obj value: 0.727
# Max RMSD: 0.311
# Mean RMSD: 0.311
data_MOF--net-whz--node1-CUWYAW_clean_sbu_0--edge1-TEMPAE_clean_linker_10
_symmetry_space_group_name_H-M    P1
_symmetry_Int_Tables_number       1
_symmetry_cell_setting            triclinic
loop_
_symmetry_equiv_pos_as_xyz
'x, y, z'
_cell_length_a     35.766566
_cell_length_b     35.819687
_cell_length_c     73.208482
_cell_angle_alpha  89.931381
_cell_angle_beta   89.917844
_cell_angle_gamma 89.806645
loop_
_atom_site_label
_atom_site_type_symbol
_atom_site_fract_x
_atom_site_fract_y
_atom_site_fract_z
_atom_type_partial_charge
C0 C 0.303 0.16057 0.10389 0.0
Eu1 Eu 0.31917 0.17522 0.13826 0.0
C2 C 0.29131 0.15464 0.08422 0.0
C3 C 0.30904 0.12857 0.07265 0.0
C4 C 0.29795 0.12444 0.05416 0.0
C5 C 0.26859 0.14611 0.0466 0.0
C6 C 0.25101 0.17209 0.05829 0.0
C7 C 0.26212 0.17627 0.07664 0.0
C8 C 0.34646 0.13344 0.1677 0.0
C9 C 0.24547 0.15327 0.16384 0.0
C10 C 0.32491 0.23987 0.20556 0.0
Eu11 Eu 0.31069 0.20915 0.17457 0.0
C12 C 0.34066 0.27733 0.20765 0.0
C13 C 0.34049 0.30198 0.19269 0.0
C14 C 0.34782 0.33989 0.19522 0.0
C15 C 0.35523 0.3537 0.2128 0.0
C16 C 0.36081 0.32759 0.22712 0.0
C17 C 0.35296 0.28981 0.22461 0.0
C18 C 0.27622 0.25038 0.14869 0.0
C19 C 0.38828 0.22503 0.15026 0.0
O20 O 0.287 0.18654 0.11371 0.0
O21 O 0.32842 0.14137 0.11287 0.0
O22 O 0.36311 0.13464 0.1518 0.0
O23 O 0.31693 0.15172 0.16637 0.0
O24 O 0.26027 0.15572 0.1472 0.0
O25 O 0.26345 0.16759 0.17799 0.0
O26 O 0.34727 0.21508 0.19822 0.0
O27 O 0.29134 0.23943 0.19849 0.0
O28 O 0.26244 0.2422 0.16448 0.0
O29 O 0.30852 0.23542 0.14687 0.0
O30 O 0.3702 0.22677 0.16605 0.0
O31 O 0.37298 0.20816 0.13612 0.0
H32 H 0.33161 0.11138 0.07784 0.0
H33 H 0.31216 0.1038 0.04587 0.0
H34 H 0.22882 0.1899 0.05321 0.0
H35 H 0.24773 0.19686 0.08491 0.0
H36 H 0.33204 0.29239 0.17929 0.0
H37 H 0.34452 0.35867 0.18372 0.0
H38 H 0.36679 0.33651 0.24092 0.0
H39 H 0.35401 0.27096 0.23619 0.0
C40 C 0.64646 0.55814 0.35365 0.0
Eu41 Eu 0.62674 0.57186 0.38777 0.0
C42 C 0.65467 0.54918 0.33377 0.0
C43 C 0.69093 0.5514 0.32624 0.0
C44 C 0.69831 0.53978 0.30804 0.0
C45 C 0.66963 0.52586 0.29662 0.0
C46 C 0.63334 0.52429 0.30418 0.0
C47 C 0.62609 0.53551 0.32233 0.0
C48 C 0.66228 0.59764 0.41917 0.0
C49 C 0.6448 0.49548 0.41225 0.0
C50 C 0.54737 0.55487 0.45246 0.0
Eu51 Eu 0.58582 0.55923 0.42255 0.0
C52 C 0.52869 0.52302 0.46106 0.0
C53 C 0.51342 0.49415 0.45041 0.0
C54 C 0.49735 0.463 0.45876 0.0
C55 C 0.49597 0.46044 0.47784 0.0
C56 C 0.51157 0.48941 0.4884 0.0
C57 C 0.52766 0.52043 0.48007 0.0
C58 C 0.55384 0.52402 0.39393 0.0
C59 C 0.58019 0.64186 0.4023 0.0
O60 O 0.61514 0.54745 0.36116 0.0
O61 O 0.66756 0.57794 0.36465 0.0
O62 O 0.66479 0.61452 0.40334 0.0
O63 O 0.64438 0.56815 0.41682 0.0
O64 O 0.64708 0.51311 0.39629 0.0
O65 O 0.62505 0.50993 0.42582 0.0
O66 O 0.53313 0.5658 0.43692 0.0
O67 O 0.58394 0.55363 0.45224 0.0
O68 O 0.56255 0.50861 0.40925 0.0
O69 O 0.56596 0.55752 0.39369 0.0
O70 O 0.57876 0.62251 0.41779 0.0
O71 O 0.59485 0.62687 0.38736 0.0
H72 H 0.71384 0.56143 0.33452 0.0
H73 H 0.72662 0.5419 0.30291 0.0
H74 H 0.61036 0.51341 0.29621 0.0
H75 H 0.59781 0.53297 0.32748 0.0
H76 H 0.5141 0.49549 0.43564 0.0
H77 H 0.48605 0.44098 0.45034 0.0
H78 H 0.51212 0.4878 0.50317 0.0
H79 H 0.53979 0.54212 0.48847 0.0
C80 C 0.24577 0.89339 0.60412 0.0
Eu81 Eu 0.23022 0.87827 0.63863 0.0
C82 C 0.2545 0.89973 0.58406 0.0
C83 C 0.26519 0.93493 0.57722 0.0
C84 C 0.27648 0.93961 0.55878 0.0
C85 C 0.27722 0.90932 0.54632 0.0
C86 C 0.26567 0.8743 0.55323 0.0
C87 C 0.25485 0.8696 0.57167 0.0
C88 C 0.20217 0.92025 0.66767 0.0
C89 C 0.30371 0.89783 0.66465 0.0
C90 C 0.22146 0.81507 0.7065 0.0
Eu91 Eu 0.23711 0.84477 0.67538 0.0
C92 C 0.20535 0.7778 0.70881 0.0
C93 C 0.20485 0.75311 0.69389 0.0
C94 C 0.19736 0.71526 0.69655 0.0
C95 C 0.19054 0.70151 0.71423 0.0
C96 C 0.1858 0.72766 0.72859 0.0
C97 C 0.19372 0.7654 0.72592 0.0
C98 C 0.27326 0.8034 0.65015 0.0
C99 C 0.15884 0.83166 0.6512 0.0
O100 O 0.24658 0.85994 0.61125 0.0
O101 O 0.2351 0.91927 0.61571 0.0
O102 O 0.18544 0.91832 0.65181 0.0
O103 O 0.23175 0.902 0.6666 0.0
O104 O 0.29043 0.89324 0.64779 0.0
O105 O 0.28395 0.88621 0.67883 0.0
O106 O 0.19958 0.83981 0.69878 0.0
O107 O 0.25528 0.81499 0.69967 0.0
O108 O 0.28583 0.81146 0.66617 0.0
O109 O 0.24107 0.81832 0.6478 0.0
O110 O 0.17812 0.82705 0.66647 0.0
O111 O 0.17333 0.85034 0.63732 0.0
H112 H 0.26586 0.9588 0.58628 0.0
H113 H 0.28559 0.96702 0.55448 0.0
H114 H 0.26473 0.85013 0.54441 0.0
H115 H 0.24687 0.84199 0.57625 0.0
H116 H 0.21294 0.76259 0.6804 0.0
H117 H 0.20006 0.69645 0.68506 0.0
H118 H 0.18037 0.71878 0.74247 0.0
H119 H 0.1933 0.78426 0.73748 0.0
C120 C 0.91255 0.4979 0.85418 0.0
Eu121 Eu 0.92631 0.48172 0.88871 0.0
C122 C 0.90659 0.50903 0.83439 0.0
C123 C 0.87988 0.49162 0.82313 0.0
C124 C 0.87529 0.5023 0.8046 0.0
C125 C 0.89715 0.53093 0.79661 0.0
C126 C 0.92383 0.54817 0.80801 0.0
C127 C 0.92839 0.53752 0.82643 0.0
C128 C 0.88073 0.45429 0.91678 0.0
C129 C 0.90278 0.55452 0.91438 0.0
C130 C 0.97355 0.4732 0.96026 0.0
Eu131 Eu 0.95623 0.48708 0.92639 0.0
C132 C 0.95641 0.47578 0.97852 0.0
C133 C 0.96983 0.50212 0.991 0.0
C134 C 0.95425 0.50462 1.00841 0.0
C135 C 0.9251 0.48065 1.0137 0.0
C136 C 0.91187 0.4542 1.00132 0.0
C137 C 0.92751 0.45153 0.98388 0.0
C138 C 1.00116 0.52205 0.90204 0.0
C139 C 0.97251 0.41066 0.90198 0.0
O140 O 0.93694 0.51525 0.86436 0.0
O141 O 0.89486 0.47111 0.86284 0.0
O142 O 0.88363 0.43822 0.90083 0.0
O143 O 0.8998 0.48328 0.91621 0.0
O144 O 0.90758 0.54105 0.8976 0.0
O145 O 0.91459 0.53494 0.92863 0.0
O146 O 0.98189 0.50454 0.95204 0.0
O147 O 0.95955 0.44844 0.94914 0.0
O148 O 0.9938 0.53354 0.91835 0.0
O149 O 0.98551 0.49054 0.8992 0.0
O150 O 0.96894 0.42619 0.9183 0.0
O151 O 0.96226 0.42918 0.88717 0.0
H152 H 0.86243 0.46965 0.82862 0.0
H153 H 0.8541 0.48833 0.79661 0.0
H154 H 0.94197 0.5697 0.80265 0.0
H155 H 0.94945 0.55165 0.83445 0.0
H156 H 0.99233 0.52084 0.98729 0.0
H157 H 0.96474 0.52566 1.01768 0.0
H158 H 0.8895 0.43577 1.00523 0.0
H159 H 0.91682 0.43069 0.97458 0.0
C160 C 0.72551 0.81117 0.86263 0.0
Eu161 Eu 0.73799 0.84305 0.89351 0.0
C162 C 0.71044 0.77337 0.86071 0.0
C163 C 0.71245 0.74846 0.87554 0.0
C164 C 0.70489 0.71059 0.87308 0.0
C165 C 0.69526 0.69708 0.8557 0.0
C166 C 0.6878 0.72343 0.84169 0.0
C167 C 0.69599 0.76117 0.84411 0.0
C168 C 0.77223 0.80222 0.91964 0.0
C169 C 0.65889 0.82809 0.9168 0.0
C170 C 0.74254 0.89332 0.9639 0.0
Eu171 Eu 0.72788 0.87755 0.92941 0.0
C172 C 0.7532 0.89969 0.98373 0.0
C173 C 0.73721 0.92818 0.99454 0.0
C174 C 0.74753 0.93292 1.01312 0.0
C175 C 0.77442 0.9095 1.02161 0.0
C176 C 0.7902 0.88105 1.01066 0.0
C177 C 0.77988 0.87631 0.99222 0.0
C178 C 0.70131 0.91846 0.89935 0.0
C179 C 0.80212 0.90007 0.90446 0.0
O180 O 0.70247 0.83581 0.86956 0.0
O181 O 0.75882 0.81252 0.86996 0.0
O182 O 0.78645 0.81102 0.90403 0.0
O183 O 0.7397 0.81692 0.92132 0.0
O184 O 0.67803 0.82566 0.90133 0.0
O185 O 0.67345 0.84531 0.93104 0.0
O186 O 0.75799 0.86623 0.95461 0.0
O187 O 0.71833 0.91287 0.95433 0.0
O188 O 0.68415 0.91759 0.91514 0.0
O189 O 0.73095 0.90058 0.90121 0.0
O190 O 0.78704 0.89747 0.92103 0.0
O191 O 0.7846 0.88539 0.89027 0.0
H192 H 0.72232 0.75788 0.88873 0.0
H193 H 0.7096 0.69161 0.88437 0.0
H194 H 0.67998 0.71473 0.82808 0.0
H195 H 0.6933 0.78026 0.83269 0.0
H196 H 0.71664 0.94687 0.98865 0.0
H197 H 0.73468 0.95543 1.02074 0.0
H198 H 0.81028 0.86166 1.0164 0.0
H199 H 0.79289 0.85385 0.9846 0.0
C200 C 0.47541 0.47765 0.60799 0.0
Eu201 Eu 0.45557 0.48982 0.64148 0.0
C202 C 0.48629 0.44324 0.59848 0.0
C203 C 0.51053 0.4453 0.5836 0.0
C204 C 0.51818 0.4135 0.57332 0.0
C205 C 0.50139 0.37886 0.57762 0.0
C206 C 0.47934 0.37642 0.59345 0.0
C207 C 0.4719 0.40838 0.60381 0.0
C208 C 0.49595 0.52912 0.66586 0.0
C209 C 0.47164 0.41022 0.66371 0.0
C210 C 0.40887 0.48508 0.71409 0.0
Eu211 Eu 0.42532 0.48019 0.67882 0.0
C212 C 0.40186 0.50393 0.73233 0.0
C213 C 0.3724 0.49165 0.74363 0.0
C214 C 0.36853 0.5043 0.76183 0.0
C215 C 0.39389 0.53 0.76957 0.0
C216 C 0.42275 0.5432 0.75801 0.0
C217 C 0.4268 0.53025 0.73982 0.0
C218 C 0.3836 0.45059 0.65011 0.0
C219 C 0.4027 0.55564 0.65522 0.0
O220 O 0.44047 0.47949 0.61323 0.0
O221 O 0.49874 0.48961 0.62039 0.0
O222 O 0.48545 0.54109 0.64995 0.0
O223 O 0.48357 0.49605 0.66872 0.0
O224 O 0.47224 0.42928 0.64822 0.0
O225 O 0.45633 0.42479 0.6785 0.0
O226 O 0.44275 0.48463 0.70736 0.0
O227 O 0.38332 0.48321 0.7013 0.0
O228 O 0.38925 0.43278 0.66541 0.0
O229 O 0.39923 0.48143 0.65136 0.0
O230 O 0.40748 0.5407 0.67174 0.0
O231 O 0.41582 0.53863 0.64052 0.0
H232 H 0.52225 0.47184 0.57943 0.0
H233 H 0.53487 0.41709 0.5611 0.0
H234 H 0.46636 0.3503 0.5973 0.0
H235 H 0.4537 0.40609 0.61555 0.0
H236 H 0.35282 0.47114 0.73854 0.0
H237 H 0.34551 0.49366 0.7699 0.0
H238 H 0.44324 0.56264 0.7632 0.0
H239 H 0.45019 0.54014 0.73177 0.0
C240 C 0.84003 0.21964 0.35556 0.0
Eu241 Eu 0.82079 0.2081 0.38931 0.0
C242 C 0.83621 0.19998 0.3382 0.0
C243 C 0.80928 0.17204 0.33599 0.0
C244 C 0.80695 0.15261 0.31951 0.0
C245 C 0.83197 0.16031 0.30522 0.0
C246 C 0.85887 0.18844 0.30755 0.0
C247 C 0.86106 0.208 0.32397 0.0
C248 C 0.78123 0.25196 0.41203 0.0
C249 C 0.89557 0.22389 0.41538 0.0
C250 C 0.80499 0.16452 0.46195 0.0
Eu251 Eu 0.82258 0.17791 0.4275 0.0
C252 C 0.79527 0.15746 0.48182 0.0
C253 C 0.77208 0.12749 0.48704 0.0
C254 C 0.75971 0.12323 0.50531 0.0
C255 C 0.77052 0.14841 0.51918 0.0
C256 C 0.79449 0.17787 0.51399 0.0
C257 C 0.80626 0.18252 0.49566 0.0
C258 C 0.85131 0.13228 0.39997 0.0
C259 C 0.7505 0.15982 0.40096 0.0
O260 O 0.80936 0.2333 0.3628 0.0
O261 O 0.86159 0.20298 0.36749 0.0
O262 O 0.77303 0.2457 0.39507 0.0
O263 O 0.81241 0.23653 0.41631 0.0
O264 O 0.87724 0.22946 0.39988 0.0
O265 O 0.88041 0.20425 0.42881 0.0
O266 O 0.8137 0.1976 0.45571 0.0
O267 O 0.80765 0.13815 0.44961 0.0
O268 O 0.86665 0.13468 0.41612 0.0
O269 O 0.82268 0.15208 0.40015 0.0
O270 O 0.762 0.16685 0.41789 0.0
O271 O 0.77236 0.16801 0.38693 0.0
H272 H 0.78992 0.16549 0.34692 0.0
H273 H 0.78479 0.13244 0.3177 0.0
H274 H 0.87826 0.19524 0.29667 0.0
H275 H 0.88225 0.22929 0.32558 0.0
H276 H 0.76258 0.10778 0.47686 0.0
H277 H 0.74163 0.09997 0.50859 0.0
H278 H 0.80339 0.19811 0.52404 0.0
H279 H 0.82377 0.20616 0.49228 0.0
C280 C 0.06389 0.57915 0.11065 0.0
Eu281 Eu 0.09309 0.56403 0.142 0.0
C282 C 0.02593 0.59367 0.10826 0.0
C283 C 1.00141 0.59424 0.12328 0.0
C284 C 0.96322 0.60042 0.12071 0.0
C285 C 0.94902 0.60599 0.10303 0.0
C286 C 0.97484 0.61064 0.08848 0.0
C287 C 1.01291 0.60393 0.09106 0.0
C288 C 0.04784 0.52846 0.16621 0.0
C289 C 0.07656 0.64104 0.16564 0.0
C290 C 0.13803 0.55501 0.21277 0.0
Eu291 Eu 0.12243 0.57039 0.17828 0.0
C292 C 0.14451 0.54414 0.23259 0.0
C293 C 0.17277 0.56026 0.24342 0.0
C294 C 0.17773 0.54977 0.26197 0.0
C295 C 0.15468 0.52267 0.27045 0.0
C296 C 0.12645 0.50674 0.25948 0.0
C297 C 0.12156 0.51717 0.24104 0.0
C298 C 0.16745 0.59848 0.14993 0.0
C299 C 0.14686 0.49769 0.15277 0.0
O300 O 0.08704 0.60178 0.11878 0.0
O301 O 0.0654 0.54526 0.11725 0.0
O302 O 0.05845 0.5156 0.15063 0.0
O303 O 0.06249 0.56051 0.1689 0.0
O304 O 0.08191 0.62568 0.14943 0.0
O305 O 0.0856 0.6221 0.18045 0.0
O306 O 0.11306 0.53768 0.20297 0.0
O307 O 0.15555 0.58136 0.20372 0.0
O308 O 0.16174 0.61619 0.16527 0.0
O309 O 0.15038 0.56845 0.15097 0.0
O310 O 0.14103 0.51081 0.16954 0.0
O311 O 0.13584 0.51778 0.13858 0.0
H312 H 1.01146 0.58731 0.13683 0.0
H313 H 0.94463 0.59777 0.13232 0.0
H314 H 0.96561 0.61505 0.07458 0.0
H315 H 0.03163 0.60428 0.07941 0.0
H316 H 0.19118 0.58101 0.23755 0.0
H317 H 0.20017 0.56263 0.26958 0.0
H318 H 0.10735 0.48647 0.26519 0.0
H319 H 0.09928 0.50407 0.23339 0.0
C320 C 0.81476 0.65897 0.6034 0.0
Eu321 Eu 0.82118 0.67649 0.63844 0.0
C322 C 0.79392 0.65304 0.58564 0.0
C323 C 0.80041 0.62047 0.57532 0.0
C324 C 0.78603 0.61642 0.55746 0.0
C325 C 0.76449 0.64484 0.5491 0.0
C326 C 0.75712 0.67708 0.55968 0.0
C327 C 0.77172 0.6812 0.57754 0.0
C328 C 0.84859 0.63324 0.66723 0.0
C329 C 0.746 0.65724 0.6623 0.0
C330 C 0.82662 0.72305 0.70952 0.0
Eu331 Eu 0.8133 0.70805 0.67545 0.0
C332 C 0.82199 0.70448 0.72713 0.0
C333 C 0.79712 0.67461 0.7292 0.0
C334 C 0.79387 0.65664 0.74606 0.0
C335 C 0.81594 0.66783 0.76093 0.0
C336 C 0.84115 0.69754 0.75863 0.0
C337 C 0.84418 0.71565 0.74184 0.0
C338 C 0.77684 0.75096 0.65093 0.0
C339 C 0.89156 0.72435 0.65207 0.0
O340 O 0.81865 0.6929 0.60967 0.0
O341 O 0.81439 0.63409 0.61653 0.0
O342 O 0.86632 0.63722 0.65177 0.0
O343 O 0.81872 0.65103 0.66609 0.0
O344 O 0.7595 0.66393 0.64567 0.0
O345 O 0.76592 0.66645 0.67682 0.0
O346 O 0.79612 0.73377 0.70109 0.0
O347 O 0.85097 0.70729 0.69864 0.0
O348 O 0.76546 0.74377 0.66735 0.0
O349 O 0.80885 0.7359 0.64803 0.0
O350 O 0.87126 0.72991 0.66698 0.0
O351 O 0.8782 0.70431 0.63844 0.0
H352 H 0.81768 0.59833 0.58089 0.0
H353 H 0.79206 0.59084 0.55015 0.0
H354 H 0.74105 0.6999 0.55394 0.0
H355 H 0.7664 0.70698 0.58482 0.0
H356 H 0.77999 0.6655 0.71786 0.0
H357 H 0.77318 0.63488 0.74765 0.0
H358 H 0.85853 0.70681 0.76984 0.0
H359 H 0.8639 0.73834 0.74032 0.0
C360 C 0.13672 0.05512 0.85432 0.0
Eu361 Eu 0.12286 0.07142 0.88878 0.0
C362 C 0.14232 0.04358 0.83461 0.0
C363 C 0.16857 0.06094 0.82302 0.0
C364 C 0.17274 0.04977 0.80456 0.0
C365 C 0.15085 0.02077 0.797 0.0
C366 C 0.12458 1.00365 0.80869 0.0
C367 C 0.12043 1.01479 0.82704 0.0
C368 C 0.16847 0.09729 0.91708 0.0
C369 C 0.14444 0.99736 0.91432 0.0
C370 C 0.06314 0.08056 0.95689 0.0
Eu371 Eu 0.09252 0.0652 0.9256 0.0
C372 C 0.02564 0.09644 0.9592 0.0
C373 C 1.00099 0.09706 0.94426 0.0
C374 C 0.96309 0.10495 0.94686 0.0
C375 C 0.9493 0.11228 0.96448 0.0
C376 C 0.97542 0.11666 0.97887 0.0
C377 C 1.01317 0.10824 0.97628 0.0
C378 C 0.04766 0.03174 0.90083 0.0
C379 C 0.07795 0.14265 0.90186 0.0
O380 O 0.11266 0.03763 0.86465 0.0
O381 O 0.15441 0.08208 0.86282 0.0
O382 O 0.16505 0.11464 0.90146 0.0
O383 O 0.14958 0.06832 0.91619 0.0
O384 O 0.14016 1.01154 0.89762 0.0
O385 O 0.13303 0.01683 0.92866 0.0
O386 O 0.08746 0.10249 0.94905 0.0
O387 O 0.06354 0.04682 0.95012 0.0
O388 O 0.05668 0.01828 0.91653 0.0
O389 O 0.06311 0.06347 0.89851 0.0
O390 O 0.08261 0.127 0.91808 0.0
O391 O 0.08703 0.12388 0.887 0.0
H392 H 0.18598 0.08319 0.82823 0.0
H393 H 0.19363 0.06361 0.79628 0.0
H394 H 0.10655 0.98179 0.80361 0.0
H395 H 0.09967 1.00073 0.83532 0.0
H396 H 1.01059 0.08895 0.93079 0.0
H397 H 0.94429 0.10238 0.93535 0.0
H398 H 0.96644 0.12237 0.99271 0.0
H399 H 0.03202 0.1086 0.98785 0.0
C400 C 0.72627 0.39619 0.10065 0.0
Eu401 Eu 0.73058 0.3784 0.13576 0.0
C402 C 0.74461 0.39967 0.08208 0.0
C403 C 0.73774 0.43149 0.07127 0.0
C404 C 0.7501 0.43368 0.05296 0.0
C405 C 0.77015 0.40416 0.0446 0.0
C406 C 0.77758 0.37247 0.05563 0.0
C407 C 0.76495 0.37021 0.07395 0.0
C408 C 0.71021 0.41943 0.16664 0.0
C409 C 0.8023 0.39354 0.15917 0.0
C410 C 0.74357 0.29926 0.1989 0.0
Eu411 Eu 0.73475 0.337 0.16914 0.0
C412 C 0.73492 0.25954 0.20177 0.0
C413 C 0.74216 0.23305 0.18802 0.0
C414 C 0.73539 0.19518 0.19104 0.0
C415 C 0.72222 0.1828 0.20809 0.0
C416 C 0.71168 0.21012 0.22113 0.0
C417 C 0.71814 0.24797 0.218 0.0
C418 C 0.75467 0.29385 0.14012 0.0
C419 C 0.65549 0.33099 0.14958 0.0
O420 O 0.72043 0.36281 0.1073 0.0
O421 O 0.73319 0.42052 0.11355 0.0
O422 O 0.72833 0.43322 0.15276 0.0
O423 O 0.70151 0.38643 0.1628 0.0
O424 O 0.79145 0.38841 0.14215 0.0
O425 O 0.7809 0.38113 0.17268 0.0
O426 O 0.71479 0.32117 0.19629 0.0
O427 O 0.77104 0.30613 0.18761 0.0
O428 O 0.72734 0.28708 0.15107 0.0
O429 O 0.76538 0.32719 0.14285 0.0
O430 O 0.67376 0.32464 0.16487 0.0
O431 O 0.67187 0.35008 0.13615 0.0
H432 H 0.72184 0.45459 0.07687 0.0
H433 H 0.74385 0.4589 0.04541 0.0
H434 H 0.7922 0.34862 0.05 0.0
H435 H 0.77041 0.34491 0.08163 0.0
H436 H 0.75436 0.24135 0.17514 0.0
H437 H 0.74254 0.17553 0.18037 0.0
H438 H 0.70149 0.20251 0.23454 0.0
H439 H 0.71142 0.26803 0.22859 0.0
C440 C 0.4172 0.99869 0.35462 0.0
Eu441 Eu 0.43229 0.98254 0.38901 0.0
C442 C 0.41093 1.01012 0.33489 0.0
C443 C 0.38378 0.99323 0.32368 0.0
C444 C 0.3788 1.00445 0.30524 0.0
C445 C 0.40077 0.03305 0.29729 0.0
C446 C 0.42801 0.04964 0.30859 0.0
C447 C 0.43292 0.03848 0.32692 0.0
C448 C 0.39202 0.95488 0.41874 0.0
C449 C 0.41256 0.05647 0.41481 0.0
C450 C 0.503 0.98145 0.45665 0.0
Eu451 Eu 0.47013 0.99106 0.42532 0.0
C452 C 0.50222 0.9522 0.47062 0.0
C453 C 0.51784 0.95973 0.48762 0.0
C454 C 0.51355 0.9345 0.5019 0.0
C455 C 0.49344 0.90094 0.49951 0.0
C456 C 0.4793 0.89265 0.48208 0.0
C457 C 0.48379 0.9181 0.46769 0.0
C458 C 0.5062 0.02756 0.39812 0.0
C459 C 0.47626 0.911 0.40336 0.0
O460 O 0.44124 0.01656 0.36475 0.0
O461 O 0.40026 0.97139 0.36329 0.0
O462 O 0.38845 0.94185 0.40215 0.0
O463 O 0.41226 0.98321 0.4178 0.0
O464 O 0.4114 0.04022 0.39849 0.0
O465 O 0.43083 0.04062 0.42856 0.0
O466 O 0.47216 1.00065 0.45472 0.0
O467 O 0.51826 0.97237 0.44107 0.0
O468 O 0.49932 0.0408 0.41415 0.0
O469 O 0.49262 0.99474 0.39684 0.0
O470 O 0.47365 0.92811 0.41937 0.0
O471 O 0.4658 0.92845 0.38824 0.0
H472 H 0.36622 0.97134 0.32917 0.0
H473 H 0.35719 0.99099 0.29732 0.0
H474 H 0.44619 0.07113 0.30323 0.0
H475 H 0.45437 0.05218 0.33488 0.0
H476 H 0.53197 0.98595 0.49011 0.0
H477 H 0.52398 0.94285 0.51515 0.0
H478 H 0.46362 0.86732 0.47972 0.0
H479 H 0.47152 0.91186 0.45456 0.0
C480 C 0.21973 0.33011 0.35593 0.0
Eu481 Eu 0.23858 0.3439 0.38949 0.0
C482 C 0.22348 0.34857 0.33824 0.0
C483 C 0.24884 0.37789 0.33581 0.0
C484 C 0.25148 0.39578 0.31892 0.0
C485 C 0.22834 0.38507 0.30437 0.0
C486 C 0.20276 0.35579 0.30698 0.0
C487 C 0.20027 0.33778 0.32383 0.0
C488 C 0.27765 0.30086 0.41285 0.0
C489 C 0.16357 0.32849 0.41564 0.0
C490 C 0.25397 0.38911 0.46179 0.0
Eu491 Eu 0.23614 0.37528 0.42741 0.0
C492 C 0.26396 0.39539 0.48173 0.0
C493 C 0.27704 0.43012 0.48814 0.0
C494 C 0.28919 0.43476 0.50643 0.0
C495 C 0.28831 0.40498 0.51915 0.0
C496 C 0.2747 0.37042 0.51272 0.0
C497 C 0.26307 0.36567 0.49441 0.0
C498 C 0.20686 0.41956 0.39946 0.0
C499 C 0.30787 0.39436 0.4004 0.0
O500 O 0.2505 0.31728 0.36338 0.0
O501 O 0.19798 0.34739 0.36756 0.0
O502 O 0.28653 0.30688 0.39594 0.0
O503 O 0.2463 0.31635 0.41675 0.0
O504 O 0.18181 0.32326 0.40007 0.0
O505 O 0.1788 0.34787 0.4291 0.0
O506 O 0.25102 0.3556 0.45489 0.0
O507 O 0.24565 0.41565 0.4501 0.0
O508 O 0.19138 0.41724 0.41562 0.0
O509 O 0.23588 0.40031 0.39979 0.0
O510 O 0.29619 0.38857 0.41745 0.0
O511 O 0.28647 0.3845 0.3865 0.0
H512 H 0.26687 0.38658 0.34689 0.0
H513 H 0.2726 0.41701 0.317 0.0
H514 H 0.18476 0.34678 0.29596 0.0
H515 H 0.18026 0.31543 0.32562 0.0
H516 H 0.27859 0.45368 0.47889 0.0
H517 H 0.29904 0.46196 0.51065 0.0
H518 H 0.27379 0.34652 0.52178 0.0
H519 H 0.2536 0.33836 0.49014 0.0
C520 C 0.96688 0.96794 0.10616 0.0
Eu521 Eu 0.9543 0.98454 0.1402 0.0
C522 C 0.94854 0.97405 0.08862 0.0
C523 C 0.92026 1.00094 0.08676 0.0
C524 C 0.90234 1.00568 0.06999 0.0
C525 C 0.91194 0.98314 0.05501 0.0
C526 C 0.94013 0.95599 0.05706 0.0
C527 C 0.95824 0.95146 0.07377 0.0
C528 C 1.00201 0.01852 0.16335 0.0
C529 C 0.97132 0.90943 0.16515 0.0
C530 C 0.91284 0.99726 0.21292 0.0
Eu531 Eu 0.9263 0.98179 0.17825 0.0
C532 C 0.90521 1.00763 0.23264 0.0
C533 C 0.90207 0.98027 0.24639 0.0
C534 C 0.89856 0.99016 0.26505 0.0
C535 C 0.89735 0.02796 0.27079 0.0
C536 C 0.89933 0.05522 0.25677 0.0
C537 C 0.90365 0.04527 0.23819 0.0
C538 C 0.87768 0.95723 0.15079 0.0
C539 C 0.90775 0.0563 0.15257 0.0
O540 O 0.9811 0.99726 0.11418 0.0
O541 O 0.94868 0.94629 0.11741 0.0
O542 O 0.995 0.02907 0.14682 0.0
O543 O 0.98518 0.98797 0.16703 0.0
O544 O 0.96635 0.92389 0.1487 0.0
O545 O 0.96284 0.92934 0.1798 0.0
O546 O 0.93191 0.01892 0.20198 0.0
O547 O 0.90008 0.96717 0.2049 0.0
O548 O 0.88116 0.94039 0.16649 0.0
O549 O 0.89821 0.98511 0.15123 0.0
O550 O 0.91169 0.04239 0.16935 0.0
O551 O 0.91718 0.03575 0.13825 0.0
H552 H 0.9124 0.01849 0.09819 0.0
H553 H 0.88194 0.02789 0.06856 0.0
H554 H 0.94825 0.93835 0.04571 0.0
H555 H 0.97975 0.93026 0.07511 0.0
H556 H 0.90357 0.95099 0.24278 0.0
H557 H 0.89779 0.96778 0.27495 0.0
H558 H 0.8973 0.08461 0.26 0.0
H559 H 0.90576 0.06729 0.22809 0.0
C560 C 0.33175 0.72084 0.856 0.0
Eu561 Eu 0.3144 0.70705 0.8898 0.0
C562 C 0.32729 0.70259 0.83832 0.0
C563 C 0.30155 0.67357 0.83607 0.0
C564 C 0.29817 0.65596 0.81916 0.0
C565 C 0.32092 0.66665 0.80442 0.0
C566 C 0.34686 0.69564 0.80685 0.0
C567 C 0.35009 0.71337 0.82372 0.0
C568 C 0.27642 0.75066 0.91338 0.0
C569 C 0.39093 0.72199 0.91501 0.0
C570 C 0.30193 0.66212 0.9622 0.0
Eu571 Eu 0.31849 0.67609 0.92764 0.0
C572 C 0.29282 0.65489 0.98217 0.0
C573 C 0.27093 0.62409 0.98759 0.0
C574 C 0.25873 0.61974 1.00591 0.0
C575 C 0.26842 0.64569 1.01966 0.0
C576 C 0.29114 0.67599 1.01426 0.0
C577 C 0.30272 0.6807 0.99589 0.0
C578 C 0.34664 0.63163 0.89942 0.0
C579 C 0.24525 0.65741 0.9019 0.0
O580 O 0.3013 0.73362 0.8638 0.0
O581 O 0.35396 0.70347 0.86737 0.0
O582 O 0.26671 0.74411 0.89666 0.0
O583 O 0.30788 0.73511 0.917 0.0
O584 O 0.37184 0.72768 0.89972 0.0
O585 O 0.37628 0.70243 0.92859 0.0
O586 O 0.30923 0.69548 0.95587 0.0
O587 O 0.3057 0.63579 0.94989 0.0
O588 O 0.36291 0.63426 0.91536 0.0
O589 O 0.31751 0.65068 0.90011 0.0
O590 O 0.25767 0.66419 0.91869 0.0
O591 O 0.26617 0.66639 0.88763 0.0
H592 H 0.28379 0.66491 0.84729 0.0
H593 H 0.27676 0.63498 0.8174 0.0
H594 H 0.36454 0.70467 0.79567 0.0
H595 H 0.37037 0.73553 0.82536 0.0
H596 H 0.26223 0.60378 0.97753 0.0
H597 H 0.24164 0.59582 1.00932 0.0
H598 H 0.29916 0.69686 1.02418 0.0
H599 H 0.31916 0.70501 0.99238 0.0
C600 C 0.56422 0.07248 0.60793 0.0
Eu601 Eu 0.59285 0.06487 0.6403 0.0
C602 C 0.53051 0.0556 0.60035 0.0
C603 C 0.50158 0.04404 0.61206 0.0
C604 C 0.47254 0.0221 0.6054 0.0
C605 C 0.47215 1.0112 0.58705 0.0
C606 C 0.5001 0.02472 0.57518 0.0
C607 C 0.52908 0.04677 0.5818 0.0
C608 C 0.55057 0.02785 0.66518 0.0
C609 C 0.58141 0.14385 0.66281 0.0
C610 C 0.63744 0.05644 0.712 0.0
Eu611 Eu 0.62414 0.07213 0.67731 0.0
C612 C 0.64243 0.04551 0.73192 0.0
C613 C 0.67262 0.05808 0.74264 0.0
C614 C 0.6769 0.0466 0.7611 0.0
C615 C 0.65119 0.02199 0.76958 0.0
C616 C 0.62088 1.00986 0.75879 0.0
C617 C 0.61665 0.02128 0.74044 0.0
C618 C 0.66743 0.10078 0.64868 0.0
C619 C 0.6479 0.99901 0.65195 0.0
O620 O 0.55862 0.09629 0.6211 0.0
O621 O 0.59126 0.04909 0.61154 0.0
O622 O 0.55885 1.01614 0.64906 0.0
O623 O 0.56478 0.06006 0.66771 0.0
O624 O 0.58614 0.12743 0.64675 0.0
O625 O 0.59061 0.12606 0.678 0.0
O626 O 0.60971 0.04305 0.70248 0.0
O627 O 0.65869 0.07942 0.70263 0.0
O628 O 0.66447 0.11719 0.66456 0.0
O629 O 0.64971 0.07106 0.64959 0.0
O630 O 0.64431 1.01332 0.66862 0.0
O631 O 0.63456 0.01742 0.63769 0.0
H632 H 0.50231 0.05051 0.62651 0.0
H633 H 0.45126 1.01244 0.61466 0.0
H634 H 0.50103 1.01623 0.56098 0.0
H635 H 0.55138 0.05519 0.57266 0.0
H636 H 0.69322 0.0766 0.73671 0.0
H637 H 0.70093 0.05654 0.7686 0.0
H638 H 0.59985 0.99164 0.76455 0.0
H639 H 0.59286 1.01091 0.73288 0.0
C640 C 0.36003 0.40774 0.23404 0.0
C641 C 0.34662 0.39342 0.21749 0.0
C642 C 0.33538 0.42631 0.24585 0.0
C643 C 0.29822 0.43315 0.23994 0.0
C644 C 0.29042 0.43136 0.22108 0.0
C645 C 0.31451 0.41031 0.20991 0.0
C646 C 0.34667 0.43086 0.26559 0.0
C647 C 0.25352 0.44496 0.21367 0.0
C648 C 0.23971 0.37569 0.27145 0.0
C649 C 0.23501 0.40052 0.28594 0.0
C650 C 0.25588 0.38727 0.25508 0.0
C651 C 0.26769 0.42499 0.25316 0.0
C652 C 0.25726 0.45139 0.2666 0.0
C653 C 0.24162 0.43871 0.28311 0.0
C654 C 0.26417 0.35761 0.24097 0.0
C655 C 0.26338 0.49261 0.26368 0.0
H656 H 0.38671 0.39798 0.23924 0.0
H657 H 0.30481 0.40243 0.19646 0.0
H658 H 0.33707 0.4581 0.27101 0.0
H659 H 0.33351 0.40853 0.27392 0.0
H660 H 0.37746 0.42891 0.26736 0.0
H661 H 0.25479 0.44901 0.19863 0.0
H662 H 0.23133 0.42431 0.21671 0.0
H663 H 0.24543 0.47165 0.22032 0.0
H664 H 0.23407 0.34625 0.27349 0.0
H665 H 0.23609 0.45831 0.29405 0.0
H666 H 0.29462 0.35254 0.24054 0.0
H667 H 0.25476 0.36647 0.22724 0.0
H668 H 0.25036 0.33063 0.24414 0.0
H669 H 0.2925 0.49846 0.25938 0.0
H670 H 0.25683 0.50918 0.27611 0.0
H671 H 0.24497 0.50224 0.25242 0.0
C672 C 0.52986 0.34763 0.55077 0.0
C673 C 0.5005 0.34917 0.5634 0.0
C674 C 0.52179 0.34588 0.53208 0.0
C675 C 0.48387 0.34251 0.52656 0.0
C676 C 0.45763 0.32954 0.53955 0.0
C677 C 0.46585 0.33407 0.55819 0.0
C678 C 0.55272 0.3547 0.51872 0.0
C679 C 0.41912 0.31703 0.53398 0.0
C680 C 0.46072 0.43256 0.50352 0.0
C681 C 0.47998 0.42736 0.48715 0.0
C682 C 0.45681 0.40337 0.51598 0.0
C683 C 0.4709 0.36731 0.51141 0.0
C684 C 0.48209 0.36039 0.49314 0.0
C685 C 0.48772 0.39082 0.48129 0.0
C686 C 0.44173 0.41315 0.53465 0.0
C687 C 0.49055 0.32159 0.48632 0.0
H688 H 0.55773 0.35543 0.55512 0.0
H689 H 0.4434 0.33147 0.56805 0.0
H690 H 0.55352 0.33339 0.50779 0.0
H691 H 0.54777 0.38243 0.51236 0.0
H692 H 0.58061 0.3552 0.52537 0.0
H693 H 0.41529 0.28757 0.5383 0.0
H694 H 0.39737 0.33365 0.54117 0.0
H695 H 0.41472 0.31883 0.51899 0.0
H696 H 0.45196 0.4605 0.50736 0.0
H697 H 0.50064 0.38609 0.46809 0.0
H698 H 0.46359 0.40888 0.5451 0.0
H699 H 0.41732 0.39554 0.53801 0.0
H700 H 0.43266 0.44273 0.53552 0.0
H701 H 0.51925 0.32043 0.48054 0.0
H702 H 0.47111 0.31493 0.47498 0.0
H703 H 0.48744 0.29994 0.49707 0.0
C704 C 0.23039 0.64438 0.71092 0.0
C705 C 0.19886 0.66169 0.71887 0.0
C706 C 0.25454 0.62275 0.72178 0.0
C707 C 0.24746 0.62084 0.74072 0.0
C708 C 0.21068 0.62825 0.74705 0.0
C709 C 0.1859 0.64744 0.73555 0.0
C710 C 0.2909 0.60859 0.71397 0.0
C711 C 0.20012 0.62357 0.76689 0.0
C712 C 0.30608 0.6136 0.78314 0.0
C713 C 0.31334 0.65165 0.786 0.0
C714 C 0.28934 0.60149 0.76682 0.0
C715 C 0.27867 0.6283 0.7536 0.0
C716 C 0.29117 0.66579 0.75547 0.0
C717 C 0.30831 0.67682 0.77167 0.0
C718 C 0.28231 0.56044 0.76388 0.0
C719 C 0.28272 0.6958 0.74154 0.0
H720 H 0.23969 0.65227 0.69738 0.0
H721 H 0.15961 0.65758 0.74107 0.0
H722 H 0.29826 0.58125 0.72018 0.0
H723 H 0.28932 0.60558 0.69888 0.0
H724 H 0.31376 0.62832 0.71722 0.0
H725 H 0.16943 0.6259 0.769 0.0
H726 H 0.20958 0.59613 0.77215 0.0
H727 H 0.2139 0.64561 0.77512 0.0
H728 H 0.31192 0.59371 0.79392 0.0
H729 H 0.31447 0.70614 0.77372 0.0
H730 H 0.30022 0.55058 0.75246 0.0
H731 H 0.25297 0.55521 0.7598 0.0
H732 H 0.28887 0.5436 0.77622 0.0
H733 H 0.29148 0.68701 0.72768 0.0
H734 H 0.29705 0.72253 0.74463 0.0
H735 H 0.25233 0.70131 0.74144 0.0
C736 C 0.8699 0.48833 0.03464 0.0
C737 C 0.9086 0.48431 0.0321 0.0
C738 C 0.85574 0.50281 0.05111 0.0
C739 C 0.88105 0.51385 0.06487 0.0
C740 C 0.91923 0.50284 0.06347 0.0
C741 C 0.93243 0.48834 0.04701 0.0
C742 C 0.81418 0.50789 0.05353 0.0
C743 C 0.94761 0.51049 0.07825 0.0
C744 C 0.89474 0.60815 0.08188 0.0
C745 C 0.90938 0.59649 0.09869 0.0
C746 C 0.87742 0.58197 0.07052 0.0
C747 C 0.87157 0.5453 0.0773 0.0
C748 C 0.87296 0.53938 0.09632 0.0
C749 C 0.89326 0.56481 0.10698 0.0
C750 C 0.87318 0.59133 0.05051 0.0
C751 C 0.85921 0.50335 0.10453 0.0
H752 H 0.85103 0.4829 1.02344 0.0
H753 H 0.9621 0.48297 0.04529 0.0
H754 H 0.80458 0.4891 0.06463 0.0
H755 H 0.80716 0.53671 0.05786 0.0
H756 H 0.79852 0.5013 0.04085 0.0
H757 H 0.97486 0.49656 0.07554 0.0
H758 H 0.95268 0.54083 0.07897 0.0
H759 H 0.9375 0.50078 0.09173 0.0
H760 H 0.90373 0.63456 0.07614 0.0
H761 H 0.9012 0.55659 0.12067 0.0
H762 H 0.84603 0.58127 0.04523 0.0
H763 H 0.89575 0.5774 0.04259 0.0
H764 H 0.87495 0.62186 0.04797 0.0
H765 H 0.8574 0.50505 0.11966 0.0
H766 H 0.87827 0.48009 0.10083 0.0
H767 H 0.83125 0.49649 0.0989 0.0
C768 C 0.68788 0.64329 0.83446 0.0
C769 C 0.70341 0.6575 0.85058 0.0
C770 C 0.71093 0.62466 0.8219 0.0
C771 C 0.74888 0.61831 0.82653 0.0
C772 C 0.75925 0.62 0.84509 0.0
C773 C 0.73655 0.64068 0.85708 0.0
C774 C 0.69678 0.61865 0.80274 0.0
C775 C 0.79725 0.60684 0.85124 0.0
C776 C 0.80198 0.61398 0.78201 0.0
C777 C 0.80885 0.65215 0.77931 0.0
C778 C 0.78682 0.601 0.79855 0.0
C779 C 0.77747 0.62706 0.81237 0.0
C780 C 0.78909 0.66486 0.81042 0.0
C781 C 0.80452 0.67672 0.79392 0.0
C782 C 0.77927 0.55985 0.80059 0.0
C783 C 0.78146 0.69434 0.8247 0.0
H784 H 0.66049 0.65287 0.83015 0.0
H785 H 0.74799 0.64844 0.87022 0.0
H786 H 0.71006 0.63903 0.79333 0.0
H787 H 0.70421 0.5902 0.79802 0.0
H788 H 0.66595 0.6221 0.80183 0.0
H789 H 0.7973 0.60043 0.86609 0.0
H790 H 0.80597 0.58165 0.84346 0.0
H791 H 0.81826 0.62895 0.84869 0.0
H792 H 0.80695 0.59447 0.77098 0.0
H793 H 0.8101 0.70619 0.79197 0.0
H794 H 0.77132 0.55195 0.81473 0.0
H795 H 0.80455 0.54376 0.79658 0.0
H796 H 0.75668 0.55154 0.79106 0.0
H797 H 0.75099 0.69872 0.82577 0.0
H798 H 0.79436 0.72165 0.82126 0.0
H799 H 0.79234 0.68572 0.83821 0.0
C800 C 0.76103 0.12437 0.2086 0.0
C801 C 0.72824 0.14326 0.21409 0.0
C802 C 0.78192 0.10413 0.22152 0.0
C803 C 0.77021 0.10517 0.23991 0.0
C804 C 0.73222 0.11361 0.24373 0.0
C805 C 0.71075 0.13101 0.23016 0.0
C806 C 0.81969 0.08859 0.2164 0.0
C807 C 0.71674 0.11227 0.26292 0.0
C808 C 0.81877 0.1045 0.2854 0.0
C809 C 0.82648 0.14273 0.28717 0.0
C810 C 0.80533 0.08997 0.26884 0.0
C811 C 0.79809 0.11469 0.25419 0.0
C812 C 0.81061 0.15231 0.25532 0.0
C813 C 0.82466 0.16566 0.2718 0.0
C814 C 0.79824 0.04862 0.2671 0.0
C815 C 0.80548 0.18018 0.24001 0.0
H816 H 0.77364 0.12995 0.19544 0.0
H817 H 0.68326 0.1417 0.23363 0.0
H818 H 0.82533 0.06255 0.22417 0.0
H819 H 0.82147 0.0827 0.20153 0.0
H820 H 0.84184 0.10894 0.21993 0.0
H821 H 0.68582 0.11529 0.26311 0.0
H822 H 0.72422 0.08568 0.26973 0.0
H823 H 0.72886 0.13541 0.27105 0.0
H824 H 0.82202 0.0863 0.29709 0.0
H825 H 0.83106 0.19511 0.27307 0.0
H826 H 0.817 0.037 0.25643 0.0
H827 H 0.76927 0.04305 0.26255 0.0
H828 H 0.80345 0.03348 0.2801 0.0
H829 H 0.81695 0.1693 0.22701 0.0
H830 H 0.81945 0.20722 0.24283 0.0
H831 H 0.77533 0.18586 0.23825 0.0
C832 C 0.92167 0.99595 1.02222 0.0
C833 C 0.89671 0.99192 0.03673 0.0
C834 C 0.91088 1.01373 1.00612 0.0
C835 C 0.87374 0.02782 1.00444 0.0
C836 C 0.84697 0.01859 1.01798 0.0
C837 C 0.85893 1.00121 0.03418 0.0
C838 C 0.94105 0.0211 0.9921 0.0
C839 C 0.80624 0.02868 1.01608 0.0
C840 C 0.89493 0.11912 0.98554 0.0
C841 C 0.90924 0.10512 0.96907 0.0
C842 C 0.8747 0.09546 0.99715 0.0
C843 C 0.86685 0.05868 0.9912 0.0
C844 C 0.86895 0.05082 0.97236 0.0
C845 C 0.89137 0.07386 0.96134 0.0
C846 C 0.86836 0.1073 1.01667 0.0
C847 C 0.85397 1.01471 0.96484 0.0
H848 H 0.9508 0.98842 1.02408 0.0
H849 H 0.83907 0.99653 0.04514 0.0
H850 H 0.93221 1.01195 0.97834 0.0
H851 H 0.94692 0.05133 0.99169 0.0
H852 H 0.96768 1.00647 0.99532 0.0
H853 H 0.7986 0.04989 1.02648 0.0
H854 H 0.79913 0.03939 1.00228 0.0
H855 H 0.78891 1.0037 1.01895 0.0
H856 H 0.90547 0.14532 0.99082 0.0
H857 H 0.89933 0.06383 0.94794 0.0
H858 H 0.88725 0.09135 1.02586 0.0
H859 H 0.83916 0.10132 1.02077 0.0
H860 H 0.87367 0.13756 1.01869 0.0
H861 H 0.87393 0.99167 0.96765 0.0
H862 H 0.84978 0.01649 0.94983 0.0
H863 H 0.82708 1.00756 0.97157 0.0
C864 C 0.44503 0.86806 0.51853 0.0
C865 C 0.48239 0.87923 0.51602 0.0
C866 C 0.42907 0.86938 0.53611 0.0
C867 C 0.4499 0.88568 0.55032 0.0
C868 C 0.48948 0.8859 0.54871 0.0
C869 C 0.50545 0.88089 0.53144 0.0
C870 C 0.38903 0.85835 0.53917 0.0
C871 C 0.51461 0.89808 0.56412 0.0
C872 C 0.4329 0.98348 0.56287 0.0
C873 C 0.44685 0.98146 0.58061 0.0
C874 C 0.42585 0.95088 0.55304 0.0
C875 C 0.4323 0.91565 0.56158 0.0
C876 C 0.43574 0.91445 0.58081 0.0
C877 C 0.44442 0.94752 0.59015 0.0
C878 C 0.41781 0.95502 0.53291 0.0
C879 C 0.43484 0.87818 0.59124 0.0
H880 H 0.42719 0.86297 0.50688 0.0
H881 H 0.53521 0.8854 0.52966 0.0
H882 H 0.38687 0.84149 0.55186 0.0
H883 H 0.37124 0.88339 0.54119 0.0
H884 H 0.37814 0.84181 0.52755 0.0
H885 H 0.54465 0.89344 0.56091 0.0
H886 H 0.51051 0.9283 0.56682 0.0
H887 H 0.50791 0.88236 0.57673 0.0
H888 H 0.43244 1.01024 0.55591 0.0
H889 H 0.4535 0.94584 0.60423 0.0
H890 H 0.39491 0.93627 0.52867 0.0
H891 H 0.44325 0.94809 0.52493 0.0
H892 H 0.40941 0.98398 0.52927 0.0
H893 H 0.41154 0.87924 0.60126 0.0
H894 H 0.46096 0.87459 0.59923 0.0
H895 H 0.43068 0.85366 0.58221 0.0
C896 C 0.19458 0.0801 0.94774 0.0
C897 C 0.18854 0.10805 0.93448 0.0
C898 C 0.20898 0.088 0.96524 0.0
C899 C 0.21836 0.12509 0.97006 0.0
C900 C 0.21355 0.15354 0.95658 0.0
C901 C 0.19868 0.14477 0.93902 0.0
C902 C 0.21318 0.05642 0.97879 0.0
C903 C 0.2233 0.19346 0.96088 0.0
C904 C 0.21811 0.14547 1.02187 0.0
C905 C 0.25608 0.14182 1.02679 0.0
C906 C 0.20582 0.14144 1.00356 0.0
C907 C 0.23183 0.13357 0.98938 0.0
C908 C 0.27024 0.13036 0.99416 0.0
C909 C 0.28178 0.13436 1.01262 0.0
C910 C 0.16458 0.14462 0.99948 0.0
C911 C 0.29927 0.12209 0.97975 0.0
H912 H 0.18746 0.05151 0.94453 0.0
H913 H 0.19404 0.16676 0.9291 0.0
H914 H 0.24245 0.05485 0.98373 0.0
H915 H 0.1951 0.06166 0.99085 0.0
H916 H 0.20555 0.02895 0.97286 0.0
H917 H 0.22052 0.21195 0.94876 0.0
H918 H 0.20464 0.20405 0.97184 0.0
H919 H 0.25239 0.19512 0.96606 0.0
H920 H 0.19755 0.15063 0.03245 0.0
H921 H 0.3112 0.13194 1.01591 0.0
H922 H 0.15393 0.11735 0.99458 0.0
H923 H 0.15978 0.16527 0.98842 0.0
H924 H 0.14806 0.15314 1.01165 0.0
H925 H 0.29439 0.09393 0.97394 0.0
H926 H 0.32817 0.12308 0.98525 0.0
H927 H 0.29686 0.14244 0.96837 0.0
C928 C 0.71012 0.49294 0.27246 0.0
C929 C 0.67718 0.51253 0.27711 0.0
C930 C 0.7165 0.47895 0.25454 0.0
C931 C 0.68961 0.48464 0.24049 0.0
C932 C 0.65668 0.50499 0.245 0.0
C933 C 0.65088 0.51841 0.26304 0.0
C934 C 0.75188 0.45726 0.25073 0.0
C935 C 0.62719 0.5124 0.23073 0.0
C936 C 0.71827 0.47278 0.18957 0.0
C937 C 0.70456 0.43708 0.18527 0.0
C938 C 0.71371 0.48852 0.20729 0.0
C939 C 0.69514 0.46825 0.22137 0.0
C940 C 0.6814 0.43214 0.21704 0.0
C941 C 0.68612 0.41725 0.19923 0.0
C942 C 0.72885 0.52701 0.21096 0.0
C943 C 0.66168 0.40895 0.2313 0.0
H944 H 0.73069 0.48759 0.28299 0.0
H945 H 0.62556 0.53388 0.26607 0.0
H946 H 0.74479 0.4283 0.24668 0.0
H947 H 0.76724 0.47005 0.23914 0.0
H948 H 0.7707 0.45613 0.26278 0.0
H949 H 0.60382 0.52979 0.23605 0.0
H950 H 0.63979 0.52679 0.2188 0.0
H951 H 0.61562 0.48557 0.22576 0.0
H952 H 0.73276 0.48846 0.17907 0.0
H953 H 0.67535 0.38968 0.19626 0.0
H954 H 0.74972 0.52577 0.22215 0.0
H955 H 0.70592 0.54572 0.21556 0.0
H956 H 0.74228 0.53947 0.19871 0.0
H957 H 0.68018 0.40481 0.24329 0.0
H958 H 0.65329 0.38115 0.22602 0.0
H959 H 0.63631 0.42383 0.23616 0.0
C960 C 0.30778 0.88424 0.51693 0.0
C961 C 0.29053 0.9139 0.5265 0.0
C962 C 0.32199 0.88848 0.49892 0.0
C963 C 0.31847 0.92309 0.48959 0.0
C964 C 0.29996 0.95278 0.49883 0.0
C965 C 0.28656 0.94797 0.51697 0.0
C966 C 0.34177 0.85598 0.49001 0.0
C967 C 0.29484 0.99014 0.48961 0.0
C968 C 0.39093 0.95004 0.45293 0.0
C969 C 0.37289 0.94297 0.43628 0.0
C970 C 0.37392 0.94335 0.47003 0.0
C971 C 0.33701 0.92921 0.47098 0.0
C972 C 0.31844 0.92135 0.45418 0.0
C973 C 0.33661 0.92798 0.43709 0.0
C974 C 0.39577 0.95151 0.48717 0.0
C975 C 0.27891 0.90693 0.45425 0.0
H976 H 0.31144 0.85764 0.5237 0.0
H977 H 0.27262 0.97115 0.52362 0.0
H978 H 0.32836 0.84929 0.47677 0.0
H979 H 0.3712 0.8636 0.48703 0.0
H980 H 0.34157 0.83054 0.49869 0.0
H981 H 0.27708 1.00942 0.49777 0.0
H982 H 0.32249 1.0034 0.48747 0.0
H983 H 0.28193 0.98639 0.47596 0.0
H984 H 0.41886 0.96093 0.45255 0.0
H985 H 0.32193 0.92267 0.42443 0.0
H986 H 0.4011 0.92503 0.49459 0.0
H987 H 0.37942 0.96996 0.49636 0.0
H988 H 0.42299 0.96512 0.48428 0.0
H989 H 0.27717 0.8809 0.46241 0.0
H990 H 0.26846 0.90125 0.44025 0.0
H991 H 0.26021 0.92773 0.46083 0.0
C992 C 0.8309 0.60121 0.69651 0.0
C993 C 0.85935 0.61202 0.68432 0.0
C994 C 0.83861 0.58478 0.71366 0.0
C995 C 0.87614 0.57908 0.7194 0.0
C996 C 0.90516 0.58822 0.70672 0.0
C997 C 0.89647 0.6046 0.68947 0.0
C998 C 0.80591 0.57303 0.72536 0.0
C999 C 0.94574 0.58107 0.71107 0.0
C1000 C 0.89873 0.57999 0.77109 0.0
C1001 C 0.89251 0.54281 0.77665 0.0
C1002 C 0.89503 0.59154 0.75263 0.0
C1003 C 0.88435 0.5657 0.73887 0.0
C1004 C 0.879 0.52786 0.74427 0.0
C1005 C 0.88274 0.51712 0.76289 0.0
C1006 C 0.90337 0.63162 0.74791 0.0
C1007 C 0.86952 0.49793 0.73058 0.0
H1008 H 0.802 0.6058 0.69265 0.0
H1009 H 0.91888 0.61247 0.68027 0.0
H1010 H 0.80024 0.54303 0.72293 0.0
H1011 H 0.8117 0.57672 0.74009 0.0
H1012 H 0.78008 0.58871 0.7218 0.0
H1013 H 0.96014 0.56897 0.69898 0.0
H1014 H 0.95961 0.60802 0.71409 0.0
H1015 H 0.94969 0.56193 0.72283 0.0
H1016 H 0.90605 0.60062 0.78126 0.0
H1017 H 0.87862 0.4881 0.76653 0.0
H1018 H 0.88294 0.64276 0.7379 0.0
H1019 H 0.9315 0.63321 0.7416 0.0
H1020 H 0.90354 0.6497 0.76022 0.0
H1021 H 0.83946 0.49085 0.73188 0.0
H1022 H 0.88561 0.47206 0.73357 0.0
H1023 H 0.87533 0.50643 0.71628 0.0
C1024 C 0.84625 0.97547 0.12142 0.0
C1025 C 0.85547 0.94702 0.13392 0.0
C1026 C 0.82962 0.96802 0.1043 0.0
C1027 C 0.82198 0.93069 0.09892 0.0
C1028 C 0.82938 0.9018 0.11195 0.0
C1029 C 0.84608 0.91025 0.12914 0.0
C1030 C 0.81985 1.00082 0.09223 0.0
C1031 C 0.81997 0.8616 0.10809 0.0
C1032 C 0.76073 0.92666 0.0551 0.0
C1033 C 0.78606 0.91428 0.0416 0.0
C1034 C 0.77121 0.93044 0.07374 0.0
C1035 C 0.80848 0.92246 0.07946 0.0
C1036 C 0.83388 0.90912 0.06597 0.0
C1037 C 0.8226 0.90547 0.04748 0.0
C1038 C 0.74158 0.94277 0.08713 0.0
C1039 C 0.87316 0.89785 0.07104 0.0
H1040 H 0.8524 1.00416 0.12498 0.0
H1041 H 0.85272 0.88784 0.13857 0.0
H1042 H 0.82295 0.99411 0.07754 0.0
H1043 H 0.7903 1.00878 0.09471 0.0
H1044 H 0.83725 0.02559 0.09543 0.0
H1045 H 0.80565 0.84915 0.1201 0.0
H1046 H 0.80185 0.85808 0.09594 0.0
H1047 H 0.84625 0.84557 0.10603 0.0
H1048 H 0.73215 0.93284 0.05123 0.0
H1049 H 0.84298 0.89609 0.03753 0.0
H1050 H 0.73612 0.97304 0.08525 0.0
H1051 H 0.74945 0.93757 0.10156 0.0
H1052 H 0.7149 0.92807 0.08431 0.0
H1053 H 0.8856 0.91803 0.08074 0.0
H1054 H 0.89147 0.8952 0.05885 0.0
H1055 H 0.87248 0.87023 0.07786 0.0
C1056 C 0.32951 0.60036 0.8699 0.0
C1057 C 0.35774 0.61043 0.88232 0.0
C1058 C 0.33739 0.58456 0.85262 0.0
C1059 C 0.375 0.57863 0.84693 0.0
C1060 C 0.4038 0.58693 0.85985 0.0
C1061 C 0.39488 0.60281 0.87722 0.0
C1062 C 0.30467 0.57363 0.84079 0.0
C1063 C 0.44438 0.57915 0.85575 0.0
C1064 C 0.37886 0.51705 0.80327 0.0
C1065 C 0.39067 0.54211 0.78957 0.0
C1066 C 0.37569 0.52769 0.82191 0.0
C1067 C 0.3834 0.56501 0.82744 0.0
C1068 C 0.39654 0.5901 0.81376 0.0
C1069 C 0.40001 0.57848 0.79525 0.0
C1070 C 0.36434 0.49805 0.83546 0.0
C1071 C 0.4078 0.62937 0.81856 0.0
H1072 H 0.30056 0.60505 0.87368 0.0
H1073 H 0.41718 0.61009 0.88656 0.0
H1074 H 0.311 0.5763 0.82603 0.0
H1075 H 0.2975 0.5441 0.84361 0.0
H1076 H 0.27942 0.59057 0.84398 0.0
H1077 H 0.45765 0.56505 0.86762 0.0
H1078 H 0.44854 0.56148 0.84348 0.0
H1079 H 0.45921 0.60602 0.85378 0.0
H1080 H 0.37262 0.48848 0.79955 0.0
H1081 H 0.40943 0.59843 0.78513 0.0
H1082 H 0.3344 0.49122 0.83342 0.0
H1083 H 0.36875 0.50646 0.84987 0.0
H1084 H 0.38044 0.472 0.83289 0.0
H1085 H 0.38862 0.6417 0.82884 0.0
H1086 H 0.40877 0.64766 0.80632 0.0
H1087 H 0.43627 0.62885 0.82451 0.0
C1088 C 0.71912 0.13504 0.54266 0.0
C1089 C 0.75659 0.1443 0.5388 0.0
C1090 C 0.70571 0.13115 0.56084 0.0
C1091 C 0.73023 0.1358 0.57595 0.0
C1092 C 0.76807 0.1452 0.57216 0.0
C1093 C 0.78056 0.14968 0.55384 0.0
C1094 C 0.66507 0.12179 0.56388 0.0
C1095 C 0.7958 0.1496 0.5875 0.0
C1096 C 0.68861 0.14893 0.62477 0.0
C1097 C 0.68795 0.11214 0.63147 0.0
C1098 C 0.70254 0.15723 0.60694 0.0
C1099 C 0.71689 0.12828 0.59549 0.0
C1100 C 0.71743 0.09141 0.6026 0.0
C1101 C 0.70269 0.08388 0.62017 0.0
C1102 C 0.70048 0.19684 0.60005 0.0
C1103 C 0.73287 0.05942 0.59147 0.0
H1104 H 0.69993 0.13125 0.53137 0.0
H1105 H 0.80959 0.15651 0.55128 0.0
H1106 H 0.6627 0.09386 0.57033 0.0
H1107 H 0.65219 0.14225 0.57338 0.0
H1108 H 0.64887 0.12168 0.55094 0.0
H1109 H 0.82385 0.15811 0.58251 0.0
H1110 H 0.78562 0.17074 0.5974 0.0
H1111 H 0.7986 0.1228 0.595 0.0
H1112 H 0.67662 0.17096 0.63307 0.0
H1113 H 0.70222 0.05527 0.62502 0.0
H1114 H 0.68135 0.19827 0.58815 0.0
H1115 H 0.7284 0.20614 0.59529 0.0
H1116 H 0.69028 0.21651 0.61069 0.0
H1117 H 0.71534 0.05516 0.57916 0.0
H1118 H 0.73374 0.03286 0.59932 0.0
H1119 H 0.76156 0.066 0.5867 0.0
C1120 C 0.15846 0.45025 0.37803 0.0
C1121 C 0.19562 0.44163 0.38264 0.0
C1122 C 0.14923 0.46688 0.36088 0.0
C1123 C 0.17771 0.47496 0.34771 0.0
C1124 C 0.21539 0.46814 0.35294 0.0
C1125 C 0.2236 0.45163 0.37003 0.0
C1126 C 0.10866 0.47557 0.35723 0.0
C1127 C 0.24782 0.47872 0.34079 0.0
C1128 C 0.15118 0.47451 0.29639 0.0
C1129 C 0.15966 0.511 0.29045 0.0
C1130 C 0.15534 0.46316 0.31487 0.0
C1131 C 0.16875 0.48849 0.32829 0.0
C1132 C 0.17617 0.52578 0.32253 0.0
C1133 C 0.17198 0.53629 0.3039 0.0
C1134 C 0.14456 0.42385 0.31997 0.0
C1135 C 0.18831 0.55543 0.33585 0.0
H1136 H 0.13638 0.4431 0.38755 0.0
H1137 H 0.25258 0.44627 0.37348 0.0
H1138 H 0.10438 0.49346 0.34503 0.0
H1139 H 0.09316 0.44905 0.35539 0.0
H1140 H 0.09619 0.48981 0.36926 0.0
H1141 H 0.27295 0.46141 0.3437 0.0
H1142 H 0.2409 0.47627 0.3261 0.0
H1143 H 0.25546 0.50815 0.34355 0.0
H1144 H 0.14181 0.45417 0.28649 0.0
H1145 H 0.1778 0.56487 0.30001 0.0
H1146 H 0.11677 0.42433 0.32667 0.0
H1147 H 0.16479 0.41154 0.32975 0.0
H1148 H 0.14236 0.40556 0.30779 0.0
H1149 H 0.17284 0.58182 0.33319 0.0
H1150 H 0.21841 0.56144 0.33369 0.0
H1151 H 0.18383 0.54735 0.35032 0.0
C1152 C 0.77233 0.62308 0.51597 0.0
C1153 C 0.75055 0.64103 0.52946 0.0
C1154 C 0.75962 0.61867 0.49773 0.0
C1155 C 0.72387 0.63227 0.49241 0.0
C1156 C 0.70193 0.65089 0.50585 0.0
C1157 C 0.71543 0.65512 0.52399 0.0
C1158 C 0.78442 0.59881 0.48415 0.0
C1159 C 0.66354 0.66559 0.50118 0.0
C1160 C 0.69867 0.64119 0.44081 0.0
C1161 C 0.67903 0.60791 0.43752 0.0
C1162 C 0.71339 0.6496 0.45845 0.0
C1163 C 0.70837 0.62437 0.47335 0.0
C1164 C 0.68853 0.59087 0.46997 0.0
C1165 C 0.67453 0.58313 0.45233 0.0
C1166 C 0.73441 0.68555 0.46115 0.0
C1167 C 0.68196 0.56288 0.48507 0.0
H1168 H 0.79976 0.61256 0.51961 0.0
H1169 H 0.69784 0.66875 0.53404 0.0
H1170 H 0.77087 0.57256 0.47968 0.0
H1171 H 0.78838 0.61641 0.47182 0.0
H1172 H 0.81229 0.59187 0.48993 0.0
H1173 H 0.65069 0.68131 0.51267 0.0
H1174 H 0.66507 0.68418 0.48907 0.0
H1175 H 0.64493 0.642 0.49758 0.0
H1176 H 0.7025 0.66069 0.42965 0.0
H1177 H 0.65984 0.55713 0.45017 0.0
H1178 H 0.76313 0.67945 0.46606 0.0
H1179 H 0.72041 0.70264 0.47179 0.0
H1180 H 0.73628 0.70222 0.44838 0.0
H1181 H 0.70912 0.55263 0.49042 0.0
H1182 H 0.66538 0.5385 0.48042 0.0
H1183 H 0.66695 0.5764 0.49658 0.0
C1184 C 0.16371 0.03354 0.76308 0.0
C1185 C 0.15528 1.00812 0.77721 0.0
C1186 C 0.16807 0.02185 0.74465 0.0
C1187 C 0.16413 0.9836 0.73988 0.0
C1188 C 0.15518 0.95791 0.754 0.0
C1189 C 0.15092 0.97032 0.77228 0.0
C1190 C 0.1776 0.05052 0.73029 0.0
C1191 C 0.15111 0.91683 0.74991 0.0
C1192 C 0.1543 0.95114 0.68937 0.0
C1193 C 0.191 0.93984 0.68517 0.0
C1194 C 0.14509 0.96607 0.70689 0.0
C1195 C 0.17308 0.96985 0.72064 0.0
C1196 C 0.21017 0.95926 0.71617 0.0
C1197 C 0.21849 0.94475 0.69873 0.0
C1198 C 0.1052 0.97707 0.71084 0.0
C1199 C 0.24129 0.96244 0.73001 0.0
H1200 H 0.16668 0.06285 0.76636 0.0
H1201 H 0.14504 0.94995 0.78283 0.0
H1202 H 0.2059 0.04478 0.72472 0.0
H1203 H 0.15762 0.04871 0.71875 0.0
H1204 H 0.17708 0.07942 0.73578 0.0
H1205 H 0.13089 0.91267 0.73862 0.0
H1206 H 0.17837 0.90529 0.74531 0.0
H1207 H 0.14154 0.90068 0.76199 0.0
H1208 H 0.13266 0.94747 0.6792 0.0
H1209 H 0.24708 0.9368 0.6958 0.0
H1210 H 0.10402 1.00624 0.7159 0.0
H1211 H 0.09375 0.95895 0.72179 0.0
H1212 H 0.08708 0.97466 0.69859 0.0
H1213 H 0.24338 0.9916 0.73498 0.0
H1214 H 0.26886 0.95395 0.72433 0.0
H1215 H 0.23507 0.94456 0.74201 0.0
C1216 C 0.81494 0.38778 1.0182 0.0
C1217 C 0.78271 0.40648 1.02459 0.0
C1218 C 0.82753 0.39085 0.99983 0.0
C1219 C 0.8081 0.414 0.9871 0.0
C1220 C 0.77409 0.43075 0.99314 0.0
C1221 C 0.76226 0.4272 1.01157 0.0
C1222 C 0.86164 0.36849 0.99441 0.0
C1223 C 0.74961 0.45292 0.9803 0.0
C1224 C 0.85639 0.46871 0.94821 0.0
C1225 C 0.8596 0.44276 0.93387 0.0
C1226 C 0.83965 0.45997 0.96513 0.0
C1227 C 0.82479 0.42374 0.96837 0.0
C1228 C 0.82632 0.39764 0.95358 0.0
C1229 C 0.84401 0.40725 0.93671 0.0
C1230 C 0.83824 0.49067 0.97925 0.0
C1231 C 0.80947 0.3593 0.95529 0.0
H1232 H 0.8312 0.37109 1.02765 0.0
H1233 H 0.73639 0.44061 1.01565 0.0
H1234 H 0.85282 0.33958 0.99118 0.0
H1235 H 0.87621 0.38002 0.98232 0.0
H1236 H 0.88184 0.36663 1.00589 0.0
H1237 H 0.7196 0.44785 0.98333 0.0
H1238 H 0.75471 0.48313 0.98241 0.0
H1239 H 0.75485 0.44602 0.96574 0.0
H1240 H 0.8673 0.49658 0.94634 0.0
H1241 H 0.84583 0.38677 0.92586 0.0
H1242 H 0.86454 0.5071 0.97908 0.0
H1243 H 0.83358 0.48025 0.99327 0.0
H1244 H 0.8153 0.5103 0.97572 0.0
H1245 H 0.83189 0.33898 0.95867 0.0
H1246 H 0.79704 0.35046 0.9421 0.0
H1247 H 0.78758 0.35794 0.96603 0.0
C1248 C 0.33065 0.1114 0.19942 0.0
C1249 C 0.35761 0.11441 0.18542 0.0
C1250 C 0.33912 0.09684 0.21687 0.0
C1251 C 0.37584 0.08446 0.22096 0.0
C1252 C 0.40327 0.08658 0.20681 0.0
C1253 C 0.39391 0.10142 0.18928 0.0
C1254 C 0.30854 0.09541 0.23111 0.0
C1255 C 0.44279 0.07379 0.21033 0.0
C1256 C 0.40095 0.08338 0.27234 0.0
C1257 C 0.39545 0.0458 0.2775 0.0
C1258 C 0.39601 0.09586 0.25409 0.0
C1259 C 0.38509 0.0705 0.24018 0.0
C1260 C 0.37987 0.03249 0.24519 0.0
C1261 C 0.38503 0.02072 0.26357 0.0
C1262 C 0.40162 0.13667 0.24978 0.0
C1263 C 0.36818 1.00416 0.2311 0.0
H1264 H 0.30239 0.12082 0.19682 0.0
H1265 H 0.41518 0.1036 0.17878 0.0
H1266 H 0.30539 0.0665 0.23632 0.0
H1267 H 0.31612 0.11328 0.2429 0.0
H1268 H 0.28112 0.10498 0.2257 0.0
H1269 H 0.46052 0.07545 0.19789 0.0
H1270 H 0.45548 0.0913 0.22115 0.0
H1271 H 0.44284 0.04457 0.21538 0.0
H1272 H 0.40833 0.10358 0.28271 0.0
H1273 H 0.38112 0.99156 0.26698 0.0
H1274 H 0.37465 0.14935 0.24552 0.0
H1275 H 0.42141 0.13984 0.2382 0.0
H1276 H 0.41253 0.1525 0.26166 0.0
H1277 H 0.33997 1.01131 0.22584 0.0
H1278 H 0.36743 0.97535 0.23673 0.0
H1279 H 0.38769 1.00475 0.21931 0.0
C1280 C 0.34007 0.46312 0.62386 0.0
C1281 C 0.36446 0.43818 0.63278 0.0
C1282 C 0.3261 0.45613 0.60609 0.0
C1283 C 0.33805 0.42413 0.5962 0.0
C1284 C 0.36266 0.39866 0.60517 0.0
C1285 C 0.37487 0.40554 0.62339 0.0
C1286 C 0.2993 0.48384 0.59768 0.0
C1287 C 0.37768 0.36507 0.59515 0.0
C1288 C 0.28237 0.39242 0.55353 0.0
C1289 C 0.30139 0.40971 0.53891 0.0
C1290 C 0.29392 0.39666 0.57198 0.0
C1291 C 0.32587 0.41838 0.57636 0.0
C1292 C 0.34529 0.43586 0.5617 0.0
C1293 C 0.33296 0.43138 0.54336 0.0
C1294 C 0.27123 0.3785 0.5869 0.0
C1295 C 0.37961 0.45907 0.56536 0.0
H1296 H 0.33224 0.48875 0.63077 0.0
H1297 H 0.39437 0.38647 0.62986 0.0
H1298 H 0.31307 0.49837 0.58611 0.0
H1299 H 0.2745 0.46917 0.59214 0.0
H1300 H 0.28968 0.50516 0.60766 0.0
H1301 H 0.39537 0.34711 0.60402 0.0
H1302 H 0.35437 0.34809 0.58968 0.0
H1303 H 0.3946 0.3745 0.58329 0.0
H1304 H 0.2577 0.37603 0.5506 0.0
H1305 H 0.34857 0.44454 0.53243 0.0
H1306 H 0.26053 0.40018 0.59641 0.0
H1307 H 0.28912 0.35929 0.59498 0.0
H1308 H 0.24714 0.36254 0.58145 0.0
H1309 H 0.37498 0.47843 0.57695 0.0
H1310 H 0.38788 0.47584 0.55326 0.0
H1311 H 0.40313 0.44035 0.56919 0.0
C1312 C 0.8786 1.01478 0.30426 0.0
C1313 C 0.89427 0.0389 0.29105 0.0
C1314 C 0.87552 0.02474 0.32299 0.0
C1315 C 0.88652 0.06084 0.32912 0.0
C1316 C 0.90338 0.0849 0.31599 0.0
C1317 C 0.90739 0.0736 0.29749 0.0
C1318 C 0.86048 0.99568 0.33597 0.0
C1319 C 0.9181 0.12275 0.32134 0.0
C1320 C 0.83331 0.09956 0.37105 0.0
C1321 C 0.86177 0.10918 0.38341 0.0
C1322 C 0.84069 0.08243 0.35406 0.0
C1323 C 0.87813 0.07455 0.34859 0.0
C1324 C 0.90698 0.08168 0.36168 0.0
C1325 C 0.89854 0.09913 0.37873 0.0
C1326 C 0.80744 0.07219 0.34244 0.0
C1327 C 0.94706 0.07067 0.35821 0.0
H1328 H 0.86812 0.98781 0.30009 0.0
H1329 H 0.92116 0.0924 0.28808 0.0
H1330 H 0.86388 1.00329 0.35055 0.0
H1331 H 0.83041 0.99104 0.33306 0.0
H1332 H 0.87495 0.96863 0.33359 0.0
H1333 H 0.92116 0.14139 0.30931 0.0
H1334 H 0.89984 0.13647 0.3316 0.0
H1335 H 0.94629 0.11936 0.32738 0.0
H1336 H 0.80454 0.10571 0.37465 0.0
H1337 H 0.92094 0.10566 0.38814 0.0
H1338 H 0.7979 0.04388 0.34637 0.0
H1339 H 0.814 0.07206 0.32769 0.0
H1340 H 0.7835 0.09139 0.34489 0.0
H1341 H 0.95081 0.05363 0.3457 0.0
H1342 H 0.95785 0.05449 0.37004 0.0
H1343 H 0.96444 0.0962 0.35716 0.0
C1344 C 0.18589 0.6465 0.12533 0.0
C1345 C 0.18735 0.61012 0.13254 0.0
C1346 C 0.19935 0.6546 0.10737 0.0
C1347 C 0.21533 0.62591 0.09626 0.0
C1348 C 0.21786 0.58951 0.10387 0.0
C1349 C 0.20362 0.58213 0.12157 0.0
C1350 C 0.19513 0.69368 0.09999 0.0
C1351 C 0.23496 0.5578 0.09312 0.0
C1352 C 0.21764 0.63043 0.04328 0.0
C1353 C 0.25459 0.64152 0.03934 0.0
C1354 C 0.20433 0.62659 0.06151 0.0
C1355 C 0.22843 0.63317 0.07662 0.0
C1356 C 0.26574 0.64438 0.07273 0.0
C1357 C 0.27811 0.64875 0.05437 0.0
C1358 C 0.16423 0.61522 0.0646 0.0
C1359 C 0.29308 0.65094 0.08805 0.0
H1360 H 0.17264 0.66828 0.13333 0.0
H1361 H 0.20475 0.55381 0.12679 0.0
H1362 H 0.22258 0.70433 0.09527 0.0
H1363 H 0.17626 0.6934 0.08798 0.0
H1364 H 0.18355 0.71324 0.11033 0.0
H1365 H 0.237 0.53166 0.10126 0.0
H1366 H 0.21785 0.55216 0.08081 0.0
H1367 H 0.26337 0.56555 0.08837 0.0
H1368 H 0.19874 0.62517 0.03203 0.0
H1369 H 0.30675 0.657 0.05178 0.0
H1370 H 0.1502 0.63539 0.07386 0.0
H1371 H 0.16331 0.5875 0.07135 0.0
H1372 H 0.14817 0.61366 0.05165 0.0
H1373 H 0.28176 0.67204 0.09767 0.0
H1374 H 0.32071 0.66059 0.083 0.0
H1375 H 0.29717 0.62469 0.09589 0.0
C1376 C 0.64472 0.97255 0.79481 0.0
C1377 C 0.65585 1.00869 0.78936 0.0
C1378 C 0.64904 0.95953 0.81303 0.0
C1379 C 0.66504 0.98281 0.82662 0.0
C1380 C 0.67595 0.01944 0.82133 0.0
C1381 C 0.67132 0.03178 0.80298 0.0
C1382 C 0.63726 0.9202 0.81761 0.0
C1383 C 0.69321 0.04557 0.83505 0.0
C1384 C 0.65622 0.95469 0.878 0.0
C1385 C 0.69058 0.93665 0.88131 0.0
C1386 C 0.64751 0.97011 0.86048 0.0
C1387 C 0.67359 0.96763 0.84574 0.0
C1388 C 0.70826 0.94971 0.84917 0.0
C1389 C 0.71611 0.93471 0.86662 0.0
C1390 C 0.61017 0.98883 0.85769 0.0
C1391 C 0.7373 0.94591 0.83428 0.0
H1392 H 0.63333 0.95376 0.78468 0.0
H1393 H 0.67967 0.05988 0.79938 0.0
H1394 H 0.66219 0.90333 0.82133 0.0
H1395 H 0.61829 0.92029 0.82962 0.0
H1396 H 0.62284 0.90635 0.80604 0.0
H1397 H 0.69808 0.07385 0.8293 0.0
H1398 H 0.67486 0.04813 0.84722 0.0
H1399 H 0.72036 0.03402 0.83977 0.0
H1400 H 0.63603 0.95649 0.88901 0.0
H1401 H 0.74278 0.92107 0.86865 0.0
H1402 H 0.59422 0.97384 0.847 0.0
H1403 H 0.6143 0.01786 0.85279 0.0
H1404 H 0.59323 0.98953 0.87041 0.0
H1405 H 0.72577 0.92949 0.82277 0.0
H1406 H 0.76324 0.93196 0.83914 0.0
H1407 H 0.74474 0.97385 0.82886 0.0
C1408 C 0.45243 0.2306 0.13532 0.0
C1409 C 0.42668 0.24234 0.14871 0.0
C1410 C 0.48921 0.24531 0.13445 0.0
C1411 C 0.50078 0.27336 0.14694 0.0
C1412 C 0.47446 0.28606 0.16013 0.0
C1413 C 0.43824 0.27019 0.161 0.0
C1414 C 0.5161 0.22996 0.12043 0.0
C1415 C 0.48467 0.3163 0.17354 0.0
C1416 C 0.60498 0.28554 0.15887 0.0
C1417 C 0.61615 0.31597 0.14796 0.0
C1418 C 0.56821 0.27115 0.15834 0.0
C1419 C 0.54081 0.28786 0.14692 0.0
C1420 C 0.55183 0.31862 0.13582 0.0
C1421 C 0.58926 0.33193 0.13629 0.0
C1422 C 0.55869 0.2379 0.17013 0.0
C1423 C 0.52379 0.33805 0.12371 0.0
H1424 H 0.44421 0.20902 0.1258 0.0
H1425 H 0.41878 0.27986 0.17134 0.0
H1426 H 0.52724 0.2529 0.11184 0.0
H1427 H 0.54027 0.21675 0.12743 0.0
H1428 H 0.50285 0.20892 0.1114 0.0
H1429 H 0.46039 0.32532 0.18196 0.0
H1430 H 0.50699 0.30611 0.1828 0.0
H1431 H 0.49586 0.34094 0.16616 0.0
H1432 H 0.62529 0.27257 0.16786 0.0
H1433 H 0.59718 0.35551 0.12786 0.0
H1434 H 0.54683 0.21527 0.1616 0.0
H1435 H 0.53708 0.24581 0.1803 0.0
H1436 H 0.58343 0.22677 0.17754 0.0
H1437 H 0.51158 0.31788 0.11392 0.0
H1438 H 0.5364 0.36145 0.1159 0.0
H1439 H 0.50046 0.34915 0.13213 0.0
C1440 C 0.53447 0.69164 0.41306 0.0
C1441 C 0.56493 0.68133 0.40193 0.0
C1442 C 0.51935 0.72831 0.41282 0.0
C1443 C 0.53571 0.75646 0.4017 0.0
C1444 C 0.56688 0.74631 0.39064 0.0
C1445 C 0.58053 0.709 0.39062 0.0
C1446 C 0.48544 0.73681 0.42439 0.0
C1447 C 0.5864 0.77514 0.37905 0.0
C1448 C 0.48032 0.84608 0.38911 0.0
C1449 C 0.49141 0.87152 0.40268 0.0
C1450 C 0.49393 0.80876 0.38877 0.0
C1451 C 0.5206 0.79639 0.40189 0.0
C1452 C 0.53244 0.82231 0.41537 0.0
C1453 C 0.51731 0.85895 0.4158 0.0
C1454 C 0.47915 0.78227 0.37453 0.0
C1455 C 0.56156 0.81147 0.42932 0.0
H1456 H 0.52184 0.67066 0.42176 0.0
H1457 H 0.60418 0.70171 0.38205 0.0
H1458 H 0.49256 0.75784 0.43492 0.0
H1459 H 0.46296 0.74897 0.41578 0.0
H1460 H 0.47442 0.71156 0.43136 0.0
H1461 H 0.61097 0.76341 0.37171 0.0
H1462 H 0.5667 0.78688 0.36885 0.0
H1463 H 0.59589 0.7986 0.38776 0.0
H1464 H 0.46018 0.8551 0.37896 0.0
H1465 H 0.52644 0.87817 0.42631 0.0
H1466 H 0.46686 0.75739 0.38127 0.0
H1467 H 0.50233 0.77228 0.36571 0.0
H1468 H 0.45751 0.79545 0.36574 0.0
H1469 H 0.55086 0.78862 0.43809 0.0
H1470 H 0.56956 0.83526 0.4382 0.0
H1471 H 0.58699 0.80082 0.42232 0.0
C1472 C 0.94139 0.77021 0.66247 0.0
C1473 C 0.93046 0.74084 0.65089 0.0
C1474 C 0.97793 0.78546 0.66186 0.0
C1475 C 1.0052 0.7707 0.64968 0.0
C1476 C 0.99436 0.74096 0.63799 0.0
C1477 C 0.95733 0.7268 0.63859 0.0
C1478 C 0.98738 0.81752 0.67437 0.0
C1479 C 0.0222 0.72347 0.62506 0.0
C1480 C 0.09306 0.82889 0.6377 0.0
C1481 C 0.1199 0.81532 0.6501 0.0
C1482 C 0.05595 0.81485 0.63742 0.0
C1483 C 0.04507 0.78572 0.64953 0.0
C1484 C 0.07237 0.77138 0.66178 0.0
C1485 C 0.10894 0.78651 0.66206 0.0
C1486 C 0.02806 0.8318 0.62436 0.0
C1487 C 0.06298 0.73993 0.67471 0.0
H1488 H 0.92118 0.78161 0.67201 0.0
H1489 H 0.94968 0.70399 0.62964 0.0
H1490 H 1.00964 0.80891 0.68404 0.0
H1491 H 0.9984 0.8413 0.66628 0.0
H1492 H 0.9628 0.82727 0.68235 0.0
H1493 H 1.00972 0.70064 0.61684 0.0
H1494 H 0.03346 0.74493 0.61562 0.0
H1495 H 0.04619 0.71201 0.63289 0.0
H1496 H 0.10078 0.85125 0.62846 0.0
H1497 H 0.12916 0.77543 0.67167 0.0
H1498 H 1.00416 0.84367 0.63212 0.0
H1499 H 1.0167 0.80994 0.61522 0.0
H1500 H 0.04055 0.85421 0.61583 0.0
H1501 H 0.04082 0.74903 0.68436 0.0
H1502 H 0.08762 0.73049 0.68273 0.0
H1503 H 0.05184 0.7158 0.66696 0.0
C1504 C 1.01525 0.36114 0.88811 0.0
C1505 C 0.98729 0.37121 0.90071 0.0
C1506 C 0.03079 0.32456 0.88778 0.0
C1507 C 1.01698 0.29637 0.89973 0.0
C1508 C 0.98779 0.30626 0.91203 0.0
C1509 C 0.9741 0.34344 0.91267 0.0
C1510 C 0.0627 0.31636 0.87489 0.0
C1511 C 0.9707 0.27744 0.92453 0.0
C1512 C 0.0363 0.19267 0.88768 0.0
C1513 C 0.06317 0.18213 0.90072 0.0
C1514 C 0.02075 0.22924 0.88733 0.0
C1515 C 0.03348 0.25698 0.89975 0.0
C1516 C 0.06155 0.24662 0.91255 0.0
C1517 C 0.07523 0.20943 0.91316 0.0
C1518 C 0.99001 0.23788 0.87388 0.0
C1519 C 0.07744 0.27495 0.92562 0.0
H1520 H 0.02596 0.3823 0.87891 0.0
H1521 H 0.95239 0.3507 0.9224 0.0
H1522 H 0.08627 0.3033 0.88243 0.0
H1523 H 0.05356 0.29623 0.86433 0.0
H1524 H 0.07299 0.34193 0.86794 0.0
H1525 H 0.94545 0.2882 0.93167 0.0
H1526 H 0.96289 0.2522 0.91664 0.0
H1527 H 0.9914 0.2687 0.93496 0.0
H1528 H 0.02643 0.17187 0.8781 0.0
H1529 H 0.09608 0.20183 0.92325 0.0
H1530 H 1.00028 0.25791 0.86349 0.0
H1531 H 0.96598 0.25121 0.88097 0.0
H1532 H 0.97998 0.21247 0.86675 0.0
H1533 H 0.08594 0.3005 0.91811 0.0
H1534 H 0.10202 0.26392 0.93319 0.0
H1535 H 0.05579 0.28329 0.93569 0.0
C1536 C 0.59337 0.82391 0.93053 0.0
C1537 C 0.62005 0.81141 0.91775 0.0
C1538 C 0.55627 0.80981 0.93076 0.0
C1539 C 0.54521 0.7816 0.91823 0.0
C1540 C 0.57238 0.76825 0.90561 0.0
C1541 C 0.60894 0.78351 0.90537 0.0
C1542 C 0.52856 0.82583 0.94421 0.0
C1543 C 0.56282 0.73774 0.89223 0.0
C1544 C 0.45675 0.72285 0.92856 0.0
C1545 C 0.43001 0.738 0.91654 0.0
C1546 C 0.49401 0.73649 0.92923 0.0
C1547 C 0.50519 0.76685 0.91794 0.0
C1548 C 0.47801 0.78276 0.90608 0.0
C1549 C 0.4413 0.76798 0.90536 0.0
C1550 C 0.52175 0.71776 0.94178 0.0
C1551 C 0.48772 0.81558 0.89406 0.0
H1552 H 0.60118 0.84558 0.9401 0.0
H1553 H 0.62904 0.77327 0.89546 0.0
H1554 H 0.50467 0.83844 0.93674 0.0
H1555 H 0.51715 0.80332 0.95299 0.0
H1556 H 0.54122 0.84749 0.9531 0.0
H1557 H 0.58745 0.72866 0.88408 0.0
H1558 H 0.55143 0.71321 0.89961 0.0
H1559 H 0.54082 0.74767 0.88271 0.0
H1560 H 0.44884 0.69954 0.93718 0.0
H1561 H 0.42119 0.78025 0.89604 0.0
H1562 H 0.53327 0.73838 0.95154 0.0
H1563 H 0.54558 0.70667 0.93369 0.0
H1564 H 0.50908 0.69446 0.94964 0.0
H1565 H 0.49907 0.83865 0.90247 0.0
H1566 H 0.46318 0.82617 0.88631 0.0
H1567 H 0.5098 0.80742 0.88417 0.0
C1568 C 0.51721 0.36111 0.65216 0.0
C1569 C 0.48816 0.37133 0.66416 0.0
C1570 C 0.53317 0.32482 0.65234 0.0
C1571 C 0.51904 0.29696 0.66433 0.0
C1572 C 0.48922 0.30698 0.67626 0.0
C1573 C 0.47474 0.34394 0.67627 0.0
C1574 C 0.56554 0.31642 0.63974 0.0
C1575 C 0.47194 0.27834 0.68879 0.0
C1576 C 0.53779 0.19422 0.65098 0.0
C1577 C 0.56546 0.18293 0.66348 0.0
C1578 C 0.52196 0.23055 0.65141 0.0
C1579 C 0.53498 0.25741 0.66416 0.0
C1580 C 0.56345 0.24631 0.67662 0.0
C1581 C 0.57768 0.20924 0.67639 0.0
C1582 C 0.49083 0.24002 0.63828 0.0
C1583 C 0.57951 0.2739 0.69001 0.0
H1584 H 0.52803 0.38183 0.64274 0.0
H1585 H 0.45209 0.35112 0.68548 0.0
H1586 H 0.58936 0.30491 0.64768 0.0
H1587 H 0.55731 0.29492 0.62964 0.0
H1588 H 0.57513 0.34158 0.63221 0.0
H1589 H 0.44813 0.28991 0.69676 0.0
H1590 H 0.46185 0.25424 0.68068 0.0
H1591 H 0.49321 0.26754 0.69847 0.0
H1592 H 0.52781 0.17421 0.64103 0.0
H1593 H 0.5992 0.20112 0.68603 0.0
H1594 H 0.49989 0.26247 0.62884 0.0
H1595 H 0.46619 0.2507 0.64592 0.0
H1596 H 0.48208 0.21554 0.63004 0.0
H1597 H 0.59035 0.29862 0.68256 0.0
H1598 H 0.60254 0.26165 0.69826 0.0
H1599 H 0.55734 0.28393 0.69941 0.0
C1600 C 0.11308 0.28301 0.40594 0.0
C1601 C 0.12474 0.31211 0.41752 0.0
C1602 C 0.0764 0.26826 0.40669 0.0
C1603 C 0.04965 0.28322 0.41906 0.0
C1604 C 0.06127 0.31246 0.4309 0.0
C1605 C 0.0985 0.32618 0.43013 0.0
C1606 C 0.06617 0.23672 0.39402 0.0
C1607 C 0.03399 0.33003 0.44408 0.0
C1608 C 0.94609 0.26966 0.40587 0.0
C1609 C 0.9344 0.24022 0.41728 0.0
C1610 C 0.98274 0.28447 0.40673 0.0
C1611 C 1.00942 0.26919 0.41902 0.0
C1612 C 0.99778 0.23957 0.43067 0.0
C1613 C 0.96058 0.22582 0.42981 0.0
C1614 C 0.993 0.31641 0.39425 0.0
C1615 C 0.025 0.22163 0.44375 0.0
H1616 H 0.1328 0.27155 0.39618 0.0
H1617 H 0.10672 0.34877 0.43908 0.0
H1618 H 0.05437 0.2131 0.40195 0.0
H1619 H 0.04429 0.24618 0.38432 0.0
H1620 H 0.09055 0.22642 0.38604 0.0
H1621 H 0.04724 0.35183 0.45267 0.0
H1622 H 1.01052 0.34289 0.43639 0.0
H1623 H 0.02185 0.30839 0.45314 0.0
H1624 H 0.9264 0.28138 0.39618 0.0
H1625 H 0.95233 0.20297 0.43864 0.0
H1626 H 1.01494 0.30727 0.38449 0.0
H1627 H 1.00475 0.33979 0.40233 0.0
H1628 H 0.96865 0.32694 0.38635 0.0
H1629 H 0.04853 0.20903 0.43599 0.0
H1630 H 1.01172 0.19956 0.4522 0.0
H1631 H 0.03705 0.243 0.45295 0.0
C1632 C 0.07441 0.70814 0.15464 0.0
C1633 C 0.06172 0.68054 0.16682 0.0
C1634 C 0.06077 0.74536 0.15528 0.0
C1635 C 0.03217 0.75552 0.16787 0.0
C1636 C 0.01886 0.7275 0.18005 0.0
C1637 C 0.03428 0.69085 0.17966 0.0
C1638 C 0.07722 0.77394 0.14245 0.0
C1639 C 0.98744 0.73592 0.19319 0.0
C1640 C 1.01351 0.85971 0.17945 0.0
C1641 C 0.98591 0.86987 0.1667 0.0
C1642 C 0.02897 0.82306 0.1799 0.0
C1643 C 1.01559 0.79492 0.16785 0.0
C1644 C 0.98677 0.80489 0.15539 0.0
C1645 C 0.97306 0.84207 0.15469 0.0
C1646 C 0.06054 0.81478 0.19294 0.0
C1647 C 0.97021 0.77618 0.14272 0.0
H1648 H 0.09572 0.70074 0.14472 0.0
H1649 H 0.02388 0.66984 0.18902 0.0
H1650 H 0.05574 0.78324 0.13252 0.0
H1651 H 0.08624 0.79892 0.15022 0.0
H1652 H 0.10158 0.76278 0.13474 0.0
H1653 H 0.97945 0.71114 0.20144 0.0
H1654 H 0.99565 0.75869 0.20259 0.0
H1655 H 0.96254 0.74577 0.18551 0.0
H1656 H 0.02406 0.88086 0.18866 0.0
H1657 H 0.95165 0.84933 0.14483 0.0
H1658 H 0.0854 0.80503 0.18518 0.0
H1659 H 0.05251 0.79196 0.20239 0.0
H1660 H 0.06849 0.83958 0.20113 0.0
H1661 H 0.99157 0.76687 0.13271 0.0
H1662 H 0.94571 0.78721 0.13509 0.0
H1663 H 0.96138 0.75121 0.1506 0.0
C1664 C 0.22572 0.29126 0.13738 0.0
C1665 C 0.26396 0.28673 0.14101 0.0
C1666 C 0.20873 0.32676 0.13731 0.0
C1667 C 0.23041 0.35889 0.14108 0.0
C1668 C 0.26966 0.35476 0.14339 0.0
C1669 C 0.28597 0.31872 0.14336 0.0
C1670 C 0.16691 0.32941 0.13482 0.0
C1671 C 0.29404 0.38807 0.14728 0.0
C1672 C 0.18228 0.45303 0.13239 0.0
C1673 C 0.1692 0.46272 0.14989 0.0
C1674 C 0.20334 0.42019 0.12941 0.0
C1675 C 0.21126 0.39587 0.14421 0.0
C1676 C 0.1986 0.40579 0.16196 0.0
C1677 C 0.17804 0.43907 0.16459 0.0
C1678 C 0.21674 0.41127 0.11035 0.0
C1679 C 0.20626 0.38088 0.1782 0.0
H1680 H 0.20841 0.26659 0.13606 0.0
H1681 H 0.3153 0.31543 0.14674 0.0
H1682 H 0.15368 0.33763 0.14794 0.0
H1683 H 0.15981 0.3512 0.12461 0.0
H1684 H 0.15458 0.30251 0.13034 0.0
H1685 H 0.32425 0.38116 0.14612 0.0
H1686 H 0.28742 0.41129 0.13776 0.0
H1687 H 0.28852 0.39821 0.16134 0.0
H1688 H 0.17614 0.47122 0.12093 0.0
H1689 H 0.16841 0.44627 0.17818 0.0
H1690 H 0.20273 0.38567 0.10535 0.0
H1691 H 0.24725 0.40557 0.11044 0.0
H1692 H 0.21096 0.43435 0.10059 0.0
H1693 H 0.19528 0.35244 0.17562 0.0
H1694 H 0.19336 0.39174 0.19095 0.0
H1695 H 0.23685 0.37825 0.18035 0.0
C1696 C 0.35194 0.42797 0.37905 0.0
C1697 C 0.34326 0.41539 0.39678 0.0
C1698 C 0.38478 0.44846 0.37541 0.0
C1699 C 0.41003 0.45648 0.38978 0.0
C1700 C 0.40129 0.44402 0.4077 0.0
C1701 C 0.36811 0.42386 0.41099 0.0
C1702 C 0.39257 0.46134 0.35615 0.0
C1703 C 0.42737 0.45153 0.42343 0.0
C1704 C 0.51428 0.47288 0.38235 0.0
C1705 C 0.51785 0.51111 0.3861 0.0
C1706 C 0.47915 0.45525 0.38227 0.0
C1707 C 0.44643 0.47626 0.38612 0.0
C1708 C 0.44956 0.51552 0.38838 0.0
C1709 C 0.48523 0.53248 0.38839 0.0
C1710 C 0.47756 0.41347 0.37971 0.0
C1711 C 0.41558 0.53922 0.39233 0.0
H1712 H 0.3329 0.42201 0.36793 0.0
H1713 H 0.36181 0.41447 0.42473 0.0
H1714 H 0.39733 0.49193 0.35594 0.0
H1715 H 0.41846 0.44782 0.351 0.0
H1716 H 0.36928 0.45469 0.34668 0.0
H1717 H 0.41667 0.44019 0.43656 0.0
H1718 H 0.45507 0.43877 0.42057 0.0
H1719 H 0.4317 0.48202 0.42498 0.0
H1720 H 0.53941 0.45605 0.38101 0.0
H1721 H 0.48772 0.56179 0.39185 0.0
H1722 H 0.45513 0.40591 0.36996 0.0
H1723 H 0.47087 0.39996 0.39296 0.0
H1724 H 0.50449 0.4019 0.37464 0.0
H1725 H 0.39223 0.53174 0.38308 0.0
H1726 H 0.42157 0.56948 0.39082 0.0
H1727 H 0.40608 0.53401 0.40653 0.0
C1728 C 0.3244 0.76247 0.63969 0.0
C1729 C 0.28597 0.76694 0.64285 0.0
C1730 C 0.34156 0.72707 0.64022 0.0
C1731 C 0.31983 0.695 0.64409 0.0
C1732 C 0.28047 0.69902 0.646 0.0
C1733 C 0.26401 0.73496 0.64539 0.0
C1734 C 0.38349 0.7245 0.63813 0.0
C1735 C 0.25608 0.66569 0.64993 0.0
C1736 C 0.36779 0.60112 0.63525 0.0
C1737 C 0.38049 0.59083 0.65274 0.0
C1738 C 0.34694 0.63404 0.63236 0.0
C1739 C 0.33885 0.65797 0.64724 0.0
C1740 C 0.35113 0.64757 0.66499 0.0
C1741 C 0.37143 0.61404 0.66755 0.0
C1742 C 0.33398 0.64347 0.61328 0.0
C1743 C 0.34336 0.67221 0.68129 0.0
H1744 H 0.34165 0.78716 0.63827 0.0
H1745 H 0.23452 0.73824 0.64846 0.0
H1746 H 0.39613 0.71612 0.65136 0.0
H1747 H 0.39106 0.70282 0.62796 0.0
H1748 H 0.39602 0.75144 0.6338 0.0
H1749 H 0.22584 0.67275 0.64923 0.0
H1750 H 0.26213 0.64292 0.64009 0.0
H1751 H 0.2623 0.65481 0.66379 0.0
H1752 H 0.37401 0.58328 0.62368 0.0
H1753 H 0.38077 0.60637 0.68113 0.0
H1754 H 0.34804 0.66925 0.60848 0.0
H1755 H 0.30345 0.64909 0.61326 0.0
H1756 H 0.34005 0.62071 0.6034 0.0
H1757 H 0.3542 0.70075 0.67875 0.0
H1758 H 0.35631 0.66123 0.69399 0.0
H1759 H 0.31275 0.67468 0.68347 0.0
C1760 C 0.06946 0.51594 0.89479 0.0
C1761 C 0.03601 0.53635 0.89351 0.0
C1762 C 0.10458 0.53395 0.89376 0.0
C1763 C 0.10635 0.57333 0.89146 0.0
C1764 C 0.0726 0.5934 0.88868 0.0
C1765 C 0.03805 0.57476 0.88987 0.0
C1766 C 0.13963 0.5112 0.89665 0.0
C1767 C 0.0727 0.63519 0.88601 0.0
C1768 C 0.18621 0.62762 0.91399 0.0
C1769 C 0.20952 0.6363 0.89914 0.0
C1770 C 0.15305 0.6069 0.91166 0.0
C1771 C 0.14262 0.59414 0.89404 0.0
C1772 C 0.16614 0.60261 0.87899 0.0
C1773 C 0.1991 0.62356 0.88169 0.0
C1774 C 0.12896 0.59885 0.92815 0.0
C1775 C 0.15643 0.58964 0.85998 0.0
H1776 H 0.06818 0.48649 0.89818 0.0
H1777 H 1.01233 0.59086 0.88933 0.0
H1778 H 0.16146 0.51914 0.8866 0.0
H1779 H 0.15092 0.51693 0.91048 0.0
H1780 H 0.13428 0.48076 0.89549 0.0
H1781 H 0.0449 0.64595 0.88172 0.0
H1782 H 0.08053 0.64897 0.89902 0.0
H1783 H 0.09372 0.64332 0.8756 0.0
H1784 H 0.19383 0.6371 0.92753 0.0
H1785 H 0.21688 0.62972 0.87008 0.0
H1786 H 0.1251 0.56828 0.92969 0.0
H1787 H 0.10084 0.61143 0.92625 0.0
H1788 H 0.1412 0.60997 0.94096 0.0
H1789 H 0.15273 0.5589 0.85986 0.0
H1790 H 0.17825 0.59717 0.84982 0.0
H1791 H 0.12949 0.60227 0.85566 0.0
C1792 C 0.82328 0.76115 0.9303 0.0
C1793 C 0.78485 0.76563 0.92708 0.0
C1794 C 0.8405 0.72572 0.93005 0.0
C1795 C 0.81887 0.69347 0.92645 0.0
C1796 C 0.77949 0.69749 0.92455 0.0
C1797 C 0.76296 0.7335 0.92483 0.0
C1798 C 0.88245 0.7233 0.93206 0.0
C1799 C 0.7551 0.66407 0.92093 0.0
C1800 C 0.87078 0.61301 0.90267 0.0
C1801 C 0.88045 0.5896 0.91736 0.0
C1802 C 0.85011 0.64625 0.90539 0.0
C1803 C 0.83813 0.65644 0.92323 0.0
C1804 C 0.84692 0.63237 0.93802 0.0
C1805 C 0.86809 0.59958 0.93495 0.0
C1806 C 0.84163 0.67086 0.88915 0.0
C1807 C 0.83426 0.64146 0.95718 0.0
H1808 H 0.84054 0.78587 0.93154 0.0
H1809 H 0.73347 0.73665 0.92178 0.0
H1810 H 0.89013 0.70171 0.94227 0.0
H1811 H 0.89507 0.7149 0.91882 0.0
H1812 H 0.89488 0.75032 0.93629 0.0
H1813 H 0.72492 0.67084 0.92243 0.0
H1814 H 0.76 0.65398 0.9068 0.0
H1815 H 0.76228 0.64087 0.93036 0.0
H1816 H 0.87984 0.60564 0.88901 0.0
H1817 H 0.87482 0.58164 0.94642 0.0
H1818 H 0.85292 0.69928 0.89145 0.0
H1819 H 0.81094 0.67365 0.88741 0.0
H1820 H 0.85371 0.65967 0.87627 0.0
H1821 H 0.84822 0.66727 0.96194 0.0
H1822 H 0.84068 0.6186 0.96697 0.0
H1823 H 0.80369 0.64686 0.95738 0.0
C1824 C 0.69717 0.62737 0.68251 0.0
C1825 C 0.70971 0.63692 0.66488 0.0
C1826 C 0.66333 0.60797 0.68531 0.0
C1827 C 0.64103 0.59768 0.67014 0.0
C1828 C 0.65368 0.60695 0.6523 0.0
C1829 C 0.68769 0.62634 0.64989 0.0
C1830 C 0.65121 0.59886 0.70456 0.0
C1831 C 0.63101 0.59668 0.63569 0.0
C1832 C 0.56461 0.52258 0.67267 0.0
C1833 C 0.53195 0.54441 0.6727 0.0
C1834 C 0.6004 0.53937 0.67274 0.0
C1835 C 0.60368 0.57893 0.67286 0.0
C1836 C 0.57068 0.60079 0.67421 0.0
C1837 C 0.53545 0.58334 0.67399 0.0
C1838 C 0.63461 0.51481 0.67137 0.0
C1839 C 0.57241 0.64289 0.6746 0.0
H1840 H 0.71385 0.63508 0.69426 0.0
H1841 H 0.69696 0.63332 0.63621 0.0
H1842 H 0.62452 0.61339 0.70768 0.0
H1843 H 0.64604 0.56846 0.70592 0.0
H1844 H 0.67236 0.60723 0.71486 0.0
H1845 H 0.64513 0.60466 0.62274 0.0
H1846 H 0.62582 0.56617 0.63552 0.0
H1847 H 0.60337 0.6108 0.63625 0.0
H1848 H 0.56224 0.49258 0.67113 0.0
H1849 H 0.51035 0.60041 0.67363 0.0
H1850 H 0.65604 0.52357 0.68142 0.0
H1851 H 0.64713 0.51775 0.65757 0.0
H1852 H 0.62792 0.48491 0.67369 0.0
H1853 H 0.59265 0.65241 0.68506 0.0
H1854 H 0.54473 0.65571 0.67755 0.0
H1855 H 0.58231 0.65335 0.66117 0.0
C1856 C 0.72464 0.28765 0.42029 0.0
C1857 C 0.76379 0.28524 0.42063 0.0
C1858 C 0.70596 0.32216 0.42162 0.0
C1859 C 0.72687 0.35551 0.42324 0.0
C1860 C 0.76637 0.35297 0.42511 0.0
C1861 C 0.78442 0.31785 0.42372 0.0
C1862 C 0.66395 0.32306 0.41964 0.0
C1863 C 0.78985 0.38761 0.4271 0.0
C1864 C 0.6831 0.44138 0.40045 0.0
C1865 C 0.66648 0.46013 0.41523 0.0
C1866 C 0.70335 0.40792 0.40297 0.0
C1867 C 0.70766 0.39268 0.42075 0.0
C1868 C 0.69156 0.41184 0.43579 0.0
C1869 C 0.67104 0.44508 0.43285 0.0
C1870 C 0.71953 0.38843 0.38646 0.0
C1871 C 0.69565 0.39699 0.45498 0.0
H1872 H 0.70862 0.26261 0.41755 0.0
H1873 H 0.8147 0.31637 0.42352 0.0
H1874 H 0.65115 0.34111 0.43026 0.0
H1875 H 0.65651 0.33508 0.40614 0.0
H1876 H 0.65148 0.29476 0.42066 0.0
H1877 H 0.81892 0.38088 0.43133 0.0
H1878 H 0.7909 0.40258 0.41384 0.0
H1879 H 0.77727 0.40689 0.43727 0.0
H1880 H 0.67986 0.45258 0.38678 0.0
H1881 H 0.65867 0.45936 0.44443 0.0
H1882 H 0.70674 0.3604 0.38501 0.0
H1883 H 0.75005 0.38426 0.38824 0.0
H1884 H 0.71472 0.40433 0.37364 0.0
H1885 H 0.68123 0.36972 0.45618 0.0
H1886 H 0.68377 0.41635 0.46533 0.0
H1887 H 0.72559 0.3921 0.45815 0.0
C1888 C 0.86257 0.42348 0.14869 0.0
C1889 C 0.83748 0.41518 0.16293 0.0
C1890 C 0.89554 0.44416 0.15176 0.0
C1891 C 0.90385 0.45775 0.16951 0.0
C1892 C 0.87838 0.44995 0.18392 0.0
C1893 C 0.8458 0.42867 0.18051 0.0
C1894 C 0.92177 0.45118 0.13595 0.0
C1895 C 0.88564 0.46399 0.203 0.0
C1896 C 1.008 0.4765 0.17711 0.0
C1897 C 1.01115 0.51473 0.17315 0.0
C1898 C 0.97311 0.45824 0.17718 0.0
C1899 C 0.94006 0.47842 0.17292 0.0
C1900 C 0.94276 0.5176 0.17003 0.0
C1901 C 0.97819 0.53528 0.17019 0.0
C1902 C 0.97215 0.41659 0.18031 0.0
C1903 C 0.90847 0.54045 0.16558 0.0
H1904 H 0.85665 0.41349 0.13504 0.0
H1905 H 0.82661 0.42291 0.19162 0.0
H1906 H 0.92431 0.48164 0.13349 0.0
H1907 H 0.95012 0.44046 0.13923 0.0
H1908 H 0.91216 0.43764 0.12315 0.0
H1909 H 0.86244 0.45723 0.21254 0.0
H1910 H 0.91183 0.45143 0.20834 0.0
H1911 H 0.88961 0.4947 0.20279 0.0
H1912 H 0.03334 0.46019 0.17888 0.0
H1913 H 0.98033 0.56454 0.16657 0.0
H1914 H 0.9656 0.40228 0.16727 0.0
H1915 H 0.94986 0.40925 0.19022 0.0
H1916 H 0.99925 0.40567 0.18548 0.0
H1917 H 0.89617 0.5307 0.15254 0.0
H1918 H 0.91479 0.57069 0.16434 0.0
H1919 H 0.88696 0.53653 0.17634 0.0
C1920 C 0.72363 0.7899 0.64079 0.0
C1921 C 0.76249 0.78609 0.64268 0.0
C1922 C 0.70636 0.82523 0.63982 0.0
C1923 C 0.72838 0.85796 0.64096 0.0
C1924 C 0.76796 0.85428 0.64144 0.0
C1925 C 0.78456 0.81838 0.64232 0.0
C1926 C 0.66422 0.82737 0.63916 0.0
C1927 C 0.79269 0.88822 0.6425 0.0
C1928 C 0.67886 0.95123 0.63142 0.0
C1929 C 0.66945 0.96349 0.6491 0.0
C1930 C 0.69888 0.91767 0.62854 0.0
C1931 C 0.70967 0.89536 0.64367 0.0
C1932 C 0.70062 0.90783 0.66155 0.0
C1933 C 0.68084 0.94161 0.66403 0.0
C1934 C 0.70803 0.90582 0.60927 0.0
C1935 C 0.71124 0.88506 0.67813 0.0
H1936 H 0.70637 0.76509 0.64147 0.0
H1937 H 0.81449 0.81578 0.64432 0.0
H1938 H 0.65344 0.83733 0.65252 0.0
H1939 H 0.65499 0.84765 0.62862 0.0
H1940 H 0.65141 0.79984 0.63617 0.0
H1941 H 0.82252 0.88117 0.63995 0.0
H1942 H 0.78367 0.90966 0.63248 0.0
H1943 H 0.79032 0.90077 0.65631 0.0
H1944 H 0.67056 0.96789 0.61973 0.0
H1945 H 0.67387 0.95063 0.67775 0.0
H1946 H 0.69313 0.87954 0.60601 0.0
H1947 H 0.73841 0.90005 0.60795 0.0
H1948 H 0.7 0.92733 0.59905 0.0
H1949 H 0.69721 0.8575 0.6776 0.0
H1950 H 0.70336 0.89907 0.69111 0.0
H1951 H 0.74183 0.87981 0.6782 0.0
C1952 C 0.85938 0.933 0.9164 0.0
C1953 C 0.83671 0.9228 0.90158 0.0
C1954 C 0.89238 0.95386 0.91383 0.0
C1955 C 0.90288 0.96565 0.89602 0.0
C1956 C 0.87947 0.95645 0.88109 0.0
C1957 C 0.847 0.93491 0.884 0.0
C1958 C 0.91645 0.96265 0.93019 0.0
C1959 C 0.88892 0.96906 0.86196 0.0
C1960 C 0.97911 0.04085 0.89517 0.0
C1961 C 1.01151 0.01902 0.8932 0.0
C1962 C 0.94324 0.0243 0.89501 0.0
C1963 C 0.93973 0.98499 0.89299 0.0
C1964 C 0.97235 0.96345 0.88969 0.0
C1965 C 1.00763 0.9807 0.88985 0.0
C1966 C 0.90938 0.04856 0.89836 0.0
C1967 C 0.97042 0.92155 0.88763 0.0
H1968 H 0.85171 0.92405 0.93004 0.0
H1969 H 0.82952 0.92775 0.87245 0.0
H1970 H 0.94528 0.95201 0.92799 0.0
H1971 H 0.91833 0.99332 0.93202 0.0
H1972 H 0.90531 0.95021 0.94299 0.0
H1973 H 0.86642 0.96236 0.85206 0.0
H1974 H 0.89383 0.99963 0.86175 0.0
H1975 H 0.91514 0.95535 0.85736 0.0
H1976 H 0.98189 0.07026 0.89836 0.0
H1977 H 0.03262 0.96356 0.88882 0.0
H1978 H 0.89927 0.04424 0.91253 0.0
H1979 H 0.88632 0.04086 0.88898 0.0
H1980 H 0.9158 0.07867 0.89656 0.0
H1981 H 0.96165 0.90889 0.9008 0.0
H1982 H 0.99776 0.90924 0.8836 0.0
H1983 H 0.94927 0.91382 0.87726 0.0
C1984 C 0.87557 0.11483 0.16429 0.0
C1985 C 0.8892 0.09353 0.14959 0.0
C1986 C 0.85644 0.14897 0.16142 0.0
C1987 C 0.85077 0.16258 0.14339 0.0
C1988 C 0.86535 0.14168 0.12854 0.0
C1989 C 0.88416 0.10759 0.13179 0.0
C1990 C 0.84179 0.17024 0.17772 0.0
C1991 C 0.86041 0.15495 0.10912 0.0
C1992 C 0.76552 0.22556 0.13576 0.0
C1993 C 0.78065 0.26169 0.13669 0.0
C1994 C 0.78802 0.19342 0.13758 0.0
C1995 C 0.82715 0.19698 0.14001 0.0
C1996 C 0.84302 0.23333 0.1398 0.0
C1997 C 0.81963 0.26522 0.13828 0.0
C1998 C 0.76949 0.15559 0.13792 0.0
C1999 C 0.88456 0.23866 0.14204 0.0
H2000 H 0.87933 0.10458 0.1781 0.0
H2001 H 0.89457 0.09169 0.12026 0.0
H2002 H 0.85605 0.19761 0.17865 0.0
H2003 H 0.81152 0.17596 0.17609 0.0
H2004 H 0.84618 0.15492 0.19075 0.0
H2005 H 0.87573 0.13715 0.09918 0.0
H2006 H 0.83029 0.15481 0.10551 0.0
H2007 H 0.87037 0.18412 0.10772 0.0
H2008 H 0.73545 0.22242 0.13472 0.0
H2009 H 0.8317 0.29285 0.13931 0.0
H2010 H 0.77418 0.14215 0.1514 0.0
H2011 H 0.7821 0.13716 0.12741 0.0
H2012 H 0.7389 0.15739 0.13547 0.0
H2013 H 0.89278 0.23126 0.15619 0.0
H2014 H 0.89314 0.26793 0.13933 0.0
H2015 H 0.90017 0.21986 0.13269 0.0
C2016 C 0.57431 0.02043 0.39127 0.0
C2017 C 0.54114 0.04112 0.38949 0.0
C2018 C 0.60957 0.03814 0.3907 0.0
C2019 C 0.61172 0.07745 0.38834 0.0
C2020 C 0.57837 0.09774 0.38489 0.0
C2021 C 0.54364 0.07939 0.3856 0.0
C2022 C 0.64425 1.0152 0.39426 0.0
C2023 C 0.57895 0.1395 0.38212 0.0
C2024 C 0.69029 0.13104 0.41217 0.0
C2025 C 0.71475 0.13921 0.39771 0.0
C2026 C 0.65707 0.11075 0.4093 0.0
C2027 C 0.64783 0.09797 0.39151 0.0
C2028 C 0.67251 0.10596 0.37686 0.0
C2029 C 0.70546 0.12647 0.38011 0.0
C2030 C 0.63167 0.10313 0.42535 0.0
C2031 C 0.66404 0.09292 0.35772 0.0
H2032 H 0.57263 0.99109 0.39483 0.0
H2033 H 0.51808 0.09568 0.38466 0.0
H2034 H 0.66689 0.02295 0.38462 0.0
H2035 H 0.65447 0.0209 0.40828 0.0
H2036 H 0.6388 0.98479 0.39303 0.0
H2037 H 0.55161 0.15037 0.37723 0.0
H2038 H 0.58572 0.15337 0.39525 0.0
H2039 H 0.60091 0.14741 0.37214 0.0
H2040 H 0.69706 0.14056 0.42582 0.0
H2041 H 0.72415 0.13226 0.3688 0.0
H2042 H 0.62744 0.07262 0.42692 0.0
H2043 H 0.60382 0.11592 0.42291 0.0
H2044 H 0.64301 0.11433 0.43835 0.0
H2045 H 0.66005 0.06222 0.35759 0.0
H2046 H 0.68665 0.10015 0.34793 0.0
H2047 H 0.63756 0.10578 0.35292 0.0
C2048 C 0.27363 0.23511 0.42481 0.0
C2049 C 0.29457 0.26757 0.42176 0.0
C2050 C 0.29143 0.19992 0.42661 0.0
C2051 C 0.33102 0.19714 0.42524 0.0
C2052 C 0.35216 0.23039 0.4237 0.0
C2053 C 0.33371 0.26496 0.4219 0.0
C2054 C 0.26766 0.16544 0.42847 0.0
C2055 C 0.39426 0.22927 0.42226 0.0
C2056 C 0.38571 0.10689 0.43537 0.0
C2057 C 0.39106 0.09201 0.41778 0.0
C2058 C 0.36533 0.14034 0.43814 0.0
C2059 C 0.35014 0.15983 0.42297 0.0
C2060 C 0.35522 0.14473 0.40522 0.0
C2061 C 0.37535 0.11116 0.40287 0.0
C2062 C 0.36042 0.15506 0.45729 0.0
C2063 C 0.33997 0.16446 0.38857 0.0
H2064 H 0.24338 0.23671 0.42425 0.0
H2065 H 0.35 0.28987 0.4192 0.0
H2066 H 0.26706 0.15045 0.41522 0.0
H2067 H 0.27966 0.1461 0.43877 0.0
H2068 H 0.23845 0.17237 0.43243 0.0
H2069 H 0.40679 0.2575 0.42345 0.0
H2070 H 0.40632 0.21108 0.43302 0.0
H2071 H 0.40242 0.21731 0.40885 0.0
H2072 H 0.39739 0.09236 0.44705 0.0
H2073 H 0.37916 0.10017 0.38921 0.0
H2074 H 0.33035 0.16009 0.46016 0.0
H2075 H 0.37492 0.18224 0.45866 0.0
H2076 H 0.3717 0.13555 0.46774 0.0
H2077 H 0.3094 0.16884 0.39004 0.0
H2078 H 0.34526 0.14862 0.37578 0.0
H2079 H 0.35303 0.1924 0.38726 0.0
C2080 C 0.06922 1.0123 0.17271 0.0
C2081 C 0.0362 0.03348 0.1721 0.0
C2082 C 0.10452 0.02984 0.17405 0.0
C2083 C 0.10681 0.06945 0.17467 0.0
C2084 C 0.07325 0.09051 0.17558 0.0
C2085 C 0.03856 0.07231 0.17419 0.0
C2086 C 0.13939 1.00612 0.17326 0.0
C2087 C 0.07388 0.13262 0.17633 0.0
C2088 C 0.19815 0.12178 0.18443 0.0
C2089 C 0.2104 0.13125 0.16675 0.0
C2090 C 0.16523 0.10082 0.18725 0.0
C2091 C 0.14359 0.0892 0.17208 0.0
C2092 C 0.15603 0.09843 0.15422 0.0
C2093 C 0.18916 0.1191 0.15179 0.0
C2094 C 0.15337 0.09146 0.2065 0.0
C2095 C 0.13391 0.08702 0.1376 0.0
H2096 H 0.06772 0.9824 0.17057 0.0
H2097 H 1.01316 0.08887 0.17331 0.0
H2098 H 0.15227 1.00867 0.15951 0.0
H2099 H 0.16025 1.01584 0.18338 0.0
H2100 H 0.13328 0.97619 0.17585 0.0
H2101 H 0.0458 0.14458 0.17925 0.0
H2102 H 0.09364 0.14235 0.18696 0.0
H2103 H 0.08371 0.14376 0.16302 0.0
H2104 H 0.21438 0.13065 0.19613 0.0
H2105 H 0.19819 0.12611 0.13807 0.0
H2106 H 0.14885 0.06096 0.20787 0.0
H2107 H 0.12639 0.10542 0.20965 0.0
H2108 H 0.17438 0.10032 0.21678 0.0
H2109 H 0.12991 0.05633 0.13752 0.0
H2110 H 0.14781 0.09532 0.12464 0.0
H2111 H 0.10576 0.1001 0.13804 0.0
C2112 C 0.17741 0.94035 0.90188 0.0
C2113 C 0.16545 0.96144 0.91697 0.0
C2114 C 0.1974 0.90662 0.90411 0.0
C2115 C 0.20592 0.89327 0.9219 0.0
C2116 C 0.19428 0.91462 0.9372 0.0
C2117 C 0.17422 0.94826 0.93457 0.0
C2118 C 0.20901 0.88496 0.88734 0.0
C2119 C 0.20267 0.90169 0.95639 0.0
C2120 C 0.22187 0.78794 0.92335 0.0
C2121 C 0.26088 0.78503 0.92187 0.0
C2122 C 0.20384 0.82284 0.92469 0.0
C2123 C 0.22523 0.85607 0.92427 0.0
C2124 C 0.2649 0.8532 0.92414 0.0
C2125 C 0.28226 0.81771 0.92292 0.0
C2126 C 0.16165 0.82411 0.92498 0.0
C2127 C 0.28896 0.88767 0.92379 0.0
H2128 H 0.17099 0.95009 0.88821 0.0
H2129 H 0.16542 0.96427 0.94638 0.0
H2130 H 0.23968 0.88022 0.88744 0.0
H2131 H 0.19543 0.85716 0.88741 0.0
H2132 H 0.2014 0.89958 0.87447 0.0
H2133 H 0.19345 0.92225 0.96683 0.0
H2134 H 0.18839 0.87477 0.95906 0.0
H2135 H 0.23312 0.89671 0.958 0.0
H2136 H 0.20516 0.76285 0.92212 0.0
H2137 H 0.31233 0.81581 0.92123 0.0
H2138 H 0.15126 0.83454 0.91163 0.0
H2139 H 0.15154 0.84365 0.93565 0.0
H2140 H 0.14928 0.79617 0.92753 0.0
H2141 H 0.28681 0.90114 0.91017 0.0
H2142 H 0.31884 0.88104 0.92644 0.0
H2143 H 0.27916 0.90822 0.93407 0.0
C2144 C 0.3602 0.93208 0.65283 0.0
C2145 C 0.33931 0.91882 0.66769 0.0
C2146 C 0.39355 0.95218 0.65543 0.0
C2147 C 0.40689 0.95944 0.67331 0.0
C2148 C 0.38566 0.9466 0.68842 0.0
C2149 C 0.35227 0.92649 0.68545 0.0
C2150 C 0.41451 0.96589 0.63893 0.0
C2151 C 0.39839 0.95384 0.70772 0.0
C2152 C 0.51243 0.97382 0.67466 0.0
C2153 C 0.51573 1.01277 0.67344 0.0
C2154 C 0.47734 0.95632 0.67592 0.0
C2155 C 0.44426 0.97819 0.67591 0.0
C2156 C 0.44752 0.01776 0.67616 0.0
C2157 C 0.48321 0.03461 0.67483 0.0
C2158 C 0.47572 0.91421 0.6756 0.0
C2159 C 0.41326 0.0424 0.67637 0.0
H2160 H 0.35051 0.92672 0.63907 0.0
H2161 H 0.33633 0.91674 0.69711 0.0
H2162 H 0.41701 0.99667 0.63973 0.0
H2163 H 0.4432 0.95401 0.63878 0.0
H2164 H 0.40032 0.95857 0.62594 0.0
H2165 H 0.3777 0.94418 0.71801 0.0
H2166 H 0.42533 0.93929 0.71024 0.0
H2167 H 0.40333 0.98413 0.70974 0.0
H2168 H 0.53738 0.95677 0.67322 0.0
H2169 H 0.48535 0.06465 0.67339 0.0
H2170 H 0.46488 0.90484 0.66217 0.0
H2171 H 0.4563 0.90375 0.68625 0.0
H2172 H 0.50363 0.90127 0.67778 0.0
H2173 H 0.40066 0.04295 0.66253 0.0
H2174 H 0.42015 0.07152 0.6803 0.0
H2175 H 0.39191 0.03138 0.68595 0.0
loop_
_geom_bond_atom_site_label_1
_geom_bond_atom_site_label_2
_geom_bond_distance
_geom_bond_site_symmetry_2
_ccdc_geom_bond_type
C0 Eu1 2.835 . S
C0 C2 1.500 . S
C0 O20 1.257 . S
C0 O21 1.260 . S
Eu1 C0 2.835 . S
Eu1 O20 2.473 . S
Eu1 O21 2.480 . S
Eu1 O22 2.430 . S
Eu1 O23 2.670 . S
Eu1 O24 2.394 . S
Eu1 O29 2.355 . S
Eu1 O31 2.374 . S
C2 C0 1.500 . S
C2 C3 1.377 . S
C2 C7 1.377 . S
C3 C2 1.377 . S
C3 C4 1.395 . S
C3 H32 0.931 . S
C4 C3 1.395 . S
C4 C5 1.383 . S
C4 H33 0.931 1_545 S
C5 C4 1.383 . S
C5 C6 1.394 . S
C6 C5 1.394 . S
C6 C7 1.378 . S
C6 H34 0.931 . S
C7 C2 1.377 . S
C7 C6 1.378 . S
C7 H35 0.931 . S
C8 O22 1.259 . S
C8 O23 1.270 . S
C9 O24 1.251 . S
C9 O25 1.251 . S
C10 Eu11 2.835 . S
C10 C12 1.500 . S
C10 O26 1.257 . S
C10 O27 1.260 . S
Eu11 C10 2.835 . S
Eu11 O23 2.355 . S
Eu11 O25 2.374 . S
Eu11 O26 2.473 . S
Eu11 O27 2.480 . S
Eu11 O28 2.430 . S
Eu11 O29 2.670 . S
Eu11 O30 2.394 . S
C12 C10 1.500 . S
C12 C13 1.377 . S
C12 C17 1.377 . S
C13 C12 1.377 . S
C13 C14 1.395 . S
C13 H36 0.931 . S
C14 C13 1.395 . S
C14 C15 1.383 . S
C14 H37 0.931 . S
C15 C14 1.383 . S
C15 C16 1.394 . S
C16 C15 1.394 . S
C16 C17 1.378 . S
C16 H38 0.931 . S
C17 C12 1.377 . S
C17 C16 1.378 . S
C17 H39 0.931 . S
C18 O28 1.259 . S
C18 O29 1.270 . S
C19 O30 1.251 . S
C19 O31 1.251 . S
O20 C0 1.257 . S
O20 Eu1 2.473 . S
O21 C0 1.260 . S
O21 Eu1 2.480 . S
O22 Eu1 2.430 . S
O22 C8 1.259 . S
O23 Eu1 2.670 . S
O23 C8 1.270 . S
O23 Eu11 2.355 . S
O24 Eu1 2.394 . S
O24 C9 1.251 . S
O25 C9 1.251 . S
O25 Eu11 2.374 . S
O26 C10 1.257 . S
O26 Eu11 2.473 . S
O27 C10 1.260 . S
O27 Eu11 2.480 . S
O28 Eu11 2.430 . S
O28 C18 1.259 . S
O29 Eu1 2.355 . S
O29 Eu11 2.670 . S
O29 C18 1.270 . S
O30 Eu11 2.394 . S
O30 C19 1.251 . S
O31 Eu1 2.374 . S
O31 C19 1.251 . S
H32 C3 0.931 . S
H33 C4 0.931 1_565 S
H34 C6 0.931 . S
H35 C7 0.931 . S
H36 C13 0.931 . S
H37 C14 0.931 . S
H38 C16 0.931 . S
H39 C17 0.931 . S
C40 Eu41 2.835 . S
C40 C42 1.500 . S
C40 O60 1.257 . S
C40 O61 1.260 . S
Eu41 C40 2.835 . S
Eu41 O60 2.473 . S
Eu41 O61 2.480 . S
Eu41 O62 2.430 . S
Eu41 O63 2.670 . S
Eu41 O64 2.394 . S
Eu41 O69 2.355 . S
Eu41 O71 2.374 . S
C42 C40 1.500 . S
C42 C43 1.377 . S
C42 C47 1.377 . S
C43 C42 1.377 . S
C43 C44 1.395 . S
C43 H72 0.931 . S
C44 C43 1.395 . S
C44 C45 1.383 . S
C44 H73 0.931 . S
C45 C44 1.383 . S
C45 C46 1.394 . S
C46 C45 1.394 . S
C46 C47 1.378 . S
C46 H74 0.931 . S
C47 C42 1.377 . S
C47 C46 1.378 . S
C47 H75 0.931 . S
C48 O62 1.259 . S
C48 O63 1.270 . S
C49 O64 1.251 . S
C49 O65 1.251 . S
C50 Eu51 2.835 . S
C50 C52 1.500 . S
C50 O66 1.257 . S
C50 O67 1.260 . S
Eu51 C50 2.835 . S
Eu51 O63 2.355 . S
Eu51 O65 2.374 . S
Eu51 O66 2.473 . S
Eu51 O67 2.480 . S
Eu51 O68 2.430 . S
Eu51 O69 2.670 . S
Eu51 O70 2.394 . S
C52 C50 1.500 . S
C52 C53 1.377 . S
C52 C57 1.377 . S
C53 C52 1.377 . S
C53 C54 1.395 . S
C53 H76 0.931 . S
C54 C53 1.395 . S
C54 C55 1.383 . S
C54 H77 0.931 . S
C55 C54 1.383 . S
C55 C56 1.394 . S
C56 C55 1.394 . S
C56 C57 1.378 . S
C56 H78 0.931 . S
C57 C52 1.377 . S
C57 C56 1.378 . S
C57 H79 0.931 . S
C58 O68 1.259 . S
C58 O69 1.270 . S
C59 O70 1.251 . S
C59 O71 1.251 . S
O60 C40 1.257 . S
O60 Eu41 2.473 . S
O61 C40 1.260 . S
O61 Eu41 2.480 . S
O62 Eu41 2.430 . S
O62 C48 1.259 . S
O63 Eu41 2.670 . S
O63 C48 1.270 . S
O63 Eu51 2.355 . S
O64 Eu41 2.394 . S
O64 C49 1.251 . S
O65 C49 1.251 . S
O65 Eu51 2.374 . S
O66 C50 1.257 . S
O66 Eu51 2.473 . S
O67 C50 1.260 . S
O67 Eu51 2.480 . S
O68 Eu51 2.430 . S
O68 C58 1.259 . S
O69 Eu41 2.355 . S
O69 Eu51 2.670 . S
O69 C58 1.270 . S
O70 Eu51 2.394 . S
O70 C59 1.251 . S
O71 Eu41 2.374 . S
O71 C59 1.251 . S
H72 C43 0.931 . S
H73 C44 0.931 . S
H74 C46 0.931 . S
H75 C47 0.931 . S
H76 C53 0.931 . S
H77 C54 0.931 . S
H78 C56 0.931 . S
H79 C57 0.931 . S
C80 Eu81 2.835 . S
C80 C82 1.500 . S
C80 O100 1.257 . S
C80 O101 1.260 . S
Eu81 C80 2.835 . S
Eu81 O100 2.473 . S
Eu81 O101 2.480 . S
Eu81 O102 2.430 . S
Eu81 O103 2.670 . S
Eu81 O104 2.394 . S
Eu81 O109 2.355 . S
Eu81 O111 2.374 . S
C82 C80 1.500 . S
C82 C83 1.377 . S
C82 C87 1.377 . S
C83 C82 1.377 . S
C83 C84 1.395 . S
C83 H112 0.931 . S
C84 C83 1.395 . S
C84 C85 1.383 . S
C84 H113 0.931 1_565 S
C85 C84 1.383 . S
C85 C86 1.394 . S
C86 C85 1.394 . S
C86 C87 1.378 . S
C86 H114 0.931 . S
C87 C82 1.377 . S
C87 C86 1.378 . S
C87 H115 0.931 . S
C88 O102 1.259 . S
C88 O103 1.270 . S
C89 O104 1.251 . S
C89 O105 1.251 . S
C90 Eu91 2.835 . S
C90 C92 1.500 . S
C90 O106 1.257 . S
C90 O107 1.260 . S
Eu91 C90 2.835 . S
Eu91 O103 2.355 . S
Eu91 O105 2.374 . S
Eu91 O106 2.473 . S
Eu91 O107 2.480 . S
Eu91 O108 2.430 . S
Eu91 O109 2.670 . S
Eu91 O110 2.394 . S
C92 C90 1.500 . S
C92 C93 1.377 . S
C92 C97 1.377 . S
C93 C92 1.377 . S
C93 C94 1.395 . S
C93 H116 0.931 . S
C94 C93 1.395 . S
C94 C95 1.383 . S
C94 H117 0.931 . S
C95 C94 1.383 . S
C95 C96 1.394 . S
C96 C95 1.394 . S
C96 C97 1.378 . S
C96 H118 0.931 . S
C97 C92 1.377 . S
C97 C96 1.378 . S
C97 H119 0.931 . S
C98 O108 1.259 . S
C98 O109 1.270 . S
C99 O110 1.251 . S
C99 O111 1.251 . S
O100 C80 1.257 . S
O100 Eu81 2.473 . S
O101 C80 1.260 . S
O101 Eu81 2.480 . S
O102 Eu81 2.430 . S
O102 C88 1.259 . S
O103 Eu81 2.670 . S
O103 C88 1.270 . S
O103 Eu91 2.355 . S
O104 Eu81 2.394 . S
O104 C89 1.251 . S
O105 C89 1.251 . S
O105 Eu91 2.374 . S
O106 C90 1.257 . S
O106 Eu91 2.473 . S
O107 C90 1.260 . S
O107 Eu91 2.480 . S
O108 Eu91 2.430 . S
O108 C98 1.259 . S
O109 Eu81 2.355 . S
O109 Eu91 2.670 . S
O109 C98 1.270 . S
O110 Eu91 2.394 . S
O110 C99 1.251 . S
O111 Eu81 2.374 . S
O111 C99 1.251 . S
H112 C83 0.931 . S
H113 C84 0.931 1_545 S
H114 C86 0.931 . S
H115 C87 0.931 . S
H116 C93 0.931 . S
H117 C94 0.931 . S
H118 C96 0.931 . S
H119 C97 0.931 . S
C120 Eu121 2.835 . S
C120 C122 1.500 . S
C120 O140 1.257 . S
C120 O141 1.260 . S
Eu121 C120 2.835 . S
Eu121 O140 2.473 . S
Eu121 O141 2.480 . S
Eu121 O142 2.430 . S
Eu121 O143 2.670 . S
Eu121 O144 2.394 . S
Eu121 O149 2.355 . S
Eu121 O151 2.374 . S
C122 C120 1.500 . S
C122 C123 1.377 . S
C122 C127 1.377 . S
C123 C122 1.377 . S
C123 C124 1.395 . S
C123 H152 0.931 . S
C124 C123 1.395 . S
C124 C125 1.383 . S
C124 H153 0.931 . S
C125 C124 1.383 . S
C125 C126 1.394 . S
C126 C125 1.394 . S
C126 C127 1.378 . S
C126 H154 0.931 . S
C127 C122 1.377 . S
C127 C126 1.378 . S
C127 H155 0.931 . S
C128 O142 1.259 . S
C128 O143 1.270 . S
C129 O144 1.251 . S
C129 O145 1.251 . S
C130 Eu131 2.835 . S
C130 C132 1.500 . S
C130 O146 1.257 . S
C130 O147 1.260 . S
Eu131 C130 2.835 . S
Eu131 O143 2.355 . S
Eu131 O145 2.374 . S
Eu131 O146 2.473 . S
Eu131 O147 2.480 . S
Eu131 O148 2.430 . S
Eu131 O149 2.670 . S
Eu131 O150 2.394 . S
C132 C130 1.500 . S
C132 C133 1.377 . S
C132 C137 1.377 . S
C133 C132 1.377 . S
C133 C134 1.395 1_655 S
C133 H156 0.931 1_655 S
C134 C133 1.395 1_455 S
C134 C135 1.383 1_455 S
C134 H157 0.931 . S
C135 C134 1.383 1_655 S
C135 C136 1.394 . S
C136 C135 1.394 . S
C136 C137 1.378 . S
C136 H158 0.931 . S
C137 C132 1.377 . S
C137 C136 1.378 . S
C137 H159 0.931 . S
C138 O148 1.259 . S
C138 O149 1.270 . S
C139 O150 1.251 . S
C139 O151 1.251 . S
O140 C120 1.257 . S
O140 Eu121 2.473 . S
O141 C120 1.260 . S
O141 Eu121 2.480 . S
O142 Eu121 2.430 . S
O142 C128 1.259 . S
O143 Eu121 2.670 . S
O143 C128 1.270 . S
O143 Eu131 2.355 . S
O144 Eu121 2.394 . S
O144 C129 1.251 . S
O145 C129 1.251 . S
O145 Eu131 2.374 . S
O146 C130 1.257 . S
O146 Eu131 2.473 . S
O147 C130 1.260 . S
O147 Eu131 2.480 . S
O148 Eu131 2.430 . S
O148 C138 1.259 . S
O149 Eu121 2.355 . S
O149 Eu131 2.670 . S
O149 C138 1.270 . S
O150 Eu131 2.394 . S
O150 C139 1.251 . S
O151 Eu121 2.374 . S
O151 C139 1.251 . S
H152 C123 0.931 . S
H153 C124 0.931 . S
H154 C126 0.931 . S
H155 C127 0.931 . S
H156 C133 0.931 1_455 S
H157 C134 0.931 . S
H158 C136 0.931 . S
H159 C137 0.931 . S
C160 Eu161 2.835 . S
C160 C162 1.500 . S
C160 O180 1.257 . S
C160 O181 1.260 . S
Eu161 C160 2.835 . S
Eu161 O180 2.473 . S
Eu161 O181 2.480 . S
Eu161 O182 2.430 . S
Eu161 O183 2.670 . S
Eu161 O184 2.394 . S
Eu161 O189 2.355 . S
Eu161 O191 2.374 . S
C162 C160 1.500 . S
C162 C163 1.377 . S
C162 C167 1.377 . S
C163 C162 1.377 . S
C163 C164 1.395 . S
C163 H192 0.931 . S
C164 C163 1.395 . S
C164 C165 1.383 . S
C164 H193 0.931 . S
C165 C164 1.383 . S
C165 C166 1.394 . S
C166 C165 1.394 . S
C166 C167 1.378 . S
C166 H194 0.931 . S
C167 C162 1.377 . S
C167 C166 1.378 . S
C167 H195 0.931 . S
C168 O182 1.259 . S
C168 O183 1.270 . S
C169 O184 1.251 . S
C169 O185 1.251 . S
C170 Eu171 2.835 . S
C170 C172 1.500 . S
C170 O186 1.257 . S
C170 O187 1.260 . S
Eu171 C170 2.835 . S
Eu171 O183 2.355 . S
Eu171 O185 2.374 . S
Eu171 O186 2.473 . S
Eu171 O187 2.480 . S
Eu171 O188 2.430 . S
Eu171 O189 2.670 . S
Eu171 O190 2.394 . S
C172 C170 1.500 . S
C172 C173 1.377 . S
C172 C177 1.377 . S
C173 C172 1.377 . S
C173 C174 1.395 . S
C173 H196 0.931 . S
C174 C173 1.395 . S
C174 C175 1.383 . S
C174 H197 0.931 1_565 S
C175 C174 1.383 . S
C175 C176 1.394 . S
C176 C175 1.394 . S
C176 C177 1.378 . S
C176 H198 0.931 . S
C177 C172 1.377 . S
C177 C176 1.378 . S
C177 H199 0.931 . S
C178 O188 1.259 . S
C178 O189 1.270 . S
C179 O190 1.251 . S
C179 O191 1.251 . S
O180 C160 1.257 . S
O180 Eu161 2.473 . S
O181 C160 1.260 . S
O181 Eu161 2.480 . S
O182 Eu161 2.430 . S
O182 C168 1.259 . S
O183 Eu161 2.670 . S
O183 C168 1.270 . S
O183 Eu171 2.355 . S
O184 Eu161 2.394 . S
O184 C169 1.251 . S
O185 C169 1.251 . S
O185 Eu171 2.374 . S
O186 C170 1.257 . S
O186 Eu171 2.473 . S
O187 C170 1.260 . S
O187 Eu171 2.480 . S
O188 Eu171 2.430 . S
O188 C178 1.259 . S
O189 Eu161 2.355 . S
O189 Eu171 2.670 . S
O189 C178 1.270 . S
O190 Eu171 2.394 . S
O190 C179 1.251 . S
O191 Eu161 2.374 . S
O191 C179 1.251 . S
H192 C163 0.931 . S
H193 C164 0.931 . S
H194 C166 0.931 . S
H195 C167 0.931 . S
H196 C173 0.931 . S
H197 C174 0.931 1_545 S
H198 C176 0.931 . S
H199 C177 0.931 . S
C200 Eu201 2.835 . S
C200 C202 1.500 . S
C200 O220 1.257 . S
C200 O221 1.260 . S
Eu201 C200 2.835 . S
Eu201 O220 2.473 . S
Eu201 O221 2.480 . S
Eu201 O222 2.430 . S
Eu201 O223 2.670 . S
Eu201 O224 2.394 . S
Eu201 O229 2.355 . S
Eu201 O231 2.374 . S
C202 C200 1.500 . S
C202 C203 1.377 . S
C202 C207 1.377 . S
C203 C202 1.377 . S
C203 C204 1.395 . S
C203 H232 0.931 . S
C204 C203 1.395 . S
C204 C205 1.383 . S
C204 H233 0.931 . S
C205 C204 1.383 . S
C205 C206 1.394 . S
C206 C205 1.394 . S
C206 C207 1.378 . S
C206 H234 0.931 . S
C207 C202 1.377 . S
C207 C206 1.378 . S
C207 H235 0.931 . S
C208 O222 1.259 . S
C208 O223 1.270 . S
C209 O224 1.251 . S
C209 O225 1.251 . S
C210 Eu211 2.835 . S
C210 C212 1.500 . S
C210 O226 1.257 . S
C210 O227 1.260 . S
Eu211 C210 2.835 . S
Eu211 O223 2.355 . S
Eu211 O225 2.374 . S
Eu211 O226 2.473 . S
Eu211 O227 2.480 . S
Eu211 O228 2.430 . S
Eu211 O229 2.670 . S
Eu211 O230 2.394 . S
C212 C210 1.500 . S
C212 C213 1.377 . S
C212 C217 1.377 . S
C213 C212 1.377 . S
C213 C214 1.395 . S
C213 H236 0.931 . S
C214 C213 1.395 . S
C214 C215 1.383 . S
C214 H237 0.931 . S
C215 C214 1.383 . S
C215 C216 1.394 . S
C216 C215 1.394 . S
C216 C217 1.378 . S
C216 H238 0.931 . S
C217 C212 1.377 . S
C217 C216 1.378 . S
C217 H239 0.931 . S
C218 O228 1.259 . S
C218 O229 1.270 . S
C219 O230 1.251 . S
C219 O231 1.251 . S
O220 C200 1.257 . S
O220 Eu201 2.473 . S
O221 C200 1.260 . S
O221 Eu201 2.480 . S
O222 Eu201 2.430 . S
O222 C208 1.259 . S
O223 Eu201 2.670 . S
O223 C208 1.270 . S
O223 Eu211 2.355 . S
O224 Eu201 2.394 . S
O224 C209 1.251 . S
O225 C209 1.251 . S
O225 Eu211 2.374 . S
O226 C210 1.257 . S
O226 Eu211 2.473 . S
O227 C210 1.260 . S
O227 Eu211 2.480 . S
O228 Eu211 2.430 . S
O228 C218 1.259 . S
O229 Eu201 2.355 . S
O229 Eu211 2.670 . S
O229 C218 1.270 . S
O230 Eu211 2.394 . S
O230 C219 1.251 . S
O231 Eu201 2.374 . S
O231 C219 1.251 . S
H232 C203 0.931 . S
H233 C204 0.931 . S
H234 C206 0.931 . S
H235 C207 0.931 . S
H236 C213 0.931 . S
H237 C214 0.931 . S
H238 C216 0.931 . S
H239 C217 0.931 . S
C240 Eu241 2.835 . S
C240 C242 1.500 . S
C240 O260 1.257 . S
C240 O261 1.260 . S
Eu241 C240 2.835 . S
Eu241 O260 2.473 . S
Eu241 O261 2.480 . S
Eu241 O262 2.430 . S
Eu241 O263 2.670 . S
Eu241 O264 2.394 . S
Eu241 O269 2.355 . S
Eu241 O271 2.374 . S
C242 C240 1.500 . S
C242 C243 1.377 . S
C242 C247 1.377 . S
C243 C242 1.377 . S
C243 C244 1.395 . S
C243 H272 0.931 . S
C244 C243 1.395 . S
C244 C245 1.383 . S
C244 H273 0.931 . S
C245 C244 1.383 . S
C245 C246 1.394 . S
C246 C245 1.394 . S
C246 C247 1.378 . S
C246 H274 0.931 . S
C247 C242 1.377 . S
C247 C246 1.378 . S
C247 H275 0.931 . S
C248 O262 1.259 . S
C248 O263 1.270 . S
C249 O264 1.251 . S
C249 O265 1.251 . S
C250 Eu251 2.835 . S
C250 C252 1.500 . S
C250 O266 1.257 . S
C250 O267 1.260 . S
Eu251 C250 2.835 . S
Eu251 O263 2.355 . S
Eu251 O265 2.374 . S
Eu251 O266 2.473 . S
Eu251 O267 2.480 . S
Eu251 O268 2.430 . S
Eu251 O269 2.670 . S
Eu251 O270 2.394 . S
C252 C250 1.500 . S
C252 C253 1.377 . S
C252 C257 1.377 . S
C253 C252 1.377 . S
C253 C254 1.395 . S
C253 H276 0.931 . S
C254 C253 1.395 . S
C254 C255 1.383 . S
C254 H277 0.931 1_545 S
C255 C254 1.383 . S
C255 C256 1.394 . S
C256 C255 1.394 . S
C256 C257 1.378 . S
C256 H278 0.931 . S
C257 C252 1.377 . S
C257 C256 1.378 . S
C257 H279 0.931 . S
C258 O268 1.259 . S
C258 O269 1.270 . S
C259 O270 1.251 . S
C259 O271 1.251 . S
O260 C240 1.257 . S
O260 Eu241 2.473 . S
O261 C240 1.260 . S
O261 Eu241 2.480 . S
O262 Eu241 2.430 . S
O262 C248 1.259 . S
O263 Eu241 2.670 . S
O263 C248 1.270 . S
O263 Eu251 2.355 . S
O264 Eu241 2.394 . S
O264 C249 1.251 . S
O265 C249 1.251 . S
O265 Eu251 2.374 . S
O266 C250 1.257 . S
O266 Eu251 2.473 . S
O267 C250 1.260 . S
O267 Eu251 2.480 . S
O268 Eu251 2.430 . S
O268 C258 1.259 . S
O269 Eu241 2.355 . S
O269 Eu251 2.670 . S
O269 C258 1.270 . S
O270 Eu251 2.394 . S
O270 C259 1.251 . S
O271 Eu241 2.374 . S
O271 C259 1.251 . S
H272 C243 0.931 . S
H273 C244 0.931 . S
H274 C246 0.931 . S
H275 C247 0.931 . S
H276 C253 0.931 . S
H277 C254 0.931 1_565 S
H278 C256 0.931 . S
H279 C257 0.931 . S
C280 Eu281 2.835 . S
C280 C282 1.500 . S
C280 O300 1.257 . S
C280 O301 1.260 . S
Eu281 C280 2.835 . S
Eu281 O300 2.473 . S
Eu281 O301 2.480 . S
Eu281 O302 2.430 . S
Eu281 O303 2.670 . S
Eu281 O304 2.394 . S
Eu281 O309 2.355 . S
Eu281 O311 2.374 . S
C282 C280 1.500 . S
C282 C283 1.377 . S
C282 C287 1.377 . S
C283 C282 1.377 . S
C283 C284 1.395 1_455 S
C283 H312 0.931 1_455 S
C284 C283 1.395 1_655 S
C284 C285 1.383 1_655 S
C284 H313 0.931 . S
C285 C284 1.383 1_455 S
C285 C286 1.394 . S
C286 C285 1.394 . S
C286 C287 1.378 . S
C286 H314 0.931 . S
C287 C282 1.377 . S
C287 C286 1.378 . S
C287 H315 0.931 . S
C288 O302 1.259 . S
C288 O303 1.270 . S
C289 O304 1.251 . S
C289 O305 1.251 . S
C290 Eu291 2.835 . S
C290 C292 1.500 . S
C290 O306 1.257 . S
C290 O307 1.260 . S
Eu291 C290 2.835 . S
Eu291 O303 2.355 . S
Eu291 O305 2.374 . S
Eu291 O306 2.473 . S
Eu291 O307 2.480 . S
Eu291 O308 2.430 . S
Eu291 O309 2.670 . S
Eu291 O310 2.394 . S
C292 C290 1.500 . S
C292 C293 1.377 . S
C292 C297 1.377 . S
C293 C292 1.377 . S
C293 C294 1.395 . S
C293 H316 0.931 . S
C294 C293 1.395 . S
C294 C295 1.383 . S
C294 H317 0.931 . S
C295 C294 1.383 . S
C295 C296 1.394 . S
C296 C295 1.394 . S
C296 C297 1.378 . S
C296 H318 0.931 . S
C297 C292 1.377 . S
C297 C296 1.378 . S
C297 H319 0.931 . S
C298 O308 1.259 . S
C298 O309 1.270 . S
C299 O310 1.251 . S
C299 O311 1.251 . S
O300 C280 1.257 . S
O300 Eu281 2.473 . S
O301 C280 1.260 . S
O301 Eu281 2.480 . S
O302 Eu281 2.430 . S
O302 C288 1.259 . S
O303 Eu281 2.670 . S
O303 C288 1.270 . S
O303 Eu291 2.355 . S
O304 Eu281 2.394 . S
O304 C289 1.251 . S
O305 C289 1.251 . S
O305 Eu291 2.374 . S
O306 C290 1.257 . S
O306 Eu291 2.473 . S
O307 C290 1.260 . S
O307 Eu291 2.480 . S
O308 Eu291 2.430 . S
O308 C298 1.259 . S
O309 Eu281 2.355 . S
O309 Eu291 2.670 . S
O309 C298 1.270 . S
O310 Eu291 2.394 . S
O310 C299 1.251 . S
O311 Eu281 2.374 . S
O311 C299 1.251 . S
H312 C283 0.931 1_655 S
H313 C284 0.931 . S
H314 C286 0.931 . S
H315 C287 0.931 . S
H316 C293 0.931 . S
H317 C294 0.931 . S
H318 C296 0.931 . S
H319 C297 0.931 . S
C320 Eu321 2.835 . S
C320 C322 1.500 . S
C320 O340 1.257 . S
C320 O341 1.260 . S
Eu321 C320 2.835 . S
Eu321 O340 2.473 . S
Eu321 O341 2.480 . S
Eu321 O342 2.430 . S
Eu321 O343 2.670 . S
Eu321 O344 2.394 . S
Eu321 O349 2.355 . S
Eu321 O351 2.374 . S
C322 C320 1.500 . S
C322 C323 1.377 . S
C322 C327 1.377 . S
C323 C322 1.377 . S
C323 C324 1.395 . S
C323 H352 0.931 . S
C324 C323 1.395 . S
C324 C325 1.383 . S
C324 H353 0.931 . S
C325 C324 1.383 . S
C325 C326 1.394 . S
C326 C325 1.394 . S
C326 C327 1.378 . S
C326 H354 0.931 . S
C327 C322 1.377 . S
C327 C326 1.378 . S
C327 H355 0.931 . S
C328 O342 1.259 . S
C328 O343 1.270 . S
C329 O344 1.251 . S
C329 O345 1.251 . S
C330 Eu331 2.835 . S
C330 C332 1.500 . S
C330 O346 1.257 . S
C330 O347 1.260 . S
Eu331 C330 2.835 . S
Eu331 O343 2.355 . S
Eu331 O345 2.374 . S
Eu331 O346 2.473 . S
Eu331 O347 2.480 . S
Eu331 O348 2.430 . S
Eu331 O349 2.670 . S
Eu331 O350 2.394 . S
C332 C330 1.500 . S
C332 C333 1.377 . S
C332 C337 1.377 . S
C333 C332 1.377 . S
C333 C334 1.395 . S
C333 H356 0.931 . S
C334 C333 1.395 . S
C334 C335 1.383 . S
C334 H357 0.931 . S
C335 C334 1.383 . S
C335 C336 1.394 . S
C336 C335 1.394 . S
C336 C337 1.378 . S
C336 H358 0.931 . S
C337 C332 1.377 . S
C337 C336 1.378 . S
C337 H359 0.931 . S
C338 O348 1.259 . S
C338 O349 1.270 . S
C339 O350 1.251 . S
C339 O351 1.251 . S
O340 C320 1.257 . S
O340 Eu321 2.473 . S
O341 C320 1.260 . S
O341 Eu321 2.480 . S
O342 Eu321 2.430 . S
O342 C328 1.259 . S
O343 Eu321 2.670 . S
O343 C328 1.270 . S
O343 Eu331 2.355 . S
O344 Eu321 2.394 . S
O344 C329 1.251 . S
O345 C329 1.251 . S
O345 Eu331 2.374 . S
O346 C330 1.257 . S
O346 Eu331 2.473 . S
O347 C330 1.260 . S
O347 Eu331 2.480 . S
O348 Eu331 2.430 . S
O348 C338 1.259 . S
O349 Eu321 2.355 . S
O349 Eu331 2.670 . S
O349 C338 1.270 . S
O350 Eu331 2.394 . S
O350 C339 1.251 . S
O351 Eu321 2.374 . S
O351 C339 1.251 . S
H352 C323 0.931 . S
H353 C324 0.931 . S
H354 C326 0.931 . S
H355 C327 0.931 . S
H356 C333 0.931 . S
H357 C334 0.931 . S
H358 C336 0.931 . S
H359 C337 0.931 . S
C360 Eu361 2.835 . S
C360 C362 1.500 . S
C360 O380 1.257 . S
C360 O381 1.260 . S
Eu361 C360 2.835 . S
Eu361 O380 2.473 . S
Eu361 O381 2.480 . S
Eu361 O382 2.430 . S
Eu361 O383 2.670 . S
Eu361 O384 2.394 1_545 S
Eu361 O389 2.355 . S
Eu361 O391 2.374 . S
C362 C360 1.500 . S
C362 C363 1.377 . S
C362 C367 1.377 1_545 S
C363 C362 1.377 . S
C363 C364 1.395 . S
C363 H392 0.931 . S
C364 C363 1.395 . S
C364 C365 1.383 1_545 S
C364 H393 0.931 . S
C365 C364 1.383 1_565 S
C365 C366 1.394 . S
C366 C365 1.394 . S
C366 C367 1.378 . S
C366 H394 0.931 . S
C367 C362 1.377 1_565 S
C367 C366 1.378 . S
C367 H395 0.931 . S
C368 O382 1.259 . S
C368 O383 1.270 . S
C369 O384 1.251 . S
C369 O385 1.251 . S
C370 Eu371 2.835 . S
C370 C372 1.500 . S
C370 O386 1.257 . S
C370 O387 1.260 . S
Eu371 C370 2.835 . S
Eu371 O383 2.355 . S
Eu371 O385 2.374 1_545 S
Eu371 O386 2.473 . S
Eu371 O387 2.480 . S
Eu371 O388 2.430 1_545 S
Eu371 O389 2.670 . S
Eu371 O390 2.394 . S
C372 C370 1.500 . S
C372 C373 1.377 . S
C372 C377 1.377 . S
C373 C372 1.377 . S
C373 C374 1.395 1_455 S
C373 H396 0.931 1_455 S
C374 C373 1.395 1_655 S
C374 C375 1.383 1_655 S
C374 H397 0.931 . S
C375 C374 1.383 1_455 S
C375 C376 1.394 . S
C376 C375 1.394 . S
C376 C377 1.378 . S
C376 H398 0.931 . S
C377 C372 1.377 . S
C377 C376 1.378 . S
C377 H399 0.931 . S
C378 O388 1.259 1_545 S
C378 O389 1.270 . S
C379 O390 1.251 . S
C379 O391 1.251 . S
O380 C360 1.257 . S
O380 Eu361 2.473 . S
O381 C360 1.260 . S
O381 Eu361 2.480 . S
O382 Eu361 2.430 . S
O382 C368 1.259 . S
O383 Eu361 2.670 . S
O383 C368 1.270 . S
O383 Eu371 2.355 . S
O384 Eu361 2.394 1_565 S
O384 C369 1.251 . S
O385 C369 1.251 . S
O385 Eu371 2.374 1_565 S
O386 C370 1.257 . S
O386 Eu371 2.473 . S
O387 C370 1.260 . S
O387 Eu371 2.480 . S
O388 Eu371 2.430 1_565 S
O388 C378 1.259 1_565 S
O389 Eu361 2.355 . S
O389 Eu371 2.670 . S
O389 C378 1.270 . S
O390 Eu371 2.394 . S
O390 C379 1.251 . S
O391 Eu361 2.374 . S
O391 C379 1.251 . S
H392 C363 0.931 . S
H393 C364 0.931 . S
H394 C366 0.931 . S
H395 C367 0.931 . S
H396 C373 0.931 1_655 S
H397 C374 0.931 . S
H398 C376 0.931 . S
H399 C377 0.931 . S
C400 Eu401 2.835 . S
C400 C402 1.500 . S
C400 O420 1.257 . S
C400 O421 1.260 . S
Eu401 C400 2.835 . S
Eu401 O420 2.473 . S
Eu401 O421 2.480 . S
Eu401 O422 2.430 . S
Eu401 O423 2.670 . S
Eu401 O424 2.394 . S
Eu401 O429 2.355 . S
Eu401 O431 2.374 . S
C402 C400 1.500 . S
C402 C403 1.377 . S
C402 C407 1.377 . S
C403 C402 1.377 . S
C403 C404 1.395 . S
C403 H432 0.931 . S
C404 C403 1.395 . S
C404 C405 1.383 . S
C404 H433 0.931 . S
C405 C404 1.383 . S
C405 C406 1.394 . S
C406 C405 1.394 . S
C406 C407 1.378 . S
C406 H434 0.931 . S
C407 C402 1.377 . S
C407 C406 1.378 . S
C407 H435 0.931 . S
C408 O422 1.259 . S
C408 O423 1.270 . S
C409 O424 1.251 . S
C409 O425 1.251 . S
C410 Eu411 2.835 . S
C410 C412 1.500 . S
C410 O426 1.257 . S
C410 O427 1.260 . S
Eu411 C410 2.835 . S
Eu411 O423 2.355 . S
Eu411 O425 2.374 . S
Eu411 O426 2.473 . S
Eu411 O427 2.480 . S
Eu411 O428 2.430 . S
Eu411 O429 2.670 . S
Eu411 O430 2.394 . S
C412 C410 1.500 . S
C412 C413 1.377 . S
C412 C417 1.377 . S
C413 C412 1.377 . S
C413 C414 1.395 . S
C413 H436 0.931 . S
C414 C413 1.395 . S
C414 C415 1.383 . S
C414 H437 0.931 . S
C415 C414 1.383 . S
C415 C416 1.394 . S
C416 C415 1.394 . S
C416 C417 1.378 . S
C416 H438 0.931 . S
C417 C412 1.377 . S
C417 C416 1.378 . S
C417 H439 0.931 . S
C418 O428 1.259 . S
C418 O429 1.270 . S
C419 O430 1.251 . S
C419 O431 1.251 . S
O420 C400 1.257 . S
O420 Eu401 2.473 . S
O421 C400 1.260 . S
O421 Eu401 2.480 . S
O422 Eu401 2.430 . S
O422 C408 1.259 . S
O423 Eu401 2.670 . S
O423 C408 1.270 . S
O423 Eu411 2.355 . S
O424 Eu401 2.394 . S
O424 C409 1.251 . S
O425 C409 1.251 . S
O425 Eu411 2.374 . S
O426 C410 1.257 . S
O426 Eu411 2.473 . S
O427 C410 1.260 . S
O427 Eu411 2.480 . S
O428 Eu411 2.430 . S
O428 C418 1.259 . S
O429 Eu401 2.355 . S
O429 Eu411 2.670 . S
O429 C418 1.270 . S
O430 Eu411 2.394 . S
O430 C419 1.251 . S
O431 Eu401 2.374 . S
O431 C419 1.251 . S
H432 C403 0.931 . S
H433 C404 0.931 . S
H434 C406 0.931 . S
H435 C407 0.931 . S
H436 C413 0.931 . S
H437 C414 0.931 . S
H438 C416 0.931 . S
H439 C417 0.931 . S
C440 Eu441 2.835 . S
C440 C442 1.500 . S
C440 O460 1.257 . S
C440 O461 1.260 . S
Eu441 C440 2.835 . S
Eu441 O460 2.473 . S
Eu441 O461 2.480 . S
Eu441 O462 2.430 . S
Eu441 O463 2.670 . S
Eu441 O464 2.394 1_565 S
Eu441 O469 2.355 . S
Eu441 O471 2.374 . S
C442 C440 1.500 . S
C442 C443 1.377 . S
C442 C447 1.377 1_565 S
C443 C442 1.377 . S
C443 C444 1.395 . S
C443 H472 0.931 . S
C444 C443 1.395 . S
C444 C445 1.383 1_565 S
C444 H473 0.931 . S
C445 C444 1.383 1_545 S
C445 C446 1.394 . S
C446 C445 1.394 . S
C446 C447 1.378 . S
C446 H474 0.931 . S
C447 C442 1.377 1_545 S
C447 C446 1.378 . S
C447 H475 0.931 . S
C448 O462 1.259 . S
C448 O463 1.270 . S
C449 O464 1.251 . S
C449 O465 1.251 . S
C450 Eu451 2.835 . S
C450 C452 1.500 . S
C450 O466 1.257 . S
C450 O467 1.260 . S
Eu451 C450 2.835 . S
Eu451 O463 2.355 . S
Eu451 O465 2.374 1_565 S
Eu451 O466 2.473 . S
Eu451 O467 2.480 . S
Eu451 O468 2.430 1_565 S
Eu451 O469 2.670 . S
Eu451 O470 2.394 . S
C452 C450 1.500 . S
C452 C453 1.377 . S
C452 C457 1.377 . S
C453 C452 1.377 . S
C453 C454 1.395 . S
C453 H476 0.931 . S
C454 C453 1.395 . S
C454 C455 1.383 . S
C454 H477 0.931 . S
C455 C454 1.383 . S
C455 C456 1.394 . S
C456 C455 1.394 . S
C456 C457 1.378 . S
C456 H478 0.931 . S
C457 C452 1.377 . S
C457 C456 1.378 . S
C457 H479 0.931 . S
C458 O468 1.259 1_565 S
C458 O469 1.270 . S
C459 O470 1.251 . S
C459 O471 1.251 . S
O460 C440 1.257 . S
O460 Eu441 2.473 . S
O461 C440 1.260 . S
O461 Eu441 2.480 . S
O462 Eu441 2.430 . S
O462 C448 1.259 . S
O463 Eu441 2.670 . S
O463 C448 1.270 . S
O463 Eu451 2.355 . S
O464 Eu441 2.394 1_545 S
O464 C449 1.251 . S
O465 C449 1.251 . S
O465 Eu451 2.374 1_545 S
O466 C450 1.257 . S
O466 Eu451 2.473 . S
O467 C450 1.260 . S
O467 Eu451 2.480 . S
O468 Eu451 2.430 1_545 S
O468 C458 1.259 1_545 S
O469 Eu441 2.355 . S
O469 Eu451 2.670 . S
O469 C458 1.270 . S
O470 Eu451 2.394 . S
O470 C459 1.251 . S
O471 Eu441 2.374 . S
O471 C459 1.251 . S
H472 C443 0.931 . S
H473 C444 0.931 . S
H474 C446 0.931 . S
H475 C447 0.931 . S
H476 C453 0.931 . S
H477 C454 0.931 . S
H478 C456 0.931 . S
H479 C457 0.931 . S
C480 Eu481 2.835 . S
C480 C482 1.500 . S
C480 O500 1.257 . S
C480 O501 1.260 . S
Eu481 C480 2.835 . S
Eu481 O500 2.473 . S
Eu481 O501 2.480 . S
Eu481 O502 2.430 . S
Eu481 O503 2.670 . S
Eu481 O504 2.394 . S
Eu481 O509 2.355 . S
Eu481 O511 2.374 . S
C482 C480 1.500 . S
C482 C483 1.377 . S
C482 C487 1.377 . S
C483 C482 1.377 . S
C483 C484 1.395 . S
C483 H512 0.931 . S
C484 C483 1.395 . S
C484 C485 1.383 . S
C484 H513 0.931 . S
C485 C484 1.383 . S
C485 C486 1.394 . S
C486 C485 1.394 . S
C486 C487 1.378 . S
C486 H514 0.931 . S
C487 C482 1.377 . S
C487 C486 1.378 . S
C487 H515 0.931 . S
C488 O502 1.259 . S
C488 O503 1.270 . S
C489 O504 1.251 . S
C489 O505 1.251 . S
C490 Eu491 2.835 . S
C490 C492 1.500 . S
C490 O506 1.257 . S
C490 O507 1.260 . S
Eu491 C490 2.835 . S
Eu491 O503 2.355 . S
Eu491 O505 2.374 . S
Eu491 O506 2.473 . S
Eu491 O507 2.480 . S
Eu491 O508 2.430 . S
Eu491 O509 2.670 . S
Eu491 O510 2.394 . S
C492 C490 1.500 . S
C492 C493 1.377 . S
C492 C497 1.377 . S
C493 C492 1.377 . S
C493 C494 1.395 . S
C493 H516 0.931 . S
C494 C493 1.395 . S
C494 C495 1.383 . S
C494 H517 0.931 . S
C495 C494 1.383 . S
C495 C496 1.394 . S
C496 C495 1.394 . S
C496 C497 1.378 . S
C496 H518 0.931 . S
C497 C492 1.377 . S
C497 C496 1.378 . S
C497 H519 0.931 . S
C498 O508 1.259 . S
C498 O509 1.270 . S
C499 O510 1.251 . S
C499 O511 1.251 . S
O500 C480 1.257 . S
O500 Eu481 2.473 . S
O501 C480 1.260 . S
O501 Eu481 2.480 . S
O502 Eu481 2.430 . S
O502 C488 1.259 . S
O503 Eu481 2.670 . S
O503 C488 1.270 . S
O503 Eu491 2.355 . S
O504 Eu481 2.394 . S
O504 C489 1.251 . S
O505 C489 1.251 . S
O505 Eu491 2.374 . S
O506 C490 1.257 . S
O506 Eu491 2.473 . S
O507 C490 1.260 . S
O507 Eu491 2.480 . S
O508 Eu491 2.430 . S
O508 C498 1.259 . S
O509 Eu481 2.355 . S
O509 Eu491 2.670 . S
O509 C498 1.270 . S
O510 Eu491 2.394 . S
O510 C499 1.251 . S
O511 Eu481 2.374 . S
O511 C499 1.251 . S
H512 C483 0.931 . S
H513 C484 0.931 . S
H514 C486 0.931 . S
H515 C487 0.931 . S
H516 C493 0.931 . S
H517 C494 0.931 . S
H518 C496 0.931 . S
H519 C497 0.931 . S
C520 Eu521 2.835 . S
C520 C522 1.500 . S
C520 O540 1.257 . S
C520 O541 1.260 . S
Eu521 C520 2.835 . S
Eu521 O540 2.473 . S
Eu521 O541 2.480 . S
Eu521 O542 2.430 1_565 S
Eu521 O543 2.670 . S
Eu521 O544 2.394 . S
Eu521 O549 2.355 . S
Eu521 O551 2.374 1_565 S
C522 C520 1.500 . S
C522 C523 1.377 . S
C522 C527 1.377 . S
C523 C522 1.377 . S
C523 C524 1.395 1_655 S
C523 H552 0.931 1_655 S
C524 C523 1.395 1_455 S
C524 C525 1.383 1_455 S
C524 H553 0.931 . S
C525 C524 1.383 1_655 S
C525 C526 1.394 . S
C526 C525 1.394 . S
C526 C527 1.378 . S
C526 H554 0.931 . S
C527 C522 1.377 . S
C527 C526 1.378 . S
C527 H555 0.931 . S
C528 O542 1.259 1_565 S
C528 O543 1.270 . S
C529 O544 1.251 . S
C529 O545 1.251 . S
C530 Eu531 2.835 . S
C530 C532 1.500 . S
C530 O546 1.257 . S
C530 O547 1.260 . S
Eu531 C530 2.835 . S
Eu531 O543 2.355 . S
Eu531 O545 2.374 . S
Eu531 O546 2.473 . S
Eu531 O547 2.480 . S
Eu531 O548 2.430 . S
Eu531 O549 2.670 . S
Eu531 O550 2.394 1_565 S
C532 C530 1.500 . S
C532 C533 1.377 . S
C532 C537 1.377 1_565 S
C533 C532 1.377 . S
C533 C534 1.395 . S
C533 H556 0.931 . S
C534 C533 1.395 . S
C534 C535 1.383 1_565 S
C534 H557 0.931 . S
C535 C534 1.383 1_545 S
C535 C536 1.394 . S
C536 C535 1.394 . S
C536 C537 1.378 . S
C536 H558 0.931 . S
C537 C532 1.377 1_545 S
C537 C536 1.378 . S
C537 H559 0.931 . S
C538 O548 1.259 . S
C538 O549 1.270 . S
C539 O550 1.251 . S
C539 O551 1.251 . S
O540 C520 1.257 . S
O540 Eu521 2.473 . S
O541 C520 1.260 . S
O541 Eu521 2.480 . S
O542 Eu521 2.430 1_545 S
O542 C528 1.259 1_545 S
O543 Eu521 2.670 . S
O543 C528 1.270 . S
O543 Eu531 2.355 . S
O544 Eu521 2.394 . S
O544 C529 1.251 . S
O545 C529 1.251 . S
O545 Eu531 2.374 . S
O546 C530 1.257 . S
O546 Eu531 2.473 . S
O547 C530 1.260 . S
O547 Eu531 2.480 . S
O548 Eu531 2.430 . S
O548 C538 1.259 . S
O549 Eu521 2.355 . S
O549 Eu531 2.670 . S
O549 C538 1.270 . S
O550 Eu531 2.394 1_545 S
O550 C539 1.251 . S
O551 Eu521 2.374 1_545 S
O551 C539 1.251 . S
H552 C523 0.931 1_455 S
H553 C524 0.931 . S
H554 C526 0.931 . S
H555 C527 0.931 . S
H556 C533 0.931 . S
H557 C534 0.931 . S
H558 C536 0.931 . S
H559 C537 0.931 . S
C560 Eu561 2.835 . S
C560 C562 1.500 . S
C560 O580 1.257 . S
C560 O581 1.260 . S
Eu561 C560 2.835 . S
Eu561 O580 2.473 . S
Eu561 O581 2.480 . S
Eu561 O582 2.430 . S
Eu561 O583 2.670 . S
Eu561 O584 2.394 . S
Eu561 O589 2.355 . S
Eu561 O591 2.374 . S
C562 C560 1.500 . S
C562 C563 1.377 . S
C562 C567 1.377 . S
C563 C562 1.377 . S
C563 C564 1.395 . S
C563 H592 0.931 . S
C564 C563 1.395 . S
C564 C565 1.383 . S
C564 H593 0.931 . S
C565 C564 1.383 . S
C565 C566 1.394 . S
C566 C565 1.394 . S
C566 C567 1.378 . S
C566 H594 0.931 . S
C567 C562 1.377 . S
C567 C566 1.378 . S
C567 H595 0.931 . S
C568 O582 1.259 . S
C568 O583 1.270 . S
C569 O584 1.251 . S
C569 O585 1.251 . S
C570 Eu571 2.835 . S
C570 C572 1.500 . S
C570 O586 1.257 . S
C570 O587 1.260 . S
Eu571 C570 2.835 . S
Eu571 O583 2.355 . S
Eu571 O585 2.374 . S
Eu571 O586 2.473 . S
Eu571 O587 2.480 . S
Eu571 O588 2.430 . S
Eu571 O589 2.670 . S
Eu571 O590 2.394 . S
C572 C570 1.500 . S
C572 C573 1.377 . S
C572 C577 1.377 . S
C573 C572 1.377 . S
C573 C574 1.395 . S
C573 H596 0.931 . S
C574 C573 1.395 . S
C574 C575 1.383 . S
C574 H597 0.931 . S
C575 C574 1.383 . S
C575 C576 1.394 . S
C576 C575 1.394 . S
C576 C577 1.378 . S
C576 H598 0.931 . S
C577 C572 1.377 . S
C577 C576 1.378 . S
C577 H599 0.931 . S
C578 O588 1.259 . S
C578 O589 1.270 . S
C579 O590 1.251 . S
C579 O591 1.251 . S
O580 C560 1.257 . S
O580 Eu561 2.473 . S
O581 C560 1.260 . S
O581 Eu561 2.480 . S
O582 Eu561 2.430 . S
O582 C568 1.259 . S
O583 Eu561 2.670 . S
O583 C568 1.270 . S
O583 Eu571 2.355 . S
O584 Eu561 2.394 . S
O584 C569 1.251 . S
O585 C569 1.251 . S
O585 Eu571 2.374 . S
O586 C570 1.257 . S
O586 Eu571 2.473 . S
O587 C570 1.260 . S
O587 Eu571 2.480 . S
O588 Eu571 2.430 . S
O588 C578 1.259 . S
O589 Eu561 2.355 . S
O589 Eu571 2.670 . S
O589 C578 1.270 . S
O590 Eu571 2.394 . S
O590 C579 1.251 . S
O591 Eu561 2.374 . S
O591 C579 1.251 . S
H592 C563 0.931 . S
H593 C564 0.931 . S
H594 C566 0.931 . S
H595 C567 0.931 . S
H596 C573 0.931 . S
H597 C574 0.931 . S
H598 C576 0.931 . S
H599 C577 0.931 . S
C600 Eu601 2.835 . S
C600 C602 1.500 . S
C600 O620 1.257 . S
C600 O621 1.260 . S
Eu601 C600 2.835 . S
Eu601 O620 2.473 . S
Eu601 O621 2.480 . S
Eu601 O622 2.430 1_545 S
Eu601 O623 2.670 . S
Eu601 O624 2.394 . S
Eu601 O629 2.355 . S
Eu601 O631 2.374 1_545 S
C602 C600 1.500 . S
C602 C603 1.377 . S
C602 C607 1.377 . S
C603 C602 1.377 . S
C603 C604 1.395 . S
C603 H632 0.931 . S
C604 C603 1.395 . S
C604 C605 1.383 . S
C604 H633 0.931 . S
C605 C604 1.383 . S
C605 C606 1.394 . S
C606 C605 1.394 . S
C606 C607 1.378 . S
C606 H634 0.931 . S
C607 C602 1.377 . S
C607 C606 1.378 . S
C607 H635 0.931 . S
C608 O622 1.259 1_545 S
C608 O623 1.270 . S
C609 O624 1.251 . S
C609 O625 1.251 . S
C610 Eu611 2.835 . S
C610 C612 1.500 . S
C610 O626 1.257 . S
C610 O627 1.260 . S
Eu611 C610 2.835 . S
Eu611 O623 2.355 . S
Eu611 O625 2.374 . S
Eu611 O626 2.473 . S
Eu611 O627 2.480 . S
Eu611 O628 2.430 . S
Eu611 O629 2.670 . S
Eu611 O630 2.394 1_545 S
C612 C610 1.500 . S
C612 C613 1.377 . S
C612 C617 1.377 1_545 S
C613 C612 1.377 . S
C613 C614 1.395 . S
C613 H636 0.931 . S
C614 C613 1.395 . S
C614 C615 1.383 1_545 S
C614 H637 0.931 . S
C615 C614 1.383 1_565 S
C615 C616 1.394 . S
C616 C615 1.394 . S
C616 C617 1.378 . S
C616 H638 0.931 . S
C617 C612 1.377 1_565 S
C617 C616 1.378 . S
C617 H639 0.931 . S
C618 O628 1.259 . S
C618 O629 1.270 . S
C619 O630 1.251 . S
C619 O631 1.251 . S
O620 C600 1.257 . S
O620 Eu601 2.473 . S
O621 C600 1.260 . S
O621 Eu601 2.480 . S
O622 Eu601 2.430 1_565 S
O622 C608 1.259 1_565 S
O623 Eu601 2.670 . S
O623 C608 1.270 . S
O623 Eu611 2.355 . S
O624 Eu601 2.394 . S
O624 C609 1.251 . S
O625 C609 1.251 . S
O625 Eu611 2.374 . S
O626 C610 1.257 . S
O626 Eu611 2.473 . S
O627 C610 1.260 . S
O627 Eu611 2.480 . S
O628 Eu611 2.430 . S
O628 C618 1.259 . S
O629 Eu601 2.355 . S
O629 Eu611 2.670 . S
O629 C618 1.270 . S
O630 Eu611 2.394 1_565 S
O630 C619 1.251 . S
O631 Eu601 2.374 1_565 S
O631 C619 1.251 . S
H632 C603 0.931 . S
H633 C604 0.931 . S
H634 C606 0.931 . S
H635 C607 0.931 . S
H636 C613 0.931 . S
H637 C614 0.931 . S
H638 C616 0.931 . S
H639 C617 0.931 . S
C640 C641 1.391 . S
C640 C642 1.394 . S
C640 H656 0.931 . S
C641 C640 1.391 . S
C641 C645 1.376 . S
C642 C640 1.394 . S
C642 C643 1.369 . S
C642 C646 1.531 . S
C643 C642 1.369 . S
C643 C644 1.410 . S
C643 C651 1.503 . S
C644 C643 1.410 . S
C644 C645 1.392 . S
C644 C647 1.511 . S
C645 C641 1.376 . S
C645 C644 1.392 . S
C645 H657 0.929 . S
C646 C642 1.531 . S
C646 H658 0.960 . S
C646 H659 0.962 . S
C646 H660 0.960 . S
C647 C644 1.511 . S
C647 H661 0.961 . S
C647 H662 0.961 . S
C647 H663 0.961 . S
C648 C649 1.370 . S
C648 C650 1.363 . S
C648 H664 0.931 . S
C649 C648 1.370 . S
C649 C653 1.408 . S
C650 C648 1.363 . S
C650 C651 1.370 . S
C650 C654 1.524 . S
C651 C643 1.503 . S
C651 C650 1.370 . S
C651 C652 1.403 . S
C652 C651 1.403 . S
C652 C653 1.404 . S
C652 C655 1.539 . S
C653 C649 1.408 . S
C653 C652 1.404 . S
C653 H665 0.930 . S
C654 C650 1.524 . S
C654 H666 0.956 . S
C654 H667 0.961 . S
C654 H668 0.961 . S
C655 C652 1.539 . S
C655 H669 0.958 . S
C655 H670 0.961 . S
C655 H671 0.960 . S
H656 C640 0.931 . S
H657 C645 0.929 . S
H658 C646 0.960 . S
H659 C646 0.962 . S
H660 C646 0.960 . S
H661 C647 0.961 . S
H662 C647 0.961 . S
H663 C647 0.961 . S
H664 C648 0.931 . S
H665 C653 0.930 . S
H666 C654 0.956 . S
H667 C654 0.961 . S
H668 C654 0.961 . S
H669 C655 0.958 . S
H670 C655 0.961 . S
H671 C655 0.960 . S
C672 C673 1.391 . S
C672 C674 1.394 . S
C672 H688 0.931 . S
C673 C672 1.391 . S
C673 C677 1.376 . S
C674 C672 1.394 . S
C674 C675 1.369 . S
C674 C678 1.531 . S
C675 C674 1.369 . S
C675 C676 1.410 . S
C675 C683 1.503 . S
C676 C675 1.410 . S
C676 C677 1.392 . S
C676 C679 1.511 . S
C677 C673 1.376 . S
C677 C676 1.392 . S
C677 H689 0.929 . S
C678 C674 1.531 . S
C678 H690 0.960 . S
C678 H691 0.962 . S
C678 H692 0.960 . S
C679 C676 1.511 . S
C679 H693 0.961 . S
C679 H694 0.961 . S
C679 H695 0.961 . S
C680 C681 1.370 . S
C680 C682 1.363 . S
C680 H696 0.931 . S
C681 C680 1.370 . S
C681 C685 1.408 . S
C682 C680 1.363 . S
C682 C683 1.370 . S
C682 C686 1.524 . S
C683 C675 1.503 . S
C683 C682 1.370 . S
C683 C684 1.403 . S
C684 C683 1.403 . S
C684 C685 1.404 . S
C684 C687 1.539 . S
C685 C681 1.408 . S
C685 C684 1.404 . S
C685 H697 0.930 . S
C686 C682 1.524 . S
C686 H698 0.956 . S
C686 H699 0.961 . S
C686 H700 0.961 . S
C687 C684 1.539 . S
C687 H701 0.958 . S
C687 H702 0.961 . S
C687 H703 0.960 . S
H688 C672 0.931 . S
H689 C677 0.929 . S
H690 C678 0.960 . S
H691 C678 0.962 . S
H692 C678 0.960 . S
H693 C679 0.961 . S
H694 C679 0.961 . S
H695 C679 0.961 . S
H696 C680 0.931 . S
H697 C685 0.930 . S
H698 C686 0.956 . S
H699 C686 0.961 . S
H700 C686 0.961 . S
H701 C687 0.958 . S
H702 C687 0.961 . S
H703 C687 0.960 . S
C704 C705 1.391 . S
C704 C706 1.394 . S
C704 H720 0.931 . S
C705 C704 1.391 . S
C705 C709 1.376 . S
C706 C704 1.394 . S
C706 C707 1.369 . S
C706 C710 1.531 . S
C707 C706 1.369 . S
C707 C708 1.410 . S
C707 C715 1.503 . S
C708 C707 1.410 . S
C708 C709 1.392 . S
C708 C711 1.511 . S
C709 C705 1.376 . S
C709 C708 1.392 . S
C709 H721 0.929 . S
C710 C706 1.531 . S
C710 H722 0.960 . S
C710 H723 0.962 . S
C710 H724 0.960 . S
C711 C708 1.511 . S
C711 H725 0.961 . S
C711 H726 0.961 . S
C711 H727 0.961 . S
C712 C713 1.370 . S
C712 C714 1.363 . S
C712 H728 0.931 . S
C713 C712 1.370 . S
C713 C717 1.408 . S
C714 C712 1.363 . S
C714 C715 1.370 . S
C714 C718 1.524 . S
C715 C707 1.503 . S
C715 C714 1.370 . S
C715 C716 1.403 . S
C716 C715 1.403 . S
C716 C717 1.404 . S
C716 C719 1.539 . S
C717 C713 1.408 . S
C717 C716 1.404 . S
C717 H729 0.930 . S
C718 C714 1.524 . S
C718 H730 0.956 . S
C718 H731 0.961 . S
C718 H732 0.961 . S
C719 C716 1.539 . S
C719 H733 0.958 . S
C719 H734 0.961 . S
C719 H735 0.960 . S
H720 C704 0.931 . S
H721 C709 0.929 . S
H722 C710 0.960 . S
H723 C710 0.962 . S
H724 C710 0.960 . S
H725 C711 0.961 . S
H726 C711 0.961 . S
H727 C711 0.961 . S
H728 C712 0.931 . S
H729 C717 0.930 . S
H730 C718 0.956 . S
H731 C718 0.961 . S
H732 C718 0.961 . S
H733 C719 0.958 . S
H734 C719 0.961 . S
H735 C719 0.960 . S
C736 C737 1.391 1_655 S
C736 C738 1.394 . S
C736 H752 0.931 . S
C737 C736 1.391 1_455 S
C737 C741 1.376 . S
C738 C736 1.394 . S
C738 C739 1.368 . S
C738 C742 1.531 . S
C739 C738 1.368 . S
C739 C740 1.409 1_655 S
C739 C747 1.504 1_556 S
C740 C739 1.409 1_455 S
C740 C741 1.392 . S
C740 C743 1.511 1_556 S
C741 C737 1.376 . S
C741 C740 1.392 . S
C741 H753 0.929 . S
C742 C738 1.531 . S
C742 H754 0.960 1_556 S
C742 H755 0.962 . S
C742 H756 0.960 . S
C743 C740 1.511 1_554 S
C743 H757 0.942 1_554 S
C743 H758 0.961 . S
C743 H759 0.961 . S
C744 C745 1.426 1_455 S
C744 C746 1.345 1_554 S
C744 H760 0.894 1_554 S
C745 C744 1.426 1_655 S
C745 C749 1.408 . S
C746 C744 1.345 1_556 S
C746 C747 1.370 1_456 S
C746 C750 1.524 . S
C747 C739 1.504 1_554 S
C747 C746 1.370 1_654 S
C747 C748 1.403 . S
C748 C747 1.403 . S
C748 C749 1.404 . S
C748 C751 1.539 . S
C749 C745 1.408 . S
C749 C748 1.404 . S
C749 H761 0.930 . S
C750 C746 1.524 . S
C750 H762 0.956 1_455 S
C750 H763 0.961 . S
C750 H764 0.961 . S
C751 C748 1.539 . S
C751 H765 0.958 . S
C751 H766 0.965 . S
C751 H767 0.960 1_655 S
H752 C736 0.931 . S
H753 C741 0.929 . S
H754 C742 0.960 1_554 S
H755 C742 0.962 . S
H756 C742 0.960 . S
H757 C743 0.942 1_556 S
H758 C743 0.961 . S
H759 C743 0.961 . S
H760 C744 0.894 1_556 S
H761 C749 0.930 . S
H762 C750 0.956 1_655 S
H763 C750 0.961 . S
H764 C750 0.961 . S
H765 C751 0.958 . S
H766 C751 0.965 . S
H767 C751 0.960 1_455 S
C768 C769 1.391 . S
C768 C770 1.394 . S
C768 H784 0.931 . S
C769 C768 1.391 . S
C769 C773 1.376 . S
C770 C768 1.394 . S
C770 C771 1.369 . S
C770 C774 1.531 . S
C771 C770 1.369 . S
C771 C772 1.410 . S
C771 C779 1.503 . S
C772 C771 1.410 . S
C772 C773 1.392 . S
C772 C775 1.511 . S
C773 C769 1.376 . S
C773 C772 1.392 . S
C773 H785 0.929 . S
C774 C770 1.531 . S
C774 H786 0.960 . S
C774 H787 0.962 . S
C774 H788 0.960 . S
C775 C772 1.511 . S
C775 H789 0.961 . S
C775 H790 0.961 . S
C775 H791 0.961 . S
C776 C777 1.370 . S
C776 C778 1.363 . S
C776 H792 0.931 . S
C777 C776 1.370 . S
C777 C781 1.408 . S
C778 C776 1.363 . S
C778 C779 1.370 . S
C778 C782 1.524 . S
C779 C771 1.503 . S
C779 C778 1.370 . S
C779 C780 1.403 . S
C780 C779 1.403 . S
C780 C781 1.404 . S
C780 C783 1.539 . S
C781 C777 1.408 . S
C781 C780 1.404 . S
C781 H793 0.930 . S
C782 C778 1.524 . S
C782 H794 0.956 . S
C782 H795 0.961 . S
C782 H796 0.961 . S
C783 C780 1.539 . S
C783 H797 0.958 . S
C783 H798 0.961 . S
C783 H799 0.960 . S
H784 C768 0.931 . S
H785 C773 0.929 . S
H786 C774 0.960 . S
H787 C774 0.962 . S
H788 C774 0.960 . S
H789 C775 0.961 . S
H790 C775 0.961 . S
H791 C775 0.961 . S
H792 C776 0.931 . S
H793 C781 0.930 . S
H794 C782 0.956 . S
H795 C782 0.961 . S
H796 C782 0.961 . S
H797 C783 0.958 . S
H798 C783 0.961 . S
H799 C783 0.960 . S
C800 C801 1.391 . S
C800 C802 1.394 . S
C800 H816 0.931 . S
C801 C800 1.391 . S
C801 C805 1.376 . S
C802 C800 1.394 . S
C802 C803 1.369 . S
C802 C806 1.531 . S
C803 C802 1.369 . S
C803 C804 1.410 . S
C803 C811 1.503 . S
C804 C803 1.410 . S
C804 C805 1.392 . S
C804 C807 1.511 . S
C805 C801 1.376 . S
C805 C804 1.392 . S
C805 H817 0.929 . S
C806 C802 1.531 . S
C806 H818 0.960 . S
C806 H819 0.962 . S
C806 H820 0.960 . S
C807 C804 1.511 . S
C807 H821 0.961 . S
C807 H822 0.961 . S
C807 H823 0.961 . S
C808 C809 1.370 . S
C808 C810 1.363 . S
C808 H824 0.931 . S
C809 C808 1.370 . S
C809 C813 1.408 . S
C810 C808 1.363 . S
C810 C811 1.370 . S
C810 C814 1.524 . S
C811 C803 1.503 . S
C811 C810 1.370 . S
C811 C812 1.403 . S
C812 C811 1.403 . S
C812 C813 1.404 . S
C812 C815 1.539 . S
C813 C809 1.408 . S
C813 C812 1.404 . S
C813 H825 0.930 . S
C814 C810 1.524 . S
C814 H826 0.956 . S
C814 H827 0.961 . S
C814 H828 0.961 . S
C815 C812 1.539 . S
C815 H829 0.958 . S
C815 H830 0.961 . S
C815 H831 0.960 . S
H816 C800 0.931 . S
H817 C805 0.929 . S
H818 C806 0.960 . S
H819 C806 0.962 . S
H820 C806 0.960 . S
H821 C807 0.961 . S
H822 C807 0.961 . S
H823 C807 0.961 . S
H824 C808 0.931 . S
H825 C813 0.930 . S
H826 C814 0.956 . S
H827 C814 0.961 . S
H828 C814 0.961 . S
H829 C815 0.958 . S
H830 C815 0.961 . S
H831 C815 0.960 . S
C832 C833 1.394 1_456 S
C832 C834 1.392 . S
C832 H848 0.928 . S
C833 C832 1.394 1_654 S
C833 C837 1.377 . S
C834 C832 1.392 . S
C834 C835 1.369 1_456 S
C834 C838 1.531 . S
C835 C834 1.369 1_654 S
C835 C836 1.410 . S
C835 C843 1.503 1_564 S
C836 C835 1.410 . S
C836 C837 1.392 . S
C836 C839 1.511 1_565 S
C837 C833 1.377 . S
C837 C836 1.392 . S
C837 H849 0.929 . S
C838 C834 1.531 . S
C838 H850 0.960 . S
C838 H851 0.962 . S
C838 H852 0.960 . S
C839 C836 1.511 1_545 S
C839 H853 0.961 1_545 S
C839 H854 0.961 . S
C839 H855 0.961 . S
C840 C841 1.370 1_455 S
C840 C842 1.363 . S
C840 H856 0.931 . S
C841 C840 1.370 1_655 S
C841 C845 1.408 . S
C842 C840 1.363 . S
C842 C843 1.370 1_455 S
C842 C846 1.524 1_556 S
C843 C835 1.503 1_546 S
C843 C842 1.370 1_655 S
C843 C844 1.403 . S
C844 C843 1.403 . S
C844 C845 1.404 . S
C844 C847 1.539 . S
C845 C841 1.408 . S
C845 C844 1.404 . S
C845 H857 0.930 . S
C846 C842 1.524 1_554 S
C846 H858 0.956 . S
C846 H859 0.961 . S
C846 H860 0.961 . S
C847 C844 1.539 . S
C847 H861 0.958 1_545 S
C847 H862 0.961 . S
C847 H863 0.960 1_545 S
H848 C832 0.928 . S
H849 C837 0.929 . S
H850 C838 0.960 . S
H851 C838 0.962 . S
H852 C838 0.960 . S
H853 C839 0.961 1_565 S
H854 C839 0.961 . S
H855 C839 0.961 . S
H856 C840 0.931 . S
H857 C845 0.930 . S
H858 C846 0.956 . S
H859 C846 0.961 . S
H860 C846 0.961 . S
H861 C847 0.958 1_565 S
H862 C847 0.961 . S
H863 C847 0.960 1_565 S
C864 C865 1.391 . S
C864 C866 1.394 . S
C864 H880 0.931 . S
C865 C864 1.391 . S
C865 C869 1.376 . S
C866 C864 1.394 . S
C866 C867 1.369 . S
C866 C870 1.531 . S
C867 C866 1.369 . S
C867 C868 1.410 . S
C867 C875 1.503 1_565 S
C868 C867 1.410 . S
C868 C869 1.392 . S
C868 C871 1.511 . S
C869 C865 1.376 . S
C869 C868 1.392 . S
C869 H881 0.929 . S
C870 C866 1.531 . S
C870 H882 0.960 . S
C870 H883 0.962 . S
C870 H884 0.960 . S
C871 C868 1.511 . S
C871 H885 0.961 . S
C871 H886 0.961 1_565 S
C871 H887 0.961 . S
C872 C873 1.370 . S
C872 C874 1.363 . S
C872 H888 0.931 . S
C873 C872 1.370 . S
C873 C877 1.408 . S
C874 C872 1.363 . S
C874 C875 1.370 . S
C874 C878 1.524 . S
C875 C867 1.503 1_545 S
C875 C874 1.370 . S
C875 C876 1.403 . S
C876 C875 1.403 . S
C876 C877 1.404 . S
C876 C879 1.539 1_545 S
C877 C873 1.408 . S
C877 C876 1.404 . S
C877 H889 0.930 . S
C878 C874 1.524 . S
C878 H890 0.956 . S
C878 H891 0.961 . S
C878 H892 0.961 . S
C879 C876 1.539 1_565 S
C879 H893 0.958 . S
C879 H894 0.961 1_565 S
C879 H895 0.960 . S
H880 C864 0.931 . S
H881 C869 0.929 . S
H882 C870 0.960 . S
H883 C870 0.962 . S
H884 C870 0.960 . S
H885 C871 0.961 . S
H886 C871 0.961 1_545 S
H887 C871 0.961 . S
H888 C872 0.931 . S
H889 C877 0.930 . S
H890 C878 0.956 . S
H891 C878 0.961 . S
H892 C878 0.961 . S
H893 C879 0.958 . S
H894 C879 0.961 1_545 S
H895 C879 0.960 . S
C896 C897 1.391 . S
C896 C898 1.394 . S
C896 H912 0.931 . S
C897 C896 1.391 . S
C897 C901 1.376 . S
C898 C896 1.394 . S
C898 C899 1.369 . S
C898 C902 1.531 1_545 S
C899 C898 1.369 . S
C899 C900 1.410 . S
C899 C907 1.503 . S
C900 C899 1.410 . S
C900 C901 1.392 . S
C900 C903 1.511 . S
C901 C897 1.376 . S
C901 C900 1.392 . S
C901 H913 0.929 . S
C902 C898 1.531 1_565 S
C902 H914 0.960 . S
C902 H915 0.962 1_565 S
C902 H916 0.960 . S
C903 C900 1.511 . S
C903 H917 0.961 . S
C903 H918 0.961 . S
C903 H919 0.961 . S
C904 C905 1.370 . S
C904 C906 1.363 1_554 S
C904 H920 0.931 . S
C905 C904 1.370 . S
C905 C909 1.408 1_544 S
C906 C904 1.363 1_556 S
C906 C907 1.370 . S
C906 C910 1.524 . S
C907 C899 1.503 . S
C907 C906 1.370 . S
C907 C908 1.394 1_545 S
C908 C907 1.394 1_565 S
C908 C909 1.405 . S
C908 C911 1.546 . S
C909 C905 1.408 1_566 S
C909 C908 1.405 . S
C909 H921 0.930 1_556 S
C910 C906 1.524 . S
C910 H922 0.956 . S
C910 H923 0.961 . S
C910 H924 0.961 . S
C911 C908 1.546 . S
C911 H925 0.958 . S
C911 H926 0.961 . S
C911 H927 0.960 . S
H912 C896 0.931 . S
H913 C901 0.929 . S
H914 C902 0.960 . S
H915 C902 0.962 1_545 S
H916 C902 0.960 . S
H917 C903 0.961 . S
H918 C903 0.961 . S
H919 C903 0.961 . S
H920 C904 0.931 . S
H921 C909 0.930 1_554 S
H922 C910 0.956 . S
H923 C910 0.961 . S
H924 C910 0.961 . S
H925 C911 0.958 . S
H926 C911 0.961 . S
H927 C911 0.960 . S
C928 C929 1.391 . S
C928 C930 1.394 . S
C928 H944 0.931 . S
C929 C928 1.391 . S
C929 C933 1.376 . S
C930 C928 1.394 . S
C930 C931 1.369 . S
C930 C934 1.531 . S
C931 C930 1.369 . S
C931 C932 1.410 . S
C931 C939 1.503 . S
C932 C931 1.410 . S
C932 C933 1.392 . S
C932 C935 1.511 . S
C933 C929 1.376 . S
C933 C932 1.392 . S
C933 H945 0.929 . S
C934 C930 1.531 . S
C934 H946 0.960 . S
C934 H947 0.962 . S
C934 H948 0.960 . S
C935 C932 1.511 . S
C935 H949 0.961 . S
C935 H950 0.961 . S
C935 H951 0.961 . S
C936 C937 1.370 . S
C936 C938 1.363 . S
C936 H952 0.931 . S
C937 C936 1.370 . S
C937 C941 1.408 . S
C938 C936 1.363 . S
C938 C939 1.370 . S
C938 C942 1.524 . S
C939 C931 1.503 . S
C939 C938 1.370 . S
C939 C940 1.403 . S
C940 C939 1.403 . S
C940 C941 1.404 . S
C940 C943 1.539 . S
C941 C937 1.408 . S
C941 C940 1.404 . S
C941 H953 0.930 . S
C942 C938 1.524 . S
C942 H954 0.956 . S
C942 H955 0.961 . S
C942 H956 0.961 . S
C943 C940 1.539 . S
C943 H957 0.958 . S
C943 H958 0.961 . S
C943 H959 0.960 . S
H944 C928 0.931 . S
H945 C933 0.929 . S
H946 C934 0.960 . S
H947 C934 0.962 . S
H948 C934 0.960 . S
H949 C935 0.961 . S
H950 C935 0.961 . S
H951 C935 0.961 . S
H952 C936 0.931 . S
H953 C941 0.930 . S
H954 C942 0.956 . S
H955 C942 0.961 . S
H956 C942 0.961 . S
H957 C943 0.958 . S
H958 C943 0.961 . S
H959 C943 0.960 . S
C960 C961 1.391 . S
C960 C962 1.394 . S
C960 H976 0.931 . S
C961 C960 1.391 . S
C961 C965 1.376 . S
C962 C960 1.394 . S
C962 C963 1.369 . S
C962 C966 1.531 . S
C963 C962 1.369 . S
C963 C964 1.410 . S
C963 C971 1.503 . S
C964 C963 1.410 . S
C964 C965 1.392 . S
C964 C967 1.511 . S
C965 C961 1.376 . S
C965 C964 1.392 . S
C965 H977 0.929 . S
C966 C962 1.531 . S
C966 H978 0.960 . S
C966 H979 0.962 . S
C966 H980 0.960 . S
C967 C964 1.511 . S
C967 H981 0.961 . S
C967 H982 0.961 . S
C967 H983 0.961 . S
C968 C969 1.370 . S
C968 C970 1.363 . S
C968 H984 0.934 . S
C969 C968 1.370 . S
C969 C973 1.408 . S
C970 C968 1.363 . S
C970 C971 1.370 . S
C970 C974 1.524 1_565 S
C971 C963 1.503 . S
C971 C970 1.370 . S
C971 C972 1.403 . S
C972 C971 1.403 . S
C972 C973 1.404 . S
C972 C975 1.539 . S
C973 C969 1.408 . S
C973 C972 1.404 . S
C973 H985 0.930 . S
C974 C970 1.524 1_545 S
C974 H986 0.956 . S
C974 H987 0.961 . S
C974 H988 0.961 . S
C975 C972 1.539 . S
C975 H989 0.958 . S
C975 H990 0.961 . S
C975 H991 0.960 . S
H976 C960 0.931 . S
H977 C965 0.929 . S
H978 C966 0.960 . S
H979 C966 0.962 . S
H980 C966 0.960 . S
H981 C967 0.961 . S
H982 C967 0.961 . S
H983 C967 0.961 . S
H984 C968 0.934 . S
H985 C973 0.930 . S
H986 C974 0.956 . S
H987 C974 0.961 . S
H988 C974 0.961 . S
H989 C975 0.958 . S
H990 C975 0.961 . S
H991 C975 0.960 . S
C992 C993 1.391 . S
C992 C994 1.394 . S
C992 H1008 0.931 . S
C993 C992 1.391 . S
C993 C997 1.376 . S
C994 C992 1.394 . S
C994 C995 1.369 . S
C994 C998 1.531 . S
C995 C994 1.369 . S
C995 C996 1.410 . S
C995 C1003 1.503 . S
C996 C995 1.410 . S
C996 C997 1.392 . S
C996 C999 1.511 . S
C997 C993 1.376 . S
C997 C996 1.392 . S
C997 H1009 0.929 . S
C998 C994 1.531 . S
C998 H1010 0.960 . S
C998 H1011 0.962 . S
C998 H1012 0.960 . S
C999 C996 1.511 . S
C999 H1013 0.961 . S
C999 H1014 0.961 . S
C999 H1015 0.961 . S
C1000 C1001 1.370 . S
C1000 C1002 1.363 . S
C1000 H1016 0.931 . S
C1001 C1000 1.370 . S
C1001 C1005 1.408 . S
C1002 C1000 1.363 . S
C1002 C1003 1.370 . S
C1002 C1006 1.524 . S
C1003 C995 1.503 . S
C1003 C1002 1.370 . S
C1003 C1004 1.403 . S
C1004 C1003 1.403 . S
C1004 C1005 1.404 . S
C1004 C1007 1.539 . S
C1005 C1001 1.408 . S
C1005 C1004 1.404 . S
C1005 H1017 0.930 . S
C1006 C1002 1.524 . S
C1006 H1018 0.956 . S
C1006 H1019 0.961 . S
C1006 H1020 0.961 . S
C1007 C1004 1.539 . S
C1007 H1021 0.958 . S
C1007 H1022 0.961 . S
C1007 H1023 0.960 . S
H1008 C992 0.931 . S
H1009 C997 0.929 . S
H1010 C998 0.960 . S
H1011 C998 0.962 . S
H1012 C998 0.960 . S
H1013 C999 0.961 . S
H1014 C999 0.961 . S
H1015 C999 0.961 . S
H1016 C1000 0.931 . S
H1017 C1005 0.930 . S
H1018 C1006 0.956 . S
H1019 C1006 0.961 . S
H1020 C1006 0.961 . S
H1021 C1007 0.958 . S
H1022 C1007 0.961 . S
H1023 C1007 0.960 . S
C1024 C1025 1.391 . S
C1024 C1026 1.394 . S
C1024 H1040 0.931 . S
C1025 C1024 1.391 . S
C1025 C1029 1.376 . S
C1026 C1024 1.394 . S
C1026 C1027 1.369 . S
C1026 C1030 1.531 1_565 S
C1027 C1026 1.369 . S
C1027 C1028 1.410 . S
C1027 C1035 1.503 . S
C1028 C1027 1.410 . S
C1028 C1029 1.392 . S
C1028 C1031 1.511 . S
C1029 C1025 1.376 . S
C1029 C1028 1.392 . S
C1029 H1041 0.929 . S
C1030 C1026 1.531 1_545 S
C1030 H1042 0.960 . S
C1030 H1043 0.962 . S
C1030 H1044 0.960 . S
C1031 C1028 1.511 . S
C1031 H1045 0.961 . S
C1031 H1046 0.961 . S
C1031 H1047 0.961 . S
C1032 C1033 1.370 1_554 S
C1032 C1034 1.363 . S
C1032 H1048 0.931 1_554 S
C1033 C1032 1.370 1_556 S
C1033 C1037 1.408 . S
C1034 C1032 1.363 . S
C1034 C1035 1.370 . S
C1034 C1038 1.524 . S
C1035 C1027 1.503 . S
C1035 C1034 1.370 . S
C1035 C1036 1.403 . S
C1036 C1035 1.403 . S
C1036 C1037 1.404 1_554 S
C1036 C1039 1.539 1_565 S
C1037 C1033 1.408 . S
C1037 C1036 1.404 1_556 S
C1037 H1049 0.930 1_565 S
C1038 C1034 1.524 . S
C1038 H1050 0.956 . S
C1038 H1051 0.961 . S
C1038 H1052 0.961 . S
C1039 C1036 1.539 1_545 S
C1039 H1053 0.958 . S
C1039 H1054 0.961 . S
C1039 H1055 0.960 1_545 S
H1040 C1024 0.931 . S
H1041 C1029 0.929 . S
H1042 C1030 0.960 . S
H1043 C1030 0.962 . S
H1044 C1030 0.960 . S
H1045 C1031 0.961 . S
H1046 C1031 0.961 . S
H1047 C1031 0.961 . S
H1048 C1032 0.931 1_556 S
H1049 C1037 0.930 1_545 S
H1050 C1038 0.956 . S
H1051 C1038 0.961 . S
H1052 C1038 0.961 . S
H1053 C1039 0.958 . S
H1054 C1039 0.961 . S
H1055 C1039 0.960 1_565 S
C1056 C1057 1.391 . S
C1056 C1058 1.394 . S
C1056 H1072 0.931 . S
C1057 C1056 1.391 . S
C1057 C1061 1.376 . S
C1058 C1056 1.394 . S
C1058 C1059 1.369 . S
C1058 C1062 1.531 . S
C1059 C1058 1.369 . S
C1059 C1060 1.410 . S
C1059 C1067 1.503 . S
C1060 C1059 1.410 . S
C1060 C1061 1.392 . S
C1060 C1063 1.511 . S
C1061 C1057 1.376 . S
C1061 C1060 1.392 . S
C1061 H1073 0.929 . S
C1062 C1058 1.531 . S
C1062 H1074 0.960 . S
C1062 H1075 0.962 . S
C1062 H1076 0.960 . S
C1063 C1060 1.511 . S
C1063 H1077 0.961 . S
C1063 H1078 0.961 . S
C1063 H1079 0.961 . S
C1064 C1065 1.370 . S
C1064 C1066 1.363 . S
C1064 H1080 0.931 . S
C1065 C1064 1.370 . S
C1065 C1069 1.408 . S
C1066 C1064 1.363 . S
C1066 C1067 1.370 . S
C1066 C1070 1.524 . S
C1067 C1059 1.503 . S
C1067 C1066 1.370 . S
C1067 C1068 1.403 . S
C1068 C1067 1.403 . S
C1068 C1069 1.404 . S
C1068 C1071 1.539 . S
C1069 C1065 1.408 . S
C1069 C1068 1.404 . S
C1069 H1081 0.930 . S
C1070 C1066 1.524 . S
C1070 H1082 0.956 . S
C1070 H1083 0.961 . S
C1070 H1084 0.961 . S
C1071 C1068 1.539 . S
C1071 H1085 0.958 . S
C1071 H1086 0.961 . S
C1071 H1087 0.960 . S
H1072 C1056 0.931 . S
H1073 C1061 0.929 . S
H1074 C1062 0.960 . S
H1075 C1062 0.962 . S
H1076 C1062 0.960 . S
H1077 C1063 0.961 . S
H1078 C1063 0.961 . S
H1079 C1063 0.961 . S
H1080 C1064 0.931 . S
H1081 C1069 0.930 . S
H1082 C1070 0.956 . S
H1083 C1070 0.961 . S
H1084 C1070 0.961 . S
H1085 C1071 0.958 . S
H1086 C1071 0.961 . S
H1087 C1071 0.960 . S
C1088 C1089 1.391 1_565 S
C1088 C1090 1.394 1_565 S
C1088 H1104 0.931 . S
C1089 C1088 1.391 1_545 S
C1089 C1093 1.376 . S
C1090 C1088 1.394 1_545 S
C1090 C1091 1.369 . S
C1090 C1094 1.531 1_545 S
C1091 C1090 1.369 . S
C1091 C1092 1.410 . S
C1091 C1099 1.503 . S
C1092 C1091 1.410 . S
C1092 C1093 1.392 . S
C1092 C1095 1.511 . S
C1093 C1089 1.376 . S
C1093 C1092 1.392 . S
C1093 H1105 0.929 . S
C1094 C1090 1.531 1_565 S
C1094 H1106 0.960 . S
C1094 H1107 0.962 . S
C1094 H1108 0.960 . S
C1095 C1092 1.511 . S
C1095 H1109 0.961 . S
C1095 H1110 0.961 . S
C1095 H1111 0.961 . S
C1096 C1097 1.370 . S
C1096 C1098 1.363 . S
C1096 H1112 0.931 . S
C1097 C1096 1.370 . S
C1097 C1101 1.408 . S
C1098 C1096 1.363 . S
C1098 C1099 1.370 . S
C1098 C1102 1.524 . S
C1099 C1091 1.503 . S
C1099 C1098 1.370 . S
C1099 C1100 1.403 . S
C1100 C1099 1.403 . S
C1100 C1101 1.404 . S
C1100 C1103 1.539 1_545 S
C1101 C1097 1.408 . S
C1101 C1100 1.404 . S
C1101 H1113 0.930 . S
C1102 C1098 1.524 . S
C1102 H1114 0.956 . S
C1102 H1115 0.961 . S
C1102 H1116 0.961 . S
C1103 C1100 1.539 1_565 S
C1103 H1117 0.958 . S
C1103 H1118 0.961 . S
C1103 H1119 0.960 . S
H1104 C1088 0.931 . S
H1105 C1093 0.929 . S
H1106 C1094 0.960 . S
H1107 C1094 0.962 . S
H1108 C1094 0.960 . S
H1109 C1095 0.961 . S
H1110 C1095 0.961 . S
H1111 C1095 0.961 . S
H1112 C1096 0.931 . S
H1113 C1101 0.930 . S
H1114 C1102 0.956 . S
H1115 C1102 0.961 . S
H1116 C1102 0.961 . S
H1117 C1103 0.958 . S
H1118 C1103 0.961 . S
H1119 C1103 0.960 . S
C1120 C1121 1.391 . S
C1120 C1122 1.394 . S
C1120 H1136 0.931 . S
C1121 C1120 1.391 . S
C1121 C1125 1.376 . S
C1122 C1120 1.394 . S
C1122 C1123 1.369 . S
C1122 C1126 1.531 . S
C1123 C1122 1.369 . S
C1123 C1124 1.410 . S
C1123 C1131 1.503 . S
C1124 C1123 1.410 . S
C1124 C1125 1.392 . S
C1124 C1127 1.511 . S
C1125 C1121 1.376 . S
C1125 C1124 1.392 . S
C1125 H1137 0.929 . S
C1126 C1122 1.531 . S
C1126 H1138 0.960 . S
C1126 H1139 0.962 . S
C1126 H1140 0.960 . S
C1127 C1124 1.511 . S
C1127 H1141 0.961 . S
C1127 H1142 0.961 . S
C1127 H1143 0.961 . S
C1128 C1129 1.370 . S
C1128 C1130 1.363 . S
C1128 H1144 0.931 . S
C1129 C1128 1.370 . S
C1129 C1133 1.408 . S
C1130 C1128 1.363 . S
C1130 C1131 1.370 . S
C1130 C1134 1.524 . S
C1131 C1123 1.503 . S
C1131 C1130 1.370 . S
C1131 C1132 1.403 . S
C1132 C1131 1.403 . S
C1132 C1133 1.404 . S
C1132 C1135 1.539 . S
C1133 C1129 1.408 . S
C1133 C1132 1.404 . S
C1133 H1145 0.930 . S
C1134 C1130 1.524 . S
C1134 H1146 0.956 . S
C1134 H1147 0.961 . S
C1134 H1148 0.961 . S
C1135 C1132 1.539 . S
C1135 H1149 0.958 . S
C1135 H1150 0.961 . S
C1135 H1151 0.960 . S
H1136 C1120 0.931 . S
H1137 C1125 0.929 . S
H1138 C1126 0.960 . S
H1139 C1126 0.962 . S
H1140 C1126 0.960 . S
H1141 C1127 0.961 . S
H1142 C1127 0.961 . S
H1143 C1127 0.961 . S
H1144 C1128 0.931 . S
H1145 C1133 0.930 . S
H1146 C1134 0.956 . S
H1147 C1134 0.961 . S
H1148 C1134 0.961 . S
H1149 C1135 0.958 . S
H1150 C1135 0.961 . S
H1151 C1135 0.960 . S
C1152 C1153 1.391 . S
C1152 C1154 1.394 . S
C1152 H1168 0.931 . S
C1153 C1152 1.391 . S
C1153 C1157 1.376 . S
C1154 C1152 1.394 . S
C1154 C1155 1.369 . S
C1154 C1158 1.531 . S
C1155 C1154 1.369 . S
C1155 C1156 1.410 . S
C1155 C1163 1.503 . S
C1156 C1155 1.410 . S
C1156 C1157 1.392 . S
C1156 C1159 1.511 . S
C1157 C1153 1.376 . S
C1157 C1156 1.392 . S
C1157 H1169 0.929 . S
C1158 C1154 1.531 . S
C1158 H1170 0.960 . S
C1158 H1171 0.962 . S
C1158 H1172 0.960 . S
C1159 C1156 1.511 . S
C1159 H1173 0.961 . S
C1159 H1174 0.961 . S
C1159 H1175 0.961 . S
C1160 C1161 1.370 . S
C1160 C1162 1.363 . S
C1160 H1176 0.931 . S
C1161 C1160 1.370 . S
C1161 C1165 1.408 . S
C1162 C1160 1.363 . S
C1162 C1163 1.370 . S
C1162 C1166 1.524 . S
C1163 C1155 1.503 . S
C1163 C1162 1.370 . S
C1163 C1164 1.403 . S
C1164 C1163 1.403 . S
C1164 C1165 1.404 . S
C1164 C1167 1.539 . S
C1165 C1161 1.408 . S
C1165 C1164 1.404 . S
C1165 H1177 0.930 . S
C1166 C1162 1.524 . S
C1166 H1178 0.956 . S
C1166 H1179 0.961 . S
C1166 H1180 0.961 . S
C1167 C1164 1.539 . S
C1167 H1181 0.958 . S
C1167 H1182 0.961 . S
C1167 H1183 0.960 . S
H1168 C1152 0.931 . S
H1169 C1157 0.929 . S
H1170 C1158 0.960 . S
H1171 C1158 0.962 . S
H1172 C1158 0.960 . S
H1173 C1159 0.961 . S
H1174 C1159 0.961 . S
H1175 C1159 0.961 . S
H1176 C1160 0.931 . S
H1177 C1165 0.930 . S
H1178 C1166 0.956 . S
H1179 C1166 0.961 . S
H1180 C1166 0.961 . S
H1181 C1167 0.958 . S
H1182 C1167 0.961 . S
H1183 C1167 0.960 . S
C1184 C1185 1.391 1_545 S
C1184 C1186 1.394 1_545 S
C1184 H1200 0.931 . S
C1185 C1184 1.391 1_565 S
C1185 C1189 1.376 . S
C1186 C1184 1.394 1_565 S
C1186 C1187 1.369 . S
C1186 C1190 1.531 1_565 S
C1187 C1186 1.369 . S
C1187 C1188 1.410 . S
C1187 C1195 1.503 . S
C1188 C1187 1.410 . S
C1188 C1189 1.392 . S
C1188 C1191 1.511 . S
C1189 C1185 1.376 . S
C1189 C1188 1.392 . S
C1189 H1201 0.929 . S
C1190 C1186 1.531 1_545 S
C1190 H1202 0.960 . S
C1190 H1203 0.962 . S
C1190 H1204 0.960 . S
C1191 C1188 1.511 . S
C1191 H1205 0.961 . S
C1191 H1206 0.961 . S
C1191 H1207 0.961 . S
C1192 C1193 1.370 . S
C1192 C1194 1.363 . S
C1192 H1208 0.931 . S
C1193 C1192 1.370 . S
C1193 C1197 1.408 . S
C1194 C1192 1.363 . S
C1194 C1195 1.370 . S
C1194 C1198 1.524 . S
C1195 C1187 1.503 . S
C1195 C1194 1.370 . S
C1195 C1196 1.403 . S
C1196 C1195 1.403 . S
C1196 C1197 1.404 . S
C1196 C1199 1.539 . S
C1197 C1193 1.408 . S
C1197 C1196 1.404 . S
C1197 H1209 0.930 . S
C1198 C1194 1.524 . S
C1198 H1210 0.956 . S
C1198 H1211 0.961 . S
C1198 H1212 0.961 . S
C1199 C1196 1.539 . S
C1199 H1213 0.958 . S
C1199 H1214 0.961 . S
C1199 H1215 0.960 . S
H1200 C1184 0.931 . S
H1201 C1189 0.929 . S
H1202 C1190 0.960 . S
H1203 C1190 0.962 . S
H1204 C1190 0.960 . S
H1205 C1191 0.961 . S
H1206 C1191 0.961 . S
H1207 C1191 0.961 . S
H1208 C1192 0.931 . S
H1209 C1197 0.930 . S
H1210 C1198 0.956 . S
H1211 C1198 0.961 . S
H1212 C1198 0.961 . S
H1213 C1199 0.958 . S
H1214 C1199 0.961 . S
H1215 C1199 0.960 . S
C1216 C1217 1.391 . S
C1216 C1218 1.394 1_554 S
C1216 H1232 0.931 . S
C1217 C1216 1.391 . S
C1217 C1221 1.376 1_554 S
C1218 C1216 1.394 1_556 S
C1218 C1219 1.369 . S
C1218 C1222 1.531 . S
C1219 C1218 1.369 . S
C1219 C1220 1.410 . S
C1219 C1227 1.503 . S
C1220 C1219 1.410 . S
C1220 C1221 1.392 . S
C1220 C1223 1.511 . S
C1221 C1217 1.376 1_556 S
C1221 C1220 1.392 . S
C1221 H1233 0.937 . S
C1222 C1218 1.531 . S
C1222 H1234 0.960 . S
C1222 H1235 0.962 . S
C1222 H1236 0.960 . S
C1223 C1220 1.511 . S
C1223 H1237 0.961 . S
C1223 H1238 0.961 . S
C1223 H1239 0.961 . S
C1224 C1225 1.370 . S
C1224 C1226 1.363 . S
C1224 H1240 0.931 . S
C1225 C1224 1.370 . S
C1225 C1229 1.408 . S
C1226 C1224 1.363 . S
C1226 C1227 1.370 . S
C1226 C1230 1.524 . S
C1227 C1219 1.503 . S
C1227 C1226 1.370 . S
C1227 C1228 1.403 . S
C1228 C1227 1.403 . S
C1228 C1229 1.404 . S
C1228 C1231 1.539 . S
C1229 C1225 1.408 . S
C1229 C1228 1.404 . S
C1229 H1241 0.930 . S
C1230 C1226 1.524 . S
C1230 H1242 0.956 . S
C1230 H1243 0.961 . S
C1230 H1244 0.961 . S
C1231 C1228 1.539 . S
C1231 H1245 0.958 . S
C1231 H1246 0.961 . S
C1231 H1247 0.960 . S
H1232 C1216 0.931 . S
H1233 C1221 0.937 . S
H1234 C1222 0.960 . S
H1235 C1222 0.962 . S
H1236 C1222 0.960 . S
H1237 C1223 0.961 . S
H1238 C1223 0.961 . S
H1239 C1223 0.961 . S
H1240 C1224 0.931 . S
H1241 C1229 0.930 . S
H1242 C1230 0.956 . S
H1243 C1230 0.961 . S
H1244 C1230 0.961 . S
H1245 C1231 0.958 . S
H1246 C1231 0.961 . S
H1247 C1231 0.960 . S
C1248 C1249 1.391 . S
C1248 C1250 1.394 . S
C1248 H1264 0.931 . S
C1249 C1248 1.391 . S
C1249 C1253 1.376 . S
C1250 C1248 1.394 . S
C1250 C1251 1.369 . S
C1250 C1254 1.544 . S
C1251 C1250 1.369 . S
C1251 C1252 1.410 . S
C1251 C1259 1.503 . S
C1252 C1251 1.410 . S
C1252 C1253 1.392 . S
C1252 C1255 1.511 . S
C1253 C1249 1.376 . S
C1253 C1252 1.392 . S
C1253 H1265 0.929 . S
C1254 C1250 1.544 . S
C1254 H1266 0.949 1_545 S
C1254 H1267 0.974 . S
C1254 H1268 0.946 1_545 S
C1255 C1252 1.511 . S
C1255 H1269 0.961 . S
C1255 H1270 0.961 . S
C1255 H1271 0.961 . S
C1256 C1257 1.370 . S
C1256 C1258 1.363 . S
C1256 H1272 0.931 . S
C1257 C1256 1.370 . S
C1257 C1261 1.426 . S
C1258 C1256 1.363 . S
C1258 C1259 1.370 . S
C1258 C1262 1.524 . S
C1259 C1251 1.503 . S
C1259 C1258 1.370 . S
C1259 C1260 1.403 . S
C1260 C1259 1.403 . S
C1260 C1261 1.407 . S
C1260 C1263 1.539 1_545 S
C1261 C1257 1.426 . S
C1261 C1260 1.407 . S
C1261 H1273 0.910 1_545 S
C1262 C1258 1.524 . S
C1262 H1274 0.956 . S
C1262 H1275 0.961 . S
C1262 H1276 0.961 . S
C1263 C1260 1.539 1_565 S
C1263 H1277 0.958 . S
C1263 H1278 0.961 . S
C1263 H1279 0.960 . S
H1264 C1248 0.931 . S
H1265 C1253 0.929 . S
H1266 C1254 0.949 1_565 S
H1267 C1254 0.974 . S
H1268 C1254 0.946 1_565 S
H1269 C1255 0.961 . S
H1270 C1255 0.961 . S
H1271 C1255 0.961 . S
H1272 C1256 0.931 . S
H1273 C1261 0.910 1_565 S
H1274 C1262 0.956 . S
H1275 C1262 0.961 . S
H1276 C1262 0.961 . S
H1277 C1263 0.958 . S
H1278 C1263 0.961 . S
H1279 C1263 0.960 . S
C1280 C1281 1.391 . S
C1280 C1282 1.394 . S
C1280 H1296 0.931 . S
C1281 C1280 1.391 . S
C1281 C1285 1.376 . S
C1282 C1280 1.394 . S
C1282 C1283 1.369 . S
C1282 C1286 1.531 . S
C1283 C1282 1.369 . S
C1283 C1284 1.410 . S
C1283 C1291 1.503 . S
C1284 C1283 1.410 . S
C1284 C1285 1.392 . S
C1284 C1287 1.511 . S
C1285 C1281 1.376 . S
C1285 C1284 1.392 . S
C1285 H1297 0.929 . S
C1286 C1282 1.531 . S
C1286 H1298 0.960 . S
C1286 H1299 0.962 . S
C1286 H1300 0.960 . S
C1287 C1284 1.511 . S
C1287 H1301 0.961 . S
C1287 H1302 0.961 . S
C1287 H1303 0.961 . S
C1288 C1289 1.370 . S
C1288 C1290 1.363 . S
C1288 H1304 0.931 . S
C1289 C1288 1.370 . S
C1289 C1293 1.408 . S
C1290 C1288 1.363 . S
C1290 C1291 1.370 . S
C1290 C1294 1.524 . S
C1291 C1283 1.503 . S
C1291 C1290 1.370 . S
C1291 C1292 1.403 . S
C1292 C1291 1.403 . S
C1292 C1293 1.404 . S
C1292 C1295 1.539 . S
C1293 C1289 1.408 . S
C1293 C1292 1.404 . S
C1293 H1305 0.930 . S
C1294 C1290 1.524 . S
C1294 H1306 0.956 . S
C1294 H1307 0.961 . S
C1294 H1308 0.961 . S
C1295 C1292 1.539 . S
C1295 H1309 0.958 . S
C1295 H1310 0.961 . S
C1295 H1311 0.960 . S
H1296 C1280 0.931 . S
H1297 C1285 0.929 . S
H1298 C1286 0.960 . S
H1299 C1286 0.962 . S
H1300 C1286 0.960 . S
H1301 C1287 0.961 . S
H1302 C1287 0.961 . S
H1303 C1287 0.961 . S
H1304 C1288 0.931 . S
H1305 C1293 0.930 . S
H1306 C1294 0.956 . S
H1307 C1294 0.961 . S
H1308 C1294 0.961 . S
H1309 C1295 0.958 . S
H1310 C1295 0.961 . S
H1311 C1295 0.960 . S
C1312 C1313 1.391 . S
C1312 C1314 1.394 . S
C1312 H1328 0.931 . S
C1313 C1312 1.391 . S
C1313 C1317 1.376 . S
C1314 C1312 1.394 . S
C1314 C1315 1.369 . S
C1314 C1318 1.531 . S
C1315 C1314 1.369 . S
C1315 C1316 1.410 . S
C1315 C1323 1.503 . S
C1316 C1315 1.410 . S
C1316 C1317 1.392 . S
C1316 C1319 1.511 . S
C1317 C1313 1.376 . S
C1317 C1316 1.392 . S
C1317 H1329 0.929 . S
C1318 C1314 1.531 . S
C1318 H1330 0.960 . S
C1318 H1331 0.962 . S
C1318 H1332 0.960 1_545 S
C1319 C1316 1.511 . S
C1319 H1333 0.961 . S
C1319 H1334 0.961 . S
C1319 H1335 0.961 . S
C1320 C1321 1.370 . S
C1320 C1322 1.363 . S
C1320 H1336 0.931 . S
C1321 C1320 1.370 . S
C1321 C1325 1.408 . S
C1322 C1320 1.363 . S
C1322 C1323 1.370 . S
C1322 C1326 1.524 . S
C1323 C1315 1.503 . S
C1323 C1322 1.370 . S
C1323 C1324 1.403 . S
C1324 C1323 1.403 . S
C1324 C1325 1.404 . S
C1324 C1327 1.539 1_545 S
C1325 C1321 1.408 . S
C1325 C1324 1.404 . S
C1325 H1337 0.930 . S
C1326 C1322 1.524 . S
C1326 H1338 0.956 . S
C1326 H1339 0.961 . S
C1326 H1340 0.961 . S
C1327 C1324 1.539 1_565 S
C1327 H1341 0.958 . S
C1327 H1342 0.961 . S
C1327 H1343 0.960 . S
H1328 C1312 0.931 . S
H1329 C1317 0.929 . S
H1330 C1318 0.960 . S
H1331 C1318 0.962 . S
H1332 C1318 0.960 1_565 S
H1333 C1319 0.961 . S
H1334 C1319 0.961 . S
H1335 C1319 0.961 . S
H1336 C1320 0.931 . S
H1337 C1325 0.930 . S
H1338 C1326 0.956 . S
H1339 C1326 0.961 . S
H1340 C1326 0.961 . S
H1341 C1327 0.958 . S
H1342 C1327 0.961 . S
H1343 C1327 0.960 . S
C1344 C1345 1.391 . S
C1344 C1346 1.394 . S
C1344 H1360 0.931 . S
C1345 C1344 1.391 . S
C1345 C1349 1.376 . S
C1346 C1344 1.394 . S
C1346 C1347 1.369 . S
C1346 C1350 1.531 . S
C1347 C1346 1.369 . S
C1347 C1348 1.410 . S
C1347 C1355 1.503 . S
C1348 C1347 1.410 . S
C1348 C1349 1.392 . S
C1348 C1351 1.511 . S
C1349 C1345 1.376 . S
C1349 C1348 1.392 . S
C1349 H1361 0.929 . S
C1350 C1346 1.531 . S
C1350 H1362 0.960 . S
C1350 H1363 0.962 . S
C1350 H1364 0.960 . S
C1351 C1348 1.511 . S
C1351 H1365 0.961 . S
C1351 H1366 0.961 . S
C1351 H1367 0.961 . S
C1352 C1353 1.370 1_554 S
C1352 C1354 1.363 . S
C1352 H1368 0.931 1_554 S
C1353 C1352 1.370 1_556 S
C1353 C1357 1.433 . S
C1354 C1352 1.363 . S
C1354 C1355 1.370 . S
C1354 C1358 1.524 . S
C1355 C1347 1.503 . S
C1355 C1354 1.370 . S
C1355 C1356 1.403 . S
C1356 C1355 1.403 . S
C1356 C1357 1.344 1_554 S
C1356 C1359 1.539 . S
C1357 C1353 1.433 . S
C1357 C1356 1.344 1_556 S
C1357 H1369 0.966 . S
C1358 C1354 1.524 . S
C1358 H1370 0.956 . S
C1358 H1371 0.961 . S
C1358 H1372 0.961 . S
C1359 C1356 1.539 . S
C1359 H1373 0.958 . S
C1359 H1374 0.961 . S
C1359 H1375 0.960 . S
H1360 C1344 0.931 . S
H1361 C1349 0.929 . S
H1362 C1350 0.960 . S
H1363 C1350 0.962 . S
H1364 C1350 0.960 . S
H1365 C1351 0.961 . S
H1366 C1351 0.961 . S
H1367 C1351 0.961 . S
H1368 C1352 0.931 1_556 S
H1369 C1357 0.966 . S
H1370 C1358 0.956 . S
H1371 C1358 0.961 . S
H1372 C1358 0.961 . S
H1373 C1359 0.958 . S
H1374 C1359 0.961 . S
H1375 C1359 0.960 . S
C1376 C1377 1.391 . S
C1376 C1378 1.394 . S
C1376 H1392 0.931 . S
C1377 C1376 1.391 . S
C1377 C1381 1.376 . S
C1378 C1376 1.394 . S
C1378 C1379 1.369 . S
C1378 C1382 1.531 . S
C1379 C1378 1.369 . S
C1379 C1380 1.410 . S
C1379 C1387 1.503 . S
C1380 C1379 1.410 . S
C1380 C1381 1.392 . S
C1380 C1383 1.511 . S
C1381 C1377 1.376 . S
C1381 C1380 1.392 . S
C1381 H1393 0.929 . S
C1382 C1378 1.531 . S
C1382 H1394 0.960 . S
C1382 H1395 0.962 . S
C1382 H1396 0.960 . S
C1383 C1380 1.511 . S
C1383 H1397 0.961 . S
C1383 H1398 0.961 . S
C1383 H1399 0.961 . S
C1384 C1385 1.370 . S
C1384 C1386 1.363 . S
C1384 H1400 0.931 . S
C1385 C1384 1.370 . S
C1385 C1389 1.408 . S
C1386 C1384 1.363 . S
C1386 C1387 1.370 . S
C1386 C1390 1.524 1_565 S
C1387 C1379 1.503 . S
C1387 C1386 1.370 . S
C1387 C1388 1.403 . S
C1388 C1387 1.403 . S
C1388 C1389 1.404 . S
C1388 C1391 1.539 . S
C1389 C1385 1.408 . S
C1389 C1388 1.404 . S
C1389 H1401 0.930 . S
C1390 C1386 1.524 1_545 S
C1390 H1402 0.956 . S
C1390 H1403 0.961 . S
C1390 H1404 0.961 . S
C1391 C1388 1.539 . S
C1391 H1405 0.958 . S
C1391 H1406 0.961 . S
C1391 H1407 0.960 . S
H1392 C1376 0.931 . S
H1393 C1381 0.929 . S
H1394 C1382 0.960 . S
H1395 C1382 0.962 . S
H1396 C1382 0.960 . S
H1397 C1383 0.961 . S
H1398 C1383 0.961 . S
H1399 C1383 0.961 . S
H1400 C1384 0.931 . S
H1401 C1389 0.930 . S
H1402 C1390 0.956 . S
H1403 C1390 0.961 . S
H1404 C1390 0.961 . S
H1405 C1391 0.958 . S
H1406 C1391 0.961 . S
H1407 C1391 0.960 . S
C1408 C1409 1.391 . S
C1408 C1410 1.394 . S
C1408 H1424 0.931 . S
C1409 C1408 1.391 . S
C1409 C1413 1.376 . S
C1410 C1408 1.394 . S
C1410 C1411 1.369 . S
C1410 C1414 1.531 . S
C1411 C1410 1.369 . S
C1411 C1412 1.410 . S
C1411 C1419 1.503 . S
C1412 C1411 1.410 . S
C1412 C1413 1.392 . S
C1412 C1415 1.511 . S
C1413 C1409 1.376 . S
C1413 C1412 1.392 . S
C1413 H1425 0.929 . S
C1414 C1410 1.531 . S
C1414 H1426 0.960 . S
C1414 H1427 0.962 . S
C1414 H1428 0.960 . S
C1415 C1412 1.511 . S
C1415 H1429 0.961 . S
C1415 H1430 0.961 . S
C1415 H1431 0.961 . S
C1416 C1417 1.370 . S
C1416 C1418 1.363 . S
C1416 H1432 0.931 . S
C1417 C1416 1.370 . S
C1417 C1421 1.408 . S
C1418 C1416 1.363 . S
C1418 C1419 1.370 . S
C1418 C1422 1.524 . S
C1419 C1411 1.503 . S
C1419 C1418 1.370 . S
C1419 C1420 1.403 . S
C1420 C1419 1.403 . S
C1420 C1421 1.404 . S
C1420 C1423 1.539 . S
C1421 C1417 1.408 . S
C1421 C1420 1.404 . S
C1421 H1433 0.930 . S
C1422 C1418 1.524 . S
C1422 H1434 0.956 . S
C1422 H1435 0.961 . S
C1422 H1436 0.961 . S
C1423 C1420 1.539 . S
C1423 H1437 0.958 . S
C1423 H1438 0.961 . S
C1423 H1439 0.960 . S
H1424 C1408 0.931 . S
H1425 C1413 0.929 . S
H1426 C1414 0.960 . S
H1427 C1414 0.962 . S
H1428 C1414 0.960 . S
H1429 C1415 0.961 . S
H1430 C1415 0.961 . S
H1431 C1415 0.961 . S
H1432 C1416 0.931 . S
H1433 C1421 0.930 . S
H1434 C1422 0.956 . S
H1435 C1422 0.961 . S
H1436 C1422 0.961 . S
H1437 C1423 0.958 . S
H1438 C1423 0.961 . S
H1439 C1423 0.960 . S
C1440 C1441 1.391 . S
C1440 C1442 1.394 . S
C1440 H1456 0.931 . S
C1441 C1440 1.391 . S
C1441 C1445 1.376 . S
C1442 C1440 1.394 . S
C1442 C1443 1.369 . S
C1442 C1446 1.531 . S
C1443 C1442 1.369 . S
C1443 C1444 1.410 . S
C1443 C1451 1.503 . S
C1444 C1443 1.410 . S
C1444 C1445 1.392 . S
C1444 C1447 1.511 . S
C1445 C1441 1.376 . S
C1445 C1444 1.392 . S
C1445 H1457 0.929 . S
C1446 C1442 1.531 . S
C1446 H1458 0.960 . S
C1446 H1459 0.962 . S
C1446 H1460 0.960 . S
C1447 C1444 1.511 . S
C1447 H1461 0.961 . S
C1447 H1462 0.961 . S
C1447 H1463 0.961 . S
C1448 C1449 1.370 . S
C1448 C1450 1.363 . S
C1448 H1464 0.931 . S
C1449 C1448 1.370 . S
C1449 C1453 1.408 . S
C1450 C1448 1.363 . S
C1450 C1451 1.370 . S
C1450 C1454 1.524 . S
C1451 C1443 1.503 . S
C1451 C1450 1.370 . S
C1451 C1452 1.403 . S
C1452 C1451 1.403 . S
C1452 C1453 1.404 . S
C1452 C1455 1.539 . S
C1453 C1449 1.408 . S
C1453 C1452 1.404 . S
C1453 H1465 0.930 . S
C1454 C1450 1.524 . S
C1454 H1466 0.956 . S
C1454 H1467 0.961 . S
C1454 H1468 0.961 . S
C1455 C1452 1.539 . S
C1455 H1469 0.958 . S
C1455 H1470 0.961 . S
C1455 H1471 0.960 . S
H1456 C1440 0.931 . S
H1457 C1445 0.929 . S
H1458 C1446 0.960 . S
H1459 C1446 0.962 . S
H1460 C1446 0.960 . S
H1461 C1447 0.961 . S
H1462 C1447 0.961 . S
H1463 C1447 0.961 . S
H1464 C1448 0.931 . S
H1465 C1453 0.930 . S
H1466 C1454 0.956 . S
H1467 C1454 0.961 . S
H1468 C1454 0.961 . S
H1469 C1455 0.958 . S
H1470 C1455 0.961 . S
H1471 C1455 0.960 . S
C1472 C1473 1.391 . S
C1472 C1474 1.394 . S
C1472 H1488 0.931 . S
C1473 C1472 1.391 . S
C1473 C1477 1.376 . S
C1474 C1472 1.394 . S
C1474 C1475 1.369 . S
C1474 C1478 1.531 . S
C1475 C1474 1.369 . S
C1475 C1476 1.410 . S
C1475 C1483 1.503 1_655 S
C1476 C1475 1.410 . S
C1476 C1477 1.392 . S
C1476 C1479 1.511 1_655 S
C1477 C1473 1.376 . S
C1477 C1476 1.392 . S
C1477 H1489 0.929 . S
C1478 C1474 1.531 . S
C1478 H1490 0.960 . S
C1478 H1491 0.962 . S
C1478 H1492 0.960 . S
C1479 C1476 1.511 1_455 S
C1479 H1493 0.961 . S
C1479 H1494 0.961 . S
C1479 H1495 0.961 . S
C1480 C1481 1.370 . S
C1480 C1482 1.363 . S
C1480 H1496 0.931 . S
C1481 C1480 1.370 . S
C1481 C1485 1.408 . S
C1482 C1480 1.363 . S
C1482 C1483 1.370 . S
C1482 C1486 1.524 . S
C1483 C1475 1.503 1_455 S
C1483 C1482 1.370 . S
C1483 C1484 1.403 . S
C1484 C1483 1.403 . S
C1484 C1485 1.404 . S
C1484 C1487 1.539 . S
C1485 C1481 1.408 . S
C1485 C1484 1.404 . S
C1485 H1497 0.930 . S
C1486 C1482 1.524 . S
C1486 H1498 0.956 1_455 S
C1486 H1499 0.961 . S
C1486 H1500 0.961 . S
C1487 C1484 1.539 . S
C1487 H1501 0.958 . S
C1487 H1502 0.961 . S
C1487 H1503 0.960 . S
H1488 C1472 0.931 . S
H1489 C1477 0.929 . S
H1490 C1478 0.960 . S
H1491 C1478 0.962 . S
H1492 C1478 0.960 . S
H1493 C1479 0.961 . S
H1494 C1479 0.961 . S
H1495 C1479 0.961 . S
H1496 C1480 0.931 . S
H1497 C1485 0.930 . S
H1498 C1486 0.956 1_655 S
H1499 C1486 0.961 . S
H1500 C1486 0.961 . S
H1501 C1487 0.958 . S
H1502 C1487 0.961 . S
H1503 C1487 0.960 . S
C1504 C1505 1.391 . S
C1504 C1506 1.394 1_655 S
C1504 H1520 0.931 . S
C1505 C1504 1.391 . S
C1505 C1509 1.376 . S
C1506 C1504 1.394 1_455 S
C1506 C1507 1.369 1_455 S
C1506 C1510 1.531 . S
C1507 C1506 1.369 1_655 S
C1507 C1508 1.410 . S
C1507 C1515 1.503 1_655 S
C1508 C1507 1.410 . S
C1508 C1509 1.392 . S
C1508 C1511 1.511 . S
C1509 C1505 1.376 . S
C1509 C1508 1.392 . S
C1509 H1521 0.929 . S
C1510 C1506 1.531 . S
C1510 H1522 0.960 . S
C1510 H1523 0.962 . S
C1510 H1524 0.960 . S
C1511 C1508 1.511 . S
C1511 H1525 0.961 . S
C1511 H1526 0.961 . S
C1511 H1527 0.961 . S
C1512 C1513 1.370 . S
C1512 C1514 1.363 1_455 S
C1512 H1528 0.931 . S
C1513 C1512 1.370 . S
C1513 C1517 1.408 . S
C1514 C1512 1.363 1_655 S
C1514 C1515 1.371 1_655 S
C1514 C1518 1.524 . S
C1515 C1507 1.503 1_455 S
C1515 C1514 1.371 1_455 S
C1515 C1516 1.403 . S
C1516 C1515 1.403 . S
C1516 C1517 1.404 . S
C1516 C1519 1.539 . S
C1517 C1513 1.408 . S
C1517 C1516 1.404 . S
C1517 H1529 0.930 . S
C1518 C1514 1.524 . S
C1518 H1530 0.956 . S
C1518 H1531 0.961 . S
C1518 H1532 0.961 . S
C1519 C1516 1.539 . S
C1519 H1533 0.958 . S
C1519 H1534 0.961 . S
C1519 H1535 0.960 . S
H1520 C1504 0.931 . S
H1521 C1509 0.929 . S
H1522 C1510 0.960 . S
H1523 C1510 0.962 . S
H1524 C1510 0.960 . S
H1525 C1511 0.961 . S
H1526 C1511 0.961 . S
H1527 C1511 0.961 . S
H1528 C1512 0.931 . S
H1529 C1517 0.930 . S
H1530 C1518 0.956 . S
H1531 C1518 0.961 . S
H1532 C1518 0.961 . S
H1533 C1519 0.958 . S
H1534 C1519 0.961 . S
H1535 C1519 0.960 . S
C1536 C1537 1.391 . S
C1536 C1538 1.394 . S
C1536 H1552 0.931 . S
C1537 C1536 1.391 . S
C1537 C1541 1.376 . S
C1538 C1536 1.394 . S
C1538 C1539 1.369 . S
C1538 C1542 1.531 . S
C1539 C1538 1.369 . S
C1539 C1540 1.410 . S
C1539 C1547 1.503 . S
C1540 C1539 1.410 . S
C1540 C1541 1.392 . S
C1540 C1543 1.511 . S
C1541 C1537 1.376 . S
C1541 C1540 1.392 . S
C1541 H1553 0.929 . S
C1542 C1538 1.531 . S
C1542 H1554 0.960 . S
C1542 H1555 0.962 . S
C1542 H1556 0.960 . S
C1543 C1540 1.511 . S
C1543 H1557 0.961 . S
C1543 H1558 0.961 . S
C1543 H1559 0.961 . S
C1544 C1545 1.370 . S
C1544 C1546 1.363 . S
C1544 H1560 0.931 . S
C1545 C1544 1.370 . S
C1545 C1549 1.408 . S
C1546 C1544 1.363 . S
C1546 C1547 1.370 . S
C1546 C1550 1.524 . S
C1547 C1539 1.503 . S
C1547 C1546 1.370 . S
C1547 C1548 1.403 . S
C1548 C1547 1.403 . S
C1548 C1549 1.404 . S
C1548 C1551 1.539 . S
C1549 C1545 1.408 . S
C1549 C1548 1.404 . S
C1549 H1561 0.930 . S
C1550 C1546 1.524 . S
C1550 H1562 0.956 . S
C1550 H1563 0.961 . S
C1550 H1564 0.961 . S
C1551 C1548 1.539 . S
C1551 H1565 0.958 . S
C1551 H1566 0.961 . S
C1551 H1567 0.960 . S
H1552 C1536 0.931 . S
H1553 C1541 0.929 . S
H1554 C1542 0.960 . S
H1555 C1542 0.962 . S
H1556 C1542 0.960 . S
H1557 C1543 0.961 . S
H1558 C1543 0.961 . S
H1559 C1543 0.961 . S
H1560 C1544 0.931 . S
H1561 C1549 0.930 . S
H1562 C1550 0.956 . S
H1563 C1550 0.961 . S
H1564 C1550 0.961 . S
H1565 C1551 0.958 . S
H1566 C1551 0.961 . S
H1567 C1551 0.960 . S
C1568 C1569 1.391 . S
C1568 C1570 1.394 . S
C1568 H1584 0.931 . S
C1569 C1568 1.391 . S
C1569 C1573 1.376 . S
C1570 C1568 1.394 . S
C1570 C1571 1.369 . S
C1570 C1574 1.531 . S
C1571 C1570 1.369 . S
C1571 C1572 1.410 . S
C1571 C1579 1.503 . S
C1572 C1571 1.410 . S
C1572 C1573 1.392 . S
C1572 C1575 1.511 . S
C1573 C1569 1.376 . S
C1573 C1572 1.392 . S
C1573 H1585 0.929 . S
C1574 C1570 1.531 . S
C1574 H1586 0.960 . S
C1574 H1587 0.962 . S
C1574 H1588 0.960 . S
C1575 C1572 1.511 . S
C1575 H1589 0.961 . S
C1575 H1590 0.961 . S
C1575 H1591 0.961 . S
C1576 C1577 1.370 . S
C1576 C1578 1.363 . S
C1576 H1592 0.931 . S
C1577 C1576 1.370 . S
C1577 C1581 1.408 . S
C1578 C1576 1.363 . S
C1578 C1579 1.370 . S
C1578 C1582 1.524 . S
C1579 C1571 1.503 . S
C1579 C1578 1.370 . S
C1579 C1580 1.403 . S
C1580 C1579 1.403 . S
C1580 C1581 1.404 . S
C1580 C1583 1.539 . S
C1581 C1577 1.408 . S
C1581 C1580 1.404 . S
C1581 H1593 0.930 . S
C1582 C1578 1.524 . S
C1582 H1594 0.956 . S
C1582 H1595 0.961 . S
C1582 H1596 0.961 . S
C1583 C1580 1.539 . S
C1583 H1597 0.958 . S
C1583 H1598 0.961 . S
C1583 H1599 0.960 . S
H1584 C1568 0.931 . S
H1585 C1573 0.929 . S
H1586 C1574 0.960 . S
H1587 C1574 0.962 . S
H1588 C1574 0.960 . S
H1589 C1575 0.961 . S
H1590 C1575 0.961 . S
H1591 C1575 0.961 . S
H1592 C1576 0.931 . S
H1593 C1581 0.930 . S
H1594 C1582 0.956 . S
H1595 C1582 0.961 . S
H1596 C1582 0.961 . S
H1597 C1583 0.958 . S
H1598 C1583 0.961 . S
H1599 C1583 0.960 . S
C1600 C1601 1.391 . S
C1600 C1602 1.394 . S
C1600 H1616 0.931 . S
C1601 C1600 1.391 . S
C1601 C1605 1.376 . S
C1602 C1600 1.394 . S
C1602 C1603 1.369 . S
C1602 C1606 1.531 . S
C1603 C1602 1.369 . S
C1603 C1604 1.410 . S
C1603 C1611 1.503 1_455 S
C1604 C1603 1.410 . S
C1604 C1605 1.392 . S
C1604 C1607 1.511 . S
C1605 C1601 1.376 . S
C1605 C1604 1.392 . S
C1605 H1617 0.929 . S
C1606 C1602 1.531 . S
C1606 H1618 0.960 . S
C1606 H1619 0.962 . S
C1606 H1620 0.960 . S
C1607 C1604 1.511 . S
C1607 H1621 0.961 . S
C1607 H1622 0.961 1_455 S
C1607 H1623 0.961 . S
C1608 C1609 1.370 . S
C1608 C1610 1.363 . S
C1608 H1624 0.931 . S
C1609 C1608 1.370 . S
C1609 C1613 1.408 . S
C1610 C1608 1.363 . S
C1610 C1611 1.370 . S
C1610 C1614 1.524 . S
C1611 C1603 1.503 1_655 S
C1611 C1610 1.370 . S
C1611 C1612 1.403 . S
C1612 C1611 1.403 . S
C1612 C1613 1.404 . S
C1612 C1615 1.539 1_655 S
C1613 C1609 1.408 . S
C1613 C1612 1.404 . S
C1613 H1625 0.930 . S
C1614 C1610 1.524 . S
C1614 H1626 0.956 . S
C1614 H1627 0.961 . S
C1614 H1628 0.961 . S
C1615 C1612 1.539 1_455 S
C1615 H1629 0.958 . S
C1615 H1630 0.961 . S
C1615 H1631 0.960 . S
H1616 C1600 0.931 . S
H1617 C1605 0.929 . S
H1618 C1606 0.960 . S
H1619 C1606 0.962 . S
H1620 C1606 0.960 . S
H1621 C1607 0.961 . S
H1622 C1607 0.961 1_655 S
H1623 C1607 0.961 . S
H1624 C1608 0.931 . S
H1625 C1613 0.930 . S
H1626 C1614 0.956 . S
H1627 C1614 0.961 . S
H1628 C1614 0.961 . S
H1629 C1615 0.958 . S
H1630 C1615 0.961 . S
H1631 C1615 0.960 . S
C1632 C1633 1.391 . S
C1632 C1634 1.394 . S
C1632 H1648 0.931 . S
C1633 C1632 1.391 . S
C1633 C1637 1.376 . S
C1634 C1632 1.394 . S
C1634 C1635 1.369 . S
C1634 C1638 1.531 . S
C1635 C1634 1.369 . S
C1635 C1636 1.410 1_455 S
C1635 C1643 1.503 1_455 S
C1636 C1635 1.410 1_655 S
C1636 C1637 1.392 1_655 S
C1636 C1639 1.511 . S
C1637 C1633 1.376 . S
C1637 C1636 1.392 1_455 S
C1637 H1649 0.919 1_455 S
C1638 C1634 1.531 . S
C1638 H1650 0.960 . S
C1638 H1651 0.962 . S
C1638 H1652 0.960 . S
C1639 C1636 1.511 . S
C1639 H1653 0.961 . S
C1639 H1654 0.961 . S
C1639 H1655 0.961 . S
C1640 C1641 1.370 . S
C1640 C1642 1.363 . S
C1640 H1656 0.931 . S
C1641 C1640 1.370 . S
C1641 C1645 1.408 . S
C1642 C1640 1.363 . S
C1642 C1643 1.370 . S
C1642 C1646 1.524 1_655 S
C1643 C1635 1.503 1_655 S
C1643 C1642 1.370 . S
C1643 C1644 1.403 . S
C1644 C1643 1.403 . S
C1644 C1645 1.404 . S
C1644 C1647 1.539 . S
C1645 C1641 1.408 . S
C1645 C1644 1.404 . S
C1645 H1657 0.930 . S
C1646 C1642 1.524 1_455 S
C1646 H1658 0.956 . S
C1646 H1659 0.961 . S
C1646 H1660 0.961 . S
C1647 C1644 1.539 . S
C1647 H1661 0.958 . S
C1647 H1662 0.961 . S
C1647 H1663 0.960 . S
H1648 C1632 0.931 . S
H1649 C1637 0.919 1_655 S
H1650 C1638 0.960 . S
H1651 C1638 0.962 . S
H1652 C1638 0.960 . S
H1653 C1639 0.961 . S
H1654 C1639 0.961 . S
H1655 C1639 0.961 . S
H1656 C1640 0.931 . S
H1657 C1645 0.930 . S
H1658 C1646 0.956 . S
H1659 C1646 0.961 . S
H1660 C1646 0.961 . S
H1661 C1647 0.958 . S
H1662 C1647 0.961 . S
H1663 C1647 0.960 . S
C1664 C1665 1.391 . S
C1664 C1666 1.394 . S
C1664 H1680 0.931 . S
C1665 C1664 1.391 . S
C1665 C1669 1.376 . S
C1666 C1664 1.394 . S
C1666 C1667 1.369 . S
C1666 C1670 1.531 . S
C1667 C1666 1.369 . S
C1667 C1668 1.410 . S
C1667 C1675 1.503 . S
C1668 C1667 1.410 . S
C1668 C1669 1.392 . S
C1668 C1671 1.511 . S
C1669 C1665 1.376 . S
C1669 C1668 1.392 . S
C1669 H1681 0.929 . S
C1670 C1666 1.531 . S
C1670 H1682 0.960 . S
C1670 H1683 0.962 . S
C1670 H1684 0.960 . S
C1671 C1668 1.511 . S
C1671 H1685 0.961 . S
C1671 H1686 0.961 . S
C1671 H1687 0.961 . S
C1672 C1673 1.370 . S
C1672 C1674 1.363 . S
C1672 H1688 0.931 . S
C1673 C1672 1.370 . S
C1673 C1677 1.408 . S
C1674 C1672 1.363 . S
C1674 C1675 1.370 . S
C1674 C1678 1.524 . S
C1675 C1667 1.503 . S
C1675 C1674 1.370 . S
C1675 C1676 1.403 . S
C1676 C1675 1.403 . S
C1676 C1677 1.404 . S
C1676 C1679 1.539 . S
C1677 C1673 1.408 . S
C1677 C1676 1.404 . S
C1677 H1689 0.930 . S
C1678 C1674 1.524 . S
C1678 H1690 0.956 . S
C1678 H1691 0.961 . S
C1678 H1692 0.961 . S
C1679 C1676 1.539 . S
C1679 H1693 0.958 . S
C1679 H1694 0.961 . S
C1679 H1695 0.960 . S
H1680 C1664 0.931 . S
H1681 C1669 0.929 . S
H1682 C1670 0.960 . S
H1683 C1670 0.962 . S
H1684 C1670 0.960 . S
H1685 C1671 0.961 . S
H1686 C1671 0.961 . S
H1687 C1671 0.961 . S
H1688 C1672 0.931 . S
H1689 C1677 0.930 . S
H1690 C1678 0.956 . S
H1691 C1678 0.961 . S
H1692 C1678 0.961 . S
H1693 C1679 0.958 . S
H1694 C1679 0.961 . S
H1695 C1679 0.960 . S
C1696 C1697 1.391 . S
C1696 C1698 1.394 . S
C1696 H1712 0.931 . S
C1697 C1696 1.391 . S
C1697 C1701 1.376 . S
C1698 C1696 1.394 . S
C1698 C1699 1.369 . S
C1698 C1702 1.531 . S
C1699 C1698 1.369 . S
C1699 C1700 1.410 . S
C1699 C1707 1.503 . S
C1700 C1699 1.410 . S
C1700 C1701 1.392 . S
C1700 C1703 1.511 . S
C1701 C1697 1.376 . S
C1701 C1700 1.392 . S
C1701 H1713 0.929 . S
C1702 C1698 1.531 . S
C1702 H1714 0.960 . S
C1702 H1715 0.962 . S
C1702 H1716 0.960 . S
C1703 C1700 1.511 . S
C1703 H1717 0.961 . S
C1703 H1718 0.961 . S
C1703 H1719 0.961 . S
C1704 C1705 1.370 . S
C1704 C1706 1.363 . S
C1704 H1720 0.931 . S
C1705 C1704 1.370 . S
C1705 C1709 1.408 . S
C1706 C1704 1.363 . S
C1706 C1707 1.370 . S
C1706 C1710 1.524 . S
C1707 C1699 1.503 . S
C1707 C1706 1.370 . S
C1707 C1708 1.403 . S
C1708 C1707 1.403 . S
C1708 C1709 1.404 . S
C1708 C1711 1.539 . S
C1709 C1705 1.408 . S
C1709 C1708 1.404 . S
C1709 H1721 0.930 . S
C1710 C1706 1.524 . S
C1710 H1722 0.956 . S
C1710 H1723 0.961 . S
C1710 H1724 0.961 . S
C1711 C1708 1.539 . S
C1711 H1725 0.958 . S
C1711 H1726 0.961 . S
C1711 H1727 0.960 . S
H1712 C1696 0.931 . S
H1713 C1701 0.929 . S
H1714 C1702 0.960 . S
H1715 C1702 0.962 . S
H1716 C1702 0.960 . S
H1717 C1703 0.961 . S
H1718 C1703 0.961 . S
H1719 C1703 0.961 . S
H1720 C1704 0.931 . S
H1721 C1709 0.930 . S
H1722 C1710 0.956 . S
H1723 C1710 0.961 . S
H1724 C1710 0.961 . S
H1725 C1711 0.958 . S
H1726 C1711 0.961 . S
H1727 C1711 0.960 . S
C1728 C1729 1.391 . S
C1728 C1730 1.394 . S
C1728 H1744 0.931 . S
C1729 C1728 1.391 . S
C1729 C1733 1.376 . S
C1730 C1728 1.394 . S
C1730 C1731 1.369 . S
C1730 C1734 1.531 . S
C1731 C1730 1.369 . S
C1731 C1732 1.410 . S
C1731 C1739 1.503 . S
C1732 C1731 1.410 . S
C1732 C1733 1.392 . S
C1732 C1735 1.511 . S
C1733 C1729 1.376 . S
C1733 C1732 1.392 . S
C1733 H1745 0.929 . S
C1734 C1730 1.531 . S
C1734 H1746 0.960 . S
C1734 H1747 0.962 . S
C1734 H1748 0.960 . S
C1735 C1732 1.511 . S
C1735 H1749 0.961 . S
C1735 H1750 0.961 . S
C1735 H1751 0.961 . S
C1736 C1737 1.370 . S
C1736 C1738 1.363 . S
C1736 H1752 0.931 . S
C1737 C1736 1.370 . S
C1737 C1741 1.408 . S
C1738 C1736 1.363 . S
C1738 C1739 1.370 . S
C1738 C1742 1.524 . S
C1739 C1731 1.503 . S
C1739 C1738 1.370 . S
C1739 C1740 1.403 . S
C1740 C1739 1.403 . S
C1740 C1741 1.404 . S
C1740 C1743 1.539 . S
C1741 C1737 1.408 . S
C1741 C1740 1.404 . S
C1741 H1753 0.930 . S
C1742 C1738 1.524 . S
C1742 H1754 0.956 . S
C1742 H1755 0.961 . S
C1742 H1756 0.961 . S
C1743 C1740 1.539 . S
C1743 H1757 0.958 . S
C1743 H1758 0.961 . S
C1743 H1759 0.960 . S
H1744 C1728 0.931 . S
H1745 C1733 0.929 . S
H1746 C1734 0.960 . S
H1747 C1734 0.962 . S
H1748 C1734 0.960 . S
H1749 C1735 0.961 . S
H1750 C1735 0.961 . S
H1751 C1735 0.961 . S
H1752 C1736 0.931 . S
H1753 C1741 0.930 . S
H1754 C1742 0.956 . S
H1755 C1742 0.961 . S
H1756 C1742 0.961 . S
H1757 C1743 0.958 . S
H1758 C1743 0.961 . S
H1759 C1743 0.960 . S
C1760 C1761 1.391 1_455 S
C1760 C1762 1.394 . S
C1760 H1776 0.931 . S
C1761 C1760 1.391 1_655 S
C1761 C1765 1.376 . S
C1762 C1760 1.394 . S
C1762 C1763 1.369 . S
C1762 C1766 1.531 . S
C1763 C1762 1.369 . S
C1763 C1764 1.410 . S
C1763 C1771 1.503 . S
C1764 C1763 1.410 . S
C1764 C1765 1.392 1_455 S
C1764 C1767 1.511 . S
C1765 C1761 1.376 . S
C1765 C1764 1.392 1_655 S
C1765 H1777 0.929 . S
C1766 C1762 1.531 . S
C1766 H1778 0.960 . S
C1766 H1779 0.962 . S
C1766 H1780 0.960 . S
C1767 C1764 1.511 . S
C1767 H1781 0.961 . S
C1767 H1782 0.961 . S
C1767 H1783 0.961 . S
C1768 C1769 1.370 . S
C1768 C1770 1.363 . S
C1768 H1784 0.931 . S
C1769 C1768 1.370 . S
C1769 C1773 1.408 . S
C1770 C1768 1.363 . S
C1770 C1771 1.370 . S
C1770 C1774 1.524 . S
C1771 C1763 1.503 . S
C1771 C1770 1.370 . S
C1771 C1772 1.403 . S
C1772 C1771 1.403 . S
C1772 C1773 1.404 . S
C1772 C1775 1.539 . S
C1773 C1769 1.408 . S
C1773 C1772 1.404 . S
C1773 H1785 0.930 . S
C1774 C1770 1.524 . S
C1774 H1786 0.956 . S
C1774 H1787 0.961 . S
C1774 H1788 0.961 . S
C1775 C1772 1.539 . S
C1775 H1789 0.958 . S
C1775 H1790 0.961 . S
C1775 H1791 0.960 . S
H1776 C1760 0.931 . S
H1777 C1765 0.929 . S
H1778 C1766 0.960 . S
H1779 C1766 0.962 . S
H1780 C1766 0.960 . S
H1781 C1767 0.961 . S
H1782 C1767 0.961 . S
H1783 C1767 0.961 . S
H1784 C1768 0.931 . S
H1785 C1773 0.930 . S
H1786 C1774 0.956 . S
H1787 C1774 0.961 . S
H1788 C1774 0.961 . S
H1789 C1775 0.958 . S
H1790 C1775 0.961 . S
H1791 C1775 0.960 . S
C1792 C1793 1.391 . S
C1792 C1794 1.394 . S
C1792 H1808 0.931 . S
C1793 C1792 1.391 . S
C1793 C1797 1.376 . S
C1794 C1792 1.394 . S
C1794 C1795 1.369 . S
C1794 C1798 1.531 . S
C1795 C1794 1.369 . S
C1795 C1796 1.410 . S
C1795 C1803 1.503 . S
C1796 C1795 1.410 . S
C1796 C1797 1.392 . S
C1796 C1799 1.511 . S
C1797 C1793 1.376 . S
C1797 C1796 1.392 . S
C1797 H1809 0.929 . S
C1798 C1794 1.531 . S
C1798 H1810 0.960 . S
C1798 H1811 0.962 . S
C1798 H1812 0.960 . S
C1799 C1796 1.511 . S
C1799 H1813 0.961 . S
C1799 H1814 0.961 . S
C1799 H1815 0.961 . S
C1800 C1801 1.370 . S
C1800 C1802 1.363 . S
C1800 H1816 0.931 . S
C1801 C1800 1.370 . S
C1801 C1805 1.408 . S
C1802 C1800 1.363 . S
C1802 C1803 1.370 . S
C1802 C1806 1.524 . S
C1803 C1795 1.503 . S
C1803 C1802 1.370 . S
C1803 C1804 1.403 . S
C1804 C1803 1.403 . S
C1804 C1805 1.404 . S
C1804 C1807 1.539 . S
C1805 C1801 1.408 . S
C1805 C1804 1.404 . S
C1805 H1817 0.930 . S
C1806 C1802 1.524 . S
C1806 H1818 0.956 . S
C1806 H1819 0.961 . S
C1806 H1820 0.961 . S
C1807 C1804 1.539 . S
C1807 H1821 0.958 . S
C1807 H1822 0.961 . S
C1807 H1823 0.960 . S
H1808 C1792 0.931 . S
H1809 C1797 0.929 . S
H1810 C1798 0.960 . S
H1811 C1798 0.962 . S
H1812 C1798 0.960 . S
H1813 C1799 0.961 . S
H1814 C1799 0.961 . S
H1815 C1799 0.961 . S
H1816 C1800 0.931 . S
H1817 C1805 0.930 . S
H1818 C1806 0.956 . S
H1819 C1806 0.961 . S
H1820 C1806 0.961 . S
H1821 C1807 0.958 . S
H1822 C1807 0.961 . S
H1823 C1807 0.960 . S
C1824 C1825 1.391 . S
C1824 C1826 1.394 . S
C1824 H1840 0.931 . S
C1825 C1824 1.391 . S
C1825 C1829 1.376 . S
C1826 C1824 1.394 . S
C1826 C1827 1.369 . S
C1826 C1830 1.531 . S
C1827 C1826 1.369 . S
C1827 C1828 1.410 . S
C1827 C1835 1.503 . S
C1828 C1827 1.410 . S
C1828 C1829 1.392 . S
C1828 C1831 1.511 . S
C1829 C1825 1.376 . S
C1829 C1828 1.392 . S
C1829 H1841 0.929 . S
C1830 C1826 1.531 . S
C1830 H1842 0.960 . S
C1830 H1843 0.962 . S
C1830 H1844 0.960 . S
C1831 C1828 1.511 . S
C1831 H1845 0.961 . S
C1831 H1846 0.961 . S
C1831 H1847 0.961 . S
C1832 C1833 1.370 . S
C1832 C1834 1.363 . S
C1832 H1848 0.931 . S
C1833 C1832 1.370 . S
C1833 C1837 1.408 . S
C1834 C1832 1.363 . S
C1834 C1835 1.370 . S
C1834 C1838 1.524 . S
C1835 C1827 1.503 . S
C1835 C1834 1.370 . S
C1835 C1836 1.403 . S
C1836 C1835 1.403 . S
C1836 C1837 1.404 . S
C1836 C1839 1.539 . S
C1837 C1833 1.408 . S
C1837 C1836 1.404 . S
C1837 H1849 0.930 . S
C1838 C1834 1.524 . S
C1838 H1850 0.956 . S
C1838 H1851 0.961 . S
C1838 H1852 0.961 . S
C1839 C1836 1.539 . S
C1839 H1853 0.958 . S
C1839 H1854 0.961 . S
C1839 H1855 0.960 . S
H1840 C1824 0.931 . S
H1841 C1829 0.929 . S
H1842 C1830 0.960 . S
H1843 C1830 0.962 . S
H1844 C1830 0.960 . S
H1845 C1831 0.961 . S
H1846 C1831 0.961 . S
H1847 C1831 0.961 . S
H1848 C1832 0.931 . S
H1849 C1837 0.930 . S
H1850 C1838 0.956 . S
H1851 C1838 0.961 . S
H1852 C1838 0.961 . S
H1853 C1839 0.958 . S
H1854 C1839 0.961 . S
H1855 C1839 0.960 . S
C1856 C1857 1.391 . S
C1856 C1858 1.394 . S
C1856 H1872 0.931 . S
C1857 C1856 1.391 . S
C1857 C1861 1.376 . S
C1858 C1856 1.394 . S
C1858 C1859 1.369 . S
C1858 C1862 1.531 . S
C1859 C1858 1.369 . S
C1859 C1860 1.410 . S
C1859 C1867 1.503 . S
C1860 C1859 1.410 . S
C1860 C1861 1.392 . S
C1860 C1863 1.511 . S
C1861 C1857 1.376 . S
C1861 C1860 1.392 . S
C1861 H1873 0.929 . S
C1862 C1858 1.531 . S
C1862 H1874 0.960 . S
C1862 H1875 0.962 . S
C1862 H1876 0.960 . S
C1863 C1860 1.511 . S
C1863 H1877 0.961 . S
C1863 H1878 0.961 . S
C1863 H1879 0.961 . S
C1864 C1865 1.370 . S
C1864 C1866 1.363 . S
C1864 H1880 0.931 . S
C1865 C1864 1.370 . S
C1865 C1869 1.408 . S
C1866 C1864 1.363 . S
C1866 C1867 1.370 . S
C1866 C1870 1.524 . S
C1867 C1859 1.503 . S
C1867 C1866 1.370 . S
C1867 C1868 1.403 . S
C1868 C1867 1.403 . S
C1868 C1869 1.404 . S
C1868 C1871 1.539 . S
C1869 C1865 1.408 . S
C1869 C1868 1.404 . S
C1869 H1881 0.930 . S
C1870 C1866 1.524 . S
C1870 H1882 0.956 . S
C1870 H1883 0.961 . S
C1870 H1884 0.961 . S
C1871 C1868 1.539 . S
C1871 H1885 0.958 . S
C1871 H1886 0.961 . S
C1871 H1887 0.960 . S
H1872 C1856 0.931 . S
H1873 C1861 0.929 . S
H1874 C1862 0.960 . S
H1875 C1862 0.962 . S
H1876 C1862 0.960 . S
H1877 C1863 0.961 . S
H1878 C1863 0.961 . S
H1879 C1863 0.961 . S
H1880 C1864 0.931 . S
H1881 C1869 0.930 . S
H1882 C1870 0.956 . S
H1883 C1870 0.961 . S
H1884 C1870 0.961 . S
H1885 C1871 0.958 . S
H1886 C1871 0.961 . S
H1887 C1871 0.960 . S
C1888 C1889 1.391 . S
C1888 C1890 1.394 . S
C1888 H1904 0.931 . S
C1889 C1888 1.391 . S
C1889 C1893 1.376 . S
C1890 C1888 1.394 . S
C1890 C1891 1.369 . S
C1890 C1894 1.531 . S
C1891 C1890 1.369 . S
C1891 C1892 1.410 . S
C1891 C1899 1.503 . S
C1892 C1891 1.410 . S
C1892 C1893 1.392 . S
C1892 C1895 1.511 . S
C1893 C1889 1.376 . S
C1893 C1892 1.392 . S
C1893 H1905 0.929 . S
C1894 C1890 1.531 . S
C1894 H1906 0.960 . S
C1894 H1907 0.962 . S
C1894 H1908 0.960 . S
C1895 C1892 1.511 . S
C1895 H1909 0.961 . S
C1895 H1910 0.961 . S
C1895 H1911 0.961 . S
C1896 C1897 1.370 1_655 S
C1896 C1898 1.363 . S
C1896 H1912 0.931 1_655 S
C1897 C1896 1.370 1_455 S
C1897 C1901 1.408 1_455 S
C1898 C1896 1.363 . S
C1898 C1899 1.370 . S
C1898 C1902 1.524 . S
C1899 C1891 1.503 . S
C1899 C1898 1.370 . S
C1899 C1900 1.403 . S
C1900 C1899 1.403 . S
C1900 C1901 1.404 . S
C1900 C1903 1.539 . S
C1901 C1897 1.408 1_655 S
C1901 C1900 1.404 . S
C1901 H1913 0.930 1_655 S
C1902 C1898 1.524 . S
C1902 H1914 0.956 . S
C1902 H1915 0.961 . S
C1902 H1916 0.961 . S
C1903 C1900 1.539 . S
C1903 H1917 0.958 . S
C1903 H1918 0.961 . S
C1903 H1919 0.960 . S
H1904 C1888 0.931 . S
H1905 C1893 0.929 . S
H1906 C1894 0.960 . S
H1907 C1894 0.962 . S
H1908 C1894 0.960 . S
H1909 C1895 0.961 . S
H1910 C1895 0.961 . S
H1911 C1895 0.961 . S
H1912 C1896 0.931 1_455 S
H1913 C1901 0.930 1_455 S
H1914 C1902 0.956 . S
H1915 C1902 0.961 . S
H1916 C1902 0.961 . S
H1917 C1903 0.958 . S
H1918 C1903 0.961 . S
H1919 C1903 0.960 . S
C1920 C1921 1.391 . S
C1920 C1922 1.394 . S
C1920 H1936 0.931 . S
C1921 C1920 1.391 . S
C1921 C1925 1.376 . S
C1922 C1920 1.394 . S
C1922 C1923 1.369 . S
C1922 C1926 1.531 . S
C1923 C1922 1.369 . S
C1923 C1924 1.410 . S
C1923 C1931 1.503 . S
C1924 C1923 1.410 . S
C1924 C1925 1.392 . S
C1924 C1927 1.511 . S
C1925 C1921 1.376 . S
C1925 C1924 1.392 . S
C1925 H1937 0.929 . S
C1926 C1922 1.531 . S
C1926 H1938 0.960 . S
C1926 H1939 0.962 . S
C1926 H1940 0.960 . S
C1927 C1924 1.511 . S
C1927 H1941 0.961 . S
C1927 H1942 0.961 . S
C1927 H1943 0.961 . S
C1928 C1929 1.370 . S
C1928 C1930 1.363 . S
C1928 H1944 0.931 . S
C1929 C1928 1.370 . S
C1929 C1933 1.408 . S
C1930 C1928 1.363 . S
C1930 C1931 1.370 . S
C1930 C1934 1.524 . S
C1931 C1923 1.503 . S
C1931 C1930 1.370 . S
C1931 C1932 1.403 . S
C1932 C1931 1.403 . S
C1932 C1933 1.404 . S
C1932 C1935 1.539 . S
C1933 C1929 1.408 . S
C1933 C1932 1.404 . S
C1933 H1945 0.930 . S
C1934 C1930 1.524 . S
C1934 H1946 0.956 . S
C1934 H1947 0.961 . S
C1934 H1948 0.961 . S
C1935 C1932 1.539 . S
C1935 H1949 0.958 . S
C1935 H1950 0.961 . S
C1935 H1951 0.960 . S
H1936 C1920 0.931 . S
H1937 C1925 0.929 . S
H1938 C1926 0.960 . S
H1939 C1926 0.962 . S
H1940 C1926 0.960 . S
H1941 C1927 0.961 . S
H1942 C1927 0.961 . S
H1943 C1927 0.961 . S
H1944 C1928 0.931 . S
H1945 C1933 0.930 . S
H1946 C1934 0.956 . S
H1947 C1934 0.961 . S
H1948 C1934 0.961 . S
H1949 C1935 0.958 . S
H1950 C1935 0.961 . S
H1951 C1935 0.960 . S
C1952 C1953 1.391 . S
C1952 C1954 1.394 . S
C1952 H1968 0.931 . S
C1953 C1952 1.391 . S
C1953 C1957 1.376 . S
C1954 C1952 1.394 . S
C1954 C1955 1.369 . S
C1954 C1958 1.531 . S
C1955 C1954 1.369 . S
C1955 C1956 1.410 . S
C1955 C1963 1.503 . S
C1956 C1955 1.410 . S
C1956 C1957 1.392 . S
C1956 C1959 1.511 1_565 S
C1957 C1953 1.376 . S
C1957 C1956 1.392 . S
C1957 H1969 0.929 . S
C1958 C1954 1.531 . S
C1958 H1970 0.960 . S
C1958 H1971 0.962 . S
C1958 H1972 0.960 . S
C1959 C1956 1.511 1_545 S
C1959 H1973 0.961 . S
C1959 H1974 0.961 . S
C1959 H1975 0.961 . S
C1960 C1961 1.370 1_655 S
C1960 C1962 1.363 . S
C1960 H1976 0.931 1_655 S
C1961 C1960 1.370 1_455 S
C1961 C1965 1.408 1_455 S
C1962 C1960 1.363 . S
C1962 C1963 1.370 . S
C1962 C1966 1.524 . S
C1963 C1955 1.503 . S
C1963 C1962 1.370 . S
C1963 C1964 1.403 . S
C1964 C1963 1.403 . S
C1964 C1965 1.404 . S
C1964 C1967 1.539 . S
C1965 C1961 1.408 1_655 S
C1965 C1964 1.404 . S
C1965 H1977 0.930 1_655 S
C1966 C1962 1.524 . S
C1966 H1978 0.956 . S
C1966 H1979 0.961 . S
C1966 H1980 0.961 . S
C1967 C1964 1.539 . S
C1967 H1981 0.958 . S
C1967 H1982 0.961 . S
C1967 H1983 0.960 . S
H1968 C1952 0.931 . S
H1969 C1957 0.929 . S
H1970 C1958 0.960 . S
H1971 C1958 0.962 . S
H1972 C1958 0.960 . S
H1973 C1959 0.961 . S
H1974 C1959 0.961 . S
H1975 C1959 0.961 . S
H1976 C1960 0.931 1_455 S
H1977 C1965 0.930 1_455 S
H1978 C1966 0.956 . S
H1979 C1966 0.961 . S
H1980 C1966 0.961 . S
H1981 C1967 0.958 . S
H1982 C1967 0.961 . S
H1983 C1967 0.960 . S
C1984 C1985 1.391 . S
C1984 C1986 1.394 . S
C1984 H2000 0.931 . S
C1985 C1984 1.391 . S
C1985 C1989 1.376 . S
C1986 C1984 1.394 . S
C1986 C1987 1.369 . S
C1986 C1990 1.531 . S
C1987 C1986 1.369 . S
C1987 C1988 1.410 . S
C1987 C1995 1.503 . S
C1988 C1987 1.410 . S
C1988 C1989 1.392 . S
C1988 C1991 1.511 . S
C1989 C1985 1.376 . S
C1989 C1988 1.392 . S
C1989 H2001 0.929 . S
C1990 C1986 1.531 . S
C1990 H2002 0.960 . S
C1990 H2003 0.962 . S
C1990 H2004 0.960 . S
C1991 C1988 1.511 . S
C1991 H2005 0.961 . S
C1991 H2006 0.961 . S
C1991 H2007 0.961 . S
C1992 C1993 1.370 . S
C1992 C1994 1.363 . S
C1992 H2008 0.931 . S
C1993 C1992 1.370 . S
C1993 C1997 1.408 . S
C1994 C1992 1.363 . S
C1994 C1995 1.370 . S
C1994 C1998 1.524 . S
C1995 C1987 1.503 . S
C1995 C1994 1.370 . S
C1995 C1996 1.403 . S
C1996 C1995 1.403 . S
C1996 C1997 1.404 . S
C1996 C1999 1.539 . S
C1997 C1993 1.408 . S
C1997 C1996 1.404 . S
C1997 H2009 0.930 . S
C1998 C1994 1.524 . S
C1998 H2010 0.956 . S
C1998 H2011 0.961 . S
C1998 H2012 0.961 . S
C1999 C1996 1.539 . S
C1999 H2013 0.958 . S
C1999 H2014 0.961 . S
C1999 H2015 0.960 . S
H2000 C1984 0.931 . S
H2001 C1989 0.929 . S
H2002 C1990 0.960 . S
H2003 C1990 0.962 . S
H2004 C1990 0.960 . S
H2005 C1991 0.961 . S
H2006 C1991 0.961 . S
H2007 C1991 0.961 . S
H2008 C1992 0.931 . S
H2009 C1997 0.930 . S
H2010 C1998 0.956 . S
H2011 C1998 0.961 . S
H2012 C1998 0.961 . S
H2013 C1999 0.958 . S
H2014 C1999 0.961 . S
H2015 C1999 0.960 . S
C2016 C2017 1.391 1_565 S
C2016 C2018 1.394 1_565 S
C2016 H2032 0.931 . S
C2017 C2016 1.391 1_545 S
C2017 C2021 1.376 . S
C2018 C2016 1.394 1_545 S
C2018 C2019 1.368 . S
C2018 C2022 1.531 1_545 S
C2019 C2018 1.368 . S
C2019 C2020 1.410 . S
C2019 C2027 1.503 . S
C2020 C2019 1.410 . S
C2020 C2021 1.392 . S
C2020 C2023 1.511 . S
C2021 C2017 1.376 . S
C2021 C2020 1.392 . S
C2021 H2033 0.929 . S
C2022 C2018 1.531 1_565 S
C2022 H2034 0.960 . S
C2022 H2035 0.962 . S
C2022 H2036 0.960 . S
C2023 C2020 1.511 . S
C2023 H2037 0.961 . S
C2023 H2038 0.961 . S
C2023 H2039 0.961 . S
C2024 C2025 1.370 . S
C2024 C2026 1.363 . S
C2024 H2040 0.931 . S
C2025 C2024 1.370 . S
C2025 C2029 1.408 . S
C2026 C2024 1.363 . S
C2026 C2027 1.370 . S
C2026 C2030 1.524 . S
C2027 C2019 1.503 . S
C2027 C2026 1.370 . S
C2027 C2028 1.403 . S
C2028 C2027 1.403 . S
C2028 C2029 1.404 . S
C2028 C2031 1.539 . S
C2029 C2025 1.408 . S
C2029 C2028 1.404 . S
C2029 H2041 0.930 . S
C2030 C2026 1.524 . S
C2030 H2042 0.956 . S
C2030 H2043 0.961 . S
C2030 H2044 0.961 . S
C2031 C2028 1.539 . S
C2031 H2045 0.958 1_545 S
C2031 H2046 0.961 . S
C2031 H2047 0.960 . S
H2032 C2016 0.931 . S
H2033 C2021 0.929 . S
H2034 C2022 0.960 . S
H2035 C2022 0.962 . S
H2036 C2022 0.960 . S
H2037 C2023 0.961 . S
H2038 C2023 0.961 . S
H2039 C2023 0.961 . S
H2040 C2024 0.931 . S
H2041 C2029 0.930 . S
H2042 C2030 0.956 . S
H2043 C2030 0.961 . S
H2044 C2030 0.961 . S
H2045 C2031 0.958 1_565 S
H2046 C2031 0.961 . S
H2047 C2031 0.960 . S
C2048 C2049 1.391 . S
C2048 C2050 1.394 . S
C2048 H2064 0.931 . S
C2049 C2048 1.391 . S
C2049 C2053 1.376 . S
C2050 C2048 1.394 . S
C2050 C2051 1.369 . S
C2050 C2054 1.531 . S
C2051 C2050 1.369 . S
C2051 C2052 1.410 . S
C2051 C2059 1.503 . S
C2052 C2051 1.410 . S
C2052 C2053 1.392 . S
C2052 C2055 1.511 . S
C2053 C2049 1.376 . S
C2053 C2052 1.392 . S
C2053 H2065 0.929 . S
C2054 C2050 1.531 . S
C2054 H2066 0.960 . S
C2054 H2067 0.962 . S
C2054 H2068 0.960 . S
C2055 C2052 1.511 . S
C2055 H2069 0.961 . S
C2055 H2070 0.961 . S
C2055 H2071 0.961 . S
C2056 C2057 1.370 . S
C2056 C2058 1.363 . S
C2056 H2072 0.931 . S
C2057 C2056 1.370 . S
C2057 C2061 1.408 . S
C2058 C2056 1.363 . S
C2058 C2059 1.370 . S
C2058 C2062 1.524 . S
C2059 C2051 1.503 . S
C2059 C2058 1.370 . S
C2059 C2060 1.403 . S
C2060 C2059 1.403 . S
C2060 C2061 1.404 . S
C2060 C2063 1.539 . S
C2061 C2057 1.408 . S
C2061 C2060 1.404 . S
C2061 H2073 0.930 . S
C2062 C2058 1.524 . S
C2062 H2074 0.956 . S
C2062 H2075 0.961 . S
C2062 H2076 0.961 . S
C2063 C2060 1.539 . S
C2063 H2077 0.958 . S
C2063 H2078 0.961 . S
C2063 H2079 0.960 . S
H2064 C2048 0.931 . S
H2065 C2053 0.929 . S
H2066 C2054 0.960 . S
H2067 C2054 0.962 . S
H2068 C2054 0.960 . S
H2069 C2055 0.961 . S
H2070 C2055 0.961 . S
H2071 C2055 0.961 . S
H2072 C2056 0.931 . S
H2073 C2061 0.930 . S
H2074 C2062 0.956 . S
H2075 C2062 0.961 . S
H2076 C2062 0.961 . S
H2077 C2063 0.958 . S
H2078 C2063 0.961 . S
H2079 C2063 0.960 . S
C2080 C2081 1.391 1_465 S
C2080 C2082 1.395 . S
C2080 H2096 0.931 . S
C2081 C2080 1.391 1_645 S
C2081 C2085 1.376 . S
C2082 C2080 1.395 . S
C2082 C2083 1.364 1_565 S
C2082 C2086 1.534 . S
C2083 C2082 1.364 1_545 S
C2083 C2084 1.410 . S
C2083 C2091 1.503 . S
C2084 C2083 1.410 . S
C2084 C2085 1.392 1_455 S
C2084 C2087 1.511 . S
C2085 C2081 1.376 . S
C2085 C2084 1.392 1_655 S
C2085 H2097 0.929 . S
C2086 C2082 1.534 . S
C2086 H2098 0.960 . S
C2086 H2099 0.962 . S
C2086 H2100 0.960 . S
C2087 C2084 1.511 . S
C2087 H2101 0.961 . S
C2087 H2102 0.961 . S
C2087 H2103 0.961 . S
C2088 C2089 1.370 . S
C2088 C2090 1.363 . S
C2088 H2104 0.931 . S
C2089 C2088 1.370 . S
C2089 C2093 1.408 . S
C2090 C2088 1.363 . S
C2090 C2091 1.370 . S
C2090 C2094 1.524 . S
C2091 C2083 1.503 . S
C2091 C2090 1.370 . S
C2091 C2092 1.403 . S
C2092 C2091 1.403 . S
C2092 C2093 1.404 . S
C2092 C2095 1.539 . S
C2093 C2089 1.408 . S
C2093 C2092 1.404 . S
C2093 H2105 0.930 . S
C2094 C2090 1.524 . S
C2094 H2106 0.956 . S
C2094 H2107 0.961 . S
C2094 H2108 0.961 . S
C2095 C2092 1.539 . S
C2095 H2109 0.958 1_545 S
C2095 H2110 0.961 . S
C2095 H2111 0.960 . S
H2096 C2080 0.931 . S
H2097 C2085 0.929 . S
H2098 C2086 0.960 . S
H2099 C2086 0.962 . S
H2100 C2086 0.960 . S
H2101 C2087 0.961 . S
H2102 C2087 0.961 . S
H2103 C2087 0.961 . S
H2104 C2088 0.931 . S
H2105 C2093 0.930 . S
H2106 C2094 0.956 . S
H2107 C2094 0.961 . S
H2108 C2094 0.961 . S
H2109 C2095 0.958 1_565 S
H2110 C2095 0.961 . S
H2111 C2095 0.960 . S
C2112 C2113 1.391 . S
C2112 C2114 1.394 . S
C2112 H2128 0.931 . S
C2113 C2112 1.391 . S
C2113 C2117 1.376 . S
C2114 C2112 1.394 . S
C2114 C2115 1.369 . S
C2114 C2118 1.531 . S
C2115 C2114 1.369 . S
C2115 C2116 1.410 . S
C2115 C2123 1.503 . S
C2116 C2115 1.410 . S
C2116 C2117 1.392 . S
C2116 C2119 1.511 . S
C2117 C2113 1.376 . S
C2117 C2116 1.392 . S
C2117 H2129 0.929 . S
C2118 C2114 1.531 . S
C2118 H2130 0.960 . S
C2118 H2131 0.962 . S
C2118 H2132 0.960 . S
C2119 C2116 1.511 . S
C2119 H2133 0.961 . S
C2119 H2134 0.961 . S
C2119 H2135 0.961 . S
C2120 C2121 1.370 . S
C2120 C2122 1.363 . S
C2120 H2136 0.931 . S
C2121 C2120 1.370 . S
C2121 C2125 1.408 . S
C2122 C2120 1.363 . S
C2122 C2123 1.370 . S
C2122 C2126 1.524 . S
C2123 C2115 1.503 . S
C2123 C2122 1.370 . S
C2123 C2124 1.403 . S
C2124 C2123 1.403 . S
C2124 C2125 1.404 . S
C2124 C2127 1.539 . S
C2125 C2121 1.408 . S
C2125 C2124 1.404 . S
C2125 H2137 0.930 . S
C2126 C2122 1.524 . S
C2126 H2138 0.956 . S
C2126 H2139 0.961 . S
C2126 H2140 0.961 . S
C2127 C2124 1.539 . S
C2127 H2141 0.958 . S
C2127 H2142 0.961 . S
C2127 H2143 0.960 . S
H2128 C2112 0.931 . S
H2129 C2117 0.929 . S
H2130 C2118 0.960 . S
H2131 C2118 0.962 . S
H2132 C2118 0.960 . S
H2133 C2119 0.961 . S
H2134 C2119 0.961 . S
H2135 C2119 0.961 . S
H2136 C2120 0.931 . S
H2137 C2125 0.930 . S
H2138 C2126 0.956 . S
H2139 C2126 0.961 . S
H2140 C2126 0.961 . S
H2141 C2127 0.958 . S
H2142 C2127 0.961 . S
H2143 C2127 0.960 . S
C2144 C2145 1.391 . S
C2144 C2146 1.394 . S
C2144 H2160 0.931 . S
C2145 C2144 1.391 . S
C2145 C2149 1.376 . S
C2146 C2144 1.394 . S
C2146 C2147 1.369 . S
C2146 C2150 1.531 . S
C2147 C2146 1.369 . S
C2147 C2148 1.410 . S
C2147 C2155 1.503 . S
C2148 C2147 1.410 . S
C2148 C2149 1.392 . S
C2148 C2151 1.511 . S
C2149 C2145 1.376 . S
C2149 C2148 1.392 . S
C2149 H2161 0.929 . S
C2150 C2146 1.531 . S
C2150 H2162 0.960 1_565 S
C2150 H2163 0.962 . S
C2150 H2164 0.960 1_565 S
C2151 C2148 1.511 . S
C2151 H2165 0.961 . S
C2151 H2166 0.961 . S
C2151 H2167 0.961 . S
C2152 C2153 1.370 . S
C2152 C2154 1.363 . S
C2152 H2168 0.931 . S
C2153 C2152 1.370 . S
C2153 C2157 1.408 1_565 S
C2154 C2152 1.363 . S
C2154 C2155 1.370 . S
C2154 C2158 1.524 . S
C2155 C2147 1.503 . S
C2155 C2154 1.370 . S
C2155 C2156 1.378 1_565 S
C2156 C2155 1.378 1_545 S
C2156 C2157 1.412 . S
C2156 C2159 1.555 . S
C2157 C2153 1.408 1_545 S
C2157 C2156 1.412 . S
C2157 H2169 0.930 . S
C2158 C2154 1.524 . S
C2158 H2170 0.956 . S
C2158 H2171 0.961 . S
C2158 H2172 0.961 . S
C2159 C2156 1.555 . S
C2159 H2173 0.958 . S
C2159 H2174 0.961 . S
C2159 H2175 0.960 . S
H2160 C2144 0.931 . S
H2161 C2149 0.929 . S
H2162 C2150 0.960 1_545 S
H2163 C2150 0.962 . S
H2164 C2150 0.960 1_545 S
H2165 C2151 0.961 . S
H2166 C2151 0.961 . S
H2167 C2151 0.961 . S
H2168 C2152 0.931 . S
H2169 C2157 0.930 . S
H2170 C2158 0.956 . S
H2171 C2158 0.961 . S
H2172 C2158 0.961 . S
H2173 C2159 0.958 . S
H2174 C2159 0.961 . S
H2175 C2159 0.960 . S
C641 C15 0.906 . S
C649 C485 0.763 . S
C673 C205 0.912 . S
C681 C55 0.758 . S
C705 C95 0.738 . S
C713 C565 0.825 . S
C737 C135 0.898 1_455 S
C745 C285 0.759 1_655 S
C769 C165 0.698 . S
C777 C335 0.847 . S
C801 C415 0.788 . S
C809 C245 0.804 . S
C833 C525 0.811 . S
C841 C375 0.810 1_655 S
C865 C455 0.914 . S
C873 C605 0.756 . S
C897 C368 2.169 . S
C905 C5 2.139 . S
C929 C45 2.113 . S
C937 C408 2.167 . S
C961 C85 2.106 . S
C969 C448 2.174 . S
C993 C328 2.181 . S
C1001 C125 2.129 . S
C1025 C538 2.146 . S
C1033 C175 2.139 . S
C1057 C578 2.161 . S
C1065 C215 2.125 . S
C1089 C255 2.142 . S
C1097 C618 2.173 . S
C1121 C498 2.173 . S
C1129 C295 2.139 . S
C1153 C325 2.143 . S
C1161 C48 2.161 . S
C1185 C365 2.151 . S
C1193 C88 2.165 . S
C1217 C405 2.108 . S
C1225 C128 2.175 . S
C1249 C8 2.180 . S
C1257 C445 2.126 . S
C1281 C218 2.148 . S
C1289 C495 2.141 . S
C1313 C535 2.119 . S
C1321 C258 2.176 . S
C1345 C298 2.178 . S
C1353 C575 2.126 . S
C1377 C615 2.139 . S
C1385 C178 2.161 . S
C1409 C19 3.036 . S
C1417 C419 3.049 . S
C1441 C59 3.058 . S
C1449 C459 3.057 . S
C1473 C339 3.058 . S
C1481 C99 3.057 . S
C1505 C139 3.053 . S
C1513 C379 3.057 . S
C1537 C169 3.044 . S
C1545 C569 3.050 . S
C1569 C209 3.036 . S
C1577 C609 3.048 . S
C1601 C489 3.041 . S
C1609 C249 3.052 . S
C1633 C289 3.054 . S
C1641 C529 3.057 . S
C1665 C18 1.778 . S
C1673 C299 2.077 . S
C1697 C499 2.043 . S
C1705 C58 1.838 . S
C1729 C98 1.787 . S
C1737 C219 2.075 . S
C1761 C138 1.857 . S
C1769 C579 2.061 . S
C1793 C168 1.828 . S
C1801 C129 2.070 . S
C1825 C329 2.058 . S
C1833 C208 1.819 . S
C1857 C248 1.843 . S
C1865 C49 2.067 . S
C1889 C409 2.085 . S
C1897 C288 1.804 . S
C1921 C338 1.777 . S
C1929 C619 2.077 . S
C1953 C179 2.043 . S
C1961 C378 1.837 1_565 S
C1985 C539 2.081 . S
C1993 C418 1.805 . S
C2017 C458 1.857 1_545 S
C2025 C259 2.061 . S
C2049 C488 1.804 . S
C2057 C449 2.069 . S
C2081 C528 1.776 1_545 S
C2089 C9 2.078 . S
C2113 C369 2.086 . S
C2121 C568 1.803 . S
C2145 C89 2.054 . S
C2153 C608 1.833 1_565 S
