# Generated by pormake.
# Topology ict, (4)-cn, num edge types: 1
# Building blocks:
#     Node 0, Type 0, BuildingBlock: TATPOV_clean_sbu_0, # of connection points: 4
#     Node 1, Type 0, BuildingBlock: TATPOV_clean_sbu_0, # of connection points: 4
#     Node 2, Type 0, BuildingBlock: TATPOV_clean_sbu_0, # of connection points: 4
#     Node 3, Type 0, BuildingBlock: TATPOV_clean_sbu_0, # of connection points: 4
#     Node 4, Type 0, BuildingBlock: TATPOV_clean_sbu_0, # of connection points: 4
#     Node 5, Type 0, BuildingBlock: TATPOV_clean_sbu_0, # of connection points: 4
#     Node 6, Type 0, BuildingBlock: TATPOV_clean_sbu_0, # of connection points: 4
#     Node 7, Type 0, BuildingBlock: TATPOV_clean_sbu_0, # of connection points: 4
#     Node 8, Type 0, BuildingBlock: TATPOV_clean_sbu_0, # of connection points: 4
#     Node 9, Type 0, BuildingBlock: TATPOV_clean_sbu_0, # of connection points: 4
#     Node 10, Type 0, BuildingBlock: TATPOV_clean_sbu_0, # of connection points: 4
#     Node 11, Type 0, BuildingBlock: TATPOV_clean_sbu_0, # of connection points: 4
#     Node 12, Type 0, BuildingBlock: TATPOV_clean_sbu_0, # of connection points: 4
#     Node 13, Type 0, BuildingBlock: TATPOV_clean_sbu_0, # of connection points: 4
#     Node 14, Type 0, BuildingBlock: TATPOV_clean_sbu_0, # of connection points: 4
#     Node 15, Type 0, BuildingBlock: TATPOV_clean_sbu_0, # of connection points: 4
#     Node 16, Type 0, BuildingBlock: TATPOV_clean_sbu_0, # of connection points: 4
#     Node 17, Type 0, BuildingBlock: TATPOV_clean_sbu_0, # of connection points: 4
#     Node 18, Type 0, BuildingBlock: TATPOV_clean_sbu_0, # of connection points: 4
#     Node 19, Type 0, BuildingBlock: TATPOV_clean_sbu_0, # of connection points: 4
#     Node 20, Type 0, BuildingBlock: TATPOV_clean_sbu_0, # of connection points: 4
#     Node 21, Type 0, BuildingBlock: TATPOV_clean_sbu_0, # of connection points: 4
#     Node 22, Type 0, BuildingBlock: TATPOV_clean_sbu_0, # of connection points: 4
#     Node 23, Type 0, BuildingBlock: TATPOV_clean_sbu_0, # of connection points: 4
#     Node 24, Type 0, BuildingBlock: TATPOV_clean_sbu_0, # of connection points: 4
#     Node 25, Type 0, BuildingBlock: TATPOV_clean_sbu_0, # of connection points: 4
#     Node 26, Type 0, BuildingBlock: TATPOV_clean_sbu_0, # of connection points: 4
#     Node 27, Type 0, BuildingBlock: TATPOV_clean_sbu_0, # of connection points: 4
#     Node 28, Type 0, BuildingBlock: TATPOV_clean_sbu_0, # of connection points: 4
#     Node 29, Type 0, BuildingBlock: TATPOV_clean_sbu_0, # of connection points: 4
#     Node 30, Type 0, BuildingBlock: TATPOV_clean_sbu_0, # of connection points: 4
#     Node 31, Type 0, BuildingBlock: TATPOV_clean_sbu_0, # of connection points: 4
#     Node 32, Type 0, BuildingBlock: TATPOV_clean_sbu_0, # of connection points: 4
#     Node 33, Type 0, BuildingBlock: TATPOV_clean_sbu_0, # of connection points: 4
#     Node 34, Type 0, BuildingBlock: TATPOV_clean_sbu_0, # of connection points: 4
#     Node 35, Type 0, BuildingBlock: TATPOV_clean_sbu_0, # of connection points: 4
#     Edge 36, Type (0, 0), BuildingBlock: AJUNOK_clean_linker_0, # of connection points: 2
#     Edge 37, Type (0, 0), BuildingBlock: AJUNOK_clean_linker_0, # of connection points: 2
#     Edge 38, Type (0, 0), BuildingBlock: AJUNOK_clean_linker_0, # of connection points: 2
#     Edge 39, Type (0, 0), BuildingBlock: AJUNOK_clean_linker_0, # of connection points: 2
#     Edge 40, Type (0, 0), BuildingBlock: AJUNOK_clean_linker_0, # of connection points: 2
#     Edge 41, Type (0, 0), BuildingBlock: AJUNOK_clean_linker_0, # of connection points: 2
#     Edge 42, Type (0, 0), BuildingBlock: AJUNOK_clean_linker_0, # of connection points: 2
#     Edge 43, Type (0, 0), BuildingBlock: AJUNOK_clean_linker_0, # of connection points: 2
#     Edge 44, Type (0, 0), BuildingBlock: AJUNOK_clean_linker_0, # of connection points: 2
#     Edge 45, Type (0, 0), BuildingBlock: AJUNOK_clean_linker_0, # of connection points: 2
#     Edge 46, Type (0, 0), BuildingBlock: AJUNOK_clean_linker_0, # of connection points: 2
#     Edge 47, Type (0, 0), BuildingBlock: AJUNOK_clean_linker_0, # of connection points: 2
#     Edge 48, Type (0, 0), BuildingBlock: AJUNOK_clean_linker_0, # of connection points: 2
#     Edge 49, Type (0, 0), BuildingBlock: AJUNOK_clean_linker_0, # of connection points: 2
#     Edge 50, Type (0, 0), BuildingBlock: AJUNOK_clean_linker_0, # of connection points: 2
#     Edge 51, Type (0, 0), BuildingBlock: AJUNOK_clean_linker_0, # of connection points: 2
#     Edge 52, Type (0, 0), BuildingBlock: AJUNOK_clean_linker_0, # of connection points: 2
#     Edge 53, Type (0, 0), BuildingBlock: AJUNOK_clean_linker_0, # of connection points: 2
#     Edge 54, Type (0, 0), BuildingBlock: AJUNOK_clean_linker_0, # of connection points: 2
#     Edge 55, Type (0, 0), BuildingBlock: AJUNOK_clean_linker_0, # of connection points: 2
#     Edge 56, Type (0, 0), BuildingBlock: AJUNOK_clean_linker_0, # of connection points: 2
#     Edge 57, Type (0, 0), BuildingBlock: AJUNOK_clean_linker_0, # of connection points: 2
#     Edge 58, Type (0, 0), BuildingBlock: AJUNOK_clean_linker_0, # of connection points: 2
#     Edge 59, Type (0, 0), BuildingBlock: AJUNOK_clean_linker_0, # of connection points: 2
#     Edge 60, Type (0, 0), BuildingBlock: AJUNOK_clean_linker_0, # of connection points: 2
#     Edge 61, Type (0, 0), BuildingBlock: AJUNOK_clean_linker_0, # of connection points: 2
#     Edge 62, Type (0, 0), BuildingBlock: AJUNOK_clean_linker_0, # of connection points: 2
#     Edge 63, Type (0, 0), BuildingBlock: AJUNOK_clean_linker_0, # of connection points: 2
#     Edge 64, Type (0, 0), BuildingBlock: AJUNOK_clean_linker_0, # of connection points: 2
#     Edge 65, Type (0, 0), BuildingBlock: AJUNOK_clean_linker_0, # of connection points: 2
#     Edge 66, Type (0, 0), BuildingBlock: AJUNOK_clean_linker_0, # of connection points: 2
#     Edge 67, Type (0, 0), BuildingBlock: AJUNOK_clean_linker_0, # of connection points: 2
#     Edge 68, Type (0, 0), BuildingBlock: AJUNOK_clean_linker_0, # of connection points: 2
#     Edge 69, Type (0, 0), BuildingBlock: AJUNOK_clean_linker_0, # of connection points: 2
#     Edge 70, Type (0, 0), BuildingBlock: AJUNOK_clean_linker_0, # of connection points: 2
#     Edge 71, Type (0, 0), BuildingBlock: AJUNOK_clean_linker_0, # of connection points: 2
#     Edge 72, Type (0, 0), BuildingBlock: AJUNOK_clean_linker_0, # of connection points: 2
#     Edge 73, Type (0, 0), BuildingBlock: AJUNOK_clean_linker_0, # of connection points: 2
#     Edge 74, Type (0, 0), BuildingBlock: AJUNOK_clean_linker_0, # of connection points: 2
#     Edge 75, Type (0, 0), BuildingBlock: AJUNOK_clean_linker_0, # of connection points: 2
#     Edge 76, Type (0, 0), BuildingBlock: AJUNOK_clean_linker_0, # of connection points: 2
#     Edge 77, Type (0, 0), BuildingBlock: AJUNOK_clean_linker_0, # of connection points: 2
#     Edge 78, Type (0, 0), BuildingBlock: AJUNOK_clean_linker_0, # of connection points: 2
#     Edge 79, Type (0, 0), BuildingBlock: AJUNOK_clean_linker_0, # of connection points: 2
#     Edge 80, Type (0, 0), BuildingBlock: AJUNOK_clean_linker_0, # of connection points: 2
#     Edge 81, Type (0, 0), BuildingBlock: AJUNOK_clean_linker_0, # of connection points: 2
#     Edge 82, Type (0, 0), BuildingBlock: AJUNOK_clean_linker_0, # of connection points: 2
#     Edge 83, Type (0, 0), BuildingBlock: AJUNOK_clean_linker_0, # of connection points: 2
#     Edge 84, Type (0, 0), BuildingBlock: AJUNOK_clean_linker_0, # of connection points: 2
#     Edge 85, Type (0, 0), BuildingBlock: AJUNOK_clean_linker_0, # of connection points: 2
#     Edge 86, Type (0, 0), BuildingBlock: AJUNOK_clean_linker_0, # of connection points: 2
#     Edge 87, Type (0, 0), BuildingBlock: AJUNOK_clean_linker_0, # of connection points: 2
#     Edge 88, Type (0, 0), BuildingBlock: AJUNOK_clean_linker_0, # of connection points: 2
#     Edge 89, Type (0, 0), BuildingBlock: AJUNOK_clean_linker_0, # of connection points: 2
#     Edge 90, Type (0, 0), BuildingBlock: AJUNOK_clean_linker_0, # of connection points: 2
#     Edge 91, Type (0, 0), BuildingBlock: AJUNOK_clean_linker_0, # of connection points: 2
#     Edge 92, Type (0, 0), BuildingBlock: AJUNOK_clean_linker_0, # of connection points: 2
#     Edge 93, Type (0, 0), BuildingBlock: AJUNOK_clean_linker_0, # of connection points: 2
#     Edge 94, Type (0, 0), BuildingBlock: AJUNOK_clean_linker_0, # of connection points: 2
#     Edge 95, Type (0, 0), BuildingBlock: AJUNOK_clean_linker_0, # of connection points: 2
#     Edge 96, Type (0, 0), BuildingBlock: AJUNOK_clean_linker_0, # of connection points: 2
#     Edge 97, Type (0, 0), BuildingBlock: AJUNOK_clean_linker_0, # of connection points: 2
#     Edge 98, Type (0, 0), BuildingBlock: AJUNOK_clean_linker_0, # of connection points: 2
#     Edge 99, Type (0, 0), BuildingBlock: AJUNOK_clean_linker_0, # of connection points: 2
#     Edge 100, Type (0, 0), BuildingBlock: AJUNOK_clean_linker_0, # of connection points: 2
#     Edge 101, Type (0, 0), BuildingBlock: AJUNOK_clean_linker_0, # of connection points: 2
#     Edge 102, Type (0, 0), BuildingBlock: AJUNOK_clean_linker_0, # of connection points: 2
#     Edge 103, Type (0, 0), BuildingBlock: AJUNOK_clean_linker_0, # of connection points: 2
#     Edge 104, Type (0, 0), BuildingBlock: AJUNOK_clean_linker_0, # of connection points: 2
#     Edge 105, Type (0, 0), BuildingBlock: AJUNOK_clean_linker_0, # of connection points: 2
#     Edge 106, Type (0, 0), BuildingBlock: AJUNOK_clean_linker_0, # of connection points: 2
#     Edge 107, Type (0, 0), BuildingBlock: AJUNOK_clean_linker_0, # of connection points: 2
# Relax obj value: 0.099
# Max RMSD: 0.122
# Mean RMSD: 0.122
data_MOF--net-ict--node1-TATPOV_clean_sbu_0--edge1-AJUNOK_clean_linker_0
_symmetry_space_group_name_H-M    P1
_symmetry_Int_Tables_number       1
_symmetry_cell_setting            triclinic
loop_
_symmetry_equiv_pos_as_xyz
'x, y, z'
_cell_length_a     51.024214
_cell_length_b     50.946154
_cell_length_c     24.552032
_cell_angle_alpha  90.178254
_cell_angle_beta   89.841323
_cell_angle_gamma 119.92316
loop_
_atom_site_label
_atom_site_type_symbol
_atom_site_fract_x
_atom_site_fract_y
_atom_site_fract_z
_atom_type_partial_charge
Zn0 Zn 0.1854 0.1621 0.09934 0.0
Zn1 Zn 0.21682 0.19275 0.01574 0.0
O2 O 0.17929 0.19652 0.00151 0.0
O3 O 0.15562 0.17604 0.07852 0.0
O4 O 0.2465 0.21425 0.95497 0.0
O5 O 0.18007 0.12227 0.07588 0.0
O6 O 0.2092 0.14871 0.00758 0.0
C7 C 0.15747 0.18977 0.03442 0.0
C8 C 0.23845 0.21304 0.13314 0.0
O9 O 0.2393 0.21898 0.08267 0.0
O10 O 0.21881 0.18737 0.1508 0.0
C11 C 0.26277 0.24286 0.95071 0.0
O12 O 0.25858 0.26025 0.98508 0.0
C13 C 0.19442 0.12364 0.03301 0.0
Zn14 Zn 0.82412 1.00098 0.11067 0.0
Zn15 Zn 0.78568 0.00883 0.05595 0.0
O16 O 0.78116 0.96947 0.02079 0.0
O17 O 0.821 0.97017 0.05688 0.0
O18 O 0.75857 0.01968 0.0147 0.0
O19 O 0.85705 0.04466 0.10345 0.0
O20 O 0.82672 0.04761 0.04365 0.0
C21 C 0.79891 0.95864 0.02424 0.0
C22 C 0.77565 0.99429 0.17628 0.0
O23 O 0.77011 0.00524 0.1343 0.0
O24 O 0.79638 0.98758 0.17514 0.0
C25 C 0.73508 0.00324 0.98665 0.0
O26 O 0.72544 0.97416 0.98146 0.0
C27 C 0.85229 0.05949 0.06748 0.0
Zn28 Zn 0.96268 0.77448 0.07739 0.0
Zn29 Zn 0.95986 0.73929 -0.00179 0.0
O30 O 0.99701 0.77713 0.96962 0.0
O31 O 1.00302 0.80528 0.04216 0.0
O32 O 0.9481 0.70518 0.94494 0.0
O33 O 0.92436 0.77466 0.06005 0.0
O34 O 0.92146 0.7436 -0.00478 0.0
C35 C 0.01221 0.80179 -0.00398 0.0
C36 C 0.97025 0.72748 0.11729 0.0
O37 O 0.97211 0.72399 0.06634 0.0
O38 O 0.96235 0.746 0.13403 0.0
C39 C 0.96309 0.69927 0.91048 0.0
O40 O 0.99222 0.71804 0.90472 0.0
C41 C 0.91045 0.75803 0.01983 0.0
Zn42 Zn 0.16652 0.20483 0.37747 0.0
Zn43 Zn 0.21063 0.24171 0.44432 0.0
O44 O 0.20858 0.2018 0.46481 0.0
O45 O 0.171 0.17061 0.41163 0.0
O46 O 0.23966 0.27352 0.49547 0.0
O47 O 0.13594 0.21554 0.40504 0.0
O48 O 0.1723 0.24463 0.4616 0.0
C49 C 0.19108 0.17517 0.44674 0.0
C50 C 0.22084 0.2485 0.32223 0.0
O51 O 0.23133 0.25579 0.37018 0.0
O52 O 0.19353 0.22835 0.3147 0.0
C53 C 0.26816 0.2896 0.49041 0.0
O54 O 0.28193 0.28366 0.45106 0.0
C55 C 0.1454 0.23425 0.44404 0.0
Zn56 Zn 0.85345 0.0296 0.43841 0.0
Zn57 Zn 0.80725 0.00753 0.50824 0.0
O58 O 0.83792 0.04963 0.54193 0.0
O59 O 0.87471 0.06778 0.48105 0.0
O60 O 0.77051 0.99005 0.55643 0.0
O61 O 0.85965 0.99401 0.45359 0.0
O62 O 0.8199 0.97474 0.50788 0.0
C63 C 0.86337 0.07087 0.52475 0.0
C64 C 0.79789 0.0168 0.38858 0.0
O65 O 0.78739 0.00784 0.43608 0.0
O66 O 0.8257 0.0273 0.37876 0.0
C67 C 0.75385 1.00205 0.55911 0.0
O68 O 0.76286 0.02829 0.53545 0.0
C69 C 0.84123 0.97287 0.48431 0.0
Zn70 Zn 0.04896 0.82139 0.31914 0.0
Zn71 Zn 0.05068 0.79004 0.40187 0.0
O72 O 0.01317 0.79215 0.42413 0.0
O73 O 0.00864 0.81418 0.35046 0.0
O74 O 0.05865 0.76815 0.46218 0.0
O75 O 0.08745 0.85953 0.33739 0.0
O76 O 0.08933 0.83253 0.40512 0.0
C77 C 0.99865 0.80185 0.39645 0.0
C78 C 0.04187 0.76549 0.28456 0.0
O79 O 0.04035 0.76122 0.33581 0.0
O80 O 0.04899 0.79137 0.26611 0.0
C81 C 0.03968 0.7424 0.48149 0.0
O82 O 0.012 0.72824 0.46217 0.0
C83 C 0.10071 0.85755 0.37926 0.0
Zn84 Zn 0.80775 0.81869 0.85885 0.0
Zn85 Zn 0.76229 0.78272 0.91184 0.0
O86 O 0.79414 0.77475 0.94891 0.0
O87 O 0.82979 0.79789 0.88727 0.0
O88 O 0.72217 0.75566 0.94816 0.0
O89 O 0.81312 0.85626 0.89291 0.0
O90 O 0.76805 0.82594 0.9266 0.0
C91 C 0.81969 0.78105 0.92879 0.0
C92 C 0.76492 0.77903 0.7879 0.0
O93 O 0.75451 0.76559 0.83306 0.0
O94 O 0.78658 0.80598 0.78764 0.0
C95 C 0.71647 0.73522 0.9833 0.0
O96 O 0.73816 0.7302 -0.00096 0.0
C97 C 0.79014 0.85269 0.91877 0.0
Zn98 Zn 0.15286 0.9624 0.86182 0.0
Zn99 Zn 0.18788 0.95761 0.93503 0.0
O100 O 0.18798 0.99531 0.9646 0.0
O101 O 0.16204 1.00171 0.89941 0.0
O102 O 0.21173 0.94792 -0.01128 0.0
O103 O 0.11618 0.92272 0.87945 0.0
O104 O 0.14579 0.91827 0.93916 0.0
C105 C 0.17721 0.01067 0.94312 0.0
C106 C 0.20646 0.96917 0.81455 0.0
O107 O 0.21342 0.96864 0.86414 0.0
O108 O 0.18041 0.96444 0.80224 0.0
C109 C 0.24032 0.96252 -0.00567 0.0
O110 O 0.25642 0.98681 0.96465 0.0
C111 C 0.12009 0.90758 0.91595 0.0
Zn112 Zn 0.00648 0.20147 0.92683 0.0
Zn113 Zn 0.01393 0.23368 0.01667 0.0
O114 O 0.97245 0.195 0.03068 0.0
O115 O 0.96641 0.16927 0.95477 0.0
O116 O 0.02253 0.26058 0.08251 0.0
O117 O 0.04444 0.19983 0.94112 0.0
O118 O 0.04983 0.22547 0.01653 0.0
C119 C 0.95674 0.17174 0.00089 0.0
C120 C 0.01147 0.25853 0.90419 0.0
O121 O 0.01462 0.26215 0.95551 0.0
O122 O 0.00785 0.23451 0.88208 0.0
C123 C 0.00825 0.27481 0.09011 0.0
O124 O 0.98573 0.26934 0.05738 0.0
C125 C 0.05901 0.21203 0.98427 0.0
Zn126 Zn 0.8678 0.82547 0.56383 0.0
Zn127 Zn 0.83106 0.79859 0.47984 0.0
O128 O 0.83458 0.84062 0.4751 0.0
O129 O 0.8662 0.86334 0.54323 0.0
O130 O 0.80475 0.7727 0.41813 0.0
O131 O 0.90073 0.81887 0.53556 0.0
O132 O 0.87101 0.79784 0.46496 0.0
C133 C 0.85009 0.86402 0.50462 0.0
C134 C 0.81063 0.77611 0.59621 0.0
O135 O 0.80495 0.77563 0.54577 0.0
O136 O 0.83657 0.79473 0.61447 0.0
C137 C 0.77604 0.76003 0.4186 0.0
O138 O 0.76278 0.76677 0.45774 0.0
C139 C 0.89598 0.80613 0.48955 0.0
Zn140 Zn 0.18893 0.01716 0.55613 0.0
Zn141 Zn 0.23669 0.03412 0.49982 0.0
O142 O 0.208 0.99398 0.45975 0.0
O143 O 0.17081 0.97635 0.51958 0.0
O144 O 0.27616 0.05298 0.45857 0.0
O145 O 0.18008 0.04904 0.53016 0.0
O146 O 0.22558 0.06852 0.4948 0.0
C147 C 0.18291 0.9725 0.47752 0.0
C148 C 0.23633 0.02294 0.62182 0.0
O149 O 0.24815 0.02469 0.5753 0.0
O150 O 0.21172 0.02314 0.62558 0.0
C151 C 0.29304 0.04137 0.45342 0.0
O152 O 0.28408 0.01442 0.47401 0.0
C153 C 0.20225 0.07063 0.50615 0.0
Zn154 Zn 0.01326 0.22053 0.65845 0.0
Zn155 Zn 0.99915 0.25173 0.58901 0.0
O156 O 0.03744 0.25462 0.55308 0.0
O157 O 0.04832 0.22827 0.61068 0.0
O158 O 0.98394 0.27157 0.53722 0.0
O159 O 0.97245 0.18244 0.64939 0.0
O160 O 0.96283 0.20833 0.58924 0.0
C161 C 0.0541 0.24371 0.56749 0.0
C162 C 0.01489 0.27296 0.7065 0.0
O163 O 0.00563 0.2761 0.66023 0.0
O164 O 0.01979 0.25131 0.71511 0.0
C165 C 0.99895 0.29626 0.51132 0.0
O166 O 0.02849 0.31184 0.51655 0.0
C167 C 0.95483 0.18367 0.61462 0.0
Zn168 Zn 0.80199 0.47408 0.33346 0.0
Zn169 Zn 0.85978 0.5159 0.32969 0.0
O170 O 0.83784 0.53329 0.28379 0.0
O171 O 0.79044 0.49638 0.28105 0.0
O172 O 0.90366 0.54673 0.31821 0.0
O173 O 0.80963 0.44145 0.30674 0.0
O174 O 0.85806 0.47562 0.30571 0.0
C175 C 0.81073 0.52268 0.26747 0.0
C176 C 0.82793 0.50265 0.43793 0.0
O177 O 0.85241 0.51736 0.41112 0.0
O178 O 0.80397 0.48344 0.41386 0.0
C179 C 0.91355 0.57486 0.3111 0.0
O180 O 0.89461 0.58523 0.31331 0.0
C181 C 0.83679 0.4484 0.29836 0.0
Zn182 Zn 0.51275 0.39569 0.4215 0.0
Zn183 Zn 0.47594 0.38893 0.34013 0.0
O184 O 0.48075 0.35232 0.32298 0.0
O185 O 0.50667 0.35436 0.39627 0.0
O186 O 0.44713 0.38983 0.28607 0.0
O187 O 0.54668 0.43498 0.39071 0.0
O188 O 0.5148 0.42973 0.32604 0.0
C189 C 0.49312 0.34107 0.35268 0.0
C190 C 0.45688 0.38656 0.46032 0.0
O191 O 0.45117 0.38168 0.40982 0.0
O192 O 0.48358 0.3962 0.47717 0.0
C193 C 0.41894 0.37089 0.28774 0.0
O194 O 0.40878 0.34787 0.32141 0.0
C195 C 0.54086 0.4448 0.34778 0.0
Zn196 Zn 0.65695 0.12986 0.47713 0.0
Zn197 Zn 0.64217 0.09242 0.39768 0.0
O198 O 0.68297 0.12677 0.36872 0.0
O199 O 0.69823 0.15518 0.44243 0.0
O200 O 0.62532 0.06011 0.33978 0.0
O201 O 0.62474 0.1403 0.46487 0.0
O202 O 0.60844 0.10433 0.40306 0.0
C203 C 0.70334 0.14972 0.3944 0.0
C204 C 0.64987 0.07434 0.5124 0.0
O205 O 0.64916 0.07002 0.46128 0.0
O206 O 0.65003 0.09763 0.53074 0.0
C207 C 0.63681 0.0437 0.32772 0.0
O208 O 0.66227 0.04931 0.35091 0.0
C209 C 0.60523 0.12411 0.42975 0.0
Zn210 Zn 0.79766 0.46762 0.77101 0.0
Zn211 Zn 0.83969 0.52347 0.78894 0.0
O212 O 0.85793 0.49846 0.82138 0.0
O213 O 0.82467 0.452 0.79604 0.0
O214 O 0.86915 0.56613 0.81232 0.0
O215 O 0.76693 0.46972 0.81975 0.0
O216 O 0.79958 0.51855 0.82022 0.0
C217 C 0.8497 0.47042 0.81763 0.0
C218 C 0.82099 0.50357 0.6733 0.0
O219 O 0.84016 0.52364 0.70538 0.0
O220 O 0.79985 0.47891 0.69215 0.0
C221 C 0.89659 0.58303 0.79819 0.0
O222 O 0.90878 0.57292 0.7627 0.0
C223 C 0.77346 0.49646 0.8318 0.0
Zn224 Zn 0.45645 0.31182 0.67235 0.0
Zn225 Zn 0.41759 0.29934 0.74431 0.0
O226 O 0.45169 0.33708 0.78114 0.0
O227 O 0.48191 0.35242 0.70996 0.0
O228 O 0.3815 0.2835 0.79417 0.0
O229 O 0.46461 0.27836 0.68533 0.0
O230 O 0.42629 0.26299 0.74154 0.0
C231 C 0.47576 0.3571 0.75784 0.0
C232 C 0.40942 0.31442 0.62654 0.0
O233 O 0.40376 0.31401 0.67713 0.0
O234 O 0.42928 0.30812 0.61122 0.0
C235 C 0.36881 0.29838 0.80915 0.0
O236 O 0.38044 0.32675 0.79393 0.0
C237 C 0.44627 0.2587 0.71811 0.0
Zn238 Zn 0.71162 0.15874 0.71929 0.0
Zn239 Zn 0.70771 0.12556 0.80476 0.0
O240 O 0.67119 0.13102 0.8199 0.0
O241 O 0.67105 0.15399 0.74396 0.0
O242 O 0.70861 0.0991 0.86458 0.0
O243 O 0.7512 0.19381 0.74391 0.0
O244 O 0.74892 0.16546 0.81323 0.0
C245 C 0.65904 0.14215 0.7893 0.0
C246 C 0.7045 0.10242 0.68729 0.0
O247 O 0.70052 0.09792 0.73826 0.0
O248 O 0.71209 0.12823 0.668 0.0
C249 C 0.69157 0.07046 0.86264 0.0
O250 O 0.67084 0.05856 0.82452 0.0
C251 C 0.76283 0.19024 0.78666 0.0
Zn252 Zn 0.51777 0.19507 0.26235 0.0
Zn253 Zn 0.46612 0.16032 0.3075 0.0
O254 O 0.4949 0.14826 0.34569 0.0
O255 O 0.53935 0.18585 0.32075 0.0
O256 O 0.42573 0.13572 0.34477 0.0
O257 O 0.51331 0.23209 0.26632 0.0
O258 O 0.47448 0.2044 0.31966 0.0
C259 C 0.5237 0.16212 0.34841 0.0
C260 C 0.476 0.14933 0.19019 0.0
O261 O 0.45719 0.14518 0.228 0.0
O262 O 0.50381 0.1682 0.19628 0.0
C263 C 0.41204 0.10712 0.35041 0.0
O264 O 0.425 0.09201 0.33249 0.0
C265 C 0.49271 0.22986 0.29793 0.0
Zn266 Zn 0.84088 0.28767 0.20721 0.0
Zn267 Zn 0.87477 0.30234 0.29495 0.0
O268 O 0.86797 0.33885 0.29403 0.0
O269 O 0.84103 0.32747 0.21881 0.0
O270 O 0.90091 0.30718 0.35983 0.0
O271 O 0.80722 0.24935 0.23825 0.0
O272 O 0.83538 0.26158 0.31174 0.0
C273 C 0.85365 0.34518 0.25878 0.0
C274 C 0.89896 0.2972 0.18233 0.0
O275 O 0.90289 0.30506 0.23216 0.0
O276 O 0.87298 0.28651 0.16135 0.0
C277 C 0.92947 0.32457 0.35904 0.0
O278 O 0.94192 0.34243 0.31696 0.0
C279 C 0.81094 0.24358 0.2867 0.0
Zn280 Zn 0.68624 0.56314 0.1482 0.0
Zn281 Zn 0.70144 0.60115 0.22201 0.0
O282 O 0.66403 0.56666 0.26003 0.0
O283 O 0.64608 0.53798 0.18706 0.0
O284 O 0.7195 0.63678 0.2733 0.0
O285 O 0.71866 0.55322 0.15635 0.0
O286 O 0.73671 0.59131 0.21373 0.0
C287 C 0.64296 0.54335 0.23637 0.0
C288 C 0.68653 0.61277 0.10667 0.0
O289 O 0.68733 0.61763 0.15765 0.0
O290 O 0.69076 0.5918 0.08955 0.0
C291 C 0.70709 0.65243 0.28474 0.0
O292 O 0.68016 0.64421 0.26504 0.0
C293 C 0.73957 0.57108 0.18772 0.0
Zn294 Zn 0.51841 0.1737 0.88698 0.0
Zn295 Zn 0.4817 0.12016 0.84866 0.0
O296 O 0.46799 0.14748 0.80962 0.0
O297 O 0.50587 0.1929 0.82927 0.0
O298 O 0.45673 0.07879 0.81497 0.0
O299 O 0.55527 0.16941 0.87832 0.0
O300 O 0.52517 0.12799 0.8325 0.0
C301 C 0.48137 0.17619 0.8044 0.0
C302 C 0.4763 0.13399 0.96655 0.0
O303 O 0.46987 0.11388 0.93003 0.0
O304 O 0.49513 0.1615 0.95706 0.0
C305 C 0.42856 0.06513 0.80487 0.0
O306 O 0.41287 0.07843 0.81696 0.0
C307 C 0.55152 0.1472 0.84953 0.0
Zn308 Zn 0.88652 0.34822 0.95458 0.0
Zn309 Zn 0.92527 0.35559 0.87997 0.0
O310 O 0.88976 0.31547 0.85179 0.0
O311 O 0.85854 0.30715 0.92028 0.0
O312 O 0.96064 0.36853 0.82821 0.0
O313 O 0.88303 0.38421 0.93704 0.0
O314 O 0.91612 0.39133 0.87285 0.0
C315 C 0.86457 0.29866 0.87567 0.0
C316 C 0.93612 0.34901 0.00178 0.0
O317 O 0.94233 0.34821 0.95179 0.0
O318 O 0.91366 0.35175 0.0148 0.0
C319 C 0.97918 0.35872 0.83096 0.0
O320 O 0.97385 0.33704 0.8657 0.0
C321 C 0.89939 0.39963 0.89773 0.0
Zn322 Zn 0.61449 0.50009 0.93915 0.0
Zn323 Zn 0.62623 0.53001 0.84445 0.0
O324 O 0.66304 0.52417 0.8483 0.0
O325 O 0.65418 0.49982 0.92631 0.0
O326 O 0.63034 0.55316 0.77584 0.0
O327 O 0.57561 0.46538 0.91087 0.0
O328 O 0.58597 0.48989 0.8331 0.0
C329 C 0.67066 0.51136 0.8845 0.0
C330 C 0.62215 0.55938 0.95144 0.0
O331 O 0.62824 0.56055 0.90102 0.0
O332 O 0.61422 0.5352 0.97774 0.0
C333 C 0.6498 0.58119 0.77224 0.0
O334 O 0.66973 0.59396 0.81146 0.0
C335 C 0.56875 0.46675 0.86192 0.0
Zn336 Zn 0.54665 0.8407 0.77017 0.0
Zn337 Zn 0.58271 0.88104 0.69793 0.0
O338 O 0.54368 0.88003 0.67451 0.0
O339 O 0.51323 0.84535 0.73325 0.0
O340 O 0.61661 0.90853 0.648 0.0
O341 O 0.55457 0.80763 0.74739 0.0
O342 O 0.58223 0.84038 0.68437 0.0
C343 C 0.51737 0.8636 0.69471 0.0
C344 C 0.59062 0.89537 0.82011 0.0
O345 O 0.59683 0.90359 0.77077 0.0
O346 O 0.57068 0.86847 0.83143 0.0
C347 C 0.6333 0.93697 0.6543 0.0
O348 O 0.62583 0.95102 0.69076 0.0
C349 C 0.57117 0.81413 0.70566 0.0
Zn350 Zn 0.15718 0.70637 0.82584 0.0
Zn351 Zn 0.12915 0.70322 0.73325 0.0
O352 O 0.13287 0.66522 0.72435 0.0
O353 O 0.15146 0.66474 0.80517 0.0
O354 O 0.10979 0.70777 0.66494 0.0
O355 O 0.19562 0.7443 0.80513 0.0
O356 O 0.17121 0.74186 0.73 0.0
C357 C 0.14157 0.65256 0.75899 0.0
C358 C 0.10033 0.702 0.84434 0.0
O359 O 0.09825 0.69758 0.79312 0.0
O360 O 0.12491 0.70914 0.86836 0.0
C361 C 0.08143 0.69543 0.65717 0.0
O362 O 0.06283 0.67648 0.69372 0.0
C363 C 0.19504 0.75508 0.75914 0.0
Zn364 Zn 0.36544 0.47992 0.78579 0.0
Zn365 Zn 0.34199 0.44232 0.70249 0.0
O366 O 0.38095 0.4783 0.66989 0.0
O367 O 0.40022 0.50907 0.74029 0.0
O368 O 0.32385 0.41228 0.64189 0.0
O369 O 0.32706 0.48279 0.79171 0.0
O370 O 0.30824 0.45199 0.72161 0.0
C371 C 0.40168 0.50287 0.69088 0.0
C372 C 0.3594 0.42189 0.80641 0.0
O373 O 0.34692 0.41577 0.75984 0.0
O374 O 0.36982 0.44821 0.82618 0.0
C375 C 0.3356 0.39672 0.62575 0.0
O376 O 0.362 0.40275 0.64523 0.0
C377 C 0.30558 0.46818 0.75851 0.0
Zn378 Zn 0.49891 0.87122 0.02043 0.0
Zn379 Zn 0.52729 0.89882 0.1091 0.0
O380 O 0.5278 0.85953 0.12223 0.0
O381 O 0.5096 0.8388 0.04206 0.0
O382 O 0.54806 0.92718 0.17193 0.0
O383 O 0.45918 0.86741 0.04094 0.0
O384 O 0.48386 0.89241 0.11409 0.0
C385 C 0.52096 0.83832 0.08774 0.0
C386 C 0.55295 0.92277 -0.00549 0.0
O387 O 0.55623 0.9214 0.04553 0.0
O388 O 0.52752 0.90555 0.97299 0.0
C389 C 0.57658 0.94142 0.17825 0.0
O390 O 0.59337 0.9353 0.14581 0.0
C391 C 0.45962 0.87969 0.08595 0.0
Zn392 Zn 0.10435 0.63257 0.04836 0.0
Zn393 Zn 0.07075 0.63135 0.12925 0.0
O394 O 0.11072 0.66782 0.15314 0.0
O395 O 0.13778 0.67269 0.07979 0.0
O396 O 0.04111 0.62406 0.18911 0.0
O397 O 0.10183 0.59308 0.06608 0.0
O398 O 0.0714 0.59088 0.13155 0.0
C399 C 0.13524 0.68222 0.12621 0.0
C400 C 0.05603 0.63998 0.012 0.0
O401 O 0.05301 0.64237 0.06296 0.0
O402 O 0.07495 0.63271 -0.00504 0.0
C403 C 0.02784 0.63908 0.19855 0.0
O404 O 0.0344 0.66291 0.16855 0.0
C405 C 0.08454 0.57899 0.10546 0.0
Zn406 Zn 0.33341 0.46911 0.0037 0.0
Zn407 Zn 0.33827 0.44519 0.09601 0.0
O408 O 0.29768 0.4442 0.10893 0.0
O409 O 0.29691 0.46859 0.03558 0.0
O410 O 0.34819 0.42947 0.16281 0.0
O411 O 0.37485 0.50673 0.01282 0.0
O412 O 0.37465 0.48844 0.09382 0.0
C413 C 0.28535 0.4561 0.08062 0.0
C414 C 0.33265 0.41303 -0.0118 0.0
O415 O 0.33886 0.416 0.03862 0.0
O416 O 0.3281 0.43227 0.9639 0.0
C417 C 0.33958 0.40156 0.16908 0.0
O418 O 0.31901 0.38158 0.13616 0.0
C419 C 0.38706 0.50968 0.05895 0.0
Zn420 Zn 0.199 0.53239 0.65906 0.0
Zn421 Zn 0.14914 0.48786 0.6922 0.0
O422 O 0.18231 0.47994 0.7258 0.0
O423 O 0.22363 0.52366 0.71146 0.0
O424 O 0.10837 0.45565 0.72065 0.0
O425 O 0.1879 0.56415 0.67322 0.0
O426 O 0.14807 0.52728 0.71361 0.0
C427 C 0.21086 0.49722 0.73116 0.0
C428 C 0.16574 0.49074 0.5734 0.0
O429 O 0.14536 0.47881 0.60989 0.0
O430 O 0.19124 0.51322 0.5852 0.0
C431 C 0.09987 0.42903 0.7376 0.0
O432 O 0.11951 0.41954 0.7401 0.0
C433 C 0.16397 0.55519 0.70066 0.0
Zn434 Zn 0.52481 0.65977 0.5229 0.0
Zn435 Zn 0.56721 0.65358 0.57556 0.0
O436 O 0.57354 0.69318 0.61086 0.0
O437 O 0.54002 0.69918 0.56386 0.0
O438 O 0.5924 0.64019 0.6165 0.0
O439 O 0.48983 0.62047 0.54945 0.0
O440 O 0.52562 0.61615 0.59053 0.0
C441 C 0.56085 0.70859 0.59918 0.0
C442 C 0.57121 0.66137 0.45329 0.0
O443 O 0.58358 0.65974 0.49707 0.0
O444 O 0.54603 0.66056 0.45417 0.0
C445 C 0.62011 0.65323 0.62983 0.0
O446 O 0.63806 0.68179 0.61714 0.0
C447 C 0.49776 0.60554 0.57947 0.0
Zn448 Zn 0.35502 0.84937 0.57807 0.0
Zn449 Zn 0.36856 0.8962 0.63714 0.0
O450 O 0.32945 0.8646 0.67614 0.0
O451 O 0.31489 0.8274 0.6168 0.0
O452 O 0.38421 0.93446 0.68146 0.0
O453 O 0.39003 0.84487 0.60164 0.0
O454 O 0.40544 0.88889 0.64131 0.0
C455 C 0.30976 0.83839 0.65912 0.0
C456 C 0.35599 0.89615 0.51557 0.0
O457 O 0.35795 0.90758 0.56261 0.0
O458 O 0.3575 0.87225 0.51023 0.0
C459 C 0.36986 0.94823 0.69274 0.0
O460 O 0.34191 0.93691 0.6755 0.0
C461 C 0.4101 0.86736 0.62759 0.0
Zn462 Zn 0.16769 0.49944 0.24 0.0
Zn463 Zn 0.12534 0.44378 0.23164 0.0
O464 O 0.10663 0.46793 0.19584 0.0
O465 O 0.14065 0.51492 0.21678 0.0
O466 O 0.09492 0.39969 0.21819 0.0
O467 O 0.19501 0.4953 0.18692 0.0
O468 O 0.16299 0.44643 0.19332 0.0
C469 C 0.11534 0.49617 0.19668 0.0
C470 C 0.1511 0.46934 0.34265 0.0
O471 O 0.12969 0.44816 0.31548 0.0
O472 O 0.17122 0.49272 0.3187 0.0
C473 C 0.06703 0.38876 0.20741 0.0
O474 O 0.05554 0.4068 0.2072 0.0
C475 C 0.188 0.46829 0.17633 0.0
Zn476 Zn 0.50907 0.67717 0.20396 0.0
Zn477 Zn 0.54806 0.68342 0.12603 0.0
O478 O 0.51088 0.64224 0.1045 0.0
O479 O 0.47958 0.63679 0.17128 0.0
O480 O 0.58139 0.69095 0.07285 0.0
O481 O 0.51025 0.71552 0.18215 0.0
O482 O 0.5425 0.72111 0.11721 0.0
C483 C 0.48546 0.62672 0.1285 0.0
C484 C 0.56169 0.6804 0.24736 0.0
O485 O 0.56859 0.68174 0.19733 0.0
O486 O 0.53717 0.67885 0.26173 0.0
C487 C 0.59669 0.67778 0.08086 0.0
O488 O 0.58775 0.65671 0.1184 0.0
C489 C 0.527 0.73063 0.14281 0.0
Zn490 Zn 0.29689 0.82123 0.26112 0.0
Zn491 Zn 0.28935 0.85823 0.19776 0.0
O492 O 0.32774 0.86235 0.16271 0.0
O493 O 0.33628 0.8345 0.22069 0.0
O494 O 0.27728 0.88317 0.15161 0.0
O495 O 0.2582 0.78413 0.24096 0.0
O496 O 0.25126 0.81533 0.18925 0.0
C497 C 0.34431 0.85192 0.17974 0.0
C498 C 0.30175 0.87092 0.32035 0.0
O499 O 0.30025 0.88013 0.27287 0.0
O500 O 0.29825 0.84477 0.32695 0.0
C501 C 0.29455 0.90984 0.13403 0.0
O502 O 0.32347 0.92356 0.1461 0.0
C503 C 0.24204 0.78875 0.20783 0.0
C504 C 0.33097 0.30136 0.87066 0.0
C505 C 0.34095 0.28368 0.84303 0.0
C506 C 0.3053 0.28796 0.90437 0.0
C507 C 0.28839 0.25632 0.91137 0.0
H508 H 0.34337 0.32582 0.86714 0.0
H509 H 0.29892 0.30263 0.92556 0.0
S510 S 0.3038 0.1997 0.84489 0.0
N511 N 0.33102 0.23272 0.82286 0.0
N512 N 0.28286 0.20758 0.88559 0.0
C513 C 0.29762 0.23833 0.88257 0.0
C514 C 0.32388 0.25198 0.84867 0.0
C515 C 0.71652 0.06348 0.94404 0.0
C516 C 0.69839 0.05097 0.89763 0.0
C517 C 0.72713 0.04728 0.97365 0.0
C518 C 0.72015 0.01786 0.95808 0.0
H519 H 0.72334 0.08638 0.95684 0.0
H520 H 0.74163 0.05833 0.00831 0.0
S521 S 0.6725 0.97425 0.84066 0.0
N522 N 0.67283 0.00679 0.83852 0.0
N523 N 0.69288 0.97633 0.89433 0.0
C524 C 0.7009 0.00446 0.91317 0.0
C525 C 0.69 0.02101 0.88291 0.0
C526 C 0.91693 0.64952 0.89239 0.0
C527 C 0.94724 0.67037 0.8794 0.0
C528 C 0.90101 0.62175 0.86552 0.0
C529 C 0.91452 0.61332 0.82416 0.0
H530 H 0.90522 0.65445 0.92412 0.0
H531 H 0.87784 0.60667 0.87788 0.0
S532 S 0.99295 0.66027 0.77216 0.0
N533 N 0.99001 0.68109 0.82088 0.0
N534 N 0.95993 0.62866 0.76996 0.0
C535 C 0.94474 0.63404 0.80995 0.0
C536 C 0.9611 0.66255 0.83762 0.0
C537 C 0.33285 0.35631 0.56347 0.0
C538 C 0.31825 0.37004 0.59005 0.0
C539 C 0.31657 0.33029 0.53124 0.0
C540 C 0.28503 0.31675 0.52526 0.0
H541 H 0.35706 0.36573 0.56743 0.0
H542 H 0.32876 0.32058 0.51136 0.0
S543 S 0.23601 0.34383 0.58644 0.0
N544 N 0.27036 0.36813 0.60794 0.0
N545 N 0.23986 0.3193 0.54816 0.0
C546 C 0.27017 0.33025 0.55174 0.0
C547 C 0.28676 0.35689 0.58386 0.0
C548 C 0.67927 0.98494 0.62435 0.0
C549 C 0.66328 0.95309 0.6272 0.0
C550 C 0.70855 1.00066 0.60223 0.0
C551 C 0.72318 0.98514 0.58327 0.0
H552 H 0.66914 0.99787 0.63938 0.0
H553 H 0.71995 0.02516 0.60064 0.0
S554 S 0.69098 0.90175 0.58036 0.0
N555 N 0.66416 0.9066 0.60785 0.0
N556 N 0.71913 0.9361 0.56732 0.0
C557 C 0.70738 0.95332 0.58559 0.0
C558 C 0.67745 0.93731 0.60719 0.0
C559 C 0.08025 0.74162 0.5371 0.0
C560 C 0.04929 0.72874 0.52498 0.0
C561 C 0.09031 0.73009 0.57867 0.0
C562 C 0.06988 0.70527 0.61048 0.0
H563 H 0.09703 0.76098 0.51445 0.0
H564 H 0.11439 0.74125 0.58653 0.0
S565 S 0.98636 0.66248 0.59439 0.0
N566 N 0.99819 0.68907 0.54729 0.0
N567 N 0.01709 0.66749 0.6258 0.0
C568 C 0.03883 0.69174 0.59828 0.0
C569 C 0.02856 0.70342 0.5555 0.0
C570 C 0.63229 0.70411 0.00383 0.0
C571 C 0.62657 0.68944 0.05443 0.0
C572 C 0.66124 0.71808 0.98058 0.0
C573 C 0.6857 0.71813 0.00719 0.0
H574 H 0.61434 0.7052 0.98234 0.0
H575 H 0.66453 0.72935 0.94174 0.0
S576 S 0.68302 0.68441 0.14235 0.0
N577 N 0.64791 0.67645 0.1313 0.0
N578 N 0.70232 0.70281 0.08773 0.0
C579 C 0.6802 0.70317 0.05756 0.0
C580 C 0.65065 0.68881 0.08115 0.0
C581 C 0.25031 0.90999 0.09072 0.0
C582 C 0.28173 0.92475 0.0997 0.0
C583 C 0.23729 0.92269 0.05754 0.0
C584 C 0.25506 0.95073 0.0315 0.0
H585 H 0.23545 0.88822 0.1092 0.0
H586 H 0.21302 0.91006 0.0518 0.0
S587 S 0.33845 0.99936 0.04289 0.0
N588 N 0.33033 0.96954 0.08083 0.0
N589 N 0.30585 0.9934 0.01826 0.0
C590 C 0.28651 0.96607 0.04069 0.0
C591 C 0.29982 0.95311 0.07478 0.0
C592 C 0.02366 0.34916 0.15364 0.0
C593 C 0.04929 0.35737 0.18605 0.0
C594 C 0.00947 0.32158 0.12527 0.0
C595 C 0.02028 0.30103 0.12819 0.0
H596 H 0.01544 0.36483 0.14762 0.0
H597 H 0.99084 0.31715 0.09865 0.0
S598 S 0.08353 0.30944 0.21504 0.0
N599 N 0.08262 0.34105 0.22497 0.0
N600 N 0.05595 0.28922 0.17177 0.0
C601 C 0.04453 0.30797 0.16369 0.0
C602 C 0.05903 0.33611 0.19254 0.0
C603 C 0.7554 0.69391 0.32311 0.0
C604 C 0.72387 0.68058 0.31735 0.0
C605 C 0.77209 0.72024 0.35401 0.0
C606 C 0.75796 0.73423 0.38123 0.0
H607 H 0.76743 0.68391 0.30363 0.0
H608 H 0.79622 0.72914 0.35774 0.0
S609 S 0.67601 0.70917 0.37758 0.0
N610 N 0.67921 0.68404 0.33978 0.0
N611 N 0.71055 0.73335 0.39872 0.0
C612 C 0.72649 0.72152 0.37503 0.0
C613 C 0.70947 0.69479 0.34289 0.0
C614 C 0.3399 0.04423 0.41428 0.0
C615 C 0.32305 0.05856 0.4263 0.0
C616 C 0.3685 0.06004 0.38962 0.0
C617 C 0.38162 0.09094 0.37633 0.0
H618 H 0.33096 0.02053 0.42389 0.0
H619 H 0.38048 0.0479 0.38131 0.0
S620 S 0.34691 0.13919 0.39916 0.0
N621 N 0.32167 0.10563 0.42272 0.0
N622 N 0.37529 0.13527 0.37679 0.0
C623 C 0.365 0.10558 0.38807 0.0
C624 C 0.33579 0.08944 0.41287 0.0
C625 C 0.9343 0.29995 0.44323 0.0
C626 C 0.94843 0.32096 0.40089 0.0
C627 C 0.951 0.29285 0.47928 0.0
C628 C 0.98265 0.30653 0.47494 0.0
H629 H 0.90993 0.2881 0.44781 0.0
H630 H 0.93878 0.276 0.51032 0.0
S631 S 0.03113 0.36483 0.3738 0.0
N632 N 0.9964 0.35678 0.35857 0.0
N633 N 0.02779 0.34347 0.42676 0.0
C634 C 0.99735 0.32862 0.43439 0.0
C635 C 0.98026 0.33582 0.39731 0.0
C636 C 0.98012 0.63605 0.23302 0.0
C637 C 1.00157 0.62641 0.2362 0.0
C638 C 0.9523 0.62037 0.26032 0.0
C639 C 0.94494 0.59448 0.29165 0.0
H640 H 0.98404 0.65475 0.20686 0.0
H641 H 0.93584 0.62759 0.25416 0.0
S642 S 0.99574 0.56387 0.32233 0.0
N643 N 0.01538 0.59223 0.28014 0.0
N644 N 0.96311 0.56276 0.33094 0.0
C645 C 0.9672 0.58624 0.29892 0.0
C646 C 0.99552 0.60222 0.27136 0.0
C647 C 0.40705 0.40772 0.2441 0.0
C648 C 0.39772 0.3776 0.25829 0.0
C649 C 0.38752 0.4153 0.21771 0.0
C650 C 0.35793 0.39301 0.20348 0.0
H651 H 0.42966 0.42578 0.25372 0.0
H652 H 0.39614 0.43881 0.20697 0.0
S653 S 0.32214 0.31083 0.23263 0.0
N654 N 0.35662 0.32537 0.25775 0.0
N655 N 0.31993 0.33955 0.20678 0.0
C656 C 0.34809 0.3628 0.21801 0.0
C657 C 0.36795 0.35512 0.24575 0.0
C658 C 0.62173 0.97896 0.23161 0.0
C659 C 0.59099 0.96667 0.21816 0.0
C660 C 0.6363 0.00376 0.26712 0.0
C661 C 0.62086 0.01758 0.29004 0.0
H662 H 0.63473 0.96938 0.21454 0.0
H663 H 0.65998 0.01234 0.27616 0.0
S664 S 0.54001 0.99401 0.26846 0.0
N665 N 0.54547 0.97012 0.23126 0.0
N666 N 0.57287 0.01677 0.29737 0.0
C667 C 0.59008 0.00547 0.2771 0.0
C668 C 0.57514 0.98001 0.24144 0.0
C669 C 0.36934 0.99305 0.73451 0.0
C670 C 0.38501 0.97741 0.72321 0.0
C671 C 0.38343 0.02112 0.76146 0.0
C672 C 0.41383 0.03482 0.77817 0.0
H673 H 0.34601 0.98371 0.72204 0.0
H674 H 0.3704 0.03229 0.76861 0.0
S675 S 0.46475 0.00276 0.76042 0.0
N676 N 0.43255 0.97745 0.73245 0.0
N677 N 0.45893 0.02999 0.78282 0.0
C678 C 0.42966 0.01919 0.76791 0.0
C679 C 0.4153 0.9906 0.74057 0.0
C680 C 0.06092 0.38519 0.79215 0.0
C681 C 0.06821 0.4095 0.7566 0.0
C682 C 0.03176 0.36816 0.81431 0.0
C683 C 0.00862 0.37457 0.80152 0.0
H684 H 0.07811 0.3799 0.80458 0.0
H685 H 0.0277 0.35049 0.84316 0.0
S686 S 0.01496 0.43331 0.70455 0.0
N687 N 0.0491 0.43731 0.70559 0.0
N688 N 0.99443 0.40526 0.74675 0.0
C689 C 0.01522 0.39781 0.76373 0.0
C690 C 0.04495 0.41527 0.74145 0.0
C691 C 0.62052 0.58645 0.69603 0.0
C692 C 0.64595 0.59998 0.73034 0.0
C693 C 0.61316 0.60391 0.66243 0.0
C694 C 0.63102 0.6357 0.66116 0.0
H695 H 0.6053 0.56219 0.69661 0.0
H696 H 0.59275 0.59229 0.63825 0.0
S697 S 0.70207 0.68217 0.73803 0.0
N698 N 0.69064 0.64706 0.75733 0.0
N699 N 0.67679 0.67991 0.69362 0.0
C700 C 0.65758 0.6495 0.69256 0.0
C701 C 0.66504 0.63165 0.72726 0.0
C702 C 0.18632 0.06327 0.93318 0.0
C703 C 0.18324 0.03974 0.96738 0.0
C704 C 0.19124 0.09087 0.95467 0.0
C705 C 0.1925 0.09567 0.0112 0.0
H706 H 0.18492 0.06033 0.88935 0.0
H707 H 0.19303 0.10818 0.92687 0.0
S708 S 0.18697 0.04182 0.11819 0.0
N709 N 0.18315 0.02357 0.0604 0.0
N710 N 0.19144 0.07513 0.10102 0.0
C711 C 0.18994 0.07254 0.04585 0.0
C712 C 0.1856 0.04467 0.02389 0.0
C713 C 0.92569 0.13487 0.07325 0.0
C714 C 0.92793 0.1462 0.02037 0.0
C715 C 0.9007 0.10711 0.08866 0.0
C716 C 0.87686 0.09009 0.05204 0.0
H717 H 0.94409 0.14663 0.10187 0.0
H718 H 0.90039 0.0986 0.12918 0.0
S719 S 0.87075 0.11197 0.9106 0.0
N720 N 0.9035 0.13969 0.93264 0.0
N721 N 0.85622 0.08799 0.96184 0.0
C722 C 0.87809 0.10222 0.00011 0.0
C723 C 0.90373 0.13016 0.9842 0.0
C724 C 0.84464 0.77291 0.00945 0.0
C725 C 0.83845 0.76966 0.95339 0.0
C726 C 0.86705 0.76766 0.03127 0.0
C727 C 0.8835 0.75834 -0.00207 0.0
H728 H 0.83345 0.78131 0.03599 0.0
H729 H 0.87224 0.77194 0.07425 0.0
S730 S 0.87259 0.74288 0.84936 0.0
N731 N 0.84839 0.75419 0.86574 0.0
N732 N 0.88977 0.74345 0.90662 0.0
C733 C 0.87582 0.75293 0.94241 0.0
C734 C 0.8535 0.75886 0.92016 0.0
C735 C 0.12761 0.24758 0.52883 0.0
C736 C 0.12432 0.24171 0.47255 0.0
C737 C 0.10542 0.24985 0.55874 0.0
C738 C 0.07949 0.24715 0.53332 0.0
H739 H 0.1466 0.24871 0.55058 0.0
H740 H 0.10807 0.25273 0.6025 0.0
S741 S 0.06208 0.23576 0.38582 0.0
N742 N 0.0944 0.2359 0.39167 0.0
N743 N 0.05306 0.24104 0.44797 0.0
C744 C 0.07696 0.2435 0.47653 0.0
C745 C 0.09926 0.24051 0.44613 0.0
C746 C 0.82014 0.89011 0.49015 0.0
C747 C 0.84835 0.89184 0.49651 0.0
C748 C 0.81788 0.91648 0.48786 0.0
C749 C 0.84384 0.9454 0.49029 0.0
H750 H 0.79964 0.86826 0.48845 0.0
H751 H 0.79574 0.91424 0.4832 0.0
S752 S 0.92295 0.96204 0.50548 0.0
N753 N 0.90266 0.92468 0.50528 0.0
N754 N 0.89855 0.97415 0.49855 0.0
C755 C 0.87217 0.94736 0.49562 0.0
C756 C 0.87438 0.92059 0.4994 0.0
C757 C 0.14098 0.9122 0.37072 0.0
C758 C 0.12664 0.88547 0.40219 0.0
C759 C 0.16117 0.94031 0.39436 0.0
C760 C 0.1673 0.94267 0.45039 0.0
H761 H 0.13552 0.91167 0.32798 0.0
H762 H 0.17044 0.9605 0.36941 0.0
S763 S 0.13948 0.87954 0.54942 0.0
N764 N 0.12318 0.86313 0.4914 0.0
N765 N 0.16045 0.91597 0.53561 0.0
C766 C 0.15487 0.91603 0.4815 0.0
C767 C 0.13476 0.8874 0.45744 0.0
C768 C 0.82043 0.9324 0.97176 0.0
C769 C 0.79461 0.93258 -0.00889 0.0
C770 C 0.81836 0.90671 0.94724 0.0
C771 C 0.79041 0.87978 0.94179 0.0
H772 H 0.84264 0.95218 0.97671 0.0
H773 H 0.83916 0.90779 0.93408 0.0
S774 S 0.71566 0.86907 0.98323 0.0
N775 N 0.73996 0.90436 0.00093 0.0
N776 N 0.73595 0.85543 0.95538 0.0
C777 C 0.76416 0.87987 0.9595 0.0
C778 C 0.76628 0.90645 0.98386 0.0
C779 C 0.09044 0.87122 -0.01009 0.0
C780 C 0.09406 0.87865 0.93429 0.0
C781 C 0.06405 0.84598 0.00928 0.0
C782 C 0.04067 0.8268 0.97358 0.0
H783 H 0.10752 0.88574 0.01901 0.0
H784 H 0.06179 0.84164 0.0527 0.0
S785 S 0.04035 0.83493 0.82362 0.0
N786 N 0.07283 0.86405 0.84334 0.0
N787 N 0.02365 0.816 0.87962 0.0
C788 C 0.04466 0.83314 0.91756 0.0
C789 C 0.07124 0.85925 0.89796 0.0
C790 C 0.12437 0.19682 0.96812 0.0
C791 C 0.13408 0.19791 0.02195 0.0
C792 C 0.1005 0.20208 0.95629 0.0
C793 C 0.08587 0.20924 -0.0023 0.0
H794 H 0.13458 0.19086 0.93513 0.0
H795 H 0.09324 0.20015 0.91433 0.0
S796 S 0.10518 0.21799 0.14479 0.0
N797 N 0.12881 0.20862 0.11667 0.0
N798 N 0.08437 0.21906 0.09441 0.0
C799 C 0.09639 0.21178 0.05143 0.0
C800 C 0.12034 0.20592 0.06356 0.0
C801 C 0.96713 0.80055 0.47554 0.0
C802 C 0.97085 0.80013 0.41888 0.0
C803 C 0.94244 0.80175 0.49784 0.0
C804 C 0.92016 0.802 0.46442 0.0
H805 H 0.98396 0.80102 0.50296 0.0
H806 H 0.94105 0.80289 0.54175 0.0
S807 S 0.91794 0.79832 0.31343 0.0
N808 N 0.94925 0.79818 0.3297 0.0
N809 N 0.90254 0.7999 0.37171 0.0
C810 C 0.92286 0.80018 0.40771 0.0
C811 C 0.9483 0.79944 0.38493 0.0
C812 C 0.16923 0.12023 0.4674 0.0
C813 C 0.19471 0.14939 0.46444 0.0
C814 C 0.17201 0.09507 0.48124 0.0
C815 C 0.20046 0.09789 0.49128 0.0
H816 H 0.14689 0.11682 0.45915 0.0
H817 H 0.15165 0.0731 0.48324 0.0
S818 S 0.27435 0.16925 0.48783 0.0
N819 N 0.24939 0.17976 0.47274 0.0
N820 N 0.25469 0.13225 0.49731 0.0
C821 C 0.2262 0.1269 0.48809 0.0
C822 C 0.22329 0.1527 0.47516 0.0
C823 C 0.91463 0.15429 0.54618 0.0
C824 C 0.92687 0.15565 0.5981 0.0
C825 C 0.89219 0.1268 0.52446 0.0
C826 C 0.88056 0.09975 0.55422 0.0
H827 H 0.92378 0.17418 0.52048 0.0
H828 H 0.88494 0.12644 0.48286 0.0
S829 S 0.90131 0.09154 0.6949 0.0
N830 N 0.92321 0.1279 0.68108 0.0
N831 N 0.88041 0.07624 0.64005 0.0
C832 C 0.89059 0.10105 0.60777 0.0
C833 C 0.91393 0.12903 0.62976 0.0
C834 C 0.86735 0.42238 0.30667 0.0
C835 C 0.84325 0.42412 0.28274 0.0
C836 C 0.87082 0.39693 0.2984 0.0
C837 C 0.85067 0.37264 0.26504 0.0
H838 H 0.88284 0.44015 0.33381 0.0
H839 H 0.88923 0.39616 0.31875 0.0
S840 S 0.78531 0.36775 0.18953 0.0
N841 N 0.79996 0.40039 0.22223 0.0
N842 N 0.80665 0.35304 0.20565 0.0
C843 C 0.82726 0.37489 0.23906 0.0
C844 C 0.82351 0.40048 0.2482 0.0
C845 C 0.61728 0.51513 0.32156 0.0
C846 C 0.61553 0.52124 0.26633 0.0
C847 C 0.59265 0.49103 0.34815 0.0
C848 C 0.56517 0.47243 0.32076 0.0
H849 H 0.63827 0.52809 0.34369 0.0
H850 H 0.5955 0.48648 0.39012 0.0
S851 S 0.54801 0.48184 0.17748 0.0
N852 N 0.58347 0.50869 0.18639 0.0
N853 N 0.5371 0.46384 0.23622 0.0
C854 C 0.56264 0.47961 0.26636 0.0
C855 C 0.58783 0.50386 0.23919 0.0
C856 C 0.56523 0.16901 0.40945 0.0
C857 C 0.53976 0.14944 0.37853 0.0
C858 C 0.58518 0.15981 0.42851 0.0
C859 C 0.58092 0.13091 0.41604 0.0
H860 H 0.57045 0.19209 0.41707 0.0
H861 H 0.60503 0.1762 0.45059 0.0
S862 S 0.51625 0.07039 0.33955 0.0
N863 N 0.50991 0.09918 0.33941 0.0
N864 N 0.54795 0.08197 0.37398 0.0
C865 C 0.5547 0.11058 0.38723 0.0
C866 C 0.53396 0.11982 0.36884 0.0
C867 C 0.74737 0.52691 0.83245 0.0
C868 C 0.74938 0.50209 0.85227 0.0
C869 C 0.72209 0.53004 0.84388 0.0
C870 C 0.69821 0.50887 0.87662 0.0
H871 H 0.76473 0.54324 0.80569 0.0
H872 H 0.72105 0.54897 0.82624 0.0
S873 S 0.69408 0.44139 0.94258 0.0
N874 N 0.72631 0.45694 0.90855 0.0
N875 N 0.67925 0.46323 0.93153 0.0
C876 C 0.70075 0.48481 0.899 0.0
C877 C 0.72619 0.4813 0.88639 0.0
C878 C 0.48564 0.21293 0.73464 0.0
C879 C 0.46784 0.19109 0.77338 0.0
C880 C 0.47715 0.23318 0.71425 0.0
C881 C 0.45088 0.23299 0.733 0.0
H882 H 0.5071 0.21535 0.72196 0.0
H883 H 0.49241 0.25028 0.68592 0.0
S884 S 0.39513 0.17804 0.83107 0.0
N885 N 0.42158 0.16841 0.82669 0.0
N886 N 0.4057 0.20703 0.7894 0.0
C887 C 0.43189 0.20996 0.76947 0.0
C888 C 0.44037 0.18888 0.78947 0.0
C889 C 0.796 0.22 0.86436 0.0
C890 C 0.79127 0.21596 0.80788 0.0
C891 C 0.82041 0.24644 0.88573 0.0
C892 C 0.8414 0.26957 0.85146 0.0
H893 H 0.77994 0.20332 0.89241 0.0
H894 H 0.82246 0.24905 0.92959 0.0
S895 S 0.84098 0.26848 0.70043 0.0
N896 N 0.81078 0.23628 0.71787 0.0
N897 N 0.85705 0.28564 0.75814 0.0
C898 C 0.83795 0.26502 0.79487 0.0
C899 C 0.81275 0.23832 0.77307 0.0
C900 C 0.48673 0.26375 0.3645 0.0
C901 C 0.49063 0.25717 0.31047 0.0
C902 C 0.4876 0.29102 0.37775 0.0
C903 C 0.49145 0.31217 0.33723 0.0
H904 H 0.48401 0.24823 0.39695 0.0
H905 H 0.48516 0.29554 0.42006 0.0
S906 S 0.50089 0.30466 0.18926 0.0
N907 N 0.49779 0.27352 0.21606 0.0
N908 N 0.49813 0.32413 0.24069 0.0
C909 C 0.49432 0.30532 0.28285 0.0
C910 C 0.49428 0.27799 0.26956 0.0
C911 C 0.76021 0.19628 0.28482 0.0
C912 C 0.78561 0.21735 0.31497 0.0
C913 C 0.73421 0.17359 0.31063 0.0
C914 C 0.73238 0.1712 0.36766 0.0
H915 H 0.76 0.1978 0.24087 0.0
H916 H 0.71496 0.15864 0.28567 0.0
S917 S 0.79373 0.21823 0.46532 0.0
N918 N 0.80812 0.23244 0.40503 0.0
N919 N 0.75925 0.18998 0.45345 0.0
C920 C 0.75814 0.19107 0.39824 0.0
C921 C 0.78473 0.21403 0.37192 0.0
C922 C 0.80009 0.56512 0.26636 0.0
C923 C 0.80134 0.54169 0.2383 0.0
C924 C 0.78203 0.57677 0.24717 0.0
C925 C 0.76477 0.56529 0.19933 0.0
H926 H 0.81093 0.57257 0.30571 0.0
H927 H 0.77976 0.59306 0.27223 0.0
S928 S 0.76613 0.50852 0.10554 0.0
N929 N 0.78782 0.5106 0.15706 0.0
N930 N 0.75476 0.533 0.11949 0.0
C931 C 0.76877 0.54427 0.16798 0.0
C932 C 0.78678 0.53224 0.18798 0.0
C933 C 0.60853 0.13628 0.76756 0.0
C934 C 0.63095 0.14161 0.80635 0.0
C935 C 0.58222 0.13693 0.78221 0.0
C936 C 0.57794 0.14389 0.83574 0.0
H937 H 0.61135 0.13158 0.72555 0.0
H938 H 0.56563 0.13296 0.75107 0.0
S939 S 0.62946 0.15896 0.95269 0.0
N940 N 0.64656 0.15294 0.90092 0.0
N941 N 0.59777 0.15541 0.92796 0.0
C942 C 0.60003 0.14899 0.87496 0.0
C943 C 0.62637 0.1475 0.86041 0.0
C944 C 0.87589 0.44116 0.80131 0.0
C945 C 0.86919 0.45872 0.83689 0.0
C946 C 0.88897 0.42445 0.82056 0.0
C947 C 0.89488 0.42409 0.87629 0.0
H948 H 0.86964 0.43921 0.75872 0.0
H949 H 0.89207 0.40979 0.79241 0.0
S950 S 0.88431 0.46872 0.98498 0.0
N951 N 0.87219 0.47726 0.92908 0.0
N952 N 0.89566 0.44483 0.96599 0.0
C953 C 0.89004 0.44307 0.91165 0.0
C954 C 0.87744 0.46068 0.89174 0.0
C955 C 0.5411 0.43683 0.7797 0.0
C956 C 0.5425 0.44013 0.83666 0.0
C957 C 0.51899 0.41019 0.75483 0.0
C958 C 0.4971 0.3858 0.78577 0.0
H959 H 0.55793 0.45447 0.754 0.0
H960 H 0.51944 0.40857 0.71087 0.0
S961 S 0.48873 0.38423 0.9361 0.0
N962 N 0.51856 0.41761 0.92326 0.0
N963 N 0.47681 0.36761 0.87631 0.0
C964 C 0.49721 0.38937 0.8426 0.0
C965 C 0.51996 0.41647 0.86808 0.0
C966 C 0.56869 0.73916 0.68346 0.0
C967 C 0.5697 0.73762 0.62649 0.0
C968 C 0.57082 0.76482 0.70917 0.0
C969 C 0.57468 0.78997 0.67877 0.0
H970 H 0.56432 0.71975 0.70802 0.0
H971 H 0.56828 0.76449 0.75303 0.0
S972 S 0.58253 0.79813 0.52855 0.0
N973 N 0.57727 0.76395 0.54061 0.0
N974 N 0.58223 0.81252 0.58874 0.0
C975 C 0.57799 0.78942 0.62196 0.0
C976 C 0.57518 0.7631 0.59586 0.0
C977 C 0.2267 0.78229 0.67868 0.0
C978 C 0.22329 0.78005 0.73561 0.0
C979 C 0.25462 0.80192 0.65469 0.0
C980 C 0.28017 0.82061 0.6865 0.0
H981 H 0.20807 0.76766 0.65223 0.0
H982 H 0.25635 0.80199 0.61068 0.0
S983 S 0.28261 0.82609 0.83712 0.0
N984 N 0.24739 0.79995 0.82328 0.0
N985 N 0.29984 0.83754 0.77767 0.0
C986 C 0.27675 0.8201 0.74331 0.0
C987 C 0.24834 0.79962 0.76799 0.0
C988 C 0.28104 0.49866 0.78278 0.0
C989 C 0.27857 0.4721 0.76005 0.0
C990 C 0.25769 0.50542 0.77744 0.0
C991 C 0.23063 0.48559 0.75038 0.0
H992 H 0.30188 0.51532 0.80198 0.0
H993 H 0.2615 0.52714 0.79209 0.0
S994 S 0.21096 0.41106 0.69051 0.0
N995 N 0.24559 0.42438 0.71422 0.0
N996 N 0.20148 0.43689 0.70525 0.0
C997 C 0.22681 0.45781 0.73144 0.0
C998 C 0.25087 0.45116 0.73589 0.0
C999 C 0.39805 0.86496 0.18754 0.0
C1000 C 0.37398 0.8613 0.15443 0.0
C1001 C 0.4262 0.87254 0.16518 0.0
C1002 C 0.43115 0.87605 0.10869 0.0
H1003 H 0.39506 0.86177 0.23121 0.0
H1004 H 0.44381 0.87442 0.19222 0.0
S1005 S 0.37602 0.87054 0.00455 0.0
N1006 N 0.35737 0.86344 0.06274 0.0
N1007 N 0.41012 0.87674 0.02023 0.0
C1008 C 0.40751 0.8732 0.07517 0.0
C1009 C 0.37898 0.86612 0.09817 0.0
C1010 C 0.08067 0.54537 0.18236 0.0
C1011 C 0.08359 0.55123 0.12604 0.0
C1012 C 0.08799 0.5246 0.20494 0.0
C1013 C 0.09754 0.5084 0.17187 0.0
H1014 H 0.07537 0.55879 0.20974 0.0
H1015 H 0.08834 0.52287 0.24889 0.0
S1016 S 0.10364 0.51137 0.02154 0.0
N1017 N 0.09293 0.5362 0.03713 0.0
N1018 N 0.10604 0.4967 0.07997 0.0
C1019 C 0.09751 0.51168 0.11525 0.0
C1020 C 0.09064 0.53322 0.09219 0.0
C1021 C 0.443 0.57477 0.14667 0.0
C1022 C 0.46254 0.59632 0.10867 0.0
C1023 C 0.41951 0.54649 0.13008 0.0
C1024 C 0.41413 0.5387 0.07461 0.0
H1025 H 0.44567 0.57987 0.18988 0.0
H1026 H 0.40482 0.53103 0.16108 0.0
S1027 S 0.45988 0.58639 0.95876 0.0
N1028 N 0.47608 0.60743 0.01318 0.0
N1029 N 0.43131 0.55434 0.98156 0.0
C1030 C 0.43398 0.55972 0.03607 0.0
C1031 C 0.45837 0.58847 0.05317 0.0
C1032 C 0.15255 0.62295 0.69089 0.0
C1033 C 0.14319 0.62528 0.74367 0.0
C1034 C 0.15851 0.5997 0.67725 0.0
C1035 C 0.1545 0.57741 0.71536 0.0
H1036 H 0.15671 0.64003 0.6606 0.0
H1037 H 0.16677 0.59944 0.63666 0.0
S1038 S 0.12763 0.57168 0.85753 0.0
N1039 N 0.12863 0.60244 0.83352 0.0
N1040 N 0.13872 0.55798 0.80699 0.0
C1041 C 0.14358 0.57848 0.76738 0.0
C1042 C 0.13826 0.60266 0.78179 0.0
C1043 C 0.42197 0.5353 0.60819 0.0
C1044 C 0.42719 0.52531 0.65806 0.0
C1045 C 0.44521 0.56081 0.58202 0.0
C1046 C 0.47452 0.57675 0.60439 0.0
H1047 H 0.39944 0.52442 0.59091 0.0
H1048 H 0.43995 0.56853 0.54473 0.0
S1049 S 0.50017 0.55706 0.73142 0.0
N1050 N 0.46392 0.53154 0.7269 0.0
N1051 N 0.50782 0.57888 0.67733 0.0
C1052 C 0.48033 0.56565 0.6526 0.0
C1053 C 0.45658 0.54009 0.67958 0.0
C1054 C 0.43712 0.83988 0.6538 0.0
C1055 C 0.43822 0.86757 0.64347 0.0
C1056 C 0.46296 0.83893 0.66967 0.0
C1057 C 0.49115 0.86554 0.67433 0.0
H1058 H 0.41593 0.81872 0.65074 0.0
H1059 H 0.46086 0.81711 0.67832 0.0
S1060 S 0.50655 0.94383 0.65057 0.0
N1061 N 0.46994 0.92235 0.63881 0.0
N1062 N 0.51887 0.92042 0.66693 0.0
C1063 C 0.49282 0.89338 0.66305 0.0
C1064 C 0.46626 0.89444 0.64818 0.0
C1065 C 0.21609 0.44002 0.16481 0.0
C1066 C 0.20999 0.46266 0.14706 0.0
C1067 C 0.24025 0.43762 0.14266 0.0
C1068 C 0.25864 0.45736 0.10128 0.0
H1069 H 0.20302 0.425 0.19768 0.0
H1070 H 0.24479 0.42048 0.15859 0.0
S1071 S 0.24993 0.51882 0.03786 0.0
N1072 N 0.22289 0.50398 0.08414 0.0
N1073 N 0.26771 0.49929 0.04157 0.0
C1074 C 0.2517 0.47919 0.08163 0.0
C1075 C 0.22753 0.48188 0.10478 0.0
C1076 C 0.52071 0.80154 0.15492 0.0
C1077 C 0.52517 0.81238 0.10126 0.0
C1078 C 0.52189 0.77539 0.16785 0.0
C1079 C 0.52825 0.75942 0.12786 0.0
H1080 H 0.51522 0.81273 0.18688 0.0
H1081 H 0.51752 0.76748 0.20959 0.0
S1082 S 0.54453 0.78026 0.9821 0.0
N1083 N 0.53794 0.80632 0.00829 0.0
N1084 N 0.54088 0.7575 0.03294 0.0
C1085 C 0.53412 0.77082 0.07448 0.0
C1086 C 0.53235 0.79717 0.06108 0.0
C1087 C 0.17994 0.73395 0.11363 0.0
C1088 C 0.16103 0.71009 0.14872 0.0
C1089 C 0.20539 0.76007 0.13349 0.0
C1090 C 0.21326 0.76282 0.18886 0.0
H1091 H 0.17511 0.73237 0.07042 0.0
H1092 H 0.21962 0.77769 0.10498 0.0
S1093 S 0.17076 0.70725 0.29779 0.0
N1094 N 0.15124 0.69149 0.24181 0.0
N1095 N 0.19968 0.74005 0.2788 0.0
C1096 C 0.19431 0.73935 0.22448 0.0
C1097 C 0.168 0.71313 0.20451 0.0
C1098 C 0.26333 0.23197 0.22157 0.0
C1099 C 0.25196 0.23751 0.17357 0.0
C1100 C 0.25833 0.24157 0.27208 0.0
C1101 C 0.24127 0.25628 0.27551 0.0
H1102 H 0.27201 0.21641 0.22098 0.0
H1103 H 0.26352 0.23318 0.30864 0.0
S1104 S 0.21521 0.2841 0.16063 0.0
N1105 N 0.23048 0.26563 0.13148 0.0
N1106 N 0.21963 0.28224 0.22688 0.0
C1107 C 0.23475 0.26658 0.22744 0.0
C1108 C 0.24069 0.25765 0.17598 0.0
C1109 C 0.77606 0.02669 0.25018 0.0
C1110 C 0.76492 0.99716 0.23007 0.0
C1111 C 0.78292 0.03296 0.30553 0.0
C1112 C 0.77764 0.00965 0.34198 0.0
H1113 H 0.78392 0.04559 0.22225 0.0
H1114 H 0.79563 0.05639 0.31856 0.0
S1115 S 0.74071 0.92774 0.31121 0.0
N1116 N 0.7433 0.9439 0.25167 0.0
N1117 N 0.75466 0.95549 0.35646 0.0
C1118 C 0.76154 0.97957 0.32377 0.0
C1119 C 0.75543 0.9733 0.26728 0.0
C1120 C 0.03764 0.74314 0.19347 0.0
C1121 C 0.02615 0.73978 0.2467 0.0
C1122 C 0.01802 0.73244 0.14867 0.0
C1123 C 0.9866 0.71901 0.15629 0.0
H1124 H 0.06156 0.75798 0.18597 0.0
H1125 H 0.02769 0.73947 0.10835 0.0
S1126 S 0.9457 0.69507 0.28754 0.0
N1127 N 0.98181 0.7137 0.30468 0.0
N1128 N 0.94497 0.69514 0.22026 0.0
C1129 C 0.97507 0.7102 0.2091 0.0
C1130 C 0.99501 0.72022 0.25467 0.0
C1131 C 0.75293 0.77276 0.69025 0.0
C1132 C 0.76006 0.76199 0.73726 0.0
C1133 C 0.76541 0.77203 0.63974 0.0
C1134 C 0.78593 0.76129 0.63576 0.0
H1135 H 0.74124 0.78555 0.69381 0.0
H1136 H 0.76268 0.78411 0.60596 0.0
S1137 S 0.80476 0.72301 0.7437 0.0
N1138 N 0.78263 0.73366 0.77403 0.0
N1139 N 0.80732 0.73366 0.67949 0.0
C1140 C 0.78914 0.74607 0.68036 0.0
C1141 C 0.77572 0.746 0.73129 0.0
C1142 C 0.23441 0.98111 0.67365 0.0
C1143 C 0.24555 0.01245 0.66975 0.0
C1144 C 0.22615 0.96652 0.7243 0.0
C1145 C 0.22971 0.98309 0.77221 0.0
H1146 H 0.22772 0.96724 0.63716 0.0
H1147 H 0.21333 0.94199 0.72511 0.0
S1148 S 0.26535 0.06638 0.78425 0.0
N1149 N 0.26494 0.06008 0.7181 0.0
N1150 N 0.25095 0.03287 0.81368 0.0
C1151 C 0.24574 0.01486 0.76938 0.0
C1152 C 0.25327 0.02958 0.71778 0.0
C1153 C 0.98844 0.28017 0.78239 0.0
C1154 C 0.01587 0.29086 0.75414 0.0
C1155 C 0.98736 0.27568 0.83889 0.0
C1156 C 0.01374 0.28229 0.86769 0.0
H1157 H 0.96729 0.26981 0.76015 0.0
H1158 H 0.96542 0.2621 0.85785 0.0
S1159 S 0.09198 0.32382 0.81508 0.0
N1160 N 0.07052 0.31774 0.76091 0.0
N1161 N 0.06854 0.30975 0.86732 0.0
C1162 C 0.04164 0.30008 0.84185 0.0
C1163 C 0.04271 0.30439 0.78445 0.0
C1164 C 0.79932 0.48948 0.52516 0.0
C1165 C 0.82699 0.50657 0.49764 0.0
C1166 C 0.79761 0.48991 0.58177 0.0
C1167 C 0.82342 0.50758 0.61359 0.0
H1168 H 0.77874 0.47484 0.50304 0.0
H1169 H 0.77585 0.4756 0.60079 0.0
S1170 S 0.90092 0.55896 0.56193 0.0
N1171 N 0.88059 0.54362 0.50653 0.0
N1172 N 0.87721 0.54442 0.61366 0.0
C1173 C 0.85101 0.52615 0.58685 0.0
C1174 C 0.85284 0.52562 0.52873 0.0
C1175 C 0.40936 0.34222 0.49112 0.0
C1176 C 0.43192 0.37253 0.50004 0.0
C1177 C 0.39555 0.32267 0.53524 0.0
C1178 C 0.40356 0.33322 0.58892 0.0
H1179 H 0.40584 0.33238 0.45074 0.0
H1180 H 0.38246 0.29855 0.52732 0.0
S1181 S 0.4519 0.41294 0.63216 0.0
N1182 N 0.45502 0.41385 0.56509 0.0
N1183 N 0.42773 0.37736 0.64793 0.0
C1184 C 0.42052 0.36467 0.59748 0.0
C1185 C 0.43541 0.38438 0.55281 0.0
C1186 C 0.70759 0.08055 0.59966 0.0
C1187 C 0.69205 0.07681 0.64895 0.0
C1188 C 0.69165 0.07094 0.55047 0.0
C1189 C 0.66016 0.05903 0.54995 0.0
H1190 H 0.73192 0.09514 0.59808 0.0
H1191 H 0.70444 0.07878 0.5129 0.0
S1192 S 0.60925 0.03237 0.66932 0.0
N1193 N 0.64364 0.04999 0.69553 0.0
N1194 N 0.61383 0.03395 0.60252 0.0
C1195 C 0.64448 0.04856 0.59924 0.0
C1196 C 0.66061 0.05728 0.64939 0.0
C1197 C 0.48137 0.12086 0.11345 0.0
C1198 C 0.46607 0.13467 0.13679 0.0
C1199 C 0.48082 0.11626 0.05711 0.0
C1200 C 0.46546 0.12595 0.02263 0.0
H1201 H 0.49595 0.116 0.13832 0.0
H1202 H 0.49522 0.10828 0.04007 0.0
S1203 S 0.41862 0.1594 0.06439 0.0
N1204 N 0.43198 0.15429 0.12219 0.0
N1205 N 0.43186 0.14666 0.01575 0.0
C1206 C 0.44774 0.13705 0.04592 0.0
C1207 C 0.44779 0.14115 0.10338 0.0
C1208 C 0.92179 0.29146 0.09751 0.0
C1209 C 0.92494 0.30836 0.14489 0.0
C1210 C 0.93388 0.30612 0.04789 0.0
C1211 C 0.94797 0.33785 0.04461 0.0
H1212 H 0.90623 0.26725 0.09704 0.0
H1213 H 0.9268 0.2926 0.011 0.0
S1214 S 0.97249 0.39147 0.16024 0.0
N1215 N 0.95222 0.35777 0.18844 0.0
N1216 N 0.97322 0.38522 0.09433 0.0
C1217 C 0.95717 0.35447 0.09323 0.0
C1218 C 0.94572 0.3396 0.14399 0.0
C1219 C 0.68075 0.62846 0.01616 0.0
C1220 C 0.6697 0.62163 0.0698 0.0
C1221 C 0.66237 0.61134 0.97262 0.0
C1222 C 0.63271 0.58767 0.98258 0.0
H1223 H 0.70487 0.64216 0.00911 0.0
H1224 H 0.67305 0.61311 0.93355 0.0
S1225 S 0.58977 0.5744 0.11088 0.0
N1226 N 0.62474 0.60045 0.12648 0.0
N1227 N 0.59021 0.5673 0.04525 0.0
C1228 C 0.61961 0.58708 0.03317 0.0
C1229 C 0.63822 0.60512 0.07687 0.0
C1230 C 0.57704 0.94552 0.90699 0.0
C1231 C 0.57935 0.93452 0.95814 0.0
C1232 C 0.5871 0.93759 0.85993 0.0
C1233 C 0.59905 0.91805 0.86338 0.0
H1234 H 0.56312 0.95593 0.90232 0.0
H1235 H 0.58077 0.94245 0.82073 0.0
S1236 S 0.6206 0.8937 -0.01107 0.0
N1237 N 0.6035 0.91206 0.01066 0.0
N1238 N 0.62082 0.89569 0.92177 0.0
C1239 C 0.60715 0.91248 0.91465 0.0
C1240 C 0.59784 0.9214 0.96255 0.0
C1241 C 0.06166 0.68675 0.97564 0.0
C1242 C 0.04634 0.65496 0.97228 0.0
C1243 C 0.07545 0.70424 0.92918 0.0
C1244 C 0.07298 0.69021 0.87852 0.0
H1245 H 0.06831 0.6978 0.01503 0.0
H1246 H 0.09189 0.72802 0.9346 0.0
S1247 S 0.02238 0.60917 0.84618 0.0
N1248 N 0.02016 0.61134 0.91304 0.0
N1249 N 0.04495 0.64418 0.82512 0.0
C1250 C 0.05097 0.65949 0.87308 0.0
C1251 C 0.03756 0.64171 0.92054 0.0
C1252 C 0.36798 0.40268 0.94031 0.0
C1253 C 0.33762 0.39223 0.95414 0.0
C1254 C 0.3764 0.4054 0.88531 0.0
C1255 C 0.35437 0.39758 0.84454 0.0
H1256 H 0.38561 0.41473 0.97022 0.0
H1257 H 0.40013 0.4195 0.87525 0.0
S1258 S 0.27174 0.3512 0.86345 0.0
N1259 N 0.28549 0.36097 0.92573 0.0
N1260 N 0.30131 0.36521 0.82225 0.0
C1261 C 0.32416 0.37788 0.85909 0.0
C1262 C 0.31561 0.37558 0.91483 0.0
C1263 C 0.18543 0.48894 0.48198 0.0
C1264 C 0.16029 0.47962 0.5165 0.0
C1265 C 0.18187 0.48341 0.42619 0.0
C1266 C 0.15305 0.46818 0.40237 0.0
H1267 H 0.20824 0.50174 0.49774 0.0
H1268 H 0.20203 0.49234 0.40111 0.0
S1269 S 0.0797 0.43511 0.47522 0.0
N1270 N 0.10534 0.45138 0.52363 0.0
N1271 N 0.09874 0.4409 0.41774 0.0
C1272 C 0.12757 0.45647 0.43658 0.0
C1273 C 0.13118 0.46223 0.49395 0.0
C1274 C 0.59518 0.70236 0.32615 0.0
C1275 C 0.58036 0.67797 0.28989 0.0
C1276 C 0.59857 0.6972 0.38096 0.0
C1277 C 0.58656 0.66751 0.40065 0.0
H1278 H 0.60036 0.72488 0.314 0.0
H1279 H 0.60609 0.71595 0.40929 0.0
S1280 S 0.55372 0.59731 0.3185 0.0
N1281 N 0.56024 0.62427 0.27419 0.0
N1282 N 0.56582 0.61447 0.37792 0.0
C1283 C 0.57661 0.64375 0.36298 0.0
C1284 C 0.57355 0.64903 0.30706 0.0
C1285 C 0.29852 0.886 0.41453 0.0
C1286 C 0.31524 0.89205 0.3661 0.0
C1287 C 0.31304 0.89291 0.46529 0.0
C1288 C 0.34453 0.9052 0.46875 0.0
H1289 H 0.27406 0.87256 0.41343 0.0
H1290 H 0.29921 0.88462 0.50166 0.0
S1291 S 0.39859 0.9304 0.35377 0.0
N1292 N 0.36506 0.91601 0.32457 0.0
N1293 N 0.39221 0.92754 0.4201 0.0
C1294 C 0.36164 0.91489 0.42077 0.0
C1295 C 0.34694 0.90869 0.36919 0.0
loop_
_geom_bond_atom_site_label_1
_geom_bond_atom_site_label_2
_geom_bond_distance
_geom_bond_site_symmetry_2
_ccdc_geom_bond_type
Zn0 O3 2.031 . S
Zn0 O5 2.049 . S
Zn0 O10 2.067 . S
Zn1 O2 1.962 1_554 S
Zn1 O4 1.986 1_554 S
Zn1 O6 1.996 . S
Zn1 O9 1.943 . S
O2 Zn1 1.962 1_556 S
O2 C7 1.254 1_556 S
O3 Zn0 2.031 . S
O3 C7 1.269 . S
O4 Zn1 1.986 1_556 S
O4 C11 1.262 . S
O5 Zn0 2.049 . S
O5 C13 1.260 . S
O6 Zn1 1.996 . S
O6 C13 1.257 . S
C7 O2 1.254 1_554 S
C7 O3 1.269 . S
C8 O9 1.249 . S
C8 O10 1.270 . S
O9 Zn1 1.943 . S
O9 C8 1.249 . S
O10 Zn0 2.067 . S
O10 C8 1.270 . S
C11 O4 1.262 . S
C11 O12 1.232 . S
O12 C11 1.232 . S
C13 O5 1.260 . S
C13 O6 1.257 . S
Zn14 O17 2.031 1_545 S
Zn14 O19 2.049 . S
Zn14 O24 2.067 . S
Zn15 O16 1.962 1_544 S
Zn15 O18 1.986 1_554 S
Zn15 O20 1.996 . S
Zn15 O23 1.943 . S
O16 Zn15 1.962 1_566 S
O16 C21 1.254 1_556 S
O17 Zn14 2.031 1_565 S
O17 C21 1.269 . S
O18 Zn15 1.986 1_556 S
O18 C25 1.262 . S
O19 Zn14 2.049 . S
O19 C27 1.260 . S
O20 Zn15 1.996 . S
O20 C27 1.257 . S
C21 O16 1.254 1_554 S
C21 O17 1.269 . S
C22 O23 1.249 . S
C22 O24 1.270 . S
O23 Zn15 1.943 . S
O23 C22 1.249 . S
O24 Zn14 2.067 . S
O24 C22 1.270 . S
C25 O18 1.262 . S
C25 O26 1.232 . S
O26 C25 1.232 . S
C27 O19 1.260 . S
C27 O20 1.257 . S
Zn28 O31 2.031 1_655 S
Zn28 O33 2.049 . S
Zn28 O38 2.067 . S
Zn29 O30 1.962 1_654 S
Zn29 O32 1.986 1_554 S
Zn29 O34 1.996 . S
Zn29 O37 1.943 . S
O30 Zn29 1.962 1_456 S
O30 C35 1.254 1_556 S
O31 Zn28 2.031 1_455 S
O31 C35 1.269 . S
O32 Zn29 1.986 1_556 S
O32 C39 1.262 . S
O33 Zn28 2.049 . S
O33 C41 1.260 . S
O34 Zn29 1.996 . S
O34 C41 1.257 . S
C35 O30 1.254 1_554 S
C35 O31 1.269 . S
C36 O37 1.249 . S
C36 O38 1.270 . S
O37 Zn29 1.943 . S
O37 C36 1.249 . S
O38 Zn28 2.067 . S
O38 C36 1.270 . S
C39 O32 1.262 . S
C39 O40 1.232 . S
O40 C39 1.232 . S
C41 O33 1.260 . S
C41 O34 1.257 . S
Zn42 O45 2.031 . S
Zn42 O47 2.049 . S
Zn42 O52 2.067 . S
Zn43 O44 1.962 . S
Zn43 O46 1.986 . S
Zn43 O48 1.996 . S
Zn43 O51 1.943 . S
O44 Zn43 1.962 . S
O44 C49 1.254 . S
O45 Zn42 2.031 . S
O45 C49 1.269 . S
O46 Zn43 1.986 . S
O46 C53 1.262 . S
O47 Zn42 2.049 . S
O47 C55 1.260 . S
O48 Zn43 1.996 . S
O48 C55 1.257 . S
C49 O44 1.254 . S
C49 O45 1.269 . S
C50 O51 1.249 . S
C50 O52 1.270 . S
O51 Zn43 1.943 . S
O51 C50 1.249 . S
O52 Zn42 2.067 . S
O52 C50 1.270 . S
C53 O46 1.262 . S
C53 O54 1.232 . S
O54 C53 1.232 . S
C55 O47 1.260 . S
C55 O48 1.257 . S
Zn56 O59 2.031 1_565 S
Zn56 O61 2.049 . S
Zn56 O66 2.067 . S
Zn57 O58 1.962 1_565 S
Zn57 O60 1.986 . S
Zn57 O62 1.996 . S
Zn57 O65 1.943 . S
O58 Zn57 1.962 1_545 S
O58 C63 1.254 . S
O59 Zn56 2.031 1_545 S
O59 C63 1.269 . S
O60 Zn57 1.986 . S
O60 C67 1.262 . S
O61 Zn56 2.049 . S
O61 C69 1.260 . S
O62 Zn57 1.996 . S
O62 C69 1.257 . S
C63 O58 1.254 . S
C63 O59 1.269 . S
C64 O65 1.249 . S
C64 O66 1.270 . S
O65 Zn57 1.943 . S
O65 C64 1.249 . S
O66 Zn56 2.067 . S
O66 C64 1.270 . S
C67 O60 1.262 . S
C67 O68 1.232 . S
O68 C67 1.232 . S
C69 O61 1.260 . S
C69 O62 1.257 . S
Zn70 O73 2.031 1_455 S
Zn70 O75 2.049 . S
Zn70 O80 2.067 . S
Zn71 O72 1.962 1_455 S
Zn71 O74 1.986 . S
Zn71 O76 1.996 . S
Zn71 O79 1.943 . S
O72 Zn71 1.962 1_655 S
O72 C77 1.254 . S
O73 Zn70 2.031 1_655 S
O73 C77 1.269 . S
O74 Zn71 1.986 . S
O74 C81 1.262 . S
O75 Zn70 2.049 . S
O75 C83 1.260 . S
O76 Zn71 1.996 . S
O76 C83 1.257 . S
C77 O72 1.254 . S
C77 O73 1.269 . S
C78 O79 1.249 . S
C78 O80 1.270 . S
O79 Zn71 1.943 . S
O79 C78 1.249 . S
O80 Zn70 2.067 . S
O80 C78 1.270 . S
C81 O74 1.262 . S
C81 O82 1.232 . S
O82 C81 1.232 . S
C83 O75 1.260 . S
C83 O76 1.257 . S
Zn84 O87 2.031 . S
Zn84 O89 2.049 . S
Zn84 O94 2.067 . S
Zn85 O86 1.962 1_556 S
Zn85 O88 1.986 1_556 S
Zn85 O90 1.996 . S
Zn85 O93 1.943 . S
O86 Zn85 1.962 1_554 S
O86 C91 1.254 1_554 S
O87 Zn84 2.031 . S
O87 C91 1.269 . S
O88 Zn85 1.986 1_554 S
O88 C95 1.262 . S
O89 Zn84 2.049 . S
O89 C97 1.260 . S
O90 Zn85 1.996 . S
O90 C97 1.257 . S
C91 O86 1.254 1_556 S
C91 O87 1.269 . S
C92 O93 1.249 . S
C92 O94 1.270 . S
O93 Zn85 1.943 . S
O93 C92 1.249 . S
O94 Zn84 2.067 . S
O94 C92 1.270 . S
C95 O88 1.262 . S
C95 O96 1.232 . S
O96 C95 1.232 . S
C97 O89 1.260 . S
C97 O90 1.257 . S
Zn98 O101 2.031 1_565 S
Zn98 O103 2.049 . S
Zn98 O108 2.067 . S
Zn99 O100 1.962 1_566 S
Zn99 O102 1.986 1_556 S
Zn99 O104 1.996 . S
Zn99 O107 1.943 . S
O100 Zn99 1.962 1_544 S
O100 C105 1.254 1_554 S
O101 Zn98 2.031 1_545 S
O101 C105 1.269 . S
O102 Zn99 1.986 1_554 S
O102 C109 1.262 . S
O103 Zn98 2.049 . S
O103 C111 1.260 . S
O104 Zn99 1.996 . S
O104 C111 1.257 . S
C105 O100 1.254 1_556 S
C105 O101 1.269 . S
C106 O107 1.249 . S
C106 O108 1.270 . S
O107 Zn99 1.943 . S
O107 C106 1.249 . S
O108 Zn98 2.067 . S
O108 C106 1.270 . S
C109 O102 1.262 . S
C109 O110 1.232 . S
O110 C109 1.232 . S
C111 O103 1.260 . S
C111 O104 1.257 . S
Zn112 O115 2.031 1_455 S
Zn112 O117 2.049 . S
Zn112 O122 2.067 . S
Zn113 O114 1.962 1_456 S
Zn113 O116 1.986 1_556 S
Zn113 O118 1.996 . S
Zn113 O121 1.943 . S
O114 Zn113 1.962 1_654 S
O114 C119 1.254 1_554 S
O115 Zn112 2.031 1_655 S
O115 C119 1.269 . S
O116 Zn113 1.986 1_554 S
O116 C123 1.262 . S
O117 Zn112 2.049 . S
O117 C125 1.260 . S
O118 Zn113 1.996 . S
O118 C125 1.257 . S
C119 O114 1.254 1_556 S
C119 O115 1.269 . S
C120 O121 1.249 . S
C120 O122 1.270 . S
O121 Zn113 1.943 . S
O121 C120 1.249 . S
O122 Zn112 2.067 . S
O122 C120 1.270 . S
C123 O116 1.262 . S
C123 O124 1.232 . S
O124 C123 1.232 . S
C125 O117 1.260 . S
C125 O118 1.257 . S
Zn126 O129 2.031 . S
Zn126 O131 2.049 . S
Zn126 O136 2.067 . S
Zn127 O128 1.962 . S
Zn127 O130 1.986 . S
Zn127 O132 1.996 . S
Zn127 O135 1.943 . S
O128 Zn127 1.962 . S
O128 C133 1.254 . S
O129 Zn126 2.031 . S
O129 C133 1.269 . S
O130 Zn127 1.986 . S
O130 C137 1.262 . S
O131 Zn126 2.049 . S
O131 C139 1.260 . S
O132 Zn127 1.996 . S
O132 C139 1.257 . S
C133 O128 1.254 . S
C133 O129 1.269 . S
C134 O135 1.249 . S
C134 O136 1.270 . S
O135 Zn127 1.943 . S
O135 C134 1.249 . S
O136 Zn126 2.067 . S
O136 C134 1.270 . S
C137 O130 1.262 . S
C137 O138 1.232 . S
O138 C137 1.232 . S
C139 O131 1.260 . S
C139 O132 1.257 . S
Zn140 O143 2.031 1_545 S
Zn140 O145 2.049 . S
Zn140 O150 2.067 . S
Zn141 O142 1.962 1_545 S
Zn141 O144 1.986 . S
Zn141 O146 1.996 . S
Zn141 O149 1.943 . S
O142 Zn141 1.962 1_565 S
O142 C147 1.254 . S
O143 Zn140 2.031 1_565 S
O143 C147 1.269 . S
O144 Zn141 1.986 . S
O144 C151 1.262 . S
O145 Zn140 2.049 . S
O145 C153 1.260 . S
O146 Zn141 1.996 . S
O146 C153 1.257 . S
C147 O142 1.254 . S
C147 O143 1.269 . S
C148 O149 1.249 . S
C148 O150 1.270 . S
O149 Zn141 1.943 . S
O149 C148 1.249 . S
O150 Zn140 2.067 . S
O150 C148 1.270 . S
C151 O144 1.262 . S
C151 O152 1.232 . S
O152 C151 1.232 . S
C153 O145 1.260 . S
C153 O146 1.257 . S
Zn154 O157 2.031 1_655 S
Zn154 O159 2.049 . S
Zn154 O164 2.067 . S
Zn155 O156 1.962 1_655 S
Zn155 O158 1.986 . S
Zn155 O160 1.996 . S
Zn155 O163 1.943 . S
O156 Zn155 1.962 1_455 S
O156 C161 1.254 . S
O157 Zn154 2.031 1_455 S
O157 C161 1.269 . S
O158 Zn155 1.986 . S
O158 C165 1.262 . S
O159 Zn154 2.049 . S
O159 C167 1.260 . S
O160 Zn155 1.996 . S
O160 C167 1.257 . S
C161 O156 1.254 . S
C161 O157 1.269 . S
C162 O163 1.249 . S
C162 O164 1.270 . S
O163 Zn155 1.943 . S
O163 C162 1.249 . S
O164 Zn154 2.067 . S
O164 C162 1.270 . S
C165 O158 1.262 . S
C165 O166 1.232 . S
O166 C165 1.232 . S
C167 O159 1.260 . S
C167 O160 1.257 . S
Zn168 O171 2.031 . S
Zn168 O173 2.049 . S
Zn168 O178 2.067 . S
Zn169 O170 1.962 . S
Zn169 O172 1.986 . S
Zn169 O174 1.996 . S
Zn169 O177 1.943 . S
O170 Zn169 1.962 . S
O170 C175 1.254 . S
O171 Zn168 2.031 . S
O171 C175 1.269 . S
O172 Zn169 1.986 . S
O172 C179 1.262 . S
O173 Zn168 2.049 . S
O173 C181 1.260 . S
O174 Zn169 1.996 . S
O174 C181 1.257 . S
C175 O170 1.254 . S
C175 O171 1.269 . S
C176 O177 1.249 . S
C176 O178 1.270 . S
O177 Zn169 1.943 . S
O177 C176 1.249 . S
O178 Zn168 2.067 . S
O178 C176 1.270 . S
C179 O172 1.262 . S
C179 O180 1.232 . S
O180 C179 1.232 . S
C181 O173 1.260 . S
C181 O174 1.257 . S
Zn182 O185 2.031 . S
Zn182 O187 2.049 . S
Zn182 O192 2.067 . S
Zn183 O184 1.962 . S
Zn183 O186 1.986 . S
Zn183 O188 1.996 . S
Zn183 O191 1.943 . S
O184 Zn183 1.962 . S
O184 C189 1.254 . S
O185 Zn182 2.031 . S
O185 C189 1.269 . S
O186 Zn183 1.986 . S
O186 C193 1.262 . S
O187 Zn182 2.049 . S
O187 C195 1.260 . S
O188 Zn183 1.996 . S
O188 C195 1.257 . S
C189 O184 1.254 . S
C189 O185 1.269 . S
C190 O191 1.249 . S
C190 O192 1.270 . S
O191 Zn183 1.943 . S
O191 C190 1.249 . S
O192 Zn182 2.067 . S
O192 C190 1.270 . S
C193 O186 1.262 . S
C193 O194 1.232 . S
O194 C193 1.232 . S
C195 O187 1.260 . S
C195 O188 1.257 . S
Zn196 O199 2.031 . S
Zn196 O201 2.049 . S
Zn196 O206 2.067 . S
Zn197 O198 1.962 . S
Zn197 O200 1.986 . S
Zn197 O202 1.996 . S
Zn197 O205 1.943 . S
O198 Zn197 1.962 . S
O198 C203 1.254 . S
O199 Zn196 2.031 . S
O199 C203 1.269 . S
O200 Zn197 1.986 . S
O200 C207 1.262 . S
O201 Zn196 2.049 . S
O201 C209 1.260 . S
O202 Zn197 1.996 . S
O202 C209 1.257 . S
C203 O198 1.254 . S
C203 O199 1.269 . S
C204 O205 1.249 . S
C204 O206 1.270 . S
O205 Zn197 1.943 . S
O205 C204 1.249 . S
O206 Zn196 2.067 . S
O206 C204 1.270 . S
C207 O200 1.262 . S
C207 O208 1.232 . S
O208 C207 1.232 . S
C209 O201 1.260 . S
C209 O202 1.257 . S
Zn210 O213 2.031 . S
Zn210 O215 2.049 . S
Zn210 O220 2.067 . S
Zn211 O212 1.962 . S
Zn211 O214 1.986 . S
Zn211 O216 1.996 . S
Zn211 O219 1.943 . S
O212 Zn211 1.962 . S
O212 C217 1.254 . S
O213 Zn210 2.031 . S
O213 C217 1.269 . S
O214 Zn211 1.986 . S
O214 C221 1.262 . S
O215 Zn210 2.049 . S
O215 C223 1.260 . S
O216 Zn211 1.996 . S
O216 C223 1.257 . S
C217 O212 1.254 . S
C217 O213 1.269 . S
C218 O219 1.249 . S
C218 O220 1.270 . S
O219 Zn211 1.943 . S
O219 C218 1.249 . S
O220 Zn210 2.067 . S
O220 C218 1.270 . S
C221 O214 1.262 . S
C221 O222 1.232 . S
O222 C221 1.232 . S
C223 O215 1.260 . S
C223 O216 1.257 . S
Zn224 O227 2.031 . S
Zn224 O229 2.049 . S
Zn224 O234 2.067 . S
Zn225 O226 1.962 . S
Zn225 O228 1.986 . S
Zn225 O230 1.996 . S
Zn225 O233 1.943 . S
O226 Zn225 1.962 . S
O226 C231 1.254 . S
O227 Zn224 2.031 . S
O227 C231 1.269 . S
O228 Zn225 1.986 . S
O228 C235 1.262 . S
O229 Zn224 2.049 . S
O229 C237 1.260 . S
O230 Zn225 1.996 . S
O230 C237 1.257 . S
C231 O226 1.254 . S
C231 O227 1.269 . S
C232 O233 1.249 . S
C232 O234 1.270 . S
O233 Zn225 1.943 . S
O233 C232 1.249 . S
O234 Zn224 2.067 . S
O234 C232 1.270 . S
C235 O228 1.262 . S
C235 O236 1.232 . S
O236 C235 1.232 . S
C237 O229 1.260 . S
C237 O230 1.257 . S
Zn238 O241 2.031 . S
Zn238 O243 2.049 . S
Zn238 O248 2.067 . S
Zn239 O240 1.962 . S
Zn239 O242 1.986 . S
Zn239 O244 1.996 . S
Zn239 O247 1.943 . S
O240 Zn239 1.962 . S
O240 C245 1.254 . S
O241 Zn238 2.031 . S
O241 C245 1.269 . S
O242 Zn239 1.986 . S
O242 C249 1.262 . S
O243 Zn238 2.049 . S
O243 C251 1.260 . S
O244 Zn239 1.996 . S
O244 C251 1.257 . S
C245 O240 1.254 . S
C245 O241 1.269 . S
C246 O247 1.249 . S
C246 O248 1.270 . S
O247 Zn239 1.943 . S
O247 C246 1.249 . S
O248 Zn238 2.067 . S
O248 C246 1.270 . S
C249 O242 1.262 . S
C249 O250 1.232 . S
O250 C249 1.232 . S
C251 O243 1.260 . S
C251 O244 1.257 . S
Zn252 O255 2.031 . S
Zn252 O257 2.049 . S
Zn252 O262 2.067 . S
Zn253 O254 1.962 . S
Zn253 O256 1.986 . S
Zn253 O258 1.996 . S
Zn253 O261 1.943 . S
O254 Zn253 1.962 . S
O254 C259 1.254 . S
O255 Zn252 2.031 . S
O255 C259 1.269 . S
O256 Zn253 1.986 . S
O256 C263 1.262 . S
O257 Zn252 2.049 . S
O257 C265 1.260 . S
O258 Zn253 1.996 . S
O258 C265 1.257 . S
C259 O254 1.254 . S
C259 O255 1.269 . S
C260 O261 1.249 . S
C260 O262 1.270 . S
O261 Zn253 1.943 . S
O261 C260 1.249 . S
O262 Zn252 2.067 . S
O262 C260 1.270 . S
C263 O256 1.262 . S
C263 O264 1.232 . S
O264 C263 1.232 . S
C265 O257 1.260 . S
C265 O258 1.257 . S
Zn266 O269 2.031 . S
Zn266 O271 2.049 . S
Zn266 O276 2.067 . S
Zn267 O268 1.962 . S
Zn267 O270 1.986 . S
Zn267 O272 1.996 . S
Zn267 O275 1.943 . S
O268 Zn267 1.962 . S
O268 C273 1.254 . S
O269 Zn266 2.031 . S
O269 C273 1.269 . S
O270 Zn267 1.986 . S
O270 C277 1.262 . S
O271 Zn266 2.049 . S
O271 C279 1.260 . S
O272 Zn267 1.996 . S
O272 C279 1.257 . S
C273 O268 1.254 . S
C273 O269 1.269 . S
C274 O275 1.249 . S
C274 O276 1.270 . S
O275 Zn267 1.943 . S
O275 C274 1.249 . S
O276 Zn266 2.067 . S
O276 C274 1.270 . S
C277 O270 1.262 . S
C277 O278 1.232 . S
O278 C277 1.232 . S
C279 O271 1.260 . S
C279 O272 1.257 . S
Zn280 O283 2.031 . S
Zn280 O285 2.049 . S
Zn280 O290 2.067 . S
Zn281 O282 1.962 . S
Zn281 O284 1.986 . S
Zn281 O286 1.996 . S
Zn281 O289 1.943 . S
O282 Zn281 1.962 . S
O282 C287 1.254 . S
O283 Zn280 2.031 . S
O283 C287 1.269 . S
O284 Zn281 1.986 . S
O284 C291 1.262 . S
O285 Zn280 2.049 . S
O285 C293 1.260 . S
O286 Zn281 1.996 . S
O286 C293 1.257 . S
C287 O282 1.254 . S
C287 O283 1.269 . S
C288 O289 1.249 . S
C288 O290 1.270 . S
O289 Zn281 1.943 . S
O289 C288 1.249 . S
O290 Zn280 2.067 . S
O290 C288 1.270 . S
C291 O284 1.262 . S
C291 O292 1.232 . S
O292 C291 1.232 . S
C293 O285 1.260 . S
C293 O286 1.257 . S
Zn294 O297 2.031 . S
Zn294 O299 2.049 . S
Zn294 O304 2.067 . S
Zn295 O296 1.962 . S
Zn295 O298 1.986 . S
Zn295 O300 1.996 . S
Zn295 O303 1.943 . S
O296 Zn295 1.962 . S
O296 C301 1.254 . S
O297 Zn294 2.031 . S
O297 C301 1.269 . S
O298 Zn295 1.986 . S
O298 C305 1.262 . S
O299 Zn294 2.049 . S
O299 C307 1.260 . S
O300 Zn295 1.996 . S
O300 C307 1.257 . S
C301 O296 1.254 . S
C301 O297 1.269 . S
C302 O303 1.249 . S
C302 O304 1.270 . S
O303 Zn295 1.943 . S
O303 C302 1.249 . S
O304 Zn294 2.067 . S
O304 C302 1.270 . S
C305 O298 1.262 . S
C305 O306 1.232 . S
O306 C305 1.232 . S
C307 O299 1.260 . S
C307 O300 1.257 . S
Zn308 O311 2.031 . S
Zn308 O313 2.049 . S
Zn308 O318 2.067 . S
Zn309 O310 1.962 . S
Zn309 O312 1.986 . S
Zn309 O314 1.996 . S
Zn309 O317 1.943 . S
O310 Zn309 1.962 . S
O310 C315 1.254 . S
O311 Zn308 2.031 . S
O311 C315 1.269 . S
O312 Zn309 1.986 . S
O312 C319 1.262 . S
O313 Zn308 2.049 . S
O313 C321 1.260 . S
O314 Zn309 1.996 . S
O314 C321 1.257 . S
C315 O310 1.254 . S
C315 O311 1.269 . S
C316 O317 1.249 . S
C316 O318 1.270 . S
O317 Zn309 1.943 . S
O317 C316 1.249 . S
O318 Zn308 2.067 . S
O318 C316 1.270 . S
C319 O312 1.262 . S
C319 O320 1.232 . S
O320 C319 1.232 . S
C321 O313 1.260 . S
C321 O314 1.257 . S
Zn322 O325 2.031 . S
Zn322 O327 2.049 . S
Zn322 O332 2.067 . S
Zn323 O324 1.962 . S
Zn323 O326 1.986 . S
Zn323 O328 1.996 . S
Zn323 O331 1.943 . S
O324 Zn323 1.962 . S
O324 C329 1.254 . S
O325 Zn322 2.031 . S
O325 C329 1.269 . S
O326 Zn323 1.986 . S
O326 C333 1.262 . S
O327 Zn322 2.049 . S
O327 C335 1.260 . S
O328 Zn323 1.996 . S
O328 C335 1.257 . S
C329 O324 1.254 . S
C329 O325 1.269 . S
C330 O331 1.249 . S
C330 O332 1.270 . S
O331 Zn323 1.943 . S
O331 C330 1.249 . S
O332 Zn322 2.067 . S
O332 C330 1.270 . S
C333 O326 1.262 . S
C333 O334 1.232 . S
O334 C333 1.232 . S
C335 O327 1.260 . S
C335 O328 1.257 . S
Zn336 O339 2.031 . S
Zn336 O341 2.049 . S
Zn336 O346 2.067 . S
Zn337 O338 1.962 . S
Zn337 O340 1.986 . S
Zn337 O342 1.996 . S
Zn337 O345 1.943 . S
O338 Zn337 1.962 . S
O338 C343 1.254 . S
O339 Zn336 2.031 . S
O339 C343 1.269 . S
O340 Zn337 1.986 . S
O340 C347 1.262 . S
O341 Zn336 2.049 . S
O341 C349 1.260 . S
O342 Zn337 1.996 . S
O342 C349 1.257 . S
C343 O338 1.254 . S
C343 O339 1.269 . S
C344 O345 1.249 . S
C344 O346 1.270 . S
O345 Zn337 1.943 . S
O345 C344 1.249 . S
O346 Zn336 2.067 . S
O346 C344 1.270 . S
C347 O340 1.262 . S
C347 O348 1.232 . S
O348 C347 1.232 . S
C349 O341 1.260 . S
C349 O342 1.257 . S
Zn350 O353 2.031 . S
Zn350 O355 2.049 . S
Zn350 O360 2.067 . S
Zn351 O352 1.962 . S
Zn351 O354 1.986 . S
Zn351 O356 1.996 . S
Zn351 O359 1.943 . S
O352 Zn351 1.962 . S
O352 C357 1.254 . S
O353 Zn350 2.031 . S
O353 C357 1.269 . S
O354 Zn351 1.986 . S
O354 C361 1.262 . S
O355 Zn350 2.049 . S
O355 C363 1.260 . S
O356 Zn351 1.996 . S
O356 C363 1.257 . S
C357 O352 1.254 . S
C357 O353 1.269 . S
C358 O359 1.249 . S
C358 O360 1.270 . S
O359 Zn351 1.943 . S
O359 C358 1.249 . S
O360 Zn350 2.067 . S
O360 C358 1.270 . S
C361 O354 1.262 . S
C361 O362 1.232 . S
O362 C361 1.232 . S
C363 O355 1.260 . S
C363 O356 1.257 . S
Zn364 O367 2.031 . S
Zn364 O369 2.049 . S
Zn364 O374 2.067 . S
Zn365 O366 1.962 . S
Zn365 O368 1.986 . S
Zn365 O370 1.996 . S
Zn365 O373 1.943 . S
O366 Zn365 1.962 . S
O366 C371 1.254 . S
O367 Zn364 2.031 . S
O367 C371 1.269 . S
O368 Zn365 1.986 . S
O368 C375 1.262 . S
O369 Zn364 2.049 . S
O369 C377 1.260 . S
O370 Zn365 1.996 . S
O370 C377 1.257 . S
C371 O366 1.254 . S
C371 O367 1.269 . S
C372 O373 1.249 . S
C372 O374 1.270 . S
O373 Zn365 1.943 . S
O373 C372 1.249 . S
O374 Zn364 2.067 . S
O374 C372 1.270 . S
C375 O368 1.262 . S
C375 O376 1.232 . S
O376 C375 1.232 . S
C377 O369 1.260 . S
C377 O370 1.257 . S
Zn378 O381 2.031 . S
Zn378 O383 2.049 . S
Zn378 O388 2.067 . S
Zn379 O380 1.962 . S
Zn379 O382 1.986 . S
Zn379 O384 1.996 . S
Zn379 O387 1.943 . S
O380 Zn379 1.962 . S
O380 C385 1.254 . S
O381 Zn378 2.031 . S
O381 C385 1.269 . S
O382 Zn379 1.986 . S
O382 C389 1.262 . S
O383 Zn378 2.049 . S
O383 C391 1.260 . S
O384 Zn379 1.996 . S
O384 C391 1.257 . S
C385 O380 1.254 . S
C385 O381 1.269 . S
C386 O387 1.249 . S
C386 O388 1.270 . S
O387 Zn379 1.943 . S
O387 C386 1.249 . S
O388 Zn378 2.067 . S
O388 C386 1.270 . S
C389 O382 1.262 . S
C389 O390 1.232 . S
O390 C389 1.232 . S
C391 O383 1.260 . S
C391 O384 1.257 . S
Zn392 O395 2.031 . S
Zn392 O397 2.049 . S
Zn392 O402 2.067 . S
Zn393 O394 1.962 . S
Zn393 O396 1.986 . S
Zn393 O398 1.996 . S
Zn393 O401 1.943 . S
O394 Zn393 1.962 . S
O394 C399 1.254 . S
O395 Zn392 2.031 . S
O395 C399 1.269 . S
O396 Zn393 1.986 . S
O396 C403 1.262 . S
O397 Zn392 2.049 . S
O397 C405 1.260 . S
O398 Zn393 1.996 . S
O398 C405 1.257 . S
C399 O394 1.254 . S
C399 O395 1.269 . S
C400 O401 1.249 . S
C400 O402 1.270 . S
O401 Zn393 1.943 . S
O401 C400 1.249 . S
O402 Zn392 2.067 . S
O402 C400 1.270 . S
C403 O396 1.262 . S
C403 O404 1.232 . S
O404 C403 1.232 . S
C405 O397 1.260 . S
C405 O398 1.257 . S
Zn406 O409 2.031 . S
Zn406 O411 2.049 . S
Zn406 O416 2.067 . S
Zn407 O408 1.962 . S
Zn407 O410 1.986 . S
Zn407 O412 1.996 . S
Zn407 O415 1.943 . S
O408 Zn407 1.962 . S
O408 C413 1.254 . S
O409 Zn406 2.031 . S
O409 C413 1.269 . S
O410 Zn407 1.986 . S
O410 C417 1.262 . S
O411 Zn406 2.049 . S
O411 C419 1.260 . S
O412 Zn407 1.996 . S
O412 C419 1.257 . S
C413 O408 1.254 . S
C413 O409 1.269 . S
C414 O415 1.249 . S
C414 O416 1.270 . S
O415 Zn407 1.943 . S
O415 C414 1.249 . S
O416 Zn406 2.067 . S
O416 C414 1.270 . S
C417 O410 1.262 . S
C417 O418 1.232 . S
O418 C417 1.232 . S
C419 O411 1.260 . S
C419 O412 1.257 . S
Zn420 O423 2.031 . S
Zn420 O425 2.049 . S
Zn420 O430 2.067 . S
Zn421 O422 1.962 . S
Zn421 O424 1.986 . S
Zn421 O426 1.996 . S
Zn421 O429 1.943 . S
O422 Zn421 1.962 . S
O422 C427 1.254 . S
O423 Zn420 2.031 . S
O423 C427 1.269 . S
O424 Zn421 1.986 . S
O424 C431 1.262 . S
O425 Zn420 2.049 . S
O425 C433 1.260 . S
O426 Zn421 1.996 . S
O426 C433 1.257 . S
C427 O422 1.254 . S
C427 O423 1.269 . S
C428 O429 1.249 . S
C428 O430 1.270 . S
O429 Zn421 1.943 . S
O429 C428 1.249 . S
O430 Zn420 2.067 . S
O430 C428 1.270 . S
C431 O424 1.262 . S
C431 O432 1.232 . S
O432 C431 1.232 . S
C433 O425 1.260 . S
C433 O426 1.257 . S
Zn434 O437 2.031 . S
Zn434 O439 2.049 . S
Zn434 O444 2.067 . S
Zn435 O436 1.962 . S
Zn435 O438 1.986 . S
Zn435 O440 1.996 . S
Zn435 O443 1.943 . S
O436 Zn435 1.962 . S
O436 C441 1.254 . S
O437 Zn434 2.031 . S
O437 C441 1.269 . S
O438 Zn435 1.986 . S
O438 C445 1.262 . S
O439 Zn434 2.049 . S
O439 C447 1.260 . S
O440 Zn435 1.996 . S
O440 C447 1.257 . S
C441 O436 1.254 . S
C441 O437 1.269 . S
C442 O443 1.249 . S
C442 O444 1.270 . S
O443 Zn435 1.943 . S
O443 C442 1.249 . S
O444 Zn434 2.067 . S
O444 C442 1.270 . S
C445 O438 1.262 . S
C445 O446 1.232 . S
O446 C445 1.232 . S
C447 O439 1.260 . S
C447 O440 1.257 . S
Zn448 O451 2.031 . S
Zn448 O453 2.049 . S
Zn448 O458 2.067 . S
Zn449 O450 1.962 . S
Zn449 O452 1.986 . S
Zn449 O454 1.996 . S
Zn449 O457 1.943 . S
O450 Zn449 1.962 . S
O450 C455 1.254 . S
O451 Zn448 2.031 . S
O451 C455 1.269 . S
O452 Zn449 1.986 . S
O452 C459 1.262 . S
O453 Zn448 2.049 . S
O453 C461 1.260 . S
O454 Zn449 1.996 . S
O454 C461 1.257 . S
C455 O450 1.254 . S
C455 O451 1.269 . S
C456 O457 1.249 . S
C456 O458 1.270 . S
O457 Zn449 1.943 . S
O457 C456 1.249 . S
O458 Zn448 2.067 . S
O458 C456 1.270 . S
C459 O452 1.262 . S
C459 O460 1.232 . S
O460 C459 1.232 . S
C461 O453 1.260 . S
C461 O454 1.257 . S
Zn462 O465 2.031 . S
Zn462 O467 2.049 . S
Zn462 O472 2.067 . S
Zn463 O464 1.962 . S
Zn463 O466 1.986 . S
Zn463 O468 1.996 . S
Zn463 O471 1.943 . S
O464 Zn463 1.962 . S
O464 C469 1.254 . S
O465 Zn462 2.031 . S
O465 C469 1.269 . S
O466 Zn463 1.986 . S
O466 C473 1.262 . S
O467 Zn462 2.049 . S
O467 C475 1.260 . S
O468 Zn463 1.996 . S
O468 C475 1.257 . S
C469 O464 1.254 . S
C469 O465 1.269 . S
C470 O471 1.249 . S
C470 O472 1.270 . S
O471 Zn463 1.943 . S
O471 C470 1.249 . S
O472 Zn462 2.067 . S
O472 C470 1.270 . S
C473 O466 1.262 . S
C473 O474 1.232 . S
O474 C473 1.232 . S
C475 O467 1.260 . S
C475 O468 1.257 . S
Zn476 O479 2.031 . S
Zn476 O481 2.049 . S
Zn476 O486 2.067 . S
Zn477 O478 1.962 . S
Zn477 O480 1.986 . S
Zn477 O482 1.996 . S
Zn477 O485 1.943 . S
O478 Zn477 1.962 . S
O478 C483 1.254 . S
O479 Zn476 2.031 . S
O479 C483 1.269 . S
O480 Zn477 1.986 . S
O480 C487 1.262 . S
O481 Zn476 2.049 . S
O481 C489 1.260 . S
O482 Zn477 1.996 . S
O482 C489 1.257 . S
C483 O478 1.254 . S
C483 O479 1.269 . S
C484 O485 1.249 . S
C484 O486 1.270 . S
O485 Zn477 1.943 . S
O485 C484 1.249 . S
O486 Zn476 2.067 . S
O486 C484 1.270 . S
C487 O480 1.262 . S
C487 O488 1.232 . S
O488 C487 1.232 . S
C489 O481 1.260 . S
C489 O482 1.257 . S
Zn490 O493 2.031 . S
Zn490 O495 2.049 . S
Zn490 O500 2.067 . S
Zn491 O492 1.962 . S
Zn491 O494 1.986 . S
Zn491 O496 1.996 . S
Zn491 O499 1.943 . S
O492 Zn491 1.962 . S
O492 C497 1.254 . S
O493 Zn490 2.031 . S
O493 C497 1.269 . S
O494 Zn491 1.986 . S
O494 C501 1.262 . S
O495 Zn490 2.049 . S
O495 C503 1.260 . S
O496 Zn491 1.996 . S
O496 C503 1.257 . S
C497 O492 1.254 . S
C497 O493 1.269 . S
C498 O499 1.249 . S
C498 O500 1.270 . S
O499 Zn491 1.943 . S
O499 C498 1.249 . S
O500 Zn490 2.067 . S
O500 C498 1.270 . S
C501 O494 1.262 . S
C501 O502 1.232 . S
O502 C501 1.232 . S
C503 O495 1.260 . S
C503 O496 1.257 . S
C504 C505 1.369 . S
C504 C506 1.419 . S
C504 H508 0.930 . S
C505 C504 1.369 . S
C505 C514 1.429 . S
C506 C504 1.419 . S
C506 C507 1.363 . S
C506 H509 0.929 . S
C507 C506 1.363 . S
C507 C513 1.428 . S
H508 C504 0.930 . S
H509 C506 0.929 . S
S510 N511 1.613 . S
S510 N512 1.610 . S
N511 S510 1.613 . S
N511 C514 1.350 . S
N512 S510 1.610 . S
N512 C513 1.351 . S
C513 C507 1.428 . S
C513 N512 1.351 . S
C513 C514 1.434 . S
C514 C505 1.429 . S
C514 N511 1.350 . S
C514 C513 1.434 . S
C515 C516 1.369 . S
C515 C517 1.419 . S
C515 H519 0.930 . S
C516 C515 1.369 . S
C516 C525 1.429 . S
C517 C515 1.419 . S
C517 C518 1.363 . S
C517 H520 0.929 . S
C518 C517 1.363 . S
C518 C524 1.428 . S
H519 C515 0.930 . S
H520 C517 0.929 . S
S521 N522 1.613 1_565 S
S521 N523 1.610 1_565 S
N522 S521 1.613 1_545 S
N522 C525 1.350 . S
N523 S521 1.610 1_545 S
N523 C524 1.351 . S
C524 C518 1.428 . S
C524 N523 1.351 . S
C524 C525 1.434 . S
C525 C516 1.429 . S
C525 N522 1.350 . S
C525 C524 1.434 . S
C526 C527 1.369 . S
C526 C528 1.419 . S
C526 H530 0.930 1_556 S
C527 C526 1.369 . S
C527 C536 1.429 . S
C528 C526 1.419 . S
C528 C529 1.363 . S
C528 H531 0.929 . S
C529 C528 1.363 . S
C529 C535 1.428 . S
H530 C526 0.930 1_554 S
H531 C528 0.929 . S
S532 N533 1.613 . S
S532 N534 1.610 . S
N533 S532 1.613 . S
N533 C536 1.350 . S
N534 S532 1.610 . S
N534 C535 1.351 . S
C535 C529 1.428 . S
C535 N534 1.351 . S
C535 C536 1.434 . S
C536 C527 1.429 . S
C536 N533 1.350 . S
C536 C535 1.434 . S
C537 C538 1.369 . S
C537 C539 1.419 . S
C537 H541 0.930 . S
C538 C537 1.369 . S
C538 C547 1.429 . S
C539 C537 1.419 . S
C539 C540 1.363 . S
C539 H542 0.929 . S
C540 C539 1.363 . S
C540 C546 1.428 . S
H541 C537 0.930 . S
H542 C539 0.929 . S
S543 N544 1.613 . S
S543 N545 1.610 . S
N544 S543 1.613 . S
N544 C547 1.350 . S
N545 S543 1.610 . S
N545 C546 1.351 . S
C546 C540 1.428 . S
C546 N545 1.351 . S
C546 C547 1.434 . S
C547 C538 1.429 . S
C547 N544 1.350 . S
C547 C546 1.434 . S
C548 C549 1.369 . S
C548 C550 1.419 . S
C548 H552 0.930 . S
C549 C548 1.369 . S
C549 C558 1.429 . S
C550 C548 1.419 . S
C550 C551 1.363 . S
C550 H553 0.929 . S
C551 C550 1.363 . S
C551 C557 1.428 . S
H552 C548 0.930 . S
H553 C550 0.929 . S
S554 N555 1.613 . S
S554 N556 1.610 . S
N555 S554 1.613 . S
N555 C558 1.350 . S
N556 S554 1.610 . S
N556 C557 1.351 . S
C557 C551 1.428 . S
C557 N556 1.351 . S
C557 C558 1.434 . S
C558 C549 1.429 . S
C558 N555 1.350 . S
C558 C557 1.434 . S
C559 C560 1.369 . S
C559 C561 1.419 . S
C559 H563 0.930 . S
C560 C559 1.369 . S
C560 C569 1.429 . S
C561 C559 1.419 . S
C561 C562 1.363 . S
C561 H564 0.929 . S
C562 C561 1.363 . S
C562 C568 1.428 . S
H563 C559 0.930 . S
H564 C561 0.929 . S
S565 N566 1.613 1_655 S
S565 N567 1.610 1_655 S
N566 S565 1.613 1_455 S
N566 C569 1.350 . S
N567 S565 1.610 1_455 S
N567 C568 1.351 . S
C568 C562 1.428 . S
C568 N567 1.351 . S
C568 C569 1.434 . S
C569 C560 1.429 . S
C569 N566 1.350 . S
C569 C568 1.434 . S
C570 C571 1.369 . S
C570 C572 1.419 . S
C570 H574 0.930 . S
C571 C570 1.369 . S
C571 C580 1.429 . S
C572 C570 1.419 . S
C572 C573 1.363 . S
C572 H575 0.929 . S
C573 C572 1.363 . S
C573 C579 1.428 . S
H574 C570 0.930 . S
H575 C572 0.929 . S
S576 N577 1.613 . S
S576 N578 1.610 . S
N577 S576 1.613 . S
N577 C580 1.350 . S
N578 S576 1.610 . S
N578 C579 1.351 . S
C579 C573 1.428 . S
C579 N578 1.351 . S
C579 C580 1.434 . S
C580 C571 1.429 . S
C580 N577 1.350 . S
C580 C579 1.434 . S
C581 C582 1.369 . S
C581 C583 1.419 . S
C581 H585 0.930 . S
C582 C581 1.369 . S
C582 C591 1.429 . S
C583 C581 1.419 . S
C583 C584 1.363 . S
C583 H586 0.929 . S
C584 C583 1.363 . S
C584 C590 1.428 . S
H585 C581 0.930 . S
H586 C583 0.929 . S
S587 N588 1.613 1_556 S
S587 N589 1.610 . S
N588 S587 1.613 1_554 S
N588 C591 1.350 . S
N589 S587 1.610 . S
N589 C590 1.351 1_556 S
C590 C584 1.428 . S
C590 N589 1.351 1_554 S
C590 C591 1.434 . S
C591 C582 1.429 . S
C591 N588 1.350 . S
C591 C590 1.434 . S
C592 C593 1.369 . S
C592 C594 1.419 . S
C592 H596 0.930 . S
C593 C592 1.369 . S
C593 C602 1.429 . S
C594 C592 1.419 . S
C594 C595 1.363 . S
C594 H597 0.929 . S
C595 C594 1.363 . S
C595 C601 1.428 . S
H596 C592 0.930 . S
H597 C594 0.929 . S
S598 N599 1.613 1_556 S
S598 N600 1.610 . S
N599 S598 1.613 1_554 S
N599 C602 1.350 . S
N600 S598 1.610 . S
N600 C601 1.351 1_556 S
C601 C595 1.428 . S
C601 N600 1.351 1_554 S
C601 C602 1.434 . S
C602 C593 1.429 . S
C602 N599 1.350 . S
C602 C601 1.434 . S
C603 C604 1.369 . S
C603 C605 1.419 . S
C603 H607 0.930 . S
C604 C603 1.369 . S
C604 C613 1.429 . S
C605 C603 1.419 . S
C605 C606 1.363 . S
C605 H608 0.929 . S
C606 C605 1.363 . S
C606 C612 1.428 . S
H607 C603 0.930 . S
H608 C605 0.929 . S
S609 N610 1.613 . S
S609 N611 1.610 . S
N610 S609 1.613 . S
N610 C613 1.350 . S
N611 S609 1.610 . S
N611 C612 1.351 . S
C612 C606 1.428 . S
C612 N611 1.351 . S
C612 C613 1.434 . S
C613 C604 1.429 . S
C613 N610 1.350 . S
C613 C612 1.434 . S
C614 C615 1.369 . S
C614 C616 1.419 . S
C614 H618 0.930 . S
C615 C614 1.369 . S
C615 C624 1.429 . S
C616 C614 1.419 . S
C616 C617 1.363 . S
C616 H619 0.929 . S
C617 C616 1.363 . S
C617 C623 1.428 . S
H618 C614 0.930 . S
H619 C616 0.929 . S
S620 N621 1.613 . S
S620 N622 1.610 . S
N621 S620 1.613 . S
N621 C624 1.350 . S
N622 S620 1.610 . S
N622 C623 1.351 . S
C623 C617 1.428 . S
C623 N622 1.351 . S
C623 C624 1.434 . S
C624 C615 1.429 . S
C624 N621 1.350 . S
C624 C623 1.434 . S
C625 C626 1.369 . S
C625 C627 1.419 . S
C625 H629 0.930 . S
C626 C625 1.369 . S
C626 C635 1.429 . S
C627 C625 1.419 . S
C627 C628 1.363 . S
C627 H630 0.929 . S
C628 C627 1.363 . S
C628 C634 1.428 . S
H629 C625 0.930 . S
H630 C627 0.929 . S
S631 N632 1.613 . S
S631 N633 1.610 . S
N632 S631 1.613 . S
N632 C635 1.350 . S
N633 S631 1.610 . S
N633 C634 1.351 . S
C634 C628 1.428 . S
C634 N633 1.351 . S
C634 C635 1.434 . S
C635 C626 1.429 . S
C635 N632 1.350 . S
C635 C634 1.434 . S
C636 C637 1.369 . S
C636 C638 1.419 1_455 S
C636 H640 0.930 . S
C637 C636 1.369 . S
C637 C646 1.429 . S
C638 C636 1.419 1_655 S
C638 C639 1.363 . S
C638 H641 0.929 . S
C639 C638 1.363 . S
C639 C645 1.428 . S
H640 C636 0.930 . S
H641 C638 0.929 . S
S642 N643 1.613 . S
S642 N644 1.610 1_455 S
N643 S642 1.613 . S
N643 C646 1.350 . S
N644 S642 1.610 1_655 S
N644 C645 1.351 . S
C645 C639 1.428 . S
C645 N644 1.351 . S
C645 C646 1.434 1_655 S
C646 C637 1.429 . S
C646 N643 1.350 . S
C646 C645 1.434 1_455 S
C647 C648 1.369 . S
C647 C649 1.419 . S
C647 H651 0.930 . S
C648 C647 1.369 . S
C648 C657 1.429 . S
C649 C647 1.419 . S
C649 C650 1.363 . S
C649 H652 0.929 . S
C650 C649 1.363 . S
C650 C656 1.428 . S
H651 C647 0.930 . S
H652 C649 0.929 . S
S653 N654 1.613 . S
S653 N655 1.610 . S
N654 S653 1.613 . S
N654 C657 1.350 . S
N655 S653 1.610 . S
N655 C656 1.351 . S
C656 C650 1.428 . S
C656 N655 1.351 . S
C656 C657 1.434 . S
C657 C648 1.429 . S
C657 N654 1.350 . S
C657 C656 1.434 . S
C658 C659 1.371 1_545 S
C658 C660 1.416 . S
C658 H662 0.930 . S
C659 C658 1.371 1_565 S
C659 C668 1.429 . S
C660 C658 1.416 . S
C660 C661 1.363 . S
C660 H663 0.929 . S
C661 C660 1.363 . S
C661 C667 1.401 1_545 S
H662 C658 0.930 . S
H663 C660 0.929 . S
S664 N665 1.613 . S
S664 N666 1.610 . S
N665 S664 1.613 . S
N665 C668 1.350 . S
N666 S664 1.610 . S
N666 C667 1.350 . S
C667 C661 1.401 1_565 S
C667 N666 1.350 . S
C667 C668 1.467 . S
C668 C659 1.429 . S
C668 N665 1.350 . S
C668 C667 1.467 . S
C669 C670 1.369 . S
C669 C671 1.419 1_565 S
C669 H673 0.930 . S
C670 C669 1.369 . S
C670 C679 1.429 . S
C671 C669 1.419 1_545 S
C671 C672 1.363 . S
C671 H674 0.929 . S
C672 C671 1.363 . S
C672 C678 1.428 . S
H673 C669 0.930 . S
H674 C671 0.929 . S
S675 N676 1.613 1_545 S
S675 N677 1.610 . S
N676 S675 1.613 1_565 S
N676 C679 1.350 . S
N677 S675 1.610 . S
N677 C678 1.351 . S
C678 C672 1.428 . S
C678 N677 1.351 . S
C678 C679 1.434 1_545 S
C679 C670 1.429 . S
C679 N676 1.350 . S
C679 C678 1.434 1_565 S
C680 C681 1.369 . S
C680 C682 1.394 1_455 S
C680 H684 0.930 . S
C681 C680 1.369 . S
C681 C690 1.427 1_455 S
C682 C680 1.394 1_655 S
C682 C683 1.395 . S
C682 H685 0.923 1_655 S
C683 C682 1.395 . S
C683 C689 1.428 . S
H684 C680 0.930 . S
H685 C682 0.923 1_455 S
S686 N687 1.613 . S
S686 N688 1.610 . S
N687 S686 1.613 . S
N687 C690 1.350 . S
N688 S686 1.610 . S
N688 C689 1.351 . S
C689 C683 1.428 . S
C689 N688 1.351 . S
C689 C690 1.435 . S
C690 C681 1.427 1_655 S
C690 N687 1.350 . S
C690 C689 1.435 . S
C691 C692 1.369 . S
C691 C693 1.419 . S
C691 H695 0.930 . S
C692 C691 1.369 . S
C692 C701 1.429 . S
C693 C691 1.419 . S
C693 C694 1.363 . S
C693 H696 0.929 . S
C694 C693 1.363 . S
C694 C700 1.428 . S
H695 C691 0.930 . S
H696 C693 0.929 . S
S697 N698 1.613 . S
S697 N699 1.610 . S
N698 S697 1.613 . S
N698 C701 1.350 . S
N699 S697 1.610 . S
N699 C700 1.351 . S
C700 C694 1.428 . S
C700 N699 1.351 . S
C700 C701 1.434 . S
C701 C692 1.429 . S
C701 N698 1.350 . S
C701 C700 1.434 . S
C702 C703 1.369 1_556 S
C702 C704 1.419 . S
C702 H706 0.930 . S
C703 C702 1.369 1_554 S
C703 C712 1.429 . S
C704 C702 1.419 . S
C704 C705 1.363 1_556 S
C704 H707 0.929 . S
C705 C704 1.363 1_554 S
C705 C711 1.428 . S
H706 C702 0.930 . S
H707 C704 0.929 . S
S708 N709 1.613 . S
S708 N710 1.610 . S
N709 S708 1.613 . S
N709 C712 1.350 . S
N710 S708 1.610 . S
N710 C711 1.351 . S
C711 C705 1.428 . S
C711 N710 1.351 . S
C711 C712 1.434 . S
C712 C703 1.429 . S
C712 N709 1.350 . S
C712 C711 1.434 . S
C713 C714 1.369 . S
C713 C715 1.419 . S
C713 H717 0.930 . S
C714 C713 1.369 . S
C714 C723 1.429 1_554 S
C715 C713 1.419 . S
C715 C716 1.363 . S
C715 H718 0.929 . S
C716 C715 1.363 . S
C716 C722 1.428 1_554 S
H717 C713 0.930 . S
H718 C715 0.929 . S
S719 N720 1.613 . S
S719 N721 1.610 . S
N720 S719 1.613 . S
N720 C723 1.350 . S
N721 S719 1.610 . S
N721 C722 1.351 . S
C722 C716 1.428 1_556 S
C722 N721 1.351 . S
C722 C723 1.434 . S
C723 C714 1.429 1_556 S
C723 N720 1.350 . S
C723 C722 1.434 . S
C724 C725 1.369 . S
C724 C726 1.419 . S
C724 H728 0.930 . S
C725 C724 1.369 . S
C725 C734 1.429 1_554 S
C726 C724 1.419 . S
C726 C727 1.363 . S
C726 H729 0.929 . S
C727 C726 1.363 . S
C727 C733 1.428 1_554 S
H728 C724 0.930 . S
H729 C726 0.929 . S
S730 N731 1.613 . S
S730 N732 1.610 . S
N731 S730 1.613 . S
N731 C734 1.350 . S
N732 S730 1.610 . S
N732 C733 1.351 . S
C733 C727 1.428 1_556 S
C733 N732 1.351 . S
C733 C734 1.434 . S
C734 C725 1.429 1_556 S
C734 N731 1.350 . S
C734 C733 1.434 . S
C735 C736 1.369 . S
C735 C737 1.419 . S
C735 H739 0.930 . S
C736 C735 1.369 . S
C736 C745 1.429 . S
C737 C735 1.419 . S
C737 C738 1.363 . S
C737 H740 0.929 . S
C738 C737 1.363 . S
C738 C744 1.428 . S
H739 C735 0.930 . S
H740 C737 0.929 . S
S741 N742 1.613 . S
S741 N743 1.610 . S
N742 S741 1.613 . S
N742 C745 1.350 . S
N743 S741 1.610 . S
N743 C744 1.351 . S
C744 C738 1.428 . S
C744 N743 1.351 . S
C744 C745 1.434 . S
C745 C736 1.429 . S
C745 N742 1.350 . S
C745 C744 1.434 . S
C746 C747 1.369 . S
C746 C748 1.419 . S
C746 H750 0.930 . S
C747 C746 1.369 . S
C747 C756 1.429 . S
C748 C746 1.419 . S
C748 C749 1.363 . S
C748 H751 0.929 . S
C749 C748 1.363 . S
C749 C755 1.428 . S
H750 C746 0.930 . S
H751 C748 0.929 . S
S752 N753 1.613 . S
S752 N754 1.610 . S
N753 S752 1.613 . S
N753 C756 1.350 . S
N754 S752 1.610 . S
N754 C755 1.351 . S
C755 C749 1.428 . S
C755 N754 1.351 . S
C755 C756 1.434 . S
C756 C747 1.429 . S
C756 N753 1.350 . S
C756 C755 1.434 . S
C757 C758 1.369 . S
C757 C759 1.419 . S
C757 H761 0.930 . S
C758 C757 1.369 . S
C758 C767 1.429 . S
C759 C757 1.419 . S
C759 C760 1.363 . S
C759 H762 0.929 . S
C760 C759 1.363 . S
C760 C766 1.428 . S
H761 C757 0.930 . S
H762 C759 0.929 . S
S763 N764 1.613 . S
S763 N765 1.610 . S
N764 S763 1.613 . S
N764 C767 1.350 . S
N765 S763 1.610 . S
N765 C766 1.351 . S
C766 C760 1.428 . S
C766 N765 1.351 . S
C766 C767 1.434 . S
C767 C758 1.429 . S
C767 N764 1.350 . S
C767 C766 1.434 . S
C768 C769 1.369 . S
C768 C770 1.419 . S
C768 H772 0.930 . S
C769 C768 1.369 . S
C769 C778 1.428 1_556 S
C770 C768 1.419 . S
C770 C771 1.363 . S
C770 H773 0.929 . S
C771 C770 1.363 . S
C771 C777 1.428 . S
H772 C768 0.930 . S
H773 C770 0.929 . S
S774 N775 1.613 . S
S774 N776 1.610 1_554 S
N775 S774 1.613 . S
N775 C778 1.352 . S
N776 S774 1.610 1_556 S
N776 C777 1.351 . S
C777 C771 1.428 . S
C777 N776 1.351 . S
C777 C778 1.433 1_556 S
C778 C769 1.428 1_554 S
C778 N775 1.352 . S
C778 C777 1.433 1_554 S
C779 C780 1.369 1_554 S
C779 C781 1.419 . S
C779 H783 0.930 . S
C780 C779 1.369 1_556 S
C780 C789 1.429 . S
C781 C779 1.419 . S
C781 C782 1.363 1_554 S
C781 H784 0.929 . S
C782 C781 1.363 1_556 S
C782 C788 1.428 . S
H783 C779 0.930 . S
H784 C781 0.929 . S
S785 N786 1.613 . S
S785 N787 1.610 . S
N786 S785 1.613 . S
N786 C789 1.350 . S
N787 S785 1.610 . S
N787 C788 1.351 . S
C788 C782 1.428 . S
C788 N787 1.351 . S
C788 C789 1.434 . S
C789 C780 1.429 . S
C789 N786 1.350 . S
C789 C788 1.434 . S
C790 C791 1.369 . S
C790 C792 1.419 . S
C790 H794 0.930 . S
C791 C790 1.369 . S
C791 C800 1.429 1_556 S
C792 C790 1.419 . S
C792 C793 1.363 . S
C792 H795 0.929 . S
C793 C792 1.363 . S
C793 C799 1.428 1_556 S
H794 C790 0.930 . S
H795 C792 0.929 . S
S796 N797 1.613 . S
S796 N798 1.610 . S
N797 S796 1.613 . S
N797 C800 1.350 . S
N798 S796 1.610 . S
N798 C799 1.351 . S
C799 C793 1.428 1_554 S
C799 N798 1.351 . S
C799 C800 1.434 . S
C800 C791 1.429 1_554 S
C800 N797 1.350 . S
C800 C799 1.434 . S
C801 C802 1.369 . S
C801 C803 1.419 . S
C801 H805 0.930 . S
C802 C801 1.369 . S
C802 C811 1.429 . S
C803 C801 1.419 . S
C803 C804 1.363 . S
C803 H806 0.929 . S
C804 C803 1.363 . S
C804 C810 1.428 . S
H805 C801 0.930 . S
H806 C803 0.929 . S
S807 N808 1.613 . S
S807 N809 1.610 . S
N808 S807 1.613 . S
N808 C811 1.350 . S
N809 S807 1.610 . S
N809 C810 1.351 . S
C810 C804 1.428 . S
C810 N809 1.351 . S
C810 C811 1.434 . S
C811 C802 1.429 . S
C811 N808 1.350 . S
C811 C810 1.434 . S
C812 C813 1.369 . S
C812 C814 1.419 . S
C812 H816 0.930 . S
C813 C812 1.369 . S
C813 C822 1.429 . S
C814 C812 1.419 . S
C814 C815 1.363 . S
C814 H817 0.929 . S
C815 C814 1.363 . S
C815 C821 1.428 . S
H816 C812 0.930 . S
H817 C814 0.929 . S
S818 N819 1.613 . S
S818 N820 1.610 . S
N819 S818 1.613 . S
N819 C822 1.350 . S
N820 S818 1.610 . S
N820 C821 1.351 . S
C821 C815 1.428 . S
C821 N820 1.351 . S
C821 C822 1.434 . S
C822 C813 1.429 . S
C822 N819 1.350 . S
C822 C821 1.434 . S
C823 C824 1.369 . S
C823 C825 1.419 . S
C823 H827 0.930 . S
C824 C823 1.369 . S
C824 C833 1.429 . S
C825 C823 1.419 . S
C825 C826 1.363 . S
C825 H828 0.929 . S
C826 C825 1.363 . S
C826 C832 1.428 . S
H827 C823 0.930 . S
H828 C825 0.929 . S
S829 N830 1.613 . S
S829 N831 1.610 . S
N830 S829 1.613 . S
N830 C833 1.350 . S
N831 S829 1.610 . S
N831 C832 1.351 . S
C832 C826 1.428 . S
C832 N831 1.351 . S
C832 C833 1.434 . S
C833 C824 1.429 . S
C833 N830 1.350 . S
C833 C832 1.434 . S
C834 C835 1.369 . S
C834 C836 1.419 . S
C834 H838 0.930 . S
C835 C834 1.369 . S
C835 C844 1.429 . S
C836 C834 1.419 . S
C836 C837 1.363 . S
C836 H839 0.929 . S
C837 C836 1.363 . S
C837 C843 1.428 . S
H838 C834 0.930 . S
H839 C836 0.929 . S
S840 N841 1.613 . S
S840 N842 1.610 . S
N841 S840 1.613 . S
N841 C844 1.350 . S
N842 S840 1.610 . S
N842 C843 1.351 . S
C843 C837 1.428 . S
C843 N842 1.351 . S
C843 C844 1.434 . S
C844 C835 1.429 . S
C844 N841 1.350 . S
C844 C843 1.434 . S
C845 C846 1.369 . S
C845 C847 1.419 . S
C845 H849 0.930 . S
C846 C845 1.369 . S
C846 C855 1.429 . S
C847 C845 1.419 . S
C847 C848 1.363 . S
C847 H850 0.929 . S
C848 C847 1.363 . S
C848 C854 1.428 . S
H849 C845 0.930 . S
H850 C847 0.929 . S
S851 N852 1.613 . S
S851 N853 1.610 . S
N852 S851 1.613 . S
N852 C855 1.350 . S
N853 S851 1.610 . S
N853 C854 1.351 . S
C854 C848 1.428 . S
C854 N853 1.351 . S
C854 C855 1.434 . S
C855 C846 1.429 . S
C855 N852 1.350 . S
C855 C854 1.434 . S
C856 C857 1.369 . S
C856 C858 1.419 . S
C856 H860 0.930 . S
C857 C856 1.369 . S
C857 C866 1.429 . S
C858 C856 1.419 . S
C858 C859 1.363 . S
C858 H861 0.929 . S
C859 C858 1.363 . S
C859 C865 1.428 . S
H860 C856 0.930 . S
H861 C858 0.929 . S
S862 N863 1.613 . S
S862 N864 1.610 . S
N863 S862 1.613 . S
N863 C866 1.350 . S
N864 S862 1.610 . S
N864 C865 1.351 . S
C865 C859 1.428 . S
C865 N864 1.351 . S
C865 C866 1.434 . S
C866 C857 1.429 . S
C866 N863 1.350 . S
C866 C865 1.434 . S
C867 C868 1.369 . S
C867 C869 1.419 . S
C867 H871 0.930 . S
C868 C867 1.369 . S
C868 C877 1.429 . S
C869 C867 1.419 . S
C869 C870 1.363 . S
C869 H872 0.929 . S
C870 C869 1.363 . S
C870 C876 1.428 . S
H871 C867 0.930 . S
H872 C869 0.929 . S
S873 N874 1.613 . S
S873 N875 1.610 . S
N874 S873 1.613 . S
N874 C877 1.350 . S
N875 S873 1.610 . S
N875 C876 1.351 . S
C876 C870 1.428 . S
C876 N875 1.351 . S
C876 C877 1.434 . S
C877 C868 1.429 . S
C877 N874 1.350 . S
C877 C876 1.434 . S
C878 C879 1.369 . S
C878 C880 1.419 . S
C878 H882 0.930 . S
C879 C878 1.369 . S
C879 C888 1.429 . S
C880 C878 1.419 . S
C880 C881 1.363 . S
C880 H883 0.929 . S
C881 C880 1.363 . S
C881 C887 1.428 . S
H882 C878 0.930 . S
H883 C880 0.929 . S
S884 N885 1.613 . S
S884 N886 1.610 . S
N885 S884 1.613 . S
N885 C888 1.350 . S
N886 S884 1.610 . S
N886 C887 1.351 . S
C887 C881 1.428 . S
C887 N886 1.351 . S
C887 C888 1.434 . S
C888 C879 1.429 . S
C888 N885 1.350 . S
C888 C887 1.434 . S
C889 C890 1.369 . S
C889 C891 1.419 . S
C889 H893 0.930 . S
C890 C889 1.369 . S
C890 C899 1.429 . S
C891 C889 1.419 . S
C891 C892 1.363 . S
C891 H894 0.929 . S
C892 C891 1.363 . S
C892 C898 1.428 . S
H893 C889 0.930 . S
H894 C891 0.929 . S
S895 N896 1.613 . S
S895 N897 1.610 . S
N896 S895 1.613 . S
N896 C899 1.350 . S
N897 S895 1.610 . S
N897 C898 1.351 . S
C898 C892 1.428 . S
C898 N897 1.351 . S
C898 C899 1.434 . S
C899 C890 1.429 . S
C899 N896 1.350 . S
C899 C898 1.434 . S
C900 C901 1.369 . S
C900 C902 1.419 . S
C900 H904 0.930 . S
C901 C900 1.369 . S
C901 C910 1.429 . S
C902 C900 1.419 . S
C902 C903 1.363 . S
C902 H905 0.929 . S
C903 C902 1.363 . S
C903 C909 1.428 . S
H904 C900 0.930 . S
H905 C902 0.929 . S
S906 N907 1.613 . S
S906 N908 1.610 . S
N907 S906 1.613 . S
N907 C910 1.350 . S
N908 S906 1.610 . S
N908 C909 1.351 . S
C909 C903 1.428 . S
C909 N908 1.351 . S
C909 C910 1.434 . S
C910 C901 1.429 . S
C910 N907 1.350 . S
C910 C909 1.434 . S
C911 C912 1.369 . S
C911 C913 1.419 . S
C911 H915 0.930 . S
C912 C911 1.369 . S
C912 C921 1.429 . S
C913 C911 1.419 . S
C913 C914 1.363 . S
C913 H916 0.929 . S
C914 C913 1.363 . S
C914 C920 1.428 . S
H915 C911 0.930 . S
H916 C913 0.929 . S
S917 N918 1.613 . S
S917 N919 1.610 . S
N918 S917 1.613 . S
N918 C921 1.350 . S
N919 S917 1.610 . S
N919 C920 1.351 . S
C920 C914 1.428 . S
C920 N919 1.351 . S
C920 C921 1.434 . S
C921 C912 1.429 . S
C921 N918 1.350 . S
C921 C920 1.434 . S
C922 C923 1.369 . S
C922 C924 1.419 . S
C922 H926 0.930 . S
C923 C922 1.369 . S
C923 C932 1.429 . S
C924 C922 1.419 . S
C924 C925 1.363 . S
C924 H927 0.929 . S
C925 C924 1.363 . S
C925 C931 1.428 . S
H926 C922 0.930 . S
H927 C924 0.929 . S
S928 N929 1.613 . S
S928 N930 1.610 . S
N929 S928 1.613 . S
N929 C932 1.350 . S
N930 S928 1.610 . S
N930 C931 1.351 . S
C931 C925 1.428 . S
C931 N930 1.351 . S
C931 C932 1.434 . S
C932 C923 1.429 . S
C932 N929 1.350 . S
C932 C931 1.434 . S
C933 C934 1.369 . S
C933 C935 1.419 . S
C933 H937 0.930 . S
C934 C933 1.369 . S
C934 C943 1.429 . S
C935 C933 1.419 . S
C935 C936 1.363 . S
C935 H938 0.929 . S
C936 C935 1.363 . S
C936 C942 1.428 . S
H937 C933 0.930 . S
H938 C935 0.929 . S
S939 N940 1.613 . S
S939 N941 1.610 . S
N940 S939 1.613 . S
N940 C943 1.350 . S
N941 S939 1.610 . S
N941 C942 1.351 . S
C942 C936 1.428 . S
C942 N941 1.351 . S
C942 C943 1.434 . S
C943 C934 1.429 . S
C943 N940 1.350 . S
C943 C942 1.434 . S
C944 C945 1.369 . S
C944 C946 1.419 . S
C944 H948 0.930 . S
C945 C944 1.369 . S
C945 C954 1.429 . S
C946 C944 1.419 . S
C946 C947 1.363 . S
C946 H949 0.929 . S
C947 C946 1.363 . S
C947 C953 1.428 . S
H948 C944 0.930 . S
H949 C946 0.929 . S
S950 N951 1.613 . S
S950 N952 1.610 . S
N951 S950 1.613 . S
N951 C954 1.350 . S
N952 S950 1.610 . S
N952 C953 1.351 . S
C953 C947 1.428 . S
C953 N952 1.351 . S
C953 C954 1.434 . S
C954 C945 1.429 . S
C954 N951 1.350 . S
C954 C953 1.434 . S
C955 C956 1.369 . S
C955 C957 1.419 . S
C955 H959 0.930 . S
C956 C955 1.369 . S
C956 C965 1.429 . S
C957 C955 1.419 . S
C957 C958 1.363 . S
C957 H960 0.929 . S
C958 C957 1.363 . S
C958 C964 1.428 . S
H959 C955 0.930 . S
H960 C957 0.929 . S
S961 N962 1.613 . S
S961 N963 1.610 . S
N962 S961 1.613 . S
N962 C965 1.350 . S
N963 S961 1.610 . S
N963 C964 1.351 . S
C964 C958 1.428 . S
C964 N963 1.351 . S
C964 C965 1.434 . S
C965 C956 1.429 . S
C965 N962 1.350 . S
C965 C964 1.434 . S
C966 C967 1.369 . S
C966 C968 1.419 . S
C966 H970 0.930 . S
C967 C966 1.369 . S
C967 C976 1.429 . S
C968 C966 1.419 . S
C968 C969 1.363 . S
C968 H971 0.929 . S
C969 C968 1.363 . S
C969 C975 1.428 . S
H970 C966 0.930 . S
H971 C968 0.929 . S
S972 N973 1.613 . S
S972 N974 1.610 . S
N973 S972 1.613 . S
N973 C976 1.350 . S
N974 S972 1.610 . S
N974 C975 1.351 . S
C975 C969 1.428 . S
C975 N974 1.351 . S
C975 C976 1.434 . S
C976 C967 1.429 . S
C976 N973 1.350 . S
C976 C975 1.434 . S
C977 C978 1.369 . S
C977 C979 1.419 . S
C977 H981 0.930 . S
C978 C977 1.369 . S
C978 C987 1.429 . S
C979 C977 1.419 . S
C979 C980 1.363 . S
C979 H982 0.929 . S
C980 C979 1.363 . S
C980 C986 1.428 . S
H981 C977 0.930 . S
H982 C979 0.929 . S
S983 N984 1.613 . S
S983 N985 1.610 . S
N984 S983 1.613 . S
N984 C987 1.350 . S
N985 S983 1.610 . S
N985 C986 1.351 . S
C986 C980 1.428 . S
C986 N985 1.351 . S
C986 C987 1.434 . S
C987 C978 1.429 . S
C987 N984 1.350 . S
C987 C986 1.434 . S
C988 C989 1.369 . S
C988 C990 1.419 . S
C988 H992 0.930 . S
C989 C988 1.369 . S
C989 C998 1.429 . S
C990 C988 1.419 . S
C990 C991 1.363 . S
C990 H993 0.929 . S
C991 C990 1.363 . S
C991 C997 1.428 . S
H992 C988 0.930 . S
H993 C990 0.929 . S
S994 N995 1.613 . S
S994 N996 1.610 . S
N995 S994 1.613 . S
N995 C998 1.350 . S
N996 S994 1.610 . S
N996 C997 1.351 . S
C997 C991 1.428 . S
C997 N996 1.351 . S
C997 C998 1.434 . S
C998 C989 1.429 . S
C998 N995 1.350 . S
C998 C997 1.434 . S
C999 C1000 1.369 . S
C999 C1001 1.419 . S
C999 H1003 0.930 . S
C1000 C999 1.369 . S
C1000 C1009 1.429 . S
C1001 C999 1.419 . S
C1001 C1002 1.363 . S
C1001 H1004 0.929 . S
C1002 C1001 1.363 . S
C1002 C1008 1.428 . S
H1003 C999 0.930 . S
H1004 C1001 0.929 . S
S1005 N1006 1.613 . S
S1005 N1007 1.610 . S
N1006 S1005 1.613 . S
N1006 C1009 1.350 . S
N1007 S1005 1.610 . S
N1007 C1008 1.351 . S
C1008 C1002 1.428 . S
C1008 N1007 1.351 . S
C1008 C1009 1.434 . S
C1009 C1000 1.429 . S
C1009 N1006 1.350 . S
C1009 C1008 1.434 . S
C1010 C1011 1.369 . S
C1010 C1012 1.419 . S
C1010 H1014 0.930 . S
C1011 C1010 1.369 . S
C1011 C1020 1.429 . S
C1012 C1010 1.419 . S
C1012 C1013 1.363 . S
C1012 H1015 0.929 . S
C1013 C1012 1.363 . S
C1013 C1019 1.428 . S
H1014 C1010 0.930 . S
H1015 C1012 0.929 . S
S1016 N1017 1.613 . S
S1016 N1018 1.610 . S
N1017 S1016 1.613 . S
N1017 C1020 1.350 . S
N1018 S1016 1.610 . S
N1018 C1019 1.351 . S
C1019 C1013 1.428 . S
C1019 N1018 1.351 . S
C1019 C1020 1.434 . S
C1020 C1011 1.429 . S
C1020 N1017 1.350 . S
C1020 C1019 1.434 . S
C1021 C1022 1.369 . S
C1021 C1023 1.419 . S
C1021 H1025 0.930 . S
C1022 C1021 1.369 . S
C1022 C1031 1.429 . S
C1023 C1021 1.419 . S
C1023 C1024 1.363 . S
C1023 H1026 0.929 . S
C1024 C1023 1.363 . S
C1024 C1030 1.428 . S
H1025 C1021 0.930 . S
H1026 C1023 0.929 . S
S1027 N1028 1.613 . S
S1027 N1029 1.610 . S
N1028 S1027 1.613 . S
N1028 C1031 1.350 . S
N1029 S1027 1.610 . S
N1029 C1030 1.351 . S
C1030 C1024 1.428 . S
C1030 N1029 1.351 . S
C1030 C1031 1.434 . S
C1031 C1022 1.429 . S
C1031 N1028 1.350 . S
C1031 C1030 1.434 . S
C1032 C1033 1.369 . S
C1032 C1034 1.419 . S
C1032 H1036 0.930 . S
C1033 C1032 1.369 . S
C1033 C1042 1.429 . S
C1034 C1032 1.419 . S
C1034 C1035 1.363 . S
C1034 H1037 0.929 . S
C1035 C1034 1.363 . S
C1035 C1041 1.428 . S
H1036 C1032 0.930 . S
H1037 C1034 0.929 . S
S1038 N1039 1.613 . S
S1038 N1040 1.610 . S
N1039 S1038 1.613 . S
N1039 C1042 1.350 . S
N1040 S1038 1.610 . S
N1040 C1041 1.351 . S
C1041 C1035 1.428 . S
C1041 N1040 1.351 . S
C1041 C1042 1.434 . S
C1042 C1033 1.429 . S
C1042 N1039 1.350 . S
C1042 C1041 1.434 . S
C1043 C1044 1.369 . S
C1043 C1045 1.419 . S
C1043 H1047 0.930 . S
C1044 C1043 1.369 . S
C1044 C1053 1.429 . S
C1045 C1043 1.419 . S
C1045 C1046 1.363 . S
C1045 H1048 0.929 . S
C1046 C1045 1.363 . S
C1046 C1052 1.428 . S
H1047 C1043 0.930 . S
H1048 C1045 0.929 . S
S1049 N1050 1.613 . S
S1049 N1051 1.610 . S
N1050 S1049 1.613 . S
N1050 C1053 1.350 . S
N1051 S1049 1.610 . S
N1051 C1052 1.351 . S
C1052 C1046 1.428 . S
C1052 N1051 1.351 . S
C1052 C1053 1.434 . S
C1053 C1044 1.429 . S
C1053 N1050 1.350 . S
C1053 C1052 1.434 . S
C1054 C1055 1.369 . S
C1054 C1056 1.419 . S
C1054 H1058 0.930 . S
C1055 C1054 1.369 . S
C1055 C1064 1.429 . S
C1056 C1054 1.419 . S
C1056 C1057 1.363 . S
C1056 H1059 0.929 . S
C1057 C1056 1.363 . S
C1057 C1063 1.428 . S
H1058 C1054 0.930 . S
H1059 C1056 0.929 . S
S1060 N1061 1.613 . S
S1060 N1062 1.610 . S
N1061 S1060 1.613 . S
N1061 C1064 1.350 . S
N1062 S1060 1.610 . S
N1062 C1063 1.351 . S
C1063 C1057 1.428 . S
C1063 N1062 1.351 . S
C1063 C1064 1.434 . S
C1064 C1055 1.429 . S
C1064 N1061 1.350 . S
C1064 C1063 1.434 . S
C1065 C1066 1.369 . S
C1065 C1067 1.419 . S
C1065 H1069 0.930 . S
C1066 C1065 1.369 . S
C1066 C1075 1.429 . S
C1067 C1065 1.419 . S
C1067 C1068 1.363 . S
C1067 H1070 0.929 . S
C1068 C1067 1.363 . S
C1068 C1074 1.428 . S
H1069 C1065 0.930 . S
H1070 C1067 0.929 . S
S1071 N1072 1.613 . S
S1071 N1073 1.610 . S
N1072 S1071 1.613 . S
N1072 C1075 1.350 . S
N1073 S1071 1.610 . S
N1073 C1074 1.351 . S
C1074 C1068 1.428 . S
C1074 N1073 1.351 . S
C1074 C1075 1.434 . S
C1075 C1066 1.429 . S
C1075 N1072 1.350 . S
C1075 C1074 1.434 . S
C1076 C1077 1.369 . S
C1076 C1078 1.419 . S
C1076 H1080 0.930 . S
C1077 C1076 1.369 . S
C1077 C1086 1.429 . S
C1078 C1076 1.419 . S
C1078 C1079 1.363 . S
C1078 H1081 0.929 . S
C1079 C1078 1.363 . S
C1079 C1085 1.428 . S
H1080 C1076 0.930 . S
H1081 C1078 0.929 . S
S1082 N1083 1.613 . S
S1082 N1084 1.610 . S
N1083 S1082 1.613 . S
N1083 C1086 1.350 . S
N1084 S1082 1.610 . S
N1084 C1085 1.351 . S
C1085 C1079 1.428 . S
C1085 N1084 1.351 . S
C1085 C1086 1.434 . S
C1086 C1077 1.429 . S
C1086 N1083 1.350 . S
C1086 C1085 1.434 . S
C1087 C1088 1.369 . S
C1087 C1089 1.419 . S
C1087 H1091 0.930 . S
C1088 C1087 1.369 . S
C1088 C1097 1.429 . S
C1089 C1087 1.419 . S
C1089 C1090 1.363 . S
C1089 H1092 0.929 . S
C1090 C1089 1.363 . S
C1090 C1096 1.428 . S
H1091 C1087 0.930 . S
H1092 C1089 0.929 . S
S1093 N1094 1.613 . S
S1093 N1095 1.610 . S
N1094 S1093 1.613 . S
N1094 C1097 1.350 . S
N1095 S1093 1.610 . S
N1095 C1096 1.351 . S
C1096 C1090 1.428 . S
C1096 N1095 1.351 . S
C1096 C1097 1.434 . S
C1097 C1088 1.429 . S
C1097 N1094 1.350 . S
C1097 C1096 1.434 . S
C1098 C1099 1.369 . S
C1098 C1100 1.419 . S
C1098 H1102 0.930 . S
C1099 C1098 1.369 . S
C1099 C1108 1.429 . S
C1100 C1098 1.419 . S
C1100 C1101 1.363 . S
C1100 H1103 0.929 . S
C1101 C1100 1.363 . S
C1101 C1107 1.428 . S
H1102 C1098 0.930 . S
H1103 C1100 0.929 . S
S1104 N1105 1.613 . S
S1104 N1106 1.610 . S
N1105 S1104 1.613 . S
N1105 C1108 1.350 . S
N1106 S1104 1.610 . S
N1106 C1107 1.351 . S
C1107 C1101 1.428 . S
C1107 N1106 1.351 . S
C1107 C1108 1.434 . S
C1108 C1099 1.429 . S
C1108 N1105 1.350 . S
C1108 C1107 1.434 . S
C1109 C1110 1.369 . S
C1109 C1111 1.419 . S
C1109 H1113 0.930 . S
C1110 C1109 1.369 . S
C1110 C1119 1.429 1_545 S
C1111 C1109 1.419 . S
C1111 C1112 1.363 1_545 S
C1111 H1114 0.929 . S
C1112 C1111 1.363 1_565 S
C1112 C1118 1.428 . S
H1113 C1109 0.930 . S
H1114 C1111 0.929 . S
S1115 N1116 1.613 . S
S1115 N1117 1.610 . S
N1116 S1115 1.613 . S
N1116 C1119 1.350 . S
N1117 S1115 1.610 . S
N1117 C1118 1.351 . S
C1118 C1112 1.428 . S
C1118 N1117 1.351 . S
C1118 C1119 1.434 . S
C1119 C1110 1.429 1_565 S
C1119 N1116 1.350 . S
C1119 C1118 1.434 . S
C1120 C1121 1.369 . S
C1120 C1122 1.419 . S
C1120 H1124 0.930 . S
C1121 C1120 1.369 . S
C1121 C1130 1.429 1_455 S
C1122 C1120 1.419 . S
C1122 C1123 1.363 1_455 S
C1122 H1125 0.929 . S
C1123 C1122 1.363 1_655 S
C1123 C1129 1.428 . S
H1124 C1120 0.930 . S
H1125 C1122 0.929 . S
S1126 N1127 1.613 . S
S1126 N1128 1.610 . S
N1127 S1126 1.613 . S
N1127 C1130 1.350 . S
N1128 S1126 1.610 . S
N1128 C1129 1.351 . S
C1129 C1123 1.428 . S
C1129 N1128 1.351 . S
C1129 C1130 1.434 . S
C1130 C1121 1.429 1_655 S
C1130 N1127 1.350 . S
C1130 C1129 1.434 . S
C1131 C1132 1.369 . S
C1131 C1133 1.419 . S
C1131 H1135 0.930 . S
C1132 C1131 1.369 . S
C1132 C1141 1.429 . S
C1133 C1131 1.419 . S
C1133 C1134 1.363 . S
C1133 H1136 0.929 . S
C1134 C1133 1.363 . S
C1134 C1140 1.428 . S
H1135 C1131 0.930 . S
H1136 C1133 0.929 . S
S1137 N1138 1.613 . S
S1137 N1139 1.610 . S
N1138 S1137 1.613 . S
N1138 C1141 1.350 . S
N1139 S1137 1.610 . S
N1139 C1140 1.351 . S
C1140 C1134 1.428 . S
C1140 N1139 1.351 . S
C1140 C1141 1.434 . S
C1141 C1132 1.429 . S
C1141 N1138 1.350 . S
C1141 C1140 1.434 . S
C1142 C1143 1.369 1_565 S
C1142 C1144 1.419 . S
C1142 H1146 0.930 . S
C1143 C1142 1.369 1_545 S
C1143 C1152 1.429 . S
C1144 C1142 1.419 . S
C1144 C1145 1.363 . S
C1144 H1147 0.929 . S
C1145 C1144 1.363 . S
C1145 C1151 1.428 1_565 S
H1146 C1142 0.930 . S
H1147 C1144 0.929 . S
S1148 N1149 1.613 . S
S1148 N1150 1.610 . S
N1149 S1148 1.613 . S
N1149 C1152 1.350 . S
N1150 S1148 1.610 . S
N1150 C1151 1.351 . S
C1151 C1145 1.428 1_545 S
C1151 N1150 1.351 . S
C1151 C1152 1.434 . S
C1152 C1143 1.429 . S
C1152 N1149 1.350 . S
C1152 C1151 1.434 . S
C1153 C1154 1.369 . S
C1153 C1155 1.419 . S
C1153 H1157 0.930 . S
C1154 C1153 1.369 . S
C1154 C1163 1.429 1_655 S
C1155 C1153 1.419 . S
C1155 C1156 1.363 1_655 S
C1155 H1158 0.929 . S
C1156 C1155 1.363 1_455 S
C1156 C1162 1.428 . S
H1157 C1153 0.930 . S
H1158 C1155 0.929 . S
S1159 N1160 1.613 . S
S1159 N1161 1.610 . S
N1160 S1159 1.613 . S
N1160 C1163 1.350 . S
N1161 S1159 1.610 . S
N1161 C1162 1.351 . S
C1162 C1156 1.428 . S
C1162 N1161 1.351 . S
C1162 C1163 1.434 . S
C1163 C1154 1.429 1_455 S
C1163 N1160 1.350 . S
C1163 C1162 1.434 . S
C1164 C1165 1.369 . S
C1164 C1166 1.419 . S
C1164 H1168 0.930 . S
C1165 C1164 1.369 . S
C1165 C1174 1.429 . S
C1166 C1164 1.419 . S
C1166 C1167 1.363 . S
C1166 H1169 0.929 . S
C1167 C1166 1.363 . S
C1167 C1173 1.428 . S
H1168 C1164 0.930 . S
H1169 C1166 0.929 . S
S1170 N1171 1.613 . S
S1170 N1172 1.610 . S
N1171 S1170 1.613 . S
N1171 C1174 1.350 . S
N1172 S1170 1.610 . S
N1172 C1173 1.351 . S
C1173 C1167 1.428 . S
C1173 N1172 1.351 . S
C1173 C1174 1.434 . S
C1174 C1165 1.429 . S
C1174 N1171 1.350 . S
C1174 C1173 1.434 . S
C1175 C1176 1.369 . S
C1175 C1177 1.419 . S
C1175 H1179 0.930 . S
C1176 C1175 1.369 . S
C1176 C1185 1.429 . S
C1177 C1175 1.419 . S
C1177 C1178 1.363 . S
C1177 H1180 0.929 . S
C1178 C1177 1.363 . S
C1178 C1184 1.428 . S
H1179 C1175 0.930 . S
H1180 C1177 0.929 . S
S1181 N1182 1.613 . S
S1181 N1183 1.610 . S
N1182 S1181 1.613 . S
N1182 C1185 1.350 . S
N1183 S1181 1.610 . S
N1183 C1184 1.351 . S
C1184 C1178 1.428 . S
C1184 N1183 1.351 . S
C1184 C1185 1.434 . S
C1185 C1176 1.429 . S
C1185 N1182 1.350 . S
C1185 C1184 1.434 . S
C1186 C1187 1.369 . S
C1186 C1188 1.419 . S
C1186 H1190 0.930 . S
C1187 C1186 1.369 . S
C1187 C1196 1.429 . S
C1188 C1186 1.419 . S
C1188 C1189 1.363 . S
C1188 H1191 0.929 . S
C1189 C1188 1.363 . S
C1189 C1195 1.428 . S
H1190 C1186 0.930 . S
H1191 C1188 0.929 . S
S1192 N1193 1.613 . S
S1192 N1194 1.610 . S
N1193 S1192 1.613 . S
N1193 C1196 1.350 . S
N1194 S1192 1.610 . S
N1194 C1195 1.351 . S
C1195 C1189 1.428 . S
C1195 N1194 1.351 . S
C1195 C1196 1.434 . S
C1196 C1187 1.429 . S
C1196 N1193 1.350 . S
C1196 C1195 1.434 . S
C1197 C1198 1.369 . S
C1197 C1199 1.419 . S
C1197 H1201 0.930 . S
C1198 C1197 1.369 . S
C1198 C1207 1.429 . S
C1199 C1197 1.419 . S
C1199 C1200 1.363 . S
C1199 H1202 0.929 . S
C1200 C1199 1.363 . S
C1200 C1206 1.428 . S
H1201 C1197 0.930 . S
H1202 C1199 0.929 . S
S1203 N1204 1.613 . S
S1203 N1205 1.610 . S
N1204 S1203 1.613 . S
N1204 C1207 1.350 . S
N1205 S1203 1.610 . S
N1205 C1206 1.351 . S
C1206 C1200 1.428 . S
C1206 N1205 1.351 . S
C1206 C1207 1.434 . S
C1207 C1198 1.429 . S
C1207 N1204 1.350 . S
C1207 C1206 1.434 . S
C1208 C1209 1.369 . S
C1208 C1210 1.419 . S
C1208 H1212 0.930 . S
C1209 C1208 1.369 . S
C1209 C1218 1.429 . S
C1210 C1208 1.419 . S
C1210 C1211 1.363 . S
C1210 H1213 0.929 . S
C1211 C1210 1.363 . S
C1211 C1217 1.428 . S
H1212 C1208 0.930 . S
H1213 C1210 0.929 . S
S1214 N1215 1.613 . S
S1214 N1216 1.610 . S
N1215 S1214 1.613 . S
N1215 C1218 1.350 . S
N1216 S1214 1.610 . S
N1216 C1217 1.351 . S
C1217 C1211 1.428 . S
C1217 N1216 1.351 . S
C1217 C1218 1.434 . S
C1218 C1209 1.429 . S
C1218 N1215 1.350 . S
C1218 C1217 1.434 . S
C1219 C1220 1.369 . S
C1219 C1221 1.419 . S
C1219 H1223 0.930 . S
C1220 C1219 1.369 . S
C1220 C1229 1.429 . S
C1221 C1219 1.419 . S
C1221 C1222 1.363 . S
C1221 H1224 0.929 . S
C1222 C1221 1.363 . S
C1222 C1228 1.428 . S
H1223 C1219 0.930 . S
H1224 C1221 0.929 . S
S1225 N1226 1.613 . S
S1225 N1227 1.610 . S
N1226 S1225 1.613 . S
N1226 C1229 1.350 . S
N1227 S1225 1.610 . S
N1227 C1228 1.351 . S
C1228 C1222 1.428 . S
C1228 N1227 1.351 . S
C1228 C1229 1.434 . S
C1229 C1220 1.429 . S
C1229 N1226 1.350 . S
C1229 C1228 1.434 . S
C1230 C1231 1.369 . S
C1230 C1232 1.419 . S
C1230 H1234 0.930 . S
C1231 C1230 1.369 . S
C1231 C1240 1.429 . S
C1232 C1230 1.419 . S
C1232 C1233 1.363 . S
C1232 H1235 0.929 . S
C1233 C1232 1.363 . S
C1233 C1239 1.428 . S
H1234 C1230 0.930 . S
H1235 C1232 0.929 . S
S1236 N1237 1.613 . S
S1236 N1238 1.610 . S
N1237 S1236 1.613 . S
N1237 C1240 1.350 . S
N1238 S1236 1.610 . S
N1238 C1239 1.351 . S
C1239 C1233 1.428 . S
C1239 N1238 1.351 . S
C1239 C1240 1.434 . S
C1240 C1231 1.429 . S
C1240 N1237 1.350 . S
C1240 C1239 1.434 . S
C1241 C1242 1.369 . S
C1241 C1243 1.419 . S
C1241 H1245 0.930 . S
C1242 C1241 1.369 . S
C1242 C1251 1.429 . S
C1243 C1241 1.419 . S
C1243 C1244 1.363 . S
C1243 H1246 0.929 . S
C1244 C1243 1.363 . S
C1244 C1250 1.428 . S
H1245 C1241 0.930 . S
H1246 C1243 0.929 . S
S1247 N1248 1.613 . S
S1247 N1249 1.610 . S
N1248 S1247 1.613 . S
N1248 C1251 1.350 . S
N1249 S1247 1.610 . S
N1249 C1250 1.351 . S
C1250 C1244 1.428 . S
C1250 N1249 1.351 . S
C1250 C1251 1.434 . S
C1251 C1242 1.429 . S
C1251 N1248 1.350 . S
C1251 C1250 1.434 . S
C1252 C1253 1.369 . S
C1252 C1254 1.419 . S
C1252 H1256 0.930 . S
C1253 C1252 1.369 . S
C1253 C1262 1.429 . S
C1254 C1252 1.419 . S
C1254 C1255 1.363 . S
C1254 H1257 0.929 . S
C1255 C1254 1.363 . S
C1255 C1261 1.428 . S
H1256 C1252 0.930 . S
H1257 C1254 0.929 . S
S1258 N1259 1.613 . S
S1258 N1260 1.610 . S
N1259 S1258 1.613 . S
N1259 C1262 1.350 . S
N1260 S1258 1.610 . S
N1260 C1261 1.351 . S
C1261 C1255 1.428 . S
C1261 N1260 1.351 . S
C1261 C1262 1.434 . S
C1262 C1253 1.429 . S
C1262 N1259 1.350 . S
C1262 C1261 1.434 . S
C1263 C1264 1.369 . S
C1263 C1265 1.419 . S
C1263 H1267 0.930 . S
C1264 C1263 1.369 . S
C1264 C1273 1.429 . S
C1265 C1263 1.419 . S
C1265 C1266 1.363 . S
C1265 H1268 0.929 . S
C1266 C1265 1.363 . S
C1266 C1272 1.428 . S
H1267 C1263 0.930 . S
H1268 C1265 0.929 . S
S1269 N1270 1.613 . S
S1269 N1271 1.610 . S
N1270 S1269 1.613 . S
N1270 C1273 1.350 . S
N1271 S1269 1.610 . S
N1271 C1272 1.351 . S
C1272 C1266 1.428 . S
C1272 N1271 1.351 . S
C1272 C1273 1.434 . S
C1273 C1264 1.429 . S
C1273 N1270 1.350 . S
C1273 C1272 1.434 . S
C1274 C1275 1.369 . S
C1274 C1276 1.419 . S
C1274 H1278 0.930 . S
C1275 C1274 1.369 . S
C1275 C1284 1.429 . S
C1276 C1274 1.419 . S
C1276 C1277 1.363 . S
C1276 H1279 0.929 . S
C1277 C1276 1.363 . S
C1277 C1283 1.428 . S
H1278 C1274 0.930 . S
H1279 C1276 0.929 . S
S1280 N1281 1.613 . S
S1280 N1282 1.610 . S
N1281 S1280 1.613 . S
N1281 C1284 1.350 . S
N1282 S1280 1.610 . S
N1282 C1283 1.351 . S
C1283 C1277 1.428 . S
C1283 N1282 1.351 . S
C1283 C1284 1.434 . S
C1284 C1275 1.429 . S
C1284 N1281 1.350 . S
C1284 C1283 1.434 . S
C1285 C1286 1.369 . S
C1285 C1287 1.419 . S
C1285 H1289 0.930 . S
C1286 C1285 1.369 . S
C1286 C1295 1.429 . S
C1287 C1285 1.419 . S
C1287 C1288 1.363 . S
C1287 H1290 0.929 . S
C1288 C1287 1.363 . S
C1288 C1294 1.428 . S
H1289 C1285 0.930 . S
H1290 C1287 0.929 . S
S1291 N1292 1.613 . S
S1291 N1293 1.610 . S
N1292 S1291 1.613 . S
N1292 C1295 1.350 . S
N1293 S1291 1.610 . S
N1293 C1294 1.351 . S
C1294 C1288 1.428 . S
C1294 N1293 1.351 . S
C1294 C1295 1.434 . S
C1295 C1286 1.429 . S
C1295 N1292 1.350 . S
C1295 C1294 1.434 . S
C505 C235 1.367 . S
C507 C11 1.365 . S
C516 C249 1.367 . S
C518 C25 1.368 . S
C527 C39 1.365 . S
C529 C221 1.368 . S
C538 C375 1.367 . S
C540 C53 1.366 . S
C549 C347 1.365 . S
C551 C67 1.367 . S
C560 C81 1.367 . S
C562 C361 1.368 . S
C571 C487 1.368 . S
C573 C95 1.366 . S
C582 C501 1.366 . S
C584 C109 1.368 . S
C593 C473 1.365 . S
C595 C123 1.367 . S
C604 C291 1.367 . S
C606 C137 1.368 . S
C615 C151 1.367 . S
C617 C263 1.366 . S
C626 C277 1.366 . S
C628 C165 1.368 . S
C637 C403 1.367 . S
C639 C179 1.366 . S
C648 C193 1.368 . S
C650 C417 1.366 . S
C659 C389 1.365 . S
C661 C207 1.368 . S
C670 C459 1.367 . S
C672 C305 1.366 . S
C681 C431 1.367 . S
C683 C319 1.366 . S
C692 C333 1.368 . S
C694 C445 1.366 . S
C703 C105 1.377 1_554 S
C705 C13 1.366 . S
C714 C119 1.379 1_554 S
C716 C27 1.371 . S
C725 C91 1.379 1_554 S
C727 C41 1.371 . S
C736 C55 1.365 . S
C738 C161 1.376 . S
C747 C133 1.372 . S
C749 C69 1.366 . S
C758 C83 1.368 . S
C760 C147 1.374 . S
C769 C21 1.378 1_556 S
C771 C97 1.371 . S
C780 C111 1.365 . S
C782 C35 1.377 1_556 S
C791 C7 1.373 1_556 S
C793 C125 1.368 . S
C802 C77 1.378 . S
C804 C139 1.371 . S
C813 C49 1.379 . S
C815 C153 1.371 . S
C824 C167 1.363 . S
C826 C63 1.374 . S
C835 C181 1.364 . S
C837 C273 1.373 . S
C846 C287 1.380 . S
C848 C195 1.370 . S
C857 C259 1.380 . S
C859 C209 1.370 . S
C868 C223 1.364 . S
C870 C329 1.373 . S
C879 C301 1.374 . S
C881 C237 1.369 . S
C890 C251 1.363 . S
C892 C315 1.375 . S
C901 C265 1.365 . S
C903 C189 1.377 . S
C912 C279 1.366 . S
C914 C203 1.373 . S
C923 C175 1.376 . S
C925 C293 1.365 . S
C934 C245 1.380 . S
C936 C307 1.369 . S
C945 C217 1.376 . S
C947 C321 1.365 . S
C956 C335 1.363 . S
C958 C231 1.373 . S
C967 C441 1.380 . S
C969 C349 1.371 . S
C978 C363 1.363 . S
C980 C455 1.375 . S
C989 C377 1.371 . S
C991 C427 1.379 . S
C1000 C497 1.372 . S
C1002 C391 1.364 . S
C1011 C405 1.364 . S
C1013 C469 1.375 . S
C1022 C483 1.379 . S
C1024 C419 1.367 . S
C1033 C357 1.372 . S
C1035 C433 1.366 . S
C1044 C371 1.375 . S
C1046 C447 1.370 . S
C1055 C461 1.371 . S
C1057 C343 1.379 . S
C1066 C475 1.368 . S
C1068 C413 1.373 . S
C1077 C385 1.374 . S
C1079 C489 1.369 . S
C1088 C399 1.380 . S
C1090 C503 1.370 . S
C1099 C8 1.383 . S
C1101 C50 1.380 . S
C1110 C22 1.383 . S
C1112 C64 1.382 . S
C1121 C78 1.383 . S
C1123 C36 1.380 . S
C1132 C92 1.376 . S
C1134 C134 1.376 . S
C1143 C148 1.377 . S
C1145 C106 1.379 . S
C1154 C162 1.375 . S
C1156 C120 1.375 . S
C1165 C176 1.375 . S
C1167 C218 1.377 . S
C1176 C190 1.378 . S
C1178 C232 1.380 . S
C1187 C246 1.383 . S
C1189 C204 1.382 . S
C1198 C260 1.374 . S
C1200 C302 1.376 1_554 S
C1209 C274 1.382 . S
C1211 C316 1.380 1_554 S
C1220 C288 1.383 . S
C1222 C330 1.381 1_554 S
C1231 C386 1.383 1_556 S
C1233 C344 1.382 . S
C1242 C400 1.375 1_556 S
C1244 C358 1.376 . S
C1253 C414 1.382 1_556 S
C1255 C372 1.379 . S
C1264 C428 1.383 . S
C1266 C470 1.382 . S
C1275 C484 1.382 . S
C1277 C442 1.381 . S
C1286 C498 1.374 . S
C1288 C456 1.376 . S
