# Generated by pormake.
# Topology qtz-e, (6)-cn, num edge types: 1
# Building blocks:
#     Node 0, Type 0, BuildingBlock: GEDQOX_clean_sbu_0, # of connection points: 6
#     Node 1, Type 0, BuildingBlock: GEDQOX_clean_sbu_0, # of connection points: 6
#     Node 2, Type 0, BuildingBlock: GEDQOX_clean_sbu_0, # of connection points: 6
#     Node 3, Type 0, BuildingBlock: GEDQOX_clean_sbu_0, # of connection points: 6
#     Node 4, Type 0, BuildingBlock: GEDQOX_clean_sbu_0, # of connection points: 6
#     Node 5, Type 0, BuildingBlock: GEDQOX_clean_sbu_0, # of connection points: 6
#     Edge 6, Type (0, 0), BuildingBlock: MIFKUJ_clean_linker_0, # of connection points: 2
#     Edge 7, Type (0, 0), BuildingBlock: MIFKUJ_clean_linker_0, # of connection points: 2
#     Edge 8, Type (0, 0), BuildingBlock: MIFKUJ_clean_linker_0, # of connection points: 2
#     Edge 9, Type (0, 0), BuildingBlock: MIFKUJ_clean_linker_0, # of connection points: 2
#     Edge 10, Type (0, 0), BuildingBlock: MIFKUJ_clean_linker_0, # of connection points: 2
#     Edge 11, Type (0, 0), BuildingBlock: MIFKUJ_clean_linker_0, # of connection points: 2
#     Edge 12, Type (0, 0), BuildingBlock: MIFKUJ_clean_linker_0, # of connection points: 2
#     Edge 13, Type (0, 0), BuildingBlock: MIFKUJ_clean_linker_0, # of connection points: 2
#     Edge 14, Type (0, 0), BuildingBlock: MIFKUJ_clean_linker_0, # of connection points: 2
#     Edge 15, Type (0, 0), BuildingBlock: MIFKUJ_clean_linker_0, # of connection points: 2
#     Edge 16, Type (0, 0), BuildingBlock: MIFKUJ_clean_linker_0, # of connection points: 2
#     Edge 17, Type (0, 0), BuildingBlock: MIFKUJ_clean_linker_0, # of connection points: 2
#     Edge 18, Type (0, 0), BuildingBlock: MIFKUJ_clean_linker_0, # of connection points: 2
#     Edge 19, Type (0, 0), BuildingBlock: MIFKUJ_clean_linker_0, # of connection points: 2
#     Edge 20, Type (0, 0), BuildingBlock: MIFKUJ_clean_linker_0, # of connection points: 2
#     Edge 21, Type (0, 0), BuildingBlock: MIFKUJ_clean_linker_0, # of connection points: 2
#     Edge 22, Type (0, 0), BuildingBlock: MIFKUJ_clean_linker_0, # of connection points: 2
#     Edge 23, Type (0, 0), BuildingBlock: MIFKUJ_clean_linker_0, # of connection points: 2
# Relax obj value: 0.094
# Max RMSD: 0.169
# Mean RMSD: 0.169
data_MOF--net-qtz-e--node1-GEDQOX_clean_sbu_0--edge1-MIFKUJ_clean_linker_0
_symmetry_space_group_name_H-M    P1
_symmetry_Int_Tables_number       1
_symmetry_cell_setting            triclinic
loop_
_symmetry_equiv_pos_as_xyz
'x, y, z'
_cell_length_a     33.248927
_cell_length_b     33.472822
_cell_length_c     63.490344
_cell_angle_alpha  90.129402
_cell_angle_beta   90.020243
_cell_angle_gamma 119.77081
loop_
_atom_site_label
_atom_site_type_symbol
_atom_site_fract_x
_atom_site_fract_y
_atom_site_fract_z
_atom_type_partial_charge
Nd0 Nd 0.15983 0.36231 0.0556 0.0
Nd1 Nd 0.22476 0.45597 0.03591 0.0
C2 C 0.09325 0.28772 0.07403 0.0
C3 C 0.06726 0.27671 0.09394 0.0
C4 C 0.06072 0.30982 0.10458 0.0
C5 C 0.04075 0.30058 0.12465 0.0
C6 C 0.02691 0.25798 0.13444 0.0
C7 C 0.03242 0.22449 0.1234 0.0
C8 C 0.05252 0.23386 0.10338 0.0
C9 C 0.25216 0.3988 0.06447 0.0
C10 C 0.17786 0.45555 0.08146 0.0
C11 C 0.28871 0.53623 0.02125 0.0
C12 C 0.30691 0.55167 0.99987 0.0
C13 C 0.3029 0.51954 0.98455 0.0
C14 C 0.32045 0.53403 0.96428 0.0
C15 C 0.34179 0.58084 0.9589 0.0
C16 C 0.34491 0.61284 0.97414 0.0
C17 C 0.32776 0.59835 0.99452 0.0
C18 C 0.13871 0.40853 0.0171 0.0
C19 C 0.21129 0.36479 1.01241 0.0
O20 O 0.08513 0.31152 0.06002 0.0
O21 O 0.13727 0.30141 0.07603 0.0
O22 O 0.22548 0.35562 0.05991 0.0
O23 O 0.23004 0.42001 0.0642 0.0
O24 O 0.15532 0.41001 0.08062 0.0
O25 O 0.20714 0.48102 0.06653 0.0
O26 O 0.2983 0.50611 0.0296 0.0
O27 O 0.2457 0.52615 0.02435 0.0
O28 O 0.17729 0.43142 1.00695 0.0
O29 O 0.14664 0.41159 0.03662 0.0
O30 O 0.24266 0.4067 0.01844 0.0
O31 O 0.17108 0.34211 0.02232 0.0
H32 H 0.07202 0.34314 0.09756 0.0
H33 H 0.03747 0.32735 0.13274 0.0
H34 H 0.02145 0.19108 0.13029 0.0
H35 H 0.05747 0.20794 0.09544 0.0
H36 H 0.28644 0.48323 0.98829 0.0
H37 H 0.31714 0.50861 0.95278 0.0
H38 H 0.36124 0.64912 0.97037 0.0
H39 H 0.33084 0.62355 1.00609 0.0
Nd40 Nd 0.81735 0.16935 0.39241 0.0
Nd41 Nd 0.77172 0.22396 0.37278 0.0
C42 C 0.82899 0.10782 0.41338 0.0
C43 C 0.81601 0.0877 0.43461 0.0
C44 C 0.80417 0.04175 0.43781 0.0
C45 C 0.78965 0.02149 0.45764 0.0
C46 C 0.78679 0.04688 0.47474 0.0
C47 C 0.79878 0.09308 0.4714 0.0
C48 C 0.81302 0.11319 0.45153 0.0
C49 C 0.86887 0.26295 0.39341 0.0
C50 C 0.75183 0.19841 0.42184 0.0
C51 C 0.75512 0.28241 0.35171 0.0
C52 C 0.76296 0.30208 0.33026 0.0
C53 C 0.80762 0.32621 0.32147 0.0
C54 C 0.81417 0.34525 0.3013 0.0
C55 C 0.77623 0.34044 0.28941 0.0
C56 C 0.73158 0.31572 0.29821 0.0
C57 C 0.7251 0.29698 0.31841 0.0
C58 C 0.71713 0.1312 0.37372 0.0
C59 C 0.84005 0.19901 0.3438 0.0
O60 O 0.79445 0.0967 0.40037 0.0
O61 O 0.86075 0.15138 0.41232 0.0
O62 O 0.88771 0.23738 0.39018 0.0
O63 O 0.82627 0.23889 0.3967 0.0
O64 O 0.76985 0.17124 0.41883 0.0
O65 O 0.75337 0.22721 0.40719 0.0
O66 O 0.7916 0.29515 0.36364 0.0
O67 O 0.72469 0.23862 0.35354 0.0
O68 O 0.7014 0.15949 0.37604 0.0
O69 O 0.75979 0.15186 0.36953 0.0
O70 O 0.82126 0.22525 0.34715 0.0
O71 O 0.83936 0.17001 0.35814 0.0
H72 H 0.8056 0.02132 0.42488 0.0
H73 H 0.77981 0.98562 0.45943 0.0
H74 H 0.7975 0.11392 0.48415 0.0
H75 H 0.82147 0.14862 0.44938 0.0
H76 H 0.83758 0.33066 0.3302 0.0
H77 H 0.84909 0.36441 0.29518 0.0
H78 H 0.7014 0.31044 0.28942 0.0
H79 H 0.69034 0.2784 0.32479 0.0
Nd80 Nd 0.61182 0.77237 0.71855 0.0
Nd81 Nd 0.52434 0.77294 0.70344 0.0
C82 C 0.67377 0.75436 0.73566 0.0
C83 C 0.68081 0.74041 0.75691 0.0
C84 C 0.64658 0.70034 0.76682 0.0
C85 C 0.65317 0.68966 0.78744 0.0
C86 C 0.69401 0.7189 0.79869 0.0
C87 C 0.72815 0.75886 0.7886 0.0
C88 C 0.7217 0.76929 0.76799 0.0
C89 C 0.60745 0.85015 0.7279 0.0
C90 C 0.5203 0.72752 0.74959 0.0
C91 C 0.45182 0.78021 0.69235 0.0
C92 C 0.429 0.77754 0.67188 0.0
C93 C 0.42884 0.81651 0.66386 0.0
C94 C 0.4102 0.81535 0.64393 0.0
C95 C 0.39077 0.77496 0.63159 0.0
C96 C 0.38982 0.73559 0.63997 0.0
C97 C 0.40888 0.73691 0.65978 0.0
C98 C 0.54153 0.71081 0.68254 0.0
C99 C 0.61744 0.82427 0.67555 0.0
O100 O 0.63874 0.7243 0.72436 0.0
O101 O 0.67928 0.7957 0.7344 0.0
O102 O 0.64527 0.85155 0.72165 0.0
O103 O 0.57498 0.80943 0.72917 0.0
O104 O 0.56308 0.73602 0.74635 0.0
O105 O 0.4983 0.73955 0.73589 0.0
O106 O 0.49313 0.81613 0.69517 0.0
O107 O 0.44861 0.74192 0.69941 0.0
O108 O 0.52588 0.73511 0.67373 0.0
O109 O 0.54658 0.71897 0.70206 0.0
O110 O 0.58307 0.82853 0.68362 0.0
O111 O 0.63052 0.79651 0.6842 0.0
H112 H 0.61452 0.67742 0.75875 0.0
H113 H 0.62629 0.65828 0.79449 0.0
H114 H 0.75966 0.78281 0.79675 0.0
H115 H 0.74848 0.80059 0.7608 0.0
H116 H 0.44393 0.84817 0.6729 0.0
H117 H 0.41202 0.84651 0.63802 0.0
H118 H 0.37427 0.70352 0.63126 0.0
H119 H 0.40819 0.7061 0.66546 0.0
Nd120 Nd 0.82838 0.62197 0.05365 0.0
Nd121 Nd 0.74884 0.52836 0.03886 0.0
C122 C 0.90569 0.68851 0.07049 0.0
C123 C 0.92632 0.69547 0.09177 0.0
C124 C 0.9745 0.72091 0.09446 0.0
C125 C -0.00592 0.72791 0.11464 0.0
C126 C 0.96577 0.70961 0.13255 0.0
C127 C 0.91748 0.6835 0.12972 0.0
C128 C 0.898 0.67649 0.10956 0.0
C129 C 0.74122 0.60388 0.06415 0.0
C130 C 0.79625 0.53119 0.08425 0.0
C131 C 0.67286 0.45171 0.02859 0.0
C132 C 0.64846 0.43239 1.00835 0.0
C133 C 0.62616 0.4527 0.99757 0.0
C134 C 0.60623 0.43636 0.97777 0.0
C135 C 0.60818 0.39942 0.96823 0.0
C136 C 0.62947 0.3784 0.97923 0.0
C137 C 0.64924 0.39461 0.9991 0.0
C138 C 0.83092 0.55765 0.01768 0.0
C139 C 0.7762 0.61811 1.01052 0.0
O140 O 0.90441 0.65504 0.05929 0.0
O141 O 0.8673 0.69012 0.06914 0.0
O142 O 0.7731 0.64425 0.05786 0.0
O143 O 0.7562 0.57616 0.06489 0.0
O144 O 0.82149 0.57631 0.082 0.0
O145 O 0.76664 0.50454 0.06965 0.0
O146 O 0.67258 0.48835 0.03577 0.0
O147 O 0.71314 0.45394 0.03093 0.0
O148 O 0.7905 0.53702 1.00881 0.0
O149 O 0.82672 0.56128 0.03722 0.0
O150 O 0.74106 0.58115 0.01892 0.0
O151 O 0.81799 0.63755 0.01926 0.0
H152 H -0.003 0.73572 0.08096 0.0
H153 H 0.03135 0.74854 0.11625 0.0
H154 H 0.8947 0.6683 0.14309 0.0
H155 H 0.8607 0.65644 0.10789 0.0
H156 H 0.62491 0.48192 1.00417 0.0
H157 H 0.59058 0.45366 0.96964 0.0
H158 H 0.63104 0.3495 0.97244 0.0
H159 H 0.66594 0.37812 1.00706 0.0
Nd160 Nd 0.18426 0.8276 0.38819 0.0
Nd161 Nd 0.20887 0.75274 0.37283 0.0
C162 C 0.18569 0.89706 0.40875 0.0
C163 C 0.20074 0.91709 0.43001 0.0
C164 C 0.23801 0.91658 0.4402 0.0
C165 C 0.25059 0.93383 0.46072 0.0
C166 C 0.22608 0.95183 0.47152 0.0
C167 C 0.1888 0.95227 0.46121 0.0
C168 C 0.17629 0.93507 0.44068 0.0
C169 C 0.11219 0.74036 0.38334 0.0
C170 C 0.2182 0.77334 0.42229 0.0
C171 C 0.20998 0.6836 0.35301 0.0
C172 C 0.20213 0.66552 0.33129 0.0
C173 C 0.17618 0.67528 0.31683 0.0
C174 C 0.17073 0.6594 0.29602 0.0
C175 C 0.19062 0.63291 0.28932 0.0
C176 C 0.2164 0.62316 0.30397 0.0
C177 C 0.22212 0.63936 0.3247 0.0
C178 C 0.28183 0.83688 0.38078 0.0
C179 C 0.17397 0.80574 0.33865 0.0
O180 O 0.21827 0.90212 0.39558 0.0
O181 O 0.14929 0.85582 0.40807 0.0
O182 O 0.1083 0.77621 0.37883 0.0
O183 O 0.15125 0.75177 0.39096 0.0
O184 O 0.21388 0.80961 0.41749 0.0
O185 O 0.21144 0.7414 0.40818 0.0
O186 O 0.17379 0.67943 0.36311 0.0
O187 O 0.24707 0.72367 0.356 0.0
O188 O 0.28241 0.79893 0.38415 0.0
O189 O 0.24517 0.83019 0.3717 0.0
O190 O 0.18201 0.77182 0.34326 0.0
O191 O 0.17631 0.83578 0.35288 0.0
H192 H 0.25713 0.90241 0.4324 0.0
H193 H 0.27905 0.93235 0.46826 0.0
H194 H 0.16953 0.96637 0.46893 0.0
H195 H 0.14731 0.93559 0.43315 0.0
H196 H 0.16019 0.69522 0.3216 0.0
H197 H 0.15028 0.66726 0.2853 0.0
H198 H 0.23297 0.60366 0.29934 0.0
H199 H 0.24255 0.63176 0.33556 0.0
Nd200 Nd 0.36511 0.18436 0.72521 0.0
Nd201 Nd 0.46367 0.22594 0.70842 0.0
C202 C 0.29117 0.17258 0.74592 0.0
C203 C 0.28477 0.18717 0.76717 0.0
C204 C 0.30522 0.23402 0.77263 0.0
C205 C 0.30076 0.24725 0.79303 0.0
C206 C 0.27594 0.21404 0.80854 0.0
C207 C 0.25557 0.16718 0.80303 0.0
C208 C 0.25979 0.15395 0.78257 0.0
C209 C 0.407 0.13261 0.73065 0.0
C210 C 0.45453 0.25419 0.75538 0.0
C211 C 0.54103 0.23987 0.69006 0.0
C212 C 0.5557 0.23408 0.66883 0.0
C213 C 0.52921 0.19377 0.65698 0.0
C214 C 0.54378 0.189 0.63691 0.0
C215 C 0.58501 0.22451 0.62824 0.0
C216 C 0.61129 0.26486 0.64013 0.0
C217 C 0.59679 0.26952 0.66022 0.0
C218 C 0.42423 0.28008 0.70378 0.0
C219 C 0.37343 0.15571 0.67804 0.0
O220 O 0.31248 0.20495 0.73184 0.0
O221 O 0.3041 0.1415 0.74539 0.0
O222 O 0.36374 0.11453 0.72518 0.0
O223 O 0.42511 0.17513 0.73344 0.0
O224 O 0.41069 0.23892 0.75023 0.0
O225 O 0.48233 0.24762 0.74279 0.0
O226 O 0.51321 0.20228 0.70035 0.0
O227 O 0.53006 0.27217 0.6922 0.0
O228 O 0.4671 0.29562 0.70924 0.0
O229 O 0.40404 0.23742 0.70021 0.0
O230 O 0.41833 0.17482 0.68223 0.0
O231 O 0.34438 0.15822 0.69147 0.0
H232 H 0.32501 0.26063 0.76122 0.0
H233 H 0.31642 0.28362 0.79655 0.0
H234 H 0.23688 0.14057 0.81459 0.0
H235 H 0.244 0.11763 0.77887 0.0
H236 H 0.4972 0.16594 0.66318 0.0
H237 H 0.52243 0.15775 0.62807 0.0
H238 H 0.64344 0.29264 0.63402 0.0
H239 H 0.61778 0.30086 0.66908 0.0
H240 H 0.191 0.67706 0.25271 0.0
H241 H 0.18436 0.6492 0.21648 0.0
H242 H 0.17133 0.5222 0.23947 0.0
H243 H 0.17688 0.54923 0.27568 0.0
H244 H 0.23482 0.55914 0.2075 0.0
H245 H 0.07747 0.52445 0.22111 0.0
H246 H 0.01963 0.54584 0.23235 0.0
H247 H 0.06185 0.64452 0.18229 0.0
H248 H 0.12018 0.62399 0.17084 0.0
H249 H 0.10814 0.42041 0.11072 0.0
H250 H 0.10594 0.45427 0.1446 0.0
H251 H 0.23586 0.57552 0.1302 0.0
H252 H 0.23813 0.5421 0.09616 0.0
H253 H 0.11249 0.54201 0.15742 0.0
H254 H 0.30105 0.59537 0.17587 0.0
H255 H 0.36024 0.57518 0.16535 0.0
H256 H 0.25364 0.43638 0.15251 0.0
H257 H 0.19396 0.45558 0.16326 0.0
C258 C 0.18607 0.64293 0.2501 0.0
C259 C 0.18481 0.61556 0.2672 0.0
C260 C 0.18246 0.62712 0.22935 0.0
C261 C 0.17738 0.58359 0.22524 0.0
C262 C 0.17561 0.55605 0.24224 0.0
C263 C 0.179 0.57169 0.26296 0.0
C264 C 0.17474 0.56684 0.20325 0.0
C265 C 0.20811 0.55553 0.19657 0.0
C266 C 0.13987 0.56201 0.18894 0.0
C267 C 0.10342 0.57293 0.19522 0.0
C268 C 0.07445 0.55077 0.21252 0.0
C269 C 0.04157 0.56273 0.21892 0.0
C270 C 0.03716 0.59663 0.20808 0.0
C271 C 0.06533 0.61832 0.19069 0.0
C272 C 0.09822 0.60644 0.1842 0.0
C273 C 0.13594 0.45453 0.1146 0.0
C274 C 0.17349 0.47833 0.10076 0.0
C275 C 0.13444 0.47398 0.13393 0.0
C276 C 0.17081 0.51732 0.13996 0.0
C277 C 0.20743 0.542 0.12585 0.0
C278 C 0.20863 0.52284 0.10638 0.0
C279 C 0.17273 0.5346 0.16175 0.0
C280 C 0.1393 0.54595 0.16835 0.0
C281 C 0.20747 0.5394 0.17608 0.0
C282 C 0.24308 0.52708 0.17015 0.0
C283 C 0.29031 0.5605 0.17089 0.0
C284 C 0.32392 0.54924 0.16488 0.0
C285 C 0.3107 0.50457 0.15819 0.0
C286 C 0.26384 0.47101 0.15761 0.0
C287 C 0.23011 0.48208 0.16365 0.0
H288 H 0.33677 0.49594 0.1535 0.0
H289 H 0.01191 0.60607 0.21315 0.0
H290 H 0.62075 0.28894 0.5969 0.0
H291 H 0.64689 0.28102 0.56193 0.0
H292 H 0.6102 0.14102 0.57607 0.0
H293 H 0.58473 0.14897 0.61128 0.0
H294 H 0.69647 0.19025 0.55711 0.0
H295 H 0.54137 0.16195 0.5454 0.0
H296 H 0.47923 0.18145 0.54838 0.0
H297 H 0.55994 0.30442 0.51243 0.0
H298 H 0.62312 0.28624 0.50965 0.0
H299 H 0.72204 0.13157 0.45206 0.0
H300 H 0.69099 0.13226 0.48689 0.0
H301 H 0.70675 0.26582 0.47392 0.0
H302 H 0.73679 0.26483 0.43894 0.0
H303 H 0.62814 0.21577 0.49259 0.0
H304 H 0.78322 0.24831 0.50435 0.0
H305 H 0.85067 0.23648 0.50353 0.0
H306 H 0.77701 0.11461 0.54097 0.0
H307 H 0.70822 0.12437 0.54119 0.0
C308 C 0.61853 0.25656 0.59263 0.0
C309 C 0.60057 0.21956 0.60688 0.0
C310 C 0.63317 0.25197 0.57258 0.0
C311 C 0.63011 0.21028 0.56631 0.0
C312 C 0.61273 0.17344 0.58056 0.0
C313 C 0.59785 0.17793 0.6006 0.0
C314 C 0.6451 0.20523 0.54488 0.0
C315 C 0.68107 0.19502 0.54296 0.0
C316 C 0.62583 0.21282 0.52647 0.0
C317 C 0.58717 0.22293 0.52749 0.0
C318 C 0.54598 0.19327 0.53822 0.0
C319 C 0.51055 0.20409 0.53987 0.0
C320 C 0.51565 0.2442 0.53064 0.0
C321 C 0.55607 0.27341 0.51961 0.0
C322 C 0.59171 0.26286 0.51799 0.0
C323 C 0.71889 0.1611 0.45664 0.0
C324 C 0.73199 0.19823 0.44275 0.0
C325 C 0.70123 0.1615 0.47659 0.0
C326 C 0.69706 0.19939 0.48321 0.0
C327 C 0.70958 0.23617 0.46922 0.0
C328 C 0.72686 0.23563 0.44922 0.0
C329 C 0.67998 0.20107 0.50471 0.0
C330 C 0.64347 0.2106 0.50667 0.0
C331 C 0.69932 0.19353 0.52317 0.0
C332 C 0.74022 0.18674 0.52252 0.0
C333 C 0.78103 0.21849 0.51209 0.0
C334 C 0.81951 0.21212 0.51172 0.0
C335 C 0.81799 0.17461 0.52206 0.0
C336 C 0.77795 0.14337 0.53279 0.0
C337 C 0.73912 0.14919 0.53296 0.0
H338 H 0.84788 0.16983 0.52184 0.0
H339 H 0.48833 0.2527 0.53206 0.0
H340 H 0.39976 0.56003 0.9371 0.0
H341 H 0.42983 0.58394 0.90129 0.0
H342 H 0.35591 0.65904 0.89635 0.0
H343 H 0.32624 0.6357 0.93226 0.0
H344 H 0.34388 0.60009 0.86126 0.0
H345 H 0.46527 0.71669 0.90377 0.0
H346 H 0.52631 0.74939 0.93093 0.0
H347 H 0.59831 0.6886 0.90046 0.0
H348 H 0.53711 0.65452 0.87342 0.0
H349 H 0.44567 0.72746 0.76791 0.0
H350 H 0.41395 0.69985 0.80299 0.0
H351 H 0.51252 0.65315 0.81242 0.0
H352 H 0.54541 0.68218 0.77772 0.0
H353 H 0.51139 0.69607 0.84549 0.0
H354 H 0.39244 0.57763 0.80373 0.0
H355 H 0.33361 0.54448 0.7756 0.0
H356 H 0.25849 0.60453 0.80372 0.0
H357 H 0.31723 0.63858 0.83187 0.0
C358 C 0.39001 0.58168 0.92835 0.0
C359 C 0.36071 0.59607 0.93741 0.0
C360 C 0.40733 0.59544 0.90797 0.0
C361 C 0.39517 0.62334 0.89621 0.0
C362 C 0.36571 0.63754 0.90519 0.0
C363 C 0.34901 0.62442 0.9257 0.0
C364 C 0.41257 0.63708 0.87441 0.0
C365 C 0.38047 0.62151 0.85778 0.0
C366 C 0.46041 0.66374 0.86988 0.0
C367 C 0.49618 0.68248 0.88671 0.0
C368 C 0.49364 0.70956 0.90307 0.0
C369 C 0.52838 0.72848 0.91841 0.0
C370 C 0.56609 0.72097 0.91746 0.0
C371 C 0.569 0.69424 0.90125 0.0
C372 C 0.53425 0.67506 0.88592 0.0
C373 C 0.46023 0.71082 0.77736 0.0
C374 C 0.4981 0.70707 0.77001 0.0
C375 C 0.44192 0.69485 0.79742 0.0
C376 C 0.46044 0.67389 0.81037 0.0
C377 C 0.49762 0.66924 0.80282 0.0
C378 C 0.51635 0.68577 0.78291 0.0
C379 C 0.44277 0.65897 0.83216 0.0
C380 C 0.47479 0.67435 0.84885 0.0
C381 C 0.39493 0.63148 0.8367 0.0
C382 C 0.35949 0.61103 0.8198 0.0
C383 C 0.36357 0.58407 0.80383 0.0
C384 C 0.3302 0.56506 0.78789 0.0
C385 C 0.2924 0.57249 0.78784 0.0
C386 C 0.28782 0.59885 0.80376 0.0
C387 C 0.32112 0.61798 0.81972 0.0
H388 H 0.2666 0.55774 0.77549 0.0
H389 H 0.5932 0.73619 0.9292 0.0
H390 H 0.73076 0.38165 0.27175 0.0
H391 H 0.7391 0.41243 0.23622 0.0
H392 H 0.8463 0.37915 0.22313 0.0
H393 H 0.83728 0.34681 0.25851 0.0
H394 H 0.86735 0.46764 0.2086 0.0
H395 H 0.74479 0.31065 0.20404 0.0
H396 H 0.67148 0.24254 0.21463 0.0
H397 H 0.59799 0.31539 0.20246 0.0
H398 H 0.67101 0.3842 0.19209 0.0
H399 H 0.77102 0.44137 0.09247 0.0
H400 H 0.77403 0.40818 0.1264 0.0
H401 H 0.82727 0.54136 0.15587 0.0
H402 H 0.82643 0.57485 0.12202 0.0
H403 H 0.73061 0.39807 0.16107 0.0
H404 H 0.8891 0.55491 0.19724 0.0
H405 H 0.96143 0.62232 0.18502 0.0
H406 H 0.9659 0.54462 0.13207 0.0
H407 H 0.89346 0.47689 0.14388 0.0
C408 C 0.75583 0.38036 0.26131 0.0
C409 C 0.78298 0.36121 0.26802 0.0
C410 C 0.76078 0.39833 0.24103 0.0
C411 C 0.79309 0.39779 0.227 0.0
C412 C 0.82125 0.38001 0.23375 0.0
C413 C 0.81609 0.36166 0.25402 0.0
C414 C 0.79613 0.41442 0.20508 0.0
C415 C 0.83758 0.45235 0.19815 0.0
C416 C 0.75747 0.3941 0.19135 0.0
C417 C 0.71344 0.3527 0.19746 0.0
C418 C 0.71305 0.31227 0.20378 0.0
C419 C 0.67154 0.27351 0.20971 0.0
C420 C 0.63012 0.27467 0.20926 0.0
C421 C 0.63011 0.31456 0.20282 0.0
C422 C 0.67154 0.35343 0.19689 0.0
C423 C 0.78385 0.46359 0.10617 0.0
C424 C 0.7989 0.5108 0.10451 0.0
C425 C 0.78548 0.4446 0.12556 0.0
C426 C 0.80168 0.47233 0.14372 0.0
C427 C 0.81605 0.51938 0.14207 0.0
C428 C 0.8153 0.5385 0.12266 0.0
C429 C 0.8017 0.45183 0.16453 0.0
C430 C 0.76067 0.4132 0.17135 0.0
C431 C 0.84096 0.47119 0.17801 0.0
C432 C 0.88581 0.51092 0.17141 0.0
C433 C 0.90573 0.55212 0.18308 0.0
C434 C 0.94657 0.59045 0.17616 0.0
C435 C 0.96816 0.58774 0.15776 0.0
C436 C 0.94905 0.54669 0.14628 0.0
C437 C 0.90804 0.50837 0.15304 0.0
H438 H -0.00026 0.6174 0.1524 0.0
H439 H 0.59801 0.24463 0.21386 0.0
H440 H 0.39435 0.72814 0.59661 0.0
H441 H 0.36358 0.72581 0.56155 0.0
H442 H 0.31736 0.81951 0.58171 0.0
H443 H 0.34513 0.8195 0.61729 0.0
H444 H 0.25399 0.75681 0.55818 0.0
H445 H 0.41755 0.85237 0.55189 0.0
H446 H 0.499 0.87189 0.55585 0.0
H447 H 0.47654 0.76318 0.51308 0.0
H448 H 0.39438 0.74182 0.50946 0.0
H449 H 0.22326 0.82516 0.45655 0.0
H450 H 0.25269 0.82432 0.49161 0.0
H451 H 0.27854 0.71544 0.47243 0.0
H452 H 0.24943 0.71634 0.43702 0.0
H453 H 0.35235 0.78546 0.49499 0.0
H454 H 0.18668 0.69026 0.50271 0.0
H455 H 0.10569 0.67307 0.49958 0.0
H456 H 0.13566 0.78861 0.53932 0.0
H457 H 0.217 0.80682 0.54247 0.0
C458 C 0.37698 0.74772 0.59378 0.0
C459 C 0.37234 0.77402 0.60997 0.0
C460 C 0.35996 0.74688 0.57354 0.0
C461 C 0.3388 0.77313 0.56877 0.0
C462 C 0.33373 0.79911 0.5849 0.0
C463 C 0.35018 0.79949 0.60524 0.0
C464 C 0.32172 0.77328 0.54704 0.0
C465 C 0.27581 0.76369 0.54443 0.0
C466 C 0.34981 0.78154 0.52894 0.0
C467 C 0.39958 0.79514 0.5306 0.0
C468 C 0.42984 0.83237 0.54344 0.0
C469 C 0.47616 0.84376 0.54564 0.0
C470 C 0.49295 0.81879 0.53473 0.0
C471 C 0.46346 0.78243 0.52156 0.0
C472 C 0.41695 0.77058 0.51947 0.0
C473 C 0.23502 0.80085 0.45972 0.0
C474 C 0.23367 0.77059 0.44393 0.0
C475 C 0.25178 0.80038 0.47984 0.0
C476 C 0.2675 0.76957 0.48473 0.0
C477 C 0.2665 0.73945 0.46902 0.0
C478 C 0.24951 0.73976 0.44884 0.0
C479 C 0.2848 0.76889 0.50628 0.0
C480 C 0.33071 0.77851 0.50881 0.0
C481 C 0.25702 0.76135 0.52435 0.0
C482 C 0.20799 0.75008 0.5227 0.0
C483 C 0.17605 0.71215 0.51068 0.0
C484 C 0.13008 0.7022 0.50892 0.0
C485 C 0.11556 0.72978 0.51921 0.0
C486 C 0.14696 0.76729 0.53134 0.0
C487 C 0.19298 0.77739 0.53315 0.0
H488 H 0.07996 0.72204 0.51782 0.0
H489 H 0.52881 0.82761 0.53649 0.0
H490 H 0.64788 0.37692 0.936 0.0
H491 H 0.61958 0.35521 0.89995 0.0
H492 H 0.49949 0.36721 0.91494 0.0
H493 H 0.52706 0.38788 0.95129 0.0
H494 H 0.4769 0.29081 0.89123 0.0
H495 H 0.58795 0.45185 0.88791 0.0
H496 H 0.66398 0.52041 0.8949 0.0
H497 H 0.73077 0.46312 0.85761 0.0
H498 H 0.65521 0.39392 0.8506 0.0
H499 H 0.40895 0.2781 0.78429 0.0
H500 H 0.43355 0.30691 0.82006 0.0
H501 H 0.56153 0.30606 0.81025 0.0
H502 H 0.53757 0.27812 0.7743 0.0
H503 H 0.57764 0.38056 0.83164 0.0
H504 H 0.46678 0.2192 0.83523 0.0
H505 H 0.39153 0.14893 0.82962 0.0
H506 H 0.3245 0.20438 0.86793 0.0
H507 H 0.39902 0.27598 0.873 0.0
C508 C 0.61514 0.37437 0.93174 0.0
C509 C 0.5898 0.38426 0.94653 0.0
C510 C 0.59924 0.36241 0.91104 0.0
C511 C 0.55778 0.36029 0.90464 0.0
C512 C 0.53174 0.36895 0.91949 0.0
C513 C 0.54769 0.38104 0.94021 0.0
C514 C 0.54197 0.34933 0.8824 0.0
C515 C 0.4985 0.31086 0.87818 0.0
C516 C 0.57061 0.37509 0.8654 0.0
C517 C 0.61593 0.41744 0.86892 0.0
C518 C 0.61887 0.45376 0.88128 0.0
C519 C 0.66187 0.49271 0.88526 0.0
C520 C 0.70219 0.49587 0.87687 0.0
C521 C 0.69952 0.46045 0.8642 0.0
C522 C 0.6566 0.4214 0.86019 0.0
C523 C 0.44253 0.28441 0.78965 0.0
C524 C 0.47116 0.27547 0.77643 0.0
C525 C 0.45648 0.30075 0.81017 0.0
C526 C 0.4991 0.30796 0.81802 0.0
C527 C 0.52845 0.30067 0.8046 0.0
C528 C 0.51466 0.28461 0.78402 0.0
C529 C 0.51261 0.3216 0.84038 0.0
C530 C 0.55572 0.36068 0.84465 0.0
C531 C 0.48355 0.29631 0.85743 0.0
C532 C 0.43851 0.25338 0.85421 0.0
C533 C 0.43592 0.2168 0.84218 0.0
C534 C 0.39334 0.17674 0.83907 0.0
C535 C 0.35319 0.17241 0.84824 0.0
C536 C 0.35557 0.20804 0.86064 0.0
C537 C 0.39795 0.24846 0.86357 0.0
H538 H 0.32027 0.14133 0.84585 0.0
H539 H 0.73549 0.52586 0.88013 0.0
H540 H 0.30925 0.4895 0.07164 0.0
H541 H 0.39362 0.53026 0.07424 0.0
H542 H 0.39321 0.40188 0.06707 0.0
H543 H 0.30828 0.36068 0.06381 0.0
H544 H 0.45055 0.46602 0.10196 0.0
H545 H 0.41824 0.4607 0.0269 0.0
H546 H 0.38466 0.47484 0.99506 0.0
H547 H 0.45561 0.6196 1.00875 0.0
H548 H 0.48893 0.60626 0.04091 0.0
H549 H 0.67425 0.51983 0.0762 0.0
H550 H 0.59208 0.49253 0.07968 0.0
H551 H 0.61562 0.62877 0.06578 0.0
H552 H 0.6986 0.65582 0.06095 0.0
H553 H 0.54604 0.56933 0.04424 0.0
H554 H 0.58429 0.57968 0.11656 0.0
H555 H 0.62009 0.57009 0.14875 0.0
H556 H 0.53907 0.42318 0.14248 0.0
H557 H 0.50323 0.43182 0.11008 0.0
C558 C 0.3271 0.4699 0.07056 0.0
C559 C 0.30253 0.42205 0.06728 0.0
C560 C 0.37516 0.49324 0.07209 0.0
C561 C 0.39922 0.46895 0.07069 0.0
C562 C 0.37482 0.42096 0.06813 0.0
C563 C 0.3266 0.39759 0.06626 0.0
C564 C 0.45006 0.49399 0.07157 0.0
C565 C 0.47167 0.48833 0.08932 0.0
C566 C 0.47695 0.5247 0.05546 0.0
C567 C 0.45573 0.53241 0.03644 0.0
C568 C 0.42616 0.49547 0.0233 0.0
C569 C 0.4073 0.50336 1.00515 0.0
C570 C 0.41814 0.54811 0.99988 0.0
C571 C 0.44736 0.58499 1.01285 0.0
C572 C 0.46621 0.57727 0.03104 0.0
C573 C 0.66204 0.5441 0.07393 0.0
C574 C 0.69254 0.58981 0.06812 0.0
C575 C 0.61505 0.52857 0.07621 0.0
C576 C 0.59774 0.55879 0.07343 0.0
C577 C 0.62836 0.60494 0.06812 0.0
C578 C 0.6756 0.62039 0.06543 0.0
C579 C 0.54718 0.54067 0.07449 0.0
C580 C 0.5253 0.54766 0.05712 0.0
C581 C 0.52003 0.5119 0.09118 0.0
C582 C 0.54122 0.50644 0.1108 0.0
C583 C 0.57429 0.54532 0.12197 0.0
C584 C 0.59457 0.54004 0.14027 0.0
C585 C 0.5819 0.49606 0.14764 0.0
C586 C 0.54883 0.45723 0.13675 0.0
C587 C 0.52846 0.4623 0.11844 0.0
H588 H 0.59767 0.49205 0.1618 0.0
H589 H 0.40425 0.55432 0.98566 0.0
H590 H 0.11794 0.66673 0.39521 0.0
H591 H 0.0654 0.58662 0.38706 0.0
H592 H 0.97474 0.62346 0.3544 0.0
H593 H 0.03009 0.70575 0.36118 0.0
H594 H 0.95793 0.55435 0.39969 0.0
H595 H 0.97148 0.56973 0.32329 0.0
H596 H 0.01282 0.59698 0.28946 0.0
H597 H 0.10127 0.5423 0.30574 0.0
H598 H 0.06017 0.51429 0.33956 0.0
H599 H 0.83077 0.31552 0.40174 0.0
H600 H 0.85972 0.395 0.39224 0.0
H601 H 0.98803 0.40501 0.37123 0.0
H602 H 0.95604 0.32247 0.37826 0.0
H603 H 0.96904 0.45202 0.34622 0.0
H604 H 0.97224 0.44662 0.42145 0.0
H605 H 0.94169 0.42009 0.45719 0.0
H606 H 0.841 0.46327 0.4481 0.0
H607 H 0.87062 0.48957 0.41219 0.0
C608 C 0.08757 0.65819 0.38576 0.0
C609 C 0.0783 0.69235 0.37856 0.0
C610 C 0.05773 0.61241 0.38106 0.0
C611 C 0.01699 0.59957 0.36978 0.0
C612 C 0.00679 0.63323 0.3627 0.0
C613 C 0.03787 0.67983 0.36684 0.0
C614 C 0.98316 0.55035 0.36904 0.0
C615 C 0.95859 0.53153 0.38768 0.0
C616 C 0.98668 0.52154 0.3538 0.0
C617 C 0.01289 0.54015 0.33398 0.0
C618 C 5e-05 0.56394 0.31974 0.0
C619 C 0.02327 0.57931 0.30053 0.0
C620 C 0.05961 0.57139 0.29547 0.0
C621 C 0.073 0.54827 0.30965 0.0
C622 C 0.04964 0.53249 0.3288 0.0
C623 C 0.86501 0.33442 0.39487 0.0
C624 C 0.89095 0.3128 0.39039 0.0
C625 C 0.88177 0.38014 0.38967 0.0
C626 C 0.92642 0.4064 0.3814 0.0
C627 C 0.95331 0.38531 0.37753 0.0
C628 C 0.93545 0.33852 0.38183 0.0
C629 C 0.94503 0.45599 0.37733 0.0
C630 C 0.96674 0.47438 0.35797 0.0
C631 C 0.94102 0.4851 0.39242 0.0
C632 C 0.92327 0.46953 0.41405 0.0
C633 C 0.94338 0.45017 0.42703 0.0
C634 C 0.92626 0.43521 0.44732 0.0
C635 C 0.88932 0.43984 0.45488 0.0
C636 C 0.86954 0.45961 0.4422 0.0
C637 C 0.88649 0.47458 0.42189 0.0
H638 H 0.87611 0.42822 0.47059 0.0
H639 H 0.07731 0.58305 0.28054 0.0
H640 H 0.38058 0.04546 0.71696 0.0
H641 H 0.42906 0.00912 0.71557 0.0
H642 H 0.54371 0.13196 0.74191 0.0
H643 H 0.49535 0.16763 0.74393 0.0
H644 H 0.50994 0.03399 0.69479 0.0
H645 H 0.60589 0.10072 0.77367 0.0
H646 H 0.59448 0.12688 0.8084 0.0
H647 H 0.44708 0.04166 0.80181 0.0
H648 H 0.45767 0.01459 0.76719 0.0
H649 H 0.67063 0.94149 0.72187 0.0
H650 H 0.65415 0.00566 0.72152 0.0
H651 H 0.51039 0.9105 0.73482 0.0
H652 H 0.52671 0.84732 0.73621 0.0
H653 H 0.57811 0.0109 0.76003 0.0
H654 H 0.48041 0.94733 0.68164 0.0
H655 H 0.48834 0.91778 0.64715 0.0
H656 H 0.63637 -0.00818 0.65356 0.0
H657 H 0.62944 0.02322 0.68766 0.0
C658 C 0.41596 0.06434 0.72263 0.0
C659 C 0.43427 0.10912 0.73061 0.0
C660 C 0.44369 0.04386 0.72165 0.0
C661 C 0.48985 0.06792 0.72871 0.0
C662 C 0.50807 0.1127 0.7366 0.0
C663 C 0.48038 0.13297 0.73772 0.0
C664 C 0.51865 0.04575 0.7283 0.0
C665 C 0.52503 0.0291 0.70903 0.0
C666 C 0.53945 0.0407 0.7468 0.0
C667 C 0.5326 0.05613 0.76774 0.0
C668 C 0.57107 0.0875 0.77968 0.0
C669 C 0.56474 0.10248 0.79933 0.0
C670 C 0.52007 0.08609 0.80726 0.0
C671 C 0.48165 0.0545 0.7956 0.0
C672 C 0.4878 0.03937 0.77596 0.0
C673 C 0.63571 0.93462 0.72492 0.0
C674 C 0.59981 0.88962 0.72888 0.0
C675 C 0.62637 0.97103 0.72458 0.0
C676 C 0.58095 0.96224 0.72773 0.0
C677 C 0.54552 0.91757 0.73214 0.0
C678 C 0.55493 0.88162 0.73291 0.0
C679 C 0.56878 -0.0013 0.72663 0.0
C680 C 0.56468 0.01752 0.74568 0.0
C681 C 0.55002 0.00562 0.70796 0.0
C682 C 0.55437 0.98692 0.68741 0.0
C683 C 0.51465 0.95735 0.67568 0.0
C684 C 0.51896 0.94033 0.65617 0.0
C685 C 0.56277 0.9525 0.64827 0.0
C686 C 0.60242 0.98211 0.65976 0.0
C687 C 0.59833 -0.00051 0.67919 0.0
H688 H 0.56598 0.93918 0.6332 0.0
H689 H 0.51524 0.09778 0.82247 0.0
H690 H 0.56621 0.6505 0.69835 0.0
H691 H 0.53617 0.57063 0.68706 0.0
H692 H 0.4636 0.59105 0.63561 0.0
H693 H 0.49463 0.67125 0.64636 0.0
H694 H 0.40763 0.52094 0.66695 0.0
H695 H 0.53243 0.56212 0.61982 0.0
H696 H 0.61388 0.60221 0.60819 0.0
H697 H 0.64756 0.53219 0.65558 0.0
H698 H 0.56649 0.49221 0.66772 0.0
H699 H 0.40146 0.2814 0.66295 0.0
H700 H 0.40345 0.34743 0.64508 0.0
H701 H 0.41976 0.41431 0.70517 0.0
H702 H 0.41975 0.34947 0.72286 0.0
H703 H 0.48923 0.43374 0.65237 0.0
H704 H 0.36815 0.48037 0.70014 0.0
H705 H 0.28843 0.44082 0.71395 0.0
H706 H 0.24826 0.33544 0.66687 0.0
H707 H 0.32758 0.37468 0.65254 0.0
C708 C 0.54512 0.63834 0.68425 0.0
C709 C 0.53227 0.6667 0.67339 0.0
C710 C 0.52809 0.59289 0.67778 0.0
C711 C 0.49767 0.57525 0.66056 0.0
C712 C 0.48718 0.60431 0.64888 0.0
C713 C 0.50494 0.65001 0.65508 0.0
C714 C 0.47163 0.52517 0.65714 0.0
C715 C 0.42499 0.50157 0.66333 0.0
C716 C 0.49438 0.50041 0.65196 0.0
C717 C 0.54327 0.52417 0.64469 0.0
C718 C 0.55724 0.55546 0.62785 0.0
C719 C 0.60336 0.57815 0.62116 0.0
C720 C 0.63588 0.56975 0.63114 0.0
C721 C 0.62232 0.53861 0.64784 0.0
C722 C 0.57625 0.51584 0.6546 0.0
C723 C 0.40346 0.30945 0.67231 0.0
C724 C 0.41036 0.31088 0.69417 0.0
C725 C 0.4047 0.347 0.66212 0.0
C726 C 0.41153 0.3854 0.67386 0.0
C727 C 0.41381 0.38461 0.69592 0.0
C728 C 0.41387 0.34776 0.706 0.0
C729 C 0.42622 0.42987 0.66356 0.0
C730 C 0.47102 0.45268 0.65501 0.0
C731 C 0.40198 0.45398 0.66684 0.0
C732 C 0.35396 0.43054 0.67525 0.0
C733 C 0.34227 0.44899 0.69259 0.0
C734 C 0.29714 0.42655 0.70056 0.0
C735 C 0.26331 0.38564 0.6913 0.0
C736 C 0.27452 0.36709 0.67405 0.0
C737 C 0.3196 0.38939 0.66602 0.0
H738 H 0.22839 0.36831 0.6975 0.0
H739 H 0.67157 0.58736 0.62594 0.0
H740 H 0.12206 0.42263 0.9766 0.0
H741 H 0.06228 0.44026 0.96546 0.0
H742 H -0.00191 0.40035 0.02659 0.0
H743 H 0.05784 0.38282 0.03789 0.0
H744 H 0.9348 0.3887 0.99257 0.0
H745 H 0.0823 0.50311 0.02471 0.0
H746 H 0.16771 0.54316 0.02596 0.0
H747 H 0.17406 0.59084 0.96264 0.0
H748 H 0.08853 0.55048 0.96098 0.0
H749 H 0.91275 0.57957 0.0367 0.0
H750 H 0.96668 0.55422 0.02537 0.0
H751 H 0.89161 0.5044 0.96692 0.0
H752 H 0.83744 0.52968 0.97816 0.0
H753 H 0.0236 0.55974 0.99149 0.0
H754 H 0.86837 0.39272 0.96317 0.0
H755 H 0.78296 0.35179 0.96561 0.0
H756 H 0.79198 0.4098 0.02701 0.0
H757 H 0.87734 0.45036 0.02505 0.0
C758 C 0.09413 0.41581 0.98738 0.0
C759 C 0.09525 0.40286 1.00833 0.0
C760 C 0.05993 0.42571 0.98095 0.0
C761 C 0.02658 0.42252 0.99538 0.0
C762 C 0.02377 0.40317 0.01528 0.0
C763 C 0.05806 0.39342 0.02176 0.0
C764 C 0.00256 0.44896 0.99193 0.0
C765 C 0.95407 0.42599 0.9918 0.0
C766 C 0.02793 0.49768 0.9914 0.0
C767 C 0.07919 0.52355 0.99266 0.0
C768 C 0.10197 0.52209 1.01105 0.0
C769 C 0.15036 0.54477 1.01183 0.0
C770 C 0.17633 0.56942 0.99436 0.0
C771 C 0.15391 0.57167 0.97614 0.0
C772 C 0.10548 0.54893 0.97528 0.0
C773 C 0.90871 0.5647 0.02113 0.0
C774 C 0.87034 0.55541 1.00853 0.0
C775 C 0.93965 0.55042 0.01463 0.0
C776 C 0.93239 0.52664 0.99552 0.0
C777 C 0.89733 0.52226 0.98183 0.0
C778 C 0.86643 0.53664 0.9883 0.0
C779 C 0.95574 0.49952 0.99201 0.0
C780 C 0.0042 0.52241 0.99119 0.0
C781 C 0.9303 0.45075 0.99206 0.0
C782 C 0.87911 0.4249 0.99383 0.0
C783 C 0.85206 0.39645 0.97722 0.0
C784 C 0.80369 0.37336 0.97853 0.0
C785 C 0.78205 0.37833 0.99642 0.0
C786 C 0.80875 0.40607 1.01314 0.0
C787 C 0.85711 0.42908 1.01194 0.0
H788 H 0.74462 0.36062 0.99735 0.0
H789 H 0.2138 0.58683 0.99496 0.0
H790 H 0.33885 0.91096 0.35749 0.0
H791 H 0.41925 0.96387 0.36762 0.0
H792 H 0.38961 0.91198 0.43114 0.0
H793 H 0.30975 0.85847 0.42096 0.0
H794 H 0.4758 0.02175 0.4154 0.0
H795 H 0.41824 0.85307 0.41952 0.0
H796 H 0.36244 0.7749 0.40696 0.0
H797 H 0.40805 0.81563 0.34335 0.0
H798 H 0.46365 0.89426 0.35558 0.0
H799 H 0.70749 0.0915 0.41188 0.0
H800 H 0.63287 0.02982 0.42389 0.0
H801 H 0.58499 0.00151 0.35954 0.0
H802 H 0.65938 0.06406 0.3476 0.0
H803 H 0.53763 0.92428 0.38711 0.0
H804 H 0.58152 0.08965 0.38095 0.0
H805 H 0.62824 0.17224 0.3898 0.0
H806 H 0.60659 0.14014 0.4557 0.0
H807 H 0.55959 0.05732 0.44719 0.0
C808 C 0.34883 0.91309 0.37388 0.0
C809 C 0.3188 0.88082 0.38845 0.0
C810 C 0.39465 0.94313 0.37966 0.0
C811 C 0.41002 0.94096 0.40001 0.0
C812 C 0.37808 0.91397 0.41541 0.0
C813 C 0.33252 0.8835 0.40956 0.0
C814 C 0.45912 0.95552 0.40297 0.0
C815 C 0.48948 7e-05 0.41 0.0
C816 C 0.47644 0.92701 0.39572 0.0
C817 C 0.44487 0.87937 0.38843 0.0
C818 C 0.41631 0.84526 0.40286 0.0
C819 C 0.38471 0.80094 0.39581 0.0
C820 C 0.3817 0.7903 0.37436 0.0
C821 C 0.41044 0.82392 0.35995 0.0
C822 C 0.44203 0.86833 0.36693 0.0
C823 C 0.68217 0.07035 0.40021 0.0
C824 C 0.68869 0.08266 0.37885 0.0
C825 C 0.63942 0.03515 0.40713 0.0
C826 C 0.60333 0.01214 0.39261 0.0
C827 C 0.61256 0.01914 0.37096 0.0
C828 C 0.65516 0.05465 0.3641 0.0
C829 C 0.55484 0.99088 0.39952 0.0
C830 C 0.52426 0.94513 0.3939 0.0
C831 C 0.53736 0.01825 0.40828 0.0
C832 C 0.56759 0.06749 0.41346 0.0
C833 C 0.58718 0.10025 0.39732 0.0
C834 C 0.61353 0.14704 0.40227 0.0
C835 C 0.62043 0.16137 0.42329 0.0
C836 C 0.60126 0.12894 0.43943 0.0
C837 C 0.57473 0.08211 0.43456 0.0
H838 H 0.64037 0.19764 0.42704 0.0
H839 H 0.35708 0.75601 0.36891 0.0
H840 H 0.2 0.17311 0.83448 0.0
H841 H 0.19156 0.1964 0.86987 0.0
H842 H 0.33098 0.31119 0.86722 0.0
H843 H 0.34048 0.28703 0.83207 0.0
H844 H 0.31389 0.27067 0.90513 0.0
H845 H 0.23848 0.32702 0.85995 0.0
H846 H 0.18447 0.32288 0.83229 0.0
H847 H 0.06916 0.22402 0.86871 0.0
H848 H 0.12257 0.22708 0.89648 0.0
H849 H 0.29095 0.40098 0.9891 0.0
H850 H 0.30363 0.37249 0.95577 0.0
H851 H 0.16527 0.25589 0.95856 0.0
H852 H 0.15204 0.28442 0.99189 0.0
H853 H 0.18272 0.29709 0.92072 0.0
H854 H 0.26131 0.24516 0.96708 0.0
H855 H 0.31752 0.25243 0.99427 0.0
H856 H 0.42981 0.34727 0.95521 0.0
H857 H 0.37421 0.34126 0.92793 0.0
C858 C 0.22917 0.20299 0.84146 0.0
C859 C 0.27089 0.22822 0.83027 0.0
C860 C 0.22409 0.21656 0.86167 0.0
C861 C 0.26038 0.25596 0.87114 0.0
C862 C 0.30234 0.28087 0.8602 0.0
C863 C 0.30751 0.26727 0.83997 0.0
C864 C 0.25424 0.27132 0.89235 0.0
C865 C 0.28556 0.27703 0.90849 0.0
C866 C 0.21683 0.27888 0.89685 0.0
C867 C 0.18457 0.27692 0.88019 0.0
C868 C 0.20163 0.3041 0.86198 0.0
C869 C 0.17112 0.302 0.8463 0.0
C870 C 0.12342 0.27311 0.84871 0.0
C871 C 0.10612 0.24633 0.86684 0.0
C872 C 0.1365 0.24825 0.88257 0.0
C873 C 0.2633 0.36895 0.98279 0.0
C874 C 0.22038 0.34499 0.99323 0.0
C875 C 0.27073 0.35261 0.96372 0.0
C876 C 0.23554 0.31184 0.95467 0.0
C877 C 0.19297 0.2874 0.96524 0.0
C878 C 0.18552 0.30367 0.98436 0.0
C879 C 0.24215 0.29616 0.93363 0.0
C880 C 0.21097 0.29056 0.91744 0.0
C881 C 0.28001 0.28924 0.92908 0.0
C882 C 0.31349 0.29316 0.94555 0.0
C883 C 0.29794 0.26797 0.96438 0.0
C884 C 0.32971 0.2718 0.97979 0.0
C885 C 0.37719 0.30042 0.9765 0.0
C886 C 0.39301 0.32521 0.95777 0.0
C887 C 0.36137 0.3216 0.94232 0.0
H888 H 0.40173 0.30329 0.98845 0.0
H889 H 0.09985 0.27155 0.83655 0.0
H890 H 0.89298 0.16113 0.33061 0.0
H891 H 0.92611 0.16672 0.2954 0.0
H892 H 0.86702 0.249 0.27448 0.0
H893 H 0.83424 0.2439 0.30922 0.0
H894 H 0.85084 0.17929 0.24661 0.0
H895 H 0.97871 0.29967 0.28546 0.0
H896 H 0.03531 0.33097 0.31454 0.0
H897 H 0.08901 0.24248 0.29701 0.0
H898 H 0.03223 0.21016 0.26797 0.0
H899 H 0.96648 0.28197 0.15204 0.0
H900 H 0.93627 0.26779 0.18796 0.0
H901 H 0.01289 0.19824 0.20202 0.0
H902 H 0.04467 0.21382 0.16635 0.0
H903 H 0.02005 0.2539 0.23374 0.0
H904 H 0.89605 0.13722 0.1933 0.0
H905 H 0.83935 0.10552 0.16427 0.0
H906 H 0.77769 0.1852 0.18486 0.0
H907 H 0.83446 0.21789 0.21385 0.0
C908 C 0.88713 0.18042 0.3185 0.0
C909 C 0.86099 0.20206 0.3228 0.0
C910 C 0.90614 0.18367 0.29843 0.0
C911 C 0.89902 0.20832 0.28235 0.0
C912 C 0.87281 0.22968 0.28662 0.0
C913 C 0.85425 0.22684 0.3066 0.0
C914 C 0.9185 0.21213 0.26094 0.0
C915 C 0.88786 0.19586 0.24376 0.0
C916 C 0.96669 0.23267 0.2573 0.0
C917 C 0.00086 0.25209 0.27472 0.0
C918 C 0.0023 0.28657 0.28793 0.0
C919 C 0.03447 0.30457 0.30438 0.0
C920 C 0.06563 0.28861 0.30767 0.0
C921 C 0.06478 0.25473 0.29447 0.0
C922 C 0.03263 0.23658 0.27801 0.0
C923 C 0.97722 0.26397 0.1628 0.0
C924 C 0.00784 0.24883 0.15623 0.0
C925 C 0.95955 0.25547 0.18329 0.0
C926 C 0.97177 0.23133 0.19763 0.0
C927 C 0.00276 0.21669 0.19122 0.0
C928 C 0.02053 0.22524 0.17074 0.0
C929 C 0.95239 0.22173 0.21932 0.0
C930 C 0.983 0.23686 0.23655 0.0
C931 C 0.90408 0.19997 0.22303 0.0
C932 C 0.86977 0.18029 0.20565 0.0
C933 C 0.87062 0.14825 0.19155 0.0
C934 C 0.83843 0.13006 0.17511 0.0
C935 C 0.805 0.14341 0.17269 0.0
C936 C 0.80363 0.17492 0.18674 0.0
C937 C 0.83578 0.19325 0.20319 0.0
H938 H 0.78011 0.12929 0.15996 0.0
H939 H 0.09053 0.3026 0.3204 0.0
H940 H 0.67446 0.81152 0.64838 0.0
H941 H 0.7054 0.85037 0.6147 0.0
H942 H 0.64177 0.934 0.62499 0.0
H943 H 0.61 0.89474 0.65828 0.0
H944 H 0.62511 0.90214 0.58643 0.0
H945 H 0.76086 0.97708 0.63021 0.0
H946 H 0.82032 0.98102 0.65471 0.0
H947 H 0.86174 0.9136 0.60909 0.0
H948 H 0.8021 0.90872 0.58442 0.0
H949 H 0.73288 0.06033 0.50354 0.0
H950 H 0.7081 0.02551 0.53818 0.0
H951 H 0.77695 0.94665 0.52802 0.0
H952 H 0.80498 0.98407 0.49403 0.0
H953 H 0.79092 0.97557 0.56649 0.0
H954 H 0.65348 0.89944 0.52294 0.0
H955 H 0.59556 0.89819 0.49824 0.0
H956 H 0.55825 0.96966 0.54349 0.0
H957 H 0.6161 0.9715 0.56843 0.0
C958 C 0.6675 0.83852 0.64356 0.0
C959 C 0.63974 0.84998 0.65602 0.0
C960 C 0.68525 0.86078 0.62431 0.0
C961 C 0.67615 0.89537 0.61731 0.0
C962 C 0.64911 0.90732 0.62996 0.0
C963 C 0.6311 0.8849 0.64905 0.0
C964 C 0.69346 0.91831 0.59658 0.0
C965 C 0.66148 0.91862 0.58219 0.0
C966 C 0.74072 0.93906 0.59077 0.0
C967 C 0.77671 0.94213 0.60555 0.0
C968 C 0.78242 0.96279 0.62547 0.0
C969 C 0.8162 0.96525 0.63937 0.0
C970 C 0.84471 0.94746 0.63348 0.0
C971 C 0.83959 0.9273 0.61364 0.0
C972 C 0.80584 0.92472 0.59969 0.0
C973 C 0.74348 0.03617 0.50876 0.0
C974 C 0.77101 0.02511 0.49586 0.0
C975 C 0.72858 0.01563 0.52851 0.0
C976 C 0.73976 0.9826 0.53563 0.0
C977 C 0.76758 0.9718 0.52289 0.0
C978 C 0.78315 -0.00711 0.50329 0.0
C979 C 0.72258 0.95932 0.55634 0.0
C980 C 0.75454 0.95892 0.57071 0.0
C981 C 0.67528 0.93847 0.56215 0.0
C982 C 0.63934 0.93589 0.54747 0.0
C983 C 0.63297 0.91496 0.52759 0.0
C984 C 0.60021 0.91421 0.51354 0.0
C985 C 0.57342 0.93405 0.51925 0.0
C986 C 0.57915 0.95445 0.53907 0.0
C987 C 0.61177 0.95519 0.5532 0.0
H988 H 0.54804 0.93338 0.50836 0.0
H989 H 0.87083 0.94939 0.64427 0.0
H990 H 0.77514 0.73467 0.8175 0.0
H991 H 0.7875 0.71979 0.85371 0.0
H992 H 0.64153 0.66141 0.86636 0.0
H993 H 0.62928 0.67907 0.83039 0.0
H994 H 0.68624 0.70943 0.8986 0.0
H995 H 0.69479 0.595 0.85847 0.0
H996 H 0.71966 0.56146 0.83025 0.0
H997 H 0.85909 0.63328 0.85389 0.0
H998 H 0.83528 0.66812 0.88201 0.0
H999 H 0.69323 0.59477 0.99215 0.0
H1000 H 0.67908 0.61336 0.95682 0.0
H1001 H 0.82625 0.69557 0.94646 0.0
H1002 H 0.8409 0.67674 0.98201 0.0
H1003 H 0.77822 0.63281 0.91352 0.0
H1004 H 0.763 0.75042 0.95304 0.0
H1005 H 0.73045 0.7743 0.98221 0.0
H1006 H 0.59263 0.68083 0.9604 0.0
H1007 H 0.62444 0.65644 0.93113 0.0
C1008 C 0.7456 0.71922 0.82797 0.0
C1009 C 0.70113 0.70813 0.82081 0.0
C1010 C 0.75268 0.71009 0.84871 0.0
C1011 C 0.71538 0.68862 0.86281 0.0
C1012 C 0.67094 0.67773 0.85582 0.0
C1013 C 0.66389 0.68738 0.8351 0.0
C1014 C 0.72305 0.67791 0.88481 0.0
C1015 C 0.70593 0.6922 0.90175 0.0
C1016 C 0.74874 0.65539 0.88918 0.0
C1017 C 0.76333 0.63464 0.87223 0.0
C1018 C 0.73089 0.60416 0.8575 0.0
C1019 C 0.74479 0.58487 0.84152 0.0
C1020 C 0.79096 0.59536 0.84023 0.0
C1021 C 0.82333 0.62521 0.8549 0.0
C1022 C 0.80966 0.64476 0.87086 0.0
C1023 C 0.72275 0.61731 0.98251 0.0
C1024 C 0.76831 0.6344 0.98999 0.0
C1025 C 0.71451 0.62798 0.96228 0.0
C1026 C 0.75155 0.65607 0.94898 0.0
C1027 C 0.79712 0.67386 0.95646 0.0
C1028 C 0.80545 0.66338 0.97684 0.0
C1029 C 0.74247 0.66539 0.92706 0.0
C1030 C 0.75891 0.65037 0.9102 0.0
C1031 C 0.71509 0.68598 0.92275 0.0
C1032 C 0.69607 0.7017 0.93992 0.0
C1033 C 0.72577 0.73505 0.95447 0.0
C1034 C 0.70746 0.74867 0.97101 0.0
C1035 C 0.6595 0.72913 0.97314 0.0
C1036 C 0.62977 0.69602 0.95871 0.0
C1037 C 0.64791 0.68247 0.94208 0.0
H1038 H 0.64538 0.73962 0.98599 0.0
H1039 H 0.80162 0.58025 0.82789 0.0
H1040 H 0.11318 0.83322 0.32489 0.0
H1041 H 0.0788 0.82136 0.2895 0.0
H1042 H 0.16579 0.76771 0.26805 0.0
H1043 H 0.1997 0.77897 0.30319 0.0
H1044 H 0.15665 0.82726 0.2386 0.0
H1045 H 0.0642 0.69727 0.28341 0.0
H1046 H 0.01982 0.66257 0.31579 0.0
H1047 H 0.92199 0.70521 0.29863 0.0
H1048 H 0.96711 0.74231 0.26661 0.0
H1049 H 0.0437 0.70827 0.14581 0.0
H1050 H 0.07932 0.72704 0.18076 0.0
H1051 H 0.97069 0.75122 0.20306 0.0
H1052 H 0.93457 0.73184 0.16821 0.0
H1053 H 0.99028 0.70934 0.23259 0.0
H1054 H 0.08115 0.84118 0.18928 0.0
H1055 H 0.12748 0.88288 0.15825 0.0
H1056 H 0.22659 0.84021 0.17287 0.0
H1057 H 0.18051 0.79773 0.20385 0.0
C1058 C 0.1257 0.81998 0.31247 0.0
C1059 C 0.15903 0.80695 0.3168 0.0
C1060 C 0.10586 0.81294 0.29233 0.0
C1061 C 0.11953 0.79333 0.2762 0.0
C1062 C 0.15476 0.78291 0.28022 0.0
C1063 C 0.174 0.78926 0.30034 0.0
C1064 C 0.09514 0.78044 0.25556 0.0
C1065 C 0.12036 0.80128 0.23725 0.0
C1066 C 0.04757 0.74706 0.25388 0.0
C1067 C 0.01944 0.72316 0.27271 0.0
C1068 C 0.03352 0.69973 0.28662 0.0
C1069 C 0.00822 0.67961 0.30493 0.0
C1070 C 0.96804 0.68155 0.30924 0.0
C1071 C 0.95315 0.70376 0.29527 0.0
C1072 C 0.97869 0.72454 0.27709 0.0
C1073 C 0.02742 0.71766 0.15814 0.0
C1074 C 0.98644 0.71888 0.15412 0.0
C1075 C 0.04782 0.72837 0.17816 0.0
C1076 C 0.02824 0.74139 0.19456 0.0
C1077 C 0.98659 0.74134 0.19074 0.0
C1078 C 0.96592 0.73019 0.17077 0.0
C1079 C 0.05178 0.75625 0.21546 0.0
C1080 C 0.02648 0.73558 0.23387 0.0
C1081 C 0.09922 0.7902 0.21729 0.0
C1082 C 0.12719 0.81598 0.19877 0.0
C1083 C 0.11269 0.84047 0.1858 0.0
C1084 C 0.13891 0.86426 0.16823 0.0
C1085 C 0.1799 0.86411 0.16356 0.0
C1086 C 0.19481 0.84026 0.17649 0.0
C1087 C 0.16868 0.81636 0.19407 0.0
H1088 H 0.20015 0.88255 0.14995 0.0
H1089 H 0.94846 0.66583 0.3234 0.0
H1090 H 0.28322 0.10118 0.66498 0.0
H1091 H 0.25591 0.06447 0.63047 0.0
H1092 H 0.3973 0.12146 0.60968 0.0
H1093 H 0.42482 0.15818 0.64395 0.0
H1094 H 0.34359 0.1333 0.5804 0.0
H1095 H 0.33549 0.00993 0.62226 0.0
H1096 H 0.31154 0.95703 0.65253 0.0
H1097 H 0.16855 0.9044 0.6363 0.0
H1098 H 0.19166 0.95749 0.60608 0.0
H1099 H 0.31356 0.00515 0.48755 0.0
H1100 H 0.33559 0.03699 0.52308 0.0
H1101 H 0.19146 0.97348 0.54044 0.0
H1102 H 0.16913 0.94051 0.50501 0.0
H1103 H 0.2432 0.96451 0.57164 0.0
H1104 H 0.24982 0.08728 0.5304 0.0
H1105 H 0.27246 0.13919 0.49978 0.0
H1106 H 0.41606 0.19188 0.51462 0.0
H1107 H 0.39421 0.14017 0.54538 0.0
C1108 C 0.30851 0.10582 0.65309 0.0
C1109 C 0.35625 0.13253 0.65733 0.0
C1110 C 0.29283 0.08467 0.63338 0.0
C1111 C 0.32456 0.08998 0.61749 0.0
C1112 C 0.37216 0.11684 0.62166 0.0
C1113 C 0.38783 0.13764 0.64136 0.0
C1114 C 0.30838 0.0681 0.59642 0.0
C1115 C 0.32205 0.09635 0.5785 0.0
C1116 C 0.27926 0.01998 0.5939 0.0
C1117 C 0.26529 0.98806 0.61205 0.0
C1118 C 0.29892 0.98738 0.62526 0.0
C1119 C 0.28551 0.95729 0.64238 0.0
C1120 C 0.23854 0.92747 0.64637 0.0
C1121 C 0.20491 0.92758 0.63321 0.0
C1122 C 0.21815 0.95764 0.61607 0.0
C1123 C 0.2865 -0.0025 0.49897 0.0
C1124 C 0.23954 0.97043 0.49335 0.0
C1125 C 0.29915 0.01606 0.51925 0.0
C1126 C 0.26518 0.00813 0.53439 0.0
C1127 C 0.21829 0.98025 0.52902 0.0
C1128 C 0.20559 0.96177 0.50869 0.0
C1129 C 0.27874 0.02971 0.55567 0.0
C1130 C 0.26456 0.00147 0.57359 0.0
C1131 C 0.30715 0.07786 0.55824 0.0
C1132 C 0.32044 0.10972 0.54009 0.0
C1133 C 0.28624 0.10988 0.52711 0.0
C1134 C 0.29891 0.13931 0.50976 0.0
C1135 C 0.34569 0.16885 0.50528 0.0
C1136 C 0.37988 0.16913 0.51819 0.0
C1137 C 0.36738 0.13987 0.5356 0.0
H1138 H 0.35546 0.19152 0.49181 0.0
H1139 H 0.22822 0.90419 0.65963 0.0
loop_
_geom_bond_atom_site_label_1
_geom_bond_atom_site_label_2
_geom_bond_distance
_geom_bond_site_symmetry_2
_ccdc_geom_bond_type
Nd0 C2 2.836 . S
Nd0 O20 2.500 . S
Nd0 O21 2.492 . S
Nd0 O22 2.487 . S
Nd0 O23 2.682 . S
Nd0 O24 2.410 . S
Nd0 O29 2.414 . S
Nd0 O31 2.424 . S
Nd1 C11 2.836 1_554 S
Nd1 O23 2.414 . S
Nd1 O25 2.424 . S
Nd1 O26 2.500 1_554 S
Nd1 O27 2.492 1_554 S
Nd1 O28 2.487 . S
Nd1 O29 2.682 . S
Nd1 O30 2.410 1_554 S
C2 Nd0 2.836 . S
C2 C3 1.498 . S
C2 O20 1.258 . S
C2 O21 1.239 . S
C3 C2 1.498 . S
C3 C4 1.366 . S
C3 C8 1.407 . S
C4 C3 1.366 . S
C4 C5 1.392 . S
C4 H32 0.930 . S
C5 C4 1.392 . S
C5 C6 1.398 . S
C5 H33 0.929 . S
C6 C5 1.398 . S
C6 C7 1.352 . S
C7 C6 1.352 . S
C7 C8 1.384 . S
C7 H34 0.930 . S
C8 C3 1.407 . S
C8 C7 1.384 . S
C8 H35 0.929 . S
C9 O22 1.241 . S
C9 O23 1.273 . S
C10 O24 1.251 . S
C10 O25 1.268 . S
C11 Nd1 2.836 1_556 S
C11 C12 1.498 . S
C11 O26 1.258 . S
C11 O27 1.239 . S
C12 C11 1.498 . S
C12 C13 1.366 . S
C12 C17 1.407 . S
C13 C12 1.366 . S
C13 C14 1.392 . S
C13 H36 0.930 . S
C14 C13 1.392 . S
C14 C15 1.398 . S
C14 H37 0.929 . S
C15 C14 1.398 . S
C15 C16 1.352 . S
C16 C15 1.352 . S
C16 C17 1.384 . S
C16 H38 0.930 . S
C17 C12 1.407 . S
C17 C16 1.384 . S
C17 H39 0.929 . S
C18 O28 1.241 . S
C18 O29 1.273 . S
C19 O30 1.251 . S
C19 O31 1.268 1_556 S
O20 Nd0 2.500 . S
O20 C2 1.258 . S
O21 Nd0 2.492 . S
O21 C2 1.239 . S
O22 Nd0 2.487 . S
O22 C9 1.241 . S
O23 Nd0 2.682 . S
O23 Nd1 2.414 . S
O23 C9 1.273 . S
O24 Nd0 2.410 . S
O24 C10 1.251 . S
O25 Nd1 2.424 . S
O25 C10 1.268 . S
O26 Nd1 2.500 1_556 S
O26 C11 1.258 . S
O27 Nd1 2.492 1_556 S
O27 C11 1.239 . S
O28 Nd1 2.487 . S
O28 C18 1.241 . S
O29 Nd0 2.414 . S
O29 Nd1 2.682 . S
O29 C18 1.273 . S
O30 Nd1 2.410 1_556 S
O30 C19 1.251 . S
O31 Nd0 2.424 . S
O31 C19 1.268 1_554 S
H32 C4 0.930 . S
H33 C5 0.929 . S
H34 C7 0.930 . S
H35 C8 0.929 . S
H36 C13 0.930 . S
H37 C14 0.929 . S
H38 C16 0.930 . S
H39 C17 0.929 . S
Nd40 C42 2.836 . S
Nd40 O60 2.500 . S
Nd40 O61 2.492 . S
Nd40 O62 2.487 . S
Nd40 O63 2.682 . S
Nd40 O64 2.410 . S
Nd40 O69 2.414 . S
Nd40 O71 2.424 . S
Nd41 C51 2.836 . S
Nd41 O63 2.414 . S
Nd41 O65 2.424 . S
Nd41 O66 2.500 . S
Nd41 O67 2.492 . S
Nd41 O68 2.487 . S
Nd41 O69 2.682 . S
Nd41 O70 2.410 . S
C42 Nd40 2.836 . S
C42 C43 1.498 . S
C42 O60 1.258 . S
C42 O61 1.239 . S
C43 C42 1.498 . S
C43 C44 1.366 . S
C43 C48 1.407 . S
C44 C43 1.366 . S
C44 C45 1.392 . S
C44 H72 0.930 . S
C45 C44 1.392 . S
C45 C46 1.398 . S
C45 H73 0.929 . S
C46 C45 1.398 . S
C46 C47 1.352 . S
C47 C46 1.352 . S
C47 C48 1.384 . S
C47 H74 0.930 . S
C48 C43 1.407 . S
C48 C47 1.384 . S
C48 H75 0.929 . S
C49 O62 1.241 . S
C49 O63 1.273 . S
C50 O64 1.251 . S
C50 O65 1.268 . S
C51 Nd41 2.836 . S
C51 C52 1.498 . S
C51 O66 1.258 . S
C51 O67 1.239 . S
C52 C51 1.498 . S
C52 C53 1.366 . S
C52 C57 1.407 . S
C53 C52 1.366 . S
C53 C54 1.392 . S
C53 H76 0.930 . S
C54 C53 1.392 . S
C54 C55 1.398 . S
C54 H77 0.929 . S
C55 C54 1.398 . S
C55 C56 1.352 . S
C56 C55 1.352 . S
C56 C57 1.384 . S
C56 H78 0.930 . S
C57 C52 1.407 . S
C57 C56 1.384 . S
C57 H79 0.929 . S
C58 O68 1.241 . S
C58 O69 1.273 . S
C59 O70 1.251 . S
C59 O71 1.268 . S
O60 Nd40 2.500 . S
O60 C42 1.258 . S
O61 Nd40 2.492 . S
O61 C42 1.239 . S
O62 Nd40 2.487 . S
O62 C49 1.241 . S
O63 Nd40 2.682 . S
O63 Nd41 2.414 . S
O63 C49 1.273 . S
O64 Nd40 2.410 . S
O64 C50 1.251 . S
O65 Nd41 2.424 . S
O65 C50 1.268 . S
O66 Nd41 2.500 . S
O66 C51 1.258 . S
O67 Nd41 2.492 . S
O67 C51 1.239 . S
O68 Nd41 2.487 . S
O68 C58 1.241 . S
O69 Nd40 2.414 . S
O69 Nd41 2.682 . S
O69 C58 1.273 . S
O70 Nd41 2.410 . S
O70 C59 1.251 . S
O71 Nd40 2.424 . S
O71 C59 1.268 . S
H72 C44 0.930 . S
H73 C45 0.929 . S
H74 C47 0.930 . S
H75 C48 0.929 . S
H76 C53 0.930 . S
H77 C54 0.929 . S
H78 C56 0.930 . S
H79 C57 0.929 . S
Nd80 C82 2.836 . S
Nd80 O100 2.500 . S
Nd80 O101 2.492 . S
Nd80 O102 2.487 . S
Nd80 O103 2.682 . S
Nd80 O104 2.410 . S
Nd80 O109 2.414 . S
Nd80 O111 2.424 . S
Nd81 C91 2.836 . S
Nd81 O103 2.414 . S
Nd81 O105 2.424 . S
Nd81 O106 2.500 . S
Nd81 O107 2.492 . S
Nd81 O108 2.487 . S
Nd81 O109 2.682 . S
Nd81 O110 2.410 . S
C82 Nd80 2.836 . S
C82 C83 1.498 . S
C82 O100 1.258 . S
C82 O101 1.239 . S
C83 C82 1.498 . S
C83 C84 1.366 . S
C83 C88 1.407 . S
C84 C83 1.366 . S
C84 C85 1.392 . S
C84 H112 0.930 . S
C85 C84 1.392 . S
C85 C86 1.398 . S
C85 H113 0.929 . S
C86 C85 1.398 . S
C86 C87 1.352 . S
C87 C86 1.352 . S
C87 C88 1.384 . S
C87 H114 0.930 . S
C88 C83 1.407 . S
C88 C87 1.384 . S
C88 H115 0.929 . S
C89 O102 1.241 . S
C89 O103 1.273 . S
C90 O104 1.251 . S
C90 O105 1.268 . S
C91 Nd81 2.836 . S
C91 C92 1.498 . S
C91 O106 1.258 . S
C91 O107 1.239 . S
C92 C91 1.498 . S
C92 C93 1.366 . S
C92 C97 1.407 . S
C93 C92 1.366 . S
C93 C94 1.392 . S
C93 H116 0.930 . S
C94 C93 1.392 . S
C94 C95 1.398 . S
C94 H117 0.929 . S
C95 C94 1.398 . S
C95 C96 1.352 . S
C96 C95 1.352 . S
C96 C97 1.384 . S
C96 H118 0.930 . S
C97 C92 1.407 . S
C97 C96 1.384 . S
C97 H119 0.929 . S
C98 O108 1.241 . S
C98 O109 1.273 . S
C99 O110 1.251 . S
C99 O111 1.268 . S
O100 Nd80 2.500 . S
O100 C82 1.258 . S
O101 Nd80 2.492 . S
O101 C82 1.239 . S
O102 Nd80 2.487 . S
O102 C89 1.241 . S
O103 Nd80 2.682 . S
O103 Nd81 2.414 . S
O103 C89 1.273 . S
O104 Nd80 2.410 . S
O104 C90 1.251 . S
O105 Nd81 2.424 . S
O105 C90 1.268 . S
O106 Nd81 2.500 . S
O106 C91 1.258 . S
O107 Nd81 2.492 . S
O107 C91 1.239 . S
O108 Nd81 2.487 . S
O108 C98 1.241 . S
O109 Nd80 2.414 . S
O109 Nd81 2.682 . S
O109 C98 1.273 . S
O110 Nd81 2.410 . S
O110 C99 1.251 . S
O111 Nd80 2.424 . S
O111 C99 1.268 . S
H112 C84 0.930 . S
H113 C85 0.929 . S
H114 C87 0.930 . S
H115 C88 0.929 . S
H116 C93 0.930 . S
H117 C94 0.929 . S
H118 C96 0.930 . S
H119 C97 0.929 . S
Nd120 C122 2.836 . S
Nd120 O140 2.500 . S
Nd120 O141 2.492 . S
Nd120 O142 2.487 . S
Nd120 O143 2.682 . S
Nd120 O144 2.410 . S
Nd120 O149 2.414 . S
Nd120 O151 2.424 . S
Nd121 C131 2.836 1_554 S
Nd121 O143 2.414 . S
Nd121 O145 2.424 . S
Nd121 O146 2.500 1_554 S
Nd121 O147 2.492 1_554 S
Nd121 O148 2.487 . S
Nd121 O149 2.682 . S
Nd121 O150 2.410 1_554 S
C122 Nd120 2.836 . S
C122 C123 1.498 . S
C122 O140 1.258 . S
C122 O141 1.239 . S
C123 C122 1.498 . S
C123 C124 1.366 . S
C123 C128 1.407 . S
C124 C123 1.366 . S
C124 C125 1.392 . S
C124 H152 0.930 . S
C125 C124 1.392 . S
C125 C126 1.398 . S
C125 H153 0.929 . S
C126 C125 1.398 . S
C126 C127 1.352 . S
C127 C126 1.352 . S
C127 C128 1.384 . S
C127 H154 0.930 . S
C128 C123 1.407 . S
C128 C127 1.384 . S
C128 H155 0.929 . S
C129 O142 1.241 . S
C129 O143 1.273 . S
C130 O144 1.251 . S
C130 O145 1.268 . S
C131 Nd121 2.836 1_556 S
C131 C132 1.498 . S
C131 O146 1.258 . S
C131 O147 1.239 . S
C132 C131 1.498 . S
C132 C133 1.366 . S
C132 C137 1.407 . S
C133 C132 1.366 . S
C133 C134 1.392 . S
C133 H156 0.930 . S
C134 C133 1.392 . S
C134 C135 1.398 . S
C134 H157 0.929 . S
C135 C134 1.398 . S
C135 C136 1.352 . S
C136 C135 1.352 . S
C136 C137 1.384 . S
C136 H158 0.930 . S
C137 C132 1.407 . S
C137 C136 1.384 . S
C137 H159 0.929 . S
C138 O148 1.241 . S
C138 O149 1.273 . S
C139 O150 1.251 . S
C139 O151 1.268 1_556 S
O140 Nd120 2.500 . S
O140 C122 1.258 . S
O141 Nd120 2.492 . S
O141 C122 1.239 . S
O142 Nd120 2.487 . S
O142 C129 1.241 . S
O143 Nd120 2.682 . S
O143 Nd121 2.414 . S
O143 C129 1.273 . S
O144 Nd120 2.410 . S
O144 C130 1.251 . S
O145 Nd121 2.424 . S
O145 C130 1.268 . S
O146 Nd121 2.500 1_556 S
O146 C131 1.258 . S
O147 Nd121 2.492 1_556 S
O147 C131 1.239 . S
O148 Nd121 2.487 . S
O148 C138 1.241 . S
O149 Nd120 2.414 . S
O149 Nd121 2.682 . S
O149 C138 1.273 . S
O150 Nd121 2.410 1_556 S
O150 C139 1.251 . S
O151 Nd120 2.424 . S
O151 C139 1.268 1_554 S
H152 C124 0.930 . S
H153 C125 0.929 . S
H154 C127 0.930 . S
H155 C128 0.929 . S
H156 C133 0.930 . S
H157 C134 0.929 . S
H158 C136 0.930 . S
H159 C137 0.929 . S
Nd160 C162 2.836 . S
Nd160 O180 2.500 . S
Nd160 O181 2.492 . S
Nd160 O182 2.487 . S
Nd160 O183 2.682 . S
Nd160 O184 2.410 . S
Nd160 O189 2.414 . S
Nd160 O191 2.424 . S
Nd161 C171 2.836 . S
Nd161 O183 2.414 . S
Nd161 O185 2.424 . S
Nd161 O186 2.500 . S
Nd161 O187 2.492 . S
Nd161 O188 2.487 . S
Nd161 O189 2.682 . S
Nd161 O190 2.410 . S
C162 Nd160 2.836 . S
C162 C163 1.498 . S
C162 O180 1.258 . S
C162 O181 1.239 . S
C163 C162 1.498 . S
C163 C164 1.366 . S
C163 C168 1.407 . S
C164 C163 1.366 . S
C164 C165 1.392 . S
C164 H192 0.930 . S
C165 C164 1.392 . S
C165 C166 1.398 . S
C165 H193 0.929 . S
C166 C165 1.398 . S
C166 C167 1.352 . S
C167 C166 1.352 . S
C167 C168 1.384 . S
C167 H194 0.930 . S
C168 C163 1.407 . S
C168 C167 1.384 . S
C168 H195 0.929 . S
C169 O182 1.241 . S
C169 O183 1.273 . S
C170 O184 1.251 . S
C170 O185 1.268 . S
C171 Nd161 2.836 . S
C171 C172 1.498 . S
C171 O186 1.258 . S
C171 O187 1.239 . S
C172 C171 1.498 . S
C172 C173 1.366 . S
C172 C177 1.407 . S
C173 C172 1.366 . S
C173 C174 1.392 . S
C173 H196 0.930 . S
C174 C173 1.392 . S
C174 C175 1.398 . S
C174 H197 0.929 . S
C175 C174 1.398 . S
C175 C176 1.352 . S
C176 C175 1.352 . S
C176 C177 1.384 . S
C176 H198 0.930 . S
C177 C172 1.407 . S
C177 C176 1.384 . S
C177 H199 0.929 . S
C178 O188 1.241 . S
C178 O189 1.273 . S
C179 O190 1.251 . S
C179 O191 1.268 . S
O180 Nd160 2.500 . S
O180 C162 1.258 . S
O181 Nd160 2.492 . S
O181 C162 1.239 . S
O182 Nd160 2.487 . S
O182 C169 1.241 . S
O183 Nd160 2.682 . S
O183 Nd161 2.414 . S
O183 C169 1.273 . S
O184 Nd160 2.410 . S
O184 C170 1.251 . S
O185 Nd161 2.424 . S
O185 C170 1.268 . S
O186 Nd161 2.500 . S
O186 C171 1.258 . S
O187 Nd161 2.492 . S
O187 C171 1.239 . S
O188 Nd161 2.487 . S
O188 C178 1.241 . S
O189 Nd160 2.414 . S
O189 Nd161 2.682 . S
O189 C178 1.273 . S
O190 Nd161 2.410 . S
O190 C179 1.251 . S
O191 Nd160 2.424 . S
O191 C179 1.268 . S
H192 C164 0.930 . S
H193 C165 0.929 . S
H194 C167 0.930 . S
H195 C168 0.929 . S
H196 C173 0.930 . S
H197 C174 0.929 . S
H198 C176 0.930 . S
H199 C177 0.929 . S
Nd200 C202 2.836 . S
Nd200 O220 2.500 . S
Nd200 O221 2.492 . S
Nd200 O222 2.487 . S
Nd200 O223 2.682 . S
Nd200 O224 2.410 . S
Nd200 O229 2.414 . S
Nd200 O231 2.424 . S
Nd201 C211 2.836 . S
Nd201 O223 2.414 . S
Nd201 O225 2.424 . S
Nd201 O226 2.500 . S
Nd201 O227 2.492 . S
Nd201 O228 2.487 . S
Nd201 O229 2.682 . S
Nd201 O230 2.410 . S
C202 Nd200 2.836 . S
C202 C203 1.498 . S
C202 O220 1.258 . S
C202 O221 1.239 . S
C203 C202 1.498 . S
C203 C204 1.366 . S
C203 C208 1.407 . S
C204 C203 1.366 . S
C204 C205 1.392 . S
C204 H232 0.930 . S
C205 C204 1.392 . S
C205 C206 1.398 . S
C205 H233 0.929 . S
C206 C205 1.398 . S
C206 C207 1.352 . S
C207 C206 1.352 . S
C207 C208 1.384 . S
C207 H234 0.930 . S
C208 C203 1.407 . S
C208 C207 1.384 . S
C208 H235 0.929 . S
C209 O222 1.241 . S
C209 O223 1.273 . S
C210 O224 1.251 . S
C210 O225 1.268 . S
C211 Nd201 2.836 . S
C211 C212 1.498 . S
C211 O226 1.258 . S
C211 O227 1.239 . S
C212 C211 1.498 . S
C212 C213 1.366 . S
C212 C217 1.407 . S
C213 C212 1.366 . S
C213 C214 1.392 . S
C213 H236 0.930 . S
C214 C213 1.392 . S
C214 C215 1.398 . S
C214 H237 0.929 . S
C215 C214 1.398 . S
C215 C216 1.352 . S
C216 C215 1.352 . S
C216 C217 1.384 . S
C216 H238 0.930 . S
C217 C212 1.407 . S
C217 C216 1.384 . S
C217 H239 0.929 . S
C218 O228 1.241 . S
C218 O229 1.273 . S
C219 O230 1.251 . S
C219 O231 1.268 . S
O220 Nd200 2.500 . S
O220 C202 1.258 . S
O221 Nd200 2.492 . S
O221 C202 1.239 . S
O222 Nd200 2.487 . S
O222 C209 1.241 . S
O223 Nd200 2.682 . S
O223 Nd201 2.414 . S
O223 C209 1.273 . S
O224 Nd200 2.410 . S
O224 C210 1.251 . S
O225 Nd201 2.424 . S
O225 C210 1.268 . S
O226 Nd201 2.500 . S
O226 C211 1.258 . S
O227 Nd201 2.492 . S
O227 C211 1.239 . S
O228 Nd201 2.487 . S
O228 C218 1.241 . S
O229 Nd200 2.414 . S
O229 Nd201 2.682 . S
O229 C218 1.273 . S
O230 Nd201 2.410 . S
O230 C219 1.251 . S
O231 Nd200 2.424 . S
O231 C219 1.268 . S
H232 C204 0.930 . S
H233 C205 0.929 . S
H234 C207 0.930 . S
H235 C208 0.929 . S
H236 C213 0.930 . S
H237 C214 0.929 . S
H238 C216 0.930 . S
H239 C217 0.929 . S
H240 C258 0.951 . S
H241 C260 0.951 . S
H242 C262 0.950 . S
H243 C263 0.950 . S
H244 C265 0.950 . S
H245 C268 0.950 . S
H246 C269 0.950 . S
H247 C271 0.950 . S
H248 C272 0.950 . S
H249 C273 0.951 . S
H250 C275 0.951 . S
H251 C277 0.950 . S
H252 C278 0.950 . S
H253 C280 0.950 . S
H254 C283 0.950 . S
H255 C284 0.950 . S
H256 C286 0.950 . S
H257 C287 0.950 . S
C258 H240 0.951 . S
C258 C259 1.366 . S
C258 C260 1.388 . S
C259 C258 1.366 . S
C259 C263 1.385 . S
C260 H241 0.951 . S
C260 C258 1.388 . S
C260 C261 1.366 . S
C261 C260 1.366 . S
C261 C262 1.414 . S
C261 C264 1.499 . S
C262 H242 0.950 . S
C262 C261 1.414 . S
C262 C263 1.374 . S
C263 H243 0.950 . S
C263 C259 1.385 . S
C263 C262 1.374 . S
C264 C261 1.499 . S
C264 C265 1.373 . S
C264 C266 1.389 . S
C265 H244 0.950 . S
C265 C264 1.373 . S
C265 C281 1.377 . S
C266 C264 1.389 . S
C266 C267 1.524 . S
C266 C280 1.377 . S
C267 C266 1.524 . S
C267 C268 1.397 . S
C267 C272 1.363 . S
C268 H245 0.950 . S
C268 C267 1.397 . S
C268 C269 1.334 . S
C269 H246 0.950 . S
C269 C268 1.334 . S
C269 C270 1.287 . S
C270 C269 1.287 . S
C270 C271 1.524 . S
C270 H289 0.913 . S
C271 H247 0.950 . S
C271 C270 1.524 . S
C271 C272 1.415 . S
C272 H248 0.950 . S
C272 C267 1.363 . S
C272 C271 1.415 . S
C273 H249 0.951 . S
C273 C274 1.366 . S
C273 C275 1.388 . S
C274 C273 1.366 . S
C274 C278 1.385 . S
C275 H250 0.951 . S
C275 C273 1.388 . S
C275 C276 1.366 . S
C276 C275 1.366 . S
C276 C277 1.414 . S
C276 C279 1.499 . S
C277 H251 0.950 . S
C277 C276 1.414 . S
C277 C278 1.374 . S
C278 H252 0.950 . S
C278 C274 1.385 . S
C278 C277 1.374 . S
C279 C276 1.499 . S
C279 C280 1.373 . S
C279 C281 1.389 . S
C280 H253 0.950 . S
C280 C266 1.377 . S
C280 C279 1.373 . S
C281 C265 1.377 . S
C281 C279 1.389 . S
C281 C282 1.524 . S
C282 C281 1.524 . S
C282 C283 1.397 . S
C282 C287 1.363 . S
C283 H254 0.950 . S
C283 C282 1.397 . S
C283 C284 1.334 . S
C284 H255 0.950 . S
C284 C283 1.334 . S
C284 C285 1.287 . S
C285 C284 1.287 . S
C285 C286 1.524 . S
C285 H288 0.999 . S
C286 H256 0.950 . S
C286 C285 1.524 . S
C286 C287 1.415 . S
C287 H257 0.950 . S
C287 C282 1.363 . S
C287 C286 1.415 . S
H288 C285 0.999 . S
H289 C270 0.913 . S
H290 C308 0.951 . S
H291 C310 0.951 . S
H292 C312 0.950 . S
H293 C313 0.950 . S
H294 C315 0.950 . S
H295 C318 0.950 . S
H296 C319 0.950 . S
H297 C321 0.950 . S
H298 C322 0.950 . S
H299 C323 0.951 . S
H300 C325 0.951 . S
H301 C327 0.950 . S
H302 C328 0.950 . S
H303 C330 0.950 . S
H304 C333 0.950 . S
H305 C334 0.950 . S
H306 C336 0.950 . S
H307 C337 0.950 . S
C308 H290 0.951 . S
C308 C309 1.366 . S
C308 C310 1.388 . S
C309 C308 1.366 . S
C309 C313 1.385 . S
C310 H291 0.951 . S
C310 C308 1.388 . S
C310 C311 1.366 . S
C311 C310 1.366 . S
C311 C312 1.414 . S
C311 C314 1.499 . S
C312 H292 0.950 . S
C312 C311 1.414 . S
C312 C313 1.374 . S
C313 H293 0.950 . S
C313 C309 1.385 . S
C313 C312 1.374 . S
C314 C311 1.499 . S
C314 C315 1.373 . S
C314 C316 1.389 . S
C315 H294 0.950 . S
C315 C314 1.373 . S
C315 C331 1.377 . S
C316 C314 1.389 . S
C316 C317 1.524 . S
C316 C330 1.377 . S
C317 C316 1.524 . S
C317 C318 1.397 . S
C317 C322 1.363 . S
C318 H295 0.950 . S
C318 C317 1.397 . S
C318 C319 1.334 . S
C319 H296 0.950 . S
C319 C318 1.334 . S
C319 C320 1.287 . S
C320 C319 1.287 . S
C320 C321 1.524 . S
C320 H339 0.913 . S
C321 H297 0.950 . S
C321 C320 1.524 . S
C321 C322 1.415 . S
C322 H298 0.950 . S
C322 C317 1.363 . S
C322 C321 1.415 . S
C323 H299 0.951 . S
C323 C324 1.366 . S
C323 C325 1.388 . S
C324 C323 1.366 . S
C324 C328 1.385 . S
C325 H300 0.951 . S
C325 C323 1.388 . S
C325 C326 1.366 . S
C326 C325 1.366 . S
C326 C327 1.414 . S
C326 C329 1.499 . S
C327 H301 0.950 . S
C327 C326 1.414 . S
C327 C328 1.374 . S
C328 H302 0.950 . S
C328 C324 1.385 . S
C328 C327 1.374 . S
C329 C326 1.499 . S
C329 C330 1.373 . S
C329 C331 1.389 . S
C330 H303 0.950 . S
C330 C316 1.377 . S
C330 C329 1.373 . S
C331 C315 1.377 . S
C331 C329 1.389 . S
C331 C332 1.524 . S
C332 C331 1.524 . S
C332 C333 1.397 . S
C332 C337 1.363 . S
C333 H304 0.950 . S
C333 C332 1.397 . S
C333 C334 1.334 . S
C334 H305 0.950 . S
C334 C333 1.334 . S
C334 C335 1.287 . S
C335 C334 1.287 . S
C335 C336 1.524 . S
C335 H338 0.999 . S
C336 H306 0.950 . S
C336 C335 1.524 . S
C336 C337 1.415 . S
C337 H307 0.950 . S
C337 C332 1.363 . S
C337 C336 1.415 . S
H338 C335 0.999 . S
H339 C320 0.913 . S
H340 C358 0.951 . S
H341 C360 0.951 . S
H342 C362 0.950 . S
H343 C363 0.950 . S
H344 C365 0.950 . S
H345 C368 0.950 . S
H346 C369 0.950 . S
H347 C371 0.950 . S
H348 C372 0.950 . S
H349 C373 0.951 . S
H350 C375 0.951 . S
H351 C377 0.950 . S
H352 C378 0.950 . S
H353 C380 0.950 . S
H354 C383 0.950 . S
H355 C384 0.950 . S
H356 C386 0.950 . S
H357 C387 0.950 . S
C358 H340 0.951 . S
C358 C359 1.366 . S
C358 C360 1.388 . S
C359 C358 1.366 . S
C359 C363 1.385 . S
C360 H341 0.951 . S
C360 C358 1.388 . S
C360 C361 1.366 . S
C361 C360 1.366 . S
C361 C362 1.414 . S
C361 C364 1.499 . S
C362 H342 0.950 . S
C362 C361 1.414 . S
C362 C363 1.374 . S
C363 H343 0.950 . S
C363 C359 1.385 . S
C363 C362 1.374 . S
C364 C361 1.499 . S
C364 C365 1.373 . S
C364 C366 1.389 . S
C365 H344 0.950 . S
C365 C364 1.373 . S
C365 C381 1.377 . S
C366 C364 1.389 . S
C366 C367 1.524 . S
C366 C380 1.377 . S
C367 C366 1.524 . S
C367 C368 1.397 . S
C367 C372 1.363 . S
C368 H345 0.950 . S
C368 C367 1.397 . S
C368 C369 1.334 . S
C369 H346 0.950 . S
C369 C368 1.334 . S
C369 C370 1.287 . S
C370 C369 1.287 . S
C370 C371 1.524 . S
C370 H389 0.913 . S
C371 H347 0.950 . S
C371 C370 1.524 . S
C371 C372 1.415 . S
C372 H348 0.950 . S
C372 C367 1.363 . S
C372 C371 1.415 . S
C373 H349 0.951 . S
C373 C374 1.366 . S
C373 C375 1.388 . S
C374 C373 1.366 . S
C374 C378 1.385 . S
C375 H350 0.951 . S
C375 C373 1.388 . S
C375 C376 1.366 . S
C376 C375 1.366 . S
C376 C377 1.414 . S
C376 C379 1.499 . S
C377 H351 0.950 . S
C377 C376 1.414 . S
C377 C378 1.374 . S
C378 H352 0.950 . S
C378 C374 1.385 . S
C378 C377 1.374 . S
C379 C376 1.499 . S
C379 C380 1.373 . S
C379 C381 1.389 . S
C380 H353 0.950 . S
C380 C366 1.377 . S
C380 C379 1.373 . S
C381 C365 1.377 . S
C381 C379 1.389 . S
C381 C382 1.524 . S
C382 C381 1.524 . S
C382 C383 1.397 . S
C382 C387 1.363 . S
C383 H354 0.950 . S
C383 C382 1.397 . S
C383 C384 1.334 . S
C384 H355 0.950 . S
C384 C383 1.334 . S
C384 C385 1.287 . S
C385 C384 1.287 . S
C385 C386 1.524 . S
C385 H388 0.999 . S
C386 H356 0.950 . S
C386 C385 1.524 . S
C386 C387 1.415 . S
C387 H357 0.950 . S
C387 C382 1.363 . S
C387 C386 1.415 . S
H388 C385 0.999 . S
H389 C370 0.913 . S
H390 C408 0.951 . S
H391 C410 0.951 . S
H392 C412 0.950 . S
H393 C413 0.950 . S
H394 C415 0.950 . S
H395 C418 0.950 . S
H396 C419 0.950 . S
H397 C421 0.950 . S
H398 C422 0.950 . S
H399 C423 0.951 . S
H400 C425 0.951 . S
H401 C427 0.950 . S
H402 C428 0.950 . S
H403 C430 0.950 . S
H404 C433 0.950 . S
H405 C434 0.950 . S
H406 C436 0.950 . S
H407 C437 0.950 . S
C408 H390 0.951 . S
C408 C409 1.366 . S
C408 C410 1.388 . S
C409 C408 1.366 . S
C409 C413 1.385 . S
C410 H391 0.951 . S
C410 C408 1.388 . S
C410 C411 1.366 . S
C411 C410 1.366 . S
C411 C412 1.414 . S
C411 C414 1.499 . S
C412 H392 0.950 . S
C412 C411 1.414 . S
C412 C413 1.374 . S
C413 H393 0.950 . S
C413 C409 1.385 . S
C413 C412 1.374 . S
C414 C411 1.499 . S
C414 C415 1.373 . S
C414 C416 1.389 . S
C415 H394 0.950 . S
C415 C414 1.373 . S
C415 C431 1.377 . S
C416 C414 1.389 . S
C416 C417 1.524 . S
C416 C430 1.377 . S
C417 C416 1.524 . S
C417 C418 1.397 . S
C417 C422 1.363 . S
C418 H395 0.950 . S
C418 C417 1.397 . S
C418 C419 1.334 . S
C419 H396 0.950 . S
C419 C418 1.334 . S
C419 C420 1.287 . S
C420 C419 1.287 . S
C420 C421 1.524 . S
C420 H439 0.913 . S
C421 H397 0.950 . S
C421 C420 1.524 . S
C421 C422 1.415 . S
C422 H398 0.950 . S
C422 C417 1.363 . S
C422 C421 1.415 . S
C423 H399 0.951 . S
C423 C424 1.366 . S
C423 C425 1.388 . S
C424 C423 1.366 . S
C424 C428 1.385 . S
C425 H400 0.951 . S
C425 C423 1.388 . S
C425 C426 1.366 . S
C426 C425 1.366 . S
C426 C427 1.414 . S
C426 C429 1.499 . S
C427 H401 0.950 . S
C427 C426 1.414 . S
C427 C428 1.374 . S
C428 H402 0.950 . S
C428 C424 1.385 . S
C428 C427 1.374 . S
C429 C426 1.499 . S
C429 C430 1.373 . S
C429 C431 1.389 . S
C430 H403 0.950 . S
C430 C416 1.377 . S
C430 C429 1.373 . S
C431 C415 1.377 . S
C431 C429 1.389 . S
C431 C432 1.524 . S
C432 C431 1.524 . S
C432 C433 1.397 . S
C432 C437 1.363 . S
C433 H404 0.950 . S
C433 C432 1.397 . S
C433 C434 1.334 . S
C434 H405 0.950 . S
C434 C433 1.334 . S
C434 C435 1.287 . S
C435 C434 1.287 . S
C435 C436 1.524 . S
C435 H438 0.999 . S
C436 H406 0.950 . S
C436 C435 1.524 . S
C436 C437 1.415 . S
C437 H407 0.950 . S
C437 C432 1.363 . S
C437 C436 1.415 . S
H438 C435 0.999 . S
H439 C420 0.913 . S
H440 C458 0.951 . S
H441 C460 0.951 . S
H442 C462 0.950 . S
H443 C463 0.950 . S
H444 C465 0.950 . S
H445 C468 0.950 . S
H446 C469 0.950 . S
H447 C471 0.950 . S
H448 C472 0.950 . S
H449 C473 0.951 . S
H450 C475 0.951 . S
H451 C477 0.950 . S
H452 C478 0.950 . S
H453 C480 0.950 . S
H454 C483 0.950 . S
H455 C484 0.950 . S
H456 C486 0.950 . S
H457 C487 0.950 . S
C458 H440 0.951 . S
C458 C459 1.366 . S
C458 C460 1.388 . S
C459 C458 1.366 . S
C459 C463 1.385 . S
C460 H441 0.951 . S
C460 C458 1.388 . S
C460 C461 1.366 . S
C461 C460 1.366 . S
C461 C462 1.414 . S
C461 C464 1.499 . S
C462 H442 0.950 . S
C462 C461 1.414 . S
C462 C463 1.374 . S
C463 H443 0.950 . S
C463 C459 1.385 . S
C463 C462 1.374 . S
C464 C461 1.499 . S
C464 C465 1.373 . S
C464 C466 1.389 . S
C465 H444 0.950 . S
C465 C464 1.373 . S
C465 C481 1.377 . S
C466 C464 1.389 . S
C466 C467 1.524 . S
C466 C480 1.377 . S
C467 C466 1.524 . S
C467 C468 1.397 . S
C467 C472 1.363 . S
C468 H445 0.950 . S
C468 C467 1.397 . S
C468 C469 1.334 . S
C469 H446 0.950 . S
C469 C468 1.334 . S
C469 C470 1.287 . S
C470 C469 1.287 . S
C470 C471 1.524 . S
C470 H489 0.913 . S
C471 H447 0.950 . S
C471 C470 1.524 . S
C471 C472 1.415 . S
C472 H448 0.950 . S
C472 C467 1.363 . S
C472 C471 1.415 . S
C473 H449 0.951 . S
C473 C474 1.366 . S
C473 C475 1.388 . S
C474 C473 1.366 . S
C474 C478 1.385 . S
C475 H450 0.951 . S
C475 C473 1.388 . S
C475 C476 1.366 . S
C476 C475 1.366 . S
C476 C477 1.414 . S
C476 C479 1.499 . S
C477 H451 0.950 . S
C477 C476 1.414 . S
C477 C478 1.374 . S
C478 H452 0.950 . S
C478 C474 1.385 . S
C478 C477 1.374 . S
C479 C476 1.499 . S
C479 C480 1.373 . S
C479 C481 1.389 . S
C480 H453 0.950 . S
C480 C466 1.377 . S
C480 C479 1.373 . S
C481 C465 1.377 . S
C481 C479 1.389 . S
C481 C482 1.524 . S
C482 C481 1.524 . S
C482 C483 1.397 . S
C482 C487 1.363 . S
C483 H454 0.950 . S
C483 C482 1.397 . S
C483 C484 1.334 . S
C484 H455 0.950 . S
C484 C483 1.334 . S
C484 C485 1.287 . S
C485 C484 1.287 . S
C485 C486 1.524 . S
C485 H488 0.999 . S
C486 H456 0.950 . S
C486 C485 1.524 . S
C486 C487 1.415 . S
C487 H457 0.950 . S
C487 C482 1.363 . S
C487 C486 1.415 . S
H488 C485 0.999 . S
H489 C470 0.913 . S
H490 C508 0.951 . S
H491 C510 0.951 . S
H492 C512 0.950 . S
H493 C513 0.950 . S
H494 C515 0.950 . S
H495 C518 0.950 . S
H496 C519 0.950 . S
H497 C521 0.950 . S
H498 C522 0.950 . S
H499 C523 0.951 . S
H500 C525 0.951 . S
H501 C527 0.950 . S
H502 C528 0.950 . S
H503 C530 0.950 . S
H504 C533 0.950 . S
H505 C534 0.950 . S
H506 C536 0.950 . S
H507 C537 0.950 . S
C508 H490 0.951 . S
C508 C509 1.366 . S
C508 C510 1.388 . S
C509 C508 1.366 . S
C509 C513 1.385 . S
C510 H491 0.951 . S
C510 C508 1.388 . S
C510 C511 1.366 . S
C511 C510 1.366 . S
C511 C512 1.414 . S
C511 C514 1.499 . S
C512 H492 0.950 . S
C512 C511 1.414 . S
C512 C513 1.374 . S
C513 H493 0.950 . S
C513 C509 1.385 . S
C513 C512 1.374 . S
C514 C511 1.499 . S
C514 C515 1.373 . S
C514 C516 1.389 . S
C515 H494 0.950 . S
C515 C514 1.373 . S
C515 C531 1.377 . S
C516 C514 1.389 . S
C516 C517 1.524 . S
C516 C530 1.377 . S
C517 C516 1.524 . S
C517 C518 1.397 . S
C517 C522 1.363 . S
C518 H495 0.950 . S
C518 C517 1.397 . S
C518 C519 1.334 . S
C519 H496 0.950 . S
C519 C518 1.334 . S
C519 C520 1.287 . S
C520 C519 1.287 . S
C520 C521 1.524 . S
C520 H539 0.913 . S
C521 H497 0.950 . S
C521 C520 1.524 . S
C521 C522 1.415 . S
C522 H498 0.950 . S
C522 C517 1.363 . S
C522 C521 1.415 . S
C523 H499 0.951 . S
C523 C524 1.366 . S
C523 C525 1.388 . S
C524 C523 1.366 . S
C524 C528 1.385 . S
C525 H500 0.951 . S
C525 C523 1.388 . S
C525 C526 1.366 . S
C526 C525 1.366 . S
C526 C527 1.414 . S
C526 C529 1.499 . S
C527 H501 0.950 . S
C527 C526 1.414 . S
C527 C528 1.374 . S
C528 H502 0.950 . S
C528 C524 1.385 . S
C528 C527 1.374 . S
C529 C526 1.499 . S
C529 C530 1.373 . S
C529 C531 1.389 . S
C530 H503 0.950 . S
C530 C516 1.377 . S
C530 C529 1.373 . S
C531 C515 1.377 . S
C531 C529 1.389 . S
C531 C532 1.524 . S
C532 C531 1.524 . S
C532 C533 1.397 . S
C532 C537 1.363 . S
C533 H504 0.950 . S
C533 C532 1.397 . S
C533 C534 1.334 . S
C534 H505 0.950 . S
C534 C533 1.334 . S
C534 C535 1.287 . S
C535 C534 1.287 . S
C535 C536 1.524 . S
C535 H538 0.999 . S
C536 H506 0.950 . S
C536 C535 1.524 . S
C536 C537 1.415 . S
C537 H507 0.950 . S
C537 C532 1.363 . S
C537 C536 1.415 . S
H538 C535 0.999 . S
H539 C520 0.913 . S
H540 C558 0.951 . S
H541 C560 0.951 . S
H542 C562 0.950 . S
H543 C563 0.950 . S
H544 C565 0.950 . S
H545 C568 0.957 . S
H546 C569 0.950 . S
H547 C571 0.950 . S
H548 C572 0.950 . S
H549 C573 0.951 . S
H550 C575 0.951 . S
H551 C577 0.950 . S
H552 C578 0.950 . S
H553 C580 0.950 . S
H554 C583 0.950 . S
H555 C584 0.950 . S
H556 C586 0.950 . S
H557 C587 0.950 . S
C558 H540 0.951 . S
C558 C559 1.366 . S
C558 C560 1.388 . S
C559 C558 1.366 . S
C559 C563 1.385 . S
C560 H541 0.951 . S
C560 C558 1.388 . S
C560 C561 1.366 . S
C561 C560 1.366 . S
C561 C562 1.414 . S
C561 C564 1.499 . S
C562 H542 0.950 . S
C562 C561 1.414 . S
C562 C563 1.374 . S
C563 H543 0.950 . S
C563 C559 1.385 . S
C563 C562 1.374 . S
C564 C561 1.499 . S
C564 C565 1.373 . S
C564 C566 1.389 . S
C565 H544 0.950 . S
C565 C564 1.373 . S
C565 C581 1.377 . S
C566 C564 1.389 . S
C566 C567 1.524 . S
C566 C580 1.377 . S
C567 C566 1.524 . S
C567 C568 1.397 . S
C567 C572 1.363 . S
C568 H545 0.957 . S
C568 C567 1.397 . S
C568 C569 1.334 1_554 S
C569 H546 0.950 . S
C569 C568 1.334 1_556 S
C569 C570 1.287 . S
C570 C569 1.287 . S
C570 C571 1.524 1_556 S
C570 H589 0.913 . S
C571 H547 0.950 . S
C571 C570 1.524 1_554 S
C571 C572 1.415 . S
C572 H548 0.950 . S
C572 C567 1.363 . S
C572 C571 1.415 . S
C573 H549 0.951 . S
C573 C574 1.366 . S
C573 C575 1.388 . S
C574 C573 1.366 . S
C574 C578 1.385 . S
C575 H550 0.951 . S
C575 C573 1.388 . S
C575 C576 1.366 . S
C576 C575 1.366 . S
C576 C577 1.414 . S
C576 C579 1.499 . S
C577 H551 0.950 . S
C577 C576 1.414 . S
C577 C578 1.374 . S
C578 H552 0.950 . S
C578 C574 1.385 . S
C578 C577 1.374 . S
C579 C576 1.499 . S
C579 C580 1.373 . S
C579 C581 1.389 . S
C580 H553 0.950 . S
C580 C566 1.377 . S
C580 C579 1.373 . S
C581 C565 1.377 . S
C581 C579 1.389 . S
C581 C582 1.524 . S
C582 C581 1.524 . S
C582 C583 1.397 . S
C582 C587 1.363 . S
C583 H554 0.950 . S
C583 C582 1.397 . S
C583 C584 1.334 . S
C584 H555 0.950 . S
C584 C583 1.334 . S
C584 C585 1.287 . S
C585 C584 1.287 . S
C585 C586 1.524 . S
C585 H588 0.999 . S
C586 H556 0.950 . S
C586 C585 1.524 . S
C586 C587 1.415 . S
C587 H557 0.950 . S
C587 C582 1.363 . S
C587 C586 1.415 . S
H588 C585 0.999 . S
H589 C570 0.913 . S
H590 C608 0.951 . S
H591 C610 0.951 . S
H592 C612 0.950 . S
H593 C613 0.950 . S
H594 C615 0.950 . S
H595 C618 0.950 . S
H596 C619 0.950 . S
H597 C621 0.950 . S
H598 C622 0.950 . S
H599 C623 0.951 . S
H600 C625 0.951 . S
H601 C627 0.950 . S
H602 C628 0.950 . S
H603 C630 0.950 . S
H604 C633 0.950 . S
H605 C634 0.950 . S
H606 C636 0.950 . S
H607 C637 0.950 . S
C608 H590 0.951 . S
C608 C609 1.366 . S
C608 C610 1.388 . S
C609 C608 1.366 . S
C609 C613 1.385 . S
C610 H591 0.951 . S
C610 C608 1.388 . S
C610 C611 1.366 . S
C611 C610 1.366 . S
C611 C612 1.414 . S
C611 C614 1.499 . S
C612 H592 0.950 . S
C612 C611 1.414 . S
C612 C613 1.374 . S
C613 H593 0.950 . S
C613 C609 1.385 . S
C613 C612 1.374 . S
C614 C611 1.499 . S
C614 C615 1.373 1_455 S
C614 C616 1.389 . S
C615 H594 0.950 . S
C615 C614 1.373 1_655 S
C615 C631 1.377 . S
C616 C614 1.389 . S
C616 C617 1.524 . S
C616 C630 1.377 . S
C617 C616 1.524 . S
C617 C618 1.397 . S
C617 C622 1.363 . S
C618 H595 0.950 . S
C618 C617 1.397 . S
C618 C619 1.334 . S
C619 H596 0.950 . S
C619 C618 1.334 . S
C619 C620 1.287 . S
C620 C619 1.287 . S
C620 C621 1.524 . S
C620 H639 0.913 . S
C621 H597 0.950 . S
C621 C620 1.524 . S
C621 C622 1.415 . S
C622 H598 0.950 . S
C622 C617 1.363 . S
C622 C621 1.415 . S
C623 H599 0.951 . S
C623 C624 1.366 . S
C623 C625 1.388 . S
C624 C623 1.366 . S
C624 C628 1.385 . S
C625 H600 0.951 . S
C625 C623 1.388 . S
C625 C626 1.366 . S
C626 C625 1.366 . S
C626 C627 1.414 . S
C626 C629 1.499 . S
C627 H601 0.950 . S
C627 C626 1.414 . S
C627 C628 1.374 . S
C628 H602 0.950 . S
C628 C624 1.385 . S
C628 C627 1.374 . S
C629 C626 1.499 . S
C629 C630 1.373 1_655 S
C629 C631 1.389 . S
C630 H603 0.950 . S
C630 C616 1.377 . S
C630 C629 1.373 1_455 S
C631 C615 1.377 . S
C631 C629 1.389 . S
C631 C632 1.524 . S
C632 C631 1.524 . S
C632 C633 1.397 . S
C632 C637 1.363 . S
C633 H604 0.950 . S
C633 C632 1.397 . S
C633 C634 1.334 . S
C634 H605 0.950 . S
C634 C633 1.334 . S
C634 C635 1.287 . S
C635 C634 1.287 . S
C635 C636 1.524 . S
C635 H638 0.999 . S
C636 H606 0.950 . S
C636 C635 1.524 . S
C636 C637 1.415 . S
C637 H607 0.950 . S
C637 C632 1.363 . S
C637 C636 1.415 . S
H638 C635 0.999 . S
H639 C620 0.913 . S
H640 C658 0.951 . S
H641 C660 0.951 . S
H642 C662 0.950 . S
H643 C663 0.950 . S
H644 C665 0.950 . S
H645 C668 0.950 . S
H646 C669 0.950 . S
H647 C671 0.950 . S
H648 C672 0.950 . S
H649 C673 0.951 . S
H650 C675 0.951 . S
H651 C677 0.950 . S
H652 C678 0.950 . S
H653 C680 0.950 . S
H654 C683 0.950 . S
H655 C684 0.950 . S
H656 C686 0.950 . S
H657 C687 0.950 . S
C658 H640 0.951 . S
C658 C659 1.366 . S
C658 C660 1.388 . S
C659 C658 1.366 . S
C659 C663 1.385 . S
C660 H641 0.951 . S
C660 C658 1.388 . S
C660 C661 1.366 . S
C661 C660 1.366 . S
C661 C662 1.414 . S
C661 C664 1.499 . S
C662 H642 0.950 . S
C662 C661 1.414 . S
C662 C663 1.374 . S
C663 H643 0.950 . S
C663 C659 1.385 . S
C663 C662 1.374 . S
C664 C661 1.499 . S
C664 C665 1.373 . S
C664 C666 1.389 . S
C665 H644 0.950 . S
C665 C664 1.373 . S
C665 C681 1.377 1_545 S
C666 C664 1.389 . S
C666 C667 1.524 . S
C666 C680 1.377 1_545 S
C667 C666 1.524 . S
C667 C668 1.397 . S
C667 C672 1.363 1_545 S
C668 H645 0.950 . S
C668 C667 1.397 . S
C668 C669 1.334 . S
C669 H646 0.950 . S
C669 C668 1.334 . S
C669 C670 1.287 . S
C670 C669 1.287 . S
C670 C671 1.524 1_545 S
C670 H689 0.913 . S
C671 H647 0.950 . S
C671 C670 1.524 1_565 S
C671 C672 1.415 . S
C672 H648 0.950 . S
C672 C667 1.363 1_565 S
C672 C671 1.415 . S
C673 H649 0.951 . S
C673 C674 1.366 . S
C673 C675 1.388 . S
C674 C673 1.366 . S
C674 C678 1.385 . S
C675 H650 0.951 . S
C675 C673 1.388 . S
C675 C676 1.366 . S
C676 C675 1.366 . S
C676 C677 1.414 . S
C676 C679 1.499 . S
C677 H651 0.950 . S
C677 C676 1.414 . S
C677 C678 1.374 . S
C678 H652 0.950 . S
C678 C674 1.385 . S
C678 C677 1.374 . S
C679 C676 1.499 . S
C679 C680 1.373 . S
C679 C681 1.389 . S
C680 H653 0.950 . S
C680 C666 1.377 1_565 S
C680 C679 1.373 . S
C681 C665 1.377 1_565 S
C681 C679 1.389 . S
C681 C682 1.524 . S
C682 C681 1.524 . S
C682 C683 1.397 . S
C682 C687 1.363 1_565 S
C683 H654 0.950 . S
C683 C682 1.397 . S
C683 C684 1.334 . S
C684 H655 0.950 . S
C684 C683 1.334 . S
C684 C685 1.287 . S
C685 C684 1.287 . S
C685 C686 1.524 1_565 S
C685 H688 0.999 . S
C686 H656 0.950 . S
C686 C685 1.524 1_545 S
C686 C687 1.415 . S
C687 H657 0.950 . S
C687 C682 1.363 1_545 S
C687 C686 1.415 . S
H688 C685 0.999 . S
H689 C670 0.913 . S
H690 C708 0.951 . S
H691 C710 0.951 . S
H692 C712 0.950 . S
H693 C713 0.950 . S
H694 C715 0.950 . S
H695 C718 0.950 . S
H696 C719 0.950 . S
H697 C721 0.950 . S
H698 C722 0.950 . S
H699 C723 0.951 . S
H700 C725 0.951 . S
H701 C727 0.950 . S
H702 C728 0.950 . S
H703 C730 0.950 . S
H704 C733 0.950 . S
H705 C734 0.950 . S
H706 C736 0.950 . S
H707 C737 0.950 . S
C708 H690 0.951 . S
C708 C709 1.366 . S
C708 C710 1.388 . S
C709 C708 1.366 . S
C709 C713 1.385 . S
C710 H691 0.951 . S
C710 C708 1.388 . S
C710 C711 1.366 . S
C711 C710 1.366 . S
C711 C712 1.414 . S
C711 C714 1.499 . S
C712 H692 0.950 . S
C712 C711 1.414 . S
C712 C713 1.374 . S
C713 H693 0.950 . S
C713 C709 1.385 . S
C713 C712 1.374 . S
C714 C711 1.499 . S
C714 C715 1.373 . S
C714 C716 1.389 . S
C715 H694 0.950 . S
C715 C714 1.373 . S
C715 C731 1.377 . S
C716 C714 1.389 . S
C716 C717 1.524 . S
C716 C730 1.377 . S
C717 C716 1.524 . S
C717 C718 1.397 . S
C717 C722 1.363 . S
C718 H695 0.950 . S
C718 C717 1.397 . S
C718 C719 1.334 . S
C719 H696 0.950 . S
C719 C718 1.334 . S
C719 C720 1.287 . S
C720 C719 1.287 . S
C720 C721 1.524 . S
C720 H739 0.913 . S
C721 H697 0.950 . S
C721 C720 1.524 . S
C721 C722 1.415 . S
C722 H698 0.950 . S
C722 C717 1.363 . S
C722 C721 1.415 . S
C723 H699 0.951 . S
C723 C724 1.366 . S
C723 C725 1.388 . S
C724 C723 1.366 . S
C724 C728 1.385 . S
C725 H700 0.951 . S
C725 C723 1.388 . S
C725 C726 1.366 . S
C726 C725 1.366 . S
C726 C727 1.414 . S
C726 C729 1.499 . S
C727 H701 0.950 . S
C727 C726 1.414 . S
C727 C728 1.374 . S
C728 H702 0.950 . S
C728 C724 1.385 . S
C728 C727 1.374 . S
C729 C726 1.499 . S
C729 C730 1.373 . S
C729 C731 1.389 . S
C730 H703 0.950 . S
C730 C716 1.377 . S
C730 C729 1.373 . S
C731 C715 1.377 . S
C731 C729 1.389 . S
C731 C732 1.524 . S
C732 C731 1.524 . S
C732 C733 1.397 . S
C732 C737 1.363 . S
C733 H704 0.950 . S
C733 C732 1.397 . S
C733 C734 1.334 . S
C734 H705 0.950 . S
C734 C733 1.334 . S
C734 C735 1.287 . S
C735 C734 1.287 . S
C735 C736 1.524 . S
C735 H738 0.999 . S
C736 H706 0.950 . S
C736 C735 1.524 . S
C736 C737 1.415 . S
C737 H707 0.950 . S
C737 C732 1.363 . S
C737 C736 1.415 . S
H738 C735 0.999 . S
H739 C720 0.913 . S
H740 C758 0.951 . S
H741 C760 0.951 . S
H742 C762 0.950 . S
H743 C763 0.950 . S
H744 C765 0.950 . S
H745 C768 0.950 . S
H746 C769 0.950 . S
H747 C771 0.950 . S
H748 C772 0.950 . S
H749 C773 0.951 . S
H750 C775 0.951 . S
H751 C777 0.950 . S
H752 C778 0.950 . S
H753 C780 0.950 . S
H754 C783 0.950 . S
H755 C784 0.950 . S
H756 C786 0.941 1_554 S
H757 C787 0.950 . S
C758 H740 0.951 . S
C758 C759 1.366 . S
C758 C760 1.388 . S
C759 C758 1.366 . S
C759 C763 1.385 . S
C760 H741 0.951 . S
C760 C758 1.388 . S
C760 C761 1.366 . S
C761 C760 1.366 . S
C761 C762 1.414 . S
C761 C764 1.499 . S
C762 H742 0.950 . S
C762 C761 1.414 . S
C762 C763 1.374 . S
C763 H743 0.950 . S
C763 C759 1.385 . S
C763 C762 1.374 . S
C764 C761 1.499 . S
C764 C765 1.373 1_455 S
C764 C766 1.389 . S
C765 H744 0.950 . S
C765 C764 1.373 1_655 S
C765 C781 1.377 . S
C766 C764 1.389 . S
C766 C767 1.524 . S
C766 C780 1.377 . S
C767 C766 1.524 . S
C767 C768 1.397 . S
C767 C772 1.363 . S
C768 H745 0.950 . S
C768 C767 1.397 . S
C768 C769 1.334 . S
C769 H746 0.950 . S
C769 C768 1.334 . S
C769 C770 1.287 . S
C770 C769 1.287 . S
C770 C771 1.524 . S
C770 H789 0.913 . S
C771 H747 0.950 . S
C771 C770 1.524 . S
C771 C772 1.415 . S
C772 H748 0.950 . S
C772 C767 1.363 . S
C772 C771 1.415 . S
C773 H749 0.951 . S
C773 C774 1.366 . S
C773 C775 1.388 . S
C774 C773 1.366 . S
C774 C778 1.385 . S
C775 H750 0.951 . S
C775 C773 1.388 . S
C775 C776 1.366 . S
C776 C775 1.366 . S
C776 C777 1.414 . S
C776 C779 1.499 . S
C777 H751 0.950 . S
C777 C776 1.414 . S
C777 C778 1.374 . S
C778 H752 0.950 . S
C778 C774 1.385 . S
C778 C777 1.374 . S
C779 C776 1.499 . S
C779 C780 1.373 1_655 S
C779 C781 1.389 . S
C780 H753 0.950 . S
C780 C766 1.377 . S
C780 C779 1.373 1_455 S
C781 C765 1.377 . S
C781 C779 1.389 . S
C781 C782 1.524 . S
C782 C781 1.524 . S
C782 C783 1.397 1_554 S
C782 C787 1.363 . S
C783 H754 0.950 . S
C783 C782 1.397 1_556 S
C783 C784 1.334 . S
C784 H755 0.950 . S
C784 C783 1.334 . S
C784 C785 1.287 . S
C785 C784 1.287 . S
C785 C786 1.524 . S
C785 H788 0.999 . S
C786 H756 0.941 1_556 S
C786 C785 1.524 . S
C786 C787 1.415 1_556 S
C787 H757 0.950 . S
C787 C782 1.363 . S
C787 C786 1.415 1_554 S
H788 C785 0.999 . S
H789 C770 0.913 . S
H790 C808 0.951 . S
H791 C810 0.951 . S
H792 C812 0.950 . S
H793 C813 0.950 . S
H794 C815 0.950 . S
H795 C818 0.950 . S
H796 C819 0.950 . S
H797 C821 0.950 . S
H798 C822 0.950 . S
H799 C823 0.951 . S
H800 C825 0.951 . S
H801 C827 0.950 . S
H802 C828 0.950 . S
H803 C830 0.950 . S
H804 C833 0.950 . S
H805 C834 0.950 . S
H806 C836 0.950 . S
H807 C837 0.950 . S
C808 H790 0.951 . S
C808 C809 1.366 . S
C808 C810 1.388 . S
C809 C808 1.366 . S
C809 C813 1.385 . S
C810 H791 0.951 . S
C810 C808 1.388 . S
C810 C811 1.366 . S
C811 C810 1.366 . S
C811 C812 1.414 . S
C811 C814 1.499 . S
C812 H792 0.950 . S
C812 C811 1.414 . S
C812 C813 1.374 . S
C813 H793 0.950 . S
C813 C809 1.385 . S
C813 C812 1.374 . S
C814 C811 1.499 . S
C814 C815 1.373 1_565 S
C814 C816 1.389 . S
C815 H794 0.950 . S
C815 C814 1.373 1_545 S
C815 C831 1.377 . S
C816 C814 1.389 . S
C816 C817 1.524 . S
C816 C830 1.377 . S
C817 C816 1.524 . S
C817 C818 1.397 . S
C817 C822 1.363 . S
C818 H795 0.950 . S
C818 C817 1.397 . S
C818 C819 1.334 . S
C819 H796 0.950 . S
C819 C818 1.334 . S
C819 C820 1.287 . S
C820 C819 1.287 . S
C820 C821 1.524 . S
C820 H839 0.913 . S
C821 H797 0.950 . S
C821 C820 1.524 . S
C821 C822 1.415 . S
C822 H798 0.950 . S
C822 C817 1.363 . S
C822 C821 1.415 . S
C823 H799 0.951 . S
C823 C824 1.366 . S
C823 C825 1.388 . S
C824 C823 1.366 . S
C824 C828 1.385 . S
C825 H800 0.951 . S
C825 C823 1.388 . S
C825 C826 1.366 . S
C826 C825 1.366 . S
C826 C827 1.414 . S
C826 C829 1.499 . S
C827 H801 0.950 . S
C827 C826 1.414 . S
C827 C828 1.374 . S
C828 H802 0.950 . S
C828 C824 1.385 . S
C828 C827 1.374 . S
C829 C826 1.499 . S
C829 C830 1.373 1_545 S
C829 C831 1.389 . S
C830 H803 0.950 . S
C830 C816 1.377 . S
C830 C829 1.373 1_565 S
C831 C815 1.377 . S
C831 C829 1.389 . S
C831 C832 1.524 . S
C832 C831 1.524 . S
C832 C833 1.397 . S
C832 C837 1.363 . S
C833 H804 0.950 . S
C833 C832 1.397 . S
C833 C834 1.334 . S
C834 H805 0.950 . S
C834 C833 1.334 . S
C834 C835 1.287 . S
C835 C834 1.287 . S
C835 C836 1.524 . S
C835 H838 0.999 . S
C836 H806 0.950 . S
C836 C835 1.524 . S
C836 C837 1.415 . S
C837 H807 0.950 . S
C837 C832 1.363 . S
C837 C836 1.415 . S
H838 C835 0.999 . S
H839 C820 0.913 . S
H840 C858 0.951 . S
H841 C860 0.951 . S
H842 C862 0.950 . S
H843 C863 0.950 . S
H844 C865 0.950 . S
H845 C868 0.950 . S
H846 C869 0.950 . S
H847 C871 0.950 . S
H848 C872 0.950 . S
H849 C873 0.951 . S
H850 C875 0.951 . S
H851 C877 0.950 . S
H852 C878 0.950 . S
H853 C880 0.950 . S
H854 C883 0.950 . S
H855 C884 0.950 . S
H856 C886 0.950 . S
H857 C887 0.950 . S
C858 H840 0.951 . S
C858 C859 1.366 . S
C858 C860 1.388 . S
C859 C858 1.366 . S
C859 C863 1.385 . S
C860 H841 0.951 . S
C860 C858 1.388 . S
C860 C861 1.366 . S
C861 C860 1.366 . S
C861 C862 1.414 . S
C861 C864 1.499 . S
C862 H842 0.950 . S
C862 C861 1.414 . S
C862 C863 1.374 . S
C863 H843 0.950 . S
C863 C859 1.385 . S
C863 C862 1.374 . S
C864 C861 1.499 . S
C864 C865 1.373 . S
C864 C866 1.389 . S
C865 H844 0.950 . S
C865 C864 1.373 . S
C865 C881 1.377 . S
C866 C864 1.389 . S
C866 C867 1.524 . S
C866 C880 1.377 . S
C867 C866 1.524 . S
C867 C868 1.397 . S
C867 C872 1.363 . S
C868 H845 0.950 . S
C868 C867 1.397 . S
C868 C869 1.334 . S
C869 H846 0.950 . S
C869 C868 1.334 . S
C869 C870 1.287 . S
C870 C869 1.287 . S
C870 C871 1.524 . S
C870 H889 0.913 . S
C871 H847 0.950 . S
C871 C870 1.524 . S
C871 C872 1.415 . S
C872 H848 0.950 . S
C872 C867 1.363 . S
C872 C871 1.415 . S
C873 H849 0.951 . S
C873 C874 1.366 . S
C873 C875 1.388 . S
C874 C873 1.366 . S
C874 C878 1.385 . S
C875 H850 0.951 . S
C875 C873 1.388 . S
C875 C876 1.366 . S
C876 C875 1.366 . S
C876 C877 1.414 . S
C876 C879 1.499 . S
C877 H851 0.950 . S
C877 C876 1.414 . S
C877 C878 1.374 . S
C878 H852 0.950 . S
C878 C874 1.385 . S
C878 C877 1.374 . S
C879 C876 1.499 . S
C879 C880 1.373 . S
C879 C881 1.389 . S
C880 H853 0.950 . S
C880 C866 1.377 . S
C880 C879 1.373 . S
C881 C865 1.377 . S
C881 C879 1.389 . S
C881 C882 1.524 . S
C882 C881 1.524 . S
C882 C883 1.397 . S
C882 C887 1.363 . S
C883 H854 0.950 . S
C883 C882 1.397 . S
C883 C884 1.334 . S
C884 H855 0.950 . S
C884 C883 1.334 . S
C884 C885 1.287 . S
C885 C884 1.287 . S
C885 C886 1.524 . S
C885 H888 0.999 . S
C886 H856 0.950 . S
C886 C885 1.524 . S
C886 C887 1.415 . S
C887 H857 0.950 . S
C887 C882 1.363 . S
C887 C886 1.415 . S
H888 C885 0.999 . S
H889 C870 0.913 . S
H890 C908 0.951 . S
H891 C910 0.951 . S
H892 C912 0.950 . S
H893 C913 0.950 . S
H894 C915 0.950 . S
H895 C918 0.950 . S
H896 C919 0.950 . S
H897 C921 0.950 . S
H898 C922 0.950 . S
H899 C923 0.951 . S
H900 C925 0.951 . S
H901 C927 0.950 . S
H902 C928 0.950 . S
H903 C930 0.950 . S
H904 C933 0.950 . S
H905 C934 0.950 . S
H906 C936 0.950 . S
H907 C937 0.950 . S
C908 H890 0.951 . S
C908 C909 1.366 . S
C908 C910 1.388 . S
C909 C908 1.366 . S
C909 C913 1.385 . S
C910 H891 0.951 . S
C910 C908 1.388 . S
C910 C911 1.366 . S
C911 C910 1.366 . S
C911 C912 1.414 . S
C911 C914 1.499 . S
C912 H892 0.950 . S
C912 C911 1.414 . S
C912 C913 1.374 . S
C913 H893 0.950 . S
C913 C909 1.385 . S
C913 C912 1.374 . S
C914 C911 1.499 . S
C914 C915 1.373 . S
C914 C916 1.389 . S
C915 H894 0.950 . S
C915 C914 1.373 . S
C915 C931 1.377 . S
C916 C914 1.389 . S
C916 C917 1.524 1_655 S
C916 C930 1.377 1_655 S
C917 C916 1.524 1_455 S
C917 C918 1.397 1_455 S
C917 C922 1.363 . S
C918 H895 0.950 . S
C918 C917 1.397 1_655 S
C918 C919 1.334 1_655 S
C919 H896 0.950 . S
C919 C918 1.334 1_455 S
C919 C920 1.287 . S
C920 C919 1.287 . S
C920 C921 1.524 . S
C920 H939 0.913 . S
C921 H897 0.950 . S
C921 C920 1.524 . S
C921 C922 1.415 . S
C922 H898 0.950 . S
C922 C917 1.363 . S
C922 C921 1.415 . S
C923 H899 0.951 . S
C923 C924 1.366 . S
C923 C925 1.388 1_455 S
C924 C923 1.366 . S
C924 C928 1.385 . S
C925 H900 0.951 . S
C925 C923 1.388 1_655 S
C925 C926 1.366 1_655 S
C926 C925 1.366 1_455 S
C926 C927 1.414 . S
C926 C929 1.499 1_455 S
C927 H901 0.950 . S
C927 C926 1.414 . S
C927 C928 1.374 . S
C928 H902 0.950 . S
C928 C924 1.385 . S
C928 C927 1.374 . S
C929 C926 1.499 1_655 S
C929 C930 1.373 1_655 S
C929 C931 1.389 . S
C930 H903 0.950 . S
C930 C916 1.377 1_455 S
C930 C929 1.373 1_455 S
C931 C915 1.377 . S
C931 C929 1.389 . S
C931 C932 1.524 . S
C932 C931 1.524 . S
C932 C933 1.397 . S
C932 C937 1.363 . S
C933 H904 0.950 . S
C933 C932 1.397 . S
C933 C934 1.334 . S
C934 H905 0.950 . S
C934 C933 1.334 . S
C934 C935 1.287 . S
C935 C934 1.287 . S
C935 C936 1.524 . S
C935 H938 0.999 . S
C936 H906 0.950 . S
C936 C935 1.524 . S
C936 C937 1.415 . S
C937 H907 0.950 . S
C937 C932 1.363 . S
C937 C936 1.415 . S
H938 C935 0.999 . S
H939 C920 0.913 . S
H940 C958 0.951 . S
H941 C960 0.951 . S
H942 C962 0.950 . S
H943 C963 0.950 . S
H944 C965 0.950 . S
H945 C968 0.950 . S
H946 C969 0.950 . S
H947 C971 0.950 . S
H948 C972 0.950 . S
H949 C973 0.951 . S
H950 C975 0.951 . S
H951 C977 0.950 . S
H952 C978 0.950 1_565 S
H953 C980 0.950 . S
H954 C983 0.950 . S
H955 C984 0.948 1_565 S
H956 C986 0.950 . S
H957 C987 0.950 . S
C958 H940 0.951 . S
C958 C959 1.366 . S
C958 C960 1.388 . S
C959 C958 1.366 . S
C959 C963 1.385 . S
C960 H941 0.951 . S
C960 C958 1.388 . S
C960 C961 1.366 . S
C961 C960 1.366 . S
C961 C962 1.414 . S
C961 C964 1.499 . S
C962 H942 0.950 . S
C962 C961 1.414 . S
C962 C963 1.374 . S
C963 H943 0.950 . S
C963 C959 1.385 . S
C963 C962 1.374 . S
C964 C961 1.499 . S
C964 C965 1.373 . S
C964 C966 1.389 . S
C965 H944 0.950 . S
C965 C964 1.373 . S
C965 C981 1.377 . S
C966 C964 1.389 . S
C966 C967 1.524 . S
C966 C980 1.377 . S
C967 C966 1.524 . S
C967 C968 1.397 . S
C967 C972 1.363 . S
C968 H945 0.950 . S
C968 C967 1.397 . S
C968 C969 1.334 . S
C969 H946 0.950 . S
C969 C968 1.334 . S
C969 C970 1.287 . S
C970 C969 1.287 . S
C970 C971 1.524 . S
C970 H989 0.913 . S
C971 H947 0.950 . S
C971 C970 1.524 . S
C971 C972 1.415 . S
C972 H948 0.950 . S
C972 C967 1.363 . S
C972 C971 1.415 . S
C973 H949 0.951 . S
C973 C974 1.366 . S
C973 C975 1.388 . S
C974 C973 1.366 . S
C974 C978 1.385 . S
C975 H950 0.951 . S
C975 C973 1.388 . S
C975 C976 1.366 . S
C976 C975 1.366 . S
C976 C977 1.414 1_545 S
C976 C979 1.499 1_545 S
C977 H951 0.950 . S
C977 C976 1.414 1_565 S
C977 C978 1.374 1_565 S
C978 H952 0.950 1_545 S
C978 C974 1.385 . S
C978 C977 1.374 1_545 S
C979 C976 1.499 1_565 S
C979 C980 1.373 . S
C979 C981 1.389 . S
C980 H953 0.950 . S
C980 C966 1.377 . S
C980 C979 1.373 . S
C981 C965 1.377 . S
C981 C979 1.389 . S
C981 C982 1.524 1_565 S
C982 C981 1.524 1_545 S
C982 C983 1.397 1_545 S
C982 C987 1.363 . S
C983 H954 0.950 . S
C983 C982 1.397 1_565 S
C983 C984 1.321 1_565 S
C984 H955 0.948 1_545 S
C984 C983 1.321 1_545 S
C984 C985 1.302 . S
C985 C984 1.302 . S
C985 C986 1.524 . S
C985 H988 0.999 . S
C986 H956 0.950 . S
C986 C985 1.524 . S
C986 C987 1.415 . S
C987 H957 0.950 . S
C987 C982 1.363 . S
C987 C986 1.415 . S
H988 C985 0.999 . S
H989 C970 0.913 . S
H990 C1008 0.951 . S
H991 C1010 0.951 . S
H992 C1012 0.950 . S
H993 C1013 0.950 . S
H994 C1015 0.950 . S
H995 C1018 0.950 . S
H996 C1019 0.950 . S
H997 C1021 0.950 . S
H998 C1022 0.950 . S
H999 C1023 0.951 . S
H1000 C1025 0.951 . S
H1001 C1027 0.950 . S
H1002 C1028 0.950 . S
H1003 C1030 0.950 . S
H1004 C1033 0.950 . S
H1005 C1034 0.950 . S
H1006 C1036 0.950 . S
H1007 C1037 0.950 . S
C1008 H990 0.951 . S
C1008 C1009 1.366 . S
C1008 C1010 1.388 . S
C1009 C1008 1.366 . S
C1009 C1013 1.385 . S
C1010 H991 0.951 . S
C1010 C1008 1.388 . S
C1010 C1011 1.366 . S
C1011 C1010 1.366 . S
C1011 C1012 1.414 . S
C1011 C1014 1.499 . S
C1012 H992 0.950 . S
C1012 C1011 1.414 . S
C1012 C1013 1.374 . S
C1013 H993 0.950 . S
C1013 C1009 1.385 . S
C1013 C1012 1.374 . S
C1014 C1011 1.499 . S
C1014 C1015 1.373 . S
C1014 C1016 1.389 . S
C1015 H994 0.950 . S
C1015 C1014 1.373 . S
C1015 C1031 1.377 . S
C1016 C1014 1.389 . S
C1016 C1017 1.524 . S
C1016 C1030 1.377 . S
C1017 C1016 1.524 . S
C1017 C1018 1.397 . S
C1017 C1022 1.363 . S
C1018 H995 0.950 . S
C1018 C1017 1.397 . S
C1018 C1019 1.334 . S
C1019 H996 0.950 . S
C1019 C1018 1.334 . S
C1019 C1020 1.287 . S
C1020 C1019 1.287 . S
C1020 C1021 1.524 . S
C1020 H1039 0.913 . S
C1021 H997 0.950 . S
C1021 C1020 1.524 . S
C1021 C1022 1.415 . S
C1022 H998 0.950 . S
C1022 C1017 1.363 . S
C1022 C1021 1.415 . S
C1023 H999 0.951 . S
C1023 C1024 1.366 . S
C1023 C1025 1.388 . S
C1024 C1023 1.366 . S
C1024 C1028 1.385 . S
C1025 H1000 0.951 . S
C1025 C1023 1.388 . S
C1025 C1026 1.366 . S
C1026 C1025 1.366 . S
C1026 C1027 1.414 . S
C1026 C1029 1.499 . S
C1027 H1001 0.950 . S
C1027 C1026 1.414 . S
C1027 C1028 1.374 . S
C1028 H1002 0.950 . S
C1028 C1024 1.385 . S
C1028 C1027 1.374 . S
C1029 C1026 1.499 . S
C1029 C1030 1.373 . S
C1029 C1031 1.389 . S
C1030 H1003 0.950 . S
C1030 C1016 1.377 . S
C1030 C1029 1.373 . S
C1031 C1015 1.377 . S
C1031 C1029 1.389 . S
C1031 C1032 1.524 . S
C1032 C1031 1.524 . S
C1032 C1033 1.397 . S
C1032 C1037 1.363 . S
C1033 H1004 0.950 . S
C1033 C1032 1.397 . S
C1033 C1034 1.334 . S
C1034 H1005 0.950 . S
C1034 C1033 1.334 . S
C1034 C1035 1.287 . S
C1035 C1034 1.287 . S
C1035 C1036 1.524 . S
C1035 H1038 0.999 . S
C1036 H1006 0.950 . S
C1036 C1035 1.524 . S
C1036 C1037 1.415 . S
C1037 H1007 0.950 . S
C1037 C1032 1.363 . S
C1037 C1036 1.415 . S
H1038 C1035 0.999 . S
H1039 C1020 0.913 . S
H1040 C1058 0.951 . S
H1041 C1060 0.951 . S
H1042 C1062 0.950 . S
H1043 C1063 0.950 . S
H1044 C1065 0.950 . S
H1045 C1068 0.950 1_455 S
H1046 C1069 0.950 . S
H1047 C1071 0.950 . S
H1048 C1072 0.950 . S
H1049 C1073 0.951 . S
H1050 C1075 0.951 1_455 S
H1051 C1077 0.950 . S
H1052 C1078 0.950 . S
H1053 C1080 0.950 . S
H1054 C1083 0.950 . S
H1055 C1084 0.950 . S
H1056 C1086 0.950 . S
H1057 C1087 0.950 . S
C1058 H1040 0.951 . S
C1058 C1059 1.366 . S
C1058 C1060 1.388 . S
C1059 C1058 1.366 . S
C1059 C1063 1.385 . S
C1060 H1041 0.951 . S
C1060 C1058 1.388 . S
C1060 C1061 1.366 . S
C1061 C1060 1.366 . S
C1061 C1062 1.414 . S
C1061 C1064 1.499 . S
C1062 H1042 0.950 . S
C1062 C1061 1.414 . S
C1062 C1063 1.374 . S
C1063 H1043 0.950 . S
C1063 C1059 1.385 . S
C1063 C1062 1.374 . S
C1064 C1061 1.499 . S
C1064 C1065 1.373 . S
C1064 C1066 1.389 . S
C1065 H1044 0.950 . S
C1065 C1064 1.373 . S
C1065 C1081 1.377 . S
C1066 C1064 1.389 . S
C1066 C1067 1.524 1_455 S
C1066 C1080 1.377 1_455 S
C1067 C1066 1.524 1_655 S
C1067 C1068 1.397 . S
C1067 C1072 1.363 . S
C1068 H1045 0.950 1_655 S
C1068 C1067 1.397 . S
C1068 C1069 1.334 . S
C1069 H1046 0.950 . S
C1069 C1068 1.334 . S
C1069 C1070 1.287 . S
C1070 C1069 1.287 . S
C1070 C1071 1.524 . S
C1070 H1089 0.913 . S
C1071 H1047 0.950 . S
C1071 C1070 1.524 . S
C1071 C1072 1.415 . S
C1072 H1048 0.950 . S
C1072 C1067 1.363 . S
C1072 C1071 1.415 . S
C1073 H1049 0.951 . S
C1073 C1074 1.366 . S
C1073 C1075 1.388 . S
C1074 C1073 1.366 . S
C1074 C1078 1.385 . S
C1075 H1050 0.951 1_655 S
C1075 C1073 1.388 . S
C1075 C1076 1.366 . S
C1076 C1075 1.366 . S
C1076 C1077 1.414 . S
C1076 C1079 1.499 1_655 S
C1077 H1051 0.950 . S
C1077 C1076 1.414 . S
C1077 C1078 1.374 . S
C1078 H1052 0.950 . S
C1078 C1074 1.385 . S
C1078 C1077 1.374 . S
C1079 C1076 1.499 1_455 S
C1079 C1080 1.373 1_455 S
C1079 C1081 1.389 . S
C1080 H1053 0.950 . S
C1080 C1066 1.377 1_655 S
C1080 C1079 1.373 1_655 S
C1081 C1065 1.377 . S
C1081 C1079 1.389 . S
C1081 C1082 1.524 . S
C1082 C1081 1.524 . S
C1082 C1083 1.397 . S
C1082 C1087 1.363 . S
C1083 H1054 0.950 . S
C1083 C1082 1.397 . S
C1083 C1084 1.334 . S
C1084 H1055 0.950 . S
C1084 C1083 1.334 . S
C1084 C1085 1.287 . S
C1085 C1084 1.287 . S
C1085 C1086 1.524 . S
C1085 H1088 0.999 . S
C1086 H1056 0.950 . S
C1086 C1085 1.524 . S
C1086 C1087 1.415 . S
C1087 H1057 0.950 . S
C1087 C1082 1.363 . S
C1087 C1086 1.415 . S
H1088 C1085 0.999 . S
H1089 C1070 0.913 . S
H1090 C1108 0.951 . S
H1091 C1110 0.951 . S
H1092 C1112 0.950 . S
H1093 C1113 0.950 . S
H1094 C1115 0.950 . S
H1095 C1118 0.959 . S
H1096 C1119 0.950 . S
H1097 C1121 0.950 . S
H1098 C1122 0.950 . S
H1099 C1123 0.951 . S
H1100 C1125 0.951 . S
H1101 C1127 0.950 . S
H1102 C1128 0.950 . S
H1103 C1130 0.950 . S
H1104 C1133 0.950 . S
H1105 C1134 0.950 . S
H1106 C1136 0.950 . S
H1107 C1137 0.950 . S
C1108 H1090 0.951 . S
C1108 C1109 1.366 . S
C1108 C1110 1.388 . S
C1109 C1108 1.366 . S
C1109 C1113 1.385 . S
C1110 H1091 0.951 . S
C1110 C1108 1.388 . S
C1110 C1111 1.366 . S
C1111 C1110 1.366 . S
C1111 C1112 1.414 . S
C1111 C1114 1.499 . S
C1112 H1092 0.950 . S
C1112 C1111 1.414 . S
C1112 C1113 1.374 . S
C1113 H1093 0.950 . S
C1113 C1109 1.385 . S
C1113 C1112 1.374 . S
C1114 C1111 1.499 . S
C1114 C1115 1.373 . S
C1114 C1116 1.389 . S
C1115 H1094 0.950 . S
C1115 C1114 1.373 . S
C1115 C1131 1.377 . S
C1116 C1114 1.389 . S
C1116 C1117 1.524 1_545 S
C1116 C1130 1.377 1_545 S
C1117 C1116 1.524 1_565 S
C1117 C1118 1.401 1_565 S
C1117 C1122 1.363 . S
C1118 H1095 0.959 . S
C1118 C1117 1.401 1_545 S
C1118 C1119 1.321 1_545 S
C1119 H1096 0.950 . S
C1119 C1118 1.321 1_565 S
C1119 C1120 1.287 . S
C1120 C1119 1.287 . S
C1120 C1121 1.524 . S
C1120 H1139 0.913 . S
C1121 H1097 0.950 . S
C1121 C1120 1.524 . S
C1121 C1122 1.415 . S
C1122 H1098 0.950 . S
C1122 C1117 1.363 . S
C1122 C1121 1.415 . S
C1123 H1099 0.951 . S
C1123 C1124 1.366 . S
C1123 C1125 1.388 1_565 S
C1124 C1123 1.366 . S
C1124 C1128 1.385 . S
C1125 H1100 0.951 . S
C1125 C1123 1.388 1_545 S
C1125 C1126 1.366 1_545 S
C1126 C1125 1.366 1_565 S
C1126 C1127 1.414 . S
C1126 C1129 1.499 1_565 S
C1127 H1101 0.950 . S
C1127 C1126 1.414 . S
C1127 C1128 1.374 . S
C1128 H1102 0.950 . S
C1128 C1124 1.385 . S
C1128 C1127 1.374 . S
C1129 C1126 1.499 1_545 S
C1129 C1130 1.373 1_545 S
C1129 C1131 1.389 . S
C1130 H1103 0.950 . S
C1130 C1116 1.377 1_565 S
C1130 C1129 1.373 1_565 S
C1131 C1115 1.377 . S
C1131 C1129 1.389 . S
C1131 C1132 1.524 . S
C1132 C1131 1.524 . S
C1132 C1133 1.397 . S
C1132 C1137 1.363 . S
C1133 H1104 0.950 . S
C1133 C1132 1.397 . S
C1133 C1134 1.334 . S
C1134 H1105 0.950 . S
C1134 C1133 1.334 . S
C1134 C1135 1.287 . S
C1135 C1134 1.287 . S
C1135 C1136 1.524 . S
C1135 H1138 0.999 . S
C1136 H1106 0.950 . S
C1136 C1135 1.524 . S
C1136 C1137 1.415 . S
C1137 H1107 0.950 . S
C1137 C1132 1.363 . S
C1137 C1136 1.415 . S
H1138 C1135 0.999 . S
H1139 C1120 0.913 . S
C259 C175 1.170 . S
C274 C10 1.164 . S
C309 C215 1.170 . S
C324 C50 1.165 . S
C359 C15 1.171 . S
C374 C90 1.165 . S
C409 C55 1.170 . S
C424 C130 1.164 . S
C459 C95 1.170 . S
C474 C170 1.165 . S
C509 C135 1.170 . S
C524 C210 1.165 . S
C559 C9 0.639 . S
C574 C129 0.640 . S
C609 C169 0.638 . S
C624 C49 0.639 . S
C659 C209 0.638 . S
C674 C89 0.637 . S
C709 C98 0.693 . S
C724 C218 0.692 . S
C759 C18 0.696 . S
C774 C138 0.696 . S
C809 C178 0.696 . S
C824 C58 0.696 . S
C859 C206 1.275 . S
C874 C19 1.291 . S
C909 C59 1.292 . S
C924 C6 1.275 . S
C959 C99 1.291 . S
C974 C46 1.275 . S
C1009 C86 1.275 . S
C1024 C139 1.291 . S
C1059 C179 1.292 . S
C1074 C126 1.276 . S
C1109 C219 1.292 . S
C1124 C166 1.275 . S
