# Generated by pormake.
# Topology umy, (4)-cn, num edge types: 1
# Building blocks:
#     Node 0, Type 0, BuildingBlock: AZAVOO_clean_sbu_0, # of connection points: 4
#     Node 1, Type 0, BuildingBlock: AZAVOO_clean_sbu_0, # of connection points: 4
#     Node 2, Type 0, BuildingBlock: AZAVOO_clean_sbu_0, # of connection points: 4
#     Node 3, Type 0, BuildingBlock: AZAVOO_clean_sbu_0, # of connection points: 4
#     Node 4, Type 0, BuildingBlock: AZAVOO_clean_sbu_0, # of connection points: 4
#     Node 5, Type 0, BuildingBlock: AZAVOO_clean_sbu_0, # of connection points: 4
#     Node 6, Type 0, BuildingBlock: AZAVOO_clean_sbu_0, # of connection points: 4
#     Node 7, Type 0, BuildingBlock: AZAVOO_clean_sbu_0, # of connection points: 4
#     Node 8, Type 0, BuildingBlock: AZAVOO_clean_sbu_0, # of connection points: 4
#     Node 9, Type 0, BuildingBlock: AZAVOO_clean_sbu_0, # of connection points: 4
#     Node 10, Type 0, BuildingBlock: AZAVOO_clean_sbu_0, # of connection points: 4
#     Node 11, Type 0, BuildingBlock: AZAVOO_clean_sbu_0, # of connection points: 4
#     Edge 12, Type (0, 0), BuildingBlock: EZIPEK_clean_linker_0, # of connection points: 2
#     Edge 13, Type (0, 0), BuildingBlock: EZIPEK_clean_linker_0, # of connection points: 2
#     Edge 14, Type (0, 0), BuildingBlock: EZIPEK_clean_linker_0, # of connection points: 2
#     Edge 15, Type (0, 0), BuildingBlock: EZIPEK_clean_linker_0, # of connection points: 2
#     Edge 16, Type (0, 0), BuildingBlock: EZIPEK_clean_linker_0, # of connection points: 2
#     Edge 17, Type (0, 0), BuildingBlock: EZIPEK_clean_linker_0, # of connection points: 2
#     Edge 18, Type (0, 0), BuildingBlock: EZIPEK_clean_linker_0, # of connection points: 2
#     Edge 19, Type (0, 0), BuildingBlock: EZIPEK_clean_linker_0, # of connection points: 2
#     Edge 20, Type (0, 0), BuildingBlock: EZIPEK_clean_linker_0, # of connection points: 2
#     Edge 21, Type (0, 0), BuildingBlock: EZIPEK_clean_linker_0, # of connection points: 2
#     Edge 22, Type (0, 0), BuildingBlock: EZIPEK_clean_linker_0, # of connection points: 2
#     Edge 23, Type (0, 0), BuildingBlock: EZIPEK_clean_linker_0, # of connection points: 2
#     Edge 24, Type (0, 0), BuildingBlock: EZIPEK_clean_linker_0, # of connection points: 2
#     Edge 25, Type (0, 0), BuildingBlock: EZIPEK_clean_linker_0, # of connection points: 2
#     Edge 26, Type (0, 0), BuildingBlock: EZIPEK_clean_linker_0, # of connection points: 2
#     Edge 27, Type (0, 0), BuildingBlock: EZIPEK_clean_linker_0, # of connection points: 2
#     Edge 28, Type (0, 0), BuildingBlock: EZIPEK_clean_linker_0, # of connection points: 2
#     Edge 29, Type (0, 0), BuildingBlock: EZIPEK_clean_linker_0, # of connection points: 2
#     Edge 30, Type (0, 0), BuildingBlock: EZIPEK_clean_linker_0, # of connection points: 2
#     Edge 31, Type (0, 0), BuildingBlock: EZIPEK_clean_linker_0, # of connection points: 2
#     Edge 32, Type (0, 0), BuildingBlock: EZIPEK_clean_linker_0, # of connection points: 2
#     Edge 33, Type (0, 0), BuildingBlock: EZIPEK_clean_linker_0, # of connection points: 2
#     Edge 34, Type (0, 0), BuildingBlock: EZIPEK_clean_linker_0, # of connection points: 2
#     Edge 35, Type (0, 0), BuildingBlock: EZIPEK_clean_linker_0, # of connection points: 2
# Relax obj value: 0.132
# Max RMSD: 0.154
# Mean RMSD: 0.154
data_MOF--net-umy--node1-AZAVOO_clean_sbu_0--edge1-EZIPEK_clean_linker_0
_symmetry_space_group_name_H-M    P1
_symmetry_Int_Tables_number       1
_symmetry_cell_setting            triclinic
loop_
_symmetry_equiv_pos_as_xyz
'x, y, z'
_cell_length_a     29.76858
_cell_length_b     29.935386
_cell_length_c     33.397467
_cell_angle_alpha  90.084649
_cell_angle_beta   89.87583
_cell_angle_gamma 120.36265
loop_
_atom_site_label
_atom_site_type_symbol
_atom_site_fract_x
_atom_site_fract_y
_atom_site_fract_z
_atom_type_partial_charge
Mg0 Mg 0.0803 0.333 0.11982 0.0
O1 O 0.13438 0.35204 0.1741 0.0
O2 O 0.21493 0.41114 0.15454 0.0
Mg3 Mg 0.21318 0.42871 0.08798 0.0
C4 C 0.18272 0.38219 0.18135 0.0
C5 C -0.00382 0.2453 0.17386 0.0
O6 O 0.02798 0.22742 0.16873 0.0
O7 O 0.08335 0.41048 0.1271 0.0
O8 O 0.16313 0.46501 0.10263 0.0
O9 O 0.09704 0.27203 0.09792 0.0
O10 O 0.14173 0.35434 0.08017 0.0
C11 C 0.11933 0.45575 0.11677 0.0
C12 C 0.13472 0.30851 0.07754 0.0
O13 O 0.00785 0.28911 0.15925 0.0
Mg14 Mg 0.69159 0.07293 0.25332 0.0
O15 O 0.71691 0.10696 0.31622 0.0
O16 O 0.76813 0.19261 0.30885 0.0
Mg17 Mg 0.77186 0.21348 0.24243 0.0
C18 C 0.74634 0.15204 0.33072 0.0
C19 C 0.61892 0.96638 0.30731 0.0
O20 O 0.57166 0.92755 0.31385 0.0
O21 O 0.63446 0.1014 0.25114 0.0
O22 O 0.684 0.18708 0.24263 0.0
O23 O 0.76504 0.06901 0.2462 0.0
O24 O 0.75693 0.13547 0.22799 0.0
C25 C 0.63959 0.14592 0.24634 0.0
C26 C 0.78598 0.11551 0.23188 0.0
O27 O 0.6257 -0.00209 0.27936 0.0
Mg28 Mg 0.6644 0.78973 0.43776 0.0
O29 O 0.65014 0.81229 0.49949 0.0
O30 O 0.58574 0.82974 0.49562 0.0
Mg31 Mg 0.56646 0.82823 0.42862 0.0
C32 C 0.61853 0.82359 0.51591 0.0
C33 C 0.72839 0.73381 0.45056 0.0
O34 O 0.72327 0.72809 0.41153 0.0
O35 O 0.58636 0.71351 0.44165 0.0
O36 O 0.52886 0.73966 0.43029 0.0
O37 O 0.72535 0.87192 0.4229 0.0
O38 O 0.64141 0.83642 0.40965 0.0
C39 C 0.53986 0.70406 0.43604 0.0
C40 C 0.68756 0.87615 0.40799 0.0
O41 O 0.70791 0.75601 0.46915 0.0
Mg42 Mg 0.91647 0.64873 0.57029 0.0
O43 O 0.86622 0.62166 0.62633 0.0
O44 O 0.78421 0.56273 0.61137 0.0
Mg45 Mg 0.78227 0.55488 0.54254 0.0
C46 C 0.81958 0.58994 0.63684 0.0
C47 C 0.99015 0.66377 0.64298 0.0
O48 O 0.95328 0.61664 0.65216 0.0
O49 O 0.9152 0.5726 0.56768 0.0
O50 O 0.83372 0.51775 0.54689 0.0
O51 O 0.89849 0.71146 0.56006 0.0
O52 O 0.85226 0.63223 0.53512 0.0
C53 C 0.87941 0.52778 0.55664 0.0
C54 C 0.85903 0.67798 0.53929 0.0
O55 O 0.98719 0.6851 0.61097 0.0
Mg56 Mg 0.24665 0.87691 0.76982 0.0
O57 O 0.22629 0.83748 0.83088 0.0
O58 O 0.21873 0.75962 0.82517 0.0
Mg59 Mg 0.22905 0.74746 0.75852 0.0
C60 C 0.21841 0.79514 0.84615 0.0
C61 C 0.23681 0.96734 0.80362 0.0
O62 O 0.19128 0.94053 0.78621 0.0
O63 O 0.32905 0.89114 0.77354 0.0
O64 O 0.3151 0.81137 0.7617 0.0
O65 O 0.16274 0.84282 0.75431 0.0
O66 O 0.20927 0.80605 0.74044 0.0
C67 C 0.34558 0.85976 0.76783 0.0
C68 C 0.16548 0.80468 0.73871 0.0
O69 O 0.26961 0.95223 0.80152 0.0
Mg70 Mg 0.32607 0.24656 0.91316 0.0
O71 O 0.3398 0.22029 0.97324 0.0
O72 O 0.39782 0.19466 0.96697 0.0
Mg73 Mg 0.41113 0.19257 0.899 0.0
C74 C 0.36863 0.20483 0.98852 0.0
C75 C 0.25101 0.25497 0.96925 0.0
O76 O 0.23328 0.20501 0.96695 0.0
O77 O 0.40841 0.31737 0.91393 0.0
O78 O 0.45653 0.28119 0.89849 0.0
O79 O 0.25884 0.16785 0.90052 0.0
O80 O 0.34029 0.19449 0.88272 0.0
C81 C 0.45185 0.32065 0.90518 0.0
C82 C 0.29239 0.15821 0.88409 0.0
O83 O 0.29084 0.28609 0.94887 0.0
Mg84 Mg 0.67027 0.92441 0.76315 0.0
O85 O 0.65651 0.88165 0.70437 0.0
O86 O 0.59099 0.80058 0.71124 0.0
Mg87 Mg 0.57353 0.78836 0.77899 0.0
C88 C 0.62405 0.83789 0.68955 0.0
C89 C 0.70656 0.03102 0.71588 0.0
O90 O 0.66508 0.0307 0.72976 0.0
O91 O 0.59268 0.92165 0.75569 0.0
O92 O 0.53649 0.83885 0.7723 0.0
O93 O 0.73 0.90558 0.78221 0.0
O94 O 0.64708 0.85808 0.79648 0.0
C95 C 0.54667 0.88446 0.76313 0.0
C96 C 0.6935 0.86627 0.80118 0.0
O97 O 0.71642 0.99613 0.72598 0.0
Mg98 Mg 0.74271 0.61981 0.88384 0.0
O99 O 0.76552 0.60319 0.82301 0.0
O100 O 0.78767 0.54271 0.82975 0.0
Mg101 Mg 0.77804 0.52076 0.89659 0.0
C102 C 0.78084 0.57395 0.80819 0.0
C103 C 0.72772 0.70926 0.86961 0.0
O104 O 0.75689 0.72119 0.90177 0.0
O105 O 0.6652 0.54553 0.88079 0.0
O106 O 0.68903 0.48678 0.8934 0.0
O107 O 0.82457 0.67869 0.89737 0.0
O108 O 0.78791 0.59612 0.9147 0.0
C109 C 0.65434 0.49913 0.88706 0.0
C110 C 0.82816 0.642 0.91467 0.0
O111 O 0.71193 0.66582 0.85285 0.0
Mg112 Mg 0.08261 0.72864 0.08545 0.0
O113 O 0.13085 0.75277 0.02828 0.0
O114 O 0.21304 0.77658 0.04247 0.0
Mg115 Mg 0.21808 0.77623 0.11155 0.0
C116 C 0.17728 0.76781 0.01726 0.0
C117 C 0.00469 0.71446 0.01961 0.0
O118 O 0.03841 0.76426 0.01698 0.0
O119 O 0.08823 0.65571 0.09087 0.0
O120 O 0.17019 0.68679 0.11194 0.0
O121 O 0.09669 0.80857 0.09289 0.0
O122 O 0.14656 0.78102 0.11936 0.0
C123 C 0.12502 0.64905 0.10317 0.0
C124 C 0.13734 0.81821 0.11359 0.0
O125 O 0.01121 0.68745 0.04575 0.0
Mg126 Mg 0.32765 0.11351 0.24084 0.0
O127 O 0.33899 0.14926 0.17872 0.0
O128 O 0.40069 0.23266 0.18264 0.0
Mg129 Mg 0.41954 0.25272 0.24933 0.0
C130 C 0.36923 0.19282 0.16232 0.0
C131 C 0.25007 0.01939 0.1889 0.0
O132 O 0.23148 0.05039 0.18309 0.0
O133 O 0.40835 0.12195 0.23661 0.0
O134 O 0.46218 0.20681 0.24787 0.0
O135 O 0.26321 0.12986 0.25652 0.0
O136 O 0.34682 0.18301 0.26791 0.0
C137 C 0.45386 0.16106 0.24201 0.0
C138 C 0.29981 0.17367 0.27037 0.0
O139 O 0.28946 0.03385 0.21137 0.0
Mg140 Mg 0.30215 0.374 0.42284 0.0
O141 O 0.27418 0.3815 0.36089 0.0
O142 O 0.22623 0.41914 0.36926 0.0
Mg143 Mg 0.22498 0.43691 0.43598 0.0
C144 C 0.24581 0.39854 0.347 0.0
C145 C 0.36965 0.33555 0.3667 0.0
O146 O 0.41626 0.34327 0.35869 0.0
O147 O 0.3612 0.45999 0.42394 0.0
O148 O 0.31321 0.49715 0.4347 0.0
O149 O 0.2282 0.29729 0.43236 0.0
O150 O 0.2388 0.37307 0.45021 0.0
C151 C 0.35712 0.49989 0.4297 0.0
C152 C 0.20888 0.32386 0.44747 0.0
O153 O 0.36505 0.36214 0.39439 0.0
Mg154 Mg 0.91185 0.24911 0.55696 0.0
O155 O 0.856 0.21441 0.5035 0.0
O156 O 0.77809 0.20145 0.52269 0.0
Mg157 Mg 0.78235 0.22432 0.5886 0.0
C158 C 0.80846 0.20009 0.49627 0.0
C159 C 0.00584 0.24511 0.51973 0.0
O160 O 0.98698 0.20503 0.54386 0.0
O161 O 0.91593 0.32665 0.54695 0.0
O162 O 0.83809 0.30858 0.57142 0.0
O163 O 0.88773 0.17027 0.58233 0.0
O164 O 0.85002 0.21565 0.59665 0.0
C165 C 0.88275 0.33997 0.55662 0.0
C166 C 0.85199 0.1743 0.60128 0.0
O167 O 0.98287 0.2711 0.51694 0.0
C168 C 0.10353 0.56286 0.07422 0.0
C169 C 0.11515 0.59558 0.10811 0.0
C170 C 0.12005 0.53106 0.15032 0.0
C171 C 0.10878 0.49888 0.11631 0.0
N172 N 0.07634 0.47689 0.04896 0.0
N173 N 0.12206 0.6062 0.17986 0.0
C174 C 0.09585 0.51242 0.07929 0.0
C175 C 0.1196 0.57821 0.1467 0.0
N176 N 0.10325 0.58114 0.03684 0.0
N177 N 0.13267 0.51718 0.18564 0.0
H178 H 0.12098 0.64045 0.17825 0.0
H179 H 0.12058 0.59339 0.20906 0.0
H180 H 0.13004 0.48138 0.18967 0.0
H181 H 0.14769 0.54171 0.21027 0.0
H182 H 0.10108 0.56143 0.01054 0.0
H183 H 0.10963 0.61816 0.03191 0.0
H184 H 0.06134 0.48249 0.02253 0.0
H185 H 0.07052 0.43961 0.05183 0.0
C186 C 0.57748 0.16377 0.2087 0.0
C187 C 0.59187 0.14957 0.24493 0.0
C188 C 0.51133 0.13507 0.27696 0.0
C189 C 0.49936 0.15375 0.24195 0.0
N190 N 0.52224 0.1904 0.17568 0.0
N191 N 0.57699 0.12852 0.31519 0.0
C192 C 0.53285 0.16947 0.20814 0.0
C193 C 0.55984 0.13675 0.27949 0.0
N194 N 0.6052 0.16961 0.17444 0.0
N195 N 0.47619 0.11556 0.30773 0.0
H196 H 0.61249 0.12983 0.31831 0.0
H197 H 0.55831 0.12465 0.34243 0.0
H198 H 0.44105 0.11536 0.30754 0.0
H199 H 0.47989 0.09608 0.33214 0.0
H200 H 0.5935 0.1743 0.14618 0.0
H201 H 0.63805 0.16565 0.17363 0.0
H202 H 0.5482 0.2084 0.15213 0.0
H203 H 0.48843 0.19253 0.17326 0.0
C204 C 0.46201 0.63087 0.46934 0.0
C205 C 0.49623 0.64985 0.436 0.0
C206 C 0.43836 0.57127 0.39793 0.0
C207 C 0.4054 0.55119 0.43195 0.0
N208 N 0.39091 0.55668 0.50245 0.0
N209 N 0.52227 0.63571 0.37102 0.0
C210 C 0.4186 0.57957 0.46837 0.0
C211 C 0.48616 0.6191 0.40112 0.0
N212 N 0.47059 0.66222 0.50172 0.0
N213 N 0.42267 0.54597 0.36202 0.0
H214 H 0.5569 0.67129 0.37173 0.0
H215 H 0.51995 0.6127 0.34681 0.0
H216 H 0.38769 0.51117 0.35836 0.0
H217 H 0.44202 0.56136 0.3351 0.0
H218 H 0.44376 0.65313 0.52479 0.0
H219 H 0.50339 0.69903 0.50444 0.0
H220 H 0.40192 0.57319 0.53078 0.0
H221 H 0.35927 0.51895 0.50308 0.0
C222 C 0.89815 0.46532 0.59185 0.0
C223 C 0.89066 0.48516 0.55554 0.0
C224 C 0.89021 0.41471 0.51772 0.0
C225 C 0.89677 0.3946 0.55414 0.0
N226 N 0.92156 0.40707 0.62354 0.0
N227 N 0.89215 0.48707 0.48336 0.0
C228 C 0.90587 0.42234 0.59044 0.0
C229 C 0.8908 0.46248 0.51819 0.0
N230 N 0.89437 0.48522 0.62776 0.0
N231 N 0.88113 0.38694 0.48316 0.0
H232 H 0.89287 0.52228 0.48285 0.0
H233 H 0.89698 0.47504 0.45524 0.0
H234 H 0.88314 0.35317 0.4817 0.0
H235 H 0.86949 0.39599 0.45649 0.0
H236 H 0.89361 0.46856 0.65528 0.0
H237 H 0.88774 0.51615 0.63013 0.0
H238 H 0.93342 0.42831 0.65002 0.0
H239 H 0.92758 0.37561 0.62308 0.0
C240 C 0.48826 0.91254 0.79323 0.0
C241 C 0.50206 0.89267 0.75986 0.0
C242 C 0.42009 0.87033 0.7271 0.0
C243 C 0.40205 0.87998 0.76356 0.0
N244 N 0.41844 0.91162 0.83152 0.0
N245 N 0.48169 0.85167 0.69498 0.0
C246 C 0.43633 0.90263 0.79649 0.0
C247 C 0.46847 0.87201 0.72645 0.0
N248 N 0.52453 0.93988 0.82199 0.0
N249 N 0.39096 0.85999 0.6931 0.0
H250 H 0.51739 0.85319 0.69314 0.0
H251 H 0.45611 0.83045 0.672 0.0
H252 H 0.35569 0.85959 0.69261 0.0
H253 H 0.40409 0.85716 0.66481 0.0
H254 H 0.51846 0.95932 0.84534 0.0
H255 H 0.56257 0.94688 0.8205 0.0
H256 H 0.43947 0.92208 0.85813 0.0
H257 H 0.38113 0.90604 0.83459 0.0
C258 C 0.52817 0.3989 0.93497 0.0
C259 C 0.49909 0.37195 0.90069 0.0
C260 C 0.57038 0.43156 0.85674 0.0
C261 C 0.59928 0.45849 0.89106 0.0
N262 N 0.60251 0.47624 0.96176 0.0
N263 N 0.48657 0.3679 0.82926 0.0
C264 C 0.57701 0.4449 0.92988 0.0
C265 C 0.51836 0.39013 0.86159 0.0
N266 N 0.5104 0.37899 0.97227 0.0
N267 N 0.59336 0.44444 0.81979 0.0
H268 H 0.44821 0.33752 0.83201 0.0
H269 H 0.49643 0.38215 0.80021 0.0
H270 H 0.63086 0.4757 0.81517 0.0
H271 H 0.57666 0.42262 0.79408 0.0
H272 H 0.53247 0.39334 0.99823 0.0
H273 H 0.47451 0.34563 0.977 0.0
H274 H 0.58601 0.47136 0.99009 0.0
H275 H 0.63875 0.50995 0.95913 0.0
C276 C 0.16443 0.30429 0.00833 0.0
C277 C 0.16726 0.29786 0.05022 0.0
C278 C 0.22701 0.26547 0.03902 0.0
C279 C 0.22597 0.274 0.99726 0.0
N280 N 0.2009 0.30913 0.94242 0.0
N281 N 0.20895 0.28316 0.10615 0.0
C282 C 0.19728 0.29625 0.98204 0.0
C283 C 0.20069 0.28141 0.0658 0.0
N284 N 0.12818 0.31514 0.99348 0.0
N285 N 0.25272 0.24163 0.05306 0.0
H286 H 0.19092 0.29569 0.12632 0.0
H287 H 0.23699 0.2769 0.11929 0.0
H288 H 0.27548 0.23255 0.03488 0.0
H289 H 0.24922 0.22823 0.0823 0.0
H290 H 0.12001 0.3144 0.96311 0.0
H291 H 0.1028 0.32066 0.01157 0.0
H292 H 0.18592 0.33104 0.93053 0.0
H293 H 0.22218 0.30123 0.92168 0.0
C294 C 0.85022 0.15025 0.17594 0.0
C295 C 0.84067 0.14446 0.21776 0.0
C296 C 0.93422 0.20019 0.23087 0.0
C297 C 0.94288 0.21027 0.18921 0.0
N298 N 0.90964 0.19769 0.12173 0.0
N299 N 0.8717 0.16645 0.28549 0.0
C300 C 0.90098 0.18605 0.16163 0.0
C301 C 0.88224 0.16978 0.24542 0.0
N302 N 0.8109 0.12011 0.14993 0.0
N303 N 0.97573 0.21951 0.25641 0.0
H304 H 0.83427 0.14365 0.29695 0.0
H305 H 0.89914 0.18849 0.30717 0.0
H306 H 0.01406 0.24349 0.24691 0.0
H307 H 0.97274 0.20923 0.28647 0.0
H308 H 0.81627 0.11819 0.11932 0.0
H309 H 0.77327 0.09329 0.15937 0.0
H310 H 0.88001 0.18674 0.10082 0.0
H311 H 0.94663 0.22099 0.10954 0.0
C312 C 0.6738 0.95127 0.40129 0.0
C313 C 0.69607 0.92274 0.38605 0.0
C314 C 0.6923 0.9503 0.31787 0.0
C315 C 0.66166 0.97065 0.33251 0.0
N316 N 0.63993 0.00852 0.38686 0.0
N317 N 0.74429 0.91078 0.3335 0.0
C318 C 0.65876 0.97779 0.37407 0.0
C319 C 0.71211 0.92837 0.3455 0.0
N320 N 0.6647 0.95026 0.44143 0.0
N321 N 0.69847 0.94814 0.27752 0.0
H322 H 0.75888 0.89455 0.35353 0.0
H323 H 0.76009 0.91621 0.30488 0.0
H324 H 0.68542 0.96541 0.25711 0.0
H325 H 0.71527 0.92863 0.26421 0.0
H326 H 0.64406 0.96592 0.45466 0.0
H327 H 0.67801 0.93278 0.46146 0.0
H328 H 0.63894 0.01796 0.41672 0.0
H329 H 0.62914 0.02798 0.36659 0.0
C330 C 0.74011 0.68312 0.50509 0.0
C331 C 0.76152 0.7186 0.47276 0.0
C332 C 0.84604 0.72507 0.48302 0.0
C333 C 0.82581 0.6932 0.51743 0.0
N334 N 0.75696 0.6495 0.5657 0.0
N335 N 0.8373 0.78178 0.4362 0.0
C336 C 0.77371 0.67428 0.52975 0.0
C337 C 0.81516 0.74185 0.46304 0.0
N338 N 0.6875 0.65662 0.5114 0.0
N339 N 0.89423 0.73812 0.46868 0.0
H340 H 0.81644 0.79618 0.42145 0.0
H341 H 0.8773 0.80395 0.43137 0.0
H342 H 0.9185 0.72718 0.48266 0.0
H343 H 0.90839 0.7561 0.44112 0.0
H344 H 0.66909 0.62647 0.53191 0.0
H345 H 0.66156 0.66154 0.49361 0.0
H346 H 0.72097 0.63922 0.57828 0.0
H347 H 0.78121 0.64373 0.58478 0.0
C348 C 0.08578 0.71397 0.65435 0.0
C349 C 0.03489 0.69313 0.67002 0.0
C350 C 0.07125 0.73593 0.73421 0.0
C351 C 0.12118 0.76341 0.71619 0.0
N352 N 0.1743 0.78507 0.65626 0.0
N353 N 0.97802 0.6887 0.72366 0.0
C354 C 0.12827 0.75386 0.6756 0.0
C355 C 0.02714 0.70476 0.70983 0.0
N356 N 0.0936 0.69517 0.61931 0.0
N357 N 0.06611 0.73887 0.77465 0.0
H358 H 0.94458 0.66656 0.70669 0.0
H359 H 0.97063 0.70096 0.75081 0.0
H360 H 0.09782 0.76081 0.7934 0.0
H361 H 0.03141 0.71571 0.79001 0.0
H362 H 0.13047 0.70544 0.60855 0.0
H363 H 0.06325 0.6652 0.60327 0.0
H364 H 0.1792 0.78295 0.62556 0.0
H365 H 0.20604 0.81669 0.66964 0.0
C366 C 0.2504 0.01696 0.86705 0.0
C367 C 0.2504 0.01581 0.82455 0.0
C368 C 0.27198 0.1061 0.82182 0.0
C369 C 0.27594 0.10848 0.86417 0.0
N370 N 0.2742 0.06928 0.92748 0.0
N371 N 0.26797 0.05986 0.76108 0.0
C372 C 0.26647 0.0647 0.88699 0.0
C373 C 0.26291 0.06051 0.80178 0.0
N374 N 0.2337 0.97213 0.88816 0.0
N375 N 0.27548 0.14702 0.80089 0.0
H376 H 0.26114 0.02693 0.74526 0.0
H377 H 0.28288 0.0928 0.74321 0.0
H378 H 0.28259 0.18139 0.8145 0.0
H379 H 0.26719 0.14559 0.77049 0.0
H380 H 0.2276 0.96913 0.91897 0.0
H381 H 0.22241 0.93663 0.87448 0.0
H382 H 0.27363 0.0406 0.94542 0.0
H383 H 0.28443 0.10336 0.94303 0.0
C384 C 0.66852 0.74354 0.85479 0.0
C385 C 0.71823 0.74852 0.85152 0.0
C386 C 0.75487 0.83682 0.82631 0.0
C387 C 0.70394 0.82979 0.82475 0.0
N388 N 0.62059 0.78863 0.85855 0.0
N389 N 0.80724 0.79606 0.82875 0.0
C390 C 0.66258 0.78632 0.84463 0.0
C391 C 0.76099 0.79409 0.83577 0.0
N392 N 0.62691 0.69793 0.86753 0.0
N393 N 0.79767 0.88529 0.8237 0.0
H394 H 0.81315 0.76527 0.83504 0.0
H395 H 0.83788 0.82608 0.81303 0.0
H396 H 0.79528 0.91878 0.82499 0.0
H397 H 0.83562 0.89288 0.8275 0.0
H398 H 0.58858 0.68987 0.86583 0.0
H399 H 0.63015 0.66641 0.87676 0.0
H400 H 0.59097 0.75965 0.87569 0.0
H401 H 0.61944 0.82284 0.85891 0.0
C402 C 0.92198 0.66983 0.92499 0.0
C403 C 0.87248 0.65491 0.94138 0.0
C404 C 0.90834 0.67087 0.00938 0.0
C405 C 0.95887 0.69072 0.99284 0.0
N406 N 0.01528 0.71132 0.93534 0.0
N407 N 0.81858 0.64694 0.99823 0.0
C408 C 0.96612 0.69077 0.95071 0.0
C409 C 0.86547 0.65627 0.98336 0.0
N410 N 0.92631 0.6627 0.88501 0.0
N411 N 0.90129 0.6667 0.05 0.0
H412 H 0.78589 0.63604 0.98047 0.0
H413 H 0.8128 0.65385 0.02781 0.0
H414 H 0.93179 0.68112 0.07049 0.0
H415 H 0.86489 0.64605 0.0636 0.0
H416 H 0.96021 0.66809 0.87146 0.0
H417 H 0.8945 0.64744 0.86562 0.0
H418 H 0.02406 0.71844 0.90502 0.0
H419 H 0.04816 0.72365 0.95321 0.0
C420 C 0.19873 0.92249 0.19377 0.0
C421 C 0.22465 0.96765 0.16966 0.0
C422 C 0.19931 0.91395 0.10884 0.0
C423 C 0.1697 0.86935 0.13281 0.0
N424 N 0.13526 0.8308 0.19731 0.0
N425 N 0.24918 0.00783 0.10454 0.0
C426 C 0.1683 0.8734 0.17512 0.0
C427 C 0.2248 0.96378 0.12722 0.0
N428 N 0.2027 0.9265 0.23458 0.0
N429 N 0.20428 0.90831 0.0687 0.0
H430 H 0.27149 0.0447 0.11686 0.0
H431 H 0.24573 0.00843 0.07358 0.0
H432 H 0.18577 0.87238 0.05443 0.0
H433 H 0.2294 0.93833 0.04988 0.0
H434 H 0.19076 0.89489 0.25354 0.0
H435 H 0.22086 0.96175 0.24977 0.0
H436 H 0.12744 0.83223 0.22752 0.0
H437 H 0.11209 0.79407 0.185 0.0
C438 C 0.30976 0.26121 0.27527 0.0
C439 C 0.28956 0.21111 0.29161 0.0
C440 C 0.29603 0.24519 0.35927 0.0
C441 C 0.3252 0.29576 0.34333 0.0
N442 N 0.34287 0.35287 0.28789 0.0
N443 N 0.24523 0.15257 0.34593 0.0
C444 C 0.32551 0.30391 0.30164 0.0
C445 C 0.27569 0.20216 0.33262 0.0
N446 N 0.3165 0.26765 0.23483 0.0
N447 N 0.29181 0.23866 0.39983 0.0
H448 H 0.23028 0.12097 0.3265 0.0
H449 H 0.23122 0.14298 0.37508 0.0
H450 H 0.30535 0.27 0.41944 0.0
H451 H 0.27598 0.20294 0.41404 0.0
H452 H 0.3355 0.30349 0.22064 0.0
H453 H 0.30287 0.23595 0.21552 0.0
H454 H 0.34207 0.36196 0.25793 0.0
H455 H 0.35435 0.38394 0.30758 0.0
C456 C 0.15011 0.29262 0.50684 0.0
C457 C 0.15575 0.29893 0.46474 0.0
C458 C 0.06182 0.26514 0.45808 0.0
C459 C 0.05728 0.26383 0.50046 0.0
N460 N 0.09864 0.28514 0.56534 0.0
N461 N 0.119 0.29685 0.40016 0.0
C462 C 0.1018 0.2797 0.52492 0.0
C463 C 0.1121 0.28661 0.44024 0.0
N464 N 0.19087 0.29832 0.52954 0.0
N465 N 0.01796 0.24442 0.43497 0.0
H466 H 0.15503 0.31124 0.38622 0.0
H467 H 0.09004 0.29435 0.38126 0.0
H468 H 0.98063 0.22857 0.44705 0.0
H469 H 0.0181 0.23921 0.40415 0.0
H470 H 0.18751 0.28872 0.55979 0.0
H471 H 0.22706 0.30821 0.51739 0.0
H472 H 0.13096 0.30207 0.58411 0.0
H473 H 0.06436 0.27741 0.5798 0.0
C474 C 0.7642 0.09971 0.61777 0.0
C475 C 0.81598 0.13485 0.62975 0.0
C476 C 0.79498 0.10423 0.69899 0.0
C477 C 0.74241 0.07088 0.68743 0.0
N478 N 0.6748 0.04034 0.63744 0.0
N479 N 0.88045 0.17573 0.68159 0.0
C480 C 0.72629 0.06981 0.64728 0.0
C481 C 0.83141 0.13838 0.67032 0.0
N482 N 0.75191 0.09402 0.57796 0.0
N483 N 0.81005 0.10283 0.73743 0.0
H484 H 0.90901 0.19995 0.66119 0.0
H485 H 0.89232 0.18484 0.71123 0.0
H486 H 0.78373 0.08179 0.7602 0.0
H487 H 0.8487 0.12071 0.7466 0.0
H488 H 0.71636 0.06567 0.56639 0.0
H489 H 0.77919 0.11532 0.55588 0.0
H490 H 0.6596 0.04165 0.60973 0.0
H491 H 0.6461 0.01681 0.65793 0.0
C492 C 0.20926 0.34514 0.28424 0.0
C493 C 0.2347 0.39431 0.30344 0.0
C494 C 0.22486 0.43488 0.24302 0.0
C495 C 0.20164 0.38631 0.22306 0.0
N496 N 0.18043 0.29714 0.22203 0.0
N497 N 0.27898 0.48727 0.29787 0.0
C498 C 0.19641 0.34198 0.24291 0.0
C499 C 0.24619 0.43957 0.28181 0.0
N500 N 0.1951 0.3011 0.30575 0.0
N501 N 0.22426 0.47603 0.22586 0.0
H502 H 0.29651 0.49225 0.32582 0.0
H503 H 0.29309 0.52164 0.28184 0.0
H504 H 0.20837 0.47438 0.19775 0.0
H505 H 0.23512 0.51043 0.24105 0.0
H506 H 0.17067 0.26396 0.29468 0.0
H507 H 0.20463 0.30117 0.33571 0.0
H508 H 0.18233 0.26571 0.23328 0.0
H509 H 0.16905 0.29269 0.19216 0.0
C510 C 0.78788 0.14104 0.43691 0.0
C511 C 0.78854 0.18434 0.45494 0.0
C512 C 0.74857 0.19607 0.39487 0.0
C513 C 0.75561 0.15839 0.3746 0.0
N514 N 0.78565 0.09676 0.37563 0.0
N515 N 0.77646 0.25808 0.44895 0.0
C516 C 0.77569 0.13081 0.39549 0.0
C517 C 0.77044 0.21305 0.43346 0.0
N518 N 0.79765 0.10892 0.45957 0.0
N519 N 0.71946 0.21449 0.37771 0.0
H520 H 0.79311 0.27271 0.47684 0.0
H521 H 0.76942 0.28348 0.43254 0.0
H522 H 0.70116 0.20151 0.35004 0.0
H523 H 0.70872 0.23818 0.39277 0.0
H524 H 0.79144 0.07331 0.44944 0.0
H525 H 0.80766 0.11565 0.48976 0.0
H526 H 0.80627 0.08068 0.38819 0.0
H527 H 0.77666 0.0869 0.34565 0.0
C528 C 0.62184 0.79111 0.62589 0.0
C529 C 0.62116 0.83301 0.64514 0.0
C530 C 0.62274 0.87087 0.57954 0.0
C531 C 0.61821 0.82653 0.56036 0.0
N532 N 0.60081 0.73861 0.56607 0.0
N533 N 0.60746 0.90601 0.6396 0.0
C534 C 0.61415 0.7849 0.58375 0.0
C535 C 0.61775 0.87099 0.6218 0.0
N536 N 0.63193 0.75839 0.64742 0.0
N537 N 0.63409 0.91397 0.55779 0.0
H538 H 0.60264 0.90766 0.67034 0.0
H539 H 0.59809 0.92985 0.62331 0.0
H540 H 0.63902 0.91608 0.52684 0.0
H541 H 0.64368 0.9493 0.57094 0.0
H542 H 0.6383 0.73053 0.63415 0.0
H543 H 0.63907 0.76235 0.67815 0.0
H544 H 0.59225 0.70552 0.5823 0.0
H545 H 0.59287 0.73156 0.53559 0.0
C546 C 0.78207 0.5355 0.69916 0.0
C547 C 0.80712 0.58484 0.68034 0.0
C548 C 0.8223 0.62627 0.74617 0.0
C549 C 0.79119 0.5771 0.76438 0.0
N550 N 0.73153 0.48527 0.7561 0.0
N551 N 0.84005 0.67679 0.68573 0.0
C552 C 0.76821 0.53171 0.74032 0.0
C553 C 0.82403 0.63016 0.7038 0.0
N554 N 0.7737 0.49249 0.67854 0.0
N555 N 0.85201 0.66908 0.76916 0.0
H556 H 0.83952 0.68101 0.65477 0.0
H557 H 0.84822 0.71004 0.70163 0.0
H558 H 0.85397 0.66764 0.80027 0.0
H559 H 0.87911 0.70482 0.75706 0.0
H560 H 0.76039 0.45668 0.69222 0.0
H561 H 0.78515 0.49358 0.64887 0.0
H562 H 0.71001 0.45225 0.73866 0.0
H563 H 0.71865 0.4809 0.78565 0.0
C564 C 0.16273 0.74373 0.90444 0.0
C565 C 0.20878 0.78734 0.88994 0.0
C566 C 0.23217 0.82067 0.95857 0.0
C567 C 0.18919 0.77423 0.97352 0.0
N568 N 0.11952 0.68677 0.96024 0.0
N569 N 0.29287 0.86204 0.90399 0.0
C570 C 0.15617 0.73437 0.94631 0.0
C571 C 0.24513 0.82432 0.91724 0.0
N572 N 0.12402 0.7124 0.87845 0.0
N573 N 0.25912 0.8624 0.98322 0.0
H574 H 0.30435 0.86534 0.87414 0.0
H575 H 0.32284 0.88665 0.92317 0.0
H576 H 0.25019 0.86229 0.0134 0.0
H577 H 0.28696 0.89888 0.97278 0.0
H578 H 0.08733 0.68338 0.88781 0.0
H579 H 0.12654 0.7185 0.8476 0.0
H580 H 0.0986 0.65477 0.94171 0.0
H581 H 0.11328 0.6778 0.99052 0.0
C582 C 0.36729 0.23723 0.09881 0.0
C583 C 0.36972 0.19621 0.11785 0.0
C584 C 0.36604 0.15769 0.05208 0.0
C585 C 0.37015 0.20196 0.03301 0.0
N586 N 0.38792 0.29012 0.03962 0.0
N587 N 0.38533 0.12458 0.1115 0.0
C588 C 0.3747 0.24362 0.05677 0.0
C589 C 0.37305 0.1584 0.0942 0.0
N590 N 0.35572 0.26894 0.12042 0.0
N591 N 0.35331 0.11407 0.0305 0.0
H592 H 0.39383 0.12543 0.14185 0.0
H593 H 0.39286 0.09956 0.0949 0.0
H594 H 0.34594 0.11102 0.99984 0.0
H595 H 0.34468 0.07914 0.04384 0.0
H596 H 0.34828 0.29605 0.10717 0.0
H597 H 0.34794 0.26446 0.15102 0.0
H598 H 0.39681 0.32302 0.05631 0.0
H599 H 0.39537 0.29759 0.00917 0.0
loop_
_geom_bond_atom_site_label_1
_geom_bond_atom_site_label_2
_geom_bond_distance
_geom_bond_site_symmetry_2
_ccdc_geom_bond_type
Mg0 O1 2.028 . S
Mg0 O7 1.986 . S
Mg0 O9 2.114 . S
Mg0 O10 2.251 . S
Mg0 O13 2.010 . S
O1 Mg0 2.028 . S
O1 C4 1.250 . S
O2 Mg3 2.028 . S
O2 C4 1.248 . S
Mg3 O2 2.028 . S
Mg3 O8 2.032 . S
Mg3 O10 2.079 . S
C4 O1 1.250 . S
C4 O2 1.248 . S
C5 O6 1.264 . S
C5 O13 1.249 1_655 S
O6 C5 1.264 . S
O7 Mg0 1.986 . S
O7 C11 1.246 . S
O8 Mg3 2.032 . S
O8 C11 1.259 . S
O9 Mg0 2.114 . S
O9 C12 1.252 . S
O10 Mg0 2.251 . S
O10 Mg3 2.079 . S
O10 C12 1.273 . S
C11 O7 1.246 . S
C11 O8 1.259 . S
C12 O9 1.252 . S
C12 O10 1.273 . S
O13 Mg0 2.010 . S
O13 C5 1.249 1_455 S
Mg14 O15 2.028 . S
Mg14 O21 1.986 . S
Mg14 O23 2.114 . S
Mg14 O24 2.251 . S
Mg14 O27 2.010 . S
O15 Mg14 2.028 . S
O15 C18 1.250 . S
O16 Mg17 2.028 . S
O16 C18 1.248 . S
Mg17 O16 2.028 . S
Mg17 O22 2.032 . S
Mg17 O24 2.079 . S
C18 O15 1.250 . S
C18 O16 1.248 . S
C19 O20 1.264 . S
C19 O27 1.249 1_565 S
O20 C19 1.264 . S
O21 Mg14 1.986 . S
O21 C25 1.246 . S
O22 Mg17 2.032 . S
O22 C25 1.259 . S
O23 Mg14 2.114 . S
O23 C26 1.252 . S
O24 Mg14 2.251 . S
O24 Mg17 2.079 . S
O24 C26 1.273 . S
C25 O21 1.246 . S
C25 O22 1.259 . S
C26 O23 1.252 . S
C26 O24 1.273 . S
O27 Mg14 2.010 . S
O27 C19 1.249 1_545 S
Mg28 O29 2.028 . S
Mg28 O35 1.986 . S
Mg28 O37 2.114 . S
Mg28 O38 2.251 . S
Mg28 O41 2.010 . S
O29 Mg28 2.028 . S
O29 C32 1.250 . S
O30 Mg31 2.028 . S
O30 C32 1.248 . S
Mg31 O30 2.028 . S
Mg31 O36 2.032 . S
Mg31 O38 2.079 . S
C32 O29 1.250 . S
C32 O30 1.248 . S
C33 O34 1.264 . S
C33 O41 1.249 . S
O34 C33 1.264 . S
O35 Mg28 1.986 . S
O35 C39 1.246 . S
O36 Mg31 2.032 . S
O36 C39 1.259 . S
O37 Mg28 2.114 . S
O37 C40 1.252 . S
O38 Mg28 2.251 . S
O38 Mg31 2.079 . S
O38 C40 1.273 . S
C39 O35 1.246 . S
C39 O36 1.259 . S
C40 O37 1.252 . S
C40 O38 1.273 . S
O41 Mg28 2.010 . S
O41 C33 1.249 . S
Mg42 O43 2.028 . S
Mg42 O49 1.986 . S
Mg42 O51 2.114 . S
Mg42 O52 2.251 . S
Mg42 O55 2.010 . S
O43 Mg42 2.028 . S
O43 C46 1.250 . S
O44 Mg45 2.028 . S
O44 C46 1.248 . S
Mg45 O44 2.028 . S
Mg45 O50 2.032 . S
Mg45 O52 2.079 . S
C46 O43 1.250 . S
C46 O44 1.248 . S
C47 O48 1.264 . S
C47 O55 1.249 1_455 S
O48 C47 1.264 . S
O49 Mg42 1.986 . S
O49 C53 1.246 . S
O50 Mg45 2.032 . S
O50 C53 1.259 . S
O51 Mg42 2.114 . S
O51 C54 1.252 . S
O52 Mg42 2.251 . S
O52 Mg45 2.079 . S
O52 C54 1.273 . S
C53 O49 1.246 . S
C53 O50 1.259 . S
C54 O51 1.252 . S
C54 O52 1.273 . S
O55 Mg42 2.010 . S
O55 C47 1.249 1_655 S
Mg56 O57 2.028 . S
Mg56 O63 1.986 . S
Mg56 O65 2.114 . S
Mg56 O66 2.251 . S
Mg56 O69 2.010 . S
O57 Mg56 2.028 . S
O57 C60 1.250 . S
O58 Mg59 2.028 . S
O58 C60 1.248 . S
Mg59 O58 2.028 . S
Mg59 O64 2.032 . S
Mg59 O66 2.079 . S
C60 O57 1.250 . S
C60 O58 1.248 . S
C61 O62 1.264 . S
C61 O69 1.249 1_545 S
O62 C61 1.264 . S
O63 Mg56 1.986 . S
O63 C67 1.246 . S
O64 Mg59 2.032 . S
O64 C67 1.259 . S
O65 Mg56 2.114 . S
O65 C68 1.252 . S
O66 Mg56 2.251 . S
O66 Mg59 2.079 . S
O66 C68 1.273 . S
C67 O63 1.246 . S
C67 O64 1.259 . S
C68 O65 1.252 . S
C68 O66 1.273 . S
O69 Mg56 2.010 . S
O69 C61 1.249 1_565 S
Mg70 O71 2.028 . S
Mg70 O77 1.986 . S
Mg70 O79 2.114 . S
Mg70 O80 2.251 . S
Mg70 O83 2.010 . S
O71 Mg70 2.028 . S
O71 C74 1.250 1_556 S
O72 Mg73 2.028 . S
O72 C74 1.248 1_556 S
Mg73 O72 2.028 . S
Mg73 O78 2.032 . S
Mg73 O80 2.079 . S
C74 O71 1.250 1_554 S
C74 O72 1.248 1_554 S
C75 O76 1.264 . S
C75 O83 1.249 . S
O76 C75 1.264 . S
O77 Mg70 1.986 . S
O77 C81 1.246 . S
O78 Mg73 2.032 . S
O78 C81 1.259 . S
O79 Mg70 2.114 . S
O79 C82 1.252 . S
O80 Mg70 2.251 . S
O80 Mg73 2.079 . S
O80 C82 1.273 . S
C81 O77 1.246 . S
C81 O78 1.259 . S
C82 O79 1.252 . S
C82 O80 1.273 . S
O83 Mg70 2.010 . S
O83 C75 1.249 . S
Mg84 O85 2.028 . S
Mg84 O91 1.986 . S
Mg84 O93 2.114 . S
Mg84 O94 2.251 . S
Mg84 O97 2.010 . S
O85 Mg84 2.028 . S
O85 C88 1.250 . S
O86 Mg87 2.028 . S
O86 C88 1.248 . S
Mg87 O86 2.028 . S
Mg87 O92 2.032 . S
Mg87 O94 2.079 . S
C88 O85 1.250 . S
C88 O86 1.248 . S
C89 O90 1.264 . S
C89 O97 1.249 1_545 S
O90 C89 1.264 . S
O91 Mg84 1.986 . S
O91 C95 1.246 . S
O92 Mg87 2.032 . S
O92 C95 1.259 . S
O93 Mg84 2.114 . S
O93 C96 1.252 . S
O94 Mg84 2.251 . S
O94 Mg87 2.079 . S
O94 C96 1.273 . S
C95 O91 1.246 . S
C95 O92 1.259 . S
C96 O93 1.252 . S
C96 O94 1.273 . S
O97 Mg84 2.010 . S
O97 C89 1.249 1_565 S
Mg98 O99 2.028 . S
Mg98 O105 1.986 . S
Mg98 O107 2.114 . S
Mg98 O108 2.251 . S
Mg98 O111 2.010 . S
O99 Mg98 2.028 . S
O99 C102 1.250 . S
O100 Mg101 2.028 . S
O100 C102 1.248 . S
Mg101 O100 2.028 . S
Mg101 O106 2.032 . S
Mg101 O108 2.079 . S
C102 O99 1.250 . S
C102 O100 1.248 . S
C103 O104 1.264 . S
C103 O111 1.249 . S
O104 C103 1.264 . S
O105 Mg98 1.986 . S
O105 C109 1.246 . S
O106 Mg101 2.032 . S
O106 C109 1.259 . S
O107 Mg98 2.114 . S
O107 C110 1.252 . S
O108 Mg98 2.251 . S
O108 Mg101 2.079 . S
O108 C110 1.273 . S
C109 O105 1.246 . S
C109 O106 1.259 . S
C110 O107 1.252 . S
C110 O108 1.273 . S
O111 Mg98 2.010 . S
O111 C103 1.249 . S
Mg112 O113 2.028 . S
Mg112 O119 1.986 . S
Mg112 O121 2.114 . S
Mg112 O122 2.251 . S
Mg112 O125 2.010 . S
O113 Mg112 2.028 . S
O113 C116 1.250 1_554 S
O114 Mg115 2.028 . S
O114 C116 1.248 1_554 S
Mg115 O114 2.028 . S
Mg115 O120 2.032 . S
Mg115 O122 2.079 . S
C116 O113 1.250 1_556 S
C116 O114 1.248 1_556 S
C117 O118 1.264 . S
C117 O125 1.249 1_655 S
O118 C117 1.264 . S
O119 Mg112 1.986 . S
O119 C123 1.246 . S
O120 Mg115 2.032 . S
O120 C123 1.259 . S
O121 Mg112 2.114 . S
O121 C124 1.252 . S
O122 Mg112 2.251 . S
O122 Mg115 2.079 . S
O122 C124 1.273 . S
C123 O119 1.246 . S
C123 O120 1.259 . S
C124 O121 1.252 . S
C124 O122 1.273 . S
O125 Mg112 2.010 . S
O125 C117 1.249 1_455 S
Mg126 O127 2.028 . S
Mg126 O133 1.986 . S
Mg126 O135 2.114 . S
Mg126 O136 2.251 . S
Mg126 O139 2.010 . S
O127 Mg126 2.028 . S
O127 C130 1.250 . S
O128 Mg129 2.028 . S
O128 C130 1.248 . S
Mg129 O128 2.028 . S
Mg129 O134 2.032 . S
Mg129 O136 2.079 . S
C130 O127 1.250 . S
C130 O128 1.248 . S
C131 O132 1.264 . S
C131 O139 1.249 1_565 S
O132 C131 1.264 . S
O133 Mg126 1.986 . S
O133 C137 1.246 . S
O134 Mg129 2.032 . S
O134 C137 1.259 . S
O135 Mg126 2.114 . S
O135 C138 1.252 . S
O136 Mg126 2.251 . S
O136 Mg129 2.079 . S
O136 C138 1.273 . S
C137 O133 1.246 . S
C137 O134 1.259 . S
C138 O135 1.252 . S
C138 O136 1.273 . S
O139 Mg126 2.010 . S
O139 C131 1.249 1_545 S
Mg140 O141 2.028 . S
Mg140 O147 1.986 . S
Mg140 O149 2.114 . S
Mg140 O150 2.251 . S
Mg140 O153 2.010 . S
O141 Mg140 2.028 . S
O141 C144 1.250 . S
O142 Mg143 2.028 . S
O142 C144 1.248 . S
Mg143 O142 2.028 . S
Mg143 O148 2.032 . S
Mg143 O150 2.079 . S
C144 O141 1.250 . S
C144 O142 1.248 . S
C145 O146 1.264 . S
C145 O153 1.249 . S
O146 C145 1.264 . S
O147 Mg140 1.986 . S
O147 C151 1.246 . S
O148 Mg143 2.032 . S
O148 C151 1.259 . S
O149 Mg140 2.114 . S
O149 C152 1.252 . S
O150 Mg140 2.251 . S
O150 Mg143 2.079 . S
O150 C152 1.273 . S
C151 O147 1.246 . S
C151 O148 1.259 . S
C152 O149 1.252 . S
C152 O150 1.273 . S
O153 Mg140 2.010 . S
O153 C145 1.249 . S
Mg154 O155 2.028 . S
Mg154 O161 1.986 . S
Mg154 O163 2.114 . S
Mg154 O164 2.251 . S
Mg154 O167 2.010 . S
O155 Mg154 2.028 . S
O155 C158 1.250 . S
O156 Mg157 2.028 . S
O156 C158 1.248 . S
Mg157 O156 2.028 . S
Mg157 O162 2.032 . S
Mg157 O164 2.079 . S
C158 O155 1.250 . S
C158 O156 1.248 . S
C159 O160 1.264 . S
C159 O167 1.249 1_455 S
O160 C159 1.264 . S
O161 Mg154 1.986 . S
O161 C165 1.246 . S
O162 Mg157 2.032 . S
O162 C165 1.259 . S
O163 Mg154 2.114 . S
O163 C166 1.252 . S
O164 Mg154 2.251 . S
O164 Mg157 2.079 . S
O164 C166 1.273 . S
C165 O161 1.246 . S
C165 O162 1.259 . S
C166 O163 1.252 . S
C166 O164 1.273 . S
O167 Mg154 2.010 . S
O167 C159 1.249 1_655 S
C168 C169 1.363 . S
C168 C174 1.379 . S
C168 N176 1.356 . S
C169 C168 1.363 . S
C169 C175 1.363 . S
C170 C171 1.363 . S
C170 C175 1.379 . S
C170 N177 1.356 . S
C171 C170 1.363 . S
C171 C174 1.363 . S
N172 C174 1.356 . S
N172 H184 0.984 . S
N172 H185 0.985 . S
N173 C175 1.356 . S
N173 H178 0.984 . S
N173 H179 0.985 . S
C174 C168 1.379 . S
C174 C171 1.363 . S
C174 N172 1.356 . S
C175 C169 1.363 . S
C175 C170 1.379 . S
C175 N173 1.356 . S
N176 C168 1.356 . S
N176 H182 0.984 . S
N176 H183 0.984 . S
N177 C170 1.356 . S
N177 H180 0.984 . S
N177 H181 0.985 . S
H178 N173 0.984 . S
H179 N173 0.985 . S
H180 N177 0.984 . S
H181 N177 0.985 . S
H182 N176 0.984 . S
H183 N176 0.984 . S
H184 N172 0.984 . S
H185 N172 0.985 . S
C186 C187 1.363 . S
C186 C192 1.379 . S
C186 N194 1.356 . S
C187 C186 1.363 . S
C187 C193 1.363 . S
C188 C189 1.363 . S
C188 C193 1.379 . S
C188 N195 1.356 . S
C189 C188 1.363 . S
C189 C192 1.363 . S
N190 C192 1.356 . S
N190 H202 0.984 . S
N190 H203 0.985 . S
N191 C193 1.356 . S
N191 H196 0.984 . S
N191 H197 0.985 . S
C192 C186 1.379 . S
C192 C189 1.363 . S
C192 N190 1.356 . S
C193 C187 1.363 . S
C193 C188 1.379 . S
C193 N191 1.356 . S
N194 C186 1.356 . S
N194 H200 0.984 . S
N194 H201 0.984 . S
N195 C188 1.356 . S
N195 H198 0.984 . S
N195 H199 0.985 . S
H196 N191 0.984 . S
H197 N191 0.985 . S
H198 N195 0.984 . S
H199 N195 0.985 . S
H200 N194 0.984 . S
H201 N194 0.984 . S
H202 N190 0.984 . S
H203 N190 0.985 . S
C204 C205 1.363 . S
C204 C210 1.379 . S
C204 N212 1.356 . S
C205 C204 1.363 . S
C205 C211 1.363 . S
C206 C207 1.363 . S
C206 C211 1.379 . S
C206 N213 1.356 . S
C207 C206 1.363 . S
C207 C210 1.363 . S
N208 C210 1.356 . S
N208 H220 0.984 . S
N208 H221 0.985 . S
N209 C211 1.356 . S
N209 H214 0.984 . S
N209 H215 0.985 . S
C210 C204 1.379 . S
C210 C207 1.363 . S
C210 N208 1.356 . S
C211 C205 1.363 . S
C211 C206 1.379 . S
C211 N209 1.356 . S
N212 C204 1.356 . S
N212 H218 0.984 . S
N212 H219 0.984 . S
N213 C206 1.356 . S
N213 H216 0.984 . S
N213 H217 0.985 . S
H214 N209 0.984 . S
H215 N209 0.985 . S
H216 N213 0.984 . S
H217 N213 0.985 . S
H218 N212 0.984 . S
H219 N212 0.984 . S
H220 N208 0.984 . S
H221 N208 0.985 . S
C222 C223 1.363 . S
C222 C228 1.379 . S
C222 N230 1.356 . S
C223 C222 1.363 . S
C223 C229 1.363 . S
C224 C225 1.363 . S
C224 C229 1.379 . S
C224 N231 1.356 . S
C225 C224 1.363 . S
C225 C228 1.363 . S
N226 C228 1.356 . S
N226 H238 0.984 . S
N226 H239 0.985 . S
N227 C229 1.356 . S
N227 H232 0.984 . S
N227 H233 0.985 . S
C228 C222 1.379 . S
C228 C225 1.363 . S
C228 N226 1.356 . S
C229 C223 1.363 . S
C229 C224 1.379 . S
C229 N227 1.356 . S
N230 C222 1.356 . S
N230 H236 0.984 . S
N230 H237 0.984 . S
N231 C224 1.356 . S
N231 H234 0.984 . S
N231 H235 0.985 . S
H232 N227 0.984 . S
H233 N227 0.985 . S
H234 N231 0.984 . S
H235 N231 0.985 . S
H236 N230 0.984 . S
H237 N230 0.984 . S
H238 N226 0.984 . S
H239 N226 0.985 . S
C240 C241 1.363 . S
C240 C246 1.379 . S
C240 N248 1.356 . S
C241 C240 1.363 . S
C241 C247 1.363 . S
C242 C243 1.363 . S
C242 C247 1.379 . S
C242 N249 1.356 . S
C243 C242 1.363 . S
C243 C246 1.363 . S
N244 C246 1.356 . S
N244 H256 0.984 . S
N244 H257 0.985 . S
N245 C247 1.356 . S
N245 H250 0.984 . S
N245 H251 0.985 . S
C246 C240 1.379 . S
C246 C243 1.363 . S
C246 N244 1.356 . S
C247 C241 1.363 . S
C247 C242 1.379 . S
C247 N245 1.356 . S
N248 C240 1.356 . S
N248 H254 0.984 . S
N248 H255 0.984 . S
N249 C242 1.356 . S
N249 H252 0.984 . S
N249 H253 0.985 . S
H250 N245 0.984 . S
H251 N245 0.985 . S
H252 N249 0.984 . S
H253 N249 0.985 . S
H254 N248 0.984 . S
H255 N248 0.984 . S
H256 N244 0.984 . S
H257 N244 0.985 . S
C258 C259 1.363 . S
C258 C264 1.379 . S
C258 N266 1.356 . S
C259 C258 1.363 . S
C259 C265 1.363 . S
C260 C261 1.363 . S
C260 C265 1.379 . S
C260 N267 1.356 . S
C261 C260 1.363 . S
C261 C264 1.363 . S
N262 C264 1.356 . S
N262 H274 0.984 . S
N262 H275 0.985 . S
N263 C265 1.356 . S
N263 H268 0.984 . S
N263 H269 0.985 . S
C264 C258 1.379 . S
C264 C261 1.363 . S
C264 N262 1.356 . S
C265 C259 1.363 . S
C265 C260 1.379 . S
C265 N263 1.356 . S
N266 C258 1.356 . S
N266 H272 0.984 . S
N266 H273 0.984 . S
N267 C260 1.356 . S
N267 H270 0.984 . S
N267 H271 0.985 . S
H268 N263 0.984 . S
H269 N263 0.985 . S
H270 N267 0.984 . S
H271 N267 0.985 . S
H272 N266 0.984 . S
H273 N266 0.984 . S
H274 N262 0.984 . S
H275 N262 0.985 . S
C276 C277 1.363 . S
C276 C282 1.379 1_554 S
C276 N284 1.356 . S
C277 C276 1.363 . S
C277 C283 1.363 . S
C278 C279 1.372 . S
C278 C283 1.379 . S
C278 N285 1.356 . S
C279 C278 1.372 . S
C279 C282 1.361 1_554 S
N280 C282 1.356 . S
N280 H292 0.984 . S
N280 H293 0.985 . S
N281 C283 1.356 . S
N281 H286 0.984 . S
N281 H287 0.985 . S
C282 C276 1.379 1_556 S
C282 C279 1.361 1_556 S
C282 N280 1.356 . S
C283 C277 1.363 . S
C283 C278 1.379 . S
C283 N281 1.356 . S
N284 C276 1.356 . S
N284 H290 0.984 1_554 S
N284 H291 0.984 . S
N285 C278 1.356 . S
N285 H288 0.984 . S
N285 H289 0.985 . S
H286 N281 0.984 . S
H287 N281 0.985 . S
H288 N285 0.984 . S
H289 N285 0.985 . S
H290 N284 0.984 1_556 S
H291 N284 0.984 . S
H292 N280 0.984 . S
H293 N280 0.985 . S
C294 C295 1.363 . S
C294 C300 1.379 . S
C294 N302 1.356 . S
C295 C294 1.363 . S
C295 C301 1.363 . S
C296 C297 1.363 . S
C296 C301 1.379 . S
C296 N303 1.356 . S
C297 C296 1.363 . S
C297 C300 1.363 . S
N298 C300 1.356 . S
N298 H310 0.984 . S
N298 H311 0.985 . S
N299 C301 1.356 . S
N299 H304 0.984 . S
N299 H305 0.985 . S
C300 C294 1.379 . S
C300 C297 1.363 . S
C300 N298 1.356 . S
C301 C295 1.363 . S
C301 C296 1.379 . S
C301 N299 1.356 . S
N302 C294 1.356 . S
N302 H308 0.984 . S
N302 H309 0.984 . S
N303 C296 1.356 . S
N303 H306 0.984 1_655 S
N303 H307 0.985 1_655 S
H304 N299 0.984 . S
H305 N299 0.985 . S
H306 N303 0.984 1_455 S
H307 N303 0.985 1_455 S
H308 N302 0.984 . S
H309 N302 0.984 . S
H310 N298 0.984 . S
H311 N298 0.985 . S
C312 C313 1.363 . S
C312 C318 1.379 . S
C312 N320 1.356 . S
C313 C312 1.363 . S
C313 C319 1.363 . S
C314 C315 1.363 . S
C314 C319 1.379 . S
C314 N321 1.356 . S
C315 C314 1.363 . S
C315 C318 1.363 . S
N316 C318 1.356 . S
N316 H328 0.984 . S
N316 H329 0.985 . S
N317 C319 1.356 . S
N317 H322 0.984 . S
N317 H323 0.985 . S
C318 C312 1.379 . S
C318 C315 1.363 . S
C318 N316 1.356 . S
C319 C313 1.363 . S
C319 C314 1.379 . S
C319 N317 1.356 . S
N320 C312 1.356 . S
N320 H326 0.984 . S
N320 H327 0.984 . S
N321 C314 1.356 . S
N321 H324 0.984 . S
N321 H325 0.985 . S
H322 N317 0.984 . S
H323 N317 0.985 . S
H324 N321 0.984 . S
H325 N321 0.985 . S
H326 N320 0.984 . S
H327 N320 0.984 . S
H328 N316 0.984 . S
H329 N316 0.985 . S
C330 C331 1.363 . S
C330 C336 1.379 . S
C330 N338 1.356 . S
C331 C330 1.363 . S
C331 C337 1.363 . S
C332 C333 1.363 . S
C332 C337 1.379 . S
C332 N339 1.356 . S
C333 C332 1.363 . S
C333 C336 1.363 . S
N334 C336 1.356 . S
N334 H346 0.984 . S
N334 H347 0.985 . S
N335 C337 1.356 . S
N335 H340 0.984 . S
N335 H341 0.985 . S
C336 C330 1.379 . S
C336 C333 1.363 . S
C336 N334 1.356 . S
C337 C331 1.363 . S
C337 C332 1.379 . S
C337 N335 1.356 . S
N338 C330 1.356 . S
N338 H344 0.984 . S
N338 H345 0.984 . S
N339 C332 1.356 . S
N339 H342 0.984 . S
N339 H343 0.985 . S
H340 N335 0.984 . S
H341 N335 0.985 . S
H342 N339 0.984 . S
H343 N339 0.985 . S
H344 N338 0.984 . S
H345 N338 0.984 . S
H346 N334 0.984 . S
H347 N334 0.985 . S
C348 C349 1.363 . S
C348 C354 1.379 . S
C348 N356 1.356 . S
C349 C348 1.363 . S
C349 C355 1.363 . S
C350 C351 1.363 . S
C350 C355 1.379 . S
C350 N357 1.356 . S
C351 C350 1.363 . S
C351 C354 1.363 . S
N352 C354 1.356 . S
N352 H364 0.984 . S
N352 H365 0.985 . S
N353 C355 1.356 . S
N353 H358 0.984 1_455 S
N353 H359 0.985 . S
C354 C348 1.379 . S
C354 C351 1.363 . S
C354 N352 1.356 . S
C355 C349 1.363 . S
C355 C350 1.379 . S
C355 N353 1.356 . S
N356 C348 1.356 . S
N356 H362 0.984 . S
N356 H363 0.984 . S
N357 C350 1.356 . S
N357 H360 0.984 . S
N357 H361 0.985 . S
H358 N353 0.984 1_655 S
H359 N353 0.985 . S
H360 N357 0.984 . S
H361 N357 0.985 . S
H362 N356 0.984 . S
H363 N356 0.984 . S
H364 N352 0.984 . S
H365 N352 0.985 . S
C366 C367 1.363 . S
C366 C372 1.379 . S
C366 N374 1.356 . S
C367 C366 1.363 . S
C367 C373 1.363 . S
C368 C369 1.363 . S
C368 C373 1.379 . S
C368 N375 1.356 . S
C369 C368 1.363 . S
C369 C372 1.363 . S
N370 C372 1.356 . S
N370 H382 0.984 . S
N370 H383 0.985 . S
N371 C373 1.356 . S
N371 H376 0.984 . S
N371 H377 0.985 . S
C372 C366 1.379 . S
C372 C369 1.363 . S
C372 N370 1.356 . S
C373 C367 1.363 . S
C373 C368 1.379 . S
C373 N371 1.356 . S
N374 C366 1.356 . S
N374 H380 0.984 . S
N374 H381 0.984 1_545 S
N375 C368 1.356 . S
N375 H378 0.984 . S
N375 H379 0.985 . S
H376 N371 0.984 . S
H377 N371 0.985 . S
H378 N375 0.984 . S
H379 N375 0.985 . S
H380 N374 0.984 . S
H381 N374 0.984 1_565 S
H382 N370 0.984 . S
H383 N370 0.985 . S
C384 C385 1.363 . S
C384 C390 1.379 . S
C384 N392 1.356 . S
C385 C384 1.363 . S
C385 C391 1.363 . S
C386 C387 1.363 . S
C386 C391 1.379 . S
C386 N393 1.356 . S
C387 C386 1.363 . S
C387 C390 1.363 . S
N388 C390 1.356 . S
N388 H400 0.984 . S
N388 H401 0.985 . S
N389 C391 1.356 . S
N389 H394 0.984 . S
N389 H395 0.985 . S
C390 C384 1.379 . S
C390 C387 1.363 . S
C390 N388 1.356 . S
C391 C385 1.363 . S
C391 C386 1.379 . S
C391 N389 1.356 . S
N392 C384 1.356 . S
N392 H398 0.984 . S
N392 H399 0.984 . S
N393 C386 1.356 . S
N393 H396 0.984 . S
N393 H397 0.985 . S
H394 N389 0.984 . S
H395 N389 0.985 . S
H396 N393 0.984 . S
H397 N393 0.985 . S
H398 N392 0.984 . S
H399 N392 0.984 . S
H400 N388 0.984 . S
H401 N388 0.985 . S
C402 C403 1.363 . S
C402 C408 1.379 . S
C402 N410 1.356 . S
C403 C402 1.363 . S
C403 C409 1.363 . S
C404 C405 1.360 1_554 S
C404 C409 1.379 1_554 S
C404 N411 1.356 . S
C405 C404 1.360 1_556 S
C405 C408 1.373 . S
N406 C408 1.356 . S
N406 H418 0.984 1_655 S
N406 H419 0.985 1_655 S
N407 C409 1.356 . S
N407 H412 0.984 . S
N407 H413 0.985 1_556 S
C408 C402 1.379 . S
C408 C405 1.373 . S
C408 N406 1.356 . S
C409 C403 1.363 . S
C409 C404 1.379 1_556 S
C409 N407 1.356 . S
N410 C402 1.356 . S
N410 H416 0.984 . S
N410 H417 0.984 . S
N411 C404 1.356 . S
N411 H414 0.984 . S
N411 H415 0.985 . S
H412 N407 0.984 . S
H413 N407 0.985 1_554 S
H414 N411 0.984 . S
H415 N411 0.985 . S
H416 N410 0.984 . S
H417 N410 0.984 . S
H418 N406 0.984 1_455 S
H419 N406 0.985 1_455 S
C420 C421 1.363 . S
C420 C426 1.379 . S
C420 N428 1.356 . S
C421 C420 1.363 . S
C421 C427 1.363 . S
C422 C423 1.363 . S
C422 C427 1.379 . S
C422 N429 1.356 . S
C423 C422 1.363 . S
C423 C426 1.363 . S
N424 C426 1.356 . S
N424 H436 0.984 . S
N424 H437 0.985 . S
N425 C427 1.356 . S
N425 H430 0.984 1_565 S
N425 H431 0.985 1_565 S
C426 C420 1.379 . S
C426 C423 1.363 . S
C426 N424 1.356 . S
C427 C421 1.363 . S
C427 C422 1.379 . S
C427 N425 1.356 . S
N428 C420 1.356 . S
N428 H434 0.984 . S
N428 H435 0.984 . S
N429 C422 1.356 . S
N429 H432 0.984 . S
N429 H433 0.985 . S
H430 N425 0.984 1_545 S
H431 N425 0.985 1_545 S
H432 N429 0.984 . S
H433 N429 0.985 . S
H434 N428 0.984 . S
H435 N428 0.984 . S
H436 N424 0.984 . S
H437 N424 0.985 . S
C438 C439 1.363 . S
C438 C444 1.379 . S
C438 N446 1.356 . S
C439 C438 1.363 . S
C439 C445 1.363 . S
C440 C441 1.363 . S
C440 C445 1.379 . S
C440 N447 1.356 . S
C441 C440 1.363 . S
C441 C444 1.363 . S
N442 C444 1.356 . S
N442 H454 0.984 . S
N442 H455 0.985 . S
N443 C445 1.356 . S
N443 H448 0.984 . S
N443 H449 0.985 . S
C444 C438 1.379 . S
C444 C441 1.363 . S
C444 N442 1.356 . S
C445 C439 1.363 . S
C445 C440 1.379 . S
C445 N443 1.356 . S
N446 C438 1.356 . S
N446 H452 0.984 . S
N446 H453 0.984 . S
N447 C440 1.356 . S
N447 H450 0.984 . S
N447 H451 0.985 . S
H448 N443 0.984 . S
H449 N443 0.985 . S
H450 N447 0.984 . S
H451 N447 0.985 . S
H452 N446 0.984 . S
H453 N446 0.984 . S
H454 N442 0.984 . S
H455 N442 0.985 . S
C456 C457 1.363 . S
C456 C462 1.379 . S
C456 N464 1.356 . S
C457 C456 1.363 . S
C457 C463 1.363 . S
C458 C459 1.363 . S
C458 C463 1.379 . S
C458 N465 1.356 . S
C459 C458 1.363 . S
C459 C462 1.363 . S
N460 C462 1.356 . S
N460 H472 0.984 . S
N460 H473 0.985 . S
N461 C463 1.356 . S
N461 H466 0.984 . S
N461 H467 0.985 . S
C462 C456 1.379 . S
C462 C459 1.363 . S
C462 N460 1.356 . S
C463 C457 1.363 . S
C463 C458 1.379 . S
C463 N461 1.356 . S
N464 C456 1.356 . S
N464 H470 0.984 . S
N464 H471 0.984 . S
N465 C458 1.356 . S
N465 H468 0.984 1_455 S
N465 H469 0.985 1_455 S
H466 N461 0.984 . S
H467 N461 0.985 . S
H468 N465 0.984 1_655 S
H469 N465 0.985 1_655 S
H470 N464 0.984 . S
H471 N464 0.984 . S
H472 N460 0.984 . S
H473 N460 0.985 . S
C474 C475 1.363 . S
C474 C480 1.379 . S
C474 N482 1.356 . S
C475 C474 1.363 . S
C475 C481 1.363 . S
C476 C477 1.363 . S
C476 C481 1.379 . S
C476 N483 1.356 . S
C477 C476 1.363 . S
C477 C480 1.363 . S
N478 C480 1.356 . S
N478 H490 0.984 . S
N478 H491 0.985 1_545 S
N479 C481 1.356 . S
N479 H484 0.984 . S
N479 H485 0.985 . S
C480 C474 1.379 . S
C480 C477 1.363 . S
C480 N478 1.356 . S
C481 C475 1.363 . S
C481 C476 1.379 . S
C481 N479 1.356 . S
N482 C474 1.356 . S
N482 H488 0.984 . S
N482 H489 0.984 . S
N483 C476 1.356 . S
N483 H486 0.984 . S
N483 H487 0.985 . S
H484 N479 0.984 . S
H485 N479 0.985 . S
H486 N483 0.984 . S
H487 N483 0.985 . S
H488 N482 0.984 . S
H489 N482 0.984 . S
H490 N478 0.984 . S
H491 N478 0.985 1_565 S
C492 C493 1.363 . S
C492 C498 1.379 . S
C492 N500 1.356 . S
C493 C492 1.363 . S
C493 C499 1.363 . S
C494 C495 1.363 . S
C494 C499 1.379 . S
C494 N501 1.356 . S
C495 C494 1.363 . S
C495 C498 1.363 . S
N496 C498 1.356 . S
N496 H508 0.984 . S
N496 H509 0.985 . S
N497 C499 1.356 . S
N497 H502 0.984 . S
N497 H503 0.985 . S
C498 C492 1.379 . S
C498 C495 1.363 . S
C498 N496 1.356 . S
C499 C493 1.363 . S
C499 C494 1.379 . S
C499 N497 1.356 . S
N500 C492 1.356 . S
N500 H506 0.984 . S
N500 H507 0.984 . S
N501 C494 1.356 . S
N501 H504 0.984 . S
N501 H505 0.985 . S
H502 N497 0.984 . S
H503 N497 0.985 . S
H504 N501 0.984 . S
H505 N501 0.985 . S
H506 N500 0.984 . S
H507 N500 0.984 . S
H508 N496 0.984 . S
H509 N496 0.985 . S
C510 C511 1.363 . S
C510 C516 1.379 . S
C510 N518 1.356 . S
C511 C510 1.363 . S
C511 C517 1.363 . S
C512 C513 1.363 . S
C512 C517 1.379 . S
C512 N519 1.356 . S
C513 C512 1.363 . S
C513 C516 1.363 . S
N514 C516 1.356 . S
N514 H526 0.984 . S
N514 H527 0.985 . S
N515 C517 1.356 . S
N515 H520 0.984 . S
N515 H521 0.985 . S
C516 C510 1.379 . S
C516 C513 1.363 . S
C516 N514 1.356 . S
C517 C511 1.363 . S
C517 C512 1.379 . S
C517 N515 1.356 . S
N518 C510 1.356 . S
N518 H524 0.984 . S
N518 H525 0.984 . S
N519 C512 1.356 . S
N519 H522 0.984 . S
N519 H523 0.985 . S
H520 N515 0.984 . S
H521 N515 0.985 . S
H522 N519 0.984 . S
H523 N519 0.985 . S
H524 N518 0.984 . S
H525 N518 0.984 . S
H526 N514 0.984 . S
H527 N514 0.985 . S
C528 C529 1.363 . S
C528 C534 1.379 . S
C528 N536 1.356 . S
C529 C528 1.363 . S
C529 C535 1.363 . S
C530 C531 1.363 . S
C530 C535 1.379 . S
C530 N537 1.356 . S
C531 C530 1.363 . S
C531 C534 1.363 . S
N532 C534 1.356 . S
N532 H544 0.984 . S
N532 H545 0.985 . S
N533 C535 1.356 . S
N533 H538 0.984 . S
N533 H539 0.985 . S
C534 C528 1.379 . S
C534 C531 1.363 . S
C534 N532 1.356 . S
C535 C529 1.363 . S
C535 C530 1.379 . S
C535 N533 1.356 . S
N536 C528 1.356 . S
N536 H542 0.984 . S
N536 H543 0.984 . S
N537 C530 1.356 . S
N537 H540 0.984 . S
N537 H541 0.985 . S
H538 N533 0.984 . S
H539 N533 0.985 . S
H540 N537 0.984 . S
H541 N537 0.985 . S
H542 N536 0.984 . S
H543 N536 0.984 . S
H544 N532 0.984 . S
H545 N532 0.985 . S
C546 C547 1.363 . S
C546 C552 1.379 . S
C546 N554 1.356 . S
C547 C546 1.363 . S
C547 C553 1.363 . S
C548 C549 1.363 . S
C548 C553 1.379 . S
C548 N555 1.356 . S
C549 C548 1.363 . S
C549 C552 1.363 . S
N550 C552 1.356 . S
N550 H562 0.984 . S
N550 H563 0.985 . S
N551 C553 1.356 . S
N551 H556 0.984 . S
N551 H557 0.985 . S
C552 C546 1.379 . S
C552 C549 1.363 . S
C552 N550 1.356 . S
C553 C547 1.363 . S
C553 C548 1.379 . S
C553 N551 1.356 . S
N554 C546 1.356 . S
N554 H560 0.984 . S
N554 H561 0.984 . S
N555 C548 1.356 . S
N555 H558 0.984 . S
N555 H559 0.985 . S
H556 N551 0.984 . S
H557 N551 0.985 . S
H558 N555 0.984 . S
H559 N555 0.985 . S
H560 N554 0.984 . S
H561 N554 0.984 . S
H562 N550 0.984 . S
H563 N550 0.985 . S
C564 C565 1.363 . S
C564 C570 1.379 . S
C564 N572 1.356 . S
C565 C564 1.363 . S
C565 C571 1.363 . S
C566 C567 1.363 . S
C566 C571 1.379 . S
C566 N573 1.356 . S
C567 C566 1.363 . S
C567 C570 1.363 . S
N568 C570 1.356 . S
N568 H580 0.984 . S
N568 H581 0.985 . S
N569 C571 1.356 . S
N569 H574 0.984 . S
N569 H575 0.985 . S
C570 C564 1.379 . S
C570 C567 1.363 . S
C570 N568 1.356 . S
C571 C565 1.363 . S
C571 C566 1.379 . S
C571 N569 1.356 . S
N572 C564 1.356 . S
N572 H578 0.984 . S
N572 H579 0.984 . S
N573 C566 1.356 . S
N573 H576 0.984 1_556 S
N573 H577 0.985 1_556 S
H574 N569 0.984 . S
H575 N569 0.985 . S
H576 N573 0.984 1_554 S
H577 N573 0.985 1_554 S
H578 N572 0.984 . S
H579 N572 0.984 . S
H580 N568 0.984 . S
H581 N568 0.985 . S
C582 C583 1.363 . S
C582 C588 1.379 . S
C582 N590 1.356 . S
C583 C582 1.363 . S
C583 C589 1.363 . S
C584 C585 1.363 . S
C584 C589 1.379 . S
C584 N591 1.356 . S
C585 C584 1.363 . S
C585 C588 1.363 . S
N586 C588 1.356 . S
N586 H598 0.984 . S
N586 H599 0.985 . S
N587 C589 1.356 . S
N587 H592 0.984 . S
N587 H593 0.985 . S
C588 C582 1.379 . S
C588 C585 1.363 . S
C588 N586 1.356 . S
C589 C583 1.363 . S
C589 C584 1.379 . S
C589 N587 1.356 . S
N590 C582 1.356 . S
N590 H596 0.984 . S
N590 H597 0.984 . S
N591 C584 1.356 . S
N591 H594 0.984 1_554 S
N591 H595 0.983 1_554 S
H592 N587 0.984 . S
H593 N587 0.985 . S
H594 N591 0.984 1_556 S
H595 N591 0.983 1_556 S
H596 N590 0.984 . S
H597 N590 0.984 . S
H598 N586 0.984 . S
H599 N586 0.985 . S
C169 C123 1.387 . S
C171 C11 1.387 . S
C187 C25 1.387 . S
C189 C137 1.387 . S
C205 C39 1.387 . S
C207 C151 1.387 . S
C223 C53 1.387 . S
C225 C165 1.387 . S
C241 C95 1.387 . S
C243 C67 1.387 . S
C259 C81 1.387 . S
C261 C109 1.387 . S
C277 C12 1.436 . S
C279 C75 1.313 1_554 S
C295 C26 1.436 . S
C297 C5 1.323 . S
C313 C40 1.436 . S
C315 C19 1.323 . S
C331 C33 1.323 . S
C333 C54 1.436 . S
C349 C47 1.323 . S
C351 C68 1.436 . S
C367 C61 1.323 . S
C369 C82 1.436 . S
C385 C103 1.323 . S
C387 C96 1.436 . S
C403 C110 1.436 . S
C405 C117 1.312 1_556 S
C421 C131 1.323 . S
C423 C124 1.436 . S
C439 C138 1.436 . S
C441 C145 1.323 . S
C457 C152 1.436 . S
C459 C159 1.323 . S
C475 C166 1.436 . S
C477 C89 1.323 . S
C493 C144 1.317 . S
C495 C4 1.317 . S
C511 C158 1.317 . S
C513 C18 1.317 . S
C529 C88 1.317 . S
C531 C32 1.317 . S
C547 C46 1.317 . S
C549 C102 1.317 . S
C565 C60 1.317 . S
C567 C116 1.317 . S
C583 C130 1.317 . S
C585 C74 1.317 . S
