# Generated by pormake.
# Topology afw, (4)-cn, num edge types: 1
# Building blocks:
#     Node 0, Type 0, BuildingBlock: NAHDIM_clean_sbu_0, # of connection points: 4
#     Node 1, Type 0, BuildingBlock: NAHDIM_clean_sbu_0, # of connection points: 4
#     Node 2, Type 0, BuildingBlock: NAHDIM_clean_sbu_0, # of connection points: 4
#     Node 3, Type 0, BuildingBlock: NAHDIM_clean_sbu_0, # of connection points: 4
#     Node 4, Type 0, BuildingBlock: NAHDIM_clean_sbu_0, # of connection points: 4
#     Node 5, Type 0, BuildingBlock: NAHDIM_clean_sbu_0, # of connection points: 4
#     Node 6, Type 0, BuildingBlock: NAHDIM_clean_sbu_0, # of connection points: 4
#     Node 7, Type 0, BuildingBlock: NAHDIM_clean_sbu_0, # of connection points: 4
#     Node 8, Type 0, BuildingBlock: NAHDIM_clean_sbu_0, # of connection points: 4
#     Edge 9, Type (0, 0), BuildingBlock: OJICUG_clean_linker_0, # of connection points: 2
#     Edge 10, Type (0, 0), BuildingBlock: OJICUG_clean_linker_0, # of connection points: 2
#     Edge 11, Type (0, 0), BuildingBlock: OJICUG_clean_linker_0, # of connection points: 2
#     Edge 12, Type (0, 0), BuildingBlock: OJICUG_clean_linker_0, # of connection points: 2
#     Edge 13, Type (0, 0), BuildingBlock: OJICUG_clean_linker_0, # of connection points: 2
#     Edge 14, Type (0, 0), BuildingBlock: OJICUG_clean_linker_0, # of connection points: 2
#     Edge 15, Type (0, 0), BuildingBlock: OJICUG_clean_linker_0, # of connection points: 2
#     Edge 16, Type (0, 0), BuildingBlock: OJICUG_clean_linker_0, # of connection points: 2
#     Edge 17, Type (0, 0), BuildingBlock: OJICUG_clean_linker_0, # of connection points: 2
#     Edge 18, Type (0, 0), BuildingBlock: OJICUG_clean_linker_0, # of connection points: 2
#     Edge 19, Type (0, 0), BuildingBlock: OJICUG_clean_linker_0, # of connection points: 2
#     Edge 20, Type (0, 0), BuildingBlock: OJICUG_clean_linker_0, # of connection points: 2
#     Edge 21, Type (0, 0), BuildingBlock: OJICUG_clean_linker_0, # of connection points: 2
#     Edge 22, Type (0, 0), BuildingBlock: OJICUG_clean_linker_0, # of connection points: 2
#     Edge 23, Type (0, 0), BuildingBlock: OJICUG_clean_linker_0, # of connection points: 2
#     Edge 24, Type (0, 0), BuildingBlock: OJICUG_clean_linker_0, # of connection points: 2
#     Edge 25, Type (0, 0), BuildingBlock: OJICUG_clean_linker_0, # of connection points: 2
#     Edge 26, Type (0, 0), BuildingBlock: OJICUG_clean_linker_0, # of connection points: 2
# Relax obj value: 0.262
# Max RMSD: 0.265
# Mean RMSD: 0.246
data_MOF--net-afw--node1-NAHDIM_clean_sbu_0--edge1-OJICUG_clean_linker_0
_symmetry_space_group_name_H-M    P1
_symmetry_Int_Tables_number       1
_symmetry_cell_setting            triclinic
loop_
_symmetry_equiv_pos_as_xyz
'x, y, z'
_cell_length_a     28.105882
_cell_length_b     29.981441
_cell_length_c     26.429103
_cell_angle_alpha  91.341462
_cell_angle_beta   91.418384
_cell_angle_gamma 117.19148
loop_
_atom_site_label
_atom_site_type_symbol
_atom_site_fract_x
_atom_site_fract_y
_atom_site_fract_z
_atom_type_partial_charge
C0 C 0.99912 0.27542 0.89414 0.0
O1 O 0.02159 0.29349 0.93913 0.0
O2 O 0.02485 0.17084 0.95169 0.0
Zn3 Zn 0.96202 0.18638 0.94801 0.0
O4 O 0.9579 0.22424 0.01023 0.0
C5 C 0.86768 0.09989 -0.02048 0.0
O6 O 0.87825 0.12683 0.02199 0.0
O7 O 0.96951 0.22842 0.88775 0.0
C8 C 0.9774 0.22283 0.05366 0.0
O9 O 1.00284 0.19574 0.05946 0.0
C10 C 0.0728 0.19884 0.96751 0.0
O11 O 0.08653 0.24469 -0.01515 0.0
O12 O 0.89597 0.11893 0.94146 0.0
C13 C 0.75007 0.71952 0.0789 0.0
O14 O 0.75752 0.69972 0.03684 0.0
O15 O 0.87455 0.83619 0.03001 0.0
Zn16 Zn 0.79463 0.80847 0.02141 0.0
O17 O 0.76657 0.76964 0.95482 0.0
C18 C 0.76915 0.88608 -0.017 0.0
O19 O 0.75437 0.85797 0.94111 0.0
O20 O 0.76141 0.76572 0.08073 0.0
C21 C 0.79323 0.78354 0.91499 0.0
O22 O 0.84095 0.82244 0.91807 0.0
C23 C 0.90473 0.81737 0.0162 0.0
O24 O 0.88379 0.77298 -0.00713 0.0
O25 O 0.78299 0.87026 0.02219 0.0
C26 C 0.28196 0.97103 0.91987 0.0
O27 O 0.27869 0.95064 0.96396 0.0
O28 O 0.15878 0.95171 -0.01439 0.0
Zn29 Zn 0.22652 0.01435 0.97362 0.0
O30 O 0.27594 0.03296 0.03544 0.0
C31 C 0.21161 0.10514 -0.01359 0.0
O32 O 0.24373 0.11583 0.02674 0.0
O33 O 0.2622 0.00125 0.91415 0.0
C34 C 0.32539 0.06312 0.03257 0.0
O35 O 0.34345 0.08345 -0.01088 0.0
C36 C 0.12985 0.95488 0.02029 0.0
O37 O 0.1479 -0.00339 0.04825 0.0
O38 O 0.20228 0.06667 0.95851 0.0
C39 C 0.71533 0.61069 0.26271 0.0
O40 O 0.72663 0.63564 0.30653 0.0
O41 O 0.79064 0.53333 0.31694 0.0
Zn42 Zn 0.71868 0.53295 0.32334 0.0
O43 O 0.71301 0.56919 0.38699 0.0
C44 C 0.67783 0.42941 0.34342 0.0
O45 O 0.72563 0.44791 0.3655 0.0
O46 O 0.70816 0.56562 0.26117 0.0
C47 C 0.7052 0.54945 0.43002 0.0
O48 O 0.70295 0.50501 0.43413 0.0
C49 C 0.82363 0.53792 0.35289 0.0
O50 O 0.81556 0.55037 0.39868 0.0
O51 O 0.66305 0.45917 0.3226 0.0
C52 C 0.43113 0.02295 0.36687 0.0
O53 O 0.4448 0.00667 0.32587 0.0
O54 O 0.56008 0.10552 0.3244 0.0
Zn55 Zn 0.49145 0.11168 0.3178 0.0
O56 O 0.45141 0.08824 0.25003 0.0
C57 C 0.56034 0.21516 0.31501 0.0
O58 O 0.58763 0.19581 0.29166 0.0
O59 O 0.44501 0.06959 0.37232 0.0
C60 C 0.46761 0.11198 0.20963 0.0
O61 O 0.51437 0.15196 0.21038 0.0
C62 C 0.58629 0.09564 0.29133 0.0
O63 O 0.56513 0.08076 0.24535 0.0
O64 O 0.51391 0.18619 0.33005 0.0
C65 C 0.00514 0.34393 0.38892 0.0
O66 O 0.01645 0.36603 0.34536 0.0
O67 O 0.89457 0.36516 0.34393 0.0
Zn68 Zn 0.90534 0.30304 0.3387 0.0
O69 O 0.93677 0.29671 0.27332 0.0
C70 C 0.81512 0.20366 0.31541 0.0
O71 O 0.84669 0.19935 0.28194 0.0
O72 O 0.9574 0.31088 0.39554 0.0
C73 C 0.91645 0.29765 0.2302 0.0
O74 O 0.87404 0.30534 0.22749 0.0
C75 C 0.91395 0.40382 0.31726 0.0
O76 O 0.94406 0.40591 0.27928 0.0
O77 O 0.83277 0.24268 0.34472 0.0
C78 C 0.36224 0.89554 0.53761 0.0
O79 O 0.37128 0.85623 0.53742 0.0
O80 O 0.41518 0.86034 0.64179 0.0
Zn81 Zn 0.35224 0.87552 0.64286 0.0
O82 O 0.35477 0.91784 0.70394 0.0
C83 C 0.25774 0.77587 0.61784 0.0
O84 O 0.26472 0.78524 0.56956 0.0
O85 O 0.35055 0.9101 0.57888 0.0
C86 C 0.35122 0.89861 0.7469 0.0
O87 O 0.35116 0.85486 0.74939 0.0
C88 C 0.45761 0.8793 0.66992 0.0
O89 O 0.4648 0.91458 0.70408 0.0
O90 O 0.28781 0.80879 0.6509 0.0
C91 C 0.06828 0.40109 0.72232 0.0
O92 O 0.0478 0.38333 0.67669 0.0
O93 O 0.23165 0.49996 0.68327 0.0
Zn94 Zn 0.15332 0.47577 0.66686 0.0
O95 O 0.12679 0.42848 0.60615 0.0
C96 C 0.16083 0.57345 0.68268 0.0
O97 O 0.17309 0.56651 0.72916 0.0
O98 O 0.11187 0.44158 0.72725 0.0
C99 C 0.14265 0.44364 0.56236 0.0
O100 O 0.18035 0.48981 0.55779 0.0
C101 C 0.26316 0.4862 0.66215 0.0
O102 O 0.24432 0.45041 0.62656 0.0
O103 O 0.14662 0.53766 0.64986 0.0
C104 C 0.64163 0.63221 0.59926 0.0
O105 O 0.63065 0.60845 0.64191 0.0
O106 O 0.52019 0.61962 0.65532 0.0
Zn107 Zn 0.59154 0.68035 0.65156 0.0
O108 O 0.63385 0.69104 0.7171 0.0
C109 C 0.58333 0.77212 0.67409 0.0
O110 O 0.60833 0.77241 0.71684 0.0
O111 O 0.62958 0.66787 0.59374 0.0
C112 C 0.6844 0.71738 0.71946 0.0
O113 O 0.7093 0.73694 0.67801 0.0
C114 C 0.48876 0.61895 0.68933 0.0
O115 O 0.50544 0.65652 0.72293 0.0
O116 O 0.57502 0.73838 0.64002 0.0
C117 C 0.19143 0.17715 0.00574 0.0
C118 C 0.17997 0.1327 -0.02229 0.0
H119 H 0.16684 0.23344 0.02408 0.0
C120 C 0.13513 0.11241 0.94386 0.0
H121 H 0.22573 0.19376 0.03206 0.0
C122 C 0.10117 0.13466 0.93985 0.0
C123 C 0.11159 0.17817 0.96901 0.0
H124 H 0.12502 0.0782 0.92169 0.0
H125 H 0.06617 0.11724 0.9144 0.0
C126 C 0.15775 0.1999 0.00114 0.0
C127 C 0.79258 0.96881 0.02651 0.0
C128 C 0.78249 0.93974 -0.01861 0.0
H129 H 0.82632 0.04247 0.06117 0.0
C130 C 0.79293 0.96378 0.93495 0.0
H131 H 0.78453 0.95128 0.06281 0.0
C132 C 0.81771 0.01615 0.93397 0.0
C133 C 0.83164 0.04533 -0.02063 0.0
H134 H 0.7855 0.94241 0.89947 0.0
H135 H 0.82839 0.03375 0.89784 0.0
C136 C 0.8165 0.02111 0.02548 0.0
C137 C 0.98475 0.89118 0.05468 0.0
C138 C 0.96341 0.84836 0.02194 0.0
H139 H 0.054 0.95777 0.08045 0.0
C140 C 0.99829 0.83806 -0.00773 0.0
H141 H 0.959 0.8999 0.07842 0.0
C142 C 0.05303 0.87161 -0.00683 0.0
C143 C 0.07384 0.91574 0.02413 0.0
H144 H 0.98301 0.80532 0.96673 0.0
H145 H 0.07866 0.86381 0.96838 0.0
C146 C 0.03933 0.92433 0.05594 0.0
C147 C 0.89538 0.47356 0.28845 0.0
C148 C 0.89963 0.44471 0.32775 0.0
H149 H 0.8678 0.52628 0.26573 0.0
C150 C 0.88627 0.45272 0.37683 0.0
H151 H 0.90553 0.46819 0.25028 0.0
C152 C 0.86617 0.48689 0.38596 0.0
C153 C 0.85779 0.5128 0.3459 0.0
H154 H 0.88974 0.43134 0.40794 0.0
H155 H 0.85368 0.49025 0.4237 0.0
C156 C 0.87399 0.50689 0.29733 0.0
C157 C 0.56073 0.29919 0.32076 0.0
C158 C 0.58691 0.26936 0.32713 0.0
H159 H 0.5695 0.37437 0.31993 0.0
C160 C 0.64149 0.29217 0.34125 0.0
H161 H 0.51862 0.28217 0.30948 0.0
C162 C 0.67002 0.34395 0.34785 0.0
C163 C 0.64492 0.37442 0.33949 0.0
H164 H 0.66248 0.26986 0.34652 0.0
H165 H 0.71236 0.36011 0.35799 0.0
C166 C 0.58982 0.35168 0.32634 0.0
C167 C 0.67724 0.11072 0.26367 0.0
C168 C 0.64457 0.11415 0.3014 0.0
H169 H 0.75712 0.13586 0.23883 0.0
C170 C 0.66905 0.14172 0.34672 0.0
H171 H 0.65974 0.08967 0.22844 0.0
C172 C 0.72469 0.16867 0.35239 0.0
C173 C 0.75725 0.16811 0.31324 0.0
H174 H 0.64525 0.14501 0.37683 0.0
H175 H 0.74208 0.19165 0.38663 0.0
C176 C 0.73309 0.13724 0.26966 0.0
C177 C 0.48988 0.82303 0.62794 0.0
C178 C 0.49526 0.85737 0.66754 0.0
H179 H 0.51403 0.76982 0.59846 0.0
C180 C 0.53415 0.86743 0.7065 0.0
H181 H 0.46065 0.81477 0.59706 0.0
C182 C 0.56472 0.84142 0.70741 0.0
C183 C 0.55727 0.80512 0.66918 0.0
H184 H 0.53943 0.8938 0.73746 0.0
H185 H 0.59281 0.84852 0.73904 0.0
C186 C 0.52066 0.79734 0.62865 0.0
C187 C 0.1987 0.6841 0.59861 0.0
C188 C 0.22274 0.72448 0.63418 0.0
H189 H 0.15944 0.60432 0.58607 0.0
C190 C 0.21841 0.7145 0.68609 0.0
H191 H 0.20093 0.69047 0.55837 0.0
C192 C 0.19476 0.66519 0.70198 0.0
C193 C 0.17478 0.62474 0.66635 0.0
H194 H 0.23585 0.74475 0.7146 0.0
H195 H 0.19476 0.65887 0.74217 0.0
C196 C 0.17488 0.63467 0.61454 0.0
C197 C 0.34078 0.55196 0.71295 0.0
C198 C 0.32144 0.51514 0.67337 0.0
H199 H 0.40876 0.61316 0.7494 0.0
C200 C 0.35828 0.50937 0.64233 0.0
H201 H 0.3135 0.55712 0.73785 0.0
C202 C 0.41309 0.54174 0.64889 0.0
C203 C 0.43207 0.58031 0.68676 0.0
H204 H 0.34469 0.48126 0.61163 0.0
H205 H 0.44032 0.53761 0.62312 0.0
C206 C 0.39548 0.5841 0.71964 0.0
C207 C 0.05021 0.35952 0.85738 0.0
C208 C 0.01208 0.30887 0.85093 0.0
H209 H 0.0976 0.42853 0.82186 0.0
C210 C 0.98885 0.29014 0.80244 0.0
H211 H 0.06862 0.37525 0.89431 0.0
C212 C 0.00527 0.32088 0.76086 0.0
C213 C 0.04545 0.37081 0.76697 0.0
H214 H 0.95907 0.25138 0.79631 0.0
H215 H 0.98789 0.30489 0.7237 0.0
C216 C 0.06683 0.39013 0.81583 0.0
C217 C 0.79505 0.77998 0.82036 0.0
C218 C 0.76735 0.76176 0.86488 0.0
H219 H 0.79067 0.78004 0.73942 0.0
C220 C 0.71332 0.72557 0.86089 0.0
H221 H 0.83678 0.80771 0.82211 0.0
C222 C 0.68685 0.70985 0.8135 0.0
C223 C 0.71389 0.72986 0.76908 0.0
H224 H 0.69086 0.7106 0.89443 0.0
H225 H 0.64477 0.68307 0.81183 0.0
C226 C 0.7686 0.76414 0.77293 0.0
C227 C 0.32715 0.96143 0.78793 0.0
C228 C 0.33986 0.92141 0.79227 0.0
H229 H 0.2987 0.00848 0.82484 0.0
C230 C 0.33722 0.90053 0.83979 0.0
H231 H 0.32882 0.97838 0.75184 0.0
C232 C 0.3201 0.91784 0.8816 0.0
C233 C 0.30493 0.95622 0.87674 0.0
H234 H 0.34702 0.86983 0.84448 0.0
H235 H 0.31726 0.90004 0.91737 0.0
C236 C 0.30968 0.97856 0.82972 0.0
C237 C 0.45035 0.12275 0.11841 0.0
C238 C 0.43207 0.09751 0.16353 0.0
H239 H 0.43108 0.13171 0.0417 0.0
C240 C 0.37871 0.06009 0.16485 0.0
H241 H 0.49124 0.15176 0.11611 0.0
C242 C 0.34411 0.04889 0.12231 0.0
C243 C 0.3622 0.07462 0.07741 0.0
H244 H 0.3633 0.04 0.19904 0.0
H245 H 0.30309 0.02017 0.12475 0.0
C246 C 0.41583 0.11132 0.07576 0.0
C247 C 0.92954 0.26665 0.0934 0.0
C248 C 0.96601 0.24672 0.09802 0.0
H249 H 0.88527 0.29847 0.13162 0.0
C250 C 0.9891 0.24737 0.14589 0.0
H251 H 0.91115 0.26685 0.05696 0.0
C252 C 0.97453 0.26583 0.18858 0.0
C253 C 0.93624 0.28365 0.1843 0.0
H254 H 0.01757 0.2326 0.15062 0.0
H255 H 0.99208 0.2646 0.22515 0.0
C256 C 0.91464 0.28475 0.13617 0.0
C257 C 0.71457 0.61272 0.16794 0.0
C258 C 0.71756 0.63663 0.21517 0.0
H259 H 0.72229 0.62008 0.08784 0.0
C260 C 0.72665 0.68681 0.21666 0.0
H261 H 0.70742 0.57403 0.16542 0.0
C262 C 0.73501 0.71318 0.17211 0.0
C263 C 0.73469 0.69 0.12516 0.0
H264 H 0.72888 0.70625 0.25238 0.0
H265 H 0.74353 0.75225 0.17477 0.0
C266 C 0.72316 0.63916 0.12343 0.0
C267 C 0.06511 0.36813 0.52231 0.0
C268 C 0.11256 0.41286 0.51711 0.0
H269 H 0.99384 0.3109 0.48566 0.0
C270 C 0.12772 0.43055 0.46843 0.0
H271 H 0.05249 0.35324 0.5593 0.0
C272 C 0.09419 0.40611 0.42622 0.0
C273 C 0.04472 0.36366 0.43191 0.0
H274 H 0.16429 0.4646 0.46311 0.0
H275 H 0.1059 0.42207 0.38949 0.0
C276 C 0.03143 0.34382 0.48011 0.0
C277 C 0.68709 0.61715 0.46887 0.0
C278 C 0.69425 0.57402 0.47423 0.0
H279 H 0.66488 0.66957 0.50428 0.0
C280 C 0.68777 0.55263 0.52189 0.0
H281 H 0.69193 0.63459 0.43265 0.0
C282 C 0.67244 0.57268 0.56282 0.0
C283 C 0.66307 0.61449 0.55703 0.0
H284 H 0.69336 0.51962 0.52742 0.0
H285 H 0.66661 0.55448 0.59868 0.0
C286 C 0.67155 0.63716 0.50989 0.0
C287 C 0.38212 0.90795 0.44593 0.0
C288 C 0.37251 0.92595 0.4921 0.0
H289 H 0.40737 0.92418 0.37006 0.0
C290 C 0.37725 0.97472 0.49524 0.0
H291 H 0.3784 0.87042 0.44213 0.0
C292 C 0.39425 0.0058 0.45387 0.0
C293 C 0.40645 0.98855 0.4085 0.0
H294 H 0.37001 0.98967 0.53028 0.0
H295 H 0.39951 0.04383 0.45802 0.0
C296 C 0.3987 0.93882 0.40455 0.0
loop_
_geom_bond_atom_site_label_1
_geom_bond_atom_site_label_2
_geom_bond_distance
_geom_bond_site_symmetry_2
_ccdc_geom_bond_type
C0 O1 1.160 . S
C0 O7 1.185 . S
O1 C0 1.160 . S
O2 Zn3 1.899 1_556 S
O2 C10 1.276 1_556 S
Zn3 O2 1.899 1_554 S
Zn3 O4 2.032 . S
Zn3 O7 2.086 1_554 S
Zn3 O12 1.977 1_454 S
O4 Zn3 2.032 . S
O4 C8 1.278 1_455 S
C5 O6 1.203 . S
C5 O12 1.267 1_554 S
O6 C5 1.203 . S
O7 C0 1.185 . S
O7 Zn3 2.086 1_556 S
C8 O4 1.278 1_655 S
C8 O9 1.211 . S
O9 C8 1.211 . S
C10 O2 1.276 1_554 S
C10 O11 1.273 . S
O11 C10 1.273 . S
O12 Zn3 1.977 1_656 S
O12 C5 1.267 1_556 S
C13 O14 1.160 . S
C13 O20 1.185 . S
O14 C13 1.160 . S
O15 Zn16 1.899 . S
O15 C23 1.284 1_554 S
Zn16 O15 1.899 . S
Zn16 O17 2.032 1_554 S
Zn16 O20 2.086 . S
Zn16 O25 1.977 . S
O17 Zn16 2.032 1_556 S
O17 C21 1.278 . S
C18 O19 1.203 1_554 S
C18 O25 1.267 . S
O19 C18 1.203 1_556 S
O20 C13 1.185 . S
O20 Zn16 2.086 . S
C21 O17 1.278 . S
C21 O22 1.211 . S
O22 C21 1.211 . S
C23 O15 1.284 1_556 S
C23 O24 1.273 . S
O24 C23 1.273 . S
O25 Zn16 1.977 . S
O25 C18 1.267 . S
C26 O27 1.160 . S
C26 O33 1.185 1_565 S
O27 C26 1.160 . S
O28 Zn29 1.899 1_565 S
O28 C36 1.284 1_556 S
Zn29 O28 1.899 1_545 S
Zn29 O30 2.032 1_556 S
Zn29 O33 2.086 . S
Zn29 O38 1.977 . S
O30 Zn29 2.032 1_554 S
O30 C34 1.278 . S
C31 O32 1.203 . S
C31 O38 1.267 1_554 S
O32 C31 1.203 . S
O33 C26 1.185 1_545 S
O33 Zn29 2.086 . S
C34 O30 1.278 . S
C34 O35 1.211 . S
O35 C34 1.211 . S
C36 O28 1.284 1_554 S
C36 O37 1.273 . S
O37 C36 1.273 . S
O38 Zn29 1.977 . S
O38 C31 1.267 1_556 S
C39 O40 1.160 . S
C39 O46 1.185 . S
O40 C39 1.160 . S
O41 Zn42 1.899 . S
O41 C49 1.284 . S
Zn42 O41 1.899 . S
Zn42 O43 2.032 . S
Zn42 O46 2.086 . S
Zn42 O51 1.977 . S
O43 Zn42 2.032 . S
O43 C47 1.278 . S
C44 O45 1.203 . S
C44 O51 1.267 . S
O45 C44 1.203 . S
O46 C39 1.185 . S
O46 Zn42 2.086 . S
C47 O43 1.278 . S
C47 O48 1.211 . S
O48 C47 1.211 . S
C49 O41 1.284 . S
C49 O50 1.273 . S
O50 C49 1.273 . S
O51 Zn42 1.977 . S
O51 C44 1.267 . S
C52 O53 1.160 . S
C52 O59 1.185 . S
O53 C52 1.160 . S
O54 Zn55 1.899 . S
O54 C62 1.284 . S
Zn55 O54 1.899 . S
Zn55 O56 2.032 . S
Zn55 O59 2.086 . S
Zn55 O64 1.977 . S
O56 Zn55 2.032 . S
O56 C60 1.278 . S
C57 O58 1.203 . S
C57 O64 1.267 . S
O58 C57 1.203 . S
O59 C52 1.185 . S
O59 Zn55 2.086 . S
C60 O56 1.278 . S
C60 O61 1.211 . S
O61 C60 1.211 . S
C62 O54 1.284 . S
C62 O63 1.273 . S
O63 C62 1.273 . S
O64 Zn55 1.977 . S
O64 C57 1.267 . S
C65 O66 1.160 . S
C65 O72 1.185 . S
O66 C65 1.160 . S
O67 Zn68 1.899 . S
O67 C75 1.284 . S
Zn68 O67 1.899 . S
Zn68 O69 2.032 . S
Zn68 O72 2.086 . S
Zn68 O77 1.977 . S
O69 Zn68 2.032 . S
O69 C73 1.278 . S
C70 O71 1.203 . S
C70 O77 1.267 . S
O71 C70 1.203 . S
O72 C65 1.185 . S
O72 Zn68 2.086 . S
C73 O69 1.278 . S
C73 O74 1.211 . S
O74 C73 1.211 . S
C75 O67 1.284 . S
C75 O76 1.273 . S
O76 C75 1.273 . S
O77 Zn68 1.977 . S
O77 C70 1.267 . S
C78 O79 1.160 . S
C78 O85 1.185 . S
O79 C78 1.160 . S
O80 Zn81 1.899 . S
O80 C88 1.284 . S
Zn81 O80 1.899 . S
Zn81 O82 2.032 . S
Zn81 O85 2.086 . S
Zn81 O90 1.977 . S
O82 Zn81 2.032 . S
O82 C86 1.278 . S
C83 O84 1.203 . S
C83 O90 1.267 . S
O84 C83 1.203 . S
O85 C78 1.185 . S
O85 Zn81 2.086 . S
C86 O82 1.278 . S
C86 O87 1.211 . S
O87 C86 1.211 . S
C88 O80 1.284 . S
C88 O89 1.273 . S
O89 C88 1.273 . S
O90 Zn81 1.977 . S
O90 C83 1.267 . S
C91 O92 1.160 . S
C91 O98 1.185 . S
O92 C91 1.160 . S
O93 Zn94 1.899 . S
O93 C101 1.284 . S
Zn94 O93 1.899 . S
Zn94 O95 2.032 . S
Zn94 O98 2.086 . S
Zn94 O103 1.977 . S
O95 Zn94 2.032 . S
O95 C99 1.278 . S
C96 O97 1.203 . S
C96 O103 1.267 . S
O97 C96 1.203 . S
O98 C91 1.185 . S
O98 Zn94 2.086 . S
C99 O95 1.278 . S
C99 O100 1.211 . S
O100 C99 1.211 . S
C101 O93 1.284 . S
C101 O102 1.273 . S
O102 C101 1.273 . S
O103 Zn94 1.977 . S
O103 C96 1.267 . S
C104 O105 1.160 . S
C104 O111 1.185 . S
O105 C104 1.160 . S
O106 Zn107 1.899 . S
O106 C114 1.284 . S
Zn107 O106 1.899 . S
Zn107 O108 2.032 . S
Zn107 O111 2.086 . S
Zn107 O116 1.977 . S
O108 Zn107 2.032 . S
O108 C112 1.278 . S
C109 O110 1.203 . S
C109 O116 1.267 . S
O110 C109 1.203 . S
O111 C104 1.185 . S
O111 Zn107 2.086 . S
C112 O108 1.278 . S
C112 O113 1.211 . S
O113 C112 1.211 . S
C114 O106 1.284 . S
C114 O115 1.273 . S
O115 C114 1.273 . S
O116 Zn107 1.977 . S
O116 C109 1.267 . S
C117 C118 1.387 . S
C117 H121 0.950 . S
C117 C126 1.390 . S
C118 C117 1.387 . S
C118 C120 1.387 1_554 S
H119 C126 0.950 . S
C120 C118 1.387 1_556 S
C120 C122 1.390 . S
C120 H124 0.950 . S
H121 C117 0.950 . S
C122 C120 1.390 . S
C122 C123 1.387 1_556 S
C122 H125 0.950 . S
C123 C122 1.387 1_554 S
C123 C126 1.387 . S
H124 C120 0.950 . S
H125 C122 0.950 . S
C126 C117 1.390 . S
C126 H119 0.950 . S
C126 C123 1.387 . S
C127 C128 1.387 . S
C127 H131 0.950 . S
C127 C136 1.390 1_565 S
C128 C127 1.387 . S
C128 C130 1.387 . S
H129 C136 0.950 . S
C130 C128 1.387 . S
C130 C132 1.390 1_564 S
C130 H134 0.950 . S
H131 C127 0.950 . S
C132 C130 1.390 1_546 S
C132 C133 1.387 1_556 S
C132 H135 0.950 . S
C133 C132 1.387 1_554 S
C133 C136 1.387 . S
H134 C130 0.950 . S
H135 C132 0.950 . S
C136 C127 1.390 1_545 S
C136 H129 0.950 . S
C136 C133 1.387 . S
C137 C138 1.387 1_554 S
C137 H141 0.950 . S
C137 C146 1.390 1_655 S
C138 C137 1.387 1_556 S
C138 C140 1.387 1_655 S
H139 C146 0.950 . S
C140 C138 1.387 1_455 S
C140 C142 1.390 . S
C140 H144 0.950 1_455 S
H141 C137 0.950 . S
C142 C140 1.390 . S
C142 C143 1.387 1_556 S
C142 H145 0.950 . S
C143 C142 1.387 1_554 S
C143 C146 1.387 . S
H144 C140 0.950 1_655 S
H145 C142 0.950 . S
C146 C137 1.390 1_455 S
C146 H139 0.950 . S
C146 C143 1.387 . S
C147 C148 1.387 . S
C147 H151 0.950 . S
C147 C156 1.390 . S
C148 C147 1.387 . S
C148 C150 1.387 . S
H149 C156 0.950 . S
C150 C148 1.387 . S
C150 C152 1.390 . S
C150 H154 0.950 . S
H151 C147 0.950 . S
C152 C150 1.390 . S
C152 C153 1.387 . S
C152 H155 0.950 . S
C153 C152 1.387 . S
C153 C156 1.387 . S
H154 C150 0.950 . S
H155 C152 0.950 . S
C156 C147 1.390 . S
C156 H149 0.950 . S
C156 C153 1.387 . S
C157 C158 1.387 . S
C157 H161 0.950 . S
C157 C166 1.390 . S
C158 C157 1.387 . S
C158 C160 1.387 . S
H159 C166 0.950 . S
C160 C158 1.387 . S
C160 C162 1.390 . S
C160 H164 0.950 . S
H161 C157 0.950 . S
C162 C160 1.390 . S
C162 C163 1.387 . S
C162 H165 0.950 . S
C163 C162 1.387 . S
C163 C166 1.387 . S
H164 C160 0.950 . S
H165 C162 0.950 . S
C166 C157 1.390 . S
C166 H159 0.950 . S
C166 C163 1.387 . S
C167 C168 1.387 . S
C167 H171 0.950 . S
C167 C176 1.390 . S
C168 C167 1.387 . S
C168 C170 1.387 . S
H169 C176 0.950 . S
C170 C168 1.387 . S
C170 C172 1.390 . S
C170 H174 0.950 . S
H171 C167 0.950 . S
C172 C170 1.390 . S
C172 C173 1.387 . S
C172 H175 0.950 . S
C173 C172 1.387 . S
C173 C176 1.387 . S
H174 C170 0.950 . S
H175 C172 0.950 . S
C176 C167 1.390 . S
C176 H169 0.950 . S
C176 C173 1.387 . S
C177 C178 1.387 . S
C177 H181 0.950 . S
C177 C186 1.390 . S
C178 C177 1.387 . S
C178 C180 1.387 . S
H179 C186 0.950 . S
C180 C178 1.387 . S
C180 C182 1.390 . S
C180 H184 0.950 . S
H181 C177 0.950 . S
C182 C180 1.390 . S
C182 C183 1.387 . S
C182 H185 0.950 . S
C183 C182 1.387 . S
C183 C186 1.387 . S
H184 C180 0.950 . S
H185 C182 0.950 . S
C186 C177 1.390 . S
C186 H179 0.950 . S
C186 C183 1.387 . S
C187 C188 1.387 . S
C187 H191 0.950 . S
C187 C196 1.390 . S
C188 C187 1.387 . S
C188 C190 1.387 . S
H189 C196 0.950 . S
C190 C188 1.387 . S
C190 C192 1.390 . S
C190 H194 0.950 . S
H191 C187 0.950 . S
C192 C190 1.390 . S
C192 C193 1.387 . S
C192 H195 0.950 . S
C193 C192 1.387 . S
C193 C196 1.387 . S
H194 C190 0.950 . S
H195 C192 0.950 . S
C196 C187 1.390 . S
C196 H189 0.950 . S
C196 C193 1.387 . S
C197 C198 1.387 . S
C197 H201 0.950 . S
C197 C206 1.390 . S
C198 C197 1.387 . S
C198 C200 1.387 . S
H199 C206 0.950 . S
C200 C198 1.387 . S
C200 C202 1.390 . S
C200 H204 0.950 . S
H201 C197 0.950 . S
C202 C200 1.390 . S
C202 C203 1.387 . S
C202 H205 0.950 . S
C203 C202 1.387 . S
C203 C206 1.387 . S
H204 C200 0.950 . S
H205 C202 0.950 . S
C206 C197 1.390 . S
C206 H199 0.950 . S
C206 C203 1.387 . S
C207 C208 1.387 . S
C207 H211 0.950 . S
C207 C216 1.390 . S
C208 C207 1.387 . S
C208 C210 1.387 . S
H209 C216 0.950 . S
C210 C208 1.387 . S
C210 C212 1.390 . S
C210 H214 0.950 . S
H211 C207 0.950 . S
C212 C210 1.390 . S
C212 C213 1.387 . S
C212 H215 0.950 . S
C213 C212 1.387 . S
C213 C216 1.387 . S
H214 C210 0.950 . S
H215 C212 0.950 . S
C216 C207 1.390 . S
C216 H209 0.950 . S
C216 C213 1.387 . S
C217 C218 1.387 . S
C217 H221 0.950 . S
C217 C226 1.390 . S
C218 C217 1.387 . S
C218 C220 1.387 . S
H219 C226 0.950 . S
C220 C218 1.387 . S
C220 C222 1.390 . S
C220 H224 0.950 . S
H221 C217 0.950 . S
C222 C220 1.390 . S
C222 C223 1.387 . S
C222 H225 0.950 . S
C223 C222 1.387 . S
C223 C226 1.387 . S
H224 C220 0.950 . S
H225 C222 0.950 . S
C226 C217 1.390 . S
C226 H219 0.950 . S
C226 C223 1.387 . S
C227 C228 1.387 . S
C227 H231 0.950 . S
C227 C236 1.390 . S
C228 C227 1.387 . S
C228 C230 1.387 . S
H229 C236 0.950 1_545 S
C230 C228 1.387 . S
C230 C232 1.390 . S
C230 H234 0.950 . S
H231 C227 0.950 . S
C232 C230 1.390 . S
C232 C233 1.387 . S
C232 H235 0.950 . S
C233 C232 1.387 . S
C233 C236 1.387 . S
H234 C230 0.950 . S
H235 C232 0.950 . S
C236 C227 1.390 . S
C236 H229 0.950 1_565 S
C236 C233 1.387 . S
C237 C238 1.387 . S
C237 H241 0.950 . S
C237 C246 1.390 . S
C238 C237 1.387 . S
C238 C240 1.387 . S
H239 C246 0.950 . S
C240 C238 1.387 . S
C240 C242 1.390 . S
C240 H244 0.950 . S
H241 C237 0.950 . S
C242 C240 1.390 . S
C242 C243 1.387 . S
C242 H245 0.950 1_545 S
C243 C242 1.387 . S
C243 C246 1.387 . S
H244 C240 0.950 . S
H245 C242 0.950 1_565 S
C246 C237 1.390 . S
C246 H239 0.950 . S
C246 C243 1.387 . S
C247 C248 1.387 1_455 S
C247 H251 0.950 . S
C247 C256 1.390 1_455 S
C248 C247 1.387 1_655 S
C248 C250 1.387 . S
H249 C256 0.950 1_455 S
C250 C248 1.387 . S
C250 C252 1.390 . S
C250 H254 0.950 . S
H251 C247 0.950 . S
C252 C250 1.390 . S
C252 C253 1.387 . S
C252 H255 0.950 . S
C253 C252 1.387 . S
C253 C256 1.387 . S
H254 C250 0.950 . S
H255 C252 0.950 . S
C256 C247 1.390 1_655 S
C256 H249 0.950 1_655 S
C256 C253 1.387 . S
C257 C258 1.387 . S
C257 H261 0.950 . S
C257 C266 1.390 . S
C258 C257 1.387 . S
C258 C260 1.387 . S
H259 C266 0.950 . S
C260 C258 1.387 . S
C260 C262 1.390 . S
C260 H264 0.950 . S
H261 C257 0.950 . S
C262 C260 1.390 . S
C262 C263 1.387 . S
C262 H265 0.950 . S
C263 C262 1.387 . S
C263 C266 1.387 . S
H264 C260 0.950 . S
H265 C262 0.950 . S
C266 C257 1.390 . S
C266 H259 0.950 . S
C266 C263 1.387 . S
C267 C268 1.387 . S
C267 H271 0.950 . S
C267 C276 1.390 . S
C268 C267 1.387 . S
C268 C270 1.387 . S
H269 C276 0.950 1_655 S
C270 C268 1.387 . S
C270 C272 1.390 . S
C270 H274 0.950 . S
H271 C267 0.950 . S
C272 C270 1.390 . S
C272 C273 1.387 . S
C272 H275 0.950 . S
C273 C272 1.387 . S
C273 C276 1.387 . S
H274 C270 0.950 . S
H275 C272 0.950 . S
C276 C267 1.390 . S
C276 H269 0.950 1_455 S
C276 C273 1.387 . S
C277 C278 1.387 . S
C277 H281 0.950 . S
C277 C286 1.390 . S
C278 C277 1.387 . S
C278 C280 1.387 . S
H279 C286 0.950 . S
C280 C278 1.387 . S
C280 C282 1.390 . S
C280 H284 0.950 . S
H281 C277 0.950 . S
C282 C280 1.390 . S
C282 C283 1.387 . S
C282 H285 0.950 . S
C283 C282 1.387 . S
C283 C286 1.387 . S
H284 C280 0.950 . S
H285 C282 0.950 . S
C286 C277 1.390 . S
C286 H279 0.950 . S
C286 C283 1.387 . S
C287 C288 1.387 . S
C287 H291 0.950 . S
C287 C296 1.390 1_565 S
C288 C287 1.387 . S
C288 C290 1.387 . S
H289 C296 0.950 . S
C290 C288 1.387 . S
C290 C292 1.390 1_565 S
C290 H294 0.950 . S
H291 C287 0.950 . S
C292 C290 1.390 1_545 S
C292 C293 1.387 . S
C292 H295 0.950 . S
C293 C292 1.387 . S
C293 C296 1.387 . S
H294 C290 0.950 . S
H295 C292 0.950 . S
C296 C287 1.390 1_545 S
C296 H289 0.950 . S
C296 C293 1.387 . S
C118 C31 1.149 . S
C123 C10 1.248 . S
C128 C18 1.154 . S
C133 C5 1.144 . S
C138 C23 1.260 . S
C143 C36 1.262 . S
C148 C75 1.253 . S
C153 C49 1.246 . S
C158 C57 1.108 . S
C163 C44 1.125 . S
C168 C62 1.247 . S
C173 C70 1.147 . S
C178 C88 1.230 . S
C183 C109 1.144 . S
C188 C83 1.086 . S
C193 C96 1.090 . S
C198 C101 1.242 . S
C203 C114 1.247 . S
C208 C0 1.344 . S
C213 C91 1.363 . S
C218 C21 1.353 . S
C223 C112 1.349 . S
C228 C86 1.307 . S
C233 C26 1.312 . S
C238 C60 1.305 . S
C243 C34 1.315 . S
C248 C8 1.336 . S
C253 C73 1.345 . S
C258 C39 1.350 . S
C263 C13 1.339 . S
C268 C99 1.328 . S
C273 C65 1.321 1_455 S
C278 C47 1.356 . S
C283 C104 1.350 . S
C288 C78 1.366 . S
C293 C52 1.352 . S
