# Generated by pormake.
# Topology unf, (4)-cn, num edge types: 1
# Building blocks:
#     Node 0, Type 0, BuildingBlock: UXUYUI_clean_sbu_0, # of connection points: 4
#     Node 1, Type 0, BuildingBlock: UXUYUI_clean_sbu_0, # of connection points: 4
#     Node 2, Type 0, BuildingBlock: UXUYUI_clean_sbu_0, # of connection points: 4
#     Node 3, Type 0, BuildingBlock: UXUYUI_clean_sbu_0, # of connection points: 4
#     Node 4, Type 0, BuildingBlock: UXUYUI_clean_sbu_0, # of connection points: 4
#     Node 5, Type 0, BuildingBlock: UXUYUI_clean_sbu_0, # of connection points: 4
#     Node 6, Type 0, BuildingBlock: UXUYUI_clean_sbu_0, # of connection points: 4
#     Node 7, Type 0, BuildingBlock: UXUYUI_clean_sbu_0, # of connection points: 4
#     Node 8, Type 0, BuildingBlock: UXUYUI_clean_sbu_0, # of connection points: 4
#     Node 9, Type 0, BuildingBlock: UXUYUI_clean_sbu_0, # of connection points: 4
#     Node 10, Type 0, BuildingBlock: UXUYUI_clean_sbu_0, # of connection points: 4
#     Node 11, Type 0, BuildingBlock: UXUYUI_clean_sbu_0, # of connection points: 4
#     Edge 12, Type (0, 0), None
#     Edge 13, Type (0, 0), None
#     Edge 14, Type (0, 0), None
#     Edge 15, Type (0, 0), None
#     Edge 16, Type (0, 0), None
#     Edge 17, Type (0, 0), None
#     Edge 18, Type (0, 0), None
#     Edge 19, Type (0, 0), None
#     Edge 20, Type (0, 0), None
#     Edge 21, Type (0, 0), None
#     Edge 22, Type (0, 0), None
#     Edge 23, Type (0, 0), None
#     Edge 24, Type (0, 0), None
#     Edge 25, Type (0, 0), None
#     Edge 26, Type (0, 0), None
#     Edge 27, Type (0, 0), None
#     Edge 28, Type (0, 0), None
#     Edge 29, Type (0, 0), None
#     Edge 30, Type (0, 0), None
#     Edge 31, Type (0, 0), None
#     Edge 32, Type (0, 0), None
#     Edge 33, Type (0, 0), None
#     Edge 34, Type (0, 0), None
#     Edge 35, Type (0, 0), None
# Relax obj value: 0.347
# Max RMSD: 0.227
# Mean RMSD: 0.226
data_MOF--net-unf--node1-UXUYUI_clean_sbu_0--edge1-none
_symmetry_space_group_name_H-M    P1
_symmetry_Int_Tables_number       1
_symmetry_cell_setting            triclinic
loop_
_symmetry_equiv_pos_as_xyz
'x, y, z'
_cell_length_a     34.868196
_cell_length_b     34.846572
_cell_length_c     33.340192
_cell_angle_alpha  90.069168
_cell_angle_beta   89.861221
_cell_angle_gamma 120.0212
loop_
_atom_site_label
_atom_site_type_symbol
_atom_site_fract_x
_atom_site_fract_y
_atom_site_fract_z
_atom_type_partial_charge
Li0 Li 0.06468 0.40553 0.07275 0.0
Li1 Li 0.10132 0.38442 0.12118 0.0
Li2 Li 0.10345 0.36807 0.04901 0.0
Li3 Li 0.03313 0.32821 0.08936 0.0
C4 C 0.15167 0.46964 0.09044 0.0
N5 N 0.19663 0.55474 0.12096 0.0
C6 C 0.1323 0.48264 0.1203 0.0
C7 C 0.19386 0.49994 0.07606 0.0
C8 C 0.15558 0.52579 0.13536 0.0
C9 C 0.21606 0.54282 0.09188 0.0
C10 C 0.02514 0.36877 0.16362 0.0
C11 C 0.0011 0.32212 0.22232 0.0
N12 N 0.99552 0.35317 0.24207 0.0
C13 C 0.0188 0.40007 0.18434 0.0
C14 C 0.01592 0.32935 0.18261 0.0
C15 C 0.00394 0.39162 0.22404 0.0
C16 C 0.00414 0.43523 0.06607 0.0
N17 N 0.04567 0.44501 0.05532 0.0
C18 C 0.05094 0.49913 0.00843 0.0
C19 C 0.06957 0.47678 0.02769 0.0
C20 C 0.00727 0.48842 0.0176 0.0
C21 C 0.98418 0.45666 0.04751 0.0
H22 H 0.9856 0.40896 0.08744 0.0
H23 H 0.10221 0.48317 0.0192 0.0
C24 C 0.1708 0.38777 0.1633 0.0
N25 N 0.13803 0.39782 0.16748 0.0
C26 C 0.19789 0.39194 0.19568 0.0
C27 C 0.15846 0.41884 0.23583 0.0
C28 C 0.13206 0.41413 0.20255 0.0
C29 C 0.19142 0.40688 0.23286 0.0
H30 H 0.17496 0.3751 0.13497 0.0
H31 H 0.10645 0.4228 0.205 0.0
C32 C 0.02299 0.36274 0.00521 0.0
N33 N 0.98115 0.38223 0.94501 0.0
C34 C 0.97753 0.34725 0.0076 0.0
C35 C 0.04711 0.38771 0.97206 0.0
C36 C 0.957 0.35754 0.97687 0.0
C37 C 0.02536 0.39735 0.94198 0.0
C38 C 0.08522 0.289 0.10819 0.0
C39 C 0.0831 0.25845 0.07981 0.0
C40 C 0.08373 0.27929 0.14904 0.0
C41 C 0.07847 0.21822 0.09275 0.0
C42 C 0.07914 0.23873 0.16078 0.0
N43 N 0.07656 0.20926 0.13263 0.0
C44 C 0.18132 0.38605 0.00976 0.0
C45 C 0.11604 0.32626 0.98215 0.0
C46 C 0.2076 0.37703 0.98433 0.0
N47 N 0.13658 0.36018 0.00871 0.0
C48 C 0.14109 0.31573 0.95639 0.0
C49 C 0.18752 0.34075 0.95794 0.0
H50 H 0.19658 0.41237 0.03167 0.0
H51 H 0.08029 0.30612 0.98236 0.0
C52 C 0.94175 0.27068 0.10632 0.0
N53 N 0.97864 0.27445 0.08858 0.0
C54 C 0.89983 0.23697 0.0946 0.0
C55 C 0.93498 0.21101 0.04786 0.0
C56 C 0.97606 0.24498 0.06056 0.0
C57 C 0.89606 0.20766 0.06381 0.0
H58 H 0.94456 0.29578 0.12709 0.0
H59 H 0.00572 0.25029 0.04537 0.0
O60 O 0.12968 0.42755 0.0752 0.0
O61 O 0.04026 0.37694 0.12494 0.0
O62 O 0.04391 0.35397 0.03542 0.0
O63 O 0.09033 0.32882 0.09601 0.0
H64 H 0.09969 0.4598 0.13174 0.0
H65 H 0.20928 0.49041 0.0529 0.0
H66 H 0.14099 0.53627 0.1585 0.0
H67 H 0.24875 0.56661 0.08103 0.0
H68 H 0.9939 0.29175 0.2374 0.0
H69 H 0.02557 0.43068 0.16996 0.0
H70 H 0.01964 0.30441 0.16669 0.0
H71 H 0.99912 0.41565 0.24053 0.0
H72 H 0.07024 0.52392 0.98607 0.0
H73 H 0.95036 0.447 0.05525 0.0
H74 H 0.22242 0.38182 0.19199 0.0
H75 H 0.15278 0.43121 0.26371 0.0
H76 H 0.95842 0.32793 0.03311 0.0
H77 H 0.08235 0.39997 0.96986 0.0
H78 H 0.92189 0.34603 0.97842 0.0
H79 H 0.04366 0.41697 0.91629 0.0
H80 H 0.08485 0.26562 0.04811 0.0
H81 H 0.08643 0.3029 0.17152 0.0
H82 H 0.07649 0.19417 0.07107 0.0
H83 H 0.07781 0.23077 0.19229 0.0
H84 H 0.2433 0.39659 0.98707 0.0
H85 H 0.12446 0.28751 0.9365 0.0
H86 H 0.87073 0.23554 0.10779 0.0
H87 H 0.93393 0.19009 0.02335 0.0
Li88 Li 0.61084 0.70885 0.12367 0.0
Li89 Li 0.59171 0.65316 0.07324 0.0
Li90 Li 0.66862 0.69916 0.09206 0.0
Li91 Li 0.62945 0.73086 0.05235 0.0
C92 C 0.62764 0.64795 0.16432 0.0
N93 N 0.64449 0.63286 0.24192 0.0
C94 C 0.59586 0.61107 0.18556 0.0
C95 C 0.6682 0.67677 0.18234 0.0
C96 C 0.60494 0.60412 0.22482 0.0
C97 C 0.67603 0.66869 0.22164 0.0
C98 C 0.52663 0.67439 0.09105 0.0
C99 C 0.45278 0.66382 0.09119 0.0
N100 N 0.4406 0.63167 0.1195 0.0
C101 C 0.51336 0.64121 0.1201 0.0
C102 C 0.49613 0.68579 0.07642 0.0
C103 C 0.46974 0.62003 0.13412 0.0
C104 C 0.60391 0.77295 0.16562 0.0
N105 N 0.59568 0.73074 0.17016 0.0
C106 C 0.57487 0.73029 0.23865 0.0
C107 C 0.58042 0.70879 0.2055 0.0
C108 C 0.58513 0.77475 0.23533 0.0
C109 C 0.59904 0.79571 0.19787 0.0
H110 H 0.61586 0.78955 0.1371 0.0
H111 H 0.57333 0.675 0.2083 0.0
C112 C 0.55155 0.55972 0.06925 0.0
N113 N 0.55281 0.59582 0.05242 0.0
C114 C 0.52999 0.51879 0.04963 0.0
C115 C 0.51131 0.55313 0.99599 0.0
C116 C 0.53253 0.59312 0.01697 0.0
C117 C 0.51023 0.51522 0.01199 0.0
H118 H 0.56873 0.5631 0.09714 0.0
H119 H 0.53499 0.6227 0.00395 0.0
C120 C 0.70439 0.7898 0.11639 0.0
N121 N 0.77901 0.86119 0.14863 0.0
C122 C 0.7354 0.82311 0.09139 0.0
C123 C 0.71101 0.79324 0.1579 0.0
C124 C 0.77302 0.85879 0.10822 0.0
C125 C 0.74902 0.82947 0.17359 0.0
C126 C 0.64093 0.65807 0.00755 0.0
C127 C 0.64959 0.6237 0.01518 0.0
C128 C 0.62841 0.6633 0.96907 0.0
C129 C 0.64523 0.59483 0.98414 0.0
C130 C 0.62446 0.63376 0.93882 0.0
N131 N 0.63285 0.60041 0.94693 0.0
C132 C 0.7273 0.66539 0.10245 0.0
C133 C 0.75304 0.73146 0.06462 0.0
C134 C 0.76098 0.65907 0.08673 0.0
N135 N 0.72329 0.7004 0.09007 0.0
C136 C 0.78699 0.72644 0.04823 0.0
C137 C 0.78981 0.68872 0.05771 0.0
H138 H 0.70194 0.64007 0.1212 0.0
H139 H 0.74774 0.75764 0.05383 0.0
C140 C 0.61056 0.78949 0.01132 0.0
N141 N 0.63859 0.77314 0.01306 0.0
C142 C 0.62005 0.82508 0.98612 0.0
C143 C 0.68642 0.82534 0.96424 0.0
C144 C 0.67538 0.78943 0.98961 0.0
C145 C 0.659 0.84413 0.96293 0.0
H146 H 0.58186 0.77609 0.03077 0.0
H147 H 0.6971 0.7757 0.99196 0.0
O148 O 0.61901 0.65524 0.12594 0.0
O149 O 0.5692 0.69579 0.07689 0.0
O150 O 0.66701 0.75497 0.10036 0.0
O151 O 0.6441 0.68614 0.03769 0.0
H152 H 0.56438 0.58823 0.17195 0.0
H153 H 0.69352 0.70483 0.16605 0.0
H154 H 0.58054 0.57587 0.2417 0.0
H155 H 0.70726 0.69083 0.23598 0.0
H156 H 0.42883 0.67232 0.08015 0.0
H157 H 0.53637 0.63185 0.13174 0.0
H158 H 0.50586 0.71137 0.05389 0.0
H159 H 0.45905 0.59433 0.15662 0.0
H160 H 0.56332 0.71248 0.26671 0.0
H161 H 0.60798 0.83001 0.1938 0.0
H162 H 0.52929 0.49047 0.06367 0.0
H163 H 0.49734 0.5525 0.96689 0.0
H164 H 0.73057 0.82139 0.05928 0.0
H165 H 0.68695 0.76848 0.17791 0.0
H166 H 0.7974 0.88463 0.08916 0.0
H167 H 0.75456 0.83245 0.20564 0.0
H168 H 0.65881 0.61889 0.0449 0.0
H169 H 0.62144 0.68968 0.96276 0.0
H170 H 0.65151 0.56789 0.98968 0.0
H171 H 0.6146 0.63727 0.90893 0.0
H172 H 0.76181 0.62927 0.09427 0.0
H173 H 0.80869 0.74997 0.02596 0.0
H174 H 0.59849 0.83912 0.98655 0.0
H175 H 0.71671 0.83914 0.94682 0.0
Li176 Li 0.28435 0.89408 0.12047 0.0
Li177 Li 0.34141 0.93379 0.0713 0.0
Li178 Li 0.2949 0.96311 0.09183 0.0
Li179 Li 0.26461 0.89467 0.04898 0.0
C180 C 0.34219 0.96974 0.16439 0.0
N181 N 0.35062 0.997 0.24332 0.0
C182 C 0.37979 0.97843 0.18635 0.0
C183 C 0.30902 0.97512 0.18249 0.0
C184 C 0.38341 0.99213 0.22625 0.0
C185 C 0.31385 0.98888 0.22243 0.0
C186 C 0.3202 0.84666 0.08551 0.0
C187 C 0.33102 0.78355 0.08261 0.0
N188 N 0.36232 0.80203 0.11175 0.0
C189 C 0.35254 0.86506 0.11539 0.0
C190 C 0.30936 0.80561 0.06894 0.0
C191 C 0.37342 0.84197 0.12827 0.0
C192 C 0.21882 0.82213 0.16099 0.0
N193 N 0.26139 0.85529 0.16566 0.0
C194 C 0.26136 0.83361 0.23369 0.0
C195 C 0.2833 0.86082 0.20078 0.0
C196 C 0.21649 0.80046 0.23037 0.0
C197 C 0.19561 0.79438 0.19304 0.0
H198 H 0.20226 0.81841 0.13265 0.0
H199 H 0.31736 0.88691 0.20364 0.0
C200 C 0.43542 0.98623 0.06821 0.0
N201 N 0.39888 0.95279 0.05051 0.0
C202 C 0.47627 0.00578 0.04836 0.0
C203 C 0.44089 0.95581 0.99276 0.0
C204 C 0.40101 0.93683 0.01391 0.0
C205 C 0.47928 0.9912 0.00967 0.0
H206 H 0.43248 0.99882 0.09703 0.0
H207 H 0.37109 0.91091 1.00024 0.0
C208 C 0.20199 0.90653 0.10939 0.0
N209 N 0.12596 0.90672 0.13281 0.0
C210 C 0.17371 0.90812 0.08064 0.0
C211 C 0.19119 0.90434 0.15007 0.0
C212 C 0.13557 0.90841 0.09307 0.0
C213 C 0.15272 0.90466 0.1613 0.0
C214 C 0.33927 0.98455 0.00991 0.0
C215 C 0.37263 0.02614 0.02286 0.0
C216 C 0.33694 0.97299 0.96948 0.0
C217 C 0.40328 0.05551 0.99507 0.0
C218 C 0.36822 0.00331 0.94261 0.0
N219 N 0.40046 0.04358 0.95585 0.0
C220 C 0.32668 0.05366 0.11207 0.0
C221 C 0.26569 0.01938 0.06756 0.0
C222 C 0.33373 0.09555 0.1017 0.0
N223 N 0.29385 0.01685 0.09404 0.0
C224 C 0.27147 0.06042 0.05639 0.0
C225 C 0.3071 0.09933 0.07216 0.0
H226 H 0.34991 0.05101 0.13164 0.0
H227 H 0.24145 0.98988 0.05216 0.0
C228 C 0.20545 0.81744 0.00942 0.0
N229 N 0.22389 0.86215 0.00848 0.0
C230 C 0.17112 0.79104 0.98331 0.0
C231 C 0.1763 0.8574 0.95501 0.0
C232 C 0.21095 0.8826 0.98147 0.0
C233 C 0.15534 0.81094 0.95635 0.0
H234 H 0.21628 0.80227 0.03159 0.0
H235 H 0.22627 0.91834 0.98171 0.0
O236 O 0.33786 0.95538 0.12558 0.0
O237 O 0.29911 0.86847 0.07237 0.0
O238 O 0.23902 0.90526 0.09767 0.0
O239 O 0.3094 0.955 0.03674 0.0
H240 H 0.40572 0.97427 0.17278 0.0
H241 H 0.28013 0.96922 0.16574 0.0
H242 H 0.41224 0.99881 0.24366 0.0
H243 H 0.2884 0.99319 0.2368 0.0
H244 H 0.32294 0.75174 0.07006 0.0
H245 H 0.36152 0.89679 0.12856 0.0
H246 H 0.28445 0.79094 0.04574 0.0
H247 H 0.39846 0.8558 0.15139 0.0
H248 H 0.27913 0.83904 0.26162 0.0
H249 H 0.16104 0.7698 0.18899 0.0
H250 H 0.50498 0.03231 0.06303 0.0
H251 H 0.44113 0.9438 0.96286 0.0
H252 H 0.18117 0.90926 0.04905 0.0
H253 H 0.21202 0.90206 0.17281 0.0
H254 H 0.11355 0.90988 0.07111 0.0
H255 H 0.14404 0.90307 0.19267 0.0
H256 H 0.37533 0.03533 0.05414 0.0
H257 H 0.31144 0.94082 0.95905 0.0
H258 H 0.42942 0.08771 0.00471 0.0
H259 H 0.36693 0.99478 0.91124 0.0
H260 H 0.36155 0.12471 0.11459 0.0
H261 H 0.25076 0.06165 0.03285 0.0
H262 H 0.15547 0.75536 0.98586 0.0
H263 H 0.16512 0.87395 0.93464 0.0
Li264 Li 0.63109 0.89468 0.45242 0.0
Li265 Li 0.66911 0.96308 0.40953 0.0
Li266 Li 0.59332 0.93374 0.43017 0.0
Li267 Li 0.61062 0.89401 0.38097 0.0
C268 C 0.64642 0.98469 0.49141 0.0
N269 N 0.64459 0.044 0.54533 0.0
C270 C 0.65451 0.02619 0.47832 0.0
C271 C 0.63749 0.97336 0.53191 0.0
C272 C 0.65341 0.05571 0.50605 0.0
C273 C 0.63669 0.00382 0.55871 0.0
C274 C 0.70546 0.9065 0.39192 0.0
C275 C 0.75275 0.9045 0.33996 0.0
N276 N 0.78162 0.90661 0.36842 0.0
C277 C 0.73538 0.90814 0.42063 0.0
C278 C 0.71399 0.90422 0.35123 0.0
C279 C 0.77379 0.90839 0.40816 0.0
C280 C 0.61316 0.81752 0.49204 0.0
N281 N 0.6394 0.86224 0.49292 0.0
C282 C 0.68235 0.85762 0.54636 0.0
C283 C 0.67282 0.88275 0.51988 0.0
C284 C 0.65686 0.81115 0.54509 0.0
C285 C 0.62116 0.79118 0.51817 0.0
H286 H 0.58713 0.8023 0.4699 0.0
H287 H 0.69322 0.91849 0.5196 0.0
C288 C 0.72785 0.05364 0.38923 0.0
N289 N 0.72389 0.01683 0.40727 0.0
C290 C 0.76268 0.09553 0.39962 0.0
C291 C 0.78985 0.06042 0.44491 0.0
C292 C 0.75459 0.01937 0.43373 0.0
C293 C 0.7931 0.09932 0.42915 0.0
H294 H 0.70197 0.05097 0.36967 0.0
H295 H 0.74935 0.98988 0.44913 0.0
C296 C 0.52741 0.84658 0.41606 0.0
N297 N 0.44061 0.80187 0.38996 0.0
C298 C 0.51341 0.86493 0.38619 0.0
C299 C 0.49725 0.80554 0.43269 0.0
C300 C 0.46941 0.84179 0.37339 0.0
C301 C 0.45351 0.78345 0.41909 0.0
C302 C 0.62839 0.96965 0.33704 0.0
C303 C 0.59951 0.97838 0.31508 0.0
C304 C 0.66692 0.975 0.31893 0.0
C305 C 0.60959 0.99208 0.27518 0.0
C306 C 0.67586 0.98875 0.27899 0.0
N307 N 0.64723 0.99691 0.2581 0.0
C308 C 0.55158 0.98603 0.4333 0.0
C309 C 0.53693 0.93682 0.4877 0.0
C310 C 0.53026 0.00554 0.45318 0.0
N311 N 0.55485 0.9527 0.45103 0.0
C312 C 0.516 0.95576 0.50888 0.0
C313 C 0.51283 0.99104 0.49193 0.0
H314 H 0.56698 0.99856 0.40442 0.0
H315 H 0.54106 0.91099 0.50139 0.0
C316 C 0.60413 0.82203 0.34047 0.0
N317 N 0.59473 0.85519 0.33581 0.0
C318 C 0.59957 0.79427 0.30842 0.0
C319 C 0.57304 0.8335 0.26779 0.0
C320 C 0.57833 0.86072 0.3007 0.0
C321 C 0.58477 0.80036 0.27109 0.0
H322 H 0.61699 0.81832 0.3688 0.0
H323 H 0.57036 0.88681 0.29784 0.0
O324 O 0.64659 0.955 0.46465 0.0
O325 O 0.66719 0.90526 0.40369 0.0
O326 O 0.57035 0.86842 0.42913 0.0
O327 O 0.61835 0.95529 0.37584 0.0
H328 H 0.66075 0.03519 0.44699 0.0
H329 H 0.63091 0.94125 0.54245 0.0
H330 H 0.65937 0.08784 0.4963 0.0
H331 H 0.62968 0.99546 0.59013 0.0
H332 H 0.75977 0.90285 0.30858 0.0
H333 H 0.72913 0.90934 0.45224 0.0
H334 H 0.69084 0.90191 0.32852 0.0
H335 H 0.79731 0.90989 0.4301 0.0
H336 H 0.7101 0.87421 0.5667 0.0
H337 H 0.60114 0.75549 0.51568 0.0
H338 H 0.76401 0.12469 0.38674 0.0
H339 H 0.81178 0.06165 0.46845 0.0
H340 H 0.53611 0.89663 0.37298 0.0
H341 H 0.50755 0.79092 0.45588 0.0
H342 H 0.45814 0.85559 0.35028 0.0
H343 H 0.42981 0.75165 0.43169 0.0
H344 H 0.56943 0.97425 0.32865 0.0
H345 H 0.6899 0.96907 0.33567 0.0
H346 H 0.58745 0.99878 0.25777 0.0
H347 H 0.7056 0.99303 0.26462 0.0
H348 H 0.52793 0.03198 0.43849 0.0
H349 H 0.50388 0.94382 0.53882 0.0
H350 H 0.60957 0.7697 0.31247 0.0
H351 H 0.5607 0.83893 0.23986 0.0
Li352 Li 0.10233 0.73072 0.44915 0.0
Li353 Li 0.03145 0.69908 0.40945 0.0
Li354 Li 0.06238 0.65306 0.42816 0.0
Li355 Li 0.09892 0.70882 0.37779 0.0
C356 C 0.01805 0.65786 0.4939 0.0
N357 N 0.96845 0.60011 0.55446 0.0
C358 C 0.97504 0.62348 0.48623 0.0
C359 C 0.03578 0.66307 0.53238 0.0
C360 C 0.95052 0.59457 0.51724 0.0
C361 C 0.01017 0.63348 0.5626 0.0
C362 C 0.08636 0.78978 0.38523 0.0
C363 C 0.08141 0.82954 0.32811 0.0
N364 N 0.0832 0.86126 0.35311 0.0
C365 C 0.08873 0.82308 0.41029 0.0
C366 C 0.08314 0.79327 0.34374 0.0
C367 C 0.08682 0.85881 0.39352 0.0
C368 C 0.17985 0.78928 0.49025 0.0
N369 N 0.13546 0.77293 0.4885 0.0
C370 C 0.13978 0.82501 0.53742 0.0
C371 C 0.11493 0.78916 0.512 0.0
C372 C 0.18599 0.84381 0.53874 0.0
C373 C 0.20591 0.82481 0.51552 0.0
H374 H 0.19515 0.77592 0.47077 0.0
H375 H 0.0795 0.77544 0.50964 0.0
C376 C 0.93898 0.66529 0.39918 0.0
N377 N 0.97802 0.70031 0.4115 0.0
C378 C 0.89901 0.65897 0.41496 0.0
C379 C 0.94041 0.72638 0.45339 0.0
C380 C 0.97936 0.73139 0.43695 0.0
C381 C 0.89986 0.68864 0.44398 0.0
H382 H 0.93901 0.63996 0.38043 0.0
H383 H 0.01086 0.75759 0.44769 0.0
C384 C 0.14869 0.67432 0.4103 0.0
N385 N 0.19201 0.63167 0.38172 0.0
C386 C 0.12877 0.64118 0.38122 0.0
C387 C 0.1906 0.68572 0.42489 0.0
C388 C 0.15122 0.62003 0.36714 0.0
C389 C 0.21198 0.66378 0.41005 0.0
C390 C 0.0212 0.64799 0.33712 0.0
C391 C 0.01611 0.61116 0.3158 0.0
C392 C 0.00945 0.67684 0.31919 0.0
C393 C 5e-05 0.60428 0.27654 0.0
C394 C 0.99352 0.66884 0.27989 0.0
N395 N 0.98924 0.63305 0.25953 0.0
C396 C 0.00911 0.5596 0.43207 0.0
C397 C 0.06149 0.59298 0.48438 0.0
C398 C 0.98972 0.51867 0.45169 0.0
N399 N 0.04394 0.59569 0.44892 0.0
C400 C 0.04268 0.55299 0.50536 0.0
C401 C 0.00586 0.51509 0.48935 0.0
H402 H 0.99533 0.56299 0.40417 0.0
H403 H 0.0886 0.62255 0.49742 0.0
C404 C 0.16993 0.773 0.33585 0.0
N405 N 0.13597 0.73078 0.3313 0.0
C406 C 0.19754 0.79578 0.3036 0.0
C407 C 0.15633 0.73038 0.2628 0.0
C408 C 0.12929 0.70885 0.29595 0.0
C409 C 0.19051 0.77484 0.26613 0.0
H410 H 0.17457 0.78959 0.36437 0.0
H411 H 0.10261 0.67506 0.29314 0.0
O412 O 0.04296 0.68597 0.46378 0.0
O413 O 0.08886 0.7549 0.4012 0.0
O414 O 0.12751 0.6957 0.42452 0.0
O415 O 0.03714 0.65522 0.37549 0.0
H416 H 0.96104 0.61869 0.4565 0.0
H417 H 0.0691 0.68946 0.53873 0.0
H418 H 0.91731 0.5676 0.51167 0.0
H419 H 0.02351 0.63697 0.5925 0.0
H420 H 0.07882 0.83257 0.29607 0.0
H421 H 0.09186 0.82132 0.44239 0.0
H422 H 0.0824 0.76852 0.32368 0.0
H423 H 0.08834 0.88465 0.41262 0.0
H424 H 0.12329 0.83878 0.55488 0.0
H425 H 0.24153 0.83886 0.5151 0.0
H426 H 0.86837 0.62916 0.40746 0.0
H427 H 0.94228 0.74994 0.47565 0.0
H428 H 0.09639 0.63182 0.36961 0.0
H429 H 0.20646 0.71127 0.44744 0.0
H430 H 0.13619 0.59435 0.34461 0.0
H431 H 0.24445 0.67228 0.42106 0.0
H432 H 0.02477 0.5883 0.32934 0.0
H433 H 0.01218 0.70486 0.33553 0.0
H434 H 0.99621 0.57607 0.2596 0.0
H435 H 0.98441 0.691 0.26562 0.0
H436 H 0.96209 0.49035 0.43764 0.0
H437 H 0.05599 0.55236 0.53448 0.0
H438 H 0.2229 0.83009 0.30768 0.0
H439 H 0.15009 0.71258 0.23473 0.0
Li440 Li 0.29626 0.32839 0.41257 0.0
Li441 Li 0.26571 0.3683 0.45269 0.0
Li442 Li 0.28436 0.38455 0.38054 0.0
Li443 Li 0.342 0.40576 0.4291 0.0
C444 C 0.20513 0.28912 0.39342 0.0
N445 N 0.13437 0.20927 0.36872 0.0
C446 C 0.1766 0.25847 0.42169 0.0
C447 C 0.19716 0.27945 0.35254 0.0
C448 C 0.14118 0.21819 0.40863 0.0
C449 C 0.16135 0.23884 0.34067 0.0
C450 C 0.34054 0.36329 0.49699 0.0
C451 C 0.37235 0.39864 0.56008 0.0
N452 N 0.40133 0.38334 0.55778 0.0
C453 C 0.37039 0.34761 0.49535 0.0
C454 C 0.34123 0.38873 0.52969 0.0
C455 C 0.40095 0.35819 0.52636 0.0
C456 C 0.33008 0.2708 0.39579 0.0
N457 N 0.29701 0.27465 0.41352 0.0
C458 C 0.27715 0.21122 0.45428 0.0
C459 C 0.27011 0.24523 0.44157 0.0
C460 C 0.31264 0.20775 0.43831 0.0
C461 C 0.33821 0.23703 0.4075 0.0
H462 H 0.35239 0.29586 0.37499 0.0
H463 H 0.2458 0.2506 0.45675 0.0
C464 C 0.20573 0.38627 0.49185 0.0
N465 N 0.22457 0.36038 0.49289 0.0
C466 C 0.17036 0.3772 0.51722 0.0
C467 C 0.17548 0.3158 0.54507 0.0
C468 C 0.21111 0.32638 0.51937 0.0
C469 C 0.15407 0.34083 0.54353 0.0
H470 H 0.21687 0.41266 0.47 0.0
H471 H 0.22671 0.30624 0.51915 0.0
C472 C 0.34515 0.36906 0.33835 0.0
N473 N 0.35969 0.35377 0.25997 0.0
C474 C 0.38286 0.40048 0.31781 0.0
C475 C 0.31514 0.32966 0.31922 0.0
C476 C 0.38955 0.3922 0.27814 0.0
C477 C 0.32299 0.32259 0.27953 0.0
C478 C 0.31913 0.46982 0.41116 0.0
C479 C 0.35156 0.48279 0.38137 0.0
C480 C 0.30719 0.50013 0.42542 0.0
C481 C 0.37146 0.52592 0.36625 0.0
C482 C 0.32788 0.54298 0.40955 0.0
N483 N 0.35931 0.55487 0.38053 0.0
C484 C 0.21833 0.38793 0.33833 0.0
C485 C 0.28338 0.41405 0.29905 0.0
C486 C 0.19542 0.39207 0.30593 0.0
N487 N 0.26112 0.39789 0.33415 0.0
C488 C 0.26169 0.41872 0.26574 0.0
C489 C 0.21681 0.40688 0.26873 0.0
H490 H 0.20153 0.37537 0.36668 0.0
H491 H 0.31764 0.42264 0.29659 0.0
C492 C 0.43205 0.435 0.43628 0.0
N493 N 0.40049 0.44521 0.4466 0.0
C494 C 0.4734 0.45641 0.45489 0.0
C495 C 0.44949 0.49974 0.49312 0.0
C496 C 0.40852 0.47738 0.47383 0.0
C497 C 0.48224 0.48861 0.48441 0.0
H498 H 0.42419 0.40843 0.41522 0.0
H499 H 0.38241 0.4841 0.48199 0.0
O500 O 0.23967 0.32897 0.40571 0.0
O501 O 0.31112 0.35424 0.46647 0.0
O502 O 0.33794 0.37706 0.37701 0.0
O503 O 0.299 0.42775 0.42645 0.0
H504 H 0.18183 0.26561 0.45341 0.0
H505 H 0.21814 0.30313 0.33013 0.0
H506 H 0.11904 0.19407 0.43022 0.0
H507 H 0.15491 0.2309 0.30914 0.0
H508 H 0.37354 0.41862 0.58542 0.0
H509 H 0.37028 0.32792 0.47018 0.0
H510 H 0.31833 0.40114 0.53129 0.0
H511 H 0.42445 0.34654 0.5254 0.0
H512 H 0.25727 0.19034 0.4788 0.0
H513 H 0.36582 0.23552 0.39428 0.0
H514 H 0.15425 0.39678 0.51449 0.0
H515 H 0.16382 0.28752 0.5649 0.0
H516 H 0.40656 0.43107 0.33232 0.0
H517 H 0.28642 0.30461 0.335 0.0
H518 H 0.41846 0.41632 0.2618 0.0
H519 H 0.29998 0.29224 0.26434 0.0
H520 H 0.36136 0.45994 0.37003 0.0
H521 H 0.28218 0.49062 0.44853 0.0
H522 H 0.39657 0.53637 0.34316 0.0
H523 H 0.31894 0.56678 0.4203 0.0
H524 H 0.16079 0.38204 0.30963 0.0
H525 H 0.27973 0.43098 0.23784 0.0
H526 H 0.4974 0.44642 0.44752 0.0
H527 H 0.45511 0.52487 0.51516 0.0
Li528 Li 0.90076 0.64099 0.94785 0.0
Li529 Li 0.9355 0.59444 0.93196 0.0
Li530 Li 0.97073 0.67056 0.9112 0.0
Li531 Li 0.90335 0.61685 0.87803 0.0
C532 C 0.99097 0.67428 0.9902 0.0
N533 N 0.06288 0.73154 0.03623 0.0
C534 C 0.02575 0.66592 0.9964 0.0
C535 C 0.99253 0.71152 0.00766 0.0
C536 C 0.06183 0.6953 0.01976 0.0
C537 C 0.02928 0.74017 0.03073 0.0
C538 C 0.84725 0.53511 0.91493 0.0
C539 C 0.83802 0.47278 0.87584 0.0
N540 N 0.79709 0.44737 0.89218 0.0
C541 C 0.80512 0.50842 0.93134 0.0
C542 C 0.86388 0.51722 0.88694 0.0
C543 C 0.78027 0.46412 0.91945 0.0
C544 C 0.83974 0.66622 0.96682 0.0
N545 N 0.86702 0.6537 0.98394 0.0
C546 C 0.84508 0.66281 0.04965 0.0
C547 C 0.87009 0.6515 0.02446 0.0
C548 C 0.81746 0.67696 0.03265 0.0
C549 C 0.81474 0.6783 0.9907 0.0
H550 H 0.83772 0.66713 0.9345 0.0
H551 H 0.89207 0.64123 0.03712 0.0
C552 C 0.97475 0.54067 0.93453 0.0
N553 N 0.94953 0.55364 0.95517 0.0
C554 C 0.99301 0.5182 0.95417 0.0
C555 C 0.95824 0.52218 0.01567 0.0
C556 C 0.9405 0.5444 0.99479 0.0
C557 C 0.98568 0.50957 0.99553 0.0
H558 H 0.9822 0.54943 0.90326 0.0
H559 H 0.92136 0.55632 0.01058 0.0
C560 C 0.92621 0.71575 0.88371 0.0
N561 N 0.9401 0.79577 0.85413 0.0
C562 C 0.93118 0.7241 0.84249 0.0
C563 C 0.92758 0.74782 0.90983 0.0
C564 C 0.93838 0.76483 0.82813 0.0
C565 C 0.93487 0.78815 0.89432 0.0
C566 C 0.97981 0.62688 0.84087 0.0
C567 C 0.99688 0.66878 0.82341 0.0
C568 C 0.98139 0.5931 0.8196 0.0
C569 C 0.01522 0.67617 0.78495 0.0
C570 C -0.0001 0.60177 0.78116 0.0
N571 N 0.01631 0.64278 0.76478 0.0
C572 C 0.06224 0.71131 0.90608 0.0
C573 C 0.03723 0.76137 0.92246 0.0
C574 C 0.10524 0.74219 0.91765 0.0
N575 N 0.02905 0.72078 0.91015 0.0
C576 C 0.07978 0.79327 0.93436 0.0
C577 C 0.11388 0.78293 0.93389 0.0
H578 H 0.0546 0.67835 0.89728 0.0
H579 H 0.01024 0.7676 0.92698 0.0
C580 C 0.82345 0.5877 0.83872 0.0
N581 N 0.86672 0.6013 0.83107 0.0
C582 C 0.7944 0.58181 0.80746 0.0
C583 C 0.8547 0.60336 0.76068 0.0
C584 C 0.88242 0.60818 0.79283 0.0
C585 C 0.81014 0.59091 0.76776 0.0
H586 H 0.8118 0.58302 0.8694 0.0
H587 H 0.91682 0.61947 0.78709 0.0
O588 O 0.95567 0.64628 0.96694 0.0
O589 O 0.87181 0.57858 0.92617 0.0
O590 O 0.91811 0.67569 0.8983 0.0
O591 O 0.96227 0.61887 0.87876 0.0
H592 H 0.02508 0.63729 0.98298 0.0
H593 H 0.96595 0.71854 0.00294 0.0
H594 H 0.08909 0.68937 0.02467 0.0
H595 H 0.03116 0.76935 0.04413 0.0
H596 H 0.85047 0.4585 0.85421 0.0
H597 H 0.79178 0.52185 0.95299 0.0
H598 H 0.89633 0.53735 0.87385 0.0
H599 H 0.74759 0.44307 0.93188 0.0
H600 H 0.84768 0.66107 0.08189 0.0
H601 H 0.79298 0.688 0.97647 0.0
H602 H 0.0133 0.50841 0.93729 0.0
H603 H 0.95207 0.51667 0.04757 0.0
H604 H 0.92929 0.69935 0.82174 0.0
H605 H 0.92362 0.74184 0.94183 0.0
H606 H 0.94244 0.77179 0.79631 0.0
H607 H 0.93636 0.8134 0.91423 0.0
H608 H 0.99574 0.69527 0.83913 0.0
H609 H 0.9683 0.56044 0.83256 0.0
H610 H 0.02843 0.70841 0.77109 0.0
H611 H 0.00124 0.57589 0.76434 0.0
H612 H 0.13071 0.73307 0.9166 0.0
H613 H 0.08482 0.82396 0.94734 0.0
H614 H 0.76025 0.57137 0.81457 0.0
H615 H 0.86886 0.61156 0.73085 0.0
Li616 Li 0.32516 0.2926 0.91656 0.0
Li617 Li 0.40328 0.33219 0.93447 0.0
Li618 Li 0.37507 0.26972 0.88932 0.0
Li619 Li 0.35716 0.25409 0.95935 0.0
C620 C 0.36419 0.33683 0.84555 0.0
N621 N 0.33695 0.35576 0.77423 0.0
C622 C 0.38099 0.38081 0.8336 0.0
C623 C 0.33361 0.30251 0.82124 0.0
C624 C 0.36676 0.38971 0.79745 0.0
C625 C 0.32027 0.31272 0.78527 0.0
C626 C 0.36228 0.33184 0.00442 0.0
C627 C 0.40418 0.35783 0.06567 0.0
N628 N 0.38871 0.38641 0.07091 0.0
C629 C 0.34654 0.36124 0.0105 0.0
C630 C 0.39111 0.32986 0.03228 0.0
C631 C 0.36037 0.38863 0.04429 0.0
C632 C 0.23689 0.27068 0.92774 0.0
N633 N 0.27701 0.30252 0.91396 0.0
C634 C 0.25568 0.35755 0.91908 0.0
C635 C 0.2864 0.34493 0.90816 0.0
C636 C 0.21526 0.3262 0.93641 0.0
C637 C 0.20507 0.28181 0.9389 0.0
H638 H 0.23107 0.23761 0.93334 0.0
H639 H 0.31917 0.36981 0.89854 0.0
C640 C 0.48138 0.40107 0.97309 0.0
N641 N 0.44435 0.39044 0.95156 0.0
C642 C 0.50437 0.44232 0.99218 0.0
C643 C 0.45083 0.46056 0.96605 0.0
C644 C 0.42942 0.41946 0.94705 0.0
C645 C 0.48852 0.47237 0.98961 0.0
H646 H 0.49189 0.37688 0.97688 0.0
H647 H 0.39908 0.40942 0.93073 0.0
C648 C 0.28662 0.19168 0.89764 0.0
N649 N 0.22648 0.10965 0.86663 0.0
C650 C 0.28621 0.15351 0.91118 0.0
C651 C 0.25561 0.18793 0.86911 0.0
C652 C 0.25581 0.11241 0.8949 0.0
C653 C 0.22572 0.14623 0.85357 0.0
C654 C 0.44859 0.27729 0.91672 0.0
C655 C 0.44743 0.23673 0.91991 0.0
C656 C 0.48089 0.31099 0.89293 0.0
C657 C 0.47856 0.23044 0.89887 0.0
C658 C 0.51144 0.30339 0.87237 0.0
N659 N 0.50963 0.26361 0.87572 0.0
C660 C 0.40429 0.26615 0.8085 0.0
C661 C 0.37523 0.19999 0.84638 0.0
C662 C 0.40827 0.24448 0.77467 0.0
N663 N 0.38659 0.2433 0.84311 0.0
C664 C 0.37833 0.17703 0.81342 0.0
C665 C 0.39402 0.19899 0.77665 0.0
H666 H 0.41444 0.30093 0.80681 0.0
H667 H 0.36358 0.18311 0.87466 0.0
C668 C 0.30082 0.18823 0.01295 0.0
N669 N 0.34383 0.21347 0.00155 0.0
C670 C 0.28828 0.15239 0.03879 0.0
C671 C 0.36505 0.17126 0.04259 0.0
C672 C 0.37608 0.20678 0.01677 0.0
C673 C 0.3204 0.14254 0.05275 0.0
H674 H 0.27597 0.1945 1.00019 0.0
H675 H 0.41003 0.22762 0.0072 0.0
O676 O 0.37737 0.32771 0.88116 0.0
O677 O 0.35037 0.30585 0.97085 0.0
O678 O 0.31559 0.23212 0.91384 0.0
O679 O 0.4178 0.28379 0.93624 0.0
H680 H 0.40467 0.40779 0.85213 0.0
H681 H 0.32081 0.26838 0.82982 0.0
H682 H 0.37942 0.4236 0.78785 0.0
H683 H 0.29671 0.28644 0.76611 0.0
H684 H 0.42677 0.35694 0.08733 0.0
H685 H 0.32425 0.36319 0.98918 0.0
H686 H 0.40378 0.30745 0.02781 0.0
H687 H 0.34868 0.41174 0.04928 0.0
H688 H 0.26468 0.39206 0.91666 0.0
H689 H 0.17458 0.25681 0.95272 0.0
H690 H 0.53371 0.45013 0.00934 0.0
H691 H 0.43664 0.48187 0.96368 0.0
H692 H 0.30954 0.15565 0.93365 0.0
H693 H 0.25422 0.2168 0.85936 0.0
H694 H 0.25549 0.08269 0.90479 0.0
H695 H 0.20171 0.1429 0.83132 0.0
H696 H 0.42233 0.21014 0.93787 0.0
H697 H 0.48205 0.3425 0.8901 0.0
H698 H 0.47788 0.19912 0.90081 0.0
H699 H 0.53651 0.32908 0.85367 0.0
H700 H 0.42075 0.26272 0.7469 0.0
H701 H 0.36813 0.14228 0.81658 0.0
H702 H 0.25358 0.13135 0.04615 0.0
H703 H 0.39085 0.16465 0.05212 0.0
Li704 Li 0.72037 0.09762 0.88288 0.0
Li705 Li 0.73838 0.10146 0.95333 0.0
Li706 Li 0.70226 0.02759 0.91506 0.0
Li707 Li 0.6616 0.06723 0.9306 0.0
C708 C 0.79711 0.08371 0.88956 0.0
N709 N 0.87033 0.08862 0.85227 0.0
C710 C 0.83939 0.11965 0.89694 0.0
C711 C 0.79225 0.04977 0.86394 0.0
C712 C 0.87594 0.12166 0.8776 0.0
C713 C 0.82961 0.05302 0.84514 0.0
C714 C 0.73701 0.1754 0.92479 0.0
C715 C 0.75263 0.25067 0.93283 0.0
N716 N 0.79567 0.26563 0.92281 0.0
C717 C 0.78137 0.19153 0.91459 0.0
C718 C 0.72247 0.20517 0.93403 0.0
C719 C 0.81052 0.23724 0.91374 0.0
C720 C 0.74299 0.1672 0.82371 0.0
N721 N 0.74236 0.12862 0.83213 0.0
C722 C 0.77879 0.13304 0.76993 0.0
C723 C 0.75873 0.1109 0.80544 0.0
C724 C 0.78213 0.17406 0.76152 0.0
C725 C 0.76339 0.19091 0.78869 0.0
H726 H 0.72826 0.18007 0.84431 0.0
H727 H 0.75643 0.07952 0.81171 0.0
C728 C 0.8073 0.11435 0.00267 0.0
N729 N 0.78064 0.13128 0.9941 0.0
C730 C 0.84363 0.13725 0.02793 0.0
C731 C 0.82291 0.19339 0.03677 0.0
C732 C 0.78664 0.16908 0.01168 0.0
C733 C 0.85284 0.17823 0.04415 0.0
H734 H 0.80132 0.08391 0.98848 0.0
H735 H 0.76452 0.18147 0.00482 0.0
C736 C 0.65508 0.03677 0.84001 0.0
N737 N 0.64001 0.03472 0.75858 0.0
C738 C 0.63759 0.06173 0.82389 0.0
C739 C 0.66449 0.0104 0.81489 0.0
C740 C 0.63034 0.06037 0.78258 0.0
C741 C 0.65672 0.00989 0.77375 0.0
C742 C 0.66288 0.02983 0.00163 0.0
C743 C 0.63291 0.98478 0.0075 0.0
C744 C 0.66488 0.06086 0.02938 0.0
C745 C 0.60494 0.97153 0.04093 0.0
C746 C 0.63633 0.04627 0.06242 0.0
N747 N 0.60718 0.0023 0.06743 0.0
C748 C 0.7263 0.96456 0.93485 0.0
C749 C 0.654 0.93597 0.90817 0.0
C750 C 0.71624 0.92234 0.94732 0.0
N751 N 0.69486 0.97052 0.91668 0.0
C752 C 0.64239 0.89325 0.92043 0.0
C753 C 0.67321 0.88641 0.94164 0.0
H754 H 0.75797 0.99301 0.94237 0.0
H755 H 0.62938 0.94214 0.89474 0.0
C756 C 0.59372 0.07643 0.9714 0.0
N757 N 0.60356 0.05034 0.94833 0.0
C758 C 0.5527 0.05812 0.99094 0.0
C759 C 0.53297 0.98698 0.96195 0.0
C760 C 0.57392 0.00671 0.94264 0.0
C761 C 0.522 0.01249 0.98709 0.0
H762 H 0.61842 0.11082 0.97614 0.0
H763 H 0.58331 0.98658 0.92506 0.0
O764 O 0.76098 0.08052 0.90897 0.0
O765 O 0.70791 0.13077 0.92652 0.0
O766 O 0.66335 0.03846 0.88018 0.0
O767 O 0.68943 0.04362 0.96838 0.0
H768 H 0.84411 0.14557 0.91764 0.0
H769 H 0.75986 0.02143 0.85828 0.0
H770 H 0.9088 0.14937 0.8829 0.0
H771 H 0.82624 0.0272 0.82494 0.0
H772 H 0.74183 0.27409 0.93993 0.0
H773 H 0.79302 0.16901 0.90714 0.0
H774 H 0.68824 0.19319 0.94215 0.0
H775 H 0.84493 0.25013 0.90584 0.0
H776 H 0.79265 0.1187 0.7498 0.0
H777 H 0.76444 0.22199 0.7829 0.0
H778 H 0.8653 0.12389 0.03334 0.0
H779 H 0.8288 0.22498 0.04819 0.0
H780 H 0.6302 0.08233 0.84305 0.0
H781 H 0.67811 0.99094 0.827 0.0
H782 H 0.61713 0.07976 0.76959 0.0
H783 H 0.66411 0.98987 0.75387 0.0
H784 H 0.63092 0.96037 0.98623 0.0
H785 H 0.68773 0.09588 0.02507 0.0
H786 H 0.58135 0.93681 0.04573 0.0
H787 H 0.63722 0.06993 0.08397 0.0
H788 H 0.74068 0.91856 0.96416 0.0
H789 H 0.60893 0.86634 0.9155 0.0
H790 H 0.54554 0.07934 0.00943 0.0
H791 H 0.51107 0.95164 0.95853 0.0
Li792 Li 0.36386 0.10111 0.54851 0.0
Li793 Li 0.37809 0.09723 0.61892 0.0
Li794 Li 0.40644 0.06688 0.57114 0.0
Li795 Li 0.32616 0.02722 0.58675 0.0
C796 C 0.43919 0.17504 0.57701 0.0
N797 N 0.47079 0.26527 0.57903 0.0
C798 C 0.41096 0.19117 0.5872 0.0
C799 C 0.48351 0.2048 0.56781 0.0
C800 C 0.42753 0.23688 0.58807 0.0
C801 C 0.49887 0.2503 0.56902 0.0
C802 C 0.28746 0.08325 0.6125 0.0
C803 C 0.22443 0.05243 0.6571 0.0
N804 N 0.21926 0.08803 0.65016 0.0
C805 C 0.28107 0.11919 0.60531 0.0
C806 C 0.25848 0.04924 0.63811 0.0
C807 C 0.24658 0.12113 0.62484 0.0
C808 C 0.30783 0.11426 0.49936 0.0
N809 N 0.35141 0.13101 0.50781 0.0
C810 C 0.37138 0.19317 0.46516 0.0
C811 C 0.38327 0.16874 0.49018 0.0
C812 C 0.32631 0.17819 0.45791 0.0
C813 C 0.29446 0.13727 0.47418 0.0
H814 H 0.28331 0.08387 0.5136 0.0
H815 H 0.41778 0.18098 0.49694 0.0
C816 C 0.42508 0.16688 0.67803 0.0
N817 N 0.38717 0.12824 0.66969 0.0
C818 C 0.42839 0.19064 0.71301 0.0
C819 C 0.35523 0.1327 0.73191 0.0
C820 C 0.35314 0.11049 0.69645 0.0
C821 C 0.39285 0.1738 0.74022 0.0
H822 H 0.45265 0.17976 0.6574 0.0
H823 H 0.32409 0.07906 0.69026 0.0
C824 C 0.36769 0.02946 0.50015 0.0
N825 N 0.3958 0.00186 0.43436 0.0
C826 C 0.35266 0.9844 0.49435 0.0
C827 C 0.39665 0.06045 0.47234 0.0
C828 C 0.36735 0.97112 0.46092 0.0
C829 C 0.41057 0.04583 0.4393 0.0
C830 C 0.38272 0.03645 0.66171 0.0
C831 C 0.42525 0.06148 0.6777 0.0
C832 C 0.34706 0.01006 0.68694 0.0
C833 C 0.4313 0.06016 0.71898 0.0
C834 C 0.3545 0.0096 0.72805 0.0
N835 N 0.3961 0.0345 0.74308 0.0
C836 C 0.48346 0.07615 0.53019 0.0
C837 C 0.43372 0.00644 0.55909 0.0
C838 C 0.5062 0.05789 0.51062 0.0
N839 N 0.4476 0.05004 0.55335 0.0
C840 C 0.45497 0.98676 0.53976 0.0
C841 C 0.49137 0.01228 0.51453 0.0
H842 H 0.49307 0.11052 0.52542 0.0
H843 H 0.40425 0.98629 0.57673 0.0
C844 C 0.2391 0.9642 0.56697 0.0
N845 N 0.2765 0.97014 0.58512 0.0
C846 C 0.20694 0.92199 0.55446 0.0
C847 C 0.2517 0.89287 0.5813 0.0
C848 C 0.28281 0.93559 0.5936 0.0
C849 C 0.21405 0.88606 0.56009 0.0
H850 H 0.23588 0.99266 0.55949 0.0
H851 H 0.3136 0.94175 0.60702 0.0
O852 O 0.42365 0.1304 0.57526 0.0
O853 O 0.32034 0.08013 0.5929 0.0
O854 O 0.35496 0.04329 0.5334 0.0
O855 O 0.37598 0.03808 0.62156 0.0
H856 H 0.37678 0.16865 0.59461 0.0
H857 H 0.50576 0.19282 0.5597 0.0
H858 H 0.40602 0.24978 0.59596 0.0
H859 H 0.5331 0.27372 0.56196 0.0
H860 H 0.20206 0.02656 0.67731 0.0
H861 H 0.30218 0.14517 0.58461 0.0
H862 H 0.26257 0.02091 0.64363 0.0
H863 H 0.2414 0.14885 0.61969 0.0
H864 H 0.39715 0.2247 0.45371 0.0
H865 H 0.25944 0.12405 0.46886 0.0
H866 H 0.45839 0.22179 0.71872 0.0
H867 H 0.32707 0.11835 0.7521 0.0
H868 H 0.3303 0.96003 0.51567 0.0
H869 H 0.40877 0.09547 0.47659 0.0
H870 H 0.35626 0.9364 0.45618 0.0
H871 H 0.43328 0.06946 0.4177 0.0
H872 H 0.45314 0.08209 0.65845 0.0
H873 H 0.31394 0.99055 0.67494 0.0
H874 H 0.46396 0.07961 0.73186 0.0
H875 H 0.32719 0.98957 0.74802 0.0
H876 H 0.53451 0.07911 0.49207 0.0
H877 H 0.44162 0.95144 0.54322 0.0
H878 H 0.17872 0.91822 0.53763 0.0
H879 H 0.25826 0.86597 0.58619 0.0
Li880 Li 0.96821 0.29254 0.58483 0.0
Li881 Li 0.92962 0.3321 0.56695 0.0
Li882 Li 0.89543 0.26968 0.61212 0.0
Li883 Li 0.89766 0.25401 0.54208 0.0
C884 C 0.97332 0.33664 0.6559 0.0
N885 N 0.01921 0.35524 0.72735 0.0
C886 C 0.00038 0.38056 0.66807 0.0
C887 C 0.96956 0.30221 0.68006 0.0
C888 C 0.02336 0.38929 0.70428 0.0
C889 C 0.99298 0.31226 0.7161 0.0
C890 C 0.97028 0.33175 0.49699 0.0
C891 C 0.95439 0.35773 0.43571 0.0
N892 N 0.99845 0.38632 0.43049 0.0
C893 C 0.01542 0.36117 0.49092 0.0
C894 C 0.93948 0.32976 0.4691 0.0
C895 C 0.02899 0.38855 0.45713 0.0
C896 C 0.03458 0.27068 0.57354 0.0
N897 N 0.02628 0.30248 0.58739 0.0
C898 C 0.10264 0.35754 0.58238 0.0
C899 C 0.05928 0.34488 0.59328 0.0
C900 C 0.11175 0.32624 0.56498 0.0
C901 C 0.07755 0.28185 0.56239 0.0
H902 H 0.00734 0.23762 0.56787 0.0
H903 H 0.05138 0.36973 0.60297 0.0
C904 C 0.92046 0.40097 0.52823 0.0
N905 N 0.94681 0.39034 0.54984 0.0
C906 C 0.93876 0.44221 0.50913 0.0
C907 C 0.01048 0.46044 0.53538 0.0
C908 C 0.99075 0.41935 0.55441 0.0
C909 C 0.98466 0.47225 0.51175 0.0
H910 H 0.88576 0.37678 0.5244 0.0
H911 H 0.01101 0.40931 0.57079 0.0
C912 C 0.90582 0.19156 0.60364 0.0
N913 N 0.88394 0.1094 0.6343 0.0
C914 C 0.86802 0.15345 0.59005 0.0
C915 C 0.93311 0.18768 0.63204 0.0
C916 C 0.85733 0.11228 0.60615 0.0
C917 C 0.92131 0.14591 0.6474 0.0
C918 C 0.82933 0.27695 0.58472 0.0
C919 C 0.79008 0.23625 0.58155 0.0
C920 C 0.83048 0.31055 0.60849 0.0
C921 C 0.75257 0.22972 0.60256 0.0
C922 C 0.79225 0.30271 0.62903 0.0
N923 N 0.75443 0.2628 0.62569 0.0
C924 C 0.86271 0.26628 0.69295 0.0
C925 C 0.82573 0.19996 0.65528 0.0
C926 C 0.83718 0.24469 0.72685 0.0
N927 N 0.85758 0.24332 0.65841 0.0
C928 C 0.79977 0.17708 0.68831 0.0
C929 C 0.80604 0.19916 0.72501 0.0
H930 H 0.88727 0.30109 0.69453 0.0
H931 H 0.82049 0.18298 0.62706 0.0
C932 C 0.8882 0.18821 0.48844 0.0
N933 N 0.87039 0.2134 0.49987 0.0
C934 C 0.86494 0.15239 0.46257 0.0
C935 C 0.807 0.17119 0.45878 0.0
C936 C 0.83144 0.20669 0.48464 0.0
C937 C 0.82298 0.14253 0.44859 0.0
H938 H 0.91932 0.1945 0.5012 0.0
H939 H 0.8183 0.2275 0.49422 0.0
O940 O 0.95116 0.32769 0.62023 0.0
O941 O 0.95619 0.30576 0.53055 0.0
O942 O 0.91729 0.23207 0.5876 0.0
O943 O 0.86671 0.28369 0.56521 0.0
H944 H 0.0037 0.40762 0.64964 0.0
H945 H 0.94834 0.26812 0.67131 0.0
H946 H 0.0445 0.42313 0.71404 0.0
H947 H 0.99024 0.28589 0.73515 0.0
H948 H 0.93092 0.35683 0.41404 0.0
H949 H 0.03966 0.36313 0.51227 0.0
H950 H 0.9044 0.30734 0.47355 0.0
H951 H 0.06379 0.41168 0.45216 0.0
H952 H 0.12814 0.39204 0.58487 0.0
H953 H 0.08307 0.25689 0.54852 0.0
H954 H 0.91727 0.45002 0.49191 0.0
H955 H 0.04599 0.48174 0.5378 0.0
H956 H 0.84679 0.1557 0.56768 0.0
H957 H 0.96339 0.21651 0.64183 0.0
H958 H 0.82791 0.08261 0.59622 0.0
H959 H 0.94201 0.14248 0.66956 0.0
H960 H 0.78878 0.20973 0.56361 0.0
H961 H 0.86071 0.34218 0.61131 0.0
H962 H 0.72204 0.19829 0.60064 0.0
H963 H 0.79267 0.32832 0.64772 0.0
H964 H 0.84292 0.26302 0.75456 0.0
H965 H 0.7753 0.14229 0.68526 0.0
H966 H 0.87863 0.13139 0.45519 0.0
H967 H 0.77458 0.16457 0.44924 0.0
Li968 Li 0.71471 0.61721 0.62394 0.0
Li969 Li 0.70114 0.67091 0.59067 0.0
Li970 Li 0.66005 0.59464 0.57005 0.0
Li971 Li 0.7414 0.64118 0.55405 0.0
C972 C 0.64773 0.62644 0.6611 0.0
N973 N 0.62581 0.64054 0.7373 0.0
C974 C 0.67124 0.66835 0.67881 0.0
C975 C 0.61299 0.59175 0.68216 0.0
C976 C 0.65964 0.67482 0.71733 0.0
C977 C 0.60248 0.59952 0.72067 0.0
C978 C 0.7903 0.71627 0.6183 0.0
C979 C 0.85393 0.78887 0.60813 0.0
N980 N 0.85518 0.79677 0.6482 0.0
C981 C 0.79251 0.72493 0.65942 0.0
C982 C 0.82152 0.74829 0.59246 0.0
C983 C 0.82544 0.76591 0.67393 0.0
C984 C 0.76429 0.58665 0.66361 0.0
N985 N 0.73569 0.60166 0.67102 0.0
C986 C 0.75058 0.60502 0.74134 0.0
C987 C 0.72784 0.60995 0.70912 0.0
C988 C 0.78156 0.59104 0.73449 0.0
C989 C 0.78724 0.5806 0.69498 0.0
H990 H 0.77061 0.58094 0.63304 0.0
H991 H 0.70572 0.62249 0.71465 0.0
C992 C 0.65042 0.71168 0.59561 0.0
N993 N 0.69307 0.72114 0.59155 0.0
C994 C 0.63828 0.74251 0.58394 0.0
C995 C 0.71479 0.79355 0.5671 0.0
C996 C 0.72546 0.76169 0.5791 0.0
C997 C 0.67035 0.7832 0.5676 0.0
H998 H 0.62512 0.67875 0.6045 0.0
H999 H 0.75867 0.7679 0.57454 0.0
C1000 C 0.68896 0.53528 0.58687 0.0
N1001 N 0.65128 0.44741 0.60917 0.0
C1002 C 0.70402 0.50853 0.56991 0.0
C1003 C 0.65475 0.51738 0.61517 0.0
C1004 C 0.68455 0.46416 0.58159 0.0
C1005 C 0.63613 0.47288 0.62604 0.0
C1006 C 0.68442 0.67433 0.51162 0.0
C1007 C 0.64127 0.66593 0.5054 0.0
C1008 C 0.72008 0.71152 0.49408 0.0
C1009 C 0.63453 0.69522 0.48193 0.0
C1010 C 0.71195 0.74008 0.47091 0.0
N1011 N 0.66971 0.73142 0.46538 0.0
C1012 C 0.567 0.5415 0.56741 0.0
C1013 C 0.60492 0.54401 0.50747 0.0
C1014 C 0.52627 0.51904 0.54776 0.0
N1015 N 0.60515 0.55384 0.54694 0.0
C1016 C 0.56497 0.52178 0.48657 0.0
C1017 C 0.52496 0.50979 0.50654 0.0
H1018 H 0.56833 0.55076 0.59855 0.0
H1019 H 0.63597 0.55546 0.49179 0.0
C1020 C 0.82761 0.66635 0.53495 0.0
N1021 N 0.78776 0.65375 0.51789 0.0
C1022 C 0.86463 0.67837 0.51103 0.0
C1023 C 0.81867 0.66267 0.45214 0.0
C1024 C 0.7824 0.65141 0.47738 0.0
C1025 C 0.86049 0.6769 0.46909 0.0
H1026 H 0.83059 0.66738 0.56728 0.0
H1027 H 0.75012 0.64109 0.46476 0.0
O1028 O 0.65788 0.61934 0.62311 0.0
O1029 O 0.75892 0.67601 0.60357 0.0
O1030 O 0.70788 0.57881 0.57582 0.0
O1031 O 0.69175 0.64642 0.53499 0.0
H1032 H 0.69838 0.69556 0.66328 0.0
H1033 H 0.59438 0.55909 0.66897 0.0
H1034 H 0.67765 0.70705 0.73141 0.0
H1035 H 0.57574 0.57293 0.73732 0.0
H1036 H 0.87807 0.81407 0.58844 0.0
H1037 H 0.76923 0.70026 0.67996 0.0
H1038 H 0.82037 0.7421 0.56055 0.0
H1039 H 0.82743 0.77311 0.70568 0.0
H1040 H 0.74544 0.61433 0.77099 0.0
H1041 H 0.81008 0.56899 0.68806 0.0
H1042 H 0.60369 0.73339 0.58501 0.0
H1043 H 0.74042 0.82419 0.55403 0.0
H1044 H 0.73055 0.52196 0.548 0.0
H1045 H 0.64274 0.53758 0.62865 0.0
H1046 H 0.69588 0.44305 0.56873 0.0
H1047 H 0.60963 0.45859 0.64791 0.0
H1048 H 0.61333 0.63734 0.51887 0.0
H1049 H 0.7537 0.71858 0.49881 0.0
H1050 H 0.60134 0.68926 0.47701 0.0
H1051 H 0.73923 0.76922 0.45743 0.0
H1052 H 0.49623 0.50975 0.56451 0.0
H1053 H 0.56562 0.51579 0.45477 0.0
H1054 H 0.89613 0.68813 0.52522 0.0
H1055 H 0.81428 0.66084 0.41991 0.0
loop_
_geom_bond_atom_site_label_1
_geom_bond_atom_site_label_2
_geom_bond_distance
_geom_bond_site_symmetry_2
_ccdc_geom_bond_type
Li0 N17 1.990 . S
Li0 O60 1.956 . S
Li0 O61 1.970 . S
Li0 O62 1.961 . S
Li1 N25 1.990 . S
Li1 O60 1.970 . S
Li1 O61 1.956 . S
Li1 O63 1.961 . S
Li2 N47 1.990 . S
Li2 O60 1.961 . S
Li2 O62 1.956 . S
Li2 O63 1.970 . S
Li3 N53 1.990 . S
Li3 O61 1.961 1_655 S
Li3 O62 1.970 1_655 S
Li3 O63 1.956 1_655 S
C4 C6 1.348 . S
C4 C7 1.356 . S
C4 O60 1.325 . S
N5 C8 1.314 . S
N5 C9 1.279 . S
C6 C4 1.348 . S
C6 C8 1.353 . S
C6 H64 0.929 . S
C7 C4 1.356 . S
C7 C9 1.358 . S
C7 H65 0.930 . S
C8 N5 1.314 . S
C8 C6 1.353 . S
C8 H66 0.930 . S
C9 N5 1.279 . S
C9 C7 1.358 . S
C9 H67 0.930 . S
C10 C13 1.348 . S
C10 C14 1.356 . S
C10 O61 1.325 1_655 S
C11 N12 1.279 . S
C11 C14 1.358 . S
C11 H68 0.930 . S
N12 C11 1.279 . S
N12 C15 1.314 . S
C13 C10 1.348 . S
C13 C15 1.353 . S
C13 H69 0.929 . S
C14 C10 1.356 . S
C14 C11 1.358 . S
C14 H70 0.930 . S
C15 N12 1.314 . S
C15 C13 1.353 . S
C15 H71 0.930 . S
C16 N17 1.314 . S
C16 C21 1.353 . S
C16 H22 0.930 1_455 S
N17 Li0 1.990 . S
N17 C16 1.314 . S
N17 C19 1.279 . S
C18 C19 1.358 . S
C18 C20 1.356 . S
C18 H72 0.930 . S
C19 N17 1.279 . S
C19 C18 1.358 . S
C19 H23 0.930 . S
C20 C18 1.356 . S
C20 C21 1.348 . S
C21 C16 1.353 . S
C21 C20 1.348 . S
C21 H73 0.929 1_455 S
H22 C16 0.930 1_655 S
H23 C19 0.930 . S
C24 N25 1.314 . S
C24 C26 1.353 . S
C24 H30 0.930 . S
N25 Li1 1.990 . S
N25 C24 1.314 . S
N25 C28 1.279 . S
C26 C24 1.353 . S
C26 C29 1.348 . S
C26 H74 0.929 . S
C27 C28 1.358 . S
C27 C29 1.356 . S
C27 H75 0.930 . S
C28 N25 1.279 . S
C28 C27 1.358 . S
C28 H31 0.930 . S
C29 C26 1.348 . S
C29 C27 1.356 . S
H30 C24 0.930 . S
H31 C28 0.930 . S
C32 C34 1.348 1_455 S
C32 C35 1.356 . S
C32 O62 1.325 1_556 S
N33 C36 1.314 1_455 S
N33 C37 1.279 . S
C34 C32 1.348 1_655 S
C34 C36 1.353 . S
C34 H76 0.929 . S
C35 C32 1.356 . S
C35 C37 1.358 . S
C35 H77 0.930 . S
C36 N33 1.314 1_655 S
C36 C34 1.353 . S
C36 H78 0.930 . S
C37 N33 1.279 . S
C37 C35 1.358 . S
C37 H79 0.930 . S
C38 C39 1.348 . S
C38 C40 1.356 . S
C38 O63 1.325 . S
C39 C38 1.348 . S
C39 C41 1.353 . S
C39 H80 0.929 . S
C40 C38 1.356 . S
C40 C42 1.358 . S
C40 H81 0.930 . S
C41 C39 1.353 . S
C41 N43 1.314 . S
C41 H82 0.930 . S
C42 C40 1.358 . S
C42 N43 1.279 . S
C42 H83 0.930 . S
N43 C41 1.314 . S
N43 C42 1.279 . S
C44 C46 1.353 . S
C44 N47 1.314 . S
C44 H50 0.930 . S
C45 N47 1.279 1_556 S
C45 C48 1.358 . S
C45 H51 0.930 . S
C46 C44 1.353 . S
C46 C49 1.348 1_554 S
C46 H84 0.929 . S
N47 Li2 1.990 . S
N47 C44 1.314 . S
N47 C45 1.279 1_554 S
C48 C45 1.358 . S
C48 C49 1.356 . S
C48 H85 0.930 . S
C49 C46 1.348 1_556 S
C49 C48 1.356 . S
H50 C44 0.930 . S
H51 C45 0.930 . S
C52 N53 1.314 . S
C52 C54 1.353 . S
C52 H58 0.930 . S
N53 Li3 1.990 . S
N53 C52 1.314 . S
N53 C56 1.279 . S
C54 C52 1.353 . S
C54 C57 1.348 . S
C54 H86 0.929 . S
C55 C56 1.358 . S
C55 C57 1.356 . S
C55 H87 0.930 . S
C56 N53 1.279 . S
C56 C55 1.358 . S
C56 H59 0.930 . S
C57 C54 1.348 . S
C57 C55 1.356 . S
H58 C52 0.930 . S
H59 C56 0.930 . S
O60 Li0 1.956 . S
O60 Li1 1.970 . S
O60 Li2 1.961 . S
O60 C4 1.325 . S
O61 Li0 1.970 . S
O61 Li1 1.956 . S
O61 Li3 1.961 1_455 S
O61 C10 1.325 1_455 S
O62 Li0 1.961 . S
O62 Li2 1.956 . S
O62 Li3 1.970 1_455 S
O62 C32 1.325 1_554 S
O63 Li1 1.961 . S
O63 Li2 1.970 . S
O63 Li3 1.956 1_455 S
O63 C38 1.325 . S
H64 C6 0.929 . S
H65 C7 0.930 . S
H66 C8 0.930 . S
H67 C9 0.930 . S
H68 C11 0.930 . S
H69 C13 0.929 . S
H70 C14 0.930 . S
H71 C15 0.930 . S
H72 C18 0.930 . S
H73 C21 0.929 1_655 S
H74 C26 0.929 . S
H75 C27 0.930 . S
H76 C34 0.929 . S
H77 C35 0.930 . S
H78 C36 0.930 . S
H79 C37 0.930 . S
H80 C39 0.929 . S
H81 C40 0.930 . S
H82 C41 0.930 . S
H83 C42 0.930 . S
H84 C46 0.929 . S
H85 C48 0.930 . S
H86 C54 0.929 . S
H87 C55 0.930 . S
Li88 N105 1.990 . S
Li88 O148 1.956 . S
Li88 O149 1.970 . S
Li88 O150 1.961 . S
Li89 N113 1.990 . S
Li89 O148 1.970 . S
Li89 O149 1.956 . S
Li89 O151 1.961 . S
Li90 N135 1.990 . S
Li90 O148 1.961 . S
Li90 O150 1.956 . S
Li90 O151 1.970 . S
Li91 N141 1.990 . S
Li91 O149 1.961 . S
Li91 O150 1.970 . S
Li91 O151 1.956 . S
C92 C94 1.348 . S
C92 C95 1.356 . S
C92 O148 1.325 . S
N93 C96 1.314 . S
N93 C97 1.279 . S
C94 C92 1.348 . S
C94 C96 1.353 . S
C94 H152 0.929 . S
C95 C92 1.356 . S
C95 C97 1.358 . S
C95 H153 0.930 . S
C96 N93 1.314 . S
C96 C94 1.353 . S
C96 H154 0.930 . S
C97 N93 1.279 . S
C97 C95 1.358 . S
C97 H155 0.930 . S
C98 C101 1.348 . S
C98 C102 1.356 . S
C98 O149 1.325 . S
C99 N100 1.279 . S
C99 C102 1.358 . S
C99 H156 0.930 . S
N100 C99 1.279 . S
N100 C103 1.314 . S
C101 C98 1.348 . S
C101 C103 1.353 . S
C101 H157 0.929 . S
C102 C98 1.356 . S
C102 C99 1.358 . S
C102 H158 0.930 . S
C103 N100 1.314 . S
C103 C101 1.353 . S
C103 H159 0.930 . S
C104 N105 1.314 . S
C104 C109 1.353 . S
C104 H110 0.930 . S
N105 Li88 1.990 . S
N105 C104 1.314 . S
N105 C107 1.279 . S
C106 C107 1.358 . S
C106 C108 1.356 . S
C106 H160 0.930 . S
C107 N105 1.279 . S
C107 C106 1.358 . S
C107 H111 0.930 . S
C108 C106 1.356 . S
C108 C109 1.348 . S
C109 C104 1.353 . S
C109 C108 1.348 . S
C109 H161 0.929 . S
H110 C104 0.930 . S
H111 C107 0.930 . S
C112 N113 1.314 . S
C112 C114 1.353 . S
C112 H118 0.930 . S
N113 Li89 1.990 . S
N113 C112 1.314 . S
N113 C116 1.279 . S
C114 C112 1.353 . S
C114 C117 1.348 . S
C114 H162 0.929 . S
C115 C116 1.358 . S
C115 C117 1.356 . S
C115 H163 0.930 . S
C116 N113 1.279 . S
C116 C115 1.358 . S
C116 H119 0.930 . S
C117 C114 1.348 . S
C117 C115 1.356 . S
H118 C112 0.930 . S
H119 C116 0.930 . S
C120 C122 1.348 . S
C120 C123 1.356 . S
C120 O150 1.325 . S
N121 C124 1.314 . S
N121 C125 1.279 . S
C122 C120 1.348 . S
C122 C124 1.353 . S
C122 H164 0.929 . S
C123 C120 1.356 . S
C123 C125 1.358 . S
C123 H165 0.930 . S
C124 N121 1.314 . S
C124 C122 1.353 . S
C124 H166 0.930 . S
C125 N121 1.279 . S
C125 C123 1.358 . S
C125 H167 0.930 . S
C126 C127 1.348 . S
C126 C128 1.356 . S
C126 O151 1.325 1_556 S
C127 C126 1.348 . S
C127 C129 1.353 . S
C127 H168 0.929 . S
C128 C126 1.356 . S
C128 C130 1.358 . S
C128 H169 0.930 . S
C129 C127 1.353 . S
C129 N131 1.314 . S
C129 H170 0.930 . S
C130 C128 1.358 . S
C130 N131 1.279 . S
C130 H171 0.930 . S
N131 C129 1.314 . S
N131 C130 1.279 . S
C132 C134 1.353 . S
C132 N135 1.314 . S
C132 H138 0.930 . S
C133 N135 1.279 . S
C133 C136 1.358 . S
C133 H139 0.930 . S
C134 C132 1.353 . S
C134 C137 1.348 . S
C134 H172 0.929 . S
N135 Li90 1.990 . S
N135 C132 1.314 . S
N135 C133 1.279 . S
C136 C133 1.358 . S
C136 C137 1.356 . S
C136 H173 0.930 . S
C137 C134 1.348 . S
C137 C136 1.356 . S
H138 C132 0.930 . S
H139 C133 0.930 . S
C140 N141 1.314 . S
C140 C142 1.353 . S
C140 H146 0.930 . S
N141 Li91 1.990 . S
N141 C140 1.314 . S
N141 C144 1.279 1_554 S
C142 C140 1.353 . S
C142 C145 1.348 1_554 S
C142 H174 0.929 . S
C143 C144 1.358 . S
C143 C145 1.356 . S
C143 H175 0.930 . S
C144 N141 1.279 1_556 S
C144 C143 1.358 . S
C144 H147 0.930 . S
C145 C142 1.348 1_556 S
C145 C143 1.356 . S
H146 C140 0.930 . S
H147 C144 0.930 . S
O148 Li88 1.956 . S
O148 Li89 1.970 . S
O148 Li90 1.961 . S
O148 C92 1.325 . S
O149 Li88 1.970 . S
O149 Li89 1.956 . S
O149 Li91 1.961 . S
O149 C98 1.325 . S
O150 Li88 1.961 . S
O150 Li90 1.956 . S
O150 Li91 1.970 . S
O150 C120 1.325 . S
O151 Li89 1.961 . S
O151 Li90 1.970 . S
O151 Li91 1.956 . S
O151 C126 1.325 1_554 S
H152 C94 0.929 . S
H153 C95 0.930 . S
H154 C96 0.930 . S
H155 C97 0.930 . S
H156 C99 0.930 . S
H157 C101 0.929 . S
H158 C102 0.930 . S
H159 C103 0.930 . S
H160 C106 0.930 . S
H161 C109 0.929 . S
H162 C114 0.929 . S
H163 C115 0.930 . S
H164 C122 0.929 . S
H165 C123 0.930 . S
H166 C124 0.930 . S
H167 C125 0.930 . S
H168 C127 0.929 . S
H169 C128 0.930 . S
H170 C129 0.930 . S
H171 C130 0.930 . S
H172 C134 0.929 . S
H173 C136 0.930 . S
H174 C142 0.929 . S
H175 C143 0.930 . S
Li176 N193 1.990 . S
Li176 O236 1.961 . S
Li176 O237 1.970 . S
Li176 O238 1.961 . S
Li177 N201 1.990 . S
Li177 O236 1.979 . S
Li177 O237 1.956 . S
Li177 O239 1.961 . S
Li178 N223 1.990 . S
Li178 O236 1.956 1_545 S
Li178 O238 1.956 1_545 S
Li178 O239 1.970 1_545 S
Li179 N229 1.990 . S
Li179 O237 1.961 . S
Li179 O238 1.970 . S
Li179 O239 1.956 . S
C180 C182 1.348 . S
C180 C183 1.356 . S
C180 O236 1.320 1_545 S
N181 C184 1.314 . S
N181 C185 1.279 . S
C182 C180 1.348 . S
C182 C184 1.353 . S
C182 H240 0.929 . S
C183 C180 1.356 . S
C183 C185 1.358 . S
C183 H241 0.930 . S
C184 N181 1.314 . S
C184 C182 1.353 . S
C184 H242 0.930 . S
C185 N181 1.279 . S
C185 C183 1.358 . S
C185 H243 0.930 . S
C186 C189 1.348 . S
C186 C190 1.356 . S
C186 O237 1.325 . S
C187 N188 1.279 . S
C187 C190 1.358 . S
C187 H244 0.930 . S
N188 C187 1.279 . S
N188 C191 1.314 . S
C189 C186 1.348 . S
C189 C191 1.353 . S
C189 H245 0.929 . S
C190 C186 1.356 . S
C190 C187 1.358 . S
C190 H246 0.930 . S
C191 N188 1.314 . S
C191 C189 1.353 . S
C191 H247 0.930 . S
C192 N193 1.314 . S
C192 C197 1.353 . S
C192 H198 0.930 . S
N193 Li176 1.990 . S
N193 C192 1.314 . S
N193 C195 1.279 . S
C194 C195 1.358 . S
C194 C196 1.356 . S
C194 H248 0.930 . S
C195 N193 1.279 . S
C195 C194 1.358 . S
C195 H199 0.930 . S
C196 C194 1.356 . S
C196 C197 1.348 . S
C197 C192 1.353 . S
C197 C196 1.348 . S
C197 H249 0.929 . S
H198 C192 0.930 . S
H199 C195 0.930 . S
C200 N201 1.314 . S
C200 C202 1.353 . S
C200 H206 0.930 1_565 S
N201 Li177 1.990 . S
N201 C200 1.314 . S
N201 C204 1.279 . S
C202 C200 1.353 . S
C202 C205 1.348 . S
C202 H250 0.929 1_565 S
C203 C204 1.358 . S
C203 C205 1.356 . S
C203 H251 0.930 . S
C204 N201 1.279 . S
C204 C203 1.358 . S
C204 H207 0.930 . S
C205 C202 1.348 . S
C205 C203 1.356 . S
H206 C200 0.930 1_545 S
H207 C204 0.930 . S
C208 C210 1.348 . S
C208 C211 1.356 . S
C208 O238 1.325 . S
N209 C212 1.314 . S
N209 C213 1.279 . S
C210 C208 1.348 . S
C210 C212 1.353 . S
C210 H252 0.929 . S
C211 C208 1.356 . S
C211 C213 1.358 . S
C211 H253 0.930 . S
C212 N209 1.314 . S
C212 C210 1.353 . S
C212 H254 0.930 . S
C213 N209 1.279 . S
C213 C211 1.358 . S
C213 H255 0.930 . S
C214 C215 1.348 1_565 S
C214 C216 1.356 . S
C214 O239 1.325 1_556 S
C215 C214 1.348 1_545 S
C215 C217 1.353 . S
C215 H256 0.929 . S
C216 C214 1.356 . S
C216 C218 1.358 . S
C216 H257 0.930 . S
C217 C215 1.353 . S
C217 N219 1.314 1_545 S
C217 H258 0.930 . S
C218 C216 1.358 . S
C218 N219 1.279 . S
C218 H259 0.930 . S
N219 C217 1.314 1_565 S
N219 C218 1.279 . S
C220 C222 1.353 . S
C220 N223 1.314 . S
C220 H226 0.930 . S
C221 N223 1.279 . S
C221 C224 1.358 . S
C221 H227 0.930 . S
C222 C220 1.353 . S
C222 C225 1.348 . S
C222 H260 0.929 . S
N223 Li178 1.990 . S
N223 C220 1.314 . S
N223 C221 1.279 . S
C224 C221 1.358 . S
C224 C225 1.356 . S
C224 H261 0.930 . S
C225 C222 1.348 . S
C225 C224 1.356 . S
H226 C220 0.930 . S
H227 C221 0.930 . S
C228 N229 1.314 . S
C228 C230 1.353 . S
C228 H234 0.930 . S
N229 Li179 1.990 . S
N229 C228 1.314 . S
N229 C232 1.279 1_554 S
C230 C228 1.353 . S
C230 C233 1.348 1_554 S
C230 H262 0.929 . S
C231 C232 1.358 . S
C231 C233 1.356 . S
C231 H263 0.930 . S
C232 N229 1.279 1_556 S
C232 C231 1.358 . S
C232 H235 0.930 . S
C233 C230 1.348 1_556 S
C233 C231 1.356 . S
H234 C228 0.930 . S
H235 C232 0.930 . S
O236 Li176 1.961 . S
O236 Li177 1.979 . S
O236 Li178 1.956 1_565 S
O236 C180 1.320 1_565 S
O237 Li176 1.970 . S
O237 Li177 1.956 . S
O237 Li179 1.961 . S
O237 C186 1.325 . S
O238 Li176 1.961 . S
O238 Li178 1.956 1_565 S
O238 Li179 1.970 . S
O238 C208 1.325 . S
O239 Li177 1.961 . S
O239 Li178 1.970 1_565 S
O239 Li179 1.956 . S
O239 C214 1.325 1_554 S
H240 C182 0.929 . S
H241 C183 0.930 . S
H242 C184 0.930 . S
H243 C185 0.930 . S
H244 C187 0.930 . S
H245 C189 0.929 . S
H246 C190 0.930 . S
H247 C191 0.930 . S
H248 C194 0.930 . S
H249 C197 0.929 . S
H250 C202 0.929 1_545 S
H251 C203 0.930 . S
H252 C210 0.929 . S
H253 C211 0.930 . S
H254 C212 0.930 . S
H255 C213 0.930 . S
H256 C215 0.929 . S
H257 C216 0.930 . S
H258 C217 0.930 . S
H259 C218 0.930 . S
H260 C222 0.929 . S
H261 C224 0.930 . S
H262 C230 0.929 . S
H263 C231 0.930 . S
Li264 N281 1.990 . S
Li264 O324 1.956 . S
Li264 O325 1.970 . S
Li264 O326 1.961 . S
Li265 N289 1.990 . S
Li265 O324 1.970 1_545 S
Li265 O325 1.956 1_545 S
Li265 O327 1.964 1_545 S
Li266 N311 1.990 . S
Li266 O324 1.961 . S
Li266 O326 1.956 . S
Li266 O327 1.974 . S
Li267 N317 1.990 . S
Li267 O325 1.961 . S
Li267 O326 1.970 . S
Li267 O327 1.966 . S
C268 C270 1.348 1_565 S
C268 C271 1.356 . S
C268 O324 1.325 . S
N269 C272 1.314 1_565 S
N269 C273 1.279 . S
C270 C268 1.348 1_545 S
C270 C272 1.353 . S
C270 H328 0.929 . S
C271 C268 1.356 . S
C271 C273 1.358 . S
C271 H329 0.930 . S
C272 N269 1.314 1_545 S
C272 C270 1.353 . S
C272 H330 0.930 . S
C273 N269 1.279 . S
C273 C271 1.358 . S
C273 H331 0.930 . S
C274 C277 1.348 . S
C274 C278 1.356 . S
C274 O325 1.325 . S
C275 N276 1.279 . S
C275 C278 1.358 . S
C275 H332 0.930 . S
N276 C275 1.279 . S
N276 C279 1.314 . S
C277 C274 1.348 . S
C277 C279 1.353 . S
C277 H333 0.929 . S
C278 C274 1.356 . S
C278 C275 1.358 . S
C278 H334 0.930 . S
C279 N276 1.314 . S
C279 C277 1.353 . S
C279 H335 0.930 . S
C280 N281 1.314 . S
C280 C285 1.353 . S
C280 H286 0.930 . S
N281 Li264 1.990 . S
N281 C280 1.314 . S
N281 C283 1.279 . S
C282 C283 1.358 . S
C282 C284 1.356 . S
C282 H336 0.930 . S
C283 N281 1.279 . S
C283 C282 1.358 . S
C283 H287 0.930 . S
C284 C282 1.356 . S
C284 C285 1.348 . S
C285 C280 1.353 . S
C285 C284 1.348 . S
C285 H337 0.929 . S
H286 C280 0.930 . S
H287 C283 0.930 . S
C288 N289 1.314 . S
C288 C290 1.353 . S
C288 H294 0.930 . S
N289 Li265 1.990 . S
N289 C288 1.314 . S
N289 C292 1.279 . S
C290 C288 1.353 . S
C290 C293 1.348 . S
C290 H338 0.929 . S
C291 C292 1.358 . S
C291 C293 1.356 . S
C291 H339 0.930 . S
C292 N289 1.279 . S
C292 C291 1.358 . S
C292 H295 0.930 . S
C293 C290 1.348 . S
C293 C291 1.356 . S
H294 C288 0.930 . S
H295 C292 0.930 . S
C296 C298 1.348 . S
C296 C299 1.356 . S
C296 O326 1.325 . S
N297 C300 1.314 . S
N297 C301 1.279 . S
C298 C296 1.348 . S
C298 C300 1.353 . S
C298 H340 0.929 . S
C299 C296 1.356 . S
C299 C301 1.358 . S
C299 H341 0.930 . S
C300 N297 1.314 . S
C300 C298 1.353 . S
C300 H342 0.930 . S
C301 N297 1.279 . S
C301 C299 1.358 . S
C301 H343 0.930 . S
C302 C303 1.348 . S
C302 C304 1.356 . S
C302 O327 1.316 1_545 S
C303 C302 1.348 . S
C303 C305 1.353 . S
C303 H344 0.929 . S
C304 C302 1.356 . S
C304 C306 1.358 . S
C304 H345 0.930 . S
C305 C303 1.353 . S
C305 N307 1.314 . S
C305 H346 0.930 . S
C306 C304 1.358 . S
C306 N307 1.279 . S
C306 H347 0.930 . S
N307 C305 1.314 . S
N307 C306 1.279 . S
C308 C310 1.353 . S
C308 N311 1.314 . S
C308 H314 0.930 1_565 S
C309 N311 1.279 . S
C309 C312 1.358 . S
C309 H315 0.930 . S
C310 C308 1.353 . S
C310 C313 1.348 . S
C310 H348 0.929 1_565 S
N311 Li266 1.990 . S
N311 C308 1.314 . S
N311 C309 1.279 . S
C312 C309 1.358 . S
C312 C313 1.356 . S
C312 H349 0.930 . S
C313 C310 1.348 . S
C313 C312 1.356 . S
H314 C308 0.930 1_545 S
H315 C309 0.930 . S
C316 N317 1.314 . S
C316 C318 1.353 . S
C316 H322 0.930 . S
N317 Li267 1.990 . S
N317 C316 1.314 . S
N317 C320 1.279 . S
C318 C316 1.353 . S
C318 C321 1.348 . S
C318 H350 0.929 . S
C319 C320 1.358 . S
C319 C321 1.356 . S
C319 H351 0.930 . S
C320 N317 1.279 . S
C320 C319 1.358 . S
C320 H323 0.930 . S
C321 C318 1.348 . S
C321 C319 1.356 . S
H322 C316 0.930 . S
H323 C320 0.930 . S
O324 Li264 1.956 . S
O324 Li265 1.970 1_565 S
O324 Li266 1.961 . S
O324 C268 1.325 . S
O325 Li264 1.970 . S
O325 Li265 1.956 1_565 S
O325 Li267 1.961 . S
O325 C274 1.325 . S
O326 Li264 1.961 . S
O326 Li266 1.956 . S
O326 Li267 1.970 . S
O326 C296 1.325 . S
O327 Li265 1.964 1_565 S
O327 Li266 1.974 . S
O327 Li267 1.966 . S
O327 C302 1.316 1_565 S
H328 C270 0.929 . S
H329 C271 0.930 . S
H330 C272 0.930 . S
H331 C273 0.930 . S
H332 C275 0.930 . S
H333 C277 0.929 . S
H334 C278 0.930 . S
H335 C279 0.930 . S
H336 C282 0.930 . S
H337 C285 0.929 . S
H338 C290 0.929 . S
H339 C291 0.930 . S
H340 C298 0.929 . S
H341 C299 0.930 . S
H342 C300 0.930 . S
H343 C301 0.930 . S
H344 C303 0.929 . S
H345 C304 0.930 . S
H346 C305 0.930 . S
H347 C306 0.930 . S
H348 C310 0.929 1_545 S
H349 C312 0.930 . S
H350 C318 0.929 . S
H351 C319 0.930 . S
Li352 N369 1.990 . S
Li352 O412 1.956 . S
Li352 O413 1.970 . S
Li352 O414 1.961 . S
Li353 N377 1.990 . S
Li353 O412 1.970 1_655 S
Li353 O413 1.956 1_655 S
Li353 O415 1.965 . S
Li354 N399 1.990 . S
Li354 O412 1.961 . S
Li354 O414 1.956 . S
Li354 O415 1.963 1_455 S
Li355 N405 1.990 . S
Li355 O413 1.961 . S
Li355 O414 1.970 . S
Li355 O415 1.952 1_455 S
C356 C358 1.348 1_455 S
C356 C359 1.356 . S
C356 O412 1.325 . S
N357 C360 1.314 1_455 S
N357 C361 1.279 . S
C358 C356 1.348 1_655 S
C358 C360 1.353 . S
C358 H416 0.929 . S
C359 C356 1.356 . S
C359 C361 1.358 . S
C359 H417 0.930 . S
C360 N357 1.314 1_655 S
C360 C358 1.353 . S
C360 H418 0.930 . S
C361 N357 1.279 . S
C361 C359 1.358 . S
C361 H419 0.930 . S
C362 C365 1.348 . S
C362 C366 1.356 . S
C362 O413 1.325 . S
C363 N364 1.279 . S
C363 C366 1.358 . S
C363 H420 0.930 . S
N364 C363 1.279 . S
N364 C367 1.314 . S
C365 C362 1.348 . S
C365 C367 1.353 . S
C365 H421 0.929 . S
C366 C362 1.356 . S
C366 C363 1.358 . S
C366 H422 0.930 . S
C367 N364 1.314 . S
C367 C365 1.353 . S
C367 H423 0.930 . S
C368 N369 1.314 . S
C368 C373 1.353 . S
C368 H374 0.930 . S
N369 Li352 1.990 . S
N369 C368 1.314 . S
N369 C371 1.279 . S
C370 C371 1.358 . S
C370 C372 1.356 . S
C370 H424 0.930 . S
C371 N369 1.279 . S
C371 C370 1.358 . S
C371 H375 0.930 . S
C372 C370 1.356 . S
C372 C373 1.348 . S
C373 C368 1.353 . S
C373 C372 1.348 . S
C373 H425 0.929 . S
H374 C368 0.930 . S
H375 C371 0.930 . S
C376 N377 1.314 . S
C376 C378 1.353 . S
C376 H382 0.930 . S
N377 Li353 1.990 . S
N377 C376 1.314 . S
N377 C380 1.279 . S
C378 C376 1.353 . S
C378 C381 1.348 . S
C378 H426 0.929 . S
C379 C380 1.358 . S
C379 C381 1.356 . S
C379 H427 0.930 . S
C380 N377 1.279 . S
C380 C379 1.358 . S
C380 H383 0.930 . S
C381 C378 1.348 . S
C381 C379 1.356 . S
H382 C376 0.930 . S
H383 C380 0.930 . S
C384 C386 1.348 . S
C384 C387 1.356 . S
C384 O414 1.325 . S
N385 C388 1.314 . S
N385 C389 1.279 . S
C386 C384 1.348 . S
C386 C388 1.353 . S
C386 H428 0.929 . S
C387 C384 1.356 . S
C387 C389 1.358 . S
C387 H429 0.930 . S
C388 N385 1.314 . S
C388 C386 1.353 . S
C388 H430 0.930 . S
C389 N385 1.279 . S
C389 C387 1.358 . S
C389 H431 0.930 . S
C390 C391 1.348 . S
C390 C392 1.356 . S
C390 O415 1.328 . S
C391 C390 1.348 . S
C391 C393 1.353 . S
C391 H432 0.929 . S
C392 C390 1.356 . S
C392 C394 1.358 . S
C392 H433 0.930 . S
C393 C391 1.353 . S
C393 N395 1.314 . S
C393 H434 0.930 . S
C394 C392 1.358 . S
C394 N395 1.279 . S
C394 H435 0.930 . S
N395 C393 1.314 . S
N395 C394 1.279 . S
C396 C398 1.353 . S
C396 N399 1.314 . S
C396 H402 0.930 1_455 S
C397 N399 1.279 . S
C397 C400 1.358 . S
C397 H403 0.930 . S
C398 C396 1.353 . S
C398 C401 1.348 . S
C398 H436 0.929 1_455 S
N399 Li354 1.990 . S
N399 C396 1.314 . S
N399 C397 1.279 . S
C400 C397 1.358 . S
C400 C401 1.356 . S
C400 H437 0.930 . S
C401 C398 1.348 . S
C401 C400 1.356 . S
H402 C396 0.930 1_655 S
H403 C397 0.930 . S
C404 N405 1.314 . S
C404 C406 1.353 . S
C404 H410 0.930 . S
N405 Li355 1.990 . S
N405 C404 1.314 . S
N405 C408 1.279 . S
C406 C404 1.353 . S
C406 C409 1.348 . S
C406 H438 0.929 . S
C407 C408 1.358 . S
C407 C409 1.356 . S
C407 H439 0.930 . S
C408 N405 1.279 . S
C408 C407 1.358 . S
C408 H411 0.930 . S
C409 C406 1.348 . S
C409 C407 1.356 . S
H410 C404 0.930 . S
H411 C408 0.930 . S
O412 Li352 1.956 . S
O412 Li353 1.970 1_455 S
O412 Li354 1.961 . S
O412 C356 1.325 . S
O413 Li352 1.970 . S
O413 Li353 1.956 1_455 S
O413 Li355 1.961 . S
O413 C362 1.325 . S
O414 Li352 1.961 . S
O414 Li354 1.956 . S
O414 Li355 1.970 . S
O414 C384 1.325 . S
O415 Li353 1.965 . S
O415 Li354 1.963 1_655 S
O415 Li355 1.952 1_655 S
O415 C390 1.328 . S
H416 C358 0.929 . S
H417 C359 0.930 . S
H418 C360 0.930 . S
H419 C361 0.930 . S
H420 C363 0.930 . S
H421 C365 0.929 . S
H422 C366 0.930 . S
H423 C367 0.930 . S
H424 C370 0.930 . S
H425 C373 0.929 . S
H426 C378 0.929 . S
H427 C379 0.930 . S
H428 C386 0.929 . S
H429 C387 0.930 . S
H430 C388 0.930 . S
H431 C389 0.930 . S
H432 C391 0.929 . S
H433 C392 0.930 . S
H434 C393 0.930 . S
H435 C394 0.930 . S
H436 C398 0.929 1_655 S
H437 C400 0.930 . S
H438 C406 0.929 . S
H439 C407 0.930 . S
Li440 N457 1.990 . S
Li440 O500 1.956 . S
Li440 O501 1.970 . S
Li440 O502 1.961 . S
Li441 N465 1.990 . S
Li441 O500 1.970 . S
Li441 O501 1.956 . S
Li441 O503 1.961 . S
Li442 N487 1.990 . S
Li442 O500 1.961 . S
Li442 O502 1.956 . S
Li442 O503 1.970 . S
Li443 N493 1.990 . S
Li443 O501 1.961 . S
Li443 O502 1.970 . S
Li443 O503 1.956 . S
C444 C446 1.348 . S
C444 C447 1.356 . S
C444 O500 1.325 . S
N445 C448 1.314 . S
N445 C449 1.279 . S
C446 C444 1.348 . S
C446 C448 1.353 . S
C446 H504 0.929 . S
C447 C444 1.356 . S
C447 C449 1.358 . S
C447 H505 0.930 . S
C448 N445 1.314 . S
C448 C446 1.353 . S
C448 H506 0.930 . S
C449 N445 1.279 . S
C449 C447 1.358 . S
C449 H507 0.930 . S
C450 C453 1.348 . S
C450 C454 1.356 . S
C450 O501 1.325 . S
C451 N452 1.279 . S
C451 C454 1.358 . S
C451 H508 0.930 . S
N452 C451 1.279 . S
N452 C455 1.314 . S
C453 C450 1.348 . S
C453 C455 1.353 . S
C453 H509 0.929 . S
C454 C450 1.356 . S
C454 C451 1.358 . S
C454 H510 0.930 . S
C455 N452 1.314 . S
C455 C453 1.353 . S
C455 H511 0.930 . S
C456 N457 1.314 . S
C456 C461 1.353 . S
C456 H462 0.930 . S
N457 Li440 1.990 . S
N457 C456 1.314 . S
N457 C459 1.279 . S
C458 C459 1.358 . S
C458 C460 1.356 . S
C458 H512 0.930 . S
C459 N457 1.279 . S
C459 C458 1.358 . S
C459 H463 0.930 . S
C460 C458 1.356 . S
C460 C461 1.348 . S
C461 C456 1.353 . S
C461 C460 1.348 . S
C461 H513 0.929 . S
H462 C456 0.930 . S
H463 C459 0.930 . S
C464 N465 1.314 . S
C464 C466 1.353 . S
C464 H470 0.930 . S
N465 Li441 1.990 . S
N465 C464 1.314 . S
N465 C468 1.279 . S
C466 C464 1.353 . S
C466 C469 1.348 . S
C466 H514 0.929 . S
C467 C468 1.358 . S
C467 C469 1.356 . S
C467 H515 0.930 . S
C468 N465 1.279 . S
C468 C467 1.358 . S
C468 H471 0.930 . S
C469 C466 1.348 . S
C469 C467 1.356 . S
H470 C464 0.930 . S
H471 C468 0.930 . S
C472 C474 1.348 . S
C472 C475 1.356 . S
C472 O502 1.325 . S
N473 C476 1.314 . S
N473 C477 1.279 . S
C474 C472 1.348 . S
C474 C476 1.353 . S
C474 H516 0.929 . S
C475 C472 1.356 . S
C475 C477 1.358 . S
C475 H517 0.930 . S
C476 N473 1.314 . S
C476 C474 1.353 . S
C476 H518 0.930 . S
C477 N473 1.279 . S
C477 C475 1.358 . S
C477 H519 0.930 . S
C478 C479 1.348 . S
C478 C480 1.356 . S
C478 O503 1.325 . S
C479 C478 1.348 . S
C479 C481 1.353 . S
C479 H520 0.929 . S
C480 C478 1.356 . S
C480 C482 1.358 . S
C480 H521 0.930 . S
C481 C479 1.353 . S
C481 N483 1.314 . S
C481 H522 0.930 . S
C482 C480 1.358 . S
C482 N483 1.279 . S
C482 H523 0.930 . S
N483 C481 1.314 . S
N483 C482 1.279 . S
C484 C486 1.353 . S
C484 N487 1.314 . S
C484 H490 0.930 . S
C485 N487 1.279 . S
C485 C488 1.358 . S
C485 H491 0.930 . S
C486 C484 1.353 . S
C486 C489 1.348 . S
C486 H524 0.929 . S
N487 Li442 1.990 . S
N487 C484 1.314 . S
N487 C485 1.279 . S
C488 C485 1.358 . S
C488 C489 1.356 . S
C488 H525 0.930 . S
C489 C486 1.348 . S
C489 C488 1.356 . S
H490 C484 0.930 . S
H491 C485 0.930 . S
C492 N493 1.314 . S
C492 C494 1.353 . S
C492 H498 0.930 . S
N493 Li443 1.990 . S
N493 C492 1.314 . S
N493 C496 1.279 . S
C494 C492 1.353 . S
C494 C497 1.348 . S
C494 H526 0.929 . S
C495 C496 1.358 . S
C495 C497 1.356 . S
C495 H527 0.930 . S
C496 N493 1.279 . S
C496 C495 1.358 . S
C496 H499 0.930 . S
C497 C494 1.348 . S
C497 C495 1.356 . S
H498 C492 0.930 . S
H499 C496 0.930 . S
O500 Li440 1.956 . S
O500 Li441 1.970 . S
O500 Li442 1.961 . S
O500 C444 1.325 . S
O501 Li440 1.970 . S
O501 Li441 1.956 . S
O501 Li443 1.961 . S
O501 C450 1.325 . S
O502 Li440 1.961 . S
O502 Li442 1.956 . S
O502 Li443 1.970 . S
O502 C472 1.325 . S
O503 Li441 1.961 . S
O503 Li442 1.970 . S
O503 Li443 1.956 . S
O503 C478 1.325 . S
H504 C446 0.929 . S
H505 C447 0.930 . S
H506 C448 0.930 . S
H507 C449 0.930 . S
H508 C451 0.930 . S
H509 C453 0.929 . S
H510 C454 0.930 . S
H511 C455 0.930 . S
H512 C458 0.930 . S
H513 C461 0.929 . S
H514 C466 0.929 . S
H515 C467 0.930 . S
H516 C474 0.929 . S
H517 C475 0.930 . S
H518 C476 0.930 . S
H519 C477 0.930 . S
H520 C479 0.929 . S
H521 C480 0.930 . S
H522 C481 0.930 . S
H523 C482 0.930 . S
H524 C486 0.929 . S
H525 C488 0.930 . S
H526 C494 0.929 . S
H527 C495 0.930 . S
Li528 N545 1.990 . S
Li528 O588 1.956 . S
Li528 O589 1.970 . S
Li528 O590 1.961 . S
Li529 N553 1.990 . S
Li529 O588 1.970 . S
Li529 O589 1.956 . S
Li529 O591 1.961 1_655 S
Li530 N575 1.990 . S
Li530 O588 1.961 1_455 S
Li530 O590 1.956 1_455 S
Li530 O591 1.970 . S
Li531 N581 1.990 . S
Li531 O589 1.961 . S
Li531 O590 1.970 . S
Li531 O591 1.956 1_655 S
C532 C534 1.348 . S
C532 C535 1.356 . S
C532 O588 1.325 1_554 S
N533 C536 1.314 1_455 S
N533 C537 1.279 . S
C534 C532 1.348 . S
C534 C536 1.353 . S
C534 H592 0.929 . S
C535 C532 1.356 . S
C535 C537 1.358 1_655 S
C535 H593 0.930 1_655 S
C536 N533 1.314 1_655 S
C536 C534 1.353 . S
C536 H594 0.930 . S
C537 N533 1.279 . S
C537 C535 1.358 1_455 S
C537 H595 0.930 . S
C538 C541 1.348 . S
C538 C542 1.356 . S
C538 O589 1.325 . S
C539 N540 1.279 . S
C539 C542 1.358 . S
C539 H596 0.930 . S
N540 C539 1.279 . S
N540 C543 1.314 . S
C541 C538 1.348 . S
C541 C543 1.353 . S
C541 H597 0.929 . S
C542 C538 1.356 . S
C542 C539 1.358 . S
C542 H598 0.930 . S
C543 N540 1.314 . S
C543 C541 1.353 . S
C543 H599 0.930 . S
C544 N545 1.314 . S
C544 C549 1.353 . S
C544 H550 0.930 . S
N545 Li528 1.990 . S
N545 C544 1.314 . S
N545 C547 1.279 1_556 S
C546 C547 1.358 . S
C546 C548 1.356 . S
C546 H600 0.930 . S
C547 N545 1.279 1_554 S
C547 C546 1.358 . S
C547 H551 0.930 . S
C548 C546 1.356 . S
C548 C549 1.348 1_554 S
C549 C544 1.353 . S
C549 C548 1.348 1_556 S
C549 H601 0.929 . S
H550 C544 0.930 . S
H551 C547 0.930 . S
C552 N553 1.311 1_455 S
C552 C554 1.355 . S
C552 H558 0.931 . S
N553 Li529 1.990 . S
N553 C552 1.311 1_655 S
N553 C556 1.279 . S
C554 C552 1.355 . S
C554 C557 1.348 1_455 S
C554 H602 0.929 . S
C555 C556 1.358 . S
C555 C557 1.356 . S
C555 H603 0.930 . S
C556 N553 1.279 . S
C556 C555 1.358 . S
C556 H559 0.930 . S
C557 C554 1.348 1_655 S
C557 C555 1.356 . S
H558 C552 0.931 . S
H559 C556 0.930 . S
C560 C562 1.348 . S
C560 C563 1.356 . S
C560 O590 1.325 . S
N561 C564 1.314 . S
N561 C565 1.279 . S
C562 C560 1.348 . S
C562 C564 1.353 . S
C562 H604 0.929 . S
C563 C560 1.356 . S
C563 C565 1.358 . S
C563 H605 0.930 . S
C564 N561 1.314 . S
C564 C562 1.353 . S
C564 H606 0.930 . S
C565 N561 1.279 . S
C565 C563 1.358 . S
C565 H607 0.930 . S
C566 C567 1.348 . S
C566 C568 1.356 . S
C566 O591 1.325 . S
C567 C566 1.348 . S
C567 C569 1.353 . S
C567 H608 0.929 . S
C568 C566 1.356 . S
C568 C570 1.358 . S
C568 H609 0.930 1_455 S
C569 C567 1.353 . S
C569 N571 1.314 . S
C569 H610 0.930 . S
C570 C568 1.358 . S
C570 N571 1.279 . S
C570 H611 0.930 . S
N571 C569 1.314 . S
N571 C570 1.279 . S
C572 C574 1.353 . S
C572 N575 1.314 . S
C572 H578 0.930 . S
C573 N575 1.279 . S
C573 C576 1.358 . S
C573 H579 0.930 . S
C574 C572 1.353 . S
C574 C577 1.348 . S
C574 H612 0.929 . S
N575 Li530 1.990 . S
N575 C572 1.314 . S
N575 C573 1.279 . S
C576 C573 1.358 . S
C576 C577 1.356 . S
C576 H613 0.930 . S
C577 C574 1.348 . S
C577 C576 1.356 . S
H578 C572 0.930 . S
H579 C573 0.930 . S
C580 N581 1.314 . S
C580 C582 1.353 . S
C580 H586 0.930 . S
N581 Li531 1.990 . S
N581 C580 1.314 . S
N581 C584 1.279 . S
C582 C580 1.353 . S
C582 C585 1.348 . S
C582 H614 0.929 . S
C583 C584 1.358 . S
C583 C585 1.356 . S
C583 H615 0.930 . S
C584 N581 1.279 . S
C584 C583 1.358 . S
C584 H587 0.930 . S
C585 C582 1.348 . S
C585 C583 1.356 . S
H586 C580 0.930 . S
H587 C584 0.930 . S
O588 Li528 1.956 . S
O588 Li529 1.970 . S
O588 Li530 1.961 1_655 S
O588 C532 1.325 1_556 S
O589 Li528 1.970 . S
O589 Li529 1.956 . S
O589 Li531 1.961 . S
O589 C538 1.325 . S
O590 Li528 1.961 . S
O590 Li530 1.956 1_655 S
O590 Li531 1.970 . S
O590 C560 1.325 . S
O591 Li529 1.961 1_455 S
O591 Li530 1.970 . S
O591 Li531 1.956 1_455 S
O591 C566 1.325 . S
H592 C534 0.929 . S
H593 C535 0.930 1_455 S
H594 C536 0.930 . S
H595 C537 0.930 . S
H596 C539 0.930 . S
H597 C541 0.929 . S
H598 C542 0.930 . S
H599 C543 0.930 . S
H600 C546 0.930 . S
H601 C549 0.929 . S
H602 C554 0.929 . S
H603 C555 0.930 . S
H604 C562 0.929 . S
H605 C563 0.930 . S
H606 C564 0.930 . S
H607 C565 0.930 . S
H608 C567 0.929 . S
H609 C568 0.930 1_655 S
H610 C569 0.930 . S
H611 C570 0.930 . S
H612 C574 0.929 . S
H613 C576 0.930 . S
H614 C582 0.929 . S
H615 C583 0.930 . S
Li616 N633 1.990 . S
Li616 O676 1.956 . S
Li616 O677 1.970 . S
Li616 O678 1.961 . S
Li617 N641 1.990 . S
Li617 O676 1.970 . S
Li617 O677 1.956 . S
Li617 O679 1.961 . S
Li618 N663 1.990 . S
Li618 O676 1.961 . S
Li618 O678 1.956 . S
Li618 O679 1.970 . S
Li619 N669 1.990 . S
Li619 O677 1.961 . S
Li619 O678 1.970 . S
Li619 O679 1.956 . S
C620 C622 1.348 . S
C620 C623 1.356 . S
C620 O676 1.325 . S
N621 C624 1.314 . S
N621 C625 1.279 . S
C622 C620 1.348 . S
C622 C624 1.353 . S
C622 H680 0.929 . S
C623 C620 1.356 . S
C623 C625 1.358 . S
C623 H681 0.930 . S
C624 N621 1.314 . S
C624 C622 1.353 . S
C624 H682 0.930 . S
C625 N621 1.279 . S
C625 C623 1.358 . S
C625 H683 0.930 . S
C626 C629 1.348 . S
C626 C630 1.356 . S
C626 O677 1.325 1_554 S
C627 N628 1.279 . S
C627 C630 1.358 . S
C627 H684 0.930 . S
N628 C627 1.279 . S
N628 C631 1.314 . S
C629 C626 1.348 . S
C629 C631 1.353 . S
C629 H685 0.929 . S
C630 C626 1.356 . S
C630 C627 1.358 . S
C630 H686 0.930 . S
C631 N628 1.314 . S
C631 C629 1.353 . S
C631 H687 0.930 . S
C632 N633 1.314 . S
C632 C637 1.353 . S
C632 H638 0.930 . S
N633 Li616 1.990 . S
N633 C632 1.314 . S
N633 C635 1.279 . S
C634 C635 1.358 . S
C634 C636 1.356 . S
C634 H688 0.930 . S
C635 N633 1.279 . S
C635 C634 1.358 . S
C635 H639 0.930 . S
C636 C634 1.356 . S
C636 C637 1.348 . S
C637 C632 1.353 . S
C637 C636 1.348 . S
C637 H689 0.929 . S
H638 C632 0.930 . S
H639 C635 0.930 . S
C640 N641 1.314 . S
C640 C642 1.353 . S
C640 H646 0.930 . S
N641 Li617 1.990 . S
N641 C640 1.314 . S
N641 C644 1.279 . S
C642 C640 1.353 . S
C642 C645 1.348 . S
C642 H690 0.929 . S
C643 C644 1.358 . S
C643 C645 1.356 . S
C643 H691 0.930 1_556 S
C644 N641 1.279 . S
C644 C643 1.358 . S
C644 H647 0.930 . S
C645 C642 1.348 . S
C645 C643 1.356 . S
H646 C640 0.930 . S
H647 C644 0.930 . S
C648 C650 1.348 . S
C648 C651 1.356 . S
C648 O678 1.325 . S
N649 C652 1.314 . S
N649 C653 1.279 . S
C650 C648 1.348 . S
C650 C652 1.353 . S
C650 H692 0.929 . S
C651 C648 1.356 . S
C651 C653 1.358 . S
C651 H693 0.930 . S
C652 N649 1.314 . S
C652 C650 1.353 . S
C652 H694 0.930 . S
C653 N649 1.279 . S
C653 C651 1.358 . S
C653 H695 0.930 . S
C654 C655 1.348 . S
C654 C656 1.356 . S
C654 O679 1.325 . S
C655 C654 1.348 . S
C655 C657 1.353 . S
C655 H696 0.929 . S
C656 C654 1.356 . S
C656 C658 1.358 . S
C656 H697 0.930 . S
C657 C655 1.353 . S
C657 N659 1.314 . S
C657 H698 0.930 . S
C658 C656 1.358 . S
C658 N659 1.279 . S
C658 H699 0.930 . S
N659 C657 1.314 . S
N659 C658 1.279 . S
C660 C662 1.353 . S
C660 N663 1.314 . S
C660 H666 0.930 . S
C661 N663 1.279 . S
C661 C664 1.358 . S
C661 H667 0.930 . S
C662 C660 1.353 . S
C662 C665 1.348 . S
C662 H700 0.929 . S
N663 Li618 1.990 . S
N663 C660 1.314 . S
N663 C661 1.279 . S
C664 C661 1.358 . S
C664 C665 1.356 . S
C664 H701 0.930 . S
C665 C662 1.348 . S
C665 C664 1.356 . S
H666 C660 0.930 . S
H667 C661 0.930 . S
C668 N669 1.314 1_554 S
C668 C670 1.353 . S
C668 H674 0.930 . S
N669 Li619 1.990 . S
N669 C668 1.314 1_556 S
N669 C672 1.279 . S
C670 C668 1.353 . S
C670 C673 1.348 . S
C670 H702 0.929 . S
C671 C672 1.358 . S
C671 C673 1.356 1_556 S
C671 H703 0.930 . S
C672 N669 1.279 . S
C672 C671 1.358 . S
C672 H675 0.930 . S
C673 C670 1.348 . S
C673 C671 1.356 1_554 S
H674 C668 0.930 . S
H675 C672 0.930 . S
O676 Li616 1.956 . S
O676 Li617 1.970 . S
O676 Li618 1.961 . S
O676 C620 1.325 . S
O677 Li616 1.970 . S
O677 Li617 1.956 . S
O677 Li619 1.961 . S
O677 C626 1.325 1_556 S
O678 Li616 1.961 . S
O678 Li618 1.956 . S
O678 Li619 1.970 . S
O678 C648 1.325 . S
O679 Li617 1.961 . S
O679 Li618 1.970 . S
O679 Li619 1.956 . S
O679 C654 1.325 . S
H680 C622 0.929 . S
H681 C623 0.930 . S
H682 C624 0.930 . S
H683 C625 0.930 . S
H684 C627 0.930 . S
H685 C629 0.929 . S
H686 C630 0.930 . S
H687 C631 0.930 . S
H688 C634 0.930 . S
H689 C637 0.929 . S
H690 C642 0.929 . S
H691 C643 0.930 1_554 S
H692 C650 0.929 . S
H693 C651 0.930 . S
H694 C652 0.930 . S
H695 C653 0.930 . S
H696 C655 0.929 . S
H697 C656 0.930 . S
H698 C657 0.930 . S
H699 C658 0.930 . S
H700 C662 0.929 . S
H701 C664 0.930 . S
H702 C670 0.929 . S
H703 C671 0.930 . S
Li704 N721 1.990 . S
Li704 O764 1.956 . S
Li704 O765 1.970 . S
Li704 O766 1.973 . S
Li705 N729 1.990 . S
Li705 O764 1.970 . S
Li705 O765 1.956 . S
Li705 O767 1.961 . S
Li706 N751 1.990 . S
Li706 O764 1.961 1_565 S
Li706 O766 1.942 1_565 S
Li706 O767 1.970 1_565 S
Li707 N757 1.990 . S
Li707 O765 1.961 . S
Li707 O766 1.991 . S
Li707 O767 1.956 . S
C708 C710 1.348 . S
C708 C711 1.356 . S
C708 O764 1.325 . S
N709 C712 1.314 . S
N709 C713 1.279 . S
C710 C708 1.348 . S
C710 C712 1.353 . S
C710 H768 0.929 . S
C711 C708 1.356 . S
C711 C713 1.358 . S
C711 H769 0.930 1_545 S
C712 N709 1.314 . S
C712 C710 1.353 . S
C712 H770 0.930 . S
C713 N709 1.279 . S
C713 C711 1.358 . S
C713 H771 0.930 1_545 S
C714 C717 1.348 . S
C714 C718 1.356 . S
C714 O765 1.325 . S
C715 N716 1.279 . S
C715 C718 1.358 . S
C715 H772 0.930 . S
N716 C715 1.279 . S
N716 C719 1.314 . S
C717 C714 1.348 . S
C717 C719 1.353 . S
C717 H773 0.929 . S
C718 C714 1.356 . S
C718 C715 1.358 . S
C718 H774 0.930 . S
C719 N716 1.314 . S
C719 C717 1.353 . S
C719 H775 0.930 . S
C720 N721 1.314 . S
C720 C725 1.353 . S
C720 H726 0.930 . S
N721 Li704 1.990 . S
N721 C720 1.314 . S
N721 C723 1.279 . S
C722 C723 1.358 . S
C722 C724 1.356 . S
C722 H776 0.930 . S
C723 N721 1.279 . S
C723 C722 1.358 . S
C723 H727 0.930 . S
C724 C722 1.356 . S
C724 C725 1.348 . S
C725 C720 1.353 . S
C725 C724 1.348 . S
C725 H777 0.929 . S
H726 C720 0.930 . S
H727 C723 0.930 . S
C728 N729 1.314 1_554 S
C728 C730 1.353 . S
C728 H734 0.930 . S
N729 Li705 1.990 . S
N729 C728 1.314 1_556 S
N729 C732 1.279 . S
C730 C728 1.353 . S
C730 C733 1.348 . S
C730 H778 0.929 . S
C731 C732 1.358 . S
C731 C733 1.356 1_556 S
C731 H779 0.930 . S
C732 N729 1.279 . S
C732 C731 1.358 . S
C732 H735 0.930 . S
C733 C730 1.348 . S
C733 C731 1.356 1_554 S
H734 C728 0.930 . S
H735 C732 0.930 . S
C736 C738 1.348 . S
C736 C739 1.356 . S
C736 O766 1.312 1_565 S
N737 C740 1.314 . S
N737 C741 1.279 . S
C738 C736 1.348 . S
C738 C740 1.353 . S
C738 H780 0.929 . S
C739 C736 1.356 . S
C739 C741 1.358 . S
C739 H781 0.930 . S
C740 N737 1.314 . S
C740 C738 1.353 . S
C740 H782 0.930 . S
C741 N737 1.279 . S
C741 C739 1.358 . S
C741 H783 0.930 . S
C742 C743 1.348 1_545 S
C742 C744 1.356 . S
C742 O767 1.325 1_554 S
C743 C742 1.348 1_565 S
C743 C745 1.353 . S
C743 H784 0.929 . S
C744 C742 1.356 . S
C744 C746 1.358 . S
C744 H785 0.930 . S
C745 C743 1.353 . S
C745 N747 1.314 . S
C745 H786 0.930 . S
C746 C744 1.358 . S
C746 N747 1.279 1_545 S
C746 H787 0.930 . S
N747 C745 1.314 . S
N747 C746 1.279 1_565 S
C748 C750 1.353 . S
C748 N751 1.314 . S
C748 H754 0.930 . S
C749 N751 1.279 . S
C749 C752 1.358 . S
C749 H755 0.930 . S
C750 C748 1.353 . S
C750 C753 1.348 . S
C750 H788 0.929 . S
N751 Li706 1.990 . S
N751 C748 1.314 . S
N751 C749 1.279 . S
C752 C749 1.358 . S
C752 C753 1.356 . S
C752 H789 0.930 . S
C753 C750 1.348 . S
C753 C752 1.356 . S
H754 C748 0.930 . S
H755 C749 0.930 . S
C756 N757 1.314 . S
C756 C758 1.353 . S
C756 H762 0.930 . S
N757 Li707 1.990 . S
N757 C756 1.314 . S
N757 C760 1.279 . S
C758 C756 1.353 . S
C758 C761 1.348 . S
C758 H790 0.929 . S
C759 C760 1.358 . S
C759 C761 1.356 . S
C759 H791 0.930 1_556 S
C760 N757 1.279 . S
C760 C759 1.358 . S
C760 H763 0.930 . S
C761 C758 1.348 . S
C761 C759 1.356 . S
H762 C756 0.930 . S
H763 C760 0.930 . S
O764 Li704 1.956 . S
O764 Li705 1.970 . S
O764 Li706 1.961 1_545 S
O764 C708 1.325 . S
O765 Li704 1.970 . S
O765 Li705 1.956 . S
O765 Li707 1.961 . S
O765 C714 1.325 . S
O766 Li704 1.973 . S
O766 Li706 1.942 1_545 S
O766 Li707 1.991 . S
O766 C736 1.312 1_545 S
O767 Li705 1.961 . S
O767 Li706 1.970 1_545 S
O767 Li707 1.956 . S
O767 C742 1.325 1_556 S
H768 C710 0.929 . S
H769 C711 0.930 1_565 S
H770 C712 0.930 . S
H771 C713 0.930 1_565 S
H772 C715 0.930 . S
H773 C717 0.929 . S
H774 C718 0.930 . S
H775 C719 0.930 . S
H776 C722 0.930 . S
H777 C725 0.929 . S
H778 C730 0.929 . S
H779 C731 0.930 . S
H780 C738 0.929 . S
H781 C739 0.930 . S
H782 C740 0.930 . S
H783 C741 0.930 . S
H784 C743 0.929 . S
H785 C744 0.930 . S
H786 C745 0.930 . S
H787 C746 0.930 . S
H788 C750 0.929 . S
H789 C752 0.930 . S
H790 C758 0.929 . S
H791 C759 0.930 1_554 S
Li792 N809 1.990 . S
Li792 O852 1.956 . S
Li792 O853 1.970 . S
Li792 O854 1.961 . S
Li793 N817 1.990 . S
Li793 O852 1.970 . S
Li793 O853 1.956 . S
Li793 O855 1.989 . S
Li794 N839 1.990 . S
Li794 O852 1.961 . S
Li794 O854 1.956 . S
Li794 O855 1.979 . S
Li795 N845 1.990 . S
Li795 O853 1.961 1_565 S
Li795 O854 1.970 1_565 S
Li795 O855 1.964 1_565 S
C796 C798 1.348 . S
C796 C799 1.356 . S
C796 O852 1.325 . S
N797 C800 1.314 . S
N797 C801 1.279 . S
C798 C796 1.348 . S
C798 C800 1.353 . S
C798 H856 0.929 . S
C799 C796 1.356 . S
C799 C801 1.358 . S
C799 H857 0.930 . S
C800 N797 1.314 . S
C800 C798 1.353 . S
C800 H858 0.930 . S
C801 N797 1.279 . S
C801 C799 1.358 . S
C801 H859 0.930 . S
C802 C805 1.348 . S
C802 C806 1.356 . S
C802 O853 1.325 . S
C803 N804 1.279 . S
C803 C806 1.358 . S
C803 H860 0.930 1_545 S
N804 C803 1.279 . S
N804 C807 1.314 . S
C805 C802 1.348 . S
C805 C807 1.353 . S
C805 H861 0.929 . S
C806 C802 1.356 . S
C806 C803 1.358 . S
C806 H862 0.930 1_545 S
C807 N804 1.314 . S
C807 C805 1.353 . S
C807 H863 0.930 . S
C808 N809 1.314 . S
C808 C813 1.353 . S
C808 H814 0.930 . S
N809 Li792 1.990 . S
N809 C808 1.314 . S
N809 C811 1.279 . S
C810 C811 1.358 . S
C810 C812 1.356 . S
C810 H864 0.930 . S
C811 N809 1.279 . S
C811 C810 1.358 . S
C811 H815 0.930 . S
C812 C810 1.356 . S
C812 C813 1.348 . S
C813 C808 1.353 . S
C813 C812 1.348 . S
C813 H865 0.929 . S
H814 C808 0.930 . S
H815 C811 0.930 . S
C816 N817 1.314 . S
C816 C818 1.353 . S
C816 H822 0.930 . S
N817 Li793 1.990 . S
N817 C816 1.314 . S
N817 C820 1.279 . S
C818 C816 1.353 . S
C818 C821 1.348 . S
C818 H866 0.929 . S
C819 C820 1.358 . S
C819 C821 1.356 . S
C819 H867 0.930 . S
C820 N817 1.279 . S
C820 C819 1.358 . S
C820 H823 0.930 . S
C821 C818 1.348 . S
C821 C819 1.356 . S
H822 C816 0.930 . S
H823 C820 0.930 . S
C824 C826 1.348 1_545 S
C824 C827 1.356 . S
C824 O854 1.325 . S
N825 C828 1.314 . S
N825 C829 1.279 1_565 S
C826 C824 1.348 1_565 S
C826 C828 1.353 . S
C826 H868 0.929 . S
C827 C824 1.356 . S
C827 C829 1.358 . S
C827 H869 0.930 . S
C828 N825 1.314 . S
C828 C826 1.353 . S
C828 H870 0.930 . S
C829 N825 1.279 1_545 S
C829 C827 1.358 . S
C829 H871 0.930 . S
C830 C831 1.348 . S
C830 C832 1.356 . S
C830 O855 1.300 1_565 S
C831 C830 1.348 . S
C831 C833 1.353 . S
C831 H872 0.929 . S
C832 C830 1.356 . S
C832 C834 1.358 . S
C832 H873 0.930 . S
C833 C831 1.353 . S
C833 N835 1.314 . S
C833 H874 0.930 . S
C834 C832 1.358 . S
C834 N835 1.279 . S
C834 H875 0.930 . S
N835 C833 1.314 . S
N835 C834 1.279 . S
C836 C838 1.353 . S
C836 N839 1.314 . S
C836 H842 0.930 . S
C837 N839 1.279 . S
C837 C840 1.358 . S
C837 H843 0.930 . S
C838 C836 1.353 . S
C838 C841 1.348 . S
C838 H876 0.929 . S
N839 Li794 1.990 . S
N839 C836 1.314 . S
N839 C837 1.279 . S
C840 C837 1.358 . S
C840 C841 1.356 . S
C840 H877 0.930 . S
C841 C838 1.348 . S
C841 C840 1.356 . S
H842 C836 0.930 . S
H843 C837 0.930 . S
C844 N845 1.314 . S
C844 C846 1.353 . S
C844 H850 0.930 . S
N845 Li795 1.990 . S
N845 C844 1.314 . S
N845 C848 1.279 . S
C846 C844 1.353 . S
C846 C849 1.348 . S
C846 H878 0.929 . S
C847 C848 1.358 . S
C847 C849 1.356 . S
C847 H879 0.930 . S
C848 N845 1.279 . S
C848 C847 1.358 . S
C848 H851 0.930 . S
C849 C846 1.348 . S
C849 C847 1.356 . S
H850 C844 0.930 . S
H851 C848 0.930 . S
O852 Li792 1.956 . S
O852 Li793 1.970 . S
O852 Li794 1.961 . S
O852 C796 1.325 . S
O853 Li792 1.970 . S
O853 Li793 1.956 . S
O853 Li795 1.961 1_545 S
O853 C802 1.325 . S
O854 Li792 1.961 . S
O854 Li794 1.956 . S
O854 Li795 1.970 1_545 S
O854 C824 1.325 . S
O855 Li793 1.989 . S
O855 Li794 1.979 . S
O855 Li795 1.964 1_545 S
O855 C830 1.300 1_545 S
H856 C798 0.929 . S
H857 C799 0.930 . S
H858 C800 0.930 . S
H859 C801 0.930 . S
H860 C803 0.930 1_565 S
H861 C805 0.929 . S
H862 C806 0.930 1_565 S
H863 C807 0.930 . S
H864 C810 0.930 . S
H865 C813 0.929 . S
H866 C818 0.929 . S
H867 C819 0.930 . S
H868 C826 0.929 . S
H869 C827 0.930 . S
H870 C828 0.930 . S
H871 C829 0.930 . S
H872 C831 0.929 . S
H873 C832 0.930 . S
H874 C833 0.930 . S
H875 C834 0.930 . S
H876 C838 0.929 . S
H877 C840 0.930 . S
H878 C846 0.929 . S
H879 C847 0.930 . S
Li880 N897 1.990 . S
Li880 O940 1.946 1_455 S
Li880 O941 1.970 1_455 S
Li880 O942 1.961 1_455 S
Li881 N905 1.990 . S
Li881 O940 1.985 . S
Li881 O941 1.956 . S
Li881 O943 1.961 . S
Li882 N927 1.990 . S
Li882 O940 1.969 . S
Li882 O942 1.956 . S
Li882 O943 1.970 . S
Li883 N933 1.990 . S
Li883 O941 1.961 . S
Li883 O942 1.970 . S
Li883 O943 1.956 . S
C884 C886 1.348 . S
C884 C887 1.356 . S
C884 O940 1.316 1_455 S
N885 C888 1.314 . S
N885 C889 1.279 . S
C886 C884 1.348 . S
C886 C888 1.353 . S
C886 H944 0.929 . S
C887 C884 1.356 . S
C887 C889 1.358 . S
C887 H945 0.930 . S
C888 N885 1.314 . S
C888 C886 1.353 . S
C888 H946 0.930 . S
C889 N885 1.279 . S
C889 C887 1.358 . S
C889 H947 0.930 . S
C890 C893 1.348 1_655 S
C890 C894 1.356 . S
C890 O941 1.325 . S
C891 N892 1.279 1_655 S
C891 C894 1.358 . S
C891 H948 0.930 . S
N892 C891 1.279 1_455 S
N892 C895 1.314 . S
C893 C890 1.348 1_455 S
C893 C895 1.353 . S
C893 H949 0.929 . S
C894 C890 1.356 . S
C894 C891 1.358 . S
C894 H950 0.930 . S
C895 N892 1.314 . S
C895 C893 1.353 . S
C895 H951 0.930 . S
C896 N897 1.314 . S
C896 C901 1.353 . S
C896 H902 0.930 . S
N897 Li880 1.990 . S
N897 C896 1.314 . S
N897 C899 1.279 . S
C898 C899 1.358 . S
C898 C900 1.356 . S
C898 H952 0.930 . S
C899 N897 1.279 . S
C899 C898 1.358 . S
C899 H903 0.930 . S
C900 C898 1.356 . S
C900 C901 1.348 . S
C901 C896 1.353 . S
C901 C900 1.348 . S
C901 H953 0.929 . S
H902 C896 0.930 . S
H903 C899 0.930 . S
C904 N905 1.314 . S
C904 C906 1.353 . S
C904 H910 0.930 . S
N905 Li881 1.990 . S
N905 C904 1.314 . S
N905 C908 1.279 . S
C906 C904 1.353 . S
C906 C909 1.348 . S
C906 H954 0.929 . S
C907 C908 1.358 . S
C907 C909 1.356 . S
C907 H955 0.930 . S
C908 N905 1.279 . S
C908 C907 1.358 . S
C908 H911 0.930 . S
C909 C906 1.348 . S
C909 C907 1.356 . S
H910 C904 0.930 . S
H911 C908 0.930 . S
C912 C914 1.348 . S
C912 C915 1.356 . S
C912 O942 1.325 . S
N913 C916 1.314 . S
N913 C917 1.279 . S
C914 C912 1.348 . S
C914 C916 1.353 . S
C914 H956 0.929 . S
C915 C912 1.356 . S
C915 C917 1.358 . S
C915 H957 0.930 1_655 S
C916 N913 1.314 . S
C916 C914 1.353 . S
C916 H958 0.930 . S
C917 N913 1.279 . S
C917 C915 1.358 . S
C917 H959 0.930 1_655 S
C918 C919 1.348 . S
C918 C920 1.356 . S
C918 O943 1.325 . S
C919 C918 1.348 . S
C919 C921 1.353 . S
C919 H960 0.929 . S
C920 C918 1.356 . S
C920 C922 1.358 . S
C920 H961 0.930 . S
C921 C919 1.353 . S
C921 N923 1.314 . S
C921 H962 0.930 . S
C922 C920 1.358 . S
C922 N923 1.279 . S
C922 H963 0.930 . S
N923 C921 1.314 . S
N923 C922 1.279 . S
C924 C926 1.353 . S
C924 N927 1.314 . S
C924 H930 0.930 . S
C925 N927 1.279 . S
C925 C928 1.358 . S
C925 H931 0.930 . S
C926 C924 1.353 . S
C926 C929 1.348 . S
C926 H964 0.929 . S
N927 Li882 1.990 . S
N927 C924 1.314 . S
N927 C925 1.279 . S
C928 C925 1.358 . S
C928 C929 1.356 . S
C928 H965 0.930 . S
C929 C926 1.348 . S
C929 C928 1.356 . S
H930 C924 0.930 . S
H931 C925 0.930 . S
C932 N933 1.314 . S
C932 C934 1.353 . S
C932 H938 0.930 . S
N933 Li883 1.990 . S
N933 C932 1.314 . S
N933 C936 1.279 . S
C934 C932 1.353 . S
C934 C937 1.348 . S
C934 H966 0.929 . S
C935 C936 1.358 . S
C935 C937 1.356 . S
C935 H967 0.930 . S
C936 N933 1.279 . S
C936 C935 1.358 . S
C936 H939 0.930 . S
C937 C934 1.348 . S
C937 C935 1.356 . S
H938 C932 0.930 . S
H939 C936 0.930 . S
O940 Li880 1.946 1_655 S
O940 Li881 1.985 . S
O940 Li882 1.969 . S
O940 C884 1.316 1_655 S
O941 Li880 1.970 1_655 S
O941 Li881 1.956 . S
O941 Li883 1.961 . S
O941 C890 1.325 . S
O942 Li880 1.961 1_655 S
O942 Li882 1.956 . S
O942 Li883 1.970 . S
O942 C912 1.325 . S
O943 Li881 1.961 . S
O943 Li882 1.970 . S
O943 Li883 1.956 . S
O943 C918 1.325 . S
H944 C886 0.929 . S
H945 C887 0.930 . S
H946 C888 0.930 . S
H947 C889 0.930 . S
H948 C891 0.930 . S
H949 C893 0.929 . S
H950 C894 0.930 . S
H951 C895 0.930 . S
H952 C898 0.930 . S
H953 C901 0.929 . S
H954 C906 0.929 . S
H955 C907 0.930 . S
H956 C914 0.929 . S
H957 C915 0.930 1_455 S
H958 C916 0.930 . S
H959 C917 0.930 1_455 S
H960 C919 0.929 . S
H961 C920 0.930 . S
H962 C921 0.930 . S
H963 C922 0.930 . S
H964 C926 0.929 . S
H965 C928 0.930 . S
H966 C934 0.929 . S
H967 C935 0.930 . S
Li968 N985 1.990 . S
Li968 O1028 1.956 . S
Li968 O1029 1.970 . S
Li968 O1030 1.961 . S
Li969 N993 1.990 . S
Li969 O1028 1.970 . S
Li969 O1029 1.956 . S
Li969 O1031 1.961 . S
Li970 N1015 1.990 . S
Li970 O1028 1.961 . S
Li970 O1030 1.956 . S
Li970 O1031 1.970 . S
Li971 N1021 1.990 . S
Li971 O1029 1.961 . S
Li971 O1030 1.970 . S
Li971 O1031 1.956 . S
C972 C974 1.348 . S
C972 C975 1.356 . S
C972 O1028 1.325 . S
N973 C976 1.314 . S
N973 C977 1.279 . S
C974 C972 1.348 . S
C974 C976 1.353 . S
C974 H1032 0.929 . S
C975 C972 1.356 . S
C975 C977 1.358 . S
C975 H1033 0.930 . S
C976 N973 1.314 . S
C976 C974 1.353 . S
C976 H1034 0.930 . S
C977 N973 1.279 . S
C977 C975 1.358 . S
C977 H1035 0.930 . S
C978 C981 1.348 . S
C978 C982 1.356 . S
C978 O1029 1.325 . S
C979 N980 1.279 . S
C979 C982 1.358 . S
C979 H1036 0.930 . S
N980 C979 1.279 . S
N980 C983 1.314 . S
C981 C978 1.348 . S
C981 C983 1.353 . S
C981 H1037 0.929 . S
C982 C978 1.356 . S
C982 C979 1.358 . S
C982 H1038 0.930 . S
C983 N980 1.314 . S
C983 C981 1.353 . S
C983 H1039 0.930 . S
C984 N985 1.314 . S
C984 C989 1.353 . S
C984 H990 0.930 . S
N985 Li968 1.990 . S
N985 C984 1.314 . S
N985 C987 1.279 . S
C986 C987 1.358 . S
C986 C988 1.356 . S
C986 H1040 0.930 . S
C987 N985 1.279 . S
C987 C986 1.358 . S
C987 H991 0.930 . S
C988 C986 1.356 . S
C988 C989 1.348 . S
C989 C984 1.353 . S
C989 C988 1.348 . S
C989 H1041 0.929 . S
H990 C984 0.930 . S
H991 C987 0.930 . S
C992 N993 1.314 . S
C992 C994 1.353 . S
C992 H998 0.930 . S
N993 Li969 1.990 . S
N993 C992 1.314 . S
N993 C996 1.279 . S
C994 C992 1.353 . S
C994 C997 1.348 . S
C994 H1042 0.929 . S
C995 C996 1.358 . S
C995 C997 1.356 . S
C995 H1043 0.930 . S
C996 N993 1.279 . S
C996 C995 1.358 . S
C996 H999 0.930 . S
C997 C994 1.348 . S
C997 C995 1.356 . S
H998 C992 0.930 . S
H999 C996 0.930 . S
C1000 C1002 1.348 . S
C1000 C1003 1.356 . S
C1000 O1030 1.325 . S
N1001 C1004 1.314 . S
N1001 C1005 1.279 . S
C1002 C1000 1.348 . S
C1002 C1004 1.353 . S
C1002 H1044 0.929 . S
C1003 C1000 1.356 . S
C1003 C1005 1.358 . S
C1003 H1045 0.930 . S
C1004 N1001 1.314 . S
C1004 C1002 1.353 . S
C1004 H1046 0.930 . S
C1005 N1001 1.279 . S
C1005 C1003 1.358 . S
C1005 H1047 0.930 . S
C1006 C1007 1.348 . S
C1006 C1008 1.356 . S
C1006 O1031 1.325 . S
C1007 C1006 1.348 . S
C1007 C1009 1.353 . S
C1007 H1048 0.929 . S
C1008 C1006 1.356 . S
C1008 C1010 1.358 . S
C1008 H1049 0.930 . S
C1009 C1007 1.353 . S
C1009 N1011 1.314 . S
C1009 H1050 0.930 . S
C1010 C1008 1.358 . S
C1010 N1011 1.279 . S
C1010 H1051 0.930 . S
N1011 C1009 1.314 . S
N1011 C1010 1.279 . S
C1012 C1014 1.353 . S
C1012 N1015 1.314 . S
C1012 H1018 0.930 . S
C1013 N1015 1.279 . S
C1013 C1016 1.358 . S
C1013 H1019 0.930 . S
C1014 C1012 1.353 . S
C1014 C1017 1.348 . S
C1014 H1052 0.929 . S
N1015 Li970 1.990 . S
N1015 C1012 1.314 . S
N1015 C1013 1.279 . S
C1016 C1013 1.358 . S
C1016 C1017 1.356 . S
C1016 H1053 0.930 . S
C1017 C1014 1.348 . S
C1017 C1016 1.356 . S
H1018 C1012 0.930 . S
H1019 C1013 0.930 . S
C1020 N1021 1.314 . S
C1020 C1022 1.353 . S
C1020 H1026 0.930 . S
N1021 Li971 1.990 . S
N1021 C1020 1.314 . S
N1021 C1024 1.279 . S
C1022 C1020 1.353 . S
C1022 C1025 1.348 . S
C1022 H1054 0.929 . S
C1023 C1024 1.358 . S
C1023 C1025 1.356 . S
C1023 H1055 0.930 . S
C1024 N1021 1.279 . S
C1024 C1023 1.358 . S
C1024 H1027 0.930 . S
C1025 C1022 1.348 . S
C1025 C1023 1.356 . S
H1026 C1020 0.930 . S
H1027 C1024 0.930 . S
O1028 Li968 1.956 . S
O1028 Li969 1.970 . S
O1028 Li970 1.961 . S
O1028 C972 1.325 . S
O1029 Li968 1.970 . S
O1029 Li969 1.956 . S
O1029 Li971 1.961 . S
O1029 C978 1.325 . S
O1030 Li968 1.961 . S
O1030 Li970 1.956 . S
O1030 Li971 1.970 . S
O1030 C1000 1.325 . S
O1031 Li969 1.961 . S
O1031 Li970 1.970 . S
O1031 Li971 1.956 . S
O1031 C1006 1.325 . S
H1032 C974 0.929 . S
H1033 C975 0.930 . S
H1034 C976 0.930 . S
H1035 C977 0.930 . S
H1036 C979 0.930 . S
H1037 C981 0.929 . S
H1038 C982 0.930 . S
H1039 C983 0.930 . S
H1040 C986 0.930 . S
H1041 C989 0.929 . S
H1042 C994 0.929 . S
H1043 C995 0.930 . S
H1044 C1002 0.929 . S
H1045 C1003 0.930 . S
H1046 C1004 0.930 . S
H1047 C1005 0.930 . S
H1048 C1007 0.929 . S
H1049 C1008 0.930 . S
H1050 C1009 0.930 . S
H1051 C1010 0.930 . S
H1052 C1014 0.929 . S
H1053 C1016 0.930 . S
H1054 C1022 0.929 . S
H1055 C1023 0.930 . S
C49 C636 1.100 . S
C145 C753 1.094 . S
C233 C577 1.122 . S
C997 C284 1.122 . S
C372 C849 1.094 . S
C900 C469 1.100 . S
C137 C548 1.106 . S
C673 C225 1.111 . S
C57 C733 1.130 . S
C812 C460 1.130 . S
C937 C293 1.111 . S
C381 C1025 1.106 . S
C489 C29 5.592 . S
C108 C321 5.549 . S
C196 C409 5.548 . S
C585 C988 5.584 . S
C665 C821 5.524 . S
C724 C929 5.524 . S
C20 C557 3.396 1_454 S
C117 C645 3.356 1_554 S
C205 C761 3.348 1_564 S
C313 C841 3.348 1_565 S
C909 C401 3.356 1_655 S
C497 C1017 3.396 . S
