# Generated by pormake.
# Topology umy, (4)-cn, num edge types: 1
# Building blocks:
#     Node 0, Type 0, BuildingBlock: QUQFOY_clean_sbu_3, # of connection points: 4
#     Node 1, Type 0, BuildingBlock: QUQFOY_clean_sbu_3, # of connection points: 4
#     Node 2, Type 0, BuildingBlock: QUQFOY_clean_sbu_3, # of connection points: 4
#     Node 3, Type 0, BuildingBlock: QUQFOY_clean_sbu_3, # of connection points: 4
#     Node 4, Type 0, BuildingBlock: QUQFOY_clean_sbu_3, # of connection points: 4
#     Node 5, Type 0, BuildingBlock: QUQFOY_clean_sbu_3, # of connection points: 4
#     Node 6, Type 0, BuildingBlock: QUQFOY_clean_sbu_3, # of connection points: 4
#     Node 7, Type 0, BuildingBlock: QUQFOY_clean_sbu_3, # of connection points: 4
#     Node 8, Type 0, BuildingBlock: QUQFOY_clean_sbu_3, # of connection points: 4
#     Node 9, Type 0, BuildingBlock: QUQFOY_clean_sbu_3, # of connection points: 4
#     Node 10, Type 0, BuildingBlock: QUQFOY_clean_sbu_3, # of connection points: 4
#     Node 11, Type 0, BuildingBlock: QUQFOY_clean_sbu_3, # of connection points: 4
#     Edge 12, Type (0, 0), BuildingBlock: TEMPAE_clean_linker_10, # of connection points: 2
#     Edge 13, Type (0, 0), BuildingBlock: TEMPAE_clean_linker_10, # of connection points: 2
#     Edge 14, Type (0, 0), BuildingBlock: TEMPAE_clean_linker_10, # of connection points: 2
#     Edge 15, Type (0, 0), BuildingBlock: TEMPAE_clean_linker_10, # of connection points: 2
#     Edge 16, Type (0, 0), BuildingBlock: TEMPAE_clean_linker_10, # of connection points: 2
#     Edge 17, Type (0, 0), BuildingBlock: TEMPAE_clean_linker_10, # of connection points: 2
#     Edge 18, Type (0, 0), BuildingBlock: TEMPAE_clean_linker_10, # of connection points: 2
#     Edge 19, Type (0, 0), BuildingBlock: TEMPAE_clean_linker_10, # of connection points: 2
#     Edge 20, Type (0, 0), BuildingBlock: TEMPAE_clean_linker_10, # of connection points: 2
#     Edge 21, Type (0, 0), BuildingBlock: TEMPAE_clean_linker_10, # of connection points: 2
#     Edge 22, Type (0, 0), BuildingBlock: TEMPAE_clean_linker_10, # of connection points: 2
#     Edge 23, Type (0, 0), BuildingBlock: TEMPAE_clean_linker_10, # of connection points: 2
#     Edge 24, Type (0, 0), BuildingBlock: TEMPAE_clean_linker_10, # of connection points: 2
#     Edge 25, Type (0, 0), BuildingBlock: TEMPAE_clean_linker_10, # of connection points: 2
#     Edge 26, Type (0, 0), BuildingBlock: TEMPAE_clean_linker_10, # of connection points: 2
#     Edge 27, Type (0, 0), BuildingBlock: TEMPAE_clean_linker_10, # of connection points: 2
#     Edge 28, Type (0, 0), BuildingBlock: TEMPAE_clean_linker_10, # of connection points: 2
#     Edge 29, Type (0, 0), BuildingBlock: TEMPAE_clean_linker_10, # of connection points: 2
#     Edge 30, Type (0, 0), BuildingBlock: TEMPAE_clean_linker_10, # of connection points: 2
#     Edge 31, Type (0, 0), BuildingBlock: TEMPAE_clean_linker_10, # of connection points: 2
#     Edge 32, Type (0, 0), BuildingBlock: TEMPAE_clean_linker_10, # of connection points: 2
#     Edge 33, Type (0, 0), BuildingBlock: TEMPAE_clean_linker_10, # of connection points: 2
#     Edge 34, Type (0, 0), BuildingBlock: TEMPAE_clean_linker_10, # of connection points: 2
#     Edge 35, Type (0, 0), BuildingBlock: TEMPAE_clean_linker_10, # of connection points: 2
# Relax obj value: 0.100
# Max RMSD: 0.073
# Mean RMSD: 0.073
data_MOF--net-umy--node1-QUQFOY_clean_sbu_3--edge1-TEMPAE_clean_linker_10
_symmetry_space_group_name_H-M    P1
_symmetry_Int_Tables_number       1
_symmetry_cell_setting            triclinic
loop_
_symmetry_equiv_pos_as_xyz
'x, y, z'
_cell_length_a     40.333393
_cell_length_b     40.412177
_cell_length_c     53.105121
_cell_angle_alpha  90.005463
_cell_angle_beta   89.988558
_cell_angle_gamma 119.93687
loop_
_atom_site_label
_atom_site_type_symbol
_atom_site_fract_x
_atom_site_fract_y
_atom_site_fract_z
_atom_type_partial_charge
C0 C 0.97338 0.25803 0.12226 0.0
O1 O -0.01236 0.24013 0.11126 0.0
Cd2 Cd 0.05346 0.27162 0.09924 0.0
O3 O -0.00759 0.29422 0.12456 0.0
Cd4 Cd 0.05387 0.34893 0.11059 0.0
C5 C 0.09444 0.32111 0.15466 0.0
O6 O 0.06261 0.32251 0.07215 0.0
O7 O 0.11367 0.3702 0.08735 0.0
O8 O 0.01954 0.3784 0.09304 0.0
C9 C 0.09776 0.34666 0.06947 0.0
O10 O 0.08861 0.2944 0.13935 0.0
C11 C 0.03954 0.41034 0.10391 0.0
O12 O 0.08318 0.34467 0.14942 0.0
O13 O 0.06583 0.41341 0.11858 0.0
C14 C 0.72363 0.97336 0.29009 0.0
O15 O 0.75944 -0.00731 0.28606 0.0
Cd16 Cd 0.79293 0.05757 0.27131 0.0
O17 O 0.70229 -0.01204 0.28711 0.0
Cd18 Cd 0.70776 0.04928 0.27537 0.0
C19 C 0.77282 0.09651 0.32239 0.0
O20 O 0.75078 0.06028 0.24102 0.0
O21 O 0.73706 0.10486 0.247 0.0
O22 O 0.64429 0.0119 0.25716 0.0
C23 C 0.75487 0.09213 0.23429 0.0
O24 O 0.79766 0.09376 0.30913 0.0
C25 C 0.63062 0.03045 0.26804 0.0
O26 O 0.73817 0.0814 0.31508 0.0
O27 O 0.65277 0.05721 0.28277 0.0
C28 C 0.71716 0.71902 0.45412 0.0
O29 O 0.73219 0.75348 0.4469 0.0
Cd30 Cd 0.69639 0.78095 0.43038 0.0
O31 O 0.68118 0.69651 0.45263 0.0
Cd32 Cd 0.62394 0.69874 0.43867 0.0
C33 C 0.64119 0.76546 0.48318 0.0
O34 O 0.65171 0.73547 0.4011 0.0
O35 O 0.59926 0.73248 0.41313 0.0
O36 O 0.59808 0.63491 0.4213 0.0
C37 C 0.62496 0.74229 0.39643 0.0
O38 O 0.66698 0.78934 0.46843 0.0
C39 C 0.56585 0.6214 0.43214 0.0
O40 O 0.62246 0.73013 0.47757 0.0
O41 O 0.56106 0.6438 0.44652 0.0
C42 C -0.0124 0.7294 0.62492 0.0
O43 O 0.97445 0.74917 0.6152 0.0
Cd44 Cd 0.90772 0.72033 0.60594 0.0
O45 O 0.96669 0.69339 0.62723 0.0
Cd46 Cd 0.90267 0.64204 0.61463 0.0
C47 C 0.86799 0.67141 0.66146 0.0
O48 O 0.89392 0.66993 0.57675 0.0
O49 O 0.84229 0.62438 0.59322 0.0
O50 O 0.93355 0.61084 0.5947 0.0
C51 C 0.85842 0.64665 0.57478 0.0
O52 O 0.87424 0.69888 0.64675 0.0
C53 C 0.9129 0.57862 0.60504 0.0
O54 O 0.8772 0.64675 0.65497 0.0
O55 O 0.88774 0.57604 0.62059 0.0
C56 C 0.25224 -0.00463 0.78743 0.0
O57 O 0.21896 0.98109 0.77794 0.0
Cd58 Cd 0.18369 0.9169 0.76261 0.0
O59 O 0.2706 0.97727 0.78717 0.0
Cd60 Cd 0.2662 0.91805 0.7709 0.0
C61 C 0.19621 0.87197 0.81467 0.0
O62 O 0.22824 0.91344 0.73532 0.0
O63 O 0.23583 0.86481 0.74035 0.0
O64 O 0.33101 0.9565 0.75533 0.0
C65 C 0.22139 0.88104 0.72763 0.0
O66 O 0.17468 0.87923 0.80092 0.0
C67 C 0.34326 0.936 0.76517 0.0
O68 O 0.23079 0.88347 0.8084 0.0
O69 O 0.3197 0.90762 0.77831 0.0
C70 C 0.22994 0.24207 0.96689 0.0
O71 O 0.21262 0.20618 0.96334 0.0
Cd72 Cd 0.24202 0.17116 0.94784 0.0
O73 O 0.26573 0.26257 0.96289 0.0
Cd74 Cd 0.31956 0.25431 0.94948 0.0
C75 C 0.30411 0.19092 -0.00301 0.0
O76 O 0.28455 0.21105 0.91575 0.0
O77 O 0.34246 0.22255 0.92063 0.0
O78 O 0.34625 0.31672 0.92977 0.0
C79 C 0.31146 0.20595 0.90832 0.0
O80 O 0.27529 0.16628 0.9846 0.0
C81 C 0.37913 0.3299 0.93964 0.0
O82 O 0.32381 0.22516 0.98909 0.0
O83 O 0.38379 0.30816 0.95473 0.0
C84 C 0.72851 -0.01285 0.68848 0.0
O85 O 0.74453 0.9674 0.69256 0.0
Cd86 Cd 0.71216 0.90311 0.70827 0.0
O87 O 0.69275 0.97327 0.69195 0.0
Cd88 Cd 0.63659 0.91302 0.70498 0.0
C89 C 0.65109 0.86299 0.65829 0.0
O90 O 0.6697 0.90365 0.73933 0.0
O91 O 0.61089 0.8593 0.73487 0.0
O92 O 0.61224 0.95196 0.72308 0.0
C93 C 0.64184 0.87271 0.7472 0.0
O94 O 0.6791 0.86591 0.67112 0.0
C95 C 0.57951 0.93341 0.71285 0.0
O96 O 0.63219 0.87869 0.66579 0.0
O97 O 0.57388 0.90605 0.69838 0.0
C98 C 0.69748 0.72021 0.86846 0.0
O99 O 0.7295 0.73926 0.87947 0.0
Cd100 Cd 0.76587 0.70937 0.89061 0.0
O101 O 0.68198 0.68417 0.86603 0.0
Cd102 Cd 0.69084 0.63064 0.87889 0.0
C103 C 0.75864 0.66283 0.83409 0.0
O104 O 0.72629 0.65663 0.9173 0.0
O105 O 0.73092 0.61027 0.90082 0.0
O106 O 0.62739 0.60038 0.89689 0.0
C107 C 0.73819 0.63305 0.91913 0.0
O108 O 0.77907 0.68918 0.84974 0.0
C109 C 0.61552 0.5686 0.88581 0.0
O110 O 0.72422 0.63799 0.83939 0.0
O111 O 0.63868 0.56586 0.87087 0.0
C112 C 0.97331 0.73229 0.02279 0.0
O113 O -0.00828 0.76787 0.02728 0.0
Cd114 Cd 0.05663 0.80036 0.04129 0.0
O115 O -0.01094 0.71196 0.02548 0.0
Cd116 Cd 0.0523 0.72183 0.03784 0.0
C117 C 0.09558 0.78261 0.98944 0.0
O118 O 0.06201 0.76207 0.07393 0.0
O119 O 0.11236 0.76175 0.06049 0.0
O120 O 0.01972 0.66059 0.05925 0.0
C121 C 0.09643 0.77082 0.0776 0.0
O122 O 0.09343 0.80746 0.00302 0.0
C123 C 0.03932 0.64754 0.04911 0.0
O124 O 0.08063 0.74815 -0.00314 0.0
O125 O 0.06443 0.66882 0.03316 0.0
C126 C 0.24023 0.98055 0.20007 0.0
O127 O 0.22614 0.0007 0.20769 0.0
Cd128 Cd 0.26329 0.06357 0.22447 0.0
O129 O 0.2761 -0.007 0.20116 0.0
Cd130 Cd 0.33447 0.05151 0.21471 0.0
C131 C 0.31732 0.10241 0.17116 0.0
O132 O 0.30862 0.06186 0.25276 0.0
O133 O 0.36124 0.11017 0.23999 0.0
O134 O 0.36018 0.0129 0.2314 0.0
C135 C 0.33596 0.09519 0.25702 0.0
O136 O 0.29233 0.10126 0.18638 0.0
C137 C 0.39191 0.03089 0.21988 0.0
O138 O 0.33541 0.08487 0.17618 0.0
O139 O 0.3964 0.0579 0.20546 0.0
C140 C 0.23794 0.23155 0.36014 0.0
O141 O 0.2021 0.21486 0.36412 0.0
Cd142 Cd 0.16771 0.24553 0.37869 0.0
O143 O 0.25894 0.26747 0.36306 0.0
Cd144 Cd 0.25241 0.32286 0.37462 0.0
C145 C 0.18708 0.30437 0.32762 0.0
O146 O 0.20948 0.29062 0.40891 0.0
O147 O 0.22235 0.34859 0.40292 0.0
O148 O 0.31584 0.34972 0.39305 0.0
C149 C 0.20485 0.31807 0.41562 0.0
O150 O 0.16251 0.27668 0.34087 0.0
C151 C 0.32913 0.38181 0.38212 0.0
O152 O 0.2217 0.3242 0.33493 0.0
O153 O 0.30683 0.38598 0.36721 0.0
C154 C -0.01427 0.26058 0.52845 0.0
O155 O 0.97221 0.22805 0.53876 0.0
Cd156 Cd 0.90657 0.19195 0.5508 0.0
O157 O 0.96589 0.27705 0.52681 0.0
Cd158 Cd 0.90353 0.26753 0.54154 0.0
C159 C 0.86411 0.2011 0.49634 0.0
O160 O 0.8964 0.23156 0.57933 0.0
O161 O 0.8443 0.22668 0.56467 0.0
O162 O 0.9355 0.33026 0.56059 0.0
C163 C 0.86109 0.21965 0.58231 0.0
O164 O 0.8708 0.18011 0.51101 0.0
C165 C 0.91459 0.34163 0.55027 0.0
O166 O 0.87451 0.23543 0.50229 0.0
O167 O 0.88904 0.31873 0.5351 0.0
C168 C 0.05677 0.5966 0.04521 0.0
C169 C 0.03457 0.61024 0.05659 0.0
C170 C 0.05469 0.56268 0.05343 0.0
C171 C 0.02988 0.54202 0.07353 0.0
C172 C 0.00666 0.55509 0.08467 0.0
C173 C 0.00924 0.58908 0.07603 0.0
C174 C 0.07971 0.54941 0.04098 0.0
C175 C -0.02016 0.53371 0.10612 0.0
C176 C 0.00701 0.4395 0.08032 0.0
C177 C 0.03413 0.4431 0.09828 0.0
C178 C 0.00435 0.47129 0.0727 0.0
C179 C 0.02935 0.50743 0.08334 0.0
C180 C 0.05562 0.51094 0.10228 0.0
C181 C 0.05773 0.47869 0.10951 0.0
C182 C 0.9759 0.46648 0.05251 0.0
C183 C 0.08254 0.54905 0.11418 0.0
H184 H 0.07631 0.61278 0.03014 0.0
H185 H -0.00801 0.59949 0.0849 0.0
H186 H 0.10006 0.54919 0.05496 0.0
H187 H 0.06194 0.51976 0.03398 0.0
H188 H 0.09634 0.56798 0.02496 0.0
H189 H 0.96229 0.54662 0.11184 0.0
H190 H 0.96039 0.50352 0.10072 0.0
H191 H -0.00345 0.53353 0.12266 0.0
H192 H -0.01143 0.41202 0.07163 0.0
H193 H 0.07862 0.48159 0.12348 0.0
H194 H -0.00859 0.48186 0.03524 0.0
H195 H 0.95839 0.47916 0.05871 0.0
H196 H 0.95644 0.43601 0.04765 0.0
H197 H 0.10278 0.56857 0.09977 0.0
H198 H 0.09932 0.54644 0.12987 0.0
H199 H 0.06631 0.5625 0.1215 0.0
C200 C 0.56892 -0.00424 0.24443 0.0
C201 C 0.59164 0.02306 0.2625 0.0
C202 C 0.53361 -0.00848 0.23703 0.0
C203 C 0.52094 0.01518 0.24796 0.0
C204 C 0.54292 0.04151 0.26704 0.0
C205 C 0.57803 0.04511 0.27409 0.0
C206 C 0.51073 0.96294 0.21677 0.0
C207 C 0.53019 0.0671 0.27924 0.0
C208 C 0.45839 0.04411 0.21221 0.0
C209 C 0.42326 0.02283 0.22458 0.0
C210 C 0.49 0.0404 0.2188 0.0
C211 C 0.4863 0.01482 0.23824 0.0
C212 C 0.45037 -0.00833 0.24983 0.0
C213 C 0.41919 -0.00403 0.24285 0.0
C214 C 0.52785 0.06537 0.20588 0.0
C215 C 0.44533 0.96388 0.27049 0.0
H216 H 0.57922 0.97849 0.23548 0.0
H217 H 0.59534 0.06608 0.28818 0.0
H218 H 0.48043 0.94516 0.22265 0.0
H219 H 0.51103 0.97828 0.19937 0.0
H220 H 0.52236 0.94384 0.21223 0.0
H221 H 0.54933 0.08422 0.29491 0.0
H222 H 0.52978 0.08697 0.26499 0.0
H223 H 0.50068 0.04984 0.28667 0.0
H224 H 0.46162 0.06469 0.19794 0.0
H225 H 0.39201 0.97926 0.25238 0.0
H226 H 0.5401 0.04785 0.19895 0.0
H227 H 0.54848 0.08624 0.21957 0.0
H228 H 0.52515 0.08137 0.18975 0.0
H229 H 0.45803 0.94614 0.26487 0.0
H230 H 0.41474 0.94472 0.27532 0.0
H231 H 0.46057 0.97991 0.28765 0.0
C232 C 0.53907 0.55976 0.40867 0.0
C233 C 0.53446 0.58234 0.42685 0.0
C234 C 0.50813 0.52447 0.40134 0.0
C235 C 0.47187 0.5116 0.4125 0.0
C236 C 0.46755 0.53337 0.43176 0.0
C237 C 0.49893 0.56853 0.4387 0.0
C238 C 0.51381 0.50187 0.38084 0.0
C239 C 0.42934 0.52039 0.44424 0.0
C240 C 0.38104 0.4492 0.3761 0.0
C241 C 0.36778 0.41374 0.38783 0.0
C242 C 0.41575 0.48098 0.38331 0.0
C243 C 0.43766 0.47712 0.4027 0.0
C244 C 0.42535 0.44101 0.41379 0.0
C245 C 0.39046 0.40966 0.40622 0.0
C246 C 0.42812 0.51905 0.37092 0.0
C247 C 0.44816 0.43584 0.4344 0.0
H248 H 0.56654 0.57022 0.39952 0.0
H249 H 0.49527 0.58573 0.45289 0.0
H250 H 0.50159 0.47161 0.38659 0.0
H251 H 0.49846 0.50221 0.36359 0.0
H252 H 0.5445 0.51365 0.3761 0.0
H253 H 0.43145 0.53916 0.46018 0.0
H254 H 0.40888 0.52029 0.43022 0.0
H255 H 0.41723 0.49077 0.45135 0.0
H256 H 0.36375 0.45247 0.36178 0.0
H257 H 0.38042 0.38225 0.41528 0.0
H258 H 0.45783 0.53158 0.36377 0.0
H259 H 0.42787 0.53923 0.38498 0.0
H260 H 0.40916 0.51666 0.35501 0.0
H261 H 0.47856 0.44842 0.42872 0.0
H262 H 0.43676 0.40528 0.4392 0.0
H263 H 0.44747 0.45108 0.4516 0.0
C264 C 0.89318 0.50965 0.6093 0.0
C265 C 0.91676 0.54532 0.59817 0.0
C266 C 0.89477 0.47731 0.60155 0.0
C267 C 0.92045 0.48082 0.58217 0.0
C268 C 0.94495 0.5169 0.57128 0.0
C269 C 0.94286 0.54877 0.57945 0.0
C270 C 0.86841 0.43925 0.6137 0.0
C271 C 0.9727 0.52167 0.55059 0.0
C272 C 0.94378 0.40128 0.57592 0.0
C273 C 0.91829 0.37879 0.55693 0.0
C274 C 0.94528 0.43499 0.58406 0.0
C275 C 0.92083 0.44646 0.57282 0.0
C276 C 0.8959 0.42453 0.55311 0.0
C277 C 0.89486 0.39084 0.54542 0.0
C278 C 0.97224 0.45773 0.60512 0.0
C279 C 0.86967 0.43616 0.54055 0.0
H280 H 0.87302 0.50686 0.6238 0.0
H281 H 0.96119 0.57629 0.57077 0.0
H282 H 0.84857 0.4191 0.59939 0.0
H283 H 0.88523 0.42664 0.62137 0.0
H284 H 0.85121 0.44166 0.62919 0.0
H285 H -0.00915 0.55197 0.54481 0.0
H286 H -0.00842 0.5106 0.55683 0.0
H287 H 0.95671 0.50477 0.53387 0.0
H288 H 0.96197 0.3921 0.58489 0.0
H289 H 0.87519 0.37361 0.53069 0.0
H290 H 0.95559 0.45811 0.62164 0.0
H291 H -0.00903 0.48779 0.59917 0.0
H292 H -0.00946 0.44579 0.61109 0.0
H293 H 0.84916 0.43598 0.55455 0.0
H294 H 0.85322 0.41684 0.52478 0.0
H295 H 0.88649 0.4657 0.53317 0.0
C296 C 0.51286 0.92072 0.70709 0.0
C297 C 0.54847 0.94135 0.719 0.0
C298 C 0.48172 0.92454 0.71475 0.0
C299 C 0.48634 0.9495 0.73485 0.0
C300 C 0.52265 0.97175 0.74617 0.0
C301 C 0.55338 0.96745 0.73806 0.0
C302 C 0.44346 0.9006 0.70205 0.0
C303 C 0.52861 -0.00125 0.76759 0.0
C304 C 0.40567 0.97108 0.74248 0.0
C305 C 0.3822 0.94304 0.75993 0.0
C306 C 0.44067 0.97477 0.73491 0.0
C307 C 0.45236 0.94989 0.74512 0.0
C308 C 0.42977 0.92296 0.76375 0.0
C309 C 0.39489 0.91981 0.77091 0.0
C310 C 0.46413 0.00393 0.71507 0.0
C311 C 0.44153 0.89617 0.77524 0.0
H312 H 0.50898 0.90071 0.69222 0.0
H313 H 0.5809 0.98355 0.74729 0.0
H314 H 0.42277 0.8797 0.7157 0.0
H315 H 0.43179 0.91891 0.69569 0.0
H316 H 0.44534 0.88471 0.68556 0.0
H317 H 0.55932 0.0169 0.77251 0.0
H318 H 0.51678 0.01751 0.76272 0.0
H319 H 0.51305 0.9821 0.7845 0.0
H320 H 0.39607 -0.01076 0.73399 0.0
H321 H 0.377 0.8983 0.78455 0.0
H322 H 0.46332 -0.01091 0.69731 0.0
H323 H 0.49451 0.02073 0.72099 0.0
H324 H 0.45334 0.02389 0.71116 0.0
H325 H 0.44091 0.87626 0.76061 0.0
H326 H 0.4224 0.87909 0.79093 0.0
H327 H 0.47127 0.91246 0.78245 0.0
C328 C 0.44705 0.38165 0.94399 0.0
C329 C 0.41118 0.36778 0.93262 0.0
C330 C 0.47867 0.41587 0.93595 0.0
C331 C 0.47427 0.43661 0.91601 0.0
C332 C 0.43789 0.42342 0.90497 0.0
C333 C 0.40669 0.38912 0.91345 0.0
C334 C 0.51703 0.42929 0.94832 0.0
C335 C 0.43219 0.4449 0.88371 0.0
C336 C 0.55386 0.53919 0.90946 0.0
C337 C 0.57739 0.53573 0.89143 0.0
C338 C 0.51939 0.50736 0.917 0.0
C339 C 0.50823 0.47131 0.90619 0.0
C340 C 0.53099 0.46795 0.88718 0.0
C341 C 0.56539 0.50025 0.88003 0.0
C342 C 0.49576 0.51201 0.93727 0.0
C343 C 0.51978 0.42995 0.87511 0.0
H344 H 0.45065 0.36535 0.95887 0.0
H345 H 0.379 0.37853 0.9046 0.0
H346 H 0.53758 0.4296 0.93429 0.0
H347 H 0.52883 0.45892 0.95534 0.0
H348 H 0.51524 0.41074 0.96431 0.0
H349 H 0.40163 0.43208 0.87825 0.0
H350 H 0.44314 0.4751 0.88915 0.0
H351 H 0.44875 0.44499 0.867 0.0
H352 H 0.56291 0.56659 0.91827 0.0
H353 H 0.58337 0.49746 0.866 0.0
H354 H 0.49605 0.49665 0.95451 0.0
H355 H 0.46552 0.49923 0.93116 0.0
H356 H 0.50668 0.54245 0.94217 0.0
H357 H 0.52057 0.41033 0.88941 0.0
H358 H 0.53912 0.43269 0.85935 0.0
H359 H 0.49006 0.41654 0.86786 0.0
C360 C 0.15675 0.34651 0.05629 0.0
C361 C 0.12035 0.34047 0.0503 0.0
C362 C 0.17548 0.3337 0.04016 0.0
C363 C 0.15776 0.31556 0.01725 0.0
C364 C 0.12244 0.31234 0.0102 0.0
C365 C 0.10376 0.32424 0.02708 0.0
C366 C 0.21274 0.3369 0.04858 0.0
C367 C 0.10337 0.29442 0.98552 0.0
C368 C 0.22063 0.29819 0.97242 0.0
C369 C 0.20907 0.25994 0.97766 0.0
C370 C 0.20286 0.31631 0.98424 0.0
C371 C 0.17392 0.29598 0.0023 0.0
C372 C 0.16168 0.25712 0.00727 0.0
C373 C 0.17904 0.23939 -0.00544 0.0
C374 C 0.21561 0.35735 0.97784 0.0
C375 C 0.13142 0.23469 0.02682 0.0
H376 H 0.16942 0.35884 0.07435 0.0
H377 H 0.07567 0.31988 0.02244 0.0
H378 H 0.20831 0.30793 0.05227 0.0
H379 H 0.23465 0.34991 0.03357 0.0
H380 H 0.22406 0.35423 0.06599 0.0
H381 H 0.07966 0.29995 0.98103 0.0
H382 H 0.12445 0.30543 0.96989 0.0
H383 H 0.09147 0.26308 0.98647 0.0
H384 H 0.24369 0.31397 0.95915 0.0
H385 H 0.17031 0.20989 -0.00125 0.0
H386 H 0.23069 0.3759 -0.00583 0.0
H387 H 0.19045 0.36068 0.97374 0.0
H388 H 0.23518 0.36761 0.96135 0.0
H389 H 0.14103 0.24853 0.04551 0.0
H390 H 0.12511 0.20468 0.02833 0.0
H391 H 0.10452 0.23448 0.02215 0.0
C392 C 0.81626 0.11336 0.21207 0.0
C393 C 0.78287 0.11544 0.21495 0.0
C394 C 0.84471 0.13727 0.19509 0.0
C395 C 0.83888 0.16283 0.18001 0.0
C396 C 0.80441 0.16384 0.18208 0.0
C397 C 0.77702 0.14058 0.19996 0.0
C398 C 0.88157 0.13613 0.19395 0.0
C399 C 0.79669 0.18972 0.16563 0.0
C400 C 0.93007 0.24924 0.15797 0.0
C401 C 0.93612 0.23628 0.13491 0.0
C402 C 0.89758 0.22614 0.17247 0.0
C403 C 0.87 0.18982 0.16321 0.0
C404 C 0.8746 0.17786 0.13904 0.0
C405 C 0.90808 0.20099 0.12534 0.0
C406 C 0.89423 0.23947 0.19843 0.0
C407 C 0.84508 0.13991 0.1282 0.0
H408 H 0.8208 0.09404 0.22383 0.0
H409 H 0.75093 0.14181 0.20212 0.0
H410 H 0.88633 0.12905 0.1746 0.0
H411 H 0.90607 0.16467 0.19866 0.0
H412 H 0.88161 0.11482 0.20715 0.0
H413 H 0.76699 0.1843 0.16784 0.0
H414 H 0.81683 0.21998 0.17046 0.0
H415 H 0.80151 0.18575 0.14555 0.0
H416 H 0.95193 0.27644 0.16544 0.0
H417 H 0.91266 0.19117 0.10737 0.0
H418 H 0.89652 0.22077 0.21282 0.0
H419 H 0.86592 0.2373 0.20089 0.0
H420 H 0.91687 0.26942 0.20215 0.0
H421 H 0.8463 0.11648 0.13823 0.0
H422 H 0.84985 0.13766 0.10781 0.0
H423 H 0.81586 0.13554 0.13082 0.0
C424 C 0.64635 0.76821 0.35346 0.0
C425 C 0.62977 0.76929 0.37637 0.0
C426 C 0.65733 0.79759 0.33577 0.0
C427 C 0.653 0.82933 0.34176 0.0
C428 C 0.63444 0.82952 0.36437 0.0
C429 C 0.62243 0.79904 0.38128 0.0
C430 C 0.67556 0.79568 0.31139 0.0
C431 C 0.63011 0.86328 0.3717 0.0
C432 C 0.72795 0.92641 0.31794 0.0
C433 C 0.70688 0.93472 0.30072 0.0
C434 C 0.71084 0.89176 0.33108 0.0
C435 C 0.67212 0.86436 0.32616 0.0
C436 C 0.65141 0.87168 0.30763 0.0
C437 C 0.66887 0.90721 0.29544 0.0
C438 C 0.73364 0.88534 0.35112 0.0
C439 C 0.6106 0.84251 0.30122 0.0
H440 H 0.65173 0.74492 0.3497 0.0
H441 H 0.60988 0.7999 0.39915 0.0
H442 H 0.66432 0.80473 0.29534 0.0
H443 H 0.70689 0.81548 0.31229 0.0
H444 H 0.67049 0.76647 0.30763 0.0
H445 H 0.6126 0.85772 0.389 0.0
H446 H 0.65881 0.88845 0.37512 0.0
H447 H 0.61667 0.87086 0.35623 0.0
H448 H 0.75725 0.94787 0.32217 0.0
H449 H 0.65269 0.91364 0.28194 0.0
H450 H 0.73455 0.85889 0.3471 0.0
H451 H 0.71957 0.88154 0.3697 0.0
H452 H 0.76348 0.90949 0.35249 0.0
H453 H 0.60782 0.81405 0.29823 0.0
H454 H 0.60042 0.85048 0.28406 0.0
H455 H 0.59156 0.83977 0.31712 0.0
C456 C 0.7311 0.66766 0.46655 0.0
C457 C 0.74091 0.70615 0.46712 0.0
C458 C 0.75103 0.65454 0.48132 0.0
C459 C 0.78028 0.68032 0.49764 0.0
C460 C 0.79098 0.71944 0.49769 0.0
C461 C 0.77154 0.73199 0.48207 0.0
C462 C 0.73994 0.61296 0.48009 0.0
C463 C 0.82145 0.74766 0.51527 0.0
C464 C 0.79984 0.64507 0.55872 0.0
C465 C 0.8363 0.6503 0.55412 0.0
C466 C 0.78061 0.65356 0.54011 0.0
C467 C 0.79785 0.66627 0.51616 0.0
C468 C 0.83355 0.66904 0.51094 0.0
C469 C 0.85275 0.66173 0.5302 0.0
C470 C 0.74302 0.65121 0.54658 0.0
C471 C 0.8521 0.68114 0.48535 0.0
H472 H 0.70755 0.64776 0.45481 0.0
H473 H 0.7789 0.76171 0.48267 0.0
H474 H 0.76582 0.61008 0.47838 0.0
H475 H 0.72512 0.59838 0.49772 0.0
H476 H 0.72061 0.59804 0.46398 0.0
H477 H 0.8269 0.77722 0.51253 0.0
H478 H 0.81253 0.73913 0.53509 0.0
H479 H 0.84867 0.74766 0.5124 0.0
H480 H 0.7873 0.63642 0.5773 0.0
H481 H 0.88087 0.66536 0.52667 0.0
H482 H 0.72074 0.63313 0.53271 0.0
H483 H 0.74634 0.68015 0.54569 0.0
H484 H 0.7328 0.63934 0.56571 0.0
H485 H 0.831 0.66535 0.47026 0.0
H486 H 0.87672 0.67624 0.48326 0.0
H487 H 0.86254 0.71198 0.48249 0.0
C488 C 0.05587 0.78121 0.62436 0.0
C489 C 0.02622 0.74866 0.6358 0.0
C490 C 0.09163 0.80191 0.63614 0.0
C491 C 0.09697 0.79057 0.66032 0.0
C492 C 0.06745 0.75689 0.67148 0.0
C493 C 0.0326 0.73591 0.65882 0.0
C494 C 0.12304 0.83678 0.62324 0.0
C495 C 0.07157 0.74451 0.69759 0.0
C496 C 0.19242 0.83168 0.69389 0.0
C497 C 0.19176 0.86012 0.70858 0.0
C498 C 0.16275 0.81014 0.67683 0.0
C499 C 0.13118 0.81627 0.6754 0.0
C500 C 0.13081 0.84544 0.68995 0.0
C501 C 0.16153 0.86752 0.706 0.0
C502 C 0.16476 0.78034 0.66081 0.0
C503 C 0.09715 0.85216 0.68953 0.0
H504 H 0.05093 0.79073 0.60638 0.0
H505 H 0.00948 0.7108 0.66768 0.0
H506 H 0.12635 0.86291 0.63242 0.0
H507 H 0.15078 0.83743 0.62495 0.0
H508 H 0.11677 0.83775 0.60296 0.0
H509 H 0.04672 0.71651 0.70295 0.0
H510 H 0.09791 0.74245 0.6989 0.0
H511 H 0.07427 0.76621 0.71152 0.0
H512 H 0.2161 0.82631 0.69576 0.0
H513 H 0.16097 0.88947 0.71741 0.0
H514 H 0.1579 0.7829 0.64091 0.0
H515 H 0.14326 0.75142 0.6674 0.0
H516 H 0.19345 0.78285 0.66156 0.0
H517 H 0.09213 0.85877 0.67012 0.0
H518 H 0.10145 0.87599 0.70207 0.0
H519 H 0.07087 0.82587 0.6956 0.0
C520 C 0.25982 0.05986 0.79401 0.0
C521 C 0.268 0.03145 0.80143 0.0
C522 C 0.27089 0.09224 0.80904 0.0
C523 C 0.28908 0.09524 0.8324 0.0
C524 C 0.29857 0.06723 0.8395 0.0
C525 C 0.28847 0.03594 0.82367 0.0
C526 C 0.26163 0.12233 0.80046 0.0
C527 C 0.31694 0.06884 0.86461 0.0
C528 C 0.33549 0.18557 0.8717 0.0
C529 C 0.30555 0.17889 0.88806 0.0
C530 C 0.33007 0.15937 0.8526 0.0
C531 C 0.29443 0.12519 0.85067 0.0
C532 C 0.26414 0.11847 0.86721 0.0
C533 C 0.2699 0.14583 0.88543 0.0
C534 C 0.36246 0.16805 0.83466 0.0
C535 C 0.22608 0.08182 0.86624 0.0
H536 H 0.24425 0.05645 0.77666 0.0
H537 H 0.29449 0.01375 0.82947 0.0
H538 H 0.23772 0.12045 0.81188 0.0
H539 H 0.28663 0.15131 0.80326 0.0
H540 H 0.25313 0.11887 0.78031 0.0
H541 H 0.32439 0.04595 0.86662 0.0
H542 H 0.34329 0.09686 0.86714 0.0
H543 H 0.29698 0.06573 0.88002 0.0
H544 H 0.36294 0.21147 0.87369 0.0
H545 H 0.24689 0.14071 0.89826 0.0
H546 H 0.35229 0.16473 0.8149 0.0
H547 H 0.37272 0.14749 0.8376 0.0
H548 H 0.38698 0.19743 0.83719 0.0
H549 H 0.21284 0.07834 0.84742 0.0
H550 H 0.20573 0.08094 0.88069 0.0
H551 H 0.23041 0.05705 0.86924 0.0
C552 C 0.65933 0.72462 0.83336 0.0
C553 C 0.68061 0.74042 0.85537 0.0
C554 C 0.64909 0.74604 0.81784 0.0
C555 C 0.65938 0.7837 0.82497 0.0
C556 C 0.67792 0.79858 0.84828 0.0
C557 C 0.68898 0.77695 0.86305 0.0
C558 C 0.63018 0.72948 0.79284 0.0
C559 C 0.68802 0.83811 0.85691 0.0
C560 C 0.68157 0.85288 0.77121 0.0
C561 C 0.64652 0.85156 0.76802 0.0
C562 C 0.68622 0.83125 0.78998 0.0
C563 C 0.65542 0.80894 0.80648 0.0
C564 C 0.62046 0.8089 0.80405 0.0
C565 C 0.61613 0.82968 0.78442 0.0
C566 C 0.7236 0.83119 0.79149 0.0
C567 C 0.5876 0.7866 0.82194 0.0
H568 H 0.65295 0.69641 0.82732 0.0
H569 H 0.70507 0.78902 0.88023 0.0
H570 H 0.6046 0.73257 0.79023 0.0
H571 H 0.65041 0.7454 0.77734 0.0
H572 H 0.62139 0.69878 0.79105 0.0
H573 H 0.6957 0.84256 0.87721 0.0
H574 H 0.7128 0.8597 0.84593 0.0
H575 H 0.6638 0.84326 0.85361 0.0
H576 H 0.70497 0.86974 0.75839 0.0
H577 H 0.58918 0.82916 0.78202 0.0
H578 H 0.71835 0.80171 0.7888 0.0
H579 H 0.73661 0.84086 0.81038 0.0
H580 H 0.74455 0.84998 0.7771 0.0
H581 H 0.5759 0.75556 0.81903 0.0
H582 H 0.5641 0.79307 0.81925 0.0
H583 H 0.59771 0.79307 0.84172 0.0
C584 C 0.79759 0.63343 0.93188 0.0
C585 C 0.76684 0.63866 0.93825 0.0
C586 C 0.82872 0.64529 0.94825 0.0
C587 C 0.8283 0.66155 0.97179 0.0
C588 C 0.79581 0.66391 0.97912 0.0
C589 C 0.76569 0.65309 0.962 0.0
C590 C 0.86323 0.64312 0.93951 0.0
C591 C 0.79376 0.67976 0.00444 0.0
C592 C 0.90802 0.67629 0.01628 0.0
C593 C 0.93453 0.71494 0.01214 0.0
C594 C 0.87224 0.65883 0.00431 0.0
C595 C 0.86363 0.68029 0.98717 0.0
C596 C 0.89006 0.71954 0.98338 0.0
C597 C 0.92497 0.73654 -0.00374 0.0
C598 C 0.84412 0.6173 0.00949 0.0
C599 C 0.88228 0.7432 0.96481 0.0
H600 H 0.79852 0.62246 0.91341 0.0
H601 H 0.74163 0.65676 0.96694 0.0
H602 H 0.88774 0.67244 0.93683 0.0
H603 H 0.87179 0.62898 0.95392 0.0
H604 H 0.85791 0.62732 0.92147 0.0
H605 H 0.76428 0.67353 0.00891 0.0
H606 H 0.80361 0.66774 0.01957 0.0
H607 H 0.81293 0.71118 0.00453 0.0
H608 H 0.91537 0.65969 0.02876 0.0
H609 H 0.94562 0.76636 -0.00709 0.0
H610 H 0.84144 0.59996 -0.00738 0.0
H611 H 0.81534 0.61331 0.01351 0.0
H612 H 0.85311 0.60614 0.02565 0.0
H613 H 0.87859 0.73085 0.94565 0.0
H614 H 0.90577 0.7734 0.96422 0.0
H615 H 0.85533 0.74271 0.96974 0.0
C616 C 0.22343 0.91443 0.18772 0.0
C617 C 0.21559 0.94449 0.18684 0.0
C618 C 0.2028 0.88186 0.1727 0.0
C619 C 0.17498 0.88033 0.15575 0.0
C620 C 0.1663 0.91022 0.15535 0.0
C621 C 0.18629 0.94167 0.17127 0.0
C622 C 0.21162 0.84976 0.17435 0.0
C623 C 0.13753 0.91011 0.13707 0.0
C624 C 0.15568 0.8257 0.09463 0.0
C625 C 0.11828 0.79592 0.09854 0.0
C626 C 0.17503 0.85287 0.11348 0.0
C627 C 0.1569 0.84914 0.13701 0.0
C628 C 0.12007 0.81757 0.14156 0.0
C629 C 0.1008 0.7917 0.12201 0.0
C630 C 0.21385 0.88677 0.10767 0.0
C631 C 0.10051 0.81187 0.16672 0.0
H632 H 0.246 0.91662 0.19992 0.0
H633 H 0.18052 0.96514 0.17043 0.0
H634 H 0.18475 0.82182 0.17556 0.0
H635 H 0.22687 0.8493 0.15709 0.0
H636 H 0.22978 0.85284 0.1909 0.0
H637 H 0.13366 0.93528 0.13952 0.0
H638 H 0.14708 0.9101 0.11747 0.0
H639 H 0.10937 0.88387 0.13948 0.0
H640 H 0.16896 0.82894 0.07635 0.0
H641 H 0.07192 0.76831 0.12499 0.0
H642 H 0.23504 0.88942 0.12198 0.0
H643 H 0.2122 0.91336 0.10843 0.0
H644 H 0.22447 0.88468 0.08877 0.0
H645 H 0.12052 0.81575 0.18227 0.0
H646 H 0.07475 0.78308 0.16839 0.0
H647 H 0.09157 0.83354 0.16923 0.0
C648 C 0.31569 0.10191 0.2999 0.0
C649 C 0.33193 0.11843 0.27669 0.0
C650 C 0.30508 0.12122 0.31714 0.0
C651 C 0.30941 0.15704 0.31039 0.0
C652 C 0.32776 0.1747 0.2875 0.0
C653 C 0.33942 0.15535 0.27105 0.0
C654 C 0.28707 0.10223 0.34183 0.0
C655 C 0.33208 0.21246 0.27935 0.0
C656 C 0.23418 0.17987 0.33297 0.0
C657 C 0.25512 0.20979 0.34982 0.0
C658 C 0.25146 0.16201 0.32034 0.0
C659 C 0.29024 0.17357 0.32539 0.0
C660 C 0.31087 0.20228 0.34351 0.0
C661 C 0.29323 0.22064 0.35519 0.0
C662 C 0.22872 0.13206 0.30071 0.0
C663 C 0.35176 0.21424 0.35006 0.0
H664 H 0.31017 0.07337 0.30422 0.0
H665 H 0.3517 0.16789 0.25295 0.0
H666 H 0.29833 0.1232 0.35749 0.0
H667 H 0.25571 0.09062 0.34091 0.0
H668 H 0.29233 0.07835 0.34622 0.0
H669 H 0.3497 0.22371 0.26204 0.0
H670 H 0.30338 0.20884 0.27559 0.0
H671 H 0.34538 0.23401 0.29451 0.0
H672 H 0.20479 0.17173 0.32868 0.0
H673 H 0.3093 0.24365 0.36841 0.0
H674 H 0.2278 0.10488 0.30541 0.0
H675 H 0.24284 0.14147 0.28207 0.0
H676 H 0.19888 0.12642 0.29907 0.0
H677 H 0.35466 0.18877 0.35375 0.0
H678 H 0.36197 0.23317 0.36684 0.0
H679 H 0.37069 0.22973 0.33395 0.0
C680 C 0.14356 0.27744 0.43773 0.0
C681 C 0.17664 0.31303 0.43492 0.0
C682 C 0.115 0.27247 0.45479 0.0
C683 C 0.12043 0.30356 0.47001 0.0
C684 C 0.15456 0.33922 0.46796 0.0
C685 C 0.18205 0.34376 0.45 0.0
C686 C 0.07851 0.23428 0.45592 0.0
C687 C 0.16186 0.37251 0.48456 0.0
C688 C 0.02849 0.29663 0.4929 0.0
C689 C 0.02306 0.27732 0.51576 0.0
C690 C 0.06106 0.30694 0.47822 0.0
C691 C 0.08932 0.29881 0.48712 0.0
C692 C 0.08535 0.28205 0.51113 0.0
C693 C 0.05181 0.27078 0.52501 0.0
C694 C 0.06375 0.32381 0.45241 0.0
C695 C 0.11558 0.27424 0.5216 0.0
H696 H 0.13937 0.25378 0.42589 0.0
H697 H 0.20792 0.3712 0.44789 0.0
H698 H 0.07423 0.22223 0.47518 0.0
H699 H 0.05364 0.23799 0.45157 0.0
H700 H 0.07865 0.21329 0.44247 0.0
H701 H 0.19125 0.39713 0.48216 0.0
H702 H 0.14108 0.38205 0.4801 0.0
H703 H 0.15764 0.36366 0.50463 0.0
H704 H 0.00608 0.30142 0.48569 0.0
H705 H 0.04768 0.25614 0.54283 0.0
H706 H 0.06146 0.30309 0.43783 0.0
H707 H 0.09184 0.35008 0.44986 0.0
H708 H 0.04079 0.33088 0.44909 0.0
H709 H 0.11472 0.24987 0.51141 0.0
H710 H 0.11123 0.26711 0.54198 0.0
H711 H 0.14452 0.29936 0.51886 0.0
C712 C 0.85712 0.19237 0.62483 0.0
C713 C 0.83955 0.19124 0.60185 0.0
C714 C 0.8391 0.16255 0.64226 0.0
C715 C 0.80343 0.13043 0.63603 0.0
C716 C 0.78487 0.12997 0.61328 0.0
C717 C 0.80297 0.16078 0.59659 0.0
C718 C 0.85906 0.16461 0.66675 0.0
C719 C 0.74716 0.09584 0.60574 0.0
C720 C 0.78043 0.0335 0.66066 0.0
C721 C 0.75076 0.02557 0.67757 0.0
C722 C 0.79847 0.06805 0.64742 0.0
C723 C 0.78729 0.09566 0.65186 0.0
C724 C 0.75896 0.08872 0.67008 0.0
C725 C 0.74048 0.05335 0.68244 0.0
C726 C 0.82806 0.07414 0.62774 0.0
C727 C 0.74735 0.11809 0.67594 0.0
H728 H 0.88534 0.2162 0.62891 0.0
H729 H 0.78954 0.15987 0.57872 0.0
H730 H 0.83866 0.1559 0.68273 0.0
H731 H 0.8703 0.14456 0.66612 0.0
H732 H 0.88334 0.19377 0.67044 0.0
H733 H 0.73559 0.10091 0.58809 0.0
H734 H 0.75102 0.07075 0.60291 0.0
H735 H 0.72568 0.08841 0.6209 0.0
H736 H 0.78816 0.01187 0.65678 0.0
H737 H 0.71771 0.04725 0.69572 0.0
H738 H 0.85524 0.10086 0.63162 0.0
H739 H 0.81795 0.07724 0.60892 0.0
H740 H 0.83401 0.05012 0.62697 0.0
H741 H 0.77304 0.14648 0.67911 0.0
H742 H 0.72865 0.11029 0.69282 0.0
H743 H 0.73167 0.1209 0.65969 0.0
C744 C 0.13686 0.29179 0.29546 0.0
C745 C 0.17544 0.31192 0.30275 0.0
C746 C 0.1255 0.29619 0.27133 0.0
C747 C 0.15337 0.32127 0.25398 0.0
C748 C 0.19222 0.34251 0.26139 0.0
C749 C 0.2028 0.33764 0.28573 0.0
C750 C 0.08373 0.2732 0.2642 0.0
C751 C 0.22272 0.36953 0.24338 0.0
C752 C 0.12575 0.29811 0.18528 0.0
C753 C 0.11265 0.32348 0.17937 0.0
C754 C 0.14033 0.29803 0.20925 0.0
C755 C 0.14179 0.32388 0.2278 0.0
C756 C 0.12982 0.35041 0.22175 0.0
C757 C 0.11544 0.34994 0.1976 0.0
C758 C 0.153 0.2694 0.21496 0.0
C759 C 0.13094 0.37839 0.24105 0.0
H760 H 0.11543 0.27202 0.30849 0.0
H761 H 0.23268 0.35331 0.29117 0.0
H762 H 0.07343 0.29241 0.2573 0.0
H763 H 0.08003 0.25334 0.24862 0.0
H764 H 0.06543 0.25626 0.28024 0.0
H765 H 0.25126 0.38554 0.25248 0.0
H766 H 0.2248 0.35326 0.22722 0.0
H767 H 0.21498 0.3903 0.23568 0.0
H768 H 0.12394 0.27771 0.17132 0.0
H769 H 0.1055 0.36973 0.19323 0.0
H770 H 0.13396 0.24898 0.22947 0.0
H771 H 0.18244 0.2841 0.22276 0.0
H772 H 0.15241 0.253 0.19802 0.0
H773 H 0.11061 0.36265 0.25652 0.0
H774 H 0.12329 0.39898 0.23285 0.0
H775 H 0.15988 0.39459 0.24953 0.0
C776 C 0.83359 0.14799 0.46488 0.0
C777 C 0.84594 0.18601 0.47151 0.0
C778 C 0.81913 0.13413 0.44077 0.0
C779 C 0.81705 0.15889 0.42279 0.0
C780 C 0.82822 0.1969 0.42958 0.0
C781 C 0.84248 0.21 0.45387 0.0
C782 C 0.8073 0.09332 0.43427 0.0
C783 C 0.82642 0.22414 0.41091 0.0
C784 C 0.82277 0.13437 0.35461 0.0
C785 C 0.78417 0.11541 0.34735 0.0
C786 C 0.83388 0.14956 0.37888 0.0
C787 C 0.80572 0.14565 0.39642 0.0
C788 C 0.76683 0.12762 0.38903 0.0
C789 C 0.7565 0.11277 0.36455 0.0
C790 C 0.8757 0.16883 0.38598 0.0
C791 C 0.73603 0.12297 0.40723 0.0
H792 H 0.8359 0.12914 0.47839 0.0
H793 H 0.85184 0.2394 0.45879 0.0
H794 H 0.77787 0.07846 0.42646 0.0
H795 H 0.82661 0.09289 0.41954 0.0
H796 H 0.80827 0.07705 0.45085 0.0
H797 H 0.83336 0.25182 0.41968 0.0
H798 H 0.84696 0.22979 0.39537 0.0
H799 H 0.79748 0.21125 0.40241 0.0
H800 H 0.84442 0.1368 0.34145 0.0
H801 H 0.72661 0.09817 0.35913 0.0
H802 H 0.87991 0.15237 0.40113 0.0
H803 H 0.8853 0.19787 0.39346 0.0
H804 H 0.89421 0.17126 0.36978 0.0
H805 H 0.73417 0.10404 0.42295 0.0
H806 H 0.70751 0.11053 0.3981 0.0
H807 H 0.74326 0.15096 0.41555 0.0
C808 C 0.61501 0.84379 0.61738 0.0
C809 C 0.6426 0.84365 0.63344 0.0
C810 C 0.60981 0.82912 0.59279 0.0
C811 C 0.63277 0.81407 0.58409 0.0
C812 C 0.65952 0.81244 0.60054 0.0
C813 C 0.66405 0.82716 0.62498 0.0
C814 C 0.58079 0.83106 0.57583 0.0
C815 C 0.68452 0.79651 0.592 0.0
C816 C 0.60947 0.75239 0.52554 0.0
C817 C 0.63532 0.77859 0.50802 0.0
C818 C 0.60699 0.76384 0.55012 0.0
C819 C 0.63097 0.80236 0.55734 0.0
C820 C 0.65579 0.82927 0.53942 0.0
C821 C 0.65762 0.81709 0.51499 0.0
C822 C 0.57997 0.73438 0.56866 0.0
C823 C 0.68181 0.87065 0.54637 0.0
H824 H 0.59819 0.85634 0.62373 0.0
H825 H 0.68528 0.82667 0.63724 0.0
H826 H 0.59577 0.85166 0.56036 0.0
H827 H 0.56196 0.80284 0.56705 0.0
H828 H 0.56271 0.84018 0.58613 0.0
H829 H 0.70233 0.79528 0.60753 0.0
H830 H 0.66666 0.76734 0.58426 0.0
H831 H 0.70379 0.81459 0.5767 0.0
H832 H 0.59196 0.72261 0.52034 0.0
H833 H 0.67752 0.83764 0.50159 0.0
H834 H 0.56262 0.74482 0.57843 0.0
H835 H 0.59667 0.7294 0.58326 0.0
H836 H 0.56036 0.7067 0.55943 0.0
H837 H 0.6651 0.88258 0.5552 0.0
H838 H 0.6973 0.88848 0.5298 0.0
H839 H 0.7032 0.87283 0.5604 0.0
C840 C 0.8366 0.69299 0.6931 0.0
C841 C 0.85076 0.66869 0.68661 0.0
C842 C 0.82106 0.69128 0.71705 0.0
C843 C 0.8199 0.66485 0.73502 0.0
C844 C 0.83396 0.64012 0.72857 0.0
C845 C 0.84907 0.64223 0.70443 0.0
C846 C 0.80606 0.71793 0.72317 0.0
C847 C 0.83343 0.61172 0.74729 0.0
C848 C 0.81363 0.6863 0.80395 0.0
C849 C 0.77462 0.66213 0.80906 0.0
C850 C 0.82883 0.68709 0.78003 0.0
C851 C 0.80438 0.6634 0.76067 0.0
C852 C 0.76507 0.6387 0.76573 0.0
C853 C 0.75069 0.63823 0.78989 0.0
C854 C 0.87099 0.71357 0.77541 0.0
C855 C 0.73807 0.61319 0.74552 0.0
H856 H 0.83765 0.71344 0.67946 0.0
H857 H 0.86004 0.6234 0.69965 0.0
H858 H 0.77565 0.70124 0.72906 0.0
H859 H 0.82232 0.73664 0.73919 0.0
H860 H 0.80824 0.73622 0.70692 0.0
H861 H 0.84519 0.59431 0.73926 0.0
H862 H 0.85047 0.62696 0.76415 0.0
H863 H 0.80373 0.59223 0.75372 0.0
H864 H 0.83239 0.70477 0.81864 0.0
H865 H 0.72048 0.61958 0.7936 0.0
H866 H 0.87499 0.73457 0.76057 0.0
H867 H 0.8844 0.69707 0.7685 0.0
H868 H 0.88632 0.72938 0.79264 0.0
H869 H 0.73768 0.63082 0.72963 0.0
H870 H 0.70837 0.59528 0.75259 0.0
H871 H 0.74813 0.59415 0.73793 0.0
C872 C 0.20656 0.85078 0.8569 0.0
C873 C 0.18165 0.85281 0.8393 0.0
C874 C 0.19408 0.83685 0.88135 0.0
C875 C 0.15578 0.82455 0.88832 0.0
C876 C 0.13007 0.82485 0.87031 0.0
C877 C 0.14331 0.839 0.84605 0.0
C878 C 0.2223 0.83688 0.90004 0.0
C879 C 0.08892 0.8117 0.87696 0.0
C880 C 0.11193 0.76581 0.94751 0.0
C881 C 0.11375 0.79359 0.96423 0.0
C882 C 0.1264 0.77556 0.9229 0.0
C883 C 0.14315 0.81399 0.91487 0.0
C884 C 0.14618 0.84233 0.9319 0.0
C885 C 0.13142 0.83179 0.95633 0.0
C886 C 0.1227 0.74459 0.90527 0.0
C887 C 0.16405 0.88368 0.92408 0.0
H888 H 0.23622 0.86131 0.8519 0.0
H889 H 0.12375 0.84017 0.83257 0.0
H890 H 0.22785 0.8581 0.91506 0.0
H891 H 0.21032 0.80855 0.90923 0.0
H892 H 0.24999 0.84405 0.89108 0.0
H893 H 0.07192 0.81108 0.86032 0.0
H894 H 0.07521 0.78273 0.88539 0.0
H895 H 0.08783 0.83119 0.89124 0.0
H896 H 0.09837 0.73622 0.95342 0.0
H897 H 0.13317 0.85352 0.96912 0.0
H898 H 0.15091 0.7525 0.89691 0.0
H899 H 0.10323 0.74136 0.88953 0.0
H900 H 0.1113 0.71658 0.91489 0.0
H901 H 0.19323 0.89396 0.91653 0.0
H902 H 0.16596 0.90249 0.93994 0.0
H903 H 0.14687 0.88652 0.90881 0.0
C904 C 0.34768 0.12037 0.12838 0.0
C905 C 0.32292 0.12165 0.14645 0.0
C906 C 0.34971 0.1345 0.10392 0.0
C907 C 0.32638 0.15019 0.09739 0.0
C908 C 0.30278 0.15327 0.11588 0.0
C909 C 0.30137 0.13904 0.14017 0.0
C910 C 0.37544 0.13098 0.08477 0.0
C911 C 0.2775 0.16989 0.10967 0.0
C912 C 0.3415 0.20733 0.03737 0.0
C913 C 0.31286 0.17999 0.02173 0.0
C914 C 0.34726 0.1978 0.06181 0.0
C915 C 0.32378 0.16011 0.07078 0.0
C916 C 0.29586 0.13209 0.05475 0.0
C917 C 0.29079 0.14234 0.03045 0.0
C918 C 0.3775 0.22835 0.07833 0.0
C919 C 0.27028 0.09152 0.06358 0.0
H920 H 0.36461 0.10719 0.13306 0.0
H921 H 0.28234 0.14042 0.154 0.0
H922 H 0.35772 0.10943 0.07039 0.0
H923 H 0.39295 0.1585 0.07482 0.0
H924 H 0.39487 0.12217 0.09349 0.0
H925 H 0.26316 0.17303 0.12662 0.0
H926 H 0.2945 0.19827 0.10065 0.0
H927 H 0.25517 0.15106 0.09602 0.0
H928 H 0.35879 0.23646 0.0308 0.0
H929 H 0.26875 0.1209 0.01851 0.0
H930 H 0.39612 0.21823 0.08659 0.0
H931 H 0.36362 0.23467 0.09419 0.0
H932 H 0.39566 0.25525 0.06783 0.0
H933 H 0.28777 0.07939 0.07079 0.0
H934 H 0.25139 0.0727 0.04836 0.0
H935 H 0.25205 0.0912 0.07934 0.0
loop_
_geom_bond_atom_site_label_1
_geom_bond_atom_site_label_2
_geom_bond_distance
_geom_bond_site_symmetry_2
_ccdc_geom_bond_type
C0 O1 1.306 . S
C0 O3 1.160 1_655 S
O1 C0 1.306 . S
O1 Cd2 2.228 1_655 S
Cd2 O1 2.228 1_455 S
Cd2 O6 2.273 . S
Cd2 O10 2.277 . S
O3 C0 1.160 1_455 S
O3 Cd4 2.203 . S
Cd4 O3 2.203 . S
Cd4 O6 2.411 . S
Cd4 O7 2.333 . S
Cd4 O8 2.352 . S
Cd4 O12 2.277 . S
Cd4 O13 2.356 . S
C5 O10 1.209 . S
C5 O12 1.226 . S
O6 Cd2 2.273 . S
O6 Cd4 2.411 . S
O6 C9 1.320 . S
O7 Cd4 2.333 . S
O7 C9 1.214 . S
O8 Cd4 2.352 . S
O8 C11 1.258 . S
C9 O6 1.320 . S
C9 O7 1.214 . S
O10 Cd2 2.277 . S
O10 C5 1.209 . S
C11 O8 1.258 . S
C11 O13 1.282 . S
O12 Cd4 2.277 . S
O12 C5 1.226 . S
O13 Cd4 2.356 . S
O13 C11 1.282 . S
C14 O15 1.306 . S
C14 O17 1.160 1_565 S
O15 C14 1.306 . S
O15 Cd16 2.228 1_565 S
Cd16 O15 2.228 1_545 S
Cd16 O20 2.273 . S
Cd16 O24 2.277 . S
O17 C14 1.160 1_545 S
O17 Cd18 2.203 . S
Cd18 O17 2.203 . S
Cd18 O20 2.411 . S
Cd18 O21 2.333 . S
Cd18 O22 2.352 . S
Cd18 O26 2.277 . S
Cd18 O27 2.356 . S
C19 O24 1.209 . S
C19 O26 1.226 . S
O20 Cd16 2.273 . S
O20 Cd18 2.411 . S
O20 C23 1.320 . S
O21 Cd18 2.333 . S
O21 C23 1.214 . S
O22 Cd18 2.352 . S
O22 C25 1.258 . S
C23 O20 1.320 . S
C23 O21 1.214 . S
O24 Cd16 2.277 . S
O24 C19 1.209 . S
C25 O22 1.258 . S
C25 O27 1.282 . S
O26 Cd18 2.277 . S
O26 C19 1.226 . S
O27 Cd18 2.356 . S
O27 C25 1.282 . S
C28 O29 1.306 . S
C28 O31 1.160 . S
O29 C28 1.306 . S
O29 Cd30 2.228 . S
Cd30 O29 2.228 . S
Cd30 O34 2.273 . S
Cd30 O38 2.277 . S
O31 C28 1.160 . S
O31 Cd32 2.203 . S
Cd32 O31 2.203 . S
Cd32 O34 2.411 . S
Cd32 O35 2.333 . S
Cd32 O36 2.352 . S
Cd32 O40 2.277 . S
Cd32 O41 2.356 . S
C33 O38 1.209 . S
C33 O40 1.226 . S
O34 Cd30 2.273 . S
O34 Cd32 2.411 . S
O34 C37 1.320 . S
O35 Cd32 2.333 . S
O35 C37 1.214 . S
O36 Cd32 2.352 . S
O36 C39 1.258 . S
C37 O34 1.320 . S
C37 O35 1.214 . S
O38 Cd30 2.277 . S
O38 C33 1.209 . S
C39 O36 1.258 . S
C39 O41 1.282 . S
O40 Cd32 2.277 . S
O40 C33 1.226 . S
O41 Cd32 2.356 . S
O41 C39 1.282 . S
C42 O43 1.306 . S
C42 O45 1.160 1_455 S
O43 C42 1.306 . S
O43 Cd44 2.228 1_455 S
Cd44 O43 2.228 1_655 S
Cd44 O48 2.273 . S
Cd44 O52 2.277 . S
O45 C42 1.160 1_655 S
O45 Cd46 2.203 . S
Cd46 O45 2.203 . S
Cd46 O48 2.411 . S
Cd46 O49 2.333 . S
Cd46 O50 2.352 . S
Cd46 O54 2.277 . S
Cd46 O55 2.356 . S
C47 O52 1.209 . S
C47 O54 1.226 . S
O48 Cd44 2.273 . S
O48 Cd46 2.411 . S
O48 C51 1.320 . S
O49 Cd46 2.333 . S
O49 C51 1.214 . S
O50 Cd46 2.352 . S
O50 C53 1.258 . S
C51 O48 1.320 . S
C51 O49 1.214 . S
O52 Cd44 2.277 . S
O52 C47 1.209 . S
C53 O50 1.258 . S
C53 O55 1.282 . S
O54 Cd46 2.277 . S
O54 C47 1.226 . S
O55 Cd46 2.356 . S
O55 C53 1.282 . S
C56 O57 1.306 . S
C56 O59 1.160 1_545 S
O57 C56 1.306 . S
O57 Cd58 2.228 1_545 S
Cd58 O57 2.228 1_565 S
Cd58 O62 2.273 . S
Cd58 O66 2.277 . S
O59 C56 1.160 1_565 S
O59 Cd60 2.203 . S
Cd60 O59 2.203 . S
Cd60 O62 2.411 . S
Cd60 O63 2.333 . S
Cd60 O64 2.352 . S
Cd60 O68 2.277 . S
Cd60 O69 2.356 . S
C61 O66 1.209 . S
C61 O68 1.226 . S
O62 Cd58 2.273 . S
O62 Cd60 2.411 . S
O62 C65 1.320 . S
O63 Cd60 2.333 . S
O63 C65 1.214 . S
O64 Cd60 2.352 . S
O64 C67 1.258 . S
C65 O62 1.320 . S
C65 O63 1.214 . S
O66 Cd58 2.277 . S
O66 C61 1.209 . S
C67 O64 1.258 . S
C67 O69 1.282 . S
O68 Cd60 2.277 . S
O68 C61 1.226 . S
O69 Cd60 2.356 . S
O69 C67 1.282 . S
C70 O71 1.306 . S
C70 O73 1.160 . S
O71 C70 1.306 . S
O71 Cd72 2.228 . S
Cd72 O71 2.228 . S
Cd72 O76 2.273 . S
Cd72 O80 2.277 . S
O73 C70 1.160 . S
O73 Cd74 2.203 . S
Cd74 O73 2.203 . S
Cd74 O76 2.411 . S
Cd74 O77 2.333 . S
Cd74 O78 2.352 . S
Cd74 O82 2.277 1_556 S
Cd74 O83 2.356 . S
C75 O80 1.209 1_554 S
C75 O82 1.226 . S
O76 Cd72 2.273 . S
O76 Cd74 2.411 . S
O76 C79 1.320 . S
O77 Cd74 2.333 . S
O77 C79 1.214 . S
O78 Cd74 2.352 . S
O78 C81 1.258 . S
C79 O76 1.320 . S
C79 O77 1.214 . S
O80 Cd72 2.277 . S
O80 C75 1.209 1_556 S
C81 O78 1.258 . S
C81 O83 1.282 . S
O82 Cd74 2.277 1_554 S
O82 C75 1.226 . S
O83 Cd74 2.356 . S
O83 C81 1.282 . S
C84 O85 1.306 . S
C84 O87 1.160 1_545 S
O85 C84 1.306 . S
O85 Cd86 2.228 1_545 S
Cd86 O85 2.228 1_565 S
Cd86 O90 2.273 . S
Cd86 O94 2.277 . S
O87 C84 1.160 1_565 S
O87 Cd88 2.203 . S
Cd88 O87 2.203 . S
Cd88 O90 2.411 . S
Cd88 O91 2.333 . S
Cd88 O92 2.352 . S
Cd88 O96 2.277 . S
Cd88 O97 2.356 . S
C89 O94 1.209 . S
C89 O96 1.226 . S
O90 Cd86 2.273 . S
O90 Cd88 2.411 . S
O90 C93 1.320 . S
O91 Cd88 2.333 . S
O91 C93 1.214 . S
O92 Cd88 2.352 . S
O92 C95 1.258 . S
C93 O90 1.320 . S
C93 O91 1.214 . S
O94 Cd86 2.277 . S
O94 C89 1.209 . S
C95 O92 1.258 . S
C95 O97 1.282 . S
O96 Cd88 2.277 . S
O96 C89 1.226 . S
O97 Cd88 2.356 . S
O97 C95 1.282 . S
C98 O99 1.306 . S
C98 O101 1.160 . S
O99 C98 1.306 . S
O99 Cd100 2.228 . S
Cd100 O99 2.228 . S
Cd100 O104 2.273 . S
Cd100 O108 2.277 . S
O101 C98 1.160 . S
O101 Cd102 2.203 . S
Cd102 O101 2.203 . S
Cd102 O104 2.411 . S
Cd102 O105 2.333 . S
Cd102 O106 2.352 . S
Cd102 O110 2.277 . S
Cd102 O111 2.356 . S
C103 O108 1.209 . S
C103 O110 1.226 . S
O104 Cd100 2.273 . S
O104 Cd102 2.411 . S
O104 C107 1.320 . S
O105 Cd102 2.333 . S
O105 C107 1.214 . S
O106 Cd102 2.352 . S
O106 C109 1.258 . S
C107 O104 1.320 . S
C107 O105 1.214 . S
O108 Cd100 2.277 . S
O108 C103 1.209 . S
C109 O106 1.258 . S
C109 O111 1.282 . S
O110 Cd102 2.277 . S
O110 C103 1.226 . S
O111 Cd102 2.356 . S
O111 C109 1.282 . S
C112 O113 1.306 . S
C112 O115 1.160 1_655 S
O113 C112 1.306 . S
O113 Cd114 2.228 1_655 S
Cd114 O113 2.228 1_455 S
Cd114 O118 2.273 . S
Cd114 O122 2.277 . S
O115 C112 1.160 1_455 S
O115 Cd116 2.203 . S
Cd116 O115 2.203 . S
Cd116 O118 2.411 . S
Cd116 O119 2.333 . S
Cd116 O120 2.352 . S
Cd116 O124 2.277 1_554 S
Cd116 O125 2.356 . S
C117 O122 1.209 1_556 S
C117 O124 1.226 . S
O118 Cd114 2.273 . S
O118 Cd116 2.411 . S
O118 C121 1.320 . S
O119 Cd116 2.333 . S
O119 C121 1.214 . S
O120 Cd116 2.352 . S
O120 C123 1.258 . S
C121 O118 1.320 . S
C121 O119 1.214 . S
O122 Cd114 2.277 . S
O122 C117 1.209 1_554 S
C123 O120 1.258 . S
C123 O125 1.282 . S
O124 Cd116 2.277 1_556 S
O124 C117 1.226 . S
O125 Cd116 2.356 . S
O125 C123 1.282 . S
C126 O127 1.306 . S
C126 O129 1.160 1_565 S
O127 C126 1.306 . S
O127 Cd128 2.228 1_565 S
Cd128 O127 2.228 1_545 S
Cd128 O132 2.273 . S
Cd128 O136 2.277 . S
O129 C126 1.160 1_545 S
O129 Cd130 2.203 . S
Cd130 O129 2.203 . S
Cd130 O132 2.411 . S
Cd130 O133 2.333 . S
Cd130 O134 2.352 . S
Cd130 O138 2.277 . S
Cd130 O139 2.356 . S
C131 O136 1.209 . S
C131 O138 1.226 . S
O132 Cd128 2.273 . S
O132 Cd130 2.411 . S
O132 C135 1.320 . S
O133 Cd130 2.333 . S
O133 C135 1.214 . S
O134 Cd130 2.352 . S
O134 C137 1.258 . S
C135 O132 1.320 . S
C135 O133 1.214 . S
O136 Cd128 2.277 . S
O136 C131 1.209 . S
C137 O134 1.258 . S
C137 O139 1.282 . S
O138 Cd130 2.277 . S
O138 C131 1.226 . S
O139 Cd130 2.356 . S
O139 C137 1.282 . S
C140 O141 1.306 . S
C140 O143 1.160 . S
O141 C140 1.306 . S
O141 Cd142 2.228 . S
Cd142 O141 2.228 . S
Cd142 O146 2.273 . S
Cd142 O150 2.277 . S
O143 C140 1.160 . S
O143 Cd144 2.203 . S
Cd144 O143 2.203 . S
Cd144 O146 2.411 . S
Cd144 O147 2.333 . S
Cd144 O148 2.352 . S
Cd144 O152 2.277 . S
Cd144 O153 2.356 . S
C145 O150 1.209 . S
C145 O152 1.226 . S
O146 Cd142 2.273 . S
O146 Cd144 2.411 . S
O146 C149 1.320 . S
O147 Cd144 2.333 . S
O147 C149 1.214 . S
O148 Cd144 2.352 . S
O148 C151 1.258 . S
C149 O146 1.320 . S
C149 O147 1.214 . S
O150 Cd142 2.277 . S
O150 C145 1.209 . S
C151 O148 1.258 . S
C151 O153 1.282 . S
O152 Cd144 2.277 . S
O152 C145 1.226 . S
O153 Cd144 2.356 . S
O153 C151 1.282 . S
C154 O155 1.306 . S
C154 O157 1.160 1_455 S
O155 C154 1.306 . S
O155 Cd156 2.228 1_455 S
Cd156 O155 2.228 1_655 S
Cd156 O160 2.273 . S
Cd156 O164 2.277 . S
O157 C154 1.160 1_655 S
O157 Cd158 2.203 . S
Cd158 O157 2.203 . S
Cd158 O160 2.411 . S
Cd158 O161 2.333 . S
Cd158 O162 2.352 . S
Cd158 O166 2.277 . S
Cd158 O167 2.356 . S
C159 O164 1.209 . S
C159 O166 1.226 . S
O160 Cd156 2.273 . S
O160 Cd158 2.411 . S
O160 C163 1.320 . S
O161 Cd158 2.333 . S
O161 C163 1.214 . S
O162 Cd158 2.352 . S
O162 C165 1.258 . S
C163 O160 1.320 . S
C163 O161 1.214 . S
O164 Cd156 2.277 . S
O164 C159 1.209 . S
C165 O162 1.258 . S
C165 O167 1.282 . S
O166 Cd158 2.277 . S
O166 C159 1.226 . S
O167 Cd158 2.356 . S
O167 C165 1.282 . S
C168 C169 1.391 . S
C168 C170 1.394 . S
C168 H184 0.931 . S
C169 C168 1.391 . S
C169 C173 1.376 . S
C170 C168 1.394 . S
C170 C171 1.369 . S
C170 C174 1.531 . S
C171 C170 1.369 . S
C171 C172 1.410 . S
C171 C179 1.503 . S
C172 C171 1.410 . S
C172 C173 1.392 . S
C172 C175 1.511 1_455 S
C173 C169 1.376 . S
C173 C172 1.392 . S
C173 H185 0.929 1_455 S
C174 C170 1.531 . S
C174 H186 0.960 . S
C174 H187 0.962 . S
C174 H188 0.960 . S
C175 C172 1.511 1_655 S
C175 H189 0.961 . S
C175 H190 0.961 . S
C175 H191 0.961 . S
C176 C177 1.370 . S
C176 C178 1.363 . S
C176 H192 0.931 . S
C177 C176 1.370 . S
C177 C181 1.408 . S
C178 C176 1.363 . S
C178 C179 1.370 . S
C178 C182 1.524 . S
C179 C171 1.503 . S
C179 C178 1.370 . S
C179 C180 1.403 . S
C180 C179 1.403 . S
C180 C181 1.404 . S
C180 C183 1.539 . S
C181 C177 1.408 . S
C181 C180 1.404 . S
C181 H193 0.930 . S
C182 C178 1.524 . S
C182 H194 0.956 . S
C182 H195 0.961 . S
C182 H196 0.961 . S
C183 C180 1.539 . S
C183 H197 0.958 . S
C183 H198 0.961 1_455 S
C183 H199 0.960 . S
H184 C168 0.931 . S
H185 C173 0.929 1_655 S
H186 C174 0.960 . S
H187 C174 0.962 . S
H188 C174 0.960 . S
H189 C175 0.961 . S
H190 C175 0.961 . S
H191 C175 0.961 . S
H192 C176 0.931 . S
H193 C181 0.930 . S
H194 C182 0.956 . S
H195 C182 0.961 . S
H196 C182 0.961 . S
H197 C183 0.958 . S
H198 C183 0.961 1_655 S
H199 C183 0.960 . S
C200 C201 1.391 . S
C200 C202 1.394 . S
C200 H216 0.931 1_545 S
C201 C200 1.391 . S
C201 C205 1.376 . S
C202 C200 1.394 . S
C202 C203 1.369 . S
C202 C206 1.531 1_545 S
C203 C202 1.369 . S
C203 C204 1.410 . S
C203 C211 1.503 . S
C204 C203 1.410 . S
C204 C205 1.392 . S
C204 C207 1.511 . S
C205 C201 1.376 . S
C205 C204 1.392 . S
C205 H217 0.929 . S
C206 C202 1.531 1_565 S
C206 H218 0.960 . S
C206 H219 0.962 . S
C206 H220 0.960 . S
C207 C204 1.511 . S
C207 H221 0.961 . S
C207 H222 0.961 . S
C207 H223 0.961 . S
C208 C209 1.370 . S
C208 C210 1.363 . S
C208 H224 0.931 . S
C209 C208 1.370 . S
C209 C213 1.408 . S
C210 C208 1.363 . S
C210 C211 1.370 . S
C210 C214 1.524 . S
C211 C203 1.503 . S
C211 C210 1.370 . S
C211 C212 1.403 . S
C212 C211 1.403 . S
C212 C213 1.404 . S
C212 C215 1.539 . S
C213 C209 1.408 . S
C213 C212 1.404 . S
C213 H225 0.930 . S
C214 C210 1.524 . S
C214 H226 0.956 . S
C214 H227 0.961 . S
C214 H228 0.961 . S
C215 C212 1.539 . S
C215 H229 0.958 . S
C215 H230 0.961 . S
C215 H231 0.960 . S
H216 C200 0.931 1_565 S
H217 C205 0.929 . S
H218 C206 0.960 . S
H219 C206 0.962 . S
H220 C206 0.960 . S
H221 C207 0.961 . S
H222 C207 0.961 . S
H223 C207 0.961 . S
H224 C208 0.931 . S
H225 C213 0.930 . S
H226 C214 0.956 . S
H227 C214 0.961 . S
H228 C214 0.961 . S
H229 C215 0.958 . S
H230 C215 0.961 . S
H231 C215 0.960 . S
C232 C233 1.391 . S
C232 C234 1.394 . S
C232 H248 0.931 . S
C233 C232 1.391 . S
C233 C237 1.376 . S
C234 C232 1.394 . S
C234 C235 1.369 . S
C234 C238 1.531 . S
C235 C234 1.369 . S
C235 C236 1.410 . S
C235 C243 1.503 . S
C236 C235 1.410 . S
C236 C237 1.392 . S
C236 C239 1.511 . S
C237 C233 1.376 . S
C237 C236 1.392 . S
C237 H249 0.929 . S
C238 C234 1.531 . S
C238 H250 0.960 . S
C238 H251 0.962 . S
C238 H252 0.960 . S
C239 C236 1.511 . S
C239 H253 0.961 . S
C239 H254 0.961 . S
C239 H255 0.961 . S
C240 C241 1.370 . S
C240 C242 1.363 . S
C240 H256 0.931 . S
C241 C240 1.370 . S
C241 C245 1.408 . S
C242 C240 1.363 . S
C242 C243 1.370 . S
C242 C246 1.524 . S
C243 C235 1.503 . S
C243 C242 1.370 . S
C243 C244 1.403 . S
C244 C243 1.403 . S
C244 C245 1.404 . S
C244 C247 1.539 . S
C245 C241 1.408 . S
C245 C244 1.404 . S
C245 H257 0.930 . S
C246 C242 1.524 . S
C246 H258 0.956 . S
C246 H259 0.961 . S
C246 H260 0.961 . S
C247 C244 1.539 . S
C247 H261 0.958 . S
C247 H262 0.961 . S
C247 H263 0.960 . S
H248 C232 0.931 . S
H249 C237 0.929 . S
H250 C238 0.960 . S
H251 C238 0.962 . S
H252 C238 0.960 . S
H253 C239 0.961 . S
H254 C239 0.961 . S
H255 C239 0.961 . S
H256 C240 0.931 . S
H257 C245 0.930 . S
H258 C246 0.956 . S
H259 C246 0.961 . S
H260 C246 0.961 . S
H261 C247 0.958 . S
H262 C247 0.961 . S
H263 C247 0.960 . S
C264 C265 1.391 . S
C264 C266 1.394 . S
C264 H280 0.931 . S
C265 C264 1.391 . S
C265 C269 1.376 . S
C266 C264 1.394 . S
C266 C267 1.369 . S
C266 C270 1.531 . S
C267 C266 1.369 . S
C267 C268 1.410 . S
C267 C275 1.503 . S
C268 C267 1.410 . S
C268 C269 1.392 . S
C268 C271 1.511 1_655 S
C269 C265 1.376 . S
C269 C268 1.392 . S
C269 H281 0.929 1_655 S
C270 C266 1.531 . S
C270 H282 0.960 . S
C270 H283 0.962 . S
C270 H284 0.960 . S
C271 C268 1.511 1_455 S
C271 H285 0.961 . S
C271 H286 0.961 . S
C271 H287 0.961 . S
C272 C273 1.370 . S
C272 C274 1.363 . S
C272 H288 0.931 . S
C273 C272 1.370 . S
C273 C277 1.408 . S
C274 C272 1.363 . S
C274 C275 1.370 . S
C274 C278 1.524 . S
C275 C267 1.503 . S
C275 C274 1.370 . S
C275 C276 1.403 . S
C276 C275 1.403 . S
C276 C277 1.404 . S
C276 C279 1.539 1_655 S
C277 C273 1.408 . S
C277 C276 1.404 . S
C277 H289 0.930 . S
C278 C274 1.524 . S
C278 H290 0.956 . S
C278 H291 0.961 . S
C278 H292 0.961 . S
C279 C276 1.539 1_455 S
C279 H293 0.958 1_455 S
C279 H294 0.961 . S
C279 H295 0.960 . S
H280 C264 0.931 . S
H281 C269 0.929 1_455 S
H282 C270 0.960 . S
H283 C270 0.962 . S
H284 C270 0.960 . S
H285 C271 0.961 . S
H286 C271 0.961 . S
H287 C271 0.961 . S
H288 C272 0.931 . S
H289 C277 0.930 . S
H290 C278 0.956 . S
H291 C278 0.961 . S
H292 C278 0.961 . S
H293 C279 0.958 1_655 S
H294 C279 0.961 . S
H295 C279 0.960 . S
C296 C297 1.391 . S
C296 C298 1.394 . S
C296 H312 0.931 . S
C297 C296 1.391 . S
C297 C301 1.376 . S
C298 C296 1.394 . S
C298 C299 1.369 . S
C298 C302 1.531 . S
C299 C298 1.369 . S
C299 C300 1.410 . S
C299 C307 1.503 . S
C300 C299 1.410 . S
C300 C301 1.392 . S
C300 C303 1.511 . S
C301 C297 1.376 . S
C301 C300 1.392 . S
C301 H313 0.929 . S
C302 C298 1.531 . S
C302 H314 0.960 . S
C302 H315 0.962 . S
C302 H316 0.960 . S
C303 C300 1.511 . S
C303 H317 0.961 1_565 S
C303 H318 0.961 . S
C303 H319 0.961 . S
C304 C305 1.370 . S
C304 C306 1.363 . S
C304 H320 0.931 1_565 S
C305 C304 1.370 . S
C305 C309 1.408 . S
C306 C304 1.363 . S
C306 C307 1.370 . S
C306 C310 1.524 1_565 S
C307 C299 1.503 . S
C307 C306 1.370 . S
C307 C308 1.403 . S
C308 C307 1.403 . S
C308 C309 1.404 . S
C308 C311 1.539 . S
C309 C305 1.408 . S
C309 C308 1.404 . S
C309 H321 0.930 . S
C310 C306 1.524 1_545 S
C310 H322 0.956 . S
C310 H323 0.961 . S
C310 H324 0.961 . S
C311 C308 1.539 . S
C311 H325 0.958 . S
C311 H326 0.961 . S
C311 H327 0.960 . S
H312 C296 0.931 . S
H313 C301 0.929 . S
H314 C302 0.960 . S
H315 C302 0.962 . S
H316 C302 0.960 . S
H317 C303 0.961 1_545 S
H318 C303 0.961 . S
H319 C303 0.961 . S
H320 C304 0.931 1_545 S
H321 C309 0.930 . S
H322 C310 0.956 . S
H323 C310 0.961 . S
H324 C310 0.961 . S
H325 C311 0.958 . S
H326 C311 0.961 . S
H327 C311 0.960 . S
C328 C329 1.391 . S
C328 C330 1.394 . S
C328 H344 0.931 . S
C329 C328 1.391 . S
C329 C333 1.376 . S
C330 C328 1.394 . S
C330 C331 1.369 . S
C330 C334 1.531 . S
C331 C330 1.369 . S
C331 C332 1.410 . S
C331 C339 1.503 . S
C332 C331 1.410 . S
C332 C333 1.392 . S
C332 C335 1.511 . S
C333 C329 1.376 . S
C333 C332 1.392 . S
C333 H345 0.929 . S
C334 C330 1.531 . S
C334 H346 0.960 . S
C334 H347 0.962 . S
C334 H348 0.960 . S
C335 C332 1.511 . S
C335 H349 0.961 . S
C335 H350 0.961 . S
C335 H351 0.961 . S
C336 C337 1.370 . S
C336 C338 1.363 . S
C336 H352 0.931 . S
C337 C336 1.370 . S
C337 C341 1.408 . S
C338 C336 1.363 . S
C338 C339 1.370 . S
C338 C342 1.524 . S
C339 C331 1.503 . S
C339 C338 1.370 . S
C339 C340 1.403 . S
C340 C339 1.403 . S
C340 C341 1.404 . S
C340 C343 1.539 . S
C341 C337 1.408 . S
C341 C340 1.404 . S
C341 H353 0.930 . S
C342 C338 1.524 . S
C342 H354 0.956 . S
C342 H355 0.961 . S
C342 H356 0.961 . S
C343 C340 1.539 . S
C343 H357 0.958 . S
C343 H358 0.961 . S
C343 H359 0.960 . S
H344 C328 0.931 . S
H345 C333 0.929 . S
H346 C334 0.960 . S
H347 C334 0.962 . S
H348 C334 0.960 . S
H349 C335 0.961 . S
H350 C335 0.961 . S
H351 C335 0.961 . S
H352 C336 0.931 . S
H353 C341 0.930 . S
H354 C342 0.956 . S
H355 C342 0.961 . S
H356 C342 0.961 . S
H357 C343 0.958 . S
H358 C343 0.961 . S
H359 C343 0.960 . S
C360 C361 1.391 . S
C360 C362 1.394 . S
C360 H376 0.931 . S
C361 C360 1.391 . S
C361 C365 1.376 . S
C362 C360 1.394 . S
C362 C363 1.369 . S
C362 C366 1.531 . S
C363 C362 1.369 . S
C363 C364 1.410 . S
C363 C371 1.503 . S
C364 C363 1.410 . S
C364 C365 1.392 . S
C364 C367 1.511 . S
C365 C361 1.376 . S
C365 C364 1.392 . S
C365 H377 0.929 . S
C366 C362 1.531 . S
C366 H378 0.960 . S
C366 H379 0.962 . S
C366 H380 0.960 . S
C367 C364 1.511 . S
C367 H381 0.961 . S
C367 H382 0.973 . S
C367 H383 0.961 . S
C368 C369 1.371 . S
C368 C370 1.363 . S
C368 H384 0.943 . S
C369 C368 1.371 . S
C369 C373 1.409 . S
C370 C368 1.363 . S
C370 C371 1.370 . S
C370 C374 1.524 . S
C371 C363 1.503 . S
C371 C370 1.370 . S
C371 C372 1.403 . S
C372 C371 1.403 . S
C372 C373 1.404 . S
C372 C375 1.539 . S
C373 C369 1.409 . S
C373 C372 1.404 . S
C373 H385 0.930 . S
C374 C370 1.524 . S
C374 H386 0.956 . S
C374 H387 0.961 . S
C374 H388 0.961 . S
C375 C372 1.539 . S
C375 H389 0.958 . S
C375 H390 0.961 . S
C375 H391 0.960 . S
H376 C360 0.931 . S
H377 C365 0.929 . S
H378 C366 0.960 . S
H379 C366 0.962 . S
H380 C366 0.960 . S
H381 C367 0.961 . S
H382 C367 0.973 . S
H383 C367 0.961 . S
H384 C368 0.943 . S
H385 C373 0.930 . S
H386 C374 0.956 . S
H387 C374 0.961 . S
H388 C374 0.961 . S
H389 C375 0.958 . S
H390 C375 0.961 . S
H391 C375 0.960 . S
C392 C393 1.391 . S
C392 C394 1.394 . S
C392 H408 0.931 . S
C393 C392 1.391 . S
C393 C397 1.376 . S
C394 C392 1.394 . S
C394 C395 1.369 . S
C394 C398 1.531 . S
C395 C394 1.369 . S
C395 C396 1.410 . S
C395 C403 1.503 . S
C396 C395 1.410 . S
C396 C397 1.392 . S
C396 C399 1.511 . S
C397 C393 1.376 . S
C397 C396 1.392 . S
C397 H409 0.929 . S
C398 C394 1.531 . S
C398 H410 0.960 . S
C398 H411 0.962 . S
C398 H412 0.960 . S
C399 C396 1.511 . S
C399 H413 0.961 . S
C399 H414 0.961 . S
C399 H415 0.961 . S
C400 C401 1.370 . S
C400 C402 1.363 . S
C400 H416 0.931 . S
C401 C400 1.370 . S
C401 C405 1.408 . S
C402 C400 1.363 . S
C402 C403 1.370 . S
C402 C406 1.524 . S
C403 C395 1.503 . S
C403 C402 1.370 . S
C403 C404 1.403 . S
C404 C403 1.403 . S
C404 C405 1.404 . S
C404 C407 1.539 . S
C405 C401 1.408 . S
C405 C404 1.404 . S
C405 H417 0.930 . S
C406 C402 1.524 . S
C406 H418 0.956 . S
C406 H419 0.961 . S
C406 H420 0.961 . S
C407 C404 1.539 . S
C407 H421 0.958 . S
C407 H422 0.961 . S
C407 H423 0.960 . S
H408 C392 0.931 . S
H409 C397 0.929 . S
H410 C398 0.960 . S
H411 C398 0.962 . S
H412 C398 0.960 . S
H413 C399 0.961 . S
H414 C399 0.961 . S
H415 C399 0.961 . S
H416 C400 0.931 . S
H417 C405 0.930 . S
H418 C406 0.956 . S
H419 C406 0.961 . S
H420 C406 0.961 . S
H421 C407 0.958 . S
H422 C407 0.961 . S
H423 C407 0.960 . S
C424 C425 1.391 . S
C424 C426 1.394 . S
C424 H440 0.931 . S
C425 C424 1.391 . S
C425 C429 1.376 . S
C426 C424 1.394 . S
C426 C427 1.369 . S
C426 C430 1.531 . S
C427 C426 1.369 . S
C427 C428 1.410 . S
C427 C435 1.503 . S
C428 C427 1.410 . S
C428 C429 1.392 . S
C428 C431 1.511 . S
C429 C425 1.376 . S
C429 C428 1.392 . S
C429 H441 0.929 . S
C430 C426 1.531 . S
C430 H442 0.960 . S
C430 H443 0.962 . S
C430 H444 0.960 . S
C431 C428 1.511 . S
C431 H445 0.961 . S
C431 H446 0.961 . S
C431 H447 0.961 . S
C432 C433 1.370 . S
C432 C434 1.363 . S
C432 H448 0.931 . S
C433 C432 1.370 . S
C433 C437 1.408 . S
C434 C432 1.363 . S
C434 C435 1.370 . S
C434 C438 1.524 . S
C435 C427 1.503 . S
C435 C434 1.370 . S
C435 C436 1.403 . S
C436 C435 1.403 . S
C436 C437 1.404 . S
C436 C439 1.539 . S
C437 C433 1.408 . S
C437 C436 1.404 . S
C437 H449 0.930 . S
C438 C434 1.524 . S
C438 H450 0.956 . S
C438 H451 0.961 . S
C438 H452 0.961 . S
C439 C436 1.539 . S
C439 H453 0.958 . S
C439 H454 0.961 . S
C439 H455 0.960 . S
H440 C424 0.931 . S
H441 C429 0.929 . S
H442 C430 0.960 . S
H443 C430 0.962 . S
H444 C430 0.960 . S
H445 C431 0.961 . S
H446 C431 0.961 . S
H447 C431 0.961 . S
H448 C432 0.931 . S
H449 C437 0.930 . S
H450 C438 0.956 . S
H451 C438 0.961 . S
H452 C438 0.961 . S
H453 C439 0.958 . S
H454 C439 0.961 . S
H455 C439 0.960 . S
C456 C457 1.391 . S
C456 C458 1.394 . S
C456 H472 0.931 . S
C457 C456 1.391 . S
C457 C461 1.376 . S
C458 C456 1.394 . S
C458 C459 1.369 . S
C458 C462 1.531 . S
C459 C458 1.369 . S
C459 C460 1.410 . S
C459 C467 1.503 . S
C460 C459 1.410 . S
C460 C461 1.392 . S
C460 C463 1.511 . S
C461 C457 1.376 . S
C461 C460 1.392 . S
C461 H473 0.929 . S
C462 C458 1.531 . S
C462 H474 0.960 . S
C462 H475 0.962 . S
C462 H476 0.960 . S
C463 C460 1.511 . S
C463 H477 0.961 . S
C463 H478 0.961 . S
C463 H479 0.961 . S
C464 C465 1.370 . S
C464 C466 1.363 . S
C464 H480 0.931 . S
C465 C464 1.370 . S
C465 C469 1.408 . S
C466 C464 1.363 . S
C466 C467 1.370 . S
C466 C470 1.524 . S
C467 C459 1.503 . S
C467 C466 1.370 . S
C467 C468 1.403 . S
C468 C467 1.403 . S
C468 C469 1.404 . S
C468 C471 1.539 . S
C469 C465 1.408 . S
C469 C468 1.404 . S
C469 H481 0.930 . S
C470 C466 1.524 . S
C470 H482 0.956 . S
C470 H483 0.961 . S
C470 H484 0.961 . S
C471 C468 1.539 . S
C471 H485 0.958 . S
C471 H486 0.961 . S
C471 H487 0.960 . S
H472 C456 0.931 . S
H473 C461 0.929 . S
H474 C462 0.960 . S
H475 C462 0.962 . S
H476 C462 0.960 . S
H477 C463 0.961 . S
H478 C463 0.961 . S
H479 C463 0.961 . S
H480 C464 0.931 . S
H481 C469 0.930 . S
H482 C470 0.956 . S
H483 C470 0.961 . S
H484 C470 0.961 . S
H485 C471 0.958 . S
H486 C471 0.961 . S
H487 C471 0.960 . S
C488 C489 1.391 . S
C488 C490 1.394 . S
C488 H504 0.931 . S
C489 C488 1.391 . S
C489 C493 1.376 . S
C490 C488 1.394 . S
C490 C491 1.369 . S
C490 C494 1.531 . S
C491 C490 1.369 . S
C491 C492 1.410 . S
C491 C499 1.503 . S
C492 C491 1.410 . S
C492 C493 1.392 . S
C492 C495 1.511 . S
C493 C489 1.376 . S
C493 C492 1.392 . S
C493 H505 0.929 . S
C494 C490 1.531 . S
C494 H506 0.960 . S
C494 H507 0.962 . S
C494 H508 0.960 . S
C495 C492 1.511 . S
C495 H509 0.961 . S
C495 H510 0.961 . S
C495 H511 0.961 . S
C496 C497 1.370 . S
C496 C498 1.363 . S
C496 H512 0.931 . S
C497 C496 1.370 . S
C497 C501 1.408 . S
C498 C496 1.363 . S
C498 C499 1.370 . S
C498 C502 1.524 . S
C499 C491 1.503 . S
C499 C498 1.370 . S
C499 C500 1.403 . S
C500 C499 1.403 . S
C500 C501 1.404 . S
C500 C503 1.539 . S
C501 C497 1.408 . S
C501 C500 1.404 . S
C501 H513 0.930 . S
C502 C498 1.524 . S
C502 H514 0.956 . S
C502 H515 0.961 . S
C502 H516 0.961 . S
C503 C500 1.539 . S
C503 H517 0.958 . S
C503 H518 0.961 . S
C503 H519 0.960 . S
H504 C488 0.931 . S
H505 C493 0.929 . S
H506 C494 0.960 . S
H507 C494 0.962 . S
H508 C494 0.960 . S
H509 C495 0.961 . S
H510 C495 0.961 . S
H511 C495 0.961 . S
H512 C496 0.931 . S
H513 C501 0.930 . S
H514 C502 0.956 . S
H515 C502 0.961 . S
H516 C502 0.961 . S
H517 C503 0.958 . S
H518 C503 0.961 . S
H519 C503 0.960 . S
C520 C521 1.391 . S
C520 C522 1.394 . S
C520 H536 0.931 . S
C521 C520 1.391 . S
C521 C525 1.376 . S
C522 C520 1.394 . S
C522 C523 1.369 . S
C522 C526 1.531 . S
C523 C522 1.369 . S
C523 C524 1.410 . S
C523 C531 1.503 . S
C524 C523 1.410 . S
C524 C525 1.392 . S
C524 C527 1.511 . S
C525 C521 1.376 . S
C525 C524 1.392 . S
C525 H537 0.929 . S
C526 C522 1.531 . S
C526 H538 0.960 . S
C526 H539 0.962 . S
C526 H540 0.960 . S
C527 C524 1.511 . S
C527 H541 0.961 . S
C527 H542 0.961 . S
C527 H543 0.961 . S
C528 C529 1.370 . S
C528 C530 1.363 . S
C528 H544 0.931 . S
C529 C528 1.370 . S
C529 C533 1.408 . S
C530 C528 1.363 . S
C530 C531 1.370 . S
C530 C534 1.524 . S
C531 C523 1.503 . S
C531 C530 1.370 . S
C531 C532 1.403 . S
C532 C531 1.403 . S
C532 C533 1.404 . S
C532 C535 1.539 . S
C533 C529 1.408 . S
C533 C532 1.404 . S
C533 H545 0.930 . S
C534 C530 1.524 . S
C534 H546 0.956 . S
C534 H547 0.961 . S
C534 H548 0.961 . S
C535 C532 1.539 . S
C535 H549 0.958 . S
C535 H550 0.961 . S
C535 H551 0.960 . S
H536 C520 0.931 . S
H537 C525 0.929 . S
H538 C526 0.960 . S
H539 C526 0.962 . S
H540 C526 0.960 . S
H541 C527 0.961 . S
H542 C527 0.961 . S
H543 C527 0.961 . S
H544 C528 0.931 . S
H545 C533 0.930 . S
H546 C534 0.956 . S
H547 C534 0.961 . S
H548 C534 0.961 . S
H549 C535 0.958 . S
H550 C535 0.961 . S
H551 C535 0.960 . S
C552 C553 1.391 . S
C552 C554 1.394 . S
C552 H568 0.931 . S
C553 C552 1.391 . S
C553 C557 1.376 . S
C554 C552 1.394 . S
C554 C555 1.369 . S
C554 C558 1.531 . S
C555 C554 1.369 . S
C555 C556 1.410 . S
C555 C563 1.503 . S
C556 C555 1.410 . S
C556 C557 1.392 . S
C556 C559 1.511 . S
C557 C553 1.376 . S
C557 C556 1.392 . S
C557 H569 0.929 . S
C558 C554 1.531 . S
C558 H570 0.960 . S
C558 H571 0.962 . S
C558 H572 0.960 . S
C559 C556 1.511 . S
C559 H573 0.961 . S
C559 H574 0.961 . S
C559 H575 0.961 . S
C560 C561 1.370 . S
C560 C562 1.363 . S
C560 H576 0.931 . S
C561 C560 1.370 . S
C561 C565 1.408 . S
C562 C560 1.363 . S
C562 C563 1.370 . S
C562 C566 1.524 . S
C563 C555 1.503 . S
C563 C562 1.370 . S
C563 C564 1.403 . S
C564 C563 1.403 . S
C564 C565 1.404 . S
C564 C567 1.539 . S
C565 C561 1.408 . S
C565 C564 1.404 . S
C565 H577 0.930 . S
C566 C562 1.524 . S
C566 H578 0.956 . S
C566 H579 0.961 . S
C566 H580 0.961 . S
C567 C564 1.539 . S
C567 H581 0.958 . S
C567 H582 0.961 . S
C567 H583 0.960 . S
H568 C552 0.931 . S
H569 C557 0.929 . S
H570 C558 0.960 . S
H571 C558 0.962 . S
H572 C558 0.960 . S
H573 C559 0.961 . S
H574 C559 0.961 . S
H575 C559 0.961 . S
H576 C560 0.931 . S
H577 C565 0.930 . S
H578 C566 0.956 . S
H579 C566 0.961 . S
H580 C566 0.961 . S
H581 C567 0.958 . S
H582 C567 0.961 . S
H583 C567 0.960 . S
C584 C585 1.391 . S
C584 C586 1.394 . S
C584 H600 0.931 . S
C585 C584 1.391 . S
C585 C589 1.376 . S
C586 C584 1.394 . S
C586 C587 1.369 . S
C586 C590 1.531 . S
C587 C586 1.369 . S
C587 C588 1.410 . S
C587 C595 1.503 . S
C588 C587 1.410 . S
C588 C589 1.392 . S
C588 C591 1.511 . S
C589 C585 1.376 . S
C589 C588 1.392 . S
C589 H601 0.929 . S
C590 C586 1.531 . S
C590 H602 0.960 . S
C590 H603 0.962 . S
C590 H604 0.960 . S
C591 C588 1.511 . S
C591 H605 0.961 . S
C591 H606 0.971 . S
C591 H607 0.961 . S
C592 C593 1.371 1_556 S
C592 C594 1.363 . S
C592 H608 0.931 . S
C593 C592 1.371 1_554 S
C593 C597 1.409 1_554 S
C594 C592 1.363 . S
C594 C595 1.370 . S
C594 C598 1.524 . S
C595 C587 1.503 . S
C595 C594 1.370 . S
C595 C596 1.403 . S
C596 C595 1.403 . S
C596 C597 1.404 . S
C596 C599 1.539 . S
C597 C593 1.409 1_556 S
C597 C596 1.404 . S
C597 H609 0.930 1_556 S
C598 C594 1.524 . S
C598 H610 0.956 . S
C598 H611 0.961 . S
C598 H612 0.961 . S
C599 C596 1.539 . S
C599 H613 0.958 . S
C599 H614 0.961 . S
C599 H615 0.960 . S
H600 C584 0.931 . S
H601 C589 0.929 . S
H602 C590 0.960 . S
H603 C590 0.962 . S
H604 C590 0.960 . S
H605 C591 0.961 . S
H606 C591 0.971 . S
H607 C591 0.961 . S
H608 C592 0.931 . S
H609 C597 0.930 1_554 S
H610 C598 0.956 . S
H611 C598 0.961 . S
H612 C598 0.961 . S
H613 C599 0.958 . S
H614 C599 0.961 . S
H615 C599 0.960 . S
C616 C617 1.391 . S
C616 C618 1.394 . S
C616 H632 0.931 . S
C617 C616 1.391 . S
C617 C621 1.376 . S
C618 C616 1.394 . S
C618 C619 1.369 . S
C618 C622 1.531 . S
C619 C618 1.369 . S
C619 C620 1.410 . S
C619 C627 1.503 . S
C620 C619 1.410 . S
C620 C621 1.392 . S
C620 C623 1.511 . S
C621 C617 1.376 . S
C621 C620 1.392 . S
C621 H633 0.929 . S
C622 C618 1.531 . S
C622 H634 0.960 . S
C622 H635 0.962 . S
C622 H636 0.960 . S
C623 C620 1.511 . S
C623 H637 0.961 . S
C623 H638 0.961 . S
C623 H639 0.961 . S
C624 C625 1.370 . S
C624 C626 1.363 . S
C624 H640 0.931 . S
C625 C624 1.370 . S
C625 C629 1.408 . S
C626 C624 1.363 . S
C626 C627 1.370 . S
C626 C630 1.524 . S
C627 C619 1.503 . S
C627 C626 1.370 . S
C627 C628 1.403 . S
C628 C627 1.403 . S
C628 C629 1.404 . S
C628 C631 1.539 . S
C629 C625 1.408 . S
C629 C628 1.404 . S
C629 H641 0.930 . S
C630 C626 1.524 . S
C630 H642 0.956 . S
C630 H643 0.961 . S
C630 H644 0.961 . S
C631 C628 1.539 . S
C631 H645 0.958 . S
C631 H646 0.961 . S
C631 H647 0.960 . S
H632 C616 0.931 . S
H633 C621 0.929 . S
H634 C622 0.960 . S
H635 C622 0.962 . S
H636 C622 0.960 . S
H637 C623 0.961 . S
H638 C623 0.961 . S
H639 C623 0.961 . S
H640 C624 0.931 . S
H641 C629 0.930 . S
H642 C630 0.956 . S
H643 C630 0.961 . S
H644 C630 0.961 . S
H645 C631 0.958 . S
H646 C631 0.961 . S
H647 C631 0.960 . S
C648 C649 1.391 . S
C648 C650 1.394 . S
C648 H664 0.931 . S
C649 C648 1.391 . S
C649 C653 1.376 . S
C650 C648 1.394 . S
C650 C651 1.369 . S
C650 C654 1.531 . S
C651 C650 1.369 . S
C651 C652 1.410 . S
C651 C659 1.503 . S
C652 C651 1.410 . S
C652 C653 1.392 . S
C652 C655 1.511 . S
C653 C649 1.376 . S
C653 C652 1.392 . S
C653 H665 0.929 . S
C654 C650 1.531 . S
C654 H666 0.960 . S
C654 H667 0.962 . S
C654 H668 0.960 . S
C655 C652 1.511 . S
C655 H669 0.961 . S
C655 H670 0.961 . S
C655 H671 0.961 . S
C656 C657 1.370 . S
C656 C658 1.363 . S
C656 H672 0.931 . S
C657 C656 1.370 . S
C657 C661 1.408 . S
C658 C656 1.363 . S
C658 C659 1.370 . S
C658 C662 1.524 . S
C659 C651 1.503 . S
C659 C658 1.370 . S
C659 C660 1.403 . S
C660 C659 1.403 . S
C660 C661 1.404 . S
C660 C663 1.539 . S
C661 C657 1.408 . S
C661 C660 1.404 . S
C661 H673 0.930 . S
C662 C658 1.524 . S
C662 H674 0.956 . S
C662 H675 0.961 . S
C662 H676 0.961 . S
C663 C660 1.539 . S
C663 H677 0.958 . S
C663 H678 0.961 . S
C663 H679 0.960 . S
H664 C648 0.931 . S
H665 C653 0.929 . S
H666 C654 0.960 . S
H667 C654 0.962 . S
H668 C654 0.960 . S
H669 C655 0.961 . S
H670 C655 0.961 . S
H671 C655 0.961 . S
H672 C656 0.931 . S
H673 C661 0.930 . S
H674 C662 0.956 . S
H675 C662 0.961 . S
H676 C662 0.961 . S
H677 C663 0.958 . S
H678 C663 0.961 . S
H679 C663 0.960 . S
C680 C681 1.391 . S
C680 C682 1.394 . S
C680 H696 0.931 . S
C681 C680 1.391 . S
C681 C685 1.376 . S
C682 C680 1.394 . S
C682 C683 1.369 . S
C682 C686 1.531 . S
C683 C682 1.369 . S
C683 C684 1.410 . S
C683 C691 1.503 . S
C684 C683 1.410 . S
C684 C685 1.392 . S
C684 C687 1.511 . S
C685 C681 1.376 . S
C685 C684 1.392 . S
C685 H697 0.929 . S
C686 C682 1.531 . S
C686 H698 0.960 . S
C686 H699 0.962 . S
C686 H700 0.960 . S
C687 C684 1.511 . S
C687 H701 0.961 . S
C687 H702 0.961 . S
C687 H703 0.961 . S
C688 C689 1.370 . S
C688 C690 1.363 . S
C688 H704 0.931 . S
C689 C688 1.370 . S
C689 C693 1.408 . S
C690 C688 1.363 . S
C690 C691 1.370 . S
C690 C694 1.524 . S
C691 C683 1.503 . S
C691 C690 1.370 . S
C691 C692 1.403 . S
C692 C691 1.403 . S
C692 C693 1.404 . S
C692 C695 1.539 . S
C693 C689 1.408 . S
C693 C692 1.404 . S
C693 H705 0.930 . S
C694 C690 1.524 . S
C694 H706 0.956 . S
C694 H707 0.961 . S
C694 H708 0.961 . S
C695 C692 1.539 . S
C695 H709 0.958 . S
C695 H710 0.961 . S
C695 H711 0.960 . S
H696 C680 0.931 . S
H697 C685 0.929 . S
H698 C686 0.960 . S
H699 C686 0.962 . S
H700 C686 0.960 . S
H701 C687 0.961 . S
H702 C687 0.961 . S
H703 C687 0.961 . S
H704 C688 0.931 . S
H705 C693 0.930 . S
H706 C694 0.956 . S
H707 C694 0.961 . S
H708 C694 0.961 . S
H709 C695 0.958 . S
H710 C695 0.961 . S
H711 C695 0.960 . S
C712 C713 1.391 . S
C712 C714 1.394 . S
C712 H728 0.931 . S
C713 C712 1.391 . S
C713 C717 1.376 . S
C714 C712 1.394 . S
C714 C715 1.369 . S
C714 C718 1.531 . S
C715 C714 1.369 . S
C715 C716 1.410 . S
C715 C723 1.503 . S
C716 C715 1.410 . S
C716 C717 1.392 . S
C716 C719 1.511 . S
C717 C713 1.376 . S
C717 C716 1.392 . S
C717 H729 0.929 . S
C718 C714 1.531 . S
C718 H730 0.960 . S
C718 H731 0.962 . S
C718 H732 0.960 . S
C719 C716 1.511 . S
C719 H733 0.961 . S
C719 H734 0.961 . S
C719 H735 0.961 . S
C720 C721 1.370 . S
C720 C722 1.363 . S
C720 H736 0.931 . S
C721 C720 1.370 . S
C721 C725 1.408 . S
C722 C720 1.363 . S
C722 C723 1.370 . S
C722 C726 1.524 . S
C723 C715 1.503 . S
C723 C722 1.370 . S
C723 C724 1.403 . S
C724 C723 1.403 . S
C724 C725 1.404 . S
C724 C727 1.539 . S
C725 C721 1.408 . S
C725 C724 1.404 . S
C725 H737 0.930 . S
C726 C722 1.524 . S
C726 H738 0.956 . S
C726 H739 0.961 . S
C726 H740 0.961 . S
C727 C724 1.539 . S
C727 H741 0.958 . S
C727 H742 0.961 . S
C727 H743 0.960 . S
H728 C712 0.931 . S
H729 C717 0.929 . S
H730 C718 0.960 . S
H731 C718 0.962 . S
H732 C718 0.960 . S
H733 C719 0.961 . S
H734 C719 0.961 . S
H735 C719 0.961 . S
H736 C720 0.931 . S
H737 C725 0.930 . S
H738 C726 0.956 . S
H739 C726 0.961 . S
H740 C726 0.961 . S
H741 C727 0.958 . S
H742 C727 0.961 . S
H743 C727 0.960 . S
C744 C745 1.391 . S
C744 C746 1.394 . S
C744 H760 0.931 . S
C745 C744 1.391 . S
C745 C749 1.376 . S
C746 C744 1.394 . S
C746 C747 1.369 . S
C746 C750 1.531 . S
C747 C746 1.369 . S
C747 C748 1.410 . S
C747 C755 1.503 . S
C748 C747 1.410 . S
C748 C749 1.392 . S
C748 C751 1.511 . S
C749 C745 1.376 . S
C749 C748 1.392 . S
C749 H761 0.929 . S
C750 C746 1.531 . S
C750 H762 0.960 . S
C750 H763 0.962 . S
C750 H764 0.960 . S
C751 C748 1.511 . S
C751 H765 0.961 . S
C751 H766 0.961 . S
C751 H767 0.961 . S
C752 C753 1.370 . S
C752 C754 1.363 . S
C752 H768 0.931 . S
C753 C752 1.370 . S
C753 C757 1.408 . S
C754 C752 1.363 . S
C754 C755 1.370 . S
C754 C758 1.524 . S
C755 C747 1.503 . S
C755 C754 1.370 . S
C755 C756 1.403 . S
C756 C755 1.403 . S
C756 C757 1.404 . S
C756 C759 1.539 . S
C757 C753 1.408 . S
C757 C756 1.404 . S
C757 H769 0.930 . S
C758 C754 1.524 . S
C758 H770 0.956 . S
C758 H771 0.961 . S
C758 H772 0.961 . S
C759 C756 1.539 . S
C759 H773 0.958 . S
C759 H774 0.961 . S
C759 H775 0.960 . S
H760 C744 0.931 . S
H761 C749 0.929 . S
H762 C750 0.960 . S
H763 C750 0.962 . S
H764 C750 0.960 . S
H765 C751 0.961 . S
H766 C751 0.961 . S
H767 C751 0.961 . S
H768 C752 0.931 . S
H769 C757 0.930 . S
H770 C758 0.956 . S
H771 C758 0.961 . S
H772 C758 0.961 . S
H773 C759 0.958 . S
H774 C759 0.961 . S
H775 C759 0.960 . S
C776 C777 1.391 . S
C776 C778 1.394 . S
C776 H792 0.931 . S
C777 C776 1.391 . S
C777 C781 1.376 . S
C778 C776 1.394 . S
C778 C779 1.369 . S
C778 C782 1.531 . S
C779 C778 1.369 . S
C779 C780 1.410 . S
C779 C787 1.503 . S
C780 C779 1.410 . S
C780 C781 1.392 . S
C780 C783 1.511 . S
C781 C777 1.376 . S
C781 C780 1.392 . S
C781 H793 0.929 . S
C782 C778 1.531 . S
C782 H794 0.960 . S
C782 H795 0.962 . S
C782 H796 0.960 . S
C783 C780 1.511 . S
C783 H797 0.961 . S
C783 H798 0.961 . S
C783 H799 0.961 . S
C784 C785 1.370 . S
C784 C786 1.363 . S
C784 H800 0.931 . S
C785 C784 1.370 . S
C785 C789 1.408 . S
C786 C784 1.363 . S
C786 C787 1.370 . S
C786 C790 1.524 . S
C787 C779 1.503 . S
C787 C786 1.370 . S
C787 C788 1.403 . S
C788 C787 1.403 . S
C788 C789 1.404 . S
C788 C791 1.539 . S
C789 C785 1.408 . S
C789 C788 1.404 . S
C789 H801 0.930 . S
C790 C786 1.524 . S
C790 H802 0.956 . S
C790 H803 0.961 . S
C790 H804 0.961 . S
C791 C788 1.539 . S
C791 H805 0.958 . S
C791 H806 0.961 . S
C791 H807 0.960 . S
H792 C776 0.931 . S
H793 C781 0.929 . S
H794 C782 0.960 . S
H795 C782 0.962 . S
H796 C782 0.960 . S
H797 C783 0.961 . S
H798 C783 0.961 . S
H799 C783 0.961 . S
H800 C784 0.931 . S
H801 C789 0.930 . S
H802 C790 0.956 . S
H803 C790 0.961 . S
H804 C790 0.961 . S
H805 C791 0.958 . S
H806 C791 0.961 . S
H807 C791 0.960 . S
C808 C809 1.391 . S
C808 C810 1.394 . S
C808 H824 0.931 . S
C809 C808 1.391 . S
C809 C813 1.376 . S
C810 C808 1.394 . S
C810 C811 1.369 . S
C810 C814 1.531 . S
C811 C810 1.369 . S
C811 C812 1.410 . S
C811 C819 1.503 . S
C812 C811 1.410 . S
C812 C813 1.392 . S
C812 C815 1.511 . S
C813 C809 1.376 . S
C813 C812 1.392 . S
C813 H825 0.929 . S
C814 C810 1.531 . S
C814 H826 0.960 . S
C814 H827 0.962 . S
C814 H828 0.960 . S
C815 C812 1.511 . S
C815 H829 0.961 . S
C815 H830 0.961 . S
C815 H831 0.961 . S
C816 C817 1.370 . S
C816 C818 1.363 . S
C816 H832 0.931 . S
C817 C816 1.370 . S
C817 C821 1.408 . S
C818 C816 1.363 . S
C818 C819 1.370 . S
C818 C822 1.524 . S
C819 C811 1.503 . S
C819 C818 1.370 . S
C819 C820 1.403 . S
C820 C819 1.403 . S
C820 C821 1.404 . S
C820 C823 1.539 . S
C821 C817 1.408 . S
C821 C820 1.404 . S
C821 H833 0.930 . S
C822 C818 1.524 . S
C822 H834 0.956 . S
C822 H835 0.961 . S
C822 H836 0.961 . S
C823 C820 1.539 . S
C823 H837 0.958 . S
C823 H838 0.961 . S
C823 H839 0.960 . S
H824 C808 0.931 . S
H825 C813 0.929 . S
H826 C814 0.960 . S
H827 C814 0.962 . S
H828 C814 0.960 . S
H829 C815 0.961 . S
H830 C815 0.961 . S
H831 C815 0.961 . S
H832 C816 0.931 . S
H833 C821 0.930 . S
H834 C822 0.956 . S
H835 C822 0.961 . S
H836 C822 0.961 . S
H837 C823 0.958 . S
H838 C823 0.961 . S
H839 C823 0.960 . S
C840 C841 1.391 . S
C840 C842 1.394 . S
C840 H856 0.931 . S
C841 C840 1.391 . S
C841 C845 1.376 . S
C842 C840 1.394 . S
C842 C843 1.369 . S
C842 C846 1.531 . S
C843 C842 1.369 . S
C843 C844 1.410 . S
C843 C851 1.503 . S
C844 C843 1.410 . S
C844 C845 1.392 . S
C844 C847 1.511 . S
C845 C841 1.376 . S
C845 C844 1.392 . S
C845 H857 0.929 . S
C846 C842 1.531 . S
C846 H858 0.960 . S
C846 H859 0.962 . S
C846 H860 0.960 . S
C847 C844 1.511 . S
C847 H861 0.961 . S
C847 H862 0.961 . S
C847 H863 0.961 . S
C848 C849 1.370 . S
C848 C850 1.363 . S
C848 H864 0.931 . S
C849 C848 1.370 . S
C849 C853 1.408 . S
C850 C848 1.363 . S
C850 C851 1.370 . S
C850 C854 1.524 . S
C851 C843 1.503 . S
C851 C850 1.370 . S
C851 C852 1.403 . S
C852 C851 1.403 . S
C852 C853 1.404 . S
C852 C855 1.539 . S
C853 C849 1.408 . S
C853 C852 1.404 . S
C853 H865 0.930 . S
C854 C850 1.524 . S
C854 H866 0.956 . S
C854 H867 0.961 . S
C854 H868 0.961 . S
C855 C852 1.539 . S
C855 H869 0.958 . S
C855 H870 0.961 . S
C855 H871 0.960 . S
H856 C840 0.931 . S
H857 C845 0.929 . S
H858 C846 0.960 . S
H859 C846 0.962 . S
H860 C846 0.960 . S
H861 C847 0.961 . S
H862 C847 0.961 . S
H863 C847 0.961 . S
H864 C848 0.931 . S
H865 C853 0.930 . S
H866 C854 0.956 . S
H867 C854 0.961 . S
H868 C854 0.961 . S
H869 C855 0.958 . S
H870 C855 0.961 . S
H871 C855 0.960 . S
C872 C873 1.391 . S
C872 C874 1.394 . S
C872 H888 0.931 . S
C873 C872 1.391 . S
C873 C877 1.376 . S
C874 C872 1.394 . S
C874 C875 1.369 . S
C874 C878 1.531 . S
C875 C874 1.369 . S
C875 C876 1.410 . S
C875 C883 1.503 . S
C876 C875 1.410 . S
C876 C877 1.392 . S
C876 C879 1.511 . S
C877 C873 1.376 . S
C877 C876 1.392 . S
C877 H889 0.929 . S
C878 C874 1.531 . S
C878 H890 0.960 . S
C878 H891 0.962 . S
C878 H892 0.960 . S
C879 C876 1.511 . S
C879 H893 0.961 . S
C879 H894 0.961 . S
C879 H895 0.961 . S
C880 C881 1.370 . S
C880 C882 1.363 . S
C880 H896 0.931 . S
C881 C880 1.370 . S
C881 C885 1.408 . S
C882 C880 1.363 . S
C882 C883 1.370 . S
C882 C886 1.524 . S
C883 C875 1.503 . S
C883 C882 1.370 . S
C883 C884 1.403 . S
C884 C883 1.403 . S
C884 C885 1.404 . S
C884 C887 1.539 . S
C885 C881 1.408 . S
C885 C884 1.404 . S
C885 H897 0.930 . S
C886 C882 1.524 . S
C886 H898 0.956 . S
C886 H899 0.961 . S
C886 H900 0.961 . S
C887 C884 1.539 . S
C887 H901 0.958 . S
C887 H902 0.961 . S
C887 H903 0.960 . S
H888 C872 0.931 . S
H889 C877 0.929 . S
H890 C878 0.960 . S
H891 C878 0.962 . S
H892 C878 0.960 . S
H893 C879 0.961 . S
H894 C879 0.961 . S
H895 C879 0.961 . S
H896 C880 0.931 . S
H897 C885 0.930 . S
H898 C886 0.956 . S
H899 C886 0.961 . S
H900 C886 0.961 . S
H901 C887 0.958 . S
H902 C887 0.961 . S
H903 C887 0.960 . S
C904 C905 1.391 . S
C904 C906 1.394 . S
C904 H920 0.931 . S
C905 C904 1.391 . S
C905 C909 1.376 . S
C906 C904 1.394 . S
C906 C907 1.369 . S
C906 C910 1.531 . S
C907 C906 1.369 . S
C907 C908 1.410 . S
C907 C915 1.503 . S
C908 C907 1.410 . S
C908 C909 1.392 . S
C908 C911 1.511 . S
C909 C905 1.376 . S
C909 C908 1.392 . S
C909 H921 0.929 . S
C910 C906 1.531 . S
C910 H922 0.960 . S
C910 H923 0.962 . S
C910 H924 0.960 . S
C911 C908 1.511 . S
C911 H925 0.961 . S
C911 H926 0.961 . S
C911 H927 0.961 . S
C912 C913 1.370 . S
C912 C914 1.363 . S
C912 H928 0.931 . S
C913 C912 1.370 . S
C913 C917 1.408 . S
C914 C912 1.363 . S
C914 C915 1.370 . S
C914 C918 1.524 . S
C915 C907 1.503 . S
C915 C914 1.370 . S
C915 C916 1.403 . S
C916 C915 1.403 . S
C916 C917 1.404 . S
C916 C919 1.539 . S
C917 C913 1.408 . S
C917 C916 1.404 . S
C917 H929 0.930 . S
C918 C914 1.524 . S
C918 H930 0.956 . S
C918 H931 0.961 . S
C918 H932 0.961 . S
C919 C916 1.539 . S
C919 H933 0.958 . S
C919 H934 0.961 . S
C919 H935 0.960 . S
H920 C904 0.931 . S
H921 C909 0.929 . S
H922 C910 0.960 . S
H923 C910 0.962 . S
H924 C910 0.960 . S
H925 C911 0.961 . S
H926 C911 0.961 . S
H927 C911 0.961 . S
H928 C912 0.931 . S
H929 C917 0.930 . S
H930 C918 0.956 . S
H931 C918 0.961 . S
H932 C918 0.961 . S
H933 C919 0.958 . S
H934 C919 0.961 . S
H935 C919 0.960 . S
C169 C123 1.416 . S
C177 C11 1.399 . S
C201 C25 1.383 . S
C209 C137 1.406 . S
C233 C39 1.418 . S
C241 C151 1.403 . S
C265 C53 1.418 . S
C273 C165 1.401 . S
C297 C95 1.392 . S
C305 C67 1.393 . S
C329 C81 1.412 . S
C337 C109 1.396 . S
C361 C9 1.533 . S
C369 C70 1.486 1_554 S
C393 C23 1.531 . S
C401 C0 1.501 . S
C425 C37 1.520 . S
C433 C14 1.507 . S
C457 C28 1.511 . S
C465 C51 1.526 . S
C489 C42 1.470 . S
C497 C65 1.529 . S
C521 C56 1.465 . S
C529 C79 1.526 . S
C553 C98 1.517 . S
C561 C93 1.524 . S
C585 C107 1.535 . S
C593 C112 1.488 . S
C617 C126 1.500 . S
C625 C121 1.529 . S
C649 C135 1.502 . S
C657 C140 1.499 . S
C681 C149 1.531 . S
C689 C154 1.501 . S
C713 C163 1.512 . S
C721 C84 1.507 . S
C745 C145 1.284 . S
C753 C5 1.287 . S
C777 C159 1.284 . S
C785 C19 1.284 . S
C809 C89 1.278 . S
C817 C33 1.284 . S
C841 C47 1.280 . S
C849 C103 1.283 . S
C873 C61 1.282 . S
C881 C117 1.286 . S
C905 C131 1.278 . S
C913 C75 1.283 . S
