# Generated by pormake.
# Topology wlp, (5)-cn, num edge types: 1
# Building blocks:
#     Node 0, Type 0, BuildingBlock: XOMCOT_clean_sbu_1, # of connection points: 5
#     Node 1, Type 0, BuildingBlock: XOMCOT_clean_sbu_1, # of connection points: 5
#     Node 2, Type 0, BuildingBlock: XOMCOT_clean_sbu_1, # of connection points: 5
#     Node 3, Type 0, BuildingBlock: XOMCOT_clean_sbu_1, # of connection points: 5
#     Node 4, Type 0, BuildingBlock: XOMCOT_clean_sbu_1, # of connection points: 5
#     Node 5, Type 0, BuildingBlock: XOMCOT_clean_sbu_1, # of connection points: 5
#     Node 6, Type 0, BuildingBlock: XOMCOT_clean_sbu_1, # of connection points: 5
#     Node 7, Type 0, BuildingBlock: XOMCOT_clean_sbu_1, # of connection points: 5
#     Node 8, Type 0, BuildingBlock: XOMCOT_clean_sbu_1, # of connection points: 5
#     Node 9, Type 0, BuildingBlock: XOMCOT_clean_sbu_1, # of connection points: 5
#     Node 10, Type 0, BuildingBlock: XOMCOT_clean_sbu_1, # of connection points: 5
#     Node 11, Type 0, BuildingBlock: XOMCOT_clean_sbu_1, # of connection points: 5
#     Node 12, Type 0, BuildingBlock: XOMCOT_clean_sbu_1, # of connection points: 5
#     Node 13, Type 0, BuildingBlock: XOMCOT_clean_sbu_1, # of connection points: 5
#     Node 14, Type 0, BuildingBlock: XOMCOT_clean_sbu_1, # of connection points: 5
#     Node 15, Type 0, BuildingBlock: XOMCOT_clean_sbu_1, # of connection points: 5
#     Node 16, Type 0, BuildingBlock: XOMCOT_clean_sbu_1, # of connection points: 5
#     Node 17, Type 0, BuildingBlock: XOMCOT_clean_sbu_1, # of connection points: 5
#     Node 18, Type 0, BuildingBlock: XOMCOT_clean_sbu_1, # of connection points: 5
#     Node 19, Type 0, BuildingBlock: XOMCOT_clean_sbu_1, # of connection points: 5
#     Node 20, Type 0, BuildingBlock: XOMCOT_clean_sbu_1, # of connection points: 5
#     Node 21, Type 0, BuildingBlock: XOMCOT_clean_sbu_1, # of connection points: 5
#     Node 22, Type 0, BuildingBlock: XOMCOT_clean_sbu_1, # of connection points: 5
#     Node 23, Type 0, BuildingBlock: XOMCOT_clean_sbu_1, # of connection points: 5
#     Node 24, Type 0, BuildingBlock: XOMCOT_clean_sbu_1, # of connection points: 5
#     Node 25, Type 0, BuildingBlock: XOMCOT_clean_sbu_1, # of connection points: 5
#     Node 26, Type 0, BuildingBlock: XOMCOT_clean_sbu_1, # of connection points: 5
#     Node 27, Type 0, BuildingBlock: XOMCOT_clean_sbu_1, # of connection points: 5
#     Node 28, Type 0, BuildingBlock: XOMCOT_clean_sbu_1, # of connection points: 5
#     Node 29, Type 0, BuildingBlock: XOMCOT_clean_sbu_1, # of connection points: 5
#     Node 30, Type 0, BuildingBlock: XOMCOT_clean_sbu_1, # of connection points: 5
#     Node 31, Type 0, BuildingBlock: XOMCOT_clean_sbu_1, # of connection points: 5
#     Node 32, Type 0, BuildingBlock: XOMCOT_clean_sbu_1, # of connection points: 5
#     Node 33, Type 0, BuildingBlock: XOMCOT_clean_sbu_1, # of connection points: 5
#     Node 34, Type 0, BuildingBlock: XOMCOT_clean_sbu_1, # of connection points: 5
#     Node 35, Type 0, BuildingBlock: XOMCOT_clean_sbu_1, # of connection points: 5
#     Edge 36, Type (0, 0), BuildingBlock: XIVTED_clean_linker_0, # of connection points: 2
#     Edge 37, Type (0, 0), BuildingBlock: XIVTED_clean_linker_0, # of connection points: 2
#     Edge 38, Type (0, 0), BuildingBlock: XIVTED_clean_linker_0, # of connection points: 2
#     Edge 39, Type (0, 0), BuildingBlock: XIVTED_clean_linker_0, # of connection points: 2
#     Edge 40, Type (0, 0), BuildingBlock: XIVTED_clean_linker_0, # of connection points: 2
#     Edge 41, Type (0, 0), BuildingBlock: XIVTED_clean_linker_0, # of connection points: 2
#     Edge 42, Type (0, 0), BuildingBlock: XIVTED_clean_linker_0, # of connection points: 2
#     Edge 43, Type (0, 0), BuildingBlock: XIVTED_clean_linker_0, # of connection points: 2
#     Edge 44, Type (0, 0), BuildingBlock: XIVTED_clean_linker_0, # of connection points: 2
#     Edge 45, Type (0, 0), BuildingBlock: XIVTED_clean_linker_0, # of connection points: 2
#     Edge 46, Type (0, 0), BuildingBlock: XIVTED_clean_linker_0, # of connection points: 2
#     Edge 47, Type (0, 0), BuildingBlock: XIVTED_clean_linker_0, # of connection points: 2
#     Edge 48, Type (0, 0), BuildingBlock: XIVTED_clean_linker_0, # of connection points: 2
#     Edge 49, Type (0, 0), BuildingBlock: XIVTED_clean_linker_0, # of connection points: 2
#     Edge 50, Type (0, 0), BuildingBlock: XIVTED_clean_linker_0, # of connection points: 2
#     Edge 51, Type (0, 0), BuildingBlock: XIVTED_clean_linker_0, # of connection points: 2
#     Edge 52, Type (0, 0), BuildingBlock: XIVTED_clean_linker_0, # of connection points: 2
#     Edge 53, Type (0, 0), BuildingBlock: XIVTED_clean_linker_0, # of connection points: 2
#     Edge 54, Type (0, 0), BuildingBlock: XIVTED_clean_linker_0, # of connection points: 2
#     Edge 55, Type (0, 0), BuildingBlock: XIVTED_clean_linker_0, # of connection points: 2
#     Edge 56, Type (0, 0), BuildingBlock: XIVTED_clean_linker_0, # of connection points: 2
#     Edge 57, Type (0, 0), BuildingBlock: XIVTED_clean_linker_0, # of connection points: 2
#     Edge 58, Type (0, 0), BuildingBlock: XIVTED_clean_linker_0, # of connection points: 2
#     Edge 59, Type (0, 0), BuildingBlock: XIVTED_clean_linker_0, # of connection points: 2
#     Edge 60, Type (0, 0), BuildingBlock: XIVTED_clean_linker_0, # of connection points: 2
#     Edge 61, Type (0, 0), BuildingBlock: XIVTED_clean_linker_0, # of connection points: 2
#     Edge 62, Type (0, 0), BuildingBlock: XIVTED_clean_linker_0, # of connection points: 2
#     Edge 63, Type (0, 0), BuildingBlock: XIVTED_clean_linker_0, # of connection points: 2
#     Edge 64, Type (0, 0), BuildingBlock: XIVTED_clean_linker_0, # of connection points: 2
#     Edge 65, Type (0, 0), BuildingBlock: XIVTED_clean_linker_0, # of connection points: 2
#     Edge 66, Type (0, 0), BuildingBlock: XIVTED_clean_linker_0, # of connection points: 2
#     Edge 67, Type (0, 0), BuildingBlock: XIVTED_clean_linker_0, # of connection points: 2
#     Edge 68, Type (0, 0), BuildingBlock: XIVTED_clean_linker_0, # of connection points: 2
#     Edge 69, Type (0, 0), BuildingBlock: XIVTED_clean_linker_0, # of connection points: 2
#     Edge 70, Type (0, 0), BuildingBlock: XIVTED_clean_linker_0, # of connection points: 2
#     Edge 71, Type (0, 0), BuildingBlock: XIVTED_clean_linker_0, # of connection points: 2
#     Edge 72, Type (0, 0), BuildingBlock: XIVTED_clean_linker_0, # of connection points: 2
#     Edge 73, Type (0, 0), BuildingBlock: XIVTED_clean_linker_0, # of connection points: 2
#     Edge 74, Type (0, 0), BuildingBlock: XIVTED_clean_linker_0, # of connection points: 2
#     Edge 75, Type (0, 0), BuildingBlock: XIVTED_clean_linker_0, # of connection points: 2
#     Edge 76, Type (0, 0), BuildingBlock: XIVTED_clean_linker_0, # of connection points: 2
#     Edge 77, Type (0, 0), BuildingBlock: XIVTED_clean_linker_0, # of connection points: 2
#     Edge 78, Type (0, 0), BuildingBlock: XIVTED_clean_linker_0, # of connection points: 2
#     Edge 79, Type (0, 0), BuildingBlock: XIVTED_clean_linker_0, # of connection points: 2
#     Edge 80, Type (0, 0), BuildingBlock: XIVTED_clean_linker_0, # of connection points: 2
#     Edge 81, Type (0, 0), BuildingBlock: XIVTED_clean_linker_0, # of connection points: 2
#     Edge 82, Type (0, 0), BuildingBlock: XIVTED_clean_linker_0, # of connection points: 2
#     Edge 83, Type (0, 0), BuildingBlock: XIVTED_clean_linker_0, # of connection points: 2
#     Edge 84, Type (0, 0), BuildingBlock: XIVTED_clean_linker_0, # of connection points: 2
#     Edge 85, Type (0, 0), BuildingBlock: XIVTED_clean_linker_0, # of connection points: 2
#     Edge 86, Type (0, 0), BuildingBlock: XIVTED_clean_linker_0, # of connection points: 2
#     Edge 87, Type (0, 0), BuildingBlock: XIVTED_clean_linker_0, # of connection points: 2
#     Edge 88, Type (0, 0), BuildingBlock: XIVTED_clean_linker_0, # of connection points: 2
#     Edge 89, Type (0, 0), BuildingBlock: XIVTED_clean_linker_0, # of connection points: 2
#     Edge 90, Type (0, 0), BuildingBlock: XIVTED_clean_linker_0, # of connection points: 2
#     Edge 91, Type (0, 0), BuildingBlock: XIVTED_clean_linker_0, # of connection points: 2
#     Edge 92, Type (0, 0), BuildingBlock: XIVTED_clean_linker_0, # of connection points: 2
#     Edge 93, Type (0, 0), BuildingBlock: XIVTED_clean_linker_0, # of connection points: 2
#     Edge 94, Type (0, 0), BuildingBlock: XIVTED_clean_linker_0, # of connection points: 2
#     Edge 95, Type (0, 0), BuildingBlock: XIVTED_clean_linker_0, # of connection points: 2
#     Edge 96, Type (0, 0), BuildingBlock: XIVTED_clean_linker_0, # of connection points: 2
#     Edge 97, Type (0, 0), BuildingBlock: XIVTED_clean_linker_0, # of connection points: 2
#     Edge 98, Type (0, 0), BuildingBlock: XIVTED_clean_linker_0, # of connection points: 2
#     Edge 99, Type (0, 0), BuildingBlock: XIVTED_clean_linker_0, # of connection points: 2
#     Edge 100, Type (0, 0), BuildingBlock: XIVTED_clean_linker_0, # of connection points: 2
#     Edge 101, Type (0, 0), BuildingBlock: XIVTED_clean_linker_0, # of connection points: 2
#     Edge 102, Type (0, 0), BuildingBlock: XIVTED_clean_linker_0, # of connection points: 2
#     Edge 103, Type (0, 0), BuildingBlock: XIVTED_clean_linker_0, # of connection points: 2
#     Edge 104, Type (0, 0), BuildingBlock: XIVTED_clean_linker_0, # of connection points: 2
#     Edge 105, Type (0, 0), BuildingBlock: XIVTED_clean_linker_0, # of connection points: 2
#     Edge 106, Type (0, 0), BuildingBlock: XIVTED_clean_linker_0, # of connection points: 2
#     Edge 107, Type (0, 0), BuildingBlock: XIVTED_clean_linker_0, # of connection points: 2
#     Edge 108, Type (0, 0), BuildingBlock: XIVTED_clean_linker_0, # of connection points: 2
#     Edge 109, Type (0, 0), BuildingBlock: XIVTED_clean_linker_0, # of connection points: 2
#     Edge 110, Type (0, 0), BuildingBlock: XIVTED_clean_linker_0, # of connection points: 2
#     Edge 111, Type (0, 0), BuildingBlock: XIVTED_clean_linker_0, # of connection points: 2
#     Edge 112, Type (0, 0), BuildingBlock: XIVTED_clean_linker_0, # of connection points: 2
#     Edge 113, Type (0, 0), BuildingBlock: XIVTED_clean_linker_0, # of connection points: 2
#     Edge 114, Type (0, 0), BuildingBlock: XIVTED_clean_linker_0, # of connection points: 2
#     Edge 115, Type (0, 0), BuildingBlock: XIVTED_clean_linker_0, # of connection points: 2
#     Edge 116, Type (0, 0), BuildingBlock: XIVTED_clean_linker_0, # of connection points: 2
#     Edge 117, Type (0, 0), BuildingBlock: XIVTED_clean_linker_0, # of connection points: 2
#     Edge 118, Type (0, 0), BuildingBlock: XIVTED_clean_linker_0, # of connection points: 2
#     Edge 119, Type (0, 0), BuildingBlock: XIVTED_clean_linker_0, # of connection points: 2
#     Edge 120, Type (0, 0), BuildingBlock: XIVTED_clean_linker_0, # of connection points: 2
#     Edge 121, Type (0, 0), BuildingBlock: XIVTED_clean_linker_0, # of connection points: 2
#     Edge 122, Type (0, 0), BuildingBlock: XIVTED_clean_linker_0, # of connection points: 2
#     Edge 123, Type (0, 0), BuildingBlock: XIVTED_clean_linker_0, # of connection points: 2
#     Edge 124, Type (0, 0), BuildingBlock: XIVTED_clean_linker_0, # of connection points: 2
#     Edge 125, Type (0, 0), BuildingBlock: XIVTED_clean_linker_0, # of connection points: 2
# Relax obj value: 0.217
# Max RMSD: 0.194
# Mean RMSD: 0.191
data_MOF--net-wlp--node1-XOMCOT_clean_sbu_1--edge1-XIVTED_clean_linker_0
_symmetry_space_group_name_H-M    P1
_symmetry_Int_Tables_number       1
_symmetry_cell_setting            triclinic
loop_
_symmetry_equiv_pos_as_xyz
'x, y, z'
_cell_length_a     112.61109
_cell_length_b     112.54435
_cell_length_c     20.168649
_cell_angle_alpha  89.800453
_cell_angle_beta   89.978279
_cell_angle_gamma 120.08282
loop_
_atom_site_label
_atom_site_type_symbol
_atom_site_fract_x
_atom_site_fract_y
_atom_site_fract_z
_atom_type_partial_charge
C0 C 0.25203 0.16842 0.1648 0.0
C1 C 0.24567 0.15571 0.19496 0.0
N2 N 0.23553 0.1469 0.15476 0.0
N3 N 0.24587 0.16739 0.10615 0.0
C4 C 0.23587 0.1542 0.10156 0.0
H5 H 0.26041 0.17782 0.18453 0.0
Co6 Co 0.24813 0.18093 0.04929 0.0
C7 C 0.24755 0.166 0.91641 0.0
O8 O 0.25917 0.17701 0.90014 0.0
N9 N 0.25002 0.19493 0.99312 0.0
C10 C 0.25037 0.20847 0.91208 0.0
C11 C 0.24853 0.19577 0.92716 0.0
C12 C 0.25207 0.20701 1.01702 0.0
N13 N 0.25262 0.21553 0.96879 0.0
O14 O 0.22954 0.17824 0.08072 0.0
H15 H 0.24501 0.18747 0.89238 0.0
H16 H 0.25251 0.20929 0.06931 0.0
O17 O 0.24135 0.16629 0.9707 0.0
C18 C 0.23112 0.1844 0.13744 0.0
O19 O 0.24345 0.1904 0.16349 0.0
N20 N 0.26687 0.1857 0.03367 0.0
C21 C 0.29542 0.19619 0.0224 0.0
C22 C 0.28601 0.18215 1.01198 0.0
C23 C 0.27178 0.17704 0.01966 0.0
C24 C 0.27598 0.1991 0.04803 0.0
C25 C 0.29009 0.20457 0.04119 0.0
H26 H 0.26474 0.16615 1.01411 0.0
H27 H 0.27241 0.20571 0.06662 0.0
H28 H 0.22871 0.15001 0.06081 0.0
H29 H 0.24846 0.15304 0.24176 0.0
H30 H 0.24861 0.21169 0.86415 0.0
H31 H 0.2896 0.17513 0.99954 0.0
H32 H 0.29677 0.21541 0.05069 0.0
C33 C 0.84544 0.09819 0.17175 0.0
C34 C 0.8561 0.10256 0.21624 0.0
N35 N 0.86555 0.09992 0.19002 0.0
N36 N 0.8484 0.09297 0.11843 0.0
C37 C 0.8607 0.09426 0.13071 0.0
H38 H 0.83579 0.09787 0.17975 0.0
Co39 Co 0.83698 0.08144 0.05596 0.0
C40 C 0.85541 0.09536 0.93096 0.0
O41 O 0.84482 0.09547 0.9044 0.0
N42 N 0.82498 0.069 0.99484 0.0
C43 C 0.81356 0.05532 0.91102 0.0
C44 C 0.82594 0.06613 0.93079 0.0
C45 C 0.81225 0.05931 1.01366 0.0
N46 N 0.80497 0.05117 0.96328 0.0
O47 O 0.8393 0.06584 0.09794 0.0
H48 H 0.83514 0.07069 0.90118 0.0
H49 H 0.80847 0.05806 0.06403 0.0
O50 O 0.85382 0.08937 0.98851 0.0
C51 C 0.8322 0.06083 0.15237 0.0
O52 O 0.82506 0.06639 0.17339 0.0
N53 N 0.83257 0.09526 0.02698 0.0
C54 C 0.82335 0.1134 0.98721 0.0
C55 C 0.83745 0.11805 0.99477 0.0
C56 C 0.84184 0.10886 1.01556 0.0
C57 C 0.81889 0.09105 0.02568 0.0
C58 C 0.8141 0.09974 1.00457 0.0
H59 H 0.8527 0.11265 0.02146 0.0
H60 H 0.81142 0.08091 0.04225 0.0
H61 H 0.86541 0.08996 0.09949 0.0
H62 H 0.85666 0.10689 0.26475 0.0
H63 H 0.81141 0.05013 0.86371 0.0
H64 H 0.84502 0.12862 0.98375 0.0
H65 H 0.80313 0.0958 1.00323 0.0
C66 C 0.95325 0.76804 0.13714 0.0
C67 C 0.94346 0.76036 0.18347 0.0
N68 N 0.93171 0.75978 0.16511 0.0
N69 N 0.94771 0.7724 0.09051 0.0
C70 C 0.93458 0.7673 0.10893 0.0
H71 H 0.96355 0.76968 0.13545 0.0
Co72 Co 0.95684 0.77964 1.01331 0.0
C73 C 0.93836 0.78385 0.91367 0.0
O74 O 0.94343 0.77866 0.87168 0.0
N75 N 0.96689 0.78692 0.93587 0.0
C76 C 0.97773 0.80106 0.85172 0.0
C77 C 0.97215 0.79994 0.9138 0.0
C78 C 0.96964 0.78045 0.88729 0.0
N79 N 0.97599 0.78869 0.83515 0.0
O80 O 0.96966 0.79742 0.06393 0.0
H81 H 0.97161 0.80798 0.94033 0.0
H82 H 0.96656 0.76975 0.88817 0.0
O83 O 0.94235 0.7852 0.97585 0.0
C84 C 0.98092 0.79797 0.08425 0.0
O85 O 0.98365 0.78872 0.06093 0.0
N86 N 0.94621 0.76161 0.97624 0.0
C87 C 0.93207 0.73298 0.9562 0.0
C88 C 0.92521 0.74049 0.95275 0.0
C89 C 0.93238 0.75471 0.96394 0.0
C90 C 0.95286 0.75431 0.98225 0.0
C91 C 0.94614 0.74015 0.97078 0.0
H92 H 0.92647 0.75981 0.96705 0.0
H93 H 0.96347 0.75952 0.99787 0.0
H94 H 0.92722 0.76874 0.08079 0.0
H95 H 0.94476 0.75526 0.22608 0.0
H96 H 0.98275 0.81027 0.82161 0.0
H97 H 0.91428 0.73538 0.94329 0.0
H98 H 0.95181 0.73478 0.97646 0.0
C99 C 0.1912 0.24872 0.43323 0.0
C100 C 0.18759 0.256 0.39149 0.0
N101 N 0.17673 0.25617 0.41829 0.0
N102 N 0.18258 0.24424 0.48554 0.0
C103 C 0.17375 0.24877 0.47484 0.0
H104 H 0.20016 0.24763 0.42817 0.0
Co105 Co 0.18658 0.23788 0.56031 0.0
C106 C 0.16547 0.23341 0.6698 0.0
O107 O 0.17634 0.23884 0.70802 0.0
N108 N 0.19131 0.23145 0.63509 0.0
C109 C 0.18951 0.21815 0.72066 0.0
C110 C 0.18416 0.21858 0.65991 0.0
C111 C 0.20118 0.2385 0.68036 0.0
N112 N 0.20012 0.23077 0.73339 0.0
O113 O 0.18143 0.22004 0.51085 0.0
H114 H 0.17521 0.21022 0.63686 0.0
H115 H 0.20851 0.2493 0.67728 0.0
O116 O 0.16719 0.23187 0.60663 0.0
C117 C 0.19211 0.22028 0.48433 0.0
O118 O 0.20424 0.23044 0.50091 0.0
N119 N 0.19408 0.25602 0.59553 0.0
C120 C 0.20833 0.28476 0.61127 0.0
C121 C 0.19414 0.27691 0.62319 0.0
C122 C 0.18718 0.26264 0.61382 0.0
C123 C 0.2078 0.26357 0.58235 0.0
C124 C 0.21515 0.2778 0.59134 0.0
H125 H 0.17615 0.25728 0.61672 0.0
H126 H 0.21307 0.25848 0.56316 0.0
H127 H 0.16575 0.24724 0.50932 0.0
H128 H 0.19299 0.26136 0.34688 0.0
H129 H 0.18579 0.20931 0.75315 0.0
H130 H 0.18828 0.28182 0.63593 0.0
H131 H 0.22607 0.28329 0.58133 0.0
C132 C 0.76888 0.94917 0.46058 0.0
C133 C 0.76794 0.9396 0.41567 0.0
N134 N 0.77697 0.93569 0.43386 0.0
N135 N 0.77826 0.95093 0.50679 0.0
C136 C 0.78317 0.94278 0.48877 0.0
H137 H 0.76273 0.95408 0.46132 0.0
Co138 Co 0.78204 0.96128 0.58039 0.0
C139 C 0.78795 0.94635 0.69332 0.0
O140 O 0.78045 0.94997 0.72832 0.0
N141 N 0.7861 0.97232 0.65497 0.0
C142 C 0.79795 0.98445 0.74231 0.0
C143 C 0.79871 0.97905 0.6825 0.0
C144 C 0.77796 0.97418 0.69783 0.0
N145 N 0.78484 0.98122 0.75178 0.0
O146 O 0.79957 0.97618 0.53382 0.0
H147 H 0.80776 0.97942 0.66187 0.0
H148 H 0.7671 0.97001 0.69226 0.0
O149 O 0.79035 0.95029 0.63111 0.0
C150 C 0.79697 0.98371 0.4937 0.0
O151 O 0.78431 0.98136 0.49252 0.0
N152 N 0.76407 0.94813 0.61244 0.0
C153 C 0.73579 0.92953 0.63165 0.0
C154 C 0.74549 0.92517 0.63583 0.0
C155 C 0.75948 0.93451 0.62446 0.0
C156 C 0.75468 0.95231 0.60436 0.0
C157 C 0.74067 0.94339 0.61571 0.0
H158 H 0.76638 0.9305 0.62161 0.0
H159 H 0.75809 0.96268 0.58765 0.0
H160 H 0.79053 0.9414 0.51735 0.0
H161 H 0.76086 0.93546 0.37451 0.0
H162 H 0.80635 0.99025 0.7762 0.0
H163 H 0.74227 0.91447 0.64451 0.0
H164 H 0.73374 0.94738 0.61096 0.0
C165 C 0.09393 0.84786 0.39146 0.0
C166 C 0.09734 0.8581 0.34518 0.0
N167 N 0.09471 0.86754 0.37165 0.0
N168 N 0.08935 0.85106 0.44644 0.0
C169 C 0.09009 0.86311 0.43329 0.0
H170 H 0.09378 0.83828 0.38383 0.0
Co171 Co 0.07869 0.83975 0.51226 0.0
C172 C 0.095 0.85766 0.63504 0.0
O173 O 0.09506 0.84674 0.65781 0.0
N174 N 0.06712 0.82792 0.57721 0.0
C175 C 0.05402 0.81731 0.66449 0.0
C176 C 0.06521 0.8292 0.6423 0.0
C177 C 0.05661 0.81547 0.56067 0.0
N178 N 0.04865 0.80872 0.61283 0.0
O179 O 0.06282 0.84245 0.47893 0.0
H180 H 0.07052 0.83846 0.671 0.0
H181 H 0.05436 0.81171 0.51032 0.0
O182 O 0.08829 0.85653 0.58024 0.0
C183 C 0.05715 0.83499 0.42632 0.0
O184 O 0.06243 0.82769 0.40399 0.0
N185 N 0.09223 0.83452 0.53069 0.0
C186 C 0.10934 0.82296 0.54213 0.0
C187 C 0.11473 0.83723 0.54808 0.0
C188 C 0.10606 0.84286 0.54029 0.0
C189 C 0.08713 0.82079 0.52165 0.0
C190 C 0.09532 0.81483 0.52852 0.0
H191 H 0.11048 0.85389 0.54131 0.0
H192 H 0.07666 0.8143 0.50647 0.0
H193 H 0.08613 0.86789 0.46618 0.0
H194 H 0.10109 0.85838 0.29544 0.0
H195 H 0.0493 0.81572 0.71295 0.0
H196 H 0.12559 0.84401 0.55646 0.0
H197 H 0.09061 0.80382 0.52247 0.0
C198 C 0.77147 0.8388 0.17971 0.0
C199 C 0.77051 0.84436 0.23836 0.0
N200 N 0.77819 0.85809 0.23262 0.0
N201 N 0.77946 0.84904 0.13745 0.0
C202 C 0.78354 0.86069 0.17102 0.0
H203 H 0.76677 0.82798 0.16859 0.0
Co204 Co 0.78436 0.84593 0.05708 0.0
C205 C 0.78716 0.86791 0.95834 0.0
O206 O 0.7795 0.857 0.92229 0.0
N207 N 0.78973 0.8423 0.97667 0.0
C208 C 0.80334 0.84553 0.8907 0.0
C209 C 0.80209 0.85089 0.94936 0.0
C210 C 0.78378 0.83159 0.93468 0.0
N211 N 0.7918 0.8334 0.88174 0.0
O212 O 0.80252 0.85001 0.09811 0.0
H213 H 0.80979 0.86042 0.9713 0.0
H214 H 0.77396 0.82249 0.94268 0.0
O215 O 0.79045 0.86598 0.01828 0.0
C216 C 0.80166 0.83892 0.12293 0.0
O217 O 0.79049 0.82723 0.11011 0.0
N218 N 0.76582 0.83948 0.02931 0.0
C219 C 0.73708 0.82695 0.04522 0.0
C220 C 0.74536 0.84128 0.04018 0.0
C221 C 0.75967 0.84734 0.0337 0.0
C222 C 0.75781 0.82551 0.03186 0.0
C223 C 0.74352 0.81908 0.03868 0.0
H224 H 0.76577 0.85833 0.03953 0.0
H225 H 0.76258 0.81929 0.03662 0.0
H226 H 0.79012 0.87083 0.15052 0.0
H227 H 0.76468 0.83881 0.28175 0.0
H228 H 0.81231 0.84982 0.85899 0.0
H229 H 0.74099 0.84785 0.04711 0.0
H230 H 0.73766 0.808 0.043 0.0
C231 C 0.17841 0.93598 0.18167 0.0
C232 C 0.16758 0.93316 0.22297 0.0
N233 N 0.15834 0.93495 0.18823 0.0
N234 N 0.17579 0.93928 0.12133 0.0
C235 C 0.16355 0.93854 0.12677 0.0
H236 H 0.18782 0.93624 0.19532 0.0
Co237 Co 0.18758 0.94782 0.0527 0.0
C238 C 0.16745 0.9278 0.94199 0.0
O239 O 0.17541 0.92248 0.93569 0.0
N240 N 0.19979 0.95722 0.98318 0.0
C241 C 0.21185 0.96391 0.88955 0.0
C242 C 0.20074 0.95335 0.92102 0.0
C243 C 0.21051 0.97014 0.98821 0.0
N244 N 0.21799 0.97449 0.93195 0.0
O245 O 0.18585 0.96474 0.07277 0.0
H246 H 0.19395 0.94362 0.89886 0.0
H247 H 0.21283 0.97626 0.03253 0.0
O248 O 0.17089 0.93788 0.98396 0.0
C249 C 0.19311 0.97076 0.12537 0.0
O250 O 0.20017 0.96553 0.15161 0.0
N251 N 0.19181 0.93323 0.04888 0.0
C252 C 0.2019 0.91536 0.07933 0.0
C253 C 0.1877 0.91047 0.07607 0.0
C254 C 0.18287 0.91962 0.0621 0.0
C255 C 0.20561 0.93797 0.05141 0.0
C256 C 0.2108 0.92927 0.06515 0.0
H257 H 0.17196 0.91588 0.06484 0.0
H258 H 0.21287 0.94881 0.04723 0.0
H259 H 0.15895 0.9414 0.08732 0.0
H260 H 0.16659 0.93004 0.27443 0.0
H261 H 0.21479 0.96396 0.83841 0.0
H262 H 0.1804 0.89986 0.0879 0.0
H263 H 0.22182 0.93361 0.06709 0.0
C264 C 0.08125 0.25128 0.19951 0.0
C265 C 0.09137 0.25697 0.24635 0.0
N266 N 0.10267 0.25746 0.22109 0.0
N267 N 0.08614 0.24812 0.14549 0.0
C268 C 0.09915 0.25176 0.16038 0.0
H269 H 0.0713 0.2505 0.20254 0.0
Co270 Co 0.07708 0.24455 0.067 0.0
C271 C 0.09438 0.24175 0.95681 0.0
O272 O 0.09118 0.25001 0.92547 0.0
N273 N 0.06716 0.24083 0.9888 0.0
C274 C 0.05591 0.22962 0.89855 0.0
C275 C 0.0622 0.2289 0.95543 0.0
C276 C 0.06338 0.24848 0.95239 0.0
N277 N 0.05673 0.24196 0.89681 0.0
O278 O 0.06297 0.22596 0.10484 0.0
H279 H 0.06324 0.22028 0.97128 0.0
H280 H 0.06542 0.25861 0.96562 0.0
O281 O 0.08992 0.23826 1.01785 0.0
C282 C 0.05218 0.22599 0.1276 0.0
O283 O 0.05072 0.23654 0.11226 0.0
N284 N 0.08919 0.26345 0.0437 0.0
C285 C 0.10574 0.29196 0.06665 0.0
C286 C 0.11155 0.28402 0.04651 0.0
C287 C 0.10315 0.26982 0.0357 0.0
C288 C 0.08342 0.27113 0.06168 0.0
C289 C 0.09139 0.28531 0.07221 0.0
H290 H 0.10816 0.26394 0.02723 0.0
H291 H 0.07261 0.26601 0.07384 0.0
H292 H 0.10611 0.251 0.12601 0.0
H293 H 0.09073 0.26123 0.29337 0.0
H294 H 0.05073 0.22154 0.86242 0.0
H295 H 0.12257 0.2886 0.04198 0.0
H296 H 0.08638 0.29079 0.08944 0.0
C297 C 0.8525 0.78124 0.36949 0.0
C298 C 0.8599 0.77773 0.32811 0.0
N299 N 0.86676 0.77328 0.36588 0.0
N300 N 0.85483 0.77909 0.43276 0.0
C301 C 0.86386 0.77464 0.42908 0.0
H302 H 0.84475 0.7836 0.35383 0.0
Co303 Co 0.84317 0.77625 0.50146 0.0
C304 C 0.85943 0.77884 0.63242 0.0
O305 O 0.84746 0.77113 0.66082 0.0
N306 N 0.83054 0.77298 0.56992 0.0
C307 C 0.8119 0.76279 0.63402 0.0
C308 C 0.82056 0.76076 0.59417 0.0
C309 C 0.82781 0.78226 0.59729 0.0
N310 N 0.81636 0.77631 0.63491 0.0
O311 O 0.84571 0.79531 0.48256 0.0
H312 H 0.8191 0.75078 0.58216 0.0
H313 H 0.83378 0.79317 0.58799 0.0
O314 O 0.85953 0.78228 0.57045 0.0
C315 C 0.83561 0.79458 0.44781 0.0
O316 O 0.82489 0.78234 0.4385 0.0
N317 N 0.8386 0.75746 0.50368 0.0
C318 C 0.82725 0.72918 0.4802 0.0
C319 C 0.83838 0.73618 0.52402 0.0
C320 C 0.8439 0.75038 0.5355 0.0
C321 C 0.82818 0.75084 0.45929 0.0
C322 C 0.82227 0.7368 0.44759 0.0
H323 H 0.85248 0.75558 0.5687 0.0
H324 H 0.82427 0.75658 0.43328 0.0
H325 H 0.86679 0.77073 0.47126 0.0
H326 H 0.85933 0.77734 0.27453 0.0
H327 H 0.80258 0.75486 0.65707 0.0
H328 H 0.84262 0.73071 0.54978 0.0
H329 H 0.81389 0.73194 0.41259 0.0
C330 C 0.25998 0.08228 0.38857 0.0
C331 C 0.25495 0.08353 0.32845 0.0
N332 N 0.24331 0.08386 0.33958 0.0
N333 N 0.25162 0.08202 0.43705 0.0
C334 C 0.24178 0.08328 0.40603 0.0
H335 H 0.26826 0.08017 0.39567 0.0
Co336 Co 0.24905 0.07359 0.51739 0.0
C337 C 0.24591 0.09163 0.62184 0.0
O338 O 0.25425 0.08903 0.65628 0.0
N339 N 0.24583 0.06434 0.59804 0.0
C340 C 0.23406 0.05368 0.68884 0.0
C341 C 0.23381 0.05978 0.63047 0.0
C342 C 0.25306 0.06039 0.63675 0.0
N343 N 0.24618 0.05411 0.69268 0.0
O344 O 0.23056 0.05834 0.48255 0.0
H345 H 0.22536 0.06091 0.6127 0.0
H346 H 0.26307 0.06191 0.62486 0.0
O347 O 0.24231 0.0863 0.56255 0.0
C348 C 0.2325 0.05016 0.44434 0.0
O349 O 0.24503 0.05219 0.44071 0.0
N350 N 0.26768 0.0866 0.53876 0.0
C351 C 0.29628 0.10384 0.52299 0.0
C352 C 0.28762 0.10936 0.5318 0.0
C353 C 0.27333 0.10059 0.5382 0.0
C354 C 0.27603 0.08115 0.53136 0.0
C355 C 0.29025 0.08949 0.52477 0.0
H356 H 0.26684 0.1051 0.53681 0.0
H357 H 0.27153 0.07022 0.52416 0.0
H358 H 0.23303 0.08255 0.43191 0.0
H359 H 0.25907 0.08325 0.28041 0.0
H360 H 0.22577 0.04878 0.72445 0.0
H361 H 0.29169 0.12034 0.52875 0.0
H362 H 0.29639 0.08466 0.51767 0.0
C363 C 0.94385 0.18027 0.40563 0.0
C364 C 0.94008 0.1701 0.35912 0.0
N365 N 0.93955 0.15911 0.38916 0.0
N366 N 0.94542 0.17551 0.46433 0.0
C367 C 0.94279 0.16268 0.45286 0.0
H368 H 0.94584 0.1906 0.39691 0.0
Co369 Co 0.95393 0.18526 0.53781 0.0
C370 C 0.93403 0.16654 0.64847 0.0
O371 O 0.93407 0.17764 0.66883 0.0
N372 N 0.96352 0.19555 0.61202 0.0
C373 C 0.97345 0.2027 0.7104 0.0
C374 C 0.96381 0.19167 0.67524 0.0
C375 C 0.97378 0.20877 0.60934 0.0
N376 N 0.97969 0.21345 0.66876 0.0
O377 O 0.96968 0.18202 0.51556 0.0
H378 H 0.95835 0.18132 0.69421 0.0
H379 H 0.97733 0.2147 0.56397 0.0
O380 O 0.9419 0.16764 0.59836 0.0
C381 C 0.97744 0.19102 0.4712 0.0
O382 O 0.97441 0.20047 0.45448 0.0
N383 N 0.94025 0.19061 0.54604 0.0
C384 C 0.92227 0.20107 0.53156 0.0
C385 C 0.91727 0.18684 0.53173 0.0
C386 C 0.92643 0.18182 0.53844 0.0
C387 C 0.94518 0.20443 0.54364 0.0
C388 C 0.93645 0.20982 0.53794 0.0
H389 H 0.92247 0.17088 0.53501 0.0
H390 H 0.95603 0.21151 0.54169 0.0
H391 H 0.94386 0.1563 0.4899 0.0
H392 H 0.93775 0.17068 0.30756 0.0
H393 H 0.97656 0.20248 0.76099 0.0
H394 H 0.90642 0.17965 0.52567 0.0
H395 H 0.94093 0.22087 0.53498 0.0
C396 C 0.9419 0.52004 0.49969 0.0
C397 C 0.93668 0.50929 0.54429 0.0
N398 N 0.9248 0.49914 0.51953 0.0
N399 N 0.93328 0.51644 0.44771 0.0
C400 C 0.92304 0.5037 0.46102 0.0
H401 H 0.95092 0.53003 0.50616 0.0
Co402 Co 0.93246 0.52716 0.38289 0.0
C403 C 0.92892 0.50836 0.2618 0.0
O404 O 0.93948 0.51904 0.23439 0.0
N405 N 0.9313 0.53841 0.31932 0.0
C406 C 0.92834 0.54896 0.23321 0.0
C407 C 0.92771 0.53707 0.25472 0.0
C408 C 0.93327 0.55084 0.33655 0.0
N409 N 0.93194 0.55759 0.28485 0.0
O410 O 0.91422 0.52399 0.42301 0.0
H411 H 0.92383 0.52786 0.22574 0.0
H412 H 0.93536 0.55475 0.3867 0.0
O413 O 0.92428 0.51001 0.31832 0.0
C414 C 0.91599 0.53109 0.47677 0.0
O415 O 0.92862 0.53855 0.4985 0.0
N416 N 0.95095 0.53245 0.35522 0.0
C417 C 0.97912 0.5431 0.32583 0.0
C418 C 0.97 0.52883 0.3313 0.0
C419 C 0.95605 0.52374 0.34725 0.0
C420 C 0.95987 0.54629 0.35316 0.0
C421 C 0.97371 0.55175 0.33714 0.0
H422 H 0.94936 0.5128 0.35356 0.0
H423 H 0.95646 0.55337 0.36583 0.0
H424 H 0.91398 0.49824 0.43054 0.0
H425 H 0.94111 0.50904 0.59153 0.0
H426 H 0.92521 0.55067 0.18501 0.0
H427 H 0.97366 0.52165 0.3251 0.0
H428 H 0.98013 0.5628 0.33403 0.0
C429 C 0.52507 0.42119 0.48559 0.0
C430 C 0.53573 0.42329 0.52614 0.0
N431 N 0.54385 0.41977 0.49257 0.0
N432 N 0.52668 0.41663 0.42644 0.0
C433 C 0.53806 0.41565 0.43255 0.0
H434 H 0.51648 0.42245 0.49921 0.0
Co435 Co 0.51419 0.40873 0.36016 0.0
C436 C 0.5403 0.43358 0.28912 0.0
O437 O 0.54635 0.438 0.34661 0.0
N438 N 0.50131 0.40039 0.29368 0.0
C439 C 0.487 0.3983 0.21304 0.0
C440 C 0.49931 0.40699 0.24266 0.0
C441 C 0.49026 0.38768 0.29334 0.0
N442 N 0.48122 0.38618 0.24548 0.0
O443 O 0.50177 0.39364 0.43055 0.0
H444 H 0.50584 0.41774 0.23076 0.0
H445 H 0.48868 0.37985 0.32905 0.0
O446 O 0.52788 0.42305 0.28852 0.0
C447 C 0.5048 0.38449 0.45083 0.0
O448 O 0.51531 0.38459 0.42197 0.0
N449 N 0.5058 0.41994 0.3782 0.0
C450 C 0.49146 0.43458 0.36647 0.0
C451 C 0.50587 0.44132 0.36229 0.0
C452 C 0.5128 0.43386 0.36833 0.0
C453 C 0.49191 0.41346 0.38869 0.0
C454 C 0.48459 0.4205 0.38224 0.0
H455 H 0.52377 0.43926 0.36211 0.0
H456 H 0.48617 0.40251 0.39713 0.0
H457 H 0.542 0.41197 0.39361 0.0
H458 H 0.5376 0.42746 0.57582 0.0
H459 H 0.48246 0.40097 0.17259 0.0
H460 H 0.51175 0.45218 0.35096 0.0
H461 H 0.47354 0.41482 0.38785 0.0
C462 C 0.6159 0.09754 0.46158 0.0
C463 C 0.60695 0.09645 0.51062 0.0
N464 N 0.60221 0.10494 0.49484 0.0
N465 N 0.61645 0.10647 0.41524 0.0
C466 C 0.60817 0.11095 0.43712 0.0
H467 H 0.62132 0.0919 0.45864 0.0
Co468 Co 0.62611 0.11054 0.33878 0.0
C469 C 0.60927 0.11492 0.23008 0.0
O470 O 0.613 0.10763 0.19414 0.0
N471 N 0.63645 0.11489 0.26151 0.0
C472 C 0.64762 0.12687 0.17211 0.0
C473 C 0.64183 0.12726 0.23137 0.0
C474 C 0.63953 0.10731 0.22077 0.0
N475 N 0.64603 0.11426 0.16565 0.0
O476 O 0.64076 0.12855 0.38141 0.0
H477 H 0.6412 0.1359 0.25051 0.0
H478 H 0.63698 0.09687 0.22968 0.0
O479 O 0.61375 0.11769 0.29131 0.0
C480 C 0.64925 0.12653 0.41714 0.0
O481 O 0.64776 0.1142 0.41593 0.0
N482 N 0.61355 0.09224 0.30997 0.0
C483 C 0.59647 0.06363 0.29645 0.0
C484 C 0.59102 0.07245 0.2939 0.0
C485 C 0.59968 0.08668 0.30193 0.0
C486 C 0.61876 0.08366 0.31699 0.0
C487 C 0.61057 0.06948 0.30838 0.0
H488 H 0.59503 0.09303 0.30529 0.0
H489 H 0.62933 0.08782 0.33186 0.0
H490 H 0.606 0.11795 0.40987 0.0
H491 H 0.60387 0.08971 0.5534 0.0
H492 H 0.65283 0.13525 0.13717 0.0
H493 H 0.58012 0.06838 0.28709 0.0
H494 H 0.61515 0.06307 0.3141 0.0
C495 C 0.86968 0.59629 0.76642 0.0
C496 C 0.86201 0.59755 0.71705 0.0
N497 N 0.84872 0.58878 0.73086 0.0
N498 N 0.86114 0.58696 0.81107 0.0
C499 C 0.84845 0.58243 0.7878 0.0
H500 H 0.88074 0.60204 0.77058 0.0
Co501 Co 0.86641 0.58236 0.88719 0.0
C502 C 0.84496 0.57755 0.99474 0.0
O503 O 0.85587 0.58464 0.03166 0.0
N504 N 0.87202 0.57746 0.96427 0.0
C505 C 0.87077 0.56488 0.05205 0.0
C506 C 0.86532 0.56471 0.99088 0.0
C507 C 0.88172 0.58508 1.00938 0.0
N508 N 0.881 0.57776 0.06352 0.0
O509 O 0.86287 0.56453 0.84243 0.0
H510 H 0.85662 0.55598 0.9684 0.0
H511 H 0.88883 0.59591 1.0051 0.0
O512 O 0.84682 0.57513 0.93323 0.0
C513 C 0.87318 0.56676 0.80457 0.0
O514 O 0.88391 0.57919 0.80465 0.0
N515 N 0.87233 0.60054 0.91799 0.0
C516 C 0.88426 0.62926 0.92966 0.0
C517 C 0.86996 0.62051 0.93423 0.0
C518 C 0.86419 0.60625 0.92675 0.0
C519 C 0.88615 0.60896 0.91082 0.0
C520 C 0.89233 0.62318 0.91839 0.0
H521 H 0.85317 0.60003 0.92367 0.0
H522 H 0.89246 0.6046 0.89714 0.0
H523 H 0.83919 0.57509 0.81341 0.0
H524 H 0.86582 0.60454 0.67521 0.0
H525 H 0.86751 0.55621 0.0853 0.0
H526 H 0.8632 0.62468 0.93983 0.0
H527 H 0.90338 0.62934 0.91391 0.0
C528 C 0.43245 0.27107 0.76348 0.0
C529 C 0.4375 0.2672 0.71061 0.0
N530 N 0.45007 0.2694 0.727 0.0
N531 N 0.44177 0.27541 0.81258 0.0
C532 C 0.4523 0.27431 0.78908 0.0
H533 H 0.42293 0.27123 0.76509 0.0
Co534 Co 0.4433 0.28479 0.88767 0.0
C535 C 0.44911 0.26947 0.99982 0.0
O536 O 0.44095 0.27216 0.03523 0.0
N537 N 0.44555 0.29494 0.96386 0.0
C538 C 0.45611 0.3071 0.05332 0.0
C539 C 0.45739 0.30068 0.99851 0.0
C540 C 0.43746 0.29863 0.99687 0.0
N541 N 0.44354 0.30571 0.05219 0.0
O542 O 0.46075 0.30122 0.84705 0.0
H543 H 0.4664 0.30016 0.9847 0.0
H544 H 0.42749 0.29659 0.98085 0.0
O545 O 0.45195 0.27422 0.93894 0.0
C546 C 0.45713 0.30878 0.81302 0.0
O547 O 0.44414 0.3053 0.81704 0.0
N548 N 0.42535 0.2706 0.91417 0.0
C549 C 0.39747 0.25189 0.93997 0.0
C550 C 0.40721 0.24757 0.94013 0.0
C551 C 0.42108 0.25704 0.92597 0.0
C552 C 0.41575 0.2745 0.90722 0.0
C553 C 0.40192 0.26553 0.92194 0.0
H554 H 0.42823 0.25331 0.9229 0.0
H555 H 0.4188 0.28467 0.88874 0.0
H556 H 0.46177 0.27781 0.81611 0.0
H557 H 0.43233 0.26314 0.66392 0.0
H558 H 0.46401 0.31294 0.08945 0.0
H559 H 0.40416 0.23699 0.95121 0.0
H560 H 0.39469 0.26917 0.91759 0.0
C561 C 0.75998 0.20076 0.75822 0.0
C562 C 0.76592 0.21416 0.73746 0.0
N563 N 0.76538 0.22171 0.78785 0.0
N564 N 0.75571 0.19991 0.82137 0.0
C565 C 0.7592 0.21283 0.83811 0.0
H566 H 0.75954 0.19243 0.73013 0.0
Co567 Co 0.74648 0.18516 0.87702 0.0
C568 C 0.76745 0.19532 0.99947 0.0
O569 O 0.76689 0.18339 1.00382 0.0
N570 N 0.73648 0.17035 0.93496 0.0
C571 C 0.72726 0.1574 0.02473 0.0
C572 C 0.73629 0.17037 1.00189 0.0
C573 C 0.7268 0.15742 0.91875 0.0
N574 N 0.72137 0.14922 0.97207 0.0
O575 O 0.73175 0.17492 0.80075 0.0
H576 H 0.74166 0.17932 0.03279 0.0
H577 H 0.72339 0.1541 0.86878 0.0
O578 O 0.76019 0.19686 0.95387 0.0
C579 C 0.73052 0.16959 0.7422 0.0
O580 O 0.74103 0.16898 0.71807 0.0
N581 N 0.75837 0.17775 0.85267 0.0
C582 C 0.77558 0.16608 0.85673 0.0
C583 C 0.78098 0.18032 0.86319 0.0
C584 C 0.77228 0.18594 0.85989 0.0
C585 C 0.75328 0.16416 0.83842 0.0
C586 C 0.76158 0.15815 0.84114 0.0
H587 H 0.7767 0.19685 0.86766 0.0
H588 H 0.74265 0.15759 0.82691 0.0
H589 H 0.75768 0.21577 0.88705 0.0
H590 H 0.77122 0.21825 0.69086 0.0
H591 H 0.7245 0.1545 0.07609 0.0
H592 H 0.79181 0.18709 0.87252 0.0
H593 H 0.75678 0.14716 0.83417 0.0
C594 C 0.44111 0.18121 0.52719 0.0
C595 C 0.44724 0.19274 0.5663 0.0
N596 N 0.45714 0.20304 0.5301 0.0
N597 N 0.44712 0.18444 0.46697 0.0
C598 C 0.45686 0.19773 0.47037 0.0
H599 H 0.43299 0.17111 0.54174 0.0
Co600 Co 0.44515 0.17307 0.39876 0.0
C601 C 0.44471 0.19245 0.28551 0.0
O602 O 0.43183 0.1832 0.27496 0.0
N603 N 0.44363 0.16127 0.33002 0.0
C604 C 0.44109 0.1501 0.23569 0.0
C605 C 0.44134 0.16126 0.26427 0.0
C606 C 0.44486 0.15006 0.33975 0.0
N607 N 0.44332 0.14307 0.28333 0.0
O608 O 0.46404 0.1758 0.42303 0.0
H609 H 0.4404 0.16895 0.23713 0.0
H610 H 0.44694 0.14708 0.38737 0.0
O611 O 0.45157 0.1899 0.33031 0.0
C612 C 0.46274 0.16816 0.47447 0.0
O613 O 0.45033 0.16047 0.49866 0.0
N614 N 0.42607 0.16791 0.39024 0.0
C615 C 0.39748 0.15685 0.40695 0.0
C616 C 0.40661 0.17111 0.40965 0.0
C617 C 0.42085 0.17642 0.40169 0.0
C618 C 0.41727 0.15403 0.38924 0.0
C619 C 0.40311 0.14838 0.3961 0.0
H620 H 0.42772 0.18736 0.40657 0.0
H621 H 0.42116 0.14703 0.38705 0.0
H622 H 0.46388 0.20338 0.43044 0.0
H623 H 0.44445 0.1936 0.6167 0.0
H624 H 0.44021 0.14784 0.1832 0.0
H625 H 0.40282 0.1781 0.41872 0.0
H626 H 0.39667 0.13731 0.39633 0.0
C627 C 0.85917 0.27511 0.55338 0.0
C628 C 0.85299 0.27381 0.61383 0.0
N629 N 0.84147 0.27442 0.60388 0.0
N630 N 0.85145 0.27632 0.50563 0.0
C631 C 0.84065 0.27562 0.53768 0.0
H632 H 0.86931 0.27654 0.54585 0.0
Co633 Co 0.85774 0.28465 0.42467 0.0
C634 C 0.83687 0.26654 0.31972 0.0
O635 O 0.8478 0.26876 0.28623 0.0
N636 N 0.86423 0.29376 0.34367 0.0
C637 C 0.86391 0.30435 0.25099 0.0
C638 C 0.857 0.29818 0.30831 0.0
C639 C 0.87581 0.29786 0.30776 0.0
N640 N 0.87572 0.3041 0.25078 0.0
O641 O 0.85461 0.30002 0.45684 0.0
H642 H 0.84726 0.29702 0.32354 0.0
H643 H 0.88431 0.2966 0.32264 0.0
O644 O 0.83853 0.27213 0.37832 0.0
C645 C 0.86473 0.30822 0.49493 0.0
O646 O 0.87507 0.30599 0.5003 0.0
N647 N 0.8632 0.2715 0.40536 0.0
C648 C 0.87435 0.25421 0.42272 0.0
C649 C 0.86019 0.24871 0.41307 0.0
C650 C 0.85477 0.25752 0.40591 0.0
C651 C 0.87697 0.27691 0.41383 0.0
C652 C 0.88276 0.26854 0.42105 0.0
H653 H 0.84376 0.25306 0.40671 0.0
H654 H 0.88342 0.28781 0.42175 0.0
H655 H 0.83299 0.27715 0.51306 0.0
H656 H 0.85721 0.27352 0.66155 0.0
H657 H 0.86083 0.30924 0.21389 0.0
H658 H 0.85323 0.23773 0.4161 0.0
H659 H 0.89372 0.27332 0.42904 0.0
C660 C 0.75485 0.59289 0.48103 0.0
C661 C 0.76273 0.59412 0.53518 0.0
N662 N 0.76907 0.58692 0.52281 0.0
N663 N 0.75651 0.58518 0.43499 0.0
C664 C 0.7651 0.58155 0.46192 0.0
H665 H 0.74847 0.59748 0.47494 0.0
Co666 Co 0.74805 0.58107 0.35528 0.0
C667 C 0.76707 0.57917 0.25265 0.0
O668 O 0.76383 0.58712 0.21874 0.0
N669 N 0.73872 0.57651 0.27485 0.0
C670 C 0.72831 0.5638 0.1865 0.0
C671 C 0.73463 0.56432 0.24531 0.0
C672 C 0.73444 0.58311 0.23369 0.0
N673 N 0.72822 0.57564 0.17935 0.0
O674 O 0.73413 0.56248 0.39372 0.0
H675 H 0.73621 0.55629 0.2654 0.0
H676 H 0.73573 0.59312 0.24254 0.0
O677 O 0.76183 0.57536 0.3122 0.0
C678 C 0.7244 0.5633 0.42429 0.0
O679 O 0.72427 0.57486 0.41876 0.0
N680 N 0.76 0.59989 0.3306 0.0
C681 C 0.77579 0.6286 0.35112 0.0
C682 C 0.78206 0.62055 0.34407 0.0
C683 C 0.77403 0.60627 0.33458 0.0
C684 C 0.75381 0.60762 0.3359 0.0
C685 C 0.76144 0.62188 0.34401 0.0
H686 H 0.77907 0.60028 0.33769 0.0
H687 H 0.74279 0.60259 0.34099 0.0
H688 H 0.76875 0.57552 0.43664 0.0
H689 H 0.76389 0.59996 0.57963 0.0
H690 H 0.72364 0.55517 0.15289 0.0
H691 H 0.79301 0.62501 0.35101 0.0
H692 H 0.75594 0.62744 0.34854 0.0
C693 C 0.50319 0.09879 0.74157 0.0
C694 C 0.50973 0.09772 0.68652 0.0
N695 N 0.52332 0.10535 0.69711 0.0
N696 N 0.51269 0.10683 0.78642 0.0
C697 C 0.52486 0.11081 0.75787 0.0
H698 H 0.49222 0.0939 0.74903 0.0
Co699 Co 0.50861 0.11109 0.8664 0.0
C700 C 0.52997 0.11332 0.96785 0.0
O701 O 0.5189 0.1055 1.00291 0.0
N702 N 0.5041 0.1158 0.9472 0.0
C703 C 0.50659 0.12871 0.03506 0.0
C704 C 0.51213 0.12818 0.97535 0.0
C705 C 0.49358 0.10908 0.99028 0.0
N706 N 0.49494 0.11667 0.04431 0.0
O707 O 0.51306 0.12961 0.82682 0.0
H708 H 0.5215 0.13631 0.95376 0.0
H709 H 0.48507 0.09886 0.98326 0.0
O710 O 0.5283 0.11695 0.90824 0.0
C711 C 0.5025 0.12865 0.79558 0.0
O712 O 0.49086 0.11701 0.80101 0.0
N713 N 0.50187 0.09233 0.89191 0.0
C714 C 0.48894 0.06353 0.87304 0.0
C715 C 0.50333 0.07174 0.87774 0.0
C716 C 0.50957 0.08604 0.88676 0.0
C717 C 0.48792 0.08449 0.88851 0.0
C718 C 0.4813 0.0702 0.88165 0.0
H719 H 0.52059 0.0921 0.88222 0.0
H720 H 0.48183 0.08943 0.88431 0.0
H721 H 0.53463 0.11718 0.78189 0.0
H722 H 0.50493 0.09169 0.64266 0.0
H723 H 0.51056 0.13745 0.06795 0.0
H724 H 0.50989 0.06741 0.86955 0.0
H725 H 0.47022 0.06461 0.87944 0.0
C726 C 0.93095 0.42043 0.7566 0.0
C727 C 0.92557 0.42483 0.70748 0.0
N728 N 0.91472 0.42528 0.73295 0.0
N729 N 0.92359 0.41838 0.81239 0.0
C730 C 0.91379 0.42133 0.79655 0.0
H731 H 0.93939 0.41848 0.7517 0.0
Co732 Co 0.9238 0.4097 0.88791 0.0
C733 C 0.92391 0.42946 0.99493 0.0
O734 O 0.93458 0.4292 0.01945 0.0
N735 N 0.92344 0.39993 0.96392 0.0
C736 C 0.91933 0.38982 0.06287 0.0
C737 C 0.91849 0.39956 0.02546 0.0
C738 C 0.92626 0.38958 0.96417 0.0
N739 N 0.92426 0.38359 0.02417 0.0
O740 O 0.90492 0.39407 0.86218 0.0
H741 H 0.91346 0.40505 0.04155 0.0
H742 H 0.92917 0.3861 0.92037 0.0
O743 O 0.91768 0.42173 0.94374 0.0
C744 C 0.90629 0.38653 0.81748 0.0
O745 O 0.91883 0.38968 0.80123 0.0
N746 N 0.9428 0.42339 0.90096 0.0
C747 C 0.97136 0.44175 0.89385 0.0
C748 C 0.962 0.44649 0.88753 0.0
C749 C 0.94779 0.43716 0.89099 0.0
C750 C 0.95185 0.41869 0.90554 0.0
C751 C 0.96603 0.42764 0.9036 0.0
H752 H 0.94078 0.44096 0.88298 0.0
H753 H 0.94824 0.40787 0.90669 0.0
H754 H 0.90579 0.42009 0.83042 0.0
H755 H 0.92945 0.42766 0.65738 0.0
H756 H 0.91543 0.38668 0.11278 0.0
H757 H 0.96561 0.45728 0.87903 0.0
H758 H 0.97278 0.42339 0.90626 0.0
C759 C 0.61068 0.51126 0.68267 0.0
C760 C 0.60753 0.50084 0.63822 0.0
N761 N 0.60851 0.49078 0.66981 0.0
N762 N 0.61339 0.50758 0.74191 0.0
C763 C 0.61196 0.49512 0.73264 0.0
H764 H 0.61166 0.52113 0.67181 0.0
Co765 Co 0.62214 0.51846 0.81326 0.0
C766 C 0.60077 0.49851 0.91976 0.0
O767 O 0.59668 0.50747 0.92719 0.0
N768 N 0.63176 0.52966 0.88497 0.0
C769 C 0.63917 0.54016 0.98182 0.0
C770 C 0.6285 0.52938 0.94964 0.0
C771 C 0.64448 0.54068 0.87942 0.0
N772 N 0.64922 0.54727 0.93744 0.0
O773 O 0.63829 0.51562 0.79259 0.0
H774 H 0.61921 0.52182 0.97337 0.0
H775 H 0.65018 0.54388 0.83346 0.0
O776 O 0.61094 0.50136 0.87902 0.0
C777 C 0.64506 0.52354 0.74272 0.0
O778 O 0.64072 0.53157 0.71886 0.0
N779 N 0.60842 0.52385 0.81895 0.0
C780 C 0.59143 0.53544 0.80456 0.0
C781 C 0.58613 0.52127 0.79617 0.0
C782 C 0.59483 0.51569 0.80292 0.0
C783 C 0.61369 0.53771 0.82418 0.0
C784 C 0.60541 0.54361 0.81877 0.0
H785 H 0.59066 0.50483 0.79453 0.0
H786 H 0.62457 0.54456 0.82921 0.0
H787 H 0.61438 0.48979 0.77026 0.0
H788 H 0.6049 0.50079 0.58658 0.0
H789 H 0.63974 0.54218 0.03449 0.0
H790 H 0.57543 0.51458 0.78401 0.0
H791 H 0.61014 0.55466 0.8226 0.0
C792 C 0.59407 0.84539 0.87481 0.0
C793 C 0.58757 0.83511 0.9213 0.0
N794 N 0.57569 0.82527 0.89488 0.0
N795 N 0.58629 0.84182 0.81976 0.0
C796 C 0.57528 0.82954 0.83319 0.0
H797 H 0.60331 0.85517 0.88212 0.0
Co798 Co 0.58661 0.85252 0.75183 0.0
C799 C 0.58428 0.8346 0.62834 0.0
O800 O 0.59386 0.846 0.60072 0.0
N801 N 0.5865 0.86367 0.68398 0.0
C802 C 0.58198 0.87189 0.59322 0.0
C803 C 0.57969 0.86021 0.62574 0.0
C804 C 0.59188 0.8774 0.68789 0.0
N805 N 0.58974 0.88267 0.63245 0.0
O806 O 0.56807 0.84968 0.78461 0.0
H807 H 0.57274 0.84986 0.60943 0.0
H808 H 0.59642 0.88335 0.73209 0.0
O809 O 0.57962 0.83536 0.68668 0.0
C810 C 0.57003 0.85784 0.83439 0.0
O811 O 0.58277 0.86605 0.8528 0.0
N812 N 0.60533 0.85779 0.73309 0.0
C813 C 0.63369 0.87021 0.70957 0.0
C814 C 0.62505 0.85598 0.7009 0.0
C815 C 0.61086 0.8499 0.71424 0.0
C816 C 0.61395 0.87117 0.74965 0.0
C817 C 0.62798 0.87765 0.73646 0.0
H818 H 0.60443 0.83891 0.70922 0.0
H819 H 0.60998 0.87689 0.77454 0.0
H820 H 0.56661 0.82437 0.80012 0.0
H821 H 0.59117 0.83502 0.97096 0.0
H822 H 0.57728 0.87235 0.54717 0.0
H823 H 0.62914 0.8497 0.68298 0.0
H824 H 0.63436 0.88845 0.74801 0.0
C825 C 0.17284 0.75015 0.79336 0.0
C826 C 0.18379 0.7597 0.82951 0.0
N827 N 0.19514 0.7599 0.80696 0.0
N828 N 0.17752 0.74482 0.74745 0.0
C829 C 0.19108 0.75071 0.75785 0.0
H830 H 0.16232 0.74788 0.79713 0.0
Co831 Co 0.16775 0.7333 0.68056 0.0
C832 C 0.18657 0.7486 0.55939 0.0
O833 O 0.17532 0.74703 0.53146 0.0
N834 N 0.15734 0.72093 0.61483 0.0
C835 C 0.14928 0.70721 0.52753 0.0
C836 C 0.16069 0.71801 0.55518 0.0
C837 C 0.14412 0.71111 0.62414 0.0
N838 N 0.13886 0.70296 0.57094 0.0
O839 O 0.17063 0.71824 0.72401 0.0
H840 H 0.17089 0.72256 0.53468 0.0
H841 H 0.1386 0.70963 0.67023 0.0
O842 O 0.18548 0.7429 0.61751 0.0
C843 C 0.16285 0.71282 0.77617 0.0
O844 O 0.15497 0.71781 0.79336 0.0
N845 N 0.16285 0.74666 0.64994 0.0
C846 C 0.15406 0.76563 0.62072 0.0
C847 C 0.16802 0.77004 0.63037 0.0
C848 C 0.17217 0.76045 0.64536 0.0
C849 C 0.1492 0.74237 0.64355 0.0
C850 C 0.14465 0.75155 0.6277 0.0
H851 H 0.18294 0.7642 0.65441 0.0
H852 H 0.14157 0.73186 0.6533 0.0
H853 H 0.19801 0.74912 0.7269 0.0
H854 H 0.18361 0.76656 0.86649 0.0
H855 H 0.14897 0.70203 0.48183 0.0
H856 H 0.17569 0.78082 0.62644 0.0
H857 H 0.13373 0.74767 0.62339 0.0
C858 C 0.28119 0.42105 0.82358 0.0
C859 C 0.271 0.42029 0.86364 0.0
N860 N 0.26803 0.42988 0.84272 0.0
N861 N 0.28432 0.43089 0.77753 0.0
C862 C 0.27636 0.43629 0.79111 0.0
H863 H 0.2855 0.41436 0.82525 0.0
Co864 Co 0.29566 0.43404 0.70786 0.0
C865 C 0.27991 0.43826 0.59123 0.0
O866 O 0.28212 0.42932 0.55995 0.0
N867 N 0.3079 0.43721 0.63937 0.0
C868 C 0.32161 0.44403 0.55125 0.0
C869 C 0.31097 0.44448 0.58226 0.0
C870 C 0.31744 0.43336 0.64401 0.0
N871 N 0.32553 0.43692 0.59033 0.0
O872 O 0.31046 0.45167 0.7541 0.0
H873 H 0.30647 0.45048 0.5657 0.0
H874 H 0.31882 0.42848 0.68723 0.0
O875 O 0.28533 0.44226 0.65025 0.0
C876 C 0.31717 0.44832 0.79581 0.0
O877 O 0.31314 0.43519 0.79992 0.0
N878 N 0.28277 0.41598 0.67506 0.0
C879 C 0.26456 0.388 0.6487 0.0
C880 C 0.25968 0.39718 0.65704 0.0
C881 C 0.26891 0.41108 0.67073 0.0
C882 C 0.28746 0.40694 0.66991 0.0
C883 C 0.27867 0.39311 0.65523 0.0
H884 H 0.26482 0.41779 0.68003 0.0
H885 H 0.29792 0.41006 0.68114 0.0
H886 H 0.27592 0.44405 0.76107 0.0
H887 H 0.26573 0.41291 0.90295 0.0
H888 H 0.3268 0.44944 0.5063 0.0
H889 H 0.24881 0.39364 0.65387 0.0
H890 H 0.28287 0.38631 0.65242 0.0
C891 C 0.52537 0.92494 0.12744 0.0
C892 C 0.51632 0.9252 0.08272 0.0
N893 N 0.50356 0.91597 0.10292 0.0
N894 N 0.51819 0.91582 0.17578 0.0
C895 C 0.50496 0.91035 0.15896 0.0
H896 H 0.53642 0.93133 0.12629 0.0
Co897 Co 0.52509 0.91241 0.24986 0.0
C898 C 0.50524 0.90874 0.36509 0.0
O899 O 0.51658 0.91585 0.39919 0.0
N900 N 0.53227 0.90869 0.32477 0.0
C901 C 0.53314 0.89759 0.41428 0.0
C902 C 0.52588 0.89661 0.35785 0.0
C903 C 0.54362 0.91667 0.36084 0.0
N904 N 0.54423 0.91026 0.41588 0.0
O905 O 0.52102 0.89409 0.20877 0.0
H906 H 0.5163 0.88778 0.34276 0.0
H907 H 0.55127 0.92706 0.34873 0.0
O908 O 0.50636 0.90579 0.30346 0.0
C909 C 0.53067 0.89618 0.16658 0.0
O910 O 0.541 0.9088 0.16098 0.0
N911 N 0.53151 0.93096 0.27618 0.0
C912 C 0.54408 0.95983 0.28083 0.0
C913 C 0.52997 0.95138 0.29392 0.0
C914 C 0.52382 0.937 0.28985 0.0
C915 C 0.54507 0.93908 0.26103 0.0
C916 C 0.55161 0.95337 0.26494 0.0
H917 H 0.51279 0.93091 0.29346 0.0
H918 H 0.55083 0.9344 0.24336 0.0
H919 H 0.49647 0.90298 0.18902 0.0
H920 H 0.51884 0.93199 0.04036 0.0
H921 H 0.53062 0.88957 0.45067 0.0
H922 H 0.52357 0.95583 0.30366 0.0
H923 H 0.56247 0.95927 0.25396 0.0
C924 C 0.12378 0.59543 0.10363 0.0
C925 C 0.13177 0.59323 0.05948 0.0
N926 N 0.14484 0.60014 0.08092 0.0
N927 N 0.13191 0.60379 0.15212 0.0
C928 C 0.1446 0.60625 0.13748 0.0
H929 H 0.11289 0.59155 0.09894 0.0
Co930 Co 0.12971 0.61279 0.22193 0.0
C931 C 0.12275 0.59278 0.3449 0.0
O932 O 0.11471 0.59712 0.36813 0.0
N933 N 0.12869 0.62238 0.29384 0.0
C934 C 0.13656 0.63405 0.38748 0.0
C935 C 0.13988 0.6292 0.33234 0.0
C936 C 0.11868 0.62335 0.32621 0.0
N937 N 0.12321 0.63027 0.38348 0.0
O938 O 0.13336 0.62924 0.15628 0.0
H939 H 0.14976 0.63022 0.32156 0.0
H940 H 0.1081 0.61853 0.31122 0.0
O941 O 0.12865 0.59755 0.2878 0.0
C942 C 0.13063 0.6299 0.09396 0.0
O943 O 0.12217 0.61838 0.06403 0.0
N944 N 0.10985 0.60313 0.21027 0.0
C945 C 0.08087 0.58949 0.21626 0.0
C946 C 0.08797 0.58235 0.22613 0.0
C947 C 0.10235 0.58929 0.22251 0.0
C948 C 0.10303 0.60995 0.19403 0.0
C949 C 0.08863 0.60341 0.19786 0.0
H950 H 0.10741 0.58343 0.23046 0.0
H951 H 0.10868 0.62083 0.18367 0.0
H952 H 0.15352 0.61249 0.16775 0.0
H953 H 0.12823 0.58674 1.01605 0.0
H954 H 0.14346 0.64006 0.42696 0.0
H955 H 0.08253 0.57156 0.23933 0.0
H956 H 0.08365 0.60935 0.1882 0.0
C957 C 0.42944 0.53367 0.14973 0.0
C958 C 0.43612 0.53701 0.08955 0.0
N959 N 0.43738 0.52629 0.06955 0.0
N960 N 0.42673 0.521 0.16724 0.0
C961 C 0.43152 0.51671 0.11711 0.0
H962 H 0.42677 0.54003 0.17903 0.0
Co963 Co 0.41671 0.51126 0.23896 0.0
C964 C 0.43557 0.52536 0.36229 0.0
O965 O 0.43162 0.51312 0.38682 0.0
N966 N 0.40613 0.50172 0.31111 0.0
C967 C 0.39237 0.4978 0.39726 0.0
C968 C 0.39777 0.50546 0.34052 0.0
C969 C 0.40561 0.49174 0.35048 0.0
N970 N 0.39744 0.48926 0.40325 0.0
O971 O 0.4016 0.49781 0.17347 0.0
H972 H 0.39595 0.51346 0.3223 0.0
H973 H 0.41168 0.48688 0.34408 0.0
O974 O 0.43109 0.52615 0.30399 0.0
C975 C 0.39364 0.50153 0.14464 0.0
O976 O 0.39533 0.51356 0.16126 0.0
N977 N 0.42639 0.50079 0.23977 0.0
C978 C 0.4407 0.48617 0.25699 0.0
C979 C 0.44747 0.50059 0.26029 0.0
C980 C 0.44024 0.50762 0.25107 0.0
C981 C 0.41989 0.48692 0.22885 0.0
C982 C 0.42673 0.47942 0.23869 0.0
H983 H 0.44591 0.51869 0.25327 0.0
H984 H 0.40906 0.48138 0.21732 0.0
H985 H 0.43089 0.5068 0.11539 0.0
H986 H 0.44035 0.5468 0.06411 0.0
H987 H 0.38511 0.49828 0.43078 0.0
H988 H 0.45837 0.50654 0.27005 0.0
H989 H 0.4209 0.46835 0.23438 0.0
C990 C 0.11912 0.5134 0.91139 0.0
C991 C 0.12825 0.52397 0.9511 0.0
N992 N 0.13912 0.53265 0.91357 0.0
N993 N 0.12424 0.51559 0.84937 0.0
C994 C 0.13633 0.52738 0.8521 0.0
H995 H 0.10978 0.50436 0.92735 0.0
Co996 Co 0.11926 0.50347 0.78105 0.0
C997 C 0.12962 0.52248 0.65358 0.0
O998 O 0.13402 0.5148 0.62642 0.0
N999 N 0.11427 0.49105 0.71174 0.0
C1000 C 0.10448 0.47865 0.62185 0.0
C1001 C 0.10562 0.4891 0.6613 0.0
C1002 C 0.11819 0.48167 0.70215 0.0
N1003 N 0.11245 0.474 0.64756 0.0
O1004 O 0.13769 0.50436 0.79208 0.0
H1005 H 0.10055 0.49499 0.65325 0.0
H1006 H 0.12545 0.48079 0.73361 0.0
O1007 O 0.12472 0.51949 0.71329 0.0
C1008 C 0.13655 0.49667 0.84296 0.0
O1009 O 0.12441 0.48972 0.87095 0.0
N1010 N 0.10115 0.50039 0.78429 0.0
C1011 C 0.07335 0.49152 0.80847 0.0
C1012 C 0.08213 0.50455 0.78029 0.0
C1013 C 0.09611 0.50888 0.76913 0.0
C1014 C 0.09273 0.48775 0.81094 0.0
C1015 C 0.0789 0.4831 0.82293 0.0
H1016 H 0.10285 0.51905 0.74967 0.0
H1017 H 0.09689 0.48121 0.8236 0.0
H1018 H 0.14334 0.53154 0.81054 0.0
H1019 H 0.12701 0.52515 1.00345 0.0
H1020 H 0.09842 0.475 0.57717 0.0
H1021 H 0.07835 0.51146 0.76877 0.0
H1022 H 0.0726 0.4729 0.84353 0.0
C1023 C 0.53019 0.6079 0.87864 0.0
C1024 C 0.52498 0.59516 0.90764 0.0
N1025 N 0.51307 0.58655 0.87727 0.0
N1026 N 0.52154 0.60725 0.83074 0.0
C1027 C 0.51104 0.59426 0.83248 0.0
H1028 H 0.54028 0.61663 0.88716 0.0
Co1029 Co 0.52686 0.61929 0.76066 0.0
C1030 C 0.50656 0.60466 0.64691 0.0
O1031 O 0.51749 0.61061 0.60879 0.0
N1032 N 0.53255 0.63173 0.69097 0.0
C1033 C 0.53143 0.64509 0.6129 0.0
C1034 C 0.52523 0.63744 0.66863 0.0
C1035 C 0.54339 0.6364 0.64942 0.0
N1036 N 0.54278 0.64432 0.60105 0.0
O1037 O 0.52165 0.63148 0.81279 0.0
H1038 H 0.51569 0.63571 0.69012 0.0
H1039 H 0.55134 0.63375 0.65235 0.0
O1040 O 0.50807 0.60722 0.71042 0.0
C1041 C 0.53214 0.64062 0.84603 0.0
O1042 O 0.54379 0.64075 0.83889 0.0
N1043 N 0.53425 0.60891 0.72152 0.0
C1044 C 0.54696 0.59282 0.72155 0.0
C1045 C 0.5332 0.58723 0.70235 0.0
C1046 C 0.52699 0.59536 0.70344 0.0
C1047 C 0.54782 0.61463 0.737 0.0
C1048 C 0.55439 0.60689 0.73634 0.0
H1049 H 0.51604 0.59016 0.69706 0.0
H1050 H 0.55331 0.625 0.75588 0.0
H1051 H 0.50257 0.59023 0.79814 0.0
H1052 H 0.53002 0.59226 0.94467 0.0
H1053 H 0.52791 0.65076 0.58334 0.0
H1054 H 0.52692 0.57636 0.6922 0.0
H1055 H 0.56505 0.61175 0.75117 0.0
C1056 C 0.4149 0.92561 0.85791 0.0
C1057 C 0.42005 0.92469 0.91789 0.0
N1058 N 0.42522 0.91627 0.91074 0.0
N1059 N 0.41698 0.91794 0.81341 0.0
C1060 C 0.42317 0.91224 0.84685 0.0
H1061 H 0.40983 0.9314 0.84714 0.0
Co1062 Co 0.4098 0.91527 0.73096 0.0
C1063 C 0.43123 0.9148 0.63694 0.0
O1064 O 0.43045 0.92477 0.60701 0.0
N1065 N 0.40122 0.91231 0.64903 0.0
C1066 C 0.39177 0.9047 0.5501 0.0
C1067 C 0.40122 0.90525 0.59485 0.0
C1068 C 0.39102 0.91502 0.63772 0.0
N1069 N 0.38541 0.91088 0.57744 0.0
O1070 O 0.39487 0.89635 0.7627 0.0
H1071 H 0.40683 0.89987 0.58951 0.0
H1072 H 0.38728 0.91935 0.67441 0.0
O1073 O 0.4236 0.9093 0.68986 0.0
C1074 C 0.38521 0.89696 0.79532 0.0
O1075 O 0.38561 0.90881 0.79651 0.0
N1076 N 0.42289 0.93442 0.71126 0.0
C1077 C 0.43928 0.96319 0.73064 0.0
C1078 C 0.44449 0.95432 0.74263 0.0
C1079 C 0.43624 0.94009 0.73211 0.0
C1080 C 0.41799 0.94299 0.69569 0.0
C1081 C 0.42603 0.95725 0.70323 0.0
H1082 H 0.44022 0.93351 0.74675 0.0
H1083 H 0.40745 0.93896 0.6822 0.0
H1084 H 0.42632 0.90553 0.82453 0.0
H1085 H 0.42011 0.92989 0.96302 0.0
H1086 H 0.38896 0.89916 0.50367 0.0
H1087 H 0.45454 0.95809 0.7641 0.0
H1088 H 0.42149 0.96344 0.69037 0.0
C1089 C 0.17345 0.42562 0.10614 0.0
C1090 C 0.17895 0.42539 0.046 0.0
N1091 N 0.19267 0.43316 0.05084 0.0
N1092 N 0.1837 0.4333 0.14859 0.0
C1093 C 0.19531 0.43786 0.11359 0.0
H1094 H 0.16264 0.42081 0.11774 0.0
Co1095 Co 0.18053 0.43798 0.22986 0.0
C1096 C 0.20196 0.43906 0.32793 0.0
O1097 O 0.19096 0.43159 0.36416 0.0
N1098 N 0.17678 0.44314 0.31133 0.0
C1099 C 0.17961 0.45615 0.39935 0.0
C1100 C 0.18576 0.45469 0.34364 0.0
C1101 C 0.16509 0.43803 0.3472 0.0
N1102 N 0.16661 0.44567 0.40117 0.0
O1103 O 0.18582 0.4567 0.1912 0.0
H1104 H 0.19604 0.46184 0.3266 0.0
H1105 H 0.15545 0.42925 0.33351 0.0
O1106 O 0.2002 0.44282 0.26879 0.0
C1107 C 0.17532 0.45606 0.16088 0.0
O1108 O 0.16347 0.44468 0.16762 0.0
N1109 N 0.17292 0.41908 0.25517 0.0
C1110 C 0.15855 0.39046 0.23096 0.0
C1111 C 0.17292 0.39778 0.23779 0.0
C1112 C 0.17991 0.41206 0.24903 0.0
C1113 C 0.15893 0.41196 0.25117 0.0
C1114 C 0.1516 0.39776 0.24094 0.0
H1115 H 0.19096 0.41756 0.24497 0.0
H1116 H 0.15342 0.41746 0.24648 0.0
H1117 H 0.20545 0.44449 0.13364 0.0
H1118 H 0.17332 0.42008 1.00198 0.0
H1119 H 0.18407 0.4647 0.43349 0.0
H1120 H 0.17887 0.3928 0.22887 0.0
H1121 H 0.14055 0.39274 0.23619 0.0
C1122 C 0.59238 0.7564 0.08714 0.0
C1123 C 0.58423 0.75916 0.04652 0.0
N1124 N 0.57361 0.75793 0.08287 0.0
N1125 N 0.58692 0.75366 0.14854 0.0
C1126 C 0.57556 0.75469 0.14445 0.0
H1127 H 0.60131 0.75581 0.07246 0.0
Co1128 Co 0.59054 0.74555 0.21759 0.0
C1129 C 0.59067 0.76583 0.32693 0.0
O1130 O 0.604 0.77128 0.33223 0.0
N1131 N 0.59378 0.73661 0.28749 0.0
C1132 C 0.59945 0.73025 0.38111 0.0
C1133 C 0.59854 0.74059 0.34965 0.0
C1134 C 0.592 0.72387 0.28245 0.0
N1135 N 0.5953 0.7197 0.33868 0.0
O1136 O 0.57181 0.72854 0.20127 0.0
H1137 H 0.6011 0.7502 0.37203 0.0
H1138 H 0.58831 0.71771 0.23822 0.0
O1139 O 0.58399 0.75565 0.28571 0.0
C1140 C 0.57264 0.72201 0.14986 0.0
O1141 O 0.5847 0.72697 0.1213 0.0
N1142 N 0.60939 0.76021 0.21879 0.0
C1143 C 0.63756 0.77813 0.19194 0.0
C1144 C 0.62816 0.78293 0.19174 0.0
C1145 C 0.6141 0.77378 0.20463 0.0
C1146 C 0.61842 0.75544 0.21663 0.0
C1147 C 0.63238 0.76415 0.20487 0.0
H1148 H 0.60694 0.77752 0.20124 0.0
H1149 H 0.61478 0.74459 0.22013 0.0
H1150 H 0.56843 0.75234 0.18505 0.0
H1151 H 0.586 0.76189 0.99449 0.0
H1152 H 0.60223 0.73024 0.43247 0.0
H1153 H 0.63158 0.7936 0.18081 0.0
H1154 H 0.63898 0.75972 0.20253 0.0
C1155 C 0.27737 0.85334 0.06067 0.0
C1156 C 0.27409 0.84769 0.99879 0.0
N1157 N 0.26996 0.83422 1.00428 0.0
N1158 N 0.27519 0.84348 0.10502 0.0
C1159 C 0.27073 0.83195 0.06959 0.0
H1160 H 0.28192 0.86413 0.07211 0.0
Co1161 Co 0.28258 0.84783 0.18713 0.0
C1162 C 0.26325 0.82581 0.28625 0.0
O1163 O 0.26557 0.83662 0.32097 0.0
N1164 N 0.2911 0.85292 0.26935 0.0
C1165 C 0.30151 0.85226 0.36171 0.0
C1166 C 0.29442 0.84504 0.3068 0.0
C1167 C 0.29684 0.86509 0.30103 0.0
N1168 N 0.30302 0.86487 0.3577 0.0
O1169 O 0.29766 0.84441 0.15344 0.0
H1170 H 0.29221 0.83482 0.2938 0.0
H1171 H 0.29728 0.87424 0.2819 0.0
O1172 O 0.26914 0.82788 0.2279 0.0
C1173 C 0.30752 0.85538 0.12565 0.0
O1174 O 0.3072 0.86683 0.13181 0.0
N1175 N 0.26953 0.8535 0.2082 0.0
C1176 C 0.25215 0.86485 0.19908 0.0
C1177 C 0.24674 0.85055 0.20123 0.0
C1178 C 0.25557 0.84509 0.20459 0.0
C1179 C 0.27489 0.86737 0.2044 0.0
C1180 C 0.26648 0.87323 0.20149 0.0
H1181 H 0.25113 0.83414 0.19928 0.0
H1182 H 0.28575 0.87399 0.1965 0.0
H1183 H 0.26859 0.82227 0.09125 0.0
H1184 H 0.27512 0.85323 0.95328 0.0
H1185 H 0.3061 0.84888 0.39898 0.0
H1186 H 0.23578 0.84359 0.19789 0.0
H1187 H 0.27127 0.88427 0.19628 0.0
H1188 H 0.24703 0.11597 0.57773 0.0
H1189 H 0.23445 0.13763 0.94606 0.0
H1190 H 0.2364 0.08952 0.74843 0.0
H1191 H 0.25126 0.16589 0.78212 0.0
H1192 H 0.23185 0.11898 0.87184 0.0
H1193 H 0.24534 0.13316 0.64719 0.0
C1194 C 0.24386 0.11351 0.62902 0.0
C1195 C 0.24155 0.10094 0.65609 0.0
C1196 C 0.23593 0.12923 0.85174 0.0
C1197 C 0.23997 0.12105 0.73791 0.0
C1198 C 0.23726 0.13992 0.89434 0.0
C1199 C 0.24298 0.15355 0.8711 0.0
C1200 C 0.24021 0.13198 0.78453 0.0
C1201 C 0.24673 0.15566 0.80311 0.0
C1202 C 0.2431 0.12348 0.66933 0.0
C1203 C 0.23805 0.09885 0.72436 0.0
N1204 N 0.24533 0.14519 0.76305 0.0
N1205 N 0.2374 0.10863 0.76224 0.0
H1206 H 0.93356 0.16334 0.78296 0.0
H1207 H 0.85898 0.09518 0.79698 0.0
H1208 H 0.9128 0.14058 0.6084 0.0
H1209 H 0.88238 0.11409 0.97294 0.0
H1210 H 0.87882 0.1107 0.72873 0.0
H1211 H 0.9159 0.14504 0.85234 0.0
C1212 C 0.9255 0.15429 0.75892 0.0
C1213 C 0.9251 0.15354 0.68891 0.0
C1214 C 0.8798 0.11139 0.78217 0.0
C1215 C 0.90403 0.13234 0.76985 0.0
C1216 C 0.86841 0.10238 0.82169 0.0
C1217 C 0.86884 0.10294 0.89175 0.0
C1218 C 0.892 0.12153 0.81181 0.0
C1219 C 0.88145 0.11288 0.91965 0.0
C1220 C 0.91526 0.14382 0.79901 0.0
C1221 C 0.91397 0.1416 0.66169 0.0
N1222 N 0.89234 0.12177 0.87996 0.0
N1223 N 0.90393 0.13167 0.7018 0.0
H1224 H 0.88761 0.79028 0.59679 0.0
H1225 H 0.91184 0.77724 0.95906 0.0
H1226 H 0.86064 0.7742 0.76584 0.0
H1227 H 0.93936 0.79554 0.79372 0.0
H1228 H 0.89335 0.77716 0.89192 0.0
H1229 H 0.90676 0.79312 0.66827 0.0
C1230 C 0.88563 0.78745 0.64867 0.0
C1231 C 0.87219 0.78198 0.67408 0.0
C1232 C 0.90351 0.78142 0.87056 0.0
C1233 C 0.89445 0.78512 0.7578 0.0
C1234 C 0.9142 0.78167 0.90974 0.0
C1235 C 0.92752 0.78671 0.8835 0.0
C1236 C 0.90589 0.78611 0.80375 0.0
C1237 C 0.92946 0.79173 0.81735 0.0
C1238 C 0.89665 0.78904 0.68987 0.0
C1239 C 0.87062 0.77844 0.74259 0.0
N1240 N 0.91896 0.79125 0.78045 0.0
N1241 N 0.88138 0.78001 0.78107 0.0
H1242 H 0.1125 0.23216 0.99749 0.0
H1243 H 0.14379 0.23746 0.62551 0.0
H1244 H 0.09729 0.24206 0.82219 0.0
H1245 H 0.15752 0.22493 0.79721 0.0
H1246 H 0.12594 0.23799 0.69533 0.0
H1247 H 0.12826 0.22841 0.92582 0.0
C1248 C 0.11225 0.23338 0.94433 0.0
C1249 C 0.10333 0.2375 0.91704 0.0
C1250 C 0.13274 0.23492 0.71765 0.0
C1251 C 0.12175 0.23335 0.83327 0.0
C1252 C 0.14288 0.23443 0.67711 0.0
C1253 C 0.15226 0.23093 0.70431 0.0
C1254 C 0.13185 0.23199 0.78666 0.0
C1255 C 0.15059 0.22759 0.77297 0.0
C1256 C 0.12138 0.23132 0.90302 0.0
C1257 C 0.10388 0.23902 0.84688 0.0
N1258 N 0.14084 0.22828 0.81106 0.0
N1259 N 0.11279 0.23705 0.80841 0.0
H1260 H 0.79307 0.87406 0.82761 0.0
H1261 H 0.79251 0.94556 0.82566 0.0
H1262 H 0.78965 0.89293 1.00637 0.0
H1263 H 0.7911 0.92417 0.6466 0.0
H1264 H 0.79402 0.92803 0.89098 0.0
H1265 H 0.79493 0.89331 0.76279 0.0
C1266 C 0.79297 0.88239 0.85393 0.0
C1267 C 0.79131 0.88163 0.92378 0.0
C1268 C 0.79355 0.92716 0.83748 0.0
C1269 C 0.79327 0.90423 0.84717 0.0
C1270 C 0.79277 0.9373 0.79942 0.0
C1271 C 0.79178 0.93669 0.72929 0.0
C1272 C 0.79336 0.91591 0.80647 0.0
C1273 C 0.79208 0.92546 0.69984 0.0
C1274 C 0.79395 0.89343 0.81615 0.0
C1275 C 0.79116 0.89292 0.95339 0.0
N1276 N 0.79276 0.91561 0.73826 0.0
N1277 N 0.79204 0.90358 0.91522 0.0
H1278 H 0.16641 0.93021 0.8067 0.0
H1279 H 0.09316 0.86062 0.76849 0.0
H1280 H 0.14015 0.909 0.97229 0.0
H1281 H 0.11656 0.884 0.59937 0.0
H1282 H 0.10932 0.87898 0.84175 0.0
H1283 H 0.14801 0.91485 0.73054 0.0
C1284 C 0.15657 0.9227 0.82734 0.0
C1285 C 0.15485 0.92151 0.897 0.0
C1286 C 0.11087 0.88033 0.78867 0.0
C1287 C 0.13354 0.90294 0.80821 0.0
C1288 C 0.10148 0.86982 0.74626 0.0
C1289 C 0.10303 0.87069 0.67652 0.0
C1290 C 0.12244 0.89204 0.76253 0.0
C1291 C 0.11448 0.88285 0.6521 0.0
C1292 C 0.14606 0.91371 0.78339 0.0
C1293 C 0.14196 0.91088 0.91957 0.0
N1294 N 0.12369 0.89285 0.6946 0.0
N1295 N 0.13201 0.9021 0.87592 0.0
H1296 H 0.79998 0.9343 0.42041 0.0
H1297 H 0.75811 0.85589 0.31299 0.0
H1298 H 0.75607 0.91132 0.39513 0.0
H1299 H 0.80027 0.88288 0.25611 0.0
H1300 H 0.75847 0.87467 0.37503 0.0
H1301 H 0.80121 0.91402 0.38668 0.0
C1302 C 0.79065 0.92497 0.40737 0.0
C1303 C 0.77794 0.92438 0.40924 0.0
C1304 C 0.76769 0.87639 0.34976 0.0
C1305 C 0.77919 0.90137 0.37291 0.0
C1306 C 0.76753 0.8657 0.31506 0.0
C1307 C 0.77911 0.86805 0.27881 0.0
C1308 C 0.77954 0.88939 0.34812 0.0
C1309 C 0.79108 0.88088 0.2825 0.0
C1310 C 0.79133 0.91347 0.38865 0.0
C1311 C 0.76606 0.91216 0.39266 0.0
N1312 N 0.79096 0.89121 0.31608 0.0
N1313 N 0.76696 0.90105 0.3752 0.0
H1314 H 0.13579 0.92784 0.11227 0.0
H1315 H 0.09277 0.87187 0.241 0.0
H1316 H 0.15048 0.93638 0.3137 0.0
H1317 H 0.09981 0.89102 0.43275 0.0
H1318 H 0.10165 0.89414 0.18884 0.0
H1319 H 0.11232 0.91614 0.15346 0.0
C1320 C 0.13411 0.92753 0.16521 0.0
C1321 C 0.14507 0.93218 0.21008 0.0
C1322 C 0.10082 0.89358 0.24231 0.0
C1323 C 0.11837 0.91819 0.25704 0.0
C1324 C 0.09596 0.8808 0.27203 0.0
C1325 C 0.09639 0.87979 0.34101 0.0
C1326 C 0.10658 0.90542 0.2822 0.0
C1327 C 0.09985 0.89147 0.37918 0.0
C1328 C 0.12066 0.92074 0.18871 0.0
C1329 C 0.14227 0.93204 0.27771 0.0
N1330 N 0.10526 0.90391 0.34924 0.0
N1331 N 0.12914 0.92473 0.29941 0.0
H1332 H 0.16271 0.26577 0.48819 0.0
H1333 H 0.12725 0.26947 0.15782 0.0
H1334 H 0.17564 0.26285 0.29031 0.0
H1335 H 0.10852 0.26033 0.35197 0.0
H1336 H 0.14943 0.27659 0.2092 0.0
H1337 H 0.14768 0.27341 0.44126 0.0
C1338 C 0.16248 0.26684 0.43494 0.0
C1339 C 0.16994 0.26308 0.39277 0.0
C1340 C 0.14049 0.27328 0.24052 0.0
C1341 C 0.15306 0.27202 0.33925 0.0
C1342 C 0.12783 0.26904 0.21126 0.0
C1343 C 0.11598 0.26373 0.25071 0.0
C1344 C 0.14122 0.27209 0.30944 0.0
C1345 C 0.11737 0.26408 0.31978 0.0
C1346 C 0.15405 0.27137 0.40832 0.0
C1347 C 0.16983 0.26535 0.32449 0.0
N1348 N 0.12975 0.2679 0.34702 0.0
N1349 N 0.16125 0.2694 0.29963 0.0
H1350 H 0.92808 0.75533 0.29739 0.0
H1351 H 0.85988 0.75686 0.258 0.0
H1352 H 0.90621 0.74919 0.11355 0.0
H1353 H 0.88676 0.77102 0.42763 0.0
H1354 H 0.87149 0.74483 0.21887 0.0
H1355 H 0.90748 0.75058 0.35809 0.0
C1356 C 0.91883 0.7526 0.26981 0.0
C1357 C 0.91897 0.75335 0.20043 0.0
C1358 C 0.87469 0.75039 0.26523 0.0
C1359 C 0.89561 0.74826 0.26918 0.0
C1360 C 0.86826 0.75746 0.28688 0.0
C1361 C 0.87283 0.76543 0.34452 0.0
C1362 C 0.88585 0.75148 0.30109 0.0
C1363 C 0.88319 0.76525 0.38206 0.0
C1364 C 0.90708 0.74992 0.30449 0.0
C1365 C 0.90666 0.74944 0.16714 0.0
N1366 N 0.88956 0.7586 0.35898 0.0
N1367 N 0.89551 0.74742 0.20188 0.0
H1368 H 0.21688 0.07818 0.35816 0.0
H1369 H 0.23139 0.12813 0.06198 0.0
H1370 H 0.24832 0.09024 0.20818 0.0
H1371 H 0.22165 0.13276 0.26321 0.0
H1372 H 0.22362 0.10391 0.08446 0.0
H1373 H 0.20533 0.08687 0.2882 0.0
C1374 C 0.2213 0.08243 0.31027 0.0
C1375 C 0.23425 0.08455 0.29141 0.0
C1376 C 0.22255 0.11007 0.12262 0.0
C1377 C 0.22065 0.0938 0.21042 0.0
C1378 C 0.22705 0.12385 0.11004 0.0
C1379 C 0.22755 0.13235 0.16183 0.0
C1380 C 0.21858 0.10496 0.18722 0.0
C1381 C 0.22179 0.12648 0.22304 0.0
C1382 C 0.21447 0.08708 0.26979 0.0
C1383 C 0.23877 0.08906 0.22651 0.0
N1384 N 0.21774 0.11312 0.23457 0.0
N1385 N 0.23217 0.09392 0.18889 0.0
H1386 H 0.8701 0.09757 0.31966 0.0
H1387 H 0.9415 0.15279 0.26166 0.0
H1388 H 0.88909 0.1063 0.12651 0.0
H1389 H 0.92639 0.13475 0.45429 0.0
H1390 H 0.92623 0.13067 0.211 0.0
H1391 H 0.89241 0.10504 0.36998 0.0
C1392 C 0.879 0.10095 0.288 0.0
C1393 C 0.87799 0.102 0.21941 0.0
C1394 C 0.92653 0.13138 0.26457 0.0
C1395 C 0.90348 0.11069 0.27587 0.0
C1396 C 0.93518 0.14406 0.29329 0.0
C1397 C 0.93452 0.14573 0.36165 0.0
C1398 C 0.91686 0.12061 0.30464 0.0
C1399 C 0.92678 0.13402 0.40098 0.0
C1400 C 0.89171 0.10502 0.31642 0.0
C1401 C 0.88959 0.10577 0.17993 0.0
N1402 N 0.91784 0.122 0.37171 0.0
N1403 N 0.90198 0.11038 0.20885 0.0
H1404 H 0.91838 0.44962 0.94616 0.0
H1405 H 0.9203 0.48177 0.31061 0.0
H1406 H 0.9213 0.43136 0.12867 0.0
H1407 H 0.92648 0.50399 0.12782 0.0
H1408 H 0.91666 0.46157 0.24568 0.0
H1409 H 0.91728 0.46766 1.01126 0.0
C1410 C 0.91832 0.44908 0.99979 0.0
C1411 C 0.91967 0.43862 0.03136 0.0
C1412 C 0.91859 0.4708 0.21962 0.0
C1413 C 0.91875 0.4597 0.1074 0.0
C1414 C 0.9205 0.48234 0.25698 0.0
C1415 C 0.92356 0.49475 0.22529 0.0
C1416 C 0.91958 0.47145 0.14948 0.0
C1417 C 0.92406 0.49474 0.15509 0.0
C1418 C 0.9179 0.45956 0.03725 0.0
C1419 C 0.92007 0.43899 0.10157 0.0
N1420 N 0.92214 0.48346 0.12018 0.0
N1421 N 0.91963 0.4492 0.13662 0.0
H1422 H 0.53216 0.4341 0.15591 0.0
H1423 H 0.60943 0.48998 0.03045 0.0
H1424 H 0.56812 0.45098 0.27963 0.0
H1425 H 0.57358 0.47879 0.91253 0.0
H1426 H 0.59466 0.47335 0.11591 0.0
H1427 H 0.54691 0.44802 0.06208 0.0
C1428 C 0.54309 0.44058 0.16369 0.0
C1429 C 0.54867 0.44122 0.22719 0.0
C1430 C 0.58999 0.47425 0.07067 0.0
C1431 C 0.56592 0.45735 0.11826 0.0
C1432 C 0.59855 0.48363 0.02092 0.0
C1433 C 0.59298 0.48557 0.96201 0.0
C1434 C 0.57555 0.46663 0.06281 0.0
C1435 C 0.57853 0.47743 0.95555 0.0
C1436 C 0.55158 0.44862 0.10978 0.0
C1437 C 0.56308 0.45003 0.23268 0.0
N1438 N 0.57045 0.46847 1.00456 0.0
N1439 N 0.57101 0.45757 0.17994 0.0
H1440 H 0.55572 0.11828 0.91657 0.0
H1441 H 0.58708 0.11744 0.2816 0.0
H1442 H 0.53536 0.11613 0.10072 0.0
H1443 H 0.60745 0.11928 0.09793 0.0
H1444 H 0.56901 0.11875 0.21722 0.0
H1445 H 0.57546 0.12041 0.98107 0.0
C1446 C 0.55542 0.11853 0.97018 0.0
C1447 C 0.54361 0.11707 1.00226 0.0
C1448 C 0.57753 0.11903 0.19093 0.0
C1449 C 0.56642 0.11928 0.0779 0.0
C1450 C 0.58802 0.11844 0.22817 0.0
C1451 C 0.59913 0.11836 0.19615 0.0
C1452 C 0.57795 0.11955 0.1205 0.0
C1453 C 0.59926 0.11933 0.12584 0.0
C1454 C 0.56672 0.11962 1.00744 0.0
C1455 C 0.54404 0.1172 0.0727 0.0
N1456 N 0.58901 0.11982 0.09114 0.0
N1457 N 0.55501 0.1182 0.10734 0.0
H1458 H 0.76935 0.57676 0.11948 0.0
H1459 H 0.83813 0.57125 0.12498 0.0
H1460 H 0.78774 0.5737 0.30118 0.0
H1461 H 0.82081 0.57657 0.94481 0.0
H1462 H 0.81898 0.57002 0.18797 0.0
H1463 H 0.78668 0.57467 0.05612 0.0
C1464 C 0.77693 0.57547 0.14666 0.0
C1465 C 0.77677 0.57539 0.21695 0.0
C1466 C 0.81917 0.57128 0.13467 0.0
C1467 C 0.79732 0.57307 0.14205 0.0
C1468 C 0.83016 0.5719 0.09797 0.0
C1469 C 0.8313 0.57387 0.02831 0.0
C1470 C 0.80887 0.5727 0.10268 0.0
C1471 C 0.82049 0.57477 0.99769 0.0
C1472 C 0.78695 0.57431 0.10972 0.0
C1473 C 0.7871 0.57367 0.24764 0.0
N1474 N 0.80991 0.57427 0.03481 0.0
N1475 N 0.79689 0.57268 0.21031 0.0
H1476 H 0.45861 0.2206 0.31813 0.0
H1477 H 0.44813 0.24543 0.95238 0.0
H1478 H 0.44216 0.19353 0.15097 0.0
H1479 H 0.45795 0.27041 0.12713 0.0
H1480 H 0.44937 0.2276 0.01934 0.0
H1481 H 0.46192 0.23989 0.24598 0.0
C1482 C 0.45613 0.21872 0.26596 0.0
C1483 C 0.45036 0.20524 0.24111 0.0
C1484 C 0.45153 0.2371 0.04293 0.0
C1485 C 0.45379 0.22756 0.15704 0.0
C1486 C 0.45102 0.24745 1.00407 0.0
C1487 C 0.45324 0.2598 0.03297 0.0
C1488 C 0.45432 0.23892 0.1119 0.0
C1489 C 0.45638 0.26128 0.10162 0.0
C1490 C 0.45783 0.22978 0.22459 0.0
C1491 C 0.44686 0.20365 0.17288 0.0
N1492 N 0.4568 0.25115 0.13803 0.0
N1493 N 0.44859 0.21447 0.13402 0.0
H1494 H 0.77842 0.19214 0.11533 0.0
H1495 H 0.82461 0.27196 0.2151 0.0
H1496 H 0.77697 0.22395 1.00247 0.0
H1497 H 0.81943 0.23868 0.33998 0.0
H1498 H 0.80704 0.25526 0.13924 0.0
H1499 H 0.7931 0.20918 0.19676 0.0
C1500 C 0.78112 0.20272 0.10722 0.0
C1501 C 0.77622 0.20636 0.05056 0.0
C1502 C 0.80944 0.25156 0.18401 0.0
C1503 C 0.79362 0.22648 0.14637 0.0
C1504 C 0.81938 0.26117 0.2283 0.0
C1505 C 0.82323 0.25695 0.28659 0.0
C1506 C 0.80337 0.23734 0.19612 0.0
C1507 C 0.81652 0.24264 0.29785 0.0
C1508 C 0.78959 0.21254 0.15454 0.0
C1509 C 0.78031 0.22044 0.0447 0.0
N1510 N 0.80713 0.2335 0.2534 0.0
N1511 N 0.78876 0.22989 0.09126 0.0
H1512 H 0.46385 0.22483 0.45044 0.0
H1513 H 0.47047 0.2654 0.77354 0.0
H1514 H 0.46808 0.21344 0.64955 0.0
H1515 H 0.45051 0.26679 0.59313 0.0
H1516 H 0.48182 0.25542 0.71247 0.0
H1517 H 0.47134 0.24812 0.4885 0.0
C1518 C 0.46684 0.22739 0.50174 0.0
C1519 C 0.46489 0.2172 0.54782 0.0
C1520 C 0.47527 0.25829 0.68592 0.0
C1521 C 0.47338 0.24358 0.59112 0.0
C1522 C 0.4687 0.26398 0.72075 0.0
C1523 C 0.45898 0.26636 0.68893 0.0
C1524 C 0.47188 0.25474 0.61937 0.0
C1525 C 0.45738 0.26446 0.62022 0.0
C1526 C 0.47112 0.24065 0.52329 0.0
C1527 C 0.469 0.22098 0.61336 0.0
N1528 N 0.4635 0.25841 0.58786 0.0
N1529 N 0.47281 0.23386 0.63353 0.0
H1530 H 0.7836 0.23591 0.8839 0.0
H1531 H 0.82413 0.28466 0.59184 0.0
H1532 H 0.76669 0.24049 0.70077 0.0
H1533 H 0.83836 0.26535 0.73124 0.0
H1534 H 0.80518 0.27975 0.66652 0.0
H1535 H 0.80426 0.25808 0.86411 0.0
C1536 C 0.78394 0.24196 0.84134 0.0
C1537 C 0.77379 0.23629 0.79238 0.0
C1538 C 0.81273 0.277 0.68151 0.0
C1539 C 0.79726 0.26128 0.76904 0.0
C1540 C 0.82341 0.27953 0.63835 0.0
C1541 C 0.83237 0.27462 0.65342 0.0
C1542 C 0.81102 0.26949 0.73979 0.0
C1543 C 0.83143 0.26888 0.71638 0.0
C1544 C 0.79575 0.25458 0.82991 0.0
C1545 C 0.77459 0.24447 0.73837 0.0
N1546 N 0.8207 0.26616 0.75662 0.0
N1547 N 0.78637 0.25646 0.727 0.0
H1548 H 0.82444 0.56587 0.71085 0.0
H1549 H 0.78872 0.60775 0.59325 0.0
H1550 H 0.84652 0.6097 0.68005 0.0
H1551 H 0.77308 0.56546 0.53885 0.0
H1552 H 0.80823 0.60789 0.64733 0.0
H1553 H 0.80375 0.56485 0.6654 0.0
C1554 C 0.82488 0.57523 0.69396 0.0
C1555 C 0.83706 0.58787 0.69847 0.0
C1556 C 0.80046 0.59856 0.6239 0.0
C1557 C 0.81371 0.58686 0.6484 0.0
C1558 C 0.78931 0.59844 0.5939 0.0
C1559 C 0.77946 0.58659 0.56164 0.0
C1560 C 0.80157 0.5867 0.62195 0.0
C1561 C 0.78065 0.5748 0.56281 0.0
C1562 C 0.81317 0.57465 0.6683 0.0
C1563 C 0.8373 0.59977 0.67625 0.0
N1564 N 0.79159 0.57514 0.5925 0.0
N1565 N 0.82571 0.599 0.65251 0.0
H1566 H 0.5225 0.08464 0.62726 0.0
H1567 H 0.60024 0.1276 0.5106 0.0
H1568 H 0.54841 0.12729 0.67789 0.0
H1569 H 0.57917 0.08392 0.54601 0.0
H1570 H 0.58015 0.12828 0.55266 0.0
H1571 H 0.54207 0.0849 0.57316 0.0
C1572 C 0.53227 0.09411 0.62565 0.0
C1573 C 0.53402 0.10594 0.6571 0.0
C1574 C 0.58 0.11858 0.55149 0.0
C1575 C 0.55624 0.10628 0.59683 0.0
C1576 C 0.59139 0.11821 0.52783 0.0
C1577 C 0.59125 0.10571 0.52566 0.0
C1578 C 0.56842 0.10632 0.57174 0.0
C1579 C 0.57965 0.09376 0.54812 0.0
C1580 C 0.54341 0.09422 0.59564 0.0
C1581 C 0.54684 0.11796 0.65464 0.0
N1582 N 0.56859 0.09433 0.56992 0.0
N1583 N 0.55756 0.11783 0.62512 0.0
H1584 H 0.9025 0.43789 0.79289 0.0
H1585 H 0.90958 0.47516 0.45559 0.0
H1586 H 0.90904 0.42482 0.60218 0.0
H1587 H 0.91895 0.49356 0.64964 0.0
H1588 H 0.89718 0.45243 0.50728 0.0
H1589 H 0.89553 0.45262 0.73739 0.0
C1590 C 0.90204 0.43775 0.7393 0.0
C1591 C 0.90698 0.43066 0.70178 0.0
C1592 C 0.90159 0.46147 0.53841 0.0
C1593 C 0.89922 0.44758 0.63862 0.0
C1594 C 0.90871 0.4744 0.5091 0.0
C1595 C 0.91568 0.4861 0.54886 0.0
C1596 C 0.90154 0.46037 0.60766 0.0
C1597 C 0.91415 0.48468 0.61767 0.0
C1598 C 0.89804 0.44617 0.70773 0.0
C1599 C 0.90593 0.43069 0.63266 0.0
N1600 N 0.90742 0.47197 0.64511 0.0
N1601 N 0.90249 0.43936 0.60302 0.0
H1602 H 0.56651 0.43025 0.41517 0.0
H1603 H 0.60148 0.46727 0.7379 0.0
H1604 H 0.55201 0.41675 0.61414 0.0
H1605 H 0.61009 0.48473 0.54084 0.0
H1606 H 0.59199 0.44452 0.69011 0.0
H1607 H 0.5898 0.44409 0.4576 0.0
C1608 C 0.56834 0.42972 0.4675 0.0
C1609 C 0.55735 0.42296 0.51198 0.0
C1610 C 0.59631 0.45336 0.65732 0.0
C1611 C 0.58372 0.43889 0.56064 0.0
C1612 C 0.60171 0.4664 0.68459 0.0
C1613 C 0.60592 0.47788 0.6431 0.0
C1614 C 0.59483 0.45181 0.58831 0.0
C1615 C 0.60623 0.47608 0.57451 0.0
C1616 C 0.58163 0.43765 0.49176 0.0
C1617 C 0.56024 0.42237 0.57894 0.0
N1618 N 0.60038 0.46323 0.54909 0.0
N1619 N 0.57314 0.43061 0.60172 0.0
H1620 H 0.58238 0.80983 0.67056 0.0
H1621 H 0.57774 0.78082 0.29553 0.0
H1622 H 0.57867 0.82974 0.49583 0.0
H1623 H 0.59102 0.76675 0.46291 0.0
H1624 H 0.5739 0.79593 0.37039 0.0
H1625 H 0.58148 0.79149 0.59942 0.0
C1626 C 0.5809 0.81016 0.61769 0.0
C1627 C 0.5803 0.8214 0.59011 0.0
C1628 C 0.57735 0.78931 0.39123 0.0
C1629 C 0.57957 0.80028 0.50674 0.0
C1630 C 0.57934 0.78044 0.34827 0.0
C1631 C 0.58431 0.77198 0.37244 0.0
C1632 C 0.58033 0.78991 0.4598 0.0
C1633 C 0.58681 0.77269 0.44158 0.0
C1634 C 0.58058 0.79973 0.57661 0.0
C1635 C 0.57894 0.82129 0.52023 0.0
N1636 N 0.58482 0.78135 0.48213 0.0
N1637 N 0.57862 0.81109 0.4817 0.0
H1638 H 0.21329 0.76786 0.60399 0.0
H1639 H 0.24102 0.80111 0.23626 0.0
H1640 H 0.19016 0.75113 0.42479 0.0
H1641 H 0.26304 0.81918 0.41661 0.0
H1642 H 0.22357 0.78145 0.30222 0.0
H1643 H 0.2326 0.78519 0.53599 0.0
C1644 C 0.21233 0.76752 0.55051 0.0
C1645 C 0.1999 0.75769 0.52092 0.0
C1646 C 0.23234 0.78962 0.32737 0.0
C1647 C 0.22219 0.77803 0.44139 0.0
C1648 C 0.24248 0.80083 0.28918 0.0
C1649 C 0.25385 0.81196 0.31995 0.0
C1650 C 0.2334 0.78933 0.39746 0.0
C1651 C 0.25464 0.81094 0.38979 0.0
C1652 C 0.22337 0.7776 0.51134 0.0
C1653 C 0.19942 0.75831 0.45072 0.0
N1654 N 0.24472 0.80006 0.42547 0.0
N1655 N 0.21018 0.76815 0.41413 0.0
H1656 H 0.25989 0.44435 0.64018 0.0
H1657 H 0.22679 0.44186 0.27543 0.0
H1658 H 0.27728 0.44038 0.45729 0.0
H1659 H 0.2083 0.44344 0.4596 0.0
H1660 H 0.24641 0.44353 0.33924 0.0
H1661 H 0.24227 0.4463 0.57499 0.0
C1662 C 0.2603 0.44424 0.58656 0.0
C1663 C 0.27044 0.44235 0.55512 0.0
C1664 C 0.23813 0.44368 0.36573 0.0
C1665 C 0.24974 0.44427 0.47865 0.0
C1666 C 0.22691 0.44287 0.32882 0.0
C1667 C 0.21565 0.44259 0.36119 0.0
C1668 C 0.23833 0.44428 0.43613 0.0
C1669 C 0.21657 0.44361 0.43142 0.0
C1670 C 0.25006 0.44519 0.54894 0.0
C1671 C 0.26988 0.4419 0.48472 0.0
N1672 N 0.22746 0.44435 0.46574 0.0
N1673 N 0.25989 0.44279 0.44965 0.0
H1674 H 0.4807 0.90696 0.31646 0.0
H1675 H 0.45026 0.90719 0.68473 0.0
H1676 H 0.49966 0.90491 0.49814 0.0
H1677 H 0.43301 0.91209 0.50339 0.0
H1678 H 0.4669 0.90391 0.61794 0.0
H1679 H 0.46191 0.90645 0.38276 0.0
C1680 C 0.48083 0.90607 0.36989 0.0
C1681 C 0.49197 0.90585 0.40077 0.0
C1682 C 0.45934 0.90551 0.59262 0.0
C1683 C 0.47027 0.90554 0.47859 0.0
C1684 C 0.44965 0.90722 0.63116 0.0
C1685 C 0.43989 0.90979 0.60055 0.0
C1686 C 0.45942 0.90632 0.52229 0.0
C1687 C 0.44016 0.91009 0.53014 0.0
C1688 C 0.4701 0.90594 0.40821 0.0
C1689 C 0.49143 0.90506 0.47112 0.0
N1690 N 0.44961 0.90845 0.49419 0.0
N1691 N 0.481 0.90498 0.50687 0.0
H1692 H 0.11853 0.53955 0.68014 0.0
H1693 H 0.13694 0.57827 0.32027 0.0
H1694 H 0.1399 0.53118 0.52665 0.0
H1695 H 0.11268 0.58344 0.47042 0.0
H1696 H 0.13901 0.56182 0.39469 0.0
H1697 H 0.11724 0.55629 0.60564 0.0
C1698 C 0.12304 0.54121 0.63118 0.0
C1699 C 0.12935 0.53369 0.61082 0.0
C1700 C 0.13323 0.56657 0.41135 0.0
C1701 C 0.12788 0.55324 0.52331 0.0
C1702 C 0.13204 0.57604 0.3685 0.0
C1703 C 0.12457 0.58247 0.38784 0.0
C1704 C 0.12699 0.5634 0.47498 0.0
C1705 C 0.11853 0.57891 0.45193 0.0
C1706 C 0.12227 0.55084 0.58814 0.0
C1707 C 0.13492 0.53656 0.5457 0.0
N1708 N 0.11988 0.56981 0.49231 0.0
N1709 N 0.13406 0.54594 0.50504 0.0
H1710 H 0.49711 0.60624 0.52463 0.0
H1711 H 0.44311 0.52527 0.49166 0.0
H1712 H 0.4869 0.57785 0.68713 0.0
H1713 H 0.45018 0.55395 0.33352 0.0
H1714 H 0.45849 0.54426 0.56281 0.0
H1715 H 0.47961 0.58777 0.45652 0.0
C1716 C 0.49095 0.59617 0.54688 0.0
C1717 C 0.4935 0.59387 0.613 0.0
C1718 C 0.45672 0.54651 0.51275 0.0
C1719 C 0.47334 0.5721 0.53264 0.0
C1720 C 0.44786 0.53556 0.47128 0.0
C1721 C 0.44514 0.53772 0.40513 0.0
C1722 C 0.46327 0.5601 0.48911 0.0
C1723 C 0.45179 0.55154 0.38352 0.0
C1724 C 0.48097 0.58553 0.50729 0.0
C1725 C 0.48523 0.58039 0.6375 0.0
N1726 N 0.46051 0.56207 0.42492 0.0
N1727 N 0.47572 0.57011 0.59745 0.0
H1728 H 0.15068 0.5395 0.0357 0.0
H1729 H 0.1534 0.6033 0.95424 0.0
H1730 H 0.1546 0.55498 0.83629 0.0
H1731 H 0.16137 0.59375 0.15002 0.0
H1732 H 0.16519 0.59212 0.90713 0.0
H1733 H 0.16522 0.56289 0.07466 0.0
C1734 C 0.15481 0.54782 0.99998 0.0
C1735 C 0.15072 0.54544 0.9335 0.0
C1736 C 0.16484 0.59281 0.96056 0.0
C1737 C 0.16707 0.5722 0.97749 0.0
C1738 C 0.15809 0.59921 0.98716 0.0
C1739 C 0.15592 0.59876 0.05552 0.0
C1740 C 0.16848 0.58517 1.00281 0.0
C1741 C 0.16248 0.5938 0.0967 0.0
C1742 C 0.16328 0.5612 0.02198 0.0
C1743 C 0.15701 0.55643 0.88857 0.0
N1744 N 0.16804 0.58667 0.06966 0.0
N1745 N 0.16453 0.56942 0.91168 0.0
H1746 H 0.43895 0.53508 0.94401 0.0
H1747 H 0.5112 0.57191 0.98779 0.0
H1748 H 0.45638 0.51857 0.08076 0.0
H1749 H 0.49578 0.56766 0.78821 0.0
H1750 H 0.49262 0.54886 1.01274 0.0
H1751 H 0.45895 0.54274 0.87215 0.0
C1752 C 0.44682 0.53267 0.95744 0.0
C1753 C 0.44636 0.52664 0.01868 0.0
C1754 C 0.49353 0.55279 0.96277 0.0
C1755 C 0.46934 0.5357 0.93906 0.0
C1756 C 0.50412 0.56602 0.9487 0.0
C1757 C 0.50452 0.57202 0.88721 0.0
C1758 C 0.48315 0.5458 0.9156 0.0
C1759 C 0.49527 0.56377 0.83784 0.0
C1760 C 0.45819 0.53693 0.91648 0.0
C1761 C 0.4566 0.52347 0.03413 0.0
N1762 N 0.48464 0.55122 0.85376 0.0
N1763 N 0.46801 0.52853 0.99573 0.0
H1764 H 0.47954 0.8925 0.08768 0.0
H1765 H 0.44123 0.93379 1.00575 0.0
H1766 H 0.49915 0.93653 0.0708 0.0
H1767 H 0.428 0.89383 0.92193 0.0
H1768 H 0.45894 0.93216 0.06727 0.0
H1769 H 0.45751 0.89071 0.05745 0.0
C1770 C 0.47913 0.90173 0.07715 0.0
C1771 C 0.49102 0.91465 0.08012 0.0
C1772 C 0.45198 0.92365 0.0363 0.0
C1773 C 0.46623 0.91277 0.04886 0.0
C1774 C 0.44181 0.9245 1.00169 0.0
C1775 C 0.43342 0.91405 0.95757 0.0
C1776 C 0.45369 0.91229 0.02656 0.0
C1777 C 0.4346 0.90225 0.95411 0.0
C1778 C 0.46667 0.90072 0.0606 0.0
C1779 C 0.49018 0.92641 0.06725 0.0
N1780 N 0.44477 0.90175 0.9875 0.0
N1781 N 0.47793 0.92519 0.05232 0.0
H1782 H 0.21798 0.45517 0.03285 0.0
H1783 H 0.24253 0.40921 0.86676 0.0
H1784 H 0.18975 0.41481 0.95756 0.0
H1785 H 0.26745 0.45331 0.85811 0.0
H1786 H 0.22281 0.41139 0.89827 0.0
H1787 H 0.23616 0.45564 0.96448 0.0
C1788 C 0.2156 0.44653 1.00106 0.0
C1789 C 0.20253 0.43479 1.00185 0.0
C1790 C 0.23255 0.42061 0.88881 0.0
C1791 C 0.22303 0.43523 0.92441 0.0
C1792 C 0.24379 0.41935 0.87202 0.0
C1793 C 0.25653 0.43112 0.86157 0.0
C1794 C 0.23421 0.43375 0.89639 0.0
C1795 C 0.25771 0.44406 0.86676 0.0
C1796 C 0.22589 0.44684 0.96178 0.0
C1797 C 0.19975 0.42399 0.95869 0.0
N1798 N 0.24667 0.44507 0.88503 0.0
N1799 N 0.21004 0.42434 0.92262 0.0
H1800 H 0.56071 0.76786 0.1588 0.0
H1801 H 0.55821 0.80152 0.83269 0.0
H1802 H 0.56245 0.75456 0.96059 0.0
H1803 H 0.56957 0.82029 0.02571 0.0
H1804 H 0.54547 0.77907 0.88548 0.0
H1805 H 0.54922 0.77971 0.11609 0.0
C1806 C 0.55825 0.76702 0.10655 0.0
C1807 C 0.56324 0.76095 0.06227 0.0
C1808 C 0.55035 0.78814 0.91635 0.0
C1809 C 0.55037 0.77462 1.01347 0.0
C1810 C 0.55771 0.80097 0.88627 0.0
C1811 C 0.56558 0.81267 0.92509 0.0
C1812 C 0.5512 0.78708 0.98528 0.0
C1813 C 0.56428 0.8114 0.99411 0.0
C1814 C 0.55163 0.77375 0.08226 0.0
C1815 C 0.55945 0.75985 0.99557 0.0
N1816 N 0.55752 0.79875 0.02218 0.0
N1817 N 0.55355 0.76699 0.97268 0.0
H1818 H 0.21619 0.75664 0.84543 0.0
H1819 H 0.26178 0.8371 0.88112 0.0
H1820 H 0.20519 0.78674 0.78847 0.0
H1821 H 0.26632 0.80833 1.00613 0.0
H1822 H 0.24744 0.8185 0.80728 0.0
H1823 H 0.23975 0.77532 0.86854 0.0
C1824 C 0.21888 0.76721 0.83745 0.0
C1825 C 0.20891 0.77042 0.81772 0.0
C1826 C 0.25183 0.81634 0.85026 0.0
C1827 C 0.23543 0.79144 0.84075 0.0
C1828 C 0.26007 0.82698 0.89273 0.0
C1829 C 0.26466 0.82419 0.9523 0.0
C1830 C 0.24801 0.80285 0.86808 0.0
C1831 C 0.26233 0.81084 0.96292 0.0
C1832 C 0.23222 0.77777 0.84979 0.0
C1833 C 0.21265 0.78408 0.80598 0.0
N1834 N 0.25379 0.80053 0.92212 0.0
N1835 N 0.22564 0.79415 0.81822 0.0
H1836 H 0.19847 0.19979 0.49845 0.0
H1837 H 0.21485 0.19635 0.10867 0.0
H1838 H 0.18817 0.2202 0.34803 0.0
H1839 H 0.22387 0.17615 0.26557 0.0
H1840 H 0.2029 0.20318 0.19019 0.0
H1841 H 0.20537 0.18919 0.41158 0.0
C1842 C 0.19709 0.20163 0.44704 0.0
C1843 C 0.19201 0.2105 0.43164 0.0
C1844 C 0.20721 0.19697 0.20665 0.0
C1845 C 0.20088 0.1988 0.32926 0.0
C1846 C 0.21389 0.19285 0.15948 0.0
C1847 C 0.22014 0.18518 0.17888 0.0
C1848 C 0.20676 0.19358 0.27473 0.0
C1849 C 0.21898 0.18168 0.247 0.0
C1850 C 0.20129 0.19571 0.39692 0.0
C1851 C 0.19138 0.213 0.36315 0.0
N1852 N 0.2126 0.18587 0.29151 0.0
N1853 N 0.19577 0.20732 0.31521 0.0
H1854 H 0.83959 0.06269 0.28267 0.0
H1855 H 0.79811 0.98087 0.35882 0.0
H1856 H 0.82174 0.03264 0.12803 0.0
H1857 H 0.81647 1.01141 0.51087 0.0
H1858 H 0.80846 0.99909 0.27391 0.0
H1859 H 0.83332 0.04418 0.36401 0.0
C1860 C 0.83476 0.05221 0.26509 0.0
C1861 C 0.83175 0.04953 0.19684 0.0
C1862 C 0.81057 1.00187 0.32566 0.0
C1863 C 0.82374 0.02764 0.29271 0.0
C1864 C 0.80479 0.99135 0.37468 0.0
C1865 C 0.80681 0.99428 0.44327 0.0
C1866 C 0.81837 0.0158 0.34408 0.0
C1867 C 0.81499 1.00835 0.45935 0.0
C1868 C 0.83098 0.04153 0.31225 0.0
C1869 C 0.82485 0.03548 0.17898 0.0
N1870 N 0.82034 0.01841 0.41086 0.0
N1871 N 0.82107 0.02522 0.22607 0.0
H1872 H 1.00812 0.8171 0.06778 0.0
H1873 H 0.02911 0.82387 0.45677 0.0
H1874 H 0.97752 0.79966 0.22113 0.0
H1875 H 0.05792 0.84235 0.29656 0.0
H1876 H 1.01008 0.81672 0.37646 0.0
H1877 H 0.02595 0.828 0.15273 0.0
C1878 C 1.00502 0.81595 0.11934 0.0
C1879 C 0.99099 0.8078 0.13595 0.0
C1880 C 0.02056 0.82263 0.35892 0.0
C1881 C 1.01197 0.81991 0.23655 0.0
C1882 C 0.03153 0.82695 0.40537 0.0
C1883 C 0.04542 0.83428 0.3848 0.0
C1884 C 0.02328 0.82541 0.29029 0.0
C1885 C 0.04755 0.83717 0.31606 0.0
C1886 C 1.01534 0.82207 0.16843 0.0
C1887 C 0.988 0.80625 0.20481 0.0
N1888 N 0.03682 0.83276 0.27225 0.0
N1889 N 0.99827 0.81209 0.25189 0.0
H1890 H 0.79919 0.76787 0.74067 0.0
H1891 H 0.79988 0.8382 0.75405 0.0
H1892 H 0.81694 0.79923 0.58928 0.0
H1893 H 0.77967 0.80594 0.89931 0.0
H1894 H 0.80173 0.82202 0.68047 0.0
H1895 H 0.78795 0.77962 0.78831 0.0
C1896 C 0.80062 0.77717 0.71719 0.0
C1897 C 0.80928 0.78279 0.66203 0.0
C1898 C 0.79663 0.81838 0.72788 0.0
C1899 C 0.79652 0.79626 0.71597 0.0
C1900 C 0.7956 0.82761 0.76967 0.0
C1901 C 0.78993 0.82341 0.83304 0.0
C1902 C 0.7922 0.80498 0.7505 0.0
C1903 C 0.78422 0.80957 0.8509 0.0
C1904 C 0.79418 0.78384 0.7442 0.0
C1905 C 0.81074 0.7948 0.63318 0.0
N1906 N 0.78579 0.80088 0.81035 0.0
N1907 N 0.80455 0.80123 0.66097 0.0
H1908 H 0.23784 0.98227 0.838 0.0
H1909 H 0.2422 0.0537 0.82432 0.0
H1910 H 0.22265 0.99823 0.9897 0.0
H1911 H 0.25787 0.03852 0.67192 0.0
H1912 H 0.24207 0.03692 0.90182 0.0
H1913 H 0.25184 1.00548 0.79384 0.0
C1914 C 0.23761 0.99068 0.86267 0.0
C1915 C 0.22865 0.98822 0.91603 0.0
C1916 C 0.24587 0.03743 0.85195 0.0
C1917 C 0.24464 0.01478 0.86597 0.0
C1918 C 0.24594 0.04701 0.8079 0.0
C1919 C 0.24971 0.04716 0.74164 0.0
C1920 C 0.24923 0.02772 0.82877 0.0
C1921 C 0.25473 0.03854 0.7226 0.0
C1922 C 0.24568 1.00395 0.83773 0.0
C1923 C 0.22918 0.99956 0.94774 0.0
N1924 N 0.25398 0.02887 0.76554 0.0
N1925 N 0.23678 0.0123 0.92125 0.0
H1926 H 1.00255 0.22509 0.59266 0.0
H1927 H 0.04347 0.25592 0.92222 0.0
H1928 H 0.98565 0.22947 0.7764 0.0
H1929 H 0.05477 0.23769 0.76484 0.0
H1930 H 0.02711 0.25741 0.84764 0.0
H1931 H 0.02564 0.2409 0.6339 0.0
C1932 C 1.0037 0.22986 0.64057 0.0
C1933 C 0.99233 0.22576 0.68228 0.0
C1934 C 0.03351 0.25351 0.82879 0.0
C1935 C 0.0185 0.24355 0.72974 0.0
C1936 C 0.04284 0.25268 0.87124 0.0
C1937 C 0.05007 0.24625 0.84987 0.0
C1938 C 0.03148 0.24786 0.76501 0.0
C1939 C 0.04899 0.24229 0.78343 0.0
C1940 C 1.01685 0.23881 0.66418 0.0
C1941 C 0.99429 0.23219 0.7438 0.0
N1942 N 0.03962 0.24289 0.74355 0.0
N1943 N 1.00718 0.24056 0.76646 0.0
H1944 H 0.89757 0.54014 0.4436 0.0
H1945 H 0.87993 0.54655 0.82921 0.0
H1946 H 0.91049 0.52513 0.60867 0.0
H1947 H 0.87053 0.56565 0.66867 0.0
H1948 H 0.88802 0.53582 0.748 0.0
H1949 H 0.88479 0.54662 0.52155 0.0
C1950 C 0.89732 0.53768 0.49572 0.0
C1951 C 0.90489 0.53157 0.51845 0.0
C1952 C 0.88387 0.54207 0.73005 0.0
C1953 C 0.89048 0.53958 0.60998 0.0
C1954 C 0.87897 0.54804 0.77683 0.0
C1955 C 0.87385 0.55664 0.75662 0.0
C1956 C 0.88396 0.54474 0.66135 0.0
C1957 C 0.87381 0.55872 0.6873 0.0
C1958 C 0.89015 0.54162 0.54076 0.0
C1959 C 0.90459 0.52942 0.58781 0.0
N1960 N 0.87873 0.55293 0.64291 0.0
N1961 N 0.89764 0.53336 0.63028 0.0
H1962 H 0.48182 0.31603 0.74135 0.0
H1963 H 0.48197 0.37889 0.53362 0.0
H1964 H 0.45264 0.32953 0.77367 0.0
H1965 H 0.51085 0.36511 0.49826 0.0
H1966 H 0.4715 0.36139 0.6228 0.0
H1967 H 0.49315 0.33431 0.65603 0.0
C1968 C 0.47788 0.32288 0.73185 0.0
C1969 C 0.46613 0.32099 0.76649 0.0
C1970 C 0.48015 0.3622 0.5955 0.0
C1971 C 0.47911 0.34219 0.66605 0.0
C1972 C 0.48616 0.37228 0.54402 0.0
C1973 C 0.49746 0.37377 0.50669 0.0
C1974 C 0.48534 0.35333 0.6111 0.0
C1975 C 0.50222 0.36462 0.52435 0.0
C1976 C 0.48431 0.33334 0.6822 0.0
C1977 C 0.46158 0.33032 0.74936 0.0
N1978 N 0.49626 0.35501 0.57418 0.0
N1979 N 0.46793 0.34026 0.70134 0.0
H1980 H 0.67684 0.13948 0.39136 0.0
H1981 H 0.70349 0.16471 0.76849 0.0
H1982 H 0.64881 0.13564 0.54568 0.0
H1983 H 0.7281 0.16269 0.61017 0.0
H1984 H 0.68384 0.15618 0.69038 0.0
H1985 H 0.69588 0.15038 0.47035 0.0
C1986 C 0.6747 0.14142 0.44125 0.0
C1987 C 0.66104 0.13708 0.45989 0.0
C1988 C 0.69357 0.15764 0.67275 0.0
C1989 C 0.68325 0.14919 0.55436 0.0
C1990 C 0.70489 0.16257 0.7177 0.0
C1991 C 0.71779 0.16453 0.69725 0.0
C1992 C 0.69499 0.15471 0.60582 0.0
C1993 C 0.71859 0.16141 0.62986 0.0
C1994 C 0.68565 0.14749 0.4872 0.0
C1995 C 0.65911 0.13929 0.52731 0.0
N1996 N 0.70759 0.1568 0.58769 0.0
N1997 N 0.66994 0.14509 0.5715 0.0
H1998 H 0.46154 0.13864 0.3511 0.0
H1999 H 0.46725 0.10102 0.03577 0.0
H2000 H 0.43238 0.1231 0.19079 0.0
H2001 H 0.50018 0.12507 0.17176 0.0
H2002 H 0.45084 0.1004 0.11678 0.0
H2003 H 0.47138 0.12496 0.31161 0.0
C2004 C 0.45691 0.132 0.30885 0.0
C2005 C 0.44646 0.13234 0.27259 0.0
C2006 C 0.46163 0.10551 0.1296 0.0
C2007 C 0.45777 0.11689 0.22672 0.0
C2008 C 0.47099 0.10583 0.08345 0.0
C2009 C 0.48511 0.1135 0.09645 0.0
C2010 C 0.46646 0.11297 0.18869 0.0
C2011 C 0.48939 0.11947 0.15911 0.0
C2012 C 0.46257 0.12424 0.28614 0.0
C2013 C 0.44077 0.12346 0.21857 0.0
N2014 N 0.48012 0.11932 0.20251 0.0
N2015 N 0.44671 0.11632 0.19624 0.0
H2016 H 0.93428 0.37834 0.13414 0.0
H2017 H 0.87388 0.30533 0.1181 0.0
H2018 H 0.91288 0.36025 0.95248 0.0
H2019 H 0.90269 0.31968 0.2796 0.0
H2020 H 0.89144 0.32273 0.04595 0.0
H2021 H 0.92726 0.35546 0.17743 0.0
C2022 C 0.92845 0.36949 0.10273 0.0
C2023 C 0.92387 0.37103 0.04057 0.0
C2024 C 0.89412 0.32186 0.09659 0.0
C2025 C 0.91535 0.34487 0.09001 0.0
C2026 C 0.88407 0.31196 0.13767 0.0
C2027 C 0.8868 0.3114 0.20496 0.0
C2028 C 0.90682 0.33152 0.12384 0.0
C2029 C 0.90017 0.31995 0.22807 0.0
C2030 C 0.92443 0.35643 0.12724 0.0
C2031 C 0.91647 0.35938 1.00105 0.0
N2032 N 0.9096 0.32997 0.18803 0.0
N2033 N 0.91206 0.34671 0.02724 0.0
H2034 H 0.67262 0.55294 0.87246 0.0
H2035 H 0.71448 0.5895 0.19367 0.0
H2036 H 0.65727 0.56606 0.03583 0.0
H2037 H 0.72564 0.56843 0.05042 0.0
H2038 H 0.69792 0.58936 0.11488 0.0
H2039 H 0.69583 0.56701 0.91475 0.0
C2040 C 0.67415 0.55907 0.91622 0.0
C2041 C 0.66295 0.55796 0.95212 0.0
C2042 C 0.70425 0.58509 0.10003 0.0
C2043 C 0.68944 0.57387 1.00125 0.0
C2044 C 0.71373 0.58521 0.14487 0.0
C2045 C 0.72108 0.57858 0.12896 0.0
C2046 C 0.70215 0.57824 0.03932 0.0
C2047 C 0.7198 0.57324 0.06508 0.0
C2048 C 0.68742 0.56707 0.9405 0.0
C2049 C 0.66559 0.56624 1.00818 0.0
N2050 N 0.71028 0.57294 0.02292 0.0
N2051 N 0.67855 0.57363 0.03195 0.0
H2052 H 0.55314 0.8687 0.80403 0.0
H2053 H 0.53602 0.87482 0.1908 0.0
H2054 H 0.56365 0.85061 0.96508 0.0
H2055 H 0.5282 0.89535 0.03117 0.0
H2056 H 0.54317 0.86335 0.10872 0.0
H2057 H 0.5412 0.87583 0.88358 0.0
C2058 C 0.55246 0.86567 0.85554 0.0
C2059 C 0.55906 0.85845 0.87649 0.0
C2060 C 0.53957 0.8701 0.09123 0.0
C2061 C 0.54574 0.86732 0.97032 0.0
C2062 C 0.53521 0.87651 0.13851 0.0
C2063 C 0.53085 0.88576 0.11875 0.0
C2064 C 0.53984 0.87296 0.02261 0.0
C2065 C 0.53095 0.88799 0.0495 0.0
C2066 C 0.54581 0.86999 0.90159 0.0
C2067 C 0.55838 0.85568 0.94542 0.0
N2068 N 0.53532 0.88177 1.00478 0.0
N2069 N 0.55198 0.86007 0.98907 0.0
H2070 H 0.14507 0.65834 0.12835 0.0
H2071 H 0.15784 0.68624 0.74489 0.0
H2072 H 0.13134 0.63187 0.95779 0.0
H2073 H 0.164 0.71237 0.91184 0.0
H2074 H 0.151 0.66676 0.82252 0.0
H2075 H 0.15445 0.67844 0.05231 0.0
C2076 C 0.14403 0.65664 0.07536 0.0
C2077 C 0.13717 0.64306 0.05079 0.0
C2078 C 0.15409 0.67681 0.84248 0.0
C2079 C 0.14824 0.66645 0.96166 0.0
C2080 C 0.15825 0.68808 0.79773 0.0
C2081 C 0.16197 0.70132 0.82091 0.0
C2082 C 0.15357 0.67855 0.91191 0.0
C2083 C 0.16156 0.70257 0.89079 0.0
C2084 C 0.14941 0.66821 0.03151 0.0
C2085 C 0.13633 0.64191 0.98054 0.0
N2086 N 0.15753 0.69155 0.93297 0.0
N2087 N 0.14172 0.65321 0.93947 0.0
H2088 H 0.32611 0.47521 0.84767 0.0
H2089 H 0.38568 0.47583 0.08347 0.0
H2090 H 0.33631 0.44308 0.85022 0.0
H2091 H 0.37602 0.50834 0.08258 0.0
H2092 H 0.36793 0.46393 0.9974 0.0
H2093 H 0.34454 0.48786 0.93036 0.0
C2094 C 0.33223 0.47083 0.86445 0.0
C2095 C 0.32935 0.45787 0.8406 0.0
C2096 C 0.36969 0.47369 1.01604 0.0
C2097 C 0.35071 0.47242 0.93764 0.0
C2098 C 0.37991 0.48052 0.06575 0.0
C2099 C 0.38263 0.49327 0.09185 0.0
C2100 C 0.36192 0.4795 0.9911 0.0
C2101 C 0.37454 0.49861 0.0652 0.0
C2102 C 0.34278 0.47805 0.91249 0.0
C2103 C 0.33782 0.4529 0.86633 0.0
N2104 N 0.36476 0.49182 1.01732 0.0
N2105 N 0.34785 0.46002 0.91253 0.0
H2106 H 0.1076 0.46433 0.52065 0.0
H2107 H 0.16875 0.45125 0.53191 0.0
H2108 H 0.12513 0.46145 0.70654 0.0
H2109 H 0.14038 0.43766 0.3683 0.0
H2110 H 0.15176 0.45305 0.60026 0.0
H2111 H 0.11765 0.4522 0.46683 0.0
C2112 C 0.11334 0.46099 0.5507 0.0
C2113 C 0.11593 0.46448 0.61806 0.0
C2114 C 0.14912 0.44936 0.54987 0.0
C2115 C 0.12768 0.45072 0.55593 0.0
C2116 C 0.15883 0.44843 0.51095 0.0
C2117 C 0.15598 0.44449 0.44447 0.0
C2118 C 0.13663 0.44665 0.52137 0.0
C2119 C 0.14296 0.44076 0.41943 0.0
C2120 C 0.11909 0.45403 0.51968 0.0
C2121 C 0.12335 0.45962 0.65398 0.0
N2122 N 0.13384 0.44221 0.45754 0.0
N2123 N 0.12925 0.45328 0.62214 0.0
H2124 H 0.5368 0.64623 0.47381 0.0
H2125 H 0.60711 0.71191 0.4337 0.0
H2126 H 0.57039 0.657 0.60798 0.0
H2127 H 0.57601 0.69596 0.28185 0.0
H2128 H 0.59675 0.68903 0.4829 0.0
H2129 H 0.55305 0.6609 0.38901 0.0
C2130 C 0.54767 0.65159 0.48478 0.0
C2131 C 0.55233 0.65083 0.548 0.0
C2132 C 0.59241 0.69044 0.43774 0.0
C2133 C 0.57097 0.66777 0.45242 0.0
C2134 C 0.59828 0.70354 0.40991 0.0
C2135 C 0.59203 0.70597 0.35546 0.0
C2136 C 0.58011 0.67985 0.41137 0.0
C2137 C 0.58097 0.69467 0.32485 0.0
C2138 C 0.55697 0.65988 0.43641 0.0
C2139 C 0.56648 0.65758 0.55982 0.0
N2140 N 0.57512 0.68216 0.35434 0.0
N2141 N 0.57532 0.66611 0.51295 0.0
H2142 H 0.32102 0.89037 0.31323 0.0
H2143 H 0.3627 0.90511 0.6477 0.0
H2144 H 0.30622 0.86556 0.4902 0.0
H2145 H 0.38046 0.91528 0.45192 0.0
H2146 H 0.34038 0.89922 0.60047 0.0
H2147 H 0.34058 0.90782 0.3758 0.0
C2148 C 0.32164 0.88884 0.36586 0.0
C2149 C 0.31225 0.87644 0.39669 0.0
C2150 C 0.34927 0.90316 0.56824 0.0
C2151 C 0.33445 0.89619 0.46781 0.0
C2152 C 0.36196 0.90653 0.59505 0.0
C2153 C 0.37324 0.91037 0.55305 0.0
C2154 C 0.34799 0.90375 0.49931 0.0
C2155 C 0.37184 0.91204 0.48531 0.0
C2156 C 0.3328 0.89876 0.40136 0.0
C2157 C 0.31348 0.8749 0.46477 0.0
N2158 N 0.35934 0.90852 0.46021 0.0
N2159 N 0.32457 0.88458 0.49804 0.0
H2160 H 0.19296 0.22093 0.85879 0.0
H2161 H 0.26555 0.2396 0.90313 0.0
H2162 H 0.22647 0.25154 0.7415 0.0
H2163 H 0.23428 0.21706 0.04907 0.0
H2164 H 0.25412 0.25237 0.87378 0.0
H2165 H 0.20862 0.22626 0.95191 0.0
C2166 C 0.20359 0.22886 0.85291 0.0
C2167 C 0.20857 0.23534 0.79155 0.0
C2168 C 0.24994 0.24501 0.91409 0.0
C2169 C 0.22657 0.24153 0.8975 0.0
C2170 C 0.25659 0.23783 0.93105 0.0
C2171 C 0.25042 0.2269 0.97604 0.0
C2172 C 0.23677 0.2406 0.94002 0.0
C2173 C 0.23903 0.22513 1.01224 0.0
C2174 C 0.21251 0.23208 0.90638 0.0
C2175 C 0.22226 0.24602 0.78741 0.0
N2176 N 0.23216 0.23148 0.99144 0.0
N2177 N 0.23086 0.24853 0.83912 0.0
H2178 H 0.78305 0.04217 0.88365 0.0
H2179 H 0.79248 0.98328 0.88018 0.0
H2180 H 0.79876 0.03091 0.05204 0.0
H2181 H 0.76426 0.98702 0.74958 0.0
H2182 H 0.78706 0.99486 0.96674 0.0
H2183 H 0.7674 0.01797 0.86114 0.0
C2184 C 0.78275 0.03451 0.91738 0.0
C2185 C 0.79249 0.03832 0.9677 0.0
C2186 C 0.7817 0.99283 0.91989 0.0
C2187 C 0.77548 1.01079 0.9402 0.0
C2188 C 0.78497 0.98637 0.87028 0.0
C2189 C 0.77936 0.98491 0.80693 0.0
C2190 C 0.77327 0.99837 0.90467 0.0
C2191 C 0.76917 0.98842 0.79726 0.0
C2192 C 0.77385 0.02067 0.9047 0.0
C2193 C 0.79161 0.02821 1.01132 0.0
N2194 N 0.76676 0.99541 0.84498 0.0
N2195 N 0.78363 0.0148 0.99505 0.0
H2196 H 0.02914 0.80443 0.52282 0.0
H2197 H 0.98144 0.80123 0.71463 0.0
H2198 H 0.03691 0.7875 0.69817 0.0
H2199 H 0.9808 0.76745 0.81998 0.0
H2200 H 0.99408 0.79811 0.6254 0.0
H2201 H 1.00455 0.79143 0.54705 0.0
C2202 C 0.02558 0.7975 0.56494 0.0
C2203 C 0.03493 0.7974 0.61053 0.0
C2204 C 0.99068 0.79096 0.66661 0.0
C2205 C 1.0072 0.78307 0.63956 0.0
C2206 C 0.9837 0.79298 0.71841 0.0
C2207 C 0.98062 0.78505 0.7763 0.0
C2208 C 0.9948 0.7811 0.6736 0.0
C2209 C 0.98325 0.77409 0.77725 0.0
C2210 C 1.01158 0.79022 0.57913 0.0
C2211 C 0.02992 0.78814 0.66346 0.0
N2212 N 0.99054 0.7727 0.72756 0.0
N2213 N 1.01634 0.78156 0.67762 0.0
H2214 H 0.85013 0.80884 0.3354 0.0
H2215 H 0.8004 0.84024 0.25839 0.0
H2216 H 0.81884 0.80543 0.46914 0.0
H2217 H 0.82308 0.83367 0.10564 0.0
H2218 H 0.81062 0.83196 0.34142 0.0
H2219 H 0.84408 0.82204 0.25799 0.0
C2220 C 0.84241 0.81136 0.35015 0.0
C2221 C 0.83543 0.80635 0.41108 0.0
C2222 C 0.81369 0.83264 0.29004 0.0
C2223 C 0.82797 0.82127 0.3201 0.0
C2224 C 0.80801 0.83765 0.24238 0.0
C2225 C 0.81124 0.83833 0.17436 0.0
C2226 C 0.82277 0.82806 0.2706 0.0
C2227 C 0.82062 0.83394 0.15729 0.0
C2228 C 0.83876 0.81873 0.30504 0.0
C2229 C 0.82494 0.80942 0.42452 0.0
N2230 N 0.82599 0.82907 0.20449 0.0
N2231 N 0.82161 0.81659 0.38016 0.0
H2232 H 0.2099 0.02413 0.46906 0.0
H2233 H 0.20642 0.99848 0.08941 0.0
H2234 H 0.2329 0.05127 0.30882 0.0
H2235 H 0.18397 0.97125 0.25033 0.0
H2236 H 0.21386 0.01819 0.16502 0.0
H2237 H 0.19814 1.00529 0.38836 0.0
C2238 C 0.21211 0.02633 0.41675 0.0
C2239 C 0.22216 0.03963 0.39629 0.0
C2240 C 0.20701 1.00794 0.18364 0.0
C2241 C 0.20902 0.01761 0.3022 0.0
C2242 C 0.20252 0.99662 0.13974 0.0
C2243 C 0.194 0.983 0.16199 0.0
C2244 C 0.20322 1.00583 0.25148 0.0
C2245 C 0.1901 0.98146 0.22962 0.0
C2246 C 0.20552 0.01543 0.37038 0.0
C2247 C 0.22498 0.0414 0.3274 0.0
N2248 N 0.19471 0.99255 0.27131 0.0
N2249 N 0.21859 0.03068 0.28362 0.0
H2250 H 0.97493 0.18009 0.34764 0.0
H2251 H 0.05633 0.22274 0.26052 0.0
H2252 H 1.00552 0.20347 0.49388 0.0
H2253 H 0.02447 0.20821 0.11373 0.0
H2254 H 0.03859 0.21206 0.34783 0.0
H2255 H 0.99321 0.18628 0.26505 0.0
C2256 C 0.98552 0.186 0.36345 0.0
C2257 C 0.98851 0.19066 0.42952 0.0
C2258 C 0.03545 0.21088 0.29643 0.0
C2259 C 1.00992 0.19851 0.33254 0.0
C2260 C 0.04565 0.2168 0.2461 0.0
C2261 C 0.04209 0.21601 0.17847 0.0
C2262 C 0.02136 0.204 0.27992 0.0
C2263 C 0.02789 0.20876 0.16437 0.0
C2264 C 0.99603 0.18978 0.31556 0.0
C2265 C 1.00258 0.19906 0.44486 0.0
N2266 N 0.01821 0.20311 0.21391 0.0
N2267 N 1.01264 0.20267 0.39732 0.0
H2268 H 0.94429 0.57972 0.20548 0.0
H2269 H 0.87466 0.56871 0.19026 0.0
H2270 H 0.91599 0.56213 0.36836 0.0
H2271 H 0.90752 0.59826 0.06645 0.0
H2272 H 0.89117 0.57318 0.27831 0.0
H2273 H 0.93476 0.59443 0.17998 0.0
C2274 C 0.93639 0.5794 0.23735 0.0
C2275 C 0.93049 0.56947 0.28717 0.0
C2276 C 0.89477 0.57902 0.23266 0.0
C2277 C 0.91893 0.58543 0.25633 0.0
C2278 C 0.88534 0.5763 0.18212 0.0
C2279 C 0.88988 0.5826 0.12007 0.0
C2280 C 0.90885 0.58768 0.21979 0.0
C2281 C 0.90367 0.59285 0.11293 0.0
C2282 C 0.93089 0.58776 0.22297 0.0
C2283 C 0.92049 0.56949 0.32827 0.0
N2284 N 0.91276 0.59478 0.16152 0.0
N2285 N 0.9146 0.57698 0.31037 0.0
H2286 H 0.46588 0.38061 0.13317 0.0
H2287 H 0.44464 0.3069 0.18515 0.0
H2288 H 0.46627 0.36402 0.32614 0.0
H2289 H 0.43268 0.32119 1.0136 0.0
H2290 H 0.44514 0.32535 0.25029 0.0
H2291 H 0.44713 0.3584 0.10107 0.0
C2292 C 0.46192 0.37241 0.16944 0.0
C2293 C 0.46829 0.37406 0.23125 0.0
C2294 C 0.44193 0.32425 0.19899 0.0
C2295 C 0.44688 0.34839 0.19399 0.0
C2296 C 0.44166 0.31371 0.16204 0.0
C2297 C 0.43909 0.31295 0.09394 0.0
C2298 C 0.44022 0.33436 0.16644 0.0
C2299 C 0.435 0.32172 0.06594 0.0
C2300 C 0.45109 0.35965 0.15104 0.0
C2301 C 0.46232 0.36306 0.27644 0.0
N2302 N 0.43616 0.33242 0.10182 0.0
N2303 N 0.45222 0.35057 0.25623 0.0
H2304 H 0.7017 0.13657 0.87668 0.0
H2305 H 0.6473 0.12009 0.03532 0.0
H2306 H 0.71438 0.13006 0.06883 0.0
H2307 H 0.65729 0.09805 0.17882 0.0
H2308 H 0.66282 0.11865 0.9568 0.0
H2309 H 0.67894 0.11713 0.89654 0.0
C2310 C 0.69985 0.13093 0.92263 0.0
C2311 C 0.70969 0.13556 0.97344 0.0
C2312 C 0.6613 0.11356 1.0042 0.0
C2313 C 0.68347 0.11381 0.99741 0.0
C2314 C 0.65253 0.11459 0.04935 0.0
C2315 C 0.65162 0.10978 0.11419 0.0
C2316 C 0.66958 0.10818 0.02542 0.0
C2317 C 0.65811 0.10228 0.12966 0.0
C2318 C 0.68675 0.11983 0.93407 0.0
C2319 C 0.70678 0.12739 0.03032 0.0
N2320 N 0.66724 0.10213 0.0863 0.0
N2321 N 0.69377 0.11714 0.04179 0.0
H2322 H 0.47211 0.17771 0.59891 0.0
H2323 H 0.50595 0.12974 0.6602 0.0
H2324 H 0.47747 0.15499 0.44243 0.0
H2325 H 0.49665 0.14954 0.81707 0.0
H2326 H 0.4989 0.14134 0.57835 0.0
H2327 H 0.48418 0.17034 0.6753 0.0
C2328 C 0.47634 0.17164 0.57956 0.0
C2329 C 0.47415 0.16757 0.5124 0.0
C2330 C 0.49872 0.14348 0.63051 0.0
C2331 C 0.48766 0.15825 0.60252 0.0
C2332 C 0.503 0.137 0.67764 0.0
C2333 C 0.5026 0.13904 0.74653 0.0
C2334 C 0.49367 0.15209 0.6514 0.0
C2335 C 0.49779 0.148 0.76504 0.0
C2336 C 0.48308 0.1672 0.62394 0.0
C2337 C 0.47932 0.15898 0.49242 0.0
N2338 N 0.49357 0.15408 0.71842 0.0
N2339 N 0.4857 0.15463 0.5368 0.0
H2340 H 0.88873 0.35913 0.85065 0.0
H2341 H 0.87215 0.33526 0.46666 0.0
H2342 H 0.89963 0.38748 0.6878 0.0
H2343 H 0.86058 0.30678 0.62934 0.0
H2344 H 0.87969 0.35421 0.54677 0.0
H2345 H 0.87603 0.33994 0.77293 0.0
C2346 C 0.88797 0.36141 0.79912 0.0
C2347 C 0.89488 0.37517 0.777 0.0
C2348 C 0.87518 0.34379 0.56527 0.0
C2349 C 0.88078 0.35287 0.68543 0.0
C2350 C 0.87062 0.33286 0.51912 0.0
C2351 C 0.86511 0.31914 0.54044 0.0
C2352 C 0.87456 0.34122 0.63426 0.0
C2353 C 0.86425 0.31702 0.60988 0.0
C2354 C 0.88088 0.35036 0.75416 0.0
C2355 C 0.89411 0.37719 0.70821 0.0
N2356 N 0.86892 0.32779 0.65362 0.0
N2357 N 0.88734 0.36632 0.66552 0.0
H2358 H 0.645 0.51323 0.62034 0.0
H2359 H 0.72671 0.56239 0.5595 0.0
H2360 H 0.67284 0.5373 0.77513 0.0
H2361 H 0.69783 0.54205 0.40233 0.0
H2362 H 0.70804 0.55063 0.64107 0.0
H2363 H 0.66456 0.52063 0.54437 0.0
C2364 C 0.65529 0.51959 0.63949 0.0
C2365 C 0.6571 0.52405 0.70597 0.0
C2366 C 0.70577 0.54841 0.58892 0.0
C2367 C 0.67998 0.53337 0.61646 0.0
C2368 C 0.71656 0.55499 0.542 0.0
C2369 C 0.71416 0.55285 0.47317 0.0
C2370 C 0.69217 0.5396 0.56782 0.0
C2371 C 0.70046 0.54368 0.45441 0.0
C2372 C 0.66653 0.52405 0.59535 0.0
C2373 C 0.6708 0.53301 0.7257 0.0
N2374 N 0.69013 0.5375 0.50086 0.0
N2375 N 0.68157 0.53736 0.68161 0.0
H2376 H 0.58184 0.89594 0.71651 0.0
H2377 H 0.57134 0.9266 0.39161 0.0
H2378 H 0.60127 0.89946 0.52805 0.0
H2379 H 0.54192 0.90592 0.54809 0.0
H2380 H 0.5898 0.93025 0.4675 0.0
H2381 H 0.57633 0.91344 0.681 0.0
C2382 C 0.58556 0.90095 0.66895 0.0
C2383 C 0.59154 0.89606 0.62383 0.0
C2384 C 0.57935 0.92541 0.48593 0.0
C2385 C 0.58519 0.9157 0.58296 0.0
C2386 C 0.56883 0.92325 0.44265 0.0
C2387 C 0.55512 0.91543 0.46333 0.0
C2388 C 0.57603 0.9196 0.54968 0.0
C2389 C 0.55237 0.91148 0.52992 0.0
C2390 C 0.58241 0.9109 0.64868 0.0
C2391 C 0.59626 0.9028 0.56303 0.0
N2392 N 0.56274 0.91335 0.57057 0.0
N2393 N 0.59268 0.9121 0.54348 0.0
H2394 H 0.12045 0.69415 0.47225 0.0
H2395 H 0.12503 0.63169 0.51693 0.0
H2396 H 0.12941 0.68233 0.66032 0.0
H2397 H 0.10451 0.63766 0.351 0.0
H2398 H 0.11813 0.64488 0.5864 0.0
H2399 H 0.10563 0.67001 0.44476 0.0
C2400 C 0.11878 0.68638 0.5088 0.0
C2401 C 0.12642 0.69004 0.56736 0.0
C2402 C 0.11473 0.643 0.53534 0.0
C2403 C 0.11027 0.66253 0.5353 0.0
C2404 C 0.11877 0.63554 0.49572 0.0
C2405 C 0.11585 0.6342 0.42783 0.0
C2406 C 0.10829 0.64963 0.50581 0.0
C2407 C 0.1073 0.63887 0.40289 0.0
C2408 C 0.11037 0.67258 0.49326 0.0
C2409 C 0.12387 0.67978 0.6139 0.0
N2410 N 0.1042 0.64681 0.44137 0.0
N2411 N 0.11638 0.6664 0.59588 0.0
H2412 H 0.39477 0.46423 0.38389 0.0
H2413 H 0.33377 0.42889 0.48325 0.0
H2414 H 0.39178 0.48998 0.53284 0.0
H2415 H 0.34533 0.44401 0.68209 0.0
H2416 H 0.3575 0.43578 0.45891 0.0
H2417 H 0.38147 0.44423 0.4552 0.0
C2418 C 0.39169 0.46573 0.43257 0.0
C2419 C 0.39362 0.47858 0.45143 0.0
C2420 C 0.35489 0.43703 0.50907 0.0
C2421 C 0.37831 0.4559 0.53167 0.0
C2422 C 0.34132 0.43321 0.52241 0.0
C2423 C 0.33789 0.43644 0.58356 0.0
C2424 C 0.36506 0.44483 0.5562 0.0
C2425 C 0.34781 0.44175 0.6336 0.0
C2426 C 0.38413 0.45432 0.47316 0.0
C2427 C 0.3898 0.48007 0.5154 0.0
N2428 N 0.36114 0.44633 0.61804 0.0
N2429 N 0.382 0.46877 0.55282 0.0
H2430 H 0.17421 0.47993 0.1812 0.0
H2431 H 0.14812 0.48083 0.80736 0.0
H2432 H 0.17472 0.45425 0.02536 0.0
H2433 H 0.14896 0.50747 0.96171 0.0
H2434 H 0.16025 0.47296 0.88155 0.0
H2435 H 0.16756 0.49191 0.09944 0.0
C2436 C 0.17352 0.47716 0.1294 0.0
C2437 C 0.17569 0.46634 0.1105 0.0
C2438 C 0.15814 0.48081 0.89886 0.0
C2439 C 0.16718 0.4797 1.01541 0.0
C2440 C 0.1514 0.48553 0.85566 0.0
C2441 C 0.14795 0.49538 0.87645 0.0
C2442 C 0.16134 0.48567 0.96475 0.0
C2443 C 0.15181 0.50031 0.9419 0.0
C2444 C 0.16946 0.48389 0.0825 0.0
C2445 C 0.17373 0.46282 0.04251 0.0
N2446 N 0.15813 0.49542 0.98315 0.0
N2447 N 0.16959 0.46933 0.9982 0.0
H2448 H 0.5598 0.72036 0.03239 0.0
H2449 H 0.53393 0.6398 0.98097 0.0
H2450 H 0.56093 0.69456 0.18682 0.0
H2451 H 0.53276 0.66547 0.82584 0.0
H2452 H 0.54097 0.65877 0.05985 0.0
H2453 H 0.5473 0.70007 0.96133 0.0
C2454 C 0.5569 0.71034 0.05271 0.0
C2455 C 0.56103 0.70931 0.1176 0.0
C2456 C 0.53887 0.66024 1.00904 0.0
C2457 C 0.54714 0.68565 0.03354 0.0
C2458 C 0.5346 0.64925 0.9638 0.0
C2459 C 0.5321 0.65063 0.89641 0.0
C2460 C 0.54105 0.67311 0.98747 0.0
C2461 C 0.53396 0.66356 0.87735 0.0
C2462 C 0.54992 0.6987 1.01132 0.0
C2463 C 0.55756 0.69597 0.13872 0.0
N2464 N 0.53834 0.67418 0.92206 0.0
N2465 N 0.55097 0.68483 0.09718 0.0
H2466 H 0.33502 0.8661 0.15202 0.0
H2467 H 0.35794 0.87899 0.76689 0.0
H2468 H 0.30602 0.84862 0.9928 0.0
H2469 H 0.38686 0.89114 0.92682 0.0
H2470 H 0.33906 0.86643 0.84676 0.0
H2471 H 0.35392 0.87371 0.07143 0.0
C2472 C 0.33256 0.86333 0.10041 0.0
C2473 C 0.31869 0.85604 0.0805 0.0
C2474 C 0.34953 0.87151 0.86452 0.0
C2475 C 0.34071 0.86566 0.98534 0.0
C2476 C 0.36042 0.87854 0.81838 0.0
C2477 C 0.37427 0.8857 0.83878 0.0
C2478 C 0.35225 0.87182 0.93307 0.0
C2479 C 0.37652 0.88534 0.90756 0.0
C2480 C 0.34345 0.86791 0.05388 0.0
C2481 C 0.31641 0.85361 1.01164 0.0
N2482 N 0.36578 0.87869 0.95157 0.0
N2483 N 0.32716 0.85844 0.96717 0.0
H2484 H 0.31007 0.19059 0.92908 0.0
H2485 H 0.38141 0.25682 0.02369 0.0
H2486 H 0.31582 0.21593 0.09974 0.0
H2487 H 0.37984 0.22552 0.89534 0.0
H2488 H 0.35698 0.24214 0.04734 0.0
H2489 H 0.33512 0.20296 0.91227 0.0
C2490 C 0.31655 0.19861 0.96346 0.0
C2491 C 0.31068 0.20233 1.01525 0.0
C2492 C 0.36194 0.23839 1.01428 0.0
C2493 C 0.33938 0.21669 0.99555 0.0
C2494 C 0.37591 0.24681 1.00055 0.0
C2495 C 0.38272 0.24244 0.95733 0.0
C2496 C 0.3545 0.22547 0.9839 0.0
C2497 C 0.37503 0.22929 0.92926 0.0
C2498 C 0.33086 0.20572 0.9536 0.0
C2499 C 0.3197 0.21289 0.05793 0.0
N2500 N 0.36131 0.22132 0.94242 0.0
N2501 N 0.33347 0.21973 0.04672 0.0
H2502 H 0.83166 0.14039 0.02001 0.0
H2503 H 0.77395 0.14326 0.79604 0.0
H2504 H 0.80264 0.10705 0.89807 0.0
H2505 H 0.79688 0.17345 0.94593 0.0
H2506 H 0.78635 0.13133 0.82413 0.0
H2507 H 0.82121 0.15405 0.98448 0.0
C2508 C 0.82321 0.13598 0.98527 0.0
C2509 C 0.818 0.12246 0.96252 0.0
C2510 C 0.78873 0.1406 0.85079 0.0
C2511 C 0.80593 0.13808 0.92153 0.0
C2512 C 0.78157 0.14744 0.83493 0.0
C2513 C 0.78415 0.15941 0.86891 0.0
C2514 C 0.79872 0.1457 0.90098 0.0
C2515 C 0.79452 0.16437 0.91769 0.0
C2516 C 0.81718 0.14376 0.96531 0.0
C2517 C 0.80692 0.11732 0.91783 0.0
N2518 N 0.80133 0.15749 0.93237 0.0
N2519 N 0.80131 0.12508 0.89902 0.0
H2520 H 0.87667 0.64486 1.00553 0.0
H2521 H 0.94036 0.7171 0.88976 0.0
H2522 H 0.90658 0.64894 0.85962 0.0
H2523 H 0.90672 0.7139 1.00613 0.0
H2524 H 0.92849 0.69206 0.88226 0.0
H2525 H 0.88769 0.66995 1.00966 0.0
C2526 C 0.88549 0.65096 0.97413 0.0
C2527 C 0.89071 0.64461 0.93263 0.0
C2528 C 0.92365 0.69681 0.90923 0.0
C2529 C 0.90352 0.67349 0.93781 0.0
C2530 C 0.93047 0.71114 0.91376 0.0
C2531 C 0.92456 0.71769 0.94861 0.0
C2532 C 0.91084 0.68884 0.94031 0.0
C2533 C 0.91162 0.70936 0.97808 0.0
C2534 C 0.89182 0.66532 0.97677 0.0
C2535 C 0.9023 0.65321 0.89371 0.0
N2536 N 0.90525 0.6954 0.97361 0.0
N2537 N 0.9083 0.66712 0.89748 0.0
H2538 H 0.26787 0.37128 0.56164 0.0
H2539 H 0.2045 0.30127 0.6999 0.0
H2540 H 0.23996 0.37048 0.71036 0.0
H2541 H 0.22924 0.30353 0.53151 0.0
H2542 H 0.21712 0.32641 0.70536 0.0
H2543 H 0.2537 0.34639 0.55067 0.0
C2544 C 0.25871 0.36586 0.59182 0.0
C2545 C 0.25515 0.37301 0.63718 0.0
C2546 C 0.21976 0.32138 0.6672 0.0
C2547 C 0.23882 0.34434 0.62517 0.0
C2548 C 0.21252 0.307 0.66387 0.0
C2549 C 0.21584 0.30013 0.61555 0.0
C2550 C 0.23045 0.32903 0.62199 0.0
C2551 C 0.22647 0.30823 0.57071 0.0
C2552 C 0.25059 0.35163 0.58546 0.0
C2553 C 0.24305 0.36543 0.67443 0.0
N2554 N 0.23338 0.32216 0.57521 0.0
N2555 N 0.2354 0.35151 0.66804 0.0
H2556 H 0.72272 0.90691 0.71526 0.0
H2557 H 0.64743 0.89344 0.63522 0.0
H2558 H 0.71407 0.9293 0.56703 0.0
H2559 H 0.65387 0.86404 0.74308 0.0
H2560 H 0.67204 0.907 0.61342 0.0
H2561 H 0.69796 0.89139 0.72949 0.0
C2562 C 0.7157 0.90857 0.68537 0.0
C2563 C 0.72068 0.91965 0.64033 0.0
C2564 C 0.66813 0.89755 0.64148 0.0
C2565 C 0.69217 0.9019 0.65725 0.0
C2566 C 0.65405 0.8898 0.65403 0.0
C2567 C 0.64856 0.87759 0.69119 0.0
C2568 C 0.67698 0.89325 0.66695 0.0
C2569 C 0.65765 0.87334 0.71393 0.0
C2570 C 0.70152 0.89969 0.69378 0.0
C2571 C 0.7109 0.92123 0.6037 0.0
N2572 N 0.67143 0.88123 0.70208 0.0
N2573 N 0.69723 0.91256 0.61326 0.0
H2574 H 0.10846 0.80267 0.464 0.0
H2575 H 0.16241 0.79118 0.67498 0.0
H2576 H 0.13001 0.82793 0.63194 0.0
H2577 H 0.13437 0.76259 0.53144 0.0
H2578 H 0.15305 0.8064 0.65256 0.0
H2579 H 0.12029 0.78978 0.48019 0.0
C2580 C 0.1157 0.80554 0.50443 0.0
C2581 C 0.118 0.81631 0.54739 0.0
C2582 C 0.149 0.79682 0.62584 0.0
C2583 C 0.13183 0.80147 0.56601 0.0
C2584 C 0.1544 0.78815 0.63829 0.0
C2585 C 0.14914 0.7755 0.60533 0.0
C2586 C 0.13836 0.79291 0.57945 0.0
C2587 C 0.13864 0.77211 0.55879 0.0
C2588 C 0.12251 0.79815 0.51356 0.0
C2589 C 0.12786 0.81972 0.59763 0.0
N2590 N 0.13364 0.78072 0.54736 0.0
N2591 N 0.13433 0.81227 0.6059 0.0
H2592 H 0.65955 0.77808 0.24999 0.0
H2593 H 0.71722 0.83303 1.00356 0.0
H2594 H 0.6499 0.79855 0.09594 0.0
H2595 H 0.72308 0.80607 0.13483 0.0
H2596 H 0.69322 0.82237 0.04141 0.0
H2597 H 0.68345 0.79028 0.21447 0.0
C2598 C 0.66244 0.78518 0.20869 0.0
C2599 C 0.65253 0.78709 0.17553 0.0
C2600 C 0.69977 0.81877 0.06166 0.0
C2601 C 0.68024 0.80131 0.13432 0.0
C2602 C 0.71349 0.82487 0.04017 0.0
C2603 C 0.72224 0.82037 0.0653 0.0
C2604 C 0.69476 0.80821 0.10946 0.0
C2605 C 0.71675 0.80974 0.11273 0.0
C2606 C 0.67616 0.79218 0.18836 0.0
C2607 C 0.65711 0.79673 0.12327 0.0
N2608 N 0.70348 0.8041 0.13318 0.0
N2609 N 0.67059 0.80341 0.10402 0.0
H2610 H 0.25496 0.88849 0.25351 0.0
H2611 H 0.1941 0.88859 0.04448 0.0
H2612 H 0.22902 0.85572 0.12041 0.0
H2613 H 0.22292 0.92204 0.16661 0.0
H2614 H 0.20512 0.87532 0.07794 0.0
H2615 H 0.24184 0.89982 0.22842 0.0
C2616 C 0.24648 0.88363 0.21905 0.0
C2617 C 0.24323 0.87112 0.18882 0.0
C2618 C 0.20899 0.88555 0.09748 0.0
C2619 C 0.22796 0.88416 0.15971 0.0
C2620 C 0.20265 0.89311 0.07862 0.0
C2621 C 0.20768 0.90656 0.10189 0.0
C2622 C 0.22036 0.89143 0.14051 0.0
C2623 C 0.21883 0.91185 0.14606 0.0
C2624 C 0.23893 0.89012 0.20482 0.0
C2625 C 0.2319 0.86528 0.14548 0.0
N2626 N 0.22476 0.90434 0.16359 0.0
N2627 N 0.22476 0.87187 0.13193 0.0
H2628 H 0.13006 0.30411 0.13717 0.0
H2629 H 0.13647 0.37849 0.14596 0.0
H2630 H 0.10129 0.31361 0.04441 0.0
H2631 H 0.16341 0.36894 0.25698 0.0
H2632 H 0.12423 0.35503 0.1054 0.0
H2633 H 0.14322 0.32789 0.17631 0.0
C2634 C 0.12657 0.3112 0.1242 0.0
C2635 C 0.11448 0.30673 0.08708 0.0
C2636 C 0.13278 0.358 0.13883 0.0
C2637 C 0.12951 0.3341 0.13289 0.0
C2638 C 0.13975 0.37146 0.16281 0.0
C2639 C 0.15096 0.37585 0.20634 0.0
C2640 C 0.13697 0.34863 0.15767 0.0
C2641 C 0.15489 0.36616 0.22366 0.0
C2642 C 0.13406 0.32479 0.14718 0.0
C2643 C 0.11042 0.31645 0.07325 0.0
N2644 N 0.14791 0.35306 0.19948 0.0
N2645 N 0.11788 0.32957 0.09602 0.0
H2646 H 0.76725 0.64298 0.42986 0.0
H2647 H 0.83907 0.71372 0.44388 0.0
H2648 H 0.80294 0.64843 0.32329 0.0
H2649 H 0.79995 0.7102 0.48692 0.0
H2650 H 0.82708 0.68919 0.41336 0.0
H2651 H 0.78001 0.66687 0.46335 0.0
C2652 C 0.7777 0.64916 0.4124 0.0
C2653 C 0.7838 0.64347 0.37207 0.0
C2654 C 0.82115 0.6938 0.42983 0.0
C2655 C 0.79883 0.67119 0.41328 0.0
C2656 C 0.828 0.70776 0.4478 0.0
C2657 C 0.82051 0.71405 0.46798 0.0
C2658 C 0.80672 0.68601 0.43315 0.0
C2659 C 0.80615 0.70583 0.47136 0.0
C2660 C 0.78507 0.66288 0.43242 0.0
C2661 C 0.79769 0.65217 0.35432 0.0
N2662 N 0.79977 0.69232 0.45437 0.0
N2663 N 0.8047 0.66553 0.37496 0.0
H2664 H 0.31554 0.12925 0.57346 0.0
H2665 H 0.3765 0.13496 0.34254 0.0
H2666 H 0.31113 0.09889 0.43046 0.0
H2667 H 0.38366 0.16398 0.49817 0.0
H2668 H 0.35212 0.12289 0.3694 0.0
H2669 H 0.33995 0.14319 0.54264 0.0
C2670 C 0.31966 0.1255 0.53559 0.0
C2671 C 0.3112 0.11272 0.50531 0.0
C2672 C 0.35896 0.13193 0.39771 0.0
C2673 C 0.33917 0.12871 0.46944 0.0
C2674 C 0.37296 0.13885 0.38239 0.0
C2675 C 0.3823 0.15048 0.41849 0.0
C2676 C 0.35404 0.13657 0.44976 0.0
C2677 C 0.37691 0.15512 0.46869 0.0
C2678 C 0.33361 0.13346 0.51814 0.0
C2679 C 0.3172 0.10847 0.45651 0.0
N2680 N 0.36319 0.14811 0.48313 0.0
N2681 N 0.33071 0.11639 0.44031 0.0
H2682 H 0.89339 0.25906 0.51873 0.0
H2683 H 0.90063 0.19296 0.44407 0.0
H2684 H 0.86868 0.229 0.37179 0.0
H2685 H 0.92328 0.22311 0.59426 0.0
H2686 H 0.88784 0.20489 0.41974 0.0
H2687 H 0.90366 0.24525 0.54837 0.0
C2688 C 0.89018 0.24958 0.49215 0.0
C2689 C 0.88028 0.24536 0.44172 0.0
C2690 C 0.89554 0.20882 0.45832 0.0
C2691 C 0.892 0.2292 0.47654 0.0
C2692 C 0.90278 0.20195 0.47262 0.0
C2693 C 0.91317 0.20707 0.52101 0.0
C2694 C 0.89867 0.2209 0.49274 0.0
C2695 C 0.91557 0.21888 0.5558 0.0
C2696 C 0.896 0.24161 0.50959 0.0
C2697 C 0.87629 0.23271 0.41079 0.0
N2698 N 0.90847 0.22537 0.54078 0.0
N2699 N 0.88223 0.22513 0.42831 0.0
H2700 H 0.06654 0.60022 0.27765 0.0
H2701 H 0.99189 0.53304 0.24368 0.0
H2702 H 0.0604 0.56306 0.18522 0.0
H2703 H 1.00108 0.56708 0.37287 0.0
H2704 H 1.01639 0.54399 0.2155 0.0
H2705 H 0.04206 0.58872 0.30383 0.0
C2706 C 0.06004 0.58969 0.26208 0.0
C2707 C 0.06567 0.58268 0.22889 0.0
C2708 C 1.013 0.54904 0.24999 0.0
C2709 C 0.03737 0.56926 0.25973 0.0
C2710 C 0.99898 0.54274 0.26651 0.0
C2711 C 0.99418 0.54914 0.31028 0.0
C2712 C 0.02238 0.5619 0.27705 0.0
C2713 C 1.00404 0.56182 0.33754 0.0
C2714 C 0.04603 0.58306 0.27769 0.0
C2715 C 0.05663 0.56889 0.21131 0.0
N2716 N 1.01752 0.56775 0.32027 0.0
N2717 N 0.04298 0.56268 0.22672 0.0
H2718 H 0.46218 0.49335 0.34482 0.0
H2719 H 0.4671 0.42505 0.29817 0.0
H2720 H 0.43639 0.46104 0.20897 0.0
H2721 H 0.49788 0.46108 0.3994 0.0
H2722 H 0.45475 0.43724 0.27196 0.0
H2723 H 0.47434 0.48109 0.37056 0.0
C2724 C 0.45908 0.48376 0.31959 0.0
C2725 C 0.44817 0.47845 0.27367 0.0
C2726 C 0.46419 0.44249 0.29998 0.0
C2727 C 0.46211 0.46398 0.30514 0.0
C2728 C 0.47124 0.43548 0.31555 0.0
C2729 C 0.48362 0.44194 0.35154 0.0
C2730 C 0.4694 0.45613 0.32085 0.0
C2731 C 0.48848 0.45562 0.37124 0.0
C2732 C 0.46605 0.47668 0.33498 0.0
C2733 C 0.44457 0.46565 0.24501 0.0
N2734 N 0.48137 0.46218 0.35598 0.0
N2735 N 0.45147 0.45891 0.26118 0.0
H2736 H 0.57118 0.04655 0.35365 0.0
H2737 H 0.56435 0.97803 0.19653 0.0
H2738 H 0.60157 0.04587 0.22609 0.0
H2739 H 0.5393 0.97702 0.36098 0.0
H2740 H 0.57631 1.00298 0.19833 0.0
H2741 H 0.55763 0.02136 0.34795 0.0
C2742 C 0.57494 0.04114 0.32386 0.0
C2743 C 0.58758 0.04839 0.29039 0.0
C2744 C 0.56821 0.99734 0.23416 0.0
C2745 C 0.57212 0.01952 0.28383 0.0
C2746 C 0.56139 0.983 0.23356 0.0
C2747 C 0.55089 0.97523 0.2796 0.0
C2748 C 0.56452 1.00417 0.28067 0.0
C2749 C 0.54729 0.98247 0.32447 0.0
C2750 C 0.56724 0.02674 0.32105 0.0
C2751 C 0.59198 0.04076 0.25324 0.0
N2752 N 0.5541 0.9965 0.32404 0.0
N2753 N 0.58429 0.02681 0.25093 0.0
H2754 H 0.42877 0.97996 0.76566 0.0
H2755 H 0.49759 0.04441 0.89266 0.0
H2756 H 0.46756 0.98108 0.74534 0.0
H2757 H 0.46435 0.04792 0.80611 0.0
H2758 H 0.48626 0.02042 0.85641 0.0
H2759 H 0.44103 1.00389 0.79823 0.0
C2760 C 0.43985 0.98514 0.76677 0.0
C2761 C 0.44698 0.97818 0.75086 0.0
C2762 C 0.4815 0.02651 0.84574 0.0
C2763 C 0.46119 1.00594 0.79223 0.0
C2764 C 0.48798 0.0403 0.86624 0.0
C2765 C 0.48201 0.04852 0.85355 0.0
C2766 C 0.46877 0.02068 0.81329 0.0
C2767 C 0.46934 0.0422 0.81962 0.0
C2768 C 0.44686 0.9989 0.78637 0.0
C2769 C 0.46143 0.98572 0.75718 0.0
N2770 N 0.46318 0.02876 0.80142 0.0
N2771 N 0.46801 0.99911 0.77761 0.0
H2772 H 0.99174 0.44233 0.97015 0.0
H2773 H 0.05395 0.49416 0.73499 0.0
H2774 H 0.98567 0.46231 0.80145 0.0
H2775 H 0.05886 0.4774 0.91879 0.0
H2776 H 0.02925 0.48365 0.75885 0.0
H2777 H 1.01649 0.45586 0.95251 0.0
C2778 C 0.99563 0.44963 0.92948 0.0
C2779 C 0.98654 0.4511 0.8871 0.0
C2780 C 0.03577 0.48236 0.79407 0.0
C2781 C 1.01512 0.46672 0.86605 0.0
C2782 C 0.0499 0.48842 0.78063 0.0
C2783 C 0.05855 0.48652 0.82436 0.0
C2784 C 0.03022 0.47434 0.85173 0.0
C2785 C 0.05263 0.47891 0.88265 0.0
C2786 C 1.00981 0.45741 0.91945 0.0
C2787 C 0.99226 0.46088 0.83565 0.0
N2788 N 0.03892 0.47306 0.89422 0.0
N2789 N 1.00615 0.4682 0.82615 0.0
H2790 H 0.57224 0.53082 0.70755 0.0
H2791 H 0.56372 0.59434 0.82348 0.0
H2792 H 0.59139 0.55552 0.88044 0.0
H2793 H 0.54376 0.57047 0.64933 0.0
H2794 H 0.5733 0.57958 0.84535 0.0
H2795 H 0.56067 0.54411 0.68734 0.0
C2796 C 0.57386 0.53888 0.7418 0.0
C2797 C 0.58291 0.54211 0.79554 0.0
C2798 C 0.56686 0.57754 0.80218 0.0
C2799 C 0.56984 0.55748 0.77218 0.0
C2800 C 0.56147 0.5861 0.78916 0.0
C2801 C 0.55305 0.58385 0.73373 0.0
C2802 C 0.56386 0.56652 0.75968 0.0
C2803 C 0.55019 0.57264 0.69261 0.0
C2804 C 0.56733 0.54654 0.72991 0.0
C2805 C 0.58469 0.55278 0.83782 0.0
N2806 N 0.55562 0.56444 0.70623 0.0
N2807 N 0.57831 0.56008 0.82507 0.0
loop_
_geom_bond_atom_site_label_1
_geom_bond_atom_site_label_2
_geom_bond_distance
_geom_bond_site_symmetry_2
_ccdc_geom_bond_type
C0 C1 1.351 . S
C0 N3 1.368 . S
C0 H5 0.931 . S
C1 C0 1.351 . S
C1 N2 1.373 . S
C1 H29 0.930 . S
N2 C1 1.373 . S
N2 C4 1.340 . S
N3 C0 1.368 . S
N3 C4 1.321 . S
N3 Co6 2.135 . S
C4 N2 1.340 . S
C4 N3 1.321 . S
C4 H28 0.930 . S
H5 C0 0.931 . S
Co6 N3 2.135 . S
Co6 N9 2.121 1_554 S
Co6 O14 2.055 . S
Co6 O17 2.039 1_554 S
Co6 N20 2.140 . S
C7 O8 1.227 . S
C7 O17 1.265 . S
O8 C7 1.227 . S
N9 Co6 2.121 1_556 S
N9 C11 1.375 . S
N9 C12 1.313 . S
C10 C11 1.338 . S
C10 N13 1.377 . S
C10 H30 0.930 . S
C11 N9 1.375 . S
C11 C10 1.338 . S
C11 H15 0.931 . S
C12 N9 1.313 . S
C12 N13 1.344 . S
C12 H16 0.930 . S
N13 C10 1.377 . S
N13 C12 1.344 . S
O14 Co6 2.055 . S
O14 C18 1.253 . S
H15 C11 0.931 . S
H16 C12 0.930 . S
O17 Co6 2.039 1_556 S
O17 C7 1.265 . S
C18 O14 1.253 . S
C18 O19 1.227 . S
O19 C18 1.227 . S
N20 Co6 2.140 . S
N20 C23 1.346 . S
N20 C24 1.345 1_554 S
C21 C22 1.387 1_556 S
C21 C25 1.391 . S
C22 C21 1.387 1_554 S
C22 C23 1.369 . S
C22 H31 0.929 . S
C23 N20 1.346 . S
C23 C22 1.369 . S
C23 H26 0.928 . S
C24 N20 1.345 1_556 S
C24 C25 1.371 . S
C24 H27 0.931 . S
C25 C21 1.391 . S
C25 C24 1.371 . S
C25 H32 0.930 . S
H26 C23 0.928 . S
H27 C24 0.931 . S
H28 C4 0.930 . S
H29 C1 0.930 . S
H30 C10 0.930 . S
H31 C22 0.929 . S
H32 C25 0.930 . S
C33 C34 1.351 . S
C33 N36 1.368 . S
C33 H38 0.931 . S
C34 C33 1.351 . S
C34 N35 1.373 . S
C34 H62 0.930 . S
N35 C34 1.373 . S
N35 C37 1.340 . S
N36 C33 1.368 . S
N36 C37 1.321 . S
N36 Co39 2.135 . S
C37 N35 1.340 . S
C37 N36 1.321 . S
C37 H61 0.930 . S
H38 C33 0.931 . S
Co39 N36 2.135 . S
Co39 N42 2.121 1_554 S
Co39 O47 2.055 . S
Co39 O50 2.039 1_554 S
Co39 N53 2.140 . S
C40 O41 1.227 . S
C40 O50 1.265 . S
O41 C40 1.227 . S
N42 Co39 2.121 1_556 S
N42 C44 1.375 . S
N42 C45 1.313 . S
C43 C44 1.338 . S
C43 N46 1.377 . S
C43 H63 0.930 . S
C44 N42 1.375 . S
C44 C43 1.338 . S
C44 H48 0.931 . S
C45 N42 1.313 . S
C45 N46 1.344 . S
C45 H49 0.930 . S
N46 C43 1.377 . S
N46 C45 1.344 . S
O47 Co39 2.055 . S
O47 C51 1.253 . S
H48 C44 0.931 . S
H49 C45 0.930 . S
O50 Co39 2.039 1_556 S
O50 C40 1.265 . S
C51 O47 1.253 . S
C51 O52 1.227 . S
O52 C51 1.227 . S
N53 Co39 2.140 . S
N53 C56 1.346 . S
N53 C57 1.345 1_554 S
C54 C55 1.387 1_556 S
C54 C58 1.391 . S
C55 C54 1.387 1_554 S
C55 C56 1.369 . S
C55 H64 0.929 . S
C56 N53 1.346 . S
C56 C55 1.369 . S
C56 H59 0.928 . S
C57 N53 1.345 1_556 S
C57 C58 1.371 . S
C57 H60 0.931 . S
C58 C54 1.391 . S
C58 C57 1.371 . S
C58 H65 0.930 . S
H59 C56 0.928 . S
H60 C57 0.931 . S
H61 C37 0.930 . S
H62 C34 0.930 . S
H63 C43 0.930 . S
H64 C55 0.929 . S
H65 C58 0.930 . S
C66 C67 1.351 . S
C66 N69 1.368 . S
C66 H71 0.931 . S
C67 C66 1.351 . S
C67 N68 1.373 . S
C67 H95 0.930 . S
N68 C67 1.373 . S
N68 C70 1.340 . S
N69 C66 1.368 . S
N69 C70 1.321 . S
N69 Co72 2.135 . S
C70 N68 1.340 . S
C70 N69 1.321 . S
C70 H94 0.930 . S
H71 C66 0.931 . S
Co72 N69 2.135 . S
Co72 N75 2.121 1_554 S
Co72 O80 2.055 . S
Co72 O83 2.039 1_554 S
Co72 N86 2.140 . S
C73 O74 1.227 . S
C73 O83 1.265 . S
O74 C73 1.227 . S
N75 Co72 2.121 1_556 S
N75 C77 1.375 . S
N75 C78 1.313 . S
C76 C77 1.338 . S
C76 N79 1.377 . S
C76 H96 0.930 . S
C77 N75 1.375 . S
C77 C76 1.338 . S
C77 H81 0.931 . S
C78 N75 1.313 . S
C78 N79 1.344 . S
C78 H82 0.930 . S
N79 C76 1.377 . S
N79 C78 1.344 . S
O80 Co72 2.055 . S
O80 C84 1.253 . S
H81 C77 0.931 . S
H82 C78 0.930 . S
O83 Co72 2.039 1_556 S
O83 C73 1.265 . S
C84 O80 1.253 . S
C84 O85 1.227 . S
O85 C84 1.227 . S
N86 Co72 2.140 . S
N86 C89 1.346 . S
N86 C90 1.345 1_554 S
C87 C88 1.387 1_556 S
C87 C91 1.391 . S
C88 C87 1.387 1_554 S
C88 C89 1.369 . S
C88 H97 0.929 . S
C89 N86 1.346 . S
C89 C88 1.369 . S
C89 H92 0.928 . S
C90 N86 1.345 1_556 S
C90 C91 1.371 . S
C90 H93 0.931 . S
C91 C87 1.391 . S
C91 C90 1.371 . S
C91 H98 0.930 . S
H92 C89 0.928 . S
H93 C90 0.931 . S
H94 C70 0.930 . S
H95 C67 0.930 . S
H96 C76 0.930 . S
H97 C88 0.929 . S
H98 C91 0.930 . S
C99 C100 1.351 . S
C99 N102 1.368 . S
C99 H104 0.931 . S
C100 C99 1.351 . S
C100 N101 1.373 . S
C100 H128 0.930 . S
N101 C100 1.373 . S
N101 C103 1.340 . S
N102 C99 1.368 . S
N102 C103 1.321 . S
N102 Co105 2.135 . S
C103 N101 1.340 . S
C103 N102 1.321 . S
C103 H127 0.930 . S
H104 C99 0.931 . S
Co105 N102 2.135 . S
Co105 N108 2.121 . S
Co105 O113 2.055 . S
Co105 O116 2.039 . S
Co105 N119 2.140 . S
C106 O107 1.227 . S
C106 O116 1.265 . S
O107 C106 1.227 . S
N108 Co105 2.121 . S
N108 C110 1.375 . S
N108 C111 1.313 . S
C109 C110 1.338 . S
C109 N112 1.377 . S
C109 H129 0.930 . S
C110 N108 1.375 . S
C110 C109 1.338 . S
C110 H114 0.931 . S
C111 N108 1.313 . S
C111 N112 1.344 . S
C111 H115 0.930 . S
N112 C109 1.377 . S
N112 C111 1.344 . S
O113 Co105 2.055 . S
O113 C117 1.253 . S
H114 C110 0.931 . S
H115 C111 0.930 . S
O116 Co105 2.039 . S
O116 C106 1.265 . S
C117 O113 1.253 . S
C117 O118 1.227 . S
O118 C117 1.227 . S
N119 Co105 2.140 . S
N119 C122 1.346 . S
N119 C123 1.345 . S
C120 C121 1.387 . S
C120 C124 1.391 . S
C121 C120 1.387 . S
C121 C122 1.369 . S
C121 H130 0.929 . S
C122 N119 1.346 . S
C122 C121 1.369 . S
C122 H125 0.928 . S
C123 N119 1.345 . S
C123 C124 1.371 . S
C123 H126 0.931 . S
C124 C120 1.391 . S
C124 C123 1.371 . S
C124 H131 0.930 . S
H125 C122 0.928 . S
H126 C123 0.931 . S
H127 C103 0.930 . S
H128 C100 0.930 . S
H129 C109 0.930 . S
H130 C121 0.929 . S
H131 C124 0.930 . S
C132 C133 1.351 . S
C132 N135 1.368 . S
C132 H137 0.931 . S
C133 C132 1.351 . S
C133 N134 1.373 . S
C133 H161 0.930 . S
N134 C133 1.373 . S
N134 C136 1.340 . S
N135 C132 1.368 . S
N135 C136 1.321 . S
N135 Co138 2.135 . S
C136 N134 1.340 . S
C136 N135 1.321 . S
C136 H160 0.930 . S
H137 C132 0.931 . S
Co138 N135 2.135 . S
Co138 N141 2.121 . S
Co138 O146 2.055 . S
Co138 O149 2.039 . S
Co138 N152 2.140 . S
C139 O140 1.227 . S
C139 O149 1.265 . S
O140 C139 1.227 . S
N141 Co138 2.121 . S
N141 C143 1.375 . S
N141 C144 1.313 . S
C142 C143 1.338 . S
C142 N145 1.377 . S
C142 H162 0.930 . S
C143 N141 1.375 . S
C143 C142 1.338 . S
C143 H147 0.931 . S
C144 N141 1.313 . S
C144 N145 1.344 . S
C144 H148 0.930 . S
N145 C142 1.377 . S
N145 C144 1.344 . S
O146 Co138 2.055 . S
O146 C150 1.253 . S
H147 C143 0.931 . S
H148 C144 0.930 . S
O149 Co138 2.039 . S
O149 C139 1.265 . S
C150 O146 1.253 . S
C150 O151 1.227 . S
O151 C150 1.227 . S
N152 Co138 2.140 . S
N152 C155 1.346 . S
N152 C156 1.345 . S
C153 C154 1.387 . S
C153 C157 1.391 . S
C154 C153 1.387 . S
C154 C155 1.369 . S
C154 H163 0.929 . S
C155 N152 1.346 . S
C155 C154 1.369 . S
C155 H158 0.928 . S
C156 N152 1.345 . S
C156 C157 1.371 . S
C156 H159 0.931 . S
C157 C153 1.391 . S
C157 C156 1.371 . S
C157 H164 0.930 . S
H158 C155 0.928 . S
H159 C156 0.931 . S
H160 C136 0.930 . S
H161 C133 0.930 . S
H162 C142 0.930 . S
H163 C154 0.929 . S
H164 C157 0.930 . S
C165 C166 1.351 . S
C165 N168 1.368 . S
C165 H170 0.931 . S
C166 C165 1.351 . S
C166 N167 1.373 . S
C166 H194 0.930 . S
N167 C166 1.373 . S
N167 C169 1.340 . S
N168 C165 1.368 . S
N168 C169 1.321 . S
N168 Co171 2.135 . S
C169 N167 1.340 . S
C169 N168 1.321 . S
C169 H193 0.930 . S
H170 C165 0.931 . S
Co171 N168 2.135 . S
Co171 N174 2.121 . S
Co171 O179 2.055 . S
Co171 O182 2.039 . S
Co171 N185 2.140 . S
C172 O173 1.227 . S
C172 O182 1.265 . S
O173 C172 1.227 . S
N174 Co171 2.121 . S
N174 C176 1.375 . S
N174 C177 1.313 . S
C175 C176 1.338 . S
C175 N178 1.377 . S
C175 H195 0.930 . S
C176 N174 1.375 . S
C176 C175 1.338 . S
C176 H180 0.931 . S
C177 N174 1.313 . S
C177 N178 1.344 . S
C177 H181 0.930 . S
N178 C175 1.377 . S
N178 C177 1.344 . S
O179 Co171 2.055 . S
O179 C183 1.253 . S
H180 C176 0.931 . S
H181 C177 0.930 . S
O182 Co171 2.039 . S
O182 C172 1.265 . S
C183 O179 1.253 . S
C183 O184 1.227 . S
O184 C183 1.227 . S
N185 Co171 2.140 . S
N185 C188 1.346 . S
N185 C189 1.345 . S
C186 C187 1.387 . S
C186 C190 1.391 . S
C187 C186 1.387 . S
C187 C188 1.369 . S
C187 H196 0.929 . S
C188 N185 1.346 . S
C188 C187 1.369 . S
C188 H191 0.928 . S
C189 N185 1.345 . S
C189 C190 1.371 . S
C189 H192 0.931 . S
C190 C186 1.391 . S
C190 C189 1.371 . S
C190 H197 0.930 . S
H191 C188 0.928 . S
H192 C189 0.931 . S
H193 C169 0.930 . S
H194 C166 0.930 . S
H195 C175 0.930 . S
H196 C187 0.929 . S
H197 C190 0.930 . S
C198 C199 1.351 . S
C198 N201 1.368 . S
C198 H203 0.931 . S
C199 C198 1.351 . S
C199 N200 1.373 . S
C199 H227 0.930 . S
N200 C199 1.373 . S
N200 C202 1.340 . S
N201 C198 1.368 . S
N201 C202 1.321 . S
N201 Co204 2.135 . S
C202 N200 1.340 . S
C202 N201 1.321 . S
C202 H226 0.930 . S
H203 C198 0.931 . S
Co204 N201 2.135 . S
Co204 N207 2.121 1_554 S
Co204 O212 2.055 . S
Co204 O215 2.039 1_554 S
Co204 N218 2.140 . S
C205 O206 1.227 . S
C205 O215 1.265 . S
O206 C205 1.227 . S
N207 Co204 2.121 1_556 S
N207 C209 1.375 . S
N207 C210 1.313 . S
C208 C209 1.338 . S
C208 N211 1.377 . S
C208 H228 0.930 . S
C209 N207 1.375 . S
C209 C208 1.338 . S
C209 H213 0.931 . S
C210 N207 1.313 . S
C210 N211 1.344 . S
C210 H214 0.930 . S
N211 C208 1.377 . S
N211 C210 1.344 . S
O212 Co204 2.055 . S
O212 C216 1.253 . S
H213 C209 0.931 . S
H214 C210 0.930 . S
O215 Co204 2.039 1_556 S
O215 C205 1.265 . S
C216 O212 1.253 . S
C216 O217 1.227 . S
O217 C216 1.227 . S
N218 Co204 2.140 . S
N218 C221 1.346 . S
N218 C222 1.345 . S
C219 C220 1.387 . S
C219 C223 1.391 . S
C220 C219 1.387 . S
C220 C221 1.369 . S
C220 H229 0.929 . S
C221 N218 1.346 . S
C221 C220 1.369 . S
C221 H224 0.928 . S
C222 N218 1.345 . S
C222 C223 1.371 . S
C222 H225 0.931 . S
C223 C219 1.391 . S
C223 C222 1.371 . S
C223 H230 0.930 . S
H224 C221 0.928 . S
H225 C222 0.931 . S
H226 C202 0.930 . S
H227 C199 0.930 . S
H228 C208 0.930 . S
H229 C220 0.929 . S
H230 C223 0.930 . S
C231 C232 1.351 . S
C231 N234 1.368 . S
C231 H236 0.931 . S
C232 C231 1.351 . S
C232 N233 1.373 . S
C232 H260 0.930 . S
N233 C232 1.373 . S
N233 C235 1.340 . S
N234 C231 1.368 . S
N234 C235 1.321 . S
N234 Co237 2.135 . S
C235 N233 1.340 . S
C235 N234 1.321 . S
C235 H259 0.930 . S
H236 C231 0.931 . S
Co237 N234 2.135 . S
Co237 N240 2.121 1_554 S
Co237 O245 2.055 . S
Co237 O248 2.039 1_554 S
Co237 N251 2.140 . S
C238 O239 1.227 . S
C238 O248 1.265 . S
O239 C238 1.227 . S
N240 Co237 2.121 1_556 S
N240 C242 1.375 . S
N240 C243 1.313 . S
C241 C242 1.338 . S
C241 N244 1.377 . S
C241 H261 0.930 . S
C242 N240 1.375 . S
C242 C241 1.338 . S
C242 H246 0.931 . S
C243 N240 1.313 . S
C243 N244 1.344 . S
C243 H247 0.930 . S
N244 C241 1.377 . S
N244 C243 1.344 . S
O245 Co237 2.055 . S
O245 C249 1.253 . S
H246 C242 0.931 . S
H247 C243 0.930 . S
O248 Co237 2.039 1_556 S
O248 C238 1.265 . S
C249 O245 1.253 . S
C249 O250 1.227 . S
O250 C249 1.227 . S
N251 Co237 2.140 . S
N251 C254 1.346 . S
N251 C255 1.345 . S
C252 C253 1.387 . S
C252 C256 1.391 . S
C253 C252 1.387 . S
C253 C254 1.369 . S
C253 H262 0.929 . S
C254 N251 1.346 . S
C254 C253 1.369 . S
C254 H257 0.928 . S
C255 N251 1.345 . S
C255 C256 1.371 . S
C255 H258 0.931 . S
C256 C252 1.391 . S
C256 C255 1.371 . S
C256 H263 0.930 . S
H257 C254 0.928 . S
H258 C255 0.931 . S
H259 C235 0.930 . S
H260 C232 0.930 . S
H261 C241 0.930 . S
H262 C253 0.929 . S
H263 C256 0.930 . S
C264 C265 1.351 . S
C264 N267 1.368 . S
C264 H269 0.931 . S
C265 C264 1.351 . S
C265 N266 1.373 . S
C265 H293 0.930 . S
N266 C265 1.373 . S
N266 C268 1.340 . S
N267 C264 1.368 . S
N267 C268 1.321 . S
N267 Co270 2.135 . S
C268 N266 1.340 . S
C268 N267 1.321 . S
C268 H292 0.930 . S
H269 C264 0.931 . S
Co270 N267 2.135 . S
Co270 N273 2.121 1_554 S
Co270 O278 2.055 . S
Co270 O281 2.039 1_554 S
Co270 N284 2.140 . S
C271 O272 1.227 . S
C271 O281 1.265 . S
O272 C271 1.227 . S
N273 Co270 2.121 1_556 S
N273 C275 1.375 . S
N273 C276 1.313 . S
C274 C275 1.338 . S
C274 N277 1.377 . S
C274 H294 0.930 . S
C275 N273 1.375 . S
C275 C274 1.338 . S
C275 H279 0.931 . S
C276 N273 1.313 . S
C276 N277 1.344 . S
C276 H280 0.930 . S
N277 C274 1.377 . S
N277 C276 1.344 . S
O278 Co270 2.055 . S
O278 C282 1.253 . S
H279 C275 0.931 . S
H280 C276 0.930 . S
O281 Co270 2.039 1_556 S
O281 C271 1.265 . S
C282 O278 1.253 . S
C282 O283 1.227 . S
O283 C282 1.227 . S
N284 Co270 2.140 . S
N284 C287 1.346 . S
N284 C288 1.345 . S
C285 C286 1.387 . S
C285 C289 1.391 . S
C286 C285 1.387 . S
C286 C287 1.369 . S
C286 H295 0.929 . S
C287 N284 1.346 . S
C287 C286 1.369 . S
C287 H290 0.928 . S
C288 N284 1.345 . S
C288 C289 1.371 . S
C288 H291 0.931 . S
C289 C285 1.391 . S
C289 C288 1.371 . S
C289 H296 0.930 . S
H290 C287 0.928 . S
H291 C288 0.931 . S
H292 C268 0.930 . S
H293 C265 0.930 . S
H294 C274 0.930 . S
H295 C286 0.929 . S
H296 C289 0.930 . S
C297 C298 1.351 . S
C297 N300 1.368 . S
C297 H302 0.931 . S
C298 C297 1.351 . S
C298 N299 1.373 . S
C298 H326 0.930 . S
N299 C298 1.373 . S
N299 C301 1.340 . S
N300 C297 1.368 . S
N300 C301 1.321 . S
N300 Co303 2.135 . S
C301 N299 1.340 . S
C301 N300 1.321 . S
C301 H325 0.930 . S
H302 C297 0.931 . S
Co303 N300 2.135 . S
Co303 N306 2.121 . S
Co303 O311 2.055 . S
Co303 O314 2.039 . S
Co303 N317 2.140 . S
C304 O305 1.227 . S
C304 O314 1.265 . S
O305 C304 1.227 . S
N306 Co303 2.121 . S
N306 C308 1.375 . S
N306 C309 1.313 . S
C307 C308 1.338 . S
C307 N310 1.377 . S
C307 H327 0.930 . S
C308 N306 1.375 . S
C308 C307 1.338 . S
C308 H312 0.931 . S
C309 N306 1.313 . S
C309 N310 1.344 . S
C309 H313 0.930 . S
N310 C307 1.377 . S
N310 C309 1.344 . S
O311 Co303 2.055 . S
O311 C315 1.253 . S
H312 C308 0.931 . S
H313 C309 0.930 . S
O314 Co303 2.039 . S
O314 C304 1.265 . S
C315 O311 1.253 . S
C315 O316 1.227 . S
O316 C315 1.227 . S
N317 Co303 2.140 . S
N317 C320 1.346 . S
N317 C321 1.345 . S
C318 C319 1.387 . S
C318 C322 1.391 . S
C319 C318 1.387 . S
C319 C320 1.369 . S
C319 H328 0.929 . S
C320 N317 1.346 . S
C320 C319 1.369 . S
C320 H323 0.928 . S
C321 N317 1.345 . S
C321 C322 1.371 . S
C321 H324 0.931 . S
C322 C318 1.391 . S
C322 C321 1.371 . S
C322 H329 0.930 . S
H323 C320 0.928 . S
H324 C321 0.931 . S
H325 C301 0.930 . S
H326 C298 0.930 . S
H327 C307 0.930 . S
H328 C319 0.929 . S
H329 C322 0.930 . S
C330 C331 1.351 . S
C330 N333 1.368 . S
C330 H335 0.931 . S
C331 C330 1.351 . S
C331 N332 1.373 . S
C331 H359 0.930 . S
N332 C331 1.373 . S
N332 C334 1.340 . S
N333 C330 1.368 . S
N333 C334 1.321 . S
N333 Co336 2.135 . S
C334 N332 1.340 . S
C334 N333 1.321 . S
C334 H358 0.930 . S
H335 C330 0.931 . S
Co336 N333 2.135 . S
Co336 N339 2.121 . S
Co336 O344 2.055 . S
Co336 O347 2.039 . S
Co336 N350 2.140 . S
C337 O338 1.227 . S
C337 O347 1.265 . S
O338 C337 1.227 . S
N339 Co336 2.121 . S
N339 C341 1.375 . S
N339 C342 1.313 . S
C340 C341 1.338 . S
C340 N343 1.377 . S
C340 H360 0.930 . S
C341 N339 1.375 . S
C341 C340 1.338 . S
C341 H345 0.931 . S
C342 N339 1.313 . S
C342 N343 1.344 . S
C342 H346 0.930 . S
N343 C340 1.377 . S
N343 C342 1.344 . S
O344 Co336 2.055 . S
O344 C348 1.253 . S
H345 C341 0.931 . S
H346 C342 0.930 . S
O347 Co336 2.039 . S
O347 C337 1.265 . S
C348 O344 1.253 . S
C348 O349 1.227 . S
O349 C348 1.227 . S
N350 Co336 2.140 . S
N350 C353 1.346 . S
N350 C354 1.345 . S
C351 C352 1.387 . S
C351 C355 1.391 . S
C352 C351 1.387 . S
C352 C353 1.369 . S
C352 H361 0.929 . S
C353 N350 1.346 . S
C353 C352 1.369 . S
C353 H356 0.928 . S
C354 N350 1.345 . S
C354 C355 1.371 . S
C354 H357 0.931 . S
C355 C351 1.391 . S
C355 C354 1.371 . S
C355 H362 0.930 . S
H356 C353 0.928 . S
H357 C354 0.931 . S
H358 C334 0.930 . S
H359 C331 0.930 . S
H360 C340 0.930 . S
H361 C352 0.929 . S
H362 C355 0.930 . S
C363 C364 1.351 . S
C363 N366 1.368 . S
C363 H368 0.931 . S
C364 C363 1.351 . S
C364 N365 1.373 . S
C364 H392 0.930 . S
N365 C364 1.373 . S
N365 C367 1.340 . S
N366 C363 1.368 . S
N366 C367 1.321 . S
N366 Co369 2.135 . S
C367 N365 1.340 . S
C367 N366 1.321 . S
C367 H391 0.930 . S
H368 C363 0.931 . S
Co369 N366 2.135 . S
Co369 N372 2.121 . S
Co369 O377 2.055 . S
Co369 O380 2.039 . S
Co369 N383 2.140 . S
C370 O371 1.227 . S
C370 O380 1.265 . S
O371 C370 1.227 . S
N372 Co369 2.121 . S
N372 C374 1.375 . S
N372 C375 1.313 . S
C373 C374 1.338 . S
C373 N376 1.377 . S
C373 H393 0.930 . S
C374 N372 1.375 . S
C374 C373 1.338 . S
C374 H378 0.931 . S
C375 N372 1.313 . S
C375 N376 1.344 . S
C375 H379 0.930 . S
N376 C373 1.377 . S
N376 C375 1.344 . S
O377 Co369 2.055 . S
O377 C381 1.253 . S
H378 C374 0.931 . S
H379 C375 0.930 . S
O380 Co369 2.039 . S
O380 C370 1.265 . S
C381 O377 1.253 . S
C381 O382 1.227 . S
O382 C381 1.227 . S
N383 Co369 2.140 . S
N383 C386 1.346 . S
N383 C387 1.345 . S
C384 C385 1.387 . S
C384 C388 1.391 . S
C385 C384 1.387 . S
C385 C386 1.369 . S
C385 H394 0.929 . S
C386 N383 1.346 . S
C386 C385 1.369 . S
C386 H389 0.928 . S
C387 N383 1.345 . S
C387 C388 1.371 . S
C387 H390 0.931 . S
C388 C384 1.391 . S
C388 C387 1.371 . S
C388 H395 0.930 . S
H389 C386 0.928 . S
H390 C387 0.931 . S
H391 C367 0.930 . S
H392 C364 0.930 . S
H393 C373 0.930 . S
H394 C385 0.929 . S
H395 C388 0.930 . S
C396 C397 1.351 . S
C396 N399 1.368 . S
C396 H401 0.931 . S
C397 C396 1.351 . S
C397 N398 1.373 . S
C397 H425 0.930 . S
N398 C397 1.373 . S
N398 C400 1.340 . S
N399 C396 1.368 . S
N399 C400 1.321 . S
N399 Co402 2.135 . S
C400 N398 1.340 . S
C400 N399 1.321 . S
C400 H424 0.930 . S
H401 C396 0.931 . S
Co402 N399 2.135 . S
Co402 N405 2.121 . S
Co402 O410 2.055 . S
Co402 O413 2.039 . S
Co402 N416 2.140 . S
C403 O404 1.227 . S
C403 O413 1.265 . S
O404 C403 1.227 . S
N405 Co402 2.121 . S
N405 C407 1.375 . S
N405 C408 1.313 . S
C406 C407 1.338 . S
C406 N409 1.377 . S
C406 H426 0.930 . S
C407 N405 1.375 . S
C407 C406 1.338 . S
C407 H411 0.931 . S
C408 N405 1.313 . S
C408 N409 1.344 . S
C408 H412 0.930 . S
N409 C406 1.377 . S
N409 C408 1.344 . S
O410 Co402 2.055 . S
O410 C414 1.253 . S
H411 C407 0.931 . S
H412 C408 0.930 . S
O413 Co402 2.039 . S
O413 C403 1.265 . S
C414 O410 1.253 . S
C414 O415 1.227 . S
O415 C414 1.227 . S
N416 Co402 2.140 . S
N416 C419 1.346 . S
N416 C420 1.345 . S
C417 C418 1.387 . S
C417 C421 1.391 . S
C418 C417 1.387 . S
C418 C419 1.369 . S
C418 H427 0.929 . S
C419 N416 1.346 . S
C419 C418 1.369 . S
C419 H422 0.928 . S
C420 N416 1.345 . S
C420 C421 1.371 . S
C420 H423 0.931 . S
C421 C417 1.391 . S
C421 C420 1.371 . S
C421 H428 0.930 . S
H422 C419 0.928 . S
H423 C420 0.931 . S
H424 C400 0.930 . S
H425 C397 0.930 . S
H426 C406 0.930 . S
H427 C418 0.929 . S
H428 C421 0.930 . S
C429 C430 1.351 . S
C429 N432 1.368 . S
C429 H434 0.931 . S
C430 C429 1.351 . S
C430 N431 1.373 . S
C430 H458 0.930 . S
N431 C430 1.373 . S
N431 C433 1.340 . S
N432 C429 1.368 . S
N432 C433 1.321 . S
N432 Co435 2.135 . S
C433 N431 1.340 . S
C433 N432 1.321 . S
C433 H457 0.930 . S
H434 C429 0.931 . S
Co435 N432 2.135 . S
Co435 N438 2.121 . S
Co435 O443 2.055 . S
Co435 O446 2.039 . S
Co435 N449 2.140 . S
C436 O437 1.227 . S
C436 O446 1.265 . S
O437 C436 1.227 . S
N438 Co435 2.121 . S
N438 C440 1.375 . S
N438 C441 1.313 . S
C439 C440 1.338 . S
C439 N442 1.377 . S
C439 H459 0.930 . S
C440 N438 1.375 . S
C440 C439 1.338 . S
C440 H444 0.931 . S
C441 N438 1.313 . S
C441 N442 1.344 . S
C441 H445 0.930 . S
N442 C439 1.377 . S
N442 C441 1.344 . S
O443 Co435 2.055 . S
O443 C447 1.253 . S
H444 C440 0.931 . S
H445 C441 0.930 . S
O446 Co435 2.039 . S
O446 C436 1.265 . S
C447 O443 1.253 . S
C447 O448 1.227 . S
O448 C447 1.227 . S
N449 Co435 2.140 . S
N449 C452 1.346 . S
N449 C453 1.345 . S
C450 C451 1.387 . S
C450 C454 1.391 . S
C451 C450 1.387 . S
C451 C452 1.369 . S
C451 H460 0.929 . S
C452 N449 1.346 . S
C452 C451 1.369 . S
C452 H455 0.928 . S
C453 N449 1.345 . S
C453 C454 1.371 . S
C453 H456 0.931 . S
C454 C450 1.391 . S
C454 C453 1.371 . S
C454 H461 0.930 . S
H455 C452 0.928 . S
H456 C453 0.931 . S
H457 C433 0.930 . S
H458 C430 0.930 . S
H459 C439 0.930 . S
H460 C451 0.929 . S
H461 C454 0.930 . S
C462 C463 1.351 . S
C462 N465 1.368 . S
C462 H467 0.931 . S
C463 C462 1.351 . S
C463 N464 1.373 . S
C463 H491 0.930 . S
N464 C463 1.373 . S
N464 C466 1.340 . S
N465 C462 1.368 . S
N465 C466 1.321 . S
N465 Co468 2.135 . S
C466 N464 1.340 . S
C466 N465 1.321 . S
C466 H490 0.930 . S
H467 C462 0.931 . S
Co468 N465 2.135 . S
Co468 N471 2.121 . S
Co468 O476 2.055 . S
Co468 O479 2.039 . S
Co468 N482 2.140 . S
C469 O470 1.227 . S
C469 O479 1.265 . S
O470 C469 1.227 . S
N471 Co468 2.121 . S
N471 C473 1.375 . S
N471 C474 1.313 . S
C472 C473 1.338 . S
C472 N475 1.377 . S
C472 H492 0.930 . S
C473 N471 1.375 . S
C473 C472 1.338 . S
C473 H477 0.931 . S
C474 N471 1.313 . S
C474 N475 1.344 . S
C474 H478 0.930 . S
N475 C472 1.377 . S
N475 C474 1.344 . S
O476 Co468 2.055 . S
O476 C480 1.253 . S
H477 C473 0.931 . S
H478 C474 0.930 . S
O479 Co468 2.039 . S
O479 C469 1.265 . S
C480 O476 1.253 . S
C480 O481 1.227 . S
O481 C480 1.227 . S
N482 Co468 2.140 . S
N482 C485 1.346 . S
N482 C486 1.345 . S
C483 C484 1.387 . S
C483 C487 1.391 . S
C484 C483 1.387 . S
C484 C485 1.369 . S
C484 H493 0.929 . S
C485 N482 1.346 . S
C485 C484 1.369 . S
C485 H488 0.928 . S
C486 N482 1.345 . S
C486 C487 1.371 . S
C486 H489 0.931 . S
C487 C483 1.391 . S
C487 C486 1.371 . S
C487 H494 0.930 . S
H488 C485 0.928 . S
H489 C486 0.931 . S
H490 C466 0.930 . S
H491 C463 0.930 . S
H492 C472 0.930 . S
H493 C484 0.929 . S
H494 C487 0.930 . S
C495 C496 1.351 . S
C495 N498 1.368 . S
C495 H500 0.931 . S
C496 C495 1.351 . S
C496 N497 1.373 . S
C496 H524 0.930 . S
N497 C496 1.373 . S
N497 C499 1.340 . S
N498 C495 1.368 . S
N498 C499 1.321 . S
N498 Co501 2.135 . S
C499 N497 1.340 . S
C499 N498 1.321 . S
C499 H523 0.930 . S
H500 C495 0.931 . S
Co501 N498 2.135 . S
Co501 N504 2.121 . S
Co501 O509 2.055 . S
Co501 O512 2.039 . S
Co501 N515 2.140 . S
C502 O503 1.227 . S
C502 O512 1.265 . S
O503 C502 1.227 . S
N504 Co501 2.121 . S
N504 C506 1.375 1_556 S
N504 C507 1.313 . S
C505 C506 1.338 . S
C505 N508 1.377 . S
C505 H525 0.930 . S
C506 N504 1.375 1_554 S
C506 C505 1.338 . S
C506 H510 0.931 . S
C507 N504 1.313 . S
C507 N508 1.344 1_556 S
C507 H511 0.930 . S
N508 C505 1.377 . S
N508 C507 1.344 1_554 S
O509 Co501 2.055 . S
O509 C513 1.253 . S
H510 C506 0.931 . S
H511 C507 0.930 . S
O512 Co501 2.039 . S
O512 C502 1.265 . S
C513 O509 1.253 . S
C513 O514 1.227 . S
O514 C513 1.227 . S
N515 Co501 2.140 . S
N515 C518 1.346 . S
N515 C519 1.345 . S
C516 C517 1.387 . S
C516 C520 1.391 . S
C517 C516 1.387 . S
C517 C518 1.369 . S
C517 H526 0.929 . S
C518 N515 1.346 . S
C518 C517 1.369 . S
C518 H521 0.928 . S
C519 N515 1.345 . S
C519 C520 1.371 . S
C519 H522 0.931 . S
C520 C516 1.391 . S
C520 C519 1.371 . S
C520 H527 0.930 . S
H521 C518 0.928 . S
H522 C519 0.931 . S
H523 C499 0.930 . S
H524 C496 0.930 . S
H525 C505 0.930 . S
H526 C517 0.929 . S
H527 C520 0.930 . S
C528 C529 1.351 . S
C528 N531 1.368 . S
C528 H533 0.931 . S
C529 C528 1.351 . S
C529 N530 1.373 . S
C529 H557 0.930 . S
N530 C529 1.373 . S
N530 C532 1.340 . S
N531 C528 1.368 . S
N531 C532 1.321 . S
N531 Co534 2.135 . S
C532 N530 1.340 . S
C532 N531 1.321 . S
C532 H556 0.930 . S
H533 C528 0.931 . S
Co534 N531 2.135 . S
Co534 N537 2.121 . S
Co534 O542 2.055 . S
Co534 O545 2.039 . S
Co534 N548 2.140 . S
C535 O536 1.227 . S
C535 O545 1.265 . S
O536 C535 1.227 . S
N537 Co534 2.121 . S
N537 C539 1.375 1_556 S
N537 C540 1.313 . S
C538 C539 1.338 . S
C538 N541 1.377 . S
C538 H558 0.930 . S
C539 N537 1.375 1_554 S
C539 C538 1.338 . S
C539 H543 0.931 . S
C540 N537 1.313 . S
C540 N541 1.344 1_556 S
C540 H544 0.930 . S
N541 C538 1.377 . S
N541 C540 1.344 1_554 S
O542 Co534 2.055 . S
O542 C546 1.253 . S
H543 C539 0.931 . S
H544 C540 0.930 . S
O545 Co534 2.039 . S
O545 C535 1.265 . S
C546 O542 1.253 . S
C546 O547 1.227 . S
O547 C546 1.227 . S
N548 Co534 2.140 . S
N548 C551 1.346 . S
N548 C552 1.345 . S
C549 C550 1.387 . S
C549 C553 1.391 . S
C550 C549 1.387 . S
C550 C551 1.369 . S
C550 H559 0.929 . S
C551 N548 1.346 . S
C551 C550 1.369 . S
C551 H554 0.928 . S
C552 N548 1.345 . S
C552 C553 1.371 . S
C552 H555 0.931 . S
C553 C549 1.391 . S
C553 C552 1.371 . S
C553 H560 0.930 . S
H554 C551 0.928 . S
H555 C552 0.931 . S
H556 C532 0.930 . S
H557 C529 0.930 . S
H558 C538 0.930 . S
H559 C550 0.929 . S
H560 C553 0.930 . S
C561 C562 1.351 . S
C561 N564 1.368 . S
C561 H566 0.931 . S
C562 C561 1.351 . S
C562 N563 1.373 . S
C562 H590 0.930 . S
N563 C562 1.373 . S
N563 C565 1.340 . S
N564 C561 1.368 . S
N564 C565 1.321 . S
N564 Co567 2.135 . S
C565 N563 1.340 . S
C565 N564 1.321 . S
C565 H589 0.930 . S
H566 C561 0.931 . S
Co567 N564 2.135 . S
Co567 N570 2.121 . S
Co567 O575 2.055 . S
Co567 O578 2.039 . S
Co567 N581 2.140 . S
C568 O569 1.227 . S
C568 O578 1.265 . S
O569 C568 1.227 . S
N570 Co567 2.121 . S
N570 C572 1.375 1_556 S
N570 C573 1.313 . S
C571 C572 1.338 . S
C571 N574 1.377 . S
C571 H591 0.930 . S
C572 N570 1.375 1_554 S
C572 C571 1.338 . S
C572 H576 0.931 . S
C573 N570 1.313 . S
C573 N574 1.344 1_556 S
C573 H577 0.930 . S
N574 C571 1.377 . S
N574 C573 1.344 1_554 S
O575 Co567 2.055 . S
O575 C579 1.253 . S
H576 C572 0.931 . S
H577 C573 0.930 . S
O578 Co567 2.039 . S
O578 C568 1.265 . S
C579 O575 1.253 . S
C579 O580 1.227 . S
O580 C579 1.227 . S
N581 Co567 2.140 . S
N581 C584 1.346 . S
N581 C585 1.345 . S
C582 C583 1.387 . S
C582 C586 1.391 . S
C583 C582 1.387 . S
C583 C584 1.369 . S
C583 H592 0.929 . S
C584 N581 1.346 . S
C584 C583 1.369 . S
C584 H587 0.928 . S
C585 N581 1.345 . S
C585 C586 1.371 . S
C585 H588 0.931 . S
C586 C582 1.391 . S
C586 C585 1.371 . S
C586 H593 0.930 . S
H587 C584 0.928 . S
H588 C585 0.931 . S
H589 C565 0.930 . S
H590 C562 0.930 . S
H591 C571 0.930 . S
H592 C583 0.929 . S
H593 C586 0.930 . S
C594 C595 1.351 . S
C594 N597 1.368 . S
C594 H599 0.931 . S
C595 C594 1.351 . S
C595 N596 1.373 . S
C595 H623 0.930 . S
N596 C595 1.373 . S
N596 C598 1.340 . S
N597 C594 1.368 . S
N597 C598 1.321 . S
N597 Co600 2.135 . S
C598 N596 1.340 . S
C598 N597 1.321 . S
C598 H622 0.930 . S
H599 C594 0.931 . S
Co600 N597 2.135 . S
Co600 N603 2.121 . S
Co600 O608 2.055 . S
Co600 O611 2.039 . S
Co600 N614 2.140 . S
C601 O602 1.227 . S
C601 O611 1.265 . S
O602 C601 1.227 . S
N603 Co600 2.121 . S
N603 C605 1.375 . S
N603 C606 1.313 . S
C604 C605 1.338 . S
C604 N607 1.377 . S
C604 H624 0.930 . S
C605 N603 1.375 . S
C605 C604 1.338 . S
C605 H609 0.931 . S
C606 N603 1.313 . S
C606 N607 1.344 . S
C606 H610 0.930 . S
N607 C604 1.377 . S
N607 C606 1.344 . S
O608 Co600 2.055 . S
O608 C612 1.253 . S
H609 C605 0.931 . S
H610 C606 0.930 . S
O611 Co600 2.039 . S
O611 C601 1.265 . S
C612 O608 1.253 . S
C612 O613 1.227 . S
O613 C612 1.227 . S
N614 Co600 2.140 . S
N614 C617 1.346 . S
N614 C618 1.345 . S
C615 C616 1.387 . S
C615 C619 1.391 . S
C616 C615 1.387 . S
C616 C617 1.369 . S
C616 H625 0.929 . S
C617 N614 1.346 . S
C617 C616 1.369 . S
C617 H620 0.928 . S
C618 N614 1.345 . S
C618 C619 1.371 . S
C618 H621 0.931 . S
C619 C615 1.391 . S
C619 C618 1.371 . S
C619 H626 0.930 . S
H620 C617 0.928 . S
H621 C618 0.931 . S
H622 C598 0.930 . S
H623 C595 0.930 . S
H624 C604 0.930 . S
H625 C616 0.929 . S
H626 C619 0.930 . S
C627 C628 1.351 . S
C627 N630 1.368 . S
C627 H632 0.931 . S
C628 C627 1.351 . S
C628 N629 1.373 . S
C628 H656 0.930 . S
N629 C628 1.373 . S
N629 C631 1.340 . S
N630 C627 1.368 . S
N630 C631 1.321 . S
N630 Co633 2.135 . S
C631 N629 1.340 . S
C631 N630 1.321 . S
C631 H655 0.930 . S
H632 C627 0.931 . S
Co633 N630 2.135 . S
Co633 N636 2.121 . S
Co633 O641 2.055 . S
Co633 O644 2.039 . S
Co633 N647 2.140 . S
C634 O635 1.227 . S
C634 O644 1.265 . S
O635 C634 1.227 . S
N636 Co633 2.121 . S
N636 C638 1.375 . S
N636 C639 1.313 . S
C637 C638 1.338 . S
C637 N640 1.377 . S
C637 H657 0.930 . S
C638 N636 1.375 . S
C638 C637 1.338 . S
C638 H642 0.931 . S
C639 N636 1.313 . S
C639 N640 1.344 . S
C639 H643 0.930 . S
N640 C637 1.377 . S
N640 C639 1.344 . S
O641 Co633 2.055 . S
O641 C645 1.253 . S
H642 C638 0.931 . S
H643 C639 0.930 . S
O644 Co633 2.039 . S
O644 C634 1.265 . S
C645 O641 1.253 . S
C645 O646 1.227 . S
O646 C645 1.227 . S
N647 Co633 2.140 . S
N647 C650 1.346 . S
N647 C651 1.345 . S
C648 C649 1.387 . S
C648 C652 1.391 . S
C649 C648 1.387 . S
C649 C650 1.369 . S
C649 H658 0.929 . S
C650 N647 1.346 . S
C650 C649 1.369 . S
C650 H653 0.928 . S
C651 N647 1.345 . S
C651 C652 1.371 . S
C651 H654 0.931 . S
C652 C648 1.391 . S
C652 C651 1.371 . S
C652 H659 0.930 . S
H653 C650 0.928 . S
H654 C651 0.931 . S
H655 C631 0.930 . S
H656 C628 0.930 . S
H657 C637 0.930 . S
H658 C649 0.929 . S
H659 C652 0.930 . S
C660 C661 1.351 . S
C660 N663 1.368 . S
C660 H665 0.931 . S
C661 C660 1.351 . S
C661 N662 1.373 . S
C661 H689 0.930 . S
N662 C661 1.373 . S
N662 C664 1.340 . S
N663 C660 1.368 . S
N663 C664 1.321 . S
N663 Co666 2.135 . S
C664 N662 1.340 . S
C664 N663 1.321 . S
C664 H688 0.930 . S
H665 C660 0.931 . S
Co666 N663 2.135 . S
Co666 N669 2.121 . S
Co666 O674 2.055 . S
Co666 O677 2.039 . S
Co666 N680 2.140 . S
C667 O668 1.227 . S
C667 O677 1.265 . S
O668 C667 1.227 . S
N669 Co666 2.121 . S
N669 C671 1.375 . S
N669 C672 1.313 . S
C670 C671 1.338 . S
C670 N673 1.377 . S
C670 H690 0.930 . S
C671 N669 1.375 . S
C671 C670 1.338 . S
C671 H675 0.931 . S
C672 N669 1.313 . S
C672 N673 1.344 . S
C672 H676 0.930 . S
N673 C670 1.377 . S
N673 C672 1.344 . S
O674 Co666 2.055 . S
O674 C678 1.253 . S
H675 C671 0.931 . S
H676 C672 0.930 . S
O677 Co666 2.039 . S
O677 C667 1.265 . S
C678 O674 1.253 . S
C678 O679 1.227 . S
O679 C678 1.227 . S
N680 Co666 2.140 . S
N680 C683 1.346 . S
N680 C684 1.345 . S
C681 C682 1.387 . S
C681 C685 1.391 . S
C682 C681 1.387 . S
C682 C683 1.369 . S
C682 H691 0.929 . S
C683 N680 1.346 . S
C683 C682 1.369 . S
C683 H686 0.928 . S
C684 N680 1.345 . S
C684 C685 1.371 . S
C684 H687 0.931 . S
C685 C681 1.391 . S
C685 C684 1.371 . S
C685 H692 0.930 . S
H686 C683 0.928 . S
H687 C684 0.931 . S
H688 C664 0.930 . S
H689 C661 0.930 . S
H690 C670 0.930 . S
H691 C682 0.929 . S
H692 C685 0.930 . S
C693 C694 1.351 . S
C693 N696 1.368 . S
C693 H698 0.931 . S
C694 C693 1.351 . S
C694 N695 1.373 . S
C694 H722 0.930 . S
N695 C694 1.373 . S
N695 C697 1.340 . S
N696 C693 1.368 . S
N696 C697 1.321 . S
N696 Co699 2.135 . S
C697 N695 1.340 . S
C697 N696 1.321 . S
C697 H721 0.930 . S
H698 C693 0.931 . S
Co699 N696 2.135 . S
Co699 N702 2.121 . S
Co699 O707 2.055 . S
Co699 O710 2.039 . S
Co699 N713 2.140 . S
C700 O701 1.227 . S
C700 O710 1.265 . S
O701 C700 1.227 . S
N702 Co699 2.121 . S
N702 C704 1.375 . S
N702 C705 1.313 . S
C703 C704 1.338 1_554 S
C703 N706 1.377 1_554 S
C703 H723 0.930 . S
C704 N702 1.375 . S
C704 C703 1.338 1_556 S
C704 H708 0.931 . S
C705 N702 1.313 . S
C705 N706 1.344 . S
C705 H709 0.930 . S
N706 C703 1.377 1_556 S
N706 C705 1.344 . S
O707 Co699 2.055 . S
O707 C711 1.253 . S
H708 C704 0.931 . S
H709 C705 0.930 . S
O710 Co699 2.039 . S
O710 C700 1.265 . S
C711 O707 1.253 . S
C711 O712 1.227 . S
O712 C711 1.227 . S
N713 Co699 2.140 . S
N713 C716 1.346 . S
N713 C717 1.345 . S
C714 C715 1.387 . S
C714 C718 1.391 . S
C715 C714 1.387 . S
C715 C716 1.369 . S
C715 H724 0.929 . S
C716 N713 1.346 . S
C716 C715 1.369 . S
C716 H719 0.928 . S
C717 N713 1.345 . S
C717 C718 1.371 . S
C717 H720 0.931 . S
C718 C714 1.391 . S
C718 C717 1.371 . S
C718 H725 0.930 . S
H719 C716 0.928 . S
H720 C717 0.931 . S
H721 C697 0.930 . S
H722 C694 0.930 . S
H723 C703 0.930 . S
H724 C715 0.929 . S
H725 C718 0.930 . S
C726 C727 1.351 . S
C726 N729 1.368 . S
C726 H731 0.931 . S
C727 C726 1.351 . S
C727 N728 1.373 . S
C727 H755 0.930 . S
N728 C727 1.373 . S
N728 C730 1.340 . S
N729 C726 1.368 . S
N729 C730 1.321 . S
N729 Co732 2.135 . S
C730 N728 1.340 . S
C730 N729 1.321 . S
C730 H754 0.930 . S
H731 C726 0.931 . S
Co732 N729 2.135 . S
Co732 N735 2.121 . S
Co732 O740 2.055 . S
Co732 O743 2.039 . S
Co732 N746 2.140 . S
C733 O734 1.227 . S
C733 O743 1.265 . S
O734 C733 1.227 . S
N735 Co732 2.121 . S
N735 C737 1.375 . S
N735 C738 1.313 . S
C736 C737 1.338 1_554 S
C736 N739 1.377 1_554 S
C736 H756 0.930 . S
C737 N735 1.375 . S
C737 C736 1.338 1_556 S
C737 H741 0.931 . S
C738 N735 1.313 . S
C738 N739 1.344 . S
C738 H742 0.930 . S
N739 C736 1.377 1_556 S
N739 C738 1.344 . S
O740 Co732 2.055 . S
O740 C744 1.253 . S
H741 C737 0.931 . S
H742 C738 0.930 . S
O743 Co732 2.039 . S
O743 C733 1.265 . S
C744 O740 1.253 . S
C744 O745 1.227 . S
O745 C744 1.227 . S
N746 Co732 2.140 . S
N746 C749 1.346 . S
N746 C750 1.345 . S
C747 C748 1.387 . S
C747 C751 1.391 . S
C748 C747 1.387 . S
C748 C749 1.369 . S
C748 H757 0.929 . S
C749 N746 1.346 . S
C749 C748 1.369 . S
C749 H752 0.928 . S
C750 N746 1.345 . S
C750 C751 1.371 . S
C750 H753 0.931 . S
C751 C747 1.391 . S
C751 C750 1.371 . S
C751 H758 0.930 . S
H752 C749 0.928 . S
H753 C750 0.931 . S
H754 C730 0.930 . S
H755 C727 0.930 . S
H756 C736 0.930 . S
H757 C748 0.929 . S
H758 C751 0.930 . S
C759 C760 1.351 . S
C759 N762 1.368 . S
C759 H764 0.931 . S
C760 C759 1.351 . S
C760 N761 1.373 . S
C760 H788 0.930 . S
N761 C760 1.373 . S
N761 C763 1.340 . S
N762 C759 1.368 . S
N762 C763 1.321 . S
N762 Co765 2.135 . S
C763 N761 1.340 . S
C763 N762 1.321 . S
C763 H787 0.930 . S
H764 C759 0.931 . S
Co765 N762 2.135 . S
Co765 N768 2.121 . S
Co765 O773 2.055 . S
Co765 O776 2.039 . S
Co765 N779 2.140 . S
C766 O767 1.227 . S
C766 O776 1.265 . S
O767 C766 1.227 . S
N768 Co765 2.121 . S
N768 C770 1.375 . S
N768 C771 1.313 . S
C769 C770 1.338 1_554 S
C769 N772 1.377 1_554 S
C769 H789 0.930 . S
C770 N768 1.375 . S
C770 C769 1.338 1_556 S
C770 H774 0.931 . S
C771 N768 1.313 . S
C771 N772 1.344 . S
C771 H775 0.930 . S
N772 C769 1.377 1_556 S
N772 C771 1.344 . S
O773 Co765 2.055 . S
O773 C777 1.253 . S
H774 C770 0.931 . S
H775 C771 0.930 . S
O776 Co765 2.039 . S
O776 C766 1.265 . S
C777 O773 1.253 . S
C777 O778 1.227 . S
O778 C777 1.227 . S
N779 Co765 2.140 . S
N779 C782 1.346 . S
N779 C783 1.345 . S
C780 C781 1.387 . S
C780 C784 1.391 . S
C781 C780 1.387 . S
C781 C782 1.369 . S
C781 H790 0.929 . S
C782 N779 1.346 . S
C782 C781 1.369 . S
C782 H785 0.928 . S
C783 N779 1.345 . S
C783 C784 1.371 . S
C783 H786 0.931 . S
C784 C780 1.391 . S
C784 C783 1.371 . S
C784 H791 0.930 . S
H785 C782 0.928 . S
H786 C783 0.931 . S
H787 C763 0.930 . S
H788 C760 0.930 . S
H789 C769 0.930 . S
H790 C781 0.929 . S
H791 C784 0.930 . S
C792 C793 1.351 . S
C792 N795 1.368 . S
C792 H797 0.931 . S
C793 C792 1.351 . S
C793 N794 1.373 . S
C793 H821 0.930 . S
N794 C793 1.373 . S
N794 C796 1.340 . S
N795 C792 1.368 . S
N795 C796 1.321 . S
N795 Co798 2.135 . S
C796 N794 1.340 . S
C796 N795 1.321 . S
C796 H820 0.930 . S
H797 C792 0.931 . S
Co798 N795 2.135 . S
Co798 N801 2.121 . S
Co798 O806 2.055 . S
Co798 O809 2.039 . S
Co798 N812 2.140 . S
C799 O800 1.227 . S
C799 O809 1.265 . S
O800 C799 1.227 . S
N801 Co798 2.121 . S
N801 C803 1.375 . S
N801 C804 1.313 . S
C802 C803 1.338 . S
C802 N805 1.377 . S
C802 H822 0.930 . S
C803 N801 1.375 . S
C803 C802 1.338 . S
C803 H807 0.931 . S
C804 N801 1.313 . S
C804 N805 1.344 . S
C804 H808 0.930 . S
N805 C802 1.377 . S
N805 C804 1.344 . S
O806 Co798 2.055 . S
O806 C810 1.253 . S
H807 C803 0.931 . S
H808 C804 0.930 . S
O809 Co798 2.039 . S
O809 C799 1.265 . S
C810 O806 1.253 . S
C810 O811 1.227 . S
O811 C810 1.227 . S
N812 Co798 2.140 . S
N812 C815 1.346 . S
N812 C816 1.345 . S
C813 C814 1.387 . S
C813 C817 1.391 . S
C814 C813 1.387 . S
C814 C815 1.369 . S
C814 H823 0.929 . S
C815 N812 1.346 . S
C815 C814 1.369 . S
C815 H818 0.928 . S
C816 N812 1.345 . S
C816 C817 1.371 . S
C816 H819 0.931 . S
C817 C813 1.391 . S
C817 C816 1.371 . S
C817 H824 0.930 . S
H818 C815 0.928 . S
H819 C816 0.931 . S
H820 C796 0.930 . S
H821 C793 0.930 . S
H822 C802 0.930 . S
H823 C814 0.929 . S
H824 C817 0.930 . S
C825 C826 1.351 . S
C825 N828 1.368 . S
C825 H830 0.931 . S
C826 C825 1.351 . S
C826 N827 1.373 . S
C826 H854 0.930 . S
N827 C826 1.373 . S
N827 C829 1.340 . S
N828 C825 1.368 . S
N828 C829 1.321 . S
N828 Co831 2.135 . S
C829 N827 1.340 . S
C829 N828 1.321 . S
C829 H853 0.930 . S
H830 C825 0.931 . S
Co831 N828 2.135 . S
Co831 N834 2.121 . S
Co831 O839 2.055 . S
Co831 O842 2.039 . S
Co831 N845 2.140 . S
C832 O833 1.227 . S
C832 O842 1.265 . S
O833 C832 1.227 . S
N834 Co831 2.121 . S
N834 C836 1.375 . S
N834 C837 1.313 . S
C835 C836 1.338 . S
C835 N838 1.377 . S
C835 H855 0.930 . S
C836 N834 1.375 . S
C836 C835 1.338 . S
C836 H840 0.931 . S
C837 N834 1.313 . S
C837 N838 1.344 . S
C837 H841 0.930 . S
N838 C835 1.377 . S
N838 C837 1.344 . S
O839 Co831 2.055 . S
O839 C843 1.253 . S
H840 C836 0.931 . S
H841 C837 0.930 . S
O842 Co831 2.039 . S
O842 C832 1.265 . S
C843 O839 1.253 . S
C843 O844 1.227 . S
O844 C843 1.227 . S
N845 Co831 2.140 . S
N845 C848 1.346 . S
N845 C849 1.345 . S
C846 C847 1.387 . S
C846 C850 1.391 . S
C847 C846 1.387 . S
C847 C848 1.369 . S
C847 H856 0.929 . S
C848 N845 1.346 . S
C848 C847 1.369 . S
C848 H851 0.928 . S
C849 N845 1.345 . S
C849 C850 1.371 . S
C849 H852 0.931 . S
C850 C846 1.391 . S
C850 C849 1.371 . S
C850 H857 0.930 . S
H851 C848 0.928 . S
H852 C849 0.931 . S
H853 C829 0.930 . S
H854 C826 0.930 . S
H855 C835 0.930 . S
H856 C847 0.929 . S
H857 C850 0.930 . S
C858 C859 1.351 . S
C858 N861 1.368 . S
C858 H863 0.931 . S
C859 C858 1.351 . S
C859 N860 1.373 . S
C859 H887 0.930 . S
N860 C859 1.373 . S
N860 C862 1.340 . S
N861 C858 1.368 . S
N861 C862 1.321 . S
N861 Co864 2.135 . S
C862 N860 1.340 . S
C862 N861 1.321 . S
C862 H886 0.930 . S
H863 C858 0.931 . S
Co864 N861 2.135 . S
Co864 N867 2.121 . S
Co864 O872 2.055 . S
Co864 O875 2.039 . S
Co864 N878 2.140 . S
C865 O866 1.227 . S
C865 O875 1.265 . S
O866 C865 1.227 . S
N867 Co864 2.121 . S
N867 C869 1.375 . S
N867 C870 1.313 . S
C868 C869 1.338 . S
C868 N871 1.377 . S
C868 H888 0.930 . S
C869 N867 1.375 . S
C869 C868 1.338 . S
C869 H873 0.931 . S
C870 N867 1.313 . S
C870 N871 1.344 . S
C870 H874 0.930 . S
N871 C868 1.377 . S
N871 C870 1.344 . S
O872 Co864 2.055 . S
O872 C876 1.253 . S
H873 C869 0.931 . S
H874 C870 0.930 . S
O875 Co864 2.039 . S
O875 C865 1.265 . S
C876 O872 1.253 . S
C876 O877 1.227 . S
O877 C876 1.227 . S
N878 Co864 2.140 . S
N878 C881 1.346 . S
N878 C882 1.345 . S
C879 C880 1.387 . S
C879 C883 1.391 . S
C880 C879 1.387 . S
C880 C881 1.369 . S
C880 H889 0.929 . S
C881 N878 1.346 . S
C881 C880 1.369 . S
C881 H884 0.928 . S
C882 N878 1.345 . S
C882 C883 1.371 . S
C882 H885 0.931 . S
C883 C879 1.391 . S
C883 C882 1.371 . S
C883 H890 0.930 . S
H884 C881 0.928 . S
H885 C882 0.931 . S
H886 C862 0.930 . S
H887 C859 0.930 . S
H888 C868 0.930 . S
H889 C880 0.929 . S
H890 C883 0.930 . S
C891 C892 1.351 . S
C891 N894 1.368 . S
C891 H896 0.931 . S
C892 C891 1.351 . S
C892 N893 1.373 . S
C892 H920 0.930 1_554 S
N893 C892 1.373 . S
N893 C895 1.340 . S
N894 C891 1.368 . S
N894 C895 1.321 . S
N894 Co897 2.135 . S
C895 N893 1.340 . S
C895 N894 1.321 . S
C895 H919 0.930 . S
H896 C891 0.931 . S
Co897 N894 2.135 . S
Co897 N900 2.121 . S
Co897 O905 2.055 . S
Co897 O908 2.039 . S
Co897 N911 2.140 . S
C898 O899 1.227 . S
C898 O908 1.265 . S
O899 C898 1.227 . S
N900 Co897 2.121 . S
N900 C902 1.375 . S
N900 C903 1.313 . S
C901 C902 1.338 . S
C901 N904 1.377 . S
C901 H921 0.930 . S
C902 N900 1.375 . S
C902 C901 1.338 . S
C902 H906 0.931 . S
C903 N900 1.313 . S
C903 N904 1.344 . S
C903 H907 0.930 . S
N904 C901 1.377 . S
N904 C903 1.344 . S
O905 Co897 2.055 . S
O905 C909 1.253 . S
H906 C902 0.931 . S
H907 C903 0.930 . S
O908 Co897 2.039 . S
O908 C898 1.265 . S
C909 O905 1.253 . S
C909 O910 1.227 . S
O910 C909 1.227 . S
N911 Co897 2.140 . S
N911 C914 1.346 . S
N911 C915 1.345 . S
C912 C913 1.387 . S
C912 C916 1.391 . S
C913 C912 1.387 . S
C913 C914 1.369 . S
C913 H922 0.929 . S
C914 N911 1.346 . S
C914 C913 1.369 . S
C914 H917 0.928 . S
C915 N911 1.345 . S
C915 C916 1.371 . S
C915 H918 0.931 . S
C916 C912 1.391 . S
C916 C915 1.371 . S
C916 H923 0.930 . S
H917 C914 0.928 . S
H918 C915 0.931 . S
H919 C895 0.930 . S
H920 C892 0.930 1_556 S
H921 C901 0.930 . S
H922 C913 0.929 . S
H923 C916 0.930 . S
C924 C925 1.351 . S
C924 N927 1.368 . S
C924 H929 0.931 . S
C925 C924 1.351 . S
C925 N926 1.373 . S
C925 H953 0.930 1_554 S
N926 C925 1.373 . S
N926 C928 1.340 . S
N927 C924 1.368 . S
N927 C928 1.321 . S
N927 Co930 2.135 . S
C928 N926 1.340 . S
C928 N927 1.321 . S
C928 H952 0.930 . S
H929 C924 0.931 . S
Co930 N927 2.135 . S
Co930 N933 2.121 . S
Co930 O938 2.055 . S
Co930 O941 2.039 . S
Co930 N944 2.140 . S
C931 O932 1.227 . S
C931 O941 1.265 . S
O932 C931 1.227 . S
N933 Co930 2.121 . S
N933 C935 1.375 . S
N933 C936 1.313 . S
C934 C935 1.338 . S
C934 N937 1.377 . S
C934 H954 0.930 . S
C935 N933 1.375 . S
C935 C934 1.338 . S
C935 H939 0.931 . S
C936 N933 1.313 . S
C936 N937 1.344 . S
C936 H940 0.930 . S
N937 C934 1.377 . S
N937 C936 1.344 . S
O938 Co930 2.055 . S
O938 C942 1.253 . S
H939 C935 0.931 . S
H940 C936 0.930 . S
O941 Co930 2.039 . S
O941 C931 1.265 . S
C942 O938 1.253 . S
C942 O943 1.227 . S
O943 C942 1.227 . S
N944 Co930 2.140 . S
N944 C947 1.346 . S
N944 C948 1.345 . S
C945 C946 1.387 . S
C945 C949 1.391 . S
C946 C945 1.387 . S
C946 C947 1.369 . S
C946 H955 0.929 . S
C947 N944 1.346 . S
C947 C946 1.369 . S
C947 H950 0.928 . S
C948 N944 1.345 . S
C948 C949 1.371 . S
C948 H951 0.931 . S
C949 C945 1.391 . S
C949 C948 1.371 . S
C949 H956 0.930 . S
H950 C947 0.928 . S
H951 C948 0.931 . S
H952 C928 0.930 . S
H953 C925 0.930 1_556 S
H954 C934 0.930 . S
H955 C946 0.929 . S
H956 C949 0.930 . S
C957 C958 1.351 . S
C957 N960 1.368 . S
C957 H962 0.931 . S
C958 C957 1.351 . S
C958 N959 1.373 . S
C958 H986 0.930 1_554 S
N959 C958 1.373 . S
N959 C961 1.340 . S
N960 C957 1.368 . S
N960 C961 1.321 . S
N960 Co963 2.135 . S
C961 N959 1.340 . S
C961 N960 1.321 . S
C961 H985 0.930 . S
H962 C957 0.931 . S
Co963 N960 2.135 . S
Co963 N966 2.121 . S
Co963 O971 2.055 . S
Co963 O974 2.039 . S
Co963 N977 2.140 . S
C964 O965 1.227 . S
C964 O974 1.265 . S
O965 C964 1.227 . S
N966 Co963 2.121 . S
N966 C968 1.375 . S
N966 C969 1.313 . S
C967 C968 1.338 . S
C967 N970 1.377 . S
C967 H987 0.930 . S
C968 N966 1.375 . S
C968 C967 1.338 . S
C968 H972 0.931 . S
C969 N966 1.313 . S
C969 N970 1.344 . S
C969 H973 0.930 . S
N970 C967 1.377 . S
N970 C969 1.344 . S
O971 Co963 2.055 . S
O971 C975 1.253 . S
H972 C968 0.931 . S
H973 C969 0.930 . S
O974 Co963 2.039 . S
O974 C964 1.265 . S
C975 O971 1.253 . S
C975 O976 1.227 . S
O976 C975 1.227 . S
N977 Co963 2.140 . S
N977 C980 1.346 . S
N977 C981 1.345 . S
C978 C979 1.387 . S
C978 C982 1.391 . S
C979 C978 1.387 . S
C979 C980 1.369 . S
C979 H988 0.929 . S
C980 N977 1.346 . S
C980 C979 1.369 . S
C980 H983 0.928 . S
C981 N977 1.345 . S
C981 C982 1.371 . S
C981 H984 0.931 . S
C982 C978 1.391 . S
C982 C981 1.371 . S
C982 H989 0.930 . S
H983 C980 0.928 . S
H984 C981 0.931 . S
H985 C961 0.930 . S
H986 C958 0.930 1_556 S
H987 C967 0.930 . S
H988 C979 0.929 . S
H989 C982 0.930 . S
C990 C991 1.351 . S
C990 N993 1.368 . S
C990 H995 0.931 . S
C991 C990 1.351 . S
C991 N992 1.373 . S
C991 H1019 0.930 . S
N992 C991 1.373 . S
N992 C994 1.340 . S
N993 C990 1.368 . S
N993 C994 1.321 . S
N993 Co996 2.135 . S
C994 N992 1.340 . S
C994 N993 1.321 . S
C994 H1018 0.930 . S
H995 C990 0.931 . S
Co996 N993 2.135 . S
Co996 N999 2.121 . S
Co996 O1004 2.055 . S
Co996 O1007 2.039 . S
Co996 N1010 2.140 . S
C997 O998 1.227 . S
C997 O1007 1.265 . S
O998 C997 1.227 . S
N999 Co996 2.121 . S
N999 C1001 1.375 . S
N999 C1002 1.313 . S
C1000 C1001 1.338 . S
C1000 N1003 1.377 . S
C1000 H1020 0.930 . S
C1001 N999 1.375 . S
C1001 C1000 1.338 . S
C1001 H1005 0.931 . S
C1002 N999 1.313 . S
C1002 N1003 1.344 . S
C1002 H1006 0.930 . S
N1003 C1000 1.377 . S
N1003 C1002 1.344 . S
O1004 Co996 2.055 . S
O1004 C1008 1.253 . S
H1005 C1001 0.931 . S
H1006 C1002 0.930 . S
O1007 Co996 2.039 . S
O1007 C997 1.265 . S
C1008 O1004 1.253 . S
C1008 O1009 1.227 . S
O1009 C1008 1.227 . S
N1010 Co996 2.140 . S
N1010 C1013 1.346 . S
N1010 C1014 1.345 . S
C1011 C1012 1.387 . S
C1011 C1015 1.391 . S
C1012 C1011 1.387 . S
C1012 C1013 1.369 . S
C1012 H1021 0.929 . S
C1013 N1010 1.346 . S
C1013 C1012 1.369 . S
C1013 H1016 0.928 . S
C1014 N1010 1.345 . S
C1014 C1015 1.371 . S
C1014 H1017 0.931 . S
C1015 C1011 1.391 . S
C1015 C1014 1.371 . S
C1015 H1022 0.930 . S
H1016 C1013 0.928 . S
H1017 C1014 0.931 . S
H1018 C994 0.930 . S
H1019 C991 0.930 . S
H1020 C1000 0.930 . S
H1021 C1012 0.929 . S
H1022 C1015 0.930 . S
C1023 C1024 1.351 . S
C1023 N1026 1.368 . S
C1023 H1028 0.931 . S
C1024 C1023 1.351 . S
C1024 N1025 1.373 . S
C1024 H1052 0.930 . S
N1025 C1024 1.373 . S
N1025 C1027 1.340 . S
N1026 C1023 1.368 . S
N1026 C1027 1.321 . S
N1026 Co1029 2.135 . S
C1027 N1025 1.340 . S
C1027 N1026 1.321 . S
C1027 H1051 0.930 . S
H1028 C1023 0.931 . S
Co1029 N1026 2.135 . S
Co1029 N1032 2.121 . S
Co1029 O1037 2.055 . S
Co1029 O1040 2.039 . S
Co1029 N1043 2.140 . S
C1030 O1031 1.227 . S
C1030 O1040 1.265 . S
O1031 C1030 1.227 . S
N1032 Co1029 2.121 . S
N1032 C1034 1.375 . S
N1032 C1035 1.313 . S
C1033 C1034 1.338 . S
C1033 N1036 1.377 . S
C1033 H1053 0.930 . S
C1034 N1032 1.375 . S
C1034 C1033 1.338 . S
C1034 H1038 0.931 . S
C1035 N1032 1.313 . S
C1035 N1036 1.344 . S
C1035 H1039 0.930 . S
N1036 C1033 1.377 . S
N1036 C1035 1.344 . S
O1037 Co1029 2.055 . S
O1037 C1041 1.253 . S
H1038 C1034 0.931 . S
H1039 C1035 0.930 . S
O1040 Co1029 2.039 . S
O1040 C1030 1.265 . S
C1041 O1037 1.253 . S
C1041 O1042 1.227 . S
O1042 C1041 1.227 . S
N1043 Co1029 2.140 . S
N1043 C1046 1.346 . S
N1043 C1047 1.345 . S
C1044 C1045 1.387 . S
C1044 C1048 1.391 . S
C1045 C1044 1.387 . S
C1045 C1046 1.369 . S
C1045 H1054 0.929 . S
C1046 N1043 1.346 . S
C1046 C1045 1.369 . S
C1046 H1049 0.928 . S
C1047 N1043 1.345 . S
C1047 C1048 1.371 . S
C1047 H1050 0.931 . S
C1048 C1044 1.391 . S
C1048 C1047 1.371 . S
C1048 H1055 0.930 . S
H1049 C1046 0.928 . S
H1050 C1047 0.931 . S
H1051 C1027 0.930 . S
H1052 C1024 0.930 . S
H1053 C1033 0.930 . S
H1054 C1045 0.929 . S
H1055 C1048 0.930 . S
C1056 C1057 1.351 . S
C1056 N1059 1.368 . S
C1056 H1061 0.931 . S
C1057 C1056 1.351 . S
C1057 N1058 1.373 . S
C1057 H1085 0.930 . S
N1058 C1057 1.373 . S
N1058 C1060 1.340 . S
N1059 C1056 1.368 . S
N1059 C1060 1.321 . S
N1059 Co1062 2.135 . S
C1060 N1058 1.340 . S
C1060 N1059 1.321 . S
C1060 H1084 0.930 . S
H1061 C1056 0.931 . S
Co1062 N1059 2.135 . S
Co1062 N1065 2.121 . S
Co1062 O1070 2.055 . S
Co1062 O1073 2.039 . S
Co1062 N1076 2.140 . S
C1063 O1064 1.227 . S
C1063 O1073 1.265 . S
O1064 C1063 1.227 . S
N1065 Co1062 2.121 . S
N1065 C1067 1.375 . S
N1065 C1068 1.313 . S
C1066 C1067 1.338 . S
C1066 N1069 1.377 . S
C1066 H1086 0.930 . S
C1067 N1065 1.375 . S
C1067 C1066 1.338 . S
C1067 H1071 0.931 . S
C1068 N1065 1.313 . S
C1068 N1069 1.344 . S
C1068 H1072 0.930 . S
N1069 C1066 1.377 . S
N1069 C1068 1.344 . S
O1070 Co1062 2.055 . S
O1070 C1074 1.253 . S
H1071 C1067 0.931 . S
H1072 C1068 0.930 . S
O1073 Co1062 2.039 . S
O1073 C1063 1.265 . S
C1074 O1070 1.253 . S
C1074 O1075 1.227 . S
O1075 C1074 1.227 . S
N1076 Co1062 2.140 . S
N1076 C1079 1.346 . S
N1076 C1080 1.345 . S
C1077 C1078 1.387 . S
C1077 C1081 1.391 . S
C1078 C1077 1.387 . S
C1078 C1079 1.369 . S
C1078 H1087 0.929 . S
C1079 N1076 1.346 . S
C1079 C1078 1.369 . S
C1079 H1082 0.928 . S
C1080 N1076 1.345 . S
C1080 C1081 1.371 . S
C1080 H1083 0.931 . S
C1081 C1077 1.391 . S
C1081 C1080 1.371 . S
C1081 H1088 0.930 . S
H1082 C1079 0.928 . S
H1083 C1080 0.931 . S
H1084 C1060 0.930 . S
H1085 C1057 0.930 . S
H1086 C1066 0.930 . S
H1087 C1078 0.929 . S
H1088 C1081 0.930 . S
C1089 C1090 1.351 1_554 S
C1089 N1092 1.368 . S
C1089 H1094 0.931 . S
C1090 C1089 1.351 1_556 S
C1090 N1091 1.373 1_556 S
C1090 H1118 0.930 . S
N1091 C1090 1.373 1_554 S
N1091 C1093 1.340 . S
N1092 C1089 1.368 . S
N1092 C1093 1.321 . S
N1092 Co1095 2.135 . S
C1093 N1091 1.340 . S
C1093 N1092 1.321 . S
C1093 H1117 0.930 . S
H1094 C1089 0.931 . S
Co1095 N1092 2.135 . S
Co1095 N1098 2.121 . S
Co1095 O1103 2.055 . S
Co1095 O1106 2.039 . S
Co1095 N1109 2.140 . S
C1096 O1097 1.227 . S
C1096 O1106 1.265 . S
O1097 C1096 1.227 . S
N1098 Co1095 2.121 . S
N1098 C1100 1.375 . S
N1098 C1101 1.313 . S
C1099 C1100 1.338 . S
C1099 N1102 1.377 . S
C1099 H1119 0.930 . S
C1100 N1098 1.375 . S
C1100 C1099 1.338 . S
C1100 H1104 0.931 . S
C1101 N1098 1.313 . S
C1101 N1102 1.344 . S
C1101 H1105 0.930 . S
N1102 C1099 1.377 . S
N1102 C1101 1.344 . S
O1103 Co1095 2.055 . S
O1103 C1107 1.253 . S
H1104 C1100 0.931 . S
H1105 C1101 0.930 . S
O1106 Co1095 2.039 . S
O1106 C1096 1.265 . S
C1107 O1103 1.253 . S
C1107 O1108 1.227 . S
O1108 C1107 1.227 . S
N1109 Co1095 2.140 . S
N1109 C1112 1.346 . S
N1109 C1113 1.345 . S
C1110 C1111 1.387 . S
C1110 C1114 1.391 . S
C1111 C1110 1.387 . S
C1111 C1112 1.369 . S
C1111 H1120 0.929 . S
C1112 N1109 1.346 . S
C1112 C1111 1.369 . S
C1112 H1115 0.928 . S
C1113 N1109 1.345 . S
C1113 C1114 1.371 . S
C1113 H1116 0.931 . S
C1114 C1110 1.391 . S
C1114 C1113 1.371 . S
C1114 H1121 0.930 . S
H1115 C1112 0.928 . S
H1116 C1113 0.931 . S
H1117 C1093 0.930 . S
H1118 C1090 0.930 . S
H1119 C1099 0.930 . S
H1120 C1111 0.929 . S
H1121 C1114 0.930 . S
C1122 C1123 1.351 1_554 S
C1122 N1125 1.368 . S
C1122 H1127 0.931 . S
C1123 C1122 1.351 1_556 S
C1123 N1124 1.373 1_556 S
C1123 H1151 0.930 . S
N1124 C1123 1.373 1_554 S
N1124 C1126 1.340 . S
N1125 C1122 1.368 . S
N1125 C1126 1.321 . S
N1125 Co1128 2.135 . S
C1126 N1124 1.340 . S
C1126 N1125 1.321 . S
C1126 H1150 0.930 . S
H1127 C1122 0.931 . S
Co1128 N1125 2.135 . S
Co1128 N1131 2.121 . S
Co1128 O1136 2.055 . S
Co1128 O1139 2.039 . S
Co1128 N1142 2.140 . S
C1129 O1130 1.227 . S
C1129 O1139 1.265 . S
O1130 C1129 1.227 . S
N1131 Co1128 2.121 . S
N1131 C1133 1.375 . S
N1131 C1134 1.313 . S
C1132 C1133 1.338 . S
C1132 N1135 1.377 . S
C1132 H1152 0.930 . S
C1133 N1131 1.375 . S
C1133 C1132 1.338 . S
C1133 H1137 0.931 . S
C1134 N1131 1.313 . S
C1134 N1135 1.344 . S
C1134 H1138 0.930 . S
N1135 C1132 1.377 . S
N1135 C1134 1.344 . S
O1136 Co1128 2.055 . S
O1136 C1140 1.253 . S
H1137 C1133 0.931 . S
H1138 C1134 0.930 . S
O1139 Co1128 2.039 . S
O1139 C1129 1.265 . S
C1140 O1136 1.253 . S
C1140 O1141 1.227 . S
O1141 C1140 1.227 . S
N1142 Co1128 2.140 . S
N1142 C1145 1.346 . S
N1142 C1146 1.345 . S
C1143 C1144 1.387 . S
C1143 C1147 1.391 . S
C1144 C1143 1.387 . S
C1144 C1145 1.369 . S
C1144 H1153 0.929 . S
C1145 N1142 1.346 . S
C1145 C1144 1.369 . S
C1145 H1148 0.928 . S
C1146 N1142 1.345 . S
C1146 C1147 1.371 . S
C1146 H1149 0.931 . S
C1147 C1143 1.391 . S
C1147 C1146 1.371 . S
C1147 H1154 0.930 . S
H1148 C1145 0.928 . S
H1149 C1146 0.931 . S
H1150 C1126 0.930 . S
H1151 C1123 0.930 . S
H1152 C1132 0.930 . S
H1153 C1144 0.929 . S
H1154 C1147 0.930 . S
C1155 C1156 1.351 1_554 S
C1155 N1158 1.368 . S
C1155 H1160 0.931 . S
C1156 C1155 1.351 1_556 S
C1156 N1157 1.373 1_556 S
C1156 H1184 0.930 . S
N1157 C1156 1.373 1_554 S
N1157 C1159 1.340 . S
N1158 C1155 1.368 . S
N1158 C1159 1.321 . S
N1158 Co1161 2.135 . S
C1159 N1157 1.340 . S
C1159 N1158 1.321 . S
C1159 H1183 0.930 . S
H1160 C1155 0.931 . S
Co1161 N1158 2.135 . S
Co1161 N1164 2.121 . S
Co1161 O1169 2.055 . S
Co1161 O1172 2.039 . S
Co1161 N1175 2.140 . S
C1162 O1163 1.227 . S
C1162 O1172 1.265 . S
O1163 C1162 1.227 . S
N1164 Co1161 2.121 . S
N1164 C1166 1.375 . S
N1164 C1167 1.313 . S
C1165 C1166 1.338 . S
C1165 N1168 1.377 . S
C1165 H1185 0.930 . S
C1166 N1164 1.375 . S
C1166 C1165 1.338 . S
C1166 H1170 0.931 . S
C1167 N1164 1.313 . S
C1167 N1168 1.344 . S
C1167 H1171 0.930 . S
N1168 C1165 1.377 . S
N1168 C1167 1.344 . S
O1169 Co1161 2.055 . S
O1169 C1173 1.253 . S
H1170 C1166 0.931 . S
H1171 C1167 0.930 . S
O1172 Co1161 2.039 . S
O1172 C1162 1.265 . S
C1173 O1169 1.253 . S
C1173 O1174 1.227 . S
O1174 C1173 1.227 . S
N1175 Co1161 2.140 . S
N1175 C1178 1.346 . S
N1175 C1179 1.345 . S
C1176 C1177 1.387 . S
C1176 C1180 1.391 . S
C1177 C1176 1.387 . S
C1177 C1178 1.369 . S
C1177 H1186 0.929 . S
C1178 N1175 1.346 . S
C1178 C1177 1.369 . S
C1178 H1181 0.928 . S
C1179 N1175 1.345 . S
C1179 C1180 1.371 . S
C1179 H1182 0.931 . S
C1180 C1176 1.391 . S
C1180 C1179 1.371 . S
C1180 H1187 0.930 . S
H1181 C1178 0.928 . S
H1182 C1179 0.931 . S
H1183 C1159 0.930 . S
H1184 C1156 0.930 . S
H1185 C1165 0.930 . S
H1186 C1177 0.929 . S
H1187 C1180 0.930 . S
H1188 C1194 0.930 . S
H1189 C1198 0.930 . S
H1190 C1203 0.929 . S
H1191 C1201 0.929 . S
H1192 C1196 0.929 . S
H1193 C1202 0.929 . S
C1194 H1188 0.930 . S
C1194 C1195 1.367 . S
C1194 C1202 1.378 . S
C1195 C1194 1.367 . S
C1195 C1203 1.433 . S
C1196 H1192 0.929 . S
C1196 C1198 1.378 . S
C1196 C1200 1.350 . S
C1197 C1200 1.463 . S
C1197 C1202 1.350 . S
C1197 N1205 1.427 . S
C1198 H1189 0.930 . S
C1198 C1196 1.378 . S
C1198 C1199 1.367 . S
C1199 C1198 1.367 . S
C1199 C1201 1.433 . S
C1200 C1196 1.350 . S
C1200 C1197 1.463 . S
C1200 N1204 1.427 . S
C1201 H1191 0.929 . S
C1201 C1199 1.433 . S
C1201 N1204 1.384 . S
C1202 H1193 0.929 . S
C1202 C1194 1.378 . S
C1202 C1197 1.350 . S
C1203 H1190 0.929 . S
C1203 C1195 1.433 . S
C1203 N1205 1.384 . S
N1204 C1200 1.427 . S
N1204 C1201 1.384 . S
N1205 C1197 1.427 . S
N1205 C1203 1.384 . S
H1206 C1212 0.930 . S
H1207 C1216 0.930 . S
H1208 C1221 0.929 . S
H1209 C1219 0.929 . S
H1210 C1214 0.929 . S
H1211 C1220 0.929 . S
C1212 H1206 0.930 . S
C1212 C1213 1.367 . S
C1212 C1220 1.378 . S
C1213 C1212 1.367 . S
C1213 C1221 1.433 . S
C1214 H1210 0.929 . S
C1214 C1216 1.378 . S
C1214 C1218 1.350 . S
C1215 C1218 1.463 . S
C1215 C1220 1.350 . S
C1215 N1223 1.427 . S
C1216 H1207 0.930 . S
C1216 C1214 1.378 . S
C1216 C1217 1.367 . S
C1217 C1216 1.367 . S
C1217 C1219 1.433 . S
C1218 C1214 1.350 . S
C1218 C1215 1.463 . S
C1218 N1222 1.427 . S
C1219 H1209 0.929 . S
C1219 C1217 1.433 . S
C1219 N1222 1.384 . S
C1220 H1211 0.929 . S
C1220 C1212 1.378 . S
C1220 C1215 1.350 . S
C1221 H1208 0.929 . S
C1221 C1213 1.433 . S
C1221 N1223 1.384 . S
N1222 C1218 1.427 . S
N1222 C1219 1.384 . S
N1223 C1215 1.427 . S
N1223 C1221 1.384 . S
H1224 C1230 0.930 . S
H1225 C1234 0.930 . S
H1226 C1239 0.929 . S
H1227 C1237 0.929 . S
H1228 C1232 0.929 . S
H1229 C1238 0.929 . S
C1230 H1224 0.930 . S
C1230 C1231 1.367 . S
C1230 C1238 1.378 . S
C1231 C1230 1.367 . S
C1231 C1239 1.433 . S
C1232 H1228 0.929 . S
C1232 C1234 1.378 . S
C1232 C1236 1.350 . S
C1233 C1236 1.463 . S
C1233 C1238 1.350 . S
C1233 N1241 1.427 . S
C1234 H1225 0.930 . S
C1234 C1232 1.378 . S
C1234 C1235 1.367 . S
C1235 C1234 1.367 . S
C1235 C1237 1.433 . S
C1236 C1232 1.350 . S
C1236 C1233 1.463 . S
C1236 N1240 1.427 . S
C1237 H1227 0.929 . S
C1237 C1235 1.433 . S
C1237 N1240 1.384 . S
C1238 H1229 0.929 . S
C1238 C1230 1.378 . S
C1238 C1233 1.350 . S
C1239 H1226 0.929 . S
C1239 C1231 1.433 . S
C1239 N1241 1.384 . S
N1240 C1236 1.427 . S
N1240 C1237 1.384 . S
N1241 C1233 1.427 . S
N1241 C1239 1.384 . S
H1242 C1248 0.930 . S
H1243 C1252 0.930 . S
H1244 C1257 0.929 . S
H1245 C1255 0.929 . S
H1246 C1250 0.929 . S
H1247 C1256 0.929 . S
C1248 H1242 0.930 . S
C1248 C1249 1.367 . S
C1248 C1256 1.378 . S
C1249 C1248 1.367 . S
C1249 C1257 1.433 . S
C1250 H1246 0.929 . S
C1250 C1252 1.378 . S
C1250 C1254 1.350 . S
C1251 C1254 1.463 . S
C1251 C1256 1.350 . S
C1251 N1259 1.427 . S
C1252 H1243 0.930 . S
C1252 C1250 1.378 . S
C1252 C1253 1.367 . S
C1253 C1252 1.367 . S
C1253 C1255 1.433 . S
C1254 C1250 1.350 . S
C1254 C1251 1.463 . S
C1254 N1258 1.427 . S
C1255 H1245 0.929 . S
C1255 C1253 1.433 . S
C1255 N1258 1.384 . S
C1256 H1247 0.929 . S
C1256 C1248 1.378 . S
C1256 C1251 1.350 . S
C1257 H1244 0.929 . S
C1257 C1249 1.433 . S
C1257 N1259 1.384 . S
N1258 C1254 1.427 . S
N1258 C1255 1.384 . S
N1259 C1251 1.427 . S
N1259 C1257 1.384 . S
H1260 C1266 0.930 . S
H1261 C1270 0.930 . S
H1262 C1275 0.929 . S
H1263 C1273 0.929 . S
H1264 C1268 0.929 . S
H1265 C1274 0.929 . S
C1266 H1260 0.930 . S
C1266 C1267 1.367 . S
C1266 C1274 1.378 . S
C1267 C1266 1.367 . S
C1267 C1275 1.433 . S
C1268 H1264 0.929 . S
C1268 C1270 1.378 . S
C1268 C1272 1.350 . S
C1269 C1272 1.463 . S
C1269 C1274 1.350 . S
C1269 N1277 1.427 . S
C1270 H1261 0.930 . S
C1270 C1268 1.378 . S
C1270 C1271 1.367 . S
C1271 C1270 1.367 . S
C1271 C1273 1.433 . S
C1272 C1268 1.350 . S
C1272 C1269 1.463 . S
C1272 N1276 1.427 . S
C1273 H1263 0.929 . S
C1273 C1271 1.433 . S
C1273 N1276 1.384 . S
C1274 H1265 0.929 . S
C1274 C1266 1.378 . S
C1274 C1269 1.350 . S
C1275 H1262 0.929 . S
C1275 C1267 1.433 . S
C1275 N1277 1.384 . S
N1276 C1272 1.427 . S
N1276 C1273 1.384 . S
N1277 C1269 1.427 . S
N1277 C1275 1.384 . S
H1278 C1284 0.930 . S
H1279 C1288 0.930 . S
H1280 C1293 0.929 . S
H1281 C1291 0.929 . S
H1282 C1286 0.929 . S
H1283 C1292 0.929 . S
C1284 H1278 0.930 . S
C1284 C1285 1.367 . S
C1284 C1292 1.378 . S
C1285 C1284 1.367 . S
C1285 C1293 1.433 . S
C1286 H1282 0.929 . S
C1286 C1288 1.378 . S
C1286 C1290 1.350 . S
C1287 C1290 1.463 . S
C1287 C1292 1.350 . S
C1287 N1295 1.427 . S
C1288 H1279 0.930 . S
C1288 C1286 1.378 . S
C1288 C1289 1.367 . S
C1289 C1288 1.367 . S
C1289 C1291 1.433 . S
C1290 C1286 1.350 . S
C1290 C1287 1.463 . S
C1290 N1294 1.427 . S
C1291 H1281 0.929 . S
C1291 C1289 1.433 . S
C1291 N1294 1.384 . S
C1292 H1283 0.929 . S
C1292 C1284 1.378 . S
C1292 C1287 1.350 . S
C1293 H1280 0.929 . S
C1293 C1285 1.433 . S
C1293 N1295 1.384 . S
N1294 C1290 1.427 . S
N1294 C1291 1.384 . S
N1295 C1287 1.427 . S
N1295 C1293 1.384 . S
H1296 C1302 0.930 . S
H1297 C1306 0.930 . S
H1298 C1311 0.929 . S
H1299 C1309 0.929 . S
H1300 C1304 0.929 . S
H1301 C1310 0.929 . S
C1302 H1296 0.930 . S
C1302 C1303 1.367 . S
C1302 C1310 1.378 . S
C1303 C1302 1.367 . S
C1303 C1311 1.433 . S
C1304 H1300 0.929 . S
C1304 C1306 1.378 . S
C1304 C1308 1.350 . S
C1305 C1308 1.463 . S
C1305 C1310 1.350 . S
C1305 N1313 1.427 . S
C1306 H1297 0.930 . S
C1306 C1304 1.378 . S
C1306 C1307 1.367 . S
C1307 C1306 1.367 . S
C1307 C1309 1.433 . S
C1308 C1304 1.350 . S
C1308 C1305 1.463 . S
C1308 N1312 1.427 . S
C1309 H1299 0.929 . S
C1309 C1307 1.433 . S
C1309 N1312 1.384 . S
C1310 H1301 0.929 . S
C1310 C1302 1.378 . S
C1310 C1305 1.350 . S
C1311 H1298 0.929 . S
C1311 C1303 1.433 . S
C1311 N1313 1.384 . S
N1312 C1308 1.427 . S
N1312 C1309 1.384 . S
N1313 C1305 1.427 . S
N1313 C1311 1.384 . S
H1314 C1320 0.930 . S
H1315 C1324 0.930 . S
H1316 C1329 0.929 . S
H1317 C1327 0.929 . S
H1318 C1322 0.929 . S
H1319 C1328 0.929 . S
C1320 H1314 0.930 . S
C1320 C1321 1.367 . S
C1320 C1328 1.378 . S
C1321 C1320 1.367 . S
C1321 C1329 1.433 . S
C1322 H1318 0.929 . S
C1322 C1324 1.378 . S
C1322 C1326 1.350 . S
C1323 C1326 1.463 . S
C1323 C1328 1.350 . S
C1323 N1331 1.427 . S
C1324 H1315 0.930 . S
C1324 C1322 1.378 . S
C1324 C1325 1.367 . S
C1325 C1324 1.367 . S
C1325 C1327 1.433 . S
C1326 C1322 1.350 . S
C1326 C1323 1.463 . S
C1326 N1330 1.427 . S
C1327 H1317 0.929 . S
C1327 C1325 1.433 . S
C1327 N1330 1.384 . S
C1328 H1319 0.929 . S
C1328 C1320 1.378 . S
C1328 C1323 1.350 . S
C1329 H1316 0.929 . S
C1329 C1321 1.433 . S
C1329 N1331 1.384 . S
N1330 C1326 1.427 . S
N1330 C1327 1.384 . S
N1331 C1323 1.427 . S
N1331 C1329 1.384 . S
H1332 C1338 0.930 . S
H1333 C1342 0.930 . S
H1334 C1347 0.929 . S
H1335 C1345 0.929 . S
H1336 C1340 0.929 . S
H1337 C1346 0.929 . S
C1338 H1332 0.930 . S
C1338 C1339 1.367 . S
C1338 C1346 1.378 . S
C1339 C1338 1.367 . S
C1339 C1347 1.433 . S
C1340 H1336 0.929 . S
C1340 C1342 1.378 . S
C1340 C1344 1.350 . S
C1341 C1344 1.463 . S
C1341 C1346 1.350 . S
C1341 N1349 1.427 . S
C1342 H1333 0.930 . S
C1342 C1340 1.378 . S
C1342 C1343 1.367 . S
C1343 C1342 1.367 . S
C1343 C1345 1.433 . S
C1344 C1340 1.350 . S
C1344 C1341 1.463 . S
C1344 N1348 1.427 . S
C1345 H1335 0.929 . S
C1345 C1343 1.433 . S
C1345 N1348 1.384 . S
C1346 H1337 0.929 . S
C1346 C1338 1.378 . S
C1346 C1341 1.350 . S
C1347 H1334 0.929 . S
C1347 C1339 1.433 . S
C1347 N1349 1.384 . S
N1348 C1344 1.427 . S
N1348 C1345 1.384 . S
N1349 C1341 1.427 . S
N1349 C1347 1.384 . S
H1350 C1356 0.930 . S
H1351 C1360 0.930 . S
H1352 C1365 0.929 . S
H1353 C1363 0.929 . S
H1354 C1358 0.929 . S
H1355 C1364 0.929 . S
C1356 H1350 0.930 . S
C1356 C1357 1.367 . S
C1356 C1364 1.378 . S
C1357 C1356 1.367 . S
C1357 C1365 1.433 . S
C1358 H1354 0.929 . S
C1358 C1360 1.378 . S
C1358 C1362 1.350 . S
C1359 C1362 1.463 . S
C1359 C1364 1.350 . S
C1359 N1367 1.427 . S
C1360 H1351 0.930 . S
C1360 C1358 1.378 . S
C1360 C1361 1.367 . S
C1361 C1360 1.367 . S
C1361 C1363 1.433 . S
C1362 C1358 1.350 . S
C1362 C1359 1.463 . S
C1362 N1366 1.427 . S
C1363 H1353 0.929 . S
C1363 C1361 1.433 . S
C1363 N1366 1.384 . S
C1364 H1355 0.929 . S
C1364 C1356 1.378 . S
C1364 C1359 1.350 . S
C1365 H1352 0.929 . S
C1365 C1357 1.433 . S
C1365 N1367 1.384 . S
N1366 C1362 1.427 . S
N1366 C1363 1.384 . S
N1367 C1359 1.427 . S
N1367 C1365 1.384 . S
H1368 C1374 0.930 . S
H1369 C1378 0.930 . S
H1370 C1383 0.929 . S
H1371 C1381 0.929 . S
H1372 C1376 0.929 . S
H1373 C1382 0.929 . S
C1374 H1368 0.930 . S
C1374 C1375 1.367 . S
C1374 C1382 1.378 . S
C1375 C1374 1.367 . S
C1375 C1383 1.433 . S
C1376 H1372 0.929 . S
C1376 C1378 1.378 . S
C1376 C1380 1.350 . S
C1377 C1380 1.463 . S
C1377 C1382 1.350 . S
C1377 N1385 1.427 . S
C1378 H1369 0.930 . S
C1378 C1376 1.378 . S
C1378 C1379 1.367 . S
C1379 C1378 1.367 . S
C1379 C1381 1.433 . S
C1380 C1376 1.350 . S
C1380 C1377 1.463 . S
C1380 N1384 1.427 . S
C1381 H1371 0.929 . S
C1381 C1379 1.433 . S
C1381 N1384 1.384 . S
C1382 H1373 0.929 . S
C1382 C1374 1.378 . S
C1382 C1377 1.350 . S
C1383 H1370 0.929 . S
C1383 C1375 1.433 . S
C1383 N1385 1.384 . S
N1384 C1380 1.427 . S
N1384 C1381 1.384 . S
N1385 C1377 1.427 . S
N1385 C1383 1.384 . S
H1386 C1392 0.930 . S
H1387 C1396 0.930 . S
H1388 C1401 0.929 . S
H1389 C1399 0.929 . S
H1390 C1394 0.929 . S
H1391 C1400 0.929 . S
C1392 H1386 0.930 . S
C1392 C1393 1.367 . S
C1392 C1400 1.378 . S
C1393 C1392 1.367 . S
C1393 C1401 1.433 . S
C1394 H1390 0.929 . S
C1394 C1396 1.378 . S
C1394 C1398 1.350 . S
C1395 C1398 1.463 . S
C1395 C1400 1.350 . S
C1395 N1403 1.427 . S
C1396 H1387 0.930 . S
C1396 C1394 1.378 . S
C1396 C1397 1.367 . S
C1397 C1396 1.367 . S
C1397 C1399 1.433 . S
C1398 C1394 1.350 . S
C1398 C1395 1.463 . S
C1398 N1402 1.427 . S
C1399 H1389 0.929 . S
C1399 C1397 1.433 . S
C1399 N1402 1.384 . S
C1400 H1391 0.929 . S
C1400 C1392 1.378 . S
C1400 C1395 1.350 . S
C1401 H1388 0.929 . S
C1401 C1393 1.433 . S
C1401 N1403 1.384 . S
N1402 C1398 1.427 . S
N1402 C1399 1.384 . S
N1403 C1395 1.427 . S
N1403 C1401 1.384 . S
H1404 C1410 0.930 . S
H1405 C1414 0.930 . S
H1406 C1419 0.929 . S
H1407 C1417 0.929 . S
H1408 C1412 0.929 . S
H1409 C1418 0.929 . S
C1410 H1404 0.930 . S
C1410 C1411 1.367 . S
C1410 C1418 1.378 1_556 S
C1411 C1410 1.367 . S
C1411 C1419 1.433 1_556 S
C1412 H1408 0.929 . S
C1412 C1414 1.378 . S
C1412 C1416 1.350 . S
C1413 C1416 1.463 . S
C1413 C1418 1.350 . S
C1413 N1421 1.427 . S
C1414 H1405 0.930 . S
C1414 C1412 1.378 . S
C1414 C1415 1.367 . S
C1415 C1414 1.367 . S
C1415 C1417 1.433 . S
C1416 C1412 1.350 . S
C1416 C1413 1.463 . S
C1416 N1420 1.427 . S
C1417 H1407 0.929 . S
C1417 C1415 1.433 . S
C1417 N1420 1.384 . S
C1418 H1409 0.929 . S
C1418 C1410 1.378 1_554 S
C1418 C1413 1.350 . S
C1419 H1406 0.929 . S
C1419 C1411 1.433 1_554 S
C1419 N1421 1.384 . S
N1420 C1416 1.427 . S
N1420 C1417 1.384 . S
N1421 C1413 1.427 . S
N1421 C1419 1.384 . S
H1422 C1428 0.930 . S
H1423 C1432 0.930 . S
H1424 C1437 0.929 . S
H1425 C1435 0.929 . S
H1426 C1430 0.929 . S
H1427 C1436 0.929 . S
C1428 H1422 0.930 . S
C1428 C1429 1.367 . S
C1428 C1436 1.378 . S
C1429 C1428 1.367 . S
C1429 C1437 1.433 . S
C1430 H1426 0.929 . S
C1430 C1432 1.378 . S
C1430 C1434 1.350 . S
C1431 C1434 1.463 . S
C1431 C1436 1.350 . S
C1431 N1439 1.427 . S
C1432 H1423 0.930 . S
C1432 C1430 1.378 . S
C1432 C1433 1.367 1_554 S
C1433 C1432 1.367 1_556 S
C1433 C1435 1.433 . S
C1434 C1430 1.350 . S
C1434 C1431 1.463 . S
C1434 N1438 1.427 . S
C1435 H1425 0.929 . S
C1435 C1433 1.433 . S
C1435 N1438 1.384 1_556 S
C1436 H1427 0.929 . S
C1436 C1428 1.378 . S
C1436 C1431 1.350 . S
C1437 H1424 0.929 . S
C1437 C1429 1.433 . S
C1437 N1439 1.384 . S
N1438 C1434 1.427 . S
N1438 C1435 1.384 1_554 S
N1439 C1431 1.427 . S
N1439 C1437 1.384 . S
H1440 C1446 0.930 . S
H1441 C1450 0.930 . S
H1442 C1455 0.929 . S
H1443 C1453 0.929 . S
H1444 C1448 0.929 . S
H1445 C1454 0.929 . S
C1446 H1440 0.930 . S
C1446 C1447 1.367 . S
C1446 C1454 1.378 1_556 S
C1447 C1446 1.367 . S
C1447 C1455 1.433 1_556 S
C1448 H1444 0.929 . S
C1448 C1450 1.378 . S
C1448 C1452 1.350 . S
C1449 C1452 1.463 . S
C1449 C1454 1.350 . S
C1449 N1457 1.427 . S
C1450 H1441 0.930 . S
C1450 C1448 1.378 . S
C1450 C1451 1.367 . S
C1451 C1450 1.367 . S
C1451 C1453 1.433 . S
C1452 C1448 1.350 . S
C1452 C1449 1.463 . S
C1452 N1456 1.427 . S
C1453 H1443 0.929 . S
C1453 C1451 1.433 . S
C1453 N1456 1.384 . S
C1454 H1445 0.929 . S
C1454 C1446 1.378 1_554 S
C1454 C1449 1.350 . S
C1455 H1442 0.929 . S
C1455 C1447 1.433 1_554 S
C1455 N1457 1.384 . S
N1456 C1452 1.427 . S
N1456 C1453 1.384 . S
N1457 C1449 1.427 . S
N1457 C1455 1.384 . S
H1458 C1464 0.930 . S
H1459 C1468 0.930 . S
H1460 C1473 0.929 . S
H1461 C1471 0.929 1_556 S
H1462 C1466 0.929 . S
H1463 C1472 0.929 . S
C1464 H1458 0.930 . S
C1464 C1465 1.367 . S
C1464 C1472 1.378 . S
C1465 C1464 1.367 . S
C1465 C1473 1.433 . S
C1466 H1462 0.929 . S
C1466 C1468 1.378 . S
C1466 C1470 1.350 . S
C1467 C1470 1.463 . S
C1467 C1472 1.350 . S
C1467 N1475 1.427 . S
C1468 H1459 0.930 . S
C1468 C1466 1.378 . S
C1468 C1469 1.367 . S
C1469 C1468 1.367 . S
C1469 C1471 1.433 . S
C1470 C1466 1.350 . S
C1470 C1467 1.463 . S
C1470 N1474 1.427 . S
C1471 H1461 0.929 1_554 S
C1471 C1469 1.433 . S
C1471 N1474 1.384 . S
C1472 H1463 0.929 . S
C1472 C1464 1.378 . S
C1472 C1467 1.350 . S
C1473 H1460 0.929 . S
C1473 C1465 1.433 . S
C1473 N1475 1.384 . S
N1474 C1470 1.427 . S
N1474 C1471 1.384 . S
N1475 C1467 1.427 . S
N1475 C1473 1.384 . S
H1476 C1482 0.930 . S
H1477 C1486 0.930 1_556 S
H1478 C1491 0.929 . S
H1479 C1489 0.929 . S
H1480 C1484 0.929 . S
H1481 C1490 0.929 . S
C1482 H1476 0.930 . S
C1482 C1483 1.367 . S
C1482 C1490 1.378 . S
C1483 C1482 1.367 . S
C1483 C1491 1.433 . S
C1484 H1480 0.929 . S
C1484 C1486 1.378 . S
C1484 C1488 1.350 . S
C1485 C1488 1.463 . S
C1485 C1490 1.350 . S
C1485 N1493 1.427 . S
C1486 H1477 0.930 1_554 S
C1486 C1484 1.378 . S
C1486 C1487 1.367 . S
C1487 C1486 1.367 . S
C1487 C1489 1.433 . S
C1488 C1484 1.350 . S
C1488 C1485 1.463 . S
C1488 N1492 1.427 . S
C1489 H1479 0.929 . S
C1489 C1487 1.433 . S
C1489 N1492 1.384 . S
C1490 H1481 0.929 . S
C1490 C1482 1.378 . S
C1490 C1485 1.350 . S
C1491 H1478 0.929 . S
C1491 C1483 1.433 . S
C1491 N1493 1.384 . S
N1492 C1488 1.427 . S
N1492 C1489 1.384 . S
N1493 C1485 1.427 . S
N1493 C1491 1.384 . S
H1494 C1500 0.930 . S
H1495 C1504 0.930 . S
H1496 C1509 0.929 1_556 S
H1497 C1507 0.929 . S
H1498 C1502 0.929 . S
H1499 C1508 0.929 . S
C1500 H1494 0.930 . S
C1500 C1501 1.367 . S
C1500 C1508 1.378 . S
C1501 C1500 1.367 . S
C1501 C1509 1.433 . S
C1502 H1498 0.929 . S
C1502 C1504 1.378 . S
C1502 C1506 1.350 . S
C1503 C1506 1.463 . S
C1503 C1508 1.350 . S
C1503 N1511 1.427 . S
C1504 H1495 0.930 . S
C1504 C1502 1.378 . S
C1504 C1505 1.367 . S
C1505 C1504 1.367 . S
C1505 C1507 1.433 . S
C1506 C1502 1.350 . S
C1506 C1503 1.463 . S
C1506 N1510 1.427 . S
C1507 H1497 0.929 . S
C1507 C1505 1.433 . S
C1507 N1510 1.384 . S
C1508 H1499 0.929 . S
C1508 C1500 1.378 . S
C1508 C1503 1.350 . S
C1509 H1496 0.929 1_554 S
C1509 C1501 1.433 . S
C1509 N1511 1.384 . S
N1510 C1506 1.427 . S
N1510 C1507 1.384 . S
N1511 C1503 1.427 . S
N1511 C1509 1.384 . S
H1512 C1518 0.930 . S
H1513 C1522 0.930 . S
H1514 C1527 0.929 . S
H1515 C1525 0.929 . S
H1516 C1520 0.929 . S
H1517 C1526 0.929 . S
C1518 H1512 0.930 . S
C1518 C1519 1.367 . S
C1518 C1526 1.378 . S
C1519 C1518 1.367 . S
C1519 C1527 1.433 . S
C1520 H1516 0.929 . S
C1520 C1522 1.378 . S
C1520 C1524 1.350 . S
C1521 C1524 1.463 . S
C1521 C1526 1.350 . S
C1521 N1529 1.427 . S
C1522 H1513 0.930 . S
C1522 C1520 1.378 . S
C1522 C1523 1.367 . S
C1523 C1522 1.367 . S
C1523 C1525 1.433 . S
C1524 C1520 1.350 . S
C1524 C1521 1.463 . S
C1524 N1528 1.427 . S
C1525 H1515 0.929 . S
C1525 C1523 1.433 . S
C1525 N1528 1.384 . S
C1526 H1517 0.929 . S
C1526 C1518 1.378 . S
C1526 C1521 1.350 . S
C1527 H1514 0.929 . S
C1527 C1519 1.433 . S
C1527 N1529 1.384 . S
N1528 C1524 1.427 . S
N1528 C1525 1.384 . S
N1529 C1521 1.427 . S
N1529 C1527 1.384 . S
H1530 C1536 0.930 . S
H1531 C1540 0.930 . S
H1532 C1545 0.929 . S
H1533 C1543 0.929 . S
H1534 C1538 0.929 . S
H1535 C1544 0.929 . S
C1536 H1530 0.930 . S
C1536 C1537 1.367 . S
C1536 C1544 1.378 . S
C1537 C1536 1.367 . S
C1537 C1545 1.433 . S
C1538 H1534 0.929 . S
C1538 C1540 1.378 . S
C1538 C1542 1.350 . S
C1539 C1542 1.463 . S
C1539 C1544 1.350 . S
C1539 N1547 1.427 . S
C1540 H1531 0.930 . S
C1540 C1538 1.378 . S
C1540 C1541 1.367 . S
C1541 C1540 1.367 . S
C1541 C1543 1.433 . S
C1542 C1538 1.350 . S
C1542 C1539 1.463 . S
C1542 N1546 1.427 . S
C1543 H1533 0.929 . S
C1543 C1541 1.433 . S
C1543 N1546 1.384 . S
C1544 H1535 0.929 . S
C1544 C1536 1.378 . S
C1544 C1539 1.350 . S
C1545 H1532 0.929 . S
C1545 C1537 1.433 . S
C1545 N1547 1.384 . S
N1546 C1542 1.427 . S
N1546 C1543 1.384 . S
N1547 C1539 1.427 . S
N1547 C1545 1.384 . S
H1548 C1554 0.930 . S
H1549 C1558 0.930 . S
H1550 C1563 0.929 . S
H1551 C1561 0.929 . S
H1552 C1556 0.929 . S
H1553 C1562 0.929 . S
C1554 H1548 0.930 . S
C1554 C1555 1.367 . S
C1554 C1562 1.378 . S
C1555 C1554 1.367 . S
C1555 C1563 1.433 . S
C1556 H1552 0.929 . S
C1556 C1558 1.378 . S
C1556 C1560 1.350 . S
C1557 C1560 1.463 . S
C1557 C1562 1.350 . S
C1557 N1565 1.427 . S
C1558 H1549 0.930 . S
C1558 C1556 1.378 . S
C1558 C1559 1.367 . S
C1559 C1558 1.367 . S
C1559 C1561 1.433 . S
C1560 C1556 1.350 . S
C1560 C1557 1.463 . S
C1560 N1564 1.427 . S
C1561 H1551 0.929 . S
C1561 C1559 1.433 . S
C1561 N1564 1.384 . S
C1562 H1553 0.929 . S
C1562 C1554 1.378 . S
C1562 C1557 1.350 . S
C1563 H1550 0.929 . S
C1563 C1555 1.433 . S
C1563 N1565 1.384 . S
N1564 C1560 1.427 . S
N1564 C1561 1.384 . S
N1565 C1557 1.427 . S
N1565 C1563 1.384 . S
H1566 C1572 0.930 . S
H1567 C1576 0.930 . S
H1568 C1581 0.929 . S
H1569 C1579 0.929 . S
H1570 C1574 0.929 . S
H1571 C1580 0.929 . S
C1572 H1566 0.930 . S
C1572 C1573 1.367 . S
C1572 C1580 1.378 . S
C1573 C1572 1.367 . S
C1573 C1581 1.433 . S
C1574 H1570 0.929 . S
C1574 C1576 1.378 . S
C1574 C1578 1.350 . S
C1575 C1578 1.463 . S
C1575 C1580 1.350 . S
C1575 N1583 1.427 . S
C1576 H1567 0.930 . S
C1576 C1574 1.378 . S
C1576 C1577 1.367 . S
C1577 C1576 1.367 . S
C1577 C1579 1.433 . S
C1578 C1574 1.350 . S
C1578 C1575 1.463 . S
C1578 N1582 1.427 . S
C1579 H1569 0.929 . S
C1579 C1577 1.433 . S
C1579 N1582 1.384 . S
C1580 H1571 0.929 . S
C1580 C1572 1.378 . S
C1580 C1575 1.350 . S
C1581 H1568 0.929 . S
C1581 C1573 1.433 . S
C1581 N1583 1.384 . S
N1582 C1578 1.427 . S
N1582 C1579 1.384 . S
N1583 C1575 1.427 . S
N1583 C1581 1.384 . S
H1584 C1590 0.930 . S
H1585 C1594 0.930 . S
H1586 C1599 0.929 . S
H1587 C1597 0.929 . S
H1588 C1592 0.929 . S
H1589 C1598 0.929 . S
C1590 H1584 0.930 . S
C1590 C1591 1.367 . S
C1590 C1598 1.378 . S
C1591 C1590 1.367 . S
C1591 C1599 1.433 . S
C1592 H1588 0.929 . S
C1592 C1594 1.378 . S
C1592 C1596 1.350 . S
C1593 C1596 1.463 . S
C1593 C1598 1.350 . S
C1593 N1601 1.427 . S
C1594 H1585 0.930 . S
C1594 C1592 1.378 . S
C1594 C1595 1.367 . S
C1595 C1594 1.367 . S
C1595 C1597 1.433 . S
C1596 C1592 1.350 . S
C1596 C1593 1.463 . S
C1596 N1600 1.427 . S
C1597 H1587 0.929 . S
C1597 C1595 1.433 . S
C1597 N1600 1.384 . S
C1598 H1589 0.929 . S
C1598 C1590 1.378 . S
C1598 C1593 1.350 . S
C1599 H1586 0.929 . S
C1599 C1591 1.433 . S
C1599 N1601 1.384 . S
N1600 C1596 1.427 . S
N1600 C1597 1.384 . S
N1601 C1593 1.427 . S
N1601 C1599 1.384 . S
H1602 C1608 0.930 . S
H1603 C1612 0.930 . S
H1604 C1617 0.929 . S
H1605 C1615 0.929 . S
H1606 C1610 0.929 . S
H1607 C1616 0.929 . S
C1608 H1602 0.930 . S
C1608 C1609 1.367 . S
C1608 C1616 1.378 . S
C1609 C1608 1.367 . S
C1609 C1617 1.433 . S
C1610 H1606 0.929 . S
C1610 C1612 1.378 . S
C1610 C1614 1.350 . S
C1611 C1614 1.463 . S
C1611 C1616 1.350 . S
C1611 N1619 1.427 . S
C1612 H1603 0.930 . S
C1612 C1610 1.378 . S
C1612 C1613 1.367 . S
C1613 C1612 1.367 . S
C1613 C1615 1.433 . S
C1614 C1610 1.350 . S
C1614 C1611 1.463 . S
C1614 N1618 1.427 . S
C1615 H1605 0.929 . S
C1615 C1613 1.433 . S
C1615 N1618 1.384 . S
C1616 H1607 0.929 . S
C1616 C1608 1.378 . S
C1616 C1611 1.350 . S
C1617 H1604 0.929 . S
C1617 C1609 1.433 . S
C1617 N1619 1.384 . S
N1618 C1614 1.427 . S
N1618 C1615 1.384 . S
N1619 C1611 1.427 . S
N1619 C1617 1.384 . S
H1620 C1626 0.930 . S
H1621 C1630 0.930 . S
H1622 C1635 0.929 . S
H1623 C1633 0.929 . S
H1624 C1628 0.929 . S
H1625 C1634 0.929 . S
C1626 H1620 0.930 . S
C1626 C1627 1.367 . S
C1626 C1634 1.378 . S
C1627 C1626 1.367 . S
C1627 C1635 1.433 . S
C1628 H1624 0.929 . S
C1628 C1630 1.378 . S
C1628 C1632 1.350 . S
C1629 C1632 1.463 . S
C1629 C1634 1.350 . S
C1629 N1637 1.427 . S
C1630 H1621 0.930 . S
C1630 C1628 1.378 . S
C1630 C1631 1.367 . S
C1631 C1630 1.367 . S
C1631 C1633 1.433 . S
C1632 C1628 1.350 . S
C1632 C1629 1.463 . S
C1632 N1636 1.427 . S
C1633 H1623 0.929 . S
C1633 C1631 1.433 . S
C1633 N1636 1.384 . S
C1634 H1625 0.929 . S
C1634 C1626 1.378 . S
C1634 C1629 1.350 . S
C1635 H1622 0.929 . S
C1635 C1627 1.433 . S
C1635 N1637 1.384 . S
N1636 C1632 1.427 . S
N1636 C1633 1.384 . S
N1637 C1629 1.427 . S
N1637 C1635 1.384 . S
H1638 C1644 0.930 . S
H1639 C1648 0.930 . S
H1640 C1653 0.929 . S
H1641 C1651 0.929 . S
H1642 C1646 0.929 . S
H1643 C1652 0.929 . S
C1644 H1638 0.930 . S
C1644 C1645 1.367 . S
C1644 C1652 1.378 . S
C1645 C1644 1.367 . S
C1645 C1653 1.433 . S
C1646 H1642 0.929 . S
C1646 C1648 1.378 . S
C1646 C1650 1.350 . S
C1647 C1650 1.463 . S
C1647 C1652 1.350 . S
C1647 N1655 1.427 . S
C1648 H1639 0.930 . S
C1648 C1646 1.378 . S
C1648 C1649 1.367 . S
C1649 C1648 1.367 . S
C1649 C1651 1.433 . S
C1650 C1646 1.350 . S
C1650 C1647 1.463 . S
C1650 N1654 1.427 . S
C1651 H1641 0.929 . S
C1651 C1649 1.433 . S
C1651 N1654 1.384 . S
C1652 H1643 0.929 . S
C1652 C1644 1.378 . S
C1652 C1647 1.350 . S
C1653 H1640 0.929 . S
C1653 C1645 1.433 . S
C1653 N1655 1.384 . S
N1654 C1650 1.427 . S
N1654 C1651 1.384 . S
N1655 C1647 1.427 . S
N1655 C1653 1.384 . S
H1656 C1662 0.930 . S
H1657 C1666 0.930 . S
H1658 C1671 0.929 . S
H1659 C1669 0.929 . S
H1660 C1664 0.929 . S
H1661 C1670 0.929 . S
C1662 H1656 0.930 . S
C1662 C1663 1.367 . S
C1662 C1670 1.378 . S
C1663 C1662 1.367 . S
C1663 C1671 1.433 . S
C1664 H1660 0.929 . S
C1664 C1666 1.378 . S
C1664 C1668 1.350 . S
C1665 C1668 1.463 . S
C1665 C1670 1.350 . S
C1665 N1673 1.427 . S
C1666 H1657 0.930 . S
C1666 C1664 1.378 . S
C1666 C1667 1.367 . S
C1667 C1666 1.367 . S
C1667 C1669 1.433 . S
C1668 C1664 1.350 . S
C1668 C1665 1.463 . S
C1668 N1672 1.427 . S
C1669 H1659 0.929 . S
C1669 C1667 1.433 . S
C1669 N1672 1.384 . S
C1670 H1661 0.929 . S
C1670 C1662 1.378 . S
C1670 C1665 1.350 . S
C1671 H1658 0.929 . S
C1671 C1663 1.433 . S
C1671 N1673 1.384 . S
N1672 C1668 1.427 . S
N1672 C1669 1.384 . S
N1673 C1665 1.427 . S
N1673 C1671 1.384 . S
H1674 C1680 0.930 . S
H1675 C1684 0.930 . S
H1676 C1689 0.929 . S
H1677 C1687 0.929 . S
H1678 C1682 0.929 . S
H1679 C1688 0.929 . S
C1680 H1674 0.930 . S
C1680 C1681 1.367 . S
C1680 C1688 1.378 . S
C1681 C1680 1.367 . S
C1681 C1689 1.433 . S
C1682 H1678 0.929 . S
C1682 C1684 1.378 . S
C1682 C1686 1.350 . S
C1683 C1686 1.463 . S
C1683 C1688 1.350 . S
C1683 N1691 1.427 . S
C1684 H1675 0.930 . S
C1684 C1682 1.378 . S
C1684 C1685 1.367 . S
C1685 C1684 1.367 . S
C1685 C1687 1.433 . S
C1686 C1682 1.350 . S
C1686 C1683 1.463 . S
C1686 N1690 1.427 . S
C1687 H1677 0.929 . S
C1687 C1685 1.433 . S
C1687 N1690 1.384 . S
C1688 H1679 0.929 . S
C1688 C1680 1.378 . S
C1688 C1683 1.350 . S
C1689 H1676 0.929 . S
C1689 C1681 1.433 . S
C1689 N1691 1.384 . S
N1690 C1686 1.427 . S
N1690 C1687 1.384 . S
N1691 C1683 1.427 . S
N1691 C1689 1.384 . S
H1692 C1698 0.930 . S
H1693 C1702 0.930 . S
H1694 C1707 0.929 . S
H1695 C1705 0.929 . S
H1696 C1700 0.929 . S
H1697 C1706 0.929 . S
C1698 H1692 0.930 . S
C1698 C1699 1.367 . S
C1698 C1706 1.378 . S
C1699 C1698 1.367 . S
C1699 C1707 1.433 . S
C1700 H1696 0.929 . S
C1700 C1702 1.378 . S
C1700 C1704 1.350 . S
C1701 C1704 1.463 . S
C1701 C1706 1.350 . S
C1701 N1709 1.427 . S
C1702 H1693 0.930 . S
C1702 C1700 1.378 . S
C1702 C1703 1.367 . S
C1703 C1702 1.367 . S
C1703 C1705 1.433 . S
C1704 C1700 1.350 . S
C1704 C1701 1.463 . S
C1704 N1708 1.427 . S
C1705 H1695 0.929 . S
C1705 C1703 1.433 . S
C1705 N1708 1.384 . S
C1706 H1697 0.929 . S
C1706 C1698 1.378 . S
C1706 C1701 1.350 . S
C1707 H1694 0.929 . S
C1707 C1699 1.433 . S
C1707 N1709 1.384 . S
N1708 C1704 1.427 . S
N1708 C1705 1.384 . S
N1709 C1701 1.427 . S
N1709 C1707 1.384 . S
H1710 C1716 0.930 . S
H1711 C1720 0.930 . S
H1712 C1725 0.929 . S
H1713 C1723 0.929 . S
H1714 C1718 0.929 . S
H1715 C1724 0.929 . S
C1716 H1710 0.930 . S
C1716 C1717 1.367 . S
C1716 C1724 1.378 . S
C1717 C1716 1.367 . S
C1717 C1725 1.433 . S
C1718 H1714 0.929 . S
C1718 C1720 1.378 . S
C1718 C1722 1.350 . S
C1719 C1722 1.463 . S
C1719 C1724 1.350 . S
C1719 N1727 1.427 . S
C1720 H1711 0.930 . S
C1720 C1718 1.378 . S
C1720 C1721 1.367 . S
C1721 C1720 1.367 . S
C1721 C1723 1.433 . S
C1722 C1718 1.350 . S
C1722 C1719 1.463 . S
C1722 N1726 1.427 . S
C1723 H1713 0.929 . S
C1723 C1721 1.433 . S
C1723 N1726 1.384 . S
C1724 H1715 0.929 . S
C1724 C1716 1.378 . S
C1724 C1719 1.350 . S
C1725 H1712 0.929 . S
C1725 C1717 1.433 . S
C1725 N1727 1.384 . S
N1726 C1722 1.427 . S
N1726 C1723 1.384 . S
N1727 C1719 1.427 . S
N1727 C1725 1.384 . S
H1728 C1734 0.930 . S
H1729 C1738 0.930 1_556 S
H1730 C1743 0.929 . S
H1731 C1741 0.929 . S
H1732 C1736 0.929 . S
H1733 C1742 0.929 1_554 S
C1734 H1728 0.930 . S
C1734 C1735 1.367 . S
C1734 C1742 1.378 . S
C1735 C1734 1.367 . S
C1735 C1743 1.433 . S
C1736 H1732 0.929 . S
C1736 C1738 1.378 1_556 S
C1736 C1740 1.350 . S
C1737 C1740 1.463 . S
C1737 C1742 1.350 . S
C1737 N1745 1.427 . S
C1738 H1729 0.930 1_554 S
C1738 C1736 1.378 1_554 S
C1738 C1739 1.367 . S
C1739 C1738 1.367 . S
C1739 C1741 1.433 . S
C1740 C1736 1.350 . S
C1740 C1737 1.463 . S
C1740 N1744 1.427 1_556 S
C1741 H1731 0.929 . S
C1741 C1739 1.433 . S
C1741 N1744 1.384 . S
C1742 H1733 0.929 1_556 S
C1742 C1734 1.378 . S
C1742 C1737 1.350 . S
C1743 H1730 0.929 . S
C1743 C1735 1.433 . S
C1743 N1745 1.384 . S
N1744 C1740 1.427 1_554 S
N1744 C1741 1.384 . S
N1745 C1737 1.427 . S
N1745 C1743 1.384 . S
H1746 C1752 0.930 1_556 S
H1747 C1756 0.930 . S
H1748 C1761 0.929 . S
H1749 C1759 0.929 . S
H1750 C1754 0.929 1_554 S
H1751 C1760 0.929 . S
C1752 H1746 0.930 1_554 S
C1752 C1753 1.367 . S
C1752 C1760 1.378 1_554 S
C1753 C1752 1.367 . S
C1753 C1761 1.433 . S
C1754 H1750 0.929 1_556 S
C1754 C1756 1.378 . S
C1754 C1758 1.350 . S
C1755 C1758 1.463 . S
C1755 C1760 1.350 . S
C1755 N1763 1.427 1_556 S
C1756 H1747 0.930 . S
C1756 C1754 1.378 . S
C1756 C1757 1.367 . S
C1757 C1756 1.367 . S
C1757 C1759 1.433 . S
C1758 C1754 1.350 . S
C1758 C1755 1.463 . S
C1758 N1762 1.427 . S
C1759 H1749 0.929 . S
C1759 C1757 1.433 . S
C1759 N1762 1.384 . S
C1760 H1751 0.929 . S
C1760 C1752 1.378 1_556 S
C1760 C1755 1.350 . S
C1761 H1748 0.929 . S
C1761 C1753 1.433 . S
C1761 N1763 1.384 . S
N1762 C1758 1.427 . S
N1762 C1759 1.384 . S
N1763 C1755 1.427 1_554 S
N1763 C1761 1.384 . S
H1764 C1770 0.930 . S
H1765 C1774 0.930 . S
H1766 C1779 0.929 . S
H1767 C1777 0.929 . S
H1768 C1772 0.929 . S
H1769 C1778 0.929 . S
C1770 H1764 0.930 . S
C1770 C1771 1.367 . S
C1770 C1778 1.378 . S
C1771 C1770 1.367 . S
C1771 C1779 1.433 . S
C1772 H1768 0.929 . S
C1772 C1774 1.378 . S
C1772 C1776 1.350 . S
C1773 C1776 1.463 . S
C1773 C1778 1.350 1_556 S
C1773 N1781 1.427 . S
C1774 H1765 0.930 . S
C1774 C1772 1.378 . S
C1774 C1775 1.367 . S
C1775 C1774 1.367 . S
C1775 C1777 1.433 . S
C1776 C1772 1.350 . S
C1776 C1773 1.463 . S
C1776 N1780 1.427 . S
C1777 H1767 0.929 . S
C1777 C1775 1.433 . S
C1777 N1780 1.384 . S
C1778 H1769 0.929 . S
C1778 C1770 1.378 . S
C1778 C1773 1.350 1_554 S
C1779 H1766 0.929 . S
C1779 C1771 1.433 . S
C1779 N1781 1.384 1_554 S
N1780 C1776 1.427 . S
N1780 C1777 1.384 . S
N1781 C1773 1.427 . S
N1781 C1779 1.384 1_556 S
H1782 C1788 0.930 . S
H1783 C1792 0.930 . S
H1784 C1797 0.929 . S
H1785 C1795 0.929 . S
H1786 C1790 0.929 . S
H1787 C1796 0.929 . S
C1788 H1782 0.930 . S
C1788 C1789 1.367 . S
C1788 C1796 1.378 1_554 S
C1789 C1788 1.367 . S
C1789 C1797 1.433 . S
C1790 H1786 0.929 . S
C1790 C1792 1.378 . S
C1790 C1794 1.350 . S
C1791 C1794 1.463 . S
C1791 C1796 1.350 . S
C1791 N1799 1.427 . S
C1792 H1783 0.930 . S
C1792 C1790 1.378 . S
C1792 C1793 1.367 . S
C1793 C1792 1.367 . S
C1793 C1795 1.433 . S
C1794 C1790 1.350 . S
C1794 C1791 1.463 . S
C1794 N1798 1.427 . S
C1795 H1785 0.929 . S
C1795 C1793 1.433 . S
C1795 N1798 1.384 . S
C1796 H1787 0.929 . S
C1796 C1788 1.378 1_556 S
C1796 C1791 1.350 . S
C1797 H1784 0.929 . S
C1797 C1789 1.433 . S
C1797 N1799 1.384 1_554 S
N1798 C1794 1.427 . S
N1798 C1795 1.384 . S
N1799 C1791 1.427 . S
N1799 C1797 1.384 1_556 S
H1800 C1806 0.930 1_554 S
H1801 C1810 0.930 . S
H1802 C1815 0.929 . S
H1803 C1813 0.929 . S
H1804 C1808 0.929 . S
H1805 C1814 0.929 . S
C1806 H1800 0.930 1_556 S
C1806 C1807 1.367 1_556 S
C1806 C1814 1.378 . S
C1807 C1806 1.367 1_554 S
C1807 C1815 1.433 . S
C1808 H1804 0.929 . S
C1808 C1810 1.378 . S
C1808 C1812 1.350 . S
C1809 C1812 1.463 . S
C1809 C1814 1.350 . S
C1809 N1817 1.427 . S
C1810 H1801 0.930 . S
C1810 C1808 1.378 . S
C1810 C1811 1.367 . S
C1811 C1810 1.367 . S
C1811 C1813 1.433 . S
C1812 C1808 1.350 . S
C1812 C1809 1.463 . S
C1812 N1816 1.427 . S
C1813 H1803 0.929 . S
C1813 C1811 1.433 . S
C1813 N1816 1.384 . S
C1814 H1805 0.929 . S
C1814 C1806 1.378 . S
C1814 C1809 1.350 . S
C1815 H1802 0.929 . S
C1815 C1807 1.433 . S
C1815 N1817 1.384 1_554 S
N1816 C1812 1.427 . S
N1816 C1813 1.384 . S
N1817 C1809 1.427 . S
N1817 C1815 1.384 1_556 S
H1818 C1824 0.930 . S
H1819 C1828 0.930 . S
H1820 C1833 0.929 . S
H1821 C1831 0.927 1_554 S
H1822 C1826 0.929 . S
H1823 C1832 0.929 . S
C1824 H1818 0.930 . S
C1824 C1825 1.367 . S
C1824 C1832 1.378 . S
C1825 C1824 1.367 . S
C1825 C1833 1.433 . S
C1826 H1822 0.929 . S
C1826 C1828 1.378 1_556 S
C1826 C1830 1.350 . S
C1827 C1830 1.463 . S
C1827 C1832 1.350 . S
C1827 N1835 1.427 . S
C1828 H1819 0.930 . S
C1828 C1826 1.378 1_554 S
C1828 C1829 1.367 . S
C1829 C1828 1.367 . S
C1829 C1831 1.430 1_554 S
C1830 C1826 1.350 . S
C1830 C1827 1.463 . S
C1830 N1834 1.427 . S
C1831 H1821 0.927 1_556 S
C1831 C1829 1.430 1_556 S
C1831 N1834 1.389 . S
C1832 H1823 0.929 . S
C1832 C1824 1.378 . S
C1832 C1827 1.350 . S
C1833 H1820 0.929 . S
C1833 C1825 1.433 . S
C1833 N1835 1.384 . S
N1834 C1830 1.427 . S
N1834 C1831 1.389 . S
N1835 C1827 1.427 . S
N1835 C1833 1.384 . S
H1836 C1842 0.930 . S
H1837 C1846 0.930 . S
H1838 C1851 0.929 . S
H1839 C1849 0.929 . S
H1840 C1844 0.929 . S
H1841 C1850 0.929 . S
C1842 H1836 0.930 . S
C1842 C1843 1.367 . S
C1842 C1850 1.378 . S
C1843 C1842 1.367 . S
C1843 C1851 1.433 . S
C1844 H1840 0.929 . S
C1844 C1846 1.378 . S
C1844 C1848 1.350 . S
C1845 C1848 1.463 . S
C1845 C1850 1.350 . S
C1845 N1853 1.427 . S
C1846 H1837 0.930 . S
C1846 C1844 1.378 . S
C1846 C1847 1.367 . S
C1847 C1846 1.367 . S
C1847 C1849 1.433 . S
C1848 C1844 1.350 . S
C1848 C1845 1.463 . S
C1848 N1852 1.427 . S
C1849 H1839 0.929 . S
C1849 C1847 1.433 . S
C1849 N1852 1.384 . S
C1850 H1841 0.929 . S
C1850 C1842 1.378 . S
C1850 C1845 1.350 . S
C1851 H1838 0.929 . S
C1851 C1843 1.433 . S
C1851 N1853 1.384 . S
N1852 C1848 1.427 . S
N1852 C1849 1.384 . S
N1853 C1845 1.427 . S
N1853 C1851 1.384 . S
H1854 C1860 0.930 . S
H1855 C1864 0.930 . S
H1856 C1869 0.929 . S
H1857 C1867 0.929 . S
H1858 C1862 0.929 . S
H1859 C1868 0.929 . S
C1860 H1854 0.930 . S
C1860 C1861 1.367 . S
C1860 C1868 1.378 . S
C1861 C1860 1.367 . S
C1861 C1869 1.433 . S
C1862 H1858 0.929 . S
C1862 C1864 1.378 . S
C1862 C1866 1.350 . S
C1863 C1866 1.463 1_545 S
C1863 C1868 1.350 . S
C1863 N1871 1.427 . S
C1864 H1855 0.930 . S
C1864 C1862 1.378 . S
C1864 C1865 1.367 . S
C1865 C1864 1.367 . S
C1865 C1867 1.433 . S
C1866 C1862 1.350 . S
C1866 C1863 1.463 1_565 S
C1866 N1870 1.427 . S
C1867 H1857 0.929 . S
C1867 C1865 1.433 . S
C1867 N1870 1.384 . S
C1868 H1859 0.929 . S
C1868 C1860 1.378 . S
C1868 C1863 1.350 . S
C1869 H1856 0.929 . S
C1869 C1861 1.433 . S
C1869 N1871 1.384 . S
N1870 C1866 1.427 . S
N1870 C1867 1.384 . S
N1871 C1863 1.427 . S
N1871 C1869 1.384 . S
H1872 C1878 0.930 . S
H1873 C1882 0.930 . S
H1874 C1887 0.929 . S
H1875 C1885 0.929 . S
H1876 C1880 0.929 . S
H1877 C1886 0.929 . S
C1878 H1872 0.930 . S
C1878 C1879 1.367 . S
C1878 C1886 1.378 . S
C1879 C1878 1.367 . S
C1879 C1887 1.433 . S
C1880 H1876 0.929 . S
C1880 C1882 1.378 . S
C1880 C1884 1.350 . S
C1881 C1884 1.463 1_655 S
C1881 C1886 1.350 . S
C1881 N1889 1.427 . S
C1882 H1873 0.930 . S
C1882 C1880 1.378 . S
C1882 C1883 1.367 . S
C1883 C1882 1.367 . S
C1883 C1885 1.433 . S
C1884 C1880 1.350 . S
C1884 C1881 1.463 1_455 S
C1884 N1888 1.427 . S
C1885 H1875 0.929 . S
C1885 C1883 1.433 . S
C1885 N1888 1.384 . S
C1886 H1877 0.929 . S
C1886 C1878 1.378 . S
C1886 C1881 1.350 . S
C1887 H1874 0.929 . S
C1887 C1879 1.433 . S
C1887 N1889 1.384 . S
N1888 C1884 1.427 . S
N1888 C1885 1.384 . S
N1889 C1881 1.427 . S
N1889 C1887 1.384 . S
H1890 C1896 0.930 . S
H1891 C1900 0.930 . S
H1892 C1905 0.929 . S
H1893 C1903 0.929 . S
H1894 C1898 0.929 . S
H1895 C1904 0.929 . S
C1896 H1890 0.930 . S
C1896 C1897 1.367 . S
C1896 C1904 1.378 . S
C1897 C1896 1.367 . S
C1897 C1905 1.433 . S
C1898 H1894 0.929 . S
C1898 C1900 1.378 . S
C1898 C1902 1.350 . S
C1899 C1902 1.463 . S
C1899 C1904 1.350 . S
C1899 N1907 1.427 . S
C1900 H1891 0.930 . S
C1900 C1898 1.378 . S
C1900 C1901 1.367 . S
C1901 C1900 1.367 . S
C1901 C1903 1.433 . S
C1902 C1898 1.350 . S
C1902 C1899 1.463 . S
C1902 N1906 1.427 . S
C1903 H1893 0.929 . S
C1903 C1901 1.433 . S
C1903 N1906 1.384 . S
C1904 H1895 0.929 . S
C1904 C1896 1.378 . S
C1904 C1899 1.350 . S
C1905 H1892 0.929 . S
C1905 C1897 1.433 . S
C1905 N1907 1.384 . S
N1906 C1902 1.427 . S
N1906 C1903 1.384 . S
N1907 C1899 1.427 . S
N1907 C1905 1.384 . S
H1908 C1914 0.930 . S
H1909 C1918 0.930 . S
H1910 C1923 0.929 . S
H1911 C1921 0.929 . S
H1912 C1916 0.929 . S
H1913 C1922 0.929 . S
C1914 H1908 0.930 . S
C1914 C1915 1.367 . S
C1914 C1922 1.378 . S
C1915 C1914 1.367 . S
C1915 C1923 1.433 . S
C1916 H1912 0.929 . S
C1916 C1918 1.378 . S
C1916 C1920 1.350 . S
C1917 C1920 1.463 1_565 S
C1917 C1922 1.350 . S
C1917 N1925 1.427 . S
C1918 H1909 0.930 . S
C1918 C1916 1.378 . S
C1918 C1919 1.367 . S
C1919 C1918 1.367 . S
C1919 C1921 1.433 . S
C1920 C1916 1.350 . S
C1920 C1917 1.463 1_545 S
C1920 N1924 1.427 . S
C1921 H1911 0.929 . S
C1921 C1919 1.433 . S
C1921 N1924 1.384 . S
C1922 H1913 0.929 . S
C1922 C1914 1.378 . S
C1922 C1917 1.350 . S
C1923 H1910 0.929 . S
C1923 C1915 1.433 . S
C1923 N1925 1.384 . S
N1924 C1920 1.427 . S
N1924 C1921 1.384 . S
N1925 C1917 1.427 . S
N1925 C1923 1.384 . S
H1926 C1932 0.930 . S
H1927 C1936 0.930 . S
H1928 C1941 0.929 . S
H1929 C1939 0.929 . S
H1930 C1934 0.929 1_655 S
H1931 C1940 0.929 1_455 S
C1932 H1926 0.930 . S
C1932 C1933 1.367 . S
C1932 C1940 1.378 . S
C1933 C1932 1.367 . S
C1933 C1941 1.433 . S
C1934 H1930 0.929 1_455 S
C1934 C1936 1.378 . S
C1934 C1938 1.350 . S
C1935 C1938 1.463 1_655 S
C1935 C1940 1.350 . S
C1935 N1943 1.427 . S
C1936 H1927 0.930 . S
C1936 C1934 1.378 . S
C1936 C1937 1.367 . S
C1937 C1936 1.367 . S
C1937 C1939 1.433 . S
C1938 C1934 1.350 . S
C1938 C1935 1.463 1_455 S
C1938 N1942 1.427 . S
C1939 H1929 0.929 . S
C1939 C1937 1.433 . S
C1939 N1942 1.384 . S
C1940 H1931 0.929 1_655 S
C1940 C1932 1.378 . S
C1940 C1935 1.350 . S
C1941 H1928 0.929 . S
C1941 C1933 1.433 . S
C1941 N1943 1.384 . S
N1942 C1938 1.427 . S
N1942 C1939 1.384 . S
N1943 C1935 1.427 . S
N1943 C1941 1.384 . S
H1944 C1950 0.930 . S
H1945 C1954 0.930 . S
H1946 C1959 0.929 . S
H1947 C1957 0.929 . S
H1948 C1952 0.929 . S
H1949 C1958 0.929 . S
C1950 H1944 0.930 . S
C1950 C1951 1.367 . S
C1950 C1958 1.378 . S
C1951 C1950 1.367 . S
C1951 C1959 1.433 . S
C1952 H1948 0.929 . S
C1952 C1954 1.378 . S
C1952 C1956 1.350 . S
C1953 C1956 1.463 . S
C1953 C1958 1.350 . S
C1953 N1961 1.427 . S
C1954 H1945 0.930 . S
C1954 C1952 1.378 . S
C1954 C1955 1.367 . S
C1955 C1954 1.367 . S
C1955 C1957 1.433 . S
C1956 C1952 1.350 . S
C1956 C1953 1.463 . S
C1956 N1960 1.427 . S
C1957 H1947 0.929 . S
C1957 C1955 1.433 . S
C1957 N1960 1.384 . S
C1958 H1949 0.929 . S
C1958 C1950 1.378 . S
C1958 C1953 1.350 . S
C1959 H1946 0.929 . S
C1959 C1951 1.433 . S
C1959 N1961 1.384 . S
N1960 C1956 1.427 . S
N1960 C1957 1.384 . S
N1961 C1953 1.427 . S
N1961 C1959 1.384 . S
H1962 C1968 0.930 . S
H1963 C1972 0.930 . S
H1964 C1977 0.929 . S
H1965 C1975 0.929 . S
H1966 C1970 0.929 . S
H1967 C1976 0.929 . S
C1968 H1962 0.930 . S
C1968 C1969 1.367 . S
C1968 C1976 1.378 . S
C1969 C1968 1.367 . S
C1969 C1977 1.433 . S
C1970 H1966 0.929 . S
C1970 C1972 1.378 . S
C1970 C1974 1.350 . S
C1971 C1974 1.463 . S
C1971 C1976 1.350 . S
C1971 N1979 1.427 . S
C1972 H1963 0.930 . S
C1972 C1970 1.378 . S
C1972 C1973 1.367 . S
C1973 C1972 1.367 . S
C1973 C1975 1.433 . S
C1974 C1970 1.350 . S
C1974 C1971 1.463 . S
C1974 N1978 1.427 . S
C1975 H1965 0.929 . S
C1975 C1973 1.433 . S
C1975 N1978 1.384 . S
C1976 H1967 0.929 . S
C1976 C1968 1.378 . S
C1976 C1971 1.350 . S
C1977 H1964 0.929 . S
C1977 C1969 1.433 . S
C1977 N1979 1.384 . S
N1978 C1974 1.427 . S
N1978 C1975 1.384 . S
N1979 C1971 1.427 . S
N1979 C1977 1.384 . S
H1980 C1986 0.930 . S
H1981 C1990 0.930 . S
H1982 C1995 0.929 . S
H1983 C1993 0.929 . S
H1984 C1988 0.929 . S
H1985 C1994 0.929 . S
C1986 H1980 0.930 . S
C1986 C1987 1.367 . S
C1986 C1994 1.378 . S
C1987 C1986 1.367 . S
C1987 C1995 1.433 . S
C1988 H1984 0.929 . S
C1988 C1990 1.378 . S
C1988 C1992 1.350 . S
C1989 C1992 1.463 . S
C1989 C1994 1.350 . S
C1989 N1997 1.427 . S
C1990 H1981 0.930 . S
C1990 C1988 1.378 . S
C1990 C1991 1.367 . S
C1991 C1990 1.367 . S
C1991 C1993 1.433 . S
C1992 C1988 1.350 . S
C1992 C1989 1.463 . S
C1992 N1996 1.427 . S
C1993 H1983 0.929 . S
C1993 C1991 1.433 . S
C1993 N1996 1.384 . S
C1994 H1985 0.929 . S
C1994 C1986 1.378 . S
C1994 C1989 1.350 . S
C1995 H1982 0.929 . S
C1995 C1987 1.433 . S
C1995 N1997 1.384 . S
N1996 C1992 1.427 . S
N1996 C1993 1.384 . S
N1997 C1989 1.427 . S
N1997 C1995 1.384 . S
H1998 C2004 0.930 . S
H1999 C2008 0.930 1_556 S
H2000 C2013 0.929 . S
H2001 C2011 0.929 . S
H2002 C2006 0.929 . S
H2003 C2012 0.929 . S
C2004 H1998 0.930 . S
C2004 C2005 1.367 . S
C2004 C2012 1.378 . S
C2005 C2004 1.367 . S
C2005 C2013 1.433 . S
C2006 H2002 0.929 . S
C2006 C2008 1.378 . S
C2006 C2010 1.350 . S
C2007 C2010 1.463 . S
C2007 C2012 1.350 . S
C2007 N2015 1.427 . S
C2008 H1999 0.930 1_554 S
C2008 C2006 1.378 . S
C2008 C2009 1.367 . S
C2009 C2008 1.367 . S
C2009 C2011 1.433 . S
C2010 C2006 1.350 . S
C2010 C2007 1.463 . S
C2010 N2014 1.427 . S
C2011 H2001 0.929 . S
C2011 C2009 1.433 . S
C2011 N2014 1.384 . S
C2012 H2003 0.929 . S
C2012 C2004 1.378 . S
C2012 C2007 1.350 . S
C2013 H2000 0.929 . S
C2013 C2005 1.433 . S
C2013 N2015 1.384 . S
N2014 C2010 1.427 . S
N2014 C2011 1.384 . S
N2015 C2007 1.427 . S
N2015 C2013 1.384 . S
H2016 C2022 0.930 . S
H2017 C2026 0.930 . S
H2018 C2031 0.929 . S
H2019 C2029 0.929 . S
H2020 C2024 0.929 . S
H2021 C2030 0.929 . S
C2022 H2016 0.930 . S
C2022 C2023 1.367 . S
C2022 C2030 1.378 . S
C2023 C2022 1.367 . S
C2023 C2031 1.433 1_554 S
C2024 H2020 0.929 . S
C2024 C2026 1.378 . S
C2024 C2028 1.350 . S
C2025 C2028 1.463 . S
C2025 C2030 1.350 . S
C2025 N2033 1.427 . S
C2026 H2017 0.930 . S
C2026 C2024 1.378 . S
C2026 C2027 1.367 . S
C2027 C2026 1.367 . S
C2027 C2029 1.433 . S
C2028 C2024 1.350 . S
C2028 C2025 1.463 . S
C2028 N2032 1.427 . S
C2029 H2019 0.929 . S
C2029 C2027 1.433 . S
C2029 N2032 1.384 . S
C2030 H2021 0.929 . S
C2030 C2022 1.378 . S
C2030 C2025 1.350 . S
C2031 H2018 0.929 . S
C2031 C2023 1.433 1_556 S
C2031 N2033 1.384 1_556 S
N2032 C2028 1.427 . S
N2032 C2029 1.384 . S
N2033 C2025 1.427 . S
N2033 C2031 1.384 1_554 S
H2034 C2040 0.930 . S
H2035 C2044 0.930 . S
H2036 C2049 0.929 . S
H2037 C2047 0.929 . S
H2038 C2042 0.929 . S
H2039 C2048 0.929 . S
C2040 H2034 0.930 . S
C2040 C2041 1.367 1_556 S
C2040 C2048 1.378 1_556 S
C2041 C2040 1.367 1_554 S
C2041 C2049 1.433 . S
C2042 H2038 0.929 . S
C2042 C2044 1.378 . S
C2042 C2046 1.350 . S
C2043 C2046 1.463 . S
C2043 C2048 1.350 . S
C2043 N2051 1.427 . S
C2044 H2035 0.930 . S
C2044 C2042 1.378 . S
C2044 C2045 1.367 . S
C2045 C2044 1.367 . S
C2045 C2047 1.433 . S
C2046 C2042 1.350 . S
C2046 C2043 1.463 . S
C2046 N2050 1.427 . S
C2047 H2037 0.929 . S
C2047 C2045 1.433 . S
C2047 N2050 1.384 . S
C2048 H2039 0.929 . S
C2048 C2040 1.378 1_554 S
C2048 C2043 1.350 . S
C2049 H2036 0.929 . S
C2049 C2041 1.433 . S
C2049 N2051 1.384 . S
N2050 C2046 1.427 . S
N2050 C2047 1.384 . S
N2051 C2043 1.427 . S
N2051 C2049 1.384 . S
H2052 C2058 0.930 . S
H2053 C2062 0.930 . S
H2054 C2067 0.929 . S
H2055 C2065 0.929 . S
H2056 C2060 0.929 . S
H2057 C2066 0.929 . S
C2058 H2052 0.930 . S
C2058 C2059 1.367 . S
C2058 C2066 1.378 . S
C2059 C2058 1.367 . S
C2059 C2067 1.433 . S
C2060 H2056 0.929 . S
C2060 C2062 1.378 1_556 S
C2060 C2064 1.350 . S
C2061 C2064 1.463 . S
C2061 C2066 1.350 . S
C2061 N2069 1.427 . S
C2062 H2053 0.930 . S
C2062 C2060 1.378 1_554 S
C2062 C2063 1.367 . S
C2063 C2062 1.367 . S
C2063 C2065 1.433 . S
C2064 C2060 1.350 . S
C2064 C2061 1.463 . S
C2064 N2068 1.427 . S
C2065 H2055 0.929 . S
C2065 C2063 1.433 . S
C2065 N2068 1.384 1_554 S
C2066 H2057 0.929 . S
C2066 C2058 1.378 . S
C2066 C2061 1.350 . S
C2067 H2054 0.929 . S
C2067 C2059 1.433 . S
C2067 N2069 1.384 . S
N2068 C2064 1.427 . S
N2068 C2065 1.384 1_556 S
N2069 C2061 1.427 . S
N2069 C2067 1.384 . S
H2070 C2076 0.930 . S
H2071 C2080 0.930 . S
H2072 C2085 0.929 1_556 S
H2073 C2083 0.929 . S
H2074 C2078 0.929 . S
H2075 C2084 0.929 . S
C2076 H2070 0.930 . S
C2076 C2077 1.367 . S
C2076 C2084 1.378 . S
C2077 C2076 1.367 . S
C2077 C2085 1.433 . S
C2078 H2074 0.929 . S
C2078 C2080 1.378 . S
C2078 C2082 1.350 . S
C2079 C2082 1.463 . S
C2079 C2084 1.350 1_556 S
C2079 N2087 1.427 . S
C2080 H2071 0.930 . S
C2080 C2078 1.378 . S
C2080 C2081 1.367 . S
C2081 C2080 1.367 . S
C2081 C2083 1.433 . S
C2082 C2078 1.350 . S
C2082 C2079 1.463 . S
C2082 N2086 1.427 . S
C2083 H2073 0.929 . S
C2083 C2081 1.433 . S
C2083 N2086 1.384 . S
C2084 H2075 0.929 . S
C2084 C2076 1.378 . S
C2084 C2079 1.350 1_554 S
C2085 H2072 0.929 1_554 S
C2085 C2077 1.433 . S
C2085 N2087 1.384 1_554 S
N2086 C2082 1.427 . S
N2086 C2083 1.384 . S
N2087 C2079 1.427 . S
N2087 C2085 1.384 1_556 S
H2088 C2094 0.930 . S
H2089 C2098 0.930 . S
H2090 C2103 0.929 . S
H2091 C2101 0.929 . S
H2092 C2096 0.929 . S
H2093 C2102 0.929 . S
C2094 H2088 0.930 . S
C2094 C2095 1.367 . S
C2094 C2102 1.378 . S
C2095 C2094 1.367 . S
C2095 C2103 1.433 . S
C2096 H2092 0.929 . S
C2096 C2098 1.378 . S
C2096 C2100 1.350 1_554 S
C2097 C2100 1.463 . S
C2097 C2102 1.350 . S
C2097 N2105 1.427 . S
C2098 H2089 0.930 . S
C2098 C2096 1.378 . S
C2098 C2099 1.367 . S
C2099 C2098 1.367 . S
C2099 C2101 1.433 . S
C2100 C2096 1.350 1_556 S
C2100 C2097 1.463 . S
C2100 N2104 1.427 . S
C2101 H2091 0.929 . S
C2101 C2099 1.433 . S
C2101 N2104 1.384 1_554 S
C2102 H2093 0.929 . S
C2102 C2094 1.378 . S
C2102 C2097 1.350 . S
C2103 H2090 0.929 . S
C2103 C2095 1.433 . S
C2103 N2105 1.384 . S
N2104 C2100 1.427 . S
N2104 C2101 1.384 1_556 S
N2105 C2097 1.427 . S
N2105 C2103 1.384 . S
H2106 C2112 0.930 . S
H2107 C2116 0.930 . S
H2108 C2121 0.929 . S
H2109 C2119 0.929 . S
H2110 C2114 0.929 . S
H2111 C2120 0.929 . S
C2112 H2106 0.930 . S
C2112 C2113 1.367 . S
C2112 C2120 1.378 . S
C2113 C2112 1.367 . S
C2113 C2121 1.433 . S
C2114 H2110 0.929 . S
C2114 C2116 1.378 . S
C2114 C2118 1.350 . S
C2115 C2118 1.463 . S
C2115 C2120 1.350 . S
C2115 N2123 1.427 . S
C2116 H2107 0.930 . S
C2116 C2114 1.378 . S
C2116 C2117 1.367 . S
C2117 C2116 1.367 . S
C2117 C2119 1.433 . S
C2118 C2114 1.350 . S
C2118 C2115 1.463 . S
C2118 N2122 1.427 . S
C2119 H2109 0.929 . S
C2119 C2117 1.433 . S
C2119 N2122 1.384 . S
C2120 H2111 0.929 . S
C2120 C2112 1.378 . S
C2120 C2115 1.350 . S
C2121 H2108 0.929 . S
C2121 C2113 1.433 . S
C2121 N2123 1.384 . S
N2122 C2118 1.427 . S
N2122 C2119 1.384 . S
N2123 C2115 1.427 . S
N2123 C2121 1.384 . S
H2124 C2130 0.930 . S
H2125 C2134 0.930 . S
H2126 C2139 0.929 . S
H2127 C2137 0.929 . S
H2128 C2132 0.929 . S
H2129 C2138 0.929 . S
C2130 H2124 0.930 . S
C2130 C2131 1.367 . S
C2130 C2138 1.378 . S
C2131 C2130 1.367 . S
C2131 C2139 1.433 . S
C2132 H2128 0.929 . S
C2132 C2134 1.378 . S
C2132 C2136 1.350 . S
C2133 C2136 1.463 . S
C2133 C2138 1.350 . S
C2133 N2141 1.427 . S
C2134 H2125 0.930 . S
C2134 C2132 1.378 . S
C2134 C2135 1.367 . S
C2135 C2134 1.367 . S
C2135 C2137 1.433 . S
C2136 C2132 1.350 . S
C2136 C2133 1.463 . S
C2136 N2140 1.427 . S
C2137 H2127 0.929 . S
C2137 C2135 1.433 . S
C2137 N2140 1.384 . S
C2138 H2129 0.929 . S
C2138 C2130 1.378 . S
C2138 C2133 1.350 . S
C2139 H2126 0.929 . S
C2139 C2131 1.433 . S
C2139 N2141 1.384 . S
N2140 C2136 1.427 . S
N2140 C2137 1.384 . S
N2141 C2133 1.427 . S
N2141 C2139 1.384 . S
H2142 C2148 0.930 . S
H2143 C2152 0.930 . S
H2144 C2157 0.929 . S
H2145 C2155 0.929 . S
H2146 C2150 0.929 . S
H2147 C2156 0.929 . S
C2148 H2142 0.930 . S
C2148 C2149 1.367 . S
C2148 C2156 1.378 . S
C2149 C2148 1.367 . S
C2149 C2157 1.433 . S
C2150 H2146 0.929 . S
C2150 C2152 1.378 . S
C2150 C2154 1.350 . S
C2151 C2154 1.463 . S
C2151 C2156 1.350 . S
C2151 N2159 1.427 . S
C2152 H2143 0.930 . S
C2152 C2150 1.378 . S
C2152 C2153 1.367 . S
C2153 C2152 1.367 . S
C2153 C2155 1.433 . S
C2154 C2150 1.350 . S
C2154 C2151 1.463 . S
C2154 N2158 1.427 . S
C2155 H2145 0.929 . S
C2155 C2153 1.433 . S
C2155 N2158 1.384 . S
C2156 H2147 0.929 . S
C2156 C2148 1.378 . S
C2156 C2151 1.350 . S
C2157 H2144 0.929 . S
C2157 C2149 1.433 . S
C2157 N2159 1.384 . S
N2158 C2154 1.427 . S
N2158 C2155 1.384 . S
N2159 C2151 1.427 . S
N2159 C2157 1.384 . S
H2160 C2166 0.930 . S
H2161 C2170 0.930 . S
H2162 C2175 0.929 . S
H2163 C2173 0.929 . S
H2164 C2168 0.929 . S
H2165 C2174 0.929 . S
C2166 H2160 0.930 . S
C2166 C2167 1.367 . S
C2166 C2174 1.378 . S
C2167 C2166 1.367 . S
C2167 C2175 1.433 . S
C2168 H2164 0.929 . S
C2168 C2170 1.378 . S
C2168 C2172 1.350 . S
C2169 C2172 1.463 . S
C2169 C2174 1.350 . S
C2169 N2177 1.427 . S
C2170 H2161 0.930 . S
C2170 C2168 1.378 . S
C2170 C2171 1.367 . S
C2171 C2170 1.367 . S
C2171 C2173 1.433 . S
C2172 C2168 1.350 . S
C2172 C2169 1.463 . S
C2172 N2176 1.427 . S
C2173 H2163 0.929 . S
C2173 C2171 1.433 . S
C2173 N2176 1.384 . S
C2174 H2165 0.929 . S
C2174 C2166 1.378 . S
C2174 C2169 1.350 . S
C2175 H2162 0.929 . S
C2175 C2167 1.433 . S
C2175 N2177 1.384 . S
N2176 C2172 1.427 . S
N2176 C2173 1.384 . S
N2177 C2169 1.427 . S
N2177 C2175 1.384 . S
H2178 C2184 0.930 . S
H2179 C2188 0.930 . S
H2180 C2193 0.929 . S
H2181 C2191 0.929 . S
H2182 C2186 0.929 . S
H2183 C2192 0.929 . S
C2184 H2178 0.930 . S
C2184 C2185 1.367 . S
C2184 C2192 1.378 . S
C2185 C2184 1.367 . S
C2185 C2193 1.433 . S
C2186 H2182 0.929 . S
C2186 C2188 1.378 . S
C2186 C2190 1.350 . S
C2187 C2190 1.463 1_545 S
C2187 C2192 1.350 . S
C2187 N2195 1.427 . S
C2188 H2179 0.930 . S
C2188 C2186 1.378 . S
C2188 C2189 1.367 . S
C2189 C2188 1.367 . S
C2189 C2191 1.433 . S
C2190 C2186 1.350 . S
C2190 C2187 1.463 1_565 S
C2190 N2194 1.427 . S
C2191 H2181 0.929 . S
C2191 C2189 1.433 . S
C2191 N2194 1.384 . S
C2192 H2183 0.929 . S
C2192 C2184 1.378 . S
C2192 C2187 1.350 . S
C2193 H2180 0.929 . S
C2193 C2185 1.433 . S
C2193 N2195 1.384 . S
N2194 C2190 1.427 . S
N2194 C2191 1.384 . S
N2195 C2187 1.427 . S
N2195 C2193 1.384 . S
H2196 C2202 0.930 . S
H2197 C2206 0.930 . S
H2198 C2211 0.929 . S
H2199 C2209 0.929 . S
H2200 C2204 0.929 . S
H2201 C2210 0.929 . S
C2202 H2196 0.930 . S
C2202 C2203 1.367 . S
C2202 C2210 1.378 . S
C2203 C2202 1.367 . S
C2203 C2211 1.433 . S
C2204 H2200 0.929 . S
C2204 C2206 1.378 . S
C2204 C2208 1.350 . S
C2205 C2208 1.463 1_455 S
C2205 C2210 1.350 . S
C2205 N2213 1.427 . S
C2206 H2197 0.930 . S
C2206 C2204 1.378 . S
C2206 C2207 1.367 . S
C2207 C2206 1.367 . S
C2207 C2209 1.433 . S
C2208 C2204 1.350 . S
C2208 C2205 1.463 1_655 S
C2208 N2212 1.427 . S
C2209 H2199 0.929 . S
C2209 C2207 1.433 . S
C2209 N2212 1.384 . S
C2210 H2201 0.929 . S
C2210 C2202 1.378 . S
C2210 C2205 1.350 . S
C2211 H2198 0.929 . S
C2211 C2203 1.433 . S
C2211 N2213 1.384 . S
N2212 C2208 1.427 . S
N2212 C2209 1.384 . S
N2213 C2205 1.427 . S
N2213 C2211 1.384 . S
H2214 C2220 0.930 . S
H2215 C2224 0.930 . S
H2216 C2229 0.929 . S
H2217 C2227 0.929 . S
H2218 C2222 0.929 . S
H2219 C2228 0.929 . S
C2220 H2214 0.930 . S
C2220 C2221 1.367 . S
C2220 C2228 1.378 . S
C2221 C2220 1.367 . S
C2221 C2229 1.433 . S
C2222 H2218 0.929 . S
C2222 C2224 1.378 . S
C2222 C2226 1.350 . S
C2223 C2226 1.463 . S
C2223 C2228 1.350 . S
C2223 N2231 1.427 . S
C2224 H2215 0.930 . S
C2224 C2222 1.378 . S
C2224 C2225 1.367 . S
C2225 C2224 1.367 . S
C2225 C2227 1.433 . S
C2226 C2222 1.350 . S
C2226 C2223 1.463 . S
C2226 N2230 1.427 . S
C2227 H2217 0.929 . S
C2227 C2225 1.433 . S
C2227 N2230 1.384 . S
C2228 H2219 0.929 . S
C2228 C2220 1.378 . S
C2228 C2223 1.350 . S
C2229 H2216 0.929 . S
C2229 C2221 1.433 . S
C2229 N2231 1.384 . S
N2230 C2226 1.427 . S
N2230 C2227 1.384 . S
N2231 C2223 1.427 . S
N2231 C2229 1.384 . S
H2232 C2238 0.930 . S
H2233 C2242 0.930 . S
H2234 C2247 0.929 . S
H2235 C2245 0.929 . S
H2236 C2240 0.929 1_545 S
H2237 C2246 0.929 1_565 S
C2238 H2232 0.930 . S
C2238 C2239 1.367 . S
C2238 C2246 1.378 . S
C2239 C2238 1.367 . S
C2239 C2247 1.433 . S
C2240 H2236 0.929 1_565 S
C2240 C2242 1.378 . S
C2240 C2244 1.350 . S
C2241 C2244 1.463 1_545 S
C2241 C2246 1.350 . S
C2241 N2249 1.427 . S
C2242 H2233 0.930 . S
C2242 C2240 1.378 . S
C2242 C2243 1.367 . S
C2243 C2242 1.367 . S
C2243 C2245 1.433 . S
C2244 C2240 1.350 . S
C2244 C2241 1.463 1_565 S
C2244 N2248 1.427 . S
C2245 H2235 0.929 . S
C2245 C2243 1.433 . S
C2245 N2248 1.384 . S
C2246 H2237 0.929 1_545 S
C2246 C2238 1.378 . S
C2246 C2241 1.350 . S
C2247 H2234 0.929 . S
C2247 C2239 1.433 . S
C2247 N2249 1.384 . S
N2248 C2244 1.427 . S
N2248 C2245 1.384 . S
N2249 C2241 1.427 . S
N2249 C2247 1.384 . S
H2250 C2256 0.930 . S
H2251 C2260 0.930 . S
H2252 C2265 0.929 . S
H2253 C2263 0.929 . S
H2254 C2258 0.929 . S
H2255 C2264 0.929 . S
C2256 H2250 0.930 . S
C2256 C2257 1.367 . S
C2256 C2264 1.378 . S
C2257 C2256 1.367 . S
C2257 C2265 1.433 . S
C2258 H2254 0.929 . S
C2258 C2260 1.378 . S
C2258 C2262 1.350 . S
C2259 C2262 1.463 1_655 S
C2259 C2264 1.350 . S
C2259 N2267 1.427 . S
C2260 H2251 0.930 . S
C2260 C2258 1.378 . S
C2260 C2261 1.367 . S
C2261 C2260 1.367 . S
C2261 C2263 1.433 . S
C2262 C2258 1.350 . S
C2262 C2259 1.463 1_455 S
C2262 N2266 1.427 . S
C2263 H2253 0.929 . S
C2263 C2261 1.433 . S
C2263 N2266 1.384 . S
C2264 H2255 0.929 . S
C2264 C2256 1.378 . S
C2264 C2259 1.350 . S
C2265 H2252 0.929 . S
C2265 C2257 1.433 . S
C2265 N2267 1.384 . S
N2266 C2262 1.427 . S
N2266 C2263 1.384 . S
N2267 C2259 1.427 . S
N2267 C2265 1.384 . S
H2268 C2274 0.930 . S
H2269 C2278 0.930 . S
H2270 C2283 0.929 . S
H2271 C2281 0.929 1_556 S
H2272 C2276 0.929 . S
H2273 C2282 0.929 . S
C2274 H2268 0.930 . S
C2274 C2275 1.367 . S
C2274 C2282 1.378 . S
C2275 C2274 1.367 . S
C2275 C2283 1.433 . S
C2276 H2272 0.929 . S
C2276 C2278 1.378 . S
C2276 C2280 1.350 . S
C2277 C2280 1.463 . S
C2277 C2282 1.350 . S
C2277 N2285 1.427 . S
C2278 H2269 0.930 . S
C2278 C2276 1.378 . S
C2278 C2279 1.367 . S
C2279 C2278 1.367 . S
C2279 C2281 1.433 . S
C2280 C2276 1.350 . S
C2280 C2277 1.463 . S
C2280 N2284 1.427 . S
C2281 H2271 0.929 1_554 S
C2281 C2279 1.433 . S
C2281 N2284 1.384 . S
C2282 H2273 0.929 . S
C2282 C2274 1.378 . S
C2282 C2277 1.350 . S
C2283 H2270 0.929 . S
C2283 C2275 1.433 . S
C2283 N2285 1.384 . S
N2284 C2280 1.427 . S
N2284 C2281 1.384 . S
N2285 C2277 1.427 . S
N2285 C2283 1.384 . S
H2286 C2292 0.930 . S
H2287 C2296 0.930 . S
H2288 C2301 0.929 . S
H2289 C2299 0.929 . S
H2290 C2294 0.929 . S
H2291 C2300 0.929 . S
C2292 H2286 0.930 . S
C2292 C2293 1.367 . S
C2292 C2300 1.378 . S
C2293 C2292 1.367 . S
C2293 C2301 1.433 . S
C2294 H2290 0.929 . S
C2294 C2296 1.378 . S
C2294 C2298 1.350 . S
C2295 C2298 1.463 . S
C2295 C2300 1.350 . S
C2295 N2303 1.427 . S
C2296 H2287 0.930 . S
C2296 C2294 1.378 . S
C2296 C2297 1.367 . S
C2297 C2296 1.367 . S
C2297 C2299 1.433 1_554 S
C2298 C2294 1.350 . S
C2298 C2295 1.463 . S
C2298 N2302 1.427 . S
C2299 H2289 0.929 . S
C2299 C2297 1.433 1_556 S
C2299 N2302 1.384 1_556 S
C2300 H2291 0.929 . S
C2300 C2292 1.378 . S
C2300 C2295 1.350 . S
C2301 H2288 0.929 . S
C2301 C2293 1.433 . S
C2301 N2303 1.384 . S
N2302 C2298 1.427 . S
N2302 C2299 1.384 1_554 S
N2303 C2295 1.427 . S
N2303 C2301 1.384 . S
H2304 C2310 0.930 . S
H2305 C2314 0.930 . S
H2306 C2319 0.937 . S
H2307 C2317 0.929 . S
H2308 C2312 0.929 . S
H2309 C2318 0.929 . S
C2310 H2304 0.930 . S
C2310 C2311 1.367 . S
C2310 C2318 1.378 . S
C2311 C2310 1.367 . S
C2311 C2319 1.433 . S
C2312 H2308 0.929 . S
C2312 C2314 1.378 . S
C2312 C2316 1.350 . S
C2313 C2316 1.463 . S
C2313 C2318 1.350 . S
C2313 N2321 1.427 . S
C2314 H2305 0.930 . S
C2314 C2312 1.378 . S
C2314 C2315 1.367 . S
C2315 C2314 1.367 . S
C2315 C2317 1.433 . S
C2316 C2312 1.350 . S
C2316 C2313 1.463 . S
C2316 N2320 1.427 . S
C2317 H2307 0.929 . S
C2317 C2315 1.433 . S
C2317 N2320 1.384 . S
C2318 H2309 0.929 . S
C2318 C2310 1.378 . S
C2318 C2313 1.350 . S
C2319 H2306 0.937 . S
C2319 C2311 1.433 . S
C2319 N2321 1.384 . S
N2320 C2316 1.427 . S
N2320 C2317 1.384 . S
N2321 C2313 1.427 . S
N2321 C2319 1.384 . S
H2322 C2328 0.930 . S
H2323 C2332 0.930 . S
H2324 C2337 0.929 . S
H2325 C2335 0.929 . S
H2326 C2330 0.929 . S
H2327 C2336 0.929 . S
C2328 H2322 0.930 . S
C2328 C2329 1.367 . S
C2328 C2336 1.378 . S
C2329 C2328 1.367 . S
C2329 C2337 1.433 . S
C2330 H2326 0.929 . S
C2330 C2332 1.378 . S
C2330 C2334 1.350 . S
C2331 C2334 1.463 . S
C2331 C2336 1.350 . S
C2331 N2339 1.427 . S
C2332 H2323 0.930 . S
C2332 C2330 1.378 . S
C2332 C2333 1.367 . S
C2333 C2332 1.367 . S
C2333 C2335 1.433 . S
C2334 C2330 1.350 . S
C2334 C2331 1.463 . S
C2334 N2338 1.427 . S
C2335 H2325 0.929 . S
C2335 C2333 1.433 . S
C2335 N2338 1.384 . S
C2336 H2327 0.929 . S
C2336 C2328 1.378 . S
C2336 C2331 1.350 . S
C2337 H2324 0.929 . S
C2337 C2329 1.433 . S
C2337 N2339 1.384 . S
N2338 C2334 1.427 . S
N2338 C2335 1.384 . S
N2339 C2331 1.427 . S
N2339 C2337 1.384 . S
H2340 C2346 0.930 . S
H2341 C2350 0.930 . S
H2342 C2355 0.929 . S
H2343 C2353 0.929 . S
H2344 C2348 0.929 . S
H2345 C2354 0.929 . S
C2346 H2340 0.930 . S
C2346 C2347 1.367 . S
C2346 C2354 1.378 . S
C2347 C2346 1.367 . S
C2347 C2355 1.433 . S
C2348 H2344 0.929 . S
C2348 C2350 1.378 . S
C2348 C2352 1.350 . S
C2349 C2352 1.463 . S
C2349 C2354 1.350 . S
C2349 N2357 1.427 . S
C2350 H2341 0.930 . S
C2350 C2348 1.378 . S
C2350 C2351 1.367 . S
C2351 C2350 1.367 . S
C2351 C2353 1.433 . S
C2352 C2348 1.350 . S
C2352 C2349 1.463 . S
C2352 N2356 1.427 . S
C2353 H2343 0.929 . S
C2353 C2351 1.433 . S
C2353 N2356 1.384 . S
C2354 H2345 0.929 . S
C2354 C2346 1.378 . S
C2354 C2349 1.350 . S
C2355 H2342 0.929 . S
C2355 C2347 1.433 . S
C2355 N2357 1.384 . S
N2356 C2352 1.427 . S
N2356 C2353 1.384 . S
N2357 C2349 1.427 . S
N2357 C2355 1.384 . S
H2358 C2364 0.930 . S
H2359 C2368 0.930 . S
H2360 C2373 0.929 . S
H2361 C2371 0.929 . S
H2362 C2366 0.929 . S
H2363 C2372 0.929 . S
C2364 H2358 0.930 . S
C2364 C2365 1.367 . S
C2364 C2372 1.378 . S
C2365 C2364 1.367 . S
C2365 C2373 1.433 . S
C2366 H2362 0.929 . S
C2366 C2368 1.378 . S
C2366 C2370 1.350 . S
C2367 C2370 1.463 . S
C2367 C2372 1.350 . S
C2367 N2375 1.427 . S
C2368 H2359 0.930 . S
C2368 C2366 1.378 . S
C2368 C2369 1.367 . S
C2369 C2368 1.367 . S
C2369 C2371 1.433 . S
C2370 C2366 1.350 . S
C2370 C2367 1.463 . S
C2370 N2374 1.427 . S
C2371 H2361 0.929 . S
C2371 C2369 1.433 . S
C2371 N2374 1.384 . S
C2372 H2363 0.929 . S
C2372 C2364 1.378 . S
C2372 C2367 1.350 . S
C2373 H2360 0.929 . S
C2373 C2365 1.433 . S
C2373 N2375 1.384 . S
N2374 C2370 1.427 . S
N2374 C2371 1.384 . S
N2375 C2367 1.427 . S
N2375 C2373 1.384 . S
H2376 C2382 0.930 . S
H2377 C2386 0.930 . S
H2378 C2391 0.929 . S
H2379 C2389 0.929 . S
H2380 C2384 0.929 . S
H2381 C2390 0.929 . S
C2382 H2376 0.930 . S
C2382 C2383 1.367 . S
C2382 C2390 1.378 . S
C2383 C2382 1.367 . S
C2383 C2391 1.433 . S
C2384 H2380 0.929 . S
C2384 C2386 1.378 . S
C2384 C2388 1.350 . S
C2385 C2388 1.463 . S
C2385 C2390 1.350 . S
C2385 N2393 1.427 . S
C2386 H2377 0.930 . S
C2386 C2384 1.378 . S
C2386 C2387 1.367 . S
C2387 C2386 1.367 . S
C2387 C2389 1.433 . S
C2388 C2384 1.350 . S
C2388 C2385 1.463 . S
C2388 N2392 1.427 . S
C2389 H2379 0.929 . S
C2389 C2387 1.433 . S
C2389 N2392 1.384 . S
C2390 H2381 0.929 . S
C2390 C2382 1.378 . S
C2390 C2385 1.350 . S
C2391 H2378 0.929 . S
C2391 C2383 1.433 . S
C2391 N2393 1.384 . S
N2392 C2388 1.427 . S
N2392 C2389 1.384 . S
N2393 C2385 1.427 . S
N2393 C2391 1.384 . S
H2394 C2400 0.930 . S
H2395 C2404 0.930 . S
H2396 C2409 0.929 . S
H2397 C2407 0.929 . S
H2398 C2402 0.929 . S
H2399 C2408 0.929 . S
C2400 H2394 0.930 . S
C2400 C2401 1.367 . S
C2400 C2408 1.378 . S
C2401 C2400 1.367 . S
C2401 C2409 1.433 . S
C2402 H2398 0.929 . S
C2402 C2404 1.378 . S
C2402 C2406 1.350 . S
C2403 C2406 1.463 . S
C2403 C2408 1.350 . S
C2403 N2411 1.427 . S
C2404 H2395 0.930 . S
C2404 C2402 1.378 . S
C2404 C2405 1.367 . S
C2405 C2404 1.367 . S
C2405 C2407 1.433 . S
C2406 C2402 1.350 . S
C2406 C2403 1.463 . S
C2406 N2410 1.427 . S
C2407 H2397 0.929 . S
C2407 C2405 1.433 . S
C2407 N2410 1.384 . S
C2408 H2399 0.929 . S
C2408 C2400 1.378 . S
C2408 C2403 1.350 . S
C2409 H2396 0.929 . S
C2409 C2401 1.433 . S
C2409 N2411 1.384 . S
N2410 C2406 1.427 . S
N2410 C2407 1.384 . S
N2411 C2403 1.427 . S
N2411 C2409 1.384 . S
H2412 C2418 0.930 . S
H2413 C2422 0.930 . S
H2414 C2427 0.929 . S
H2415 C2425 0.929 . S
H2416 C2420 0.929 . S
H2417 C2426 0.929 . S
C2418 H2412 0.930 . S
C2418 C2419 1.367 . S
C2418 C2426 1.378 . S
C2419 C2418 1.367 . S
C2419 C2427 1.433 . S
C2420 H2416 0.929 . S
C2420 C2422 1.378 . S
C2420 C2424 1.350 . S
C2421 C2424 1.463 . S
C2421 C2426 1.350 . S
C2421 N2429 1.427 . S
C2422 H2413 0.930 . S
C2422 C2420 1.378 . S
C2422 C2423 1.367 . S
C2423 C2422 1.367 . S
C2423 C2425 1.433 . S
C2424 C2420 1.350 . S
C2424 C2421 1.463 . S
C2424 N2428 1.427 . S
C2425 H2415 0.929 . S
C2425 C2423 1.433 . S
C2425 N2428 1.384 . S
C2426 H2417 0.929 . S
C2426 C2418 1.378 . S
C2426 C2421 1.350 . S
C2427 H2414 0.929 . S
C2427 C2419 1.433 . S
C2427 N2429 1.384 . S
N2428 C2424 1.427 . S
N2428 C2425 1.384 . S
N2429 C2421 1.427 . S
N2429 C2427 1.384 . S
H2430 C2436 0.930 . S
H2431 C2440 0.930 . S
H2432 C2445 0.929 . S
H2433 C2443 0.929 . S
H2434 C2438 0.929 . S
H2435 C2444 0.929 . S
C2436 H2430 0.930 . S
C2436 C2437 1.367 . S
C2436 C2444 1.378 1_554 S
C2437 C2436 1.367 . S
C2437 C2445 1.433 . S
C2438 H2434 0.929 . S
C2438 C2440 1.378 . S
C2438 C2442 1.350 . S
C2439 C2442 1.463 . S
C2439 C2444 1.350 . S
C2439 N2447 1.427 . S
C2440 H2431 0.930 . S
C2440 C2438 1.378 . S
C2440 C2441 1.367 . S
C2441 C2440 1.367 . S
C2441 C2443 1.433 . S
C2442 C2438 1.350 . S
C2442 C2439 1.463 . S
C2442 N2446 1.427 . S
C2443 H2433 0.929 . S
C2443 C2441 1.433 . S
C2443 N2446 1.384 . S
C2444 H2435 0.929 . S
C2444 C2436 1.378 1_556 S
C2444 C2439 1.350 . S
C2445 H2432 0.929 . S
C2445 C2437 1.433 . S
C2445 N2447 1.384 1_554 S
N2446 C2442 1.427 . S
N2446 C2443 1.384 . S
N2447 C2439 1.427 . S
N2447 C2445 1.384 1_556 S
H2448 C2454 0.930 . S
H2449 C2458 0.930 . S
H2450 C2463 0.929 . S
H2451 C2461 0.929 . S
H2452 C2456 0.929 . S
H2453 C2462 0.929 . S
C2454 H2448 0.930 . S
C2454 C2455 1.367 1_556 S
C2454 C2462 1.378 . S
C2455 C2454 1.367 1_554 S
C2455 C2463 1.433 . S
C2456 H2452 0.929 . S
C2456 C2458 1.378 . S
C2456 C2460 1.350 . S
C2457 C2460 1.463 . S
C2457 C2462 1.350 . S
C2457 N2465 1.427 1_556 S
C2458 H2449 0.930 . S
C2458 C2456 1.378 . S
C2458 C2459 1.367 . S
C2459 C2458 1.367 . S
C2459 C2461 1.433 . S
C2460 C2456 1.350 . S
C2460 C2457 1.463 . S
C2460 N2464 1.427 . S
C2461 H2451 0.929 . S
C2461 C2459 1.433 . S
C2461 N2464 1.384 . S
C2462 H2453 0.929 . S
C2462 C2454 1.378 . S
C2462 C2457 1.350 . S
C2463 H2450 0.929 . S
C2463 C2455 1.433 . S
C2463 N2465 1.384 . S
N2464 C2460 1.427 . S
N2464 C2461 1.384 . S
N2465 C2457 1.427 1_554 S
N2465 C2463 1.384 . S
H2466 C2472 0.930 . S
H2467 C2476 0.930 . S
H2468 C2481 0.929 . S
H2469 C2479 0.929 . S
H2470 C2474 0.929 . S
H2471 C2480 0.929 . S
C2472 H2466 0.930 . S
C2472 C2473 1.367 . S
C2472 C2480 1.378 . S
C2473 C2472 1.367 . S
C2473 C2481 1.433 1_554 S
C2474 H2470 0.929 . S
C2474 C2476 1.378 . S
C2474 C2478 1.350 . S
C2475 C2478 1.463 . S
C2475 C2480 1.350 1_556 S
C2475 N2483 1.427 . S
C2476 H2467 0.930 . S
C2476 C2474 1.378 . S
C2476 C2477 1.367 . S
C2477 C2476 1.367 . S
C2477 C2479 1.433 . S
C2478 C2474 1.350 . S
C2478 C2475 1.463 . S
C2478 N2482 1.427 . S
C2479 H2469 0.929 . S
C2479 C2477 1.433 . S
C2479 N2482 1.384 . S
C2480 H2471 0.929 . S
C2480 C2472 1.378 . S
C2480 C2475 1.350 1_554 S
C2481 H2468 0.929 . S
C2481 C2473 1.433 1_556 S
C2481 N2483 1.384 . S
N2482 C2478 1.427 . S
N2482 C2479 1.384 . S
N2483 C2475 1.427 . S
N2483 C2481 1.384 . S
H2484 C2490 0.930 . S
H2485 C2494 0.930 . S
H2486 C2499 0.929 . S
H2487 C2497 0.929 . S
H2488 C2492 0.929 1_554 S
H2489 C2498 0.929 . S
C2490 H2484 0.930 . S
C2490 C2491 1.367 . S
C2490 C2498 1.378 . S
C2491 C2490 1.367 . S
C2491 C2499 1.433 1_556 S
C2492 H2488 0.929 1_556 S
C2492 C2494 1.378 . S
C2492 C2496 1.350 . S
C2493 C2496 1.463 . S
C2493 C2498 1.350 . S
C2493 N2501 1.427 1_556 S
C2494 H2485 0.930 . S
C2494 C2492 1.378 . S
C2494 C2495 1.367 . S
C2495 C2494 1.367 . S
C2495 C2497 1.433 . S
C2496 C2492 1.350 . S
C2496 C2493 1.463 . S
C2496 N2500 1.427 . S
C2497 H2487 0.929 . S
C2497 C2495 1.433 . S
C2497 N2500 1.384 . S
C2498 H2489 0.929 . S
C2498 C2490 1.378 . S
C2498 C2493 1.350 . S
C2499 H2486 0.929 . S
C2499 C2491 1.433 1_554 S
C2499 N2501 1.384 . S
N2500 C2496 1.427 . S
N2500 C2497 1.384 . S
N2501 C2493 1.427 1_554 S
N2501 C2499 1.384 . S
H2502 C2508 0.930 . S
H2503 C2512 0.930 . S
H2504 C2517 0.929 . S
H2505 C2515 0.929 1_554 S
H2506 C2510 0.929 . S
H2507 C2516 0.929 . S
C2508 H2502 0.930 . S
C2508 C2509 1.367 1_554 S
C2508 C2516 1.378 . S
C2509 C2508 1.367 1_556 S
C2509 C2517 1.433 . S
C2510 H2506 0.929 . S
C2510 C2512 1.378 . S
C2510 C2514 1.350 . S
C2511 C2514 1.463 . S
C2511 C2516 1.350 1_556 S
C2511 N2519 1.427 . S
C2512 H2503 0.930 . S
C2512 C2510 1.378 . S
C2512 C2513 1.367 . S
C2513 C2512 1.367 . S
C2513 C2515 1.433 . S
C2514 C2510 1.350 . S
C2514 C2511 1.463 . S
C2514 N2518 1.427 . S
C2515 H2505 0.929 1_556 S
C2515 C2513 1.433 . S
C2515 N2518 1.384 . S
C2516 H2507 0.929 . S
C2516 C2508 1.378 . S
C2516 C2511 1.350 1_554 S
C2517 H2504 0.929 . S
C2517 C2509 1.433 . S
C2517 N2519 1.384 . S
N2518 C2514 1.427 . S
N2518 C2515 1.384 . S
N2519 C2511 1.427 . S
N2519 C2517 1.384 . S
H2520 C2526 0.930 . S
H2521 C2530 0.930 . S
H2522 C2535 0.929 . S
H2523 C2533 0.929 . S
H2524 C2528 0.929 . S
H2525 C2534 0.929 . S
C2526 H2520 0.930 . S
C2526 C2527 1.367 . S
C2526 C2534 1.378 . S
C2527 C2526 1.367 . S
C2527 C2535 1.433 . S
C2528 H2524 0.929 . S
C2528 C2530 1.378 . S
C2528 C2532 1.350 . S
C2529 C2532 1.463 . S
C2529 C2534 1.350 . S
C2529 N2537 1.427 . S
C2530 H2521 0.930 . S
C2530 C2528 1.378 . S
C2530 C2531 1.367 . S
C2531 C2530 1.367 . S
C2531 C2533 1.433 1_556 S
C2532 C2528 1.350 . S
C2532 C2529 1.463 . S
C2532 N2536 1.427 . S
C2533 H2523 0.929 . S
C2533 C2531 1.433 1_554 S
C2533 N2536 1.384 1_554 S
C2534 H2525 0.929 . S
C2534 C2526 1.378 . S
C2534 C2529 1.350 . S
C2535 H2522 0.929 . S
C2535 C2527 1.433 . S
C2535 N2537 1.384 . S
N2536 C2532 1.427 . S
N2536 C2533 1.384 1_556 S
N2537 C2529 1.427 . S
N2537 C2535 1.384 . S
H2538 C2544 0.930 . S
H2539 C2548 0.930 . S
H2540 C2553 0.929 . S
H2541 C2551 0.929 . S
H2542 C2546 0.929 . S
H2543 C2552 0.929 . S
C2544 H2538 0.930 . S
C2544 C2545 1.367 . S
C2544 C2552 1.378 . S
C2545 C2544 1.367 . S
C2545 C2553 1.433 . S
C2546 H2542 0.929 . S
C2546 C2548 1.378 . S
C2546 C2550 1.350 . S
C2547 C2550 1.463 . S
C2547 C2552 1.350 . S
C2547 N2555 1.427 . S
C2548 H2539 0.930 . S
C2548 C2546 1.378 . S
C2548 C2549 1.367 . S
C2549 C2548 1.367 . S
C2549 C2551 1.433 . S
C2550 C2546 1.350 . S
C2550 C2547 1.463 . S
C2550 N2554 1.427 . S
C2551 H2541 0.929 . S
C2551 C2549 1.433 . S
C2551 N2554 1.384 . S
C2552 H2543 0.929 . S
C2552 C2544 1.378 . S
C2552 C2547 1.350 . S
C2553 H2540 0.929 . S
C2553 C2545 1.433 . S
C2553 N2555 1.384 . S
N2554 C2550 1.427 . S
N2554 C2551 1.384 . S
N2555 C2547 1.427 . S
N2555 C2553 1.384 . S
H2556 C2562 0.930 . S
H2557 C2566 0.930 . S
H2558 C2571 0.929 . S
H2559 C2569 0.929 . S
H2560 C2564 0.929 . S
H2561 C2570 0.929 . S
C2562 H2556 0.930 . S
C2562 C2563 1.367 . S
C2562 C2570 1.378 . S
C2563 C2562 1.367 . S
C2563 C2571 1.433 . S
C2564 H2560 0.929 . S
C2564 C2566 1.378 . S
C2564 C2568 1.350 . S
C2565 C2568 1.463 . S
C2565 C2570 1.350 . S
C2565 N2573 1.427 . S
C2566 H2557 0.930 . S
C2566 C2564 1.378 . S
C2566 C2567 1.367 . S
C2567 C2566 1.367 . S
C2567 C2569 1.433 . S
C2568 C2564 1.350 . S
C2568 C2565 1.463 . S
C2568 N2572 1.427 . S
C2569 H2559 0.929 . S
C2569 C2567 1.433 . S
C2569 N2572 1.384 . S
C2570 H2561 0.929 . S
C2570 C2562 1.378 . S
C2570 C2565 1.350 . S
C2571 H2558 0.929 . S
C2571 C2563 1.433 . S
C2571 N2573 1.384 . S
N2572 C2568 1.427 . S
N2572 C2569 1.384 . S
N2573 C2565 1.427 . S
N2573 C2571 1.384 . S
H2574 C2580 0.930 . S
H2575 C2584 0.930 . S
H2576 C2589 0.929 . S
H2577 C2587 0.929 . S
H2578 C2582 0.929 . S
H2579 C2588 0.929 . S
C2580 H2574 0.930 . S
C2580 C2581 1.367 . S
C2580 C2588 1.378 . S
C2581 C2580 1.367 . S
C2581 C2589 1.433 . S
C2582 H2578 0.929 . S
C2582 C2584 1.378 . S
C2582 C2586 1.350 . S
C2583 C2586 1.463 . S
C2583 C2588 1.350 . S
C2583 N2591 1.427 . S
C2584 H2575 0.930 . S
C2584 C2582 1.378 . S
C2584 C2585 1.367 . S
C2585 C2584 1.367 . S
C2585 C2587 1.433 . S
C2586 C2582 1.350 . S
C2586 C2583 1.463 . S
C2586 N2590 1.427 . S
C2587 H2577 0.929 . S
C2587 C2585 1.433 . S
C2587 N2590 1.384 . S
C2588 H2579 0.929 . S
C2588 C2580 1.378 . S
C2588 C2583 1.350 . S
C2589 H2576 0.929 . S
C2589 C2581 1.433 . S
C2589 N2591 1.384 . S
N2590 C2586 1.427 . S
N2590 C2587 1.384 . S
N2591 C2583 1.427 . S
N2591 C2589 1.384 . S
H2592 C2598 0.930 . S
H2593 C2602 0.930 1_556 S
H2594 C2607 0.929 . S
H2595 C2605 0.929 . S
H2596 C2600 0.929 . S
H2597 C2606 0.929 . S
C2598 H2592 0.930 . S
C2598 C2599 1.367 . S
C2598 C2606 1.378 . S
C2599 C2598 1.367 . S
C2599 C2607 1.433 . S
C2600 H2596 0.929 . S
C2600 C2602 1.378 . S
C2600 C2604 1.350 . S
C2601 C2604 1.463 . S
C2601 C2606 1.350 . S
C2601 N2609 1.427 . S
C2602 H2593 0.930 1_554 S
C2602 C2600 1.378 . S
C2602 C2603 1.367 . S
C2603 C2602 1.367 . S
C2603 C2605 1.433 . S
C2604 C2600 1.350 . S
C2604 C2601 1.463 . S
C2604 N2608 1.427 . S
C2605 H2595 0.929 . S
C2605 C2603 1.433 . S
C2605 N2608 1.384 . S
C2606 H2597 0.929 . S
C2606 C2598 1.378 . S
C2606 C2601 1.350 . S
C2607 H2594 0.929 . S
C2607 C2599 1.433 . S
C2607 N2609 1.384 . S
N2608 C2604 1.427 . S
N2608 C2605 1.384 . S
N2609 C2601 1.427 . S
N2609 C2607 1.384 . S
H2610 C2616 0.930 . S
H2611 C2620 0.930 1_556 S
H2612 C2625 0.929 . S
H2613 C2623 0.929 . S
H2614 C2618 0.929 . S
H2615 C2624 0.929 . S
C2616 H2610 0.930 . S
C2616 C2617 1.367 . S
C2616 C2624 1.378 . S
C2617 C2616 1.367 . S
C2617 C2625 1.433 . S
C2618 H2614 0.929 . S
C2618 C2620 1.378 . S
C2618 C2622 1.350 . S
C2619 C2622 1.463 . S
C2619 C2624 1.350 . S
C2619 N2627 1.427 . S
C2620 H2611 0.930 1_554 S
C2620 C2618 1.378 . S
C2620 C2621 1.367 . S
C2621 C2620 1.367 . S
C2621 C2623 1.433 . S
C2622 C2618 1.350 . S
C2622 C2619 1.463 . S
C2622 N2626 1.427 . S
C2623 H2613 0.929 . S
C2623 C2621 1.433 . S
C2623 N2626 1.384 . S
C2624 H2615 0.929 . S
C2624 C2616 1.378 . S
C2624 C2619 1.350 . S
C2625 H2612 0.929 . S
C2625 C2617 1.433 . S
C2625 N2627 1.384 . S
N2626 C2622 1.427 . S
N2626 C2623 1.384 . S
N2627 C2619 1.427 . S
N2627 C2625 1.384 . S
H2628 C2634 0.930 . S
H2629 C2638 0.930 . S
H2630 C2643 0.929 . S
H2631 C2641 0.929 . S
H2632 C2636 0.929 . S
H2633 C2642 0.929 . S
C2634 H2628 0.930 . S
C2634 C2635 1.367 . S
C2634 C2642 1.378 . S
C2635 C2634 1.367 . S
C2635 C2643 1.433 . S
C2636 H2632 0.929 . S
C2636 C2638 1.378 . S
C2636 C2640 1.350 . S
C2637 C2640 1.463 . S
C2637 C2642 1.350 . S
C2637 N2645 1.427 . S
C2638 H2629 0.930 . S
C2638 C2636 1.378 . S
C2638 C2639 1.367 . S
C2639 C2638 1.367 . S
C2639 C2641 1.433 . S
C2640 C2636 1.350 . S
C2640 C2637 1.463 . S
C2640 N2644 1.427 . S
C2641 H2631 0.929 . S
C2641 C2639 1.433 . S
C2641 N2644 1.384 . S
C2642 H2633 0.929 . S
C2642 C2634 1.378 . S
C2642 C2637 1.350 . S
C2643 H2630 0.929 . S
C2643 C2635 1.433 . S
C2643 N2645 1.384 . S
N2644 C2640 1.427 . S
N2644 C2641 1.384 . S
N2645 C2637 1.427 . S
N2645 C2643 1.384 . S
H2646 C2652 0.930 . S
H2647 C2656 0.930 . S
H2648 C2661 0.929 . S
H2649 C2659 0.929 . S
H2650 C2654 0.929 . S
H2651 C2660 0.929 . S
C2652 H2646 0.930 . S
C2652 C2653 1.367 . S
C2652 C2660 1.378 . S
C2653 C2652 1.367 . S
C2653 C2661 1.433 . S
C2654 H2650 0.929 . S
C2654 C2656 1.378 . S
C2654 C2658 1.350 . S
C2655 C2658 1.463 . S
C2655 C2660 1.350 . S
C2655 N2663 1.427 . S
C2656 H2647 0.930 . S
C2656 C2654 1.378 . S
C2656 C2657 1.367 . S
C2657 C2656 1.367 . S
C2657 C2659 1.433 . S
C2658 C2654 1.350 . S
C2658 C2655 1.463 . S
C2658 N2662 1.427 . S
C2659 H2649 0.929 . S
C2659 C2657 1.433 . S
C2659 N2662 1.384 . S
C2660 H2651 0.929 . S
C2660 C2652 1.378 . S
C2660 C2655 1.350 . S
C2661 H2648 0.929 . S
C2661 C2653 1.433 . S
C2661 N2663 1.384 . S
N2662 C2658 1.427 . S
N2662 C2659 1.384 . S
N2663 C2655 1.427 . S
N2663 C2661 1.384 . S
H2664 C2670 0.930 . S
H2665 C2674 0.930 . S
H2666 C2679 0.929 . S
H2667 C2677 0.929 . S
H2668 C2672 0.929 . S
H2669 C2678 0.929 . S
C2670 H2664 0.930 . S
C2670 C2671 1.367 . S
C2670 C2678 1.378 . S
C2671 C2670 1.367 . S
C2671 C2679 1.433 . S
C2672 H2668 0.929 . S
C2672 C2674 1.378 . S
C2672 C2676 1.350 . S
C2673 C2676 1.463 . S
C2673 C2678 1.350 . S
C2673 N2681 1.427 . S
C2674 H2665 0.930 . S
C2674 C2672 1.378 . S
C2674 C2675 1.367 . S
C2675 C2674 1.367 . S
C2675 C2677 1.433 . S
C2676 C2672 1.350 . S
C2676 C2673 1.463 . S
C2676 N2680 1.427 . S
C2677 H2667 0.929 . S
C2677 C2675 1.433 . S
C2677 N2680 1.384 . S
C2678 H2669 0.929 . S
C2678 C2670 1.378 . S
C2678 C2673 1.350 . S
C2679 H2666 0.929 . S
C2679 C2671 1.433 . S
C2679 N2681 1.384 . S
N2680 C2676 1.427 . S
N2680 C2677 1.384 . S
N2681 C2673 1.427 . S
N2681 C2679 1.384 . S
H2682 C2688 0.930 . S
H2683 C2692 0.930 . S
H2684 C2697 0.929 . S
H2685 C2695 0.929 . S
H2686 C2690 0.929 . S
H2687 C2696 0.929 . S
C2688 H2682 0.930 . S
C2688 C2689 1.367 . S
C2688 C2696 1.378 . S
C2689 C2688 1.367 . S
C2689 C2697 1.433 . S
C2690 H2686 0.929 . S
C2690 C2692 1.378 . S
C2690 C2694 1.350 . S
C2691 C2694 1.463 . S
C2691 C2696 1.350 . S
C2691 N2699 1.427 . S
C2692 H2683 0.930 . S
C2692 C2690 1.378 . S
C2692 C2693 1.367 . S
C2693 C2692 1.367 . S
C2693 C2695 1.433 . S
C2694 C2690 1.350 . S
C2694 C2691 1.463 . S
C2694 N2698 1.427 . S
C2695 H2685 0.929 . S
C2695 C2693 1.433 . S
C2695 N2698 1.384 . S
C2696 H2687 0.929 . S
C2696 C2688 1.378 . S
C2696 C2691 1.350 . S
C2697 H2684 0.929 . S
C2697 C2689 1.433 . S
C2697 N2699 1.384 . S
N2698 C2694 1.427 . S
N2698 C2695 1.384 . S
N2699 C2691 1.427 . S
N2699 C2697 1.384 . S
H2700 C2706 0.930 . S
H2701 C2710 0.930 . S
H2702 C2715 0.929 . S
H2703 C2713 0.929 . S
H2704 C2708 0.929 . S
H2705 C2714 0.929 . S
C2706 H2700 0.930 . S
C2706 C2707 1.367 . S
C2706 C2714 1.378 . S
C2707 C2706 1.367 . S
C2707 C2715 1.433 . S
C2708 H2704 0.929 . S
C2708 C2710 1.378 . S
C2708 C2712 1.350 . S
C2709 C2712 1.463 1_455 S
C2709 C2714 1.350 . S
C2709 N2717 1.427 . S
C2710 H2701 0.930 . S
C2710 C2708 1.378 . S
C2710 C2711 1.367 . S
C2711 C2710 1.367 . S
C2711 C2713 1.433 . S
C2712 C2708 1.350 . S
C2712 C2709 1.463 1_655 S
C2712 N2716 1.427 . S
C2713 H2703 0.929 . S
C2713 C2711 1.433 . S
C2713 N2716 1.384 . S
C2714 H2705 0.929 . S
C2714 C2706 1.378 . S
C2714 C2709 1.350 . S
C2715 H2702 0.929 . S
C2715 C2707 1.433 . S
C2715 N2717 1.384 . S
N2716 C2712 1.427 . S
N2716 C2713 1.384 . S
N2717 C2709 1.427 . S
N2717 C2715 1.384 . S
H2718 C2724 0.930 . S
H2719 C2728 0.930 . S
H2720 C2733 0.929 . S
H2721 C2731 0.929 . S
H2722 C2726 0.929 . S
H2723 C2732 0.929 . S
C2724 H2718 0.930 . S
C2724 C2725 1.367 . S
C2724 C2732 1.378 . S
C2725 C2724 1.367 . S
C2725 C2733 1.433 . S
C2726 H2722 0.929 . S
C2726 C2728 1.378 . S
C2726 C2730 1.350 . S
C2727 C2730 1.463 . S
C2727 C2732 1.350 . S
C2727 N2735 1.427 . S
C2728 H2719 0.930 . S
C2728 C2726 1.378 . S
C2728 C2729 1.367 . S
C2729 C2728 1.367 . S
C2729 C2731 1.433 . S
C2730 C2726 1.350 . S
C2730 C2727 1.463 . S
C2730 N2734 1.427 . S
C2731 H2721 0.929 . S
C2731 C2729 1.433 . S
C2731 N2734 1.384 . S
C2732 H2723 0.929 . S
C2732 C2724 1.378 . S
C2732 C2727 1.350 . S
C2733 H2720 0.929 . S
C2733 C2725 1.433 . S
C2733 N2735 1.384 . S
N2734 C2730 1.427 . S
N2734 C2731 1.384 . S
N2735 C2727 1.427 . S
N2735 C2733 1.384 . S
H2736 C2742 0.930 . S
H2737 C2746 0.930 . S
H2738 C2751 0.929 . S
H2739 C2749 0.929 . S
H2740 C2744 0.929 . S
H2741 C2750 0.929 . S
C2742 H2736 0.930 . S
C2742 C2743 1.367 . S
C2742 C2750 1.378 . S
C2743 C2742 1.367 . S
C2743 C2751 1.433 . S
C2744 H2740 0.929 . S
C2744 C2746 1.378 . S
C2744 C2748 1.350 . S
C2745 C2748 1.463 1_545 S
C2745 C2750 1.350 . S
C2745 N2753 1.427 . S
C2746 H2737 0.930 . S
C2746 C2744 1.378 . S
C2746 C2747 1.367 . S
C2747 C2746 1.367 . S
C2747 C2749 1.433 . S
C2748 C2744 1.350 . S
C2748 C2745 1.463 1_565 S
C2748 N2752 1.427 . S
C2749 H2739 0.929 . S
C2749 C2747 1.433 . S
C2749 N2752 1.384 . S
C2750 H2741 0.929 . S
C2750 C2742 1.378 . S
C2750 C2745 1.350 . S
C2751 H2738 0.929 . S
C2751 C2743 1.433 . S
C2751 N2753 1.384 . S
N2752 C2748 1.427 . S
N2752 C2749 1.384 . S
N2753 C2745 1.427 . S
N2753 C2751 1.384 . S
H2754 C2760 0.930 . S
H2755 C2764 0.930 . S
H2756 C2769 0.929 . S
H2757 C2767 0.929 . S
H2758 C2762 0.929 . S
H2759 C2768 0.929 . S
C2760 H2754 0.930 . S
C2760 C2761 1.367 . S
C2760 C2768 1.378 . S
C2761 C2760 1.367 . S
C2761 C2769 1.433 . S
C2762 H2758 0.929 . S
C2762 C2764 1.378 . S
C2762 C2766 1.350 . S
C2763 C2766 1.463 1_565 S
C2763 C2768 1.350 . S
C2763 N2771 1.427 . S
C2764 H2755 0.930 . S
C2764 C2762 1.378 . S
C2764 C2765 1.367 . S
C2765 C2764 1.367 . S
C2765 C2767 1.433 . S
C2766 C2762 1.350 . S
C2766 C2763 1.463 1_545 S
C2766 N2770 1.427 . S
C2767 H2757 0.929 . S
C2767 C2765 1.433 . S
C2767 N2770 1.384 . S
C2768 H2759 0.929 . S
C2768 C2760 1.378 . S
C2768 C2763 1.350 . S
C2769 H2756 0.929 . S
C2769 C2761 1.433 . S
C2769 N2771 1.384 . S
N2770 C2766 1.427 . S
N2770 C2767 1.384 . S
N2771 C2763 1.427 . S
N2771 C2769 1.384 . S
H2772 C2778 0.930 . S
H2773 C2782 0.930 . S
H2774 C2787 0.929 . S
H2775 C2785 0.929 . S
H2776 C2780 0.929 . S
H2777 C2786 0.929 . S
C2778 H2772 0.930 . S
C2778 C2779 1.367 . S
C2778 C2786 1.378 . S
C2779 C2778 1.367 . S
C2779 C2787 1.433 . S
C2780 H2776 0.929 . S
C2780 C2782 1.378 . S
C2780 C2784 1.350 . S
C2781 C2784 1.463 1_655 S
C2781 C2786 1.350 . S
C2781 N2789 1.427 . S
C2782 H2773 0.930 . S
C2782 C2780 1.378 . S
C2782 C2783 1.367 . S
C2783 C2782 1.367 . S
C2783 C2785 1.433 . S
C2784 C2780 1.350 . S
C2784 C2781 1.463 1_455 S
C2784 N2788 1.427 . S
C2785 H2775 0.929 . S
C2785 C2783 1.433 . S
C2785 N2788 1.384 . S
C2786 H2777 0.929 . S
C2786 C2778 1.378 . S
C2786 C2781 1.350 . S
C2787 H2774 0.929 . S
C2787 C2779 1.433 . S
C2787 N2789 1.384 . S
N2788 C2784 1.427 . S
N2788 C2785 1.384 . S
N2789 C2781 1.427 . S
N2789 C2787 1.384 . S
H2790 C2796 0.930 . S
H2791 C2800 0.930 . S
H2792 C2805 0.929 . S
H2793 C2803 0.929 . S
H2794 C2798 0.929 . S
H2795 C2804 0.929 . S
C2796 H2790 0.930 . S
C2796 C2797 1.367 . S
C2796 C2804 1.378 . S
C2797 C2796 1.367 . S
C2797 C2805 1.433 . S
C2798 H2794 0.929 . S
C2798 C2800 1.378 . S
C2798 C2802 1.350 . S
C2799 C2802 1.463 . S
C2799 C2804 1.350 . S
C2799 N2807 1.427 . S
C2800 H2791 0.930 . S
C2800 C2798 1.378 . S
C2800 C2801 1.367 . S
C2801 C2800 1.367 . S
C2801 C2803 1.433 . S
C2802 C2798 1.350 . S
C2802 C2799 1.463 . S
C2802 N2806 1.427 . S
C2803 H2793 0.929 . S
C2803 C2801 1.433 . S
C2803 N2806 1.384 . S
C2804 H2795 0.929 . S
C2804 C2796 1.378 . S
C2804 C2799 1.350 . S
C2805 H2792 0.929 . S
C2805 C2797 1.433 . S
C2805 N2807 1.384 . S
N2806 C2802 1.427 . S
N2806 C2803 1.384 . S
N2807 C2799 1.427 . S
N2807 C2805 1.384 . S
C1195 C337 2.075 . S
C1199 C7 2.053 . S
C1213 C370 2.077 . S
C1217 C40 2.054 . S
C1231 C304 2.078 . S
C1235 C73 2.047 . S
C1249 C271 2.075 . S
C1253 C106 2.052 . S
C1267 C205 2.077 . S
C1271 C139 2.052 . S
C1285 C238 2.079 . S
C1289 C172 2.052 . S
C1303 N134 0.632 . S
C1307 N200 0.636 . S
C1321 N233 0.635 . S
C1325 N167 0.659 . S
C1339 N101 0.650 . S
C1343 N266 0.652 . S
C1357 N68 0.647 . S
C1361 N299 0.628 . S
C1375 N332 0.637 . S
C1379 N2 0.661 . S
C1393 N35 0.643 . S
C1397 N365 0.628 . S
C1411 C733 2.080 . S
C1415 C403 2.044 . S
C1429 C436 2.047 . S
C1433 C766 2.082 . S
C1447 C700 2.080 . S
C1451 C469 2.045 . S
C1465 C667 2.082 . S
C1469 C502 2.046 1_554 S
C1483 C601 2.081 . S
C1487 C535 2.043 1_554 S
C1501 C568 2.048 1_554 S
C1505 C634 2.082 . S
C1519 N596 0.652 . S
C1523 N530 0.654 . S
C1537 N563 0.663 . S
C1541 N629 0.648 . S
C1555 N497 0.643 . S
C1559 N662 0.649 . S
C1573 N695 0.649 . S
C1577 N464 0.643 . S
C1591 N728 0.651 . S
C1595 N398 0.645 . S
C1609 N431 0.663 . S
C1613 N761 0.649 . S
C1627 C799 2.049 . S
C1631 C1129 2.077 . S
C1645 C832 2.047 . S
C1649 C1162 2.078 . S
C1663 C865 2.047 . S
C1667 C1096 2.077 . S
C1681 C898 2.043 . S
C1685 C1063 2.081 . S
C1699 C997 2.075 . S
C1703 C931 2.053 . S
C1717 C1030 2.080 . S
C1721 C964 2.050 . S
C1735 N992 0.631 . S
C1739 N926 0.634 . S
C1753 N959 0.643 . S
C1757 N1025 0.628 . S
C1771 N893 0.641 . S
C1775 N1058 0.648 . S
C1789 N1091 0.636 . S
C1793 N860 0.660 . S
C1807 N1124 0.634 . S
C1811 N794 0.657 . S
C1825 N827 0.639 . S
C1829 N1157 0.647 . S
C1843 C117 2.250 . S
C1847 C18 2.253 . S
C1861 C51 2.249 . S
C1865 C150 2.253 . S
C1879 C84 2.249 . S
C1883 C183 2.253 . S
C1897 N310 0.985 . S
C1901 N211 0.992 . S
C1915 N244 0.986 . S
C1919 N343 0.997 . S
C1933 N376 1.004 . S
C1937 N277 0.995 . S
C1951 C414 2.249 . S
C1955 C513 2.253 . S
C1969 C546 2.253 . S
C1973 C447 2.252 . S
C1987 C480 2.253 . S
C1991 C579 2.252 . S
C2005 N607 1.002 . S
C2009 N706 0.992 1_554 S
C2023 N739 0.985 1_554 S
C2027 N640 0.995 . S
C2041 N772 1.003 1_554 S
C2045 N673 1.002 . S
C2059 C810 2.253 . S
C2063 C909 2.249 . S
C2077 C942 2.253 . S
C2081 C843 2.251 . S
C2095 C876 2.250 . S
C2099 C975 2.254 . S
C2113 N1003 0.984 . S
C2117 N1102 0.993 . S
C2131 N1036 0.994 . S
C2135 N1135 0.985 . S
C2149 N1168 1.004 . S
C2153 N1069 0.998 . S
C2167 N112 0.468 . S
C2171 N13 0.460 . S
C2185 N46 0.475 . S
C2189 N145 0.461 . S
C2203 N178 0.467 . S
C2207 N79 0.488 . S
C2221 C315 1.769 . S
C2225 C216 1.770 . S
C2239 C348 1.774 . S
C2243 C249 1.771 . S
C2257 C381 1.772 . S
C2261 C282 1.769 . S
C2275 N409 0.482 . S
C2279 N508 0.462 . S
C2293 N442 0.462 . S
C2297 N541 0.465 . S
C2311 N574 0.463 . S
C2315 N475 0.484 . S
C2329 C612 1.770 . S
C2333 C711 1.769 . S
C2347 C744 1.774 . S
C2351 C645 1.768 . S
C2365 C777 1.771 . S
C2369 C678 1.769 . S
C2383 N805 0.489 . S
C2387 N904 0.493 . S
C2401 N838 0.461 . S
C2405 N937 0.466 . S
C2419 N970 0.474 . S
C2423 N871 0.493 . S
C2437 C1107 1.767 . S
C2441 C1008 1.774 . S
C2455 C1140 1.768 . S
C2459 C1041 1.772 . S
C2473 C1173 1.772 . S
C2477 C1074 1.773 . S
C2491 C21 1.493 . S
C2495 C549 1.495 . S
C2509 C54 1.498 . S
C2513 C582 1.499 . S
C2527 C516 1.493 . S
C2531 C87 1.497 . S
C2545 C879 1.496 . S
C2549 C120 1.493 . S
C2563 C153 1.494 . S
C2567 C813 1.495 . S
C2581 C186 1.499 . S
C2585 C846 1.494 . S
C2599 C1143 1.503 . S
C2603 C219 1.504 . S
C2617 C1176 1.504 . S
C2621 C252 1.503 . S
C2635 C285 1.498 . S
C2639 C1110 1.501 . S
C2653 C681 1.502 . S
C2657 C318 1.498 . S
C2671 C351 1.504 . S
C2675 C615 1.503 . S
C2689 C648 1.500 . S
C2693 C384 1.498 . S
C2707 C945 1.496 . S
C2711 C417 1.493 . S
C2725 C978 1.494 . S
C2729 C450 1.498 . S
C2743 C483 1.496 . S
C2747 C912 1.499 . S
C2761 C1077 1.504 . S
C2765 C714 1.499 . S
C2779 C747 1.505 . S
C2783 C1011 1.502 . S
C2797 C780 1.498 . S
C2801 C1044 1.500 . S
