# Generated by pormake.
# Topology uof, (4)-cn, num edge types: 1
# Building blocks:
#     Node 0, Type 0, BuildingBlock: TATPOV_clean_sbu_0, # of connection points: 4
#     Node 1, Type 0, BuildingBlock: TATPOV_clean_sbu_0, # of connection points: 4
#     Node 2, Type 0, BuildingBlock: TATPOV_clean_sbu_0, # of connection points: 4
#     Node 3, Type 0, BuildingBlock: TATPOV_clean_sbu_0, # of connection points: 4
#     Node 4, Type 0, BuildingBlock: TATPOV_clean_sbu_0, # of connection points: 4
#     Node 5, Type 0, BuildingBlock: TATPOV_clean_sbu_0, # of connection points: 4
#     Node 6, Type 0, BuildingBlock: TATPOV_clean_sbu_0, # of connection points: 4
#     Node 7, Type 0, BuildingBlock: TATPOV_clean_sbu_0, # of connection points: 4
#     Node 8, Type 0, BuildingBlock: TATPOV_clean_sbu_0, # of connection points: 4
#     Node 9, Type 0, BuildingBlock: TATPOV_clean_sbu_0, # of connection points: 4
#     Node 10, Type 0, BuildingBlock: TATPOV_clean_sbu_0, # of connection points: 4
#     Node 11, Type 0, BuildingBlock: TATPOV_clean_sbu_0, # of connection points: 4
#     Edge 12, Type (0, 0), BuildingBlock: MIFKUJ_clean_linker_0, # of connection points: 2
#     Edge 13, Type (0, 0), BuildingBlock: MIFKUJ_clean_linker_0, # of connection points: 2
#     Edge 14, Type (0, 0), BuildingBlock: MIFKUJ_clean_linker_0, # of connection points: 2
#     Edge 15, Type (0, 0), BuildingBlock: MIFKUJ_clean_linker_0, # of connection points: 2
#     Edge 16, Type (0, 0), BuildingBlock: MIFKUJ_clean_linker_0, # of connection points: 2
#     Edge 17, Type (0, 0), BuildingBlock: MIFKUJ_clean_linker_0, # of connection points: 2
#     Edge 18, Type (0, 0), BuildingBlock: MIFKUJ_clean_linker_0, # of connection points: 2
#     Edge 19, Type (0, 0), BuildingBlock: MIFKUJ_clean_linker_0, # of connection points: 2
#     Edge 20, Type (0, 0), BuildingBlock: MIFKUJ_clean_linker_0, # of connection points: 2
#     Edge 21, Type (0, 0), BuildingBlock: MIFKUJ_clean_linker_0, # of connection points: 2
#     Edge 22, Type (0, 0), BuildingBlock: MIFKUJ_clean_linker_0, # of connection points: 2
#     Edge 23, Type (0, 0), BuildingBlock: MIFKUJ_clean_linker_0, # of connection points: 2
#     Edge 24, Type (0, 0), BuildingBlock: MIFKUJ_clean_linker_0, # of connection points: 2
#     Edge 25, Type (0, 0), BuildingBlock: MIFKUJ_clean_linker_0, # of connection points: 2
#     Edge 26, Type (0, 0), BuildingBlock: MIFKUJ_clean_linker_0, # of connection points: 2
#     Edge 27, Type (0, 0), BuildingBlock: MIFKUJ_clean_linker_0, # of connection points: 2
#     Edge 28, Type (0, 0), BuildingBlock: MIFKUJ_clean_linker_0, # of connection points: 2
#     Edge 29, Type (0, 0), BuildingBlock: MIFKUJ_clean_linker_0, # of connection points: 2
#     Edge 30, Type (0, 0), BuildingBlock: MIFKUJ_clean_linker_0, # of connection points: 2
#     Edge 31, Type (0, 0), BuildingBlock: MIFKUJ_clean_linker_0, # of connection points: 2
#     Edge 32, Type (0, 0), BuildingBlock: MIFKUJ_clean_linker_0, # of connection points: 2
#     Edge 33, Type (0, 0), BuildingBlock: MIFKUJ_clean_linker_0, # of connection points: 2
#     Edge 34, Type (0, 0), BuildingBlock: MIFKUJ_clean_linker_0, # of connection points: 2
#     Edge 35, Type (0, 0), BuildingBlock: MIFKUJ_clean_linker_0, # of connection points: 2
# Relax obj value: 0.223
# Max RMSD: 0.181
# Mean RMSD: 0.181
data_MOF--net-uof--node1-TATPOV_clean_sbu_0--edge1-MIFKUJ_clean_linker_0
_symmetry_space_group_name_H-M    P1
_symmetry_Int_Tables_number       1
_symmetry_cell_setting            triclinic
loop_
_symmetry_equiv_pos_as_xyz
'x, y, z'
_cell_length_a     40.120428
_cell_length_b     40.125541
_cell_length_c     84.559942
_cell_angle_alpha  90.010321
_cell_angle_beta   89.981636
_cell_angle_gamma 120.01287
loop_
_atom_site_label
_atom_site_type_symbol
_atom_site_fract_x
_atom_site_fract_y
_atom_site_fract_z
_atom_type_partial_charge
Zn0 Zn 0.2608 0.36169 0.19927 0.0
Zn1 Zn 0.23743 0.32203 0.22687 0.0
O2 O 0.18919 0.324 0.21972 0.0
O3 O 0.20948 0.35956 0.19815 0.0
O4 O 0.22563 0.2948 0.24792 0.0
O5 O 0.30692 0.40515 0.21015 0.0
O6 O 0.28718 0.37196 0.23222 0.0
C7 C 0.1829 0.34018 0.208 0.0
C8 C 0.258 0.28822 0.19864 0.0
O9 O 0.24728 0.28665 0.21292 0.0
O10 O 0.26526 0.31706 0.1901 0.0
C11 C 0.20349 0.29439 0.25876 0.0
O12 O 0.18329 0.31152 0.25637 0.0
C13 C 0.31184 0.40163 0.22471 0.0
Zn14 Zn 0.87662 0.24906 0.53405 0.0
Zn15 Zn 0.89301 0.22303 0.56079 0.0
O16 O 0.84196 0.17622 0.55299 0.0
O17 O 0.8266 0.19902 0.53223 0.0
O18 O 0.90565 0.20868 0.58206 0.0
O19 O 0.88043 0.29511 0.54535 0.0
O20 O 0.89652 0.2745 0.56647 0.0
C21 C 0.8193 0.17139 0.54149 0.0
C22 C 0.94633 0.24375 0.53243 0.0
O23 O 0.9374 0.2316 0.54656 0.0
O24 O 0.9252 0.25286 0.52452 0.0
C25 C 0.94036 0.22908 0.58667 0.0
O26 O 0.96542 0.25586 0.5772 0.0
C27 C 0.89132 0.29979 0.55962 0.0
Zn28 Zn 0.62687 0.88622 0.87038 0.0
Zn29 Zn 0.66794 0.90107 0.89737 0.0
O30 O 0.6657 0.85132 0.88911 0.0
O31 O 0.62978 0.83787 0.86774 0.0
O32 O 0.69501 0.91384 0.91856 0.0
O33 O 0.58315 0.88702 0.8818 0.0
O34 O 0.61846 0.90143 0.90328 0.0
C35 C 0.64958 0.83001 0.87708 0.0
C36 C 0.70007 0.95743 0.86983 0.0
O37 O 0.70315 0.94722 0.88375 0.0
O38 O 0.67038 0.93647 0.86162 0.0
C39 C 0.70348 0.94675 0.92399 0.0
O40 O 0.69556 0.96919 0.91539 0.0
C41 C 0.58805 0.89604 0.8963 0.0
Zn42 Zn 0.75287 0.62531 0.19985 0.0
Zn43 Zn 0.77749 0.66409 0.2276 0.0
O44 O 0.82549 0.66295 0.21925 0.0
O45 O 0.80357 0.62669 0.19791 0.0
O46 O 0.79093 0.68963 0.24915 0.0
O47 O 0.70707 0.58155 0.21065 0.0
O48 O 0.72783 0.6139 0.23287 0.0
C49 C 0.83093 0.64659 0.20736 0.0
C50 C 0.7557 0.69887 0.20019 0.0
O51 O 0.76678 0.69993 0.21436 0.0
O52 O 0.74853 0.67055 0.19133 0.0
C53 C 0.76848 0.70097 0.25435 0.0
O54 O 0.73996 0.69685 0.24535 0.0
C55 C 0.70279 0.58456 0.22532 0.0
Zn56 Zn 0.11061 0.74821 0.53698 0.0
Zn57 Zn 0.091 0.77027 0.56406 0.0
O58 O 0.14052 0.81964 0.55687 0.0
O59 O 0.15896 0.79996 0.53601 0.0
O60 O 0.07406 0.78191 0.5848 0.0
O61 O 0.1094 0.70305 0.54808 0.0
O62 O 0.09165 0.72078 0.56963 0.0
C63 C 0.16416 0.8265 0.54554 0.0
C64 C 0.03841 0.74838 0.53537 0.0
O65 O 0.04618 0.75891 0.54973 0.0
O66 O 0.06134 0.74235 0.52716 0.0
C67 C 0.0955 0.80019 0.59644 0.0
O68 O 0.13299 0.81577 0.59508 0.0
C69 C 0.09891 0.69727 0.56241 0.0
Zn70 Zn 0.36651 0.10746 0.86403 0.0
Zn71 Zn 0.3222 0.09024 0.89025 0.0
O72 O 0.32301 0.13921 0.88213 0.0
O73 O 0.36136 0.15477 0.86142 0.0
O74 O 0.2913 0.07399 0.9104 0.0
O75 O 0.40941 0.1081 0.87672 0.0
O76 O 0.37216 0.0927 0.89767 0.0
C77 C 0.33993 0.16128 0.87038 0.0
C78 C 0.29522 0.03507 0.86206 0.0
O79 O 0.29043 0.04462 0.87586 0.0
O80 O 0.32557 0.05684 0.85434 0.0
C81 C 0.29974 0.09519 0.9226 0.0
O82 O 0.32789 0.13108 0.9218 0.0
C83 C 0.40366 0.09947 0.89126 0.0
Zn84 Zn 0.63253 0.73944 0.46874 0.0
Zn85 Zn 0.67405 0.76887 0.44184 0.0
O86 O 0.66806 0.8141 0.45031 0.0
O87 O 0.63112 0.78871 0.47128 0.0
O88 O 0.70122 0.78499 0.42063 0.0
O89 O 0.59114 0.69381 0.45691 0.0
O90 O 0.62635 0.71771 0.43553 0.0
C91 C 0.65006 0.81717 0.46218 0.0
C92 C 0.70849 0.74764 0.46963 0.0
O93 O 0.71083 0.76082 0.45574 0.0
O94 O 0.67815 0.73655 0.47774 0.0
C95 C 0.71732 0.76624 0.41599 0.0
O96 O 0.71717 0.74015 0.42542 0.0
C97 C 0.59657 0.69112 0.44233 0.0
Zn98 Zn 0.89224 0.63395 0.80199 0.0
Zn99 Zn 0.89774 0.6714 0.77453 0.0
O100 O 0.84976 0.66854 0.78512 0.0
O101 O 0.8446 0.63668 0.80709 0.0
O102 O 0.90445 0.69625 0.75299 0.0
O103 O 0.88973 0.58922 0.79021 0.0
O104 O 0.89753 0.62168 0.76827 0.0
C105 C 0.83268 0.65393 0.7982 0.0
C106 C 0.96202 0.7073 0.7993 0.0
O107 O 0.94697 0.70837 0.78621 0.0
O108 O 0.94471 0.67834 0.80832 0.0
C109 C 0.92787 0.73178 0.7505 0.0
O110 O 0.94493 0.75458 0.76259 0.0
C111 C 0.89442 0.59227 0.77537 0.0
Zn112 Zn 0.26204 0.88829 0.13208 0.0
Zn113 Zn 0.23519 0.90299 0.10508 0.0
O114 O 0.1886 0.85259 0.11345 0.0
O115 O 0.21215 0.83826 0.13426 0.0
O116 O 0.21932 0.91439 0.08384 0.0
O117 O 0.30751 0.89155 0.12055 0.0
O118 O 0.28561 0.9045 0.09897 0.0
C119 C 0.18422 0.83048 0.12511 0.0
C120 C 0.25688 0.95778 0.1332 0.0
O121 O 0.24484 0.94827 0.11909 0.0
O122 O 0.26586 0.93695 0.14138 0.0
C123 C 0.23518 0.9493 0.07932 0.0
O124 O 0.25942 0.9765 0.08885 0.0
C125 C 0.31117 0.90002 0.10599 0.0
Zn126 Zn 0.35726 0.26056 0.46911 0.0
Zn127 Zn 0.31742 0.23109 0.44187 0.0
O128 O 0.31994 0.18521 0.45179 0.0
O129 O 0.35665 0.21061 0.4728 0.0
O130 O 0.29205 0.21336 0.42041 0.0
O131 O 0.40037 0.30471 0.45723 0.0
O132 O 0.367 0.28043 0.43545 0.0
C133 C 0.33677 0.18181 0.46399 0.0
C134 C 0.283 0.25647 0.46819 0.0
O135 O 0.28157 0.24337 0.45436 0.0
O136 O 0.31188 0.26552 0.477 0.0
C137 C 0.25815 0.20633 0.41718 0.0
O138 O 0.23608 0.20649 0.42861 0.0
C139 C 0.39661 0.30673 0.44245 0.0
Zn140 Zn 0.09674 0.36277 0.80301 0.0
Zn141 Zn 0.07904 0.31925 0.77647 0.0
O142 O 0.1275 0.3193 0.78485 0.0
O143 O 0.14482 0.35886 0.80521 0.0
O144 O 0.06387 0.28904 0.75614 0.0
O145 O 0.09617 0.40545 0.7905 0.0
O146 O 0.08228 0.36954 0.7692 0.0
C147 C 0.15042 0.33672 0.79631 0.0
C148 C 0.02376 0.29165 0.80454 0.0
O149 O 0.03248 0.28784 0.79045 0.0
O150 O 0.04663 0.32068 0.81272 0.0
C151 C 0.08539 0.29999 0.74398 0.0
O152 O 0.12017 0.33003 0.74508 0.0
C153 C 0.08838 0.40052 0.77588 0.0
Zn154 Zn 0.7401 0.0971 0.14008 0.0
Zn155 Zn 0.77251 0.08841 0.11331 0.0
O156 O 0.81612 0.13923 0.12265 0.0
O157 O 0.78921 0.14725 0.14394 0.0
O158 O 0.79138 0.08093 0.09211 0.0
O159 O 0.69579 0.09416 0.12755 0.0
O160 O 0.72187 0.08491 0.10638 0.0
C161 C 0.81827 0.15849 0.13502 0.0
C162 C 0.74922 0.02992 0.14018 0.0
O163 O 0.76391 0.04243 0.12662 0.0
O164 O 0.7366 0.04779 0.14833 0.0
C165 C 0.7788 0.04691 0.08693 0.0
O166 O 0.75664 0.0176 0.09606 0.0
C167 C 0.69459 0.0874 0.11288 0.0
H168 H 0.8896 0.18495 0.12163 0.0
H169 H 0.95188 0.22604 0.1343 0.0
H170 H 0.89458 0.24306 0.17402 0.0
H171 H 0.83256 0.2032 0.16131 0.0
H172 H 0.96227 0.30601 0.16946 0.0
H173 H 0.91501 0.16948 0.17383 0.0
H174 H 0.8913 0.10405 0.16334 0.0
H175 H 0.99703 0.14345 0.1378 0.0
H176 H 0.02114 0.20925 0.14798 0.0
H177 H 0.11491 0.28204 0.21975 0.0
H178 H 0.05059 0.25931 0.20883 0.0
H179 H 0.09714 0.35498 0.17634 0.0
H180 H 0.16135 0.37793 0.18719 0.0
H181 H 0.03317 0.23583 0.17852 0.0
H182 H 0.02495 0.37404 0.16611 0.0
H183 H 0.04537 0.43703 0.17851 0.0
H184 H 0.04607 0.39027 0.2241 0.0
H185 H 0.02512 0.32691 0.21202 0.0
C186 C 0.8903 0.19833 0.13285 0.0
C187 C 0.85599 0.19015 0.14058 0.0
C188 C 0.92593 0.22164 0.14012 0.0
C189 C 0.92779 0.23675 0.15531 0.0
C190 C 0.89387 0.23149 0.16237 0.0
C191 C 0.85834 0.2085 0.15507 0.0
C192 C 0.96408 0.25423 0.16461 0.0
C193 C 0.97795 0.29083 0.17136 0.0
C194 C 0.98395 0.23395 0.1675 0.0
C195 C 0.96971 0.19431 0.16155 0.0
C196 C 0.9331 0.16421 0.16591 0.0
C197 C 0.9196 0.12707 0.16002 0.0
C198 C 0.94261 0.11962 0.14988 0.0
C199 C 0.97922 0.14928 0.14564 0.0
C200 C 0.99282 0.18649 0.15147 0.0
C201 C 0.1113 0.29889 0.21061 0.0
C202 C 0.14332 0.3316 0.20424 0.0
C203 C 0.07455 0.28571 0.20431 0.0
C204 C 0.06911 0.30531 0.1917 0.0
C205 C 0.10057 0.33951 0.18612 0.0
C206 C 0.13732 0.35254 0.19232 0.0
C207 C 0.03174 0.28787 0.18322 0.0
C208 C 0.01766 0.25119 0.17659 0.0
C209 C 0.01143 0.30783 0.18072 0.0
C210 C 0.02385 0.34582 0.18811 0.0
C211 C 0.02934 0.37717 0.17878 0.0
C212 C 0.04102 0.41295 0.18576 0.0
C213 C 0.04714 0.41768 0.20207 0.0
C214 C 0.04149 0.38662 0.21145 0.0
C215 C 0.02978 0.35078 0.20454 0.0
H216 H 0.05619 0.4454 0.20745 0.0
H217 H 0.9321 0.09085 0.14533 0.0
H218 H 0.75552 0.1526 0.52378 0.0
H219 H 0.71325 0.09077 0.51113 0.0
H220 H 0.77302 0.04111 0.53515 0.0
H221 H 0.81428 0.10246 0.54829 0.0
H222 H 0.73319 0.05821 0.49054 0.0
H223 H 0.72106 0.94542 0.5371 0.0
H224 H 0.71317 0.9352 0.56594 0.0
H225 H 0.6616 0.00649 0.56861 0.0
H226 H 0.66869 0.01673 0.53977 0.0
H227 H 0.71107 0.88828 0.45541 0.0
H228 H 0.72796 0.94852 0.46889 0.0
H229 H 0.61961 0.89223 0.49386 0.0
H230 H 0.60331 0.83158 0.48086 0.0
H231 H 0.67253 0.92764 0.51405 0.0
H232 H 0.64276 0.96535 0.46534 0.0
H233 H 0.64377 0.97538 0.43654 0.0
H234 H 0.76566 0.05363 0.43826 0.0
H235 H 0.7655 0.04368 0.46705 0.0
C236 C 0.75881 0.12814 0.52675 0.0
C237 C 0.78825 0.13241 0.53703 0.0
C238 C 0.73481 0.09285 0.51941 0.0
C239 C 0.73992 0.06115 0.52208 0.0
C240 C 0.76792 0.06481 0.53305 0.0
C241 C 0.79156 0.09999 0.5406 0.0
C242 C 0.71884 0.02573 0.51226 0.0
C243 C 0.71963 0.02965 0.49571 0.0
C244 C 0.70038 0.98836 0.51892 0.0
C245 C 0.69569 0.98207 0.53627 0.0
C246 C 0.70786 0.95877 0.54383 0.0
C247 C 0.70357 0.953 0.56018 0.0
C248 C 0.68699 0.97026 0.5691 0.0
C249 C 0.67456 0.99325 0.56169 0.0
C250 C 0.67877 -0.00091 0.54534 0.0
C251 C 0.69035 0.88901 0.46342 0.0
C252 C 0.65592 0.85515 0.46711 0.0
C253 C 0.70004 0.92354 0.47115 0.0
C254 C 0.67509 0.92508 0.48245 0.0
C255 C 0.63952 0.89181 0.48532 0.0
C256 C 0.63011 0.85719 0.47778 0.0
C257 C 0.68763 0.96015 0.49233 0.0
C258 C 0.6855 0.95617 0.50888 0.0
C259 C 0.70384 0.99743 0.48568 0.0
C260 C 0.70413 0.00354 0.46835 0.0
C261 C 0.66983 0.98449 0.45957 0.0
C262 C 0.67024 0.9902 0.44324 0.0
C263 C 0.70477 0.01507 0.43557 0.0
C264 C 0.73894 0.03436 0.44422 0.0
C265 C 0.73869 0.02873 0.46054 0.0
H266 H 0.70503 0.01946 0.42293 0.0
H267 H 0.68371 0.96578 0.58176 0.0
H268 H 0.61581 0.77663 0.85365 0.0
H269 H 0.63996 0.73759 0.84175 0.0
H270 H 0.72846 0.77602 0.87742 0.0
H271 H 0.70486 0.81601 0.88926 0.0
H272 H 0.75916 0.78723 0.84907 0.0
H273 H 0.65513 0.68115 0.87525 0.0
H274 H 0.58797 0.63843 0.88363 0.0
H275 H 0.55379 0.60881 0.8352 0.0
H276 H 0.62068 0.65178 0.82651 0.0
H277 H 0.78425 0.61878 0.82304 0.0
H278 H 0.74538 0.64059 0.83695 0.0
H279 H 0.77396 0.72829 0.8016 0.0
H280 H 0.81353 0.70693 0.78766 0.0
H281 H 0.685 0.65108 0.83159 0.0
H282 H 0.79532 0.81147 0.82078 0.0
H283 H 0.86428 0.85241 0.81445 0.0
H284 H 0.88857 0.7703 0.83632 0.0
H285 H 0.81989 0.72919 0.84298 0.0
C286 C 0.63988 0.77616 0.85922 0.0
C287 C 0.65861 0.79978 0.87235 0.0
C288 C 0.65359 0.75363 0.85241 0.0
C289 C 0.6861 0.75387 0.85864 0.0
C290 C 0.70341 0.77551 0.87236 0.0
C291 C 0.6897 0.79815 0.87919 0.0
C292 C 0.70421 0.73485 0.8499 0.0
C293 C 0.74289 0.7574 0.84533 0.0
C294 C 0.68318 0.69586 0.84505 0.0
C295 C 0.6429 0.66995 0.85022 0.0
C296 C 0.63325 0.66577 0.86638 0.0
C297 C 0.59524 0.64146 0.87118 0.0
C298 C 0.56662 0.62098 0.85995 0.0
C299 C 0.57599 0.62471 0.84389 0.0
C300 C 0.61396 0.649 0.83901 0.0
C301 C 0.78168 0.64222 0.81801 0.0
C302 C 0.80246 0.66148 0.80435 0.0
C303 C 0.7593 0.65457 0.82598 0.0
C304 C 0.75738 0.68653 0.8205 0.0
C305 C 0.77557 0.70391 0.80617 0.0
C306 C 0.79796 0.6915 0.79815 0.0
C307 C 0.73955 0.70373 0.83057 0.0
C308 C 0.70108 0.68089 0.83536 0.0
C309 C 0.76093 0.74226 0.83591 0.0
C310 C 0.80241 0.76709 0.83221 0.0
C311 C 0.81542 0.80225 0.82428 0.0
C312 C 0.85445 0.82547 0.82064 0.0
C313 C 0.88077 0.8139 0.82493 0.0
C314 C 0.86814 0.77917 0.83295 0.0
C315 C 0.82916 0.75589 0.83665 0.0
H316 H 0.91095 0.83188 0.82208 0.0
H317 H 0.53721 0.60218 0.86369 0.0
H318 H 0.89875 0.71172 0.21424 0.0
H319 H 0.95983 0.73484 0.20031 0.0
H320 H 0.9131 0.62631 0.17577 0.0
H321 H 0.85154 0.60365 0.18921 0.0
H322 H 0.01478 0.7196 0.19556 0.0
H323 H 0.94026 0.64117 0.1375 0.0
H324 H 0.87688 0.6142 0.12451 0.0
H325 H 0.85392 0.69285 0.15023 0.0
H326 H 0.91734 0.7206 0.1632 0.0
H327 H 0.16596 0.76683 0.14282 0.0
H328 H 0.10498 0.72579 0.15633 0.0
H329 H 0.05464 0.78559 0.13288 0.0
H330 H 0.11514 0.82567 0.11887 0.0
H331 H 0.00154 0.71461 0.1371 0.0
H332 H 0.09711 0.81284 0.17017 0.0
H333 H 0.16032 0.84945 0.18323 0.0
H334 H 0.14078 0.74742 0.20768 0.0
H335 H 0.07763 0.71008 0.19458 0.0
C336 C 0.90185 0.69237 0.20623 0.0
C337 C 0.87022 0.65606 0.20266 0.0
C338 C 0.93678 0.70568 0.19821 0.0
C339 C 0.94073 0.68274 0.18663 0.0
C340 C 0.91041 0.64495 0.18431 0.0
C341 C 0.87533 0.63191 0.1921 0.0
C342 C 0.97497 0.69953 0.17605 0.0
C343 C 0.01186 0.71818 0.18278 0.0
C344 C 0.9713 0.69871 0.15935 0.0
C345 C 0.93333 0.6826 0.15144 0.0
C346 C 0.92172 0.65276 0.14034 0.0
C347 C 0.88579 0.63734 0.13298 0.0
C348 C 0.86133 0.65171 0.13659 0.0
C349 C 0.87283 0.68165 0.14749 0.0
C350 C 0.90875 0.69721 0.15485 0.0
C351 C 0.14153 0.77044 0.14019 0.0
C352 C 0.14543 0.79971 0.1299 0.0
C353 C 0.10677 0.74718 0.14803 0.0
C354 C 0.07556 0.7534 0.14602 0.0
C355 C 0.07839 0.78042 0.13473 0.0
C356 C 0.11299 0.80326 0.12667 0.0
C357 C 0.04138 0.73433 0.1566 0.0
C358 C 0.00449 0.71542 0.14987 0.0
C359 C 0.04503 0.73621 0.17332 0.0
C360 C 0.08286 0.7586 0.18127 0.0
C361 C 0.10642 0.79817 0.17825 0.0
C362 C 0.14221 0.81905 0.18567 0.0
C363 C 0.1546 0.80075 0.19624 0.0
C364 C 0.13117 0.76154 0.19946 0.0
C365 C 0.09537 0.74051 0.19205 0.0
H366 H 0.18232 0.81696 0.20197 0.0
H367 H 0.83351 0.63969 0.1309 0.0
H368 H 0.27391 0.11202 0.45717 0.0
H369 H 0.25252 0.05184 0.47157 0.0
H370 H 0.35887 0.1044 0.49791 0.0
H371 H 0.37973 0.16504 0.48399 0.0
H372 H 0.27173 0.00027 0.47696 0.0
H373 H 0.34216 0.07591 0.53602 0.0
H374 H 0.36417 0.13839 0.5492 0.0
H375 H 0.28357 0.15549 0.522 0.0
H376 H 0.26075 0.09291 0.50883 0.0
H377 H 0.23078 0.8502 0.52914 0.0
H378 H 0.26974 0.91261 0.51634 0.0
H379 H 0.20109 0.95455 0.53868 0.0
H380 H 0.163 0.89262 0.552 0.0
H381 H 0.271 0.01161 0.53541 0.0
H382 H 0.17946 0.91327 0.50122 0.0
H383 H 0.14756 0.85021 0.48784 0.0
H384 H 0.25373 0.87776 0.46481 0.0
H385 H 0.28639 0.94082 0.47825 0.0
C386 C 0.29315 0.11048 0.46575 0.0
C387 C 0.3283 0.1434 0.46959 0.0
C388 C 0.28084 0.07606 0.47402 0.0
C389 C 0.30361 0.07386 0.48615 0.0
C390 C 0.3403 0.10569 0.48893 0.0
C391 C 0.35233 0.14025 0.48087 0.0
C392 C 0.28779 0.03944 0.49662 0.0
C393 C 0.27189 0.00281 0.48973 0.0
C394 C 0.28697 0.04253 0.51331 0.0
C395 C 0.30011 0.07996 0.52132 0.0
C396 C 0.32908 0.09296 0.5329 0.0
C397 C 0.34169 0.12839 0.54036 0.0
C398 C 0.32538 0.15095 0.5364 0.0
C399 C 0.29628 0.13806 0.52502 0.0
C400 C 0.28352 0.10263 0.51754 0.0
C401 C 0.22478 0.87313 0.53171 0.0
C402 C 0.1936 0.86642 0.54145 0.0
C403 C 0.24686 0.9087 0.52428 0.0
C404 C 0.23757 0.93789 0.52613 0.0
C405 C 0.20864 0.93238 0.53695 0.0
C406 C 0.18694 0.89698 0.54462 0.0
C407 C 0.25536 0.97249 0.51575 0.0
C408 C 0.27145 0.00912 0.52264 0.0
C409 C 0.25503 0.96934 0.49903 0.0
C410 C 0.23545 0.93156 0.49087 0.0
C411 C 0.19605 0.90576 0.49339 0.0
C412 C 0.17783 0.87004 0.48578 0.0
C413 C 0.19863 0.85994 0.47551 0.0
C414 C 0.23767 0.8856 0.47279 0.0
C415 C 0.25606 0.92133 0.48039 0.0
H416 H 0.18447 0.83227 0.46964 0.0
H417 H 0.33522 0.17839 0.54217 0.0
H418 H 0.3798 0.22121 0.85007 0.0
H419 H 0.3575 0.26166 0.83785 0.0
H420 H 0.25481 0.20726 0.86653 0.0
H421 H 0.2775 0.16746 0.87912 0.0
H422 H 0.29854 0.23854 0.81972 0.0
H423 H 0.21582 0.26404 0.87051 0.0
H424 H 0.22218 0.2765 0.89923 0.0
H425 H 0.34438 0.3231 0.89599 0.0
H426 H 0.33884 0.31143 0.86723 0.0
H427 H 0.15161 0.27048 0.79023 0.0
H428 H 0.19321 0.2497 0.80255 0.0
H429 H 0.25835 0.36059 0.82512 0.0
H430 H 0.21564 0.38079 0.81339 0.0
H431 H 0.24225 0.30952 0.84598 0.0
H432 H 0.29573 0.32786 0.79421 0.0
H433 H 0.29549 0.32129 0.76521 0.0
H434 H 0.24399 0.19875 0.76985 0.0
H435 H 0.24345 0.20452 0.79888 0.0
C436 C 0.35291 0.21854 0.85408 0.0
C437 C 0.33035 0.191 0.86554 0.0
C438 C 0.34009 0.24155 0.847 0.0
C439 C 0.30439 0.23748 0.85118 0.0
C440 C 0.28271 0.2114 0.86323 0.0
C441 C 0.29574 0.18861 0.87044 0.0
C442 C 0.28838 0.25797 0.84202 0.0
C443 C 0.28648 0.25431 0.82547 0.0
C444 C 0.2732 0.27912 0.84944 0.0
C445 C 0.27683 0.28653 0.86672 0.0
C446 C 0.24407 0.2771 0.87591 0.0
C447 C 0.24752 0.28399 0.89221 0.0
C448 C 0.28364 0.30048 0.89944 0.0
C449 C 0.3164 0.3102 0.89038 0.0
C450 C 0.31311 0.3034 0.87409 0.0
C451 C 0.1754 0.29076 0.7975 0.0
C452 C 0.18034 0.32726 0.80085 0.0
C453 C 0.19925 0.27886 0.80455 0.0
C454 C 0.22915 0.30358 0.81477 0.0
C455 C 0.23538 0.34084 0.8174 0.0
C456 C 0.21111 0.35247 0.81059 0.0
C457 C 0.25188 0.28964 0.82367 0.0
C458 C 0.25478 0.29424 0.84019 0.0
C459 C 0.26889 0.27022 0.81618 0.0
C460 C 0.26932 0.26663 0.79872 0.0
C461 C 0.28413 0.29949 0.78904 0.0
C462 C 0.28416 0.29591 0.7726 0.0
C463 C 0.26967 0.25962 0.76569 0.0
C464 C 0.25519 0.22684 0.77522 0.0
C465 C 0.25507 0.23026 0.79167 0.0
H466 H 0.26971 0.25691 0.75295 0.0
H467 H 0.28625 0.30578 0.91205 0.0
H468 H 0.64358 0.51864 0.21292 0.0
H469 H 0.57696 0.48591 0.22184 0.0
H470 H 0.61015 0.55712 0.26361 0.0
H471 H 0.67706 0.59062 0.25463 0.0
H472 H 0.53135 0.44688 0.24655 0.0
H473 H 0.54525 0.58816 0.26758 0.0
H474 H 0.59031 0.65812 0.26553 0.0
H475 H 0.62582 0.64244 0.21954 0.0
H476 H 0.58061 0.57252 0.22125 0.0
H477 H 0.33739 0.39643 0.25419 0.0
H478 H 0.40422 0.42993 0.26326 0.0
H479 H 0.43825 0.49928 0.22095 0.0
H480 H 0.37171 0.46655 0.21193 0.0
H481 H 0.48341 0.53946 0.2455 0.0
H482 H 0.43484 0.41263 0.22154 0.0
H483 H 0.39042 0.34252 0.22012 0.0
H484 H 0.42497 0.32902 0.26664 0.0
H485 H 0.46925 0.39919 0.26839 0.0
C486 C 0.63699 0.52667 0.22423 0.0
C487 C 0.6655 0.55784 0.23287 0.0
C488 C 0.59883 0.50776 0.22936 0.0
C489 C 0.5885 0.51967 0.24321 0.0
C490 C 0.61748 0.5479 0.25276 0.0
C491 C 0.65575 0.56693 0.24762 0.0
C492 C 0.54733 0.50671 0.24607 0.0
C493 C 0.52088 0.46712 0.2467 0.0
C494 C 0.53361 0.5331 0.24603 0.0
C495 C 0.55993 0.57517 0.24464 0.0
C496 C 0.56257 0.59973 0.25702 0.0
C497 C 0.58814 0.63934 0.25591 0.0
C498 C 0.61102 0.65469 0.24244 0.0
C499 C 0.60817 0.6305 0.22999 0.0
C500 C 0.58258 0.5909 0.23101 0.0
C501 C 0.35889 0.41967 0.24704 0.0
C502 C 0.34934 0.42826 0.23216 0.0
C503 C 0.3971 0.4387 0.25224 0.0
C504 C 0.42629 0.46644 0.2426 0.0
C505 C 0.41622 0.47781 0.22855 0.0
C506 C 0.37809 0.45891 0.22336 0.0
C507 C 0.46741 0.4796 0.24573 0.0
C508 C 0.49385 0.51923 0.2461 0.0
C509 C 0.48114 0.45323 0.2463 0.0
C510 C 0.45495 0.41109 0.24517 0.0
C511 C 0.43278 0.3947 0.23149 0.0
C512 C 0.40765 0.35498 0.23063 0.0
C513 C 0.40479 0.33134 0.2433 0.0
C514 C 0.42715 0.34738 0.25685 0.0
C515 C 0.45226 0.3871 0.25779 0.0
H516 H 0.38531 0.3006 0.24262 0.0
H517 H 0.63088 0.68534 0.24164 0.0
H518 H 0.04367 0.65868 0.58462 0.0
H519 H 0.01291 0.59022 0.59049 0.0
H520 H 0.09859 0.582 0.56252 0.0
H521 H 0.12805 0.65021 0.55583 0.0
H522 H 0.03457 0.53372 0.55213 0.0
H523 H 0.08406 0.56155 0.60426 0.0
H524 H 0.09982 0.59288 0.63042 0.0
H525 H 0.97953 0.54518 0.64047 0.0
H526 H 0.96302 0.51398 0.61428 0.0
H527 H 0.94075 0.33051 0.58461 0.0
H528 H 0.97826 0.39877 0.59141 0.0
H529 H 0.91139 0.42348 0.55848 0.0
H530 H 0.87455 0.35551 0.55126 0.0
H531 H 0.97262 0.46105 0.60116 0.0
H532 H 0.97143 0.4938 0.53449 0.0
H533 H 0.96166 0.46076 0.50885 0.0
H534 H -0.00124 0.38657 0.52908 0.0
H535 H 0.00935 0.41958 0.55475 0.0
C536 C 0.05672 0.64257 0.58014 0.0
C537 C 0.08799 0.65964 0.56961 0.0
C538 C 0.03914 0.60329 0.58358 0.0
C539 C 0.05321 0.58065 0.57691 0.0
C540 C 0.08686 0.59868 0.56767 0.0
C541 C 0.10384 0.63771 0.56391 0.0
C542 C 0.02963 0.53788 0.57739 0.0
C543 C 0.02148 0.51805 0.56294 0.0
C544 C 0.01257 0.51694 0.59145 0.0
C545 C 0.02232 0.53562 0.60724 0.0
C546 C 0.06096 0.55797 0.612 0.0
C547 C 0.07003 0.57566 0.62684 0.0
C548 C 0.0407 0.57108 0.63709 0.0
C549 C 0.00222 0.54871 0.63252 0.0
C550 C 0.99299 0.53096 0.61768 0.0
C551 C 0.93315 0.35026 0.57919 0.0
C552 C 0.90524 0.33778 0.56713 0.0
C553 C 0.95464 0.38931 0.58311 0.0
C554 C 0.94826 0.41625 0.57514 0.0
C555 C 0.91727 0.40317 0.56453 0.0
C556 C 0.89618 0.36431 0.56044 0.0
C557 C 0.97724 0.45784 0.57592 0.0
C558 C 0.98623 0.47715 0.59049 0.0
C559 C 0.99624 0.47835 0.56208 0.0
C560 C 0.99082 0.45894 0.54656 0.0
C561 C 0.97769 0.47058 0.53343 0.0
C562 C 0.97199 0.45184 0.5189 0.0
C563 C 0.97947 0.42152 0.51735 0.0
C564 C 0.99287 0.40999 0.5303 0.0
C565 C -0.00129 0.4287 0.54484 0.0
H566 H 0.97496 0.407 0.5061 0.0
H567 H 0.04778 0.58481 0.64858 0.0
H568 H 0.47104 0.10669 0.88049 0.0
H569 H 0.5042 0.07498 0.89111 0.0
H570 H 0.43064 0.03987 0.93224 0.0
H571 H 0.3962 0.07065 0.92137 0.0
H572 H 0.54284 0.0718 0.9151 0.0
H573 H 0.40505 0.94503 0.94024 0.0
H574 H 0.33448 0.91631 0.93879 0.0
H575 H 0.34454 0.96131 0.89188 0.0
H576 H 0.41503 0.98941 0.8929 0.0
H577 H 0.59858 0.93255 0.92482 0.0
H578 H 0.5661 0.96698 0.93378 0.0
H579 H 0.4884 0.92191 0.8941 0.0
H580 H 0.52011 0.88702 0.88523 0.0
H581 H 0.45269 0.93109 0.91883 0.0
H582 H 0.57421 0.00623 0.89095 0.0
H583 H 0.64412 0.03356 0.88725 0.0
H584 H 0.66552 0.09074 0.93214 0.0
H585 H 0.59563 0.06335 0.93617 0.0
C586 C 0.46243 0.09312 0.89199 0.0
C587 C 0.43029 0.09037 0.89986 0.0
C588 C 0.48163 0.07509 0.89811 0.0
C589 C 0.4693 0.05415 0.91229 0.0
C590 C 0.44013 0.05516 0.92111 0.0
C591 C 0.42057 0.07294 0.9149 0.0
C592 C 0.4833 0.02718 0.91627 0.0
C593 C 0.52312 0.04112 0.9163 0.0
C594 C 0.45765 0.987 0.91762 0.0
C595 C 0.41529 0.96985 0.91677 0.0
C596 C 0.39215 0.94869 0.92961 0.0
C597 C 0.35218 0.93249 0.92886 0.0
C598 C 0.33506 0.93725 0.91531 0.0
C599 C 0.35784 0.95784 0.9024 0.0
C600 C 0.39779 0.97383 0.90305 0.0
C601 C 0.57373 0.92889 0.9183 0.0
C602 C 0.56239 0.90762 0.90412 0.0
C603 C 0.55533 0.94877 0.92341 0.0
C604 C 0.52543 0.94773 0.9144 0.0
C605 C 0.51155 0.92332 0.9012 0.0
C606 C 0.52984 0.90344 0.8961 0.0
C607 C 0.51207 0.97568 0.91715 0.0
C608 C 0.47243 0.96191 0.91838 0.0
C609 C 0.5378 0.0159 0.91635 0.0
C610 C 0.57976 0.03236 0.91396 0.0
C611 C 0.59384 0.02441 0.90008 0.0
C612 C 0.63344 0.03994 0.89791 0.0
C613 C 0.65924 0.06378 0.90947 0.0
C614 C 0.64549 0.07219 0.92321 0.0
C615 C 0.6059 0.05668 0.92545 0.0
H616 H 0.68989 0.07581 0.90776 0.0
H617 H 0.30414 0.92483 0.91478 0.0
H618 H 0.60906 0.66757 0.41359 0.0
H619 H 0.57424 0.60244 0.4026 0.0
H620 H 0.49371 0.56672 0.44141 0.0
H621 H 0.52784 0.63147 0.45228 0.0
H622 H 0.56964 0.54195 0.41634 0.0
H623 H 0.40946 0.49302 0.43281 0.0
H624 H 0.36544 0.51902 0.4311 0.0
H625 H 0.43419 0.59556 0.39395 0.0
H626 H 0.47834 0.56964 0.39525 0.0
H627 H 0.46537 0.36534 0.45293 0.0
H628 H 0.5015 0.42981 0.44193 0.0
H629 H 0.42474 0.39467 0.40185 0.0
H630 H 0.3879 0.32981 0.41295 0.0
H631 H 0.42816 0.455 0.41517 0.0
H632 H 0.52134 0.42756 0.39618 0.0
H633 H 0.56567 0.40178 0.39587 0.0
H634 H 0.63097 0.47785 0.43373 0.0
H635 H 0.58673 0.5037 0.43446 0.0
C636 C 0.58324 0.64612 0.41952 0.0
C637 C 0.57138 0.65463 0.4339 0.0
C638 C 0.56347 0.60886 0.41325 0.0
C639 C 0.53127 0.57965 0.42113 0.0
C640 C 0.51805 0.58882 0.43493 0.0
C641 C 0.53779 0.6259 0.44122 0.0
C642 C 0.51438 0.53869 0.41641 0.0
C643 C 0.53872 0.52294 0.41583 0.0
C644 C 0.47413 0.514 0.41511 0.0
C645 C 0.44732 0.52939 0.41416 0.0
C646 C 0.41506 0.51517 0.42418 0.0
C647 C 0.39011 0.52997 0.42331 0.0
C648 C 0.39703 0.55895 0.41244 0.0
C649 C 0.4289 0.57317 0.4024 0.0
C650 C 0.45394 0.55847 0.40321 0.0
C651 C 0.45671 0.37093 0.44156 0.0
C652 C 0.42347 0.34252 0.43393 0.0
C653 C 0.47762 0.40786 0.4352 0.0
C654 C 0.46593 0.41717 0.42102 0.0
C655 C 0.43431 0.38815 0.4128 0.0
C656 C 0.41337 0.35103 0.41914 0.0
C657 C 0.48335 0.45822 0.41633 0.0
C658 C 0.45911 0.474 0.41516 0.0
C659 C 0.52372 0.48293 0.41571 0.0
C660 C 0.55059 0.46755 0.41538 0.0
C661 C 0.545 0.43865 0.40451 0.0
C662 C 0.57015 0.42403 0.40425 0.0
C663 C 0.60111 0.43817 0.41477 0.0
C664 C 0.60701 0.46697 0.42557 0.0
C665 C 0.58193 0.48168 0.42589 0.0
H666 H 0.62055 0.42681 0.41455 0.0
H667 H 0.37769 0.57037 0.41179 0.0
H668 H 0.88579 0.52449 0.78631 0.0
H669 H 0.91751 0.49081 0.77611 0.0
H670 H 0.95609 0.56532 0.7353 0.0
H671 H 0.92492 0.5999 0.74564 0.0
H672 H 0.92123 0.45258 0.75114 0.0
H673 H 0.04977 0.5914 0.72925 0.0
H674 H 0.07812 0.66182 0.7317 0.0
H675 H 0.03241 0.6477 0.77871 0.0
H676 H 0.0041 0.57729 0.77655 0.0
H677 H 0.05806 0.39279 0.74608 0.0
H678 H 0.02758 0.42778 0.73552 0.0
H679 H 0.06643 0.5028 0.77618 0.0
H680 H 0.09754 0.46875 0.78659 0.0
H681 H 0.06264 0.54092 0.75133 0.0
H682 H 0.98077 0.41589 0.77625 0.0
H683 H 0.95197 0.34544 0.77832 0.0
H684 H 0.90304 0.33164 0.73197 0.0
H685 H 0.93229 0.40213 0.7295 0.0
C686 C 0.90008 0.53311 0.77494 0.0
C687 C 0.90353 0.56542 0.76697 0.0
C688 C 0.9181 0.51366 0.76907 0.0
C689 C 0.93991 0.52609 0.75511 0.0
C690 C 0.93992 0.55566 0.74623 0.0
C691 C 0.9219 0.57527 0.75213 0.0
C692 C 0.96673 0.51176 0.75146 0.0
C693 C 0.95213 0.4719 0.75077 0.0
C694 C 0.0071 0.53693 0.75114 0.0
C695 C 0.02452 0.57919 0.75266 0.0
C696 C 0.04589 0.6034 0.7401 0.0
C697 C 0.06192 0.64328 0.74144 0.0
C698 C 0.05696 0.65921 0.75533 0.0
C699 C 0.03612 0.63532 0.76794 0.0
C700 C 0.02008 0.59545 0.76667 0.0
C701 C 0.06124 0.41757 0.75251 0.0
C702 C 0.07949 0.42744 0.76738 0.0
C703 C 0.04367 0.43746 0.74646 0.0
C704 C 0.04389 0.46729 0.75525 0.0
C705 C 0.06565 0.47975 0.76922 0.0
C706 C 0.08332 0.46006 0.77522 0.0
C707 C 0.01714 0.48168 0.75154 0.0
C708 C 0.03175 0.52157 0.75088 0.0
C709 C 0.97674 0.45652 0.75111 0.0
C710 C 0.95914 0.41422 0.7526 0.0
C711 C 0.96412 0.39782 0.76645 0.0
C712 C 0.94775 0.35791 0.76769 0.0
C713 C 0.92584 0.33409 0.75525 0.0
C714 C 0.92015 0.35014 0.74157 0.0
C715 C 0.93669 0.39006 0.74022 0.0
H716 H 0.91316 0.3032 0.75623 0.0
H717 H 0.06934 0.69006 0.75635 0.0
H718 H 0.33701 0.93597 0.07736 0.0
H719 H 0.40297 0.96591 0.06728 0.0
H720 H 0.43467 0.91938 0.10675 0.0
H721 H 0.36909 0.88903 0.11668 0.0
H722 H 0.4614 0.02115 0.08198 0.0
H723 H 0.51 0.91047 0.09992 0.0
H724 H 0.48499 0.84066 0.09788 0.0
H725 H 0.41255 0.83357 0.05916 0.0
H726 H 0.43752 0.90345 0.06078 0.0
H727 H 0.63309 0.09382 0.12241 0.0
H728 H 0.56977 0.0643 0.11021 0.0
H729 H 0.61136 0.02685 0.07086 0.0
H730 H 0.67509 0.05611 0.08313 0.0
H731 H 0.5496 0.96813 0.08306 0.0
H732 H 0.5781 0.08935 0.06437 0.0
H733 H 0.60332 0.15938 0.06458 0.0
H734 H 0.52215 0.14556 0.10071 0.0
H735 H 0.49681 0.07553 0.10091 0.0
C736 C 0.35775 0.93109 0.0836 0.0
C737 C 0.3479 0.91046 0.09793 0.0
C738 C 0.39549 0.94836 0.07785 0.0
C739 C 0.42384 0.94492 0.08622 0.0
C740 C 0.41328 0.922 0.0999 0.0
C741 C 0.37571 0.90483 0.10565 0.0
C742 C 0.46528 0.96949 0.0823 0.0
C743 C 0.48069 0.00955 0.08194 0.0
C744 C 0.49045 0.95439 0.08164 0.0
C745 C 0.47563 0.91231 0.0805 0.0
C746 C 0.48898 0.89413 0.09088 0.0
C747 C 0.47473 0.85449 0.08982 0.0
C748 C 0.44717 0.83268 0.07841 0.0
C749 C 0.43383 0.85048 0.06802 0.0
C750 C 0.44799 0.8901 0.06902 0.0
C751 C 0.62914 0.08018 0.11097 0.0
C752 C 0.65906 0.07698 0.10385 0.0
C753 C 0.59288 0.06347 0.10393 0.0
C754 C 0.58577 0.04341 0.08958 0.0
C755 C 0.6162 0.0422 0.08193 0.0
C756 C 0.65265 0.05907 0.08895 0.0
C757 C 0.5455 0.01962 0.08397 0.0
C758 C 0.53033 0.97973 0.08255 0.0
C759 C 0.52057 0.03489 0.0827 0.0
C760 C 0.53556 0.07708 0.08265 0.0
C761 C 0.56575 0.10124 0.07243 0.0
C762 C 0.58006 0.14096 0.07247 0.0
C763 C 0.56435 0.15691 0.08265 0.0
C764 C 0.53426 0.13316 0.09281 0.0
C765 C 0.51984 0.09342 0.09282 0.0
H766 H 0.57547 0.18767 0.08267 0.0
H767 H 0.43617 0.802 0.07762 0.0
H768 H 0.25543 0.01667 0.11764 0.0
H769 H 0.25944 0.07449 0.12914 0.0
H770 H 0.26889 0.03639 0.17575 0.0
H771 H 0.26528 0.97857 0.16436 0.0
H772 H 0.213 0.05976 0.17291 0.0
H773 H 0.34599 0.10581 0.16045 0.0
H774 H 0.40021 0.11741 0.14313 0.0
H775 H 0.37388 0.18607 0.11226 0.0
H776 H 0.31911 0.1744 0.12928 0.0
H777 H 0.25677 0.22858 0.21466 0.0
H778 H 0.25992 0.17403 0.20364 0.0
H779 H 0.26895 0.21959 0.15662 0.0
H780 H 0.26689 0.27493 0.1676 0.0
H781 H 0.31636 0.19223 0.15976 0.0
H782 H 0.18324 0.14572 0.1708 0.0
H783 H 0.12712 0.1335 0.18701 0.0
H784 H 0.15086 0.06496 0.21906 0.0
H785 H 0.20747 0.07722 0.20315 0.0
C786 C 0.25849 0.02062 0.13033 0.0
C787 C 0.26004 0.99307 0.1401 0.0
C788 C 0.26092 0.05372 0.13686 0.0
C789 C 0.26465 0.05967 0.15326 0.0
C790 C 0.26609 0.03223 0.16305 0.0
C791 C 0.26414 -0.00066 0.15652 0.0
C792 C 0.26593 0.09405 0.16021 0.0
C793 C 0.23588 0.08875 0.17026 0.0
C794 C 0.2952 0.13173 0.15629 0.0
C795 C 0.3282 0.1389 0.14606 0.0
C796 C 0.35154 0.12309 0.14989 0.0
C797 C 0.38242 0.12974 0.14015 0.0
C798 C 0.39042 0.15238 0.12658 0.0
C799 C 0.36761 0.1685 0.12276 0.0
C800 C 0.33667 0.1619 0.13246 0.0
C801 C 0.25952 0.22708 0.20197 0.0
C802 C 0.26126 0.25592 0.19198 0.0
C803 C 0.2612 0.19581 0.19569 0.0
C804 C 0.26397 0.19239 0.17929 0.0
C805 C 0.26669 0.22161 0.16931 0.0
C806 C 0.26541 0.25315 0.1756 0.0
C807 C 0.26341 0.15803 0.17254 0.0
C808 C 0.29352 0.16328 0.16249 0.0
C809 C 0.2339 0.12024 0.1763 0.0
C810 C 0.19982 0.11271 0.18587 0.0
C811 C 0.17667 0.12829 0.18137 0.0
C812 C 0.14474 0.12131 0.19049 0.0
C813 C 0.1355 0.09855 0.20408 0.0
C814 C 0.1581 0.08263 0.20854 0.0
C815 C 0.19008 0.08956 0.19947 0.0
H816 H 0.11077 0.09318 0.21112 0.0
H817 H 0.41435 0.1575 0.11905 0.0
H818 H 0.96697 0.25396 0.50121 0.0
H819 H 0.02543 0.25963 0.48952 0.0
H820 H 0.06415 0.24849 0.53576 0.0
H821 H 0.00573 0.24246 0.54756 0.0
H822 H 0.12135 0.30942 0.51691 0.0
H823 H 0.02749 0.1737 0.51341 0.0
H824 H 0.96509 0.11802 0.50578 0.0
H825 H 0.98879 0.15085 0.45694 0.0
H826 H 0.05114 0.20708 0.46431 0.0
H827 H 0.26774 0.26652 0.49876 0.0
H828 H 0.21161 0.26842 0.5087 0.0
H829 H 0.16856 0.25708 0.46106 0.0
H830 H 0.22407 0.25396 0.45108 0.0
H831 H 0.11317 0.2103 0.4795 0.0
H832 H 0.20751 0.34358 0.48193 0.0
H833 H 0.26952 0.40077 0.48877 0.0
H834 H 0.24522 0.37573 0.53818 0.0
H835 H 0.18327 0.31806 0.53164 0.0
C836 C 0.98795 0.25277 0.5089 0.0
C837 C 0.98168 0.24758 0.5253 0.0
C838 C 0.02125 0.25597 0.5022 0.0
C839 C 0.04889 0.25434 0.5118 0.0
C840 C 0.04307 0.24984 0.52819 0.0
C841 C 0.00961 0.24619 0.53488 0.0
C842 C 0.08363 0.2566 0.50475 0.0
C843 C 0.11974 0.28763 0.50884 0.0
C844 C 0.08116 0.22871 0.49388 0.0
C845 C 0.04377 0.19483 0.48943 0.0
C846 C 0.01924 0.16924 0.50106 0.0
C847 C 0.98391 0.13755 0.49678 0.0
C848 C 0.97293 0.13097 0.48089 0.0
C849 C 0.99731 0.15602 0.46925 0.0
C850 C 0.03265 0.18779 0.47347 0.0
C851 C 0.24649 0.26476 0.49038 0.0
C852 C 0.25029 0.26002 0.47414 0.0
C853 C 0.21449 0.26603 0.49607 0.0
C854 C 0.18608 0.26336 0.48561 0.0
C855 C 0.19011 0.25917 0.46936 0.0
C856 C 0.22187 0.25743 0.46367 0.0
C857 C 0.1513 0.26313 0.4917 0.0
C858 C 0.11504 0.23239 0.48745 0.0
C859 C 0.15366 0.29158 0.50228 0.0
C860 C 0.19088 0.32629 0.50628 0.0
C861 C 0.21552 0.35009 0.49425 0.0
C862 C 0.25063 0.38263 0.49808 0.0
C863 C 0.26134 0.39183 0.5139 0.0
C864 C 0.23691 0.36855 0.52593 0.0
C865 C 0.20176 0.33596 0.52217 0.0
H866 H 0.28854 0.41704 0.51684 0.0
H867 H 0.94557 0.10641 0.4776 0.0
H868 H 0.0051 0.27693 0.83586 0.0
H869 H 0.94728 0.22246 0.84714 0.0
H870 H 0.90201 0.18453 0.80017 0.0
H871 H 0.9602 0.23794 0.78884 0.0
H872 H 0.87218 0.19612 0.847 0.0
H873 H 0.85638 0.08866 0.79774 0.0
H874 H 0.89715 0.07881 0.77862 0.0
H875 H 0.99511 0.14043 0.80899 0.0
H876 H 0.95484 0.15019 0.82837 0.0
H877 H 0.70855 0.98284 0.83932 0.0
H878 H 0.76087 0.04263 0.82839 0.0
H879 H 0.8143 0.07398 0.87437 0.0
H880 H 0.76214 0.0143 0.88545 0.0
H881 H 0.83888 0.0659 0.82816 0.0
H882 H 0.8575 0.17356 0.87734 0.0
H883 H 0.81819 0.18123 0.8979 0.0
H884 H 0.71676 0.11696 0.86962 0.0
H885 H 0.75554 0.10955 0.84876 0.0
C886 C 0.98266 0.25711 0.82796 0.0
C887 C 0.98739 0.26129 0.81147 0.0
C888 C 0.94962 0.22609 0.83441 0.0
C889 C 0.92071 0.199 0.82448 0.0
C890 C 0.9244 0.20453 0.80804 0.0
C891 C 0.95763 0.2351 0.80159 0.0
C892 C 0.88772 0.16387 0.83122 0.0
C893 C 0.86511 0.16764 0.84299 0.0
C894 C 0.87827 0.1267 0.82588 0.0
C895 C 0.90265 0.12049 0.81441 0.0
C896 C 0.88659 0.09997 0.80035 0.0
C897 C 0.90962 0.09442 0.78947 0.0
C898 C 0.94872 0.1091 0.79256 0.0
C899 C 0.96485 0.1292 0.80658 0.0
C900 C 0.94195 0.13478 0.81751 0.0
C901 C 0.73133 0.00252 0.84714 0.0
C902 C 0.73126 0.99381 0.86324 0.0
C903 C 0.76119 0.03658 0.84086 0.0
C904 C 0.79118 0.06271 0.85061 0.0
C905 C 0.79112 0.0543 0.86671 0.0
C906 C 0.76142 0.02011 0.87298 0.0
C907 C 0.82328 0.09819 0.84381 0.0
C908 C 0.84583 0.09442 0.83207 0.0
C909 C 0.83288 0.1352 0.84935 0.0
C910 C 0.80943 0.14068 0.86156 0.0
C911 C 0.82686 0.16129 0.87546 0.0
C912 C 0.80466 0.16557 0.88717 0.0
C913 C 0.76499 0.14947 0.88509 0.0
C914 C 0.74747 0.1293 0.87124 0.0
C915 C 0.76956 0.12505 0.85947 0.0
H916 H 0.74783 0.15268 0.8942 0.0
H917 H 0.96651 0.10482 0.78411 0.0
H918 H 0.76222 0.97822 0.12429 0.0
H919 H 0.75959 0.92024 0.13482 0.0
H920 H 0.7293 0.94375 0.18076 0.0
H921 H 0.73166 0.00177 0.17033 0.0
H922 H 0.7891 0.92648 0.18127 0.0
H923 H 0.66166 0.87493 0.15979 0.0
H924 H 0.61415 0.8642 0.13904 0.0
H925 H 0.66088 0.8102 0.10966 0.0
H926 H 0.70906 0.82112 0.13016 0.0
H927 H 0.74646 0.75129 0.21723 0.0
H928 H 0.74157 0.80572 0.2072 0.0
H929 H 0.75222 0.77444 0.15938 0.0
H930 H 0.75547 0.7189 0.16934 0.0
H931 H 0.70098 0.79587 0.16013 0.0
H932 H 0.82962 0.84892 0.18011 0.0
H933 H 0.87937 0.86059 0.19994 0.0
H934 H 0.8339 0.91306 0.23087 0.0
H935 H 0.78356 0.90127 0.21129 0.0
C936 C 0.75489 0.97104 0.13662 0.0
C937 C 0.74711 0.99457 0.14648 0.0
C938 C 0.75326 0.93784 0.14259 0.0
C939 C 0.744 0.9277 0.15852 0.0
C940 C 0.73642 0.95115 0.16842 0.0
C941 C 0.73768 0.98419 0.16243 0.0
C942 C 0.74318 0.89305 0.16492 0.0
C943 C 0.76947 0.89781 0.17684 0.0
C944 C 0.71829 0.85595 0.15876 0.0
C945 C 0.68921 0.84917 0.14645 0.0
C946 C 0.66202 0.86106 0.14885 0.0
C947 C 0.63492 0.85488 0.13715 0.0
C948 C 0.63455 0.83662 0.12302 0.0
C949 C 0.66122 0.82439 0.1206 0.0
C950 C 0.68841 0.83053 0.13226 0.0
C951 C 0.74768 0.75597 0.20457 0.0
C952 C 0.75167 0.73108 0.19406 0.0
C953 C 0.74503 0.78717 0.19886 0.0
C954 C 0.74736 0.79466 0.18255 0.0
C955 C 0.75048 0.7693 0.17201 0.0
C956 C 0.75242 0.73765 0.17771 0.0
C957 C 0.74705 0.82917 0.1765 0.0
C958 C 0.72059 0.82446 0.16462 0.0
C959 C 0.77216 0.86646 0.18255 0.0
C960 C 0.8026 0.87388 0.19429 0.0
C961 C 0.83008 0.86273 0.19118 0.0
C962 C 0.85841 0.86939 0.20237 0.0
C963 C 0.85973 0.88746 0.21667 0.0
C964 C 0.8328 0.89902 0.21979 0.0
C965 C 0.8044 0.89239 0.20865 0.0
H966 H 0.88167 0.89258 0.22532 0.0
H967 H 0.61355 0.83186 0.11397 0.0
H968 H 0.77302 0.75865 0.45416 0.0
H969 H 0.8276 0.75543 0.46521 0.0
H970 H 0.77309 0.7283 0.51104 0.0
H971 H 0.71826 0.73142 0.50011 0.0
H972 H 0.85 0.78643 0.51175 0.0
H973 H 0.77332 0.65891 0.49028 0.0
H974 H 0.73709 0.61161 0.46938 0.0
H975 H 0.83934 0.65673 0.44098 0.0
H976 H 0.87608 0.70468 0.46164 0.0
H977 H 0.97463 0.73878 0.55078 0.0
H978 H 0.91719 0.73517 0.53928 0.0
H979 H 0.96486 0.74617 0.49253 0.0
H980 H 0.02194 0.74829 0.50398 0.0
H981 H 0.89104 0.69601 0.492 0.0
H982 H 0.96781 0.82395 0.51223 0.0
H983 H 0.00537 0.8734 0.53224 0.0
H984 H 0.90513 0.83092 0.56174 0.0
H985 H 0.86708 0.78087 0.54198 0.0
C986 C 0.77257 0.75194 0.46659 0.0
C987 C 0.74131 0.74529 0.47627 0.0
C988 C 0.80369 0.74994 0.47285 0.0
C989 C 0.80414 0.74135 0.4889 0.0
C990 C 0.77314 0.73488 0.49862 0.0
C991 C 0.74185 0.73659 0.49234 0.0
C992 C 0.83746 0.74008 0.49564 0.0
C993 C 0.85871 0.76631 0.50761 0.0
C994 C 0.84935 0.71461 0.48983 0.0
C995 C 0.82736 0.68562 0.47745 0.0
C996 C 0.78801 0.65895 0.47953 0.0
C997 C 0.7674 0.63198 0.46773 0.0
C998 C 0.78588 0.63123 0.45384 0.0
C999 C 0.82505 0.65737 0.45174 0.0
C1000 C 0.84579 0.68442 0.46349 0.0
C1001 C 0.97282 0.74025 0.53805 0.0
C1002 C 0.00292 0.74417 0.52828 0.0
C1003 C 0.94004 0.73835 0.53149 0.0
C1004 C 0.93711 0.7413 0.51507 0.0
C1005 C 0.9666 0.74402 0.50524 0.0
C1006 C -0.0008 0.74529 0.51179 0.0
C1007 C 0.90362 0.74231 0.50822 0.0
C1008 C 0.88238 0.71612 0.49618 0.0
C1009 C 0.89196 0.76818 0.51383 0.0
C1010 C 0.91469 0.79845 0.52569 0.0
C1011 C 0.95384 0.825 0.52303 0.0
C1012 C 0.97521 0.85315 0.53432 0.0
C1013 C 0.95767 0.85524 0.54827 0.0
C1014 C 0.91869 0.82924 0.55094 0.0
C1015 C 0.8972 0.801 0.53969 0.0
H1016 H 0.97426 0.87705 0.557 0.0
H1017 H 0.76986 0.61034 0.44472 0.0
H1018 H 0.29535 0.00482 0.83299 0.0
H1019 H 0.24212 0.9481 0.82046 0.0
H1020 H 0.17279 0.92773 0.86222 0.0
H1021 H 0.22548 0.98419 0.87481 0.0
H1022 H 0.19925 0.86992 0.82882 0.0
H1023 H 0.08334 0.90535 0.85001 0.0
H1024 H 0.07824 0.96217 0.8573 0.0
H1025 H 0.17444 0.03337 0.82735 0.0
H1026 H 0.17975 0.97689 0.8197 0.0
H1027 H 0.00759 0.71124 0.82412 0.0
H1028 H 0.06852 0.76675 0.83244 0.0
H1029 H 0.06201 0.8332 0.79371 0.0
H1030 H 0.00126 0.77796 0.78527 0.0
H1031 H 0.07671 0.87079 0.82227 0.0
H1032 H 0.12474 0.80456 0.7914 0.0
H1033 H 0.13009 0.74869 0.78283 0.0
H1034 H 0.17133 0.74166 0.82886 0.0
H1035 H 0.16555 0.79708 0.8378 0.0
C1036 C 0.26886 0.98808 0.83956 0.0
C1037 C 0.2645 -0.00074 0.85484 0.0
C1038 C 0.23861 0.95563 0.8324 0.0
C1039 C 0.20351 0.93411 0.84037 0.0
C1040 C 0.19958 0.94431 0.85583 0.0
C1041 C 0.22975 0.97658 0.863 0.0
C1042 C 0.17014 0.90219 0.8323 0.0
C1043 C 0.17245 0.87004 0.82735 0.0
C1044 C 0.13554 0.90288 0.83012 0.0
C1045 C 0.13213 0.93692 0.8344 0.0
C1046 C 0.10328 0.93309 0.84492 0.0
C1047 C 0.10037 0.96525 0.84913 0.0
C1048 C 0.12607 0.00138 0.84283 0.0
C1049 C 0.15464 0.0054 0.83226 0.0
C1050 C 0.15763 0.97333 0.82801 0.0
C1051 C 0.0192 0.7376 0.81733 0.0
C1052 C -0.00049 0.74024 0.80407 0.0
C1053 C 0.05408 0.76918 0.82205 0.0
C1054 C 0.06973 0.80391 0.81363 0.0
C1055 C 0.05033 0.80657 0.80034 0.0
C1056 C 0.01566 0.77495 0.79553 0.0
C1057 C 0.10542 0.83802 0.81915 0.0
C1058 C 0.10353 0.87065 0.82365 0.0
C1059 C 0.14046 0.8379 0.82069 0.0
C1060 C 0.14439 0.8048 0.81531 0.0
C1061 C 0.13466 0.79092 0.79974 0.0
C1062 C 0.13781 0.75935 0.7948 0.0
C1063 C 0.15098 0.7416 0.8053 0.0
C1064 C 0.16111 0.75543 0.82074 0.0
C1065 C 0.15792 0.78694 0.82575 0.0
H1066 H 0.1534 0.71716 0.80146 0.0
H1067 H 0.1238 0.02624 0.84611 0.0
H1068 H 0.29558 0.20324 0.39063 0.0
H1069 H 0.28117 0.21047 0.3632 0.0
H1070 H 0.18058 0.21443 0.37841 0.0
H1071 H 0.19424 0.20628 0.40585 0.0
H1072 H 0.16681 0.17667 0.35086 0.0
H1073 H 0.26505 0.29683 0.37188 0.0
H1074 H 0.3265 0.34039 0.38515 0.0
H1075 H 0.38848 0.32149 0.34814 0.0
H1076 H 0.32732 0.2773 0.33477 0.0
H1077 H 0.15705 0.2839 0.28435 0.0
H1078 H 0.16156 0.26152 0.31082 0.0
H1079 H 0.25551 0.24646 0.2952 0.0
H1080 H 0.25114 0.26845 0.2688 0.0
H1081 H 0.27151 0.28904 0.32287 0.0
H1082 H 0.17087 0.16961 0.30155 0.0
H1083 H 0.10841 0.12726 0.28876 0.0
H1084 H 0.0498 0.14771 0.32673 0.0
H1085 H 0.112 0.19065 0.33965 0.0
C1086 C 0.27002 0.20499 0.38813 0.0
C1087 C 0.24634 0.20467 0.40046 0.0
C1088 C 0.2619 0.20928 0.37244 0.0
C1089 C 0.23028 0.21388 0.36879 0.0
C1090 C 0.20525 0.21116 0.38096 0.0
C1091 C 0.21317 0.20656 0.39666 0.0
C1092 C 0.22489 0.22421 0.35249 0.0
C1093 C 0.18955 0.20145 0.3448 0.0
C1094 C 0.25468 0.25642 0.34452 0.0
C1095 C 0.29157 0.28343 0.35241 0.0
C1096 C 0.29177 0.30176 0.36662 0.0
C1097 C 0.32654 0.32658 0.37416 0.0
C1098 C 0.36136 0.33362 0.36752 0.0
C1099 C 0.36148 0.31596 0.35329 0.0
C1100 C 0.32677 0.29103 0.34572 0.0
C1101 C 0.1784 0.27545 0.28651 0.0
C1102 C 0.20377 0.27807 0.27445 0.0
C1103 C 0.18087 0.26258 0.30163 0.0
C1104 C 0.20886 0.25231 0.30495 0.0
C1105 C 0.23375 0.2543 0.29288 0.0
C1106 C 0.23108 0.26677 0.27777 0.0
C1107 C 0.21359 0.24128 0.32119 0.0
C1108 C 0.24881 0.26414 0.32891 0.0
C1109 C 0.18355 0.2095 0.32922 0.0
C1110 C 0.14613 0.18367 0.32148 0.0
C1111 C 0.14469 0.16536 0.3071 0.0
C1112 C 0.10933 0.14119 0.29985 0.0
C1113 C 0.07516 0.13488 0.30691 0.0
C1114 C 0.07629 0.15267 0.32127 0.0
C1115 C 0.11159 0.1769 0.32857 0.0
H1116 H 0.0478 0.11615 0.30127 0.0
H1117 H 0.38825 0.35281 0.37338 0.0
H1118 H 0.01327 0.2571 0.59768 0.0
H1119 H 0.03369 0.25822 0.62495 0.0
H1120 H 0.91504 0.19584 0.63989 0.0
H1121 H 0.89425 0.1944 0.61247 0.0
H1122 H 0.96026 0.26229 0.65758 0.0
H1123 H 0.96531 0.15121 0.6408 0.0
H1124 H 0.98286 0.11308 0.6234 0.0
H1125 H 0.10277 0.19294 0.63127 0.0
H1126 H 0.08596 0.23189 0.64855 0.0
H1127 H 0.01032 0.24917 0.73656 0.0
H1128 H 0.98276 0.22757 0.71024 0.0
H1129 H 0.0961 0.29015 0.68964 0.0
H1130 H 0.12401 0.31222 0.71595 0.0
H1131 H 0.04873 0.21712 0.67559 0.0
H1132 H 0.04564 0.33144 0.68923 0.0
H1133 H 0.03103 0.37262 0.70611 0.0
H1134 H 0.91037 0.28987 0.70343 0.0
H1135 H 0.92433 0.24782 0.68671 0.0
C1136 C 0.99145 0.24314 0.60672 0.0
C1137 C 0.95213 0.22571 0.60292 0.0
C1138 C 0.00319 0.24368 0.6223 0.0
C1139 C 0.97589 0.22698 0.63445 0.0
C1140 C 0.93655 0.20882 0.63068 0.0
C1141 C 0.92473 0.20786 0.61501 0.0
C1142 C 0.98883 0.23089 0.65113 0.0
C1143 C 0.97886 0.25161 0.66162 0.0
C1144 C 0.01409 0.21802 0.65625 0.0
C1145 C 0.02435 0.19464 0.64588 0.0
C1146 C 0.99543 0.16083 0.63872 0.0
C1147 C 0.00525 0.13903 0.6289 0.0
C1148 C 0.04391 0.15062 0.62621 0.0
C1149 C 0.07284 0.18401 0.63336 0.0
C1150 C 0.06318 0.20593 0.64319 0.0
C1151 C 0.02953 0.25789 0.72648 0.0
C1152 C 0.06938 0.28271 0.72835 0.0
C1153 C 0.01367 0.24557 0.71144 0.0
C1154 C 0.03736 0.25758 0.698 0.0
C1155 C 0.07734 0.28058 0.69988 0.0
C1156 C 0.09321 0.29327 0.71491 0.0
C1157 C 0.02019 0.24852 0.68195 0.0
C1158 C 0.02956 0.22713 0.67159 0.0
C1159 C 0.99468 0.2611 0.67688 0.0
C1160 C 0.98607 0.28627 0.68688 0.0
C1161 C 0.01601 0.32183 0.69236 0.0
C1162 C 0.00786 0.34536 0.70187 0.0
C1163 C 0.96982 0.33383 0.70586 0.0
C1164 C 0.93983 0.29873 0.70034 0.0
C1165 C 0.94785 0.27503 0.69084 0.0
H1166 H 0.96361 0.3522 0.71315 0.0
H1167 H 0.05145 0.1337 0.6186 0.0
H1168 H 0.80177 0.09828 0.06241 0.0
H1169 H 0.79793 0.08352 0.03415 0.0
H1170 H 0.76179 0.96526 0.04506 0.0
H1171 H 0.76528 0.97964 0.07333 0.0
H1172 H 0.81307 0.99563 0.01845 0.0
H1173 H 0.6952 0.98406 0.03848 0.0
H1174 H 0.65713 0.00728 0.05276 0.0
H1175 H 0.69469 0.10122 0.02008 0.0
H1176 H 0.7336 0.07893 0.00576 0.0
H1177 H 0.71272 0.904 0.94715 0.0
H1178 H 0.73385 0.92352 0.97445 0.0
H1179 H 0.75145 0.03669 0.96452 0.0
H1180 H 0.72972 0.01723 0.93742 0.0
H1181 H 0.712 0.01011 0.99075 0.0
H1182 H 0.82762 0.01992 0.96975 0.0
H1183 H 0.86697 0.99757 0.95592 0.0
H1184 H 0.83453 0.90763 0.99023 0.0
H1185 H 0.79455 0.92913 0.00416 0.0
C1186 C 0.79386 0.06933 0.05881 0.0
C1187 C 0.78341 0.04001 0.07009 0.0
C1188 C 0.79159 0.06094 0.04267 0.0
C1189 C 0.77917 0.02322 0.03756 0.0
C1190 C 0.77141 0.99453 0.04878 0.0
C1191 C 0.77326 0.00279 0.06492 0.0
C1192 C 0.77036 0.01282 0.02066 0.0
C1193 C 0.79081 0.99848 0.01238 0.0
C1194 C 0.74162 0.01704 0.01276 0.0
C1195 C 0.71766 0.03008 0.02116 0.0
C1196 C 0.69559 0.00984 0.03441 0.0
C1197 C 0.67383 0.02281 0.0425 0.0
C1198 C 0.67358 0.05576 0.03736 0.0
C1199 C 0.69498 0.07573 0.02407 0.0
C1200 C 0.71688 0.06294 0.01596 0.0
C1201 C 0.7215 0.93316 0.95074 0.0
C1202 C 0.7194 0.959 0.94012 0.0
C1203 C 0.73371 0.94434 0.96634 0.0
C1204 C 0.74446 0.98168 0.97154 0.0
C1205 C 0.74321 0.00772 0.96082 0.0
C1206 C 0.73083 0.99653 0.94529 0.0
C1207 C 0.75499 0.99315 0.98833 0.0
C1208 C 0.73456 0.00749 0.99669 0.0
C1209 C 0.78377 0.98891 0.99625 0.0
C1210 C 0.80778 0.97591 0.98791 0.0
C1211 C 0.82862 0.99518 0.97427 0.0
C1212 C 0.85109 0.9827 0.96643 0.0
C1213 C 0.85317 0.95114 0.97217 0.0
C1214 C 0.83285 0.93204 0.98579 0.0
C1215 C 0.81031 0.94439 0.99367 0.0
H1216 H 0.87059 0.94153 0.96608 0.0
H1217 H 0.65673 0.06577 0.04365 0.0
H1218 H 0.73412 0.73901 0.26666 0.0
H1219 H 0.73444 0.75799 0.29413 0.0
H1220 H 0.80995 0.71463 0.30661 0.0
H1221 H 0.81001 0.69569 0.27903 0.0
H1222 H 0.74422 0.68667 0.32573 0.0
H1223 H 0.84482 0.80855 0.30669 0.0
H1224 H 0.87408 0.86431 0.28867 0.0
H1225 H 0.78629 0.89138 0.30065 0.0
H1226 H 0.75615 0.83542 0.31858 0.0
H1227 H 0.76575 0.74264 0.40492 0.0
H1228 H 0.7828 0.73973 0.37747 0.0
H1229 H 0.71809 0.79351 0.36248 0.0
H1230 H 0.7017 0.79747 0.3901 0.0
H1231 H 0.78158 0.81794 0.3446 0.0
H1232 H 0.67794 0.69629 0.36146 0.0
H1233 H 0.64449 0.63963 0.37886 0.0
H1234 H 0.73228 0.61054 0.37002 0.0
H1235 H 0.7666 0.66741 0.35276 0.0
C1236 C 0.75121 0.73392 0.2752 0.0
C1237 C 0.77198 0.71575 0.27067 0.0
C1238 C 0.75148 0.74495 0.29088 0.0
C1239 C 0.77235 0.73788 0.30239 0.0
C1240 C 0.79374 0.72043 0.29789 0.0
C1241 C 0.79385 0.70975 0.28212 0.0
C1242 C 0.76959 0.74636 0.31927 0.0
C1243 C 0.75312 0.71549 0.32993 0.0
C1244 C 0.77982 0.78375 0.32458 0.0
C1245 C 0.79804 0.81758 0.31388 0.0
C1246 C 0.83157 0.8262 0.30539 0.0
C1247 C 0.84835 0.85789 0.29521 0.0
C1248 C 0.83201 0.88132 0.29349 0.0
C1249 C 0.7989 0.87318 0.30198 0.0
C1250 C 0.78198 0.84151 0.31217 0.0
C1251 C 0.75559 0.75439 0.39581 0.0
C1252 C 0.73198 0.76987 0.39965 0.0
C1253 C 0.76528 0.7526 0.38011 0.0
C1254 C 0.75097 0.76555 0.36787 0.0
C1255 C 0.72928 0.78314 0.37172 0.0
C1256 C 0.71992 0.78537 0.38751 0.0
C1257 C 0.75647 0.75826 0.3511 0.0
C1258 C 0.77311 0.78921 0.34044 0.0
C1259 C 0.74579 0.72078 0.34568 0.0
C1260 C 0.72505 0.68634 0.35595 0.0
C1261 C 0.69026 0.67797 0.36332 0.0
C1262 C 0.67112 0.6458 0.37314 0.0
C1263 C 0.6863 0.62156 0.37557 0.0
C1264 C 0.7206 0.62938 0.36815 0.0
C1265 C 0.7399 0.66157 0.35834 0.0
H1266 H 0.67144 0.59666 0.38318 0.0
H1267 H 0.84504 0.90583 0.2856 0.0
H1268 H 0.01962 0.75846 0.60465 0.0
H1269 H 0.99099 0.75389 0.63051 0.0
H1270 H 0.10208 0.8376 0.64903 0.0
H1271 H 0.1313 0.84128 0.62318 0.0
H1272 H 0.0693 0.78092 0.66865 0.0
H1273 H 0.02735 0.85829 0.64222 0.0
H1274 H 0.99804 0.877 0.62091 0.0
H1275 H 0.88962 0.77396 0.62851 0.0
H1276 H 0.91841 0.75435 0.64973 0.0
H1277 H 0.99195 0.79841 0.74155 0.0
H1278 H 0.0193 0.81636 0.71499 0.0
H1279 H 0.92189 0.71456 0.69596 0.0
H1280 H 0.89447 0.69593 0.72258 0.0
H1281 H 0.94922 0.78543 0.67718 0.0
H1282 H 0.99479 0.70729 0.70251 0.0
H1283 H 0.02519 0.69071 0.72413 0.0
H1284 H 0.12885 0.79973 0.71877 0.0
H1285 H 0.09883 0.81719 0.69727 0.0
C1286 C 0.03799 0.77627 0.61416 0.0
C1287 C 0.07781 0.80027 0.61183 0.0
C1288 C 0.02147 0.77378 0.62896 0.0
C1289 C 0.0442 0.7958 0.64173 0.0
C1290 C 0.08389 0.82035 0.63937 0.0
C1291 C 0.10056 0.82252 0.62458 0.0
C1292 C 0.02684 0.79139 0.65771 0.0
C1293 C 0.04348 0.7827 0.67052 0.0
C1294 C 0.99266 0.79293 0.6602 0.0
C1295 C 0.97515 0.80471 0.64749 0.0
C1296 C 0.99733 0.83949 0.63928 0.0
C1297 C 0.98079 0.85027 0.62722 0.0
C1298 C 0.94201 0.82665 0.62333 0.0
C1299 C 0.91966 0.79223 0.63152 0.0
C1300 C 0.93606 0.78128 0.64358 0.0
C1301 C 0.97592 0.78014 0.7317 0.0
C1302 C 0.94111 0.74558 0.73419 0.0
C1303 C 0.99169 0.79042 0.71654 0.0
C1304 C 0.97275 0.76661 0.70357 0.0
C1305 C 0.93691 0.73329 0.70585 0.0
C1306 C 0.92135 0.72267 0.72105 0.0
C1307 C 0.99172 0.77493 0.68789 0.0
C1308 C 0.97529 0.78418 0.67522 0.0
C1309 C 0.02629 0.7743 0.68553 0.0
C1310 C 0.04441 0.76373 0.69841 0.0
C1311 C 0.02394 0.72787 0.70604 0.0
C1312 C 0.04112 0.71828 0.71825 0.0
C1313 C 0.07889 0.7442 0.72285 0.0
C1314 C 0.09958 0.77972 0.71521 0.0
C1315 C 0.0825 0.78946 0.70301 0.0
H1316 H 0.09218 0.73676 0.73229 0.0
H1317 H 0.92927 0.83504 0.61399 0.0
H1318 H 0.25138 0.01966 0.06845 0.0
H1319 H 0.25033 0.03867 0.04111 0.0
H1320 H 0.20719 0.92157 0.02587 0.0
H1321 H 0.20793 0.90217 0.05333 0.0
H1322 H 0.27129 0.97406 0.00912 0.0
H1323 H 0.14958 0.95802 0.02347 0.0
H1324 H 0.10259 0.96549 0.03963 0.0
H1325 H 0.16658 0.08782 0.03255 0.0
H1326 H 0.21432 0.08117 0.01653 0.0
H1327 H 0.25481 0.01883 0.92963 0.0
H1328 H 0.23341 0.98985 0.95575 0.0
H1329 H 0.28337 0.10273 0.97669 0.0
H1330 H 0.30539 0.13214 0.95057 0.0
H1331 H 0.20938 0.04672 0.98961 0.0
H1332 H 0.33395 0.06289 0.97761 0.0
H1333 H 0.38098 0.05576 0.96131 0.0
H1334 H 0.3113 0.93276 0.96428 0.0
H1335 H 0.26338 0.93916 0.9803 0.0
C1336 C 0.2411 0.99779 0.05932 0.0
C1337 C 0.22985 0.95943 0.06304 0.0
C1338 C 0.24036 0.00869 0.0437 0.0
C1339 C 0.22856 0.98152 0.03146 0.0
C1340 C 0.21631 0.94296 0.03516 0.0
C1341 C 0.2166 0.9319 0.05085 0.0
C1342 C 0.23205 0.99429 0.01476 0.0
C1343 C 0.25706 0.98919 0.00475 0.0
C1344 C 0.21424 0.01488 0.00919 0.0
C1345 C 0.18574 0.01911 0.0189 0.0
C1346 C 0.15386 0.98657 0.02548 0.0
C1347 C 0.12703 0.99064 0.03459 0.0
C1348 C 0.13164 0.02711 0.03714 0.0
C1349 C 0.16306 0.05958 0.03057 0.0
C1350 C 0.19 0.05567 0.02146 0.0
C1351 C 0.26074 0.03758 0.93973 0.0
C1352 C 0.28212 0.07786 0.93803 0.0
C1353 C 0.24851 0.02091 0.95465 0.0
C1354 C 0.25711 0.04416 0.96813 0.0
C1355 C 0.27647 0.08432 0.9664 0.0
C1356 C 0.28914 0.10106 0.95149 0.0
C1357 C 0.24873 0.02665 0.98411 0.0
C1358 C 0.22306 0.03106 0.99396 0.0
C1359 C 0.26596 0.00545 0.98957 0.0
C1360 C 0.29481 0.0015 0.97998 0.0
C1361 C 0.32843 0.03431 0.97464 0.0
C1362 C 0.35528 0.03041 0.96546 0.0
C1363 C 0.34908 0.99384 0.96171 0.0
C1364 C 0.31602 0.96108 0.96714 0.0
C1365 C 0.28898 0.96482 0.97626 0.0
H1366 H 0.36999 0.99093 0.95466 0.0
H1367 H 0.11083 0.03021 0.04419 0.0
loop_
_geom_bond_atom_site_label_1
_geom_bond_atom_site_label_2
_geom_bond_distance
_geom_bond_site_symmetry_2
_ccdc_geom_bond_type
Zn0 O3 2.031 . S
Zn0 O5 2.049 . S
Zn0 O10 2.067 . S
Zn1 O2 1.962 . S
Zn1 O4 1.986 . S
Zn1 O6 1.996 . S
Zn1 O9 1.943 . S
O2 Zn1 1.962 . S
O2 C7 1.254 . S
O3 Zn0 2.031 . S
O3 C7 1.269 . S
O4 Zn1 1.986 . S
O4 C11 1.262 . S
O5 Zn0 2.049 . S
O5 C13 1.260 . S
O6 Zn1 1.996 . S
O6 C13 1.257 . S
C7 O2 1.254 . S
C7 O3 1.269 . S
C8 O9 1.249 . S
C8 O10 1.270 . S
O9 Zn1 1.943 . S
O9 C8 1.249 . S
O10 Zn0 2.067 . S
O10 C8 1.270 . S
C11 O4 1.262 . S
C11 O12 1.232 . S
O12 C11 1.232 . S
C13 O5 1.260 . S
C13 O6 1.257 . S
Zn14 O17 2.031 . S
Zn14 O19 2.049 . S
Zn14 O24 2.067 . S
Zn15 O16 1.962 . S
Zn15 O18 1.986 . S
Zn15 O20 1.996 . S
Zn15 O23 1.943 . S
O16 Zn15 1.962 . S
O16 C21 1.254 . S
O17 Zn14 2.031 . S
O17 C21 1.269 . S
O18 Zn15 1.986 . S
O18 C25 1.262 . S
O19 Zn14 2.049 . S
O19 C27 1.260 . S
O20 Zn15 1.996 . S
O20 C27 1.257 . S
C21 O16 1.254 . S
C21 O17 1.269 . S
C22 O23 1.258 . S
C22 O24 1.289 . S
O23 Zn15 1.943 . S
O23 C22 1.258 . S
O24 Zn14 2.067 . S
O24 C22 1.289 . S
C25 O18 1.262 . S
C25 O26 1.232 . S
O26 C25 1.232 . S
C27 O19 1.260 . S
C27 O20 1.257 . S
Zn28 O31 2.031 . S
Zn28 O33 2.049 . S
Zn28 O38 2.067 . S
Zn29 O30 1.962 . S
Zn29 O32 1.986 . S
Zn29 O34 1.996 . S
Zn29 O37 1.943 . S
O30 Zn29 1.962 . S
O30 C35 1.254 . S
O31 Zn28 2.031 . S
O31 C35 1.269 . S
O32 Zn29 1.986 . S
O32 C39 1.262 . S
O33 Zn28 2.049 . S
O33 C41 1.260 . S
O34 Zn29 1.996 . S
O34 C41 1.257 . S
C35 O30 1.254 . S
C35 O31 1.269 . S
C36 O37 1.258 . S
C36 O38 1.270 . S
O37 Zn29 1.943 . S
O37 C36 1.258 . S
O38 Zn28 2.067 . S
O38 C36 1.270 . S
C39 O32 1.262 . S
C39 O40 1.232 . S
O40 C39 1.232 . S
C41 O33 1.260 . S
C41 O34 1.257 . S
Zn42 O45 2.031 . S
Zn42 O47 2.049 . S
Zn42 O52 2.067 . S
Zn43 O44 1.962 . S
Zn43 O46 1.986 . S
Zn43 O48 1.996 . S
Zn43 O51 1.943 . S
O44 Zn43 1.962 . S
O44 C49 1.254 . S
O45 Zn42 2.031 . S
O45 C49 1.269 . S
O46 Zn43 1.986 . S
O46 C53 1.262 . S
O47 Zn42 2.049 . S
O47 C55 1.260 . S
O48 Zn43 1.996 . S
O48 C55 1.257 . S
C49 O44 1.254 . S
C49 O45 1.269 . S
C50 O51 1.249 . S
C50 O52 1.270 . S
O51 Zn43 1.943 . S
O51 C50 1.249 . S
O52 Zn42 2.067 . S
O52 C50 1.270 . S
C53 O46 1.262 . S
C53 O54 1.232 . S
O54 C53 1.232 . S
C55 O47 1.260 . S
C55 O48 1.257 . S
Zn56 O59 2.031 . S
Zn56 O61 2.049 . S
Zn56 O66 2.067 . S
Zn57 O58 1.962 . S
Zn57 O60 1.986 . S
Zn57 O62 1.996 . S
Zn57 O65 1.943 . S
O58 Zn57 1.962 . S
O58 C63 1.254 . S
O59 Zn56 2.031 . S
O59 C63 1.269 . S
O60 Zn57 1.986 . S
O60 C67 1.262 . S
O61 Zn56 2.049 . S
O61 C69 1.260 . S
O62 Zn57 1.996 . S
O62 C69 1.257 . S
C63 O58 1.254 . S
C63 O59 1.269 . S
C64 O65 1.258 . S
C64 O66 1.288 . S
O65 Zn57 1.943 . S
O65 C64 1.258 . S
O66 Zn56 2.067 . S
O66 C64 1.288 . S
C67 O60 1.262 . S
C67 O68 1.232 . S
O68 C67 1.232 . S
C69 O61 1.260 . S
C69 O62 1.257 . S
Zn70 O73 2.031 . S
Zn70 O75 2.049 . S
Zn70 O80 2.067 . S
Zn71 O72 1.962 . S
Zn71 O74 1.986 . S
Zn71 O76 1.996 . S
Zn71 O79 1.943 . S
O72 Zn71 1.962 . S
O72 C77 1.254 . S
O73 Zn70 2.031 . S
O73 C77 1.269 . S
O74 Zn71 1.986 . S
O74 C81 1.262 . S
O75 Zn70 2.049 . S
O75 C83 1.260 . S
O76 Zn71 1.996 . S
O76 C83 1.257 . S
C77 O72 1.254 . S
C77 O73 1.269 . S
C78 O79 1.258 . S
C78 O80 1.270 . S
O79 Zn71 1.943 . S
O79 C78 1.258 . S
O80 Zn70 2.067 . S
O80 C78 1.270 . S
C81 O74 1.262 . S
C81 O82 1.232 . S
O82 C81 1.232 . S
C83 O75 1.260 . S
C83 O76 1.257 . S
Zn84 O87 2.031 . S
Zn84 O89 2.049 . S
Zn84 O94 2.067 . S
Zn85 O86 1.962 . S
Zn85 O88 1.986 . S
Zn85 O90 1.996 . S
Zn85 O93 1.943 . S
O86 Zn85 1.962 . S
O86 C91 1.254 . S
O87 Zn84 2.031 . S
O87 C91 1.269 . S
O88 Zn85 1.986 . S
O88 C95 1.262 . S
O89 Zn84 2.049 . S
O89 C97 1.260 . S
O90 Zn85 1.996 . S
O90 C97 1.257 . S
C91 O86 1.254 . S
C91 O87 1.269 . S
C92 O93 1.249 . S
C92 O94 1.270 . S
O93 Zn85 1.943 . S
O93 C92 1.249 . S
O94 Zn84 2.067 . S
O94 C92 1.270 . S
C95 O88 1.262 . S
C95 O96 1.232 . S
O96 C95 1.232 . S
C97 O89 1.260 . S
C97 O90 1.257 . S
Zn98 O101 2.031 . S
Zn98 O103 2.049 . S
Zn98 O108 2.067 . S
Zn99 O100 1.962 . S
Zn99 O102 1.986 . S
Zn99 O104 1.996 . S
Zn99 O107 1.943 . S
O100 Zn99 1.962 . S
O100 C105 1.254 . S
O101 Zn98 2.031 . S
O101 C105 1.269 . S
O102 Zn99 1.986 . S
O102 C109 1.262 . S
O103 Zn98 2.049 . S
O103 C111 1.260 . S
O104 Zn99 1.996 . S
O104 C111 1.257 . S
C105 O100 1.254 . S
C105 O101 1.269 . S
C106 O107 1.258 . S
C106 O108 1.270 . S
O107 Zn99 1.943 . S
O107 C106 1.258 . S
O108 Zn98 2.067 . S
O108 C106 1.270 . S
C109 O102 1.262 . S
C109 O110 1.232 . S
O110 C109 1.232 . S
C111 O103 1.260 . S
C111 O104 1.257 . S
Zn112 O115 2.031 . S
Zn112 O117 2.049 . S
Zn112 O122 2.067 . S
Zn113 O114 1.962 . S
Zn113 O116 1.986 . S
Zn113 O118 1.996 . S
Zn113 O121 1.943 . S
O114 Zn113 1.962 . S
O114 C119 1.254 . S
O115 Zn112 2.031 . S
O115 C119 1.269 . S
O116 Zn113 1.986 . S
O116 C123 1.262 . S
O117 Zn112 2.049 . S
O117 C125 1.260 . S
O118 Zn113 1.996 . S
O118 C125 1.257 . S
C119 O114 1.254 . S
C119 O115 1.269 . S
C120 O121 1.258 . S
C120 O122 1.288 . S
O121 Zn113 1.943 . S
O121 C120 1.258 . S
O122 Zn112 2.067 . S
O122 C120 1.288 . S
C123 O116 1.262 . S
C123 O124 1.232 . S
O124 C123 1.232 . S
C125 O117 1.260 . S
C125 O118 1.257 . S
Zn126 O129 2.031 . S
Zn126 O131 2.049 . S
Zn126 O136 2.067 . S
Zn127 O128 1.962 . S
Zn127 O130 1.986 . S
Zn127 O132 1.996 . S
Zn127 O135 1.943 . S
O128 Zn127 1.962 . S
O128 C133 1.254 . S
O129 Zn126 2.031 . S
O129 C133 1.269 . S
O130 Zn127 1.986 . S
O130 C137 1.262 . S
O131 Zn126 2.049 . S
O131 C139 1.260 . S
O132 Zn127 1.996 . S
O132 C139 1.257 . S
C133 O128 1.254 . S
C133 O129 1.269 . S
C134 O135 1.249 . S
C134 O136 1.270 . S
O135 Zn127 1.943 . S
O135 C134 1.249 . S
O136 Zn126 2.067 . S
O136 C134 1.270 . S
C137 O130 1.262 . S
C137 O138 1.232 . S
O138 C137 1.232 . S
C139 O131 1.260 . S
C139 O132 1.257 . S
Zn140 O143 2.031 . S
Zn140 O145 2.049 . S
Zn140 O150 2.067 . S
Zn141 O142 1.962 . S
Zn141 O144 1.986 . S
Zn141 O146 1.996 . S
Zn141 O149 1.943 . S
O142 Zn141 1.962 . S
O142 C147 1.254 . S
O143 Zn140 2.031 . S
O143 C147 1.269 . S
O144 Zn141 1.986 . S
O144 C151 1.262 . S
O145 Zn140 2.049 . S
O145 C153 1.260 . S
O146 Zn141 1.996 . S
O146 C153 1.257 . S
C147 O142 1.254 . S
C147 O143 1.269 . S
C148 O149 1.258 . S
C148 O150 1.270 . S
O149 Zn141 1.943 . S
O149 C148 1.258 . S
O150 Zn140 2.067 . S
O150 C148 1.270 . S
C151 O144 1.262 . S
C151 O152 1.232 . S
O152 C151 1.232 . S
C153 O145 1.260 . S
C153 O146 1.257 . S
Zn154 O157 2.031 . S
Zn154 O159 2.049 . S
Zn154 O164 2.067 . S
Zn155 O156 1.962 . S
Zn155 O158 1.986 . S
Zn155 O160 1.996 . S
Zn155 O163 1.943 . S
O156 Zn155 1.962 . S
O156 C161 1.254 . S
O157 Zn154 2.031 . S
O157 C161 1.269 . S
O158 Zn155 1.986 . S
O158 C165 1.262 . S
O159 Zn154 2.049 . S
O159 C167 1.260 . S
O160 Zn155 1.996 . S
O160 C167 1.257 . S
C161 O156 1.254 . S
C161 O157 1.269 . S
C162 O163 1.258 . S
C162 O164 1.289 . S
O163 Zn155 1.943 . S
O163 C162 1.258 . S
O164 Zn154 2.067 . S
O164 C162 1.289 . S
C165 O158 1.262 . S
C165 O166 1.232 . S
O166 C165 1.232 . S
C167 O159 1.260 . S
C167 O160 1.257 . S
H168 C186 0.951 . S
H169 C188 0.951 . S
H170 C190 0.950 . S
H171 C191 0.950 . S
H172 C193 0.950 . S
H173 C196 0.950 . S
H174 C197 0.950 . S
H175 C199 0.950 . S
H176 C200 0.950 . S
H177 C201 0.951 . S
H178 C203 0.951 . S
H179 C205 0.950 . S
H180 C206 0.950 . S
H181 C208 0.950 . S
H182 C211 0.950 . S
H183 C212 0.950 . S
H184 C214 0.950 . S
H185 C215 0.950 . S
C186 H168 0.951 . S
C186 C187 1.366 . S
C186 C188 1.388 . S
C187 C186 1.366 . S
C187 C191 1.385 . S
C188 H169 0.951 . S
C188 C186 1.388 . S
C188 C189 1.366 . S
C189 C188 1.366 . S
C189 C190 1.414 . S
C189 C192 1.499 . S
C190 H170 0.950 . S
C190 C189 1.414 . S
C190 C191 1.374 . S
C191 H171 0.950 . S
C191 C187 1.385 . S
C191 C190 1.374 . S
C192 C189 1.499 . S
C192 C193 1.373 . S
C192 C194 1.389 . S
C193 H172 0.950 . S
C193 C192 1.373 . S
C193 C209 1.377 1_655 S
C194 C192 1.389 . S
C194 C195 1.524 . S
C194 C208 1.377 1_655 S
C195 C194 1.524 . S
C195 C196 1.397 . S
C195 C200 1.363 1_655 S
C196 H173 0.950 . S
C196 C195 1.397 . S
C196 C197 1.334 . S
C197 H174 0.950 . S
C197 C196 1.334 . S
C197 C198 1.287 . S
C198 C197 1.287 . S
C198 C199 1.524 1_655 S
C198 H217 0.913 . S
C199 H175 0.950 . S
C199 C198 1.524 1_455 S
C199 C200 1.415 . S
C200 H176 0.950 . S
C200 C195 1.363 1_455 S
C200 C199 1.415 . S
C201 H177 0.951 . S
C201 C202 1.366 . S
C201 C203 1.388 . S
C202 C201 1.366 . S
C202 C206 1.385 . S
C203 H178 0.951 . S
C203 C201 1.388 . S
C203 C204 1.366 . S
C204 C203 1.366 . S
C204 C205 1.414 . S
C204 C207 1.499 . S
C205 H179 0.950 . S
C205 C204 1.414 . S
C205 C206 1.374 . S
C206 H180 0.950 . S
C206 C202 1.385 . S
C206 C205 1.374 . S
C207 C204 1.499 . S
C207 C208 1.373 . S
C207 C209 1.389 . S
C208 H181 0.950 . S
C208 C194 1.377 1_455 S
C208 C207 1.373 . S
C209 C193 1.377 1_455 S
C209 C207 1.389 . S
C209 C210 1.524 . S
C210 C209 1.524 . S
C210 C211 1.397 . S
C210 C215 1.363 1_455 S
C211 H182 0.950 . S
C211 C210 1.397 . S
C211 C212 1.334 . S
C212 H183 0.950 . S
C212 C211 1.334 . S
C212 C213 1.287 . S
C213 C212 1.287 . S
C213 C214 1.524 1_455 S
C213 H216 0.999 . S
C214 H184 0.950 . S
C214 C213 1.524 1_655 S
C214 C215 1.415 . S
C215 H185 0.950 . S
C215 C210 1.363 1_655 S
C215 C214 1.415 . S
H216 C213 0.999 . S
H217 C198 0.913 . S
H218 C236 0.951 . S
H219 C238 0.951 . S
H220 C240 0.950 . S
H221 C241 0.950 . S
H222 C243 0.950 . S
H223 C246 0.950 . S
H224 C247 0.950 . S
H225 C249 0.950 . S
H226 C250 0.950 . S
H227 C251 0.951 . S
H228 C253 0.951 . S
H229 C255 0.950 . S
H230 C256 0.950 . S
H231 C258 0.950 . S
H232 C261 0.950 . S
H233 C262 0.950 . S
H234 C264 0.950 . S
H235 C265 0.950 . S
C236 H218 0.951 . S
C236 C237 1.366 . S
C236 C238 1.388 . S
C237 C236 1.366 . S
C237 C241 1.385 . S
C238 H219 0.951 . S
C238 C236 1.388 . S
C238 C239 1.366 . S
C239 C238 1.366 . S
C239 C240 1.414 . S
C239 C242 1.499 . S
C240 H220 0.950 . S
C240 C239 1.414 . S
C240 C241 1.374 . S
C241 H221 0.950 . S
C241 C237 1.385 . S
C241 C240 1.374 . S
C242 C239 1.499 . S
C242 C243 1.373 . S
C242 C244 1.389 . S
C243 H222 0.950 . S
C243 C242 1.373 . S
C243 C259 1.377 1_545 S
C244 C242 1.389 . S
C244 C245 1.523 1_545 S
C244 C258 1.377 1_545 S
C245 C244 1.523 1_565 S
C245 C246 1.397 1_565 S
C245 C250 1.365 . S
C246 H223 0.950 . S
C246 C245 1.397 1_545 S
C246 C247 1.334 . S
C247 H224 0.950 . S
C247 C246 1.334 . S
C247 C248 1.287 1_545 S
C248 C247 1.287 1_565 S
C248 C249 1.524 . S
C248 H267 0.913 . S
C249 H225 0.950 . S
C249 C248 1.524 . S
C249 C250 1.415 . S
C250 H226 0.950 . S
C250 C245 1.365 . S
C250 C249 1.415 . S
C251 H227 0.951 . S
C251 C252 1.366 . S
C251 C253 1.388 . S
C252 C251 1.366 . S
C252 C256 1.385 . S
C253 H228 0.951 . S
C253 C251 1.388 . S
C253 C254 1.366 . S
C254 C253 1.366 . S
C254 C255 1.414 . S
C254 C257 1.499 . S
C255 H229 0.950 . S
C255 C254 1.414 . S
C255 C256 1.374 . S
C256 H230 0.950 . S
C256 C252 1.385 . S
C256 C255 1.374 . S
C257 C254 1.499 . S
C257 C258 1.373 . S
C257 C259 1.389 . S
C258 H231 0.950 . S
C258 C244 1.377 1_565 S
C258 C257 1.373 . S
C259 C243 1.377 1_565 S
C259 C257 1.389 . S
C259 C260 1.524 1_565 S
C260 C259 1.524 1_545 S
C260 C261 1.397 1_545 S
C260 C265 1.365 . S
C261 H232 0.950 . S
C261 C260 1.397 1_565 S
C261 C262 1.334 . S
C262 H233 0.950 . S
C262 C261 1.334 . S
C262 C263 1.287 1_565 S
C263 C262 1.287 1_545 S
C263 C264 1.524 . S
C263 H266 0.999 . S
C264 H234 0.950 . S
C264 C263 1.524 . S
C264 C265 1.415 . S
C265 H235 0.950 . S
C265 C260 1.365 . S
C265 C264 1.415 . S
H266 C263 0.999 . S
H267 C248 0.913 . S
H268 C286 0.951 . S
H269 C288 0.951 . S
H270 C290 0.950 . S
H271 C291 0.950 . S
H272 C293 0.950 . S
H273 C296 0.950 . S
H274 C297 0.950 . S
H275 C299 0.950 . S
H276 C300 0.950 . S
H277 C301 0.951 . S
H278 C303 0.951 . S
H279 C305 0.950 . S
H280 C306 0.950 . S
H281 C308 0.950 . S
H282 C311 0.950 . S
H283 C312 0.950 . S
H284 C314 0.950 . S
H285 C315 0.950 . S
C286 H268 0.951 . S
C286 C287 1.366 . S
C286 C288 1.388 . S
C287 C286 1.366 . S
C287 C291 1.385 . S
C288 H269 0.951 . S
C288 C286 1.388 . S
C288 C289 1.366 . S
C289 C288 1.366 . S
C289 C290 1.414 . S
C289 C292 1.499 . S
C290 H270 0.950 . S
C290 C289 1.414 . S
C290 C291 1.374 . S
C291 H271 0.950 . S
C291 C287 1.385 . S
C291 C290 1.374 . S
C292 C289 1.499 . S
C292 C293 1.373 . S
C292 C294 1.389 . S
C293 H272 0.950 . S
C293 C292 1.373 . S
C293 C309 1.377 . S
C294 C292 1.389 . S
C294 C295 1.524 . S
C294 C308 1.377 . S
C295 C294 1.524 . S
C295 C296 1.397 . S
C295 C300 1.363 . S
C296 H273 0.950 . S
C296 C295 1.397 . S
C296 C297 1.334 . S
C297 H274 0.950 . S
C297 C296 1.334 . S
C297 C298 1.287 . S
C298 C297 1.287 . S
C298 C299 1.524 . S
C298 H317 0.913 . S
C299 H275 0.950 . S
C299 C298 1.524 . S
C299 C300 1.415 . S
C300 H276 0.950 . S
C300 C295 1.363 . S
C300 C299 1.415 . S
C301 H277 0.951 . S
C301 C302 1.366 . S
C301 C303 1.388 . S
C302 C301 1.366 . S
C302 C306 1.385 . S
C303 H278 0.951 . S
C303 C301 1.388 . S
C303 C304 1.366 . S
C304 C303 1.366 . S
C304 C305 1.414 . S
C304 C307 1.499 . S
C305 H279 0.950 . S
C305 C304 1.414 . S
C305 C306 1.374 . S
C306 H280 0.950 . S
C306 C302 1.385 . S
C306 C305 1.374 . S
C307 C304 1.499 . S
C307 C308 1.373 . S
C307 C309 1.389 . S
C308 H281 0.950 . S
C308 C294 1.377 . S
C308 C307 1.373 . S
C309 C293 1.377 . S
C309 C307 1.389 . S
C309 C310 1.524 . S
C310 C309 1.524 . S
C310 C311 1.397 . S
C310 C315 1.363 . S
C311 H282 0.950 . S
C311 C310 1.397 . S
C311 C312 1.334 . S
C312 H283 0.950 . S
C312 C311 1.334 . S
C312 C313 1.287 . S
C313 C312 1.287 . S
C313 C314 1.524 . S
C313 H316 0.999 . S
C314 H284 0.950 . S
C314 C313 1.524 . S
C314 C315 1.415 . S
C315 H285 0.950 . S
C315 C310 1.363 . S
C315 C314 1.415 . S
H316 C313 0.999 . S
H317 C298 0.913 . S
H318 C336 0.951 . S
H319 C338 0.951 . S
H320 C340 0.950 . S
H321 C341 0.950 . S
H322 C343 0.950 . S
H323 C346 0.950 . S
H324 C347 0.950 . S
H325 C349 0.950 . S
H326 C350 0.950 . S
H327 C351 0.951 . S
H328 C353 0.951 . S
H329 C355 0.950 . S
H330 C356 0.950 . S
H331 C358 0.950 . S
H332 C361 0.950 . S
H333 C362 0.950 . S
H334 C364 0.950 . S
H335 C365 0.950 . S
C336 H318 0.951 . S
C336 C337 1.366 . S
C336 C338 1.388 . S
C337 C336 1.366 . S
C337 C341 1.385 . S
C338 H319 0.951 . S
C338 C336 1.388 . S
C338 C339 1.366 . S
C339 C338 1.366 . S
C339 C340 1.414 . S
C339 C342 1.499 . S
C340 H320 0.950 . S
C340 C339 1.414 . S
C340 C341 1.374 . S
C341 H321 0.950 . S
C341 C337 1.385 . S
C341 C340 1.374 . S
C342 C339 1.499 . S
C342 C343 1.373 . S
C342 C344 1.389 . S
C343 H322 0.950 . S
C343 C342 1.373 . S
C343 C359 1.377 1_655 S
C344 C342 1.389 . S
C344 C345 1.524 . S
C344 C358 1.377 1_655 S
C345 C344 1.524 . S
C345 C346 1.397 . S
C345 C350 1.363 . S
C346 H323 0.950 . S
C346 C345 1.397 . S
C346 C347 1.334 . S
C347 H324 0.950 . S
C347 C346 1.334 . S
C347 C348 1.287 . S
C348 C347 1.287 . S
C348 C349 1.524 . S
C348 H367 0.913 . S
C349 H325 0.950 . S
C349 C348 1.524 . S
C349 C350 1.415 . S
C350 H326 0.950 . S
C350 C345 1.363 . S
C350 C349 1.415 . S
C351 H327 0.951 . S
C351 C352 1.366 . S
C351 C353 1.388 . S
C352 C351 1.366 . S
C352 C356 1.385 . S
C353 H328 0.951 . S
C353 C351 1.388 . S
C353 C354 1.366 . S
C354 C353 1.366 . S
C354 C355 1.414 . S
C354 C357 1.499 . S
C355 H329 0.950 . S
C355 C354 1.414 . S
C355 C356 1.374 . S
C356 H330 0.950 . S
C356 C352 1.385 . S
C356 C355 1.374 . S
C357 C354 1.499 . S
C357 C358 1.373 . S
C357 C359 1.389 . S
C358 H331 0.950 . S
C358 C344 1.377 1_455 S
C358 C357 1.373 . S
C359 C343 1.377 1_455 S
C359 C357 1.389 . S
C359 C360 1.524 . S
C360 C359 1.524 . S
C360 C361 1.397 . S
C360 C365 1.363 . S
C361 H332 0.950 . S
C361 C360 1.397 . S
C361 C362 1.334 . S
C362 H333 0.950 . S
C362 C361 1.334 . S
C362 C363 1.287 . S
C363 C362 1.287 . S
C363 C364 1.524 . S
C363 H366 0.999 . S
C364 H334 0.950 . S
C364 C363 1.524 . S
C364 C365 1.415 . S
C365 H335 0.950 . S
C365 C360 1.363 . S
C365 C364 1.415 . S
H366 C363 0.999 . S
H367 C348 0.913 . S
H368 C386 0.951 . S
H369 C388 0.951 . S
H370 C390 0.950 . S
H371 C391 0.950 . S
H372 C393 0.950 . S
H373 C396 0.950 . S
H374 C397 0.950 . S
H375 C399 0.950 . S
H376 C400 0.950 . S
H377 C401 0.951 . S
H378 C403 0.951 . S
H379 C405 0.950 . S
H380 C406 0.950 . S
H381 C408 0.950 . S
H382 C411 0.950 . S
H383 C412 0.950 . S
H384 C414 0.950 . S
H385 C415 0.950 . S
C386 H368 0.951 . S
C386 C387 1.366 . S
C386 C388 1.388 . S
C387 C386 1.366 . S
C387 C391 1.385 . S
C388 H369 0.951 . S
C388 C386 1.388 . S
C388 C389 1.366 . S
C389 C388 1.366 . S
C389 C390 1.414 . S
C389 C392 1.499 . S
C390 H370 0.950 . S
C390 C389 1.414 . S
C390 C391 1.374 . S
C391 H371 0.950 . S
C391 C387 1.385 . S
C391 C390 1.374 . S
C392 C389 1.499 . S
C392 C393 1.373 . S
C392 C394 1.389 . S
C393 H372 0.950 . S
C393 C392 1.373 . S
C393 C409 1.377 1_545 S
C394 C392 1.389 . S
C394 C395 1.524 . S
C394 C408 1.377 1_545 S
C395 C394 1.524 . S
C395 C396 1.397 . S
C395 C400 1.363 . S
C396 H373 0.950 . S
C396 C395 1.397 . S
C396 C397 1.334 . S
C397 H374 0.950 . S
C397 C396 1.334 . S
C397 C398 1.287 . S
C398 C397 1.287 . S
C398 C399 1.524 . S
C398 H417 0.913 . S
C399 H375 0.950 . S
C399 C398 1.524 . S
C399 C400 1.415 . S
C400 H376 0.950 . S
C400 C395 1.363 . S
C400 C399 1.415 . S
C401 H377 0.951 . S
C401 C402 1.366 . S
C401 C403 1.388 . S
C402 C401 1.366 . S
C402 C406 1.385 . S
C403 H378 0.951 . S
C403 C401 1.388 . S
C403 C404 1.366 . S
C404 C403 1.366 . S
C404 C405 1.414 . S
C404 C407 1.499 . S
C405 H379 0.950 . S
C405 C404 1.414 . S
C405 C406 1.374 . S
C406 H380 0.950 . S
C406 C402 1.385 . S
C406 C405 1.374 . S
C407 C404 1.499 . S
C407 C408 1.373 . S
C407 C409 1.389 . S
C408 H381 0.950 . S
C408 C394 1.377 1_565 S
C408 C407 1.373 . S
C409 C393 1.377 1_565 S
C409 C407 1.389 . S
C409 C410 1.524 . S
C410 C409 1.524 . S
C410 C411 1.397 . S
C410 C415 1.363 . S
C411 H382 0.950 . S
C411 C410 1.397 . S
C411 C412 1.334 . S
C412 H383 0.950 . S
C412 C411 1.334 . S
C412 C413 1.287 . S
C413 C412 1.287 . S
C413 C414 1.524 . S
C413 H416 0.999 . S
C414 H384 0.950 . S
C414 C413 1.524 . S
C414 C415 1.415 . S
C415 H385 0.950 . S
C415 C410 1.363 . S
C415 C414 1.415 . S
H416 C413 0.999 . S
H417 C398 0.913 . S
H418 C436 0.951 . S
H419 C438 0.951 . S
H420 C440 0.950 . S
H421 C441 0.950 . S
H422 C443 0.950 . S
H423 C446 0.950 . S
H424 C447 0.950 . S
H425 C449 0.950 . S
H426 C450 0.950 . S
H427 C451 0.951 . S
H428 C453 0.951 . S
H429 C455 0.950 . S
H430 C456 0.950 . S
H431 C458 0.950 . S
H432 C461 0.950 . S
H433 C462 0.950 . S
H434 C464 0.950 . S
H435 C465 0.950 . S
C436 H418 0.951 . S
C436 C437 1.366 . S
C436 C438 1.388 . S
C437 C436 1.366 . S
C437 C441 1.385 . S
C438 H419 0.951 . S
C438 C436 1.388 . S
C438 C439 1.366 . S
C439 C438 1.366 . S
C439 C440 1.414 . S
C439 C442 1.499 . S
C440 H420 0.950 . S
C440 C439 1.414 . S
C440 C441 1.374 . S
C441 H421 0.950 . S
C441 C437 1.385 . S
C441 C440 1.374 . S
C442 C439 1.499 . S
C442 C443 1.373 . S
C442 C444 1.389 . S
C443 H422 0.950 . S
C443 C442 1.373 . S
C443 C459 1.377 . S
C444 C442 1.389 . S
C444 C445 1.524 . S
C444 C458 1.377 . S
C445 C444 1.524 . S
C445 C446 1.397 . S
C445 C450 1.363 . S
C446 H423 0.950 . S
C446 C445 1.397 . S
C446 C447 1.334 . S
C447 H424 0.950 . S
C447 C446 1.334 . S
C447 C448 1.287 . S
C448 C447 1.287 . S
C448 C449 1.524 . S
C448 H467 0.913 . S
C449 H425 0.950 . S
C449 C448 1.524 . S
C449 C450 1.415 . S
C450 H426 0.950 . S
C450 C445 1.363 . S
C450 C449 1.415 . S
C451 H427 0.951 . S
C451 C452 1.366 . S
C451 C453 1.388 . S
C452 C451 1.366 . S
C452 C456 1.385 . S
C453 H428 0.951 . S
C453 C451 1.388 . S
C453 C454 1.366 . S
C454 C453 1.366 . S
C454 C455 1.414 . S
C454 C457 1.499 . S
C455 H429 0.950 . S
C455 C454 1.414 . S
C455 C456 1.374 . S
C456 H430 0.950 . S
C456 C452 1.385 . S
C456 C455 1.374 . S
C457 C454 1.499 . S
C457 C458 1.373 . S
C457 C459 1.389 . S
C458 H431 0.950 . S
C458 C444 1.377 . S
C458 C457 1.373 . S
C459 C443 1.377 . S
C459 C457 1.389 . S
C459 C460 1.524 . S
C460 C459 1.524 . S
C460 C461 1.397 . S
C460 C465 1.363 . S
C461 H432 0.950 . S
C461 C460 1.397 . S
C461 C462 1.334 . S
C462 H433 0.950 . S
C462 C461 1.334 . S
C462 C463 1.287 . S
C463 C462 1.287 . S
C463 C464 1.524 . S
C463 H466 0.999 . S
C464 H434 0.950 . S
C464 C463 1.524 . S
C464 C465 1.415 . S
C465 H435 0.950 . S
C465 C460 1.363 . S
C465 C464 1.415 . S
H466 C463 0.999 . S
H467 C448 0.913 . S
H468 C486 0.951 . S
H469 C488 0.951 . S
H470 C490 0.950 . S
H471 C491 0.950 . S
H472 C493 0.950 . S
H473 C496 0.950 . S
H474 C497 0.950 . S
H475 C499 0.950 . S
H476 C500 0.950 . S
H477 C501 0.951 . S
H478 C503 0.951 . S
H479 C505 0.950 . S
H480 C506 0.950 . S
H481 C508 0.950 . S
H482 C511 0.950 . S
H483 C512 0.950 . S
H484 C514 0.950 . S
H485 C515 0.950 . S
C486 H468 0.951 . S
C486 C487 1.366 . S
C486 C488 1.388 . S
C487 C486 1.366 . S
C487 C491 1.385 . S
C488 H469 0.951 . S
C488 C486 1.388 . S
C488 C489 1.366 . S
C489 C488 1.366 . S
C489 C490 1.414 . S
C489 C492 1.499 . S
C490 H470 0.950 . S
C490 C489 1.414 . S
C490 C491 1.374 . S
C491 H471 0.950 . S
C491 C487 1.385 . S
C491 C490 1.374 . S
C492 C489 1.499 . S
C492 C493 1.373 . S
C492 C494 1.389 . S
C493 H472 0.950 . S
C493 C492 1.373 . S
C493 C509 1.377 . S
C494 C492 1.389 . S
C494 C495 1.524 . S
C494 C508 1.377 . S
C495 C494 1.524 . S
C495 C496 1.397 . S
C495 C500 1.363 . S
C496 H473 0.950 . S
C496 C495 1.397 . S
C496 C497 1.334 . S
C497 H474 0.950 . S
C497 C496 1.334 . S
C497 C498 1.287 . S
C498 C497 1.287 . S
C498 C499 1.524 . S
C498 H517 0.913 . S
C499 H475 0.950 . S
C499 C498 1.524 . S
C499 C500 1.415 . S
C500 H476 0.950 . S
C500 C495 1.363 . S
C500 C499 1.415 . S
C501 H477 0.951 . S
C501 C502 1.366 . S
C501 C503 1.388 . S
C502 C501 1.366 . S
C502 C506 1.385 . S
C503 H478 0.951 . S
C503 C501 1.388 . S
C503 C504 1.366 . S
C504 C503 1.366 . S
C504 C505 1.414 . S
C504 C507 1.499 . S
C505 H479 0.950 . S
C505 C504 1.414 . S
C505 C506 1.374 . S
C506 H480 0.950 . S
C506 C502 1.385 . S
C506 C505 1.374 . S
C507 C504 1.499 . S
C507 C508 1.373 . S
C507 C509 1.389 . S
C508 H481 0.950 . S
C508 C494 1.377 . S
C508 C507 1.373 . S
C509 C493 1.377 . S
C509 C507 1.389 . S
C509 C510 1.524 . S
C510 C509 1.524 . S
C510 C511 1.397 . S
C510 C515 1.363 . S
C511 H482 0.950 . S
C511 C510 1.397 . S
C511 C512 1.334 . S
C512 H483 0.950 . S
C512 C511 1.334 . S
C512 C513 1.287 . S
C513 C512 1.287 . S
C513 C514 1.524 . S
C513 H516 0.999 . S
C514 H484 0.950 . S
C514 C513 1.524 . S
C514 C515 1.415 . S
C515 H485 0.950 . S
C515 C510 1.363 . S
C515 C514 1.415 . S
H516 C513 0.999 . S
H517 C498 0.913 . S
H518 C536 0.951 1_655 S
H519 C538 0.951 1_655 S
H520 C540 0.950 . S
H521 C541 0.950 . S
H522 C543 0.950 . S
H523 C546 0.950 . S
H524 C547 0.950 . S
H525 C549 0.950 . S
H526 C550 0.950 . S
H527 C551 0.951 1_455 S
H528 C553 0.951 1_455 S
H529 C555 0.950 . S
H530 C556 0.950 . S
H531 C558 0.950 . S
H532 C561 0.950 . S
H533 C562 0.950 . S
H534 C564 0.950 . S
H535 C565 0.950 . S
C536 H518 0.951 1_455 S
C536 C537 1.366 . S
C536 C538 1.388 . S
C537 C536 1.366 . S
C537 C541 1.385 . S
C538 H519 0.951 1_455 S
C538 C536 1.388 . S
C538 C539 1.366 . S
C539 C538 1.366 . S
C539 C540 1.414 . S
C539 C542 1.499 . S
C540 H520 0.950 . S
C540 C539 1.414 . S
C540 C541 1.374 . S
C541 H521 0.950 . S
C541 C537 1.385 . S
C541 C540 1.374 . S
C542 C539 1.499 . S
C542 C543 1.373 . S
C542 C544 1.389 1_455 S
C543 H522 0.950 . S
C543 C542 1.373 . S
C543 C559 1.377 . S
C544 C542 1.389 1_655 S
C544 C545 1.524 . S
C544 C558 1.377 . S
C545 C544 1.524 . S
C545 C546 1.397 1_655 S
C545 C550 1.363 . S
C546 H523 0.950 . S
C546 C545 1.397 1_455 S
C546 C547 1.334 . S
C547 H524 0.950 . S
C547 C546 1.334 . S
C547 C548 1.287 1_455 S
C548 C547 1.287 1_655 S
C548 C549 1.524 . S
C548 H567 0.913 . S
C549 H525 0.950 . S
C549 C548 1.524 . S
C549 C550 1.415 . S
C550 H526 0.950 . S
C550 C545 1.363 . S
C550 C549 1.415 . S
C551 H527 0.951 1_655 S
C551 C552 1.366 . S
C551 C553 1.388 . S
C552 C551 1.366 . S
C552 C556 1.385 . S
C553 H528 0.951 1_655 S
C553 C551 1.388 . S
C553 C554 1.366 . S
C554 C553 1.366 . S
C554 C555 1.414 . S
C554 C557 1.499 . S
C555 H529 0.950 . S
C555 C554 1.414 . S
C555 C556 1.374 . S
C556 H530 0.950 . S
C556 C552 1.385 . S
C556 C555 1.374 . S
C557 C554 1.499 . S
C557 C558 1.373 . S
C557 C559 1.389 1_655 S
C558 H531 0.950 . S
C558 C544 1.377 . S
C558 C557 1.373 . S
C559 C543 1.377 . S
C559 C557 1.389 1_455 S
C559 C560 1.524 . S
C560 C559 1.524 . S
C560 C561 1.397 1_455 S
C560 C565 1.363 . S
C561 H532 0.950 . S
C561 C560 1.397 1_655 S
C561 C562 1.334 . S
C562 H533 0.950 . S
C562 C561 1.334 . S
C562 C563 1.287 1_655 S
C563 C562 1.287 1_455 S
C563 C564 1.524 . S
C563 H566 0.999 . S
C564 H534 0.950 . S
C564 C563 1.524 . S
C564 C565 1.415 . S
C565 H535 0.950 . S
C565 C560 1.363 . S
C565 C564 1.415 . S
H566 C563 0.999 . S
H567 C548 0.913 . S
H568 C586 0.954 . S
H569 C588 0.951 1_565 S
H570 C590 0.950 . S
H571 C591 0.950 . S
H572 C593 0.950 . S
H573 C596 0.935 1_545 S
H574 C597 0.950 . S
H575 C599 0.950 . S
H576 C600 0.950 . S
H577 C601 0.954 . S
H578 C603 0.951 1_545 S
H579 C605 0.950 . S
H580 C606 0.950 . S
H581 C608 0.950 . S
H582 C611 0.935 1_565 S
H583 C612 0.950 . S
H584 C614 0.950 . S
H585 C615 0.950 . S
C586 H568 0.954 . S
C586 C587 1.366 . S
C586 C588 1.388 . S
C587 C586 1.366 . S
C587 C591 1.385 . S
C588 H569 0.951 1_545 S
C588 C586 1.388 . S
C588 C589 1.366 . S
C589 C588 1.366 . S
C589 C590 1.414 . S
C589 C592 1.499 . S
C590 H570 0.950 . S
C590 C589 1.414 . S
C590 C591 1.374 . S
C591 H571 0.950 . S
C591 C587 1.385 . S
C591 C590 1.374 . S
C592 C589 1.499 . S
C592 C593 1.373 . S
C592 C594 1.389 1_545 S
C593 H572 0.950 . S
C593 C592 1.373 . S
C593 C609 1.377 . S
C594 C592 1.389 1_565 S
C594 C595 1.524 . S
C594 C608 1.377 . S
C595 C594 1.524 . S
C595 C596 1.397 . S
C595 C600 1.363 . S
C596 H573 0.935 1_565 S
C596 C595 1.397 . S
C596 C597 1.334 . S
C597 H574 0.950 . S
C597 C596 1.334 . S
C597 C598 1.287 . S
C598 C597 1.287 . S
C598 C599 1.524 . S
C598 H617 0.913 . S
C599 H575 0.950 . S
C599 C598 1.524 . S
C599 C600 1.415 . S
C600 H576 0.950 . S
C600 C595 1.363 . S
C600 C599 1.415 . S
C601 H577 0.954 . S
C601 C602 1.366 . S
C601 C603 1.388 . S
C602 C601 1.366 . S
C602 C606 1.385 . S
C603 H578 0.951 1_565 S
C603 C601 1.388 . S
C603 C604 1.366 . S
C604 C603 1.366 . S
C604 C605 1.414 . S
C604 C607 1.499 . S
C605 H579 0.950 . S
C605 C604 1.414 . S
C605 C606 1.374 . S
C606 H580 0.950 . S
C606 C602 1.385 . S
C606 C605 1.374 . S
C607 C604 1.499 . S
C607 C608 1.373 . S
C607 C609 1.389 1_565 S
C608 H581 0.950 . S
C608 C594 1.377 . S
C608 C607 1.373 . S
C609 C593 1.377 . S
C609 C607 1.389 1_545 S
C609 C610 1.524 . S
C610 C609 1.524 . S
C610 C611 1.397 . S
C610 C615 1.363 . S
C611 H582 0.935 1_545 S
C611 C610 1.397 . S
C611 C612 1.334 . S
C612 H583 0.950 . S
C612 C611 1.334 . S
C612 C613 1.287 . S
C613 C612 1.287 . S
C613 C614 1.524 . S
C613 H616 0.999 . S
C614 H584 0.950 . S
C614 C613 1.524 . S
C614 C615 1.415 . S
C615 H585 0.950 . S
C615 C610 1.363 . S
C615 C614 1.415 . S
H616 C613 0.999 . S
H617 C598 0.913 . S
H618 C636 0.951 . S
H619 C638 0.951 . S
H620 C640 0.950 . S
H621 C641 0.950 . S
H622 C643 0.950 . S
H623 C646 0.950 . S
H624 C647 0.950 . S
H625 C649 0.950 . S
H626 C650 0.950 . S
H627 C651 0.951 . S
H628 C653 0.951 . S
H629 C655 0.950 . S
H630 C656 0.950 . S
H631 C658 0.950 . S
H632 C661 0.950 . S
H633 C662 0.950 . S
H634 C664 0.950 . S
H635 C665 0.950 . S
C636 H618 0.951 . S
C636 C637 1.366 . S
C636 C638 1.388 . S
C637 C636 1.366 . S
C637 C641 1.385 . S
C638 H619 0.951 . S
C638 C636 1.388 . S
C638 C639 1.366 . S
C639 C638 1.366 . S
C639 C640 1.414 . S
C639 C642 1.499 . S
C640 H620 0.950 . S
C640 C639 1.414 . S
C640 C641 1.374 . S
C641 H621 0.950 . S
C641 C637 1.385 . S
C641 C640 1.374 . S
C642 C639 1.499 . S
C642 C643 1.373 . S
C642 C644 1.389 . S
C643 H622 0.950 . S
C643 C642 1.373 . S
C643 C659 1.377 . S
C644 C642 1.389 . S
C644 C645 1.524 . S
C644 C658 1.377 . S
C645 C644 1.524 . S
C645 C646 1.397 . S
C645 C650 1.363 . S
C646 H623 0.950 . S
C646 C645 1.397 . S
C646 C647 1.334 . S
C647 H624 0.950 . S
C647 C646 1.334 . S
C647 C648 1.287 . S
C648 C647 1.287 . S
C648 C649 1.524 . S
C648 H667 0.913 . S
C649 H625 0.950 . S
C649 C648 1.524 . S
C649 C650 1.415 . S
C650 H626 0.950 . S
C650 C645 1.363 . S
C650 C649 1.415 . S
C651 H627 0.951 . S
C651 C652 1.366 . S
C651 C653 1.388 . S
C652 C651 1.366 . S
C652 C656 1.385 . S
C653 H628 0.951 . S
C653 C651 1.388 . S
C653 C654 1.366 . S
C654 C653 1.366 . S
C654 C655 1.414 . S
C654 C657 1.499 . S
C655 H629 0.950 . S
C655 C654 1.414 . S
C655 C656 1.374 . S
C656 H630 0.950 . S
C656 C652 1.385 . S
C656 C655 1.374 . S
C657 C654 1.499 . S
C657 C658 1.373 . S
C657 C659 1.389 . S
C658 H631 0.950 . S
C658 C644 1.377 . S
C658 C657 1.373 . S
C659 C643 1.377 . S
C659 C657 1.389 . S
C659 C660 1.524 . S
C660 C659 1.524 . S
C660 C661 1.397 . S
C660 C665 1.363 . S
C661 H632 0.950 . S
C661 C660 1.397 . S
C661 C662 1.334 . S
C662 H633 0.950 . S
C662 C661 1.334 . S
C662 C663 1.287 . S
C663 C662 1.287 . S
C663 C664 1.524 . S
C663 H666 0.999 . S
C664 H634 0.950 . S
C664 C663 1.524 . S
C664 C665 1.415 . S
C665 H635 0.950 . S
C665 C660 1.363 . S
C665 C664 1.415 . S
H666 C663 0.999 . S
H667 C648 0.913 . S
H668 C686 0.951 . S
H669 C688 0.951 . S
H670 C690 0.950 1_455 S
H671 C691 0.954 . S
H672 C693 0.950 . S
H673 C696 0.950 1_455 S
H674 C697 0.950 . S
H675 C699 0.950 . S
H676 C700 0.950 . S
H677 C701 0.951 . S
H678 C703 0.951 . S
H679 C705 0.950 1_655 S
H680 C706 0.954 . S
H681 C708 0.950 . S
H682 C711 0.950 1_655 S
H683 C712 0.950 . S
H684 C714 0.950 . S
H685 C715 0.950 . S
C686 H668 0.951 . S
C686 C687 1.366 . S
C686 C688 1.388 . S
C687 C686 1.366 . S
C687 C691 1.385 . S
C688 H669 0.951 . S
C688 C686 1.388 . S
C688 C689 1.366 . S
C689 C688 1.366 . S
C689 C690 1.414 . S
C689 C692 1.499 . S
C690 H670 0.950 1_655 S
C690 C689 1.414 . S
C690 C691 1.374 . S
C691 H671 0.954 . S
C691 C687 1.385 . S
C691 C690 1.374 . S
C692 C689 1.499 . S
C692 C693 1.373 1_655 S
C692 C694 1.389 . S
C693 H672 0.950 . S
C693 C692 1.373 1_455 S
C693 C709 1.377 . S
C694 C692 1.389 . S
C694 C695 1.524 . S
C694 C708 1.377 . S
C695 C694 1.524 . S
C695 C696 1.397 . S
C695 C700 1.363 . S
C696 H673 0.950 1_655 S
C696 C695 1.397 . S
C696 C697 1.334 . S
C697 H674 0.950 . S
C697 C696 1.334 . S
C697 C698 1.287 . S
C698 C697 1.287 . S
C698 C699 1.524 . S
C698 H717 0.913 . S
C699 H675 0.950 . S
C699 C698 1.524 . S
C699 C700 1.415 . S
C700 H676 0.950 . S
C700 C695 1.363 . S
C700 C699 1.415 . S
C701 H677 0.951 . S
C701 C702 1.366 . S
C701 C703 1.388 . S
C702 C701 1.366 . S
C702 C706 1.385 . S
C703 H678 0.951 . S
C703 C701 1.388 . S
C703 C704 1.366 . S
C704 C703 1.366 . S
C704 C705 1.414 . S
C704 C707 1.499 . S
C705 H679 0.950 1_455 S
C705 C704 1.414 . S
C705 C706 1.374 . S
C706 H680 0.954 . S
C706 C702 1.385 . S
C706 C705 1.374 . S
C707 C704 1.499 . S
C707 C708 1.373 1_455 S
C707 C709 1.389 . S
C708 H681 0.950 . S
C708 C694 1.377 . S
C708 C707 1.373 1_655 S
C709 C693 1.377 . S
C709 C707 1.389 . S
C709 C710 1.524 . S
C710 C709 1.524 . S
C710 C711 1.397 . S
C710 C715 1.363 . S
C711 H682 0.950 1_455 S
C711 C710 1.397 . S
C711 C712 1.334 . S
C712 H683 0.950 . S
C712 C711 1.334 . S
C712 C713 1.287 . S
C713 C712 1.287 . S
C713 C714 1.524 . S
C713 H716 0.999 . S
C714 H684 0.950 . S
C714 C713 1.524 . S
C714 C715 1.415 . S
C715 H685 0.950 . S
C715 C710 1.363 . S
C715 C714 1.415 . S
H716 C713 0.999 . S
H717 C698 0.913 . S
H718 C736 0.951 . S
H719 C738 0.951 . S
H720 C740 0.950 . S
H721 C741 0.950 . S
H722 C743 0.950 . S
H723 C746 0.950 . S
H724 C747 0.950 . S
H725 C749 0.950 . S
H726 C750 0.950 . S
H727 C751 0.951 . S
H728 C753 0.951 . S
H729 C755 0.950 . S
H730 C756 0.950 . S
H731 C758 0.950 . S
H732 C761 0.950 . S
H733 C762 0.950 . S
H734 C764 0.950 . S
H735 C765 0.950 . S
C736 H718 0.951 . S
C736 C737 1.366 . S
C736 C738 1.388 . S
C737 C736 1.366 . S
C737 C741 1.385 . S
C738 H719 0.951 . S
C738 C736 1.388 . S
C738 C739 1.366 . S
C739 C738 1.366 . S
C739 C740 1.414 . S
C739 C742 1.499 . S
C740 H720 0.950 . S
C740 C739 1.414 . S
C740 C741 1.374 . S
C741 H721 0.950 . S
C741 C737 1.385 . S
C741 C740 1.374 . S
C742 C739 1.499 . S
C742 C743 1.373 1_565 S
C742 C744 1.389 . S
C743 H722 0.950 . S
C743 C742 1.373 1_545 S
C743 C759 1.377 . S
C744 C742 1.389 . S
C744 C745 1.524 . S
C744 C758 1.377 . S
C745 C744 1.524 . S
C745 C746 1.397 . S
C745 C750 1.363 . S
C746 H723 0.950 . S
C746 C745 1.397 . S
C746 C747 1.334 . S
C747 H724 0.950 . S
C747 C746 1.334 . S
C747 C748 1.287 . S
C748 C747 1.287 . S
C748 C749 1.524 . S
C748 H767 0.913 . S
C749 H725 0.950 . S
C749 C748 1.524 . S
C749 C750 1.415 . S
C750 H726 0.950 . S
C750 C745 1.363 . S
C750 C749 1.415 . S
C751 H727 0.951 . S
C751 C752 1.366 . S
C751 C753 1.388 . S
C752 C751 1.366 . S
C752 C756 1.385 . S
C753 H728 0.951 . S
C753 C751 1.388 . S
C753 C754 1.366 . S
C754 C753 1.366 . S
C754 C755 1.414 . S
C754 C757 1.499 . S
C755 H729 0.950 . S
C755 C754 1.414 . S
C755 C756 1.374 . S
C756 H730 0.950 . S
C756 C752 1.385 . S
C756 C755 1.374 . S
C757 C754 1.499 . S
C757 C758 1.373 1_545 S
C757 C759 1.389 . S
C758 H731 0.950 . S
C758 C744 1.377 . S
C758 C757 1.373 1_565 S
C759 C743 1.377 . S
C759 C757 1.389 . S
C759 C760 1.524 . S
C760 C759 1.524 . S
C760 C761 1.397 . S
C760 C765 1.363 . S
C761 H732 0.950 . S
C761 C760 1.397 . S
C761 C762 1.334 . S
C762 H733 0.950 . S
C762 C761 1.334 . S
C762 C763 1.287 . S
C763 C762 1.287 . S
C763 C764 1.524 . S
C763 H766 0.999 . S
C764 H734 0.950 . S
C764 C763 1.524 . S
C764 C765 1.415 . S
C765 H735 0.950 . S
C765 C760 1.363 . S
C765 C764 1.415 . S
H766 C763 0.999 . S
H767 C748 0.913 . S
H768 C786 0.951 . S
H769 C788 0.951 . S
H770 C790 0.950 . S
H771 C791 0.950 . S
H772 C793 0.950 . S
H773 C796 0.950 . S
H774 C797 0.950 . S
H775 C799 0.950 . S
H776 C800 0.950 . S
H777 C801 0.951 . S
H778 C803 0.951 . S
H779 C805 0.950 . S
H780 C806 0.950 . S
H781 C808 0.950 . S
H782 C811 0.950 . S
H783 C812 0.950 . S
H784 C814 0.950 . S
H785 C815 0.950 . S
C786 H768 0.951 . S
C786 C787 1.366 . S
C786 C788 1.388 . S
C787 C786 1.366 . S
C787 C791 1.385 1_545 S
C788 H769 0.951 . S
C788 C786 1.388 . S
C788 C789 1.366 . S
C789 C788 1.366 . S
C789 C790 1.414 . S
C789 C792 1.499 . S
C790 H770 0.950 . S
C790 C789 1.414 . S
C790 C791 1.374 1_545 S
C791 H771 0.950 . S
C791 C787 1.385 1_565 S
C791 C790 1.374 1_565 S
C792 C789 1.499 . S
C792 C793 1.373 . S
C792 C794 1.389 . S
C793 H772 0.950 . S
C793 C792 1.373 . S
C793 C809 1.377 . S
C794 C792 1.389 . S
C794 C795 1.524 . S
C794 C808 1.377 . S
C795 C794 1.524 . S
C795 C796 1.397 . S
C795 C800 1.363 . S
C796 H773 0.950 . S
C796 C795 1.397 . S
C796 C797 1.334 . S
C797 H774 0.950 . S
C797 C796 1.334 . S
C797 C798 1.287 . S
C798 C797 1.287 . S
C798 C799 1.524 . S
C798 H817 0.913 . S
C799 H775 0.950 . S
C799 C798 1.524 . S
C799 C800 1.415 . S
C800 H776 0.950 . S
C800 C795 1.363 . S
C800 C799 1.415 . S
C801 H777 0.951 . S
C801 C802 1.366 . S
C801 C803 1.388 . S
C802 C801 1.366 . S
C802 C806 1.385 . S
C803 H778 0.951 . S
C803 C801 1.388 . S
C803 C804 1.366 . S
C804 C803 1.366 . S
C804 C805 1.414 . S
C804 C807 1.499 . S
C805 H779 0.950 . S
C805 C804 1.414 . S
C805 C806 1.374 . S
C806 H780 0.950 . S
C806 C802 1.385 . S
C806 C805 1.374 . S
C807 C804 1.499 . S
C807 C808 1.373 . S
C807 C809 1.389 . S
C808 H781 0.950 . S
C808 C794 1.377 . S
C808 C807 1.373 . S
C809 C793 1.377 . S
C809 C807 1.389 . S
C809 C810 1.524 . S
C810 C809 1.524 . S
C810 C811 1.397 . S
C810 C815 1.363 . S
C811 H782 0.950 . S
C811 C810 1.397 . S
C811 C812 1.334 . S
C812 H783 0.950 . S
C812 C811 1.334 . S
C812 C813 1.287 . S
C813 C812 1.287 . S
C813 C814 1.524 . S
C813 H816 0.999 . S
C814 H784 0.950 . S
C814 C813 1.524 . S
C814 C815 1.415 . S
C815 H785 0.950 . S
C815 C810 1.363 . S
C815 C814 1.415 . S
H816 C813 0.999 . S
H817 C798 0.913 . S
H818 C836 0.951 . S
H819 C838 0.951 . S
H820 C840 0.950 . S
H821 C841 0.950 . S
H822 C843 0.950 . S
H823 C846 0.950 . S
H824 C847 0.950 1_655 S
H825 C849 0.950 1_655 S
H826 C850 0.950 . S
H827 C851 0.951 . S
H828 C853 0.951 . S
H829 C855 0.950 . S
H830 C856 0.950 . S
H831 C858 0.950 . S
H832 C861 0.950 . S
H833 C862 0.950 . S
H834 C864 0.950 . S
H835 C865 0.950 . S
C836 H818 0.951 . S
C836 C837 1.366 1_655 S
C836 C838 1.388 1_655 S
C837 C836 1.366 1_455 S
C837 C841 1.385 . S
C838 H819 0.951 . S
C838 C836 1.388 1_455 S
C838 C839 1.366 . S
C839 C838 1.366 . S
C839 C840 1.414 . S
C839 C842 1.499 . S
C840 H820 0.950 . S
C840 C839 1.414 . S
C840 C841 1.374 . S
C841 H821 0.950 . S
C841 C837 1.385 . S
C841 C840 1.374 . S
C842 C839 1.499 . S
C842 C843 1.373 . S
C842 C844 1.389 . S
C843 H822 0.950 . S
C843 C842 1.373 . S
C843 C859 1.377 . S
C844 C842 1.389 . S
C844 C845 1.524 . S
C844 C858 1.377 . S
C845 C844 1.524 . S
C845 C846 1.397 . S
C845 C850 1.363 . S
C846 H823 0.950 . S
C846 C845 1.397 . S
C846 C847 1.334 . S
C847 H824 0.950 1_455 S
C847 C846 1.334 . S
C847 C848 1.287 1_455 S
C848 C847 1.287 1_655 S
C848 C849 1.524 1_655 S
C848 H867 0.913 . S
C849 H825 0.950 1_455 S
C849 C848 1.524 1_455 S
C849 C850 1.415 . S
C850 H826 0.950 . S
C850 C845 1.363 . S
C850 C849 1.415 . S
C851 H827 0.951 . S
C851 C852 1.366 . S
C851 C853 1.388 . S
C852 C851 1.366 . S
C852 C856 1.385 . S
C853 H828 0.951 . S
C853 C851 1.388 . S
C853 C854 1.366 . S
C854 C853 1.366 . S
C854 C855 1.414 . S
C854 C857 1.499 . S
C855 H829 0.950 . S
C855 C854 1.414 . S
C855 C856 1.374 . S
C856 H830 0.950 . S
C856 C852 1.385 . S
C856 C855 1.374 . S
C857 C854 1.499 . S
C857 C858 1.373 . S
C857 C859 1.389 . S
C858 H831 0.950 . S
C858 C844 1.377 . S
C858 C857 1.373 . S
C859 C843 1.377 . S
C859 C857 1.389 . S
C859 C860 1.524 . S
C860 C859 1.524 . S
C860 C861 1.397 . S
C860 C865 1.363 . S
C861 H832 0.950 . S
C861 C860 1.397 . S
C861 C862 1.334 . S
C862 H833 0.950 . S
C862 C861 1.334 . S
C862 C863 1.287 . S
C863 C862 1.287 . S
C863 C864 1.524 . S
C863 H866 0.999 . S
C864 H834 0.950 . S
C864 C863 1.524 . S
C864 C865 1.415 . S
C865 H835 0.950 . S
C865 C860 1.363 . S
C865 C864 1.415 . S
H866 C863 0.999 . S
H867 C848 0.913 . S
H868 C886 0.951 1_455 S
H869 C888 0.951 . S
H870 C890 0.950 . S
H871 C891 0.950 . S
H872 C893 0.950 . S
H873 C896 0.950 . S
H874 C897 0.950 . S
H875 C899 0.950 . S
H876 C900 0.950 . S
H877 C901 0.951 . S
H878 C903 0.951 . S
H879 C905 0.950 . S
H880 C906 0.950 . S
H881 C908 0.950 . S
H882 C911 0.950 . S
H883 C912 0.950 . S
H884 C914 0.950 . S
H885 C915 0.950 . S
C886 H868 0.951 1_655 S
C886 C887 1.366 . S
C886 C888 1.388 . S
C887 C886 1.366 . S
C887 C891 1.385 . S
C888 H869 0.951 . S
C888 C886 1.388 . S
C888 C889 1.366 . S
C889 C888 1.366 . S
C889 C890 1.414 . S
C889 C892 1.499 . S
C890 H870 0.950 . S
C890 C889 1.414 . S
C890 C891 1.374 . S
C891 H871 0.950 . S
C891 C887 1.385 . S
C891 C890 1.374 . S
C892 C889 1.499 . S
C892 C893 1.373 . S
C892 C894 1.389 . S
C893 H872 0.950 . S
C893 C892 1.373 . S
C893 C909 1.377 . S
C894 C892 1.389 . S
C894 C895 1.524 . S
C894 C908 1.377 . S
C895 C894 1.524 . S
C895 C896 1.397 . S
C895 C900 1.363 . S
C896 H873 0.950 . S
C896 C895 1.397 . S
C896 C897 1.334 . S
C897 H874 0.950 . S
C897 C896 1.334 . S
C897 C898 1.287 . S
C898 C897 1.287 . S
C898 C899 1.524 . S
C898 H917 0.913 . S
C899 H875 0.950 . S
C899 C898 1.524 . S
C899 C900 1.415 . S
C900 H876 0.950 . S
C900 C895 1.363 . S
C900 C899 1.415 . S
C901 H877 0.951 . S
C901 C902 1.366 . S
C901 C903 1.388 . S
C902 C901 1.366 . S
C902 C906 1.385 1_545 S
C903 H878 0.951 . S
C903 C901 1.388 . S
C903 C904 1.366 . S
C904 C903 1.366 . S
C904 C905 1.414 . S
C904 C907 1.499 . S
C905 H879 0.950 . S
C905 C904 1.414 . S
C905 C906 1.374 1_545 S
C906 H880 0.950 . S
C906 C902 1.385 1_565 S
C906 C905 1.374 1_565 S
C907 C904 1.499 . S
C907 C908 1.373 . S
C907 C909 1.389 . S
C908 H881 0.950 . S
C908 C894 1.377 . S
C908 C907 1.373 . S
C909 C893 1.377 . S
C909 C907 1.389 . S
C909 C910 1.524 . S
C910 C909 1.524 . S
C910 C911 1.397 . S
C910 C915 1.363 . S
C911 H882 0.950 . S
C911 C910 1.397 . S
C911 C912 1.334 . S
C912 H883 0.950 . S
C912 C911 1.334 . S
C912 C913 1.287 . S
C913 C912 1.287 . S
C913 C914 1.524 . S
C913 H916 0.999 . S
C914 H884 0.950 . S
C914 C913 1.524 . S
C914 C915 1.415 . S
C915 H885 0.950 . S
C915 C910 1.363 . S
C915 C914 1.415 . S
H916 C913 0.999 . S
H917 C898 0.913 . S
H918 C936 0.951 . S
H919 C938 0.951 . S
H920 C940 0.950 . S
H921 C941 0.950 . S
H922 C943 0.950 . S
H923 C946 0.950 . S
H924 C947 0.950 . S
H925 C949 0.950 . S
H926 C950 0.950 . S
H927 C951 0.951 . S
H928 C953 0.951 . S
H929 C955 0.950 . S
H930 C956 0.950 . S
H931 C958 0.950 . S
H932 C961 0.950 . S
H933 C962 0.950 . S
H934 C964 0.950 . S
H935 C965 0.950 . S
C936 H918 0.951 . S
C936 C937 1.366 . S
C936 C938 1.388 . S
C937 C936 1.366 . S
C937 C941 1.385 . S
C938 H919 0.951 . S
C938 C936 1.388 . S
C938 C939 1.366 . S
C939 C938 1.366 . S
C939 C940 1.414 . S
C939 C942 1.499 . S
C940 H920 0.950 . S
C940 C939 1.414 . S
C940 C941 1.374 . S
C941 H921 0.950 . S
C941 C937 1.385 . S
C941 C940 1.374 . S
C942 C939 1.499 . S
C942 C943 1.373 . S
C942 C944 1.389 . S
C943 H922 0.950 . S
C943 C942 1.373 . S
C943 C959 1.377 . S
C944 C942 1.389 . S
C944 C945 1.524 . S
C944 C958 1.377 . S
C945 C944 1.524 . S
C945 C946 1.397 . S
C945 C950 1.363 . S
C946 H923 0.950 . S
C946 C945 1.397 . S
C946 C947 1.334 . S
C947 H924 0.950 . S
C947 C946 1.334 . S
C947 C948 1.287 . S
C948 C947 1.287 . S
C948 C949 1.524 . S
C948 H967 0.913 . S
C949 H925 0.950 . S
C949 C948 1.524 . S
C949 C950 1.415 . S
C950 H926 0.950 . S
C950 C945 1.363 . S
C950 C949 1.415 . S
C951 H927 0.951 . S
C951 C952 1.366 . S
C951 C953 1.388 . S
C952 C951 1.366 . S
C952 C956 1.385 . S
C953 H928 0.951 . S
C953 C951 1.388 . S
C953 C954 1.366 . S
C954 C953 1.366 . S
C954 C955 1.414 . S
C954 C957 1.499 . S
C955 H929 0.950 . S
C955 C954 1.414 . S
C955 C956 1.374 . S
C956 H930 0.950 . S
C956 C952 1.385 . S
C956 C955 1.374 . S
C957 C954 1.499 . S
C957 C958 1.373 . S
C957 C959 1.389 . S
C958 H931 0.950 . S
C958 C944 1.377 . S
C958 C957 1.373 . S
C959 C943 1.377 . S
C959 C957 1.389 . S
C959 C960 1.524 . S
C960 C959 1.524 . S
C960 C961 1.397 . S
C960 C965 1.363 . S
C961 H932 0.950 . S
C961 C960 1.397 . S
C961 C962 1.334 . S
C962 H933 0.950 . S
C962 C961 1.334 . S
C962 C963 1.287 . S
C963 C962 1.287 . S
C963 C964 1.524 . S
C963 H966 0.999 . S
C964 H934 0.950 . S
C964 C963 1.524 . S
C964 C965 1.415 . S
C965 H935 0.950 . S
C965 C960 1.363 . S
C965 C964 1.415 . S
H966 C963 0.999 . S
H967 C948 0.913 . S
H968 C986 0.951 . S
H969 C988 0.951 . S
H970 C990 0.950 . S
H971 C991 0.950 . S
H972 C993 0.950 . S
H973 C996 0.950 . S
H974 C997 0.950 . S
H975 C999 0.950 . S
H976 C1000 0.950 . S
H977 C1001 0.951 . S
H978 C1003 0.951 . S
H979 C1005 0.950 . S
H980 C1006 0.950 . S
H981 C1008 0.950 . S
H982 C1011 0.950 . S
H983 C1012 0.950 . S
H984 C1014 0.950 . S
H985 C1015 0.950 . S
C986 H968 0.951 . S
C986 C987 1.366 . S
C986 C988 1.388 . S
C987 C986 1.366 . S
C987 C991 1.385 . S
C988 H969 0.951 . S
C988 C986 1.388 . S
C988 C989 1.366 . S
C989 C988 1.366 . S
C989 C990 1.414 . S
C989 C992 1.499 . S
C990 H970 0.950 . S
C990 C989 1.414 . S
C990 C991 1.374 . S
C991 H971 0.950 . S
C991 C987 1.385 . S
C991 C990 1.374 . S
C992 C989 1.499 . S
C992 C993 1.373 . S
C992 C994 1.389 . S
C993 H972 0.950 . S
C993 C992 1.373 . S
C993 C1009 1.377 . S
C994 C992 1.389 . S
C994 C995 1.524 . S
C994 C1008 1.377 . S
C995 C994 1.524 . S
C995 C996 1.397 . S
C995 C1000 1.363 . S
C996 H973 0.950 . S
C996 C995 1.397 . S
C996 C997 1.334 . S
C997 H974 0.950 . S
C997 C996 1.334 . S
C997 C998 1.287 . S
C998 C997 1.287 . S
C998 C999 1.524 . S
C998 H1017 0.913 . S
C999 H975 0.950 . S
C999 C998 1.524 . S
C999 C1000 1.415 . S
C1000 H976 0.950 . S
C1000 C995 1.363 . S
C1000 C999 1.415 . S
C1001 H977 0.951 . S
C1001 C1002 1.366 . S
C1001 C1003 1.388 . S
C1002 C1001 1.366 . S
C1002 C1006 1.385 1_655 S
C1003 H978 0.951 . S
C1003 C1001 1.388 . S
C1003 C1004 1.366 . S
C1004 C1003 1.366 . S
C1004 C1005 1.414 . S
C1004 C1007 1.499 . S
C1005 H979 0.950 . S
C1005 C1004 1.414 . S
C1005 C1006 1.374 1_655 S
C1006 H980 0.950 . S
C1006 C1002 1.385 1_455 S
C1006 C1005 1.374 1_455 S
C1007 C1004 1.499 . S
C1007 C1008 1.373 . S
C1007 C1009 1.389 . S
C1008 H981 0.950 . S
C1008 C994 1.377 . S
C1008 C1007 1.373 . S
C1009 C993 1.377 . S
C1009 C1007 1.389 . S
C1009 C1010 1.524 . S
C1010 C1009 1.524 . S
C1010 C1011 1.397 . S
C1010 C1015 1.363 . S
C1011 H982 0.950 . S
C1011 C1010 1.397 . S
C1011 C1012 1.334 . S
C1012 H983 0.950 . S
C1012 C1011 1.334 . S
C1012 C1013 1.287 . S
C1013 C1012 1.287 . S
C1013 C1014 1.524 . S
C1013 H1016 0.999 . S
C1014 H984 0.950 . S
C1014 C1013 1.524 . S
C1014 C1015 1.415 . S
C1015 H985 0.950 . S
C1015 C1010 1.363 . S
C1015 C1014 1.415 . S
H1016 C1013 0.999 . S
H1017 C998 0.913 . S
H1018 C1036 0.951 . S
H1019 C1038 0.951 . S
H1020 C1040 0.950 . S
H1021 C1041 0.950 . S
H1022 C1043 0.950 . S
H1023 C1046 0.950 . S
H1024 C1047 0.950 . S
H1025 C1049 0.950 . S
H1026 C1050 0.950 . S
H1027 C1051 0.951 . S
H1028 C1053 0.951 . S
H1029 C1055 0.950 . S
H1030 C1056 0.950 1_655 S
H1031 C1058 0.950 . S
H1032 C1061 0.950 . S
H1033 C1062 0.950 . S
H1034 C1064 0.950 . S
H1035 C1065 0.950 . S
C1036 H1018 0.951 . S
C1036 C1037 1.366 1_545 S
C1036 C1038 1.388 1_545 S
C1037 C1036 1.366 1_565 S
C1037 C1041 1.385 . S
C1038 H1019 0.951 . S
C1038 C1036 1.388 1_565 S
C1038 C1039 1.366 . S
C1039 C1038 1.366 . S
C1039 C1040 1.414 . S
C1039 C1042 1.499 . S
C1040 H1020 0.950 . S
C1040 C1039 1.414 . S
C1040 C1041 1.374 . S
C1041 H1021 0.950 . S
C1041 C1037 1.385 . S
C1041 C1040 1.374 . S
C1042 C1039 1.499 . S
C1042 C1043 1.373 . S
C1042 C1044 1.389 . S
C1043 H1022 0.950 . S
C1043 C1042 1.373 . S
C1043 C1059 1.377 . S
C1044 C1042 1.389 . S
C1044 C1045 1.524 . S
C1044 C1058 1.377 . S
C1045 C1044 1.524 . S
C1045 C1046 1.397 . S
C1045 C1050 1.363 . S
C1046 H1023 0.950 . S
C1046 C1045 1.397 . S
C1046 C1047 1.334 . S
C1047 H1024 0.950 . S
C1047 C1046 1.334 . S
C1047 C1048 1.287 . S
C1048 C1047 1.287 . S
C1048 C1049 1.524 . S
C1048 H1067 0.913 . S
C1049 H1025 0.950 . S
C1049 C1048 1.524 . S
C1049 C1050 1.415 . S
C1050 H1026 0.950 . S
C1050 C1045 1.363 . S
C1050 C1049 1.415 . S
C1051 H1027 0.951 . S
C1051 C1052 1.366 . S
C1051 C1053 1.388 . S
C1052 C1051 1.366 . S
C1052 C1056 1.385 . S
C1053 H1028 0.951 . S
C1053 C1051 1.388 . S
C1053 C1054 1.366 . S
C1054 C1053 1.366 . S
C1054 C1055 1.414 . S
C1054 C1057 1.499 . S
C1055 H1029 0.950 . S
C1055 C1054 1.414 . S
C1055 C1056 1.374 . S
C1056 H1030 0.950 1_455 S
C1056 C1052 1.385 . S
C1056 C1055 1.374 . S
C1057 C1054 1.499 . S
C1057 C1058 1.373 . S
C1057 C1059 1.389 . S
C1058 H1031 0.950 . S
C1058 C1044 1.377 . S
C1058 C1057 1.373 . S
C1059 C1043 1.377 . S
C1059 C1057 1.389 . S
C1059 C1060 1.524 . S
C1060 C1059 1.524 . S
C1060 C1061 1.397 . S
C1060 C1065 1.363 . S
C1061 H1032 0.950 . S
C1061 C1060 1.397 . S
C1061 C1062 1.334 . S
C1062 H1033 0.950 . S
C1062 C1061 1.334 . S
C1062 C1063 1.287 . S
C1063 C1062 1.287 . S
C1063 C1064 1.524 . S
C1063 H1066 0.999 . S
C1064 H1034 0.950 . S
C1064 C1063 1.524 . S
C1064 C1065 1.415 . S
C1065 H1035 0.950 . S
C1065 C1060 1.363 . S
C1065 C1064 1.415 . S
H1066 C1063 0.999 . S
H1067 C1048 0.913 . S
H1068 C1086 0.951 . S
H1069 C1088 0.951 . S
H1070 C1090 0.950 . S
H1071 C1091 0.950 . S
H1072 C1093 0.950 . S
H1073 C1096 0.950 . S
H1074 C1097 0.950 . S
H1075 C1099 0.950 . S
H1076 C1100 0.950 . S
H1077 C1101 0.951 . S
H1078 C1103 0.951 . S
H1079 C1105 0.950 . S
H1080 C1106 0.950 . S
H1081 C1108 0.950 . S
H1082 C1111 0.950 . S
H1083 C1112 0.950 . S
H1084 C1114 0.950 . S
H1085 C1115 0.950 . S
C1086 H1068 0.951 . S
C1086 C1087 1.366 . S
C1086 C1088 1.388 . S
C1087 C1086 1.366 . S
C1087 C1091 1.385 . S
C1088 H1069 0.951 . S
C1088 C1086 1.388 . S
C1088 C1089 1.366 . S
C1089 C1088 1.366 . S
C1089 C1090 1.414 . S
C1089 C1092 1.499 . S
C1090 H1070 0.950 . S
C1090 C1089 1.414 . S
C1090 C1091 1.374 . S
C1091 H1071 0.950 . S
C1091 C1087 1.385 . S
C1091 C1090 1.374 . S
C1092 C1089 1.499 . S
C1092 C1093 1.373 . S
C1092 C1094 1.389 . S
C1093 H1072 0.950 . S
C1093 C1092 1.373 . S
C1093 C1109 1.377 . S
C1094 C1092 1.389 . S
C1094 C1095 1.524 . S
C1094 C1108 1.377 . S
C1095 C1094 1.524 . S
C1095 C1096 1.397 . S
C1095 C1100 1.363 . S
C1096 H1073 0.950 . S
C1096 C1095 1.397 . S
C1096 C1097 1.334 . S
C1097 H1074 0.950 . S
C1097 C1096 1.334 . S
C1097 C1098 1.287 . S
C1098 C1097 1.287 . S
C1098 C1099 1.524 . S
C1098 H1117 0.913 . S
C1099 H1075 0.950 . S
C1099 C1098 1.524 . S
C1099 C1100 1.415 . S
C1100 H1076 0.950 . S
C1100 C1095 1.363 . S
C1100 C1099 1.415 . S
C1101 H1077 0.951 . S
C1101 C1102 1.366 . S
C1101 C1103 1.388 . S
C1102 C1101 1.366 . S
C1102 C1106 1.385 . S
C1103 H1078 0.951 . S
C1103 C1101 1.388 . S
C1103 C1104 1.366 . S
C1104 C1103 1.366 . S
C1104 C1105 1.414 . S
C1104 C1107 1.499 . S
C1105 H1079 0.950 . S
C1105 C1104 1.414 . S
C1105 C1106 1.374 . S
C1106 H1080 0.950 . S
C1106 C1102 1.385 . S
C1106 C1105 1.374 . S
C1107 C1104 1.499 . S
C1107 C1108 1.373 . S
C1107 C1109 1.389 . S
C1108 H1081 0.950 . S
C1108 C1094 1.377 . S
C1108 C1107 1.373 . S
C1109 C1093 1.377 . S
C1109 C1107 1.389 . S
C1109 C1110 1.524 . S
C1110 C1109 1.524 . S
C1110 C1111 1.397 . S
C1110 C1115 1.363 . S
C1111 H1082 0.950 . S
C1111 C1110 1.397 . S
C1111 C1112 1.334 . S
C1112 H1083 0.950 . S
C1112 C1111 1.334 . S
C1112 C1113 1.287 . S
C1113 C1112 1.287 . S
C1113 C1114 1.524 . S
C1113 H1116 0.999 . S
C1114 H1084 0.950 . S
C1114 C1113 1.524 . S
C1114 C1115 1.415 . S
C1115 H1085 0.950 . S
C1115 C1110 1.363 . S
C1115 C1114 1.415 . S
H1116 C1113 0.999 . S
H1117 C1098 0.913 . S
H1118 C1136 0.951 1_455 S
H1119 C1138 0.951 1_455 S
H1120 C1140 0.950 . S
H1121 C1141 0.950 . S
H1122 C1143 0.950 . S
H1123 C1146 0.950 . S
H1124 C1147 0.950 . S
H1125 C1149 0.950 1_455 S
H1126 C1150 0.950 . S
H1127 C1151 0.951 1_655 S
H1128 C1153 0.951 1_655 S
H1129 C1155 0.950 . S
H1130 C1156 0.950 . S
H1131 C1158 0.950 . S
H1132 C1161 0.950 . S
H1133 C1162 0.950 . S
H1134 C1164 0.950 1_655 S
H1135 C1165 0.950 . S
C1136 H1118 0.951 1_655 S
C1136 C1137 1.366 . S
C1136 C1138 1.388 . S
C1137 C1136 1.366 . S
C1137 C1141 1.385 . S
C1138 H1119 0.951 1_655 S
C1138 C1136 1.388 . S
C1138 C1139 1.366 . S
C1139 C1138 1.366 . S
C1139 C1140 1.414 . S
C1139 C1142 1.499 . S
C1140 H1120 0.950 . S
C1140 C1139 1.414 . S
C1140 C1141 1.374 . S
C1141 H1121 0.950 . S
C1141 C1137 1.385 . S
C1141 C1140 1.374 . S
C1142 C1139 1.499 . S
C1142 C1143 1.373 . S
C1142 C1144 1.389 . S
C1143 H1122 0.950 . S
C1143 C1142 1.373 . S
C1143 C1159 1.377 1_655 S
C1144 C1142 1.389 . S
C1144 C1145 1.524 . S
C1144 C1158 1.377 1_655 S
C1145 C1144 1.524 . S
C1145 C1146 1.397 . S
C1145 C1150 1.363 1_655 S
C1146 H1123 0.950 . S
C1146 C1145 1.397 . S
C1146 C1147 1.334 . S
C1147 H1124 0.950 . S
C1147 C1146 1.334 . S
C1147 C1148 1.287 . S
C1148 C1147 1.287 . S
C1148 C1149 1.524 . S
C1148 H1167 0.913 . S
C1149 H1125 0.950 1_655 S
C1149 C1148 1.524 . S
C1149 C1150 1.415 1_655 S
C1150 H1126 0.950 . S
C1150 C1145 1.363 1_455 S
C1150 C1149 1.415 1_455 S
C1151 H1127 0.951 1_455 S
C1151 C1152 1.366 . S
C1151 C1153 1.388 . S
C1152 C1151 1.366 . S
C1152 C1156 1.385 . S
C1153 H1128 0.951 1_455 S
C1153 C1151 1.388 . S
C1153 C1154 1.366 . S
C1154 C1153 1.366 . S
C1154 C1155 1.414 . S
C1154 C1157 1.499 . S
C1155 H1129 0.950 . S
C1155 C1154 1.414 . S
C1155 C1156 1.374 . S
C1156 H1130 0.950 . S
C1156 C1152 1.385 . S
C1156 C1155 1.374 . S
C1157 C1154 1.499 . S
C1157 C1158 1.373 . S
C1157 C1159 1.389 . S
C1158 H1131 0.950 . S
C1158 C1144 1.377 1_455 S
C1158 C1157 1.373 . S
C1159 C1143 1.377 1_455 S
C1159 C1157 1.389 . S
C1159 C1160 1.524 . S
C1160 C1159 1.524 . S
C1160 C1161 1.397 . S
C1160 C1165 1.363 1_455 S
C1161 H1132 0.950 . S
C1161 C1160 1.397 . S
C1161 C1162 1.334 . S
C1162 H1133 0.950 . S
C1162 C1161 1.334 . S
C1162 C1163 1.287 . S
C1163 C1162 1.287 . S
C1163 C1164 1.524 . S
C1163 H1166 0.999 . S
C1164 H1134 0.950 1_455 S
C1164 C1163 1.524 . S
C1164 C1165 1.415 1_455 S
C1165 H1135 0.950 . S
C1165 C1160 1.363 1_655 S
C1165 C1164 1.415 1_655 S
H1166 C1163 0.999 . S
H1167 C1148 0.913 . S
H1168 C1186 0.951 . S
H1169 C1188 0.951 . S
H1170 C1190 0.950 . S
H1171 C1191 0.950 1_565 S
H1172 C1193 0.950 . S
H1173 C1196 0.950 1_565 S
H1174 C1197 0.950 . S
H1175 C1199 0.950 . S
H1176 C1200 0.950 1_556 S
H1177 C1201 0.951 . S
H1178 C1203 0.951 . S
H1179 C1205 0.950 . S
H1180 C1206 0.950 1_545 S
H1181 C1208 0.950 . S
H1182 C1211 0.950 1_545 S
H1183 C1212 0.950 . S
H1184 C1214 0.950 . S
H1185 C1215 0.950 1_554 S
C1186 H1168 0.951 . S
C1186 C1187 1.366 . S
C1186 C1188 1.388 . S
C1187 C1186 1.366 . S
C1187 C1191 1.385 . S
C1188 H1169 0.951 . S
C1188 C1186 1.388 . S
C1188 C1189 1.366 . S
C1189 C1188 1.366 . S
C1189 C1190 1.414 1_545 S
C1189 C1192 1.499 . S
C1190 H1170 0.950 . S
C1190 C1189 1.414 1_565 S
C1190 C1191 1.374 1_565 S
C1191 H1171 0.950 1_545 S
C1191 C1187 1.385 . S
C1191 C1190 1.374 1_545 S
C1192 C1189 1.499 . S
C1192 C1193 1.373 1_545 S
C1192 C1194 1.389 . S
C1193 H1172 0.950 . S
C1193 C1192 1.373 1_565 S
C1193 C1209 1.377 1_554 S
C1194 C1192 1.389 . S
C1194 C1195 1.524 . S
C1194 C1208 1.377 1_554 S
C1195 C1194 1.524 . S
C1195 C1196 1.397 . S
C1195 C1200 1.363 . S
C1196 H1173 0.950 1_545 S
C1196 C1195 1.397 . S
C1196 C1197 1.334 . S
C1197 H1174 0.950 . S
C1197 C1196 1.334 . S
C1197 C1198 1.287 . S
C1198 C1197 1.287 . S
C1198 C1199 1.524 . S
C1198 H1217 0.913 . S
C1199 H1175 0.950 . S
C1199 C1198 1.524 . S
C1199 C1200 1.415 . S
C1200 H1176 0.950 1_554 S
C1200 C1195 1.363 . S
C1200 C1199 1.415 . S
C1201 H1177 0.951 . S
C1201 C1202 1.366 . S
C1201 C1203 1.388 . S
C1202 C1201 1.366 . S
C1202 C1206 1.385 . S
C1203 H1178 0.951 . S
C1203 C1201 1.388 . S
C1203 C1204 1.366 . S
C1204 C1203 1.366 . S
C1204 C1205 1.414 1_565 S
C1204 C1207 1.499 . S
C1205 H1179 0.950 . S
C1205 C1204 1.414 1_545 S
C1205 C1206 1.374 1_545 S
C1206 H1180 0.950 1_565 S
C1206 C1202 1.385 . S
C1206 C1205 1.374 1_565 S
C1207 C1204 1.499 . S
C1207 C1208 1.373 1_565 S
C1207 C1209 1.389 . S
C1208 H1181 0.950 . S
C1208 C1194 1.377 1_556 S
C1208 C1207 1.373 1_545 S
C1209 C1193 1.377 1_556 S
C1209 C1207 1.389 . S
C1209 C1210 1.524 . S
C1210 C1209 1.524 . S
C1210 C1211 1.397 . S
C1210 C1215 1.363 . S
C1211 H1182 0.950 1_565 S
C1211 C1210 1.397 . S
C1211 C1212 1.334 . S
C1212 H1183 0.950 . S
C1212 C1211 1.334 . S
C1212 C1213 1.287 . S
C1213 C1212 1.287 . S
C1213 C1214 1.524 . S
C1213 H1216 0.999 . S
C1214 H1184 0.950 . S
C1214 C1213 1.524 . S
C1214 C1215 1.415 . S
C1215 H1185 0.950 1_556 S
C1215 C1210 1.363 . S
C1215 C1214 1.415 . S
H1216 C1213 0.999 . S
H1217 C1198 0.913 . S
H1218 C1236 0.951 . S
H1219 C1238 0.951 . S
H1220 C1240 0.950 . S
H1221 C1241 0.950 . S
H1222 C1243 0.950 . S
H1223 C1246 0.950 . S
H1224 C1247 0.950 . S
H1225 C1249 0.950 . S
H1226 C1250 0.950 . S
H1227 C1251 0.951 . S
H1228 C1253 0.951 . S
H1229 C1255 0.950 . S
H1230 C1256 0.950 . S
H1231 C1258 0.950 . S
H1232 C1261 0.950 . S
H1233 C1262 0.950 . S
H1234 C1264 0.950 . S
H1235 C1265 0.950 . S
C1236 H1218 0.951 . S
C1236 C1237 1.366 . S
C1236 C1238 1.388 . S
C1237 C1236 1.366 . S
C1237 C1241 1.385 . S
C1238 H1219 0.951 . S
C1238 C1236 1.388 . S
C1238 C1239 1.366 . S
C1239 C1238 1.366 . S
C1239 C1240 1.414 . S
C1239 C1242 1.499 . S
C1240 H1220 0.950 . S
C1240 C1239 1.414 . S
C1240 C1241 1.374 . S
C1241 H1221 0.950 . S
C1241 C1237 1.385 . S
C1241 C1240 1.374 . S
C1242 C1239 1.499 . S
C1242 C1243 1.373 . S
C1242 C1244 1.389 . S
C1243 H1222 0.950 . S
C1243 C1242 1.373 . S
C1243 C1259 1.377 . S
C1244 C1242 1.389 . S
C1244 C1245 1.524 . S
C1244 C1258 1.377 . S
C1245 C1244 1.524 . S
C1245 C1246 1.397 . S
C1245 C1250 1.363 . S
C1246 H1223 0.950 . S
C1246 C1245 1.397 . S
C1246 C1247 1.334 . S
C1247 H1224 0.950 . S
C1247 C1246 1.334 . S
C1247 C1248 1.287 . S
C1248 C1247 1.287 . S
C1248 C1249 1.524 . S
C1248 H1267 0.913 . S
C1249 H1225 0.950 . S
C1249 C1248 1.524 . S
C1249 C1250 1.415 . S
C1250 H1226 0.950 . S
C1250 C1245 1.363 . S
C1250 C1249 1.415 . S
C1251 H1227 0.951 . S
C1251 C1252 1.366 . S
C1251 C1253 1.388 . S
C1252 C1251 1.366 . S
C1252 C1256 1.385 . S
C1253 H1228 0.951 . S
C1253 C1251 1.388 . S
C1253 C1254 1.366 . S
C1254 C1253 1.366 . S
C1254 C1255 1.414 . S
C1254 C1257 1.499 . S
C1255 H1229 0.950 . S
C1255 C1254 1.414 . S
C1255 C1256 1.374 . S
C1256 H1230 0.950 . S
C1256 C1252 1.385 . S
C1256 C1255 1.374 . S
C1257 C1254 1.499 . S
C1257 C1258 1.373 . S
C1257 C1259 1.389 . S
C1258 H1231 0.950 . S
C1258 C1244 1.377 . S
C1258 C1257 1.373 . S
C1259 C1243 1.377 . S
C1259 C1257 1.389 . S
C1259 C1260 1.524 . S
C1260 C1259 1.524 . S
C1260 C1261 1.397 . S
C1260 C1265 1.363 . S
C1261 H1232 0.950 . S
C1261 C1260 1.397 . S
C1261 C1262 1.334 . S
C1262 H1233 0.950 . S
C1262 C1261 1.334 . S
C1262 C1263 1.287 . S
C1263 C1262 1.287 . S
C1263 C1264 1.524 . S
C1263 H1266 0.999 . S
C1264 H1234 0.950 . S
C1264 C1263 1.524 . S
C1264 C1265 1.415 . S
C1265 H1235 0.950 . S
C1265 C1260 1.363 . S
C1265 C1264 1.415 . S
H1266 C1263 0.999 . S
H1267 C1248 0.913 . S
H1268 C1286 0.951 1_655 S
H1269 C1288 0.951 . S
H1270 C1290 0.950 . S
H1271 C1291 0.950 . S
H1272 C1293 0.950 . S
H1273 C1296 0.950 . S
H1274 C1297 0.950 . S
H1275 C1299 0.950 . S
H1276 C1300 0.950 . S
H1277 C1301 0.951 1_455 S
H1278 C1303 0.951 . S
H1279 C1305 0.950 . S
H1280 C1306 0.950 . S
H1281 C1308 0.950 . S
H1282 C1311 0.950 . S
H1283 C1312 0.950 . S
H1284 C1314 0.950 . S
H1285 C1315 0.950 . S
C1286 H1268 0.951 1_455 S
C1286 C1287 1.366 . S
C1286 C1288 1.388 1_455 S
C1287 C1286 1.366 . S
C1287 C1291 1.385 . S
C1288 H1269 0.951 . S
C1288 C1286 1.388 1_655 S
C1288 C1289 1.366 1_655 S
C1289 C1288 1.366 1_455 S
C1289 C1290 1.414 . S
C1289 C1292 1.499 . S
C1290 H1270 0.950 . S
C1290 C1289 1.414 . S
C1290 C1291 1.374 . S
C1291 H1271 0.950 . S
C1291 C1287 1.385 . S
C1291 C1290 1.374 . S
C1292 C1289 1.499 . S
C1292 C1293 1.373 . S
C1292 C1294 1.389 1_455 S
C1293 H1272 0.950 . S
C1293 C1292 1.373 . S
C1293 C1309 1.377 . S
C1294 C1292 1.389 1_655 S
C1294 C1295 1.524 . S
C1294 C1308 1.377 . S
C1295 C1294 1.524 . S
C1295 C1296 1.397 . S
C1295 C1300 1.363 . S
C1296 H1273 0.950 . S
C1296 C1295 1.397 . S
C1296 C1297 1.334 . S
C1297 H1274 0.950 . S
C1297 C1296 1.334 . S
C1297 C1298 1.287 . S
C1298 C1297 1.287 . S
C1298 C1299 1.524 . S
C1298 H1317 0.913 . S
C1299 H1275 0.950 . S
C1299 C1298 1.524 . S
C1299 C1300 1.415 . S
C1300 H1276 0.950 . S
C1300 C1295 1.363 . S
C1300 C1299 1.415 . S
C1301 H1277 0.951 1_655 S
C1301 C1302 1.366 . S
C1301 C1303 1.388 1_655 S
C1302 C1301 1.366 . S
C1302 C1306 1.385 . S
C1303 H1278 0.951 . S
C1303 C1301 1.388 1_455 S
C1303 C1304 1.366 1_455 S
C1304 C1303 1.366 1_655 S
C1304 C1305 1.414 . S
C1304 C1307 1.499 . S
C1305 H1279 0.950 . S
C1305 C1304 1.414 . S
C1305 C1306 1.374 . S
C1306 H1280 0.950 . S
C1306 C1302 1.385 . S
C1306 C1305 1.374 . S
C1307 C1304 1.499 . S
C1307 C1308 1.373 . S
C1307 C1309 1.389 1_655 S
C1308 H1281 0.950 . S
C1308 C1294 1.377 . S
C1308 C1307 1.373 . S
C1309 C1293 1.377 . S
C1309 C1307 1.389 1_455 S
C1309 C1310 1.524 . S
C1310 C1309 1.524 . S
C1310 C1311 1.397 . S
C1310 C1315 1.363 . S
C1311 H1282 0.950 . S
C1311 C1310 1.397 . S
C1311 C1312 1.334 . S
C1312 H1283 0.950 . S
C1312 C1311 1.334 . S
C1312 C1313 1.287 . S
C1313 C1312 1.287 . S
C1313 C1314 1.524 . S
C1313 H1316 0.999 . S
C1314 H1284 0.950 . S
C1314 C1313 1.524 . S
C1314 C1315 1.415 . S
C1315 H1285 0.950 . S
C1315 C1310 1.363 . S
C1315 C1314 1.415 . S
H1316 C1313 0.999 . S
H1317 C1298 0.913 . S
H1318 C1336 0.951 . S
H1319 C1338 0.969 . S
H1320 C1340 0.950 . S
H1321 C1341 0.950 . S
H1322 C1343 0.950 . S
H1323 C1346 0.950 . S
H1324 C1347 0.950 . S
H1325 C1349 0.950 . S
H1326 C1350 0.950 . S
H1327 C1351 0.951 . S
H1328 C1353 0.969 . S
H1329 C1355 0.950 . S
H1330 C1356 0.950 . S
H1331 C1358 0.950 . S
H1332 C1361 0.950 . S
H1333 C1362 0.950 . S
H1334 C1364 0.950 . S
H1335 C1365 0.950 . S
C1336 H1318 0.951 . S
C1336 C1337 1.366 . S
C1336 C1338 1.388 . S
C1337 C1336 1.366 . S
C1337 C1341 1.385 . S
C1338 H1319 0.969 . S
C1338 C1336 1.388 . S
C1338 C1339 1.366 . S
C1339 C1338 1.366 . S
C1339 C1340 1.414 . S
C1339 C1342 1.499 . S
C1340 H1320 0.950 . S
C1340 C1339 1.414 . S
C1340 C1341 1.374 . S
C1341 H1321 0.950 . S
C1341 C1337 1.385 . S
C1341 C1340 1.374 . S
C1342 C1339 1.499 . S
C1342 C1343 1.373 1_565 S
C1342 C1344 1.389 . S
C1343 H1322 0.950 . S
C1343 C1342 1.373 1_545 S
C1343 C1359 1.377 1_554 S
C1344 C1342 1.389 . S
C1344 C1345 1.524 . S
C1344 C1358 1.377 1_554 S
C1345 C1344 1.524 . S
C1345 C1346 1.397 . S
C1345 C1350 1.363 . S
C1346 H1323 0.950 . S
C1346 C1345 1.397 . S
C1346 C1347 1.334 . S
C1347 H1324 0.950 . S
C1347 C1346 1.334 . S
C1347 C1348 1.287 . S
C1348 C1347 1.287 . S
C1348 C1349 1.524 . S
C1348 H1367 0.913 . S
C1349 H1325 0.950 . S
C1349 C1348 1.524 . S
C1349 C1350 1.415 . S
C1350 H1326 0.950 . S
C1350 C1345 1.363 . S
C1350 C1349 1.415 . S
C1351 H1327 0.951 . S
C1351 C1352 1.366 . S
C1351 C1353 1.388 . S
C1352 C1351 1.366 . S
C1352 C1356 1.385 . S
C1353 H1328 0.969 . S
C1353 C1351 1.388 . S
C1353 C1354 1.366 . S
C1354 C1353 1.366 . S
C1354 C1355 1.414 . S
C1354 C1357 1.499 . S
C1355 H1329 0.950 . S
C1355 C1354 1.414 . S
C1355 C1356 1.374 . S
C1356 H1330 0.950 . S
C1356 C1352 1.385 . S
C1356 C1355 1.374 . S
C1357 C1354 1.499 . S
C1357 C1358 1.373 1_545 S
C1357 C1359 1.389 . S
C1358 H1331 0.950 . S
C1358 C1344 1.377 1_556 S
C1358 C1357 1.373 1_565 S
C1359 C1343 1.377 1_556 S
C1359 C1357 1.389 . S
C1359 C1360 1.524 . S
C1360 C1359 1.524 . S
C1360 C1361 1.397 . S
C1360 C1365 1.363 . S
C1361 H1332 0.950 . S
C1361 C1360 1.397 . S
C1361 C1362 1.334 . S
C1362 H1333 0.950 . S
C1362 C1361 1.334 . S
C1362 C1363 1.287 . S
C1363 C1362 1.287 . S
C1363 C1364 1.524 . S
C1363 H1366 0.999 . S
C1364 H1334 0.950 . S
C1364 C1363 1.524 . S
C1364 C1365 1.415 . S
C1365 H1335 0.950 . S
C1365 C1360 1.363 . S
C1365 C1364 1.415 . S
H1366 C1363 0.999 . S
H1367 C1348 0.913 . S
C187 C161 1.352 . S
C202 C7 1.352 . S
C237 C21 1.352 . S
C252 C91 1.351 . S
C287 C35 1.352 . S
C302 C105 1.352 . S
C337 C49 1.352 . S
C352 C119 1.352 . S
C387 C133 1.352 . S
C402 C63 1.352 . S
C437 C77 1.351 . S
C452 C147 1.352 . S
C487 C55 1.078 . S
C502 C13 1.076 . S
C537 C69 1.076 . S
C552 C27 1.078 . S
C587 C83 1.077 . S
C602 C41 1.078 . S
C637 C97 1.077 . S
C652 C139 1.077 . S
C687 C111 1.078 . S
C702 C153 1.077 . S
C737 C125 1.077 . S
C752 C167 1.077 . S
C787 C120 0.282 1_545 S
C802 C8 0.304 . S
C837 C22 0.278 1_455 S
C852 C134 0.305 . S
C887 C148 0.305 1_655 S
C902 C36 0.305 1_545 S
C937 C162 0.279 1_565 S
C952 C50 0.302 . S
C987 C92 0.302 . S
C1002 C64 0.278 1_655 S
C1037 C78 0.305 1_565 S
C1052 C106 0.306 1_455 S
C1087 C137 1.563 . S
C1102 C11 1.563 . S
C1137 C25 1.563 . S
C1152 C151 1.563 . S
C1187 C165 1.563 . S
C1202 C39 1.563 . S
C1237 C53 1.563 . S
C1252 C95 1.563 . S
C1287 C67 1.562 . S
C1302 C109 1.562 . S
C1337 C123 1.562 . S
C1352 C81 1.562 . S
