# Generated by pormake.
# Topology umz, (4)-cn, num edge types: 1
# Building blocks:
#     Node 0, Type 0, BuildingBlock: TATPOV_clean_sbu_0, # of connection points: 4
#     Node 1, Type 0, BuildingBlock: TATPOV_clean_sbu_0, # of connection points: 4
#     Node 2, Type 0, BuildingBlock: TATPOV_clean_sbu_0, # of connection points: 4
#     Node 3, Type 0, BuildingBlock: TATPOV_clean_sbu_0, # of connection points: 4
#     Node 4, Type 0, BuildingBlock: TATPOV_clean_sbu_0, # of connection points: 4
#     Node 5, Type 0, BuildingBlock: TATPOV_clean_sbu_0, # of connection points: 4
#     Node 6, Type 0, BuildingBlock: TATPOV_clean_sbu_0, # of connection points: 4
#     Node 7, Type 0, BuildingBlock: TATPOV_clean_sbu_0, # of connection points: 4
#     Node 8, Type 0, BuildingBlock: TATPOV_clean_sbu_0, # of connection points: 4
#     Node 9, Type 0, BuildingBlock: TATPOV_clean_sbu_0, # of connection points: 4
#     Node 10, Type 0, BuildingBlock: TATPOV_clean_sbu_0, # of connection points: 4
#     Node 11, Type 0, BuildingBlock: TATPOV_clean_sbu_0, # of connection points: 4
#     Node 12, Type 0, BuildingBlock: TATPOV_clean_sbu_0, # of connection points: 4
#     Node 13, Type 0, BuildingBlock: TATPOV_clean_sbu_0, # of connection points: 4
#     Node 14, Type 0, BuildingBlock: TATPOV_clean_sbu_0, # of connection points: 4
#     Node 15, Type 0, BuildingBlock: TATPOV_clean_sbu_0, # of connection points: 4
#     Edge 16, Type (0, 0), BuildingBlock: EZIPEK_clean_linker_0, # of connection points: 2
#     Edge 17, Type (0, 0), BuildingBlock: EZIPEK_clean_linker_0, # of connection points: 2
#     Edge 18, Type (0, 0), BuildingBlock: EZIPEK_clean_linker_0, # of connection points: 2
#     Edge 19, Type (0, 0), BuildingBlock: EZIPEK_clean_linker_0, # of connection points: 2
#     Edge 20, Type (0, 0), BuildingBlock: EZIPEK_clean_linker_0, # of connection points: 2
#     Edge 21, Type (0, 0), BuildingBlock: EZIPEK_clean_linker_0, # of connection points: 2
#     Edge 22, Type (0, 0), BuildingBlock: EZIPEK_clean_linker_0, # of connection points: 2
#     Edge 23, Type (0, 0), BuildingBlock: EZIPEK_clean_linker_0, # of connection points: 2
#     Edge 24, Type (0, 0), BuildingBlock: EZIPEK_clean_linker_0, # of connection points: 2
#     Edge 25, Type (0, 0), BuildingBlock: EZIPEK_clean_linker_0, # of connection points: 2
#     Edge 26, Type (0, 0), BuildingBlock: EZIPEK_clean_linker_0, # of connection points: 2
#     Edge 27, Type (0, 0), BuildingBlock: EZIPEK_clean_linker_0, # of connection points: 2
#     Edge 28, Type (0, 0), BuildingBlock: EZIPEK_clean_linker_0, # of connection points: 2
#     Edge 29, Type (0, 0), BuildingBlock: EZIPEK_clean_linker_0, # of connection points: 2
#     Edge 30, Type (0, 0), BuildingBlock: EZIPEK_clean_linker_0, # of connection points: 2
#     Edge 31, Type (0, 0), BuildingBlock: EZIPEK_clean_linker_0, # of connection points: 2
#     Edge 32, Type (0, 0), BuildingBlock: EZIPEK_clean_linker_0, # of connection points: 2
#     Edge 33, Type (0, 0), BuildingBlock: EZIPEK_clean_linker_0, # of connection points: 2
#     Edge 34, Type (0, 0), BuildingBlock: EZIPEK_clean_linker_0, # of connection points: 2
#     Edge 35, Type (0, 0), BuildingBlock: EZIPEK_clean_linker_0, # of connection points: 2
#     Edge 36, Type (0, 0), BuildingBlock: EZIPEK_clean_linker_0, # of connection points: 2
#     Edge 37, Type (0, 0), BuildingBlock: EZIPEK_clean_linker_0, # of connection points: 2
#     Edge 38, Type (0, 0), BuildingBlock: EZIPEK_clean_linker_0, # of connection points: 2
#     Edge 39, Type (0, 0), BuildingBlock: EZIPEK_clean_linker_0, # of connection points: 2
#     Edge 40, Type (0, 0), BuildingBlock: EZIPEK_clean_linker_0, # of connection points: 2
#     Edge 41, Type (0, 0), BuildingBlock: EZIPEK_clean_linker_0, # of connection points: 2
#     Edge 42, Type (0, 0), BuildingBlock: EZIPEK_clean_linker_0, # of connection points: 2
#     Edge 43, Type (0, 0), BuildingBlock: EZIPEK_clean_linker_0, # of connection points: 2
#     Edge 44, Type (0, 0), BuildingBlock: EZIPEK_clean_linker_0, # of connection points: 2
#     Edge 45, Type (0, 0), BuildingBlock: EZIPEK_clean_linker_0, # of connection points: 2
#     Edge 46, Type (0, 0), BuildingBlock: EZIPEK_clean_linker_0, # of connection points: 2
#     Edge 47, Type (0, 0), BuildingBlock: EZIPEK_clean_linker_0, # of connection points: 2
# Relax obj value: 0.190
# Max RMSD: 0.158
# Mean RMSD: 0.157
data_MOF--net-umz--node1-TATPOV_clean_sbu_0--edge1-EZIPEK_clean_linker_0
_symmetry_space_group_name_H-M    P1
_symmetry_Int_Tables_number       1
_symmetry_cell_setting            triclinic
loop_
_symmetry_equiv_pos_as_xyz
'x, y, z'
_cell_length_a     43.948518
_cell_length_b     43.886904
_cell_length_c     15.926177
_cell_angle_alpha  89.903076
_cell_angle_beta   89.564967
_cell_angle_gamma 89.909953
loop_
_atom_site_label
_atom_site_type_symbol
_atom_site_fract_x
_atom_site_fract_y
_atom_site_fract_z
_atom_type_partial_charge
Zn0 Zn 0.98169 0.57368 0.07936 0.0
Zn1 Zn 0.00726 0.62492 0.06374 0.0
O2 O 0.96894 0.63062 0.14217 0.0
O3 O 0.94569 0.58649 0.14635 0.0
O4 O 0.01799 0.66736 0.02228 0.0
O5 O 0.97849 0.56066 0.95947 0.0
O6 O 0.0112 0.59841 0.95656 0.0
C7 C 0.94724 0.61394 0.16966 0.0
C8 C 0.04274 0.58146 0.15863 0.0
O9 O 0.04166 0.60912 0.13472 0.0
O10 O 0.02105 0.5634 0.14182 0.0
C11 C 0.02352 0.69009 0.06919 0.0
O12 O 0.02297 0.68677 0.15117 0.0
C13 C 0.99951 0.57503 0.92226 0.0
Zn14 Zn 0.91421 0.04909 0.65422 0.0
Zn15 Zn 0.85843 0.04068 0.65578 0.0
O16 O 0.87742 0.00369 0.72315 0.0
O17 O 0.92578 0.01626 0.73166 0.0
O18 O 0.81475 0.02873 0.63397 0.0
O19 O 0.9235 0.0466 0.53319 0.0
O20 O 0.87381 0.05243 0.53685 0.0
C21 C 0.90431 0.99833 0.74982 0.0
C22 C 0.87885 0.09916 0.72347 0.0
O23 O 0.85658 0.08063 0.72226 0.0
O24 O 0.90473 0.09062 0.69717 0.0
C25 C 0.79895 0.04478 0.58384 0.0
O26 O 0.81079 0.06943 0.55013 0.0
C27 C 0.89897 0.05322 0.49671 0.0
Zn28 Zn 0.52442 0.93721 0.00434 0.0
Zn29 Zn 0.50314 0.8848 0.03219 0.0
O30 O 0.54802 0.88762 0.07407 0.0
O31 O 0.56828 0.93012 0.02949 0.0
O32 O 0.49611 0.83953 0.01479 0.0
O33 O 0.50874 0.94489 0.88946 0.0
O34 O 0.48428 0.90313 0.92456 0.0
C35 C 0.57101 0.90533 0.06924 0.0
C36 C 0.47814 0.93082 0.14195 0.0
O37 O 0.47713 0.90237 0.12598 0.0
O38 O 0.49594 0.94836 0.10154 0.0
C39 C 0.49273 0.81871 0.06957 0.0
O40 O 0.49247 0.82565 0.14975 0.0
C41 C 0.48811 0.92563 0.87511 0.0
Zn42 Zn 0.57921 0.52818 0.50146 0.0
Zn43 Zn 0.62699 0.50117 0.56233 0.0
O44 O 0.62733 0.54548 0.60661 0.0
O45 O 0.58882 0.56934 0.55052 0.0
O46 O 0.67077 0.48727 0.57899 0.0
O47 O 0.58653 0.51726 0.38057 0.0
O48 O 0.62109 0.48856 0.43898 0.0
C49 C 0.61155 0.56972 0.59882 0.0
C50 C 0.56764 0.47981 0.62902 0.0
O51 O 0.59652 0.47742 0.63547 0.0
O52 O 0.55607 0.49795 0.57582 0.0
C53 C 0.68905 0.49884 0.5251 0.0
O54 O 0.6784 0.51793 0.46888 0.0
C55 C 0.60607 0.49619 0.37443 0.0
Zn56 Zn 0.0473 0.92127 0.78092 0.0
Zn57 Zn 0.03691 0.8682 0.84999 0.0
O58 O 0.99615 0.89208 0.86352 0.0
O59 O 0.00792 0.93864 0.82344 0.0
O60 O 0.02898 0.82851 0.91188 0.0
O61 O 0.08766 0.92703 0.83511 0.0
O62 O 0.07652 0.88491 0.90374 0.0
C63 C 0.98855 0.91979 0.85126 0.0
C64 C 0.048 0.87195 0.66357 0.0
O65 O 0.04466 0.85506 0.72801 0.0
O66 O 0.04796 0.90066 0.67006 0.0
C67 C 0.04811 0.80671 0.90991 0.0
O68 O 0.07375 0.81005 0.868 0.0
C69 C 0.09451 0.90723 0.88937 0.0
Zn70 Zn 0.56287 0.98659 0.42454 0.0
Zn71 Zn 0.61622 0.01183 0.43363 0.0
O72 O 0.62201 0.97166 0.36488 0.0
O73 O 0.57825 0.94802 0.3728 0.0
O74 O 0.65926 0.02607 0.45407 0.0
O75 O 0.55421 0.99025 0.54665 0.0
O76 O 0.59827 0.01287 0.55381 0.0
C77 C 0.60558 0.9486 0.34755 0.0
C78 C 0.56832 0.0442 0.3345 0.0
O79 O 0.59531 0.04471 0.36321 0.0
O80 O 0.55085 0.02194 0.35024 0.0
C81 C 0.6773 0.00773 0.49068 0.0
O82 O 0.66784 0.98025 0.51046 0.0
C83 C 0.57392 0.00397 0.5899 0.0
Zn84 Zn 0.51963 0.57284 0.94622 0.0
Zn85 Zn 0.50297 0.62795 0.9641 0.0
O86 O 0.54345 0.62795 0.89382 0.0
O87 O 0.56127 0.58141 0.90127 0.0
O88 O 0.49698 0.67251 -0.00585 0.0
O89 O 0.51024 0.55997 0.06236 0.0
O90 O 0.49913 0.60821 0.08206 0.0
C91 C 0.5643 0.60862 0.8764 0.0
C92 C 0.46418 0.58722 0.85936 0.0
O93 O 0.46655 0.61339 0.89356 0.0
O94 O 0.48476 0.56733 0.86838 0.0
C95 C 0.491 0.6945 0.94487 0.0
O96 O 0.48696 0.68928 0.86455 0.0
C97 C 0.5002 0.58092 0.10931 0.0
Zn98 Zn 0.93044 0.52705 0.5298 0.0
Zn99 Zn 0.87974 0.5083 0.46871 0.0
O100 O 0.88474 0.55393 0.43759 0.0
O101 O 0.92609 0.57107 0.49615 0.0
O102 O 0.834 0.50164 0.45443 0.0
O103 O 0.92562 0.51127 0.64655 0.0
O104 O 0.88741 0.48874 0.58476 0.0
C105 C 0.90319 0.57584 0.45024 0.0
C106 C 0.93505 0.48332 0.3883 0.0
O107 O 0.90603 0.48487 0.38394 0.0
O108 O 0.94909 0.49753 0.44547 0.0
C109 C 0.81925 0.48086 0.49309 0.0
O110 O 0.83403 0.45987 0.53521 0.0
C111 C 0.90505 0.49117 0.64724 0.0
Zn112 Zn 0.0231 0.43422 0.95572 0.0
Zn113 Zn 0.00497 0.37898 0.97574 0.0
O114 O 0.04569 0.37745 0.90761 0.0
O115 O 0.06493 0.42335 0.91415 0.0
O116 O 0.99588 0.33436 -0.00222 0.0
O117 O 0.01204 0.44586 0.07235 0.0
O118 O 1.00155 0.39763 0.09489 0.0
C119 C 0.06727 0.39592 0.89056 0.0
C120 C 0.96798 0.42151 0.8681 0.0
O121 O 0.96959 0.39571 0.90486 0.0
O122 O 0.98918 0.44081 0.87491 0.0
C123 C 0.01446 0.31885 0.04158 0.0
O124 O 0.03919 0.33188 0.07014 0.0
C125 C 0.00215 0.42512 0.12043 0.0
Zn126 Zn 0.11251 0.90399 0.19437 0.0
Zn127 Zn 0.14055 0.93732 0.29449 0.0
O128 O 0.11108 0.97095 0.25899 0.0
O129 O 0.10329 0.94631 0.14168 0.0
O130 O 0.17211 0.95427 0.37364 0.0
O131 O 0.0842 0.88462 0.27597 0.0
O132 O 0.11701 0.90474 0.36373 0.0
C133 C 0.10063 0.97057 0.1845 0.0
C134 C 0.16695 0.90275 0.14466 0.0
O135 O 0.16487 0.92729 0.18668 0.0
O136 O 0.15128 0.88059 0.17047 0.0
C137 C 0.19204 0.9731 0.34769 0.0
O138 O 0.19073 0.98346 0.27039 0.0
C139 C 0.09406 0.88768 0.34969 0.0
Zn140 Zn 0.46316 0.08312 0.96527 0.0
Zn141 Zn 0.48973 0.13112 0.91073 0.0
O142 O 0.44503 0.13298 0.87019 0.0
O143 O 0.42158 0.09303 0.92062 0.0
O144 O 0.50415 0.17483 0.89807 0.0
O145 O 0.47476 0.0856 0.0859 0.0
O146 O 0.50439 0.12069 0.03063 0.0
C147 C 0.42084 0.11709 0.87681 0.0
C148 C 0.51161 0.07368 0.83701 0.0
O149 O 0.51293 0.10268 0.83138 0.0
O150 O 0.49376 0.06124 0.88984 0.0
C151 C 0.49196 0.19274 0.9515 0.0
O152 O 0.47239 0.18161 0.00623 0.0
C153 C 0.49739 0.10317 0.09161 0.0
Zn154 Zn 0.43009 0.48018 0.52227 0.0
Zn155 Zn 0.37957 0.49827 0.45942 0.0
O156 O 0.38599 0.45315 0.42675 0.0
O157 O 0.42726 0.4362 0.48629 0.0
O158 O 0.33384 0.50382 0.44464 0.0
O159 O 0.4246 0.49581 0.63922 0.0
O160 O 0.38669 0.51806 0.57499 0.0
C161 C 0.40485 0.43149 0.43861 0.0
C162 C 0.43425 0.52416 0.3808 0.0
O163 O 0.40531 0.52217 0.37534 0.0
O164 O 0.4483 0.51028 0.43876 0.0
C165 C 0.31864 0.52444 0.48252 0.0
O166 O 0.33294 0.54582 0.52403 0.0
C167 C 0.40399 0.51593 0.63826 0.0
Zn168 Zn 0.9625 0.08071 0.03398 0.0
Zn169 Zn 0.98629 0.1283 0.08969 0.0
O170 O 0.02288 0.09691 0.08193 0.0
O171 O 0.99884 0.05492 0.0494 0.0
O172 O 0.00464 0.17013 0.10873 0.0
O173 O 0.9487 0.097 0.92434 0.0
O174 O 0.95834 0.1394 0.9913 0.0
C175 C 0.02318 0.06806 0.07047 0.0
C176 C 0.93513 0.10029 0.18773 0.0
O177 O 0.9577 0.11859 0.18801 0.0
O178 O 0.9322 0.08195 0.12725 0.0
C179 C 0.98595 0.19236 0.10924 0.0
O180 O 0.9566 0.18682 0.10957 0.0
C181 C 0.94589 0.12554 0.9309 0.0
Zn182 Zn 0.4187 0.03582 0.52686 0.0
Zn183 Zn 0.36793 0.01038 0.53045 0.0
O184 O 0.36438 0.05327 0.5893 0.0
O185 O 0.40734 0.07712 0.56691 0.0
O186 O 0.32533 0.99837 0.49519 0.0
O187 O 0.43337 0.02799 0.41064 0.0
O188 O 0.39373 0.99801 0.42565 0.0
C189 C 0.38086 0.07701 0.59836 0.0
C190 C 0.41042 0.98253 0.64247 0.0
O191 O 0.38285 0.9812 0.61891 0.0
O192 O 0.42825 0.00279 0.61362 0.0
C193 C 0.30043 0.00574 0.53096 0.0
O194 O 0.30075 0.0216 0.60074 0.0
C195 C 0.41764 0.00584 0.38528 0.0
Zn196 Zn 0.48545 0.43671 0.06048 0.0
Zn197 Zn 0.51 0.38325 0.04638 0.0
O198 O 0.47246 0.37955 0.12732 0.0
O199 O 0.44863 0.4234 0.12542 0.0
O200 O 0.5208 0.33878 0.02648 0.0
O201 O 0.4852 0.44489 0.93704 0.0
O202 O 0.50819 0.401 0.92554 0.0
C203 C 0.45043 0.39632 0.15214 0.0
C204 C 0.5457 0.43072 0.13621 0.0
O205 O 0.54539 0.40359 0.10762 0.0
O206 O 0.52315 0.44829 0.12511 0.0
C207 C 0.50059 0.323 0.98972 0.0
O208 O 0.47554 0.33648 0.96458 0.0
C209 C 0.49804 0.42516 0.89101 0.0
Zn210 Zn 0.07752 0.47268 0.5276 0.0
Zn211 Zn 0.1282 0.49919 0.5735 0.0
O212 O 0.12875 0.45481 0.61642 0.0
O213 O 0.09015 0.4304 0.56324 0.0
O214 O 0.17226 0.51267 0.58258 0.0
O215 O 0.07794 0.4889 0.40988 0.0
O216 O 0.11823 0.51348 0.45434 0.0
C217 C 0.11348 0.43028 0.60938 0.0
C218 C 0.07183 0.5192 0.66076 0.0
O219 O 0.10056 0.52291 0.65373 0.0
O220 O 0.05798 0.49975 0.61644 0.0
C221 C 0.18938 0.50293 0.52342 0.0
O222 O 0.1777 0.48544 0.46514 0.0
C223 C 0.09827 0.50885 0.39853 0.0
C224 C 0.05721 0.73587 0.04671 0.0
C225 C 0.02943 0.72049 0.03105 0.0
C226 C 0.01479 0.76069 0.93178 0.0
C227 C 0.0413 0.77737 0.95296 0.0
N228 N 0.08474 0.7837 0.04306 0.0
N229 N 0.97888 0.72152 0.97291 0.0
C230 C 0.06169 0.76577 0.014 0.0
C231 C 0.00737 0.73384 0.97762 0.0
N232 N 0.07988 0.72147 0.08976 0.0
N233 N 0.99738 0.76963 0.86531 0.0
H234 H 0.97227 0.70225 0.00685 0.0
H235 H 0.96092 0.73211 0.94202 0.0
H236 H 0.00232 0.78873 0.82867 0.0
H237 H 0.97975 0.75648 0.84139 0.0
H238 H 0.10179 0.73023 0.09505 0.0
H239 H 0.07769 0.69947 0.11382 0.0
H240 H 0.09833 0.77769 0.09377 0.0
H241 H 0.08845 0.8059 0.0219 0.0
C242 C 0.73086 0.02199 0.45118 0.0
C243 C 0.70836 0.01752 0.51437 0.0
C244 C 0.74473 0.03297 0.62264 0.0
C245 C 0.76784 0.03511 0.56027 0.0
N246 N 0.78459 0.02663 0.41757 0.0
N247 N 0.69451 0.01478 0.66123 0.0
C248 C 0.76134 0.02842 0.47501 0.0
C249 C 0.71554 0.02171 0.60046 0.0
N250 N 0.72314 0.01997 0.36835 0.0
N251 N 0.75023 0.04312 0.70226 0.0
H252 H 0.67238 0.00794 0.64786 0.0
H253 H 0.69954 0.01378 0.72496 0.0
H254 H 0.7712 0.05183 0.72077 0.0
H255 H 0.7334 0.04545 0.74814 0.0
H256 H 0.73751 0.02657 0.31935 0.0
H257 H 0.70157 0.0135 0.3483 0.0
H258 H 0.78191 0.01867 0.35655 0.0
H259 H 0.80729 0.03051 0.43281 0.0
C260 C 0.46532 0.77538 -0.00021 0.0
C261 C 0.49146 0.7864 0.04194 0.0
C262 C 0.51797 0.73812 0.01403 0.0
C263 C 0.49108 0.72625 0.97753 0.0
N264 N 0.4377 0.7316 0.94707 0.0
N265 N 0.54127 0.77719 0.09956 0.0
C266 C 0.46435 0.74439 0.97319 0.0
C267 C 0.51727 0.76734 0.05269 0.0
N268 N 0.44148 0.79463 0.98468 0.0
N269 N 0.54467 0.72219 0.00746 0.0
H270 H 0.54243 0.79897 0.12529 0.0
H271 H 0.55906 0.76308 0.11818 0.0
H272 H 0.54641 0.70111 0.97767 0.0
H273 H 0.56572 0.73102 0.02433 0.0
H274 H 0.42343 0.78921 0.9455 0.0
H275 H 0.44055 0.81688 0.00748 0.0
H276 H 0.4167 0.74251 0.95101 0.0
H277 H 0.43608 0.70898 0.92764 0.0
C278 C 0.74145 0.49962 0.58829 0.0
C279 C 0.72191 0.49073 0.52221 0.0
C280 C 0.76623 0.47585 0.43609 0.0
C281 C 0.78569 0.48353 0.50338 0.0
N282 N 0.79209 0.4988 0.64785 0.0
N283 N 0.7148 0.46496 0.39035 0.0
C284 C 0.77332 0.49399 0.58103 0.0
C285 C 0.73409 0.47728 0.44807 0.0
N286 N 0.7298 0.51513 0.65573 0.0
N287 N 0.77851 0.46759 0.36031 0.0
H288 H 0.6912 0.46513 0.39792 0.0
H289 H 0.72206 0.45217 0.33898 0.0
H290 H 0.80187 0.46506 0.35039 0.0
H291 H 0.76581 0.46515 0.30584 0.0
H292 H 0.74317 0.52561 0.70094 0.0
H293 H 0.70665 0.51953 0.66373 0.0
H294 H 0.7842 0.50264 0.70872 0.0
H295 H 0.81573 0.49713 0.64393 0.0
C296 C 1.00119 0.27696 0.14326 0.0
C297 C 0.00854 0.28618 0.05993 0.0
C298 C 0.00586 0.23297 0.01243 0.0
C299 C 0.99645 0.22407 0.09453 0.0
N300 N 0.98302 0.23697 0.23687 0.0
N301 N 0.0168 0.27403 0.91401 0.0
C302 C 0.99367 0.24591 0.15973 0.0
C303 C 0.01065 0.26443 -0.0058 0.0
N304 N 1.00144 0.29796 0.20666 0.0
N305 N 0.01022 0.21123 0.95193 0.0
H306 H 0.02227 0.29651 0.89905 0.0
H307 H 0.01518 0.26027 0.86117 0.0
H308 H 0.0055 0.18821 0.96126 0.0
H309 H 0.02012 0.21543 0.89355 0.0
H310 H 0.99983 0.29241 0.27006 0.0
H311 H 0.00484 0.32119 0.19647 0.0
H312 H 0.97687 0.25197 0.28459 0.0
H313 H 0.97888 0.21423 0.25231 0.0
C314 C 0.26415 0.96622 0.47835 0.0
C315 C 0.27115 0.99739 0.49121 0.0
C316 C 0.22334 0.01208 0.42314 0.0
C317 C 0.21832 0.98119 0.40123 0.0
N318 N 0.23632 0.92916 0.39686 0.0
N319 N 0.25959 0.05044 0.46622 0.0
C320 C 0.23925 0.95826 0.42632 0.0
C321 C 0.25122 0.02049 0.46161 0.0
N322 N 0.28087 0.94419 0.51765 0.0
N323 N 0.20111 0.03327 0.40895 0.0
H324 H 0.2799 0.05763 0.49313 0.0
H325 H 0.24767 0.068 0.43713 0.0
H326 H 0.18039 0.02787 0.38117 0.0
H327 H 0.20203 0.0555 0.43149 0.0
H328 H 0.27492 0.92122 0.51792 0.0
H329 H 0.29911 0.94919 0.55686 0.0
H330 H 0.25282 0.91238 0.40519 0.0
H331 H 0.21874 0.92234 0.35758 0.0
C332 C 0.50975 0.2378 0.03349 0.0
C333 C 0.49996 0.22562 0.95576 0.0
C334 C 0.49978 0.27714 0.89583 0.0
C335 C 0.50411 0.28956 0.9772 0.0
N336 N 0.50956 0.28129 0.12655 0.0
N337 N 0.48265 0.23405 0.81404 0.0
C338 C 0.50854 0.26982 0.04686 0.0
C339 C 0.49453 0.24532 0.8867 0.0
N340 N 0.52061 0.21873 0.09426 0.0
N341 N 0.50123 0.29575 0.82705 0.0
H342 H 0.47821 0.21099 0.80469 0.0
H343 H 0.4749 0.24788 0.76545 0.0
H344 H 0.50574 0.31901 0.83147 0.0
H345 H 0.50113 0.28765 0.7656 0.0
H346 H 0.53079 0.2265 0.14907 0.0
H347 H 0.52241 0.19522 0.08579 0.0
H348 H 0.50918 0.2676 0.18004 0.0
H349 H 0.50802 0.30446 0.14009 0.0
C350 C 0.26496 0.52908 0.43044 0.0
C351 C 0.28536 0.52058 0.49488 0.0
C352 C 0.24267 0.50132 0.58044 0.0
C353 C 0.22211 0.51125 0.51776 0.0
N354 N 0.21276 0.53981 0.3911 0.0
N355 N 0.29384 0.50268 0.63628 0.0
C356 C 0.23302 0.52661 0.44491 0.0
C357 C 0.27422 0.50813 0.57167 0.0
N358 N 0.27614 0.53907 0.35495 0.0
N359 N 0.23236 0.48381 0.64582 0.0
H360 H 0.31733 0.50552 0.63106 0.0
H361 H 0.28672 0.49725 0.69697 0.0
H362 H 0.2095 0.47827 0.65462 0.0
H363 H 0.24662 0.47274 0.68794 0.0
H364 H 0.26273 0.5423 0.30206 0.0
H365 H 0.29933 0.5422 0.34337 0.0
H366 H 0.21914 0.55387 0.34133 0.0
H367 H 0.18927 0.53904 0.40074 0.0
C368 C 0.0339 0.53353 0.87073 0.0
C369 C 0.01645 0.56016 0.85292 0.0
C370 C 0.03509 0.55971 0.70744 0.0
C371 C 0.05438 0.5348 0.72749 0.0
N372 N 0.075 0.49975 0.82905 0.0
N373 N 0.00248 0.60057 0.75819 0.0
C374 C 0.05458 0.52222 0.80939 0.0
C375 C 0.01771 0.57389 0.77234 0.0
N376 N 0.03062 0.51876 0.94603 0.0
N377 N 0.03281 0.56925 0.62598 0.0
H378 H 0.98824 0.61063 0.80298 0.0
H379 H 0.00519 0.61363 0.70403 0.0
H380 H 0.04573 0.55981 0.57741 0.0
H381 H 0.01677 0.585 0.6054 0.0
H382 H 0.03907 0.49699 0.95751 0.0
H383 H 0.0181 0.52724 -0.00345 0.0
H384 H 0.07905 0.49228 0.89002 0.0
H385 H 0.08978 0.48994 0.7852 0.0
C386 C 0.92112 0.11305 0.33666 0.0
C387 C 0.91507 0.0966 0.26279 0.0
C388 C 0.88818 0.05741 0.34298 0.0
C389 C 0.90069 0.06992 0.41682 0.0
N390 N 0.92424 0.11238 0.48817 0.0
N391 N 0.87715 0.06564 0.19578 0.0
C392 C 0.91532 0.09889 0.41511 0.0
C393 C 0.89353 0.07257 0.26566 0.0
N394 N 0.9304 0.14268 0.33107 0.0
N395 N 0.87274 0.03043 0.34609 0.0
H396 H 0.87844 0.07892 0.14144 0.0
H397 H 0.85962 0.04971 0.19524 0.0
H398 H 0.86806 0.01904 0.40225 0.0
H399 H 0.86611 0.01853 0.29278 0.0
H400 H 0.93353 0.15686 0.38256 0.0
H401 H 0.93116 0.15423 0.27374 0.0
H402 H 0.93836 0.13136 0.49076 0.0
H403 H 0.91813 0.104 0.54708 0.0
C404 C 0.4416 0.95635 0.84731 0.0
C405 C 0.4632 0.93447 0.81851 0.0
C406 C 0.44275 0.93759 0.67656 0.0
C407 C 0.42272 0.96094 0.70432 0.0
N408 N 0.39702 0.98715 0.81656 0.0
N409 N 0.48017 0.89894 0.71345 0.0
C410 C 0.42001 0.96833 0.79027 0.0
C411 C 0.4622 0.9231 0.73554 0.0
N412 N 0.4427 0.96662 0.92831 0.0
N413 N 0.44387 0.93033 0.59317 0.0
H414 H 0.49488 0.88841 0.75573 0.0
H415 H 0.47915 0.88799 0.65566 0.0
H416 H 0.42853 0.93937 0.54997 0.0
H417 H 0.46021 0.91614 0.56623 0.0
H418 H 0.43027 0.98512 0.95078 0.0
H419 H 0.4572 0.95738 0.97314 0.0
H420 H 0.39201 0.99164 0.87928 0.0
H421 H 0.38112 0.99638 0.77534 0.0
C422 C 0.58311 0.42859 0.25592 0.0
C423 C 0.57218 0.44301 0.18216 0.0
C424 C 0.59876 0.49002 0.21978 0.0
C425 C 0.6061 0.47668 0.29793 0.0
N426 N 0.62083 0.42975 0.36577 0.0
N427 N 0.57886 0.48277 0.07919 0.0
C428 C 0.60365 0.44469 0.30774 0.0
C429 C 0.58335 0.47223 0.15893 0.0
N430 N 0.57234 0.40076 0.28045 0.0
N431 N 0.60569 0.51992 0.20579 0.0
H432 H 0.56833 0.46958 0.03332 0.0
H433 H 0.58779 0.50314 0.05638 0.0
H434 H 0.61881 0.53237 0.24799 0.0
H435 H 0.59819 0.53234 0.15419 0.0
H436 H 0.57698 0.3913 0.33905 0.0
H437 H 0.55704 0.38802 0.24549 0.0
H438 H 0.62105 0.4061 0.37163 0.0
H439 H 0.6381 0.44053 0.39884 0.0
C440 C 0.16418 0.87936 0.00367 0.0
C441 C 0.17016 0.90562 0.05174 0.0
C442 C 0.13621 0.93596 0.96628 0.0
C443 C 0.12454 0.90842 0.93161 0.0
N444 N 0.1367 0.85718 0.88688 0.0
N445 N 0.17852 0.95927 0.04001 0.0
C446 C 0.14177 0.88105 0.93984 0.0
C447 C 0.16241 0.93414 0.01741 0.0
N448 N 0.17788 0.85264 0.02549 0.0
N449 N 0.12122 0.96307 0.95771 0.0
H450 H 0.19741 0.95737 0.07915 0.0
H451 H 0.17494 0.98074 0.01379 0.0
H452 H 0.1009 0.96565 0.9255 0.0
H453 H 0.12774 0.98278 0.98915 0.0
H454 H 0.17241 0.83156 -6e-05 0.0
H455 H 0.19455 0.85213 0.07196 0.0
H456 H 0.14942 0.83716 0.88727 0.0
H457 H 0.12148 0.85864 0.83704 0.0
C458 C 0.56236 0.05895 0.77181 0.0
C459 C 0.53057 0.05367 0.78236 0.0
C460 C 0.53639 0.00561 0.70696 0.0
C461 C 0.5649 0.01518 0.67557 0.0
N462 N 0.60895 0.04708 0.69583 0.0
N463 N 0.48659 0.02275 0.74838 0.0
C464 C 0.57925 0.04066 0.7137 0.0
C465 C 0.51739 0.02697 0.74775 0.0
N466 N 0.57668 0.08016 0.82027 0.0
N467 N 0.52748 0.9761 0.69698 0.0
H468 H 0.47115 0.03911 0.76965 0.0
H469 H 0.47627 0.0045 0.71814 0.0
H470 H 0.54208 0.95964 0.6717 0.0
H471 H 0.50746 0.96758 0.72306 0.0
H472 H 0.60017 0.08305 0.82134 0.0
H473 H 0.56545 0.09314 0.86558 0.0
H474 H 0.61919 0.06786 0.70941 0.0
H475 H 0.6236 0.03103 0.66937 0.0
C476 C 0.44241 0.57011 0.28804 0.0
C477 C 0.45236 0.5413 0.31741 0.0
C478 C 0.49904 0.54727 0.23471 0.0
C479 C 0.48597 0.57205 0.19079 0.0
N480 N 0.44084 0.60347 0.16828 0.0
N481 N 0.48794 0.49925 0.30082 0.0
C482 C 0.45659 0.5829 0.21574 0.0
C483 C 0.48025 0.529 0.28656 0.0
N484 N 0.41989 0.58559 0.32945 0.0
N485 N 0.5293 0.54086 0.2258 0.0
H486 H 0.47349 0.48371 0.33041 0.0
H487 H 0.507 0.48903 0.27339 0.0
H488 H 0.54392 0.55462 0.1904 0.0
H489 H 0.54017 0.52413 0.26122 0.0
H490 H 0.41382 0.60788 0.31399 0.0
H491 H 0.4099 0.57766 0.3849 0.0
H492 H 0.4182 0.60909 0.18085 0.0
H493 H 0.44866 0.61265 0.112 0.0
C494 C 0.92443 0.45688 0.85451 0.0
C495 C 0.94043 0.43122 0.82303 0.0
C496 C 0.91516 0.4371 0.68812 0.0
C497 C 0.90641 0.46706 0.71248 0.0
N498 N 0.89724 0.50363 0.82151 0.0
N499 N 0.94959 0.39479 0.71313 0.0
C500 C 0.90873 0.47604 0.79741 0.0
C501 C 0.93469 0.42015 0.74147 0.0
N502 N 0.92515 0.46304 0.93853 0.0
N503 N 0.90542 0.42515 0.61393 0.0
H504 H 0.96321 0.3814 0.75192 0.0
H505 H 0.94963 0.38782 0.65067 0.0
H506 H 0.89018 0.43632 0.57484 0.0
H507 H 0.90947 0.40272 0.59586 0.0
H508 H 0.91266 0.48037 0.96706 0.0
H509 H 0.9365 0.44889 0.98087 0.0
H510 H 0.90095 0.51344 0.87998 0.0
H511 H 0.88428 0.51703 0.78092 0.0
C512 C 1.00016 0.45991 0.24328 0.0
C513 C 0.9876 0.43452 0.20119 0.0
C514 C 0.9438 0.43684 0.29778 0.0
C515 C 0.95325 0.46603 0.3252 0.0
N516 N 0.98823 0.50832 0.30611 0.0
N517 N 0.94309 0.40223 0.1809 0.0
C518 C 0.98099 0.47838 0.29365 0.0
C519 C 0.95835 0.42353 0.2267 0.0
N520 N 0.03032 0.46667 0.23421 0.0
N521 N 0.92149 0.4214 0.34012 0.0
H522 H 0.95126 0.39245 0.12585 0.0
H523 H 0.92051 0.39644 0.1935 0.0
H524 H 0.91126 0.42966 0.39483 0.0
H525 H 0.91582 0.3989 0.32634 0.0
H526 H 0.04083 0.48382 0.26859 0.0
H527 H 0.04526 0.45286 0.20001 0.0
H528 H 0.00718 0.51857 0.27823 0.0
H529 H 0.97352 0.52387 0.33468 0.0
C530 C 0.03467 0.86853 0.51563 0.0
C531 C 0.05451 0.8594 0.5799 0.0
C532 C 0.09604 0.8552 0.47807 0.0
C533 C 0.07846 0.87254 0.42088 0.0
N534 N 0.03 0.89546 0.38414 0.0
N535 N 0.10303 0.8398 0.6231 0.0
C536 C 0.04711 0.87828 0.4378 0.0
C537 C 0.08469 0.85047 0.56076 0.0
N538 N 0.00415 0.86951 0.53185 0.0
N539 N 0.12351 0.84361 0.45312 0.0
H540 H 0.09473 0.83491 0.68315 0.0
H541 H 0.1264 0.83665 0.61612 0.0
H542 H 0.13194 0.84648 0.39215 0.0
H543 H 0.13645 0.82889 0.48979 0.0
H544 H 0.98788 0.87384 0.4861 0.0
H545 H 0.99526 0.86288 0.59013 0.0
H546 H 0.00815 0.9031 0.39865 0.0
H547 H 0.03812 0.90412 0.32743 0.0
C548 C 0.52913 0.08396 0.30472 0.0
C549 C 0.55648 0.06895 0.28063 0.0
C550 C 0.54829 0.08271 0.13424 0.0
C551 C 0.52013 0.09666 0.15734 0.0
N552 N 0.48743 0.11737 0.26452 0.0
N553 N 0.59709 0.06323 0.17927 0.0
C554 C 0.51184 0.09965 0.24296 0.0
C555 C 0.56792 0.07185 0.19788 0.0
N556 N 0.51933 0.08219 0.38623 0.0
N557 N 0.5551 0.07699 0.05176 0.0
H558 H 0.61198 0.05458 0.2239 0.0
H559 H 0.60753 0.0677 0.12161 0.0
H560 H 0.54126 0.08331 0.00205 0.0
H561 H 0.5733 0.06339 0.03251 0.0
H562 H 0.49792 0.0893 0.40661 0.0
H563 H 0.53265 0.07262 0.4335 0.0
H564 H 0.48133 0.12246 0.32619 0.0
H565 H 0.4747 0.12913 0.21982 0.0
C566 C 0.41332 0.57042 0.6769 0.0
C567 C 0.40485 0.54045 0.70231 0.0
C568 C 0.42075 0.55206 0.84534 0.0
C569 C 0.43667 0.57774 0.81386 0.0
N570 N 0.44656 0.61351 0.70261 0.0
N571 N 0.39529 0.50442 0.81282 0.0
C572 C 0.43177 0.58811 0.73109 0.0
C573 C 0.40631 0.53211 0.78798 0.0
N574 N 0.40435 0.58173 0.60104 0.0
N575 N 0.42048 0.54656 0.92979 0.0
H576 H 0.38322 0.49039 0.77202 0.0
H577 H 0.39863 0.49513 0.8722 0.0
H578 H 0.43096 0.56128 0.97214 0.0
H579 H 0.40795 0.52923 0.95824 0.0
H580 H 0.40817 0.60414 0.58221 0.0
H581 H 0.38994 0.5701 0.56085 0.0
H582 H 0.44739 0.61997 0.63971 0.0
H583 H 0.45926 0.62746 0.742 0.0
C584 C 0.90143 0.14872 0.74664 0.0
C585 C 0.87741 0.12872 0.76761 0.0
C586 C 0.89063 0.13198 0.91396 0.0
C587 C 0.92043 0.13994 0.88676 0.0
N588 N 0.95258 0.16456 0.78505 0.0
N589 N 0.83926 0.11803 0.87047 0.0
C590 C 0.92509 0.15226 0.8059 0.0
C591 C 0.86817 0.12702 0.85193 0.0
N592 N 0.90332 0.15977 0.6669 0.0
N593 N 0.88507 0.12692 -0.0028 0.0
H594 H 0.82356 0.11427 0.82262 0.0
H595 H 0.83062 0.11587 0.93118 0.0
H596 H 0.90158 0.13123 0.04243 0.0
H597 H 0.86438 0.11929 0.0213 0.0
H598 H 0.92022 0.17468 0.64638 0.0
H599 H 0.88635 0.15484 0.62334 0.0
H600 H 0.95832 0.17183 0.72474 0.0
H601 H 0.96965 0.16721 0.82976 0.0
C602 C 0.45895 0.96919 0.34746 0.0
C603 C 0.43141 0.98413 0.32503 0.0
C604 C 0.43033 0.9555 0.19307 0.0
C605 C 0.45993 0.94433 0.21035 0.0
N606 N 0.50356 0.94138 0.30063 0.0
N607 N 0.39098 0.99265 0.22648 0.0
C608 C 0.47447 0.95125 0.28689 0.0
C609 C 0.41686 0.97731 0.24817 0.0
N610 N 0.4697 0.97116 0.42771 0.0
N611 N 0.41529 0.9452 0.12391 0.0
H612 H 0.38061 0.00867 0.2657 0.0
H613 H 0.38088 0.99112 0.16776 0.0
H614 H 0.42473 0.92915 0.08302 0.0
H615 H 0.39273 0.95045 0.11075 0.0
H616 H 0.48779 0.95819 0.44999 0.0
H617 H 0.45881 0.98348 0.47503 0.0
H618 H 0.51692 0.94917 0.34982 0.0
H619 H 0.51503 0.92658 0.26002 0.0
C620 C 0.529 0.41633 0.7566 0.0
C621 C 0.50752 0.43394 0.80317 0.0
C622 C 0.52347 0.47994 0.72943 0.0
C623 C 0.54678 0.46331 0.68733 0.0
N624 N 0.56635 0.41455 0.64266 0.0
N625 N 0.47367 0.47697 0.79399 0.0
C626 C 0.54803 0.43104 0.69549 0.0
C627 C 0.50118 0.46395 0.77614 0.0
N628 N 0.53054 0.38561 0.7693 0.0
N629 N 0.52349 0.51109 0.72959 0.0
H630 H 0.456 0.46456 0.82175 0.0
H631 H 0.46729 0.49831 0.77125 0.0
H632 H 0.54067 0.52415 0.70202 0.0
H633 H 0.50823 0.52388 0.76551 0.0
H634 H 0.54819 0.37185 0.74747 0.0
H635 H 0.51321 0.37376 0.80017 0.0
H636 H 0.56684 0.39088 0.6406 0.0
H637 H 0.57972 0.42462 0.59593 0.0
C638 C 0.09479 0.52183 0.2461 0.0
C639 C 0.09412 0.53148 0.33079 0.0
C640 C 0.0749 0.58155 0.28738 0.0
C641 C 0.06858 0.5692 0.20761 0.0
N642 N 0.07836 0.53116 0.10271 0.0
N643 N 0.08331 0.57082 0.43386 0.0
C644 C 0.08086 0.5405 0.18413 0.0
C645 C 0.08498 0.56173 0.35182 0.0
N646 N 0.1084 0.49476 0.22601 0.0
N647 N 0.07097 0.61197 0.30207 0.0
H648 H 0.0904 0.55757 0.48426 0.0
H649 H 0.07272 0.59091 0.45305 0.0
H650 H 0.06436 0.62731 0.2558 0.0
H651 H 0.07791 0.62265 0.35703 0.0
H652 H 0.111 0.48661 0.1651 0.0
H653 H 0.11897 0.48113 0.27101 0.0
H654 H 0.08372 0.5094 0.08146 0.0
H655 H 0.07071 0.54587 0.05575 0.0
C656 C 0.92769 0.62363 0.39417 0.0
C657 C 0.90297 0.603 0.39283 0.0
C658 C 0.89701 0.6116 0.24263 0.0
C659 C 0.92695 0.62354 0.24048 0.0
N660 N 0.96494 0.65271 0.31318 0.0
N661 N 0.85465 0.59359 0.32893 0.0
C662 C 0.94012 0.63412 0.31627 0.0
C663 C 0.88421 0.60262 0.32111 0.0
N664 N 0.93878 0.63281 0.46979 0.0
N665 N 0.88211 0.60704 0.1689 0.0
H666 H 0.84508 0.58881 0.38771 0.0
H667 H 0.83917 0.59383 0.27982 0.0
H668 H 0.89114 0.61474 0.11182 0.0
H669 H 0.86152 0.59551 0.16415 0.0
H670 H 0.95671 0.64797 0.47721 0.0
H671 H 0.9281 0.62649 0.52598 0.0
H672 H 0.97763 0.65894 0.36522 0.0
H673 H 0.972 0.66325 0.25772 0.0
C674 C 0.91479 0.94242 0.76099 0.0
C675 C 0.91208 0.97116 0.80073 0.0
C676 C 0.94977 0.95623 0.90536 0.0
C677 C 0.9564 0.9301 0.85668 0.0
N678 N 0.93796 0.89204 0.76125 0.0
N679 N 0.91815 1.00138 0.92467 0.0
C680 C 0.93608 0.92087 0.79286 0.0
C681 C 0.92636 0.97638 0.87879 0.0
N682 N 0.89896 0.93688 0.68919 0.0
N683 N 0.96722 0.96231 0.97383 0.0
H684 H 0.90085 0.01603 0.90494 0.0
H685 H 0.92666 0.00642 0.98381 0.0
H686 H 0.98316 0.94657 -0.00429 0.0
H687 H 0.96613 0.98241 0.00823 0.0
H688 H 0.90263 0.91807 0.65074 0.0
H689 H 0.8824 0.95181 0.6669 0.0
H690 H 0.92271 0.88315 0.7181 0.0
H691 H 0.95308 0.87589 0.78477 0.0
C692 C 0.59211 0.88429 0.20304 0.0
C693 C 0.59672 0.90206 0.12993 0.0
C694 C 0.6304 0.93543 0.20962 0.0
C695 C 0.61508 0.92558 0.2834 0.0
N696 N 0.59079 0.88413 0.35582 0.0
N697 N 0.63078 0.9356 0.05638 0.0
C698 C 0.59964 0.89726 0.28193 0.0
C699 C 0.61997 0.92442 0.13075 0.0
N700 N 0.58035 0.8557 0.19621 0.0
N701 N 0.6543 0.95507 0.21558 0.0
H702 H 0.62451 0.92585 -0.00073 0.0
H703 H 0.64564 0.95395 0.05119 0.0
H704 H 0.66352 0.96091 0.27351 0.0
H705 H 0.66687 0.96286 0.16432 0.0
H706 H 0.57734 0.84097 0.24689 0.0
H707 H 0.57667 0.84584 0.13752 0.0
H708 H 0.57667 0.86515 0.35982 0.0
H709 H 0.59764 0.89301 0.41348 0.0
C710 C 0.59344 0.61952 0.66083 0.0
C711 C 0.61413 0.59469 0.66267 0.0
C712 C 0.61571 0.59728 0.81536 0.0
C713 C 0.58883 0.61516 0.81336 0.0
N714 N 0.56375 0.65637 0.74165 0.0
N715 N 0.65769 0.57514 0.73542 0.0
C716 C 0.58159 0.63093 0.73829 0.0
C717 C 0.6298 0.58877 0.73824 0.0
N718 N 0.5849 0.63128 0.58526 0.0
N719 N 0.62648 0.58735 0.8907 0.0
H720 H 0.66873 0.57088 0.67832 0.0
H721 H 0.671 0.57126 0.78818 0.0
H722 H 0.61709 0.59499 0.94736 0.0
H723 H 0.64399 0.57151 0.8968 0.0
H724 H 0.5677 0.64734 0.57767 0.0
H725 H 0.59578 0.62475 0.52957 0.0
H726 H 0.55786 0.66929 0.68943 0.0
H727 H 0.55764 0.66645 0.79857 0.0
C728 C 0.13276 0.41269 0.74887 0.0
C729 C 0.11679 0.40578 0.6745 0.0
C730 C 0.08437 0.37109 0.75564 0.0
C731 C 0.09173 0.38818 0.82825 0.0
N732 N 0.12974 0.41697 0.90092 0.0
N733 N 0.08671 0.36859 0.60269 0.0
C734 C 0.11875 0.40578 0.82733 0.0
C735 C 0.09592 0.3812 0.67643 0.0
N736 N 0.16073 0.42598 0.74354 0.0
N737 N 0.0668 0.34563 0.76292 0.0
H738 H 0.09716 0.37439 0.54574 0.0
H739 H 0.06923 0.35274 0.59791 0.0
H740 H 0.06093 0.33654 0.82136 0.0
H741 H 0.0611 0.3317 0.71267 0.0
H742 H 0.17425 0.43053 0.7954 0.0
H743 H 0.17148 0.42937 0.68555 0.0
H744 H 0.14737 0.43273 0.90432 0.0
H745 H 0.12046 0.41043 0.95878 0.0
C746 C 0.05142 0.02017 0.04151 0.0
C747 C 0.05047 0.04817 0.08555 0.0
C748 C 0.09119 0.02795 0.17506 0.0
C749 C 0.08464 0.99776 0.14758 0.0
N750 N 0.0511 0.96617 0.06295 0.0
N751 N 0.0706 0.07811 0.20102 0.0
C752 C 0.06297 0.99403 0.08225 0.0
C753 C 0.07087 0.05217 0.15391 0.0
N754 N 0.04021 0.01829 0.962 0.0
N755 N 0.11732 0.03403 0.2177 0.0
H756 H 0.0576 0.09723 0.1874 0.0
H757 H 0.0825 0.07989 0.2572 0.0
H758 H 0.13432 0.01782 0.22694 0.0
H759 H 0.12395 0.0561 0.23327 0.0
H760 H 0.0421 0.99857 0.92581 0.0
H761 H 0.0325 0.03751 0.92969 0.0
H762 H 0.03449 0.96338 0.01729 0.0
H763 H 0.05398 0.94683 0.09993 0.0
C764 C 0.35823 0.09169 0.73776 0.0
C765 C 0.37352 0.10064 0.66317 0.0
C766 C 0.40047 0.13953 0.74315 0.0
C767 C 0.3953 0.12169 0.81603 0.0
N768 N 0.35935 0.09038 0.89071 0.0
N769 N 0.39961 0.14084 0.5903 0.0
C770 C 0.3704 0.10115 0.81617 0.0
C771 C 0.39097 0.12776 0.66442 0.0
N772 N 0.33244 0.07464 0.7327 0.0
N773 N 0.41437 0.16716 0.75002 0.0
H774 H 0.39123 0.13295 0.5331 0.0
H775 H 0.41495 0.15881 0.58558 0.0
H776 H 0.41932 0.17649 0.80862 0.0
H777 H 0.41794 0.1819 0.69965 0.0
H778 H 0.31961 0.06774 0.78448 0.0
H779 H 0.32223 0.07043 0.67497 0.0
H780 H 0.34335 0.073 0.89588 0.0
H781 H 0.36646 0.09947 0.94785 0.0
C782 C 0.40019 0.39955 0.22662 0.0
C783 C 0.42999 0.38721 0.22337 0.0
C784 C 0.43098 0.38515 0.37697 0.0
C785 C 0.40571 0.40528 0.378 0.0
N786 N 0.35718 0.41452 0.31464 0.0
N787 N 0.46541 0.35379 0.29278 0.0
C788 C 0.38703 0.40655 0.3061 0.0
C789 C 0.44266 0.37491 0.29794 0.0
N790 N 0.38545 0.40591 0.15357 0.0
N791 N 0.44369 0.37651 0.45119 0.0
H792 H 0.47179 0.34385 0.23595 0.0
H793 H 0.47568 0.34371 0.34447 0.0
H794 H 0.43312 0.38142 0.50856 0.0
H795 H 0.4639 0.36431 0.45628 0.0
H796 H 0.3651 0.41802 0.15064 0.0
H797 H 0.39436 0.39923 0.09543 0.0
H798 H 0.3418 0.41455 0.26523 0.0
H799 H 0.34734 0.41789 0.37381 0.0
loop_
_geom_bond_atom_site_label_1
_geom_bond_atom_site_label_2
_geom_bond_distance
_geom_bond_site_symmetry_2
_ccdc_geom_bond_type
Zn0 O3 2.031 1_455 S
Zn0 O5 2.049 1_554 S
Zn0 O10 2.067 . S
Zn1 O2 1.962 1_455 S
Zn1 O4 1.986 1_554 S
Zn1 O6 1.996 1_554 S
Zn1 O9 1.943 . S
O2 Zn1 1.962 1_655 S
O2 C7 1.254 . S
O3 Zn0 2.031 1_655 S
O3 C7 1.269 . S
O4 Zn1 1.986 1_556 S
O4 C11 1.263 1_556 S
O5 Zn0 2.049 1_556 S
O5 C13 1.260 . S
O6 Zn1 1.996 1_556 S
O6 C13 1.257 . S
C7 O2 1.254 . S
C7 O3 1.269 . S
C8 O9 1.249 . S
C8 O10 1.270 . S
O9 Zn1 1.943 . S
O9 C8 1.249 . S
O10 Zn0 2.067 . S
O10 C8 1.270 . S
C11 O4 1.263 1_554 S
C11 O12 1.232 1_455 S
O12 C11 1.232 1_655 S
C13 O5 1.260 . S
C13 O6 1.257 . S
Zn14 O17 2.031 1_545 S
Zn14 O19 2.049 . S
Zn14 O24 2.067 . S
Zn15 O16 1.962 1_545 S
Zn15 O18 1.986 . S
Zn15 O20 1.996 . S
Zn15 O23 1.943 . S
O16 Zn15 1.962 1_565 S
O16 C21 1.254 . S
O17 Zn14 2.031 1_565 S
O17 C21 1.269 . S
O18 Zn15 1.986 . S
O18 C25 1.262 . S
O19 Zn14 2.049 . S
O19 C27 1.260 . S
O20 Zn15 1.996 . S
O20 C27 1.257 . S
C21 O16 1.254 . S
C21 O17 1.269 . S
C22 O23 1.249 . S
C22 O24 1.270 . S
O23 Zn15 1.943 . S
O23 C22 1.249 . S
O24 Zn14 2.067 . S
O24 C22 1.270 . S
C25 O18 1.262 . S
C25 O26 1.232 1_545 S
O26 C25 1.232 1_565 S
C27 O19 1.260 . S
C27 O20 1.257 . S
Zn28 O31 2.031 . S
Zn28 O33 2.049 1_554 S
Zn28 O38 2.067 . S
Zn29 O30 1.962 . S
Zn29 O32 1.986 1_554 S
Zn29 O34 1.996 1_554 S
Zn29 O37 1.943 . S
O30 Zn29 1.962 . S
O30 C35 1.254 . S
O31 Zn28 2.031 . S
O31 C35 1.269 . S
O32 Zn29 1.986 1_556 S
O32 C39 1.263 1_556 S
O33 Zn28 2.049 1_556 S
O33 C41 1.260 . S
O34 Zn29 1.996 1_556 S
O34 C41 1.257 . S
C35 O30 1.254 . S
C35 O31 1.269 . S
C36 O37 1.249 . S
C36 O38 1.270 . S
O37 Zn29 1.943 . S
O37 C36 1.249 . S
O38 Zn28 2.067 . S
O38 C36 1.270 . S
C39 O32 1.263 1_554 S
C39 O40 1.232 . S
O40 C39 1.232 . S
C41 O33 1.260 . S
C41 O34 1.257 . S
Zn42 O45 2.031 . S
Zn42 O47 2.049 . S
Zn42 O52 2.067 . S
Zn43 O44 1.962 . S
Zn43 O46 1.986 . S
Zn43 O48 1.996 . S
Zn43 O51 1.943 . S
O44 Zn43 1.962 . S
O44 C49 1.254 . S
O45 Zn42 2.031 . S
O45 C49 1.269 . S
O46 Zn43 1.986 . S
O46 C53 1.262 . S
O47 Zn42 2.049 . S
O47 C55 1.260 . S
O48 Zn43 1.996 . S
O48 C55 1.257 . S
C49 O44 1.254 . S
C49 O45 1.269 . S
C50 O51 1.249 . S
C50 O52 1.270 . S
O51 Zn43 1.943 . S
O51 C50 1.249 . S
O52 Zn42 2.067 . S
O52 C50 1.270 . S
C53 O46 1.262 . S
C53 O54 1.232 . S
O54 C53 1.232 . S
C55 O47 1.260 . S
C55 O48 1.257 . S
Zn56 O59 2.031 1_455 S
Zn56 O61 2.049 1_556 S
Zn56 O66 2.067 . S
Zn57 O58 1.962 1_455 S
Zn57 O60 1.985 . S
Zn57 O62 1.996 1_556 S
Zn57 O65 1.943 . S
O58 Zn57 1.962 1_655 S
O58 C63 1.254 . S
O59 Zn56 2.031 1_655 S
O59 C63 1.269 . S
O60 Zn57 1.985 . S
O60 C67 1.261 . S
O61 Zn56 2.049 1_554 S
O61 C69 1.260 . S
O62 Zn57 1.996 1_554 S
O62 C69 1.257 . S
C63 O58 1.254 . S
C63 O59 1.269 . S
C64 O65 1.249 . S
C64 O66 1.270 . S
O65 Zn57 1.943 . S
O65 C64 1.249 . S
O66 Zn56 2.067 . S
O66 C64 1.270 . S
C67 O60 1.261 . S
C67 O68 1.232 1_455 S
O68 C67 1.232 1_655 S
C69 O61 1.260 . S
C69 O62 1.257 . S
Zn70 O73 2.031 1_545 S
Zn70 O75 2.049 . S
Zn70 O80 2.067 . S
Zn71 O72 1.962 1_545 S
Zn71 O74 1.986 . S
Zn71 O76 1.996 . S
Zn71 O79 1.943 . S
O72 Zn71 1.962 1_565 S
O72 C77 1.254 . S
O73 Zn70 2.031 1_565 S
O73 C77 1.269 . S
O74 Zn71 1.986 . S
O74 C81 1.262 . S
O75 Zn70 2.049 . S
O75 C83 1.260 . S
O76 Zn71 1.996 . S
O76 C83 1.257 . S
C77 O72 1.254 . S
C77 O73 1.269 . S
C78 O79 1.249 . S
C78 O80 1.270 . S
O79 Zn71 1.943 . S
O79 C78 1.249 . S
O80 Zn70 2.067 . S
O80 C78 1.270 . S
C81 O74 1.262 . S
C81 O82 1.232 1_545 S
O82 C81 1.232 1_565 S
C83 O75 1.260 . S
C83 O76 1.257 . S
Zn84 O87 2.031 . S
Zn84 O89 2.049 1_556 S
Zn84 O94 2.067 . S
Zn85 O86 1.962 . S
Zn85 O88 1.985 . S
Zn85 O90 1.996 1_556 S
Zn85 O93 1.943 . S
O86 Zn85 1.962 . S
O86 C91 1.254 . S
O87 Zn84 2.031 . S
O87 C91 1.269 . S
O88 Zn85 1.985 . S
O88 C95 1.261 . S
O89 Zn84 2.049 1_554 S
O89 C97 1.260 . S
O90 Zn85 1.996 1_554 S
O90 C97 1.257 . S
C91 O86 1.254 . S
C91 O87 1.269 . S
C92 O93 1.249 . S
C92 O94 1.270 . S
O93 Zn85 1.943 . S
O93 C92 1.249 . S
O94 Zn84 2.067 . S
O94 C92 1.270 . S
C95 O88 1.261 . S
C95 O96 1.232 . S
O96 C95 1.232 . S
C97 O89 1.260 . S
C97 O90 1.257 . S
Zn98 O101 2.031 . S
Zn98 O103 2.049 . S
Zn98 O108 2.067 . S
Zn99 O100 1.962 . S
Zn99 O102 1.986 . S
Zn99 O104 1.996 . S
Zn99 O107 1.943 . S
O100 Zn99 1.962 . S
O100 C105 1.254 . S
O101 Zn98 2.031 . S
O101 C105 1.269 . S
O102 Zn99 1.986 . S
O102 C109 1.262 . S
O103 Zn98 2.049 . S
O103 C111 1.260 . S
O104 Zn99 1.996 . S
O104 C111 1.257 . S
C105 O100 1.254 . S
C105 O101 1.269 . S
C106 O107 1.249 . S
C106 O108 1.270 . S
O107 Zn99 1.943 . S
O107 C106 1.249 . S
O108 Zn98 2.067 . S
O108 C106 1.270 . S
C109 O102 1.262 . S
C109 O110 1.232 . S
O110 C109 1.232 . S
C111 O103 1.260 . S
C111 O104 1.257 . S
Zn112 O115 2.031 1_655 S
Zn112 O117 2.049 1_556 S
Zn112 O122 2.067 . S
Zn113 O114 1.962 1_655 S
Zn113 O116 1.986 1_556 S
Zn113 O118 1.996 1_556 S
Zn113 O121 1.943 . S
O114 Zn113 1.962 1_455 S
O114 C119 1.254 . S
O115 Zn112 2.031 1_455 S
O115 C119 1.269 . S
O116 Zn113 1.986 1_554 S
O116 C123 1.263 1_554 S
O117 Zn112 2.049 1_554 S
O117 C125 1.260 . S
O118 Zn113 1.996 1_554 S
O118 C125 1.257 . S
C119 O114 1.254 . S
C119 O115 1.269 . S
C120 O121 1.249 . S
C120 O122 1.270 . S
O121 Zn113 1.943 . S
O121 C120 1.249 . S
O122 Zn112 2.067 . S
O122 C120 1.270 . S
C123 O116 1.263 1_556 S
C123 O124 1.232 1_655 S
O124 C123 1.232 1_455 S
C125 O117 1.260 . S
C125 O118 1.257 . S
Zn126 O129 2.031 1_565 S
Zn126 O131 2.049 . S
Zn126 O136 2.067 . S
Zn127 O128 1.962 1_565 S
Zn127 O130 1.986 . S
Zn127 O132 1.996 . S
Zn127 O135 1.943 . S
O128 Zn127 1.962 1_545 S
O128 C133 1.254 . S
O129 Zn126 2.031 1_545 S
O129 C133 1.269 . S
O130 Zn127 1.986 . S
O130 C137 1.262 . S
O131 Zn126 2.049 . S
O131 C139 1.260 . S
O132 Zn127 1.996 . S
O132 C139 1.257 . S
C133 O128 1.254 . S
C133 O129 1.269 . S
C134 O135 1.249 . S
C134 O136 1.270 . S
O135 Zn127 1.943 . S
O135 C134 1.249 . S
O136 Zn126 2.067 . S
O136 C134 1.270 . S
C137 O130 1.262 . S
C137 O138 1.232 1_565 S
O138 C137 1.232 1_545 S
C139 O131 1.260 . S
C139 O132 1.257 . S
Zn140 O143 2.031 . S
Zn140 O145 2.049 1_556 S
Zn140 O150 2.067 . S
Zn141 O142 1.962 . S
Zn141 O144 1.986 1_556 S
Zn141 O146 1.996 1_556 S
Zn141 O149 1.943 . S
O142 Zn141 1.962 . S
O142 C147 1.254 . S
O143 Zn140 2.031 . S
O143 C147 1.269 . S
O144 Zn141 1.986 1_554 S
O144 C151 1.263 1_554 S
O145 Zn140 2.049 1_554 S
O145 C153 1.260 . S
O146 Zn141 1.996 1_554 S
O146 C153 1.257 . S
C147 O142 1.254 . S
C147 O143 1.269 . S
C148 O149 1.249 . S
C148 O150 1.270 . S
O149 Zn141 1.943 . S
O149 C148 1.249 . S
O150 Zn140 2.067 . S
O150 C148 1.270 . S
C151 O144 1.263 1_556 S
C151 O152 1.232 . S
O152 C151 1.232 . S
C153 O145 1.260 . S
C153 O146 1.257 . S
Zn154 O157 2.031 . S
Zn154 O159 2.049 . S
Zn154 O164 2.067 . S
Zn155 O156 1.962 . S
Zn155 O158 1.986 . S
Zn155 O160 1.996 . S
Zn155 O163 1.943 . S
O156 Zn155 1.962 . S
O156 C161 1.254 . S
O157 Zn154 2.031 . S
O157 C161 1.269 . S
O158 Zn155 1.986 . S
O158 C165 1.262 . S
O159 Zn154 2.049 . S
O159 C167 1.260 . S
O160 Zn155 1.996 . S
O160 C167 1.257 . S
C161 O156 1.254 . S
C161 O157 1.269 . S
C162 O163 1.249 . S
C162 O164 1.270 . S
O163 Zn155 1.943 . S
O163 C162 1.249 . S
O164 Zn154 2.067 . S
O164 C162 1.270 . S
C165 O158 1.262 . S
C165 O166 1.232 . S
O166 C165 1.232 . S
C167 O159 1.260 . S
C167 O160 1.257 . S
Zn168 O171 2.031 1_655 S
Zn168 O173 2.049 1_554 S
Zn168 O178 2.067 . S
Zn169 O170 1.962 1_655 S
Zn169 O172 1.985 . S
Zn169 O174 1.996 1_554 S
Zn169 O177 1.943 . S
O170 Zn169 1.962 1_455 S
O170 C175 1.254 . S
O171 Zn168 2.031 1_455 S
O171 C175 1.269 . S
O172 Zn169 1.985 . S
O172 C179 1.261 . S
O173 Zn168 2.049 1_556 S
O173 C181 1.260 . S
O174 Zn169 1.996 1_556 S
O174 C181 1.257 . S
C175 O170 1.254 . S
C175 O171 1.269 . S
C176 O177 1.249 . S
C176 O178 1.270 . S
O177 Zn169 1.943 . S
O177 C176 1.249 . S
O178 Zn168 2.067 . S
O178 C176 1.270 . S
C179 O172 1.261 . S
C179 O180 1.232 1_655 S
O180 C179 1.232 1_455 S
C181 O173 1.260 . S
C181 O174 1.257 . S
Zn182 O185 2.031 1_565 S
Zn182 O187 2.049 . S
Zn182 O192 2.067 . S
Zn183 O184 1.962 1_565 S
Zn183 O186 1.986 . S
Zn183 O188 1.996 . S
Zn183 O191 1.943 . S
O184 Zn183 1.962 1_545 S
O184 C189 1.254 . S
O185 Zn182 2.031 1_545 S
O185 C189 1.269 . S
O186 Zn183 1.986 . S
O186 C193 1.262 . S
O187 Zn182 2.049 . S
O187 C195 1.260 . S
O188 Zn183 1.996 . S
O188 C195 1.257 . S
C189 O184 1.254 . S
C189 O185 1.269 . S
C190 O191 1.249 . S
C190 O192 1.270 . S
O191 Zn183 1.943 . S
O191 C190 1.249 . S
O192 Zn182 2.067 . S
O192 C190 1.270 . S
C193 O186 1.262 . S
C193 O194 1.232 1_565 S
O194 C193 1.232 1_545 S
C195 O187 1.260 . S
C195 O188 1.257 . S
Zn196 O199 2.031 . S
Zn196 O201 2.049 1_554 S
Zn196 O206 2.067 . S
Zn197 O198 1.962 . S
Zn197 O200 1.985 . S
Zn197 O202 1.996 1_554 S
Zn197 O205 1.943 . S
O198 Zn197 1.962 . S
O198 C203 1.254 . S
O199 Zn196 2.031 . S
O199 C203 1.269 . S
O200 Zn197 1.985 . S
O200 C207 1.261 . S
O201 Zn196 2.049 1_556 S
O201 C209 1.260 . S
O202 Zn197 1.996 1_556 S
O202 C209 1.257 . S
C203 O198 1.254 . S
C203 O199 1.269 . S
C204 O205 1.249 . S
C204 O206 1.270 . S
O205 Zn197 1.943 . S
O205 C204 1.249 . S
O206 Zn196 2.067 . S
O206 C204 1.270 . S
C207 O200 1.261 . S
C207 O208 1.232 . S
O208 C207 1.232 . S
C209 O201 1.260 . S
C209 O202 1.257 . S
Zn210 O213 2.031 . S
Zn210 O215 2.049 . S
Zn210 O220 2.067 . S
Zn211 O212 1.962 . S
Zn211 O214 1.986 . S
Zn211 O216 1.996 . S
Zn211 O219 1.943 . S
O212 Zn211 1.962 . S
O212 C217 1.254 . S
O213 Zn210 2.031 . S
O213 C217 1.269 . S
O214 Zn211 1.986 . S
O214 C221 1.262 . S
O215 Zn210 2.049 . S
O215 C223 1.260 . S
O216 Zn211 1.996 . S
O216 C223 1.257 . S
C217 O212 1.254 . S
C217 O213 1.269 . S
C218 O219 1.249 . S
C218 O220 1.270 . S
O219 Zn211 1.943 . S
O219 C218 1.249 . S
O220 Zn210 2.067 . S
O220 C218 1.270 . S
C221 O214 1.262 . S
C221 O222 1.232 . S
O222 C221 1.232 . S
C223 O215 1.260 . S
C223 O216 1.257 . S
C224 C225 1.363 1_556 S
C224 C230 1.379 . S
C224 N232 1.356 . S
C225 C224 1.363 1_554 S
C225 C231 1.363 1_455 S
C226 C227 1.363 1_654 S
C226 C231 1.379 . S
C226 N233 1.356 . S
C227 C226 1.363 1_456 S
C227 C230 1.363 . S
N228 C230 1.356 . S
N228 H240 0.984 . S
N228 H241 0.985 . S
N229 C231 1.356 . S
N229 H234 0.984 . S
N229 H235 0.985 . S
C230 C224 1.379 . S
C230 C227 1.363 . S
C230 N228 1.356 . S
C231 C225 1.363 1_655 S
C231 C226 1.379 . S
C231 N229 1.356 . S
N232 C224 1.356 . S
N232 H238 0.984 . S
N232 H239 0.984 1_556 S
N233 C226 1.356 . S
N233 H236 0.984 1_554 S
N233 H237 0.985 . S
H234 N229 0.984 . S
H235 N229 0.985 . S
H236 N233 0.984 1_556 S
H237 N233 0.985 . S
H238 N232 0.984 . S
H239 N232 0.984 1_554 S
H240 N228 0.984 . S
H241 N228 0.985 . S
C242 C243 1.363 . S
C242 C248 1.379 . S
C242 N250 1.356 . S
C243 C242 1.363 . S
C243 C249 1.363 1_545 S
C244 C245 1.363 1_565 S
C244 C249 1.379 . S
C244 N251 1.356 . S
C245 C244 1.363 1_545 S
C245 C248 1.363 . S
N246 C248 1.356 . S
N246 H258 0.984 . S
N246 H259 0.985 . S
N247 C249 1.356 . S
N247 H252 0.984 . S
N247 H253 0.985 . S
C248 C242 1.379 . S
C248 C245 1.363 . S
C248 N246 1.356 . S
C249 C243 1.363 1_565 S
C249 C244 1.379 . S
C249 N247 1.356 . S
N250 C242 1.356 . S
N250 H256 0.984 . S
N250 H257 0.984 . S
N251 C244 1.356 . S
N251 H254 0.984 . S
N251 H255 0.985 . S
H252 N247 0.984 . S
H253 N247 0.985 . S
H254 N251 0.984 . S
H255 N251 0.985 . S
H256 N250 0.984 . S
H257 N250 0.984 . S
H258 N246 0.984 . S
H259 N246 0.985 . S
C260 C261 1.363 1_556 S
C260 C266 1.379 . S
C260 N268 1.356 . S
C261 C260 1.363 1_554 S
C261 C267 1.363 . S
C262 C263 1.363 1_554 S
C262 C267 1.379 . S
C262 N269 1.356 . S
C263 C262 1.363 1_556 S
C263 C266 1.363 . S
N264 C266 1.356 . S
N264 H276 0.984 . S
N264 H277 0.985 . S
N265 C267 1.356 . S
N265 H270 0.984 . S
N265 H271 0.985 . S
C266 C260 1.379 . S
C266 C263 1.363 . S
C266 N264 1.356 . S
C267 C261 1.363 . S
C267 C262 1.379 . S
C267 N265 1.356 . S
N268 C260 1.356 . S
N268 H274 0.984 . S
N268 H275 0.984 . S
N269 C262 1.356 . S
N269 H272 0.984 . S
N269 H273 0.985 . S
H270 N265 0.984 . S
H271 N265 0.985 . S
H272 N269 0.984 . S
H273 N269 0.985 . S
H274 N268 0.984 . S
H275 N268 0.984 . S
H276 N264 0.984 . S
H277 N264 0.985 . S
C278 C279 1.363 . S
C278 C284 1.379 . S
C278 N286 1.356 . S
C279 C278 1.363 . S
C279 C285 1.363 . S
C280 C281 1.363 . S
C280 C285 1.379 . S
C280 N287 1.356 . S
C281 C280 1.363 . S
C281 C284 1.363 . S
N282 C284 1.356 . S
N282 H294 0.984 . S
N282 H295 0.985 . S
N283 C285 1.356 . S
N283 H288 0.984 . S
N283 H289 0.985 . S
C284 C278 1.379 . S
C284 C281 1.363 . S
C284 N282 1.356 . S
C285 C279 1.363 . S
C285 C280 1.379 . S
C285 N283 1.356 . S
N286 C278 1.356 . S
N286 H292 0.984 . S
N286 H293 0.984 . S
N287 C280 1.356 . S
N287 H290 0.984 . S
N287 H291 0.985 . S
H288 N283 0.984 . S
H289 N283 0.985 . S
H290 N287 0.984 . S
H291 N287 0.985 . S
H292 N286 0.984 . S
H293 N286 0.984 . S
H294 N282 0.984 . S
H295 N282 0.985 . S
C296 C297 1.363 1_454 S
C296 C302 1.379 . S
C296 N304 1.356 . S
C297 C296 1.363 1_656 S
C297 C303 1.363 . S
C298 C299 1.363 1_556 S
C298 C303 1.379 . S
C298 N305 1.356 . S
C299 C298 1.363 1_554 S
C299 C302 1.363 1_655 S
N300 C302 1.356 . S
N300 H312 0.984 . S
N300 H313 0.985 . S
N301 C303 1.356 . S
N301 H306 0.984 . S
N301 H307 0.985 . S
C302 C296 1.379 . S
C302 C299 1.363 1_455 S
C302 N300 1.356 . S
C303 C297 1.363 . S
C303 C298 1.379 . S
C303 N301 1.356 . S
N304 C296 1.356 . S
N304 H310 0.984 . S
N304 H311 0.984 . S
N305 C298 1.356 . S
N305 H308 0.984 . S
N305 H309 0.985 . S
H306 N301 0.984 . S
H307 N301 0.985 . S
H308 N305 0.984 . S
H309 N305 0.985 . S
H310 N304 0.984 . S
H311 N304 0.984 . S
H312 N300 0.984 . S
H313 N300 0.985 . S
C314 C315 1.363 . S
C314 C320 1.379 . S
C314 N322 1.356 . S
C315 C314 1.363 . S
C315 C321 1.363 1_565 S
C316 C317 1.363 1_545 S
C316 C321 1.379 . S
C316 N323 1.356 . S
C317 C316 1.363 1_565 S
C317 C320 1.363 . S
N318 C320 1.356 . S
N318 H330 0.984 . S
N318 H331 0.985 . S
N319 C321 1.356 . S
N319 H324 0.984 . S
N319 H325 0.985 . S
C320 C314 1.379 . S
C320 C317 1.363 . S
C320 N318 1.356 . S
C321 C315 1.363 1_545 S
C321 C316 1.379 . S
C321 N319 1.356 . S
N322 C314 1.356 . S
N322 H328 0.984 . S
N322 H329 0.984 . S
N323 C316 1.356 . S
N323 H326 0.984 . S
N323 H327 0.985 . S
H324 N319 0.984 . S
H325 N319 0.985 . S
H326 N323 0.984 . S
H327 N323 0.985 . S
H328 N322 0.984 . S
H329 N322 0.984 . S
H330 N318 0.984 . S
H331 N318 0.985 . S
C332 C333 1.363 1_554 S
C332 C338 1.379 . S
C332 N340 1.356 . S
C333 C332 1.363 1_556 S
C333 C339 1.363 . S
C334 C335 1.363 1_556 S
C334 C339 1.379 . S
C334 N341 1.356 . S
C335 C334 1.363 1_554 S
C335 C338 1.363 . S
N336 C338 1.356 . S
N336 H348 0.984 . S
N336 H349 0.985 . S
N337 C339 1.356 . S
N337 H342 0.984 . S
N337 H343 0.985 . S
C338 C332 1.379 . S
C338 C335 1.363 . S
C338 N336 1.356 . S
C339 C333 1.363 . S
C339 C334 1.379 . S
C339 N337 1.356 . S
N340 C332 1.356 . S
N340 H346 0.984 . S
N340 H347 0.984 . S
N341 C334 1.356 . S
N341 H344 0.984 . S
N341 H345 0.985 . S
H342 N337 0.984 . S
H343 N337 0.985 . S
H344 N341 0.984 . S
H345 N341 0.985 . S
H346 N340 0.984 . S
H347 N340 0.984 . S
H348 N336 0.984 . S
H349 N336 0.985 . S
C350 C351 1.363 . S
C350 C356 1.379 . S
C350 N358 1.356 . S
C351 C350 1.363 . S
C351 C357 1.363 . S
C352 C353 1.363 . S
C352 C357 1.379 . S
C352 N359 1.356 . S
C353 C352 1.363 . S
C353 C356 1.363 . S
N354 C356 1.356 . S
N354 H366 0.984 . S
N354 H367 0.985 . S
N355 C357 1.356 . S
N355 H360 0.984 . S
N355 H361 0.985 . S
C356 C350 1.379 . S
C356 C353 1.363 . S
C356 N354 1.356 . S
C357 C351 1.363 . S
C357 C352 1.379 . S
C357 N355 1.356 . S
N358 C350 1.356 . S
N358 H364 0.984 . S
N358 H365 0.984 . S
N359 C352 1.356 . S
N359 H362 0.984 . S
N359 H363 0.985 . S
H360 N355 0.984 . S
H361 N355 0.985 . S
H362 N359 0.984 . S
H363 N359 0.985 . S
H364 N358 0.984 . S
H365 N358 0.984 . S
H366 N354 0.984 . S
H367 N354 0.985 . S
C368 C369 1.363 . S
C368 C374 1.379 . S
C368 N376 1.356 . S
C369 C368 1.363 . S
C369 C375 1.363 . S
C370 C371 1.363 . S
C370 C375 1.379 . S
C370 N377 1.356 . S
C371 C370 1.363 . S
C371 C374 1.363 . S
N372 C374 1.356 . S
N372 H384 0.984 . S
N372 H385 0.985 . S
N373 C375 1.356 . S
N373 H378 0.984 . S
N373 H379 0.985 . S
C374 C368 1.379 . S
C374 C371 1.363 . S
C374 N372 1.356 . S
C375 C369 1.363 . S
C375 C370 1.379 . S
C375 N373 1.356 . S
N376 C368 1.356 . S
N376 H382 0.984 . S
N376 H383 0.984 . S
N377 C370 1.356 . S
N377 H380 0.984 . S
N377 H381 0.985 . S
H378 N373 0.984 . S
H379 N373 0.985 . S
H380 N377 0.984 . S
H381 N377 0.985 . S
H382 N376 0.984 . S
H383 N376 0.984 . S
H384 N372 0.984 . S
H385 N372 0.985 . S
C386 C387 1.363 . S
C386 C392 1.379 . S
C386 N394 1.356 . S
C387 C386 1.363 . S
C387 C393 1.363 . S
C388 C389 1.363 . S
C388 C393 1.379 . S
C388 N395 1.356 . S
C389 C388 1.363 . S
C389 C392 1.363 . S
N390 C392 1.356 . S
N390 H402 0.984 . S
N390 H403 0.985 . S
N391 C393 1.356 . S
N391 H396 0.984 . S
N391 H397 0.985 . S
C392 C386 1.379 . S
C392 C389 1.363 . S
C392 N390 1.356 . S
C393 C387 1.363 . S
C393 C388 1.379 . S
C393 N391 1.356 . S
N394 C386 1.356 . S
N394 H400 0.984 . S
N394 H401 0.984 . S
N395 C388 1.356 . S
N395 H398 0.984 . S
N395 H399 0.985 . S
H396 N391 0.984 . S
H397 N391 0.985 . S
H398 N395 0.984 . S
H399 N395 0.985 . S
H400 N394 0.984 . S
H401 N394 0.984 . S
H402 N390 0.984 . S
H403 N390 0.985 . S
C404 C405 1.363 . S
C404 C410 1.379 . S
C404 N412 1.356 . S
C405 C404 1.363 . S
C405 C411 1.363 . S
C406 C407 1.363 . S
C406 C411 1.379 . S
C406 N413 1.356 . S
C407 C406 1.363 . S
C407 C410 1.363 . S
N408 C410 1.356 . S
N408 H420 0.984 . S
N408 H421 0.985 . S
N409 C411 1.356 . S
N409 H414 0.984 . S
N409 H415 0.985 . S
C410 C404 1.379 . S
C410 C407 1.363 . S
C410 N408 1.356 . S
C411 C405 1.363 . S
C411 C406 1.379 . S
C411 N409 1.356 . S
N412 C404 1.356 . S
N412 H418 0.984 1_556 S
N412 H419 0.984 1_556 S
N413 C406 1.356 . S
N413 H416 0.984 . S
N413 H417 0.985 . S
H414 N409 0.984 . S
H415 N409 0.985 . S
H416 N413 0.984 . S
H417 N413 0.985 . S
H418 N412 0.984 1_554 S
H419 N412 0.984 1_554 S
H420 N408 0.984 . S
H421 N408 0.985 . S
C422 C423 1.363 . S
C422 C428 1.379 . S
C422 N430 1.356 . S
C423 C422 1.363 . S
C423 C429 1.363 . S
C424 C425 1.363 . S
C424 C429 1.379 . S
C424 N431 1.356 . S
C425 C424 1.363 . S
C425 C428 1.363 . S
N426 C428 1.356 . S
N426 H438 0.984 . S
N426 H439 0.985 . S
N427 C429 1.356 . S
N427 H432 0.984 . S
N427 H433 0.985 . S
C428 C422 1.379 . S
C428 C425 1.363 . S
C428 N426 1.356 . S
C429 C423 1.363 . S
C429 C424 1.379 . S
C429 N427 1.356 . S
N430 C422 1.356 . S
N430 H436 0.984 . S
N430 H437 0.984 . S
N431 C424 1.356 . S
N431 H434 0.984 . S
N431 H435 0.985 . S
H432 N427 0.984 . S
H433 N427 0.985 . S
H434 N431 0.984 . S
H435 N431 0.985 . S
H436 N430 0.984 . S
H437 N430 0.984 . S
H438 N426 0.984 . S
H439 N426 0.985 . S
C440 C441 1.363 . S
C440 C446 1.379 . S
C440 N448 1.356 . S
C441 C440 1.363 . S
C441 C447 1.363 . S
C442 C443 1.363 . S
C442 C447 1.379 . S
C442 N449 1.356 . S
C443 C442 1.363 . S
C443 C446 1.363 . S
N444 C446 1.356 . S
N444 H456 0.984 . S
N444 H457 0.985 . S
N445 C447 1.356 . S
N445 H450 0.984 . S
N445 H451 0.985 . S
C446 C440 1.379 . S
C446 C443 1.363 . S
C446 N444 1.356 . S
C447 C441 1.363 . S
C447 C442 1.379 . S
C447 N445 1.356 . S
N448 C440 1.356 . S
N448 H454 0.984 . S
N448 H455 0.984 . S
N449 C442 1.356 . S
N449 H452 0.984 . S
N449 H453 0.985 . S
H450 N445 0.984 . S
H451 N445 0.985 . S
H452 N449 0.984 . S
H453 N449 0.985 . S
H454 N448 0.984 . S
H455 N448 0.984 . S
H456 N444 0.984 . S
H457 N444 0.985 . S
C458 C459 1.363 . S
C458 C464 1.379 . S
C458 N466 1.356 . S
C459 C458 1.363 . S
C459 C465 1.363 . S
C460 C461 1.363 . S
C460 C465 1.379 . S
C460 N467 1.356 . S
C461 C460 1.363 . S
C461 C464 1.363 . S
N462 C464 1.356 . S
N462 H474 0.984 . S
N462 H475 0.985 . S
N463 C465 1.356 . S
N463 H468 0.984 . S
N463 H469 0.985 . S
C464 C458 1.379 . S
C464 C461 1.363 . S
C464 N462 1.356 . S
C465 C459 1.363 . S
C465 C460 1.379 . S
C465 N463 1.356 . S
N466 C458 1.356 . S
N466 H472 0.984 . S
N466 H473 0.984 . S
N467 C460 1.356 . S
N467 H470 0.984 . S
N467 H471 0.985 . S
H468 N463 0.984 . S
H469 N463 0.985 . S
H470 N467 0.984 . S
H471 N467 0.985 . S
H472 N466 0.984 . S
H473 N466 0.984 . S
H474 N462 0.984 . S
H475 N462 0.985 . S
C476 C477 1.363 . S
C476 C482 1.379 . S
C476 N484 1.356 . S
C477 C476 1.363 . S
C477 C483 1.363 . S
C478 C479 1.363 . S
C478 C483 1.379 . S
C478 N485 1.356 . S
C479 C478 1.363 . S
C479 C482 1.363 . S
N480 C482 1.356 . S
N480 H492 0.984 . S
N480 H493 0.985 . S
N481 C483 1.356 . S
N481 H486 0.984 . S
N481 H487 0.985 . S
C482 C476 1.379 . S
C482 C479 1.363 . S
C482 N480 1.356 . S
C483 C477 1.363 . S
C483 C478 1.379 . S
C483 N481 1.356 . S
N484 C476 1.356 . S
N484 H490 0.984 . S
N484 H491 0.984 . S
N485 C478 1.356 . S
N485 H488 0.984 . S
N485 H489 0.985 . S
H486 N481 0.984 . S
H487 N481 0.985 . S
H488 N485 0.984 . S
H489 N485 0.985 . S
H490 N484 0.984 . S
H491 N484 0.984 . S
H492 N480 0.984 . S
H493 N480 0.985 . S
C494 C495 1.363 . S
C494 C500 1.379 . S
C494 N502 1.356 . S
C495 C494 1.363 . S
C495 C501 1.363 . S
C496 C497 1.363 . S
C496 C501 1.379 . S
C496 N503 1.356 . S
C497 C496 1.363 . S
C497 C500 1.363 . S
N498 C500 1.356 . S
N498 H510 0.984 . S
N498 H511 0.985 . S
N499 C501 1.356 . S
N499 H504 0.984 . S
N499 H505 0.985 . S
C500 C494 1.379 . S
C500 C497 1.363 . S
C500 N498 1.356 . S
C501 C495 1.363 . S
C501 C496 1.379 . S
C501 N499 1.356 . S
N502 C494 1.356 . S
N502 H508 0.984 . S
N502 H509 0.984 . S
N503 C496 1.356 . S
N503 H506 0.984 . S
N503 H507 0.985 . S
H504 N499 0.984 . S
H505 N499 0.985 . S
H506 N503 0.984 . S
H507 N503 0.985 . S
H508 N502 0.984 . S
H509 N502 0.984 . S
H510 N498 0.984 . S
H511 N498 0.985 . S
C512 C513 1.363 . S
C512 C518 1.379 . S
C512 N520 1.356 . S
C513 C512 1.363 . S
C513 C519 1.363 . S
C514 C515 1.363 . S
C514 C519 1.379 . S
C514 N521 1.356 . S
C515 C514 1.363 . S
C515 C518 1.363 . S
N516 C518 1.356 . S
N516 H528 0.984 . S
N516 H529 0.985 . S
N517 C519 1.356 . S
N517 H522 0.984 . S
N517 H523 0.985 . S
C518 C512 1.379 . S
C518 C515 1.363 . S
C518 N516 1.356 . S
C519 C513 1.363 . S
C519 C514 1.379 . S
C519 N517 1.356 . S
N520 C512 1.356 . S
N520 H526 0.984 . S
N520 H527 0.984 . S
N521 C514 1.356 . S
N521 H524 0.984 . S
N521 H525 0.985 . S
H522 N517 0.984 . S
H523 N517 0.985 . S
H524 N521 0.984 . S
H525 N521 0.985 . S
H526 N520 0.984 . S
H527 N520 0.984 . S
H528 N516 0.984 . S
H529 N516 0.985 . S
C530 C531 1.363 . S
C530 C536 1.379 . S
C530 N538 1.356 . S
C531 C530 1.363 . S
C531 C537 1.363 . S
C532 C533 1.363 . S
C532 C537 1.379 . S
C532 N539 1.356 . S
C533 C532 1.363 . S
C533 C536 1.363 . S
N534 C536 1.356 . S
N534 H546 0.984 . S
N534 H547 0.985 . S
N535 C537 1.356 . S
N535 H540 0.984 . S
N535 H541 0.985 . S
C536 C530 1.379 . S
C536 C533 1.363 . S
C536 N534 1.356 . S
C537 C531 1.363 . S
C537 C532 1.379 . S
C537 N535 1.356 . S
N538 C530 1.356 . S
N538 H544 0.984 . S
N538 H545 0.984 . S
N539 C532 1.356 . S
N539 H542 0.984 . S
N539 H543 0.985 . S
H540 N535 0.984 . S
H541 N535 0.985 . S
H542 N539 0.984 . S
H543 N539 0.985 . S
H544 N538 0.984 . S
H545 N538 0.984 . S
H546 N534 0.984 . S
H547 N534 0.985 . S
C548 C549 1.363 . S
C548 C554 1.379 . S
C548 N556 1.356 . S
C549 C548 1.363 . S
C549 C555 1.363 . S
C550 C551 1.363 . S
C550 C555 1.379 . S
C550 N557 1.356 . S
C551 C550 1.363 . S
C551 C554 1.363 . S
N552 C554 1.356 . S
N552 H564 0.984 . S
N552 H565 0.985 . S
N553 C555 1.356 . S
N553 H558 0.984 . S
N553 H559 0.985 . S
C554 C548 1.379 . S
C554 C551 1.363 . S
C554 N552 1.356 . S
C555 C549 1.363 . S
C555 C550 1.379 . S
C555 N553 1.356 . S
N556 C548 1.356 . S
N556 H562 0.984 . S
N556 H563 0.984 . S
N557 C550 1.356 . S
N557 H560 0.984 1_554 S
N557 H561 0.985 1_554 S
H558 N553 0.984 . S
H559 N553 0.985 . S
H560 N557 0.984 1_556 S
H561 N557 0.985 1_556 S
H562 N556 0.984 . S
H563 N556 0.984 . S
H564 N552 0.984 . S
H565 N552 0.985 . S
C566 C567 1.363 . S
C566 C572 1.379 . S
C566 N574 1.356 . S
C567 C566 1.363 . S
C567 C573 1.363 . S
C568 C569 1.363 . S
C568 C573 1.379 . S
C568 N575 1.356 . S
C569 C568 1.363 . S
C569 C572 1.363 . S
N570 C572 1.356 . S
N570 H582 0.984 . S
N570 H583 0.985 . S
N571 C573 1.356 . S
N571 H576 0.984 . S
N571 H577 0.985 . S
C572 C566 1.379 . S
C572 C569 1.363 . S
C572 N570 1.356 . S
C573 C567 1.363 . S
C573 C568 1.379 . S
C573 N571 1.356 . S
N574 C566 1.356 . S
N574 H580 0.984 . S
N574 H581 0.984 . S
N575 C568 1.356 . S
N575 H578 0.984 . S
N575 H579 0.985 . S
H576 N571 0.984 . S
H577 N571 0.985 . S
H578 N575 0.984 . S
H579 N575 0.985 . S
H580 N574 0.984 . S
H581 N574 0.984 . S
H582 N570 0.984 . S
H583 N570 0.985 . S
C584 C585 1.363 . S
C584 C590 1.379 . S
C584 N592 1.356 . S
C585 C584 1.363 . S
C585 C591 1.363 . S
C586 C587 1.363 . S
C586 C591 1.379 . S
C586 N593 1.356 . S
C587 C586 1.363 . S
C587 C590 1.363 . S
N588 C590 1.356 . S
N588 H600 0.984 . S
N588 H601 0.985 . S
N589 C591 1.356 . S
N589 H594 0.984 . S
N589 H595 0.985 . S
C590 C584 1.379 . S
C590 C587 1.363 . S
C590 N588 1.356 . S
C591 C585 1.363 . S
C591 C586 1.379 . S
C591 N589 1.356 . S
N592 C584 1.356 . S
N592 H598 0.984 . S
N592 H599 0.984 . S
N593 C586 1.356 . S
N593 H596 0.984 1_556 S
N593 H597 0.985 1_556 S
H594 N589 0.984 . S
H595 N589 0.985 . S
H596 N593 0.984 1_554 S
H597 N593 0.985 1_554 S
H598 N592 0.984 . S
H599 N592 0.984 . S
H600 N588 0.984 . S
H601 N588 0.985 . S
C602 C603 1.363 . S
C602 C608 1.379 . S
C602 N610 1.356 . S
C603 C602 1.363 . S
C603 C609 1.363 . S
C604 C605 1.363 . S
C604 C609 1.379 . S
C604 N611 1.356 . S
C605 C604 1.363 . S
C605 C608 1.363 . S
N606 C608 1.356 . S
N606 H618 0.984 . S
N606 H619 0.985 . S
N607 C609 1.356 . S
N607 H612 0.984 . S
N607 H613 0.985 . S
C608 C602 1.379 . S
C608 C605 1.363 . S
C608 N606 1.356 . S
C609 C603 1.363 . S
C609 C604 1.379 . S
C609 N607 1.356 . S
N610 C602 1.356 . S
N610 H616 0.984 . S
N610 H617 0.984 . S
N611 C604 1.356 . S
N611 H614 0.984 . S
N611 H615 0.985 . S
H612 N607 0.984 . S
H613 N607 0.985 . S
H614 N611 0.984 . S
H615 N611 0.985 . S
H616 N610 0.984 . S
H617 N610 0.984 . S
H618 N606 0.984 . S
H619 N606 0.985 . S
C620 C621 1.363 . S
C620 C626 1.379 . S
C620 N628 1.356 . S
C621 C620 1.363 . S
C621 C627 1.363 . S
C622 C623 1.363 . S
C622 C627 1.379 . S
C622 N629 1.356 . S
C623 C622 1.363 . S
C623 C626 1.363 . S
N624 C626 1.356 . S
N624 H636 0.984 . S
N624 H637 0.985 . S
N625 C627 1.356 . S
N625 H630 0.984 . S
N625 H631 0.985 . S
C626 C620 1.379 . S
C626 C623 1.363 . S
C626 N624 1.356 . S
C627 C621 1.363 . S
C627 C622 1.379 . S
C627 N625 1.356 . S
N628 C620 1.356 . S
N628 H634 0.984 . S
N628 H635 0.984 . S
N629 C622 1.356 . S
N629 H632 0.984 . S
N629 H633 0.985 . S
H630 N625 0.984 . S
H631 N625 0.985 . S
H632 N629 0.984 . S
H633 N629 0.985 . S
H634 N628 0.984 . S
H635 N628 0.984 . S
H636 N624 0.984 . S
H637 N624 0.985 . S
C638 C639 1.363 . S
C638 C644 1.379 . S
C638 N646 1.356 . S
C639 C638 1.363 . S
C639 C645 1.363 . S
C640 C641 1.363 . S
C640 C645 1.379 . S
C640 N647 1.356 . S
C641 C640 1.363 . S
C641 C644 1.363 . S
N642 C644 1.356 . S
N642 H654 0.984 . S
N642 H655 0.985 . S
N643 C645 1.356 . S
N643 H648 0.984 . S
N643 H649 0.985 . S
C644 C638 1.379 . S
C644 C641 1.363 . S
C644 N642 1.356 . S
C645 C639 1.363 . S
C645 C640 1.379 . S
C645 N643 1.356 . S
N646 C638 1.356 . S
N646 H652 0.984 . S
N646 H653 0.984 . S
N647 C640 1.356 . S
N647 H650 0.984 . S
N647 H651 0.985 . S
H648 N643 0.984 . S
H649 N643 0.985 . S
H650 N647 0.984 . S
H651 N647 0.985 . S
H652 N646 0.984 . S
H653 N646 0.984 . S
H654 N642 0.984 . S
H655 N642 0.985 . S
C656 C657 1.363 . S
C656 C662 1.379 . S
C656 N664 1.356 . S
C657 C656 1.363 . S
C657 C663 1.363 . S
C658 C659 1.363 . S
C658 C663 1.379 . S
C658 N665 1.356 . S
C659 C658 1.363 . S
C659 C662 1.363 . S
N660 C662 1.356 . S
N660 H672 0.984 1_655 S
N660 H673 0.985 . S
N661 C663 1.356 . S
N661 H666 0.984 . S
N661 H667 0.985 . S
C662 C656 1.379 . S
C662 C659 1.363 . S
C662 N660 1.356 . S
C663 C657 1.363 . S
C663 C658 1.379 . S
C663 N661 1.356 . S
N664 C656 1.356 . S
N664 H670 0.984 . S
N664 H671 0.984 . S
N665 C658 1.356 . S
N665 H668 0.984 . S
N665 H669 0.985 . S
H666 N661 0.984 . S
H667 N661 0.985 . S
H668 N665 0.984 . S
H669 N665 0.985 . S
H670 N664 0.984 . S
H671 N664 0.984 . S
H672 N660 0.984 1_455 S
H673 N660 0.985 . S
C674 C675 1.363 . S
C674 C680 1.379 . S
C674 N682 1.356 . S
C675 C674 1.363 . S
C675 C681 1.363 . S
C676 C677 1.363 . S
C676 C681 1.379 . S
C676 N683 1.356 . S
C677 C676 1.363 . S
C677 C680 1.363 . S
N678 C680 1.356 . S
N678 H690 0.984 . S
N678 H691 0.985 . S
N679 C681 1.356 . S
N679 H684 0.984 . S
N679 H685 0.985 . S
C680 C674 1.379 . S
C680 C677 1.363 . S
C680 N678 1.356 . S
C681 C675 1.363 . S
C681 C676 1.379 . S
C681 N679 1.356 . S
N682 C674 1.356 . S
N682 H688 0.984 . S
N682 H689 0.984 . S
N683 C676 1.356 . S
N683 H686 0.984 . S
N683 H687 0.985 . S
H684 N679 0.984 . S
H685 N679 0.985 . S
H686 N683 0.984 . S
H687 N683 0.985 . S
H688 N682 0.984 . S
H689 N682 0.984 . S
H690 N678 0.984 . S
H691 N678 0.985 . S
C692 C693 1.363 . S
C692 C698 1.379 . S
C692 N700 1.356 . S
C693 C692 1.363 . S
C693 C699 1.363 . S
C694 C695 1.363 . S
C694 C699 1.379 . S
C694 N701 1.356 . S
C695 C694 1.363 . S
C695 C698 1.363 . S
N696 C698 1.356 . S
N696 H708 0.984 . S
N696 H709 0.985 . S
N697 C699 1.356 . S
N697 H702 0.984 . S
N697 H703 0.985 . S
C698 C692 1.379 . S
C698 C695 1.363 . S
C698 N696 1.356 . S
C699 C693 1.363 . S
C699 C694 1.379 . S
C699 N697 1.356 . S
N700 C692 1.356 . S
N700 H706 0.984 . S
N700 H707 0.984 . S
N701 C694 1.356 . S
N701 H704 0.984 . S
N701 H705 0.985 . S
H702 N697 0.984 . S
H703 N697 0.985 . S
H704 N701 0.984 . S
H705 N701 0.985 . S
H706 N700 0.984 . S
H707 N700 0.984 . S
H708 N696 0.984 . S
H709 N696 0.985 . S
C710 C711 1.363 . S
C710 C716 1.379 . S
C710 N718 1.356 . S
C711 C710 1.363 . S
C711 C717 1.363 . S
C712 C713 1.363 . S
C712 C717 1.379 . S
C712 N719 1.356 . S
C713 C712 1.363 . S
C713 C716 1.363 . S
N714 C716 1.356 . S
N714 H726 0.984 . S
N714 H727 0.985 . S
N715 C717 1.356 . S
N715 H720 0.984 . S
N715 H721 0.985 . S
C716 C710 1.379 . S
C716 C713 1.363 . S
C716 N714 1.356 . S
C717 C711 1.363 . S
C717 C712 1.379 . S
C717 N715 1.356 . S
N718 C710 1.356 . S
N718 H724 0.984 . S
N718 H725 0.984 . S
N719 C712 1.356 . S
N719 H722 0.984 . S
N719 H723 0.985 . S
H720 N715 0.984 . S
H721 N715 0.985 . S
H722 N719 0.984 . S
H723 N719 0.985 . S
H724 N718 0.984 . S
H725 N718 0.984 . S
H726 N714 0.984 . S
H727 N714 0.985 . S
C728 C729 1.363 . S
C728 C734 1.379 . S
C728 N736 1.356 . S
C729 C728 1.363 . S
C729 C735 1.363 . S
C730 C731 1.363 . S
C730 C735 1.379 . S
C730 N737 1.356 . S
C731 C730 1.363 . S
C731 C734 1.363 . S
N732 C734 1.356 . S
N732 H744 0.984 . S
N732 H745 0.985 . S
N733 C735 1.356 . S
N733 H738 0.984 . S
N733 H739 0.985 . S
C734 C728 1.379 . S
C734 C731 1.363 . S
C734 N732 1.356 . S
C735 C729 1.363 . S
C735 C730 1.379 . S
C735 N733 1.356 . S
N736 C728 1.356 . S
N736 H742 0.984 . S
N736 H743 0.984 . S
N737 C730 1.356 . S
N737 H740 0.984 . S
N737 H741 0.985 . S
H738 N733 0.984 . S
H739 N733 0.985 . S
H740 N737 0.984 . S
H741 N737 0.985 . S
H742 N736 0.984 . S
H743 N736 0.984 . S
H744 N732 0.984 . S
H745 N732 0.985 . S
C746 C747 1.363 . S
C746 C752 1.379 . S
C746 N754 1.356 . S
C747 C746 1.363 . S
C747 C753 1.363 . S
C748 C749 1.363 . S
C748 C753 1.379 . S
C748 N755 1.356 . S
C749 C748 1.363 . S
C749 C752 1.363 . S
N750 C752 1.356 . S
N750 H762 0.984 . S
N750 H763 0.985 . S
N751 C753 1.356 . S
N751 H756 0.984 . S
N751 H757 0.985 . S
C752 C746 1.379 . S
C752 C749 1.363 . S
C752 N750 1.356 . S
C753 C747 1.363 . S
C753 C748 1.379 . S
C753 N751 1.356 . S
N754 C746 1.356 . S
N754 H760 0.984 . S
N754 H761 0.984 . S
N755 C748 1.356 . S
N755 H758 0.984 . S
N755 H759 0.985 . S
H756 N751 0.984 . S
H757 N751 0.985 . S
H758 N755 0.984 . S
H759 N755 0.985 . S
H760 N754 0.984 . S
H761 N754 0.984 . S
H762 N750 0.984 . S
H763 N750 0.985 . S
C764 C765 1.363 . S
C764 C770 1.379 . S
C764 N772 1.356 . S
C765 C764 1.363 . S
C765 C771 1.363 . S
C766 C767 1.363 . S
C766 C771 1.379 . S
C766 N773 1.356 . S
C767 C766 1.363 . S
C767 C770 1.363 . S
N768 C770 1.356 . S
N768 H780 0.984 . S
N768 H781 0.985 . S
N769 C771 1.356 . S
N769 H774 0.984 . S
N769 H775 0.985 . S
C770 C764 1.379 . S
C770 C767 1.363 . S
C770 N768 1.356 . S
C771 C765 1.363 . S
C771 C766 1.379 . S
C771 N769 1.356 . S
N772 C764 1.356 . S
N772 H778 0.984 . S
N772 H779 0.984 . S
N773 C766 1.356 . S
N773 H776 0.984 . S
N773 H777 0.985 . S
H774 N769 0.984 . S
H775 N769 0.985 . S
H776 N773 0.984 . S
H777 N773 0.985 . S
H778 N772 0.984 . S
H779 N772 0.984 . S
H780 N768 0.984 . S
H781 N768 0.985 . S
C782 C783 1.363 . S
C782 C788 1.379 . S
C782 N790 1.356 . S
C783 C782 1.363 . S
C783 C789 1.363 . S
C784 C785 1.363 . S
C784 C789 1.379 . S
C784 N791 1.356 . S
C785 C784 1.363 . S
C785 C788 1.363 . S
N786 C788 1.356 . S
N786 H798 0.984 . S
N786 H799 0.985 . S
N787 C789 1.356 . S
N787 H792 0.984 . S
N787 H793 0.985 . S
C788 C782 1.379 . S
C788 C785 1.363 . S
C788 N786 1.356 . S
C789 C783 1.363 . S
C789 C784 1.379 . S
C789 N787 1.356 . S
N790 C782 1.356 . S
N790 H796 0.984 . S
N790 H797 0.984 . S
N791 C784 1.356 . S
N791 H794 0.984 . S
N791 H795 0.985 . S
H792 N787 0.984 . S
H793 N787 0.985 . S
H794 N791 0.984 . S
H795 N791 0.985 . S
H796 N790 0.984 . S
H797 N790 0.984 . S
H798 N786 0.984 . S
H799 N786 0.985 . S
C225 C11 1.293 . S
C227 C67 1.293 . S
C243 C81 1.293 . S
C245 C25 1.293 . S
C261 C39 1.293 . S
C263 C95 1.293 . S
C279 C53 1.293 . S
C281 C109 1.293 . S
C297 C123 1.293 . S
C299 C179 1.293 . S
C315 C193 1.293 . S
C317 C137 1.293 . S
C333 C151 1.293 . S
C335 C207 1.293 . S
C351 C165 1.293 . S
C353 C221 1.293 . S
C369 C13 1.245 . S
C371 C218 1.240 . S
C387 C176 1.240 . S
C389 C27 1.245 . S
C405 C41 1.245 . S
C407 C190 1.240 . S
C423 C204 1.240 . S
C425 C55 1.245 . S
C441 C134 1.240 . S
C443 C69 1.245 . S
C459 C148 1.240 . S
C461 C83 1.245 . S
C477 C162 1.240 . S
C479 C97 1.245 . S
C495 C120 1.240 . S
C497 C111 1.245 . S
C513 C125 1.245 . S
C515 C106 1.240 . S
C531 C64 1.240 . S
C533 C139 1.245 . S
C549 C78 1.240 . S
C551 C153 1.245 . S
C567 C167 1.245 . S
C569 C92 1.240 . S
C585 C22 1.240 . S
C587 C181 1.245 . S
C603 C195 1.245 . S
C605 C36 1.240 . S
C621 C209 1.245 . S
C623 C50 1.240 . S
C639 C223 1.245 . S
C641 C8 1.240 . S
C657 C105 1.389 . S
C659 C7 1.389 . S
C675 C21 1.389 . S
C677 C63 1.389 . S
C693 C35 1.389 . S
C695 C77 1.389 . S
C711 C49 1.389 . S
C713 C91 1.389 . S
C729 C217 1.389 . S
C731 C119 1.389 . S
C747 C175 1.389 . S
C749 C133 1.389 . S
C765 C189 1.389 . S
C767 C147 1.389 . S
C783 C203 1.389 . S
C785 C161 1.389 . S
