# Generated by pormake.
# Topology unw, (4)-cn, num edge types: 1
# Building blocks:
#     Node 0, Type 0, BuildingBlock: QUQFOY_clean_sbu_1, # of connection points: 4
#     Node 1, Type 0, BuildingBlock: QUQFOY_clean_sbu_1, # of connection points: 4
#     Node 2, Type 0, BuildingBlock: QUQFOY_clean_sbu_1, # of connection points: 4
#     Node 3, Type 0, BuildingBlock: QUQFOY_clean_sbu_1, # of connection points: 4
#     Node 4, Type 0, BuildingBlock: QUQFOY_clean_sbu_1, # of connection points: 4
#     Node 5, Type 0, BuildingBlock: QUQFOY_clean_sbu_1, # of connection points: 4
#     Node 6, Type 0, BuildingBlock: QUQFOY_clean_sbu_1, # of connection points: 4
#     Node 7, Type 0, BuildingBlock: QUQFOY_clean_sbu_1, # of connection points: 4
#     Node 8, Type 0, BuildingBlock: QUQFOY_clean_sbu_1, # of connection points: 4
#     Node 9, Type 0, BuildingBlock: QUQFOY_clean_sbu_1, # of connection points: 4
#     Node 10, Type 0, BuildingBlock: QUQFOY_clean_sbu_1, # of connection points: 4
#     Node 11, Type 0, BuildingBlock: QUQFOY_clean_sbu_1, # of connection points: 4
#     Node 12, Type 0, BuildingBlock: QUQFOY_clean_sbu_1, # of connection points: 4
#     Node 13, Type 0, BuildingBlock: QUQFOY_clean_sbu_1, # of connection points: 4
#     Node 14, Type 0, BuildingBlock: QUQFOY_clean_sbu_1, # of connection points: 4
#     Node 15, Type 0, BuildingBlock: QUQFOY_clean_sbu_1, # of connection points: 4
#     Node 16, Type 0, BuildingBlock: QUQFOY_clean_sbu_1, # of connection points: 4
#     Node 17, Type 0, BuildingBlock: QUQFOY_clean_sbu_1, # of connection points: 4
#     Node 18, Type 0, BuildingBlock: QUQFOY_clean_sbu_1, # of connection points: 4
#     Node 19, Type 0, BuildingBlock: QUQFOY_clean_sbu_1, # of connection points: 4
#     Node 20, Type 0, BuildingBlock: QUQFOY_clean_sbu_1, # of connection points: 4
#     Node 21, Type 0, BuildingBlock: QUQFOY_clean_sbu_1, # of connection points: 4
#     Node 22, Type 0, BuildingBlock: QUQFOY_clean_sbu_1, # of connection points: 4
#     Node 23, Type 0, BuildingBlock: QUQFOY_clean_sbu_1, # of connection points: 4
#     Edge 24, Type (0, 0), BuildingBlock: CIFDUS_clean_linker_0, # of connection points: 2
#     Edge 25, Type (0, 0), BuildingBlock: CIFDUS_clean_linker_0, # of connection points: 2
#     Edge 26, Type (0, 0), BuildingBlock: CIFDUS_clean_linker_0, # of connection points: 2
#     Edge 27, Type (0, 0), BuildingBlock: CIFDUS_clean_linker_0, # of connection points: 2
#     Edge 28, Type (0, 0), BuildingBlock: CIFDUS_clean_linker_0, # of connection points: 2
#     Edge 29, Type (0, 0), BuildingBlock: CIFDUS_clean_linker_0, # of connection points: 2
#     Edge 30, Type (0, 0), BuildingBlock: CIFDUS_clean_linker_0, # of connection points: 2
#     Edge 31, Type (0, 0), BuildingBlock: CIFDUS_clean_linker_0, # of connection points: 2
#     Edge 32, Type (0, 0), BuildingBlock: CIFDUS_clean_linker_0, # of connection points: 2
#     Edge 33, Type (0, 0), BuildingBlock: CIFDUS_clean_linker_0, # of connection points: 2
#     Edge 34, Type (0, 0), BuildingBlock: CIFDUS_clean_linker_0, # of connection points: 2
#     Edge 35, Type (0, 0), BuildingBlock: CIFDUS_clean_linker_0, # of connection points: 2
#     Edge 36, Type (0, 0), BuildingBlock: CIFDUS_clean_linker_0, # of connection points: 2
#     Edge 37, Type (0, 0), BuildingBlock: CIFDUS_clean_linker_0, # of connection points: 2
#     Edge 38, Type (0, 0), BuildingBlock: CIFDUS_clean_linker_0, # of connection points: 2
#     Edge 39, Type (0, 0), BuildingBlock: CIFDUS_clean_linker_0, # of connection points: 2
#     Edge 40, Type (0, 0), BuildingBlock: CIFDUS_clean_linker_0, # of connection points: 2
#     Edge 41, Type (0, 0), BuildingBlock: CIFDUS_clean_linker_0, # of connection points: 2
#     Edge 42, Type (0, 0), BuildingBlock: CIFDUS_clean_linker_0, # of connection points: 2
#     Edge 43, Type (0, 0), BuildingBlock: CIFDUS_clean_linker_0, # of connection points: 2
#     Edge 44, Type (0, 0), BuildingBlock: CIFDUS_clean_linker_0, # of connection points: 2
#     Edge 45, Type (0, 0), BuildingBlock: CIFDUS_clean_linker_0, # of connection points: 2
#     Edge 46, Type (0, 0), BuildingBlock: CIFDUS_clean_linker_0, # of connection points: 2
#     Edge 47, Type (0, 0), BuildingBlock: CIFDUS_clean_linker_0, # of connection points: 2
#     Edge 48, Type (0, 0), BuildingBlock: CIFDUS_clean_linker_0, # of connection points: 2
#     Edge 49, Type (0, 0), BuildingBlock: CIFDUS_clean_linker_0, # of connection points: 2
#     Edge 50, Type (0, 0), BuildingBlock: CIFDUS_clean_linker_0, # of connection points: 2
#     Edge 51, Type (0, 0), BuildingBlock: CIFDUS_clean_linker_0, # of connection points: 2
#     Edge 52, Type (0, 0), BuildingBlock: CIFDUS_clean_linker_0, # of connection points: 2
#     Edge 53, Type (0, 0), BuildingBlock: CIFDUS_clean_linker_0, # of connection points: 2
#     Edge 54, Type (0, 0), BuildingBlock: CIFDUS_clean_linker_0, # of connection points: 2
#     Edge 55, Type (0, 0), BuildingBlock: CIFDUS_clean_linker_0, # of connection points: 2
#     Edge 56, Type (0, 0), BuildingBlock: CIFDUS_clean_linker_0, # of connection points: 2
#     Edge 57, Type (0, 0), BuildingBlock: CIFDUS_clean_linker_0, # of connection points: 2
#     Edge 58, Type (0, 0), BuildingBlock: CIFDUS_clean_linker_0, # of connection points: 2
#     Edge 59, Type (0, 0), BuildingBlock: CIFDUS_clean_linker_0, # of connection points: 2
#     Edge 60, Type (0, 0), BuildingBlock: CIFDUS_clean_linker_0, # of connection points: 2
#     Edge 61, Type (0, 0), BuildingBlock: CIFDUS_clean_linker_0, # of connection points: 2
#     Edge 62, Type (0, 0), BuildingBlock: CIFDUS_clean_linker_0, # of connection points: 2
#     Edge 63, Type (0, 0), BuildingBlock: CIFDUS_clean_linker_0, # of connection points: 2
#     Edge 64, Type (0, 0), BuildingBlock: CIFDUS_clean_linker_0, # of connection points: 2
#     Edge 65, Type (0, 0), BuildingBlock: CIFDUS_clean_linker_0, # of connection points: 2
#     Edge 66, Type (0, 0), BuildingBlock: CIFDUS_clean_linker_0, # of connection points: 2
#     Edge 67, Type (0, 0), BuildingBlock: CIFDUS_clean_linker_0, # of connection points: 2
#     Edge 68, Type (0, 0), BuildingBlock: CIFDUS_clean_linker_0, # of connection points: 2
#     Edge 69, Type (0, 0), BuildingBlock: CIFDUS_clean_linker_0, # of connection points: 2
#     Edge 70, Type (0, 0), BuildingBlock: CIFDUS_clean_linker_0, # of connection points: 2
#     Edge 71, Type (0, 0), BuildingBlock: CIFDUS_clean_linker_0, # of connection points: 2
# Relax obj value: 0.134
# Max RMSD: 0.163
# Mean RMSD: 0.163
data_MOF--net-unw--node1-QUQFOY_clean_sbu_1--edge1-CIFDUS_clean_linker_0
_symmetry_space_group_name_H-M    P1
_symmetry_Int_Tables_number       1
_symmetry_cell_setting            triclinic
loop_
_symmetry_equiv_pos_as_xyz
'x, y, z'
_cell_length_a     44.783016
_cell_length_b     44.788187
_cell_length_c     44.697966
_cell_angle_alpha  89.970491
_cell_angle_beta   90.204543
_cell_angle_gamma 89.748043
loop_
_atom_site_label
_atom_site_type_symbol
_atom_site_fract_x
_atom_site_fract_y
_atom_site_fract_z
_atom_type_partial_charge
O0 O 0.13847 0.36263 0.29002 0.0
Cd1 Cd 0.1103 0.33473 0.2654 0.0
Cd2 Cd 0.17436 0.40259 0.25693 0.0
O3 O 0.18532 0.37586 0.2936 0.0
O4 O 0.09782 0.29448 0.28102 0.0
O5 O 0.06691 0.33316 0.27732 0.0
C6 C 0.07143 0.3056 0.28498 0.0
C7 C 0.20005 0.44495 0.24021 0.0
C8 C 0.16507 0.35636 0.29825 0.0
C9 C 0.14467 0.35582 0.21783 0.0
O10 O 0.14157 0.37917 0.23396 0.0
O11 O 0.12566 0.33496 0.22129 0.0
O12 O 0.20776 0.41856 0.23136 0.0
O13 O 0.17777 0.44724 0.25851 0.0
O14 O 0.63757 0.20129 0.24966 0.0
Cd15 Cd 0.61133 0.18039 0.28002 0.0
Cd16 Cd 0.66059 0.13444 0.25509 0.0
O17 O 0.66401 0.16855 0.22327 0.0
O18 O 0.58162 0.21321 0.28831 0.0
O19 O 0.5696 0.17218 0.26398 0.0
C20 C 0.56227 0.19865 0.27283 0.0
C21 C 0.68036 0.08555 0.25427 0.0
C22 C 0.65504 0.19526 0.22821 0.0
C23 C 0.65885 0.16005 0.32065 0.0
O24 O 0.6691 0.14795 0.29725 0.0
O25 O 0.6332 0.17252 0.32057 0.0
O26 O 0.69732 0.10845 0.25102 0.0
O27 O 0.65186 0.09014 0.2534 0.0
O28 O 0.86865 0.69957 0.27427 0.0
Cd29 Cd 0.88712 0.66945 0.24629 0.0
Cd30 Cd 0.85405 0.63692 0.28151 0.0
O31 O 0.86922 0.66873 0.31253 0.0
O32 O 0.92144 0.69248 0.22947 0.0
O33 O 0.92672 0.65684 0.26359 0.0
C34 C 0.93806 0.67913 0.24912 0.0
C35 C 0.84754 0.58556 0.27824 0.0
C36 C 0.86972 0.69537 0.30229 0.0
C37 C 0.82957 0.65191 0.22415 0.0
O38 O 0.8243 0.65383 0.25193 0.0
O39 O 0.85657 0.6525 0.21499 0.0
O40 O 0.83266 0.6011 0.29756 0.0
O41 O 0.86951 0.59837 0.26456 0.0
O42 O 0.32999 0.88024 0.27033 0.0
Cd43 Cd 0.33969 0.90194 0.23177 0.0
Cd44 Cd 0.39177 0.85221 0.25654 0.0
O45 O 0.36317 0.85145 0.2933 0.0
O46 O 0.30124 0.92519 0.22948 0.0
O47 O 0.34516 0.94682 0.23388 0.0
C48 C 0.31641 0.94914 0.23373 0.0
C49 C 0.44065 0.83286 0.2525 0.0
C50 C 0.33731 0.86355 0.29204 0.0
C51 C 0.35481 0.84929 0.19533 0.0
O52 O 0.37132 0.8423 0.21732 0.0
O53 O 0.34101 0.87426 0.19455 0.0
O54 O 0.41853 0.8159 0.25929 0.0
O55 O 0.43571 0.8613 0.25181 0.0
O56 O 0.13527 0.69424 0.75082 0.0
Cd57 Cd 0.11393 0.66812 0.78032 0.0
Cd58 Cd 0.15775 0.63024 0.75207 0.0
O59 O 0.15504 0.66279 0.71829 0.0
O60 O 0.0781 0.69446 0.78697 0.0
O61 O 0.07598 0.65138 0.76299 0.0
C62 C 0.06334 0.67647 0.76995 0.0
C63 C 0.17017 0.57925 0.75188 0.0
C64 C 0.14725 0.68928 0.72572 0.0
C65 C 0.16677 0.65494 0.81546 0.0
O66 O 0.17607 0.64585 0.79032 0.0
O67 O 0.13935 0.662 0.81908 0.0
O68 O 0.189 0.59907 0.74301 0.0
O69 O 0.14295 0.58795 0.75634 0.0
O70 O 0.3383 0.14388 0.71745 0.0
Cd71 Cd 0.34493 0.12313 0.75718 0.0
Cd72 Cd 0.39775 0.1696 0.74057 0.0
O73 O 0.37574 0.17049 0.69937 0.0
O74 O 0.3073 0.09815 0.7584 0.0
O75 O 0.35196 0.07843 0.75223 0.0
C76 C 0.32336 0.07505 0.75247 0.0
C77 C 0.44744 0.18243 0.75303 0.0
C78 C 0.34952 0.15962 0.69681 0.0
C79 C 0.35184 0.17919 0.79237 0.0
O80 O 0.3714 0.18614 0.77323 0.0
O81 O 0.34061 0.15298 0.79306 0.0
O82 O 0.42959 0.20152 0.74078 0.0
O83 O 0.43831 0.15515 0.75483 0.0
O84 O 0.83749 0.37673 0.79068 0.0
Cd85 Cd 0.843 0.40453 0.75529 0.0
Cd86 Cd 0.89737 0.35135 0.76482 0.0
O87 O 0.87314 0.3448 0.804 0.0
O88 O 0.80653 0.431 0.7609 0.0
O89 O 0.85243 0.44773 0.76531 0.0
C90 C 0.82411 0.4525 0.76822 0.0
C91 C 0.9453 0.33153 0.75347 0.0
C92 C 0.84747 0.35667 0.80812 0.0
C93 C 0.85157 0.35692 0.70999 0.0
O94 O 0.87124 0.34719 0.728 0.0
O95 O 0.83829 0.3818 0.71468 0.0
O96 O 0.92306 0.31438 0.75923 0.0
O97 O 0.94118 0.35987 0.75705 0.0
O98 O 0.64347 0.84661 0.79379 0.0
Cd99 Cd 0.61782 0.84778 0.75626 0.0
Cd100 Cd 0.67293 0.90426 0.76525 0.0
O101 O 0.67519 0.8824 0.80654 0.0
O102 O 0.59736 0.80756 0.75962 0.0
O103 O 0.57286 0.84989 0.7643 0.0
C104 C 0.57279 0.82113 0.76572 0.0
C105 C 0.69752 0.95002 0.75371 0.0
C106 C 0.6623 0.85757 0.81193 0.0
C107 C 0.66883 0.85494 0.71346 0.0
O108 O 0.67838 0.87539 0.7306 0.0
O109 O 0.64336 0.84284 0.71755 0.0
O110 O 0.71199 0.92706 0.76332 0.0
O111 O 0.6688 0.94807 0.7527 0.0
O112 O 0.21056 0.19205 0.36404 0.0
Cd113 Cd 0.24112 0.18039 0.39723 0.0
Cd114 Cd 0.22224 0.12923 0.33513 0.0
O115 O 0.19143 0.16299 0.32806 0.0
O116 O 0.24329 0.21705 0.42304 0.0
O117 O 0.22435 0.1746 0.43906 0.0
C118 C 0.23004 0.20243 0.44393 0.0
C119 C 0.22846 0.08483 0.30848 0.0
C120 C 0.19305 0.18792 0.34186 0.0
C121 C 0.28532 0.15823 0.35778 0.0
O122 O 0.26106 0.14703 0.34896 0.0
O123 O 0.28476 0.1728 0.38214 0.0
O124 O 0.23372 0.11041 0.2964 0.0
O125 O 0.2171 0.08449 0.33503 0.0
O126 O 0.85923 0.25225 0.32076 0.0
Cd127 Cd 0.8742 0.22426 0.3533 0.0
Cd128 Cd 0.84165 0.25961 0.38316 0.0
O129 O 0.8569 0.29049 0.3516 0.0
O130 O 0.91521 0.21241 0.33964 0.0
O131 O 0.90642 0.24517 0.37588 0.0
C132 C 0.92498 0.23342 0.357 0.0
C133 C 0.83578 0.25388 0.43433 0.0
C134 C 0.85871 0.28028 0.32493 0.0
C135 C 0.81538 0.20373 0.36742 0.0
O136 O 0.81137 0.23165 0.36553 0.0
O137 O 0.842 0.1933 0.3677 0.0
O138 O 0.81984 0.2732 0.41968 0.0
O139 O 0.85854 0.24206 0.42086 0.0
O140 O 0.80243 0.84032 0.3682 0.0
Cd141 Cd 0.76132 0.84969 0.38397 0.0
Cd142 Cd 0.78269 0.89822 0.33754 0.0
O143 O 0.82383 0.87678 0.34294 0.0
O144 O 0.7584 0.81365 0.41093 0.0
O145 O 0.76175 0.8595 0.42824 0.0
C146 C 0.7626 0.83112 0.4334 0.0
C147 C 0.7729 0.9477 0.32216 0.0
C148 C 0.82488 0.8509 0.35484 0.0
C149 C 0.7314 0.85386 0.32442 0.0
O150 O 0.7522 0.87159 0.31727 0.0
O151 O 0.72794 0.8452 0.35147 0.0
O152 O 0.78843 0.92979 0.30585 0.0
O153 O 0.76547 0.93871 0.34854 0.0
O154 O 0.15109 0.72587 0.32 0.0
Cd155 Cd 0.13106 0.76173 0.33883 0.0
Cd156 Cd 0.17592 0.7377 0.382 0.0
O157 O 0.17354 0.69941 0.35538 0.0
O158 O 0.09804 0.7668 0.30842 0.0
O159 O 0.09004 0.75192 0.35474 0.0
C160 C 0.08006 0.7554 0.32776 0.0
C161 C 0.1898 0.74571 0.43211 0.0
C162 C 0.16434 0.70227 0.32843 0.0
C163 C 0.18612 0.79593 0.34759 0.0
O164 O 0.19478 0.77209 0.36018 0.0
O165 O 0.15875 0.79947 0.34007 0.0
O166 O 0.20777 0.73289 0.4136 0.0
O167 O 0.16246 0.74958 0.42346 0.0
O168 O 0.29249 0.86352 0.67795 0.0
Cd169 Cd 0.25588 0.88034 0.65741 0.0
Cd170 Cd 0.28508 0.84144 0.61505 0.0
O171 O 0.32268 0.84963 0.64142 0.0
O172 O 0.2459 0.91289 0.68694 0.0
O173 O 0.26348 0.92173 0.64169 0.0
C174 C 0.25743 0.93153 0.66824 0.0
C175 C 0.27914 0.82633 0.56506 0.0
C176 C 0.31815 0.85568 0.66896 0.0
C177 C 0.2295 0.82185 0.64656 0.0
O178 O 0.25551 0.81611 0.63716 0.0
O179 O 0.2217 0.8487 0.65254 0.0
O180 O 0.29659 0.81199 0.58305 0.0
O181 O 0.26855 0.85166 0.57405 0.0
O182 O 0.19738 0.24917 0.65994 0.0
Cd183 Cd 0.16339 0.2758 0.64621 0.0
Cd184 Cd 0.13533 0.23938 0.6778 0.0
O185 O 0.16782 0.21019 0.66045 0.0
O186 O 0.17697 0.28969 0.60604 0.0
O187 O 0.14168 0.25565 0.61277 0.0
C188 C 0.16034 0.26875 0.59502 0.0
C189 C 0.08399 0.24387 0.68123 0.0
C190 C 0.1941 0.2211 0.65881 0.0
C191 C 0.14883 0.29508 0.70581 0.0
O192 O 0.15116 0.26712 0.70977 0.0
O193 O 0.14822 0.30548 0.67917 0.0
O194 O 0.09796 0.22295 0.69568 0.0
O195 O 0.09851 0.25855 0.66101 0.0
O196 O 0.73773 0.15824 0.6883 0.0
Cd197 Cd 0.77198 0.14285 0.66368 0.0
Cd198 Cd 0.7405 0.1757 0.62579 0.0
O199 O 0.70503 0.15916 0.65144 0.0
O200 O 0.78396 0.10737 0.68853 0.0
O201 O 0.7603 0.10391 0.64504 0.0
C202 C 0.76868 0.09141 0.66988 0.0
C203 C 0.74842 0.18553 0.57506 0.0
C204 C 0.71091 0.15709 0.67935 0.0
C205 C 0.79307 0.2025 0.65379 0.0
O206 O 0.76551 0.206 0.64818 0.0
O207 O 0.8039 0.17609 0.65596 0.0
O208 O 0.72764 0.19916 0.58977 0.0
O209 O 0.76165 0.16319 0.58797 0.0
O210 O 0.81418 0.75799 0.64799 0.0
Cd211 Cd 0.84225 0.73207 0.62335 0.0
Cd212 Cd 0.87852 0.75907 0.66795 0.0
O213 O 0.84648 0.79251 0.66173 0.0
O214 O 0.81679 0.7216 0.58781 0.0
O215 O 0.85443 0.75338 0.58555 0.0
C216 C 0.83132 0.74149 0.57295 0.0
C217 C 0.92705 0.75953 0.68766 0.0
C218 C 0.81956 0.7842 0.65726 0.0
C219 C 0.86065 0.69596 0.67341 0.0
O220 O 0.86156 0.72145 0.68555 0.0
O221 O 0.85704 0.69343 0.64522 0.0
O222 O 0.90502 0.77077 0.70239 0.0
O223 O 0.92244 0.75239 0.66001 0.0
O224 O 0.30233 0.27508 0.17042 0.0
Cd225 Cd 0.3304 0.24478 0.15166 0.0
Cd226 Cd 0.36597 0.27419 0.18954 0.0
O227 O 0.33506 0.30886 0.18499 0.0
O228 O 0.3078 0.23481 0.11417 0.0
O229 O 0.34942 0.26129 0.11448 0.0
C230 C 0.32605 0.25208 0.10009 0.0
C231 C 0.41757 0.27018 0.19441 0.0
C232 C 0.30815 0.30122 0.17952 0.0
C233 C 0.34448 0.21428 0.20735 0.0
O234 O 0.34998 0.24088 0.21512 0.0
O235 O 0.33976 0.2082 0.1798 0.0
O236 O 0.402 0.28492 0.21376 0.0
O237 O 0.40445 0.26225 0.16982 0.0
O238 O 0.36141 0.76857 0.81763 0.0
Cd239 Cd 0.37903 0.73847 0.84643 0.0
Cd240 Cd 0.34289 0.77019 0.88009 0.0
O241 O 0.35693 0.80416 0.85127 0.0
O242 O 0.41738 0.7278 0.82591 0.0
O243 O 0.41481 0.75632 0.86639 0.0
C244 C 0.43016 0.74655 0.84384 0.0
C245 C 0.33158 0.7655 0.93064 0.0
C246 C 0.35978 0.7961 0.82401 0.0
C247 C 0.32175 0.713 0.85922 0.0
O248 O 0.31557 0.74061 0.85995 0.0
O249 O 0.34904 0.70455 0.85833 0.0
O250 O 0.3171 0.78412 0.91384 0.0
O251 O 0.35558 0.75339 0.91991 0.0
O252 O 0.27045 0.32607 0.87703 0.0
Cd253 Cd 0.23837 0.34122 0.90534 0.0
Cd254 Cd 0.25456 0.38973 0.84894 0.0
O255 O 0.28866 0.3581 0.84379 0.0
O256 O 0.235 0.30545 0.93262 0.0
O257 O 0.25309 0.34835 0.94806 0.0
C258 C 0.24779 0.32057 0.95344 0.0
C259 C 0.25092 0.43616 0.82355 0.0
C260 C 0.28846 0.33231 0.85612 0.0
C261 C 0.19295 0.35576 0.85926 0.0
O262 O 0.21361 0.3709 0.84745 0.0
O263 O 0.19657 0.34351 0.8848 0.0
O264 O 0.25164 0.41131 0.80922 0.0
O265 O 0.25501 0.43519 0.85212 0.0
O266 O 0.65473 0.22512 0.82404 0.0
Cd267 Cd 0.63788 0.25997 0.8471 0.0
Cd268 Cd 0.67534 0.22949 0.88642 0.0
O269 O 0.66229 0.19284 0.86059 0.0
O270 O 0.60763 0.27467 0.81708 0.0
O271 O 0.59531 0.2506 0.8584 0.0
C272 C 0.58763 0.26086 0.83242 0.0
C273 C 0.68688 0.23642 0.93707 0.0
C274 C 0.65802 0.19843 0.83289 0.0
C275 C 0.69677 0.28451 0.85825 0.0
O276 O 0.70259 0.25734 0.86378 0.0
O277 O 0.66963 0.29317 0.85573 0.0
O278 O 0.70145 0.21734 0.92106 0.0
O279 O 0.66317 0.24843 0.92552 0.0
O280 O 0.7479 0.70426 0.85764 0.0
Cd281 Cd 0.77392 0.67015 0.87252 0.0
Cd282 Cd 0.73394 0.64169 0.84683 0.0
O283 O 0.70769 0.67685 0.86338 0.0
O284 O 0.79219 0.68513 0.9105 0.0
O285 O 0.75368 0.65396 0.90883 0.0
C286 C 0.77017 0.67226 0.92404 0.0
C287 C 0.73843 0.59037 0.84506 0.0
C288 C 0.71985 0.70256 0.86125 0.0
C289 C 0.78618 0.64913 0.81316 0.0
O290 O 0.75848 0.65481 0.81177 0.0
O291 O 0.7992 0.64916 0.83865 0.0
O292 O 0.71602 0.6036 0.83216 0.0
O293 O 0.75453 0.60569 0.86366 0.0
O294 O 0.68557 0.70792 0.14054 0.0
Cd295 Cd 0.67462 0.74641 0.11948 0.0
Cd296 Cd 0.62559 0.72896 0.16785 0.0
O297 O 0.64937 0.68885 0.16808 0.0
O298 O 0.70895 0.74701 0.0902 0.0
O299 O 0.66219 0.74126 0.07613 0.0
C300 C 0.6902 0.74066 0.06927 0.0
C301 C 0.57658 0.73773 0.18522 0.0
C302 C 0.67552 0.6872 0.15691 0.0
C303 C 0.66874 0.78318 0.17444 0.0
O304 O 0.65075 0.76319 0.18302 0.0
O305 O 0.67884 0.78345 0.1477 0.0
O306 O 0.59649 0.72553 0.20211 0.0
O307 O 0.58332 0.74211 0.15752 0.0
O308 O 0.24914 0.64813 0.17971 0.0
Cd309 Cd 0.28274 0.63303 0.1535 0.0
Cd310 Cd 0.24977 0.66845 0.11842 0.0
O311 O 0.21415 0.65666 0.14605 0.0
O312 O 0.29617 0.59997 0.1804 0.0
O313 O 0.27465 0.59211 0.13645 0.0
C314 C 0.28339 0.58175 0.16207 0.0
C315 C 0.25782 0.67707 0.06774 0.0
C316 C 0.22189 0.65226 0.17323 0.0
C317 C 0.30575 0.69181 0.14359 0.0
O318 O 0.27816 0.69642 0.13925 0.0
O319 O 0.31565 0.66512 0.14591 0.0
O320 O 0.23957 0.69368 0.08278 0.0
O321 O 0.26733 0.6527 0.08026 0.0
O322 O 0.80158 0.36935 0.18097 0.0
Cd323 Cd 0.76509 0.39594 0.17532 0.0
Cd324 Cd 0.77607 0.34412 0.1209 0.0
O325 O 0.81573 0.33845 0.14483 0.0
O326 O 0.76959 0.42293 0.21155 0.0
O327 O 0.77334 0.43938 0.16535 0.0
C328 C 0.77598 0.44452 0.19368 0.0
C329 C 0.76394 0.32496 0.07284 0.0
C330 C 0.81963 0.35004 0.17068 0.0
C331 C 0.7222 0.3465 0.16742 0.0
O332 O 0.74031 0.33773 0.14756 0.0
O333 O 0.72556 0.37173 0.18033 0.0
O334 O 0.77148 0.30757 0.09454 0.0
O335 O 0.76634 0.35332 0.0774 0.0
H336 H 0.26355 0.56855 0.2172 0.0
H337 H 0.27785 0.52941 0.13038 0.0
H338 H 0.25487 0.4827 0.14747 0.0
H339 H 0.22826 0.45392 0.18673 0.0
H340 H 0.20886 0.49633 0.2711 0.0
H341 H 0.23609 0.5408 0.25544 0.0
C342 C 0.26223 0.54957 0.2022 0.0
C343 C 0.27312 0.55214 0.17278 0.0
C344 C 0.24763 0.5235 0.21171 0.0
C345 C 0.27014 0.52777 0.15326 0.0
C346 C 0.25682 0.50116 0.163 0.0
C347 C 0.23015 0.47289 0.20168 0.0
C348 C 0.21663 0.47178 0.23013 0.0
C349 C 0.2451 0.49889 0.19209 0.0
C350 C 0.21892 0.49665 0.2491 0.0
C351 C 0.2346 0.52206 0.24018 0.0
H352 H 0.53277 0.19162 0.21988 0.0
H353 H 0.52989 0.24042 0.30292 0.0
H354 H 0.48637 0.2686 0.28516 0.0
H355 H 0.44877 0.27907 0.24625 0.0
H356 H 0.45283 0.23187 0.16221 0.0
H357 H 0.49658 0.20408 0.17977 0.0
C358 C 0.52231 0.20813 0.23422 0.0
C359 C 0.53415 0.21345 0.26298 0.0
C360 C 0.49785 0.22502 0.22342 0.0
C361 C 0.52094 0.23559 0.2809 0.0
C362 C 0.49618 0.25187 0.27066 0.0
C363 C 0.45948 0.2631 0.23152 0.0
C364 C 0.44741 0.25777 0.20282 0.0
C365 C 0.48451 0.24689 0.2419 0.0
C366 C 0.46165 0.23674 0.18426 0.0
C367 C 0.48655 0.22055 0.19443 0.0
H368 H 0.78104 0.46347 0.25196 0.0
H369 H 0.80127 0.48945 0.1613 0.0
H370 H 0.8275 0.53347 0.17967 0.0
H371 H 0.845 0.56486 0.22139 0.0
H372 H 0.82162 0.54156 0.31181 0.0
H373 H 0.79689 0.49616 0.29379 0.0
C374 C 0.79096 0.47888 0.23618 0.0
C375 C 0.78903 0.47299 0.20517 0.0
C376 C 0.80598 0.50445 0.24694 0.0
C377 C 0.80212 0.49335 0.1852 0.0
C378 C 0.81738 0.5185 0.19572 0.0
C379 C 0.83503 0.5495 0.23721 0.0
C380 C 0.83595 0.55614 0.26803 0.0
C381 C 0.8197 0.52416 0.22653 0.0
C382 C 0.82181 0.53665 0.28808 0.0
C383 C 0.80743 0.51082 0.27773 0.0
H384 H 0.55712 0.79473 0.18213 0.0
H385 H 0.53562 0.7091 0.21994 0.0
H386 H 0.49217 0.73103 0.24529 0.0
H387 H 0.46013 0.77484 0.2564 0.0
H388 H 0.48482 0.86128 0.22197 0.0
H389 H 0.52743 0.83902 0.19626 0.0
C390 C 0.5426 0.78085 0.19559 0.0
C391 C 0.54892 0.75018 0.19847 0.0
C392 C 0.51856 0.79393 0.21118 0.0
C393 C 0.53074 0.73262 0.21691 0.0
C394 C 0.50607 0.74522 0.23156 0.0
C395 C 0.47507 0.78889 0.24363 0.0
C396 C 0.46916 0.81979 0.24123 0.0
C397 C 0.4998 0.77591 0.22895 0.0
C398 C 0.48884 0.83755 0.22451 0.0
C399 C 0.51312 0.82477 0.20951 0.0
H400 H 0.19433 0.45405 0.81361 0.0
H401 H 0.28559 0.47965 0.79863 0.0
H402 H 0.26862 0.52496 0.77237 0.0
H403 H 0.22761 0.55821 0.75555 0.0
H404 H 0.13626 0.53268 0.77175 0.0
H405 H 0.15335 0.48642 0.79531 0.0
C406 C 0.21042 0.46968 0.80462 0.0
C407 C 0.24113 0.46388 0.80828 0.0
C408 C 0.20043 0.49557 0.7896 0.0
C409 C 0.26187 0.48396 0.79634 0.0
C410 C 0.25212 0.50974 0.78124 0.0
C411 C 0.21138 0.5423 0.7637 0.0
C412 C 0.18056 0.54899 0.76154 0.0
C413 C 0.22143 0.51589 0.77787 0.0
C414 C 0.16002 0.52815 0.77274 0.0
C415 C 0.16981 0.50172 0.78647 0.0
H416 H 0.56021 0.20719 0.8354 0.0
H417 H 0.55237 0.29424 0.79504 0.0
H418 H 0.50884 0.27758 0.76614 0.0
H419 H 0.47347 0.23777 0.75167 0.0
H420 H 0.48414 0.14964 0.78944 0.0
H421 H 0.5263 0.16697 0.81942 0.0
C422 C 0.54856 0.22268 0.82074 0.0
C423 C 0.55896 0.25222 0.81804 0.0
C424 C 0.52441 0.21251 0.80318 0.0
C425 C 0.5444 0.27163 0.798 0.0
C426 C 0.51969 0.262 0.78128 0.0
C427 C 0.4852 0.22224 0.7662 0.0
C428 C 0.47554 0.19232 0.76809 0.0
C429 C 0.50965 0.23237 0.78344 0.0
C430 C 0.49109 0.17267 0.78721 0.0
C431 C 0.51512 0.18264 0.80462 0.0
H432 H 0.79587 0.57205 0.83904 0.0
H433 H 0.70534 0.54397 0.82285 0.0
H434 H 0.72368 0.49918 0.7971 0.0
H435 H 0.76567 0.46864 0.77784 0.0
H436 H 0.85606 0.49892 0.79152 0.0
H437 H 0.83759 0.54227 0.81901 0.0
C438 C 0.78013 0.55577 0.8305 0.0
C439 C 0.7492 0.56098 0.83365 0.0
C440 C 0.79087 0.53072 0.81463 0.0
C441 C 0.7292 0.54022 0.82132 0.0
C442 C 0.73972 0.51474 0.80633 0.0
C443 C 0.78135 0.48483 0.78662 0.0
C444 C 0.81232 0.48039 0.78239 0.0
C445 C 0.77053 0.50991 0.80251 0.0
C446 C 0.83217 0.50169 0.79413 0.0
C447 C 0.82161 0.52646 0.8101 0.0
H448 H 0.53675 0.83378 0.81297 0.0
H449 H 0.55082 0.76922 0.743 0.0
H450 H 0.50918 0.73928 0.7618 0.0
H451 H 0.46803 0.73189 0.79783 0.0
H452 H 0.45665 0.79478 0.87007 0.0
H453 H 0.49819 0.82432 0.85125 0.0
C454 C 0.53044 0.8133 0.8017 0.0
C455 C 0.54637 0.80408 0.77618 0.0
C456 C 0.50723 0.79556 0.81341 0.0
C457 C 0.53861 0.77701 0.76239 0.0
C458 C 0.51491 0.7598 0.77326 0.0
C459 C 0.47495 0.75175 0.80981 0.0
C460 C 0.45907 0.76089 0.83549 0.0
C461 C 0.49905 0.7688 0.79882 0.0
C462 C 0.46845 0.78688 0.85048 0.0
C463 C 0.4921 0.80405 0.83952 0.0
H464 H 0.20446 0.28468 0.55612 0.0
H465 H 0.13133 0.22316 0.5665 0.0
H466 H 0.14708 0.19636 0.52162 0.0
H467 H 0.18306 0.1889 0.48037 0.0
H468 H 0.25525 0.25131 0.46947 0.0
H469 H 0.23878 0.27879 0.51369 0.0
C470 C 0.19156 0.26578 0.54829 0.0
C471 C 0.16655 0.25619 0.56474 0.0
C472 C 0.201 0.25014 0.52261 0.0
C473 C 0.15047 0.23132 0.55428 0.0
C474 C 0.15965 0.21575 0.5287 0.0
C475 C 0.19528 0.20839 0.48784 0.0
C476 C 0.22059 0.21783 0.47181 0.0
C477 C 0.1852 0.22461 0.51296 0.0
C478 C 0.23582 0.24347 0.48145 0.0
C479 C 0.22633 0.25929 0.5067 0.0
H480 H 0.80373 0.17876 0.55014 0.0
H481 H 0.71884 0.22262 0.53648 0.0
H482 H 0.73896 0.24929 0.49334 0.0
H483 H 0.78078 0.26071 0.45967 0.0
H484 H 0.86589 0.21722 0.47331 0.0
H485 H 0.84582 0.1905 0.51648 0.0
C486 C 0.78947 0.19375 0.5374 0.0
C487 C 0.75959 0.19826 0.54637 0.0
C488 C 0.80146 0.20967 0.51296 0.0
C489 C 0.74175 0.2184 0.52997 0.0
C490 C 0.75334 0.23388 0.5054 0.0
C491 C 0.79517 0.24582 0.47238 0.0
C492 C 0.82505 0.24142 0.46335 0.0
C493 C 0.78326 0.22998 0.49687 0.0
C494 C 0.84299 0.22143 0.47985 0.0
C495 C 0.83141 0.20588 0.50443 0.0
H496 H 0.76579 0.77263 0.45104 0.0
H497 H 0.7845 0.86214 0.48127 0.0
H498 H 0.8095 0.84222 0.52567 0.0
H499 H 0.82745 0.79931 0.5555 0.0
H500 H 0.80571 0.70999 0.52742 0.0
H501 H 0.78107 0.72976 0.48244 0.0
C502 C 0.77493 0.78783 0.46754 0.0
C503 C 0.7731 0.81894 0.4627 0.0
C504 C 0.78937 0.77618 0.49316 0.0
C505 C 0.78525 0.83817 0.4844 0.0
C506 C 0.79986 0.82676 0.50972 0.0
C507 C 0.81772 0.78419 0.53924 0.0
C508 C 0.81911 0.75316 0.54431 0.0
C509 C 0.80248 0.79582 0.51412 0.0
C510 C 0.80542 0.73389 0.52369 0.0
C511 C 0.79114 0.74523 0.49811 0.0
H512 H 0.24692 0.74451 0.45421 0.0
H513 H 0.15928 0.78073 0.4719 0.0
H514 H 0.1797 0.81087 0.51258 0.0
H515 H 0.22267 0.82786 0.54279 0.0
H516 H 0.30965 0.78955 0.52718 0.0
H517 H 0.28948 0.75992 0.48575 0.0
C518 C 0.23215 0.75864 0.46722 0.0
C519 C 0.20146 0.76009 0.45993 0.0
C520 C 0.24411 0.77615 0.49059 0.0
C521 C 0.18286 0.77881 0.47704 0.0
C522 C 0.1946 0.79635 0.50019 0.0
C523 C 0.23731 0.81346 0.52991 0.0
C524 C 0.26784 0.81153 0.53752 0.0
C525 C 0.22525 0.79554 0.50691 0.0
C526 C 0.28625 0.79188 0.52138 0.0
C527 C 0.27464 0.77473 0.49787 0.0
H528 H 0.68676 0.9811 0.70239 0.0
H529 H 0.74582 0.97738 0.77857 0.0
H530 H 0.77439 0.01954 0.75876 0.0
H531 H 0.78196 0.05833 0.72008 0.0
H532 H 0.72506 0.05922 0.64195 0.0
H533 H 0.69694 0.01713 0.66174 0.0
C534 C 0.70572 0.98976 0.71475 0.0
C535 C 0.71373 0.97661 0.7423 0.0
C536 C 0.72281 0.01324 0.70257 0.0
C537 C 0.73894 0.98741 0.75757 0.0
C538 C 0.75538 0.01142 0.74614 0.0
C539 C 0.76378 0.04899 0.70707 0.0
C540 C 0.75586 0.0621 0.67939 0.0
C541 C 0.74757 0.02455 0.71862 0.0
C542 C 0.73203 0.0496 0.6631 0.0
C543 C 0.71563 0.02562 0.67458 0.0
H544 H 0.9564 0.70694 0.68182 0.0
H545 H 0.95732 0.78924 0.73161 0.0
H546 H 0.99845 0.77027 0.76275 0.0
H547 H 0.03399 0.72996 0.77601 0.0
H548 H 0.0306 0.64645 0.72798 0.0
H549 H 0.99023 0.66586 0.6966 0.0
C550 C 0.96606 0.72094 0.69909 0.0
C551 C 0.95448 0.74985 0.7038 0.0
C552 C 0.9888 0.70934 0.71773 0.0
C553 C 0.96632 0.76722 0.72711 0.0
C554 C 0.98964 0.75623 0.7451 0.0
C555 C 0.02414 0.7158 0.759 0.0
C556 C 0.03541 0.68662 0.75459 0.0
C557 C 1.00091 0.72721 0.74079 0.0
C558 C 0.02236 0.66882 0.73219 0.0
C559 C 0.9994 0.68004 0.71397 0.0
H560 H 0.33045 0.0484 0.69884 0.0
H561 H 0.28267 0.04051 0.78182 0.0
H562 H 0.25659 0.99622 0.76275 0.0
H563 H 0.24802 0.95922 0.72235 0.0
H564 H 0.29318 0.97023 0.63792 0.0
H565 H 0.31896 0.01402 0.6573 0.0
C566 C 0.31457 0.03669 0.71282 0.0
C567 C 0.3091 0.04708 0.74202 0.0
C568 C 0.29877 0.01209 0.70118 0.0
C569 C 0.28768 0.03249 0.75953 0.0
C570 C 0.27264 0.00732 0.74852 0.0
C571 C 0.2631 0.97148 0.70799 0.0
C572 C 0.26849 0.96125 0.67858 0.0
C573 C 0.27795 0.99691 0.71931 0.0
C574 C 0.28827 0.97753 0.66048 0.0
C575 C 0.30333 1.0025 0.67167 0.0
H576 H 0.0655 0.30126 0.68517 0.0
H577 H 0.03773 0.21127 0.70415 0.0
H578 H 0.99251 0.23032 0.72858 0.0
H579 H 0.96156 0.27287 0.74589 0.0
H580 H 0.9919 0.36281 0.73002 0.0
H581 H 0.03553 0.34354 0.70361 0.0
C582 C 0.0492 0.28579 0.69407 0.0
C583 C 0.05456 0.25482 0.69209 0.0
C584 C 0.024 0.29698 0.70927 0.0
C585 C 0.03383 0.23514 0.70483 0.0
C586 C 0.00811 0.24607 0.71904 0.0
C587 C 0.97783 0.28827 0.73687 0.0
C588 C 0.97335 0.31935 0.74014 0.0
C589 C 1.00312 0.27699 0.72174 0.0
C590 C 0.99475 0.33886 0.72816 0.0
C591 C 0.01966 0.32784 0.7128 0.0
H592 H 0.71498 0.96451 0.31903 0.0
H593 H 0.80344 0.99236 0.29436 0.0
H594 H 0.78269 0.03687 0.26964 0.0
H595 H 0.73914 0.06814 0.25557 0.0
H596 H 0.65042 0.03763 0.27681 0.0
H597 H 0.67136 0.99366 0.30157 0.0
C598 C 0.72968 0.98059 0.30855 0.0
C599 C 0.76075 0.97573 0.30923 0.0
C600 C 0.71745 1.00535 0.29324 0.0
C601 C 0.77951 0.99603 0.29462 0.0
C602 C 0.76761 0.02133 0.28032 0.0
C603 C 0.72434 0.05164 0.26517 0.0
C604 C 0.69314 0.05633 0.26418 0.0
C605 C 0.73658 0.0262 0.2794 0.0
C606 C 0.67443 0.03462 0.27689 0.0
C607 C 0.68642 0.00955 0.29138 0.0
H608 H 0.96256 0.68011 0.30486 0.0
H609 H 0.97733 0.71045 0.21462 0.0
H610 H 0.02149 0.73812 0.23114 0.0
H611 H 0.05576 0.75411 0.27141 0.0
H612 H 0.03938 0.72561 0.36211 0.0
H613 H 0.99579 0.6975 0.34538 0.0
C614 C 0.9758 0.69229 0.2887 0.0
C615 C 0.96706 0.69253 0.25834 0.0
C616 C 1.00055 0.70909 0.2986 0.0
C617 C 0.98386 0.70939 0.23796 0.0
C618 C 0.00897 0.72545 0.24747 0.0
C619 C 0.04244 0.74212 0.28764 0.0
C620 C 0.05094 0.74225 0.31811 0.0
C621 C 0.0174 0.7257 0.2778 0.0
C622 C 0.03339 0.72626 0.33862 0.0
C623 C 0.00854 0.70988 0.329 0.0
H624 H 0.26468 0.95563 0.2643 0.0
H625 H 0.33495 1.00607 0.22254 0.0
H626 H 0.31193 0.05272 0.23971 0.0
H627 H 0.27366 0.07885 0.26907 0.0
H628 H 0.20668 0.02821 0.31575 0.0
H629 H 0.22644 0.98187 0.29416 0.0
C630 C 0.27466 0.97689 0.25855 0.0
C631 C 0.30125 0.97749 0.24176 0.0
C632 C 0.26195 1.00349 0.26956 0.0
C633 C 0.31439 1.00509 0.2352 0.0
C634 C 0.30127 0.03172 0.24508 0.0
C635 C 0.26307 0.05771 0.27412 0.0
C636 C 0.23845 0.05697 0.29362 0.0
C637 C 0.27528 0.03116 0.26258 0.0
C638 C 0.22549 0.02935 0.30062 0.0
C639 C 0.23683 1.00288 0.28833 0.0
H640 H 0.02911 0.32255 0.32524 0.0
H641 H 0.05965 0.247 0.27402 0.0
H642 H 0.01833 0.21687 0.2932 0.0
H643 H 0.97157 0.21298 0.32249 0.0
H644 H 0.94386 0.28764 0.3769 0.0
H645 H 0.98612 0.31668 0.35917 0.0
C646 C 0.02671 0.29946 0.31836 0.0
C647 C 0.04708 0.28717 0.29781 0.0
C648 C 1.00347 0.28196 0.33031 0.0
C649 C 0.04412 0.25703 0.28963 0.0
C650 C 0.02049 0.23979 0.30063 0.0
C651 C 0.97513 0.23536 0.33098 0.0
C652 C 0.95433 0.24797 0.35106 0.0
C653 C 0.9998 0.25208 0.32078 0.0
C654 C 0.95945 0.2771 0.36168 0.0
C655 C 0.98354 0.29395 0.35129 0.0
H656 H 0.71355 0.67708 0.94483 0.0
H657 H 0.80508 0.69353 0.9697 0.0
H658 H 0.78851 0.71723 0.01625 0.0
H659 H 0.74778 0.7341 0.04955 0.0
H660 H 0.65621 0.72003 0.02282 0.0
H661 H 0.67298 0.69523 0.97721 0.0
C662 C 0.72992 0.68529 0.96073 0.0
C663 C 0.76061 0.6828 0.95412 0.0
C664 C 0.72015 0.69996 0.98687 0.0
C665 C 0.7814 0.69462 0.97448 0.0
C666 C 0.77189 0.70843 1.00098 0.0
C667 C 0.73145 0.72593 0.03361 0.0
C668 C 0.70067 0.72915 0.03973 0.0
C669 C 0.74129 0.71151 1.0073 0.0
C670 C 0.67997 0.71817 0.01875 0.0
C671 C 0.68957 0.70371 0.9927 0.0
H672 H 0.25198 0.73246 0.04255 0.0
H673 H 0.29604 0.6475 0.03022 0.0
H674 H 0.32461 0.6681 0.9886 0.0
H675 H 0.33777 0.71049 0.95597 0.0
H676 H 0.29276 0.79499 0.96737 0.0
H677 H 0.26448 0.77457 0.00939 0.0
C678 C 0.26746 0.71825 0.03048 0.0
C679 C 0.27152 0.68826 0.03948 0.0
C680 C 0.28424 0.73041 1.00678 0.0
C681 C 0.29212 0.67048 0.02372 0.0
C682 C 0.30872 0.68236 1.00004 0.0
C683 C 0.32222 0.72463 0.96804 0.0
C684 C 0.31791 0.7545 0.95889 0.0
C685 C 0.30528 0.7124 0.9916 0.0
C686 C 0.29691 0.77213 0.97421 0.0
C687 C 0.28051 0.76035 0.99808 0.0
H688 H 0.29776 0.33234 0.9865 0.0
H689 H 0.2217 0.27386 0.98193 0.0
H690 H 0.24006 0.2462 0.02552 0.0
H691 H 0.27744 0.23889 0.0654 0.0
H692 H 0.35491 0.29575 0.06865 0.0
H693 H 0.33675 0.32315 0.0249 0.0
C694 C 0.28506 0.31376 0.99532 0.0
C695 C 0.25805 0.30555 0.98134 0.0
C696 C 0.29631 0.29727 0.01987 0.0
C697 C 0.24232 0.28087 0.99249 0.0
C698 C 0.25292 0.26493 0.01732 0.0
C699 C 0.29065 0.25695 0.0563 0.0
C700 C 0.31764 0.26506 0.07043 0.0
C701 C 0.27994 0.27283 0.03116 0.0
C702 C 0.33423 0.28873 0.05823 0.0
C703 C 0.32369 0.30467 0.03331 0.0
H704 H 0.75978 0.26655 0.05495 0.0
H705 H 0.73492 0.35605 0.02881 0.0
H706 H 0.70659 0.33636 0.98646 0.0
H707 H 0.68861 0.2937 0.95659 0.0
H708 H 0.71656 0.20455 0.98011 0.0
H709 H 0.74338 0.22393 0.02387 0.0
C710 C 0.7484 0.28179 0.03984 0.0
C711 C 0.74968 0.31285 0.04515 0.0
C712 C 0.7322 0.27028 0.01528 0.0
C713 C 0.73466 0.33213 0.02526 0.0
C714 C 0.71819 0.32085 1.0011 0.0
C715 C 0.7001 0.27848 0.97166 0.0
C716 C 0.69992 0.2476 0.96557 0.0
C717 C 0.71658 0.28996 0.99601 0.0
C718 C 0.71588 0.2283 0.98463 0.0
C719 C 0.73142 0.23943 0.00951 0.0
H720 H 0.13233 0.31253 0.32375 0.0
H721 H 0.21784 0.32975 0.2833 0.0
H722 H 0.23175 0.27739 0.28897 0.0
H723 H 0.2209 0.22744 0.30809 0.0
H724 H 0.13656 0.20962 0.35017 0.0
H725 H 0.12005 0.2611 0.33994 0.0
C726 C 0.15375 0.30458 0.31573 0.0
C727 C 0.17384 0.32486 0.30285 0.0
C728 C 0.16154 0.2743 0.31893 0.0
C729 C 0.20196 0.31463 0.29336 0.0
C730 C 0.20986 0.28464 0.29638 0.0
C731 C 0.19854 0.23468 0.3141 0.0
C732 C 0.17956 0.2149 0.32909 0.0
C733 C 0.18992 0.26437 0.30928 0.0
C734 C 0.15106 0.22445 0.33782 0.0
C735 C 0.14192 0.25393 0.33242 0.0
H736 H 0.76139 0.22031 0.38748 0.0
H737 H 0.80862 0.14533 0.34935 0.0
H738 H 0.76089 0.12034 0.33968 0.0
H739 H 0.70692 0.12543 0.33207 0.0
H740 H 0.66082 0.20433 0.36307 0.0
H741 H 0.70681 0.22167 0.38695 0.0
C742 C 0.7613 0.19821 0.37751 0.0
C743 C 0.78839 0.18493 0.36832 0.0
C744 C 0.73392 0.18482 0.37084 0.0
C745 C 0.78806 0.15606 0.35629 0.0
C746 C 0.76077 0.14193 0.35064 0.0
C747 C 0.70669 0.14601 0.34489 0.0
C748 C 0.68068 0.164 0.3452 0.0
C749 C 0.73366 0.15687 0.35637 0.0
C750 C 0.68048 0.19017 0.36238 0.0
C751 C 0.70695 0.20031 0.37556 0.0
H752 H 0.88706 0.75049 0.28606 0.0
H753 H 0.85432 0.70054 0.36168 0.0
H754 H 0.84594 0.74732 0.38895 0.0
H755 H 0.83832 0.80144 0.38665 0.0
H756 H 0.86414 0.85045 0.30776 0.0
H757 H 0.88641 0.80507 0.28691 0.0
C758 C 0.87846 0.74974 0.30872 0.0
C759 C 0.87046 0.72215 0.3216 0.0
C760 C 0.87267 0.77662 0.32361 0.0
C761 C 0.86025 0.72149 0.3512 0.0
C762 C 0.8554 0.74823 0.36669 0.0
C763 C 0.84966 0.80243 0.36525 0.0
C764 C 0.84893 0.82913 0.34838 0.0
C765 C 0.86016 0.77586 0.35248 0.0
C766 C 0.86425 0.83025 0.32111 0.0
C767 C 0.87648 0.80415 0.30897 0.0
H768 H 0.27945 0.88157 0.28917 0.0
H769 H 0.33947 0.82515 0.34019 0.0
H770 H 0.29662 0.80304 0.36569 0.0
H771 H 0.24303 0.79471 0.36767 0.0
H772 H 0.18304 0.84616 0.31168 0.0
H773 H 0.22546 0.8758 0.29402 0.0
C774 C 0.28342 0.86473 0.30619 0.0
C775 C 0.31283 0.8547 0.31245 0.0
C776 C 0.25871 0.85108 0.31948 0.0
C777 C 0.31723 0.83316 0.33483 0.0
C778 C 0.29271 0.82041 0.34922 0.0
C779 C 0.23895 0.81256 0.35173 0.0
C780 C 0.20982 0.81782 0.34049 0.0
C781 C 0.26344 0.82836 0.34077 0.0
C782 C 0.20514 0.84149 0.32047 0.0
C783 C 0.22942 0.85827 0.3103 0.0
H784 H 0.18315 0.69395 0.67624 0.0
H785 H 0.12467 0.745 0.73357 0.0
H786 H 0.14207 0.79121 0.7117 0.0
H787 H 0.17958 0.81773 0.68181 0.0
H788 H 0.23616 0.76676 0.6226 0.0
H789 H 0.2135 0.72061 0.63919 0.0
C790 C 0.17375 0.71512 0.68342 0.0
C791 C 0.15345 0.7159 0.70715 0.0
C792 C 0.18376 0.74198 0.67068 0.0
C793 C 0.14108 0.74363 0.71587 0.0
C794 C 0.15095 0.77026 0.70337 0.0
C795 C 0.18637 0.79662 0.67203 0.0
C796 C 0.21014 0.79572 0.65181 0.0
C797 C 0.17321 0.76982 0.68163 0.0
C798 C 0.21842 0.76811 0.63897 0.0
C799 C 0.20549 0.74154 0.64838 0.0
H800 H 0.29968 0.13141 0.67847 0.0
H801 H 0.34992 0.21235 0.6655 0.0
H802 H 0.30484 0.23758 0.64729 0.0
H803 H 0.25019 0.23954 0.64662 0.0
H804 H 0.19919 0.16032 0.66618 0.0
H805 H 0.24557 0.13149 0.67078 0.0
C806 C 0.301 0.15434 0.67072 0.0
C807 C 0.328 0.17022 0.67394 0.0
C808 C 0.27461 0.16924 0.66263 0.0
C809 C 0.32951 0.19964 0.66331 0.0
C810 C 0.30355 0.21422 0.65348 0.0
C811 C 0.2491 0.21586 0.65155 0.0
C812 C 0.22125 0.20222 0.65686 0.0
C813 C 0.27578 0.19975 0.65499 0.0
C814 C 0.22029 0.17142 0.66244 0.0
C815 C 0.24681 0.15496 0.66506 0.0
H816 H 0.77415 0.25978 0.64879 0.0
H817 H 0.8525 0.20683 0.66926 0.0
H818 H 0.87983 0.25245 0.68178 0.0
H819 H 0.87909 0.30581 0.69302 0.0
H820 H 0.79874 0.35757 0.67826 0.0
H821 H 0.77487 0.31387 0.65581 0.0
C822 C 0.79731 0.25805 0.65577 0.0
C823 C 0.81114 0.22974 0.65863 0.0
C824 C 0.81251 0.28418 0.6636 0.0
C825 C 0.84125 0.22819 0.66722 0.0
C826 C 0.85684 0.25428 0.67431 0.0
C827 C 0.8565 0.30784 0.68438 0.0
C828 C 0.84051 0.33493 0.68782 0.0
C829 C 0.84237 0.28222 0.67342 0.0
C830 C 0.81155 0.33714 0.67595 0.0
C831 C 0.79777 0.312 0.66354 0.0
H832 H 0.76094 0.77024 0.65215 0.0
H833 H 0.81989 0.84254 0.67627 0.0
H834 H 0.77667 0.87316 0.69003 0.0
H835 H 0.72339 0.87705 0.70024 0.0
H836 H 0.66505 0.80283 0.681 0.0
H837 H 0.70702 0.77562 0.65889 0.0
C838 C 0.76449 0.79279 0.66021 0.0
C839 C 0.79375 0.80395 0.66361 0.0
C840 C 0.73967 0.80992 0.66863 0.0
C841 C 0.79772 0.8333 0.67377 0.0
C842 C 0.77301 0.8508 0.68155 0.0
C843 C 0.71956 0.85508 0.6908 0.0
C844 C 0.69106 0.8418 0.69273 0.0
C845 C 0.74401 0.83901 0.67976 0.0
C846 C 0.68664 0.81357 0.67989 0.0
C847 C 0.71073 0.79788 0.66759 0.0
H848 H 0.29116 0.13028 0.30412 0.0
H849 H 0.33345 0.19574 0.36089 0.0
H850 H 0.36123 0.21472 0.31809 0.0
H851 H 0.36441 0.21994 0.26396 0.0
H852 H 0.31704 0.15913 0.20606 0.0
H853 H 0.30089 0.13052 0.24994 0.0
C854 C 0.30704 0.1482 0.30732 0.0
C855 C 0.30958 0.16212 0.33558 0.0
C856 C 0.32158 0.16014 0.28225 0.0
C857 C 0.3308 0.18479 0.33945 0.0
C858 C 0.34645 0.19588 0.31486 0.0
C859 C 0.35089 0.20014 0.26077 0.0
C860 C 0.34107 0.1922 0.2318 0.0
C861 C 0.34054 0.18491 0.286 0.0
C862 C 0.32447 0.16597 0.22809 0.0
C863 C 0.3151 0.14979 0.25321 0.0
H864 H 0.86744 0.26352 0.26742 0.0
H865 H 0.85096 0.34115 0.32236 0.0
H866 H 0.84505 0.3717 0.27727 0.0
H867 H 0.83697 0.37432 0.22325 0.0
H868 H 0.8476 0.29529 0.16895 0.0
H869 H 0.86503 0.26755 0.21286 0.0
C870 C 0.86284 0.28721 0.26966 0.0
C871 C 0.85898 0.29995 0.29829 0.0
C872 C 0.85875 0.30436 0.24374 0.0
C873 C 0.85365 0.33074 0.30066 0.0
C874 C 0.85031 0.34818 0.27488 0.0
C875 C 0.84381 0.35118 0.22078 0.0
C876 C 0.84041 0.33672 0.19289 0.0
C877 C 0.85177 0.33495 0.2464 0.0
C878 C 0.84992 0.30697 0.19004 0.0
C879 C 0.8594 0.29098 0.21529 0.0
H880 H 0.65093 0.78526 0.23218 0.0
H881 H 0.71155 0.82707 0.17001 0.0
H882 H 0.73413 0.85493 0.21143 0.0
H883 H 0.73968 0.86316 0.26515 0.0
H884 H 0.68191 0.81776 0.32754 0.0
H885 H 0.655 0.79515 0.28555 0.0
C886 C 0.66892 0.80065 0.22739 0.0
C887 C 0.67974 0.80385 0.19787 0.0
C888 C 0.68242 0.81556 0.25131 0.0
C889 C 0.70284 0.82414 0.19238 0.0
C890 C 0.71583 0.83989 0.2161 0.0
C891 C 0.72101 0.84855 0.26978 0.0
C892 C 0.71291 0.84202 0.29962 0.0
C893 C 0.70628 0.8351 0.24567 0.0
C894 C 0.68867 0.82305 0.30491 0.0
C895 C 0.67334 0.81014 0.28091 0.0
H896 H 0.23128 0.63202 0.22929 0.0
H897 H 0.16588 0.678 0.17474 0.0
H898 H 0.13813 0.69172 0.21991 0.0
H899 H 0.13805 0.69831 0.27419 0.0
H900 H 0.20751 0.65824 0.32838 0.0
H901 H 0.22783 0.6337 0.28384 0.0
C902 C 0.21069 0.64471 0.22714 0.0
C903 C 0.20097 0.65463 0.19869 0.0
C904 C 0.19583 0.65366 0.25315 0.0
C905 C 0.17392 0.67032 0.1963 0.0
C906 C 0.15823 0.67832 0.22216 0.0
C907 C 0.15738 0.68378 0.27646 0.0
C908 C 0.17172 0.68061 0.30453 0.0
C909 C 0.16982 0.67129 0.25063 0.0
C910 C 0.19619 0.66116 0.30712 0.0
C911 C 0.20795 0.64743 0.28158 0.0
H912 H 0.38264 0.78681 0.76922 0.0
H913 H 0.33653 0.85299 0.82214 0.0
H914 H 0.32647 0.88227 0.77683 0.0
H915 H 0.32201 0.88312 0.72221 0.0
H916 H 0.36283 0.81354 0.66938 0.0
H917 H 0.38491 0.79196 0.71475 0.0
C918 C 0.3708 0.80793 0.77094 0.0
C919 C 0.35958 0.81743 0.79883 0.0
C920 C 0.36423 0.82389 0.7448 0.0
C921 C 0.34506 0.84513 0.8009 0.0
C922 C 0.33922 0.86172 0.77498 0.0
C923 C 0.33651 0.86371 0.72053 0.0
C924 C 0.34037 0.84952 0.69262 0.0
C925 C 0.34742 0.8505 0.74677 0.0
C926 C 0.35954 0.8248 0.69057 0.0
C927 C 0.37173 0.81223 0.71658 0.0
H928 H 0.17453 0.38477 0.80947 0.0
H929 H 0.15887 0.30504 0.86128 0.0
H930 H 0.13839 0.28048 0.81698 0.0
H931 H 0.13656 0.27797 0.76233 0.0
H932 H 0.15839 0.35558 0.70955 0.0
H933 H 0.16527 0.38467 0.75545 0.0
C934 C 0.16569 0.36232 0.81133 0.0
C935 C 0.16891 0.34647 0.83851 0.0
C936 C 0.15618 0.34766 0.78533 0.0
C937 C 0.15682 0.31771 0.84072 0.0
C938 C 0.14564 0.30347 0.8152 0.0
C939 C 0.14246 0.30139 0.76078 0.0
C940 C 0.14782 0.31445 0.73258 0.0
C941 C 0.14718 0.31758 0.78715 0.0
C942 C 0.15459 0.34494 0.73096 0.0
C943 C 0.15853 0.36153 0.7572 0.0
H944 H 0.71555 0.12749 0.73115 0.0
H945 H 0.65549 0.18363 0.68039 0.0
H946 H 0.62727 0.19466 0.72602 0.0
H947 H 0.62844 0.19843 0.78071 0.0
H948 H 0.69363 0.1484 0.83156 0.0
H949 H 0.71068 0.12397 0.78561 0.0
C950 C 0.6957 0.14145 0.72998 0.0
C951 C 0.68788 0.15538 0.70273 0.0
C952 C 0.68091 0.149 0.75644 0.0
C953 C 0.66192 0.17285 0.70115 0.0
C954 C 0.64607 0.17938 0.7273 0.0
C955 C 0.64576 0.18142 0.78181 0.0
C956 C 0.66033 0.17562 0.80926 0.0
C957 C 0.65662 0.16913 0.7552 0.0
C958 C 0.68223 0.15325 0.81069 0.0
C959 C 0.69221 0.13964 0.78435 0.0
H960 H 0.81731 0.65476 0.67939 0.0
H961 H 0.90168 0.68312 0.71557 0.0
H962 H 0.88764 0.66529 0.76508 0.0
H963 H 0.84566 0.65558 0.7996 0.0
H964 H 0.76107 0.62783 0.76267 0.0
H965 H 0.78089 0.63089 0.71233 0.0
C966 C 0.83329 0.65521 0.69769 0.0
C967 C 0.86013 0.67061 0.69415 0.0
C968 C 0.82448 0.64615 0.72641 0.0
C969 C 0.88073 0.67132 0.71801 0.0
C970 C 0.87247 0.66171 0.74649 0.0
C971 C 0.83198 0.64927 0.78058 0.0
C972 C 0.80165 0.64287 0.78471 0.0
C973 C 0.84346 0.65131 0.75136 0.0
C974 C 0.78426 0.63406 0.75994 0.0
C975 C 0.79557 0.63564 0.73106 0.0
H976 H 0.2005 0.3628 0.24139 0.0
H977 H 0.15414 0.328 0.1647 0.0
H978 H 0.20185 0.31106 0.14376 0.0
H979 H 0.25605 0.30353 0.14948 0.0
H980 H 0.3021 0.34095 0.22553 0.0
H981 H 0.25499 0.36219 0.24369 0.0
C982 C 0.20073 0.35338 0.21935 0.0
C983 C 0.17377 0.34807 0.20409 0.0
C984 C 0.2282 0.34446 0.20734 0.0
C985 C 0.17463 0.33287 0.17666 0.0
C986 C 0.20188 0.32327 0.16469 0.0
C987 C 0.25587 0.31702 0.16965 0.0
C988 C 0.28241 0.32067 0.18628 0.0
C989 C 0.22874 0.32868 0.18007 0.0
C990 C 0.28202 0.33814 0.21227 0.0
C991 C 0.25504 0.34988 0.22281 0.0
H992 H 0.26659 0.72349 0.88041 0.0
H993 H 0.31965 0.65588 0.83659 0.0
H994 H 0.27426 0.62721 0.82605 0.0
H995 H 0.21978 0.62696 0.82076 0.0
H996 H 0.16699 0.69795 0.85923 0.0
H997 H 0.21212 0.71928 0.8816 0.0
C998 C 0.26832 0.70222 0.86892 0.0
C999 C 0.29633 0.6921 0.85853 0.0
C1000 C 0.24217 0.6866 0.86209 0.0
C1001 C 0.29835 0.6642 0.8445 0.0
C1002 C 0.27239 0.64796 0.83838 0.0
C1003 C 0.21802 0.64666 0.83479 0.0
C1004 C 0.19017 0.66124 0.83793 0.0
C1005 C 0.24418 0.65971 0.84583 0.0
C1006 C 0.18808 0.68635 0.85651 0.0
C1007 C 0.21397 0.69877 0.86886 0.0
H1008 H 0.28264 0.27376 0.86997 0.0
H1009 H 0.33493 0.33405 0.81596 0.0
H1010 H 0.36127 0.29128 0.79414 0.0
H1011 H 0.36646 0.23755 0.78792 0.0
H1012 H 0.31106 0.1771 0.83853 0.0
H1013 H 0.2889 0.21982 0.86476 0.0
C1014 C 0.30005 0.27778 0.85367 0.0
C1015 C 0.30682 0.30725 0.84459 0.0
C1016 C 0.31433 0.25317 0.84067 0.0
C1017 C 0.32928 0.31174 0.82331 0.0
C1018 C 0.34426 0.28728 0.81084 0.0
C1019 C 0.34975 0.23342 0.80491 0.0
C1020 C 0.34038 0.20394 0.81121 0.0
C1021 C 0.33652 0.25798 0.81899 0.0
C1022 C 0.31867 0.1994 0.83325 0.0
C1023 C 0.30597 0.22384 0.84812 0.0
H1024 H 0.75525 0.27085 0.86543 0.0
H1025 H 0.69617 0.34388 0.8422 0.0
H1026 H 0.73951 0.37511 0.83102 0.0
H1027 H 0.79305 0.37916 0.82197 0.0
H1028 H 0.85136 0.30403 0.83973 0.0
H1029 H 0.80918 0.27638 0.8604 0.0
C1030 C 0.75167 0.29368 0.85811 0.0
C1031 C 0.72237 0.30487 0.8541 0.0
C1032 C 0.77653 0.3111 0.85107 0.0
C1033 C 0.71838 0.33463 0.84512 0.0
C1034 C 0.74315 0.35245 0.83878 0.0
C1035 C 0.79681 0.3569 0.83084 0.0
C1036 C 0.82537 0.34347 0.8288 0.0
C1037 C 0.77222 0.34057 0.84087 0.0
C1038 C 0.82974 0.31488 0.84094 0.0
C1039 C 0.80552 0.29895 0.85237 0.0
H1040 H 0.74122 0.75871 0.86672 0.0
H1041 H 0.65909 0.70966 0.85593 0.0
H1042 H 0.63201 0.75653 0.84745 0.0
H1043 H 0.63369 0.80958 0.83446 0.0
H1044 H 0.717 0.85745 0.83987 0.0
H1045 H 0.74139 0.81307 0.86065 0.0
C1046 C 0.71729 0.75822 0.8629 0.0
C1047 C 0.70226 0.73063 0.86122 0.0
C1048 C 0.70213 0.7851 0.85731 0.0
C1049 C 0.67121 0.73051 0.85696 0.0
C1050 C 0.65577 0.75731 0.85209 0.0
C1051 C 0.65702 0.81063 0.84101 0.0
C1052 C 0.67367 0.83667 0.83504 0.0
C1053 C 0.67126 0.78453 0.85101 0.0
C1054 C 0.70367 0.83779 0.84415 0.0
C1055 C 0.71773 0.81222 0.85555 0.0
H1056 H 0.72794 0.67325 0.13059 0.0
H1057 H 0.67451 0.6536 0.20832 0.0
H1058 H 0.71906 0.63553 0.23456 0.0
H1059 H 0.77348 0.63633 0.23896 0.0
H1060 H 0.82741 0.66237 0.16352 0.0
H1061 H 0.78224 0.66729 0.13274 0.0
C1062 C 0.72585 0.66422 0.15302 0.0
C1063 C 0.69802 0.66544 0.16779 0.0
C1064 C 0.75178 0.65602 0.16862 0.0
C1065 C 0.69558 0.65305 0.1965 0.0
C1066 C 0.72117 0.64321 0.21166 0.0
C1067 C 0.77547 0.64277 0.21565 0.0
C1068 C 0.80369 0.64983 0.20368 0.0
C1069 C 0.74948 0.64644 0.19856 0.0
C1070 C 0.80594 0.65725 0.1733 0.0
C1071 C 0.78012 0.66009 0.15578 0.0
H1072 H 0.38416 0.79661 0.19053 0.0
H1073 H 0.31103 0.84713 0.15211 0.0
H1074 H 0.29271 0.80186 0.12771 0.0
H1075 H 0.29236 0.7475 0.12546 0.0
H1076 H 0.36148 0.69615 0.16959 0.0
H1077 H 0.3868 0.74256 0.18365 0.0
C1078 C 0.36446 0.79797 0.17638 0.0
C1079 C 0.34853 0.82517 0.17367 0.0
C1080 C 0.35315 0.77165 0.16401 0.0
C1081 C 0.32355 0.82654 0.15472 0.0
C1082 C 0.31293 0.80059 0.14106 0.0
C1083 C 0.31317 0.74633 0.13791 0.0
C1084 C 0.32472 0.71844 0.14718 0.0
C1085 C 0.32671 0.77291 0.14689 0.0
C1086 C 0.35206 0.71732 0.16249 0.0
C1087 C 0.36638 0.74384 0.17062 0.0
H1088 H 0.7141 0.2911 0.1448 0.0
H1089 H 0.68338 0.34971 0.21521 0.0
H1090 H 0.65751 0.30763 0.23856 0.0
H1091 H 0.64916 0.25383 0.24196 0.0
H1092 H 0.68483 0.19465 0.17446 0.0
H1093 H 0.70412 0.23783 0.14709 0.0
C1094 C 0.70149 0.29501 0.16511 0.0
C1095 C 0.70095 0.32368 0.17841 0.0
C1096 C 0.68824 0.27055 0.17917 0.0
C1097 C 0.68417 0.32805 0.20449 0.0
C1098 C 0.66968 0.3039 0.21797 0.0
C1099 C 0.6609 0.25021 0.22109 0.0
C1100 C 0.66566 0.2209 0.21029 0.0
C1101 C 0.67247 0.27496 0.206 0.0
C1102 C 0.68104 0.21684 0.18333 0.0
C1103 C 0.69196 0.24153 0.16769 0.0
loop_
_geom_bond_atom_site_label_1
_geom_bond_atom_site_label_2
_geom_bond_distance
_geom_bond_site_symmetry_2
_ccdc_geom_bond_type
O0 Cd1 2.223 . S
O0 C8 1.315 . S
Cd1 O0 2.223 . S
Cd1 O4 2.297 . S
Cd1 O5 2.439 . S
Cd1 O11 2.240 . S
Cd2 O3 2.240 . S
Cd2 O10 2.223 . S
Cd2 O12 2.297 . S
Cd2 O13 2.439 . S
O3 Cd2 2.240 . S
O3 C8 1.279 . S
O4 Cd1 2.297 . S
O4 C6 1.247 . S
O5 Cd1 2.439 . S
O5 C6 1.208 . S
C6 O4 1.247 . S
C6 O5 1.208 . S
C7 O12 1.247 . S
C7 O13 1.208 . S
C8 O0 1.315 . S
C8 O3 1.279 . S
C9 O10 1.315 . S
C9 O11 1.279 . S
O10 Cd2 2.223 . S
O10 C9 1.315 . S
O11 Cd1 2.240 . S
O11 C9 1.279 . S
O12 Cd2 2.297 . S
O12 C7 1.247 . S
O13 Cd2 2.439 . S
O13 C7 1.208 . S
O14 Cd15 2.223 . S
O14 C22 1.315 . S
Cd15 O14 2.223 . S
Cd15 O18 2.297 . S
Cd15 O19 2.439 . S
Cd15 O25 2.240 . S
Cd16 O17 2.240 . S
Cd16 O24 2.223 . S
Cd16 O26 2.297 . S
Cd16 O27 2.439 . S
O17 Cd16 2.240 . S
O17 C22 1.279 . S
O18 Cd15 2.297 . S
O18 C20 1.247 . S
O19 Cd15 2.439 . S
O19 C20 1.208 . S
C20 O18 1.247 . S
C20 O19 1.208 . S
C21 O26 1.247 . S
C21 O27 1.208 . S
C22 O14 1.315 . S
C22 O17 1.279 . S
C23 O24 1.315 . S
C23 O25 1.279 . S
O24 Cd16 2.223 . S
O24 C23 1.315 . S
O25 Cd15 2.240 . S
O25 C23 1.279 . S
O26 Cd16 2.297 . S
O26 C21 1.247 . S
O27 Cd16 2.439 . S
O27 C21 1.208 . S
O28 Cd29 2.223 . S
O28 C36 1.315 . S
Cd29 O28 2.223 . S
Cd29 O32 2.297 . S
Cd29 O33 2.439 . S
Cd29 O39 2.240 . S
Cd30 O31 2.240 . S
Cd30 O38 2.223 . S
Cd30 O40 2.297 . S
Cd30 O41 2.439 . S
O31 Cd30 2.240 . S
O31 C36 1.279 . S
O32 Cd29 2.297 . S
O32 C34 1.247 . S
O33 Cd29 2.439 . S
O33 C34 1.208 . S
C34 O32 1.247 . S
C34 O33 1.208 . S
C35 O40 1.247 . S
C35 O41 1.208 . S
C36 O28 1.315 . S
C36 O31 1.279 . S
C37 O38 1.315 . S
C37 O39 1.279 . S
O38 Cd30 2.223 . S
O38 C37 1.315 . S
O39 Cd29 2.240 . S
O39 C37 1.279 . S
O40 Cd30 2.297 . S
O40 C35 1.247 . S
O41 Cd30 2.439 . S
O41 C35 1.208 . S
O42 Cd43 2.223 . S
O42 C50 1.315 . S
Cd43 O42 2.223 . S
Cd43 O46 2.297 . S
Cd43 O47 2.439 . S
Cd43 O53 2.240 . S
Cd44 O45 2.240 . S
Cd44 O52 2.223 . S
Cd44 O54 2.297 . S
Cd44 O55 2.439 . S
O45 Cd44 2.240 . S
O45 C50 1.279 . S
O46 Cd43 2.297 . S
O46 C48 1.247 . S
O47 Cd43 2.439 . S
O47 C48 1.208 . S
C48 O46 1.247 . S
C48 O47 1.208 . S
C49 O54 1.247 . S
C49 O55 1.208 . S
C50 O42 1.315 . S
C50 O45 1.279 . S
C51 O52 1.315 . S
C51 O53 1.279 . S
O52 Cd44 2.223 . S
O52 C51 1.315 . S
O53 Cd43 2.240 . S
O53 C51 1.279 . S
O54 Cd44 2.297 . S
O54 C49 1.247 . S
O55 Cd44 2.439 . S
O55 C49 1.208 . S
O56 Cd57 2.223 . S
O56 C64 1.315 . S
Cd57 O56 2.223 . S
Cd57 O60 2.297 . S
Cd57 O61 2.439 . S
Cd57 O67 2.240 . S
Cd58 O59 2.240 . S
Cd58 O66 2.223 . S
Cd58 O68 2.297 . S
Cd58 O69 2.439 . S
O59 Cd58 2.240 . S
O59 C64 1.279 . S
O60 Cd57 2.297 . S
O60 C62 1.247 . S
O61 Cd57 2.439 . S
O61 C62 1.208 . S
C62 O60 1.247 . S
C62 O61 1.208 . S
C63 O68 1.247 . S
C63 O69 1.208 . S
C64 O56 1.315 . S
C64 O59 1.279 . S
C65 O66 1.315 . S
C65 O67 1.279 . S
O66 Cd58 2.223 . S
O66 C65 1.315 . S
O67 Cd57 2.240 . S
O67 C65 1.279 . S
O68 Cd58 2.297 . S
O68 C63 1.247 . S
O69 Cd58 2.439 . S
O69 C63 1.208 . S
O70 Cd71 2.223 . S
O70 C78 1.315 . S
Cd71 O70 2.223 . S
Cd71 O74 2.297 . S
Cd71 O75 2.439 . S
Cd71 O81 2.240 . S
Cd72 O73 2.240 . S
Cd72 O80 2.223 . S
Cd72 O82 2.297 . S
Cd72 O83 2.439 . S
O73 Cd72 2.240 . S
O73 C78 1.279 . S
O74 Cd71 2.297 . S
O74 C76 1.247 . S
O75 Cd71 2.439 . S
O75 C76 1.208 . S
C76 O74 1.247 . S
C76 O75 1.208 . S
C77 O82 1.247 . S
C77 O83 1.208 . S
C78 O70 1.315 . S
C78 O73 1.279 . S
C79 O80 1.315 . S
C79 O81 1.279 . S
O80 Cd72 2.223 . S
O80 C79 1.315 . S
O81 Cd71 2.240 . S
O81 C79 1.279 . S
O82 Cd72 2.297 . S
O82 C77 1.247 . S
O83 Cd72 2.439 . S
O83 C77 1.208 . S
O84 Cd85 2.223 . S
O84 C92 1.315 . S
Cd85 O84 2.223 . S
Cd85 O88 2.297 . S
Cd85 O89 2.439 . S
Cd85 O95 2.240 . S
Cd86 O87 2.240 . S
Cd86 O94 2.223 . S
Cd86 O96 2.297 . S
Cd86 O97 2.439 . S
O87 Cd86 2.240 . S
O87 C92 1.279 . S
O88 Cd85 2.297 . S
O88 C90 1.247 . S
O89 Cd85 2.439 . S
O89 C90 1.208 . S
C90 O88 1.247 . S
C90 O89 1.208 . S
C91 O96 1.247 . S
C91 O97 1.208 . S
C92 O84 1.315 . S
C92 O87 1.279 . S
C93 O94 1.315 . S
C93 O95 1.279 . S
O94 Cd86 2.223 . S
O94 C93 1.315 . S
O95 Cd85 2.240 . S
O95 C93 1.279 . S
O96 Cd86 2.297 . S
O96 C91 1.247 . S
O97 Cd86 2.439 . S
O97 C91 1.208 . S
O98 Cd99 2.223 . S
O98 C106 1.315 . S
Cd99 O98 2.223 . S
Cd99 O102 2.297 . S
Cd99 O103 2.439 . S
Cd99 O109 2.240 . S
Cd100 O101 2.240 . S
Cd100 O108 2.223 . S
Cd100 O110 2.297 . S
Cd100 O111 2.439 . S
O101 Cd100 2.240 . S
O101 C106 1.279 . S
O102 Cd99 2.297 . S
O102 C104 1.247 . S
O103 Cd99 2.439 . S
O103 C104 1.208 . S
C104 O102 1.247 . S
C104 O103 1.208 . S
C105 O110 1.247 . S
C105 O111 1.208 . S
C106 O98 1.315 . S
C106 O101 1.279 . S
C107 O108 1.315 . S
C107 O109 1.279 . S
O108 Cd100 2.223 . S
O108 C107 1.315 . S
O109 Cd99 2.240 . S
O109 C107 1.279 . S
O110 Cd100 2.297 . S
O110 C105 1.247 . S
O111 Cd100 2.439 . S
O111 C105 1.208 . S
O112 Cd113 2.223 . S
O112 C120 1.315 . S
Cd113 O112 2.223 . S
Cd113 O116 2.297 . S
Cd113 O117 2.439 . S
Cd113 O123 2.240 . S
Cd114 O115 2.240 . S
Cd114 O122 2.223 . S
Cd114 O124 2.297 . S
Cd114 O125 2.439 . S
O115 Cd114 2.240 . S
O115 C120 1.279 . S
O116 Cd113 2.297 . S
O116 C118 1.247 . S
O117 Cd113 2.439 . S
O117 C118 1.208 . S
C118 O116 1.247 . S
C118 O117 1.208 . S
C119 O124 1.247 . S
C119 O125 1.208 . S
C120 O112 1.315 . S
C120 O115 1.279 . S
C121 O122 1.315 . S
C121 O123 1.279 . S
O122 Cd114 2.223 . S
O122 C121 1.315 . S
O123 Cd113 2.240 . S
O123 C121 1.279 . S
O124 Cd114 2.297 . S
O124 C119 1.247 . S
O125 Cd114 2.439 . S
O125 C119 1.208 . S
O126 Cd127 2.223 . S
O126 C134 1.315 . S
Cd127 O126 2.223 . S
Cd127 O130 2.297 . S
Cd127 O131 2.439 . S
Cd127 O137 2.240 . S
Cd128 O129 2.240 . S
Cd128 O136 2.223 . S
Cd128 O138 2.297 . S
Cd128 O139 2.439 . S
O129 Cd128 2.240 . S
O129 C134 1.279 . S
O130 Cd127 2.297 . S
O130 C132 1.247 . S
O131 Cd127 2.439 . S
O131 C132 1.208 . S
C132 O130 1.247 . S
C132 O131 1.208 . S
C133 O138 1.247 . S
C133 O139 1.208 . S
C134 O126 1.315 . S
C134 O129 1.279 . S
C135 O136 1.315 . S
C135 O137 1.279 . S
O136 Cd128 2.223 . S
O136 C135 1.315 . S
O137 Cd127 2.240 . S
O137 C135 1.279 . S
O138 Cd128 2.297 . S
O138 C133 1.247 . S
O139 Cd128 2.439 . S
O139 C133 1.208 . S
O140 Cd141 2.223 . S
O140 C148 1.315 . S
Cd141 O140 2.223 . S
Cd141 O144 2.297 . S
Cd141 O145 2.439 . S
Cd141 O151 2.240 . S
Cd142 O143 2.240 . S
Cd142 O150 2.223 . S
Cd142 O152 2.297 . S
Cd142 O153 2.439 . S
O143 Cd142 2.240 . S
O143 C148 1.279 . S
O144 Cd141 2.297 . S
O144 C146 1.247 . S
O145 Cd141 2.439 . S
O145 C146 1.208 . S
C146 O144 1.247 . S
C146 O145 1.208 . S
C147 O152 1.247 . S
C147 O153 1.208 . S
C148 O140 1.315 . S
C148 O143 1.279 . S
C149 O150 1.315 . S
C149 O151 1.279 . S
O150 Cd142 2.223 . S
O150 C149 1.315 . S
O151 Cd141 2.240 . S
O151 C149 1.279 . S
O152 Cd142 2.297 . S
O152 C147 1.247 . S
O153 Cd142 2.439 . S
O153 C147 1.208 . S
O154 Cd155 2.223 . S
O154 C162 1.315 . S
Cd155 O154 2.223 . S
Cd155 O158 2.297 . S
Cd155 O159 2.439 . S
Cd155 O165 2.240 . S
Cd156 O157 2.240 . S
Cd156 O164 2.223 . S
Cd156 O166 2.297 . S
Cd156 O167 2.439 . S
O157 Cd156 2.240 . S
O157 C162 1.279 . S
O158 Cd155 2.297 . S
O158 C160 1.247 . S
O159 Cd155 2.439 . S
O159 C160 1.208 . S
C160 O158 1.247 . S
C160 O159 1.208 . S
C161 O166 1.247 . S
C161 O167 1.208 . S
C162 O154 1.315 . S
C162 O157 1.279 . S
C163 O164 1.315 . S
C163 O165 1.279 . S
O164 Cd156 2.223 . S
O164 C163 1.315 . S
O165 Cd155 2.240 . S
O165 C163 1.279 . S
O166 Cd156 2.297 . S
O166 C161 1.247 . S
O167 Cd156 2.439 . S
O167 C161 1.208 . S
O168 Cd169 2.223 . S
O168 C176 1.315 . S
Cd169 O168 2.223 . S
Cd169 O172 2.297 . S
Cd169 O173 2.439 . S
Cd169 O179 2.240 . S
Cd170 O171 2.240 . S
Cd170 O178 2.223 . S
Cd170 O180 2.297 . S
Cd170 O181 2.439 . S
O171 Cd170 2.240 . S
O171 C176 1.279 . S
O172 Cd169 2.297 . S
O172 C174 1.247 . S
O173 Cd169 2.439 . S
O173 C174 1.208 . S
C174 O172 1.247 . S
C174 O173 1.208 . S
C175 O180 1.247 . S
C175 O181 1.208 . S
C176 O168 1.315 . S
C176 O171 1.279 . S
C177 O178 1.315 . S
C177 O179 1.279 . S
O178 Cd170 2.223 . S
O178 C177 1.315 . S
O179 Cd169 2.240 . S
O179 C177 1.279 . S
O180 Cd170 2.297 . S
O180 C175 1.247 . S
O181 Cd170 2.439 . S
O181 C175 1.208 . S
O182 Cd183 2.223 . S
O182 C190 1.315 . S
Cd183 O182 2.223 . S
Cd183 O186 2.297 . S
Cd183 O187 2.439 . S
Cd183 O193 2.240 . S
Cd184 O185 2.240 . S
Cd184 O192 2.223 . S
Cd184 O194 2.297 . S
Cd184 O195 2.439 . S
O185 Cd184 2.240 . S
O185 C190 1.279 . S
O186 Cd183 2.297 . S
O186 C188 1.247 . S
O187 Cd183 2.439 . S
O187 C188 1.208 . S
C188 O186 1.247 . S
C188 O187 1.208 . S
C189 O194 1.247 . S
C189 O195 1.208 . S
C190 O182 1.315 . S
C190 O185 1.279 . S
C191 O192 1.315 . S
C191 O193 1.279 . S
O192 Cd184 2.223 . S
O192 C191 1.315 . S
O193 Cd183 2.240 . S
O193 C191 1.279 . S
O194 Cd184 2.297 . S
O194 C189 1.247 . S
O195 Cd184 2.439 . S
O195 C189 1.208 . S
O196 Cd197 2.223 . S
O196 C204 1.315 . S
Cd197 O196 2.223 . S
Cd197 O200 2.297 . S
Cd197 O201 2.439 . S
Cd197 O207 2.240 . S
Cd198 O199 2.240 . S
Cd198 O206 2.223 . S
Cd198 O208 2.297 . S
Cd198 O209 2.439 . S
O199 Cd198 2.240 . S
O199 C204 1.279 . S
O200 Cd197 2.297 . S
O200 C202 1.247 . S
O201 Cd197 2.439 . S
O201 C202 1.208 . S
C202 O200 1.247 . S
C202 O201 1.208 . S
C203 O208 1.247 . S
C203 O209 1.208 . S
C204 O196 1.315 . S
C204 O199 1.279 . S
C205 O206 1.315 . S
C205 O207 1.279 . S
O206 Cd198 2.223 . S
O206 C205 1.315 . S
O207 Cd197 2.240 . S
O207 C205 1.279 . S
O208 Cd198 2.297 . S
O208 C203 1.247 . S
O209 Cd198 2.439 . S
O209 C203 1.208 . S
O210 Cd211 2.223 . S
O210 C218 1.315 . S
Cd211 O210 2.223 . S
Cd211 O214 2.297 . S
Cd211 O215 2.439 . S
Cd211 O221 2.240 . S
Cd212 O213 2.240 . S
Cd212 O220 2.223 . S
Cd212 O222 2.297 . S
Cd212 O223 2.439 . S
O213 Cd212 2.240 . S
O213 C218 1.279 . S
O214 Cd211 2.297 . S
O214 C216 1.247 . S
O215 Cd211 2.439 . S
O215 C216 1.208 . S
C216 O214 1.247 . S
C216 O215 1.208 . S
C217 O222 1.247 . S
C217 O223 1.208 . S
C218 O210 1.315 . S
C218 O213 1.279 . S
C219 O220 1.315 . S
C219 O221 1.279 . S
O220 Cd212 2.223 . S
O220 C219 1.315 . S
O221 Cd211 2.240 . S
O221 C219 1.279 . S
O222 Cd212 2.297 . S
O222 C217 1.247 . S
O223 Cd212 2.439 . S
O223 C217 1.208 . S
O224 Cd225 2.223 . S
O224 C232 1.315 . S
Cd225 O224 2.223 . S
Cd225 O228 2.297 . S
Cd225 O229 2.439 . S
Cd225 O235 2.240 . S
Cd226 O227 2.240 . S
Cd226 O234 2.223 . S
Cd226 O236 2.297 . S
Cd226 O237 2.439 . S
O227 Cd226 2.240 . S
O227 C232 1.279 . S
O228 Cd225 2.297 . S
O228 C230 1.247 . S
O229 Cd225 2.439 . S
O229 C230 1.208 . S
C230 O228 1.247 . S
C230 O229 1.208 . S
C231 O236 1.247 . S
C231 O237 1.208 . S
C232 O224 1.315 . S
C232 O227 1.279 . S
C233 O234 1.315 . S
C233 O235 1.279 . S
O234 Cd226 2.223 . S
O234 C233 1.315 . S
O235 Cd225 2.240 . S
O235 C233 1.279 . S
O236 Cd226 2.297 . S
O236 C231 1.247 . S
O237 Cd226 2.439 . S
O237 C231 1.208 . S
O238 Cd239 2.223 . S
O238 C246 1.315 . S
Cd239 O238 2.223 . S
Cd239 O242 2.297 . S
Cd239 O243 2.439 . S
Cd239 O249 2.240 . S
Cd240 O241 2.240 . S
Cd240 O248 2.223 . S
Cd240 O250 2.297 . S
Cd240 O251 2.439 . S
O241 Cd240 2.240 . S
O241 C246 1.279 . S
O242 Cd239 2.297 . S
O242 C244 1.247 . S
O243 Cd239 2.439 . S
O243 C244 1.208 . S
C244 O242 1.247 . S
C244 O243 1.208 . S
C245 O250 1.247 . S
C245 O251 1.208 . S
C246 O238 1.315 . S
C246 O241 1.279 . S
C247 O248 1.315 . S
C247 O249 1.279 . S
O248 Cd240 2.223 . S
O248 C247 1.315 . S
O249 Cd239 2.240 . S
O249 C247 1.279 . S
O250 Cd240 2.297 . S
O250 C245 1.247 . S
O251 Cd240 2.439 . S
O251 C245 1.208 . S
O252 Cd253 2.223 . S
O252 C260 1.315 . S
Cd253 O252 2.223 . S
Cd253 O256 2.297 . S
Cd253 O257 2.439 . S
Cd253 O263 2.240 . S
Cd254 O255 2.240 . S
Cd254 O262 2.223 . S
Cd254 O264 2.297 . S
Cd254 O265 2.439 . S
O255 Cd254 2.240 . S
O255 C260 1.279 . S
O256 Cd253 2.297 . S
O256 C258 1.247 . S
O257 Cd253 2.439 . S
O257 C258 1.208 . S
C258 O256 1.247 . S
C258 O257 1.208 . S
C259 O264 1.247 . S
C259 O265 1.208 . S
C260 O252 1.315 . S
C260 O255 1.279 . S
C261 O262 1.315 . S
C261 O263 1.279 . S
O262 Cd254 2.223 . S
O262 C261 1.315 . S
O263 Cd253 2.240 . S
O263 C261 1.279 . S
O264 Cd254 2.297 . S
O264 C259 1.247 . S
O265 Cd254 2.439 . S
O265 C259 1.208 . S
O266 Cd267 2.223 . S
O266 C274 1.315 . S
Cd267 O266 2.223 . S
Cd267 O270 2.297 . S
Cd267 O271 2.439 . S
Cd267 O277 2.240 . S
Cd268 O269 2.240 . S
Cd268 O276 2.223 . S
Cd268 O278 2.297 . S
Cd268 O279 2.439 . S
O269 Cd268 2.240 . S
O269 C274 1.279 . S
O270 Cd267 2.297 . S
O270 C272 1.247 . S
O271 Cd267 2.439 . S
O271 C272 1.208 . S
C272 O270 1.247 . S
C272 O271 1.208 . S
C273 O278 1.247 . S
C273 O279 1.208 . S
C274 O266 1.315 . S
C274 O269 1.279 . S
C275 O276 1.315 . S
C275 O277 1.279 . S
O276 Cd268 2.223 . S
O276 C275 1.315 . S
O277 Cd267 2.240 . S
O277 C275 1.279 . S
O278 Cd268 2.297 . S
O278 C273 1.247 . S
O279 Cd268 2.439 . S
O279 C273 1.208 . S
O280 Cd281 2.223 . S
O280 C288 1.315 . S
Cd281 O280 2.223 . S
Cd281 O284 2.297 . S
Cd281 O285 2.439 . S
Cd281 O291 2.240 . S
Cd282 O283 2.240 . S
Cd282 O290 2.223 . S
Cd282 O292 2.297 . S
Cd282 O293 2.439 . S
O283 Cd282 2.240 . S
O283 C288 1.279 . S
O284 Cd281 2.297 . S
O284 C286 1.247 . S
O285 Cd281 2.439 . S
O285 C286 1.208 . S
C286 O284 1.247 . S
C286 O285 1.208 . S
C287 O292 1.247 . S
C287 O293 1.208 . S
C288 O280 1.315 . S
C288 O283 1.279 . S
C289 O290 1.315 . S
C289 O291 1.279 . S
O290 Cd282 2.223 . S
O290 C289 1.315 . S
O291 Cd281 2.240 . S
O291 C289 1.279 . S
O292 Cd282 2.297 . S
O292 C287 1.247 . S
O293 Cd282 2.439 . S
O293 C287 1.208 . S
O294 Cd295 2.223 . S
O294 C302 1.315 . S
Cd295 O294 2.223 . S
Cd295 O298 2.297 . S
Cd295 O299 2.439 . S
Cd295 O305 2.240 . S
Cd296 O297 2.240 . S
Cd296 O304 2.223 . S
Cd296 O306 2.297 . S
Cd296 O307 2.439 . S
O297 Cd296 2.240 . S
O297 C302 1.279 . S
O298 Cd295 2.297 . S
O298 C300 1.247 . S
O299 Cd295 2.439 . S
O299 C300 1.208 . S
C300 O298 1.247 . S
C300 O299 1.208 . S
C301 O306 1.247 . S
C301 O307 1.208 . S
C302 O294 1.315 . S
C302 O297 1.279 . S
C303 O304 1.315 . S
C303 O305 1.279 . S
O304 Cd296 2.223 . S
O304 C303 1.315 . S
O305 Cd295 2.240 . S
O305 C303 1.279 . S
O306 Cd296 2.297 . S
O306 C301 1.247 . S
O307 Cd296 2.439 . S
O307 C301 1.208 . S
O308 Cd309 2.223 . S
O308 C316 1.315 . S
Cd309 O308 2.223 . S
Cd309 O312 2.297 . S
Cd309 O313 2.439 . S
Cd309 O319 2.240 . S
Cd310 O311 2.240 . S
Cd310 O318 2.223 . S
Cd310 O320 2.297 . S
Cd310 O321 2.439 . S
O311 Cd310 2.240 . S
O311 C316 1.279 . S
O312 Cd309 2.297 . S
O312 C314 1.247 . S
O313 Cd309 2.439 . S
O313 C314 1.208 . S
C314 O312 1.247 . S
C314 O313 1.208 . S
C315 O320 1.247 . S
C315 O321 1.208 . S
C316 O308 1.315 . S
C316 O311 1.279 . S
C317 O318 1.315 . S
C317 O319 1.279 . S
O318 Cd310 2.223 . S
O318 C317 1.315 . S
O319 Cd309 2.240 . S
O319 C317 1.279 . S
O320 Cd310 2.297 . S
O320 C315 1.247 . S
O321 Cd310 2.439 . S
O321 C315 1.208 . S
O322 Cd323 2.223 . S
O322 C330 1.315 . S
Cd323 O322 2.223 . S
Cd323 O326 2.297 . S
Cd323 O327 2.439 . S
Cd323 O333 2.240 . S
Cd324 O325 2.240 . S
Cd324 O332 2.223 . S
Cd324 O334 2.297 . S
Cd324 O335 2.439 . S
O325 Cd324 2.240 . S
O325 C330 1.279 . S
O326 Cd323 2.297 . S
O326 C328 1.247 . S
O327 Cd323 2.439 . S
O327 C328 1.208 . S
C328 O326 1.247 . S
C328 O327 1.208 . S
C329 O334 1.247 . S
C329 O335 1.208 . S
C330 O322 1.315 . S
C330 O325 1.279 . S
C331 O332 1.315 . S
C331 O333 1.279 . S
O332 Cd324 2.223 . S
O332 C331 1.315 . S
O333 Cd323 2.240 . S
O333 C331 1.279 . S
O334 Cd324 2.297 . S
O334 C329 1.247 . S
O335 Cd324 2.439 . S
O335 C329 1.208 . S
H336 C342 0.930 . S
H337 C345 0.930 . S
H338 C346 0.930 . S
H339 C347 0.930 . S
H340 C350 0.930 . S
H341 C351 0.930 . S
C342 H336 0.930 . S
C342 C343 1.355 . S
C342 C344 1.415 . S
C343 C342 1.355 . S
C343 C345 1.419 . S
C344 C342 1.415 . S
C344 C349 1.425 . S
C344 C351 1.409 . S
C345 H337 0.930 . S
C345 C343 1.419 . S
C345 C346 1.362 . S
C346 H338 0.930 . S
C346 C345 1.362 . S
C346 C349 1.409 . S
C347 H339 0.930 . S
C347 C348 1.355 . S
C347 C349 1.415 . S
C348 C347 1.355 . S
C348 C350 1.419 . S
C349 C344 1.425 . S
C349 C346 1.409 . S
C349 C347 1.415 . S
C350 H340 0.930 . S
C350 C348 1.419 . S
C350 C351 1.362 . S
C351 H341 0.930 . S
C351 C344 1.409 . S
C351 C350 1.362 . S
H352 C358 0.930 . S
H353 C361 0.930 . S
H354 C362 0.930 . S
H355 C363 0.930 . S
H356 C366 0.930 . S
H357 C367 0.930 . S
C358 H352 0.930 . S
C358 C359 1.355 . S
C358 C360 1.415 . S
C359 C358 1.355 . S
C359 C361 1.419 . S
C360 C358 1.415 . S
C360 C365 1.425 . S
C360 C367 1.409 . S
C361 H353 0.930 . S
C361 C359 1.419 . S
C361 C362 1.362 . S
C362 H354 0.930 . S
C362 C361 1.362 . S
C362 C365 1.409 . S
C363 H355 0.930 . S
C363 C364 1.355 . S
C363 C365 1.415 . S
C364 C363 1.355 . S
C364 C366 1.419 . S
C365 C360 1.425 . S
C365 C362 1.409 . S
C365 C363 1.415 . S
C366 H356 0.930 . S
C366 C364 1.419 . S
C366 C367 1.362 . S
C367 H357 0.930 . S
C367 C360 1.409 . S
C367 C366 1.362 . S
H368 C374 0.930 . S
H369 C377 0.930 . S
H370 C378 0.930 . S
H371 C379 0.930 . S
H372 C382 0.930 . S
H373 C383 0.930 . S
C374 H368 0.930 . S
C374 C375 1.355 . S
C374 C376 1.415 . S
C375 C374 1.355 . S
C375 C377 1.419 . S
C376 C374 1.415 . S
C376 C381 1.425 . S
C376 C383 1.409 . S
C377 H369 0.930 . S
C377 C375 1.419 . S
C377 C378 1.362 . S
C378 H370 0.930 . S
C378 C377 1.362 . S
C378 C381 1.409 . S
C379 H371 0.930 . S
C379 C380 1.355 . S
C379 C381 1.415 . S
C380 C379 1.355 . S
C380 C382 1.419 . S
C381 C376 1.425 . S
C381 C378 1.409 . S
C381 C379 1.415 . S
C382 H372 0.930 . S
C382 C380 1.419 . S
C382 C383 1.362 . S
C383 H373 0.930 . S
C383 C376 1.409 . S
C383 C382 1.362 . S
H384 C390 0.930 . S
H385 C393 0.930 . S
H386 C394 0.930 . S
H387 C395 0.930 . S
H388 C398 0.930 . S
H389 C399 0.930 . S
C390 H384 0.930 . S
C390 C391 1.355 . S
C390 C392 1.415 . S
C391 C390 1.355 . S
C391 C393 1.419 . S
C392 C390 1.415 . S
C392 C397 1.425 . S
C392 C399 1.409 . S
C393 H385 0.930 . S
C393 C391 1.419 . S
C393 C394 1.362 . S
C394 H386 0.930 . S
C394 C393 1.362 . S
C394 C397 1.409 . S
C395 H387 0.930 . S
C395 C396 1.355 . S
C395 C397 1.415 . S
C396 C395 1.355 . S
C396 C398 1.419 . S
C397 C392 1.425 . S
C397 C394 1.409 . S
C397 C395 1.415 . S
C398 H388 0.930 . S
C398 C396 1.419 . S
C398 C399 1.362 . S
C399 H389 0.930 . S
C399 C392 1.409 . S
C399 C398 1.362 . S
H400 C406 0.930 . S
H401 C409 0.930 . S
H402 C410 0.930 . S
H403 C411 0.930 . S
H404 C414 0.930 . S
H405 C415 0.930 . S
C406 H400 0.930 . S
C406 C407 1.355 . S
C406 C408 1.415 . S
C407 C406 1.355 . S
C407 C409 1.419 . S
C408 C406 1.415 . S
C408 C413 1.425 . S
C408 C415 1.409 . S
C409 H401 0.930 . S
C409 C407 1.419 . S
C409 C410 1.362 . S
C410 H402 0.930 . S
C410 C409 1.362 . S
C410 C413 1.409 . S
C411 H403 0.930 . S
C411 C412 1.355 . S
C411 C413 1.415 . S
C412 C411 1.355 . S
C412 C414 1.419 . S
C413 C408 1.425 . S
C413 C410 1.409 . S
C413 C411 1.415 . S
C414 H404 0.930 . S
C414 C412 1.419 . S
C414 C415 1.362 . S
C415 H405 0.930 . S
C415 C408 1.409 . S
C415 C414 1.362 . S
H416 C422 0.930 . S
H417 C425 0.930 . S
H418 C426 0.930 . S
H419 C427 0.930 . S
H420 C430 0.930 . S
H421 C431 0.930 . S
C422 H416 0.930 . S
C422 C423 1.355 . S
C422 C424 1.415 . S
C423 C422 1.355 . S
C423 C425 1.419 . S
C424 C422 1.415 . S
C424 C429 1.425 . S
C424 C431 1.409 . S
C425 H417 0.930 . S
C425 C423 1.419 . S
C425 C426 1.362 . S
C426 H418 0.930 . S
C426 C425 1.362 . S
C426 C429 1.409 . S
C427 H419 0.930 . S
C427 C428 1.355 . S
C427 C429 1.415 . S
C428 C427 1.355 . S
C428 C430 1.419 . S
C429 C424 1.425 . S
C429 C426 1.409 . S
C429 C427 1.415 . S
C430 H420 0.930 . S
C430 C428 1.419 . S
C430 C431 1.362 . S
C431 H421 0.930 . S
C431 C424 1.409 . S
C431 C430 1.362 . S
H432 C438 0.930 . S
H433 C441 0.930 . S
H434 C442 0.930 . S
H435 C443 0.930 . S
H436 C446 0.930 . S
H437 C447 0.930 . S
C438 H432 0.930 . S
C438 C439 1.355 . S
C438 C440 1.415 . S
C439 C438 1.355 . S
C439 C441 1.419 . S
C440 C438 1.415 . S
C440 C445 1.425 . S
C440 C447 1.409 . S
C441 H433 0.930 . S
C441 C439 1.419 . S
C441 C442 1.362 . S
C442 H434 0.930 . S
C442 C441 1.362 . S
C442 C445 1.409 . S
C443 H435 0.930 . S
C443 C444 1.355 . S
C443 C445 1.415 . S
C444 C443 1.355 . S
C444 C446 1.419 . S
C445 C440 1.425 . S
C445 C442 1.409 . S
C445 C443 1.415 . S
C446 H436 0.930 . S
C446 C444 1.419 . S
C446 C447 1.362 . S
C447 H437 0.930 . S
C447 C440 1.409 . S
C447 C446 1.362 . S
H448 C454 0.930 . S
H449 C457 0.930 . S
H450 C458 0.930 . S
H451 C459 0.930 . S
H452 C462 0.930 . S
H453 C463 0.930 . S
C454 H448 0.930 . S
C454 C455 1.355 . S
C454 C456 1.415 . S
C455 C454 1.355 . S
C455 C457 1.419 . S
C456 C454 1.415 . S
C456 C461 1.425 . S
C456 C463 1.409 . S
C457 H449 0.930 . S
C457 C455 1.419 . S
C457 C458 1.362 . S
C458 H450 0.930 . S
C458 C457 1.362 . S
C458 C461 1.409 . S
C459 H451 0.930 . S
C459 C460 1.355 . S
C459 C461 1.415 . S
C460 C459 1.355 . S
C460 C462 1.419 . S
C461 C456 1.425 . S
C461 C458 1.409 . S
C461 C459 1.415 . S
C462 H452 0.930 . S
C462 C460 1.419 . S
C462 C463 1.362 . S
C463 H453 0.930 . S
C463 C456 1.409 . S
C463 C462 1.362 . S
H464 C470 0.930 . S
H465 C473 0.930 . S
H466 C474 0.930 . S
H467 C475 0.930 . S
H468 C478 0.930 . S
H469 C479 0.930 . S
C470 H464 0.930 . S
C470 C471 1.355 . S
C470 C472 1.415 . S
C471 C470 1.355 . S
C471 C473 1.419 . S
C472 C470 1.415 . S
C472 C477 1.425 . S
C472 C479 1.409 . S
C473 H465 0.930 . S
C473 C471 1.419 . S
C473 C474 1.362 . S
C474 H466 0.930 . S
C474 C473 1.362 . S
C474 C477 1.409 . S
C475 H467 0.930 . S
C475 C476 1.355 . S
C475 C477 1.415 . S
C476 C475 1.355 . S
C476 C478 1.419 . S
C477 C472 1.425 . S
C477 C474 1.409 . S
C477 C475 1.415 . S
C478 H468 0.930 . S
C478 C476 1.419 . S
C478 C479 1.362 . S
C479 H469 0.930 . S
C479 C472 1.409 . S
C479 C478 1.362 . S
H480 C486 0.930 . S
H481 C489 0.930 . S
H482 C490 0.930 . S
H483 C491 0.930 . S
H484 C494 0.930 . S
H485 C495 0.930 . S
C486 H480 0.930 . S
C486 C487 1.355 . S
C486 C488 1.415 . S
C487 C486 1.355 . S
C487 C489 1.419 . S
C488 C486 1.415 . S
C488 C493 1.425 . S
C488 C495 1.409 . S
C489 H481 0.930 . S
C489 C487 1.419 . S
C489 C490 1.362 . S
C490 H482 0.930 . S
C490 C489 1.362 . S
C490 C493 1.409 . S
C491 H483 0.930 . S
C491 C492 1.355 . S
C491 C493 1.415 . S
C492 C491 1.355 . S
C492 C494 1.419 . S
C493 C488 1.425 . S
C493 C490 1.409 . S
C493 C491 1.415 . S
C494 H484 0.930 . S
C494 C492 1.419 . S
C494 C495 1.362 . S
C495 H485 0.930 . S
C495 C488 1.409 . S
C495 C494 1.362 . S
H496 C502 0.930 . S
H497 C505 0.930 . S
H498 C506 0.930 . S
H499 C507 0.930 . S
H500 C510 0.930 . S
H501 C511 0.930 . S
C502 H496 0.930 . S
C502 C503 1.355 . S
C502 C504 1.415 . S
C503 C502 1.355 . S
C503 C505 1.419 . S
C504 C502 1.415 . S
C504 C509 1.425 . S
C504 C511 1.409 . S
C505 H497 0.930 . S
C505 C503 1.419 . S
C505 C506 1.362 . S
C506 H498 0.930 . S
C506 C505 1.362 . S
C506 C509 1.409 . S
C507 H499 0.930 . S
C507 C508 1.355 . S
C507 C509 1.415 . S
C508 C507 1.355 . S
C508 C510 1.419 . S
C509 C504 1.425 . S
C509 C506 1.409 . S
C509 C507 1.415 . S
C510 H500 0.930 . S
C510 C508 1.419 . S
C510 C511 1.362 . S
C511 H501 0.930 . S
C511 C504 1.409 . S
C511 C510 1.362 . S
H512 C518 0.930 . S
H513 C521 0.930 . S
H514 C522 0.930 . S
H515 C523 0.930 . S
H516 C526 0.930 . S
H517 C527 0.930 . S
C518 H512 0.930 . S
C518 C519 1.355 . S
C518 C520 1.415 . S
C519 C518 1.355 . S
C519 C521 1.419 . S
C520 C518 1.415 . S
C520 C525 1.425 . S
C520 C527 1.409 . S
C521 H513 0.930 . S
C521 C519 1.419 . S
C521 C522 1.362 . S
C522 H514 0.930 . S
C522 C521 1.362 . S
C522 C525 1.409 . S
C523 H515 0.930 . S
C523 C524 1.355 . S
C523 C525 1.415 . S
C524 C523 1.355 . S
C524 C526 1.419 . S
C525 C520 1.425 . S
C525 C522 1.409 . S
C525 C523 1.415 . S
C526 H516 0.930 . S
C526 C524 1.419 . S
C526 C527 1.362 . S
C527 H517 0.930 . S
C527 C520 1.409 . S
C527 C526 1.362 . S
H528 C534 0.930 . S
H529 C537 0.930 . S
H530 C538 0.930 . S
H531 C539 0.930 . S
H532 C542 0.930 . S
H533 C543 0.930 . S
C534 H528 0.930 . S
C534 C535 1.355 . S
C534 C536 1.415 1_565 S
C535 C534 1.355 . S
C535 C537 1.419 . S
C536 C534 1.415 1_545 S
C536 C541 1.425 1_545 S
C536 C543 1.409 . S
C537 H529 0.930 . S
C537 C535 1.419 . S
C537 C538 1.362 . S
C538 H530 0.930 . S
C538 C537 1.362 . S
C538 C541 1.409 . S
C539 H531 0.930 . S
C539 C540 1.355 . S
C539 C541 1.415 1_545 S
C540 C539 1.355 . S
C540 C542 1.419 . S
C541 C536 1.425 1_565 S
C541 C538 1.409 . S
C541 C539 1.415 1_565 S
C542 H532 0.930 . S
C542 C540 1.419 . S
C542 C543 1.362 . S
C543 H533 0.930 . S
C543 C536 1.409 . S
C543 C542 1.362 . S
H544 C550 0.930 . S
H545 C553 0.930 . S
H546 C554 0.930 1_455 S
H547 C555 0.930 . S
H548 C558 0.930 . S
H549 C559 0.930 1_655 S
C550 H544 0.930 . S
C550 C551 1.355 . S
C550 C552 1.415 . S
C551 C550 1.355 . S
C551 C553 1.419 . S
C552 C550 1.415 . S
C552 C557 1.425 1_655 S
C552 C559 1.409 1_655 S
C553 H545 0.930 . S
C553 C551 1.419 . S
C553 C554 1.362 . S
C554 H546 0.930 1_655 S
C554 C553 1.362 . S
C554 C557 1.409 1_655 S
C555 H547 0.930 . S
C555 C556 1.355 . S
C555 C557 1.415 . S
C556 C555 1.355 . S
C556 C558 1.419 . S
C557 C552 1.425 1_455 S
C557 C554 1.409 1_455 S
C557 C555 1.415 . S
C558 H548 0.930 . S
C558 C556 1.419 . S
C558 C559 1.362 . S
C559 H549 0.930 1_455 S
C559 C552 1.409 1_455 S
C559 C558 1.362 . S
H560 C566 0.930 . S
H561 C569 0.930 . S
H562 C570 0.930 1_565 S
H563 C571 0.930 . S
H564 C574 0.930 . S
H565 C575 0.930 1_545 S
C566 H560 0.930 . S
C566 C567 1.355 . S
C566 C568 1.415 . S
C567 C566 1.355 . S
C567 C569 1.419 . S
C568 C566 1.415 . S
C568 C573 1.425 1_545 S
C568 C575 1.409 1_545 S
C569 H561 0.930 . S
C569 C567 1.419 . S
C569 C570 1.362 . S
C570 H562 0.930 1_545 S
C570 C569 1.362 . S
C570 C573 1.409 1_545 S
C571 H563 0.930 . S
C571 C572 1.355 . S
C571 C573 1.415 . S
C572 C571 1.355 . S
C572 C574 1.419 . S
C573 C568 1.425 1_565 S
C573 C570 1.409 1_565 S
C573 C571 1.415 . S
C574 H564 0.930 . S
C574 C572 1.419 . S
C574 C575 1.362 . S
C575 H565 0.930 1_565 S
C575 C568 1.409 1_565 S
C575 C574 1.362 . S
H576 C582 0.930 . S
H577 C585 0.930 . S
H578 C586 0.930 . S
H579 C587 0.930 . S
H580 C590 0.930 . S
H581 C591 0.930 . S
C582 H576 0.930 . S
C582 C583 1.355 . S
C582 C584 1.415 . S
C583 C582 1.355 . S
C583 C585 1.419 . S
C584 C582 1.415 . S
C584 C589 1.425 1_455 S
C584 C591 1.409 1_455 S
C585 H577 0.930 . S
C585 C583 1.419 . S
C585 C586 1.362 . S
C586 H578 0.930 . S
C586 C585 1.362 . S
C586 C589 1.409 1_455 S
C587 H579 0.930 . S
C587 C588 1.355 . S
C587 C589 1.415 . S
C588 C587 1.355 . S
C588 C590 1.419 . S
C589 C584 1.425 1_655 S
C589 C586 1.409 1_655 S
C589 C587 1.415 . S
C590 H580 0.930 . S
C590 C588 1.419 . S
C590 C591 1.362 . S
C591 H581 0.930 . S
C591 C584 1.409 1_655 S
C591 C590 1.362 . S
H592 C598 0.930 . S
H593 C601 0.930 . S
H594 C602 0.930 1_545 S
H595 C603 0.930 . S
H596 C606 0.930 . S
H597 C607 0.930 1_565 S
C598 H592 0.930 . S
C598 C599 1.355 . S
C598 C600 1.415 . S
C599 C598 1.355 . S
C599 C601 1.419 . S
C600 C598 1.415 . S
C600 C605 1.425 1_565 S
C600 C607 1.409 1_565 S
C601 H593 0.930 . S
C601 C599 1.419 . S
C601 C602 1.362 . S
C602 H594 0.930 1_565 S
C602 C601 1.362 . S
C602 C605 1.409 1_565 S
C603 H595 0.930 . S
C603 C604 1.355 . S
C603 C605 1.415 . S
C604 C603 1.355 . S
C604 C606 1.419 . S
C605 C600 1.425 1_545 S
C605 C602 1.409 1_545 S
C605 C603 1.415 . S
C606 H596 0.930 . S
C606 C604 1.419 . S
C606 C607 1.362 . S
C607 H597 0.930 1_545 S
C607 C600 1.409 1_545 S
C607 C606 1.362 . S
H608 C614 0.930 . S
H609 C617 0.930 . S
H610 C618 0.930 . S
H611 C619 0.930 . S
H612 C622 0.930 . S
H613 C623 0.930 . S
C614 H608 0.930 . S
C614 C615 1.355 . S
C614 C616 1.429 . S
C615 C614 1.355 . S
C615 C617 1.419 . S
C616 C614 1.429 . S
C616 C621 1.424 1_655 S
C616 C623 1.396 1_655 S
C617 H609 0.930 . S
C617 C615 1.419 . S
C617 C618 1.362 . S
C618 H610 0.930 . S
C618 C617 1.362 . S
C618 C621 1.396 1_655 S
C619 H611 0.930 . S
C619 C620 1.355 . S
C619 C621 1.429 . S
C620 C619 1.355 . S
C620 C622 1.419 . S
C621 C616 1.424 1_455 S
C621 C618 1.396 1_455 S
C621 C619 1.429 . S
C622 H612 0.930 . S
C622 C620 1.419 . S
C622 C623 1.362 . S
C623 H613 0.930 . S
C623 C616 1.396 1_455 S
C623 C622 1.362 . S
H624 C630 0.930 . S
H625 C633 0.930 . S
H626 C634 0.930 . S
H627 C635 0.930 . S
H628 C638 0.930 . S
H629 C639 0.930 . S
C630 H624 0.930 . S
C630 C631 1.355 . S
C630 C632 1.415 . S
C631 C630 1.355 . S
C631 C633 1.419 . S
C632 C630 1.415 . S
C632 C637 1.425 1_565 S
C632 C639 1.409 . S
C633 H625 0.930 . S
C633 C631 1.419 . S
C633 C634 1.362 1_565 S
C634 H626 0.930 . S
C634 C633 1.362 1_545 S
C634 C637 1.409 . S
C635 H627 0.930 . S
C635 C636 1.355 . S
C635 C637 1.415 . S
C636 C635 1.355 . S
C636 C638 1.419 . S
C637 C632 1.425 1_545 S
C637 C634 1.409 . S
C637 C635 1.415 . S
C638 H628 0.930 . S
C638 C636 1.419 . S
C638 C639 1.362 1_545 S
C639 H629 0.930 . S
C639 C632 1.409 . S
C639 C638 1.362 1_565 S
H640 C646 0.930 . S
H641 C649 0.930 . S
H642 C650 0.930 . S
H643 C651 0.930 . S
H644 C654 0.930 . S
H645 C655 0.930 . S
C646 H640 0.930 . S
C646 C647 1.355 . S
C646 C648 1.415 1_455 S
C647 C646 1.355 . S
C647 C649 1.419 . S
C648 C646 1.415 1_655 S
C648 C653 1.425 1_655 S
C648 C655 1.409 . S
C649 H641 0.930 . S
C649 C647 1.419 . S
C649 C650 1.362 . S
C650 H642 0.930 . S
C650 C649 1.362 . S
C650 C653 1.409 . S
C651 H643 0.930 . S
C651 C652 1.355 . S
C651 C653 1.415 1_655 S
C652 C651 1.355 . S
C652 C654 1.419 . S
C653 C648 1.425 1_455 S
C653 C650 1.409 . S
C653 C651 1.415 1_455 S
C654 H644 0.930 . S
C654 C652 1.419 . S
C654 C655 1.362 . S
C655 H645 0.930 . S
C655 C648 1.409 . S
C655 C654 1.362 . S
H656 C662 0.930 . S
H657 C665 0.930 . S
H658 C666 0.930 . S
H659 C667 0.930 . S
H660 C670 0.930 . S
H661 C671 0.930 . S
C662 H656 0.930 . S
C662 C663 1.355 . S
C662 C664 1.415 . S
C663 C662 1.355 . S
C663 C665 1.419 . S
C664 C662 1.415 . S
C664 C669 1.425 1_556 S
C664 C671 1.409 . S
C665 H657 0.930 . S
C665 C663 1.419 . S
C665 C666 1.362 1_556 S
C666 H658 0.930 . S
C666 C665 1.362 1_554 S
C666 C669 1.409 . S
C667 H659 0.930 . S
C667 C668 1.355 . S
C667 C669 1.415 . S
C668 C667 1.355 . S
C668 C670 1.419 . S
C669 C664 1.425 1_554 S
C669 C666 1.409 . S
C669 C667 1.415 . S
C670 H660 0.930 . S
C670 C668 1.419 . S
C670 C671 1.362 1_554 S
C671 H661 0.930 . S
C671 C664 1.409 . S
C671 C670 1.362 1_556 S
H672 C678 0.930 . S
H673 C681 0.930 . S
H674 C682 0.930 . S
H675 C683 0.930 . S
H676 C686 0.930 . S
H677 C687 0.930 . S
C678 H672 0.930 . S
C678 C679 1.355 . S
C678 C680 1.415 . S
C679 C678 1.355 . S
C679 C681 1.419 . S
C680 C678 1.415 . S
C680 C685 1.425 1_554 S
C680 C687 1.409 1_554 S
C681 H673 0.930 . S
C681 C679 1.419 . S
C681 C682 1.362 . S
C682 H674 0.930 . S
C682 C681 1.362 . S
C682 C685 1.409 1_554 S
C683 H675 0.930 . S
C683 C684 1.355 . S
C683 C685 1.415 . S
C684 C683 1.355 . S
C684 C686 1.419 . S
C685 C680 1.425 1_556 S
C685 C682 1.409 1_556 S
C685 C683 1.415 . S
C686 H676 0.930 . S
C686 C684 1.419 . S
C686 C687 1.362 . S
C687 H677 0.930 . S
C687 C680 1.409 1_556 S
C687 C686 1.362 . S
H688 C694 0.930 . S
H689 C697 0.930 . S
H690 C698 0.930 1_554 S
H691 C699 0.930 . S
H692 C702 0.930 . S
H693 C703 0.930 1_556 S
C694 H688 0.930 . S
C694 C695 1.355 . S
C694 C696 1.415 . S
C695 C694 1.355 . S
C695 C697 1.419 . S
C696 C694 1.415 . S
C696 C701 1.425 1_556 S
C696 C703 1.409 1_556 S
C697 H689 0.930 . S
C697 C695 1.419 . S
C697 C698 1.362 . S
C698 H690 0.930 1_556 S
C698 C697 1.362 . S
C698 C701 1.409 1_556 S
C699 H691 0.930 . S
C699 C700 1.355 . S
C699 C701 1.415 . S
C700 C699 1.355 . S
C700 C702 1.419 . S
C701 C696 1.425 1_554 S
C701 C698 1.409 1_554 S
C701 C699 1.415 . S
C702 H692 0.930 . S
C702 C700 1.419 . S
C702 C703 1.362 . S
C703 H693 0.930 1_554 S
C703 C696 1.409 1_554 S
C703 C702 1.362 . S
H704 C710 0.930 . S
H705 C713 0.930 . S
H706 C714 0.930 1_556 S
H707 C715 0.930 . S
H708 C718 0.930 . S
H709 C719 0.930 1_554 S
C710 H704 0.930 . S
C710 C711 1.355 . S
C710 C712 1.415 . S
C711 C710 1.355 . S
C711 C713 1.419 . S
C712 C710 1.415 . S
C712 C717 1.425 1_554 S
C712 C719 1.409 1_554 S
C713 H705 0.930 . S
C713 C711 1.419 . S
C713 C714 1.362 . S
C714 H706 0.930 1_554 S
C714 C713 1.362 . S
C714 C717 1.409 1_554 S
C715 H707 0.930 . S
C715 C716 1.355 . S
C715 C717 1.415 . S
C716 C715 1.355 . S
C716 C718 1.419 . S
C717 C712 1.425 1_556 S
C717 C714 1.409 1_556 S
C717 C715 1.415 . S
C718 H708 0.930 . S
C718 C716 1.419 . S
C718 C719 1.362 . S
C719 H709 0.930 1_556 S
C719 C712 1.409 1_556 S
C719 C718 1.362 . S
H720 C726 0.930 . S
H721 C729 0.930 . S
H722 C730 0.930 . S
H723 C731 0.930 . S
H724 C734 0.930 . S
H725 C735 0.930 . S
C726 H720 0.930 . S
C726 C727 1.355 . S
C726 C728 1.415 . S
C727 C726 1.355 . S
C727 C729 1.419 . S
C728 C726 1.415 . S
C728 C733 1.425 . S
C728 C735 1.409 . S
C729 H721 0.930 . S
C729 C727 1.419 . S
C729 C730 1.362 . S
C730 H722 0.930 . S
C730 C729 1.362 . S
C730 C733 1.409 . S
C731 H723 0.930 . S
C731 C732 1.355 . S
C731 C733 1.415 . S
C732 C731 1.355 . S
C732 C734 1.419 . S
C733 C728 1.425 . S
C733 C730 1.409 . S
C733 C731 1.415 . S
C734 H724 0.930 . S
C734 C732 1.419 . S
C734 C735 1.362 . S
C735 H725 0.930 . S
C735 C728 1.409 . S
C735 C734 1.362 . S
H736 C742 0.930 . S
H737 C745 0.930 . S
H738 C746 0.930 . S
H739 C747 0.930 . S
H740 C750 0.930 . S
H741 C751 0.930 . S
C742 H736 0.930 . S
C742 C743 1.355 . S
C742 C744 1.415 . S
C743 C742 1.355 . S
C743 C745 1.419 . S
C744 C742 1.415 . S
C744 C749 1.425 . S
C744 C751 1.409 . S
C745 H737 0.930 . S
C745 C743 1.419 . S
C745 C746 1.362 . S
C746 H738 0.930 . S
C746 C745 1.362 . S
C746 C749 1.409 . S
C747 H739 0.930 . S
C747 C748 1.355 . S
C747 C749 1.415 . S
C748 C747 1.355 . S
C748 C750 1.419 . S
C749 C744 1.425 . S
C749 C746 1.409 . S
C749 C747 1.415 . S
C750 H740 0.930 . S
C750 C748 1.419 . S
C750 C751 1.362 . S
C751 H741 0.930 . S
C751 C744 1.409 . S
C751 C750 1.362 . S
H752 C758 0.930 . S
H753 C761 0.930 . S
H754 C762 0.930 . S
H755 C763 0.930 . S
H756 C766 0.930 . S
H757 C767 0.930 . S
C758 H752 0.930 . S
C758 C759 1.355 . S
C758 C760 1.415 . S
C759 C758 1.355 . S
C759 C761 1.419 . S
C760 C758 1.415 . S
C760 C765 1.425 . S
C760 C767 1.409 . S
C761 H753 0.930 . S
C761 C759 1.419 . S
C761 C762 1.362 . S
C762 H754 0.930 . S
C762 C761 1.362 . S
C762 C765 1.409 . S
C763 H755 0.930 . S
C763 C764 1.355 . S
C763 C765 1.415 . S
C764 C763 1.355 . S
C764 C766 1.419 . S
C765 C760 1.425 . S
C765 C762 1.409 . S
C765 C763 1.415 . S
C766 H756 0.930 . S
C766 C764 1.419 . S
C766 C767 1.362 . S
C767 H757 0.930 . S
C767 C760 1.409 . S
C767 C766 1.362 . S
H768 C774 0.930 . S
H769 C777 0.930 . S
H770 C778 0.930 . S
H771 C779 0.930 . S
H772 C782 0.930 . S
H773 C783 0.930 . S
C774 H768 0.930 . S
C774 C775 1.355 . S
C774 C776 1.415 . S
C775 C774 1.355 . S
C775 C777 1.419 . S
C776 C774 1.415 . S
C776 C781 1.425 . S
C776 C783 1.409 . S
C777 H769 0.930 . S
C777 C775 1.419 . S
C777 C778 1.362 . S
C778 H770 0.930 . S
C778 C777 1.362 . S
C778 C781 1.409 . S
C779 H771 0.930 . S
C779 C780 1.355 . S
C779 C781 1.415 . S
C780 C779 1.355 . S
C780 C782 1.419 . S
C781 C776 1.425 . S
C781 C778 1.409 . S
C781 C779 1.415 . S
C782 H772 0.930 . S
C782 C780 1.419 . S
C782 C783 1.362 . S
C783 H773 0.930 . S
C783 C776 1.409 . S
C783 C782 1.362 . S
H784 C790 0.930 . S
H785 C793 0.930 . S
H786 C794 0.930 . S
H787 C795 0.930 . S
H788 C798 0.930 . S
H789 C799 0.930 . S
C790 H784 0.930 . S
C790 C791 1.355 . S
C790 C792 1.415 . S
C791 C790 1.355 . S
C791 C793 1.419 . S
C792 C790 1.415 . S
C792 C797 1.425 . S
C792 C799 1.409 . S
C793 H785 0.930 . S
C793 C791 1.419 . S
C793 C794 1.362 . S
C794 H786 0.930 . S
C794 C793 1.362 . S
C794 C797 1.409 . S
C795 H787 0.930 . S
C795 C796 1.355 . S
C795 C797 1.415 . S
C796 C795 1.355 . S
C796 C798 1.419 . S
C797 C792 1.425 . S
C797 C794 1.409 . S
C797 C795 1.415 . S
C798 H788 0.930 . S
C798 C796 1.419 . S
C798 C799 1.362 . S
C799 H789 0.930 . S
C799 C792 1.409 . S
C799 C798 1.362 . S
H800 C806 0.930 . S
H801 C809 0.930 . S
H802 C810 0.930 . S
H803 C811 0.930 . S
H804 C814 0.930 . S
H805 C815 0.930 . S
C806 H800 0.930 . S
C806 C807 1.355 . S
C806 C808 1.415 . S
C807 C806 1.355 . S
C807 C809 1.419 . S
C808 C806 1.415 . S
C808 C813 1.425 . S
C808 C815 1.409 . S
C809 H801 0.930 . S
C809 C807 1.419 . S
C809 C810 1.362 . S
C810 H802 0.930 . S
C810 C809 1.362 . S
C810 C813 1.409 . S
C811 H803 0.930 . S
C811 C812 1.355 . S
C811 C813 1.415 . S
C812 C811 1.355 . S
C812 C814 1.419 . S
C813 C808 1.425 . S
C813 C810 1.409 . S
C813 C811 1.415 . S
C814 H804 0.930 . S
C814 C812 1.419 . S
C814 C815 1.362 . S
C815 H805 0.930 . S
C815 C808 1.409 . S
C815 C814 1.362 . S
H816 C822 0.930 . S
H817 C825 0.930 . S
H818 C826 0.930 . S
H819 C827 0.930 . S
H820 C830 0.930 . S
H821 C831 0.930 . S
C822 H816 0.930 . S
C822 C823 1.355 . S
C822 C824 1.415 . S
C823 C822 1.355 . S
C823 C825 1.419 . S
C824 C822 1.415 . S
C824 C829 1.425 . S
C824 C831 1.409 . S
C825 H817 0.930 . S
C825 C823 1.419 . S
C825 C826 1.362 . S
C826 H818 0.930 . S
C826 C825 1.362 . S
C826 C829 1.409 . S
C827 H819 0.930 . S
C827 C828 1.355 . S
C827 C829 1.415 . S
C828 C827 1.355 . S
C828 C830 1.419 . S
C829 C824 1.425 . S
C829 C826 1.409 . S
C829 C827 1.415 . S
C830 H820 0.930 . S
C830 C828 1.419 . S
C830 C831 1.362 . S
C831 H821 0.930 . S
C831 C824 1.409 . S
C831 C830 1.362 . S
H832 C838 0.930 . S
H833 C841 0.930 . S
H834 C842 0.930 . S
H835 C843 0.930 . S
H836 C846 0.930 . S
H837 C847 0.930 . S
C838 H832 0.930 . S
C838 C839 1.355 . S
C838 C840 1.415 . S
C839 C838 1.355 . S
C839 C841 1.419 . S
C840 C838 1.415 . S
C840 C845 1.425 . S
C840 C847 1.409 . S
C841 H833 0.930 . S
C841 C839 1.419 . S
C841 C842 1.362 . S
C842 H834 0.930 . S
C842 C841 1.362 . S
C842 C845 1.409 . S
C843 H835 0.930 . S
C843 C844 1.355 . S
C843 C845 1.415 . S
C844 C843 1.355 . S
C844 C846 1.419 . S
C845 C840 1.425 . S
C845 C842 1.409 . S
C845 C843 1.415 . S
C846 H836 0.930 . S
C846 C844 1.419 . S
C846 C847 1.362 . S
C847 H837 0.930 . S
C847 C840 1.409 . S
C847 C846 1.362 . S
H848 C854 0.930 . S
H849 C857 0.930 . S
H850 C858 0.930 . S
H851 C859 0.930 . S
H852 C862 0.930 . S
H853 C863 0.930 . S
C854 H848 0.930 . S
C854 C855 1.355 . S
C854 C856 1.415 . S
C855 C854 1.355 . S
C855 C857 1.419 . S
C856 C854 1.415 . S
C856 C861 1.425 . S
C856 C863 1.409 . S
C857 H849 0.930 . S
C857 C855 1.419 . S
C857 C858 1.362 . S
C858 H850 0.930 . S
C858 C857 1.362 . S
C858 C861 1.409 . S
C859 H851 0.930 . S
C859 C860 1.355 . S
C859 C861 1.415 . S
C860 C859 1.355 . S
C860 C862 1.419 . S
C861 C856 1.425 . S
C861 C858 1.409 . S
C861 C859 1.415 . S
C862 H852 0.930 . S
C862 C860 1.419 . S
C862 C863 1.362 . S
C863 H853 0.930 . S
C863 C856 1.409 . S
C863 C862 1.362 . S
H864 C870 0.930 . S
H865 C873 0.930 . S
H866 C874 0.930 . S
H867 C875 0.930 . S
H868 C878 0.930 . S
H869 C879 0.930 . S
C870 H864 0.930 . S
C870 C871 1.355 . S
C870 C872 1.415 . S
C871 C870 1.355 . S
C871 C873 1.419 . S
C872 C870 1.415 . S
C872 C877 1.425 . S
C872 C879 1.409 . S
C873 H865 0.930 . S
C873 C871 1.419 . S
C873 C874 1.362 . S
C874 H866 0.930 . S
C874 C873 1.362 . S
C874 C877 1.409 . S
C875 H867 0.930 . S
C875 C876 1.355 . S
C875 C877 1.415 . S
C876 C875 1.355 . S
C876 C878 1.419 . S
C877 C872 1.425 . S
C877 C874 1.409 . S
C877 C875 1.415 . S
C878 H868 0.930 . S
C878 C876 1.419 . S
C878 C879 1.362 . S
C879 H869 0.930 . S
C879 C872 1.409 . S
C879 C878 1.362 . S
H880 C886 0.930 . S
H881 C889 0.930 . S
H882 C890 0.930 . S
H883 C891 0.930 . S
H884 C894 0.930 . S
H885 C895 0.930 . S
C886 H880 0.930 . S
C886 C887 1.355 . S
C886 C888 1.415 . S
C887 C886 1.355 . S
C887 C889 1.419 . S
C888 C886 1.415 . S
C888 C893 1.425 . S
C888 C895 1.409 . S
C889 H881 0.930 . S
C889 C887 1.419 . S
C889 C890 1.362 . S
C890 H882 0.930 . S
C890 C889 1.362 . S
C890 C893 1.409 . S
C891 H883 0.930 . S
C891 C892 1.355 . S
C891 C893 1.415 . S
C892 C891 1.355 . S
C892 C894 1.419 . S
C893 C888 1.425 . S
C893 C890 1.409 . S
C893 C891 1.415 . S
C894 H884 0.930 . S
C894 C892 1.419 . S
C894 C895 1.362 . S
C895 H885 0.930 . S
C895 C888 1.409 . S
C895 C894 1.362 . S
H896 C902 0.930 . S
H897 C905 0.930 . S
H898 C906 0.930 . S
H899 C907 0.930 . S
H900 C910 0.930 . S
H901 C911 0.930 . S
C902 H896 0.930 . S
C902 C903 1.355 . S
C902 C904 1.415 . S
C903 C902 1.355 . S
C903 C905 1.419 . S
C904 C902 1.415 . S
C904 C909 1.425 . S
C904 C911 1.409 . S
C905 H897 0.930 . S
C905 C903 1.419 . S
C905 C906 1.362 . S
C906 H898 0.930 . S
C906 C905 1.362 . S
C906 C909 1.409 . S
C907 H899 0.930 . S
C907 C908 1.355 . S
C907 C909 1.415 . S
C908 C907 1.355 . S
C908 C910 1.419 . S
C909 C904 1.425 . S
C909 C906 1.409 . S
C909 C907 1.415 . S
C910 H900 0.930 . S
C910 C908 1.419 . S
C910 C911 1.362 . S
C911 H901 0.930 . S
C911 C904 1.409 . S
C911 C910 1.362 . S
H912 C918 0.930 . S
H913 C921 0.930 . S
H914 C922 0.930 . S
H915 C923 0.930 . S
H916 C926 0.930 . S
H917 C927 0.930 . S
C918 H912 0.930 . S
C918 C919 1.355 . S
C918 C920 1.415 . S
C919 C918 1.355 . S
C919 C921 1.419 . S
C920 C918 1.415 . S
C920 C925 1.425 . S
C920 C927 1.409 . S
C921 H913 0.930 . S
C921 C919 1.419 . S
C921 C922 1.362 . S
C922 H914 0.930 . S
C922 C921 1.362 . S
C922 C925 1.409 . S
C923 H915 0.930 . S
C923 C924 1.355 . S
C923 C925 1.415 . S
C924 C923 1.355 . S
C924 C926 1.419 . S
C925 C920 1.425 . S
C925 C922 1.409 . S
C925 C923 1.415 . S
C926 H916 0.930 . S
C926 C924 1.419 . S
C926 C927 1.362 . S
C927 H917 0.930 . S
C927 C920 1.409 . S
C927 C926 1.362 . S
H928 C934 0.930 . S
H929 C937 0.930 . S
H930 C938 0.930 . S
H931 C939 0.930 . S
H932 C942 0.930 . S
H933 C943 0.930 . S
C934 H928 0.930 . S
C934 C935 1.355 . S
C934 C936 1.415 . S
C935 C934 1.355 . S
C935 C937 1.419 . S
C936 C934 1.415 . S
C936 C941 1.425 . S
C936 C943 1.409 . S
C937 H929 0.930 . S
C937 C935 1.419 . S
C937 C938 1.362 . S
C938 H930 0.930 . S
C938 C937 1.362 . S
C938 C941 1.409 . S
C939 H931 0.930 . S
C939 C940 1.355 . S
C939 C941 1.415 . S
C940 C939 1.355 . S
C940 C942 1.419 . S
C941 C936 1.425 . S
C941 C938 1.409 . S
C941 C939 1.415 . S
C942 H932 0.930 . S
C942 C940 1.419 . S
C942 C943 1.362 . S
C943 H933 0.930 . S
C943 C936 1.409 . S
C943 C942 1.362 . S
H944 C950 0.930 . S
H945 C953 0.930 . S
H946 C954 0.930 . S
H947 C955 0.930 . S
H948 C958 0.930 . S
H949 C959 0.930 . S
C950 H944 0.930 . S
C950 C951 1.355 . S
C950 C952 1.415 . S
C951 C950 1.355 . S
C951 C953 1.419 . S
C952 C950 1.415 . S
C952 C957 1.425 . S
C952 C959 1.409 . S
C953 H945 0.930 . S
C953 C951 1.419 . S
C953 C954 1.362 . S
C954 H946 0.930 . S
C954 C953 1.362 . S
C954 C957 1.409 . S
C955 H947 0.930 . S
C955 C956 1.355 . S
C955 C957 1.415 . S
C956 C955 1.355 . S
C956 C958 1.419 . S
C957 C952 1.425 . S
C957 C954 1.409 . S
C957 C955 1.415 . S
C958 H948 0.930 . S
C958 C956 1.419 . S
C958 C959 1.362 . S
C959 H949 0.930 . S
C959 C952 1.409 . S
C959 C958 1.362 . S
H960 C966 0.930 . S
H961 C969 0.930 . S
H962 C970 0.930 . S
H963 C971 0.930 . S
H964 C974 0.930 . S
H965 C975 0.930 . S
C966 H960 0.930 . S
C966 C967 1.355 . S
C966 C968 1.415 . S
C967 C966 1.355 . S
C967 C969 1.419 . S
C968 C966 1.415 . S
C968 C973 1.425 . S
C968 C975 1.409 . S
C969 H961 0.930 . S
C969 C967 1.419 . S
C969 C970 1.362 . S
C970 H962 0.930 . S
C970 C969 1.362 . S
C970 C973 1.409 . S
C971 H963 0.930 . S
C971 C972 1.355 . S
C971 C973 1.415 . S
C972 C971 1.355 . S
C972 C974 1.419 . S
C973 C968 1.425 . S
C973 C970 1.409 . S
C973 C971 1.415 . S
C974 H964 0.930 . S
C974 C972 1.419 . S
C974 C975 1.362 . S
C975 H965 0.930 . S
C975 C968 1.409 . S
C975 C974 1.362 . S
H976 C982 0.930 . S
H977 C985 0.930 . S
H978 C986 0.930 . S
H979 C987 0.930 . S
H980 C990 0.930 . S
H981 C991 0.930 . S
C982 H976 0.930 . S
C982 C983 1.355 . S
C982 C984 1.415 . S
C983 C982 1.355 . S
C983 C985 1.419 . S
C984 C982 1.415 . S
C984 C989 1.425 . S
C984 C991 1.409 . S
C985 H977 0.930 . S
C985 C983 1.419 . S
C985 C986 1.362 . S
C986 H978 0.930 . S
C986 C985 1.362 . S
C986 C989 1.409 . S
C987 H979 0.930 . S
C987 C988 1.355 . S
C987 C989 1.415 . S
C988 C987 1.355 . S
C988 C990 1.419 . S
C989 C984 1.425 . S
C989 C986 1.409 . S
C989 C987 1.415 . S
C990 H980 0.930 . S
C990 C988 1.419 . S
C990 C991 1.362 . S
C991 H981 0.930 . S
C991 C984 1.409 . S
C991 C990 1.362 . S
H992 C998 0.930 . S
H993 C1001 0.930 . S
H994 C1002 0.930 . S
H995 C1003 0.930 . S
H996 C1006 0.930 . S
H997 C1007 0.930 . S
C998 H992 0.930 . S
C998 C999 1.355 . S
C998 C1000 1.415 . S
C999 C998 1.355 . S
C999 C1001 1.419 . S
C1000 C998 1.415 . S
C1000 C1005 1.425 . S
C1000 C1007 1.409 . S
C1001 H993 0.930 . S
C1001 C999 1.419 . S
C1001 C1002 1.362 . S
C1002 H994 0.930 . S
C1002 C1001 1.362 . S
C1002 C1005 1.409 . S
C1003 H995 0.930 . S
C1003 C1004 1.355 . S
C1003 C1005 1.415 . S
C1004 C1003 1.355 . S
C1004 C1006 1.419 . S
C1005 C1000 1.425 . S
C1005 C1002 1.409 . S
C1005 C1003 1.415 . S
C1006 H996 0.930 . S
C1006 C1004 1.419 . S
C1006 C1007 1.362 . S
C1007 H997 0.930 . S
C1007 C1000 1.409 . S
C1007 C1006 1.362 . S
H1008 C1014 0.930 . S
H1009 C1017 0.930 . S
H1010 C1018 0.930 . S
H1011 C1019 0.930 . S
H1012 C1022 0.930 . S
H1013 C1023 0.930 . S
C1014 H1008 0.930 . S
C1014 C1015 1.355 . S
C1014 C1016 1.415 . S
C1015 C1014 1.355 . S
C1015 C1017 1.419 . S
C1016 C1014 1.415 . S
C1016 C1021 1.425 . S
C1016 C1023 1.409 . S
C1017 H1009 0.930 . S
C1017 C1015 1.419 . S
C1017 C1018 1.362 . S
C1018 H1010 0.930 . S
C1018 C1017 1.362 . S
C1018 C1021 1.409 . S
C1019 H1011 0.930 . S
C1019 C1020 1.355 . S
C1019 C1021 1.415 . S
C1020 C1019 1.355 . S
C1020 C1022 1.419 . S
C1021 C1016 1.425 . S
C1021 C1018 1.409 . S
C1021 C1019 1.415 . S
C1022 H1012 0.930 . S
C1022 C1020 1.419 . S
C1022 C1023 1.362 . S
C1023 H1013 0.930 . S
C1023 C1016 1.409 . S
C1023 C1022 1.362 . S
H1024 C1030 0.930 . S
H1025 C1033 0.930 . S
H1026 C1034 0.930 . S
H1027 C1035 0.930 . S
H1028 C1038 0.930 . S
H1029 C1039 0.930 . S
C1030 H1024 0.930 . S
C1030 C1031 1.355 . S
C1030 C1032 1.415 . S
C1031 C1030 1.355 . S
C1031 C1033 1.419 . S
C1032 C1030 1.415 . S
C1032 C1037 1.425 . S
C1032 C1039 1.409 . S
C1033 H1025 0.930 . S
C1033 C1031 1.419 . S
C1033 C1034 1.362 . S
C1034 H1026 0.930 . S
C1034 C1033 1.362 . S
C1034 C1037 1.409 . S
C1035 H1027 0.930 . S
C1035 C1036 1.355 . S
C1035 C1037 1.415 . S
C1036 C1035 1.355 . S
C1036 C1038 1.419 . S
C1037 C1032 1.425 . S
C1037 C1034 1.409 . S
C1037 C1035 1.415 . S
C1038 H1028 0.930 . S
C1038 C1036 1.419 . S
C1038 C1039 1.362 . S
C1039 H1029 0.930 . S
C1039 C1032 1.409 . S
C1039 C1038 1.362 . S
H1040 C1046 0.930 . S
H1041 C1049 0.930 . S
H1042 C1050 0.930 . S
H1043 C1051 0.930 . S
H1044 C1054 0.930 . S
H1045 C1055 0.930 . S
C1046 H1040 0.930 . S
C1046 C1047 1.355 . S
C1046 C1048 1.415 . S
C1047 C1046 1.355 . S
C1047 C1049 1.419 . S
C1048 C1046 1.415 . S
C1048 C1053 1.425 . S
C1048 C1055 1.409 . S
C1049 H1041 0.930 . S
C1049 C1047 1.419 . S
C1049 C1050 1.362 . S
C1050 H1042 0.930 . S
C1050 C1049 1.362 . S
C1050 C1053 1.409 . S
C1051 H1043 0.930 . S
C1051 C1052 1.355 . S
C1051 C1053 1.415 . S
C1052 C1051 1.355 . S
C1052 C1054 1.419 . S
C1053 C1048 1.425 . S
C1053 C1050 1.409 . S
C1053 C1051 1.415 . S
C1054 H1044 0.930 . S
C1054 C1052 1.419 . S
C1054 C1055 1.362 . S
C1055 H1045 0.930 . S
C1055 C1048 1.409 . S
C1055 C1054 1.362 . S
H1056 C1062 0.930 . S
H1057 C1065 0.930 . S
H1058 C1066 0.930 . S
H1059 C1067 0.930 . S
H1060 C1070 0.930 . S
H1061 C1071 0.930 . S
C1062 H1056 0.930 . S
C1062 C1063 1.355 . S
C1062 C1064 1.415 . S
C1063 C1062 1.355 . S
C1063 C1065 1.419 . S
C1064 C1062 1.415 . S
C1064 C1069 1.425 . S
C1064 C1071 1.409 . S
C1065 H1057 0.930 . S
C1065 C1063 1.419 . S
C1065 C1066 1.362 . S
C1066 H1058 0.930 . S
C1066 C1065 1.362 . S
C1066 C1069 1.409 . S
C1067 H1059 0.930 . S
C1067 C1068 1.355 . S
C1067 C1069 1.415 . S
C1068 C1067 1.355 . S
C1068 C1070 1.419 . S
C1069 C1064 1.425 . S
C1069 C1066 1.409 . S
C1069 C1067 1.415 . S
C1070 H1060 0.930 . S
C1070 C1068 1.419 . S
C1070 C1071 1.362 . S
C1071 H1061 0.930 . S
C1071 C1064 1.409 . S
C1071 C1070 1.362 . S
H1072 C1078 0.930 . S
H1073 C1081 0.930 . S
H1074 C1082 0.930 . S
H1075 C1083 0.930 . S
H1076 C1086 0.930 . S
H1077 C1087 0.930 . S
C1078 H1072 0.930 . S
C1078 C1079 1.355 . S
C1078 C1080 1.415 . S
C1079 C1078 1.355 . S
C1079 C1081 1.419 . S
C1080 C1078 1.415 . S
C1080 C1085 1.425 . S
C1080 C1087 1.409 . S
C1081 H1073 0.930 . S
C1081 C1079 1.419 . S
C1081 C1082 1.362 . S
C1082 H1074 0.930 . S
C1082 C1081 1.362 . S
C1082 C1085 1.409 . S
C1083 H1075 0.930 . S
C1083 C1084 1.355 . S
C1083 C1085 1.415 . S
C1084 C1083 1.355 . S
C1084 C1086 1.419 . S
C1085 C1080 1.425 . S
C1085 C1082 1.409 . S
C1085 C1083 1.415 . S
C1086 H1076 0.930 . S
C1086 C1084 1.419 . S
C1086 C1087 1.362 . S
C1087 H1077 0.930 . S
C1087 C1080 1.409 . S
C1087 C1086 1.362 . S
H1088 C1094 0.930 . S
H1089 C1097 0.930 . S
H1090 C1098 0.930 . S
H1091 C1099 0.930 . S
H1092 C1102 0.930 . S
H1093 C1103 0.930 . S
C1094 H1088 0.930 . S
C1094 C1095 1.355 . S
C1094 C1096 1.415 . S
C1095 C1094 1.355 . S
C1095 C1097 1.419 . S
C1096 C1094 1.415 . S
C1096 C1101 1.425 . S
C1096 C1103 1.409 . S
C1097 H1089 0.930 . S
C1097 C1095 1.419 . S
C1097 C1098 1.362 . S
C1098 H1090 0.930 . S
C1098 C1097 1.362 . S
C1098 C1101 1.409 . S
C1099 H1091 0.930 . S
C1099 C1100 1.355 . S
C1099 C1101 1.415 . S
C1100 C1099 1.355 . S
C1100 C1102 1.419 . S
C1101 C1096 1.425 . S
C1101 C1098 1.409 . S
C1101 C1099 1.415 . S
C1102 H1092 0.930 . S
C1102 C1100 1.419 . S
C1102 C1103 1.362 . S
C1103 H1093 0.930 . S
C1103 C1096 1.409 . S
C1103 C1102 1.362 . S
C343 C314 1.567 . S
C348 C7 1.526 . S
C359 C20 1.525 . S
C364 C231 1.562 . S
C375 C328 1.598 . S
C380 C35 1.595 . S
C391 C301 1.532 . S
C396 C49 1.530 . S
C407 C259 1.540 . S
C412 C63 1.588 . S
C423 C272 1.528 . S
C428 C77 1.571 . S
C439 C287 1.529 . S
C444 C90 1.574 . S
C455 C104 1.546 . S
C460 C244 1.593 . S
C471 C188 1.601 . S
C476 C118 1.560 . S
C487 C203 1.569 . S
C492 C133 1.603 . S
C503 C146 1.603 . S
C508 C216 1.565 . S
C519 C161 1.604 . S
C524 C175 1.577 . S
C535 C105 1.527 . S
C540 C202 1.536 . S
C551 C217 1.537 . S
C556 C62 1.585 . S
C567 C76 1.540 . S
C572 C174 1.587 . S
C583 C189 1.531 . S
C588 C91 1.576 . S
C599 C147 1.539 . S
C604 C21 1.586 . S
C615 C34 1.525 . S
C620 C160 1.562 . S
C631 C48 1.594 . S
C636 C119 1.599 . S
C647 C6 1.529 . S
C652 C132 1.534 . S
C663 C286 1.578 . S
C668 C300 1.604 . S
C679 C315 1.597 . S
C684 C245 1.552 . S
C695 C258 1.540 . S
C700 C230 1.587 . S
C711 C329 1.601 . S
C716 C273 1.561 . S
C727 C8 0.893 . S
C732 C120 0.899 . S
C743 C135 1.008 . S
C748 C23 0.988 . S
C759 C36 0.899 . S
C764 C148 0.893 . S
C775 C50 0.901 . S
C780 C163 0.916 . S
C791 C64 0.894 . S
C796 C177 0.904 . S
C807 C78 0.931 . S
C812 C190 0.955 . S
C823 C205 0.916 . S
C828 C93 0.901 . S
C839 C218 1.021 . S
C844 C107 1.006 . S
C855 C121 1.023 . S
C860 C233 1.030 . S
C871 C134 1.020 . S
C876 C330 1.004 . S
C887 C303 0.963 . S
C892 C149 0.987 . S
C903 C316 0.916 . S
C908 C162 0.937 . S
C919 C246 0.945 . S
C924 C176 0.923 . S
C935 C261 0.973 . S
C940 C191 0.996 . S
C951 C204 0.917 . S
C956 C274 0.901 . S
C967 C219 0.893 . S
C972 C289 0.898 . S
C983 C9 1.017 . S
C988 C232 1.028 . S
C999 C247 1.006 . S
C1004 C65 0.985 . S
C1015 C260 1.030 . S
C1020 C79 1.023 . S
C1031 C275 1.004 . S
C1036 C92 0.983 . S
C1047 C288 0.992 . S
C1052 C106 0.968 . S
C1063 C302 1.026 . S
C1068 C37 1.013 . S
C1079 C51 0.913 . S
C1084 C317 0.934 . S
C1095 C331 1.012 . S
C1100 C22 1.025 . S
