# Generated by pormake.
# Topology pcu-h, (3)-cn, num edge types: 1
# Building blocks:
#     Node 0, Type 0, BuildingBlock: WUSLED_clean_sbu_0, # of connection points: 3
#     Node 1, Type 0, BuildingBlock: WUSLED_clean_sbu_0, # of connection points: 3
#     Node 2, Type 0, BuildingBlock: WUSLED_clean_sbu_0, # of connection points: 3
#     Node 3, Type 0, BuildingBlock: WUSLED_clean_sbu_0, # of connection points: 3
#     Node 4, Type 0, BuildingBlock: WUSLED_clean_sbu_0, # of connection points: 3
#     Node 5, Type 0, BuildingBlock: WUSLED_clean_sbu_0, # of connection points: 3
#     Node 6, Type 0, BuildingBlock: WUSLED_clean_sbu_0, # of connection points: 3
#     Node 7, Type 0, BuildingBlock: WUSLED_clean_sbu_0, # of connection points: 3
#     Node 8, Type 0, BuildingBlock: WUSLED_clean_sbu_0, # of connection points: 3
#     Node 9, Type 0, BuildingBlock: WUSLED_clean_sbu_0, # of connection points: 3
#     Node 10, Type 0, BuildingBlock: WUSLED_clean_sbu_0, # of connection points: 3
#     Node 11, Type 0, BuildingBlock: WUSLED_clean_sbu_0, # of connection points: 3
#     Node 12, Type 0, BuildingBlock: WUSLED_clean_sbu_0, # of connection points: 3
#     Node 13, Type 0, BuildingBlock: WUSLED_clean_sbu_0, # of connection points: 3
#     Node 14, Type 0, BuildingBlock: WUSLED_clean_sbu_0, # of connection points: 3
#     Node 15, Type 0, BuildingBlock: WUSLED_clean_sbu_0, # of connection points: 3
#     Node 16, Type 0, BuildingBlock: WUSLED_clean_sbu_0, # of connection points: 3
#     Node 17, Type 0, BuildingBlock: WUSLED_clean_sbu_0, # of connection points: 3
#     Edge 18, Type (0, 0), BuildingBlock: EZIPEK_clean_linker_0, # of connection points: 2
#     Edge 19, Type (0, 0), BuildingBlock: EZIPEK_clean_linker_0, # of connection points: 2
#     Edge 20, Type (0, 0), BuildingBlock: EZIPEK_clean_linker_0, # of connection points: 2
#     Edge 21, Type (0, 0), BuildingBlock: EZIPEK_clean_linker_0, # of connection points: 2
#     Edge 22, Type (0, 0), BuildingBlock: EZIPEK_clean_linker_0, # of connection points: 2
#     Edge 23, Type (0, 0), BuildingBlock: EZIPEK_clean_linker_0, # of connection points: 2
#     Edge 24, Type (0, 0), BuildingBlock: EZIPEK_clean_linker_0, # of connection points: 2
#     Edge 25, Type (0, 0), BuildingBlock: EZIPEK_clean_linker_0, # of connection points: 2
#     Edge 26, Type (0, 0), BuildingBlock: EZIPEK_clean_linker_0, # of connection points: 2
#     Edge 27, Type (0, 0), BuildingBlock: EZIPEK_clean_linker_0, # of connection points: 2
#     Edge 28, Type (0, 0), BuildingBlock: EZIPEK_clean_linker_0, # of connection points: 2
#     Edge 29, Type (0, 0), BuildingBlock: EZIPEK_clean_linker_0, # of connection points: 2
#     Edge 30, Type (0, 0), BuildingBlock: EZIPEK_clean_linker_0, # of connection points: 2
#     Edge 31, Type (0, 0), BuildingBlock: EZIPEK_clean_linker_0, # of connection points: 2
#     Edge 32, Type (0, 0), BuildingBlock: EZIPEK_clean_linker_0, # of connection points: 2
#     Edge 33, Type (0, 0), BuildingBlock: EZIPEK_clean_linker_0, # of connection points: 2
#     Edge 34, Type (0, 0), BuildingBlock: EZIPEK_clean_linker_0, # of connection points: 2
#     Edge 35, Type (0, 0), BuildingBlock: EZIPEK_clean_linker_0, # of connection points: 2
#     Edge 36, Type (0, 0), BuildingBlock: EZIPEK_clean_linker_0, # of connection points: 2
#     Edge 37, Type (0, 0), BuildingBlock: EZIPEK_clean_linker_0, # of connection points: 2
#     Edge 38, Type (0, 0), BuildingBlock: EZIPEK_clean_linker_0, # of connection points: 2
#     Edge 39, Type (0, 0), BuildingBlock: EZIPEK_clean_linker_0, # of connection points: 2
#     Edge 40, Type (0, 0), BuildingBlock: EZIPEK_clean_linker_0, # of connection points: 2
#     Edge 41, Type (0, 0), BuildingBlock: EZIPEK_clean_linker_0, # of connection points: 2
#     Edge 42, Type (0, 0), BuildingBlock: EZIPEK_clean_linker_0, # of connection points: 2
#     Edge 43, Type (0, 0), BuildingBlock: EZIPEK_clean_linker_0, # of connection points: 2
#     Edge 44, Type (0, 0), BuildingBlock: EZIPEK_clean_linker_0, # of connection points: 2
# Relax obj value: 0.000
# Max RMSD: 0.007
# Mean RMSD: 0.007
data_MOF--net-pcu-h--node1-WUSLED_clean_sbu_0--edge1-EZIPEK_clean_linker_0
_symmetry_space_group_name_H-M    P1
_symmetry_Int_Tables_number       1
_symmetry_cell_setting            triclinic
loop_
_symmetry_equiv_pos_as_xyz
'x, y, z'
_cell_length_a     96.682959
_cell_length_b     96.272567
_cell_length_c     26.786983
_cell_angle_alpha  90.109936
_cell_angle_beta   90.023302
_cell_angle_gamma 120.23561
loop_
_atom_site_label
_atom_site_type_symbol
_atom_site_fract_x
_atom_site_fract_y
_atom_site_fract_z
_atom_type_partial_charge
C0 C 0.24483 0.16697 0.0361 0.0
C1 C 0.23713 0.16414 0.98944 0.0
C2 C 0.22385 0.17875 0.01583 0.0
C3 C 0.22674 0.17 0.97943 0.0
C4 C 0.23134 0.1814 0.06256 0.0
C5 C 0.24176 0.17561 0.07252 0.0
U6 U 0.25878 0.13569 0.04875 0.0
O7 O 0.28186 0.13785 0.02817 0.0
O8 O 0.27418 0.13408 0.10639 0.0
C9 C 0.28576 0.1371 0.07474 0.0
C10 C 0.25679 0.16198 0.04687 0.0
C11 C 0.30245 0.14878 0.09087 0.0
C12 C 0.33081 0.16588 0.07087 0.0
C13 C 0.31479 0.15665 0.05556 0.0
C14 C 0.32257 0.15991 0.15714 0.0
C15 C 0.33484 0.16737 0.12173 0.0
C16 C 0.30655 0.15067 0.1419 0.0
C17 C 0.22805 0.09046 0.02153 0.0
C18 C 0.22788 0.06786 0.97932 0.0
C19 C 0.20837 0.06285 0.04373 0.0
C20 C 0.215 0.07943 0.05052 0.0
C21 C 0.2146 0.05692 0.00762 0.0
C22 C 0.23456 0.08449 0.98617 0.0
C23 C 0.23346 0.10787 0.02562 0.0
O24 O 0.25438 0.15337 0.08739 0.0
O25 O 0.2619 0.15707 0.00897 0.0
O26 O 0.24382 0.11761 0.99243 0.0
O27 O 0.23628 0.11404 0.07084 0.0
H28 H 0.23925 0.15758 0.96047 0.0
H29 H 0.22104 0.16782 0.94316 0.0
H30 H 0.22926 0.18812 0.09112 0.0
H31 H 0.24761 0.17807 0.10861 0.0
H32 H 0.34012 0.17148 0.04294 0.0
H33 H 0.31217 0.15527 0.01596 0.0
H34 H 0.32543 0.16083 0.19655 0.0
H35 H 0.29744 0.14459 0.17011 0.0
H36 H 0.23282 0.06352 0.95112 0.0
H37 H 0.19809 0.05462 0.06579 0.0
H38 H 0.20962 0.08365 0.0776 0.0
H39 H 0.24454 0.09262 0.96294 0.0
C40 C 0.88988 0.08912 0.03777 0.0
C41 C 0.89257 0.08426 0.9909 0.0
C42 C 0.87639 0.05608 0.01476 0.0
C43 C 0.88587 0.06787 0.97952 0.0
C44 C 0.87407 0.06093 0.06193 0.0
C45 C 0.88072 0.07728 0.07325 0.0
U46 U 0.92151 0.13468 0.04936 0.0
O47 O 0.91904 0.15558 0.03059 0.0
O48 O 0.92369 0.15181 0.10806 0.0
C49 C 0.92025 0.16028 0.07733 0.0
C50 C 0.89532 0.10621 0.0494 0.0
C51 C 0.90863 0.16505 0.09523 0.0
C52 C 0.88815 0.17223 0.07866 0.0
C53 C 0.89756 0.16577 0.06261 0.0
C54 C 0.90032 0.17705 0.16053 0.0
C55 C 0.88963 0.17813 0.12753 0.0
C56 C 0.90975 0.17063 0.14452 0.0
C57 C 0.966 0.14979 0.0143 0.0
C58 C 0.9916 0.17129 0.04596 0.0
C59 C 0.99008 0.16048 0.96316 0.0
C60 C 0.97365 0.1499 0.96958 0.0
C61 C 0.99922 0.17114 0.00145 0.0
C62 C 0.97512 0.16071 0.05238 0.0
C63 C 0.94889 0.13745 0.02115 0.0
O64 O 0.90455 0.1124 0.08883 0.0
O65 O 0.89967 0.11627 0.01166 0.0
O66 O 0.93864 0.13787 0.98979 0.0
O67 O 0.94346 0.13415 0.06717 0.0
H68 H 0.89955 0.09307 0.96268 0.0
H69 H 0.88778 0.06435 0.94289 0.0
H70 H 0.86677 0.05204 0.08956 0.0
H71 H 0.87837 0.08068 0.10948 0.0
H72 H 0.88001 0.17301 0.05257 0.0
H73 H 0.89646 0.16176 0.02426 0.0
H74 H 0.90169 0.18161 0.19831 0.0
H75 H 0.9183 0.17047 0.17035 0.0
H76 H 0.99845 0.17946 0.0759 0.0
H77 H 0.99572 0.16019 0.92855 0.0
H78 H 0.96694 0.14155 0.93982 0.0
H79 H 0.9696 0.16091 0.08732 0.0
C80 C 0.89104 0.81104 0.0314 0.0
C81 C 0.8974 0.82604 0.05559 0.0
C82 C 0.87851 0.8315 0.01189 0.0
C83 C 0.89117 0.83615 0.04593 0.0
C84 C 0.8724 0.81671 0.98694 0.0
C85 C 0.87857 0.80658 -0.00327 0.0
U86 U 0.92255 0.79753 0.04736 0.0
O87 O 0.92441 0.78273 0.10692 0.0
O88 O 0.92035 0.77417 0.02936 0.0
C89 C 0.92149 0.77087 0.07629 0.0
C90 C 0.89629 0.79937 0.04412 0.0
C91 C 0.91017 0.75436 0.09402 0.0
C92 C 0.88581 0.72823 0.08521 0.0
C93 C 0.89545 0.7443 0.07011 0.0
C94 C 0.90522 0.73217 0.14897 0.0
C95 C 0.89073 0.72201 0.12442 0.0
C96 C 0.91483 0.74817 0.13391 0.0
C97 C 0.9674 0.82755 0.01778 0.0
C98 C 0.98906 0.82485 0.9813 0.0
C99 C 0.99529 0.84768 0.03424 0.0
C100 C 0.9789 0.84187 0.04101 0.0
C101 C 1.00051 0.83933 0.00384 0.0
C102 C 0.97265 0.81899 0.98822 0.0
C103 C 0.95019 0.8226 0.02205 0.0
O104 O 0.90108 0.79393 0.00685 0.0
O105 O 0.90503 0.80225 0.08461 0.0
O106 O 0.94427 0.82036 0.06742 0.0
O107 O 0.94025 0.81189 0.98982 0.0
H108 H 0.90698 0.82984 0.08261 0.0
H109 H 0.89605 0.84751 0.06556 0.0
H110 H 0.86264 0.81289 0.96055 0.0
H111 H 0.87336 0.79506 0.97783 0.0
H112 H 0.87469 0.72056 0.06571 0.0
H113 H 0.89155 0.74872 0.03919 0.0
H114 H 0.90925 0.7276 0.17918 0.0
H115 H 0.92615 0.75563 0.15274 0.0
H116 H 0.99285 0.81822 0.95771 0.0
H117 H 1.00391 0.85886 0.05196 0.0
H118 H 0.97521 0.84876 0.06366 0.0
H119 H 0.96411 0.80794 0.96969 0.0
C120 C 0.10085 0.23318 0.95188 0.0
C121 C 0.09283 0.21738 0.9329 0.0
C122 C 0.06786 0.21247 0.97103 0.0
C123 C 0.07647 0.20713 0.94237 0.0
C124 C 0.07594 0.22811 0.99087 0.0
C125 C 0.09226 0.23836 0.98128 0.0
U126 U 0.14591 0.24676 0.9355 0.0
O127 O 0.16255 0.26183 0.87649 0.0
O128 O 0.16705 0.27016 0.95418 0.0
C129 C 0.17136 0.27374 0.90724 0.0
C130 C 0.11777 0.24483 0.93923 0.0
C131 C 0.17624 0.29034 0.89035 0.0
C132 C 0.18302 0.30971 0.82272 0.0
C133 C 0.17642 0.2938 0.83918 0.0
C134 C 0.18917 0.31912 0.9081 0.0
C135 C 0.18967 0.32251 0.85698 0.0
C136 C 0.18258 0.30322 0.92461 0.0
C137 C 0.16089 0.21686 0.96406 0.0
C138 C 0.18515 0.21942 0.00116 0.0
C139 C 0.16878 0.19691 0.9467 0.0
C140 C 0.15821 0.20271 0.94002 0.0
C141 C 0.18222 0.2051 0.97783 0.0
C142 C 0.17459 0.22527 -0.00566 0.0
C143 C 0.1486 0.22174 0.95998 0.0
O144 O 0.12802 0.25016 0.97653 0.0
O145 O 0.12358 0.24198 0.89861 0.0
O146 O 0.14493 0.22407 0.9147 0.0
O147 O 0.14931 0.23233 0.99254 0.0
H148 H 0.09912 0.21303 0.91012 0.0
H149 H 0.07045 0.1951 0.92677 0.0
H150 H 0.06954 0.23246 0.01308 0.0
H151 H 0.09813 0.25048 -0.00386 0.0
H152 H 0.18337 0.31209 0.78309 0.0
H153 H 0.17192 0.28427 0.81159 0.0
H154 H 0.19433 0.32883 0.9351 0.0
H155 H 0.18291 0.30106 0.96415 0.0
H156 H 0.19545 0.22591 0.02533 0.0
H157 H 0.16631 0.18585 0.92837 0.0
H158 H 0.14771 0.19593 0.91682 0.0
H159 H 0.177 0.23617 0.01353 0.0
C160 C 0.82238 0.95402 0.954 0.0
C161 C 0.83741 0.96305 0.93075 0.0
C162 C 0.84185 0.98732 0.97376 0.0
C163 C 0.84705 0.97957 0.94056 0.0
C164 C 0.82706 0.97825 -0.00219 0.0
C165 C 0.81742 0.96179 0.98797 0.0
U166 U 0.80911 0.90869 0.93731 0.0
O167 O 0.78576 0.88752 0.95525 0.0
O168 O 0.79417 0.89199 0.87779 0.0
C169 C 0.78223 0.88322 0.90822 0.0
C170 C 0.81105 0.93697 0.94066 0.0
C171 C 0.76577 0.87855 0.89102 0.0
C172 C 0.73729 0.86711 0.90899 0.0
C173 C 0.75311 0.87341 0.92546 0.0
C174 C 0.74633 0.87114 0.82326 0.0
C175 C 0.73374 0.8657 0.85777 0.0
C176 C 0.76216 0.87745 0.83968 0.0
C177 C 0.83861 0.8935 0.96985 0.0
C178 C 0.84506 0.87399 0.93493 0.0
C179 C 0.85 0.88109 0.02247 0.0
C180 C 0.84406 0.89159 0.0166 0.0
C181 C 0.85071 0.87233 0.98161 0.0
C182 C 0.83907 0.88449 0.92905 0.0
C183 C 0.83379 0.90586 0.96419 0.0
O184 O 0.8142 0.9312 0.90044 0.0
O185 O 0.80551 0.92663 0.97768 0.0
O186 O 0.8231 0.90518 -0.00408 0.0
O187 O 0.83171 0.90954 0.9186 0.0
H188 H 0.84156 0.95746 0.90422 0.0
H189 H 0.85841 0.98638 0.92151 0.0
H190 H 0.82281 0.984 0.02342 0.0
H191 H 0.80586 0.95518 0.00606 0.0
H192 H 0.72773 0.86289 0.93621 0.0
H193 H 0.75534 0.87381 0.9652 0.0
H194 H 0.74384 0.87007 0.78357 0.0
H195 H 0.77152 0.88102 0.81204 0.0
H196 H 0.84549 0.86732 0.90296 0.0
H197 H 0.8543 0.87999 0.05876 0.0
H198 H 0.84401 0.89849 0.04855 0.0
H199 H 0.83505 0.88571 0.89244 0.0
C200 C 0.10139 0.87748 0.94632 0.0
C201 C 0.0965 0.88066 0.9924 0.0
C202 C 0.06857 0.86566 0.96612 0.0
C203 C 0.08022 0.87477 0.00219 0.0
C204 C 0.07343 0.86268 0.91994 0.0
C205 C 0.08967 0.86849 0.91022 0.0
U206 U 0.14669 0.90892 0.93583 0.0
O207 O 0.16755 0.90672 0.95736 0.0
O208 O 0.16408 0.91095 0.87908 0.0
C209 C 0.17254 0.90791 0.91107 0.0
C210 C 0.11839 0.88255 0.93588 0.0
C211 C 0.17785 0.89653 0.89523 0.0
C212 C 0.17856 0.87784 0.83489 0.0
C213 C 0.17189 0.88701 0.85186 0.0
C214 C 0.1969 0.88714 0.90493 0.0
C215 C 0.19127 0.87802 0.86095 0.0
C216 C 0.19028 0.89631 0.92181 0.0
C217 C 0.16116 0.95386 0.96685 0.0
C218 C 0.17932 0.98028 0.93144 0.0
C219 C 0.1729 0.97786 0.01946 0.0
C220 C 0.16311 0.9612 0.01381 0.0
C221 C 0.18086 0.98756 0.97818 0.0
C222 C 0.16956 0.96358 0.92576 0.0
C223 C 0.14908 0.93651 0.96092 0.0
O224 O 0.12474 0.89142 0.89591 0.0
O225 O 0.12828 0.88724 0.97413 0.0
O226 O 0.14952 0.92656 0.99357 0.0
O227 O 0.14589 0.93063 0.91531 0.0
H228 H 0.10521 0.88752 0.02108 0.0
H229 H 0.0767 0.87722 0.03801 0.0
H230 H 0.06462 0.85568 0.89164 0.0
H231 H 0.09308 0.86578 0.87458 0.0
H232 H 0.17407 0.87092 0.80079 0.0
H233 H 0.16238 0.88695 0.83035 0.0
H234 H 0.20672 0.88749 0.92549 0.0
H235 H 0.19521 0.90363 0.95503 0.0
H236 H 0.18535 0.98758 0.89911 0.0
H237 H 0.17388 0.98326 0.05578 0.0
H238 H 0.15667 0.95407 0.04599 0.0
H239 H 0.16826 0.95839 0.88897 0.0
C240 C 0.9119 0.50154 0.37673 0.0
C241 C 0.90296 0.49882 0.33254 0.0
C242 C 0.89121 0.51417 0.36577 0.0
C243 C 0.89269 0.50511 0.32713 0.0
C244 C 0.90001 0.51673 0.4099 0.0
C245 C 0.91025 0.51052 0.41526 0.0
U246 U 0.92562 0.46978 0.37849 0.0
O247 O 0.9487 0.47249 0.35461 0.0
O248 O 0.94132 0.46733 0.43293 0.0
C249 C 0.9528 0.471 0.40026 0.0
C250 C 0.92369 0.49608 0.38302 0.0
C251 C 0.96952 0.48256 0.41636 0.0
C252 C 0.99813 0.49718 0.39748 0.0
C253 C 0.98216 0.48803 0.38178 0.0
C254 C 0.98929 0.4959 0.4827 0.0
C255 C 1.00183 0.50095 0.44818 0.0
C256 C 0.9733 0.48677 0.46702 0.0
C257 C 0.89509 0.4249 0.34688 0.0
C258 C 0.88749 0.39848 0.38091 0.0
C259 C 0.88255 0.40102 0.29375 0.0
C260 C 0.88932 0.41765 0.30001 0.0
C261 C 0.88134 0.39127 0.33431 0.0
C262 C 0.8943 0.41514 0.38719 0.0
C263 C 0.90027 0.44219 0.35373 0.0
O264 O 0.92164 0.48693 0.42191 0.0
O265 O 0.9282 0.49157 0.34278 0.0
O266 O 0.91038 0.45232 0.32079 0.0
O267 O 0.90329 0.44791 0.39954 0.0
H268 H 0.90399 0.492 0.30207 0.0
H269 H 0.88597 0.50298 0.29283 0.0
H270 H 0.89902 0.52367 0.44015 0.0
H271 H 0.91707 0.5129 0.44948 0.0
H272 H 1.00763 0.5009 0.37029 0.0
H273 H 0.97972 0.4848 0.34268 0.0
H274 H 0.99189 0.49862 0.52201 0.0
H275 H 0.96395 0.48263 0.49489 0.0
H276 H 0.88662 0.39114 0.41269 0.0
H277 H 0.87783 0.39568 0.25756 0.0
H278 H 0.88959 0.4248 0.26844 0.0
H279 H 0.89853 0.42026 0.4239 0.0
C280 C 0.55652 0.4227 0.36997 0.0
C281 C 0.55949 0.41765 0.32385 0.0
C282 C 0.54259 0.38956 0.34773 0.0
C283 C 0.55256 0.40121 0.31284 0.0
C284 C 0.54002 0.39461 0.39426 0.0
C285 C 0.54689 0.411 0.40519 0.0
U286 U 0.58851 0.46818 0.3816 0.0
O287 O 0.58636 0.4892 0.36146 0.0
O288 O 0.59054 0.48544 0.43941 0.0
C289 C 0.58732 0.49394 0.40807 0.0
C290 C 0.56213 0.43987 0.38092 0.0
C291 C 0.57563 0.49879 0.42475 0.0
C292 C 0.55826 0.50973 0.40565 0.0
C293 C 0.56768 0.50326 0.38982 0.0
C294 C 0.56425 0.50719 0.4917 0.0
C295 C 0.55666 0.51197 0.45668 0.0
C296 C 0.57367 0.50072 0.47594 0.0
C297 C 0.63321 0.48278 0.3511 0.0
C298 C 0.65496 0.50706 0.31352 0.0
C299 C 0.66104 0.4903 0.36562 0.0
C300 C 0.64465 0.47985 0.37342 0.0
C301 C 0.66633 0.50388 0.33513 0.0
C302 C 0.63854 0.49661 0.32144 0.0
C303 C 0.61597 0.4706 0.35642 0.0
O304 O 0.57111 0.44604 0.42084 0.0
O305 O 0.56686 0.44984 0.34291 0.0
O306 O 0.60599 0.47106 0.324 0.0
O307 O 0.61024 0.46742 0.40208 0.0
H308 H 0.56684 0.42635 0.29586 0.0
H309 H 0.55466 0.39756 0.2767 0.0
H310 H 0.53235 0.38583 0.42163 0.0
H311 H 0.54432 0.41455 0.44083 0.0
H312 H 0.55257 0.51342 0.37802 0.0
H313 H 0.56909 0.50221 0.35013 0.0
H314 H 0.56324 0.5089 0.53123 0.0
H315 H 0.5798 0.49768 0.50389 0.0
H316 H 0.65881 0.51748 0.28987 0.0
H317 H 0.66961 0.48763 0.38263 0.0
H318 H 0.64089 0.46924 0.39613 0.0
H319 H 0.63003 0.4992 0.30361 0.0
C320 C 0.55729 0.14462 0.36257 0.0
C321 C 0.56527 0.16045 0.38133 0.0
C322 C 0.54513 0.16543 0.34414 0.0
C323 C 0.55921 0.17075 0.37222 0.0
C324 C 0.53738 0.14976 0.32452 0.0
C325 C 0.54339 0.13947 0.33375 0.0
U326 U 0.58859 0.13076 0.37661 0.0
O327 O 0.59039 0.11569 0.43509 0.0
O328 O 0.58589 0.10721 0.35752 0.0
C329 C 0.58694 0.10371 0.40429 0.0
C330 C 0.56251 0.13293 0.37484 0.0
C331 C 0.57518 0.08716 0.42138 0.0
C332 C 0.55957 0.06832 0.4876 0.0
C333 C 0.56901 0.08413 0.47032 0.0
C334 C 0.56193 0.05817 0.40725 0.0
C335 C 0.55617 0.05522 0.45642 0.0
C336 C 0.57137 0.07396 0.38997 0.0
C337 C 0.63336 0.16016 0.34371 0.0
C338 C 0.65917 0.16605 0.37804 0.0
C339 C 0.65716 0.17157 0.29105 0.0
C340 C 0.64077 0.16581 0.29712 0.0
C341 C 0.66653 0.17189 0.33154 0.0
C342 C 0.64273 0.16023 0.38413 0.0
C343 C 0.61626 0.15549 0.34971 0.0
O344 O 0.56705 0.1274 0.33718 0.0
O345 O 0.57148 0.13586 0.41481 0.0
O346 O 0.61058 0.15338 0.39541 0.0
O347 O 0.60607 0.14484 0.31788 0.0
H348 H 0.57601 0.16478 0.40367 0.0
H349 H 0.56537 0.1828 0.38765 0.0
H350 H 0.52652 0.14543 0.30276 0.0
H351 H 0.53699 0.12732 0.31907 0.0
H352 H 0.55528 0.06628 0.52574 0.0
H353 H 0.57181 0.09396 0.49579 0.0
H354 H 0.5595 0.04824 0.38268 0.0
H355 H 0.57611 0.07585 0.35239 0.0
H356 H 0.6662 0.16618 0.40973 0.0
H357 H 0.66261 0.17603 0.2549 0.0
H358 H 0.6339 0.16605 0.26549 0.0
H359 H 0.63744 0.15604 0.4206 0.0
C360 C 0.76732 0.56548 0.27398 0.0
C361 C 0.7624 0.55709 0.31952 0.0
C362 C 0.73442 0.54477 0.29438 0.0
C363 C 0.74608 0.54685 0.32963 0.0
C364 C 0.73932 0.5529 0.24863 0.0
C365 C 0.75561 0.56318 0.2386 0.0
U366 U 0.81266 0.57967 0.26725 0.0
O367 O 0.83046 0.59484 0.21093 0.0
O368 O 0.83327 0.60317 0.2885 0.0
C369 C 0.83852 0.60677 0.24237 0.0
C370 C 0.78436 0.57738 0.26356 0.0
C371 C 0.84351 0.62333 0.22491 0.0
C372 C 0.84769 0.64225 0.15791 0.0
C373 C 0.84119 0.62642 0.1751 0.0
C374 C 0.85867 0.6523 0.23999 0.0
C375 C 0.85668 0.65532 0.19005 0.0
C376 C 0.85221 0.63649 0.25719 0.0
C377 C 0.82679 0.54989 0.30643 0.0
C378 C 0.85424 0.55615 0.31962 0.0
C379 C 0.83264 0.52897 0.3294 0.0
C380 C 0.82166 0.53375 0.31609 0.0
C381 C 0.84911 0.54029 0.33653 0.0
C382 C 0.84322 0.56098 0.30641 0.0
C383 C 0.81471 0.55468 0.29684 0.0
O384 O 0.79403 0.58315 0.30221 0.0
O385 O 0.79089 0.57438 0.22506 0.0
O386 O 0.81246 0.55714 0.25005 0.0
O387 O 0.81484 0.5654 0.32756 0.0
H388 H 0.77112 0.55861 0.34759 0.0
H389 H 0.74253 0.54065 0.3651 0.0
H390 H 0.73051 0.55144 0.22095 0.0
H391 H 0.75906 0.56955 0.20338 0.0
H392 H 0.84607 0.64433 0.11918 0.0
H393 H 0.83472 0.61663 0.14896 0.0
H394 H 0.86563 0.66221 0.26532 0.0
H395 H 0.85442 0.63457 0.2955 0.0
H396 H 0.86667 0.56506 0.31518 0.0
H397 H 0.82794 0.51623 0.33388 0.0
H398 H 0.80906 0.52477 0.31364 0.0
H399 H 0.84755 0.57338 0.29611 0.0
C400 C 0.48948 0.28792 0.27851 0.0
C401 C 0.49677 0.29315 0.32567 0.0
C402 C 0.50857 0.32115 0.30011 0.0
C403 C 0.50621 0.30962 0.33634 0.0
C404 C 0.50171 0.31594 0.25263 0.0
C405 C 0.49223 0.2995 0.24202 0.0
U406 U 0.47609 0.24249 0.26832 0.0
O407 O 0.4529 0.22146 0.28924 0.0
O408 O 0.46086 0.22491 0.21124 0.0
C409 C 0.44921 0.21643 0.24287 0.0
C410 C 0.47793 0.27072 0.26769 0.0
C411 C 0.43263 0.21128 0.22651 0.0
C412 C 0.4136 0.21237 0.16899 0.0
C413 C 0.42936 0.21858 0.18624 0.0
C414 C 0.4041 0.19178 0.23267 0.0
C415 C 0.40088 0.19881 0.19176 0.0
C416 C 0.41981 0.19795 0.24979 0.0
C417 C 0.50603 0.22807 0.30209 0.0
C418 C 0.50982 0.20639 0.27078 0.0
C419 C 0.51986 0.21774 0.3526 0.0
C420 C 0.51398 0.22828 0.34627 0.0
C421 C 0.51796 0.20682 0.31475 0.0
C422 C 0.50388 0.21692 0.26447 0.0
C423 C 0.50112 0.24029 0.2953 0.0
O424 O 0.48084 0.26447 0.22818 0.0
O425 O 0.47257 0.26082 0.30586 0.0
O426 O 0.49061 0.2399 0.32724 0.0
O427 O 0.49864 0.24332 0.24933 0.0
H428 H 0.49487 0.28456 0.35469 0.0
H429 H 0.51138 0.31339 0.37323 0.0
H430 H 0.50335 0.32463 0.2242 0.0
H431 H 0.48668 0.29584 0.20556 0.0
H432 H 0.41136 0.21793 0.13729 0.0
H433 H 0.43898 0.22886 0.16746 0.0
H434 H 0.39448 0.1813 0.25067 0.0
H435 H 0.422 0.19204 0.28065 0.0
H436 H 0.50822 0.19802 0.24119 0.0
H437 H 0.52609 0.21825 0.38679 0.0
H438 H 0.51588 0.23681 0.37568 0.0
H439 H 0.49783 0.21647 0.22995 0.0
C440 C 0.76806 0.21107 0.28365 0.0
C441 C 0.75984 0.21782 0.25977 0.0
C442 C 0.73506 0.19884 0.30183 0.0
C443 C 0.74349 0.21173 0.26875 0.0
C444 C 0.74332 0.19231 0.32639 0.0
C445 C 0.75963 0.19834 0.31727 0.0
U446 U 0.813 0.24308 0.26812 0.0
O447 O 0.83431 0.24172 0.29013 0.0
O448 O 0.83015 0.24463 0.21129 0.0
C449 C 0.83903 0.24237 0.24374 0.0
C450 C 0.78504 0.21636 0.27226 0.0
C451 C 0.84446 0.23098 0.22941 0.0
C452 C 0.84231 0.20885 0.17889 0.0
C453 C 0.83594 0.21836 0.1952 0.0
C454 C 0.86552 0.22412 0.23168 0.0
C455 C 0.85725 0.2118 0.19659 0.0
C456 C 0.85918 0.23361 0.24789 0.0
C457 C 0.82665 0.28823 0.29205 0.0
C458 C 0.84934 0.31122 0.33219 0.0
C459 C 0.83376 0.31562 0.27012 0.0
C460 C 0.82399 0.29898 0.26389 0.0
C461 C 0.84636 0.32188 0.30482 0.0
C462 C 0.83958 0.29454 0.32589 0.0
C463 C 0.81487 0.27073 0.2888 0.0
O464 O 0.79105 0.22462 0.23099 0.0
O465 O 0.79511 0.22186 0.31001 0.0
O466 O 0.8157 0.26136 0.32287 0.0
O467 O 0.81162 0.26426 0.24397 0.0
H468 H 0.76598 0.22764 0.23366 0.0
H469 H 0.73734 0.21694 0.24945 0.0
H470 H 0.73706 0.18238 0.35207 0.0
H471 H 0.76564 0.19287 0.33598 0.0
H472 H 0.83577 0.19943 0.1517 0.0
H473 H 0.82457 0.21607 0.18028 0.0
H474 H 0.87706 0.22662 0.24569 0.0
H475 H 0.86601 0.2433 0.27405 0.0
H476 H 0.85898 0.31582 0.35928 0.0
H477 H 0.83122 0.32363 0.24878 0.0
H478 H 0.81404 0.29449 0.23797 0.0
H479 H 0.84193 0.28662 0.3484 0.0
C480 C 0.5788 0.8343 0.69904 0.0
C481 C 0.56356 0.82698 0.72141 0.0
C482 C 0.55777 0.84619 0.68108 0.0
C483 C 0.55316 0.8329 0.71255 0.0
C484 C 0.57284 0.85329 0.65798 0.0
C485 C 0.58325 0.84743 0.667 0.0
U486 U 0.59202 0.80257 0.7138 0.0
O487 O 0.61483 0.80422 0.69206 0.0
O488 O 0.60755 0.80095 0.77073 0.0
C489 C 0.61885 0.8035 0.73849 0.0
C490 C 0.59058 0.82915 0.71038 0.0
C491 C 0.63568 0.81491 0.75327 0.0
C492 C 0.65547 0.83411 0.81187 0.0
C493 C 0.63954 0.82495 0.7955 0.0
C494 C 0.66402 0.82377 0.74339 0.0
C495 C 0.6678 0.8334 0.78634 0.0
C496 C 0.64813 0.81461 0.72711 0.0
C497 C 0.56077 0.75742 0.68848 0.0
C498 C 0.561 0.73471 0.64852 0.0
C499 C 0.54052 0.72989 0.70924 0.0
C500 C 0.54721 0.74648 0.71579 0.0
C501 C 0.54721 0.72386 0.67506 0.0
C502 C 0.56774 0.75136 0.65516 0.0
C503 C 0.56634 0.77487 0.69215 0.0
O504 O 0.58829 0.82077 0.7514 0.0
O505 O 0.59529 0.82385 0.67252 0.0
O506 O 0.5766 0.7844 0.65842 0.0
O507 O 0.56943 0.7812 0.73717 0.0
H508 H 0.55976 0.81684 0.74626 0.0
H509 H 0.54158 0.82725 0.73069 0.0
H510 H 0.57662 0.86353 0.63356 0.0
H511 H 0.59493 0.85332 0.64946 0.0
H512 H 0.65814 0.84142 0.84517 0.0
H513 H 0.63024 0.82542 0.81665 0.0
H514 H 0.67334 0.82302 0.72325 0.0
H515 H 0.6455 0.80689 0.69478 0.0
H516 H 0.5663 0.73029 0.62184 0.0
H517 H 0.52986 0.72172 0.72994 0.0
H518 H 0.54151 0.7508 0.74132 0.0
H519 H 0.57814 0.75943 0.63333 0.0
C520 C 0.22347 0.75657 0.69487 0.0
C521 C 0.22989 0.74773 0.71667 0.0
C522 C 0.20974 0.72331 0.67492 0.0
C523 C 0.22306 0.73123 0.70678 0.0
C524 C 0.20357 0.73219 0.65236 0.0
C525 C 0.21034 0.74864 0.66231 0.0
U526 U 0.25596 0.80172 0.71079 0.0
O527 O 0.25422 0.82307 0.69217 0.0
O528 O 0.25812 0.81871 0.76978 0.0
C529 C 0.25511 0.82751 0.73908 0.0
C530 C 0.22931 0.77365 0.70796 0.0
C531 C 0.24347 0.83241 0.75603 0.0
C532 C 0.22713 0.84458 0.73784 0.0
C533 C 0.23653 0.83816 0.72153 0.0
C534 C 0.23112 0.83949 0.82352 0.0
C535 C 0.22453 0.84551 0.78899 0.0
C536 C 0.24053 0.83306 0.80726 0.0
C537 C 0.30034 0.8158 0.67824 0.0
C538 C 0.32434 0.84096 0.70068 0.0
C539 C 0.3259 0.82338 0.63898 0.0
C540 C 0.30949 0.81258 0.64453 0.0
C541 C 0.33348 0.83762 0.66711 0.0
C542 C 0.30786 0.83013 0.7062 0.0
C543 C 0.28315 0.80377 0.68401 0.0
O544 O 0.23827 0.77942 0.74815 0.0
O545 O 0.23421 0.78392 0.67075 0.0
O546 O 0.27331 0.80474 0.65227 0.0
O547 O 0.27752 0.80057 0.72981 0.0
H548 H 0.23997 0.75347 0.74203 0.0
H549 H 0.22797 0.72457 0.72466 0.0
H550 H 0.19328 0.72631 0.62779 0.0
H551 H 0.20509 0.75512 0.64531 0.0
H552 H 0.22223 0.84924 0.7106 0.0
H553 H 0.23873 0.83812 0.6819 0.0
H554 H 0.22934 0.84019 0.86317 0.0
H555 H 0.24586 0.82901 0.83499 0.0
H556 H 0.32997 0.85192 0.7226 0.0
H557 H 0.33272 0.8206 0.61285 0.0
H558 H 0.30395 0.8016 0.62264 0.0
H559 H 0.30104 0.83288 0.73239 0.0
C560 C 0.22413 0.47852 0.70392 0.0
C561 C 0.22852 0.48762 0.65968 0.0
C562 C 0.21201 0.49919 0.68253 0.0
C563 C 0.22247 0.49784 0.64906 0.0
C564 C 0.20783 0.49029 0.72698 0.0
C565 C 0.2138 0.48004 0.73747 0.0
U566 U 0.2556 0.46486 0.71526 0.0
O567 O 0.25781 0.45003 0.77395 0.0
O568 O 0.25322 0.44148 0.69639 0.0
C569 C 0.25456 0.43812 0.74311 0.0
C570 C 0.22937 0.46677 0.71502 0.0
C571 C 0.24317 0.42164 0.76115 0.0
C572 C 0.21975 0.39494 0.74981 0.0
C573 C 0.22929 0.41096 0.73427 0.0
C574 C 0.23752 0.40011 0.81994 0.0
C575 C 0.22392 0.38935 0.79243 0.0
C576 C 0.24705 0.41607 0.80441 0.0
C577 C 0.30028 0.49485 0.68374 0.0
C578 C 0.32175 0.49203 0.6463 0.0
C579 C 0.32824 0.51487 0.69952 0.0
C580 C 0.3119 0.50914 0.7068 0.0
C581 C 0.33331 0.50647 0.66878 0.0
C582 C 0.30537 0.48625 0.65373 0.0
C583 C 0.28311 0.48992 0.68895 0.0
O584 O 0.23389 0.46132 0.67704 0.0
O585 O 0.23844 0.46973 0.75472 0.0
O586 O 0.27744 0.48765 0.73466 0.0
O587 O 0.27299 0.47925 0.65698 0.0
H588 H 0.23646 0.48671 0.63307 0.0
H589 H 0.22585 0.50462 0.61457 0.0
H590 H 0.19979 0.49115 0.7533 0.0
H591 H 0.21017 0.4731 0.77167 0.0
H592 H 0.20933 0.3868 0.72799 0.0
H593 H 0.22599 0.41485 0.70069 0.0
H594 H 0.24097 0.39603 0.85281 0.0
H595 H 0.25773 0.42399 0.82558 0.0
H596 H 0.32543 0.48537 0.62244 0.0
H597 H 0.33696 0.52603 0.71719 0.0
H598 H 0.30832 0.51606 0.72981 0.0
H599 H 0.29674 0.47522 0.63532 0.0
C600 C 0.43488 0.90126 0.61891 0.0
C601 C 0.42834 0.8845 0.6167 0.0
C602 C 0.40198 0.88032 0.63808 0.0
C603 C 0.41199 0.87411 0.62617 0.0
C604 C 0.40861 0.89704 0.64118 0.0
C605 C 0.42491 0.9074 0.63165 0.0
U606 U 0.47968 0.91389 0.60484 0.0
O607 O 0.4965 0.92812 0.54475 0.0
O608 O 0.50104 0.93725 0.62168 0.0
C609 C 0.50552 0.94018 0.57471 0.0
C610 C 0.45182 0.91261 0.60621 0.0
C611 C 0.51075 0.95656 0.55584 0.0
C612 C 0.51171 0.98235 0.5609 0.0
C613 C 0.50531 0.96637 0.57679 0.0
C614 C 0.52872 0.97881 0.50214 0.0
C615 C 0.5236 0.98873 0.52383 0.0
C616 C 0.52236 0.9629 0.51801 0.0
C617 C 0.49419 0.88411 0.63972 0.0
C618 C 0.51485 0.87922 0.60622 0.0
C619 C 0.50589 0.87183 0.69149 0.0
C620 C 0.49523 0.87754 0.68543 0.0
C621 C 0.51568 0.87249 0.65183 0.0
C622 C 0.50421 0.885 0.60018 0.0
C623 C 0.48193 0.88897 0.63371 0.0
O624 O 0.46199 0.91812 0.64366 0.0
O625 O 0.45751 0.90904 0.56674 0.0
O626 O 0.47822 0.8908 0.5879 0.0
O627 O 0.48286 0.90001 0.6647 0.0
H628 H 0.43581 0.87948 0.60701 0.0
H629 H 0.40709 0.86124 0.6236 0.0
H630 H 0.40111 0.90207 0.65031 0.0
H631 H 0.4297 0.92027 0.63351 0.0
H632 H 0.50763 0.98983 0.57818 0.0
H633 H 0.49638 0.96181 0.60605 0.0
H634 H 0.53789 0.9835 0.4736 0.0
H635 H 0.5268 0.95561 0.50147 0.0
H636 H 0.52233 0.87985 0.57521 0.0
H637 H 0.50636 0.86669 0.72695 0.0
H638 H 0.4876 0.87661 0.71637 0.0
H639 H 0.50369 0.88996 0.56445 0.0
C640 C 0.15657 0.62153 0.61018 0.0
C641 C 0.16453 0.62646 0.65647 0.0
C642 C 0.17597 0.6546 0.63314 0.0
C643 C 0.17414 0.64286 0.66783 0.0
C644 C 0.16841 0.6497 0.58649 0.0
C645 C 0.15878 0.63334 0.57519 0.0
U646 U 0.14288 0.57606 0.59896 0.0
O647 O 0.11954 0.5551 0.61898 0.0
O648 O 0.12775 0.5587 0.54124 0.0
C649 C 0.11595 0.55022 0.57244 0.0
C650 C 0.14496 0.6044 0.59882 0.0
C651 C 0.09942 0.54522 0.55563 0.0
C652 C 0.08061 0.54475 0.4938 0.0
C653 C 0.09636 0.55104 0.51125 0.0
C654 C 0.07069 0.52703 0.56526 0.0
C655 C 0.06767 0.53255 0.52038 0.0
C656 C 0.08639 0.53327 0.58261 0.0
C657 C 0.17246 0.56116 0.63315 0.0
C658 C 0.17886 0.54144 0.59974 0.0
C659 C 0.18396 0.54911 0.68684 0.0
C660 C 0.17801 0.55957 0.68012 0.0
C661 C 0.1846 0.54009 0.64662 0.0
C662 C 0.17283 0.55187 0.59302 0.0
C663 C 0.16767 0.5735 0.62639 0.0
O664 O 0.14794 0.59822 0.55929 0.0
O665 O 0.13944 0.59441 0.63674 0.0
O666 O 0.15713 0.57315 0.65811 0.0
O667 O 0.1654 0.57675 0.58046 0.0
H668 H 0.16307 0.61767 0.6843 0.0
H669 H 0.17987 0.64642 0.70406 0.0
H670 H 0.16964 0.65857 0.55928 0.0
H671 H 0.15272 0.62988 0.53942 0.0
H672 H 0.07854 0.54913 0.45901 0.0
H673 H 0.10611 0.56018 0.48941 0.0
H674 H 0.06089 0.5176 0.58623 0.0
H675 H 0.08839 0.52845 0.61661 0.0
H676 H 0.17927 0.53459 0.56821 0.0
H677 H 0.18834 0.54826 0.72328 0.0
H678 H 0.17803 0.56668 0.71155 0.0
H679 H 0.16875 0.55286 0.55626 0.0
C680 C 0.43418 0.54447 0.61165 0.0
C681 C 0.42923 0.54766 0.65758 0.0
C682 C 0.40133 0.53263 0.63096 0.0
C683 C 0.41293 0.54177 0.66713 0.0
C684 C 0.40626 0.52964 0.58492 0.0
C685 C 0.42251 0.53546 0.57543 0.0
U686 U 0.47945 0.57599 0.60213 0.0
O687 O 0.50031 0.57383 0.624 0.0
O688 O 0.49698 0.57818 0.5457 0.0
C689 C 0.5054 0.57512 0.57781 0.0
C690 C 0.45119 0.54957 0.60146 0.0
C691 C 0.51072 0.56377 0.56197 0.0
C692 C 0.51044 0.54408 0.50374 0.0
C693 C 0.50392 0.55337 0.52078 0.0
C694 C 0.53035 0.55505 0.56945 0.0
C695 C 0.52384 0.54501 0.52759 0.0
C696 C 0.52387 0.56433 0.58639 0.0
C697 C 0.49372 0.62083 0.6339 0.0
C698 C 0.51242 0.6472 0.59925 0.0
C699 C 0.50492 0.64484 0.68635 0.0
C700 C 0.49514 0.62818 0.68052 0.0
C701 C 0.51343 0.65451 0.6456 0.0
C702 C 0.50265 0.63051 0.5934 0.0
C703 C 0.48169 0.60349 0.62759 0.0
O704 O 0.45761 0.55853 0.56168 0.0
O705 O 0.46101 0.5542 0.63989 0.0
O706 O 0.4821 0.59349 0.66014 0.0
O707 O 0.47862 0.5977 0.58186 0.0
H708 H 0.43789 0.55455 0.68634 0.0
H709 H 0.40935 0.54422 0.70286 0.0
H710 H 0.39749 0.52262 0.55654 0.0
H711 H 0.42598 0.53275 0.53989 0.0
H712 H 0.50528 0.53644 0.47129 0.0
H713 H 0.49381 0.55268 0.50107 0.0
H714 H 0.5407 0.55598 0.58828 0.0
H715 H 0.52941 0.57232 0.61794 0.0
H716 H 0.51887 0.65447 0.56733 0.0
H717 H 0.5055 0.65025 0.72235 0.0
H718 H 0.48829 0.62107 0.71221 0.0
H719 H 0.50179 0.62528 0.55689 0.0
C720 C 0.19173 0.0316 0.97144 0.0
C721 C 0.20652 0.03926 -0.00235 0.0
C722 C 0.20552 1.01329 0.00505 0.0
C723 C 0.18997 1.00545 0.98351 0.0
N724 N 0.16724 1.00675 0.95235 0.0
N725 N 0.2268 0.03736 0.04445 0.0
C726 C 0.18281 1.01451 0.96824 0.0
C727 C 0.21327 0.0301 0.01568 0.0
N728 N 0.18641 0.0407 0.9484 0.0
N729 N 0.21299 1.00471 0.01433 0.0
H730 H 0.23288 0.04964 0.05245 0.0
H731 H 0.23135 0.0311 0.06339 0.0
H732 H 0.20759 0.99239 0.00745 0.0
H733 H 0.22494 1.00995 0.02503 0.0
H734 H 0.17665 0.03597 0.9242 0.0
H735 H 0.19259 0.05324 0.94989 0.0
H736 H 0.16074 1.01254 0.94635 0.0
H737 H 0.16033 0.99428 0.94895 0.0
C738 C 1.02266 0.19592 0.96479 0.0
C739 C 1.01685 0.18197 -0.0051 0.0
C740 C 0.04452 0.18876 0.01289 0.0
C741 C 0.05026 0.20188 0.9792 0.0
N742 N 0.04475 0.21653 0.91694 0.0
N743 N 1.02197 0.16369 0.04192 0.0
C744 C 0.03931 0.20509 0.95349 0.0
C745 C 1.02771 0.178 0.01745 0.0
N746 N 1.0123 0.20064 0.94802 0.0
N747 N 0.05513 0.18687 0.04173 0.0
H748 H 1.00977 0.1556 0.04657 0.0
H749 H 1.02921 0.15924 0.05422 0.0
H750 H 0.0675 0.19445 0.03929 0.0
H751 H 0.05168 0.17865 0.07086 0.0
H752 H 1.016 0.21162 0.93062 0.0
H753 H 1.00004 0.19417 0.95525 0.0
H754 H 0.03724 0.21824 0.89309 0.0
H755 H 0.05682 0.22345 0.90745 0.0
C756 C 0.85596 0.83728 0.02319 0.0
C757 C 0.87131 0.84189 0.00338 0.0
C758 C 0.87352 0.86688 0.97148 0.0
C759 C 0.85767 0.86165 0.98783 0.0
N760 N 0.83277 0.84075 0.02183 0.0
N761 N 0.89365 0.85972 0.95164 0.0
C762 C 0.84859 0.84651 0.01155 0.0
C763 C 0.87981 0.85633 0.97553 0.0
N764 N 0.84866 0.82442 0.05472 0.0
N765 N 0.88277 0.88214 0.95356 0.0
H766 H 0.89862 0.85232 0.95382 0.0
H767 H 0.89949 0.86911 0.92635 0.0
H768 H 0.87857 0.89015 0.94952 0.0
H769 H 0.89497 0.88733 0.9464 0.0
H770 H 0.83832 0.8215 0.07472 0.0
H771 H 0.85368 0.8174 0.06433 0.0
H772 H 0.82503 0.82908 0.034 0.0
H773 H 0.827 0.84721 0.01414 0.0
C774 C 0.87432 0.02891 0.01954 0.0
C775 C 0.86817 0.03862 0.00168 0.0
C776 C 0.8463 1.01512 0.95939 0.0
C777 C 0.85144 1.0051 0.98169 0.0
N778 N 0.86928 1.00202 0.03741 0.0
N779 N 0.8472 0.04075 0.96003 0.0
C780 C 0.86523 1.01189 0.01282 0.0
C781 C 0.85388 0.03167 0.9729 0.0
N782 N 0.88901 0.03601 0.04204 0.0
N783 N 0.83442 1.00887 0.92422 0.0
H784 H 0.85245 0.05295 0.96863 0.0
H785 H 0.83585 0.03597 0.94428 0.0
H786 H 0.82859 0.99682 0.91334 0.0
H787 H 0.83129 1.01586 0.90265 0.0
H788 H 0.89497 0.02988 0.0512 0.0
H789 H 0.89589 0.04839 0.04791 0.0
H790 H 0.87808 1.00601 0.06492 0.0
H791 H 0.86303 0.98956 0.03297 0.0
C792 C 0.04325 0.86689 0.95723 0.0
C793 C 0.05119 0.85906 0.97669 0.0
C794 C 1.02622 0.83903 0.01741 0.0
C795 C 1.01798 0.84606 -0.00561 0.0
N796 N 1.01801 0.86512 0.93604 0.0
N797 N 0.04992 0.83642 0.01934 0.0
C798 C 1.02633 0.85959 0.96258 0.0
C799 C 0.04258 0.84477 0.00518 0.0
N800 N 0.05196 0.88154 0.93468 0.0
N801 N 1.01855 0.82721 0.05221 0.0
H802 H 0.06192 0.84036 0.01178 0.0
H803 H 0.04386 0.825 0.03514 0.0
H804 H 1.00659 0.82267 0.06195 0.0
H805 H 1.02433 0.8228 0.07435 0.0
H806 H 0.0472 0.88873 0.92471 0.0
H807 H 0.06431 0.88715 0.92959 0.0
H808 H 1.0231 0.87378 0.90817 0.0
H809 H 1.00563 0.8601 0.93881 0.0
C810 C 0.21892 0.1998 0.97737 0.0
C811 C 0.21309 0.18534 0.00506 0.0
C812 C 0.18758 0.18462 0.01829 0.0
C813 C 0.19292 0.19834 0.98726 0.0
N814 N 0.21267 0.21758 0.93088 0.0
N815 N 0.19113 0.16255 0.04529 0.0
C816 C 0.20834 0.20555 0.96503 0.0
C817 C 0.19719 0.17734 0.02363 0.0
N818 N 0.23471 0.20828 0.96414 0.0
N819 N 0.17356 0.17889 0.04415 0.0
H820 H 0.19785 0.15693 0.0503 0.0
H821 H 0.17911 0.15527 0.05454 0.0
H822 H 0.16621 0.18389 0.04139 0.0
H823 H 0.16986 0.17006 0.07152 0.0
H824 H 0.24014 0.2198 0.94901 0.0
H825 H 0.24275 0.20435 0.97183 0.0
H826 H 0.22299 0.22215 0.90926 0.0
H827 H 0.20528 0.22214 0.92108 0.0
C828 C 0.8715 0.34899 0.29506 0.0
C829 C 0.85576 0.33958 0.31441 0.0
C830 C 0.85662 0.36409 0.34507 0.0
C831 C 0.87272 0.3734 0.32857 0.0
N832 N 0.89641 0.37464 0.29501 0.0
N833 N 0.83445 0.33771 0.36596 0.0
C834 C 0.88044 0.36581 0.30564 0.0
C835 C 0.84865 0.34702 0.34181 0.0
N836 N 0.87769 0.34194 0.26512 0.0
N837 N 0.84874 0.37161 0.36229 0.0
H838 H 0.82825 0.32517 0.36451 0.0
H839 H 0.82951 0.34229 0.39097 0.0
H840 H 0.85417 0.38406 0.36581 0.0
H841 H 0.83649 0.36563 0.36932 0.0
H842 H 0.88833 0.34837 0.24531 0.0
H843 H 0.87157 0.32966 0.25704 0.0
H844 H 0.90318 0.36959 0.28325 0.0
H845 H 0.90324 0.38697 0.30177 0.0
C846 C 0.69253 0.52977 0.34785 0.0
C847 C 0.68379 0.51446 0.3246 0.0
C848 C 0.70855 0.51842 0.28555 0.0
C849 C 0.71701 0.53424 0.30547 0.0
N850 N 0.71677 0.55595 0.34963 0.0
N851 N 0.68282 0.49516 0.26509 0.0
C852 C 0.70891 0.54019 0.33501 0.0
C853 C 0.69163 0.50903 0.29174 0.0
N854 N 0.68531 0.53415 0.38347 0.0
N855 N 0.71677 0.51222 0.26177 0.0
H856 H 0.67043 0.48797 0.26851 0.0
H857 H 0.68754 0.49144 0.23656 0.0
H858 H 0.72911 0.5188 0.25598 0.0
H859 H 0.71162 0.5002 0.25134 0.0
H860 H 0.69146 0.54434 0.40579 0.0
H861 H 0.67334 0.52689 0.39361 0.0
H862 H 0.7111 0.56153 0.36627 0.0
H863 H 0.72881 0.56386 0.34167 0.0
C864 C 0.52417 0.17298 0.36275 0.0
C865 C 0.53819 0.17607 0.33636 0.0
C866 C 0.53946 0.19987 0.29793 0.0
C867 C 0.52475 0.19601 0.32119 0.0
N868 N 0.50174 0.17756 0.36936 0.0
N869 N 0.55781 0.19087 0.27291 0.0
C870 C 0.51671 0.18217 0.35179 0.0
C871 C 0.54547 0.18909 0.30229 0.0
N872 N 0.51831 0.16164 0.39962 0.0
N873 N 0.54795 0.21409 0.27292 0.0
H874 H 0.56257 0.18327 0.2752 0.0
H875 H 0.56249 0.19901 0.24353 0.0
H876 H 0.54386 0.22218 0.26836 0.0
H877 H 0.55958 0.21848 0.26004 0.0
H878 H 0.50922 0.16003 0.42391 0.0
H879 H 0.52345 0.1547 0.40886 0.0
H880 H 0.49449 0.16664 0.38718 0.0
H881 H 0.49596 0.18405 0.36245 0.0
C882 C 0.51734 0.36393 0.32507 0.0
C883 C 0.53406 0.37207 0.33472 0.0
C884 C 0.53437 0.3471 0.31764 0.0
C885 C 0.51744 0.33868 0.31259 0.0
N886 N 0.49247 0.33845 0.32042 0.0
N887 N 0.55821 0.37104 0.34743 0.0
C888 C 0.50883 0.34693 0.31879 0.0
C889 C 0.54252 0.36355 0.33295 0.0
N890 N 0.50966 0.37252 0.32026 0.0
N891 N 0.54271 0.33952 0.3063 0.0
H892 H 0.56456 0.38306 0.35855 0.0
H893 H 0.56456 0.36504 0.35226 0.0
H894 H 0.53716 0.3275 0.29523 0.0
H895 H 0.55515 0.34543 0.30395 0.0
H896 H 0.4979 0.3675 0.30781 0.0
H897 H 0.51547 0.38498 0.32431 0.0
H898 H 0.48558 0.34355 0.33035 0.0
H899 H 0.48577 0.32599 0.3163 0.0
C900 C 0.69506 0.19446 0.34227 0.0
C901 C 0.68413 0.17865 0.32519 0.0
C902 C 0.70645 0.17663 0.28936 0.0
C903 C 0.71749 0.19189 0.30995 0.0
N904 N 0.72255 0.21424 0.36294 0.0
N905 N 0.67946 0.15364 0.28969 0.0
C906 C 0.71185 0.20051 0.33835 0.0
C907 C 0.68985 0.16943 0.3008 0.0
N908 N 0.68939 0.20388 0.36082 0.0
N909 N 0.71177 0.16925 0.25732 0.0
H910 H 0.66722 0.148 0.29718 0.0
H911 H 0.68311 0.14576 0.27699 0.0
H912 H 0.7238 0.17415 0.24782 0.0
H913 H 0.70417 0.159 0.23682 0.0
H914 H 0.69667 0.21608 0.36856 0.0
H915 H 0.67721 0.19983 0.36481 0.0
H916 H 0.71919 0.22013 0.38861 0.0
H917 H 0.73491 0.21905 0.36092 0.0
C918 C 0.86417 0.51185 0.37468 0.0
C919 C 0.88053 0.52112 0.36094 0.0
C920 C 0.87751 0.54489 0.35503 0.0
C921 C 0.86058 0.53492 0.35654 0.0
N922 N 0.84144 0.51294 0.40702 0.0
N923 N 0.90289 0.5468 0.33678 0.0
C924 C 0.85472 0.51936 0.37744 0.0
C925 C 0.88722 0.53774 0.35061 0.0
N926 N 0.85759 0.49587 0.38499 0.0
N927 N 0.88442 0.56066 0.36846 0.0
H928 H 0.91048 0.54208 0.3336 0.0
H929 H 0.90783 0.55865 0.32464 0.0
H930 H 0.87772 0.5652 0.38492 0.0
H931 H 0.89677 0.56821 0.37187 0.0
H932 H 0.84532 0.48824 0.38996 0.0
H933 H 0.8642 0.49002 0.38486 0.0
H934 H 0.8374 0.50235 0.42722 0.0
H935 H 0.8359 0.51948 0.4168 0.0
C936 C 0.54553 0.69693 0.68512 0.0
C937 C 0.53914 0.70619 0.6652 0.0
C938 C 0.51574 0.68155 0.63373 0.0
C939 C 0.52258 0.67239 0.65095 0.0
N940 N 0.54507 0.67145 0.68569 0.0
N941 N 0.51982 0.70783 0.61233 0.0
C942 C 0.53782 0.68013 0.67449 0.0
C943 C 0.52472 0.69863 0.63706 0.0
N944 N 0.55864 0.70409 0.71567 0.0
N945 N 0.50039 0.67389 0.61584 0.0
H946 H 0.52608 0.72036 0.61381 0.0
H947 H 0.5104 0.70316 0.58686 0.0
H948 H 0.49345 0.66143 0.61229 0.0
H949 H 0.49406 0.67976 0.60826 0.0
H950 H 0.56285 0.69775 0.73588 0.0
H951 H 0.56468 0.71636 0.72382 0.0
H952 H 0.55686 0.67662 0.69798 0.0
H953 H 0.5397 0.65913 0.67884 0.0
C954 C 0.37873 0.8606 0.69108 0.0
C955 C 0.38441 0.86938 0.64591 0.0
C956 C 0.35666 0.85889 0.61784 0.0
C957 C 0.35103 0.849 0.66088 0.0
N958 N 0.35664 0.83865 0.73529 0.0
N959 N 0.37901 0.87506 0.56284 0.0
C960 C 0.36205 0.84938 0.69672 0.0
C961 C 0.37343 0.86804 0.60834 0.0
N962 N 0.38921 0.86334 0.72922 0.0
N963 N 0.34598 0.85987 0.58669 0.0
H964 H 0.39118 0.88183 0.55441 0.0
H965 H 0.37165 0.87307 0.53209 0.0
H966 H 0.33363 0.85332 0.59235 0.0
H967 H 0.34936 0.86816 0.55777 0.0
H968 H 0.38564 0.8587 0.76499 0.0
H969 H 0.40149 0.87135 0.72632 0.0
H970 H 0.36417 0.83704 0.75939 0.0
H971 H 0.34453 0.83041 0.74103 0.0
C972 C 0.18168 0.51257 0.6543 0.0
C973 C 0.1917 0.52955 0.65356 0.0
C974 C 0.21497 0.5267 0.67383 0.0
C975 C 0.20516 0.50971 0.67097 0.0
N976 N 0.17983 0.48652 0.64907 0.0
N977 N 0.21831 0.55272 0.65294 0.0
C978 C 0.18869 0.50266 0.65844 0.0
C979 C 0.20849 0.5366 0.66051 0.0
N980 N 0.16542 0.5059 0.65292 0.0
N981 N 0.23033 0.53338 0.69112 0.0
H982 H 0.21403 0.56034 0.64292 0.0
H983 H 0.23074 0.55829 0.65216 0.0
H984 H 0.23552 0.52656 0.70123 0.0
H985 H 0.23748 0.54556 0.69941 0.0
H986 H 0.15744 0.49374 0.65898 0.0
H987 H 0.15984 0.51273 0.64984 0.0
H988 H 0.16825 0.48092 0.63463 0.0
H989 H 0.18455 0.47889 0.65144 0.0
C990 C 0.20082 0.682 0.62738 0.0
C991 C 0.18512 0.67206 0.64635 0.0
C992 C 0.18675 0.69532 0.69004 0.0
C993 C 0.20169 0.70555 0.66672 0.0
N994 N 0.22227 0.70906 0.6088 0.0
N995 N 0.16219 0.66946 0.69041 0.0
C996 C 0.20859 0.699 0.63434 0.0
C997 C 0.17784 0.67877 0.6764 0.0
N998 N 0.20841 0.67514 0.60359 0.0
N999 N 0.18126 0.70136 0.72628 0.0
H1000 H 0.1553 0.65726 0.68175 0.0
H1001 H 0.15562 0.67406 0.7072 0.0
H1002 H 0.18745 0.71339 0.73732 0.0
H1003 H 0.17135 0.69422 0.74849 0.0
H1004 H 0.22043 0.68146 0.59351 0.0
H1005 H 0.20301 0.66278 0.5975 0.0
H1006 H 0.22695 0.70523 0.58048 0.0
H1007 H 0.22837 0.72152 0.61331 0.0
C1008 C 0.3753 0.51171 0.66965 0.0
C1009 C 0.38394 0.52602 0.64131 0.0
C1010 C 0.35913 0.52664 0.62729 0.0
C1011 C 0.35075 0.5131 0.65903 0.0
N1012 N 0.35126 0.49414 0.71658 0.0
N1013 N 0.38477 0.54855 0.59939 0.0
C1014 C 0.35895 0.506 0.68189 0.0
C1015 C 0.37603 0.5339 0.6219 0.0
N1016 N 0.38261 0.50332 0.68368 0.0
N1017 N 0.35082 0.53222 0.60088 0.0
H1018 H 0.39712 0.55413 0.59424 0.0
H1019 H 0.38004 0.55577 0.58947 0.0
H1020 H 0.33845 0.52722 0.60368 0.0
H1021 H 0.35593 0.5409 0.57306 0.0
H1022 H 0.37653 0.49189 0.69937 0.0
H1023 H 0.39461 0.50724 0.67613 0.0
H1024 H 0.35701 0.48969 0.73864 0.0
H1025 H 0.3393 0.48961 0.72632 0.0
C1026 C 0.54128 0.87494 0.68449 0.0
C1027 C 0.52665 0.86589 0.65815 0.0
C1028 C 0.53308 0.84456 0.64299 0.0
C1029 C 0.547 0.85295 0.67316 0.0
N1030 N 0.56309 0.8749 0.72923 0.0
N1031 N 0.50736 0.84111 0.61837 0.0
C1032 C 0.55077 0.86784 0.69567 0.0
C1033 C 0.5222 0.85042 0.63902 0.0
N1034 N 0.54631 0.8905 0.69774 0.0
N1035 N 0.53053 0.83127 0.61681 0.0
H1036 H 0.49916 0.84506 0.61419 0.0
H1037 H 0.50268 0.82906 0.60896 0.0
H1038 H 0.53819 0.82661 0.61883 0.0
H1039 H 0.52159 0.82563 0.58997 0.0
H1040 H 0.55766 0.89832 0.71201 0.0
H1041 H 0.53962 0.89604 0.69059 0.0
H1042 H 0.56536 0.8848 0.75101 0.0
H1043 H 0.57027 0.87006 0.73858 0.0
C1044 C 0.3612 0.16822 0.13165 0.0
C1045 C 0.35199 0.17585 0.13788 0.0
C1046 C 0.37471 0.19848 0.18073 0.0
C1047 C 0.38422 0.19133 0.17146 0.0
N1048 N 0.38756 0.171 0.1297 0.0
N1049 N 0.35062 0.19934 0.16082 0.0
C1050 C 0.37775 0.17666 0.14441 0.0
C1051 C 0.35895 0.19132 0.16025 0.0
N1052 N 0.35397 0.15264 0.11532 0.0
N1053 N 0.38053 0.2118 0.21058 0.0
H1054 H 0.33905 0.19441 0.14649 0.0
H1055 H 0.3556 0.2113 0.17168 0.0
H1056 H 0.39204 0.21744 0.22576 0.0
H1057 H 0.37361 0.21655 0.2234 0.0
H1058 H 0.35957 0.14581 0.11551 0.0
H1059 H 0.3419 0.14603 0.10546 0.0
H1060 H 0.38398 0.16135 0.10531 0.0
H1061 H 0.39974 0.17685 0.13822 0.0
C1062 C 0.85972 0.18686 0.1939 0.0
C1063 C 0.86478 0.20265 0.17662 0.0
C1064 C 0.88637 0.20252 0.12852 0.0
C1065 C 0.88074 0.18638 0.14337 0.0
N1066 N 0.86062 0.16223 0.18345 0.0
N1067 N 0.88088 0.22438 0.12032 0.0
C1068 C 0.86697 0.17827 0.17411 0.0
C1069 C 0.87751 0.21014 0.14177 0.0
N1070 N 0.84838 0.1803 0.23052 0.0
N1071 N 0.90053 0.21078 0.10327 0.0
H1072 H 0.87468 0.23033 0.1291 0.0
H1073 H 0.88882 0.2296 0.09071 0.0
H1074 H 0.90731 0.20562 0.09242 0.0
H1075 H 0.90624 0.22309 0.09652 0.0
H1076 H 0.84543 0.16963 0.24879 0.0
H1077 H 0.84267 0.18613 0.24532 0.0
H1078 H 0.84966 0.15517 0.20106 0.0
H1079 H 0.86571 0.15565 0.16998 0.0
C1080 C 0.87925 0.67819 0.14322 0.0
C1081 C 0.86482 0.67218 0.17087 0.0
C1082 C 0.86733 0.69891 0.16851 0.0
C1083 C 0.88124 0.70464 0.13843 0.0
N1084 N 0.89873 0.69905 0.0891 0.0
N1085 N 0.84363 0.67588 0.20293 0.0
C1086 C 0.88668 0.69405 0.12339 0.0
C1087 C 0.85841 0.68229 0.18146 0.0
N1088 N 0.8862 0.66893 0.1375 0.0
N1089 N 0.86296 0.70948 0.18616 0.0
H1090 H 0.83688 0.66382 0.21325 0.0
H1091 H 0.83749 0.68213 0.20689 0.0
H1092 H 0.86904 0.72166 0.17687 0.0
H1093 H 0.85405 0.70649 0.21275 0.0
H1094 H 0.89762 0.67326 0.12292 0.0
H1095 H 0.8811 0.65722 0.15101 0.0
H1096 H 0.90209 0.69141 0.07248 0.0
H1097 H 0.90448 0.71058 0.07381 0.0
C1098 C 0.21366 0.34618 0.81795 0.0
C1099 C 0.19813 0.33953 0.8391 0.0
C1100 C 0.19962 0.36572 0.83129 0.0
C1101 C 0.21465 0.37202 0.80697 0.0
N1102 N 0.23459 0.36748 0.76859 0.0
N1103 N 0.17519 0.34204 0.85889 0.0
C1104 C 0.22126 0.362 0.79781 0.0
C1105 C 0.19078 0.34905 0.84374 0.0
N1106 N 0.22141 0.33759 0.81876 0.0
N1107 N 0.19406 0.37579 0.84401 0.0
H1108 H 0.16843 0.32994 0.86865 0.0
H1109 H 0.16856 0.34784 0.85799 0.0
H1110 H 0.20011 0.38798 0.83503 0.0
H1111 H 0.18411 0.37237 0.86661 0.0
H1112 H 0.23341 0.34245 0.80924 0.0
H1113 H 0.21627 0.32596 0.83301 0.0
H1114 H 0.23898 0.36019 0.75598 0.0
H1115 H 0.24049 0.37897 0.7531 0.0
C1116 C 0.70716 0.84057 0.84288 0.0
C1117 C 0.71675 0.85758 0.84022 0.0
C1118 C 0.69449 0.85879 0.79995 0.0
C1119 C 0.68456 0.84191 0.80609 0.0
N1120 N 0.68049 0.81714 0.84167 0.0
N1121 N 0.71896 0.88319 0.82337 0.0
C1122 C 0.69064 0.83292 0.82996 0.0
C1123 C 0.71023 0.86679 0.82075 0.0
N1124 N 0.71398 0.83165 0.8561 0.0
N1125 N 0.68904 0.86708 0.77282 0.0
H1126 H 0.73055 0.88942 0.83793 0.0
H1127 H 0.71432 0.89059 0.81486 0.0
H1128 H 0.67756 0.86166 0.75752 0.0
H1129 H 0.69625 0.87903 0.76223 0.0
H1130 H 0.7081 0.81917 0.85321 0.0
H1131 H 0.72602 0.83676 0.86596 0.0
H1132 H 0.68378 0.81042 0.86391 0.0
H1133 H 0.66831 0.8111 0.83293 0.0
C1134 C 0.19982 0.84451 0.8246 0.0
C1135 C 0.21575 0.8537 0.80654 0.0
C1136 C 0.21471 0.87849 0.8183 0.0
C1137 C 0.1994 0.86947 0.84086 0.0
N1138 N 0.17813 0.84414 0.87144 0.0
N1139 N 0.23935 0.87959 0.79348 0.0
C1140 C 0.19213 0.85252 0.84554 0.0
C1141 C 0.22346 0.87075 0.80532 0.0
N1142 N 0.19191 0.82813 0.82051 0.0
N1143 N 0.2207 0.89441 0.80793 0.0
H1144 H 0.2462 0.87441 0.78368 0.0
H1145 H 0.24611 0.89203 0.79747 0.0
H1146 H 0.21466 0.90052 0.81678 0.0
H1147 H 0.23094 0.90122 0.78662 0.0
H1148 H 0.17976 0.8208 0.82793 0.0
H1149 H 0.19721 0.82189 0.80578 0.0
H1150 H 0.1731 0.83208 0.88103 0.0
H1151 H 0.17209 0.84957 0.88677 0.0
C1152 C 0.04386 0.50908 0.4797 0.0
C1153 C 0.051 0.52483 0.50007 0.0
C1154 C 1.0265 0.52564 0.48121 0.0
C1155 C 1.01886 0.50931 0.46559 0.0
N1156 N 1.01939 0.48462 0.45766 0.0
N1157 N 0.04856 0.54745 0.5264 0.0
C1158 C 1.02732 0.5008 0.46687 0.0
C1159 C 0.04217 0.53296 0.50241 0.0
N1160 N 0.05303 0.50218 0.47123 0.0
N1161 N 1.01894 0.53426 0.47451 0.0
H1162 H 0.06001 0.55322 0.54196 0.0
H1163 H 0.0421 0.55317 0.53429 0.0
H1164 H 1.00746 0.52927 0.45936 0.0
H1165 H 1.02448 0.54663 0.48009 0.0
H1166 H 0.04897 0.49149 0.45147 0.0
H1167 H 0.0652 0.50786 0.47993 0.0
H1168 H 1.02443 0.47741 0.46356 0.0
H1169 H 1.00727 0.47807 0.44829 0.0
C1170 C 0.5552 0.53719 0.4683 0.0
C1171 C 0.54789 0.52024 0.4734 0.0
C1172 C 0.5249 0.51948 0.51557 0.0
C1173 C 0.53173 0.53625 0.50732 0.0
N1174 N 0.55186 0.56052 0.46757 0.0
N1175 N 0.52475 0.49484 0.49454 0.0
C1176 C 0.54645 0.54494 0.48123 0.0
C1177 C 0.53242 0.51126 0.49494 0.0
N1178 N 0.57076 0.54597 0.45283 0.0
N1179 N 0.51152 0.51152 0.54456 0.0
H1180 H 0.52995 0.48846 0.48012 0.0
H1181 H 0.51282 0.48752 0.50472 0.0
H1182 H 0.50561 0.5171 0.55975 0.0
H1183 H 0.50695 0.49974 0.55668 0.0
H1184 H 0.57735 0.55848 0.45385 0.0
H1185 H 0.57758 0.54079 0.44285 0.0
H1186 H 0.56156 0.56696 0.44383 0.0
H1187 H 0.5458 0.56662 0.47631 0.0
C1188 C 0.53112 0.02797 0.463 0.0
C1189 C 0.54741 0.03841 0.476 0.0
C1190 C 0.54711 1.01696 0.52651 0.0
C1191 C 0.5314 1.00604 0.50919 0.0
N1192 N 0.50893 1.00051 0.45674 0.0
N1193 N 0.57169 0.04236 0.51457 0.0
C1194 C 0.52349 1.01139 0.47643 0.0
C1195 C 0.55561 0.03278 0.50642 0.0
N1196 N 0.52285 0.034 0.43874 0.0
N1197 N 0.55376 1.01231 0.56317 0.0
H1198 H 0.57834 0.05405 0.50092 0.0
H1199 H 0.57871 0.0383 0.5314 0.0
H1200 H 0.54792 1.00083 0.57876 0.0
H1201 H 0.56442 1.02019 0.58126 0.0
H1202 H 0.51053 0.02749 0.43277 0.0
H1203 H 0.5281 0.04602 0.42803 0.0
H1204 H 0.50333 1.00325 0.42838 0.0
H1205 H 0.50291 0.98836 0.46622 0.0
loop_
_geom_bond_atom_site_label_1
_geom_bond_atom_site_label_2
_geom_bond_distance
_geom_bond_site_symmetry_2
_ccdc_geom_bond_type
C0 C1 1.264 . S
C0 C5 1.479 1_556 S
C0 C10 1.465 . S
C1 C0 1.264 . S
C1 C3 1.339 . S
C1 H28 0.931 . S
C2 C3 1.395 . S
C2 C4 1.320 1_556 S
C3 C1 1.339 . S
C3 C2 1.395 . S
C3 H29 0.929 . S
C4 C2 1.320 1_554 S
C4 C5 1.405 . S
C4 H30 0.930 . S
C5 C0 1.479 1_554 S
C5 C4 1.405 . S
C5 H31 0.931 . S
U6 O7 2.454 . S
U6 O8 2.458 . S
U6 C9 2.984 . S
U6 C10 2.847 1_554 S
U6 C23 2.882 1_554 S
U6 O24 2.441 . S
U6 O25 2.420 1_554 S
U6 O26 2.455 . S
U6 O27 2.449 1_554 S
O7 U6 2.454 . S
O7 C9 1.353 . S
O8 U6 2.458 . S
O8 C9 1.286 . S
C9 U6 2.984 . S
C9 O7 1.353 . S
C9 O8 1.286 . S
C9 C11 1.363 . S
C10 C0 1.465 . S
C10 U6 2.847 1_556 S
C10 O24 1.249 1_556 S
C10 O25 1.202 . S
C11 C9 1.363 . S
C11 C13 1.408 . S
C11 C16 1.342 . S
C12 C13 1.310 . S
C12 C15 1.461 . S
C12 H32 0.932 . S
C13 C11 1.408 . S
C13 C12 1.310 . S
C13 H33 0.930 . S
C14 C15 1.474 . S
C14 C16 1.285 . S
C14 H34 0.929 . S
C15 C12 1.461 . S
C15 C14 1.474 . S
C16 C11 1.342 . S
C16 C14 1.285 . S
C16 H35 0.930 . S
C17 C20 1.424 . S
C17 C22 1.245 1_556 S
C17 C23 1.428 . S
C18 C21 1.260 . S
C18 C22 1.477 1_556 S
C18 H36 0.932 . S
C19 C20 1.384 . S
C19 C21 1.479 . S
C19 H37 0.929 . S
C20 C17 1.424 . S
C20 C19 1.384 . S
C20 H38 0.928 . S
C21 C18 1.260 . S
C21 C19 1.479 . S
C22 C17 1.245 1_554 S
C22 C18 1.477 1_554 S
C22 H39 0.931 . S
C23 U6 2.882 1_556 S
C23 C17 1.428 . S
C23 O26 1.301 1_556 S
C23 O27 1.282 . S
O24 U6 2.441 . S
O24 C10 1.249 1_554 S
O25 U6 2.420 1_556 S
O25 C10 1.202 . S
O26 U6 2.455 . S
O26 C23 1.301 1_554 S
O27 U6 2.449 1_556 S
O27 C23 1.282 . S
H28 C1 0.931 . S
H29 C3 0.929 . S
H30 C4 0.930 . S
H31 C5 0.931 . S
H32 C12 0.932 . S
H33 C13 0.930 . S
H34 C14 0.929 . S
H35 C16 0.930 . S
H36 C18 0.932 . S
H37 C19 0.929 . S
H38 C20 0.928 . S
H39 C22 0.931 . S
C40 C41 1.264 . S
C40 C45 1.479 . S
C40 C50 1.465 . S
C41 C40 1.264 . S
C41 C43 1.339 . S
C41 H68 0.931 . S
C42 C43 1.395 . S
C42 C44 1.320 . S
C43 C41 1.339 . S
C43 C42 1.395 . S
C43 H69 0.929 1_554 S
C44 C42 1.320 . S
C44 C45 1.405 . S
C44 H70 0.930 . S
C45 C40 1.479 . S
C45 C44 1.405 . S
C45 H71 0.931 . S
U46 O47 2.454 . S
U46 O48 2.458 . S
U46 C49 2.984 . S
U46 C50 2.847 . S
U46 C63 2.882 . S
U46 O64 2.441 . S
U46 O65 2.420 . S
U46 O66 2.455 . S
U46 O67 2.449 . S
O47 U46 2.454 . S
O47 C49 1.353 . S
O48 U46 2.458 . S
O48 C49 1.286 . S
C49 U46 2.984 . S
C49 O47 1.353 . S
C49 O48 1.286 . S
C49 C51 1.363 . S
C50 C40 1.465 . S
C50 U46 2.847 . S
C50 O64 1.249 . S
C50 O65 1.202 . S
C51 C49 1.363 . S
C51 C53 1.408 . S
C51 C56 1.342 . S
C52 C53 1.310 . S
C52 C55 1.461 . S
C52 H72 0.932 . S
C53 C51 1.408 . S
C53 C52 1.310 . S
C53 H73 0.930 . S
C54 C55 1.474 . S
C54 C56 1.285 . S
C54 H74 0.929 . S
C55 C52 1.461 . S
C55 C54 1.474 . S
C56 C51 1.342 . S
C56 C54 1.285 . S
C56 H75 0.930 . S
C57 C60 1.424 . S
C57 C62 1.245 . S
C57 C63 1.428 . S
C58 C61 1.260 . S
C58 C62 1.477 . S
C58 H76 0.932 . S
C59 C60 1.384 . S
C59 C61 1.479 . S
C59 H77 0.929 . S
C60 C57 1.424 . S
C60 C59 1.384 . S
C60 H78 0.928 . S
C61 C58 1.260 . S
C61 C59 1.479 . S
C62 C57 1.245 . S
C62 C58 1.477 . S
C62 H79 0.932 . S
C63 U46 2.882 . S
C63 C57 1.428 . S
C63 O66 1.301 . S
C63 O67 1.282 . S
O64 U46 2.441 . S
O64 C50 1.249 . S
O65 U46 2.420 . S
O65 C50 1.202 . S
O66 U46 2.455 . S
O66 C63 1.301 . S
O67 U46 2.449 . S
O67 C63 1.282 . S
H68 C41 0.931 . S
H69 C43 0.929 1_556 S
H70 C44 0.930 . S
H71 C45 0.931 . S
H72 C52 0.932 . S
H73 C53 0.930 . S
H74 C54 0.929 . S
H75 C56 0.930 . S
H76 C58 0.932 . S
H77 C59 0.929 . S
H78 C60 0.928 . S
H79 C62 0.932 . S
C80 C81 1.264 . S
C80 C85 1.479 . S
C80 C90 1.465 . S
C81 C80 1.264 . S
C81 C83 1.339 1_554 S
C81 H108 0.931 . S
C82 C83 1.395 . S
C82 C84 1.325 . S
C83 C81 1.339 1_556 S
C83 C82 1.395 . S
C83 H109 0.929 . S
C84 C82 1.325 . S
C84 C85 1.399 1_556 S
C84 H110 0.931 . S
C85 C80 1.479 . S
C85 C84 1.399 1_554 S
C85 H111 0.931 . S
U86 O87 2.454 . S
U86 O88 2.458 . S
U86 C89 2.984 . S
U86 C90 2.847 . S
U86 C103 2.882 . S
U86 O104 2.441 . S
U86 O105 2.420 . S
U86 O106 2.455 . S
U86 O107 2.449 . S
O87 U86 2.454 . S
O87 C89 1.353 . S
O88 U86 2.458 . S
O88 C89 1.286 . S
C89 U86 2.984 . S
C89 O87 1.353 . S
C89 O88 1.286 . S
C89 C91 1.363 . S
C90 C80 1.465 . S
C90 U86 2.847 . S
C90 O104 1.249 . S
C90 O105 1.202 . S
C91 C89 1.363 . S
C91 C93 1.408 . S
C91 C96 1.342 . S
C92 C93 1.310 . S
C92 C95 1.461 . S
C92 H112 0.932 . S
C93 C91 1.408 . S
C93 C92 1.310 . S
C93 H113 0.930 . S
C94 C95 1.474 . S
C94 C96 1.285 . S
C94 H114 0.929 . S
C95 C92 1.461 . S
C95 C94 1.474 . S
C96 C91 1.342 . S
C96 C94 1.285 . S
C96 H115 0.930 . S
C97 C100 1.424 . S
C97 C102 1.245 . S
C97 C103 1.428 . S
C98 C101 1.260 1_554 S
C98 C102 1.477 . S
C98 H116 0.932 . S
C99 C100 1.384 1_556 S
C99 C101 1.479 . S
C99 H117 0.929 . S
C100 C97 1.424 . S
C100 C99 1.384 1_554 S
C100 H118 0.928 1_554 S
C101 C98 1.260 1_556 S
C101 C99 1.479 . S
C102 C97 1.245 . S
C102 C98 1.477 . S
C102 H119 0.932 . S
C103 U86 2.882 . S
C103 C97 1.428 . S
C103 O106 1.301 . S
C103 O107 1.282 . S
O104 U86 2.441 . S
O104 C90 1.249 . S
O105 U86 2.420 . S
O105 C90 1.202 . S
O106 U86 2.455 . S
O106 C103 1.301 . S
O107 U86 2.449 . S
O107 C103 1.282 . S
H108 C81 0.931 . S
H109 C83 0.929 . S
H110 C84 0.931 . S
H111 C85 0.931 . S
H112 C92 0.932 . S
H113 C93 0.930 . S
H114 C94 0.929 . S
H115 C96 0.930 . S
H116 C98 0.932 . S
H117 C99 0.929 . S
H118 C100 0.928 1_556 S
H119 C102 0.932 . S
C120 C121 1.264 . S
C120 C125 1.479 . S
C120 C130 1.465 . S
C121 C120 1.264 . S
C121 C123 1.339 1_556 S
C121 H148 0.931 . S
C122 C123 1.395 . S
C122 C124 1.320 1_554 S
C123 C121 1.339 1_554 S
C123 C122 1.395 . S
C123 H149 0.929 . S
C124 C122 1.320 1_556 S
C124 C125 1.405 . S
C124 H150 0.930 1_556 S
C125 C120 1.479 . S
C125 C124 1.405 . S
C125 H151 0.931 . S
U126 O127 2.454 . S
U126 O128 2.458 . S
U126 C129 2.984 . S
U126 C130 2.847 . S
U126 C143 2.882 . S
U126 O144 2.441 . S
U126 O145 2.420 . S
U126 O146 2.455 . S
U126 O147 2.449 . S
O127 U126 2.454 . S
O127 C129 1.353 . S
O128 U126 2.458 . S
O128 C129 1.286 . S
C129 U126 2.984 . S
C129 O127 1.353 . S
C129 O128 1.286 . S
C129 C131 1.363 . S
C130 C120 1.465 . S
C130 U126 2.847 . S
C130 O144 1.249 . S
C130 O145 1.202 . S
C131 C129 1.363 . S
C131 C133 1.408 . S
C131 C136 1.342 . S
C132 C133 1.310 . S
C132 C135 1.461 . S
C132 H152 0.932 . S
C133 C131 1.408 . S
C133 C132 1.310 . S
C133 H153 0.930 . S
C134 C135 1.474 . S
C134 C136 1.285 . S
C134 H154 0.929 . S
C135 C132 1.461 . S
C135 C134 1.474 . S
C136 C131 1.342 . S
C136 C134 1.285 . S
C136 H155 0.930 . S
C137 C140 1.424 . S
C137 C142 1.245 . S
C137 C143 1.428 . S
C138 C141 1.260 . S
C138 C142 1.477 . S
C138 H156 0.932 . S
C139 C140 1.384 . S
C139 C141 1.479 . S
C139 H157 0.929 1_556 S
C140 C137 1.424 . S
C140 C139 1.384 . S
C140 H158 0.928 . S
C141 C138 1.260 . S
C141 C139 1.479 . S
C142 C137 1.245 . S
C142 C138 1.477 . S
C142 H159 0.932 . S
C143 U126 2.882 . S
C143 C137 1.428 . S
C143 O146 1.301 . S
C143 O147 1.282 . S
O144 U126 2.441 . S
O144 C130 1.249 . S
O145 U126 2.420 . S
O145 C130 1.202 . S
O146 U126 2.455 . S
O146 C143 1.301 . S
O147 U126 2.449 . S
O147 C143 1.282 . S
H148 C121 0.931 . S
H149 C123 0.929 . S
H150 C124 0.930 1_554 S
H151 C125 0.931 . S
H152 C132 0.932 . S
H153 C133 0.930 . S
H154 C134 0.929 . S
H155 C136 0.930 . S
H156 C138 0.932 . S
H157 C139 0.929 1_554 S
H158 C140 0.928 . S
H159 C142 0.932 . S
C160 C161 1.264 . S
C160 C165 1.479 . S
C160 C170 1.465 . S
C161 C160 1.264 . S
C161 C163 1.339 . S
C161 H188 0.934 . S
C162 C163 1.395 . S
C162 C164 1.320 . S
C163 C161 1.339 . S
C163 C162 1.395 . S
C163 H189 0.929 1_556 S
C164 C162 1.320 . S
C164 C165 1.405 . S
C164 H190 0.930 . S
C165 C160 1.479 . S
C165 C164 1.405 . S
C165 H191 0.931 . S
U166 O167 2.454 . S
U166 O168 2.458 . S
U166 C169 2.984 . S
U166 C170 2.847 . S
U166 C183 2.882 . S
U166 O184 2.441 . S
U166 O185 2.420 . S
U166 O186 2.455 . S
U166 O187 2.449 . S
O167 U166 2.454 . S
O167 C169 1.353 . S
O168 U166 2.458 . S
O168 C169 1.286 . S
C169 U166 2.984 . S
C169 O167 1.353 . S
C169 O168 1.286 . S
C169 C171 1.363 . S
C170 C160 1.465 . S
C170 U166 2.847 . S
C170 O184 1.249 . S
C170 O185 1.202 . S
C171 C169 1.363 . S
C171 C173 1.408 . S
C171 C176 1.342 . S
C172 C173 1.310 . S
C172 C175 1.461 . S
C172 H192 0.932 . S
C173 C171 1.408 . S
C173 C172 1.310 . S
C173 H193 0.930 . S
C174 C175 1.474 . S
C174 C176 1.285 . S
C174 H194 0.929 . S
C175 C172 1.461 . S
C175 C174 1.474 . S
C176 C171 1.342 . S
C176 C174 1.285 . S
C176 H195 0.930 . S
C177 C180 1.424 . S
C177 C182 1.245 . S
C177 C183 1.428 . S
C178 C181 1.260 . S
C178 C182 1.477 . S
C178 H196 0.932 . S
C179 C180 1.384 . S
C179 C181 1.479 . S
C179 H197 0.929 . S
C180 C177 1.424 . S
C180 C179 1.384 . S
C180 H198 0.928 . S
C181 C178 1.260 . S
C181 C179 1.479 . S
C182 C177 1.245 . S
C182 C178 1.477 . S
C182 H199 0.932 . S
C183 U166 2.882 . S
C183 C177 1.428 . S
C183 O186 1.301 . S
C183 O187 1.282 . S
O184 U166 2.441 . S
O184 C170 1.249 . S
O185 U166 2.420 . S
O185 C170 1.202 . S
O186 U166 2.455 . S
O186 C183 1.301 . S
O187 U166 2.449 . S
O187 C183 1.282 . S
H188 C161 0.934 . S
H189 C163 0.929 1_554 S
H190 C164 0.930 . S
H191 C165 0.931 . S
H192 C172 0.932 . S
H193 C173 0.930 . S
H194 C174 0.929 . S
H195 C176 0.930 . S
H196 C178 0.932 . S
H197 C179 0.929 . S
H198 C180 0.928 . S
H199 C182 0.932 . S
C200 C201 1.264 1_556 S
C200 C205 1.479 . S
C200 C210 1.465 . S
C201 C200 1.264 1_554 S
C201 C203 1.339 . S
C201 H228 0.931 . S
C202 C203 1.395 1_556 S
C202 C204 1.320 . S
C203 C201 1.339 . S
C203 C202 1.395 1_554 S
C203 H229 0.929 . S
C204 C202 1.320 . S
C204 C205 1.405 . S
C204 H230 0.930 . S
C205 C200 1.479 . S
C205 C204 1.405 . S
C205 H231 0.931 . S
U206 O207 2.454 . S
U206 O208 2.458 . S
U206 C209 2.984 . S
U206 C210 2.847 . S
U206 C223 2.882 . S
U206 O224 2.441 . S
U206 O225 2.420 1_556 S
U206 O226 2.455 . S
U206 O227 2.449 1_556 S
O207 U206 2.454 . S
O207 C209 1.353 . S
O208 U206 2.458 . S
O208 C209 1.286 . S
C209 U206 2.984 . S
C209 O207 1.353 . S
C209 O208 1.286 . S
C209 C211 1.363 . S
C210 C200 1.465 . S
C210 U206 2.847 . S
C210 O224 1.249 . S
C210 O225 1.202 1_556 S
C211 C209 1.363 . S
C211 C213 1.408 . S
C211 C216 1.342 . S
C212 C213 1.310 . S
C212 C215 1.461 . S
C212 H232 0.932 . S
C213 C211 1.408 . S
C213 C212 1.310 . S
C213 H233 0.930 . S
C214 C215 1.474 . S
C214 C216 1.285 . S
C214 H234 0.929 . S
C215 C212 1.461 . S
C215 C214 1.474 . S
C216 C211 1.342 . S
C216 C214 1.285 . S
C216 H235 0.930 . S
C217 C220 1.424 1_556 S
C217 C222 1.245 . S
C217 C223 1.428 . S
C218 C221 1.260 . S
C218 C222 1.477 . S
C218 H236 0.932 . S
C219 C220 1.384 . S
C219 C221 1.479 1_554 S
C219 H237 0.929 . S
C220 C217 1.424 1_554 S
C220 C219 1.384 . S
C220 H238 0.928 . S
C221 C218 1.260 . S
C221 C219 1.479 1_556 S
C222 C217 1.245 . S
C222 C218 1.477 . S
C222 H239 0.932 . S
C223 U206 2.882 . S
C223 C217 1.428 . S
C223 O226 1.301 . S
C223 O227 1.282 1_556 S
O224 U206 2.441 . S
O224 C210 1.249 . S
O225 U206 2.420 1_554 S
O225 C210 1.202 1_554 S
O226 U206 2.455 . S
O226 C223 1.301 . S
O227 U206 2.449 1_554 S
O227 C223 1.282 1_554 S
H228 C201 0.931 . S
H229 C203 0.929 . S
H230 C204 0.930 . S
H231 C205 0.931 . S
H232 C212 0.932 . S
H233 C213 0.930 . S
H234 C214 0.929 . S
H235 C216 0.930 . S
H236 C218 0.932 . S
H237 C219 0.929 . S
H238 C220 0.928 . S
H239 C222 0.932 . S
C240 C241 1.264 . S
C240 C245 1.479 . S
C240 C250 1.465 . S
C241 C240 1.264 . S
C241 C243 1.339 . S
C241 H268 0.931 . S
C242 C243 1.395 . S
C242 C244 1.320 . S
C243 C241 1.339 . S
C243 C242 1.395 . S
C243 H269 0.929 . S
C244 C242 1.320 . S
C244 C245 1.405 . S
C244 H270 0.930 . S
C245 C240 1.479 . S
C245 C244 1.405 . S
C245 H271 0.931 . S
U246 O247 2.454 . S
U246 O248 2.458 . S
U246 C249 2.984 . S
U246 C250 2.847 . S
U246 C263 2.882 . S
U246 O264 2.441 . S
U246 O265 2.420 . S
U246 O266 2.455 . S
U246 O267 2.449 . S
O247 U246 2.454 . S
O247 C249 1.353 . S
O248 U246 2.458 . S
O248 C249 1.286 . S
C249 U246 2.984 . S
C249 O247 1.353 . S
C249 O248 1.286 . S
C249 C251 1.363 . S
C250 C240 1.465 . S
C250 U246 2.847 . S
C250 O264 1.249 . S
C250 O265 1.202 . S
C251 C249 1.363 . S
C251 C253 1.408 . S
C251 C256 1.342 . S
C252 C253 1.310 . S
C252 C255 1.461 . S
C252 H272 0.932 . S
C253 C251 1.408 . S
C253 C252 1.310 . S
C253 H273 0.930 . S
C254 C255 1.474 . S
C254 C256 1.285 . S
C254 H274 0.929 . S
C255 C252 1.461 . S
C255 C254 1.474 . S
C256 C251 1.342 . S
C256 C254 1.285 . S
C256 H275 0.930 . S
C257 C260 1.424 . S
C257 C262 1.245 . S
C257 C263 1.428 . S
C258 C261 1.260 . S
C258 C262 1.477 . S
C258 H276 0.932 . S
C259 C260 1.384 . S
C259 C261 1.479 . S
C259 H277 0.929 . S
C260 C257 1.424 . S
C260 C259 1.384 . S
C260 H278 0.928 . S
C261 C258 1.260 . S
C261 C259 1.479 . S
C262 C257 1.245 . S
C262 C258 1.477 . S
C262 H279 0.932 . S
C263 U246 2.882 . S
C263 C257 1.428 . S
C263 O266 1.301 . S
C263 O267 1.282 . S
O264 U246 2.441 . S
O264 C250 1.249 . S
O265 U246 2.420 . S
O265 C250 1.202 . S
O266 U246 2.455 . S
O266 C263 1.301 . S
O267 U246 2.449 . S
O267 C263 1.282 . S
H268 C241 0.931 . S
H269 C243 0.929 . S
H270 C244 0.930 . S
H271 C245 0.931 . S
H272 C252 0.932 . S
H273 C253 0.930 . S
H274 C254 0.929 . S
H275 C256 0.930 . S
H276 C258 0.932 . S
H277 C259 0.929 . S
H278 C260 0.928 . S
H279 C262 0.932 . S
C280 C281 1.264 . S
C280 C285 1.479 . S
C280 C290 1.465 . S
C281 C280 1.264 . S
C281 C283 1.339 . S
C281 H308 0.931 . S
C282 C283 1.395 . S
C282 C284 1.320 . S
C283 C281 1.339 . S
C283 C282 1.395 . S
C283 H309 0.929 . S
C284 C282 1.320 . S
C284 C285 1.405 . S
C284 H310 0.930 . S
C285 C280 1.479 . S
C285 C284 1.405 . S
C285 H311 0.931 . S
U286 O287 2.454 . S
U286 O288 2.458 . S
U286 C289 2.984 . S
U286 C290 2.847 . S
U286 C303 2.882 . S
U286 O304 2.441 . S
U286 O305 2.420 . S
U286 O306 2.455 . S
U286 O307 2.449 . S
O287 U286 2.454 . S
O287 C289 1.353 . S
O288 U286 2.458 . S
O288 C289 1.286 . S
C289 U286 2.984 . S
C289 O287 1.353 . S
C289 O288 1.286 . S
C289 C291 1.363 . S
C290 C280 1.465 . S
C290 U286 2.847 . S
C290 O304 1.249 . S
C290 O305 1.202 . S
C291 C289 1.363 . S
C291 C293 1.408 . S
C291 C296 1.342 . S
C292 C293 1.310 . S
C292 C295 1.461 . S
C292 H312 0.932 . S
C293 C291 1.408 . S
C293 C292 1.310 . S
C293 H313 0.930 . S
C294 C295 1.474 . S
C294 C296 1.285 . S
C294 H314 0.929 . S
C295 C292 1.461 . S
C295 C294 1.474 . S
C296 C291 1.342 . S
C296 C294 1.285 . S
C296 H315 0.930 . S
C297 C300 1.424 . S
C297 C302 1.245 . S
C297 C303 1.428 . S
C298 C301 1.260 . S
C298 C302 1.477 . S
C298 H316 0.932 . S
C299 C300 1.384 . S
C299 C301 1.479 . S
C299 H317 0.929 . S
C300 C297 1.424 . S
C300 C299 1.384 . S
C300 H318 0.928 . S
C301 C298 1.260 . S
C301 C299 1.479 . S
C302 C297 1.245 . S
C302 C298 1.477 . S
C302 H319 0.932 . S
C303 U286 2.882 . S
C303 C297 1.428 . S
C303 O306 1.301 . S
C303 O307 1.282 . S
O304 U286 2.441 . S
O304 C290 1.249 . S
O305 U286 2.420 . S
O305 C290 1.202 . S
O306 U286 2.455 . S
O306 C303 1.301 . S
O307 U286 2.449 . S
O307 C303 1.282 . S
H308 C281 0.931 . S
H309 C283 0.929 . S
H310 C284 0.930 . S
H311 C285 0.931 . S
H312 C292 0.932 . S
H313 C293 0.930 . S
H314 C294 0.929 . S
H315 C296 0.930 . S
H316 C298 0.932 . S
H317 C299 0.929 . S
H318 C300 0.928 . S
H319 C302 0.932 . S
C320 C321 1.264 . S
C320 C325 1.479 . S
C320 C330 1.465 . S
C321 C320 1.264 . S
C321 C323 1.339 . S
C321 H348 0.931 . S
C322 C323 1.395 . S
C322 C324 1.320 . S
C323 C321 1.339 . S
C323 C322 1.395 . S
C323 H349 0.929 . S
C324 C322 1.320 . S
C324 C325 1.405 . S
C324 H350 0.930 . S
C325 C320 1.479 . S
C325 C324 1.405 . S
C325 H351 0.931 . S
U326 O327 2.454 . S
U326 O328 2.458 . S
U326 C329 2.984 . S
U326 C330 2.847 . S
U326 C343 2.882 . S
U326 O344 2.441 . S
U326 O345 2.420 . S
U326 O346 2.455 . S
U326 O347 2.449 . S
O327 U326 2.454 . S
O327 C329 1.353 . S
O328 U326 2.458 . S
O328 C329 1.286 . S
C329 U326 2.984 . S
C329 O327 1.353 . S
C329 O328 1.286 . S
C329 C331 1.363 . S
C330 C320 1.465 . S
C330 U326 2.847 . S
C330 O344 1.249 . S
C330 O345 1.202 . S
C331 C329 1.363 . S
C331 C333 1.408 . S
C331 C336 1.342 . S
C332 C333 1.310 . S
C332 C335 1.461 . S
C332 H352 0.932 . S
C333 C331 1.408 . S
C333 C332 1.310 . S
C333 H353 0.930 . S
C334 C335 1.474 . S
C334 C336 1.285 . S
C334 H354 0.929 . S
C335 C332 1.461 . S
C335 C334 1.474 . S
C336 C331 1.342 . S
C336 C334 1.285 . S
C336 H355 0.930 . S
C337 C340 1.424 . S
C337 C342 1.245 . S
C337 C343 1.428 . S
C338 C341 1.260 . S
C338 C342 1.477 . S
C338 H356 0.932 . S
C339 C340 1.384 . S
C339 C341 1.479 . S
C339 H357 0.929 . S
C340 C337 1.424 . S
C340 C339 1.384 . S
C340 H358 0.928 . S
C341 C338 1.260 . S
C341 C339 1.479 . S
C342 C337 1.245 . S
C342 C338 1.477 . S
C342 H359 0.932 . S
C343 U326 2.882 . S
C343 C337 1.428 . S
C343 O346 1.301 . S
C343 O347 1.282 . S
O344 U326 2.441 . S
O344 C330 1.249 . S
O345 U326 2.420 . S
O345 C330 1.202 . S
O346 U326 2.455 . S
O346 C343 1.301 . S
O347 U326 2.449 . S
O347 C343 1.282 . S
H348 C321 0.931 . S
H349 C323 0.929 . S
H350 C324 0.930 . S
H351 C325 0.931 . S
H352 C332 0.932 . S
H353 C333 0.930 . S
H354 C334 0.929 . S
H355 C336 0.930 . S
H356 C338 0.932 . S
H357 C339 0.929 . S
H358 C340 0.928 . S
H359 C342 0.932 . S
C360 C361 1.264 . S
C360 C365 1.479 . S
C360 C370 1.465 . S
C361 C360 1.264 . S
C361 C363 1.339 . S
C361 H388 0.931 . S
C362 C363 1.395 . S
C362 C364 1.320 . S
C363 C361 1.339 . S
C363 C362 1.395 . S
C363 H389 0.929 . S
C364 C362 1.320 . S
C364 C365 1.405 . S
C364 H390 0.930 . S
C365 C360 1.479 . S
C365 C364 1.405 . S
C365 H391 0.931 . S
U366 O367 2.454 . S
U366 O368 2.458 . S
U366 C369 2.984 . S
U366 C370 2.847 . S
U366 C383 2.882 . S
U366 O384 2.441 . S
U366 O385 2.420 . S
U366 O386 2.455 . S
U366 O387 2.449 . S
O367 U366 2.454 . S
O367 C369 1.353 . S
O368 U366 2.458 . S
O368 C369 1.286 . S
C369 U366 2.984 . S
C369 O367 1.353 . S
C369 O368 1.286 . S
C369 C371 1.363 . S
C370 C360 1.465 . S
C370 U366 2.847 . S
C370 O384 1.249 . S
C370 O385 1.202 . S
C371 C369 1.363 . S
C371 C373 1.408 . S
C371 C376 1.342 . S
C372 C373 1.310 . S
C372 C375 1.461 . S
C372 H392 0.932 . S
C373 C371 1.408 . S
C373 C372 1.310 . S
C373 H393 0.930 . S
C374 C375 1.474 . S
C374 C376 1.285 . S
C374 H394 0.929 . S
C375 C372 1.461 . S
C375 C374 1.474 . S
C376 C371 1.342 . S
C376 C374 1.285 . S
C376 H395 0.930 . S
C377 C380 1.424 . S
C377 C382 1.245 . S
C377 C383 1.428 . S
C378 C381 1.260 . S
C378 C382 1.477 . S
C378 H396 0.932 . S
C379 C380 1.384 . S
C379 C381 1.479 . S
C379 H397 0.929 . S
C380 C377 1.424 . S
C380 C379 1.384 . S
C380 H398 0.928 . S
C381 C378 1.260 . S
C381 C379 1.479 . S
C382 C377 1.245 . S
C382 C378 1.477 . S
C382 H399 0.932 . S
C383 U366 2.882 . S
C383 C377 1.428 . S
C383 O386 1.301 . S
C383 O387 1.282 . S
O384 U366 2.441 . S
O384 C370 1.249 . S
O385 U366 2.420 . S
O385 C370 1.202 . S
O386 U366 2.455 . S
O386 C383 1.301 . S
O387 U366 2.449 . S
O387 C383 1.282 . S
H388 C361 0.931 . S
H389 C363 0.929 . S
H390 C364 0.930 . S
H391 C365 0.931 . S
H392 C372 0.932 . S
H393 C373 0.930 . S
H394 C374 0.929 . S
H395 C376 0.930 . S
H396 C378 0.932 . S
H397 C379 0.929 . S
H398 C380 0.928 . S
H399 C382 0.932 . S
C400 C401 1.264 . S
C400 C405 1.479 . S
C400 C410 1.465 . S
C401 C400 1.264 . S
C401 C403 1.339 . S
C401 H428 0.931 . S
C402 C403 1.395 . S
C402 C404 1.320 . S
C403 C401 1.339 . S
C403 C402 1.395 . S
C403 H429 0.929 . S
C404 C402 1.320 . S
C404 C405 1.405 . S
C404 H430 0.930 . S
C405 C400 1.479 . S
C405 C404 1.405 . S
C405 H431 0.931 . S
U406 O407 2.454 . S
U406 O408 2.458 . S
U406 C409 2.984 . S
U406 C410 2.847 . S
U406 C423 2.882 . S
U406 O424 2.441 . S
U406 O425 2.420 . S
U406 O426 2.455 . S
U406 O427 2.449 . S
O407 U406 2.454 . S
O407 C409 1.353 . S
O408 U406 2.458 . S
O408 C409 1.286 . S
C409 U406 2.984 . S
C409 O407 1.353 . S
C409 O408 1.286 . S
C409 C411 1.363 . S
C410 C400 1.465 . S
C410 U406 2.847 . S
C410 O424 1.249 . S
C410 O425 1.202 . S
C411 C409 1.363 . S
C411 C413 1.408 . S
C411 C416 1.342 . S
C412 C413 1.310 . S
C412 C415 1.461 . S
C412 H432 0.932 . S
C413 C411 1.408 . S
C413 C412 1.310 . S
C413 H433 0.930 . S
C414 C415 1.474 . S
C414 C416 1.285 . S
C414 H434 0.929 . S
C415 C412 1.461 . S
C415 C414 1.474 . S
C416 C411 1.342 . S
C416 C414 1.285 . S
C416 H435 0.930 . S
C417 C420 1.424 . S
C417 C422 1.245 . S
C417 C423 1.428 . S
C418 C421 1.260 . S
C418 C422 1.477 . S
C418 H436 0.932 . S
C419 C420 1.384 . S
C419 C421 1.479 . S
C419 H437 0.929 . S
C420 C417 1.424 . S
C420 C419 1.384 . S
C420 H438 0.928 . S
C421 C418 1.260 . S
C421 C419 1.479 . S
C422 C417 1.245 . S
C422 C418 1.477 . S
C422 H439 0.932 . S
C423 U406 2.882 . S
C423 C417 1.428 . S
C423 O426 1.301 . S
C423 O427 1.282 . S
O424 U406 2.441 . S
O424 C410 1.249 . S
O425 U406 2.420 . S
O425 C410 1.202 . S
O426 U406 2.455 . S
O426 C423 1.301 . S
O427 U406 2.449 . S
O427 C423 1.282 . S
H428 C401 0.931 . S
H429 C403 0.929 . S
H430 C404 0.930 . S
H431 C405 0.931 . S
H432 C412 0.932 . S
H433 C413 0.930 . S
H434 C414 0.929 . S
H435 C416 0.930 . S
H436 C418 0.932 . S
H437 C419 0.929 . S
H438 C420 0.928 . S
H439 C422 0.932 . S
C440 C441 1.264 . S
C440 C445 1.479 . S
C440 C450 1.465 . S
C441 C440 1.264 . S
C441 C443 1.339 . S
C441 H468 0.931 . S
C442 C443 1.395 . S
C442 C444 1.320 . S
C443 C441 1.339 . S
C443 C442 1.395 . S
C443 H469 0.929 . S
C444 C442 1.320 . S
C444 C445 1.405 . S
C444 H470 0.930 . S
C445 C440 1.479 . S
C445 C444 1.405 . S
C445 H471 0.931 . S
U446 O447 2.454 . S
U446 O448 2.458 . S
U446 C449 2.984 . S
U446 C450 2.847 . S
U446 C463 2.882 . S
U446 O464 2.441 . S
U446 O465 2.420 . S
U446 O466 2.455 . S
U446 O467 2.449 . S
O447 U446 2.454 . S
O447 C449 1.353 . S
O448 U446 2.458 . S
O448 C449 1.286 . S
C449 U446 2.984 . S
C449 O447 1.353 . S
C449 O448 1.286 . S
C449 C451 1.363 . S
C450 C440 1.465 . S
C450 U446 2.847 . S
C450 O464 1.249 . S
C450 O465 1.202 . S
C451 C449 1.363 . S
C451 C453 1.408 . S
C451 C456 1.342 . S
C452 C453 1.310 . S
C452 C455 1.461 . S
C452 H472 0.932 . S
C453 C451 1.408 . S
C453 C452 1.310 . S
C453 H473 0.930 . S
C454 C455 1.474 . S
C454 C456 1.285 . S
C454 H474 0.929 . S
C455 C452 1.461 . S
C455 C454 1.474 . S
C456 C451 1.342 . S
C456 C454 1.285 . S
C456 H475 0.930 . S
C457 C460 1.424 . S
C457 C462 1.245 . S
C457 C463 1.428 . S
C458 C461 1.260 . S
C458 C462 1.477 . S
C458 H476 0.932 . S
C459 C460 1.384 . S
C459 C461 1.479 . S
C459 H477 0.929 . S
C460 C457 1.424 . S
C460 C459 1.384 . S
C460 H478 0.928 . S
C461 C458 1.260 . S
C461 C459 1.479 . S
C462 C457 1.245 . S
C462 C458 1.477 . S
C462 H479 0.932 . S
C463 U446 2.882 . S
C463 C457 1.428 . S
C463 O466 1.301 . S
C463 O467 1.282 . S
O464 U446 2.441 . S
O464 C450 1.249 . S
O465 U446 2.420 . S
O465 C450 1.202 . S
O466 U446 2.455 . S
O466 C463 1.301 . S
O467 U446 2.449 . S
O467 C463 1.282 . S
H468 C441 0.931 . S
H469 C443 0.929 . S
H470 C444 0.930 . S
H471 C445 0.931 . S
H472 C452 0.932 . S
H473 C453 0.930 . S
H474 C454 0.929 . S
H475 C456 0.930 . S
H476 C458 0.932 . S
H477 C459 0.929 . S
H478 C460 0.928 . S
H479 C462 0.932 . S
C480 C481 1.264 . S
C480 C485 1.479 . S
C480 C490 1.465 . S
C481 C480 1.264 . S
C481 C483 1.339 . S
C481 H508 0.931 . S
C482 C483 1.395 . S
C482 C484 1.320 . S
C483 C481 1.339 . S
C483 C482 1.395 . S
C483 H509 0.929 . S
C484 C482 1.320 . S
C484 C485 1.405 . S
C484 H510 0.930 . S
C485 C480 1.479 . S
C485 C484 1.405 . S
C485 H511 0.931 . S
U486 O487 2.454 . S
U486 O488 2.458 . S
U486 C489 2.984 . S
U486 C490 2.847 . S
U486 C503 2.882 . S
U486 O504 2.441 . S
U486 O505 2.420 . S
U486 O506 2.455 . S
U486 O507 2.449 . S
O487 U486 2.454 . S
O487 C489 1.353 . S
O488 U486 2.458 . S
O488 C489 1.286 . S
C489 U486 2.984 . S
C489 O487 1.353 . S
C489 O488 1.286 . S
C489 C491 1.363 . S
C490 C480 1.465 . S
C490 U486 2.847 . S
C490 O504 1.249 . S
C490 O505 1.202 . S
C491 C489 1.363 . S
C491 C493 1.408 . S
C491 C496 1.342 . S
C492 C493 1.310 . S
C492 C495 1.461 . S
C492 H512 0.932 . S
C493 C491 1.408 . S
C493 C492 1.310 . S
C493 H513 0.930 . S
C494 C495 1.474 . S
C494 C496 1.285 . S
C494 H514 0.929 . S
C495 C492 1.461 . S
C495 C494 1.474 . S
C496 C491 1.342 . S
C496 C494 1.285 . S
C496 H515 0.930 . S
C497 C500 1.424 . S
C497 C502 1.245 . S
C497 C503 1.428 . S
C498 C501 1.260 . S
C498 C502 1.477 . S
C498 H516 0.932 . S
C499 C500 1.384 . S
C499 C501 1.479 . S
C499 H517 0.929 . S
C500 C497 1.424 . S
C500 C499 1.384 . S
C500 H518 0.928 . S
C501 C498 1.260 . S
C501 C499 1.479 . S
C502 C497 1.245 . S
C502 C498 1.477 . S
C502 H519 0.932 . S
C503 U486 2.882 . S
C503 C497 1.428 . S
C503 O506 1.301 . S
C503 O507 1.282 . S
O504 U486 2.441 . S
O504 C490 1.249 . S
O505 U486 2.420 . S
O505 C490 1.202 . S
O506 U486 2.455 . S
O506 C503 1.301 . S
O507 U486 2.449 . S
O507 C503 1.282 . S
H508 C481 0.931 . S
H509 C483 0.929 . S
H510 C484 0.930 . S
H511 C485 0.931 . S
H512 C492 0.932 . S
H513 C493 0.930 . S
H514 C494 0.929 . S
H515 C496 0.930 . S
H516 C498 0.932 . S
H517 C499 0.929 . S
H518 C500 0.928 . S
H519 C502 0.932 . S
C520 C521 1.264 . S
C520 C525 1.479 . S
C520 C530 1.465 . S
C521 C520 1.264 . S
C521 C523 1.339 . S
C521 H548 0.931 . S
C522 C523 1.395 . S
C522 C524 1.320 . S
C523 C521 1.339 . S
C523 C522 1.395 . S
C523 H549 0.929 . S
C524 C522 1.320 . S
C524 C525 1.405 . S
C524 H550 0.930 . S
C525 C520 1.479 . S
C525 C524 1.405 . S
C525 H551 0.931 . S
U526 O527 2.454 . S
U526 O528 2.458 . S
U526 C529 2.984 . S
U526 C530 2.847 . S
U526 C543 2.882 . S
U526 O544 2.441 . S
U526 O545 2.420 . S
U526 O546 2.455 . S
U526 O547 2.449 . S
O527 U526 2.454 . S
O527 C529 1.353 . S
O528 U526 2.458 . S
O528 C529 1.286 . S
C529 U526 2.984 . S
C529 O527 1.353 . S
C529 O528 1.286 . S
C529 C531 1.363 . S
C530 C520 1.465 . S
C530 U526 2.847 . S
C530 O544 1.249 . S
C530 O545 1.202 . S
C531 C529 1.363 . S
C531 C533 1.408 . S
C531 C536 1.342 . S
C532 C533 1.310 . S
C532 C535 1.461 . S
C532 H552 0.932 . S
C533 C531 1.408 . S
C533 C532 1.310 . S
C533 H553 0.930 . S
C534 C535 1.474 . S
C534 C536 1.285 . S
C534 H554 0.929 . S
C535 C532 1.461 . S
C535 C534 1.474 . S
C536 C531 1.342 . S
C536 C534 1.285 . S
C536 H555 0.930 . S
C537 C540 1.424 . S
C537 C542 1.245 . S
C537 C543 1.428 . S
C538 C541 1.260 . S
C538 C542 1.477 . S
C538 H556 0.932 . S
C539 C540 1.384 . S
C539 C541 1.479 . S
C539 H557 0.929 . S
C540 C537 1.424 . S
C540 C539 1.384 . S
C540 H558 0.928 . S
C541 C538 1.260 . S
C541 C539 1.479 . S
C542 C537 1.245 . S
C542 C538 1.477 . S
C542 H559 0.932 . S
C543 U526 2.882 . S
C543 C537 1.428 . S
C543 O546 1.301 . S
C543 O547 1.282 . S
O544 U526 2.441 . S
O544 C530 1.249 . S
O545 U526 2.420 . S
O545 C530 1.202 . S
O546 U526 2.455 . S
O546 C543 1.301 . S
O547 U526 2.449 . S
O547 C543 1.282 . S
H548 C521 0.931 . S
H549 C523 0.929 . S
H550 C524 0.930 . S
H551 C525 0.931 . S
H552 C532 0.932 . S
H553 C533 0.930 . S
H554 C534 0.929 . S
H555 C536 0.930 . S
H556 C538 0.932 . S
H557 C539 0.929 . S
H558 C540 0.928 . S
H559 C542 0.932 . S
C560 C561 1.264 . S
C560 C565 1.479 . S
C560 C570 1.465 . S
C561 C560 1.264 . S
C561 C563 1.339 . S
C561 H588 0.931 . S
C562 C563 1.395 . S
C562 C564 1.320 . S
C563 C561 1.339 . S
C563 C562 1.395 . S
C563 H589 0.929 . S
C564 C562 1.320 . S
C564 C565 1.405 . S
C564 H590 0.930 . S
C565 C560 1.479 . S
C565 C564 1.405 . S
C565 H591 0.931 . S
U566 O567 2.454 . S
U566 O568 2.458 . S
U566 C569 2.984 . S
U566 C570 2.847 . S
U566 C583 2.882 . S
U566 O584 2.441 . S
U566 O585 2.420 . S
U566 O586 2.455 . S
U566 O587 2.449 . S
O567 U566 2.454 . S
O567 C569 1.353 . S
O568 U566 2.458 . S
O568 C569 1.286 . S
C569 U566 2.984 . S
C569 O567 1.353 . S
C569 O568 1.286 . S
C569 C571 1.363 . S
C570 C560 1.465 . S
C570 U566 2.847 . S
C570 O584 1.249 . S
C570 O585 1.202 . S
C571 C569 1.363 . S
C571 C573 1.408 . S
C571 C576 1.342 . S
C572 C573 1.310 . S
C572 C575 1.461 . S
C572 H592 0.932 . S
C573 C571 1.408 . S
C573 C572 1.310 . S
C573 H593 0.930 . S
C574 C575 1.474 . S
C574 C576 1.285 . S
C574 H594 0.929 . S
C575 C572 1.461 . S
C575 C574 1.474 . S
C576 C571 1.342 . S
C576 C574 1.285 . S
C576 H595 0.930 . S
C577 C580 1.424 . S
C577 C582 1.245 . S
C577 C583 1.428 . S
C578 C581 1.260 . S
C578 C582 1.477 . S
C578 H596 0.932 . S
C579 C580 1.384 . S
C579 C581 1.479 . S
C579 H597 0.929 . S
C580 C577 1.424 . S
C580 C579 1.384 . S
C580 H598 0.928 . S
C581 C578 1.260 . S
C581 C579 1.479 . S
C582 C577 1.245 . S
C582 C578 1.477 . S
C582 H599 0.932 . S
C583 U566 2.882 . S
C583 C577 1.428 . S
C583 O586 1.301 . S
C583 O587 1.282 . S
O584 U566 2.441 . S
O584 C570 1.249 . S
O585 U566 2.420 . S
O585 C570 1.202 . S
O586 U566 2.455 . S
O586 C583 1.301 . S
O587 U566 2.449 . S
O587 C583 1.282 . S
H588 C561 0.931 . S
H589 C563 0.929 . S
H590 C564 0.930 . S
H591 C565 0.931 . S
H592 C572 0.932 . S
H593 C573 0.930 . S
H594 C574 0.929 . S
H595 C576 0.930 . S
H596 C578 0.932 . S
H597 C579 0.929 . S
H598 C580 0.928 . S
H599 C582 0.932 . S
C600 C601 1.264 . S
C600 C605 1.479 . S
C600 C610 1.465 . S
C601 C600 1.264 . S
C601 C603 1.339 . S
C601 H628 0.931 . S
C602 C603 1.395 . S
C602 C604 1.320 . S
C603 C601 1.339 . S
C603 C602 1.395 . S
C603 H629 0.929 . S
C604 C602 1.320 . S
C604 C605 1.405 . S
C604 H630 0.930 . S
C605 C600 1.479 . S
C605 C604 1.405 . S
C605 H631 0.931 . S
U606 O607 2.454 . S
U606 O608 2.458 . S
U606 C609 2.984 . S
U606 C610 2.847 . S
U606 C623 2.882 . S
U606 O624 2.441 . S
U606 O625 2.420 . S
U606 O626 2.455 . S
U606 O627 2.449 . S
O607 U606 2.454 . S
O607 C609 1.353 . S
O608 U606 2.458 . S
O608 C609 1.286 . S
C609 U606 2.984 . S
C609 O607 1.353 . S
C609 O608 1.286 . S
C609 C611 1.363 . S
C610 C600 1.465 . S
C610 U606 2.847 . S
C610 O624 1.249 . S
C610 O625 1.202 . S
C611 C609 1.363 . S
C611 C613 1.408 . S
C611 C616 1.342 . S
C612 C613 1.310 . S
C612 C615 1.461 . S
C612 H632 0.932 . S
C613 C611 1.408 . S
C613 C612 1.310 . S
C613 H633 0.930 . S
C614 C615 1.474 . S
C614 C616 1.285 . S
C614 H634 0.929 . S
C615 C612 1.461 . S
C615 C614 1.474 . S
C616 C611 1.342 . S
C616 C614 1.285 . S
C616 H635 0.930 . S
C617 C620 1.424 . S
C617 C622 1.245 . S
C617 C623 1.428 . S
C618 C621 1.260 . S
C618 C622 1.477 . S
C618 H636 0.932 . S
C619 C620 1.384 . S
C619 C621 1.479 . S
C619 H637 0.929 . S
C620 C617 1.424 . S
C620 C619 1.384 . S
C620 H638 0.928 . S
C621 C618 1.260 . S
C621 C619 1.479 . S
C622 C617 1.245 . S
C622 C618 1.477 . S
C622 H639 0.932 . S
C623 U606 2.882 . S
C623 C617 1.428 . S
C623 O626 1.301 . S
C623 O627 1.282 . S
O624 U606 2.441 . S
O624 C610 1.249 . S
O625 U606 2.420 . S
O625 C610 1.202 . S
O626 U606 2.455 . S
O626 C623 1.301 . S
O627 U606 2.449 . S
O627 C623 1.282 . S
H628 C601 0.931 . S
H629 C603 0.929 . S
H630 C604 0.930 . S
H631 C605 0.931 . S
H632 C612 0.932 . S
H633 C613 0.930 . S
H634 C614 0.929 . S
H635 C616 0.930 . S
H636 C618 0.932 . S
H637 C619 0.929 . S
H638 C620 0.928 . S
H639 C622 0.932 . S
C640 C641 1.264 . S
C640 C645 1.479 . S
C640 C650 1.465 . S
C641 C640 1.264 . S
C641 C643 1.339 . S
C641 H668 0.931 . S
C642 C643 1.395 . S
C642 C644 1.320 . S
C643 C641 1.339 . S
C643 C642 1.395 . S
C643 H669 0.929 . S
C644 C642 1.320 . S
C644 C645 1.405 . S
C644 H670 0.930 . S
C645 C640 1.479 . S
C645 C644 1.405 . S
C645 H671 0.931 . S
U646 O647 2.454 . S
U646 O648 2.458 . S
U646 C649 2.984 . S
U646 C650 2.847 . S
U646 C663 2.882 . S
U646 O664 2.441 . S
U646 O665 2.420 . S
U646 O666 2.455 . S
U646 O667 2.449 . S
O647 U646 2.454 . S
O647 C649 1.353 . S
O648 U646 2.458 . S
O648 C649 1.286 . S
C649 U646 2.984 . S
C649 O647 1.353 . S
C649 O648 1.286 . S
C649 C651 1.363 . S
C650 C640 1.465 . S
C650 U646 2.847 . S
C650 O664 1.249 . S
C650 O665 1.202 . S
C651 C649 1.363 . S
C651 C653 1.408 . S
C651 C656 1.342 . S
C652 C653 1.310 . S
C652 C655 1.461 . S
C652 H672 0.932 . S
C653 C651 1.408 . S
C653 C652 1.310 . S
C653 H673 0.930 . S
C654 C655 1.474 . S
C654 C656 1.285 . S
C654 H674 0.929 . S
C655 C652 1.461 . S
C655 C654 1.474 . S
C656 C651 1.342 . S
C656 C654 1.285 . S
C656 H675 0.930 . S
C657 C660 1.424 . S
C657 C662 1.245 . S
C657 C663 1.428 . S
C658 C661 1.260 . S
C658 C662 1.477 . S
C658 H676 0.932 . S
C659 C660 1.384 . S
C659 C661 1.479 . S
C659 H677 0.929 . S
C660 C657 1.424 . S
C660 C659 1.384 . S
C660 H678 0.928 . S
C661 C658 1.260 . S
C661 C659 1.479 . S
C662 C657 1.245 . S
C662 C658 1.477 . S
C662 H679 0.932 . S
C663 U646 2.882 . S
C663 C657 1.428 . S
C663 O666 1.301 . S
C663 O667 1.282 . S
O664 U646 2.441 . S
O664 C650 1.249 . S
O665 U646 2.420 . S
O665 C650 1.202 . S
O666 U646 2.455 . S
O666 C663 1.301 . S
O667 U646 2.449 . S
O667 C663 1.282 . S
H668 C641 0.931 . S
H669 C643 0.929 . S
H670 C644 0.930 . S
H671 C645 0.931 . S
H672 C652 0.932 . S
H673 C653 0.930 . S
H674 C654 0.929 . S
H675 C656 0.930 . S
H676 C658 0.932 . S
H677 C659 0.929 . S
H678 C660 0.928 . S
H679 C662 0.932 . S
C680 C681 1.264 . S
C680 C685 1.479 . S
C680 C690 1.465 . S
C681 C680 1.264 . S
C681 C683 1.339 . S
C681 H708 0.931 . S
C682 C683 1.395 . S
C682 C684 1.320 . S
C683 C681 1.339 . S
C683 C682 1.395 . S
C683 H709 0.929 . S
C684 C682 1.320 . S
C684 C685 1.405 . S
C684 H710 0.930 . S
C685 C680 1.479 . S
C685 C684 1.405 . S
C685 H711 0.931 . S
U686 O687 2.454 . S
U686 O688 2.458 . S
U686 C689 2.984 . S
U686 C690 2.847 . S
U686 C703 2.882 . S
U686 O704 2.441 . S
U686 O705 2.420 . S
U686 O706 2.455 . S
U686 O707 2.449 . S
O687 U686 2.454 . S
O687 C689 1.353 . S
O688 U686 2.458 . S
O688 C689 1.286 . S
C689 U686 2.984 . S
C689 O687 1.353 . S
C689 O688 1.286 . S
C689 C691 1.363 . S
C690 C680 1.465 . S
C690 U686 2.847 . S
C690 O704 1.249 . S
C690 O705 1.202 . S
C691 C689 1.363 . S
C691 C693 1.408 . S
C691 C696 1.342 . S
C692 C693 1.310 . S
C692 C695 1.461 . S
C692 H712 0.932 . S
C693 C691 1.408 . S
C693 C692 1.310 . S
C693 H713 0.930 . S
C694 C695 1.474 . S
C694 C696 1.285 . S
C694 H714 0.929 . S
C695 C692 1.461 . S
C695 C694 1.474 . S
C696 C691 1.342 . S
C696 C694 1.285 . S
C696 H715 0.930 . S
C697 C700 1.424 . S
C697 C702 1.245 . S
C697 C703 1.428 . S
C698 C701 1.260 . S
C698 C702 1.477 . S
C698 H716 0.932 . S
C699 C700 1.384 . S
C699 C701 1.479 . S
C699 H717 0.929 . S
C700 C697 1.424 . S
C700 C699 1.384 . S
C700 H718 0.928 . S
C701 C698 1.260 . S
C701 C699 1.479 . S
C702 C697 1.245 . S
C702 C698 1.477 . S
C702 H719 0.932 . S
C703 U686 2.882 . S
C703 C697 1.428 . S
C703 O706 1.301 . S
C703 O707 1.282 . S
O704 U686 2.441 . S
O704 C690 1.249 . S
O705 U686 2.420 . S
O705 C690 1.202 . S
O706 U686 2.455 . S
O706 C703 1.301 . S
O707 U686 2.449 . S
O707 C703 1.282 . S
H708 C681 0.931 . S
H709 C683 0.929 . S
H710 C684 0.930 . S
H711 C685 0.931 . S
H712 C692 0.932 . S
H713 C693 0.930 . S
H714 C694 0.929 . S
H715 C696 0.930 . S
H716 C698 0.932 . S
H717 C699 0.929 . S
H718 C700 0.928 . S
H719 C702 0.932 . S
C720 C721 1.363 . S
C720 C726 1.379 1_545 S
C720 N728 1.356 . S
C721 C720 1.363 . S
C721 C727 1.363 1_556 S
C722 C723 1.363 1_554 S
C722 C727 1.379 1_565 S
C722 N729 1.356 . S
C723 C722 1.363 1_556 S
C723 C726 1.363 . S
N724 C726 1.356 . S
N724 H736 0.984 . S
N724 H737 0.985 . S
N725 C727 1.356 . S
N725 H730 0.984 . S
N725 H731 0.985 . S
C726 C720 1.379 1_565 S
C726 C723 1.363 . S
C726 N724 1.356 . S
C727 C721 1.363 1_554 S
C727 C722 1.379 1_545 S
C727 N725 1.356 . S
N728 C720 1.356 . S
N728 H734 0.984 . S
N728 H735 0.984 . S
N729 C722 1.356 . S
N729 H732 0.984 . S
N729 H733 0.985 . S
H730 N725 0.984 . S
H731 N725 0.985 . S
H732 N729 0.984 . S
H733 N729 0.985 . S
H734 N728 0.984 . S
H735 N728 0.984 . S
H736 N724 0.984 . S
H737 N724 0.985 . S
C738 C739 1.363 1_556 S
C738 C744 1.379 1_655 S
C738 N746 1.356 . S
C739 C738 1.363 1_554 S
C739 C745 1.363 . S
C740 C741 1.363 . S
C740 C745 1.379 1_455 S
C740 N747 1.356 . S
C741 C740 1.363 . S
C741 C744 1.363 1_554 S
N742 C744 1.356 . S
N742 H754 0.984 . S
N742 H755 0.985 . S
N743 C745 1.356 . S
N743 H748 0.984 . S
N743 H749 0.985 . S
C744 C738 1.379 1_455 S
C744 C741 1.363 1_556 S
C744 N742 1.356 . S
C745 C739 1.363 . S
C745 C740 1.379 1_655 S
C745 N743 1.356 . S
N746 C738 1.356 . S
N746 H752 0.984 . S
N746 H753 0.984 . S
N747 C740 1.356 . S
N747 H750 0.984 . S
N747 H751 0.985 . S
H748 N743 0.984 . S
H749 N743 0.985 . S
H750 N747 0.984 . S
H751 N747 0.985 . S
H752 N746 0.984 . S
H753 N746 0.984 . S
H754 N742 0.984 . S
H755 N742 0.985 . S
C756 C757 1.363 1_554 S
C756 C762 1.379 1_554 S
C756 N764 1.356 . S
C757 C756 1.363 1_556 S
C757 C763 1.363 . S
C758 C759 1.363 . S
C758 C763 1.379 . S
C758 N765 1.356 . S
C759 C758 1.363 . S
C759 C762 1.363 . S
N760 C762 1.356 1_554 S
N760 H772 0.984 . S
N760 H773 0.985 . S
N761 C763 1.356 . S
N761 H766 0.984 . S
N761 H767 0.985 . S
C762 C756 1.379 1_556 S
C762 C759 1.363 . S
C762 N760 1.356 1_556 S
C763 C757 1.363 . S
C763 C758 1.379 . S
C763 N761 1.356 . S
N764 C756 1.356 . S
N764 H770 0.984 . S
N764 H771 0.984 . S
N765 C758 1.356 . S
N765 H768 0.984 . S
N765 H769 0.985 . S
H766 N761 0.984 . S
H767 N761 0.985 . S
H768 N765 0.984 . S
H769 N765 0.985 . S
H770 N764 0.984 . S
H771 N764 0.984 . S
H772 N760 0.984 . S
H773 N760 0.985 . S
C774 C775 1.363 . S
C774 C780 1.379 1_545 S
C774 N782 1.356 . S
C775 C774 1.363 . S
C775 C781 1.363 1_554 S
C776 C777 1.363 . S
C776 C781 1.379 1_565 S
C776 N783 1.356 . S
C777 C776 1.363 . S
C777 C780 1.363 1_556 S
N778 C780 1.356 . S
N778 H790 0.984 . S
N778 H791 0.985 . S
N779 C781 1.356 . S
N779 H784 0.984 . S
N779 H785 0.985 . S
C780 C774 1.379 1_565 S
C780 C777 1.363 1_554 S
C780 N778 1.356 . S
C781 C775 1.363 1_556 S
C781 C776 1.379 1_545 S
C781 N779 1.356 . S
N782 C774 1.356 . S
N782 H788 0.984 . S
N782 H789 0.984 . S
N783 C776 1.356 . S
N783 H786 0.984 . S
N783 H787 0.985 . S
H784 N779 0.984 . S
H785 N779 0.985 . S
H786 N783 0.984 . S
H787 N783 0.985 . S
H788 N782 0.984 . S
H789 N782 0.984 . S
H790 N778 0.984 . S
H791 N778 0.985 . S
C792 C793 1.363 . S
C792 C798 1.379 1_455 S
C792 N800 1.356 . S
C793 C792 1.363 . S
C793 C799 1.363 1_556 S
C794 C795 1.363 1_554 S
C794 C799 1.379 1_655 S
C794 N801 1.356 . S
C795 C794 1.363 1_556 S
C795 C798 1.363 . S
N796 C798 1.356 . S
N796 H808 0.984 . S
N796 H809 0.985 . S
N797 C799 1.356 . S
N797 H802 0.984 . S
N797 H803 0.985 . S
C798 C792 1.379 1_655 S
C798 C795 1.363 . S
C798 N796 1.356 . S
C799 C793 1.363 1_554 S
C799 C794 1.379 1_455 S
C799 N797 1.356 . S
N800 C792 1.356 . S
N800 H806 0.984 . S
N800 H807 0.984 . S
N801 C794 1.356 . S
N801 H804 0.984 . S
N801 H805 0.985 . S
H802 N797 0.984 . S
H803 N797 0.985 . S
H804 N801 0.984 . S
H805 N801 0.985 . S
H806 N800 0.984 . S
H807 N800 0.984 . S
H808 N796 0.984 . S
H809 N796 0.985 . S
C810 C811 1.363 1_556 S
C810 C816 1.379 . S
C810 N818 1.356 . S
C811 C810 1.363 1_554 S
C811 C817 1.363 . S
C812 C813 1.363 . S
C812 C817 1.379 . S
C812 N819 1.356 . S
C813 C812 1.363 . S
C813 C816 1.363 1_554 S
N814 C816 1.356 . S
N814 H826 0.984 . S
N814 H827 0.985 . S
N815 C817 1.356 . S
N815 H820 0.984 . S
N815 H821 0.985 . S
C816 C810 1.379 . S
C816 C813 1.363 1_556 S
C816 N814 1.356 . S
C817 C811 1.363 . S
C817 C812 1.379 . S
C817 N815 1.356 . S
N818 C810 1.356 . S
N818 H824 0.984 . S
N818 H825 0.984 . S
N819 C812 1.356 . S
N819 H822 0.984 . S
N819 H823 0.985 . S
H820 N815 0.984 . S
H821 N815 0.985 . S
H822 N819 0.984 . S
H823 N819 0.985 . S
H824 N818 0.984 . S
H825 N818 0.984 . S
H826 N814 0.984 . S
H827 N814 0.985 . S
C828 C829 1.363 . S
C828 C834 1.379 . S
C828 N836 1.356 . S
C829 C828 1.363 . S
C829 C835 1.363 . S
C830 C831 1.363 . S
C830 C835 1.379 . S
C830 N837 1.356 . S
C831 C830 1.363 . S
C831 C834 1.363 . S
N832 C834 1.356 . S
N832 H844 0.984 . S
N832 H845 0.985 . S
N833 C835 1.356 . S
N833 H838 0.984 . S
N833 H839 0.985 . S
C834 C828 1.379 . S
C834 C831 1.363 . S
C834 N832 1.356 . S
C835 C829 1.363 . S
C835 C830 1.379 . S
C835 N833 1.356 . S
N836 C828 1.356 . S
N836 H842 0.984 . S
N836 H843 0.984 . S
N837 C830 1.356 . S
N837 H840 0.984 . S
N837 H841 0.985 . S
H838 N833 0.984 . S
H839 N833 0.985 . S
H840 N837 0.984 . S
H841 N837 0.985 . S
H842 N836 0.984 . S
H843 N836 0.984 . S
H844 N832 0.984 . S
H845 N832 0.985 . S
C846 C847 1.363 . S
C846 C852 1.379 . S
C846 N854 1.356 . S
C847 C846 1.363 . S
C847 C853 1.363 . S
C848 C849 1.363 . S
C848 C853 1.379 . S
C848 N855 1.356 . S
C849 C848 1.363 . S
C849 C852 1.363 . S
N850 C852 1.356 . S
N850 H862 0.984 . S
N850 H863 0.985 . S
N851 C853 1.356 . S
N851 H856 0.984 . S
N851 H857 0.985 . S
C852 C846 1.379 . S
C852 C849 1.363 . S
C852 N850 1.356 . S
C853 C847 1.363 . S
C853 C848 1.379 . S
C853 N851 1.356 . S
N854 C846 1.356 . S
N854 H860 0.984 . S
N854 H861 0.984 . S
N855 C848 1.356 . S
N855 H858 0.984 . S
N855 H859 0.985 . S
H856 N851 0.984 . S
H857 N851 0.985 . S
H858 N855 0.984 . S
H859 N855 0.985 . S
H860 N854 0.984 . S
H861 N854 0.984 . S
H862 N850 0.984 . S
H863 N850 0.985 . S
C864 C865 1.363 . S
C864 C870 1.379 . S
C864 N872 1.356 . S
C865 C864 1.363 . S
C865 C871 1.363 . S
C866 C867 1.363 . S
C866 C871 1.379 . S
C866 N873 1.356 . S
C867 C866 1.363 . S
C867 C870 1.363 . S
N868 C870 1.356 . S
N868 H880 0.984 . S
N868 H881 0.985 . S
N869 C871 1.356 . S
N869 H874 0.984 . S
N869 H875 0.985 . S
C870 C864 1.379 . S
C870 C867 1.363 . S
C870 N868 1.356 . S
C871 C865 1.363 . S
C871 C866 1.379 . S
C871 N869 1.356 . S
N872 C864 1.356 . S
N872 H878 0.984 . S
N872 H879 0.984 . S
N873 C866 1.356 . S
N873 H876 0.984 . S
N873 H877 0.985 . S
H874 N869 0.984 . S
H875 N869 0.985 . S
H876 N873 0.984 . S
H877 N873 0.985 . S
H878 N872 0.984 . S
H879 N872 0.984 . S
H880 N868 0.984 . S
H881 N868 0.985 . S
C882 C883 1.363 . S
C882 C888 1.379 . S
C882 N890 1.356 . S
C883 C882 1.363 . S
C883 C889 1.363 . S
C884 C885 1.363 . S
C884 C889 1.379 . S
C884 N891 1.356 . S
C885 C884 1.363 . S
C885 C888 1.363 . S
N886 C888 1.356 . S
N886 H898 0.984 . S
N886 H899 0.985 . S
N887 C889 1.356 . S
N887 H892 0.984 . S
N887 H893 0.985 . S
C888 C882 1.379 . S
C888 C885 1.363 . S
C888 N886 1.356 . S
C889 C883 1.363 . S
C889 C884 1.379 . S
C889 N887 1.356 . S
N890 C882 1.356 . S
N890 H896 0.984 . S
N890 H897 0.984 . S
N891 C884 1.356 . S
N891 H894 0.984 . S
N891 H895 0.985 . S
H892 N887 0.984 . S
H893 N887 0.985 . S
H894 N891 0.984 . S
H895 N891 0.985 . S
H896 N890 0.984 . S
H897 N890 0.984 . S
H898 N886 0.984 . S
H899 N886 0.985 . S
C900 C901 1.363 . S
C900 C906 1.379 . S
C900 N908 1.356 . S
C901 C900 1.363 . S
C901 C907 1.363 . S
C902 C903 1.363 . S
C902 C907 1.379 . S
C902 N909 1.356 . S
C903 C902 1.363 . S
C903 C906 1.363 . S
N904 C906 1.356 . S
N904 H916 0.984 . S
N904 H917 0.985 . S
N905 C907 1.356 . S
N905 H910 0.984 . S
N905 H911 0.985 . S
C906 C900 1.379 . S
C906 C903 1.363 . S
C906 N904 1.356 . S
C907 C901 1.363 . S
C907 C902 1.379 . S
C907 N905 1.356 . S
N908 C900 1.356 . S
N908 H914 0.984 . S
N908 H915 0.984 . S
N909 C902 1.356 . S
N909 H912 0.984 . S
N909 H913 0.985 . S
H910 N905 0.984 . S
H911 N905 0.985 . S
H912 N909 0.984 . S
H913 N909 0.985 . S
H914 N908 0.984 . S
H915 N908 0.984 . S
H916 N904 0.984 . S
H917 N904 0.985 . S
C918 C919 1.363 . S
C918 C924 1.379 . S
C918 N926 1.356 . S
C919 C918 1.363 . S
C919 C925 1.363 . S
C920 C921 1.363 . S
C920 C925 1.379 . S
C920 N927 1.356 . S
C921 C920 1.363 . S
C921 C924 1.363 . S
N922 C924 1.356 . S
N922 H934 0.984 . S
N922 H935 0.985 . S
N923 C925 1.356 . S
N923 H928 0.984 . S
N923 H929 0.985 . S
C924 C918 1.379 . S
C924 C921 1.363 . S
C924 N922 1.356 . S
C925 C919 1.363 . S
C925 C920 1.379 . S
C925 N923 1.356 . S
N926 C918 1.356 . S
N926 H932 0.984 . S
N926 H933 0.984 . S
N927 C920 1.356 . S
N927 H930 0.984 . S
N927 H931 0.985 . S
H928 N923 0.984 . S
H929 N923 0.985 . S
H930 N927 0.984 . S
H931 N927 0.985 . S
H932 N926 0.984 . S
H933 N926 0.984 . S
H934 N922 0.984 . S
H935 N922 0.985 . S
C936 C937 1.363 . S
C936 C942 1.379 . S
C936 N944 1.356 . S
C937 C936 1.363 . S
C937 C943 1.363 . S
C938 C939 1.363 . S
C938 C943 1.379 . S
C938 N945 1.356 . S
C939 C938 1.363 . S
C939 C942 1.363 . S
N940 C942 1.356 . S
N940 H952 0.984 . S
N940 H953 0.985 . S
N941 C943 1.356 . S
N941 H946 0.984 . S
N941 H947 0.985 . S
C942 C936 1.379 . S
C942 C939 1.363 . S
C942 N940 1.356 . S
C943 C937 1.363 . S
C943 C938 1.379 . S
C943 N941 1.356 . S
N944 C936 1.356 . S
N944 H950 0.984 . S
N944 H951 0.984 . S
N945 C938 1.356 . S
N945 H948 0.984 . S
N945 H949 0.985 . S
H946 N941 0.984 . S
H947 N941 0.985 . S
H948 N945 0.984 . S
H949 N945 0.985 . S
H950 N944 0.984 . S
H951 N944 0.984 . S
H952 N940 0.984 . S
H953 N940 0.985 . S
C954 C955 1.363 . S
C954 C960 1.379 . S
C954 N962 1.356 . S
C955 C954 1.363 . S
C955 C961 1.363 . S
C956 C957 1.363 . S
C956 C961 1.379 . S
C956 N963 1.356 . S
C957 C956 1.363 . S
C957 C960 1.363 . S
N958 C960 1.356 . S
N958 H970 0.984 . S
N958 H971 0.985 . S
N959 C961 1.356 . S
N959 H964 0.984 . S
N959 H965 0.985 . S
C960 C954 1.379 . S
C960 C957 1.363 . S
C960 N958 1.356 . S
C961 C955 1.363 . S
C961 C956 1.379 . S
C961 N959 1.356 . S
N962 C954 1.356 . S
N962 H968 0.984 . S
N962 H969 0.984 . S
N963 C956 1.356 . S
N963 H966 0.984 . S
N963 H967 0.985 . S
H964 N959 0.984 . S
H965 N959 0.985 . S
H966 N963 0.984 . S
H967 N963 0.985 . S
H968 N962 0.984 . S
H969 N962 0.984 . S
H970 N958 0.984 . S
H971 N958 0.985 . S
C972 C973 1.363 . S
C972 C978 1.379 . S
C972 N980 1.356 . S
C973 C972 1.363 . S
C973 C979 1.363 . S
C974 C975 1.363 . S
C974 C979 1.379 . S
C974 N981 1.356 . S
C975 C974 1.363 . S
C975 C978 1.363 . S
N976 C978 1.356 . S
N976 H988 0.984 . S
N976 H989 0.985 . S
N977 C979 1.356 . S
N977 H982 0.984 . S
N977 H983 0.985 . S
C978 C972 1.379 . S
C978 C975 1.363 . S
C978 N976 1.356 . S
C979 C973 1.363 . S
C979 C974 1.379 . S
C979 N977 1.356 . S
N980 C972 1.356 . S
N980 H986 0.984 . S
N980 H987 0.984 . S
N981 C974 1.356 . S
N981 H984 0.984 . S
N981 H985 0.985 . S
H982 N977 0.984 . S
H983 N977 0.985 . S
H984 N981 0.984 . S
H985 N981 0.985 . S
H986 N980 0.984 . S
H987 N980 0.984 . S
H988 N976 0.984 . S
H989 N976 0.985 . S
C990 C991 1.363 . S
C990 C996 1.379 . S
C990 N998 1.356 . S
C991 C990 1.363 . S
C991 C997 1.363 . S
C992 C993 1.363 . S
C992 C997 1.379 . S
C992 N999 1.356 . S
C993 C992 1.363 . S
C993 C996 1.363 . S
N994 C996 1.356 . S
N994 H1006 0.984 . S
N994 H1007 0.985 . S
N995 C997 1.356 . S
N995 H1000 0.984 . S
N995 H1001 0.985 . S
C996 C990 1.379 . S
C996 C993 1.363 . S
C996 N994 1.356 . S
C997 C991 1.363 . S
C997 C992 1.379 . S
C997 N995 1.356 . S
N998 C990 1.356 . S
N998 H1004 0.984 . S
N998 H1005 0.984 . S
N999 C992 1.356 . S
N999 H1002 0.984 . S
N999 H1003 0.985 . S
H1000 N995 0.984 . S
H1001 N995 0.985 . S
H1002 N999 0.984 . S
H1003 N999 0.985 . S
H1004 N998 0.984 . S
H1005 N998 0.984 . S
H1006 N994 0.984 . S
H1007 N994 0.985 . S
C1008 C1009 1.363 . S
C1008 C1014 1.379 . S
C1008 N1016 1.356 . S
C1009 C1008 1.363 . S
C1009 C1015 1.363 . S
C1010 C1011 1.363 . S
C1010 C1015 1.379 . S
C1010 N1017 1.356 . S
C1011 C1010 1.363 . S
C1011 C1014 1.363 . S
N1012 C1014 1.356 . S
N1012 H1024 0.984 . S
N1012 H1025 0.985 . S
N1013 C1015 1.356 . S
N1013 H1018 0.984 . S
N1013 H1019 0.985 . S
C1014 C1008 1.379 . S
C1014 C1011 1.363 . S
C1014 N1012 1.356 . S
C1015 C1009 1.363 . S
C1015 C1010 1.379 . S
C1015 N1013 1.356 . S
N1016 C1008 1.356 . S
N1016 H1022 0.984 . S
N1016 H1023 0.984 . S
N1017 C1010 1.356 . S
N1017 H1020 0.984 . S
N1017 H1021 0.985 . S
H1018 N1013 0.984 . S
H1019 N1013 0.985 . S
H1020 N1017 0.984 . S
H1021 N1017 0.985 . S
H1022 N1016 0.984 . S
H1023 N1016 0.984 . S
H1024 N1012 0.984 . S
H1025 N1012 0.985 . S
C1026 C1027 1.363 . S
C1026 C1032 1.379 . S
C1026 N1034 1.356 . S
C1027 C1026 1.363 . S
C1027 C1033 1.363 . S
C1028 C1029 1.363 . S
C1028 C1033 1.379 . S
C1028 N1035 1.356 . S
C1029 C1028 1.363 . S
C1029 C1032 1.363 . S
N1030 C1032 1.356 . S
N1030 H1042 0.984 . S
N1030 H1043 0.985 . S
N1031 C1033 1.356 . S
N1031 H1036 0.984 . S
N1031 H1037 0.985 . S
C1032 C1026 1.379 . S
C1032 C1029 1.363 . S
C1032 N1030 1.356 . S
C1033 C1027 1.363 . S
C1033 C1028 1.379 . S
C1033 N1031 1.356 . S
N1034 C1026 1.356 . S
N1034 H1040 0.984 . S
N1034 H1041 0.984 . S
N1035 C1028 1.356 . S
N1035 H1038 0.984 . S
N1035 H1039 0.985 . S
H1036 N1031 0.984 . S
H1037 N1031 0.985 . S
H1038 N1035 0.984 . S
H1039 N1035 0.985 . S
H1040 N1034 0.984 . S
H1041 N1034 0.984 . S
H1042 N1030 0.984 . S
H1043 N1030 0.985 . S
C1044 C1045 1.363 . S
C1044 C1050 1.379 . S
C1044 N1052 1.356 . S
C1045 C1044 1.363 . S
C1045 C1051 1.363 . S
C1046 C1047 1.363 . S
C1046 C1051 1.379 . S
C1046 N1053 1.356 . S
C1047 C1046 1.363 . S
C1047 C1050 1.363 . S
N1048 C1050 1.356 . S
N1048 H1060 0.984 . S
N1048 H1061 0.985 . S
N1049 C1051 1.356 . S
N1049 H1054 0.984 . S
N1049 H1055 0.985 . S
C1050 C1044 1.379 . S
C1050 C1047 1.363 . S
C1050 N1048 1.356 . S
C1051 C1045 1.363 . S
C1051 C1046 1.379 . S
C1051 N1049 1.356 . S
N1052 C1044 1.356 . S
N1052 H1058 0.984 . S
N1052 H1059 0.984 . S
N1053 C1046 1.356 . S
N1053 H1056 0.984 . S
N1053 H1057 0.985 . S
H1054 N1049 0.984 . S
H1055 N1049 0.985 . S
H1056 N1053 0.984 . S
H1057 N1053 0.985 . S
H1058 N1052 0.984 . S
H1059 N1052 0.984 . S
H1060 N1048 0.984 . S
H1061 N1048 0.985 . S
C1062 C1063 1.363 . S
C1062 C1068 1.379 . S
C1062 N1070 1.356 . S
C1063 C1062 1.363 . S
C1063 C1069 1.363 . S
C1064 C1065 1.363 . S
C1064 C1069 1.379 . S
C1064 N1071 1.356 . S
C1065 C1064 1.363 . S
C1065 C1068 1.363 . S
N1066 C1068 1.356 . S
N1066 H1078 0.984 . S
N1066 H1079 0.985 . S
N1067 C1069 1.356 . S
N1067 H1072 0.984 . S
N1067 H1073 0.985 . S
C1068 C1062 1.379 . S
C1068 C1065 1.363 . S
C1068 N1066 1.356 . S
C1069 C1063 1.363 . S
C1069 C1064 1.379 . S
C1069 N1067 1.356 . S
N1070 C1062 1.356 . S
N1070 H1076 0.984 . S
N1070 H1077 0.984 . S
N1071 C1064 1.356 . S
N1071 H1074 0.984 . S
N1071 H1075 0.985 . S
H1072 N1067 0.984 . S
H1073 N1067 0.985 . S
H1074 N1071 0.984 . S
H1075 N1071 0.985 . S
H1076 N1070 0.984 . S
H1077 N1070 0.984 . S
H1078 N1066 0.984 . S
H1079 N1066 0.985 . S
C1080 C1081 1.363 . S
C1080 C1086 1.379 . S
C1080 N1088 1.356 . S
C1081 C1080 1.363 . S
C1081 C1087 1.363 . S
C1082 C1083 1.363 . S
C1082 C1087 1.379 . S
C1082 N1089 1.356 . S
C1083 C1082 1.363 . S
C1083 C1086 1.363 . S
N1084 C1086 1.356 . S
N1084 H1096 0.984 . S
N1084 H1097 0.985 . S
N1085 C1087 1.356 . S
N1085 H1090 0.984 . S
N1085 H1091 0.985 . S
C1086 C1080 1.379 . S
C1086 C1083 1.363 . S
C1086 N1084 1.356 . S
C1087 C1081 1.363 . S
C1087 C1082 1.379 . S
C1087 N1085 1.356 . S
N1088 C1080 1.356 . S
N1088 H1094 0.984 . S
N1088 H1095 0.984 . S
N1089 C1082 1.356 . S
N1089 H1092 0.984 . S
N1089 H1093 0.985 . S
H1090 N1085 0.984 . S
H1091 N1085 0.985 . S
H1092 N1089 0.984 . S
H1093 N1089 0.985 . S
H1094 N1088 0.984 . S
H1095 N1088 0.984 . S
H1096 N1084 0.984 . S
H1097 N1084 0.985 . S
C1098 C1099 1.363 . S
C1098 C1104 1.379 . S
C1098 N1106 1.356 . S
C1099 C1098 1.363 . S
C1099 C1105 1.363 . S
C1100 C1101 1.363 . S
C1100 C1105 1.379 . S
C1100 N1107 1.356 . S
C1101 C1100 1.363 . S
C1101 C1104 1.363 . S
N1102 C1104 1.356 . S
N1102 H1114 0.984 . S
N1102 H1115 0.985 . S
N1103 C1105 1.356 . S
N1103 H1108 0.984 . S
N1103 H1109 0.985 . S
C1104 C1098 1.379 . S
C1104 C1101 1.363 . S
C1104 N1102 1.356 . S
C1105 C1099 1.363 . S
C1105 C1100 1.379 . S
C1105 N1103 1.356 . S
N1106 C1098 1.356 . S
N1106 H1112 0.984 . S
N1106 H1113 0.984 . S
N1107 C1100 1.356 . S
N1107 H1110 0.984 . S
N1107 H1111 0.985 . S
H1108 N1103 0.984 . S
H1109 N1103 0.985 . S
H1110 N1107 0.984 . S
H1111 N1107 0.985 . S
H1112 N1106 0.984 . S
H1113 N1106 0.984 . S
H1114 N1102 0.984 . S
H1115 N1102 0.985 . S
C1116 C1117 1.363 . S
C1116 C1122 1.379 . S
C1116 N1124 1.356 . S
C1117 C1116 1.363 . S
C1117 C1123 1.363 . S
C1118 C1119 1.363 . S
C1118 C1123 1.379 . S
C1118 N1125 1.356 . S
C1119 C1118 1.363 . S
C1119 C1122 1.363 . S
N1120 C1122 1.356 . S
N1120 H1132 0.984 . S
N1120 H1133 0.985 . S
N1121 C1123 1.356 . S
N1121 H1126 0.984 . S
N1121 H1127 0.985 . S
C1122 C1116 1.379 . S
C1122 C1119 1.363 . S
C1122 N1120 1.356 . S
C1123 C1117 1.363 . S
C1123 C1118 1.379 . S
C1123 N1121 1.356 . S
N1124 C1116 1.356 . S
N1124 H1130 0.984 . S
N1124 H1131 0.984 . S
N1125 C1118 1.356 . S
N1125 H1128 0.984 . S
N1125 H1129 0.985 . S
H1126 N1121 0.984 . S
H1127 N1121 0.985 . S
H1128 N1125 0.984 . S
H1129 N1125 0.985 . S
H1130 N1124 0.984 . S
H1131 N1124 0.984 . S
H1132 N1120 0.984 . S
H1133 N1120 0.985 . S
C1134 C1135 1.363 . S
C1134 C1140 1.379 . S
C1134 N1142 1.356 . S
C1135 C1134 1.363 . S
C1135 C1141 1.363 . S
C1136 C1137 1.363 . S
C1136 C1141 1.379 . S
C1136 N1143 1.356 . S
C1137 C1136 1.363 . S
C1137 C1140 1.363 . S
N1138 C1140 1.356 . S
N1138 H1150 0.984 . S
N1138 H1151 0.985 . S
N1139 C1141 1.356 . S
N1139 H1144 0.984 . S
N1139 H1145 0.985 . S
C1140 C1134 1.379 . S
C1140 C1137 1.363 . S
C1140 N1138 1.356 . S
C1141 C1135 1.363 . S
C1141 C1136 1.379 . S
C1141 N1139 1.356 . S
N1142 C1134 1.356 . S
N1142 H1148 0.984 . S
N1142 H1149 0.984 . S
N1143 C1136 1.356 . S
N1143 H1146 0.984 . S
N1143 H1147 0.985 . S
H1144 N1139 0.984 . S
H1145 N1139 0.985 . S
H1146 N1143 0.984 . S
H1147 N1143 0.985 . S
H1148 N1142 0.984 . S
H1149 N1142 0.984 . S
H1150 N1138 0.984 . S
H1151 N1138 0.985 . S
C1152 C1153 1.363 . S
C1152 C1158 1.379 1_455 S
C1152 N1160 1.356 . S
C1153 C1152 1.363 . S
C1153 C1159 1.363 . S
C1154 C1155 1.363 . S
C1154 C1159 1.379 1_655 S
C1154 N1161 1.356 . S
C1155 C1154 1.363 . S
C1155 C1158 1.363 . S
N1156 C1158 1.356 . S
N1156 H1168 0.984 . S
N1156 H1169 0.985 . S
N1157 C1159 1.356 . S
N1157 H1162 0.984 . S
N1157 H1163 0.985 . S
C1158 C1152 1.379 1_655 S
C1158 C1155 1.363 . S
C1158 N1156 1.356 . S
C1159 C1153 1.363 . S
C1159 C1154 1.379 1_455 S
C1159 N1157 1.356 . S
N1160 C1152 1.356 . S
N1160 H1166 0.984 . S
N1160 H1167 0.984 . S
N1161 C1154 1.356 . S
N1161 H1164 0.984 . S
N1161 H1165 0.985 . S
H1162 N1157 0.984 . S
H1163 N1157 0.985 . S
H1164 N1161 0.984 . S
H1165 N1161 0.985 . S
H1166 N1160 0.984 . S
H1167 N1160 0.984 . S
H1168 N1156 0.984 . S
H1169 N1156 0.985 . S
C1170 C1171 1.363 . S
C1170 C1176 1.379 . S
C1170 N1178 1.356 . S
C1171 C1170 1.363 . S
C1171 C1177 1.363 . S
C1172 C1173 1.363 . S
C1172 C1177 1.379 . S
C1172 N1179 1.356 . S
C1173 C1172 1.363 . S
C1173 C1176 1.363 . S
N1174 C1176 1.356 . S
N1174 H1186 0.984 . S
N1174 H1187 0.985 . S
N1175 C1177 1.356 . S
N1175 H1180 0.984 . S
N1175 H1181 0.985 . S
C1176 C1170 1.379 . S
C1176 C1173 1.363 . S
C1176 N1174 1.356 . S
C1177 C1171 1.363 . S
C1177 C1172 1.379 . S
C1177 N1175 1.356 . S
N1178 C1170 1.356 . S
N1178 H1184 0.984 . S
N1178 H1185 0.984 . S
N1179 C1172 1.356 . S
N1179 H1182 0.984 . S
N1179 H1183 0.985 . S
H1180 N1175 0.984 . S
H1181 N1175 0.985 . S
H1182 N1179 0.984 . S
H1183 N1179 0.985 . S
H1184 N1178 0.984 . S
H1185 N1178 0.984 . S
H1186 N1174 0.984 . S
H1187 N1174 0.985 . S
C1188 C1189 1.363 . S
C1188 C1194 1.379 1_545 S
C1188 N1196 1.356 . S
C1189 C1188 1.363 . S
C1189 C1195 1.363 . S
C1190 C1191 1.363 . S
C1190 C1195 1.379 1_565 S
C1190 N1197 1.356 . S
C1191 C1190 1.363 . S
C1191 C1194 1.363 . S
N1192 C1194 1.356 . S
N1192 H1204 0.984 . S
N1192 H1205 0.985 . S
N1193 C1195 1.356 . S
N1193 H1198 0.984 . S
N1193 H1199 0.985 . S
C1194 C1188 1.379 1_565 S
C1194 C1191 1.363 . S
C1194 N1192 1.356 . S
C1195 C1189 1.363 . S
C1195 C1190 1.379 1_545 S
C1195 N1193 1.356 . S
N1196 C1188 1.356 . S
N1196 H1202 0.976 1_545 S
N1196 H1203 0.984 . S
N1197 C1190 1.356 . S
N1197 H1200 0.984 . S
N1197 H1201 0.979 1_565 S
H1198 N1193 0.984 . S
H1199 N1193 0.985 . S
H1200 N1197 0.984 . S
H1201 N1197 0.979 1_545 S
H1202 N1196 0.976 1_565 S
H1203 N1196 0.984 . S
H1204 N1192 0.984 . S
H1205 N1192 0.985 . S
C721 C21 1.527 . S
C723 C221 1.526 . S
C739 C61 1.476 . S
C741 C122 1.471 . S
C757 C82 1.467 . S
C759 C181 1.477 . S
C775 C42 1.470 . S
C777 C162 1.472 . S
C793 C202 1.532 . S
C795 C101 1.511 . S
C811 C2 1.539 1_554 S
C813 C141 1.515 1_554 S
C829 C461 1.528 . S
C831 C261 1.529 . S
C847 C301 1.475 . S
C849 C362 1.472 . S
C865 C322 1.468 . S
C867 C421 1.478 . S
C883 C282 1.470 . S
C885 C402 1.473 . S
C901 C341 1.512 . S
C903 C442 1.534 . S
C919 C242 1.538 . S
C921 C381 1.515 . S
C937 C501 1.526 . S
C939 C701 1.526 . S
C955 C602 1.471 . S
C957 C541 1.475 . S
C973 C661 1.479 . S
C975 C562 1.468 . S
C991 C642 1.473 . S
C993 C522 1.470 . S
C1009 C682 1.533 . S
C1011 C581 1.512 . S
C1027 C621 1.514 . S
C1029 C482 1.538 . S
C1045 C15 1.505 . S
C1047 C415 1.505 . S
C1063 C455 1.506 . S
C1065 C55 1.505 . S
C1081 C375 1.528 . S
C1083 C95 1.528 . S
C1099 C135 1.531 . S
C1101 C575 1.531 . S
C1117 C175 1.504 . S
C1119 C495 1.504 . S
C1135 C535 1.504 . S
C1137 C215 1.505 . S
C1153 C655 1.506 . S
C1155 C255 1.506 . S
C1171 C295 1.505 . S
C1173 C695 1.506 . S
C1189 C335 1.529 . S
C1191 C615 1.529 . S
