# Generated by pormake.
# Topology yfq, (5)-cn, num edge types: 1
# Building blocks:
#     Node 0, Type 0, BuildingBlock: XOMCOT_clean_sbu_1, # of connection points: 5
#     Node 1, Type 0, BuildingBlock: XOMCOT_clean_sbu_1, # of connection points: 5
#     Node 2, Type 0, BuildingBlock: XOMCOT_clean_sbu_1, # of connection points: 5
#     Node 3, Type 0, BuildingBlock: XOMCOT_clean_sbu_1, # of connection points: 5
#     Node 4, Type 0, BuildingBlock: XOMCOT_clean_sbu_1, # of connection points: 5
#     Node 5, Type 0, BuildingBlock: XOMCOT_clean_sbu_1, # of connection points: 5
#     Node 6, Type 0, BuildingBlock: XOMCOT_clean_sbu_1, # of connection points: 5
#     Node 7, Type 0, BuildingBlock: XOMCOT_clean_sbu_1, # of connection points: 5
#     Node 8, Type 0, BuildingBlock: XOMCOT_clean_sbu_1, # of connection points: 5
#     Node 9, Type 0, BuildingBlock: XOMCOT_clean_sbu_1, # of connection points: 5
#     Node 10, Type 0, BuildingBlock: XOMCOT_clean_sbu_1, # of connection points: 5
#     Node 11, Type 0, BuildingBlock: XOMCOT_clean_sbu_1, # of connection points: 5
#     Node 12, Type 0, BuildingBlock: XOMCOT_clean_sbu_1, # of connection points: 5
#     Node 13, Type 0, BuildingBlock: XOMCOT_clean_sbu_1, # of connection points: 5
#     Node 14, Type 0, BuildingBlock: XOMCOT_clean_sbu_1, # of connection points: 5
#     Node 15, Type 0, BuildingBlock: XOMCOT_clean_sbu_1, # of connection points: 5
#     Node 16, Type 0, BuildingBlock: XOMCOT_clean_sbu_1, # of connection points: 5
#     Node 17, Type 0, BuildingBlock: XOMCOT_clean_sbu_1, # of connection points: 5
#     Node 18, Type 0, BuildingBlock: XOMCOT_clean_sbu_1, # of connection points: 5
#     Node 19, Type 0, BuildingBlock: XOMCOT_clean_sbu_1, # of connection points: 5
#     Node 20, Type 0, BuildingBlock: XOMCOT_clean_sbu_1, # of connection points: 5
#     Node 21, Type 0, BuildingBlock: XOMCOT_clean_sbu_1, # of connection points: 5
#     Node 22, Type 0, BuildingBlock: XOMCOT_clean_sbu_1, # of connection points: 5
#     Node 23, Type 0, BuildingBlock: XOMCOT_clean_sbu_1, # of connection points: 5
#     Node 24, Type 0, BuildingBlock: XOMCOT_clean_sbu_1, # of connection points: 5
#     Node 25, Type 0, BuildingBlock: XOMCOT_clean_sbu_1, # of connection points: 5
#     Node 26, Type 0, BuildingBlock: XOMCOT_clean_sbu_1, # of connection points: 5
#     Node 27, Type 0, BuildingBlock: XOMCOT_clean_sbu_1, # of connection points: 5
#     Node 28, Type 0, BuildingBlock: XOMCOT_clean_sbu_1, # of connection points: 5
#     Node 29, Type 0, BuildingBlock: XOMCOT_clean_sbu_1, # of connection points: 5
#     Node 30, Type 0, BuildingBlock: XOMCOT_clean_sbu_1, # of connection points: 5
#     Node 31, Type 0, BuildingBlock: XOMCOT_clean_sbu_1, # of connection points: 5
#     Edge 32, Type (0, 0), BuildingBlock: AJUNOK_clean_linker_0, # of connection points: 2
#     Edge 33, Type (0, 0), BuildingBlock: AJUNOK_clean_linker_0, # of connection points: 2
#     Edge 34, Type (0, 0), BuildingBlock: AJUNOK_clean_linker_0, # of connection points: 2
#     Edge 35, Type (0, 0), BuildingBlock: AJUNOK_clean_linker_0, # of connection points: 2
#     Edge 36, Type (0, 0), BuildingBlock: AJUNOK_clean_linker_0, # of connection points: 2
#     Edge 37, Type (0, 0), BuildingBlock: AJUNOK_clean_linker_0, # of connection points: 2
#     Edge 38, Type (0, 0), BuildingBlock: AJUNOK_clean_linker_0, # of connection points: 2
#     Edge 39, Type (0, 0), BuildingBlock: AJUNOK_clean_linker_0, # of connection points: 2
#     Edge 40, Type (0, 0), BuildingBlock: AJUNOK_clean_linker_0, # of connection points: 2
#     Edge 41, Type (0, 0), BuildingBlock: AJUNOK_clean_linker_0, # of connection points: 2
#     Edge 42, Type (0, 0), BuildingBlock: AJUNOK_clean_linker_0, # of connection points: 2
#     Edge 43, Type (0, 0), BuildingBlock: AJUNOK_clean_linker_0, # of connection points: 2
#     Edge 44, Type (0, 0), BuildingBlock: AJUNOK_clean_linker_0, # of connection points: 2
#     Edge 45, Type (0, 0), BuildingBlock: AJUNOK_clean_linker_0, # of connection points: 2
#     Edge 46, Type (0, 0), BuildingBlock: AJUNOK_clean_linker_0, # of connection points: 2
#     Edge 47, Type (0, 0), BuildingBlock: AJUNOK_clean_linker_0, # of connection points: 2
#     Edge 48, Type (0, 0), BuildingBlock: AJUNOK_clean_linker_0, # of connection points: 2
#     Edge 49, Type (0, 0), BuildingBlock: AJUNOK_clean_linker_0, # of connection points: 2
#     Edge 50, Type (0, 0), BuildingBlock: AJUNOK_clean_linker_0, # of connection points: 2
#     Edge 51, Type (0, 0), BuildingBlock: AJUNOK_clean_linker_0, # of connection points: 2
#     Edge 52, Type (0, 0), BuildingBlock: AJUNOK_clean_linker_0, # of connection points: 2
#     Edge 53, Type (0, 0), BuildingBlock: AJUNOK_clean_linker_0, # of connection points: 2
#     Edge 54, Type (0, 0), BuildingBlock: AJUNOK_clean_linker_0, # of connection points: 2
#     Edge 55, Type (0, 0), BuildingBlock: AJUNOK_clean_linker_0, # of connection points: 2
#     Edge 56, Type (0, 0), BuildingBlock: AJUNOK_clean_linker_0, # of connection points: 2
#     Edge 57, Type (0, 0), BuildingBlock: AJUNOK_clean_linker_0, # of connection points: 2
#     Edge 58, Type (0, 0), BuildingBlock: AJUNOK_clean_linker_0, # of connection points: 2
#     Edge 59, Type (0, 0), BuildingBlock: AJUNOK_clean_linker_0, # of connection points: 2
#     Edge 60, Type (0, 0), BuildingBlock: AJUNOK_clean_linker_0, # of connection points: 2
#     Edge 61, Type (0, 0), BuildingBlock: AJUNOK_clean_linker_0, # of connection points: 2
#     Edge 62, Type (0, 0), BuildingBlock: AJUNOK_clean_linker_0, # of connection points: 2
#     Edge 63, Type (0, 0), BuildingBlock: AJUNOK_clean_linker_0, # of connection points: 2
#     Edge 64, Type (0, 0), BuildingBlock: AJUNOK_clean_linker_0, # of connection points: 2
#     Edge 65, Type (0, 0), BuildingBlock: AJUNOK_clean_linker_0, # of connection points: 2
#     Edge 66, Type (0, 0), BuildingBlock: AJUNOK_clean_linker_0, # of connection points: 2
#     Edge 67, Type (0, 0), BuildingBlock: AJUNOK_clean_linker_0, # of connection points: 2
#     Edge 68, Type (0, 0), BuildingBlock: AJUNOK_clean_linker_0, # of connection points: 2
#     Edge 69, Type (0, 0), BuildingBlock: AJUNOK_clean_linker_0, # of connection points: 2
#     Edge 70, Type (0, 0), BuildingBlock: AJUNOK_clean_linker_0, # of connection points: 2
#     Edge 71, Type (0, 0), BuildingBlock: AJUNOK_clean_linker_0, # of connection points: 2
#     Edge 72, Type (0, 0), BuildingBlock: AJUNOK_clean_linker_0, # of connection points: 2
#     Edge 73, Type (0, 0), BuildingBlock: AJUNOK_clean_linker_0, # of connection points: 2
#     Edge 74, Type (0, 0), BuildingBlock: AJUNOK_clean_linker_0, # of connection points: 2
#     Edge 75, Type (0, 0), BuildingBlock: AJUNOK_clean_linker_0, # of connection points: 2
#     Edge 76, Type (0, 0), BuildingBlock: AJUNOK_clean_linker_0, # of connection points: 2
#     Edge 77, Type (0, 0), BuildingBlock: AJUNOK_clean_linker_0, # of connection points: 2
#     Edge 78, Type (0, 0), BuildingBlock: AJUNOK_clean_linker_0, # of connection points: 2
#     Edge 79, Type (0, 0), BuildingBlock: AJUNOK_clean_linker_0, # of connection points: 2
#     Edge 80, Type (0, 0), BuildingBlock: AJUNOK_clean_linker_0, # of connection points: 2
#     Edge 81, Type (0, 0), BuildingBlock: AJUNOK_clean_linker_0, # of connection points: 2
#     Edge 82, Type (0, 0), BuildingBlock: AJUNOK_clean_linker_0, # of connection points: 2
#     Edge 83, Type (0, 0), BuildingBlock: AJUNOK_clean_linker_0, # of connection points: 2
#     Edge 84, Type (0, 0), BuildingBlock: AJUNOK_clean_linker_0, # of connection points: 2
#     Edge 85, Type (0, 0), BuildingBlock: AJUNOK_clean_linker_0, # of connection points: 2
#     Edge 86, Type (0, 0), BuildingBlock: AJUNOK_clean_linker_0, # of connection points: 2
#     Edge 87, Type (0, 0), BuildingBlock: AJUNOK_clean_linker_0, # of connection points: 2
#     Edge 88, Type (0, 0), BuildingBlock: AJUNOK_clean_linker_0, # of connection points: 2
#     Edge 89, Type (0, 0), BuildingBlock: AJUNOK_clean_linker_0, # of connection points: 2
#     Edge 90, Type (0, 0), BuildingBlock: AJUNOK_clean_linker_0, # of connection points: 2
#     Edge 91, Type (0, 0), BuildingBlock: AJUNOK_clean_linker_0, # of connection points: 2
#     Edge 92, Type (0, 0), BuildingBlock: AJUNOK_clean_linker_0, # of connection points: 2
#     Edge 93, Type (0, 0), BuildingBlock: AJUNOK_clean_linker_0, # of connection points: 2
#     Edge 94, Type (0, 0), BuildingBlock: AJUNOK_clean_linker_0, # of connection points: 2
#     Edge 95, Type (0, 0), BuildingBlock: AJUNOK_clean_linker_0, # of connection points: 2
#     Edge 96, Type (0, 0), BuildingBlock: AJUNOK_clean_linker_0, # of connection points: 2
#     Edge 97, Type (0, 0), BuildingBlock: AJUNOK_clean_linker_0, # of connection points: 2
#     Edge 98, Type (0, 0), BuildingBlock: AJUNOK_clean_linker_0, # of connection points: 2
#     Edge 99, Type (0, 0), BuildingBlock: AJUNOK_clean_linker_0, # of connection points: 2
#     Edge 100, Type (0, 0), BuildingBlock: AJUNOK_clean_linker_0, # of connection points: 2
#     Edge 101, Type (0, 0), BuildingBlock: AJUNOK_clean_linker_0, # of connection points: 2
#     Edge 102, Type (0, 0), BuildingBlock: AJUNOK_clean_linker_0, # of connection points: 2
#     Edge 103, Type (0, 0), BuildingBlock: AJUNOK_clean_linker_0, # of connection points: 2
#     Edge 104, Type (0, 0), BuildingBlock: AJUNOK_clean_linker_0, # of connection points: 2
#     Edge 105, Type (0, 0), BuildingBlock: AJUNOK_clean_linker_0, # of connection points: 2
#     Edge 106, Type (0, 0), BuildingBlock: AJUNOK_clean_linker_0, # of connection points: 2
#     Edge 107, Type (0, 0), BuildingBlock: AJUNOK_clean_linker_0, # of connection points: 2
#     Edge 108, Type (0, 0), BuildingBlock: AJUNOK_clean_linker_0, # of connection points: 2
#     Edge 109, Type (0, 0), BuildingBlock: AJUNOK_clean_linker_0, # of connection points: 2
#     Edge 110, Type (0, 0), BuildingBlock: AJUNOK_clean_linker_0, # of connection points: 2
#     Edge 111, Type (0, 0), BuildingBlock: AJUNOK_clean_linker_0, # of connection points: 2
# Relax obj value: 0.555
# Max RMSD: 0.297
# Mean RMSD: 0.297
data_MOF--net-yfq--node1-XOMCOT_clean_sbu_1--edge1-AJUNOK_clean_linker_0
_symmetry_space_group_name_H-M    P1
_symmetry_Int_Tables_number       1
_symmetry_cell_setting            triclinic
loop_
_symmetry_equiv_pos_as_xyz
'x, y, z'
_cell_length_a     39.515798
_cell_length_b     39.46084
_cell_length_c     46.86813
_cell_angle_alpha  90.043852
_cell_angle_beta   89.945326
_cell_angle_gamma 89.891666
loop_
_atom_site_label
_atom_site_type_symbol
_atom_site_fract_x
_atom_site_fract_y
_atom_site_fract_z
_atom_type_partial_charge
C0 C 0.16718 0.231 0.30927 0.0
C1 C 0.17328 0.25678 0.32809 0.0
N2 N 0.15202 0.28261 0.32228 0.0
N3 N 0.14203 0.24006 0.2915 0.0
C4 C 0.13319 0.27179 0.29982 0.0
H5 H 0.18014 0.20685 0.30861 0.0
Co6 Co 0.12891 0.21001 0.26279 0.0
C7 C 0.05723 0.22366 0.25001 0.0
O8 O 0.05323 0.19083 0.25249 0.0
N9 N 0.11704 0.17859 0.23268 0.0
C10 C 0.09775 0.13483 0.20698 0.0
C11 C 0.10326 0.14712 0.23399 0.0
C12 C 0.1201 0.18421 0.20416 0.0
N13 N 0.10862 0.15802 0.18827 0.0
O14 O 0.15662 0.23506 0.23753 0.0
H15 H 0.09561 0.13403 0.25307 0.0
H16 H 0.1298 0.20741 0.19502 0.0
O17 O 0.08688 0.2367 0.25363 0.0
C18 C 0.18541 0.22034 0.23921 0.0
O19 O 0.18609 0.18887 0.24838 0.0
N20 N 0.10683 0.1851 0.29059 0.0
C21 C 0.08536 0.14965 0.3379 0.0
C22 C 0.0714 0.18132 0.33176 0.0
C23 C 0.08306 0.19909 0.30824 0.0
C24 C 0.12286 0.15577 0.29805 0.0
C25 C 0.11164 0.13682 0.32121 0.0
H26 H 0.07365 0.22446 0.30477 0.0
H27 H 0.1442 0.14691 0.28562 0.0
H28 H 0.11372 0.28661 0.28946 0.0
H29 H 0.19143 0.25612 0.34538 0.0
H30 H 0.08645 0.11073 0.20147 0.0
H31 H 0.05149 0.19204 0.34492 0.0
H32 H 0.12318 0.11256 0.32599 0.0
C33 C 0.0285 0.94089 0.54996 0.0
C34 C 0.00758 0.94659 0.57274 0.0
N35 N 0.98628 0.92019 0.575 0.0
N36 N 0.02059 0.91107 0.53766 0.0
C37 C 0.99429 0.89913 0.55316 0.0
H38 H 0.04955 0.95665 0.54359 0.0
Co39 Co 0.0492 0.89518 0.50897 0.0
C40 C 0.03838 0.82152 0.50158 0.0
O41 O 0.07078 0.81863 0.50674 0.0
N42 N 0.07968 0.88115 0.47878 0.0
C43 C 0.12142 0.8574 0.45359 0.0
C44 C 0.10964 0.8645 0.4803 0.0
C45 C 0.0749 0.88479 0.45021 0.0
N46 N 0.1001 0.87085 0.43432 0.0
O47 O 0.0211 0.91849 0.48269 0.0
H48 H 0.12167 0.85522 0.49935 0.0
H49 H 0.05314 0.89732 0.4411 0.0
O50 O 0.02374 0.85082 0.50329 0.0
C51 C 0.03157 0.94899 0.48086 0.0
O52 O 0.06406 0.95434 0.48481 0.0
N53 N 0.07608 0.87659 0.53749 0.0
C54 C 0.11449 0.85135 0.58142 0.0
C55 C 0.08072 0.84198 0.57891 0.0
C56 C 0.06186 0.855 0.55685 0.0
C57 C 0.1074 0.88993 0.54237 0.0
C58 C 0.12803 0.87625 0.56363 0.0
H59 H 0.03607 0.8466 0.55485 0.0
H60 H 0.11709 0.90959 0.52853 0.0
H61 H 0.98328 0.8743 0.55009 0.0
H62 H 0.00932 0.96749 0.58765 0.0
H63 H 0.14321 0.8417 0.44925 0.0
H64 H 0.06961 0.82313 0.5929 0.0
H65 H 0.15414 0.88419 0.56565 0.0
C66 C 0.32825 0.79942 0.79403 0.0
C67 C 0.32422 0.7789 0.81727 0.0
N68 N 0.34951 0.75609 0.81719 0.0
N69 N 0.35589 0.78965 0.77927 0.0
C70 C 0.36848 0.76313 0.79395 0.0
H71 H 0.31234 0.82071 0.78843 0.0
Co72 Co 0.36745 0.813 0.74669 0.0
C73 C 0.43763 0.79397 0.72854 0.0
O74 O 0.44038 0.82474 0.71827 0.0
N75 N 0.37633 0.8383 0.71284 0.0
C76 C 0.38975 0.87981 0.68275 0.0
C77 C 0.38434 0.87148 0.71077 0.0
C78 C 0.37631 0.82734 0.68529 0.0
N79 N 0.38433 0.85222 0.66646 0.0
O80 O 0.33878 0.78219 0.72624 0.0
H81 H 0.38759 0.88875 0.72833 0.0
H82 H 0.37097 0.80144 0.67922 0.0
O83 O 0.40907 0.78443 0.73942 0.0
C84 C 0.30784 0.79149 0.72787 0.0
O85 O 0.30169 0.82384 0.73217 0.0
N86 N 0.39263 0.84259 0.77029 0.0
C87 C 0.41618 0.8782 0.81765 0.0
C88 C 0.43323 0.84954 0.80799 0.0
C89 C 0.42056 0.83155 0.78495 0.0
C90 C 0.37541 0.87047 0.77984 0.0
C91 C 0.38698 0.88898 0.80342 0.0
H92 H 0.43166 0.80708 0.78134 0.0
H93 H 0.35158 0.87727 0.77003 0.0
H94 H 0.39178 0.75037 0.78859 0.0
H95 H 0.30482 0.78118 0.83349 0.0
H96 H 0.39859 0.90416 0.67531 0.0
H97 H 0.45504 0.83982 0.8194 0.0
H98 H 0.37272 0.91063 0.81105 0.0
C99 C 0.45668 0.10592 0.05767 0.0
C100 C 0.47991 0.09834 0.07775 0.0
N101 N 0.50156 0.12418 0.07928 0.0
N102 N 0.46265 0.13691 0.04611 0.0
C103 C 0.4908 0.14748 0.05995 0.0
H104 H 0.43866 0.08762 0.05031 0.0
Co105 Co 0.43786 0.15092 0.01345 0.0
C106 C 0.47503 0.20187 0.99587 0.0
O107 O 0.44596 0.21472 0.00382 0.0
N108 N 0.41286 0.16164 0.98001 0.0
C109 C 0.37613 0.18555 0.95012 0.0
C110 C 0.38534 0.18192 0.97818 0.0
C111 C 0.41967 0.15305 0.95255 0.0
N112 N 0.39761 0.16736 0.93398 0.0
O113 O 0.44689 0.10543 0.0002 0.0
H114 H 0.37306 0.19437 0.99589 0.0
H115 H 0.44108 0.13762 0.94622 0.0
O116 O 0.47882 0.16945 0.99613 0.0
C117 C 0.43811 0.07682 0.99013 0.0
O118 O 0.40671 0.07227 0.98184 0.0
N119 N 0.39782 0.14095 0.03341 0.0
C120 C 0.36347 0.14755 0.08479 0.0
C121 C 0.37612 0.17589 0.07084 0.0
C122 C 0.39378 0.17188 0.04579 0.0
C123 C 0.3813 0.11329 0.04417 0.0
C124 C 0.36467 0.11589 0.07089 0.0
H125 H 0.40751 0.19336 0.03793 0.0
H126 H 0.38457 0.08864 0.03449 0.0
H127 H 0.50356 0.17109 0.05548 0.0
H128 H 0.48188 0.07465 0.08931 0.0
H129 H 0.35532 0.20068 0.94212 0.0
H130 H 0.3757 0.20068 0.08088 0.0
H131 H 0.35496 0.0934 0.08125 0.0
C132 C 0.16821 0.78338 0.19816 0.0
C133 C 0.17276 0.7588 0.17858 0.0
N134 N 0.14292 0.74376 0.17412 0.0
N135 N 0.13575 0.784 0.20752 0.0
C136 C 0.12059 0.75937 0.19199 0.0
H137 H 0.18833 0.79968 0.20514 0.0
Co138 Co 0.12472 0.81491 0.23713 0.0
C139 C 0.06725 0.79027 0.25801 0.0
O140 O 0.06069 0.8225 0.25426 0.0
N141 N 0.11784 0.84588 0.26745 0.0
C142 C 0.10051 0.88946 0.29392 0.0
C143 C 0.10584 0.87801 0.26656 0.0
C144 C 0.12038 0.83876 0.29557 0.0
N145 N 0.10973 0.86474 0.31199 0.0
O146 O 0.16717 0.80079 0.25395 0.0
H147 H 0.09982 0.89189 0.24738 0.0
H148 H 0.12844 0.81443 0.30383 0.0
O149 O 0.09824 0.78002 0.25683 0.0
C150 C 0.19622 0.81231 0.2605 0.0
O151 O 0.20079 0.8452 0.26206 0.0
N152 N 0.14099 0.84926 0.21389 0.0
C153 C 0.13265 0.882 0.16213 0.0
C154 C 0.10499 0.86889 0.1766 0.0
C155 C 0.10972 0.85259 0.20202 0.0
C156 C 0.16877 0.86342 0.20119 0.0
C157 C 0.165 0.88022 0.17469 0.0
H158 H 0.08816 0.84008 0.21119 0.0
H159 H 0.19381 0.85921 0.20966 0.0
H160 H 0.09386 0.75369 0.1933 0.0
H161 H 0.19648 0.75266 0.16822 0.0
H162 H 0.09033 0.91388 0.30011 0.0
H163 H 0.07975 0.86962 0.16749 0.0
H164 H 0.18692 0.89016 0.16366 0.0
C165 C 0.51042 0.92454 0.4507 0.0
C166 C 0.53973 0.92964 0.43644 0.0
N167 N 0.55141 0.89957 0.42738 0.0
N168 N 0.50256 0.89123 0.45171 0.0
C169 C 0.52833 0.87651 0.43695 0.0
H170 H 0.49454 0.94482 0.45797 0.0
Co171 Co 0.46745 0.87383 0.47628 0.0
C172 C 0.49457 0.81596 0.48053 0.0
O173 O 0.47662 0.8173 0.45693 0.0
N174 N 0.43562 0.85661 0.50326 0.0
C175 C 0.40322 0.81991 0.52706 0.0
C176 C 0.41799 0.82737 0.50112 0.0
C177 C 0.43123 0.86619 0.53084 0.0
N178 N 0.41148 0.84451 0.54565 0.0
O179 O 0.47841 0.91201 0.50158 0.0
H180 H 0.41692 0.81177 0.48217 0.0
H181 H 0.44391 0.88744 0.54064 0.0
O182 O 0.49959 0.84386 0.494 0.0
C183 C 0.46392 0.94056 0.50622 0.0
O184 O 0.43162 0.9439 0.50025 0.0
N185 N 0.43214 0.89872 0.45507 0.0
C186 C 0.39845 0.86889 0.40977 0.0
C187 C 0.42441 0.89196 0.40458 0.0
C188 C 0.43973 0.90809 0.4276 0.0
C189 C 0.40019 0.88612 0.45917 0.0
C190 C 0.3839 0.86856 0.43705 0.0
H191 H 0.45921 0.92592 0.42256 0.0
H192 H 0.38913 0.88528 0.48022 0.0
H193 H 0.52988 0.84954 0.43328 0.0
H194 H 0.55111 0.95414 0.43284 0.0
H195 H 0.38811 0.79784 0.53203 0.0
H196 H 0.43399 0.89606 0.38319 0.0
H197 H 0.36182 0.85331 0.44167 0.0
C198 C 0.33608 0.21312 0.68147 0.0
C199 C 0.33231 0.23301 0.65769 0.0
N200 N 0.35415 0.25897 0.65964 0.0
N201 N 0.36041 0.22621 0.69833 0.0
C202 C 0.37066 0.25463 0.68465 0.0
H203 H 0.32235 0.19007 0.686 0.0
Co204 Co 0.37397 0.20387 0.73156 0.0
C205 C 0.43849 0.23683 0.75358 0.0
O206 O 0.43368 0.22632 0.77979 0.0
N207 N 0.38674 0.17967 0.76538 0.0
C208 C 0.4138 0.14434 0.79478 0.0
C209 C 0.40984 0.15433 0.76698 0.0
C210 C 0.3769 0.18421 0.79295 0.0
N211 N 0.39313 0.16308 0.81125 0.0
O212 O 0.34577 0.23432 0.75246 0.0
H213 H 0.42448 0.1444 0.74941 0.0
H214 H 0.35917 0.20351 0.79974 0.0
O215 O 0.41499 0.23309 0.73489 0.0
C216 C 0.316 0.22157 0.75238 0.0
O217 O 0.31302 0.18908 0.74677 0.0
N218 N 0.39747 0.17344 0.70867 0.0
C219 C 0.42104 0.13083 0.66631 0.0
C220 C 0.43955 0.15939 0.6741 0.0
C221 C 0.42724 0.18057 0.69519 0.0
C222 C 0.37944 0.14514 0.70174 0.0
C223 C 0.39084 0.12324 0.68035 0.0
H224 H 0.44136 0.20309 0.69944 0.0
H225 H 0.35544 0.14041 0.7121 0.0
H226 H 0.39019 0.27137 0.69241 0.0
H227 H 0.31509 0.22861 0.64013 0.0
H228 H 0.43212 0.12604 0.80238 0.0
H229 H 0.46295 0.16583 0.6633 0.0
H230 H 0.37608 0.10121 0.6745 0.0
C231 C 0.05625 0.08612 0.93607 0.0
C232 C 0.03275 0.07726 0.91591 0.0
N233 N 1.0024 0.08986 0.92389 0.0
N234 N 0.04098 0.10489 0.9563 0.0
C235 C 0.00824 0.10641 0.94862 0.0
H236 H 0.08299 0.08024 0.93561 0.0
Co237 Co 0.06188 0.12236 0.98812 0.0
C238 C 0.02186 0.18399 0.00766 0.0
O239 O 0.02775 0.17798 0.03474 0.0
N240 N 0.08425 0.1395 0.02117 0.0
C241 C 0.11519 0.17271 0.04946 0.0
C242 C 0.10404 0.16745 0.02214 0.0
C243 C 0.08347 0.1286 0.04867 0.0
N244 N 0.10226 0.14837 0.06623 0.0
O245 O 0.03225 0.09393 0.01023 0.0
H246 H 0.10908 0.18421 0.00443 0.0
H247 H 0.0688 0.10712 0.05589 0.0
O248 O 0.03049 0.16184 0.989 0.0
C249 C 0.04366 0.06373 0.00727 0.0
O250 O 0.0759 0.0605 0.0008 0.0
N251 N 0.0907 0.14678 0.96373 0.0
C252 C 0.13035 0.17575 0.92142 0.0
C253 C 0.09612 0.1837 0.92351 0.0
C254 C 0.07667 0.16849 0.94435 0.0
C255 C 0.12411 0.13812 0.96172 0.0
C256 C 0.14475 0.1528 0.94071 0.0
H257 H 0.04985 0.17254 0.94336 0.0
H258 H 0.13454 0.11939 0.97609 0.0
H259 H 0.98925 0.12009 0.96067 0.0
H260 H 0.03833 0.06469 0.89593 0.0
H261 H 0.13019 0.19395 0.05673 0.0
H262 H 0.08425 0.20096 0.90855 0.0
H263 H 0.17124 0.14597 0.93925 0.0
C264 C 0.82969 0.7945 0.69565 0.0
C265 C 0.82373 0.77449 0.67229 0.0
N266 N 0.84655 0.74916 0.67227 0.0
N267 N 0.8563 0.78212 0.71033 0.0
C268 C 0.86589 0.75431 0.69569 0.0
H269 H 0.81553 0.81689 0.70155 0.0
Co270 Co 0.87086 0.80259 0.74377 0.0
C271 C 0.93907 0.77253 0.76166 0.0
O272 O 0.94046 0.79281 0.78376 0.0
N273 N 0.88316 0.82568 0.77856 0.0
C274 C 0.90275 0.86575 0.80783 0.0
C275 C 0.89783 0.85659 0.77995 0.0
C276 C 0.87894 0.81701 0.80657 0.0
N277 N 0.89079 0.84109 0.82483 0.0
O278 O 0.842 0.77104 0.76392 0.0
H279 H 0.90543 0.87185 0.762 0.0
H280 H 0.86791 0.79331 0.81346 0.0
O281 O 0.91187 0.7716 0.74635 0.0
C282 C 0.81136 0.78168 0.76341 0.0
O283 O 0.80647 0.81422 0.75904 0.0
N284 N 0.89564 0.83346 0.72081 0.0
C285 C 0.91966 0.87265 0.6756 0.0
C286 C 0.93907 0.84619 0.68659 0.0
C287 C 0.9265 0.82662 0.70878 0.0
C288 C 0.87687 0.86013 0.71095 0.0
C289 C 0.88834 0.88004 0.68813 0.0
H290 H 0.94127 0.80498 0.71442 0.0
H291 H 0.85206 0.86483 0.71989 0.0
H292 H 0.88682 0.73857 0.70185 0.0
H293 H 0.80434 0.77853 0.65635 0.0
H294 H 0.9154 0.88854 0.81495 0.0
H295 H 0.96314 0.83946 0.677 0.0
H296 H 0.87265 0.90035 0.67996 0.0
C297 C 0.95324 0.07883 0.44402 0.0
C298 C 0.97717 0.07212 0.42368 0.0
N299 N 0.9988 0.09841 0.42293 0.0
N300 N 0.96018 0.10875 0.45654 0.0
C301 C 0.98812 0.12016 0.44334 0.0
H302 H 0.9322 0.06269 0.44966 0.0
Co303 Co 0.93409 0.12368 0.48622 0.0
C304 C 0.95476 0.1936 0.50241 0.0
O305 O 0.92239 0.19915 0.50674 0.0
N306 N 0.9064 0.13586 0.51714 0.0
C307 C 0.86309 0.14136 0.54723 0.0
C308 C 0.87227 0.13547 0.51936 0.0
C309 C 0.91729 0.14162 0.54408 0.0
N310 N 0.89146 0.14542 0.56254 0.0
O311 O 0.95981 0.09447 0.51027 0.0
H312 H 0.85481 0.12972 0.50244 0.0
H313 H 0.94369 0.14174 0.55025 0.0
O314 O 0.96456 0.16374 0.49445 0.0
C315 C 0.94696 0.06485 0.51121 0.0
O316 O 0.91439 0.06198 0.50617 0.0
N317 N 0.90911 0.14944 0.45983 0.0
C318 C 0.87633 0.17808 0.41333 0.0
C319 C 0.90748 0.19056 0.42223 0.0
C320 C 0.92392 0.17527 0.44485 0.0
C321 C 0.87971 0.13551 0.45005 0.0
C322 C 0.86237 0.14993 0.42701 0.0
H323 H 0.94952 0.18315 0.44872 0.0
H324 H 0.87049 0.11217 0.45922 0.0
H325 H 0.99984 0.14427 0.44802 0.0
H326 H 0.97845 0.04955 0.41062 0.0
H327 H 0.83764 0.14154 0.5558 0.0
H328 H 0.91957 0.21136 0.41109 0.0
H329 H 0.83882 0.13897 0.41969 0.0
C330 C 0.68989 0.21255 0.19795 0.0
C331 C 0.70154 0.23238 0.17596 0.0
N332 N 0.68234 0.26056 0.17482 0.0
N333 N 0.66334 0.22804 0.2105 0.0
C334 C 0.65956 0.25739 0.19613 0.0
H335 H 0.6992 0.1877 0.20372 0.0
Co336 Co 0.63806 0.20778 0.23939 0.0
C337 C 0.57879 0.26344 0.23623 0.0
O338 O 0.58513 0.29299 0.22458 0.0
N339 N 0.61339 0.18683 0.26879 0.0
C340 C 0.57204 0.16311 0.29415 0.0
C341 C 0.58161 0.17436 0.26753 0.0
C342 C 0.62245 0.18299 0.29643 0.0
N343 N 0.59766 0.16898 0.31236 0.0
O344 O 0.66242 0.23465 0.26577 0.0
H345 H 0.56593 0.17425 0.24862 0.0
H346 H 0.64665 0.19062 0.30494 0.0
O347 O 0.60228 0.24133 0.2375 0.0
C348 C 0.69208 0.22239 0.26834 0.0
O349 O 0.69523 0.18936 0.2658 0.0
N350 N 0.61676 0.18199 0.21171 0.0
C351 C 0.59807 0.14668 0.16329 0.0
C352 C 0.5926 0.18148 0.16513 0.0
C353 C 0.60176 0.19856 0.18949 0.0
C354 C 0.62276 0.14798 0.21035 0.0
C355 C 0.61269 0.12942 0.18634 0.0
H356 H 0.59833 0.22561 0.18947 0.0
H357 H 0.63583 0.13544 0.22767 0.0
H358 H 0.63893 0.2748 0.19966 0.0
H359 H 0.72133 0.22573 0.16097 0.0
H360 H 0.54768 0.15263 0.29991 0.0
H361 H 0.5804 0.1954 0.14804 0.0
H362 H 0.61628 0.10222 0.1857 0.0
C363 C 0.52047 0.94877 0.94568 0.0
C364 C 0.5001 0.95248 0.92234 0.0
N365 N 0.48193 0.92394 0.91921 0.0
N366 N 0.51523 0.91814 0.95755 0.0
C367 C 0.4913 0.90351 0.94106 0.0
H368 H 0.53929 0.9667 0.95283 0.0
Co369 Co 0.54361 0.90533 0.98715 0.0
C370 C 0.53582 0.83254 -0.00103 0.0
O371 O 0.56904 0.83236 -9e-05 0.0
N372 N 0.57338 0.89486 0.01788 0.0
C373 C 0.61823 0.88471 0.04542 0.0
C374 C 0.60761 0.89495 0.01892 0.0
C375 C 0.56398 0.88539 0.04458 0.0
N376 N 0.5908 0.87838 0.06147 0.0
O377 O 0.51432 0.92971 0.01233 0.0
H378 H 0.62444 0.90214 0.00197 0.0
H379 H 0.53788 0.88311 0.05134 0.0
O380 O 0.51986 0.86069 0.99427 0.0
C381 C 0.52532 0.96002 0.01421 0.0
O382 O 0.55754 0.96503 0.00867 0.0
N383 N 0.57164 0.88517 0.95966 0.0
C384 C 0.60802 0.86325 0.91273 0.0
C385 C 0.57765 0.8477 0.9199 0.0
C386 C 0.55948 0.85953 0.9429 0.0
C387 C 0.59975 0.90261 0.95123 0.0
C388 C 0.61932 0.8912 0.92828 0.0
H389 H 0.53492 0.84854 0.94624 0.0
H390 H 0.60652 0.92594 0.96187 0.0
H391 H 0.48281 0.87765 0.94372 0.0
H392 H 0.49986 0.9739 0.90792 0.0
H393 H 0.64421 0.88312 0.0526 0.0
H394 H 0.56796 0.82648 0.90768 0.0
H395 H 0.64243 0.90421 0.92246 0.0
C396 C 0.83045 0.19776 0.80663 0.0
C397 C 0.81852 0.2176 0.82837 0.0
N398 N 0.83705 0.2461 0.82899 0.0
N399 N 0.85652 0.2135 0.79365 0.0
C400 C 0.86016 0.24296 0.80781 0.0
H401 H 0.82056 0.17333 0.8004 0.0
Co402 Co 0.87556 0.19413 0.76172 0.0
C403 C 0.93002 0.25397 0.75691 0.0
O404 O 0.91311 0.2826 0.7553 0.0
N405 N 0.89354 0.17303 0.72888 0.0
C406 C 0.9211 0.13789 0.69965 0.0
C407 C 0.9158 0.14691 0.72756 0.0
C408 C 0.88618 0.17965 0.7012 0.0
N409 N 0.90248 0.15853 0.68324 0.0
O410 O 0.84633 0.2224 0.73969 0.0
H411 H 0.92764 0.13467 0.74556 0.0
H412 H 0.8685 0.19883 0.69415 0.0
O413 O 0.91367 0.22615 0.75909 0.0
C414 C 0.81724 0.20834 0.73856 0.0
O415 O 0.81602 0.17532 0.74197 0.0
N416 N 0.90047 0.16633 0.7858 0.0
C417 C 0.92154 0.12969 0.83291 0.0
C418 C 0.93758 0.15997 0.82555 0.0
C419 C 0.92626 0.17829 0.80233 0.0
C420 C 0.88564 0.13593 0.79176 0.0
C421 C 0.89595 0.11692 0.81537 0.0
H422 H 0.9369 0.20309 0.79942 0.0
H423 H 0.8643 0.12756 0.77917 0.0
H424 H 0.87973 0.26124 0.8032 0.0
H425 H 0.79804 0.21146 0.84282 0.0
H426 H 0.93703 0.11749 0.69195 0.0
H427 H 0.95769 0.17037 0.8386 0.0
H428 H 0.883 0.09359 0.82064 0.0
C429 C 0.55526 0.07782 0.55835 0.0
C430 C 0.53243 0.06845 0.57878 0.0
N431 N 0.50588 0.08986 0.57759 0.0
N432 N 0.54325 0.10487 0.54409 0.0
C433 C 0.51314 0.11174 0.55622 0.0
H434 H 0.5789 0.06518 0.55362 0.0
Co435 Co 0.56536 0.11955 0.51202 0.0
C436 C 0.54161 0.18906 0.49651 0.0
O437 O 0.57239 0.19457 0.4871 0.0
N438 N 0.58946 0.13152 0.47853 0.0
C439 C 0.63012 0.14589 0.44791 0.0
C440 C 0.6229 0.13806 0.47573 0.0
C441 C 0.57718 0.13454 0.45159 0.0
N442 N 0.60138 0.14385 0.43278 0.0
O443 O 0.53636 0.09007 0.49064 0.0
H444 H 0.64143 0.13759 0.4925 0.0
H445 H 0.55082 0.1311 0.44605 0.0
O446 O 0.53395 0.15954 0.50656 0.0
C447 C 0.54922 0.06041 0.49126 0.0
O448 O 0.58186 0.05816 0.49626 0.0
N449 N 0.59375 0.14546 0.53601 0.0
C450 C 0.63331 0.17466 0.57858 0.0
C451 C 0.60191 0.18846 0.57156 0.0
C452 C 0.58205 0.17282 0.55107 0.0
C453 C 0.62341 0.1304 0.544 0.0
C454 C 0.64398 0.1449 0.56502 0.0
H455 H 0.55648 0.1817 0.54914 0.0
H456 H 0.63078 0.10655 0.5344 0.0
H457 H 0.49719 0.13237 0.54956 0.0
H458 H 0.5353 0.04748 0.59345 0.0
H459 H 0.6547 0.15251 0.43938 0.0
H460 H 0.592 0.21026 0.58295 0.0
H461 H 0.66761 0.13282 0.57086 0.0
C462 C 0.66738 0.78056 0.29823 0.0
C463 C 0.66849 0.75892 0.32047 0.0
N464 N 0.63673 0.75112 0.32728 0.0
N465 N 0.63495 0.78748 0.29058 0.0
C466 C 0.61653 0.76843 0.30899 0.0
H467 H 0.68986 0.79026 0.28855 0.0
Co468 Co 0.6247 0.81669 0.25924 0.0
C469 C 0.56838 0.78884 0.25169 0.0
O470 O 0.5666 0.81422 0.26967 0.0
N471 N 0.6168 0.84506 0.22661 0.0
C472 C 0.61085 0.88873 0.19672 0.0
C473 C 0.61877 0.87923 0.22401 0.0
C474 C 0.609 0.83453 0.19979 0.0
N475 N 0.60484 0.86065 0.18147 0.0
O476 O 0.66636 0.80051 0.24209 0.0
H477 H 0.62635 0.89682 0.24041 0.0
H478 H 0.60655 0.80821 0.19365 0.0
O479 O 0.59771 0.78114 0.24174 0.0
C480 C 0.69552 0.81179 0.23541 0.0
O481 O 0.70042 0.84468 0.23427 0.0
N482 N 0.64368 0.85317 0.28008 0.0
C483 C 0.63816 0.88057 0.33452 0.0
C484 C 0.61158 0.88332 0.31522 0.0
C485 C 0.61473 0.86922 0.28849 0.0
C486 C 0.672 0.85531 0.29687 0.0
C487 C 0.66939 0.86788 0.32497 0.0
H488 H 0.59223 0.86808 0.27561 0.0
H489 H 0.6957 0.84447 0.29004 0.0
H490 H 0.58917 0.76734 0.30919 0.0
H491 H 0.69103 0.74924 0.33081 0.0
H492 H 0.6107 0.91432 0.1884 0.0
H493 H 0.58709 0.89314 0.32172 0.0
H494 H 0.69076 0.86616 0.33934 0.0
C495 C 0.00833 0.92833 0.04306 0.0
C496 C 0.03592 0.93541 0.05908 0.0
N497 N 0.04811 0.90624 0.06938 0.0
N498 N 1.0026 0.89455 0.04179 0.0
C499 C 0.02791 0.88159 0.05825 0.0
H500 H 0.99128 0.9475 0.03574 0.0
Co501 Co 0.96855 0.87546 0.01669 0.0
C502 C 0.99829 0.81986 0.01283 0.0
O503 O 0.98012 0.82124 0.03634 0.0
N504 N 0.93769 0.85669 0.98921 0.0
C505 C 0.90701 0.8181 0.96587 0.0
C506 C 0.92098 0.82698 0.99179 0.0
C507 C 0.93365 0.86504 0.96125 0.0
N508 N 0.91488 0.84211 0.94661 0.0
O509 O 0.97727 0.91507 0.9918 0.0
H510 H 0.92006 0.81201 0.01109 0.0
H511 H 0.94603 0.88633 0.95121 0.0
O512 O 1.00239 0.84756 -0.00117 0.0
C513 C 0.9608 0.94273 0.98783 0.0
O514 O 0.92833 0.94342 0.99373 0.0
N515 N 0.93172 0.89743 0.03852 0.0
C516 C 0.89611 0.86642 0.08249 0.0
C517 C 0.92225 0.88886 0.0887 0.0
C518 C 0.93861 0.90546 0.06645 0.0
C519 C 0.90004 0.88463 0.03336 0.0
C520 C 0.88269 0.86679 0.05484 0.0
H521 H 0.9587 0.92203 0.07259 0.0
H522 H 0.88993 0.88396 0.01199 0.0
H523 H 0.03131 0.85481 0.06229 0.0
H524 H 0.04564 0.96052 0.06331 0.0
H525 H 0.89272 0.79533 0.96139 0.0
H526 H 0.93145 0.8918 0.11034 0.0
H527 H 0.86074 0.8517 0.04944 0.0
C528 C 0.66936 0.72633 0.80777 0.0
C529 C 0.67529 0.75045 0.82774 0.0
N530 N 0.646 0.76606 0.83298 0.0
N531 N 0.63623 0.72584 0.80007 0.0
C532 C 0.6227 0.75113 0.81603 0.0
H533 H 0.68946 0.71213 0.79828 0.0
Co534 Co 0.6189 0.69991 0.76871 0.0
C535 C 0.56677 0.73601 0.76575 0.0
O536 O 0.56518 0.71538 0.78769 0.0
N537 N 0.60269 0.67529 0.73624 0.0
C538 C 0.56465 0.65391 0.70607 0.0
C539 C 0.56973 0.66708 0.73264 0.0
C540 C 0.61697 0.66741 0.71066 0.0
N541 N 0.59434 0.65383 0.69215 0.0
O542 O 0.66212 0.71145 0.74977 0.0
H543 H 0.54981 0.67163 0.7479 0.0
H544 H 0.64298 0.6727 0.70516 0.0
O545 O 0.59565 0.73923 0.75332 0.0
C546 C 0.69055 0.69736 0.74402 0.0
O547 O 0.6926 0.66415 0.74383 0.0
N548 N 0.63337 0.65895 0.78716 0.0
C549 C 0.62546 0.62385 0.83844 0.0
C550 C 0.59885 0.62635 0.81922 0.0
C551 C 0.60312 0.64456 0.79431 0.0
C552 C 0.66137 0.65096 0.80314 0.0
C553 C 0.65765 0.63476 0.82982 0.0
H554 H 0.58034 0.6515 0.78364 0.0
H555 H 0.68623 0.65927 0.79704 0.0
H556 H 0.5967 0.7595 0.81477 0.0
H557 H 0.69971 0.7574 0.8364 0.0
H558 H 0.54044 0.64686 0.69709 0.0
H559 H 0.57353 0.61845 0.82519 0.0
H560 H 0.67911 0.63247 0.84404 0.0
C561 C 0.55611 0.43433 0.05604 0.0
C562 C 0.53392 0.43823 0.07822 0.0
N563 N 0.51348 0.41102 0.07882 0.0
N564 N 0.54969 0.40491 0.04251 0.0
C565 C 0.52354 0.39109 0.05687 0.0
H566 H 0.57611 0.45168 0.05029 0.0
Co567 Co 0.57542 0.39246 0.01141 0.0
C568 C 0.55669 0.32241 0.99324 0.0
O569 O 0.58894 0.31742 0.98812 0.0
N570 N 0.60247 0.3821 0.97912 0.0
C571 C 0.64451 0.36856 0.94943 0.0
C572 C 0.63603 0.3755 0.97726 0.0
C573 C 0.59142 0.37976 0.9518 0.0
N574 N 0.61647 0.37138 0.93347 0.0
O575 O 0.5473 0.42159 0.98895 0.0
H576 H 0.65368 0.37514 0.99472 0.0
H577 H 0.56526 0.38315 0.94558 0.0
O578 O 0.54645 0.35131 0.00302 0.0
C579 C 0.56007 0.4513 0.98839 0.0
O580 O 0.59239 0.45428 0.99444 0.0
N581 N 0.60314 0.36756 0.03631 0.0
C582 C 0.64094 0.33973 0.08049 0.0
C583 C 0.6104 0.32505 0.07225 0.0
C584 C 0.59136 0.34006 0.05088 0.0
C585 C 0.63178 0.38354 0.04546 0.0
C586 C 0.65151 0.36972 0.06738 0.0
H587 H 0.56617 0.33089 0.04773 0.0
H588 H 0.63895 0.40751 0.03606 0.0
H589 H 0.51316 0.36638 0.0521 0.0
H590 H 0.53331 0.45916 0.09316 0.0
H591 H 0.66944 0.36217 0.94146 0.0
H592 H 0.60055 0.30299 0.08323 0.0
H593 H 0.67439 0.38242 0.0742 0.0
C594 C 0.8169 0.30041 0.29285 0.0
C595 C 0.81024 0.27984 0.31558 0.0
N596 N 0.83586 0.25759 0.31797 0.0
N597 N 0.8462 0.2909 0.28045 0.0
C598 C 0.85718 0.26434 0.29611 0.0
H599 H 0.8018 0.32184 0.28615 0.0
Co600 Co 0.86148 0.31777 0.25085 0.0
C601 C 0.93213 0.30105 0.23631 0.0
O602 O 0.93581 0.33406 0.23487 0.0
N603 N 0.87384 0.34632 0.22034 0.0
C604 C 0.88661 0.38896 0.19118 0.0
C605 C 0.87746 0.38033 0.21853 0.0
C606 C 0.88011 0.33514 0.19357 0.0
N607 N 0.88854 0.36042 0.1756 0.0
O608 O 0.83412 0.29183 0.22596 0.0
H609 H 0.87393 0.3982 0.23562 0.0
H610 H 0.87839 0.30876 0.18743 0.0
O611 O 0.90265 0.28875 0.2425 0.0
C612 C 0.80398 0.30316 0.22478 0.0
O613 O 0.79969 0.33607 0.22725 0.0
N614 N 0.88592 0.34246 0.27793 0.0
C615 C 0.91462 0.37293 0.32507 0.0
C616 C 0.92503 0.34084 0.31673 0.0
C617 C 0.90991 0.32578 0.29366 0.0
C618 C 0.87359 0.37287 0.28724 0.0
C619 C 0.88854 0.38937 0.31046 0.0
H620 H 0.91677 0.29984 0.2897 0.0
H621 H 0.85141 0.38376 0.27734 0.0
H622 H 0.88113 0.2516 0.29272 0.0
H623 H 0.78889 0.28194 0.32996 0.0
H624 H 0.89182 0.41426 0.18344 0.0
H625 H 0.94465 0.32727 0.32822 0.0
H626 H 0.8795 0.41402 0.31724 0.0
C627 C 0.97499 0.58263 0.5618 0.0
C628 C 0.99716 0.57842 0.58408 0.0
N629 N 0.02387 0.599 0.57986 0.0
N630 N 0.98758 0.60577 0.54356 0.0
C631 C 0.01765 0.61497 0.55487 0.0
H632 H 0.9506 0.57054 0.55949 0.0
Co633 Co 0.964 0.62178 0.51176 0.0
C634 C 1.0019 0.68063 0.48857 0.0
O635 O 1.00326 0.66628 0.4633 0.0
N636 N 0.9395 0.63824 0.47892 0.0
C637 C 0.91253 0.67614 0.45174 0.0
C638 C 0.92346 0.6686 0.47872 0.0
C639 C 0.93757 0.62775 0.45121 0.0
N640 N 0.92155 0.65073 0.43425 0.0
O641 O 0.99453 0.59496 0.48872 0.0
H642 H 0.92137 0.6855 0.49678 0.0
H643 H 0.94933 0.60482 0.44327 0.0
O644 O 0.99128 0.66357 0.50992 0.0
C645 C 0.98263 0.56479 0.48996 0.0
O646 O 0.95085 0.56151 0.49778 0.0
N647 N 0.93432 0.64401 0.53683 0.0
C648 C 0.8934 0.66898 0.58012 0.0
C649 C 0.92769 0.67689 0.57941 0.0
C650 C 0.94773 0.66401 0.55777 0.0
C651 C 0.90087 0.63545 0.53744 0.0
C652 C 0.87957 0.64831 0.55883 0.0
H653 H 0.97447 0.66935 0.5586 0.0
H654 H 0.89087 0.61825 0.52158 0.0
H655 H 0.03423 0.63351 0.54525 0.0
H656 H 0.99324 0.56254 0.60261 0.0
H657 H 0.8997 0.69913 0.44524 0.0
H658 H 0.93903 0.69274 0.59571 0.0
H659 H 0.85299 0.64171 0.55909 0.0
C660 C 0.69676 0.29584 0.69635 0.0
C661 C 0.7059 0.27502 0.67417 0.0
N662 N 0.68423 0.24876 0.67346 0.0
N663 N 0.66901 0.28312 0.70916 0.0
C664 C 0.66262 0.25376 0.6954 0.0
H665 H 0.70805 0.32 0.70158 0.0
Co666 Co 0.64539 0.30668 0.73745 0.0
C667 C 0.57329 0.28477 0.72354 0.0
O668 O 0.56839 0.31405 0.71119 0.0
N669 N 0.62278 0.33019 0.76803 0.0
C670 C 0.5844 0.3566 0.79519 0.0
C671 C 0.59199 0.34533 0.76832 0.0
C672 C 0.63316 0.33288 0.79559 0.0
N673 N 0.61044 0.34908 0.81243 0.0
O674 O 0.66652 0.27639 0.76365 0.0
H675 H 0.57567 0.34896 0.75033 0.0
H676 H 0.65682 0.32293 0.80349 0.0
O677 O 0.60272 0.27723 0.73405 0.0
C678 C 0.69664 0.28782 0.76665 0.0
O679 O 0.70105 0.32057 0.76299 0.0
N680 N 0.62957 0.33783 0.70921 0.0
C681 C 0.59948 0.37915 0.66898 0.0
C682 C 0.60918 0.34651 0.66163 0.0
C683 C 0.62362 0.32611 0.68207 0.0
C684 C 0.62626 0.37173 0.71469 0.0
C685 C 0.60938 0.39275 0.69523 0.0
H686 H 0.62516 0.29976 0.67668 0.0
H687 H 0.63432 0.38211 0.73491 0.0
H688 H 0.64023 0.23861 0.69913 0.0
H689 H 0.72517 0.28019 0.65833 0.0
H690 H 0.56094 0.36858 0.80155 0.0
H691 H 0.60175 0.33543 0.64138 0.0
H692 H 0.60277 0.41847 0.70108 0.0
C693 C 0.94531 0.42519 0.93111 0.0
C694 C 0.96431 0.43936 0.90975 0.0
N695 N 0.99587 0.42653 0.91129 0.0
N696 N 0.9646 0.40319 0.9459 0.0
C697 C 0.9954 0.40502 0.93374 0.0
H698 H 0.919 0.43052 0.9357 0.0
Co699 Co 0.94887 0.38144 0.97837 0.0
C700 C 1.00239 0.32255 0.96529 0.0
O701 O 0.01503 0.32902 0.93995 0.0
N702 N 0.93253 0.36053 0.01132 0.0
C703 C 0.91546 0.32014 0.04103 0.0
C704 C 0.92414 0.32743 0.0134 0.0
C705 C 0.92865 0.37286 0.03803 0.0
N706 N 0.91859 0.34866 0.05651 0.0
O707 O 0.97995 0.40827 -0.00042 0.0
H708 H 0.92485 0.30948 0.99595 0.0
H709 H 0.93406 0.39873 0.04412 0.0
O710 O 0.9802 0.34242 0.97609 0.0
C711 C 0.96654 0.43773 0.00061 0.0
O712 O 0.93349 0.43962 -0.00209 0.0
N713 N 0.91776 0.35816 0.95595 0.0
C714 C 0.87215 0.33286 0.91669 0.0
C715 C 0.90683 0.32921 0.91224 0.0
C716 C 0.92916 0.34209 0.93203 0.0
C717 C 0.88389 0.36213 0.96071 0.0
C718 C 0.86032 0.34894 0.94139 0.0
H719 H 0.95564 0.34097 0.92702 0.0
H720 H 0.87523 0.37612 0.97919 0.0
H721 H 0.01686 0.39061 0.94107 0.0
H722 H 0.95534 0.45714 0.89388 0.0
H723 H 0.90744 0.29576 0.04912 0.0
H724 H 0.91663 0.31669 0.89335 0.0
H725 H 0.83346 0.3518 0.94532 0.0
C726 C 0.83554 0.72263 0.18717 0.0
C727 C 0.83407 0.74491 0.16473 0.0
N728 N 0.85993 0.7667 0.16733 0.0
N729 N 0.86201 0.73036 0.20415 0.0
C730 C 0.87636 0.75758 0.19149 0.0
H731 H 0.81863 0.70154 0.19067 0.0
Co732 Co 0.8708 0.70341 0.23625 0.0
C733 C 0.93971 0.71768 0.25831 0.0
O734 O 0.94226 0.68497 0.26296 0.0
N735 N 0.87705 0.67477 0.26913 0.0
C736 C 0.88433 0.62954 0.29701 0.0
C737 C 0.87736 0.64055 0.26984 0.0
C738 C 0.88267 0.68375 0.29682 0.0
N739 N 0.88811 0.65661 0.31418 0.0
O740 O 0.84126 0.73251 0.25743 0.0
H741 H 0.87336 0.62403 0.2519 0.0
H742 H 0.88331 0.70986 0.30382 0.0
O743 O 0.91205 0.72993 0.24769 0.0
C744 C 0.81113 0.72145 0.2547 0.0
O745 O 0.80736 0.68988 0.24636 0.0
N746 N 0.89706 0.67538 0.21224 0.0
C747 C 0.92578 0.64102 0.16636 0.0
C748 C 0.94123 0.66984 0.17735 0.0
C749 C 0.92591 0.68726 0.19951 0.0
C750 C 0.88082 0.64808 0.2007 0.0
C751 C 0.89506 0.63006 0.17788 0.0
H752 H 0.93617 0.71171 0.20437 0.0
H753 H 0.85582 0.64137 0.20817 0.0
H754 H 0.89815 0.77056 0.19967 0.0
H755 H 0.81614 0.74444 0.14728 0.0
H756 H 0.88734 0.60335 0.30336 0.0
H757 H 0.96414 0.67985 0.16782 0.0
H758 H 0.8819 0.6085 0.1689 0.0
C759 C 0.53376 0.56978 0.45162 0.0
C760 C 0.5141 0.56532 0.42803 0.0
N761 N 0.49419 0.59272 0.42526 0.0
N762 N 0.52589 0.59943 0.46434 0.0
C763 C 0.5013 0.61294 0.44782 0.0
H764 H 0.55381 0.55301 0.45845 0.0
Co765 Co 0.55285 0.6114 0.495 0.0
C766 C 0.53715 0.68117 0.51508 0.0
O767 O 0.56962 0.6831 0.52054 0.0
N768 N 0.58198 0.62 0.52647 0.0
C769 C 0.62642 0.6306 0.5544 0.0
C770 C 0.61587 0.62491 0.52686 0.0
C771 C 0.57284 0.62187 0.55434 0.0
N772 N 0.59937 0.62856 0.57167 0.0
O773 O 0.52551 0.58208 0.51789 0.0
H774 H 0.63233 0.62495 0.50857 0.0
H775 H 0.54696 0.61954 0.56166 0.0
O776 O 0.52485 0.65296 0.50541 0.0
C777 C 0.5374 0.55201 0.51736 0.0
O778 O 0.57012 0.54867 0.51314 0.0
N779 N 0.57874 0.63752 0.46935 0.0
C780 C 0.60722 0.66555 0.42068 0.0
C781 C 0.57792 0.67918 0.43218 0.0
C782 C 0.56369 0.66435 0.45584 0.0
C783 C 0.60703 0.62311 0.45766 0.0
C784 C 0.62233 0.6373 0.43344 0.0
H785 H 0.53874 0.67284 0.46095 0.0
H786 H 0.61672 0.59956 0.46621 0.0
H787 H 0.49054 0.63789 0.45105 0.0
H788 H 0.5155 0.54426 0.41326 0.0
H789 H 0.65207 0.63565 0.56124 0.0
H790 H 0.5651 0.70031 0.42203 0.0
H791 H 0.64477 0.6258 0.4243 0.0
C792 C 0.34592 0.28869 0.1839 0.0
C793 C 0.33867 0.2634 0.16486 0.0
N794 N 0.35212 0.23424 0.17461 0.0
N795 N 0.36427 0.27591 0.20558 0.0
C796 C 0.3677 0.24252 0.19942 0.0
H797 H 0.33743 0.31469 0.18248 0.0
Co798 Co 0.37332 0.30188 0.23792 0.0
C799 C 0.44085 0.28296 0.26001 0.0
O800 O 0.4436 0.31521 0.2664 0.0
N801 N 0.38013 0.32885 0.27157 0.0
C802 C 0.39028 0.37085 0.30232 0.0
C803 C 0.38513 0.36265 0.27417 0.0
C804 C 0.38123 0.31742 0.29896 0.0
N805 N 0.388 0.34242 0.3179 0.0
O806 O 0.34105 0.27524 0.25774 0.0
H807 H 0.38578 0.38074 0.25705 0.0
H808 H 0.37855 0.29102 0.30478 0.0
O809 O 0.41313 0.27209 0.24867 0.0
C810 C 0.31318 0.29106 0.2537 0.0
O811 O 0.31469 0.32217 0.24378 0.0
N812 N 0.4014 0.32928 0.21519 0.0
C813 C 0.4317 0.36493 0.17097 0.0
C814 C 0.44507 0.33405 0.17988 0.0
C815 C 0.42892 0.31613 0.20134 0.0
C816 C 0.38726 0.35883 0.20574 0.0
C817 C 0.4024 0.37753 0.18387 0.0
H818 H 0.43696 0.29053 0.20476 0.0
H819 H 0.36305 0.36696 0.21409 0.0
H820 H 0.3801 0.22453 0.21335 0.0
H821 H 0.32462 0.26628 0.14518 0.0
H822 H 0.39547 0.39586 0.31074 0.0
H823 H 0.4668 0.32298 0.16921 0.0
H824 H 0.39078 0.40079 0.17646 0.0
C825 C 0.48053 0.59451 0.93564 0.0
C826 C 0.50719 0.58789 0.91788 0.0
N827 N 0.53378 0.60671 0.9263 0.0
N828 N 0.48967 0.61795 0.95503 0.0
C829 C 0.52232 0.62524 0.94872 0.0
H830 H 0.45591 0.58267 0.93472 0.0
Co831 Co 0.45937 0.62883 0.98403 0.0
C832 C 0.4717 0.69963 0.00259 0.0
O833 O 0.43878 0.70194 0.00521 0.0
N834 N 0.42722 0.63775 0.01417 0.0
C835 C 0.3812 0.65452 0.03784 0.0
C836 C 0.39473 0.64816 0.01156 0.0
C837 C 0.43212 0.63704 0.04296 0.0
N838 N 0.40428 0.64697 0.05795 0.0
O839 O 0.48554 0.60055 0.00855 0.0
H840 H 0.38169 0.65374 0.99202 0.0
H841 H 0.45588 0.6299 0.05271 0.0
O842 O 0.48506 0.6712 0.9947 0.0
C843 C 0.4744 0.57032 0.00575 0.0
O844 O 0.44343 0.56647 0.99608 0.0
N845 N 0.43405 0.65259 0.95682 0.0
C846 C 0.39981 0.67837 0.91004 0.0
C847 C 0.42911 0.69413 0.91989 0.0
C848 C 0.44652 0.6802 0.94271 0.0
C849 C 0.40701 0.63542 0.94589 0.0
C850 C 0.38892 0.6483 0.92272 0.0
H851 H 0.47086 0.6908 0.94782 0.0
H852 H 0.39945 0.61161 0.95537 0.0
H853 H 0.53764 0.64288 0.96074 0.0
H854 H 0.50665 0.57107 0.89964 0.0
H855 H 0.35669 0.66595 0.04135 0.0
H856 H 0.43898 0.71655 0.90944 0.0
H857 H 0.36684 0.63504 0.91483 0.0
C858 C 0.18109 0.72098 0.68925 0.0
C859 C 0.18543 0.74255 0.667 0.0
N860 N 0.15475 0.7508 0.65762 0.0
N861 N 0.14769 0.71466 0.69383 0.0
C862 C 0.13222 0.73424 0.67406 0.0
H863 H 0.20181 0.71068 0.70112 0.0
Co864 Co 0.12921 0.69047 0.72558 0.0
C865 C 0.0711 0.72203 0.72124 0.0
O866 O 0.07102 0.69727 0.70245 0.0
N867 N 0.11081 0.66931 0.7582 0.0
C868 C 0.07237 0.6454 0.78638 0.0
C869 C 0.07944 0.65581 0.75913 0.0
C870 C 0.12216 0.66706 0.78538 0.0
N871 N 0.09936 0.65219 0.8029 0.0
O872 O 0.16646 0.71053 0.74777 0.0
H873 H 0.06254 0.65371 0.74112 0.0
H874 H 0.14641 0.67647 0.79243 0.0
O875 O 0.09913 0.72823 0.73405 0.0
C876 C 0.1958 0.69947 0.75475 0.0
O877 O 0.20111 0.66662 0.7551 0.0
N878 N 0.15419 0.64893 0.71504 0.0
C879 C 0.12352 0.6206 0.66792 0.0
C880 C 0.15418 0.638 0.66484 0.0
C881 C 0.17103 0.64868 0.68952 0.0
C882 C 0.13275 0.6221 0.71873 0.0
C883 C 0.1145 0.60968 0.69537 0.0
H884 H 0.19643 0.65833 0.68782 0.0
H885 H 0.12623 0.61332 0.73983 0.0
H886 H 0.1052 0.73779 0.67237 0.0
H887 H 0.20909 0.75282 0.65921 0.0
H888 H 0.04866 0.63473 0.79356 0.0
H889 H 0.16485 0.64303 0.64398 0.0
H890 H 0.09307 0.59312 0.69883 0.0
C891 C 0.04355 0.4228 0.43995 0.0
C892 C 0.02384 0.42786 0.41678 0.0
N893 N 0.01328 0.3976 0.408 0.0
N894 N 0.04689 0.38923 0.44588 0.0
C895 C 0.02701 0.3745 0.42587 0.0
H896 H 0.05323 0.44349 0.45214 0.0
Co897 Co 0.06835 0.37128 0.47934 0.0
C898 C 0.03147 0.31712 0.47767 0.0
O899 O 0.05694 0.31335 0.45986 0.0
N900 N 0.08746 0.35401 0.51367 0.0
C901 C 0.10559 0.31538 0.54471 0.0
C902 C 0.09721 0.32141 0.51689 0.0
C903 C 0.08891 0.36688 0.54053 0.0
N904 N 0.10019 0.34386 0.55988 0.0
O905 O 0.05237 0.41295 0.49857 0.0
H906 H 0.09807 0.30279 0.5 0.0
H907 H 0.07975 0.3918 0.54609 0.0
O908 O 0.02742 0.34648 0.48911 0.0
C909 C 0.06485 0.44164 0.50584 0.0
O910 O 0.09785 0.4448 0.50778 0.0
N911 N 0.11191 0.3893 0.46694 0.0
C912 C 0.13995 0.3754 0.41371 0.0
C913 C 0.14591 0.35374 0.43668 0.0
C914 C 0.13267 0.36181 0.46339 0.0
C915 C 0.11532 0.41488 0.44739 0.0
C916 C 0.1266 0.40759 0.41952 0.0
H917 H 0.13551 0.34303 0.47959 0.0
H918 H 0.10656 0.4401 0.45215 0.0
H919 H 0.02131 0.34775 0.42499 0.0
H920 H 0.01566 0.45208 0.40836 0.0
H921 H 0.11449 0.29145 0.55312 0.0
H922 H 0.15789 0.32928 0.43353 0.0
H923 H 0.124 0.42629 0.40277 0.0
C924 C 0.33726 0.7237 0.30722 0.0
C925 C 0.33666 0.74635 0.32941 0.0
N926 N 0.36258 0.76797 0.32596 0.0
N927 N 0.36327 0.73105 0.28966 0.0
C928 C 0.37833 0.75829 0.3016 0.0
H929 H 0.32005 0.70274 0.30423 0.0
Co930 Co 0.37136 0.70449 0.25765 0.0
C931 C 0.44005 0.71912 0.23545 0.0
O932 O 0.44283 0.68652 0.23035 0.0
N933 N 0.37748 0.6765 0.22481 0.0
C934 C 0.38576 0.63228 0.1959 0.0
C935 C 0.37959 0.64229 0.2235 0.0
C936 C 0.38149 0.68651 0.19724 0.0
N937 N 0.38735 0.66008 0.17953 0.0
O938 O 0.34207 0.73405 0.23688 0.0
H939 H 0.37706 0.62515 0.24121 0.0
H940 H 0.38078 0.7127 0.1904 0.0
O941 O 0.41245 0.73085 0.2465 0.0
C942 C 0.31201 0.72282 0.23974 0.0
O943 O 0.30848 0.6912 0.24803 0.0
N944 N 0.39703 0.67586 0.28117 0.0
C945 C 0.4237 0.63984 0.32683 0.0
C946 C 0.44053 0.66813 0.31616 0.0
C947 C 0.42627 0.68642 0.29401 0.0
C948 C 0.37957 0.6491 0.2923 0.0
C949 C 0.39269 0.63032 0.31504 0.0
H950 H 0.43766 0.71046 0.2892 0.0
H951 H 0.35452 0.64335 0.28438 0.0
H952 H 0.40028 0.77071 0.2927 0.0
H953 H 0.31914 0.74633 0.34719 0.0
H954 H 0.38854 0.6065 0.1883 0.0
H955 H 0.4637 0.67709 0.32596 0.0
H956 H 0.37854 0.6092 0.32368 0.0
C957 C 0.04144 0.57268 0.04345 0.0
C958 C 0.02139 0.56868 0.06694 0.0
N959 N 1.00254 0.59682 0.06998 0.0
N960 N 0.03496 0.60287 0.03115 0.0
C961 C 0.01077 0.61709 0.04773 0.0
H962 H 0.06072 0.55513 0.0364 0.0
Co963 Co 0.06222 0.61547 0.00074 0.0
C964 C 0.04529 0.68537 0.98119 0.0
O965 O 0.07765 0.68816 0.9755 0.0
N966 N 0.09107 0.62512 0.96963 0.0
C967 C 0.13428 0.63745 0.94088 0.0
C968 C 0.12465 0.63171 0.96871 0.0
C969 C 0.0812 0.62621 0.94199 0.0
N970 N 0.10691 0.63373 0.92418 0.0
O971 O 0.03596 0.58612 0.97732 0.0
H972 H 0.14128 0.63295 0.98689 0.0
H973 H 0.05531 0.62262 0.93509 0.0
O974 O 0.03378 0.65693 0.99104 0.0
C975 C 0.04945 0.55669 0.97667 0.0
O976 O 0.08185 0.55428 0.9827 0.0
N977 N 0.08786 0.64078 0.02662 0.0
C978 C 0.11408 0.66163 0.07853 0.0
C979 C 0.08678 0.67859 0.06656 0.0
C980 C 0.07375 0.66755 0.04095 0.0
C981 C 0.11496 0.62408 0.03803 0.0
C982 C 0.12912 0.63463 0.06392 0.0
H983 H 0.05007 0.67852 0.03497 0.0
H984 H 0.12416 0.60115 0.028 0.0
H985 H 1.00091 0.64242 0.04466 0.0
H986 H 0.02145 0.54711 0.08119 0.0
H987 H 0.15946 0.64363 0.93345 0.0
H988 H 0.0746 0.69947 0.07764 0.0
H989 H 0.15044 0.62111 0.07295 0.0
C990 C 0.18069 0.30762 0.80564 0.0
C991 C 0.18951 0.28795 0.82854 0.0
N992 N 0.16619 0.26337 0.83133 0.0
N993 N 0.15223 0.29535 0.79369 0.0
C994 C 0.14395 0.26822 0.80975 0.0
H995 H 0.19433 0.32952 0.79798 0.0
Co996 Co 0.13461 0.31557 0.76126 0.0
C997 C 0.07981 0.25846 0.75457 0.0
O998 O 0.09831 0.23235 0.74679 0.0
N999 N 0.11748 0.33688 0.72786 0.0
C1000 C 0.08525 0.36734 0.69827 0.0
C1001 C 0.09053 0.35806 0.72616 0.0
C1002 C 0.12737 0.33299 0.70032 0.0
N1003 N 0.10849 0.3516 0.68212 0.0
O1004 O 0.16226 0.2852 0.73946 0.0
H1005 H 0.07454 0.36546 0.74381 0.0
H1006 H 0.14737 0.31616 0.69339 0.0
O1007 O 0.09425 0.28672 0.75958 0.0
C1008 C 0.19141 0.299 0.73695 0.0
O1009 O 0.19343 0.33191 0.74091 0.0
N1010 N 0.11136 0.34555 0.78473 0.0
C1011 C 0.08355 0.38977 0.82408 0.0
C1012 C 0.07325 0.356 0.82329 0.0
C1013 C 0.08773 0.33414 0.8037 0.0
C1014 C 0.12255 0.37823 0.7858 0.0
C1015 C 0.10853 0.40116 0.80529 0.0
H1016 H 0.08066 0.30779 0.8047 0.0
H1017 H 0.14251 0.38633 0.77156 0.0
H1018 H 0.12176 0.2528 0.80612 0.0
H1019 H 0.21155 0.29138 0.8419 0.0
H1020 H 0.06476 0.38289 0.69025 0.0
H1021 H 0.05439 0.34649 0.83806 0.0
H1022 H 0.11714 0.42719 0.80583 0.0
C1023 C 0.47051 0.42741 0.55175 0.0
C1024 C 0.49237 0.43384 0.57335 0.0
N1025 N 0.50142 0.40411 0.58444 0.0
N1026 N 0.46499 0.3936 0.54887 0.0
C1027 C 0.48465 0.37998 0.56962 0.0
H1028 H 0.4582 0.44706 0.53992 0.0
Co1029 Co 0.4404 0.37356 0.51773 0.0
C1030 C 0.47232 0.31652 0.52319 0.0
O1031 O 0.44694 0.31654 0.54132 0.0
N1032 N 0.41904 0.35368 0.48522 0.0
C1033 C 0.39474 0.3147 0.4576 0.0
C1034 C 0.40372 0.32311 0.48505 0.0
C1035 C 0.41953 0.363 0.45733 0.0
N1036 N 0.40492 0.33966 0.44003 0.0
O1037 O 0.45956 0.40982 0.49439 0.0
H1038 H 0.39963 0.3076 0.50373 0.0
H1039 H 0.43068 0.38626 0.44974 0.0
O1040 O 0.47832 0.34412 0.50974 0.0
C1041 C 0.44887 0.43899 0.48662 0.0
O1042 O 0.41613 0.44478 0.48629 0.0
N1043 N 0.39896 0.39872 0.52825 0.0
C1044 C 0.37124 0.36139 0.57222 0.0
C1045 C 0.38887 0.39145 0.57814 0.0
C1046 C 0.39869 0.41195 0.55525 0.0
C1047 C 0.37168 0.37863 0.5226 0.0
C1048 C 0.35925 0.35723 0.54411 0.0
H1049 H 0.40823 0.43701 0.5595 0.0
H1050 H 0.36283 0.37539 0.50096 0.0
H1051 H 0.48785 0.35309 0.57315 0.0
H1052 H 0.50104 0.45846 0.58046 0.0
H1053 H 0.38257 0.29145 0.45097 0.0
H1054 H 0.39523 0.39896 0.59968 0.0
H1055 H 0.34134 0.33754 0.53869 0.0
C1056 C 0.07561 0.14319 0.11391 0.0
C1057 C 0.10469 0.14757 0.09698 0.0
C1058 C 0.07704 0.1467 0.14378 0.0
C1059 C 0.1075 0.15504 0.15766 0.0
H1060 H 0.05145 0.13811 0.10392 0.0
H1061 H 0.05409 0.14358 0.15612 0.0
S1062 S 0.19143 0.16461 0.12356 0.0
N1063 N 0.16539 0.15735 0.09668 0.0
N1064 N 0.16777 0.16451 0.15265 0.0
C1065 C 0.13686 0.1584 0.14112 0.0
C1066 C 0.13552 0.1545 0.11083 0.0
C1067 C 0.07444 0.87482 0.38594 0.0
C1068 C 0.10307 0.86953 0.40342 0.0
C1069 C 0.07675 0.87333 0.35606 0.0
C1070 C 0.10751 0.86566 0.34253 0.0
H1071 H 0.0499 0.87985 0.39524 0.0
H1072 H 0.05426 0.87771 0.34339 0.0
S1073 S 0.19049 0.85229 0.37694 0.0
N1074 N 0.16415 0.85923 0.40366 0.0
N1075 N 0.16717 0.85399 0.34781 0.0
C1076 C 0.1362 0.86034 0.35929 0.0
C1077 C 0.13432 0.86289 0.38963 0.0
C1078 C 0.3996 0.8194 0.62283 0.0
C1079 C 0.38878 0.84987 0.63573 0.0
C1080 C 0.40641 0.81756 0.59333 0.0
C1081 C 0.40309 0.8462 0.57564 0.0
H1082 H 0.40373 0.79702 0.63571 0.0
H1083 H 0.41525 0.79383 0.5844 0.0
S1084 S 0.37159 0.93073 0.59752 0.0
N1085 N 0.37158 0.90837 0.62728 0.0
N1086 N 0.38595 0.905 0.57249 0.0
C1087 C 0.39148 0.87644 0.58798 0.0
C1088 C 0.38392 0.87824 0.61779 0.0
C1089 C 0.38971 0.19422 0.85713 0.0
C1090 C 0.39278 0.16345 0.84215 0.0
C1091 C 0.3918 0.19529 0.88705 0.0
C1092 C 0.39731 0.1657 0.90321 0.0
H1093 H 0.3864 0.21776 0.84561 0.0
H1094 H 0.38946 0.21954 0.89769 0.0
S1095 S 0.40391 0.07837 0.87479 0.0
N1096 N 0.39919 0.10228 0.84614 0.0
N1097 N 0.40386 0.10463 0.90225 0.0
C1098 C 0.40002 0.13476 0.88864 0.0
C1099 C 0.39752 0.13355 0.85818 0.0
C1100 C 0.90873 0.81142 0.90032 0.0
C1101 C 0.90707 0.84175 0.91631 0.0
C1102 C 0.90212 0.81092 0.87066 0.0
C1103 C 0.89332 0.8407 0.85582 0.0
H1104 H 0.91615 0.78805 0.91067 0.0
H1105 H 0.90506 0.78732 0.85912 0.0
S1106 S 0.88059 0.92562 0.88857 0.0
N1107 N 0.89298 0.90154 0.91541 0.0
N1108 N 0.87979 0.90063 0.86031 0.0
C1109 C 0.89005 0.8708 0.87192 0.0
C1110 C 0.89715 0.87134 0.90192 0.0
C1111 C 0.90976 0.18174 0.63487 0.0
C1112 C 0.89833 0.15584 0.653 0.0
C1113 C 0.90786 0.17809 0.60509 0.0
C1114 C 0.89373 0.14883 0.59288 0.0
H1115 H 0.92084 0.20446 0.64383 0.0
H1116 H 0.91719 0.1982 0.59149 0.0
S1117 S 0.85998 0.07435 0.63133 0.0
N1118 N 0.87265 0.10029 0.65686 0.0
N1119 N 0.86818 0.09385 0.60091 0.0
C1120 C 0.88185 0.12312 0.61084 0.0
C1121 C 0.88438 0.12653 0.64097 0.0
C1122 C 0.58257 0.13426 0.35451 0.0
C1123 C 0.59755 0.16352 0.34281 0.0
C1124 C 0.58276 0.12835 0.38413 0.0
C1125 C 0.59799 0.1515 0.40291 0.0
H1126 H 0.57133 0.11549 0.3406 0.0
H1127 H 0.57194 0.10512 0.39233 0.0
S1128 S 0.6365 0.2339 0.38367 0.0
N1129 N 0.62503 0.21729 0.35281 0.0
N1130 N 0.62566 0.20593 0.4082 0.0
C1131 C 0.61193 0.1813 0.3916 0.0
C1132 C 0.61169 0.18737 0.36162 0.0
C1133 C 0.56958 0.88654 0.1105 0.0
C1134 C 0.59083 0.86937 0.09126 0.0
C1135 C 0.5732 0.8822 0.14006 0.0
C1136 C 0.59767 0.86002 0.15138 0.0
H1137 H 0.55139 0.90488 0.10271 0.0
H1138 H 0.55757 0.89717 0.1543 0.0
S1139 S 0.65707 0.80648 0.10996 0.0
N1140 N 0.63536 0.82733 0.08548 0.0
N1141 N 0.64192 0.81909 0.14109 0.0
C1142 C 0.61764 0.84116 0.13236 0.0
C1143 C 0.6143 0.8459 0.10227 0.0
C1144 C 0.61841 0.65985 0.61455 0.0
C1145 C 0.59918 0.63364 0.60215 0.0
C1146 C 0.61802 0.66558 0.64418 0.0
C1147 C 0.59855 0.64512 0.66243 0.0
H1148 H 0.63309 0.67662 0.60111 0.0
H1149 H 0.63199 0.68687 0.65272 0.0
S1150 S 0.5477 0.57032 0.641 0.0
N1151 N 0.56267 0.58535 0.61065 0.0
N1152 N 0.5624 0.59555 0.66622 0.0
C1153 C 0.58051 0.61791 0.65036 0.0
C1154 C 0.58064 0.61235 0.62026 0.0
C1155 C 0.63022 0.33777 0.89055 0.0
C1156 C 0.61424 0.36594 0.90316 0.0
C1157 C 0.62922 0.33254 0.86092 0.0
C1158 C 0.61249 0.35551 0.84277 0.0
H1159 H 0.64322 0.31946 0.90382 0.0
H1160 H 0.64114 0.31006 0.85225 0.0
S1161 S 0.57008 0.43532 0.86523 0.0
N1162 N 0.58301 0.41801 0.89538 0.0
N1163 N 0.58205 0.40908 0.83967 0.0
C1164 C 0.59723 0.3843 0.85519 0.0
C1165 C 0.59784 0.38928 0.88537 0.0
C1166 C 0.88752 0.38304 0.1265 0.0
C1167 C 0.89747 0.35768 0.1459 0.0
C1168 C 0.89515 0.38037 0.09736 0.0
C1169 C 0.91278 0.35216 0.08664 0.0
H1170 H 0.87308 0.40471 0.13382 0.0
H1171 H 0.88643 0.39999 0.08298 0.0
S1172 S 0.94861 0.28133 0.12893 0.0
N1173 N 0.92896 0.30529 0.15264 0.0
N1174 N 0.9427 0.30004 0.09783 0.0
C1175 C 0.92385 0.32724 0.10589 0.0
C1176 C 0.91632 0.33004 0.13553 0.0
C1177 C 0.88944 0.62677 0.36114 0.0
C1178 C 0.89755 0.65542 0.34426 0.0
C1179 C 0.89884 0.62444 0.39012 0.0
C1180 C 0.9165 0.65077 0.40362 0.0
H1181 H 0.87503 0.60612 0.35208 0.0
H1182 H 0.89114 0.60249 0.40234 0.0
S1183 S 0.94724 0.72957 0.3692 0.0
N1184 N 0.92719 0.70939 0.3434 0.0
N1185 N 0.94373 0.70535 0.39776 0.0
C1186 C 0.92555 0.6791 0.38702 0.0
C1187 C 0.91633 0.68138 0.35747 0.0
C1188 C 0.37297 0.32523 0.39602 0.0
C1189 C 0.40147 0.34009 0.4092 0.0
C1190 C 0.3691 0.32504 0.36614 0.0
C1191 C 0.39347 0.3399 0.34829 0.0
H1192 H 0.35317 0.31415 0.40896 0.0
H1193 H 0.3465 0.31407 0.35694 0.0
S1194 S 0.47447 0.37839 0.37121 0.0
N1195 N 0.45588 0.36727 0.40136 0.0
N1196 N 0.44811 0.3675 0.34549 0.0
C1197 C 0.42239 0.35402 0.361 0.0
C1198 C 0.42651 0.35402 0.39134 0.0
C1199 C 0.42793 0.65593 0.10683 0.0
C1200 C 0.3999 0.65063 0.08867 0.0
C1201 C 0.42371 0.66035 0.13652 0.0
C1202 C 0.39136 0.66013 0.14904 0.0
H1203 H 0.45327 0.65678 0.09812 0.0
H1204 H 0.44584 0.66347 0.14988 0.0
S1205 S 0.31004 0.64497 0.11254 0.0
N1206 N 0.33857 0.64303 0.08685 0.0
N1207 N 0.33135 0.65321 0.14198 0.0
C1208 C 0.36337 0.65485 0.13149 0.0
C1209 C 0.36744 0.64967 0.10151 0.0
C1210 C 0.12139 0.66523 0.88035 0.0
C1211 C 0.10536 0.63768 0.89369 0.0
C1212 C 0.11972 0.66967 0.85066 0.0
C1213 C 0.10217 0.64652 0.83324 0.0
H1214 H 0.13472 0.68382 0.89308 0.0
H1215 H 0.13162 0.69174 0.84136 0.0
S1216 S 0.0594 0.56801 0.85773 0.0
N1217 N 0.0734 0.58583 0.88732 0.0
N1218 N 0.07096 0.59345 0.83153 0.0
C1219 C 0.08693 0.6183 0.84637 0.0
C1220 C 0.08832 0.61407 0.87658 0.0
C1221 C 0.10308 0.31917 0.63765 0.0
C1222 C 0.10849 0.35013 0.6515 0.0
C1223 C 0.10001 0.31755 0.60791 0.0
C1224 C 0.10292 0.34678 0.59065 0.0
H1225 H 0.10015 0.29621 0.65006 0.0
H1226 H 0.09466 0.29311 0.59853 0.0
S1227 S 0.11959 0.43387 0.61728 0.0
N1228 N 0.11745 0.41052 0.64648 0.0
N1229 N 0.11345 0.4076 0.59032 0.0
C1230 C 0.10907 0.37793 0.60446 0.0
C1231 C 0.11149 0.37954 0.63491 0.0
C1232 C 0.96397 0.24823 0.25001 0.0
C1233 C 0.96375 0.2804 0.23729 0.0
C1234 C 0.99444 0.23055 0.25422 0.0
C1235 C 0.02605 0.2443 0.2461 0.0
H1236 H 0.94061 0.23694 0.25744 0.0
H1237 H 0.99313 0.20593 0.26436 0.0
S1238 S 0.03943 0.32694 0.21065 0.0
N1239 N 0.99809 0.32472 0.21538 0.0
N1240 N 0.05505 0.29155 0.22405 0.0
C1241 C 0.02624 0.27625 0.2332 0.0
C1242 C 0.9952 0.29417 0.22853 0.0
C1243 C 0.03041 0.7337 0.4721 0.0
C1244 C 0.00784 0.71793 0.49104 0.0
C1245 C 0.03715 0.76851 0.47387 0.0
C1246 C 0.02129 0.78937 0.49435 0.0
H1247 H 0.04401 0.7188 0.4564 0.0
H1248 H 0.05652 0.77894 0.46005 0.0
S1249 S 0.95661 0.76206 0.54655 0.0
N1250 N 0.96657 0.72712 0.52898 0.0
N1251 N 0.98022 0.79238 0.53267 0.0
C1252 C 0.99723 0.77458 0.51237 0.0
C1253 C 0.99033 0.73892 0.51066 0.0
C1254 C 0.50137 0.79013 0.72622 0.0
C1255 C 0.47007 0.77561 0.7346 0.0
C1256 C 0.53268 0.77703 0.73557 0.0
C1257 C 0.53406 0.74907 0.75399 0.0
H1258 H 0.50183 0.81259 0.71297 0.0
H1259 H 0.5558 0.78956 0.72908 0.0
S1260 S 0.45996 0.69885 0.77923 0.0
N1261 N 0.44317 0.72935 0.75982 0.0
N1262 N 0.50114 0.70525 0.77812 0.0
C1263 C 0.50301 0.73334 0.7614 0.0
C1264 C 0.47132 0.74639 0.75151 0.0
C1265 C 0.51434 0.2417 0.0187 0.0
C1266 C 0.50279 0.22661 0.99331 0.0
C1267 C 0.53021 0.2735 0.01868 0.0
C1268 C 0.535 0.2918 0.99325 0.0
H1269 H 0.50934 0.2297 0.03904 0.0
H1270 H 0.53867 0.28357 0.03886 0.0
S1271 S 0.51004 0.26348 0.92088 0.0
N1272 N 0.49712 0.23257 0.94203 0.0
N1273 N 0.52843 0.29174 0.94178 0.0
C1274 C 0.52455 0.27661 0.96759 0.0
C1275 C 0.50798 0.2443 0.96767 0.0
C1276 C 0.99844 0.72708 0.27723 0.0
C1277 C 0.97182 0.73722 0.25888 0.0
C1278 C 0.03061 0.74246 0.27609 0.0
C1279 C 0.03738 0.76789 0.25602 0.0
H1280 H 0.99422 0.7073 0.29285 0.0
H1281 H 0.04973 0.73528 0.29149 0.0
S1282 S 0.9779 0.80147 0.20145 0.0
N1283 N 0.95549 0.77364 0.21959 0.0
N1284 N 0.01587 0.80064 0.21592 0.0
C1285 C 0.01147 0.77706 0.23679 0.0
C1286 C 0.9787 0.76239 0.23867 0.0
C1287 C 0.49755 0.71968 0.48832 0.0
C1288 C 0.51978 0.71447 0.51124 0.0
C1289 C 0.48968 0.75256 0.47889 0.0
C1290 C 0.50308 0.78179 0.49228 0.0
H1291 H 0.48781 0.69833 0.47637 0.0
H1292 H 0.47337 0.7549 0.46044 0.0
S1293 S 0.55789 0.7819 0.55636 0.0
N1294 N 0.55195 0.74135 0.54927 0.0
N1295 N 0.53648 0.80297 0.53185 0.0
C1296 C 0.52317 0.77694 0.51659 0.0
C1297 C 0.53151 0.74341 0.52603 0.0
C1298 C 0.50127 0.24227 0.76347 0.0
C1299 C 0.47352 0.24726 0.74477 0.0
C1300 C 0.53463 0.25124 0.75574 0.0
C1301 C 0.54171 0.26517 0.72883 0.0
H1302 H 0.4972 0.23189 0.78457 0.0
H1303 H 0.55456 0.24904 0.77149 0.0
S1304 S 0.47924 0.28149 0.67108 0.0
N1305 N 0.45638 0.26651 0.69767 0.0
N1306 N 0.51865 0.28129 0.68266 0.0
C1307 C 0.51456 0.26855 0.70942 0.0
C1308 C 0.48066 0.26029 0.7175 0.0
C1309 C 0.00759 0.22617 0.9689 0.0
C1310 C 0.01282 0.21927 -0.00191 0.0
C1311 C 1.00481 0.25953 0.9586 0.0
C1312 C 0.00584 0.28763 0.97709 0.0
H1313 H 0.00587 0.2057 0.95366 0.0
H1314 H 1.00137 0.26329 0.93589 0.0
S1315 S 0.01456 0.28421 0.05574 0.0
N1316 N 0.01654 0.24414 0.04564 0.0
N1317 N 0.00925 0.30645 0.02624 0.0
C1318 C 0.00876 0.28127 0.00647 0.0
C1319 C 0.01264 0.24728 0.01697 0.0
C1320 C 1.00231 0.76438 0.76654 0.0
C1321 C 0.9721 0.75785 0.75123 0.0
C1322 C 0.03432 0.75405 0.75639 0.0
C1323 C 0.03778 0.73669 0.73036 0.0
H1324 H 1.00145 0.77789 0.78665 0.0
H1325 H 0.05641 0.75922 0.76934 0.0
S1326 S 0.96734 0.71384 0.68126 0.0
N1327 N 0.94855 0.73297 0.70827 0.0
N1328 N 0.00805 0.71412 0.68898 0.0
C1329 C 0.00792 0.73026 0.71464 0.0
C1330 C 0.97537 0.74057 0.7251 0.0
C1331 C 0.02088 0.25456 0.47338 0.0
C1332 C 0.01181 0.28609 0.48572 0.0
C1333 C 1.00395 0.22433 0.48022 0.0
C1334 C 0.97686 0.22412 0.49958 0.0
H1335 H 0.0412 0.25302 0.45791 0.0
H1336 H 0.01134 0.20127 0.46932 0.0
S1337 S 0.94436 0.29878 0.53973 0.0
N1338 N 0.97497 0.31443 0.51969 0.0
N1339 N 0.94293 0.25786 0.53245 0.0
C1340 C 0.96813 0.25518 0.51281 0.0
C1341 C 0.98553 0.28602 0.50591 0.0
C1342 C 0.4842 0.24884 0.23297 0.0
C1343 C 0.47346 0.26405 0.25868 0.0
C1344 C 0.51898 0.24559 0.22653 0.0
C1345 C 0.54393 0.25624 0.24603 0.0
H1346 H 0.46597 0.24263 0.21657 0.0
H1347 H 0.52633 0.23707 0.20543 0.0
S1348 S 0.52912 0.29025 0.31847 0.0
N1349 N 0.49077 0.28468 0.30529 0.0
N1350 N 0.55563 0.27731 0.29346 0.0
C1351 C 0.53348 0.2673 0.27298 0.0
C1352 C 0.49834 0.2712 0.27935 0.0
C1353 C 0.48936 0.79335 0.01444 0.0
C1354 C 0.51893 0.799 -0.00129 0.0
C1355 C 0.47556 0.76066 0.01664 0.0
C1356 C 0.49053 0.73231 0.00299 0.0
H1357 H 0.47722 0.81412 0.02561 0.0
H1358 H 0.45258 0.75767 0.02901 0.0
S1359 S 0.56711 0.73451 0.95727 0.0
N1360 N 0.56221 0.77403 0.96815 0.0
N1361 N 0.53596 0.71289 0.97207 0.0
C1362 C 0.52001 0.7378 0.98695 0.0
C1363 C 0.53416 0.77106 0.9848 0.0
C1364 C 0.98621 0.28475 0.75994 0.0
C1365 C 0.96826 0.25413 0.75655 0.0
C1366 C 0.02193 0.28578 0.75961 0.0
C1367 C 0.04171 0.25624 0.75579 0.0
H1368 H 0.97259 0.30833 0.76293 0.0
H1369 H 0.03405 0.31019 0.76209 0.0
S1370 S 0.00763 0.16935 0.74584 0.0
N1371 N 0.97363 0.19339 0.74898 0.0
N1372 N 0.04018 0.19526 0.74875 0.0
C1373 C 0.02414 0.22543 0.7525 0.0
C1374 C 0.98773 0.22439 0.7528 0.0
C1375 C 0.51182 0.28088 0.49316 0.0
C1376 C 0.48958 0.28373 0.51645 0.0
C1377 C 0.5269 0.24966 0.48602 0.0
C1378 C 0.52024 0.21977 0.50166 0.0
H1379 H 0.51775 0.30291 0.48034 0.0
H1380 H 0.54453 0.2491 0.4683 0.0
S1381 S 0.46398 0.2134 0.56482 0.0
N1382 N 0.4619 0.25363 0.55544 0.0
N1383 N 0.4895 0.19537 0.54144 0.0
C1384 C 0.49748 0.22214 0.52459 0.0
C1385 C 0.48248 0.25397 0.53217 0.0
C1386 C 0.47513 0.76622 0.25488 0.0
C1387 C 0.47181 0.7392 0.23575 0.0
C1388 C 0.50643 0.78171 0.25939 0.0
C1389 C 0.53607 0.77119 0.24484 0.0
H1390 H 0.45375 0.77465 0.2675 0.0
H1391 H 0.50724 0.80188 0.27505 0.0
S1392 S 0.54022 0.70351 0.19012 0.0
N1393 N 0.50024 0.70374 0.20049 0.0
N1394 N 0.55926 0.73338 0.20888 0.0
C1395 C 0.53291 0.74504 0.22473 0.0
C1396 C 0.5008 0.729 0.2202 0.0
C1397 C 0.00546 0.72351 0.00804 0.0
C1398 C 0.02688 0.71815 0.98458 0.0
C1399 C 0.99655 0.75646 0.01666 0.0
C1400 C 0.00808 0.78559 0.00193 0.0
H1401 H 0.9972 0.70236 0.02098 0.0
H1402 H 0.98092 0.75893 0.03554 0.0
S1403 S 0.0602 0.7849 0.9362 0.0
N1404 N 0.0564 0.7445 0.94479 0.0
N1405 N 0.03888 0.80623 0.96067 0.0
C1406 C 0.0274 0.78043 0.97719 0.0
C1407 C 0.03683 0.74683 0.96858 0.0
C1408 C 0.17832 0.3256 0.35342 0.0
C1409 C 0.14941 0.31328 0.33914 0.0
C1410 C 0.17565 0.34899 0.37585 0.0
C1411 C 0.14404 0.36172 0.38441 0.0
H1412 H 0.20306 0.3153 0.34853 0.0
H1413 H 0.19815 0.35525 0.38793 0.0
S1414 S 0.06118 0.34236 0.35123 0.0
N1415 N 0.0885 0.31884 0.33326 0.0
N1416 N 0.08375 0.36377 0.37476 0.0
C1417 C 0.1154 0.35258 0.36838 0.0
C1418 C 0.11799 0.32819 0.34582 0.0
C1419 C 0.96333 0.90774 0.65188 0.0
C1420 C 0.93233 0.89059 0.65015 0.0
C1421 C 0.98008 0.91854 0.62723 0.0
C1422 C 0.96665 0.91215 0.59994 0.0
H1423 H 0.97544 0.91144 0.67238 0.0
H1424 H 1.00461 0.9304 0.62954 0.0
S1425 S 0.88516 0.87013 0.58407 0.0
N1426 N 0.88787 0.86921 0.61926 0.0
N1427 N 0.91965 0.88956 0.57271 0.0
C1428 C 0.93504 0.89623 0.59797 0.0
C1429 C 0.91775 0.88551 0.62316 0.0
C1430 C 0.36576 0.72559 0.89128 0.0
C1431 C 0.38128 0.69414 0.88651 0.0
C1432 C 0.35407 0.74503 0.8685 0.0
C1433 C 0.35791 0.73376 0.84021 0.0
H1434 H 0.3641 0.73588 0.91269 0.0
H1435 H 0.34364 0.76986 0.87299 0.0
S1436 S 0.39342 0.65133 0.81696 0.0
N1437 N 0.39756 0.65109 0.85205 0.0
N1438 N 0.37528 0.68785 0.80886 0.0
C1439 C 0.37177 0.70151 0.83529 0.0
C1440 C 0.3835 0.68156 0.85859 0.0
C1441 C 0.52588 0.11035 0.1258 0.0
C1442 C 0.52963 0.12479 0.09851 0.0
C1443 C 0.55166 0.11223 0.14591 0.0
C1444 C 0.58171 0.12928 0.13952 0.0
H1445 H 0.502 0.09938 0.13233 0.0
H1446 H 0.54643 0.1039 0.16751 0.0
S1447 S 0.60705 0.16432 0.06936 0.0
N1448 N 0.56793 0.15079 0.06445 0.0
N1449 N 0.61645 0.15565 0.10294 0.0
C1450 C 0.58731 0.14047 0.11142 0.0
C1451 C 0.56103 0.13832 0.0908 0.0
C1452 C 0.15292 0.69801 0.10467 0.0
C1453 C 0.12674 0.67439 0.10568 0.0
C1454 C 0.158 0.72026 0.12725 0.0
C1455 C 0.13748 0.71926 0.15195 0.0
H1456 H 0.16767 0.70123 0.08534 0.0
H1457 H 0.1771 0.73957 0.1245 0.0
S1458 S 0.06787 0.65894 0.16581 0.0
N1459 N 0.08122 0.6493 0.13336 0.0
N1460 N 0.09216 0.69027 0.17696 0.0
C1461 C 0.11256 0.69418 0.15389 0.0
C1462 C 0.10698 0.67179 0.13053 0.0
C1463 C 0.61639 0.91925 0.37112 0.0
C1464 C 0.62969 0.88725 0.36465 0.0
C1465 C 0.59193 0.92318 0.39233 0.0
C1466 C 0.58039 0.89541 0.40873 0.0
H1467 H 0.62173 0.94061 0.35729 0.0
H1468 H 0.58036 0.9479 0.39403 0.0
S1469 S 0.61458 0.80805 0.40506 0.0
N1470 N 0.63425 0.82836 0.37907 0.0
N1471 N 0.5899 0.83625 0.42072 0.0
C1472 C 0.59692 0.86415 0.40493 0.0
C1473 C 0.62144 0.86003 0.38268 0.0
C1474 C 0.35804 0.31895 0.64489 0.0
C1475 C 0.35975 0.28434 0.63813 0.0
C1476 C 0.36092 0.34378 0.6235 0.0
C1477 C 0.36615 0.33485 0.59461 0.0
H1478 H 0.35362 0.32675 0.66673 0.0
H1479 H 0.35864 0.37011 0.62971 0.0
S1480 S 0.3757 0.24707 0.56681 0.0
N1481 N 0.36852 0.24215 0.60125 0.0
N1482 N 0.37536 0.28834 0.56123 0.0
C1483 C 0.3688 0.30008 0.58794 0.0
C1484 C 0.36533 0.27498 0.60963 0.0
C1485 C 0.95401 0.12355 0.90717 0.0
C1486 C 0.97318 0.0935 0.90586 0.0
C1487 C 0.93341 0.13316 0.88448 0.0
C1488 C 0.93155 0.11322 0.8597 0.0
H1489 H 0.95743 0.14155 0.92433 0.0
H1490 H 0.92158 0.15796 0.88511 0.0
S1491 S 0.9675 0.02746 0.8497 0.0
N1492 N 0.98154 0.03974 0.88124 0.0
N1493 N 0.94399 0.05898 0.83762 0.0
C1494 C 0.94636 0.081 0.85982 0.0
C1495 C 0.967 0.07087 0.88321 0.0
C1496 C 0.84577 0.73472 0.62107 0.0
C1497 C 0.85222 0.72521 0.64955 0.0
C1498 C 0.85607 0.71426 0.59826 0.0
C1499 C 0.87308 0.68367 0.60322 0.0
H1500 H 0.83479 0.75917 0.61621 0.0
H1501 H 0.85307 0.72364 0.57668 0.0
S1502 S 0.89172 0.64474 0.67332 0.0
N1503 N 0.87271 0.68086 0.6812 0.0
N1504 N 0.89335 0.64308 0.63812 0.0
C1505 C 0.87763 0.67267 0.6314 0.0
C1506 C 0.86689 0.69331 0.65465 0.0
C1507 C 0.05259 0.12526 0.40972 0.0
C1508 C 0.02488 0.1047 0.4023 0.0
C1509 C 0.07449 0.1377 0.38882 0.0
C1510 C 0.06966 0.12923 0.3601 0.0
H1511 H 0.05626 0.13324 0.4316 0.0
H1512 H 0.094 0.15558 0.39487 0.0
S1513 S 1.00336 0.07437 0.32942 0.0
N1514 N 0.99529 0.07513 0.36398 0.0
N1515 N 0.03763 0.09762 0.32509 0.0
C1516 C 0.04398 0.10669 0.35257 0.0
C1517 C 0.02126 0.0945 0.37364 0.0
C1518 C 0.67249 0.29086 0.09987 0.0
C1519 C 0.65996 0.32382 0.10384 0.0
C1520 C 0.68241 0.27112 0.12315 0.0
C1521 C 0.67972 0.28359 0.15119 0.0
H1522 H 0.67252 0.27954 0.0788 0.0
H1523 H 0.68971 0.24507 0.11927 0.0
S1524 S 0.65236 0.36985 0.17242 0.0
N1525 N 0.6482 0.36934 0.13733 0.0
N1526 N 0.66731 0.33218 0.18131 0.0
C1527 C 0.66961 0.31742 0.1552 0.0
C1528 C 0.6596 0.33759 0.13143 0.0
C1529 C 0.47373 0.92569 0.86713 0.0
C1530 C 0.46266 0.91506 0.89429 0.0
C1531 C 0.457 0.91546 0.84232 0.0
C1532 C 0.4284 0.89462 0.84381 0.0
H1533 H 0.49643 0.94078 0.86492 0.0
H1534 H 0.46731 0.92268 0.82177 0.0
S1535 S 0.38812 0.86119 0.90936 0.0
N1536 N 0.42042 0.88378 0.92111 0.0
N1537 N 0.389 0.86425 0.8742 0.0
C1538 C 0.41635 0.88464 0.8707 0.0
C1539 C 0.43351 0.89491 0.89602 0.0
C1540 C 0.83749 0.28475 0.90156 0.0
C1541 C 0.84972 0.3173 0.89566 0.0
C1542 C 0.83067 0.26216 0.87935 0.0
C1543 C 0.83593 0.27162 0.85073 0.0
H1544 H 0.83694 0.27547 0.92331 0.0
H1545 H 0.82436 0.23626 0.88475 0.0
S1546 S 0.85978 0.35671 0.82449 0.0
N1547 N 0.86131 0.35993 0.85963 0.0
N1548 N 0.84753 0.31753 0.81768 0.0
C1549 C 0.84401 0.30541 0.84464 0.0
C1550 C 0.85102 0.32835 0.86723 0.0
C1551 C 0.48503 0.08162 0.62652 0.0
C1552 C 0.47903 0.09226 0.59827 0.0
C1553 C 0.463 0.09044 0.64853 0.0
C1554 C 0.43432 0.11017 0.64304 0.0
H1555 H 0.50832 0.06898 0.63231 0.0
H1556 H 0.47019 0.0847 0.67032 0.0
S1557 S 0.40298 0.13835 0.57257 0.0
N1558 N 0.43869 0.11816 0.56551 0.0
N1559 N 0.39809 0.1363 0.60754 0.0
C1560 C 0.42599 0.11806 0.61478 0.0
C1561 C 0.44824 0.10874 0.59218 0.0
C1562 C 0.6447 0.73381 0.37667 0.0
C1563 C 0.62856 0.729 0.35027 0.0
C1564 C 0.64033 0.71091 0.39894 0.0
C1565 C 0.62043 0.68198 0.39517 0.0
H1566 H 0.66059 0.75576 0.38009 0.0
H1567 H 0.65122 0.71665 0.4196 0.0
S1568 S 0.57666 0.65555 0.32898 0.0
N1569 N 0.59475 0.69193 0.32061 0.0
N1570 N 0.58626 0.64825 0.36277 0.0
C1571 C 0.60546 0.67593 0.36848 0.0
C1572 C 0.60959 0.69964 0.34589 0.0
C1573 C 0.12215 0.87205 0.11109 0.0
C1574 C 0.12493 0.89556 0.13363 0.0
C1575 C 0.09762 0.87603 0.08961 0.0
C1576 C 0.0751 0.90362 0.09003 0.0
H1577 H 0.13649 0.84863 0.11178 0.0
H1578 H 0.09523 0.85669 0.07335 0.0
S1579 S 0.07339 0.97282 0.14409 0.0
N1580 N 0.1052 0.94837 0.15388 0.0
N1581 N 0.05811 0.95535 0.11484 0.0
C1582 C 0.07928 0.92844 0.1115 0.0
C1583 C 0.10477 0.92475 0.13273 0.0
C1584 C 0.62119 0.82175 0.84325 0.0
C1585 C 0.64177 0.79449 0.8515 0.0
C1586 C 0.61423 0.84804 0.86232 0.0
C1587 C 0.62768 0.84755 0.89005 0.0
H1588 H 0.60932 0.82194 0.82243 0.0
H1589 H 0.59574 0.86709 0.85638 0.0
S1590 S 0.68512 0.78343 0.92102 0.0
N1591 N 0.67747 0.76979 0.88834 0.0
N1592 N 0.66437 0.81959 0.92412 0.0
C1593 C 0.65056 0.82206 0.89764 0.0
C1594 C 0.65749 0.79522 0.87838 0.0
C1595 C 0.47639 0.40214 0.15199 0.0
C1596 C 0.44782 0.38214 0.14691 0.0
C1597 C 0.49701 0.41255 0.12944 0.0
C1598 C 0.48984 0.40298 0.10111 0.0
H1599 H 0.48375 0.40831 0.17365 0.0
H1600 H 0.51968 0.42668 0.13443 0.0
S1601 S 0.41588 0.35307 0.07684 0.0
N1602 N 0.4119 0.35463 0.11192 0.0
N1603 N 0.45044 0.37475 0.06917 0.0
C1604 C 0.46031 0.38428 0.09573 0.0
C1605 C 0.43931 0.37372 0.11876 0.0
C1606 C 0.86351 0.18289 0.3616 0.0
C1607 C 0.85952 0.19517 0.38954 0.0
C1608 C 0.85498 0.20317 0.3381 0.0
C1609 C 0.84223 0.23611 0.34205 0.0
H1610 H 0.87485 0.15825 0.35792 0.0
H1611 H 0.85904 0.19347 0.31675 0.0
S1612 S 0.82832 0.27968 0.41134 0.0
N1613 N 0.84241 0.24169 0.42007 0.0
N1614 N 0.82666 0.28009 0.37614 0.0
C1615 C 0.83752 0.2482 0.37004 0.0
C1616 C 0.84612 0.2276 0.39376 0.0
C1617 C 0.06327 0.57735 0.61644 0.0
C1618 C 0.05126 0.60445 0.5997 0.0
C1619 C 0.08746 0.58243 0.63789 0.0
C1620 C 0.10081 0.61478 0.64323 0.0
H1621 H 0.05348 0.55204 0.61319 0.0
H1622 H 0.09546 0.56097 0.65064 0.0
S1623 S 0.07689 0.69457 0.60654 0.0
N1624 N 0.0539 0.66512 0.59075 0.0
N1625 N 0.09989 0.67449 0.6306 0.0
C1626 C 0.08952 0.64204 0.62639 0.0
C1627 C 0.06465 0.63694 0.60472 0.0
C1628 C 0.67418 0.2434 0.62201 0.0
C1629 C 0.67742 0.22813 0.64896 0.0
C1630 C 0.66196 0.22508 0.59868 0.0
C1631 C 0.65303 0.19081 0.60147 0.0
H1632 H 0.67916 0.27019 0.61938 0.0
H1633 H 0.65792 0.23818 0.57865 0.0
S1634 S 0.65941 0.13877 0.66699 0.0
N1635 N 0.67263 0.17671 0.67683 0.0
N1636 N 0.65 0.14179 0.63273 0.0
C1637 C 0.65791 0.17477 0.62788 0.0
C1638 C 0.66995 0.19362 0.65174 0.0
C1639 C 0.03406 0.423 0.83866 0.0
C1640 C 0.06697 0.41201 0.84478 0.0
C1641 C 0.01162 0.43111 0.86065 0.0
C1642 C 0.02146 0.42835 0.88946 0.0
H1643 H 0.02457 0.42187 0.81699 0.0
H1644 H 0.98559 0.43622 0.85498 0.0
S1645 S 0.10764 0.40817 0.91576 0.0
N1646 N 0.11022 0.40364 0.88077 0.0
N1647 N 0.06846 0.42057 0.92237 0.0
C1648 C 0.05567 0.42153 0.8955 0.0
C1649 C 0.07839 0.41289 0.87304 0.0
C1650 C 0.84449 0.81348 0.1347 0.0
C1651 C 0.86928 0.79214 0.14678 0.0
C1652 C 0.85291 0.83739 0.1136 0.0
C1653 C 0.88641 0.84058 0.10393 0.0
H1654 H 0.81846 0.81174 0.1418 0.0
H1655 H 0.83329 0.85369 0.10509 0.0
S1656 S 0.9594 0.78709 0.12539 0.0
N1657 N 0.92775 0.77341 0.14531 0.0
N1658 N 0.94372 0.8182 0.10589 0.0
C1659 C 0.91112 0.8186 0.11519 0.0
C1660 C 0.90256 0.79445 0.13659 0.0
C1661 C 0.42469 0.62634 0.37868 0.0
C1662 C 0.43854 0.62211 0.35128 0.0
C1663 C 0.4428 0.61618 0.40295 0.0
C1664 C 0.475 0.60135 0.40033 0.0
H1665 H 0.40057 0.63905 0.38138 0.0
H1666 H 0.43196 0.62041 0.42388 0.0
S1667 S 0.52127 0.58405 0.33284 0.0
N1668 N 0.48525 0.60141 0.32262 0.0
N1669 N 0.5196 0.58255 0.36801 0.0
C1670 C 0.48847 0.59609 0.37285 0.0
C1671 C 0.4701 0.60641 0.34835 0.0
C1672 C 0.32425 0.17017 0.12089 0.0
C1673 C 0.35461 0.15293 0.11512 0.0
C1674 C 0.32242 0.19434 0.14282 0.0
C1675 C 0.35091 0.20222 0.15966 0.0
H1676 H 0.3033 0.16834 0.10607 0.0
H1677 H 0.29951 0.20925 0.14483 0.0
S1678 S 0.43411 0.15894 0.15671 0.0
N1679 N 0.4118 0.14096 0.13106 0.0
N1680 N 0.40854 0.1867 0.17202 0.0
C1681 C 0.37983 0.18179 0.15667 0.0
C1682 C 0.38154 0.15688 0.13451 0.0
C1683 C 0.60612 0.644 0.8856 0.0
C1684 C 0.61603 0.61645 0.86833 0.0
C1685 C 0.58137 0.64015 0.90693 0.0
C1686 C 0.56591 0.60859 0.91167 0.0
H1687 H 0.61441 0.66939 0.88027 0.0
H1688 H 0.57188 0.66257 0.91762 0.0
S1689 S 0.58945 0.52724 0.87716 0.0
N1690 N 0.6128 0.55585 0.86065 0.0
N1691 N 0.56778 0.5481 0.9017 0.0
C1692 C 0.57919 0.58013 0.89729 0.0
C1693 C 0.60393 0.58418 0.87538 0.0
C1694 C 0.13348 0.83616 0.62946 0.0
C1695 C 0.13523 0.83054 0.59995 0.0
C1696 C 0.14017 0.80976 0.64845 0.0
C1697 C 0.14834 0.77742 0.63817 0.0
H1698 H 0.12444 0.86018 0.63774 0.0
H1699 H 0.13793 0.81416 0.67119 0.0
S1700 S 0.15769 0.75058 0.56315 0.0
N1701 N 0.14718 0.79107 0.5614 0.0
N1702 N 0.15997 0.74139 0.59749 0.0
C1703 C 0.15209 0.77204 0.60894 0.0
C1704 C 0.14556 0.7988 0.58964 0.0
C1705 C 0.93085 0.37358 0.37545 0.0
C1706 C 0.93348 0.38831 0.34824 0.0
C1707 C 0.95745 0.37606 0.39491 0.0
C1708 C 0.98713 0.39331 0.38752 0.0
H1709 H 0.90923 0.35796 0.38081 0.0
H1710 H 0.95509 0.36418 0.41563 0.0
S1711 S 0.0055 0.43727 0.31952 0.0
N1712 N 0.9671 0.4216 0.3153 0.0
N1713 N 0.0172 0.42664 0.35214 0.0
C1714 C 0.98927 0.40957 0.361 0.0
C1715 C 0.96225 0.40714 0.3413 0.0
C1716 C 0.34688 0.81361 0.35955 0.0
C1717 C 0.37202 0.79429 0.34566 0.0
C1718 C 0.35535 0.83789 0.38024 0.0
C1719 C 0.38927 0.84369 0.38764 0.0
H1720 H 0.32046 0.80985 0.35436 0.0
H1721 H 0.3353 0.85228 0.39039 0.0
S1722 S 0.46418 0.79709 0.35991 0.0
N1723 N 0.43186 0.78089 0.3423 0.0
N1724 N 0.44793 0.82637 0.38108 0.0
C1725 C 0.41457 0.8241 0.37424 0.0
C1726 C 0.40593 0.79949 0.35322 0.0
C1727 C 0.93111 0.63155 0.11412 0.0
C1728 C 0.94189 0.62419 0.14199 0.0
C1729 C 0.95089 0.62216 0.09052 0.0
C1730 C 0.98184 0.60512 0.09422 0.0
H1731 H 0.90811 0.64596 0.11067 0.0
H1732 H 0.94226 0.62864 0.06929 0.0
S1733 S 0.02073 0.58056 0.16336 0.0
N1734 N 0.98476 0.59909 0.17224 0.0
N1735 N 0.02226 0.5816 0.12816 0.0
C1736 C 0.99239 0.59713 0.12213 0.0
C1737 C 0.97228 0.60667 0.14598 0.0
C1738 C 0.1433 0.18379 0.87032 0.0
C1739 C 0.1497 0.19263 0.89885 0.0
C1740 C 0.15047 0.20639 0.84813 0.0
C1741 C 0.16399 0.23863 0.85381 0.0
H1742 H 0.13035 0.16032 0.86538 0.0
H1743 H 0.14395 0.19926 0.82652 0.0
S1744 S 0.18648 0.27275 0.92524 0.0
N1745 N 0.17176 0.2344 0.93172 0.0
N1746 N 0.18488 0.27741 0.89025 0.0
C1747 C 0.17237 0.24682 0.88223 0.0
C1748 C 0.16529 0.22362 0.90472 0.0
C1749 C 0.54026 0.38128 0.6542 0.0
C1750 C 0.57324 0.39429 0.65126 0.0
C1751 C 0.51686 0.38399 0.632 0.0
C1752 C 0.52576 0.40021 0.60657 0.0
H1753 H 0.5334 0.36678 0.67297 0.0
H1754 H 0.49189 0.37311 0.6345 0.0
S1755 S 0.6081 0.43969 0.5889 0.0
N1756 N 0.61332 0.42436 0.62142 0.0
N1757 N 0.56867 0.43082 0.57992 0.0
C1758 C 0.55802 0.41474 0.60391 0.0
C1759 C 0.58197 0.41151 0.62629 0.0
C1760 C 0.24847 0.2219 0.24091 0.0
C1761 C 0.21749 0.23976 0.2406 0.0
C1762 C 0.27923 0.23824 0.24656 0.0
C1763 C 0.28029 0.27318 0.25216 0.0
H1764 H 0.24899 0.19484 0.23701 0.0
H1765 H 0.30237 0.2235 0.24585 0.0
S1766 S 0.20645 0.33152 0.2553 0.0
N1767 N 0.18992 0.29434 0.24729 0.0
N1768 N 0.24763 0.3251 0.25785 0.0
C1769 C 0.24954 0.29137 0.25212 0.0
C1770 C 0.21821 0.27473 0.24627 0.0
C1771 C 0.02107 0.01116 0.48587 0.0
C1772 C 0.00817 0.97788 0.48654 0.0
C1773 C 1.00191 0.03891 0.49538 0.0
C1774 C 0.96881 0.03471 0.50589 0.0
H1775 H 0.0465 0.01589 0.47821 0.0
H1776 H 0.01292 0.06395 0.49371 0.0
S1777 S 0.92326 0.95293 0.51329 0.0
N1778 N 0.96011 0.94241 0.49921 0.0
N1779 N 0.92423 0.99449 0.51717 0.0
C1780 C 0.95559 1.00159 0.50687 0.0
C1781 C 0.97508 0.97328 0.49706 0.0
C1782 C 0.21985 0.75727 0.74441 0.0
C1783 C 0.22541 0.72313 0.75203 0.0
C1784 C 0.24647 0.77839 0.73566 0.0
C1785 C 0.28019 0.76677 0.73441 0.0
H1786 H 0.19442 0.76757 0.74402 0.0
H1787 H 0.2404 0.80423 0.72975 0.0
S1788 S 0.30948 0.68081 0.75535 0.0
N1789 N 0.26803 0.67947 0.75968 0.0
N1790 N 0.318 0.7194 0.74386 0.0
C1791 C 0.28646 0.73313 0.74304 0.0
C1792 C 0.25921 0.71143 0.75185 0.0
C1793 C 0.46875 0.98547 0.00092 0.0
C1794 C 0.50193 0.98957 0.01139 0.0
C1795 C 0.44863 0.01361 0.99334 0.0
C1796 C 0.46085 0.04707 0.99573 0.0
H1797 H 0.45853 0.9603 0.99769 0.0
H1798 H 0.42323 0.00902 0.9856 0.0
S1799 S 0.54615 0.07149 0.02246 0.0
N1800 N 0.54568 0.02979 0.02458 0.0
N1801 N 0.50893 0.08223 0.00933 0.0
C1802 C 0.49408 0.05137 0.00625 0.0
C1803 C 0.51422 0.02283 0.01439 0.0
C1804 C 0.2869 0.78073 0.24898 0.0
C1805 C 0.28247 0.7461 0.24265 0.0
C1806 C 0.25916 0.80173 0.25588 0.0
C1807 C 0.22587 0.78891 0.25704 0.0
H1808 H 0.31205 0.7916 0.2492 0.0
H1809 H 0.26389 0.82829 0.26006 0.0
S1810 S 0.20076 0.69976 0.24182 0.0
N1811 N 0.24212 0.70021 0.23714 0.0
N1812 N 0.19056 0.73868 0.25138 0.0
C1813 C 0.22131 0.75412 0.25097 0.0
C1814 C 0.24937 0.73307 0.24338 0.0
C1815 C 0.49198 0.03235 0.4965 0.0
C1816 C 0.52753 0.02978 0.49568 0.0
C1817 C 0.47151 1.00392 0.50219 0.0
C1818 C 0.48565 0.97169 0.50772 0.0
H1819 H 0.47975 0.05645 0.49241 0.0
H1820 H 0.44431 0.00708 0.50115 0.0
S1821 S 0.57759 0.95172 0.51034 0.0
N1822 N 0.57598 0.99227 0.50201 0.0
N1823 N 0.53788 0.9398 0.51412 0.0
C1824 C 0.52126 0.96929 0.50857 0.0
C1825 C 0.54202 0.99792 0.502 0.0
C1826 C 0.22284 0.24571 0.7499 0.0
C1827 C 0.22319 0.27876 0.73867 0.0
C1828 C 0.25311 0.22815 0.75546 0.0
C1829 C 0.28503 0.24292 0.75028 0.0
H1830 H 0.19906 0.23354 0.75506 0.0
H1831 H 0.25145 0.2026 0.76378 0.0
S1832 S 0.2999 0.32814 0.71944 0.0
N1833 N 0.25831 0.32509 0.72155 0.0
N1834 N 0.31493 0.29215 0.73215 0.0
C1835 C 0.28575 0.27585 0.73892 0.0
C1836 C 0.25494 0.29366 0.73304 0.0
C1837 C 0.01609 0.97433 0.98679 0.0
C1838 C 0.98043 0.97543 0.98734 0.0
C1839 C 0.03571 1.00262 0.99417 0.0
C1840 C 0.02095 0.03403 0.00158 0.0
H1841 H 0.02914 0.95074 0.98235 0.0
H1842 H 0.06295 0.99954 0.99419 0.0
S1843 S 0.92884 0.0526 0.0014 0.0
N1844 N 0.93119 0.01199 0.99311 0.0
N1845 N 0.96825 0.06547 0.00568 0.0
C1846 C 0.98541 0.0363 0.0003 0.0
C1847 C 0.96523 0.00714 0.99327 0.0
C1848 C 0.7487 0.77202 0.76139 0.0
C1849 C 0.78166 0.75839 0.75975 0.0
C1850 C 0.71989 0.75272 0.75479 0.0
C1851 C 0.72226 0.71838 0.74657 0.0
H1852 H 0.74496 0.79819 0.76767 0.0
H1853 H 0.6954 0.76483 0.75689 0.0
S1854 S 0.80273 0.67078 0.73673 0.0
N1855 N 0.81503 0.70869 0.74741 0.0
N1856 N 0.76096 0.67205 0.73586 0.0
C1857 C 0.75514 0.70444 0.7444 0.0
C1858 C 0.78468 0.72436 0.75088 0.0
C1859 C 0.74279 0.29469 0.23633 0.0
C1860 C 0.77557 0.28089 0.23385 0.0
C1861 C 0.71639 0.27656 0.24917 0.0
C1862 C 0.7215 0.24364 0.25994 0.0
H1863 H 0.73746 0.32001 0.2286 0.0
H1864 H 0.69156 0.28821 0.2499 0.0
S1865 S 0.80276 0.19618 0.26002 0.0
N1866 N 0.81163 0.23213 0.24375 0.0
N1867 N 0.76229 0.19855 0.26842 0.0
C1868 C 0.75424 0.22968 0.258 0.0
C1869 C 0.78106 0.24797 0.24461 0.0
C1870 C 0.78814 0.26241 0.75302 0.0
C1871 C 0.78589 0.22844 0.74417 0.0
C1872 C 0.75936 0.28053 0.76181 0.0
C1873 C 0.72685 0.26567 0.76208 0.0
H1874 H 0.81243 0.27508 0.75369 0.0
H1875 H 0.76268 0.30676 0.76802 0.0
S1876 S 0.70718 0.177 0.74173 0.0
N1877 N 0.74838 0.18035 0.73675 0.0
N1878 N 0.69448 0.21444 0.75328 0.0
C1879 C 0.72428 0.23156 0.75368 0.0
C1880 C 0.75364 0.21306 0.74464 0.0
C1881 C 0.75851 0.8007 0.23904 0.0
C1882 C 0.7251 0.78811 0.2382 0.0
C1883 C 0.78622 0.77952 0.24562 0.0
C1884 C 0.78167 0.74493 0.252 0.0
H1885 H 0.76335 0.82724 0.23489 0.0
H1886 H 0.81143 0.79024 0.24516 0.0
S1887 S 0.69964 0.6992 0.25382 0.0
N1888 N 0.68958 0.73812 0.24422 0.0
N1889 N 0.74106 0.69936 0.25802 0.0
C1890 C 0.74847 0.73212 0.25158 0.0
C1891 C 0.72045 0.75332 0.24422 0.0
C1892 C 0.48396 0.50764 0.00443 0.0
C1893 C 0.49764 0.54063 0.00378 0.0
C1894 C 0.50379 0.47894 -0.00173 0.0
C1895 C 0.53817 0.48199 0.99083 0.0
H1896 H 0.45749 0.50392 0.00955 0.0
H1897 H 0.49216 0.45418 -0.00014 0.0
S1898 S 0.58603 0.56263 0.98447 0.0
N1899 N 0.54779 0.57449 0.99459 0.0
N1900 N 0.58472 0.52092 0.98215 0.0
C1901 C 0.55208 0.51486 0.98974 0.0
C1902 C 0.53201 0.54403 0.9965 0.0
C1903 C 0.03851 0.53541 0.50049 0.0
C1904 C 1.00463 0.53383 0.49124 0.0
C1905 C 0.05736 0.50566 0.50622 0.0
C1906 C 0.0431 0.47298 0.50333 0.0
H1907 H 0.05034 0.55978 0.50403 0.0
H1908 H 0.08345 0.50839 0.51287 0.0
S1909 S 0.95536 0.45507 0.47876 0.0
N1910 N 0.95806 0.49677 0.47838 0.0
N1911 N 0.99244 0.4415 0.49019 0.0
C1912 C 0.00908 0.47127 0.49417 0.0
C1913 C 0.99026 0.50141 0.48781 0.0
C1914 C 0.04244 0.49593 0.99109 0.0
C1915 C 0.02808 0.52593 0.97993 0.0
C1916 C 0.02245 0.4678 -0.00182 0.0
C1917 C 0.9872 0.46844 0.99453 0.0
H1918 H 0.06937 0.49429 0.99514 0.0
H1919 H 0.03474 0.44546 0.00676 0.0
S1920 S 0.93739 0.5396 0.96337 0.0
N1921 N 0.97667 0.55366 0.96387 0.0
N1922 N 0.93899 0.50105 0.97689 0.0
C1923 C 0.97258 0.49798 0.9826 0.0
C1924 C 0.99301 0.52658 0.97536 0.0
C1925 C 0.45981 0.5014 0.49369 0.0
C1926 C 0.4727 0.46834 0.48967 0.0
C1927 C 0.48042 0.52802 0.50354 0.0
C1928 C 0.5149 0.52284 0.50993 0.0
H1929 H 0.43321 0.5066 0.49026 0.0
H1930 H 0.46917 0.55289 0.50606 0.0
S1931 S 0.56176 0.44157 0.50203 0.0
N1932 N 0.52292 0.43261 0.49165 0.0
N1933 N 0.56113 0.48203 0.51082 0.0
C1934 C 0.52828 0.49011 0.50544 0.0
C1935 C 0.50747 0.46318 0.495 0.0
loop_
_geom_bond_atom_site_label_1
_geom_bond_atom_site_label_2
_geom_bond_distance
_geom_bond_site_symmetry_2
_ccdc_geom_bond_type
C0 C1 1.351 . S
C0 N3 1.368 . S
C0 H5 0.931 . S
C1 C0 1.351 . S
C1 N2 1.373 . S
C1 H29 0.930 . S
N2 C1 1.373 . S
N2 C4 1.340 . S
N3 C0 1.368 . S
N3 C4 1.321 . S
N3 Co6 2.135 . S
C4 N2 1.340 . S
C4 N3 1.321 . S
C4 H28 0.930 . S
H5 C0 0.931 . S
Co6 N3 2.135 . S
Co6 N9 2.121 . S
Co6 O14 2.055 . S
Co6 O17 2.039 . S
Co6 N20 2.140 . S
C7 O8 1.227 . S
C7 O17 1.265 . S
O8 C7 1.227 . S
N9 Co6 2.121 . S
N9 C11 1.375 . S
N9 C12 1.313 . S
C10 C11 1.338 . S
C10 N13 1.377 . S
C10 H30 0.930 . S
C11 N9 1.375 . S
C11 C10 1.338 . S
C11 H15 0.931 . S
C12 N9 1.313 . S
C12 N13 1.344 . S
C12 H16 0.930 . S
N13 C10 1.377 . S
N13 C12 1.344 . S
O14 Co6 2.055 . S
O14 C18 1.253 . S
H15 C11 0.931 . S
H16 C12 0.930 . S
O17 Co6 2.039 . S
O17 C7 1.265 . S
C18 O14 1.253 . S
C18 O19 1.227 . S
O19 C18 1.227 . S
N20 Co6 2.140 . S
N20 C23 1.346 . S
N20 C24 1.345 . S
C21 C22 1.387 . S
C21 C25 1.391 . S
C22 C21 1.387 . S
C22 C23 1.369 . S
C22 H31 0.929 . S
C23 N20 1.346 . S
C23 C22 1.369 . S
C23 H26 0.928 . S
C24 N20 1.345 . S
C24 C25 1.371 . S
C24 H27 0.931 . S
C25 C21 1.391 . S
C25 C24 1.371 . S
C25 H32 0.930 . S
H26 C23 0.928 . S
H27 C24 0.931 . S
H28 C4 0.930 . S
H29 C1 0.930 . S
H30 C10 0.930 . S
H31 C22 0.929 . S
H32 C25 0.930 . S
C33 C34 1.351 . S
C33 N36 1.368 . S
C33 H38 0.931 . S
C34 C33 1.351 . S
C34 N35 1.373 1_455 S
C34 H62 0.930 . S
N35 C34 1.373 1_655 S
N35 C37 1.349 . S
N36 C33 1.368 . S
N36 C37 1.303 1_455 S
N36 Co39 2.135 . S
C37 N35 1.349 . S
C37 N36 1.303 1_655 S
C37 H61 0.940 . S
H38 C33 0.931 . S
Co39 N36 2.135 . S
Co39 N42 2.121 . S
Co39 O47 2.055 . S
Co39 O50 2.039 . S
Co39 N53 2.140 . S
C40 O41 1.227 . S
C40 O50 1.265 . S
O41 C40 1.227 . S
N42 Co39 2.121 . S
N42 C44 1.375 . S
N42 C45 1.313 . S
C43 C44 1.338 . S
C43 N46 1.377 . S
C43 H63 0.930 . S
C44 N42 1.375 . S
C44 C43 1.338 . S
C44 H48 0.931 . S
C45 N42 1.313 . S
C45 N46 1.344 . S
C45 H49 0.930 . S
N46 C43 1.377 . S
N46 C45 1.344 . S
O47 Co39 2.055 . S
O47 C51 1.253 . S
H48 C44 0.931 . S
H49 C45 0.930 . S
O50 Co39 2.039 . S
O50 C40 1.265 . S
C51 O47 1.253 . S
C51 O52 1.227 . S
O52 C51 1.227 . S
N53 Co39 2.140 . S
N53 C56 1.346 . S
N53 C57 1.345 . S
C54 C55 1.387 . S
C54 C58 1.391 . S
C55 C54 1.387 . S
C55 C56 1.369 . S
C55 H64 0.929 . S
C56 N53 1.346 . S
C56 C55 1.369 . S
C56 H59 0.928 . S
C57 N53 1.345 . S
C57 C58 1.371 . S
C57 H60 0.931 . S
C58 C54 1.391 . S
C58 C57 1.371 . S
C58 H65 0.930 . S
H59 C56 0.928 . S
H60 C57 0.931 . S
H61 C37 0.940 . S
H62 C34 0.930 . S
H63 C43 0.930 . S
H64 C55 0.929 . S
H65 C58 0.930 . S
C66 C67 1.351 . S
C66 N69 1.368 . S
C66 H71 0.931 . S
C67 C66 1.351 . S
C67 N68 1.373 . S
C67 H95 0.930 . S
N68 C67 1.373 . S
N68 C70 1.340 . S
N69 C66 1.368 . S
N69 C70 1.321 . S
N69 Co72 2.135 . S
C70 N68 1.340 . S
C70 N69 1.321 . S
C70 H94 0.930 . S
H71 C66 0.931 . S
Co72 N69 2.135 . S
Co72 N75 2.121 . S
Co72 O80 2.055 . S
Co72 O83 2.039 . S
Co72 N86 2.140 . S
C73 O74 1.227 . S
C73 O83 1.265 . S
O74 C73 1.227 . S
N75 Co72 2.121 . S
N75 C77 1.375 . S
N75 C78 1.313 . S
C76 C77 1.338 . S
C76 N79 1.377 . S
C76 H96 0.930 . S
C77 N75 1.375 . S
C77 C76 1.338 . S
C77 H81 0.931 . S
C78 N75 1.313 . S
C78 N79 1.344 . S
C78 H82 0.930 . S
N79 C76 1.377 . S
N79 C78 1.344 . S
O80 Co72 2.055 . S
O80 C84 1.253 . S
H81 C77 0.931 . S
H82 C78 0.930 . S
O83 Co72 2.039 . S
O83 C73 1.265 . S
C84 O80 1.253 . S
C84 O85 1.227 . S
O85 C84 1.227 . S
N86 Co72 2.140 . S
N86 C89 1.346 . S
N86 C90 1.345 . S
C87 C88 1.387 . S
C87 C91 1.391 . S
C88 C87 1.387 . S
C88 C89 1.369 . S
C88 H97 0.929 . S
C89 N86 1.346 . S
C89 C88 1.369 . S
C89 H92 0.928 . S
C90 N86 1.345 . S
C90 C91 1.371 . S
C90 H93 0.931 . S
C91 C87 1.391 . S
C91 C90 1.371 . S
C91 H98 0.930 . S
H92 C89 0.928 . S
H93 C90 0.931 . S
H94 C70 0.930 . S
H95 C67 0.930 . S
H96 C76 0.930 . S
H97 C88 0.929 . S
H98 C91 0.930 . S
C99 C100 1.351 . S
C99 N102 1.368 . S
C99 H104 0.931 . S
C100 C99 1.351 . S
C100 N101 1.373 . S
C100 H128 0.930 . S
N101 C100 1.373 . S
N101 C103 1.340 . S
N102 C99 1.368 . S
N102 C103 1.321 . S
N102 Co105 2.135 . S
C103 N101 1.340 . S
C103 N102 1.321 . S
C103 H127 0.930 . S
H104 C99 0.931 . S
Co105 N102 2.135 . S
Co105 N108 2.121 1_554 S
Co105 O113 2.055 . S
Co105 O116 2.039 . S
Co105 N119 2.140 . S
C106 O107 1.227 . S
C106 O116 1.265 . S
O107 C106 1.227 . S
N108 Co105 2.121 1_556 S
N108 C110 1.375 . S
N108 C111 1.313 . S
C109 C110 1.338 . S
C109 N112 1.377 . S
C109 H129 0.930 . S
C110 N108 1.375 . S
C110 C109 1.338 . S
C110 H114 0.931 . S
C111 N108 1.313 . S
C111 N112 1.344 . S
C111 H115 0.930 . S
N112 C109 1.377 . S
N112 C111 1.344 . S
O113 Co105 2.055 . S
O113 C117 1.253 . S
H114 C110 0.931 . S
H115 C111 0.930 . S
O116 Co105 2.039 . S
O116 C106 1.265 . S
C117 O113 1.253 . S
C117 O118 1.227 . S
O118 C117 1.227 . S
N119 Co105 2.140 . S
N119 C122 1.346 . S
N119 C123 1.345 . S
C120 C121 1.387 . S
C120 C124 1.391 . S
C121 C120 1.387 . S
C121 C122 1.369 . S
C121 H130 0.929 . S
C122 N119 1.346 . S
C122 C121 1.369 . S
C122 H125 0.928 . S
C123 N119 1.345 . S
C123 C124 1.371 . S
C123 H126 0.931 . S
C124 C120 1.391 . S
C124 C123 1.371 . S
C124 H131 0.930 . S
H125 C122 0.928 . S
H126 C123 0.931 . S
H127 C103 0.930 . S
H128 C100 0.930 . S
H129 C109 0.930 . S
H130 C121 0.929 . S
H131 C124 0.930 . S
C132 C133 1.351 . S
C132 N135 1.368 . S
C132 H137 0.931 . S
C133 C132 1.351 . S
C133 N134 1.373 . S
C133 H161 0.930 . S
N134 C133 1.373 . S
N134 C136 1.340 . S
N135 C132 1.368 . S
N135 C136 1.321 . S
N135 Co138 2.135 . S
C136 N134 1.340 . S
C136 N135 1.321 . S
C136 H160 0.930 . S
H137 C132 0.931 . S
Co138 N135 2.135 . S
Co138 N141 2.121 . S
Co138 O146 2.055 . S
Co138 O149 2.039 . S
Co138 N152 2.140 . S
C139 O140 1.227 . S
C139 O149 1.265 . S
O140 C139 1.227 . S
N141 Co138 2.121 . S
N141 C143 1.375 . S
N141 C144 1.313 . S
C142 C143 1.338 . S
C142 N145 1.377 . S
C142 H162 0.930 . S
C143 N141 1.375 . S
C143 C142 1.338 . S
C143 H147 0.931 . S
C144 N141 1.313 . S
C144 N145 1.344 . S
C144 H148 0.930 . S
N145 C142 1.377 . S
N145 C144 1.344 . S
O146 Co138 2.055 . S
O146 C150 1.253 . S
H147 C143 0.931 . S
H148 C144 0.930 . S
O149 Co138 2.039 . S
O149 C139 1.265 . S
C150 O146 1.253 . S
C150 O151 1.227 . S
O151 C150 1.227 . S
N152 Co138 2.140 . S
N152 C155 1.346 . S
N152 C156 1.345 . S
C153 C154 1.387 . S
C153 C157 1.391 . S
C154 C153 1.387 . S
C154 C155 1.369 . S
C154 H163 0.929 . S
C155 N152 1.346 . S
C155 C154 1.369 . S
C155 H158 0.928 . S
C156 N152 1.345 . S
C156 C157 1.371 . S
C156 H159 0.931 . S
C157 C153 1.391 . S
C157 C156 1.371 . S
C157 H164 0.930 . S
H158 C155 0.928 . S
H159 C156 0.931 . S
H160 C136 0.930 . S
H161 C133 0.930 . S
H162 C142 0.930 . S
H163 C154 0.929 . S
H164 C157 0.930 . S
C165 C166 1.351 . S
C165 N168 1.368 . S
C165 H170 0.931 . S
C166 C165 1.351 . S
C166 N167 1.373 . S
C166 H194 0.930 . S
N167 C166 1.373 . S
N167 C169 1.340 . S
N168 C165 1.368 . S
N168 C169 1.321 . S
N168 Co171 2.135 . S
C169 N167 1.340 . S
C169 N168 1.321 . S
C169 H193 0.930 . S
H170 C165 0.931 . S
Co171 N168 2.135 . S
Co171 N174 2.121 . S
Co171 O179 2.055 . S
Co171 O182 2.039 . S
Co171 N185 2.140 . S
C172 O173 1.227 . S
C172 O182 1.265 . S
O173 C172 1.227 . S
N174 Co171 2.121 . S
N174 C176 1.375 . S
N174 C177 1.313 . S
C175 C176 1.338 . S
C175 N178 1.377 . S
C175 H195 0.930 . S
C176 N174 1.375 . S
C176 C175 1.338 . S
C176 H180 0.931 . S
C177 N174 1.313 . S
C177 N178 1.344 . S
C177 H181 0.930 . S
N178 C175 1.377 . S
N178 C177 1.344 . S
O179 Co171 2.055 . S
O179 C183 1.253 . S
H180 C176 0.931 . S
H181 C177 0.930 . S
O182 Co171 2.039 . S
O182 C172 1.265 . S
C183 O179 1.253 . S
C183 O184 1.227 . S
O184 C183 1.227 . S
N185 Co171 2.140 . S
N185 C188 1.346 . S
N185 C189 1.345 . S
C186 C187 1.387 . S
C186 C190 1.391 . S
C187 C186 1.387 . S
C187 C188 1.369 . S
C187 H196 0.929 . S
C188 N185 1.346 . S
C188 C187 1.369 . S
C188 H191 0.928 . S
C189 N185 1.345 . S
C189 C190 1.371 . S
C189 H192 0.931 . S
C190 C186 1.391 . S
C190 C189 1.371 . S
C190 H197 0.930 . S
H191 C188 0.928 . S
H192 C189 0.931 . S
H193 C169 0.930 . S
H194 C166 0.930 . S
H195 C175 0.930 . S
H196 C187 0.929 . S
H197 C190 0.930 . S
C198 C199 1.351 . S
C198 N201 1.368 . S
C198 H203 0.931 . S
C199 C198 1.351 . S
C199 N200 1.373 . S
C199 H227 0.930 . S
N200 C199 1.373 . S
N200 C202 1.340 . S
N201 C198 1.368 . S
N201 C202 1.321 . S
N201 Co204 2.135 . S
C202 N200 1.340 . S
C202 N201 1.321 . S
C202 H226 0.930 . S
H203 C198 0.931 . S
Co204 N201 2.135 . S
Co204 N207 2.121 . S
Co204 O212 2.055 . S
Co204 O215 2.039 . S
Co204 N218 2.140 . S
C205 O206 1.227 . S
C205 O215 1.265 . S
O206 C205 1.227 . S
N207 Co204 2.121 . S
N207 C209 1.375 . S
N207 C210 1.313 . S
C208 C209 1.338 . S
C208 N211 1.377 . S
C208 H228 0.930 . S
C209 N207 1.375 . S
C209 C208 1.338 . S
C209 H213 0.931 . S
C210 N207 1.313 . S
C210 N211 1.344 . S
C210 H214 0.930 . S
N211 C208 1.377 . S
N211 C210 1.344 . S
O212 Co204 2.055 . S
O212 C216 1.253 . S
H213 C209 0.931 . S
H214 C210 0.930 . S
O215 Co204 2.039 . S
O215 C205 1.265 . S
C216 O212 1.253 . S
C216 O217 1.227 . S
O217 C216 1.227 . S
N218 Co204 2.140 . S
N218 C221 1.346 . S
N218 C222 1.345 . S
C219 C220 1.387 . S
C219 C223 1.391 . S
C220 C219 1.387 . S
C220 C221 1.369 . S
C220 H229 0.929 . S
C221 N218 1.346 . S
C221 C220 1.369 . S
C221 H224 0.928 . S
C222 N218 1.345 . S
C222 C223 1.371 . S
C222 H225 0.931 . S
C223 C219 1.391 . S
C223 C222 1.371 . S
C223 H230 0.930 . S
H224 C221 0.928 . S
H225 C222 0.931 . S
H226 C202 0.930 . S
H227 C199 0.930 . S
H228 C208 0.930 . S
H229 C220 0.929 . S
H230 C223 0.930 . S
C231 C232 1.351 . S
C231 N234 1.368 . S
C231 H236 0.931 . S
C232 C231 1.351 . S
C232 N233 1.373 1_455 S
C232 H260 0.930 . S
N233 C232 1.373 1_655 S
N233 C235 1.349 . S
N234 C231 1.368 . S
N234 C235 1.303 1_455 S
N234 Co237 2.135 . S
C235 N233 1.349 . S
C235 N234 1.303 1_655 S
C235 H259 0.940 . S
H236 C231 0.931 . S
Co237 N234 2.135 . S
Co237 N240 2.121 1_556 S
Co237 O245 2.055 . S
Co237 O248 2.039 . S
Co237 N251 2.140 . S
C238 O239 1.227 . S
C238 O248 1.265 . S
O239 C238 1.227 . S
N240 Co237 2.121 1_554 S
N240 C242 1.375 . S
N240 C243 1.313 . S
C241 C242 1.338 . S
C241 N244 1.377 . S
C241 H261 0.930 . S
C242 N240 1.375 . S
C242 C241 1.338 . S
C242 H246 0.931 . S
C243 N240 1.313 . S
C243 N244 1.344 . S
C243 H247 0.930 . S
N244 C241 1.377 . S
N244 C243 1.344 . S
O245 Co237 2.055 . S
O245 C249 1.253 . S
H246 C242 0.931 . S
H247 C243 0.930 . S
O248 Co237 2.039 . S
O248 C238 1.265 . S
C249 O245 1.253 . S
C249 O250 1.227 . S
O250 C249 1.227 . S
N251 Co237 2.140 . S
N251 C254 1.346 . S
N251 C255 1.345 . S
C252 C253 1.387 . S
C252 C256 1.391 . S
C253 C252 1.387 . S
C253 C254 1.369 . S
C253 H262 0.929 . S
C254 N251 1.346 . S
C254 C253 1.369 . S
C254 H257 0.928 . S
C255 N251 1.345 . S
C255 C256 1.371 . S
C255 H258 0.931 . S
C256 C252 1.391 . S
C256 C255 1.371 . S
C256 H263 0.930 . S
H257 C254 0.928 . S
H258 C255 0.931 . S
H259 C235 0.940 . S
H260 C232 0.930 . S
H261 C241 0.930 . S
H262 C253 0.929 . S
H263 C256 0.930 . S
C264 C265 1.351 . S
C264 N267 1.368 . S
C264 H269 0.931 . S
C265 C264 1.351 . S
C265 N266 1.373 . S
C265 H293 0.930 . S
N266 C265 1.373 . S
N266 C268 1.340 . S
N267 C264 1.368 . S
N267 C268 1.321 . S
N267 Co270 2.135 . S
C268 N266 1.340 . S
C268 N267 1.321 . S
C268 H292 0.930 . S
H269 C264 0.931 . S
Co270 N267 2.135 . S
Co270 N273 2.121 . S
Co270 O278 2.055 . S
Co270 O281 2.039 . S
Co270 N284 2.140 . S
C271 O272 1.227 . S
C271 O281 1.265 . S
O272 C271 1.227 . S
N273 Co270 2.121 . S
N273 C275 1.375 . S
N273 C276 1.313 . S
C274 C275 1.338 . S
C274 N277 1.377 . S
C274 H294 0.930 . S
C275 N273 1.375 . S
C275 C274 1.338 . S
C275 H279 0.931 . S
C276 N273 1.313 . S
C276 N277 1.344 . S
C276 H280 0.930 . S
N277 C274 1.377 . S
N277 C276 1.344 . S
O278 Co270 2.055 . S
O278 C282 1.253 . S
H279 C275 0.931 . S
H280 C276 0.930 . S
O281 Co270 2.039 . S
O281 C271 1.265 . S
C282 O278 1.253 . S
C282 O283 1.227 . S
O283 C282 1.227 . S
N284 Co270 2.140 . S
N284 C287 1.346 . S
N284 C288 1.345 . S
C285 C286 1.387 . S
C285 C289 1.391 . S
C286 C285 1.387 . S
C286 C287 1.369 . S
C286 H295 0.929 . S
C287 N284 1.346 . S
C287 C286 1.369 . S
C287 H290 0.928 . S
C288 N284 1.345 . S
C288 C289 1.371 . S
C288 H291 0.931 . S
C289 C285 1.391 . S
C289 C288 1.371 . S
C289 H296 0.930 . S
H290 C287 0.928 . S
H291 C288 0.931 . S
H292 C268 0.930 . S
H293 C265 0.930 . S
H294 C274 0.930 . S
H295 C286 0.929 . S
H296 C289 0.930 . S
C297 C298 1.351 . S
C297 N300 1.368 . S
C297 H302 0.931 . S
C298 C297 1.351 . S
C298 N299 1.373 1_655 S
C298 H326 0.930 . S
N299 C298 1.373 1_455 S
N299 C301 1.349 . S
N300 C297 1.368 . S
N300 C301 1.303 1_655 S
N300 Co303 2.135 . S
C301 N299 1.349 . S
C301 N300 1.303 1_455 S
C301 H325 0.940 . S
H302 C297 0.931 . S
Co303 N300 2.135 . S
Co303 N306 2.121 . S
Co303 O311 2.055 . S
Co303 O314 2.039 . S
Co303 N317 2.140 . S
C304 O305 1.227 . S
C304 O314 1.265 . S
O305 C304 1.227 . S
N306 Co303 2.121 . S
N306 C308 1.375 . S
N306 C309 1.313 . S
C307 C308 1.338 . S
C307 N310 1.377 . S
C307 H327 0.930 . S
C308 N306 1.375 . S
C308 C307 1.338 . S
C308 H312 0.931 . S
C309 N306 1.313 . S
C309 N310 1.344 . S
C309 H313 0.930 . S
N310 C307 1.377 . S
N310 C309 1.344 . S
O311 Co303 2.055 . S
O311 C315 1.253 . S
H312 C308 0.931 . S
H313 C309 0.930 . S
O314 Co303 2.039 . S
O314 C304 1.265 . S
C315 O311 1.253 . S
C315 O316 1.227 . S
O316 C315 1.227 . S
N317 Co303 2.140 . S
N317 C320 1.346 . S
N317 C321 1.345 . S
C318 C319 1.387 . S
C318 C322 1.391 . S
C319 C318 1.387 . S
C319 C320 1.369 . S
C319 H328 0.929 . S
C320 N317 1.346 . S
C320 C319 1.369 . S
C320 H323 0.928 . S
C321 N317 1.345 . S
C321 C322 1.371 . S
C321 H324 0.931 . S
C322 C318 1.391 . S
C322 C321 1.371 . S
C322 H329 0.930 . S
H323 C320 0.928 . S
H324 C321 0.931 . S
H325 C301 0.940 . S
H326 C298 0.930 . S
H327 C307 0.930 . S
H328 C319 0.929 . S
H329 C322 0.930 . S
C330 C331 1.351 . S
C330 N333 1.368 . S
C330 H335 0.931 . S
C331 C330 1.351 . S
C331 N332 1.373 . S
C331 H359 0.930 . S
N332 C331 1.373 . S
N332 C334 1.340 . S
N333 C330 1.368 . S
N333 C334 1.321 . S
N333 Co336 2.135 . S
C334 N332 1.340 . S
C334 N333 1.321 . S
C334 H358 0.930 . S
H335 C330 0.931 . S
Co336 N333 2.135 . S
Co336 N339 2.121 . S
Co336 O344 2.055 . S
Co336 O347 2.039 . S
Co336 N350 2.140 . S
C337 O338 1.227 . S
C337 O347 1.265 . S
O338 C337 1.227 . S
N339 Co336 2.121 . S
N339 C341 1.375 . S
N339 C342 1.313 . S
C340 C341 1.338 . S
C340 N343 1.377 . S
C340 H360 0.930 . S
C341 N339 1.375 . S
C341 C340 1.338 . S
C341 H345 0.931 . S
C342 N339 1.313 . S
C342 N343 1.344 . S
C342 H346 0.930 . S
N343 C340 1.377 . S
N343 C342 1.344 . S
O344 Co336 2.055 . S
O344 C348 1.253 . S
H345 C341 0.931 . S
H346 C342 0.930 . S
O347 Co336 2.039 . S
O347 C337 1.265 . S
C348 O344 1.253 . S
C348 O349 1.227 . S
O349 C348 1.227 . S
N350 Co336 2.140 . S
N350 C353 1.346 . S
N350 C354 1.345 . S
C351 C352 1.387 . S
C351 C355 1.391 . S
C352 C351 1.387 . S
C352 C353 1.369 . S
C352 H361 0.929 . S
C353 N350 1.346 . S
C353 C352 1.369 . S
C353 H356 0.928 . S
C354 N350 1.345 . S
C354 C355 1.371 . S
C354 H357 0.931 . S
C355 C351 1.391 . S
C355 C354 1.371 . S
C355 H362 0.930 . S
H356 C353 0.928 . S
H357 C354 0.931 . S
H358 C334 0.930 . S
H359 C331 0.930 . S
H360 C340 0.930 . S
H361 C352 0.929 . S
H362 C355 0.930 . S
C363 C364 1.351 . S
C363 N366 1.368 . S
C363 H368 0.931 . S
C364 C363 1.351 . S
C364 N365 1.373 . S
C364 H392 0.930 . S
N365 C364 1.373 . S
N365 C367 1.340 . S
N366 C363 1.368 . S
N366 C367 1.321 . S
N366 Co369 2.135 . S
C367 N365 1.340 . S
C367 N366 1.321 . S
C367 H391 0.930 . S
H368 C363 0.931 . S
Co369 N366 2.135 . S
Co369 N372 2.121 1_556 S
Co369 O377 2.055 . S
Co369 O380 2.039 . S
Co369 N383 2.140 . S
C370 O371 1.227 . S
C370 O380 1.265 . S
O371 C370 1.227 . S
N372 Co369 2.121 1_554 S
N372 C374 1.375 . S
N372 C375 1.313 . S
C373 C374 1.338 . S
C373 N376 1.377 . S
C373 H393 0.930 . S
C374 N372 1.375 . S
C374 C373 1.338 . S
C374 H378 0.931 . S
C375 N372 1.313 . S
C375 N376 1.344 . S
C375 H379 0.930 . S
N376 C373 1.377 . S
N376 C375 1.344 . S
O377 Co369 2.055 . S
O377 C381 1.253 . S
H378 C374 0.931 . S
H379 C375 0.930 . S
O380 Co369 2.039 . S
O380 C370 1.265 . S
C381 O377 1.253 . S
C381 O382 1.227 . S
O382 C381 1.227 . S
N383 Co369 2.140 . S
N383 C386 1.346 . S
N383 C387 1.345 . S
C384 C385 1.387 . S
C384 C388 1.391 . S
C385 C384 1.387 . S
C385 C386 1.369 . S
C385 H394 0.929 . S
C386 N383 1.346 . S
C386 C385 1.369 . S
C386 H389 0.928 . S
C387 N383 1.345 . S
C387 C388 1.371 . S
C387 H390 0.931 . S
C388 C384 1.391 . S
C388 C387 1.371 . S
C388 H395 0.930 . S
H389 C386 0.928 . S
H390 C387 0.931 . S
H391 C367 0.930 . S
H392 C364 0.930 . S
H393 C373 0.930 . S
H394 C385 0.929 . S
H395 C388 0.930 . S
C396 C397 1.351 . S
C396 N399 1.368 . S
C396 H401 0.931 . S
C397 C396 1.351 . S
C397 N398 1.373 . S
C397 H425 0.930 . S
N398 C397 1.373 . S
N398 C400 1.340 . S
N399 C396 1.368 . S
N399 C400 1.321 . S
N399 Co402 2.135 . S
C400 N398 1.340 . S
C400 N399 1.321 . S
C400 H424 0.930 . S
H401 C396 0.931 . S
Co402 N399 2.135 . S
Co402 N405 2.121 . S
Co402 O410 2.055 . S
Co402 O413 2.039 . S
Co402 N416 2.140 . S
C403 O404 1.227 . S
C403 O413 1.265 . S
O404 C403 1.227 . S
N405 Co402 2.121 . S
N405 C407 1.375 . S
N405 C408 1.313 . S
C406 C407 1.338 . S
C406 N409 1.377 . S
C406 H426 0.930 . S
C407 N405 1.375 . S
C407 C406 1.338 . S
C407 H411 0.931 . S
C408 N405 1.313 . S
C408 N409 1.344 . S
C408 H412 0.930 . S
N409 C406 1.377 . S
N409 C408 1.344 . S
O410 Co402 2.055 . S
O410 C414 1.253 . S
H411 C407 0.931 . S
H412 C408 0.930 . S
O413 Co402 2.039 . S
O413 C403 1.265 . S
C414 O410 1.253 . S
C414 O415 1.227 . S
O415 C414 1.227 . S
N416 Co402 2.140 . S
N416 C419 1.346 . S
N416 C420 1.345 . S
C417 C418 1.387 . S
C417 C421 1.391 . S
C418 C417 1.387 . S
C418 C419 1.369 . S
C418 H427 0.929 . S
C419 N416 1.346 . S
C419 C418 1.369 . S
C419 H422 0.928 . S
C420 N416 1.345 . S
C420 C421 1.371 . S
C420 H423 0.931 . S
C421 C417 1.391 . S
C421 C420 1.371 . S
C421 H428 0.930 . S
H422 C419 0.928 . S
H423 C420 0.931 . S
H424 C400 0.930 . S
H425 C397 0.930 . S
H426 C406 0.930 . S
H427 C418 0.929 . S
H428 C421 0.930 . S
C429 C430 1.351 . S
C429 N432 1.368 . S
C429 H434 0.931 . S
C430 C429 1.351 . S
C430 N431 1.373 . S
C430 H458 0.930 . S
N431 C430 1.373 . S
N431 C433 1.340 . S
N432 C429 1.368 . S
N432 C433 1.321 . S
N432 Co435 2.135 . S
C433 N431 1.340 . S
C433 N432 1.321 . S
C433 H457 0.930 . S
H434 C429 0.931 . S
Co435 N432 2.135 . S
Co435 N438 2.121 . S
Co435 O443 2.055 . S
Co435 O446 2.039 . S
Co435 N449 2.140 . S
C436 O437 1.227 . S
C436 O446 1.265 . S
O437 C436 1.227 . S
N438 Co435 2.121 . S
N438 C440 1.375 . S
N438 C441 1.313 . S
C439 C440 1.338 . S
C439 N442 1.377 . S
C439 H459 0.930 . S
C440 N438 1.375 . S
C440 C439 1.338 . S
C440 H444 0.931 . S
C441 N438 1.313 . S
C441 N442 1.344 . S
C441 H445 0.930 . S
N442 C439 1.377 . S
N442 C441 1.344 . S
O443 Co435 2.055 . S
O443 C447 1.253 . S
H444 C440 0.931 . S
H445 C441 0.930 . S
O446 Co435 2.039 . S
O446 C436 1.265 . S
C447 O443 1.253 . S
C447 O448 1.227 . S
O448 C447 1.227 . S
N449 Co435 2.140 . S
N449 C452 1.346 . S
N449 C453 1.345 . S
C450 C451 1.387 . S
C450 C454 1.391 . S
C451 C450 1.387 . S
C451 C452 1.369 . S
C451 H460 0.929 . S
C452 N449 1.346 . S
C452 C451 1.369 . S
C452 H455 0.928 . S
C453 N449 1.345 . S
C453 C454 1.371 . S
C453 H456 0.931 . S
C454 C450 1.391 . S
C454 C453 1.371 . S
C454 H461 0.930 . S
H455 C452 0.928 . S
H456 C453 0.931 . S
H457 C433 0.930 . S
H458 C430 0.930 . S
H459 C439 0.930 . S
H460 C451 0.929 . S
H461 C454 0.930 . S
C462 C463 1.351 . S
C462 N465 1.368 . S
C462 H467 0.931 . S
C463 C462 1.351 . S
C463 N464 1.373 . S
C463 H491 0.930 . S
N464 C463 1.373 . S
N464 C466 1.340 . S
N465 C462 1.368 . S
N465 C466 1.321 . S
N465 Co468 2.135 . S
C466 N464 1.340 . S
C466 N465 1.321 . S
C466 H490 0.930 . S
H467 C462 0.931 . S
Co468 N465 2.135 . S
Co468 N471 2.121 . S
Co468 O476 2.055 . S
Co468 O479 2.039 . S
Co468 N482 2.140 . S
C469 O470 1.227 . S
C469 O479 1.265 . S
O470 C469 1.227 . S
N471 Co468 2.121 . S
N471 C473 1.375 . S
N471 C474 1.313 . S
C472 C473 1.338 . S
C472 N475 1.377 . S
C472 H492 0.930 . S
C473 N471 1.375 . S
C473 C472 1.338 . S
C473 H477 0.931 . S
C474 N471 1.313 . S
C474 N475 1.344 . S
C474 H478 0.930 . S
N475 C472 1.377 . S
N475 C474 1.344 . S
O476 Co468 2.055 . S
O476 C480 1.253 . S
H477 C473 0.931 . S
H478 C474 0.930 . S
O479 Co468 2.039 . S
O479 C469 1.265 . S
C480 O476 1.253 . S
C480 O481 1.227 . S
O481 C480 1.227 . S
N482 Co468 2.140 . S
N482 C485 1.346 . S
N482 C486 1.345 . S
C483 C484 1.387 . S
C483 C487 1.391 . S
C484 C483 1.387 . S
C484 C485 1.369 . S
C484 H493 0.929 . S
C485 N482 1.346 . S
C485 C484 1.369 . S
C485 H488 0.928 . S
C486 N482 1.345 . S
C486 C487 1.371 . S
C486 H489 0.931 . S
C487 C483 1.391 . S
C487 C486 1.371 . S
C487 H494 0.930 . S
H488 C485 0.928 . S
H489 C486 0.931 . S
H490 C466 0.930 . S
H491 C463 0.930 . S
H492 C472 0.930 . S
H493 C484 0.929 . S
H494 C487 0.930 . S
C495 C496 1.351 . S
C495 N498 1.368 . S
C495 H500 0.931 . S
C496 C495 1.351 . S
C496 N497 1.373 1_655 S
C496 H524 0.930 . S
N497 C496 1.373 1_455 S
N497 C499 1.349 . S
N498 C495 1.368 . S
N498 C499 1.303 1_655 S
N498 Co501 2.135 . S
C499 N497 1.349 . S
C499 N498 1.303 1_455 S
C499 H523 0.940 . S
H500 C495 0.931 . S
Co501 N498 2.135 . S
Co501 N504 2.121 1_554 S
Co501 O509 2.055 . S
Co501 O512 2.039 . S
Co501 N515 2.140 . S
C502 O503 1.227 . S
C502 O512 1.265 . S
O503 C502 1.227 . S
N504 Co501 2.121 1_556 S
N504 C506 1.375 . S
N504 C507 1.313 . S
C505 C506 1.338 . S
C505 N508 1.377 . S
C505 H525 0.930 . S
C506 N504 1.375 . S
C506 C505 1.338 . S
C506 H510 0.931 . S
C507 N504 1.313 . S
C507 N508 1.344 . S
C507 H511 0.930 . S
N508 C505 1.377 . S
N508 C507 1.344 . S
O509 Co501 2.055 . S
O509 C513 1.253 . S
H510 C506 0.931 . S
H511 C507 0.930 . S
O512 Co501 2.039 . S
O512 C502 1.265 . S
C513 O509 1.253 . S
C513 O514 1.227 . S
O514 C513 1.227 . S
N515 Co501 2.140 . S
N515 C518 1.346 . S
N515 C519 1.345 . S
C516 C517 1.387 . S
C516 C520 1.391 . S
C517 C516 1.387 . S
C517 C518 1.369 . S
C517 H526 0.929 . S
C518 N515 1.346 . S
C518 C517 1.369 . S
C518 H521 0.928 . S
C519 N515 1.345 . S
C519 C520 1.371 . S
C519 H522 0.931 . S
C520 C516 1.391 . S
C520 C519 1.371 . S
C520 H527 0.930 . S
H521 C518 0.928 . S
H522 C519 0.931 . S
H523 C499 0.940 . S
H524 C496 0.930 . S
H525 C505 0.930 . S
H526 C517 0.929 . S
H527 C520 0.930 . S
C528 C529 1.351 . S
C528 N531 1.368 . S
C528 H533 0.931 . S
C529 C528 1.351 . S
C529 N530 1.373 . S
C529 H557 0.930 . S
N530 C529 1.373 . S
N530 C532 1.340 . S
N531 C528 1.368 . S
N531 C532 1.321 . S
N531 Co534 2.135 . S
C532 N530 1.340 . S
C532 N531 1.321 . S
C532 H556 0.930 . S
H533 C528 0.931 . S
Co534 N531 2.135 . S
Co534 N537 2.121 . S
Co534 O542 2.055 . S
Co534 O545 2.039 . S
Co534 N548 2.140 . S
C535 O536 1.227 . S
C535 O545 1.265 . S
O536 C535 1.227 . S
N537 Co534 2.121 . S
N537 C539 1.375 . S
N537 C540 1.313 . S
C538 C539 1.338 . S
C538 N541 1.377 . S
C538 H558 0.930 . S
C539 N537 1.375 . S
C539 C538 1.338 . S
C539 H543 0.931 . S
C540 N537 1.313 . S
C540 N541 1.344 . S
C540 H544 0.930 . S
N541 C538 1.377 . S
N541 C540 1.344 . S
O542 Co534 2.055 . S
O542 C546 1.253 . S
H543 C539 0.931 . S
H544 C540 0.930 . S
O545 Co534 2.039 . S
O545 C535 1.265 . S
C546 O542 1.253 . S
C546 O547 1.227 . S
O547 C546 1.227 . S
N548 Co534 2.140 . S
N548 C551 1.346 . S
N548 C552 1.345 . S
C549 C550 1.387 . S
C549 C553 1.391 . S
C550 C549 1.387 . S
C550 C551 1.369 . S
C550 H559 0.929 . S
C551 N548 1.346 . S
C551 C550 1.369 . S
C551 H554 0.928 . S
C552 N548 1.345 . S
C552 C553 1.371 . S
C552 H555 0.931 . S
C553 C549 1.391 . S
C553 C552 1.371 . S
C553 H560 0.930 . S
H554 C551 0.928 . S
H555 C552 0.931 . S
H556 C532 0.930 . S
H557 C529 0.930 . S
H558 C538 0.930 . S
H559 C550 0.929 . S
H560 C553 0.930 . S
C561 C562 1.351 . S
C561 N564 1.368 . S
C561 H566 0.931 . S
C562 C561 1.351 . S
C562 N563 1.373 . S
C562 H590 0.930 . S
N563 C562 1.373 . S
N563 C565 1.340 . S
N564 C561 1.368 . S
N564 C565 1.321 . S
N564 Co567 2.135 . S
C565 N563 1.340 . S
C565 N564 1.321 . S
C565 H589 0.930 . S
H566 C561 0.931 . S
Co567 N564 2.135 . S
Co567 N570 2.121 1_554 S
Co567 O575 2.055 . S
Co567 O578 2.039 . S
Co567 N581 2.140 . S
C568 O569 1.227 . S
C568 O578 1.265 . S
O569 C568 1.227 . S
N570 Co567 2.121 1_556 S
N570 C572 1.375 . S
N570 C573 1.313 . S
C571 C572 1.338 . S
C571 N574 1.377 . S
C571 H591 0.930 . S
C572 N570 1.375 . S
C572 C571 1.338 . S
C572 H576 0.931 . S
C573 N570 1.313 . S
C573 N574 1.344 . S
C573 H577 0.930 . S
N574 C571 1.377 . S
N574 C573 1.344 . S
O575 Co567 2.055 . S
O575 C579 1.253 . S
H576 C572 0.931 . S
H577 C573 0.930 . S
O578 Co567 2.039 . S
O578 C568 1.265 . S
C579 O575 1.253 . S
C579 O580 1.227 . S
O580 C579 1.227 . S
N581 Co567 2.140 . S
N581 C584 1.346 . S
N581 C585 1.345 . S
C582 C583 1.387 . S
C582 C586 1.391 . S
C583 C582 1.387 . S
C583 C584 1.369 . S
C583 H592 0.929 . S
C584 N581 1.346 . S
C584 C583 1.369 . S
C584 H587 0.928 . S
C585 N581 1.345 . S
C585 C586 1.371 . S
C585 H588 0.931 . S
C586 C582 1.391 . S
C586 C585 1.371 . S
C586 H593 0.930 . S
H587 C584 0.928 . S
H588 C585 0.931 . S
H589 C565 0.930 . S
H590 C562 0.930 . S
H591 C571 0.930 . S
H592 C583 0.929 . S
H593 C586 0.930 . S
C594 C595 1.351 . S
C594 N597 1.368 . S
C594 H599 0.931 . S
C595 C594 1.351 . S
C595 N596 1.373 . S
C595 H623 0.930 . S
N596 C595 1.373 . S
N596 C598 1.340 . S
N597 C594 1.368 . S
N597 C598 1.321 . S
N597 Co600 2.135 . S
C598 N596 1.340 . S
C598 N597 1.321 . S
C598 H622 0.930 . S
H599 C594 0.931 . S
Co600 N597 2.135 . S
Co600 N603 2.121 . S
Co600 O608 2.055 . S
Co600 O611 2.039 . S
Co600 N614 2.140 . S
C601 O602 1.227 . S
C601 O611 1.265 . S
O602 C601 1.227 . S
N603 Co600 2.121 . S
N603 C605 1.375 . S
N603 C606 1.313 . S
C604 C605 1.338 . S
C604 N607 1.377 . S
C604 H624 0.930 . S
C605 N603 1.375 . S
C605 C604 1.338 . S
C605 H609 0.931 . S
C606 N603 1.313 . S
C606 N607 1.344 . S
C606 H610 0.930 . S
N607 C604 1.377 . S
N607 C606 1.344 . S
O608 Co600 2.055 . S
O608 C612 1.253 . S
H609 C605 0.931 . S
H610 C606 0.930 . S
O611 Co600 2.039 . S
O611 C601 1.265 . S
C612 O608 1.253 . S
C612 O613 1.227 . S
O613 C612 1.227 . S
N614 Co600 2.140 . S
N614 C617 1.346 . S
N614 C618 1.345 . S
C615 C616 1.387 . S
C615 C619 1.391 . S
C616 C615 1.387 . S
C616 C617 1.369 . S
C616 H625 0.929 . S
C617 N614 1.346 . S
C617 C616 1.369 . S
C617 H620 0.928 . S
C618 N614 1.345 . S
C618 C619 1.371 . S
C618 H621 0.931 . S
C619 C615 1.391 . S
C619 C618 1.371 . S
C619 H626 0.930 . S
H620 C617 0.928 . S
H621 C618 0.931 . S
H622 C598 0.930 . S
H623 C595 0.930 . S
H624 C604 0.930 . S
H625 C616 0.929 . S
H626 C619 0.930 . S
C627 C628 1.351 . S
C627 N630 1.368 . S
C627 H632 0.931 . S
C628 C627 1.351 . S
C628 N629 1.373 1_655 S
C628 H656 0.930 . S
N629 C628 1.373 1_455 S
N629 C631 1.349 . S
N630 C627 1.368 . S
N630 C631 1.303 1_655 S
N630 Co633 2.135 . S
C631 N629 1.349 . S
C631 N630 1.303 1_455 S
C631 H655 0.940 . S
H632 C627 0.931 . S
Co633 N630 2.135 . S
Co633 N636 2.121 . S
Co633 O641 2.055 . S
Co633 O644 2.039 . S
Co633 N647 2.140 . S
C634 O635 1.227 . S
C634 O644 1.265 . S
O635 C634 1.227 . S
N636 Co633 2.121 . S
N636 C638 1.375 . S
N636 C639 1.313 . S
C637 C638 1.338 . S
C637 N640 1.377 . S
C637 H657 0.930 . S
C638 N636 1.375 . S
C638 C637 1.338 . S
C638 H642 0.931 . S
C639 N636 1.313 . S
C639 N640 1.344 . S
C639 H643 0.930 . S
N640 C637 1.377 . S
N640 C639 1.344 . S
O641 Co633 2.055 . S
O641 C645 1.253 . S
H642 C638 0.931 . S
H643 C639 0.930 . S
O644 Co633 2.039 . S
O644 C634 1.265 . S
C645 O641 1.253 . S
C645 O646 1.227 . S
O646 C645 1.227 . S
N647 Co633 2.140 . S
N647 C650 1.346 . S
N647 C651 1.345 . S
C648 C649 1.387 . S
C648 C652 1.391 . S
C649 C648 1.387 . S
C649 C650 1.369 . S
C649 H658 0.929 . S
C650 N647 1.346 . S
C650 C649 1.369 . S
C650 H653 0.928 . S
C651 N647 1.345 . S
C651 C652 1.371 . S
C651 H654 0.931 . S
C652 C648 1.391 . S
C652 C651 1.371 . S
C652 H659 0.930 . S
H653 C650 0.928 . S
H654 C651 0.931 . S
H655 C631 0.940 . S
H656 C628 0.930 . S
H657 C637 0.930 . S
H658 C649 0.929 . S
H659 C652 0.930 . S
C660 C661 1.351 . S
C660 N663 1.368 . S
C660 H665 0.931 . S
C661 C660 1.351 . S
C661 N662 1.373 . S
C661 H689 0.930 . S
N662 C661 1.373 . S
N662 C664 1.340 . S
N663 C660 1.368 . S
N663 C664 1.321 . S
N663 Co666 2.135 . S
C664 N662 1.340 . S
C664 N663 1.321 . S
C664 H688 0.930 . S
H665 C660 0.931 . S
Co666 N663 2.135 . S
Co666 N669 2.121 . S
Co666 O674 2.055 . S
Co666 O677 2.039 . S
Co666 N680 2.140 . S
C667 O668 1.227 . S
C667 O677 1.265 . S
O668 C667 1.227 . S
N669 Co666 2.121 . S
N669 C671 1.375 . S
N669 C672 1.313 . S
C670 C671 1.338 . S
C670 N673 1.377 . S
C670 H690 0.930 . S
C671 N669 1.375 . S
C671 C670 1.338 . S
C671 H675 0.931 . S
C672 N669 1.313 . S
C672 N673 1.344 . S
C672 H676 0.930 . S
N673 C670 1.377 . S
N673 C672 1.344 . S
O674 Co666 2.055 . S
O674 C678 1.253 . S
H675 C671 0.931 . S
H676 C672 0.930 . S
O677 Co666 2.039 . S
O677 C667 1.265 . S
C678 O674 1.253 . S
C678 O679 1.227 . S
O679 C678 1.227 . S
N680 Co666 2.140 . S
N680 C683 1.346 . S
N680 C684 1.345 . S
C681 C682 1.387 . S
C681 C685 1.391 . S
C682 C681 1.387 . S
C682 C683 1.369 . S
C682 H691 0.929 . S
C683 N680 1.346 . S
C683 C682 1.369 . S
C683 H686 0.928 . S
C684 N680 1.345 . S
C684 C685 1.371 . S
C684 H687 0.931 . S
C685 C681 1.391 . S
C685 C684 1.371 . S
C685 H692 0.930 . S
H686 C683 0.928 . S
H687 C684 0.931 . S
H688 C664 0.930 . S
H689 C661 0.930 . S
H690 C670 0.930 . S
H691 C682 0.929 . S
H692 C685 0.930 . S
C693 C694 1.351 . S
C693 N696 1.368 . S
C693 H698 0.931 . S
C694 C693 1.351 . S
C694 N695 1.373 1_655 S
C694 H722 0.930 . S
N695 C694 1.373 1_455 S
N695 C697 1.349 . S
N696 C693 1.368 . S
N696 C697 1.303 1_655 S
N696 Co699 2.135 . S
C697 N695 1.349 . S
C697 N696 1.303 1_455 S
C697 H721 0.940 . S
H698 C693 0.931 . S
Co699 N696 2.135 . S
Co699 N702 2.121 1_556 S
Co699 O707 2.055 . S
Co699 O710 2.039 . S
Co699 N713 2.140 . S
C700 O701 1.227 . S
C700 O710 1.265 . S
O701 C700 1.227 . S
N702 Co699 2.121 1_554 S
N702 C704 1.375 . S
N702 C705 1.313 . S
C703 C704 1.338 . S
C703 N706 1.377 . S
C703 H723 0.930 . S
C704 N702 1.375 . S
C704 C703 1.338 . S
C704 H708 0.931 . S
C705 N702 1.313 . S
C705 N706 1.344 . S
C705 H709 0.930 . S
N706 C703 1.377 . S
N706 C705 1.344 . S
O707 Co699 2.055 . S
O707 C711 1.253 . S
H708 C704 0.931 . S
H709 C705 0.930 . S
O710 Co699 2.039 . S
O710 C700 1.265 . S
C711 O707 1.253 . S
C711 O712 1.227 . S
O712 C711 1.227 . S
N713 Co699 2.140 . S
N713 C716 1.346 . S
N713 C717 1.345 . S
C714 C715 1.387 . S
C714 C718 1.391 . S
C715 C714 1.387 . S
C715 C716 1.369 . S
C715 H724 0.929 . S
C716 N713 1.346 . S
C716 C715 1.369 . S
C716 H719 0.928 . S
C717 N713 1.345 . S
C717 C718 1.371 . S
C717 H720 0.931 . S
C718 C714 1.391 . S
C718 C717 1.371 . S
C718 H725 0.930 . S
H719 C716 0.928 . S
H720 C717 0.931 . S
H721 C697 0.940 . S
H722 C694 0.930 . S
H723 C703 0.930 . S
H724 C715 0.929 . S
H725 C718 0.930 . S
C726 C727 1.351 . S
C726 N729 1.368 . S
C726 H731 0.931 . S
C727 C726 1.351 . S
C727 N728 1.373 . S
C727 H755 0.930 . S
N728 C727 1.373 . S
N728 C730 1.340 . S
N729 C726 1.368 . S
N729 C730 1.321 . S
N729 Co732 2.135 . S
C730 N728 1.340 . S
C730 N729 1.321 . S
C730 H754 0.930 . S
H731 C726 0.931 . S
Co732 N729 2.135 . S
Co732 N735 2.121 . S
Co732 O740 2.055 . S
Co732 O743 2.039 . S
Co732 N746 2.140 . S
C733 O734 1.227 . S
C733 O743 1.265 . S
O734 C733 1.227 . S
N735 Co732 2.121 . S
N735 C737 1.375 . S
N735 C738 1.313 . S
C736 C737 1.338 . S
C736 N739 1.377 . S
C736 H756 0.930 . S
C737 N735 1.375 . S
C737 C736 1.338 . S
C737 H741 0.931 . S
C738 N735 1.313 . S
C738 N739 1.344 . S
C738 H742 0.930 . S
N739 C736 1.377 . S
N739 C738 1.344 . S
O740 Co732 2.055 . S
O740 C744 1.253 . S
H741 C737 0.931 . S
H742 C738 0.930 . S
O743 Co732 2.039 . S
O743 C733 1.265 . S
C744 O740 1.253 . S
C744 O745 1.227 . S
O745 C744 1.227 . S
N746 Co732 2.140 . S
N746 C749 1.346 . S
N746 C750 1.345 . S
C747 C748 1.387 . S
C747 C751 1.391 . S
C748 C747 1.387 . S
C748 C749 1.369 . S
C748 H757 0.929 . S
C749 N746 1.346 . S
C749 C748 1.369 . S
C749 H752 0.928 . S
C750 N746 1.345 . S
C750 C751 1.371 . S
C750 H753 0.931 . S
C751 C747 1.391 . S
C751 C750 1.371 . S
C751 H758 0.930 . S
H752 C749 0.928 . S
H753 C750 0.931 . S
H754 C730 0.930 . S
H755 C727 0.930 . S
H756 C736 0.930 . S
H757 C748 0.929 . S
H758 C751 0.930 . S
C759 C760 1.351 . S
C759 N762 1.368 . S
C759 H764 0.931 . S
C760 C759 1.351 . S
C760 N761 1.373 . S
C760 H788 0.930 . S
N761 C760 1.373 . S
N761 C763 1.340 . S
N762 C759 1.368 . S
N762 C763 1.321 . S
N762 Co765 2.135 . S
C763 N761 1.340 . S
C763 N762 1.321 . S
C763 H787 0.930 . S
H764 C759 0.931 . S
Co765 N762 2.135 . S
Co765 N768 2.121 . S
Co765 O773 2.055 . S
Co765 O776 2.039 . S
Co765 N779 2.140 . S
C766 O767 1.227 . S
C766 O776 1.265 . S
O767 C766 1.227 . S
N768 Co765 2.121 . S
N768 C770 1.375 . S
N768 C771 1.313 . S
C769 C770 1.338 . S
C769 N772 1.377 . S
C769 H789 0.930 . S
C770 N768 1.375 . S
C770 C769 1.338 . S
C770 H774 0.931 . S
C771 N768 1.313 . S
C771 N772 1.344 . S
C771 H775 0.930 . S
N772 C769 1.377 . S
N772 C771 1.344 . S
O773 Co765 2.055 . S
O773 C777 1.253 . S
H774 C770 0.931 . S
H775 C771 0.930 . S
O776 Co765 2.039 . S
O776 C766 1.265 . S
C777 O773 1.253 . S
C777 O778 1.227 . S
O778 C777 1.227 . S
N779 Co765 2.140 . S
N779 C782 1.346 . S
N779 C783 1.345 . S
C780 C781 1.387 . S
C780 C784 1.391 . S
C781 C780 1.387 . S
C781 C782 1.369 . S
C781 H790 0.929 . S
C782 N779 1.346 . S
C782 C781 1.369 . S
C782 H785 0.928 . S
C783 N779 1.345 . S
C783 C784 1.371 . S
C783 H786 0.931 . S
C784 C780 1.391 . S
C784 C783 1.371 . S
C784 H791 0.930 . S
H785 C782 0.928 . S
H786 C783 0.931 . S
H787 C763 0.930 . S
H788 C760 0.930 . S
H789 C769 0.930 . S
H790 C781 0.929 . S
H791 C784 0.930 . S
C792 C793 1.351 . S
C792 N795 1.368 . S
C792 H797 0.931 . S
C793 C792 1.351 . S
C793 N794 1.373 . S
C793 H821 0.930 . S
N794 C793 1.373 . S
N794 C796 1.340 . S
N795 C792 1.368 . S
N795 C796 1.321 . S
N795 Co798 2.135 . S
C796 N794 1.340 . S
C796 N795 1.321 . S
C796 H820 0.930 . S
H797 C792 0.931 . S
Co798 N795 2.135 . S
Co798 N801 2.121 . S
Co798 O806 2.055 . S
Co798 O809 2.039 . S
Co798 N812 2.140 . S
C799 O800 1.227 . S
C799 O809 1.265 . S
O800 C799 1.227 . S
N801 Co798 2.121 . S
N801 C803 1.375 . S
N801 C804 1.313 . S
C802 C803 1.338 . S
C802 N805 1.377 . S
C802 H822 0.930 . S
C803 N801 1.375 . S
C803 C802 1.338 . S
C803 H807 0.931 . S
C804 N801 1.313 . S
C804 N805 1.344 . S
C804 H808 0.930 . S
N805 C802 1.377 . S
N805 C804 1.344 . S
O806 Co798 2.055 . S
O806 C810 1.253 . S
H807 C803 0.931 . S
H808 C804 0.930 . S
O809 Co798 2.039 . S
O809 C799 1.265 . S
C810 O806 1.253 . S
C810 O811 1.227 . S
O811 C810 1.227 . S
N812 Co798 2.140 . S
N812 C815 1.346 . S
N812 C816 1.345 . S
C813 C814 1.387 . S
C813 C817 1.391 . S
C814 C813 1.387 . S
C814 C815 1.369 . S
C814 H823 0.929 . S
C815 N812 1.346 . S
C815 C814 1.369 . S
C815 H818 0.928 . S
C816 N812 1.345 . S
C816 C817 1.371 . S
C816 H819 0.931 . S
C817 C813 1.391 . S
C817 C816 1.371 . S
C817 H824 0.930 . S
H818 C815 0.928 . S
H819 C816 0.931 . S
H820 C796 0.930 . S
H821 C793 0.930 . S
H822 C802 0.930 . S
H823 C814 0.929 . S
H824 C817 0.930 . S
C825 C826 1.351 . S
C825 N828 1.368 . S
C825 H830 0.931 . S
C826 C825 1.351 . S
C826 N827 1.373 . S
C826 H854 0.930 . S
N827 C826 1.373 . S
N827 C829 1.340 . S
N828 C825 1.368 . S
N828 C829 1.321 . S
N828 Co831 2.135 . S
C829 N827 1.340 . S
C829 N828 1.321 . S
C829 H853 0.930 . S
H830 C825 0.931 . S
Co831 N828 2.135 . S
Co831 N834 2.121 1_556 S
Co831 O839 2.055 . S
Co831 O842 2.039 . S
Co831 N845 2.140 . S
C832 O833 1.227 . S
C832 O842 1.265 . S
O833 C832 1.227 . S
N834 Co831 2.121 1_554 S
N834 C836 1.375 . S
N834 C837 1.313 . S
C835 C836 1.338 . S
C835 N838 1.377 . S
C835 H855 0.930 . S
C836 N834 1.375 . S
C836 C835 1.338 . S
C836 H840 0.931 . S
C837 N834 1.313 . S
C837 N838 1.344 . S
C837 H841 0.930 . S
N838 C835 1.377 . S
N838 C837 1.344 . S
O839 Co831 2.055 . S
O839 C843 1.253 . S
H840 C836 0.931 . S
H841 C837 0.930 . S
O842 Co831 2.039 . S
O842 C832 1.265 . S
C843 O839 1.253 . S
C843 O844 1.227 . S
O844 C843 1.227 . S
N845 Co831 2.140 . S
N845 C848 1.346 . S
N845 C849 1.345 . S
C846 C847 1.387 . S
C846 C850 1.391 . S
C847 C846 1.387 . S
C847 C848 1.369 . S
C847 H856 0.929 . S
C848 N845 1.346 . S
C848 C847 1.369 . S
C848 H851 0.928 . S
C849 N845 1.345 . S
C849 C850 1.371 . S
C849 H852 0.931 . S
C850 C846 1.391 . S
C850 C849 1.371 . S
C850 H857 0.930 . S
H851 C848 0.928 . S
H852 C849 0.931 . S
H853 C829 0.930 . S
H854 C826 0.930 . S
H855 C835 0.930 . S
H856 C847 0.929 . S
H857 C850 0.930 . S
C858 C859 1.351 . S
C858 N861 1.368 . S
C858 H863 0.931 . S
C859 C858 1.351 . S
C859 N860 1.373 . S
C859 H887 0.930 . S
N860 C859 1.373 . S
N860 C862 1.340 . S
N861 C858 1.368 . S
N861 C862 1.321 . S
N861 Co864 2.135 . S
C862 N860 1.340 . S
C862 N861 1.321 . S
C862 H886 0.930 . S
H863 C858 0.931 . S
Co864 N861 2.135 . S
Co864 N867 2.121 . S
Co864 O872 2.055 . S
Co864 O875 2.039 . S
Co864 N878 2.140 . S
C865 O866 1.227 . S
C865 O875 1.265 . S
O866 C865 1.227 . S
N867 Co864 2.121 . S
N867 C869 1.375 . S
N867 C870 1.313 . S
C868 C869 1.338 . S
C868 N871 1.377 . S
C868 H888 0.930 . S
C869 N867 1.375 . S
C869 C868 1.338 . S
C869 H873 0.931 . S
C870 N867 1.313 . S
C870 N871 1.344 . S
C870 H874 0.930 . S
N871 C868 1.377 . S
N871 C870 1.344 . S
O872 Co864 2.055 . S
O872 C876 1.253 . S
H873 C869 0.931 . S
H874 C870 0.930 . S
O875 Co864 2.039 . S
O875 C865 1.265 . S
C876 O872 1.253 . S
C876 O877 1.227 . S
O877 C876 1.227 . S
N878 Co864 2.140 . S
N878 C881 1.346 . S
N878 C882 1.345 . S
C879 C880 1.387 . S
C879 C883 1.391 . S
C880 C879 1.387 . S
C880 C881 1.369 . S
C880 H889 0.929 . S
C881 N878 1.346 . S
C881 C880 1.369 . S
C881 H884 0.928 . S
C882 N878 1.345 . S
C882 C883 1.371 . S
C882 H885 0.931 . S
C883 C879 1.391 . S
C883 C882 1.371 . S
C883 H890 0.930 . S
H884 C881 0.928 . S
H885 C882 0.931 . S
H886 C862 0.930 . S
H887 C859 0.930 . S
H888 C868 0.930 . S
H889 C880 0.929 . S
H890 C883 0.930 . S
C891 C892 1.351 . S
C891 N894 1.368 . S
C891 H896 0.931 . S
C892 C891 1.351 . S
C892 N893 1.373 1_455 S
C892 H920 0.930 . S
N893 C892 1.373 1_655 S
N893 C895 1.349 . S
N894 C891 1.368 . S
N894 C895 1.303 1_455 S
N894 Co897 2.135 . S
C895 N893 1.349 . S
C895 N894 1.303 1_655 S
C895 H919 0.940 . S
H896 C891 0.931 . S
Co897 N894 2.135 . S
Co897 N900 2.121 . S
Co897 O905 2.055 . S
Co897 O908 2.039 . S
Co897 N911 2.140 . S
C898 O899 1.227 . S
C898 O908 1.265 . S
O899 C898 1.227 . S
N900 Co897 2.121 . S
N900 C902 1.375 . S
N900 C903 1.313 . S
C901 C902 1.338 . S
C901 N904 1.377 . S
C901 H921 0.930 . S
C902 N900 1.375 . S
C902 C901 1.338 . S
C902 H906 0.931 . S
C903 N900 1.313 . S
C903 N904 1.344 . S
C903 H907 0.930 . S
N904 C901 1.377 . S
N904 C903 1.344 . S
O905 Co897 2.055 . S
O905 C909 1.253 . S
H906 C902 0.931 . S
H907 C903 0.930 . S
O908 Co897 2.039 . S
O908 C898 1.265 . S
C909 O905 1.253 . S
C909 O910 1.227 . S
O910 C909 1.227 . S
N911 Co897 2.140 . S
N911 C914 1.346 . S
N911 C915 1.345 . S
C912 C913 1.387 . S
C912 C916 1.391 . S
C913 C912 1.387 . S
C913 C914 1.369 . S
C913 H922 0.929 . S
C914 N911 1.346 . S
C914 C913 1.369 . S
C914 H917 0.928 . S
C915 N911 1.345 . S
C915 C916 1.371 . S
C915 H918 0.931 . S
C916 C912 1.391 . S
C916 C915 1.371 . S
C916 H923 0.930 . S
H917 C914 0.928 . S
H918 C915 0.931 . S
H919 C895 0.940 . S
H920 C892 0.930 . S
H921 C901 0.930 . S
H922 C913 0.929 . S
H923 C916 0.930 . S
C924 C925 1.351 . S
C924 N927 1.368 . S
C924 H929 0.931 . S
C925 C924 1.351 . S
C925 N926 1.373 . S
C925 H953 0.930 . S
N926 C925 1.373 . S
N926 C928 1.340 . S
N927 C924 1.368 . S
N927 C928 1.321 . S
N927 Co930 2.135 . S
C928 N926 1.340 . S
C928 N927 1.321 . S
C928 H952 0.930 . S
H929 C924 0.931 . S
Co930 N927 2.135 . S
Co930 N933 2.121 . S
Co930 O938 2.055 . S
Co930 O941 2.039 . S
Co930 N944 2.140 . S
C931 O932 1.227 . S
C931 O941 1.265 . S
O932 C931 1.227 . S
N933 Co930 2.121 . S
N933 C935 1.375 . S
N933 C936 1.313 . S
C934 C935 1.338 . S
C934 N937 1.377 . S
C934 H954 0.930 . S
C935 N933 1.375 . S
C935 C934 1.338 . S
C935 H939 0.931 . S
C936 N933 1.313 . S
C936 N937 1.344 . S
C936 H940 0.930 . S
N937 C934 1.377 . S
N937 C936 1.344 . S
O938 Co930 2.055 . S
O938 C942 1.253 . S
H939 C935 0.931 . S
H940 C936 0.930 . S
O941 Co930 2.039 . S
O941 C931 1.265 . S
C942 O938 1.253 . S
C942 O943 1.227 . S
O943 C942 1.227 . S
N944 Co930 2.140 . S
N944 C947 1.346 . S
N944 C948 1.345 . S
C945 C946 1.387 . S
C945 C949 1.391 . S
C946 C945 1.387 . S
C946 C947 1.369 . S
C946 H955 0.929 . S
C947 N944 1.346 . S
C947 C946 1.369 . S
C947 H950 0.928 . S
C948 N944 1.345 . S
C948 C949 1.371 . S
C948 H951 0.931 . S
C949 C945 1.391 . S
C949 C948 1.371 . S
C949 H956 0.930 . S
H950 C947 0.928 . S
H951 C948 0.931 . S
H952 C928 0.930 . S
H953 C925 0.930 . S
H954 C934 0.930 . S
H955 C946 0.929 . S
H956 C949 0.930 . S
C957 C958 1.351 . S
C957 N960 1.368 . S
C957 H962 0.931 . S
C958 C957 1.351 . S
C958 N959 1.373 1_455 S
C958 H986 0.930 . S
N959 C958 1.373 1_655 S
N959 C961 1.349 . S
N960 C957 1.368 . S
N960 C961 1.303 1_455 S
N960 Co963 2.135 . S
C961 N959 1.349 . S
C961 N960 1.303 1_655 S
C961 H985 0.940 . S
H962 C957 0.931 . S
Co963 N960 2.135 . S
Co963 N966 2.121 1_554 S
Co963 O971 2.055 . S
Co963 O974 2.039 . S
Co963 N977 2.140 . S
C964 O965 1.227 . S
C964 O974 1.265 . S
O965 C964 1.227 . S
N966 Co963 2.121 1_556 S
N966 C968 1.375 . S
N966 C969 1.313 . S
C967 C968 1.338 . S
C967 N970 1.377 . S
C967 H987 0.930 . S
C968 N966 1.375 . S
C968 C967 1.338 . S
C968 H972 0.931 . S
C969 N966 1.313 . S
C969 N970 1.344 . S
C969 H973 0.930 . S
N970 C967 1.377 . S
N970 C969 1.344 . S
O971 Co963 2.055 . S
O971 C975 1.253 . S
H972 C968 0.931 . S
H973 C969 0.930 . S
O974 Co963 2.039 . S
O974 C964 1.265 . S
C975 O971 1.253 . S
C975 O976 1.227 . S
O976 C975 1.227 . S
N977 Co963 2.140 . S
N977 C980 1.346 . S
N977 C981 1.345 . S
C978 C979 1.387 . S
C978 C982 1.391 . S
C979 C978 1.387 . S
C979 C980 1.369 . S
C979 H988 0.929 . S
C980 N977 1.346 . S
C980 C979 1.369 . S
C980 H983 0.928 . S
C981 N977 1.345 . S
C981 C982 1.371 . S
C981 H984 0.931 . S
C982 C978 1.391 . S
C982 C981 1.371 . S
C982 H989 0.930 . S
H983 C980 0.928 . S
H984 C981 0.931 . S
H985 C961 0.940 . S
H986 C958 0.930 . S
H987 C967 0.930 . S
H988 C979 0.929 . S
H989 C982 0.930 . S
C990 C991 1.351 . S
C990 N993 1.368 . S
C990 H995 0.931 . S
C991 C990 1.351 . S
C991 N992 1.373 . S
C991 H1019 0.930 . S
N992 C991 1.373 . S
N992 C994 1.340 . S
N993 C990 1.368 . S
N993 C994 1.321 . S
N993 Co996 2.135 . S
C994 N992 1.340 . S
C994 N993 1.321 . S
C994 H1018 0.930 . S
H995 C990 0.931 . S
Co996 N993 2.135 . S
Co996 N999 2.121 . S
Co996 O1004 2.055 . S
Co996 O1007 2.039 . S
Co996 N1010 2.140 . S
C997 O998 1.227 . S
C997 O1007 1.265 . S
O998 C997 1.227 . S
N999 Co996 2.121 . S
N999 C1001 1.375 . S
N999 C1002 1.313 . S
C1000 C1001 1.338 . S
C1000 N1003 1.377 . S
C1000 H1020 0.930 . S
C1001 N999 1.375 . S
C1001 C1000 1.338 . S
C1001 H1005 0.931 . S
C1002 N999 1.313 . S
C1002 N1003 1.344 . S
C1002 H1006 0.930 . S
N1003 C1000 1.377 . S
N1003 C1002 1.344 . S
O1004 Co996 2.055 . S
O1004 C1008 1.253 . S
H1005 C1001 0.931 . S
H1006 C1002 0.930 . S
O1007 Co996 2.039 . S
O1007 C997 1.265 . S
C1008 O1004 1.253 . S
C1008 O1009 1.227 . S
O1009 C1008 1.227 . S
N1010 Co996 2.140 . S
N1010 C1013 1.346 . S
N1010 C1014 1.345 . S
C1011 C1012 1.387 . S
C1011 C1015 1.391 . S
C1012 C1011 1.387 . S
C1012 C1013 1.369 . S
C1012 H1021 0.929 . S
C1013 N1010 1.346 . S
C1013 C1012 1.369 . S
C1013 H1016 0.928 . S
C1014 N1010 1.345 . S
C1014 C1015 1.371 . S
C1014 H1017 0.931 . S
C1015 C1011 1.391 . S
C1015 C1014 1.371 . S
C1015 H1022 0.930 . S
H1016 C1013 0.928 . S
H1017 C1014 0.931 . S
H1018 C994 0.930 . S
H1019 C991 0.930 . S
H1020 C1000 0.930 . S
H1021 C1012 0.929 . S
H1022 C1015 0.930 . S
C1023 C1024 1.351 . S
C1023 N1026 1.368 . S
C1023 H1028 0.931 . S
C1024 C1023 1.351 . S
C1024 N1025 1.373 . S
C1024 H1052 0.930 . S
N1025 C1024 1.373 . S
N1025 C1027 1.340 . S
N1026 C1023 1.368 . S
N1026 C1027 1.321 . S
N1026 Co1029 2.135 . S
C1027 N1025 1.340 . S
C1027 N1026 1.321 . S
C1027 H1051 0.930 . S
H1028 C1023 0.931 . S
Co1029 N1026 2.135 . S
Co1029 N1032 2.121 . S
Co1029 O1037 2.055 . S
Co1029 O1040 2.039 . S
Co1029 N1043 2.140 . S
C1030 O1031 1.227 . S
C1030 O1040 1.265 . S
O1031 C1030 1.227 . S
N1032 Co1029 2.121 . S
N1032 C1034 1.375 . S
N1032 C1035 1.313 . S
C1033 C1034 1.338 . S
C1033 N1036 1.377 . S
C1033 H1053 0.930 . S
C1034 N1032 1.375 . S
C1034 C1033 1.338 . S
C1034 H1038 0.931 . S
C1035 N1032 1.313 . S
C1035 N1036 1.344 . S
C1035 H1039 0.930 . S
N1036 C1033 1.377 . S
N1036 C1035 1.344 . S
O1037 Co1029 2.055 . S
O1037 C1041 1.253 . S
H1038 C1034 0.931 . S
H1039 C1035 0.930 . S
O1040 Co1029 2.039 . S
O1040 C1030 1.265 . S
C1041 O1037 1.253 . S
C1041 O1042 1.227 . S
O1042 C1041 1.227 . S
N1043 Co1029 2.140 . S
N1043 C1046 1.346 . S
N1043 C1047 1.345 . S
C1044 C1045 1.387 . S
C1044 C1048 1.391 . S
C1045 C1044 1.387 . S
C1045 C1046 1.369 . S
C1045 H1054 0.929 . S
C1046 N1043 1.346 . S
C1046 C1045 1.369 . S
C1046 H1049 0.928 . S
C1047 N1043 1.345 . S
C1047 C1048 1.371 . S
C1047 H1050 0.931 . S
C1048 C1044 1.391 . S
C1048 C1047 1.371 . S
C1048 H1055 0.930 . S
H1049 C1046 0.928 . S
H1050 C1047 0.931 . S
H1051 C1027 0.930 . S
H1052 C1024 0.930 . S
H1053 C1033 0.930 . S
H1054 C1045 0.929 . S
H1055 C1048 0.930 . S
C1056 C1057 1.369 . S
C1056 C1058 1.419 . S
C1056 H1060 0.930 . S
C1057 C1056 1.369 . S
C1057 C1066 1.429 . S
C1058 C1056 1.419 . S
C1058 C1059 1.363 . S
C1058 H1061 0.929 . S
C1059 C1058 1.363 . S
C1059 C1065 1.428 . S
H1060 C1056 0.930 . S
H1061 C1058 0.929 . S
S1062 N1063 1.613 . S
S1062 N1064 1.610 . S
N1063 S1062 1.613 . S
N1063 C1066 1.350 . S
N1064 S1062 1.610 . S
N1064 C1065 1.351 . S
C1065 C1059 1.428 . S
C1065 N1064 1.351 . S
C1065 C1066 1.434 . S
C1066 C1057 1.429 . S
C1066 N1063 1.350 . S
C1066 C1065 1.434 . S
C1067 C1068 1.369 . S
C1067 C1069 1.419 . S
C1067 H1071 0.930 . S
C1068 C1067 1.369 . S
C1068 C1077 1.429 . S
C1069 C1067 1.419 . S
C1069 C1070 1.363 . S
C1069 H1072 0.929 . S
C1070 C1069 1.363 . S
C1070 C1076 1.428 . S
H1071 C1067 0.930 . S
H1072 C1069 0.929 . S
S1073 N1074 1.613 . S
S1073 N1075 1.610 . S
N1074 S1073 1.613 . S
N1074 C1077 1.350 . S
N1075 S1073 1.610 . S
N1075 C1076 1.351 . S
C1076 C1070 1.428 . S
C1076 N1075 1.351 . S
C1076 C1077 1.434 . S
C1077 C1068 1.429 . S
C1077 N1074 1.350 . S
C1077 C1076 1.434 . S
C1078 C1079 1.369 . S
C1078 C1080 1.419 . S
C1078 H1082 0.930 . S
C1079 C1078 1.369 . S
C1079 C1088 1.429 . S
C1080 C1078 1.419 . S
C1080 C1081 1.363 . S
C1080 H1083 0.929 . S
C1081 C1080 1.363 . S
C1081 C1087 1.428 . S
H1082 C1078 0.930 . S
H1083 C1080 0.929 . S
S1084 N1085 1.613 . S
S1084 N1086 1.610 . S
N1085 S1084 1.613 . S
N1085 C1088 1.350 . S
N1086 S1084 1.610 . S
N1086 C1087 1.351 . S
C1087 C1081 1.428 . S
C1087 N1086 1.351 . S
C1087 C1088 1.434 . S
C1088 C1079 1.429 . S
C1088 N1085 1.350 . S
C1088 C1087 1.434 . S
C1089 C1090 1.369 . S
C1089 C1091 1.419 . S
C1089 H1093 0.930 . S
C1090 C1089 1.369 . S
C1090 C1099 1.429 . S
C1091 C1089 1.419 . S
C1091 C1092 1.363 . S
C1091 H1094 0.929 . S
C1092 C1091 1.363 . S
C1092 C1098 1.428 . S
H1093 C1089 0.930 . S
H1094 C1091 0.929 . S
S1095 N1096 1.613 . S
S1095 N1097 1.610 . S
N1096 S1095 1.613 . S
N1096 C1099 1.350 . S
N1097 S1095 1.610 . S
N1097 C1098 1.351 . S
C1098 C1092 1.428 . S
C1098 N1097 1.351 . S
C1098 C1099 1.434 . S
C1099 C1090 1.429 . S
C1099 N1096 1.350 . S
C1099 C1098 1.434 . S
C1100 C1101 1.369 . S
C1100 C1102 1.419 . S
C1100 H1104 0.930 . S
C1101 C1100 1.369 . S
C1101 C1110 1.429 . S
C1102 C1100 1.419 . S
C1102 C1103 1.363 . S
C1102 H1105 0.929 . S
C1103 C1102 1.363 . S
C1103 C1109 1.428 . S
H1104 C1100 0.930 . S
H1105 C1102 0.929 . S
S1106 N1107 1.613 . S
S1106 N1108 1.610 . S
N1107 S1106 1.613 . S
N1107 C1110 1.350 . S
N1108 S1106 1.610 . S
N1108 C1109 1.351 . S
C1109 C1103 1.428 . S
C1109 N1108 1.351 . S
C1109 C1110 1.434 . S
C1110 C1101 1.429 . S
C1110 N1107 1.350 . S
C1110 C1109 1.434 . S
C1111 C1112 1.369 . S
C1111 C1113 1.419 . S
C1111 H1115 0.930 . S
C1112 C1111 1.369 . S
C1112 C1121 1.429 . S
C1113 C1111 1.419 . S
C1113 C1114 1.363 . S
C1113 H1116 0.929 . S
C1114 C1113 1.363 . S
C1114 C1120 1.428 . S
H1115 C1111 0.930 . S
H1116 C1113 0.929 . S
S1117 N1118 1.613 . S
S1117 N1119 1.610 . S
N1118 S1117 1.613 . S
N1118 C1121 1.350 . S
N1119 S1117 1.610 . S
N1119 C1120 1.351 . S
C1120 C1114 1.428 . S
C1120 N1119 1.351 . S
C1120 C1121 1.434 . S
C1121 C1112 1.429 . S
C1121 N1118 1.350 . S
C1121 C1120 1.434 . S
C1122 C1123 1.369 . S
C1122 C1124 1.419 . S
C1122 H1126 0.930 . S
C1123 C1122 1.369 . S
C1123 C1132 1.429 . S
C1124 C1122 1.419 . S
C1124 C1125 1.363 . S
C1124 H1127 0.929 . S
C1125 C1124 1.363 . S
C1125 C1131 1.428 . S
H1126 C1122 0.930 . S
H1127 C1124 0.929 . S
S1128 N1129 1.613 . S
S1128 N1130 1.610 . S
N1129 S1128 1.613 . S
N1129 C1132 1.350 . S
N1130 S1128 1.610 . S
N1130 C1131 1.351 . S
C1131 C1125 1.428 . S
C1131 N1130 1.351 . S
C1131 C1132 1.434 . S
C1132 C1123 1.429 . S
C1132 N1129 1.350 . S
C1132 C1131 1.434 . S
C1133 C1134 1.369 . S
C1133 C1135 1.419 . S
C1133 H1137 0.930 . S
C1134 C1133 1.369 . S
C1134 C1143 1.429 . S
C1135 C1133 1.419 . S
C1135 C1136 1.363 . S
C1135 H1138 0.929 . S
C1136 C1135 1.363 . S
C1136 C1142 1.428 . S
H1137 C1133 0.930 . S
H1138 C1135 0.929 . S
S1139 N1140 1.613 . S
S1139 N1141 1.610 . S
N1140 S1139 1.613 . S
N1140 C1143 1.350 . S
N1141 S1139 1.610 . S
N1141 C1142 1.351 . S
C1142 C1136 1.428 . S
C1142 N1141 1.351 . S
C1142 C1143 1.434 . S
C1143 C1134 1.429 . S
C1143 N1140 1.350 . S
C1143 C1142 1.434 . S
C1144 C1145 1.369 . S
C1144 C1146 1.419 . S
C1144 H1148 0.930 . S
C1145 C1144 1.369 . S
C1145 C1154 1.429 . S
C1146 C1144 1.419 . S
C1146 C1147 1.363 . S
C1146 H1149 0.929 . S
C1147 C1146 1.363 . S
C1147 C1153 1.428 . S
H1148 C1144 0.930 . S
H1149 C1146 0.929 . S
S1150 N1151 1.613 . S
S1150 N1152 1.610 . S
N1151 S1150 1.613 . S
N1151 C1154 1.350 . S
N1152 S1150 1.610 . S
N1152 C1153 1.351 . S
C1153 C1147 1.428 . S
C1153 N1152 1.351 . S
C1153 C1154 1.434 . S
C1154 C1145 1.429 . S
C1154 N1151 1.350 . S
C1154 C1153 1.434 . S
C1155 C1156 1.369 . S
C1155 C1157 1.419 . S
C1155 H1159 0.930 . S
C1156 C1155 1.369 . S
C1156 C1165 1.429 . S
C1157 C1155 1.419 . S
C1157 C1158 1.363 . S
C1157 H1160 0.929 . S
C1158 C1157 1.363 . S
C1158 C1164 1.428 . S
H1159 C1155 0.930 . S
H1160 C1157 0.929 . S
S1161 N1162 1.613 . S
S1161 N1163 1.610 . S
N1162 S1161 1.613 . S
N1162 C1165 1.350 . S
N1163 S1161 1.610 . S
N1163 C1164 1.351 . S
C1164 C1158 1.428 . S
C1164 N1163 1.351 . S
C1164 C1165 1.434 . S
C1165 C1156 1.429 . S
C1165 N1162 1.350 . S
C1165 C1164 1.434 . S
C1166 C1167 1.369 . S
C1166 C1168 1.419 . S
C1166 H1170 0.930 . S
C1167 C1166 1.369 . S
C1167 C1176 1.429 . S
C1168 C1166 1.419 . S
C1168 C1169 1.363 . S
C1168 H1171 0.929 . S
C1169 C1168 1.363 . S
C1169 C1175 1.428 . S
H1170 C1166 0.930 . S
H1171 C1168 0.929 . S
S1172 N1173 1.613 . S
S1172 N1174 1.610 . S
N1173 S1172 1.613 . S
N1173 C1176 1.350 . S
N1174 S1172 1.610 . S
N1174 C1175 1.351 . S
C1175 C1169 1.428 . S
C1175 N1174 1.351 . S
C1175 C1176 1.434 . S
C1176 C1167 1.429 . S
C1176 N1173 1.350 . S
C1176 C1175 1.434 . S
C1177 C1178 1.369 . S
C1177 C1179 1.419 . S
C1177 H1181 0.930 . S
C1178 C1177 1.369 . S
C1178 C1187 1.429 . S
C1179 C1177 1.419 . S
C1179 C1180 1.363 . S
C1179 H1182 0.929 . S
C1180 C1179 1.363 . S
C1180 C1186 1.428 . S
H1181 C1177 0.930 . S
H1182 C1179 0.929 . S
S1183 N1184 1.613 . S
S1183 N1185 1.610 . S
N1184 S1183 1.613 . S
N1184 C1187 1.350 . S
N1185 S1183 1.610 . S
N1185 C1186 1.351 . S
C1186 C1180 1.428 . S
C1186 N1185 1.351 . S
C1186 C1187 1.434 . S
C1187 C1178 1.429 . S
C1187 N1184 1.350 . S
C1187 C1186 1.434 . S
C1188 C1189 1.369 . S
C1188 C1190 1.419 . S
C1188 H1192 0.930 . S
C1189 C1188 1.369 . S
C1189 C1198 1.429 . S
C1190 C1188 1.419 . S
C1190 C1191 1.363 . S
C1190 H1193 0.929 . S
C1191 C1190 1.363 . S
C1191 C1197 1.428 . S
H1192 C1188 0.930 . S
H1193 C1190 0.929 . S
S1194 N1195 1.613 . S
S1194 N1196 1.610 . S
N1195 S1194 1.613 . S
N1195 C1198 1.350 . S
N1196 S1194 1.610 . S
N1196 C1197 1.351 . S
C1197 C1191 1.428 . S
C1197 N1196 1.351 . S
C1197 C1198 1.434 . S
C1198 C1189 1.429 . S
C1198 N1195 1.350 . S
C1198 C1197 1.434 . S
C1199 C1200 1.369 . S
C1199 C1201 1.419 . S
C1199 H1203 0.930 . S
C1200 C1199 1.369 . S
C1200 C1209 1.429 . S
C1201 C1199 1.419 . S
C1201 C1202 1.363 . S
C1201 H1204 0.929 . S
C1202 C1201 1.363 . S
C1202 C1208 1.428 . S
H1203 C1199 0.930 . S
H1204 C1201 0.929 . S
S1205 N1206 1.613 . S
S1205 N1207 1.610 . S
N1206 S1205 1.613 . S
N1206 C1209 1.350 . S
N1207 S1205 1.610 . S
N1207 C1208 1.351 . S
C1208 C1202 1.428 . S
C1208 N1207 1.351 . S
C1208 C1209 1.434 . S
C1209 C1200 1.429 . S
C1209 N1206 1.350 . S
C1209 C1208 1.434 . S
C1210 C1211 1.369 . S
C1210 C1212 1.419 . S
C1210 H1214 0.930 . S
C1211 C1210 1.369 . S
C1211 C1220 1.429 . S
C1212 C1210 1.419 . S
C1212 C1213 1.363 . S
C1212 H1215 0.929 . S
C1213 C1212 1.363 . S
C1213 C1219 1.428 . S
H1214 C1210 0.930 . S
H1215 C1212 0.929 . S
S1216 N1217 1.613 . S
S1216 N1218 1.610 . S
N1217 S1216 1.613 . S
N1217 C1220 1.350 . S
N1218 S1216 1.610 . S
N1218 C1219 1.351 . S
C1219 C1213 1.428 . S
C1219 N1218 1.351 . S
C1219 C1220 1.434 . S
C1220 C1211 1.429 . S
C1220 N1217 1.350 . S
C1220 C1219 1.434 . S
C1221 C1222 1.369 . S
C1221 C1223 1.419 . S
C1221 H1225 0.930 . S
C1222 C1221 1.369 . S
C1222 C1231 1.429 . S
C1223 C1221 1.419 . S
C1223 C1224 1.363 . S
C1223 H1226 0.929 . S
C1224 C1223 1.363 . S
C1224 C1230 1.428 . S
H1225 C1221 0.930 . S
H1226 C1223 0.929 . S
S1227 N1228 1.613 . S
S1227 N1229 1.610 . S
N1228 S1227 1.613 . S
N1228 C1231 1.350 . S
N1229 S1227 1.610 . S
N1229 C1230 1.351 . S
C1230 C1224 1.428 . S
C1230 N1229 1.351 . S
C1230 C1231 1.434 . S
C1231 C1222 1.429 . S
C1231 N1228 1.350 . S
C1231 C1230 1.434 . S
C1232 C1233 1.369 . S
C1232 C1234 1.419 1_655 S
C1232 H1236 0.930 . S
C1233 C1232 1.369 . S
C1233 C1242 1.429 . S
C1234 C1232 1.419 1_455 S
C1234 C1235 1.363 . S
C1234 H1237 0.929 . S
C1235 C1234 1.363 . S
C1235 C1241 1.428 . S
H1236 C1232 0.930 . S
H1237 C1234 0.929 . S
S1238 N1239 1.613 1_455 S
S1238 N1240 1.610 . S
N1239 S1238 1.613 1_655 S
N1239 C1242 1.350 . S
N1240 S1238 1.610 . S
N1240 C1241 1.351 . S
C1241 C1235 1.428 . S
C1241 N1240 1.351 . S
C1241 C1242 1.434 1_455 S
C1242 C1233 1.429 . S
C1242 N1239 1.350 . S
C1242 C1241 1.434 1_655 S
C1243 C1244 1.369 1_455 S
C1243 C1245 1.419 . S
C1243 H1247 0.930 . S
C1244 C1243 1.369 1_655 S
C1244 C1253 1.429 . S
C1245 C1243 1.419 . S
C1245 C1246 1.363 . S
C1245 H1248 0.929 . S
C1246 C1245 1.363 . S
C1246 C1252 1.428 1_455 S
H1247 C1243 0.930 . S
H1248 C1245 0.929 . S
S1249 N1250 1.613 . S
S1249 N1251 1.610 . S
N1250 S1249 1.613 . S
N1250 C1253 1.350 . S
N1251 S1249 1.610 . S
N1251 C1252 1.351 . S
C1252 C1246 1.428 1_655 S
C1252 N1251 1.351 . S
C1252 C1253 1.434 . S
C1253 C1244 1.429 . S
C1253 N1250 1.350 . S
C1253 C1252 1.434 . S
C1254 C1255 1.369 . S
C1254 C1256 1.419 . S
C1254 H1258 0.930 . S
C1255 C1254 1.369 . S
C1255 C1264 1.429 . S
C1256 C1254 1.419 . S
C1256 C1257 1.363 . S
C1256 H1259 0.929 . S
C1257 C1256 1.363 . S
C1257 C1263 1.428 . S
H1258 C1254 0.930 . S
H1259 C1256 0.929 . S
S1260 N1261 1.613 . S
S1260 N1262 1.610 . S
N1261 S1260 1.613 . S
N1261 C1264 1.350 . S
N1262 S1260 1.610 . S
N1262 C1263 1.351 . S
C1263 C1257 1.428 . S
C1263 N1262 1.351 . S
C1263 C1264 1.434 . S
C1264 C1255 1.429 . S
C1264 N1261 1.350 . S
C1264 C1263 1.434 . S
C1265 C1266 1.369 . S
C1265 C1267 1.419 . S
C1265 H1269 0.930 . S
C1266 C1265 1.369 . S
C1266 C1275 1.429 1_554 S
C1267 C1265 1.419 . S
C1267 C1268 1.363 . S
C1267 H1270 0.929 . S
C1268 C1267 1.363 . S
C1268 C1274 1.428 1_554 S
H1269 C1265 0.930 . S
H1270 C1267 0.929 . S
S1271 N1272 1.613 . S
S1271 N1273 1.610 . S
N1272 S1271 1.613 . S
N1272 C1275 1.350 . S
N1273 S1271 1.610 . S
N1273 C1274 1.351 . S
C1274 C1268 1.428 1_556 S
C1274 N1273 1.351 . S
C1274 C1275 1.434 . S
C1275 C1266 1.429 1_556 S
C1275 N1272 1.350 . S
C1275 C1274 1.434 . S
C1276 C1277 1.369 . S
C1276 C1278 1.419 1_655 S
C1276 H1280 0.930 . S
C1277 C1276 1.369 . S
C1277 C1286 1.429 . S
C1278 C1276 1.419 1_455 S
C1278 C1279 1.363 . S
C1278 H1281 0.929 . S
C1279 C1278 1.363 . S
C1279 C1285 1.428 . S
H1280 C1276 0.930 . S
H1281 C1278 0.929 . S
S1282 N1283 1.613 . S
S1282 N1284 1.610 1_655 S
N1283 S1282 1.613 . S
N1283 C1286 1.350 . S
N1284 S1282 1.610 1_455 S
N1284 C1285 1.351 . S
C1285 C1279 1.428 . S
C1285 N1284 1.351 . S
C1285 C1286 1.434 1_455 S
C1286 C1277 1.429 . S
C1286 N1283 1.350 . S
C1286 C1285 1.434 1_655 S
C1287 C1288 1.369 . S
C1287 C1289 1.419 . S
C1287 H1291 0.930 . S
C1288 C1287 1.369 . S
C1288 C1297 1.429 . S
C1289 C1287 1.419 . S
C1289 C1290 1.363 . S
C1289 H1292 0.929 . S
C1290 C1289 1.363 . S
C1290 C1296 1.428 . S
H1291 C1287 0.930 . S
H1292 C1289 0.929 . S
S1293 N1294 1.613 . S
S1293 N1295 1.610 . S
N1294 S1293 1.613 . S
N1294 C1297 1.350 . S
N1295 S1293 1.610 . S
N1295 C1296 1.351 . S
C1296 C1290 1.428 . S
C1296 N1295 1.351 . S
C1296 C1297 1.434 . S
C1297 C1288 1.429 . S
C1297 N1294 1.350 . S
C1297 C1296 1.434 . S
C1298 C1299 1.369 . S
C1298 C1300 1.419 . S
C1298 H1302 0.930 . S
C1299 C1298 1.369 . S
C1299 C1308 1.429 . S
C1300 C1298 1.419 . S
C1300 C1301 1.363 . S
C1300 H1303 0.929 . S
C1301 C1300 1.363 . S
C1301 C1307 1.428 . S
H1302 C1298 0.930 . S
H1303 C1300 0.929 . S
S1304 N1305 1.613 . S
S1304 N1306 1.610 . S
N1305 S1304 1.613 . S
N1305 C1308 1.350 . S
N1306 S1304 1.610 . S
N1306 C1307 1.351 . S
C1307 C1301 1.428 . S
C1307 N1306 1.351 . S
C1307 C1308 1.434 . S
C1308 C1299 1.429 . S
C1308 N1305 1.350 . S
C1308 C1307 1.434 . S
C1309 C1310 1.369 1_655 S
C1309 C1311 1.419 . S
C1309 H1313 0.930 . S
C1310 C1309 1.369 1_455 S
C1310 C1319 1.429 1_556 S
C1311 C1309 1.419 . S
C1311 C1312 1.363 . S
C1311 H1314 0.929 . S
C1312 C1311 1.363 . S
C1312 C1318 1.428 1_656 S
H1313 C1309 0.930 . S
H1314 C1311 0.929 . S
S1315 N1316 1.613 . S
S1315 N1317 1.610 . S
N1316 S1315 1.613 . S
N1316 C1319 1.350 . S
N1317 S1315 1.610 . S
N1317 C1318 1.351 . S
C1318 C1312 1.428 1_454 S
C1318 N1317 1.351 . S
C1318 C1319 1.434 . S
C1319 C1310 1.429 1_554 S
C1319 N1316 1.350 . S
C1319 C1318 1.434 . S
C1320 C1321 1.369 . S
C1320 C1322 1.419 1_655 S
C1320 H1324 0.930 . S
C1321 C1320 1.369 . S
C1321 C1330 1.429 . S
C1322 C1320 1.419 1_455 S
C1322 C1323 1.363 . S
C1322 H1325 0.929 . S
C1323 C1322 1.363 . S
C1323 C1329 1.428 . S
H1324 C1320 0.930 . S
H1325 C1322 0.929 . S
S1326 N1327 1.613 . S
S1326 N1328 1.610 1_655 S
N1327 S1326 1.613 . S
N1327 C1330 1.350 . S
N1328 S1326 1.610 1_455 S
N1328 C1329 1.351 . S
C1329 C1323 1.428 . S
C1329 N1328 1.351 . S
C1329 C1330 1.434 1_455 S
C1330 C1321 1.429 . S
C1330 N1327 1.350 . S
C1330 C1329 1.434 1_655 S
C1331 C1332 1.369 . S
C1331 C1333 1.419 . S
C1331 H1335 0.930 . S
C1332 C1331 1.369 . S
C1332 C1341 1.429 1_455 S
C1333 C1331 1.419 . S
C1333 C1334 1.363 1_455 S
C1333 H1336 0.929 . S
C1334 C1333 1.363 1_655 S
C1334 C1340 1.428 . S
H1335 C1331 0.930 . S
H1336 C1333 0.929 . S
S1337 N1338 1.613 . S
S1337 N1339 1.610 . S
N1338 S1337 1.613 . S
N1338 C1341 1.350 . S
N1339 S1337 1.610 . S
N1339 C1340 1.351 . S
C1340 C1334 1.428 . S
C1340 N1339 1.351 . S
C1340 C1341 1.434 . S
C1341 C1332 1.429 1_655 S
C1341 N1338 1.350 . S
C1341 C1340 1.434 . S
C1342 C1343 1.369 . S
C1342 C1344 1.419 . S
C1342 H1346 0.930 . S
C1343 C1342 1.369 . S
C1343 C1352 1.429 . S
C1344 C1342 1.419 . S
C1344 C1345 1.363 . S
C1344 H1347 0.929 . S
C1345 C1344 1.363 . S
C1345 C1351 1.428 . S
H1346 C1342 0.930 . S
H1347 C1344 0.929 . S
S1348 N1349 1.613 . S
S1348 N1350 1.610 . S
N1349 S1348 1.613 . S
N1349 C1352 1.350 . S
N1350 S1348 1.610 . S
N1350 C1351 1.351 . S
C1351 C1345 1.428 . S
C1351 N1350 1.351 . S
C1351 C1352 1.434 . S
C1352 C1343 1.429 . S
C1352 N1349 1.350 . S
C1352 C1351 1.434 . S
C1353 C1354 1.369 1_554 S
C1353 C1355 1.419 . S
C1353 H1357 0.930 . S
C1354 C1353 1.369 1_556 S
C1354 C1363 1.429 . S
C1355 C1353 1.419 . S
C1355 C1356 1.363 1_554 S
C1355 H1358 0.929 . S
C1356 C1355 1.363 1_556 S
C1356 C1362 1.428 . S
H1357 C1353 0.930 . S
H1358 C1355 0.929 . S
S1359 N1360 1.613 . S
S1359 N1361 1.610 . S
N1360 S1359 1.613 . S
N1360 C1363 1.350 . S
N1361 S1359 1.610 . S
N1361 C1362 1.351 . S
C1362 C1356 1.428 . S
C1362 N1361 1.351 . S
C1362 C1363 1.434 . S
C1363 C1354 1.429 . S
C1363 N1360 1.350 . S
C1363 C1362 1.434 . S
C1364 C1365 1.369 . S
C1364 C1366 1.419 1_655 S
C1364 H1368 0.930 . S
C1365 C1364 1.369 . S
C1365 C1374 1.429 . S
C1366 C1364 1.419 1_455 S
C1366 C1367 1.363 . S
C1366 H1369 0.929 . S
C1367 C1366 1.363 . S
C1367 C1373 1.428 . S
H1368 C1364 0.930 . S
H1369 C1366 0.929 . S
S1370 N1371 1.613 1_455 S
S1370 N1372 1.610 . S
N1371 S1370 1.613 1_655 S
N1371 C1374 1.350 . S
N1372 S1370 1.610 . S
N1372 C1373 1.351 . S
C1373 C1367 1.428 . S
C1373 N1372 1.351 . S
C1373 C1374 1.434 1_455 S
C1374 C1365 1.429 . S
C1374 N1371 1.350 . S
C1374 C1373 1.434 1_655 S
C1375 C1376 1.369 . S
C1375 C1377 1.419 . S
C1375 H1379 0.930 . S
C1376 C1375 1.369 . S
C1376 C1385 1.429 . S
C1377 C1375 1.419 . S
C1377 C1378 1.363 . S
C1377 H1380 0.929 . S
C1378 C1377 1.363 . S
C1378 C1384 1.428 . S
H1379 C1375 0.930 . S
H1380 C1377 0.929 . S
S1381 N1382 1.613 . S
S1381 N1383 1.610 . S
N1382 S1381 1.613 . S
N1382 C1385 1.350 . S
N1383 S1381 1.610 . S
N1383 C1384 1.351 . S
C1384 C1378 1.428 . S
C1384 N1383 1.351 . S
C1384 C1385 1.434 . S
C1385 C1376 1.429 . S
C1385 N1382 1.350 . S
C1385 C1384 1.434 . S
C1386 C1387 1.369 . S
C1386 C1388 1.419 . S
C1386 H1390 0.930 . S
C1387 C1386 1.369 . S
C1387 C1396 1.429 . S
C1388 C1386 1.419 . S
C1388 C1389 1.363 . S
C1388 H1391 0.929 . S
C1389 C1388 1.363 . S
C1389 C1395 1.428 . S
H1390 C1386 0.930 . S
H1391 C1388 0.929 . S
S1392 N1393 1.613 . S
S1392 N1394 1.610 . S
N1393 S1392 1.613 . S
N1393 C1396 1.350 . S
N1394 S1392 1.610 . S
N1394 C1395 1.351 . S
C1395 C1389 1.428 . S
C1395 N1394 1.351 . S
C1395 C1396 1.434 . S
C1396 C1387 1.429 . S
C1396 N1393 1.350 . S
C1396 C1395 1.434 . S
C1397 C1398 1.369 1_655 S
C1397 C1399 1.419 . S
C1397 H1401 0.930 . S
C1398 C1397 1.369 1_455 S
C1398 C1407 1.429 1_554 S
C1399 C1397 1.419 . S
C1399 C1400 1.363 . S
C1399 H1402 0.929 . S
C1400 C1399 1.363 . S
C1400 C1406 1.428 1_654 S
H1401 C1397 0.930 . S
H1402 C1399 0.929 . S
S1403 N1404 1.613 . S
S1403 N1405 1.610 . S
N1404 S1403 1.613 . S
N1404 C1407 1.350 . S
N1405 S1403 1.610 . S
N1405 C1406 1.351 . S
C1406 C1400 1.428 1_456 S
C1406 N1405 1.351 . S
C1406 C1407 1.434 . S
C1407 C1398 1.429 1_556 S
C1407 N1404 1.350 . S
C1407 C1406 1.434 . S
C1408 C1409 1.369 . S
C1408 C1410 1.419 . S
C1408 H1412 0.930 . S
C1409 C1408 1.369 . S
C1409 C1418 1.429 . S
C1410 C1408 1.419 . S
C1410 C1411 1.363 . S
C1410 H1413 0.929 . S
C1411 C1410 1.363 . S
C1411 C1417 1.428 . S
H1412 C1408 0.930 . S
H1413 C1410 0.929 . S
S1414 N1415 1.613 . S
S1414 N1416 1.610 . S
N1415 S1414 1.613 . S
N1415 C1418 1.350 . S
N1416 S1414 1.610 . S
N1416 C1417 1.351 . S
C1417 C1411 1.428 . S
C1417 N1416 1.351 . S
C1417 C1418 1.434 . S
C1418 C1409 1.429 . S
C1418 N1415 1.350 . S
C1418 C1417 1.434 . S
C1419 C1420 1.369 . S
C1419 C1421 1.419 . S
C1419 H1423 0.930 . S
C1420 C1419 1.369 . S
C1420 C1429 1.429 . S
C1421 C1419 1.419 . S
C1421 C1422 1.363 . S
C1421 H1424 0.929 . S
C1422 C1421 1.363 . S
C1422 C1428 1.428 . S
H1423 C1419 0.930 . S
H1424 C1421 0.929 . S
S1425 N1426 1.613 . S
S1425 N1427 1.610 . S
N1426 S1425 1.613 . S
N1426 C1429 1.350 . S
N1427 S1425 1.610 . S
N1427 C1428 1.351 . S
C1428 C1422 1.428 . S
C1428 N1427 1.351 . S
C1428 C1429 1.434 . S
C1429 C1420 1.429 . S
C1429 N1426 1.350 . S
C1429 C1428 1.434 . S
C1430 C1431 1.369 . S
C1430 C1432 1.419 . S
C1430 H1434 0.930 . S
C1431 C1430 1.369 . S
C1431 C1440 1.429 . S
C1432 C1430 1.419 . S
C1432 C1433 1.363 . S
C1432 H1435 0.929 . S
C1433 C1432 1.363 . S
C1433 C1439 1.428 . S
H1434 C1430 0.930 . S
H1435 C1432 0.929 . S
S1436 N1437 1.613 . S
S1436 N1438 1.610 . S
N1437 S1436 1.613 . S
N1437 C1440 1.350 . S
N1438 S1436 1.610 . S
N1438 C1439 1.351 . S
C1439 C1433 1.428 . S
C1439 N1438 1.351 . S
C1439 C1440 1.434 . S
C1440 C1431 1.429 . S
C1440 N1437 1.350 . S
C1440 C1439 1.434 . S
C1441 C1442 1.369 . S
C1441 C1443 1.419 . S
C1441 H1445 0.930 . S
C1442 C1441 1.369 . S
C1442 C1451 1.429 . S
C1443 C1441 1.419 . S
C1443 C1444 1.363 . S
C1443 H1446 0.929 . S
C1444 C1443 1.363 . S
C1444 C1450 1.428 . S
H1445 C1441 0.930 . S
H1446 C1443 0.929 . S
S1447 N1448 1.613 . S
S1447 N1449 1.610 . S
N1448 S1447 1.613 . S
N1448 C1451 1.350 . S
N1449 S1447 1.610 . S
N1449 C1450 1.351 . S
C1450 C1444 1.428 . S
C1450 N1449 1.351 . S
C1450 C1451 1.434 . S
C1451 C1442 1.429 . S
C1451 N1448 1.350 . S
C1451 C1450 1.434 . S
C1452 C1453 1.369 . S
C1452 C1454 1.419 . S
C1452 H1456 0.930 . S
C1453 C1452 1.369 . S
C1453 C1462 1.429 . S
C1454 C1452 1.419 . S
C1454 C1455 1.363 . S
C1454 H1457 0.929 . S
C1455 C1454 1.363 . S
C1455 C1461 1.428 . S
H1456 C1452 0.930 . S
H1457 C1454 0.929 . S
S1458 N1459 1.613 . S
S1458 N1460 1.610 . S
N1459 S1458 1.613 . S
N1459 C1462 1.350 . S
N1460 S1458 1.610 . S
N1460 C1461 1.351 . S
C1461 C1455 1.428 . S
C1461 N1460 1.351 . S
C1461 C1462 1.434 . S
C1462 C1453 1.429 . S
C1462 N1459 1.350 . S
C1462 C1461 1.434 . S
C1463 C1464 1.369 . S
C1463 C1465 1.419 . S
C1463 H1467 0.930 . S
C1464 C1463 1.369 . S
C1464 C1473 1.429 . S
C1465 C1463 1.419 . S
C1465 C1466 1.363 . S
C1465 H1468 0.929 . S
C1466 C1465 1.363 . S
C1466 C1472 1.428 . S
H1467 C1463 0.930 . S
H1468 C1465 0.929 . S
S1469 N1470 1.613 . S
S1469 N1471 1.610 . S
N1470 S1469 1.613 . S
N1470 C1473 1.350 . S
N1471 S1469 1.610 . S
N1471 C1472 1.351 . S
C1472 C1466 1.428 . S
C1472 N1471 1.351 . S
C1472 C1473 1.434 . S
C1473 C1464 1.429 . S
C1473 N1470 1.350 . S
C1473 C1472 1.434 . S
C1474 C1475 1.369 . S
C1474 C1476 1.419 . S
C1474 H1478 0.930 . S
C1475 C1474 1.369 . S
C1475 C1484 1.429 . S
C1476 C1474 1.419 . S
C1476 C1477 1.363 . S
C1476 H1479 0.929 . S
C1477 C1476 1.363 . S
C1477 C1483 1.428 . S
H1478 C1474 0.930 . S
H1479 C1476 0.929 . S
S1480 N1481 1.613 . S
S1480 N1482 1.610 . S
N1481 S1480 1.613 . S
N1481 C1484 1.350 . S
N1482 S1480 1.610 . S
N1482 C1483 1.351 . S
C1483 C1477 1.428 . S
C1483 N1482 1.351 . S
C1483 C1484 1.434 . S
C1484 C1475 1.429 . S
C1484 N1481 1.350 . S
C1484 C1483 1.434 . S
C1485 C1486 1.369 . S
C1485 C1487 1.419 . S
C1485 H1489 0.930 . S
C1486 C1485 1.369 . S
C1486 C1495 1.429 . S
C1487 C1485 1.419 . S
C1487 C1488 1.363 . S
C1487 H1490 0.929 . S
C1488 C1487 1.363 . S
C1488 C1494 1.428 . S
H1489 C1485 0.930 . S
H1490 C1487 0.929 . S
S1491 N1492 1.613 . S
S1491 N1493 1.610 . S
N1492 S1491 1.613 . S
N1492 C1495 1.350 . S
N1493 S1491 1.610 . S
N1493 C1494 1.351 . S
C1494 C1488 1.428 . S
C1494 N1493 1.351 . S
C1494 C1495 1.434 . S
C1495 C1486 1.429 . S
C1495 N1492 1.350 . S
C1495 C1494 1.434 . S
C1496 C1497 1.369 . S
C1496 C1498 1.419 . S
C1496 H1500 0.930 . S
C1497 C1496 1.369 . S
C1497 C1506 1.429 . S
C1498 C1496 1.419 . S
C1498 C1499 1.363 . S
C1498 H1501 0.929 . S
C1499 C1498 1.363 . S
C1499 C1505 1.428 . S
H1500 C1496 0.930 . S
H1501 C1498 0.929 . S
S1502 N1503 1.613 . S
S1502 N1504 1.610 . S
N1503 S1502 1.613 . S
N1503 C1506 1.350 . S
N1504 S1502 1.610 . S
N1504 C1505 1.351 . S
C1505 C1499 1.428 . S
C1505 N1504 1.351 . S
C1505 C1506 1.434 . S
C1506 C1497 1.429 . S
C1506 N1503 1.350 . S
C1506 C1505 1.434 . S
C1507 C1508 1.369 . S
C1507 C1509 1.419 . S
C1507 H1511 0.930 . S
C1508 C1507 1.369 . S
C1508 C1517 1.429 . S
C1509 C1507 1.419 . S
C1509 C1510 1.363 . S
C1509 H1512 0.929 . S
C1510 C1509 1.363 . S
C1510 C1516 1.428 . S
H1511 C1507 0.930 . S
H1512 C1509 0.929 . S
S1513 N1514 1.613 1_455 S
S1513 N1515 1.610 . S
N1514 S1513 1.613 1_655 S
N1514 C1517 1.350 1_655 S
N1515 S1513 1.610 . S
N1515 C1516 1.351 . S
C1516 C1510 1.428 . S
C1516 N1515 1.351 . S
C1516 C1517 1.434 . S
C1517 C1508 1.429 . S
C1517 N1514 1.350 1_455 S
C1517 C1516 1.434 . S
C1518 C1519 1.369 . S
C1518 C1520 1.419 . S
C1518 H1522 0.930 . S
C1519 C1518 1.369 . S
C1519 C1528 1.429 . S
C1520 C1518 1.419 . S
C1520 C1521 1.363 . S
C1520 H1523 0.929 . S
C1521 C1520 1.363 . S
C1521 C1527 1.428 . S
H1522 C1518 0.930 . S
H1523 C1520 0.929 . S
S1524 N1525 1.613 . S
S1524 N1526 1.610 . S
N1525 S1524 1.613 . S
N1525 C1528 1.350 . S
N1526 S1524 1.610 . S
N1526 C1527 1.351 . S
C1527 C1521 1.428 . S
C1527 N1526 1.351 . S
C1527 C1528 1.434 . S
C1528 C1519 1.429 . S
C1528 N1525 1.350 . S
C1528 C1527 1.434 . S
C1529 C1530 1.369 . S
C1529 C1531 1.419 . S
C1529 H1533 0.930 . S
C1530 C1529 1.369 . S
C1530 C1539 1.429 . S
C1531 C1529 1.419 . S
C1531 C1532 1.363 . S
C1531 H1534 0.929 . S
C1532 C1531 1.363 . S
C1532 C1538 1.428 . S
H1533 C1529 0.930 . S
H1534 C1531 0.929 . S
S1535 N1536 1.613 . S
S1535 N1537 1.610 . S
N1536 S1535 1.613 . S
N1536 C1539 1.350 . S
N1537 S1535 1.610 . S
N1537 C1538 1.351 . S
C1538 C1532 1.428 . S
C1538 N1537 1.351 . S
C1538 C1539 1.434 . S
C1539 C1530 1.429 . S
C1539 N1536 1.350 . S
C1539 C1538 1.434 . S
C1540 C1541 1.369 . S
C1540 C1542 1.419 . S
C1540 H1544 0.930 . S
C1541 C1540 1.369 . S
C1541 C1550 1.429 . S
C1542 C1540 1.419 . S
C1542 C1543 1.363 . S
C1542 H1545 0.929 . S
C1543 C1542 1.363 . S
C1543 C1549 1.428 . S
H1544 C1540 0.930 . S
H1545 C1542 0.929 . S
S1546 N1547 1.613 . S
S1546 N1548 1.610 . S
N1547 S1546 1.613 . S
N1547 C1550 1.350 . S
N1548 S1546 1.610 . S
N1548 C1549 1.351 . S
C1549 C1543 1.428 . S
C1549 N1548 1.351 . S
C1549 C1550 1.434 . S
C1550 C1541 1.429 . S
C1550 N1547 1.350 . S
C1550 C1549 1.434 . S
C1551 C1552 1.369 . S
C1551 C1553 1.419 . S
C1551 H1555 0.930 . S
C1552 C1551 1.369 . S
C1552 C1561 1.429 . S
C1553 C1551 1.419 . S
C1553 C1554 1.363 . S
C1553 H1556 0.929 . S
C1554 C1553 1.363 . S
C1554 C1560 1.428 . S
H1555 C1551 0.930 . S
H1556 C1553 0.929 . S
S1557 N1558 1.613 . S
S1557 N1559 1.610 . S
N1558 S1557 1.613 . S
N1558 C1561 1.350 . S
N1559 S1557 1.610 . S
N1559 C1560 1.351 . S
C1560 C1554 1.428 . S
C1560 N1559 1.351 . S
C1560 C1561 1.434 . S
C1561 C1552 1.429 . S
C1561 N1558 1.350 . S
C1561 C1560 1.434 . S
C1562 C1563 1.369 . S
C1562 C1564 1.419 . S
C1562 H1566 0.930 . S
C1563 C1562 1.369 . S
C1563 C1572 1.429 . S
C1564 C1562 1.419 . S
C1564 C1565 1.363 . S
C1564 H1567 0.929 . S
C1565 C1564 1.363 . S
C1565 C1571 1.428 . S
H1566 C1562 0.930 . S
H1567 C1564 0.929 . S
S1568 N1569 1.613 . S
S1568 N1570 1.610 . S
N1569 S1568 1.613 . S
N1569 C1572 1.350 . S
N1570 S1568 1.610 . S
N1570 C1571 1.351 . S
C1571 C1565 1.428 . S
C1571 N1570 1.351 . S
C1571 C1572 1.434 . S
C1572 C1563 1.429 . S
C1572 N1569 1.350 . S
C1572 C1571 1.434 . S
C1573 C1574 1.369 . S
C1573 C1575 1.419 . S
C1573 H1577 0.930 . S
C1574 C1573 1.369 . S
C1574 C1583 1.429 . S
C1575 C1573 1.419 . S
C1575 C1576 1.363 . S
C1575 H1578 0.929 . S
C1576 C1575 1.363 . S
C1576 C1582 1.428 . S
H1577 C1573 0.930 . S
H1578 C1575 0.929 . S
S1579 N1580 1.613 . S
S1579 N1581 1.610 . S
N1580 S1579 1.613 . S
N1580 C1583 1.350 . S
N1581 S1579 1.610 . S
N1581 C1582 1.351 . S
C1582 C1576 1.428 . S
C1582 N1581 1.351 . S
C1582 C1583 1.434 . S
C1583 C1574 1.429 . S
C1583 N1580 1.350 . S
C1583 C1582 1.434 . S
C1584 C1585 1.369 . S
C1584 C1586 1.419 . S
C1584 H1588 0.930 . S
C1585 C1584 1.369 . S
C1585 C1594 1.429 . S
C1586 C1584 1.419 . S
C1586 C1587 1.363 . S
C1586 H1589 0.929 . S
C1587 C1586 1.363 . S
C1587 C1593 1.428 . S
H1588 C1584 0.930 . S
H1589 C1586 0.929 . S
S1590 N1591 1.613 . S
S1590 N1592 1.610 . S
N1591 S1590 1.613 . S
N1591 C1594 1.350 . S
N1592 S1590 1.610 . S
N1592 C1593 1.351 . S
C1593 C1587 1.428 . S
C1593 N1592 1.351 . S
C1593 C1594 1.434 . S
C1594 C1585 1.429 . S
C1594 N1591 1.350 . S
C1594 C1593 1.434 . S
C1595 C1596 1.369 . S
C1595 C1597 1.419 . S
C1595 H1599 0.930 . S
C1596 C1595 1.369 . S
C1596 C1605 1.429 . S
C1597 C1595 1.419 . S
C1597 C1598 1.363 . S
C1597 H1600 0.929 . S
C1598 C1597 1.363 . S
C1598 C1604 1.428 . S
H1599 C1595 0.930 . S
H1600 C1597 0.929 . S
S1601 N1602 1.613 . S
S1601 N1603 1.610 . S
N1602 S1601 1.613 . S
N1602 C1605 1.350 . S
N1603 S1601 1.610 . S
N1603 C1604 1.351 . S
C1604 C1598 1.428 . S
C1604 N1603 1.351 . S
C1604 C1605 1.434 . S
C1605 C1596 1.429 . S
C1605 N1602 1.350 . S
C1605 C1604 1.434 . S
C1606 C1607 1.369 . S
C1606 C1608 1.419 . S
C1606 H1610 0.930 . S
C1607 C1606 1.369 . S
C1607 C1616 1.429 . S
C1608 C1606 1.419 . S
C1608 C1609 1.363 . S
C1608 H1611 0.929 . S
C1609 C1608 1.363 . S
C1609 C1615 1.428 . S
H1610 C1606 0.930 . S
H1611 C1608 0.929 . S
S1612 N1613 1.613 . S
S1612 N1614 1.610 . S
N1613 S1612 1.613 . S
N1613 C1616 1.350 . S
N1614 S1612 1.610 . S
N1614 C1615 1.351 . S
C1615 C1609 1.428 . S
C1615 N1614 1.351 . S
C1615 C1616 1.434 . S
C1616 C1607 1.429 . S
C1616 N1613 1.350 . S
C1616 C1615 1.434 . S
C1617 C1618 1.369 . S
C1617 C1619 1.419 . S
C1617 H1621 0.930 . S
C1618 C1617 1.369 . S
C1618 C1627 1.429 . S
C1619 C1617 1.419 . S
C1619 C1620 1.363 . S
C1619 H1622 0.929 . S
C1620 C1619 1.363 . S
C1620 C1626 1.428 . S
H1621 C1617 0.930 . S
H1622 C1619 0.929 . S
S1623 N1624 1.613 . S
S1623 N1625 1.610 . S
N1624 S1623 1.613 . S
N1624 C1627 1.350 . S
N1625 S1623 1.610 . S
N1625 C1626 1.351 . S
C1626 C1620 1.428 . S
C1626 N1625 1.351 . S
C1626 C1627 1.434 . S
C1627 C1618 1.429 . S
C1627 N1624 1.350 . S
C1627 C1626 1.434 . S
C1628 C1629 1.369 . S
C1628 C1630 1.419 . S
C1628 H1632 0.930 . S
C1629 C1628 1.369 . S
C1629 C1638 1.429 . S
C1630 C1628 1.419 . S
C1630 C1631 1.363 . S
C1630 H1633 0.929 . S
C1631 C1630 1.363 . S
C1631 C1637 1.428 . S
H1632 C1628 0.930 . S
H1633 C1630 0.929 . S
S1634 N1635 1.613 . S
S1634 N1636 1.610 . S
N1635 S1634 1.613 . S
N1635 C1638 1.350 . S
N1636 S1634 1.610 . S
N1636 C1637 1.351 . S
C1637 C1631 1.428 . S
C1637 N1636 1.351 . S
C1637 C1638 1.434 . S
C1638 C1629 1.429 . S
C1638 N1635 1.350 . S
C1638 C1637 1.434 . S
C1639 C1640 1.369 . S
C1639 C1641 1.419 . S
C1639 H1643 0.930 . S
C1640 C1639 1.369 . S
C1640 C1649 1.429 . S
C1641 C1639 1.419 . S
C1641 C1642 1.363 . S
C1641 H1644 0.929 . S
C1642 C1641 1.363 . S
C1642 C1648 1.428 . S
H1643 C1639 0.930 . S
H1644 C1641 0.929 . S
S1645 N1646 1.613 . S
S1645 N1647 1.610 . S
N1646 S1645 1.613 . S
N1646 C1649 1.350 . S
N1647 S1645 1.610 . S
N1647 C1648 1.351 . S
C1648 C1642 1.428 . S
C1648 N1647 1.351 . S
C1648 C1649 1.434 . S
C1649 C1640 1.429 . S
C1649 N1646 1.350 . S
C1649 C1648 1.434 . S
C1650 C1651 1.369 . S
C1650 C1652 1.419 . S
C1650 H1654 0.930 . S
C1651 C1650 1.369 . S
C1651 C1660 1.429 . S
C1652 C1650 1.419 . S
C1652 C1653 1.363 . S
C1652 H1655 0.929 . S
C1653 C1652 1.363 . S
C1653 C1659 1.428 . S
H1654 C1650 0.930 . S
H1655 C1652 0.929 . S
S1656 N1657 1.613 . S
S1656 N1658 1.610 . S
N1657 S1656 1.613 . S
N1657 C1660 1.350 . S
N1658 S1656 1.610 . S
N1658 C1659 1.351 . S
C1659 C1653 1.428 . S
C1659 N1658 1.351 . S
C1659 C1660 1.434 . S
C1660 C1651 1.429 . S
C1660 N1657 1.350 . S
C1660 C1659 1.434 . S
C1661 C1662 1.369 . S
C1661 C1663 1.419 . S
C1661 H1665 0.930 . S
C1662 C1661 1.369 . S
C1662 C1671 1.429 . S
C1663 C1661 1.419 . S
C1663 C1664 1.363 . S
C1663 H1666 0.929 . S
C1664 C1663 1.363 . S
C1664 C1670 1.428 . S
H1665 C1661 0.930 . S
H1666 C1663 0.929 . S
S1667 N1668 1.613 . S
S1667 N1669 1.610 . S
N1668 S1667 1.613 . S
N1668 C1671 1.350 . S
N1669 S1667 1.610 . S
N1669 C1670 1.351 . S
C1670 C1664 1.428 . S
C1670 N1669 1.351 . S
C1670 C1671 1.434 . S
C1671 C1662 1.429 . S
C1671 N1668 1.350 . S
C1671 C1670 1.434 . S
C1672 C1673 1.369 . S
C1672 C1674 1.419 . S
C1672 H1676 0.930 . S
C1673 C1672 1.369 . S
C1673 C1682 1.429 . S
C1674 C1672 1.419 . S
C1674 C1675 1.363 . S
C1674 H1677 0.929 . S
C1675 C1674 1.363 . S
C1675 C1681 1.428 . S
H1676 C1672 0.930 . S
H1677 C1674 0.929 . S
S1678 N1679 1.613 . S
S1678 N1680 1.610 . S
N1679 S1678 1.613 . S
N1679 C1682 1.350 . S
N1680 S1678 1.610 . S
N1680 C1681 1.351 . S
C1681 C1675 1.428 . S
C1681 N1680 1.351 . S
C1681 C1682 1.434 . S
C1682 C1673 1.429 . S
C1682 N1679 1.350 . S
C1682 C1681 1.434 . S
C1683 C1684 1.369 . S
C1683 C1685 1.419 . S
C1683 H1687 0.930 . S
C1684 C1683 1.369 . S
C1684 C1693 1.429 . S
C1685 C1683 1.419 . S
C1685 C1686 1.363 . S
C1685 H1688 0.929 . S
C1686 C1685 1.363 . S
C1686 C1692 1.428 . S
H1687 C1683 0.930 . S
H1688 C1685 0.929 . S
S1689 N1690 1.613 . S
S1689 N1691 1.610 . S
N1690 S1689 1.613 . S
N1690 C1693 1.350 . S
N1691 S1689 1.610 . S
N1691 C1692 1.351 . S
C1692 C1686 1.428 . S
C1692 N1691 1.351 . S
C1692 C1693 1.434 . S
C1693 C1684 1.429 . S
C1693 N1690 1.350 . S
C1693 C1692 1.434 . S
C1694 C1695 1.369 . S
C1694 C1696 1.419 . S
C1694 H1698 0.930 . S
C1695 C1694 1.369 . S
C1695 C1704 1.429 . S
C1696 C1694 1.419 . S
C1696 C1697 1.363 . S
C1696 H1699 0.929 . S
C1697 C1696 1.363 . S
C1697 C1703 1.428 . S
H1698 C1694 0.930 . S
H1699 C1696 0.929 . S
S1700 N1701 1.613 . S
S1700 N1702 1.610 . S
N1701 S1700 1.613 . S
N1701 C1704 1.350 . S
N1702 S1700 1.610 . S
N1702 C1703 1.351 . S
C1703 C1697 1.428 . S
C1703 N1702 1.351 . S
C1703 C1704 1.434 . S
C1704 C1695 1.429 . S
C1704 N1701 1.350 . S
C1704 C1703 1.434 . S
C1705 C1706 1.369 . S
C1705 C1707 1.419 . S
C1705 H1709 0.930 . S
C1706 C1705 1.369 . S
C1706 C1715 1.429 . S
C1707 C1705 1.419 . S
C1707 C1708 1.363 . S
C1707 H1710 0.929 . S
C1708 C1707 1.363 . S
C1708 C1714 1.428 . S
H1709 C1705 0.930 . S
H1710 C1707 0.929 . S
S1711 N1712 1.613 . S
S1711 N1713 1.610 . S
N1712 S1711 1.613 . S
N1712 C1715 1.350 . S
N1713 S1711 1.610 . S
N1713 C1714 1.351 . S
C1714 C1708 1.428 . S
C1714 N1713 1.351 . S
C1714 C1715 1.434 . S
C1715 C1706 1.429 . S
C1715 N1712 1.350 . S
C1715 C1714 1.434 . S
C1716 C1717 1.369 . S
C1716 C1718 1.419 . S
C1716 H1720 0.930 . S
C1717 C1716 1.369 . S
C1717 C1726 1.429 . S
C1718 C1716 1.419 . S
C1718 C1719 1.363 . S
C1718 H1721 0.929 . S
C1719 C1718 1.363 . S
C1719 C1725 1.428 . S
H1720 C1716 0.930 . S
H1721 C1718 0.929 . S
S1722 N1723 1.613 . S
S1722 N1724 1.610 . S
N1723 S1722 1.613 . S
N1723 C1726 1.350 . S
N1724 S1722 1.610 . S
N1724 C1725 1.351 . S
C1725 C1719 1.428 . S
C1725 N1724 1.351 . S
C1725 C1726 1.434 . S
C1726 C1717 1.429 . S
C1726 N1723 1.350 . S
C1726 C1725 1.434 . S
C1727 C1728 1.369 . S
C1727 C1729 1.419 . S
C1727 H1731 0.930 . S
C1728 C1727 1.369 . S
C1728 C1737 1.429 . S
C1729 C1727 1.419 . S
C1729 C1730 1.363 . S
C1729 H1732 0.929 . S
C1730 C1729 1.363 . S
C1730 C1736 1.428 . S
H1731 C1727 0.930 . S
H1732 C1729 0.929 . S
S1733 N1734 1.613 . S
S1733 N1735 1.610 . S
N1734 S1733 1.613 . S
N1734 C1737 1.350 . S
N1735 S1733 1.610 . S
N1735 C1736 1.351 . S
C1736 C1730 1.428 . S
C1736 N1735 1.351 . S
C1736 C1737 1.434 . S
C1737 C1728 1.429 . S
C1737 N1734 1.350 . S
C1737 C1736 1.434 . S
C1738 C1739 1.369 . S
C1738 C1740 1.419 . S
C1738 H1742 0.930 . S
C1739 C1738 1.369 . S
C1739 C1748 1.429 . S
C1740 C1738 1.419 . S
C1740 C1741 1.363 . S
C1740 H1743 0.929 . S
C1741 C1740 1.363 . S
C1741 C1747 1.428 . S
H1742 C1738 0.930 . S
H1743 C1740 0.929 . S
S1744 N1745 1.613 . S
S1744 N1746 1.610 . S
N1745 S1744 1.613 . S
N1745 C1748 1.350 . S
N1746 S1744 1.610 . S
N1746 C1747 1.351 . S
C1747 C1741 1.428 . S
C1747 N1746 1.351 . S
C1747 C1748 1.434 . S
C1748 C1739 1.429 . S
C1748 N1745 1.350 . S
C1748 C1747 1.434 . S
C1749 C1750 1.369 . S
C1749 C1751 1.419 . S
C1749 H1753 0.930 . S
C1750 C1749 1.369 . S
C1750 C1759 1.429 . S
C1751 C1749 1.419 . S
C1751 C1752 1.363 . S
C1751 H1754 0.929 . S
C1752 C1751 1.363 . S
C1752 C1758 1.428 . S
H1753 C1749 0.930 . S
H1754 C1751 0.929 . S
S1755 N1756 1.613 . S
S1755 N1757 1.610 . S
N1756 S1755 1.613 . S
N1756 C1759 1.350 . S
N1757 S1755 1.610 . S
N1757 C1758 1.351 . S
C1758 C1752 1.428 . S
C1758 N1757 1.351 . S
C1758 C1759 1.434 . S
C1759 C1750 1.429 . S
C1759 N1756 1.350 . S
C1759 C1758 1.434 . S
C1760 C1761 1.369 . S
C1760 C1762 1.419 . S
C1760 H1764 0.930 . S
C1761 C1760 1.369 . S
C1761 C1770 1.429 . S
C1762 C1760 1.419 . S
C1762 C1763 1.363 . S
C1762 H1765 0.929 . S
C1763 C1762 1.363 . S
C1763 C1769 1.428 . S
H1764 C1760 0.930 . S
H1765 C1762 0.929 . S
S1766 N1767 1.613 . S
S1766 N1768 1.610 . S
N1767 S1766 1.613 . S
N1767 C1770 1.350 . S
N1768 S1766 1.610 . S
N1768 C1769 1.351 . S
C1769 C1763 1.428 . S
C1769 N1768 1.351 . S
C1769 C1770 1.434 . S
C1770 C1761 1.429 . S
C1770 N1767 1.350 . S
C1770 C1769 1.434 . S
C1771 C1772 1.369 1_545 S
C1771 C1773 1.419 . S
C1771 H1775 0.930 . S
C1772 C1771 1.369 1_565 S
C1772 C1781 1.429 1_455 S
C1773 C1771 1.419 . S
C1773 C1774 1.363 1_455 S
C1773 H1776 0.929 . S
C1774 C1773 1.363 1_655 S
C1774 C1780 1.428 1_545 S
H1775 C1771 0.930 . S
H1776 C1773 0.929 . S
S1777 N1778 1.613 . S
S1777 N1779 1.610 . S
N1778 S1777 1.613 . S
N1778 C1781 1.350 . S
N1779 S1777 1.610 . S
N1779 C1780 1.351 . S
C1780 C1774 1.428 1_565 S
C1780 N1779 1.351 . S
C1780 C1781 1.434 . S
C1781 C1772 1.429 1_655 S
C1781 N1778 1.350 . S
C1781 C1780 1.434 . S
C1782 C1783 1.369 . S
C1782 C1784 1.419 . S
C1782 H1786 0.930 . S
C1783 C1782 1.369 . S
C1783 C1792 1.429 . S
C1784 C1782 1.419 . S
C1784 C1785 1.363 . S
C1784 H1787 0.929 . S
C1785 C1784 1.363 . S
C1785 C1791 1.428 . S
H1786 C1782 0.930 . S
H1787 C1784 0.929 . S
S1788 N1789 1.613 . S
S1788 N1790 1.610 . S
N1789 S1788 1.613 . S
N1789 C1792 1.350 . S
N1790 S1788 1.610 . S
N1790 C1791 1.351 . S
C1791 C1785 1.428 . S
C1791 N1790 1.351 . S
C1791 C1792 1.434 . S
C1792 C1783 1.429 . S
C1792 N1789 1.350 . S
C1792 C1791 1.434 . S
C1793 C1794 1.376 . S
C1793 C1795 1.419 . S
C1793 H1797 0.930 . S
C1794 C1793 1.376 . S
C1794 C1803 1.420 1_566 S
C1795 C1793 1.419 . S
C1795 C1796 1.363 1_566 S
C1795 H1798 0.929 . S
C1796 C1795 1.363 1_544 S
C1796 C1802 1.428 . S
H1797 C1793 0.930 . S
H1798 C1795 0.929 . S
S1799 N1800 1.613 . S
S1799 N1801 1.610 . S
N1800 S1799 1.613 . S
N1800 C1803 1.350 . S
N1801 S1799 1.610 . S
N1801 C1802 1.351 . S
C1802 C1796 1.428 . S
C1802 N1801 1.351 . S
C1802 C1803 1.434 . S
C1803 C1794 1.420 1_544 S
C1803 N1800 1.350 . S
C1803 C1802 1.434 . S
C1804 C1805 1.369 . S
C1804 C1806 1.419 . S
C1804 H1808 0.930 . S
C1805 C1804 1.369 . S
C1805 C1814 1.429 . S
C1806 C1804 1.419 . S
C1806 C1807 1.363 . S
C1806 H1809 0.929 . S
C1807 C1806 1.363 . S
C1807 C1813 1.428 . S
H1808 C1804 0.930 . S
H1809 C1806 0.929 . S
S1810 N1811 1.613 . S
S1810 N1812 1.610 . S
N1811 S1810 1.613 . S
N1811 C1814 1.350 . S
N1812 S1810 1.610 . S
N1812 C1813 1.351 . S
C1813 C1807 1.428 . S
C1813 N1812 1.351 . S
C1813 C1814 1.434 . S
C1814 C1805 1.429 . S
C1814 N1811 1.350 . S
C1814 C1813 1.434 . S
C1815 C1816 1.369 . S
C1815 C1817 1.419 . S
C1815 H1819 0.930 . S
C1816 C1815 1.369 . S
C1816 C1825 1.429 1_545 S
C1817 C1815 1.419 . S
C1817 C1818 1.363 1_545 S
C1817 H1820 0.929 . S
C1818 C1817 1.363 1_565 S
C1818 C1824 1.428 . S
H1819 C1815 0.930 . S
H1820 C1817 0.929 . S
S1821 N1822 1.613 . S
S1821 N1823 1.610 . S
N1822 S1821 1.613 . S
N1822 C1825 1.350 . S
N1823 S1821 1.610 . S
N1823 C1824 1.351 . S
C1824 C1818 1.428 . S
C1824 N1823 1.351 . S
C1824 C1825 1.434 . S
C1825 C1816 1.429 1_565 S
C1825 N1822 1.350 . S
C1825 C1824 1.434 . S
C1826 C1827 1.369 . S
C1826 C1828 1.419 . S
C1826 H1830 0.930 . S
C1827 C1826 1.369 . S
C1827 C1836 1.429 . S
C1828 C1826 1.419 . S
C1828 C1829 1.363 . S
C1828 H1831 0.929 . S
C1829 C1828 1.363 . S
C1829 C1835 1.428 . S
H1830 C1826 0.930 . S
H1831 C1828 0.929 . S
S1832 N1833 1.613 . S
S1832 N1834 1.610 . S
N1833 S1832 1.613 . S
N1833 C1836 1.350 . S
N1834 S1832 1.610 . S
N1834 C1835 1.351 . S
C1835 C1829 1.428 . S
C1835 N1834 1.351 . S
C1835 C1836 1.434 . S
C1836 C1827 1.429 . S
C1836 N1833 1.350 . S
C1836 C1835 1.434 . S
C1837 C1838 1.369 1_455 S
C1837 C1839 1.419 . S
C1837 H1841 0.930 . S
C1838 C1837 1.369 1_655 S
C1838 C1847 1.429 1_564 S
C1839 C1837 1.419 . S
C1839 C1840 1.363 1_564 S
C1839 H1842 0.929 . S
C1840 C1839 1.363 1_546 S
C1840 C1846 1.428 1_455 S
H1841 C1837 0.930 . S
H1842 C1839 0.929 . S
S1843 N1844 1.613 . S
S1843 N1845 1.610 . S
N1844 S1843 1.613 . S
N1844 C1847 1.350 . S
N1845 S1843 1.610 . S
N1845 C1846 1.351 . S
C1846 C1840 1.428 1_655 S
C1846 N1845 1.351 . S
C1846 C1847 1.434 . S
C1847 C1838 1.429 1_546 S
C1847 N1844 1.350 . S
C1847 C1846 1.434 . S
C1848 C1849 1.369 . S
C1848 C1850 1.419 . S
C1848 H1852 0.930 . S
C1849 C1848 1.369 . S
C1849 C1858 1.429 . S
C1850 C1848 1.419 . S
C1850 C1851 1.363 . S
C1850 H1853 0.929 . S
C1851 C1850 1.363 . S
C1851 C1857 1.428 . S
H1852 C1848 0.930 . S
H1853 C1850 0.929 . S
S1854 N1855 1.613 . S
S1854 N1856 1.610 . S
N1855 S1854 1.613 . S
N1855 C1858 1.350 . S
N1856 S1854 1.610 . S
N1856 C1857 1.351 . S
C1857 C1851 1.428 . S
C1857 N1856 1.351 . S
C1857 C1858 1.434 . S
C1858 C1849 1.429 . S
C1858 N1855 1.350 . S
C1858 C1857 1.434 . S
C1859 C1860 1.369 . S
C1859 C1861 1.419 . S
C1859 H1863 0.930 . S
C1860 C1859 1.369 . S
C1860 C1869 1.429 . S
C1861 C1859 1.419 . S
C1861 C1862 1.363 . S
C1861 H1864 0.929 . S
C1862 C1861 1.363 . S
C1862 C1868 1.428 . S
H1863 C1859 0.930 . S
H1864 C1861 0.929 . S
S1865 N1866 1.613 . S
S1865 N1867 1.610 . S
N1866 S1865 1.613 . S
N1866 C1869 1.350 . S
N1867 S1865 1.610 . S
N1867 C1868 1.351 . S
C1868 C1862 1.428 . S
C1868 N1867 1.351 . S
C1868 C1869 1.434 . S
C1869 C1860 1.429 . S
C1869 N1866 1.350 . S
C1869 C1868 1.434 . S
C1870 C1871 1.369 . S
C1870 C1872 1.419 . S
C1870 H1874 0.930 . S
C1871 C1870 1.369 . S
C1871 C1880 1.429 . S
C1872 C1870 1.419 . S
C1872 C1873 1.363 . S
C1872 H1875 0.929 . S
C1873 C1872 1.363 . S
C1873 C1879 1.428 . S
H1874 C1870 0.930 . S
H1875 C1872 0.929 . S
S1876 N1877 1.613 . S
S1876 N1878 1.610 . S
N1877 S1876 1.613 . S
N1877 C1880 1.350 . S
N1878 S1876 1.610 . S
N1878 C1879 1.351 . S
C1879 C1873 1.428 . S
C1879 N1878 1.351 . S
C1879 C1880 1.434 . S
C1880 C1871 1.429 . S
C1880 N1877 1.350 . S
C1880 C1879 1.434 . S
C1881 C1882 1.369 . S
C1881 C1883 1.419 . S
C1881 H1885 0.930 . S
C1882 C1881 1.369 . S
C1882 C1891 1.429 . S
C1883 C1881 1.419 . S
C1883 C1884 1.363 . S
C1883 H1886 0.929 . S
C1884 C1883 1.363 . S
C1884 C1890 1.428 . S
H1885 C1881 0.930 . S
H1886 C1883 0.929 . S
S1887 N1888 1.613 . S
S1887 N1889 1.610 . S
N1888 S1887 1.613 . S
N1888 C1891 1.350 . S
N1889 S1887 1.610 . S
N1889 C1890 1.351 . S
C1890 C1884 1.428 . S
C1890 N1889 1.351 . S
C1890 C1891 1.434 . S
C1891 C1882 1.429 . S
C1891 N1888 1.350 . S
C1891 C1890 1.434 . S
C1892 C1893 1.369 1_554 S
C1892 C1894 1.419 . S
C1892 H1896 0.930 . S
C1893 C1892 1.369 1_556 S
C1893 C1902 1.429 . S
C1894 C1892 1.419 . S
C1894 C1895 1.385 . S
C1894 H1897 0.929 . S
C1895 C1894 1.385 . S
C1895 C1901 1.404 1_554 S
H1896 C1892 0.930 . S
H1897 C1894 0.929 . S
S1898 N1899 1.613 . S
S1898 N1900 1.610 . S
N1899 S1898 1.613 . S
N1899 C1902 1.350 . S
N1900 S1898 1.610 . S
N1900 C1901 1.351 . S
C1901 C1895 1.404 1_556 S
C1901 N1900 1.351 . S
C1901 C1902 1.434 . S
C1902 C1893 1.429 . S
C1902 N1899 1.350 . S
C1902 C1901 1.434 . S
C1903 C1904 1.369 1_455 S
C1903 C1905 1.419 . S
C1903 H1907 0.930 . S
C1904 C1903 1.369 1_655 S
C1904 C1913 1.429 . S
C1905 C1903 1.419 . S
C1905 C1906 1.363 . S
C1905 H1908 0.929 . S
C1906 C1905 1.363 . S
C1906 C1912 1.428 1_455 S
H1907 C1903 0.930 . S
H1908 C1905 0.929 . S
S1909 N1910 1.613 . S
S1909 N1911 1.610 . S
N1910 S1909 1.613 . S
N1910 C1913 1.350 . S
N1911 S1909 1.610 . S
N1911 C1912 1.351 . S
C1912 C1906 1.428 1_655 S
C1912 N1911 1.351 . S
C1912 C1913 1.434 . S
C1913 C1904 1.429 . S
C1913 N1910 1.350 . S
C1913 C1912 1.434 . S
C1914 C1915 1.398 . S
C1914 C1916 1.419 1_455 S
C1914 H1918 0.930 . S
C1915 C1914 1.398 . S
C1915 C1924 1.398 1_554 S
C1916 C1914 1.419 1_655 S
C1916 C1917 1.363 1_554 S
C1916 H1919 0.929 . S
C1917 C1916 1.363 1_556 S
C1917 C1923 1.428 . S
H1918 C1914 0.930 . S
H1919 C1916 0.929 . S
S1920 N1921 1.613 . S
S1920 N1922 1.610 1_455 S
N1921 S1920 1.613 . S
N1921 C1924 1.350 . S
N1922 S1920 1.610 1_655 S
N1922 C1923 1.351 . S
C1923 C1917 1.428 . S
C1923 N1922 1.351 . S
C1923 C1924 1.434 1_655 S
C1924 C1915 1.398 1_556 S
C1924 N1921 1.350 . S
C1924 C1923 1.434 1_455 S
C1925 C1926 1.369 . S
C1925 C1927 1.419 . S
C1925 H1929 0.930 . S
C1926 C1925 1.369 . S
C1926 C1935 1.429 . S
C1927 C1925 1.419 . S
C1927 C1928 1.363 . S
C1927 H1930 0.929 . S
C1928 C1927 1.363 . S
C1928 C1934 1.428 . S
H1929 C1925 0.930 . S
H1930 C1927 0.929 . S
S1931 N1932 1.613 . S
S1931 N1933 1.610 . S
N1932 S1931 1.613 . S
N1932 C1935 1.350 . S
N1933 S1931 1.610 . S
N1933 C1934 1.351 . S
C1934 C1928 1.428 . S
C1934 N1933 1.351 . S
C1934 C1935 1.434 . S
C1935 C1926 1.429 . S
C1935 N1932 1.350 . S
C1935 C1934 1.434 . S
C1057 N244 1.866 . S
C1059 N13 1.865 . S
C1068 N46 1.866 . S
C1070 N145 1.865 . S
C1079 N79 1.864 . S
C1081 N178 1.864 . S
C1090 N211 1.865 . S
C1092 N112 1.865 . S
C1101 N508 1.867 . S
C1103 N277 1.866 . S
C1112 N409 1.867 . S
C1114 N310 1.866 . S
C1123 N343 1.861 . S
C1125 N442 1.861 . S
C1134 N376 1.860 . S
C1136 N475 1.861 . S
C1145 N772 1.861 . S
C1147 N541 1.861 . S
C1156 N574 1.862 . S
C1158 N673 1.862 . S
C1167 N607 1.859 . S
C1169 N706 1.860 . S
C1178 N739 1.859 . S
C1180 N640 1.860 . S
C1189 N1036 1.861 . S
C1191 N805 1.861 . S
C1200 N838 1.860 . S
C1202 N937 1.861 . S
C1211 N970 1.866 . S
C1213 N871 1.864 . S
C1222 N1003 1.866 . S
C1224 N904 1.866 . S
C1233 C601 1.292 . S
C1235 C7 1.294 . S
C1244 C634 1.287 . S
C1246 C40 1.293 . S
C1255 C73 1.288 . S
C1257 C535 1.285 . S
C1266 C106 1.295 . S
C1268 C568 1.291 . S
C1277 C733 1.288 . S
C1279 C139 1.285 . S
C1288 C766 1.292 . S
C1290 C172 1.294 . S
C1299 C205 1.285 . S
C1301 C667 1.287 . S
C1310 C238 1.290 . S
C1312 C700 1.294 . S
C1321 C271 1.290 . S
C1323 C865 1.285 . S
C1332 C898 1.295 . S
C1334 C304 1.291 . S
C1343 C799 1.287 . S
C1345 C337 1.294 . S
C1354 C370 1.286 . S
C1356 C832 1.287 . S
C1365 C403 1.284 . S
C1367 C997 1.292 . S
C1376 C1030 1.284 . S
C1378 C436 1.288 . S
C1387 C931 1.288 . S
C1389 C469 1.294 . S
C1398 C964 1.289 . S
C1400 C502 1.294 . S
C1409 N2 1.306 . S
C1411 C912 1.099 . S
C1420 C285 1.109 . S
C1422 N35 1.298 . S
C1431 C846 1.100 . S
C1433 N68 1.303 . S
C1442 N101 1.297 . S
C1444 C351 1.109 . S
C1453 C978 1.096 . S
C1455 N134 1.305 . S
C1464 C483 1.094 . S
C1466 N167 1.306 . S
C1475 N200 1.308 . S
C1477 C1044 1.097 . S
C1486 N233 1.296 . S
C1488 C417 1.112 . S
C1497 N266 1.307 . S
C1499 C648 1.098 . S
C1508 N299 1.298 . S
C1510 C21 1.109 . S
C1519 C582 1.110 . S
C1521 N332 1.299 . S
C1530 N365 1.303 . S
C1532 C87 1.103 . S
C1541 C714 1.117 . S
C1543 N398 1.295 . S
C1552 N431 1.306 . S
C1554 C219 1.099 . S
C1563 N464 1.296 . S
C1565 C780 1.111 . S
C1574 C153 1.115 . S
C1576 N497 1.296 . S
C1585 N530 1.298 . S
C1587 C384 1.110 . S
C1596 C813 1.098 . S
C1598 N563 1.304 . S
C1607 C318 1.103 . S
C1609 N596 1.303 . S
C1618 N629 1.306 . S
C1620 C879 1.099 . S
C1629 N662 1.293 . S
C1631 C450 1.115 . S
C1640 C1011 1.102 . S
C1642 N695 1.302 . S
C1651 N728 1.306 . S
C1653 C516 1.098 . S
C1662 C945 1.100 . S
C1664 N761 1.304 . S
C1673 C120 1.097 . S
C1675 N794 1.305 . S
C1684 C549 1.114 . S
C1686 N827 1.296 . S
C1695 C54 1.098 . S
C1697 N860 1.304 . S
C1706 C615 1.096 . S
C1708 N893 1.306 . S
C1717 N926 1.308 . S
C1719 C186 1.097 . S
C1728 C747 1.096 . S
C1730 N959 1.305 . S
C1739 C252 1.103 . S
C1741 N992 1.302 . S
C1750 C681 1.117 . S
C1752 N1025 1.295 . S
C1761 C18 1.482 . S
C1763 C810 1.485 . S
C1772 C51 1.481 . S
C1774 C315 1.486 . S
C1783 C876 1.489 . S
C1785 C84 1.480 . S
C1794 C381 1.497 . S
C1796 C117 1.480 . S
C1805 C942 1.488 . S
C1807 C150 1.480 . S
C1816 C447 1.489 . S
C1818 C183 1.480 . S
C1827 C1008 1.489 . S
C1829 C216 1.480 . S
C1838 C513 1.489 . S
C1840 C249 1.480 . S
C1849 C282 1.478 . S
C1851 C546 1.488 . S
C1860 C612 1.478 . S
C1862 C348 1.488 . S
C1871 C414 1.488 . S
C1873 C678 1.480 . S
C1882 C480 1.479 . S
C1884 C744 1.487 . S
C1893 C843 1.480 . S
C1895 C579 1.495 . S
C1904 C645 1.488 . S
C1906 C909 1.480 . S
C1915 C975 1.491 . S
C1917 C711 1.483 . S
C1926 C1041 1.479 . S
C1928 C777 1.487 . S
