# Generated by pormake.
# Topology umf, (4)-cn, num edge types: 1
# Building blocks:
#     Node 0, Type 0, BuildingBlock: QUQFOY_clean_sbu_3, # of connection points: 4
#     Node 1, Type 0, BuildingBlock: QUQFOY_clean_sbu_3, # of connection points: 4
#     Node 2, Type 0, BuildingBlock: QUQFOY_clean_sbu_3, # of connection points: 4
#     Node 3, Type 0, BuildingBlock: QUQFOY_clean_sbu_3, # of connection points: 4
#     Node 4, Type 0, BuildingBlock: QUQFOY_clean_sbu_3, # of connection points: 4
#     Node 5, Type 0, BuildingBlock: QUQFOY_clean_sbu_3, # of connection points: 4
#     Node 6, Type 0, BuildingBlock: QUQFOY_clean_sbu_3, # of connection points: 4
#     Node 7, Type 0, BuildingBlock: QUQFOY_clean_sbu_3, # of connection points: 4
#     Edge 8, Type (0, 0), BuildingBlock: FUNLAD_clean_linker_0, # of connection points: 2
#     Edge 9, Type (0, 0), BuildingBlock: FUNLAD_clean_linker_0, # of connection points: 2
#     Edge 10, Type (0, 0), BuildingBlock: FUNLAD_clean_linker_0, # of connection points: 2
#     Edge 11, Type (0, 0), BuildingBlock: FUNLAD_clean_linker_0, # of connection points: 2
#     Edge 12, Type (0, 0), BuildingBlock: FUNLAD_clean_linker_0, # of connection points: 2
#     Edge 13, Type (0, 0), BuildingBlock: FUNLAD_clean_linker_0, # of connection points: 2
#     Edge 14, Type (0, 0), BuildingBlock: FUNLAD_clean_linker_0, # of connection points: 2
#     Edge 15, Type (0, 0), BuildingBlock: FUNLAD_clean_linker_0, # of connection points: 2
#     Edge 16, Type (0, 0), BuildingBlock: FUNLAD_clean_linker_0, # of connection points: 2
#     Edge 17, Type (0, 0), BuildingBlock: FUNLAD_clean_linker_0, # of connection points: 2
#     Edge 18, Type (0, 0), BuildingBlock: FUNLAD_clean_linker_0, # of connection points: 2
#     Edge 19, Type (0, 0), BuildingBlock: FUNLAD_clean_linker_0, # of connection points: 2
#     Edge 20, Type (0, 0), BuildingBlock: FUNLAD_clean_linker_0, # of connection points: 2
#     Edge 21, Type (0, 0), BuildingBlock: FUNLAD_clean_linker_0, # of connection points: 2
#     Edge 22, Type (0, 0), BuildingBlock: FUNLAD_clean_linker_0, # of connection points: 2
#     Edge 23, Type (0, 0), BuildingBlock: FUNLAD_clean_linker_0, # of connection points: 2
# Relax obj value: 0.168
# Max RMSD: 0.287
# Mean RMSD: 0.287
data_MOF--net-umf--node1-QUQFOY_clean_sbu_3--edge1-FUNLAD_clean_linker_0
_symmetry_space_group_name_H-M    P1
_symmetry_Int_Tables_number       1
_symmetry_cell_setting            triclinic
loop_
_symmetry_equiv_pos_as_xyz
'x, y, z'
_cell_length_a     34.49513
_cell_length_b     34.436715
_cell_length_c     63.370623
_cell_angle_alpha  90.627539
_cell_angle_beta   89.044636
_cell_angle_gamma 90.036531
loop_
_atom_site_label
_atom_site_type_symbol
_atom_site_fract_x
_atom_site_fract_y
_atom_site_fract_z
_atom_type_partial_charge
C0 C 0.13935 0.20885 0.14063 0.0
O1 O 0.1531 0.19268 0.12406 0.0
Cd2 Cd 0.10633 0.1774 0.0969 0.0
O3 O 0.10454 0.22072 0.14097 0.0
Cd4 Cd 0.04876 0.22888 0.11805 0.0
C5 C 0.03423 0.13502 0.12692 0.0
O6 O 0.0704 0.22926 0.08041 0.0
O7 O 0.0101 0.21613 0.08781 0.0
O8 O 0.062 0.2964 0.12337 0.0
C9 C 0.03599 0.22329 0.07394 0.0
O10 O 0.06242 0.13174 0.11379 0.0
C11 C 0.02928 0.30554 0.13136 0.0
O12 O 0.02219 0.16849 0.13284 0.0
O13 O 0.00435 0.27841 0.13335 0.0
C14 C 0.7289 0.13474 0.64505 0.0
O15 O 0.7385 0.15049 0.62774 0.0
Cd16 Cd 0.75638 0.10505 0.5996 0.0
O17 O 0.72288 0.0984 0.64554 0.0
Cd18 Cd 0.71677 0.04138 0.62239 0.0
C19 C 0.81282 0.04096 0.62707 0.0
O20 O 0.70762 0.06182 0.58531 0.0
O21 O 0.7294 0.00374 0.59106 0.0
O22 O 0.64992 0.04987 0.63188 0.0
C23 C 0.71676 0.02823 0.57804 0.0
O24 O 0.80999 0.06878 0.6141 0.0
C25 C 0.64379 0.01586 0.63865 0.0
O26 O 0.78242 0.02422 0.63429 0.0
O27 O 0.67245 -0.00756 0.63822 0.0
C28 C 0.80378 0.72498 0.14277 0.0
O29 O 0.78841 0.74014 0.1268 0.0
Cd30 Cd 0.83413 0.75918 0.09899 0.0
O31 O 0.83957 0.71667 0.1422 0.0
Cd32 Cd 0.89653 0.71446 0.119 0.0
C33 C 0.90086 0.80998 0.12784 0.0
O34 O 0.87501 0.71004 0.08175 0.0
O35 O 0.93409 0.72822 0.08801 0.0
O36 O 0.8898 0.64675 0.12599 0.0
C37 C 0.90886 0.71835 0.07464 0.0
O38 O 0.87291 0.81032 0.11497 0.0
C39 C 0.92322 0.64168 0.13352 0.0
O40 O 0.9156 0.77789 0.13357 0.0
O41 O 0.94572 0.67104 0.1341 0.0
C42 C 0.21422 0.80249 0.63963 0.0
O43 O 0.20412 0.7868 0.62238 0.0
Cd44 Cd 0.18511 0.83306 0.59573 0.0
O45 O 0.22095 0.83871 0.64031 0.0
Cd46 Cd 0.22874 0.89481 0.61715 0.0
C47 C 0.1337 0.89907 0.6264 0.0
O48 O 0.23251 0.8756 0.57921 0.0
O49 O 0.21405 0.93426 0.58757 0.0
O50 O 0.29611 0.88233 0.62173 0.0
C51 C 0.22365 0.9098 0.57329 0.0
O52 O 0.13441 0.87072 0.61333 0.0
C53 C 0.30493 0.91479 0.63 0.0
O54 O 0.16518 0.91534 0.63209 0.0
O55 O 0.27759 0.93944 0.63259 0.0
C56 C 0.13817 0.72318 0.82047 0.0
O57 O 0.15449 0.73388 0.83735 0.0
Cd58 Cd 0.11018 0.75374 0.86569 0.0
O59 O 0.10188 0.71708 0.82062 0.0
Cd60 Cd 0.04621 0.71282 0.84508 0.0
C61 C 0.04499 0.80833 0.83816 0.0
O62 O 0.06733 0.70671 0.88227 0.0
O63 O 0.00975 0.72925 0.8763 0.0
O64 O 0.05097 0.64445 0.83816 0.0
C65 C 0.0341 0.71716 0.88951 0.0
O66 O 0.07348 0.80664 0.85064 0.0
C67 C 0.01699 0.63974 0.83123 0.0
O68 O 0.02811 0.77732 0.83201 0.0
O69 O -0.00444 0.66983 0.8304 0.0
C70 C 0.20814 0.1427 0.32247 0.0
O71 O 0.19682 0.1592 0.33946 0.0
Cd72 Cd 0.17944 0.11425 0.36744 0.0
O73 O 0.21613 0.10676 0.3225 0.0
Cd74 Cd 0.22428 0.05293 0.34687 0.0
C75 C 0.13002 0.04471 0.33916 0.0
O76 O 0.22736 0.07431 0.38451 0.0
O77 O 0.20917 0.01522 0.37727 0.0
O78 O 0.29148 0.06595 0.34108 0.0
C79 C 0.21885 0.04029 0.39104 0.0
O80 O 0.12989 0.07353 0.35192 0.0
C81 C 0.30081 0.03279 0.33373 0.0
O82 O 0.16201 0.02962 0.33286 0.0
O83 O 0.27379 0.00763 0.33216 0.0
C84 C 0.80773 0.21423 0.8246 0.0
O85 O 0.79186 0.20395 0.84185 0.0
Cd86 Cd 0.83662 0.18506 0.86913 0.0
O87 O 0.84404 0.22013 0.82379 0.0
Cd88 Cd 0.90101 0.22456 0.84627 0.0
C89 C 0.90058 0.12852 0.8399 0.0
O90 O 0.8803 0.23316 0.88382 0.0
O91 O 0.93783 0.21028 0.87685 0.0
O92 O 0.8963 0.29205 0.83792 0.0
C93 C 0.91347 0.2229 0.89049 0.0
O94 O 0.87263 0.1312 0.85322 0.0
C95 C 0.93042 0.29601 0.83049 0.0
O96 O 0.91748 0.159 0.83307 0.0
O97 O 0.95205 0.26599 0.83021 0.0
C98 C 0.72141 0.80997 0.32133 0.0
O99 O 0.73414 0.79217 0.33718 0.0
Cd100 Cd 0.74887 0.83341 0.36784 0.0
O101 O 0.71364 0.84582 0.32294 0.0
Cd102 Cd 0.70948 0.89904 0.34818 0.0
C103 C 0.80569 0.90369 0.3454 0.0
O104 O 0.70025 0.8748 0.38497 0.0
O105 O 0.72108 0.9337 0.37994 0.0
O106 O 0.64258 0.89277 0.34002 0.0
C107 C 0.7093 0.908 0.39273 0.0
O108 O 0.80263 0.87478 0.35766 0.0
C109 C 0.63766 0.92684 0.33319 0.0
O110 O 0.77572 0.91839 0.33704 0.0
O111 O 0.66687 0.94959 0.33341 0.0
C112 C -0.0168 0.35855 0.1427 0.0
C113 C 0.02089 0.34637 0.1372 0.0
C114 C -0.02473 0.39798 0.14626 0.0
C115 C 0.0051 0.42591 0.14456 0.0
C116 C 0.04289 0.41334 0.13975 0.0
C117 C 0.05074 0.37411 0.13616 0.0
C118 C -0.00225 0.46844 0.14558 0.0
C119 C 0.96537 0.48468 0.15385 0.0
C120 C 0.95576 0.52624 0.15091 0.0
C121 C 0.91667 0.53644 0.14909 0.0
C122 C 0.90629 0.57421 0.14392 0.0
C123 C 0.93479 0.60287 0.1408 0.0
H124 H 0.0147 0.54874 0.15081 0.0
C125 C -0.02615 0.59339 0.14385 0.0
C126 C -0.01568 0.55532 0.14883 0.0
H127 H -0.00364 0.61502 0.14179 0.0
H128 H 0.9596 0.33783 0.14353 0.0
H129 H 0.94552 0.40628 0.14942 0.0
H130 H 0.06639 0.43409 0.13826 0.0
H131 H 0.0802 0.36569 0.13207 0.0
H132 H 0.01935 0.48688 0.13806 0.0
H133 H 0.94338 0.46661 0.16124 0.0
H134 H 0.8941 0.51474 0.15082 0.0
H135 H 0.87585 0.58076 0.14199 0.0
C136 C 0.35776 0.96011 0.64206 0.0
C137 C 0.34568 0.92295 0.63559 0.0
C138 C 0.39707 0.96761 0.64572 0.0
C139 C 0.42499 0.9379 0.64309 0.0
C140 C 0.41253 0.90068 0.63712 0.0
C141 C 0.37348 0.89325 0.63348 0.0
C142 C 0.46749 0.94475 0.64462 0.0
C143 C 0.48357 -0.02433 0.65429 0.0
C144 C 0.52577 -0.01564 0.65276 0.0
C145 C 0.53749 0.02332 0.65323 0.0
C146 C 0.57617 0.03326 0.64945 0.0
C147 C 0.60423 0.00438 0.64545 0.0
H148 H 0.54647 0.92478 0.65026 0.0
C149 C 0.59313 0.9652 0.64637 0.0
C150 C 0.55419 0.95522 0.64997 0.0
H151 H 0.61418 0.94234 0.64352 0.0
H152 H 0.33705 -0.01639 0.64372 0.0
H153 H 0.40537 -0.00302 0.64981 0.0
H154 H 0.43323 0.87727 0.63489 0.0
H155 H 0.36523 0.8642 0.62859 0.0
H156 H 0.48622 0.92375 0.63662 0.0
H157 H 0.46519 -0.00289 0.66214 0.0
H158 H 0.51637 0.04631 0.65561 0.0
H159 H 0.58389 0.06375 0.6491 0.0
C160 C 0.91686 0.36412 0.82004 0.0
C161 C 0.94401 0.33454 0.82345 0.0
C162 C 0.92898 0.40185 0.81559 0.0
C163 C 0.96872 0.41109 0.8148 0.0
C164 C -0.00413 0.38099 0.81706 0.0
C165 C -0.01633 0.34304 0.82133 0.0
C166 C -0.01701 0.45171 0.81254 0.0
C167 C 0.96129 0.48334 0.81739 0.0
C168 C -0.0231 0.5236 0.81848 0.0
C169 C 0.95093 0.55506 0.81811 0.0
C170 C 0.96393 0.59314 0.82145 0.0
C171 C 0.00318 0.60041 0.82546 0.0
H172 H 0.03734 0.50797 0.82294 0.0
C173 C 0.02931 0.56909 0.82527 0.0
C174 C 0.01639 0.53117 0.82189 0.0
H175 H 0.05978 0.57367 0.82835 0.0
H176 H 0.88603 0.35828 0.82114 0.0
H177 H 0.90696 0.42351 0.81302 0.0
H178 H 0.02667 0.38711 0.81626 0.0
H179 H 0.00525 0.32077 0.82377 0.0
H180 H 0.01323 0.4553 0.80799 0.0
H181 H 0.93099 0.47997 0.8218 0.0
H182 H 0.92029 0.55009 0.81569 0.0
H183 H 0.94309 0.61665 0.82155 0.0
C184 C 0.3544 -0.01367 0.32364 0.0
C185 C 0.3418 0.02428 0.32826 0.0
C186 C 0.39397 -0.02152 0.32059 0.0
C187 C 0.4216 0.00862 0.32196 0.0
C188 C 0.40865 0.04661 0.32592 0.0
C189 C 0.36931 0.05439 0.32896 0.0
C190 C 0.46413 0.00151 0.32143 0.0
C191 C 0.48085 0.96936 0.31318 0.0
C192 C 0.52243 0.95996 0.31613 0.0
C193 C 0.53304 0.92077 0.31704 0.0
C194 C 0.57078 0.91029 0.32202 0.0
C195 C 0.59904 0.93881 0.3259 0.0
H196 H 0.54435 0.01919 0.31767 0.0
C197 C 0.58919 -0.0219 0.32378 0.0
C198 C 0.55115 -0.01135 0.31896 0.0
H199 H 0.61051 0.00065 0.32647 0.0
H200 H 0.3339 0.96252 0.32312 0.0
H201 H 0.40264 0.9486 0.31811 0.0
H202 H 0.42917 0.07035 0.32714 0.0
H203 H 0.36059 0.08404 0.33239 0.0
H204 H 0.48207 0.02321 0.32909 0.0
H205 H 0.46312 0.94743 0.30559 0.0
H206 H 0.51168 0.8981 0.3147 0.0
H207 H 0.57759 0.8797 0.32323 0.0
C208 C 0.96073 0.21231 0.91932 0.0
C209 C 0.92431 0.22591 0.91301 0.0
C210 C 0.97177 0.21481 0.94039 0.0
C211 C 0.94677 0.23138 0.95577 0.0
C212 C 0.9102 0.2447 0.94949 0.0
C213 C 0.89908 0.2421 0.92833 0.0
C214 C 0.95696 0.23324 0.97856 0.0
C215 C -0.00638 0.23082 -0.01429 0.0
C216 C 0.00363 0.22981 0.00852 0.0
C217 C 0.04193 0.23793 0.01454 0.0
C218 C 0.05276 0.23588 0.03573 0.0
C219 C 0.02548 0.22544 0.05137 0.0
H220 H 0.94713 0.2111 0.02036 0.0
C221 C -0.0127 0.21703 0.04533 0.0
C222 C -0.02347 0.21898 0.02422 0.0
H223 H 0.96557 0.20853 0.05692 0.0
H224 H -0.0192 0.1993 0.90798 0.0
H225 H -0.00042 0.20285 0.9445 0.0
H226 H 0.89011 0.25719 0.961 0.0
H227 H 0.8708 0.25275 0.924 0.0
H228 H 0.93314 0.23747 -0.01026 0.0
H229 H 0.01771 0.23021 0.97449 0.0
H230 H 0.06359 0.24591 0.00279 0.0
H231 H 0.08241 0.24245 0.03985 0.0
C232 C 0.72269 -0.02045 0.54857 0.0
C233 C 0.71183 0.01697 0.55558 0.0
C234 C 0.7184 0.96827 0.5275 0.0
C235 C 0.70282 -0.00592 0.51283 0.0
C236 C 0.69207 0.03155 0.51982 0.0
C237 C 0.6964 0.04288 0.54097 0.0
C238 C 0.69979 -0.01602 0.48995 0.0
C239 C 0.70049 0.9473 0.48209 0.0
C240 C 0.70137 0.93796 0.45903 0.0
C241 C 0.69023 0.90074 0.45196 0.0
C242 C 0.69242 0.89066 0.43044 0.0
C243 C 0.70609 0.9176 0.41559 0.0
H244 H 0.72565 -0.00692 0.44877 0.0
C245 C 0.71744 0.95467 0.42272 0.0
C246 C 0.71532 0.96466 0.44409 0.0
H247 H 0.72852 -0.02389 0.41179 0.0
H248 H 0.73495 0.95889 0.55936 0.0
H249 H 0.7283 0.93962 0.5228 0.0
H250 H 0.68039 0.05226 0.50885 0.0
H251 H 0.6878 0.07191 0.54583 0.0
H252 H 0.69651 0.00809 0.47925 0.0
H253 H 0.70003 0.92293 0.49279 0.0
H254 H 0.67986 0.87935 0.46313 0.0
H255 H 0.68361 0.86182 0.42548 0.0
C256 C 0.95735 0.72599 0.04522 0.0
C257 C 0.91967 0.71561 0.0519 0.0
C258 C 0.96843 0.7236 0.02396 0.0
C259 C 0.94218 0.7104 0.00872 0.0
C260 C 0.90437 0.70033 0.01535 0.0
C261 C 0.89323 0.70277 0.03672 0.0
C262 C 0.95255 0.70895 -0.01424 0.0
C263 C -0.0106 0.70774 0.97813 0.0
C264 C -7e-05 0.70932 0.95521 0.0
C265 C 0.03696 0.69685 0.94838 0.0
C266 C 0.04837 0.69928 0.92708 0.0
C267 C 0.02299 0.7145 0.91218 0.0
H268 H 0.94655 0.73615 0.94481 0.0
C269 C -0.01389 0.72727 0.91905 0.0
C270 C -0.02524 0.72489 0.94026 0.0
H271 H 0.96588 0.73949 0.90805 0.0
H272 H -0.02157 0.73637 0.05645 0.0
H273 H -0.00265 0.73303 0.0196 0.0
H274 H 0.88334 0.69051 0.00395 0.0
H275 H 0.86397 0.69466 0.04131 0.0
H276 H 0.92863 0.7082 0.97485 0.0
H277 H 0.01316 0.70478 -0.011 0.0
H278 H 0.05718 0.68516 0.95956 0.0
H279 H 0.077 0.68928 0.92232 0.0
C280 C 0.20992 -0.00844 0.41966 0.0
C281 C 0.22131 0.02908 0.41353 0.0
C282 C 0.2124 -0.02003 0.44064 0.0
C283 C 0.22674 0.00553 0.45612 0.0
C284 C 0.23769 0.04324 0.45006 0.0
C285 C 0.23512 0.0549 0.42898 0.0
C286 C 0.22876 -0.00547 0.4788 0.0
C287 C 0.22929 0.9574 0.48557 0.0
C288 C 0.22873 0.94617 0.50827 0.0
C289 C 0.23978 0.90829 0.51373 0.0
C290 C 0.23827 0.8962 0.53479 0.0
C291 C 0.22546 0.92175 0.55086 0.0
H292 H 0.20548 0.00048 0.52097 0.0
C293 C 0.21415 0.95953 0.54537 0.0
C294 C 0.21557 0.97155 0.52439 0.0
H295 H 0.20377 -0.02008 0.55731 0.0
H296 H 0.19874 0.97098 0.40822 0.0
H297 H 0.20224 0.95121 0.4446 0.0
H298 H 0.24839 0.06376 0.46166 0.0
H299 H 0.24403 0.08402 0.42481 0.0
H300 H 0.23072 0.01816 0.49019 0.0
H301 H 0.23096 0.93385 0.47408 0.0
H302 H 0.24962 0.88791 0.50165 0.0
H303 H 0.24709 0.8669 0.53846 0.0
C304 C 0.14928 0.23603 0.17685 0.0
C305 C 0.16191 0.21136 0.1603 0.0
C306 C 0.1662 0.23436 0.1967 0.0
C307 C 0.19588 0.20746 0.20059 0.0
C308 C 0.21028 0.18474 0.1836 0.0
C309 C 0.19352 0.18665 0.16365 0.0
C310 C 0.21089 0.20028 0.22217 0.0
C311 C 0.19169 0.2104 0.24018 0.0
C312 C 0.20189 0.1961 0.26152 0.0
C313 C 0.18598 0.21489 0.2795 0.0
C314 C 0.18986 0.19894 0.29961 0.0
C315 C 0.20937 0.16355 0.30211 0.0
H316 H 0.23516 0.14559 0.25095 0.0
C317 C 0.22686 0.14576 0.28427 0.0
C318 C 0.22313 0.1617 0.26425 0.0
H319 H 0.24219 0.11847 0.28562 0.0
H320 H 0.12544 0.25598 0.17466 0.0
H321 H 0.15519 0.25373 0.20891 0.0
H322 H 0.23344 0.16408 0.18599 0.0
H323 H 0.20401 0.16736 0.15121 0.0
H324 H 0.23726 0.18327 0.22308 0.0
H325 H 0.16566 0.22791 0.23947 0.0
H326 H 0.16928 0.2413 0.2779 0.0
H327 H 0.17594 0.21332 0.313 0.0
C328 C 0.8036 0.23013 0.78632 0.0
C329 C 0.78542 0.21641 0.80482 0.0
C330 C 0.78554 0.22684 0.76684 0.0
C331 C 0.74849 0.20995 0.76531 0.0
C332 C 0.72945 0.1982 0.784 0.0
C333 C 0.74762 0.20147 0.80356 0.0
C334 C 0.73104 0.19964 0.74457 0.0
C335 C 0.74452 0.21246 0.72574 0.0
C336 C 0.7342 0.19471 0.70497 0.0
C337 C 0.74575 0.21356 0.68629 0.0
C338 C 0.74225 0.19511 0.66657 0.0
C339 C 0.7273 0.15724 0.66516 0.0
H340 H 0.70879 0.14129 0.71712 0.0
C341 C 0.71393 0.13921 0.68371 0.0
C342 C 0.71744 0.15753 0.70333 0.0
H343 H 0.70211 0.11006 0.68323 0.0
H344 H 0.83269 0.24198 0.7867 0.0
H345 H 0.8019 0.23576 0.75304 0.0
H346 H 0.70098 0.18495 0.78338 0.0
H347 H 0.73278 0.19063 0.81749 0.0
H348 H 0.70737 0.17892 0.745 0.0
H349 H 0.76569 0.23573 0.72529 0.0
H350 H 0.75894 0.24209 0.68699 0.0
H351 H 0.75284 0.20983 0.6526 0.0
C352 C 0.7382 0.75738 0.29472 0.0
C353 C 0.71702 0.79078 0.30045 0.0
C354 C 0.73857 0.7438 0.27374 0.0
C355 C 0.71736 0.76328 0.25819 0.0
C356 C 0.69444 0.79517 0.26437 0.0
C357 C 0.69423 0.80873 0.28517 0.0
C358 C 0.72163 0.75479 0.23514 0.0
C359 C 0.73775 0.72234 0.2268 0.0
C360 C 0.74952 0.7189 0.20411 0.0
C361 C 0.78131 0.6952 0.1988 0.0
C362 C 0.79746 0.69562 0.17847 0.0
C363 C 0.78189 0.71943 0.16283 0.0
H364 H 0.70647 0.75792 0.19126 0.0
C365 C 0.74807 0.74069 0.16757 0.0
C366 C 0.73198 0.74046 0.18804 0.0
H367 H 0.73517 0.75899 0.1558 0.0
H368 H 0.75617 0.74306 0.30613 0.0
H369 H 0.75715 0.71948 0.26973 0.0
H370 H 0.67774 0.81074 0.25285 0.0
H371 H 0.67721 0.83433 0.28909 0.0
H372 H 0.71338 0.77799 0.22467 0.0
H373 H 0.74641 0.69909 0.23712 0.0
H374 H 0.79508 0.67785 0.21071 0.0
H375 H 0.8232 0.67839 0.17526 0.0
C376 C 0.22935 0.79812 0.67796 0.0
C377 C 0.21562 0.78012 0.6595 0.0
C378 C 0.22578 0.77996 0.69748 0.0
C379 C 0.20861 0.74298 0.6991 0.0
C380 C 0.19663 0.72419 0.68047 0.0
C381 C 0.20019 0.74246 0.66086 0.0
C382 C 0.19843 0.72541 0.71991 0.0
C383 C 0.2125 0.738 0.73857 0.0
C384 C 0.19558 0.72769 0.75963 0.0
C385 C 0.21521 0.7393 0.77796 0.0
C386 C 0.19763 0.73593 0.79796 0.0
C387 C 0.15987 0.72102 0.80006 0.0
H388 H 0.1418 0.70199 0.74847 0.0
C389 C 0.1411 0.70745 0.78187 0.0
C390 C 0.15856 0.71084 0.76194 0.0
H391 H 0.11202 0.69564 0.78288 0.0
H392 H 0.24152 0.82712 0.67752 0.0
H393 H 0.23475 0.79618 0.71125 0.0
H394 H 0.18312 0.69581 0.68117 0.0
H395 H 0.1893 0.72778 0.64697 0.0
H396 H 0.17698 0.7024 0.7197 0.0
H397 H 0.23639 0.75847 0.73864 0.0
H398 H 0.24367 0.75249 0.77675 0.0
H399 H 0.21292 0.74668 0.81163 0.0
C400 C 0.03365 0.06316 0.13116 0.0
C401 C 0.0153 0.09915 0.13463 0.0
C402 C 0.01494 0.02859 0.13629 0.0
C403 C -0.02271 0.02903 0.14516 0.0
C404 C 0.95934 0.06506 0.14925 0.0
C405 C -0.02174 0.09986 0.14419 0.0
C406 C 0.95461 -0.00741 0.14781 0.0
C407 C 0.97121 0.95725 0.1492 0.0
C408 C 0.94992 0.92003 0.14626 0.0
C409 C 0.96773 0.88515 0.15212 0.0
C410 C 0.95125 0.84923 0.14686 0.0
C411 C 0.91674 0.84751 0.13543 0.0
H412 H 0.9003 0.94412 0.13012 0.0
C413 C 0.89825 0.88242 0.13021 0.0
C414 C 0.91462 0.9182 0.13549 0.0
H415 H 0.87156 0.88224 0.12144 0.0
H416 H 0.06224 0.06152 0.12386 0.0
H417 H 0.02952 0.00167 0.13223 0.0
H418 H 0.93018 0.06625 0.15586 0.0
H419 H 0.96332 0.12712 0.14702 0.0
H420 H 0.92326 -0.0049 0.14759 0.0
H421 H 0.00223 0.95518 0.15158 0.0
H422 H -0.00489 0.88564 0.16026 0.0
H423 H 0.96623 0.8229 0.15114 0.0
C424 C 0.0902 0.95032 0.64287 0.0
C425 C 0.09542 0.91277 0.6344 0.0
C426 C 0.05285 0.96391 0.64805 0.0
C427 C 0.02014 0.94003 0.6449 0.0
C428 C 0.02587 0.9018 0.63771 0.0
C429 C 0.06291 0.88842 0.6324 0.0
C430 C -0.0205 0.95403 0.64767 0.0
C431 C 0.9692 -0.00859 0.64527 0.0
C432 C 0.92834 0.00435 0.64268 0.0
C433 C 0.922 0.03904 0.63191 0.0
C434 C 0.88454 0.05096 0.62724 0.0
C435 C 0.85215 0.02868 0.6334 0.0
H436 H 0.89944 0.95637 0.65859 0.0
C437 C 0.8582 -0.00523 0.64504 0.0
C438 C 0.89594 -0.01732 0.64967 0.0
H439 H 0.83387 -0.02279 0.65025 0.0
H440 H 0.11473 0.9696 0.6448 0.0
H441 H 0.04976 -0.00682 0.65422 0.0
H442 H 0.00139 0.88259 0.63535 0.0
H443 H 0.06592 0.85908 0.62625 0.0
H444 H 0.95711 0.93198 0.64886 0.0
H445 H -0.00835 0.01293 0.64242 0.0
H446 H 0.94624 0.05654 0.62647 0.0
H447 H 0.8811 0.07755 0.61849 0.0
C448 C 0.94844 0.08351 0.82171 0.0
C449 C 0.91333 0.08929 0.83287 0.0
C450 C 0.96132 0.04584 0.81677 0.0
C451 C 0.93924 0.01326 0.82292 0.0
C452 C 0.90329 0.0193 0.83306 0.0
C453 C 0.89058 0.05674 0.83808 0.0
C454 C 0.95309 -0.02743 0.82013 0.0
C455 C -0.0091 0.96289 0.81933 0.0
C456 C 0.00498 0.92239 0.82184 0.0
C457 C 0.0417 0.917 0.83048 0.0
C458 C 0.05481 0.8799 0.83527 0.0
C459 C 0.03171 0.84704 0.8313 0.0
H460 H 0.9545 0.89228 0.80958 0.0
C461 C -0.00424 0.85208 0.82158 0.0
C462 C -0.01754 0.88943 0.81688 0.0
H463 H -0.02251 0.82732 0.81809 0.0
H464 H 0.9664 0.10799 0.81725 0.0
H465 H -0.01137 0.04246 0.80832 0.0
H466 H 0.88548 -0.00512 0.83781 0.0
H467 H 0.86309 0.06005 0.84642 0.0
H468 H 0.93146 0.9498 0.8216 0.0
H469 H 0.01261 -0.01428 0.81964 0.0
H470 H 0.05985 0.94173 0.83427 0.0
H471 H 0.08293 0.87713 0.84246 0.0
C472 C 0.8551 0.9412 0.324 0.0
C473 C 0.84433 0.92156 0.34254 0.0
C474 C 0.89208 0.958 0.32205 0.0
C475 C 0.91816 0.95616 0.33884 0.0
C476 C 0.90717 0.93677 0.35729 0.0
C477 C 0.87096 0.91917 0.35901 0.0
C478 C 0.95565 -0.02313 0.33859 0.0
C479 C -0.01942 -0.02306 0.32203 0.0
C480 C 0.01882 -0.0037 0.3239 0.0
C481 C 0.05279 -0.02208 0.31643 0.0
C482 C 0.0893 -0.00606 0.32077 0.0
C483 C 0.09216 0.02881 0.33243 0.0
H484 H -0.00399 0.04761 0.33985 0.0
C485 C 0.05788 0.04822 0.33864 0.0
C486 C 0.02175 0.03222 0.33442 0.0
H487 H 0.05881 0.0755 0.34728 0.0
H488 H 0.83508 0.94342 0.31109 0.0
H489 H 0.89977 -0.02654 0.30779 0.0
H490 H 0.92668 0.93533 0.37049 0.0
H491 H 0.86342 0.90452 0.37356 0.0
H492 H 0.96442 -0.00986 0.35342 0.0
H493 H -0.02577 0.96015 0.30788 0.0
H494 H 0.05116 0.95033 0.30812 0.0
H495 H 0.11513 -0.02153 0.31558 0.0
loop_
_geom_bond_atom_site_label_1
_geom_bond_atom_site_label_2
_geom_bond_distance
_geom_bond_site_symmetry_2
_ccdc_geom_bond_type
C0 O1 1.306 . S
C0 O3 1.160 . S
O1 C0 1.306 . S
O1 Cd2 2.228 . S
Cd2 O1 2.228 . S
Cd2 O6 2.273 . S
Cd2 O10 2.277 . S
O3 C0 1.160 . S
O3 Cd4 2.203 . S
Cd4 O3 2.203 . S
Cd4 O6 2.411 . S
Cd4 O7 2.333 . S
Cd4 O8 2.352 . S
Cd4 O12 2.277 . S
Cd4 O13 2.356 . S
C5 O10 1.209 . S
C5 O12 1.226 . S
O6 Cd2 2.273 . S
O6 Cd4 2.411 . S
O6 C9 1.320 . S
O7 Cd4 2.333 . S
O7 C9 1.214 . S
O8 Cd4 2.352 . S
O8 C11 1.258 . S
C9 O6 1.320 . S
C9 O7 1.214 . S
O10 Cd2 2.277 . S
O10 C5 1.209 . S
C11 O8 1.258 . S
C11 O13 1.282 . S
O12 Cd4 2.277 . S
O12 C5 1.226 . S
O13 Cd4 2.356 . S
O13 C11 1.282 . S
C14 O15 1.306 . S
C14 O17 1.160 . S
O15 C14 1.306 . S
O15 Cd16 2.228 . S
Cd16 O15 2.228 . S
Cd16 O20 2.273 . S
Cd16 O24 2.277 . S
O17 C14 1.160 . S
O17 Cd18 2.203 . S
Cd18 O17 2.203 . S
Cd18 O20 2.411 . S
Cd18 O21 2.333 . S
Cd18 O22 2.352 . S
Cd18 O26 2.277 . S
Cd18 O27 2.356 . S
C19 O24 1.209 . S
C19 O26 1.226 . S
O20 Cd16 2.273 . S
O20 Cd18 2.411 . S
O20 C23 1.320 . S
O21 Cd18 2.333 . S
O21 C23 1.214 . S
O22 Cd18 2.352 . S
O22 C25 1.258 . S
C23 O20 1.320 . S
C23 O21 1.214 . S
O24 Cd16 2.277 . S
O24 C19 1.209 . S
C25 O22 1.258 . S
C25 O27 1.282 . S
O26 Cd18 2.277 . S
O26 C19 1.226 . S
O27 Cd18 2.356 . S
O27 C25 1.282 . S
C28 O29 1.306 . S
C28 O31 1.160 . S
O29 C28 1.306 . S
O29 Cd30 2.228 . S
Cd30 O29 2.228 . S
Cd30 O34 2.273 . S
Cd30 O38 2.277 . S
O31 C28 1.160 . S
O31 Cd32 2.203 . S
Cd32 O31 2.203 . S
Cd32 O34 2.411 . S
Cd32 O35 2.333 . S
Cd32 O36 2.352 . S
Cd32 O40 2.277 . S
Cd32 O41 2.356 . S
C33 O38 1.209 . S
C33 O40 1.226 . S
O34 Cd30 2.273 . S
O34 Cd32 2.411 . S
O34 C37 1.320 . S
O35 Cd32 2.333 . S
O35 C37 1.214 . S
O36 Cd32 2.352 . S
O36 C39 1.258 . S
C37 O34 1.320 . S
C37 O35 1.214 . S
O38 Cd30 2.277 . S
O38 C33 1.209 . S
C39 O36 1.258 . S
C39 O41 1.282 . S
O40 Cd32 2.277 . S
O40 C33 1.226 . S
O41 Cd32 2.356 . S
O41 C39 1.282 . S
C42 O43 1.306 . S
C42 O45 1.160 . S
O43 C42 1.306 . S
O43 Cd44 2.228 . S
Cd44 O43 2.228 . S
Cd44 O48 2.273 . S
Cd44 O52 2.277 . S
O45 C42 1.160 . S
O45 Cd46 2.203 . S
Cd46 O45 2.203 . S
Cd46 O48 2.411 . S
Cd46 O49 2.333 . S
Cd46 O50 2.352 . S
Cd46 O54 2.277 . S
Cd46 O55 2.356 . S
C47 O52 1.209 . S
C47 O54 1.226 . S
O48 Cd44 2.273 . S
O48 Cd46 2.411 . S
O48 C51 1.320 . S
O49 Cd46 2.333 . S
O49 C51 1.214 . S
O50 Cd46 2.352 . S
O50 C53 1.258 . S
C51 O48 1.320 . S
C51 O49 1.214 . S
O52 Cd44 2.277 . S
O52 C47 1.209 . S
C53 O50 1.258 . S
C53 O55 1.282 . S
O54 Cd46 2.277 . S
O54 C47 1.226 . S
O55 Cd46 2.356 . S
O55 C53 1.282 . S
C56 O57 1.306 . S
C56 O59 1.160 . S
O57 C56 1.306 . S
O57 Cd58 2.228 . S
Cd58 O57 2.228 . S
Cd58 O62 2.273 . S
Cd58 O66 2.277 . S
O59 C56 1.160 . S
O59 Cd60 2.203 . S
Cd60 O59 2.203 . S
Cd60 O62 2.411 . S
Cd60 O63 2.333 . S
Cd60 O64 2.352 . S
Cd60 O68 2.277 . S
Cd60 O69 2.356 . S
C61 O66 1.209 . S
C61 O68 1.226 . S
O62 Cd58 2.273 . S
O62 Cd60 2.411 . S
O62 C65 1.320 . S
O63 Cd60 2.333 . S
O63 C65 1.214 . S
O64 Cd60 2.352 . S
O64 C67 1.258 . S
C65 O62 1.320 . S
C65 O63 1.214 . S
O66 Cd58 2.277 . S
O66 C61 1.209 . S
C67 O64 1.258 . S
C67 O69 1.282 . S
O68 Cd60 2.277 . S
O68 C61 1.226 . S
O69 Cd60 2.356 . S
O69 C67 1.282 . S
C70 O71 1.306 . S
C70 O73 1.160 . S
O71 C70 1.306 . S
O71 Cd72 2.228 . S
Cd72 O71 2.228 . S
Cd72 O76 2.273 . S
Cd72 O80 2.277 . S
O73 C70 1.160 . S
O73 Cd74 2.203 . S
Cd74 O73 2.203 . S
Cd74 O76 2.411 . S
Cd74 O77 2.333 . S
Cd74 O78 2.352 . S
Cd74 O82 2.277 . S
Cd74 O83 2.356 . S
C75 O80 1.209 . S
C75 O82 1.226 . S
O76 Cd72 2.273 . S
O76 Cd74 2.411 . S
O76 C79 1.320 . S
O77 Cd74 2.333 . S
O77 C79 1.214 . S
O78 Cd74 2.352 . S
O78 C81 1.258 . S
C79 O76 1.320 . S
C79 O77 1.214 . S
O80 Cd72 2.277 . S
O80 C75 1.209 . S
C81 O78 1.258 . S
C81 O83 1.282 . S
O82 Cd74 2.277 . S
O82 C75 1.226 . S
O83 Cd74 2.356 . S
O83 C81 1.282 . S
C84 O85 1.306 . S
C84 O87 1.160 . S
O85 C84 1.306 . S
O85 Cd86 2.228 . S
Cd86 O85 2.228 . S
Cd86 O90 2.273 . S
Cd86 O94 2.277 . S
O87 C84 1.160 . S
O87 Cd88 2.203 . S
Cd88 O87 2.203 . S
Cd88 O90 2.411 . S
Cd88 O91 2.333 . S
Cd88 O92 2.352 . S
Cd88 O96 2.277 . S
Cd88 O97 2.356 . S
C89 O94 1.209 . S
C89 O96 1.226 . S
O90 Cd86 2.273 . S
O90 Cd88 2.411 . S
O90 C93 1.320 . S
O91 Cd88 2.333 . S
O91 C93 1.214 . S
O92 Cd88 2.352 . S
O92 C95 1.258 . S
C93 O90 1.320 . S
C93 O91 1.214 . S
O94 Cd86 2.277 . S
O94 C89 1.209 . S
C95 O92 1.258 . S
C95 O97 1.282 . S
O96 Cd88 2.277 . S
O96 C89 1.226 . S
O97 Cd88 2.356 . S
O97 C95 1.282 . S
C98 O99 1.306 . S
C98 O101 1.160 . S
O99 C98 1.306 . S
O99 Cd100 2.228 . S
Cd100 O99 2.228 . S
Cd100 O104 2.273 . S
Cd100 O108 2.277 . S
O101 C98 1.160 . S
O101 Cd102 2.203 . S
Cd102 O101 2.203 . S
Cd102 O104 2.411 . S
Cd102 O105 2.333 . S
Cd102 O106 2.352 . S
Cd102 O110 2.277 . S
Cd102 O111 2.356 . S
C103 O108 1.209 . S
C103 O110 1.226 . S
O104 Cd100 2.273 . S
O104 Cd102 2.411 . S
O104 C107 1.320 . S
O105 Cd102 2.333 . S
O105 C107 1.214 . S
O106 Cd102 2.352 . S
O106 C109 1.258 . S
C107 O104 1.320 . S
C107 O105 1.214 . S
O108 Cd100 2.277 . S
O108 C103 1.209 . S
C109 O106 1.258 . S
C109 O111 1.282 . S
O110 Cd102 2.277 . S
O110 C103 1.226 . S
O111 Cd102 2.356 . S
O111 C109 1.282 . S
C112 C113 1.386 . S
C112 C114 1.383 1_455 S
C112 H128 0.951 1_455 S
C113 C112 1.386 . S
C113 C117 1.383 . S
C114 C112 1.383 1_655 S
C114 C115 1.402 1_655 S
C114 H129 0.951 . S
C115 C114 1.402 1_455 S
C115 C116 1.375 . S
C115 C118 1.481 . S
C116 C115 1.375 . S
C116 C117 1.367 . S
C116 H130 0.951 . S
C117 C113 1.383 . S
C117 C116 1.367 . S
C117 H131 0.950 . S
C118 C115 1.481 . S
C118 C119 1.297 1_455 S
C118 H132 0.950 . S
C119 C118 1.297 1_655 S
C119 C120 1.479 . S
C119 H133 0.950 . S
C120 C119 1.479 . S
C120 C121 1.375 . S
C120 C126 1.404 . S
C121 C120 1.375 . S
C121 C122 1.369 . S
C121 H134 0.950 . S
C122 C121 1.369 . S
C122 C123 1.392 . S
C122 H135 0.951 . S
C123 C122 1.392 . S
C123 C125 1.384 . S
H124 C126 0.949 1_455 S
C125 C123 1.384 . S
C125 C126 1.385 . S
C125 H127 0.950 . S
C126 C120 1.404 . S
C126 H124 0.949 1_655 S
C126 C125 1.385 . S
H127 C125 0.950 . S
H128 C112 0.951 1_655 S
H129 C114 0.951 . S
H130 C116 0.951 . S
H131 C117 0.950 . S
H132 C118 0.950 . S
H133 C119 0.950 . S
H134 C121 0.950 . S
H135 C122 0.951 . S
C136 C137 1.386 . S
C136 C138 1.383 . S
C136 H152 0.951 1_565 S
C137 C136 1.386 . S
C137 C141 1.383 . S
C138 C136 1.383 . S
C138 C139 1.402 . S
C138 H153 0.951 1_565 S
C139 C138 1.402 . S
C139 C140 1.375 . S
C139 C142 1.481 . S
C140 C139 1.375 . S
C140 C141 1.367 . S
C140 H154 0.951 . S
C141 C137 1.383 . S
C141 C140 1.367 . S
C141 H155 0.950 . S
C142 C139 1.481 . S
C142 C143 1.297 1_565 S
C142 H156 0.950 . S
C143 C142 1.297 1_545 S
C143 C144 1.479 . S
C143 H157 0.950 . S
C144 C143 1.479 . S
C144 C145 1.375 . S
C144 C150 1.404 1_545 S
C145 C144 1.375 . S
C145 C146 1.369 . S
C145 H158 0.950 . S
C146 C145 1.369 . S
C146 C147 1.392 . S
C146 H159 0.951 . S
C147 C146 1.392 . S
C147 C149 1.393 . S
H148 C150 0.949 . S
C149 C147 1.393 . S
C149 C150 1.382 1_545 S
C149 H151 0.944 1_545 S
C150 C144 1.404 1_565 S
C150 H148 0.949 . S
C150 C149 1.382 1_565 S
H151 C149 0.944 1_565 S
H152 C136 0.951 1_545 S
H153 C138 0.951 1_545 S
H154 C140 0.951 . S
H155 C141 0.950 . S
H156 C142 0.950 . S
H157 C143 0.950 . S
H158 C145 0.950 . S
H159 C146 0.951 . S
C160 C161 1.386 . S
C160 C162 1.383 . S
C160 H176 0.951 . S
C161 C160 1.386 . S
C161 C165 1.356 1_655 S
C162 C160 1.383 . S
C162 C163 1.402 . S
C162 H177 0.951 . S
C163 C162 1.402 . S
C163 C164 1.375 1_655 S
C163 C166 1.481 1_655 S
C164 C163 1.375 1_455 S
C164 C165 1.378 . S
C164 H178 0.951 . S
C165 C161 1.356 1_455 S
C165 C164 1.378 . S
C165 H179 0.967 . S
C166 C163 1.481 1_455 S
C166 C167 1.297 1_455 S
C166 H180 0.950 . S
C167 C166 1.297 1_655 S
C167 C168 1.479 1_655 S
C167 H181 0.950 . S
C168 C167 1.479 1_455 S
C168 C169 1.375 1_455 S
C168 C174 1.404 . S
C169 C168 1.375 1_655 S
C169 C170 1.369 . S
C169 H182 0.950 . S
C170 C169 1.369 . S
C170 C171 1.392 1_655 S
C170 H183 0.951 . S
C171 C170 1.392 1_455 S
C171 C173 1.384 . S
H172 C174 0.949 . S
C173 C171 1.384 . S
C173 C174 1.385 . S
C173 H175 0.950 . S
C174 C168 1.404 . S
C174 H172 0.949 . S
C174 C173 1.385 . S
H175 C173 0.950 . S
H176 C160 0.951 . S
H177 C162 0.951 . S
H178 C164 0.951 . S
H179 C165 0.967 . S
H180 C166 0.950 . S
H181 C167 0.950 . S
H182 C169 0.950 . S
H183 C170 0.951 . S
C184 C185 1.386 . S
C184 C186 1.383 1_545 S
C184 H200 0.951 1_545 S
C185 C184 1.386 . S
C185 C189 1.383 . S
C186 C184 1.383 1_565 S
C186 C187 1.402 1_565 S
C186 H201 0.951 . S
C187 C186 1.402 1_545 S
C187 C188 1.375 . S
C187 C190 1.481 . S
C188 C187 1.375 . S
C188 C189 1.367 . S
C188 H202 0.951 . S
C189 C185 1.383 . S
C189 C188 1.367 . S
C189 H203 0.950 . S
C190 C187 1.481 . S
C190 C191 1.297 1_545 S
C190 H204 0.950 . S
C191 C190 1.297 1_565 S
C191 C192 1.479 . S
C191 H205 0.950 . S
C192 C191 1.479 . S
C192 C193 1.375 . S
C192 C198 1.404 1_565 S
C193 C192 1.375 . S
C193 C194 1.369 . S
C193 H206 0.950 . S
C194 C193 1.369 . S
C194 C195 1.392 . S
C194 H207 0.951 . S
C195 C194 1.392 . S
C195 C197 1.384 . S
H196 C198 0.949 . S
C197 C195 1.384 . S
C197 C198 1.385 1_565 S
C197 H199 0.950 1_565 S
C198 C192 1.404 1_545 S
C198 H196 0.949 . S
C198 C197 1.385 1_545 S
H199 C197 0.950 1_545 S
H200 C184 0.951 1_565 S
H201 C186 0.951 . S
H202 C188 0.951 . S
H203 C189 0.950 . S
H204 C190 0.950 . S
H205 C191 0.950 . S
H206 C193 0.950 . S
H207 C194 0.951 . S
C208 C209 1.386 . S
C208 C210 1.383 . S
C208 H224 0.951 . S
C209 C208 1.386 . S
C209 C213 1.383 . S
C210 C208 1.383 . S
C210 C211 1.402 . S
C210 H225 0.951 1_655 S
C211 C210 1.402 . S
C211 C212 1.375 . S
C211 C214 1.453 1_556 S
C212 C211 1.375 . S
C212 C213 1.367 . S
C212 H226 0.951 . S
C213 C209 1.383 . S
C213 C212 1.367 . S
C213 H227 0.950 . S
C214 C211 1.453 1_554 S
C214 C215 1.302 1_655 S
C214 H228 0.976 . S
C215 C214 1.302 1_455 S
C215 C216 1.479 . S
C215 H229 0.950 1_554 S
C216 C215 1.479 . S
C216 C217 1.375 . S
C216 C222 1.404 . S
C217 C216 1.375 . S
C217 C218 1.369 . S
C217 H230 0.950 . S
C218 C217 1.369 . S
C218 C219 1.392 . S
C218 H231 0.951 . S
C219 C218 1.392 . S
C219 C221 1.384 . S
H220 C222 0.949 1_655 S
C221 C219 1.384 . S
C221 C222 1.385 . S
C221 H223 0.950 . S
C222 C216 1.404 . S
C222 H220 0.949 1_455 S
C222 C221 1.385 . S
H223 C221 0.950 . S
H224 C208 0.951 . S
H225 C210 0.951 1_455 S
H226 C212 0.951 . S
H227 C213 0.950 . S
H228 C214 0.976 . S
H229 C215 0.950 1_556 S
H230 C217 0.950 . S
H231 C218 0.951 . S
C232 C233 1.386 . S
C232 C234 1.383 . S
C232 H248 0.951 . S
C233 C232 1.386 . S
C233 C237 1.383 . S
C234 C232 1.383 . S
C234 C235 1.402 . S
C234 H249 0.951 . S
C235 C234 1.402 . S
C235 C236 1.375 . S
C235 C238 1.481 1_545 S
C236 C235 1.375 . S
C236 C237 1.367 . S
C236 H250 0.951 . S
C237 C233 1.383 . S
C237 C236 1.367 . S
C237 H251 0.950 . S
C238 C235 1.481 1_565 S
C238 C239 1.297 . S
C238 H252 0.950 . S
C239 C238 1.297 . S
C239 C240 1.479 . S
C239 H253 0.951 . S
C240 C239 1.479 . S
C240 C241 1.375 . S
C240 C246 1.404 . S
C241 C240 1.375 . S
C241 C242 1.369 . S
C241 H254 0.950 . S
C242 C241 1.369 . S
C242 C243 1.392 . S
C242 H255 0.951 . S
C243 C242 1.392 . S
C243 C245 1.384 . S
H244 C246 0.949 . S
C245 C243 1.384 . S
C245 C246 1.385 . S
C245 H247 0.950 . S
C246 C240 1.404 . S
C246 H244 0.949 . S
C246 C245 1.385 . S
H247 C245 0.950 . S
H248 C232 0.951 . S
H249 C234 0.951 . S
H250 C236 0.951 . S
H251 C237 0.950 . S
H252 C238 0.950 . S
H253 C239 0.951 . S
H254 C241 0.950 . S
H255 C242 0.951 . S
C256 C257 1.386 . S
C256 C258 1.383 . S
C256 H272 0.951 . S
C257 C256 1.386 . S
C257 C261 1.383 . S
C258 C256 1.383 . S
C258 C259 1.402 . S
C258 H273 0.951 1_655 S
C259 C258 1.402 . S
C259 C260 1.375 . S
C259 C262 1.505 . S
C260 C259 1.375 . S
C260 C261 1.367 . S
C260 H274 0.951 . S
C261 C257 1.383 . S
C261 C260 1.367 . S
C261 H275 0.950 . S
C262 C259 1.505 . S
C262 C263 1.294 1_654 S
C262 H276 0.927 1_554 S
C263 C262 1.294 1_456 S
C263 C264 1.479 . S
C263 H277 0.950 1_556 S
C264 C263 1.479 . S
C264 C265 1.375 . S
C264 C270 1.404 . S
C265 C264 1.375 . S
C265 C266 1.369 . S
C265 H278 0.950 . S
C266 C265 1.369 . S
C266 C267 1.392 . S
C266 H279 0.951 . S
C267 C266 1.392 . S
C267 C269 1.384 . S
H268 C270 0.949 1_655 S
C269 C267 1.384 . S
C269 C270 1.385 . S
C269 H271 0.950 . S
C270 C264 1.404 . S
C270 H268 0.949 1_455 S
C270 C269 1.385 . S
H271 C269 0.950 . S
H272 C256 0.951 . S
H273 C258 0.951 1_455 S
H274 C260 0.951 . S
H275 C261 0.950 . S
H276 C262 0.927 1_556 S
H277 C263 0.950 1_554 S
H278 C265 0.950 . S
H279 C266 0.951 . S
C280 C281 1.386 . S
C280 C282 1.383 . S
C280 H296 0.951 . S
C281 C280 1.386 . S
C281 C285 1.383 . S
C282 C280 1.383 . S
C282 C283 1.402 . S
C282 H297 0.951 . S
C283 C282 1.402 . S
C283 C284 1.375 . S
C283 C286 1.481 . S
C284 C283 1.375 . S
C284 C285 1.367 . S
C284 H298 0.951 . S
C285 C281 1.383 . S
C285 C284 1.367 . S
C285 H299 0.950 . S
C286 C283 1.481 . S
C286 C287 1.297 1_545 S
C286 H300 0.950 . S
C287 C286 1.297 1_565 S
C287 C288 1.479 . S
C287 H301 0.950 . S
C288 C287 1.479 . S
C288 C289 1.375 . S
C288 C294 1.404 . S
C289 C288 1.375 . S
C289 C290 1.369 . S
C289 H302 0.950 . S
C290 C289 1.369 . S
C290 C291 1.392 . S
C290 H303 0.951 . S
C291 C290 1.392 . S
C291 C293 1.384 . S
H292 C294 0.949 1_545 S
C293 C291 1.384 . S
C293 C294 1.385 . S
C293 H295 0.950 . S
C294 C288 1.404 . S
C294 H292 0.949 1_565 S
C294 C293 1.385 . S
H295 C293 0.950 . S
H296 C280 0.951 . S
H297 C282 0.951 . S
H298 C284 0.951 . S
H299 C285 0.950 . S
H300 C286 0.950 . S
H301 C287 0.950 . S
H302 C289 0.950 . S
H303 C290 0.951 . S
C304 C305 1.386 . S
C304 C306 1.383 . S
C304 H320 0.951 . S
C305 C304 1.386 . S
C305 C309 1.383 . S
C306 C304 1.383 . S
C306 C307 1.402 . S
C306 H321 0.951 . S
C307 C306 1.402 . S
C307 C308 1.375 . S
C307 C310 1.481 . S
C308 C307 1.375 . S
C308 C309 1.367 . S
C308 H322 0.951 . S
C309 C305 1.383 . S
C309 C308 1.367 . S
C309 H323 0.950 . S
C310 C307 1.481 . S
C310 C311 1.297 . S
C310 H324 0.950 . S
C311 C310 1.297 . S
C311 C312 1.479 . S
C311 H325 0.950 . S
C312 C311 1.479 . S
C312 C313 1.375 . S
C312 C318 1.404 . S
C313 C312 1.375 . S
C313 C314 1.369 . S
C313 H326 0.950 . S
C314 C313 1.369 . S
C314 C315 1.392 . S
C314 H327 0.951 . S
C315 C314 1.392 . S
C315 C317 1.384 . S
H316 C318 0.949 . S
C317 C315 1.384 . S
C317 C318 1.385 . S
C317 H319 0.950 . S
C318 C312 1.404 . S
C318 H316 0.949 . S
C318 C317 1.385 . S
H319 C317 0.950 . S
H320 C304 0.951 . S
H321 C306 0.951 . S
H322 C308 0.951 . S
H323 C309 0.950 . S
H324 C310 0.950 . S
H325 C311 0.950 . S
H326 C313 0.950 . S
H327 C314 0.951 . S
C328 C329 1.386 . S
C328 C330 1.383 . S
C328 H344 0.951 . S
C329 C328 1.386 . S
C329 C333 1.383 . S
C330 C328 1.383 . S
C330 C331 1.402 . S
C330 H345 0.951 . S
C331 C330 1.402 . S
C331 C332 1.375 . S
C331 C334 1.481 . S
C332 C331 1.375 . S
C332 C333 1.367 . S
C332 H346 0.951 . S
C333 C329 1.383 . S
C333 C332 1.367 . S
C333 H347 0.950 . S
C334 C331 1.481 . S
C334 C335 1.297 . S
C334 H348 0.950 . S
C335 C334 1.297 . S
C335 C336 1.479 . S
C335 H349 0.950 . S
C336 C335 1.479 . S
C336 C337 1.375 . S
C336 C342 1.404 . S
C337 C336 1.375 . S
C337 C338 1.369 . S
C337 H350 0.950 . S
C338 C337 1.369 . S
C338 C339 1.392 . S
C338 H351 0.951 . S
C339 C338 1.392 . S
C339 C341 1.384 . S
H340 C342 0.949 . S
C341 C339 1.384 . S
C341 C342 1.385 . S
C341 H343 0.950 . S
C342 C336 1.404 . S
C342 H340 0.949 . S
C342 C341 1.385 . S
H343 C341 0.950 . S
H344 C328 0.951 . S
H345 C330 0.951 . S
H346 C332 0.951 . S
H347 C333 0.950 . S
H348 C334 0.950 . S
H349 C335 0.950 . S
H350 C337 0.950 . S
H351 C338 0.951 . S
C352 C353 1.386 . S
C352 C354 1.383 . S
C352 H368 0.951 . S
C353 C352 1.386 . S
C353 C357 1.383 . S
C354 C352 1.383 . S
C354 C355 1.402 . S
C354 H369 0.951 . S
C355 C354 1.402 . S
C355 C356 1.375 . S
C355 C358 1.481 . S
C356 C355 1.375 . S
C356 C357 1.367 . S
C356 H370 0.951 . S
C357 C353 1.383 . S
C357 C356 1.367 . S
C357 H371 0.950 . S
C358 C355 1.481 . S
C358 C359 1.297 . S
C358 H372 0.950 . S
C359 C358 1.297 . S
C359 C360 1.479 . S
C359 H373 0.950 . S
C360 C359 1.479 . S
C360 C361 1.375 . S
C360 C366 1.404 . S
C361 C360 1.375 . S
C361 C362 1.369 . S
C361 H374 0.950 . S
C362 C361 1.369 . S
C362 C363 1.392 . S
C362 H375 0.951 . S
C363 C362 1.392 . S
C363 C365 1.384 . S
H364 C366 0.949 . S
C365 C363 1.384 . S
C365 C366 1.385 . S
C365 H367 0.950 . S
C366 C360 1.404 . S
C366 H364 0.949 . S
C366 C365 1.385 . S
H367 C365 0.950 . S
H368 C352 0.951 . S
H369 C354 0.951 . S
H370 C356 0.951 . S
H371 C357 0.950 . S
H372 C358 0.950 . S
H373 C359 0.950 . S
H374 C361 0.950 . S
H375 C362 0.951 . S
C376 C377 1.386 . S
C376 C378 1.383 . S
C376 H392 0.951 . S
C377 C376 1.386 . S
C377 C381 1.383 . S
C378 C376 1.383 . S
C378 C379 1.402 . S
C378 H393 0.951 . S
C379 C378 1.402 . S
C379 C380 1.375 . S
C379 C382 1.481 . S
C380 C379 1.375 . S
C380 C381 1.367 . S
C380 H394 0.951 . S
C381 C377 1.383 . S
C381 C380 1.367 . S
C381 H395 0.950 . S
C382 C379 1.481 . S
C382 C383 1.297 . S
C382 H396 0.950 . S
C383 C382 1.297 . S
C383 C384 1.479 . S
C383 H397 0.950 . S
C384 C383 1.479 . S
C384 C385 1.375 . S
C384 C390 1.404 . S
C385 C384 1.375 . S
C385 C386 1.369 . S
C385 H398 0.950 . S
C386 C385 1.369 . S
C386 C387 1.392 . S
C386 H399 0.951 . S
C387 C386 1.392 . S
C387 C389 1.384 . S
H388 C390 0.949 . S
C389 C387 1.384 . S
C389 C390 1.385 . S
C389 H391 0.950 . S
C390 C384 1.404 . S
C390 H388 0.949 . S
C390 C389 1.385 . S
H391 C389 0.950 . S
H392 C376 0.951 . S
H393 C378 0.951 . S
H394 C380 0.951 . S
H395 C381 0.950 . S
H396 C382 0.950 . S
H397 C383 0.950 . S
H398 C385 0.950 . S
H399 C386 0.951 . S
C400 C401 1.386 . S
C400 C402 1.383 . S
C400 H416 0.951 . S
C401 C400 1.386 . S
C401 C405 1.383 . S
C402 C400 1.383 . S
C402 C403 1.402 . S
C402 H417 0.951 1_455 S
C403 C402 1.402 . S
C403 C404 1.375 . S
C403 C406 1.481 1_455 S
C404 C403 1.375 . S
C404 C405 1.367 . S
C404 H418 0.951 . S
C405 C401 1.383 . S
C405 C404 1.367 . S
C405 H419 0.950 . S
C406 C403 1.481 1_655 S
C406 C407 1.297 1_545 S
C406 H420 0.950 1_655 S
C407 C406 1.297 1_565 S
C407 C408 1.479 . S
C407 H421 0.950 1_565 S
C408 C407 1.479 . S
C408 C409 1.375 . S
C408 C414 1.404 . S
C409 C408 1.375 . S
C409 C410 1.369 . S
C409 H422 0.950 . S
C410 C409 1.369 . S
C410 C411 1.392 . S
C410 H423 0.951 . S
C411 C410 1.392 . S
C411 C413 1.384 . S
H412 C414 0.949 . S
C413 C411 1.384 . S
C413 C414 1.385 . S
C413 H415 0.950 . S
C414 C408 1.404 . S
C414 H412 0.949 . S
C414 C413 1.385 . S
H415 C413 0.950 . S
H416 C400 0.951 . S
H417 C402 0.951 1_655 S
H418 C404 0.951 . S
H419 C405 0.950 . S
H420 C406 0.950 1_455 S
H421 C407 0.950 1_545 S
H422 C409 0.950 . S
H423 C410 0.951 . S
C424 C425 1.386 . S
C424 C426 1.383 1_565 S
C424 H440 0.951 1_565 S
C425 C424 1.386 . S
C425 C429 1.383 . S
C426 C424 1.383 1_545 S
C426 C427 1.402 1_545 S
C426 H441 0.951 . S
C427 C426 1.402 1_565 S
C427 C428 1.375 . S
C427 C430 1.481 . S
C428 C427 1.375 . S
C428 C429 1.367 . S
C428 H442 0.951 . S
C429 C425 1.383 . S
C429 C428 1.367 . S
C429 H443 0.950 . S
C430 C427 1.481 . S
C430 C431 1.297 1_465 S
C430 H444 0.950 1_455 S
C431 C430 1.297 1_645 S
C431 C432 1.479 . S
C431 H445 0.950 1_655 S
C432 C431 1.479 . S
C432 C433 1.375 . S
C432 C438 1.404 1_545 S
C433 C432 1.375 . S
C433 C434 1.369 . S
C433 H446 0.950 . S
C434 C433 1.369 . S
C434 C435 1.392 . S
C434 H447 0.951 . S
C435 C434 1.392 . S
C435 C437 1.384 1_545 S
H436 C438 0.949 . S
C437 C435 1.384 1_565 S
C437 C438 1.385 . S
C437 H439 0.950 . S
C438 C432 1.404 1_565 S
C438 H436 0.949 . S
C438 C437 1.385 . S
H439 C437 0.950 . S
H440 C424 0.951 1_545 S
H441 C426 0.951 . S
H442 C428 0.951 . S
H443 C429 0.950 . S
H444 C430 0.950 1_655 S
H445 C431 0.950 1_455 S
H446 C433 0.950 . S
H447 C434 0.951 . S
C448 C449 1.386 . S
C448 C450 1.383 1_655 S
C448 H464 0.951 1_655 S
C449 C448 1.386 . S
C449 C453 1.383 . S
C450 C448 1.383 1_455 S
C450 C451 1.402 1_455 S
C450 H465 0.951 . S
C451 C450 1.402 1_655 S
C451 C452 1.375 . S
C451 C454 1.481 . S
C452 C451 1.375 . S
C452 C453 1.367 . S
C452 H466 0.951 . S
C453 C449 1.383 . S
C453 C452 1.367 . S
C453 H467 0.950 . S
C454 C451 1.481 . S
C454 C455 1.297 1_645 S
C454 H468 0.950 1_545 S
C455 C454 1.297 1_465 S
C455 C456 1.479 . S
C455 H469 0.950 1_565 S
C456 C455 1.479 . S
C456 C457 1.375 . S
C456 C462 1.404 . S
C457 C456 1.375 . S
C457 C458 1.369 . S
C457 H470 0.950 . S
C458 C457 1.369 . S
C458 C459 1.392 . S
C458 H471 0.951 . S
C459 C458 1.392 . S
C459 C461 1.384 . S
H460 C462 0.949 1_655 S
C461 C459 1.384 . S
C461 C462 1.385 . S
C461 H463 0.962 . S
C462 C456 1.404 . S
C462 H460 0.949 1_455 S
C462 C461 1.385 . S
H463 C461 0.962 . S
H464 C448 0.951 1_455 S
H465 C450 0.951 . S
H466 C452 0.951 . S
H467 C453 0.950 . S
H468 C454 0.950 1_565 S
H469 C455 0.950 1_545 S
H470 C457 0.950 . S
H471 C458 0.951 . S
C472 C473 1.386 . S
C472 C474 1.383 . S
C472 H488 0.951 . S
C473 C472 1.386 . S
C473 C477 1.383 . S
C474 C472 1.383 . S
C474 C475 1.402 . S
C474 H489 0.951 1_565 S
C475 C474 1.402 . S
C475 C476 1.375 . S
C475 C478 1.481 1_565 S
C476 C475 1.375 . S
C476 C477 1.367 . S
C476 H490 0.951 . S
C477 C473 1.383 . S
C477 C476 1.367 . S
C477 H491 0.950 . S
C478 C475 1.481 1_545 S
C478 C479 1.297 1_655 S
C478 H492 0.950 1_545 S
C479 C478 1.297 1_455 S
C479 C480 1.479 . S
C479 H493 0.950 1_455 S
C480 C479 1.479 . S
C480 C481 1.375 . S
C480 C486 1.404 . S
C481 C480 1.375 . S
C481 C482 1.369 . S
C481 H494 0.950 . S
C482 C481 1.369 . S
C482 C483 1.392 . S
C482 H495 0.951 . S
C483 C482 1.392 . S
C483 C485 1.384 . S
H484 C486 0.949 . S
C485 C483 1.384 . S
C485 C486 1.385 . S
C485 H487 0.950 . S
C486 C480 1.404 . S
C486 H484 0.949 . S
C486 C485 1.385 . S
H487 C485 0.950 . S
H488 C472 0.951 . S
H489 C474 0.951 1_545 S
H490 C476 0.951 . S
H491 C477 0.950 . S
H492 C478 0.950 1_565 S
H493 C479 0.950 1_655 S
H494 C481 0.950 . S
H495 C482 0.951 . S
C113 C11 1.378 . S
C123 C39 1.376 . S
C137 C53 1.370 . S
C147 C25 1.374 . S
C161 C95 1.355 . S
C171 C67 1.338 . S
C185 C81 1.376 . S
C195 C109 1.380 . S
C209 C93 1.476 . S
C219 C9 1.426 . S
C233 C23 1.397 . S
C243 C107 1.494 . S
C257 C37 1.467 . S
C267 C65 1.447 . S
C281 C79 1.485 . S
C291 C51 1.382 . S
C305 C0 1.336 . S
C315 C70 1.283 . S
C329 C84 1.352 . S
C339 C14 1.283 . S
C353 C98 1.338 . S
C363 C28 1.385 . S
C377 C42 1.319 . S
C387 C56 1.303 . S
C401 C5 0.868 . S
C411 C33 0.823 . S
C425 C47 0.843 . S
C435 C19 0.866 . S
C449 C89 0.857 . S
C459 C61 0.825 . S
C473 C103 0.869 . S
C483 C75 0.823 . S
