# Generated by pormake.
# Topology deh, (3)-cn, num edge types: 1
# Building blocks:
#     Node 0, Type 0, BuildingBlock: OLANEW_clean_sbu_2, # of connection points: 3
#     Node 1, Type 0, BuildingBlock: OLANEW_clean_sbu_2, # of connection points: 3
#     Node 2, Type 0, BuildingBlock: OLANEW_clean_sbu_2, # of connection points: 3
#     Node 3, Type 0, BuildingBlock: OLANEW_clean_sbu_2, # of connection points: 3
#     Node 4, Type 0, BuildingBlock: OLANEW_clean_sbu_2, # of connection points: 3
#     Node 5, Type 0, BuildingBlock: OLANEW_clean_sbu_2, # of connection points: 3
#     Node 6, Type 0, BuildingBlock: OLANEW_clean_sbu_2, # of connection points: 3
#     Node 7, Type 0, BuildingBlock: OLANEW_clean_sbu_2, # of connection points: 3
#     Node 8, Type 0, BuildingBlock: OLANEW_clean_sbu_2, # of connection points: 3
#     Node 9, Type 0, BuildingBlock: OLANEW_clean_sbu_2, # of connection points: 3
#     Node 10, Type 0, BuildingBlock: OLANEW_clean_sbu_2, # of connection points: 3
#     Node 11, Type 0, BuildingBlock: OLANEW_clean_sbu_2, # of connection points: 3
#     Node 12, Type 0, BuildingBlock: OLANEW_clean_sbu_2, # of connection points: 3
#     Node 13, Type 0, BuildingBlock: OLANEW_clean_sbu_2, # of connection points: 3
#     Node 14, Type 0, BuildingBlock: OLANEW_clean_sbu_2, # of connection points: 3
#     Node 15, Type 0, BuildingBlock: OLANEW_clean_sbu_2, # of connection points: 3
#     Node 16, Type 0, BuildingBlock: OLANEW_clean_sbu_2, # of connection points: 3
#     Node 17, Type 0, BuildingBlock: OLANEW_clean_sbu_2, # of connection points: 3
#     Node 18, Type 0, BuildingBlock: OLANEW_clean_sbu_2, # of connection points: 3
#     Node 19, Type 0, BuildingBlock: OLANEW_clean_sbu_2, # of connection points: 3
#     Node 20, Type 0, BuildingBlock: OLANEW_clean_sbu_2, # of connection points: 3
#     Node 21, Type 0, BuildingBlock: OLANEW_clean_sbu_2, # of connection points: 3
#     Node 22, Type 0, BuildingBlock: OLANEW_clean_sbu_2, # of connection points: 3
#     Node 23, Type 0, BuildingBlock: OLANEW_clean_sbu_2, # of connection points: 3
#     Node 24, Type 0, BuildingBlock: OLANEW_clean_sbu_2, # of connection points: 3
#     Node 25, Type 0, BuildingBlock: OLANEW_clean_sbu_2, # of connection points: 3
#     Node 26, Type 0, BuildingBlock: OLANEW_clean_sbu_2, # of connection points: 3
#     Node 27, Type 0, BuildingBlock: OLANEW_clean_sbu_2, # of connection points: 3
#     Node 28, Type 0, BuildingBlock: OLANEW_clean_sbu_2, # of connection points: 3
#     Node 29, Type 0, BuildingBlock: OLANEW_clean_sbu_2, # of connection points: 3
#     Node 30, Type 0, BuildingBlock: OLANEW_clean_sbu_2, # of connection points: 3
#     Node 31, Type 0, BuildingBlock: OLANEW_clean_sbu_2, # of connection points: 3
#     Edge 32, Type (0, 0), BuildingBlock: OJICUG_clean_linker_0, # of connection points: 2
#     Edge 33, Type (0, 0), BuildingBlock: OJICUG_clean_linker_0, # of connection points: 2
#     Edge 34, Type (0, 0), BuildingBlock: OJICUG_clean_linker_0, # of connection points: 2
#     Edge 35, Type (0, 0), BuildingBlock: OJICUG_clean_linker_0, # of connection points: 2
#     Edge 36, Type (0, 0), BuildingBlock: OJICUG_clean_linker_0, # of connection points: 2
#     Edge 37, Type (0, 0), BuildingBlock: OJICUG_clean_linker_0, # of connection points: 2
#     Edge 38, Type (0, 0), BuildingBlock: OJICUG_clean_linker_0, # of connection points: 2
#     Edge 39, Type (0, 0), BuildingBlock: OJICUG_clean_linker_0, # of connection points: 2
#     Edge 40, Type (0, 0), BuildingBlock: OJICUG_clean_linker_0, # of connection points: 2
#     Edge 41, Type (0, 0), BuildingBlock: OJICUG_clean_linker_0, # of connection points: 2
#     Edge 42, Type (0, 0), BuildingBlock: OJICUG_clean_linker_0, # of connection points: 2
#     Edge 43, Type (0, 0), BuildingBlock: OJICUG_clean_linker_0, # of connection points: 2
#     Edge 44, Type (0, 0), BuildingBlock: OJICUG_clean_linker_0, # of connection points: 2
#     Edge 45, Type (0, 0), BuildingBlock: OJICUG_clean_linker_0, # of connection points: 2
#     Edge 46, Type (0, 0), BuildingBlock: OJICUG_clean_linker_0, # of connection points: 2
#     Edge 47, Type (0, 0), BuildingBlock: OJICUG_clean_linker_0, # of connection points: 2
#     Edge 48, Type (0, 0), BuildingBlock: OJICUG_clean_linker_0, # of connection points: 2
#     Edge 49, Type (0, 0), BuildingBlock: OJICUG_clean_linker_0, # of connection points: 2
#     Edge 50, Type (0, 0), BuildingBlock: OJICUG_clean_linker_0, # of connection points: 2
#     Edge 51, Type (0, 0), BuildingBlock: OJICUG_clean_linker_0, # of connection points: 2
#     Edge 52, Type (0, 0), BuildingBlock: OJICUG_clean_linker_0, # of connection points: 2
#     Edge 53, Type (0, 0), BuildingBlock: OJICUG_clean_linker_0, # of connection points: 2
#     Edge 54, Type (0, 0), BuildingBlock: OJICUG_clean_linker_0, # of connection points: 2
#     Edge 55, Type (0, 0), BuildingBlock: OJICUG_clean_linker_0, # of connection points: 2
#     Edge 56, Type (0, 0), BuildingBlock: OJICUG_clean_linker_0, # of connection points: 2
#     Edge 57, Type (0, 0), BuildingBlock: OJICUG_clean_linker_0, # of connection points: 2
#     Edge 58, Type (0, 0), BuildingBlock: OJICUG_clean_linker_0, # of connection points: 2
#     Edge 59, Type (0, 0), BuildingBlock: OJICUG_clean_linker_0, # of connection points: 2
#     Edge 60, Type (0, 0), BuildingBlock: OJICUG_clean_linker_0, # of connection points: 2
#     Edge 61, Type (0, 0), BuildingBlock: OJICUG_clean_linker_0, # of connection points: 2
#     Edge 62, Type (0, 0), BuildingBlock: OJICUG_clean_linker_0, # of connection points: 2
#     Edge 63, Type (0, 0), BuildingBlock: OJICUG_clean_linker_0, # of connection points: 2
#     Edge 64, Type (0, 0), BuildingBlock: OJICUG_clean_linker_0, # of connection points: 2
#     Edge 65, Type (0, 0), BuildingBlock: OJICUG_clean_linker_0, # of connection points: 2
#     Edge 66, Type (0, 0), BuildingBlock: OJICUG_clean_linker_0, # of connection points: 2
#     Edge 67, Type (0, 0), BuildingBlock: OJICUG_clean_linker_0, # of connection points: 2
#     Edge 68, Type (0, 0), BuildingBlock: OJICUG_clean_linker_0, # of connection points: 2
#     Edge 69, Type (0, 0), BuildingBlock: OJICUG_clean_linker_0, # of connection points: 2
#     Edge 70, Type (0, 0), BuildingBlock: OJICUG_clean_linker_0, # of connection points: 2
#     Edge 71, Type (0, 0), BuildingBlock: OJICUG_clean_linker_0, # of connection points: 2
#     Edge 72, Type (0, 0), BuildingBlock: OJICUG_clean_linker_0, # of connection points: 2
#     Edge 73, Type (0, 0), BuildingBlock: OJICUG_clean_linker_0, # of connection points: 2
#     Edge 74, Type (0, 0), BuildingBlock: OJICUG_clean_linker_0, # of connection points: 2
#     Edge 75, Type (0, 0), BuildingBlock: OJICUG_clean_linker_0, # of connection points: 2
#     Edge 76, Type (0, 0), BuildingBlock: OJICUG_clean_linker_0, # of connection points: 2
#     Edge 77, Type (0, 0), BuildingBlock: OJICUG_clean_linker_0, # of connection points: 2
#     Edge 78, Type (0, 0), BuildingBlock: OJICUG_clean_linker_0, # of connection points: 2
#     Edge 79, Type (0, 0), BuildingBlock: OJICUG_clean_linker_0, # of connection points: 2
# Relax obj value: 0.000
# Max RMSD: 0.031
# Mean RMSD: 0.031
data_MOF--net-deh--node1-OLANEW_clean_sbu_2--edge1-OJICUG_clean_linker_0
_symmetry_space_group_name_H-M    P1
_symmetry_Int_Tables_number       1
_symmetry_cell_setting            triclinic
loop_
_symmetry_equiv_pos_as_xyz
'x, y, z'
_cell_length_a     46.946056
_cell_length_b     46.82037
_cell_length_c     77.164859
_cell_angle_alpha  90.159529
_cell_angle_beta   90.321092
_cell_angle_gamma 90.110754
loop_
_atom_site_label
_atom_site_type_symbol
_atom_site_fract_x
_atom_site_fract_y
_atom_site_fract_z
_atom_type_partial_charge
O0 O 0.1605 0.04188 0.30305 0.0
Cd1 Cd 0.14293 0.03342 0.27358 0.0
O2 O 0.12742 0.016 0.31569 0.0
Cd3 Cd 0.10164 0.00853 0.29242 0.0
O4 O 0.05864 0.00736 0.28134 0.0
C5 C 0.04668 0.03077 0.27731 0.0
O6 O 0.06145 0.05457 0.27856 0.0
C7 C 0.14981 0.03126 0.31671 0.0
C8 C 0.18773 0.03379 0.24985 0.0
O9 O 0.17498 0.05693 0.25411 0.0
O10 O 0.17919 0.01043 0.25674 0.0
O11 O 0.17621 0.91076 0.55299 0.0
Cd12 Cd 0.18416 0.89319 0.52354 0.0
O13 O 0.20343 0.87855 0.56552 0.0
Cd14 Cd 0.21035 0.85287 0.54222 0.0
O15 O 0.21061 0.8099 0.53102 0.0
C16 C 0.18704 0.79837 0.52679 0.0
O17 O 0.16362 0.8136 0.52788 0.0
C18 C 0.18763 0.9005 0.5666 0.0
C19 C 0.18447 0.93819 0.4998 0.0
O20 O 0.16119 0.92571 0.50398 0.0
O21 O 0.20765 0.92929 0.50677 0.0
O22 O 0.31143 0.92837 0.80303 0.0
Cd23 Cd 0.32903 0.93677 0.77371 0.0
O24 O 0.34338 0.95573 0.81588 0.0
Cd25 Cd 0.36895 0.96296 0.79271 0.0
O26 O 0.41136 0.96281 0.78111 0.0
C27 C 0.42195 0.93921 0.77616 0.0
O28 O 0.40609 0.91608 0.77683 0.0
C29 C 0.32154 0.93971 0.81675 0.0
C30 C 0.28415 0.93654 0.74975 0.0
O31 O 0.29687 0.91336 0.75398 0.0
O32 O 0.29279 0.95988 0.75676 0.0
O33 O 0.29323 0.06041 0.05342 0.0
Cd34 Cd 0.28502 0.07813 0.02402 0.0
O35 O 0.26609 0.09252 0.06602 0.0
Cd36 Cd 0.2589 0.11818 0.04278 0.0
O37 O 0.25854 0.16085 0.03131 0.0
C38 C 0.282 0.17207 0.02675 0.0
O39 O 0.30535 0.1567 0.02772 0.0
C40 C 0.28194 0.07059 0.06704 0.0
C41 C 0.2851 0.03329 2e-05 0.0
O42 O 0.30827 0.04597 0.00442 0.0
O43 O 0.26185 0.04192 0.0069 0.0
O44 O 0.16173 0.92685 0.64791 0.0
Cd45 Cd 0.14456 0.93503 0.67737 0.0
O46 O 0.12877 0.95316 0.63539 0.0
Cd47 Cd 0.10354 0.96034 0.65872 0.0
O48 O 0.06088 0.96141 0.66996 0.0
C49 C 0.04881 0.93795 0.67381 0.0
O50 O 0.06335 0.91412 0.67231 0.0
C51 C 0.15097 0.93776 0.6343 0.0
C52 C 0.18975 0.93564 0.70111 0.0
O53 O 0.17731 0.91223 0.69687 0.0
O54 O 0.18072 0.95881 0.69419 0.0
O55 O 0.29456 0.91225 0.89773 0.0
Cd56 Cd 0.28609 0.8945 0.92704 0.0
O57 O 0.26829 0.87944 0.88482 0.0
Cd58 Cd 0.26082 0.85365 0.90794 0.0
O59 O 0.25972 0.81073 0.91906 0.0
C60 C 0.28307 0.79892 0.92335 0.0
O61 O 0.30674 0.81383 0.92235 0.0
C62 C 0.28375 0.90172 0.88397 0.0
C63 C 0.28565 0.93938 0.95101 0.0
O64 O 0.30893 0.92691 0.94688 0.0
O65 O 0.26253 0.93052 0.94387 0.0
O66 O 0.30885 0.04387 0.14829 0.0
Cd67 Cd 0.32641 0.03563 0.17775 0.0
O68 O 0.34172 0.01771 0.13569 0.0
Cd69 Cd 0.36736 0.01058 0.15901 0.0
O70 O 0.41016 0.01018 0.17038 0.0
C71 C 0.42154 0.03373 0.17489 0.0
O72 O 0.40628 0.05718 0.17396 0.0
C73 C 0.31946 0.03305 0.13464 0.0
C74 C 0.28156 0.03492 0.20143 0.0
O75 O 0.29391 0.05835 0.19731 0.0
O76 O 0.29051 0.01178 0.19443 0.0
O77 O 0.17637 0.05922 0.39792 0.0
Cd78 Cd 0.18474 0.07706 0.42734 0.0
O79 O 0.20353 0.0913 0.3853 0.0
Cd80 Cd 0.21068 0.11722 0.40854 0.0
O81 O 0.21061 0.16014 0.41981 0.0
C82 C 0.187 0.17116 0.42421 0.0
O83 O 0.1638 0.15547 0.42323 0.0
C84 C 0.18764 0.06933 0.38429 0.0
C85 C 0.18478 0.03225 0.45121 0.0
O86 O 0.16159 0.04486 0.44691 0.0
O87 O 0.20799 0.04095 0.4443 0.0
O88 O 0.80231 0.9499 0.64419 0.0
Cd89 Cd 0.818 0.95951 0.67407 0.0
O90 O 0.84622 0.93904 0.63676 0.0
Cd91 Cd 0.86891 0.9488 0.66088 0.0
O92 O 0.91179 0.95408 0.67168 0.0
C93 C 0.92638 0.93187 0.67496 0.0
O94 O 0.91421 0.9067 0.67327 0.0
C95 C 0.81998 0.94151 0.63282 0.0
C96 C 0.77443 0.96171 0.6987 0.0
O97 O 0.78341 0.98444 0.69126 0.0
O98 O 0.78567 0.93787 0.69428 0.0
O99 O 0.76246 0.05041 0.3938 0.0
Cd100 Cd 0.74884 0.067 0.42281 0.0
O101 O 0.78937 0.08852 0.3902 0.0
Cd102 Cd 0.77665 0.11316 0.41298 0.0
O103 O 0.77054 0.15677 0.42256 0.0
C104 C 0.79256 0.172 0.42532 0.0
O105 O 0.81778 0.16016 0.42377 0.0
C106 C 0.78007 0.06457 0.38473 0.0
C107 C 0.74868 0.02425 0.44815 0.0
O108 O 0.72586 0.03086 0.43989 0.0
O109 O 0.77165 0.03756 0.44428 0.0
O110 O 0.66289 0.0137 0.14376 0.0
Cd111 Cd 0.64664 -0.00042 0.1727 0.0
O112 O 0.62625 0.04265 0.14091 0.0
Cd113 Cd 0.60212 0.02955 0.16371 0.0
O114 O 0.5591 0.02204 0.17351 0.0
C115 C 0.54379 0.0435 0.17733 0.0
O116 O 0.55522 0.06911 0.17672 0.0
C117 C 0.6494 0.03243 0.13508 0.0
C118 C 0.68939 -0.00012 0.19819 0.0
O119 O 0.68306 0.97699 0.18985 0.0
O120 O 0.67578 0.02273 0.19433 0.0
O121 O 0.69998 0.91405 0.89384 0.0
Cd122 Cd 0.71201 0.89793 0.92325 0.0
O123 O 0.67976 0.87263 0.88795 0.0
Cd124 Cd 0.69156 0.84908 0.91133 0.0
O125 O 0.69871 0.80608 0.92149 0.0
C126 C 0.6772 0.79061 0.92495 0.0
O127 O 0.65167 0.80192 0.92381 0.0
C128 C 0.68619 0.89795 0.88345 0.0
C129 C 0.71164 0.94106 0.94849 0.0
O130 O 0.73467 0.93416 0.94068 0.0
O131 O 0.68869 0.92788 0.9442 0.0
O132 O 0.80211 0.01166 0.30707 0.0
Cd133 Cd 0.81818 -0.00113 0.27783 0.0
O134 O 0.84256 0.03413 0.31223 0.0
Cd135 Cd 0.86628 0.0219 0.28907 0.0
O136 O 0.90934 0.01567 0.27903 0.0
C137 C 0.92422 0.03762 0.27557 0.0
O138 O 0.9123 0.06293 0.27667 0.0
C139 C 0.81771 0.02682 0.31703 0.0
C140 C 0.77523 -0.0005 0.25247 0.0
O141 O 0.78185 0.9764 0.26039 0.0
O142 O 0.78861 0.0224 0.25669 0.0
O143 O 0.70014 0.05427 0.05711 0.0
Cd144 Cd 0.7125 0.07037 0.02783 0.0
O145 O 0.67904 0.0953 0.06251 0.0
Cd146 Cd 0.69101 0.11887 0.03923 0.0
O147 O 0.69805 0.16186 0.02904 0.0
C148 C 0.6765 0.17712 0.02534 0.0
O149 O 0.65101 0.16561 0.02628 0.0
C150 C 0.68582 0.07018 0.06722 0.0
C151 C 0.71189 0.02727 0.00256 0.0
O152 O 0.73493 0.03403 0.01058 0.0
O153 O 0.68904 0.04058 0.00664 0.0
O154 O 0.66321 0.95537 0.80705 0.0
Cd155 Cd 0.64693 0.97003 0.77811 0.0
O156 O 0.62705 0.92559 0.8093 0.0
Cd157 Cd 0.60282 0.9393 0.78653 0.0
O158 O 0.55976 0.94793 0.77691 0.0
C159 C 0.5438 0.92692 0.77294 0.0
O160 O 0.5546 0.90105 0.77325 0.0
C161 C 0.65002 0.93611 0.81542 0.0
C162 C 0.68895 0.96699 0.75253 0.0
O163 O 0.68433 -0.00974 0.76084 0.0
O164 O 0.67396 0.94505 0.75644 0.0
O165 O 0.76071 0.91447 0.55713 0.0
Cd166 Cd 0.74639 0.89707 0.5283 0.0
O167 O 0.79854 0.88676 0.55681 0.0
Cd168 Cd 0.78634 0.86088 0.53433 0.0
O169 O 0.77933 0.81718 0.52512 0.0
C170 C 0.75516 0.80555 0.52743 0.0
O171 O 0.73442 0.82105 0.53385 0.0
C172 C 0.78378 0.90604 0.56415 0.0
C173 C 0.74741 0.93909 0.50253 0.0
O174 O 0.72443 0.93329 0.51071 0.0
O175 O 0.76999 0.92527 0.50664 0.0
O176 O 0.66088 0.53963 0.80154 0.0
Cd177 Cd 0.64382 0.53199 0.77187 0.0
O178 O 0.62591 0.51599 0.81391 0.0
Cd179 Cd 0.60028 0.50942 0.79048 0.0
O180 O 0.55718 0.50929 0.77951 0.0
C181 C 0.54557 0.53305 0.77585 0.0
O182 O 0.56076 0.55654 0.77737 0.0
C183 C 0.64914 0.52988 0.81512 0.0
C184 C 0.68893 0.53384 0.74837 0.0
O185 O 0.6758 0.55664 0.75286 0.0
O186 O 0.68063 0.51012 0.7549 0.0
O187 O 0.67485 0.41208 0.05305 0.0
Cd188 Cd 0.68289 0.39395 0.02372 0.0
O189 O 0.70219 0.38016 0.06576 0.0
Cd190 Cd 0.70922 0.35419 0.04259 0.0
O191 O 0.70952 0.31122 0.03141 0.0
C192 C 0.68597 0.29972 0.02708 0.0
O193 O 0.66257 0.31498 0.02808 0.0
C194 C 0.6863 0.40207 0.06672 0.0
C195 C 0.68299 0.43835 -0.00044 0.0
O196 O 0.65976 0.42587 0.00386 0.0
O197 O 0.7062 0.42974 0.00663 0.0
O198 O 0.80858 0.42539 0.30361 0.0
Cd199 Cd 0.82605 0.43419 0.2743 0.0
O200 O 0.83943 0.4541 0.31637 0.0
Cd201 Cd 0.86494 0.46174 0.29322 0.0
O202 O 0.90744 0.46217 0.28174 0.0
C203 C 0.91851 0.43864 0.27706 0.0
O204 O 0.90309 0.41523 0.27792 0.0
C205 C 0.81818 0.4373 0.31729 0.0
C206 C 0.78116 0.43512 0.25035 0.0
O207 O 0.79352 0.41167 0.25441 0.0
O208 O 0.79013 0.45818 0.25755 0.0
O209 O 0.79661 0.5634 0.55264 0.0
Cd210 Cd 0.78923 0.58015 0.52295 0.0
O211 O 0.77482 0.5997 0.56497 0.0
Cd212 Cd 0.76885 0.6251 0.54148 0.0
O213 O 0.76858 0.66776 0.52992 0.0
C214 C 0.7463 0.68299 0.5312 0.0
O215 O 0.72341 0.67172 0.53816 0.0
C216 C 0.78765 0.57587 0.5662 0.0
C217 C 0.78773 0.53439 0.49959 0.0
O218 O 0.81133 0.54639 0.50382 0.0
O219 O 0.7648 0.54412 0.50633 0.0
O220 O 0.65995 0.4291 0.14788 0.0
Cd221 Cd 0.64251 0.43724 0.1773 0.0
O222 O 0.62684 0.45505 0.13521 0.0
Cd223 Cd 0.60141 0.46212 0.15848 0.0
O224 O 0.55883 0.46242 0.16986 0.0
C225 C 0.54754 0.43884 0.17424 0.0
O226 O 0.56279 0.4154 0.17317 0.0
C227 C 0.64918 0.43984 0.13422 0.0
C228 C 0.68733 0.43667 0.2013 0.0
O229 O 0.67452 0.41356 0.19687 0.0
O230 O 0.67884 0.46009 0.19445 0.0
O231 O 0.79146 0.41068 0.39844 0.0
Cd232 Cd 0.78369 0.39361 0.42797 0.0
O233 O 0.76806 0.37556 0.3857 0.0
Cd234 Cd 0.76147 0.34977 0.40893 0.0
O235 O 0.76118 0.30666 0.41985 0.0
C236 C 0.78489 0.29476 0.42319 0.0
O237 O 0.80843 0.30965 0.42133 0.0
C238 C 0.78184 0.39891 0.38473 0.0
C239 C 0.78488 0.43902 0.45161 0.0
O240 O 0.80778 0.42596 0.44733 0.0
O241 O 0.76138 0.43049 0.4448 0.0
O242 O 0.81238 0.54937 0.64779 0.0
Cd243 Cd 0.82905 0.54025 0.67736 0.0
O244 O 0.84361 0.52098 0.63542 0.0
Cd245 Cd 0.8688 0.5131 0.65884 0.0
O246 O 0.91154 0.51191 0.67026 0.0
C247 C 0.9233 0.53523 0.67485 0.0
O248 O 0.90843 0.55894 0.67396 0.0
C249 C 0.82235 0.53767 0.63423 0.0
C250 C 0.78356 0.53806 0.70057 0.0
O251 O 0.7957 0.5618 0.69688 0.0
O252 O 0.793 0.51532 0.69334 0.0
O253 O 0.67446 0.55742 0.89652 0.0
Cd254 Cd 0.68269 0.57551 0.9259 0.0
O255 O 0.70344 0.58807 0.8841 0.0
Cd256 Cd 0.71065 0.614 0.90732 0.0
O257 O 0.7108 0.65687 0.91866 0.0
C258 C 0.6872 0.66812 0.92287 0.0
O259 O 0.66387 0.65267 0.92165 0.0
C260 C 0.68664 0.56679 0.88299 0.0
C261 C 0.68289 0.5311 0.95004 0.0
O262 O 0.65965 0.54351 0.94564 0.0
O263 O 0.70607 0.53977 0.94309 0.0
O264 O 0.30298 0.45341 0.1442 0.0
Cd265 Cd 0.31888 0.46617 0.17361 0.0
O266 O 0.34339 0.43096 0.13942 0.0
Cd267 Cd 0.36693 0.44334 0.16279 0.0
O268 O 0.40999 0.45062 0.1729 0.0
C269 C 0.42535 0.42909 0.17651 0.0
O270 O 0.41392 0.40349 0.17555 0.0
C271 C 0.31861 0.43827 0.13438 0.0
C272 C 0.27578 0.46579 0.19859 0.0
O273 O 0.2826 0.48883 0.19067 0.0
O274 O 0.28903 0.44283 0.19453 0.0
O275 O 0.26568 0.55299 0.89369 0.0
Cd276 Cd 0.25318 0.56944 0.92293 0.0
O277 O 0.28697 0.59398 0.88834 0.0
Cd278 Cd 0.27494 0.6179 0.91154 0.0
O279 O 0.26854 0.66116 0.92159 0.0
C280 C 0.29035 0.6762 0.92524 0.0
O281 O 0.31565 0.66433 0.92433 0.0
C282 C 0.28016 0.5688 0.88363 0.0
C283 C 0.25289 0.52658 0.9482 0.0
O284 O 0.23002 0.53358 0.94013 0.0
O285 O 0.276 0.53953 0.94416 0.0
O286 O 0.16471 0.51245 0.64387 0.0
Cd287 Cd 0.14855 0.49844 0.67285 0.0
O288 O 0.12795 0.54125 0.641 0.0
Cd289 Cd 0.10382 0.52828 0.66383 0.0
O290 O 0.06068 0.52136 0.67359 0.0
C291 C 0.04568 0.54303 0.67745 0.0
O292 O 0.05752 0.56847 0.67692 0.0
C293 C 0.15113 0.53109 0.63517 0.0
C294 C 0.1914 0.49874 0.69827 0.0
O295 O 0.18495 0.47581 0.69001 0.0
O296 O 0.17788 0.52162 0.69437 0.0
O297 O 0.20231 0.41469 0.39339 0.0
Cd298 Cd 0.21592 0.39832 0.42249 0.0
O299 O 0.17604 0.37617 0.38943 0.0
Cd300 Cd 0.18898 0.35218 0.41242 0.0
O301 O 0.19693 0.30924 0.42245 0.0
C302 C 0.17572 0.29356 0.42621 0.0
O303 O 0.15004 0.3046 0.42542 0.0
C304 C 0.18505 0.40021 0.38409 0.0
C305 C 0.2149 0.4409 0.44805 0.0
O306 O 0.2379 0.43492 0.43995 0.0
O307 O 0.19227 0.42705 0.44392 0.0
O308 O 0.30354 0.51195 0.80708 0.0
Cd309 Cd 0.31987 0.49787 0.77811 0.0
O310 O 0.34059 0.54046 0.81026 0.0
Cd311 Cd 0.36489 0.52739 0.78749 0.0
O312 O 0.40794 0.52045 0.77759 0.0
C313 C 0.42323 0.54219 0.77429 0.0
O314 O 0.41176 0.56769 0.77551 0.0
C315 C 0.31721 0.53047 0.81593 0.0
C316 C 0.2772 0.49844 0.75258 0.0
O317 O 0.28337 0.47547 0.76077 0.0
O318 O 0.29092 0.52123 0.7566 0.0
O319 O 0.20169 0.55304 0.55716 0.0
Cd320 Cd 0.21387 0.56934 0.52788 0.0
O321 O 0.18047 0.594 0.56258 0.0
Cd322 Cd 0.1923 0.61761 0.53929 0.0
O323 O 0.19924 0.66055 0.52899 0.0
C324 C 0.17766 0.67577 0.52529 0.0
O325 O 0.15218 0.66423 0.52629 0.0
C326 C 0.18734 0.5689 0.56728 0.0
C327 C 0.21387 0.52637 0.50254 0.0
O328 O 0.23682 0.53347 0.51055 0.0
O329 O 0.19082 0.53926 0.50668 0.0
O330 O 0.16292 0.45346 0.30653 0.0
Cd331 Cd 0.14684 0.4666 0.27728 0.0
O332 O 0.12311 0.42966 0.31095 0.0
Cd333 Cd 0.09931 0.44239 0.2878 0.0
O334 O 0.05617 0.44997 0.27797 0.0
C335 C 0.04061 0.42855 0.27423 0.0
O336 O 0.05187 0.40289 0.27489 0.0
C337 C 0.14769 0.43755 0.31611 0.0
C338 C 0.18974 0.46601 0.25218 0.0
O339 O 0.18328 0.48905 0.26025 0.0
O340 O 0.17621 0.44315 0.25612 0.0
O341 O 0.26372 0.41519 0.05707 0.0
Cd342 Cd 0.25006 0.39872 0.02793 0.0
O343 O 0.29119 0.37753 0.06054 0.0
Cd344 Cd 0.27831 0.35329 0.03753 0.0
O345 O 0.27072 0.31004 0.02771 0.0
C346 C 0.29206 0.29455 0.02401 0.0
O347 O 0.31765 0.30595 0.02473 0.0
C348 C 0.28159 0.4012 0.06613 0.0
C349 C 0.25133 0.44124 0.00247 0.0
O350 O 0.22827 0.43528 0.01053 0.0
O351 O 0.27388 0.42739 0.00659 0.0
C352 C 0.24617 0.00862 0.21971 0.0
C353 C 0.25759 0.03461 0.21384 0.0
H354 H 0.21528 -0.01204 0.23572 0.0
C355 C 0.2458 0.06032 0.2199 0.0
H356 H 0.25478 -0.01157 0.21531 0.0
C357 C 0.22303 0.06005 0.23151 0.0
C358 C 0.21168 0.03406 0.23743 0.0
H359 H 0.25405 0.08072 0.21561 0.0
H360 H 0.21442 0.08024 0.23591 0.0
C361 C 0.22354 0.00835 0.23142 0.0
C362 C 0.21046 -0.00349 0.4697 0.0
C363 C 0.18472 0.00826 0.46369 0.0
H364 H 0.2306 0.9653 0.48585 0.0
C365 C 0.1589 -0.00324 0.46965 0.0
H366 H 0.23073 0.0049 0.46537 0.0
C367 C 0.15882 0.97394 0.48131 0.0
C368 C 0.18457 0.96224 0.48736 0.0
H369 H 0.13869 0.00528 0.46525 0.0
H370 H 0.13856 0.96555 0.48562 0.0
C371 C 0.21039 0.97382 0.48145 0.0
C372 C 0.22574 0.91015 0.71952 0.0
C373 C 0.2139 0.93589 0.71355 0.0
H374 H 0.25727 0.89016 0.73553 0.0
C375 C 0.22544 0.96186 0.71954 0.0
H376 H 0.21739 0.88978 0.71514 0.0
C377 C 0.24821 0.96208 0.73131 0.0
C378 C 0.2601 0.93633 0.73724 0.0
H379 H 0.2168 0.98207 0.7152 0.0
H380 H 0.25655 0.98245 0.7357 0.0
C381 C 0.24865 0.91037 0.73119 0.0
C382 C 0.25951 -0.00245 -0.01871 0.0
C383 C 0.28522 0.00932 -0.01255 0.0
H384 H 0.23945 0.96636 0.96492 0.0
C385 C 0.31107 -0.00214 -0.01847 0.0
H386 H 0.23922 0.0059 -0.01442 0.0
C387 C 0.3112 0.97507 0.96977 0.0
C388 C 0.28549 0.96337 0.96357 0.0
H389 H 0.33126 0.00639 -0.01396 0.0
H390 H 0.33149 0.96673 0.96549 0.0
C391 C 0.25964 0.9749 0.96943 0.0
C392 C 0.7235 -0.00932 0.73245 0.0
C393 C 0.71075 0.96559 0.73872 0.0
H394 H 0.75332 0.00918 0.71481 0.0
C395 C 0.71887 0.9392 0.73156 0.0
H396 H 0.71765 0.01137 0.73764 0.0
C397 C 0.7395 0.93793 0.71855 0.0
C398 C 0.7522 0.96304 0.71226 0.0
H399 H 0.70946 0.91947 0.7361 0.0
H400 H 0.74542 0.91725 0.71339 0.0
C401 C 0.74388 -0.01056 0.71931 0.0
C402 C 0.72216 0.97173 0.48182 0.0
C403 C 0.74778 0.96089 0.48863 0.0
H404 H 0.70235 -7e-05 0.46359 0.0
C405 C 0.77371 0.97092 0.48192 0.0
H406 H 0.70182 0.96438 0.48665 0.0
C407 C 0.77402 -0.00849 0.4688 0.0
C408 C 0.74839 0.00224 0.46194 0.0
H409 H 0.79383 0.96302 0.48689 0.0
H410 H 0.79436 -0.0011 0.46398 0.0
C411 C 0.72247 -0.00797 0.46855 0.0
C412 C 0.74249 0.02555 0.23213 0.0
C413 C 0.75311 -0.00035 0.23868 0.0
H414 H 0.71394 0.04595 0.21431 0.0
C415 C 0.74265 0.97385 0.23175 0.0
H416 H 0.75009 0.04579 0.23719 0.0
C417 C 0.72219 0.97395 0.2185 0.0
C418 C 0.71145 -0.00016 0.21202 0.0
H419 H 0.75046 0.95353 0.23646 0.0
H420 H 0.71462 0.9537 0.21343 0.0
C421 C 0.72176 0.02564 0.21902 0.0
C422 C 0.68595 -0.00535 -0.01807 0.0
C423 C 0.71177 0.00508 -0.01119 0.0
H424 H 0.66565 0.96618 0.96391 0.0
C425 C 0.73751 -0.00563 -0.01776 0.0
H426 H 0.66575 0.00245 -0.01329 0.0
C427 C 0.73745 0.97381 0.96904 0.0
C428 C 0.71165 0.96326 0.96224 0.0
H429 H 0.75777 0.00202 -0.0128 0.0
H430 H 0.75767 0.96604 0.96427 0.0
C431 C 0.6859 0.97385 0.96887 0.0
C432 C 0.72536 0.50958 0.72979 0.0
C433 C 0.71305 0.5349 0.73607 0.0
H434 H 0.75714 0.4907 0.71361 0.0
C435 C 0.72412 0.56126 0.73057 0.0
H436 H 0.71732 0.48893 0.73376 0.0
C437 C 0.74707 0.56228 0.7191 0.0
C438 C 0.75933 0.53696 0.71278 0.0
H439 H 0.71517 0.58116 0.73518 0.0
H440 H 0.75512 0.58294 0.71515 0.0
C441 C 0.74817 0.5106 0.71822 0.0
C442 C 0.65716 0.49593 0.9688 0.0
C443 C 0.68293 0.5074 0.96273 0.0
H444 H 0.63696 0.46508 -0.01492 0.0
C445 C 0.70873 0.49593 0.96887 0.0
H446 H 0.63692 0.50424 0.96431 0.0
C447 C 0.70875 0.47357 -0.01915 0.0
C448 C 0.68298 0.46204 -0.01313 0.0
H449 H 0.72896 0.50429 0.96447 0.0
H450 H 0.729 0.46527 -0.01466 0.0
C451 C 0.65719 0.47344 -0.01931 0.0
C452 C 0.74536 0.40988 0.23151 0.0
C453 C 0.75719 0.43554 0.23778 0.0
H454 H 0.71397 0.3901 0.21519 0.0
C455 C 0.7458 0.46158 0.23197 0.0
H456 H 0.75359 0.38945 0.23575 0.0
C457 C 0.72317 0.46196 0.2201 0.0
C458 C 0.71128 0.43629 0.21388 0.0
H459 H 0.75444 0.48173 0.23653 0.0
H460 H 0.71494 0.48238 0.21585 0.0
C461 C 0.7226 0.41025 0.21975 0.0
C462 C 0.81172 0.47445 0.4699 0.0
C463 C 0.78559 0.46332 0.46395 0.0
H464 H 0.83289 0.50566 0.48572 0.0
C465 C 0.76017 0.47577 0.46982 0.0
H466 H 0.83169 0.4654 0.46561 0.0
C467 C 0.76086 0.49877 0.48142 0.0
C468 C 0.78698 0.50998 0.48732 0.0
H469 H 0.73969 0.4677 0.4655 0.0
H470 H 0.74088 0.50784 0.48571 0.0
C471 C 0.81241 0.49758 0.48141 0.0
C472 C 0.24294 0.43997 0.21881 0.0
C473 C 0.25361 0.46579 0.2122 0.0
H474 H 0.21431 0.41976 0.23652 0.0
C475 C 0.24316 0.49166 0.21889 0.0
H476 H 0.25053 0.41967 0.21392 0.0
C477 C 0.22265 0.49172 0.23198 0.0
C478 C 0.21186 0.4659 0.23853 0.0
H479 H 0.251 0.51193 0.21413 0.0
H480 H 0.21509 0.51203 0.23687 0.0
C481 C 0.22216 0.44002 0.23175 0.0
C482 C 0.22658 0.49457 0.96866 0.0
C483 C 0.25254 0.50457 0.96198 0.0
H484 H 0.20584 0.46703 -0.01322 0.0
C485 C 0.27813 0.49362 0.96877 0.0
H486 H 0.20649 0.50264 0.96376 0.0
C487 C 0.27775 0.47301 -0.01812 0.0
C488 C 0.25178 0.46316 -0.01136 0.0
H489 H 0.29849 0.50086 0.9639 0.0
H490 H 0.29783 0.46493 -0.01322 0.0
C491 C 0.22621 0.47423 -0.01809 0.0
C492 C 0.22409 0.52453 0.71891 0.0
C493 C 0.2135 0.49871 0.71208 0.0
H494 H 0.25263 0.54471 0.73694 0.0
C495 C 0.22397 0.47283 0.71873 0.0
H496 H 0.21648 0.54483 0.71406 0.0
C497 C 0.24443 0.47276 0.73199 0.0
C498 C 0.25515 0.49856 0.73875 0.0
H499 H 0.21619 0.45257 0.7138 0.0
H500 H 0.252 0.45244 0.73684 0.0
C501 C 0.24483 0.52445 0.73201 0.0
C502 C 0.18867 0.47268 0.46879 0.0
C503 C 0.21457 0.46286 0.46194 0.0
H504 H 0.16811 0.50054 0.48688 0.0
C505 C 0.24021 0.47398 0.46864 0.0
H506 H 0.16854 0.46456 0.46391 0.0
C507 C 0.23997 0.49434 0.48194 0.0
C508 C 0.21408 0.50432 0.48871 0.0
H509 H 0.26054 0.46679 0.4637 0.0
H510 H 0.26011 0.50245 0.48681 0.0
C511 C 0.18842 0.49332 0.48195 0.0
C512 C 0.19299 0.06803 0.35196 0.0
C513 C 0.18051 0.05701 0.36707 0.0
H514 H 0.19333 0.06838 0.32423 0.0
C515 C 0.15965 0.03558 0.36545 0.0
H516 H 0.20924 0.08445 0.35273 0.0
C517 C 0.15046 0.02643 0.34908 0.0
C518 C 0.162 0.0384 0.33396 0.0
H519 H 0.14966 0.02653 0.3768 0.0
H520 H 0.13369 0.01054 0.34831 0.0
C521 C 0.18388 0.05879 0.33559 0.0
C522 C 0.16001 0.934 0.58555 0.0
C523 C 0.18078 0.9126 0.58386 0.0
H524 H 0.13441 0.95883 0.60277 0.0
C525 C 0.19345 0.9014 0.59893 0.0
H526 H 0.14988 0.94317 0.57422 0.0
C527 C 0.18462 0.91044 0.61533 0.0
C528 C 0.16285 0.93081 0.61703 0.0
H529 H 0.20963 0.88501 0.59811 0.0
H530 H 0.19421 0.90072 0.62666 0.0
C531 C 0.15111 0.94296 0.60195 0.0
C532 C 0.31131 0.93578 0.8654 0.0
C533 C 0.29087 0.91395 0.86682 0.0
H534 H 0.33694 0.96114 0.8485 0.0
C535 C 0.27879 0.90249 0.85159 0.0
H536 H 0.32099 0.94516 0.87685 0.0
C537 C 0.28788 0.91172 0.83532 0.0
C538 C 0.30935 0.93254 0.83389 0.0
H539 H 0.26286 0.88576 0.85221 0.0
H540 H 0.27874 0.90179 0.82387 0.0
C541 C 0.32049 0.94493 0.84912 0.0
C542 C 0.27652 0.06956 0.09937 0.0
C543 C 0.28899 0.05842 0.08426 0.0
H544 H 0.27611 0.07012 0.1271 0.0
C545 C 0.30976 0.03699 0.08589 0.0
H546 H 0.26034 0.08597 0.09859 0.0
C547 C 0.31887 0.02796 0.10226 0.0
C548 C 0.30734 0.04006 0.11738 0.0
H549 H 0.31975 0.02786 0.07454 0.0
H550 H 0.33557 0.01208 0.10304 0.0
C551 C 0.28555 0.06044 0.11574 0.0
C552 C 0.77402 0.93125 0.59241 0.0
C553 C 0.7931 0.91723 0.58126 0.0
H554 H 0.76734 0.94968 0.61759 0.0
C555 C 0.82108 0.91229 0.58703 0.0
H556 H 0.75226 0.93525 0.58837 0.0
C557 C 0.8297 0.92062 0.60362 0.0
C558 C 0.81051 0.93391 0.615 0.0
H559 H 0.83637 0.90165 0.57878 0.0
H560 H 0.85139 0.91612 0.60759 0.0
C561 C 0.7826 0.93936 0.60918 0.0
C562 C 0.81358 0.06639 0.35976 0.0
C563 C 0.78965 0.05395 0.3676 0.0
H564 H 0.84105 0.06762 0.33785 0.0
C565 C 0.77479 0.03229 0.35866 0.0
H566 H 0.82558 0.08308 0.36627 0.0
C567 C 0.78354 0.02356 0.3421 0.0
C568 C 0.80755 0.03607 0.33433 0.0
H569 H 0.75618 0.02239 0.36432 0.0
H570 H 0.77167 0.00692 0.33547 0.0
C571 C 0.82248 0.05748 0.34341 0.0
C572 C 0.65666 0.07566 0.09399 0.0
C573 C 0.67694 0.06005 0.08458 0.0
H574 H 0.63225 0.07927 0.11714 0.0
C575 C 0.68871 0.03536 0.09209 0.0
H576 H 0.64713 0.09478 0.08864 0.0
C577 C 0.68034 0.02656 0.10868 0.0
C578 C 0.65977 0.0421 0.11794 0.0
H579 H 0.7045 0.02294 0.08521 0.0
H580 H 0.68962 0.0074 0.11411 0.0
C581 C 0.6481 0.06674 0.11038 0.0
C582 C 0.65775 0.89211 0.85621 0.0
C583 C 0.67748 0.9081 0.86601 0.0
H584 H 0.6338 0.88834 0.83272 0.0
C585 C 0.68881 0.93324 0.85884 0.0
H586 H 0.64856 0.87264 0.86129 0.0
C587 C 0.68051 0.94214 0.8422 0.0
C588 C 0.66045 0.92626 0.83256 0.0
H589 H 0.70417 0.94595 0.86602 0.0
H590 H 0.68942 0.96168 0.83704 0.0
C591 C 0.64925 0.90114 0.83977 0.0
C592 C 0.64855 0.52535 0.8475 0.0
C593 C 0.66117 0.53655 0.83248 0.0
H594 H 0.64686 0.52584 0.8752 0.0
C595 C 0.68403 0.55578 0.8343 0.0
H596 H 0.63102 0.51034 0.84658 0.0
C597 C 0.69306 0.56475 0.85074 0.0
C598 C 0.67954 0.55457 0.86574 0.0
H599 H 0.69431 0.56475 0.82302 0.0
H600 H 0.7101 0.58032 0.85165 0.0
C601 C 0.65767 0.53421 0.86394 0.0
C602 C 0.65847 0.43566 0.0855 0.0
C603 C 0.67937 0.41438 0.08391 0.0
H604 H 0.63263 0.4605 0.10258 0.0
C605 C 0.69208 0.40345 0.09905 0.0
H606 H 0.6483 0.44463 0.07412 0.0
C607 C 0.68314 0.41262 0.1154 0.0
C608 C 0.66121 0.43284 0.11699 0.0
H609 H 0.70837 0.38715 0.09832 0.0
H610 H 0.69276 0.40308 0.12679 0.0
C611 C 0.64945 0.44475 0.10185 0.0
C612 C 0.77722 0.3986 0.35233 0.0
C613 C 0.78847 0.41109 0.36749 0.0
H614 H 0.77748 0.39723 0.32461 0.0
C615 C 0.80766 0.43402 0.36593 0.0
H616 H 0.76225 0.38101 0.35304 0.0
C617 C 0.81648 0.44326 0.3496 0.0
C618 C 0.80621 0.4299 0.33445 0.0
H619 H 0.81667 0.4442 0.37733 0.0
H620 H 0.832 0.46036 0.34888 0.0
C621 C 0.78592 0.40794 0.336 0.0
C622 C 0.78276 0.57678 0.59856 0.0
C623 C 0.79387 0.56387 0.58358 0.0
H624 H 0.78273 0.57847 0.62628 0.0
C625 C 0.81252 0.5406 0.58545 0.0
H626 H 0.7682 0.59464 0.5976 0.0
C627 C 0.82095 0.53141 0.60193 0.0
C628 C 0.8108 0.54514 0.6169 0.0
H629 H 0.82142 0.5301 0.5742 0.0
H630 H 0.83607 0.51402 0.60289 0.0
C631 C 0.79105 0.56747 0.61503 0.0
C632 C 0.31491 0.39923 0.09142 0.0
C633 C 0.29103 0.41164 0.0834 0.0
H634 H 0.34218 0.39784 0.11361 0.0
C635 C 0.27604 0.43308 0.09231 0.0
H636 H 0.327 0.38269 0.08495 0.0
C637 C 0.28463 0.44162 0.109 0.0
C638 C 0.30859 0.42914 0.11696 0.0
H639 H 0.25746 0.44295 0.08652 0.0
H640 H 0.27266 0.45811 0.11559 0.0
C641 C 0.32364 0.40795 0.10791 0.0
C642 C 0.30979 0.57392 0.85704 0.0
C643 C 0.28921 0.55849 0.86632 0.0
H644 H 0.33459 0.57725 0.83404 0.0
C645 C 0.27733 0.53381 0.85872 0.0
H646 H 0.31943 0.59302 0.86247 0.0
C647 C 0.28587 0.52487 0.84217 0.0
C648 C 0.30673 0.54024 0.83304 0.0
H649 H 0.26132 0.52153 0.86549 0.0
H650 H 0.27648 0.50573 0.83665 0.0
C651 C 0.31852 0.56485 0.8407 0.0
C652 C 0.18203 0.52527 0.60874 0.0
C653 C 0.16144 0.54076 0.61802 0.0
H654 H 0.20616 0.5217 0.58526 0.0
C655 C 0.14971 0.56537 0.61047 0.0
H656 H 0.19137 0.50612 0.61418 0.0
C657 C 0.15823 0.57431 0.59407 0.0
C658 C 0.17852 0.55874 0.58465 0.0
H659 H 0.13385 0.57787 0.61723 0.0
H660 H 0.14864 0.59341 0.58873 0.0
C661 C 0.19036 0.53408 0.59215 0.0
C662 C 0.15232 0.39741 0.35852 0.0
C663 C 0.1756 0.41059 0.36684 0.0
H664 H 0.12541 0.39553 0.33617 0.0
C665 C 0.18995 0.43281 0.35828 0.0
H666 H 0.14073 0.38025 0.36472 0.0
C667 C 0.1813 0.44143 0.34166 0.0
C668 C 0.15789 0.42823 0.33342 0.0
H669 H 0.20807 0.44329 0.36431 0.0
H670 H 0.19273 0.45858 0.33535 0.0
C671 C 0.14351 0.4062 0.3421 0.0
C672 C 0.00189 0.05813 0.27136 0.0
C673 C 0.01555 0.0318 0.274 0.0
H674 H 0.96236 0.08059 0.2696 0.0
C675 C -0.00115 0.00691 0.27507 0.0
H676 H 0.0141 0.07771 0.27034 0.0
C677 C 0.96909 0.00857 0.27464 0.0
C678 C 0.95543 0.03515 0.27313 0.0
H679 H 0.00868 -0.01376 0.27699 0.0
H680 H 0.95684 -0.01087 0.27625 0.0
C681 C 0.97217 0.05979 0.27093 0.0
C682 C 0.15881 0.75395 0.52073 0.0
C683 C 0.18536 0.7672 0.52347 0.0
H684 H 0.13559 0.71469 0.51895 0.0
C685 C 0.20984 0.75003 0.52469 0.0
H686 H 0.13955 0.76652 0.51959 0.0
C687 C 0.20756 0.72024 0.52431 0.0
C688 C 0.18076 0.70699 0.52273 0.0
H689 H 0.23065 0.75954 0.52669 0.0
H690 H 0.22668 0.70764 0.52604 0.0
C691 C 0.15654 0.72418 0.52036 0.0
C692 C 0.46512 0.91024 0.76894 0.0
C693 C 0.45282 0.93698 0.77245 0.0
H694 H 0.50349 0.88614 0.76616 0.0
C695 C 0.4707 0.96099 0.77399 0.0
H696 H 0.45198 0.89133 0.76753 0.0
C697 C 0.50031 0.95801 0.7732 0.0
C698 C 0.51266 0.93095 0.77084 0.0
H699 H 0.46192 0.98195 0.77658 0.0
H700 H 0.5135 0.97675 0.77519 0.0
C701 C 0.49471 0.90726 0.76815 0.0
C702 C 0.25943 0.22048 0.0244 0.0
C703 C 0.28375 0.20311 0.02315 0.0
H704 H 0.24289 0.26302 0.02548 0.0
C705 C 0.31025 0.21609 0.02006 0.0
H706 H 0.23864 0.21117 0.02666 0.0
C707 C 0.31269 0.24583 0.01939 0.0
C708 C 0.28867 0.26326 0.02179 0.0
H709 H 0.32939 0.20336 0.01889 0.0
H710 H 0.33364 0.25513 0.01772 0.0
C711 C 0.26187 0.25024 0.02372 0.0
C712 C 0.97153 0.96057 0.67669 0.0
C713 C 0.9576 0.93401 0.67769 0.0
H714 H 0.01133 0.98272 0.67483 0.0
C715 C 0.97409 0.90917 0.67958 0.0
H716 H 0.95948 0.98015 0.67534 0.0
C717 C 0.00383 0.91065 0.6793 0.0
C718 C 0.01774 0.937 0.6771 0.0
H719 H 0.96406 0.88839 0.68054 0.0
H720 H 0.01584 0.89096 0.68004 0.0
C721 C 0.00129 0.96204 0.67639 0.0
C722 C 0.31047 0.75422 0.92959 0.0
C723 C 0.28418 0.76777 0.92671 0.0
H724 H 0.33301 0.71469 0.93158 0.0
C725 C 0.25943 0.7509 0.92544 0.0
H726 H 0.32993 0.76655 0.93077 0.0
C727 C 0.2612 0.72109 0.92591 0.0
C728 C 0.28775 0.70751 0.92765 0.0
H729 H 0.2388 0.76065 0.92333 0.0
H730 H 0.24188 0.70871 0.92415 0.0
C731 C 0.31224 0.72443 0.93006 0.0
C732 C 0.46981 0.01097 0.17702 0.0
C733 C 0.45259 0.03541 0.1784 0.0
H734 H 0.51217 -0.00573 0.17577 0.0
C735 C 0.46567 0.06197 0.18153 0.0
H736 H 0.46042 -0.00986 0.17472 0.0
C737 C 0.49535 0.06434 0.18212 0.0
C738 C 0.51261 0.04019 0.17961 0.0
H739 H 0.45305 0.0812 0.18279 0.0
H740 H 0.50472 0.08532 0.18383 0.0
C741 C 0.49951 0.01334 0.17762 0.0
C742 C 0.20635 0.24967 0.42683 0.0
C743 C 0.1794 0.26237 0.42862 0.0
H744 H 0.22998 0.21086 0.42418 0.0
C745 C 0.15554 0.24468 0.43106 0.0
H746 H 0.22521 0.26267 0.42503 0.0
C747 C 0.15827 0.21496 0.43057 0.0
C748 C 0.18493 0.20227 0.42763 0.0
H749 H 0.1345 0.25373 0.43262 0.0
H750 H 0.13926 0.202 0.43177 0.0
C751 C 0.20908 0.21993 0.42633 0.0
C752 C 0.8147 0.22034 0.42909 0.0
C753 C 0.79008 0.20336 0.42755 0.0
H754 H 0.83235 0.26249 0.42911 0.0
C755 C 0.7634 0.21688 0.42655 0.0
H756 H 0.83558 0.21066 0.43002 0.0
C757 C 0.76154 0.2467 0.42602 0.0
C758 C 0.78633 0.26361 0.42649 0.0
H759 H 0.74399 0.20445 0.42544 0.0
H760 H 0.74075 0.2564 0.42453 0.0
C761 C 0.81284 0.25012 0.42857 0.0
C762 C 0.65877 0.71219 0.929 0.0
C763 C 0.68537 0.69922 0.92633 0.0
H764 H 0.63536 0.75122 0.93085 0.0
C765 C 0.70976 0.71663 0.92533 0.0
H766 H 0.63958 0.69944 0.92996 0.0
C767 C 0.70733 0.74639 0.92585 0.0
C768 C 0.68047 0.75938 0.92737 0.0
H769 H 0.73061 0.70733 0.9234 0.0
H770 H 0.72639 0.75919 0.9243 0.0
C771 C 0.65635 0.74194 0.92951 0.0
C772 C 0.70874 0.25137 0.02498 0.0
C773 C 0.68429 0.26857 0.02372 0.0
H774 H 0.72555 0.20895 0.0263 0.0
C775 C 0.65776 0.25535 0.02087 0.0
H776 H 0.72955 0.26085 0.02705 0.0
C777 C 0.65546 0.22558 0.02045 0.0
C778 C 0.67965 0.20836 0.02285 0.0
H779 H 0.63852 0.26794 0.01971 0.0
H780 H 0.63452 0.21612 0.01896 0.0
C781 C 0.70645 0.22158 0.02454 0.0
C782 C 0.72568 0.76108 0.52967 0.0
C783 C 0.75175 0.7742 0.5256 0.0
H784 H 0.70343 0.72201 0.53445 0.0
C785 C 0.77515 0.75684 0.5214 0.0
H786 H 0.70716 0.77378 0.53284 0.0
C787 C 0.77301 0.72707 0.52233 0.0
C788 C 0.74742 0.71403 0.52748 0.0
H789 H 0.79551 0.76623 0.5181 0.0
H790 H 0.79177 0.71437 0.51973 0.0
C791 C 0.72354 0.73134 0.53059 0.0
C792 C 0.50127 0.56137 0.77024 0.0
C793 C 0.51445 0.53472 0.77263 0.0
H794 H 0.46215 0.58459 0.76871 0.0
C795 C 0.49729 0.51012 0.77351 0.0
H796 H 0.51383 0.58073 0.76937 0.0
C797 C 0.46758 0.51233 0.77314 0.0
C798 C 0.4544 0.5392 0.77186 0.0
H799 H 0.50676 0.48923 0.77524 0.0
H800 H 0.45497 0.49309 0.77458 0.0
C801 C 0.47158 0.56358 0.76986 0.0
C802 C -0.00809 0.40786 0.26954 0.0
C803 C 0.00941 0.43194 0.27203 0.0
H804 H 0.94949 0.39111 0.26899 0.0
C805 C -0.00347 0.45883 0.27408 0.0
H806 H 0.0011 0.38685 0.26778 0.0
C807 C 0.96687 0.46128 0.27478 0.0
C808 C 0.94945 0.43689 0.27344 0.0
H809 H 0.00937 0.47786 0.27591 0.0
H810 H 0.95768 0.48212 0.27713 0.0
C811 C 0.96227 0.4103 0.27024 0.0
C812 C 0.46964 0.45923 0.17715 0.0
C813 C 0.45655 0.43235 0.17888 0.0
H814 H 0.50869 0.48245 0.17449 0.0
C815 C 0.47385 0.40816 0.18118 0.0
H816 H 0.45696 0.47833 0.17547 0.0
C817 C 0.50352 0.41052 0.18063 0.0
C818 C 0.51656 0.43713 0.17774 0.0
H819 H 0.46449 0.38715 0.18269 0.0
H820 H 0.51615 0.39127 0.18172 0.0
C821 C 0.49933 0.46159 0.17659 0.0
C822 C 0.9712 0.51169 0.67695 0.0
C823 C 0.95436 0.53638 0.67839 0.0
H824 H 0.01329 0.49432 0.67569 0.0
C825 C 0.96786 0.56271 0.68162 0.0
H826 H 0.96149 0.49103 0.67458 0.0
C827 C -0.00243 0.56459 0.68226 0.0
C828 C 0.01446 0.5402 0.67968 0.0
H829 H 0.95554 0.58212 0.68294 0.0
H830 H 0.00727 0.58541 0.68404 0.0
C831 C 0.00093 0.51357 0.6776 0.0
loop_
_geom_bond_atom_site_label_1
_geom_bond_atom_site_label_2
_geom_bond_distance
_geom_bond_site_symmetry_2
_ccdc_geom_bond_type
O0 Cd1 2.300 . S
O0 C7 1.275 . S
Cd1 O0 2.300 . S
Cd1 O9 2.381 . S
Cd1 O10 2.378 . S
O2 Cd3 2.385 . S
O2 C7 1.255 . S
Cd3 O2 2.385 . S
Cd3 O4 2.317 . S
O4 Cd3 2.317 . S
O4 C5 1.232 . S
C5 O4 1.232 . S
C5 O6 1.218 . S
O6 C5 1.218 . S
C7 O0 1.275 . S
C7 O2 1.255 . S
C8 O9 1.258 . S
C8 O10 1.256 . S
O9 Cd1 2.381 . S
O9 C8 1.258 . S
O10 Cd1 2.378 . S
O10 C8 1.256 . S
O11 Cd12 2.300 . S
O11 C18 1.275 . S
Cd12 O11 2.300 . S
Cd12 O20 2.381 . S
Cd12 O21 2.378 . S
O13 Cd14 2.385 . S
O13 C18 1.255 . S
Cd14 O13 2.385 . S
Cd14 O15 2.317 . S
O15 Cd14 2.317 . S
O15 C16 1.232 . S
C16 O15 1.232 . S
C16 O17 1.218 . S
O17 C16 1.218 . S
C18 O11 1.275 . S
C18 O13 1.255 . S
C19 O20 1.258 . S
C19 O21 1.256 . S
O20 Cd12 2.381 . S
O20 C19 1.258 . S
O21 Cd12 2.378 . S
O21 C19 1.256 . S
O22 Cd23 2.300 . S
O22 C29 1.275 . S
Cd23 O22 2.300 . S
Cd23 O31 2.381 . S
Cd23 O32 2.378 . S
O24 Cd25 2.385 . S
O24 C29 1.255 . S
Cd25 O24 2.385 . S
Cd25 O26 2.317 . S
O26 Cd25 2.317 . S
O26 C27 1.232 . S
C27 O26 1.232 . S
C27 O28 1.218 . S
O28 C27 1.218 . S
C29 O22 1.275 . S
C29 O24 1.255 . S
C30 O31 1.258 . S
C30 O32 1.256 . S
O31 Cd23 2.381 . S
O31 C30 1.258 . S
O32 Cd23 2.378 . S
O32 C30 1.256 . S
O33 Cd34 2.300 . S
O33 C40 1.275 . S
Cd34 O33 2.300 . S
Cd34 O42 2.381 . S
Cd34 O43 2.378 . S
O35 Cd36 2.385 . S
O35 C40 1.255 . S
Cd36 O35 2.385 . S
Cd36 O37 2.317 . S
O37 Cd36 2.317 . S
O37 C38 1.232 . S
C38 O37 1.232 . S
C38 O39 1.218 . S
O39 C38 1.218 . S
C40 O33 1.275 . S
C40 O35 1.255 . S
C41 O42 1.258 . S
C41 O43 1.256 . S
O42 Cd34 2.381 . S
O42 C41 1.258 . S
O43 Cd34 2.378 . S
O43 C41 1.256 . S
O44 Cd45 2.300 . S
O44 C51 1.275 . S
Cd45 O44 2.300 . S
Cd45 O53 2.381 . S
Cd45 O54 2.378 . S
O46 Cd47 2.385 . S
O46 C51 1.255 . S
Cd47 O46 2.385 . S
Cd47 O48 2.317 . S
O48 Cd47 2.317 . S
O48 C49 1.232 . S
C49 O48 1.232 . S
C49 O50 1.218 . S
O50 C49 1.218 . S
C51 O44 1.275 . S
C51 O46 1.255 . S
C52 O53 1.258 . S
C52 O54 1.256 . S
O53 Cd45 2.381 . S
O53 C52 1.258 . S
O54 Cd45 2.378 . S
O54 C52 1.256 . S
O55 Cd56 2.300 . S
O55 C62 1.275 . S
Cd56 O55 2.300 . S
Cd56 O64 2.381 . S
Cd56 O65 2.378 . S
O57 Cd58 2.385 . S
O57 C62 1.255 . S
Cd58 O57 2.385 . S
Cd58 O59 2.317 . S
O59 Cd58 2.317 . S
O59 C60 1.232 . S
C60 O59 1.232 . S
C60 O61 1.218 . S
O61 C60 1.218 . S
C62 O55 1.275 . S
C62 O57 1.255 . S
C63 O64 1.258 . S
C63 O65 1.256 . S
O64 Cd56 2.381 . S
O64 C63 1.258 . S
O65 Cd56 2.378 . S
O65 C63 1.256 . S
O66 Cd67 2.300 . S
O66 C73 1.275 . S
Cd67 O66 2.300 . S
Cd67 O75 2.381 . S
Cd67 O76 2.378 . S
O68 Cd69 2.385 . S
O68 C73 1.255 . S
Cd69 O68 2.385 . S
Cd69 O70 2.317 . S
O70 Cd69 2.317 . S
O70 C71 1.232 . S
C71 O70 1.232 . S
C71 O72 1.218 . S
O72 C71 1.218 . S
C73 O66 1.275 . S
C73 O68 1.255 . S
C74 O75 1.258 . S
C74 O76 1.256 . S
O75 Cd67 2.381 . S
O75 C74 1.258 . S
O76 Cd67 2.378 . S
O76 C74 1.256 . S
O77 Cd78 2.300 . S
O77 C84 1.275 . S
Cd78 O77 2.300 . S
Cd78 O86 2.381 . S
Cd78 O87 2.378 . S
O79 Cd80 2.385 . S
O79 C84 1.255 . S
Cd80 O79 2.385 . S
Cd80 O81 2.317 . S
O81 Cd80 2.317 . S
O81 C82 1.232 . S
C82 O81 1.232 . S
C82 O83 1.218 . S
O83 C82 1.218 . S
C84 O77 1.275 . S
C84 O79 1.255 . S
C85 O86 1.258 . S
C85 O87 1.256 . S
O86 Cd78 2.381 . S
O86 C85 1.258 . S
O87 Cd78 2.378 . S
O87 C85 1.256 . S
O88 Cd89 2.300 . S
O88 C95 1.275 . S
Cd89 O88 2.300 . S
Cd89 O97 2.381 . S
Cd89 O98 2.378 . S
O90 Cd91 2.385 . S
O90 C95 1.255 . S
Cd91 O90 2.385 . S
Cd91 O92 2.317 . S
O92 Cd91 2.317 . S
O92 C93 1.232 . S
C93 O92 1.232 . S
C93 O94 1.218 . S
O94 C93 1.218 . S
C95 O88 1.275 . S
C95 O90 1.255 . S
C96 O97 1.258 . S
C96 O98 1.256 . S
O97 Cd89 2.381 . S
O97 C96 1.258 . S
O98 Cd89 2.378 . S
O98 C96 1.256 . S
O99 Cd100 2.300 . S
O99 C106 1.275 . S
Cd100 O99 2.300 . S
Cd100 O108 2.381 . S
Cd100 O109 2.378 . S
O101 Cd102 2.385 . S
O101 C106 1.255 . S
Cd102 O101 2.385 . S
Cd102 O103 2.317 . S
O103 Cd102 2.317 . S
O103 C104 1.232 . S
C104 O103 1.232 . S
C104 O105 1.218 . S
O105 C104 1.218 . S
C106 O99 1.275 . S
C106 O101 1.255 . S
C107 O108 1.258 . S
C107 O109 1.256 . S
O108 Cd100 2.381 . S
O108 C107 1.258 . S
O109 Cd100 2.378 . S
O109 C107 1.256 . S
O110 Cd111 2.300 . S
O110 C117 1.275 . S
Cd111 O110 2.300 . S
Cd111 O119 2.381 . S
Cd111 O120 2.378 . S
O112 Cd113 2.385 . S
O112 C117 1.255 . S
Cd113 O112 2.385 . S
Cd113 O114 2.317 . S
O114 Cd113 2.317 . S
O114 C115 1.232 . S
C115 O114 1.232 . S
C115 O116 1.218 . S
O116 C115 1.218 . S
C117 O110 1.275 . S
C117 O112 1.255 . S
C118 O119 1.258 . S
C118 O120 1.256 . S
O119 Cd111 2.381 . S
O119 C118 1.258 . S
O120 Cd111 2.378 . S
O120 C118 1.256 . S
O121 Cd122 2.300 . S
O121 C128 1.275 . S
Cd122 O121 2.300 . S
Cd122 O130 2.381 . S
Cd122 O131 2.378 . S
O123 Cd124 2.385 . S
O123 C128 1.255 . S
Cd124 O123 2.385 . S
Cd124 O125 2.317 . S
O125 Cd124 2.317 . S
O125 C126 1.232 . S
C126 O125 1.232 . S
C126 O127 1.218 . S
O127 C126 1.218 . S
C128 O121 1.275 . S
C128 O123 1.255 . S
C129 O130 1.258 . S
C129 O131 1.256 . S
O130 Cd122 2.381 . S
O130 C129 1.258 . S
O131 Cd122 2.378 . S
O131 C129 1.256 . S
O132 Cd133 2.300 . S
O132 C139 1.275 . S
Cd133 O132 2.300 . S
Cd133 O141 2.381 . S
Cd133 O142 2.378 . S
O134 Cd135 2.385 . S
O134 C139 1.255 . S
Cd135 O134 2.385 . S
Cd135 O136 2.317 . S
O136 Cd135 2.317 . S
O136 C137 1.232 . S
C137 O136 1.232 . S
C137 O138 1.218 . S
O138 C137 1.218 . S
C139 O132 1.275 . S
C139 O134 1.255 . S
C140 O141 1.258 . S
C140 O142 1.256 . S
O141 Cd133 2.381 . S
O141 C140 1.258 . S
O142 Cd133 2.378 . S
O142 C140 1.256 . S
O143 Cd144 2.300 . S
O143 C150 1.275 . S
Cd144 O143 2.300 . S
Cd144 O152 2.381 . S
Cd144 O153 2.378 . S
O145 Cd146 2.385 . S
O145 C150 1.255 . S
Cd146 O145 2.385 . S
Cd146 O147 2.317 . S
O147 Cd146 2.317 . S
O147 C148 1.232 . S
C148 O147 1.232 . S
C148 O149 1.218 . S
O149 C148 1.218 . S
C150 O143 1.275 . S
C150 O145 1.255 . S
C151 O152 1.258 . S
C151 O153 1.256 . S
O152 Cd144 2.381 . S
O152 C151 1.258 . S
O153 Cd144 2.378 . S
O153 C151 1.256 . S
O154 Cd155 2.300 . S
O154 C161 1.275 . S
Cd155 O154 2.300 . S
Cd155 O163 2.381 . S
Cd155 O164 2.378 . S
O156 Cd157 2.385 . S
O156 C161 1.255 . S
Cd157 O156 2.385 . S
Cd157 O158 2.317 . S
O158 Cd157 2.317 . S
O158 C159 1.232 . S
C159 O158 1.232 . S
C159 O160 1.218 . S
O160 C159 1.218 . S
C161 O154 1.275 . S
C161 O156 1.255 . S
C162 O163 1.258 . S
C162 O164 1.256 . S
O163 Cd155 2.381 . S
O163 C162 1.258 . S
O164 Cd155 2.378 . S
O164 C162 1.256 . S
O165 Cd166 2.300 . S
O165 C172 1.275 . S
Cd166 O165 2.300 . S
Cd166 O174 2.381 . S
Cd166 O175 2.378 . S
O167 Cd168 2.385 . S
O167 C172 1.255 . S
Cd168 O167 2.385 . S
Cd168 O169 2.317 . S
O169 Cd168 2.317 . S
O169 C170 1.232 . S
C170 O169 1.232 . S
C170 O171 1.218 . S
O171 C170 1.218 . S
C172 O165 1.275 . S
C172 O167 1.255 . S
C173 O174 1.258 . S
C173 O175 1.256 . S
O174 Cd166 2.381 . S
O174 C173 1.258 . S
O175 Cd166 2.378 . S
O175 C173 1.256 . S
O176 Cd177 2.300 . S
O176 C183 1.275 . S
Cd177 O176 2.300 . S
Cd177 O185 2.381 . S
Cd177 O186 2.378 . S
O178 Cd179 2.385 . S
O178 C183 1.255 . S
Cd179 O178 2.385 . S
Cd179 O180 2.317 . S
O180 Cd179 2.317 . S
O180 C181 1.232 . S
C181 O180 1.232 . S
C181 O182 1.218 . S
O182 C181 1.218 . S
C183 O176 1.275 . S
C183 O178 1.255 . S
C184 O185 1.258 . S
C184 O186 1.256 . S
O185 Cd177 2.381 . S
O185 C184 1.258 . S
O186 Cd177 2.378 . S
O186 C184 1.256 . S
O187 Cd188 2.300 . S
O187 C194 1.275 . S
Cd188 O187 2.300 . S
Cd188 O196 2.381 . S
Cd188 O197 2.378 . S
O189 Cd190 2.385 . S
O189 C194 1.255 . S
Cd190 O189 2.385 . S
Cd190 O191 2.317 . S
O191 Cd190 2.317 . S
O191 C192 1.232 . S
C192 O191 1.232 . S
C192 O193 1.218 . S
O193 C192 1.218 . S
C194 O187 1.275 . S
C194 O189 1.255 . S
C195 O196 1.258 . S
C195 O197 1.256 . S
O196 Cd188 2.381 . S
O196 C195 1.258 . S
O197 Cd188 2.378 . S
O197 C195 1.256 . S
O198 Cd199 2.300 . S
O198 C205 1.275 . S
Cd199 O198 2.300 . S
Cd199 O207 2.381 . S
Cd199 O208 2.378 . S
O200 Cd201 2.385 . S
O200 C205 1.255 . S
Cd201 O200 2.385 . S
Cd201 O202 2.317 . S
O202 Cd201 2.317 . S
O202 C203 1.232 . S
C203 O202 1.232 . S
C203 O204 1.218 . S
O204 C203 1.218 . S
C205 O198 1.275 . S
C205 O200 1.255 . S
C206 O207 1.258 . S
C206 O208 1.256 . S
O207 Cd199 2.381 . S
O207 C206 1.258 . S
O208 Cd199 2.378 . S
O208 C206 1.256 . S
O209 Cd210 2.300 . S
O209 C216 1.275 . S
Cd210 O209 2.300 . S
Cd210 O218 2.381 . S
Cd210 O219 2.378 . S
O211 Cd212 2.385 . S
O211 C216 1.255 . S
Cd212 O211 2.385 . S
Cd212 O213 2.317 . S
O213 Cd212 2.317 . S
O213 C214 1.232 . S
C214 O213 1.232 . S
C214 O215 1.218 . S
O215 C214 1.218 . S
C216 O209 1.275 . S
C216 O211 1.255 . S
C217 O218 1.258 . S
C217 O219 1.256 . S
O218 Cd210 2.381 . S
O218 C217 1.258 . S
O219 Cd210 2.378 . S
O219 C217 1.256 . S
O220 Cd221 2.300 . S
O220 C227 1.275 . S
Cd221 O220 2.300 . S
Cd221 O229 2.381 . S
Cd221 O230 2.378 . S
O222 Cd223 2.385 . S
O222 C227 1.255 . S
Cd223 O222 2.385 . S
Cd223 O224 2.317 . S
O224 Cd223 2.317 . S
O224 C225 1.232 . S
C225 O224 1.232 . S
C225 O226 1.218 . S
O226 C225 1.218 . S
C227 O220 1.275 . S
C227 O222 1.255 . S
C228 O229 1.258 . S
C228 O230 1.256 . S
O229 Cd221 2.381 . S
O229 C228 1.258 . S
O230 Cd221 2.378 . S
O230 C228 1.256 . S
O231 Cd232 2.300 . S
O231 C238 1.275 . S
Cd232 O231 2.300 . S
Cd232 O240 2.381 . S
Cd232 O241 2.378 . S
O233 Cd234 2.385 . S
O233 C238 1.255 . S
Cd234 O233 2.385 . S
Cd234 O235 2.317 . S
O235 Cd234 2.317 . S
O235 C236 1.232 . S
C236 O235 1.232 . S
C236 O237 1.218 . S
O237 C236 1.218 . S
C238 O231 1.275 . S
C238 O233 1.255 . S
C239 O240 1.258 . S
C239 O241 1.256 . S
O240 Cd232 2.381 . S
O240 C239 1.258 . S
O241 Cd232 2.378 . S
O241 C239 1.256 . S
O242 Cd243 2.300 . S
O242 C249 1.275 . S
Cd243 O242 2.300 . S
Cd243 O251 2.381 . S
Cd243 O252 2.378 . S
O244 Cd245 2.385 . S
O244 C249 1.255 . S
Cd245 O244 2.385 . S
Cd245 O246 2.317 . S
O246 Cd245 2.317 . S
O246 C247 1.232 . S
C247 O246 1.232 . S
C247 O248 1.218 . S
O248 C247 1.218 . S
C249 O242 1.275 . S
C249 O244 1.255 . S
C250 O251 1.258 . S
C250 O252 1.256 . S
O251 Cd243 2.381 . S
O251 C250 1.258 . S
O252 Cd243 2.378 . S
O252 C250 1.256 . S
O253 Cd254 2.300 . S
O253 C260 1.275 . S
Cd254 O253 2.300 . S
Cd254 O262 2.381 . S
Cd254 O263 2.378 . S
O255 Cd256 2.385 . S
O255 C260 1.255 . S
Cd256 O255 2.385 . S
Cd256 O257 2.317 . S
O257 Cd256 2.317 . S
O257 C258 1.232 . S
C258 O257 1.232 . S
C258 O259 1.218 . S
O259 C258 1.218 . S
C260 O253 1.275 . S
C260 O255 1.255 . S
C261 O262 1.258 . S
C261 O263 1.256 . S
O262 Cd254 2.381 . S
O262 C261 1.258 . S
O263 Cd254 2.378 . S
O263 C261 1.256 . S
O264 Cd265 2.300 . S
O264 C271 1.275 . S
Cd265 O264 2.300 . S
Cd265 O273 2.381 . S
Cd265 O274 2.378 . S
O266 Cd267 2.385 . S
O266 C271 1.255 . S
Cd267 O266 2.385 . S
Cd267 O268 2.317 . S
O268 Cd267 2.317 . S
O268 C269 1.232 . S
C269 O268 1.232 . S
C269 O270 1.218 . S
O270 C269 1.218 . S
C271 O264 1.275 . S
C271 O266 1.255 . S
C272 O273 1.258 . S
C272 O274 1.256 . S
O273 Cd265 2.381 . S
O273 C272 1.258 . S
O274 Cd265 2.378 . S
O274 C272 1.256 . S
O275 Cd276 2.300 . S
O275 C282 1.275 . S
Cd276 O275 2.300 . S
Cd276 O284 2.381 . S
Cd276 O285 2.378 . S
O277 Cd278 2.385 . S
O277 C282 1.255 . S
Cd278 O277 2.385 . S
Cd278 O279 2.317 . S
O279 Cd278 2.317 . S
O279 C280 1.232 . S
C280 O279 1.232 . S
C280 O281 1.218 . S
O281 C280 1.218 . S
C282 O275 1.275 . S
C282 O277 1.255 . S
C283 O284 1.258 . S
C283 O285 1.256 . S
O284 Cd276 2.381 . S
O284 C283 1.258 . S
O285 Cd276 2.378 . S
O285 C283 1.256 . S
O286 Cd287 2.300 . S
O286 C293 1.275 . S
Cd287 O286 2.300 . S
Cd287 O295 2.381 . S
Cd287 O296 2.378 . S
O288 Cd289 2.385 . S
O288 C293 1.255 . S
Cd289 O288 2.385 . S
Cd289 O290 2.317 . S
O290 Cd289 2.317 . S
O290 C291 1.232 . S
C291 O290 1.232 . S
C291 O292 1.218 . S
O292 C291 1.218 . S
C293 O286 1.275 . S
C293 O288 1.255 . S
C294 O295 1.258 . S
C294 O296 1.256 . S
O295 Cd287 2.381 . S
O295 C294 1.258 . S
O296 Cd287 2.378 . S
O296 C294 1.256 . S
O297 Cd298 2.300 . S
O297 C304 1.275 . S
Cd298 O297 2.300 . S
Cd298 O306 2.381 . S
Cd298 O307 2.378 . S
O299 Cd300 2.385 . S
O299 C304 1.255 . S
Cd300 O299 2.385 . S
Cd300 O301 2.317 . S
O301 Cd300 2.317 . S
O301 C302 1.232 . S
C302 O301 1.232 . S
C302 O303 1.218 . S
O303 C302 1.218 . S
C304 O297 1.275 . S
C304 O299 1.255 . S
C305 O306 1.258 . S
C305 O307 1.256 . S
O306 Cd298 2.381 . S
O306 C305 1.258 . S
O307 Cd298 2.378 . S
O307 C305 1.256 . S
O308 Cd309 2.300 . S
O308 C315 1.275 . S
Cd309 O308 2.300 . S
Cd309 O317 2.381 . S
Cd309 O318 2.378 . S
O310 Cd311 2.385 . S
O310 C315 1.255 . S
Cd311 O310 2.385 . S
Cd311 O312 2.317 . S
O312 Cd311 2.317 . S
O312 C313 1.232 . S
C313 O312 1.232 . S
C313 O314 1.218 . S
O314 C313 1.218 . S
C315 O308 1.275 . S
C315 O310 1.255 . S
C316 O317 1.258 . S
C316 O318 1.256 . S
O317 Cd309 2.381 . S
O317 C316 1.258 . S
O318 Cd309 2.378 . S
O318 C316 1.256 . S
O319 Cd320 2.300 . S
O319 C326 1.275 . S
Cd320 O319 2.300 . S
Cd320 O328 2.381 . S
Cd320 O329 2.378 . S
O321 Cd322 2.385 . S
O321 C326 1.255 . S
Cd322 O321 2.385 . S
Cd322 O323 2.317 . S
O323 Cd322 2.317 . S
O323 C324 1.232 . S
C324 O323 1.232 . S
C324 O325 1.218 . S
O325 C324 1.218 . S
C326 O319 1.275 . S
C326 O321 1.255 . S
C327 O328 1.258 . S
C327 O329 1.256 . S
O328 Cd320 2.381 . S
O328 C327 1.258 . S
O329 Cd320 2.378 . S
O329 C327 1.256 . S
O330 Cd331 2.300 . S
O330 C337 1.275 . S
Cd331 O330 2.300 . S
Cd331 O339 2.381 . S
Cd331 O340 2.378 . S
O332 Cd333 2.385 . S
O332 C337 1.255 . S
Cd333 O332 2.385 . S
Cd333 O334 2.317 . S
O334 Cd333 2.317 . S
O334 C335 1.232 . S
C335 O334 1.232 . S
C335 O336 1.218 . S
O336 C335 1.218 . S
C337 O330 1.275 . S
C337 O332 1.255 . S
C338 O339 1.258 . S
C338 O340 1.256 . S
O339 Cd331 2.381 . S
O339 C338 1.258 . S
O340 Cd331 2.378 . S
O340 C338 1.256 . S
O341 Cd342 2.300 . S
O341 C348 1.275 . S
Cd342 O341 2.300 . S
Cd342 O350 2.381 . S
Cd342 O351 2.378 . S
O343 Cd344 2.385 . S
O343 C348 1.255 . S
Cd344 O343 2.385 . S
Cd344 O345 2.317 . S
O345 Cd344 2.317 . S
O345 C346 1.232 . S
C346 O345 1.232 . S
C346 O347 1.218 . S
O347 C346 1.218 . S
C348 O341 1.275 . S
C348 O343 1.255 . S
C349 O350 1.258 . S
C349 O351 1.256 . S
O350 Cd342 2.381 . S
O350 C349 1.258 . S
O351 Cd342 2.378 . S
O351 C349 1.256 . S
C352 C353 1.387 . S
C352 H356 0.950 . S
C352 C361 1.390 . S
C353 C352 1.387 . S
C353 C355 1.387 . S
H354 C361 0.950 . S
C355 C353 1.387 . S
C355 C357 1.390 . S
C355 H359 0.950 . S
H356 C352 0.950 . S
C357 C355 1.390 . S
C357 C358 1.387 . S
C357 H360 0.950 . S
C358 C357 1.387 . S
C358 C361 1.387 . S
H359 C355 0.950 . S
H360 C357 0.950 . S
C361 C352 1.390 . S
C361 H354 0.950 . S
C361 C358 1.387 . S
C362 C363 1.387 . S
C362 H366 0.950 . S
C362 C371 1.390 1_545 S
C363 C362 1.387 . S
C363 C365 1.387 . S
H364 C371 0.950 . S
C365 C363 1.387 . S
C365 C367 1.390 1_545 S
C365 H369 0.950 . S
H366 C362 0.950 . S
C367 C365 1.390 1_565 S
C367 C368 1.387 . S
C367 H370 0.950 . S
C368 C367 1.387 . S
C368 C371 1.387 . S
H369 C365 0.950 . S
H370 C367 0.950 . S
C371 C362 1.390 1_565 S
C371 H364 0.950 . S
C371 C368 1.387 . S
C372 C373 1.387 . S
C372 H376 0.950 . S
C372 C381 1.390 . S
C373 C372 1.387 . S
C373 C375 1.387 . S
H374 C381 0.950 . S
C375 C373 1.387 . S
C375 C377 1.390 . S
C375 H379 0.950 . S
H376 C372 0.950 . S
C377 C375 1.390 . S
C377 C378 1.387 . S
C377 H380 0.950 . S
C378 C377 1.387 . S
C378 C381 1.387 . S
H379 C375 0.950 . S
H380 C377 0.950 . S
C381 C372 1.390 . S
C381 H374 0.950 . S
C381 C378 1.387 . S
C382 C383 1.387 . S
C382 H386 0.950 . S
C382 C391 1.390 1_544 S
C383 C382 1.387 . S
C383 C385 1.387 . S
H384 C391 0.950 . S
C385 C383 1.387 . S
C385 C387 1.390 1_544 S
C385 H389 0.950 . S
H386 C382 0.950 . S
C387 C385 1.390 1_566 S
C387 C388 1.387 . S
C387 H390 0.950 . S
C388 C387 1.387 . S
C388 C391 1.387 . S
H389 C385 0.950 . S
H390 C387 0.950 . S
C391 C382 1.390 1_566 S
C391 H384 0.950 . S
C391 C388 1.387 . S
C392 C393 1.387 . S
C392 H396 0.950 . S
C392 C401 1.390 . S
C393 C392 1.387 . S
C393 C395 1.387 . S
H394 C401 0.950 . S
C395 C393 1.387 . S
C395 C397 1.390 . S
C395 H399 0.950 . S
H396 C392 0.950 . S
C397 C395 1.390 . S
C397 C398 1.387 . S
C397 H400 0.950 . S
C398 C397 1.387 . S
C398 C401 1.387 . S
H399 C395 0.950 . S
H400 C397 0.950 . S
C401 C392 1.390 . S
C401 H394 0.950 . S
C401 C398 1.387 . S
C402 C403 1.387 . S
C402 H406 0.950 . S
C402 C411 1.390 1_565 S
C403 C402 1.387 . S
C403 C405 1.387 . S
H404 C411 0.950 . S
C405 C403 1.387 . S
C405 C407 1.390 1_565 S
C405 H409 0.950 . S
H406 C402 0.950 . S
C407 C405 1.390 1_545 S
C407 C408 1.387 . S
C407 H410 0.950 . S
C408 C407 1.387 . S
C408 C411 1.387 . S
H409 C405 0.950 . S
H410 C407 0.950 . S
C411 C402 1.390 1_545 S
C411 H404 0.950 . S
C411 C408 1.387 . S
C412 C413 1.387 . S
C412 H416 0.950 . S
C412 C421 1.390 . S
C413 C412 1.387 . S
C413 C415 1.387 . S
H414 C421 0.950 . S
C415 C413 1.387 . S
C415 C417 1.390 . S
C415 H419 0.950 . S
H416 C412 0.950 . S
C417 C415 1.390 . S
C417 C418 1.387 . S
C417 H420 0.950 . S
C418 C417 1.387 . S
C418 C421 1.387 . S
H419 C415 0.950 . S
H420 C417 0.950 . S
C421 C412 1.390 . S
C421 H414 0.950 . S
C421 C418 1.387 . S
C422 C423 1.387 . S
C422 H426 0.950 . S
C422 C431 1.390 1_544 S
C423 C422 1.387 . S
C423 C425 1.387 . S
H424 C431 0.950 . S
C425 C423 1.387 . S
C425 C427 1.390 1_544 S
C425 H429 0.950 . S
H426 C422 0.950 . S
C427 C425 1.390 1_566 S
C427 C428 1.387 . S
C427 H430 0.950 . S
C428 C427 1.387 . S
C428 C431 1.387 . S
H429 C425 0.950 . S
H430 C427 0.950 . S
C431 C422 1.390 1_566 S
C431 H424 0.950 . S
C431 C428 1.387 . S
C432 C433 1.387 . S
C432 H436 0.950 . S
C432 C441 1.390 . S
C433 C432 1.387 . S
C433 C435 1.387 . S
H434 C441 0.950 . S
C435 C433 1.387 . S
C435 C437 1.390 . S
C435 H439 0.950 . S
H436 C432 0.950 . S
C437 C435 1.390 . S
C437 C438 1.387 . S
C437 H440 0.950 . S
C438 C437 1.387 . S
C438 C441 1.387 . S
H439 C435 0.950 . S
H440 C437 0.950 . S
C441 C432 1.390 . S
C441 H434 0.950 . S
C441 C438 1.387 . S
C442 C443 1.387 . S
C442 H446 0.950 . S
C442 C451 1.390 1_556 S
C443 C442 1.387 . S
C443 C445 1.387 . S
H444 C451 0.950 . S
C445 C443 1.387 . S
C445 C447 1.390 1_556 S
C445 H449 0.950 . S
H446 C442 0.950 . S
C447 C445 1.390 1_554 S
C447 C448 1.387 . S
C447 H450 0.950 . S
C448 C447 1.387 . S
C448 C451 1.387 . S
H449 C445 0.950 . S
H450 C447 0.950 . S
C451 C442 1.390 1_554 S
C451 H444 0.950 . S
C451 C448 1.387 . S
C452 C453 1.387 . S
C452 H456 0.950 . S
C452 C461 1.390 . S
C453 C452 1.387 . S
C453 C455 1.387 . S
H454 C461 0.950 . S
C455 C453 1.387 . S
C455 C457 1.390 . S
C455 H459 0.950 . S
H456 C452 0.950 . S
C457 C455 1.390 . S
C457 C458 1.387 . S
C457 H460 0.950 . S
C458 C457 1.387 . S
C458 C461 1.387 . S
H459 C455 0.950 . S
H460 C457 0.950 . S
C461 C452 1.390 . S
C461 H454 0.950 . S
C461 C458 1.387 . S
C462 C463 1.387 . S
C462 H466 0.950 . S
C462 C471 1.390 . S
C463 C462 1.387 . S
C463 C465 1.387 . S
H464 C471 0.950 . S
C465 C463 1.387 . S
C465 C467 1.390 . S
C465 H469 0.950 . S
H466 C462 0.950 . S
C467 C465 1.390 . S
C467 C468 1.387 . S
C467 H470 0.950 . S
C468 C467 1.387 . S
C468 C471 1.387 . S
H469 C465 0.950 . S
H470 C467 0.950 . S
C471 C462 1.390 . S
C471 H464 0.950 . S
C471 C468 1.387 . S
C472 C473 1.387 . S
C472 H476 0.950 . S
C472 C481 1.390 . S
C473 C472 1.387 . S
C473 C475 1.387 . S
H474 C481 0.950 . S
C475 C473 1.387 . S
C475 C477 1.390 . S
C475 H479 0.950 . S
H476 C472 0.950 . S
C477 C475 1.390 . S
C477 C478 1.387 . S
C477 H480 0.950 . S
C478 C477 1.387 . S
C478 C481 1.387 . S
H479 C475 0.950 . S
H480 C477 0.950 . S
C481 C472 1.390 . S
C481 H474 0.950 . S
C481 C478 1.387 . S
C482 C483 1.387 . S
C482 H486 0.950 . S
C482 C491 1.390 1_556 S
C483 C482 1.387 . S
C483 C485 1.387 . S
H484 C491 0.950 . S
C485 C483 1.387 . S
C485 C487 1.390 1_556 S
C485 H489 0.950 . S
H486 C482 0.950 . S
C487 C485 1.390 1_554 S
C487 C488 1.387 . S
C487 H490 0.950 . S
C488 C487 1.387 . S
C488 C491 1.387 . S
H489 C485 0.950 . S
H490 C487 0.950 . S
C491 C482 1.390 1_554 S
C491 H484 0.950 . S
C491 C488 1.387 . S
C492 C493 1.387 . S
C492 H496 0.950 . S
C492 C501 1.390 . S
C493 C492 1.387 . S
C493 C495 1.387 . S
H494 C501 0.950 . S
C495 C493 1.387 . S
C495 C497 1.390 . S
C495 H499 0.950 . S
H496 C492 0.950 . S
C497 C495 1.390 . S
C497 C498 1.387 . S
C497 H500 0.950 . S
C498 C497 1.387 . S
C498 C501 1.387 . S
H499 C495 0.950 . S
H500 C497 0.950 . S
C501 C492 1.390 . S
C501 H494 0.950 . S
C501 C498 1.387 . S
C502 C503 1.387 . S
C502 H506 0.950 . S
C502 C511 1.390 . S
C503 C502 1.387 . S
C503 C505 1.387 . S
H504 C511 0.950 . S
C505 C503 1.387 . S
C505 C507 1.390 . S
C505 H509 0.950 . S
H506 C502 0.950 . S
C507 C505 1.390 . S
C507 C508 1.387 . S
C507 H510 0.950 . S
C508 C507 1.387 . S
C508 C511 1.387 . S
H509 C505 0.950 . S
H510 C507 0.950 . S
C511 C502 1.390 . S
C511 H504 0.950 . S
C511 C508 1.387 . S
C512 C513 1.387 . S
C512 H516 0.950 . S
C512 C521 1.390 . S
C513 C512 1.387 . S
C513 C515 1.387 . S
H514 C521 0.950 . S
C515 C513 1.387 . S
C515 C517 1.390 . S
C515 H519 0.950 . S
H516 C512 0.950 . S
C517 C515 1.390 . S
C517 C518 1.387 . S
C517 H520 0.950 . S
C518 C517 1.387 . S
C518 C521 1.387 . S
H519 C515 0.950 . S
H520 C517 0.950 . S
C521 C512 1.390 . S
C521 H514 0.950 . S
C521 C518 1.387 . S
C522 C523 1.387 . S
C522 H526 0.950 . S
C522 C531 1.390 . S
C523 C522 1.387 . S
C523 C525 1.387 . S
H524 C531 0.950 . S
C525 C523 1.387 . S
C525 C527 1.390 . S
C525 H529 0.950 . S
H526 C522 0.950 . S
C527 C525 1.390 . S
C527 C528 1.387 . S
C527 H530 0.950 . S
C528 C527 1.387 . S
C528 C531 1.387 . S
H529 C525 0.950 . S
H530 C527 0.950 . S
C531 C522 1.390 . S
C531 H524 0.950 . S
C531 C528 1.387 . S
C532 C533 1.387 . S
C532 H536 0.950 . S
C532 C541 1.390 . S
C533 C532 1.387 . S
C533 C535 1.387 . S
H534 C541 0.950 . S
C535 C533 1.387 . S
C535 C537 1.390 . S
C535 H539 0.950 . S
H536 C532 0.950 . S
C537 C535 1.390 . S
C537 C538 1.387 . S
C537 H540 0.950 . S
C538 C537 1.387 . S
C538 C541 1.387 . S
H539 C535 0.950 . S
H540 C537 0.950 . S
C541 C532 1.390 . S
C541 H534 0.950 . S
C541 C538 1.387 . S
C542 C543 1.387 . S
C542 H546 0.950 . S
C542 C551 1.390 . S
C543 C542 1.387 . S
C543 C545 1.387 . S
H544 C551 0.950 . S
C545 C543 1.387 . S
C545 C547 1.390 . S
C545 H549 0.950 . S
H546 C542 0.950 . S
C547 C545 1.390 . S
C547 C548 1.387 . S
C547 H550 0.950 . S
C548 C547 1.387 . S
C548 C551 1.387 . S
H549 C545 0.950 . S
H550 C547 0.950 . S
C551 C542 1.390 . S
C551 H544 0.950 . S
C551 C548 1.387 . S
C552 C553 1.387 . S
C552 H556 0.950 . S
C552 C561 1.390 . S
C553 C552 1.387 . S
C553 C555 1.387 . S
H554 C561 0.950 . S
C555 C553 1.387 . S
C555 C557 1.390 . S
C555 H559 0.950 . S
H556 C552 0.950 . S
C557 C555 1.390 . S
C557 C558 1.387 . S
C557 H560 0.950 . S
C558 C557 1.387 . S
C558 C561 1.387 . S
H559 C555 0.950 . S
H560 C557 0.950 . S
C561 C552 1.390 . S
C561 H554 0.950 . S
C561 C558 1.387 . S
C562 C563 1.387 . S
C562 H566 0.950 . S
C562 C571 1.390 . S
C563 C562 1.387 . S
C563 C565 1.387 . S
H564 C571 0.950 . S
C565 C563 1.387 . S
C565 C567 1.390 . S
C565 H569 0.950 . S
H566 C562 0.950 . S
C567 C565 1.390 . S
C567 C568 1.387 . S
C567 H570 0.950 . S
C568 C567 1.387 . S
C568 C571 1.387 . S
H569 C565 0.950 . S
H570 C567 0.950 . S
C571 C562 1.390 . S
C571 H564 0.950 . S
C571 C568 1.387 . S
C572 C573 1.387 . S
C572 H576 0.950 . S
C572 C581 1.390 . S
C573 C572 1.387 . S
C573 C575 1.387 . S
H574 C581 0.950 . S
C575 C573 1.387 . S
C575 C577 1.390 . S
C575 H579 0.950 . S
H576 C572 0.950 . S
C577 C575 1.390 . S
C577 C578 1.387 . S
C577 H580 0.950 . S
C578 C577 1.387 . S
C578 C581 1.387 . S
H579 C575 0.950 . S
H580 C577 0.950 . S
C581 C572 1.390 . S
C581 H574 0.950 . S
C581 C578 1.387 . S
C582 C583 1.387 . S
C582 H586 0.950 . S
C582 C591 1.390 . S
C583 C582 1.387 . S
C583 C585 1.387 . S
H584 C591 0.950 . S
C585 C583 1.387 . S
C585 C587 1.390 . S
C585 H589 0.950 . S
H586 C582 0.950 . S
C587 C585 1.390 . S
C587 C588 1.387 . S
C587 H590 0.950 . S
C588 C587 1.387 . S
C588 C591 1.387 . S
H589 C585 0.950 . S
H590 C587 0.950 . S
C591 C582 1.390 . S
C591 H584 0.950 . S
C591 C588 1.387 . S
C592 C593 1.387 . S
C592 H596 0.950 . S
C592 C601 1.390 . S
C593 C592 1.387 . S
C593 C595 1.387 . S
H594 C601 0.950 . S
C595 C593 1.387 . S
C595 C597 1.390 . S
C595 H599 0.950 . S
H596 C592 0.950 . S
C597 C595 1.390 . S
C597 C598 1.387 . S
C597 H600 0.950 . S
C598 C597 1.387 . S
C598 C601 1.387 . S
H599 C595 0.950 . S
H600 C597 0.950 . S
C601 C592 1.390 . S
C601 H594 0.950 . S
C601 C598 1.387 . S
C602 C603 1.387 . S
C602 H606 0.950 . S
C602 C611 1.390 . S
C603 C602 1.387 . S
C603 C605 1.387 . S
H604 C611 0.950 . S
C605 C603 1.387 . S
C605 C607 1.390 . S
C605 H609 0.950 . S
H606 C602 0.950 . S
C607 C605 1.390 . S
C607 C608 1.387 . S
C607 H610 0.950 . S
C608 C607 1.387 . S
C608 C611 1.387 . S
H609 C605 0.950 . S
H610 C607 0.950 . S
C611 C602 1.390 . S
C611 H604 0.950 . S
C611 C608 1.387 . S
C612 C613 1.387 . S
C612 H616 0.950 . S
C612 C621 1.390 . S
C613 C612 1.387 . S
C613 C615 1.387 . S
H614 C621 0.950 . S
C615 C613 1.387 . S
C615 C617 1.390 . S
C615 H619 0.950 . S
H616 C612 0.950 . S
C617 C615 1.390 . S
C617 C618 1.387 . S
C617 H620 0.950 . S
C618 C617 1.387 . S
C618 C621 1.387 . S
H619 C615 0.950 . S
H620 C617 0.950 . S
C621 C612 1.390 . S
C621 H614 0.950 . S
C621 C618 1.387 . S
C622 C623 1.387 . S
C622 H626 0.950 . S
C622 C631 1.390 . S
C623 C622 1.387 . S
C623 C625 1.387 . S
H624 C631 0.950 . S
C625 C623 1.387 . S
C625 C627 1.390 . S
C625 H629 0.950 . S
H626 C622 0.950 . S
C627 C625 1.390 . S
C627 C628 1.387 . S
C627 H630 0.950 . S
C628 C627 1.387 . S
C628 C631 1.387 . S
H629 C625 0.950 . S
H630 C627 0.950 . S
C631 C622 1.390 . S
C631 H624 0.950 . S
C631 C628 1.387 . S
C632 C633 1.387 . S
C632 H636 0.950 . S
C632 C641 1.390 . S
C633 C632 1.387 . S
C633 C635 1.387 . S
H634 C641 0.950 . S
C635 C633 1.387 . S
C635 C637 1.390 . S
C635 H639 0.950 . S
H636 C632 0.950 . S
C637 C635 1.390 . S
C637 C638 1.387 . S
C637 H640 0.950 . S
C638 C637 1.387 . S
C638 C641 1.387 . S
H639 C635 0.950 . S
H640 C637 0.950 . S
C641 C632 1.390 . S
C641 H634 0.950 . S
C641 C638 1.387 . S
C642 C643 1.387 . S
C642 H646 0.950 . S
C642 C651 1.390 . S
C643 C642 1.387 . S
C643 C645 1.387 . S
H644 C651 0.950 . S
C645 C643 1.387 . S
C645 C647 1.390 . S
C645 H649 0.950 . S
H646 C642 0.950 . S
C647 C645 1.390 . S
C647 C648 1.387 . S
C647 H650 0.950 . S
C648 C647 1.387 . S
C648 C651 1.387 . S
H649 C645 0.950 . S
H650 C647 0.950 . S
C651 C642 1.390 . S
C651 H644 0.950 . S
C651 C648 1.387 . S
C652 C653 1.387 . S
C652 H656 0.950 . S
C652 C661 1.390 . S
C653 C652 1.387 . S
C653 C655 1.387 . S
H654 C661 0.950 . S
C655 C653 1.387 . S
C655 C657 1.390 . S
C655 H659 0.950 . S
H656 C652 0.950 . S
C657 C655 1.390 . S
C657 C658 1.387 . S
C657 H660 0.950 . S
C658 C657 1.387 . S
C658 C661 1.387 . S
H659 C655 0.950 . S
H660 C657 0.950 . S
C661 C652 1.390 . S
C661 H654 0.950 . S
C661 C658 1.387 . S
C662 C663 1.387 . S
C662 H666 0.950 . S
C662 C671 1.390 . S
C663 C662 1.387 . S
C663 C665 1.387 . S
H664 C671 0.950 . S
C665 C663 1.387 . S
C665 C667 1.390 . S
C665 H669 0.950 . S
H666 C662 0.950 . S
C667 C665 1.390 . S
C667 C668 1.387 . S
C667 H670 0.950 . S
C668 C667 1.387 . S
C668 C671 1.387 . S
H669 C665 0.950 . S
H670 C667 0.950 . S
C671 C662 1.390 . S
C671 H664 0.950 . S
C671 C668 1.387 . S
C672 C673 1.387 . S
C672 H676 0.950 . S
C672 C681 1.390 1_455 S
C673 C672 1.387 . S
C673 C675 1.387 . S
H674 C681 0.950 . S
C675 C673 1.387 . S
C675 C677 1.390 1_455 S
C675 H679 0.950 . S
H676 C672 0.950 . S
C677 C675 1.390 1_655 S
C677 C678 1.387 . S
C677 H680 0.950 . S
C678 C677 1.387 . S
C678 C681 1.387 . S
H679 C675 0.950 . S
H680 C677 0.950 . S
C681 C672 1.390 1_655 S
C681 H674 0.950 . S
C681 C678 1.387 . S
C682 C683 1.387 . S
C682 H686 0.950 . S
C682 C691 1.390 . S
C683 C682 1.387 . S
C683 C685 1.387 . S
H684 C691 0.950 . S
C685 C683 1.387 . S
C685 C687 1.390 . S
C685 H689 0.950 . S
H686 C682 0.950 . S
C687 C685 1.390 . S
C687 C688 1.387 . S
C687 H690 0.950 . S
C688 C687 1.387 . S
C688 C691 1.387 . S
H689 C685 0.950 . S
H690 C687 0.950 . S
C691 C682 1.390 . S
C691 H684 0.950 . S
C691 C688 1.387 . S
C692 C693 1.387 . S
C692 H696 0.950 . S
C692 C701 1.390 . S
C693 C692 1.387 . S
C693 C695 1.387 . S
H694 C701 0.950 . S
C695 C693 1.387 . S
C695 C697 1.390 . S
C695 H699 0.950 . S
H696 C692 0.950 . S
C697 C695 1.390 . S
C697 C698 1.387 . S
C697 H700 0.950 . S
C698 C697 1.387 . S
C698 C701 1.387 . S
H699 C695 0.950 . S
H700 C697 0.950 . S
C701 C692 1.390 . S
C701 H694 0.950 . S
C701 C698 1.387 . S
C702 C703 1.387 . S
C702 H706 0.950 . S
C702 C711 1.390 . S
C703 C702 1.387 . S
C703 C705 1.387 . S
H704 C711 0.950 . S
C705 C703 1.387 . S
C705 C707 1.390 . S
C705 H709 0.950 . S
H706 C702 0.950 . S
C707 C705 1.390 . S
C707 C708 1.387 . S
C707 H710 0.950 . S
C708 C707 1.387 . S
C708 C711 1.387 . S
H709 C705 0.950 . S
H710 C707 0.950 . S
C711 C702 1.390 . S
C711 H704 0.950 . S
C711 C708 1.387 . S
C712 C713 1.387 . S
C712 H716 0.950 . S
C712 C721 1.390 1_655 S
C713 C712 1.387 . S
C713 C715 1.387 . S
H714 C721 0.950 . S
C715 C713 1.387 . S
C715 C717 1.390 1_655 S
C715 H719 0.950 . S
H716 C712 0.950 . S
C717 C715 1.390 1_455 S
C717 C718 1.387 . S
C717 H720 0.950 . S
C718 C717 1.387 . S
C718 C721 1.387 . S
H719 C715 0.950 . S
H720 C717 0.950 . S
C721 C712 1.390 1_455 S
C721 H714 0.950 . S
C721 C718 1.387 . S
C722 C723 1.387 . S
C722 H726 0.950 . S
C722 C731 1.390 . S
C723 C722 1.387 . S
C723 C725 1.387 . S
H724 C731 0.950 . S
C725 C723 1.387 . S
C725 C727 1.390 . S
C725 H729 0.950 . S
H726 C722 0.950 . S
C727 C725 1.390 . S
C727 C728 1.387 . S
C727 H730 0.950 . S
C728 C727 1.387 . S
C728 C731 1.387 . S
H729 C725 0.950 . S
H730 C727 0.950 . S
C731 C722 1.390 . S
C731 H724 0.950 . S
C731 C728 1.387 . S
C732 C733 1.387 . S
C732 H736 0.950 . S
C732 C741 1.390 . S
C733 C732 1.387 . S
C733 C735 1.387 . S
H734 C741 0.950 . S
C735 C733 1.387 . S
C735 C737 1.390 . S
C735 H739 0.950 . S
H736 C732 0.950 . S
C737 C735 1.390 . S
C737 C738 1.387 . S
C737 H740 0.950 . S
C738 C737 1.387 . S
C738 C741 1.387 . S
H739 C735 0.950 . S
H740 C737 0.950 . S
C741 C732 1.390 . S
C741 H734 0.950 . S
C741 C738 1.387 . S
C742 C743 1.387 . S
C742 H746 0.950 . S
C742 C751 1.390 . S
C743 C742 1.387 . S
C743 C745 1.387 . S
H744 C751 0.950 . S
C745 C743 1.387 . S
C745 C747 1.390 . S
C745 H749 0.950 . S
H746 C742 0.950 . S
C747 C745 1.390 . S
C747 C748 1.387 . S
C747 H750 0.950 . S
C748 C747 1.387 . S
C748 C751 1.387 . S
H749 C745 0.950 . S
H750 C747 0.950 . S
C751 C742 1.390 . S
C751 H744 0.950 . S
C751 C748 1.387 . S
C752 C753 1.387 . S
C752 H756 0.950 . S
C752 C761 1.390 . S
C753 C752 1.387 . S
C753 C755 1.387 . S
H754 C761 0.950 . S
C755 C753 1.387 . S
C755 C757 1.390 . S
C755 H759 0.950 . S
H756 C752 0.950 . S
C757 C755 1.390 . S
C757 C758 1.387 . S
C757 H760 0.950 . S
C758 C757 1.387 . S
C758 C761 1.387 . S
H759 C755 0.950 . S
H760 C757 0.950 . S
C761 C752 1.390 . S
C761 H754 0.950 . S
C761 C758 1.387 . S
C762 C763 1.387 . S
C762 H766 0.950 . S
C762 C771 1.390 . S
C763 C762 1.387 . S
C763 C765 1.387 . S
H764 C771 0.950 . S
C765 C763 1.387 . S
C765 C767 1.390 . S
C765 H769 0.950 . S
H766 C762 0.950 . S
C767 C765 1.390 . S
C767 C768 1.387 . S
C767 H770 0.950 . S
C768 C767 1.387 . S
C768 C771 1.387 . S
H769 C765 0.950 . S
H770 C767 0.950 . S
C771 C762 1.390 . S
C771 H764 0.950 . S
C771 C768 1.387 . S
C772 C773 1.387 . S
C772 H776 0.950 . S
C772 C781 1.390 . S
C773 C772 1.387 . S
C773 C775 1.387 . S
H774 C781 0.950 . S
C775 C773 1.387 . S
C775 C777 1.390 . S
C775 H779 0.950 . S
H776 C772 0.950 . S
C777 C775 1.390 . S
C777 C778 1.387 . S
C777 H780 0.950 . S
C778 C777 1.387 . S
C778 C781 1.387 . S
H779 C775 0.950 . S
H780 C777 0.950 . S
C781 C772 1.390 . S
C781 H774 0.950 . S
C781 C778 1.387 . S
C782 C783 1.387 . S
C782 H786 0.950 . S
C782 C791 1.390 . S
C783 C782 1.387 . S
C783 C785 1.387 . S
H784 C791 0.950 . S
C785 C783 1.387 . S
C785 C787 1.390 . S
C785 H789 0.950 . S
H786 C782 0.950 . S
C787 C785 1.390 . S
C787 C788 1.387 . S
C787 H790 0.950 . S
C788 C787 1.387 . S
C788 C791 1.387 . S
H789 C785 0.950 . S
H790 C787 0.950 . S
C791 C782 1.390 . S
C791 H784 0.950 . S
C791 C788 1.387 . S
C792 C793 1.387 . S
C792 H796 0.950 . S
C792 C801 1.390 . S
C793 C792 1.387 . S
C793 C795 1.387 . S
H794 C801 0.950 . S
C795 C793 1.387 . S
C795 C797 1.390 . S
C795 H799 0.950 . S
H796 C792 0.950 . S
C797 C795 1.390 . S
C797 C798 1.387 . S
C797 H800 0.950 . S
C798 C797 1.387 . S
C798 C801 1.387 . S
H799 C795 0.950 . S
H800 C797 0.950 . S
C801 C792 1.390 . S
C801 H794 0.950 . S
C801 C798 1.387 . S
C802 C803 1.387 . S
C802 H806 0.950 . S
C802 C811 1.390 1_455 S
C803 C802 1.387 . S
C803 C805 1.387 . S
H804 C811 0.950 . S
C805 C803 1.387 . S
C805 C807 1.390 1_455 S
C805 H809 0.950 . S
H806 C802 0.950 . S
C807 C805 1.390 1_655 S
C807 C808 1.387 . S
C807 H810 0.950 . S
C808 C807 1.387 . S
C808 C811 1.387 . S
H809 C805 0.950 . S
H810 C807 0.950 . S
C811 C802 1.390 1_655 S
C811 H804 0.950 . S
C811 C808 1.387 . S
C812 C813 1.387 . S
C812 H816 0.950 . S
C812 C821 1.390 . S
C813 C812 1.387 . S
C813 C815 1.387 . S
H814 C821 0.950 . S
C815 C813 1.387 . S
C815 C817 1.390 . S
C815 H819 0.950 . S
H816 C812 0.950 . S
C817 C815 1.390 . S
C817 C818 1.387 . S
C817 H820 0.950 . S
C818 C817 1.387 . S
C818 C821 1.387 . S
H819 C815 0.950 . S
H820 C817 0.950 . S
C821 C812 1.390 . S
C821 H814 0.950 . S
C821 C818 1.387 . S
C822 C823 1.387 . S
C822 H826 0.950 . S
C822 C831 1.390 1_655 S
C823 C822 1.387 . S
C823 C825 1.387 . S
H824 C831 0.950 . S
C825 C823 1.387 . S
C825 C827 1.390 1_655 S
C825 H829 0.950 . S
H826 C822 0.950 . S
C827 C825 1.390 1_455 S
C827 C828 1.387 . S
C827 H830 0.950 . S
C828 C827 1.387 . S
C828 C831 1.387 . S
H829 C825 0.950 . S
H830 C827 0.950 . S
C831 C822 1.390 1_455 S
C831 H824 0.950 . S
C831 C828 1.387 . S
C353 C74 1.496 . S
C358 C8 1.496 . S
C363 C85 1.496 . S
C368 C19 1.496 . S
C373 C52 1.497 . S
C378 C30 1.497 . S
C383 C41 1.496 . S
C388 C63 1.496 . S
C393 C162 1.492 . S
C398 C96 1.492 . S
C403 C173 1.492 . S
C408 C107 1.492 . S
C413 C140 1.491 . S
C418 C118 1.491 . S
C423 C151 1.491 . S
C428 C129 1.491 . S
C433 C184 1.496 . S
C438 C250 1.496 . S
C443 C261 1.497 . S
C448 C195 1.497 . S
C453 C206 1.497 . S
C458 C228 1.497 . S
C463 C239 1.497 . S
C468 C217 1.497 . S
C473 C272 1.491 . S
C478 C338 1.491 . S
C483 C283 1.492 . S
C488 C349 1.492 . S
C493 C294 1.491 . S
C498 C316 1.491 . S
C503 C305 1.491 . S
C508 C327 1.491 . S
C513 C84 1.469 . S
C518 C7 1.467 . S
C523 C18 1.467 . S
C528 C51 1.468 . S
C533 C62 1.468 . S
C538 C29 1.469 . S
C543 C40 1.468 . S
C548 C73 1.468 . S
C553 C172 1.451 . S
C558 C95 1.451 . S
C563 C106 1.454 . S
C568 C139 1.454 . S
C573 C150 1.453 . S
C578 C117 1.453 . S
C583 C128 1.453 . S
C588 C161 1.453 . S
C593 C183 1.468 . S
C598 C260 1.468 . S
C603 C194 1.467 . S
C608 C227 1.469 . S
C613 C238 1.468 . S
C618 C205 1.467 . S
C623 C216 1.468 . S
C628 C249 1.467 . S
C633 C348 1.454 . S
C638 C271 1.453 . S
C643 C282 1.453 . S
C648 C315 1.453 . S
C653 C293 1.452 . S
C658 C326 1.451 . S
C663 C304 1.453 . S
C668 C337 1.453 . S
C673 C5 1.310 . S
C678 C137 1.287 . S
C683 C16 1.310 . S
C688 C324 1.287 . S
C693 C27 1.309 . S
C698 C159 1.287 . S
C703 C38 1.315 . S
C708 C346 1.292 . S
C713 C93 1.293 . S
C718 C49 1.315 . S
C723 C60 1.310 . S
C728 C280 1.287 . S
C733 C71 1.315 . S
C738 C115 1.293 . S
C743 C302 1.293 . S
C748 C82 1.315 . S
C753 C104 1.287 . S
C758 C236 1.310 . S
C763 C258 1.309 . S
C768 C126 1.287 . S
C773 C192 1.315 . S
C778 C148 1.293 . S
C783 C170 1.287 . S
C788 C214 1.310 . S
C793 C181 1.310 . S
C798 C313 1.287 . S
C803 C335 1.287 . S
C808 C203 1.309 . S
C813 C269 1.293 . S
C818 C225 1.315 . S
C823 C247 1.315 . S
C828 C291 1.293 . S
