# Generated by pormake.
# Topology fnl, (5)-cn, num edge types: 1
# Building blocks:
#     Node 0, Type 0, BuildingBlock: XOMCOT_clean_sbu_1, # of connection points: 5
#     Node 1, Type 0, BuildingBlock: XOMCOT_clean_sbu_1, # of connection points: 5
#     Node 2, Type 0, BuildingBlock: XOMCOT_clean_sbu_1, # of connection points: 5
#     Node 3, Type 0, BuildingBlock: XOMCOT_clean_sbu_1, # of connection points: 5
#     Node 4, Type 0, BuildingBlock: XOMCOT_clean_sbu_1, # of connection points: 5
#     Node 5, Type 0, BuildingBlock: XOMCOT_clean_sbu_1, # of connection points: 5
#     Node 6, Type 0, BuildingBlock: XOMCOT_clean_sbu_1, # of connection points: 5
#     Node 7, Type 0, BuildingBlock: XOMCOT_clean_sbu_1, # of connection points: 5
#     Node 8, Type 0, BuildingBlock: XOMCOT_clean_sbu_1, # of connection points: 5
#     Node 9, Type 0, BuildingBlock: XOMCOT_clean_sbu_1, # of connection points: 5
#     Node 10, Type 0, BuildingBlock: XOMCOT_clean_sbu_1, # of connection points: 5
#     Node 11, Type 0, BuildingBlock: XOMCOT_clean_sbu_1, # of connection points: 5
#     Node 12, Type 0, BuildingBlock: XOMCOT_clean_sbu_1, # of connection points: 5
#     Node 13, Type 0, BuildingBlock: XOMCOT_clean_sbu_1, # of connection points: 5
#     Node 14, Type 0, BuildingBlock: XOMCOT_clean_sbu_1, # of connection points: 5
#     Node 15, Type 0, BuildingBlock: XOMCOT_clean_sbu_1, # of connection points: 5
#     Edge 16, Type (0, 0), BuildingBlock: CIFDUS_clean_linker_0, # of connection points: 2
#     Edge 17, Type (0, 0), BuildingBlock: CIFDUS_clean_linker_0, # of connection points: 2
#     Edge 18, Type (0, 0), BuildingBlock: CIFDUS_clean_linker_0, # of connection points: 2
#     Edge 19, Type (0, 0), BuildingBlock: CIFDUS_clean_linker_0, # of connection points: 2
#     Edge 20, Type (0, 0), BuildingBlock: CIFDUS_clean_linker_0, # of connection points: 2
#     Edge 21, Type (0, 0), BuildingBlock: CIFDUS_clean_linker_0, # of connection points: 2
#     Edge 22, Type (0, 0), BuildingBlock: CIFDUS_clean_linker_0, # of connection points: 2
#     Edge 23, Type (0, 0), BuildingBlock: CIFDUS_clean_linker_0, # of connection points: 2
#     Edge 24, Type (0, 0), BuildingBlock: CIFDUS_clean_linker_0, # of connection points: 2
#     Edge 25, Type (0, 0), BuildingBlock: CIFDUS_clean_linker_0, # of connection points: 2
#     Edge 26, Type (0, 0), BuildingBlock: CIFDUS_clean_linker_0, # of connection points: 2
#     Edge 27, Type (0, 0), BuildingBlock: CIFDUS_clean_linker_0, # of connection points: 2
#     Edge 28, Type (0, 0), BuildingBlock: CIFDUS_clean_linker_0, # of connection points: 2
#     Edge 29, Type (0, 0), BuildingBlock: CIFDUS_clean_linker_0, # of connection points: 2
#     Edge 30, Type (0, 0), BuildingBlock: CIFDUS_clean_linker_0, # of connection points: 2
#     Edge 31, Type (0, 0), BuildingBlock: CIFDUS_clean_linker_0, # of connection points: 2
#     Edge 32, Type (0, 0), BuildingBlock: CIFDUS_clean_linker_0, # of connection points: 2
#     Edge 33, Type (0, 0), BuildingBlock: CIFDUS_clean_linker_0, # of connection points: 2
#     Edge 34, Type (0, 0), BuildingBlock: CIFDUS_clean_linker_0, # of connection points: 2
#     Edge 35, Type (0, 0), BuildingBlock: CIFDUS_clean_linker_0, # of connection points: 2
#     Edge 36, Type (0, 0), BuildingBlock: CIFDUS_clean_linker_0, # of connection points: 2
#     Edge 37, Type (0, 0), BuildingBlock: CIFDUS_clean_linker_0, # of connection points: 2
#     Edge 38, Type (0, 0), BuildingBlock: CIFDUS_clean_linker_0, # of connection points: 2
#     Edge 39, Type (0, 0), BuildingBlock: CIFDUS_clean_linker_0, # of connection points: 2
#     Edge 40, Type (0, 0), BuildingBlock: CIFDUS_clean_linker_0, # of connection points: 2
#     Edge 41, Type (0, 0), BuildingBlock: CIFDUS_clean_linker_0, # of connection points: 2
#     Edge 42, Type (0, 0), BuildingBlock: CIFDUS_clean_linker_0, # of connection points: 2
#     Edge 43, Type (0, 0), BuildingBlock: CIFDUS_clean_linker_0, # of connection points: 2
#     Edge 44, Type (0, 0), BuildingBlock: CIFDUS_clean_linker_0, # of connection points: 2
#     Edge 45, Type (0, 0), BuildingBlock: CIFDUS_clean_linker_0, # of connection points: 2
#     Edge 46, Type (0, 0), BuildingBlock: CIFDUS_clean_linker_0, # of connection points: 2
#     Edge 47, Type (0, 0), BuildingBlock: CIFDUS_clean_linker_0, # of connection points: 2
#     Edge 48, Type (0, 0), BuildingBlock: CIFDUS_clean_linker_0, # of connection points: 2
#     Edge 49, Type (0, 0), BuildingBlock: CIFDUS_clean_linker_0, # of connection points: 2
#     Edge 50, Type (0, 0), BuildingBlock: CIFDUS_clean_linker_0, # of connection points: 2
#     Edge 51, Type (0, 0), BuildingBlock: CIFDUS_clean_linker_0, # of connection points: 2
#     Edge 52, Type (0, 0), BuildingBlock: CIFDUS_clean_linker_0, # of connection points: 2
#     Edge 53, Type (0, 0), BuildingBlock: CIFDUS_clean_linker_0, # of connection points: 2
#     Edge 54, Type (0, 0), BuildingBlock: CIFDUS_clean_linker_0, # of connection points: 2
#     Edge 55, Type (0, 0), BuildingBlock: CIFDUS_clean_linker_0, # of connection points: 2
# Relax obj value: 0.503
# Max RMSD: 0.267
# Mean RMSD: 0.267
data_MOF--net-fnl--node1-XOMCOT_clean_sbu_1--edge1-CIFDUS_clean_linker_0
_symmetry_space_group_name_H-M    P1
_symmetry_Int_Tables_number       1
_symmetry_cell_setting            triclinic
loop_
_symmetry_equiv_pos_as_xyz
'x, y, z'
_cell_length_a     30.668964
_cell_length_b     30.685159
_cell_length_c     85.688115
_cell_angle_alpha  90.043048
_cell_angle_beta   89.919373
_cell_angle_gamma 89.940152
loop_
_atom_site_label
_atom_site_type_symbol
_atom_site_fract_x
_atom_site_fract_y
_atom_site_fract_z
_atom_type_partial_charge
C0 C 0.97896 0.03694 0.06022 0.0
C1 C 0.97232 0.99271 0.05945 0.0
N2 N 0.00456 0.97286 0.0674 0.0
N3 N 0.015 0.0449 0.06871 0.0
C4 C 0.03016 0.00526 0.07285 0.0
H5 H 0.95874 0.06188 0.05501 0.0
Co6 Co 0.03465 0.10031 0.07311 0.0
C7 C 0.09044 0.09256 0.10117 0.0
O8 O 0.07302 0.12853 0.10674 0.0
N9 N 0.05438 0.1571 0.07701 0.0
C10 C 0.0982 0.21465 0.07879 0.0
C11 C 0.09647 0.17015 0.07709 0.0
C12 C 0.03127 0.19435 0.07839 0.0
N13 N 0.05704 0.22975 0.0796 0.0
O14 O 0.07614 0.0943 0.05657 0.0
H15 H 0.12418 0.14868 0.07567 0.0
H16 H 0.99627 0.19617 0.07765 0.0
O17 O 0.0778 0.07756 0.08797 0.0
C18 C 0.07144 0.11711 0.04428 0.0
O19 O 0.04207 0.14831 0.04417 0.0
N20 N 0.99062 0.10444 0.08846 0.0
C21 C 0.91387 0.09576 0.10573 0.0
C22 C 0.9526 0.07621 0.11074 0.0
C23 C 0.99002 0.07952 0.10168 0.0
C24 C 0.95309 0.12386 0.08344 0.0
C25 C 0.9143 0.12017 0.09195 0.0
H26 H 0.01666 0.05836 0.10468 0.0
H27 H 0.9523 0.13931 0.0721 0.0
H28 H 0.05892 0.00016 0.07991 0.0
H29 H 0.94616 0.97641 0.05331 0.0
H30 H 0.12744 0.23432 0.07917 0.0
H31 H 0.95294 0.05475 0.12079 0.0
H32 H 0.88449 0.13405 0.08734 0.0
C33 C 0.32434 0.81572 0.30897 0.0
C34 C 0.36834 0.80924 0.30702 0.0
N35 N 0.3892 0.84579 0.31143 0.0
N36 N 0.31744 0.85591 0.31484 0.0
C37 C 0.35762 0.8738 0.31602 0.0
H38 H 0.29891 0.79247 0.30636 0.0
Co39 Co 0.26243 0.87718 0.31989 0.0
C40 C 0.27592 0.93599 0.34695 0.0
O41 O 0.24154 0.91903 0.35382 0.0
N42 N 0.206 0.89863 0.32447 0.0
C43 C 0.15011 0.94452 0.32703 0.0
C44 C 0.19438 0.9411 0.32479 0.0
C45 C 0.16785 0.87698 0.32614 0.0
N46 N 0.1333 0.90404 0.32784 0.0
O47 O 0.26679 0.91633 0.30263 0.0
H48 H 0.21666 0.96803 0.32317 0.0
H49 H 0.16486 0.84212 0.32531 0.0
O50 O 0.28812 0.92171 0.33358 0.0
C51 C 0.24277 0.90966 0.29076 0.0
O52 O 0.21151 0.88053 0.29169 0.0
N53 N 0.25949 0.8351 0.33593 0.0
C54 C 0.27126 0.7581 0.35279 0.0
C55 C 0.29217 0.79657 0.35734 0.0
C56 C 0.28704 0.83427 0.34847 0.0
C57 C 0.23797 0.79806 0.33164 0.0
C58 C 0.24319 0.75922 0.33994 0.0
H59 H 0.30888 0.86084 0.35088 0.0
H60 H 0.22032 0.79727 0.32074 0.0
H61 H 0.36374 0.90633 0.32038 0.0
H62 H 0.38384 0.78009 0.30252 0.0
H63 H 0.13185 0.97462 0.3278 0.0
H64 H 0.31591 0.7964 0.36669 0.0
H65 H 0.22786 0.7297 0.33572 0.0
C66 C 0.52719 0.1519 0.56014 0.0
C67 C 0.53292 0.19557 0.5572 0.0
N68 N 0.49901 0.21756 0.56342 0.0
N69 N 0.48999 0.14621 0.56824 0.0
C70 C 0.47332 0.18675 0.57 0.0
H71 H 0.54869 0.12576 0.55657 0.0
Co72 Co 0.47046 0.09173 0.57454 0.0
C73 C 0.4086 0.1084 0.60064 0.0
O74 O 0.42543 0.07521 0.60824 0.0
N75 N 0.45109 0.03548 0.58028 0.0
C76 C 0.40698 0.97807 0.58203 0.0
C77 C 0.40898 0.02256 0.58043 0.0
C78 C 0.47403 0.99788 0.58159 0.0
N79 N 0.44799 0.96251 0.58265 0.0
O80 O 0.43269 0.09058 0.55677 0.0
H81 H 0.38138 0.04389 0.57858 0.0
H82 H 0.50897 0.9957 0.58041 0.0
O83 O 0.42363 0.11856 0.58715 0.0
C84 C 0.44186 0.06364 0.54593 0.0
O85 O 0.47361 0.03553 0.54809 0.0
N86 N 0.51094 0.09379 0.59103 0.0
C87 C 0.58346 0.10725 0.61002 0.0
C88 C 0.54425 0.12901 0.613 0.0
C89 C 0.50894 0.12309 0.60304 0.0
C90 C 0.5491 0.07247 0.58796 0.0
C91 C 0.58583 0.07859 0.59736 0.0
H92 H 0.48181 0.14504 0.60436 0.0
H93 H 0.55226 0.05345 0.57741 0.0
H94 H 0.44323 0.19363 0.57613 0.0
H95 H 0.55963 0.20986 0.55073 0.0
H96 H 0.3776 0.95856 0.58204 0.0
H97 H 0.54213 0.1534 0.62212 0.0
H98 H 0.61632 0.06289 0.59429 0.0
C99 C 0.20162 0.36119 0.81137 0.0
C100 C 0.15757 0.36698 0.80931 0.0
N101 N 0.13651 0.33411 0.81651 0.0
N102 N 0.20844 0.32501 0.8199 0.0
C103 C 0.16819 0.3089 0.82278 0.0
H104 H 0.22723 0.38206 0.80697 0.0
Co105 Co 0.26383 0.30664 0.82546 0.0
C106 C 0.25282 0.25171 0.85354 0.0
O107 O 0.28779 0.27027 0.85939 0.0
N108 N 0.32096 0.28818 0.83045 0.0
C109 C 0.37883 0.24497 0.83315 0.0
C110 C 0.33432 0.2463 0.83142 0.0
C111 C 0.35829 0.31153 0.83116 0.0
N112 N 0.39402 0.28615 0.8329 0.0
O113 O 0.26225 0.26555 0.80862 0.0
H114 H 0.31309 0.2183 0.83045 0.0
H115 H 0.35984 0.34619 0.82935 0.0
O116 O 0.23945 0.2628 0.83992 0.0
C117 C 0.2879 0.27305 0.79722 0.0
O118 O 0.31606 0.30513 0.79837 0.0
N119 N 0.26421 0.35033 0.84102 0.0
C120 C 0.25617 0.42422 0.85982 0.0
C121 C 0.23315 0.3862 0.86333 0.0
C122 C 0.23623 0.35034 0.85347 0.0
C123 C 0.28577 0.38773 0.83716 0.0
C124 C 0.28249 0.4251 0.84647 0.0
H125 H 0.21347 0.32419 0.85535 0.0
H126 H 0.30311 0.38969 0.82621 0.0
H127 H 0.16213 0.27975 0.82953 0.0
H128 H 0.14227 0.3931 0.80283 0.0
H129 H 0.39836 0.21575 0.83415 0.0
H130 H 0.21014 0.38538 0.87294 0.0
H131 H 0.29875 0.45482 0.84294 0.0
C132 C 0.98927 0.1504 0.94913 0.0
C133 C 0.97636 0.19307 0.95058 0.0
N134 N 0.99339 0.21555 0.93855 0.0
N135 N 0.01412 0.14619 0.93625 0.0
C136 C 0.0164 0.18648 0.93006 0.0
H137 H 0.98023 0.12374 0.95672 0.0
Co138 Co 0.03199 0.09288 0.92908 0.0
C139 C 0.07831 0.10648 0.89916 0.0
O140 O 0.05825 0.07212 0.89348 0.0
N141 N 0.04952 0.03776 0.9224 0.0
C142 C 0.0897 0.9791 0.91722 0.0
C143 C 0.09078 0.02278 0.92085 0.0
C144 C 0.02417 0.00275 0.91972 0.0
N145 N 0.04763 0.9669 0.91646 0.0
O146 O 0.07898 0.09497 0.94363 0.0
H147 H 0.11978 0.04214 0.92268 0.0
H148 H 0.98924 0.00237 0.92108 0.0
O149 O 0.0699 0.11954 0.91307 0.0
C150 C 0.07619 0.07072 0.95565 0.0
O151 O 0.04699 0.03941 0.95578 0.0
N152 N 0.98246 0.09232 0.91615 0.0
C153 C 0.89907 0.10452 0.90401 0.0
C154 C 0.93556 0.12222 0.89653 0.0
C155 C 0.9767 0.11706 0.90306 0.0
C156 C 0.94713 0.07469 0.92353 0.0
C157 C 0.90503 0.08025 0.91764 0.0
H158 H 0.00251 0.13652 0.89825 0.0
H159 H 0.95145 0.05844 0.93462 0.0
H160 H 0.03305 0.19412 0.91926 0.0
H161 H 0.95614 0.20657 0.95975 0.0
H162 H 0.11751 0.95774 0.91574 0.0
H163 H 0.93189 0.14334 0.88649 0.0
H164 H 0.87735 0.06754 0.92404 0.0
C165 C 0.2047 0.80903 0.18469 0.0
C166 C 0.16136 0.80176 0.18764 0.0
N167 N 0.13886 0.83705 0.18294 0.0
N168 N 0.20935 0.84841 0.17794 0.0
C169 C 0.1687 0.86508 0.1772 0.0
H170 H 0.23128 0.78718 0.18742 0.0
Co171 Co 0.26254 0.87094 0.17223 0.0
C172 C 0.24877 0.92576 0.14451 0.0
O173 O 0.28445 0.90873 0.13855 0.0
N174 N 0.31738 0.89362 0.16704 0.0
C175 C 0.3733 0.93931 0.16432 0.0
C176 C 0.32961 0.93592 0.16782 0.0
C177 C 0.35412 0.87215 0.16307 0.0
N178 N 0.38828 0.89904 0.16122 0.0
O179 O 0.25741 0.91172 0.18901 0.0
H180 H 0.30829 0.96252 0.17109 0.0
H181 H 0.35704 0.83727 0.16237 0.0
O182 O 0.23514 0.91319 0.15793 0.0
C183 C 0.28153 0.90644 0.20094 0.0
O184 O 0.31346 0.87791 0.20027 0.0
N185 N 0.26603 0.82718 0.1567 0.0
C186 C 0.25895 0.75043 0.13939 0.0
C187 C 0.23624 0.78794 0.13495 0.0
C188 C 0.23883 0.82532 0.14408 0.0
C189 C 0.28831 0.79069 0.16118 0.0
C190 C 0.28545 0.75195 0.15264 0.0
H191 H 0.21576 0.85084 0.14165 0.0
H192 H 0.30594 0.79072 0.1721 0.0
H193 H 0.16109 0.89697 0.17254 0.0
H194 H 0.14752 0.77324 0.19318 0.0
H195 H 0.39273 0.96874 0.16444 0.0
H196 H 0.21321 0.78709 0.12537 0.0
H197 H 0.30172 0.7229 0.15684 0.0
C198 C 0.52043 0.04363 0.44802 0.0
C199 C 0.52795 -0.00044 0.44935 0.0
N200 N 0.49891 0.97855 0.44029 0.0
N201 N 0.48702 0.05028 0.43811 0.0
C202 C 0.47433 0.01001 0.43367 0.0
H203 H 0.53881 0.06935 0.45359 0.0
Co204 Co 0.46973 0.10495 0.43143 0.0
C205 C 0.41022 0.08962 0.40468 0.0
O206 O 0.42823 0.12239 0.3972 0.0
N207 N 0.45262 0.16118 0.4251 0.0
C208 C 0.41203 0.22063 0.42172 0.0
C209 C 0.41135 0.17666 0.4248 0.0
C210 C 0.47769 0.19655 0.42238 0.0
N211 N 0.4539 0.23314 0.42031 0.0
O212 O 0.43001 0.10776 0.44865 0.0
H213 H 0.38262 0.15748 0.42732 0.0
H214 H 0.51279 0.19612 0.42248 0.0
O215 O 0.4239 0.07925 0.4183 0.0
C216 C 0.43873 0.13505 0.45942 0.0
O217 O 0.47065 0.16295 0.45728 0.0
N218 N 0.51237 0.10112 0.41571 0.0
C219 C 0.58868 0.08216 0.39928 0.0
C220 C 0.54878 0.06396 0.39477 0.0
C221 C 0.51133 0.07275 0.40341 0.0
C222 C 0.551 0.11929 0.42017 0.0
C223 C 0.58955 0.11057 0.41205 0.0
H224 H 0.48307 0.05325 0.40094 0.0
H225 H 0.55256 0.138 0.43086 0.0
H226 H 0.44875 0.00374 0.42528 0.0
H227 H 0.55282 0.98416 0.4564 0.0
H228 H 0.384 0.24208 0.42144 0.0
H229 H 0.5472 0.04001 0.38549 0.0
H230 H 0.62002 0.12411 0.41618 0.0
C231 C 0.31376 0.34537 0.70662 0.0
C232 C 0.3581 0.34983 0.70844 0.0
N233 N 0.37785 0.32767 0.69684 0.0
N234 N 0.30583 0.32081 0.69391 0.0
C235 C 0.34552 0.31023 0.68823 0.0
H236 H 0.28875 0.36025 0.71378 0.0
Co237 Co 0.2509 0.31231 0.68581 0.0
C238 C 0.26416 0.25731 0.65726 0.0
O239 O 0.2341 0.27912 0.64961 0.0
N240 N 0.19429 0.30459 0.67807 0.0
C241 C 0.12978 0.276 0.67201 0.0
C242 C 0.17293 0.26696 0.67515 0.0
C243 C 0.16332 0.33568 0.67695 0.0
N244 N 0.12394 0.31933 0.6733 0.0
O245 O 0.24131 0.26801 0.70115 0.0
H246 H 0.18732 0.23485 0.67598 0.0
H247 H 0.16866 0.36958 0.67956 0.0
O248 O 0.27359 0.26798 0.67131 0.0
C249 C 0.21365 0.27582 0.71191 0.0
O250 O 0.18829 0.31016 0.71064 0.0
N251 N 0.26126 0.35891 0.67211 0.0
C252 C 0.28047 0.43731 0.65719 0.0
C253 C 0.29531 0.39756 0.65108 0.0
C254 C 0.28638 0.35882 0.65894 0.0
C255 C 0.24824 0.39751 0.67853 0.0
C256 C 0.25691 0.43708 0.67116 0.0
H257 H 0.30213 0.32971 0.65481 0.0
H258 H 0.23199 0.39758 0.68974 0.0
H259 H 0.35078 0.29199 0.67758 0.0
H260 H 0.37458 0.3683 0.71743 0.0
H261 H 0.10425 0.25238 0.66992 0.0
H262 H 0.31577 0.39663 0.64076 0.0
H263 H 0.24604 0.46719 0.67651 0.0
C264 C 0.69943 0.32331 0.69056 0.0
C265 C 0.65615 0.31448 0.69304 0.0
N266 N 0.63272 0.34828 0.68761 0.0
N267 N 0.70331 0.36211 0.68333 0.0
C268 C 0.66203 0.37701 0.68192 0.0
H269 H 0.72649 0.30294 0.69404 0.0
Co270 Co 0.75679 0.38574 0.67804 0.0
C271 C 0.74094 0.45456 0.65365 0.0
O272 O 0.78133 0.45205 0.64864 0.0
N273 N 0.81223 0.40836 0.67343 0.0
C274 C 0.8722 0.44929 0.67366 0.0
C275 C 0.82815 0.44836 0.67682 0.0
C276 C 0.84728 0.38574 0.66837 0.0
N277 N 0.88398 0.40973 0.66831 0.0
O278 O 0.75175 0.42347 0.69573 0.0
H279 H 0.80921 0.4748 0.68172 0.0
H280 H 0.84699 0.3514 0.66576 0.0
O281 O 0.72801 0.43 0.66484 0.0
C282 C 0.77515 0.41553 0.70766 0.0
O283 O 0.80608 0.386 0.70661 0.0
N284 N 0.76051 0.34523 0.66148 0.0
C285 C 0.75068 0.27171 0.64266 0.0
C286 C 0.73666 0.31267 0.6375 0.0
C287 C 0.74114 0.34892 0.64718 0.0
C288 C 0.77681 0.30599 0.66621 0.0
C289 C 0.77218 0.26874 0.65701 0.0
H290 H 0.72575 0.37853 0.64345 0.0
H291 H 0.79123 0.30313 0.67768 0.0
H292 H 0.65352 0.40822 0.67693 0.0
H293 H 0.64294 0.286 0.6988 0.0
H294 H 0.89404 0.47643 0.67562 0.0
H295 H 0.71876 0.31604 0.62667 0.0
H296 H 0.78307 0.23755 0.66146 0.0
C297 C 0.82153 0.84848 0.20439 0.0
C298 C 0.86608 0.85151 0.20577 0.0
N299 N 0.88421 0.82777 0.19424 0.0
N300 N 0.81191 0.82326 0.192 0.0
C301 C 0.85073 0.81082 0.18609 0.0
H302 H 0.79755 0.86448 0.21168 0.0
Co303 Co 0.75609 0.81479 0.18497 0.0
C304 C 0.76312 0.76763 0.15478 0.0
O305 O 0.73161 0.7922 0.14924 0.0
N306 N 0.69857 0.80657 0.17837 0.0
C307 C 0.63515 0.77574 0.17235 0.0
C308 C 0.6782 0.76811 0.17593 0.0
C309 C 0.66707 0.83681 0.17657 0.0
N310 N 0.62842 0.81905 0.17285 0.0
O311 O 0.75008 0.7682 0.19972 0.0
H312 H 0.69356 0.7365 0.17697 0.0
H313 H 0.67165 0.87125 0.17826 0.0
O314 O 0.7765 0.77338 0.16882 0.0
C315 C 0.72438 0.77539 0.21115 0.0
O316 O 0.69934 0.81014 0.21078 0.0
N317 N 0.76333 0.86374 0.17196 0.0
C318 C 0.7798 0.9441 0.15797 0.0
C319 C 0.79561 0.9055 0.15132 0.0
C320 C 0.78836 0.86584 0.15877 0.0
C321 C 0.74935 0.9013 0.17891 0.0
C322 C 0.75675 0.94187 0.17203 0.0
H323 H 0.80546 0.83781 0.15436 0.0
H324 H 0.73341 0.89976 0.19017 0.0
H325 H 0.85458 0.79127 0.17566 0.0
H326 H 0.8838 0.86988 0.21449 0.0
H327 H 0.61043 0.75135 0.17016 0.0
H328 H 0.81601 0.90629 0.14098 0.0
H329 H 0.74567 0.97121 0.17786 0.0
C330 C 0.81196 0.3161 0.8113 0.0
C331 C 0.85582 0.30827 0.80916 0.0
N332 N 0.87824 0.3407 0.81605 0.0
N333 N 0.80673 0.35297 0.81967 0.0
C334 C 0.84775 0.3674 0.82224 0.0
H335 H 0.78553 0.29619 0.80698 0.0
Co336 Co 0.75326 0.3766 0.82585 0.0
C337 C 0.79356 0.45459 0.84083 0.0
O338 O 0.78162 0.47999 0.82926 0.0
N339 N 0.69903 0.39921 0.83194 0.0
C340 C 0.6435 0.43333 0.84338 0.0
C341 C 0.68792 0.43324 0.84113 0.0
C342 C 0.66079 0.37931 0.82878 0.0
N343 N 0.62641 0.39917 0.83565 0.0
O344 O 0.75876 0.41861 0.80951 0.0
H345 H 0.7102 0.45582 0.8465 0.0
H346 H 0.65846 0.35025 0.82171 0.0
O347 O 0.7834 0.41427 0.84069 0.0
C348 C 0.73541 0.41339 0.79738 0.0
O349 O 0.70444 0.3839 0.7976 0.0
N350 N 0.74738 0.33262 0.84067 0.0
C351 C 0.75009 0.25508 0.8574 0.0
C352 C 0.76512 0.29411 0.86408 0.0
C353 C 0.76339 0.33273 0.85552 0.0
C354 C 0.72894 0.29601 0.83459 0.0
C355 C 0.72977 0.25683 0.84278 0.0
H356 H 0.77726 0.36171 0.86059 0.0
H357 H 0.71618 0.29656 0.82284 0.0
H358 H 0.85544 0.39671 0.82866 0.0
H359 H 0.87006 0.28131 0.80279 0.0
H360 H 0.62558 0.45581 0.85071 0.0
H361 H 0.78134 0.29432 0.8753 0.0
H362 H 0.71722 0.22764 0.83728 0.0
C363 C 0.71249 0.8475 0.29952 0.0
C364 C 0.66844 0.85405 0.2972 0.0
N365 N 0.64687 0.83693 0.30944 0.0
N366 N 0.71852 0.82658 0.31319 0.0
C367 C 0.67789 0.82076 0.31896 0.0
H368 H 0.73852 0.85709 0.29172 0.0
Co369 Co 0.77228 0.81075 0.32167 0.0
C370 C 0.72876 0.7338 0.33635 0.0
O371 O 0.73482 0.70962 0.32388 0.0
N372 N 0.82621 0.7954 0.33011 0.0
C373 C 0.8813 0.76145 0.34166 0.0
C374 C 0.8376 0.75955 0.33823 0.0
C375 C 0.86347 0.81855 0.32877 0.0
N376 N 0.89785 0.79851 0.3356 0.0
O377 O 0.77642 0.76527 0.30643 0.0
H378 H 0.816 0.73319 0.34132 0.0
H379 H 0.86526 0.8489 0.3224 0.0
O380 O 0.74257 0.773 0.33664 0.0
C381 C 0.80442 0.76932 0.29553 0.0
O382 O 0.83372 0.80035 0.29658 0.0
N383 N 0.7688 0.85777 0.33526 0.0
C384 C 0.7461 0.93478 0.35019 0.0
C385 C 0.7452 0.89498 0.3583 0.0
C386 C 0.75705 0.85659 0.3506 0.0
C387 C 0.77459 0.89646 0.32779 0.0
C388 C 0.76329 0.9355 0.33504 0.0
H389 H 0.75445 0.82604 0.35676 0.0
H390 H 0.78508 0.89667 0.31573 0.0
H391 H 0.67085 0.80532 0.33002 0.0
H392 H 0.65339 0.86906 0.28713 0.0
H393 H 0.89925 0.737 0.34807 0.0
H394 H 0.73239 0.89296 0.37006 0.0
H395 H 0.76548 0.96563 0.3285 0.0
C396 C 0.46714 0.54028 0.55702 0.0
C397 C 0.4628 0.49671 0.55362 0.0
N398 N 0.49834 0.47578 0.55891 0.0
N399 N 0.50455 0.54703 0.56499 0.0
C400 C 0.52379 0.50718 0.56515 0.0
H401 H 0.4445 0.56514 0.55342 0.0
Co402 Co 0.52733 0.60055 0.57271 0.0
C403 C 0.54938 0.53815 0.59819 0.0
O404 O 0.50962 0.52231 0.59735 0.0
N405 N 0.54978 0.65338 0.57966 0.0
C406 C 0.59086 0.70736 0.58856 0.0
C407 C 0.58924 0.66321 0.58554 0.0
C408 C 0.52817 0.69164 0.57916 0.0
N409 N 0.55223 0.72539 0.58454 0.0
O410 O 0.5745 0.59368 0.5583 0.0
H411 H 0.61529 0.63996 0.58732 0.0
H412 H 0.49519 0.69418 0.57487 0.0
O413 O 0.56084 0.56918 0.58902 0.0
C414 C 0.57598 0.61926 0.54661 0.0
O415 O 0.55021 0.65349 0.54643 0.0
N416 N 0.4791 0.60881 0.58613 0.0
C417 C 0.40294 0.60138 0.60327 0.0
C418 C 0.4435 0.60363 0.61087 0.0
C419 C 0.48133 0.60915 0.60203 0.0
C420 C 0.44018 0.61704 0.5791 0.0
C421 C 0.40133 0.61265 0.58741 0.0
H422 H 0.51242 0.61007 0.60792 0.0
H423 H 0.43917 0.6249 0.56683 0.0
H424 H 0.55563 0.50101 0.57008 0.0
H425 H 0.43578 0.48171 0.54754 0.0
H426 H 0.61877 0.7246 0.59314 0.0
H427 H 0.44677 0.59734 0.62324 0.0
H428 H 0.37061 0.61495 0.58125 0.0
C429 C 0.02451 0.65078 0.06645 0.0
C430 C 0.0314 0.69473 0.06482 0.0
N431 N 0.99833 0.71598 0.07186 0.0
N432 N 0.98751 0.64431 0.0746 0.0
C433 C 0.97197 0.68461 0.07764 0.0
H434 H 0.04493 0.62501 0.06186 0.0
Co435 Co 0.96652 0.58949 0.07914 0.0
C436 C 0.9106 0.59833 0.10715 0.0
O437 O 0.9269 0.56141 0.11229 0.0
N438 N 0.94554 0.533 0.08309 0.0
C439 C 0.90198 0.47499 0.08413 0.0
C440 C 0.90356 0.51966 0.08261 0.0
C441 C 0.96866 0.49588 0.08471 0.0
N442 N 0.94316 0.46021 0.08532 0.0
O443 O 0.92597 0.59579 0.06231 0.0
H444 H 0.87593 0.54097 0.08077 0.0
H445 H 0.00366 0.49444 0.08501 0.0
O446 O 0.92358 0.61374 0.09403 0.0
C447 C 0.93363 0.57281 0.0502 0.0
O448 O 0.96345 0.54212 0.05098 0.0
N449 N 0.0103 0.5846 0.0945 0.0
C450 C 0.08767 0.58954 0.11156 0.0
C451 C 0.04967 0.60997 0.11693 0.0
C452 C 0.01183 0.60842 0.10798 0.0
C453 C 0.04722 0.56473 0.0891 0.0
C454 C 0.08614 0.56632 0.09752 0.0
H455 H 0.9856 0.62974 0.11135 0.0
H456 H 0.04728 0.55007 0.07762 0.0
H457 H 0.94207 0.6909 0.08398 0.0
H458 H 0.05809 0.70986 0.05857 0.0
H459 H 0.87303 0.45491 0.08364 0.0
H460 H 0.05027 0.63053 0.12722 0.0
H461 H 0.11534 0.55172 0.09266 0.0
C462 C 0.49072 0.65726 0.44174 0.0
C463 C 0.4833 0.70117 0.44301 0.0
N464 N 0.51544 0.72225 0.43543 0.0
N465 N 0.52709 0.65048 0.43325 0.0
C466 C 0.5419 0.69076 0.42968 0.0
H467 H 0.47098 0.63168 0.44676 0.0
Co468 Co 0.54641 0.59459 0.42914 0.0
C469 C 0.60007 0.59653 0.40064 0.0
O470 O 0.58045 0.56017 0.3966 0.0
N471 N 0.56551 0.53684 0.42582 0.0
C472 C 0.60926 0.47892 0.425 0.0
C473 C 0.60752 0.52351 0.42628 0.0
C474 C 0.54238 0.49953 0.42448 0.0
N475 N 0.56817 0.46388 0.42389 0.0
O476 O 0.58853 0.60125 0.44547 0.0
H477 H 0.63521 0.54494 0.42773 0.0
H478 H 0.50729 0.49798 0.42471 0.0
O479 O 0.5891 0.61579 0.41338 0.0
C480 C 0.58105 0.57936 0.45783 0.0
O481 O 0.54934 0.55059 0.45772 0.0
N482 N 0.50131 0.58966 0.41427 0.0
C483 C 0.42138 0.6036 0.39954 0.0
C484 C 0.45996 0.62011 0.39314 0.0
C485 C 0.49929 0.61407 0.40094 0.0
C486 C 0.46414 0.57175 0.42027 0.0
C487 C 0.42375 0.57832 0.41309 0.0
H488 H 0.52653 0.63321 0.39702 0.0
H489 H 0.46505 0.55617 0.43158 0.0
H490 H 0.57117 0.6969 0.42297 0.0
H491 H 0.45685 0.71648 0.44936 0.0
H492 H 0.63849 0.45915 0.42509 0.0
H493 H 0.45911 0.64162 0.38312 0.0
H494 H 0.39437 0.56639 0.41866 0.0
C495 C 0.03544 0.53111 0.94381 0.0
C496 C 0.0463 0.48785 0.94317 0.0
N497 N 0.01791 0.46797 0.93359 0.0
N498 N 0.0007 0.53839 0.93456 0.0
C499 C 0.99022 0.4991 0.92858 0.0
H500 H 0.05237 0.55614 0.9503 0.0
Co501 Co 0.98222 0.59424 0.93118 0.0
C502 C 0.92014 0.59455 0.90469 0.0
O503 O 0.93682 0.63209 0.90038 0.0
N504 N 0.96512 0.65227 0.92865 0.0
C505 C 0.92813 0.7148 0.92907 0.0
C506 C 0.92496 0.6701 0.93023 0.0
C507 C 0.99196 0.68665 0.92703 0.0
N508 N 0.9705 0.72478 0.92719 0.0
O509 O 0.94269 0.58839 0.94843 0.0
H510 H 0.89544 0.65177 0.93236 0.0
H511 H 0.02686 0.68442 0.92611 0.0
O512 O 0.93591 0.57453 0.91658 0.0
C513 C 0.95043 0.61006 0.96082 0.0
O514 O 0.98219 0.63876 0.96077 0.0
N515 N 0.02451 0.59824 0.91511 0.0
C516 C 0.09856 0.58944 0.89631 0.0
C517 C 0.05767 0.57569 0.89101 0.0
C518 C 0.02141 0.57911 0.90073 0.0
C519 C 0.06419 0.61194 0.92039 0.0
C520 C 0.10157 0.60829 0.91115 0.0
H521 H 0.99237 0.56262 0.89701 0.0
H522 H 0.06733 0.62348 0.93227 0.0
H523 H 0.96396 0.49355 0.92041 0.0
H524 H 0.07278 0.47202 0.94931 0.0
H525 H 0.90178 0.73811 0.93013 0.0
H526 H 0.0544 0.55868 0.87998 0.0
H527 H 0.13284 0.61795 0.91587 0.0
H528 H 0.01905 0.4292 0.07408 0.0
H529 H 0.90003 0.39052 0.0971 0.0
H530 H 0.92539 0.31485 0.09764 0.0
H531 H 0.9818 0.26022 0.09169 0.0
H532 H 0.10054 0.3001 0.0687 0.0
H533 H 0.07548 0.37548 0.06862 0.0
C534 C -0.00115 0.4045 0.07947 0.0
C535 C 0.95781 0.41562 0.08567 0.0
C536 C 0.01377 0.36143 0.07986 0.0
C537 C 0.9316 0.38276 0.09216 0.0
C538 C 0.9462 0.33959 0.09255 0.0
C539 C 0.00207 0.28536 0.08658 0.0
C540 C 0.04296 0.27447 0.08018 0.0
C541 C 0.98723 0.3286 0.08641 0.0
C542 C 0.06921 0.30759 0.07387 0.0
C543 C 0.05474 0.35066 0.0737 0.0
H544 H 0.10075 0.82634 0.33719 0.0
H545 H 0.06232 0.95456 0.32161 0.0
H546 H 0.98593 0.9338 0.32339 0.0
H547 H 0.92992 0.87882 0.32869 0.0
H548 H 0.96921 0.74908 0.34245 0.0
H549 H 0.04503 0.77115 0.34201 0.0
C550 C 0.07589 0.84975 0.334 0.0
C551 C 0.08783 0.89199 0.3292 0.0
C552 C 0.03184 0.83738 0.33473 0.0
C553 C 0.05459 0.92196 0.3255 0.0
C554 C 0.01067 0.91003 0.32641 0.0
C555 C 0.95484 0.85509 0.33148 0.0
C556 C 0.94308 0.81218 0.3356 0.0
C557 C -0.0011 0.8677 0.3309 0.0
C558 C 0.97649 0.78246 0.33942 0.0
C559 C 0.02023 0.79496 0.33908 0.0
H560 H 0.52099 0.92688 0.59481 0.0
H561 H 0.40472 0.89638 0.56876 0.0
H562 H 0.42695 0.82033 0.56702 0.0
H563 H 0.47949 0.7631 0.57237 0.0
H564 H 0.59528 0.79189 0.59918 0.0
H565 H 0.57349 0.86798 0.60079 0.0
C566 C 0.50066 0.90353 0.58873 0.0
C567 C 0.46114 0.91737 0.582 0.0
C568 C 0.51365 0.85956 0.58778 0.0
C569 C 0.43491 0.88663 0.57427 0.0
C570 C 0.44777 0.84311 0.57317 0.0
C571 C 0.50009 0.78544 0.57873 0.0
C572 C 0.53925 0.77084 0.5856 0.0
C573 C 0.48707 0.82921 0.57987 0.0
C574 C 0.56523 0.8015 0.59358 0.0
C575 C 0.55268 0.8453 0.5946 0.0
H576 H 0.42467 0.36668 0.83971 0.0
H577 H 0.46587 0.23717 0.82641 0.0
H578 H 0.54149 0.26074 0.82637 0.0
H579 H 0.59604 0.31792 0.8299 0.0
H580 H 0.55476 0.44856 0.84154 0.0
H581 H 0.47907 0.42457 0.84232 0.0
C582 C 0.44996 0.34359 0.83661 0.0
C583 C 0.43906 0.30009 0.83307 0.0
C584 C 0.49356 0.35754 0.8363 0.0
C585 C 0.47284 0.27066 0.82942 0.0
C586 C 0.5163 0.2842 0.82926 0.0
C587 C 0.57063 0.34144 0.83239 0.0
C588 C 0.58146 0.38511 0.83565 0.0
C589 C 0.52701 0.32758 0.83263 0.0
C590 C 0.54772 0.41466 0.83918 0.0
C591 C 0.50428 0.40102 0.83955 0.0
H592 H 0.93825 0.79542 0.91286 0.0
H593 H 0.04736 0.74843 0.93969 0.0
H594 H 0.0833 0.81892 0.9374 0.0
H595 H 0.08252 0.89464 0.92858 0.0
H596 H 0.97318 0.94297 0.90225 0.0
H597 H 0.93841 0.87127 0.90339 0.0
C598 C 0.9697 0.80095 0.91827 0.0
C599 C 0.99021 0.76702 0.92637 0.0
C600 C 0.9902 0.84157 0.91688 0.0
C601 C 0.03124 0.77407 0.93322 0.0
C602 C 0.05177 0.81431 0.93194 0.0
C603 C 0.05155 0.88911 0.92283 0.0
C604 C 0.03038 0.92366 0.91533 0.0
C605 C 0.03156 0.84826 0.9238 0.0
C606 C 0.98983 0.91658 0.90816 0.0
C607 C 0.96995 0.87577 0.90885 0.0
H608 H 0.4585 0.93148 0.17562 0.0
H609 H 0.41655 0.83456 0.14252 0.0
H610 H 0.48925 0.80171 0.14256 0.0
H611 H 0.56266 0.79701 0.15385 0.0
H612 H 0.60333 0.89252 0.18777 0.0
H613 H 0.5335 0.9299 0.18547 0.0
C614 C 0.46575 0.90389 0.16814 0.0
C615 C 0.43253 0.88522 0.15914 0.0
C616 C 0.50715 0.88467 0.16853 0.0
C617 C 0.44184 0.84908 0.14963 0.0
C618 C 0.48321 0.83028 0.1497 0.0
C619 C 0.55609 0.82598 0.16072 0.0
C620 C 0.58788 0.84184 0.17099 0.0
C621 C 0.51572 0.84704 0.15946 0.0
C622 C 0.57946 0.87988 0.17966 0.0
C623 C 0.53948 0.90119 0.17841 0.0
H624 H 0.53046 0.26438 0.43099 0.0
H625 H 0.41333 0.30135 0.40649 0.0
H626 H 0.43894 0.37667 0.40512 0.0
H627 H 0.49422 0.43209 0.41128 0.0
H628 H 0.61091 0.39438 0.43592 0.0
H629 H 0.58641 0.31889 0.43638 0.0
C630 C 0.51078 0.28861 0.4251 0.0
C631 C 0.46999 0.27709 0.41883 0.0
C632 C 0.52571 0.33173 0.42433 0.0
C633 C 0.44461 0.30939 0.41156 0.0
C634 C 0.45932 0.35242 0.41071 0.0
C635 C 0.51418 0.4074 0.41681 0.0
C636 C 0.55431 0.41902 0.42358 0.0
C637 C 0.49967 0.36402 0.41718 0.0
C638 C 0.58015 0.3864 0.43046 0.0
C639 C 0.56602 0.34321 0.43083 0.0
H640 H 0.95736 0.43438 0.68298 0.0
H641 H 0.90758 0.34698 0.64789 0.0
H642 H 0.97866 0.31129 0.64597 0.0
H643 H 0.05392 0.30224 0.65549 0.0
H644 H 0.10266 0.38935 0.69091 0.0
H645 H 0.03344 0.42822 0.69132 0.0
C646 C 0.96235 0.40817 0.67469 0.0
C647 C 0.92726 0.39315 0.66567 0.0
C648 C 0.00309 0.38753 0.67378 0.0
C649 C 0.93404 0.35871 0.6551 0.0
C650 C 0.97463 0.33831 0.654 0.0
C651 C 0.04924 0.32973 0.66327 0.0
C652 C 0.08335 0.34286 0.67311 0.0
C653 C 0.00914 0.35184 0.66354 0.0
C654 C 0.07716 0.3789 0.68304 0.0
C655 C 0.03747 0.40104 0.68336 0.0
H656 H 0.09097 0.16655 0.01908 0.0
H657 H 0.09184 0.03402 0.03579 0.0
H658 H 0.1017 0.00728 0.00916 0.0
H659 H 0.09528 0.02148 0.98095 0.0
H660 H 0.09491 0.15409 0.96429 0.0
H661 H 0.10078 0.18091 0.99101 0.0
C662 C 0.09463 0.1319 0.0169 0.0
C663 C 0.08995 0.10226 0.02929 0.0
C664 C 0.09994 0.11676 1.00155 0.0
C665 C 0.09528 0.05748 0.02642 0.0
C666 C 0.10053 0.04214 0.01117 0.0
C667 C 0.09795 0.05619 0.98317 0.0
C668 C 0.09397 0.08574 0.97072 0.0
C669 C 0.10074 0.07142 0.9986 0.0
C670 C 0.0979 0.13063 0.97367 0.0
C671 C 0.10077 0.14604 0.98899 0.0
H672 H 0.1911 0.92476 0.26573 0.0
H673 H 0.32515 0.92784 0.28083 0.0
H674 H 0.34946 0.93372 0.25376 0.0
H675 H 0.33275 0.92486 0.2258 0.0
H676 H 0.19868 0.92326 0.2107 0.0
H677 H 0.17418 0.9308 0.2377 0.0
C678 C 0.22555 0.92796 0.26308 0.0
C679 C 0.2563 0.92527 0.2752 0.0
C680 C 0.2393 0.9311 0.24748 0.0
C681 C 0.30083 0.92989 0.2717 0.0
C682 C 0.31479 0.93284 0.2562 0.0
C683 C 0.29822 0.92741 0.22842 0.0
C684 C 0.26757 0.92294 0.21635 0.0
C685 C 0.28437 0.93153 0.24399 0.0
C686 C 0.22292 0.9267 0.2198 0.0
C687 C 0.20887 0.9306 0.23527 0.0
H688 H 0.4202 0.13929 0.53165 0.0
H689 H 0.42667 0.00038 0.52452 0.0
H690 H 0.41611 0.01037 0.49648 0.0
H691 H 0.41938 0.05908 0.4738 0.0
H692 H 0.42248 0.1981 0.48086 0.0
H693 H 0.414 0.18791 0.509 0.0
C694 C 0.41777 0.11121 0.524 0.0
C695 C 0.42427 0.06919 0.53006 0.0
C696 C 0.41399 0.11738 0.5078 0.0
C697 C 0.42186 0.03304 0.52004 0.0
C698 C 0.41605 0.03876 0.50401 0.0
C699 C 0.41659 0.0871 0.48147 0.0
C700 C 0.42153 0.12925 0.47534 0.0
C701 C 0.41415 0.08086 0.49769 0.0
C702 C 0.41875 0.16535 0.48538 0.0
C703 C 0.41421 0.15951 0.50147 0.0
H704 H 0.28818 0.24825 0.72555 0.0
H705 H 0.14993 0.26145 0.73332 0.0
H706 H 0.16047 0.25092 0.76135 0.0
H707 H 0.21039 0.25442 0.78374 0.0
H708 H 0.34913 0.2511 0.77583 0.0
H709 H 0.3373 0.24039 0.74789 0.0
C710 C 0.26023 0.24706 0.73332 0.0
C711 C 0.21837 0.25575 0.72745 0.0
C712 C 0.26687 0.24353 0.74949 0.0
C713 C 0.18247 0.25489 0.73764 0.0
C714 C 0.18854 0.24922 0.75367 0.0
C715 C 0.23789 0.24961 0.77595 0.0
C716 C 0.28053 0.2536 0.78173 0.0
C717 C 0.2308 0.24593 0.75979 0.0
C718 C 0.31602 0.24819 0.77155 0.0
C719 C 0.30926 0.24236 0.75558 0.0
H720 H 0.68491 0.43343 0.77255 0.0
H721 H 0.8187 0.42909 0.78788 0.0
H722 H 0.84366 0.43564 0.76087 0.0
H723 H 0.82689 0.42931 0.73281 0.0
H724 H 0.69307 0.43513 0.71754 0.0
H725 H 0.66864 0.44208 0.74458 0.0
C726 C 0.71951 0.43528 0.76998 0.0
C727 C 0.74992 0.4303 0.78212 0.0
C728 C 0.73359 0.43872 0.75443 0.0
C729 C 0.79466 0.43304 0.77872 0.0
C730 C 0.80896 0.4363 0.76326 0.0
C731 C 0.79248 0.4333 0.73541 0.0
C732 C 0.76178 0.43111 0.72326 0.0
C733 C 0.77867 0.43716 0.751 0.0
C734 C 0.71733 0.43676 0.7267 0.0
C735 C 0.70331 0.44036 0.74218 0.0
H736 H 0.80061 0.74827 0.22374 0.0
H737 H 0.66268 0.75722 0.23285 0.0
H738 H 0.67541 0.74497 0.26065 0.0
H739 H 0.7266 0.74857 0.28257 0.0
H740 H 0.8649 0.74891 0.27354 0.0
H741 H 0.85146 0.73958 0.24563 0.0
C742 C 0.77328 0.74566 0.23174 0.0
C743 C 0.7308 0.75371 0.22633 0.0
C744 C 0.78111 0.74106 0.24782 0.0
C745 C 0.69566 0.75112 0.23681 0.0
C746 C 0.70298 0.74448 0.25272 0.0
C747 C 0.75378 0.74484 0.27456 0.0
C748 C 0.79667 0.74969 0.28005 0.0
C749 C 0.74572 0.74187 0.25844 0.0
C750 C 0.83159 0.74544 0.26953 0.0
C751 C 0.8239 0.74042 0.25356 0.0
H752 H 0.59708 0.52753 0.48261 0.0
H753 H 0.60412 0.66104 0.46719 0.0
H754 H 0.61165 0.68549 0.49423 0.0
H755 H 0.60077 0.66947 0.52215 0.0
H756 H 0.59312 0.53577 0.53746 0.0
H757 H 0.60241 0.51074 0.51062 0.0
C758 C 0.6017 0.56185 0.48517 0.0
C759 C 0.59941 0.59252 0.47302 0.0
C760 C 0.60532 0.57564 0.50074 0.0
C761 C 0.60584 0.63684 0.47638 0.0
C762 C 0.60967 0.65086 0.49185 0.0
C763 C 0.60252 0.63485 0.51965 0.0
C764 C 0.59542 0.60456 0.53171 0.0
C765 C 0.60716 0.62069 0.50414 0.0
C766 C 0.59834 0.55979 0.52839 0.0
C767 C 0.60323 0.54543 0.513 0.0
H768 H 0.93241 0.66276 0.98533 0.0
H769 H 0.9261 0.52891 0.97018 0.0
H770 H 0.91269 0.5054 0.99702 0.0
H771 H 0.91637 0.52218 0.02514 0.0
H772 H 0.92123 0.65612 0.04026 0.0
H773 H 0.92053 0.68051 0.01311 0.0
C774 C 0.92685 0.62858 0.98789 0.0
C775 C 0.93082 0.59752 0.9759 0.0
C776 C 0.91927 0.61535 0.00335 0.0
C777 C 0.92314 0.55339 0.97924 0.0
C778 C 0.91585 0.53992 0.99461 0.0
C779 C 0.9158 0.55673 0.02246 0.0
C780 C 0.91929 0.58731 0.03462 0.0
C781 C 0.91579 0.57045 0.00682 0.0
C782 C 0.91832 0.63198 0.03108 0.0
C783 C 0.91844 0.64592 0.01555 0.0
H784 H 0.19271 0.98987 0.15352 0.0
H785 H 0.24386 0.92381 0.11297 0.0
H786 H 0.19922 0.96917 0.09595 0.0
H787 H 0.14564 0.02774 0.09248 0.0
H788 H 0.09771 0.0972 0.13282 0.0
H789 H 0.14113 0.05081 0.14994 0.0
C790 C 0.19392 0.9855 0.14096 0.0
C791 C 0.22141 0.95363 0.1345 0.0
C792 C 0.1689 0.01245 0.13117 0.0
C793 C 0.22311 0.94841 0.11821 0.0
C794 C 0.19754 0.97424 0.10845 0.0
C795 C 0.14484 0.03276 0.10502 0.0
C796 C 0.11854 0.06579 0.11135 0.0
C797 C 0.1704 0.00644 0.11479 0.0
C798 C 0.11797 0.07215 0.12762 0.0
C799 C 0.14263 0.04551 0.13744 0.0
H800 H 0.27833 0.95016 0.3782 0.0
H801 H 0.33423 0.99373 0.33469 0.0
H802 H 0.37895 0.04678 0.34873 0.0
H803 H 0.40309 0.07969 0.37336 0.0
H804 H 0.35123 0.03258 0.41703 0.0
H805 H 0.30376 0.98198 0.40292 0.0
C806 C 0.30011 0.97146 0.37178 0.0
C807 C 0.30275 0.96827 0.35542 0.0
C808 C 0.32638 0.00117 0.37996 0.0
C809 C 0.33162 0.99558 0.34729 0.0
C810 C 0.35713 0.02594 0.35531 0.0
C811 C 0.38108 0.05866 0.3798 0.0
C812 C 0.38027 0.0602 0.39622 0.0
C813 C 0.35484 0.02893 0.37164 0.0
C814 C 0.35227 0.03211 0.40439 0.0
C815 C 0.3252 0.00318 0.39633 0.0
H816 H 0.39272 0.11299 0.63175 0.0
H817 H 0.35508 0.17006 0.58777 0.0
H818 H 0.30541 0.21976 0.60139 0.0
H819 H 0.27421 0.24817 0.62587 0.0
H820 H 0.31576 0.19405 0.66988 0.0
H821 H 0.36238 0.14189 0.65615 0.0
C822 C 0.37339 0.13604 0.62511 0.0
C823 C 0.37735 0.13757 0.60874 0.0
C824 C 0.34571 0.1651 0.63304 0.0
C825 C 0.35257 0.16814 0.60036 0.0
C826 C 0.32419 0.19656 0.60815 0.0
C827 C 0.29318 0.22473 0.63246 0.0
C828 C 0.29125 0.2248 0.64889 0.0
C829 C 0.32067 0.19547 0.62449 0.0
C830 C 0.31659 0.19465 0.65725 0.0
C831 C 0.34325 0.16482 0.6494 0.0
H832 H 0.1483 0.15595 0.90707 0.0
H833 H 0.07149 0.11419 0.86771 0.0
H834 H 0.11849 0.1552 0.85001 0.0
H835 H 0.18183 0.20282 0.84565 0.0
H836 H 0.26107 0.24103 0.88495 0.0
H837 H 0.21323 0.20134 0.9026 0.0
C838 C 0.14186 0.15607 0.89463 0.0
C839 C 0.10651 0.13229 0.88871 0.0
C840 C 0.1697 0.17882 0.88445 0.0
C841 C 0.09871 0.13217 0.87254 0.0
C842 C 0.12554 0.15561 0.8624 0.0
C843 C 0.18872 0.20227 0.85806 0.0
C844 C 0.22499 0.22493 0.86391 0.0
C845 C 0.16127 0.17892 0.8682 0.0
C846 C 0.23351 0.22374 0.88005 0.0
C847 C 0.20604 0.20119 0.89021 0.0
H848 H 0.86433 0.09678 0.87526 0.0
H849 H 0.83781 0.14639 0.92134 0.0
H850 H 0.7799 0.19283 0.91097 0.0
H851 H 0.74985 0.23094 0.8881 0.0
H852 H 0.78144 0.18422 0.84189 0.0
H853 H 0.82287 0.12436 0.85296 0.0
C854 C 0.84461 0.11657 0.88306 0.0
C855 C 0.85545 0.11882 0.89893 0.0
C856 C 0.81268 0.1443 0.87693 0.0
C857 C 0.82983 0.14421 0.90905 0.0
C858 C 0.79713 0.17117 0.90309 0.0
C859 C 0.76494 0.207 0.88049 0.0
C860 C 0.76329 0.21266 0.86422 0.0
C861 C 0.79023 0.1734 0.88693 0.0
C862 C 0.78209 0.18081 0.85447 0.0
C863 C 0.8063 0.1467 0.86079 0.0
H864 H 0.65428 0.14529 0.59753 0.0
H865 H 0.59879 0.1035 0.64123 0.0
H866 H 0.65378 0.14518 0.65555 0.0
H867 H 0.70745 0.20416 0.65537 0.0
H868 H 0.7573 0.25232 0.61161 0.0
H869 H 0.71534 0.19713 0.59748 0.0
C870 C 0.65541 0.14411 0.61018 0.0
C871 C 0.62293 0.12144 0.6184 0.0
C872 C 0.68564 0.16991 0.61826 0.0
C873 C 0.6238 0.12069 0.63476 0.0
C874 C 0.65496 0.14475 0.64291 0.0
C875 C 0.71033 0.20149 0.64278 0.0
C876 C 0.73524 0.23217 0.63449 0.0
C877 C 0.68465 0.17108 0.63477 0.0
C878 C 0.73814 0.22902 0.61818 0.0
C879 C 0.71401 0.19766 0.61012 0.0
H880 H 0.74761 0.96656 0.38 0.0
H881 H 0.69135 0.98894 0.33454 0.0
H882 H 0.64209 0.04304 0.3455 0.0
H883 H 0.60711 0.07507 0.36851 0.0
H884 H 0.66037 0.05054 0.4142 0.0
H885 H 0.7189 0.00693 0.40268 0.0
C886 C 0.72502 0.98383 0.37249 0.0
C887 C 0.72296 0.97341 0.35652 0.0
C888 C 0.69594 0.01433 0.37893 0.0
C889 C 0.69398 0.99652 0.34685 0.0
C890 C 0.66541 0.02723 0.35313 0.0
C891 C 0.63219 0.06095 0.37587 0.0
C892 C 0.62933 0.06556 0.39213 0.0
C893 C 0.66499 0.03512 0.36922 0.0
C894 C 0.66209 0.04757 0.40161 0.0
C895 C 0.69528 0.02225 0.39505 0.0
H896 H 0.76954 0.97156 0.1282 0.0
H897 H 0.82156 0.01013 0.17281 0.0
H898 H 0.86146 0.06981 0.16048 0.0
H899 H 0.89342 0.09975 0.13645 0.0
H900 H 0.84365 0.05897 0.09176 0.0
H901 H 0.78991 0.01256 0.10462 0.0
C902 C 0.78861 0.99395 0.13522 0.0
C903 C 0.79331 0.9863 0.15129 0.0
C904 C 0.81206 0.02758 0.12801 0.0
C905 C 0.81761 0.01552 0.1604 0.0
C906 C 0.84067 0.0494 0.15334 0.0
C907 C 0.86961 0.08194 0.1296 0.0
C908 C 0.87271 0.08217 0.11324 0.0
C909 C 0.83989 0.05421 0.13707 0.0
C910 C 0.84173 0.05932 0.10439 0.0
C911 C 0.81142 0.0323 0.11173 0.0
H912 H 0.65375 0.43981 0.65098 0.0
H913 H 0.75701 0.52293 0.63426 0.0
H914 H 0.70679 0.55736 0.61589 0.0
H915 H 0.63435 0.56101 0.60351 0.0
H916 H 0.5321 0.47584 0.61992 0.0
H917 H 0.58099 0.44532 0.6394 0.0
C918 C 0.66507 0.46605 0.64356 0.0
C919 C 0.709 0.47891 0.64406 0.0
C920 C 0.63627 0.48505 0.63277 0.0
C921 C 0.72331 0.5124 0.6341 0.0
C922 C 0.69465 0.53203 0.62355 0.0
C923 C 0.62275 0.53588 0.61138 0.0
C924 C 0.57963 0.52067 0.61014 0.0
C925 C 0.65121 0.51809 0.62258 0.0
C926 C 0.56515 0.48812 0.6205 0.0
C927 C 0.59308 0.47061 0.6317 0.0
H928 H 0.90704 0.50724 0.8996 0.0
H929 H 0.8639 0.635 0.88532 0.0
H930 H 0.82016 0.60298 0.86459 0.0
H931 H 0.79796 0.53952 0.84934 0.0
H932 H 0.84125 0.41131 0.86295 0.0
H933 H 0.88098 0.44252 0.88503 0.0
C934 C 0.88739 0.52789 0.89213 0.0
C935 C 0.88883 0.57344 0.89397 0.0
C936 C 0.86277 0.50925 0.87996 0.0
C937 C 0.86354 0.59985 0.88409 0.0
C938 C 0.83861 0.58161 0.87219 0.0
C939 C 0.81603 0.51835 0.85714 0.0
C940 C 0.81676 0.47321 0.85445 0.0
C941 C 0.83875 0.53648 0.86978 0.0
C942 C 0.83996 0.44621 0.86479 0.0
C943 C 0.86279 0.46404 0.87741 0.0
H944 H 0.85734 0.66667 0.09991 0.0
H945 H 0.90466 0.5906 0.1387 0.0
H946 H 0.86404 0.6363 0.15689 0.0
H947 H 0.81558 0.69872 0.16196 0.0
H948 H 0.76491 0.77222 0.12309 0.0
H949 H 0.80603 0.72691 0.10489 0.0
C950 C 0.85858 0.66006 0.11233 0.0
C951 C 0.88401 0.62529 0.1179 0.0
C952 C 0.83451 0.6861 0.12278 0.0
C953 C 0.88512 0.61697 0.13405 0.0
C954 C 0.86202 0.64321 0.14451 0.0
C955 C 0.81351 0.70469 0.14951 0.0
C956 C 0.78728 0.73881 0.14392 0.0
C957 C 0.83669 0.67797 0.13903 0.0
C958 C 0.78468 0.746 0.12773 0.0
C959 C 0.80831 0.72018 0.11728 0.0
H960 H 0.71576 0.64856 0.34301 0.0
H961 H 0.69108 0.77779 0.36077 0.0
H962 H 0.65209 0.74706 0.38312 0.0
H963 H 0.62138 0.68293 0.39694 0.0
H964 H 0.64632 0.55434 0.37851 0.0
H965 H 0.68899 0.58527 0.3573 0.0
C966 C 0.70194 0.67005 0.35177 0.0
C967 C 0.70628 0.71537 0.35018 0.0
C968 C 0.67957 0.6522 0.36456 0.0
C969 C 0.68849 0.74272 0.36175 0.0
C970 C 0.66603 0.72517 0.37453 0.0
C971 C 0.63679 0.66177 0.38842 0.0
C972 C 0.63046 0.61642 0.38927 0.0
C973 C 0.66101 0.67989 0.376 0.0
C974 C 0.65036 0.58939 0.37806 0.0
C975 C 0.67475 0.60702 0.36589 0.0
H976 H 0.38959 0.60115 0.37002 0.0
H977 H 0.36081 0.64746 0.41639 0.0
H978 H 0.30447 0.69574 0.40605 0.0
H979 H 0.27447 0.73478 0.38334 0.0
H980 H 0.30389 0.6889 0.33695 0.0
H981 H 0.34807 0.62992 0.34771 0.0
C982 C 0.36982 0.62074 0.37786 0.0
C983 C 0.37938 0.62113 0.39388 0.0
C984 C 0.33804 0.64895 0.37179 0.0
C985 C 0.35374 0.64649 0.40401 0.0
C986 C 0.32189 0.67447 0.39808 0.0
C987 C 0.28946 0.71094 0.37566 0.0
C988 C 0.28637 0.71626 0.35942 0.0
C989 C 0.31533 0.6775 0.38193 0.0
C990 C 0.30568 0.68525 0.34951 0.0
C991 C 0.33132 0.65179 0.35565 0.0
H992 H 0.22231 0.68182 0.15369 0.0
H993 H 0.26505 0.72789 0.10873 0.0
H994 H 0.22146 0.6718 0.09579 0.0
H995 H 0.15858 0.6229 0.09738 0.0
H996 H 0.10943 0.58346 0.14234 0.0
H997 H 0.16854 0.6229 0.15527 0.0
C998 C 0.22351 0.67818 0.14109 0.0
C999 C 0.24658 0.70871 0.13211 0.0
C1000 C 0.19641 0.64762 0.13378 0.0
C1001 C 0.24747 0.70449 0.1158 0.0
C1002 C 0.22222 0.67276 0.10843 0.0
C1003 C 0.16194 0.62147 0.10997 0.0
C1004 C 0.1297 0.60072 0.11895 0.0
C1005 C 0.19461 0.64599 0.11729 0.0
C1006 C 0.13389 0.59954 0.13526 0.0
C1007 C 0.16747 0.62228 0.14263 0.0
H1008 H 0.16821 0.54627 0.90771 0.0
H1009 H 0.1158 0.6004 0.86528 0.0
H1010 H 0.16945 0.55974 0.84991 0.0
H1011 H 0.21976 0.49745 0.84849 0.0
H1012 H 0.2662 0.43824 0.8909 0.0
H1013 H 0.22748 0.49295 0.90642 0.0
C1014 C 0.16969 0.55049 0.89515 0.0
C1015 C 0.138 0.57592 0.88759 0.0
C1016 C 0.1993 0.52559 0.8864 0.0
C1017 C 0.13978 0.58066 0.87129 0.0
C1018 C 0.17027 0.55727 0.86252 0.0
C1019 C 0.22277 0.49779 0.86111 0.0
C1020 C 0.24558 0.46414 0.86862 0.0
C1021 C 0.1986 0.52792 0.86991 0.0
C1022 C 0.24879 0.4641 0.88496 0.0
C1023 C 0.22636 0.49508 0.8938 0.0
H1024 H 0.27573 0.45754 0.62655 0.0
H1025 H 0.31505 0.50944 0.67113 0.0
H1026 H 0.34939 0.57157 0.65819 0.0
H1027 H 0.37814 0.60416 0.6341 0.0
H1028 H 0.34345 0.54733 0.58964 0.0
H1029 H 0.29607 0.49572 0.6026 0.0
C1030 C 0.29126 0.48287 0.63342 0.0
C1031 C 0.29356 0.47867 0.64969 0.0
C1032 C 0.3118 0.51779 0.62591 0.0
C1033 C 0.31294 0.512 0.65854 0.0
C1034 C 0.33282 0.54737 0.65115 0.0
C1035 C 0.35982 0.58087 0.62722 0.0
C1036 C 0.36534 0.57936 0.61091 0.0
C1037 C 0.33401 0.54959 0.6348 0.0
C1038 C 0.34004 0.54978 0.60218 0.0
C1039 C 0.31324 0.51959 0.60961 0.0
H1040 H 0.9416 0.91218 0.06939 0.0
H1041 H 0.08106 0.92972 0.07006 0.0
H1042 H 0.09145 0.85099 0.07226 0.0
H1043 H 0.06087 0.77711 0.0729 0.0
H1044 H 0.92146 0.75935 0.07201 0.0
H1045 H 0.91091 0.83832 0.0711 0.0
C1046 C 0.97423 0.89871 0.06995 0.0
C1047 C 0.01051 0.92668 0.06943 0.0
C1048 C 0.97991 0.85346 0.07119 0.0
C1049 C 0.05263 0.90889 0.07053 0.0
C1050 C 0.05858 0.86389 0.0717 0.0
C1051 C 0.02821 0.79056 0.07245 0.0
C1052 C 0.99202 0.76245 0.07238 0.0
C1053 C 0.02247 0.83587 0.07187 0.0
C1054 C 0.94982 0.78031 0.07217 0.0
C1055 C 0.9438 0.82542 0.07155 0.0
H1056 H 0.45039 0.7881 0.31974 0.0
H1057 H 0.43205 0.91875 0.30269 0.0
H1058 H 0.51135 0.92806 0.30045 0.0
H1059 H 0.58607 0.89745 0.30253 0.0
H1060 H 0.60338 0.76785 0.32083 0.0
H1061 H 0.52447 0.75945 0.32342 0.0
C1062 C 0.4639 0.81858 0.31556 0.0
C1063 C 0.43564 0.85257 0.31124 0.0
C1064 C 0.50928 0.82371 0.31449 0.0
C1065 C 0.45333 0.89225 0.30612 0.0
C1066 C 0.49856 0.89743 0.30476 0.0
C1067 C 0.57236 0.86747 0.30707 0.0
C1068 C 0.60037 0.8332 0.3114 0.0
C1069 C 0.52688 0.86318 0.30876 0.0
C1070 C 0.58243 0.7947 0.31751 0.0
C1071 C 0.53736 0.78984 0.31893 0.0
H1072 H 0.5602 0.28059 0.5614 0.0
H1073 H 0.42131 0.25973 0.56415 0.0
H1074 H 0.40884 0.33824 0.56274 0.0
H1075 H 0.43735 0.41285 0.56073 0.0
H1076 H 0.57612 0.43386 0.55787 0.0
H1077 H 0.58871 0.35523 0.55921 0.0
C1078 C 0.52717 0.29312 0.56155 0.0
C1079 C 0.49175 0.26409 0.56285 0.0
C1080 C 0.52024 0.33837 0.56068 0.0
C1081 C 0.44921 0.28117 0.56334 0.0
C1082 C 0.44204 0.32611 0.56242 0.0
C1083 C 0.47032 0.40022 0.56019 0.0
C1084 C 0.50574 0.42929 0.5591 0.0
C1085 C 0.47728 0.355 0.56106 0.0
C1086 C 0.54832 0.41232 0.55879 0.0
C1087 C 0.55551 0.36733 0.55951 0.0
H1088 H 0.07497 0.39661 0.8167 0.0
H1089 H 0.09305 0.25733 0.81804 0.0
H1090 H 0.01392 0.24677 0.81808 0.0
H1091 H 0.93939 0.27744 0.81712 0.0
H1092 H 0.92219 0.41689 0.81594 0.0
H1093 H 0.0011 0.42714 0.81638 0.0
C1094 C 0.06162 0.36393 0.8169 0.0
C1095 C 0.08992 0.32781 0.81723 0.0
C1096 C 0.0162 0.35818 0.81693 0.0
C1097 C 0.07203 0.28568 0.81786 0.0
C1098 C 0.02678 0.27965 0.81779 0.0
C1099 C 0.953 0.31001 0.81687 0.0
C1100 C 0.92492 0.34635 0.81645 0.0
C1101 C 0.99853 0.31567 0.81721 0.0
C1102 C 0.94301 0.38841 0.81641 0.0
C1103 C 0.98815 0.39429 0.81659 0.0
H1104 H 0.05448 0.26943 0.92749 0.0
H1105 H 0.92118 0.26398 0.94324 0.0
H1106 H 0.91485 0.34321 0.94083 0.0
H1107 H 0.95004 0.41457 0.93686 0.0
H1108 H 0.0851 0.41994 0.92344 0.0
H1109 H 0.08815 0.34023 0.92191 0.0
C1110 C 0.0239 0.28566 0.93009 0.0
C1111 C 0.98846 0.26129 0.93562 0.0
C1112 C 0.02099 0.33112 0.92909 0.0
C1113 C 0.94903 0.28243 0.93917 0.0
C1114 C 0.94538 0.32758 0.93774 0.0
C1115 C 0.97962 0.398 0.93324 0.0
C1116 C 0.01724 0.42239 0.9302 0.0
C1117 C 0.98149 0.35235 0.93309 0.0
C1118 C 0.05591 0.40122 0.9258 0.0
C1119 C 0.05764 0.35589 0.92501 0.0
H1120 H 0.0771 0.77676 0.17882 0.0
H1121 H 0.09742 0.9118 0.19045 0.0
H1122 H 0.01905 0.92122 0.19497 0.0
H1123 H 0.94524 0.88988 0.19653 0.0
H1124 H 0.92494 0.75533 0.18415 0.0
H1125 H 0.00299 0.74651 0.17899 0.0
C1126 C 0.06421 0.80818 0.18234 0.0
C1127 C 0.0927 0.84347 0.18444 0.0
C1128 C 0.01936 0.81325 0.18483 0.0
C1129 C 0.07585 0.88433 0.1887 0.0
C1130 C 0.03121 0.88959 0.19138 0.0
C1131 C 0.95811 0.85867 0.19277 0.0
C1132 C 0.92979 0.82313 0.19087 0.0
C1133 C 0.00277 0.85412 0.18965 0.0
C1134 C 0.94637 0.78304 0.18565 0.0
C1135 C 0.99086 0.77801 0.18275 0.0
H1136 H 0.45134 0.78113 0.43286 0.0
H1137 H 0.59088 0.7679 0.43607 0.0
H1138 H 0.59849 0.84735 0.43749 0.0
H1139 H 0.56465 0.92031 0.43935 0.0
H1140 H 0.42499 0.93281 0.43586 0.0
H1141 H 0.418 0.85384 0.43304 0.0
C1142 C 0.48339 0.79573 0.43384 0.0
C1143 C 0.52047 0.76881 0.43453 0.0
C1144 C 0.48736 0.84118 0.4347 0.0
C1145 C 0.56193 0.78803 0.43545 0.0
C1146 C 0.5662 0.83337 0.43639 0.0
C1147 C 0.53275 0.90562 0.43801 0.0
C1148 C 0.49531 0.93222 0.43797 0.0
C1149 C 0.52906 0.86021 0.4363 0.0
C1150 C 0.45421 0.91298 0.43588 0.0
C1151 C 0.45022 0.86787 0.43433 0.0
H1152 H 0.57392 0.28526 0.68308 0.0
H1153 H 0.58735 0.42148 0.6942 0.0
H1154 H 0.50833 0.42745 0.69805 0.0
H1155 H 0.43585 0.39267 0.69933 0.0
H1156 H 0.42243 0.25714 0.68717 0.0
H1157 H 0.50115 0.25176 0.68265 0.0
C1158 C 0.55938 0.3162 0.68632 0.0
C1159 C 0.58617 0.3528 0.68851 0.0
C1160 C 0.51414 0.3193 0.6884 0.0
C1161 C 0.56716 0.393 0.6924 0.0
C1162 C 0.52214 0.39629 0.6947 0.0
C1163 C 0.45038 0.36204 0.69574 0.0
C1164 C 0.4238 0.32517 0.69376 0.0
C1165 C 0.49541 0.3595 0.69293 0.0
C1166 C 0.44251 0.28581 0.68876 0.0
C1167 C 0.48738 0.28276 0.68622 0.0
loop_
_geom_bond_atom_site_label_1
_geom_bond_atom_site_label_2
_geom_bond_distance
_geom_bond_site_symmetry_2
_ccdc_geom_bond_type
C0 C1 1.351 1_545 S
C0 N3 1.368 1_655 S
C0 H5 0.931 . S
C1 C0 1.351 1_565 S
C1 N2 1.373 1_655 S
C1 H29 0.930 . S
N2 C1 1.373 1_455 S
N2 C4 1.340 . S
N3 C0 1.368 1_455 S
N3 C4 1.321 1_545 S
N3 Co6 2.135 . S
C4 N2 1.340 . S
C4 N3 1.321 1_565 S
C4 H28 0.930 . S
H5 C0 0.931 . S
Co6 N3 2.135 . S
Co6 N9 2.121 . S
Co6 O14 2.055 . S
Co6 O17 2.039 . S
Co6 N20 2.140 1_455 S
C7 O8 1.227 . S
C7 O17 1.265 . S
O8 C7 1.227 . S
N9 Co6 2.121 . S
N9 C11 1.375 . S
N9 C12 1.313 . S
C10 C11 1.338 . S
C10 N13 1.377 . S
C10 H30 0.930 . S
C11 N9 1.375 . S
C11 C10 1.338 . S
C11 H15 0.931 . S
C12 N9 1.313 . S
C12 N13 1.344 . S
C12 H16 0.930 . S
N13 C10 1.377 . S
N13 C12 1.344 . S
O14 Co6 2.055 . S
O14 C18 1.253 . S
H15 C11 0.931 . S
H16 C12 0.930 . S
O17 Co6 2.039 . S
O17 C7 1.265 . S
C18 O14 1.253 . S
C18 O19 1.227 1_455 S
O19 C18 1.227 1_655 S
N20 Co6 2.140 1_655 S
N20 C23 1.346 . S
N20 C24 1.345 . S
C21 C22 1.387 . S
C21 C25 1.391 . S
C22 C21 1.387 . S
C22 C23 1.369 . S
C22 H31 0.929 . S
C23 N20 1.346 . S
C23 C22 1.369 . S
C23 H26 0.928 . S
C24 N20 1.345 . S
C24 C25 1.371 . S
C24 H27 0.931 . S
C25 C21 1.391 . S
C25 C24 1.371 . S
C25 H32 0.930 . S
H26 C23 0.928 . S
H27 C24 0.931 . S
H28 C4 0.930 . S
H29 C1 0.930 . S
H30 C10 0.930 . S
H31 C22 0.929 . S
H32 C25 0.930 . S
C33 C34 1.351 . S
C33 N36 1.368 . S
C33 H38 0.931 . S
C34 C33 1.351 . S
C34 N35 1.373 . S
C34 H62 0.930 . S
N35 C34 1.373 . S
N35 C37 1.340 . S
N36 C33 1.368 . S
N36 C37 1.321 . S
N36 Co39 2.135 . S
C37 N35 1.340 . S
C37 N36 1.321 . S
C37 H61 0.930 . S
H38 C33 0.931 . S
Co39 N36 2.135 . S
Co39 N42 2.121 . S
Co39 O47 2.055 . S
Co39 O50 2.039 . S
Co39 N53 2.140 . S
C40 O41 1.227 . S
C40 O50 1.265 . S
O41 C40 1.227 . S
N42 Co39 2.121 . S
N42 C44 1.375 . S
N42 C45 1.313 . S
C43 C44 1.338 . S
C43 N46 1.377 . S
C43 H63 0.930 . S
C44 N42 1.375 . S
C44 C43 1.338 . S
C44 H48 0.931 . S
C45 N42 1.313 . S
C45 N46 1.344 . S
C45 H49 0.930 . S
N46 C43 1.377 . S
N46 C45 1.344 . S
O47 Co39 2.055 . S
O47 C51 1.253 . S
H48 C44 0.931 . S
H49 C45 0.930 . S
O50 Co39 2.039 . S
O50 C40 1.265 . S
C51 O47 1.253 . S
C51 O52 1.227 . S
O52 C51 1.227 . S
N53 Co39 2.140 . S
N53 C56 1.346 . S
N53 C57 1.345 . S
C54 C55 1.387 . S
C54 C58 1.391 . S
C55 C54 1.387 . S
C55 C56 1.369 . S
C55 H64 0.929 . S
C56 N53 1.346 . S
C56 C55 1.369 . S
C56 H59 0.928 . S
C57 N53 1.345 . S
C57 C58 1.371 . S
C57 H60 0.931 . S
C58 C54 1.391 . S
C58 C57 1.371 . S
C58 H65 0.930 . S
H59 C56 0.928 . S
H60 C57 0.931 . S
H61 C37 0.930 . S
H62 C34 0.930 . S
H63 C43 0.930 . S
H64 C55 0.929 . S
H65 C58 0.930 . S
C66 C67 1.351 . S
C66 N69 1.368 . S
C66 H71 0.931 . S
C67 C66 1.351 . S
C67 N68 1.373 . S
C67 H95 0.930 . S
N68 C67 1.373 . S
N68 C70 1.340 . S
N69 C66 1.368 . S
N69 C70 1.321 . S
N69 Co72 2.135 . S
C70 N68 1.340 . S
C70 N69 1.321 . S
C70 H94 0.930 . S
H71 C66 0.931 . S
Co72 N69 2.135 . S
Co72 N75 2.121 . S
Co72 O80 2.055 . S
Co72 O83 2.039 . S
Co72 N86 2.140 . S
C73 O74 1.227 . S
C73 O83 1.265 . S
O74 C73 1.227 . S
N75 Co72 2.121 . S
N75 C77 1.375 . S
N75 C78 1.313 . S
C76 C77 1.338 1_565 S
C76 N79 1.377 . S
C76 H96 0.930 . S
C77 N75 1.375 . S
C77 C76 1.338 1_545 S
C77 H81 0.931 . S
C78 N75 1.313 . S
C78 N79 1.344 1_545 S
C78 H82 0.930 . S
N79 C76 1.377 . S
N79 C78 1.344 1_565 S
O80 Co72 2.055 . S
O80 C84 1.253 . S
H81 C77 0.931 . S
H82 C78 0.930 . S
O83 Co72 2.039 . S
O83 C73 1.265 . S
C84 O80 1.253 . S
C84 O85 1.227 . S
O85 C84 1.227 . S
N86 Co72 2.140 . S
N86 C89 1.346 . S
N86 C90 1.345 . S
C87 C88 1.387 . S
C87 C91 1.391 . S
C88 C87 1.387 . S
C88 C89 1.369 . S
C88 H97 0.929 . S
C89 N86 1.346 . S
C89 C88 1.369 . S
C89 H92 0.928 . S
C90 N86 1.345 . S
C90 C91 1.371 . S
C90 H93 0.931 . S
C91 C87 1.391 . S
C91 C90 1.371 . S
C91 H98 0.930 . S
H92 C89 0.928 . S
H93 C90 0.931 . S
H94 C70 0.930 . S
H95 C67 0.930 . S
H96 C76 0.930 . S
H97 C88 0.929 . S
H98 C91 0.930 . S
C99 C100 1.351 . S
C99 N102 1.368 . S
C99 H104 0.931 . S
C100 C99 1.351 . S
C100 N101 1.373 . S
C100 H128 0.930 . S
N101 C100 1.373 . S
N101 C103 1.340 . S
N102 C99 1.368 . S
N102 C103 1.321 . S
N102 Co105 2.135 . S
C103 N101 1.340 . S
C103 N102 1.321 . S
C103 H127 0.930 . S
H104 C99 0.931 . S
Co105 N102 2.135 . S
Co105 N108 2.121 . S
Co105 O113 2.055 . S
Co105 O116 2.039 . S
Co105 N119 2.140 . S
C106 O107 1.227 . S
C106 O116 1.265 . S
O107 C106 1.227 . S
N108 Co105 2.121 . S
N108 C110 1.375 . S
N108 C111 1.313 . S
C109 C110 1.338 . S
C109 N112 1.377 . S
C109 H129 0.930 . S
C110 N108 1.375 . S
C110 C109 1.338 . S
C110 H114 0.931 . S
C111 N108 1.313 . S
C111 N112 1.344 . S
C111 H115 0.930 . S
N112 C109 1.377 . S
N112 C111 1.344 . S
O113 Co105 2.055 . S
O113 C117 1.253 . S
H114 C110 0.931 . S
H115 C111 0.930 . S
O116 Co105 2.039 . S
O116 C106 1.265 . S
C117 O113 1.253 . S
C117 O118 1.227 . S
O118 C117 1.227 . S
N119 Co105 2.140 . S
N119 C122 1.346 . S
N119 C123 1.345 . S
C120 C121 1.387 . S
C120 C124 1.391 . S
C121 C120 1.387 . S
C121 C122 1.369 . S
C121 H130 0.929 . S
C122 N119 1.346 . S
C122 C121 1.369 . S
C122 H125 0.928 . S
C123 N119 1.345 . S
C123 C124 1.371 . S
C123 H126 0.931 . S
C124 C120 1.391 . S
C124 C123 1.371 . S
C124 H131 0.930 . S
H125 C122 0.928 . S
H126 C123 0.931 . S
H127 C103 0.930 . S
H128 C100 0.930 . S
H129 C109 0.930 . S
H130 C121 0.929 . S
H131 C124 0.930 . S
C132 C133 1.351 . S
C132 N135 1.368 1_655 S
C132 H137 0.931 . S
C133 C132 1.351 . S
C133 N134 1.373 1_655 S
C133 H161 0.930 . S
N134 C133 1.373 1_455 S
N134 C136 1.340 . S
N135 C132 1.368 1_455 S
N135 C136 1.321 . S
N135 Co138 2.135 . S
C136 N134 1.340 . S
C136 N135 1.321 . S
C136 H160 0.930 . S
H137 C132 0.931 . S
Co138 N135 2.135 . S
Co138 N141 2.121 . S
Co138 O146 2.055 . S
Co138 O149 2.039 . S
Co138 N152 2.140 1_455 S
C139 O140 1.227 . S
C139 O149 1.265 . S
O140 C139 1.227 . S
N141 Co138 2.121 . S
N141 C143 1.375 . S
N141 C144 1.313 . S
C142 C143 1.338 1_565 S
C142 N145 1.377 . S
C142 H162 0.930 . S
C143 N141 1.375 . S
C143 C142 1.338 1_545 S
C143 H147 0.931 . S
C144 N141 1.313 . S
C144 N145 1.344 1_545 S
C144 H148 0.930 . S
N145 C142 1.377 . S
N145 C144 1.344 1_565 S
O146 Co138 2.055 . S
O146 C150 1.253 . S
H147 C143 0.931 . S
H148 C144 0.930 . S
O149 Co138 2.039 . S
O149 C139 1.265 . S
C150 O146 1.253 . S
C150 O151 1.227 1_455 S
O151 C150 1.227 1_655 S
N152 Co138 2.140 1_655 S
N152 C155 1.346 . S
N152 C156 1.345 . S
C153 C154 1.387 . S
C153 C157 1.391 . S
C154 C153 1.387 . S
C154 C155 1.369 . S
C154 H163 0.929 . S
C155 N152 1.346 . S
C155 C154 1.369 . S
C155 H158 0.928 . S
C156 N152 1.345 . S
C156 C157 1.371 . S
C156 H159 0.931 . S
C157 C153 1.391 . S
C157 C156 1.371 . S
C157 H164 0.930 . S
H158 C155 0.928 . S
H159 C156 0.931 . S
H160 C136 0.930 . S
H161 C133 0.930 . S
H162 C142 0.930 . S
H163 C154 0.929 . S
H164 C157 0.930 . S
C165 C166 1.351 . S
C165 N168 1.368 . S
C165 H170 0.931 . S
C166 C165 1.351 . S
C166 N167 1.373 . S
C166 H194 0.930 . S
N167 C166 1.373 . S
N167 C169 1.340 . S
N168 C165 1.368 . S
N168 C169 1.321 . S
N168 Co171 2.135 . S
C169 N167 1.340 . S
C169 N168 1.321 . S
C169 H193 0.930 . S
H170 C165 0.931 . S
Co171 N168 2.135 . S
Co171 N174 2.121 . S
Co171 O179 2.055 . S
Co171 O182 2.039 . S
Co171 N185 2.140 . S
C172 O173 1.227 . S
C172 O182 1.265 . S
O173 C172 1.227 . S
N174 Co171 2.121 . S
N174 C176 1.375 . S
N174 C177 1.313 . S
C175 C176 1.338 . S
C175 N178 1.377 . S
C175 H195 0.930 . S
C176 N174 1.375 . S
C176 C175 1.338 . S
C176 H180 0.931 . S
C177 N174 1.313 . S
C177 N178 1.344 . S
C177 H181 0.930 . S
N178 C175 1.377 . S
N178 C177 1.344 . S
O179 Co171 2.055 . S
O179 C183 1.253 . S
H180 C176 0.931 . S
H181 C177 0.930 . S
O182 Co171 2.039 . S
O182 C172 1.265 . S
C183 O179 1.253 . S
C183 O184 1.227 . S
O184 C183 1.227 . S
N185 Co171 2.140 . S
N185 C188 1.346 . S
N185 C189 1.345 . S
C186 C187 1.387 . S
C186 C190 1.391 . S
C187 C186 1.387 . S
C187 C188 1.369 . S
C187 H196 0.929 . S
C188 N185 1.346 . S
C188 C187 1.369 . S
C188 H191 0.928 . S
C189 N185 1.345 . S
C189 C190 1.371 . S
C189 H192 0.931 . S
C190 C186 1.391 . S
C190 C189 1.371 . S
C190 H197 0.930 . S
H191 C188 0.928 . S
H192 C189 0.931 . S
H193 C169 0.930 . S
H194 C166 0.930 . S
H195 C175 0.930 . S
H196 C187 0.929 . S
H197 C190 0.930 . S
C198 C199 1.351 1_545 S
C198 N201 1.368 . S
C198 H203 0.931 . S
C199 C198 1.351 1_565 S
C199 N200 1.373 . S
C199 H227 0.930 . S
N200 C199 1.373 . S
N200 C202 1.340 . S
N201 C198 1.368 . S
N201 C202 1.321 1_545 S
N201 Co204 2.135 . S
C202 N200 1.340 . S
C202 N201 1.321 1_565 S
C202 H226 0.930 . S
H203 C198 0.931 . S
Co204 N201 2.135 . S
Co204 N207 2.121 . S
Co204 O212 2.055 . S
Co204 O215 2.039 . S
Co204 N218 2.140 . S
C205 O206 1.227 . S
C205 O215 1.265 . S
O206 C205 1.227 . S
N207 Co204 2.121 . S
N207 C209 1.375 . S
N207 C210 1.313 . S
C208 C209 1.338 . S
C208 N211 1.377 . S
C208 H228 0.930 . S
C209 N207 1.375 . S
C209 C208 1.338 . S
C209 H213 0.931 . S
C210 N207 1.313 . S
C210 N211 1.344 . S
C210 H214 0.930 . S
N211 C208 1.377 . S
N211 C210 1.344 . S
O212 Co204 2.055 . S
O212 C216 1.253 . S
H213 C209 0.931 . S
H214 C210 0.930 . S
O215 Co204 2.039 . S
O215 C205 1.265 . S
C216 O212 1.253 . S
C216 O217 1.227 . S
O217 C216 1.227 . S
N218 Co204 2.140 . S
N218 C221 1.346 . S
N218 C222 1.345 . S
C219 C220 1.387 . S
C219 C223 1.391 . S
C220 C219 1.387 . S
C220 C221 1.369 . S
C220 H229 0.929 . S
C221 N218 1.346 . S
C221 C220 1.369 . S
C221 H224 0.928 . S
C222 N218 1.345 . S
C222 C223 1.371 . S
C222 H225 0.931 . S
C223 C219 1.391 . S
C223 C222 1.371 . S
C223 H230 0.930 . S
H224 C221 0.928 . S
H225 C222 0.931 . S
H226 C202 0.930 . S
H227 C199 0.930 . S
H228 C208 0.930 . S
H229 C220 0.929 . S
H230 C223 0.930 . S
C231 C232 1.351 . S
C231 N234 1.368 . S
C231 H236 0.931 . S
C232 C231 1.351 . S
C232 N233 1.373 . S
C232 H260 0.930 . S
N233 C232 1.373 . S
N233 C235 1.340 . S
N234 C231 1.368 . S
N234 C235 1.321 . S
N234 Co237 2.135 . S
C235 N233 1.340 . S
C235 N234 1.321 . S
C235 H259 0.930 . S
H236 C231 0.931 . S
Co237 N234 2.135 . S
Co237 N240 2.121 . S
Co237 O245 2.055 . S
Co237 O248 2.039 . S
Co237 N251 2.140 . S
C238 O239 1.227 . S
C238 O248 1.265 . S
O239 C238 1.227 . S
N240 Co237 2.121 . S
N240 C242 1.375 . S
N240 C243 1.313 . S
C241 C242 1.338 . S
C241 N244 1.377 . S
C241 H261 0.930 . S
C242 N240 1.375 . S
C242 C241 1.338 . S
C242 H246 0.931 . S
C243 N240 1.313 . S
C243 N244 1.344 . S
C243 H247 0.930 . S
N244 C241 1.377 . S
N244 C243 1.344 . S
O245 Co237 2.055 . S
O245 C249 1.253 . S
H246 C242 0.931 . S
H247 C243 0.930 . S
O248 Co237 2.039 . S
O248 C238 1.265 . S
C249 O245 1.253 . S
C249 O250 1.227 . S
O250 C249 1.227 . S
N251 Co237 2.140 . S
N251 C254 1.346 . S
N251 C255 1.345 . S
C252 C253 1.387 . S
C252 C256 1.391 . S
C253 C252 1.387 . S
C253 C254 1.369 . S
C253 H262 0.929 . S
C254 N251 1.346 . S
C254 C253 1.369 . S
C254 H257 0.928 . S
C255 N251 1.345 . S
C255 C256 1.371 . S
C255 H258 0.931 . S
C256 C252 1.391 . S
C256 C255 1.371 . S
C256 H263 0.930 . S
H257 C254 0.928 . S
H258 C255 0.931 . S
H259 C235 0.930 . S
H260 C232 0.930 . S
H261 C241 0.930 . S
H262 C253 0.929 . S
H263 C256 0.930 . S
C264 C265 1.351 . S
C264 N267 1.368 . S
C264 H269 0.931 . S
C265 C264 1.351 . S
C265 N266 1.373 . S
C265 H293 0.930 . S
N266 C265 1.373 . S
N266 C268 1.340 . S
N267 C264 1.368 . S
N267 C268 1.321 . S
N267 Co270 2.135 . S
C268 N266 1.340 . S
C268 N267 1.321 . S
C268 H292 0.930 . S
H269 C264 0.931 . S
Co270 N267 2.135 . S
Co270 N273 2.121 . S
Co270 O278 2.055 . S
Co270 O281 2.039 . S
Co270 N284 2.140 . S
C271 O272 1.227 . S
C271 O281 1.265 . S
O272 C271 1.227 . S
N273 Co270 2.121 . S
N273 C275 1.375 . S
N273 C276 1.313 . S
C274 C275 1.338 . S
C274 N277 1.377 . S
C274 H294 0.930 . S
C275 N273 1.375 . S
C275 C274 1.338 . S
C275 H279 0.931 . S
C276 N273 1.313 . S
C276 N277 1.344 . S
C276 H280 0.930 . S
N277 C274 1.377 . S
N277 C276 1.344 . S
O278 Co270 2.055 . S
O278 C282 1.253 . S
H279 C275 0.931 . S
H280 C276 0.930 . S
O281 Co270 2.039 . S
O281 C271 1.265 . S
C282 O278 1.253 . S
C282 O283 1.227 . S
O283 C282 1.227 . S
N284 Co270 2.140 . S
N284 C287 1.346 . S
N284 C288 1.345 . S
C285 C286 1.387 . S
C285 C289 1.391 . S
C286 C285 1.387 . S
C286 C287 1.369 . S
C286 H295 0.929 . S
C287 N284 1.346 . S
C287 C286 1.369 . S
C287 H290 0.928 . S
C288 N284 1.345 . S
C288 C289 1.371 . S
C288 H291 0.931 . S
C289 C285 1.391 . S
C289 C288 1.371 . S
C289 H296 0.930 . S
H290 C287 0.928 . S
H291 C288 0.931 . S
H292 C268 0.930 . S
H293 C265 0.930 . S
H294 C274 0.930 . S
H295 C286 0.929 . S
H296 C289 0.930 . S
C297 C298 1.351 . S
C297 N300 1.368 . S
C297 H302 0.931 . S
C298 C297 1.351 . S
C298 N299 1.373 . S
C298 H326 0.930 . S
N299 C298 1.373 . S
N299 C301 1.340 . S
N300 C297 1.368 . S
N300 C301 1.321 . S
N300 Co303 2.135 . S
C301 N299 1.340 . S
C301 N300 1.321 . S
C301 H325 0.930 . S
H302 C297 0.931 . S
Co303 N300 2.135 . S
Co303 N306 2.121 . S
Co303 O311 2.055 . S
Co303 O314 2.039 . S
Co303 N317 2.140 . S
C304 O305 1.227 . S
C304 O314 1.265 . S
O305 C304 1.227 . S
N306 Co303 2.121 . S
N306 C308 1.375 . S
N306 C309 1.313 . S
C307 C308 1.338 . S
C307 N310 1.377 . S
C307 H327 0.930 . S
C308 N306 1.375 . S
C308 C307 1.338 . S
C308 H312 0.931 . S
C309 N306 1.313 . S
C309 N310 1.344 . S
C309 H313 0.930 . S
N310 C307 1.377 . S
N310 C309 1.344 . S
O311 Co303 2.055 . S
O311 C315 1.253 . S
H312 C308 0.931 . S
H313 C309 0.930 . S
O314 Co303 2.039 . S
O314 C304 1.265 . S
C315 O311 1.253 . S
C315 O316 1.227 . S
O316 C315 1.227 . S
N317 Co303 2.140 . S
N317 C320 1.346 . S
N317 C321 1.345 . S
C318 C319 1.387 . S
C318 C322 1.391 . S
C319 C318 1.387 . S
C319 C320 1.369 . S
C319 H328 0.929 . S
C320 N317 1.346 . S
C320 C319 1.369 . S
C320 H323 0.928 . S
C321 N317 1.345 . S
C321 C322 1.371 . S
C321 H324 0.931 . S
C322 C318 1.391 . S
C322 C321 1.371 . S
C322 H329 0.930 . S
H323 C320 0.928 . S
H324 C321 0.931 . S
H325 C301 0.930 . S
H326 C298 0.930 . S
H327 C307 0.930 . S
H328 C319 0.929 . S
H329 C322 0.930 . S
C330 C331 1.351 . S
C330 N333 1.368 . S
C330 H335 0.931 . S
C331 C330 1.351 . S
C331 N332 1.373 . S
C331 H359 0.930 . S
N332 C331 1.373 . S
N332 C334 1.340 . S
N333 C330 1.368 . S
N333 C334 1.321 . S
N333 Co336 2.135 . S
C334 N332 1.340 . S
C334 N333 1.321 . S
C334 H358 0.930 . S
H335 C330 0.931 . S
Co336 N333 2.135 . S
Co336 N339 2.121 . S
Co336 O344 2.055 . S
Co336 O347 2.039 . S
Co336 N350 2.140 . S
C337 O338 1.227 . S
C337 O347 1.265 . S
O338 C337 1.227 . S
N339 Co336 2.121 . S
N339 C341 1.375 . S
N339 C342 1.313 . S
C340 C341 1.338 . S
C340 N343 1.377 . S
C340 H360 0.930 . S
C341 N339 1.375 . S
C341 C340 1.338 . S
C341 H345 0.931 . S
C342 N339 1.313 . S
C342 N343 1.344 . S
C342 H346 0.930 . S
N343 C340 1.377 . S
N343 C342 1.344 . S
O344 Co336 2.055 . S
O344 C348 1.253 . S
H345 C341 0.931 . S
H346 C342 0.930 . S
O347 Co336 2.039 . S
O347 C337 1.265 . S
C348 O344 1.253 . S
C348 O349 1.227 . S
O349 C348 1.227 . S
N350 Co336 2.140 . S
N350 C353 1.346 . S
N350 C354 1.345 . S
C351 C352 1.387 . S
C351 C355 1.391 . S
C352 C351 1.387 . S
C352 C353 1.369 . S
C352 H361 0.929 . S
C353 N350 1.346 . S
C353 C352 1.369 . S
C353 H356 0.928 . S
C354 N350 1.345 . S
C354 C355 1.371 . S
C354 H357 0.931 . S
C355 C351 1.391 . S
C355 C354 1.371 . S
C355 H362 0.930 . S
H356 C353 0.928 . S
H357 C354 0.931 . S
H358 C334 0.930 . S
H359 C331 0.930 . S
H360 C340 0.930 . S
H361 C352 0.929 . S
H362 C355 0.930 . S
C363 C364 1.351 . S
C363 N366 1.368 . S
C363 H368 0.931 . S
C364 C363 1.351 . S
C364 N365 1.373 . S
C364 H392 0.930 . S
N365 C364 1.373 . S
N365 C367 1.340 . S
N366 C363 1.368 . S
N366 C367 1.321 . S
N366 Co369 2.135 . S
C367 N365 1.340 . S
C367 N366 1.321 . S
C367 H391 0.930 . S
H368 C363 0.931 . S
Co369 N366 2.135 . S
Co369 N372 2.121 . S
Co369 O377 2.055 . S
Co369 O380 2.039 . S
Co369 N383 2.140 . S
C370 O371 1.227 . S
C370 O380 1.265 . S
O371 C370 1.227 . S
N372 Co369 2.121 . S
N372 C374 1.375 . S
N372 C375 1.313 . S
C373 C374 1.338 . S
C373 N376 1.377 . S
C373 H393 0.930 . S
C374 N372 1.375 . S
C374 C373 1.338 . S
C374 H378 0.931 . S
C375 N372 1.313 . S
C375 N376 1.344 . S
C375 H379 0.930 . S
N376 C373 1.377 . S
N376 C375 1.344 . S
O377 Co369 2.055 . S
O377 C381 1.253 . S
H378 C374 0.931 . S
H379 C375 0.930 . S
O380 Co369 2.039 . S
O380 C370 1.265 . S
C381 O377 1.253 . S
C381 O382 1.227 . S
O382 C381 1.227 . S
N383 Co369 2.140 . S
N383 C386 1.346 . S
N383 C387 1.345 . S
C384 C385 1.387 . S
C384 C388 1.391 . S
C385 C384 1.387 . S
C385 C386 1.369 . S
C385 H394 0.929 . S
C386 N383 1.346 . S
C386 C385 1.369 . S
C386 H389 0.928 . S
C387 N383 1.345 . S
C387 C388 1.371 . S
C387 H390 0.931 . S
C388 C384 1.391 . S
C388 C387 1.371 . S
C388 H395 0.930 . S
H389 C386 0.928 . S
H390 C387 0.931 . S
H391 C367 0.930 . S
H392 C364 0.930 . S
H393 C373 0.930 . S
H394 C385 0.929 . S
H395 C388 0.930 . S
C396 C397 1.351 . S
C396 N399 1.368 . S
C396 H401 0.931 . S
C397 C396 1.351 . S
C397 N398 1.373 . S
C397 H425 0.930 . S
N398 C397 1.373 . S
N398 C400 1.340 . S
N399 C396 1.368 . S
N399 C400 1.321 . S
N399 Co402 2.135 . S
C400 N398 1.340 . S
C400 N399 1.321 . S
C400 H424 0.930 . S
H401 C396 0.931 . S
Co402 N399 2.135 . S
Co402 N405 2.121 . S
Co402 O410 2.055 . S
Co402 O413 2.039 . S
Co402 N416 2.140 . S
C403 O404 1.227 . S
C403 O413 1.265 . S
O404 C403 1.227 . S
N405 Co402 2.121 . S
N405 C407 1.375 . S
N405 C408 1.313 . S
C406 C407 1.338 . S
C406 N409 1.377 . S
C406 H426 0.930 . S
C407 N405 1.375 . S
C407 C406 1.338 . S
C407 H411 0.931 . S
C408 N405 1.313 . S
C408 N409 1.344 . S
C408 H412 0.930 . S
N409 C406 1.377 . S
N409 C408 1.344 . S
O410 Co402 2.055 . S
O410 C414 1.253 . S
H411 C407 0.931 . S
H412 C408 0.930 . S
O413 Co402 2.039 . S
O413 C403 1.265 . S
C414 O410 1.253 . S
C414 O415 1.227 . S
O415 C414 1.227 . S
N416 Co402 2.140 . S
N416 C419 1.346 . S
N416 C420 1.345 . S
C417 C418 1.387 . S
C417 C421 1.391 . S
C418 C417 1.387 . S
C418 C419 1.369 . S
C418 H427 0.929 . S
C419 N416 1.346 . S
C419 C418 1.369 . S
C419 H422 0.928 . S
C420 N416 1.345 . S
C420 C421 1.371 . S
C420 H423 0.931 . S
C421 C417 1.391 . S
C421 C420 1.371 . S
C421 H428 0.930 . S
H422 C419 0.928 . S
H423 C420 0.931 . S
H424 C400 0.930 . S
H425 C397 0.930 . S
H426 C406 0.930 . S
H427 C418 0.929 . S
H428 C421 0.930 . S
C429 C430 1.351 . S
C429 N432 1.368 1_455 S
C429 H434 0.931 . S
C430 C429 1.351 . S
C430 N431 1.373 1_455 S
C430 H458 0.930 . S
N431 C430 1.373 1_655 S
N431 C433 1.340 . S
N432 C429 1.368 1_655 S
N432 C433 1.321 . S
N432 Co435 2.135 . S
C433 N431 1.340 . S
C433 N432 1.321 . S
C433 H457 0.930 . S
H434 C429 0.931 . S
Co435 N432 2.135 . S
Co435 N438 2.121 . S
Co435 O443 2.055 . S
Co435 O446 2.039 . S
Co435 N449 2.140 1_655 S
C436 O437 1.227 . S
C436 O446 1.265 . S
O437 C436 1.227 . S
N438 Co435 2.121 . S
N438 C440 1.375 . S
N438 C441 1.313 . S
C439 C440 1.338 . S
C439 N442 1.377 . S
C439 H459 0.930 . S
C440 N438 1.375 . S
C440 C439 1.338 . S
C440 H444 0.931 . S
C441 N438 1.313 . S
C441 N442 1.344 . S
C441 H445 0.930 . S
N442 C439 1.377 . S
N442 C441 1.344 . S
O443 Co435 2.055 . S
O443 C447 1.253 1_655 S
H444 C440 0.931 . S
H445 C441 0.930 . S
O446 Co435 2.039 . S
O446 C436 1.265 . S
C447 O443 1.253 1_455 S
C447 O448 1.227 . S
O448 C447 1.227 . S
N449 Co435 2.140 1_455 S
N449 C452 1.346 . S
N449 C453 1.345 . S
C450 C451 1.387 . S
C450 C454 1.391 . S
C451 C450 1.387 . S
C451 C452 1.369 . S
C451 H460 0.929 . S
C452 N449 1.346 . S
C452 C451 1.369 . S
C452 H455 0.928 . S
C453 N449 1.345 . S
C453 C454 1.371 . S
C453 H456 0.931 . S
C454 C450 1.391 . S
C454 C453 1.371 . S
C454 H461 0.930 . S
H455 C452 0.928 . S
H456 C453 0.931 . S
H457 C433 0.930 . S
H458 C430 0.930 . S
H459 C439 0.930 . S
H460 C451 0.929 . S
H461 C454 0.930 . S
C462 C463 1.351 . S
C462 N465 1.368 . S
C462 H467 0.931 . S
C463 C462 1.351 . S
C463 N464 1.373 . S
C463 H491 0.930 . S
N464 C463 1.373 . S
N464 C466 1.340 . S
N465 C462 1.368 . S
N465 C466 1.321 . S
N465 Co468 2.135 . S
C466 N464 1.340 . S
C466 N465 1.321 . S
C466 H490 0.930 . S
H467 C462 0.931 . S
Co468 N465 2.135 . S
Co468 N471 2.121 . S
Co468 O476 2.055 . S
Co468 O479 2.039 . S
Co468 N482 2.140 . S
C469 O470 1.227 . S
C469 O479 1.265 . S
O470 C469 1.227 . S
N471 Co468 2.121 . S
N471 C473 1.375 . S
N471 C474 1.313 . S
C472 C473 1.338 . S
C472 N475 1.377 . S
C472 H492 0.930 . S
C473 N471 1.375 . S
C473 C472 1.338 . S
C473 H477 0.931 . S
C474 N471 1.313 . S
C474 N475 1.344 . S
C474 H478 0.930 . S
N475 C472 1.377 . S
N475 C474 1.344 . S
O476 Co468 2.055 . S
O476 C480 1.253 . S
H477 C473 0.931 . S
H478 C474 0.930 . S
O479 Co468 2.039 . S
O479 C469 1.265 . S
C480 O476 1.253 . S
C480 O481 1.227 . S
O481 C480 1.227 . S
N482 Co468 2.140 . S
N482 C485 1.346 . S
N482 C486 1.345 . S
C483 C484 1.387 . S
C483 C487 1.391 . S
C484 C483 1.387 . S
C484 C485 1.369 . S
C484 H493 0.929 . S
C485 N482 1.346 . S
C485 C484 1.369 . S
C485 H488 0.928 . S
C486 N482 1.345 . S
C486 C487 1.371 . S
C486 H489 0.931 . S
C487 C483 1.391 . S
C487 C486 1.371 . S
C487 H494 0.930 . S
H488 C485 0.928 . S
H489 C486 0.931 . S
H490 C466 0.930 . S
H491 C463 0.930 . S
H492 C472 0.930 . S
H493 C484 0.929 . S
H494 C487 0.930 . S
C495 C496 1.351 . S
C495 N498 1.368 1_455 S
C495 H500 0.931 . S
C496 C495 1.351 . S
C496 N497 1.373 1_455 S
C496 H524 0.930 . S
N497 C496 1.373 1_655 S
N497 C499 1.340 . S
N498 C495 1.368 1_655 S
N498 C499 1.321 . S
N498 Co501 2.135 . S
C499 N497 1.340 . S
C499 N498 1.321 . S
C499 H523 0.930 . S
H500 C495 0.931 . S
Co501 N498 2.135 . S
Co501 N504 2.121 . S
Co501 O509 2.055 . S
Co501 O512 2.039 . S
Co501 N515 2.140 1_655 S
C502 O503 1.227 . S
C502 O512 1.265 . S
O503 C502 1.227 . S
N504 Co501 2.121 . S
N504 C506 1.375 . S
N504 C507 1.313 . S
C505 C506 1.338 . S
C505 N508 1.377 . S
C505 H525 0.930 . S
C506 N504 1.375 . S
C506 C505 1.338 . S
C506 H510 0.931 . S
C507 N504 1.313 . S
C507 N508 1.344 . S
C507 H511 0.930 . S
N508 C505 1.377 . S
N508 C507 1.344 . S
O509 Co501 2.055 . S
O509 C513 1.253 1_655 S
H510 C506 0.931 . S
H511 C507 0.930 . S
O512 Co501 2.039 . S
O512 C502 1.265 . S
C513 O509 1.253 1_455 S
C513 O514 1.227 . S
O514 C513 1.227 . S
N515 Co501 2.140 1_455 S
N515 C518 1.346 . S
N515 C519 1.345 . S
C516 C517 1.387 . S
C516 C520 1.391 . S
C517 C516 1.387 . S
C517 C518 1.369 . S
C517 H526 0.929 . S
C518 N515 1.346 . S
C518 C517 1.369 . S
C518 H521 0.928 . S
C519 N515 1.345 . S
C519 C520 1.371 . S
C519 H522 0.931 . S
C520 C516 1.391 . S
C520 C519 1.371 . S
C520 H527 0.930 . S
H521 C518 0.928 . S
H522 C519 0.931 . S
H523 C499 0.930 . S
H524 C496 0.930 . S
H525 C505 0.930 . S
H526 C517 0.929 . S
H527 C520 0.930 . S
H528 C534 0.930 . S
H529 C537 0.930 . S
H530 C538 0.930 . S
H531 C539 0.930 . S
H532 C542 0.930 . S
H533 C543 0.930 . S
C534 H528 0.930 . S
C534 C535 1.355 1_455 S
C534 C536 1.415 . S
C535 C534 1.355 1_655 S
C535 C537 1.419 . S
C536 C534 1.415 . S
C536 C541 1.425 . S
C536 C543 1.409 . S
C537 H529 0.930 . S
C537 C535 1.419 . S
C537 C538 1.362 . S
C538 H530 0.930 . S
C538 C537 1.362 . S
C538 C541 1.409 1_655 S
C539 H531 0.930 . S
C539 C540 1.355 . S
C539 C541 1.415 . S
C540 C539 1.355 . S
C540 C542 1.419 . S
C541 C536 1.425 . S
C541 C538 1.409 1_455 S
C541 C539 1.415 . S
C542 H532 0.930 . S
C542 C540 1.419 . S
C542 C543 1.362 . S
C543 H533 0.930 . S
C543 C536 1.409 . S
C543 C542 1.362 . S
H544 C550 0.930 . S
H545 C553 0.930 . S
H546 C554 0.930 . S
H547 C555 0.930 . S
H548 C558 0.930 . S
H549 C559 0.930 1_455 S
C550 H544 0.930 . S
C550 C551 1.355 . S
C550 C552 1.415 . S
C551 C550 1.355 . S
C551 C553 1.419 . S
C552 C550 1.415 . S
C552 C557 1.425 1_455 S
C552 C559 1.409 1_455 S
C553 H545 0.930 . S
C553 C551 1.419 . S
C553 C554 1.362 . S
C554 H546 0.930 . S
C554 C553 1.362 . S
C554 C557 1.409 1_455 S
C555 H547 0.930 . S
C555 C556 1.355 . S
C555 C557 1.415 . S
C556 C555 1.355 . S
C556 C558 1.419 . S
C557 C552 1.425 1_655 S
C557 C554 1.409 1_655 S
C557 C555 1.415 . S
C558 H548 0.930 . S
C558 C556 1.419 . S
C558 C559 1.362 . S
C559 H549 0.930 1_655 S
C559 C552 1.409 1_655 S
C559 C558 1.362 . S
H560 C566 0.930 . S
H561 C569 0.930 . S
H562 C570 0.930 . S
H563 C571 0.930 . S
H564 C574 0.930 . S
H565 C575 0.930 . S
C566 H560 0.930 . S
C566 C567 1.355 . S
C566 C568 1.415 . S
C567 C566 1.355 . S
C567 C569 1.419 . S
C568 C566 1.415 . S
C568 C573 1.425 . S
C568 C575 1.409 . S
C569 H561 0.930 . S
C569 C567 1.419 . S
C569 C570 1.362 . S
C570 H562 0.930 . S
C570 C569 1.362 . S
C570 C573 1.409 . S
C571 H563 0.930 . S
C571 C572 1.355 . S
C571 C573 1.415 . S
C572 C571 1.355 . S
C572 C574 1.419 . S
C573 C568 1.425 . S
C573 C570 1.409 . S
C573 C571 1.415 . S
C574 H564 0.930 . S
C574 C572 1.419 . S
C574 C575 1.362 . S
C575 H565 0.930 . S
C575 C568 1.409 . S
C575 C574 1.362 . S
H576 C582 0.930 . S
H577 C585 0.930 . S
H578 C586 0.930 . S
H579 C587 0.930 . S
H580 C590 0.930 . S
H581 C591 0.930 . S
C582 H576 0.930 . S
C582 C583 1.355 . S
C582 C584 1.415 . S
C583 C582 1.355 . S
C583 C585 1.419 . S
C584 C582 1.415 . S
C584 C589 1.425 . S
C584 C591 1.409 . S
C585 H577 0.930 . S
C585 C583 1.419 . S
C585 C586 1.362 . S
C586 H578 0.930 . S
C586 C585 1.362 . S
C586 C589 1.409 . S
C587 H579 0.930 . S
C587 C588 1.355 . S
C587 C589 1.415 . S
C588 C587 1.355 . S
C588 C590 1.419 . S
C589 C584 1.425 . S
C589 C586 1.409 . S
C589 C587 1.415 . S
C590 H580 0.930 . S
C590 C588 1.419 . S
C590 C591 1.362 . S
C591 H581 0.930 . S
C591 C584 1.409 . S
C591 C590 1.362 . S
H592 C598 0.930 . S
H593 C601 0.930 . S
H594 C602 0.930 . S
H595 C603 0.930 . S
H596 C606 0.930 . S
H597 C607 0.930 . S
C598 H592 0.930 . S
C598 C599 1.355 . S
C598 C600 1.415 . S
C599 C598 1.355 . S
C599 C601 1.419 1_655 S
C600 C598 1.415 . S
C600 C605 1.425 1_655 S
C600 C607 1.409 . S
C601 H593 0.930 . S
C601 C599 1.419 1_455 S
C601 C602 1.362 . S
C602 H594 0.930 . S
C602 C601 1.362 . S
C602 C605 1.409 . S
C603 H595 0.930 . S
C603 C604 1.355 . S
C603 C605 1.415 . S
C604 C603 1.355 . S
C604 C606 1.419 1_455 S
C605 C600 1.425 1_455 S
C605 C602 1.409 . S
C605 C603 1.415 . S
C606 H596 0.930 . S
C606 C604 1.419 1_655 S
C606 C607 1.362 . S
C607 H597 0.930 . S
C607 C600 1.409 . S
C607 C606 1.362 . S
H608 C614 0.930 . S
H609 C617 0.930 . S
H610 C618 0.930 . S
H611 C619 0.930 . S
H612 C622 0.930 . S
H613 C623 0.930 . S
C614 H608 0.930 . S
C614 C615 1.355 . S
C614 C616 1.415 . S
C615 C614 1.355 . S
C615 C617 1.419 . S
C616 C614 1.415 . S
C616 C621 1.425 . S
C616 C623 1.409 . S
C617 H609 0.930 . S
C617 C615 1.419 . S
C617 C618 1.362 . S
C618 H610 0.930 . S
C618 C617 1.362 . S
C618 C621 1.409 . S
C619 H611 0.930 . S
C619 C620 1.355 . S
C619 C621 1.415 . S
C620 C619 1.355 . S
C620 C622 1.419 . S
C621 C616 1.425 . S
C621 C618 1.409 . S
C621 C619 1.415 . S
C622 H612 0.930 . S
C622 C620 1.419 . S
C622 C623 1.362 . S
C623 H613 0.930 . S
C623 C616 1.409 . S
C623 C622 1.362 . S
H624 C630 0.930 . S
H625 C633 0.930 . S
H626 C634 0.930 . S
H627 C635 0.930 . S
H628 C638 0.930 . S
H629 C639 0.930 . S
C630 H624 0.930 . S
C630 C631 1.355 . S
C630 C632 1.415 . S
C631 C630 1.355 . S
C631 C633 1.419 . S
C632 C630 1.415 . S
C632 C637 1.425 . S
C632 C639 1.409 . S
C633 H625 0.930 . S
C633 C631 1.419 . S
C633 C634 1.362 . S
C634 H626 0.930 . S
C634 C633 1.362 . S
C634 C637 1.409 . S
C635 H627 0.930 . S
C635 C636 1.355 . S
C635 C637 1.415 . S
C636 C635 1.355 . S
C636 C638 1.419 . S
C637 C632 1.425 . S
C637 C634 1.409 . S
C637 C635 1.415 . S
C638 H628 0.930 . S
C638 C636 1.419 . S
C638 C639 1.362 . S
C639 H629 0.930 . S
C639 C632 1.409 . S
C639 C638 1.362 . S
H640 C646 0.930 . S
H641 C649 0.930 . S
H642 C650 0.930 . S
H643 C651 0.930 . S
H644 C654 0.930 . S
H645 C655 0.930 . S
C646 H640 0.930 . S
C646 C647 1.355 . S
C646 C648 1.415 1_655 S
C647 C646 1.355 . S
C647 C649 1.419 . S
C648 C646 1.415 1_455 S
C648 C653 1.425 . S
C648 C655 1.409 . S
C649 H641 0.930 . S
C649 C647 1.419 . S
C649 C650 1.362 . S
C650 H642 0.930 . S
C650 C649 1.362 . S
C650 C653 1.409 1_655 S
C651 H643 0.930 . S
C651 C652 1.355 . S
C651 C653 1.415 . S
C652 C651 1.355 . S
C652 C654 1.419 . S
C653 C648 1.425 . S
C653 C650 1.409 1_455 S
C653 C651 1.415 . S
C654 H644 0.930 . S
C654 C652 1.419 . S
C654 C655 1.362 . S
C655 H645 0.930 . S
C655 C648 1.409 . S
C655 C654 1.362 . S
H656 C662 0.930 . S
H657 C665 0.930 . S
H658 C666 0.930 . S
H659 C667 0.930 1_655 S
H660 C670 0.930 . S
H661 C671 0.930 . S
C662 H656 0.930 . S
C662 C663 1.355 . S
C662 C664 1.415 . S
C663 C662 1.355 . S
C663 C665 1.419 1_455 S
C664 C662 1.415 . S
C664 C669 1.425 1_554 S
C664 C671 1.409 1_554 S
C665 H657 0.930 . S
C665 C663 1.419 1_655 S
C665 C666 1.362 . S
C666 H658 0.930 . S
C666 C665 1.362 . S
C666 C669 1.409 1_654 S
C667 H659 0.930 1_455 S
C667 C668 1.355 . S
C667 C669 1.415 . S
C668 C667 1.355 . S
C668 C670 1.419 . S
C669 C664 1.425 1_556 S
C669 C666 1.409 1_456 S
C669 C667 1.415 . S
C670 H660 0.930 . S
C670 C668 1.419 . S
C670 C671 1.362 . S
C671 H661 0.930 . S
C671 C664 1.409 1_556 S
C671 C670 1.362 . S
H672 C678 0.930 . S
H673 C681 0.930 . S
H674 C682 0.930 . S
H675 C683 0.930 . S
H676 C686 0.930 . S
H677 C687 0.930 . S
C678 H672 0.930 . S
C678 C679 1.355 . S
C678 C680 1.415 . S
C679 C678 1.355 . S
C679 C681 1.419 . S
C680 C678 1.415 . S
C680 C685 1.425 . S
C680 C687 1.409 . S
C681 H673 0.930 . S
C681 C679 1.419 . S
C681 C682 1.362 . S
C682 H674 0.930 . S
C682 C681 1.362 . S
C682 C685 1.409 . S
C683 H675 0.930 . S
C683 C684 1.355 . S
C683 C685 1.415 . S
C684 C683 1.355 . S
C684 C686 1.419 . S
C685 C680 1.425 . S
C685 C682 1.409 . S
C685 C683 1.415 . S
C686 H676 0.930 . S
C686 C684 1.419 . S
C686 C687 1.362 . S
C687 H677 0.930 . S
C687 C680 1.409 . S
C687 C686 1.362 . S
H688 C694 0.930 . S
H689 C697 0.930 . S
H690 C698 0.930 . S
H691 C699 0.930 . S
H692 C702 0.930 . S
H693 C703 0.930 . S
C694 H688 0.930 . S
C694 C695 1.355 . S
C694 C696 1.415 . S
C695 C694 1.355 . S
C695 C697 1.419 . S
C696 C694 1.415 . S
C696 C701 1.425 . S
C696 C703 1.409 . S
C697 H689 0.930 . S
C697 C695 1.419 . S
C697 C698 1.362 . S
C698 H690 0.930 . S
C698 C697 1.362 . S
C698 C701 1.409 . S
C699 H691 0.930 . S
C699 C700 1.355 . S
C699 C701 1.415 . S
C700 C699 1.355 . S
C700 C702 1.419 . S
C701 C696 1.425 . S
C701 C698 1.409 . S
C701 C699 1.415 . S
C702 H692 0.930 . S
C702 C700 1.419 . S
C702 C703 1.362 . S
C703 H693 0.930 . S
C703 C696 1.409 . S
C703 C702 1.362 . S
H704 C710 0.930 . S
H705 C713 0.930 . S
H706 C714 0.930 . S
H707 C715 0.930 . S
H708 C718 0.930 . S
H709 C719 0.930 . S
C710 H704 0.930 . S
C710 C711 1.355 . S
C710 C712 1.415 . S
C711 C710 1.355 . S
C711 C713 1.419 . S
C712 C710 1.415 . S
C712 C717 1.425 . S
C712 C719 1.409 . S
C713 H705 0.930 . S
C713 C711 1.419 . S
C713 C714 1.362 . S
C714 H706 0.930 . S
C714 C713 1.362 . S
C714 C717 1.409 . S
C715 H707 0.930 . S
C715 C716 1.355 . S
C715 C717 1.415 . S
C716 C715 1.355 . S
C716 C718 1.419 . S
C717 C712 1.425 . S
C717 C714 1.409 . S
C717 C715 1.415 . S
C718 H708 0.930 . S
C718 C716 1.419 . S
C718 C719 1.362 . S
C719 H709 0.930 . S
C719 C712 1.409 . S
C719 C718 1.362 . S
H720 C726 0.930 . S
H721 C729 0.930 . S
H722 C730 0.930 . S
H723 C731 0.930 . S
H724 C734 0.930 . S
H725 C735 0.930 . S
C726 H720 0.930 . S
C726 C727 1.355 . S
C726 C728 1.415 . S
C727 C726 1.355 . S
C727 C729 1.419 . S
C728 C726 1.415 . S
C728 C733 1.425 . S
C728 C735 1.409 . S
C729 H721 0.930 . S
C729 C727 1.419 . S
C729 C730 1.362 . S
C730 H722 0.930 . S
C730 C729 1.362 . S
C730 C733 1.409 . S
C731 H723 0.930 . S
C731 C732 1.355 . S
C731 C733 1.415 . S
C732 C731 1.355 . S
C732 C734 1.419 . S
C733 C728 1.425 . S
C733 C730 1.409 . S
C733 C731 1.415 . S
C734 H724 0.930 . S
C734 C732 1.419 . S
C734 C735 1.362 . S
C735 H725 0.930 . S
C735 C728 1.409 . S
C735 C734 1.362 . S
H736 C742 0.930 . S
H737 C745 0.930 . S
H738 C746 0.930 . S
H739 C747 0.930 . S
H740 C750 0.930 . S
H741 C751 0.930 . S
C742 H736 0.930 . S
C742 C743 1.355 . S
C742 C744 1.415 . S
C743 C742 1.355 . S
C743 C745 1.419 . S
C744 C742 1.415 . S
C744 C749 1.425 . S
C744 C751 1.409 . S
C745 H737 0.930 . S
C745 C743 1.419 . S
C745 C746 1.362 . S
C746 H738 0.930 . S
C746 C745 1.362 . S
C746 C749 1.409 . S
C747 H739 0.930 . S
C747 C748 1.355 . S
C747 C749 1.415 . S
C748 C747 1.355 . S
C748 C750 1.419 . S
C749 C744 1.425 . S
C749 C746 1.409 . S
C749 C747 1.415 . S
C750 H740 0.930 . S
C750 C748 1.419 . S
C750 C751 1.362 . S
C751 H741 0.930 . S
C751 C744 1.409 . S
C751 C750 1.362 . S
H752 C758 0.930 . S
H753 C761 0.930 . S
H754 C762 0.930 . S
H755 C763 0.930 . S
H756 C766 0.930 . S
H757 C767 0.930 . S
C758 H752 0.930 . S
C758 C759 1.355 . S
C758 C760 1.415 . S
C759 C758 1.355 . S
C759 C761 1.419 . S
C760 C758 1.415 . S
C760 C765 1.425 . S
C760 C767 1.409 . S
C761 H753 0.930 . S
C761 C759 1.419 . S
C761 C762 1.362 . S
C762 H754 0.930 . S
C762 C761 1.362 . S
C762 C765 1.409 . S
C763 H755 0.930 . S
C763 C764 1.355 . S
C763 C765 1.415 . S
C764 C763 1.355 . S
C764 C766 1.419 . S
C765 C760 1.425 . S
C765 C762 1.409 . S
C765 C763 1.415 . S
C766 H756 0.930 . S
C766 C764 1.419 . S
C766 C767 1.362 . S
C767 H757 0.930 . S
C767 C760 1.409 . S
C767 C766 1.362 . S
H768 C774 0.930 . S
H769 C777 0.930 . S
H770 C778 0.930 . S
H771 C779 0.930 . S
H772 C782 0.930 . S
H773 C783 0.930 . S
C774 H768 0.930 . S
C774 C775 1.355 1_655 S
C774 C776 1.415 . S
C775 C774 1.355 1_455 S
C775 C777 1.419 . S
C776 C774 1.415 . S
C776 C781 1.425 1_656 S
C776 C783 1.409 1_556 S
C777 H769 0.930 . S
C777 C775 1.419 . S
C777 C778 1.362 . S
C778 H770 0.930 . S
C778 C777 1.362 . S
C778 C781 1.409 1_556 S
C779 H771 0.930 . S
C779 C780 1.360 . S
C779 C781 1.415 . S
C780 C779 1.360 . S
C780 C782 1.413 1_455 S
C781 C776 1.425 1_454 S
C781 C778 1.409 1_554 S
C781 C779 1.415 . S
C782 H772 0.930 . S
C782 C780 1.413 1_655 S
C782 C783 1.362 . S
C783 H773 0.930 . S
C783 C776 1.409 1_554 S
C783 C782 1.362 . S
H784 C790 0.930 . S
H785 C793 0.930 . S
H786 C794 0.930 1_545 S
H787 C795 0.930 . S
H788 C798 0.930 . S
H789 C799 0.930 . S
C790 H784 0.930 . S
C790 C791 1.355 . S
C790 C792 1.414 1_565 S
C791 C790 1.355 . S
C791 C793 1.419 . S
C792 C790 1.414 1_545 S
C792 C797 1.426 . S
C792 C799 1.410 . S
C793 H785 0.930 . S
C793 C791 1.419 . S
C793 C794 1.362 . S
C794 H786 0.930 1_565 S
C794 C793 1.362 . S
C794 C797 1.409 1_565 S
C795 H787 0.930 . S
C795 C796 1.355 . S
C795 C797 1.415 . S
C796 C795 1.355 . S
C796 C798 1.419 . S
C797 C792 1.426 . S
C797 C794 1.409 1_545 S
C797 C795 1.415 . S
C798 H788 0.930 . S
C798 C796 1.419 . S
C798 C799 1.362 . S
C799 H789 0.930 . S
C799 C792 1.410 . S
C799 C798 1.362 . S
H800 C806 0.930 1_545 S
H801 C809 0.930 . S
H802 C810 0.930 . S
H803 C811 0.930 . S
H804 C814 0.930 . S
H805 C815 0.930 . S
C806 H800 0.930 1_565 S
C806 C807 1.355 . S
C806 C808 1.415 1_565 S
C807 C806 1.355 . S
C807 C809 1.419 . S
C808 C806 1.415 1_545 S
C808 C813 1.425 1_545 S
C808 C815 1.409 . S
C809 H801 0.930 . S
C809 C807 1.419 . S
C809 C810 1.362 . S
C810 H802 0.930 . S
C810 C809 1.362 . S
C810 C813 1.409 . S
C811 H803 0.930 . S
C811 C812 1.355 . S
C811 C813 1.415 1_545 S
C812 C811 1.355 . S
C812 C814 1.419 . S
C813 C808 1.425 1_565 S
C813 C810 1.409 . S
C813 C811 1.415 1_565 S
C814 H804 0.930 . S
C814 C812 1.419 . S
C814 C815 1.362 . S
C815 H805 0.930 . S
C815 C808 1.409 . S
C815 C814 1.362 . S
H816 C822 0.930 . S
H817 C825 0.930 . S
H818 C826 0.930 . S
H819 C827 0.930 . S
H820 C830 0.930 . S
H821 C831 0.930 . S
C822 H816 0.930 . S
C822 C823 1.355 . S
C822 C824 1.415 . S
C823 C822 1.355 . S
C823 C825 1.419 . S
C824 C822 1.415 . S
C824 C829 1.425 . S
C824 C831 1.409 . S
C825 H817 0.930 . S
C825 C823 1.419 . S
C825 C826 1.362 . S
C826 H818 0.930 . S
C826 C825 1.362 . S
C826 C829 1.409 . S
C827 H819 0.930 . S
C827 C828 1.355 . S
C827 C829 1.415 . S
C828 C827 1.355 . S
C828 C830 1.419 . S
C829 C824 1.425 . S
C829 C826 1.409 . S
C829 C827 1.415 . S
C830 H820 0.930 . S
C830 C828 1.419 . S
C830 C831 1.362 . S
C831 H821 0.930 . S
C831 C824 1.409 . S
C831 C830 1.362 . S
H832 C838 0.930 . S
H833 C841 0.930 . S
H834 C842 0.930 . S
H835 C843 0.930 . S
H836 C846 0.930 . S
H837 C847 0.930 . S
C838 H832 0.930 . S
C838 C839 1.355 . S
C838 C840 1.415 . S
C839 C838 1.355 . S
C839 C841 1.419 . S
C840 C838 1.415 . S
C840 C845 1.425 . S
C840 C847 1.409 . S
C841 H833 0.930 . S
C841 C839 1.419 . S
C841 C842 1.362 . S
C842 H834 0.930 . S
C842 C841 1.362 . S
C842 C845 1.409 . S
C843 H835 0.930 . S
C843 C844 1.355 . S
C843 C845 1.415 . S
C844 C843 1.355 . S
C844 C846 1.419 . S
C845 C840 1.425 . S
C845 C842 1.409 . S
C845 C843 1.415 . S
C846 H836 0.930 . S
C846 C844 1.419 . S
C846 C847 1.362 . S
C847 H837 0.930 . S
C847 C840 1.409 . S
C847 C846 1.362 . S
H848 C854 0.930 . S
H849 C857 0.930 . S
H850 C858 0.930 . S
H851 C859 0.930 . S
H852 C862 0.930 . S
H853 C863 0.930 . S
C854 H848 0.930 . S
C854 C855 1.355 . S
C854 C856 1.415 . S
C855 C854 1.355 . S
C855 C857 1.419 . S
C856 C854 1.415 . S
C856 C861 1.425 . S
C856 C863 1.409 . S
C857 H849 0.930 . S
C857 C855 1.419 . S
C857 C858 1.362 . S
C858 H850 0.930 . S
C858 C857 1.362 . S
C858 C861 1.409 . S
C859 H851 0.930 . S
C859 C860 1.355 . S
C859 C861 1.415 . S
C860 C859 1.355 . S
C860 C862 1.419 . S
C861 C856 1.425 . S
C861 C858 1.409 . S
C861 C859 1.415 . S
C862 H852 0.930 . S
C862 C860 1.419 . S
C862 C863 1.362 . S
C863 H853 0.930 . S
C863 C856 1.409 . S
C863 C862 1.362 . S
H864 C870 0.930 . S
H865 C873 0.930 . S
H866 C874 0.930 . S
H867 C875 0.930 . S
H868 C878 0.930 . S
H869 C879 0.930 . S
C870 H864 0.930 . S
C870 C871 1.355 . S
C870 C872 1.415 . S
C871 C870 1.355 . S
C871 C873 1.419 . S
C872 C870 1.415 . S
C872 C877 1.425 . S
C872 C879 1.409 . S
C873 H865 0.930 . S
C873 C871 1.419 . S
C873 C874 1.362 . S
C874 H866 0.930 . S
C874 C873 1.362 . S
C874 C877 1.409 . S
C875 H867 0.930 . S
C875 C876 1.355 . S
C875 C877 1.415 . S
C876 C875 1.355 . S
C876 C878 1.419 . S
C877 C872 1.425 . S
C877 C874 1.409 . S
C877 C875 1.415 . S
C878 H868 0.930 . S
C878 C876 1.419 . S
C878 C879 1.362 . S
C879 H869 0.930 . S
C879 C872 1.409 . S
C879 C878 1.362 . S
H880 C886 0.930 . S
H881 C889 0.930 . S
H882 C890 0.930 . S
H883 C891 0.930 . S
H884 C894 0.930 . S
H885 C895 0.930 . S
C886 H880 0.930 . S
C886 C887 1.355 1_545 S
C886 C888 1.415 . S
C887 C886 1.355 1_565 S
C887 C889 1.419 . S
C888 C886 1.415 . S
C888 C893 1.425 . S
C888 C895 1.409 . S
C889 H881 0.930 . S
C889 C887 1.419 . S
C889 C890 1.362 . S
C890 H882 0.930 . S
C890 C889 1.362 . S
C890 C893 1.409 1_565 S
C891 H883 0.930 . S
C891 C892 1.355 . S
C891 C893 1.415 . S
C892 C891 1.355 . S
C892 C894 1.419 . S
C893 C888 1.425 . S
C893 C890 1.409 1_545 S
C893 C891 1.415 . S
C894 H884 0.930 . S
C894 C892 1.419 . S
C894 C895 1.362 . S
C895 H885 0.930 . S
C895 C888 1.409 . S
C895 C894 1.362 . S
H896 C902 0.930 . S
H897 C905 0.930 . S
H898 C906 0.932 . S
H899 C907 0.930 . S
H900 C910 0.930 . S
H901 C911 0.930 . S
C902 H896 0.930 . S
C902 C903 1.355 . S
C902 C904 1.415 1_565 S
C903 C902 1.355 . S
C903 C905 1.419 . S
C904 C902 1.415 1_545 S
C904 C909 1.425 . S
C904 C911 1.409 . S
C905 H897 0.930 . S
C905 C903 1.419 . S
C905 C906 1.347 1_565 S
C906 H898 0.932 . S
C906 C905 1.347 1_545 S
C906 C909 1.423 . S
C907 H899 0.930 . S
C907 C908 1.355 . S
C907 C909 1.415 . S
C908 C907 1.355 . S
C908 C910 1.419 . S
C909 C904 1.425 . S
C909 C906 1.423 . S
C909 C907 1.415 . S
C910 H900 0.930 . S
C910 C908 1.419 . S
C910 C911 1.362 . S
C911 H901 0.930 . S
C911 C904 1.409 . S
C911 C910 1.362 . S
H912 C918 0.930 . S
H913 C921 0.930 . S
H914 C922 0.930 . S
H915 C923 0.930 . S
H916 C926 0.930 . S
H917 C927 0.930 . S
C918 H912 0.930 . S
C918 C919 1.355 . S
C918 C920 1.415 . S
C919 C918 1.355 . S
C919 C921 1.419 . S
C920 C918 1.415 . S
C920 C925 1.425 . S
C920 C927 1.409 . S
C921 H913 0.930 . S
C921 C919 1.419 . S
C921 C922 1.362 . S
C922 H914 0.930 . S
C922 C921 1.362 . S
C922 C925 1.409 . S
C923 H915 0.930 . S
C923 C924 1.355 . S
C923 C925 1.415 . S
C924 C923 1.355 . S
C924 C926 1.419 . S
C925 C920 1.425 . S
C925 C922 1.409 . S
C925 C923 1.415 . S
C926 H916 0.930 . S
C926 C924 1.419 . S
C926 C927 1.362 . S
C927 H917 0.930 . S
C927 C920 1.409 . S
C927 C926 1.362 . S
H928 C934 0.930 . S
H929 C937 0.930 . S
H930 C938 0.930 . S
H931 C939 0.930 . S
H932 C942 0.930 . S
H933 C943 0.930 . S
C934 H928 0.930 . S
C934 C935 1.355 . S
C934 C936 1.415 . S
C935 C934 1.355 . S
C935 C937 1.419 . S
C936 C934 1.415 . S
C936 C941 1.425 . S
C936 C943 1.409 . S
C937 H929 0.930 . S
C937 C935 1.419 . S
C937 C938 1.362 . S
C938 H930 0.930 . S
C938 C937 1.362 . S
C938 C941 1.409 . S
C939 H931 0.930 . S
C939 C940 1.355 . S
C939 C941 1.415 . S
C940 C939 1.355 . S
C940 C942 1.419 . S
C941 C936 1.425 . S
C941 C938 1.409 . S
C941 C939 1.415 . S
C942 H932 0.930 . S
C942 C940 1.419 . S
C942 C943 1.362 . S
C943 H933 0.930 . S
C943 C936 1.409 . S
C943 C942 1.362 . S
H944 C950 0.930 . S
H945 C953 0.930 . S
H946 C954 0.930 . S
H947 C955 0.930 . S
H948 C958 0.930 . S
H949 C959 0.930 . S
C950 H944 0.930 . S
C950 C951 1.355 . S
C950 C952 1.415 . S
C951 C950 1.355 . S
C951 C953 1.419 . S
C952 C950 1.415 . S
C952 C957 1.425 . S
C952 C959 1.409 . S
C953 H945 0.930 . S
C953 C951 1.419 . S
C953 C954 1.362 . S
C954 H946 0.930 . S
C954 C953 1.362 . S
C954 C957 1.409 . S
C955 H947 0.930 . S
C955 C956 1.355 . S
C955 C957 1.415 . S
C956 C955 1.355 . S
C956 C958 1.419 . S
C957 C952 1.425 . S
C957 C954 1.409 . S
C957 C955 1.415 . S
C958 H948 0.930 . S
C958 C956 1.419 . S
C958 C959 1.362 . S
C959 H949 0.930 . S
C959 C952 1.409 . S
C959 C958 1.362 . S
H960 C966 0.930 . S
H961 C969 0.930 . S
H962 C970 0.930 . S
H963 C971 0.930 . S
H964 C974 0.930 . S
H965 C975 0.930 . S
C966 H960 0.930 . S
C966 C967 1.355 . S
C966 C968 1.415 . S
C967 C966 1.355 . S
C967 C969 1.419 . S
C968 C966 1.415 . S
C968 C973 1.425 . S
C968 C975 1.409 . S
C969 H961 0.930 . S
C969 C967 1.419 . S
C969 C970 1.362 . S
C970 H962 0.930 . S
C970 C969 1.362 . S
C970 C973 1.409 . S
C971 H963 0.930 . S
C971 C972 1.355 . S
C971 C973 1.415 . S
C972 C971 1.355 . S
C972 C974 1.419 . S
C973 C968 1.425 . S
C973 C970 1.409 . S
C973 C971 1.415 . S
C974 H964 0.930 . S
C974 C972 1.419 . S
C974 C975 1.362 . S
C975 H965 0.930 . S
C975 C968 1.409 . S
C975 C974 1.362 . S
H976 C982 0.930 . S
H977 C985 0.930 . S
H978 C986 0.930 . S
H979 C987 0.930 . S
H980 C990 0.930 . S
H981 C991 0.930 . S
C982 H976 0.930 . S
C982 C983 1.355 . S
C982 C984 1.415 . S
C983 C982 1.355 . S
C983 C985 1.419 . S
C984 C982 1.415 . S
C984 C989 1.425 . S
C984 C991 1.409 . S
C985 H977 0.930 . S
C985 C983 1.419 . S
C985 C986 1.362 . S
C986 H978 0.930 . S
C986 C985 1.362 . S
C986 C989 1.409 . S
C987 H979 0.930 . S
C987 C988 1.355 . S
C987 C989 1.415 . S
C988 C987 1.355 . S
C988 C990 1.419 . S
C989 C984 1.425 . S
C989 C986 1.409 . S
C989 C987 1.415 . S
C990 H980 0.930 . S
C990 C988 1.419 . S
C990 C991 1.362 . S
C991 H981 0.930 . S
C991 C984 1.409 . S
C991 C990 1.362 . S
H992 C998 0.930 . S
H993 C1001 0.930 . S
H994 C1002 0.930 . S
H995 C1003 0.930 . S
H996 C1006 0.930 . S
H997 C1007 0.930 . S
C998 H992 0.930 . S
C998 C999 1.355 . S
C998 C1000 1.415 . S
C999 C998 1.355 . S
C999 C1001 1.419 . S
C1000 C998 1.415 . S
C1000 C1005 1.425 . S
C1000 C1007 1.409 . S
C1001 H993 0.930 . S
C1001 C999 1.419 . S
C1001 C1002 1.362 . S
C1002 H994 0.930 . S
C1002 C1001 1.362 . S
C1002 C1005 1.409 . S
C1003 H995 0.930 . S
C1003 C1004 1.355 . S
C1003 C1005 1.415 . S
C1004 C1003 1.355 . S
C1004 C1006 1.419 . S
C1005 C1000 1.425 . S
C1005 C1002 1.409 . S
C1005 C1003 1.415 . S
C1006 H996 0.930 . S
C1006 C1004 1.419 . S
C1006 C1007 1.362 . S
C1007 H997 0.930 . S
C1007 C1000 1.409 . S
C1007 C1006 1.362 . S
H1008 C1014 0.930 . S
H1009 C1017 0.930 . S
H1010 C1018 0.930 . S
H1011 C1019 0.930 . S
H1012 C1022 0.930 . S
H1013 C1023 0.930 . S
C1014 H1008 0.930 . S
C1014 C1015 1.355 . S
C1014 C1016 1.415 . S
C1015 C1014 1.355 . S
C1015 C1017 1.419 . S
C1016 C1014 1.415 . S
C1016 C1021 1.425 . S
C1016 C1023 1.409 . S
C1017 H1009 0.930 . S
C1017 C1015 1.419 . S
C1017 C1018 1.362 . S
C1018 H1010 0.930 . S
C1018 C1017 1.362 . S
C1018 C1021 1.409 . S
C1019 H1011 0.930 . S
C1019 C1020 1.355 . S
C1019 C1021 1.415 . S
C1020 C1019 1.355 . S
C1020 C1022 1.419 . S
C1021 C1016 1.425 . S
C1021 C1018 1.409 . S
C1021 C1019 1.415 . S
C1022 H1012 0.930 . S
C1022 C1020 1.419 . S
C1022 C1023 1.362 . S
C1023 H1013 0.930 . S
C1023 C1016 1.409 . S
C1023 C1022 1.362 . S
H1024 C1030 0.930 . S
H1025 C1033 0.930 . S
H1026 C1034 0.930 . S
H1027 C1035 0.930 . S
H1028 C1038 0.930 . S
H1029 C1039 0.930 . S
C1030 H1024 0.930 . S
C1030 C1031 1.355 . S
C1030 C1032 1.415 . S
C1031 C1030 1.355 . S
C1031 C1033 1.419 . S
C1032 C1030 1.415 . S
C1032 C1037 1.425 . S
C1032 C1039 1.409 . S
C1033 H1025 0.930 . S
C1033 C1031 1.419 . S
C1033 C1034 1.362 . S
C1034 H1026 0.930 . S
C1034 C1033 1.362 . S
C1034 C1037 1.409 . S
C1035 H1027 0.930 . S
C1035 C1036 1.355 . S
C1035 C1037 1.415 . S
C1036 C1035 1.355 . S
C1036 C1038 1.419 . S
C1037 C1032 1.425 . S
C1037 C1034 1.409 . S
C1037 C1035 1.415 . S
C1038 H1028 0.930 . S
C1038 C1036 1.419 . S
C1038 C1039 1.362 . S
C1039 H1029 0.930 . S
C1039 C1032 1.409 . S
C1039 C1038 1.362 . S
H1040 C1046 0.930 1_655 S
H1041 C1049 0.930 . S
H1042 C1050 0.930 . S
H1043 C1051 0.930 . S
H1044 C1054 0.930 . S
H1045 C1055 0.930 . S
C1046 H1040 0.930 1_455 S
C1046 C1047 1.355 . S
C1046 C1048 1.415 1_455 S
C1047 C1046 1.355 . S
C1047 C1049 1.419 . S
C1048 C1046 1.415 1_655 S
C1048 C1053 1.425 1_655 S
C1048 C1055 1.409 . S
C1049 H1041 0.930 . S
C1049 C1047 1.419 . S
C1049 C1050 1.362 . S
C1050 H1042 0.930 . S
C1050 C1049 1.362 . S
C1050 C1053 1.409 . S
C1051 H1043 0.930 . S
C1051 C1052 1.355 1_455 S
C1051 C1053 1.415 . S
C1052 C1051 1.355 1_655 S
C1052 C1054 1.419 . S
C1053 C1048 1.425 1_455 S
C1053 C1050 1.409 . S
C1053 C1051 1.415 . S
C1054 H1044 0.930 . S
C1054 C1052 1.419 . S
C1054 C1055 1.362 . S
C1055 H1045 0.930 . S
C1055 C1048 1.409 . S
C1055 C1054 1.362 . S
H1056 C1062 0.930 . S
H1057 C1065 0.930 . S
H1058 C1066 0.930 . S
H1059 C1067 0.930 . S
H1060 C1070 0.930 . S
H1061 C1071 0.930 . S
C1062 H1056 0.930 . S
C1062 C1063 1.355 . S
C1062 C1064 1.415 . S
C1063 C1062 1.355 . S
C1063 C1065 1.419 . S
C1064 C1062 1.415 . S
C1064 C1069 1.425 . S
C1064 C1071 1.409 . S
C1065 H1057 0.930 . S
C1065 C1063 1.419 . S
C1065 C1066 1.362 . S
C1066 H1058 0.930 . S
C1066 C1065 1.362 . S
C1066 C1069 1.409 . S
C1067 H1059 0.930 . S
C1067 C1068 1.355 . S
C1067 C1069 1.415 . S
C1068 C1067 1.355 . S
C1068 C1070 1.419 . S
C1069 C1064 1.425 . S
C1069 C1066 1.409 . S
C1069 C1067 1.415 . S
C1070 H1060 0.930 . S
C1070 C1068 1.419 . S
C1070 C1071 1.362 . S
C1071 H1061 0.930 . S
C1071 C1064 1.409 . S
C1071 C1070 1.362 . S
H1072 C1078 0.930 . S
H1073 C1081 0.930 . S
H1074 C1082 0.930 . S
H1075 C1083 0.930 . S
H1076 C1086 0.930 . S
H1077 C1087 0.930 . S
C1078 H1072 0.930 . S
C1078 C1079 1.355 . S
C1078 C1080 1.415 . S
C1079 C1078 1.355 . S
C1079 C1081 1.419 . S
C1080 C1078 1.415 . S
C1080 C1085 1.425 . S
C1080 C1087 1.409 . S
C1081 H1073 0.930 . S
C1081 C1079 1.419 . S
C1081 C1082 1.362 . S
C1082 H1074 0.930 . S
C1082 C1081 1.362 . S
C1082 C1085 1.409 . S
C1083 H1075 0.930 . S
C1083 C1084 1.355 . S
C1083 C1085 1.415 . S
C1084 C1083 1.355 . S
C1084 C1086 1.419 . S
C1085 C1080 1.425 . S
C1085 C1082 1.409 . S
C1085 C1083 1.415 . S
C1086 H1076 0.930 . S
C1086 C1084 1.419 . S
C1086 C1087 1.362 . S
C1087 H1077 0.930 . S
C1087 C1080 1.409 . S
C1087 C1086 1.362 . S
H1088 C1094 0.930 . S
H1089 C1097 0.930 . S
H1090 C1098 0.930 1_655 S
H1091 C1099 0.930 . S
H1092 C1102 0.930 . S
H1093 C1103 0.942 . S
C1094 H1088 0.930 . S
C1094 C1095 1.355 . S
C1094 C1096 1.415 . S
C1095 C1094 1.355 . S
C1095 C1097 1.419 . S
C1096 C1094 1.415 . S
C1096 C1101 1.425 1_455 S
C1096 C1103 1.418 . S
C1097 H1089 0.930 . S
C1097 C1095 1.419 . S
C1097 C1098 1.362 . S
C1098 H1090 0.930 1_455 S
C1098 C1097 1.362 . S
C1098 C1101 1.409 1_455 S
C1099 H1091 0.930 . S
C1099 C1100 1.355 . S
C1099 C1101 1.415 . S
C1100 C1099 1.355 . S
C1100 C1102 1.419 . S
C1101 C1096 1.425 1_655 S
C1101 C1098 1.409 1_655 S
C1101 C1099 1.415 . S
C1102 H1092 0.930 . S
C1102 C1100 1.419 . S
C1102 C1103 1.341 1_655 S
C1103 H1093 0.942 . S
C1103 C1096 1.418 . S
C1103 C1102 1.341 1_455 S
H1104 C1110 0.930 . S
H1105 C1113 0.930 . S
H1106 C1114 0.930 . S
H1107 C1115 0.930 . S
H1108 C1118 0.930 . S
H1109 C1119 0.930 . S
C1110 H1104 0.930 . S
C1110 C1111 1.355 . S
C1110 C1112 1.415 . S
C1111 C1110 1.355 . S
C1111 C1113 1.419 1_455 S
C1112 C1110 1.415 . S
C1112 C1117 1.425 1_455 S
C1112 C1119 1.409 . S
C1113 H1105 0.930 . S
C1113 C1111 1.419 1_655 S
C1113 C1114 1.362 . S
C1114 H1106 0.930 . S
C1114 C1113 1.362 . S
C1114 C1117 1.409 . S
C1115 H1107 0.930 . S
C1115 C1116 1.355 . S
C1115 C1117 1.415 . S
C1116 C1115 1.355 . S
C1116 C1118 1.419 1_655 S
C1117 C1112 1.425 1_655 S
C1117 C1114 1.409 . S
C1117 C1115 1.415 . S
C1118 H1108 0.930 . S
C1118 C1116 1.419 1_455 S
C1118 C1119 1.362 . S
C1119 H1109 0.930 . S
C1119 C1112 1.409 . S
C1119 C1118 1.362 . S
H1120 C1126 0.930 . S
H1121 C1129 0.930 . S
H1122 C1130 0.930 1_655 S
H1123 C1131 0.930 . S
H1124 C1134 0.930 . S
H1125 C1135 0.930 . S
C1126 H1120 0.930 . S
C1126 C1127 1.355 . S
C1126 C1128 1.415 . S
C1127 C1126 1.355 . S
C1127 C1129 1.419 . S
C1128 C1126 1.415 . S
C1128 C1133 1.425 1_455 S
C1128 C1135 1.409 . S
C1129 H1121 0.930 . S
C1129 C1127 1.419 . S
C1129 C1130 1.362 . S
C1130 H1122 0.930 1_455 S
C1130 C1129 1.362 . S
C1130 C1133 1.409 1_455 S
C1131 H1123 0.930 . S
C1131 C1132 1.355 . S
C1131 C1133 1.415 . S
C1132 C1131 1.355 . S
C1132 C1134 1.419 . S
C1133 C1128 1.425 1_655 S
C1133 C1130 1.409 1_655 S
C1133 C1131 1.415 . S
C1134 H1124 0.930 . S
C1134 C1132 1.419 . S
C1134 C1135 1.362 1_655 S
C1135 H1125 0.930 . S
C1135 C1128 1.409 . S
C1135 C1134 1.362 1_455 S
H1136 C1142 0.930 . S
H1137 C1145 0.930 . S
H1138 C1146 0.930 . S
H1139 C1147 0.930 . S
H1140 C1150 0.930 . S
H1141 C1151 0.930 . S
C1142 H1136 0.930 . S
C1142 C1143 1.355 . S
C1142 C1144 1.415 . S
C1143 C1142 1.355 . S
C1143 C1145 1.419 . S
C1144 C1142 1.415 . S
C1144 C1149 1.425 . S
C1144 C1151 1.409 . S
C1145 H1137 0.930 . S
C1145 C1143 1.419 . S
C1145 C1146 1.362 . S
C1146 H1138 0.930 . S
C1146 C1145 1.362 . S
C1146 C1149 1.409 . S
C1147 H1139 0.930 . S
C1147 C1148 1.355 . S
C1147 C1149 1.415 . S
C1148 C1147 1.355 . S
C1148 C1150 1.419 . S
C1149 C1144 1.425 . S
C1149 C1146 1.409 . S
C1149 C1147 1.415 . S
C1150 H1140 0.930 . S
C1150 C1148 1.419 . S
C1150 C1151 1.362 . S
C1151 H1141 0.930 . S
C1151 C1144 1.409 . S
C1151 C1150 1.362 . S
H1152 C1158 0.930 . S
H1153 C1161 0.930 . S
H1154 C1162 0.930 . S
H1155 C1163 0.930 . S
H1156 C1166 0.930 . S
H1157 C1167 0.930 . S
C1158 H1152 0.930 . S
C1158 C1159 1.355 . S
C1158 C1160 1.415 . S
C1159 C1158 1.355 . S
C1159 C1161 1.419 . S
C1160 C1158 1.415 . S
C1160 C1165 1.425 . S
C1160 C1167 1.409 . S
C1161 H1153 0.930 . S
C1161 C1159 1.419 . S
C1161 C1162 1.362 . S
C1162 H1154 0.930 . S
C1162 C1161 1.362 . S
C1162 C1165 1.409 . S
C1163 H1155 0.930 . S
C1163 C1164 1.355 . S
C1163 C1165 1.415 . S
C1164 C1163 1.355 . S
C1164 C1166 1.419 . S
C1165 C1160 1.425 . S
C1165 C1162 1.409 . S
C1165 C1163 1.415 . S
C1166 H1156 0.930 . S
C1166 C1164 1.419 . S
C1166 C1167 1.362 . S
C1167 H1157 0.930 . S
C1167 C1160 1.409 . S
C1167 C1166 1.362 . S
C535 N442 1.376 . S
C540 N13 1.409 . S
C551 N46 1.411 . S
C556 N376 1.375 . S
C567 N79 1.413 . S
C572 N409 1.373 . S
C583 N112 1.413 . S
C588 N343 1.373 . S
C599 N508 1.383 . S
C604 N145 1.406 . S
C615 N178 1.382 . S
C620 N310 1.405 . S
C631 N211 1.375 . S
C636 N475 1.411 . S
C647 N277 1.379 . S
C652 N244 1.409 . S
C663 C18 1.645 . S
C668 C150 1.646 . S
C679 C51 1.648 . S
C684 C183 1.648 . S
C695 C84 1.685 . S
C700 C216 1.685 . S
C711 C249 1.687 . S
C716 C117 1.687 . S
C727 C348 1.650 . S
C732 C282 1.649 . S
C743 C315 1.686 . S
C748 C381 1.686 . S
C759 C480 1.643 . S
C764 C414 1.643 . S
C775 C513 1.650 . S
C780 C447 1.651 . S
C791 C172 1.149 . S
C796 C7 1.115 . S
C807 C40 1.084 . S
C812 C205 1.179 . S
C823 C73 1.076 . S
C828 C238 1.186 . S
C839 C139 1.075 . S
C844 C106 1.186 . S
C855 C153 0.536 . S
C860 C351 0.399 . S
C871 C87 0.584 . S
C876 C285 0.364 . S
C887 C384 0.366 . S
C892 C219 0.584 . S
C903 C318 0.371 . S
C908 C21 0.561 . S
C919 C271 1.122 . S
C924 C403 1.142 . S
C935 C502 1.186 . S
C940 C337 1.076 . S
C951 C436 1.077 . S
C956 C304 1.185 . S
C967 C370 1.088 . S
C972 C469 1.175 . S
C983 C483 0.361 . S
C988 C54 0.572 . S
C999 C186 0.377 . S
C1004 C450 0.581 . S
C1015 C516 0.415 . S
C1020 C120 0.562 . S
C1031 C252 0.550 . S
C1036 C417 0.384 . S
C1047 N2 0.757 . S
C1052 N431 0.682 . S
C1063 N35 0.660 . S
C1068 N365 0.744 . S
C1079 N68 0.767 . S
C1084 N398 0.712 . S
C1095 N101 0.748 . S
C1100 N332 0.763 . S
C1111 N134 0.616 . S
C1116 N497 0.630 . S
C1127 N167 0.763 . S
C1132 N299 0.746 . S
C1143 N464 0.710 . S
C1148 N200 0.767 . S
C1159 N266 0.759 . S
C1164 N233 0.687 . S
