# Generated by pormake.
# Topology crb, (4)-cn, num edge types: 1
# Building blocks:
#     Node 0, Type 0, BuildingBlock: KUFVIS_clean_sbu_0, # of connection points: 4
#     Node 1, Type 0, BuildingBlock: KUFVIS_clean_sbu_0, # of connection points: 4
#     Node 2, Type 0, BuildingBlock: KUFVIS_clean_sbu_0, # of connection points: 4
#     Node 3, Type 0, BuildingBlock: KUFVIS_clean_sbu_0, # of connection points: 4
#     Node 4, Type 0, BuildingBlock: KUFVIS_clean_sbu_0, # of connection points: 4
#     Node 5, Type 0, BuildingBlock: KUFVIS_clean_sbu_0, # of connection points: 4
#     Node 6, Type 0, BuildingBlock: KUFVIS_clean_sbu_0, # of connection points: 4
#     Node 7, Type 0, BuildingBlock: KUFVIS_clean_sbu_0, # of connection points: 4
#     Edge 8, Type (0, 0), BuildingBlock: EZIPEK_clean_linker_0, # of connection points: 2
#     Edge 9, Type (0, 0), BuildingBlock: EZIPEK_clean_linker_0, # of connection points: 2
#     Edge 10, Type (0, 0), BuildingBlock: EZIPEK_clean_linker_0, # of connection points: 2
#     Edge 11, Type (0, 0), BuildingBlock: EZIPEK_clean_linker_0, # of connection points: 2
#     Edge 12, Type (0, 0), BuildingBlock: EZIPEK_clean_linker_0, # of connection points: 2
#     Edge 13, Type (0, 0), BuildingBlock: EZIPEK_clean_linker_0, # of connection points: 2
#     Edge 14, Type (0, 0), BuildingBlock: EZIPEK_clean_linker_0, # of connection points: 2
#     Edge 15, Type (0, 0), BuildingBlock: EZIPEK_clean_linker_0, # of connection points: 2
#     Edge 16, Type (0, 0), BuildingBlock: EZIPEK_clean_linker_0, # of connection points: 2
#     Edge 17, Type (0, 0), BuildingBlock: EZIPEK_clean_linker_0, # of connection points: 2
#     Edge 18, Type (0, 0), BuildingBlock: EZIPEK_clean_linker_0, # of connection points: 2
#     Edge 19, Type (0, 0), BuildingBlock: EZIPEK_clean_linker_0, # of connection points: 2
#     Edge 20, Type (0, 0), BuildingBlock: EZIPEK_clean_linker_0, # of connection points: 2
#     Edge 21, Type (0, 0), BuildingBlock: EZIPEK_clean_linker_0, # of connection points: 2
#     Edge 22, Type (0, 0), BuildingBlock: EZIPEK_clean_linker_0, # of connection points: 2
#     Edge 23, Type (0, 0), BuildingBlock: EZIPEK_clean_linker_0, # of connection points: 2
# Relax obj value: 0.084
# Max RMSD: 0.128
# Mean RMSD: 0.128
data_MOF--net-crb--node1-KUFVIS_clean_sbu_0--edge1-EZIPEK_clean_linker_0
_symmetry_space_group_name_H-M    P1
_symmetry_Int_Tables_number       1
_symmetry_cell_setting            triclinic
loop_
_symmetry_equiv_pos_as_xyz
'x, y, z'
_cell_length_a     30.442854
_cell_length_b     31.673741
_cell_length_c     16.884502
_cell_angle_alpha  90.002105
_cell_angle_beta   90.065178
_cell_angle_gamma 89.923969
loop_
_atom_site_label
_atom_site_type_symbol
_atom_site_fract_x
_atom_site_fract_y
_atom_site_fract_z
_atom_type_partial_charge
Mn0 Mn 0.3298 0.36872 0.08224 0.0
Mn1 Mn 0.35952 0.26564 0.07704 0.0
C2 C 0.40403 0.35024 0.08615 0.0
C3 C 0.31753 0.43873 0.04129 0.0
C4 C 0.31439 0.30575 0.21692 0.0
O5 O 0.27861 0.34135 0.02286 0.0
O6 O 0.30088 0.2725 0.02427 0.0
C7 C 0.35977 0.22811 0.91621 0.0
N8 N 0.38347 0.24066 0.98069 0.0
C9 C 0.44212 0.18359 0.93651 0.0
C10 C 0.41424 0.17441 0.87368 0.0
C11 C 0.37468 0.1966 0.86353 0.0
C12 C 0.42224 0.2222 0.99694 0.0
H13 H 0.32767 0.24115 0.9053 0.0
C14 C 0.27456 0.30234 1.00269 0.0
O15 O 0.29886 0.42289 0.10294 0.0
O16 O 0.33995 0.41269 0.99728 0.0
N17 N 0.41653 0.2612 0.12487 0.0
C18 C 0.42867 0.27382 0.19868 0.0
C19 C 0.47217 0.27055 0.22507 0.0
C20 C 0.50567 0.25229 0.1799 0.0
C21 C 0.49615 0.23163 0.10576 0.0
C22 C 0.44507 0.24335 0.07539 0.0
H23 H 0.40521 0.2887 0.23753 0.0
O24 O 0.38903 0.38324 0.12316 0.0
O25 O 0.37427 0.32585 0.05343 0.0
O26 O 0.31023 0.34215 0.18733 0.0
O27 O 0.33356 0.27627 0.18082 0.0
C28 C 0.52995 0.17244 1.01321 0.0
C29 C 0.49242 0.15953 0.94105 0.0
H30 H 0.42359 0.1507 0.83069 0.0
H31 H 0.35404 0.18844 0.81358 0.0
H32 H 0.4803 0.2832 0.28284 0.0
H33 H 0.53756 0.25281 0.20797 0.0
H34 H 0.56128 0.15548 1.01423 0.0
H35 H 0.50101 0.13591 0.89746 0.0
Mn36 Mn 0.66624 0.36874 0.9959 0.0
Mn37 Mn 0.6365 0.26593 1.00633 0.0
C38 C 0.5917 0.35089 0.99816 0.0
C39 C 0.68068 0.43855 0.03639 0.0
C40 C 0.67884 0.30566 0.86143 0.0
O41 O 0.71977 0.34009 0.04839 0.0
O42 O 0.69429 0.27299 0.06008 0.0
C43 C 0.63572 0.23018 0.16851 0.0
N44 N 0.61231 0.24171 0.10296 0.0
C45 C 0.55444 0.18411 0.1471 0.0
C46 C 0.58221 0.17555 0.21047 0.0
C47 C 0.62118 0.19855 0.22123 0.0
C48 C 0.57403 0.22261 0.08629 0.0
H49 H 0.66721 0.24437 0.18054 0.0
C50 C 0.72233 0.30218 0.07603 0.0
O51 O 0.69702 0.42271 0.9726 0.0
O52 O 0.6597 0.41252 0.08256 0.0
N53 N 0.57958 0.26132 0.95805 0.0
C54 C 0.56737 0.2737 0.88419 0.0
C55 C 0.52386 0.27029 0.85785 0.0
C56 C 0.49044 0.25195 0.90307 0.0
C57 C 0.50009 0.23145 0.97732 0.0
C58 C 0.55112 0.24343 1.00758 0.0
H59 H 0.5908 0.28837 0.84527 0.0
O60 O 0.60593 0.38431 0.96173 0.0
O61 O 0.62213 0.32636 0.0286 0.0
O62 O 0.68077 0.34293 0.88761 0.0
O63 O 0.66368 0.2757 0.90237 0.0
C64 C 0.4667 0.1724 0.07047 0.0
C65 C 0.50432 0.15983 0.14276 0.0
H66 H 0.57305 0.15194 0.25371 0.0
H67 H 0.64157 0.19107 0.27191 0.0
H68 H 0.51567 0.28279 0.79998 0.0
H69 H 0.45854 0.25224 0.87499 0.0
H70 H 0.43547 0.15534 0.06967 0.0
H71 H 0.49586 0.13636 0.18666 0.0
Mn72 Mn 0.66593 0.69232 0.07931 0.0
Mn73 Mn 0.63621 0.7953 0.0688 0.0
C74 C 0.5915 0.71045 0.07775 0.0
C75 C 0.68021 0.62238 0.03917 0.0
C76 C 0.67888 0.75551 0.21361 0.0
O77 O 0.7191 0.72062 0.02584 0.0
O78 O 0.69411 0.7881 1.01522 0.0
C79 C 0.63535 0.83096 0.90653 0.0
N80 N 0.61194 0.81943 0.97194 0.0
C81 C 0.55377 0.8768 0.92702 0.0
C82 C 0.58156 0.88535 0.86385 0.0
C83 C 0.62069 0.86247 0.85353 0.0
C84 C 0.57349 0.83843 0.98816 0.0
H85 H 0.66696 0.81687 0.89483 0.0
C86 C 0.72181 0.75861 0.99869 0.0
O87 O 0.69683 0.63833 0.10265 0.0
O88 O 0.65891 0.64833 0.99312 0.0
N89 N 0.57923 0.80009 0.11677 0.0
C90 C 0.56709 0.78803 0.19078 0.0
C91 C 0.52354 0.79142 0.21688 0.0
C92 C 0.48999 0.8094 0.17118 0.0
C93 C 0.49952 0.82966 0.09673 0.0
C94 C 0.55064 0.81771 0.06685 0.0
H95 H 0.5906 0.77363 0.23007 0.0
O96 O 0.60583 0.67707 0.11436 0.0
O97 O 0.62181 0.73484 0.04685 0.0
O98 O 0.68105 0.71831 0.18714 0.0
O99 O 0.66339 0.78551 0.17296 0.0
C100 C 0.46593 0.88851 1.00303 0.0
C101 C 0.50354 0.90101 0.93091 0.0
H102 H 0.57232 0.9089 0.82043 0.0
H103 H 0.64111 0.86995 0.80299 0.0
H104 H 0.51543 0.77915 0.2749 0.0
H105 H 0.45809 0.80906 0.19908 0.0
H106 H 0.43465 0.90556 1.00358 0.0
H107 H 0.49502 0.92442 0.88684 0.0
Mn108 Mn 0.32979 0.69195 0.99188 0.0
Mn109 Mn 0.35899 0.79519 0.99636 0.0
C110 C 0.40395 0.71045 0.98988 0.0
C111 C 0.31698 0.62236 0.03446 0.0
C112 C 0.31559 0.75349 0.85501 0.0
O113 O 0.27745 0.72023 0.04758 0.0
O114 O 0.30077 0.78864 0.04937 0.0
C115 C 0.35948 0.83228 0.15768 0.0
N116 N 0.383 0.82022 0.09269 0.0
C117 C 0.44129 0.87749 0.13691 0.0
C118 C 0.41341 0.88653 0.19974 0.0
C119 C 0.37418 0.86394 0.21023 0.0
C120 C 0.42164 0.83878 0.07654 0.0
H121 H 0.32778 0.81854 0.16933 0.0
C122 C 0.27421 0.75902 0.07011 0.0
O123 O 0.29914 0.63769 0.97148 0.0
O124 O 0.33868 0.64877 0.07882 0.0
N125 N 0.41606 0.79962 0.94877 0.0
C126 C 0.42826 0.78723 0.87499 0.0
C127 C 0.47178 0.79039 0.84887 0.0
C128 C 0.50526 0.80854 0.89426 0.0
C129 C 0.49565 0.82926 0.96827 0.0
C130 C 0.44457 0.81753 0.99837 0.0
H131 H 0.40477 0.77277 0.83595 0.0
O132 O 0.38949 0.67682 0.95433 0.0
O133 O 0.37382 0.73506 0.02094 0.0
O134 O 0.3125 0.71703 0.88453 0.0
O135 O 0.3323 0.78394 0.89253 0.0
C136 C 0.52914 0.88866 0.06069 0.0
C137 C 0.49149 0.90162 0.13254 0.0
H138 H 0.42263 0.91029 0.24273 0.0
H139 H 0.35369 0.87182 0.26049 0.0
H140 H 0.47992 0.77782 0.79106 0.0
H141 H 0.53717 0.80799 0.86639 0.0
H142 H 0.56039 0.90567 0.05976 0.0
H143 H 0.49995 0.9253 0.17609 0.0
Mn144 Mn 0.82852 0.86788 0.58172 0.0
Mn145 Mn 0.85951 0.76555 0.56741 0.0
C146 C 0.90331 0.85058 0.57765 0.0
C147 C 0.81339 0.93793 0.54289 0.0
C148 C 0.81982 0.80346 0.71642 0.0
O149 O 0.77548 0.83986 0.52726 0.0
O150 O 0.80077 0.77235 0.51604 0.0
C151 C 0.85962 0.73078 0.40448 0.0
N152 N 0.88333 0.74212 0.4697 0.0
C153 C 0.94136 0.6849 0.4235 0.0
C154 C 0.91335 0.6767 0.36035 0.0
C155 C 0.87416 0.6996 0.35074 0.0
C156 C 0.92197 0.72317 0.48516 0.0
H157 H 0.82785 0.74467 0.3937 0.0
C158 C 0.77285 0.80181 0.50055 0.0
O159 O 0.79744 0.92169 0.6067 0.0
O160 O 0.83452 0.91227 0.4962 0.0
N161 N 0.91684 0.76108 0.61432 0.0
C162 C 0.92933 0.77307 0.68835 0.0
C163 C 0.97284 0.76927 0.71434 0.0
C164 C 0.006 0.7509 0.66866 0.0
C165 C 0.99607 0.73084 0.59413 0.0
C166 C 0.94511 0.74338 0.5642 0.0
H167 H 0.90626 0.78785 0.72791 0.0
O168 O 0.88886 0.8834 0.61576 0.0
O169 O 0.87301 0.82621 0.54661 0.0
O170 O 0.81495 0.84059 0.69013 0.0
O171 O 0.83416 0.77485 0.67183 0.0
C172 C 0.02913 0.67211 0.49975 0.0
C173 C 0.99139 0.66025 0.42723 0.0
H174 H 0.92239 0.65331 0.31655 0.0
H175 H 0.85352 0.69231 0.30031 0.0
H176 H 0.98122 0.78147 0.77233 0.0
H177 H 0.03793 0.75086 0.69661 0.0
H178 H 0.06029 0.65486 0.50014 0.0
H179 H -0.00031 0.63694 0.38287 0.0
Mn180 Mn 0.16507 0.86907 0.49184 0.0
Mn181 Mn 0.13649 0.76573 0.49669 0.0
C182 C 0.09093 0.85021 0.48911 0.0
C183 C 0.17714 0.93897 0.53358 0.0
C184 C 0.18033 0.80679 0.35616 0.0
O185 O 0.21721 0.8417 0.54964 0.0
O186 O 0.19469 0.773 0.55086 0.0
C187 C 0.1358 0.72692 0.65637 0.0
N188 N 0.1123 0.73983 0.59188 0.0
C189 C 0.05378 0.68232 0.63396 0.0
C190 C 0.08148 0.67277 0.6969 0.0
C191 C 0.1209 0.69497 0.70804 0.0
C192 C 0.07384 0.72117 0.57439 0.0
H193 H 0.16775 0.74 0.66803 0.0
C194 C 0.22119 0.80287 0.57128 0.0
O195 O 0.19538 0.92348 0.47118 0.0
O196 O 0.15536 0.91261 0.57786 0.0
N197 N 0.07974 0.76116 0.44766 0.0
C198 C 0.06769 0.77431 0.37413 0.0
C199 C 0.02422 0.77126 0.3474 0.0
C200 C 0.99058 0.75287 0.39198 0.0
C201 C -5e-05 0.73174 0.4657 0.0
C202 C 0.05114 0.74292 0.49637 0.0
H203 H 0.09119 0.78942 0.3358 0.0
O204 O 0.10546 0.88357 0.4528 0.0
O205 O 0.12107 0.82581 0.52098 0.0
O206 O 0.18346 0.84343 0.38509 0.0
O207 O 0.16306 0.77681 0.39372 0.0
C208 C 0.96589 0.67226 0.55705 0.0
C209 C 0.00337 0.65865 0.6289 0.0
H210 H 0.07204 0.64884 0.73933 0.0
H211 H 0.14139 0.68654 0.75806 0.0
H212 H 0.0162 0.78428 0.28985 0.0
H213 H 0.95873 0.75368 0.36381 0.0
H214 H 0.93448 0.65552 0.55573 0.0
H215 H 0.99465 0.63486 0.67204 0.0
Mn216 Mn 0.16455 0.19266 0.58199 0.0
Mn217 Mn 0.13503 0.2958 0.5781 0.0
C218 C 0.09037 0.21118 0.5871 0.0
C219 C 0.17649 0.12265 0.54058 0.0
C220 C 0.18054 0.25522 0.71703 0.0
O221 O 0.21548 0.22005 0.52203 0.0
O222 O 0.19344 0.28894 0.5244 0.0
C223 C 0.13405 0.33387 0.41769 0.0
N224 N 0.11072 0.32128 0.48247 0.0
C225 C 0.05162 0.3781 0.43895 0.0
C226 C 0.07918 0.38741 0.37585 0.0
C227 C 0.1188 0.36539 0.36527 0.0
C228 C 0.0721 0.3398 0.49948 0.0
H229 H 0.16608 0.32081 0.40624 0.0
C230 C 0.2196 0.2591 0.5022 0.0
O231 O 0.19552 0.13842 0.60201 0.0
O232 O 0.15387 0.14877 0.49698 0.0
N233 N 0.07828 0.30027 0.62683 0.0
C234 C 0.06635 0.28733 0.7005 0.0
C235 C 0.02291 0.29046 0.72717 0.0
C236 C 0.98916 0.30864 0.68229 0.0
C237 C -0.00165 0.32944 0.60823 0.0
C238 C 0.04961 0.31836 0.57791 0.0
H239 H 0.08994 0.27233 0.73904 0.0
O240 O 0.10559 0.17814 0.62374 0.0
O241 O 0.11993 0.23565 0.55404 0.0
O242 O 0.18469 0.21893 0.68705 0.0
O243 O 0.16132 0.2848 0.68132 0.0
C244 C 0.96368 0.3881 0.51543 0.0
C245 C 0.00099 0.40147 0.44336 0.0
H246 H 0.06948 0.41099 0.33283 0.0
H247 H 0.13915 0.3736 0.31505 0.0
H248 H 0.01499 0.27765 0.78488 0.0
H249 H 0.95734 0.30789 0.71046 0.0
H250 H 0.9321 0.40462 0.51626 0.0
H251 H 0.992 0.42491 0.39964 0.0
Mn252 Mn 0.82778 0.19168 0.49471 0.0
Mn253 Mn 0.85825 0.29411 0.50707 0.0
C254 C 0.90251 0.20904 0.49924 0.0
C255 C 0.8128 0.12186 0.5348 0.0
C256 C 0.8193 0.25523 0.35831 0.0
O257 O 0.77449 0.22004 0.54795 0.0
O258 O 0.79958 0.28758 0.55832 0.0
C259 C 0.85815 0.32979 0.66931 0.0
N260 N 0.8819 0.31823 0.60432 0.0
C261 C 0.93934 0.37618 0.64921 0.0
C262 C 0.91131 0.38459 0.71217 0.0
C263 C 0.8724 0.36143 0.72231 0.0
C264 C 0.92029 0.3374 0.58839 0.0
H265 H 0.82658 0.31568 0.68044 0.0
C266 C 0.77178 0.25818 0.57424 0.0
O267 O 0.79695 0.13772 0.47048 0.0
O268 O 0.83365 0.14782 0.58127 0.0
N269 N 0.91556 0.29837 0.46031 0.0
C270 C 0.92828 0.28554 0.38694 0.0
C271 C 0.97172 0.28955 0.36093 0.0
C272 C 0.00459 0.30883 0.40594 0.0
C273 C 0.99441 0.32947 0.47977 0.0
C274 C 0.94359 0.31681 0.50989 0.0
H275 H 0.90546 0.26993 0.34801 0.0
O276 O 0.88824 0.17592 0.46188 0.0
O277 O 0.87206 0.2336 0.5294 0.0
O278 O 0.81463 0.21826 0.38537 0.0
O279 O 0.83298 0.28424 0.40269 0.0
C280 C 0.02695 0.38902 0.57288 0.0
C281 C 0.98913 0.40112 0.64503 0.0
H282 H 0.92015 0.40832 0.75544 0.0
H283 H 0.85175 0.36888 0.77259 0.0
H284 H 0.98028 0.27675 0.30349 0.0
H285 H 0.0365 0.30894 0.37806 0.0
H286 H 0.05795 0.40644 0.57221 0.0
H287 H 0.99724 0.42476 0.68888 0.0
C288 C 0.27804 0.50826 0.03056 0.0
C289 C 0.31837 0.48568 0.0317 0.0
C290 C 0.35851 0.55314 0.03949 0.0
C291 C 0.318 0.57547 0.04509 0.0
N292 N 0.23938 0.57376 0.05862 0.0
N293 N 0.39708 0.48665 0.05154 0.0
C294 C 0.27781 0.55277 0.04417 0.0
C295 C 0.35863 0.50811 0.03977 0.0
N296 N 0.23997 0.48717 1.01402 0.0
N297 N 0.39704 0.57468 0.03002 0.0
H298 H 0.39963 0.45394 0.04944 0.0
H299 H 0.42616 0.50123 0.06912 0.0
H300 H 0.39942 0.60739 0.03249 0.0
H301 H 0.42646 0.56016 1.0141 0.0
H302 H 0.20995 0.50213 1.00454 0.0
H303 H 0.23922 0.45483 1.00223 0.0
H304 H 0.20931 0.55874 0.06649 0.0
H305 H 0.2383 0.6061 0.07036 0.0
C306 C 0.48543 0.35348 0.12257 0.0
C307 C 0.45218 0.34893 0.0637 0.0
C308 C 0.51043 0.35333 0.9618 0.0
C309 C 0.54366 0.3487 0.02069 0.0
N310 N 0.56165 0.34537 0.16038 0.0
N311 N 0.43424 0.34612 0.9239 0.0
C312 C 0.53077 0.34877 0.10186 0.0
C313 C 0.4651 0.34899 0.98251 0.0
N314 N 0.47417 0.36384 0.19854 0.0
N315 N 0.52173 0.36355 0.88578 0.0
H316 H 0.4007 0.34961 0.93312 0.0
H317 H 0.4421 0.33895 0.86537 0.0
H318 H 0.55389 0.36367 0.86492 0.0
H319 H 0.49907 0.37377 0.84363 0.0
H320 H 0.49689 0.37391 0.24066 0.0
H321 H 0.442 0.36432 0.2193 0.0
H322 H 0.55369 0.33867 0.21905 0.0
H323 H 0.5953 0.34742 0.15089 0.0
C324 C 0.72011 0.50825 0.04441 0.0
C325 C 0.67988 0.48558 0.04582 0.0
C326 C 0.63928 0.55295 0.03747 0.0
C327 C 0.67958 0.57535 0.02992 0.0
N328 N 0.75808 0.57392 1.01474 0.0
N329 N 0.60083 0.48625 0.03139 0.0
C330 C 0.71993 0.55277 0.03029 0.0
C331 C 0.63939 0.50792 0.0394 0.0
N332 N 0.75849 0.48718 0.05899 0.0
N333 N 0.6007 0.57456 0.04652 0.0
H334 H 0.59836 0.45367 0.03684 0.0
H335 H 0.57139 0.5004 1.01433 0.0
H336 H 0.59806 0.60715 0.04115 0.0
H337 H 0.5715 0.56037 0.06438 0.0
H338 H 0.78867 0.50207 0.06646 0.0
H339 H 0.75949 0.45486 0.07098 0.0
H340 H 0.78825 0.5591 1.00646 0.0
H341 H 0.7588 0.60625 1.00279 0.0
C342 C 0.46496 0.7127 0.09347 0.0
C343 C 0.45201 0.71249 1.01229 0.0
C344 C 0.5305 0.71245 0.97408 0.0
C345 C 0.54346 0.71263 0.05526 0.0
N346 N 0.5217 0.69812 0.1903 0.0
N347 N 0.47379 0.69728 0.87755 0.0
C348 C 0.51031 0.70821 0.11421 0.0
C349 C 0.48516 0.7078 0.95343 0.0
N350 N 0.43416 0.71608 0.152 0.0
N351 N 0.5613 0.71563 0.91552 0.0
H352 H 0.44157 0.69681 0.85687 0.0
H353 H 0.49645 0.68711 0.83545 0.0
H354 H 0.59496 0.71337 0.92495 0.0
H355 H 0.55326 0.72226 0.85682 0.0
H356 H 0.44216 0.72312 0.21055 0.0
H357 H 0.40052 0.71349 0.14272 0.0
H358 H 0.49907 0.68807 0.23251 0.0
H359 H 0.55389 0.69793 0.21114 0.0
C360 C 0.77331 1.00747 0.53312 0.0
C361 C 0.8137 0.98495 0.53351 0.0
C362 C 0.85387 0.05248 0.53971 0.0
C363 C 0.81339 0.07488 0.54496 0.0
N364 N 0.73477 0.07354 0.5579 0.0
N365 N 0.89263 0.98602 0.54977 0.0
C366 C 0.77314 0.05222 0.54468 0.0
C367 C 0.854 1.00747 0.53986 0.0
N368 N 0.73512 0.98604 0.51922 0.0
N369 N 0.89244 0.07404 0.53081 0.0
H370 H 0.8953 0.95339 0.54586 0.0
H371 H 0.92185 1.00043 0.56699 0.0
H372 H 0.89492 0.10667 0.53487 0.0
H373 H 0.92186 0.0597 0.51435 0.0
H374 H 0.70488 1.00066 0.51042 0.0
H375 H 0.73434 0.95351 0.50938 0.0
H376 H 0.70458 0.05882 0.56617 0.0
H377 H 0.73377 0.10606 0.56776 0.0
C378 C 0.03001 0.84843 0.59291 0.0
C379 C 0.04284 0.84849 0.51168 0.0
C380 C 0.96419 0.84876 0.47376 0.0
C381 C 0.95137 0.84867 0.55496 0.0
N382 N 0.97354 0.8631 0.68996 0.0
N383 N 0.02069 0.86393 0.37709 0.0
C384 C 0.9847 0.85304 0.61378 0.0
C385 C 0.00952 0.85332 0.45296 0.0
N386 N 0.0609 0.84508 0.6514 0.0
N387 N 0.93328 0.84561 0.41529 0.0
H388 H 0.05284 0.86439 0.3562 0.0
H389 H 0.99791 0.8742 0.33519 0.0
H390 H 0.89964 0.84802 0.4248 0.0
H391 H 0.94119 0.83888 0.35659 0.0
H392 H 0.05302 0.83793 0.70992 0.0
H393 H 0.0945 0.84793 0.64213 0.0
H394 H 0.99629 0.87318 0.73202 0.0
H395 H 0.94144 0.86318 0.71108 0.0
C396 C 0.21596 0.05314 0.52966 0.0
C397 C 0.17562 0.07571 0.53078 0.0
C398 C 0.13554 1.00819 0.53794 0.0
C399 C 0.17605 0.98588 0.54386 0.0
N400 N 0.25466 0.9877 0.55808 0.0
N401 N 0.09692 0.07464 0.55048 0.0
C402 C 0.21622 1.00863 0.54327 0.0
C403 C 0.13538 0.05323 0.53859 0.0
N404 N 0.25401 0.07422 0.51316 0.0
N405 N 0.09706 0.98663 0.52781 0.0
H406 H 0.09437 0.10736 0.54897 0.0
H407 H 0.06785 0.05996 0.56772 0.0
H408 H 0.09476 0.9539 0.5295 0.0
H409 H 0.06764 1.00119 0.5119 0.0
H410 H 0.28402 0.05926 0.5037 0.0
H411 H 0.25474 0.10656 0.50132 0.0
H412 H 0.28468 1.00279 0.56624 0.0
H413 H 0.25579 0.95537 0.56987 0.0
C414 C 0.96363 0.2119 0.60292 0.0
C415 C 0.95061 0.2113 0.52177 0.0
C416 C 0.02915 0.21139 0.48357 0.0
C417 C 0.04217 0.21214 0.56473 0.0
N418 N 0.02047 0.19752 0.69972 0.0
N419 N 0.97259 0.19568 0.38717 0.0
C420 C 0.00904 0.20761 0.62368 0.0
C421 C 0.98383 0.20647 0.46299 0.0
N422 N 0.93282 0.21546 0.6614 0.0
N423 N 0.05989 0.21421 0.42487 0.0
H424 H 0.94047 0.19537 0.36605 0.0
H425 H 0.99531 0.18523 0.34543 0.0
H426 H 0.09349 0.21125 0.43412 0.0
H427 H 0.05185 0.2209 0.36618 0.0
H428 H 0.94084 0.22257 0.71991 0.0
H429 H 0.89917 0.21306 0.65198 0.0
H430 H 0.99785 0.18758 0.74203 0.0
H431 H 0.05271 0.19707 0.72031 0.0
C432 C 0.2856 0.29318 0.43682 0.0
C433 C 0.24683 0.26855 0.43117 0.0
C434 C 0.25397 0.26696 0.28626 0.0
C435 C 0.29068 0.29454 0.29116 0.0
N436 N 0.34 0.33671 0.36965 0.0
N437 N 0.18963 0.23801 0.34983 0.0
C438 C 0.306 0.30864 0.36617 0.0
C439 C 0.23001 0.25681 0.35572 0.0
N440 N 0.30361 0.30043 0.50965 0.0
N441 N 0.24191 0.25006 0.21493 0.0
H442 H 0.17071 0.22936 0.39856 0.0
H443 H 0.17288 0.23418 0.29652 0.0
H444 H 0.256 0.25886 0.16132 0.0
H445 H 0.21978 0.2252 0.2092 0.0
H446 H 0.3337 0.31521 0.51861 0.0
H447 H 0.28995 0.28817 0.56133 0.0
H448 H 0.35021 0.35151 0.42149 0.0
H449 H 0.35654 0.34726 0.31932 0.0
C450 C 0.77372 0.24991 0.1437 0.0
C451 C 0.75613 0.29165 0.13817 0.0
C452 C 0.80029 0.31023 0.25387 0.0
C453 C 0.80599 0.26693 0.27419 0.0
N454 N 0.80597 0.19505 0.22563 0.0
N455 N 0.74684 0.35924 0.20538 0.0
C456 C 0.79489 0.23643 0.21536 0.0
C457 C 0.76794 0.32138 0.19761 0.0
N458 N 0.77216 0.22384 0.07929 0.0
N459 N 0.82691 0.34088 0.28419 0.0
H460 H 0.71901 0.36771 0.17342 0.0
H461 H 0.75365 0.37985 0.25203 0.0
H462 H 0.85599 0.33404 0.31411 0.0
H463 H 0.8242 0.37244 0.26709 0.0
H464 H 0.78751 0.19448 0.07706 0.0
H465 H 0.75973 0.23356 0.02473 0.0
H466 H 0.79248 0.1707 0.19204 0.0
H467 H 0.82934 0.18514 0.26674 0.0
C468 C 0.70719 0.76679 0.43499 0.0
C469 C 0.74435 0.79376 0.43016 0.0
C470 C 0.74114 0.79027 0.28473 0.0
C471 C 0.70181 0.76646 0.28913 0.0
N472 N 0.64493 0.73441 0.36752 0.0
N473 N 0.79365 0.83568 0.34998 0.0
C474 C 0.6841 0.75531 0.36413 0.0
C475 C 0.76 0.80719 0.35487 0.0
N476 N 0.69464 0.75155 0.50716 0.0
N477 N 0.7622 0.79436 0.21361 0.0
H478 H 0.81087 0.8469 0.39891 0.0
H479 H 0.80253 0.85071 0.29754 0.0
H480 H 0.75049 0.78079 0.1615 0.0
H481 H 0.79352 0.8071 0.20741 0.0
H482 H 0.67096 0.72823 0.5147 0.0
H483 H 0.7097 0.76099 0.55983 0.0
H484 H 0.62769 0.72917 0.41979 0.0
H485 H 0.62837 0.72417 0.31694 0.0
C486 C 0.18884 0.81078 0.20687 0.0
C487 C 0.20372 0.79579 0.28143 0.0
C488 C 0.25954 0.75206 0.21529 0.0
C489 C 0.24638 0.76873 0.14053 0.0
N490 N 0.2029 0.81835 0.06585 0.0
N491 N 0.25768 0.75792 0.35815 0.0
C492 C 0.21225 0.79942 0.13656 0.0
C493 C 0.24002 0.7677 0.28585 0.0
N494 N 0.15155 0.83477 0.20313 0.0
N495 N 0.29167 0.72185 0.21956 0.0
H496 H 0.24454 0.76868 0.41132 0.0
H497 H 0.28748 0.74232 0.36591 0.0
H498 H 0.31166 0.71328 0.1723 0.0
H499 H 0.29745 0.70357 0.26974 0.0
H500 H 0.13601 0.84294 0.15036 0.0
H501 H 0.13432 0.84426 0.25348 0.0
H502 H 0.18206 0.84424 0.06001 0.0
H503 H 0.2182 0.80966 1.01316 0.0
C504 C 0.29013 0.77287 0.63517 0.0
C505 C 0.24896 0.7937 0.64203 0.0
C506 C 0.24951 0.78183 0.7858 0.0
C507 C 0.29184 0.76347 0.78013 0.0
N508 N 0.35321 0.74083 0.70136 0.0
N509 N 0.19276 0.82444 0.7251 0.0
C510 C 0.31242 0.75873 0.70516 0.0
C511 C 0.22987 0.80031 0.71785 0.0
N512 N 0.3076 0.76666 0.56168 0.0
N513 N 0.22702 0.77962 0.85574 0.0
H514 H 0.17609 0.83744 0.67697 0.0
H515 H 0.18033 0.83458 0.7793 0.0
H516 H 0.23984 0.76511 0.90613 0.0
H517 H 0.19412 0.78801 0.86185 0.0
H518 H 0.33511 0.74816 0.55022 0.0
H519 H 0.2938 0.78013 0.51115 0.0
H520 H 0.37243 0.73988 0.65052 0.0
H521 H 0.36836 0.7272 0.75056 0.0
C522 C 0.20888 0.26796 0.93696 0.0
C523 C 0.24736 0.293 0.9316 0.0
C524 C 0.24063 0.29428 0.78665 0.0
C525 C 0.20423 0.26633 0.79131 0.0
N526 N 0.15504 0.22389 0.86935 0.0
N527 N 0.30438 0.32413 0.85082 0.0
C528 C 0.18881 0.25222 0.86617 0.0
C529 C 0.26423 0.30486 0.85632 0.0
N530 N 0.19085 0.26057 1.00966 0.0
N531 N 0.2527 0.31114 0.71534 0.0
H532 H 0.32303 0.33316 0.8997 0.0
H533 H 0.32125 0.32801 0.7977 0.0
H534 H 0.23894 0.30199 0.6616 0.0
H535 H 0.27451 0.33627 0.7097 0.0
H536 H 0.16096 0.24542 1.01843 0.0
H537 H 0.20427 0.27306 0.06142 0.0
H538 H 0.14474 0.20914 0.92114 0.0
H539 H 0.13878 0.21308 0.81885 0.0
C540 C 0.74066 0.27023 0.79018 0.0
C541 C 0.70159 0.29456 0.78585 0.0
C542 C 0.70662 0.29399 0.63996 0.0
C543 C 0.74346 0.26651 0.64471 0.0
N544 N 0.79259 0.22418 0.72494 0.0
N545 N 0.64487 0.32722 0.70753 0.0
C546 C 0.75917 0.253 0.72003 0.0
C547 C 0.68384 0.30586 0.71086 0.0
N548 N 0.76184 0.26593 0.86125 0.0
N549 N 0.69407 0.30934 0.5678 0.0
H550 H 0.62853 0.33771 0.75813 0.0
H551 H 0.62757 0.33262 0.6553 0.0
H552 H 0.70884 0.29963 0.51509 0.0
H553 H 0.67069 0.33302 0.56031 0.0
H554 H 0.79302 0.2528 0.8674 0.0
H555 H 0.75041 0.27968 0.91339 0.0
H556 H 0.80138 0.20904 0.77737 0.0
H557 H 0.80973 0.21284 0.67605 0.0
C558 C 0.77525 0.80904 0.9313 0.0
C559 C 0.75496 0.76848 0.93541 0.0
C560 C 0.79643 0.7483 0.81755 0.0
C561 C 0.80579 0.7913 0.79975 0.0
N562 N 0.81193 0.8622 0.85153 0.0
N563 N 0.73924 0.70316 0.86485 0.0
C564 C 0.79736 0.82174 0.86013 0.0
C565 C 0.7637 0.73896 0.874 0.0
N566 N 0.77514 0.83463 0.99643 0.0
N567 N 0.81995 0.71602 0.78477 0.0
H568 H 0.71107 0.69668 0.89742 0.0
H569 H 0.74366 0.68282 0.81687 0.0
H570 H 0.84961 0.72073 0.75539 0.0
H571 H 0.81435 0.68452 0.79979 0.0
H572 H 0.79246 0.86288 0.99993 0.0
H573 H 0.76142 0.82551 0.05024 0.0
H574 H 0.80092 0.88716 0.88645 0.0
H575 H 0.83564 0.87066 0.81002 0.0
loop_
_geom_bond_atom_site_label_1
_geom_bond_atom_site_label_2
_geom_bond_distance
_geom_bond_site_symmetry_2
_ccdc_geom_bond_type
Mn0 O5 2.095 1_554 S
Mn0 O15 2.162 . S
Mn0 O16 2.297 1_554 S
Mn0 O24 2.385 . S
Mn0 O25 2.209 . S
Mn0 O26 2.094 . S
Mn1 O6 2.121 1_554 S
Mn1 N8 2.257 1_554 S
Mn1 N17 2.282 . S
Mn1 O25 2.215 . S
Mn1 O27 2.117 . S
C2 O24 1.234 . S
C2 O25 1.283 . S
C3 O15 1.281 . S
C3 O16 1.236 1_554 S
C4 O26 1.240 . S
C4 O27 1.264 . S
O5 Mn0 2.095 1_556 S
O5 C14 1.250 . S
O6 Mn1 2.121 1_556 S
O6 C14 1.258 . S
C7 N8 1.326 . S
C7 C11 1.460 . S
C7 H13 0.929 . S
N8 Mn1 2.257 1_556 S
N8 C7 1.326 . S
N8 C12 1.362 . S
C9 C10 1.258 . S
C9 C12 1.431 . S
C9 C29 1.449 . S
C10 C9 1.258 . S
C10 C11 1.477 . S
C10 H30 0.931 . S
C11 C7 1.460 . S
C11 C10 1.477 . S
C11 H31 0.930 . S
C12 N8 1.362 . S
C12 C9 1.431 . S
C12 C22 1.476 1_556 S
H13 C7 0.929 . S
C14 O5 1.250 . S
C14 O6 1.258 . S
O15 Mn0 2.162 . S
O15 C3 1.281 . S
O16 Mn0 2.297 1_556 S
O16 C3 1.236 1_556 S
N17 Mn1 2.282 . S
N17 C18 1.328 . S
N17 C22 1.318 . S
C18 N17 1.328 . S
C18 C19 1.457 . S
C18 H23 0.929 . S
C19 C18 1.457 . S
C19 C20 1.291 . S
C19 H32 0.931 . S
C20 C19 1.291 . S
C20 C21 1.373 . S
C20 H33 0.929 . S
C21 C20 1.373 . S
C21 C22 1.396 . S
C21 C28 1.403 . S
C22 C12 1.476 1_554 S
C22 N17 1.318 . S
C22 C21 1.396 . S
H23 C18 0.929 . S
O24 Mn0 2.385 . S
O24 C2 1.234 . S
O25 Mn0 2.209 . S
O25 Mn1 2.215 . S
O25 C2 1.283 . S
O26 Mn0 2.094 . S
O26 C4 1.240 . S
O27 Mn1 2.117 . S
O27 C4 1.264 . S
C28 C21 1.403 . S
C28 C29 1.399 1_554 S
C28 H34 0.929 . S
C29 C9 1.449 . S
C29 C28 1.399 1_556 S
C29 H35 0.930 . S
H30 C10 0.931 . S
H31 C11 0.930 . S
H32 C19 0.931 . S
H33 C20 0.929 . S
H34 C28 0.929 . S
H35 C29 0.930 . S
Mn36 O41 2.095 1_556 S
Mn36 O51 2.162 . S
Mn36 O52 2.297 1_556 S
Mn36 O60 2.385 . S
Mn36 O61 2.209 1_556 S
Mn36 O62 2.094 . S
Mn37 O42 2.121 . S
Mn37 N44 2.257 . S
Mn37 N53 2.282 1_554 S
Mn37 O61 2.215 . S
Mn37 O63 2.117 1_554 S
C38 O60 1.234 . S
C38 O61 1.283 1_556 S
C39 O51 1.281 1_554 S
C39 O52 1.236 . S
C40 O62 1.240 . S
C40 O63 1.264 . S
O41 Mn36 2.095 1_554 S
O41 C50 1.250 . S
O42 Mn37 2.121 . S
O42 C50 1.258 . S
C43 N44 1.326 . S
C43 C47 1.460 . S
C43 H49 0.929 . S
N44 Mn37 2.257 . S
N44 C43 1.326 . S
N44 C48 1.362 . S
C45 C46 1.258 . S
C45 C48 1.431 . S
C45 C65 1.449 . S
C46 C45 1.258 . S
C46 C47 1.477 . S
C46 H66 0.931 . S
C47 C43 1.460 . S
C47 C46 1.477 . S
C47 H67 0.930 . S
C48 N44 1.362 . S
C48 C45 1.431 . S
C48 C58 1.476 1_554 S
H49 C43 0.929 . S
C50 O41 1.250 . S
C50 O42 1.258 . S
O51 Mn36 2.162 . S
O51 C39 1.281 1_556 S
O52 Mn36 2.297 1_554 S
O52 C39 1.236 . S
N53 Mn37 2.282 1_556 S
N53 C54 1.328 . S
N53 C58 1.318 . S
C54 N53 1.328 . S
C54 C55 1.457 . S
C54 H59 0.929 . S
C55 C54 1.457 . S
C55 C56 1.291 . S
C55 H68 0.931 . S
C56 C55 1.291 . S
C56 C57 1.373 . S
C56 H69 0.929 . S
C57 C56 1.373 . S
C57 C58 1.396 . S
C57 C64 1.403 . S
C58 C48 1.476 1_556 S
C58 N53 1.318 . S
C58 C57 1.396 . S
H59 C54 0.929 . S
O60 Mn36 2.385 . S
O60 C38 1.234 . S
O61 Mn36 2.209 1_554 S
O61 Mn37 2.215 . S
O61 C38 1.283 1_554 S
O62 Mn36 2.094 . S
O62 C40 1.240 . S
O63 Mn37 2.117 1_556 S
O63 C40 1.264 . S
C64 C57 1.403 . S
C64 C65 1.399 1_556 S
C64 H70 0.929 . S
C65 C45 1.449 . S
C65 C64 1.399 1_554 S
C65 H71 0.930 . S
H66 C46 0.931 . S
H67 C47 0.930 . S
H68 C55 0.931 . S
H69 C56 0.929 . S
H70 C64 0.929 . S
H71 C65 0.930 . S
Mn72 O77 2.095 1_554 S
Mn72 O87 2.162 . S
Mn72 O88 2.297 1_554 S
Mn72 O96 2.385 . S
Mn72 O97 2.209 . S
Mn72 O98 2.094 . S
Mn73 O78 2.121 1_554 S
Mn73 N80 2.257 1_554 S
Mn73 N89 2.282 . S
Mn73 O97 2.215 . S
Mn73 O99 2.117 . S
C74 O96 1.234 . S
C74 O97 1.283 . S
C75 O87 1.281 . S
C75 O88 1.236 1_554 S
C76 O98 1.240 . S
C76 O99 1.264 . S
O77 Mn72 2.095 1_556 S
O77 C86 1.250 . S
O78 Mn73 2.121 1_556 S
O78 C86 1.258 . S
C79 N80 1.326 . S
C79 C83 1.460 . S
C79 H85 0.929 . S
N80 Mn73 2.257 1_556 S
N80 C79 1.326 . S
N80 C84 1.362 . S
C81 C82 1.258 . S
C81 C84 1.431 . S
C81 C101 1.449 . S
C82 C81 1.258 . S
C82 C83 1.477 . S
C82 H102 0.931 . S
C83 C79 1.460 . S
C83 C82 1.477 . S
C83 H103 0.930 . S
C84 N80 1.362 . S
C84 C81 1.431 . S
C84 C94 1.476 1_556 S
H85 C79 0.929 . S
C86 O77 1.250 . S
C86 O78 1.258 . S
O87 Mn72 2.162 . S
O87 C75 1.281 . S
O88 Mn72 2.297 1_556 S
O88 C75 1.236 1_556 S
N89 Mn73 2.282 . S
N89 C90 1.328 . S
N89 C94 1.318 . S
C90 N89 1.328 . S
C90 C91 1.457 . S
C90 H95 0.929 . S
C91 C90 1.457 . S
C91 C92 1.291 . S
C91 H104 0.931 . S
C92 C91 1.291 . S
C92 C93 1.373 . S
C92 H105 0.929 . S
C93 C92 1.373 . S
C93 C94 1.396 . S
C93 C100 1.403 . S
C94 C84 1.476 1_554 S
C94 N89 1.318 . S
C94 C93 1.396 . S
H95 C90 0.929 . S
O96 Mn72 2.385 . S
O96 C74 1.234 . S
O97 Mn72 2.209 . S
O97 Mn73 2.215 . S
O97 C74 1.283 . S
O98 Mn72 2.094 . S
O98 C76 1.240 . S
O99 Mn73 2.117 . S
O99 C76 1.264 . S
C100 C93 1.403 . S
C100 C101 1.399 1_554 S
C100 H106 0.929 . S
C101 C81 1.449 . S
C101 C100 1.399 1_556 S
C101 H107 0.930 . S
H102 C82 0.931 . S
H103 C83 0.930 . S
H104 C91 0.931 . S
H105 C92 0.929 . S
H106 C100 0.929 . S
H107 C101 0.930 . S
Mn108 O113 2.095 1_556 S
Mn108 O123 2.162 . S
Mn108 O124 2.297 1_556 S
Mn108 O132 2.385 . S
Mn108 O133 2.209 1_556 S
Mn108 O134 2.094 . S
Mn109 O114 2.121 . S
Mn109 N116 2.257 . S
Mn109 N125 2.282 1_554 S
Mn109 O133 2.215 . S
Mn109 O135 2.117 1_554 S
C110 O132 1.234 . S
C110 O133 1.283 1_556 S
C111 O123 1.281 1_554 S
C111 O124 1.236 . S
C112 O134 1.240 . S
C112 O135 1.264 . S
O113 Mn108 2.095 1_554 S
O113 C122 1.250 . S
O114 Mn109 2.121 . S
O114 C122 1.258 . S
C115 N116 1.326 . S
C115 C119 1.460 . S
C115 H121 0.929 . S
N116 Mn109 2.257 . S
N116 C115 1.326 . S
N116 C120 1.362 . S
C117 C118 1.258 . S
C117 C120 1.431 . S
C117 C137 1.449 . S
C118 C117 1.258 . S
C118 C119 1.477 . S
C118 H138 0.931 . S
C119 C115 1.460 . S
C119 C118 1.477 . S
C119 H139 0.930 . S
C120 N116 1.362 . S
C120 C117 1.431 . S
C120 C130 1.476 1_554 S
H121 C115 0.929 . S
C122 O113 1.250 . S
C122 O114 1.258 . S
O123 Mn108 2.162 . S
O123 C111 1.281 1_556 S
O124 Mn108 2.297 1_554 S
O124 C111 1.236 . S
N125 Mn109 2.282 1_556 S
N125 C126 1.328 . S
N125 C130 1.318 . S
C126 N125 1.328 . S
C126 C127 1.457 . S
C126 H131 0.929 . S
C127 C126 1.457 . S
C127 C128 1.291 . S
C127 H140 0.931 . S
C128 C127 1.291 . S
C128 C129 1.373 . S
C128 H141 0.929 . S
C129 C128 1.373 . S
C129 C130 1.396 . S
C129 C136 1.403 . S
C130 C120 1.476 1_556 S
C130 N125 1.318 . S
C130 C129 1.396 . S
H131 C126 0.929 . S
O132 Mn108 2.385 . S
O132 C110 1.234 . S
O133 Mn108 2.209 1_554 S
O133 Mn109 2.215 . S
O133 C110 1.283 1_554 S
O134 Mn108 2.094 . S
O134 C112 1.240 . S
O135 Mn109 2.117 1_556 S
O135 C112 1.264 . S
C136 C129 1.403 . S
C136 C137 1.399 1_556 S
C136 H142 0.929 . S
C137 C117 1.449 . S
C137 C136 1.399 1_554 S
C137 H143 0.930 . S
H138 C118 0.931 . S
H139 C119 0.930 . S
H140 C127 0.931 . S
H141 C128 0.929 . S
H142 C136 0.929 . S
H143 C137 0.930 . S
Mn144 O149 2.095 . S
Mn144 O159 2.162 . S
Mn144 O160 2.297 . S
Mn144 O168 2.385 . S
Mn144 O169 2.209 . S
Mn144 O170 2.094 . S
Mn145 O150 2.121 . S
Mn145 N152 2.257 . S
Mn145 N161 2.282 . S
Mn145 O169 2.215 . S
Mn145 O171 2.117 . S
C146 O168 1.234 . S
C146 O169 1.283 . S
C147 O159 1.281 . S
C147 O160 1.236 . S
C148 O170 1.240 . S
C148 O171 1.264 . S
O149 Mn144 2.095 . S
O149 C158 1.250 . S
O150 Mn145 2.121 . S
O150 C158 1.258 . S
C151 N152 1.326 . S
C151 C155 1.460 . S
C151 H157 0.929 . S
N152 Mn145 2.257 . S
N152 C151 1.326 . S
N152 C156 1.362 . S
C153 C154 1.258 . S
C153 C156 1.431 . S
C153 C173 1.449 1_655 S
C154 C153 1.258 . S
C154 C155 1.477 . S
C154 H174 0.931 1_655 S
C155 C151 1.460 . S
C155 C154 1.477 . S
C155 H175 0.930 . S
C156 N152 1.362 . S
C156 C153 1.431 . S
C156 C166 1.476 . S
H157 C151 0.929 . S
C158 O149 1.250 . S
C158 O150 1.258 . S
O159 Mn144 2.162 . S
O159 C147 1.281 . S
O160 Mn144 2.297 . S
O160 C147 1.236 . S
N161 Mn145 2.282 . S
N161 C162 1.328 . S
N161 C166 1.318 . S
C162 N161 1.328 . S
C162 C163 1.457 . S
C162 H167 0.929 . S
C163 C162 1.457 . S
C163 C164 1.291 . S
C163 H176 0.931 . S
C164 C163 1.291 . S
C164 C165 1.373 . S
C164 H177 0.929 1_655 S
C165 C164 1.373 . S
C165 C166 1.396 . S
C165 C172 1.403 1_655 S
C166 C156 1.476 . S
C166 N161 1.318 . S
C166 C165 1.396 . S
H167 C162 0.929 . S
O168 Mn144 2.385 . S
O168 C146 1.234 . S
O169 Mn144 2.209 . S
O169 Mn145 2.215 . S
O169 C146 1.283 . S
O170 Mn144 2.094 . S
O170 C148 1.240 . S
O171 Mn145 2.117 . S
O171 C148 1.264 . S
C172 C165 1.403 1_455 S
C172 C173 1.399 . S
C172 H178 0.929 . S
C173 C153 1.449 1_455 S
C173 C172 1.399 . S
C173 H179 0.930 . S
H174 C154 0.931 1_455 S
H175 C155 0.930 . S
H176 C163 0.931 . S
H177 C164 0.929 1_455 S
H178 C172 0.929 . S
H179 C173 0.930 . S
Mn180 O185 2.095 . S
Mn180 O195 2.162 . S
Mn180 O196 2.297 . S
Mn180 O204 2.385 . S
Mn180 O205 2.209 . S
Mn180 O206 2.094 . S
Mn181 O186 2.121 . S
Mn181 N188 2.257 . S
Mn181 N197 2.282 . S
Mn181 O205 2.215 . S
Mn181 O207 2.117 . S
C182 O204 1.234 . S
C182 O205 1.283 . S
C183 O195 1.281 . S
C183 O196 1.236 . S
C184 O206 1.240 . S
C184 O207 1.264 . S
O185 Mn180 2.095 . S
O185 C194 1.250 . S
O186 Mn181 2.121 . S
O186 C194 1.258 . S
C187 N188 1.326 . S
C187 C191 1.460 . S
C187 H193 0.929 . S
N188 Mn181 2.257 . S
N188 C187 1.326 . S
N188 C192 1.362 . S
C189 C190 1.258 . S
C189 C192 1.431 . S
C189 C209 1.449 1_455 S
C190 C189 1.258 . S
C190 C191 1.477 . S
C190 H210 0.931 1_455 S
C191 C187 1.460 . S
C191 C190 1.477 . S
C191 H211 0.930 . S
C192 N188 1.362 . S
C192 C189 1.431 . S
C192 C202 1.476 . S
H193 C187 0.929 . S
C194 O185 1.250 . S
C194 O186 1.258 . S
O195 Mn180 2.162 . S
O195 C183 1.281 . S
O196 Mn180 2.297 . S
O196 C183 1.236 . S
N197 Mn181 2.282 . S
N197 C198 1.328 . S
N197 C202 1.318 . S
C198 N197 1.328 . S
C198 C199 1.457 . S
C198 H203 0.929 . S
C199 C198 1.457 . S
C199 C200 1.291 . S
C199 H212 0.931 . S
C200 C199 1.291 . S
C200 C201 1.373 . S
C200 H213 0.929 1_455 S
C201 C200 1.373 . S
C201 C202 1.396 . S
C201 C208 1.403 1_455 S
C202 C192 1.476 . S
C202 N197 1.318 . S
C202 C201 1.396 . S
H203 C198 0.929 . S
O204 Mn180 2.385 . S
O204 C182 1.234 . S
O205 Mn180 2.209 . S
O205 Mn181 2.215 . S
O205 C182 1.283 . S
O206 Mn180 2.094 . S
O206 C184 1.240 . S
O207 Mn181 2.117 . S
O207 C184 1.264 . S
C208 C201 1.403 1_655 S
C208 C209 1.399 . S
C208 H214 0.929 . S
C209 C189 1.449 1_655 S
C209 C208 1.399 . S
C209 H215 0.930 . S
H210 C190 0.931 1_655 S
H211 C191 0.930 . S
H212 C199 0.931 . S
H213 C200 0.929 1_655 S
H214 C208 0.929 . S
H215 C209 0.930 . S
Mn216 O221 2.095 . S
Mn216 O231 2.162 . S
Mn216 O232 2.297 . S
Mn216 O240 2.385 . S
Mn216 O241 2.209 . S
Mn216 O242 2.094 . S
Mn217 O222 2.121 . S
Mn217 N224 2.257 . S
Mn217 N233 2.282 . S
Mn217 O241 2.215 . S
Mn217 O243 2.117 . S
C218 O240 1.234 . S
C218 O241 1.283 . S
C219 O231 1.281 . S
C219 O232 1.236 . S
C220 O242 1.240 . S
C220 O243 1.264 . S
O221 Mn216 2.095 . S
O221 C230 1.250 . S
O222 Mn217 2.121 . S
O222 C230 1.258 . S
C223 N224 1.326 . S
C223 C227 1.460 . S
C223 H229 0.929 . S
N224 Mn217 2.257 . S
N224 C223 1.326 . S
N224 C228 1.362 . S
C225 C226 1.258 . S
C225 C228 1.431 . S
C225 C245 1.449 1_455 S
C226 C225 1.258 . S
C226 C227 1.477 . S
C226 H246 0.931 1_455 S
C227 C223 1.460 . S
C227 C226 1.477 . S
C227 H247 0.930 . S
C228 N224 1.362 . S
C228 C225 1.431 . S
C228 C238 1.476 . S
H229 C223 0.929 . S
C230 O221 1.250 . S
C230 O222 1.258 . S
O231 Mn216 2.162 . S
O231 C219 1.281 . S
O232 Mn216 2.297 . S
O232 C219 1.236 . S
N233 Mn217 2.282 . S
N233 C234 1.328 . S
N233 C238 1.318 . S
C234 N233 1.328 . S
C234 C235 1.457 . S
C234 H239 0.929 . S
C235 C234 1.457 . S
C235 C236 1.291 . S
C235 H248 0.931 . S
C236 C235 1.291 . S
C236 C237 1.373 . S
C236 H249 0.929 1_455 S
C237 C236 1.373 . S
C237 C238 1.396 . S
C237 C244 1.403 1_455 S
C238 C228 1.476 . S
C238 N233 1.318 . S
C238 C237 1.396 . S
H239 C234 0.929 . S
O240 Mn216 2.385 . S
O240 C218 1.234 . S
O241 Mn216 2.209 . S
O241 Mn217 2.215 . S
O241 C218 1.283 . S
O242 Mn216 2.094 . S
O242 C220 1.240 . S
O243 Mn217 2.117 . S
O243 C220 1.264 . S
C244 C237 1.403 1_655 S
C244 C245 1.399 . S
C244 H250 0.929 . S
C245 C225 1.449 1_655 S
C245 C244 1.399 . S
C245 H251 0.930 . S
H246 C226 0.931 1_655 S
H247 C227 0.930 . S
H248 C235 0.931 . S
H249 C236 0.929 1_655 S
H250 C244 0.929 . S
H251 C245 0.930 . S
Mn252 O257 2.095 . S
Mn252 O267 2.162 . S
Mn252 O268 2.297 . S
Mn252 O276 2.385 . S
Mn252 O277 2.209 . S
Mn252 O278 2.094 . S
Mn253 O258 2.121 . S
Mn253 N260 2.257 . S
Mn253 N269 2.282 . S
Mn253 O277 2.215 . S
Mn253 O279 2.117 . S
C254 O276 1.234 . S
C254 O277 1.283 . S
C255 O267 1.281 . S
C255 O268 1.236 . S
C256 O278 1.240 . S
C256 O279 1.264 . S
O257 Mn252 2.095 . S
O257 C266 1.250 . S
O258 Mn253 2.121 . S
O258 C266 1.258 . S
C259 N260 1.326 . S
C259 C263 1.460 . S
C259 H265 0.929 . S
N260 Mn253 2.257 . S
N260 C259 1.326 . S
N260 C264 1.362 . S
C261 C262 1.258 . S
C261 C264 1.431 . S
C261 C281 1.449 1_655 S
C262 C261 1.258 . S
C262 C263 1.477 . S
C262 H282 0.931 1_655 S
C263 C259 1.460 . S
C263 C262 1.477 . S
C263 H283 0.930 . S
C264 N260 1.362 . S
C264 C261 1.431 . S
C264 C274 1.476 . S
H265 C259 0.929 . S
C266 O257 1.250 . S
C266 O258 1.258 . S
O267 Mn252 2.162 . S
O267 C255 1.281 . S
O268 Mn252 2.297 . S
O268 C255 1.236 . S
N269 Mn253 2.282 . S
N269 C270 1.328 . S
N269 C274 1.318 . S
C270 N269 1.328 . S
C270 C271 1.457 . S
C270 H275 0.929 . S
C271 C270 1.457 . S
C271 C272 1.291 . S
C271 H284 0.931 . S
C272 C271 1.291 . S
C272 C273 1.373 . S
C272 H285 0.929 1_655 S
C273 C272 1.373 . S
C273 C274 1.396 . S
C273 C280 1.403 1_655 S
C274 C264 1.476 . S
C274 N269 1.318 . S
C274 C273 1.396 . S
H275 C270 0.929 . S
O276 Mn252 2.385 . S
O276 C254 1.234 . S
O277 Mn252 2.209 . S
O277 Mn253 2.215 . S
O277 C254 1.283 . S
O278 Mn252 2.094 . S
O278 C256 1.240 . S
O279 Mn253 2.117 . S
O279 C256 1.264 . S
C280 C273 1.403 1_455 S
C280 C281 1.399 . S
C280 H286 0.929 . S
C281 C261 1.449 1_455 S
C281 C280 1.399 . S
C281 H287 0.930 . S
H282 C262 0.931 1_455 S
H283 C263 0.930 . S
H284 C271 0.931 . S
H285 C272 0.929 1_455 S
H286 C280 0.929 . S
H287 C281 0.930 . S
C288 C289 1.363 . S
C288 C294 1.379 . S
C288 N296 1.356 . S
C289 C288 1.363 . S
C289 C295 1.363 1_554 S
C290 C291 1.363 1_556 S
C290 C295 1.379 . S
C290 N297 1.356 . S
C291 C290 1.363 1_554 S
C291 C294 1.363 . S
N292 C294 1.356 . S
N292 H304 0.984 . S
N292 H305 0.985 . S
N293 C295 1.356 . S
N293 H298 0.984 . S
N293 H299 0.985 . S
C294 C288 1.379 . S
C294 C291 1.363 . S
C294 N292 1.356 . S
C295 C289 1.363 1_556 S
C295 C290 1.379 . S
C295 N293 1.356 . S
N296 C288 1.356 . S
N296 H302 0.984 . S
N296 H303 0.984 . S
N297 C290 1.356 . S
N297 H300 0.984 . S
N297 H301 0.985 . S
H298 N293 0.984 . S
H299 N293 0.985 . S
H300 N297 0.984 . S
H301 N297 0.985 . S
H302 N296 0.984 . S
H303 N296 0.984 . S
H304 N292 0.984 . S
H305 N292 0.985 . S
C306 C307 1.363 . S
C306 C312 1.379 . S
C306 N314 1.356 . S
C307 C306 1.363 . S
C307 C313 1.363 1_554 S
C308 C309 1.359 1_556 S
C308 C313 1.379 . S
C308 N315 1.356 . S
C309 C308 1.359 1_554 S
C309 C312 1.370 . S
N310 C312 1.356 . S
N310 H322 0.984 . S
N310 H323 0.985 . S
N311 C313 1.356 . S
N311 H316 0.984 . S
N311 H317 0.985 . S
C312 C306 1.379 . S
C312 C309 1.370 . S
C312 N310 1.356 . S
C313 C307 1.363 1_556 S
C313 C308 1.379 . S
C313 N311 1.356 . S
N314 C306 1.356 . S
N314 H320 0.984 . S
N314 H321 0.984 . S
N315 C308 1.356 . S
N315 H318 0.984 . S
N315 H319 0.985 . S
H316 N311 0.984 . S
H317 N311 0.985 . S
H318 N315 0.984 . S
H319 N315 0.985 . S
H320 N314 0.984 . S
H321 N314 0.984 . S
H322 N310 0.984 . S
H323 N310 0.985 . S
C324 C325 1.363 1_556 S
C324 C330 1.379 . S
C324 N332 1.356 . S
C325 C324 1.363 1_554 S
C325 C331 1.363 . S
C326 C327 1.363 . S
C326 C331 1.379 . S
C326 N333 1.356 . S
C327 C326 1.363 . S
C327 C330 1.363 1_554 S
N328 C330 1.356 . S
N328 H340 0.984 . S
N328 H341 0.985 . S
N329 C331 1.356 . S
N329 H334 0.984 . S
N329 H335 0.985 . S
C330 C324 1.379 . S
C330 C327 1.363 1_556 S
C330 N328 1.356 . S
C331 C325 1.363 . S
C331 C326 1.379 . S
C331 N329 1.356 . S
N332 C324 1.356 . S
N332 H338 0.984 . S
N332 H339 0.984 . S
N333 C326 1.356 . S
N333 H336 0.984 . S
N333 H337 0.985 . S
H334 N329 0.984 . S
H335 N329 0.985 . S
H336 N333 0.984 . S
H337 N333 0.985 . S
H338 N332 0.984 . S
H339 N332 0.984 . S
H340 N328 0.984 . S
H341 N328 0.985 . S
C342 C343 1.370 . S
C342 C348 1.379 . S
C342 N350 1.356 . S
C343 C342 1.370 . S
C343 C349 1.359 1_554 S
C344 C345 1.363 1_556 S
C344 C349 1.379 . S
C344 N351 1.356 . S
C345 C344 1.363 1_554 S
C345 C348 1.363 . S
N346 C348 1.356 . S
N346 H358 0.984 . S
N346 H359 0.985 . S
N347 C349 1.356 . S
N347 H352 0.984 . S
N347 H353 0.985 . S
C348 C342 1.379 . S
C348 C345 1.363 . S
C348 N346 1.356 . S
C349 C343 1.359 1_556 S
C349 C344 1.379 . S
C349 N347 1.356 . S
N350 C342 1.356 . S
N350 H356 0.984 . S
N350 H357 0.984 . S
N351 C344 1.356 . S
N351 H354 0.984 . S
N351 H355 0.985 . S
H352 N347 0.984 . S
H353 N347 0.985 . S
H354 N351 0.984 . S
H355 N351 0.985 . S
H356 N350 0.984 . S
H357 N350 0.984 . S
H358 N346 0.984 . S
H359 N346 0.985 . S
C360 C361 1.363 . S
C360 C366 1.379 1_565 S
C360 N368 1.356 . S
C361 C360 1.363 . S
C361 C367 1.363 . S
C362 C363 1.363 . S
C362 C367 1.379 1_545 S
C362 N369 1.356 . S
C363 C362 1.363 . S
C363 C366 1.363 . S
N364 C366 1.356 . S
N364 H376 0.984 . S
N364 H377 0.985 . S
N365 C367 1.356 . S
N365 H370 0.984 . S
N365 H371 0.985 . S
C366 C360 1.379 1_545 S
C366 C363 1.363 . S
C366 N364 1.356 . S
C367 C361 1.363 . S
C367 C362 1.379 1_565 S
C367 N365 1.356 . S
N368 C360 1.356 . S
N368 H374 0.984 . S
N368 H375 0.984 . S
N369 C362 1.356 . S
N369 H372 0.984 . S
N369 H373 0.985 . S
H370 N365 0.984 . S
H371 N365 0.985 . S
H372 N369 0.984 . S
H373 N369 0.985 . S
H374 N368 0.984 . S
H375 N368 0.984 . S
H376 N364 0.984 . S
H377 N364 0.985 . S
C378 C379 1.363 . S
C378 C384 1.379 1_455 S
C378 N386 1.356 . S
C379 C378 1.363 . S
C379 C385 1.363 . S
C380 C381 1.363 . S
C380 C385 1.379 1_655 S
C380 N387 1.356 . S
C381 C380 1.363 . S
C381 C384 1.363 . S
N382 C384 1.356 . S
N382 H394 0.984 . S
N382 H395 0.985 . S
N383 C385 1.356 . S
N383 H388 0.984 . S
N383 H389 0.985 . S
C384 C378 1.379 1_655 S
C384 C381 1.363 . S
C384 N382 1.356 . S
C385 C379 1.363 . S
C385 C380 1.379 1_455 S
C385 N383 1.356 . S
N386 C378 1.356 . S
N386 H392 0.984 . S
N386 H393 0.984 . S
N387 C380 1.356 . S
N387 H390 0.984 . S
N387 H391 0.985 . S
H388 N383 0.984 . S
H389 N383 0.985 . S
H390 N387 0.984 . S
H391 N387 0.985 . S
H392 N386 0.984 . S
H393 N386 0.984 . S
H394 N382 0.984 . S
H395 N382 0.985 . S
C396 C397 1.363 . S
C396 C402 1.379 1_545 S
C396 N404 1.356 . S
C397 C396 1.363 . S
C397 C403 1.363 . S
C398 C399 1.363 . S
C398 C403 1.379 1_565 S
C398 N405 1.356 . S
C399 C398 1.363 . S
C399 C402 1.363 . S
N400 C402 1.356 . S
N400 H412 0.984 . S
N400 H413 0.985 . S
N401 C403 1.356 . S
N401 H406 0.984 . S
N401 H407 0.985 . S
C402 C396 1.379 1_565 S
C402 C399 1.363 . S
C402 N400 1.356 . S
C403 C397 1.363 . S
C403 C398 1.379 1_545 S
C403 N401 1.356 . S
N404 C396 1.356 . S
N404 H410 0.984 . S
N404 H411 0.984 . S
N405 C398 1.356 . S
N405 H408 0.984 . S
N405 H409 0.985 . S
H406 N401 0.984 . S
H407 N401 0.985 . S
H408 N405 0.984 . S
H409 N405 0.985 . S
H410 N404 0.984 . S
H411 N404 0.984 . S
H412 N400 0.984 . S
H413 N400 0.985 . S
C414 C415 1.363 . S
C414 C420 1.379 1_655 S
C414 N422 1.356 . S
C415 C414 1.363 . S
C415 C421 1.363 . S
C416 C417 1.363 . S
C416 C421 1.379 1_455 S
C416 N423 1.356 . S
C417 C416 1.363 . S
C417 C420 1.363 . S
N418 C420 1.356 . S
N418 H430 0.984 . S
N418 H431 0.985 . S
N419 C421 1.356 . S
N419 H424 0.984 . S
N419 H425 0.985 . S
C420 C414 1.379 1_455 S
C420 C417 1.363 . S
C420 N418 1.356 . S
C421 C415 1.363 . S
C421 C416 1.379 1_655 S
C421 N419 1.356 . S
N422 C414 1.356 . S
N422 H428 0.984 . S
N422 H429 0.984 . S
N423 C416 1.356 . S
N423 H426 0.984 . S
N423 H427 0.985 . S
H424 N419 0.984 . S
H425 N419 0.985 . S
H426 N423 0.984 . S
H427 N423 0.985 . S
H428 N422 0.984 . S
H429 N422 0.984 . S
H430 N418 0.984 . S
H431 N418 0.985 . S
C432 C433 1.363 . S
C432 C438 1.379 . S
C432 N440 1.356 . S
C433 C432 1.363 . S
C433 C439 1.363 . S
C434 C435 1.363 . S
C434 C439 1.379 . S
C434 N441 1.356 . S
C435 C434 1.363 . S
C435 C438 1.363 . S
N436 C438 1.356 . S
N436 H448 0.984 . S
N436 H449 0.985 . S
N437 C439 1.356 . S
N437 H442 0.984 . S
N437 H443 0.985 . S
C438 C432 1.379 . S
C438 C435 1.363 . S
C438 N436 1.356 . S
C439 C433 1.363 . S
C439 C434 1.379 . S
C439 N437 1.356 . S
N440 C432 1.356 . S
N440 H446 0.984 . S
N440 H447 0.984 . S
N441 C434 1.356 . S
N441 H444 0.984 . S
N441 H445 0.985 . S
H442 N437 0.984 . S
H443 N437 0.985 . S
H444 N441 0.984 . S
H445 N441 0.985 . S
H446 N440 0.984 . S
H447 N440 0.984 . S
H448 N436 0.984 . S
H449 N436 0.985 . S
C450 C451 1.363 . S
C450 C456 1.379 . S
C450 N458 1.356 . S
C451 C450 1.363 . S
C451 C457 1.363 . S
C452 C453 1.363 . S
C452 C457 1.379 . S
C452 N459 1.356 . S
C453 C452 1.363 . S
C453 C456 1.363 . S
N454 C456 1.356 . S
N454 H466 0.984 . S
N454 H467 0.985 . S
N455 C457 1.356 . S
N455 H460 0.984 . S
N455 H461 0.985 . S
C456 C450 1.379 . S
C456 C453 1.363 . S
C456 N454 1.356 . S
C457 C451 1.363 . S
C457 C452 1.379 . S
C457 N455 1.356 . S
N458 C450 1.356 . S
N458 H464 0.984 . S
N458 H465 0.984 . S
N459 C452 1.356 . S
N459 H462 0.984 . S
N459 H463 0.985 . S
H460 N455 0.984 . S
H461 N455 0.985 . S
H462 N459 0.984 . S
H463 N459 0.985 . S
H464 N458 0.984 . S
H465 N458 0.984 . S
H466 N454 0.984 . S
H467 N454 0.985 . S
C468 C469 1.363 . S
C468 C474 1.379 . S
C468 N476 1.356 . S
C469 C468 1.363 . S
C469 C475 1.363 . S
C470 C471 1.363 . S
C470 C475 1.379 . S
C470 N477 1.356 . S
C471 C470 1.363 . S
C471 C474 1.363 . S
N472 C474 1.356 . S
N472 H484 0.984 . S
N472 H485 0.985 . S
N473 C475 1.356 . S
N473 H478 0.984 . S
N473 H479 0.985 . S
C474 C468 1.379 . S
C474 C471 1.363 . S
C474 N472 1.356 . S
C475 C469 1.363 . S
C475 C470 1.379 . S
C475 N473 1.356 . S
N476 C468 1.356 . S
N476 H482 0.984 . S
N476 H483 0.984 . S
N477 C470 1.356 . S
N477 H480 0.984 . S
N477 H481 0.985 . S
H478 N473 0.984 . S
H479 N473 0.985 . S
H480 N477 0.984 . S
H481 N477 0.985 . S
H482 N476 0.984 . S
H483 N476 0.984 . S
H484 N472 0.984 . S
H485 N472 0.985 . S
C486 C487 1.363 . S
C486 C492 1.379 . S
C486 N494 1.356 . S
C487 C486 1.363 . S
C487 C493 1.363 . S
C488 C489 1.363 . S
C488 C493 1.379 . S
C488 N495 1.356 . S
C489 C488 1.363 . S
C489 C492 1.363 . S
N490 C492 1.356 . S
N490 H502 0.984 . S
N490 H503 0.985 . S
N491 C493 1.356 . S
N491 H496 0.984 . S
N491 H497 0.985 . S
C492 C486 1.379 . S
C492 C489 1.363 . S
C492 N490 1.356 . S
C493 C487 1.363 . S
C493 C488 1.379 . S
C493 N491 1.356 . S
N494 C486 1.356 . S
N494 H500 0.984 . S
N494 H501 0.984 . S
N495 C488 1.356 . S
N495 H498 0.984 . S
N495 H499 0.985 . S
H496 N491 0.984 . S
H497 N491 0.985 . S
H498 N495 0.984 . S
H499 N495 0.985 . S
H500 N494 0.984 . S
H501 N494 0.984 . S
H502 N490 0.984 . S
H503 N490 0.985 . S
C504 C505 1.363 . S
C504 C510 1.379 . S
C504 N512 1.356 . S
C505 C504 1.363 . S
C505 C511 1.363 . S
C506 C507 1.363 . S
C506 C511 1.379 . S
C506 N513 1.356 . S
C507 C506 1.363 . S
C507 C510 1.363 . S
N508 C510 1.356 . S
N508 H520 0.984 . S
N508 H521 0.985 . S
N509 C511 1.356 . S
N509 H514 0.984 . S
N509 H515 0.985 . S
C510 C504 1.379 . S
C510 C507 1.363 . S
C510 N508 1.356 . S
C511 C505 1.363 . S
C511 C506 1.379 . S
C511 N509 1.356 . S
N512 C504 1.356 . S
N512 H518 0.984 . S
N512 H519 0.984 . S
N513 C506 1.356 . S
N513 H516 0.984 . S
N513 H517 0.985 . S
H514 N509 0.984 . S
H515 N509 0.985 . S
H516 N513 0.984 . S
H517 N513 0.985 . S
H518 N512 0.984 . S
H519 N512 0.984 . S
H520 N508 0.984 . S
H521 N508 0.985 . S
C522 C523 1.363 . S
C522 C528 1.379 . S
C522 N530 1.356 . S
C523 C522 1.363 . S
C523 C529 1.363 . S
C524 C525 1.363 . S
C524 C529 1.379 . S
C524 N531 1.356 . S
C525 C524 1.363 . S
C525 C528 1.363 . S
N526 C528 1.356 . S
N526 H538 0.984 . S
N526 H539 0.985 . S
N527 C529 1.356 . S
N527 H532 0.984 . S
N527 H533 0.985 . S
C528 C522 1.379 . S
C528 C525 1.363 . S
C528 N526 1.356 . S
C529 C523 1.363 . S
C529 C524 1.379 . S
C529 N527 1.356 . S
N530 C522 1.356 . S
N530 H536 0.984 . S
N530 H537 0.984 . S
N531 C524 1.356 . S
N531 H534 0.984 . S
N531 H535 0.985 . S
H532 N527 0.984 . S
H533 N527 0.985 . S
H534 N531 0.984 . S
H535 N531 0.985 . S
H536 N530 0.984 . S
H537 N530 0.984 . S
H538 N526 0.984 . S
H539 N526 0.985 . S
C540 C541 1.363 . S
C540 C546 1.379 . S
C540 N548 1.356 . S
C541 C540 1.363 . S
C541 C547 1.363 . S
C542 C543 1.363 . S
C542 C547 1.379 . S
C542 N549 1.356 . S
C543 C542 1.363 . S
C543 C546 1.363 . S
N544 C546 1.356 . S
N544 H556 0.984 . S
N544 H557 0.985 . S
N545 C547 1.356 . S
N545 H550 0.984 . S
N545 H551 0.985 . S
C546 C540 1.379 . S
C546 C543 1.363 . S
C546 N544 1.356 . S
C547 C541 1.363 . S
C547 C542 1.379 . S
C547 N545 1.356 . S
N548 C540 1.356 . S
N548 H554 0.984 . S
N548 H555 0.984 . S
N549 C542 1.356 . S
N549 H552 0.984 . S
N549 H553 0.985 . S
H550 N545 0.984 . S
H551 N545 0.985 . S
H552 N549 0.984 . S
H553 N549 0.985 . S
H554 N548 0.984 . S
H555 N548 0.984 . S
H556 N544 0.984 . S
H557 N544 0.985 . S
C558 C559 1.363 . S
C558 C564 1.379 . S
C558 N566 1.356 . S
C559 C558 1.363 . S
C559 C565 1.363 . S
C560 C561 1.363 . S
C560 C565 1.379 . S
C560 N567 1.356 . S
C561 C560 1.363 . S
C561 C564 1.363 . S
N562 C564 1.356 . S
N562 H574 0.984 . S
N562 H575 0.985 . S
N563 C565 1.356 . S
N563 H568 0.984 . S
N563 H569 0.985 . S
C564 C558 1.379 . S
C564 C561 1.363 . S
C564 N562 1.356 . S
C565 C559 1.363 . S
C565 C560 1.379 . S
C565 N563 1.356 . S
N566 C558 1.356 . S
N566 H572 0.984 . S
N566 H573 0.984 . S
N567 C560 1.356 . S
N567 H570 0.984 . S
N567 H571 0.985 . S
H568 N563 0.984 . S
H569 N563 0.985 . S
H570 N567 0.984 . S
H571 N567 0.985 . S
H572 N566 0.984 . S
H573 N566 0.984 . S
H574 N562 0.984 . S
H575 N562 0.985 . S
C289 C3 1.531 . S
C291 C111 1.531 . S
C307 C2 1.535 . S
C309 C38 1.533 1_554 S
C325 C39 1.531 . S
C327 C75 1.531 . S
C343 C110 1.533 1_554 S
C345 C74 1.535 . S
C361 C147 1.531 . S
C363 C255 1.531 . S
C379 C182 1.535 . S
C381 C146 1.535 . S
C397 C219 1.531 . S
C399 C183 1.531 . S
C415 C254 1.535 . S
C417 C218 1.535 . S
C433 C230 1.426 . S
C435 C4 1.488 . S
C451 C50 1.426 . S
C453 C256 1.488 . S
C469 C158 1.426 . S
C471 C76 1.488 . S
C487 C184 1.488 . S
C489 C122 1.426 . S
C505 C194 1.426 . S
C507 C112 1.488 . S
C523 C14 1.426 . S
C525 C220 1.488 . S
C541 C40 1.488 . S
C543 C266 1.426 . S
C559 C86 1.426 . S
C561 C148 1.488 . S
