# Generated by pormake.
# Topology ukv, (4)-cn, num edge types: 1
# Building blocks:
#     Node 0, Type 0, BuildingBlock: NAHDIM_clean_sbu_0, # of connection points: 4
#     Node 1, Type 0, BuildingBlock: NAHDIM_clean_sbu_0, # of connection points: 4
#     Node 2, Type 0, BuildingBlock: NAHDIM_clean_sbu_0, # of connection points: 4
#     Node 3, Type 0, BuildingBlock: NAHDIM_clean_sbu_0, # of connection points: 4
#     Node 4, Type 0, BuildingBlock: NAHDIM_clean_sbu_0, # of connection points: 4
#     Node 5, Type 0, BuildingBlock: NAHDIM_clean_sbu_0, # of connection points: 4
#     Node 6, Type 0, BuildingBlock: NAHDIM_clean_sbu_0, # of connection points: 4
#     Node 7, Type 0, BuildingBlock: NAHDIM_clean_sbu_0, # of connection points: 4
#     Node 8, Type 0, BuildingBlock: NAHDIM_clean_sbu_0, # of connection points: 4
#     Node 9, Type 0, BuildingBlock: NAHDIM_clean_sbu_0, # of connection points: 4
#     Node 10, Type 0, BuildingBlock: NAHDIM_clean_sbu_0, # of connection points: 4
#     Node 11, Type 0, BuildingBlock: NAHDIM_clean_sbu_0, # of connection points: 4
#     Node 12, Type 0, BuildingBlock: NAHDIM_clean_sbu_0, # of connection points: 4
#     Node 13, Type 0, BuildingBlock: NAHDIM_clean_sbu_0, # of connection points: 4
#     Node 14, Type 0, BuildingBlock: NAHDIM_clean_sbu_0, # of connection points: 4
#     Node 15, Type 0, BuildingBlock: NAHDIM_clean_sbu_0, # of connection points: 4
#     Node 16, Type 0, BuildingBlock: NAHDIM_clean_sbu_0, # of connection points: 4
#     Node 17, Type 0, BuildingBlock: NAHDIM_clean_sbu_0, # of connection points: 4
#     Node 18, Type 0, BuildingBlock: NAHDIM_clean_sbu_0, # of connection points: 4
#     Node 19, Type 0, BuildingBlock: NAHDIM_clean_sbu_0, # of connection points: 4
#     Node 20, Type 0, BuildingBlock: NAHDIM_clean_sbu_0, # of connection points: 4
#     Node 21, Type 0, BuildingBlock: NAHDIM_clean_sbu_0, # of connection points: 4
#     Node 22, Type 0, BuildingBlock: NAHDIM_clean_sbu_0, # of connection points: 4
#     Node 23, Type 0, BuildingBlock: NAHDIM_clean_sbu_0, # of connection points: 4
#     Node 24, Type 0, BuildingBlock: NAHDIM_clean_sbu_0, # of connection points: 4
#     Node 25, Type 0, BuildingBlock: NAHDIM_clean_sbu_0, # of connection points: 4
#     Node 26, Type 0, BuildingBlock: NAHDIM_clean_sbu_0, # of connection points: 4
#     Node 27, Type 0, BuildingBlock: NAHDIM_clean_sbu_0, # of connection points: 4
#     Node 28, Type 0, BuildingBlock: NAHDIM_clean_sbu_0, # of connection points: 4
#     Node 29, Type 0, BuildingBlock: NAHDIM_clean_sbu_0, # of connection points: 4
#     Node 30, Type 0, BuildingBlock: NAHDIM_clean_sbu_0, # of connection points: 4
#     Node 31, Type 0, BuildingBlock: NAHDIM_clean_sbu_0, # of connection points: 4
#     Node 32, Type 0, BuildingBlock: NAHDIM_clean_sbu_0, # of connection points: 4
#     Node 33, Type 0, BuildingBlock: NAHDIM_clean_sbu_0, # of connection points: 4
#     Node 34, Type 0, BuildingBlock: NAHDIM_clean_sbu_0, # of connection points: 4
#     Node 35, Type 0, BuildingBlock: NAHDIM_clean_sbu_0, # of connection points: 4
#     Edge 36, Type (0, 0), BuildingBlock: TEMPAE_clean_linker_10, # of connection points: 2
#     Edge 37, Type (0, 0), BuildingBlock: TEMPAE_clean_linker_10, # of connection points: 2
#     Edge 38, Type (0, 0), BuildingBlock: TEMPAE_clean_linker_10, # of connection points: 2
#     Edge 39, Type (0, 0), BuildingBlock: TEMPAE_clean_linker_10, # of connection points: 2
#     Edge 40, Type (0, 0), BuildingBlock: TEMPAE_clean_linker_10, # of connection points: 2
#     Edge 41, Type (0, 0), BuildingBlock: TEMPAE_clean_linker_10, # of connection points: 2
#     Edge 42, Type (0, 0), BuildingBlock: TEMPAE_clean_linker_10, # of connection points: 2
#     Edge 43, Type (0, 0), BuildingBlock: TEMPAE_clean_linker_10, # of connection points: 2
#     Edge 44, Type (0, 0), BuildingBlock: TEMPAE_clean_linker_10, # of connection points: 2
#     Edge 45, Type (0, 0), BuildingBlock: TEMPAE_clean_linker_10, # of connection points: 2
#     Edge 46, Type (0, 0), BuildingBlock: TEMPAE_clean_linker_10, # of connection points: 2
#     Edge 47, Type (0, 0), BuildingBlock: TEMPAE_clean_linker_10, # of connection points: 2
#     Edge 48, Type (0, 0), BuildingBlock: TEMPAE_clean_linker_10, # of connection points: 2
#     Edge 49, Type (0, 0), BuildingBlock: TEMPAE_clean_linker_10, # of connection points: 2
#     Edge 50, Type (0, 0), BuildingBlock: TEMPAE_clean_linker_10, # of connection points: 2
#     Edge 51, Type (0, 0), BuildingBlock: TEMPAE_clean_linker_10, # of connection points: 2
#     Edge 52, Type (0, 0), BuildingBlock: TEMPAE_clean_linker_10, # of connection points: 2
#     Edge 53, Type (0, 0), BuildingBlock: TEMPAE_clean_linker_10, # of connection points: 2
#     Edge 54, Type (0, 0), BuildingBlock: TEMPAE_clean_linker_10, # of connection points: 2
#     Edge 55, Type (0, 0), BuildingBlock: TEMPAE_clean_linker_10, # of connection points: 2
#     Edge 56, Type (0, 0), BuildingBlock: TEMPAE_clean_linker_10, # of connection points: 2
#     Edge 57, Type (0, 0), BuildingBlock: TEMPAE_clean_linker_10, # of connection points: 2
#     Edge 58, Type (0, 0), BuildingBlock: TEMPAE_clean_linker_10, # of connection points: 2
#     Edge 59, Type (0, 0), BuildingBlock: TEMPAE_clean_linker_10, # of connection points: 2
#     Edge 60, Type (0, 0), BuildingBlock: TEMPAE_clean_linker_10, # of connection points: 2
#     Edge 61, Type (0, 0), BuildingBlock: TEMPAE_clean_linker_10, # of connection points: 2
#     Edge 62, Type (0, 0), BuildingBlock: TEMPAE_clean_linker_10, # of connection points: 2
#     Edge 63, Type (0, 0), BuildingBlock: TEMPAE_clean_linker_10, # of connection points: 2
#     Edge 64, Type (0, 0), BuildingBlock: TEMPAE_clean_linker_10, # of connection points: 2
#     Edge 65, Type (0, 0), BuildingBlock: TEMPAE_clean_linker_10, # of connection points: 2
#     Edge 66, Type (0, 0), BuildingBlock: TEMPAE_clean_linker_10, # of connection points: 2
#     Edge 67, Type (0, 0), BuildingBlock: TEMPAE_clean_linker_10, # of connection points: 2
#     Edge 68, Type (0, 0), BuildingBlock: TEMPAE_clean_linker_10, # of connection points: 2
#     Edge 69, Type (0, 0), BuildingBlock: TEMPAE_clean_linker_10, # of connection points: 2
#     Edge 70, Type (0, 0), BuildingBlock: TEMPAE_clean_linker_10, # of connection points: 2
#     Edge 71, Type (0, 0), BuildingBlock: TEMPAE_clean_linker_10, # of connection points: 2
#     Edge 72, Type (0, 0), BuildingBlock: TEMPAE_clean_linker_10, # of connection points: 2
#     Edge 73, Type (0, 0), BuildingBlock: TEMPAE_clean_linker_10, # of connection points: 2
#     Edge 74, Type (0, 0), BuildingBlock: TEMPAE_clean_linker_10, # of connection points: 2
#     Edge 75, Type (0, 0), BuildingBlock: TEMPAE_clean_linker_10, # of connection points: 2
#     Edge 76, Type (0, 0), BuildingBlock: TEMPAE_clean_linker_10, # of connection points: 2
#     Edge 77, Type (0, 0), BuildingBlock: TEMPAE_clean_linker_10, # of connection points: 2
#     Edge 78, Type (0, 0), BuildingBlock: TEMPAE_clean_linker_10, # of connection points: 2
#     Edge 79, Type (0, 0), BuildingBlock: TEMPAE_clean_linker_10, # of connection points: 2
#     Edge 80, Type (0, 0), BuildingBlock: TEMPAE_clean_linker_10, # of connection points: 2
#     Edge 81, Type (0, 0), BuildingBlock: TEMPAE_clean_linker_10, # of connection points: 2
#     Edge 82, Type (0, 0), BuildingBlock: TEMPAE_clean_linker_10, # of connection points: 2
#     Edge 83, Type (0, 0), BuildingBlock: TEMPAE_clean_linker_10, # of connection points: 2
#     Edge 84, Type (0, 0), BuildingBlock: TEMPAE_clean_linker_10, # of connection points: 2
#     Edge 85, Type (0, 0), BuildingBlock: TEMPAE_clean_linker_10, # of connection points: 2
#     Edge 86, Type (0, 0), BuildingBlock: TEMPAE_clean_linker_10, # of connection points: 2
#     Edge 87, Type (0, 0), BuildingBlock: TEMPAE_clean_linker_10, # of connection points: 2
#     Edge 88, Type (0, 0), BuildingBlock: TEMPAE_clean_linker_10, # of connection points: 2
#     Edge 89, Type (0, 0), BuildingBlock: TEMPAE_clean_linker_10, # of connection points: 2
#     Edge 90, Type (0, 0), BuildingBlock: TEMPAE_clean_linker_10, # of connection points: 2
#     Edge 91, Type (0, 0), BuildingBlock: TEMPAE_clean_linker_10, # of connection points: 2
#     Edge 92, Type (0, 0), BuildingBlock: TEMPAE_clean_linker_10, # of connection points: 2
#     Edge 93, Type (0, 0), BuildingBlock: TEMPAE_clean_linker_10, # of connection points: 2
#     Edge 94, Type (0, 0), BuildingBlock: TEMPAE_clean_linker_10, # of connection points: 2
#     Edge 95, Type (0, 0), BuildingBlock: TEMPAE_clean_linker_10, # of connection points: 2
#     Edge 96, Type (0, 0), BuildingBlock: TEMPAE_clean_linker_10, # of connection points: 2
#     Edge 97, Type (0, 0), BuildingBlock: TEMPAE_clean_linker_10, # of connection points: 2
#     Edge 98, Type (0, 0), BuildingBlock: TEMPAE_clean_linker_10, # of connection points: 2
#     Edge 99, Type (0, 0), BuildingBlock: TEMPAE_clean_linker_10, # of connection points: 2
#     Edge 100, Type (0, 0), BuildingBlock: TEMPAE_clean_linker_10, # of connection points: 2
#     Edge 101, Type (0, 0), BuildingBlock: TEMPAE_clean_linker_10, # of connection points: 2
#     Edge 102, Type (0, 0), BuildingBlock: TEMPAE_clean_linker_10, # of connection points: 2
#     Edge 103, Type (0, 0), BuildingBlock: TEMPAE_clean_linker_10, # of connection points: 2
#     Edge 104, Type (0, 0), BuildingBlock: TEMPAE_clean_linker_10, # of connection points: 2
#     Edge 105, Type (0, 0), BuildingBlock: TEMPAE_clean_linker_10, # of connection points: 2
#     Edge 106, Type (0, 0), BuildingBlock: TEMPAE_clean_linker_10, # of connection points: 2
#     Edge 107, Type (0, 0), BuildingBlock: TEMPAE_clean_linker_10, # of connection points: 2
# Relax obj value: 0.250
# Max RMSD: 0.179
# Mean RMSD: 0.179
data_MOF--net-ukv--node1-NAHDIM_clean_sbu_0--edge1-TEMPAE_clean_linker_10
_symmetry_space_group_name_H-M    P1
_symmetry_Int_Tables_number       1
_symmetry_cell_setting            triclinic
loop_
_symmetry_equiv_pos_as_xyz
'x, y, z'
_cell_length_a     97.038235
_cell_length_b     97.059707
_cell_length_c     20.446726
_cell_angle_alpha  89.985971
_cell_angle_beta   90.019446
_cell_angle_gamma 119.99949
loop_
_atom_site_label
_atom_site_type_symbol
_atom_site_fract_x
_atom_site_fract_y
_atom_site_fract_z
_atom_type_partial_charge
C0 C 0.23545 0.03872 0.0542 0.0
O1 O 0.24526 0.03869 0.00999 0.0
O2 O 0.26492 0.0775 0.97808 0.0
Zn3 Zn 0.24153 0.06883 0.9944 0.0
O4 O 0.23905 0.0859 0.03858 0.0
C5 C 0.23732 0.06563 0.85497 0.0
O6 O 0.25052 0.065 0.85764 0.0
O7 O 0.23208 0.04979 0.0538 0.0
C8 C 0.24276 0.08934 0.09826 0.0
O9 O 0.24837 0.08158 0.13124 0.0
C10 C 0.27504 0.07784 0.01845 0.0
O11 O 0.27034 0.07168 0.07699 0.0
O12 O 0.23038 0.06535 0.90807 0.0
C13 C 0.94694 0.18976 0.12096 0.0
O14 O 0.93247 0.18574 0.14003 0.0
O15 O 0.92179 0.18986 0.9776 0.0
Zn16 Zn 0.92925 0.17492 0.00766 0.0
O17 O 0.91192 0.15769 0.06283 0.0
C18 C 0.93397 0.17007 0.87151 0.0
O19 O 0.93729 0.18488 0.86464 0.0
O20 O 0.94901 0.18652 0.0628 0.0
C21 C 0.90347 0.14337 0.04357 0.0
O22 O 0.90584 0.1394 0.98501 0.0
C23 C 0.90892 0.184 0.94499 0.0
O24 O 0.90106 0.16862 0.93364 0.0
O25 O 0.93214 0.16431 0.92873 0.0
C26 C 0.80594 0.76033 0.09084 0.0
O27 O 0.80565 0.74704 0.10624 0.0
O28 O 0.80863 0.7345 0.97206 0.0
Zn29 Zn 0.82386 0.75778 0.98878 0.0
O30 O 0.84198 0.75944 0.04343 0.0
C31 C 0.82683 0.76159 0.84866 0.0
O32 O 0.81216 0.74959 0.84856 0.0
O33 O 0.81311 0.76759 0.03895 0.0
C34 C 0.85628 0.76615 0.02294 0.0
O35 O 0.85962 0.7725 0.96425 0.0
C36 C 0.8142 0.72649 0.94534 0.0
O37 O 0.82947 0.7336 0.93168 0.0
O38 O 0.83305 0.76839 0.90253 0.0
C39 C 0.03926 0.24204 0.43557 0.0
O40 O 0.04656 0.25748 0.44518 0.0
O41 O 0.07543 0.26773 0.52315 0.0
Zn42 Zn 0.06598 0.24411 0.50881 0.0
O43 O 0.08165 0.24046 0.45857 0.0
C44 C 0.06525 0.2413 0.64935 0.0
O45 O 0.06453 0.25445 0.6468 0.0
O46 O 0.04506 0.23401 0.46019 0.0
C47 C 0.08232 0.24025 0.3966 0.0
O48 O 0.07235 0.24266 0.36167 0.0
C49 C 0.08219 0.27846 0.47989 0.0
O50 O 0.08268 0.27435 0.41913 0.0
O51 O 0.0644 0.23405 0.59644 0.0
C52 C 0.75845 0.80638 0.40049 0.0
O53 O 0.74514 0.80605 0.38516 0.0
O54 O 0.73245 0.80747 0.52437 0.0
Zn55 Zn 0.75534 0.82343 0.50468 0.0
O56 O 0.75597 0.84108 0.45008 0.0
C57 C 0.76124 0.82721 0.64516 0.0
O58 O 0.74928 0.81255 0.64892 0.0
O59 O 0.76552 0.81325 0.45316 0.0
C60 C 0.76564 0.85565 0.46273 0.0
O61 O 0.77558 0.8593 0.51192 0.0
C62 C 0.72409 0.81252 0.55211 0.0
O63 O 0.73066 0.82777 0.56533 0.0
O64 O 0.76654 0.83324 0.58924 0.0
C65 C 0.19418 0.95986 0.42664 0.0
O66 O 0.2035 0.9605 0.47457 0.0
O67 O 0.18389 0.92214 0.51639 0.0
Zn68 Zn 0.16957 0.9306 0.48942 0.0
O69 O 0.15026 0.91287 0.44655 0.0
C70 C 0.16744 0.93608 0.62588 0.0
O71 O 0.18209 0.9387 0.62743 0.0
O72 O 0.17976 0.94873 0.42568 0.0
C73 C 0.15069 0.90747 0.39059 0.0
O74 O 0.1643 0.91361 0.35914 0.0
C75 C 0.19417 0.92111 0.48155 0.0
O76 O 0.19657 0.92636 0.42104 0.0
O77 O 0.16102 0.93516 0.57066 0.0
C78 C 0.75924 0.95078 0.90362 0.0
O79 O 0.74598 0.93797 0.88627 0.0
O80 O 0.73302 0.92186 0.02197 0.0
Zn81 Zn 0.75613 0.92952 0.00371 0.0
O82 O 0.75747 0.91317 0.94728 0.0
C83 C 0.76128 0.93116 0.14439 0.0
O84 O 0.74949 0.93414 0.14679 0.0
O85 O 0.76623 0.95038 0.9556 0.0
C86 C 0.76726 0.90841 0.95975 0.0
O87 O 0.777 0.91454 0.00964 0.0
C88 C 0.72501 0.90829 0.04883 0.0
O89 O 0.73206 0.90003 0.06153 0.0
O90 O 0.76682 0.93041 0.08906 0.0
C91 C 0.04968 0.81332 0.86687 0.0
O92 O 0.0643 0.82071 0.84415 0.0
O93 O 0.07764 0.81283 0.00691 0.0
Zn94 Zn 0.06702 0.82555 0.98492 0.0
O95 O 0.08289 0.84579 0.93969 0.0
C96 C 0.06298 0.82633 0.12329 0.0
O97 O 0.06151 0.81213 0.12086 0.0
O98 O 0.04751 0.81343 0.92819 0.0
C99 C 0.09505 0.84729 0.90989 0.0
O100 O 0.09728 0.83503 0.90576 0.0
C101 C 0.07661 0.80079 0.97785 0.0
O102 O 0.06769 0.79519 0.92538 0.0
O103 O 0.0628 0.83301 0.07007 0.0
C104 C 0.1828 0.23395 0.88695 0.0
O105 O 0.17929 0.24456 0.86513 0.0
O106 O 0.18655 0.26349 0.0167 0.0
Zn107 Zn 0.17056 0.24042 -0.00035 0.0
O108 O 0.15243 0.2395 0.94725 0.0
C109 C 0.16723 0.23653 0.13961 0.0
O110 O 0.18165 0.24897 0.1402 0.0
O111 O 0.18033 0.22998 0.94694 0.0
C112 C 0.13835 0.23373 0.96939 0.0
O113 O 0.13513 0.22795 0.02904 0.0
C114 C 0.18123 0.27232 0.03706 0.0
O115 O 0.16579 0.26614 0.04403 0.0
O116 O 0.16135 0.22962 0.08556 0.0
C117 C 0.95744 0.75964 0.55252 0.0
O118 O 0.95175 0.74466 0.53652 0.0
O119 O 0.92275 0.73277 0.46334 0.0
Zn120 Zn 0.92985 0.75583 0.48114 0.0
O121 O 0.91279 0.75733 0.53081 0.0
C122 C 0.93058 0.75976 0.34096 0.0
O123 O 0.93196 0.74697 0.34096 0.0
O124 O 0.95038 0.7669 0.53235 0.0
C125 C 0.91174 0.75717 0.59271 0.0
O126 O 0.92211 0.75554 0.62831 0.0
C127 C 0.91597 0.72147 0.50426 0.0
O128 O 0.91358 0.72461 0.5643 0.0
O129 O 0.93108 0.76642 0.39512 0.0
C130 C 0.22208 0.18022 0.57666 0.0
O131 O 0.21264 0.16525 0.56068 0.0
O132 O 0.26839 0.18784 0.49585 0.0
Zn133 Zn 0.24472 0.17477 0.50942 0.0
O134 O 0.24071 0.15572 0.56364 0.0
C135 C 0.24098 0.17273 0.36831 0.0
O136 O 0.25387 0.18682 0.3689 0.0
O137 O 0.23648 0.18716 0.55787 0.0
C138 C 0.23443 0.14172 0.5401 0.0
O139 O 0.23002 0.13933 0.4785 0.0
C140 C 0.27595 0.20269 0.48411 0.0
O141 O 0.26817 0.21054 0.48235 0.0
O142 O 0.23416 0.16655 0.42217 0.0
C143 C 0.80614 0.0487 0.61781 0.0
O144 O 0.80571 0.06136 0.63773 0.0
O145 O 0.8078 0.07825 0.5068 0.0
Zn146 Zn 0.82358 0.07072 0.51948 0.0
O147 O 0.84174 0.08645 0.57565 0.0
C148 C 0.8261 0.0712 0.37836 0.0
O149 O 0.81169 0.06923 0.38069 0.0
O150 O 0.81323 0.04946 0.56451 0.0
C151 C 0.8559 0.08949 0.56489 0.0
O152 O 0.85856 0.08197 0.51754 0.0
C153 C 0.81301 0.09302 0.49822 0.0
O154 O 0.82841 0.10294 0.50189 0.0
O155 O 0.83275 0.07071 0.4312 0.0
C156 C 0.9107 0.38611 0.46505 0.0
O157 O 0.9195 0.40057 0.48828 0.0
O158 O 0.94016 0.41395 0.33939 0.0
Zn159 Zn 0.91658 0.40471 0.35254 0.0
O160 O 0.91276 0.42029 0.40355 0.0
C161 C 0.91394 0.40341 0.21141 0.0
O162 O 0.92748 0.40345 0.21452 0.0
O163 O 0.90757 0.38435 0.40417 0.0
C164 C 0.90179 0.42329 0.38895 0.0
O165 O 0.89238 0.41594 0.33922 0.0
C166 C 0.94908 0.42892 0.33383 0.0
O167 O 0.94283 0.43812 0.34047 0.0
O168 O 0.9065 0.40232 0.26406 0.0
C169 C 0.62342 0.53002 0.42566 0.0
O170 O 0.62216 0.53948 0.38315 0.0
O171 O 0.58667 0.51871 0.33396 0.0
Zn172 Zn 0.59486 0.50432 0.3629 0.0
O173 O 0.57733 0.48606 0.41284 0.0
C174 C 0.60094 0.50171 0.2268 0.0
O175 O 0.603 0.51614 0.2237 0.0
O176 O 0.61361 0.51517 0.4235 0.0
C177 C 0.56988 0.47184 0.39149 0.0
O178 O 0.57341 0.46864 0.33355 0.0
C179 C 0.58208 0.52592 0.37221 0.0
O180 O 0.58329 0.52473 0.43571 0.0
O181 O 0.59923 0.49524 0.28249 0.0
C182 C 0.47461 0.09507 0.43529 0.0
O183 O 0.47497 0.08199 0.44824 0.0
O184 O 0.47809 0.07117 0.30686 0.0
Zn185 Zn 0.49279 0.09417 0.33029 0.0
O186 O 0.51067 0.09519 0.38431 0.0
C187 C 0.49542 0.10052 0.1923 0.0
O188 O 0.48021 0.08976 0.19209 0.0
O189 O 0.48144 0.10284 0.38379 0.0
C190 C 0.52488 0.10124 0.36335 0.0
O191 O 0.52835 0.10738 0.30433 0.0
C192 C 0.48392 0.06434 0.27286 0.0
O193 O 0.49903 0.07239 0.25657 0.0
O194 O 0.50223 0.1061 0.2468 0.0
C195 C 0.7057 0.57157 0.7856 0.0
O196 O 0.70531 0.5802 0.83426 0.0
O197 O 0.74605 0.60072 0.8575 0.0
Zn198 Zn 0.73612 0.57719 0.84109 0.0
O199 O 0.7524 0.57347 0.79688 0.0
C200 C 0.73251 0.57323 0.98028 0.0
O201 O 0.73228 0.58662 0.97654 0.0
O202 O 0.71711 0.56874 0.78173 0.0
C203 C 0.75693 0.57834 0.739 0.0
O204 O 0.75081 0.58591 0.70818 0.0
C205 C 0.74599 0.61108 0.81972 0.0
O206 O 0.7386 0.60663 0.7632 0.0
O207 O 0.73208 0.56604 0.92771 0.0
C208 C 0.42523 0.13708 0.75504 0.0
O209 O 0.4118 0.13652 0.73987 0.0
O210 O 0.39925 0.1392 0.87583 0.0
Zn211 Zn 0.42229 0.15478 0.85667 0.0
O212 O 0.42329 0.17227 0.80007 0.0
C213 C 0.42782 0.15944 0.9972 0.0
O214 O 0.41572 0.14489 0.00203 0.0
O215 O 0.43242 0.14427 0.80702 0.0
C216 C 0.4338 0.18675 0.80945 0.0
O217 O 0.44435 0.19032 0.85612 0.0
C218 C 0.39107 0.14474 0.90116 0.0
O219 O 0.39795 0.16011 0.91251 0.0
O220 O 0.43334 0.16503 0.94094 0.0
C221 C 0.86506 0.29156 0.76924 0.0
O222 O 0.87414 0.287 0.79877 0.0
O223 O 0.85252 0.25166 0.82945 0.0
Zn224 Zn 0.83866 0.26157 0.81793 0.0
O225 O 0.81901 0.247 0.76575 0.0
C226 C 0.8381 0.26204 0.95805 0.0
O227 O 0.85238 0.26386 0.95116 0.0
O228 O 0.85002 0.28292 0.77318 0.0
C229 C 0.81704 0.23457 0.73673 0.0
O230 O 0.82838 0.23095 0.73876 0.0
C231 C 0.86192 0.25034 0.79001 0.0
O232 O 0.86369 0.25607 0.73044 0.0
O233 O 0.83069 0.26251 0.90757 0.0
C234 C 0.42789 0.28982 0.27792 0.0
O235 O 0.41229 0.28211 0.28121 0.0
O236 O 0.40118 0.25679 0.37403 0.0
Zn237 Zn 0.42394 0.26308 0.35418 0.0
O238 O 0.42429 0.24627 0.29727 0.0
C239 C 0.42816 0.26228 0.49448 0.0
O240 O 0.41577 0.26431 0.49786 0.0
O241 O 0.43556 0.2842 0.30733 0.0
C242 C 0.43486 0.24233 0.30587 0.0
O243 O 0.44577 0.24963 0.35101 0.0
C244 C 0.38959 0.24833 0.33622 0.0
O245 O 0.39236 0.24379 0.27961 0.0
O246 O 0.43434 0.2629 0.43902 0.0
C247 C 0.71284 0.1415 0.19821 0.0
O248 O 0.72669 0.14408 0.17675 0.0
O249 O 0.73926 0.14118 0.34016 0.0
Zn250 Zn 0.73206 0.15631 0.30922 0.0
O251 O 0.74938 0.17319 0.25336 0.0
C252 C 0.72922 0.16251 0.44512 0.0
O253 O 0.7253 0.14755 0.4529 0.0
O254 O 0.71182 0.14544 0.25654 0.0
C255 C 0.76102 0.18526 0.27984 0.0
O256 O 0.76185 0.18641 0.34388 0.0
C257 C 0.749 0.13879 0.30739 0.0
O258 O 0.75366 0.14548 0.24967 0.0
O259 O 0.73044 0.16789 0.38748 0.0
C260 C 0.84618 0.55404 0.26449 0.0
O261 O 0.83173 0.54405 0.28524 0.0
O262 O 0.85283 0.60009 0.34507 0.0
Zn263 Zn 0.83974 0.5766 0.32744 0.0
O264 O 0.82104 0.57321 0.27228 0.0
C265 C 0.8373 0.57149 0.46738 0.0
O266 O 0.85176 0.58384 0.46795 0.0
O267 O 0.85236 0.5687 0.27854 0.0
C268 C 0.8074 0.56866 0.29715 0.0
O269 O 0.80529 0.56582 0.36022 0.0
C270 C 0.86773 0.60756 0.35565 0.0
O271 O 0.87561 0.59982 0.35341 0.0
O272 O 0.83096 0.5653 0.41283 0.0
C273 C 0.62075 0.10505 0.88465 0.0
O274 O 0.61804 0.1157 0.85722 0.0
O275 O 0.58027 0.05953 0.80542 0.0
Zn276 Zn 0.59109 0.0831 0.82231 0.0
O277 O 0.57613 0.0879 0.87159 0.0
C278 C 0.59456 0.08826 0.68192 0.0
O279 O 0.59479 0.07485 0.68127 0.0
O280 O 0.61103 0.09038 0.87492 0.0
C281 C 0.56906 0.08078 0.92371 0.0
O282 O 0.57175 0.06982 0.94814 0.0
C283 C 0.58798 0.05226 0.7969 0.0
O284 O 0.60357 0.06024 0.80156 0.0
O285 O 0.59462 0.09453 0.73655 0.0
C286 C 0.90062 0.51553 0.95448 0.0
O287 O 0.91191 0.51287 0.97526 0.0
O288 O 0.92846 0.51848 0.81638 0.0
Zn289 Zn 0.90602 0.50224 0.84164 0.0
O290 O 0.9069 0.48534 0.89613 0.0
C291 C 0.89728 0.49836 0.70425 0.0
O292 O 0.90773 0.51362 0.70042 0.0
O293 O 0.89592 0.51214 0.89557 0.0
C294 C 0.90167 0.47112 0.87669 0.0
O295 O 0.89537 0.46694 0.81811 0.0
C296 C 0.93599 0.5138 0.78025 0.0
O297 O 0.92889 0.49881 0.76207 0.0
O298 O 0.8937 0.49175 0.7601 0.0
C299 C 0.48277 0.38505 0.97926 0.0
O300 O 0.48959 0.39951 0.00361 0.0
O301 O 0.48027 0.41197 0.83971 0.0
Zn302 Zn 0.49461 0.40328 0.86333 0.0
O303 O 0.51325 0.42 0.91449 0.0
C304 C 0.49558 0.39821 0.72533 0.0
O305 O 0.48088 0.39544 0.72771 0.0
O306 O 0.48317 0.38333 0.91773 0.0
C307 C 0.52761 0.42387 0.90252 0.0
O308 O 0.53069 0.41682 0.85454 0.0
C309 C 0.47511 0.41864 0.87815 0.0
O310 O 0.47858 0.4197 0.94071 0.0
O311 O 0.5031 0.4001 0.77854 0.0
C312 C 0.56897 0.70103 0.71702 0.0
O313 O 0.57632 0.6997 0.66551 0.0
O314 O 0.59883 0.7412 0.64252 0.0
Zn315 Zn 0.57542 0.73154 0.66045 0.0
O316 O 0.57214 0.74838 0.70185 0.0
C317 C 0.57114 0.72757 0.52191 0.0
O318 O 0.58413 0.72657 0.52539 0.0
O319 O 0.56713 0.71304 0.72237 0.0
C320 C 0.57722 0.75349 0.75897 0.0
O321 O 0.58469 0.74751 0.79156 0.0
C322 C 0.60935 0.74147 0.68035 0.0
O323 O 0.60513 0.73454 0.73784 0.0
O324 O 0.56395 0.72705 0.57459 0.0
C325 C 0.28833 0.86928 0.76615 0.0
O326 O 0.28408 0.87891 0.73956 0.0
O327 O 0.25274 0.86001 0.67962 0.0
Zn328 Zn 0.26029 0.84454 0.69962 0.0
O329 O 0.24322 0.82632 0.7517 0.0
C330 C 0.26362 0.84205 0.55939 0.0
O331 O 0.26641 0.85676 0.55787 0.0
O332 O 0.28034 0.85448 0.75357 0.0
C333 C 0.2386 0.81188 0.73757 0.0
O334 O 0.24517 0.80869 0.68808 0.0
C335 C 0.23945 0.85441 0.65028 0.0
O336 O 0.2314 0.8391 0.63732 0.0
O337 O 0.26243 0.83544 0.61439 0.0
C338 C 0.1396 0.42877 0.75057 0.0
O339 O 0.13803 0.41498 0.76724 0.0
O340 O 0.14198 0.40179 0.63491 0.0
Zn341 Zn 0.15788 0.42464 0.65542 0.0
O342 O 0.17442 0.42504 0.71624 0.0
C343 C 0.16399 0.42977 0.51556 0.0
O344 O 0.14872 0.41969 0.5083 0.0
O345 O 0.14765 0.43574 0.69982 0.0
C346 C 0.18893 0.43579 0.70997 0.0
O347 O 0.19281 0.44694 0.66568 0.0
C348 C 0.1478 0.39338 0.6148 0.0
O349 O 0.16334 0.39994 0.61046 0.0
O350 O 0.16947 0.43481 0.57238 0.0
C351 C 0.3749 0.90785 0.10798 0.0
O352 O 0.37279 0.91165 0.16733 0.0
O353 O 0.41893 0.93938 0.16532 0.0
Zn354 Zn 0.40704 0.91567 0.15149 0.0
O355 O 0.42169 0.90965 0.10727 0.0
C356 C 0.40268 0.91297 0.29058 0.0
O357 O 0.40294 0.92654 0.28334 0.0
O358 O 0.38799 0.90863 0.0934 0.0
C359 C 0.42753 0.91545 0.05171 0.0
O360 O 0.42386 0.92543 0.02419 0.0
C361 C 0.41749 0.94972 0.13265 0.0
O362 O 0.4075 0.94516 0.08328 0.0
O363 O 0.40233 0.90523 0.23985 0.0
C364 C 0.09773 0.4813 0.05457 0.0
O365 O 0.0855 0.48278 0.03715 0.0
O366 O 0.07249 0.48293 0.18811 0.0
Zn367 Zn 0.09527 0.49804 0.16231 0.0
O368 O 0.09569 0.51556 0.10807 0.0
C369 C 0.10166 0.50279 0.2997 0.0
O370 O 0.08982 0.48806 0.30296 0.0
O371 O 0.10436 0.48694 0.10938 0.0
C372 C 0.09674 0.52787 0.13495 0.0
O373 O 0.09763 0.52918 0.19895 0.0
C374 C 0.0607 0.48187 0.15657 0.0
O375 O 0.06326 0.4902 0.10276 0.0
O376 O 0.1076 0.50851 0.24406 0.0
C377 C 0.52973 0.61943 0.07934 0.0
O378 O 0.53967 0.61714 0.11503 0.0
O379 O 0.52092 0.58359 0.16549 0.0
Zn380 Zn 0.50518 0.59066 0.14314 0.0
O381 O 0.48704 0.57308 0.09254 0.0
C382 C 0.50308 0.59526 0.28202 0.0
O383 O 0.51784 0.59818 0.28297 0.0
O384 O 0.51486 0.61009 0.08583 0.0
C385 C 0.47253 0.56741 0.10877 0.0
O386 O 0.46904 0.57304 0.16066 0.0
C387 C 0.51535 0.57012 0.19326 0.0
O388 O 0.49993 0.56158 0.20315 0.0
O389 O 0.4962 0.59352 0.22728 0.0
C390 C 0.10638 0.62657 0.61241 0.0
O391 O 0.11648 0.622 0.63037 0.0
O392 O 0.06112 0.5848 0.68647 0.0
Zn393 Zn 0.0849 0.5975 0.67555 0.0
O394 O 0.0919 0.58441 0.62466 0.0
C395 C 0.08657 0.59909 0.81563 0.0
O396 O 0.07287 0.5986 0.80914 0.0
O397 O 0.09184 0.61809 0.62839 0.0
C398 C 0.08661 0.57931 0.56772 0.0
O399 O 0.07649 0.58293 0.54114 0.0
C400 C 0.05072 0.58615 0.65381 0.0
O401 O 0.05527 0.59663 0.60625 0.0
O402 O 0.09464 0.60036 0.76471 0.0
C403 C 0.38571 0.47419 0.53003 0.0
O404 O 0.40028 0.47898 0.50991 0.0
O405 O 0.41192 0.47375 0.66784 0.0
Zn406 Zn 0.40335 0.48818 0.64415 0.0
O407 O 0.42003 0.50662 0.59154 0.0
C408 C 0.39858 0.49007 0.78247 0.0
O409 O 0.39599 0.47543 0.78283 0.0
O410 O 0.38354 0.47659 0.58933 0.0
C411 C 0.42582 0.5211 0.60838 0.0
O412 O 0.42086 0.52451 0.66249 0.0
C413 C 0.42575 0.48024 0.693 0.0
O414 O 0.4338 0.49579 0.69933 0.0
O415 O 0.40013 0.49699 0.72795 0.0
C416 C 0.52839 0.90103 0.5753 0.0
O417 O 0.53816 0.9121 0.61598 0.0
O418 O 0.52067 0.92836 0.66355 0.0
Zn419 Zn 0.50432 0.90618 0.63674 0.0
O420 O 0.48705 0.90742 0.58699 0.0
C421 C 0.50083 0.89861 0.7734 0.0
O422 O 0.51588 0.9098 0.7752 0.0
O423 O 0.51362 0.8964 0.57772 0.0
C424 C 0.47423 0.90507 0.61402 0.0
O425 O 0.47211 0.90189 0.67686 0.0
C426 C 0.52637 0.94014 0.62468 0.0
O427 O 0.52197 0.93781 0.56301 0.0
O428 O 0.49426 0.89353 0.7181 0.0
C429 C 0.29295 0.42308 0.2172 0.0
O430 O 0.28622 0.40786 0.20342 0.0
O431 O 0.25601 0.39728 0.13483 0.0
Zn432 Zn 0.26497 0.42068 0.15313 0.0
O433 O 0.24977 0.42375 0.20958 0.0
C434 C 0.26334 0.42482 0.01389 0.0
O435 O 0.26378 0.41153 0.01004 0.0
O436 O 0.28635 0.43087 0.19824 0.0
C437 C 0.23482 0.4144 0.20698 0.0
O438 O 0.22896 0.40179 0.16917 0.0
C439 C 0.25028 0.38634 0.1777 0.0
O440 O 0.25074 0.39018 0.23962 0.0
O441 O 0.2653 0.43151 0.0692 0.0
C442 C 0.5696 0.85983 0.21631 0.0
O443 O 0.57764 0.86879 0.16644 0.0
O444 O 0.59946 0.85018 0.14112 0.0
Zn445 Zn 0.57614 0.83592 0.15969 0.0
O446 O 0.57333 0.81601 0.20163 0.0
C447 C 0.57137 0.8353 0.02108 0.0
O448 O 0.58432 0.84934 0.02355 0.0
O449 O 0.56743 0.84584 0.22089 0.0
C450 C 0.57799 0.81594 0.25953 0.0
O451 O 0.58488 0.8293 0.29291 0.0
C452 C 0.60987 0.86038 0.1794 0.0
O453 O 0.60557 0.86259 0.2376 0.0
O454 O 0.56453 0.82863 0.07432 0.0
C455 C 0.14446 0.72057 0.30844 0.0
O456 O 0.14758 0.73455 0.33057 0.0
O457 O 0.14192 0.74649 0.17416 0.0
Zn458 Zn 0.15777 0.73957 0.19636 0.0
O459 O 0.17546 0.75689 0.24993 0.0
C460 C 0.16071 0.73552 0.05703 0.0
O461 O 0.14567 0.73167 0.05456 0.0
O462 O 0.1476 0.71937 0.24904 0.0
C463 C 0.19008 0.76275 0.23519 0.0
O464 O 0.19396 0.75741 0.18347 0.0
C465 C 0.14709 0.75922 0.14103 0.0
O466 O 0.16226 0.76717 0.1255 0.0
O467 O 0.16742 0.73765 0.11241 0.0
C468 C 0.21596 0.98454 0.37415 0.0
C469 C 0.20047 0.97144 0.37202 0.0
C470 C 0.222 0.99542 0.32208 0.0
C471 C 0.21236 0.99308 0.26647 0.0
C472 C 0.19678 0.97981 0.26383 0.0
C473 C 0.191 0.96919 0.31667 0.0
C474 C 0.23865 0.00952 0.3268 0.0
C475 C 0.18616 0.97686 0.20525 0.0
C476 C 0.221 0.02853 0.16007 0.0
C477 C 0.22928 0.02676 0.10743 0.0
C478 C 0.21557 0.01773 0.21231 0.0
C479 C 0.21836 0.00475 0.2118 0.0
C480 C 0.2266 0.0028 0.15868 0.0
C481 C 0.23202 0.01388 0.10718 0.0
C482 C 0.20689 0.02025 0.26821 0.0
C483 C 0.22965 0.98901 0.15624 0.0
H484 H 0.22335 0.98634 0.41667 0.0
H485 H 0.17905 0.95905 0.31433 0.0
H486 H 0.2459 0.00952 0.28487 0.0
H487 H 0.23825 0.02073 0.32418 0.0
H488 H 0.2447 0.00951 0.37291 0.0
H489 H 0.17451 0.96572 0.21003 0.0
H490 H 0.18396 0.98695 0.19884 0.0
H491 H 0.19212 0.97611 0.1602 0.0
H492 H 0.2189 0.0385 0.16095 0.0
H493 H 0.2384 0.01243 0.06674 0.0
H494 H 0.21317 0.02131 0.31491 0.0
H495 H 0.19473 0.00983 0.27276 0.0
H496 H 0.20592 0.0311 0.26165 0.0
H497 H 0.23663 0.98927 0.1997 0.0
H498 H 0.23623 0.98919 0.1115 0.0
H499 H 0.2182 0.97761 0.15773 0.0
C500 C 0.95759 0.19925 0.23335 0.0
C501 C 0.96043 0.19759 0.16731 0.0
C502 C 0.97014 0.2064 0.27838 0.0
C503 C 0.98594 0.21216 0.25679 0.0
C504 C 0.98892 0.21063 0.19014 0.0
C505 C 0.97611 0.20331 0.1462 0.0
C506 C 0.96648 0.20774 0.34913 0.0
C507 C 0.00563 0.21672 0.16529 0.0
C508 C 0.01976 0.2434 0.35952 0.0
C509 C 0.02515 0.23427 0.39224 0.0
C510 C 0.00698 0.23635 0.31545 0.0
C511 C 0.99935 0.21976 0.30404 0.0
C512 C 0.00456 0.21043 0.33765 0.0
C513 C 0.01741 0.2178 0.38127 0.0
C514 C 0.00176 0.24668 0.28048 0.0
C515 C 0.99664 0.19268 0.32707 0.0
H516 H 0.9455 0.19482 0.25018 0.0
H517 H 0.97841 0.20211 0.09525 0.0
H518 H 0.97088 0.20146 0.38079 0.0
H519 H 0.97275 0.2204 0.36436 0.0
H520 H 0.95354 0.20264 0.35803 0.0
H521 H 0.00595 0.21475 0.11192 0.0
H522 H 0.01303 0.22964 0.1754 0.0
H523 H 0.01117 0.21069 0.1914 0.0
H524 H 0.02567 0.25613 0.36757 0.0
H525 H 0.02148 0.21065 0.40634 0.0
H526 H 0.98902 0.24241 0.29079 0.0
H527 H 0.00293 0.24586 0.22685 0.0
H528 H 0.00884 0.25937 0.29525 0.0
H529 H 0.98376 0.18699 0.33835 0.0
H530 H 0.00193 0.18709 0.35791 0.0
H531 H 0.99771 0.19015 0.275 0.0
C532 C 0.7567 0.79078 0.30049 0.0
C533 C 0.76528 0.79936 0.35575 0.0
C534 C 0.76309 0.78433 0.25663 0.0
C535 C 0.77846 0.78659 0.26807 0.0
C536 C 0.78718 0.7952 0.32379 0.0
C537 C 0.78047 0.80144 0.36712 0.0
C538 C 0.75337 0.77511 0.19803 0.0
C539 C 0.80365 0.79789 0.33744 0.0
C540 C 0.78958 0.75811 0.18889 0.0
C541 C 0.79858 0.76695 0.1349 0.0
C542 C 0.7829 0.76433 0.2324 0.0
C543 C 0.78536 0.77981 0.22194 0.0
C544 C 0.79438 0.78879 0.1674 0.0
C545 C 0.80083 0.78223 0.12436 0.0
C546 C 0.77324 0.75434 0.28968 0.0
C547 C 0.7973 0.80537 0.15483 0.0
H548 H 0.74495 0.78908 0.29138 0.0
H549 H 0.78719 0.80809 0.40958 0.0
H550 H 0.75989 0.78083 0.15232 0.0
H551 H 0.75152 0.76286 0.19893 0.0
H552 H 0.74157 0.77434 0.19638 0.0
H553 H 0.8089 0.80494 0.38266 0.0
H554 H 0.80321 0.7863 0.34257 0.0
H555 H 0.81164 0.80423 0.29572 0.0
H556 H 0.78774 0.74628 0.19732 0.0
H557 H 0.80781 0.78915 0.08288 0.0
H558 H 0.76108 0.75268 0.28788 0.0
H559 H 0.77875 0.76054 0.3362 0.0
H560 H 0.77228 0.74245 0.29045 0.0
H561 H 0.78579 0.8051 0.14914 0.0
H562 H 0.80458 0.81079 0.11027 0.0
H563 H 0.80351 0.81314 0.19731 0.0
C564 C 0.78123 0.97815 0.87515 0.0
C565 C 0.76607 0.9652 0.86205 0.0
C566 C 0.78792 0.99171 0.835 0.0
C567 C 0.77917 0.99237 0.78081 0.0
C568 C 0.76383 0.97938 0.76758 0.0
C569 C 0.75749 0.96594 0.80822 0.0
C570 C 0.80435 0.00531 0.85045 0.0
C571 C 0.75409 0.9797 0.71057 0.0
C572 C 0.78996 0.03301 0.71376 0.0
C573 C 0.79896 0.03409 0.65832 0.0
C574 C 0.78339 0.01947 0.75384 0.0
C575 C 0.78598 0.00673 0.73839 0.0
C576 C 0.79502 0.00771 0.6824 0.0
C577 C 0.80135 0.02136 0.64285 0.0
C578 C 0.77371 0.01881 0.81283 0.0
C579 C 0.79808 0.99438 0.66456 0.0
H580 H 0.78796 0.97765 0.9165 0.0
H581 H 0.74574 0.956 0.79779 0.0
H582 H 0.81234 0.00769 0.80793 0.0
H583 H 0.80384 0.0163 0.85971 0.0
H584 H 0.80967 0.00285 0.89388 0.0
H585 H 0.74234 0.96863 0.70701 0.0
H586 H 0.7521 0.98996 0.71543 0.0
H587 H 0.76065 0.9813 0.66418 0.0
H588 H 0.78801 0.04277 0.726 0.0
H589 H 0.80834 0.02213 0.60023 0.0
H590 H 0.77926 0.01745 0.85798 0.0
H591 H 0.76158 0.00829 0.80949 0.0
H592 H 0.77266 0.02965 0.81765 0.0
H593 H 0.80432 0.99223 0.70531 0.0
H594 H 0.80538 0.997 0.61953 0.0
H595 H 0.78663 0.98321 0.65691 0.0
C596 C 0.02041 0.79682 0.84448 0.0
C597 C 0.03609 0.80525 0.82116 0.0
C598 C 0.00751 0.7893 0.80108 0.0
C599 C 0.01037 0.79029 0.73285 0.0
C600 C 0.02616 0.79876 0.70907 0.0
C601 C 0.03882 0.80611 0.75348 0.0
C602 C 0.99081 0.78032 0.82819 0.0
C603 C 0.02969 0.80011 0.63665 0.0
C604 C 0.97862 0.75941 0.62152 0.0
C605 C 0.97129 0.76767 0.59705 0.0
C606 C 0.99133 0.76662 0.66586 0.0
C607 C 0.99686 0.78247 0.68616 0.0
C608 C 0.9896 0.79092 0.66131 0.0
C609 C 0.9769 0.78342 0.61705 0.0
C610 C 0.9988 0.75724 0.6912 0.0
C611 C 0.99522 0.80787 0.68168 0.0
H612 H 0.0182 0.79609 0.89667 0.0
H613 H 0.05089 0.81262 0.73495 0.0
H614 H 0.98368 0.78548 0.80895 0.0
H615 H 0.9849 0.76772 0.81201 0.0
H616 H 0.99061 0.7806 0.88249 0.0
H617 H 0.04264 0.80713 0.62615 0.0
H618 H 0.02489 0.78808 0.61506 0.0
H619 H 0.02371 0.80585 0.61172 0.0
H620 H 0.97436 0.74723 0.60643 0.0
H621 H 0.9713 0.78989 0.59851 0.0
H622 H 0.99788 0.7564 0.7453 0.0
H623 H 0.01165 0.76345 0.67875 0.0
H624 H 0.99308 0.74501 0.67068 0.0
H625 H 0.99416 0.8085 0.73548 0.0
H626 H 0.98832 0.81279 0.65781 0.0
H627 H 0.00797 0.81555 0.66907 0.0
C628 C 0.22707 0.20349 0.64624 0.0
C629 C 0.21633 0.18854 0.61985 0.0
C630 C 0.22193 0.21114 0.68994 0.0
C631 C 0.20564 0.20373 0.7072 0.0
C632 C 0.19471 0.18877 0.67997 0.0
C633 C 0.20019 0.18132 0.63681 0.0
C634 C 0.23395 0.22706 0.71821 0.0
C635 C 0.17721 0.18058 0.6967 0.0
C636 C 0.19388 0.21596 0.86475 0.0
C637 C 0.18896 0.22641 0.84151 0.0
C638 C 0.19946 0.20858 0.82161 0.0
C639 C 0.20003 0.21165 0.75366 0.0
C640 C 0.19513 0.22223 0.72996 0.0
C641 C 0.18971 0.22952 0.77417 0.0
C642 C 0.2047 0.19745 0.84869 0.0
C643 C 0.19548 0.22574 0.6578 0.0
H644 H 0.23957 0.20913 0.6336 0.0
H645 H 0.19182 0.1698 0.61652 0.0
H646 H 0.23058 0.23612 0.706 0.0
H647 H 0.23406 0.22626 0.77233 0.0
H648 H 0.24618 0.23123 0.69973 0.0
H649 H 0.17022 0.16909 0.67051 0.0
H650 H 0.17556 0.1783 0.75008 0.0
H651 H 0.17231 0.18841 0.68409 0.0
H652 H 0.19336 0.21352 0.9167 0.0
H653 H 0.1859 0.23755 0.75571 0.0
H654 H 0.21721 0.20163 0.83447 0.0
H655 H 0.1973 0.1854 0.82762 0.0
H656 H 0.20378 0.19654 0.90285 0.0
H657 H 0.20775 0.23073 0.63862 0.0
H658 H 0.1913 0.23428 0.64734 0.0
H659 H 0.18784 0.21456 0.63063 0.0
C660 C 0.86279 0.31219 0.70443 0.0
C661 C 0.87216 0.30594 0.72743 0.0
C662 C 0.86913 0.32534 0.66217 0.0
C663 C 0.88517 0.33228 0.64177 0.0
C664 C 0.89473 0.3261 0.6651 0.0
C665 C 0.88814 0.31306 0.70802 0.0
C666 C 0.85862 0.33175 0.63909 0.0
C667 C 0.91186 0.33312 0.64398 0.0
C668 C 0.89682 0.35669 0.48522 0.0
C669 C 0.90432 0.37226 0.50977 0.0
C670 C 0.8907 0.34355 0.52763 0.0
C671 C 0.89195 0.34607 0.59614 0.0
C672 C 0.89949 0.36175 0.62116 0.0
C673 C 0.90565 0.37465 0.5777 0.0
C674 C 0.88286 0.32699 0.49919 0.0
C675 C 0.90091 0.36491 0.69389 0.0
H676 H 0.85045 0.30678 0.7194 0.0
H677 H 0.89543 0.30824 0.72525 0.0
H678 H 0.86407 0.34451 0.65223 0.0
H679 H 0.85754 0.33093 0.58504 0.0
H680 H 0.8465 0.3252 0.66062 0.0
H681 H 0.91768 0.32692 0.66649 0.0
H682 H 0.91249 0.33242 0.58999 0.0
H683 H 0.91871 0.34589 0.65751 0.0
H684 H 0.8958 0.35476 0.4328 0.0
H685 H 0.91137 0.38664 0.59713 0.0
H686 H 0.87026 0.32016 0.51522 0.0
H687 H 0.88887 0.32057 0.51751 0.0
H688 H 0.88319 0.32707 0.44487 0.0
H689 H 0.88889 0.3592 0.71634 0.0
H690 H 0.90714 0.37782 0.70541 0.0
H691 H 0.90749 0.35959 0.71715 0.0
C692 C 0.6476 0.55258 0.47773 0.0
C693 C 0.63557 0.53655 0.47814 0.0
C694 C 0.65903 0.55882 0.52784 0.0
C695 C 0.65831 0.54883 0.57981 0.0
C696 C 0.64611 0.53269 0.58078 0.0
C697 C 0.63496 0.52673 0.52984 0.0
C698 C 0.67197 0.57606 0.52487 0.0
C699 C 0.64488 0.52168 0.63556 0.0
C700 C 0.69564 0.55909 0.67618 0.0
C701 C 0.69349 0.56581 0.73331 0.0
C702 C 0.68441 0.55377 0.62549 0.0
C703 C 0.67059 0.55506 0.63221 0.0
C704 C 0.66833 0.56185 0.68965 0.0
C705 C 0.67985 0.56722 0.73945 0.0
C706 C 0.68732 0.5467 0.56483 0.0
C707 C 0.65365 0.56328 0.69873 0.0
H708 H 0.64816 0.56023 0.438 0.0
H709 H 0.62564 0.51435 0.53087 0.0
H710 H 0.67175 0.58236 0.56978 0.0
H711 H 0.68379 0.5769 0.52278 0.0
H712 H 0.67073 0.58231 0.48169 0.0
H713 H 0.63438 0.50957 0.63014 0.0
H714 H 0.65576 0.52065 0.63692 0.0
H715 H 0.64405 0.52664 0.68331 0.0
H716 H 0.7062 0.55806 0.67071 0.0
H717 H 0.67811 0.5724 0.7834 0.0
H718 H 0.68707 0.55326 0.52083 0.0
H719 H 0.6777 0.53416 0.55911 0.0
H720 H 0.69892 0.54702 0.56637 0.0
H721 H 0.65263 0.5703 0.65812 0.0
H722 H 0.65379 0.56906 0.7458 0.0
H723 H 0.64287 0.5513 0.69726 0.0
C724 C 0.44765 0.13291 0.72021 0.0
C725 C 0.4322 0.13022 0.71013 0.0
C726 C 0.4546 0.12711 0.67592 0.0
C727 C 0.44585 0.11833 0.62054 0.0
C728 C 0.43016 0.11536 0.61071 0.0
C729 C 0.42354 0.12138 0.6555 0.0
C730 C 0.47139 0.13056 0.68789 0.0
C731 C 0.4204 0.10593 0.55255 0.0
C732 C 0.46835 0.11591 0.47298 0.0
C733 C 0.46695 0.10092 0.48159 0.0
C734 C 0.46158 0.12175 0.51797 0.0
C735 C 0.45312 0.11233 0.57258 0.0
C736 C 0.45154 0.09714 0.58119 0.0
C737 C 0.4585 0.09163 0.5357 0.0
C738 C 0.46356 0.13804 0.50731 0.0
C739 C 0.4425 0.0867 0.63852 0.0
H740 H 0.45443 0.13977 0.7622 0.0
H741 H 0.41158 0.11919 0.64742 0.0
H742 H 0.47161 0.11926 0.69108 0.0
H743 H 0.47911 0.13741 0.64623 0.0
H744 H 0.47654 0.13743 0.73358 0.0
H745 H 0.40826 0.10438 0.55272 0.0
H746 H 0.42645 0.11201 0.50657 0.0
H747 H 0.41934 0.094 0.55209 0.0
H748 H 0.47489 0.12317 0.43143 0.0
H749 H 0.45733 0.08002 0.54269 0.0
H750 H 0.46966 0.14577 0.55001 0.0
H751 H 0.45172 0.13711 0.5031 0.0
H752 H 0.47054 0.14389 0.46255 0.0
H753 H 0.44802 0.09289 0.68503 0.0
H754 H 0.44224 0.07513 0.63786 0.0
H755 H 0.43007 0.08435 0.63825 0.0
C756 C 0.45266 0.31122 0.22479 0.0
C757 C 0.43629 0.30426 0.23683 0.0
C758 C 0.46053 0.32441 0.18309 0.0
C759 C 0.45184 0.33084 0.15307 0.0
C760 C 0.43537 0.32403 0.1658 0.0
C761 C 0.42779 0.3108 0.20739 0.0
C762 C 0.47811 0.33136 0.17059 0.0
C763 C 0.42572 0.33064 0.1351 0.0
C764 C 0.47419 0.37335 0.09083 0.0
C765 C 0.47489 0.37111 0.02335 0.0
C766 C 0.46679 0.36035 0.1336 0.0
C767 C 0.45995 0.34472 0.10836 0.0
C768 C 0.46066 0.34236 0.04037 0.0
C769 C 0.4681 0.35559 0.99862 0.0
C770 C 0.46623 0.36334 0.20579 0.0
C771 C 0.45351 0.32585 0.01175 0.0
H772 H 0.45931 0.30621 0.24718 0.0
H773 H 0.41514 0.30554 0.21653 0.0
H774 H 0.48023 0.33075 0.11761 0.0
H775 H 0.48465 0.34409 0.18476 0.0
H776 H 0.48317 0.32503 0.19804 0.0
H777 H 0.41307 0.3241 0.15072 0.0
H778 H 0.43087 0.34336 0.14837 0.0
H779 H 0.42619 0.33001 0.08103 0.0
H780 H 0.47939 0.38529 0.11043 0.0
H781 H 0.46862 0.35376 0.94658 0.0
H782 H 0.47201 0.35787 0.23412 0.0
H783 H 0.45368 0.35768 0.22238 0.0
H784 H 0.47223 0.37623 0.21764 0.0
H785 H 0.45892 0.31934 0.03494 0.0
H786 H 0.45527 0.32605 0.958 0.0
H787 H 0.44056 0.31904 0.02218 0.0
C788 C 0.68454 0.13371 0.17376 0.0
C789 C 0.69898 0.13507 0.15349 0.0
C790 C 0.67165 0.12846 0.13041 0.0
C791 C 0.67324 0.12445 0.06535 0.0
C792 C 0.68767 0.1255 0.04498 0.0
C793 C 0.70036 0.1308 0.08927 0.0
C794 C 0.65642 0.12744 0.15393 0.0
C795 C 0.68979 0.12128 0.97605 0.0
C796 C 0.63581 0.0986 0.96687 0.0
C797 C 0.63445 0.10998 0.92933 0.0
C798 C 0.64836 0.10314 0.01139 0.0
C799 C 0.6599 0.11943 0.01817 0.0
C800 C 0.65872 0.13095 0.97985 0.0
C801 C 0.64597 0.12609 0.93605 0.0
C802 C 0.6492 0.09052 0.05159 0.0
C803 C 0.67089 0.14842 0.98533 0.0
H804 H 0.68337 0.13698 0.22327 0.0
H805 H 0.71145 0.13176 0.07319 0.0
H806 H 0.65394 0.13562 0.12496 0.0
H807 H 0.64627 0.11523 0.14639 0.0
H808 H 0.65694 0.13055 0.2065 0.0
H809 H 0.70163 0.12236 0.96844 0.0
H810 H 0.68045 0.10891 0.96453 0.0
H811 H 0.68844 0.12921 0.94076 0.0
H812 H 0.62693 0.08613 0.96217 0.0
H813 H 0.64504 0.13495 0.90712 0.0
H814 H 0.64874 0.09286 0.10443 0.0
H815 H 0.66066 0.09091 0.04266 0.0
H816 H 0.63932 0.07836 0.04025 0.0
H817 H 0.67115 0.15257 0.03611 0.0
H818 H 0.66838 0.15585 0.9515 0.0
H819 H 0.68293 0.15036 0.97441 0.0
C820 C 0.84845 0.53223 0.2095 0.0
C821 C 0.85474 0.54851 0.2216 0.0
C822 C 0.85608 0.52688 0.16667 0.0
C823 C 0.87027 0.53808 0.13483 0.0
C824 C 0.87675 0.55452 0.14727 0.0
C825 C 0.86895 0.55954 0.19072 0.0
C826 C 0.8489 0.50923 0.15509 0.0
C827 C 0.89182 0.56683 0.11402 0.0
C828 C 0.89737 0.52387 0.06639 0.0
C829 C 0.89313 0.52171 -0.0 0.0
C830 C 0.89005 0.52923 0.11076 0.0
C831 C 0.87827 0.5326 0.08817 0.0
C832 C 0.87405 0.53063 0.02112 0.0
C833 C 0.8815 0.52517 0.97783 0.0
C834 C 0.89483 0.53114 0.18196 0.0
C835 C 0.8616 0.5342 0.99519 0.0
H836 H 0.83751 0.52363 0.2333 0.0
H837 H 0.87387 0.57215 0.19963 0.0
H838 H 0.84581 0.50649 0.10265 0.0
H839 H 0.85769 0.50549 0.16718 0.0
H840 H 0.83801 0.50206 0.18475 0.0
H841 H 0.89539 0.57914 0.12947 0.0
H842 H 0.90171 0.56457 0.12513 0.0
H843 H 0.89014 0.56596 0.06019 0.0
H844 H 0.90632 0.52121 0.08401 0.0
H845 H 0.87818 0.52356 0.92661 0.0
H846 H 0.88433 0.52336 0.21259 0.0
H847 H 0.89919 0.54358 0.19783 0.0
H848 H 0.90428 0.52812 0.19156 0.0
H849 H 0.85005 0.52648 0.01978 0.0
H850 H 0.85988 0.53233 0.94153 0.0
H851 H 0.86505 0.54671 0.00627 0.0
C852 C 0.56335 0.67469 0.76221 0.0
C853 C 0.56344 0.68908 0.77025 0.0
C854 C 0.55813 0.66336 0.81273 0.0
C855 C 0.55306 0.66661 0.87285 0.0
C856 C 0.5533 0.68118 0.88145 0.0
C857 C 0.55841 0.6922 0.83 0.0
C858 C 0.5579 0.64787 0.80161 0.0
C859 C 0.54811 0.68514 0.945 0.0
C860 C 0.5252 0.63212 0.98153 0.0
C861 C 0.53572 0.63188 0.02805 0.0
C862 C 0.53072 0.64329 0.93055 0.0
C863 C 0.54713 0.65461 0.92632 0.0
C864 C 0.5578 0.65458 0.97355 0.0
C865 C 0.55197 0.64316 0.02371 0.0
C866 C 0.51899 0.64287 0.88089 0.0
C867 C 0.57536 0.66661 0.97104 0.0
H868 H 0.56721 0.67219 0.71622 0.0
H869 H 0.55855 0.70334 0.83688 0.0
H870 H 0.56532 0.64634 0.83894 0.0
H871 H 0.54558 0.63776 0.8071 0.0
H872 H 0.56235 0.64723 0.7523 0.0
H873 H 0.54945 0.69719 0.94444 0.0
H874 H 0.53546 0.67629 0.95486 0.0
H875 H 0.55522 0.68448 0.98615 0.0
H876 H 0.51263 0.62341 0.98424 0.0
H877 H 0.56017 0.64306 0.05949 0.0
H878 H 0.52247 0.64121 0.83109 0.0
H879 H 0.51913 0.65437 0.881 0.0
H880 H 0.50664 0.63317 0.89064 0.0
H881 H 0.58045 0.66554 0.92405 0.0
H882 H 0.58205 0.66509 0.01181 0.0
H883 H 0.57718 0.67884 0.97327 0.0
C884 C 0.34709 0.90007 0.07392 0.0
C885 C 0.36228 0.90278 0.05765 0.0
C886 C 0.33504 0.89497 0.02644 0.0
C887 C 0.33832 0.89263 0.96116 0.0
C888 C 0.35369 0.89555 0.94429 0.0
C889 C 0.36545 0.90054 0.99272 0.0
C890 C 0.31875 0.89189 0.04627 0.0
C891 C 0.35767 0.89328 0.87515 0.0
C892 C 0.30407 0.86468 0.85153 0.0
C893 C 0.30149 0.87534 0.81437 0.0
C894 C 0.31594 0.87015 0.89973 0.0
C895 C 0.32557 0.8867 0.91071 0.0
C896 C 0.32317 0.89755 0.87288 0.0
C897 C 0.31111 0.89173 0.82532 0.0
C898 C 0.31809 0.85821 0.93926 0.0
C899 C 0.33334 0.91529 0.88273 0.0
H900 H 0.34455 0.90178 0.12393 0.0
H901 H 0.37718 0.90268 0.97952 0.0
H902 H 0.31535 0.89924 0.01624 0.0
H903 H 0.30978 0.87924 0.03708 0.0
H904 H 0.31822 0.89456 0.09873 0.0
H905 H 0.37034 0.89655 0.86966 0.0
H906 H 0.35007 0.88068 0.8603 0.0
H907 H 0.35516 0.90062 0.84089 0.0
H908 H 0.29665 0.85198 0.84366 0.0
H909 H 0.30921 0.90005 0.7968 0.0
H910 H 0.31657 0.85972 0.99207 0.0
H911 H 0.33033 0.86029 0.93261 0.0
H912 H 0.3095 0.84574 0.92518 0.0
H913 H 0.33218 0.91843 0.93381 0.0
H914 H 0.33001 0.92214 0.84904 0.0
H915 H 0.34605 0.91905 0.87479 0.0
C916 C 0.12288 0.4279 0.84508 0.0
C917 C 0.13291 0.43639 0.79278 0.0
C918 C 0.11699 0.43509 0.88759 0.0
C919 C 0.12133 0.45119 0.87787 0.0
C920 C 0.13135 0.4598 0.82486 0.0
C921 C 0.13697 0.45228 0.78274 0.0
C922 C 0.10621 0.42547 0.94316 0.0
C923 C 0.13627 0.47702 0.81313 0.0
C924 C 0.09528 0.4659 0.9531 0.0
C925 C 0.10377 0.47349 0.01003 0.0
C926 C 0.10087 0.45861 0.90968 0.0
C927 C 0.11536 0.459 0.92324 0.0
C928 C 0.12402 0.46666 0.98053 0.0
C929 C 0.11809 0.47377 0.02342 0.0
C930 C 0.09122 0.45042 0.8494 0.0
C931 C 0.13956 0.46738 0.99641 0.0
H932 H 0.11964 0.41561 0.85308 0.0
H933 H 0.14477 0.45893 0.74259 0.0
H934 H 0.11172 0.43104 0.99061 0.0
H935 H 0.09473 0.42533 0.93976 0.0
H936 H 0.10374 0.41299 0.94329 0.0
H937 H 0.14407 0.48203 0.7696 0.0
H938 H 0.12559 0.47823 0.80613 0.0
H939 H 0.1427 0.48425 0.85654 0.0
H940 H 0.08419 0.46559 0.94243 0.0
H941 H 0.12474 0.47966 0.06717 0.0
H942 H 0.08789 0.4377 0.84967 0.0
H943 H 0.09846 0.45586 0.80485 0.0
H944 H 0.08019 0.45117 0.84599 0.0
H945 H 0.13765 0.45517 0.00133 0.0
H946 H 0.14496 0.47399 0.04241 0.0
H947 H 0.14815 0.47324 0.95589 0.0
C948 C 0.10051 0.64412 0.542 0.0
C949 C 0.11167 0.64077 0.57043 0.0
C950 C 0.10533 0.65707 0.49935 0.0
C951 C 0.1217 0.66696 0.48522 0.0
C952 C 0.13304 0.66379 0.5146 0.0
C953 C 0.12788 0.65071 0.55668 0.0
C954 C 0.09289 0.66005 0.46874 0.0
C955 C 0.15061 0.67416 0.50115 0.0
C956 C 0.13414 0.69159 0.32939 0.0
C957 C 0.13807 0.70669 0.35299 0.0
C958 C 0.12858 0.67849 0.37178 0.0
C959 C 0.12699 0.68058 0.43936 0.0
C960 C 0.13078 0.69574 0.46335 0.0
C961 C 0.13623 0.7086 0.41986 0.0
C962 C 0.12456 0.66246 0.34437 0.0
C963 C 0.1293 0.69844 0.53514 0.0
H964 H 0.08795 0.63647 0.55218 0.0
H965 H 0.13659 0.64822 0.57857 0.0
H966 H 0.09535 0.67221 0.48095 0.0
H967 H 0.09336 0.65935 0.41469 0.0
H968 H 0.08066 0.65135 0.48535 0.0
H969 H 0.15792 0.67028 0.52896 0.0
H970 H 0.15297 0.67391 0.44819 0.0
H971 H 0.15456 0.68669 0.5142 0.0
H972 H 0.13549 0.69 0.27778 0.0
H973 H 0.13926 0.72023 0.43858 0.0
H974 H 0.1121 0.65349 0.35678 0.0
H975 H 0.13236 0.65844 0.36679 0.0
H976 H 0.12599 0.66273 0.2904 0.0
H977 H 0.11696 0.69036 0.55205 0.0
H978 H 0.13243 0.7109 0.54574 0.0
H979 H 0.13724 0.69562 0.56417 0.0
C980 C 0.3751 0.46561 0.41691 0.0
C981 C 0.37222 0.46652 0.4836 0.0
C982 C 0.36254 0.45864 0.37183 0.0
C983 C 0.34671 0.45234 0.39399 0.0
C984 C 0.34369 0.45312 0.46127 0.0
C985 C 0.3565 0.46025 0.50528 0.0
C986 C 0.36623 0.4581 0.30042 0.0
C987 C 0.32694 0.44644 0.48673 0.0
C988 C 0.31474 0.4471 0.27291 0.0
C989 C 0.30727 0.43075 0.2594 0.0
C990 C 0.3277 0.45431 0.31607 0.0
C991 C 0.33328 0.44494 0.3467 0.0
C992 C 0.32596 0.4285 0.33255 0.0
C993 C 0.31308 0.42161 0.2889 0.0
C994 C 0.33531 0.47192 0.3295 0.0
C995 C 0.33157 0.41812 0.36436 0.0
H996 H 0.38721 0.47046 0.39965 0.0
H997 H 0.35418 0.46089 0.55672 0.0
H998 H 0.3602 0.4456 0.28311 0.0
H999 H 0.3616 0.46447 0.27073 0.0
H1000 H 0.3792 0.46356 0.29113 0.0
H1001 H 0.32661 0.44784 0.54052 0.0
H1002 H 0.32117 0.4525 0.46271 0.0
H1003 H 0.31977 0.43361 0.47454 0.0
H1004 H 0.31036 0.45426 0.25024 0.0
H1005 H 0.30737 0.40896 0.2789 0.0
H1006 H 0.3482 0.47795 0.3181 0.0
H1007 H 0.33417 0.47392 0.38217 0.0
H1008 H 0.32982 0.47761 0.30041 0.0
H1009 H 0.34436 0.42281 0.35363 0.0
H1010 H 0.32475 0.40558 0.34741 0.0
H1011 H 0.33036 0.41832 0.41826 0.0
C1012 C 0.52448 0.88506 0.47398 0.0
C1013 C 0.53458 0.89481 0.52391 0.0
C1014 C 0.53025 0.8796 0.42331 0.0
C1015 C 0.54649 0.88385 0.4228 0.0
C1016 C 0.55673 0.89356 0.4733 0.0
C1017 C 0.55066 0.89898 0.52316 0.0
C1018 C 0.51898 0.86932 0.37013 0.0
C1019 C 0.57408 0.8982 0.47468 0.0
C1020 C 0.55739 0.85729 0.3264 0.0
C1021 C 0.56368 0.86607 0.26871 0.0
C1022 C 0.55193 0.86303 0.37717 0.0
C1023 C 0.55265 0.87787 0.36995 0.0
C1024 C 0.55897 0.88681 0.31189 0.0
C1025 C 0.56448 0.88083 0.262 0.0
C1026 C 0.54537 0.85319 0.43852 0.0
C1027 C 0.55981 0.90264 0.30233 0.0
H1028 H 0.51206 0.88184 0.47394 0.0
H1029 H 0.55854 0.90649 0.56155 0.0
H1030 H 0.52343 0.87499 0.32172 0.0
H1031 H 0.5184 0.85761 0.36898 0.0
H1032 H 0.50675 0.86729 0.37713 0.0
H1033 H 0.58045 0.9058 0.51743 0.0
H1034 H 0.57519 0.88737 0.47633 0.0
H1035 H 0.58005 0.90474 0.42933 0.0
H1036 H 0.55682 0.84591 0.33224 0.0
H1037 H 0.56932 0.88768 0.21761 0.0
H1038 H 0.53278 0.85001 0.44549 0.0
H1039 H 0.55211 0.86022 0.48184 0.0
H1040 H 0.54597 0.84206 0.437 0.0
H1041 H 0.54769 0.90107 0.30524 0.0
H1042 H 0.56514 0.90817 0.25451 0.0
H1043 H 0.56697 0.91096 0.34195 0.0
C1044 C 0.2392 0.13124 0.64407 0.0
C1045 C 0.23274 0.12836 0.58089 0.0
C1046 C 0.23829 0.11885 0.68241 0.0
C1047 C 0.23063 0.10315 0.65722 0.0
C1048 C 0.22383 0.10009 0.59395 0.0
C1049 C 0.22503 0.11276 0.55636 0.0
C1050 C 0.24576 0.12262 0.74966 0.0
C1051 C 0.21544 0.08348 0.56582 0.0
C1052 C 0.2444 0.07776 0.74367 0.0
C1053 C 0.23333 0.0714 0.79484 0.0
C1054 C 0.24301 0.08721 0.69509 0.0
C1055 C 0.23013 0.09015 0.69741 0.0
C1056 C 0.21802 0.08235 0.74478 0.0
C1057 C 0.21979 0.07309 0.79314 0.0
C1058 C 0.25615 0.09524 0.64519 0.0
C1059 C 0.20392 0.08491 0.748 0.0
H1060 H 0.24519 0.14325 0.66337 0.0
H1061 H 0.21996 0.11043 0.50762 0.0
H1062 H 0.23665 0.11561 0.78717 0.0
H1063 H 0.25509 0.11921 0.75257 0.0
H1064 H 0.25124 0.13544 0.76203 0.0
H1065 H 0.21021 0.08299 0.51696 0.0
H1066 H 0.22394 0.07903 0.56116 0.0
H1067 H 0.20582 0.07526 0.59927 0.0
H1068 H 0.25484 0.07642 0.74418 0.0
H1069 H 0.21104 0.06802 0.83198 0.0
H1070 H 0.26356 0.10804 0.65766 0.0
H1071 H 0.25117 0.0945 0.59566 0.0
H1072 H 0.26397 0.08992 0.64372 0.0
H1073 H 0.20778 0.09692 0.76809 0.0
H1074 H 0.19432 0.07597 0.77978 0.0
H1075 H 0.19899 0.08434 0.69847 0.0
C1076 C 0.88504 0.10584 0.58939 0.0
C1077 C 0.86928 0.10152 0.60459 0.0
C1078 C 0.89782 0.11729 0.62656 0.0
C1079 C 0.89473 0.12452 0.68028 0.0
C1080 C 0.87885 0.12024 0.69576 0.0
C1081 C 0.86633 0.10882 0.65766 0.0
C1082 C 0.9146 0.12163 0.60852 0.0
C1083 C 0.87506 0.12765 0.75291 0.0
C1084 C 0.92221 0.14271 0.82498 0.0
C1085 C 0.92761 0.15894 0.81548 0.0
C1086 C 0.91237 0.13136 0.77882 0.0
C1087 C 0.90794 0.1364 0.72161 0.0
C1088 C 0.91462 0.15285 0.70872 0.0
C1089 C 0.92441 0.16396 0.75588 0.0
C1090 C 0.9056 0.11393 0.79419 0.0
C1091 C 0.91037 0.1587 0.64779 0.0
H1092 H 0.88743 0.1003 0.54828 0.0
H1093 H 0.8542 0.10557 0.66973 0.0
H1094 H 0.92184 0.1346 0.59904 0.0
H1095 H 0.92026 0.11892 0.64987 0.0
H1096 H 0.91501 0.11514 0.56452 0.0
H1097 H 0.86209 0.12307 0.75816 0.0
H1098 H 0.87953 0.12522 0.79894 0.0
H1099 H 0.88115 0.14076 0.74679 0.0
H1100 H 0.9248 0.13873 0.8705 0.0
H1101 H 0.92863 0.17648 0.74779 0.0
H1102 H 0.90622 0.10742 0.75076 0.0
H1103 H 0.89286 0.10863 0.80767 0.0
H1104 H 0.91193 0.11205 0.83542 0.0
H1105 H 0.91082 0.15218 0.60404 0.0
H1106 H 0.91843 0.17165 0.63996 0.0
H1107 H 0.89801 0.15645 0.6522 0.0
C1108 C 0.89508 0.75483 0.68985 0.0
C1109 C 0.89895 0.75891 0.624 0.0
C1110 C 0.88281 0.7562 0.71975 0.0
C1111 C 0.8744 0.76204 0.68317 0.0
C1112 C 0.8784 0.76639 0.61694 0.0
C1113 C 0.89055 0.76465 0.58795 0.0
C1114 C 0.87874 0.75124 0.79039 0.0
C1115 C 0.86989 0.77293 0.57683 0.0
C1116 C 0.83391 0.75049 0.75301 0.0
C1117 C 0.83766 0.76343 0.79434 0.0
C1118 C 0.8456 0.75022 0.71358 0.0
C1119 C 0.8613 0.76335 0.71463 0.0
C1120 C 0.86477 0.77705 0.75158 0.0
C1121 C 0.85292 0.77687 0.79148 0.0
C1122 C 0.84145 0.73534 0.67531 0.0
C1123 C 0.88127 0.79143 0.75277 0.0
H1124 H 0.90148 0.75034 0.71784 0.0
H1125 H 0.89358 0.76794 0.53711 0.0
H1126 H 0.88032 0.76149 0.82013 0.0
H1127 H 0.86607 0.74181 0.7945 0.0
H1128 H 0.88625 0.7467 0.81163 0.0
H1129 H 0.87469 0.77611 0.52635 0.0
H1130 H 0.85702 0.76403 0.57391 0.0
H1131 H 0.87097 0.78367 0.60084 0.0
H1132 H 0.82218 0.74001 0.75522 0.0
H1133 H 0.85585 0.78693 0.82313 0.0
H1134 H 0.8472 0.72915 0.6985 0.0
H1135 H 0.84601 0.73833 0.62454 0.0
H1136 H 0.82841 0.72698 0.67355 0.0
H1137 H 0.8893 0.78864 0.78127 0.0
H1138 H 0.8814 0.80189 0.77551 0.0
H1139 H 0.88617 0.79465 0.70252 0.0
C1140 C 0.12944 0.24083 0.86659 0.0
C1141 C 0.12574 0.23367 0.92848 0.0
C1142 C 0.11768 0.24094 0.82722 0.0
C1143 C 0.10179 0.23363 0.85009 0.0
C1144 C 0.09794 0.22636 0.91247 0.0
C1145 C 0.10998 0.2265 0.95108 0.0
C1146 C 0.12228 0.2489 0.76101 0.0
C1147 C 0.08111 0.21839 0.93823 0.0
C1148 C 0.07757 0.24839 0.76045 0.0
C1149 C 0.07117 0.23736 0.70914 0.0
C1150 C 0.0867 0.24674 0.80974 0.0
C1151 C 0.08934 0.23367 0.80788 0.0
C1152 C 0.08166 0.22172 0.75981 0.0
C1153 C 0.07269 0.22372 0.71086 0.0
C1154 C 0.09463 0.25971 0.86038 0.0
C1155 C 0.08396 0.20745 0.75685 0.0
H1156 H 0.14158 0.24643 0.84883 0.0
H1157 H 0.10702 0.22093 0.99888 0.0
H1158 H 0.11554 0.24013 0.72205 0.0
H1159 H 0.11917 0.25844 0.75804 0.0
H1160 H 0.1352 0.25421 0.75086 0.0
H1161 H 0.0801 0.21336 0.98798 0.0
H1162 H 0.07682 0.22704 0.93992 0.0
H1163 H 0.07309 0.20866 0.90478 0.0
H1164 H 0.07638 0.25892 0.75983 0.0
H1165 H 0.06761 0.21503 0.67184 0.0
H1166 H 0.10753 0.26691 0.84945 0.0
H1167 H 0.09342 0.25455 0.90988 0.0
H1168 H 0.08958 0.26777 0.86104 0.0
H1169 H 0.09618 0.21125 0.73945 0.0
H1170 H 0.07536 0.19815 0.72312 0.0
H1171 H 0.08267 0.20216 0.80613 0.0
C1172 C 0.75636 0.83292 0.75946 0.0
C1173 C 0.76558 0.83796 0.70231 0.0
C1174 C 0.75786 0.84391 0.80755 0.0
C1175 C 0.76885 0.86027 0.79814 0.0
C1176 C 0.77912 0.86523 0.74333 0.0
C1177 C 0.77739 0.85401 0.69615 0.0
C1178 C 0.74683 0.83813 0.86579 0.0
C1179 C 0.79109 0.88257 0.73177 0.0
C1180 C 0.75783 0.89003 0.86364 0.0
C1181 C 0.7676 0.89598 0.91896 0.0
C1182 C 0.75807 0.87832 0.82436 0.0
C1183 C 0.76829 0.87236 0.8409 0.0
C1184 C 0.77809 0.8782 0.89695 0.0
C1185 C 0.77766 0.88998 0.9353 0.0
C1186 C 0.74745 0.87241 0.76478 0.0
C1187 C 0.78909 0.87207 0.91614 0.0
H1188 H 0.74727 0.82053 0.76489 0.0
H1189 H 0.78471 0.85799 0.65251 0.0
H1190 H 0.75346 0.84364 0.91153 0.0
H1191 H 0.73767 0.84171 0.86009 0.0
H1192 H 0.74068 0.82499 0.87096 0.0
H1193 H 0.7995 0.88422 0.69163 0.0
H1194 H 0.78473 0.88902 0.71865 0.0
H1195 H 0.79802 0.88812 0.77687 0.0
H1196 H 0.75002 0.89459 0.85069 0.0
H1197 H 0.78521 0.89446 0.97814 0.0
H1198 H 0.73943 0.85934 0.76798 0.0
H1199 H 0.75479 0.8748 0.72009 0.0
H1200 H 0.74006 0.87814 0.75917 0.0
H1201 H 0.7822 0.85897 0.92261 0.0
H1202 H 0.79564 0.87755 0.96216 0.0
H1203 H 0.79786 0.87458 0.87659 0.0
C1204 C 0.16318 0.92653 0.74173 0.0
C1205 C 0.15692 0.92859 0.68306 0.0
C1206 C 0.15322 0.91543 0.78859 0.0
C1207 C 0.13671 0.9061 0.77585 0.0
C1208 C 0.13016 0.90938 0.72021 0.0
C1209 C 0.14034 0.92075 0.67487 0.0
C1210 C 0.16058 0.91267 0.84857 0.0
C1211 C 0.11262 0.8997 0.70464 0.0
C1212 C 0.11596 0.8628 0.827 0.0
C1213 C 0.10624 0.86251 0.87814 0.0
C1214 C 0.1261 0.87699 0.79411 0.0
C1215 C 0.12678 0.89132 0.81386 0.0
C1216 C 0.11742 0.89122 0.86706 0.0
C1217 C 0.10708 0.87675 0.8981 0.0
C1218 C 0.13575 0.87655 0.73698 0.0
C1219 C 0.11816 0.90632 0.89054 0.0
H1220 H 0.17595 0.93274 0.74908 0.0
H1221 H 0.13533 0.92242 0.6302 0.0
H1222 H 0.15302 0.91062 0.89228 0.0
H1223 H 0.16161 0.90189 0.84123 0.0
H1224 H 0.17267 0.92288 0.85833 0.0
H1225 H 0.10911 0.90516 0.66496 0.0
H1226 H 0.10974 0.88761 0.68876 0.0
H1227 H 0.10533 0.89831 0.74854 0.0
H1228 H 0.11532 0.85182 0.81138 0.0
H1229 H 0.09969 0.87659 0.93821 0.0
H1230 H 0.1486 0.88476 0.74589 0.0
H1231 H 0.13248 0.88065 0.69195 0.0
H1232 H 0.13388 0.86444 0.72805 0.0
H1233 H 0.1307 0.91571 0.89881 0.0
H1234 H 0.11137 0.90448 0.93656 0.0
H1235 H 0.11321 0.9108 0.85259 0.0
C1236 C 0.7557 0.92054 0.25867 0.0
C1237 C 0.76514 0.92453 0.2022 0.0
C1238 C 0.7568 0.91096 0.30749 0.0
C1239 C 0.7676 0.9053 0.2995 0.0
C1240 C 0.77806 0.91038 0.2453 0.0
C1241 C 0.77674 0.91997 0.19738 0.0
C1242 C 0.74557 0.90595 0.36505 0.0
C1243 C 0.78984 0.9047 0.23525 0.0
C1244 C 0.7759 0.88445 0.4384 0.0
C1245 C 0.76585 0.86838 0.42219 0.0
C1246 C 0.77643 0.89664 0.39965 0.0
C1247 C 0.76672 0.89266 0.34329 0.0
C1248 C 0.75641 0.87648 0.32712 0.0
C1249 C 0.75608 0.86454 0.36683 0.0
C1250 C 0.78749 0.91377 0.41852 0.0
C1251 C 0.74589 0.87175 0.26725 0.0
H1252 H 0.74676 0.92407 0.26304 0.0
H1253 H 0.78421 0.92315 0.15426 0.0
H1254 H 0.73629 0.89326 0.35944 0.0
H1255 H 0.75201 0.90703 0.41133 0.0
H1256 H 0.7396 0.91314 0.36912 0.0
H1257 H 0.79834 0.91119 0.19505 0.0
H1258 H 0.79666 0.90615 0.28073 0.0
H1259 H 0.78332 0.89183 0.22305 0.0
H1260 H 0.78344 0.88753 0.4813 0.0
H1261 H 0.74826 0.85217 0.35401 0.0
H1262 H 0.78074 0.92016 0.42312 0.0
H1263 H 0.79652 0.91983 0.37963 0.0
H1264 H 0.79375 0.91486 0.4654 0.0
H1265 H 0.73805 0.87702 0.26944 0.0
H1266 H 0.73832 0.85864 0.26229 0.0
H1267 H 0.75332 0.87646 0.22265 0.0
C1268 C 0.074 0.85245 0.18051 0.0
C1269 C 0.07039 0.83653 0.18133 0.0
C1270 C 0.08521 0.8636 0.2239 0.0
C1271 C 0.0929 0.85867 0.26925 0.0
C1272 C 0.08794 0.84231 0.27534 0.0
C1273 C 0.07667 0.8314 0.23136 0.0
C1274 C 0.08996 0.8809 0.21656 0.0
C1275 C 0.09568 0.83653 0.32375 0.0
C1276 C 0.13642 0.88838 0.29971 0.0
C1277 C 0.13592 0.89464 0.36079 0.0
C1278 C 0.12249 0.87651 0.27006 0.0
C1279 C 0.10768 0.87077 0.30221 0.0
C1280 C 0.10709 0.87687 0.36427 0.0
C1281 C 0.12123 0.88875 0.39288 0.0
C1282 C 0.12363 0.87023 0.20384 0.0
C1283 C 0.09152 0.87103 0.39992 0.0
H1284 H 0.06899 0.85647 0.1427 0.0
H1285 H 0.07383 0.81908 0.23298 0.0
H1286 H 0.09124 0.88653 0.26506 0.0
H1287 H 0.10168 0.88735 0.19168 0.0
H1288 H 0.08118 0.88243 0.18718 0.0
H1289 H 0.08859 0.82344 0.33083 0.0
H1290 H 0.10764 0.83955 0.30547 0.0
H1291 H 0.09732 0.84244 0.37183 0.0
H1292 H 0.1477 0.89281 0.27472 0.0
H1293 H 0.12073 0.89351 0.4402 0.0
H1294 H 0.11659 0.87262 0.16747 0.0
H1295 H 0.11853 0.85715 0.20617 0.0
H1296 H 0.13609 0.87571 0.18608 0.0
H1297 H 0.08361 0.87393 0.37112 0.0
H1298 H 0.09319 0.87643 0.44928 0.0
H1299 H 0.08531 0.8579 0.40518 0.0
C1300 C 0.15965 0.24655 0.23742 0.0
C1301 C 0.15616 0.23406 0.19386 0.0
C1302 C 0.14775 0.24634 0.27701 0.0
C1303 C 0.1321 0.23318 0.27384 0.0
C1304 C 0.12889 0.21986 0.23481 0.0
C1305 C 0.14095 0.22051 0.19484 0.0
C1306 C 0.15164 0.26083 0.31768 0.0
C1307 C 0.11245 0.20542 0.23139 0.0
C1308 C 0.10254 0.23146 0.39989 0.0
C1309 C 0.09457 0.23778 0.36453 0.0
C1310 C 0.11452 0.22948 0.37062 0.0
C1311 C 0.1188 0.23421 0.30489 0.0
C1312 C 0.11069 0.24046 0.26878 0.0
C1313 C 0.09857 0.24204 0.29891 0.0
C1314 C 0.12266 0.22245 0.41011 0.0
C1315 C 0.11505 0.2458 0.19866 0.0
H1316 H 0.17136 0.25709 0.23694 0.0
H1317 H 0.13822 0.21076 0.16162 0.0
H1318 H 0.14592 0.26717 0.29559 0.0
H1319 H 0.14688 0.25733 0.36796 0.0
H1320 H 0.16466 0.26923 0.32069 0.0
H1321 H 0.11255 0.19515 0.208 0.0
H1322 H 0.10721 0.20187 0.28099 0.0
H1323 H 0.10457 0.20832 0.20234 0.0
H1324 H 0.09939 0.22801 0.45053 0.0
H1325 H 0.09249 0.24697 0.27143 0.0
H1326 H 0.13546 0.23136 0.41586 0.0
H1327 H 0.12195 0.21209 0.38405 0.0
H1328 H 0.11733 0.21857 0.45949 0.0
H1329 H 0.12772 0.2553 0.19577 0.0
H1330 H 0.1076 0.25042 0.17749 0.0
H1331 H 0.11365 0.23574 0.16806 0.0
C1332 C 0.86528 0.75884 0.12501 0.0
C1333 C 0.86901 0.76662 0.06439 0.0
C1334 C 0.87716 0.75901 0.16457 0.0
C1335 C 0.89319 0.76723 0.14317 0.0
C1336 C 0.89707 0.77516 0.08217 0.0
C1337 C 0.88491 0.77473 0.04336 0.0
C1338 C 0.87253 0.75033 0.22928 0.0
C1339 C 0.91404 0.7841 0.05801 0.0
C1340 C 0.922 0.77696 0.28351 0.0
C1341 C 0.92436 0.76383 0.28239 0.0
C1342 C 0.9128 0.77889 0.23541 0.0
C1343 C 0.90574 0.76738 0.18529 0.0
C1344 C 0.9092 0.75487 0.18076 0.0
C1345 C 0.91855 0.75329 0.22926 0.0
C1346 C 0.90962 0.79256 0.24125 0.0
C1347 C 0.90196 0.74238 0.12788 0.0
H1348 H 0.85303 0.75252 0.14156 0.0
H1349 H 0.8879 0.78078 0.99655 0.0
H1350 H 0.87619 0.74118 0.2305 0.0
H1351 H 0.87881 0.75879 0.26978 0.0
H1352 H 0.85952 0.74441 0.23848 0.0
H1353 H 0.91508 0.78971 0.00951 0.0
H1354 H 0.92159 0.79352 0.09355 0.0
H1355 H 0.91887 0.77592 0.05418 0.0
H1356 H 0.92661 0.78528 0.32397 0.0
H1357 H 0.92039 0.74316 0.22769 0.0
H1358 H 0.8972 0.788 0.25801 0.0
H1359 H 0.91088 0.79833 0.19305 0.0
H1360 H 0.91777 0.80169 0.27667 0.0
H1361 H 0.88905 0.73464 0.1375 0.0
H1362 H 0.90751 0.73478 0.12575 0.0
H1363 H 0.90319 0.74799 0.07935 0.0
C1364 C 0.23289 0.10877 0.09797 0.0
C1365 C 0.24086 0.10197 0.13007 0.0
C1366 C 0.23105 0.12077 0.12788 0.0
C1367 C 0.23746 0.12617 0.19097 0.0
C1368 C 0.24551 0.11936 0.22351 0.0
C1369 C 0.24705 0.1073 0.19277 0.0
C1370 C 0.22223 0.12764 0.09216 0.0
C1371 C 0.2526 0.12486 0.29082 0.0
C1372 C 0.24891 0.16645 0.26131 0.0
C1373 C 0.23755 0.16217 0.31109 0.0
C1374 C 0.24832 0.155 0.21774 0.0
C1375 C 0.23595 0.139 0.22377 0.0
C1376 C 0.22346 0.13503 0.26892 0.0
C1377 C 0.22442 0.14668 0.3122 0.0
C1378 C 0.26181 0.15975 0.16995 0.0
C1379 C 0.20989 0.11817 0.27596 0.0
H1380 H 0.22801 0.10465 0.04956 0.0
H1381 H 0.25325 0.10214 0.21779 0.0
H1382 H 0.21192 0.12597 0.12176 0.0
H1383 H 0.23012 0.14063 0.08524 0.0
H1384 H 0.21784 0.12203 0.04352 0.0
H1385 H 0.25865 0.11846 0.30903 0.0
H1386 H 0.26137 0.13779 0.28991 0.0
H1387 H 0.24314 0.12301 0.3261 0.0
H1388 H 0.25902 0.17843 0.2596 0.0
H1389 H 0.21545 0.14334 0.34989 0.0
H1390 H 0.25727 0.15423 0.12142 0.0
H1391 H 0.26977 0.15544 0.18811 0.0
H1392 H 0.26898 0.17287 0.16378 0.0
H1393 H 0.20549 0.11261 0.22735 0.0
H1394 H 0.19981 0.1176 0.30398 0.0
H1395 H 0.21413 0.11098 0.30224 0.0
C1396 C 0.83039 0.08307 0.26657 0.0
C1397 C 0.83587 0.07767 0.31861 0.0
C1398 C 0.84067 0.09225 0.21604 0.0
C1399 C 0.85676 0.09598 0.21742 0.0
C1400 C 0.86202 0.08951 0.26698 0.0
C1401 C 0.85152 0.08045 0.3171 0.0
C1402 C 0.8346 0.09891 0.16392 0.0
C1403 C 0.87904 0.09304 0.26963 0.0
C1404 C 0.88311 0.11512 0.06902 0.0
C1405 C 0.89127 0.13123 0.08719 0.0
C1406 C 0.87177 0.10347 0.1107 0.0
C1407 C 0.86847 0.10807 0.17171 0.0
C1408 C 0.87654 0.12432 0.18996 0.0
C1409 C 0.88787 0.13569 0.14758 0.0
C1410 C 0.86345 0.08624 0.08983 0.0
C1411 C 0.87328 0.12971 0.25453 0.0
H1412 H 0.81831 0.08093 0.26716 0.0
H1413 H 0.85581 0.07619 0.35682 0.0
H1414 H 0.83987 0.11191 0.17147 0.0
H1415 H 0.83827 0.09717 0.11464 0.0
H1416 H 0.82144 0.09332 0.16498 0.0
H1417 H 0.8807 0.08552 0.30616 0.0
H1418 H 0.88289 0.09115 0.22102 0.0
H1419 H 0.88695 0.10571 0.28294 0.0
H1420 H 0.88569 0.11157 0.02245 0.0
H1421 H 0.89408 0.14811 0.16191 0.0
H1422 H 0.85037 0.08127 0.08992 0.0
H1423 H 0.86606 0.07918 0.12521 0.0
H1424 H 0.86715 0.08466 0.04029 0.0
H1425 H 0.86046 0.12593 0.25836 0.0
H1426 H 0.88034 0.14282 0.26077 0.0
H1427 H 0.87612 0.12404 0.29545 0.0
C1428 C 0.92027 0.41471 0.09841 0.0
C1429 C 0.90954 0.40867 0.15088 0.0
C1430 C 0.91806 0.42311 0.04746 0.0
C1431 C 0.90476 0.42539 0.04887 0.0
C1432 C 0.89317 0.41811 0.0986 0.0
C1433 C 0.89571 0.40986 0.14912 0.0
C1434 C 0.93066 0.43062 0.99511 0.0
C1435 C 0.8787 0.42008 0.10133 0.0
C1436 C 0.91025 0.46414 0.98071 0.0
C1437 C 0.90256 0.45937 0.92003 0.0
C1438 C 0.91111 0.45318 0.02269 0.0
C1439 C 0.90403 0.43701 0.00374 0.0
C1440 C 0.89627 0.43209 0.94253 0.0
C1441 C 0.89566 0.44335 0.90126 0.0
C1442 C 0.91957 0.45891 0.08753 0.0
C1443 C 0.88853 0.41495 0.92092 0.0
H1444 H 0.93094 0.41378 0.09909 0.0
H1445 H 0.88726 0.40508 0.18909 0.0
H1446 H 0.92513 0.42856 0.94596 0.0
H1447 H 0.9376 0.44367 0.00297 0.0
H1448 H 0.93902 0.42593 0.99567 0.0
H1449 H 0.86977 0.41189 0.13729 0.0
H1450 H 0.88237 0.43248 0.11557 0.0
H1451 H 0.87296 0.41792 0.05257 0.0
H1452 H 0.91565 0.47648 0.99555 0.0
H1453 H 0.88967 0.43956 0.85446 0.0
H1454 H 0.92936 0.45617 0.09108 0.0
H1455 H 0.91118 0.45259 0.12818 0.0
H1456 H 0.92463 0.47191 0.09448 0.0
H1457 H 0.89744 0.41097 0.92032 0.0
H1458 H 0.88312 0.41308 0.8715 0.0
H1459 H 0.87913 0.40725 0.95625 0.0
C1460 C 0.59321 0.49715 0.10878 0.0
C1461 C 0.59588 0.49148 0.16781 0.0
C1462 C 0.58437 0.48662 0.05828 0.0
C1463 C 0.57811 0.47008 0.06721 0.0
C1464 C 0.58219 0.46449 0.12377 0.0
C1465 C 0.5911 0.47528 0.17333 0.0
C1466 C 0.5805 0.49307 0.99817 0.0
C1467 C 0.57588 0.44696 0.13497 0.0
C1468 C 0.53716 0.44251 0.99751 0.0
C1469 C 0.54066 0.43597 0.94329 0.0
C1470 C 0.54929 0.45371 0.03767 0.0
C1471 C 0.56536 0.45856 0.02318 0.0
C1472 C 0.56903 0.45218 0.9681 0.0
C1473 C 0.55661 0.44091 0.92881 0.0
C1474 C 0.54487 0.46022 0.09614 0.0
C1475 C 0.58602 0.45714 0.95109 0.0
H1476 H 0.59702 0.50967 0.10365 0.0
H1477 H 0.59332 0.47081 0.21834 0.0
H1478 H 0.58149 0.4872 0.95333 0.0
H1479 H 0.56804 0.49056 0.00139 0.0
H1480 H 0.58845 0.50613 0.99324 0.0
H1481 H 0.58212 0.4448 0.17577 0.0
H1482 H 0.56302 0.44111 0.14713 0.0
H1483 H 0.57707 0.44122 0.09012 0.0
H1484 H 0.52488 0.43878 0.0091 0.0
H1485 H 0.55942 0.43594 0.88685 0.0
H1486 H 0.55076 0.47337 0.09282 0.0
H1487 H 0.54911 0.45734 0.14172 0.0
H1488 H 0.53182 0.45533 0.10017 0.0
H1489 H 0.59314 0.47025 0.94554 0.0
H1490 H 0.58691 0.45151 0.90518 0.0
H1491 H 0.59147 0.45382 0.99137 0.0
C1492 C 0.55083 0.07784 0.01591 0.0
C1493 C 0.55785 0.08479 0.95592 0.0
C1494 C 0.54032 0.08168 0.04719 0.0
C1495 C 0.53669 0.09269 0.01759 0.0
C1496 C 0.54356 0.0996 0.95667 0.0
C1497 C 0.5541 0.0956 0.92663 0.0
C1498 C 0.53322 0.07406 0.11229 0.0
C1499 C 0.53983 0.11125 0.92346 0.0
C1500 C 0.49924 0.09007 0.08631 0.0
C1501 C 0.50554 0.10149 0.1363 0.0
C1502 C 0.50929 0.08777 0.04394 0.0
C1503 C 0.52598 0.09715 0.05176 0.0
C1504 C 0.53237 0.1097 0.09792 0.0
C1505 C 0.52205 0.11177 0.13941 0.0
C1506 C 0.50201 0.07441 0.99472 0.0
C1507 C 0.5501 0.12003 0.10756 0.0
H1508 H 0.55364 0.06947 0.03881 0.0
H1509 H 0.55939 0.10098 0.88006 0.0
H1510 H 0.5366 0.08338 0.15024 0.0
H1511 H 0.52004 0.06747 0.10905 0.0
H1512 H 0.53719 0.06568 0.12853 0.0
H1513 H 0.5458 0.11521 0.87519 0.0
H1514 H 0.5268 0.10576 0.91629 0.0
H1515 H 0.54367 0.12187 0.95493 0.0
H1516 H 0.48649 0.08211 0.08322 0.0
H1517 H 0.52701 0.12076 0.17736 0.0
H1518 H 0.50326 0.06429 0.01256 0.0
H1519 H 0.50825 0.07823 0.94704 0.0
H1520 H 0.48915 0.07011 0.98693 0.0
H1521 H 0.55483 0.11291 0.1309 0.0
H1522 H 0.55314 0.13048 0.13915 0.0
H1523 H 0.55623 0.12431 0.05988 0.0
C1524 C 0.73904 0.5553 0.04435 0.0
C1525 C 0.73814 0.56926 0.04089 0.0
C1526 C 0.74812 0.55334 0.09303 0.0
C1527 C 0.75657 0.5657 0.13876 0.0
C1528 C 0.75447 0.57912 0.13925 0.0
C1529 C 0.74516 0.58068 0.09055 0.0
C1530 C 0.74974 0.53866 0.0919 0.0
C1531 C 0.76326 0.59257 0.18724 0.0
C1532 C 0.7787 0.56049 0.28141 0.0
C1533 C 0.79419 0.56725 0.25607 0.0
C1534 C 0.7662 0.55958 0.24351 0.0
C1535 C 0.76933 0.56576 0.17916 0.0
C1536 C 0.78491 0.57246 0.15318 0.0
C1537 C 0.79712 0.57303 0.1918 0.0
C1538 C 0.7497 0.55217 0.27245 0.0
C1539 C 0.78877 0.57928 0.08483 0.0
H1540 H 0.73347 0.54631 0.00666 0.0
H1541 H 0.74444 0.59147 0.08861 0.0
H1542 H 0.76152 0.54174 0.07139 0.0
H1543 H 0.74909 0.53405 0.14212 0.0
H1544 H 0.74037 0.52906 0.06145 0.0
H1545 H 0.75863 0.60098 0.18731 0.0
H1546 H 0.76239 0.58792 0.23751 0.0
H1547 H 0.77606 0.59926 0.17396 0.0
H1548 H 0.77633 0.55592 0.33099 0.0
H1549 H 0.80905 0.5783 0.17192 0.0
H1550 H 0.74106 0.54251 0.24023 0.0
H1551 H 0.74591 0.5612 0.27577 0.0
H1552 H 0.74908 0.54722 0.32204 0.0
H1553 H 0.78131 0.56999 0.04867 0.0
H1554 H 0.80148 0.58404 0.07198 0.0
H1555 H 0.786 0.58903 0.08022 0.0
C1556 C 0.44361 0.1867 0.04459 0.0
C1557 C 0.43217 0.17059 0.05299 0.0
C1558 C 0.44533 0.19815 0.09067 0.0
C1559 C 0.43549 0.19334 0.14679 0.0
C1560 C 0.42489 0.17697 0.15832 0.0
C1561 C 0.42334 0.16577 0.11117 0.0
C1562 C 0.45684 0.21549 0.07673 0.0
C1563 C 0.41437 0.17137 0.21813 0.0
C1564 C 0.44528 0.22396 0.28092 0.0
C1565 C 0.43485 0.2296 0.26599 0.0
C1566 C 0.44547 0.21195 0.24332 0.0
C1567 C 0.43506 0.20554 0.18927 0.0
C1568 C 0.42443 0.21111 0.17422 0.0
C1569 C 0.42441 0.22303 0.21291 0.0
C1570 C 0.45686 0.20622 0.26109 0.0
C1571 C 0.41319 0.20461 0.11668 0.0
H1572 H 0.45062 0.19055 0.00013 0.0
H1573 H 0.41456 0.15334 0.11835 0.0
H1574 H 0.45008 0.22161 0.06488 0.0
H1575 H 0.46422 0.22141 0.12042 0.0
H1576 H 0.46485 0.2171 0.03501 0.0
H1577 H 0.4085 0.15827 0.22456 0.0
H1578 H 0.42135 0.17724 0.26278 0.0
H1579 H 0.405 0.17468 0.21352 0.0
H1580 H 0.45332 0.22891 0.32214 0.0
H1581 H 0.41631 0.22731 0.20108 0.0
H1582 H 0.46533 0.2087 0.22035 0.0
H1583 H 0.45024 0.19315 0.26865 0.0
H1584 H 0.46375 0.212 0.30611 0.0
H1585 H 0.42008 0.20682 0.07075 0.0
H1586 H 0.40554 0.21007 0.11211 0.0
H1587 H 0.40542 0.19154 0.12165 0.0
C1588 C 0.81429 0.25415 0.02864 0.0
C1589 C 0.82906 0.25512 0.01902 0.0
C1590 C 0.80395 0.24452 0.07816 0.0
C1591 C 0.80841 0.23548 0.1181 0.0
C1592 C 0.82377 0.23734 0.11178 0.0
C1593 C 0.83399 0.24728 0.06265 0.0
C1594 C 0.78782 0.24316 0.08452 0.0
C1595 C 0.82894 0.22782 0.15308 0.0
C1596 C 0.78331 0.2132 0.26567 0.0
C1597 C 0.7733 0.19808 0.23902 0.0
C1598 C 0.79475 0.22559 0.2269 0.0
C1599 C 0.79636 0.22266 0.16036 0.0
C1600 C 0.78641 0.20735 0.13349 0.0
C1601 C 0.77491 0.19528 0.17303 0.0
C1602 C 0.80497 0.24182 0.25685 0.0
C1603 C 0.78793 0.20368 0.06292 0.0
H1604 H 0.81049 0.26032 0.99544 0.0
H1605 H 0.84538 0.24795 0.05554 0.0
H1606 H 0.77856 0.23148 0.06511 0.0
H1607 H 0.78497 0.24373 0.13663 0.0
H1608 H 0.78713 0.25268 0.0571 0.0
H1609 H 0.84185 0.23206 0.14785 0.0
H1610 H 0.82628 0.22836 0.20544 0.0
H1611 H 0.82218 0.21514 0.13801 0.0
H1612 H 0.78203 0.21545 0.31662 0.0
H1613 H 0.76726 0.18359 0.15234 0.0
H1614 H 0.80319 0.25077 0.23012 0.0
H1615 H 0.81773 0.24545 0.25224 0.0
H1616 H 0.80221 0.24214 0.30937 0.0
H1617 H 0.78556 0.21137 0.03017 0.0
H1618 H 0.77957 0.19106 0.05014 0.0
H1619 H 0.80025 0.2063 0.05302 0.0
C1620 C 0.42342 0.25162 0.60868 0.0
C1621 C 0.43234 0.25548 0.55077 0.0
C1622 C 0.42489 0.24209 0.65664 0.0
C1623 C 0.43551 0.23629 0.64626 0.0
C1624 C 0.44545 0.24119 0.59042 0.0
C1625 C 0.44379 0.25079 0.54344 0.0
C1626 C 0.41425 0.2373 0.71608 0.0
C1627 C 0.45699 0.23534 0.57773 0.0
C1628 C 0.44463 0.21555 0.78307 0.0
C1629 C 0.43413 0.19948 0.76842 0.0
C1630 C 0.4451 0.22772 0.74431 0.0
C1631 C 0.43492 0.2237 0.68946 0.0
C1632 C 0.42426 0.20751 0.67462 0.0
C1633 C 0.42396 0.1956 0.71439 0.0
C1634 C 0.45654 0.24486 0.76179 0.0
C1635 C 0.41325 0.20274 0.61629 0.0
H1636 H 0.41465 0.25531 0.61508 0.0
H1637 H 0.45086 0.25383 0.49917 0.0
H1638 H 0.4049 0.2246 0.7118 0.0
H1639 H 0.42115 0.23853 0.76114 0.0
H1640 H 0.40834 0.24452 0.72151 0.0
H1641 H 0.46514 0.24171 0.53637 0.0
H1642 H 0.46421 0.2368 0.62197 0.0
H1643 H 0.45026 0.22246 0.56594 0.0
H1644 H 0.45247 0.21865 0.82496 0.0
H1645 H 0.41583 0.18322 0.70273 0.0
H1646 H 0.44996 0.25137 0.76865 0.0
H1647 H 0.46509 0.25076 0.72119 0.0
H1648 H 0.46334 0.24599 0.80712 0.0
H1649 H 0.40548 0.20807 0.62017 0.0
H1650 H 0.40559 0.18963 0.61184 0.0
H1651 H 0.42031 0.20736 0.57073 0.0
C1652 C 0.8017 0.21345 0.65434 0.0
C1653 C 0.80215 0.22428 0.70074 0.0
C1654 C 0.78783 0.20378 0.61868 0.0
C1655 C 0.77395 0.20474 0.63061 0.0
C1656 C 0.7742 0.21539 0.67843 0.0
C1657 C 0.78837 0.22518 0.71254 0.0
C1658 C 0.78812 0.19272 0.56738 0.0
C1659 C 0.75953 0.21648 0.69333 0.0
C1660 C 0.74625 0.19028 0.48547 0.0
C1661 C 0.7371 0.17396 0.49925 0.0
C1662 C 0.7576 0.20079 0.5301 0.0
C1663 C 0.75947 0.1949 0.59076 0.0
C1664 C 0.74893 0.17886 0.60814 0.0
C1665 C 0.73793 0.16851 0.56186 0.0
C1666 C 0.76868 0.21777 0.50928 0.0
C1667 C 0.7502 0.17226 0.67328 0.0
H1668 H 0.81232 0.21274 0.64492 0.0
H1669 H 0.78863 0.23343 0.74887 0.0
H1670 H 0.77906 0.18024 0.57889 0.0
H1671 H 0.78508 0.19559 0.51884 0.0
H1672 H 0.79992 0.19352 0.56379 0.0
H1673 H 0.76146 0.22474 0.73443 0.0
H1674 H 0.75595 0.22065 0.64946 0.0
H1675 H 0.74946 0.20454 0.70586 0.0
H1676 H 0.74553 0.19469 0.43761 0.0
H1677 H 0.73072 0.15597 0.57337 0.0
H1678 H 0.78054 0.21928 0.49783 0.0
H1679 H 0.77032 0.22617 0.54924 0.0
H1680 H 0.76426 0.22105 0.46517 0.0
H1681 H 0.76055 0.17034 0.67251 0.0
H1682 H 0.73936 0.16072 0.68437 0.0
H1683 H 0.75216 0.18077 0.71333 0.0
C1684 C 0.77504 0.58223 0.64549 0.0
C1685 C 0.76897 0.57554 0.70687 0.0
C1686 C 0.78653 0.57982 0.61444 0.0
C1687 C 0.79202 0.57039 0.64535 0.0
C1688 C 0.78589 0.56351 0.70716 0.0
C1689 C 0.77446 0.56621 0.73734 0.0
C1690 C 0.79282 0.58741 0.54848 0.0
C1691 C 0.79138 0.55329 0.74118 0.0
C1692 C 0.81082 0.55604 0.52157 0.0
C1693 C 0.82675 0.56828 0.5245 0.0
C1694 C 0.79947 0.55571 0.56491 0.0
C1695 C 0.80422 0.56792 0.61214 0.0
C1696 C 0.82055 0.57923 0.62 0.0
C1697 C 0.83167 0.57923 0.5762 0.0
C1698 C 0.7822 0.54325 0.55572 0.0
C1699 C 0.82612 0.59236 0.67018 0.0
H1700 H 0.77089 0.58947 0.62169 0.0
H1701 H 0.76978 0.56095 0.78475 0.0
H1702 H 0.80592 0.59533 0.55094 0.0
H1703 H 0.79038 0.5781 0.5115 0.0
H1704 H 0.78741 0.59452 0.53142 0.0
H1705 H 0.7854 0.54877 0.78908 0.0
H1706 H 0.78896 0.54299 0.70982 0.0
H1707 H 0.80442 0.5602 0.74928 0.0
H1708 H 0.80696 0.54736 0.48239 0.0
H1709 H 0.84398 0.58863 0.57936 0.0
H1710 H 0.77594 0.54864 0.53028 0.0
H1711 H 0.77626 0.5387 0.60357 0.0
H1712 H 0.78084 0.53306 0.52596 0.0
H1713 H 0.82294 0.6013 0.65352 0.0
H1714 H 0.83921 0.59847 0.6775 0.0
H1715 H 0.82017 0.58765 0.71788 0.0
C1716 C 0.58858 0.10737 0.62431 0.0
C1717 C 0.58977 0.09355 0.62255 0.0
C1718 C 0.58028 0.11041 0.57557 0.0
C1719 C 0.57297 0.09933 0.52415 0.0
C1720 C 0.57547 0.0862 0.51872 0.0
C1721 C 0.58393 0.08351 0.5679 0.0
C1722 C 0.57814 0.12472 0.58242 0.0
C1723 C 0.56795 0.07416 0.46438 0.0
C1724 C 0.53325 0.09304 0.46468 0.0
C1725 C 0.53731 0.10102 0.40451 0.0
C1726 C 0.54479 0.09244 0.50382 0.0
C1727 C 0.56082 0.10009 0.48251 0.0
C1728 C 0.56505 0.10827 0.42207 0.0
C1729 C 0.55322 0.1086 0.3836 0.0
C1730 C 0.53978 0.08352 0.56795 0.0
C1731 C 0.58205 0.11665 0.39811 0.0
H1732 H 0.59328 0.11533 0.6659 0.0
H1733 H 0.58491 0.07287 0.56577 0.0
H1734 H 0.5797 0.13072 0.53458 0.0
H1735 H 0.56588 0.1208 0.59962 0.0
H1736 H 0.58667 0.13349 0.61804 0.0
H1737 H 0.57301 0.06613 0.46119 0.0
H1738 H 0.55497 0.06679 0.47338 0.0
H1739 H 0.56955 0.08016 0.41654 0.0
H1740 H 0.52099 0.08712 0.48113 0.0
H1741 H 0.55646 0.11481 0.33716 0.0
H1742 H 0.54633 0.09168 0.60895 0.0
H1743 H 0.54281 0.0739 0.5682 0.0
H1744 H 0.52681 0.07813 0.57716 0.0
H1745 H 0.58989 0.12567 0.43443 0.0
H1746 H 0.5834 0.12265 0.35031 0.0
H1747 H 0.58628 0.108 0.39291 0.0
C1748 C 0.88782 0.43865 0.41122 0.0
C1749 C 0.89958 0.43488 0.42805 0.0
C1750 C 0.8855 0.44944 0.4488 0.0
C1751 C 0.89513 0.45654 0.50449 0.0
C1752 C 0.90713 0.45292 0.52122 0.0
C1753 C 0.90922 0.44216 0.48277 0.0
C1754 C 0.87265 0.45309 0.42942 0.0
C1755 C 0.91766 0.46025 0.58037 0.0
C1756 C 0.90202 0.49426 0.58754 0.0
C1757 C 0.89342 0.48812 0.6457 0.0
C1758 C 0.90168 0.48406 0.5381 0.0
C1759 C 0.8925 0.4674 0.5472 0.0
C1760 C 0.88258 0.4612 0.60277 0.0
C1761 C 0.88312 0.47165 0.65132 0.0
C1762 C 0.91227 0.49113 0.47907 0.0
C1763 C 0.8725 0.4435 0.61405 0.0
H1764 H 0.88036 0.43313 0.36882 0.0
H1765 H 0.91835 0.43935 0.49606 0.0
H1766 H 0.86355 0.44915 0.46861 0.0
H1767 H 0.87776 0.46611 0.42363 0.0
H1768 H 0.86668 0.44714 0.38303 0.0
H1769 H 0.92662 0.4564 0.5859 0.0
H1770 H 0.924 0.47342 0.57666 0.0
H1771 H 0.91027 0.45691 0.62532 0.0
H1772 H 0.90991 0.50697 0.58248 0.0
H1773 H 0.87626 0.46681 0.69571 0.0
H1774 H 0.90599 0.48484 0.43375 0.0
H1775 H 0.92289 0.48974 0.48432 0.0
H1776 H 0.91637 0.504 0.4735 0.0
H1777 H 0.86601 0.43736 0.56888 0.0
H1778 H 0.86373 0.44066 0.65407 0.0
H1779 H 0.88031 0.43863 0.6274 0.0
C1780 C 0.55106 0.44295 0.41369 0.0
C1781 C 0.55776 0.45893 0.43271 0.0
C1782 C 0.54004 0.43061 0.45392 0.0
C1783 C 0.5356 0.43438 0.51428 0.0
C1784 C 0.5421 0.4505 0.53306 0.0
C1785 C 0.55311 0.46256 0.49216 0.0
C1786 C 0.53339 0.41356 0.43248 0.0
C1787 C 0.53757 0.45503 0.59691 0.0
C1788 C 0.49829 0.40742 0.60956 0.0
C1789 C 0.50469 0.40362 0.66353 0.0
C1790 C 0.50804 0.41646 0.55747 0.0
C1791 C 0.5245 0.42164 0.55934 0.0
C1792 C 0.53067 0.41643 0.61033 0.0
C1793 C 0.52069 0.40749 0.66195 0.0
C1794 C 0.50098 0.42167 0.50374 0.0
C1795 C 0.54812 0.42148 0.61353 0.0
H1796 H 0.55459 0.44004 0.3678 0.0
H1797 H 0.55816 0.47487 0.50706 0.0
H1798 H 0.53712 0.40728 0.46736 0.0
H1799 H 0.52019 0.40725 0.43293 0.0
H1800 H 0.53744 0.41265 0.3827 0.0
H1801 H 0.54335 0.46812 0.60335 0.0
H1802 H 0.52448 0.4499 0.59935 0.0
H1803 H 0.54105 0.45006 0.63847 0.0
H1804 H 0.48592 0.40438 0.61006 0.0
H1805 H 0.52568 0.4044 0.70306 0.0
H1806 H 0.5055 0.42068 0.45519 0.0
H1807 H 0.50456 0.43436 0.51114 0.0
H1808 H 0.48777 0.41456 0.50329 0.0
H1809 H 0.55247 0.42017 0.56509 0.0
H1810 H 0.55052 0.41447 0.65011 0.0
H1811 H 0.55507 0.43423 0.62734 0.0
C1812 C 0.56742 0.78652 0.25469 0.0
C1813 C 0.57559 0.80097 0.28898 0.0
C1814 C 0.56499 0.77224 0.28248 0.0
C1815 C 0.57092 0.77245 0.34587 0.0
C1816 C 0.57924 0.787 0.38052 0.0
C1817 C 0.58145 0.80107 0.3517 0.0
C1818 C 0.55601 0.75695 0.24429 0.0
C1819 C 0.58581 0.78773 0.44826 0.0
C1820 C 0.5556 0.73789 0.46312 0.0
C1821 C 0.56838 0.73498 0.46378 0.0
C1822 C 0.55549 0.74912 0.42024 0.0
C1823 C 0.56847 0.75757 0.37713 0.0
C1824 C 0.58042 0.75332 0.37229 0.0
C1825 C 0.58019 0.74198 0.41553 0.0
C1826 C 0.54234 0.75307 0.42598 0.0
C1827 C 0.59437 0.76192 0.32642 0.0
H1828 H 0.56283 0.78634 0.20616 0.0
H1829 H 0.5878 0.81216 0.37845 0.0
H1830 H 0.56347 0.75133 0.23831 0.0
H1831 H 0.54519 0.7484 0.27158 0.0
H1832 H 0.55239 0.75885 0.19509 0.0
H1833 H 0.59216 0.80002 0.46822 0.0
H1834 H 0.576 0.7801 0.48217 0.0
H1835 H 0.59419 0.78309 0.44726 0.0
H1836 H 0.54627 0.73233 0.4995 0.0
H1837 H 0.59002 0.73967 0.41503 0.0
H1838 H 0.53847 0.75472 0.377 0.0
H1839 H 0.54681 0.76441 0.45317 0.0
H1840 H 0.53186 0.74366 0.45251 0.0
H1841 H 0.5904 0.76365 0.27778 0.0
H1842 H 0.60098 0.7554 0.31998 0.0
H1843 H 0.60269 0.77387 0.34661 0.0
C1844 C 0.25356 0.81586 0.50366 0.0
C1845 C 0.25754 0.83188 0.50047 0.0
C1846 C 0.24432 0.80506 0.45474 0.0
C1847 C 0.23898 0.81041 0.40129 0.0
C1848 C 0.2441 0.8268 0.39491 0.0
C1849 C 0.25336 0.83737 0.4446 0.0
C1850 C 0.23925 0.78769 0.46303 0.0
C1851 C 0.23877 0.83299 0.33828 0.0
C1852 C 0.21875 0.78187 0.2599 0.0
C1853 C 0.20263 0.77528 0.27646 0.0
C1854 C 0.23077 0.79351 0.29946 0.0
C1855 C 0.22653 0.79863 0.3569 0.0
C1856 C 0.21028 0.79216 0.37343 0.0
C1857 C 0.19853 0.78058 0.33301 0.0
C1858 C 0.24797 0.80017 0.28028 0.0
C1859 C 0.20528 0.79733 0.43437 0.0
H1860 H 0.25689 0.81155 0.54631 0.0
H1861 H 0.25644 0.84973 0.4415 0.0
H1862 H 0.22641 0.7809 0.47556 0.0
H1863 H 0.24087 0.78272 0.41675 0.0
H1864 H 0.24602 0.7858 0.50239 0.0
H1865 H 0.24561 0.84619 0.3353 0.0
H1866 H 0.24006 0.82801 0.29137 0.0
H1867 H 0.22598 0.82916 0.3442 0.0
H1868 H 0.22203 0.77788 0.21616 0.0
H1869 H 0.18611 0.77558 0.34613 0.0
H1870 H 0.25426 0.79729 0.31847 0.0
H1871 H 0.254 0.81333 0.27681 0.0
H1872 H 0.24926 0.79538 0.23275 0.0
H1873 H 0.21019 0.79458 0.47827 0.0
H1874 H 0.19214 0.79138 0.4395 0.0
H1875 H 0.21016 0.81039 0.43354 0.0
C1876 C 0.19025 0.43368 0.48098 0.0
C1877 C 0.17522 0.43129 0.46351 0.0
C1878 C 0.19998 0.43198 0.43502 0.0
C1879 C 0.19481 0.42835 0.36937 0.0
C1880 C 0.18018 0.42708 0.35031 0.0
C1881 C 0.17039 0.42828 0.39798 0.0
C1882 C 0.2153 0.43303 0.45781 0.0
C1883 C 0.17458 0.42383 0.28022 0.0
C1884 C 0.22736 0.43359 0.25223 0.0
C1885 C 0.2241 0.41788 0.24538 0.0
C1886 C 0.21735 0.4371 0.28938 0.0
C1887 C 0.2042 0.42467 0.32246 0.0
C1888 C 0.2008 0.40875 0.31508 0.0
C1889 C 0.21065 0.40552 0.27547 0.0
C1890 C 0.221 0.45412 0.29413 0.0
C1891 C 0.18718 0.39521 0.35117 0.0
H1892 H 0.19403 0.43585 0.53166 0.0
H1893 H 0.1588 0.42647 0.38429 0.0
H1894 H 0.21456 0.42134 0.45106 0.0
H1895 H 0.22546 0.44184 0.42814 0.0
H1896 H 0.21784 0.43646 0.51015 0.0
H1897 H 0.16426 0.4256 0.27169 0.0
H1898 H 0.18436 0.43169 0.2466 0.0
H1899 H 0.17097 0.41136 0.26749 0.0
H1900 H 0.23766 0.44311 0.22796 0.0
H1901 H 0.20819 0.39338 0.27006 0.0
H1902 H 0.22495 0.45865 0.34444 0.0
H1903 H 0.21013 0.45483 0.28413 0.0
H1904 H 0.23047 0.46205 0.25939 0.0
H1905 H 0.18899 0.3972 0.4047 0.0
H1906 H 0.18604 0.3835 0.33941 0.0
H1907 H 0.17582 0.39472 0.3389 0.0
C1908 C 0.4464 0.89998 0.60047 0.0
C1909 C 0.46169 0.90555 0.57464 0.0
C1910 C 0.43431 0.89999 0.56262 0.0
C1911 C 0.43769 0.90586 0.4978 0.0
C1912 C 0.45317 0.91171 0.47191 0.0
C1913 C 0.46494 0.91141 0.51051 0.0
C1914 C 0.41791 0.89353 0.59156 0.0
C1915 C 0.45731 0.91824 0.40316 0.0
C1916 C 0.40796 0.89503 0.36073 0.0
C1917 C 0.40768 0.90926 0.35346 0.0
C1918 C 0.41657 0.89314 0.41166 0.0
C1919 C 0.42516 0.90584 0.45587 0.0
C1920 C 0.4236 0.91956 0.45268 0.0
C1921 C 0.41477 0.92106 0.40167 0.0
C1922 C 0.41763 0.87816 0.41433 0.0
C1923 C 0.43253 0.93335 0.49902 0.0
H1924 H 0.44379 0.89539 0.64999 0.0
H1925 H 0.47675 0.91582 0.49035 0.0
H1926 H 0.41419 0.90262 0.58885 0.0
H1927 H 0.40917 0.88311 0.56282 0.0
H1928 H 0.41736 0.88985 0.64339 0.0
H1929 H 0.47001 0.9227 0.39106 0.0
H1930 H 0.44982 0.90884 0.36744 0.0
H1931 H 0.4548 0.92813 0.39692 0.0
H1932 H 0.40231 0.88575 0.32421 0.0
H1933 H 0.41452 0.93206 0.39681 0.0
H1934 H 0.41662 0.87392 0.46544 0.0
H1935 H 0.4294 0.88071 0.39543 0.0
H1936 H 0.40823 0.86847 0.38436 0.0
H1937 H 0.43167 0.9291 0.55001 0.0
H1938 H 0.42802 0.94185 0.49726 0.0
H1939 H 0.44532 0.93983 0.48547 0.0
C1940 C 0.08438 0.56211 0.47277 0.0
C1941 C 0.09129 0.56888 0.53312 0.0
C1942 C 0.08816 0.55167 0.44068 0.0
C1943 C 0.09918 0.54794 0.46951 0.0
C1944 C 0.10646 0.55498 0.52976 0.0
C1945 C 0.10239 0.56534 0.56097 0.0
C1946 C 0.08015 0.54441 0.37631 0.0
C1947 C 0.11837 0.5514 0.56154 0.0
C1948 C 0.09368 0.50885 0.40716 0.0
C1949 C 0.10417 0.51396 0.35379 0.0
C1950 C 0.09274 0.51987 0.44862 0.0
C1951 C 0.10264 0.53634 0.43672 0.0
C1952 C 0.1144 0.54154 0.3873 0.0
C1953 C 0.11504 0.53027 0.3464 0.0
C1954 C 0.08013 0.51383 0.50119 0.0
C1955 C 0.12536 0.559 0.37369 0.0
H1956 H 0.07581 0.56479 0.45086 0.0
H1957 H 0.10785 0.57057 0.60751 0.0
H1958 H 0.08924 0.54731 0.33774 0.0
H1959 H 0.07321 0.53126 0.38078 0.0
H1960 H 0.07201 0.54868 0.36014 0.0
H1961 H 0.12349 0.5584 0.60698 0.0
H1962 H 0.11258 0.53856 0.57377 0.0
H1963 H 0.12821 0.55402 0.52704 0.0
H1964 H 0.08534 0.49628 0.41376 0.0
H1965 H 0.12333 0.53434 0.3058 0.0
H1966 H 0.07037 0.51596 0.48597 0.0
H1967 H 0.08506 0.52033 0.54771 0.0
H1968 H 0.075 0.5009 0.51028 0.0
H1969 H 0.11861 0.56387 0.34823 0.0
H1970 H 0.13555 0.56106 0.34224 0.0
H1971 H 0.13003 0.56575 0.4199 0.0
C1972 C 0.44412 0.55001 0.58437 0.0
C1973 C 0.43793 0.53398 0.567 0.0
C1974 C 0.45542 0.5623 0.54476 0.0
C1975 C 0.46062 0.55845 0.48655 0.0
C1976 C 0.45453 0.5423 0.46914 0.0
C1977 C 0.44327 0.53028 0.50953 0.0
C1978 C 0.46167 0.57938 0.56477 0.0
C1979 C 0.45981 0.53769 0.40742 0.0
C1980 C 0.47713 0.58541 0.33947 0.0
C1981 C 0.49319 0.58952 0.3418 0.0
C1982 C 0.46654 0.57626 0.38917 0.0
C1983 C 0.47217 0.57114 0.44242 0.0
C1984 C 0.48863 0.57651 0.4481 0.0
C1985 C 0.49898 0.5857 0.39771 0.0
C1986 C 0.4491 0.57096 0.38169 0.0
C1987 C 0.49512 0.57141 0.50443 0.0
H1988 H 0.44008 0.55298 0.62877 0.0
H1989 H 0.43858 0.51794 0.49578 0.0
H1990 H 0.47484 0.58571 0.56814 0.0
H1991 H 0.45853 0.58558 0.52707 0.0
H1992 H 0.45678 0.58038 0.61255 0.0
H1993 H 0.45413 0.52459 0.40155 0.0
H1994 H 0.45682 0.54258 0.36412 0.0
H1995 H 0.47291 0.54285 0.40781 0.0
H1996 H 0.47259 0.5885 0.29682 0.0
H1997 H 0.51139 0.5889 0.4002 0.0
H1998 H 0.4441 0.57226 0.42851 0.0
H1999 H 0.44247 0.55817 0.36817 0.0
H2000 H 0.44702 0.5778 0.34323 0.0
H2001 H 0.49006 0.57248 0.55153 0.0
H2002 H 0.50831 0.57855 0.50725 0.0
H2003 H 0.49164 0.55872 0.49818 0.0
C2004 C 0.10514 0.59457 0.88495 0.0
C2005 C 0.09037 0.5937 0.87722 0.0
C2006 C 0.10755 0.58604 0.93471 0.0
C2007 C 0.0948 0.57628 0.97699 0.0
C2008 C 0.08035 0.57651 0.9731 0.0
C2009 C 0.07836 0.58535 0.92351 0.0
C2010 C 0.12327 0.58642 0.93838 0.0
C2011 C 0.06645 0.56625 0.01716 0.0
C2012 C 0.09181 0.53743 0.02911 0.0
C2013 C 0.09657 0.54043 0.09468 0.0
C2014 C 0.09119 0.54904 0.99054 0.0
C2015 C 0.09568 0.56411 0.01794 0.0
C2016 C 0.10073 0.56731 0.08388 0.0
C2017 C 0.10099 0.55537 0.12171 0.0
C2018 C 0.08557 0.54508 0.92054 0.0
C2019 C 0.10583 0.58333 0.11434 0.0
H2020 H 0.11455 0.60118 0.84983 0.0
H2021 H 0.06692 0.58467 0.91812 0.0
H2022 H 0.12721 0.58729 0.9899 0.0
H2023 H 0.12188 0.57521 0.91789 0.0
H2024 H 0.13272 0.59655 0.91031 0.0
H2025 H 0.05698 0.56949 0.01439 0.0
H2026 H 0.06124 0.55361 0.0024 0.0
H2027 H 0.07037 0.56722 0.06873 0.0
H2028 H 0.0883 0.52588 0.00807 0.0
H2029 H 0.10477 0.55778 0.17235 0.0
H2030 H 0.09503 0.55343 0.88681 0.0
H2031 H 0.07503 0.54652 0.91286 0.0
H2032 H 0.08232 0.53274 0.90701 0.0
H2033 H 0.1157 0.59285 0.08562 0.0
H2034 H 0.10981 0.58403 0.1658 0.0
H2035 H 0.09582 0.58578 0.11328 0.0
C2036 C 0.46341 0.54928 0.01195 0.0
C2037 C 0.45968 0.55495 0.06838 0.0
C2038 C 0.4514 0.53793 0.97178 0.0
C2039 C 0.43524 0.53206 0.98843 0.0
C2040 C 0.43136 0.53749 0.04595 0.0
C2041 C 0.44364 0.54889 0.08528 0.0
C2042 C 0.45602 0.5324 0.91081 0.0
C2043 C 0.41427 0.53144 0.06529 0.0
C2044 C 0.40859 0.516 0.84025 0.0
C2045 C 0.40424 0.49988 0.8425 0.0
C2046 C 0.41774 0.52648 0.89025 0.0
C2047 C 0.42256 0.52067 0.94384 0.0
C2048 C 0.41691 0.50415 0.94948 0.0
C2049 C 0.40778 0.49393 0.89869 0.0
C2050 C 0.42337 0.54399 0.88274 0.0
C2051 C 0.42165 0.49746 0.00628 0.0
H2052 H 0.47575 0.55385 0.99863 0.0
H2053 H 0.44065 0.55317 0.12894 0.0
H2054 H 0.45063 0.51928 0.91155 0.0
H2055 H 0.45139 0.53549 0.86692 0.0
H2056 H 0.46912 0.53785 0.9057 0.0
H2057 H 0.41325 0.5362 0.11335 0.0
H2058 H 0.40832 0.53491 0.0277 0.0
H2059 H 0.40771 0.51826 0.06772 0.0
H2060 H 0.40573 0.52068 0.79741 0.0
H2061 H 0.40436 0.48146 0.90117 0.0
H2062 H 0.43622 0.55044 0.87019 0.0
H2063 H 0.42198 0.54903 0.92928 0.0
H2064 H 0.41681 0.54626 0.84361 0.0
H2065 H 0.43427 0.50063 0.00055 0.0
H2066 H 0.41423 0.4843 0.00913 0.0
H2067 H 0.42064 0.50264 0.05316 0.0
C2068 C 0.47405 0.88562 0.82614 0.0
C2069 C 0.49051 0.89613 0.83066 0.0
C2070 C 0.4635 0.8866 0.87018 0.0
C2071 C 0.46959 0.89832 0.91982 0.0
C2072 C 0.48624 0.90769 0.9291 0.0
C2073 C 0.49653 0.90643 0.8845 0.0
C2074 C 0.44583 0.87618 0.85929 0.0
C2075 C 0.49321 0.92023 0.98188 0.0
C2076 C 0.44524 0.91798 0.95846 0.0
C2077 C 0.43828 0.91099 0.01843 0.0
C2078 C 0.45545 0.91392 0.92616 0.0
C2079 C 0.45876 0.90256 0.95442 0.0
C2080 C 0.45175 0.89541 0.01487 0.0
C2081 C 0.4416 0.89973 0.04628 0.0
C2082 C 0.46272 0.92184 0.86166 0.0
C2083 C 0.45494 0.88318 0.04613 0.0
H2084 H 0.4693 0.87744 0.78527 0.0
H2085 H 0.50923 0.91447 0.88892 0.0
H2086 H 0.43947 0.87172 0.90644 0.0
H2087 H 0.44114 0.88327 0.83546 0.0
H2088 H 0.44306 0.86585 0.82738 0.0
H2089 H 0.50606 0.92453 0.98975 0.0
H2090 H 0.49187 0.93052 0.96751 0.0
H2091 H 0.48682 0.91559 0.02882 0.0
H2092 H 0.44275 0.92668 0.93663 0.0
H2093 H 0.43624 0.89424 0.09261 0.0
H2094 H 0.45916 0.91273 0.8227 0.0
H2095 H 0.47589 0.92815 0.86511 0.0
H2096 H 0.45903 0.93052 0.84664 0.0
H2097 H 0.45119 0.87292 0.01264 0.0
H2098 H 0.44858 0.87875 0.09338 0.0
H2099 H 0.46788 0.88836 0.05484 0.0
C2100 C 0.21755 0.44542 0.73501 0.0
C2101 C 0.20142 0.43549 0.75037 0.0
C2102 C 0.22953 0.44506 0.77222 0.0
C2103 C 0.22524 0.43465 0.82637 0.0
C2104 C 0.20897 0.42463 0.84218 0.0
C2105 C 0.19726 0.42512 0.80379 0.0
C2106 C 0.24674 0.45579 0.75361 0.0
C2107 C 0.20394 0.41344 0.89996 0.0
C2108 C 0.25192 0.42078 0.90119 0.0
C2109 C 0.25666 0.42966 0.95926 0.0
C2110 C 0.24249 0.423 0.85509 0.0
C2111 C 0.23766 0.4343 0.86764 0.0
C2112 C 0.24342 0.44413 0.92365 0.0
C2113 C 0.25293 0.44175 0.96864 0.0
C2114 C 0.2368 0.41248 0.79527 0.0
C2115 C 0.23857 0.45635 0.93868 0.0
H2116 H 0.22086 0.45339 0.69347 0.0
H2117 H 0.18482 0.41743 0.81595 0.0
H2118 H 0.25325 0.46399 0.79458 0.0
H2119 H 0.25251 0.44859 0.74433 0.0
H2120 H 0.24807 0.46299 0.70932 0.0
H2121 H 0.1908 0.40646 0.90567 0.0
H2122 H 0.20846 0.40503 0.89424 0.0
H2123 H 0.20917 0.42028 0.94557 0.0
H2124 H 0.25487 0.41151 0.89322 0.0
H2125 H 0.25664 0.44877 0.0131 0.0
H2126 H 0.23821 0.41962 0.75081 0.0
H2127 H 0.22394 0.40369 0.80048 0.0
H2128 H 0.24332 0.40591 0.78803 0.0
H2129 H 0.24018 0.46382 0.89512 0.0
H2130 H 0.24548 0.46423 0.97996 0.0
H2131 H 0.22575 0.4502 0.95173 0.0
C2132 C 0.58092 0.77209 0.85031 0.0
C2133 C 0.57479 0.76606 0.78819 0.0
C2134 C 0.57875 0.78399 0.87884 0.0
C2135 C 0.5702 0.79001 0.84446 0.0
C2136 C 0.56399 0.78402 0.78167 0.0
C2137 C 0.56637 0.77211 0.75419 0.0
C2138 C 0.58562 0.7901 0.94598 0.0
C2139 C 0.55478 0.79014 0.74378 0.0
C2140 C 0.55542 0.80945 0.96285 0.0
C2141 C 0.56824 0.82512 0.96273 0.0
C2142 C 0.55506 0.79806 0.91969 0.0
C2143 C 0.56782 0.8025 0.87547 0.0
C2144 C 0.57973 0.81869 0.86972 0.0
C2145 C 0.57976 0.82986 0.91331 0.0
C2146 C 0.54195 0.78097 0.92646 0.0
C2147 C 0.59343 0.82396 0.82256 0.0
H2148 H 0.58745 0.76751 0.87684 0.0
H2149 H 0.56158 0.76751 0.70609 0.0
H2150 H 0.59396 0.80312 0.94401 0.0
H2151 H 0.57595 0.78802 0.98053 0.0
H2152 H 0.59209 0.78427 0.9658 0.0
H2153 H 0.55095 0.78441 0.69502 0.0
H2154 H 0.54408 0.78793 0.77178 0.0
H2155 H 0.56217 0.80319 0.73686 0.0
H2156 H 0.54629 0.80575 0.00012 0.0
H2157 H 0.58961 0.84199 0.91218 0.0
H2158 H 0.54654 0.77419 0.9536 0.0
H2159 H 0.53789 0.7753 0.87782 0.0
H2160 H 0.53156 0.77996 0.95356 0.0
H2161 H 0.60194 0.8205 0.84218 0.0
H2162 H 0.59991 0.83706 0.81529 0.0
H2163 H 0.58923 0.81807 0.77439 0.0
C2164 C 0.22082 0.78286 0.7607 0.0
C2165 C 0.2262 0.79879 0.77724 0.0
C2166 C 0.2094 0.77036 0.79908 0.0
C2167 C 0.20328 0.7739 0.85536 0.0
C2168 C 0.20847 0.78995 0.87166 0.0
C2169 C 0.21984 0.80219 0.83236 0.0
C2170 C 0.20408 0.75339 0.78006 0.0
C2171 C 0.20221 0.79421 0.93139 0.0
C2172 C 0.16498 0.74512 0.9413 0.0
C2173 C 0.17088 0.7418 0.9982 0.0
C2174 C 0.17534 0.75469 0.89164 0.0
C2175 C 0.19193 0.761 0.89923 0.0
C2176 C 0.19778 0.75648 0.95368 0.0
C2177 C 0.18716 0.74689 0.00245 0.0
C2178 C 0.16864 0.75908 0.83383 0.0
C2179 C 0.21537 0.76285 0.96332 0.0
H2180 H 0.22562 0.78012 0.71798 0.0
H2181 H 0.22388 0.81446 0.84539 0.0
H2182 H 0.20759 0.74769 0.8186 0.0
H2183 H 0.19092 0.74643 0.77607 0.0
H2184 H 0.20931 0.75261 0.73284 0.0
H2185 H 0.20716 0.80725 0.93629 0.0
H2186 H 0.18904 0.78836 0.9291 0.0
H2187 H 0.20526 0.78981 0.97608 0.0
H2188 H 0.1524 0.74116 0.93736 0.0
H2189 H 0.1918 0.74421 0.04588 0.0
H2190 H 0.17427 0.75839 0.78766 0.0
H2191 H 0.17127 0.77153 0.83937 0.0
H2192 H 0.15554 0.75124 0.82965 0.0
H2193 H 0.22089 0.7617 0.91768 0.0
H2194 H 0.21779 0.75661 0.00337 0.0
H2195 H 0.22127 0.7757 0.97559 0.0
C2196 C 0.36668 0.11771 0.9067 0.0
C2197 C 0.37418 0.13411 0.91908 0.0
C2198 C 0.35064 0.10759 0.92323 0.0
C2199 C 0.34192 0.11404 0.95281 0.0
C2200 C 0.34947 0.13055 0.96598 0.0
C2201 C 0.3655 0.14038 0.94895 0.0
C2202 C 0.34298 0.09004 0.90846 0.0
C2203 C 0.34057 0.13788 0.99745 0.0
C2204 C 0.29696 0.09282 0.93807 0.0
C2205 C 0.29212 0.08607 0.00048 0.0
C2206 C 0.31313 0.10159 0.92141 0.0
C2207 C 0.32475 0.10368 0.96823 0.0
C2208 C 0.31996 0.09652 0.03067 0.0
C2209 C 0.30368 0.0878 0.04608 0.0
C2210 C 0.31776 0.10902 0.85427 0.0
C2211 C 0.33203 0.09845 0.08177 0.0
H2212 H 0.37332 0.11276 0.88376 0.0
H2213 H 0.3712 0.15302 0.95893 0.0
H2214 H 0.33791 0.08302 0.95381 0.0
H2215 H 0.333 0.0865 0.87362 0.0
H2216 H 0.35152 0.08683 0.8871 0.0
H2217 H 0.34828 0.15086 0.00586 0.0
H2218 H 0.33045 0.13596 0.96589 0.0
H2219 H 0.33553 0.13203 0.04504 0.0
H2220 H 0.28813 0.09149 0.90234 0.0
H2221 H 0.30005 0.08259 0.09433 0.0
H2222 H 0.32569 0.10542 0.82995 0.0
H2223 H 0.3245 0.12217 0.85878 0.0
H2224 H 0.30726 0.1056 0.8224 0.0
H2225 H 0.34032 0.09477 0.06163 0.0
H2226 H 0.32636 0.09136 0.1265 0.0
H2227 H 0.33927 0.11116 0.09577 0.0
C2228 C 0.88833 0.18757 0.88624 0.0
C2229 C 0.90295 0.19431 0.9192 0.0
C2230 C 0.88231 0.19709 0.86259 0.0
C2231 C 0.89116 0.21377 0.87187 0.0
C2232 C 0.90609 0.22069 0.90391 0.0
C2233 C 0.91179 0.21087 0.92736 0.0
C2234 C 0.86631 0.18926 0.82894 0.0
C2235 C 0.91589 0.23844 0.91443 0.0
C2236 C 0.87985 0.23914 0.76796 0.0
C2237 C 0.87007 0.24162 0.81108 0.0
C2238 C 0.88705 0.23031 0.78735 0.0
C2239 C 0.88435 0.22382 0.85125 0.0
C2240 C 0.8747 0.22652 0.89525 0.0
C2241 C 0.86771 0.23539 0.87469 0.0
C2242 C 0.89732 0.22771 0.73922 0.0
C2243 C 0.87152 0.21979 0.96378 0.0
H2244 H 0.88144 0.1748 0.8795 0.0
H2245 H 0.92315 0.21619 0.95242 0.0
H2246 H 0.85782 0.19135 0.8576 0.0
H2247 H 0.86737 0.19458 0.77988 0.0
H2248 H 0.86124 0.17622 0.82318 0.0
H2249 H 0.92762 0.24203 0.93703 0.0
H2250 H 0.91788 0.24478 0.86716 0.0
H2251 H 0.90935 0.24241 0.94666 0.0
H2252 H 0.88176 0.24393 0.71881 0.0
H2253 H 0.86021 0.23727 0.90853 0.0
H2254 H 0.89197 0.21482 0.72877 0.0
H2255 H 0.90927 0.23181 0.76054 0.0
H2256 H 0.89877 0.23408 0.69234 0.0
H2257 H 0.86535 0.20661 0.96171 0.0
H2258 H 0.86407 0.22334 0.99251 0.0
H2259 H 0.88291 0.22388 0.99013 0.0
C2260 C 0.76252 0.63257 0.8996 0.0
C2261 C 0.75486 0.62809 0.83867 0.0
C2262 C 0.77163 0.64862 0.91743 0.0
C2263 C 0.77311 0.66052 0.87331 0.0
C2264 C 0.76515 0.6561 0.81229 0.0
C2265 C 0.7561 0.63992 0.79567 0.0
C2266 C 0.77991 0.65285 0.983 0.0
C2267 C 0.76645 0.66848 0.76406 0.0
C2268 C 0.78734 0.70185 0.94236 0.0
C2269 C 0.80359 0.70965 0.92673 0.0
C2270 C 0.77721 0.6859 0.92456 0.0
C2271 C 0.78349 0.6776 0.89029 0.0
C2272 C 0.79985 0.68545 0.8739 0.0
C2273 C 0.8097 0.70138 0.89235 0.0
C2274 C 0.75983 0.6779 0.94291 0.0
C2275 C 0.80699 0.677 0.83733 0.0
H2276 H 0.76159 0.62352 0.93333 0.0
H2277 H 0.7502 0.63657 0.74858 0.0
H2278 H 0.79299 0.65983 0.97574 0.0
H2279 H 0.77646 0.66043 0.01112 0.0
H2280 H 0.77707 0.64216 0.01267 0.0
H2281 H 0.75901 0.66308 0.71987 0.0
H2282 H 0.76277 0.67645 0.78752 0.0
H2283 H 0.77902 0.676 0.74852 0.0
H2284 H 0.78252 0.70817 0.96876 0.0
H2285 H 0.82222 0.70733 0.87973 0.0
H2286 H 0.75679 0.66766 0.97568 0.0
H2287 H 0.75233 0.67314 0.89852 0.0
H2288 H 0.75673 0.68613 0.96804 0.0
H2289 H 0.80557 0.66672 0.86641 0.0
H2290 H 0.81985 0.68493 0.82682 0.0
H2291 H 0.80063 0.67225 0.79038 0.0
C2292 C 0.12085 0.37011 0.59 0.0
C2293 C 0.13738 0.37661 0.59491 0.0
C2294 C 0.11097 0.35427 0.57014 0.0
C2295 C 0.11778 0.34469 0.5555 0.0
C2296 C 0.13444 0.35119 0.5605 0.0
C2297 C 0.14403 0.36707 0.57986 0.0
C2298 C 0.09326 0.34778 0.56476 0.0
C2299 C 0.14214 0.34131 0.54584 0.0
C2300 C 0.09275 0.29972 0.56533 0.0
C2301 C 0.09028 0.29545 0.499 0.0
C2302 C 0.10138 0.31573 0.58442 0.0
C2303 C 0.10753 0.32777 0.53605 0.0
C2304 C 0.10462 0.32357 0.46909 0.0
C2305 C 0.0961 0.30744 0.45133 0.0
C2306 C 0.10436 0.31973 0.65629 0.0
C2307 C 0.11083 0.3361 0.41617 0.0
H2308 H 0.11563 0.37744 0.6012 0.0
H2309 H 0.15679 0.37199 0.58356 0.0
H2310 H 0.08916 0.34331 0.51447 0.0
H2311 H 0.08684 0.33756 0.59851 0.0
H2312 H 0.08988 0.35687 0.5765 0.0
H2313 H 0.15527 0.34816 0.55212 0.0
H2314 H 0.1372 0.3308 0.57863 0.0
H2315 H 0.13944 0.33682 0.49488 0.0
H2316 H 0.08831 0.29053 0.60253 0.0
H2317 H 0.09415 0.30423 0.40001 0.0
H2318 H 0.10034 0.3282 0.67016 0.0
H2319 H 0.11732 0.32563 0.66642 0.0
H2320 H 0.09817 0.30901 0.68785 0.0
H2321 H 0.10707 0.34499 0.4258 0.0
H2322 H 0.10658 0.33093 0.36679 0.0
H2323 H 0.12403 0.34255 0.4162 0.0
C2324 C 0.69852 0.80705 0.60389 0.0
C2325 C 0.70741 0.80138 0.57126 0.0
C2326 C 0.68271 0.79671 0.62248 0.0
C2327 C 0.67558 0.78028 0.60807 0.0
C2328 C 0.68451 0.77444 0.5756 0.0
C2329 C 0.70033 0.78507 0.55756 0.0
C2330 C 0.67356 0.80339 0.65699 0.0
C2331 C 0.6773 0.75701 0.5594 0.0
C2332 C 0.63835 0.75249 0.70427 0.0
C2333 C 0.62631 0.75045 0.6607 0.0
C2334 C 0.65448 0.76187 0.68724 0.0
C2335 C 0.65862 0.76936 0.62522 0.0
C2336 C 0.64651 0.76699 0.58042 0.0
C2337 C 0.63052 0.75758 0.59867 0.0
C2338 C 0.66708 0.76411 0.73622 0.0
C2339 C 0.65044 0.77474 0.51375 0.0
H2340 H 0.7039 0.81962 0.61489 0.0
H2341 H 0.70712 0.78058 0.5325 0.0
H2342 H 0.6631 0.8012 0.6272 0.0
H2343 H 0.66901 0.79729 0.70456 0.0
H2344 H 0.68095 0.81638 0.66601 0.0
H2345 H 0.68597 0.7543 0.53562 0.0
H2346 H 0.67278 0.74976 0.60456 0.0
H2347 H 0.66699 0.75325 0.52616 0.0
H2348 H 0.63521 0.74701 0.75221 0.0
H2349 H 0.62131 0.75601 0.56448 0.0
H2350 H 0.67404 0.77681 0.75077 0.0
H2351 H 0.67553 0.76092 0.71387 0.0
H2352 H 0.66192 0.7568 0.78091 0.0
H2353 H 0.65682 0.78787 0.51924 0.0
H2354 H 0.63964 0.7711 0.48351 0.0
H2355 H 0.65848 0.77164 0.4871 0.0
C2356 C 0.1994 0.90711 0.57246 0.0
C2357 C 0.20246 0.91301 0.50821 0.0
C2358 C 0.20618 0.89838 0.59726 0.0
C2359 C 0.21631 0.89549 0.55693 0.0
C2360 C 0.21986 0.90182 0.49276 0.0
C2361 C 0.21288 0.91051 0.46911 0.0
C2362 C 0.2021 0.89184 0.66596 0.0
C2363 C 0.23066 0.89902 0.44843 0.0
C2364 C 0.24245 0.88148 0.6378 0.0
C2365 C 0.23354 0.86499 0.62744 0.0
C2366 C 0.23705 0.8916 0.61478 0.0
C2367 C 0.22242 0.88506 0.5807 0.0
C2368 C 0.21338 0.86844 0.57017 0.0
C2369 C 0.21905 0.85862 0.59364 0.0
C2370 C 0.247 0.90927 0.6269 0.0
C2371 C 0.19768 0.86101 0.53419 0.0
H2372 H 0.19142 0.90904 0.60323 0.0
H2373 H 0.21535 0.91506 0.41952 0.0
H2374 H 0.19545 0.87864 0.66436 0.0
H2375 H 0.21313 0.8955 0.69448 0.0
H2376 H 0.19475 0.8959 0.69222 0.0
H2377 H 0.23304 0.90558 0.40147 0.0
H2378 H 0.24218 0.90273 0.47313 0.0
H2379 H 0.22515 0.88613 0.43756 0.0
H2380 H 0.25368 0.88651 0.66371 0.0
H2381 H 0.2121 0.8459 0.58526 0.0
H2382 H 0.24009 0.91342 0.65577 0.0
H2383 H 0.25007 0.91578 0.5797 0.0
H2384 H 0.25819 0.91249 0.65358 0.0
H2385 H 0.18924 0.86366 0.56024 0.0
H2386 H 0.19217 0.8479 0.52958 0.0
H2387 H 0.19941 0.86619 0.48446 0.0
C2388 C 0.7006 0.91089 0.05524 0.0
C2389 C 0.7082 0.90209 0.06787 0.0
C2390 C 0.68468 0.9051 0.07351 0.0
C2391 C 0.67618 0.89016 0.1051 0.0
C2392 C 0.68382 0.88127 0.11832 0.0
C2393 C 0.69972 0.88734 0.09955 0.0
C2394 C 0.67692 0.91489 0.0586 0.0
C2395 C 0.67514 0.86528 0.15187 0.0
C2396 C 0.63875 0.87907 0.20295 0.0
C2397 C 0.62681 0.86893 0.1593 0.0
C2398 C 0.65489 0.8864 0.18541 0.0
C2399 C 0.65916 0.88352 0.12277 0.0
C2400 C 0.64714 0.87365 0.07792 0.0
C2401 C 0.63113 0.86649 0.09669 0.0
C2402 C 0.66739 0.89689 0.23447 0.0
C2403 C 0.6512 0.87031 0.01062 0.0
H2404 H 0.70708 0.92232 0.03093 0.0
H2405 H 0.70549 0.88048 0.10972 0.0
H2406 H 0.66661 0.90817 0.02552 0.0
H2407 H 0.67229 0.91727 0.10427 0.0
H2408 H 0.68528 0.92644 0.03517 0.0
H2409 H 0.68289 0.86003 0.15982 0.0
H2410 H 0.67052 0.86646 0.19991 0.0
H2411 H 0.66476 0.85689 0.122 0.0
H2412 H 0.63552 0.88106 0.25134 0.0
H2413 H 0.62199 0.85874 0.06244 0.0
H2414 H 0.67551 0.9087 0.21261 0.0
H2415 H 0.67473 0.8915 0.24806 0.0
H2416 H 0.66211 0.89864 0.27969 0.0
H2417 H 0.65893 0.88163 0.98453 0.0
H2418 H 0.64043 0.863 0.98043 0.0
H2419 H 0.65796 0.86391 0.01503 0.0
C2420 C 0.12004 0.75654 0.13526 0.0
C2421 C 0.13617 0.76465 0.11745 0.0
C2422 C 0.10962 0.76158 0.11263 0.0
C2423 C 0.11546 0.77503 0.0711 0.0
C2424 C 0.13168 0.78318 0.05257 0.0
C2425 C 0.14184 0.77791 0.07603 0.0
C2426 C 0.0924 0.75263 0.13359 0.0
C2427 C 0.13835 0.79755 0.00828 0.0
C2428 C 0.08694 0.7818 0.9667 0.0
C2429 C 0.08591 0.79356 0.00265 0.0
C2430 C 0.09631 0.77544 0.98891 0.0
C2431 C 0.10476 0.78093 0.04855 0.0
C2432 C 0.10349 0.79254 0.08569 0.0
C2433 C 0.09411 0.79872 0.06225 0.0
C2434 C 0.09743 0.7631 0.94794 0.0
C2435 C 0.11225 0.79864 0.14969 0.0
H2436 H 0.11556 0.74626 0.16713 0.0
H2437 H 0.15425 0.78421 0.06172 0.0
H2438 H 0.08946 0.76067 0.16116 0.0
H2439 H 0.08454 0.74843 0.08999 0.0
H2440 H 0.08965 0.74221 0.16487 0.0
H2441 H 0.15114 0.80229 0.99704 0.0
H2442 H 0.13161 0.79446 0.96164 0.0
H2443 H 0.137 0.80712 0.03167 0.0
H2444 H 0.08064 0.77775 0.92065 0.0
H2445 H 0.09331 0.80773 0.09064 0.0
H2446 H 0.09406 0.75229 0.97753 0.0
H2447 H 0.1099 0.76779 0.93168 0.0
H2448 H 0.08965 0.75965 0.90406 0.0
H2449 H 0.10917 0.78858 0.18356 0.0
H2450 H 0.10946 0.80719 0.17398 0.0
H2451 H 0.12527 0.80464 0.14106 0.0
C2452 C 0.23587 0.3572 0.20353 0.0
C2453 C 0.24186 0.36946 0.157 0.0
C2454 C 0.22684 0.3412 0.1844 0.0
C2455 C 0.22361 0.3374 0.11721 0.0
C2456 C 0.22997 0.34969 0.06993 0.0
C2457 C 0.23907 0.36555 0.09036 0.0
C2458 C 0.22037 0.32839 0.23617 0.0
C2459 C 0.22672 0.34612 0.99786 0.0
C2460 C 0.20866 0.29498 0.05978 0.0
C2461 C 0.19219 0.28903 0.05628 0.0
C2462 C 0.21905 0.31068 0.08 0.0
C2463 C 0.21283 0.32067 0.09654 0.0
C2464 C 0.19624 0.31475 0.09265 0.0
C2465 C 0.18612 0.29899 0.07283 0.0
C2466 C 0.23667 0.31657 0.084 0.0
C2467 C 0.18915 0.32507 0.10935 0.0
H2468 H 0.23804 0.36011 0.25507 0.0
H2469 H 0.24364 0.37494 0.054 0.0
H2470 H 0.20719 0.32237 0.23681 0.0
H2471 H 0.22364 0.31921 0.22475 0.0
H2472 H 0.22487 0.33321 0.28578 0.0
H2473 H 0.2332 0.35696 0.96715 0.0
H2474 H 0.2302 0.33734 0.98234 0.0
H2475 H 0.21378 0.34075 0.98836 0.0
H2476 H 0.21343 0.28733 0.0474 0.0
H2477 H 0.17342 0.29449 0.07019 0.0
H2478 H 0.24099 0.3206 0.1345 0.0
H2479 H 0.24328 0.32697 0.05128 0.0
H2480 H 0.2396 0.30726 0.07009 0.0
H2481 H 0.19207 0.32928 0.16062 0.0
H2482 H 0.17601 0.31868 0.10345 0.0
H2483 H 0.19438 0.33576 0.07749 0.0
C2484 C 0.86717 0.63262 0.37717 0.0
C2485 C 0.87575 0.62451 0.37533 0.0
C2486 C 0.87431 0.64846 0.39827 0.0
C2487 C 0.89044 0.65641 0.41817 0.0
C2488 C 0.89923 0.64838 0.41595 0.0
C2489 C 0.89179 0.63251 0.39443 0.0
C2490 C 0.86456 0.65665 0.39966 0.0
C2491 C 0.91645 0.65649 0.43689 0.0
C2492 C 0.91156 0.70151 0.4175 0.0
C2493 C 0.9103 0.70488 0.48327 0.0
C2494 C 0.90548 0.68581 0.39594 0.0
C2495 C 0.89802 0.67316 0.44126 0.0
C2496 C 0.89708 0.67648 0.50802 0.0
C2497 C 0.9032 0.69231 0.52822 0.0
C2498 C 0.90666 0.68273 0.32431 0.0
C2499 C 0.88927 0.66329 0.55782 0.0
H2500 H 0.85477 0.62655 0.36248 0.0
H2501 H 0.89849 0.62633 0.39331 0.0
H2502 H 0.86402 0.66048 0.45028 0.0
H2503 H 0.87027 0.66751 0.36883 0.0
H2504 H 0.85221 0.64885 0.3819 0.0
H2505 H 0.92167 0.64863 0.43174 0.0
H2506 H 0.92358 0.66736 0.4072 0.0
H2507 H 0.91753 0.66029 0.4887 0.0
H2508 H 0.91705 0.71114 0.38238 0.0
H2509 H 0.90225 0.69481 0.57915 0.0
H2510 H 0.89455 0.67587 0.303 0.0
H2511 H 0.91246 0.67544 0.31837 0.0
H2512 H 0.9135 0.69392 0.29596 0.0
H2513 H 0.87647 0.65567 0.54591 0.0
H2514 H 0.89031 0.66791 0.60837 0.0
H2515 H 0.89472 0.65561 0.55628 0.0
C2516 C 0.30134 0.20226 0.47166 0.0
C2517 C 0.29301 0.21057 0.46622 0.0
C2518 C 0.31721 0.2091 0.45121 0.0
C2519 C 0.32494 0.22462 0.42435 0.0
C2520 C 0.31671 0.23319 0.41965 0.0
C2521 C 0.30083 0.22608 0.44086 0.0
C2522 C 0.32564 0.19963 0.4575 0.0
C2523 C 0.32457 0.24975 0.39108 0.0
C2524 C 0.37008 0.2462 0.42123 0.0
C2525 C 0.3731 0.24312 0.35733 0.0
C2526 C 0.35447 0.24056 0.44328 0.0
C2527 C 0.34157 0.2317 0.40029 0.0
C2528 C 0.34455 0.22892 0.33521 0.0
C2529 C 0.36028 0.23462 0.31456 0.0
C2530 C 0.35177 0.24369 0.51313 0.0
C2531 C 0.33109 0.2196 0.28782 0.0
H2532 H 0.29541 0.19029 0.49139 0.0
H2533 H 0.29447 0.23256 0.43631 0.0
H2534 H 0.32916 0.19761 0.40839 0.0
H2535 H 0.33669 0.20639 0.4866 0.0
H2536 H 0.31809 0.1879 0.48122 0.0
H2537 H 0.31667 0.25497 0.39239 0.0
H2538 H 0.33564 0.25769 0.41831 0.0
H2539 H 0.32799 0.24945 0.33956 0.0
H2540 H 0.37991 0.25276 0.45466 0.0
H2541 H 0.36251 0.23225 0.26504 0.0
H2542 H 0.34517 0.23225 0.53992 0.0
H2543 H 0.34435 0.24943 0.51441 0.0
H2544 H 0.36309 0.25142 0.53938 0.0
H2545 H 0.32366 0.20721 0.30559 0.0
H2546 H 0.33543 0.21925 0.23793 0.0
H2547 H 0.32329 0.2249 0.28477 0.0
C2548 C 0.8077 0.11517 0.47411 0.0
C2549 C 0.80216 0.09879 0.47752 0.0
C2550 C 0.79804 0.12092 0.44937 0.0
C2551 C 0.78252 0.11003 0.42694 0.0
C2552 C 0.77669 0.09347 0.43189 0.0
C2553 C 0.78656 0.08804 0.45741 0.0
C2554 C 0.80463 0.13867 0.44556 0.0
C2555 C 0.76023 0.08151 0.4082 0.0
C2556 C 0.75436 0.12618 0.40362 0.0
C2557 C 0.75632 0.13003 0.33682 0.0
C2558 C 0.7625 0.11929 0.43343 0.0
C2559 C 0.77275 0.11606 0.3954 0.0
C2560 C 0.77431 0.11937 0.3275 0.0
C2561 C 0.76614 0.12638 0.29909 0.0
C2562 C 0.76059 0.116 0.50602 0.0
C2563 C 0.78502 0.11596 0.28517 0.0
H2564 H 0.8197 0.12355 0.4899 0.0
H2565 H 0.78221 0.07537 0.45971 0.0
H2566 H 0.80561 0.14237 0.39363 0.0
H2567 H 0.79643 0.1419 0.47002 0.0
H2568 H 0.81656 0.14551 0.46861 0.0
H2569 H 0.75713 0.06907 0.419 0.0
H2570 H 0.75121 0.08379 0.43128 0.0
H2571 H 0.75946 0.08276 0.35458 0.0
H2572 H 0.74683 0.129 0.4332 0.0
H2573 H 0.76766 0.12924 0.24739 0.0
H2574 H 0.7721 0.12368 0.53106 0.0
H2575 H 0.75726 0.10347 0.51583 0.0
H2576 H 0.75143 0.11827 0.52785 0.0
H2577 H 0.79756 0.12349 0.30099 0.0
H2578 H 0.78415 0.1183 0.23257 0.0
H2579 H 0.78193 0.10337 0.29085 0.0
C2580 C 0.97622 0.45231 0.31656 0.0
C2581 C 0.96592 0.43582 0.31398 0.0
C2582 C 0.99188 0.45919 0.29338 0.0
C2583 C 0.99732 0.44934 0.26628 0.0
C2584 C 0.9871 0.43264 0.26484 0.0
C2585 C 0.97153 0.42606 0.28906 0.0
C2586 C 0.0025 0.47704 0.29652 0.0
C2587 C 0.99245 0.42178 0.23585 0.0
C2588 C 0.03123 0.46947 0.14475 0.0
C2589 C 0.0444 0.47246 0.18322 0.0
C2590 C 0.01579 0.46154 0.17072 0.0
C2591 C 0.01348 0.45664 0.23698 0.0
C2592 C 0.02669 0.45932 0.27572 0.0
C2593 C 0.04199 0.46712 0.24825 0.0
C2594 C 0.00197 0.45872 0.12765 0.0
C2595 C 0.02471 0.45439 0.34671 0.0
H2596 H 0.97198 0.45991 0.33609 0.0
H2597 H 0.96362 0.41331 0.28665 0.0
H2598 H 0.0138 0.48012 0.32183 0.0
H2599 H 0.00559 0.48197 0.24628 0.0
H2600 H 0.99676 0.48292 0.32244 0.0
H2601 H 0.98332 0.40902 0.24116 0.0
H2602 H 0.99507 0.42447 0.18306 0.0
H2603 H 0.0036 0.42385 0.25967 0.0
H2604 H 0.033 0.47348 0.09438 0.0
H2605 H 0.05213 0.46945 0.27839 0.0
H2606 H 0.99638 0.46545 0.14691 0.0
H2607 H 0.99274 0.44593 0.12809 0.0
H2608 H 0.00566 0.46244 0.07625 0.0
H2609 H 0.02006 0.461 0.37467 0.0
H2610 H 0.03609 0.45671 0.36932 0.0
H2611 H 0.01589 0.44154 0.35151 0.0
C2612 C 0.51961 0.54901 0.24256 0.0
C2613 C 0.52604 0.56447 0.21755 0.0
C2614 C 0.52947 0.54353 0.26745 0.0
C2615 C 0.54617 0.55379 0.26781 0.0
C2616 C 0.55275 0.56942 0.24268 0.0
C2617 C 0.5426 0.57456 0.21757 0.0
C2618 C 0.522 0.52672 0.29329 0.0
C2619 C 0.5705 0.58072 0.24266 0.0
C2620 C 0.56901 0.54242 0.38625 0.0
C2621 C 0.57414 0.53433 0.34504 0.0
C2622 C 0.56036 0.54932 0.36139 0.0
C2623 C 0.55667 0.54799 0.29384 0.0
C2624 C 0.56223 0.54025 0.25171 0.0
C2625 C 0.57094 0.53358 0.27776 0.0
C2626 C 0.55476 0.55762 0.4077 0.0
C2627 C 0.55847 0.53851 0.17946 0.0
H2628 H 0.50683 0.54113 0.24267 0.0
H2629 H 0.54765 0.58656 0.19865 0.0
H2630 H 0.52663 0.52001 0.26594 0.0
H2631 H 0.52525 0.52688 0.34542 0.0
H2632 H 0.50882 0.52023 0.28921 0.0
H2633 H 0.57372 0.59253 0.22189 0.0
H2634 H 0.57517 0.58242 0.29333 0.0
H2635 H 0.57654 0.5756 0.21378 0.0
H2636 H 0.5715 0.54313 0.4382 0.0
H2637 H 0.57488 0.52737 0.24543 0.0
H2638 H 0.54158 0.55092 0.41048 0.0
H2639 H 0.55834 0.56971 0.38931 0.0
H2640 H 0.55961 0.55867 0.45783 0.0
H2641 H 0.54543 0.53106 0.17221 0.0
H2642 H 0.56442 0.53294 0.15278 0.0
H2643 H 0.56222 0.5503 0.15736 0.0
C2644 C 0.42621 0.97851 0.11425 0.0
C2645 C 0.42697 0.96673 0.15121 0.0
C2646 C 0.43519 0.99463 0.13188 0.0
C2647 C 0.44511 0.99904 0.18783 0.0
C2648 C 0.44589 0.9872 0.22537 0.0
C2649 C 0.43683 0.97121 0.20659 0.0
C2650 C 0.4341 0.00696 0.09062 0.0
C2651 C 0.4563 0.99142 0.28544 0.0
C2652 C 0.47986 0.04112 0.20551 0.0
C2653 C 0.4738 0.04777 0.24999 0.0
C2654 C 0.47053 0.02538 0.18377 0.0
C2655 C 0.45478 0.01604 0.20726 0.0
C2656 C 0.44851 0.02274 0.25145 0.0
C2657 C 0.45809 0.03854 0.2722 0.0
C2658 C 0.47762 0.01869 0.1364 0.0
C2659 C 0.43178 0.01312 0.27767 0.0
H2660 H 0.41863 0.97515 0.07141 0.0
H2661 H 0.43748 0.9622 0.23562 0.0
H2662 H 0.42998 0.01367 0.121 0.0
H2663 H 0.44604 0.01567 0.07149 0.0
H2664 H 0.42583 0.00158 0.04866 0.0
H2665 H 0.45546 0.98077 0.30959 0.0
H2666 H 0.4689 0.99961 0.27197 0.0
H2667 H 0.45286 0.99774 0.32128 0.0
H2668 H 0.49194 0.04821 0.18764 0.0
H2669 H 0.45332 0.04361 0.30643 0.0
H2670 H 0.46993 0.01389 0.09252 0.0
H2671 H 0.47823 0.00868 0.15962 0.0
H2672 H 0.48978 0.02775 0.12044 0.0
H2673 H 0.42315 0.00829 0.23666 0.0
H2674 H 0.4285 0.02026 0.30983 0.0
H2675 H 0.43058 0.00283 0.30601 0.0
C2676 C 0.5881 0.02781 0.75853 0.0
C2677 C 0.57955 0.03541 0.7757 0.0
C2678 C 0.58028 0.01216 0.73451 0.0
C2679 C 0.56352 0.00393 0.72771 0.0
C2680 C 0.5548 0.01143 0.74611 0.0
C2681 C 0.56292 0.02707 0.76983 0.0
C2682 C 0.58995 0.00452 0.71543 0.0
C2683 C 0.5369 0.003 0.73988 0.0
C2684 C 0.54298 0.96958 0.60812 0.0
C2685 C 0.53687 0.95641 0.65013 0.0
C2686 C 0.55205 0.98512 0.63254 0.0
C2687 C 0.55503 0.98752 0.70058 0.0
C2688 C 0.54925 0.97426 0.743 0.0
C2689 C 0.54027 0.95887 0.71727 0.0
C2690 C 0.55808 0.99898 0.58576 0.0
C2691 C 0.55217 0.97635 0.81584 0.0
H2692 H 0.60095 0.03417 0.76284 0.0
H2693 H 0.5562 0.03283 0.78308 0.0
H2694 H 0.58575 0.99323 0.74267 0.0
H2695 H 0.58833 0.00153 0.66259 0.0
H2696 H 0.60285 0.01239 0.72523 0.0
H2697 H 0.53186 0.01037 0.7577 0.0
H2698 H 0.53341 -0.00013 0.68795 0.0
H2699 H 0.53144 0.99172 0.76805 0.0
H2700 H 0.54046 0.96779 0.5562 0.0
H2701 H 0.53562 0.94876 0.75015 0.0
H2702 H 0.57113 0.0068 0.59143 0.0
H2703 H 0.55249 0.00625 0.59725 0.0
H2704 H 0.55547 0.99508 0.53394 0.0
H2705 H 0.56509 0.98375 0.82593 0.0
H2706 H 0.54755 0.9648 0.8417 0.0
H2707 H 0.54631 0.98268 0.83653 0.0
C2708 C 0.02181 0.57637 0.63236 0.0
C2709 C 0.03366 0.57603 0.67045 0.0
C2710 C 0.00562 0.56669 0.64796 0.0
C2711 C 0.00122 0.5565 0.70304 0.0
C2712 C 0.01314 0.5562 0.74189 0.0
C2713 C 0.02918 0.56593 0.72508 0.0
C2714 C 0.99322 0.56727 0.6053 0.0
C2715 C 0.00894 0.54554 0.80114 0.0
C2716 C 0.96065 0.54065 0.78228 0.0
C2717 C 0.95245 0.525 0.75859 0.0
C2718 C 0.97643 0.55117 0.76348 0.0
C2719 C 0.98417 0.54591 0.71979 0.0
C2720 C 0.97584 0.53024 0.69462 0.0
C2721 C 0.9601 0.51996 0.71441 0.0
C2722 C 0.98495 0.56779 0.79147 0.0
C2723 C 0.98366 0.52421 0.64776 0.0
H2724 H 0.02516 0.58412 0.5901 0.0
H2725 H 0.03825 0.56562 0.75504 0.0
H2726 H 0.98524 0.55534 0.58415 0.0
H2727 H 0.98572 0.57052 0.63512 0.0
H2728 H 0.9986 0.57597 0.5647 0.0
H2729 H 0.01965 0.54693 0.8269 0.0
H2730 H 0.00184 0.54821 0.83605 0.0
H2731 H 0.00149 0.53291 0.78623 0.0
H2732 H 0.95481 0.54465 0.8163 0.0
H2733 H 0.95383 0.50792 0.69549 0.0
H2734 H 0.98978 0.57669 0.75144 0.0
H2735 H 0.99519 0.56945 0.82153 0.0
H2736 H 0.97704 0.57027 0.82244 0.0
H2737 H 0.98846 0.53225 0.60489 0.0
H2738 H 0.97529 0.51198 0.63007 0.0
H2739 H 0.99384 0.52415 0.67219 0.0
C2740 C 0.44842 0.47774 0.73685 0.0
C2741 C 0.43237 0.47047 0.71845 0.0
C2742 C 0.45483 0.46878 0.76286 0.0
C2743 C 0.44491 0.45217 0.77141 0.0
C2744 C 0.42868 0.44475 0.75305 0.0
C2745 C 0.42262 0.45399 0.72639 0.0
C2746 C 0.47224 0.4771 0.78111 0.0
C2747 C 0.41771 0.4271 0.76205 0.0
C2748 C 0.46546 0.42773 0.78324 0.0
C2749 C 0.46639 0.42627 0.85119 0.0
C2750 C 0.45824 0.43589 0.75662 0.0
C2751 C 0.45163 0.4426 0.79891 0.0
C2752 C 0.45209 0.44076 0.86745 0.0
C2753 C 0.45955 0.43268 0.89282 0.0
C2754 C 0.45811 0.43771 0.68329 0.0
C2755 C 0.44501 0.44761 0.91402 0.0
H2756 H 0.45603 0.49047 0.73072 0.0
H2757 H 0.41017 0.44831 0.71272 0.0
H2758 H 0.47355 0.47539 0.83393 0.0
H2759 H 0.47834 0.47182 0.75365 0.0
H2760 H 0.47837 0.49006 0.77074 0.0
H2761 H 0.40536 0.42318 0.74597 0.0
H2762 H 0.42221 0.42039 0.73386 0.0
H2763 H 0.41746 0.42389 0.81431 0.0
H2764 H 0.47073 0.42284 0.75062 0.0
H2765 H 0.46015 0.43154 0.94533 0.0
H2766 H 0.46505 0.4505 0.67006 0.0
H2767 H 0.44576 0.43317 0.66572 0.0
H2768 H 0.46325 0.4313 0.6571 0.0
H2769 H 0.45154 0.46077 0.91009 0.0
H2770 H 0.44548 0.44432 0.96567 0.0
H2771 H 0.43242 0.4434 0.90085 0.0
loop_
_geom_bond_atom_site_label_1
_geom_bond_atom_site_label_2
_geom_bond_distance
_geom_bond_site_symmetry_2
_ccdc_geom_bond_type
C0 O1 1.160 . S
C0 O7 1.185 . S
O1 C0 1.160 . S
O2 Zn3 1.899 . S
O2 C10 1.284 . S
Zn3 O2 1.899 . S
Zn3 O4 2.032 . S
Zn3 O7 2.086 . S
Zn3 O12 1.977 1_554 S
O4 Zn3 2.032 . S
O4 C8 1.278 . S
C5 O6 1.203 . S
C5 O12 1.267 . S
O6 C5 1.203 . S
O7 C0 1.185 . S
O7 Zn3 2.086 . S
C8 O4 1.278 . S
C8 O9 1.211 . S
O9 C8 1.211 . S
C10 O2 1.284 . S
C10 O11 1.273 . S
O11 C10 1.273 . S
O12 Zn3 1.977 1_556 S
O12 C5 1.267 . S
C13 O14 1.160 . S
C13 O20 1.185 . S
O14 C13 1.160 . S
O15 Zn16 1.899 . S
O15 C23 1.284 . S
Zn16 O15 1.899 . S
Zn16 O17 2.032 . S
Zn16 O20 2.086 . S
Zn16 O25 1.977 1_554 S
O17 Zn16 2.032 . S
O17 C21 1.278 . S
C18 O19 1.203 . S
C18 O25 1.267 . S
O19 C18 1.203 . S
O20 C13 1.185 . S
O20 Zn16 2.086 . S
C21 O17 1.278 . S
C21 O22 1.211 . S
O22 C21 1.211 . S
C23 O15 1.284 . S
C23 O24 1.273 . S
O24 C23 1.273 . S
O25 Zn16 1.977 1_556 S
O25 C18 1.267 . S
C26 O27 1.160 . S
C26 O33 1.185 . S
O27 C26 1.160 . S
O28 Zn29 1.899 . S
O28 C36 1.284 . S
Zn29 O28 1.899 . S
Zn29 O30 2.032 . S
Zn29 O33 2.086 . S
Zn29 O38 1.977 1_554 S
O30 Zn29 2.032 . S
O30 C34 1.278 . S
C31 O32 1.203 . S
C31 O38 1.267 . S
O32 C31 1.203 . S
O33 C26 1.185 . S
O33 Zn29 2.086 . S
C34 O30 1.278 . S
C34 O35 1.211 . S
O35 C34 1.211 . S
C36 O28 1.284 . S
C36 O37 1.273 . S
O37 C36 1.273 . S
O38 Zn29 1.977 1_556 S
O38 C31 1.267 . S
C39 O40 1.160 . S
C39 O46 1.185 . S
O40 C39 1.160 . S
O41 Zn42 1.899 . S
O41 C49 1.284 . S
Zn42 O41 1.899 . S
Zn42 O43 2.032 . S
Zn42 O46 2.086 . S
Zn42 O51 1.977 . S
O43 Zn42 2.032 . S
O43 C47 1.278 . S
C44 O45 1.203 . S
C44 O51 1.267 . S
O45 C44 1.203 . S
O46 C39 1.185 . S
O46 Zn42 2.086 . S
C47 O43 1.278 . S
C47 O48 1.211 . S
O48 C47 1.211 . S
C49 O41 1.284 . S
C49 O50 1.273 . S
O50 C49 1.273 . S
O51 Zn42 1.977 . S
O51 C44 1.267 . S
C52 O53 1.160 . S
C52 O59 1.185 . S
O53 C52 1.160 . S
O54 Zn55 1.899 . S
O54 C62 1.284 . S
Zn55 O54 1.899 . S
Zn55 O56 2.032 . S
Zn55 O59 2.086 . S
Zn55 O64 1.977 . S
O56 Zn55 2.032 . S
O56 C60 1.278 . S
C57 O58 1.203 . S
C57 O64 1.267 . S
O58 C57 1.203 . S
O59 C52 1.185 . S
O59 Zn55 2.086 . S
C60 O56 1.278 . S
C60 O61 1.211 . S
O61 C60 1.211 . S
C62 O54 1.284 . S
C62 O63 1.273 . S
O63 C62 1.273 . S
O64 Zn55 1.977 . S
O64 C57 1.267 . S
C65 O66 1.160 . S
C65 O72 1.185 . S
O66 C65 1.160 . S
O67 Zn68 1.899 . S
O67 C75 1.284 . S
Zn68 O67 1.899 . S
Zn68 O69 2.032 . S
Zn68 O72 2.086 . S
Zn68 O77 1.977 . S
O69 Zn68 2.032 . S
O69 C73 1.278 . S
C70 O71 1.203 . S
C70 O77 1.267 . S
O71 C70 1.203 . S
O72 C65 1.185 . S
O72 Zn68 2.086 . S
C73 O69 1.278 . S
C73 O74 1.211 . S
O74 C73 1.211 . S
C75 O67 1.284 . S
C75 O76 1.273 . S
O76 C75 1.273 . S
O77 Zn68 1.977 . S
O77 C70 1.267 . S
C78 O79 1.160 . S
C78 O85 1.185 . S
O79 C78 1.160 . S
O80 Zn81 1.899 . S
O80 C88 1.284 . S
Zn81 O80 1.899 . S
Zn81 O82 2.032 . S
Zn81 O85 2.086 . S
Zn81 O90 1.977 1_556 S
O82 Zn81 2.032 . S
O82 C86 1.278 . S
C83 O84 1.203 . S
C83 O90 1.267 . S
O84 C83 1.203 . S
O85 C78 1.185 . S
O85 Zn81 2.086 . S
C86 O82 1.278 . S
C86 O87 1.211 . S
O87 C86 1.211 . S
C88 O80 1.284 . S
C88 O89 1.273 . S
O89 C88 1.273 . S
O90 Zn81 1.977 1_554 S
O90 C83 1.267 . S
C91 O92 1.160 . S
C91 O98 1.185 . S
O92 C91 1.160 . S
O93 Zn94 1.899 . S
O93 C101 1.284 . S
Zn94 O93 1.899 . S
Zn94 O95 2.032 . S
Zn94 O98 2.086 . S
Zn94 O103 1.977 1_556 S
O95 Zn94 2.032 . S
O95 C99 1.278 . S
C96 O97 1.203 . S
C96 O103 1.267 . S
O97 C96 1.203 . S
O98 C91 1.185 . S
O98 Zn94 2.086 . S
C99 O95 1.278 . S
C99 O100 1.211 . S
O100 C99 1.211 . S
C101 O93 1.284 . S
C101 O102 1.273 . S
O102 C101 1.273 . S
O103 Zn94 1.977 1_554 S
O103 C96 1.267 . S
C104 O105 1.160 . S
C104 O111 1.185 . S
O105 C104 1.160 . S
O106 Zn107 1.899 . S
O106 C114 1.284 . S
Zn107 O106 1.899 . S
Zn107 O108 2.032 . S
Zn107 O111 2.086 . S
Zn107 O116 1.977 1_556 S
O108 Zn107 2.032 . S
O108 C112 1.278 . S
C109 O110 1.203 . S
C109 O116 1.267 . S
O110 C109 1.203 . S
O111 C104 1.185 . S
O111 Zn107 2.086 . S
C112 O108 1.278 . S
C112 O113 1.211 . S
O113 C112 1.211 . S
C114 O106 1.284 . S
C114 O115 1.273 . S
O115 C114 1.273 . S
O116 Zn107 1.977 1_554 S
O116 C109 1.267 . S
C117 O118 1.160 . S
C117 O124 1.185 . S
O118 C117 1.160 . S
O119 Zn120 1.899 . S
O119 C127 1.284 . S
Zn120 O119 1.899 . S
Zn120 O121 2.032 . S
Zn120 O124 2.086 . S
Zn120 O129 1.977 . S
O121 Zn120 2.032 . S
O121 C125 1.278 . S
C122 O123 1.203 . S
C122 O129 1.267 . S
O123 C122 1.203 . S
O124 C117 1.185 . S
O124 Zn120 2.086 . S
C125 O121 1.278 . S
C125 O126 1.211 . S
O126 C125 1.211 . S
C127 O119 1.284 . S
C127 O128 1.273 . S
O128 C127 1.273 . S
O129 Zn120 1.977 . S
O129 C122 1.267 . S
C130 O131 1.160 . S
C130 O137 1.185 . S
O131 C130 1.160 . S
O132 Zn133 1.899 . S
O132 C140 1.284 . S
Zn133 O132 1.899 . S
Zn133 O134 2.032 . S
Zn133 O137 2.086 . S
Zn133 O142 1.977 . S
O134 Zn133 2.032 . S
O134 C138 1.278 . S
C135 O136 1.203 . S
C135 O142 1.267 . S
O136 C135 1.203 . S
O137 C130 1.185 . S
O137 Zn133 2.086 . S
C138 O134 1.278 . S
C138 O139 1.211 . S
O139 C138 1.211 . S
C140 O132 1.284 . S
C140 O141 1.273 . S
O141 C140 1.273 . S
O142 Zn133 1.977 . S
O142 C135 1.267 . S
C143 O144 1.160 . S
C143 O150 1.185 . S
O144 C143 1.160 . S
O145 Zn146 1.899 . S
O145 C153 1.284 . S
Zn146 O145 1.899 . S
Zn146 O147 2.032 . S
Zn146 O150 2.086 . S
Zn146 O155 1.977 . S
O147 Zn146 2.032 . S
O147 C151 1.278 . S
C148 O149 1.203 . S
C148 O155 1.267 . S
O149 C148 1.203 . S
O150 C143 1.185 . S
O150 Zn146 2.086 . S
C151 O147 1.278 . S
C151 O152 1.211 . S
O152 C151 1.211 . S
C153 O145 1.284 . S
C153 O154 1.273 . S
O154 C153 1.273 . S
O155 Zn146 1.977 . S
O155 C148 1.267 . S
C156 O157 1.160 . S
C156 O163 1.185 . S
O157 C156 1.160 . S
O158 Zn159 1.899 . S
O158 C166 1.284 . S
Zn159 O158 1.899 . S
Zn159 O160 2.032 . S
Zn159 O163 2.086 . S
Zn159 O168 1.977 . S
O160 Zn159 2.032 . S
O160 C164 1.278 . S
C161 O162 1.203 . S
C161 O168 1.267 . S
O162 C161 1.203 . S
O163 C156 1.185 . S
O163 Zn159 2.086 . S
C164 O160 1.278 . S
C164 O165 1.211 . S
O165 C164 1.211 . S
C166 O158 1.284 . S
C166 O167 1.273 . S
O167 C166 1.273 . S
O168 Zn159 1.977 . S
O168 C161 1.267 . S
C169 O170 1.160 . S
C169 O176 1.185 . S
O170 C169 1.160 . S
O171 Zn172 1.899 . S
O171 C179 1.284 . S
Zn172 O171 1.899 . S
Zn172 O173 2.032 . S
Zn172 O176 2.086 . S
Zn172 O181 1.977 . S
O173 Zn172 2.032 . S
O173 C177 1.278 . S
C174 O175 1.203 . S
C174 O181 1.267 . S
O175 C174 1.203 . S
O176 C169 1.185 . S
O176 Zn172 2.086 . S
C177 O173 1.278 . S
C177 O178 1.211 . S
O178 C177 1.211 . S
C179 O171 1.284 . S
C179 O180 1.273 . S
O180 C179 1.273 . S
O181 Zn172 1.977 . S
O181 C174 1.267 . S
C182 O183 1.160 . S
C182 O189 1.185 . S
O183 C182 1.160 . S
O184 Zn185 1.899 . S
O184 C192 1.284 . S
Zn185 O184 1.899 . S
Zn185 O186 2.032 . S
Zn185 O189 2.086 . S
Zn185 O194 1.977 . S
O186 Zn185 2.032 . S
O186 C190 1.278 . S
C187 O188 1.203 . S
C187 O194 1.267 . S
O188 C187 1.203 . S
O189 C182 1.185 . S
O189 Zn185 2.086 . S
C190 O186 1.278 . S
C190 O191 1.211 . S
O191 C190 1.211 . S
C192 O184 1.284 . S
C192 O193 1.273 . S
O193 C192 1.273 . S
O194 Zn185 1.977 . S
O194 C187 1.267 . S
C195 O196 1.160 . S
C195 O202 1.185 . S
O196 C195 1.160 . S
O197 Zn198 1.899 . S
O197 C205 1.284 . S
Zn198 O197 1.899 . S
Zn198 O199 2.032 . S
Zn198 O202 2.086 . S
Zn198 O207 1.977 . S
O199 Zn198 2.032 . S
O199 C203 1.278 . S
C200 O201 1.203 . S
C200 O207 1.267 . S
O201 C200 1.203 . S
O202 C195 1.185 . S
O202 Zn198 2.086 . S
C203 O199 1.278 . S
C203 O204 1.211 . S
O204 C203 1.211 . S
C205 O197 1.284 . S
C205 O206 1.273 . S
O206 C205 1.273 . S
O207 Zn198 1.977 . S
O207 C200 1.267 . S
C208 O209 1.160 . S
C208 O215 1.185 . S
O209 C208 1.160 . S
O210 Zn211 1.899 . S
O210 C218 1.284 . S
Zn211 O210 1.899 . S
Zn211 O212 2.032 . S
Zn211 O215 2.086 . S
Zn211 O220 1.977 . S
O212 Zn211 2.032 . S
O212 C216 1.278 . S
C213 O214 1.203 . S
C213 O220 1.267 . S
O214 C213 1.203 . S
O215 C208 1.185 . S
O215 Zn211 2.086 . S
C216 O212 1.278 . S
C216 O217 1.211 . S
O217 C216 1.211 . S
C218 O210 1.284 . S
C218 O219 1.273 . S
O219 C218 1.273 . S
O220 Zn211 1.977 . S
O220 C213 1.267 . S
C221 O222 1.160 . S
C221 O228 1.185 . S
O222 C221 1.160 . S
O223 Zn224 1.899 . S
O223 C231 1.284 . S
Zn224 O223 1.899 . S
Zn224 O225 2.032 . S
Zn224 O228 2.086 . S
Zn224 O233 1.977 . S
O225 Zn224 2.032 . S
O225 C229 1.278 . S
C226 O227 1.203 . S
C226 O233 1.267 . S
O227 C226 1.203 . S
O228 C221 1.185 . S
O228 Zn224 2.086 . S
C229 O225 1.278 . S
C229 O230 1.211 . S
O230 C229 1.211 . S
C231 O223 1.284 . S
C231 O232 1.273 . S
O232 C231 1.273 . S
O233 Zn224 1.977 . S
O233 C226 1.267 . S
C234 O235 1.160 . S
C234 O241 1.185 . S
O235 C234 1.160 . S
O236 Zn237 1.899 . S
O236 C244 1.284 . S
Zn237 O236 1.899 . S
Zn237 O238 2.032 . S
Zn237 O241 2.086 . S
Zn237 O246 1.977 . S
O238 Zn237 2.032 . S
O238 C242 1.278 . S
C239 O240 1.203 . S
C239 O246 1.267 . S
O240 C239 1.203 . S
O241 C234 1.185 . S
O241 Zn237 2.086 . S
C242 O238 1.278 . S
C242 O243 1.211 . S
O243 C242 1.211 . S
C244 O236 1.284 . S
C244 O245 1.273 . S
O245 C244 1.273 . S
O246 Zn237 1.977 . S
O246 C239 1.267 . S
C247 O248 1.160 . S
C247 O254 1.185 . S
O248 C247 1.160 . S
O249 Zn250 1.899 . S
O249 C257 1.284 . S
Zn250 O249 1.899 . S
Zn250 O251 2.032 . S
Zn250 O254 2.086 . S
Zn250 O259 1.977 . S
O251 Zn250 2.032 . S
O251 C255 1.278 . S
C252 O253 1.203 . S
C252 O259 1.267 . S
O253 C252 1.203 . S
O254 C247 1.185 . S
O254 Zn250 2.086 . S
C255 O251 1.278 . S
C255 O256 1.211 . S
O256 C255 1.211 . S
C257 O249 1.284 . S
C257 O258 1.273 . S
O258 C257 1.273 . S
O259 Zn250 1.977 . S
O259 C252 1.267 . S
C260 O261 1.160 . S
C260 O267 1.185 . S
O261 C260 1.160 . S
O262 Zn263 1.899 . S
O262 C270 1.284 . S
Zn263 O262 1.899 . S
Zn263 O264 2.032 . S
Zn263 O267 2.086 . S
Zn263 O272 1.977 . S
O264 Zn263 2.032 . S
O264 C268 1.278 . S
C265 O266 1.203 . S
C265 O272 1.267 . S
O266 C265 1.203 . S
O267 C260 1.185 . S
O267 Zn263 2.086 . S
C268 O264 1.278 . S
C268 O269 1.211 . S
O269 C268 1.211 . S
C270 O262 1.284 . S
C270 O271 1.273 . S
O271 C270 1.273 . S
O272 Zn263 1.977 . S
O272 C265 1.267 . S
C273 O274 1.160 . S
C273 O280 1.185 . S
O274 C273 1.160 . S
O275 Zn276 1.899 . S
O275 C283 1.284 . S
Zn276 O275 1.899 . S
Zn276 O277 2.032 . S
Zn276 O280 2.086 . S
Zn276 O285 1.977 . S
O277 Zn276 2.032 . S
O277 C281 1.278 . S
C278 O279 1.203 . S
C278 O285 1.267 . S
O279 C278 1.203 . S
O280 C273 1.185 . S
O280 Zn276 2.086 . S
C281 O277 1.278 . S
C281 O282 1.211 . S
O282 C281 1.211 . S
C283 O275 1.284 . S
C283 O284 1.273 . S
O284 C283 1.273 . S
O285 Zn276 1.977 . S
O285 C278 1.267 . S
C286 O287 1.160 . S
C286 O293 1.185 . S
O287 C286 1.160 . S
O288 Zn289 1.899 . S
O288 C296 1.284 . S
Zn289 O288 1.899 . S
Zn289 O290 2.032 . S
Zn289 O293 2.086 . S
Zn289 O298 1.977 . S
O290 Zn289 2.032 . S
O290 C294 1.278 . S
C291 O292 1.203 . S
C291 O298 1.267 . S
O292 C291 1.203 . S
O293 C286 1.185 . S
O293 Zn289 2.086 . S
C294 O290 1.278 . S
C294 O295 1.211 . S
O295 C294 1.211 . S
C296 O288 1.284 . S
C296 O297 1.273 . S
O297 C296 1.273 . S
O298 Zn289 1.977 . S
O298 C291 1.267 . S
C299 O300 1.160 . S
C299 O306 1.185 . S
O300 C299 1.160 . S
O301 Zn302 1.899 . S
O301 C309 1.284 . S
Zn302 O301 1.899 . S
Zn302 O303 2.032 . S
Zn302 O306 2.086 . S
Zn302 O311 1.977 . S
O303 Zn302 2.032 . S
O303 C307 1.278 . S
C304 O305 1.203 . S
C304 O311 1.267 . S
O305 C304 1.203 . S
O306 C299 1.185 . S
O306 Zn302 2.086 . S
C307 O303 1.278 . S
C307 O308 1.211 . S
O308 C307 1.211 . S
C309 O301 1.284 . S
C309 O310 1.273 . S
O310 C309 1.273 . S
O311 Zn302 1.977 . S
O311 C304 1.267 . S
C312 O313 1.160 . S
C312 O319 1.185 . S
O313 C312 1.160 . S
O314 Zn315 1.899 . S
O314 C322 1.284 . S
Zn315 O314 1.899 . S
Zn315 O316 2.032 . S
Zn315 O319 2.086 . S
Zn315 O324 1.977 . S
O316 Zn315 2.032 . S
O316 C320 1.278 . S
C317 O318 1.203 . S
C317 O324 1.267 . S
O318 C317 1.203 . S
O319 C312 1.185 . S
O319 Zn315 2.086 . S
C320 O316 1.278 . S
C320 O321 1.211 . S
O321 C320 1.211 . S
C322 O314 1.284 . S
C322 O323 1.273 . S
O323 C322 1.273 . S
O324 Zn315 1.977 . S
O324 C317 1.267 . S
C325 O326 1.160 . S
C325 O332 1.185 . S
O326 C325 1.160 . S
O327 Zn328 1.899 . S
O327 C335 1.284 . S
Zn328 O327 1.899 . S
Zn328 O329 2.032 . S
Zn328 O332 2.086 . S
Zn328 O337 1.977 . S
O329 Zn328 2.032 . S
O329 C333 1.278 . S
C330 O331 1.203 . S
C330 O337 1.267 . S
O331 C330 1.203 . S
O332 C325 1.185 . S
O332 Zn328 2.086 . S
C333 O329 1.278 . S
C333 O334 1.211 . S
O334 C333 1.211 . S
C335 O327 1.284 . S
C335 O336 1.273 . S
O336 C335 1.273 . S
O337 Zn328 1.977 . S
O337 C330 1.267 . S
C338 O339 1.160 . S
C338 O345 1.185 . S
O339 C338 1.160 . S
O340 Zn341 1.899 . S
O340 C348 1.284 . S
Zn341 O340 1.899 . S
Zn341 O342 2.032 . S
Zn341 O345 2.086 . S
Zn341 O350 1.977 . S
O342 Zn341 2.032 . S
O342 C346 1.278 . S
C343 O344 1.203 . S
C343 O350 1.267 . S
O344 C343 1.203 . S
O345 C338 1.185 . S
O345 Zn341 2.086 . S
C346 O342 1.278 . S
C346 O347 1.211 . S
O347 C346 1.211 . S
C348 O340 1.284 . S
C348 O349 1.273 . S
O349 C348 1.273 . S
O350 Zn341 1.977 . S
O350 C343 1.267 . S
C351 O352 1.160 . S
C351 O358 1.185 . S
O352 C351 1.160 . S
O353 Zn354 1.899 . S
O353 C361 1.284 . S
Zn354 O353 1.899 . S
Zn354 O355 2.032 . S
Zn354 O358 2.086 . S
Zn354 O363 1.977 . S
O355 Zn354 2.032 . S
O355 C359 1.278 . S
C356 O357 1.203 . S
C356 O363 1.267 . S
O357 C356 1.203 . S
O358 C351 1.185 . S
O358 Zn354 2.086 . S
C359 O355 1.278 . S
C359 O360 1.211 . S
O360 C359 1.211 . S
C361 O353 1.284 . S
C361 O362 1.273 . S
O362 C361 1.273 . S
O363 Zn354 1.977 . S
O363 C356 1.267 . S
C364 O365 1.160 . S
C364 O371 1.185 . S
O365 C364 1.160 . S
O366 Zn367 1.899 . S
O366 C374 1.284 . S
Zn367 O366 1.899 . S
Zn367 O368 2.032 . S
Zn367 O371 2.086 . S
Zn367 O376 1.977 . S
O368 Zn367 2.032 . S
O368 C372 1.278 . S
C369 O370 1.203 . S
C369 O376 1.267 . S
O370 C369 1.203 . S
O371 C364 1.185 . S
O371 Zn367 2.086 . S
C372 O368 1.278 . S
C372 O373 1.211 . S
O373 C372 1.211 . S
C374 O366 1.284 . S
C374 O375 1.273 . S
O375 C374 1.273 . S
O376 Zn367 1.977 . S
O376 C369 1.267 . S
C377 O378 1.160 . S
C377 O384 1.185 . S
O378 C377 1.160 . S
O379 Zn380 1.899 . S
O379 C387 1.284 . S
Zn380 O379 1.899 . S
Zn380 O381 2.032 . S
Zn380 O384 2.086 . S
Zn380 O389 1.977 . S
O381 Zn380 2.032 . S
O381 C385 1.278 . S
C382 O383 1.203 . S
C382 O389 1.267 . S
O383 C382 1.203 . S
O384 C377 1.185 . S
O384 Zn380 2.086 . S
C385 O381 1.278 . S
C385 O386 1.211 . S
O386 C385 1.211 . S
C387 O379 1.284 . S
C387 O388 1.273 . S
O388 C387 1.273 . S
O389 Zn380 1.977 . S
O389 C382 1.267 . S
C390 O391 1.160 . S
C390 O397 1.185 . S
O391 C390 1.160 . S
O392 Zn393 1.899 . S
O392 C400 1.284 . S
Zn393 O392 1.899 . S
Zn393 O394 2.032 . S
Zn393 O397 2.086 . S
Zn393 O402 1.977 . S
O394 Zn393 2.032 . S
O394 C398 1.278 . S
C395 O396 1.203 . S
C395 O402 1.267 . S
O396 C395 1.203 . S
O397 C390 1.185 . S
O397 Zn393 2.086 . S
C398 O394 1.278 . S
C398 O399 1.211 . S
O399 C398 1.211 . S
C400 O392 1.284 . S
C400 O401 1.273 . S
O401 C400 1.273 . S
O402 Zn393 1.977 . S
O402 C395 1.267 . S
C403 O404 1.160 . S
C403 O410 1.185 . S
O404 C403 1.160 . S
O405 Zn406 1.899 . S
O405 C413 1.284 . S
Zn406 O405 1.899 . S
Zn406 O407 2.032 . S
Zn406 O410 2.086 . S
Zn406 O415 1.977 . S
O407 Zn406 2.032 . S
O407 C411 1.278 . S
C408 O409 1.203 . S
C408 O415 1.267 . S
O409 C408 1.203 . S
O410 C403 1.185 . S
O410 Zn406 2.086 . S
C411 O407 1.278 . S
C411 O412 1.211 . S
O412 C411 1.211 . S
C413 O405 1.284 . S
C413 O414 1.273 . S
O414 C413 1.273 . S
O415 Zn406 1.977 . S
O415 C408 1.267 . S
C416 O417 1.160 . S
C416 O423 1.185 . S
O417 C416 1.160 . S
O418 Zn419 1.899 . S
O418 C426 1.284 . S
Zn419 O418 1.899 . S
Zn419 O420 2.032 . S
Zn419 O423 2.086 . S
Zn419 O428 1.977 . S
O420 Zn419 2.032 . S
O420 C424 1.278 . S
C421 O422 1.203 . S
C421 O428 1.267 . S
O422 C421 1.203 . S
O423 C416 1.185 . S
O423 Zn419 2.086 . S
C424 O420 1.278 . S
C424 O425 1.211 . S
O425 C424 1.211 . S
C426 O418 1.284 . S
C426 O427 1.273 . S
O427 C426 1.273 . S
O428 Zn419 1.977 . S
O428 C421 1.267 . S
C429 O430 1.160 . S
C429 O436 1.185 . S
O430 C429 1.160 . S
O431 Zn432 1.899 . S
O431 C439 1.284 . S
Zn432 O431 1.899 . S
Zn432 O433 2.032 . S
Zn432 O436 2.086 . S
Zn432 O441 1.977 . S
O433 Zn432 2.032 . S
O433 C437 1.278 . S
C434 O435 1.203 . S
C434 O441 1.267 . S
O435 C434 1.203 . S
O436 C429 1.185 . S
O436 Zn432 2.086 . S
C437 O433 1.278 . S
C437 O438 1.211 . S
O438 C437 1.211 . S
C439 O431 1.284 . S
C439 O440 1.273 . S
O440 C439 1.273 . S
O441 Zn432 1.977 . S
O441 C434 1.267 . S
C442 O443 1.160 . S
C442 O449 1.185 . S
O443 C442 1.160 . S
O444 Zn445 1.899 . S
O444 C452 1.284 . S
Zn445 O444 1.899 . S
Zn445 O446 2.032 . S
Zn445 O449 2.086 . S
Zn445 O454 1.977 . S
O446 Zn445 2.032 . S
O446 C450 1.278 . S
C447 O448 1.203 . S
C447 O454 1.267 . S
O448 C447 1.203 . S
O449 C442 1.185 . S
O449 Zn445 2.086 . S
C450 O446 1.278 . S
C450 O451 1.211 . S
O451 C450 1.211 . S
C452 O444 1.284 . S
C452 O453 1.273 . S
O453 C452 1.273 . S
O454 Zn445 1.977 . S
O454 C447 1.267 . S
C455 O456 1.160 . S
C455 O462 1.185 . S
O456 C455 1.160 . S
O457 Zn458 1.899 . S
O457 C465 1.284 . S
Zn458 O457 1.899 . S
Zn458 O459 2.032 . S
Zn458 O462 2.086 . S
Zn458 O467 1.977 . S
O459 Zn458 2.032 . S
O459 C463 1.278 . S
C460 O461 1.203 . S
C460 O467 1.267 . S
O461 C460 1.203 . S
O462 C455 1.185 . S
O462 Zn458 2.086 . S
C463 O459 1.278 . S
C463 O464 1.211 . S
O464 C463 1.211 . S
C465 O457 1.284 . S
C465 O466 1.273 . S
O466 C465 1.273 . S
O467 Zn458 1.977 . S
O467 C460 1.267 . S
C468 C469 1.391 . S
C468 C470 1.394 . S
C468 H484 0.931 . S
C469 C468 1.391 . S
C469 C473 1.376 . S
C470 C468 1.394 . S
C470 C471 1.369 . S
C470 C474 1.531 1_565 S
C471 C470 1.369 . S
C471 C472 1.410 . S
C471 C479 1.503 1_565 S
C472 C471 1.410 . S
C472 C473 1.392 . S
C472 C475 1.511 . S
C473 C469 1.376 . S
C473 C472 1.392 . S
C473 H485 0.929 . S
C474 C470 1.531 1_545 S
C474 H486 0.960 . S
C474 H487 0.962 . S
C474 H488 0.960 . S
C475 C472 1.511 . S
C475 H489 0.961 . S
C475 H490 0.961 . S
C475 H491 0.961 . S
C476 C477 1.370 . S
C476 C478 1.363 . S
C476 H492 0.931 . S
C477 C476 1.370 . S
C477 C481 1.408 . S
C478 C476 1.363 . S
C478 C479 1.370 . S
C478 C482 1.524 . S
C479 C471 1.503 1_545 S
C479 C478 1.370 . S
C479 C480 1.403 . S
C480 C479 1.403 . S
C480 C481 1.404 . S
C480 C483 1.539 1_545 S
C481 C477 1.408 . S
C481 C480 1.404 . S
C481 H493 0.930 . S
C482 C478 1.524 . S
C482 H494 0.956 . S
C482 H495 0.961 . S
C482 H496 0.961 . S
C483 C480 1.539 1_565 S
C483 H497 0.958 . S
C483 H498 0.961 . S
C483 H499 0.960 . S
H484 C468 0.931 . S
H485 C473 0.929 . S
H486 C474 0.960 . S
H487 C474 0.962 . S
H488 C474 0.960 . S
H489 C475 0.961 . S
H490 C475 0.961 . S
H491 C475 0.961 . S
H492 C476 0.931 . S
H493 C481 0.930 . S
H494 C482 0.956 . S
H495 C482 0.961 . S
H496 C482 0.961 . S
H497 C483 0.958 . S
H498 C483 0.961 . S
H499 C483 0.960 . S
C500 C501 1.391 . S
C500 C502 1.394 . S
C500 H516 0.931 . S
C501 C500 1.391 . S
C501 C505 1.376 . S
C502 C500 1.394 . S
C502 C503 1.369 . S
C502 C506 1.531 . S
C503 C502 1.369 . S
C503 C504 1.410 . S
C503 C511 1.503 1_655 S
C504 C503 1.410 . S
C504 C505 1.392 . S
C504 C507 1.511 1_655 S
C505 C501 1.376 . S
C505 C504 1.392 . S
C505 H517 0.929 . S
C506 C502 1.531 . S
C506 H518 0.960 . S
C506 H519 0.962 . S
C506 H520 0.960 . S
C507 C504 1.511 1_455 S
C507 H521 0.961 . S
C507 H522 0.961 . S
C507 H523 0.961 . S
C508 C509 1.370 . S
C508 C510 1.363 . S
C508 H524 0.931 . S
C509 C508 1.370 . S
C509 C513 1.408 . S
C510 C508 1.363 . S
C510 C511 1.370 . S
C510 C514 1.524 . S
C511 C503 1.503 1_455 S
C511 C510 1.370 . S
C511 C512 1.403 . S
C512 C511 1.403 . S
C512 C513 1.404 . S
C512 C515 1.539 . S
C513 C509 1.408 . S
C513 C512 1.404 . S
C513 H525 0.930 . S
C514 C510 1.524 . S
C514 H526 0.956 1_455 S
C514 H527 0.961 . S
C514 H528 0.961 . S
C515 C512 1.539 . S
C515 H529 0.989 . S
C515 H530 0.961 . S
C515 H531 0.960 . S
H516 C500 0.931 . S
H517 C505 0.929 . S
H518 C506 0.960 . S
H519 C506 0.962 . S
H520 C506 0.960 . S
H521 C507 0.961 . S
H522 C507 0.961 . S
H523 C507 0.961 . S
H524 C508 0.931 . S
H525 C513 0.930 . S
H526 C514 0.956 1_655 S
H527 C514 0.961 . S
H528 C514 0.961 . S
H529 C515 0.989 . S
H530 C515 0.961 . S
H531 C515 0.960 . S
C532 C533 1.391 . S
C532 C534 1.394 . S
C532 H548 0.931 . S
C533 C532 1.391 . S
C533 C537 1.376 . S
C534 C532 1.394 . S
C534 C535 1.369 . S
C534 C538 1.531 . S
C535 C534 1.369 . S
C535 C536 1.410 . S
C535 C543 1.503 . S
C536 C535 1.410 . S
C536 C537 1.392 . S
C536 C539 1.511 . S
C537 C533 1.376 . S
C537 C536 1.392 . S
C537 H549 0.929 . S
C538 C534 1.531 . S
C538 H550 0.960 . S
C538 H551 0.962 . S
C538 H552 0.960 . S
C539 C536 1.511 . S
C539 H553 0.961 . S
C539 H554 0.961 . S
C539 H555 0.961 . S
C540 C541 1.370 . S
C540 C542 1.363 . S
C540 H556 0.931 . S
C541 C540 1.370 . S
C541 C545 1.408 . S
C542 C540 1.363 . S
C542 C543 1.370 . S
C542 C546 1.524 . S
C543 C535 1.503 . S
C543 C542 1.370 . S
C543 C544 1.403 . S
C544 C543 1.403 . S
C544 C545 1.404 . S
C544 C547 1.539 . S
C545 C541 1.408 . S
C545 C544 1.404 . S
C545 H557 0.930 . S
C546 C542 1.524 . S
C546 H558 0.956 . S
C546 H559 0.961 . S
C546 H560 0.961 . S
C547 C544 1.539 . S
C547 H561 0.958 . S
C547 H562 0.961 . S
C547 H563 0.960 . S
H548 C532 0.931 . S
H549 C537 0.929 . S
H550 C538 0.960 . S
H551 C538 0.962 . S
H552 C538 0.960 . S
H553 C539 0.961 . S
H554 C539 0.961 . S
H555 C539 0.961 . S
H556 C540 0.931 . S
H557 C545 0.930 . S
H558 C546 0.956 . S
H559 C546 0.961 . S
H560 C546 0.961 . S
H561 C547 0.958 . S
H562 C547 0.961 . S
H563 C547 0.960 . S
C564 C565 1.391 . S
C564 C566 1.394 . S
C564 H580 0.931 . S
C565 C564 1.391 . S
C565 C569 1.376 . S
C566 C564 1.394 . S
C566 C567 1.369 . S
C566 C570 1.531 . S
C567 C566 1.369 . S
C567 C568 1.410 . S
C567 C575 1.503 1_565 S
C568 C567 1.410 . S
C568 C569 1.392 . S
C568 C571 1.511 . S
C569 C565 1.376 . S
C569 C568 1.392 . S
C569 H581 0.929 . S
C570 C566 1.531 . S
C570 H582 0.960 . S
C570 H583 0.962 1_565 S
C570 H584 0.960 . S
C571 C568 1.511 . S
C571 H585 0.961 . S
C571 H586 1.010 . S
C571 H587 0.961 . S
C572 C573 1.370 . S
C572 C574 1.363 . S
C572 H588 0.931 . S
C573 C572 1.370 . S
C573 C577 1.408 . S
C574 C572 1.363 . S
C574 C575 1.370 . S
C574 C578 1.524 . S
C575 C567 1.503 1_545 S
C575 C574 1.370 . S
C575 C576 1.411 . S
C576 C575 1.411 . S
C576 C577 1.424 . S
C576 C579 1.513 1_545 S
C577 C573 1.408 . S
C577 C576 1.424 . S
C577 H589 0.930 . S
C578 C574 1.524 . S
C578 H590 0.956 . S
C578 H591 0.961 . S
C578 H592 0.961 . S
C579 C576 1.513 1_565 S
C579 H593 0.958 . S
C579 H594 0.961 . S
C579 H595 0.960 . S
H580 C564 0.931 . S
H581 C569 0.929 . S
H582 C570 0.960 . S
H583 C570 0.962 1_545 S
H584 C570 0.960 . S
H585 C571 0.961 . S
H586 C571 1.010 . S
H587 C571 0.961 . S
H588 C572 0.931 . S
H589 C577 0.930 . S
H590 C578 0.956 . S
H591 C578 0.961 . S
H592 C578 0.961 . S
H593 C579 0.958 . S
H594 C579 0.961 . S
H595 C579 0.960 . S
C596 C597 1.391 . S
C596 C598 1.394 . S
C596 H612 0.931 . S
C597 C596 1.391 . S
C597 C601 1.376 . S
C598 C596 1.394 . S
C598 C599 1.369 . S
C598 C602 1.531 1_455 S
C599 C598 1.369 . S
C599 C600 1.410 . S
C599 C607 1.503 1_455 S
C600 C599 1.410 . S
C600 C601 1.392 . S
C600 C603 1.511 . S
C601 C597 1.376 . S
C601 C600 1.392 . S
C601 H613 0.929 . S
C602 C598 1.531 1_655 S
C602 H614 0.960 . S
C602 H615 0.962 . S
C602 H616 0.960 . S
C603 C600 1.511 . S
C603 H617 0.961 . S
C603 H618 0.961 . S
C603 H619 0.961 . S
C604 C605 1.370 . S
C604 C606 1.363 . S
C604 H620 0.931 . S
C605 C604 1.370 . S
C605 C609 1.408 . S
C606 C604 1.363 . S
C606 C607 1.370 . S
C606 C610 1.524 . S
C607 C599 1.503 1_655 S
C607 C606 1.370 . S
C607 C608 1.403 . S
C608 C607 1.403 . S
C608 C609 1.404 . S
C608 C611 1.539 . S
C609 C605 1.408 . S
C609 C608 1.404 . S
C609 H621 0.930 . S
C610 C606 1.524 . S
C610 H622 0.956 . S
C610 H623 0.961 1_655 S
C610 H624 0.961 . S
C611 C608 1.539 . S
C611 H625 0.958 . S
C611 H626 0.956 . S
C611 H627 0.960 1_655 S
H612 C596 0.931 . S
H613 C601 0.929 . S
H614 C602 0.960 . S
H615 C602 0.962 . S
H616 C602 0.960 . S
H617 C603 0.961 . S
H618 C603 0.961 . S
H619 C603 0.961 . S
H620 C604 0.931 . S
H621 C609 0.930 . S
H622 C610 0.956 . S
H623 C610 0.961 1_455 S
H624 C610 0.961 . S
H625 C611 0.958 . S
H626 C611 0.956 . S
H627 C611 0.960 1_455 S
C628 C629 1.391 . S
C628 C630 1.394 . S
C628 H644 0.931 . S
C629 C628 1.391 . S
C629 C633 1.376 . S
C630 C628 1.394 . S
C630 C631 1.369 . S
C630 C634 1.531 . S
C631 C630 1.369 . S
C631 C632 1.410 . S
C631 C639 1.503 . S
C632 C631 1.410 . S
C632 C633 1.392 . S
C632 C635 1.511 . S
C633 C629 1.376 . S
C633 C632 1.392 . S
C633 H645 0.929 . S
C634 C630 1.531 . S
C634 H646 0.960 . S
C634 H647 0.962 . S
C634 H648 0.960 . S
C635 C632 1.511 . S
C635 H649 0.961 . S
C635 H650 0.961 . S
C635 H651 0.961 . S
C636 C637 1.370 . S
C636 C638 1.363 . S
C636 H652 0.931 . S
C637 C636 1.370 . S
C637 C641 1.408 . S
C638 C636 1.363 . S
C638 C639 1.370 . S
C638 C642 1.524 . S
C639 C631 1.503 . S
C639 C638 1.370 . S
C639 C640 1.403 . S
C640 C639 1.403 . S
C640 C641 1.404 . S
C640 C643 1.539 . S
C641 C637 1.408 . S
C641 C640 1.404 . S
C641 H653 0.930 . S
C642 C638 1.524 . S
C642 H654 0.956 . S
C642 H655 0.961 . S
C642 H656 0.961 . S
C643 C640 1.539 . S
C643 H657 0.958 . S
C643 H658 0.961 . S
C643 H659 0.960 . S
H644 C628 0.931 . S
H645 C633 0.929 . S
H646 C634 0.960 . S
H647 C634 0.962 . S
H648 C634 0.960 . S
H649 C635 0.961 . S
H650 C635 0.961 . S
H651 C635 0.961 . S
H652 C636 0.931 . S
H653 C641 0.930 . S
H654 C642 0.956 . S
H655 C642 0.961 . S
H656 C642 0.961 . S
H657 C643 0.958 . S
H658 C643 0.961 . S
H659 C643 0.960 . S
C660 C661 1.391 . S
C660 C662 1.394 . S
C660 H676 0.931 . S
C661 C660 1.391 . S
C661 C665 1.376 . S
C662 C660 1.394 . S
C662 C663 1.369 . S
C662 C666 1.531 . S
C663 C662 1.369 . S
C663 C664 1.410 . S
C663 C671 1.503 . S
C664 C663 1.410 . S
C664 C665 1.392 . S
C664 C667 1.511 . S
C665 C661 1.376 . S
C665 C664 1.392 . S
C665 H677 0.929 . S
C666 C662 1.531 . S
C666 H678 0.960 . S
C666 H679 0.962 . S
C666 H680 0.960 . S
C667 C664 1.511 . S
C667 H681 0.961 . S
C667 H682 0.961 . S
C667 H683 0.961 . S
C668 C669 1.370 . S
C668 C670 1.363 . S
C668 H684 0.931 . S
C669 C668 1.370 . S
C669 C673 1.408 . S
C670 C668 1.363 . S
C670 C671 1.370 . S
C670 C674 1.524 . S
C671 C663 1.503 . S
C671 C670 1.370 . S
C671 C672 1.403 . S
C672 C671 1.403 . S
C672 C673 1.404 . S
C672 C675 1.539 . S
C673 C669 1.408 . S
C673 C672 1.404 . S
C673 H685 0.930 . S
C674 C670 1.524 . S
C674 H686 0.956 . S
C674 H687 0.961 . S
C674 H688 0.961 . S
C675 C672 1.539 . S
C675 H689 0.958 . S
C675 H690 0.961 . S
C675 H691 0.960 . S
H676 C660 0.931 . S
H677 C665 0.929 . S
H678 C666 0.960 . S
H679 C666 0.962 . S
H680 C666 0.960 . S
H681 C667 0.961 . S
H682 C667 0.961 . S
H683 C667 0.961 . S
H684 C668 0.931 . S
H685 C673 0.930 . S
H686 C674 0.956 . S
H687 C674 0.961 . S
H688 C674 0.961 . S
H689 C675 0.958 . S
H690 C675 0.961 . S
H691 C675 0.960 . S
C692 C693 1.391 . S
C692 C694 1.394 . S
C692 H708 0.931 . S
C693 C692 1.391 . S
C693 C697 1.376 . S
C694 C692 1.394 . S
C694 C695 1.369 . S
C694 C698 1.531 . S
C695 C694 1.369 . S
C695 C696 1.410 . S
C695 C703 1.503 . S
C696 C695 1.410 . S
C696 C697 1.392 . S
C696 C699 1.511 . S
C697 C693 1.376 . S
C697 C696 1.392 . S
C697 H709 0.929 . S
C698 C694 1.531 . S
C698 H710 0.960 . S
C698 H711 0.962 . S
C698 H712 0.960 . S
C699 C696 1.511 . S
C699 H713 0.961 . S
C699 H714 0.961 . S
C699 H715 0.961 . S
C700 C701 1.370 . S
C700 C702 1.363 . S
C700 H716 0.931 . S
C701 C700 1.370 . S
C701 C705 1.408 . S
C702 C700 1.363 . S
C702 C703 1.370 . S
C702 C706 1.524 . S
C703 C695 1.503 . S
C703 C702 1.370 . S
C703 C704 1.403 . S
C704 C703 1.403 . S
C704 C705 1.404 . S
C704 C707 1.539 . S
C705 C701 1.408 . S
C705 C704 1.404 . S
C705 H717 0.930 . S
C706 C702 1.524 . S
C706 H718 0.956 . S
C706 H719 0.961 . S
C706 H720 0.961 . S
C707 C704 1.539 . S
C707 H721 0.958 . S
C707 H722 0.961 . S
C707 H723 0.960 . S
H708 C692 0.931 . S
H709 C697 0.929 . S
H710 C698 0.960 . S
H711 C698 0.962 . S
H712 C698 0.960 . S
H713 C699 0.961 . S
H714 C699 0.961 . S
H715 C699 0.961 . S
H716 C700 0.931 . S
H717 C705 0.930 . S
H718 C706 0.956 . S
H719 C706 0.961 . S
H720 C706 0.961 . S
H721 C707 0.958 . S
H722 C707 0.961 . S
H723 C707 0.960 . S
C724 C725 1.391 . S
C724 C726 1.394 . S
C724 H740 0.931 . S
C725 C724 1.391 . S
C725 C729 1.376 . S
C726 C724 1.394 . S
C726 C727 1.369 . S
C726 C730 1.531 . S
C727 C726 1.369 . S
C727 C728 1.410 . S
C727 C735 1.503 . S
C728 C727 1.410 . S
C728 C729 1.392 . S
C728 C731 1.511 . S
C729 C725 1.376 . S
C729 C728 1.392 . S
C729 H741 0.929 . S
C730 C726 1.531 . S
C730 H742 0.960 . S
C730 H743 0.962 . S
C730 H744 0.960 . S
C731 C728 1.511 . S
C731 H745 0.961 . S
C731 H746 0.961 . S
C731 H747 0.961 . S
C732 C733 1.370 . S
C732 C734 1.363 . S
C732 H748 0.931 . S
C733 C732 1.370 . S
C733 C737 1.408 . S
C734 C732 1.363 . S
C734 C735 1.370 . S
C734 C738 1.524 . S
C735 C727 1.503 . S
C735 C734 1.370 . S
C735 C736 1.403 . S
C736 C735 1.403 . S
C736 C737 1.404 . S
C736 C739 1.539 . S
C737 C733 1.408 . S
C737 C736 1.404 . S
C737 H749 0.930 . S
C738 C734 1.524 . S
C738 H750 0.956 . S
C738 H751 0.961 . S
C738 H752 0.961 . S
C739 C736 1.539 . S
C739 H753 0.958 . S
C739 H754 0.961 . S
C739 H755 0.960 . S
H740 C724 0.931 . S
H741 C729 0.929 . S
H742 C730 0.960 . S
H743 C730 0.962 . S
H744 C730 0.960 . S
H745 C731 0.961 . S
H746 C731 0.961 . S
H747 C731 0.961 . S
H748 C732 0.931 . S
H749 C737 0.930 . S
H750 C738 0.956 . S
H751 C738 0.961 . S
H752 C738 0.961 . S
H753 C739 0.958 . S
H754 C739 0.961 . S
H755 C739 0.960 . S
C756 C757 1.391 . S
C756 C758 1.394 . S
C756 H772 0.931 . S
C757 C756 1.391 . S
C757 C761 1.376 . S
C758 C756 1.394 . S
C758 C759 1.369 . S
C758 C762 1.531 . S
C759 C758 1.369 . S
C759 C760 1.410 . S
C759 C767 1.503 . S
C760 C759 1.410 . S
C760 C761 1.392 . S
C760 C763 1.511 . S
C761 C757 1.376 . S
C761 C760 1.392 . S
C761 H773 0.929 . S
C762 C758 1.531 . S
C762 H774 0.960 . S
C762 H775 0.962 . S
C762 H776 0.960 . S
C763 C760 1.511 . S
C763 H777 0.961 . S
C763 H778 0.961 . S
C763 H779 0.961 . S
C764 C765 1.370 1_554 S
C764 C766 1.363 . S
C764 H780 0.931 . S
C765 C764 1.370 1_556 S
C765 C769 1.408 . S
C766 C764 1.363 . S
C766 C767 1.370 . S
C766 C770 1.524 . S
C767 C759 1.503 . S
C767 C766 1.370 . S
C767 C768 1.403 1_554 S
C768 C767 1.403 1_556 S
C768 C769 1.404 . S
C768 C771 1.539 . S
C769 C765 1.408 . S
C769 C768 1.404 . S
C769 H781 0.930 . S
C770 C766 1.524 . S
C770 H782 0.956 . S
C770 H783 0.961 . S
C770 H784 0.961 . S
C771 C768 1.539 . S
C771 H785 0.958 . S
C771 H786 0.961 . S
C771 H787 0.960 . S
H772 C756 0.931 . S
H773 C761 0.929 . S
H774 C762 0.960 . S
H775 C762 0.962 . S
H776 C762 0.960 . S
H777 C763 0.961 . S
H778 C763 0.961 . S
H779 C763 0.961 . S
H780 C764 0.931 . S
H781 C769 0.930 . S
H782 C770 0.956 . S
H783 C770 0.961 . S
H784 C770 0.961 . S
H785 C771 0.958 . S
H786 C771 0.961 . S
H787 C771 0.960 . S
C788 C789 1.391 . S
C788 C790 1.394 . S
C788 H804 0.931 . S
C789 C788 1.391 . S
C789 C793 1.376 . S
C790 C788 1.394 . S
C790 C791 1.369 . S
C790 C794 1.531 . S
C791 C790 1.369 . S
C791 C792 1.410 . S
C791 C799 1.503 . S
C792 C791 1.410 . S
C792 C793 1.392 . S
C792 C795 1.511 . S
C793 C789 1.376 . S
C793 C792 1.392 . S
C793 H805 0.929 . S
C794 C790 1.531 . S
C794 H806 0.960 . S
C794 H807 0.962 . S
C794 H808 0.960 . S
C795 C792 1.511 . S
C795 H809 0.961 . S
C795 H810 0.961 . S
C795 H811 0.961 . S
C796 C797 1.370 1_554 S
C796 C798 1.363 . S
C796 H812 0.931 . S
C797 C796 1.370 1_556 S
C797 C801 1.408 . S
C798 C796 1.363 . S
C798 C799 1.370 . S
C798 C802 1.524 . S
C799 C791 1.503 . S
C799 C798 1.370 . S
C799 C800 1.403 1_554 S
C800 C799 1.403 1_556 S
C800 C801 1.404 . S
C800 C803 1.539 . S
C801 C797 1.408 . S
C801 C800 1.404 . S
C801 H813 0.930 . S
C802 C798 1.524 . S
C802 H814 0.956 . S
C802 H815 0.961 . S
C802 H816 0.961 . S
C803 C800 1.539 . S
C803 H817 0.958 . S
C803 H818 0.961 . S
C803 H819 0.960 . S
H804 C788 0.931 . S
H805 C793 0.929 . S
H806 C794 0.960 . S
H807 C794 0.962 . S
H808 C794 0.960 . S
H809 C795 0.961 . S
H810 C795 0.961 . S
H811 C795 0.961 . S
H812 C796 0.931 . S
H813 C801 0.930 . S
H814 C802 0.956 . S
H815 C802 0.961 . S
H816 C802 0.961 . S
H817 C803 0.958 . S
H818 C803 0.961 . S
H819 C803 0.960 . S
C820 C821 1.391 . S
C820 C822 1.394 . S
C820 H836 0.931 . S
C821 C820 1.391 . S
C821 C825 1.376 . S
C822 C820 1.394 . S
C822 C823 1.369 . S
C822 C826 1.531 . S
C823 C822 1.369 . S
C823 C824 1.410 . S
C823 C831 1.503 . S
C824 C823 1.410 . S
C824 C825 1.392 . S
C824 C827 1.511 . S
C825 C821 1.376 . S
C825 C824 1.392 . S
C825 H837 0.929 . S
C826 C822 1.531 . S
C826 H838 0.960 . S
C826 H839 0.962 . S
C826 H840 0.960 . S
C827 C824 1.511 . S
C827 H841 0.961 . S
C827 H842 0.961 . S
C827 H843 0.961 . S
C828 C829 1.370 . S
C828 C830 1.363 1_556 S
C828 H844 0.931 . S
C829 C828 1.370 . S
C829 C833 1.408 1_556 S
C830 C828 1.363 1_554 S
C830 C831 1.370 . S
C830 C834 1.524 . S
C831 C823 1.503 . S
C831 C830 1.370 . S
C831 C832 1.403 . S
C832 C831 1.403 . S
C832 C833 1.404 . S
C832 C835 1.539 . S
C833 C829 1.408 1_554 S
C833 C832 1.404 . S
C833 H845 0.930 . S
C834 C830 1.524 . S
C834 H846 0.956 . S
C834 H847 0.961 . S
C834 H848 0.961 1_554 S
C835 C832 1.539 . S
C835 H849 0.958 . S
C835 H850 0.961 . S
C835 H851 0.960 . S
H836 C820 0.931 . S
H837 C825 0.929 . S
H838 C826 0.960 . S
H839 C826 0.962 . S
H840 C826 0.960 . S
H841 C827 0.961 . S
H842 C827 0.961 . S
H843 C827 0.961 . S
H844 C828 0.931 . S
H845 C833 0.930 . S
H846 C834 0.956 . S
H847 C834 0.961 . S
H848 C834 0.961 1_556 S
H849 C835 0.958 . S
H850 C835 0.961 . S
H851 C835 0.960 . S
C852 C853 1.391 . S
C852 C854 1.394 . S
C852 H868 0.931 . S
C853 C852 1.391 . S
C853 C857 1.376 . S
C854 C852 1.394 . S
C854 C855 1.369 . S
C854 C858 1.531 . S
C855 C854 1.369 . S
C855 C856 1.410 . S
C855 C863 1.503 . S
C856 C855 1.410 . S
C856 C857 1.392 . S
C856 C859 1.511 . S
C857 C853 1.376 . S
C857 C856 1.392 . S
C857 H869 0.929 . S
C858 C854 1.531 . S
C858 H870 0.960 . S
C858 H871 0.962 . S
C858 H872 0.960 . S
C859 C856 1.511 . S
C859 H873 0.961 . S
C859 H874 0.961 . S
C859 H875 0.961 . S
C860 C861 1.370 1_556 S
C860 C862 1.363 . S
C860 H876 0.931 . S
C861 C860 1.370 1_554 S
C861 C865 1.408 . S
C862 C860 1.363 . S
C862 C863 1.370 . S
C862 C866 1.524 . S
C863 C855 1.503 . S
C863 C862 1.370 . S
C863 C864 1.403 1_556 S
C864 C863 1.403 1_554 S
C864 C865 1.404 . S
C864 C867 1.539 . S
C865 C861 1.408 . S
C865 C864 1.404 . S
C865 H877 0.930 . S
C866 C862 1.524 . S
C866 H878 0.956 . S
C866 H879 0.961 . S
C866 H880 0.961 . S
C867 C864 1.539 . S
C867 H881 0.958 . S
C867 H882 0.961 . S
C867 H883 0.960 . S
H868 C852 0.931 . S
H869 C857 0.929 . S
H870 C858 0.960 . S
H871 C858 0.962 . S
H872 C858 0.960 . S
H873 C859 0.961 . S
H874 C859 0.961 . S
H875 C859 0.961 . S
H876 C860 0.931 . S
H877 C865 0.930 . S
H878 C866 0.956 . S
H879 C866 0.961 . S
H880 C866 0.961 . S
H881 C867 0.958 . S
H882 C867 0.961 . S
H883 C867 0.960 . S
C884 C885 1.391 . S
C884 C886 1.394 1_554 S
C884 H900 0.931 . S
C885 C884 1.391 . S
C885 C889 1.376 1_554 S
C886 C884 1.394 1_556 S
C886 C887 1.369 . S
C886 C890 1.532 . S
C887 C886 1.369 . S
C887 C888 1.410 . S
C887 C895 1.503 . S
C888 C887 1.410 . S
C888 C889 1.392 . S
C888 C891 1.511 . S
C889 C885 1.376 1_556 S
C889 C888 1.392 . S
C889 H901 0.929 . S
C890 C886 1.532 . S
C890 H902 0.976 . S
C890 H903 0.955 1_556 S
C890 H904 0.950 1_556 S
C891 C888 1.511 . S
C891 H905 0.961 . S
C891 H906 0.961 . S
C891 H907 0.961 . S
C892 C893 1.370 . S
C892 C894 1.363 . S
C892 H908 0.931 . S
C893 C892 1.370 . S
C893 C897 1.408 . S
C894 C892 1.363 . S
C894 C895 1.370 . S
C894 C898 1.524 . S
C895 C887 1.503 . S
C895 C894 1.370 . S
C895 C896 1.403 . S
C896 C895 1.403 . S
C896 C897 1.404 . S
C896 C899 1.539 . S
C897 C893 1.408 . S
C897 C896 1.404 . S
C897 H909 0.930 . S
C898 C894 1.524 . S
C898 H910 0.956 . S
C898 H911 0.961 . S
C898 H912 0.961 . S
C899 C896 1.539 . S
C899 H913 0.958 . S
C899 H914 0.961 . S
C899 H915 0.960 . S
H900 C884 0.931 . S
H901 C889 0.929 . S
H902 C890 0.976 . S
H903 C890 0.955 1_554 S
H904 C890 0.950 1_554 S
H905 C891 0.961 . S
H906 C891 0.961 . S
H907 C891 0.961 . S
H908 C892 0.931 . S
H909 C897 0.930 . S
H910 C898 0.956 . S
H911 C898 0.961 . S
H912 C898 0.961 . S
H913 C899 0.958 . S
H914 C899 0.961 . S
H915 C899 0.960 . S
C916 C917 1.391 . S
C916 C918 1.394 . S
C916 H932 0.931 . S
C917 C916 1.391 . S
C917 C921 1.376 . S
C918 C916 1.394 . S
C918 C919 1.369 . S
C918 C922 1.531 . S
C919 C918 1.369 . S
C919 C920 1.410 . S
C919 C927 1.503 . S
C920 C919 1.410 . S
C920 C921 1.392 . S
C920 C923 1.511 . S
C921 C917 1.376 . S
C921 C920 1.392 . S
C921 H933 0.929 . S
C922 C918 1.531 . S
C922 H934 0.960 . S
C922 H935 0.962 . S
C922 H936 0.960 . S
C923 C920 1.511 . S
C923 H937 0.961 . S
C923 H938 0.961 . S
C923 H939 0.961 . S
C924 C925 1.370 1_556 S
C924 C926 1.363 . S
C924 H940 0.931 . S
C925 C924 1.370 1_554 S
C925 C929 1.408 . S
C926 C924 1.363 . S
C926 C927 1.370 . S
C926 C930 1.524 . S
C927 C919 1.503 . S
C927 C926 1.370 . S
C927 C928 1.403 1_556 S
C928 C927 1.403 1_554 S
C928 C929 1.404 . S
C928 C931 1.539 . S
C929 C925 1.408 . S
C929 C928 1.404 . S
C929 H941 0.930 . S
C930 C926 1.524 . S
C930 H942 0.956 . S
C930 H943 0.961 . S
C930 H944 0.961 . S
C931 C928 1.539 . S
C931 H945 0.958 . S
C931 H946 0.961 . S
C931 H947 0.960 1_554 S
H932 C916 0.931 . S
H933 C921 0.929 . S
H934 C922 0.960 . S
H935 C922 0.962 . S
H936 C922 0.960 . S
H937 C923 0.961 . S
H938 C923 0.961 . S
H939 C923 0.961 . S
H940 C924 0.931 . S
H941 C929 0.930 . S
H942 C930 0.956 . S
H943 C930 0.961 . S
H944 C930 0.961 . S
H945 C931 0.958 . S
H946 C931 0.961 . S
H947 C931 0.960 1_556 S
C948 C949 1.391 . S
C948 C950 1.394 . S
C948 H964 0.931 . S
C949 C948 1.391 . S
C949 C953 1.376 . S
C950 C948 1.394 . S
C950 C951 1.369 . S
C950 C954 1.531 . S
C951 C950 1.369 . S
C951 C952 1.410 . S
C951 C959 1.503 . S
C952 C951 1.410 . S
C952 C953 1.392 . S
C952 C955 1.511 . S
C953 C949 1.376 . S
C953 C952 1.392 . S
C953 H965 0.929 . S
C954 C950 1.531 . S
C954 H966 0.960 . S
C954 H967 0.962 . S
C954 H968 0.960 . S
C955 C952 1.511 . S
C955 H969 0.961 . S
C955 H970 0.961 . S
C955 H971 0.961 . S
C956 C957 1.370 . S
C956 C958 1.363 . S
C956 H972 0.931 . S
C957 C956 1.370 . S
C957 C961 1.408 . S
C958 C956 1.363 . S
C958 C959 1.370 . S
C958 C962 1.524 . S
C959 C951 1.503 . S
C959 C958 1.370 . S
C959 C960 1.403 . S
C960 C959 1.403 . S
C960 C961 1.404 . S
C960 C963 1.539 . S
C961 C957 1.408 . S
C961 C960 1.404 . S
C961 H973 0.930 . S
C962 C958 1.524 . S
C962 H974 0.956 . S
C962 H975 0.961 . S
C962 H976 0.961 . S
C963 C960 1.539 . S
C963 H977 0.958 . S
C963 H978 0.961 . S
C963 H979 0.960 . S
H964 C948 0.931 . S
H965 C953 0.929 . S
H966 C954 0.960 . S
H967 C954 0.962 . S
H968 C954 0.960 . S
H969 C955 0.961 . S
H970 C955 0.961 . S
H971 C955 0.961 . S
H972 C956 0.931 . S
H973 C961 0.930 . S
H974 C962 0.956 . S
H975 C962 0.961 . S
H976 C962 0.961 . S
H977 C963 0.958 . S
H978 C963 0.961 . S
H979 C963 0.960 . S
C980 C981 1.391 . S
C980 C982 1.394 . S
C980 H996 0.931 . S
C981 C980 1.391 . S
C981 C985 1.376 . S
C982 C980 1.394 . S
C982 C983 1.369 . S
C982 C986 1.531 . S
C983 C982 1.369 . S
C983 C984 1.410 . S
C983 C991 1.503 . S
C984 C983 1.410 . S
C984 C985 1.392 . S
C984 C987 1.511 . S
C985 C981 1.376 . S
C985 C984 1.392 . S
C985 H997 0.929 . S
C986 C982 1.531 . S
C986 H998 0.960 . S
C986 H999 0.962 . S
C986 H1000 0.960 . S
C987 C984 1.511 . S
C987 H1001 0.961 . S
C987 H1002 0.961 . S
C987 H1003 0.961 . S
C988 C989 1.370 . S
C988 C990 1.363 . S
C988 H1004 0.931 . S
C989 C988 1.370 . S
C989 C993 1.408 . S
C990 C988 1.363 . S
C990 C991 1.370 . S
C990 C994 1.524 . S
C991 C983 1.503 . S
C991 C990 1.370 . S
C991 C992 1.403 . S
C992 C991 1.403 . S
C992 C993 1.404 . S
C992 C995 1.539 . S
C993 C989 1.408 . S
C993 C992 1.404 . S
C993 H1005 0.930 . S
C994 C990 1.524 . S
C994 H1006 0.956 . S
C994 H1007 0.961 . S
C994 H1008 0.961 . S
C995 C992 1.539 . S
C995 H1009 0.958 . S
C995 H1010 0.961 . S
C995 H1011 0.960 . S
H996 C980 0.931 . S
H997 C985 0.929 . S
H998 C986 0.960 . S
H999 C986 0.962 . S
H1000 C986 0.960 . S
H1001 C987 0.961 . S
H1002 C987 0.961 . S
H1003 C987 0.961 . S
H1004 C988 0.931 . S
H1005 C993 0.930 . S
H1006 C994 0.956 . S
H1007 C994 0.961 . S
H1008 C994 0.961 . S
H1009 C995 0.958 . S
H1010 C995 0.961 . S
H1011 C995 0.960 . S
C1012 C1013 1.391 . S
C1012 C1014 1.394 . S
C1012 H1028 0.931 . S
C1013 C1012 1.391 . S
C1013 C1017 1.376 . S
C1014 C1012 1.394 . S
C1014 C1015 1.369 . S
C1014 C1018 1.531 . S
C1015 C1014 1.369 . S
C1015 C1016 1.410 . S
C1015 C1023 1.503 . S
C1016 C1015 1.410 . S
C1016 C1017 1.392 . S
C1016 C1019 1.511 . S
C1017 C1013 1.376 . S
C1017 C1016 1.392 . S
C1017 H1029 0.929 . S
C1018 C1014 1.531 . S
C1018 H1030 0.960 . S
C1018 H1031 0.962 . S
C1018 H1032 0.960 . S
C1019 C1016 1.511 . S
C1019 H1033 0.961 . S
C1019 H1034 0.961 . S
C1019 H1035 0.961 . S
C1020 C1021 1.370 . S
C1020 C1022 1.363 . S
C1020 H1036 0.931 . S
C1021 C1020 1.370 . S
C1021 C1025 1.408 . S
C1022 C1020 1.363 . S
C1022 C1023 1.370 . S
C1022 C1026 1.524 . S
C1023 C1015 1.503 . S
C1023 C1022 1.370 . S
C1023 C1024 1.403 . S
C1024 C1023 1.403 . S
C1024 C1025 1.404 . S
C1024 C1027 1.539 . S
C1025 C1021 1.408 . S
C1025 C1024 1.404 . S
C1025 H1037 0.930 . S
C1026 C1022 1.524 . S
C1026 H1038 0.956 . S
C1026 H1039 0.961 . S
C1026 H1040 0.961 . S
C1027 C1024 1.539 . S
C1027 H1041 0.958 . S
C1027 H1042 0.961 . S
C1027 H1043 0.960 . S
H1028 C1012 0.931 . S
H1029 C1017 0.929 . S
H1030 C1018 0.960 . S
H1031 C1018 0.962 . S
H1032 C1018 0.960 . S
H1033 C1019 0.961 . S
H1034 C1019 0.961 . S
H1035 C1019 0.961 . S
H1036 C1020 0.931 . S
H1037 C1025 0.930 . S
H1038 C1026 0.956 . S
H1039 C1026 0.961 . S
H1040 C1026 0.961 . S
H1041 C1027 0.958 . S
H1042 C1027 0.961 . S
H1043 C1027 0.960 . S
C1044 C1045 1.391 . S
C1044 C1046 1.394 . S
C1044 H1060 0.931 . S
C1045 C1044 1.391 . S
C1045 C1049 1.376 . S
C1046 C1044 1.394 . S
C1046 C1047 1.369 . S
C1046 C1050 1.531 . S
C1047 C1046 1.369 . S
C1047 C1048 1.410 . S
C1047 C1055 1.503 . S
C1048 C1047 1.410 . S
C1048 C1049 1.392 . S
C1048 C1051 1.511 . S
C1049 C1045 1.376 . S
C1049 C1048 1.392 . S
C1049 H1061 0.929 . S
C1050 C1046 1.531 . S
C1050 H1062 0.960 . S
C1050 H1063 0.962 . S
C1050 H1064 0.960 . S
C1051 C1048 1.511 . S
C1051 H1065 0.961 . S
C1051 H1066 0.961 . S
C1051 H1067 0.961 . S
C1052 C1053 1.370 . S
C1052 C1054 1.363 . S
C1052 H1068 0.931 . S
C1053 C1052 1.370 . S
C1053 C1057 1.408 . S
C1054 C1052 1.363 . S
C1054 C1055 1.370 . S
C1054 C1058 1.524 . S
C1055 C1047 1.503 . S
C1055 C1054 1.370 . S
C1055 C1056 1.403 . S
C1056 C1055 1.403 . S
C1056 C1057 1.404 . S
C1056 C1059 1.539 . S
C1057 C1053 1.408 . S
C1057 C1056 1.404 . S
C1057 H1069 0.930 . S
C1058 C1054 1.524 . S
C1058 H1070 0.956 . S
C1058 H1071 0.961 . S
C1058 H1072 0.961 . S
C1059 C1056 1.539 . S
C1059 H1073 0.958 . S
C1059 H1074 0.961 . S
C1059 H1075 0.960 . S
H1060 C1044 0.931 . S
H1061 C1049 0.929 . S
H1062 C1050 0.960 . S
H1063 C1050 0.962 . S
H1064 C1050 0.960 . S
H1065 C1051 0.961 . S
H1066 C1051 0.961 . S
H1067 C1051 0.961 . S
H1068 C1052 0.931 . S
H1069 C1057 0.930 . S
H1070 C1058 0.956 . S
H1071 C1058 0.961 . S
H1072 C1058 0.961 . S
H1073 C1059 0.958 . S
H1074 C1059 0.961 . S
H1075 C1059 0.960 . S
C1076 C1077 1.391 . S
C1076 C1078 1.394 . S
C1076 H1092 0.931 . S
C1077 C1076 1.391 . S
C1077 C1081 1.376 . S
C1078 C1076 1.394 . S
C1078 C1079 1.369 . S
C1078 C1082 1.531 . S
C1079 C1078 1.369 . S
C1079 C1080 1.410 . S
C1079 C1087 1.503 . S
C1080 C1079 1.410 . S
C1080 C1081 1.392 . S
C1080 C1083 1.511 . S
C1081 C1077 1.376 . S
C1081 C1080 1.392 . S
C1081 H1093 0.929 . S
C1082 C1078 1.531 . S
C1082 H1094 0.960 . S
C1082 H1095 0.962 . S
C1082 H1096 0.960 . S
C1083 C1080 1.511 . S
C1083 H1097 0.961 . S
C1083 H1098 0.961 . S
C1083 H1099 0.961 . S
C1084 C1085 1.370 . S
C1084 C1086 1.363 . S
C1084 H1100 0.931 . S
C1085 C1084 1.370 . S
C1085 C1089 1.408 . S
C1086 C1084 1.363 . S
C1086 C1087 1.370 . S
C1086 C1090 1.524 . S
C1087 C1079 1.503 . S
C1087 C1086 1.370 . S
C1087 C1088 1.403 . S
C1088 C1087 1.403 . S
C1088 C1089 1.404 . S
C1088 C1091 1.539 . S
C1089 C1085 1.408 . S
C1089 C1088 1.404 . S
C1089 H1101 0.930 . S
C1090 C1086 1.524 . S
C1090 H1102 0.956 . S
C1090 H1103 0.961 . S
C1090 H1104 0.961 . S
C1091 C1088 1.539 . S
C1091 H1105 0.958 . S
C1091 H1106 0.961 . S
C1091 H1107 0.960 . S
H1092 C1076 0.931 . S
H1093 C1081 0.929 . S
H1094 C1082 0.960 . S
H1095 C1082 0.962 . S
H1096 C1082 0.960 . S
H1097 C1083 0.961 . S
H1098 C1083 0.961 . S
H1099 C1083 0.961 . S
H1100 C1084 0.931 . S
H1101 C1089 0.930 . S
H1102 C1090 0.956 . S
H1103 C1090 0.961 . S
H1104 C1090 0.961 . S
H1105 C1091 0.958 . S
H1106 C1091 0.961 . S
H1107 C1091 0.960 . S
C1108 C1109 1.391 . S
C1108 C1110 1.394 . S
C1108 H1124 0.931 . S
C1109 C1108 1.391 . S
C1109 C1113 1.376 . S
C1110 C1108 1.394 . S
C1110 C1111 1.369 . S
C1110 C1114 1.531 . S
C1111 C1110 1.369 . S
C1111 C1112 1.410 . S
C1111 C1119 1.503 . S
C1112 C1111 1.410 . S
C1112 C1113 1.392 . S
C1112 C1115 1.511 . S
C1113 C1109 1.376 . S
C1113 C1112 1.392 . S
C1113 H1125 0.929 . S
C1114 C1110 1.531 . S
C1114 H1126 0.960 . S
C1114 H1127 0.962 . S
C1114 H1128 0.960 . S
C1115 C1112 1.511 . S
C1115 H1129 0.961 . S
C1115 H1130 0.961 . S
C1115 H1131 0.961 . S
C1116 C1117 1.370 . S
C1116 C1118 1.363 . S
C1116 H1132 0.931 . S
C1117 C1116 1.370 . S
C1117 C1121 1.408 . S
C1118 C1116 1.363 . S
C1118 C1119 1.370 . S
C1118 C1122 1.524 . S
C1119 C1111 1.503 . S
C1119 C1118 1.370 . S
C1119 C1120 1.403 . S
C1120 C1119 1.403 . S
C1120 C1121 1.404 . S
C1120 C1123 1.539 . S
C1121 C1117 1.408 . S
C1121 C1120 1.404 . S
C1121 H1133 0.930 . S
C1122 C1118 1.524 . S
C1122 H1134 0.956 . S
C1122 H1135 0.961 . S
C1122 H1136 0.961 . S
C1123 C1120 1.539 . S
C1123 H1137 0.958 . S
C1123 H1138 0.961 . S
C1123 H1139 0.960 . S
H1124 C1108 0.931 . S
H1125 C1113 0.929 . S
H1126 C1114 0.960 . S
H1127 C1114 0.962 . S
H1128 C1114 0.960 . S
H1129 C1115 0.961 . S
H1130 C1115 0.961 . S
H1131 C1115 0.961 . S
H1132 C1116 0.931 . S
H1133 C1121 0.930 . S
H1134 C1122 0.956 . S
H1135 C1122 0.961 . S
H1136 C1122 0.961 . S
H1137 C1123 0.958 . S
H1138 C1123 0.961 . S
H1139 C1123 0.960 . S
C1140 C1141 1.391 . S
C1140 C1142 1.394 . S
C1140 H1156 0.931 . S
C1141 C1140 1.391 . S
C1141 C1145 1.376 . S
C1142 C1140 1.394 . S
C1142 C1143 1.369 . S
C1142 C1146 1.531 . S
C1143 C1142 1.369 . S
C1143 C1144 1.410 . S
C1143 C1151 1.503 . S
C1144 C1143 1.410 . S
C1144 C1145 1.392 . S
C1144 C1147 1.511 . S
C1145 C1141 1.376 . S
C1145 C1144 1.392 . S
C1145 H1157 0.929 . S
C1146 C1142 1.531 . S
C1146 H1158 0.960 . S
C1146 H1159 0.962 . S
C1146 H1160 0.960 . S
C1147 C1144 1.511 . S
C1147 H1161 0.961 . S
C1147 H1162 0.961 . S
C1147 H1163 0.961 . S
C1148 C1149 1.370 . S
C1148 C1150 1.363 . S
C1148 H1164 0.931 . S
C1149 C1148 1.370 . S
C1149 C1153 1.408 . S
C1150 C1148 1.363 . S
C1150 C1151 1.370 . S
C1150 C1154 1.524 . S
C1151 C1143 1.503 . S
C1151 C1150 1.370 . S
C1151 C1152 1.403 . S
C1152 C1151 1.403 . S
C1152 C1153 1.404 . S
C1152 C1155 1.539 . S
C1153 C1149 1.408 . S
C1153 C1152 1.404 . S
C1153 H1165 0.930 . S
C1154 C1150 1.524 . S
C1154 H1166 0.956 . S
C1154 H1167 0.961 . S
C1154 H1168 0.961 . S
C1155 C1152 1.539 . S
C1155 H1169 0.958 . S
C1155 H1170 0.961 . S
C1155 H1171 0.960 . S
H1156 C1140 0.931 . S
H1157 C1145 0.929 . S
H1158 C1146 0.960 . S
H1159 C1146 0.962 . S
H1160 C1146 0.960 . S
H1161 C1147 0.961 . S
H1162 C1147 0.961 . S
H1163 C1147 0.961 . S
H1164 C1148 0.931 . S
H1165 C1153 0.930 . S
H1166 C1154 0.956 . S
H1167 C1154 0.961 . S
H1168 C1154 0.961 . S
H1169 C1155 0.958 . S
H1170 C1155 0.961 . S
H1171 C1155 0.960 . S
C1172 C1173 1.391 . S
C1172 C1174 1.394 . S
C1172 H1188 0.931 . S
C1173 C1172 1.391 . S
C1173 C1177 1.376 . S
C1174 C1172 1.394 . S
C1174 C1175 1.369 . S
C1174 C1178 1.531 . S
C1175 C1174 1.369 . S
C1175 C1176 1.410 . S
C1175 C1183 1.503 . S
C1176 C1175 1.410 . S
C1176 C1177 1.392 . S
C1176 C1179 1.511 . S
C1177 C1173 1.376 . S
C1177 C1176 1.392 . S
C1177 H1189 0.929 . S
C1178 C1174 1.531 . S
C1178 H1190 0.960 . S
C1178 H1191 0.962 . S
C1178 H1192 0.960 . S
C1179 C1176 1.511 . S
C1179 H1193 0.961 . S
C1179 H1194 0.961 . S
C1179 H1195 0.961 . S
C1180 C1181 1.370 . S
C1180 C1182 1.363 . S
C1180 H1196 0.931 . S
C1181 C1180 1.370 . S
C1181 C1185 1.408 . S
C1182 C1180 1.363 . S
C1182 C1183 1.370 . S
C1182 C1186 1.524 . S
C1183 C1175 1.503 . S
C1183 C1182 1.370 . S
C1183 C1184 1.403 . S
C1184 C1183 1.403 . S
C1184 C1185 1.404 . S
C1184 C1187 1.539 . S
C1185 C1181 1.408 . S
C1185 C1184 1.404 . S
C1185 H1197 0.930 . S
C1186 C1182 1.524 . S
C1186 H1198 0.956 . S
C1186 H1199 0.961 . S
C1186 H1200 0.961 . S
C1187 C1184 1.539 . S
C1187 H1201 0.958 . S
C1187 H1202 0.961 . S
C1187 H1203 0.960 . S
H1188 C1172 0.931 . S
H1189 C1177 0.929 . S
H1190 C1178 0.960 . S
H1191 C1178 0.962 . S
H1192 C1178 0.960 . S
H1193 C1179 0.961 . S
H1194 C1179 0.961 . S
H1195 C1179 0.961 . S
H1196 C1180 0.931 . S
H1197 C1185 0.930 . S
H1198 C1186 0.956 . S
H1199 C1186 0.961 . S
H1200 C1186 0.961 . S
H1201 C1187 0.958 . S
H1202 C1187 0.961 . S
H1203 C1187 0.960 . S
C1204 C1205 1.391 . S
C1204 C1206 1.394 . S
C1204 H1220 0.931 . S
C1205 C1204 1.391 . S
C1205 C1209 1.376 . S
C1206 C1204 1.394 . S
C1206 C1207 1.369 . S
C1206 C1210 1.531 . S
C1207 C1206 1.369 . S
C1207 C1208 1.410 . S
C1207 C1215 1.503 . S
C1208 C1207 1.410 . S
C1208 C1209 1.392 . S
C1208 C1211 1.511 . S
C1209 C1205 1.376 . S
C1209 C1208 1.392 . S
C1209 H1221 0.929 . S
C1210 C1206 1.531 . S
C1210 H1222 0.960 . S
C1210 H1223 0.962 . S
C1210 H1224 0.960 . S
C1211 C1208 1.511 . S
C1211 H1225 0.961 . S
C1211 H1226 0.961 . S
C1211 H1227 0.961 . S
C1212 C1213 1.370 . S
C1212 C1214 1.363 . S
C1212 H1228 0.931 . S
C1213 C1212 1.370 . S
C1213 C1217 1.408 . S
C1214 C1212 1.363 . S
C1214 C1215 1.370 . S
C1214 C1218 1.524 . S
C1215 C1207 1.503 . S
C1215 C1214 1.370 . S
C1215 C1216 1.403 . S
C1216 C1215 1.403 . S
C1216 C1217 1.404 . S
C1216 C1219 1.539 . S
C1217 C1213 1.408 . S
C1217 C1216 1.404 . S
C1217 H1229 0.930 . S
C1218 C1214 1.524 . S
C1218 H1230 0.956 . S
C1218 H1231 0.961 . S
C1218 H1232 0.961 . S
C1219 C1216 1.539 . S
C1219 H1233 0.958 . S
C1219 H1234 0.961 . S
C1219 H1235 0.960 . S
H1220 C1204 0.931 . S
H1221 C1209 0.929 . S
H1222 C1210 0.960 . S
H1223 C1210 0.962 . S
H1224 C1210 0.960 . S
H1225 C1211 0.961 . S
H1226 C1211 0.961 . S
H1227 C1211 0.961 . S
H1228 C1212 0.931 . S
H1229 C1217 0.930 . S
H1230 C1218 0.956 . S
H1231 C1218 0.961 . S
H1232 C1218 0.961 . S
H1233 C1219 0.958 . S
H1234 C1219 0.961 . S
H1235 C1219 0.960 . S
C1236 C1237 1.391 . S
C1236 C1238 1.394 . S
C1236 H1252 0.931 . S
C1237 C1236 1.391 . S
C1237 C1241 1.376 . S
C1238 C1236 1.394 . S
C1238 C1239 1.369 . S
C1238 C1242 1.531 . S
C1239 C1238 1.369 . S
C1239 C1240 1.410 . S
C1239 C1247 1.503 . S
C1240 C1239 1.410 . S
C1240 C1241 1.392 . S
C1240 C1243 1.511 . S
C1241 C1237 1.376 . S
C1241 C1240 1.392 . S
C1241 H1253 0.929 . S
C1242 C1238 1.531 . S
C1242 H1254 0.960 . S
C1242 H1255 0.962 . S
C1242 H1256 0.960 . S
C1243 C1240 1.511 . S
C1243 H1257 0.961 . S
C1243 H1258 0.961 . S
C1243 H1259 0.961 . S
C1244 C1245 1.370 . S
C1244 C1246 1.363 . S
C1244 H1260 0.931 . S
C1245 C1244 1.370 . S
C1245 C1249 1.408 . S
C1246 C1244 1.363 . S
C1246 C1247 1.370 . S
C1246 C1250 1.524 . S
C1247 C1239 1.503 . S
C1247 C1246 1.370 . S
C1247 C1248 1.403 . S
C1248 C1247 1.403 . S
C1248 C1249 1.404 . S
C1248 C1251 1.539 . S
C1249 C1245 1.408 . S
C1249 C1248 1.404 . S
C1249 H1261 0.930 . S
C1250 C1246 1.524 . S
C1250 H1262 0.956 . S
C1250 H1263 0.961 . S
C1250 H1264 0.961 . S
C1251 C1248 1.539 . S
C1251 H1265 0.958 . S
C1251 H1266 0.961 . S
C1251 H1267 0.960 . S
H1252 C1236 0.931 . S
H1253 C1241 0.929 . S
H1254 C1242 0.960 . S
H1255 C1242 0.962 . S
H1256 C1242 0.960 . S
H1257 C1243 0.961 . S
H1258 C1243 0.961 . S
H1259 C1243 0.961 . S
H1260 C1244 0.931 . S
H1261 C1249 0.930 . S
H1262 C1250 0.956 . S
H1263 C1250 0.961 . S
H1264 C1250 0.961 . S
H1265 C1251 0.958 . S
H1266 C1251 0.961 . S
H1267 C1251 0.960 . S
C1268 C1269 1.391 . S
C1268 C1270 1.394 . S
C1268 H1284 0.931 . S
C1269 C1268 1.391 . S
C1269 C1273 1.376 . S
C1270 C1268 1.394 . S
C1270 C1271 1.369 . S
C1270 C1274 1.531 . S
C1271 C1270 1.369 . S
C1271 C1272 1.410 . S
C1271 C1279 1.503 . S
C1272 C1271 1.410 . S
C1272 C1273 1.392 . S
C1272 C1275 1.511 . S
C1273 C1269 1.376 . S
C1273 C1272 1.392 . S
C1273 H1285 0.929 . S
C1274 C1270 1.531 . S
C1274 H1286 0.960 . S
C1274 H1287 0.962 . S
C1274 H1288 0.960 . S
C1275 C1272 1.511 . S
C1275 H1289 0.961 . S
C1275 H1290 0.961 . S
C1275 H1291 0.961 . S
C1276 C1277 1.370 . S
C1276 C1278 1.363 . S
C1276 H1292 0.931 . S
C1277 C1276 1.370 . S
C1277 C1281 1.408 . S
C1278 C1276 1.363 . S
C1278 C1279 1.370 . S
C1278 C1282 1.524 . S
C1279 C1271 1.503 . S
C1279 C1278 1.370 . S
C1279 C1280 1.403 . S
C1280 C1279 1.403 . S
C1280 C1281 1.404 . S
C1280 C1283 1.539 . S
C1281 C1277 1.408 . S
C1281 C1280 1.404 . S
C1281 H1293 0.930 . S
C1282 C1278 1.524 . S
C1282 H1294 0.956 . S
C1282 H1295 0.961 . S
C1282 H1296 0.961 . S
C1283 C1280 1.539 . S
C1283 H1297 0.958 . S
C1283 H1298 0.961 . S
C1283 H1299 0.960 . S
H1284 C1268 0.931 . S
H1285 C1273 0.929 . S
H1286 C1274 0.960 . S
H1287 C1274 0.962 . S
H1288 C1274 0.960 . S
H1289 C1275 0.961 . S
H1290 C1275 0.961 . S
H1291 C1275 0.961 . S
H1292 C1276 0.931 . S
H1293 C1281 0.930 . S
H1294 C1282 0.956 . S
H1295 C1282 0.961 . S
H1296 C1282 0.961 . S
H1297 C1283 0.958 . S
H1298 C1283 0.961 . S
H1299 C1283 0.960 . S
C1300 C1301 1.391 . S
C1300 C1302 1.394 . S
C1300 H1316 0.931 . S
C1301 C1300 1.391 . S
C1301 C1305 1.376 . S
C1302 C1300 1.394 . S
C1302 C1303 1.369 . S
C1302 C1306 1.531 . S
C1303 C1302 1.369 . S
C1303 C1304 1.410 . S
C1303 C1311 1.503 . S
C1304 C1303 1.410 . S
C1304 C1305 1.392 . S
C1304 C1307 1.511 . S
C1305 C1301 1.376 . S
C1305 C1304 1.392 . S
C1305 H1317 0.929 . S
C1306 C1302 1.531 . S
C1306 H1318 0.960 . S
C1306 H1319 0.962 . S
C1306 H1320 0.960 . S
C1307 C1304 1.511 . S
C1307 H1321 0.961 . S
C1307 H1322 0.961 . S
C1307 H1323 0.961 . S
C1308 C1309 1.370 . S
C1308 C1310 1.363 . S
C1308 H1324 0.931 . S
C1309 C1308 1.370 . S
C1309 C1313 1.408 . S
C1310 C1308 1.363 . S
C1310 C1311 1.370 . S
C1310 C1314 1.524 . S
C1311 C1303 1.503 . S
C1311 C1310 1.370 . S
C1311 C1312 1.403 . S
C1312 C1311 1.403 . S
C1312 C1313 1.404 . S
C1312 C1315 1.539 . S
C1313 C1309 1.408 . S
C1313 C1312 1.404 . S
C1313 H1325 0.930 . S
C1314 C1310 1.524 . S
C1314 H1326 0.956 . S
C1314 H1327 0.961 . S
C1314 H1328 0.961 . S
C1315 C1312 1.539 . S
C1315 H1329 0.958 . S
C1315 H1330 0.961 . S
C1315 H1331 0.960 . S
H1316 C1300 0.931 . S
H1317 C1305 0.929 . S
H1318 C1306 0.960 . S
H1319 C1306 0.962 . S
H1320 C1306 0.960 . S
H1321 C1307 0.961 . S
H1322 C1307 0.961 . S
H1323 C1307 0.961 . S
H1324 C1308 0.931 . S
H1325 C1313 0.930 . S
H1326 C1314 0.956 . S
H1327 C1314 0.961 . S
H1328 C1314 0.961 . S
H1329 C1315 0.958 . S
H1330 C1315 0.961 . S
H1331 C1315 0.960 . S
C1332 C1333 1.391 . S
C1332 C1334 1.394 . S
C1332 H1348 0.931 . S
C1333 C1332 1.391 . S
C1333 C1337 1.376 . S
C1334 C1332 1.394 . S
C1334 C1335 1.369 . S
C1334 C1338 1.531 . S
C1335 C1334 1.369 . S
C1335 C1336 1.410 . S
C1335 C1343 1.503 . S
C1336 C1335 1.410 . S
C1336 C1337 1.392 . S
C1336 C1339 1.511 . S
C1337 C1333 1.376 . S
C1337 C1336 1.392 . S
C1337 H1349 0.929 . S
C1338 C1334 1.531 . S
C1338 H1350 0.960 . S
C1338 H1351 0.962 . S
C1338 H1352 0.960 . S
C1339 C1336 1.511 . S
C1339 H1353 0.961 . S
C1339 H1354 0.961 . S
C1339 H1355 0.961 . S
C1340 C1341 1.370 . S
C1340 C1342 1.363 . S
C1340 H1356 0.931 . S
C1341 C1340 1.370 . S
C1341 C1345 1.408 . S
C1342 C1340 1.363 . S
C1342 C1343 1.370 . S
C1342 C1346 1.524 . S
C1343 C1335 1.503 . S
C1343 C1342 1.370 . S
C1343 C1344 1.403 . S
C1344 C1343 1.403 . S
C1344 C1345 1.404 . S
C1344 C1347 1.539 . S
C1345 C1341 1.408 . S
C1345 C1344 1.404 . S
C1345 H1357 0.930 . S
C1346 C1342 1.524 . S
C1346 H1358 0.956 . S
C1346 H1359 0.961 . S
C1346 H1360 0.961 . S
C1347 C1344 1.539 . S
C1347 H1361 0.958 . S
C1347 H1362 0.961 . S
C1347 H1363 0.960 . S
H1348 C1332 0.931 . S
H1349 C1337 0.929 . S
H1350 C1338 0.960 . S
H1351 C1338 0.962 . S
H1352 C1338 0.960 . S
H1353 C1339 0.961 . S
H1354 C1339 0.961 . S
H1355 C1339 0.961 . S
H1356 C1340 0.931 . S
H1357 C1345 0.930 . S
H1358 C1346 0.956 . S
H1359 C1346 0.961 . S
H1360 C1346 0.961 . S
H1361 C1347 0.958 . S
H1362 C1347 0.961 . S
H1363 C1347 0.960 . S
C1364 C1365 1.391 . S
C1364 C1366 1.394 . S
C1364 H1380 0.931 . S
C1365 C1364 1.391 . S
C1365 C1369 1.376 . S
C1366 C1364 1.394 . S
C1366 C1367 1.369 . S
C1366 C1370 1.531 . S
C1367 C1366 1.369 . S
C1367 C1368 1.410 . S
C1367 C1375 1.503 . S
C1368 C1367 1.410 . S
C1368 C1369 1.392 . S
C1368 C1371 1.511 . S
C1369 C1365 1.376 . S
C1369 C1368 1.392 . S
C1369 H1381 0.929 . S
C1370 C1366 1.531 . S
C1370 H1382 0.960 . S
C1370 H1383 0.962 . S
C1370 H1384 0.960 . S
C1371 C1368 1.511 . S
C1371 H1385 0.961 . S
C1371 H1386 0.961 . S
C1371 H1387 0.961 . S
C1372 C1373 1.370 . S
C1372 C1374 1.363 . S
C1372 H1388 0.931 . S
C1373 C1372 1.370 . S
C1373 C1377 1.408 . S
C1374 C1372 1.363 . S
C1374 C1375 1.370 . S
C1374 C1378 1.524 . S
C1375 C1367 1.503 . S
C1375 C1374 1.370 . S
C1375 C1376 1.403 . S
C1376 C1375 1.403 . S
C1376 C1377 1.404 . S
C1376 C1379 1.539 . S
C1377 C1373 1.408 . S
C1377 C1376 1.404 . S
C1377 H1389 0.930 . S
C1378 C1374 1.524 . S
C1378 H1390 0.956 . S
C1378 H1391 0.961 . S
C1378 H1392 0.961 . S
C1379 C1376 1.539 . S
C1379 H1393 0.958 . S
C1379 H1394 0.961 . S
C1379 H1395 0.960 . S
H1380 C1364 0.931 . S
H1381 C1369 0.929 . S
H1382 C1370 0.960 . S
H1383 C1370 0.962 . S
H1384 C1370 0.960 . S
H1385 C1371 0.961 . S
H1386 C1371 0.961 . S
H1387 C1371 0.961 . S
H1388 C1372 0.931 . S
H1389 C1377 0.930 . S
H1390 C1378 0.956 . S
H1391 C1378 0.961 . S
H1392 C1378 0.961 . S
H1393 C1379 0.958 . S
H1394 C1379 0.961 . S
H1395 C1379 0.960 . S
C1396 C1397 1.391 . S
C1396 C1398 1.394 . S
C1396 H1412 0.931 . S
C1397 C1396 1.391 . S
C1397 C1401 1.376 . S
C1398 C1396 1.394 . S
C1398 C1399 1.369 . S
C1398 C1402 1.531 . S
C1399 C1398 1.369 . S
C1399 C1400 1.410 . S
C1399 C1407 1.503 . S
C1400 C1399 1.410 . S
C1400 C1401 1.392 . S
C1400 C1403 1.511 . S
C1401 C1397 1.376 . S
C1401 C1400 1.392 . S
C1401 H1413 0.929 . S
C1402 C1398 1.531 . S
C1402 H1414 0.960 . S
C1402 H1415 0.962 . S
C1402 H1416 0.960 . S
C1403 C1400 1.511 . S
C1403 H1417 0.961 . S
C1403 H1418 0.961 . S
C1403 H1419 0.961 . S
C1404 C1405 1.370 . S
C1404 C1406 1.363 . S
C1404 H1420 0.931 . S
C1405 C1404 1.370 . S
C1405 C1409 1.408 . S
C1406 C1404 1.363 . S
C1406 C1407 1.370 . S
C1406 C1410 1.524 . S
C1407 C1399 1.503 . S
C1407 C1406 1.370 . S
C1407 C1408 1.403 . S
C1408 C1407 1.403 . S
C1408 C1409 1.404 . S
C1408 C1411 1.539 . S
C1409 C1405 1.408 . S
C1409 C1408 1.404 . S
C1409 H1421 0.930 . S
C1410 C1406 1.524 . S
C1410 H1422 0.956 . S
C1410 H1423 0.961 . S
C1410 H1424 0.961 . S
C1411 C1408 1.539 . S
C1411 H1425 0.958 . S
C1411 H1426 0.961 . S
C1411 H1427 0.960 . S
H1412 C1396 0.931 . S
H1413 C1401 0.929 . S
H1414 C1402 0.960 . S
H1415 C1402 0.962 . S
H1416 C1402 0.960 . S
H1417 C1403 0.961 . S
H1418 C1403 0.961 . S
H1419 C1403 0.961 . S
H1420 C1404 0.931 . S
H1421 C1409 0.930 . S
H1422 C1410 0.956 . S
H1423 C1410 0.961 . S
H1424 C1410 0.961 . S
H1425 C1411 0.958 . S
H1426 C1411 0.961 . S
H1427 C1411 0.960 . S
C1428 C1429 1.391 . S
C1428 C1430 1.394 . S
C1428 H1444 0.931 . S
C1429 C1428 1.391 . S
C1429 C1433 1.376 . S
C1430 C1428 1.394 . S
C1430 C1431 1.369 . S
C1430 C1434 1.531 . S
C1431 C1430 1.369 . S
C1431 C1432 1.410 . S
C1431 C1439 1.503 . S
C1432 C1431 1.410 . S
C1432 C1433 1.392 . S
C1432 C1435 1.511 . S
C1433 C1429 1.376 . S
C1433 C1432 1.392 . S
C1433 H1445 0.929 . S
C1434 C1430 1.531 . S
C1434 H1446 0.960 . S
C1434 H1447 0.962 . S
C1434 H1448 0.960 . S
C1435 C1432 1.511 . S
C1435 H1449 0.961 . S
C1435 H1450 0.961 . S
C1435 H1451 0.961 . S
C1436 C1437 1.370 . S
C1436 C1438 1.363 . S
C1436 H1452 0.931 . S
C1437 C1436 1.370 . S
C1437 C1441 1.408 1_554 S
C1438 C1436 1.363 . S
C1438 C1439 1.370 . S
C1438 C1442 1.524 . S
C1439 C1431 1.503 . S
C1439 C1438 1.370 . S
C1439 C1440 1.403 . S
C1440 C1439 1.403 . S
C1440 C1441 1.404 1_554 S
C1440 C1443 1.537 1_554 S
C1441 C1437 1.408 1_556 S
C1441 C1440 1.404 1_556 S
C1441 H1453 0.930 . S
C1442 C1438 1.524 . S
C1442 H1454 0.956 . S
C1442 H1455 0.961 . S
C1442 H1456 0.961 . S
C1443 C1440 1.537 1_556 S
C1443 H1457 0.957 1_556 S
C1443 H1458 0.966 . S
C1443 H1459 0.957 1_556 S
H1444 C1428 0.931 . S
H1445 C1433 0.929 . S
H1446 C1434 0.960 . S
H1447 C1434 0.962 . S
H1448 C1434 0.960 . S
H1449 C1435 0.961 . S
H1450 C1435 0.961 . S
H1451 C1435 0.961 . S
H1452 C1436 0.931 . S
H1453 C1441 0.930 . S
H1454 C1442 0.956 . S
H1455 C1442 0.961 . S
H1456 C1442 0.961 . S
H1457 C1443 0.957 1_554 S
H1458 C1443 0.966 . S
H1459 C1443 0.957 1_554 S
C1460 C1461 1.391 . S
C1460 C1462 1.394 . S
C1460 H1476 0.931 . S
C1461 C1460 1.391 . S
C1461 C1465 1.376 . S
C1462 C1460 1.394 . S
C1462 C1463 1.369 . S
C1462 C1466 1.531 . S
C1463 C1462 1.369 . S
C1463 C1464 1.410 . S
C1463 C1471 1.503 . S
C1464 C1463 1.410 . S
C1464 C1465 1.392 . S
C1464 C1467 1.511 . S
C1465 C1461 1.376 . S
C1465 C1464 1.392 . S
C1465 H1477 0.929 . S
C1466 C1462 1.531 . S
C1466 H1478 0.960 . S
C1466 H1479 0.962 . S
C1466 H1480 0.960 . S
C1467 C1464 1.511 . S
C1467 H1481 0.961 . S
C1467 H1482 0.961 . S
C1467 H1483 0.961 . S
C1468 C1469 1.370 . S
C1468 C1470 1.363 . S
C1468 H1484 0.931 . S
C1469 C1468 1.370 . S
C1469 C1473 1.408 1_554 S
C1470 C1468 1.363 . S
C1470 C1471 1.370 . S
C1470 C1474 1.524 . S
C1471 C1463 1.503 . S
C1471 C1470 1.370 . S
C1471 C1472 1.403 . S
C1472 C1471 1.403 . S
C1472 C1473 1.404 1_554 S
C1472 C1475 1.539 1_554 S
C1473 C1469 1.408 1_556 S
C1473 C1472 1.404 1_556 S
C1473 H1485 0.930 . S
C1474 C1470 1.524 . S
C1474 H1486 0.956 . S
C1474 H1487 0.961 . S
C1474 H1488 0.961 . S
C1475 C1472 1.539 1_556 S
C1475 H1489 0.958 . S
C1475 H1490 0.961 . S
C1475 H1491 0.960 1_556 S
H1476 C1460 0.931 . S
H1477 C1465 0.929 . S
H1478 C1466 0.960 . S
H1479 C1466 0.962 . S
H1480 C1466 0.960 . S
H1481 C1467 0.961 . S
H1482 C1467 0.961 . S
H1483 C1467 0.961 . S
H1484 C1468 0.931 . S
H1485 C1473 0.930 . S
H1486 C1474 0.956 . S
H1487 C1474 0.961 . S
H1488 C1474 0.961 . S
H1489 C1475 0.958 . S
H1490 C1475 0.961 . S
H1491 C1475 0.960 1_554 S
C1492 C1493 1.391 . S
C1492 C1494 1.394 . S
C1492 H1508 0.931 . S
C1493 C1492 1.391 . S
C1493 C1497 1.376 1_554 S
C1494 C1492 1.394 . S
C1494 C1495 1.369 . S
C1494 C1498 1.531 . S
C1495 C1494 1.369 . S
C1495 C1496 1.410 . S
C1495 C1503 1.503 . S
C1496 C1495 1.410 . S
C1496 C1497 1.392 1_554 S
C1496 C1499 1.511 . S
C1497 C1493 1.376 1_556 S
C1497 C1496 1.392 1_556 S
C1497 H1509 0.929 . S
C1498 C1494 1.531 . S
C1498 H1510 0.960 . S
C1498 H1511 0.962 . S
C1498 H1512 0.960 . S
C1499 C1496 1.511 . S
C1499 H1513 0.961 1_554 S
C1499 H1514 0.961 . S
C1499 H1515 0.961 1_554 S
C1500 C1501 1.370 . S
C1500 C1502 1.363 . S
C1500 H1516 0.931 . S
C1501 C1500 1.370 . S
C1501 C1505 1.408 . S
C1502 C1500 1.363 . S
C1502 C1503 1.370 . S
C1502 C1506 1.524 . S
C1503 C1495 1.503 . S
C1503 C1502 1.370 . S
C1503 C1504 1.403 . S
C1504 C1503 1.403 . S
C1504 C1505 1.404 . S
C1504 C1507 1.539 . S
C1505 C1501 1.408 . S
C1505 C1504 1.404 . S
C1505 H1517 0.930 . S
C1506 C1502 1.524 . S
C1506 H1518 0.956 . S
C1506 H1519 0.961 . S
C1506 H1520 0.961 . S
C1507 C1504 1.539 . S
C1507 H1521 0.958 . S
C1507 H1522 0.961 . S
C1507 H1523 0.960 . S
H1508 C1492 0.931 . S
H1509 C1497 0.929 . S
H1510 C1498 0.960 . S
H1511 C1498 0.962 . S
H1512 C1498 0.960 . S
H1513 C1499 0.961 1_556 S
H1514 C1499 0.961 . S
H1515 C1499 0.961 1_556 S
H1516 C1500 0.931 . S
H1517 C1505 0.930 . S
H1518 C1506 0.956 . S
H1519 C1506 0.961 . S
H1520 C1506 0.961 . S
H1521 C1507 0.958 . S
H1522 C1507 0.961 . S
H1523 C1507 0.960 . S
C1524 C1525 1.391 . S
C1524 C1526 1.394 . S
C1524 H1540 0.931 . S
C1525 C1524 1.391 . S
C1525 C1529 1.376 . S
C1526 C1524 1.394 . S
C1526 C1527 1.369 1_556 S
C1526 C1530 1.531 . S
C1527 C1526 1.369 1_554 S
C1527 C1528 1.410 . S
C1527 C1535 1.503 . S
C1528 C1527 1.410 . S
C1528 C1529 1.392 1_554 S
C1528 C1531 1.511 . S
C1529 C1525 1.376 . S
C1529 C1528 1.392 1_556 S
C1529 H1541 0.929 . S
C1530 C1526 1.531 . S
C1530 H1542 0.960 . S
C1530 H1543 0.962 . S
C1530 H1544 0.960 . S
C1531 C1528 1.511 . S
C1531 H1545 0.961 . S
C1531 H1546 0.961 . S
C1531 H1547 0.961 . S
C1532 C1533 1.370 . S
C1532 C1534 1.363 . S
C1532 H1548 0.931 . S
C1533 C1532 1.370 . S
C1533 C1537 1.408 . S
C1534 C1532 1.363 . S
C1534 C1535 1.370 . S
C1534 C1538 1.524 . S
C1535 C1527 1.503 . S
C1535 C1534 1.370 . S
C1535 C1536 1.403 . S
C1536 C1535 1.403 . S
C1536 C1537 1.404 . S
C1536 C1539 1.539 1_554 S
C1537 C1533 1.408 . S
C1537 C1536 1.404 . S
C1537 H1549 0.930 . S
C1538 C1534 1.524 . S
C1538 H1550 0.956 . S
C1538 H1551 0.961 . S
C1538 H1552 0.961 . S
C1539 C1536 1.539 1_556 S
C1539 H1553 0.958 . S
C1539 H1554 0.961 1_556 S
C1539 H1555 0.960 . S
H1540 C1524 0.931 . S
H1541 C1529 0.929 . S
H1542 C1530 0.960 . S
H1543 C1530 0.962 . S
H1544 C1530 0.960 . S
H1545 C1531 0.961 . S
H1546 C1531 0.961 . S
H1547 C1531 0.961 . S
H1548 C1532 0.931 . S
H1549 C1537 0.930 . S
H1550 C1538 0.956 . S
H1551 C1538 0.961 . S
H1552 C1538 0.961 . S
H1553 C1539 0.958 . S
H1554 C1539 0.961 1_554 S
H1555 C1539 0.960 . S
C1556 C1557 1.391 . S
C1556 C1558 1.394 . S
C1556 H1572 0.931 . S
C1557 C1556 1.391 . S
C1557 C1561 1.376 . S
C1558 C1556 1.394 . S
C1558 C1559 1.369 1_556 S
C1558 C1562 1.531 . S
C1559 C1558 1.369 1_554 S
C1559 C1560 1.410 . S
C1559 C1567 1.503 . S
C1560 C1559 1.410 . S
C1560 C1561 1.392 1_554 S
C1560 C1563 1.511 . S
C1561 C1557 1.376 . S
C1561 C1560 1.392 1_556 S
C1561 H1573 0.929 . S
C1562 C1558 1.531 . S
C1562 H1574 0.960 . S
C1562 H1575 0.962 . S
C1562 H1576 0.960 . S
C1563 C1560 1.511 . S
C1563 H1577 0.961 . S
C1563 H1578 0.961 . S
C1563 H1579 0.961 . S
C1564 C1565 1.370 . S
C1564 C1566 1.363 . S
C1564 H1580 0.931 . S
C1565 C1564 1.370 . S
C1565 C1569 1.408 . S
C1566 C1564 1.363 . S
C1566 C1567 1.370 . S
C1566 C1570 1.524 . S
C1567 C1559 1.503 . S
C1567 C1566 1.370 . S
C1567 C1568 1.403 . S
C1568 C1567 1.403 . S
C1568 C1569 1.404 . S
C1568 C1571 1.539 1_554 S
C1569 C1565 1.408 . S
C1569 C1568 1.404 . S
C1569 H1581 0.930 . S
C1570 C1566 1.524 . S
C1570 H1582 0.956 . S
C1570 H1583 0.961 . S
C1570 H1584 0.961 . S
C1571 C1568 1.539 1_556 S
C1571 H1585 0.958 . S
C1571 H1586 0.961 1_556 S
C1571 H1587 0.960 . S
H1572 C1556 0.931 . S
H1573 C1561 0.929 . S
H1574 C1562 0.960 . S
H1575 C1562 0.962 . S
H1576 C1562 0.960 . S
H1577 C1563 0.961 . S
H1578 C1563 0.961 . S
H1579 C1563 0.961 . S
H1580 C1564 0.931 . S
H1581 C1569 0.930 . S
H1582 C1570 0.956 . S
H1583 C1570 0.961 . S
H1584 C1570 0.961 . S
H1585 C1571 0.958 . S
H1586 C1571 0.961 1_554 S
H1587 C1571 0.960 . S
C1588 C1589 1.391 . S
C1588 C1590 1.394 . S
C1588 H1604 0.931 . S
C1589 C1588 1.391 . S
C1589 C1593 1.376 . S
C1590 C1588 1.394 . S
C1590 C1591 1.369 1_556 S
C1590 C1594 1.531 . S
C1591 C1590 1.369 1_554 S
C1591 C1592 1.410 . S
C1591 C1599 1.503 . S
C1592 C1591 1.410 . S
C1592 C1593 1.392 1_554 S
C1592 C1595 1.511 . S
C1593 C1589 1.376 . S
C1593 C1592 1.392 1_556 S
C1593 H1605 0.929 . S
C1594 C1590 1.531 . S
C1594 H1606 0.960 . S
C1594 H1607 0.962 1_556 S
C1594 H1608 0.960 . S
C1595 C1592 1.511 . S
C1595 H1609 0.961 . S
C1595 H1610 0.961 . S
C1595 H1611 0.961 . S
C1596 C1597 1.370 . S
C1596 C1598 1.363 . S
C1596 H1612 0.931 . S
C1597 C1596 1.370 . S
C1597 C1601 1.408 . S
C1598 C1596 1.363 . S
C1598 C1599 1.370 . S
C1598 C1602 1.524 . S
C1599 C1591 1.503 . S
C1599 C1598 1.370 . S
C1599 C1600 1.403 . S
C1600 C1599 1.403 . S
C1600 C1601 1.404 . S
C1600 C1603 1.539 1_554 S
C1601 C1597 1.408 . S
C1601 C1600 1.404 . S
C1601 H1613 0.930 . S
C1602 C1598 1.524 . S
C1602 H1614 0.956 . S
C1602 H1615 0.961 . S
C1602 H1616 0.961 . S
C1603 C1600 1.539 1_556 S
C1603 H1617 0.958 . S
C1603 H1618 0.961 . S
C1603 H1619 0.960 . S
H1604 C1588 0.931 . S
H1605 C1593 0.929 . S
H1606 C1594 0.960 . S
H1607 C1594 0.962 1_554 S
H1608 C1594 0.960 . S
H1609 C1595 0.961 . S
H1610 C1595 0.961 . S
H1611 C1595 0.961 . S
H1612 C1596 0.931 . S
H1613 C1601 0.930 . S
H1614 C1602 0.956 . S
H1615 C1602 0.961 . S
H1616 C1602 0.961 . S
H1617 C1603 0.958 . S
H1618 C1603 0.961 . S
H1619 C1603 0.960 . S
C1620 C1621 1.391 . S
C1620 C1622 1.394 . S
C1620 H1636 0.931 . S
C1621 C1620 1.391 . S
C1621 C1625 1.376 . S
C1622 C1620 1.394 . S
C1622 C1623 1.369 . S
C1622 C1626 1.531 . S
C1623 C1622 1.369 . S
C1623 C1624 1.410 . S
C1623 C1631 1.503 . S
C1624 C1623 1.410 . S
C1624 C1625 1.392 . S
C1624 C1627 1.511 . S
C1625 C1621 1.376 . S
C1625 C1624 1.392 . S
C1625 H1637 0.929 . S
C1626 C1622 1.531 . S
C1626 H1638 0.960 . S
C1626 H1639 0.962 . S
C1626 H1640 0.960 . S
C1627 C1624 1.511 . S
C1627 H1641 0.961 . S
C1627 H1642 0.961 . S
C1627 H1643 0.961 . S
C1628 C1629 1.370 . S
C1628 C1630 1.363 . S
C1628 H1644 0.931 . S
C1629 C1628 1.370 . S
C1629 C1633 1.408 . S
C1630 C1628 1.363 . S
C1630 C1631 1.370 . S
C1630 C1634 1.524 . S
C1631 C1623 1.503 . S
C1631 C1630 1.370 . S
C1631 C1632 1.403 . S
C1632 C1631 1.403 . S
C1632 C1633 1.404 . S
C1632 C1635 1.539 . S
C1633 C1629 1.408 . S
C1633 C1632 1.404 . S
C1633 H1645 0.930 . S
C1634 C1630 1.524 . S
C1634 H1646 0.956 . S
C1634 H1647 0.961 . S
C1634 H1648 0.961 . S
C1635 C1632 1.539 . S
C1635 H1649 0.958 . S
C1635 H1650 0.961 . S
C1635 H1651 0.960 . S
H1636 C1620 0.931 . S
H1637 C1625 0.929 . S
H1638 C1626 0.960 . S
H1639 C1626 0.962 . S
H1640 C1626 0.960 . S
H1641 C1627 0.961 . S
H1642 C1627 0.961 . S
H1643 C1627 0.961 . S
H1644 C1628 0.931 . S
H1645 C1633 0.930 . S
H1646 C1634 0.956 . S
H1647 C1634 0.961 . S
H1648 C1634 0.961 . S
H1649 C1635 0.958 . S
H1650 C1635 0.961 . S
H1651 C1635 0.960 . S
C1652 C1653 1.391 . S
C1652 C1654 1.394 . S
C1652 H1668 0.931 . S
C1653 C1652 1.391 . S
C1653 C1657 1.376 . S
C1654 C1652 1.394 . S
C1654 C1655 1.369 . S
C1654 C1658 1.531 . S
C1655 C1654 1.369 . S
C1655 C1656 1.410 . S
C1655 C1663 1.503 . S
C1656 C1655 1.410 . S
C1656 C1657 1.392 . S
C1656 C1659 1.511 . S
C1657 C1653 1.376 . S
C1657 C1656 1.392 . S
C1657 H1669 0.929 . S
C1658 C1654 1.531 . S
C1658 H1670 0.960 . S
C1658 H1671 0.962 . S
C1658 H1672 0.960 . S
C1659 C1656 1.511 . S
C1659 H1673 0.961 . S
C1659 H1674 0.961 . S
C1659 H1675 0.961 . S
C1660 C1661 1.370 . S
C1660 C1662 1.363 . S
C1660 H1676 0.931 . S
C1661 C1660 1.370 . S
C1661 C1665 1.408 . S
C1662 C1660 1.363 . S
C1662 C1663 1.370 . S
C1662 C1666 1.524 . S
C1663 C1655 1.503 . S
C1663 C1662 1.370 . S
C1663 C1664 1.403 . S
C1664 C1663 1.403 . S
C1664 C1665 1.404 . S
C1664 C1667 1.539 . S
C1665 C1661 1.408 . S
C1665 C1664 1.404 . S
C1665 H1677 0.930 . S
C1666 C1662 1.524 . S
C1666 H1678 0.956 . S
C1666 H1679 0.961 . S
C1666 H1680 0.961 . S
C1667 C1664 1.539 . S
C1667 H1681 0.958 . S
C1667 H1682 0.961 . S
C1667 H1683 0.960 . S
H1668 C1652 0.931 . S
H1669 C1657 0.929 . S
H1670 C1658 0.960 . S
H1671 C1658 0.962 . S
H1672 C1658 0.960 . S
H1673 C1659 0.961 . S
H1674 C1659 0.961 . S
H1675 C1659 0.961 . S
H1676 C1660 0.931 . S
H1677 C1665 0.930 . S
H1678 C1666 0.956 . S
H1679 C1666 0.961 . S
H1680 C1666 0.961 . S
H1681 C1667 0.958 . S
H1682 C1667 0.961 . S
H1683 C1667 0.960 . S
C1684 C1685 1.391 . S
C1684 C1686 1.394 . S
C1684 H1700 0.931 . S
C1685 C1684 1.391 . S
C1685 C1689 1.376 . S
C1686 C1684 1.394 . S
C1686 C1687 1.369 . S
C1686 C1690 1.531 . S
C1687 C1686 1.369 . S
C1687 C1688 1.410 . S
C1687 C1695 1.503 . S
C1688 C1687 1.410 . S
C1688 C1689 1.392 . S
C1688 C1691 1.511 . S
C1689 C1685 1.376 . S
C1689 C1688 1.392 . S
C1689 H1701 0.929 . S
C1690 C1686 1.531 . S
C1690 H1702 0.960 . S
C1690 H1703 0.962 . S
C1690 H1704 0.960 . S
C1691 C1688 1.511 . S
C1691 H1705 0.961 . S
C1691 H1706 0.961 . S
C1691 H1707 0.961 . S
C1692 C1693 1.370 . S
C1692 C1694 1.363 . S
C1692 H1708 0.931 . S
C1693 C1692 1.370 . S
C1693 C1697 1.408 . S
C1694 C1692 1.363 . S
C1694 C1695 1.370 . S
C1694 C1698 1.524 . S
C1695 C1687 1.503 . S
C1695 C1694 1.370 . S
C1695 C1696 1.403 . S
C1696 C1695 1.403 . S
C1696 C1697 1.404 . S
C1696 C1699 1.539 . S
C1697 C1693 1.408 . S
C1697 C1696 1.404 . S
C1697 H1709 0.930 . S
C1698 C1694 1.524 . S
C1698 H1710 0.956 . S
C1698 H1711 0.961 . S
C1698 H1712 0.961 . S
C1699 C1696 1.539 . S
C1699 H1713 0.958 . S
C1699 H1714 0.961 . S
C1699 H1715 0.960 . S
H1700 C1684 0.931 . S
H1701 C1689 0.929 . S
H1702 C1690 0.960 . S
H1703 C1690 0.962 . S
H1704 C1690 0.960 . S
H1705 C1691 0.961 . S
H1706 C1691 0.961 . S
H1707 C1691 0.961 . S
H1708 C1692 0.931 . S
H1709 C1697 0.930 . S
H1710 C1698 0.956 . S
H1711 C1698 0.961 . S
H1712 C1698 0.961 . S
H1713 C1699 0.958 . S
H1714 C1699 0.961 . S
H1715 C1699 0.960 . S
C1716 C1717 1.391 . S
C1716 C1718 1.394 . S
C1716 H1732 0.931 . S
C1717 C1716 1.391 . S
C1717 C1721 1.376 . S
C1718 C1716 1.394 . S
C1718 C1719 1.369 . S
C1718 C1722 1.531 . S
C1719 C1718 1.369 . S
C1719 C1720 1.410 . S
C1719 C1727 1.503 . S
C1720 C1719 1.410 . S
C1720 C1721 1.392 . S
C1720 C1723 1.511 . S
C1721 C1717 1.376 . S
C1721 C1720 1.392 . S
C1721 H1733 0.929 . S
C1722 C1718 1.531 . S
C1722 H1734 0.960 . S
C1722 H1735 0.962 . S
C1722 H1736 0.960 . S
C1723 C1720 1.511 . S
C1723 H1737 0.961 . S
C1723 H1738 0.961 . S
C1723 H1739 0.961 . S
C1724 C1725 1.370 . S
C1724 C1726 1.363 . S
C1724 H1740 0.931 . S
C1725 C1724 1.370 . S
C1725 C1729 1.408 . S
C1726 C1724 1.363 . S
C1726 C1727 1.370 . S
C1726 C1730 1.524 . S
C1727 C1719 1.503 . S
C1727 C1726 1.370 . S
C1727 C1728 1.403 . S
C1728 C1727 1.403 . S
C1728 C1729 1.404 . S
C1728 C1731 1.539 . S
C1729 C1725 1.408 . S
C1729 C1728 1.404 . S
C1729 H1741 0.930 . S
C1730 C1726 1.524 . S
C1730 H1742 0.956 . S
C1730 H1743 0.961 . S
C1730 H1744 0.961 . S
C1731 C1728 1.539 . S
C1731 H1745 0.958 . S
C1731 H1746 0.961 . S
C1731 H1747 0.960 . S
H1732 C1716 0.931 . S
H1733 C1721 0.929 . S
H1734 C1722 0.960 . S
H1735 C1722 0.962 . S
H1736 C1722 0.960 . S
H1737 C1723 0.961 . S
H1738 C1723 0.961 . S
H1739 C1723 0.961 . S
H1740 C1724 0.931 . S
H1741 C1729 0.930 . S
H1742 C1730 0.956 . S
H1743 C1730 0.961 . S
H1744 C1730 0.961 . S
H1745 C1731 0.958 . S
H1746 C1731 0.961 . S
H1747 C1731 0.960 . S
C1748 C1749 1.391 . S
C1748 C1750 1.394 . S
C1748 H1764 0.931 . S
C1749 C1748 1.391 . S
C1749 C1753 1.376 . S
C1750 C1748 1.394 . S
C1750 C1751 1.369 . S
C1750 C1754 1.531 . S
C1751 C1750 1.369 . S
C1751 C1752 1.410 . S
C1751 C1759 1.503 . S
C1752 C1751 1.410 . S
C1752 C1753 1.392 . S
C1752 C1755 1.511 . S
C1753 C1749 1.376 . S
C1753 C1752 1.392 . S
C1753 H1765 0.929 . S
C1754 C1750 1.531 . S
C1754 H1766 0.960 . S
C1754 H1767 0.962 . S
C1754 H1768 0.960 . S
C1755 C1752 1.511 . S
C1755 H1769 0.961 . S
C1755 H1770 0.961 . S
C1755 H1771 0.961 . S
C1756 C1757 1.370 . S
C1756 C1758 1.363 . S
C1756 H1772 0.931 . S
C1757 C1756 1.370 . S
C1757 C1761 1.408 . S
C1758 C1756 1.363 . S
C1758 C1759 1.370 . S
C1758 C1762 1.524 . S
C1759 C1751 1.503 . S
C1759 C1758 1.370 . S
C1759 C1760 1.403 . S
C1760 C1759 1.403 . S
C1760 C1761 1.404 . S
C1760 C1763 1.539 . S
C1761 C1757 1.408 . S
C1761 C1760 1.404 . S
C1761 H1773 0.930 . S
C1762 C1758 1.524 . S
C1762 H1774 0.956 . S
C1762 H1775 0.961 . S
C1762 H1776 0.961 . S
C1763 C1760 1.539 . S
C1763 H1777 0.958 . S
C1763 H1778 0.961 . S
C1763 H1779 0.960 . S
H1764 C1748 0.931 . S
H1765 C1753 0.929 . S
H1766 C1754 0.960 . S
H1767 C1754 0.962 . S
H1768 C1754 0.960 . S
H1769 C1755 0.961 . S
H1770 C1755 0.961 . S
H1771 C1755 0.961 . S
H1772 C1756 0.931 . S
H1773 C1761 0.930 . S
H1774 C1762 0.956 . S
H1775 C1762 0.961 . S
H1776 C1762 0.961 . S
H1777 C1763 0.958 . S
H1778 C1763 0.961 . S
H1779 C1763 0.960 . S
C1780 C1781 1.391 . S
C1780 C1782 1.394 . S
C1780 H1796 0.931 . S
C1781 C1780 1.391 . S
C1781 C1785 1.376 . S
C1782 C1780 1.394 . S
C1782 C1783 1.369 . S
C1782 C1786 1.531 . S
C1783 C1782 1.369 . S
C1783 C1784 1.410 . S
C1783 C1791 1.503 . S
C1784 C1783 1.410 . S
C1784 C1785 1.392 . S
C1784 C1787 1.511 . S
C1785 C1781 1.376 . S
C1785 C1784 1.392 . S
C1785 H1797 0.929 . S
C1786 C1782 1.531 . S
C1786 H1798 0.960 . S
C1786 H1799 0.962 . S
C1786 H1800 0.960 . S
C1787 C1784 1.511 . S
C1787 H1801 0.961 . S
C1787 H1802 0.961 . S
C1787 H1803 0.961 . S
C1788 C1789 1.370 . S
C1788 C1790 1.363 . S
C1788 H1804 0.931 . S
C1789 C1788 1.370 . S
C1789 C1793 1.408 . S
C1790 C1788 1.363 . S
C1790 C1791 1.370 . S
C1790 C1794 1.524 . S
C1791 C1783 1.503 . S
C1791 C1790 1.370 . S
C1791 C1792 1.403 . S
C1792 C1791 1.403 . S
C1792 C1793 1.404 . S
C1792 C1795 1.539 . S
C1793 C1789 1.408 . S
C1793 C1792 1.404 . S
C1793 H1805 0.930 . S
C1794 C1790 1.524 . S
C1794 H1806 0.956 . S
C1794 H1807 0.961 . S
C1794 H1808 0.961 . S
C1795 C1792 1.539 . S
C1795 H1809 0.958 . S
C1795 H1810 0.961 . S
C1795 H1811 0.960 . S
H1796 C1780 0.931 . S
H1797 C1785 0.929 . S
H1798 C1786 0.960 . S
H1799 C1786 0.962 . S
H1800 C1786 0.960 . S
H1801 C1787 0.961 . S
H1802 C1787 0.961 . S
H1803 C1787 0.961 . S
H1804 C1788 0.931 . S
H1805 C1793 0.930 . S
H1806 C1794 0.956 . S
H1807 C1794 0.961 . S
H1808 C1794 0.961 . S
H1809 C1795 0.958 . S
H1810 C1795 0.961 . S
H1811 C1795 0.960 . S
C1812 C1813 1.391 . S
C1812 C1814 1.394 . S
C1812 H1828 0.931 . S
C1813 C1812 1.391 . S
C1813 C1817 1.376 . S
C1814 C1812 1.394 . S
C1814 C1815 1.369 . S
C1814 C1818 1.531 . S
C1815 C1814 1.369 . S
C1815 C1816 1.410 . S
C1815 C1823 1.503 . S
C1816 C1815 1.410 . S
C1816 C1817 1.392 . S
C1816 C1819 1.511 . S
C1817 C1813 1.376 . S
C1817 C1816 1.392 . S
C1817 H1829 0.929 . S
C1818 C1814 1.531 . S
C1818 H1830 0.960 . S
C1818 H1831 0.962 . S
C1818 H1832 0.960 . S
C1819 C1816 1.511 . S
C1819 H1833 0.961 . S
C1819 H1834 0.961 . S
C1819 H1835 0.961 . S
C1820 C1821 1.370 . S
C1820 C1822 1.363 . S
C1820 H1836 0.931 . S
C1821 C1820 1.370 . S
C1821 C1825 1.408 . S
C1822 C1820 1.363 . S
C1822 C1823 1.370 . S
C1822 C1826 1.524 . S
C1823 C1815 1.503 . S
C1823 C1822 1.370 . S
C1823 C1824 1.403 . S
C1824 C1823 1.403 . S
C1824 C1825 1.404 . S
C1824 C1827 1.539 . S
C1825 C1821 1.408 . S
C1825 C1824 1.404 . S
C1825 H1837 0.930 . S
C1826 C1822 1.524 . S
C1826 H1838 0.956 . S
C1826 H1839 0.961 . S
C1826 H1840 0.961 . S
C1827 C1824 1.539 . S
C1827 H1841 0.958 . S
C1827 H1842 0.961 . S
C1827 H1843 0.960 . S
H1828 C1812 0.931 . S
H1829 C1817 0.929 . S
H1830 C1818 0.960 . S
H1831 C1818 0.962 . S
H1832 C1818 0.960 . S
H1833 C1819 0.961 . S
H1834 C1819 0.961 . S
H1835 C1819 0.961 . S
H1836 C1820 0.931 . S
H1837 C1825 0.930 . S
H1838 C1826 0.956 . S
H1839 C1826 0.961 . S
H1840 C1826 0.961 . S
H1841 C1827 0.958 . S
H1842 C1827 0.961 . S
H1843 C1827 0.960 . S
C1844 C1845 1.391 . S
C1844 C1846 1.394 . S
C1844 H1860 0.931 . S
C1845 C1844 1.391 . S
C1845 C1849 1.376 . S
C1846 C1844 1.394 . S
C1846 C1847 1.369 . S
C1846 C1850 1.531 . S
C1847 C1846 1.369 . S
C1847 C1848 1.410 . S
C1847 C1855 1.503 . S
C1848 C1847 1.410 . S
C1848 C1849 1.392 . S
C1848 C1851 1.511 . S
C1849 C1845 1.376 . S
C1849 C1848 1.392 . S
C1849 H1861 0.929 . S
C1850 C1846 1.531 . S
C1850 H1862 0.960 . S
C1850 H1863 0.962 . S
C1850 H1864 0.960 . S
C1851 C1848 1.511 . S
C1851 H1865 0.961 . S
C1851 H1866 0.961 . S
C1851 H1867 0.961 . S
C1852 C1853 1.370 . S
C1852 C1854 1.363 . S
C1852 H1868 0.931 . S
C1853 C1852 1.370 . S
C1853 C1857 1.408 . S
C1854 C1852 1.363 . S
C1854 C1855 1.370 . S
C1854 C1858 1.524 . S
C1855 C1847 1.503 . S
C1855 C1854 1.370 . S
C1855 C1856 1.403 . S
C1856 C1855 1.403 . S
C1856 C1857 1.404 . S
C1856 C1859 1.539 . S
C1857 C1853 1.408 . S
C1857 C1856 1.404 . S
C1857 H1869 0.930 . S
C1858 C1854 1.524 . S
C1858 H1870 0.956 . S
C1858 H1871 0.961 . S
C1858 H1872 0.961 . S
C1859 C1856 1.539 . S
C1859 H1873 0.958 . S
C1859 H1874 0.961 . S
C1859 H1875 0.960 . S
H1860 C1844 0.931 . S
H1861 C1849 0.929 . S
H1862 C1850 0.960 . S
H1863 C1850 0.962 . S
H1864 C1850 0.960 . S
H1865 C1851 0.961 . S
H1866 C1851 0.961 . S
H1867 C1851 0.961 . S
H1868 C1852 0.931 . S
H1869 C1857 0.930 . S
H1870 C1858 0.956 . S
H1871 C1858 0.961 . S
H1872 C1858 0.961 . S
H1873 C1859 0.958 . S
H1874 C1859 0.961 . S
H1875 C1859 0.960 . S
C1876 C1877 1.391 . S
C1876 C1878 1.394 . S
C1876 H1892 0.931 . S
C1877 C1876 1.391 . S
C1877 C1881 1.376 . S
C1878 C1876 1.394 . S
C1878 C1879 1.369 . S
C1878 C1882 1.531 . S
C1879 C1878 1.369 . S
C1879 C1880 1.410 . S
C1879 C1887 1.503 . S
C1880 C1879 1.410 . S
C1880 C1881 1.392 . S
C1880 C1883 1.511 . S
C1881 C1877 1.376 . S
C1881 C1880 1.392 . S
C1881 H1893 0.929 . S
C1882 C1878 1.531 . S
C1882 H1894 0.960 . S
C1882 H1895 0.962 . S
C1882 H1896 0.960 . S
C1883 C1880 1.511 . S
C1883 H1897 0.961 . S
C1883 H1898 0.961 . S
C1883 H1899 0.961 . S
C1884 C1885 1.370 . S
C1884 C1886 1.363 . S
C1884 H1900 0.931 . S
C1885 C1884 1.370 . S
C1885 C1889 1.408 . S
C1886 C1884 1.363 . S
C1886 C1887 1.370 . S
C1886 C1890 1.524 . S
C1887 C1879 1.503 . S
C1887 C1886 1.370 . S
C1887 C1888 1.403 . S
C1888 C1887 1.403 . S
C1888 C1889 1.404 . S
C1888 C1891 1.539 . S
C1889 C1885 1.408 . S
C1889 C1888 1.404 . S
C1889 H1901 0.930 . S
C1890 C1886 1.524 . S
C1890 H1902 0.956 . S
C1890 H1903 0.961 . S
C1890 H1904 0.961 . S
C1891 C1888 1.539 . S
C1891 H1905 0.958 . S
C1891 H1906 0.961 . S
C1891 H1907 0.960 . S
H1892 C1876 0.931 . S
H1893 C1881 0.929 . S
H1894 C1882 0.960 . S
H1895 C1882 0.962 . S
H1896 C1882 0.960 . S
H1897 C1883 0.961 . S
H1898 C1883 0.961 . S
H1899 C1883 0.961 . S
H1900 C1884 0.931 . S
H1901 C1889 0.930 . S
H1902 C1890 0.956 . S
H1903 C1890 0.961 . S
H1904 C1890 0.961 . S
H1905 C1891 0.958 . S
H1906 C1891 0.961 . S
H1907 C1891 0.960 . S
C1908 C1909 1.391 . S
C1908 C1910 1.394 . S
C1908 H1924 0.931 . S
C1909 C1908 1.391 . S
C1909 C1913 1.376 . S
C1910 C1908 1.394 . S
C1910 C1911 1.369 . S
C1910 C1914 1.531 . S
C1911 C1910 1.369 . S
C1911 C1912 1.410 . S
C1911 C1919 1.503 . S
C1912 C1911 1.410 . S
C1912 C1913 1.392 . S
C1912 C1915 1.511 . S
C1913 C1909 1.376 . S
C1913 C1912 1.392 . S
C1913 H1925 0.929 . S
C1914 C1910 1.531 . S
C1914 H1926 0.960 . S
C1914 H1927 0.962 . S
C1914 H1928 0.960 . S
C1915 C1912 1.511 . S
C1915 H1929 0.961 . S
C1915 H1930 0.961 . S
C1915 H1931 0.961 . S
C1916 C1917 1.370 . S
C1916 C1918 1.363 . S
C1916 H1932 0.931 . S
C1917 C1916 1.370 . S
C1917 C1921 1.408 . S
C1918 C1916 1.363 . S
C1918 C1919 1.370 . S
C1918 C1922 1.524 . S
C1919 C1911 1.503 . S
C1919 C1918 1.370 . S
C1919 C1920 1.403 . S
C1920 C1919 1.403 . S
C1920 C1921 1.404 . S
C1920 C1923 1.539 . S
C1921 C1917 1.408 . S
C1921 C1920 1.404 . S
C1921 H1933 0.930 . S
C1922 C1918 1.524 . S
C1922 H1934 0.956 . S
C1922 H1935 0.961 . S
C1922 H1936 0.961 . S
C1923 C1920 1.539 . S
C1923 H1937 0.958 . S
C1923 H1938 0.961 . S
C1923 H1939 0.960 . S
H1924 C1908 0.931 . S
H1925 C1913 0.929 . S
H1926 C1914 0.960 . S
H1927 C1914 0.962 . S
H1928 C1914 0.960 . S
H1929 C1915 0.961 . S
H1930 C1915 0.961 . S
H1931 C1915 0.961 . S
H1932 C1916 0.931 . S
H1933 C1921 0.930 . S
H1934 C1922 0.956 . S
H1935 C1922 0.961 . S
H1936 C1922 0.961 . S
H1937 C1923 0.958 . S
H1938 C1923 0.961 . S
H1939 C1923 0.960 . S
C1940 C1941 1.391 . S
C1940 C1942 1.394 . S
C1940 H1956 0.931 . S
C1941 C1940 1.391 . S
C1941 C1945 1.376 . S
C1942 C1940 1.394 . S
C1942 C1943 1.369 . S
C1942 C1946 1.531 . S
C1943 C1942 1.369 . S
C1943 C1944 1.410 . S
C1943 C1951 1.503 . S
C1944 C1943 1.410 . S
C1944 C1945 1.392 . S
C1944 C1947 1.511 . S
C1945 C1941 1.376 . S
C1945 C1944 1.392 . S
C1945 H1957 0.929 . S
C1946 C1942 1.531 . S
C1946 H1958 0.960 . S
C1946 H1959 0.962 . S
C1946 H1960 0.960 . S
C1947 C1944 1.511 . S
C1947 H1961 0.961 . S
C1947 H1962 0.961 . S
C1947 H1963 0.961 . S
C1948 C1949 1.370 . S
C1948 C1950 1.363 . S
C1948 H1964 0.931 . S
C1949 C1948 1.370 . S
C1949 C1953 1.408 . S
C1950 C1948 1.363 . S
C1950 C1951 1.370 . S
C1950 C1954 1.524 . S
C1951 C1943 1.503 . S
C1951 C1950 1.370 . S
C1951 C1952 1.403 . S
C1952 C1951 1.403 . S
C1952 C1953 1.404 . S
C1952 C1955 1.539 . S
C1953 C1949 1.408 . S
C1953 C1952 1.404 . S
C1953 H1965 0.930 . S
C1954 C1950 1.524 . S
C1954 H1966 0.956 . S
C1954 H1967 0.961 . S
C1954 H1968 0.961 . S
C1955 C1952 1.539 . S
C1955 H1969 0.958 . S
C1955 H1970 0.961 . S
C1955 H1971 0.960 . S
H1956 C1940 0.931 . S
H1957 C1945 0.929 . S
H1958 C1946 0.960 . S
H1959 C1946 0.962 . S
H1960 C1946 0.960 . S
H1961 C1947 0.961 . S
H1962 C1947 0.961 . S
H1963 C1947 0.961 . S
H1964 C1948 0.931 . S
H1965 C1953 0.930 . S
H1966 C1954 0.956 . S
H1967 C1954 0.961 . S
H1968 C1954 0.961 . S
H1969 C1955 0.958 . S
H1970 C1955 0.961 . S
H1971 C1955 0.960 . S
C1972 C1973 1.391 . S
C1972 C1974 1.394 . S
C1972 H1988 0.931 . S
C1973 C1972 1.391 . S
C1973 C1977 1.376 . S
C1974 C1972 1.394 . S
C1974 C1975 1.369 . S
C1974 C1978 1.531 . S
C1975 C1974 1.369 . S
C1975 C1976 1.410 . S
C1975 C1983 1.503 . S
C1976 C1975 1.410 . S
C1976 C1977 1.392 . S
C1976 C1979 1.511 . S
C1977 C1973 1.376 . S
C1977 C1976 1.392 . S
C1977 H1989 0.929 . S
C1978 C1974 1.531 . S
C1978 H1990 0.960 . S
C1978 H1991 0.962 . S
C1978 H1992 0.960 . S
C1979 C1976 1.511 . S
C1979 H1993 0.961 . S
C1979 H1994 0.961 . S
C1979 H1995 0.961 . S
C1980 C1981 1.370 . S
C1980 C1982 1.363 . S
C1980 H1996 0.931 . S
C1981 C1980 1.370 . S
C1981 C1985 1.408 . S
C1982 C1980 1.363 . S
C1982 C1983 1.370 . S
C1982 C1986 1.524 . S
C1983 C1975 1.503 . S
C1983 C1982 1.370 . S
C1983 C1984 1.403 . S
C1984 C1983 1.403 . S
C1984 C1985 1.404 . S
C1984 C1987 1.539 . S
C1985 C1981 1.408 . S
C1985 C1984 1.404 . S
C1985 H1997 0.930 . S
C1986 C1982 1.524 . S
C1986 H1998 0.956 . S
C1986 H1999 0.961 . S
C1986 H2000 0.961 . S
C1987 C1984 1.539 . S
C1987 H2001 0.958 . S
C1987 H2002 0.961 . S
C1987 H2003 0.960 . S
H1988 C1972 0.931 . S
H1989 C1977 0.929 . S
H1990 C1978 0.960 . S
H1991 C1978 0.962 . S
H1992 C1978 0.960 . S
H1993 C1979 0.961 . S
H1994 C1979 0.961 . S
H1995 C1979 0.961 . S
H1996 C1980 0.931 . S
H1997 C1985 0.930 . S
H1998 C1986 0.956 . S
H1999 C1986 0.961 . S
H2000 C1986 0.961 . S
H2001 C1987 0.958 . S
H2002 C1987 0.961 . S
H2003 C1987 0.960 . S
C2004 C2005 1.391 . S
C2004 C2006 1.394 . S
C2004 H2020 0.931 . S
C2005 C2004 1.391 . S
C2005 C2009 1.376 . S
C2006 C2004 1.394 . S
C2006 C2007 1.369 . S
C2006 C2010 1.531 . S
C2007 C2006 1.369 . S
C2007 C2008 1.410 . S
C2007 C2015 1.503 . S
C2008 C2007 1.410 . S
C2008 C2009 1.392 . S
C2008 C2011 1.511 . S
C2009 C2005 1.376 . S
C2009 C2008 1.392 . S
C2009 H2021 0.929 . S
C2010 C2006 1.531 . S
C2010 H2022 0.960 . S
C2010 H2023 0.962 . S
C2010 H2024 0.960 . S
C2011 C2008 1.511 . S
C2011 H2025 0.961 . S
C2011 H2026 0.961 . S
C2011 H2027 0.961 . S
C2012 C2013 1.370 . S
C2012 C2014 1.363 . S
C2012 H2028 0.931 . S
C2013 C2012 1.370 . S
C2013 C2017 1.408 1_556 S
C2014 C2012 1.363 . S
C2014 C2015 1.370 . S
C2014 C2018 1.524 . S
C2015 C2007 1.503 . S
C2015 C2014 1.370 . S
C2015 C2016 1.403 . S
C2016 C2015 1.403 . S
C2016 C2017 1.404 1_556 S
C2016 C2019 1.539 1_556 S
C2017 C2013 1.408 1_554 S
C2017 C2016 1.404 1_554 S
C2017 H2029 0.930 . S
C2018 C2014 1.524 . S
C2018 H2030 0.956 . S
C2018 H2031 0.961 . S
C2018 H2032 0.961 . S
C2019 C2016 1.539 1_554 S
C2019 H2033 0.958 . S
C2019 H2034 0.961 . S
C2019 H2035 0.960 1_554 S
H2020 C2004 0.931 . S
H2021 C2009 0.929 . S
H2022 C2010 0.960 . S
H2023 C2010 0.962 . S
H2024 C2010 0.960 . S
H2025 C2011 0.961 . S
H2026 C2011 0.961 . S
H2027 C2011 0.961 . S
H2028 C2012 0.931 . S
H2029 C2017 0.930 . S
H2030 C2018 0.956 . S
H2031 C2018 0.961 . S
H2032 C2018 0.961 . S
H2033 C2019 0.958 . S
H2034 C2019 0.961 . S
H2035 C2019 0.960 1_556 S
C2036 C2037 1.391 . S
C2036 C2038 1.394 . S
C2036 H2052 0.931 . S
C2037 C2036 1.391 . S
C2037 C2041 1.376 1_556 S
C2038 C2036 1.394 . S
C2038 C2039 1.369 . S
C2038 C2042 1.531 . S
C2039 C2038 1.369 . S
C2039 C2040 1.410 . S
C2039 C2047 1.503 . S
C2040 C2039 1.410 . S
C2040 C2041 1.392 1_556 S
C2040 C2043 1.511 . S
C2041 C2037 1.376 1_554 S
C2041 C2040 1.392 1_554 S
C2041 H2053 0.929 . S
C2042 C2038 1.531 . S
C2042 H2054 0.960 . S
C2042 H2055 0.962 . S
C2042 H2056 0.960 . S
C2043 C2040 1.511 . S
C2043 H2057 0.961 1_556 S
C2043 H2058 0.961 . S
C2043 H2059 0.961 1_556 S
C2044 C2045 1.370 . S
C2044 C2046 1.363 . S
C2044 H2060 0.931 . S
C2045 C2044 1.370 . S
C2045 C2049 1.408 . S
C2046 C2044 1.363 . S
C2046 C2047 1.370 . S
C2046 C2050 1.524 . S
C2047 C2039 1.503 . S
C2047 C2046 1.370 . S
C2047 C2048 1.403 . S
C2048 C2047 1.403 . S
C2048 C2049 1.404 . S
C2048 C2051 1.539 . S
C2049 C2045 1.408 . S
C2049 C2048 1.404 . S
C2049 H2061 0.930 . S
C2050 C2046 1.524 . S
C2050 H2062 0.956 . S
C2050 H2063 0.961 . S
C2050 H2064 0.961 . S
C2051 C2048 1.539 . S
C2051 H2065 0.958 . S
C2051 H2066 0.961 . S
C2051 H2067 0.960 . S
H2052 C2036 0.931 . S
H2053 C2041 0.929 . S
H2054 C2042 0.960 . S
H2055 C2042 0.962 . S
H2056 C2042 0.960 . S
H2057 C2043 0.961 1_554 S
H2058 C2043 0.961 . S
H2059 C2043 0.961 1_554 S
H2060 C2044 0.931 . S
H2061 C2049 0.930 . S
H2062 C2050 0.956 . S
H2063 C2050 0.961 . S
H2064 C2050 0.961 . S
H2065 C2051 0.958 . S
H2066 C2051 0.961 . S
H2067 C2051 0.960 . S
C2068 C2069 1.391 . S
C2068 C2070 1.394 . S
C2068 H2084 0.931 . S
C2069 C2068 1.391 . S
C2069 C2073 1.376 . S
C2070 C2068 1.394 . S
C2070 C2071 1.369 . S
C2070 C2074 1.531 . S
C2071 C2070 1.369 . S
C2071 C2072 1.410 . S
C2071 C2079 1.503 . S
C2072 C2071 1.410 . S
C2072 C2073 1.392 . S
C2072 C2075 1.511 . S
C2073 C2069 1.376 . S
C2073 C2072 1.392 . S
C2073 H2085 0.929 . S
C2074 C2070 1.531 . S
C2074 H2086 0.960 . S
C2074 H2087 0.962 . S
C2074 H2088 0.960 . S
C2075 C2072 1.511 . S
C2075 H2089 0.961 . S
C2075 H2090 0.961 . S
C2075 H2091 0.961 . S
C2076 C2077 1.370 . S
C2076 C2078 1.363 . S
C2076 H2092 0.931 1_556 S
C2077 C2076 1.370 . S
C2077 C2081 1.408 . S
C2078 C2076 1.363 . S
C2078 C2079 1.370 . S
C2078 C2082 1.524 . S
C2079 C2071 1.503 . S
C2079 C2078 1.370 . S
C2079 C2080 1.403 . S
C2080 C2079 1.403 . S
C2080 C2081 1.404 . S
C2080 C2083 1.539 . S
C2081 C2077 1.408 . S
C2081 C2080 1.404 . S
C2081 H2093 0.930 . S
C2082 C2078 1.524 . S
C2082 H2094 0.956 . S
C2082 H2095 0.961 . S
C2082 H2096 0.961 . S
C2083 C2080 1.539 . S
C2083 H2097 0.958 . S
C2083 H2098 0.961 . S
C2083 H2099 0.960 . S
H2084 C2068 0.931 . S
H2085 C2073 0.929 . S
H2086 C2074 0.960 . S
H2087 C2074 0.962 . S
H2088 C2074 0.960 . S
H2089 C2075 0.961 . S
H2090 C2075 0.961 . S
H2091 C2075 0.961 . S
H2092 C2076 0.931 1_554 S
H2093 C2081 0.930 . S
H2094 C2082 0.956 . S
H2095 C2082 0.961 . S
H2096 C2082 0.961 . S
H2097 C2083 0.958 . S
H2098 C2083 0.961 . S
H2099 C2083 0.960 . S
C2100 C2101 1.391 . S
C2100 C2102 1.394 . S
C2100 H2116 0.931 . S
C2101 C2100 1.391 . S
C2101 C2105 1.376 . S
C2102 C2100 1.394 . S
C2102 C2103 1.369 . S
C2102 C2106 1.531 . S
C2103 C2102 1.369 . S
C2103 C2104 1.410 . S
C2103 C2111 1.503 . S
C2104 C2103 1.410 . S
C2104 C2105 1.392 . S
C2104 C2107 1.511 1_556 S
C2105 C2101 1.376 . S
C2105 C2104 1.392 . S
C2105 H2117 0.929 . S
C2106 C2102 1.531 . S
C2106 H2118 0.960 . S
C2106 H2119 0.962 . S
C2106 H2120 0.960 . S
C2107 C2104 1.511 1_554 S
C2107 H2121 0.961 . S
C2107 H2122 0.961 . S
C2107 H2123 0.961 . S
C2108 C2109 1.370 . S
C2108 C2110 1.363 1_554 S
C2108 H2124 0.931 . S
C2109 C2108 1.370 . S
C2109 C2113 1.408 . S
C2110 C2108 1.363 1_556 S
C2110 C2111 1.370 . S
C2110 C2114 1.524 . S
C2111 C2103 1.503 . S
C2111 C2110 1.370 . S
C2111 C2112 1.403 1_556 S
C2112 C2111 1.403 1_554 S
C2112 C2113 1.404 . S
C2112 C2115 1.539 . S
C2113 C2109 1.408 . S
C2113 C2112 1.404 . S
C2113 H2125 0.930 . S
C2114 C2110 1.524 . S
C2114 H2126 0.956 . S
C2114 H2127 0.961 . S
C2114 H2128 0.961 . S
C2115 C2112 1.539 . S
C2115 H2129 0.958 . S
C2115 H2130 0.961 . S
C2115 H2131 0.960 . S
H2116 C2100 0.931 . S
H2117 C2105 0.929 . S
H2118 C2106 0.960 . S
H2119 C2106 0.962 . S
H2120 C2106 0.960 . S
H2121 C2107 0.961 . S
H2122 C2107 0.961 . S
H2123 C2107 0.961 . S
H2124 C2108 0.931 . S
H2125 C2113 0.930 . S
H2126 C2114 0.956 . S
H2127 C2114 0.961 . S
H2128 C2114 0.961 . S
H2129 C2115 0.958 . S
H2130 C2115 0.961 . S
H2131 C2115 0.960 . S
C2132 C2133 1.391 . S
C2132 C2134 1.394 . S
C2132 H2148 0.931 . S
C2133 C2132 1.391 . S
C2133 C2137 1.376 . S
C2134 C2132 1.394 . S
C2134 C2135 1.369 . S
C2134 C2138 1.531 . S
C2135 C2134 1.369 . S
C2135 C2136 1.410 . S
C2135 C2143 1.503 . S
C2136 C2135 1.410 . S
C2136 C2137 1.392 . S
C2136 C2139 1.511 . S
C2137 C2133 1.376 . S
C2137 C2136 1.392 . S
C2137 H2149 0.929 . S
C2138 C2134 1.531 . S
C2138 H2150 0.960 . S
C2138 H2151 0.962 . S
C2138 H2152 0.960 . S
C2139 C2136 1.511 . S
C2139 H2153 0.961 . S
C2139 H2154 0.961 . S
C2139 H2155 0.961 . S
C2140 C2141 1.370 . S
C2140 C2142 1.363 . S
C2140 H2156 0.931 . S
C2141 C2140 1.370 . S
C2141 C2145 1.408 1_554 S
C2142 C2140 1.363 . S
C2142 C2143 1.370 1_554 S
C2142 C2146 1.524 . S
C2143 C2135 1.503 . S
C2143 C2142 1.370 1_556 S
C2143 C2144 1.403 . S
C2144 C2143 1.403 . S
C2144 C2145 1.404 . S
C2144 C2147 1.539 . S
C2145 C2141 1.408 1_556 S
C2145 C2144 1.404 . S
C2145 H2157 0.930 . S
C2146 C2142 1.524 . S
C2146 H2158 0.956 . S
C2146 H2159 0.961 . S
C2146 H2160 0.961 . S
C2147 C2144 1.539 . S
C2147 H2161 0.958 . S
C2147 H2162 0.961 . S
C2147 H2163 0.960 . S
H2148 C2132 0.931 . S
H2149 C2137 0.929 . S
H2150 C2138 0.960 . S
H2151 C2138 0.962 . S
H2152 C2138 0.960 . S
H2153 C2139 0.961 . S
H2154 C2139 0.961 . S
H2155 C2139 0.961 . S
H2156 C2140 0.931 . S
H2157 C2145 0.930 . S
H2158 C2146 0.956 . S
H2159 C2146 0.961 . S
H2160 C2146 0.961 . S
H2161 C2147 0.958 . S
H2162 C2147 0.961 . S
H2163 C2147 0.960 . S
C2164 C2165 1.391 . S
C2164 C2166 1.394 . S
C2164 H2180 0.931 . S
C2165 C2164 1.391 . S
C2165 C2169 1.376 . S
C2166 C2164 1.394 . S
C2166 C2167 1.369 . S
C2166 C2170 1.531 . S
C2167 C2166 1.369 . S
C2167 C2168 1.410 . S
C2167 C2175 1.503 . S
C2168 C2167 1.410 . S
C2168 C2169 1.392 . S
C2168 C2171 1.511 . S
C2169 C2165 1.376 . S
C2169 C2168 1.392 . S
C2169 H2181 0.929 . S
C2170 C2166 1.531 . S
C2170 H2182 0.960 . S
C2170 H2183 0.962 . S
C2170 H2184 0.960 . S
C2171 C2168 1.511 . S
C2171 H2185 0.961 . S
C2171 H2186 0.961 . S
C2171 H2187 0.961 . S
C2172 C2173 1.370 1_556 S
C2172 C2174 1.363 . S
C2172 H2188 0.931 . S
C2173 C2172 1.370 1_554 S
C2173 C2177 1.408 . S
C2174 C2172 1.363 . S
C2174 C2175 1.370 . S
C2174 C2178 1.524 . S
C2175 C2167 1.503 . S
C2175 C2174 1.370 . S
C2175 C2176 1.403 1_556 S
C2176 C2175 1.403 1_554 S
C2176 C2177 1.404 . S
C2176 C2179 1.539 . S
C2177 C2173 1.408 . S
C2177 C2176 1.404 . S
C2177 H2189 0.930 . S
C2178 C2174 1.524 . S
C2178 H2190 0.956 . S
C2178 H2191 0.961 . S
C2178 H2192 0.961 . S
C2179 C2176 1.539 . S
C2179 H2193 0.958 . S
C2179 H2194 0.961 . S
C2179 H2195 0.960 . S
H2180 C2164 0.931 . S
H2181 C2169 0.929 . S
H2182 C2170 0.960 . S
H2183 C2170 0.962 . S
H2184 C2170 0.960 . S
H2185 C2171 0.961 . S
H2186 C2171 0.961 . S
H2187 C2171 0.961 . S
H2188 C2172 0.931 . S
H2189 C2177 0.930 . S
H2190 C2178 0.956 . S
H2191 C2178 0.961 . S
H2192 C2178 0.961 . S
H2193 C2179 0.958 . S
H2194 C2179 0.961 . S
H2195 C2179 0.960 . S
C2196 C2197 1.391 . S
C2196 C2198 1.394 . S
C2196 H2212 0.931 . S
C2197 C2196 1.391 . S
C2197 C2201 1.376 . S
C2198 C2196 1.394 . S
C2198 C2199 1.369 . S
C2198 C2202 1.531 . S
C2199 C2198 1.369 . S
C2199 C2200 1.410 . S
C2199 C2207 1.503 . S
C2200 C2199 1.410 . S
C2200 C2201 1.392 . S
C2200 C2203 1.511 . S
C2201 C2197 1.376 . S
C2201 C2200 1.392 . S
C2201 H2213 0.929 . S
C2202 C2198 1.531 . S
C2202 H2214 0.960 . S
C2202 H2215 0.962 . S
C2202 H2216 0.960 . S
C2203 C2200 1.511 . S
C2203 H2217 0.961 . S
C2203 H2218 0.961 . S
C2203 H2219 0.961 . S
C2204 C2205 1.370 . S
C2204 C2206 1.363 . S
C2204 H2220 0.931 . S
C2205 C2204 1.370 . S
C2205 C2209 1.408 1_556 S
C2206 C2204 1.363 . S
C2206 C2207 1.370 . S
C2206 C2210 1.524 . S
C2207 C2199 1.503 . S
C2207 C2206 1.370 . S
C2207 C2208 1.403 1_556 S
C2208 C2207 1.403 1_554 S
C2208 C2209 1.404 . S
C2208 C2211 1.539 . S
C2209 C2205 1.408 1_554 S
C2209 C2208 1.404 . S
C2209 H2221 0.930 . S
C2210 C2206 1.524 . S
C2210 H2222 0.956 . S
C2210 H2223 0.961 . S
C2210 H2224 0.961 . S
C2211 C2208 1.539 . S
C2211 H2225 0.958 . S
C2211 H2226 0.961 . S
C2211 H2227 0.960 . S
H2212 C2196 0.931 . S
H2213 C2201 0.929 . S
H2214 C2202 0.960 . S
H2215 C2202 0.962 . S
H2216 C2202 0.960 . S
H2217 C2203 0.961 . S
H2218 C2203 0.961 . S
H2219 C2203 0.961 . S
H2220 C2204 0.931 . S
H2221 C2209 0.930 . S
H2222 C2210 0.956 . S
H2223 C2210 0.961 . S
H2224 C2210 0.961 . S
H2225 C2211 0.958 . S
H2226 C2211 0.961 . S
H2227 C2211 0.960 . S
C2228 C2229 1.391 . S
C2228 C2230 1.394 . S
C2228 H2244 0.931 1_556 S
C2229 C2228 1.391 . S
C2229 C2233 1.376 . S
C2230 C2228 1.394 . S
C2230 C2231 1.369 . S
C2230 C2234 1.531 . S
C2231 C2230 1.369 . S
C2231 C2232 1.410 . S
C2231 C2239 1.503 . S
C2232 C2231 1.410 . S
C2232 C2233 1.392 . S
C2232 C2235 1.511 . S
C2233 C2229 1.376 . S
C2233 C2232 1.392 . S
C2233 H2245 0.929 . S
C2234 C2230 1.531 . S
C2234 H2246 0.960 . S
C2234 H2247 0.962 . S
C2234 H2248 0.960 1_556 S
C2235 C2232 1.511 . S
C2235 H2249 0.961 . S
C2235 H2250 0.961 . S
C2235 H2251 0.961 . S
C2236 C2237 1.370 . S
C2236 C2238 1.363 . S
C2236 H2252 0.931 . S
C2237 C2236 1.370 . S
C2237 C2241 1.408 . S
C2238 C2236 1.363 . S
C2238 C2239 1.370 . S
C2238 C2242 1.524 . S
C2239 C2231 1.503 . S
C2239 C2238 1.370 . S
C2239 C2240 1.403 . S
C2240 C2239 1.403 . S
C2240 C2241 1.404 . S
C2240 C2243 1.539 1_556 S
C2241 C2237 1.408 . S
C2241 C2240 1.404 . S
C2241 H2253 0.930 . S
C2242 C2238 1.524 . S
C2242 H2254 0.956 . S
C2242 H2255 0.961 . S
C2242 H2256 0.961 . S
C2243 C2240 1.539 1_554 S
C2243 H2257 0.958 . S
C2243 H2258 0.961 . S
C2243 H2259 0.960 . S
H2244 C2228 0.931 1_554 S
H2245 C2233 0.929 . S
H2246 C2234 0.960 . S
H2247 C2234 0.962 . S
H2248 C2234 0.960 1_554 S
H2249 C2235 0.961 . S
H2250 C2235 0.961 . S
H2251 C2235 0.961 . S
H2252 C2236 0.931 . S
H2253 C2241 0.930 . S
H2254 C2242 0.956 . S
H2255 C2242 0.961 . S
H2256 C2242 0.961 . S
H2257 C2243 0.958 . S
H2258 C2243 0.961 . S
H2259 C2243 0.960 . S
C2260 C2261 1.391 . S
C2260 C2262 1.394 . S
C2260 H2276 0.931 . S
C2261 C2260 1.391 . S
C2261 C2265 1.376 . S
C2262 C2260 1.394 . S
C2262 C2263 1.369 . S
C2262 C2266 1.531 . S
C2263 C2262 1.369 . S
C2263 C2264 1.410 . S
C2263 C2271 1.503 . S
C2264 C2263 1.410 . S
C2264 C2265 1.392 . S
C2264 C2267 1.511 . S
C2265 C2261 1.376 . S
C2265 C2264 1.392 . S
C2265 H2277 0.929 . S
C2266 C2262 1.531 . S
C2266 H2278 0.960 . S
C2266 H2279 0.962 . S
C2266 H2280 0.960 . S
C2267 C2264 1.511 . S
C2267 H2281 0.961 . S
C2267 H2282 0.961 . S
C2267 H2283 0.961 . S
C2268 C2269 1.370 . S
C2268 C2270 1.363 . S
C2268 H2284 0.931 . S
C2269 C2268 1.370 . S
C2269 C2273 1.408 1_556 S
C2270 C2268 1.363 . S
C2270 C2271 1.370 . S
C2270 C2274 1.524 . S
C2271 C2263 1.503 . S
C2271 C2270 1.370 . S
C2271 C2272 1.403 1_556 S
C2272 C2271 1.403 1_554 S
C2272 C2273 1.404 . S
C2272 C2275 1.539 . S
C2273 C2269 1.408 1_554 S
C2273 C2272 1.404 . S
C2273 H2285 0.930 . S
C2274 C2270 1.524 . S
C2274 H2286 0.956 . S
C2274 H2287 0.961 . S
C2274 H2288 0.961 . S
C2275 C2272 1.539 . S
C2275 H2289 0.958 . S
C2275 H2290 0.961 . S
C2275 H2291 0.960 . S
H2276 C2260 0.931 . S
H2277 C2265 0.929 . S
H2278 C2266 0.960 . S
H2279 C2266 0.962 . S
H2280 C2266 0.960 . S
H2281 C2267 0.961 . S
H2282 C2267 0.961 . S
H2283 C2267 0.961 . S
H2284 C2268 0.931 . S
H2285 C2273 0.930 . S
H2286 C2274 0.956 . S
H2287 C2274 0.961 . S
H2288 C2274 0.961 . S
H2289 C2275 0.958 . S
H2290 C2275 0.961 . S
H2291 C2275 0.960 . S
C2292 C2293 1.391 . S
C2292 C2294 1.394 . S
C2292 H2308 0.931 . S
C2293 C2292 1.391 . S
C2293 C2297 1.376 . S
C2294 C2292 1.394 . S
C2294 C2295 1.369 . S
C2294 C2298 1.531 . S
C2295 C2294 1.369 . S
C2295 C2296 1.410 . S
C2295 C2303 1.503 . S
C2296 C2295 1.410 . S
C2296 C2297 1.392 . S
C2296 C2299 1.511 . S
C2297 C2293 1.376 . S
C2297 C2296 1.392 . S
C2297 H2309 0.929 . S
C2298 C2294 1.531 . S
C2298 H2310 0.960 . S
C2298 H2311 0.962 . S
C2298 H2312 0.960 . S
C2299 C2296 1.511 . S
C2299 H2313 0.961 . S
C2299 H2314 0.961 . S
C2299 H2315 0.961 . S
C2300 C2301 1.370 . S
C2300 C2302 1.363 . S
C2300 H2316 0.931 . S
C2301 C2300 1.370 . S
C2301 C2305 1.408 . S
C2302 C2300 1.363 . S
C2302 C2303 1.370 . S
C2302 C2306 1.524 . S
C2303 C2295 1.503 . S
C2303 C2302 1.370 . S
C2303 C2304 1.403 . S
C2304 C2303 1.403 . S
C2304 C2305 1.404 . S
C2304 C2307 1.539 . S
C2305 C2301 1.408 . S
C2305 C2304 1.404 . S
C2305 H2317 0.930 . S
C2306 C2302 1.524 . S
C2306 H2318 0.956 . S
C2306 H2319 0.961 . S
C2306 H2320 0.961 . S
C2307 C2304 1.539 . S
C2307 H2321 0.958 . S
C2307 H2322 0.961 . S
C2307 H2323 0.960 . S
H2308 C2292 0.931 . S
H2309 C2297 0.929 . S
H2310 C2298 0.960 . S
H2311 C2298 0.962 . S
H2312 C2298 0.960 . S
H2313 C2299 0.961 . S
H2314 C2299 0.961 . S
H2315 C2299 0.961 . S
H2316 C2300 0.931 . S
H2317 C2305 0.930 . S
H2318 C2306 0.956 . S
H2319 C2306 0.961 . S
H2320 C2306 0.961 . S
H2321 C2307 0.958 . S
H2322 C2307 0.961 . S
H2323 C2307 0.960 . S
C2324 C2325 1.391 . S
C2324 C2326 1.394 . S
C2324 H2340 0.931 . S
C2325 C2324 1.391 . S
C2325 C2329 1.376 . S
C2326 C2324 1.394 . S
C2326 C2327 1.369 . S
C2326 C2330 1.531 . S
C2327 C2326 1.369 . S
C2327 C2328 1.410 . S
C2327 C2335 1.503 . S
C2328 C2327 1.410 . S
C2328 C2329 1.392 . S
C2328 C2331 1.511 . S
C2329 C2325 1.376 . S
C2329 C2328 1.392 . S
C2329 H2341 0.929 . S
C2330 C2326 1.531 . S
C2330 H2342 0.960 . S
C2330 H2343 0.962 . S
C2330 H2344 0.960 . S
C2331 C2328 1.511 . S
C2331 H2345 0.961 . S
C2331 H2346 0.961 . S
C2331 H2347 0.961 . S
C2332 C2333 1.370 . S
C2332 C2334 1.363 . S
C2332 H2348 0.931 . S
C2333 C2332 1.370 . S
C2333 C2337 1.408 . S
C2334 C2332 1.363 . S
C2334 C2335 1.370 . S
C2334 C2338 1.524 . S
C2335 C2327 1.503 . S
C2335 C2334 1.370 . S
C2335 C2336 1.403 . S
C2336 C2335 1.403 . S
C2336 C2337 1.404 . S
C2336 C2339 1.539 . S
C2337 C2333 1.408 . S
C2337 C2336 1.404 . S
C2337 H2349 0.930 . S
C2338 C2334 1.524 . S
C2338 H2350 0.956 . S
C2338 H2351 0.961 . S
C2338 H2352 0.961 . S
C2339 C2336 1.539 . S
C2339 H2353 0.958 . S
C2339 H2354 0.961 . S
C2339 H2355 0.960 . S
H2340 C2324 0.931 . S
H2341 C2329 0.929 . S
H2342 C2330 0.960 . S
H2343 C2330 0.962 . S
H2344 C2330 0.960 . S
H2345 C2331 0.961 . S
H2346 C2331 0.961 . S
H2347 C2331 0.961 . S
H2348 C2332 0.931 . S
H2349 C2337 0.930 . S
H2350 C2338 0.956 . S
H2351 C2338 0.961 . S
H2352 C2338 0.961 . S
H2353 C2339 0.958 . S
H2354 C2339 0.961 . S
H2355 C2339 0.960 . S
C2356 C2357 1.391 . S
C2356 C2358 1.394 . S
C2356 H2372 0.931 . S
C2357 C2356 1.391 . S
C2357 C2361 1.376 . S
C2358 C2356 1.394 . S
C2358 C2359 1.369 . S
C2358 C2362 1.531 . S
C2359 C2358 1.369 . S
C2359 C2360 1.410 . S
C2359 C2367 1.503 . S
C2360 C2359 1.410 . S
C2360 C2361 1.392 . S
C2360 C2363 1.511 . S
C2361 C2357 1.376 . S
C2361 C2360 1.392 . S
C2361 H2373 0.929 . S
C2362 C2358 1.531 . S
C2362 H2374 0.960 . S
C2362 H2375 0.962 . S
C2362 H2376 0.960 . S
C2363 C2360 1.511 . S
C2363 H2377 0.961 . S
C2363 H2378 0.961 . S
C2363 H2379 0.961 . S
C2364 C2365 1.370 . S
C2364 C2366 1.363 . S
C2364 H2380 0.931 . S
C2365 C2364 1.370 . S
C2365 C2369 1.408 . S
C2366 C2364 1.363 . S
C2366 C2367 1.370 . S
C2366 C2370 1.524 . S
C2367 C2359 1.503 . S
C2367 C2366 1.370 . S
C2367 C2368 1.403 . S
C2368 C2367 1.403 . S
C2368 C2369 1.404 . S
C2368 C2371 1.539 . S
C2369 C2365 1.408 . S
C2369 C2368 1.404 . S
C2369 H2381 0.930 . S
C2370 C2366 1.524 . S
C2370 H2382 0.956 . S
C2370 H2383 0.961 . S
C2370 H2384 0.961 . S
C2371 C2368 1.539 . S
C2371 H2385 0.958 . S
C2371 H2386 0.961 . S
C2371 H2387 0.960 . S
H2372 C2356 0.931 . S
H2373 C2361 0.929 . S
H2374 C2362 0.960 . S
H2375 C2362 0.962 . S
H2376 C2362 0.960 . S
H2377 C2363 0.961 . S
H2378 C2363 0.961 . S
H2379 C2363 0.961 . S
H2380 C2364 0.931 . S
H2381 C2369 0.930 . S
H2382 C2370 0.956 . S
H2383 C2370 0.961 . S
H2384 C2370 0.961 . S
H2385 C2371 0.958 . S
H2386 C2371 0.961 . S
H2387 C2371 0.960 . S
C2388 C2389 1.391 . S
C2388 C2390 1.394 . S
C2388 H2404 0.931 . S
C2389 C2388 1.391 . S
C2389 C2393 1.376 1_554 S
C2390 C2388 1.394 . S
C2390 C2391 1.369 . S
C2390 C2394 1.531 . S
C2391 C2390 1.369 . S
C2391 C2392 1.400 1_554 S
C2391 C2399 1.503 . S
C2392 C2391 1.400 1_556 S
C2392 C2393 1.396 . S
C2392 C2395 1.517 . S
C2393 C2389 1.376 1_556 S
C2393 C2392 1.396 . S
C2393 H2405 0.929 . S
C2394 C2390 1.531 . S
C2394 H2406 0.960 . S
C2394 H2407 0.962 . S
C2394 H2408 0.960 . S
C2395 C2392 1.517 . S
C2395 H2409 0.961 . S
C2395 H2410 0.961 . S
C2395 H2411 0.961 . S
C2396 C2397 1.370 . S
C2396 C2398 1.363 . S
C2396 H2412 0.931 . S
C2397 C2396 1.370 . S
C2397 C2401 1.408 . S
C2398 C2396 1.363 . S
C2398 C2399 1.370 . S
C2398 C2402 1.524 . S
C2399 C2391 1.503 . S
C2399 C2398 1.370 . S
C2399 C2400 1.403 . S
C2400 C2399 1.403 . S
C2400 C2401 1.404 . S
C2400 C2403 1.539 . S
C2401 C2397 1.408 . S
C2401 C2400 1.404 . S
C2401 H2413 0.930 . S
C2402 C2398 1.524 . S
C2402 H2414 0.956 . S
C2402 H2415 0.961 . S
C2402 H2416 0.961 . S
C2403 C2400 1.539 . S
C2403 H2417 0.958 . S
C2403 H2418 0.961 . S
C2403 H2419 0.960 . S
H2404 C2388 0.931 . S
H2405 C2393 0.929 . S
H2406 C2394 0.960 . S
H2407 C2394 0.962 . S
H2408 C2394 0.960 . S
H2409 C2395 0.961 . S
H2410 C2395 0.961 . S
H2411 C2395 0.961 . S
H2412 C2396 0.931 . S
H2413 C2401 0.930 . S
H2414 C2402 0.956 . S
H2415 C2402 0.961 . S
H2416 C2402 0.961 . S
H2417 C2403 0.958 . S
H2418 C2403 0.961 . S
H2419 C2403 0.960 . S
C2420 C2421 1.391 . S
C2420 C2422 1.394 . S
C2420 H2436 0.931 . S
C2421 C2420 1.391 . S
C2421 C2425 1.376 . S
C2422 C2420 1.394 . S
C2422 C2423 1.369 . S
C2422 C2426 1.531 1_554 S
C2423 C2422 1.369 . S
C2423 C2424 1.410 . S
C2423 C2431 1.503 . S
C2424 C2423 1.410 . S
C2424 C2425 1.392 . S
C2424 C2427 1.511 . S
C2425 C2421 1.376 . S
C2425 C2424 1.392 . S
C2425 H2437 0.929 . S
C2426 C2422 1.531 1_556 S
C2426 H2438 0.960 . S
C2426 H2439 0.962 . S
C2426 H2440 0.960 . S
C2427 C2424 1.511 . S
C2427 H2441 0.961 . S
C2427 H2442 0.961 . S
C2427 H2443 0.961 . S
C2428 C2429 1.370 . S
C2428 C2430 1.363 . S
C2428 H2444 0.931 1_554 S
C2429 C2428 1.370 . S
C2429 C2433 1.408 . S
C2430 C2428 1.363 . S
C2430 C2431 1.370 . S
C2430 C2434 1.524 . S
C2431 C2423 1.503 . S
C2431 C2430 1.370 . S
C2431 C2432 1.403 . S
C2432 C2431 1.403 . S
C2432 C2433 1.404 . S
C2432 C2435 1.539 . S
C2433 C2429 1.408 . S
C2433 C2432 1.404 . S
C2433 H2445 0.930 . S
C2434 C2430 1.524 . S
C2434 H2446 0.956 . S
C2434 H2447 0.961 . S
C2434 H2448 0.961 . S
C2435 C2432 1.539 . S
C2435 H2449 0.958 . S
C2435 H2450 0.961 . S
C2435 H2451 0.960 . S
H2436 C2420 0.931 . S
H2437 C2425 0.929 . S
H2438 C2426 0.960 . S
H2439 C2426 0.962 . S
H2440 C2426 0.960 . S
H2441 C2427 0.961 . S
H2442 C2427 0.961 . S
H2443 C2427 0.961 . S
H2444 C2428 0.931 1_556 S
H2445 C2433 0.930 . S
H2446 C2434 0.956 . S
H2447 C2434 0.961 . S
H2448 C2434 0.961 . S
H2449 C2435 0.958 . S
H2450 C2435 0.961 . S
H2451 C2435 0.960 . S
C2452 C2453 1.391 . S
C2452 C2454 1.394 . S
C2452 H2468 0.931 . S
C2453 C2452 1.391 . S
C2453 C2457 1.376 . S
C2454 C2452 1.394 . S
C2454 C2455 1.369 . S
C2454 C2458 1.531 . S
C2455 C2454 1.369 . S
C2455 C2456 1.410 . S
C2455 C2463 1.503 . S
C2456 C2455 1.410 . S
C2456 C2457 1.392 . S
C2456 C2459 1.511 1_554 S
C2457 C2453 1.376 . S
C2457 C2456 1.392 . S
C2457 H2469 0.929 . S
C2458 C2454 1.531 . S
C2458 H2470 0.960 . S
C2458 H2471 0.962 . S
C2458 H2472 0.960 . S
C2459 C2456 1.511 1_556 S
C2459 H2473 0.961 . S
C2459 H2474 0.961 . S
C2459 H2475 0.961 . S
C2460 C2461 1.370 . S
C2460 C2462 1.363 . S
C2460 H2476 0.931 . S
C2461 C2460 1.370 . S
C2461 C2465 1.408 . S
C2462 C2460 1.363 . S
C2462 C2463 1.370 . S
C2462 C2466 1.524 . S
C2463 C2455 1.503 . S
C2463 C2462 1.370 . S
C2463 C2464 1.403 . S
C2464 C2463 1.403 . S
C2464 C2465 1.404 . S
C2464 C2467 1.539 . S
C2465 C2461 1.408 . S
C2465 C2464 1.404 . S
C2465 H2477 0.930 1_554 S
C2466 C2462 1.524 . S
C2466 H2478 0.956 . S
C2466 H2479 0.961 . S
C2466 H2480 0.961 . S
C2467 C2464 1.539 . S
C2467 H2481 0.958 . S
C2467 H2482 0.961 1_554 S
C2467 H2483 0.960 . S
H2468 C2452 0.931 . S
H2469 C2457 0.929 . S
H2470 C2458 0.960 . S
H2471 C2458 0.962 . S
H2472 C2458 0.960 . S
H2473 C2459 0.961 . S
H2474 C2459 0.961 . S
H2475 C2459 0.961 . S
H2476 C2460 0.931 . S
H2477 C2465 0.930 1_556 S
H2478 C2466 0.956 . S
H2479 C2466 0.961 . S
H2480 C2466 0.961 . S
H2481 C2467 0.958 . S
H2482 C2467 0.961 1_556 S
H2483 C2467 0.960 . S
C2484 C2485 1.391 . S
C2484 C2486 1.394 . S
C2484 H2500 0.931 . S
C2485 C2484 1.391 . S
C2485 C2489 1.376 . S
C2486 C2484 1.394 . S
C2486 C2487 1.369 . S
C2486 C2490 1.531 . S
C2487 C2486 1.369 . S
C2487 C2488 1.410 . S
C2487 C2495 1.503 . S
C2488 C2487 1.410 . S
C2488 C2489 1.392 . S
C2488 C2491 1.511 . S
C2489 C2485 1.376 . S
C2489 C2488 1.392 . S
C2489 H2501 0.929 . S
C2490 C2486 1.531 . S
C2490 H2502 0.960 . S
C2490 H2503 0.962 . S
C2490 H2504 0.960 . S
C2491 C2488 1.511 . S
C2491 H2505 0.961 . S
C2491 H2506 0.961 . S
C2491 H2507 0.961 . S
C2492 C2493 1.370 . S
C2492 C2494 1.363 . S
C2492 H2508 0.931 . S
C2493 C2492 1.370 . S
C2493 C2497 1.408 . S
C2494 C2492 1.363 . S
C2494 C2495 1.370 . S
C2494 C2498 1.524 . S
C2495 C2487 1.503 . S
C2495 C2494 1.370 . S
C2495 C2496 1.403 . S
C2496 C2495 1.403 . S
C2496 C2497 1.404 . S
C2496 C2499 1.539 . S
C2497 C2493 1.408 . S
C2497 C2496 1.404 . S
C2497 H2509 0.930 . S
C2498 C2494 1.524 . S
C2498 H2510 0.956 . S
C2498 H2511 0.961 . S
C2498 H2512 0.961 . S
C2499 C2496 1.539 . S
C2499 H2513 0.958 . S
C2499 H2514 0.961 . S
C2499 H2515 0.960 . S
H2500 C2484 0.931 . S
H2501 C2489 0.929 . S
H2502 C2490 0.960 . S
H2503 C2490 0.962 . S
H2504 C2490 0.960 . S
H2505 C2491 0.961 . S
H2506 C2491 0.961 . S
H2507 C2491 0.961 . S
H2508 C2492 0.931 . S
H2509 C2497 0.930 . S
H2510 C2498 0.956 . S
H2511 C2498 0.961 . S
H2512 C2498 0.961 . S
H2513 C2499 0.958 . S
H2514 C2499 0.961 . S
H2515 C2499 0.960 . S
C2516 C2517 1.391 . S
C2516 C2518 1.394 . S
C2516 H2532 0.931 . S
C2517 C2516 1.391 . S
C2517 C2521 1.376 . S
C2518 C2516 1.394 . S
C2518 C2519 1.369 . S
C2518 C2522 1.531 . S
C2519 C2518 1.369 . S
C2519 C2520 1.410 . S
C2519 C2527 1.503 . S
C2520 C2519 1.410 . S
C2520 C2521 1.392 . S
C2520 C2523 1.511 . S
C2521 C2517 1.376 . S
C2521 C2520 1.392 . S
C2521 H2533 0.929 . S
C2522 C2518 1.531 . S
C2522 H2534 0.960 . S
C2522 H2535 0.962 . S
C2522 H2536 0.960 . S
C2523 C2520 1.511 . S
C2523 H2537 0.961 . S
C2523 H2538 0.961 . S
C2523 H2539 0.961 . S
C2524 C2525 1.370 . S
C2524 C2526 1.363 . S
C2524 H2540 0.931 . S
C2525 C2524 1.370 . S
C2525 C2529 1.408 . S
C2526 C2524 1.363 . S
C2526 C2527 1.370 . S
C2526 C2530 1.524 . S
C2527 C2519 1.503 . S
C2527 C2526 1.370 . S
C2527 C2528 1.403 . S
C2528 C2527 1.403 . S
C2528 C2529 1.404 . S
C2528 C2531 1.539 . S
C2529 C2525 1.408 . S
C2529 C2528 1.404 . S
C2529 H2541 0.930 . S
C2530 C2526 1.524 . S
C2530 H2542 0.956 . S
C2530 H2543 0.961 . S
C2530 H2544 0.961 . S
C2531 C2528 1.539 . S
C2531 H2545 0.958 . S
C2531 H2546 0.961 . S
C2531 H2547 0.960 . S
H2532 C2516 0.931 . S
H2533 C2521 0.929 . S
H2534 C2522 0.960 . S
H2535 C2522 0.962 . S
H2536 C2522 0.960 . S
H2537 C2523 0.961 . S
H2538 C2523 0.961 . S
H2539 C2523 0.961 . S
H2540 C2524 0.931 . S
H2541 C2529 0.930 . S
H2542 C2530 0.956 . S
H2543 C2530 0.961 . S
H2544 C2530 0.961 . S
H2545 C2531 0.958 . S
H2546 C2531 0.961 . S
H2547 C2531 0.960 . S
C2548 C2549 1.391 . S
C2548 C2550 1.394 . S
C2548 H2564 0.931 . S
C2549 C2548 1.391 . S
C2549 C2553 1.376 . S
C2550 C2548 1.394 . S
C2550 C2551 1.369 . S
C2550 C2554 1.531 . S
C2551 C2550 1.369 . S
C2551 C2552 1.410 . S
C2551 C2559 1.503 . S
C2552 C2551 1.410 . S
C2552 C2553 1.392 . S
C2552 C2555 1.511 . S
C2553 C2549 1.376 . S
C2553 C2552 1.392 . S
C2553 H2565 0.929 . S
C2554 C2550 1.531 . S
C2554 H2566 0.960 . S
C2554 H2567 0.962 . S
C2554 H2568 0.960 . S
C2555 C2552 1.511 . S
C2555 H2569 0.961 . S
C2555 H2570 0.961 . S
C2555 H2571 0.961 . S
C2556 C2557 1.370 . S
C2556 C2558 1.363 . S
C2556 H2572 0.931 . S
C2557 C2556 1.370 . S
C2557 C2561 1.408 . S
C2558 C2556 1.363 . S
C2558 C2559 1.370 . S
C2558 C2562 1.524 . S
C2559 C2551 1.503 . S
C2559 C2558 1.370 . S
C2559 C2560 1.403 . S
C2560 C2559 1.403 . S
C2560 C2561 1.404 . S
C2560 C2563 1.539 . S
C2561 C2557 1.408 . S
C2561 C2560 1.404 . S
C2561 H2573 0.930 . S
C2562 C2558 1.524 . S
C2562 H2574 0.956 . S
C2562 H2575 0.961 . S
C2562 H2576 0.961 . S
C2563 C2560 1.539 . S
C2563 H2577 0.958 . S
C2563 H2578 0.961 . S
C2563 H2579 0.960 . S
H2564 C2548 0.931 . S
H2565 C2553 0.929 . S
H2566 C2554 0.960 . S
H2567 C2554 0.962 . S
H2568 C2554 0.960 . S
H2569 C2555 0.961 . S
H2570 C2555 0.961 . S
H2571 C2555 0.961 . S
H2572 C2556 0.931 . S
H2573 C2561 0.930 . S
H2574 C2562 0.956 . S
H2575 C2562 0.961 . S
H2576 C2562 0.961 . S
H2577 C2563 0.958 . S
H2578 C2563 0.961 . S
H2579 C2563 0.960 . S
C2580 C2581 1.391 . S
C2580 C2582 1.394 . S
C2580 H2596 0.931 . S
C2581 C2580 1.391 . S
C2581 C2585 1.376 . S
C2582 C2580 1.394 . S
C2582 C2583 1.369 . S
C2582 C2586 1.529 1_655 S
C2583 C2582 1.369 . S
C2583 C2584 1.410 . S
C2583 C2591 1.503 1_655 S
C2584 C2583 1.410 . S
C2584 C2585 1.392 . S
C2584 C2587 1.511 . S
C2585 C2581 1.376 . S
C2585 C2584 1.392 . S
C2585 H2597 0.929 . S
C2586 C2582 1.529 1_455 S
C2586 H2598 0.968 . S
C2586 H2599 0.929 1_455 S
C2586 H2600 0.957 1_455 S
C2587 C2584 1.511 . S
C2587 H2601 0.961 . S
C2587 H2602 0.961 . S
C2587 H2603 0.961 . S
C2588 C2589 1.370 . S
C2588 C2590 1.363 . S
C2588 H2604 0.931 . S
C2589 C2588 1.370 . S
C2589 C2593 1.408 . S
C2590 C2588 1.363 . S
C2590 C2591 1.370 . S
C2590 C2594 1.524 1_455 S
C2591 C2583 1.503 1_455 S
C2591 C2590 1.370 . S
C2591 C2592 1.403 . S
C2592 C2591 1.403 . S
C2592 C2593 1.404 . S
C2592 C2595 1.539 . S
C2593 C2589 1.408 . S
C2593 C2592 1.404 . S
C2593 H2605 0.930 . S
C2594 C2590 1.524 1_655 S
C2594 H2606 0.956 . S
C2594 H2607 0.961 . S
C2594 H2608 0.961 . S
C2595 C2592 1.539 . S
C2595 H2609 0.958 . S
C2595 H2610 0.961 . S
C2595 H2611 0.960 . S
H2596 C2580 0.931 . S
H2597 C2585 0.929 . S
H2598 C2586 0.968 . S
H2599 C2586 0.929 1_655 S
H2600 C2586 0.957 1_655 S
H2601 C2587 0.961 . S
H2602 C2587 0.961 . S
H2603 C2587 0.961 . S
H2604 C2588 0.931 . S
H2605 C2593 0.930 . S
H2606 C2594 0.956 . S
H2607 C2594 0.961 . S
H2608 C2594 0.961 . S
H2609 C2595 0.958 . S
H2610 C2595 0.961 . S
H2611 C2595 0.960 . S
C2612 C2613 1.391 . S
C2612 C2614 1.394 . S
C2612 H2628 0.931 . S
C2613 C2612 1.391 . S
C2613 C2617 1.376 . S
C2614 C2612 1.394 . S
C2614 C2615 1.369 . S
C2614 C2618 1.531 . S
C2615 C2614 1.369 . S
C2615 C2616 1.410 . S
C2615 C2623 1.503 . S
C2616 C2615 1.410 . S
C2616 C2617 1.392 . S
C2616 C2619 1.511 . S
C2617 C2613 1.376 . S
C2617 C2616 1.392 . S
C2617 H2629 0.929 . S
C2618 C2614 1.531 . S
C2618 H2630 0.960 . S
C2618 H2631 0.962 . S
C2618 H2632 0.960 . S
C2619 C2616 1.511 . S
C2619 H2633 0.961 . S
C2619 H2634 0.961 . S
C2619 H2635 0.961 . S
C2620 C2621 1.370 . S
C2620 C2622 1.363 . S
C2620 H2636 0.931 . S
C2621 C2620 1.370 . S
C2621 C2625 1.408 . S
C2622 C2620 1.363 . S
C2622 C2623 1.370 . S
C2622 C2626 1.524 . S
C2623 C2615 1.503 . S
C2623 C2622 1.370 . S
C2623 C2624 1.403 . S
C2624 C2623 1.403 . S
C2624 C2625 1.404 . S
C2624 C2627 1.539 . S
C2625 C2621 1.408 . S
C2625 C2624 1.404 . S
C2625 H2637 0.930 . S
C2626 C2622 1.524 . S
C2626 H2638 0.956 . S
C2626 H2639 0.961 . S
C2626 H2640 0.961 . S
C2627 C2624 1.539 . S
C2627 H2641 0.958 . S
C2627 H2642 0.961 . S
C2627 H2643 0.960 . S
H2628 C2612 0.931 . S
H2629 C2617 0.929 . S
H2630 C2618 0.960 . S
H2631 C2618 0.962 . S
H2632 C2618 0.960 . S
H2633 C2619 0.961 . S
H2634 C2619 0.961 . S
H2635 C2619 0.961 . S
H2636 C2620 0.931 . S
H2637 C2625 0.930 . S
H2638 C2626 0.956 . S
H2639 C2626 0.961 . S
H2640 C2626 0.961 . S
H2641 C2627 0.958 . S
H2642 C2627 0.961 . S
H2643 C2627 0.960 . S
C2644 C2645 1.391 . S
C2644 C2646 1.394 . S
C2644 H2660 0.931 . S
C2645 C2644 1.391 . S
C2645 C2649 1.376 . S
C2646 C2644 1.394 . S
C2646 C2647 1.369 . S
C2646 C2650 1.531 1_565 S
C2647 C2646 1.369 . S
C2647 C2648 1.410 . S
C2647 C2655 1.503 1_565 S
C2648 C2647 1.410 . S
C2648 C2649 1.392 . S
C2648 C2651 1.511 . S
C2649 C2645 1.376 . S
C2649 C2648 1.392 . S
C2649 H2661 0.929 . S
C2650 C2646 1.531 1_545 S
C2650 H2662 0.960 . S
C2650 H2663 0.962 . S
C2650 H2664 0.981 . S
C2651 C2648 1.511 . S
C2651 H2665 0.961 . S
C2651 H2666 0.961 . S
C2651 H2667 0.961 . S
C2652 C2653 1.370 . S
C2652 C2654 1.363 . S
C2652 H2668 0.931 . S
C2653 C2652 1.370 . S
C2653 C2657 1.408 . S
C2654 C2652 1.363 . S
C2654 C2655 1.370 . S
C2654 C2658 1.524 1_545 S
C2655 C2647 1.503 1_545 S
C2655 C2654 1.370 . S
C2655 C2656 1.403 . S
C2656 C2655 1.403 . S
C2656 C2657 1.404 . S
C2656 C2659 1.539 . S
C2657 C2653 1.408 . S
C2657 C2656 1.404 . S
C2657 H2669 0.930 . S
C2658 C2654 1.524 1_565 S
C2658 H2670 0.956 . S
C2658 H2671 0.961 . S
C2658 H2672 0.962 1_565 S
C2659 C2656 1.539 . S
C2659 H2673 0.958 . S
C2659 H2674 0.961 . S
C2659 H2675 0.960 . S
H2660 C2644 0.931 . S
H2661 C2649 0.929 . S
H2662 C2650 0.960 . S
H2663 C2650 0.962 . S
H2664 C2650 0.981 . S
H2665 C2651 0.961 . S
H2666 C2651 0.961 . S
H2667 C2651 0.961 . S
H2668 C2652 0.931 . S
H2669 C2657 0.930 . S
H2670 C2658 0.956 . S
H2671 C2658 0.961 . S
H2672 C2658 0.962 1_545 S
H2673 C2659 0.958 . S
H2674 C2659 0.961 . S
H2675 C2659 0.960 . S
C2676 C2677 1.391 . S
C2676 C2678 1.394 . S
C2676 H2692 0.931 . S
C2677 C2676 1.391 . S
C2677 C2681 1.376 . S
C2678 C2676 1.394 . S
C2678 C2679 1.369 . S
C2678 C2682 1.531 1_545 S
C2679 C2678 1.369 . S
C2679 C2680 1.410 . S
C2679 C2687 1.503 1_545 S
C2680 C2679 1.410 . S
C2680 C2681 1.392 . S
C2680 C2683 1.511 . S
C2681 C2677 1.376 . S
C2681 C2680 1.392 . S
C2681 H2693 0.929 . S
C2682 C2678 1.531 1_565 S
C2682 H2694 0.960 . S
C2682 H2695 0.962 . S
C2682 H2696 0.960 . S
C2683 C2680 1.511 . S
C2683 H2697 0.961 . S
C2683 H2698 0.961 . S
C2683 H2699 0.961 . S
C2684 C2685 1.370 . S
C2684 C2686 1.363 . S
C2684 H2700 0.931 . S
C2685 C2684 1.370 . S
C2685 C2689 1.408 . S
C2686 C2684 1.363 . S
C2686 C2687 1.370 . S
C2686 C2690 1.533 . S
C2687 C2679 1.503 1_565 S
C2687 C2686 1.370 . S
C2687 C2688 1.403 . S
C2688 C2687 1.403 . S
C2688 C2689 1.404 . S
C2688 C2691 1.539 . S
C2689 C2685 1.408 . S
C2689 C2688 1.404 . S
C2689 H2701 0.930 . S
C2690 C2686 1.533 . S
C2690 H2702 0.962 1_565 S
C2690 H2703 0.919 1_565 S
C2690 H2704 0.989 . S
C2691 C2688 1.539 . S
C2691 H2705 0.958 . S
C2691 H2706 0.961 . S
C2691 H2707 0.960 . S
H2692 C2676 0.931 . S
H2693 C2681 0.929 . S
H2694 C2682 0.960 . S
H2695 C2682 0.962 . S
H2696 C2682 0.960 . S
H2697 C2683 0.961 . S
H2698 C2683 0.961 . S
H2699 C2683 0.961 . S
H2700 C2684 0.931 . S
H2701 C2689 0.930 . S
H2702 C2690 0.962 1_545 S
H2703 C2690 0.919 1_545 S
H2704 C2690 0.989 . S
H2705 C2691 0.958 . S
H2706 C2691 0.961 . S
H2707 C2691 0.960 . S
C2708 C2709 1.391 . S
C2708 C2710 1.394 . S
C2708 H2724 0.931 . S
C2709 C2708 1.391 . S
C2709 C2713 1.376 . S
C2710 C2708 1.394 . S
C2710 C2711 1.369 . S
C2710 C2714 1.531 1_455 S
C2711 C2710 1.369 . S
C2711 C2712 1.410 . S
C2711 C2719 1.503 1_455 S
C2712 C2711 1.410 . S
C2712 C2713 1.392 . S
C2712 C2715 1.511 . S
C2713 C2709 1.376 . S
C2713 C2712 1.392 . S
C2713 H2725 0.929 . S
C2714 C2710 1.531 1_655 S
C2714 H2726 0.960 . S
C2714 H2727 0.962 . S
C2714 H2728 0.960 . S
C2715 C2712 1.511 . S
C2715 H2729 0.961 . S
C2715 H2730 0.961 . S
C2715 H2731 0.961 . S
C2716 C2717 1.370 . S
C2716 C2718 1.363 . S
C2716 H2732 0.931 . S
C2717 C2716 1.370 . S
C2717 C2721 1.408 . S
C2718 C2716 1.363 . S
C2718 C2719 1.370 . S
C2718 C2722 1.524 . S
C2719 C2711 1.503 1_655 S
C2719 C2718 1.370 . S
C2719 C2720 1.403 . S
C2720 C2719 1.403 . S
C2720 C2721 1.404 . S
C2720 C2723 1.539 . S
C2721 C2717 1.408 . S
C2721 C2720 1.404 . S
C2721 H2733 0.930 . S
C2722 C2718 1.524 . S
C2722 H2734 0.956 . S
C2722 H2735 0.961 1_655 S
C2722 H2736 0.961 . S
C2723 C2720 1.539 . S
C2723 H2737 0.958 . S
C2723 H2738 0.961 . S
C2723 H2739 0.960 1_655 S
H2724 C2708 0.931 . S
H2725 C2713 0.929 . S
H2726 C2714 0.960 . S
H2727 C2714 0.962 . S
H2728 C2714 0.960 . S
H2729 C2715 0.961 . S
H2730 C2715 0.961 . S
H2731 C2715 0.961 . S
H2732 C2716 0.931 . S
H2733 C2721 0.930 . S
H2734 C2722 0.956 . S
H2735 C2722 0.961 1_455 S
H2736 C2722 0.961 . S
H2737 C2723 0.958 . S
H2738 C2723 0.961 . S
H2739 C2723 0.960 1_455 S
C2740 C2741 1.391 . S
C2740 C2742 1.394 . S
C2740 H2756 0.931 . S
C2741 C2740 1.391 . S
C2741 C2745 1.376 . S
C2742 C2740 1.394 . S
C2742 C2743 1.369 . S
C2742 C2746 1.531 . S
C2743 C2742 1.369 . S
C2743 C2744 1.410 . S
C2743 C2751 1.503 . S
C2744 C2743 1.410 . S
C2744 C2745 1.392 . S
C2744 C2747 1.511 . S
C2745 C2741 1.376 . S
C2745 C2744 1.392 . S
C2745 H2757 0.929 . S
C2746 C2742 1.531 . S
C2746 H2758 0.960 . S
C2746 H2759 0.962 . S
C2746 H2760 0.960 . S
C2747 C2744 1.511 . S
C2747 H2761 0.961 . S
C2747 H2762 0.961 . S
C2747 H2763 0.961 . S
C2748 C2749 1.370 . S
C2748 C2750 1.363 . S
C2748 H2764 0.931 . S
C2749 C2748 1.370 . S
C2749 C2753 1.408 . S
C2750 C2748 1.363 . S
C2750 C2751 1.370 . S
C2750 C2754 1.524 . S
C2751 C2743 1.503 . S
C2751 C2750 1.370 . S
C2751 C2752 1.403 . S
C2752 C2751 1.403 . S
C2752 C2753 1.404 . S
C2752 C2755 1.539 . S
C2753 C2749 1.408 . S
C2753 C2752 1.404 . S
C2753 H2765 0.930 . S
C2754 C2750 1.524 . S
C2754 H2766 0.956 . S
C2754 H2767 0.961 . S
C2754 H2768 0.961 . S
C2755 C2752 1.539 . S
C2755 H2769 0.958 . S
C2755 H2770 0.961 . S
C2755 H2771 0.960 . S
H2756 C2740 0.931 . S
H2757 C2745 0.929 . S
H2758 C2746 0.960 . S
H2759 C2746 0.962 . S
H2760 C2746 0.960 . S
H2761 C2747 0.961 . S
H2762 C2747 0.961 . S
H2763 C2747 0.961 . S
H2764 C2748 0.931 . S
H2765 C2753 0.930 . S
H2766 C2754 0.956 . S
H2767 C2754 0.961 . S
H2768 C2754 0.961 . S
H2769 C2755 0.958 . S
H2770 C2755 0.961 . S
H2771 C2755 0.960 . S
C469 C65 1.290 . S
C477 C0 1.333 . S
C501 C13 1.354 . S
C509 C39 1.337 . S
C533 C52 1.353 . S
C541 C26 1.338 . S
C565 C78 1.304 . S
C573 C143 1.339 . S
C597 C91 1.345 . S
C605 C117 1.343 . S
C629 C130 1.295 . S
C637 C104 1.320 . S
C661 C221 1.332 . S
C669 C156 1.315 . S
C693 C169 1.290 . S
C701 C195 1.334 . S
C725 C208 1.325 . S
C733 C182 1.314 . S
C757 C234 1.299 . S
C765 C299 1.337 . S
C789 C247 1.311 . S
C797 C273 1.342 . S
C821 C260 1.362 . S
C829 C286 1.334 . S
C853 C312 1.290 . S
C861 C377 1.334 . S
C885 C351 1.290 . S
C893 C325 1.331 . S
C917 C338 1.317 . S
C925 C364 1.344 . S
C949 C390 1.302 . S
C957 C455 1.317 . S
C981 C403 1.298 . S
C989 C429 1.317 . S
C1013 C416 1.290 . S
C1021 C442 1.323 . S
C1045 C138 1.001 . S
C1053 C5 0.993 . S
C1077 C151 0.993 . S
C1085 C18 0.948 . S
C1109 C125 1.062 . S
C1117 C31 0.959 . S
C1141 C112 1.018 . S
C1149 C44 0.989 . S
C1173 C57 0.979 . S
C1181 C86 0.998 . S
C1205 C70 1.035 . S
C1213 C99 1.006 . S
C1237 C83 0.934 . S
C1245 C60 1.036 . S
C1269 C96 1.002 . S
C1277 C73 1.021 . S
C1301 C109 0.887 . S
C1309 C47 1.033 . S
C1333 C34 1.000 . S
C1341 C122 0.953 . S
C1365 C8 1.063 . S
C1373 C135 0.947 . S
C1397 C148 0.954 . S
C1405 C21 1.033 . S
C1429 C161 0.966 . S
C1437 C294 1.000 1_554 S
C1461 C174 1.019 . S
C1469 C307 0.998 1_554 S
C1493 C281 1.004 1_554 S
C1501 C187 0.993 . S
C1525 C200 0.890 . S
C1533 C268 1.033 . S
C1557 C213 0.892 . S
C1565 C242 1.034 . S
C1589 C226 0.901 . S
C1597 C255 1.036 . S
C1621 C239 0.919 . S
C1629 C216 1.038 . S
C1653 C229 0.968 . S
C1661 C252 0.992 . S
C1685 C203 0.973 . S
C1693 C265 0.974 . S
C1717 C278 1.001 . S
C1725 C190 0.998 . S
C1749 C164 1.048 . S
C1757 C291 0.964 . S
C1781 C177 1.000 . S
C1789 C304 0.990 . S
C1813 C450 0.971 . S
C1821 C317 0.967 . S
C1845 C330 0.950 . S
C1853 C463 1.038 . S
C1877 C343 0.900 . S
C1885 C437 1.017 . S
C1909 C424 1.058 . S
C1917 C356 0.936 . S
C1941 C398 1.019 . S
C1949 C369 0.990 . S
C1973 C411 1.039 . S
C1981 C382 0.932 . S
C2005 C395 1.003 . S
C2013 C372 0.998 1_556 S
C2037 C385 1.014 1_556 S
C2045 C408 0.945 . S
C2069 C421 0.987 . S
C2077 C359 1.025 1_556 S
C2101 C346 1.039 . S
C2109 C434 0.971 . S
C2133 C320 0.966 . S
C2141 C447 0.985 . S
C2165 C333 1.062 . S
C2173 C460 0.947 . S
C2197 C218 1.410 . S
C2205 C10 1.408 1_556 S
C2229 C23 1.411 1_556 S
C2237 C231 1.414 . S
C2261 C205 1.401 . S
C2269 C36 1.405 1_556 S
C2293 C348 1.404 . S
C2301 C49 1.406 . S
C2325 C62 1.429 . S
C2333 C322 1.420 . S
C2357 C75 1.383 . S
C2365 C335 1.399 . S
C2389 C88 1.430 1_554 S
C2397 C452 1.420 . S
C2421 C465 1.429 . S
C2429 C101 1.419 1_554 S
C2453 C439 1.383 . S
C2461 C114 1.400 1_554 S
C2485 C270 1.420 . S
C2493 C127 1.416 . S
C2517 C140 1.427 . S
C2525 C244 1.418 . S
C2549 C153 1.412 . S
C2557 C257 1.412 . S
C2581 C166 1.416 . S
C2589 C374 1.417 . S
C2613 C387 1.403 . S
C2621 C179 1.412 . S
C2645 C361 1.422 . S
C2653 C192 1.418 . S
C2677 C283 1.384 . S
C2685 C426 1.400 . S
C2709 C400 1.382 . S
C2717 C296 1.399 . S
C2741 C413 1.406 . S
C2749 C309 1.410 . S
