# Generated by pormake.
# Topology thp-x, (12)-cn, num edge types: 1
# Building blocks:
#     Node 0, Type 0, BuildingBlock: UKIBUN_clean_sbu_0, # of connection points: 12
#     Node 1, Type 0, BuildingBlock: UKIBUN_clean_sbu_0, # of connection points: 12
#     Node 2, Type 0, BuildingBlock: UKIBUN_clean_sbu_0, # of connection points: 12
#     Node 3, Type 0, BuildingBlock: UKIBUN_clean_sbu_0, # of connection points: 12
#     Node 4, Type 0, BuildingBlock: UKIBUN_clean_sbu_0, # of connection points: 12
#     Node 5, Type 0, BuildingBlock: UKIBUN_clean_sbu_0, # of connection points: 12
#     Node 6, Type 0, BuildingBlock: UKIBUN_clean_sbu_0, # of connection points: 12
#     Node 7, Type 0, BuildingBlock: UKIBUN_clean_sbu_0, # of connection points: 12
#     Node 8, Type 0, BuildingBlock: UKIBUN_clean_sbu_0, # of connection points: 12
#     Node 9, Type 0, BuildingBlock: UKIBUN_clean_sbu_0, # of connection points: 12
#     Node 10, Type 0, BuildingBlock: UKIBUN_clean_sbu_0, # of connection points: 12
#     Node 11, Type 0, BuildingBlock: UKIBUN_clean_sbu_0, # of connection points: 12
#     Edge 12, Type (0, 0), BuildingBlock: OJICUG_clean_linker_0, # of connection points: 2
#     Edge 13, Type (0, 0), BuildingBlock: OJICUG_clean_linker_0, # of connection points: 2
#     Edge 14, Type (0, 0), BuildingBlock: OJICUG_clean_linker_0, # of connection points: 2
#     Edge 15, Type (0, 0), BuildingBlock: OJICUG_clean_linker_0, # of connection points: 2
#     Edge 16, Type (0, 0), BuildingBlock: OJICUG_clean_linker_0, # of connection points: 2
#     Edge 17, Type (0, 0), BuildingBlock: OJICUG_clean_linker_0, # of connection points: 2
#     Edge 18, Type (0, 0), BuildingBlock: OJICUG_clean_linker_0, # of connection points: 2
#     Edge 19, Type (0, 0), BuildingBlock: OJICUG_clean_linker_0, # of connection points: 2
#     Edge 20, Type (0, 0), BuildingBlock: OJICUG_clean_linker_0, # of connection points: 2
#     Edge 21, Type (0, 0), BuildingBlock: OJICUG_clean_linker_0, # of connection points: 2
#     Edge 22, Type (0, 0), BuildingBlock: OJICUG_clean_linker_0, # of connection points: 2
#     Edge 23, Type (0, 0), BuildingBlock: OJICUG_clean_linker_0, # of connection points: 2
#     Edge 24, Type (0, 0), BuildingBlock: OJICUG_clean_linker_0, # of connection points: 2
#     Edge 25, Type (0, 0), BuildingBlock: OJICUG_clean_linker_0, # of connection points: 2
#     Edge 26, Type (0, 0), BuildingBlock: OJICUG_clean_linker_0, # of connection points: 2
#     Edge 27, Type (0, 0), BuildingBlock: OJICUG_clean_linker_0, # of connection points: 2
#     Edge 28, Type (0, 0), BuildingBlock: OJICUG_clean_linker_0, # of connection points: 2
#     Edge 29, Type (0, 0), BuildingBlock: OJICUG_clean_linker_0, # of connection points: 2
#     Edge 30, Type (0, 0), BuildingBlock: OJICUG_clean_linker_0, # of connection points: 2
#     Edge 31, Type (0, 0), BuildingBlock: OJICUG_clean_linker_0, # of connection points: 2
#     Edge 32, Type (0, 0), BuildingBlock: OJICUG_clean_linker_0, # of connection points: 2
#     Edge 33, Type (0, 0), BuildingBlock: OJICUG_clean_linker_0, # of connection points: 2
#     Edge 34, Type (0, 0), BuildingBlock: OJICUG_clean_linker_0, # of connection points: 2
#     Edge 35, Type (0, 0), BuildingBlock: OJICUG_clean_linker_0, # of connection points: 2
#     Edge 36, Type (0, 0), BuildingBlock: OJICUG_clean_linker_0, # of connection points: 2
#     Edge 37, Type (0, 0), BuildingBlock: OJICUG_clean_linker_0, # of connection points: 2
#     Edge 38, Type (0, 0), BuildingBlock: OJICUG_clean_linker_0, # of connection points: 2
#     Edge 39, Type (0, 0), BuildingBlock: OJICUG_clean_linker_0, # of connection points: 2
#     Edge 40, Type (0, 0), BuildingBlock: OJICUG_clean_linker_0, # of connection points: 2
#     Edge 41, Type (0, 0), BuildingBlock: OJICUG_clean_linker_0, # of connection points: 2
#     Edge 42, Type (0, 0), BuildingBlock: OJICUG_clean_linker_0, # of connection points: 2
#     Edge 43, Type (0, 0), BuildingBlock: OJICUG_clean_linker_0, # of connection points: 2
#     Edge 44, Type (0, 0), BuildingBlock: OJICUG_clean_linker_0, # of connection points: 2
#     Edge 45, Type (0, 0), BuildingBlock: OJICUG_clean_linker_0, # of connection points: 2
#     Edge 46, Type (0, 0), BuildingBlock: OJICUG_clean_linker_0, # of connection points: 2
#     Edge 47, Type (0, 0), BuildingBlock: OJICUG_clean_linker_0, # of connection points: 2
#     Edge 48, Type (0, 0), BuildingBlock: OJICUG_clean_linker_0, # of connection points: 2
#     Edge 49, Type (0, 0), BuildingBlock: OJICUG_clean_linker_0, # of connection points: 2
#     Edge 50, Type (0, 0), BuildingBlock: OJICUG_clean_linker_0, # of connection points: 2
#     Edge 51, Type (0, 0), BuildingBlock: OJICUG_clean_linker_0, # of connection points: 2
#     Edge 52, Type (0, 0), BuildingBlock: OJICUG_clean_linker_0, # of connection points: 2
#     Edge 53, Type (0, 0), BuildingBlock: OJICUG_clean_linker_0, # of connection points: 2
#     Edge 54, Type (0, 0), BuildingBlock: OJICUG_clean_linker_0, # of connection points: 2
#     Edge 55, Type (0, 0), BuildingBlock: OJICUG_clean_linker_0, # of connection points: 2
#     Edge 56, Type (0, 0), BuildingBlock: OJICUG_clean_linker_0, # of connection points: 2
#     Edge 57, Type (0, 0), BuildingBlock: OJICUG_clean_linker_0, # of connection points: 2
#     Edge 58, Type (0, 0), BuildingBlock: OJICUG_clean_linker_0, # of connection points: 2
#     Edge 59, Type (0, 0), BuildingBlock: OJICUG_clean_linker_0, # of connection points: 2
#     Edge 60, Type (0, 0), BuildingBlock: OJICUG_clean_linker_0, # of connection points: 2
#     Edge 61, Type (0, 0), BuildingBlock: OJICUG_clean_linker_0, # of connection points: 2
#     Edge 62, Type (0, 0), BuildingBlock: OJICUG_clean_linker_0, # of connection points: 2
#     Edge 63, Type (0, 0), BuildingBlock: OJICUG_clean_linker_0, # of connection points: 2
#     Edge 64, Type (0, 0), BuildingBlock: OJICUG_clean_linker_0, # of connection points: 2
#     Edge 65, Type (0, 0), BuildingBlock: OJICUG_clean_linker_0, # of connection points: 2
#     Edge 66, Type (0, 0), BuildingBlock: OJICUG_clean_linker_0, # of connection points: 2
#     Edge 67, Type (0, 0), BuildingBlock: OJICUG_clean_linker_0, # of connection points: 2
#     Edge 68, Type (0, 0), BuildingBlock: OJICUG_clean_linker_0, # of connection points: 2
#     Edge 69, Type (0, 0), BuildingBlock: OJICUG_clean_linker_0, # of connection points: 2
#     Edge 70, Type (0, 0), BuildingBlock: OJICUG_clean_linker_0, # of connection points: 2
#     Edge 71, Type (0, 0), BuildingBlock: OJICUG_clean_linker_0, # of connection points: 2
#     Edge 72, Type (0, 0), BuildingBlock: OJICUG_clean_linker_0, # of connection points: 2
#     Edge 73, Type (0, 0), BuildingBlock: OJICUG_clean_linker_0, # of connection points: 2
#     Edge 74, Type (0, 0), BuildingBlock: OJICUG_clean_linker_0, # of connection points: 2
#     Edge 75, Type (0, 0), BuildingBlock: OJICUG_clean_linker_0, # of connection points: 2
#     Edge 76, Type (0, 0), BuildingBlock: OJICUG_clean_linker_0, # of connection points: 2
#     Edge 77, Type (0, 0), BuildingBlock: OJICUG_clean_linker_0, # of connection points: 2
#     Edge 78, Type (0, 0), BuildingBlock: OJICUG_clean_linker_0, # of connection points: 2
#     Edge 79, Type (0, 0), BuildingBlock: OJICUG_clean_linker_0, # of connection points: 2
#     Edge 80, Type (0, 0), BuildingBlock: OJICUG_clean_linker_0, # of connection points: 2
#     Edge 81, Type (0, 0), BuildingBlock: OJICUG_clean_linker_0, # of connection points: 2
#     Edge 82, Type (0, 0), BuildingBlock: OJICUG_clean_linker_0, # of connection points: 2
#     Edge 83, Type (0, 0), BuildingBlock: OJICUG_clean_linker_0, # of connection points: 2
# Relax obj value: 0.242
# Max RMSD: 0.289
# Mean RMSD: 0.289
data_MOF--net-thp-x--node1-UKIBUN_clean_sbu_0--edge1-OJICUG_clean_linker_0
_symmetry_space_group_name_H-M    P1
_symmetry_Int_Tables_number       1
_symmetry_cell_setting            triclinic
loop_
_symmetry_equiv_pos_as_xyz
'x, y, z'
_cell_length_a     26.580701
_cell_length_b     26.41228
_cell_length_c     26.353543
_cell_angle_alpha  90.06892
_cell_angle_beta   90.178249
_cell_angle_gamma 89.591775
loop_
_atom_site_label
_atom_site_type_symbol
_atom_site_fract_x
_atom_site_fract_y
_atom_site_fract_z
_atom_type_partial_charge
C0 C 0.8851 0.29214 0.51369 0.0
C1 C 0.04677 0.38954 0.51841 0.0
O2 O 0.9722 0.24033 0.45471 0.0
O3 O 0.98163 0.31741 0.36408 0.0
O4 O 0.96924 0.23488 0.36547 0.0
O5 O 0.98318 0.32113 0.4498 0.0
Hf6 Hf 0.92829 0.28528 0.40779 0.0
O7 O 0.05649 0.2298 0.45047 0.0
Hf8 Hf 1.02139 0.27785 0.50184 0.0
O9 O 0.05186 0.224 0.36335 0.0
Hf10 Hf 1.00663 0.18573 0.41279 0.0
O11 O 0.06825 0.30822 0.44766 0.0
Hf12 Hf 1.01361 0.26925 0.31243 0.0
Hf13 Hf 0.03195 0.35921 0.40469 0.0
O14 O 0.06349 0.30641 0.35784 0.0
Hf15 Hf 0.10726 0.26029 0.40014 0.0
C16 C 1.01833 0.40448 0.29959 0.0
C17 C 1.01904 0.16785 0.53068 0.0
C18 C 1.00677 0.13242 0.30967 0.0
C19 C 0.89485 0.17588 0.41863 0.0
O20 O 0.88115 0.22056 0.43118 0.0
O21 O 0.9042 0.36538 0.40589 0.0
C22 C 0.92634 0.40672 0.41988 0.0
O23 O 0.15555 0.32822 0.40598 0.0
O24 O 0.078 0.25472 0.26576 0.0
O25 O 0.94287 0.30412 0.28926 0.0
O26 O 0.13483 0.18246 0.40197 0.0
O27 O 0.11232 0.28398 0.52393 0.0
O28 O 0.93214 0.27957 0.53222 0.0
O29 O 0.06731 0.38897 0.47451 0.0
O30 O 1.01877 0.41312 0.3468 0.0
C31 C 0.11528 0.1407 0.41727 0.0
O32 O 1.00814 0.12719 0.35744 0.0
O33 O 0.99701 0.15336 0.48976 0.0
C34 C 0.14363 0.37225 0.38887 0.0
O35 O 0.16076 0.25032 0.45983 0.0
O36 O 0.88604 0.26787 0.33643 0.0
O37 O 0.87996 0.30661 0.46828 0.0
O38 O 0.14188 0.26611 0.3232 0.0
O39 O 0.10189 0.37904 0.36664 0.0
O40 O 0.06837 0.13197 0.42206 0.0
C41 C 0.1239 0.263 0.27746 0.0
O42 O 0.92967 0.172 0.38646 0.0
O43 O 1.01132 0.21177 0.54926 0.0
O44 O 0.97371 0.41352 0.42223 0.0
O45 O 1.00584 0.17924 0.28669 0.0
O46 O 1.01965 0.35645 0.27975 0.0
O47 O 0.02774 0.35033 0.53928 0.0
C48 C 0.15797 0.27028 0.5035 0.0
C49 C 0.90377 0.27798 0.29235 0.0
C50 C 0.37622 0.7874 1.00702 0.0
C51 C 0.52696 0.88852 1.01738 0.0
O52 O 0.46297 0.74116 0.94687 0.0
O53 O 0.47464 0.82097 0.85879 0.0
O54 O 0.46176 0.73835 0.85689 0.0
O55 O 0.47474 0.82103 0.94496 0.0
Hf56 Hf 0.42058 0.7875 0.90009 0.0
O57 O 0.54749 0.72936 0.9444 0.0
Hf58 Hf 0.51207 0.77577 0.99686 0.0
O59 O 0.54324 0.7288 0.85831 0.0
Hf60 Hf 0.49713 0.68757 0.90399 0.0
O61 O 0.55912 0.8094 0.9447 0.0
Hf62 Hf 0.50769 0.7741 0.80622 0.0
Hf63 Hf 0.52339 0.86204 0.90221 0.0
O64 O 0.55607 0.81049 0.85457 0.0
Hf65 Hf 0.59917 0.76277 0.89656 0.0
C66 C 0.5109 0.90931 0.79619 0.0
C67 C 0.49491 0.66425 1.01921 0.0
C68 C 0.50324 0.63654 0.80062 0.0
C69 C 0.38452 0.67655 0.89711 0.0
O70 O 0.37231 0.72087 0.91269 0.0
O71 O 0.39531 0.86695 0.90671 0.0
C72 C 0.41723 0.90857 0.92007 0.0
O73 O 0.64919 0.82774 0.91 0.0
O74 O 0.57649 0.74966 0.76983 0.0
O75 O 0.43796 0.81072 0.78186 0.0
O76 O 0.62374 0.68483 0.88614 0.0
O77 O 0.60273 0.77932 1.02179 0.0
O78 O 0.42341 0.77847 1.02675 0.0
O79 O 0.55049 0.89176 0.97535 0.0
O80 O 0.51312 0.91687 0.84371 0.0
C81 C 0.60677 0.64415 0.90652 0.0
O82 O 0.50308 0.62994 0.84824 0.0
O83 O 0.46908 0.66174 0.97834 0.0
C84 C 0.63638 0.87303 0.89819 0.0
O85 O 0.64989 0.74536 0.95737 0.0
O86 O 0.37805 0.77855 0.82735 0.0
O87 O 0.36942 0.79714 0.96057 0.0
O88 O 0.63536 0.77979 0.82203 0.0
O89 O 0.59745 0.88018 0.87116 0.0
O90 O 0.5605 0.63552 0.91647 0.0
C91 C 0.61618 0.77468 0.77721 0.0
O92 O 0.42355 0.6716 0.87018 0.0
O93 O 0.50187 0.70689 0.04141 0.0
O94 O 0.46455 0.9163 0.91983 0.0
O95 O 0.50186 0.68404 0.77892 0.0
O96 O 0.51197 0.8618 0.77516 0.0
O97 O 0.51714 0.84618 0.03865 0.0
C98 C 0.64822 0.7649 1.0013 0.0
C99 C 0.39913 0.78424 0.78397 0.0
C100 C 0.9009 0.88966 0.18325 0.0
C101 C 0.90508 0.76139 0.2888 0.0
O102 O 0.97032 0.8174 0.12778 0.0
O103 O 0.05527 0.8126 0.21489 0.0
O104 O 0.05454 0.81752 0.1285 0.0
O105 O 0.97115 0.81252 0.21732 0.0
Hf106 Hf 1.01175 0.86171 0.17379 0.0
O107 O 0.97448 0.73796 0.12257 0.0
Hf108 Hf 0.92501 0.77239 0.17146 0.0
O109 O 0.05876 0.73843 0.11974 0.0
Hf110 Hf 1.01361 0.78254 0.07316 0.0
O111 O 0.97542 0.72858 0.20818 0.0
Hf112 Hf 0.105 0.77529 0.17054 0.0
Hf113 Hf 1.01484 0.7673 0.26294 0.0
O114 O 0.05795 0.72992 0.20973 0.0
Hf115 Hf 1.01878 0.68709 0.15893 0.0
C116 C 0.12267 0.7564 0.28855 0.0
C117 C 0.87623 0.78188 0.0661 0.0
C118 C 0.15046 0.78387 0.06467 0.0
C119 C 0.99218 0.90018 0.06225 0.0
O120 O 0.98699 0.90776 0.10992 0.0
O121 O 0.04449 0.90251 0.23489 0.0
C122 C 1.02259 0.90115 0.27696 0.0
O123 O 1.0011 0.62977 0.21267 0.0
O124 O 0.14465 0.70584 0.14552 0.0
O125 O 0.13799 0.85142 0.16849 0.0
O126 O 0.03738 0.65748 0.083 0.0
O127 O 0.89274 0.69934 0.14932 0.0
O128 O 0.88494 0.84606 0.16883 0.0
O129 O 0.94546 0.73607 0.29277 0.0
O130 O 0.08671 0.78682 0.29632 0.0
C131 C 1.01732 0.67014 0.04052 0.0
O132 O 0.10268 0.78297 0.04411 0.0
O133 O 0.92365 0.78359 0.04493 0.0
C134 C 1.0118 0.63159 0.25948 0.0
O135 O 0.9563 0.644 0.1309 0.0
O136 O 0.07459 0.90532 0.14556 0.0
O137 O 0.94295 0.89425 0.20579 0.0
O138 O 0.09097 0.65507 0.18257 0.0
O139 O 1.02121 0.67643 0.28375 0.0
O140 O 1.01255 0.71594 1.02501 0.0
C141 C 0.12862 0.66114 0.15405 0.0
O142 O 1.00719 0.85856 0.04128 0.0
O143 O 0.8701 0.77751 0.11343 0.0
O144 O 1.00425 0.85572 0.29381 0.0
O145 O 0.15835 0.78539 0.11205 0.0
O146 O 0.14192 0.75204 0.24372 0.0
O147 O 0.88451 0.76892 0.24509 0.0
C148 C 0.9108 0.65892 0.12823 0.0
C149 C 0.12089 0.89245 0.14774 0.0
C150 C 0.40449 0.05525 0.44969 0.0
C151 C 0.28 0.1195 0.33675 0.0
O152 O 0.44663 0.04139 0.34721 0.0
O153 O 0.36252 0.96847 0.29748 0.0
O154 O 0.44775 0.97095 0.29725 0.0
O155 O 0.36152 0.03716 0.3425 0.0
Hf156 Hf 0.40637 0.97688 0.36118 0.0
O157 O 0.44573 0.08496 0.2783 0.0
Hf158 Hf 0.39943 0.10272 0.33705 0.0
O159 O 0.45125 1.01578 0.22802 0.0
Hf160 Hf 0.49738 0.02888 0.28953 0.0
O161 O 0.36038 0.08616 0.27255 0.0
Hf162 Hf 0.40544 0.95372 0.23469 0.0
Hf163 Hf 0.31255 1.02651 0.28412 0.0
O164 O 0.36509 1.0178 0.22871 0.0
Hf165 Hf 0.40859 0.07873 0.21255 0.0
C166 C 0.28777 0.93444 0.22373 0.0
C167 C 0.49984 0.16168 0.32047 0.0
C168 C 0.50455 0.89596 0.25457 0.0
C169 C 0.52424 0.97329 0.38341 0.0
O170 O 0.48155 0.95063 0.38756 0.0
O171 O 0.34345 0.96356 0.41307 0.0
C172 C 0.3045 0.99215 0.41636 0.0
O173 O 0.34725 0.08826 0.15734 0.0
O174 O 0.41255 0.96533 0.15247 0.0
O175 O 0.38992 0.87916 0.26455 0.0
O176 O 0.48376 0.11018 0.19414 0.0
O177 O 0.38458 0.177 0.30523 0.0
O178 O 0.40094 0.09317 0.41903 0.0
O179 O 0.27743 0.09969 0.29297 0.0
O180 O 0.28027 0.95351 0.26757 0.0
C181 C 0.52856 0.09165 0.20011 0.0
O182 O 0.52161 0.93864 0.27838 0.0
O183 O 0.52017 0.11885 0.29975 0.0
C184 C 0.30861 0.0598 0.15265 0.0
O185 O 0.39843 0.15994 0.22148 0.0
O186 O 0.39851 0.89476 0.34958 0.0
O187 O 0.41118 1.00902 0.43687 0.0
O188 O 0.4208 0.05013 0.13749 0.0
O189 O 0.28955 0.03642 0.19426 0.0
O190 O 0.53799 0.04929 0.22184 0.0
C191 C 0.41661 1.0044 0.12324 0.0
O192 O 0.52733 1.01771 0.36527 0.0
O193 O 0.45961 0.15848 0.34704 0.0
O194 O 0.28744 1.01675 0.374 0.0
O195 O 0.46632 0.89886 0.22531 0.0
O196 O 0.33149 0.93201 0.20282 0.0
O197 O 0.3221 0.12437 0.36089 0.0
C198 C 0.38915 0.18997 0.25887 0.0
C199 C 0.39134 0.86538 0.31087 0.0
C200 C 0.27347 0.49786 0.17401 0.0
C201 C 0.16803 0.52141 1.01687 0.0
O202 O 0.31768 0.44451 0.08267 0.0
O203 O 0.23913 0.35641 0.06038 0.0
O204 O 0.32217 0.35842 0.07536 0.0
O205 O 0.23665 0.44408 0.06743 0.0
Hf206 Hf 0.27002 0.39588 0.118 0.0
O207 O 0.334 0.4534 1.00145 0.0
Hf208 Hf 0.28255 0.49827 0.03813 0.0
O209 O 0.33806 0.36369 0.99592 0.0
Hf210 Hf 0.37549 0.40798 0.0486 0.0
O211 O 0.25169 0.45053 0.98512 0.0
Hf212 Hf 0.28941 0.30945 1.02344 0.0
Hf213 Hf 0.19915 0.40407 1.01387 0.0
O214 O 0.25527 0.36339 0.97968 0.0
Hf215 Hf 0.3044 0.41019 0.94484 0.0
C216 C 0.15226 0.30067 1.00964 0.0
C217 C 0.39028 0.52721 0.05108 0.0
C218 C 0.42455 0.30248 0.03856 0.0
C219 C 0.37595 0.38316 0.16822 0.0
O220 O 0.32843 0.37821 0.17369 0.0
O221 O 0.19592 0.4294 0.13197 0.0
C222 C 0.15738 0.40298 0.12351 0.0
O223 O 0.24279 0.41547 0.88928 0.0
O224 O 0.29867 0.27705 0.94782 0.0
O225 O 0.28014 0.26122 0.08972 0.0
O226 O 0.37746 0.44795 0.94177 0.0
O227 O 0.28609 0.53263 0.94996 0.0
O228 O 0.27438 0.52178 0.12798 0.0
O229 O 0.15635 0.47561 1.00448 0.0
O230 O 0.14498 0.34769 1.00416 0.0
C231 C 0.41739 0.42173 0.9431 0.0
O232 O 0.42737 0.34643 0.05787 0.0
O233 O 0.41219 0.48413 0.04314 0.0
C234 C 0.20076 0.39405 0.89715 0.0
O235 O 0.30363 0.469 0.89186 0.0
O236 O 0.24087 0.32015 0.13663 0.0
O237 O 0.27278 0.44991 0.17829 0.0
O238 O 0.32694 0.34396 0.90079 0.0
O239 O 0.19379 0.36969 0.93779 0.0
O240 O 0.42943 0.40175 0.98545 0.0
C241 C 0.31677 0.29705 0.90713 0.0
O242 O 0.39794 0.40108 0.12847 0.0
O243 O 0.34917 0.5289 0.07468 0.0
O244 O 0.14738 0.39005 0.07785 0.0
O245 O 0.37919 0.28284 1.02342 0.0
O246 O 0.19993 0.28045 1.01675 0.0
O247 O 0.21133 0.53699 0.0319 0.0
C248 C 0.29286 0.5146 0.90117 0.0
C249 C 0.26683 0.27939 0.13294 0.0
C250 C 0.54437 0.65935 0.24581 0.0
C251 C 0.53782 0.56362 0.38237 0.0
O252 O 0.60171 0.54303 0.21114 0.0
O253 O 0.69059 0.59083 0.27812 0.0
O254 O 0.68745 0.54555 0.20648 0.0
O255 O 0.60534 0.58614 0.2826 0.0
Hf256 Hf 0.64351 0.60728 0.21878 0.0
O257 O 0.60957 0.47111 0.25595 0.0
Hf258 Hf 0.55791 0.5268 0.27338 0.0
O259 O 0.69655 0.47569 0.24793 0.0
Hf260 Hf 0.64592 0.48283 0.18967 0.0
O261 O 0.612 0.51275 0.32708 0.0
Hf262 Hf 0.74294 0.53666 0.25992 0.0
Hf263 Hf 0.65098 0.5769 0.3427 0.0
O264 O 0.6967 0.51969 0.31899 0.0
Hf265 Hf 0.65964 0.45362 0.31183 0.0
C266 C 0.75566 0.57482 0.39096 0.0
C267 C 0.52719 0.47347 0.18046 0.0
C268 C 0.74295 0.5034 0.12571 0.0
C269 C 0.63227 0.56152 0.10454 0.0
O270 O 0.63633 0.59928 0.1357 0.0
O271 O 0.65817 0.67965 0.25549 0.0
C272 C 0.65337 0.69071 0.30246 0.0
O273 O 0.65909 0.45611 0.39473 0.0
O274 O 0.78706 0.46996 0.27883 0.0
O275 O 0.76388 0.61566 0.25131 0.0
O276 O 0.68169 0.38398 0.27479 0.0
O277 O 0.53509 0.43747 0.2882 0.0
O278 O 0.53188 0.61736 0.27334 0.0
O279 O 0.58065 0.58588 0.38471 0.0
O280 O 0.71525 0.60081 0.38775 0.0
C281 C 0.68614 0.37528 0.22747 0.0
O282 O 0.70226 0.47801 0.12916 0.0
O283 O 0.57042 0.45279 0.17142 0.0
C284 C 0.66129 0.49312 0.42652 0.0
O285 O 0.60319 0.39467 0.32118 0.0
O286 O 0.71217 0.64083 0.18896 0.0
O287 O 0.57648 0.65422 0.21031 0.0
O288 O 0.73583 0.43551 0.33827 0.0
O289 O 0.65785 0.53991 0.41543 0.0
O290 O 0.66796 0.40259 0.19133 0.0
C291 C 0.77947 0.44672 0.32081 0.0
O292 O 0.63071 0.51506 0.1167 0.0
O293 O 0.52329 0.51736 0.19974 0.0
O294 O 0.64136 0.6592 0.33757 0.0
O295 O 0.76307 0.52523 0.16837 0.0
O296 O 0.7726 0.5504 0.34843 0.0
O297 O 0.523 0.53464 0.34627 0.0
C298 C 0.55801 0.39382 0.30435 0.0
C299 C 0.75616 0.637 0.20873 0.0
C300 C 0.68906 0.1754 0.14789 0.0
C301 C 0.81599 0.26153 0.13683 0.0
O302 O 0.75184 0.10042 0.06814 0.0
O303 O 0.74163 0.18889 0.98648 0.0
O304 O 0.74385 0.10047 0.985 0.0
O305 O 0.75065 0.18867 0.06593 0.0
Hf306 Hf 0.69981 0.14166 0.03142 0.0
O307 O 0.8346 0.09967 0.06097 0.0
Hf308 Hf 0.79727 0.14674 0.10981 0.0
O309 O 0.82688 0.10138 0.97703 0.0
Hf310 Hf 0.78966 0.05036 1.02174 0.0
O311 O 0.83466 0.18938 0.05903 0.0
Hf312 Hf 0.77963 0.14694 0.93563 0.0
Hf313 Hf 0.78825 0.24039 1.02189 0.0
O314 O 0.82582 0.18768 0.9802 0.0
Hf315 Hf 0.87866 0.14241 1.01524 0.0
C316 C 0.76116 0.25973 0.90489 0.0
C317 C 0.78319 0.04408 0.15823 0.0
C318 C 0.79433 0.04591 0.88778 0.0
C319 C 0.67752 1.02085 0.03464 0.0
O320 O 0.66177 0.06713 0.03994 0.0
O321 O 0.64618 0.2011 1.02087 0.0
C322 C 0.65256 0.24856 1.02273 0.0
O323 O 0.9326 0.20013 1.01085 0.0
O324 O 0.8379 0.18214 0.89076 0.0
O325 O 0.71081 0.11677 0.90213 0.0
O326 O 0.92059 0.06936 1.02316 0.0
O327 O 0.86798 0.11272 0.13501 0.0
O328 O 0.73606 0.17323 0.15845 0.0
O329 O 0.7971 0.27885 0.09496 0.0
O330 O 0.78063 0.27735 0.94653 0.0
C331 C 0.89916 1.02598 1.01996 0.0
O332 O 0.77965 1.02476 0.93249 0.0
O333 O 0.7914 1.02249 0.11148 0.0
C334 C 0.92543 0.24714 1.01605 0.0
O335 O 0.921 0.15466 0.08695 0.0
O336 O 0.65289 0.12581 0.96488 0.0
O337 O 0.66888 0.15953 0.10633 0.0
O338 O 0.90623 0.15988 0.93807 0.0
O339 O 0.87786 0.2683 1.01955 0.0
O340 O 0.86076 1.02148 0.99223 0.0
C341 C 0.88489 0.18298 0.90017 0.0
O342 O 0.72319 1.00629 1.0287 0.0
O343 O 0.77769 0.09126 0.16393 0.0
O344 O 0.69958 0.26973 1.02559 0.0
O345 O 0.81075 0.09049 0.8872 0.0
O346 O 0.74878 0.21351 0.89744 0.0
O347 O 0.82533 0.21489 0.14654 0.0
C348 C 0.90804 0.13784 0.13066 0.0
C349 C 0.66576 0.11364 0.91951 0.0
C350 C 0.18511 0.68111 0.66125 0.0
C351 C 0.30777 0.76376 0.65267 0.0
O352 O 0.24424 0.60468 0.58139 0.0
O353 O 0.23046 0.69375 0.49982 0.0
O354 O 0.23682 0.60462 0.49806 0.0
O355 O 0.24145 0.69098 0.57859 0.0
Hf356 Hf 0.19015 0.64445 0.5442 0.0
O357 O 0.32818 0.60843 0.57159 0.0
Hf358 Hf 0.2901 0.65118 0.62237 0.0
O359 O 0.31796 0.60895 0.48894 0.0
Hf360 Hf 0.28504 0.55619 0.53594 0.0
O361 O 0.32474 0.69662 0.57274 0.0
Hf362 Hf 0.26841 0.6529 0.44709 0.0
Hf363 Hf 0.27596 0.74606 0.5373 0.0
O364 O 0.31386 0.69705 0.49061 0.0
Hf365 Hf 0.36797 0.65386 0.52523 0.0
C366 C 0.26043 0.76907 0.42331 0.0
C367 C 0.27739 0.55071 0.67235 0.0
C368 C 0.27831 0.54555 0.40058 0.0
C369 C 0.17786 0.52401 0.53626 0.0
O370 O 0.15572 0.56775 0.53381 0.0
O371 O 0.13457 0.70374 0.54375 0.0
C372 C 0.14029 0.75142 0.54103 0.0
O373 O 0.42326 0.71034 0.52938 0.0
O374 O 0.32929 0.6626 0.39261 0.0
O375 O 0.19994 0.62157 0.41634 0.0
O376 O 0.41207 0.58687 0.50598 0.0
O377 O 0.35965 0.61047 0.64122 0.0
O378 O 0.23207 0.68199 0.67001 0.0
O379 O 0.28462 0.78083 0.61272 0.0
O380 O 0.26766 0.7892 0.46721 0.0
C381 C 0.40269 0.54033 0.51585 0.0
O382 O 0.27926 0.52482 0.44819 0.0
O383 O 0.2897 0.52966 0.62626 0.0
C384 C 0.41402 0.75717 0.53385 0.0
O385 O 0.41375 0.65388 0.59584 0.0
O386 O 0.14194 0.64209 0.47525 0.0
O387 O 0.16371 0.65855 0.62295 0.0
O388 O 0.37008 0.69776 0.4544 0.0
O389 O 0.36534 0.77627 0.5359 0.0
O390 O 0.35985 0.52196 0.52979 0.0
C391 C 0.37072 0.67764 0.41087 0.0
O392 O 0.21828 0.51767 0.56082 0.0
O393 O 0.26666 0.59707 0.67622 0.0
O394 O 0.18691 0.77341 0.53982 0.0
O395 O 0.27664 0.59303 0.393 0.0
O396 O 0.23927 0.72587 0.41724 0.0
O397 O 0.32135 0.71768 0.65964 0.0
C398 C 0.40133 0.63293 0.63801 0.0
C399 C 0.15455 0.62717 0.43041 0.0
C400 C 0.8931 0.56041 0.93203 0.0
C401 C 0.76795 0.62212 0.81764 0.0
O402 O 0.93683 0.55118 0.83369 0.0
O403 O 0.86019 0.47922 0.77312 0.0
O404 O 0.94729 0.48227 0.78322 0.0
O405 O 0.85302 0.54403 0.81935 0.0
Hf406 Hf 0.89817 0.48491 0.84122 0.0
O407 O 0.94092 0.59733 0.76693 0.0
Hf408 Hf 0.88866 0.61081 0.82097 0.0
O409 O 0.95298 0.53282 0.71701 0.0
Hf410 Hf 0.99382 0.54287 0.78197 0.0
O411 O 0.85461 0.59856 0.75195 0.0
Hf412 Hf 0.91184 0.46812 0.71651 0.0
Hf413 Hf 0.80939 0.53562 0.75622 0.0
O414 O 0.86931 0.5312 0.70883 0.0
Hf415 Hf 0.90952 0.59466 0.69758 0.0
C416 C 0.80771 0.45506 0.66701 0.0
C417 C 0.98811 0.67386 0.81663 0.0
C418 C 1.00739 0.40908 0.75109 0.0
C419 C 1.01274 0.48674 0.87888 0.0
O420 O 0.97241 0.46026 0.87245 0.0
O421 O 0.83431 0.47242 0.89077 0.0
C422 C 0.79386 0.4986 0.88959 0.0
O423 O 0.8569 0.59502 0.632 0.0
O424 O 0.94193 0.48421 0.64029 0.0
O425 O 0.8728 0.39933 0.74239 0.0
O426 O 0.9846 0.62812 0.68819 0.0
O427 O 0.87832 0.687 0.79458 0.0
O428 O 0.88593 0.59859 0.90242 0.0
O429 O 0.76422 0.60172 0.77381 0.0
O430 O 0.78429 0.47227 0.70711 0.0
C431 C 0.0285 0.60862 0.69617 0.0
O432 O 1.02273 0.45304 0.77443 0.0
O433 O 1.01222 0.63272 0.79696 0.0
C434 C 0.81354 0.57419 0.62656 0.0
O435 O 0.89398 0.67568 0.71011 0.0
O436 O 0.88795 0.40344 0.82729 0.0
O437 O 0.90105 0.51482 0.91786 0.0
O438 O 0.93598 0.56972 0.6248 0.0
O439 O 0.78886 0.55586 0.66776 0.0
O440 O 0.03606 0.56476 0.71556 0.0
C441 C 0.94587 0.52432 0.6122 0.0
O442 O 1.01893 0.53018 0.85878 0.0
O443 O 0.94574 0.66814 0.83904 0.0
O444 O 0.77824 0.52001 0.84447 0.0
O445 O 0.97034 0.41026 0.72016 0.0
O446 O 0.85506 0.45303 0.66067 0.0
O447 O 0.81007 0.62865 0.84117 0.0
C448 C 0.88417 0.70324 0.74962 0.0
C449 C 0.86872 0.38226 0.78779 0.0
C450 C 0.77197 1.00844 0.66033 0.0
C451 C 0.66106 1.02234 0.51861 0.0
O452 O 0.80814 0.95005 0.57172 0.0
O453 O 0.72785 0.86109 0.56051 0.0
O454 O 0.81229 0.86217 0.57437 0.0
O455 O 0.72702 0.95047 0.56001 0.0
Hf456 Hf 0.7615 0.90506 0.61293 0.0
O457 O 0.82185 0.94949 0.48944 0.0
Hf458 Hf 0.77318 0.99949 0.52274 0.0
O459 O 0.82431 0.86036 0.49332 0.0
Hf460 Hf 0.86354 0.90907 0.54012 0.0
O461 O 0.73953 0.94663 0.47675 0.0
Hf462 Hf 0.77685 0.80949 0.52842 0.0
Hf463 Hf 0.68632 0.90616 0.51233 0.0
O464 O 0.74025 0.85973 0.48051 0.0
Hf465 Hf 0.78916 0.9011 0.43847 0.0
C466 C 0.64034 0.80143 0.52027 0.0
C467 C 0.8847 0.02918 0.54581 0.0
C468 C 0.9128 0.80301 0.53831 0.0
C469 C 0.86966 0.89559 0.66131 0.0
O470 O 0.82202 0.89543 0.66909 0.0
O471 O 0.69048 0.94253 0.63038 0.0
C472 C 0.64991 0.91873 0.62459 0.0
O473 O 0.72965 0.88503 0.38349 0.0
O474 O 0.78782 0.76539 0.45911 0.0
O475 O 0.76418 0.76822 0.59894 0.0
O476 O 0.85954 0.94289 0.42673 0.0
O477 O 0.77907 1.02526 0.43285 0.0
O478 O 0.77251 1.02871 0.6123 0.0
O479 O 0.6431 0.9783 0.50868 0.0
O480 O 0.63392 0.84652 0.50563 0.0
C481 C 0.90171 0.92087 0.43127 0.0
O482 O 0.91826 0.85021 0.54387 0.0
O483 O 0.90069 0.98316 0.55056 0.0
C484 C 0.68225 0.88373 0.39178 0.0
O485 O 0.7787 0.95527 0.37992 0.0
O486 O 0.7288 0.83333 0.63987 0.0
O487 O 0.76928 0.96144 0.66847 0.0
O488 O 0.81772 0.82767 0.40989 0.0
O489 O 0.66077 0.89476 0.43423 0.0
O490 O 0.9164 0.90863 0.4758 0.0
C491 C 0.7943 0.78568 0.41532 0.0
O492 O 0.89088 0.90231 0.61809 0.0
O493 O 0.83993 0.0431 0.53352 0.0
O494 O 0.63898 0.89946 0.58122 0.0
O495 O 0.86619 0.78146 0.5325 0.0
O496 O 0.68745 0.7819 0.5305 0.0
O497 O 0.70288 0.03641 0.50007 0.0
C498 C 0.77795 1.00289 0.38584 0.0
C499 C 0.75336 0.79156 0.64034 0.0
C500 C 0.06043 0.17426 0.75201 0.0
C501 C 0.03392 0.09633 0.87594 0.0
O502 O 0.11072 0.05777 0.72685 0.0
O503 O 0.19861 0.08449 0.80649 0.0
O504 O 0.19616 0.04844 0.73019 0.0
O505 O 0.11205 0.0913 0.80156 0.0
Hf506 Hf 0.16047 0.11415 0.74663 0.0
O507 O 0.10471 0.97998 0.76424 0.0
Hf508 Hf 0.05813 0.04004 0.7809 0.0
O509 O 0.19071 0.97465 0.76463 0.0
Hf510 Hf 0.1479 0.99416 0.70311 0.0
O511 O 0.10545 1.01633 0.83779 0.0
Hf512 Hf 0.24465 1.02495 0.78608 0.0
Hf513 Hf 0.14994 0.07225 0.86543 0.0
O514 O 0.19219 1.0113 0.84199 0.0
Hf515 Hf 0.14691 0.95251 0.82371 0.0
C516 C 0.25095 0.04872 0.92136 0.0
C517 C 0.02944 0.99244 0.68317 0.0
C518 C 0.25085 1.00058 0.64983 0.0
C519 C 0.16356 0.08568 0.62902 0.0
O520 O 0.17507 0.11705 0.66471 0.0
O521 O 0.16041 0.18151 0.79526 0.0
C522 C 0.17971 0.18424 0.83967 0.0
O523 O 0.12215 0.95011 0.90307 0.0
O524 O 0.26315 0.9449 0.79044 0.0
O525 O 0.29667 0.08517 0.77011 0.0
O526 O 0.16377 0.8841 0.78054 0.0
O527 O 0.02625 0.95179 0.7886 0.0
O528 O 0.03832 0.13143 0.77048 0.0
O529 O 0.07895 0.1119 0.8846 0.0
O530 O 0.2064 0.06652 0.92431 0.0
C531 C 0.17506 0.87989 0.73359 0.0
O532 O 0.20623 0.98357 0.64688 0.0
O533 O 0.07236 0.97033 0.67611 0.0
C534 C 0.11155 0.98546 0.93506 0.0
O535 O 0.08556 0.90055 0.82693 0.0
O536 O 0.23713 0.14407 0.75896 0.0
O537 O 0.10301 0.17091 0.72978 0.0
O538 O 0.21714 0.92119 0.85578 0.0
O539 O 0.12239 0.03218 0.9309 0.0
O540 O 0.16429 0.91242 0.69871 0.0
C541 C 0.26008 0.92515 0.83398 0.0
O542 O 0.14622 0.04116 0.63606 0.0
O543 O 0.02585 0.03488 0.70568 0.0
O544 O 0.17538 0.15005 0.8738 0.0
O545 O 0.27038 1.01543 0.69585 0.0
O546 O 0.27136 0.03503 0.87563 0.0
O547 O 1.02519 0.05378 0.85494 0.0
C548 C 0.04295 0.90534 0.80564 0.0
C549 C 0.27893 0.12355 0.74644 0.0
C550 C 0.42855 0.41477 0.65692 0.0
C551 C 0.39519 0.29089 0.77642 0.0
O552 O 0.48304 0.33035 0.62201 0.0
O553 O 0.55755 0.30639 0.71809 0.0
O554 O 0.56375 0.30889 0.63127 0.0
O555 O 0.47602 0.32532 0.7115 0.0
Hf556 Hf 0.53031 0.36347 0.67278 0.0
O557 O 0.46787 0.25032 0.6164 0.0
Hf558 Hf 0.4251 0.29704 0.66192 0.0
O559 O 0.55129 0.23194 0.6219 0.0
Hf560 Hf 0.52088 0.28421 0.57154 0.0
O561 O 0.46065 0.24222 0.70261 0.0
Hf562 Hf 0.59944 0.2572 0.67704 0.0
Hf563 Hf 0.50321 0.27136 0.76055 0.0
O564 O 0.54004 0.22516 0.71042 0.0
Hf565 Hf 0.49707 0.19156 0.65621 0.0
C566 C 0.60587 0.23906 0.79698 0.0
C567 C 0.38506 0.29763 0.55457 0.0
C568 C 0.65606 0.26707 0.5736 0.0
C569 C 0.54839 0.40033 0.56057 0.0
O570 O 0.5407 0.41211 0.60709 0.0
O571 O 0.55608 0.40059 0.73983 0.0
C572 C 0.52377 0.40435 0.77426 0.0
O573 O 0.46925 0.13902 0.71187 0.0
O574 O 0.62337 0.17732 0.67697 0.0
O575 O 0.65177 0.3189 0.68559 0.0
O576 O 0.5385 0.16844 0.58715 0.0
O577 O 0.37472 0.23368 0.64478 0.0
O578 O 0.40106 0.37591 0.6494 0.0
O579 O 0.42537 0.25394 0.77771 0.0
O580 O 0.56873 0.26759 0.809 0.0
C581 C 0.52137 0.1737 0.54229 0.0
O582 O 0.61148 0.28 0.55047 0.0
O583 O 0.43297 0.28661 0.53763 0.0
C584 C 0.48723 0.13736 0.75661 0.0
O585 O 0.42717 0.16993 0.62021 0.0
O586 O 0.60657 0.3868 0.65843 0.0
O587 O 0.46563 0.41304 0.68724 0.0
O588 O 0.55121 0.13188 0.67252 0.0
O589 O 0.50354 0.1804 0.77988 0.0
O590 O 0.51736 0.21775 0.5225 0.0
C591 C 0.59908 0.13528 0.67609 0.0
O592 O 0.53733 0.35817 0.53852 0.0
O593 O 0.37691 0.31063 0.59985 0.0
O594 O 0.49809 0.3616 0.78705 0.0
O595 O 0.65706 0.2516 0.6194 0.0
O596 O 0.62881 0.2409 0.75395 0.0
O597 O 0.38231 0.30976 0.73331 0.0
C598 C 0.38383 0.19137 0.62201 0.0
C599 C 0.64763 0.36251 0.66518 0.0
C600 C 0.13233 0.31726 0.15113 0.0
C601 C 0.14637 0.36672 0.16374 0.0
H602 H 0.12166 0.24172 0.17714 0.0
C603 C 0.16297 0.37736 0.21329 0.0
H604 H 0.12089 0.30774 0.11311 0.0
C605 C 0.16514 0.33939 0.24949 0.0
C606 C 0.14891 0.29049 0.23735 0.0
H607 H 0.1751 0.41498 0.22387 0.0
H608 H 0.17519 0.34953 0.28799 0.0
C609 C 0.13522 0.27906 0.18711 0.0
C610 C 0.62656 0.62291 0.03946 0.0
C611 C 0.6178 0.57318 0.05315 0.0
H612 H 0.59041 0.69209 1.02611 0.0
C613 C 0.57446 0.54858 0.03522 0.0
H614 H 0.66091 0.64175 0.05103 0.0
C615 C 0.5333 0.57813 1.02105 0.0
C616 C 0.53805 0.63073 1.02198 0.0
H617 H 0.5684 0.50875 0.04273 0.0
H618 H 0.4974 0.56041 1.01529 0.0
C619 C 0.5857 0.65223 1.02702 0.0
C620 C 0.89111 0.18954 0.26079 0.0
C621 C 0.90184 0.24052 0.25157 0.0
H622 H 0.88925 0.11486 0.22964 0.0
C623 C 0.92341 0.25446 0.20497 0.0
H624 H 0.87622 0.17741 0.29693 0.0
C625 C 0.9334 0.21883 0.16804 0.0
C626 C 0.9199 0.16837 0.17552 0.0
H627 H 0.9326 0.29358 0.19691 0.0
H628 H 0.94582 0.23248 0.1317 0.0
C629 C 0.90054 0.15359 0.22307 0.0
C630 C 0.40692 0.94807 0.05427 0.0
C631 C 0.42538 0.99431 0.07062 0.0
H632 H 0.42821 0.87521 1.02916 0.0
C633 C 0.47055 1.01296 0.05109 0.0
H634 H 0.37097 0.93442 0.06782 0.0
C635 C 0.50435 0.97857 0.03038 0.0
C636 C 0.49064 0.92776 1.02734 0.0
H637 H 0.48408 0.05016 0.06159 0.0
H638 H 0.54209 0.99049 1.02273 0.0
C639 C 0.44052 0.91362 0.03482 0.0
C640 C 0.14025 0.62406 0.33934 0.0
C641 C 0.11882 0.63054 0.38786 0.0
H642 H 0.16613 0.66267 0.27295 0.0
C643 C 0.08257 0.6681 0.39314 0.0
H644 H 0.16409 0.59174 0.33158 0.0
C645 C 0.08649 0.7108 0.36266 0.0
C646 C 0.12002 0.71111 0.32084 0.0
H647 H 0.05877 0.66878 0.42631 0.0
H648 H 0.06323 0.74331 0.37199 0.0
C649 C 0.14366 0.66562 0.30706 0.0
C650 C 0.98756 0.58308 1.02196 0.0
C651 C 0.98002 0.63558 1.02119 0.0
H652 H 0.95903 0.51216 0.99646 0.0
C653 C 0.93226 0.65541 1.00999 0.0
H654 H 1.02301 0.56687 0.03375 0.0
C655 C 0.89409 0.62374 0.99559 0.0
C656 C 0.90595 0.57375 0.98351 0.0
H657 H 0.92394 0.69535 1.01252 0.0
H658 H 0.85906 0.64076 0.98267 0.0
C659 C 0.95004 0.55167 1.00325 0.0
C660 C 0.9312 0.79854 0.37042 0.0
C661 C 0.90266 0.80267 0.32548 0.0
H662 H 0.95876 0.83543 0.43651 0.0
C663 C 0.88104 0.84927 0.31224 0.0
H664 H 0.94941 0.76327 0.38098 0.0
C665 C 0.88666 0.89048 0.34419 0.0
C666 C 0.91313 0.88555 0.39029 0.0
H667 H 0.85965 0.85397 0.27753 0.0
H668 H 0.86699 0.92512 0.33456 0.0
C669 C 0.93766 0.84003 0.40169 0.0
C670 C 0.02771 0.95214 0.94775 0.0
C671 C 0.07033 0.97579 0.96819 0.0
H672 H 0.96031 0.91309 0.9652 0.0
C673 C 0.06974 0.99483 1.01758 0.0
H674 H 0.02561 0.94177 0.90805 0.0
C675 C 0.03109 0.98048 0.04942 0.0
C676 C 0.99615 0.94491 0.03158 0.0
H677 H 0.10076 1.01688 0.03238 0.0
H678 H 0.03473 0.98882 0.08954 0.0
C679 C 0.98925 0.93807 0.97958 0.0
C680 C 0.15536 0.07079 0.38077 0.0
C681 C 0.1506 0.09961 0.42457 0.0
H682 H 0.19698 0.06312 0.31244 0.0
C683 C 0.19459 0.11629 0.44846 0.0
H684 H 0.12329 0.0509 0.36557 0.0
C685 C 0.23575 0.12696 0.41824 0.0
C686 C 0.23558 0.11167 0.3676 0.0
H687 H 0.19282 0.13433 0.48509 0.0
H688 H 0.2672 0.14756 0.43398 0.0
C689 C 0.19642 0.08008 0.34988 0.0
C690 C 0.40168 0.58826 0.92322 0.0
C691 C 0.37517 0.63398 0.93129 0.0
H692 H 0.43399 0.52221 0.95658 0.0
C693 C 0.35404 0.64361 0.97884 0.0
H694 H 0.4188 0.5798 0.88693 0.0
C695 C 0.36354 0.61091 1.01884 0.0
C696 C 0.39213 0.5663 1.01159 0.0
H697 H 0.33328 0.67817 0.98609 0.0
H698 H 0.34748 0.62011 0.0555 0.0
C699 C 0.41119 0.55549 0.96334 0.0
C700 C 0.80909 0.43598 0.40939 0.0
C701 C 0.81821 0.45194 0.35924 0.0
H702 H 0.84291 0.42072 0.48107 0.0
C703 C 0.86131 0.48089 0.34914 0.0
H704 H 0.77412 0.4184 0.42044 0.0
C705 C 0.89905 0.4834 0.38533 0.0
C706 C 0.89511 0.45107 0.4267 0.0
H707 H 0.86646 0.50004 0.31329 0.0
H708 H 0.93495 0.49955 0.37508 0.0
C709 C 0.84729 0.43973 0.44496 0.0
C710 C 0.62559 0.96132 0.92771 0.0
C711 C 0.64541 0.91254 0.93608 0.0
H712 H 0.61053 0.03405 0.95933 0.0
C713 C 0.66079 0.89893 0.9852 0.0
H714 H 0.61131 0.9725 0.89078 0.0
C715 C 0.65665 0.93302 1.02504 0.0
C716 C 0.64329 0.98344 1.01491 0.0
H717 H 0.67537 0.86186 0.99312 0.0
H718 H 0.67249 0.92258 0.06156 0.0
C719 C 0.62318 0.99593 0.9673 0.0
C720 C 0.20154 0.91121 0.11438 0.0
C721 C 0.15733 0.93043 0.136 0.0
H722 H 0.2782 0.89109 0.13004 0.0
C723 C 0.16029 0.96703 0.17373 0.0
H724 H 0.19941 0.88635 0.08208 0.0
C725 C 0.2033 0.9677 0.20311 0.0
C726 C 0.24468 0.93648 0.19004 0.0
H727 H 0.12665 0.98549 0.1881 0.0
H728 H 0.20305 0.9908 0.23712 0.0
C729 C 0.24547 0.91211 0.14289 0.0
C730 C 0.11002 0.54135 0.08063 0.0
C731 C 0.12849 0.55517 0.0329 0.0
H732 H 0.10353 0.56231 0.15856 0.0
C733 C 0.13751 0.60634 1.02276 0.0
H734 H 0.10097 0.50223 0.08878 0.0
C735 C 0.14228 0.64002 0.06304 0.0
C736 C 0.13271 0.62398 0.11299 0.0
H737 H 0.15017 0.61796 0.98552 0.0
H738 H 0.15219 0.67864 0.05472 0.0
C739 C 0.11425 0.57489 0.121 0.0
C740 C 0.79199 0.65385 0.12509 0.0
C741 C 0.79583 0.63068 0.17269 0.0
H742 H 0.83244 0.67309 0.0596 0.0
C743 C 0.83434 0.59463 0.18222 0.0
H744 H 0.76104 0.67904 0.11543 0.0
C745 C 0.8698 0.58524 0.14525 0.0
C746 C 0.87476 0.6231 0.10935 0.0
H747 H 0.83637 0.57289 0.21704 0.0
H748 H 0.90115 0.56032 0.15435 0.0
C749 C 0.8311 0.64729 0.09129 0.0
C750 C 0.92022 1.00816 0.11115 0.0
C751 C 0.89626 0.99464 0.06579 0.0
H752 H 0.93755 0.98649 0.18698 0.0
C753 C 0.86435 0.95229 0.06506 0.0
H754 H 0.94486 0.04052 0.11297 0.0
C755 C 0.85778 0.92329 0.10799 0.0
C756 C 0.88623 0.93305 0.15155 0.0
H757 H 0.84444 0.94099 0.03097 0.0
H758 H 0.83473 0.88999 0.10485 0.0
C759 C 0.91487 0.97781 0.15395 0.0
C760 C 0.35374 0.26708 0.15988 0.0
C761 C 0.30294 0.27101 0.17301 0.0
H762 H 0.42563 0.2424 0.1828 0.0
C763 C 0.28851 0.26893 0.22396 0.0
H764 H 0.36634 0.27154 0.12126 0.0
C765 C 0.3237 0.25375 0.26017 0.0
C766 C 0.37198 0.23952 0.24391 0.0
H767 H 0.24977 0.27423 0.23489 0.0
H768 H 0.31063 0.24421 0.29786 0.0
C769 C 0.38856 0.2537 0.19594 0.0
C770 C 0.34758 0.78962 0.40423 0.0
C771 C 0.29854 0.7819 0.38637 0.0
H772 H 0.42255 0.80757 0.38682 0.0
C773 C 0.28865 0.78372 0.3342 0.0
H774 H 0.35654 0.78891 0.44406 0.0
C775 C 0.32614 0.80167 0.30194 0.0
C776 C 0.37306 0.8153 0.32269 0.0
H777 H 0.25131 0.77627 0.3195 0.0
H778 H 0.31598 0.81221 0.2635 0.0
C779 C 0.38599 0.79903 0.37106 0.0
C780 C 0.06541 0.40943 0.876 0.0
C781 C 0.05991 0.46063 0.88919 0.0
H782 H 0.1172 0.34832 0.86345 0.0
C783 C 0.10271 0.49022 0.89799 0.0
H784 H 0.03301 0.38598 0.86822 0.0
C785 C 0.15014 0.46955 0.89207 0.0
C786 C 0.15569 0.41852 0.87932 0.0
H787 H 0.09946 0.52988 0.90825 0.0
H788 H 0.18229 0.49216 0.90273 0.0
C789 C 0.11324 0.38854 0.87083 0.0
C790 C 0.72161 0.75295 0.29749 0.0
C791 C 0.67668 0.73686 0.32053 0.0
H792 H 0.7965 0.77991 0.31089 0.0
C793 C 0.66728 0.74927 0.37099 0.0
H794 H 0.72962 0.74404 0.25818 0.0
C795 C 0.70548 0.76765 0.40055 0.0
C796 C 0.75329 0.77563 0.38011 0.0
H797 H 0.63278 0.73785 0.38952 0.0
H798 H 0.69831 0.77254 0.44027 0.0
C799 C 0.76033 0.77223 0.32765 0.0
C800 C 0.46065 0.66871 0.41425 0.0
C801 C 0.41426 0.64721 0.40263 0.0
H802 H 0.53829 0.65608 0.4265 0.0
C803 C 0.40896 0.59482 0.40017 0.0
H804 H 0.46436 0.70913 0.41873 0.0
C805 C 0.45048 0.56402 0.40583 0.0
C806 C 0.49788 0.5861 0.41116 0.0
H807 H 0.37262 0.57763 0.3978 0.0
H808 H 0.44628 0.52351 0.40073 0.0
C809 C 0.50215 0.63809 0.4209 0.0
C810 C 0.26056 0.87322 0.70058 0.0
C811 C 0.21972 0.84969 0.72441 0.0
H812 H 0.33136 0.86282 0.66472 0.0
C813 C 0.22639 0.80179 0.74597 0.0
H814 H 0.25867 0.91205 0.68895 0.0
C815 C 0.26967 0.77433 0.73407 0.0
C816 C 0.30304 0.7942 0.69794 0.0
H817 H 0.19725 0.78474 0.76882 0.0
H818 H 0.27148 0.73479 0.74482 0.0
C819 C 0.30363 0.84607 0.68956 0.0
C820 C 0.10838 0.63247 0.7371 0.0
C821 C 0.06903 0.64407 0.70274 0.0
H822 H 0.18278 0.65092 0.76002 0.0
C823 C 0.06724 0.6919 0.67955 0.0
H824 H 0.10858 0.5984 0.75997 0.0
C825 C 0.10957 0.72223 0.68275 0.0
C826 C 0.15353 0.69991 0.7014 0.0
H827 H 0.03536 0.70411 0.65683 0.0
H828 H 0.11205 0.75557 0.65955 0.0
C829 C 0.1497 0.66383 0.73946 0.0
C830 C 0.94207 0.97887 0.7138 0.0
C831 C 0.98585 0.95961 0.68996 0.0
H832 H 0.86774 0.96203 0.73924 0.0
C833 C 0.99114 0.90701 0.68446 0.0
H834 H 0.93808 1.01854 0.72356 0.0
C835 C 0.95085 0.87599 0.69599 0.0
C836 C 0.90355 0.89815 0.7046 0.0
H837 H 0.02592 0.88978 0.67151 0.0
H838 H 0.95467 0.83635 0.68802 0.0
C839 C 0.90264 0.94654 0.7252 0.0
C840 C 0.59182 0.86001 0.66575 0.0
C841 C 0.63129 0.89388 0.6702 0.0
H842 H 0.55854 0.79331 0.6936 0.0
C843 C 0.66184 0.89298 0.71417 0.0
H844 H 0.56643 0.86164 0.63358 0.0
C845 C 0.65766 0.85399 0.74906 0.0
C846 C 0.62271 0.81572 0.7406 0.0
H847 H 0.69251 0.91904 0.71926 0.0
H848 H 0.6829 0.85294 0.78142 0.0
C849 C 0.58831 0.82043 0.69981 0.0
C850 C 0.10488 0.17782 0.56454 0.0
C851 C 0.06866 0.14692 0.54126 0.0
H852 H 0.17674 0.18273 0.59833 0.0
C853 C 0.08114 0.097 0.52832 0.0
H854 H 0.09609 0.21557 0.57737 0.0
C855 C 0.12672 0.07693 0.54513 0.0
C856 C 0.15652 0.10616 0.57822 0.0
H857 H 0.05463 0.07285 0.50871 0.0
H858 H 0.13309 0.03654 0.54121 0.0
C859 C 0.15154 0.15862 0.57691 0.0
C860 C 0.43822 0.74228 0.70989 0.0
C861 C 0.40306 0.7404 0.75003 0.0
H862 H 0.47383 0.70265 0.64912 0.0
C863 C 0.37877 0.69484 0.76041 0.0
H864 H 0.45942 0.77616 0.7017 0.0
C865 C 0.38608 0.65367 0.72828 0.0
C866 C 0.41683 0.65819 0.68488 0.0
H867 H 0.35272 0.69162 0.7917 0.0
H868 H 0.3627 0.62094 0.73383 0.0
C869 C 0.44732 0.7003 0.67997 0.0
C870 C 0.96833 0.4346 0.52692 0.0
C871 C 1.02078 0.43535 0.53045 0.0
H872 H 0.90048 0.47383 0.54006 0.0
C873 C 0.04605 0.47942 0.54379 0.0
H874 H 0.94827 0.40015 0.51793 0.0
C875 C 1.01807 0.52109 0.55954 0.0
C876 C 0.96573 0.51633 0.56277 0.0
H877 H 0.08635 0.47948 0.5476 0.0
H878 H 0.03726 0.55204 0.57828 0.0
C879 C 0.94104 0.47736 0.53782 0.0
C880 C 0.58263 0.136 0.89174 0.0
C881 C 0.62579 0.10716 0.88177 0.0
H882 H 0.54714 0.20695 0.87572 0.0
C883 C 0.64342 0.10694 0.83186 0.0
H884 H 0.5625 0.13183 0.92717 0.0
C885 C 0.63947 0.15161 0.80471 0.0
C886 C 0.6088 0.19081 0.82353 0.0
H887 H 0.67121 0.0798 0.81993 0.0
H888 H 0.66179 0.15581 0.77071 0.0
C889 C 0.57606 0.18034 0.86411 0.0
C890 C 0.43507 0.15359 0.51782 0.0
C891 C 0.48418 0.13696 0.52815 0.0
H892 H 0.36028 0.13202 0.50121 0.0
C893 C 0.49412 0.08522 0.535 0.0
H894 H 0.42548 0.19335 0.51602 0.0
C895 C 0.45698 0.05038 0.52305 0.0
C896 C 0.41175 0.0686 0.50239 0.0
H897 H 0.53107 0.07206 0.54631 0.0
H898 H 0.46731 1.01072 0.52008 0.0
C899 C 0.39723 0.11847 0.51247 0.0
C900 C 0.40425 0.41093 0.85172 0.0
C901 C 0.42718 0.39345 0.89656 0.0
H902 H 0.37192 0.39196 0.78002 0.0
C903 C 0.44327 0.34324 0.89969 0.0
H904 H 0.39196 0.44971 0.84864 0.0
C905 C 0.43054 0.30956 0.86153 0.0
C906 C 0.40319 0.32617 0.81842 0.0
H907 H 0.46131 0.32907 0.93352 0.0
H908 H 0.44149 0.27026 0.86633 0.0
C909 C 0.3913 0.37756 0.81328 0.0
C910 C 0.66536 0.43039 0.49222 0.0
C911 C 0.65541 0.48048 0.47934 0.0
H912 H 0.63325 0.36414 0.52268 0.0
C913 C 0.61972 0.50857 0.50697 0.0
H914 H 0.69517 0.40947 0.47353 0.0
C915 C 0.58477 0.48276 0.53581 0.0
C916 C 0.58633 0.42995 0.53613 0.0
H917 H 0.61346 0.54852 0.49986 0.0
H918 H 0.55511 0.5035 0.55428 0.0
C919 C 0.62904 0.40438 0.51833 0.0
C920 C 0.72709 0.6355 0.90008 0.0
C921 C 0.72459 0.61648 0.85058 0.0
H922 H 0.68905 0.64676 0.96853 0.0
C923 C 0.68591 0.58227 0.83781 0.0
H924 H 0.75831 0.65852 0.91267 0.0
C925 C 0.64752 0.57325 0.87233 0.0
C926 C 0.64403 0.60483 0.91436 0.0
H927 H 0.68538 0.56239 0.80184 0.0
H928 H 0.61596 0.55007 0.86149 0.0
C929 C 0.68872 0.62522 0.93378 0.0
C930 C 0.92204 0.09112 0.44647 0.0
C931 C 0.89789 0.13737 0.45841 0.0
H932 H 0.9542 1.02264 0.47415 0.0
C933 C 0.89077 0.15039 0.50964 0.0
H934 H 0.93015 0.08065 0.40756 0.0
C935 C 0.90522 0.11663 0.54776 0.0
C936 C 0.92095 0.06757 0.53412 0.0
H937 H 0.87509 0.18659 0.52022 0.0
H938 H 0.89438 0.12485 0.58653 0.0
C939 C 0.93849 0.05912 0.48487 0.0
C940 C 0.34401 0.96326 0.84694 0.0
C941 C 0.30256 0.93615 0.86659 0.0
H942 H 0.41608 0.99433 0.86339 0.0
C943 C 0.29844 0.9301 0.91914 0.0
H944 H 0.34618 0.97431 0.80747 0.0
C945 C 0.33938 0.94179 0.94948 0.0
C946 C 0.38504 0.95265 0.92563 0.0
H947 H 0.26458 0.91556 0.9364 0.0
H948 H 0.33796 0.93029 0.98848 0.0
C949 C 0.38273 0.97731 0.87924 0.0
C950 C 0.20317 0.44442 0.49257 0.0
C951 C 0.17141 0.48747 0.49453 0.0
H952 H 0.22276 0.3761 0.45396 0.0
C953 C 0.13884 0.49725 0.45386 0.0
H954 H 0.23059 0.43665 0.52206 0.0
C955 C 0.13524 0.46255 0.41425 0.0
C956 C 0.16313 0.4168 0.4156 0.0
H957 H 0.11497 0.53059 0.4534 0.0
H958 H 0.10729 0.46961 0.38507 0.0
C959 C 0.19966 0.41 0.45305 0.0
C960 C 0.73656 0.35512 0.6421 0.0
C961 C 0.69188 0.38362 0.64335 0.0
H962 H 0.81589 0.35897 0.63749 0.0
C963 C 0.69038 0.43293 0.62385 0.0
H964 H 0.73823 0.31613 0.65484 0.0
C965 C 0.73505 0.45676 0.61425 0.0
C966 C 0.77926 0.43159 0.62775 0.0
H967 H 0.65596 0.45487 0.62176 0.0
H968 H 0.73412 0.49723 0.60903 0.0
C969 C 0.78082 0.37904 0.63056 0.0
C970 C 0.67342 0.09966 0.63723 0.0
C971 C 0.62719 0.0902 0.66035 0.0
H972 H 0.71449 0.09402 0.56897 0.0
C973 C 0.59918 0.04797 0.64444 0.0
H974 H 0.69771 0.12974 0.65048 0.0
C975 C 0.60961 1.02577 0.59774 0.0
C976 C 0.64983 0.04357 0.56868 0.0
H977 H 0.56444 0.03796 0.66322 0.0
H978 H 0.58467 0.99682 0.58331 0.0
C979 C 0.68234 0.07986 0.58961 0.0
C980 C 0.33114 0.09855 0.67306 0.0
C981 C 0.29452 0.13049 0.69458 0.0
H982 H 0.38109 0.08763 0.61209 0.0
C983 C 0.27263 0.16924 0.66515 0.0
H984 H 0.34774 0.06708 0.69358 0.0
C985 C 0.29426 0.1814 0.61913 0.0
C986 C 0.34114 0.15943 0.60877 0.0
H987 H 0.24243 0.193 0.67946 0.0
H988 H 0.28343 0.21718 0.60253 0.0
C989 C 0.34934 0.10979 0.62548 0.0
C990 C 0.464 0.52605 0.5776 0.0
C991 C 0.44543 0.50987 0.5304 0.0
H992 H 0.46548 0.51011 0.65729 0.0
C993 C 0.43877 0.45827 0.52209 0.0
H994 H 0.47427 0.56525 0.58358 0.0
C995 C 0.43024 0.42784 0.56393 0.0
C996 C 0.43583 0.44749 0.61329 0.0
H997 H 0.42815 0.44446 0.48485 0.0
H998 H 0.41873 0.38953 0.55737 0.0
C999 C 0.45682 0.49554 0.61982 0.0
C1000 C 0.84263 0.7858 0.66041 0.0
C1001 C 0.79293 0.78823 0.67765 0.0
H1002 H 0.91688 0.76277 0.67611 0.0
C1003 C 0.78269 0.7846 0.72943 0.0
H1004 H 0.8518 0.7909 0.62127 0.0
C1005 C 0.82119 0.76864 0.76171 0.0
C1006 C 0.86768 0.75447 0.74023 0.0
H1007 H 0.74466 0.78813 0.74359 0.0
H1008 H 0.81141 0.7574 0.79994 0.0
C1009 C 0.88073 0.77234 0.69271 0.0
C1010 C 0.75985 0.34149 0.8604 0.0
C1011 C 0.76784 0.28936 0.85897 0.0
H1012 H 0.78405 0.41261 0.83215 0.0
C1013 C 0.79668 0.26778 0.81945 0.0
H1014 H 0.73656 0.35864 0.88949 0.0
C1015 C 0.82753 0.29857 0.79034 0.0
C1016 C 0.82582 0.35061 0.79846 0.0
H1017 H 0.80125 0.2272 0.81598 0.0
H1018 H 0.85587 0.28165 0.76606 0.0
C1019 C 0.78762 0.37204 0.82847 0.0
C1020 C 0.56377 0.88829 0.37867 0.0
C1021 C 0.56742 0.94079 0.37197 0.0
H1022 H 0.60043 0.81777 0.37046 0.0
C1023 C 0.60744 0.95982 0.34218 0.0
H1024 H 0.5316 0.87141 0.39705 0.0
C1025 C 0.64528 0.92712 0.32563 0.0
C1026 C 0.6483 0.87988 0.34861 0.0
H1027 H 0.60927 0.9992 0.33099 0.0
H1028 H 0.67764 0.94238 0.30638 0.0
C1029 C 0.60253 0.85724 0.36149 0.0
C1030 C 0.26928 0.18843 0.86144 0.0
C1031 C 0.22569 0.21295 0.84287 0.0
H1032 H 0.34371 0.19849 0.88922 0.0
C1033 C 0.22936 0.26121 0.82158 0.0
H1034 H 0.2689 0.14914 0.87313 0.0
C1035 C 0.27346 0.2882 0.8288 0.0
C1036 C 0.31042 0.26778 0.86125 0.0
H1037 H 0.19748 0.27914 0.80311 0.0
H1038 H 0.27333 0.32811 0.81922 0.0
C1039 C 0.31308 0.21554 0.86787 0.0
C1040 C 0.91946 0.16138 0.82388 0.0
C1041 C 0.917 0.20018 0.85937 0.0
H1042 H 0.95253 0.08876 0.81308 0.0
C1043 C 0.96271 0.2194 0.87716 0.0
H1044 H 0.88663 0.15157 0.80153 0.0
C1045 C 1.00198 0.18492 0.88468 0.0
C1046 C 0.99592 0.13511 0.86673 0.0
H1047 H 0.96358 0.25564 0.896 0.0
H1048 H 0.03476 0.1961 0.90637 0.0
C1049 C 0.9559 0.12468 0.83265 0.0
C1050 C 0.74069 0.30012 0.23658 0.0
C1051 C 0.73081 0.3474 0.21519 0.0
H1052 H 0.78646 0.23425 0.23146 0.0
C1053 C 0.76803 0.37226 0.18711 0.0
H1054 H 0.71425 0.28249 0.26219 0.0
C1055 C 0.80994 0.34571 0.17115 0.0
C1056 C 0.81177 0.29391 0.18079 0.0
H1057 H 0.76335 0.41113 0.17513 0.0
H1058 H 0.83429 0.36265 0.14306 0.0
C1059 C 0.78296 0.27367 0.22057 0.0
C1060 C 0.65522 0.14778 0.22526 0.0
C1061 C 0.65426 0.1858 0.18872 0.0
H1062 H 0.61724 0.08255 0.25145 0.0
C1063 C 0.60762 0.20551 0.17299 0.0
H1064 H 0.69052 0.13504 0.24174 0.0
C1065 C 0.56558 0.17462 0.176 0.0
C1066 C 0.57023 0.12729 0.1997 0.0
H1067 H 0.60612 0.23808 0.14828 0.0
H1068 H 0.53106 0.18614 0.15717 0.0
C1069 C 0.61388 0.1164 0.22847 0.0
C1070 C 0.49373 0.38707 0.18821 0.0
C1071 C 0.48728 0.43924 0.19497 0.0
H1072 H 0.45834 0.31719 0.18718 0.0
C1073 C 0.44635 0.45678 0.22472 0.0
H1074 H 0.52754 0.37119 0.17156 0.0
C1075 C 0.40892 0.42301 0.23861 0.0
C1076 C 0.40789 0.37714 0.2127 0.0
H1077 H 0.4428 0.49593 0.2365 0.0
H1078 H 0.37532 0.43738 0.25685 0.0
C1079 C 0.4547 0.3552 0.20079 0.0
C1080 C 0.06038 0.54506 0.27574 0.0
C1081 C 1.01501 0.57452 0.27849 0.0
H1082 H 0.09835 0.47165 0.27865 0.0
C1083 C 0.97143 0.543 0.27533 0.0
H1084 H 0.09563 0.56457 0.27155 0.0
C1085 C 0.97295 0.4881 0.27359 0.0
C1086 C 1.01809 0.45859 0.27399 0.0
H1087 H 0.93491 0.56126 0.27265 0.0
H1088 H 0.93768 0.46803 0.27369 0.0
C1089 C 0.06187 0.48999 0.27591 0.0
C1090 C 0.72455 0.79553 0.0646 0.0
C1091 C 0.70623 0.77135 1.02029 0.0
H1092 H 0.78687 0.81832 0.11153 0.0
C1093 C 0.74764 0.75486 0.98782 0.0
H1094 H 0.69762 0.81026 0.09167 0.0
C1095 C 0.80115 0.76041 0.99861 0.0
C1096 C 0.81951 0.78407 0.04318 0.0
H1097 H 0.73897 0.7367 0.95218 0.0
H1098 H 0.82803 0.74424 0.97229 0.0
C1099 C 0.77807 0.80114 0.07535 0.0
C1100 C 0.05383 0.04799 0.2862 0.0
C1101 C 1.00781 0.07611 0.28738 0.0
H1102 H 0.09457 0.97653 0.2862 0.0
C1103 C 0.96557 0.04273 0.29248 0.0
H1104 H 0.08859 0.06903 0.28475 0.0
C1105 C 0.96881 0.98729 0.29342 0.0
C1106 C 1.01526 0.95938 0.2939 0.0
H1107 H 0.92898 0.06018 0.29667 0.0
H1108 H 0.93418 0.96636 0.29223 0.0
C1109 C 0.05732 0.99314 0.2892 0.0
C1110 C 0.28395 0.823 1.0102 0.0
C1111 C 0.32053 0.78786 0.03079 0.0
H1112 H 0.20681 0.84938 0.99859 0.0
C1113 C 0.29648 0.74745 0.05656 0.0
H1114 H 0.29788 0.85407 0.98844 0.0
C1115 C 0.24195 0.74413 0.06191 0.0
C1116 C 0.20548 0.77927 0.04031 0.0
H1117 H 0.3196 0.71734 0.07213 0.0
H1118 H 0.22819 0.71358 0.0852 0.0
C1119 C 0.22972 0.81916 1.01432 0.0
C1120 C 0.28638 0.95378 0.50869 0.0
C1121 C 0.28605 0.997 0.4754 0.0
H1122 H 0.27852 0.92007 0.58382 0.0
C1123 C 0.28155 0.04272 0.50472 0.0
H1124 H 0.29169 0.91677 0.49175 0.0
C1125 C 0.27361 0.04467 0.55985 0.0
C1126 C 0.2748 1.00142 0.59311 0.0
H1127 H 0.2861 0.07815 0.48556 0.0
H1128 H 0.2654 0.08123 0.57631 0.0
C1129 C 0.28027 0.9558 0.56381 0.0
C1130 C 0.33048 0.53219 0.81173 0.0
C1131 C 0.28876 0.53881 0.84585 0.0
H1132 H 0.36111 0.52504 0.73502 0.0
C1133 C 0.24242 0.5414 0.81822 0.0
H1134 H 0.36726 0.52793 0.82855 0.0
C1135 C 0.23877 0.53884 0.7631 0.0
C1136 C 0.28061 0.53071 0.72933 0.0
H1137 H 0.2078 0.54491 0.83928 0.0
H1138 H 0.20195 0.54481 0.74635 0.0
C1139 C 0.32678 0.52819 0.75672 0.0
C1140 C 0.83351 0.56382 0.52638 0.0
C1141 C 0.79692 0.57029 0.5667 0.0
H1142 H 0.85358 0.55825 0.44572 0.0
C1143 C 0.74806 0.57853 0.54587 0.0
H1144 H 0.87249 0.56045 0.5372 0.0
C1145 C 0.73746 0.57984 0.4914 0.0
C1146 C 0.77334 0.57051 0.45077 0.0
H1147 H 0.71742 0.58625 0.57176 0.0
H1148 H 0.69928 0.58976 0.48141 0.0
C1149 C 0.82249 0.5628 0.47165 0.0
C1150 C 0.74301 1.01426 0.80612 0.0
C1151 C 0.7885 0.02914 0.82997 0.0
H1152 H 0.69962 1.00356 0.73702 0.0
C1153 C 0.8252 0.04632 0.79378 0.0
H1154 H 0.71212 1.00219 0.82978 0.0
C1155 C 0.81788 0.04774 0.73933 0.0
C1156 C 0.77257 0.03277 0.71524 0.0
H1157 H 0.86098 0.05955 0.80805 0.0
H1158 H 0.84951 0.05794 0.71578 0.0
C1159 C 0.73535 1.01667 0.75152 0.0
C1160 C 0.25075 1.02736 0.07257 0.0
C1161 C 0.29328 0.05268 0.09315 0.0
H1162 H 0.20628 1.00464 1.00704 0.0
C1163 C 0.32493 0.07248 0.05315 0.0
H1164 H 0.22342 1.0124 0.09854 0.0
C1165 C 0.31523 0.06794 0.99882 0.0
C1166 C 0.27268 0.04265 0.97835 0.0
H1167 H 0.35838 0.09309 0.06372 0.0
H1168 H 0.34055 0.08655 0.97285 0.0
C1169 C 0.24098 1.02284 1.01816 0.0
C1170 C 0.23326 0.51342 0.31761 0.0
C1171 C 0.27872 0.52026 0.34581 0.0
H1172 H 0.19466 0.50411 0.24522 0.0
C1173 C 0.32101 0.52701 0.31273 0.0
H1174 H 0.19845 0.51 0.33842 0.0
C1175 C 0.31834 0.52663 0.25778 0.0
C1176 C 0.27292 0.52033 0.22977 0.0
H1177 H 0.35754 0.53342 0.3292 0.0
H1178 H 0.35316 0.52962 0.23687 0.0
C1179 C 0.23068 0.51234 0.26252 0.0
C1180 C 0.7676 0.54929 0.03487 0.0
C1181 C 0.76157 0.50514 0.06625 0.0
H1182 H 0.78512 0.58356 0.9616 0.0
C1183 C 0.75947 0.46072 0.03448 0.0
H1184 H 0.76516 0.5857 0.05289 0.0
C1185 C 0.7651 0.46006 0.97915 0.0
C1186 C 0.77187 0.50391 0.94755 0.0
H1187 H 0.75297 0.42473 0.05288 0.0
H1188 H 0.76517 0.4234 0.96075 0.0
C1189 C 0.77498 0.5484 0.97934 0.0
C1190 C 0.7371 1.02654 0.24382 0.0
C1191 C 0.78205 1.02159 0.21409 0.0
H1192 H 0.69967 0.02966 0.31726 0.0
C1193 C 0.82588 1.02107 0.24579 0.0
H1194 H 0.70168 0.03125 0.22393 0.0
C1195 C 0.82462 1.02139 0.30091 0.0
C1196 C 0.77983 1.02609 0.33045 0.0
H1197 H 0.86228 1.02231 0.22799 0.0
H1198 H 0.85964 1.01651 0.32122 0.0
C1199 C 0.73601 1.02809 0.29895 0.0
C1200 C 0.57345 0.29614 0.06427 0.0
C1201 C 0.59692 0.27264 1.02194 0.0
H1202 H 0.50594 0.31979 0.10339 0.0
C1203 C 0.55985 0.25312 0.9868 0.0
H1204 H 0.59705 0.30999 0.09472 0.0
C1205 C 0.5053 0.2578 0.99211 0.0
C1206 C 0.48191 0.28192 0.03437 0.0
H1207 H 0.57375 0.23196 0.95477 0.0
H1208 H 0.48167 0.24306 0.96211 0.0
C1209 C 0.51918 0.30051 0.06988 0.0
C1210 C 0.55055 0.78436 0.48274 0.0
C1211 C 0.58467 0.77894 0.52483 0.0
H1212 H 0.47493 0.7875 0.45154 0.0
C1213 C 0.55749 0.77628 0.57143 0.0
H1214 H 0.56653 0.78919 0.44549 0.0
C1215 C 0.50255 0.77809 0.57516 0.0
C1216 C 0.46844 0.78279 0.53285 0.0
H1217 H 0.57915 0.77375 0.60599 0.0
H1218 H 0.48638 0.77562 0.61243 0.0
C1219 C 0.496 0.78552 0.48645 0.0
C1220 C 0.98568 0.31057 0.76097 0.0
C1221 C 1.02352 0.35001 0.76092 0.0
H1222 H 0.96335 0.23086 0.75836 0.0
C1223 C 0.0727 0.32819 0.75967 0.0
H1224 H 0.9467 0.3221 0.75983 0.0
C1225 C 0.08232 0.27348 0.75843 0.0
C1226 C 0.04442 0.23399 0.75874 0.0
H1227 H 0.10454 0.35339 0.75734 0.0
H1228 H 0.1213 0.26212 0.75567 0.0
C1229 C 0.99529 0.25586 0.76022 0.0
C1230 C 0.51429 0.74692 0.29751 0.0
C1231 C 0.53061 0.71962 0.25316 0.0
H1232 H 0.49385 0.81879 0.33408 0.0
C1233 C 0.54267 0.75465 0.21301 0.0
H1234 H 0.50475 0.72535 0.3309 0.0
C1235 C 0.53882 0.80952 0.2159 0.0
C1236 C 0.52336 0.83731 0.25971 0.0
H1237 H 0.55551 0.73941 0.17713 0.0
H1238 H 0.54698 0.8307 0.18178 0.0
C1239 C 0.50967 0.80272 0.3 0.0
C1240 C 0.9963 0.7597 0.49948 0.0
C1241 C 0.96885 0.77996 0.54134 0.0
H1242 H 0.06832 0.74092 0.46483 0.0
C1243 C 1.00271 0.79887 0.57977 0.0
H1244 H 0.97549 0.74679 0.46671 0.0
C1245 C 0.05736 0.79646 0.57787 0.0
C1246 C 0.08475 0.77527 0.53657 0.0
H1247 H 0.98641 0.81829 0.61169 0.0
H1248 H 0.07807 0.81203 0.60947 0.0
C1249 C 0.05115 0.75737 0.49772 0.0
C1250 C 0.97694 0.82813 0.82072 0.0
C1251 C 1.02137 0.84848 0.79866 0.0
H1252 H 0.93253 0.76318 0.84302 0.0
C1253 C 0.05547 0.80823 0.78345 0.0
H1254 H 0.94943 0.85425 0.83622 0.0
C1255 C 0.04686 0.75413 0.78969 0.0
C1256 C 1.00234 0.73361 0.81067 0.0
H1257 H 0.09153 0.81873 0.76808 0.0
H1258 H 0.07663 0.7283 0.77968 0.0
C1259 C 0.96778 0.77372 0.82572 0.0
C1260 C 0.54184 0.05362 0.77318 0.0
C1261 C 0.49442 0.07931 0.77261 0.0
H1262 H 0.58535 0.98357 0.77913 0.0
C1263 C 0.45361 0.04429 0.76795 0.0
H1264 H 0.57525 0.07599 0.77025 0.0
C1265 C 0.45942 0.98953 0.76777 0.0
C1266 C 0.50672 0.96379 0.77105 0.0
H1267 H 0.4159 0.05953 0.76383 0.0
H1268 H 0.42574 0.96684 0.76711 0.0
C1269 C 0.54768 0.9988 0.77445 0.0
C1270 C 0.23685 0.32206 0.54328 0.0
C1271 C 0.21524 0.2775 0.52267 0.0
H1272 H 0.30313 0.36472 0.56464 0.0
C1273 C 0.2538 0.24255 0.50552 0.0
H1274 H 0.21186 0.35188 0.55614 0.0
C1275 C 0.3079 0.2501 0.50917 0.0
C1276 C 0.3297 0.29446 0.52994 0.0
H1277 H 0.24166 0.20755 0.48891 0.0
H1278 H 0.33255 0.21942 0.49786 0.0
C1279 C 0.29106 0.33002 0.54653 0.0
C1280 C 0.55225 0.55301 0.77937 0.0
C1281 C 0.50619 0.58088 0.77695 0.0
H1282 H 0.59339 0.48202 0.78434 0.0
C1283 C 0.46398 0.54721 0.77757 0.0
H1284 H 0.58679 0.57435 0.78066 0.0
C1285 C 0.46744 0.49173 0.77866 0.0
C1286 C 0.51382 0.46416 0.78441 0.0
H1287 H 0.42724 0.56457 0.77809 0.0
H1288 H 0.43321 0.47072 0.77344 0.0
C1289 C 0.55587 0.49822 0.78314 0.0
C1290 C 0.73328 0.30517 0.51759 0.0
C1291 C 0.71397 0.27094 0.55389 0.0
H1292 H 0.79591 0.34024 0.4803 0.0
C1293 C 0.75473 0.24455 0.58013 0.0
H1294 H 0.70699 0.32653 0.49487 0.0
C1295 C 0.80865 0.25198 0.57153 0.0
C1296 C 0.82793 0.28718 0.53564 0.0
H1297 H 0.74493 0.21734 0.60906 0.0
H1298 H 0.83507 0.22893 0.5928 0.0
C1299 C 0.78683 0.3131 0.50948 0.0
C1300 C 0.07327 0.24735 0.04534 0.0
C1301 C 0.09628 0.27786 1.00781 0.0
H1302 H 1.00633 0.21493 0.0773 0.0
C1303 C 0.05875 0.30297 0.97641 0.0
H1304 H 0.09713 0.22741 0.07213 0.0
C1305 C 1.00455 0.29938 0.98221 0.0
C1306 C 0.98138 0.26937 1.01998 0.0
H1307 H 0.07173 0.32792 0.94692 0.0
H1308 H 0.98078 0.31932 0.95536 0.0
C1309 C 1.01894 0.24256 0.05015 0.0
C1310 C 0.48135 0.26202 0.32429 0.0
C1311 C 0.51595 0.22088 0.31225 0.0
H1312 H 0.46306 0.34292 0.33095 0.0
C1313 C 0.56248 0.2403 0.29418 0.0
H1314 H 0.44465 0.25254 0.3389 0.0
C1315 C 0.57313 0.29446 0.28965 0.0
C1316 C 0.53854 0.33545 0.30178 0.0
H1317 H 0.59201 0.21365 0.28479 0.0
H1318 H 0.61044 0.30436 0.27694 0.0
C1319 C 0.49176 0.31613 0.31922 0.0
loop_
_geom_bond_atom_site_label_1
_geom_bond_atom_site_label_2
_geom_bond_distance
_geom_bond_site_symmetry_2
_ccdc_geom_bond_type
C0 O28 1.281 . S
C0 O37 1.281 . S
C1 O29 1.281 . S
C1 O47 1.281 . S
O2 Hf6 2.202 . S
O2 Hf8 2.202 1_655 S
O2 Hf10 2.202 1_655 S
O3 Hf6 2.202 . S
O3 Hf12 2.202 1_655 S
O3 Hf13 2.202 . S
O4 Hf6 2.072 . S
O4 Hf10 2.072 1_655 S
O4 Hf12 2.072 1_655 S
O5 Hf6 2.072 . S
O5 Hf8 2.072 1_655 S
O5 Hf13 2.072 . S
Hf6 O2 2.202 . S
Hf6 O3 2.202 . S
Hf6 O4 2.072 . S
Hf6 O5 2.072 . S
Hf6 O20 2.209 . S
Hf6 O21 2.209 . S
Hf6 O36 2.209 . S
Hf6 O37 2.209 . S
O7 Hf8 2.072 . S
O7 Hf10 2.072 . S
O7 Hf15 2.072 . S
Hf8 O2 2.202 1_455 S
Hf8 O5 2.072 1_455 S
Hf8 O7 2.072 . S
Hf8 O11 2.202 . S
Hf8 O27 2.209 . S
Hf8 O28 2.209 1_455 S
Hf8 O43 2.209 . S
Hf8 O47 2.209 1_455 S
O9 Hf10 2.202 . S
O9 Hf12 2.202 . S
O9 Hf15 2.202 . S
Hf10 O2 2.202 1_455 S
Hf10 O4 2.072 1_455 S
Hf10 O7 2.072 . S
Hf10 O9 2.202 . S
Hf10 O32 2.209 . S
Hf10 O33 2.209 . S
Hf10 O40 2.209 . S
Hf10 O42 2.209 1_455 S
O11 Hf8 2.202 . S
O11 Hf13 2.202 1_455 S
O11 Hf15 2.202 . S
Hf12 O3 2.202 1_455 S
Hf12 O4 2.072 1_455 S
Hf12 O9 2.202 . S
Hf12 O14 2.072 . S
Hf12 O24 2.209 . S
Hf12 O25 2.209 1_455 S
Hf12 O45 2.209 . S
Hf12 O46 2.209 1_455 S
Hf13 O3 2.202 . S
Hf13 O5 2.072 . S
Hf13 O11 2.202 1_655 S
Hf13 O14 2.072 1_655 S
Hf13 O29 2.209 . S
Hf13 O30 2.209 . S
Hf13 O39 2.209 1_655 S
Hf13 O44 2.209 . S
O14 Hf12 2.072 . S
O14 Hf13 2.072 1_455 S
O14 Hf15 2.072 . S
Hf15 O7 2.072 . S
Hf15 O9 2.202 . S
Hf15 O11 2.202 . S
Hf15 O14 2.072 . S
Hf15 O23 2.209 . S
Hf15 O26 2.209 . S
Hf15 O35 2.209 . S
Hf15 O38 2.209 . S
C16 O30 1.281 . S
C16 O46 1.281 . S
C17 O33 1.281 . S
C17 O43 1.281 . S
C18 O32 1.281 . S
C18 O45 1.281 . S
C19 O20 1.281 . S
C19 O42 1.281 . S
O20 Hf6 2.209 . S
O20 C19 1.281 . S
O21 Hf6 2.209 . S
O21 C22 1.281 . S
C22 O21 1.281 . S
C22 O44 1.281 . S
O23 Hf15 2.209 . S
O23 C34 1.281 . S
O24 Hf12 2.209 . S
O24 C41 1.281 . S
O25 Hf12 2.209 1_655 S
O25 C49 1.281 . S
O26 Hf15 2.209 . S
O26 C31 1.281 . S
O27 Hf8 2.209 . S
O27 C48 1.281 . S
O28 C0 1.281 . S
O28 Hf8 2.209 1_655 S
O29 C1 1.281 . S
O29 Hf13 2.209 . S
O30 Hf13 2.209 . S
O30 C16 1.281 . S
C31 O26 1.281 . S
C31 O40 1.281 . S
O32 Hf10 2.209 . S
O32 C18 1.281 . S
O33 Hf10 2.209 . S
O33 C17 1.281 . S
C34 O23 1.281 . S
C34 O39 1.281 . S
O35 Hf15 2.209 . S
O35 C48 1.281 . S
O36 Hf6 2.209 . S
O36 C49 1.281 . S
O37 C0 1.281 . S
O37 Hf6 2.209 . S
O38 Hf15 2.209 . S
O38 C41 1.281 . S
O39 Hf13 2.209 1_455 S
O39 C34 1.281 . S
O40 Hf10 2.209 . S
O40 C31 1.281 . S
C41 O24 1.281 . S
C41 O38 1.281 . S
O42 Hf10 2.209 1_655 S
O42 C19 1.281 . S
O43 Hf8 2.209 . S
O43 C17 1.281 . S
O44 Hf13 2.209 . S
O44 C22 1.281 . S
O45 Hf12 2.209 . S
O45 C18 1.281 . S
O46 Hf12 2.209 1_655 S
O46 C16 1.281 . S
O47 C1 1.281 . S
O47 Hf8 2.209 1_655 S
C48 O27 1.281 . S
C48 O35 1.281 . S
C49 O25 1.281 . S
C49 O36 1.281 . S
C50 O78 1.281 1_556 S
C50 O87 1.281 . S
C51 O79 1.281 . S
C51 O97 1.281 1_556 S
O52 Hf56 2.202 . S
O52 Hf58 2.202 . S
O52 Hf60 2.202 . S
O53 Hf56 2.202 . S
O53 Hf62 2.202 . S
O53 Hf63 2.202 . S
O54 Hf56 2.072 . S
O54 Hf60 2.072 . S
O54 Hf62 2.072 . S
O55 Hf56 2.072 . S
O55 Hf58 2.072 . S
O55 Hf63 2.072 . S
Hf56 O52 2.202 . S
Hf56 O53 2.202 . S
Hf56 O54 2.072 . S
Hf56 O55 2.072 . S
Hf56 O70 2.209 . S
Hf56 O71 2.209 . S
Hf56 O86 2.209 . S
Hf56 O87 2.209 . S
O57 Hf58 2.072 . S
O57 Hf60 2.072 . S
O57 Hf65 2.072 . S
Hf58 O52 2.202 . S
Hf58 O55 2.072 . S
Hf58 O57 2.072 . S
Hf58 O61 2.202 . S
Hf58 O77 2.209 1_556 S
Hf58 O78 2.209 1_556 S
Hf58 O93 2.209 1_556 S
Hf58 O97 2.209 1_556 S
O59 Hf60 2.202 . S
O59 Hf62 2.202 . S
O59 Hf65 2.202 . S
Hf60 O52 2.202 . S
Hf60 O54 2.072 . S
Hf60 O57 2.072 . S
Hf60 O59 2.202 . S
Hf60 O82 2.209 . S
Hf60 O83 2.209 . S
Hf60 O90 2.209 . S
Hf60 O92 2.209 . S
O61 Hf58 2.202 . S
O61 Hf63 2.202 . S
O61 Hf65 2.202 . S
Hf62 O53 2.202 . S
Hf62 O54 2.072 . S
Hf62 O59 2.202 . S
Hf62 O64 2.072 . S
Hf62 O74 2.209 . S
Hf62 O75 2.209 . S
Hf62 O95 2.209 . S
Hf62 O96 2.209 . S
Hf63 O53 2.202 . S
Hf63 O55 2.072 . S
Hf63 O61 2.202 . S
Hf63 O64 2.072 . S
Hf63 O79 2.209 . S
Hf63 O80 2.209 . S
Hf63 O89 2.209 . S
Hf63 O94 2.209 . S
O64 Hf62 2.072 . S
O64 Hf63 2.072 . S
O64 Hf65 2.072 . S
Hf65 O57 2.072 . S
Hf65 O59 2.202 . S
Hf65 O61 2.202 . S
Hf65 O64 2.072 . S
Hf65 O73 2.209 . S
Hf65 O76 2.209 . S
Hf65 O85 2.209 . S
Hf65 O88 2.209 . S
C66 O80 1.281 . S
C66 O96 1.281 . S
C67 O83 1.281 . S
C67 O93 1.281 1_556 S
C68 O82 1.281 . S
C68 O95 1.281 . S
C69 O70 1.281 . S
C69 O92 1.281 . S
O70 Hf56 2.209 . S
O70 C69 1.281 . S
O71 Hf56 2.209 . S
O71 C72 1.281 . S
C72 O71 1.281 . S
C72 O94 1.281 . S
O73 Hf65 2.209 . S
O73 C84 1.281 . S
O74 Hf62 2.209 . S
O74 C91 1.281 . S
O75 Hf62 2.209 . S
O75 C99 1.281 . S
O76 Hf65 2.209 . S
O76 C81 1.281 . S
O77 Hf58 2.209 1_554 S
O77 C98 1.281 1_554 S
O78 C50 1.281 1_554 S
O78 Hf58 2.209 1_554 S
O79 C51 1.281 . S
O79 Hf63 2.209 . S
O80 Hf63 2.209 . S
O80 C66 1.281 . S
C81 O76 1.281 . S
C81 O90 1.281 . S
O82 Hf60 2.209 . S
O82 C68 1.281 . S
O83 Hf60 2.209 . S
O83 C67 1.281 . S
C84 O73 1.281 . S
C84 O89 1.281 . S
O85 Hf65 2.209 . S
O85 C98 1.281 . S
O86 Hf56 2.209 . S
O86 C99 1.281 . S
O87 C50 1.281 . S
O87 Hf56 2.209 . S
O88 Hf65 2.209 . S
O88 C91 1.281 . S
O89 Hf63 2.209 . S
O89 C84 1.281 . S
O90 Hf60 2.209 . S
O90 C81 1.281 . S
C91 O74 1.281 . S
C91 O88 1.281 . S
O92 Hf60 2.209 . S
O92 C69 1.281 . S
O93 Hf58 2.209 1_554 S
O93 C67 1.281 1_554 S
O94 Hf63 2.209 . S
O94 C72 1.281 . S
O95 Hf62 2.209 . S
O95 C68 1.281 . S
O96 Hf62 2.209 . S
O96 C66 1.281 . S
O97 C51 1.281 1_554 S
O97 Hf58 2.209 1_554 S
C98 O77 1.281 1_556 S
C98 O85 1.281 . S
C99 O75 1.281 . S
C99 O86 1.281 . S
C100 O128 1.281 . S
C100 O137 1.281 . S
C101 O129 1.281 . S
C101 O147 1.281 . S
O102 Hf106 2.202 1_655 S
O102 Hf108 2.202 . S
O102 Hf110 2.202 1_655 S
O103 Hf106 2.202 . S
O103 Hf112 2.202 . S
O103 Hf113 2.202 . S
O104 Hf106 2.072 . S
O104 Hf110 2.072 . S
O104 Hf112 2.072 . S
O105 Hf106 2.072 1_655 S
O105 Hf108 2.072 . S
O105 Hf113 2.072 1_655 S
Hf106 O102 2.202 1_455 S
Hf106 O103 2.202 . S
Hf106 O104 2.072 . S
Hf106 O105 2.072 1_455 S
Hf106 O120 2.209 . S
Hf106 O121 2.209 . S
Hf106 O136 2.209 . S
Hf106 O137 2.209 1_455 S
O107 Hf108 2.072 . S
O107 Hf110 2.072 1_655 S
O107 Hf115 2.072 . S
Hf108 O102 2.202 . S
Hf108 O105 2.072 . S
Hf108 O107 2.072 . S
Hf108 O111 2.202 . S
Hf108 O127 2.209 . S
Hf108 O128 2.209 . S
Hf108 O143 2.209 . S
Hf108 O147 2.209 . S
O109 Hf110 2.202 . S
O109 Hf112 2.202 . S
O109 Hf115 2.202 1_455 S
Hf110 O102 2.202 1_455 S
Hf110 O104 2.072 . S
Hf110 O107 2.072 1_455 S
Hf110 O109 2.202 . S
Hf110 O132 2.209 1_554 S
Hf110 O133 2.209 1_454 S
Hf110 O140 2.209 1_454 S
Hf110 O142 2.209 1_554 S
O111 Hf108 2.202 . S
O111 Hf113 2.202 1_655 S
O111 Hf115 2.202 . S
Hf112 O103 2.202 . S
Hf112 O104 2.072 . S
Hf112 O109 2.202 . S
Hf112 O114 2.072 . S
Hf112 O124 2.209 . S
Hf112 O125 2.209 . S
Hf112 O145 2.209 . S
Hf112 O146 2.209 . S
Hf113 O103 2.202 . S
Hf113 O105 2.072 1_455 S
Hf113 O111 2.202 1_455 S
Hf113 O114 2.072 . S
Hf113 O129 2.209 1_455 S
Hf113 O130 2.209 . S
Hf113 O139 2.209 1_455 S
Hf113 O144 2.209 . S
O114 Hf112 2.072 . S
O114 Hf113 2.072 . S
O114 Hf115 2.072 1_455 S
Hf115 O107 2.072 . S
Hf115 O109 2.202 1_655 S
Hf115 O111 2.202 . S
Hf115 O114 2.072 1_655 S
Hf115 O123 2.209 . S
Hf115 O126 2.209 . S
Hf115 O135 2.209 . S
Hf115 O138 2.209 1_655 S
C116 O130 1.281 . S
C116 O146 1.281 . S
C117 O133 1.281 1_554 S
C117 O143 1.281 . S
C118 O132 1.281 1_554 S
C118 O145 1.281 . S
C119 O120 1.281 . S
C119 O142 1.281 1_554 S
O120 Hf106 2.209 . S
O120 C119 1.281 . S
O121 Hf106 2.209 . S
O121 C122 1.281 . S
C122 O121 1.281 . S
C122 O144 1.281 . S
O123 Hf115 2.209 . S
O123 C134 1.281 . S
O124 Hf112 2.209 . S
O124 C141 1.281 . S
O125 Hf112 2.209 . S
O125 C149 1.281 . S
O126 Hf115 2.209 . S
O126 C131 1.281 . S
O127 Hf108 2.209 . S
O127 C148 1.281 . S
O128 C100 1.281 . S
O128 Hf108 2.209 . S
O129 C101 1.281 . S
O129 Hf113 2.209 1_655 S
O130 Hf113 2.209 . S
O130 C116 1.281 . S
C131 O126 1.281 . S
C131 O140 1.281 1_554 S
O132 Hf110 2.209 1_556 S
O132 C118 1.281 1_556 S
O133 Hf110 2.209 1_656 S
O133 C117 1.281 1_556 S
C134 O123 1.281 . S
C134 O139 1.281 . S
O135 Hf115 2.209 . S
O135 C148 1.281 . S
O136 Hf106 2.209 . S
O136 C149 1.281 . S
O137 C100 1.281 . S
O137 Hf106 2.209 1_655 S
O138 Hf115 2.209 1_455 S
O138 C141 1.281 . S
O139 Hf113 2.209 1_655 S
O139 C134 1.281 . S
O140 Hf110 2.209 1_656 S
O140 C131 1.281 1_556 S
C141 O124 1.281 . S
C141 O138 1.281 . S
O142 Hf110 2.209 1_556 S
O142 C119 1.281 1_556 S
O143 Hf108 2.209 . S
O143 C117 1.281 . S
O144 Hf113 2.209 . S
O144 C122 1.281 . S
O145 Hf112 2.209 . S
O145 C118 1.281 . S
O146 Hf112 2.209 . S
O146 C116 1.281 . S
O147 C101 1.281 . S
O147 Hf108 2.209 . S
C148 O127 1.281 . S
C148 O135 1.281 . S
C149 O125 1.281 . S
C149 O136 1.281 . S
C150 O178 1.281 . S
C150 O187 1.281 . S
C151 O179 1.281 . S
C151 O197 1.281 . S
O152 Hf156 2.202 1_545 S
O152 Hf158 2.202 . S
O152 Hf160 2.202 . S
O153 Hf156 2.202 . S
O153 Hf162 2.202 . S
O153 Hf163 2.202 1_565 S
O154 Hf156 2.072 . S
O154 Hf160 2.072 1_565 S
O154 Hf162 2.072 . S
O155 Hf156 2.072 1_545 S
O155 Hf158 2.072 . S
O155 Hf163 2.072 . S
Hf156 O152 2.202 1_565 S
Hf156 O153 2.202 . S
Hf156 O154 2.072 . S
Hf156 O155 2.072 1_565 S
Hf156 O170 2.209 . S
Hf156 O171 2.209 . S
Hf156 O186 2.209 . S
Hf156 O187 2.209 1_565 S
O157 Hf158 2.072 . S
O157 Hf160 2.072 . S
O157 Hf165 2.072 . S
Hf158 O152 2.202 . S
Hf158 O155 2.072 . S
Hf158 O157 2.072 . S
Hf158 O161 2.202 . S
Hf158 O177 2.209 . S
Hf158 O178 2.209 . S
Hf158 O193 2.209 . S
Hf158 O197 2.209 . S
O159 Hf160 2.202 1_565 S
O159 Hf162 2.202 . S
O159 Hf165 2.202 1_565 S
Hf160 O152 2.202 . S
Hf160 O154 2.072 1_545 S
Hf160 O157 2.072 . S
Hf160 O159 2.202 1_545 S
Hf160 O182 2.209 1_545 S
Hf160 O183 2.209 . S
Hf160 O190 2.209 . S
Hf160 O192 2.209 1_545 S
O161 Hf158 2.202 . S
O161 Hf163 2.202 . S
O161 Hf165 2.202 . S
Hf162 O153 2.202 . S
Hf162 O154 2.072 . S
Hf162 O159 2.202 . S
Hf162 O164 2.072 . S
Hf162 O174 2.209 . S
Hf162 O175 2.209 . S
Hf162 O195 2.209 . S
Hf162 O196 2.209 . S
Hf163 O153 2.202 1_545 S
Hf163 O155 2.072 . S
Hf163 O161 2.202 . S
Hf163 O164 2.072 1_545 S
Hf163 O179 2.209 . S
Hf163 O180 2.209 1_545 S
Hf163 O189 2.209 . S
Hf163 O194 2.209 1_545 S
O164 Hf162 2.072 . S
O164 Hf163 2.072 1_565 S
O164 Hf165 2.072 1_565 S
Hf165 O157 2.072 . S
Hf165 O159 2.202 1_545 S
Hf165 O161 2.202 . S
Hf165 O164 2.072 1_545 S
Hf165 O173 2.209 . S
Hf165 O176 2.209 . S
Hf165 O185 2.209 . S
Hf165 O188 2.209 1_545 S
C166 O180 1.281 . S
C166 O196 1.281 . S
C167 O183 1.281 . S
C167 O193 1.281 . S
C168 O182 1.281 . S
C168 O195 1.281 . S
C169 O170 1.281 . S
C169 O192 1.281 . S
O170 Hf156 2.209 . S
O170 C169 1.281 . S
O171 Hf156 2.209 . S
O171 C172 1.281 . S
C172 O171 1.281 . S
C172 O194 1.281 . S
O173 Hf165 2.209 . S
O173 C184 1.281 . S
O174 Hf162 2.209 . S
O174 C191 1.281 . S
O175 Hf162 2.209 . S
O175 C199 1.281 . S
O176 Hf165 2.209 . S
O176 C181 1.281 . S
O177 Hf158 2.209 . S
O177 C198 1.281 . S
O178 C150 1.281 . S
O178 Hf158 2.209 . S
O179 C151 1.281 . S
O179 Hf163 2.209 . S
O180 Hf163 2.209 1_565 S
O180 C166 1.281 . S
C181 O176 1.281 . S
C181 O190 1.281 . S
O182 Hf160 2.209 1_565 S
O182 C168 1.281 . S
O183 Hf160 2.209 . S
O183 C167 1.281 . S
C184 O173 1.281 . S
C184 O189 1.281 . S
O185 Hf165 2.209 . S
O185 C198 1.281 . S
O186 Hf156 2.209 . S
O186 C199 1.281 . S
O187 C150 1.281 . S
O187 Hf156 2.209 1_545 S
O188 Hf165 2.209 1_565 S
O188 C191 1.281 . S
O189 Hf163 2.209 . S
O189 C184 1.281 . S
O190 Hf160 2.209 . S
O190 C181 1.281 . S
C191 O174 1.281 . S
C191 O188 1.281 . S
O192 Hf160 2.209 1_565 S
O192 C169 1.281 . S
O193 Hf158 2.209 . S
O193 C167 1.281 . S
O194 Hf163 2.209 1_565 S
O194 C172 1.281 . S
O195 Hf162 2.209 . S
O195 C168 1.281 . S
O196 Hf162 2.209 . S
O196 C166 1.281 . S
O197 C151 1.281 . S
O197 Hf158 2.209 . S
C198 O177 1.281 . S
C198 O185 1.281 . S
C199 O175 1.281 . S
C199 O186 1.281 . S
C200 O228 1.281 . S
C200 O237 1.281 . S
C201 O229 1.281 . S
C201 O247 1.281 . S
O202 Hf206 2.202 . S
O202 Hf208 2.202 . S
O202 Hf210 2.202 1_554 S
O203 Hf206 2.202 . S
O203 Hf212 2.202 . S
O203 Hf213 2.202 . S
O204 Hf206 2.072 . S
O204 Hf210 2.072 1_554 S
O204 Hf212 2.072 . S
O205 Hf206 2.072 . S
O205 Hf208 2.072 . S
O205 Hf213 2.072 . S
Hf206 O202 2.202 . S
Hf206 O203 2.202 . S
Hf206 O204 2.072 . S
Hf206 O205 2.072 . S
Hf206 O220 2.209 . S
Hf206 O221 2.209 . S
Hf206 O236 2.209 . S
Hf206 O237 2.209 . S
O207 Hf208 2.072 1_556 S
O207 Hf210 2.072 . S
O207 Hf215 2.072 . S
Hf208 O202 2.202 . S
Hf208 O205 2.072 . S
Hf208 O207 2.072 1_554 S
Hf208 O211 2.202 1_554 S
Hf208 O227 2.209 1_554 S
Hf208 O228 2.209 . S
Hf208 O243 2.209 1_554 S
Hf208 O247 2.209 . S
O209 Hf210 2.202 . S
O209 Hf212 2.202 1_556 S
O209 Hf215 2.202 . S
Hf210 O202 2.202 1_556 S
Hf210 O204 2.072 1_556 S
Hf210 O207 2.072 . S
Hf210 O209 2.202 . S
Hf210 O232 2.209 . S
Hf210 O233 2.209 . S
Hf210 O240 2.209 . S
Hf210 O242 2.209 1_556 S
O211 Hf208 2.202 1_556 S
O211 Hf213 2.202 1_556 S
O211 Hf215 2.202 . S
Hf212 O203 2.202 . S
Hf212 O204 2.072 . S
Hf212 O209 2.202 1_554 S
Hf212 O214 2.072 1_554 S
Hf212 O224 2.209 1_554 S
Hf212 O225 2.209 . S
Hf212 O245 2.209 1_554 S
Hf212 O246 2.209 . S
Hf213 O203 2.202 . S
Hf213 O205 2.072 . S
Hf213 O211 2.202 1_554 S
Hf213 O214 2.072 1_554 S
Hf213 O229 2.209 . S
Hf213 O230 2.209 . S
Hf213 O239 2.209 1_554 S
Hf213 O244 2.209 . S
O214 Hf212 2.072 1_556 S
O214 Hf213 2.072 1_556 S
O214 Hf215 2.072 . S
Hf215 O207 2.072 . S
Hf215 O209 2.202 . S
Hf215 O211 2.202 . S
Hf215 O214 2.072 . S
Hf215 O223 2.209 . S
Hf215 O226 2.209 . S
Hf215 O235 2.209 . S
Hf215 O238 2.209 . S
C216 O230 1.281 . S
C216 O246 1.281 . S
C217 O233 1.281 . S
C217 O243 1.281 . S
C218 O232 1.281 . S
C218 O245 1.281 . S
C219 O220 1.281 . S
C219 O242 1.281 . S
O220 Hf206 2.209 . S
O220 C219 1.281 . S
O221 Hf206 2.209 . S
O221 C222 1.281 . S
C222 O221 1.281 . S
C222 O244 1.281 . S
O223 Hf215 2.209 . S
O223 C234 1.281 . S
O224 Hf212 2.209 1_556 S
O224 C241 1.281 . S
O225 Hf212 2.209 . S
O225 C249 1.281 . S
O226 Hf215 2.209 . S
O226 C231 1.281 . S
O227 Hf208 2.209 1_556 S
O227 C248 1.281 . S
O228 C200 1.281 . S
O228 Hf208 2.209 . S
O229 C201 1.281 . S
O229 Hf213 2.209 . S
O230 Hf213 2.209 . S
O230 C216 1.281 . S
C231 O226 1.281 . S
C231 O240 1.281 . S
O232 Hf210 2.209 . S
O232 C218 1.281 . S
O233 Hf210 2.209 . S
O233 C217 1.281 . S
C234 O223 1.281 . S
C234 O239 1.281 . S
O235 Hf215 2.209 . S
O235 C248 1.281 . S
O236 Hf206 2.209 . S
O236 C249 1.281 . S
O237 C200 1.281 . S
O237 Hf206 2.209 . S
O238 Hf215 2.209 . S
O238 C241 1.281 . S
O239 Hf213 2.209 1_556 S
O239 C234 1.281 . S
O240 Hf210 2.209 . S
O240 C231 1.281 . S
C241 O224 1.281 . S
C241 O238 1.281 . S
O242 Hf210 2.209 1_554 S
O242 C219 1.281 . S
O243 Hf208 2.209 1_556 S
O243 C217 1.281 . S
O244 Hf213 2.209 . S
O244 C222 1.281 . S
O245 Hf212 2.209 1_556 S
O245 C218 1.281 . S
O246 Hf212 2.209 . S
O246 C216 1.281 . S
O247 C201 1.281 . S
O247 Hf208 2.209 . S
C248 O227 1.281 . S
C248 O235 1.281 . S
C249 O225 1.281 . S
C249 O236 1.281 . S
C250 O278 1.281 . S
C250 O287 1.281 . S
C251 O279 1.281 . S
C251 O297 1.281 . S
O252 Hf256 2.202 . S
O252 Hf258 2.202 . S
O252 Hf260 2.202 . S
O253 Hf256 2.202 . S
O253 Hf262 2.202 . S
O253 Hf263 2.202 . S
O254 Hf256 2.072 . S
O254 Hf260 2.072 . S
O254 Hf262 2.072 . S
O255 Hf256 2.072 . S
O255 Hf258 2.072 . S
O255 Hf263 2.072 . S
Hf256 O252 2.202 . S
Hf256 O253 2.202 . S
Hf256 O254 2.072 . S
Hf256 O255 2.072 . S
Hf256 O270 2.209 . S
Hf256 O271 2.209 . S
Hf256 O286 2.209 . S
Hf256 O287 2.209 . S
O257 Hf258 2.072 . S
O257 Hf260 2.072 . S
O257 Hf265 2.072 . S
Hf258 O252 2.202 . S
Hf258 O255 2.072 . S
Hf258 O257 2.072 . S
Hf258 O261 2.202 . S
Hf258 O277 2.209 . S
Hf258 O278 2.209 . S
Hf258 O293 2.209 . S
Hf258 O297 2.209 . S
O259 Hf260 2.202 . S
O259 Hf262 2.202 . S
O259 Hf265 2.202 . S
Hf260 O252 2.202 . S
Hf260 O254 2.072 . S
Hf260 O257 2.072 . S
Hf260 O259 2.202 . S
Hf260 O282 2.209 . S
Hf260 O283 2.209 . S
Hf260 O290 2.209 . S
Hf260 O292 2.209 . S
O261 Hf258 2.202 . S
O261 Hf263 2.202 . S
O261 Hf265 2.202 . S
Hf262 O253 2.202 . S
Hf262 O254 2.072 . S
Hf262 O259 2.202 . S
Hf262 O264 2.072 . S
Hf262 O274 2.209 . S
Hf262 O275 2.209 . S
Hf262 O295 2.209 . S
Hf262 O296 2.209 . S
Hf263 O253 2.202 . S
Hf263 O255 2.072 . S
Hf263 O261 2.202 . S
Hf263 O264 2.072 . S
Hf263 O279 2.209 . S
Hf263 O280 2.209 . S
Hf263 O289 2.209 . S
Hf263 O294 2.209 . S
O264 Hf262 2.072 . S
O264 Hf263 2.072 . S
O264 Hf265 2.072 . S
Hf265 O257 2.072 . S
Hf265 O259 2.202 . S
Hf265 O261 2.202 . S
Hf265 O264 2.072 . S
Hf265 O273 2.209 . S
Hf265 O276 2.209 . S
Hf265 O285 2.209 . S
Hf265 O288 2.209 . S
C266 O280 1.281 . S
C266 O296 1.281 . S
C267 O283 1.281 . S
C267 O293 1.281 . S
C268 O282 1.281 . S
C268 O295 1.281 . S
C269 O270 1.281 . S
C269 O292 1.281 . S
O270 Hf256 2.209 . S
O270 C269 1.281 . S
O271 Hf256 2.209 . S
O271 C272 1.281 . S
C272 O271 1.281 . S
C272 O294 1.281 . S
O273 Hf265 2.209 . S
O273 C284 1.281 . S
O274 Hf262 2.209 . S
O274 C291 1.281 . S
O275 Hf262 2.209 . S
O275 C299 1.281 . S
O276 Hf265 2.209 . S
O276 C281 1.281 . S
O277 Hf258 2.209 . S
O277 C298 1.281 . S
O278 C250 1.281 . S
O278 Hf258 2.209 . S
O279 C251 1.281 . S
O279 Hf263 2.209 . S
O280 Hf263 2.209 . S
O280 C266 1.281 . S
C281 O276 1.281 . S
C281 O290 1.281 . S
O282 Hf260 2.209 . S
O282 C268 1.281 . S
O283 Hf260 2.209 . S
O283 C267 1.281 . S
C284 O273 1.281 . S
C284 O289 1.281 . S
O285 Hf265 2.209 . S
O285 C298 1.281 . S
O286 Hf256 2.209 . S
O286 C299 1.281 . S
O287 C250 1.281 . S
O287 Hf256 2.209 . S
O288 Hf265 2.209 . S
O288 C291 1.281 . S
O289 Hf263 2.209 . S
O289 C284 1.281 . S
O290 Hf260 2.209 . S
O290 C281 1.281 . S
C291 O274 1.281 . S
C291 O288 1.281 . S
O292 Hf260 2.209 . S
O292 C269 1.281 . S
O293 Hf258 2.209 . S
O293 C267 1.281 . S
O294 Hf263 2.209 . S
O294 C272 1.281 . S
O295 Hf262 2.209 . S
O295 C268 1.281 . S
O296 Hf262 2.209 . S
O296 C266 1.281 . S
O297 C251 1.281 . S
O297 Hf258 2.209 . S
C298 O277 1.281 . S
C298 O285 1.281 . S
C299 O275 1.281 . S
C299 O286 1.281 . S
C300 O328 1.281 . S
C300 O337 1.281 . S
C301 O329 1.281 . S
C301 O347 1.281 . S
O302 Hf306 2.202 1_554 S
O302 Hf308 2.202 . S
O302 Hf310 2.202 . S
O303 Hf306 2.202 . S
O303 Hf312 2.202 . S
O303 Hf313 2.202 1_556 S
O304 Hf306 2.072 . S
O304 Hf310 2.072 1_556 S
O304 Hf312 2.072 . S
O305 Hf306 2.072 1_554 S
O305 Hf308 2.072 . S
O305 Hf313 2.072 . S
Hf306 O302 2.202 1_556 S
Hf306 O303 2.202 . S
Hf306 O304 2.072 . S
Hf306 O305 2.072 1_556 S
Hf306 O320 2.209 . S
Hf306 O321 2.209 . S
Hf306 O336 2.209 . S
Hf306 O337 2.209 1_556 S
O307 Hf308 2.072 . S
O307 Hf310 2.072 . S
O307 Hf315 2.072 . S
Hf308 O302 2.202 . S
Hf308 O305 2.072 . S
Hf308 O307 2.072 . S
Hf308 O311 2.202 . S
Hf308 O327 2.209 . S
Hf308 O328 2.209 . S
Hf308 O343 2.209 . S
Hf308 O347 2.209 . S
O309 Hf310 2.202 1_556 S
O309 Hf312 2.202 . S
O309 Hf315 2.202 1_556 S
Hf310 O302 2.202 . S
Hf310 O304 2.072 1_554 S
Hf310 O307 2.072 . S
Hf310 O309 2.202 1_554 S
Hf310 O332 2.209 1_544 S
Hf310 O333 2.209 1_545 S
Hf310 O340 2.209 1_545 S
Hf310 O342 2.209 1_544 S
O311 Hf308 2.202 . S
O311 Hf313 2.202 . S
O311 Hf315 2.202 . S
Hf312 O303 2.202 . S
Hf312 O304 2.072 . S
Hf312 O309 2.202 . S
Hf312 O314 2.072 . S
Hf312 O324 2.209 . S
Hf312 O325 2.209 . S
Hf312 O345 2.209 . S
Hf312 O346 2.209 . S
Hf313 O303 2.202 1_554 S
Hf313 O305 2.072 . S
Hf313 O311 2.202 . S
Hf313 O314 2.072 1_554 S
Hf313 O329 2.209 . S
Hf313 O330 2.209 1_554 S
Hf313 O339 2.209 . S
Hf313 O344 2.209 1_554 S
O314 Hf312 2.072 . S
O314 Hf313 2.072 1_556 S
O314 Hf315 2.072 1_556 S
Hf315 O307 2.072 . S
Hf315 O309 2.202 1_554 S
Hf315 O311 2.202 . S
Hf315 O314 2.072 1_554 S
Hf315 O323 2.209 . S
Hf315 O326 2.209 . S
Hf315 O335 2.209 . S
Hf315 O338 2.209 1_554 S
C316 O330 1.281 . S
C316 O346 1.281 . S
C317 O333 1.281 1_545 S
C317 O343 1.281 . S
C318 O332 1.281 1_545 S
C318 O345 1.281 . S
C319 O320 1.281 . S
C319 O342 1.281 1_545 S
O320 Hf306 2.209 . S
O320 C319 1.281 . S
O321 Hf306 2.209 . S
O321 C322 1.281 . S
C322 O321 1.281 . S
C322 O344 1.281 . S
O323 Hf315 2.209 . S
O323 C334 1.281 . S
O324 Hf312 2.209 . S
O324 C341 1.281 . S
O325 Hf312 2.209 . S
O325 C349 1.281 . S
O326 Hf315 2.209 . S
O326 C331 1.281 . S
O327 Hf308 2.209 . S
O327 C348 1.281 . S
O328 C300 1.281 . S
O328 Hf308 2.209 . S
O329 C301 1.281 . S
O329 Hf313 2.209 . S
O330 Hf313 2.209 1_556 S
O330 C316 1.281 . S
C331 O326 1.281 . S
C331 O340 1.281 1_545 S
O332 Hf310 2.209 1_566 S
O332 C318 1.281 1_565 S
O333 Hf310 2.209 1_565 S
O333 C317 1.281 1_565 S
C334 O323 1.281 . S
C334 O339 1.281 . S
O335 Hf315 2.209 . S
O335 C348 1.281 . S
O336 Hf306 2.209 . S
O336 C349 1.281 . S
O337 C300 1.281 . S
O337 Hf306 2.209 1_554 S
O338 Hf315 2.209 1_556 S
O338 C341 1.281 . S
O339 Hf313 2.209 . S
O339 C334 1.281 . S
O340 Hf310 2.209 1_565 S
O340 C331 1.281 1_565 S
C341 O324 1.281 . S
C341 O338 1.281 . S
O342 Hf310 2.209 1_566 S
O342 C319 1.281 1_565 S
O343 Hf308 2.209 . S
O343 C317 1.281 . S
O344 Hf313 2.209 1_556 S
O344 C322 1.281 . S
O345 Hf312 2.209 . S
O345 C318 1.281 . S
O346 Hf312 2.209 . S
O346 C316 1.281 . S
O347 C301 1.281 . S
O347 Hf308 2.209 . S
C348 O327 1.281 . S
C348 O335 1.281 . S
C349 O325 1.281 . S
C349 O336 1.281 . S
C350 O378 1.281 . S
C350 O387 1.281 . S
C351 O379 1.281 . S
C351 O397 1.281 . S
O352 Hf356 2.202 . S
O352 Hf358 2.202 . S
O352 Hf360 2.202 . S
O353 Hf356 2.202 . S
O353 Hf362 2.202 . S
O353 Hf363 2.202 . S
O354 Hf356 2.072 . S
O354 Hf360 2.072 . S
O354 Hf362 2.072 . S
O355 Hf356 2.072 . S
O355 Hf358 2.072 . S
O355 Hf363 2.072 . S
Hf356 O352 2.202 . S
Hf356 O353 2.202 . S
Hf356 O354 2.072 . S
Hf356 O355 2.072 . S
Hf356 O370 2.209 . S
Hf356 O371 2.209 . S
Hf356 O386 2.209 . S
Hf356 O387 2.209 . S
O357 Hf358 2.072 . S
O357 Hf360 2.072 . S
O357 Hf365 2.072 . S
Hf358 O352 2.202 . S
Hf358 O355 2.072 . S
Hf358 O357 2.072 . S
Hf358 O361 2.202 . S
Hf358 O377 2.209 . S
Hf358 O378 2.209 . S
Hf358 O393 2.209 . S
Hf358 O397 2.209 . S
O359 Hf360 2.202 . S
O359 Hf362 2.202 . S
O359 Hf365 2.202 . S
Hf360 O352 2.202 . S
Hf360 O354 2.072 . S
Hf360 O357 2.072 . S
Hf360 O359 2.202 . S
Hf360 O382 2.209 . S
Hf360 O383 2.209 . S
Hf360 O390 2.209 . S
Hf360 O392 2.209 . S
O361 Hf358 2.202 . S
O361 Hf363 2.202 . S
O361 Hf365 2.202 . S
Hf362 O353 2.202 . S
Hf362 O354 2.072 . S
Hf362 O359 2.202 . S
Hf362 O364 2.072 . S
Hf362 O374 2.209 . S
Hf362 O375 2.209 . S
Hf362 O395 2.209 . S
Hf362 O396 2.209 . S
Hf363 O353 2.202 . S
Hf363 O355 2.072 . S
Hf363 O361 2.202 . S
Hf363 O364 2.072 . S
Hf363 O379 2.209 . S
Hf363 O380 2.209 . S
Hf363 O389 2.209 . S
Hf363 O394 2.209 . S
O364 Hf362 2.072 . S
O364 Hf363 2.072 . S
O364 Hf365 2.072 . S
Hf365 O357 2.072 . S
Hf365 O359 2.202 . S
Hf365 O361 2.202 . S
Hf365 O364 2.072 . S
Hf365 O373 2.209 . S
Hf365 O376 2.209 . S
Hf365 O385 2.209 . S
Hf365 O388 2.209 . S
C366 O380 1.281 . S
C366 O396 1.281 . S
C367 O383 1.281 . S
C367 O393 1.281 . S
C368 O382 1.281 . S
C368 O395 1.281 . S
C369 O370 1.281 . S
C369 O392 1.281 . S
O370 Hf356 2.209 . S
O370 C369 1.281 . S
O371 Hf356 2.209 . S
O371 C372 1.281 . S
C372 O371 1.281 . S
C372 O394 1.281 . S
O373 Hf365 2.209 . S
O373 C384 1.281 . S
O374 Hf362 2.209 . S
O374 C391 1.281 . S
O375 Hf362 2.209 . S
O375 C399 1.281 . S
O376 Hf365 2.209 . S
O376 C381 1.281 . S
O377 Hf358 2.209 . S
O377 C398 1.281 . S
O378 C350 1.281 . S
O378 Hf358 2.209 . S
O379 C351 1.281 . S
O379 Hf363 2.209 . S
O380 Hf363 2.209 . S
O380 C366 1.281 . S
C381 O376 1.281 . S
C381 O390 1.281 . S
O382 Hf360 2.209 . S
O382 C368 1.281 . S
O383 Hf360 2.209 . S
O383 C367 1.281 . S
C384 O373 1.281 . S
C384 O389 1.281 . S
O385 Hf365 2.209 . S
O385 C398 1.281 . S
O386 Hf356 2.209 . S
O386 C399 1.281 . S
O387 C350 1.281 . S
O387 Hf356 2.209 . S
O388 Hf365 2.209 . S
O388 C391 1.281 . S
O389 Hf363 2.209 . S
O389 C384 1.281 . S
O390 Hf360 2.209 . S
O390 C381 1.281 . S
C391 O374 1.281 . S
C391 O388 1.281 . S
O392 Hf360 2.209 . S
O392 C369 1.281 . S
O393 Hf358 2.209 . S
O393 C367 1.281 . S
O394 Hf363 2.209 . S
O394 C372 1.281 . S
O395 Hf362 2.209 . S
O395 C368 1.281 . S
O396 Hf362 2.209 . S
O396 C366 1.281 . S
O397 C351 1.281 . S
O397 Hf358 2.209 . S
C398 O377 1.281 . S
C398 O385 1.281 . S
C399 O375 1.281 . S
C399 O386 1.281 . S
C400 O428 1.281 . S
C400 O437 1.281 . S
C401 O429 1.281 . S
C401 O447 1.281 . S
O402 Hf406 2.202 . S
O402 Hf408 2.202 . S
O402 Hf410 2.202 . S
O403 Hf406 2.202 . S
O403 Hf412 2.202 . S
O403 Hf413 2.202 . S
O404 Hf406 2.072 . S
O404 Hf410 2.072 . S
O404 Hf412 2.072 . S
O405 Hf406 2.072 . S
O405 Hf408 2.072 . S
O405 Hf413 2.072 . S
Hf406 O402 2.202 . S
Hf406 O403 2.202 . S
Hf406 O404 2.072 . S
Hf406 O405 2.072 . S
Hf406 O420 2.209 . S
Hf406 O421 2.209 . S
Hf406 O436 2.209 . S
Hf406 O437 2.209 . S
O407 Hf408 2.072 . S
O407 Hf410 2.072 . S
O407 Hf415 2.072 . S
Hf408 O402 2.202 . S
Hf408 O405 2.072 . S
Hf408 O407 2.072 . S
Hf408 O411 2.202 . S
Hf408 O427 2.209 . S
Hf408 O428 2.209 . S
Hf408 O443 2.209 . S
Hf408 O447 2.209 . S
O409 Hf410 2.202 . S
O409 Hf412 2.202 . S
O409 Hf415 2.202 . S
Hf410 O402 2.202 . S
Hf410 O404 2.072 . S
Hf410 O407 2.072 . S
Hf410 O409 2.202 . S
Hf410 O432 2.209 1_655 S
Hf410 O433 2.209 1_655 S
Hf410 O440 2.209 1_655 S
Hf410 O442 2.209 1_655 S
O411 Hf408 2.202 . S
O411 Hf413 2.202 . S
O411 Hf415 2.202 . S
Hf412 O403 2.202 . S
Hf412 O404 2.072 . S
Hf412 O409 2.202 . S
Hf412 O414 2.072 . S
Hf412 O424 2.209 . S
Hf412 O425 2.209 . S
Hf412 O445 2.209 . S
Hf412 O446 2.209 . S
Hf413 O403 2.202 . S
Hf413 O405 2.072 . S
Hf413 O411 2.202 . S
Hf413 O414 2.072 . S
Hf413 O429 2.209 . S
Hf413 O430 2.209 . S
Hf413 O439 2.209 . S
Hf413 O444 2.209 . S
O414 Hf412 2.072 . S
O414 Hf413 2.072 . S
O414 Hf415 2.072 . S
Hf415 O407 2.072 . S
Hf415 O409 2.202 . S
Hf415 O411 2.202 . S
Hf415 O414 2.072 . S
Hf415 O423 2.209 . S
Hf415 O426 2.209 . S
Hf415 O435 2.209 . S
Hf415 O438 2.209 . S
C416 O430 1.281 . S
C416 O446 1.281 . S
C417 O433 1.281 1_655 S
C417 O443 1.281 . S
C418 O432 1.281 1_655 S
C418 O445 1.281 . S
C419 O420 1.281 . S
C419 O442 1.281 1_655 S
O420 Hf406 2.209 . S
O420 C419 1.281 . S
O421 Hf406 2.209 . S
O421 C422 1.281 . S
C422 O421 1.281 . S
C422 O444 1.281 . S
O423 Hf415 2.209 . S
O423 C434 1.281 . S
O424 Hf412 2.209 . S
O424 C441 1.281 . S
O425 Hf412 2.209 . S
O425 C449 1.281 . S
O426 Hf415 2.209 . S
O426 C431 1.281 . S
O427 Hf408 2.209 . S
O427 C448 1.281 . S
O428 C400 1.281 . S
O428 Hf408 2.209 . S
O429 C401 1.281 . S
O429 Hf413 2.209 . S
O430 Hf413 2.209 . S
O430 C416 1.281 . S
C431 O426 1.281 . S
C431 O440 1.281 1_655 S
O432 Hf410 2.209 1_455 S
O432 C418 1.281 1_455 S
O433 Hf410 2.209 1_455 S
O433 C417 1.281 1_455 S
C434 O423 1.281 . S
C434 O439 1.281 . S
O435 Hf415 2.209 . S
O435 C448 1.281 . S
O436 Hf406 2.209 . S
O436 C449 1.281 . S
O437 C400 1.281 . S
O437 Hf406 2.209 . S
O438 Hf415 2.209 . S
O438 C441 1.281 . S
O439 Hf413 2.209 . S
O439 C434 1.281 . S
O440 Hf410 2.209 1_455 S
O440 C431 1.281 1_455 S
C441 O424 1.281 . S
C441 O438 1.281 . S
O442 Hf410 2.209 1_455 S
O442 C419 1.281 1_455 S
O443 Hf408 2.209 . S
O443 C417 1.281 . S
O444 Hf413 2.209 . S
O444 C422 1.281 . S
O445 Hf412 2.209 . S
O445 C418 1.281 . S
O446 Hf412 2.209 . S
O446 C416 1.281 . S
O447 C401 1.281 . S
O447 Hf408 2.209 . S
C448 O427 1.281 . S
C448 O435 1.281 . S
C449 O425 1.281 . S
C449 O436 1.281 . S
C450 O478 1.281 1_565 S
C450 O487 1.281 . S
C451 O479 1.281 . S
C451 O497 1.281 1_565 S
O452 Hf456 2.202 . S
O452 Hf458 2.202 . S
O452 Hf460 2.202 . S
O453 Hf456 2.202 . S
O453 Hf462 2.202 . S
O453 Hf463 2.202 . S
O454 Hf456 2.072 . S
O454 Hf460 2.072 . S
O454 Hf462 2.072 . S
O455 Hf456 2.072 . S
O455 Hf458 2.072 . S
O455 Hf463 2.072 . S
Hf456 O452 2.202 . S
Hf456 O453 2.202 . S
Hf456 O454 2.072 . S
Hf456 O455 2.072 . S
Hf456 O470 2.209 . S
Hf456 O471 2.209 . S
Hf456 O486 2.209 . S
Hf456 O487 2.209 . S
O457 Hf458 2.072 . S
O457 Hf460 2.072 . S
O457 Hf465 2.072 . S
Hf458 O452 2.202 . S
Hf458 O455 2.072 . S
Hf458 O457 2.072 . S
Hf458 O461 2.202 . S
Hf458 O477 2.209 1_565 S
Hf458 O478 2.209 1_565 S
Hf458 O493 2.209 1_565 S
Hf458 O497 2.209 1_565 S
O459 Hf460 2.202 . S
O459 Hf462 2.202 . S
O459 Hf465 2.202 . S
Hf460 O452 2.202 . S
Hf460 O454 2.072 . S
Hf460 O457 2.072 . S
Hf460 O459 2.202 . S
Hf460 O482 2.209 . S
Hf460 O483 2.209 . S
Hf460 O490 2.209 . S
Hf460 O492 2.209 . S
O461 Hf458 2.202 . S
O461 Hf463 2.202 . S
O461 Hf465 2.202 . S
Hf462 O453 2.202 . S
Hf462 O454 2.072 . S
Hf462 O459 2.202 . S
Hf462 O464 2.072 . S
Hf462 O474 2.209 . S
Hf462 O475 2.209 . S
Hf462 O495 2.209 . S
Hf462 O496 2.209 . S
Hf463 O453 2.202 . S
Hf463 O455 2.072 . S
Hf463 O461 2.202 . S
Hf463 O464 2.072 . S
Hf463 O479 2.209 . S
Hf463 O480 2.209 . S
Hf463 O489 2.209 . S
Hf463 O494 2.209 . S
O464 Hf462 2.072 . S
O464 Hf463 2.072 . S
O464 Hf465 2.072 . S
Hf465 O457 2.072 . S
Hf465 O459 2.202 . S
Hf465 O461 2.202 . S
Hf465 O464 2.072 . S
Hf465 O473 2.209 . S
Hf465 O476 2.209 . S
Hf465 O485 2.209 . S
Hf465 O488 2.209 . S
C466 O480 1.281 . S
C466 O496 1.281 . S
C467 O483 1.281 . S
C467 O493 1.281 1_565 S
C468 O482 1.281 . S
C468 O495 1.281 . S
C469 O470 1.281 . S
C469 O492 1.281 . S
O470 Hf456 2.209 . S
O470 C469 1.281 . S
O471 Hf456 2.209 . S
O471 C472 1.281 . S
C472 O471 1.281 . S
C472 O494 1.281 . S
O473 Hf465 2.209 . S
O473 C484 1.281 . S
O474 Hf462 2.209 . S
O474 C491 1.281 . S
O475 Hf462 2.209 . S
O475 C499 1.281 . S
O476 Hf465 2.209 . S
O476 C481 1.281 . S
O477 Hf458 2.209 1_545 S
O477 C498 1.281 1_545 S
O478 C450 1.281 1_545 S
O478 Hf458 2.209 1_545 S
O479 C451 1.281 . S
O479 Hf463 2.209 . S
O480 Hf463 2.209 . S
O480 C466 1.281 . S
C481 O476 1.281 . S
C481 O490 1.281 . S
O482 Hf460 2.209 . S
O482 C468 1.281 . S
O483 Hf460 2.209 . S
O483 C467 1.281 . S
C484 O473 1.281 . S
C484 O489 1.281 . S
O485 Hf465 2.209 . S
O485 C498 1.281 . S
O486 Hf456 2.209 . S
O486 C499 1.281 . S
O487 C450 1.281 . S
O487 Hf456 2.209 . S
O488 Hf465 2.209 . S
O488 C491 1.281 . S
O489 Hf463 2.209 . S
O489 C484 1.281 . S
O490 Hf460 2.209 . S
O490 C481 1.281 . S
C491 O474 1.281 . S
C491 O488 1.281 . S
O492 Hf460 2.209 . S
O492 C469 1.281 . S
O493 Hf458 2.209 1_545 S
O493 C467 1.281 1_545 S
O494 Hf463 2.209 . S
O494 C472 1.281 . S
O495 Hf462 2.209 . S
O495 C468 1.281 . S
O496 Hf462 2.209 . S
O496 C466 1.281 . S
O497 C451 1.281 1_545 S
O497 Hf458 2.209 1_545 S
C498 O477 1.281 1_565 S
C498 O485 1.281 . S
C499 O475 1.281 . S
C499 O486 1.281 . S
C500 O528 1.281 1_455 S
C500 O537 1.281 . S
C501 O529 1.281 . S
C501 O547 1.281 1_455 S
O502 Hf506 2.202 . S
O502 Hf508 2.202 . S
O502 Hf510 2.202 1_545 S
O503 Hf506 2.202 . S
O503 Hf512 2.202 . S
O503 Hf513 2.202 . S
O504 Hf506 2.072 . S
O504 Hf510 2.072 1_545 S
O504 Hf512 2.072 . S
O505 Hf506 2.072 . S
O505 Hf508 2.072 . S
O505 Hf513 2.072 . S
Hf506 O502 2.202 . S
Hf506 O503 2.202 . S
Hf506 O504 2.072 . S
Hf506 O505 2.072 . S
Hf506 O520 2.209 . S
Hf506 O521 2.209 . S
Hf506 O536 2.209 . S
Hf506 O537 2.209 . S
O507 Hf508 2.072 1_565 S
O507 Hf510 2.072 . S
O507 Hf515 2.072 . S
Hf508 O502 2.202 . S
Hf508 O505 2.072 . S
Hf508 O507 2.072 1_545 S
Hf508 O511 2.202 1_545 S
Hf508 O527 2.209 1_445 S
Hf508 O528 2.209 1_455 S
Hf508 O543 2.209 1_445 S
Hf508 O547 2.209 1_455 S
O509 Hf510 2.202 . S
O509 Hf512 2.202 1_565 S
O509 Hf515 2.202 . S
Hf510 O502 2.202 1_565 S
Hf510 O504 2.072 1_565 S
Hf510 O507 2.072 . S
Hf510 O509 2.202 . S
Hf510 O532 2.209 . S
Hf510 O533 2.209 . S
Hf510 O540 2.209 . S
Hf510 O542 2.209 1_565 S
O511 Hf508 2.202 1_565 S
O511 Hf513 2.202 1_565 S
O511 Hf515 2.202 . S
Hf512 O503 2.202 . S
Hf512 O504 2.072 . S
Hf512 O509 2.202 1_545 S
Hf512 O514 2.072 1_545 S
Hf512 O524 2.209 1_545 S
Hf512 O525 2.209 . S
Hf512 O545 2.209 1_545 S
Hf512 O546 2.209 . S
Hf513 O503 2.202 . S
Hf513 O505 2.072 . S
Hf513 O511 2.202 1_545 S
Hf513 O514 2.072 1_545 S
Hf513 O529 2.209 . S
Hf513 O530 2.209 . S
Hf513 O539 2.209 1_545 S
Hf513 O544 2.209 . S
O514 Hf512 2.072 1_565 S
O514 Hf513 2.072 1_565 S
O514 Hf515 2.072 . S
Hf515 O507 2.072 . S
Hf515 O509 2.202 . S
Hf515 O511 2.202 . S
Hf515 O514 2.072 . S
Hf515 O523 2.209 . S
Hf515 O526 2.209 . S
Hf515 O535 2.209 . S
Hf515 O538 2.209 . S
C516 O530 1.281 . S
C516 O546 1.281 . S
C517 O533 1.281 . S
C517 O543 1.281 1_455 S
C518 O532 1.281 . S
C518 O545 1.281 . S
C519 O520 1.281 . S
C519 O542 1.281 . S
O520 Hf506 2.209 . S
O520 C519 1.281 . S
O521 Hf506 2.209 . S
O521 C522 1.281 . S
C522 O521 1.281 . S
C522 O544 1.281 . S
O523 Hf515 2.209 . S
O523 C534 1.281 . S
O524 Hf512 2.209 1_565 S
O524 C541 1.281 . S
O525 Hf512 2.209 . S
O525 C549 1.281 . S
O526 Hf515 2.209 . S
O526 C531 1.281 . S
O527 Hf508 2.209 1_665 S
O527 C548 1.281 1_655 S
O528 C500 1.281 1_655 S
O528 Hf508 2.209 1_655 S
O529 C501 1.281 . S
O529 Hf513 2.209 . S
O530 Hf513 2.209 . S
O530 C516 1.281 . S
C531 O526 1.281 . S
C531 O540 1.281 . S
O532 Hf510 2.209 . S
O532 C518 1.281 . S
O533 Hf510 2.209 . S
O533 C517 1.281 . S
C534 O523 1.281 . S
C534 O539 1.281 . S
O535 Hf515 2.209 . S
O535 C548 1.281 . S
O536 Hf506 2.209 . S
O536 C549 1.281 . S
O537 C500 1.281 . S
O537 Hf506 2.209 . S
O538 Hf515 2.209 . S
O538 C541 1.281 . S
O539 Hf513 2.209 1_565 S
O539 C534 1.281 . S
O540 Hf510 2.209 . S
O540 C531 1.281 . S
C541 O524 1.281 . S
C541 O538 1.281 . S
O542 Hf510 2.209 1_545 S
O542 C519 1.281 . S
O543 Hf508 2.209 1_665 S
O543 C517 1.281 1_655 S
O544 Hf513 2.209 . S
O544 C522 1.281 . S
O545 Hf512 2.209 1_565 S
O545 C518 1.281 . S
O546 Hf512 2.209 . S
O546 C516 1.281 . S
O547 C501 1.281 1_655 S
O547 Hf508 2.209 1_655 S
C548 O527 1.281 1_455 S
C548 O535 1.281 . S
C549 O525 1.281 . S
C549 O536 1.281 . S
C550 O578 1.281 . S
C550 O587 1.281 . S
C551 O579 1.281 . S
C551 O597 1.281 . S
O552 Hf556 2.202 . S
O552 Hf558 2.202 . S
O552 Hf560 2.202 . S
O553 Hf556 2.202 . S
O553 Hf562 2.202 . S
O553 Hf563 2.202 . S
O554 Hf556 2.072 . S
O554 Hf560 2.072 . S
O554 Hf562 2.072 . S
O555 Hf556 2.072 . S
O555 Hf558 2.072 . S
O555 Hf563 2.072 . S
Hf556 O552 2.202 . S
Hf556 O553 2.202 . S
Hf556 O554 2.072 . S
Hf556 O555 2.072 . S
Hf556 O570 2.209 . S
Hf556 O571 2.209 . S
Hf556 O586 2.209 . S
Hf556 O587 2.209 . S
O557 Hf558 2.072 . S
O557 Hf560 2.072 . S
O557 Hf565 2.072 . S
Hf558 O552 2.202 . S
Hf558 O555 2.072 . S
Hf558 O557 2.072 . S
Hf558 O561 2.202 . S
Hf558 O577 2.209 . S
Hf558 O578 2.209 . S
Hf558 O593 2.209 . S
Hf558 O597 2.209 . S
O559 Hf560 2.202 . S
O559 Hf562 2.202 . S
O559 Hf565 2.202 . S
Hf560 O552 2.202 . S
Hf560 O554 2.072 . S
Hf560 O557 2.072 . S
Hf560 O559 2.202 . S
Hf560 O582 2.209 . S
Hf560 O583 2.209 . S
Hf560 O590 2.209 . S
Hf560 O592 2.209 . S
O561 Hf558 2.202 . S
O561 Hf563 2.202 . S
O561 Hf565 2.202 . S
Hf562 O553 2.202 . S
Hf562 O554 2.072 . S
Hf562 O559 2.202 . S
Hf562 O564 2.072 . S
Hf562 O574 2.209 . S
Hf562 O575 2.209 . S
Hf562 O595 2.209 . S
Hf562 O596 2.209 . S
Hf563 O553 2.202 . S
Hf563 O555 2.072 . S
Hf563 O561 2.202 . S
Hf563 O564 2.072 . S
Hf563 O579 2.209 . S
Hf563 O580 2.209 . S
Hf563 O589 2.209 . S
Hf563 O594 2.209 . S
O564 Hf562 2.072 . S
O564 Hf563 2.072 . S
O564 Hf565 2.072 . S
Hf565 O557 2.072 . S
Hf565 O559 2.202 . S
Hf565 O561 2.202 . S
Hf565 O564 2.072 . S
Hf565 O573 2.209 . S
Hf565 O576 2.209 . S
Hf565 O585 2.209 . S
Hf565 O588 2.209 . S
C566 O580 1.281 . S
C566 O596 1.281 . S
C567 O583 1.281 . S
C567 O593 1.281 . S
C568 O582 1.281 . S
C568 O595 1.281 . S
C569 O570 1.281 . S
C569 O592 1.281 . S
O570 Hf556 2.209 . S
O570 C569 1.281 . S
O571 Hf556 2.209 . S
O571 C572 1.281 . S
C572 O571 1.281 . S
C572 O594 1.281 . S
O573 Hf565 2.209 . S
O573 C584 1.281 . S
O574 Hf562 2.209 . S
O574 C591 1.281 . S
O575 Hf562 2.209 . S
O575 C599 1.281 . S
O576 Hf565 2.209 . S
O576 C581 1.281 . S
O577 Hf558 2.209 . S
O577 C598 1.281 . S
O578 C550 1.281 . S
O578 Hf558 2.209 . S
O579 C551 1.281 . S
O579 Hf563 2.209 . S
O580 Hf563 2.209 . S
O580 C566 1.281 . S
C581 O576 1.281 . S
C581 O590 1.281 . S
O582 Hf560 2.209 . S
O582 C568 1.281 . S
O583 Hf560 2.209 . S
O583 C567 1.281 . S
C584 O573 1.281 . S
C584 O589 1.281 . S
O585 Hf565 2.209 . S
O585 C598 1.281 . S
O586 Hf556 2.209 . S
O586 C599 1.281 . S
O587 C550 1.281 . S
O587 Hf556 2.209 . S
O588 Hf565 2.209 . S
O588 C591 1.281 . S
O589 Hf563 2.209 . S
O589 C584 1.281 . S
O590 Hf560 2.209 . S
O590 C581 1.281 . S
C591 O574 1.281 . S
C591 O588 1.281 . S
O592 Hf560 2.209 . S
O592 C569 1.281 . S
O593 Hf558 2.209 . S
O593 C567 1.281 . S
O594 Hf563 2.209 . S
O594 C572 1.281 . S
O595 Hf562 2.209 . S
O595 C568 1.281 . S
O596 Hf562 2.209 . S
O596 C566 1.281 . S
O597 C551 1.281 . S
O597 Hf558 2.209 . S
C598 O577 1.281 . S
C598 O585 1.281 . S
C599 O575 1.281 . S
C599 O586 1.281 . S
C600 C601 1.387 . S
C600 H604 0.950 . S
C600 C609 1.390 . S
C601 C600 1.387 . S
C601 C603 1.387 . S
H602 C609 0.950 . S
C603 C601 1.387 . S
C603 C605 1.390 . S
C603 H607 0.950 . S
H604 C600 0.950 . S
C605 C603 1.390 . S
C605 C606 1.387 . S
C605 H608 0.950 . S
C606 C605 1.387 . S
C606 C609 1.387 . S
H607 C603 0.950 . S
H608 C605 0.950 . S
C609 C600 1.390 . S
C609 H602 0.950 . S
C609 C606 1.387 . S
C610 C611 1.387 . S
C610 H614 0.950 . S
C610 C619 1.390 . S
C611 C610 1.387 . S
C611 C613 1.387 . S
H612 C619 0.950 . S
C613 C611 1.387 . S
C613 C615 1.390 . S
C613 H617 0.950 . S
H614 C610 0.950 . S
C615 C613 1.390 . S
C615 C616 1.387 . S
C615 H618 0.950 . S
C616 C615 1.387 . S
C616 C619 1.387 . S
H617 C613 0.950 . S
H618 C615 0.950 . S
C619 C610 1.390 . S
C619 H612 0.950 . S
C619 C616 1.387 . S
C620 C621 1.387 . S
C620 H624 0.950 . S
C620 C629 1.390 . S
C621 C620 1.387 . S
C621 C623 1.387 . S
H622 C629 0.950 . S
C623 C621 1.387 . S
C623 C625 1.390 . S
C623 H627 0.950 . S
H624 C620 0.950 . S
C625 C623 1.390 . S
C625 C626 1.387 . S
C625 H628 0.950 . S
C626 C625 1.387 . S
C626 C629 1.387 . S
H627 C623 0.950 . S
H628 C625 0.950 . S
C629 C620 1.390 . S
C629 H622 0.950 . S
C629 C626 1.387 . S
C630 C631 1.387 . S
C630 H634 0.950 . S
C630 C639 1.390 . S
C631 C630 1.387 . S
C631 C633 1.387 . S
H632 C639 0.950 . S
C633 C631 1.387 . S
C633 C635 1.390 . S
C633 H637 0.950 . S
H634 C630 0.950 . S
C635 C633 1.390 . S
C635 C636 1.387 . S
C635 H638 0.950 . S
C636 C635 1.387 . S
C636 C639 1.387 . S
H637 C633 0.950 . S
H638 C635 0.950 . S
C639 C630 1.390 . S
C639 H632 0.950 . S
C639 C636 1.387 . S
C640 C641 1.387 . S
C640 H644 0.950 . S
C640 C649 1.390 . S
C641 C640 1.387 . S
C641 C643 1.387 . S
H642 C649 0.950 . S
C643 C641 1.387 . S
C643 C645 1.390 . S
C643 H647 0.950 . S
H644 C640 0.950 . S
C645 C643 1.390 . S
C645 C646 1.387 . S
C645 H648 0.950 . S
C646 C645 1.387 . S
C646 C649 1.387 . S
H647 C643 0.950 . S
H648 C645 0.950 . S
C649 C640 1.390 . S
C649 H642 0.950 . S
C649 C646 1.387 . S
C650 C651 1.387 . S
C650 H654 0.950 . S
C650 C659 1.390 . S
C651 C650 1.387 . S
C651 C653 1.387 . S
H652 C659 0.950 . S
C653 C651 1.387 . S
C653 C655 1.390 . S
C653 H657 0.950 . S
H654 C650 0.950 . S
C655 C653 1.390 . S
C655 C656 1.387 . S
C655 H658 0.950 . S
C656 C655 1.387 . S
C656 C659 1.387 . S
H657 C653 0.950 . S
H658 C655 0.950 . S
C659 C650 1.390 . S
C659 H652 0.950 . S
C659 C656 1.387 . S
C660 C661 1.387 . S
C660 H664 0.950 . S
C660 C669 1.390 . S
C661 C660 1.387 . S
C661 C663 1.387 . S
H662 C669 0.950 . S
C663 C661 1.387 . S
C663 C665 1.390 . S
C663 H667 0.950 . S
H664 C660 0.950 . S
C665 C663 1.390 . S
C665 C666 1.387 . S
C665 H668 0.950 . S
C666 C665 1.387 . S
C666 C669 1.387 . S
H667 C663 0.950 . S
H668 C665 0.950 . S
C669 C660 1.390 . S
C669 H662 0.950 . S
C669 C666 1.387 . S
C670 C671 1.387 . S
C670 H674 0.950 . S
C670 C679 1.390 . S
C671 C670 1.387 . S
C671 C673 1.387 . S
H672 C679 0.950 . S
C673 C671 1.387 . S
C673 C675 1.390 . S
C673 H677 0.950 . S
H674 C670 0.950 . S
C675 C673 1.390 . S
C675 C676 1.387 . S
C675 H678 0.950 . S
C676 C675 1.387 . S
C676 C679 1.387 . S
H677 C673 0.950 . S
H678 C675 0.950 . S
C679 C670 1.390 . S
C679 H672 0.950 . S
C679 C676 1.387 . S
C680 C681 1.387 . S
C680 H684 0.950 . S
C680 C689 1.390 . S
C681 C680 1.387 . S
C681 C683 1.387 . S
H682 C689 0.950 . S
C683 C681 1.387 . S
C683 C685 1.390 . S
C683 H687 0.950 . S
H684 C680 0.950 . S
C685 C683 1.390 . S
C685 C686 1.387 . S
C685 H688 0.950 . S
C686 C685 1.387 . S
C686 C689 1.387 . S
H687 C683 0.950 . S
H688 C685 0.950 . S
C689 C680 1.390 . S
C689 H682 0.950 . S
C689 C686 1.387 . S
C690 C691 1.387 . S
C690 H694 0.950 . S
C690 C699 1.390 . S
C691 C690 1.387 . S
C691 C693 1.387 . S
H692 C699 0.950 . S
C693 C691 1.387 . S
C693 C695 1.390 . S
C693 H697 0.950 . S
H694 C690 0.950 . S
C695 C693 1.390 . S
C695 C696 1.387 . S
C695 H698 0.950 . S
C696 C695 1.387 . S
C696 C699 1.387 . S
H697 C693 0.950 . S
H698 C695 0.950 . S
C699 C690 1.390 . S
C699 H692 0.950 . S
C699 C696 1.387 . S
C700 C701 1.387 . S
C700 H704 0.950 . S
C700 C709 1.390 . S
C701 C700 1.387 . S
C701 C703 1.387 . S
H702 C709 0.950 . S
C703 C701 1.387 . S
C703 C705 1.390 . S
C703 H707 0.950 . S
H704 C700 0.950 . S
C705 C703 1.390 . S
C705 C706 1.387 . S
C705 H708 0.950 . S
C706 C705 1.387 . S
C706 C709 1.387 . S
H707 C703 0.950 . S
H708 C705 0.950 . S
C709 C700 1.390 . S
C709 H702 0.950 . S
C709 C706 1.387 . S
C710 C711 1.387 . S
C710 H714 0.950 . S
C710 C719 1.390 . S
C711 C710 1.387 . S
C711 C713 1.387 . S
H712 C719 0.950 1_545 S
C713 C711 1.387 . S
C713 C715 1.390 . S
C713 H717 0.950 . S
H714 C710 0.950 . S
C715 C713 1.390 . S
C715 C716 1.387 . S
C715 H718 0.950 . S
C716 C715 1.387 . S
C716 C719 1.387 . S
H717 C713 0.950 . S
H718 C715 0.950 . S
C719 C710 1.390 . S
C719 H712 0.950 1_565 S
C719 C716 1.387 . S
C720 C721 1.387 . S
C720 H724 0.950 . S
C720 C729 1.390 . S
C721 C720 1.387 . S
C721 C723 1.387 . S
H722 C729 0.950 . S
C723 C721 1.387 . S
C723 C725 1.390 . S
C723 H727 0.950 . S
H724 C720 0.950 . S
C725 C723 1.390 . S
C725 C726 1.387 . S
C725 H728 0.950 . S
C726 C725 1.387 . S
C726 C729 1.387 . S
H727 C723 0.950 . S
H728 C725 0.950 . S
C729 C720 1.390 . S
C729 H722 0.950 . S
C729 C726 1.387 . S
C730 C731 1.387 . S
C730 H734 0.950 . S
C730 C739 1.390 . S
C731 C730 1.387 . S
C731 C733 1.387 . S
H732 C739 0.950 . S
C733 C731 1.387 . S
C733 C735 1.390 . S
C733 H737 0.950 . S
H734 C730 0.950 . S
C735 C733 1.390 . S
C735 C736 1.387 . S
C735 H738 0.950 . S
C736 C735 1.387 . S
C736 C739 1.387 . S
H737 C733 0.950 . S
H738 C735 0.950 . S
C739 C730 1.390 . S
C739 H732 0.950 . S
C739 C736 1.387 . S
C740 C741 1.387 . S
C740 H744 0.950 . S
C740 C749 1.390 . S
C741 C740 1.387 . S
C741 C743 1.387 . S
H742 C749 0.950 . S
C743 C741 1.387 . S
C743 C745 1.390 . S
C743 H747 0.950 . S
H744 C740 0.950 . S
C745 C743 1.390 . S
C745 C746 1.387 . S
C745 H748 0.950 . S
C746 C745 1.387 . S
C746 C749 1.387 . S
H747 C743 0.950 . S
H748 C745 0.950 . S
C749 C740 1.390 . S
C749 H742 0.950 . S
C749 C746 1.387 . S
C750 C751 1.387 . S
C750 H754 0.950 1_565 S
C750 C759 1.390 . S
C751 C750 1.387 . S
C751 C753 1.387 . S
H752 C759 0.950 . S
C753 C751 1.387 . S
C753 C755 1.390 . S
C753 H757 0.950 . S
H754 C750 0.950 1_545 S
C755 C753 1.390 . S
C755 C756 1.387 . S
C755 H758 0.950 . S
C756 C755 1.387 . S
C756 C759 1.387 . S
H757 C753 0.950 . S
H758 C755 0.950 . S
C759 C750 1.390 . S
C759 H752 0.950 . S
C759 C756 1.387 . S
C760 C761 1.387 . S
C760 H764 0.950 . S
C760 C769 1.390 . S
C761 C760 1.387 . S
C761 C763 1.387 . S
H762 C769 0.950 . S
C763 C761 1.387 . S
C763 C765 1.390 . S
C763 H767 0.950 . S
H764 C760 0.950 . S
C765 C763 1.390 . S
C765 C766 1.387 . S
C765 H768 0.950 . S
C766 C765 1.387 . S
C766 C769 1.387 . S
H767 C763 0.950 . S
H768 C765 0.950 . S
C769 C760 1.390 . S
C769 H762 0.950 . S
C769 C766 1.387 . S
C770 C771 1.387 . S
C770 H774 0.950 . S
C770 C779 1.390 . S
C771 C770 1.387 . S
C771 C773 1.387 . S
H772 C779 0.950 . S
C773 C771 1.387 . S
C773 C775 1.390 . S
C773 H777 0.950 . S
H774 C770 0.950 . S
C775 C773 1.390 . S
C775 C776 1.387 . S
C775 H778 0.950 . S
C776 C775 1.387 . S
C776 C779 1.387 . S
H777 C773 0.950 . S
H778 C775 0.950 . S
C779 C770 1.390 . S
C779 H772 0.950 . S
C779 C776 1.387 . S
C780 C781 1.387 . S
C780 H784 0.950 . S
C780 C789 1.390 . S
C781 C780 1.387 . S
C781 C783 1.387 . S
H782 C789 0.950 . S
C783 C781 1.387 . S
C783 C785 1.390 . S
C783 H787 0.950 . S
H784 C780 0.950 . S
C785 C783 1.390 . S
C785 C786 1.387 . S
C785 H788 0.950 . S
C786 C785 1.387 . S
C786 C789 1.387 . S
H787 C783 0.950 . S
H788 C785 0.950 . S
C789 C780 1.390 . S
C789 H782 0.950 . S
C789 C786 1.387 . S
C790 C791 1.387 . S
C790 H794 0.950 . S
C790 C799 1.390 . S
C791 C790 1.387 . S
C791 C793 1.387 . S
H792 C799 0.950 . S
C793 C791 1.387 . S
C793 C795 1.390 . S
C793 H797 0.950 . S
H794 C790 0.950 . S
C795 C793 1.390 . S
C795 C796 1.387 . S
C795 H798 0.950 . S
C796 C795 1.387 . S
C796 C799 1.387 . S
H797 C793 0.950 . S
H798 C795 0.950 . S
C799 C790 1.390 . S
C799 H792 0.950 . S
C799 C796 1.387 . S
C800 C801 1.387 . S
C800 H804 0.950 . S
C800 C809 1.390 . S
C801 C800 1.387 . S
C801 C803 1.387 . S
H802 C809 0.950 . S
C803 C801 1.387 . S
C803 C805 1.390 . S
C803 H807 0.950 . S
H804 C800 0.950 . S
C805 C803 1.390 . S
C805 C806 1.387 . S
C805 H808 0.950 . S
C806 C805 1.387 . S
C806 C809 1.387 . S
H807 C803 0.950 . S
H808 C805 0.950 . S
C809 C800 1.390 . S
C809 H802 0.950 . S
C809 C806 1.387 . S
C810 C811 1.387 . S
C810 H814 0.950 . S
C810 C819 1.390 . S
C811 C810 1.387 . S
C811 C813 1.387 . S
H812 C819 0.950 . S
C813 C811 1.387 . S
C813 C815 1.390 . S
C813 H817 0.950 . S
H814 C810 0.950 . S
C815 C813 1.390 . S
C815 C816 1.387 . S
C815 H818 0.950 . S
C816 C815 1.387 . S
C816 C819 1.387 . S
H817 C813 0.950 . S
H818 C815 0.950 . S
C819 C810 1.390 . S
C819 H812 0.950 . S
C819 C816 1.387 . S
C820 C821 1.387 . S
C820 H824 0.950 . S
C820 C829 1.390 . S
C821 C820 1.387 . S
C821 C823 1.387 . S
H822 C829 0.950 . S
C823 C821 1.387 . S
C823 C825 1.390 . S
C823 H827 0.950 . S
H824 C820 0.950 . S
C825 C823 1.390 . S
C825 C826 1.387 . S
C825 H828 0.950 . S
C826 C825 1.387 . S
C826 C829 1.387 . S
H827 C823 0.950 . S
H828 C825 0.950 . S
C829 C820 1.390 . S
C829 H822 0.950 . S
C829 C826 1.387 . S
C830 C831 1.387 . S
C830 H834 0.950 . S
C830 C839 1.390 . S
C831 C830 1.387 . S
C831 C833 1.387 . S
H832 C839 0.950 . S
C833 C831 1.387 . S
C833 C835 1.390 . S
C833 H837 0.950 . S
H834 C830 0.950 . S
C835 C833 1.390 . S
C835 C836 1.387 . S
C835 H838 0.950 . S
C836 C835 1.387 . S
C836 C839 1.387 . S
H837 C833 0.950 . S
H838 C835 0.950 . S
C839 C830 1.390 . S
C839 H832 0.950 . S
C839 C836 1.387 . S
C840 C841 1.387 . S
C840 H844 0.950 . S
C840 C849 1.390 . S
C841 C840 1.387 . S
C841 C843 1.387 . S
H842 C849 0.950 . S
C843 C841 1.387 . S
C843 C845 1.390 . S
C843 H847 0.950 . S
H844 C840 0.950 . S
C845 C843 1.390 . S
C845 C846 1.387 . S
C845 H848 0.950 . S
C846 C845 1.387 . S
C846 C849 1.387 . S
H847 C843 0.950 . S
H848 C845 0.950 . S
C849 C840 1.390 . S
C849 H842 0.950 . S
C849 C846 1.387 . S
C850 C851 1.387 . S
C850 H854 0.950 . S
C850 C859 1.390 . S
C851 C850 1.387 . S
C851 C853 1.387 . S
H852 C859 0.950 . S
C853 C851 1.387 . S
C853 C855 1.390 . S
C853 H857 0.950 . S
H854 C850 0.950 . S
C855 C853 1.390 . S
C855 C856 1.387 . S
C855 H858 0.950 . S
C856 C855 1.387 . S
C856 C859 1.387 . S
H857 C853 0.950 . S
H858 C855 0.950 . S
C859 C850 1.390 . S
C859 H852 0.950 . S
C859 C856 1.387 . S
C860 C861 1.387 . S
C860 H864 0.950 . S
C860 C869 1.390 . S
C861 C860 1.387 . S
C861 C863 1.387 . S
H862 C869 0.950 . S
C863 C861 1.387 . S
C863 C865 1.390 . S
C863 H867 0.950 . S
H864 C860 0.950 . S
C865 C863 1.390 . S
C865 C866 1.387 . S
C865 H868 0.950 . S
C866 C865 1.387 . S
C866 C869 1.387 . S
H867 C863 0.950 . S
H868 C865 0.950 . S
C869 C860 1.390 . S
C869 H862 0.950 . S
C869 C866 1.387 . S
C870 C871 1.387 . S
C870 H874 0.950 . S
C870 C879 1.390 . S
C871 C870 1.387 . S
C871 C873 1.387 . S
H872 C879 0.950 . S
C873 C871 1.387 . S
C873 C875 1.390 . S
C873 H877 0.950 . S
H874 C870 0.950 . S
C875 C873 1.390 . S
C875 C876 1.387 . S
C875 H878 0.950 . S
C876 C875 1.387 . S
C876 C879 1.387 . S
H877 C873 0.950 . S
H878 C875 0.950 . S
C879 C870 1.390 . S
C879 H872 0.950 . S
C879 C876 1.387 . S
C880 C881 1.387 . S
C880 H884 0.950 . S
C880 C889 1.390 . S
C881 C880 1.387 . S
C881 C883 1.387 . S
H882 C889 0.950 . S
C883 C881 1.387 . S
C883 C885 1.390 . S
C883 H887 0.950 . S
H884 C880 0.950 . S
C885 C883 1.390 . S
C885 C886 1.387 . S
C885 H888 0.950 . S
C886 C885 1.387 . S
C886 C889 1.387 . S
H887 C883 0.950 . S
H888 C885 0.950 . S
C889 C880 1.390 . S
C889 H882 0.950 . S
C889 C886 1.387 . S
C890 C891 1.387 . S
C890 H894 0.950 . S
C890 C899 1.390 . S
C891 C890 1.387 . S
C891 C893 1.387 . S
H892 C899 0.950 . S
C893 C891 1.387 . S
C893 C895 1.390 . S
C893 H897 0.950 . S
H894 C890 0.950 . S
C895 C893 1.390 . S
C895 C896 1.387 . S
C895 H898 0.950 . S
C896 C895 1.387 . S
C896 C899 1.387 . S
H897 C893 0.950 . S
H898 C895 0.950 . S
C899 C890 1.390 . S
C899 H892 0.950 . S
C899 C896 1.387 . S
C900 C901 1.387 . S
C900 H904 0.950 . S
C900 C909 1.390 . S
C901 C900 1.387 . S
C901 C903 1.387 . S
H902 C909 0.950 . S
C903 C901 1.387 . S
C903 C905 1.390 . S
C903 H907 0.950 . S
H904 C900 0.950 . S
C905 C903 1.390 . S
C905 C906 1.387 . S
C905 H908 0.950 . S
C906 C905 1.387 . S
C906 C909 1.387 . S
H907 C903 0.950 . S
H908 C905 0.950 . S
C909 C900 1.390 . S
C909 H902 0.950 . S
C909 C906 1.387 . S
C910 C911 1.387 . S
C910 H914 0.950 . S
C910 C919 1.390 . S
C911 C910 1.387 . S
C911 C913 1.387 . S
H912 C919 0.950 . S
C913 C911 1.387 . S
C913 C915 1.390 . S
C913 H917 0.950 . S
H914 C910 0.950 . S
C915 C913 1.390 . S
C915 C916 1.387 . S
C915 H918 0.950 . S
C916 C915 1.387 . S
C916 C919 1.387 . S
H917 C913 0.950 . S
H918 C915 0.950 . S
C919 C910 1.390 . S
C919 H912 0.950 . S
C919 C916 1.387 . S
C920 C921 1.387 . S
C920 H924 0.950 . S
C920 C929 1.390 . S
C921 C920 1.387 . S
C921 C923 1.387 . S
H922 C929 0.950 . S
C923 C921 1.387 . S
C923 C925 1.390 . S
C923 H927 0.950 . S
H924 C920 0.950 . S
C925 C923 1.390 . S
C925 C926 1.387 . S
C925 H928 0.950 . S
C926 C925 1.387 . S
C926 C929 1.387 . S
H927 C923 0.950 . S
H928 C925 0.950 . S
C929 C920 1.390 . S
C929 H922 0.950 . S
C929 C926 1.387 . S
C930 C931 1.387 . S
C930 H934 0.950 . S
C930 C939 1.390 . S
C931 C930 1.387 . S
C931 C933 1.387 . S
H932 C939 0.950 1_565 S
C933 C931 1.387 . S
C933 C935 1.390 . S
C933 H937 0.950 . S
H934 C930 0.950 . S
C935 C933 1.390 . S
C935 C936 1.387 . S
C935 H938 0.950 . S
C936 C935 1.387 . S
C936 C939 1.387 . S
H937 C933 0.950 . S
H938 C935 0.950 . S
C939 C930 1.390 . S
C939 H932 0.950 1_545 S
C939 C936 1.387 . S
C940 C941 1.387 . S
C940 H944 0.950 . S
C940 C949 1.390 . S
C941 C940 1.387 . S
C941 C943 1.387 . S
H942 C949 0.950 . S
C943 C941 1.387 . S
C943 C945 1.390 . S
C943 H947 0.950 . S
H944 C940 0.950 . S
C945 C943 1.390 . S
C945 C946 1.387 . S
C945 H948 0.950 . S
C946 C945 1.387 . S
C946 C949 1.387 . S
H947 C943 0.950 . S
H948 C945 0.950 . S
C949 C940 1.390 . S
C949 H942 0.950 . S
C949 C946 1.387 . S
C950 C951 1.387 . S
C950 H954 0.950 . S
C950 C959 1.390 . S
C951 C950 1.387 . S
C951 C953 1.387 . S
H952 C959 0.950 . S
C953 C951 1.387 . S
C953 C955 1.390 . S
C953 H957 0.950 . S
H954 C950 0.950 . S
C955 C953 1.390 . S
C955 C956 1.387 . S
C955 H958 0.950 . S
C956 C955 1.387 . S
C956 C959 1.387 . S
H957 C953 0.950 . S
H958 C955 0.950 . S
C959 C950 1.390 . S
C959 H952 0.950 . S
C959 C956 1.387 . S
C960 C961 1.387 . S
C960 H964 0.950 . S
C960 C969 1.390 . S
C961 C960 1.387 . S
C961 C963 1.387 . S
H962 C969 0.950 . S
C963 C961 1.387 . S
C963 C965 1.390 . S
C963 H967 0.950 . S
H964 C960 0.950 . S
C965 C963 1.390 . S
C965 C966 1.387 . S
C965 H968 0.950 . S
C966 C965 1.387 . S
C966 C969 1.387 . S
H967 C963 0.950 . S
H968 C965 0.950 . S
C969 C960 1.390 . S
C969 H962 0.950 . S
C969 C966 1.387 . S
C970 C971 1.387 . S
C970 H974 0.950 . S
C970 C979 1.390 . S
C971 C970 1.387 . S
C971 C973 1.387 . S
H972 C979 0.950 . S
C973 C971 1.387 . S
C973 C975 1.390 . S
C973 H977 0.950 . S
H974 C970 0.950 . S
C975 C973 1.390 . S
C975 C976 1.387 . S
C975 H978 0.950 1_545 S
C976 C975 1.387 . S
C976 C979 1.387 . S
H977 C973 0.950 . S
H978 C975 0.950 1_565 S
C979 C970 1.390 . S
C979 H972 0.950 . S
C979 C976 1.387 . S
C980 C981 1.387 . S
C980 H984 0.950 . S
C980 C989 1.390 . S
C981 C980 1.387 . S
C981 C983 1.387 . S
H982 C989 0.950 . S
C983 C981 1.387 . S
C983 C985 1.390 . S
C983 H987 0.950 . S
H984 C980 0.950 . S
C985 C983 1.390 . S
C985 C986 1.387 . S
C985 H988 0.950 . S
C986 C985 1.387 . S
C986 C989 1.387 . S
H987 C983 0.950 . S
H988 C985 0.950 . S
C989 C980 1.390 . S
C989 H982 0.950 . S
C989 C986 1.387 . S
C990 C991 1.387 . S
C990 H994 0.950 . S
C990 C999 1.390 . S
C991 C990 1.387 . S
C991 C993 1.387 . S
H992 C999 0.950 . S
C993 C991 1.387 . S
C993 C995 1.390 . S
C993 H997 0.950 . S
H994 C990 0.950 . S
C995 C993 1.390 . S
C995 C996 1.387 . S
C995 H998 0.950 . S
C996 C995 1.387 . S
C996 C999 1.387 . S
H997 C993 0.950 . S
H998 C995 0.950 . S
C999 C990 1.390 . S
C999 H992 0.950 . S
C999 C996 1.387 . S
C1000 C1001 1.387 . S
C1000 H1004 0.950 . S
C1000 C1009 1.390 . S
C1001 C1000 1.387 . S
C1001 C1003 1.387 . S
H1002 C1009 0.950 . S
C1003 C1001 1.387 . S
C1003 C1005 1.390 . S
C1003 H1007 0.950 . S
H1004 C1000 0.950 . S
C1005 C1003 1.390 . S
C1005 C1006 1.387 . S
C1005 H1008 0.950 . S
C1006 C1005 1.387 . S
C1006 C1009 1.387 . S
H1007 C1003 0.950 . S
H1008 C1005 0.950 . S
C1009 C1000 1.390 . S
C1009 H1002 0.950 . S
C1009 C1006 1.387 . S
C1010 C1011 1.387 . S
C1010 H1014 0.950 . S
C1010 C1019 1.390 . S
C1011 C1010 1.387 . S
C1011 C1013 1.387 . S
H1012 C1019 0.950 . S
C1013 C1011 1.387 . S
C1013 C1015 1.390 . S
C1013 H1017 0.950 . S
H1014 C1010 0.950 . S
C1015 C1013 1.390 . S
C1015 C1016 1.387 . S
C1015 H1018 0.950 . S
C1016 C1015 1.387 . S
C1016 C1019 1.387 . S
H1017 C1013 0.950 . S
H1018 C1015 0.950 . S
C1019 C1010 1.390 . S
C1019 H1012 0.950 . S
C1019 C1016 1.387 . S
C1020 C1021 1.387 . S
C1020 H1024 0.950 . S
C1020 C1029 1.390 . S
C1021 C1020 1.387 . S
C1021 C1023 1.387 . S
H1022 C1029 0.950 . S
C1023 C1021 1.387 . S
C1023 C1025 1.390 . S
C1023 H1027 0.950 . S
H1024 C1020 0.950 . S
C1025 C1023 1.390 . S
C1025 C1026 1.387 . S
C1025 H1028 0.950 . S
C1026 C1025 1.387 . S
C1026 C1029 1.387 . S
H1027 C1023 0.950 . S
H1028 C1025 0.950 . S
C1029 C1020 1.390 . S
C1029 H1022 0.950 . S
C1029 C1026 1.387 . S
C1030 C1031 1.387 . S
C1030 H1034 0.950 . S
C1030 C1039 1.390 . S
C1031 C1030 1.387 . S
C1031 C1033 1.387 . S
H1032 C1039 0.950 . S
C1033 C1031 1.387 . S
C1033 C1035 1.390 . S
C1033 H1037 0.950 . S
H1034 C1030 0.950 . S
C1035 C1033 1.390 . S
C1035 C1036 1.387 . S
C1035 H1038 0.950 . S
C1036 C1035 1.387 . S
C1036 C1039 1.387 . S
H1037 C1033 0.950 . S
H1038 C1035 0.950 . S
C1039 C1030 1.390 . S
C1039 H1032 0.950 . S
C1039 C1036 1.387 . S
C1040 C1041 1.387 . S
C1040 H1044 0.950 . S
C1040 C1049 1.390 . S
C1041 C1040 1.387 . S
C1041 C1043 1.387 . S
H1042 C1049 0.950 . S
C1043 C1041 1.387 . S
C1043 C1045 1.390 . S
C1043 H1047 0.950 . S
H1044 C1040 0.950 . S
C1045 C1043 1.390 . S
C1045 C1046 1.387 . S
C1045 H1048 0.950 . S
C1046 C1045 1.387 . S
C1046 C1049 1.387 . S
H1047 C1043 0.950 . S
H1048 C1045 0.950 . S
C1049 C1040 1.390 . S
C1049 H1042 0.950 . S
C1049 C1046 1.387 . S
C1050 C1051 1.387 . S
C1050 H1054 0.950 . S
C1050 C1059 1.390 . S
C1051 C1050 1.387 . S
C1051 C1053 1.387 . S
H1052 C1059 0.950 . S
C1053 C1051 1.387 . S
C1053 C1055 1.390 . S
C1053 H1057 0.950 . S
H1054 C1050 0.950 . S
C1055 C1053 1.390 . S
C1055 C1056 1.387 . S
C1055 H1058 0.950 . S
C1056 C1055 1.387 . S
C1056 C1059 1.387 . S
H1057 C1053 0.950 . S
H1058 C1055 0.950 . S
C1059 C1050 1.390 . S
C1059 H1052 0.950 . S
C1059 C1056 1.387 . S
C1060 C1061 1.387 . S
C1060 H1064 0.950 . S
C1060 C1069 1.390 . S
C1061 C1060 1.387 . S
C1061 C1063 1.387 . S
H1062 C1069 0.950 . S
C1063 C1061 1.387 . S
C1063 C1065 1.390 . S
C1063 H1067 0.950 . S
H1064 C1060 0.950 . S
C1065 C1063 1.390 . S
C1065 C1066 1.387 . S
C1065 H1068 0.950 . S
C1066 C1065 1.387 . S
C1066 C1069 1.387 . S
H1067 C1063 0.950 . S
H1068 C1065 0.950 . S
C1069 C1060 1.390 . S
C1069 H1062 0.950 . S
C1069 C1066 1.387 . S
C1070 C1071 1.387 . S
C1070 H1074 0.950 . S
C1070 C1079 1.390 . S
C1071 C1070 1.387 . S
C1071 C1073 1.387 . S
H1072 C1079 0.950 . S
C1073 C1071 1.387 . S
C1073 C1075 1.390 . S
C1073 H1077 0.950 . S
H1074 C1070 0.950 . S
C1075 C1073 1.390 . S
C1075 C1076 1.387 . S
C1075 H1078 0.950 . S
C1076 C1075 1.387 . S
C1076 C1079 1.387 . S
H1077 C1073 0.950 . S
H1078 C1075 0.950 . S
C1079 C1070 1.390 . S
C1079 H1072 0.950 . S
C1079 C1076 1.387 . S
C1080 C1081 1.387 1_455 S
C1080 H1084 0.950 . S
C1080 C1089 1.390 . S
C1081 C1080 1.387 1_655 S
C1081 C1083 1.387 . S
H1082 C1089 0.950 . S
C1083 C1081 1.387 . S
C1083 C1085 1.390 . S
C1083 H1087 0.950 . S
H1084 C1080 0.950 . S
C1085 C1083 1.390 . S
C1085 C1086 1.387 . S
C1085 H1088 0.950 . S
C1086 C1085 1.387 . S
C1086 C1089 1.387 1_655 S
H1087 C1083 0.950 . S
H1088 C1085 0.950 . S
C1089 C1080 1.390 . S
C1089 H1082 0.950 . S
C1089 C1086 1.387 1_455 S
C1090 C1091 1.388 . S
C1090 H1094 0.950 . S
C1090 C1099 1.389 1_554 S
C1091 C1090 1.388 . S
C1091 C1093 1.388 . S
H1092 C1099 0.950 . S
C1093 C1091 1.388 . S
C1093 C1095 1.389 1_554 S
C1093 H1097 0.950 . S
H1094 C1090 0.950 . S
C1095 C1093 1.389 1_556 S
C1095 C1096 1.388 . S
C1095 H1098 0.950 . S
C1096 C1095 1.388 . S
C1096 C1099 1.388 . S
H1097 C1093 0.950 . S
H1098 C1095 0.950 . S
C1099 C1090 1.389 1_556 S
C1099 H1092 0.950 . S
C1099 C1096 1.388 . S
C1100 C1101 1.387 . S
C1100 H1104 0.950 . S
C1100 C1109 1.390 1_545 S
C1101 C1100 1.387 . S
C1101 C1103 1.387 1_455 S
H1102 C1109 0.950 . S
C1103 C1101 1.387 1_655 S
C1103 C1105 1.390 1_545 S
C1103 H1107 0.950 . S
H1104 C1100 0.950 . S
C1105 C1103 1.390 1_565 S
C1105 C1106 1.387 1_655 S
C1105 H1108 0.950 . S
C1106 C1105 1.387 1_455 S
C1106 C1109 1.387 . S
H1107 C1103 0.950 . S
H1108 C1105 0.950 . S
C1109 C1100 1.390 1_565 S
C1109 H1102 0.950 . S
C1109 C1106 1.387 . S
C1110 C1111 1.387 . S
C1110 H1114 0.950 . S
C1110 C1119 1.390 1_554 S
C1111 C1110 1.387 . S
C1111 C1113 1.387 . S
H1112 C1119 0.950 . S
C1113 C1111 1.387 . S
C1113 C1115 1.390 1_554 S
C1113 H1117 0.950 . S
H1114 C1110 0.950 . S
C1115 C1113 1.390 1_556 S
C1115 C1116 1.387 . S
C1115 H1118 0.950 . S
C1116 C1115 1.387 . S
C1116 C1119 1.387 . S
H1117 C1113 0.950 . S
H1118 C1115 0.950 . S
C1119 C1110 1.390 1_556 S
C1119 H1112 0.950 . S
C1119 C1116 1.387 . S
C1120 C1121 1.387 . S
C1120 H1124 0.950 . S
C1120 C1129 1.390 . S
C1121 C1120 1.387 . S
C1121 C1123 1.387 1_565 S
H1122 C1129 0.950 . S
C1123 C1121 1.387 1_545 S
C1123 C1125 1.390 . S
C1123 H1127 0.950 . S
H1124 C1120 0.950 . S
C1125 C1123 1.390 . S
C1125 C1126 1.387 1_545 S
C1125 H1128 0.950 . S
C1126 C1125 1.387 1_565 S
C1126 C1129 1.387 . S
H1127 C1123 0.950 . S
H1128 C1125 0.950 . S
C1129 C1120 1.390 . S
C1129 H1122 0.950 . S
C1129 C1126 1.387 . S
C1130 C1131 1.387 . S
C1130 H1134 0.950 . S
C1130 C1139 1.390 . S
C1131 C1130 1.387 . S
C1131 C1133 1.387 . S
H1132 C1139 0.950 . S
C1133 C1131 1.387 . S
C1133 C1135 1.390 . S
C1133 H1137 0.950 . S
H1134 C1130 0.950 . S
C1135 C1133 1.390 . S
C1135 C1136 1.387 . S
C1135 H1138 0.950 . S
C1136 C1135 1.387 . S
C1136 C1139 1.387 . S
H1137 C1133 0.950 . S
H1138 C1135 0.950 . S
C1139 C1130 1.390 . S
C1139 H1132 0.950 . S
C1139 C1136 1.387 . S
C1140 C1141 1.387 . S
C1140 H1144 0.950 . S
C1140 C1149 1.390 . S
C1141 C1140 1.387 . S
C1141 C1143 1.387 . S
H1142 C1149 0.950 . S
C1143 C1141 1.387 . S
C1143 C1145 1.390 . S
C1143 H1147 0.950 . S
H1144 C1140 0.950 . S
C1145 C1143 1.390 . S
C1145 C1146 1.387 . S
C1145 H1148 0.950 . S
C1146 C1145 1.387 . S
C1146 C1149 1.387 . S
H1147 C1143 0.950 . S
H1148 C1145 0.950 . S
C1149 C1140 1.390 . S
C1149 H1142 0.950 . S
C1149 C1146 1.387 . S
C1150 C1151 1.387 . S
C1150 H1154 0.950 . S
C1150 C1159 1.390 1_565 S
C1151 C1150 1.387 . S
C1151 C1153 1.387 . S
H1152 C1159 0.950 . S
C1153 C1151 1.387 . S
C1153 C1155 1.390 1_565 S
C1153 H1157 0.950 . S
H1154 C1150 0.950 . S
C1155 C1153 1.390 1_545 S
C1155 C1156 1.387 . S
C1155 H1158 0.950 . S
C1156 C1155 1.387 . S
C1156 C1159 1.387 . S
H1157 C1153 0.950 . S
H1158 C1155 0.950 . S
C1159 C1150 1.390 1_545 S
C1159 H1152 0.950 . S
C1159 C1156 1.387 . S
C1160 C1161 1.387 1_565 S
C1160 H1164 0.950 . S
C1160 C1169 1.390 1_554 S
C1161 C1160 1.387 1_545 S
C1161 C1163 1.387 . S
H1162 C1169 0.950 . S
C1163 C1161 1.387 . S
C1163 C1165 1.390 1_554 S
C1163 H1167 0.950 . S
H1164 C1160 0.950 . S
C1165 C1163 1.390 1_556 S
C1165 C1166 1.387 . S
C1165 H1168 0.950 . S
C1166 C1165 1.387 . S
C1166 C1169 1.387 1_545 S
H1167 C1163 0.950 . S
H1168 C1165 0.950 . S
C1169 C1160 1.390 1_556 S
C1169 H1162 0.950 . S
C1169 C1166 1.387 1_565 S
C1170 C1171 1.387 . S
C1170 H1174 0.950 . S
C1170 C1179 1.390 . S
C1171 C1170 1.387 . S
C1171 C1173 1.387 . S
H1172 C1179 0.950 . S
C1173 C1171 1.387 . S
C1173 C1175 1.390 . S
C1173 H1177 0.950 . S
H1174 C1170 0.950 . S
C1175 C1173 1.390 . S
C1175 C1176 1.387 . S
C1175 H1178 0.950 . S
C1176 C1175 1.387 . S
C1176 C1179 1.387 . S
H1177 C1173 0.950 . S
H1178 C1175 0.950 . S
C1179 C1170 1.390 . S
C1179 H1172 0.950 . S
C1179 C1176 1.387 . S
C1180 C1181 1.387 . S
C1180 H1184 0.950 . S
C1180 C1189 1.390 1_554 S
C1181 C1180 1.387 . S
C1181 C1183 1.387 . S
H1182 C1189 0.950 . S
C1183 C1181 1.387 . S
C1183 C1185 1.390 1_554 S
C1183 H1187 0.950 . S
H1184 C1180 0.950 . S
C1185 C1183 1.390 1_556 S
C1185 C1186 1.387 . S
C1185 H1188 0.950 . S
C1186 C1185 1.387 . S
C1186 C1189 1.387 . S
H1187 C1183 0.950 . S
H1188 C1185 0.950 . S
C1189 C1180 1.390 1_556 S
C1189 H1182 0.950 . S
C1189 C1186 1.387 . S
C1190 C1191 1.388 . S
C1190 H1194 0.950 . S
C1190 C1199 1.389 1_565 S
C1191 C1190 1.388 . S
C1191 C1193 1.388 . S
H1192 C1199 0.950 . S
C1193 C1191 1.388 . S
C1193 C1195 1.389 1_565 S
C1193 H1197 0.950 . S
H1194 C1190 0.950 . S
C1195 C1193 1.389 1_545 S
C1195 C1196 1.388 . S
C1195 H1198 0.950 . S
C1196 C1195 1.388 . S
C1196 C1199 1.388 . S
H1197 C1193 0.950 . S
H1198 C1195 0.950 . S
C1199 C1190 1.389 1_545 S
C1199 H1192 0.950 . S
C1199 C1196 1.388 . S
C1200 C1201 1.387 1_554 S
C1200 H1204 0.950 . S
C1200 C1209 1.390 . S
C1201 C1200 1.387 1_556 S
C1201 C1203 1.387 . S
H1202 C1209 0.950 . S
C1203 C1201 1.387 . S
C1203 C1205 1.390 . S
C1203 H1207 0.950 . S
H1204 C1200 0.950 . S
C1205 C1203 1.390 . S
C1205 C1206 1.387 . S
C1205 H1208 0.950 . S
C1206 C1205 1.387 . S
C1206 C1209 1.387 1_556 S
H1207 C1203 0.950 . S
H1208 C1205 0.950 . S
C1209 C1200 1.390 . S
C1209 H1202 0.950 . S
C1209 C1206 1.387 1_554 S
C1210 C1211 1.387 . S
C1210 H1214 0.950 . S
C1210 C1219 1.390 . S
C1211 C1210 1.387 . S
C1211 C1213 1.387 . S
H1212 C1219 0.950 . S
C1213 C1211 1.387 . S
C1213 C1215 1.390 . S
C1213 H1217 0.950 . S
H1214 C1210 0.950 . S
C1215 C1213 1.390 . S
C1215 C1216 1.387 . S
C1215 H1218 0.950 . S
C1216 C1215 1.387 . S
C1216 C1219 1.387 . S
H1217 C1213 0.950 . S
H1218 C1215 0.950 . S
C1219 C1210 1.390 . S
C1219 H1212 0.950 . S
C1219 C1216 1.387 . S
C1220 C1221 1.388 . S
C1220 H1224 0.950 . S
C1220 C1229 1.389 1_455 S
C1221 C1220 1.388 . S
C1221 C1223 1.388 . S
H1222 C1229 0.950 . S
C1223 C1221 1.388 . S
C1223 C1225 1.389 1_455 S
C1223 H1227 0.950 . S
H1224 C1220 0.950 . S
C1225 C1223 1.389 1_655 S
C1225 C1226 1.388 . S
C1225 H1228 0.950 . S
C1226 C1225 1.388 . S
C1226 C1229 1.388 . S
H1227 C1223 0.950 . S
H1228 C1225 0.950 . S
C1229 C1220 1.389 1_655 S
C1229 H1222 0.950 . S
C1229 C1226 1.388 . S
C1230 C1231 1.387 . S
C1230 H1234 0.950 . S
C1230 C1239 1.390 . S
C1231 C1230 1.387 . S
C1231 C1233 1.387 . S
H1232 C1239 0.950 . S
C1233 C1231 1.387 . S
C1233 C1235 1.390 . S
C1233 H1237 0.950 . S
H1234 C1230 0.950 . S
C1235 C1233 1.390 . S
C1235 C1236 1.387 . S
C1235 H1238 0.950 . S
C1236 C1235 1.387 . S
C1236 C1239 1.387 . S
H1237 C1233 0.950 . S
H1238 C1235 0.950 . S
C1239 C1230 1.390 . S
C1239 H1232 0.950 . S
C1239 C1236 1.387 . S
C1240 C1241 1.387 . S
C1240 H1244 0.950 . S
C1240 C1249 1.390 1_655 S
C1241 C1240 1.387 . S
C1241 C1243 1.387 . S
H1242 C1249 0.950 . S
C1243 C1241 1.387 . S
C1243 C1245 1.390 1_655 S
C1243 H1247 0.950 . S
H1244 C1240 0.950 . S
C1245 C1243 1.390 1_455 S
C1245 C1246 1.387 . S
C1245 H1248 0.950 . S
C1246 C1245 1.387 . S
C1246 C1249 1.387 . S
H1247 C1243 0.950 . S
H1248 C1245 0.950 . S
C1249 C1240 1.390 1_455 S
C1249 H1242 0.950 . S
C1249 C1246 1.387 . S
C1250 C1251 1.388 . S
C1250 H1254 0.950 . S
C1250 C1259 1.389 1_655 S
C1251 C1250 1.388 . S
C1251 C1253 1.388 . S
H1252 C1259 0.950 . S
C1253 C1251 1.388 . S
C1253 C1255 1.389 1_655 S
C1253 H1257 0.950 . S
H1254 C1250 0.950 . S
C1255 C1253 1.389 1_455 S
C1255 C1256 1.388 . S
C1255 H1258 0.950 . S
C1256 C1255 1.388 . S
C1256 C1259 1.388 . S
H1257 C1253 0.950 . S
H1258 C1255 0.950 . S
C1259 C1250 1.389 1_455 S
C1259 H1252 0.950 . S
C1259 C1256 1.388 . S
C1260 C1261 1.387 . S
C1260 H1264 0.950 . S
C1260 C1269 1.390 1_545 S
C1261 C1260 1.387 . S
C1261 C1263 1.387 . S
H1262 C1269 0.950 . S
C1263 C1261 1.387 . S
C1263 C1265 1.390 1_545 S
C1263 H1267 0.950 . S
H1264 C1260 0.950 . S
C1265 C1263 1.390 1_565 S
C1265 C1266 1.387 . S
C1265 H1268 0.950 . S
C1266 C1265 1.387 . S
C1266 C1269 1.387 . S
H1267 C1263 0.950 . S
H1268 C1265 0.950 . S
C1269 C1260 1.390 1_565 S
C1269 H1262 0.950 . S
C1269 C1266 1.387 . S
C1270 C1271 1.387 . S
C1270 H1274 0.950 . S
C1270 C1279 1.390 . S
C1271 C1270 1.387 . S
C1271 C1273 1.387 . S
H1272 C1279 0.950 . S
C1273 C1271 1.387 . S
C1273 C1275 1.390 . S
C1273 H1277 0.950 . S
H1274 C1270 0.950 . S
C1275 C1273 1.390 . S
C1275 C1276 1.387 . S
C1275 H1278 0.950 . S
C1276 C1275 1.387 . S
C1276 C1279 1.387 . S
H1277 C1273 0.950 . S
H1278 C1275 0.950 . S
C1279 C1270 1.390 . S
C1279 H1272 0.950 . S
C1279 C1276 1.387 . S
C1280 C1281 1.387 . S
C1280 H1284 0.950 . S
C1280 C1289 1.390 . S
C1281 C1280 1.387 . S
C1281 C1283 1.387 . S
H1282 C1289 0.950 . S
C1283 C1281 1.387 . S
C1283 C1285 1.390 . S
C1283 H1287 0.950 . S
H1284 C1280 0.950 . S
C1285 C1283 1.390 . S
C1285 C1286 1.387 . S
C1285 H1288 0.950 . S
C1286 C1285 1.387 . S
C1286 C1289 1.387 . S
H1287 C1283 0.950 . S
H1288 C1285 0.950 . S
C1289 C1280 1.390 . S
C1289 H1282 0.950 . S
C1289 C1286 1.387 . S
C1290 C1291 1.387 . S
C1290 H1294 0.950 . S
C1290 C1299 1.390 . S
C1291 C1290 1.387 . S
C1291 C1293 1.387 . S
H1292 C1299 0.950 . S
C1293 C1291 1.387 . S
C1293 C1295 1.390 . S
C1293 H1297 0.950 . S
H1294 C1290 0.950 . S
C1295 C1293 1.390 . S
C1295 C1296 1.387 . S
C1295 H1298 0.950 . S
C1296 C1295 1.387 . S
C1296 C1299 1.387 . S
H1297 C1293 0.950 . S
H1298 C1295 0.950 . S
C1299 C1290 1.390 . S
C1299 H1292 0.950 . S
C1299 C1296 1.387 . S
C1300 C1301 1.387 . S
C1300 H1304 0.950 . S
C1300 C1309 1.390 1_455 S
C1301 C1300 1.387 . S
C1301 C1303 1.387 1_554 S
H1302 C1309 0.950 . S
C1303 C1301 1.387 1_556 S
C1303 C1305 1.390 1_455 S
C1303 H1307 0.950 . S
H1304 C1300 0.950 . S
C1305 C1303 1.390 1_655 S
C1305 C1306 1.387 1_556 S
C1305 H1308 0.950 . S
C1306 C1305 1.387 1_554 S
C1306 C1309 1.387 . S
H1307 C1303 0.950 . S
H1308 C1305 0.950 . S
C1309 C1300 1.390 1_655 S
C1309 H1302 0.950 . S
C1309 C1306 1.387 . S
C1310 C1311 1.387 . S
C1310 H1314 0.950 . S
C1310 C1319 1.390 . S
C1311 C1310 1.387 . S
C1311 C1313 1.387 . S
H1312 C1319 0.950 . S
C1313 C1311 1.387 . S
C1313 C1315 1.390 . S
C1313 H1317 0.950 . S
H1314 C1310 0.950 . S
C1315 C1313 1.390 . S
C1315 C1316 1.387 . S
C1315 H1318 0.950 . S
C1316 C1315 1.387 . S
C1316 C1319 1.387 . S
H1317 C1313 0.950 . S
H1318 C1315 0.950 . S
C1319 C1310 1.390 . S
C1319 H1312 0.950 . S
C1319 C1316 1.387 . S
C601 C222 1.146 . S
C606 C41 1.189 . S
C611 C269 1.142 . S
C616 C67 1.189 1_554 S
C621 C49 1.189 . S
C626 C348 1.141 . S
C631 C191 1.143 . S
C636 C51 1.191 1_554 S
C641 C399 1.142 . S
C646 C116 1.187 . S
C651 C131 1.193 1_556 S
C656 C400 1.148 . S
C661 C101 1.191 . S
C666 C481 1.145 . S
C671 C534 1.142 . S
C676 C119 1.189 1_556 S
C681 C31 1.147 . S
C686 C151 1.189 . S
C691 C69 1.147 . S
C696 C217 1.193 . S
C701 C291 1.189 . S
C706 C22 1.145 . S
C711 C84 1.147 . S
C716 C319 1.194 1_565 S
C721 C149 1.143 . S
C726 C166 1.189 . S
C731 C201 1.192 . S
C736 C141 1.146 . S
C741 C299 1.190 . S
C746 C148 1.145 . S
C751 C331 1.193 1_565 S
C756 C100 1.147 . S
C761 C249 1.193 . S
C766 C198 1.144 . S
C771 C366 1.193 . S
C776 C199 1.150 . S
C781 C419 1.190 1_455 S
C786 C234 1.144 . S
C791 C272 1.142 . S
C796 C491 1.189 . S
C801 C391 1.144 . S
C806 C251 1.191 . S
C811 C531 1.148 . S
C816 C351 1.195 . S
C821 C431 1.190 1_455 S
C826 C350 1.143 . S
C831 C517 1.190 1_655 S
C836 C469 1.144 . S
C841 C472 1.148 . S
C846 C91 1.193 . S
C851 C17 1.190 . S
C856 C519 1.141 . S
C861 C99 1.192 . S
C866 C398 1.147 . S
C871 C1 1.189 . S
C876 C441 1.143 . S
C881 C349 1.148 . S
C886 C566 1.195 . S
C891 C581 1.189 . S
C896 C150 1.141 . S
C901 C231 1.143 . S
C906 C551 1.191 . S
C911 C284 1.142 . S
C916 C569 1.189 . S
C921 C401 1.190 . S
C926 C81 1.143 . S
C931 C19 1.147 . S
C936 C467 1.194 1_545 S
C941 C541 1.193 . S
C946 C72 1.149 . S
C951 C369 1.190 . S
C956 C34 1.144 . S
C961 C599 1.143 . S
C966 C416 1.190 . S
C971 C591 1.142 . S
C976 C451 1.188 1_545 S
C981 C549 1.192 . S
C986 C598 1.146 . S
C991 C381 1.191 . S
C996 C550 1.144 . S
C1001 C499 1.193 . S
C1006 C448 1.148 . S
C1011 C316 1.192 . S
C1016 C449 1.148 . S
C1021 C169 1.192 . S
C1026 C484 1.148 . S
C1031 C522 1.145 . S
C1036 C241 1.191 . S
C1041 C341 1.143 . S
C1046 C501 1.190 1_655 S
C1051 C281 1.142 . S
C1056 C301 1.187 . S
C1061 C300 1.143 . S
C1066 C181 1.187 . S
C1071 C267 1.192 . S
C1076 C219 1.146 . S
C1081 C134 2.550 . S
C1086 C16 2.550 . S
C1091 C98 2.550 1_554 S
C1096 C117 2.553 1_556 S
C1101 C18 2.553 . S
C1106 C122 2.553 . S
C1111 C50 2.553 1_554 S
C1116 C118 2.550 1_556 S
C1121 C172 2.553 . S
C1126 C518 2.553 . S
C1131 C248 2.553 . S
C1136 C367 2.556 . S
C1141 C434 2.550 . S
C1146 C266 2.550 . S
C1151 C318 2.553 1_565 S
C1156 C450 2.556 1_545 S
C1161 C184 2.550 . S
C1166 C516 2.550 . S
C1171 C368 2.553 . S
C1176 C200 2.550 . S
C1181 C268 2.550 . S
C1186 C422 2.550 . S
C1191 C317 2.550 1_565 S
C1196 C498 2.548 1_545 S
C1201 C322 2.550 . S
C1206 C218 2.550 . S
C1211 C466 2.550 . S
C1216 C384 2.550 . S
C1221 C418 2.550 1_455 S
C1226 C500 2.548 1_655 S
C1231 C250 2.553 . S
C1236 C168 2.556 . S
C1241 C468 2.553 . S
C1246 C372 2.553 . S
C1251 C548 2.550 1_655 S
C1256 C417 2.553 1_455 S
C1261 C584 2.550 . S
C1266 C66 2.550 . S
C1271 C48 2.550 . S
C1276 C567 2.548 . S
C1281 C68 2.553 . S
C1286 C572 2.553 . S
C1291 C568 2.553 . S
C1296 C0 2.556 . S
C1301 C216 2.553 . S
C1306 C334 2.553 . S
C1311 C167 2.550 . S
C1316 C298 2.548 . S
