# Generated by pormake.
# Topology snz, (6)-cn, num edge types: 1
# Building blocks:
#     Node 0, Type 0, BuildingBlock: UKALOJ_clean_sbu_0, # of connection points: 6
#     Node 1, Type 0, BuildingBlock: UKALOJ_clean_sbu_0, # of connection points: 6
#     Node 2, Type 0, BuildingBlock: UKALOJ_clean_sbu_0, # of connection points: 6
#     Node 3, Type 0, BuildingBlock: UKALOJ_clean_sbu_0, # of connection points: 6
#     Node 4, Type 0, BuildingBlock: UKALOJ_clean_sbu_0, # of connection points: 6
#     Node 5, Type 0, BuildingBlock: UKALOJ_clean_sbu_0, # of connection points: 6
#     Node 6, Type 0, BuildingBlock: UKALOJ_clean_sbu_0, # of connection points: 6
#     Node 7, Type 0, BuildingBlock: UKALOJ_clean_sbu_0, # of connection points: 6
#     Node 8, Type 0, BuildingBlock: UKALOJ_clean_sbu_0, # of connection points: 6
#     Edge 9, Type (0, 0), BuildingBlock: AJUNOK_clean_linker_0, # of connection points: 2
#     Edge 10, Type (0, 0), BuildingBlock: AJUNOK_clean_linker_0, # of connection points: 2
#     Edge 11, Type (0, 0), BuildingBlock: AJUNOK_clean_linker_0, # of connection points: 2
#     Edge 12, Type (0, 0), BuildingBlock: AJUNOK_clean_linker_0, # of connection points: 2
#     Edge 13, Type (0, 0), BuildingBlock: AJUNOK_clean_linker_0, # of connection points: 2
#     Edge 14, Type (0, 0), BuildingBlock: AJUNOK_clean_linker_0, # of connection points: 2
#     Edge 15, Type (0, 0), BuildingBlock: AJUNOK_clean_linker_0, # of connection points: 2
#     Edge 16, Type (0, 0), BuildingBlock: AJUNOK_clean_linker_0, # of connection points: 2
#     Edge 17, Type (0, 0), BuildingBlock: AJUNOK_clean_linker_0, # of connection points: 2
#     Edge 18, Type (0, 0), BuildingBlock: AJUNOK_clean_linker_0, # of connection points: 2
#     Edge 19, Type (0, 0), BuildingBlock: AJUNOK_clean_linker_0, # of connection points: 2
#     Edge 20, Type (0, 0), BuildingBlock: AJUNOK_clean_linker_0, # of connection points: 2
#     Edge 21, Type (0, 0), BuildingBlock: AJUNOK_clean_linker_0, # of connection points: 2
#     Edge 22, Type (0, 0), BuildingBlock: AJUNOK_clean_linker_0, # of connection points: 2
#     Edge 23, Type (0, 0), BuildingBlock: AJUNOK_clean_linker_0, # of connection points: 2
#     Edge 24, Type (0, 0), BuildingBlock: AJUNOK_clean_linker_0, # of connection points: 2
#     Edge 25, Type (0, 0), BuildingBlock: AJUNOK_clean_linker_0, # of connection points: 2
#     Edge 26, Type (0, 0), BuildingBlock: AJUNOK_clean_linker_0, # of connection points: 2
#     Edge 27, Type (0, 0), BuildingBlock: AJUNOK_clean_linker_0, # of connection points: 2
#     Edge 28, Type (0, 0), BuildingBlock: AJUNOK_clean_linker_0, # of connection points: 2
#     Edge 29, Type (0, 0), BuildingBlock: AJUNOK_clean_linker_0, # of connection points: 2
#     Edge 30, Type (0, 0), BuildingBlock: AJUNOK_clean_linker_0, # of connection points: 2
#     Edge 31, Type (0, 0), BuildingBlock: AJUNOK_clean_linker_0, # of connection points: 2
#     Edge 32, Type (0, 0), BuildingBlock: AJUNOK_clean_linker_0, # of connection points: 2
#     Edge 33, Type (0, 0), BuildingBlock: AJUNOK_clean_linker_0, # of connection points: 2
#     Edge 34, Type (0, 0), BuildingBlock: AJUNOK_clean_linker_0, # of connection points: 2
#     Edge 35, Type (0, 0), BuildingBlock: AJUNOK_clean_linker_0, # of connection points: 2
# Relax obj value: 0.589
# Max RMSD: 0.316
# Mean RMSD: 0.263
data_MOF--net-snz--node1-UKALOJ_clean_sbu_0--edge1-AJUNOK_clean_linker_0
_symmetry_space_group_name_H-M    P1
_symmetry_Int_Tables_number       1
_symmetry_cell_setting            triclinic
loop_
_symmetry_equiv_pos_as_xyz
'x, y, z'
_cell_length_a     38.378343
_cell_length_b     42.723462
_cell_length_c     11.524206
_cell_angle_alpha  89.720025
_cell_angle_beta   89.922992
_cell_angle_gamma 120.45324
loop_
_atom_site_label
_atom_site_type_symbol
_atom_site_fract_x
_atom_site_fract_y
_atom_site_fract_z
_atom_type_partial_charge
Zn0 Zn 0.98545 0.4657 0.19581 0.0
O1 O 0.94365 0.41463 0.13243 0.0
C2 C 0.04586 0.44405 0.27851 0.0
Zn3 Zn 0.0323 0.47491 0.06685 0.0
C4 C 0.95505 0.40119 0.05386 0.0
O5 O -0.00888 0.41927 1.01519 0.0
C6 C 0.06192 0.54057 0.20582 0.0
O7 O 0.00049 0.49188 0.94774 0.0
O8 O 0.95955 0.48691 0.08872 0.0
N9 N 0.07232 0.47748 0.94626 0.0
C10 C 0.07885 0.49219 0.84038 0.0
C11 C 0.09165 0.44964 0.83212 0.0
N12 N 0.08233 0.45211 0.943 0.0
N13 N 0.08702 0.47296 0.76314 0.0
C14 C 0.9448 0.43941 0.40791 0.0
C15 C 0.96207 0.49 0.48205 0.0
N16 N 0.94566 0.46086 0.3222 0.0
N17 N 0.95352 0.49177 0.36999 0.0
N18 N 0.95978 0.45801 0.50674 0.0
H19 H 0.90626 0.3893 0.31749 0.0
H20 H 0.90369 0.386 0.47299 0.0
H21 H 0.94688 0.39019 0.39906 0.0
C22 C 0.92434 0.39893 0.398 0.0
C23 C 0.07279 0.52321 0.80967 0.0
H24 H 0.04358 0.51271 0.76447 0.0
H25 H 0.09708 0.54212 0.74955 0.0
H26 H 0.07329 0.5383 0.88824 0.0
O27 O 0.07196 0.52932 0.11715 0.0
O28 O 0.02839 0.5193 0.25579 0.0
C29 C 0.97052 0.49432 0.98371 0.0
O30 O 0.01274 0.44201 0.30692 0.0
O31 O 0.06182 0.45827 0.18205 0.0
Zn32 Zn 0.54033 0.52451 0.13008 0.0
O33 O 0.48371 0.50878 0.20668 0.0
C34 C 0.50682 0.45941 0.97954 0.0
Zn35 Zn 0.51462 0.53178 0.96728 0.0
C36 C 0.45269 0.50229 0.14931 0.0
O37 O 0.45552 0.5072 0.04041 0.0
C38 C 0.60228 0.55389 0.94643 0.0
O39 O 0.5252 0.58224 1.03374 0.0
O40 O 0.55995 0.57888 0.17765 0.0
N41 N 0.49155 0.53976 0.81718 0.0
C42 C 0.49892 0.56904 0.75609 0.0
C43 C 0.43812 0.51978 0.59241 0.0
N44 N 0.47745 0.54763 0.71685 0.0
N45 N 0.47794 0.56526 0.64568 0.0
C46 C 0.53914 0.51253 0.37986 0.0
C47 C 0.59667 0.5571 0.41831 0.0
N48 N 0.56243 0.51855 0.28574 0.0
N49 N 0.59895 0.54532 0.31208 0.0
N50 N 0.55869 0.53807 0.46182 0.0
H51 H 0.49436 0.45802 0.32932 0.0
H52 H 0.47425 0.48229 0.40552 0.0
H53 H 0.50153 0.46555 0.48432 0.0
C54 C 0.50005 0.47756 0.40016 0.0
C55 C 0.53238 0.60667 0.80548 0.0
H56 H 0.55618 0.60374 0.84935 0.0
H57 H 0.51802 0.61633 0.86823 0.0
H58 H 0.54881 0.62894 0.74253 0.0
O59 O 0.57407 0.55514 0.89231 0.0
O60 O 0.59635 0.54154 0.04956 0.0
C61 C 0.54672 0.59647 0.12264 0.0
O62 O 0.51998 0.46993 0.08176 0.0
O63 O 0.50303 0.4806 0.90949 0.0
Zn64 Zn 0.47488 0.02797 0.07615 0.0
O65 O 0.45553 0.06356 1.01662 0.0
C66 C 0.39184 0.96832 0.14664 0.0
Zn67 Zn 0.44236 0.98935 0.93579 0.0
C68 C 0.43108 0.05448 0.93257 0.0
O69 O 0.41902 0.02395 0.88424 0.0
C70 C 0.48428 0.96136 0.07682 0.0
O71 O 0.49583 0.02125 0.82552 0.0
O72 O 0.52591 0.05619 0.9749 0.0
N73 N 0.40767 0.95295 0.81421 0.0
C74 C 0.41788 0.94585 0.71137 0.0
C75 C 0.3546 0.92359 0.70981 0.0
N76 N 0.36786 0.93733 0.81601 0.0
N77 N 0.38584 0.93084 0.63845 0.0
C78 C 0.48128 0.06127 0.29099 0.0
C79 C 0.52257 0.04904 0.36785 0.0
N80 N 0.50604 0.06285 0.20693 0.0
N81 N 0.53389 0.05794 0.25652 0.0
N82 N 0.48721 0.04779 0.38973 0.0
H83 H 0.45951 0.09237 0.19983 0.0
H84 H 0.4541 0.09116 0.35358 0.0
H85 H 0.42059 0.05162 0.27128 0.0
C86 C 0.45208 0.07465 0.27725 0.0
C87 C 0.46043 0.95683 0.67889 0.0
H88 H 0.4777 0.95771 0.75702 0.0
H89 H 0.47537 0.98407 0.63752 0.0
H90 H 0.4607 0.93721 0.61675 0.0
O91 O 0.46371 0.9552 0.9851 0.0
O92 O 0.49436 0.99038 0.133 0.0
C93 C 0.52703 0.04829 0.86991 0.0
O94 O 0.42104 -0.00221 0.18453 0.0
O95 O 0.39317 0.95912 0.04382 0.0
Zn96 Zn 0.66963 0.82356 0.23877 0.0
O97 O 0.7038 0.8792 0.25999 0.0
C98 C 0.63541 0.81598 0.48401 0.0
Zn99 Zn 0.60956 0.81966 0.24067 0.0
C100 C 0.68361 0.8947 0.27787 0.0
O101 O 0.64553 0.87685 0.26546 0.0
C102 C 0.59742 0.74695 0.22043 0.0
O103 O 0.61357 0.82333 0.05219 0.0
O104 O 0.67313 0.82827 0.0525 0.0
N105 N 0.55968 0.82622 0.23595 0.0
C106 C 0.55684 0.85366 0.18672 0.0
C107 C 0.5033 0.82238 0.28675 0.0
N108 N 0.52624 0.80675 0.29796 0.0
N109 N 0.52213 0.85194 0.21775 0.0
C110 C 0.75129 0.832 0.31569 0.0
C111 C 0.75255 0.79088 0.21671 0.0
N112 N 0.72032 0.81944 0.24044 0.0
N113 N 0.7218 0.79446 0.17682 0.0
N114 N 0.77166 0.81416 0.30433 0.0
H115 H 0.76759 0.88652 0.35617 0.0
H116 H 0.78925 0.86764 0.45203 0.0
H117 H 0.73667 0.8537 0.46366 0.0
C118 C 0.76178 0.8615 0.40231 0.0
C119 C 0.58796 0.88306 0.10994 0.0
H120 H 0.61233 0.8781 0.08352 0.0
H121 H 0.60129 0.9093 0.15618 0.0
H122 H 0.57307 0.88575 1.03112 0.0
O123 O 0.57495 0.76103 0.22394 0.0
O124 O 0.63548 0.7675 0.2233 0.0
C125 C 0.64351 0.82603 0.9956 0.0
O126 O 0.66467 0.81807 0.4253 0.0
O127 O 0.60611 0.81519 0.42915 0.0
Zn128 Zn 0.15137 0.84003 0.37816 0.0
O129 O 0.08917 0.80595 0.40196 0.0
C130 C 0.16289 0.82011 0.62219 0.0
Zn131 Zn 0.16246 0.79355 0.37883 0.0
C132 C 0.07593 0.77243 0.41954 0.0
O133 O 0.09943 0.75996 0.40727 0.0
C134 C 0.23946 0.86308 0.35078 0.0
O135 O 0.15704 0.7918 0.19049 0.0
O136 O 0.14604 0.83721 0.19189 0.0
N137 N 0.16702 0.74723 0.37417 0.0
C138 C 0.14042 0.71415 0.33127 0.0
C139 C 0.1895 0.71045 0.4015 0.0
N140 N 0.1976 0.74486 0.41747 0.0
N141 N 0.15364 0.69068 0.34809 0.0
C142 C 0.12566 0.89738 0.43691 0.0
C143 C 0.16893 0.94202 0.33596 0.0
N144 N 0.14655 0.88564 0.37445 0.0
N145 N 0.17283 0.91334 0.31004 0.0
N146 N 0.13962 0.93301 0.41606 0.0
H147 H 0.0689 0.84859 0.46521 0.0
H148 H 0.07335 0.8872 0.53815 0.0
H149 H 0.10088 0.86594 0.59099 0.0
C150 C 0.09016 0.8735 0.51255 0.0
C151 C 0.102 0.7047 0.26898 0.0
H152 H 0.10357 0.72876 0.22763 0.0
H153 H 0.07659 0.69287 0.3321 0.0
H154 H 0.09541 0.68403 0.20136 0.0
O155 O 0.22643 0.82907 0.35645 0.0
O156 O 0.21442 0.87405 0.35937 0.0
C157 C 0.15107 0.81443 0.13437 0.0
O158 O 0.15687 0.84235 0.56373 0.0
O159 O 0.1681 0.79684 0.5673 0.0
Zn160 Zn 0.13316 0.30579 0.50813 0.0
O161 O 0.15822 0.27195 0.52969 0.0
C162 C 0.16087 0.33455 0.75299 0.0
Zn163 Zn 0.19162 0.35802 0.50872 0.0
C164 C 0.1964 0.28889 0.54223 0.0
O165 O 0.21604 0.32327 0.53033 0.0
C166 C 0.12775 0.37488 0.48274 0.0
O167 O 0.19249 0.35463 0.32092 0.0
O168 O 0.13559 0.30302 0.3207 0.0
N169 N 0.24983 0.40117 0.50346 0.0
C170 C 0.27093 0.42392 0.41533 0.0
C171 C 0.3137 0.42747 0.53961 0.0
N172 N 0.27655 0.4038 0.58128 0.0
N173 N 0.31095 0.44029 0.43517 0.0
C174 C 0.04999 0.23843 0.58021 0.0
C175 C 0.01644 0.23061 0.42541 0.0
N176 N 0.07561 0.2624 0.50117 0.0
N177 N 0.05469 0.2572 0.40469 0.0
N178 N 0.0127 0.2183 0.53508 0.0
H179 H 0.09228 0.23679 0.6958 0.0
H180 H 0.03991 0.20628 0.73468 0.0
H181 H 0.0622 0.25438 0.75732 0.0
C182 C 0.06176 0.23356 0.69926 0.0
C183 C 0.2528 0.43086 0.31042 0.0
H184 H 0.25326 0.41438 0.23727 0.0
H185 H 0.2712 0.45982 0.28401 0.0
H186 H 0.22128 0.42401 0.32768 0.0
O187 O 0.16611 0.39168 0.4905 0.0
O188 O 0.10821 0.34037 0.48924 0.0
C189 C 0.16443 0.32874 0.26414 0.0
O190 O 0.13223 0.309 0.69575 0.0
O191 O 0.18984 0.36066 0.69707 0.0
Zn192 Zn 0.34997 0.20602 0.76421 0.0
O193 O 0.34592 0.20793 0.95214 0.0
C194 C 0.36644 0.14682 0.79239 0.0
Zn195 Zn 0.29143 0.15416 0.7638 0.0
C196 C 0.31732 0.18173 1.00842 0.0
O197 O 0.28921 0.15577 0.95131 0.0
C198 C 0.32366 0.17729 0.51954 0.0
O199 O 0.25538 0.17861 0.74434 0.0
O200 O 0.31327 0.22957 0.74053 0.0
N201 N 0.24276 0.10304 0.76631 0.0
C202 C 0.20872 0.08608 0.70267 0.0
C203 C 0.21568 0.04549 0.78889 0.0
N204 N 0.24655 0.07776 0.8214 0.0
N205 N 0.19146 0.04957 0.71307 0.0
C206 C 0.42211 0.28169 0.83854 0.0
C207 C 0.42872 0.31216 0.68484 0.0
N208 N 0.39845 0.25794 0.7567 0.0
N209 N 0.40302 0.277 0.66113 0.0
N210 N 0.44088 0.31605 0.79605 0.0
H211 H 0.4057 0.26753 1.01717 0.0
H212 H 0.45925 0.29191 0.98988 0.0
H213 H 0.42847 0.24446 0.94997 0.0
C214 C 0.4295 0.27085 0.95564 0.0
C215 C 0.18934 0.10544 0.64865 0.0
H216 H 0.18758 0.12355 0.71391 0.0
H217 H 0.15801 0.0862 0.62035 0.0
H218 H 0.20808 0.12255 0.57497 0.0
O219 O 0.29421 0.15217 0.57653 0.0
O220 O 0.35239 0.20306 0.57572 0.0
C221 C 0.27507 0.21288 0.73089 0.0
O222 O 0.3865 0.18142 0.78691 0.0
O223 O 0.32829 0.13053 0.78106 0.0
Zn224 Zn 0.78227 0.16493 0.72829 0.0
O225 O 0.72017 0.15274 0.73685 0.0
C226 C 0.7766 0.13421 0.97217 0.0
Zn227 Zn 0.76515 0.10675 0.72642 0.0
C228 C 0.69401 0.11885 0.73543 0.0
O229 O 0.70591 0.09608 0.73376 0.0
C230 C 0.85243 0.15152 0.71193 0.0
O231 O 0.76275 0.10852 0.53991 0.0
O232 O 0.78105 0.16598 0.53915 0.0
N233 N 0.74248 0.05227 0.71551 0.0
C234 C 0.75195 0.03376 0.63991 0.0
C235 C 0.69341 -0.00322 0.70726 0.0
N236 N 0.70625 0.0291 0.75842 0.0
N237 N 0.72173 -0.00088 0.633 0.0
C238 C 0.8132 0.24404 0.81611 0.0
C239 C 0.85449 0.2741 0.68027 0.0
N240 N 0.80685 0.22041 0.73004 0.0
N241 N 0.83224 0.23943 0.64508 0.0
N242 N 0.84312 0.27775 0.78745 0.0
H243 H 0.76179 0.20825 0.92281 0.0
H244 H 0.78395 0.25624 0.95173 0.0
H245 H 0.80978 0.23365 0.99805 0.0
C246 C 0.79054 0.23457 0.9285 0.0
C247 C 0.79031 0.04941 0.57066 0.0
H248 H 0.79468 0.07276 0.51779 0.0
H249 H 0.79065 0.02902 0.51222 0.0
H250 H 0.81602 0.0588 0.63143 0.0
O251 O 0.82536 0.11816 0.71516 0.0
O252 O 0.84234 0.17552 0.71904 0.0
C253 C 0.77193 0.13722 0.48295 0.0
O254 O 0.78469 0.1628 0.91543 0.0
O255 O 0.76677 0.10524 0.91586 0.0
Zn256 Zn 0.84338 0.621 0.70736 0.0
O257 O 0.85028 0.62557 0.89528 0.0
C258 C 0.76173 0.60864 0.74861 0.0
Zn259 Zn 0.84473 0.67356 0.71272 0.0
C260 C 0.85126 0.65116 0.95421 0.0
O261 O 0.851 0.67698 0.89949 0.0
C262 C 0.83637 0.64208 0.46604 0.0
O263 O 0.9069 0.70435 0.68874 0.0
O264 O 0.90646 0.65311 0.67186 0.0
N265 N 0.84202 0.72001 0.71406 0.0
C266 C 0.84919 0.74477 0.63073 0.0
C267 C 0.82183 0.75599 0.77228 0.0
N268 N 0.82599 0.72765 0.80339 0.0
N269 N 0.83598 0.76725 0.66365 0.0
C270 C 0.88036 0.57276 0.753 0.0
C271 C 0.83708 0.52121 0.68506 0.0
N272 N 0.84931 0.57586 0.71194 0.0
N273 N 0.82247 0.54381 0.6693 0.0
N274 N 0.8738 0.53907 0.73502 0.0
H275 H 0.91005 0.6222 0.85485 0.0
H276 H 0.94196 0.61607 0.755 0.0
H277 H 0.92572 0.58993 0.88677 0.0
C278 C 0.91628 0.60191 0.81658 0.0
C279 C 0.86705 0.74584 0.51409 0.0
H280 H 0.88623 0.73336 0.51752 0.0
H281 H 0.88607 0.77422 0.4834 0.0
H282 H 0.84225 0.7314 0.45095 0.0
O283 O 0.83762 0.66826 0.52267 0.0
O284 O 0.83594 0.61632 0.52314 0.0
C285 C 0.92535 0.68752 0.66648 0.0
O286 O 0.77913 0.59011 0.73684 0.0
O287 O 0.7821 0.64296 0.73835 0.0
C288 C 0.06731 0.4867 0.57885 0.0
C289 C 0.06229 0.46052 0.66117 0.0
C290 C 0.03358 0.48605 0.5307 0.0
C291 C -0.00614 0.45804 0.55837 0.0
H292 H 0.09678 0.51065 0.56611 0.0
H293 H 0.03869 0.50839 0.47481 0.0
S294 S 0.96676 0.37448 0.72382 0.0
N295 N 0.01632 0.39957 0.73537 0.0
N296 N 0.95274 0.39854 0.64527 0.0
C297 C -0.01078 0.42841 0.6228 0.0
C298 C 0.02364 0.42907 0.67122 0.0
C299 C 0.53607 0.61529 0.52497 0.0
C300 C 0.49941 0.6052 0.58592 0.0
C301 C 0.55464 0.5939 0.49884 0.0
C302 C 0.53979 0.55589 0.518 0.0
H303 H 0.55406 0.64388 0.50342 0.0
H304 H 0.58395 0.60942 0.45801 0.0
S305 S 0.41887 0.49706 0.77432 0.0
N306 N 0.42173 0.55062 0.70011 0.0
N307 N 0.47412 0.49907 0.65908 0.0
C308 C 0.50032 0.5368 0.55324 0.0
C309 C 0.46964 0.57588 0.5791 0.0
C310 C 0.41736 0.94845 0.45004 0.0
C311 C 0.3907 0.94951 0.53059 0.0
C312 C 0.44934 0.98085 0.40605 0.0
C313 C 0.45379 0.01487 0.43544 0.0
H314 H 0.4181 0.92364 0.43873 0.0
H315 H 0.47165 0.97927 0.35307 0.0
S316 S 0.37733 0.02821 0.5862 0.0
N317 N 0.35959 0.9841 0.59386 0.0
N318 N 0.42088 0.04552 0.51681 0.0
C319 C 0.42193 0.01488 0.494 0.0
C320 C 0.38896 0.98171 0.53564 0.0
C321 C 0.60968 0.82288 0.67977 0.0
C322 C 0.63709 0.81709 0.61475 0.0
C323 C 0.61222 0.82615 0.80185 0.0
C324 C 0.6425 0.8241 0.86513 0.0
H325 H 0.58619 0.8253 0.63602 0.0
H326 H 0.59024 0.83049 0.84691 0.0
S327 S 0.72097 0.80781 0.73843 0.0
N328 N 0.69461 0.80788 0.62556 0.0
N329 N 0.70005 0.81511 0.85234 0.0
C330 C 0.66998 0.81817 0.80134 0.0
C331 C 0.66709 0.81437 0.67735 0.0
C332 C 0.16247 0.79249 0.81813 0.0
C333 C 0.16088 0.81977 0.75289 0.0
C334 C 0.15865 0.79062 0.94028 0.0
C335 C 0.15285 0.81585 1.00363 0.0
H336 H 0.16649 0.77212 0.77455 0.0
H337 H 0.16039 0.76915 0.98538 0.0
S338 S 0.14667 0.89299 0.8756 0.0
N339 N 0.15344 0.87299 0.76282 0.0
N340 N 0.14581 0.86924 0.99004 0.0
C341 C 0.15108 0.84324 0.93944 0.0
C342 C 0.15521 0.84527 0.81522 0.0
C343 C 0.18048 0.36449 0.95042 0.0
C344 C 0.16165 0.33265 0.88329 0.0
C345 C 0.18155 0.36301 0.07283 0.0
C346 C 0.16417 0.32966 0.13389 0.0
H347 H 0.19399 0.39081 0.9082 0.0
H348 H 0.19524 0.38829 0.11995 0.0
S349 S 0.11532 0.23849 0.9995 0.0
N350 N 0.12844 0.26681 0.88834 0.0
N351 N 0.12953 0.26411 0.11648 0.0
C352 C 0.14593 0.29772 0.06779 0.0
C353 C 0.14502 0.2992 0.94338 0.0
C354 C 0.34096 0.211 0.32732 0.0
C355 C 0.32301 0.1778 0.38917 0.0
C356 C 0.33866 0.21216 0.20507 0.0
C357 C 0.31836 0.18016 0.13879 0.0
H358 H 0.3563 0.23643 0.37394 0.0
H359 H 0.35252 0.2384 0.16239 0.0
S360 S 0.2716 0.08626 0.25662 0.0
N361 N 0.28729 0.11214 0.37303 0.0
N362 N 0.28338 0.11422 0.14488 0.0
C363 C 0.30127 0.1468 0.19949 0.0
C364 C 0.30349 0.14565 0.32384 0.0
C365 C 0.74842 0.10502 0.2904 0.0
C366 C 0.77359 0.13704 0.35285 0.0
C367 C 0.75007 0.10395 0.16802 0.0
C368 C 0.77728 0.13479 0.10257 0.0
H369 H 0.72677 0.08065 0.33645 0.0
H370 H 0.72928 0.07896 0.12431 0.0
S371 S 0.85471 0.22341 0.22488 0.0
N372 N 0.82933 0.19925 0.33965 0.0
N373 N 0.83359 0.19682 0.11188 0.0
C374 C 0.8039 0.16641 0.16452 0.0
C375 C 0.80177 0.16766 0.28873 0.0
C376 C 0.83369 0.66845 0.27025 0.0
C377 C 0.83922 0.64324 0.33527 0.0
C378 C 0.83853 0.67139 0.14837 0.0
C379 C 0.84906 0.64918 0.08488 0.0
H380 H 0.82522 0.68601 0.31356 0.0
H381 H 0.8333 0.69095 0.10343 0.0
S382 S 0.86875 0.57955 0.21237 0.0
N383 N 0.85713 0.5962 0.32522 0.0
N384 N 0.86579 0.6015 0.09804 0.0
C385 C 0.85489 0.62394 0.14871 0.0
C386 C 0.85005 0.621 0.27283 0.0
C387 C 0.1279 0.42995 0.40561 0.0
C388 C 0.10617 0.39455 0.45208 0.0
C389 C 0.10791 0.44652 0.35551 0.0
C390 C 0.06544 0.42869 0.35152 0.0
H391 H 0.16061 0.44427 0.40182 0.0
H392 H 0.12592 0.47306 0.31561 0.0
S393 S -0.0057 0.33711 0.47005 0.0
N394 N 0.0395 0.34332 0.49869 0.0
N395 N 0.00235 0.37458 0.404 0.0
C396 C 0.04334 0.39431 0.40402 0.0
C397 C 0.0636 0.37723 0.45439 0.0
C398 C 0.53352 0.6485 0.12491 0.0
C399 C 0.55758 0.63366 0.15806 0.0
C400 C 0.54507 0.68467 0.15094 0.0
C401 C 0.58129 0.70728 0.20995 0.0
H402 H 0.50589 0.63225 0.07681 0.0
H403 H 0.52647 0.69537 0.12031 0.0
S404 S 0.65397 0.6809 0.32 0.0
N405 N 0.61852 0.64414 0.25567 0.0
N406 N 0.63986 0.71136 0.30688 0.0
C407 C 0.60469 0.69218 0.24741 0.0
C408 C 0.59296 0.65559 0.2209 0.0
C409 C 0.33329 0.95359 0.27769 0.0
C410 C 0.35773 0.9428 0.22077 0.0
C411 C 0.29605 0.92758 0.32661 0.0
C412 C 0.28227 0.88998 0.32116 0.0
H413 H 0.34176 0.98194 0.27821 0.0
H414 H 0.27711 0.93697 0.36415 0.0
S415 S 0.33965 0.84914 0.19951 0.0
N416 N 0.36874 0.8931 0.17447 0.0
N417 N 0.29927 0.84429 0.26744 0.0
C418 C 0.30844 0.87942 0.27339 0.0
C419 C 0.346 0.90583 0.22264 0.0
C420 C 0.37768 0.0643 0.84498 0.0
C421 C 0.41643 0.07899 0.89286 0.0
C422 C 0.36262 0.08664 0.80932 0.0
C423 C 0.3856 0.12478 0.82022 0.0
H424 H 0.35837 0.03516 0.83718 0.0
H425 H 0.33227 0.07365 0.77453 0.0
S426 S 0.48933 0.17694 0.94013 0.0
N427 N 0.4779 0.13415 0.94864 0.0
N428 N 0.44952 0.17615 0.88246 0.0
C429 C 0.42468 0.1399 0.86701 0.0
C430 C 0.44 0.11704 0.90365 0.0
C431 C 0.86383 0.33688 0.87649 0.0
C432 C 0.86841 0.30652 0.86511 0.0
C433 C 0.89138 0.36692 0.94206 0.0
C434 C 0.92477 0.36772 0.9959 0.0
H435 H 0.83942 0.33764 0.83212 0.0
H436 H 0.88749 0.3903 0.9469 0.0
S437 S 0.94882 0.29408 0.99519 0.0
N438 N 0.90733 0.27811 0.91645 0.0
N439 N 0.95986 0.33505 1.0372 0.0
C440 C 0.92907 0.33715 0.98726 0.0
C441 C 0.90065 0.30638 0.92226 0.0
C442 C 0.7154 0.60567 0.90289 0.0
C443 C 0.72053 0.5924 0.79661 0.0
C444 C 0.67693 0.59288 0.95063 0.0
C445 C 0.64214 0.56725 0.8919 0.0
H446 H 0.74148 0.62605 0.94988 0.0
H447 H 0.67434 0.60352 1.03336 0.0
S448 S 0.63915 0.52342 0.61238 0.0
N449 N 0.68785 0.55145 0.63563 0.0
N450 N 0.61498 0.52832 0.72328 0.0
C451 C 0.6467 0.55379 0.78533 0.0
C452 C 0.68611 0.56611 0.73818 0.0
C453 C 0.88018 0.49733 0.86757 0.0
C454 C 0.89686 0.52381 0.78008 0.0
C455 C 0.90429 0.4872 0.92951 0.0
C456 C 0.94594 0.50302 0.90565 0.0
H457 H 0.84878 0.48587 0.89235 0.0
H458 H 0.89032 0.46746 0.99903 0.0
S459 S 0.0029 0.5712 0.6756 0.0
N460 N 0.95627 0.56354 0.66494 0.0
N461 N 0.00202 0.5449 0.78257 0.0
C462 C 0.96244 0.52806 0.81353 0.0
C463 C 0.93777 0.53841 0.75052 0.0
C464 C 0.50947 0.41579 0.8426 0.0
C465 C 0.49355 0.42206 0.9437 0.0
C466 C 0.4938 0.38052 0.79959 0.0
C467 C 0.46123 0.35044 0.85493 0.0
H468 H 0.53358 0.43837 0.79516 0.0
H469 H 0.50611 0.37679 0.71969 0.0
S470 S 0.40661 0.35375 0.11675 0.0
N471 N 0.44328 0.39615 0.09694 0.0
N472 N 0.41183 0.33022 1.0119 0.0
C473 C 0.44507 0.35662 0.9563 0.0
C474 C 0.46177 0.39241 1.0017 0.0
C475 C 0.63465 0.12269 0.80854 0.0
C476 C 0.64983 0.10447 0.74361 0.0
C477 C 0.59365 0.10511 0.84079 0.0
C478 C 0.56629 0.06892 0.80803 0.0
H479 H 0.65499 0.14957 0.84199 0.0
H480 H 0.58378 0.11927 0.89766 0.0
S481 S 0.59002 0.01135 0.62402 0.0
N482 N 0.63345 0.0498 0.63604 0.0
N483 N 0.55674 0.01706 0.6974 0.0
C484 C 0.58042 0.0517 0.73456 0.0
C485 C 0.62213 0.06941 0.70235 0.0
C486 C 0.47517 0.89903 0.0654 0.0
C487 C 0.4938 0.93348 0.11888 0.0
C488 C 0.48321 0.87189 0.10138 0.0
C489 C 0.51015 0.87809 0.19203 0.0
H490 H 0.45426 0.89288 0.99435 0.0
H491 H 0.46914 0.8462 0.05624 0.0
S492 S 0.56616 0.9622 0.36325 0.0
N493 N 0.53988 0.97141 0.27004 0.0
N494 N 0.55502 0.9202 0.33621 0.0
C495 C 0.52852 0.91186 0.24764 0.0
C496 C 0.52029 0.93957 0.2116 0.0
C497 C 0.09431 0.62901 0.36486 0.0
C498 C 0.13315 0.65263 0.32021 0.0
C499 C 0.07211 0.59261 0.33006 0.0
C500 C 0.08772 0.57849 0.24786 0.0
H501 H 0.08082 0.63903 0.42593 0.0
H502 H 0.04204 0.57572 0.36579 0.0
S503 S 0.18927 0.62943 0.10957 0.0
N504 N 0.18719 0.65952 0.19437 0.0
N505 N 0.14569 0.59124 0.12699 0.0
C506 C 0.12717 0.60181 0.20509 0.0
C507 C 0.14985 0.6388 0.24188 0.0
C508 C 0.41129 0.5073 0.30628 0.0
C509 C 0.4139 0.48838 0.2103 0.0
C510 C 0.37631 0.49229 0.37554 0.0
C511 C 0.34347 0.45763 0.35276 0.0
H512 H 0.43678 0.53353 0.32916 0.0
H513 H 0.37514 0.50728 0.44939 0.0
S514 S 0.33595 0.39679 0.11349 0.0
N515 N 0.38064 0.43369 0.09438 0.0
N516 N 0.31586 0.40455 0.2288 0.0
C517 C 0.34549 0.43872 0.25585 0.0
C518 C 0.3806 0.45437 0.18355 0.0
C519 C 0.84595 0.81187 0.51059 0.0
C520 C 0.82017 0.7831 0.58515 0.0
C521 C 0.83015 0.82262 0.41876 0.0
C522 C 0.7883 0.80489 0.40041 0.0
H523 H 0.87838 0.82524 0.52139 0.0
H524 H 0.85052 0.84422 0.36068 0.0
S525 S 0.70825 0.72988 0.57499 0.0
N526 N 0.75092 0.73828 0.63646 0.0
N527 N 0.72148 0.75922 0.46663 0.0
C528 C 0.76236 0.7774 0.47745 0.0
C529 C 0.77824 0.76636 0.5695 0.0
C530 C 0.14611 0.98465 0.683 0.0
C531 C 0.16386 0.02027 0.63876 0.0
C532 C 0.13444 0.95504 0.60978 0.0
C533 C 0.13727 0.9594 0.48835 0.0
H534 H 0.14612 0.98019 0.77564 0.0
H535 H 0.12745 0.92968 0.65022 0.0
S536 S 0.16911 0.04467 0.3259 0.0
N537 N 0.17749 0.05706 0.4631 0.0
N538 N 0.14938 0.00025 0.32699 0.0
C539 C 0.14828 -0.00625 0.44289 0.0
C540 C 0.16288 0.02449 0.51731 0.0
C541 C 0.92607 0.19428 0.73571 0.0
C542 C 0.89466 0.16311 0.68322 0.0
C543 C 0.96564 0.21073 0.69237 0.0
C544 C 0.97488 0.19678 0.59431 0.0
H545 H 0.91962 0.20705 0.80698 0.0
H546 H -0.01156 0.23598 0.73052 0.0
S547 S 0.90386 0.11571 0.42654 0.0
N548 N 0.87578 0.1186 0.52981 0.0
N549 N 0.95023 0.14973 0.44863 0.0
C550 C 0.94419 0.16489 0.54423 0.0
C551 C 0.90402 0.14792 0.58885 0.0
C552 C 0.21396 0.21392 0.65608 0.0
C553 C 0.25491 0.23289 0.6893 0.0
C554 C 0.19555 0.23197 0.60576 0.0
C555 C 0.21734 0.26977 0.58576 0.0
H556 H 0.19597 0.18477 0.66757 0.0
H557 H 0.16388 0.21611 0.58298 0.0
S558 S 0.32532 0.33243 0.65952 0.0
N559 N 0.31646 0.29201 0.70074 0.0
N560 N 0.2823 0.32564 0.60529 0.0
C561 C 0.25833 0.28909 0.61895 0.0
C562 C 0.27693 0.27079 0.67102 0.0
C563 C 0.71831 0.92426 0.45939 0.0
C564 C 0.70043 0.92625 0.35491 0.0
C565 C 0.72536 0.94825 0.55036 0.0
C566 C 0.71474 0.97491 0.53941 0.0
H567 H 0.72444 0.90253 0.47428 0.0
H568 H 0.73825 0.9455 0.63062 0.0
S569 S 0.67094 -0.00594 0.28171 0.0
N570 N 0.67459 0.95854 0.24409 0.0
N571 N 0.68855 0.00426 0.41545 0.0
C572 C 0.69851 0.97837 0.43437 0.0
C573 C 0.69107 0.95379 0.34193 0.0
C574 C 0.97449 0.69346 0.51421 0.0
C575 C 0.96574 0.70746 0.61339 0.0
C576 C 0.01008 0.71468 0.44991 0.0
C577 C 0.03764 0.75051 0.48273 0.0
H578 H 0.95299 0.66649 0.48352 0.0
H579 H 0.01571 0.7033 0.37325 0.0
S580 S 0.03224 0.79682 0.74801 0.0
N581 N -0.01062 0.75751 0.74826 0.0
N582 N 0.05692 0.79669 0.63078 0.0
C583 C 0.03024 0.76383 0.58553 0.0
C584 C -0.00597 0.74249 0.65 0.0
loop_
_geom_bond_atom_site_label_1
_geom_bond_atom_site_label_2
_geom_bond_distance
_geom_bond_site_symmetry_2
_ccdc_geom_bond_type
Zn0 O1 2.055 1_455 S
Zn0 O8 2.046 1_455 S
Zn0 N16 2.036 . S
Zn0 O28 2.053 . S
Zn0 O30 2.066 . S
O1 Zn0 2.055 1_655 S
O1 C4 1.259 . S
C2 O30 1.256 . S
C2 O31 1.244 . S
Zn3 O5 2.046 1_455 S
Zn3 O7 2.055 . S
Zn3 N9 2.036 . S
Zn3 O27 2.066 . S
Zn3 O31 2.053 1_556 S
C4 O1 1.259 . S
C4 O5 1.254 1_554 S
O5 Zn3 2.046 1_655 S
O5 C4 1.254 1_556 S
C6 O27 1.256 1_554 S
C6 O28 1.244 . S
O7 Zn3 2.055 . S
O7 C29 1.259 1_456 S
O8 Zn0 2.046 1_655 S
O8 C29 1.254 . S
N9 Zn3 2.036 . S
N9 C10 1.298 . S
N9 N12 1.398 . S
C10 N9 1.298 . S
C10 N13 1.367 . S
C10 C23 1.481 . S
C11 N12 1.299 . S
C11 N13 1.379 . S
N12 N9 1.398 . S
N12 C11 1.299 . S
N13 C10 1.367 . S
N13 C11 1.379 . S
C14 N16 1.298 . S
C14 N18 1.367 . S
C14 C22 1.481 1_455 S
C15 N17 1.299 . S
C15 N18 1.379 . S
N16 Zn0 2.036 . S
N16 C14 1.298 . S
N16 N17 1.398 . S
N17 C15 1.299 . S
N17 N16 1.398 . S
N18 C14 1.367 . S
N18 C15 1.379 . S
H19 C22 0.980 . S
H20 C22 0.981 . S
H21 C22 0.981 1_455 S
C22 C14 1.481 1_655 S
C22 H19 0.980 . S
C22 H20 0.981 . S
C22 H21 0.981 1_655 S
C23 C10 1.481 . S
C23 H24 0.980 . S
C23 H25 0.981 . S
C23 H26 0.981 . S
H24 C23 0.980 . S
H25 C23 0.981 . S
H26 C23 0.981 . S
O27 Zn3 2.066 . S
O27 C6 1.256 1_556 S
O28 Zn0 2.053 . S
O28 C6 1.244 . S
C29 O7 1.259 1_654 S
C29 O8 1.254 . S
O30 Zn0 2.066 . S
O30 C2 1.256 . S
O31 C2 1.244 . S
O31 Zn3 2.053 1_554 S
Zn32 O33 2.055 . S
Zn32 O40 2.046 . S
Zn32 N48 2.036 . S
Zn32 O60 2.053 . S
Zn32 O62 2.066 . S
O33 Zn32 2.055 . S
O33 C36 1.259 . S
C34 O62 1.256 . S
C34 O63 1.244 1_554 S
Zn35 O37 2.046 . S
Zn35 O39 2.055 . S
Zn35 N41 2.036 . S
Zn35 O59 2.066 . S
Zn35 O63 2.053 . S
C36 O33 1.259 . S
C36 O37 1.254 1_554 S
O37 Zn35 2.046 . S
O37 C36 1.254 1_556 S
C38 O59 1.256 . S
C38 O60 1.244 1_556 S
O39 Zn35 2.055 . S
O39 C61 1.259 1_556 S
O40 Zn32 2.046 . S
O40 C61 1.254 . S
N41 Zn35 2.036 . S
N41 C42 1.298 . S
N41 N44 1.398 . S
C42 N41 1.298 . S
C42 N45 1.367 . S
C42 C55 1.481 . S
C43 N44 1.299 . S
C43 N45 1.379 . S
N44 N41 1.398 . S
N44 C43 1.299 . S
N45 C42 1.367 . S
N45 C43 1.379 . S
C46 N48 1.298 . S
C46 N50 1.367 . S
C46 C54 1.481 . S
C47 N49 1.299 . S
C47 N50 1.379 . S
N48 Zn32 2.036 . S
N48 C46 1.298 . S
N48 N49 1.398 . S
N49 C47 1.299 . S
N49 N48 1.398 . S
N50 C46 1.367 . S
N50 C47 1.379 . S
H51 C54 0.980 . S
H52 C54 0.981 . S
H53 C54 0.981 . S
C54 C46 1.481 . S
C54 H51 0.980 . S
C54 H52 0.981 . S
C54 H53 0.981 . S
C55 C42 1.481 . S
C55 H56 0.980 . S
C55 H57 0.981 . S
C55 H58 0.981 . S
H56 C55 0.980 . S
H57 C55 0.981 . S
H58 C55 0.981 . S
O59 Zn35 2.066 . S
O59 C38 1.256 . S
O60 Zn32 2.053 . S
O60 C38 1.244 1_554 S
C61 O39 1.259 1_554 S
C61 O40 1.254 . S
O62 Zn32 2.066 . S
O62 C34 1.256 . S
O63 C34 1.244 1_556 S
O63 Zn35 2.053 . S
Zn64 O65 2.055 . S
Zn64 O72 2.046 . S
Zn64 N80 2.036 . S
Zn64 O92 2.053 1_545 S
Zn64 O94 2.066 1_545 S
O65 Zn64 2.055 . S
O65 C68 1.259 1_554 S
C66 O94 1.256 . S
C66 O95 1.244 1_554 S
Zn67 O69 2.046 . S
Zn67 O71 2.055 . S
Zn67 N73 2.036 1_545 S
Zn67 O91 2.066 1_545 S
Zn67 O95 2.053 1_545 S
C68 O65 1.259 1_556 S
C68 O69 1.254 . S
O69 Zn67 2.046 . S
O69 C68 1.254 . S
C70 O91 1.256 . S
C70 O92 1.244 1_556 S
O71 Zn67 2.055 . S
O71 C93 1.259 . S
O72 Zn64 2.046 . S
O72 C93 1.254 1_554 S
N73 Zn67 2.036 1_565 S
N73 C74 1.298 . S
N73 N76 1.398 . S
C74 N73 1.298 . S
C74 N77 1.367 . S
C74 C87 1.481 1_565 S
C75 N76 1.299 . S
C75 N77 1.379 . S
N76 N73 1.398 . S
N76 C75 1.299 . S
N77 C74 1.367 . S
N77 C75 1.379 . S
C78 N80 1.298 . S
C78 N82 1.367 . S
C78 C86 1.481 . S
C79 N81 1.299 . S
C79 N82 1.379 . S
N80 Zn64 2.036 . S
N80 C78 1.298 . S
N80 N81 1.398 . S
N81 C79 1.299 . S
N81 N80 1.398 . S
N82 C78 1.367 . S
N82 C79 1.379 . S
H83 C86 0.980 . S
H84 C86 0.981 . S
H85 C86 0.981 . S
C86 C78 1.481 . S
C86 H83 0.980 . S
C86 H84 0.981 . S
C86 H85 0.981 . S
C87 C74 1.481 1_545 S
C87 H88 0.980 . S
C87 H89 0.981 . S
C87 H90 0.981 1_545 S
H88 C87 0.980 . S
H89 C87 0.981 . S
H90 C87 0.981 1_565 S
O91 Zn67 2.066 1_565 S
O91 C70 1.256 . S
O92 Zn64 2.053 1_565 S
O92 C70 1.244 1_554 S
C93 O71 1.259 . S
C93 O72 1.254 1_556 S
O94 Zn64 2.066 1_565 S
O94 C66 1.256 . S
O95 C66 1.244 1_556 S
O95 Zn67 2.053 1_565 S
Zn96 O97 2.055 . S
Zn96 O104 2.046 . S
Zn96 N112 2.036 . S
Zn96 O124 2.053 . S
Zn96 O126 2.066 . S
O97 Zn96 2.055 . S
O97 C100 1.259 . S
C98 O126 1.256 . S
C98 O127 1.244 . S
Zn99 O101 2.046 . S
Zn99 O103 2.055 . S
Zn99 N105 2.036 . S
Zn99 O123 2.066 . S
Zn99 O127 2.053 . S
C100 O97 1.259 . S
C100 O101 1.254 . S
O101 Zn99 2.046 . S
O101 C100 1.254 . S
C102 O123 1.256 . S
C102 O124 1.244 . S
O103 Zn99 2.055 . S
O103 C125 1.259 1_554 S
O104 Zn96 2.046 . S
O104 C125 1.254 1_554 S
N105 Zn99 2.036 . S
N105 C106 1.298 . S
N105 N108 1.398 . S
C106 N105 1.298 . S
C106 N109 1.367 . S
C106 C119 1.481 1_554 S
C107 N108 1.299 . S
C107 N109 1.379 . S
N108 N105 1.398 . S
N108 C107 1.299 . S
N109 C106 1.367 . S
N109 C107 1.379 . S
C110 N112 1.298 . S
C110 N114 1.367 . S
C110 C118 1.481 . S
C111 N113 1.299 . S
C111 N114 1.379 . S
N112 Zn96 2.036 . S
N112 C110 1.298 . S
N112 N113 1.398 . S
N113 C111 1.299 . S
N113 N112 1.398 . S
N114 C110 1.367 . S
N114 C111 1.379 . S
H115 C118 0.980 . S
H116 C118 0.981 . S
H117 C118 0.981 . S
C118 C110 1.481 . S
C118 H115 0.980 . S
C118 H116 0.981 . S
C118 H117 0.981 . S
C119 C106 1.481 1_556 S
C119 H120 0.980 . S
C119 H121 0.981 . S
C119 H122 0.981 . S
H120 C119 0.980 . S
H121 C119 0.981 . S
H122 C119 0.981 . S
O123 Zn99 2.066 . S
O123 C102 1.256 . S
O124 Zn96 2.053 . S
O124 C102 1.244 . S
C125 O103 1.259 1_556 S
C125 O104 1.254 1_556 S
O126 Zn96 2.066 . S
O126 C98 1.256 . S
O127 C98 1.244 . S
O127 Zn99 2.053 . S
Zn128 O129 2.055 . S
Zn128 O136 2.046 . S
Zn128 N144 2.036 . S
Zn128 O156 2.053 . S
Zn128 O158 2.066 . S
O129 Zn128 2.055 . S
O129 C132 1.259 . S
C130 O158 1.256 . S
C130 O159 1.244 . S
Zn131 O133 2.046 . S
Zn131 O135 2.055 . S
Zn131 N137 2.036 . S
Zn131 O155 2.066 . S
Zn131 O159 2.053 . S
C132 O129 1.259 . S
C132 O133 1.254 . S
O133 Zn131 2.046 . S
O133 C132 1.254 . S
C134 O155 1.256 . S
C134 O156 1.244 . S
O135 Zn131 2.055 . S
O135 C157 1.259 . S
O136 Zn128 2.046 . S
O136 C157 1.254 . S
N137 Zn131 2.036 . S
N137 C138 1.298 . S
N137 N140 1.398 . S
C138 N137 1.298 . S
C138 N141 1.367 . S
C138 C151 1.481 . S
C139 N140 1.299 . S
C139 N141 1.379 . S
N140 N137 1.398 . S
N140 C139 1.299 . S
N141 C138 1.367 . S
N141 C139 1.379 . S
C142 N144 1.298 . S
C142 N146 1.367 . S
C142 C150 1.481 . S
C143 N145 1.299 . S
C143 N146 1.379 . S
N144 Zn128 2.036 . S
N144 C142 1.298 . S
N144 N145 1.398 . S
N145 C143 1.299 . S
N145 N144 1.398 . S
N146 C142 1.367 . S
N146 C143 1.379 . S
H147 C150 0.980 . S
H148 C150 0.981 . S
H149 C150 0.981 . S
C150 C142 1.481 . S
C150 H147 0.980 . S
C150 H148 0.981 . S
C150 H149 0.981 . S
C151 C138 1.481 . S
C151 H152 0.980 . S
C151 H153 0.976 1_554 S
C151 H154 0.981 . S
H152 C151 0.980 . S
H153 C151 0.976 1_556 S
H154 C151 0.981 . S
O155 Zn131 2.066 . S
O155 C134 1.256 . S
O156 Zn128 2.053 . S
O156 C134 1.244 . S
C157 O135 1.259 . S
C157 O136 1.254 . S
O158 Zn128 2.066 . S
O158 C130 1.256 . S
O159 C130 1.244 . S
O159 Zn131 2.053 . S
Zn160 O161 2.055 . S
Zn160 O168 2.046 . S
Zn160 N176 2.036 . S
Zn160 O188 2.053 . S
Zn160 O190 2.066 . S
O161 Zn160 2.055 . S
O161 C164 1.259 . S
C162 O190 1.256 . S
C162 O191 1.244 . S
Zn163 O165 2.046 . S
Zn163 O167 2.055 . S
Zn163 N169 2.036 . S
Zn163 O187 2.066 . S
Zn163 O191 2.053 . S
C164 O161 1.259 . S
C164 O165 1.254 . S
O165 Zn163 2.046 . S
O165 C164 1.254 . S
C166 O187 1.256 . S
C166 O188 1.244 . S
O167 Zn163 2.055 . S
O167 C189 1.259 . S
O168 Zn160 2.046 . S
O168 C189 1.254 . S
N169 Zn163 2.036 . S
N169 C170 1.298 . S
N169 N172 1.398 . S
C170 N169 1.298 . S
C170 N173 1.367 . S
C170 C183 1.481 . S
C171 N172 1.299 . S
C171 N173 1.379 . S
N172 N169 1.398 . S
N172 C171 1.299 . S
N173 C170 1.367 . S
N173 C171 1.379 . S
C174 N176 1.298 . S
C174 N178 1.367 1_455 S
C174 C182 1.481 . S
C175 N177 1.299 1_655 S
C175 N178 1.379 . S
N176 Zn160 2.036 . S
N176 C174 1.298 . S
N176 N177 1.398 . S
N177 C175 1.299 1_455 S
N177 N176 1.398 . S
N178 C174 1.367 1_655 S
N178 C175 1.379 . S
H179 C182 0.980 . S
H180 C182 0.981 . S
H181 C182 0.981 . S
C182 C174 1.481 . S
C182 H179 0.980 . S
C182 H180 0.981 . S
C182 H181 0.981 . S
C183 C170 1.481 . S
C183 H184 0.980 . S
C183 H185 0.981 . S
C183 H186 0.981 . S
H184 C183 0.980 . S
H185 C183 0.981 . S
H186 C183 0.981 . S
O187 Zn163 2.066 . S
O187 C166 1.256 . S
O188 Zn160 2.053 . S
O188 C166 1.244 . S
C189 O167 1.259 . S
C189 O168 1.254 . S
O190 Zn160 2.066 . S
O190 C162 1.256 . S
O191 C162 1.244 . S
O191 Zn163 2.053 . S
Zn192 O193 2.055 . S
Zn192 O200 2.046 . S
Zn192 N208 2.036 . S
Zn192 O220 2.053 . S
Zn192 O222 2.066 . S
O193 Zn192 2.055 . S
O193 C196 1.259 1_556 S
C194 O222 1.256 . S
C194 O223 1.244 . S
Zn195 O197 2.046 . S
Zn195 O199 2.055 . S
Zn195 N201 2.036 . S
Zn195 O219 2.066 . S
Zn195 O223 2.053 . S
C196 O193 1.259 1_554 S
C196 O197 1.254 1_554 S
O197 Zn195 2.046 . S
O197 C196 1.254 1_556 S
C198 O219 1.256 . S
C198 O220 1.244 . S
O199 Zn195 2.055 . S
O199 C221 1.259 . S
O200 Zn192 2.046 . S
O200 C221 1.254 . S
N201 Zn195 2.036 . S
N201 C202 1.298 . S
N201 N204 1.398 . S
C202 N201 1.298 . S
C202 N205 1.367 . S
C202 C215 1.481 . S
C203 N204 1.299 . S
C203 N205 1.379 . S
N204 N201 1.398 . S
N204 C203 1.299 . S
N205 C202 1.367 . S
N205 C203 1.379 . S
C206 N208 1.298 . S
C206 N210 1.367 . S
C206 C214 1.481 1_556 S
C207 N209 1.299 . S
C207 N210 1.379 . S
N208 Zn192 2.036 . S
N208 C206 1.298 . S
N208 N209 1.398 . S
N209 C207 1.299 . S
N209 N208 1.398 . S
N210 C206 1.367 . S
N210 C207 1.379 . S
H211 C214 0.980 . S
H212 C214 0.981 . S
H213 C214 0.981 . S
C214 C206 1.481 1_554 S
C214 H211 0.980 . S
C214 H212 0.981 . S
C214 H213 0.981 . S
C215 C202 1.481 . S
C215 H216 0.980 . S
C215 H217 0.981 . S
C215 H218 0.981 . S
H216 C215 0.980 . S
H217 C215 0.981 . S
H218 C215 0.981 . S
O219 Zn195 2.066 . S
O219 C198 1.256 . S
O220 Zn192 2.053 . S
O220 C198 1.244 . S
C221 O199 1.259 . S
C221 O200 1.254 . S
O222 Zn192 2.066 . S
O222 C194 1.256 . S
O223 C194 1.244 . S
O223 Zn195 2.053 . S
Zn224 O225 2.055 . S
Zn224 O232 2.046 . S
Zn224 N240 2.036 . S
Zn224 O252 2.053 . S
Zn224 O254 2.066 . S
O225 Zn224 2.055 . S
O225 C228 1.259 . S
C226 O254 1.256 . S
C226 O255 1.244 . S
Zn227 O229 2.046 . S
Zn227 O231 2.055 . S
Zn227 N233 2.036 . S
Zn227 O251 2.066 . S
Zn227 O255 2.053 . S
C228 O225 1.259 . S
C228 O229 1.254 . S
O229 Zn227 2.046 . S
O229 C228 1.254 . S
C230 O251 1.256 . S
C230 O252 1.244 . S
O231 Zn227 2.055 . S
O231 C253 1.259 . S
O232 Zn224 2.046 . S
O232 C253 1.254 . S
N233 Zn227 2.036 . S
N233 C234 1.298 . S
N233 N236 1.398 . S
C234 N233 1.298 . S
C234 N237 1.367 1_545 S
C234 C247 1.481 . S
C235 N236 1.299 1_565 S
C235 N237 1.379 . S
N236 N233 1.398 . S
N236 C235 1.299 1_545 S
N237 C234 1.367 1_565 S
N237 C235 1.379 . S
C238 N240 1.298 . S
C238 N242 1.367 . S
C238 C246 1.481 . S
C239 N241 1.299 . S
C239 N242 1.379 . S
N240 Zn224 2.036 . S
N240 C238 1.298 . S
N240 N241 1.398 . S
N241 C239 1.299 . S
N241 N240 1.398 . S
N242 C238 1.367 . S
N242 C239 1.379 . S
H243 C246 0.980 . S
H244 C246 0.981 . S
H245 C246 0.981 1_554 S
C246 C238 1.481 . S
C246 H243 0.980 . S
C246 H244 0.981 . S
C246 H245 0.981 1_556 S
C247 C234 1.481 . S
C247 H248 0.980 . S
C247 H249 0.981 . S
C247 H250 0.981 . S
H248 C247 0.980 . S
H249 C247 0.981 . S
H250 C247 0.981 . S
O251 Zn227 2.066 . S
O251 C230 1.256 . S
O252 Zn224 2.053 . S
O252 C230 1.244 . S
C253 O231 1.259 . S
C253 O232 1.254 . S
O254 Zn224 2.066 . S
O254 C226 1.256 . S
O255 C226 1.244 . S
O255 Zn227 2.053 . S
Zn256 O257 2.055 . S
Zn256 O264 2.046 . S
Zn256 N272 2.036 . S
Zn256 O284 2.053 . S
Zn256 O286 2.066 . S
O257 Zn256 2.055 . S
O257 C260 1.259 . S
C258 O286 1.256 . S
C258 O287 1.244 . S
Zn259 O261 2.046 . S
Zn259 O263 2.055 . S
Zn259 N265 2.036 . S
Zn259 O283 2.066 . S
Zn259 O287 2.053 . S
C260 O257 1.259 . S
C260 O261 1.254 . S
O261 Zn259 2.046 . S
O261 C260 1.254 . S
C262 O283 1.256 . S
C262 O284 1.244 . S
O263 Zn259 2.055 . S
O263 C285 1.259 . S
O264 Zn256 2.046 . S
O264 C285 1.254 . S
N265 Zn259 2.036 . S
N265 C266 1.298 . S
N265 N268 1.398 . S
C266 N265 1.298 . S
C266 N269 1.367 . S
C266 C279 1.481 . S
C267 N268 1.299 . S
C267 N269 1.379 . S
N268 N265 1.398 . S
N268 C267 1.299 . S
N269 C266 1.367 . S
N269 C267 1.379 . S
C270 N272 1.298 . S
C270 N274 1.367 . S
C270 C278 1.481 . S
C271 N273 1.299 . S
C271 N274 1.379 . S
N272 Zn256 2.036 . S
N272 C270 1.298 . S
N272 N273 1.398 . S
N273 C271 1.299 . S
N273 N272 1.398 . S
N274 C270 1.367 . S
N274 C271 1.379 . S
H275 C278 0.980 . S
H276 C278 0.981 . S
H277 C278 0.981 . S
C278 C270 1.481 . S
C278 H275 0.980 . S
C278 H276 0.981 . S
C278 H277 0.981 . S
C279 C266 1.481 . S
C279 H280 0.980 . S
C279 H281 0.981 . S
C279 H282 0.981 . S
H280 C279 0.980 . S
H281 C279 0.981 . S
H282 C279 0.981 . S
O283 Zn259 2.066 . S
O283 C262 1.256 . S
O284 Zn256 2.053 . S
O284 C262 1.244 . S
C285 O263 1.259 . S
C285 O264 1.254 . S
O286 Zn256 2.066 . S
O286 C258 1.256 . S
O287 C258 1.244 . S
O287 Zn259 2.053 . S
C288 C289 1.369 . S
C288 C290 1.419 . S
C288 H292 0.930 . S
C289 C288 1.369 . S
C289 C298 1.429 . S
C290 C288 1.419 . S
C290 C291 1.363 . S
C290 H293 0.929 . S
C291 C290 1.363 . S
C291 C297 1.428 . S
H292 C288 0.930 . S
H293 C290 0.929 . S
S294 N295 1.613 . S
S294 N296 1.610 . S
N295 S294 1.613 . S
N295 C298 1.350 . S
N296 S294 1.610 . S
N296 C297 1.351 . S
C297 C291 1.428 . S
C297 N296 1.351 . S
C297 C298 1.434 . S
C298 C289 1.429 . S
C298 N295 1.350 . S
C298 C297 1.434 . S
C299 C300 1.369 . S
C299 C301 1.419 . S
C299 H303 0.930 . S
C300 C299 1.369 . S
C300 C309 1.429 . S
C301 C299 1.419 . S
C301 C302 1.363 . S
C301 H304 0.929 . S
C302 C301 1.363 . S
C302 C308 1.428 . S
H303 C299 0.930 . S
H304 C301 0.929 . S
S305 N306 1.613 . S
S305 N307 1.610 . S
N306 S305 1.613 . S
N306 C309 1.350 . S
N307 S305 1.610 . S
N307 C308 1.351 . S
C308 C302 1.428 . S
C308 N307 1.351 . S
C308 C309 1.434 . S
C309 C300 1.429 . S
C309 N306 1.350 . S
C309 C308 1.434 . S
C310 C311 1.369 . S
C310 C312 1.419 1_565 S
C310 H314 0.930 . S
C311 C310 1.369 . S
C311 C320 1.429 . S
C312 C310 1.419 1_545 S
C312 C313 1.363 . S
C312 H315 0.929 . S
C313 C312 1.363 . S
C313 C319 1.428 . S
H314 C310 0.930 . S
H315 C312 0.929 . S
S316 N317 1.613 . S
S316 N318 1.610 1_565 S
N317 S316 1.613 . S
N317 C320 1.350 . S
N318 S316 1.610 1_545 S
N318 C319 1.351 . S
C319 C313 1.428 . S
C319 N318 1.351 . S
C319 C320 1.434 1_545 S
C320 C311 1.429 . S
C320 N317 1.350 . S
C320 C319 1.434 1_565 S
C321 C322 1.369 . S
C321 C323 1.419 . S
C321 H325 0.930 . S
C322 C321 1.369 . S
C322 C331 1.429 . S
C323 C321 1.419 . S
C323 C324 1.363 . S
C323 H326 0.929 . S
C324 C323 1.363 . S
C324 C330 1.428 . S
H325 C321 0.930 . S
H326 C323 0.929 . S
S327 N328 1.613 . S
S327 N329 1.610 . S
N328 S327 1.613 . S
N328 C331 1.350 . S
N329 S327 1.610 . S
N329 C330 1.351 . S
C330 C324 1.428 . S
C330 N329 1.351 . S
C330 C331 1.434 . S
C331 C322 1.429 . S
C331 N328 1.350 . S
C331 C330 1.434 . S
C332 C333 1.369 . S
C332 C334 1.419 . S
C332 H336 0.930 . S
C333 C332 1.369 . S
C333 C342 1.429 . S
C334 C332 1.419 . S
C334 C335 1.363 . S
C334 H337 0.929 . S
C335 C334 1.363 . S
C335 C341 1.428 . S
H336 C332 0.930 . S
H337 C334 0.929 . S
S338 N339 1.613 . S
S338 N340 1.610 . S
N339 S338 1.613 . S
N339 C342 1.350 . S
N340 S338 1.610 . S
N340 C341 1.351 . S
C341 C335 1.428 . S
C341 N340 1.351 . S
C341 C342 1.434 . S
C342 C333 1.429 . S
C342 N339 1.350 . S
C342 C341 1.434 . S
C343 C344 1.369 . S
C343 C345 1.419 . S
C343 H347 0.930 . S
C344 C343 1.369 . S
C344 C353 1.429 . S
C345 C343 1.419 . S
C345 C346 1.363 . S
C345 H348 0.929 . S
C346 C345 1.363 . S
C346 C352 1.428 . S
H347 C343 0.930 . S
H348 C345 0.929 . S
S349 N350 1.613 . S
S349 N351 1.610 . S
N350 S349 1.613 . S
N350 C353 1.350 . S
N351 S349 1.610 . S
N351 C352 1.351 . S
C352 C346 1.428 . S
C352 N351 1.351 . S
C352 C353 1.434 . S
C353 C344 1.429 . S
C353 N350 1.350 . S
C353 C352 1.434 . S
C354 C355 1.369 . S
C354 C356 1.419 . S
C354 H358 0.930 . S
C355 C354 1.369 . S
C355 C364 1.429 . S
C356 C354 1.419 . S
C356 C357 1.363 . S
C356 H359 0.929 . S
C357 C356 1.363 . S
C357 C363 1.428 . S
H358 C354 0.930 . S
H359 C356 0.929 . S
S360 N361 1.613 . S
S360 N362 1.610 . S
N361 S360 1.613 . S
N361 C364 1.350 . S
N362 S360 1.610 . S
N362 C363 1.351 . S
C363 C357 1.428 . S
C363 N362 1.351 . S
C363 C364 1.434 . S
C364 C355 1.429 . S
C364 N361 1.350 . S
C364 C363 1.434 . S
C365 C366 1.369 . S
C365 C367 1.419 . S
C365 H369 0.930 . S
C366 C365 1.369 . S
C366 C375 1.429 . S
C367 C365 1.419 . S
C367 C368 1.363 . S
C367 H370 0.929 . S
C368 C367 1.363 . S
C368 C374 1.428 . S
H369 C365 0.930 . S
H370 C367 0.929 . S
S371 N372 1.613 . S
S371 N373 1.610 . S
N372 S371 1.613 . S
N372 C375 1.350 . S
N373 S371 1.610 . S
N373 C374 1.351 . S
C374 C368 1.428 . S
C374 N373 1.351 . S
C374 C375 1.434 . S
C375 C366 1.429 . S
C375 N372 1.350 . S
C375 C374 1.434 . S
C376 C377 1.369 . S
C376 C378 1.419 . S
C376 H380 0.930 . S
C377 C376 1.369 . S
C377 C386 1.429 . S
C378 C376 1.419 . S
C378 C379 1.363 . S
C378 H381 0.929 . S
C379 C378 1.363 . S
C379 C385 1.428 . S
H380 C376 0.930 . S
H381 C378 0.929 . S
S382 N383 1.613 . S
S382 N384 1.610 . S
N383 S382 1.613 . S
N383 C386 1.350 . S
N384 S382 1.610 . S
N384 C385 1.351 . S
C385 C379 1.428 . S
C385 N384 1.351 . S
C385 C386 1.434 . S
C386 C377 1.429 . S
C386 N383 1.350 . S
C386 C385 1.434 . S
C387 C388 1.369 . S
C387 C389 1.419 . S
C387 H391 0.930 . S
C388 C387 1.369 . S
C388 C397 1.429 . S
C389 C387 1.419 . S
C389 C390 1.363 . S
C389 H392 0.929 . S
C390 C389 1.363 . S
C390 C396 1.428 . S
H391 C387 0.930 . S
H392 C389 0.929 . S
S393 N394 1.613 . S
S393 N395 1.610 . S
N394 S393 1.613 . S
N394 C397 1.350 . S
N395 S393 1.610 . S
N395 C396 1.351 . S
C396 C390 1.428 . S
C396 N395 1.351 . S
C396 C397 1.434 . S
C397 C388 1.429 . S
C397 N394 1.350 . S
C397 C396 1.434 . S
C398 C399 1.369 . S
C398 C400 1.419 . S
C398 H402 0.930 . S
C399 C398 1.369 . S
C399 C408 1.429 . S
C400 C398 1.419 . S
C400 C401 1.363 . S
C400 H403 0.929 . S
C401 C400 1.363 . S
C401 C407 1.428 . S
H402 C398 0.930 . S
H403 C400 0.929 . S
S404 N405 1.613 . S
S404 N406 1.610 . S
N405 S404 1.613 . S
N405 C408 1.350 . S
N406 S404 1.610 . S
N406 C407 1.351 . S
C407 C401 1.428 . S
C407 N406 1.351 . S
C407 C408 1.434 . S
C408 C399 1.429 . S
C408 N405 1.350 . S
C408 C407 1.434 . S
C409 C410 1.369 . S
C409 C411 1.419 . S
C409 H413 0.930 . S
C410 C409 1.369 . S
C410 C419 1.429 . S
C411 C409 1.419 . S
C411 C412 1.363 . S
C411 H414 0.929 . S
C412 C411 1.363 . S
C412 C418 1.428 . S
H413 C409 0.930 . S
H414 C411 0.929 . S
S415 N416 1.613 . S
S415 N417 1.610 . S
N416 S415 1.613 . S
N416 C419 1.350 . S
N417 S415 1.610 . S
N417 C418 1.351 . S
C418 C412 1.428 . S
C418 N417 1.351 . S
C418 C419 1.434 . S
C419 C410 1.429 . S
C419 N416 1.350 . S
C419 C418 1.434 . S
C420 C421 1.369 . S
C420 C422 1.419 . S
C420 H424 0.930 . S
C421 C420 1.369 . S
C421 C430 1.429 . S
C422 C420 1.419 . S
C422 C423 1.363 . S
C422 H425 0.929 . S
C423 C422 1.363 . S
C423 C429 1.428 . S
H424 C420 0.930 . S
H425 C422 0.929 . S
S426 N427 1.613 . S
S426 N428 1.610 . S
N427 S426 1.613 . S
N427 C430 1.350 . S
N428 S426 1.610 . S
N428 C429 1.351 . S
C429 C423 1.428 . S
C429 N428 1.351 . S
C429 C430 1.434 . S
C430 C421 1.429 . S
C430 N427 1.350 . S
C430 C429 1.434 . S
C431 C432 1.369 . S
C431 C433 1.419 . S
C431 H435 0.930 . S
C432 C431 1.369 . S
C432 C441 1.429 1_556 S
C433 C431 1.419 . S
C433 C434 1.363 1_556 S
C433 H436 0.929 . S
C434 C433 1.363 1_554 S
C434 C440 1.428 . S
H435 C431 0.930 . S
H436 C433 0.929 . S
S437 N438 1.613 . S
S437 N439 1.610 . S
N438 S437 1.613 . S
N438 C441 1.350 . S
N439 S437 1.610 . S
N439 C440 1.351 . S
C440 C434 1.428 . S
C440 N439 1.351 . S
C440 C441 1.434 . S
C441 C432 1.429 1_554 S
C441 N438 1.350 . S
C441 C440 1.434 . S
C442 C443 1.369 . S
C442 C444 1.419 . S
C442 H446 0.930 . S
C443 C442 1.369 . S
C443 C452 1.429 . S
C444 C442 1.419 . S
C444 C445 1.363 . S
C444 H447 0.929 1_556 S
C445 C444 1.363 . S
C445 C451 1.428 . S
H446 C442 0.930 . S
H447 C444 0.929 1_554 S
S448 N449 1.613 . S
S448 N450 1.610 . S
N449 S448 1.613 . S
N449 C452 1.350 . S
N450 S448 1.610 . S
N450 C451 1.351 . S
C451 C445 1.428 . S
C451 N450 1.351 . S
C451 C452 1.434 . S
C452 C443 1.429 . S
C452 N449 1.350 . S
C452 C451 1.434 . S
C453 C454 1.369 . S
C453 C455 1.419 . S
C453 H457 0.930 . S
C454 C453 1.369 . S
C454 C463 1.429 . S
C455 C453 1.419 . S
C455 C456 1.363 . S
C455 H458 0.929 1_556 S
C456 C455 1.363 . S
C456 C462 1.428 . S
H457 C453 0.930 . S
H458 C455 0.929 1_554 S
S459 N460 1.613 1_455 S
S459 N461 1.610 . S
N460 S459 1.613 1_655 S
N460 C463 1.350 . S
N461 S459 1.610 . S
N461 C462 1.351 1_455 S
C462 C456 1.428 . S
C462 N461 1.351 1_655 S
C462 C463 1.434 . S
C463 C454 1.429 . S
C463 N460 1.350 . S
C463 C462 1.434 . S
C464 C465 1.369 . S
C464 C466 1.419 . S
C464 H468 0.930 . S
C465 C464 1.369 . S
C465 C474 1.429 1_556 S
C466 C464 1.419 . S
C466 C467 1.363 . S
C466 H469 0.929 . S
C467 C466 1.363 . S
C467 C473 1.428 1_556 S
H468 C464 0.930 . S
H469 C466 0.929 . S
S470 N471 1.613 . S
S470 N472 1.610 . S
N471 S470 1.613 . S
N471 C474 1.350 . S
N472 S470 1.610 . S
N472 C473 1.351 . S
C473 C467 1.428 1_554 S
C473 N472 1.351 . S
C473 C474 1.434 . S
C474 C465 1.429 1_554 S
C474 N471 1.350 . S
C474 C473 1.434 . S
C475 C476 1.369 . S
C475 C477 1.419 . S
C475 H479 0.930 . S
C476 C475 1.369 . S
C476 C485 1.429 . S
C477 C475 1.419 . S
C477 C478 1.363 . S
C477 H480 0.929 . S
C478 C477 1.363 . S
C478 C484 1.428 . S
H479 C475 0.930 . S
H480 C477 0.929 . S
S481 N482 1.613 . S
S481 N483 1.610 . S
N482 S481 1.613 . S
N482 C485 1.350 . S
N483 S481 1.610 . S
N483 C484 1.351 . S
C484 C478 1.428 . S
C484 N483 1.351 . S
C484 C485 1.434 . S
C485 C476 1.429 . S
C485 N482 1.350 . S
C485 C484 1.434 . S
C486 C487 1.369 1_556 S
C486 C488 1.420 . S
C486 H490 0.930 . S
C487 C486 1.369 1_554 S
C487 C496 1.429 . S
C488 C486 1.420 . S
C488 C489 1.358 1_556 S
C488 H491 0.933 . S
C489 C488 1.358 1_554 S
C489 C495 1.428 . S
H490 C486 0.930 . S
H491 C488 0.933 . S
S492 N493 1.613 . S
S492 N494 1.610 . S
N493 S492 1.613 . S
N493 C496 1.350 . S
N494 S492 1.610 . S
N494 C495 1.351 . S
C495 C489 1.428 . S
C495 N494 1.351 . S
C495 C496 1.434 . S
C496 C487 1.429 . S
C496 N493 1.350 . S
C496 C495 1.434 . S
C497 C498 1.369 . S
C497 C499 1.419 . S
C497 H501 0.930 . S
C498 C497 1.369 . S
C498 C507 1.429 . S
C499 C497 1.419 . S
C499 C500 1.363 . S
C499 H502 0.929 . S
C500 C499 1.363 . S
C500 C506 1.428 . S
H501 C497 0.930 . S
H502 C499 0.929 . S
S503 N504 1.613 . S
S503 N505 1.610 . S
N504 S503 1.613 . S
N504 C507 1.350 . S
N505 S503 1.610 . S
N505 C506 1.351 . S
C506 C500 1.428 . S
C506 N505 1.351 . S
C506 C507 1.434 . S
C507 C498 1.429 . S
C507 N504 1.350 . S
C507 C506 1.434 . S
C508 C509 1.369 . S
C508 C510 1.419 . S
C508 H512 0.930 . S
C509 C508 1.369 . S
C509 C518 1.429 . S
C510 C508 1.419 . S
C510 C511 1.363 . S
C510 H513 0.929 . S
C511 C510 1.363 . S
C511 C517 1.428 . S
H512 C508 0.930 . S
H513 C510 0.929 . S
S514 N515 1.613 . S
S514 N516 1.610 . S
N515 S514 1.613 . S
N515 C518 1.350 . S
N516 S514 1.610 . S
N516 C517 1.351 . S
C517 C511 1.428 . S
C517 N516 1.351 . S
C517 C518 1.434 . S
C518 C509 1.429 . S
C518 N515 1.350 . S
C518 C517 1.434 . S
C519 C520 1.369 . S
C519 C521 1.419 . S
C519 H523 0.930 . S
C520 C519 1.369 . S
C520 C529 1.429 . S
C521 C519 1.419 . S
C521 C522 1.363 . S
C521 H524 0.929 . S
C522 C521 1.363 . S
C522 C528 1.428 . S
H523 C519 0.930 . S
H524 C521 0.929 . S
S525 N526 1.613 . S
S525 N527 1.610 . S
N526 S525 1.613 . S
N526 C529 1.350 . S
N527 S525 1.610 . S
N527 C528 1.351 . S
C528 C522 1.428 . S
C528 N527 1.351 . S
C528 C529 1.434 . S
C529 C520 1.429 . S
C529 N526 1.350 . S
C529 C528 1.434 . S
C530 C531 1.369 1_565 S
C530 C532 1.419 . S
C530 H534 0.930 . S
C531 C530 1.369 1_545 S
C531 C540 1.429 . S
C532 C530 1.419 . S
C532 C533 1.363 . S
C532 H535 0.929 . S
C533 C532 1.363 . S
C533 C539 1.428 1_565 S
H534 C530 0.930 . S
H535 C532 0.929 . S
S536 N537 1.613 . S
S536 N538 1.610 . S
N537 S536 1.613 . S
N537 C540 1.350 . S
N538 S536 1.610 . S
N538 C539 1.351 . S
C539 C533 1.428 1_545 S
C539 N538 1.351 . S
C539 C540 1.434 . S
C540 C531 1.429 . S
C540 N537 1.350 . S
C540 C539 1.434 . S
C541 C542 1.369 . S
C541 C543 1.419 . S
C541 H545 0.930 . S
C542 C541 1.369 . S
C542 C551 1.429 . S
C543 C541 1.419 . S
C543 C544 1.363 . S
C543 H546 0.929 . S
C544 C543 1.363 . S
C544 C550 1.428 . S
H545 C541 0.930 . S
H546 C543 0.929 . S
S547 N548 1.613 . S
S547 N549 1.610 . S
N548 S547 1.613 . S
N548 C551 1.350 . S
N549 S547 1.610 . S
N549 C550 1.351 . S
C550 C544 1.428 . S
C550 N549 1.351 . S
C550 C551 1.434 . S
C551 C542 1.429 . S
C551 N548 1.350 . S
C551 C550 1.434 . S
C552 C553 1.369 . S
C552 C554 1.419 . S
C552 H556 0.930 . S
C553 C552 1.369 . S
C553 C562 1.429 . S
C554 C552 1.419 . S
C554 C555 1.363 . S
C554 H557 0.929 . S
C555 C554 1.363 . S
C555 C561 1.428 . S
H556 C552 0.930 . S
H557 C554 0.929 . S
S558 N559 1.613 . S
S558 N560 1.610 . S
N559 S558 1.613 . S
N559 C562 1.350 . S
N560 S558 1.610 . S
N560 C561 1.351 . S
C561 C555 1.428 . S
C561 N560 1.351 . S
C561 C562 1.434 . S
C562 C553 1.429 . S
C562 N559 1.350 . S
C562 C561 1.434 . S
C563 C564 1.369 . S
C563 C565 1.419 . S
C563 H567 0.930 . S
C564 C563 1.369 . S
C564 C573 1.429 . S
C565 C563 1.419 . S
C565 C566 1.363 . S
C565 H568 0.929 . S
C566 C565 1.363 . S
C566 C572 1.428 . S
H567 C563 0.930 . S
H568 C565 0.929 . S
S569 N570 1.613 1_545 S
S569 N571 1.610 . S
N570 S569 1.613 1_565 S
N570 C573 1.350 . S
N571 S569 1.610 . S
N571 C572 1.351 1_545 S
C572 C566 1.428 . S
C572 N571 1.351 1_565 S
C572 C573 1.434 . S
C573 C564 1.429 . S
C573 N570 1.350 . S
C573 C572 1.434 . S
C574 C575 1.369 . S
C574 C576 1.419 . S
C574 H578 0.930 . S
C575 C574 1.369 . S
C575 C584 1.429 1_655 S
C576 C574 1.419 . S
C576 C577 1.363 1_655 S
C576 H579 0.929 . S
C577 C576 1.363 1_455 S
C577 C583 1.428 . S
H578 C574 0.930 . S
H579 C576 0.929 . S
S580 N581 1.613 . S
S580 N582 1.610 . S
N581 S580 1.613 . S
N581 C584 1.350 . S
N582 S580 1.610 . S
N582 C583 1.351 . S
C583 C577 1.428 . S
C583 N582 1.351 . S
C583 C584 1.434 . S
C584 C575 1.429 1_455 S
C584 N581 1.350 . S
C584 C583 1.434 . S
C289 N13 0.717 . S
C291 N18 0.739 . S
C300 N45 0.753 . S
C302 N50 0.800 . S
C311 N77 0.849 . S
C313 N82 0.793 . S
C322 C98 2.351 . S
C324 C125 2.370 . S
C333 C130 2.344 . S
C335 C157 2.362 1_556 S
C344 C162 2.335 . S
C346 C189 2.356 1_556 S
C355 C198 2.323 . S
C357 C196 2.339 . S
C366 C253 2.371 . S
C368 C226 2.352 1_554 S
C377 C262 2.372 . S
C379 C260 2.395 1_554 S
C388 C166 1.664 . S
C390 C2 1.634 . S
C399 C61 1.761 . S
C401 C102 1.703 . S
C410 C66 1.802 . S
C412 C134 1.781 . S
C421 C68 1.897 . S
C423 C194 1.867 . S
C432 N242 1.250 . S
C434 C4 1.359 . S
C443 C258 1.796 . S
C445 C38 1.836 . S
C454 N274 1.238 . S
C456 C29 1.294 1_556 S
C465 C34 1.357 1_556 S
C467 N210 1.277 . S
C476 C228 1.704 . S
C478 C93 1.686 . S
C487 C70 1.608 1_554 S
C489 N109 1.346 . S
C498 N141 1.307 . S
C500 C6 1.346 . S
C509 C36 1.505 . S
C511 N173 1.500 . S
C520 N269 0.785 . S
C522 N114 0.787 . S
C531 N205 0.991 . S
C533 N146 1.003 . S
C542 C230 1.190 . S
C544 N178 1.163 . S
C553 C221 1.567 . S
C555 C164 1.548 . S
C564 C100 1.398 . S
C566 N237 1.370 . S
C575 C285 1.239 . S
C577 C132 1.226 . S
