# Generated by pormake.
# Topology ukv, (4)-cn, num edge types: 1
# Building blocks:
#     Node 0, Type 0, BuildingBlock: GALJAG_clean_sbu_0, # of connection points: 4
#     Node 1, Type 0, BuildingBlock: GALJAG_clean_sbu_0, # of connection points: 4
#     Node 2, Type 0, BuildingBlock: GALJAG_clean_sbu_0, # of connection points: 4
#     Node 3, Type 0, BuildingBlock: GALJAG_clean_sbu_0, # of connection points: 4
#     Node 4, Type 0, BuildingBlock: GALJAG_clean_sbu_0, # of connection points: 4
#     Node 5, Type 0, BuildingBlock: GALJAG_clean_sbu_0, # of connection points: 4
#     Node 6, Type 0, BuildingBlock: GALJAG_clean_sbu_0, # of connection points: 4
#     Node 7, Type 0, BuildingBlock: GALJAG_clean_sbu_0, # of connection points: 4
#     Node 8, Type 0, BuildingBlock: GALJAG_clean_sbu_0, # of connection points: 4
#     Node 9, Type 0, BuildingBlock: GALJAG_clean_sbu_0, # of connection points: 4
#     Node 10, Type 0, BuildingBlock: GALJAG_clean_sbu_0, # of connection points: 4
#     Node 11, Type 0, BuildingBlock: GALJAG_clean_sbu_0, # of connection points: 4
#     Node 12, Type 0, BuildingBlock: GALJAG_clean_sbu_0, # of connection points: 4
#     Node 13, Type 0, BuildingBlock: GALJAG_clean_sbu_0, # of connection points: 4
#     Node 14, Type 0, BuildingBlock: GALJAG_clean_sbu_0, # of connection points: 4
#     Node 15, Type 0, BuildingBlock: GALJAG_clean_sbu_0, # of connection points: 4
#     Node 16, Type 0, BuildingBlock: GALJAG_clean_sbu_0, # of connection points: 4
#     Node 17, Type 0, BuildingBlock: GALJAG_clean_sbu_0, # of connection points: 4
#     Node 18, Type 0, BuildingBlock: GALJAG_clean_sbu_0, # of connection points: 4
#     Node 19, Type 0, BuildingBlock: GALJAG_clean_sbu_0, # of connection points: 4
#     Node 20, Type 0, BuildingBlock: GALJAG_clean_sbu_0, # of connection points: 4
#     Node 21, Type 0, BuildingBlock: GALJAG_clean_sbu_0, # of connection points: 4
#     Node 22, Type 0, BuildingBlock: GALJAG_clean_sbu_0, # of connection points: 4
#     Node 23, Type 0, BuildingBlock: GALJAG_clean_sbu_0, # of connection points: 4
#     Node 24, Type 0, BuildingBlock: GALJAG_clean_sbu_0, # of connection points: 4
#     Node 25, Type 0, BuildingBlock: GALJAG_clean_sbu_0, # of connection points: 4
#     Node 26, Type 0, BuildingBlock: GALJAG_clean_sbu_0, # of connection points: 4
#     Node 27, Type 0, BuildingBlock: GALJAG_clean_sbu_0, # of connection points: 4
#     Node 28, Type 0, BuildingBlock: GALJAG_clean_sbu_0, # of connection points: 4
#     Node 29, Type 0, BuildingBlock: GALJAG_clean_sbu_0, # of connection points: 4
#     Node 30, Type 0, BuildingBlock: GALJAG_clean_sbu_0, # of connection points: 4
#     Node 31, Type 0, BuildingBlock: GALJAG_clean_sbu_0, # of connection points: 4
#     Node 32, Type 0, BuildingBlock: GALJAG_clean_sbu_0, # of connection points: 4
#     Node 33, Type 0, BuildingBlock: GALJAG_clean_sbu_0, # of connection points: 4
#     Node 34, Type 0, BuildingBlock: GALJAG_clean_sbu_0, # of connection points: 4
#     Node 35, Type 0, BuildingBlock: GALJAG_clean_sbu_0, # of connection points: 4
#     Edge 36, Type (0, 0), BuildingBlock: AJUNOK_clean_linker_0, # of connection points: 2
#     Edge 37, Type (0, 0), BuildingBlock: AJUNOK_clean_linker_0, # of connection points: 2
#     Edge 38, Type (0, 0), BuildingBlock: AJUNOK_clean_linker_0, # of connection points: 2
#     Edge 39, Type (0, 0), BuildingBlock: AJUNOK_clean_linker_0, # of connection points: 2
#     Edge 40, Type (0, 0), BuildingBlock: AJUNOK_clean_linker_0, # of connection points: 2
#     Edge 41, Type (0, 0), BuildingBlock: AJUNOK_clean_linker_0, # of connection points: 2
#     Edge 42, Type (0, 0), BuildingBlock: AJUNOK_clean_linker_0, # of connection points: 2
#     Edge 43, Type (0, 0), BuildingBlock: AJUNOK_clean_linker_0, # of connection points: 2
#     Edge 44, Type (0, 0), BuildingBlock: AJUNOK_clean_linker_0, # of connection points: 2
#     Edge 45, Type (0, 0), BuildingBlock: AJUNOK_clean_linker_0, # of connection points: 2
#     Edge 46, Type (0, 0), BuildingBlock: AJUNOK_clean_linker_0, # of connection points: 2
#     Edge 47, Type (0, 0), BuildingBlock: AJUNOK_clean_linker_0, # of connection points: 2
#     Edge 48, Type (0, 0), BuildingBlock: AJUNOK_clean_linker_0, # of connection points: 2
#     Edge 49, Type (0, 0), BuildingBlock: AJUNOK_clean_linker_0, # of connection points: 2
#     Edge 50, Type (0, 0), BuildingBlock: AJUNOK_clean_linker_0, # of connection points: 2
#     Edge 51, Type (0, 0), BuildingBlock: AJUNOK_clean_linker_0, # of connection points: 2
#     Edge 52, Type (0, 0), BuildingBlock: AJUNOK_clean_linker_0, # of connection points: 2
#     Edge 53, Type (0, 0), BuildingBlock: AJUNOK_clean_linker_0, # of connection points: 2
#     Edge 54, Type (0, 0), BuildingBlock: AJUNOK_clean_linker_0, # of connection points: 2
#     Edge 55, Type (0, 0), BuildingBlock: AJUNOK_clean_linker_0, # of connection points: 2
#     Edge 56, Type (0, 0), BuildingBlock: AJUNOK_clean_linker_0, # of connection points: 2
#     Edge 57, Type (0, 0), BuildingBlock: AJUNOK_clean_linker_0, # of connection points: 2
#     Edge 58, Type (0, 0), BuildingBlock: AJUNOK_clean_linker_0, # of connection points: 2
#     Edge 59, Type (0, 0), BuildingBlock: AJUNOK_clean_linker_0, # of connection points: 2
#     Edge 60, Type (0, 0), BuildingBlock: AJUNOK_clean_linker_0, # of connection points: 2
#     Edge 61, Type (0, 0), BuildingBlock: AJUNOK_clean_linker_0, # of connection points: 2
#     Edge 62, Type (0, 0), BuildingBlock: AJUNOK_clean_linker_0, # of connection points: 2
#     Edge 63, Type (0, 0), BuildingBlock: AJUNOK_clean_linker_0, # of connection points: 2
#     Edge 64, Type (0, 0), BuildingBlock: AJUNOK_clean_linker_0, # of connection points: 2
#     Edge 65, Type (0, 0), BuildingBlock: AJUNOK_clean_linker_0, # of connection points: 2
#     Edge 66, Type (0, 0), BuildingBlock: AJUNOK_clean_linker_0, # of connection points: 2
#     Edge 67, Type (0, 0), BuildingBlock: AJUNOK_clean_linker_0, # of connection points: 2
#     Edge 68, Type (0, 0), BuildingBlock: AJUNOK_clean_linker_0, # of connection points: 2
#     Edge 69, Type (0, 0), BuildingBlock: AJUNOK_clean_linker_0, # of connection points: 2
#     Edge 70, Type (0, 0), BuildingBlock: AJUNOK_clean_linker_0, # of connection points: 2
#     Edge 71, Type (0, 0), BuildingBlock: AJUNOK_clean_linker_0, # of connection points: 2
#     Edge 72, Type (0, 0), BuildingBlock: AJUNOK_clean_linker_0, # of connection points: 2
#     Edge 73, Type (0, 0), BuildingBlock: AJUNOK_clean_linker_0, # of connection points: 2
#     Edge 74, Type (0, 0), BuildingBlock: AJUNOK_clean_linker_0, # of connection points: 2
#     Edge 75, Type (0, 0), BuildingBlock: AJUNOK_clean_linker_0, # of connection points: 2
#     Edge 76, Type (0, 0), BuildingBlock: AJUNOK_clean_linker_0, # of connection points: 2
#     Edge 77, Type (0, 0), BuildingBlock: AJUNOK_clean_linker_0, # of connection points: 2
#     Edge 78, Type (0, 0), BuildingBlock: AJUNOK_clean_linker_0, # of connection points: 2
#     Edge 79, Type (0, 0), BuildingBlock: AJUNOK_clean_linker_0, # of connection points: 2
#     Edge 80, Type (0, 0), BuildingBlock: AJUNOK_clean_linker_0, # of connection points: 2
#     Edge 81, Type (0, 0), BuildingBlock: AJUNOK_clean_linker_0, # of connection points: 2
#     Edge 82, Type (0, 0), BuildingBlock: AJUNOK_clean_linker_0, # of connection points: 2
#     Edge 83, Type (0, 0), BuildingBlock: AJUNOK_clean_linker_0, # of connection points: 2
#     Edge 84, Type (0, 0), BuildingBlock: AJUNOK_clean_linker_0, # of connection points: 2
#     Edge 85, Type (0, 0), BuildingBlock: AJUNOK_clean_linker_0, # of connection points: 2
#     Edge 86, Type (0, 0), BuildingBlock: AJUNOK_clean_linker_0, # of connection points: 2
#     Edge 87, Type (0, 0), BuildingBlock: AJUNOK_clean_linker_0, # of connection points: 2
#     Edge 88, Type (0, 0), BuildingBlock: AJUNOK_clean_linker_0, # of connection points: 2
#     Edge 89, Type (0, 0), BuildingBlock: AJUNOK_clean_linker_0, # of connection points: 2
#     Edge 90, Type (0, 0), BuildingBlock: AJUNOK_clean_linker_0, # of connection points: 2
#     Edge 91, Type (0, 0), BuildingBlock: AJUNOK_clean_linker_0, # of connection points: 2
#     Edge 92, Type (0, 0), BuildingBlock: AJUNOK_clean_linker_0, # of connection points: 2
#     Edge 93, Type (0, 0), BuildingBlock: AJUNOK_clean_linker_0, # of connection points: 2
#     Edge 94, Type (0, 0), BuildingBlock: AJUNOK_clean_linker_0, # of connection points: 2
#     Edge 95, Type (0, 0), BuildingBlock: AJUNOK_clean_linker_0, # of connection points: 2
#     Edge 96, Type (0, 0), BuildingBlock: AJUNOK_clean_linker_0, # of connection points: 2
#     Edge 97, Type (0, 0), BuildingBlock: AJUNOK_clean_linker_0, # of connection points: 2
#     Edge 98, Type (0, 0), BuildingBlock: AJUNOK_clean_linker_0, # of connection points: 2
#     Edge 99, Type (0, 0), BuildingBlock: AJUNOK_clean_linker_0, # of connection points: 2
#     Edge 100, Type (0, 0), BuildingBlock: AJUNOK_clean_linker_0, # of connection points: 2
#     Edge 101, Type (0, 0), BuildingBlock: AJUNOK_clean_linker_0, # of connection points: 2
#     Edge 102, Type (0, 0), BuildingBlock: AJUNOK_clean_linker_0, # of connection points: 2
#     Edge 103, Type (0, 0), BuildingBlock: AJUNOK_clean_linker_0, # of connection points: 2
#     Edge 104, Type (0, 0), BuildingBlock: AJUNOK_clean_linker_0, # of connection points: 2
#     Edge 105, Type (0, 0), BuildingBlock: AJUNOK_clean_linker_0, # of connection points: 2
#     Edge 106, Type (0, 0), BuildingBlock: AJUNOK_clean_linker_0, # of connection points: 2
#     Edge 107, Type (0, 0), BuildingBlock: AJUNOK_clean_linker_0, # of connection points: 2
# Relax obj value: 0.157
# Max RMSD: 0.129
# Mean RMSD: 0.129
data_MOF--net-ukv--node1-GALJAG_clean_sbu_0--edge1-AJUNOK_clean_linker_0
_symmetry_space_group_name_H-M    P1
_symmetry_Int_Tables_number       1
_symmetry_cell_setting            triclinic
loop_
_symmetry_equiv_pos_as_xyz
'x, y, z'
_cell_length_a     66.287498
_cell_length_b     66.225877
_cell_length_c     17.722947
_cell_angle_alpha  89.995959
_cell_angle_beta   89.983476
_cell_angle_gamma 120.06393
loop_
_atom_site_label
_atom_site_type_symbol
_atom_site_fract_x
_atom_site_fract_y
_atom_site_fract_z
_atom_type_partial_charge
In0 In 0.25621 0.07352 0.07141 0.0
O1 O 0.27384 0.09539 0.17464 0.0
O2 O 0.23891 0.08689 0.15072 0.0
C3 C 0.29212 0.07555 -0.00297 0.0
C4 C 0.23005 0.03116 0.13138 0.0
C5 C 0.25169 0.09843 0.96182 0.0
O6 O 0.29437 0.08417 0.06233 0.0
O7 O 0.27142 0.06395 0.97308 0.0
O8 O 0.23769 0.07664 0.96708 0.0
O9 O 0.2663 0.10733 0.01459 0.0
C10 C 0.25628 0.09692 0.19406 0.0
O11 O 0.22115 0.04087 0.0932 0.0
O12 O 0.25202 0.04192 0.13284 0.0
In13 In 0.91129 0.17344 0.06801 0.0
O14 O 0.88734 0.16674 0.16804 0.0
O15 O 0.89681 0.14117 0.1411 0.0
C16 C 0.91569 0.2106 0.9943 0.0
C17 C 0.9526 0.19062 0.13491 0.0
C18 C 0.88762 0.14719 0.95084 0.0
O19 O 0.90355 0.20292 0.05386 0.0
O20 O 0.92667 0.20035 0.9753 0.0
O21 O 0.90814 0.15132 0.96484 0.0
O22 O 0.879 0.15478 -0.00111 0.0
C23 C 0.88587 0.14743 0.18461 0.0
O24 O 0.94497 0.17302 0.0918 0.0
O25 O 0.93984 0.19965 0.14075 0.0
In26 In 0.81697 0.74145 0.08956 0.0
O27 O 0.8198 0.77658 0.11497 0.0
O28 O 0.79076 0.74558 0.15816 0.0
C29 C 0.84518 0.7465 0.97462 0.0
C30 C 0.84177 0.74102 0.20811 0.0
C31 C 0.78084 0.70619 0.01877 0.0
O32 O 0.83723 0.76024 0.98305 0.0
O33 O 0.83983 0.73153 0.02616 0.0
O34 O 0.78907 0.70334 0.07971 0.0
O35 O 0.78988 0.7271 -0.00322 0.0
C36 C 0.80175 0.76757 0.15599 0.0
O37 O 0.82215 0.72368 0.19128 0.0
O38 O 0.84888 0.75824 0.16415 0.0
In39 In 0.07462 0.2504 0.39901 0.0
O40 O 0.04036 0.21768 0.36839 0.0
O41 O 0.04802 0.25071 0.32293 0.0
C42 C 0.09625 0.24561 0.51751 0.0
C43 C 0.10171 0.25089 0.28693 0.0
C44 C 0.07215 0.28347 0.477 0.0
O45 O 0.07548 0.22997 0.50215 0.0
O46 O 0.10606 0.2618 0.46979 0.0
O47 O 0.08411 0.28799 0.41706 0.0
O48 O 0.05981 0.26204 0.49278 0.0
C49 C 0.03425 0.22897 0.32537 0.0
O50 O 0.10119 0.26895 0.30719 0.0
O51 O 0.08854 0.23257 0.3237 0.0
In52 In 0.76096 0.83746 0.46649 0.0
O53 O 0.78995 0.83212 0.41711 0.0
O54 O 0.75482 0.80804 0.38839 0.0
C55 C 0.77926 0.86223 0.59327 0.0
C56 C 0.76157 0.86701 0.36232 0.0
C57 C 0.72012 0.8067 0.52979 0.0
O58 O 0.77802 0.8428 0.58249 0.0
O59 O 0.77283 0.86969 0.53836 0.0
O60 O 0.72142 0.81946 0.47481 0.0
O61 O 0.73931 0.80899 0.55107 0.0
C62 C 0.77601 0.81459 0.37852 0.0
O63 O 0.74295 0.8513 0.39225 0.0
O64 O 0.78005 0.86826 0.38698 0.0
In65 In 0.16159 0.923 0.45131 0.0
O66 O 0.16728 0.95729 0.40039 0.0
O67 O 0.19002 0.94483 0.36851 0.0
C68 C 0.13559 0.91573 0.5753 0.0
C69 C 0.13176 0.8939 0.34822 0.0
C70 C 0.194 0.91619 0.51832 0.0
O71 O 0.1539 0.93503 0.5634 0.0
O72 O 0.12997 0.90094 0.52325 0.0
O73 O 0.18178 0.9037 0.46391 0.0
O74 O 0.1902 0.93233 0.53744 0.0
C75 C 0.18399 0.95989 0.35916 0.0
O76 O 0.14694 0.89046 0.37952 0.0
O77 O 0.13125 0.91172 0.371 0.0
In78 In 0.74915 0.92237 0.95013 0.0
O79 O 0.74242 0.89227 0.87298 0.0
O80 O 0.77778 0.91856 0.89564 0.0
C81 C 0.70967 0.91947 -0.00037 0.0
C82 C 0.76372 0.95868 0.85812 0.0
C83 C 0.75761 0.90932 0.08262 0.0
O84 O 0.70954 0.90534 0.95093 0.0
O85 O 0.72965 0.93565 0.0188 0.0
O86 O 0.77102 0.92973 0.05741 0.0
O87 O 0.74115 0.89589 0.03952 0.0
C88 C 0.76394 0.9001 0.86065 0.0
O89 O 0.7724 0.96088 0.92354 0.0
O90 O 0.74732 0.93855 0.84134 0.0
In91 In 0.07287 0.82804 0.93733 0.0
O92 O 0.10235 0.84964 0.85589 0.0
O93 O 0.0775 0.8605 0.87936 0.0
C94 C 0.07679 0.79239 0.9903 0.0
C95 C 0.03419 0.80515 0.85562 0.0
C96 C 0.0875 0.84991 0.06867 0.0
O97 O 0.08974 0.80534 0.93746 0.0
O98 O 0.06088 0.79637 0.01086 0.0
O99 O 0.06699 0.84333 0.04566 0.0
O100 O 0.10043 0.84692 0.0233 0.0
C101 C 0.0954 0.864 0.84323 0.0
O102 O 0.03418 0.81387 0.91934 0.0
O103 O 0.05352 0.80761 0.83469 0.0
In104 In 0.17702 0.25688 0.89775 0.0
O105 O 0.18148 0.22575 0.86908 0.0
O106 O 0.20293 0.2585 0.81421 0.0
C107 C 0.15095 0.25062 0.0187 0.0
C108 C 0.14775 0.25377 0.78908 0.0
C109 C 0.21354 0.2917 0.96751 0.0
O110 O 0.15664 0.23556 0.00081 0.0
O111 O 0.15708 0.2673 0.97309 0.0
O112 O 0.20421 0.29505 0.91 0.0
O113 O 0.20524 0.27059 0.98647 0.0
C114 C 0.19724 0.23733 0.82076 0.0
O115 O 0.16539 0.27296 0.80768 0.0
O116 O 0.14478 0.23623 0.82633 0.0
In117 In 0.91299 0.73242 0.59126 0.0
O118 O 0.88863 0.71806 0.69105 0.0
O119 O 0.90082 0.7534 0.65857 0.0
C120 C 0.91284 0.69572 0.52706 0.0
C121 C 0.95351 0.75531 0.66403 0.0
C122 C 0.89157 0.73943 0.47518 0.0
O123 O 0.90006 0.69366 0.58291 0.0
O124 O 0.92668 0.71647 0.5069 0.0
O125 O 0.91288 0.75351 0.48946 0.0
O126 O 0.88138 0.72271 0.521 0.0
C127 C 0.88895 0.73702 0.70426 0.0
O128 O 0.95006 0.76332 0.6035 0.0
O129 O 0.93727 0.73551 0.68389 0.0
In130 In 0.25825 0.17448 0.57018 0.0
O131 O 0.27568 0.16895 0.67149 0.0
O132 O 0.23954 0.1449 0.65273 0.0
C133 C 0.29187 0.20681 0.48443 0.0
C134 C 0.23717 0.19611 0.62829 0.0
C135 C 0.25243 0.1437 0.46468 0.0
O136 O 0.29603 0.20171 0.5494 0.0
O137 O 0.27061 0.19692 0.46594 0.0
O138 O 0.23778 0.15061 0.47236 0.0
O139 O 0.26826 0.15085 0.51393 0.0
C140 C 0.25729 0.15093 0.6935 0.0
O141 O 0.22572 0.17706 0.59268 0.0
O142 O 0.2589 0.20425 0.63125 0.0
In143 In 0.80825 0.07436 0.56999 0.0
O144 O 0.81748 0.10133 0.66153 0.0
O145 O 0.84071 0.08829 0.64157 0.0
C146 C 0.77026 0.06909 0.49939 0.0
C147 C 0.79252 0.03517 0.64931 0.0
C148 C 0.83618 0.09658 0.45328 0.0
O149 O 0.77914 0.08262 0.55533 0.0
O150 O 0.77961 0.05706 0.48338 0.0
O151 O 0.83102 0.07593 0.47052 0.0
O152 O 0.82796 0.10578 0.49668 0.0
C153 C 0.836 0.10146 0.68017 0.0
O154 O 0.80459 0.03862 0.59015 0.0
O155 O 0.78774 0.05087 0.66528 0.0
In156 In 0.91634 0.40683 0.37828 0.0
O157 O 0.93242 0.43542 0.46497 0.0
O158 O 0.8959 0.42013 0.44389 0.0
C159 C 0.95226 0.40472 0.31778 0.0
C160 C 0.89385 0.36744 0.45719 0.0
C161 C 0.91069 0.4264 0.25457 0.0
O162 O 0.9547 0.41763 0.3737 0.0
O163 O 0.93144 0.39148 0.29738 0.0
O164 O 0.89502 0.40619 0.27529 0.0
O165 O 0.92793 0.43649 0.29826 0.0
C166 C 0.91351 0.43481 0.48082 0.0
O167 O 0.88636 0.3695 0.39354 0.0
O168 O 0.91274 0.38473 0.47863 0.0
In169 In 0.57992 0.50897 0.41561 0.0
O170 O 0.61591 0.51309 0.43576 0.0
O171 O 0.60861 0.53901 0.47752 0.0
C172 C 0.55628 0.47936 0.30499 0.0
C173 C 0.55859 0.48362 0.53782 0.0
C174 C 0.57608 0.54167 0.34012 0.0
O175 O 0.57807 0.48744 0.3121 0.0
O176 O 0.54681 0.4848 0.35675 0.0
O177 O 0.56675 0.53455 0.40432 0.0
O178 O 0.58853 0.53343 0.317 0.0
C179 C 0.62289 0.53177 0.47296 0.0
O180 O 0.55789 0.50181 0.52048 0.0
O181 O 0.56978 0.47813 0.49262 0.0
In182 In 0.4831 0.0762 0.38237 0.0
O183 O 0.48226 0.10981 0.39915 0.0
O184 O 0.45214 0.07782 0.42853 0.0
C185 C 0.51372 0.08633 0.27165 0.0
C186 C 0.50775 0.08274 0.50808 0.0
C187 C 0.4542 0.03368 0.32653 0.0
O188 O 0.49996 0.09442 0.27198 0.0
O189 O 0.51232 0.07413 0.32821 0.0
O190 O 0.46339 0.03672 0.39107 0.0
O191 O 0.45854 0.05213 0.29205 0.0
C192 C 0.46243 0.09978 0.42993 0.0
O193 O 0.48732 0.06569 0.50018 0.0
O194 O 0.51595 0.09601 0.45174 0.0
In195 In 0.74493 0.59459 0.73805 0.0
O196 O 0.70956 0.5629 0.71009 0.0
O197 O 0.71905 0.59588 0.66024 0.0
C198 C 0.76618 0.58626 0.85144 0.0
C199 C 0.76976 0.59244 0.6229 0.0
C200 C 0.74425 0.62902 0.81473 0.0
O201 O 0.74457 0.57293 0.83905 0.0
O202 O 0.77663 0.60264 0.80463 0.0
O203 O 0.75621 0.63279 0.75513 0.0
O204 O 0.73167 0.60778 0.83241 0.0
C205 C 0.7043 0.57442 0.66505 0.0
O206 O 0.77151 0.6115 0.64445 0.0
O207 O 0.75567 0.57467 0.66026 0.0
In208 In 0.41613 0.15876 0.76213 0.0
O209 O 0.4452 0.15445 0.70957 0.0
O210 O 0.41045 0.13238 0.67176 0.0
C211 C 0.43451 0.18098 0.89265 0.0
C212 C 0.41788 0.19067 0.66573 0.0
C213 C 0.37534 0.12572 0.81969 0.0
O214 O 0.43384 0.16213 0.876 0.0
O215 O 0.42719 0.18905 0.84212 0.0
O216 O 0.37672 0.14085 0.77325 0.0
O217 O 0.3945 0.12702 0.83576 0.0
C218 C 0.43171 0.13886 0.66387 0.0
O219 O 0.39898 0.17492 0.69414 0.0
O220 O 0.43599 0.19077 0.68852 0.0
In221 In 0.84176 0.24452 0.71353 0.0
O222 O 0.83286 0.21784 0.62116 0.0
O223 O 0.80892 0.22987 0.64283 0.0
C224 C 0.87978 0.24902 0.78254 0.0
C225 C 0.85681 0.28462 0.63985 0.0
C226 C 0.81473 0.22253 0.832 0.0
O227 O 0.87092 0.23606 0.72539 0.0
O228 O 0.87062 0.2611 0.79996 0.0
O229 O 0.81951 0.24303 0.81441 0.0
O230 O 0.82258 0.21325 0.78754 0.0
C231 C 0.81394 0.21702 0.60375 0.0
O232 O 0.845 0.28027 0.69997 0.0
O233 O 0.86153 0.26922 0.61934 0.0
In234 In 0.41182 0.24601 0.24811 0.0
O235 O 0.40292 0.21492 0.17344 0.0
O236 O 0.43891 0.23925 0.19436 0.0
C237 C 0.37142 0.24246 0.29009 0.0
C238 C 0.42892 0.28417 0.1627 0.0
C239 C 0.41855 0.23387 0.38486 0.0
O240 O 0.3723 0.22869 0.24234 0.0
O241 O 0.39097 0.25886 0.3115 0.0
O242 O 0.43329 0.25341 0.35684 0.0
O243 O 0.402 0.22057 0.34213 0.0
C244 C 0.42399 0.22084 0.16146 0.0
O245 O 0.43609 0.28483 0.22944 0.0
O246 O 0.413 0.26449 0.14028 0.0
In247 In 0.74081 0.14425 0.21363 0.0
O248 O 0.70678 0.14282 0.181 0.0
O249 O 0.71648 0.12004 0.12685 0.0
C250 C 0.76267 0.16945 0.3346 0.0
C251 C 0.76809 0.17236 0.10445 0.0
C252 C 0.73443 0.10612 0.2851 0.0
O253 O 0.7425 0.16577 0.31705 0.0
O254 O 0.7718 0.16184 0.28849 0.0
O255 O 0.74802 0.11459 0.22895 0.0
O256 O 0.72301 0.11614 0.30167 0.0
C257 C 0.70221 0.12733 0.13112 0.0
O258 O 0.7675 0.15346 0.12119 0.0
O259 O 0.75553 0.17735 0.14506 0.0
In260 In 0.84137 0.58728 0.2386 0.0
O261 O 0.83533 0.6044 0.13739 0.0
O262 O 0.80943 0.56938 0.16458 0.0
C263 C 0.87664 0.6198 0.31873 0.0
C264 C 0.86037 0.56486 0.17198 0.0
C265 C 0.81427 0.58431 0.35298 0.0
O266 O 0.86981 0.62469 0.2581 0.0
O267 O 0.86692 0.59832 0.33463 0.0
O268 O 0.81867 0.568 0.34037 0.0
O269 O 0.82186 0.60044 0.30454 0.0
C270 C 0.81602 0.58658 0.12064 0.0
O271 O 0.84205 0.55386 0.21153 0.0
O272 O 0.86904 0.58669 0.16932 0.0
In273 In 0.5802 0.07666 0.8802 0.0
O274 O 0.56193 0.06391 0.99236 0.0
O275 O 0.57159 0.09843 0.95744 0.0
C276 C 0.56464 0.03423 0.82075 0.0
C277 C 0.62468 0.09571 0.92504 0.0
C278 C 0.56032 0.08914 0.77351 0.0
O279 O 0.56003 0.03718 0.88769 0.0
O280 O 0.57787 0.0527 0.78482 0.0
O281 O 0.58181 0.0955 0.77056 0.0
O282 O 0.54975 0.07758 0.83124 0.0
C283 C 0.56217 0.08272 0.00683 0.0
O284 O 0.61634 0.10809 0.90244 0.0
O285 O 0.61115 0.07406 0.91917 0.0
In286 In 0.91532 0.50519 0.87521 0.0
O287 O 0.93224 0.49377 0.96271 0.0
O288 O 0.8956 0.47226 0.94477 0.0
C289 C 0.94913 0.54197 0.80322 0.0
C290 C 0.89711 0.5251 0.96049 0.0
C291 C 0.90883 0.4802 0.75156 0.0
O292 O 0.95325 0.53258 0.859 0.0
O293 O 0.9278 0.53377 0.78769 0.0
O294 O 0.89371 0.48559 0.77149 0.0
O295 O 0.92548 0.48578 0.79688 0.0
C296 C 0.91338 0.47576 0.98168 0.0
O297 O 0.88467 0.50955 0.91253 0.0
O298 O 0.91832 0.53078 0.9619 0.0
In299 In 0.48003 0.4086 0.91428 0.0
O300 O 0.47522 0.37203 0.92376 0.0
O301 O 0.45559 0.38153 0.99629 0.0
C302 C 0.51148 0.43197 0.80711 0.0
C303 C 0.50502 0.43255 0.03427 0.0
C304 C 0.44649 0.4107 0.83624 0.0
O305 O 0.50333 0.41027 0.81662 0.0
O306 O 0.50468 0.44154 0.85427 0.0
O307 O 0.45338 0.42037 0.89989 0.0
O308 O 0.45502 0.39831 0.8157 0.0
C309 C 0.46092 0.36642 0.97783 0.0
O310 O 0.4868 0.43261 0.01324 0.0
O311 O 0.51077 0.42055 0.99375 0.0
In312 In 0.59371 0.75502 0.75365 0.0
O313 O 0.60703 0.77519 0.86292 0.0
O314 O 0.57261 0.76544 0.82733 0.0
C315 C 0.63323 0.76124 0.69209 0.0
C316 C 0.56985 0.71131 0.80638 0.0
C317 C 0.58777 0.77888 0.64285 0.0
O318 O 0.63273 0.7693 0.75638 0.0
O319 O 0.6136 0.74901 0.66095 0.0
O320 O 0.57606 0.75677 0.6451 0.0
O321 O 0.60127 0.78841 0.69801 0.0
C322 C 0.58833 0.77527 0.87647 0.0
O323 O 0.56004 0.72012 0.76834 0.0
O324 O 0.59166 0.72384 0.81183 0.0
In325 In 0.25487 0.85136 0.74562 0.0
O326 O 0.23514 0.84597 0.85523 0.0
O327 O 0.24207 0.81934 0.81952 0.0
C328 C 0.24663 0.88348 0.68457 0.0
C329 C 0.29839 0.87006 0.79922 0.0
C330 C 0.23355 0.82205 0.63119 0.0
O331 O 0.23878 0.87455 0.74859 0.0
O332 O 0.25995 0.87736 0.65396 0.0
O333 O 0.25558 0.83386 0.63525 0.0
O334 O 0.22285 0.82431 0.68644 0.0
C335 C 0.23336 0.8264 0.86892 0.0
O336 O 0.28837 0.85062 0.76585 0.0
O337 O 0.2872 0.88082 0.79956 0.0
In338 In 0.14929 0.39291 0.76611 0.0
O339 O 0.1543 0.37765 0.87413 0.0
O340 O 0.17947 0.4128 0.84564 0.0
C341 C 0.11455 0.35805 0.68982 0.0
C342 C 0.12841 0.4154 0.81935 0.0
C343 C 0.18031 0.39844 0.66051 0.0
O344 O 0.1225 0.35464 0.75056 0.0
O345 O 0.12365 0.37914 0.66972 0.0
O346 O 0.17316 0.41289 0.66794 0.0
O347 O 0.1725 0.38216 0.70844 0.0
C348 C 0.17267 0.39626 0.89235 0.0
O349 O 0.14655 0.42583 0.77879 0.0
O350 O 0.12098 0.39402 0.83041 0.0
In351 In 0.40373 0.90182 0.12138 0.0
O352 O 0.36707 0.87875 0.07546 0.0
O353 O 0.3877 0.91289 0.02953 0.0
C354 C 0.40563 0.8817 0.24974 0.0
C355 C 0.42584 0.88849 0.02507 0.0
C356 C 0.41738 0.94397 0.18062 0.0
O357 O 0.38772 0.88284 0.23238 0.0
O358 O 0.42175 0.88981 0.20147 0.0
O359 O 0.42836 0.94127 0.12672 0.0
O360 O 0.3995 0.92563 0.20266 0.0
C361 C 0.3689 0.89365 0.02719 0.0
O362 O 0.43566 0.90889 0.05269 0.0
O363 O 0.40536 0.87496 0.04806 0.0
In364 In 0.06449 0.48157 0.04111 0.0
O365 O 0.09719 0.47917 0.0176 0.0
O366 O 0.06432 0.45294 0.97445 0.0
C367 C 0.07225 0.51221 0.15088 0.0
C368 C 0.06393 0.50519 0.91928 0.0
C369 C 0.03018 0.44652 0.11883 0.0
O370 O 0.08577 0.50406 0.1409 0.0
O371 O 0.05609 0.50578 0.10306 0.0
O372 O 0.02661 0.45363 0.05663 0.0
O373 O 0.05118 0.45663 0.14017 0.0
C374 C 0.08591 0.46063 0.97938 0.0
O375 O 0.04578 0.48763 0.94463 0.0
O376 O 0.08233 0.5109 0.95618 0.0
In377 In 0.50477 0.59539 0.10085 0.0
O378 O 0.50867 0.62972 0.05726 0.0
O379 O 0.53361 0.62036 0.0233 0.0
C380 C 0.48076 0.58752 0.22999 0.0
C381 C 0.47588 0.56744 0.99384 0.0
C382 C 0.53501 0.58381 0.15904 0.0
O383 O 0.50041 0.60552 0.22044 0.0
O384 O 0.4726 0.57466 0.17282 0.0
O385 O 0.52028 0.5717 0.10907 0.0
O386 O 0.53499 0.60219 0.17767 0.0
C387 C 0.5262 0.63444 0.01695 0.0
O388 O 0.49309 0.56596 0.01755 0.0
O389 O 0.47284 0.58273 0.02603 0.0
In390 In 0.0623 0.58123 0.53797 0.0
O391 O 0.09421 0.61795 0.53592 0.0
O392 O 0.06879 0.6075 0.44797 0.0
C393 C 0.06546 0.55654 0.65172 0.0
C394 C 0.06614 0.55782 0.42167 0.0
C395 C 0.02631 0.58268 0.60126 0.0
O396 O 0.0815 0.57735 0.63922 0.0
O397 O 0.04899 0.54833 0.60463 0.0
O398 O 0.02402 0.57072 0.54289 0.0
O399 O 0.04704 0.59515 0.62392 0.0
C400 C 0.0881 0.62292 0.47412 0.0
O401 O 0.04789 0.55889 0.43403 0.0
O402 O 0.08219 0.56793 0.4699 0.0
In403 In 0.41486 0.497 0.58916 0.0
O404 O 0.44521 0.5172 0.50904 0.0
O405 O 0.4204 0.5286 0.52361 0.0
C406 C 0.4161 0.46028 0.64608 0.0
C407 C 0.37681 0.4741 0.50511 0.0
C408 C 0.43057 0.52077 0.71701 0.0
O409 O 0.42934 0.47235 0.5924 0.0
O410 O 0.40172 0.46628 0.66821 0.0
O411 O 0.40958 0.51302 0.69674 0.0
O412 O 0.44313 0.51736 0.6712 0.0
C413 C 0.43872 0.53164 0.49155 0.0
O414 O 0.37755 0.48684 0.55979 0.0
O415 O 0.39498 0.47279 0.49492 0.0
In416 In 0.4868 0.90081 0.62125 0.0
O417 O 0.46174 0.90763 0.55313 0.0
O418 O 0.45865 0.87397 0.54664 0.0
C419 C 0.51405 0.94362 0.67811 0.0
C420 C 0.51405 0.89276 0.52907 0.0
C421 C 0.4654 0.88087 0.75094 0.0
O422 O 0.50016 0.94004 0.62407 0.0
O423 O 0.5145 0.92586 0.70123 0.0
O424 O 0.48513 0.88348 0.73464 0.0
O425 O 0.45634 0.88723 0.70068 0.0
C426 C 0.45146 0.88738 0.52448 0.0
O427 O 0.5007 0.87781 0.57677 0.0
O428 O 0.51442 0.91195 0.53092 0.0
In429 In 0.25219 0.39958 0.26423 0.0
O430 O 0.28502 0.4347 0.28377 0.0
O431 O 0.28446 0.40357 0.31899 0.0
C432 C 0.22543 0.40444 0.16183 0.0
C433 C 0.23051 0.39843 0.39268 0.0
C434 C 0.25303 0.36663 0.17972 0.0
O435 O 0.24707 0.41902 0.16672 0.0
O436 O 0.21758 0.38853 0.21098 0.0
O437 O 0.24278 0.36203 0.24311 0.0
O438 O 0.26405 0.388 0.16234 0.0
C439 C 0.2955 0.42555 0.31608 0.0
O440 O 0.23244 0.38125 0.37093 0.0
O441 O 0.23924 0.41579 0.34892 0.0
In442 In 0.58914 0.8529 0.25076 0.0
O443 O 0.55415 0.85044 0.27312 0.0
O444 O 0.58498 0.88149 0.30532 0.0
C445 C 0.58137 0.82169 0.14316 0.0
C446 C 0.58943 0.83038 0.37601 0.0
C447 C 0.6264 0.88581 0.17669 0.0
O448 O 0.56952 0.83187 0.14701 0.0
O449 O 0.59599 0.82655 0.19553 0.0
O450 O 0.62776 0.87932 0.24272 0.0
O451 O 0.606 0.87679 0.15027 0.0
C452 C 0.56303 0.86997 0.30591 0.0
O453 O 0.60638 0.8501 0.35797 0.0
O454 O 0.57267 0.822 0.33005 0.0
In455 In 0.15428 0.75164 0.24626 0.0
O456 O 0.14724 0.71414 0.25149 0.0
O457 O 0.13217 0.72584 0.33494 0.0
C458 C 0.18476 0.7748 0.13664 0.0
C459 C 0.18142 0.77521 0.36256 0.0
C460 C 0.11903 0.75288 0.17619 0.0
O461 O 0.17731 0.75328 0.14808 0.0
O462 O 0.17746 0.78429 0.18239 0.0
O463 O 0.12732 0.76322 0.23812 0.0
O464 O 0.12766 0.74092 0.15212 0.0
C465 C 0.13512 0.70961 0.31095 0.0
O466 O 0.16274 0.77519 0.34747 0.0
O467 O 0.1866 0.76365 0.3178 0.0
C468 C 0.21614 0.98239 0.26836 0.0
C469 C 0.19486 0.97793 0.30016 0.0
C470 C 0.22678 -0.00117 0.21087 0.0
C471 C 0.2164 0.01121 0.18209 0.0
H472 H 0.2249 0.97336 0.2888 0.0
H473 H 0.24355 0.0022 0.18985 0.0
S474 S 0.16006 0.00515 0.24315 0.0
N475 N 0.16327 0.98658 0.29688 0.0
N476 N 0.18325 0.01747 0.18796 0.0
C477 C 0.19475 0.00645 0.21164 0.0
C478 C 0.18402 0.98987 0.2711 0.0
C479 C 0.98506 0.22304 0.20362 0.0
C480 C 0.97412 0.19972 0.17948 0.0
C481 C 0.00429 0.23208 0.25154 0.0
C482 C 0.01314 0.21808 0.27824 0.0
H483 H 0.97867 0.23445 0.18549 0.0
H484 H 0.01219 0.25022 0.2682 0.0
S485 S 0.99074 0.15581 0.23185 0.0
N486 N 0.97346 0.16271 0.18517 0.0
N487 N 0.00973 0.17976 0.27667 0.0
C488 C 0.0024 0.19468 0.25474 0.0
C489 C 0.9829 0.18551 0.20473 0.0
C490 C 0.76689 0.78139 0.2931 0.0
C491 C 0.78342 0.80336 0.32165 0.0
C492 C 0.77282 0.77044 0.23711 0.0
C493 C 0.79541 0.78117 0.20663 0.0
H494 H 0.74922 0.77239 0.31475 0.0
H495 H 0.75963 0.75325 0.21832 0.0
S496 S 0.84492 0.83912 0.25964 0.0
N497 N 0.82321 0.83583 0.3139 0.0
N498 N 0.83435 0.81524 0.20776 0.0
C499 C 0.81202 0.8034 0.23321 0.0
C500 C 0.80604 0.81447 0.29116 0.0
C501 C 0.77875 0.00056 0.82987 0.0
C502 C 0.77206 0.97805 0.8042 0.0
C503 C 0.78526 0.01889 0.77877 0.0
C504 C 0.78594 0.01542 0.70065 0.0
H505 H 0.77832 0.00387 0.88956 0.0
H506 H 0.78993 0.03597 0.80066 0.0
S507 S 0.77143 0.95998 0.60566 0.0
N508 N 0.76705 0.95326 0.69623 0.0
N509 N 0.78028 0.98811 0.60029 0.0
C510 C 0.78006 0.99318 0.67447 0.0
C511 C 0.77282 0.97435 0.72633 0.0
C512 C 0.01574 0.79371 0.72876 0.0
C513 C 0.01333 0.79313 0.80783 0.0
C514 C -0.00378 0.78194 0.68178 0.0
C515 C 0.97386 0.7687 0.71274 0.0
H516 H 0.03282 0.80343 0.70301 0.0
H517 H -0.0013 0.78269 0.6212 0.0
S518 S 0.95814 0.76226 0.91576 0.0
N519 N 0.98678 0.7791 0.91462 0.0
N520 N 0.95015 0.75632 0.82655 0.0
C521 C 0.97119 0.76818 0.79156 0.0
C522 C 0.99094 0.7806 0.83915 0.0
C523 C 0.20429 0.19316 0.70507 0.0
C524 C 0.22619 0.20703 0.67117 0.0
C525 C 0.19517 0.20297 0.75514 0.0
C526 C 0.20753 0.22696 0.77163 0.0
H527 H 0.19451 0.17454 0.69487 0.0
H528 H 0.17828 0.19174 0.78051 0.0
S529 S 0.26523 0.27077 0.69481 0.0
N530 N 0.25975 0.24588 0.65597 0.0
N531 N 0.24253 0.26438 0.7489 0.0
C532 C 0.22922 0.24103 0.7367 0.0
C533 C 0.23857 0.23103 0.68667 0.0
C534 C 0.86491 0.30433 0.51544 0.0
C535 C 0.86417 0.30573 0.59455 0.0
C536 C 0.87336 0.32433 0.4705 0.0
C537 C 0.88195 0.34635 0.50366 0.0
H538 H 0.85912 0.28767 0.48815 0.0
H539 H 0.87417 0.32269 0.4099 0.0
S540 S 0.8828 0.35922 0.70762 0.0
N541 N 0.87145 0.33062 0.70374 0.0
N542 N 0.88829 0.36846 0.61937 0.0
C543 C 0.88079 0.34793 0.58245 0.0
C544 C 0.87161 0.32751 0.62801 0.0
C545 C 0.65394 0.52986 0.54684 0.0
C546 C 0.64481 0.54316 0.516 0.0
C547 C 0.67287 0.53992 0.59693 0.0
C548 C 0.68343 0.56364 0.61663 0.0
H549 H 0.64597 0.51143 0.53414 0.0
H550 H 0.67942 0.52912 0.61968 0.0
S551 S 0.66639 0.60604 0.54896 0.0
N552 N 0.6479 0.58125 0.50742 0.0
N553 N 0.6836 0.60021 0.6004 0.0
C554 C 0.67467 0.57717 0.58496 0.0
C555 C 0.65533 0.56691 0.53485 0.0
C556 C 0.42403 0.10928 0.56471 0.0
C557 C 0.43995 0.12997 0.60188 0.0
C558 C 0.43116 0.10038 0.50541 0.0
C559 C 0.45439 0.11205 0.48022 0.0
H560 H 0.40599 0.09954 0.58269 0.0
H561 H 0.41854 0.08384 0.48065 0.0
S562 S 0.50247 0.16796 0.55466 0.0
N563 N 0.47966 0.16266 0.60665 0.0
N564 N 0.49308 0.14608 0.49439 0.0
C565 C 0.47027 0.13334 0.51462 0.0
C566 C 0.46307 0.14222 0.57587 0.0
C567 C 0.44282 0.32633 0.14642 0.0
C568 C 0.43788 0.30495 0.11466 0.0
C569 C 0.44992 0.34601 0.10098 0.0
C570 C 0.45296 0.3451 0.02272 0.0
H571 H 0.44063 0.32771 0.20644 0.0
H572 H 0.45335 0.36217 0.12753 0.0
S573 S 0.44339 0.29342 0.91314 0.0
N574 N 0.4368 0.2839 0.00088 0.0
N575 N 0.45119 0.32135 0.91572 0.0
C576 C 0.44868 0.32398 0.99055 0.0
C577 C 0.44082 0.30374 0.03655 0.0
C578 C 0.67188 0.13263 0.06491 0.0
C579 C 0.68275 0.11934 0.07717 0.0
C580 C 0.65404 0.12571 0.0114 0.0
C581 C 0.64633 0.10514 0.96917 0.0
H582 H 0.67718 0.14847 0.09677 0.0
H583 H 0.64559 0.13602 0.00538 0.0
S584 S 0.66972 0.06474 0.97762 0.0
N585 N 0.68507 0.0851 0.04056 0.0
N586 N 0.65143 0.07209 0.94085 0.0
C587 C 0.65741 0.09202 0.97966 0.0
C588 C 0.67563 0.09911 0.03354 0.0
C589 C 0.85516 0.53235 0.08795 0.0
C590 C 0.87001 0.55344 0.12506 0.0
C591 C 0.8639 0.52341 0.03321 0.0
C592 C 0.88777 0.53516 0.01496 0.0
H593 H 0.83659 0.5232 0.09916 0.0
H594 H 0.85194 0.50718 0.00536 0.0
S595 S 0.93388 0.59049 0.09962 0.0
N596 N 0.90962 0.58541 0.14203 0.0
N597 N 0.92614 0.56864 0.0402 0.0
C598 C 0.9028 0.55598 0.05332 0.0
C599 C 0.89389 0.5651 0.10822 0.0
C600 C 0.56885 0.67877 0.87888 0.0
C601 C 0.55703 0.69001 0.85229 0.0
C602 C 0.55869 0.66088 0.93225 0.0
C603 C 0.53647 0.65379 0.96208 0.0
H604 H 0.58632 0.68416 0.85938 0.0
H605 H 0.56853 0.6528 0.95119 0.0
S606 S 0.49787 0.6771 0.9092 0.0
N607 N 0.52158 0.69233 0.85781 0.0
N608 N 0.50251 0.65874 0.95908 0.0
C609 C 0.52423 0.66456 0.93504 0.0
C610 C 0.53447 0.68261 0.87969 0.0
C611 C 0.33772 0.86519 0.94238 0.0
C612 C 0.35153 0.8883 0.96737 0.0
C613 C 0.32166 0.85969 0.88373 0.0
C614 C 0.31857 0.87706 0.84913 0.0
H615 H 0.33937 0.85124 0.96813 0.0
H616 H 0.31089 0.84154 0.86777 0.0
S617 S 0.35115 0.94035 0.89193 0.0
N618 N 0.36192 0.92884 0.9509 0.0
N619 N 0.33113 0.91835 0.8421 0.0
C620 C 0.3326 0.90029 0.87254 0.0
C621 C 0.34925 0.90595 0.93134 0.0
C622 C 0.13034 0.45095 0.87551 0.0
C623 C 0.11725 0.4272 0.85608 0.0
C624 C 0.12032 0.46166 0.91747 0.0
C625 C 0.09684 0.449 0.94 0.0
H626 H 0.14855 0.46114 0.8598 0.0
H627 H 0.1309 0.47999 0.9314 0.0
S628 S 0.05509 0.38649 0.90179 0.0
N629 N 0.07963 0.39147 0.86167 0.0
N630 N 0.06078 0.41156 0.93961 0.0
C631 C 0.08356 0.42533 0.92012 0.0
C632 C 0.09377 0.41443 0.87829 0.0
C633 C 0.11219 0.66618 0.47109 0.0
C634 C 0.10239 0.64478 0.43313 0.0
C635 C 0.1232 0.68718 0.43071 0.0
C636 C 0.1253 0.68733 0.35159 0.0
H637 H 0.11042 0.66669 0.53173 0.0
H638 H 0.12987 0.70341 0.46156 0.0
S639 S 0.10433 0.63571 0.22739 0.0
N640 N 0.09642 0.62476 0.31314 0.0
N641 N 0.11797 0.66435 0.23753 0.0
C642 C 0.11664 0.66604 0.31358 0.0
C643 C 0.10491 0.64468 0.3544 0.0
C644 C 0.34134 0.47074 0.44408 0.0
C645 C 0.35657 0.462 0.4547 0.0
C646 C 0.32225 0.45961 0.39509 0.0
C647 C 0.31761 0.43917 0.35662 0.0
H648 H 0.3442 0.48628 0.47366 0.0
H649 H 0.31054 0.46649 0.38973 0.0
S650 S 0.35254 0.40966 0.36351 0.0
N651 N 0.36619 0.4322 0.4208 0.0
N652 N 0.32997 0.411 0.33037 0.0
C653 C 0.33289 0.43049 0.36587 0.0
C654 C 0.35249 0.44199 0.41457 0.0
C655 C 0.51794 0.86439 0.44702 0.0
C656 C 0.52659 0.88754 0.47063 0.0
C657 C 0.52902 0.85903 0.38967 0.0
C658 C 0.54938 0.8766 0.35502 0.0
H659 H 0.50245 0.8503 0.47282 0.0
H660 H 0.52214 0.84088 0.37469 0.0
S661 S 0.57852 0.94004 0.39449 0.0
N662 N 0.55607 0.9283 0.45285 0.0
N663 N 0.57731 0.91809 0.34647 0.0
C664 C 0.55795 0.89985 0.3771 0.0
C665 C 0.54644 0.90536 0.43459 0.0
C666 C 0.23504 0.11829 0.78415 0.0
C667 C 0.25631 0.13783 0.76208 0.0
C668 C 0.23353 0.10556 0.84914 0.0
C669 C 0.25315 0.11218 0.89473 0.0
H670 H 0.21941 0.11271 0.75097 0.0
H671 H 0.21689 0.09058 0.86404 0.0
S672 S 0.31327 0.16084 0.85903 0.0
N673 N 0.29766 0.16236 0.78909 0.0
N674 N 0.29477 0.13867 0.91156 0.0
C675 C 0.27457 0.13151 0.87298 0.0
C676 C 0.27617 0.14429 0.80652 0.0
C677 C 0.86714 0.10976 0.77481 0.0
C678 C 0.85017 0.11456 0.74593 0.0
C679 C 0.87952 0.12057 0.84081 0.0
C680 C 0.87515 0.13634 0.88032 0.0
H681 H 0.87057 0.09719 0.74721 0.0
H682 H 0.89217 0.11616 0.8619 0.0
S683 S 0.83482 0.15723 0.82294 0.0
N684 N 0.83128 0.1378 0.75823 0.0
N685 N 0.8544 0.15801 0.88219 0.0
C686 C 0.85889 0.14196 0.8505 0.0
C687 C 0.84642 0.13109 0.78327 0.0
C688 C 0.87101 0.72394 0.83064 0.0
C689 C 0.87779 0.7402 0.77166 0.0
C690 C 0.86118 0.72669 0.89666 0.0
C691 C 0.85746 0.74568 0.9062 0.0
H692 H 0.87348 0.709 0.82624 0.0
H693 H 0.85612 0.7135 0.94008 0.0
S694 S 0.8722 0.79323 0.76841 0.0
N695 N 0.88038 0.77617 0.72681 0.0
N696 N 0.86142 0.78112 0.85113 0.0
C697 C 0.8642 0.76216 0.84779 0.0
C698 C 0.87449 0.75947 0.78047 0.0
C699 C 0.11788 0.22959 0.69242 0.0
C700 C 0.13274 0.25165 0.7247 0.0
C701 C 0.10536 0.22743 0.6262 0.0
C702 C 0.10756 0.24728 0.59024 0.0
H703 H 0.11648 0.21397 0.71702 0.0
H704 H 0.09463 0.2103 0.60163 0.0
S705 S 0.14078 0.3084 0.6589 0.0
N706 N 0.1465 0.29328 0.72068 0.0
N707 N 0.12323 0.28925 0.59611 0.0
C708 C 0.12129 0.26923 0.62419 0.0
C709 C 0.13384 0.27142 0.69156 0.0
C710 C 0.76663 0.85726 0.72649 0.0
C711 C 0.78109 0.87203 0.66885 0.0
C712 C 0.76184 0.86645 0.79085 0.0
C713 C 0.7721 0.89065 0.80056 0.0
H714 H 0.7574 0.83852 0.71889 0.0
H715 H 0.74937 0.85457 0.8317 0.0
S716 S 0.81315 0.93661 0.66968 0.0
N717 N 0.80663 0.91184 0.62739 0.0
N718 N 0.79883 0.92922 0.75055 0.0
C719 C 0.78807 0.90558 0.74624 0.0
C720 C 0.79229 0.89622 0.67968 0.0
C721 C 0.13935 0.90903 0.71023 0.0
C722 C 0.12511 0.90829 0.65026 0.0
C723 C 0.12959 0.89537 0.77494 0.0
C724 C 0.10533 0.8813 0.78238 0.0
H725 H 0.15815 0.91859 0.70436 0.0
H726 H 0.14107 0.89507 0.8179 0.0
S727 S 0.06064 0.87505 0.64415 0.0
N728 N 0.08575 0.89334 0.60371 0.0
N729 N 0.06727 0.86869 0.72734 0.0
C730 C 0.09091 0.88185 0.7254 0.0
C731 C 0.10086 0.89513 0.65863 0.0
C732 C 0.7391 0.88422 0.19359 0.0
C733 C 0.75954 0.90139 0.15836 0.0
C734 C 0.73994 0.87423 0.26188 0.0
C735 C 0.76132 0.88075 0.29714 0.0
H736 H 0.72224 0.87808 0.16739 0.0
H737 H 0.72372 0.86056 0.2854 0.0
S738 S 0.81975 0.92648 0.23107 0.0
N739 N 0.80162 0.92589 0.16599 0.0
N740 N 0.8034 0.90673 0.29457 0.0
C741 C 0.78188 0.89872 0.26436 0.0
C742 C 0.78095 0.90917 0.19489 0.0
C743 C 0.09156 0.87526 0.17866 0.0
C744 C 0.09574 0.85854 0.14518 0.0
C745 C 0.10244 0.88589 0.24687 0.0
C746 C 0.1175 0.87982 0.28386 0.0
H747 H 0.08087 0.88102 0.15017 0.0
H748 H 0.09974 0.89959 0.26909 0.0
S749 S 0.13053 0.83379 0.2243 0.0
N750 N 0.11352 0.8343 0.15727 0.0
N751 N 0.13354 0.85381 0.28596 0.0
C752 C 0.12028 0.86177 0.25336 0.0
C753 C 0.1095 0.85125 0.18372 0.0
C754 C 0.12264 0.22948 0.12278 0.0
C755 C 0.13983 0.25043 0.09051 0.0
C756 C 0.11072 0.22972 0.18788 0.0
C757 C 0.1158 0.2509 0.22262 0.0
H758 H 0.11784 0.21295 0.09619 0.0
H759 H 0.097 0.21325 0.20979 0.0
S760 S 0.16241 0.31012 0.16685 0.0
N761 N 0.16341 0.29261 0.1026 0.0
N762 N 0.14111 0.29306 0.2248 0.0
C763 C 0.1339 0.27184 0.193 0.0
C764 C 0.14591 0.27159 0.1269 0.0
C765 C 0.84495 0.72267 0.32658 0.0
C766 C 0.85507 0.74134 0.27539 0.0
C767 C 0.85684 0.72254 0.39147 0.0
C768 C 0.87939 0.74102 0.40764 0.0
H769 H 0.82765 0.70799 0.31673 0.0
H770 H 0.84827 0.70762 0.42881 0.0
S771 S 0.91368 0.79417 0.2918 0.0
N772 N 0.88897 0.77897 0.24523 0.0
N773 N 0.9114 0.77859 0.36739 0.0
C774 C 0.88976 0.75986 0.3571 0.0
C775 C 0.87757 0.76006 0.29093 0.0
C776 C 0.23447 0.10667 0.2881 0.0
C777 C 0.25572 0.109 0.26311 0.0
C778 C 0.23335 0.11772 0.35403 0.0
C779 C 0.25339 0.13123 0.39741 0.0
H780 H 0.21854 0.09619 0.25665 0.0
H781 H 0.21672 0.11561 0.37123 0.0
S782 S 0.31363 0.14453 0.35296 0.0
N783 N 0.29745 0.12696 0.28459 0.0
N784 N 0.29539 0.14759 0.4086 0.0
C785 C 0.27481 0.13394 0.37256 0.0
C786 C 0.27596 0.12285 0.30532 0.0
C787 C 0.85218 0.131 0.36799 0.0
C788 C 0.84948 0.10901 0.38512 0.0
C789 C 0.86371 0.14308 0.30266 0.0
C790 C 0.87314 0.13375 0.25184 0.0
H791 H 0.8452 0.13899 0.40507 0.0
H792 H 0.86532 0.15995 0.2923 0.0
S793 S 0.87086 0.07675 0.27022 0.0
N794 N 0.85713 0.07831 0.3458 0.0
N795 N 0.87905 0.10112 0.22281 0.0
C796 C 0.87066 0.11178 0.26815 0.0
C797 C 0.85878 0.09939 0.33483 0.0
C798 C 0.93142 0.45631 0.15619 0.0
C799 C 0.91039 0.43741 0.18258 0.0
C800 C 0.93225 0.46794 0.08968 0.0
C801 C 0.91206 0.46127 0.0469 0.0
H802 H 0.94749 0.46237 0.18737 0.0
H803 H 0.94884 0.48264 0.07277 0.0
S804 S 0.85277 0.41203 0.08917 0.0
N805 N 0.86905 0.41176 0.15925 0.0
N806 N 0.87047 0.43385 0.03375 0.0
C807 C 0.89096 0.44194 0.07129 0.0
C808 C 0.89016 0.42994 0.13924 0.0
C809 C 0.55003 0.45441 0.19139 0.0
C810 C 0.54314 0.4673 0.23657 0.0
C811 C 0.53765 0.44328 0.12565 0.0
C812 C 0.51822 0.445 0.10246 0.0
H813 H 0.56488 0.4527 0.20734 0.0
H814 H 0.54331 0.43319 0.093 0.0
S815 S 0.4948 0.4789 0.19753 0.0
N816 N 0.51665 0.48247 0.25133 0.0
N817 N 0.49367 0.46188 0.12774 0.0
C818 C 0.51162 0.45842 0.14626 0.0
C819 C 0.52401 0.46949 0.21337 0.0
C820 C 0.54857 0.07158 0.13821 0.0
C821 C 0.55164 0.08575 0.07557 0.0
C822 C 0.53725 0.07284 0.20276 0.0
C823 C 0.52822 0.08805 0.20649 0.0
H824 H 0.5547 0.05917 0.13712 0.0
H825 H 0.53485 0.06114 0.24898 0.0
S826 S 0.53281 0.12971 0.05853 0.0
N827 N 0.5459 0.11634 0.02189 0.0
N828 N 0.52405 0.11837 0.14343 0.0
C829 C 0.53177 0.10285 0.14506 0.0
C830 C 0.54365 0.10179 0.07946 0.0
C831 C 0.80153 0.60255 0.93197 0.0
C832 C 0.77839 0.58476 0.91903 0.0
C833 C 0.81338 0.60303 -0.0024 0.0
C834 C 0.80269 0.58562 0.05276 0.0
H835 H 0.81057 0.61655 0.89159 0.0
H836 H 0.83114 0.61716 0.00486 0.0
S837 S 0.74246 0.53494 0.04606 0.0
N838 N 0.74521 0.54916 0.9667 0.0
N839 N 0.76766 0.54985 0.09025 0.0
C840 C 0.77965 0.5675 0.04041 0.0
C841 C 0.76746 0.56712 0.97349 0.0
C842 C 0.45103 0.21339 0.98506 0.0
C843 C 0.43692 0.18947 0.97025 0.0
C844 C 0.44821 0.22313 0.05159 0.0
C845 C 0.43056 0.20934 0.10349 0.0
H846 H 0.46328 0.22482 0.94292 0.0
H847 H 0.45854 0.24186 0.05917 0.0
S848 S 0.39023 0.14556 0.09274 0.0
N849 N 0.40614 0.1519 0.01527 0.0
N850 N 0.40004 0.17045 0.13873 0.0
C851 C 0.41727 0.18522 0.09131 0.0
C852 C 0.42067 0.17519 0.02489 0.0
C853 C 0.80124 0.18922 0.92061 0.0
C854 C 0.80257 0.21052 0.90202 0.0
C855 C 0.79067 0.17744 0.98724 0.0
C856 C 0.78081 0.18637 0.0379 0.0
H857 H 0.80847 0.18149 0.88346 0.0
H858 H 0.78991 0.16099 -0.00168 0.0
S859 S 0.78016 0.24185 0.01697 0.0
N860 N 0.79364 0.24042 0.94052 0.0
N861 N 0.77341 0.21809 0.06607 0.0
C862 C 0.78217 0.20779 0.02065 0.0
C863 C 0.79312 0.2199 0.95262 0.0
C864 C 0.43999 0.23036 0.49525 0.0
C865 C 0.41919 0.22689 0.46295 0.0
C866 C 0.43964 0.21973 0.56409 0.0
C867 C 0.41852 0.20556 0.60267 0.0
H868 H 0.45632 0.24007 0.46506 0.0
H869 H 0.45586 0.22164 0.58505 0.0
S870 S 0.36005 0.19514 0.54724 0.0
N871 N 0.37753 0.21122 0.47848 0.0
N872 N 0.37684 0.19152 0.60809 0.0
C873 C 0.39795 0.20376 0.57372 0.0
C874 C 0.3983 0.21436 0.50361 0.0
C875 C 0.78293 0.20824 0.50786 0.0
C876 C 0.79955 0.20331 0.53913 0.0
C877 C 0.77053 0.19687 0.44238 0.0
C878 C 0.7745 0.18035 0.40601 0.0
H879 H 0.77992 0.22142 0.53289 0.0
H880 H 0.75832 0.20153 0.41896 0.0
S881 S 0.81342 0.15862 0.47163 0.0
N882 N 0.81741 0.17901 0.53317 0.0
N883 N 0.79422 0.1577 0.41044 0.0
C884 C 0.79023 0.17448 0.43874 0.0
C885 C 0.80275 0.18596 0.50526 0.0
C886 C 0.77591 0.56861 0.52623 0.0
C887 C 0.7823 0.59069 0.55673 0.0
C888 C 0.78654 0.56646 0.46071 0.0
C889 C 0.80368 0.58634 0.42333 0.0
H890 H 0.76229 0.55285 0.55231 0.0
H891 H 0.78092 0.54923 0.43824 0.0
S892 S 0.82905 0.64788 0.48575 0.0
N893 N 0.80855 0.63262 0.54846 0.0
N894 N 0.82838 0.62862 0.42524 0.0
C895 C 0.81089 0.60844 0.45479 0.0
C896 C 0.80022 0.61062 0.52156 0.0
C897 C 0.55851 0.09949 0.63941 0.0
C898 C 0.5474 0.09132 0.70944 0.0
C899 C 0.54558 0.09741 0.57449 0.0
C900 C 0.52118 0.08679 0.57764 0.0
H901 H 0.57713 0.10659 0.63397 0.0
H902 H 0.55463 0.10319 0.52103 0.0
S903 S 0.48417 0.06603 0.74869 0.0
N904 N 0.51084 0.07498 0.77942 0.0
N905 N 0.48665 0.07058 0.65675 0.0
C906 C 0.51002 0.07986 0.64774 0.0
C907 C 0.52314 0.08231 0.71395 0.0
C908 C 0.89026 0.44155 0.57848 0.0
C909 C 0.91184 0.44868 0.54298 0.0
C910 C 0.88896 0.45248 0.64473 0.0
C911 C 0.90923 0.47066 0.67719 0.0
H912 H 0.87444 0.42679 0.55698 0.0
H913 H 0.87227 0.44597 0.67249 0.0
S914 S 0.96914 0.49869 0.59846 0.0
N915 N 0.95329 0.47716 0.5396 0.0
N916 N 0.95088 0.49746 0.66407 0.0
C917 C 0.93059 0.47895 0.63941 0.0
C918 C 0.9319 0.468 0.57218 0.0
C919 C 0.54047 0.48014 0.66322 0.0
C920 C 0.54757 0.47015 0.60687 0.0
C921 C 0.52972 0.46789 0.72902 0.0
C922 C 0.52539 0.44503 0.74083 0.0
H923 H 0.54315 0.49758 0.6565 0.0
H924 H 0.52425 0.4763 0.77008 0.0
S925 S 0.54108 0.41113 0.61108 0.0
N926 N 0.55013 0.43628 0.56755 0.0
N927 N 0.52949 0.41302 0.69138 0.0
C928 C 0.53273 0.43491 0.68553 0.0
C929 C 0.54392 0.44753 0.61849 0.0
C930 C 0.572 0.79422 0.45432 0.0
C931 C 0.589 0.81789 0.44548 0.0
C932 C 0.57138 0.78178 0.51903 0.0
C933 C 0.58756 0.79266 0.57759 0.0
H934 H 0.55926 0.78508 0.4104 0.0
H935 H 0.55828 0.76347 0.52278 0.0
S936 S 0.63497 0.85468 0.58328 0.0
N937 N 0.62198 0.85192 0.50143 0.0
N938 N 0.62075 0.82874 0.62341 0.0
C939 C 0.60435 0.81649 0.57013 0.0
C940 C 0.6051 0.82906 0.50393 0.0
C941 C 0.19732 0.80288 0.55528 0.0
C942 C 0.2208 0.80895 0.56347 0.0
C943 C 0.18491 0.79221 0.4897 0.0
C944 C 0.19536 0.78685 0.43011 0.0
H945 H 0.18847 0.80684 0.59925 0.0
H946 H 0.1669 0.78802 0.486 0.0
S947 S 0.25626 0.79857 0.42372 0.0
N948 N 0.25406 0.80866 0.50671 0.0
N949 N 0.23046 0.78802 0.38334 0.0
C950 C 0.21872 0.79241 0.43775 0.0
C951 C 0.23152 0.80363 0.50446 0.0
C952 C 0.20242 0.417 0.54259 0.0
C953 C 0.1948 0.39904 0.59626 0.0
C954 C 0.21424 0.41675 0.4775 0.0
C955 C 0.21873 0.39845 0.46335 0.0
H956 H 0.19887 0.43116 0.55009 0.0
H957 H 0.2195 0.43084 0.4373 0.0
S958 S 0.20357 0.34786 0.58818 0.0
N959 N 0.19355 0.36293 0.63267 0.0
N960 N 0.21555 0.36243 0.50978 0.0
C961 C 0.2117 0.38065 0.51731 0.0
C962 C 0.19981 0.38097 0.58395 0.0
C963 C 0.42205 0.89267 0.45287 0.0
C964 C 0.43467 0.88097 0.4621 0.0
C965 C 0.40976 0.89034 0.38606 0.0
C966 C 0.41029 0.87674 0.32614 0.0
H967 H 0.42271 0.90465 0.49574 0.0
H968 H 0.4017 0.90097 0.37862 0.0
S969 S 0.43856 0.8407 0.32499 0.0
N970 N 0.44474 0.85325 0.40883 0.0
N971 N 0.42249 0.84986 0.28211 0.0
C972 C 0.42138 0.86369 0.33671 0.0
C973 C 0.43339 0.86555 0.4052 0.0
C974 C 0.05308 0.54144 0.29352 0.0
C975 C 0.06891 0.54682 0.35309 0.0
C976 C 0.05507 0.5312 0.22731 0.0
C977 C 0.07285 0.52568 0.21809 0.0
H978 H 0.03894 0.54514 0.29786 0.0
H979 H 0.04214 0.5271 0.18367 0.0
S980 S 0.11925 0.53688 0.35663 0.0
N981 N 0.10348 0.54661 0.39824 0.0
N982 N 0.10702 0.52691 0.27351 0.0
C983 C 0.08912 0.53135 0.27663 0.0
C984 C 0.08719 0.54201 0.34422 0.0
C985 C 0.43675 0.55336 0.38027 0.0
C986 C 0.45032 0.54934 0.4325 0.0
C987 C 0.44697 0.56734 0.31656 0.0
C988 C 0.47114 0.57846 0.30501 0.0
H989 H 0.41795 0.54444 0.38604 0.0
H990 H 0.43582 0.56863 0.27443 0.0
S991 S 0.51445 0.57534 0.42947 0.0
N992 N 0.48914 0.55856 0.4712 0.0
N993 N 0.50856 0.58581 0.35326 0.0
C994 C 0.48505 0.5759 0.35969 0.0
C995 C 0.47457 0.56105 0.4231 0.0
C996 C 0.08515 0.55004 0.76176 0.0
C997 C 0.06489 0.54309 0.71896 0.0
C998 C 0.08467 0.53764 0.82649 0.0
C999 C 0.06387 0.51801 0.8511 0.0
H1000 H 0.10151 0.56507 0.74499 0.0
H1001 H 0.10075 0.54355 0.85749 0.0
S1002 S 0.00573 0.49345 0.76081 0.0
N1003 N 0.02325 0.51575 0.70694 0.0
N1004 N 0.02237 0.49262 0.82856 0.0
C1005 C 0.04343 0.51106 0.8092 0.0
C1006 C 0.04394 0.52356 0.74312 0.0
C1007 C 0.46968 0.54081 0.88721 0.0
C1008 C 0.46206 0.55387 0.92821 0.0
C1009 C 0.45897 0.52994 0.81977 0.0
C1010 C 0.44001 0.53143 0.79092 0.0
H1011 H 0.48454 0.5395 0.90593 0.0
H1012 H 0.46583 0.52045 0.78958 0.0
S1013 S 0.41204 0.5619 0.8794 0.0
N1014 N 0.43353 0.56671 0.93736 0.0
N1015 N 0.41305 0.54571 0.81017 0.0
C1016 C 0.43142 0.54349 0.83275 0.0
C1017 C 0.44256 0.55489 0.9015 0.0
C1018 C 0.47035 0.89114 0.88621 0.0
C1019 C 0.45609 0.87668 0.82784 0.0
C1020 C 0.46052 0.89395 0.95262 0.0
C1021 C 0.43623 0.88191 0.9631 0.0
H1022 H 0.48897 0.90198 0.87771 0.0
H1023 H 0.4719 0.9065 0.99415 0.0
S1024 S 0.39186 0.8395 0.83063 0.0
N1025 N 0.41697 0.84868 0.78688 0.0
N1026 N 0.3984 0.85302 0.91289 0.0
C1027 C 0.42203 0.86572 0.90793 0.0
C1028 C 0.43201 0.86334 0.83982 0.0
C1029 C 0.20874 0.41654 0.97012 0.0
C1030 C 0.18531 0.39882 0.96326 0.0
C1031 C 0.2214 0.41894 0.03601 0.0
C1032 C 0.21097 0.40384 0.09756 0.0
H1033 H 0.21758 0.4283 0.92352 0.0
H1034 H 0.23964 0.43229 0.03775 0.0
S1035 S 0.14918 0.35638 0.11095 0.0
N1036 N 0.15163 0.36712 0.02527 0.0
N1037 N 0.1752 0.37174 0.14968 0.0
C1038 C 0.18721 0.38671 0.09259 0.0
C1039 C 0.17443 0.38414 0.0252 0.0
C1040 C 0.60079 0.79151 0.00519 0.0
C1041 C 0.58508 0.78584 0.94514 0.0
C1042 C 0.59867 0.80212 0.07034 0.0
C1043 C 0.58091 0.80775 0.07765 0.0
H1044 H 0.615 0.78788 0.00177 0.0
H1045 H 0.61156 0.80657 0.11436 0.0
S1046 S 0.5346 0.79557 0.93771 0.0
N1047 N 0.55049 0.78566 0.89795 0.0
N1048 N 0.54675 0.80606 0.02056 0.0
C1049 C 0.56469 0.80167 0.01882 0.0
C1050 C 0.56672 0.7906 0.9525 0.0
C1051 C 0.21551 0.82329 0.99469 0.0
C1052 C 0.2221 0.81298 0.93788 0.0
C1053 C 0.20426 0.81098 0.05989 0.0
C1054 C 0.19899 0.78778 0.07078 0.0
H1055 H 0.21887 0.841 0.98864 0.0
H1056 H 0.19919 0.81964 0.1013 0.0
S1057 S 0.21347 0.75308 0.94038 0.0
N1058 N 0.2234 0.77849 0.89767 0.0
N1059 N 0.20195 0.7552 0.02053 0.0
C1060 C 0.20597 0.77739 0.01533 0.0
C1061 C 0.21759 0.79002 0.94878 0.0
C1062 C 0.35428 0.10111 0.93093 0.0
C1063 C 0.35345 0.10944 0.85858 0.0
C1064 C 0.33404 0.08882 0.97449 0.0
C1065 C 0.31224 0.08375 0.94601 0.0
H1066 H 0.37084 0.10526 0.95587 0.0
H1067 H 0.33556 0.084 0.03176 0.0
S1068 S 0.30045 0.09998 0.75742 0.0
N1069 N 0.32894 0.11073 0.75892 0.0
N1070 N 0.29077 0.08685 0.83952 0.0
C1071 C 0.31098 0.09067 0.87191 0.0
C1072 C 0.33164 0.10373 0.82845 0.0
C1073 C 0.91484 0.22377 0.8637 0.0
C1074 C 0.91286 0.22629 0.94178 0.0
C1075 C 0.90594 0.23313 0.81129 0.0
C1076 C 0.89518 0.24569 0.83515 0.0
H1077 H 0.92146 0.21282 0.84286 0.0
H1078 H 0.90607 0.22912 0.75208 0.0
S1079 S 0.88991 0.26099 0.03304 0.0
N1080 N 0.90234 0.24483 0.04014 0.0
N1081 N 0.8862 0.26308 0.94184 0.0
C1082 C 0.89546 0.2505 0.91276 0.0
C1083 C 0.90412 0.24058 0.96612 0.0
C1084 C 0.75893 0.67116 0.83991 0.0
C1085 C 0.74804 0.64809 0.86656 0.0
C1086 C 0.76753 0.69002 0.89006 0.0
C1087 C 0.76596 0.68644 0.96865 0.0
H1088 H 0.76196 0.67474 0.78005 0.0
H1089 H 0.77707 0.7075 0.86698 0.0
S1090 S 0.73619 0.62939 0.067 0.0
N1091 N 0.73364 0.62264 0.97649 0.0
N1092 N 0.75039 0.65818 0.07062 0.0
C1093 C 0.75353 0.66347 0.99588 0.0
C1094 C 0.74439 0.64424 0.9448 0.0
C1095 C 0.09789 0.34337 0.56235 0.0
C1096 C 0.09871 0.33881 0.63955 0.0
C1097 C 0.08743 0.32516 0.50997 0.0
C1098 C 0.077 0.30179 0.53318 0.0
H1099 H 0.10683 0.36111 0.5413 0.0
H1100 H 0.08871 0.32944 0.45051 0.0
S1101 S 0.0716 0.28058 0.73025 0.0
N1102 N 0.08615 0.30928 0.7376 0.0
N1103 N 0.06597 0.27499 0.63952 0.0
C1104 C 0.07583 0.29697 0.611 0.0
C1105 C 0.08686 0.31553 0.66416 0.0
C1106 C 0.67675 0.78355 0.53273 0.0
C1107 C 0.69811 0.79194 0.57041 0.0
C1108 C 0.65562 0.77201 0.57213 0.0
C1109 C 0.6552 0.76905 0.65084 0.0
H1110 H 0.67637 0.78646 0.47271 0.0
H1111 H 0.6396 0.76662 0.54131 0.0
S1112 S 0.70629 0.78653 0.77504 0.0
N1113 N 0.71753 0.79505 0.68992 0.0
N1114 N 0.67777 0.77417 0.7644 0.0
C1115 C 0.67637 0.77655 0.68873 0.0
C1116 C 0.69786 0.78779 0.64834 0.0
C1117 C 0.22077 0.90004 0.52331 0.0
C1118 C 0.21022 0.91117 0.56 0.0
C1119 C 0.2342 0.89279 0.56357 0.0
C1120 C 0.237 0.89588 0.64221 0.0
H1121 H 0.21817 0.8964 0.46339 0.0
H1122 H 0.24124 0.88344 0.53351 0.0
S1123 S 0.21401 0.92525 0.76397 0.0
N1124 N 0.2047 0.92633 0.67847 0.0
N1125 N 0.22923 0.91186 0.7546 0.0
C1126 C 0.22727 0.90775 0.67908 0.0
C1127 C 0.21406 0.91564 0.6378 0.0
C1128 C 0.66634 0.90065 0.00888 0.0
C1129 C 0.68843 0.91508 0.04066 0.0
C1130 C 0.64602 0.89287 0.05197 0.0
C1131 C 0.64719 0.89879 0.12877 0.0
H1132 H 0.66477 0.89456 0.95127 0.0
H1133 H 0.62943 0.88081 0.02632 0.0
S1134 S 0.70056 0.93778 0.237 0.0
N1135 N 0.7101 0.93665 0.15192 0.0
N1136 N 0.67191 0.92129 0.23318 0.0
C1137 C 0.66903 0.91418 0.16006 0.0
C1138 C 0.68967 0.92254 0.11586 0.0
C1139 C 0.10691 0.75931 0.04982 0.0
C1140 C 0.10398 0.75812 0.12869 0.0
C1141 C 0.09685 0.7692 0.00414 0.0
C1142 C 0.08301 0.77758 0.03561 0.0
H1143 H 0.11837 0.7541 0.02369 0.0
H1144 H 0.10077 0.77121 0.94433 0.0
S1145 S 0.06779 0.77582 0.23824 0.0
N1146 N 0.08495 0.76443 0.23567 0.0
N1147 N 0.06521 0.78213 0.14992 0.0
C1148 C 0.07848 0.77478 0.11378 0.0
C1149 C 0.08921 0.76529 0.16037 0.0
C1150 C 0.23826 0.32487 0.14814 0.0
C1151 C 0.24859 0.34819 0.12431 0.0
C1152 C 0.22884 0.30656 0.09588 0.0
C1153 C 0.22905 0.31096 0.0181 0.0
H1154 H 0.23626 0.32065 0.20773 0.0
H1155 H 0.21976 0.28884 0.11718 0.0
S1156 S 0.25687 0.36896 0.92586 0.0
N1157 N 0.26098 0.37477 0.01699 0.0
N1158 N 0.24271 0.34023 0.91912 0.0
C1159 C 0.2409 0.33418 0.99315 0.0
C1160 C 0.25085 0.35286 0.04623 0.0
C1161 C 0.90594 0.66084 0.35126 0.0
C1162 C 0.89051 0.63792 0.3749 0.0
C1163 C 0.91499 0.67936 0.40282 0.0
C1164 C 0.9084 0.67562 0.47938 0.0
H1165 H 0.91007 0.66465 0.29195 0.0
H1166 H 0.92578 0.6969 0.38128 0.0
S1167 S 0.87011 0.61852 0.57077 0.0
N1168 N 0.87066 0.61217 0.48102 0.0
N1169 N 0.88718 0.64707 0.5774 0.0
C1170 C 0.89424 0.65259 0.50455 0.0
C1171 C 0.8854 0.63369 0.45236 0.0
C1172 C 0.33237 0.23733 0.45226 0.0
C1173 C 0.31056 0.21923 0.42883 0.0
C1174 C 0.35162 0.24627 0.4038 0.0
C1175 C 0.34984 0.23687 0.33111 0.0
H1176 H 0.33478 0.24396 0.50942 0.0
H1177 H 0.36834 0.2595 0.42565 0.0
S1178 S 0.29611 0.18993 0.24215 0.0
N1179 N 0.28776 0.1931 0.32696 0.0
N1180 N 0.32417 0.20936 0.23671 0.0
C1181 C 0.32783 0.21951 0.30581 0.0
C1182 C 0.30811 0.2108 0.35457 0.0
C1183 C 0.74338 0.08397 0.46931 0.0
C1184 C 0.75443 0.07158 0.44651 0.0
C1185 C 0.73433 0.09292 0.41606 0.0
C1186 C 0.73647 0.09015 0.33829 0.0
H1187 H 0.74327 0.08828 0.52823 0.0
H1188 H 0.72767 0.10394 0.43591 0.0
S1189 S 0.75974 0.05534 0.24995 0.0
N1190 N 0.7635 0.05374 0.34139 0.0
N1191 N 0.74711 0.07129 0.24142 0.0
C1192 C 0.74527 0.07582 0.31512 0.0
C1193 C 0.75408 0.06629 0.36934 0.0
C1194 C 0.995 0.42276 0.29676 0.0
C1195 C 0.97218 0.40932 0.26893 0.0
C1196 C 0.0141 0.4331 0.2476 0.0
C1197 C 0.01093 0.43071 0.16894 0.0
H1198 H -0.002 0.42657 0.3565 0.0
H1199 H 0.0312 0.44454 0.27123 0.0
S1200 S 0.95525 0.39424 0.06813 0.0
N1201 N 0.94789 0.39151 0.15812 0.0
N1202 N 0.98381 0.41155 0.06592 0.0
C1203 C 0.98851 0.41571 0.14078 0.0
C1204 C 0.9691 0.4048 0.19083 0.0
C1205 C 0.55646 0.58331 0.27383 0.0
C1206 C 0.54891 0.57553 0.19972 0.0
C1207 C 0.56606 0.57282 0.3188 0.0
C1208 C 0.56927 0.5549 0.28996 0.0
H1209 H 0.55383 0.59674 0.29872 0.0
H1210 H 0.5705 0.57839 0.37688 0.0
S1211 S 0.5542 0.52949 0.0977 0.0
N1212 N 0.5463 0.54951 0.09856 0.0
N1213 N 0.56533 0.53056 0.18191 0.0
C1214 C 0.56311 0.54792 0.2146 0.0
C1215 C 0.5527 0.55808 0.16964 0.0
C1216 C 0.43679 0.98741 0.17616 0.0
C1217 C 0.42526 0.9666 0.21779 0.0
C1218 C 0.44495 0.00909 0.21138 0.0
C1219 C 0.44242 0.01065 0.28968 0.0
H1220 H 0.43956 0.98693 0.11609 0.0
H1221 H 0.45417 0.02476 0.17756 0.0
S1222 S 0.41342 0.96123 0.42362 0.0
N1223 N 0.41119 0.9488 0.3409 0.0
N1224 N 0.42734 0.98961 0.40745 0.0
C1225 C 0.43074 0.98996 0.33172 0.0
C1226 C 0.42194 0.9679 0.29563 0.0
C1227 C 0.54846 0.00908 0.70693 0.0
C1228 C 0.55342 0.01108 0.78467 0.0
C1229 C 0.53566 0.98715 0.67253 0.0
C1230 C 0.52797 0.96657 0.71442 0.0
H1231 H 0.55381 0.02454 0.67289 0.0
H1232 H 0.53177 0.98631 0.61286 0.0
S1233 S 0.53712 0.96242 0.91912 0.0
N1234 N 0.54994 0.99072 0.90226 0.0
N1235 N 0.52656 0.94951 0.83728 0.0
C1236 C 0.53337 0.96836 0.79175 0.0
C1237 C 0.54592 0.99064 0.82702 0.0
C1238 C 0.00962 0.58129 0.72799 0.0
C1239 C 0.00625 0.57793 0.64953 0.0
C1240 C 0.99073 0.571 0.77796 0.0
C1241 C 0.96783 0.55756 0.75108 0.0
H1242 H 0.02704 0.59027 0.75151 0.0
H1243 H 0.99419 0.57248 0.83805 0.0
S1244 S 0.94949 0.5465 0.55039 0.0
N1245 N 0.97821 0.5623 0.54705 0.0
N1246 N 0.94259 0.5436 0.64082 0.0
C1247 C 0.96407 0.55599 0.67261 0.0
C1248 C 0.98334 0.56602 0.62179 0.0
C1249 C 0.41261 0.43851 0.76444 0.0
C1250 C 0.4197 0.44313 0.68844 0.0
C1251 C 0.41999 0.42642 0.81127 0.0
C1252 C 0.43419 0.418 0.78323 0.0
H1253 H 0.40262 0.44566 0.78949 0.0
H1254 H 0.41551 0.42466 0.87063 0.0
S1255 S 0.45514 0.42295 0.58606 0.0
N1256 N 0.44003 0.43659 0.58568 0.0
N1257 N 0.4534 0.41328 0.67305 0.0
C1258 C 0.43983 0.42083 0.70588 0.0
C1259 C 0.43272 0.43357 0.65859 0.0
loop_
_geom_bond_atom_site_label_1
_geom_bond_atom_site_label_2
_geom_bond_distance
_geom_bond_site_symmetry_2
_ccdc_geom_bond_type
In0 O1 2.294 . S
In0 O2 2.326 . S
In0 O6 2.266 . S
In0 O7 2.326 1_554 S
In0 O8 2.266 1_554 S
In0 O9 2.326 1_554 S
In0 O11 2.294 . S
In0 O12 2.326 . S
O1 In0 2.294 . S
O1 C10 1.240 . S
O2 In0 2.326 . S
O2 C10 1.252 . S
C3 O6 1.249 1_556 S
C3 O7 1.261 . S
C4 O11 1.240 . S
C4 O12 1.252 . S
C5 O8 1.252 . S
C5 O9 1.260 . S
O6 In0 2.266 . S
O6 C3 1.249 1_554 S
O7 In0 2.326 1_556 S
O7 C3 1.261 . S
O8 In0 2.266 1_556 S
O8 C5 1.252 . S
O9 In0 2.326 1_556 S
O9 C5 1.260 . S
C10 O1 1.240 . S
C10 O2 1.252 . S
O11 In0 2.294 . S
O11 C4 1.240 . S
O12 In0 2.326 . S
O12 C4 1.252 . S
In13 O14 2.294 . S
In13 O15 2.326 . S
In13 O19 2.266 . S
In13 O20 2.326 1_554 S
In13 O21 2.266 1_554 S
In13 O22 2.326 1_554 S
In13 O24 2.294 . S
In13 O25 2.326 . S
O14 In13 2.294 . S
O14 C23 1.240 . S
O15 In13 2.326 . S
O15 C23 1.252 . S
C16 O19 1.249 1_556 S
C16 O20 1.261 . S
C17 O24 1.240 . S
C17 O25 1.252 . S
C18 O21 1.252 . S
C18 O22 1.260 . S
O19 In13 2.266 . S
O19 C16 1.249 1_554 S
O20 In13 2.326 1_556 S
O20 C16 1.261 . S
O21 In13 2.266 1_556 S
O21 C18 1.252 . S
O22 In13 2.326 1_556 S
O22 C18 1.260 . S
C23 O14 1.240 . S
C23 O15 1.252 . S
O24 In13 2.294 . S
O24 C17 1.240 . S
O25 In13 2.326 . S
O25 C17 1.252 . S
In26 O27 2.294 . S
In26 O28 2.326 . S
In26 O32 2.266 1_554 S
In26 O33 2.326 1_554 S
In26 O34 2.266 . S
In26 O35 2.326 1_554 S
In26 O37 2.294 . S
In26 O38 2.326 . S
O27 In26 2.294 . S
O27 C36 1.240 . S
O28 In26 2.326 . S
O28 C36 1.252 . S
C29 O32 1.252 . S
C29 O33 1.260 . S
C30 O37 1.240 . S
C30 O38 1.252 . S
C31 O34 1.249 1_556 S
C31 O35 1.261 . S
O32 In26 2.266 1_556 S
O32 C29 1.252 . S
O33 In26 2.326 1_556 S
O33 C29 1.260 . S
O34 In26 2.266 . S
O34 C31 1.249 1_554 S
O35 In26 2.326 1_556 S
O35 C31 1.261 . S
C36 O27 1.240 . S
C36 O28 1.252 . S
O37 In26 2.294 . S
O37 C30 1.240 . S
O38 In26 2.326 . S
O38 C30 1.252 . S
In39 O40 2.294 . S
In39 O41 2.326 . S
In39 O45 2.266 . S
In39 O46 2.326 . S
In39 O47 2.266 . S
In39 O48 2.326 . S
In39 O50 2.294 . S
In39 O51 2.326 . S
O40 In39 2.294 . S
O40 C49 1.240 . S
O41 In39 2.326 . S
O41 C49 1.252 . S
C42 O45 1.252 . S
C42 O46 1.260 . S
C43 O50 1.240 . S
C43 O51 1.252 . S
C44 O47 1.252 . S
C44 O48 1.260 . S
O45 In39 2.266 . S
O45 C42 1.252 . S
O46 In39 2.326 . S
O46 C42 1.260 . S
O47 In39 2.266 . S
O47 C44 1.252 . S
O48 In39 2.326 . S
O48 C44 1.260 . S
C49 O40 1.240 . S
C49 O41 1.252 . S
O50 In39 2.294 . S
O50 C43 1.240 . S
O51 In39 2.326 . S
O51 C43 1.252 . S
In52 O53 2.294 . S
In52 O54 2.326 . S
In52 O58 2.266 . S
In52 O59 2.326 . S
In52 O60 2.266 . S
In52 O61 2.326 . S
In52 O63 2.294 . S
In52 O64 2.326 . S
O53 In52 2.294 . S
O53 C62 1.240 . S
O54 In52 2.326 . S
O54 C62 1.252 . S
C55 O58 1.252 . S
C55 O59 1.260 . S
C56 O63 1.240 . S
C56 O64 1.252 . S
C57 O60 1.252 . S
C57 O61 1.260 . S
O58 In52 2.266 . S
O58 C55 1.252 . S
O59 In52 2.326 . S
O59 C55 1.260 . S
O60 In52 2.266 . S
O60 C57 1.252 . S
O61 In52 2.326 . S
O61 C57 1.260 . S
C62 O53 1.240 . S
C62 O54 1.252 . S
O63 In52 2.294 . S
O63 C56 1.240 . S
O64 In52 2.326 . S
O64 C56 1.252 . S
In65 O66 2.294 . S
In65 O67 2.326 . S
In65 O71 2.266 . S
In65 O72 2.326 . S
In65 O73 2.266 . S
In65 O74 2.326 . S
In65 O76 2.294 . S
In65 O77 2.326 . S
O66 In65 2.294 . S
O66 C75 1.240 . S
O67 In65 2.326 . S
O67 C75 1.252 . S
C68 O71 1.252 . S
C68 O72 1.260 . S
C69 O76 1.240 . S
C69 O77 1.252 . S
C70 O73 1.252 . S
C70 O74 1.260 . S
O71 In65 2.266 . S
O71 C68 1.252 . S
O72 In65 2.326 . S
O72 C68 1.260 . S
O73 In65 2.266 . S
O73 C70 1.252 . S
O74 In65 2.326 . S
O74 C70 1.260 . S
C75 O66 1.240 . S
C75 O67 1.252 . S
O76 In65 2.294 . S
O76 C69 1.240 . S
O77 In65 2.326 . S
O77 C69 1.252 . S
In78 O79 2.294 . S
In78 O80 2.326 . S
In78 O84 2.266 . S
In78 O85 2.326 1_556 S
In78 O86 2.266 1_556 S
In78 O87 2.326 1_556 S
In78 O89 2.294 . S
In78 O90 2.326 . S
O79 In78 2.294 . S
O79 C88 1.240 . S
O80 In78 2.326 . S
O80 C88 1.252 . S
C81 O84 1.249 1_554 S
C81 O85 1.261 . S
C82 O89 1.240 . S
C82 O90 1.252 . S
C83 O86 1.252 . S
C83 O87 1.260 . S
O84 In78 2.266 . S
O84 C81 1.249 1_556 S
O85 In78 2.326 1_554 S
O85 C81 1.261 . S
O86 In78 2.266 1_554 S
O86 C83 1.252 . S
O87 In78 2.326 1_554 S
O87 C83 1.260 . S
C88 O79 1.240 . S
C88 O80 1.252 . S
O89 In78 2.294 . S
O89 C82 1.240 . S
O90 In78 2.326 . S
O90 C82 1.252 . S
In91 O92 2.294 . S
In91 O93 2.326 . S
In91 O97 2.266 . S
In91 O98 2.326 1_556 S
In91 O99 2.266 1_556 S
In91 O100 2.326 1_556 S
In91 O102 2.294 . S
In91 O103 2.326 . S
O92 In91 2.294 . S
O92 C101 1.240 . S
O93 In91 2.326 . S
O93 C101 1.252 . S
C94 O97 1.249 1_554 S
C94 O98 1.261 . S
C95 O102 1.240 . S
C95 O103 1.252 . S
C96 O99 1.252 . S
C96 O100 1.260 . S
O97 In91 2.266 . S
O97 C94 1.249 1_556 S
O98 In91 2.326 1_554 S
O98 C94 1.261 . S
O99 In91 2.266 1_554 S
O99 C96 1.252 . S
O100 In91 2.326 1_554 S
O100 C96 1.260 . S
C101 O92 1.240 . S
C101 O93 1.252 . S
O102 In91 2.294 . S
O102 C95 1.240 . S
O103 In91 2.326 . S
O103 C95 1.252 . S
In104 O105 2.294 . S
In104 O106 2.326 . S
In104 O110 2.266 1_556 S
In104 O111 2.326 1_556 S
In104 O112 2.266 . S
In104 O113 2.326 1_556 S
In104 O115 2.294 . S
In104 O116 2.326 . S
O105 In104 2.294 . S
O105 C114 1.240 . S
O106 In104 2.326 . S
O106 C114 1.252 . S
C107 O110 1.252 . S
C107 O111 1.260 . S
C108 O115 1.240 . S
C108 O116 1.252 . S
C109 O112 1.248 1_554 S
C109 O113 1.261 . S
O110 In104 2.266 1_554 S
O110 C107 1.252 . S
O111 In104 2.326 1_554 S
O111 C107 1.260 . S
O112 In104 2.266 . S
O112 C109 1.248 1_556 S
O113 In104 2.326 1_554 S
O113 C109 1.261 . S
C114 O105 1.240 . S
C114 O106 1.252 . S
O115 In104 2.294 . S
O115 C108 1.240 . S
O116 In104 2.326 . S
O116 C108 1.252 . S
In117 O118 2.294 . S
In117 O119 2.326 . S
In117 O123 2.266 . S
In117 O124 2.326 . S
In117 O125 2.266 . S
In117 O126 2.326 . S
In117 O128 2.294 . S
In117 O129 2.326 . S
O118 In117 2.294 . S
O118 C127 1.240 . S
O119 In117 2.326 . S
O119 C127 1.252 . S
C120 O123 1.252 . S
C120 O124 1.260 . S
C121 O128 1.240 . S
C121 O129 1.252 . S
C122 O125 1.252 . S
C122 O126 1.260 . S
O123 In117 2.266 . S
O123 C120 1.252 . S
O124 In117 2.326 . S
O124 C120 1.260 . S
O125 In117 2.266 . S
O125 C122 1.252 . S
O126 In117 2.326 . S
O126 C122 1.260 . S
C127 O118 1.240 . S
C127 O119 1.252 . S
O128 In117 2.294 . S
O128 C121 1.240 . S
O129 In117 2.326 . S
O129 C121 1.252 . S
In130 O131 2.294 . S
In130 O132 2.326 . S
In130 O136 2.266 . S
In130 O137 2.326 . S
In130 O138 2.266 . S
In130 O139 2.326 . S
In130 O141 2.294 . S
In130 O142 2.326 . S
O131 In130 2.294 . S
O131 C140 1.240 . S
O132 In130 2.326 . S
O132 C140 1.252 . S
C133 O136 1.252 . S
C133 O137 1.260 . S
C134 O141 1.240 . S
C134 O142 1.252 . S
C135 O138 1.252 . S
C135 O139 1.260 . S
O136 In130 2.266 . S
O136 C133 1.252 . S
O137 In130 2.326 . S
O137 C133 1.260 . S
O138 In130 2.266 . S
O138 C135 1.252 . S
O139 In130 2.326 . S
O139 C135 1.260 . S
C140 O131 1.240 . S
C140 O132 1.252 . S
O141 In130 2.294 . S
O141 C134 1.240 . S
O142 In130 2.326 . S
O142 C134 1.252 . S
In143 O144 2.294 . S
In143 O145 2.326 . S
In143 O149 2.266 . S
In143 O150 2.326 . S
In143 O151 2.266 . S
In143 O152 2.326 . S
In143 O154 2.294 . S
In143 O155 2.326 . S
O144 In143 2.294 . S
O144 C153 1.240 . S
O145 In143 2.326 . S
O145 C153 1.252 . S
C146 O149 1.252 . S
C146 O150 1.260 . S
C147 O154 1.240 . S
C147 O155 1.252 . S
C148 O151 1.252 . S
C148 O152 1.260 . S
O149 In143 2.266 . S
O149 C146 1.252 . S
O150 In143 2.326 . S
O150 C146 1.260 . S
O151 In143 2.266 . S
O151 C148 1.252 . S
O152 In143 2.326 . S
O152 C148 1.260 . S
C153 O144 1.240 . S
C153 O145 1.252 . S
O154 In143 2.294 . S
O154 C147 1.240 . S
O155 In143 2.326 . S
O155 C147 1.252 . S
In156 O157 2.294 . S
In156 O158 2.326 . S
In156 O162 2.266 . S
In156 O163 2.326 . S
In156 O164 2.266 . S
In156 O165 2.326 . S
In156 O167 2.294 . S
In156 O168 2.326 . S
O157 In156 2.294 . S
O157 C166 1.240 . S
O158 In156 2.326 . S
O158 C166 1.252 . S
C159 O162 1.252 . S
C159 O163 1.260 . S
C160 O167 1.240 . S
C160 O168 1.252 . S
C161 O164 1.252 . S
C161 O165 1.260 . S
O162 In156 2.266 . S
O162 C159 1.252 . S
O163 In156 2.326 . S
O163 C159 1.260 . S
O164 In156 2.266 . S
O164 C161 1.252 . S
O165 In156 2.326 . S
O165 C161 1.260 . S
C166 O157 1.240 . S
C166 O158 1.252 . S
O167 In156 2.294 . S
O167 C160 1.240 . S
O168 In156 2.326 . S
O168 C160 1.252 . S
In169 O170 2.294 . S
In169 O171 2.326 . S
In169 O175 2.266 . S
In169 O176 2.326 . S
In169 O177 2.266 . S
In169 O178 2.326 . S
In169 O180 2.294 . S
In169 O181 2.326 . S
O170 In169 2.294 . S
O170 C179 1.240 . S
O171 In169 2.326 . S
O171 C179 1.252 . S
C172 O175 1.252 . S
C172 O176 1.260 . S
C173 O180 1.240 . S
C173 O181 1.252 . S
C174 O177 1.252 . S
C174 O178 1.260 . S
O175 In169 2.266 . S
O175 C172 1.252 . S
O176 In169 2.326 . S
O176 C172 1.260 . S
O177 In169 2.266 . S
O177 C174 1.252 . S
O178 In169 2.326 . S
O178 C174 1.260 . S
C179 O170 1.240 . S
C179 O171 1.252 . S
O180 In169 2.294 . S
O180 C173 1.240 . S
O181 In169 2.326 . S
O181 C173 1.252 . S
In182 O183 2.294 . S
In182 O184 2.326 . S
In182 O188 2.266 . S
In182 O189 2.326 . S
In182 O190 2.266 . S
In182 O191 2.326 . S
In182 O193 2.294 . S
In182 O194 2.326 . S
O183 In182 2.294 . S
O183 C192 1.240 . S
O184 In182 2.326 . S
O184 C192 1.252 . S
C185 O188 1.252 . S
C185 O189 1.260 . S
C186 O193 1.240 . S
C186 O194 1.252 . S
C187 O190 1.252 . S
C187 O191 1.260 . S
O188 In182 2.266 . S
O188 C185 1.252 . S
O189 In182 2.326 . S
O189 C185 1.260 . S
O190 In182 2.266 . S
O190 C187 1.252 . S
O191 In182 2.326 . S
O191 C187 1.260 . S
C192 O183 1.240 . S
C192 O184 1.252 . S
O193 In182 2.294 . S
O193 C186 1.240 . S
O194 In182 2.326 . S
O194 C186 1.252 . S
In195 O196 2.294 . S
In195 O197 2.326 . S
In195 O201 2.266 . S
In195 O202 2.326 . S
In195 O203 2.266 . S
In195 O204 2.326 . S
In195 O206 2.294 . S
In195 O207 2.326 . S
O196 In195 2.294 . S
O196 C205 1.240 . S
O197 In195 2.326 . S
O197 C205 1.252 . S
C198 O201 1.252 . S
C198 O202 1.260 . S
C199 O206 1.240 . S
C199 O207 1.252 . S
C200 O203 1.252 . S
C200 O204 1.260 . S
O201 In195 2.266 . S
O201 C198 1.252 . S
O202 In195 2.326 . S
O202 C198 1.260 . S
O203 In195 2.266 . S
O203 C200 1.252 . S
O204 In195 2.326 . S
O204 C200 1.260 . S
C205 O196 1.240 . S
C205 O197 1.252 . S
O206 In195 2.294 . S
O206 C199 1.240 . S
O207 In195 2.326 . S
O207 C199 1.252 . S
In208 O209 2.294 . S
In208 O210 2.326 . S
In208 O214 2.266 . S
In208 O215 2.326 . S
In208 O216 2.266 . S
In208 O217 2.326 . S
In208 O219 2.294 . S
In208 O220 2.326 . S
O209 In208 2.294 . S
O209 C218 1.240 . S
O210 In208 2.326 . S
O210 C218 1.252 . S
C211 O214 1.252 . S
C211 O215 1.260 . S
C212 O219 1.240 . S
C212 O220 1.252 . S
C213 O216 1.252 . S
C213 O217 1.260 . S
O214 In208 2.266 . S
O214 C211 1.252 . S
O215 In208 2.326 . S
O215 C211 1.260 . S
O216 In208 2.266 . S
O216 C213 1.252 . S
O217 In208 2.326 . S
O217 C213 1.260 . S
C218 O209 1.240 . S
C218 O210 1.252 . S
O219 In208 2.294 . S
O219 C212 1.240 . S
O220 In208 2.326 . S
O220 C212 1.252 . S
In221 O222 2.294 . S
In221 O223 2.326 . S
In221 O227 2.266 . S
In221 O228 2.326 . S
In221 O229 2.266 . S
In221 O230 2.326 . S
In221 O232 2.294 . S
In221 O233 2.326 . S
O222 In221 2.294 . S
O222 C231 1.240 . S
O223 In221 2.326 . S
O223 C231 1.252 . S
C224 O227 1.252 . S
C224 O228 1.260 . S
C225 O232 1.240 . S
C225 O233 1.252 . S
C226 O229 1.252 . S
C226 O230 1.260 . S
O227 In221 2.266 . S
O227 C224 1.252 . S
O228 In221 2.326 . S
O228 C224 1.260 . S
O229 In221 2.266 . S
O229 C226 1.252 . S
O230 In221 2.326 . S
O230 C226 1.260 . S
C231 O222 1.240 . S
C231 O223 1.252 . S
O232 In221 2.294 . S
O232 C225 1.240 . S
O233 In221 2.326 . S
O233 C225 1.252 . S
In234 O235 2.294 . S
In234 O236 2.326 . S
In234 O240 2.266 . S
In234 O241 2.326 . S
In234 O242 2.266 . S
In234 O243 2.326 . S
In234 O245 2.294 . S
In234 O246 2.326 . S
O235 In234 2.294 . S
O235 C244 1.240 . S
O236 In234 2.326 . S
O236 C244 1.252 . S
C237 O240 1.252 . S
C237 O241 1.260 . S
C238 O245 1.240 . S
C238 O246 1.252 . S
C239 O242 1.252 . S
C239 O243 1.260 . S
O240 In234 2.266 . S
O240 C237 1.252 . S
O241 In234 2.326 . S
O241 C237 1.260 . S
O242 In234 2.266 . S
O242 C239 1.252 . S
O243 In234 2.326 . S
O243 C239 1.260 . S
C244 O235 1.240 . S
C244 O236 1.252 . S
O245 In234 2.294 . S
O245 C238 1.240 . S
O246 In234 2.326 . S
O246 C238 1.252 . S
In247 O248 2.294 . S
In247 O249 2.326 . S
In247 O253 2.266 . S
In247 O254 2.326 . S
In247 O255 2.266 . S
In247 O256 2.326 . S
In247 O258 2.294 . S
In247 O259 2.326 . S
O248 In247 2.294 . S
O248 C257 1.240 . S
O249 In247 2.326 . S
O249 C257 1.252 . S
C250 O253 1.252 . S
C250 O254 1.260 . S
C251 O258 1.240 . S
C251 O259 1.252 . S
C252 O255 1.252 . S
C252 O256 1.260 . S
O253 In247 2.266 . S
O253 C250 1.252 . S
O254 In247 2.326 . S
O254 C250 1.260 . S
O255 In247 2.266 . S
O255 C252 1.252 . S
O256 In247 2.326 . S
O256 C252 1.260 . S
C257 O248 1.240 . S
C257 O249 1.252 . S
O258 In247 2.294 . S
O258 C251 1.240 . S
O259 In247 2.326 . S
O259 C251 1.252 . S
In260 O261 2.294 . S
In260 O262 2.326 . S
In260 O266 2.266 . S
In260 O267 2.326 . S
In260 O268 2.266 . S
In260 O269 2.326 . S
In260 O271 2.294 . S
In260 O272 2.326 . S
O261 In260 2.294 . S
O261 C270 1.240 . S
O262 In260 2.326 . S
O262 C270 1.252 . S
C263 O266 1.252 . S
C263 O267 1.260 . S
C264 O271 1.240 . S
C264 O272 1.252 . S
C265 O268 1.252 . S
C265 O269 1.260 . S
O266 In260 2.266 . S
O266 C263 1.252 . S
O267 In260 2.326 . S
O267 C263 1.260 . S
O268 In260 2.266 . S
O268 C265 1.252 . S
O269 In260 2.326 . S
O269 C265 1.260 . S
C270 O261 1.240 . S
C270 O262 1.252 . S
O271 In260 2.294 . S
O271 C264 1.240 . S
O272 In260 2.326 . S
O272 C264 1.252 . S
In273 O274 2.294 1_556 S
In273 O275 2.326 . S
In273 O279 2.266 . S
In273 O280 2.326 . S
In273 O281 2.266 . S
In273 O282 2.326 . S
In273 O284 2.294 . S
In273 O285 2.326 1_556 S
O274 In273 2.294 1_554 S
O274 C283 1.240 . S
O275 In273 2.326 . S
O275 C283 1.252 1_556 S
C276 O279 1.252 . S
C276 O280 1.260 . S
C277 O284 1.240 . S
C277 O285 1.252 1_556 S
C278 O281 1.252 . S
C278 O282 1.260 . S
O279 In273 2.266 . S
O279 C276 1.252 . S
O280 In273 2.326 . S
O280 C276 1.260 . S
O281 In273 2.266 . S
O281 C278 1.252 . S
O282 In273 2.326 . S
O282 C278 1.260 . S
C283 O274 1.240 . S
C283 O275 1.252 1_554 S
O284 In273 2.294 . S
O284 C277 1.240 . S
O285 In273 2.326 1_554 S
O285 C277 1.252 1_554 S
In286 O287 2.294 1_556 S
In286 O288 2.326 . S
In286 O292 2.266 . S
In286 O293 2.326 . S
In286 O294 2.266 . S
In286 O295 2.326 . S
In286 O297 2.294 . S
In286 O298 2.326 1_556 S
O287 In286 2.294 1_554 S
O287 C296 1.240 . S
O288 In286 2.326 . S
O288 C296 1.252 1_556 S
C289 O292 1.252 . S
C289 O293 1.260 . S
C290 O297 1.240 . S
C290 O298 1.252 1_556 S
C291 O294 1.252 . S
C291 O295 1.260 . S
O292 In286 2.266 . S
O292 C289 1.252 . S
O293 In286 2.326 . S
O293 C289 1.260 . S
O294 In286 2.266 . S
O294 C291 1.252 . S
O295 In286 2.326 . S
O295 C291 1.260 . S
C296 O287 1.240 . S
C296 O288 1.252 1_554 S
O297 In286 2.294 . S
O297 C290 1.240 . S
O298 In286 2.326 1_554 S
O298 C290 1.252 1_554 S
In299 O300 2.294 . S
In299 O301 2.326 1_556 S
In299 O305 2.266 . S
In299 O306 2.326 . S
In299 O307 2.266 . S
In299 O308 2.326 . S
In299 O310 2.294 1_556 S
In299 O311 2.326 . S
O300 In299 2.294 . S
O300 C309 1.240 . S
O301 In299 2.326 1_554 S
O301 C309 1.252 1_554 S
C302 O305 1.252 . S
C302 O306 1.260 . S
C303 O310 1.240 . S
C303 O311 1.252 1_554 S
C304 O307 1.252 . S
C304 O308 1.260 . S
O305 In299 2.266 . S
O305 C302 1.252 . S
O306 In299 2.326 . S
O306 C302 1.260 . S
O307 In299 2.266 . S
O307 C304 1.252 . S
O308 In299 2.326 . S
O308 C304 1.260 . S
C309 O300 1.240 . S
C309 O301 1.252 1_556 S
O310 In299 2.294 1_554 S
O310 C303 1.240 . S
O311 In299 2.326 . S
O311 C303 1.252 1_556 S
In312 O313 2.294 . S
In312 O314 2.326 . S
In312 O318 2.266 . S
In312 O319 2.326 . S
In312 O320 2.266 . S
In312 O321 2.326 . S
In312 O323 2.294 . S
In312 O324 2.326 . S
O313 In312 2.294 . S
O313 C322 1.240 . S
O314 In312 2.326 . S
O314 C322 1.252 . S
C315 O318 1.252 . S
C315 O319 1.260 . S
C316 O323 1.240 . S
C316 O324 1.252 . S
C317 O320 1.252 . S
C317 O321 1.260 . S
O318 In312 2.266 . S
O318 C315 1.252 . S
O319 In312 2.326 . S
O319 C315 1.260 . S
O320 In312 2.266 . S
O320 C317 1.252 . S
O321 In312 2.326 . S
O321 C317 1.260 . S
C322 O313 1.240 . S
C322 O314 1.252 . S
O323 In312 2.294 . S
O323 C316 1.240 . S
O324 In312 2.326 . S
O324 C316 1.252 . S
In325 O326 2.294 . S
In325 O327 2.326 . S
In325 O331 2.266 . S
In325 O332 2.326 . S
In325 O333 2.266 . S
In325 O334 2.326 . S
In325 O336 2.294 . S
In325 O337 2.326 . S
O326 In325 2.294 . S
O326 C335 1.240 . S
O327 In325 2.326 . S
O327 C335 1.252 . S
C328 O331 1.252 . S
C328 O332 1.260 . S
C329 O336 1.240 . S
C329 O337 1.252 . S
C330 O333 1.252 . S
C330 O334 1.260 . S
O331 In325 2.266 . S
O331 C328 1.252 . S
O332 In325 2.326 . S
O332 C328 1.260 . S
O333 In325 2.266 . S
O333 C330 1.252 . S
O334 In325 2.326 . S
O334 C330 1.260 . S
C335 O326 1.240 . S
C335 O327 1.252 . S
O336 In325 2.294 . S
O336 C329 1.240 . S
O337 In325 2.326 . S
O337 C329 1.252 . S
In338 O339 2.294 . S
In338 O340 2.326 . S
In338 O344 2.266 . S
In338 O345 2.326 . S
In338 O346 2.266 . S
In338 O347 2.326 . S
In338 O349 2.294 . S
In338 O350 2.326 . S
O339 In338 2.294 . S
O339 C348 1.240 . S
O340 In338 2.326 . S
O340 C348 1.252 . S
C341 O344 1.252 . S
C341 O345 1.260 . S
C342 O349 1.240 . S
C342 O350 1.252 . S
C343 O346 1.252 . S
C343 O347 1.260 . S
O344 In338 2.266 . S
O344 C341 1.252 . S
O345 In338 2.326 . S
O345 C341 1.260 . S
O346 In338 2.266 . S
O346 C343 1.252 . S
O347 In338 2.326 . S
O347 C343 1.260 . S
C348 O339 1.240 . S
C348 O340 1.252 . S
O349 In338 2.294 . S
O349 C342 1.240 . S
O350 In338 2.326 . S
O350 C342 1.252 . S
In351 O352 2.294 . S
In351 O353 2.326 1_554 S
In351 O357 2.266 . S
In351 O358 2.326 . S
In351 O359 2.266 . S
In351 O360 2.326 . S
In351 O362 2.294 1_554 S
In351 O363 2.326 . S
O352 In351 2.294 . S
O352 C361 1.240 . S
O353 In351 2.326 1_556 S
O353 C361 1.252 1_556 S
C354 O357 1.252 . S
C354 O358 1.260 . S
C355 O362 1.240 . S
C355 O363 1.252 1_556 S
C356 O359 1.252 . S
C356 O360 1.260 . S
O357 In351 2.266 . S
O357 C354 1.252 . S
O358 In351 2.326 . S
O358 C354 1.260 . S
O359 In351 2.266 . S
O359 C356 1.252 . S
O360 In351 2.326 . S
O360 C356 1.260 . S
C361 O352 1.240 . S
C361 O353 1.252 1_554 S
O362 In351 2.294 1_556 S
O362 C355 1.240 . S
O363 In351 2.326 . S
O363 C355 1.252 1_554 S
In364 O365 2.294 . S
In364 O366 2.326 1_554 S
In364 O370 2.266 . S
In364 O371 2.326 . S
In364 O372 2.266 . S
In364 O373 2.326 . S
In364 O375 2.294 1_554 S
In364 O376 2.326 . S
O365 In364 2.294 . S
O365 C374 1.240 . S
O366 In364 2.326 1_556 S
O366 C374 1.252 1_556 S
C367 O370 1.252 . S
C367 O371 1.260 . S
C368 O375 1.240 . S
C368 O376 1.252 1_556 S
C369 O372 1.252 . S
C369 O373 1.260 . S
O370 In364 2.266 . S
O370 C367 1.252 . S
O371 In364 2.326 . S
O371 C367 1.260 . S
O372 In364 2.266 . S
O372 C369 1.252 . S
O373 In364 2.326 . S
O373 C369 1.260 . S
C374 O365 1.240 . S
C374 O366 1.252 1_554 S
O375 In364 2.294 1_556 S
O375 C368 1.240 . S
O376 In364 2.326 . S
O376 C368 1.252 1_554 S
In377 O378 2.294 . S
In377 O379 2.326 1_554 S
In377 O383 2.266 . S
In377 O384 2.326 . S
In377 O385 2.266 . S
In377 O386 2.326 . S
In377 O388 2.294 1_554 S
In377 O389 2.326 . S
O378 In377 2.294 . S
O378 C387 1.240 . S
O379 In377 2.326 1_556 S
O379 C387 1.252 1_556 S
C380 O383 1.252 . S
C380 O384 1.260 . S
C381 O388 1.240 . S
C381 O389 1.252 1_556 S
C382 O385 1.252 . S
C382 O386 1.260 . S
O383 In377 2.266 . S
O383 C380 1.252 . S
O384 In377 2.326 . S
O384 C380 1.260 . S
O385 In377 2.266 . S
O385 C382 1.252 . S
O386 In377 2.326 . S
O386 C382 1.260 . S
C387 O378 1.240 . S
C387 O379 1.252 1_554 S
O388 In377 2.294 1_556 S
O388 C381 1.240 . S
O389 In377 2.326 . S
O389 C381 1.252 1_554 S
In390 O391 2.294 . S
In390 O392 2.326 . S
In390 O396 2.266 . S
In390 O397 2.326 . S
In390 O398 2.266 . S
In390 O399 2.326 . S
In390 O401 2.294 . S
In390 O402 2.326 . S
O391 In390 2.294 . S
O391 C400 1.240 . S
O392 In390 2.326 . S
O392 C400 1.252 . S
C393 O396 1.252 . S
C393 O397 1.260 . S
C394 O401 1.240 . S
C394 O402 1.252 . S
C395 O398 1.252 . S
C395 O399 1.260 . S
O396 In390 2.266 . S
O396 C393 1.252 . S
O397 In390 2.326 . S
O397 C393 1.260 . S
O398 In390 2.266 . S
O398 C395 1.252 . S
O399 In390 2.326 . S
O399 C395 1.260 . S
C400 O391 1.240 . S
C400 O392 1.252 . S
O401 In390 2.294 . S
O401 C394 1.240 . S
O402 In390 2.326 . S
O402 C394 1.252 . S
In403 O404 2.294 . S
In403 O405 2.326 . S
In403 O409 2.266 . S
In403 O410 2.326 . S
In403 O411 2.266 . S
In403 O412 2.326 . S
In403 O414 2.294 . S
In403 O415 2.326 . S
O404 In403 2.294 . S
O404 C413 1.240 . S
O405 In403 2.326 . S
O405 C413 1.252 . S
C406 O409 1.252 . S
C406 O410 1.260 . S
C407 O414 1.240 . S
C407 O415 1.252 . S
C408 O411 1.252 . S
C408 O412 1.260 . S
O409 In403 2.266 . S
O409 C406 1.252 . S
O410 In403 2.326 . S
O410 C406 1.260 . S
O411 In403 2.266 . S
O411 C408 1.252 . S
O412 In403 2.326 . S
O412 C408 1.260 . S
C413 O404 1.240 . S
C413 O405 1.252 . S
O414 In403 2.294 . S
O414 C407 1.240 . S
O415 In403 2.326 . S
O415 C407 1.252 . S
In416 O417 2.294 . S
In416 O418 2.326 . S
In416 O422 2.266 . S
In416 O423 2.326 . S
In416 O424 2.266 . S
In416 O425 2.326 . S
In416 O427 2.294 . S
In416 O428 2.326 . S
O417 In416 2.294 . S
O417 C426 1.240 . S
O418 In416 2.326 . S
O418 C426 1.252 . S
C419 O422 1.252 . S
C419 O423 1.260 . S
C420 O427 1.240 . S
C420 O428 1.252 . S
C421 O424 1.252 . S
C421 O425 1.260 . S
O422 In416 2.266 . S
O422 C419 1.252 . S
O423 In416 2.326 . S
O423 C419 1.260 . S
O424 In416 2.266 . S
O424 C421 1.252 . S
O425 In416 2.326 . S
O425 C421 1.260 . S
C426 O417 1.240 . S
C426 O418 1.252 . S
O427 In416 2.294 . S
O427 C420 1.240 . S
O428 In416 2.326 . S
O428 C420 1.252 . S
In429 O430 2.294 . S
In429 O431 2.326 . S
In429 O435 2.266 . S
In429 O436 2.326 . S
In429 O437 2.266 . S
In429 O438 2.326 . S
In429 O440 2.294 . S
In429 O441 2.326 . S
O430 In429 2.294 . S
O430 C439 1.240 . S
O431 In429 2.326 . S
O431 C439 1.252 . S
C432 O435 1.252 . S
C432 O436 1.260 . S
C433 O440 1.240 . S
C433 O441 1.252 . S
C434 O437 1.252 . S
C434 O438 1.260 . S
O435 In429 2.266 . S
O435 C432 1.252 . S
O436 In429 2.326 . S
O436 C432 1.260 . S
O437 In429 2.266 . S
O437 C434 1.252 . S
O438 In429 2.326 . S
O438 C434 1.260 . S
C439 O430 1.240 . S
C439 O431 1.252 . S
O440 In429 2.294 . S
O440 C433 1.240 . S
O441 In429 2.326 . S
O441 C433 1.252 . S
In442 O443 2.294 . S
In442 O444 2.326 . S
In442 O448 2.266 . S
In442 O449 2.326 . S
In442 O450 2.266 . S
In442 O451 2.326 . S
In442 O453 2.294 . S
In442 O454 2.326 . S
O443 In442 2.294 . S
O443 C452 1.240 . S
O444 In442 2.326 . S
O444 C452 1.252 . S
C445 O448 1.252 . S
C445 O449 1.260 . S
C446 O453 1.240 . S
C446 O454 1.252 . S
C447 O450 1.252 . S
C447 O451 1.260 . S
O448 In442 2.266 . S
O448 C445 1.252 . S
O449 In442 2.326 . S
O449 C445 1.260 . S
O450 In442 2.266 . S
O450 C447 1.252 . S
O451 In442 2.326 . S
O451 C447 1.260 . S
C452 O443 1.240 . S
C452 O444 1.252 . S
O453 In442 2.294 . S
O453 C446 1.240 . S
O454 In442 2.326 . S
O454 C446 1.252 . S
In455 O456 2.294 . S
In455 O457 2.326 . S
In455 O461 2.266 . S
In455 O462 2.326 . S
In455 O463 2.266 . S
In455 O464 2.326 . S
In455 O466 2.294 . S
In455 O467 2.326 . S
O456 In455 2.294 . S
O456 C465 1.240 . S
O457 In455 2.326 . S
O457 C465 1.252 . S
C458 O461 1.252 . S
C458 O462 1.260 . S
C459 O466 1.240 . S
C459 O467 1.252 . S
C460 O463 1.252 . S
C460 O464 1.260 . S
O461 In455 2.266 . S
O461 C458 1.252 . S
O462 In455 2.326 . S
O462 C458 1.260 . S
O463 In455 2.266 . S
O463 C460 1.252 . S
O464 In455 2.326 . S
O464 C460 1.260 . S
C465 O456 1.240 . S
C465 O457 1.252 . S
O466 In455 2.294 . S
O466 C459 1.240 . S
O467 In455 2.326 . S
O467 C459 1.252 . S
C468 C469 1.354 1_545 S
C468 C470 1.447 . S
C468 H472 0.919 . S
C469 C468 1.354 1_565 S
C469 C478 1.429 . S
C470 C468 1.447 . S
C470 C471 1.363 . S
C470 H473 0.929 . S
C471 C470 1.363 . S
C471 C477 1.428 1_545 S
H472 C468 0.919 . S
H473 C470 0.929 . S
S474 N475 1.613 . S
S474 N476 1.610 . S
N475 S474 1.613 . S
N475 C478 1.350 . S
N476 S474 1.610 . S
N476 C477 1.351 . S
C477 C471 1.428 1_565 S
C477 N476 1.351 . S
C477 C478 1.434 . S
C478 C469 1.429 . S
C478 N475 1.350 . S
C478 C477 1.434 . S
C479 C480 1.369 . S
C479 C481 1.448 . S
C479 H483 0.930 . S
C480 C479 1.369 . S
C480 C489 1.429 1_655 S
C481 C479 1.448 . S
C481 C482 1.315 1_655 S
C481 H484 0.951 . S
C482 C481 1.315 1_455 S
C482 C488 1.428 . S
H483 C479 0.930 . S
H484 C481 0.951 . S
S485 N486 1.613 . S
S485 N487 1.610 . S
N486 S485 1.613 . S
N486 C489 1.350 . S
N487 S485 1.610 . S
N487 C488 1.351 . S
C488 C482 1.428 . S
C488 N487 1.351 . S
C488 C489 1.434 . S
C489 C480 1.429 1_455 S
C489 N486 1.350 . S
C489 C488 1.434 . S
C490 C491 1.369 . S
C490 C492 1.419 . S
C490 H494 0.930 . S
C491 C490 1.369 . S
C491 C500 1.429 . S
C492 C490 1.419 . S
C492 C493 1.363 . S
C492 H495 0.929 . S
C493 C492 1.363 . S
C493 C499 1.428 . S
H494 C490 0.930 . S
H495 C492 0.929 . S
S496 N497 1.613 . S
S496 N498 1.610 . S
N497 S496 1.613 . S
N497 C500 1.350 . S
N498 S496 1.610 . S
N498 C499 1.351 . S
C499 C493 1.428 . S
C499 N498 1.351 . S
C499 C500 1.434 . S
C500 C491 1.429 . S
C500 N497 1.350 . S
C500 C499 1.434 . S
C501 C502 1.369 1_545 S
C501 C503 1.419 . S
C501 H505 0.930 . S
C502 C501 1.369 1_565 S
C502 C511 1.429 . S
C503 C501 1.419 . S
C503 C504 1.363 . S
C503 H506 0.929 . S
C504 C503 1.363 . S
C504 C510 1.428 1_545 S
H505 C501 0.930 . S
H506 C503 0.929 . S
S507 N508 1.613 . S
S507 N509 1.610 . S
N508 S507 1.613 . S
N508 C511 1.350 . S
N509 S507 1.610 . S
N509 C510 1.351 . S
C510 C504 1.428 1_565 S
C510 N509 1.351 . S
C510 C511 1.434 . S
C511 C502 1.429 . S
C511 N508 1.350 . S
C511 C510 1.434 . S
C512 C513 1.369 . S
C512 C514 1.419 . S
C512 H516 0.930 . S
C513 C512 1.369 . S
C513 C522 1.429 1_455 S
C514 C512 1.419 . S
C514 C515 1.363 1_455 S
C514 H517 0.929 . S
C515 C514 1.363 1_655 S
C515 C521 1.428 . S
H516 C512 0.930 . S
H517 C514 0.929 . S
S518 N519 1.613 . S
S518 N520 1.610 . S
N519 S518 1.613 . S
N519 C522 1.350 . S
N520 S518 1.610 . S
N520 C521 1.351 . S
C521 C515 1.428 . S
C521 N520 1.351 . S
C521 C522 1.434 . S
C522 C513 1.429 1_655 S
C522 N519 1.350 . S
C522 C521 1.434 . S
C523 C524 1.369 . S
C523 C525 1.419 . S
C523 H527 0.930 . S
C524 C523 1.369 . S
C524 C533 1.429 . S
C525 C523 1.419 . S
C525 C526 1.363 . S
C525 H528 0.929 . S
C526 C525 1.363 . S
C526 C532 1.428 . S
H527 C523 0.930 . S
H528 C525 0.929 . S
S529 N530 1.613 . S
S529 N531 1.610 . S
N530 S529 1.613 . S
N530 C533 1.350 . S
N531 S529 1.610 . S
N531 C532 1.351 . S
C532 C526 1.428 . S
C532 N531 1.351 . S
C532 C533 1.434 . S
C533 C524 1.429 . S
C533 N530 1.350 . S
C533 C532 1.434 . S
C534 C535 1.369 . S
C534 C536 1.419 . S
C534 H538 0.930 . S
C535 C534 1.369 . S
C535 C544 1.429 . S
C536 C534 1.419 . S
C536 C537 1.363 . S
C536 H539 0.929 . S
C537 C536 1.363 . S
C537 C543 1.428 . S
H538 C534 0.930 . S
H539 C536 0.929 . S
S540 N541 1.613 . S
S540 N542 1.610 . S
N541 S540 1.613 . S
N541 C544 1.350 . S
N542 S540 1.610 . S
N542 C543 1.351 . S
C543 C537 1.428 . S
C543 N542 1.351 . S
C543 C544 1.434 . S
C544 C535 1.429 . S
C544 N541 1.350 . S
C544 C543 1.434 . S
C545 C546 1.369 . S
C545 C547 1.419 . S
C545 H549 0.930 . S
C546 C545 1.369 . S
C546 C555 1.429 . S
C547 C545 1.419 . S
C547 C548 1.363 . S
C547 H550 0.929 . S
C548 C547 1.363 . S
C548 C554 1.428 . S
H549 C545 0.930 . S
H550 C547 0.929 . S
S551 N552 1.613 . S
S551 N553 1.610 . S
N552 S551 1.613 . S
N552 C555 1.350 . S
N553 S551 1.610 . S
N553 C554 1.351 . S
C554 C548 1.428 . S
C554 N553 1.351 . S
C554 C555 1.434 . S
C555 C546 1.429 . S
C555 N552 1.350 . S
C555 C554 1.434 . S
C556 C557 1.369 . S
C556 C558 1.419 . S
C556 H560 0.930 . S
C557 C556 1.369 . S
C557 C566 1.429 . S
C558 C556 1.419 . S
C558 C559 1.363 . S
C558 H561 0.929 . S
C559 C558 1.363 . S
C559 C565 1.428 . S
H560 C556 0.930 . S
H561 C558 0.929 . S
S562 N563 1.613 . S
S562 N564 1.610 . S
N563 S562 1.613 . S
N563 C566 1.350 . S
N564 S562 1.610 . S
N564 C565 1.351 . S
C565 C559 1.428 . S
C565 N564 1.351 . S
C565 C566 1.434 . S
C566 C557 1.429 . S
C566 N563 1.350 . S
C566 C565 1.434 . S
C567 C568 1.369 . S
C567 C569 1.419 . S
C567 H571 0.930 . S
C568 C567 1.369 . S
C568 C577 1.429 . S
C569 C567 1.419 . S
C569 C570 1.363 . S
C569 H572 0.929 . S
C570 C569 1.363 . S
C570 C576 1.428 . S
H571 C567 0.930 . S
H572 C569 0.929 . S
S573 N574 1.613 1_556 S
S573 N575 1.610 . S
N574 S573 1.613 1_554 S
N574 C577 1.350 . S
N575 S573 1.610 . S
N575 C576 1.351 1_556 S
C576 C570 1.428 . S
C576 N575 1.351 1_554 S
C576 C577 1.434 . S
C577 C568 1.429 . S
C577 N574 1.350 . S
C577 C576 1.434 . S
C578 C579 1.369 . S
C578 C580 1.419 . S
C578 H582 0.930 . S
C579 C578 1.369 . S
C579 C588 1.429 . S
C580 C578 1.419 . S
C580 C581 1.363 . S
C580 H583 0.929 . S
C581 C580 1.363 . S
C581 C587 1.428 . S
H582 C578 0.930 . S
H583 C580 0.929 . S
S584 N585 1.613 1_556 S
S584 N586 1.610 . S
N585 S584 1.613 1_554 S
N585 C588 1.350 . S
N586 S584 1.610 . S
N586 C587 1.351 1_556 S
C587 C581 1.428 . S
C587 N586 1.351 1_554 S
C587 C588 1.434 . S
C588 C579 1.429 . S
C588 N585 1.350 . S
C588 C587 1.434 . S
C589 C590 1.369 . S
C589 C591 1.419 . S
C589 H593 0.930 . S
C590 C589 1.369 . S
C590 C599 1.429 . S
C591 C589 1.419 . S
C591 C592 1.363 . S
C591 H594 0.929 1_554 S
C592 C591 1.363 . S
C592 C598 1.428 . S
H593 C589 0.930 . S
H594 C591 0.929 1_556 S
S595 N596 1.613 . S
S595 N597 1.610 . S
N596 S595 1.613 . S
N596 C599 1.350 . S
N597 S595 1.610 . S
N597 C598 1.351 . S
C598 C592 1.428 . S
C598 N597 1.351 . S
C598 C599 1.434 . S
C599 C590 1.429 . S
C599 N596 1.350 . S
C599 C598 1.434 . S
C600 C601 1.369 . S
C600 C602 1.419 . S
C600 H604 0.930 . S
C601 C600 1.369 . S
C601 C610 1.429 . S
C602 C600 1.419 . S
C602 C603 1.363 . S
C602 H605 0.929 . S
C603 C602 1.363 . S
C603 C609 1.428 . S
H604 C600 0.930 . S
H605 C602 0.929 . S
S606 N607 1.613 1_554 S
S606 N608 1.610 . S
N607 S606 1.613 1_556 S
N607 C610 1.350 . S
N608 S606 1.610 . S
N608 C609 1.351 1_554 S
C609 C603 1.428 . S
C609 N608 1.351 1_556 S
C609 C610 1.434 . S
C610 C601 1.429 . S
C610 N607 1.350 . S
C610 C609 1.434 . S
C611 C612 1.369 . S
C611 C613 1.419 . S
C611 H615 0.930 1_556 S
C612 C611 1.369 . S
C612 C621 1.429 . S
C613 C611 1.419 . S
C613 C614 1.363 . S
C613 H616 0.929 . S
C614 C613 1.363 . S
C614 C620 1.428 . S
H615 C611 0.930 1_554 S
H616 C613 0.929 . S
S617 N618 1.613 . S
S617 N619 1.610 . S
N618 S617 1.613 . S
N618 C621 1.350 . S
N619 S617 1.610 . S
N619 C620 1.351 . S
C620 C614 1.428 . S
C620 N619 1.351 . S
C620 C621 1.434 . S
C621 C612 1.429 . S
C621 N618 1.350 . S
C621 C620 1.434 . S
C622 C623 1.369 . S
C622 C624 1.419 . S
C622 H626 0.930 . S
C623 C622 1.369 . S
C623 C632 1.429 . S
C624 C622 1.419 . S
C624 C625 1.363 . S
C624 H627 0.929 . S
C625 C624 1.363 . S
C625 C631 1.428 . S
H626 C622 0.930 . S
H627 C624 0.929 . S
S628 N629 1.613 . S
S628 N630 1.610 . S
N629 S628 1.613 . S
N629 C632 1.350 . S
N630 S628 1.610 . S
N630 C631 1.351 . S
C631 C625 1.428 . S
C631 N630 1.351 . S
C631 C632 1.434 . S
C632 C623 1.429 . S
C632 N629 1.350 . S
C632 C631 1.434 . S
C633 C634 1.369 . S
C633 C635 1.419 . S
C633 H637 0.930 . S
C634 C633 1.369 . S
C634 C643 1.429 . S
C635 C633 1.419 . S
C635 C636 1.363 . S
C635 H638 0.929 . S
C636 C635 1.363 . S
C636 C642 1.428 . S
H637 C633 0.930 . S
H638 C635 0.929 . S
S639 N640 1.613 . S
S639 N641 1.610 . S
N640 S639 1.613 . S
N640 C643 1.350 . S
N641 S639 1.610 . S
N641 C642 1.351 . S
C642 C636 1.428 . S
C642 N641 1.351 . S
C642 C643 1.434 . S
C643 C634 1.429 . S
C643 N640 1.350 . S
C643 C642 1.434 . S
C644 C645 1.369 . S
C644 C646 1.419 . S
C644 H648 0.930 . S
C645 C644 1.369 . S
C645 C654 1.429 . S
C646 C644 1.419 . S
C646 C647 1.363 . S
C646 H649 0.929 . S
C647 C646 1.363 . S
C647 C653 1.428 . S
H648 C644 0.930 . S
H649 C646 0.929 . S
S650 N651 1.613 . S
S650 N652 1.610 . S
N651 S650 1.613 . S
N651 C654 1.350 . S
N652 S650 1.610 . S
N652 C653 1.351 . S
C653 C647 1.428 . S
C653 N652 1.351 . S
C653 C654 1.434 . S
C654 C645 1.429 . S
C654 N651 1.350 . S
C654 C653 1.434 . S
C655 C656 1.369 . S
C655 C657 1.419 . S
C655 H659 0.930 . S
C656 C655 1.369 . S
C656 C665 1.429 . S
C657 C655 1.419 . S
C657 C658 1.363 . S
C657 H660 0.929 . S
C658 C657 1.363 . S
C658 C664 1.428 . S
H659 C655 0.930 . S
H660 C657 0.929 . S
S661 N662 1.613 . S
S661 N663 1.610 . S
N662 S661 1.613 . S
N662 C665 1.350 . S
N663 S661 1.610 . S
N663 C664 1.351 . S
C664 C658 1.428 . S
C664 N663 1.351 . S
C664 C665 1.434 . S
C665 C656 1.429 . S
C665 N662 1.350 . S
C665 C664 1.434 . S
C666 C667 1.369 . S
C666 C668 1.419 . S
C666 H670 0.930 . S
C667 C666 1.369 . S
C667 C676 1.429 . S
C668 C666 1.419 . S
C668 C669 1.363 . S
C668 H671 0.929 . S
C669 C668 1.363 . S
C669 C675 1.428 . S
H670 C666 0.930 . S
H671 C668 0.929 . S
S672 N673 1.613 . S
S672 N674 1.610 . S
N673 S672 1.613 . S
N673 C676 1.350 . S
N674 S672 1.610 . S
N674 C675 1.351 . S
C675 C669 1.428 . S
C675 N674 1.351 . S
C675 C676 1.434 . S
C676 C667 1.429 . S
C676 N673 1.350 . S
C676 C675 1.434 . S
C677 C678 1.369 . S
C677 C679 1.419 . S
C677 H681 0.930 . S
C678 C677 1.369 . S
C678 C687 1.429 . S
C679 C677 1.419 . S
C679 C680 1.363 . S
C679 H682 0.929 . S
C680 C679 1.363 . S
C680 C686 1.428 . S
H681 C677 0.930 . S
H682 C679 0.929 . S
S683 N684 1.613 . S
S683 N685 1.610 . S
N684 S683 1.613 . S
N684 C687 1.350 . S
N685 S683 1.610 . S
N685 C686 1.351 . S
C686 C680 1.428 . S
C686 N685 1.351 . S
C686 C687 1.434 . S
C687 C678 1.429 . S
C687 N684 1.350 . S
C687 C686 1.434 . S
C688 C689 1.369 . S
C688 C690 1.419 . S
C688 H692 0.930 . S
C689 C688 1.369 . S
C689 C698 1.429 . S
C690 C688 1.419 . S
C690 C691 1.363 . S
C690 H693 0.929 . S
C691 C690 1.363 . S
C691 C697 1.428 . S
H692 C688 0.930 . S
H693 C690 0.929 . S
S694 N695 1.613 . S
S694 N696 1.610 . S
N695 S694 1.613 . S
N695 C698 1.350 . S
N696 S694 1.610 . S
N696 C697 1.351 . S
C697 C691 1.428 . S
C697 N696 1.351 . S
C697 C698 1.434 . S
C698 C689 1.429 . S
C698 N695 1.350 . S
C698 C697 1.434 . S
C699 C700 1.369 . S
C699 C701 1.419 . S
C699 H703 0.930 . S
C700 C699 1.369 . S
C700 C709 1.429 . S
C701 C699 1.419 . S
C701 C702 1.363 . S
C701 H704 0.929 . S
C702 C701 1.363 . S
C702 C708 1.428 . S
H703 C699 0.930 . S
H704 C701 0.929 . S
S705 N706 1.613 . S
S705 N707 1.610 . S
N706 S705 1.613 . S
N706 C709 1.350 . S
N707 S705 1.610 . S
N707 C708 1.351 . S
C708 C702 1.428 . S
C708 N707 1.351 . S
C708 C709 1.434 . S
C709 C700 1.429 . S
C709 N706 1.350 . S
C709 C708 1.434 . S
C710 C711 1.369 . S
C710 C712 1.419 . S
C710 H714 0.930 . S
C711 C710 1.369 . S
C711 C720 1.429 . S
C712 C710 1.419 . S
C712 C713 1.363 . S
C712 H715 0.929 . S
C713 C712 1.363 . S
C713 C719 1.428 . S
H714 C710 0.930 . S
H715 C712 0.929 . S
S716 N717 1.613 . S
S716 N718 1.610 . S
N717 S716 1.613 . S
N717 C720 1.350 . S
N718 S716 1.610 . S
N718 C719 1.351 . S
C719 C713 1.428 . S
C719 N718 1.351 . S
C719 C720 1.434 . S
C720 C711 1.429 . S
C720 N717 1.350 . S
C720 C719 1.434 . S
C721 C722 1.369 . S
C721 C723 1.419 . S
C721 H725 0.930 . S
C722 C721 1.369 . S
C722 C731 1.429 . S
C723 C721 1.419 . S
C723 C724 1.363 . S
C723 H726 0.929 . S
C724 C723 1.363 . S
C724 C730 1.428 . S
H725 C721 0.930 . S
H726 C723 0.929 . S
S727 N728 1.613 . S
S727 N729 1.610 . S
N728 S727 1.613 . S
N728 C731 1.350 . S
N729 S727 1.610 . S
N729 C730 1.351 . S
C730 C724 1.428 . S
C730 N729 1.351 . S
C730 C731 1.434 . S
C731 C722 1.429 . S
C731 N728 1.350 . S
C731 C730 1.434 . S
C732 C733 1.369 . S
C732 C734 1.419 . S
C732 H736 0.930 . S
C733 C732 1.369 . S
C733 C742 1.429 . S
C734 C732 1.419 . S
C734 C735 1.363 . S
C734 H737 0.929 . S
C735 C734 1.363 . S
C735 C741 1.428 . S
H736 C732 0.930 . S
H737 C734 0.929 . S
S738 N739 1.613 . S
S738 N740 1.610 . S
N739 S738 1.613 . S
N739 C742 1.350 . S
N740 S738 1.610 . S
N740 C741 1.351 . S
C741 C735 1.428 . S
C741 N740 1.351 . S
C741 C742 1.434 . S
C742 C733 1.429 . S
C742 N739 1.350 . S
C742 C741 1.434 . S
C743 C744 1.369 . S
C743 C745 1.419 . S
C743 H747 0.930 . S
C744 C743 1.369 . S
C744 C753 1.429 . S
C745 C743 1.419 . S
C745 C746 1.363 . S
C745 H748 0.929 . S
C746 C745 1.363 . S
C746 C752 1.428 . S
H747 C743 0.930 . S
H748 C745 0.929 . S
S749 N750 1.613 . S
S749 N751 1.610 . S
N750 S749 1.613 . S
N750 C753 1.350 . S
N751 S749 1.610 . S
N751 C752 1.351 . S
C752 C746 1.428 . S
C752 N751 1.351 . S
C752 C753 1.434 . S
C753 C744 1.429 . S
C753 N750 1.350 . S
C753 C752 1.434 . S
C754 C755 1.369 . S
C754 C756 1.419 . S
C754 H758 0.930 . S
C755 C754 1.369 . S
C755 C764 1.429 . S
C756 C754 1.419 . S
C756 C757 1.363 . S
C756 H759 0.929 . S
C757 C756 1.363 . S
C757 C763 1.428 . S
H758 C754 0.930 . S
H759 C756 0.929 . S
S760 N761 1.613 . S
S760 N762 1.610 . S
N761 S760 1.613 . S
N761 C764 1.350 . S
N762 S760 1.610 . S
N762 C763 1.351 . S
C763 C757 1.428 . S
C763 N762 1.351 . S
C763 C764 1.434 . S
C764 C755 1.429 . S
C764 N761 1.350 . S
C764 C763 1.434 . S
C765 C766 1.369 . S
C765 C767 1.419 . S
C765 H769 0.930 . S
C766 C765 1.369 . S
C766 C775 1.429 . S
C767 C765 1.419 . S
C767 C768 1.363 . S
C767 H770 0.929 . S
C768 C767 1.363 . S
C768 C774 1.428 . S
H769 C765 0.930 . S
H770 C767 0.929 . S
S771 N772 1.613 . S
S771 N773 1.610 . S
N772 S771 1.613 . S
N772 C775 1.350 . S
N773 S771 1.610 . S
N773 C774 1.351 . S
C774 C768 1.428 . S
C774 N773 1.351 . S
C774 C775 1.434 . S
C775 C766 1.429 . S
C775 N772 1.350 . S
C775 C774 1.434 . S
C776 C777 1.369 . S
C776 C778 1.419 . S
C776 H780 0.930 . S
C777 C776 1.369 . S
C777 C786 1.429 . S
C778 C776 1.419 . S
C778 C779 1.363 . S
C778 H781 0.929 . S
C779 C778 1.363 . S
C779 C785 1.428 . S
H780 C776 0.930 . S
H781 C778 0.929 . S
S782 N783 1.613 . S
S782 N784 1.610 . S
N783 S782 1.613 . S
N783 C786 1.350 . S
N784 S782 1.610 . S
N784 C785 1.351 . S
C785 C779 1.428 . S
C785 N784 1.351 . S
C785 C786 1.434 . S
C786 C777 1.429 . S
C786 N783 1.350 . S
C786 C785 1.434 . S
C787 C788 1.369 . S
C787 C789 1.419 . S
C787 H791 0.930 . S
C788 C787 1.369 . S
C788 C797 1.429 . S
C789 C787 1.419 . S
C789 C790 1.363 . S
C789 H792 0.929 . S
C790 C789 1.363 . S
C790 C796 1.428 . S
H791 C787 0.930 . S
H792 C789 0.929 . S
S793 N794 1.613 . S
S793 N795 1.610 . S
N794 S793 1.613 . S
N794 C797 1.350 . S
N795 S793 1.610 . S
N795 C796 1.351 . S
C796 C790 1.428 . S
C796 N795 1.351 . S
C796 C797 1.434 . S
C797 C788 1.429 . S
C797 N794 1.350 . S
C797 C796 1.434 . S
C798 C799 1.369 . S
C798 C800 1.419 . S
C798 H802 0.930 . S
C799 C798 1.369 . S
C799 C808 1.429 . S
C800 C798 1.419 . S
C800 C801 1.363 . S
C800 H803 0.929 . S
C801 C800 1.363 . S
C801 C807 1.428 . S
H802 C798 0.930 . S
H803 C800 0.929 . S
S804 N805 1.613 . S
S804 N806 1.610 . S
N805 S804 1.613 . S
N805 C808 1.350 . S
N806 S804 1.610 . S
N806 C807 1.351 . S
C807 C801 1.428 . S
C807 N806 1.351 . S
C807 C808 1.434 . S
C808 C799 1.429 . S
C808 N805 1.350 . S
C808 C807 1.434 . S
C809 C810 1.369 . S
C809 C811 1.419 . S
C809 H813 0.930 . S
C810 C809 1.369 . S
C810 C819 1.429 . S
C811 C809 1.419 . S
C811 C812 1.363 . S
C811 H814 0.929 . S
C812 C811 1.363 . S
C812 C818 1.428 . S
H813 C809 0.930 . S
H814 C811 0.929 . S
S815 N816 1.613 . S
S815 N817 1.610 . S
N816 S815 1.613 . S
N816 C819 1.350 . S
N817 S815 1.610 . S
N817 C818 1.351 . S
C818 C812 1.428 . S
C818 N817 1.351 . S
C818 C819 1.434 . S
C819 C810 1.429 . S
C819 N816 1.350 . S
C819 C818 1.434 . S
C820 C821 1.369 . S
C820 C822 1.419 . S
C820 H824 0.930 . S
C821 C820 1.369 . S
C821 C830 1.429 . S
C822 C820 1.419 . S
C822 C823 1.363 . S
C822 H825 0.929 . S
C823 C822 1.363 . S
C823 C829 1.428 . S
H824 C820 0.930 . S
H825 C822 0.929 . S
S826 N827 1.613 . S
S826 N828 1.610 . S
N827 S826 1.613 . S
N827 C830 1.350 . S
N828 S826 1.610 . S
N828 C829 1.351 . S
C829 C823 1.428 . S
C829 N828 1.351 . S
C829 C830 1.434 . S
C830 C821 1.429 . S
C830 N827 1.350 . S
C830 C829 1.434 . S
C831 C832 1.369 . S
C831 C833 1.420 . S
C831 H835 0.930 . S
C832 C831 1.369 . S
C832 C841 1.429 1_556 S
C833 C831 1.420 . S
C833 C834 1.362 1_556 S
C833 H836 0.929 . S
C834 C833 1.362 1_554 S
C834 C840 1.428 . S
H835 C831 0.930 . S
H836 C833 0.929 . S
S837 N838 1.613 . S
S837 N839 1.610 . S
N838 S837 1.613 . S
N838 C841 1.350 . S
N839 S837 1.610 . S
N839 C840 1.351 . S
C840 C834 1.428 . S
C840 N839 1.351 . S
C840 C841 1.434 . S
C841 C832 1.429 1_554 S
C841 N838 1.350 . S
C841 C840 1.434 . S
C842 C843 1.369 . S
C842 C844 1.419 . S
C842 H846 0.930 . S
C843 C842 1.369 . S
C843 C852 1.429 1_556 S
C844 C842 1.419 . S
C844 C845 1.363 1_556 S
C844 H847 0.929 . S
C845 C844 1.363 1_554 S
C845 C851 1.428 . S
H846 C842 0.930 . S
H847 C844 0.929 . S
S848 N849 1.613 . S
S848 N850 1.610 . S
N849 S848 1.613 . S
N849 C852 1.350 . S
N850 S848 1.610 . S
N850 C851 1.351 . S
C851 C845 1.428 . S
C851 N850 1.351 . S
C851 C852 1.434 . S
C852 C843 1.429 1_554 S
C852 N849 1.350 . S
C852 C851 1.434 . S
C853 C854 1.369 . S
C853 C855 1.419 1_556 S
C853 H857 0.930 . S
C854 C853 1.369 . S
C854 C863 1.429 . S
C855 C853 1.419 1_554 S
C855 C856 1.363 . S
C855 H858 0.929 . S
C856 C855 1.363 . S
C856 C862 1.428 . S
H857 C853 0.930 . S
H858 C855 0.929 . S
S859 N860 1.613 . S
S859 N861 1.610 1_556 S
N860 S859 1.613 . S
N860 C863 1.350 . S
N861 S859 1.610 1_554 S
N861 C862 1.351 . S
C862 C856 1.428 . S
C862 N861 1.351 . S
C862 C863 1.434 1_554 S
C863 C854 1.429 . S
C863 N860 1.350 . S
C863 C862 1.434 1_556 S
C864 C865 1.369 . S
C864 C866 1.419 . S
C864 H868 0.930 . S
C865 C864 1.369 . S
C865 C874 1.429 . S
C866 C864 1.419 . S
C866 C867 1.363 . S
C866 H869 0.929 . S
C867 C866 1.363 . S
C867 C873 1.428 . S
H868 C864 0.930 . S
H869 C866 0.929 . S
S870 N871 1.613 . S
S870 N872 1.610 . S
N871 S870 1.613 . S
N871 C874 1.350 . S
N872 S870 1.610 . S
N872 C873 1.351 . S
C873 C867 1.428 . S
C873 N872 1.351 . S
C873 C874 1.434 . S
C874 C865 1.429 . S
C874 N871 1.350 . S
C874 C873 1.434 . S
C875 C876 1.369 . S
C875 C877 1.419 . S
C875 H879 0.930 . S
C876 C875 1.369 . S
C876 C885 1.429 . S
C877 C875 1.419 . S
C877 C878 1.363 . S
C877 H880 0.929 . S
C878 C877 1.363 . S
C878 C884 1.428 . S
H879 C875 0.930 . S
H880 C877 0.929 . S
S881 N882 1.613 . S
S881 N883 1.610 . S
N882 S881 1.613 . S
N882 C885 1.350 . S
N883 S881 1.610 . S
N883 C884 1.351 . S
C884 C878 1.428 . S
C884 N883 1.351 . S
C884 C885 1.434 . S
C885 C876 1.429 . S
C885 N882 1.350 . S
C885 C884 1.434 . S
C886 C887 1.369 . S
C886 C888 1.419 . S
C886 H890 0.930 . S
C887 C886 1.369 . S
C887 C896 1.429 . S
C888 C886 1.419 . S
C888 C889 1.363 . S
C888 H891 0.929 . S
C889 C888 1.363 . S
C889 C895 1.428 . S
H890 C886 0.930 . S
H891 C888 0.929 . S
S892 N893 1.613 . S
S892 N894 1.610 . S
N893 S892 1.613 . S
N893 C896 1.350 . S
N894 S892 1.610 . S
N894 C895 1.351 . S
C895 C889 1.428 . S
C895 N894 1.351 . S
C895 C896 1.434 . S
C896 C887 1.429 . S
C896 N893 1.350 . S
C896 C895 1.434 . S
C897 C898 1.369 . S
C897 C899 1.419 . S
C897 H901 0.930 . S
C898 C897 1.369 . S
C898 C907 1.429 . S
C899 C897 1.419 . S
C899 C900 1.363 . S
C899 H902 0.929 . S
C900 C899 1.363 . S
C900 C906 1.428 . S
H901 C897 0.930 . S
H902 C899 0.929 . S
S903 N904 1.613 . S
S903 N905 1.610 . S
N904 S903 1.613 . S
N904 C907 1.350 . S
N905 S903 1.610 . S
N905 C906 1.351 . S
C906 C900 1.428 . S
C906 N905 1.351 . S
C906 C907 1.434 . S
C907 C898 1.429 . S
C907 N904 1.350 . S
C907 C906 1.434 . S
C908 C909 1.369 . S
C908 C910 1.419 . S
C908 H912 0.930 . S
C909 C908 1.369 . S
C909 C918 1.429 . S
C910 C908 1.419 . S
C910 C911 1.363 . S
C910 H913 0.929 . S
C911 C910 1.363 . S
C911 C917 1.428 . S
H912 C908 0.930 . S
H913 C910 0.929 . S
S914 N915 1.613 . S
S914 N916 1.610 . S
N915 S914 1.613 . S
N915 C918 1.350 . S
N916 S914 1.610 . S
N916 C917 1.351 . S
C917 C911 1.428 . S
C917 N916 1.351 . S
C917 C918 1.434 . S
C918 C909 1.429 . S
C918 N915 1.350 . S
C918 C917 1.434 . S
C919 C920 1.369 . S
C919 C921 1.419 . S
C919 H923 0.930 . S
C920 C919 1.369 . S
C920 C929 1.429 . S
C921 C919 1.419 . S
C921 C922 1.363 . S
C921 H924 0.929 . S
C922 C921 1.363 . S
C922 C928 1.428 . S
H923 C919 0.930 . S
H924 C921 0.929 . S
S925 N926 1.613 . S
S925 N927 1.610 . S
N926 S925 1.613 . S
N926 C929 1.350 . S
N927 S925 1.610 . S
N927 C928 1.351 . S
C928 C922 1.428 . S
C928 N927 1.351 . S
C928 C929 1.434 . S
C929 C920 1.429 . S
C929 N926 1.350 . S
C929 C928 1.434 . S
C930 C931 1.369 . S
C930 C932 1.419 . S
C930 H934 0.930 . S
C931 C930 1.369 . S
C931 C940 1.429 . S
C932 C930 1.419 . S
C932 C933 1.363 . S
C932 H935 0.929 . S
C933 C932 1.363 . S
C933 C939 1.428 . S
H934 C930 0.930 . S
H935 C932 0.929 . S
S936 N937 1.613 . S
S936 N938 1.610 . S
N937 S936 1.613 . S
N937 C940 1.350 . S
N938 S936 1.610 . S
N938 C939 1.351 . S
C939 C933 1.428 . S
C939 N938 1.351 . S
C939 C940 1.434 . S
C940 C931 1.429 . S
C940 N937 1.350 . S
C940 C939 1.434 . S
C941 C942 1.369 . S
C941 C943 1.419 . S
C941 H945 0.930 . S
C942 C941 1.369 . S
C942 C951 1.429 . S
C943 C941 1.419 . S
C943 C944 1.363 . S
C943 H946 0.929 . S
C944 C943 1.363 . S
C944 C950 1.428 . S
H945 C941 0.930 . S
H946 C943 0.929 . S
S947 N948 1.613 . S
S947 N949 1.610 . S
N948 S947 1.613 . S
N948 C951 1.350 . S
N949 S947 1.610 . S
N949 C950 1.351 . S
C950 C944 1.428 . S
C950 N949 1.351 . S
C950 C951 1.434 . S
C951 C942 1.429 . S
C951 N948 1.350 . S
C951 C950 1.434 . S
C952 C953 1.369 . S
C952 C954 1.419 . S
C952 H956 0.930 . S
C953 C952 1.369 . S
C953 C962 1.429 . S
C954 C952 1.419 . S
C954 C955 1.363 . S
C954 H957 0.929 . S
C955 C954 1.363 . S
C955 C961 1.428 . S
H956 C952 0.930 . S
H957 C954 0.929 . S
S958 N959 1.613 . S
S958 N960 1.610 . S
N959 S958 1.613 . S
N959 C962 1.350 . S
N960 S958 1.610 . S
N960 C961 1.351 . S
C961 C955 1.428 . S
C961 N960 1.351 . S
C961 C962 1.434 . S
C962 C953 1.429 . S
C962 N959 1.350 . S
C962 C961 1.434 . S
C963 C964 1.369 . S
C963 C965 1.419 . S
C963 H967 0.930 . S
C964 C963 1.369 . S
C964 C973 1.429 . S
C965 C963 1.419 . S
C965 C966 1.363 . S
C965 H968 0.929 . S
C966 C965 1.363 . S
C966 C972 1.428 . S
H967 C963 0.930 . S
H968 C965 0.929 . S
S969 N970 1.613 . S
S969 N971 1.610 . S
N970 S969 1.613 . S
N970 C973 1.350 . S
N971 S969 1.610 . S
N971 C972 1.351 . S
C972 C966 1.428 . S
C972 N971 1.351 . S
C972 C973 1.434 . S
C973 C964 1.429 . S
C973 N970 1.350 . S
C973 C972 1.434 . S
C974 C975 1.369 . S
C974 C976 1.419 . S
C974 H978 0.930 . S
C975 C974 1.369 . S
C975 C984 1.429 . S
C976 C974 1.419 . S
C976 C977 1.363 . S
C976 H979 0.929 . S
C977 C976 1.363 . S
C977 C983 1.428 . S
H978 C974 0.930 . S
H979 C976 0.929 . S
S980 N981 1.613 . S
S980 N982 1.610 . S
N981 S980 1.613 . S
N981 C984 1.350 . S
N982 S980 1.610 . S
N982 C983 1.351 . S
C983 C977 1.428 . S
C983 N982 1.351 . S
C983 C984 1.434 . S
C984 C975 1.429 . S
C984 N981 1.350 . S
C984 C983 1.434 . S
C985 C986 1.369 . S
C985 C987 1.419 . S
C985 H989 0.930 . S
C986 C985 1.369 . S
C986 C995 1.429 . S
C987 C985 1.419 . S
C987 C988 1.363 . S
C987 H990 0.929 . S
C988 C987 1.363 . S
C988 C994 1.428 . S
H989 C985 0.930 . S
H990 C987 0.929 . S
S991 N992 1.613 . S
S991 N993 1.610 . S
N992 S991 1.613 . S
N992 C995 1.350 . S
N993 S991 1.610 . S
N993 C994 1.351 . S
C994 C988 1.428 . S
C994 N993 1.351 . S
C994 C995 1.434 . S
C995 C986 1.429 . S
C995 N992 1.350 . S
C995 C994 1.434 . S
C996 C997 1.369 . S
C996 C998 1.419 . S
C996 H1000 0.930 . S
C997 C996 1.369 . S
C997 C1006 1.429 . S
C998 C996 1.419 . S
C998 C999 1.363 . S
C998 H1001 0.929 . S
C999 C998 1.363 . S
C999 C1005 1.428 . S
H1000 C996 0.930 . S
H1001 C998 0.929 . S
S1002 N1003 1.613 . S
S1002 N1004 1.610 . S
N1003 S1002 1.613 . S
N1003 C1006 1.350 . S
N1004 S1002 1.610 . S
N1004 C1005 1.351 . S
C1005 C999 1.428 . S
C1005 N1004 1.351 . S
C1005 C1006 1.434 . S
C1006 C997 1.429 . S
C1006 N1003 1.350 . S
C1006 C1005 1.434 . S
C1007 C1008 1.369 . S
C1007 C1009 1.419 . S
C1007 H1011 0.930 . S
C1008 C1007 1.369 . S
C1008 C1017 1.429 . S
C1009 C1007 1.419 . S
C1009 C1010 1.363 . S
C1009 H1012 0.929 . S
C1010 C1009 1.363 . S
C1010 C1016 1.428 . S
H1011 C1007 0.930 . S
H1012 C1009 0.929 . S
S1013 N1014 1.613 . S
S1013 N1015 1.610 . S
N1014 S1013 1.613 . S
N1014 C1017 1.350 . S
N1015 S1013 1.610 . S
N1015 C1016 1.351 . S
C1016 C1010 1.428 . S
C1016 N1015 1.351 . S
C1016 C1017 1.434 . S
C1017 C1008 1.429 . S
C1017 N1014 1.350 . S
C1017 C1016 1.434 . S
C1018 C1019 1.369 . S
C1018 C1020 1.419 . S
C1018 H1022 0.930 . S
C1019 C1018 1.369 . S
C1019 C1028 1.429 . S
C1020 C1018 1.419 . S
C1020 C1021 1.363 . S
C1020 H1023 0.929 . S
C1021 C1020 1.363 . S
C1021 C1027 1.428 . S
H1022 C1018 0.930 . S
H1023 C1020 0.929 . S
S1024 N1025 1.613 . S
S1024 N1026 1.610 . S
N1025 S1024 1.613 . S
N1025 C1028 1.350 . S
N1026 S1024 1.610 . S
N1026 C1027 1.351 . S
C1027 C1021 1.428 . S
C1027 N1026 1.351 . S
C1027 C1028 1.434 . S
C1028 C1019 1.429 . S
C1028 N1025 1.350 . S
C1028 C1027 1.434 . S
C1029 C1030 1.369 . S
C1029 C1031 1.419 . S
C1029 H1033 0.930 . S
C1030 C1029 1.369 . S
C1030 C1039 1.429 1_556 S
C1031 C1029 1.419 . S
C1031 C1032 1.363 1_556 S
C1031 H1034 0.929 . S
C1032 C1031 1.363 1_554 S
C1032 C1038 1.428 . S
H1033 C1029 0.930 . S
H1034 C1031 0.929 . S
S1035 N1036 1.613 . S
S1035 N1037 1.610 . S
N1036 S1035 1.613 . S
N1036 C1039 1.350 . S
N1037 S1035 1.610 . S
N1037 C1038 1.351 . S
C1038 C1032 1.428 . S
C1038 N1037 1.351 . S
C1038 C1039 1.434 . S
C1039 C1030 1.429 1_554 S
C1039 N1036 1.350 . S
C1039 C1038 1.434 . S
C1040 C1041 1.369 . S
C1040 C1042 1.419 1_556 S
C1040 H1044 0.930 . S
C1041 C1040 1.369 . S
C1041 C1050 1.429 . S
C1042 C1040 1.419 1_554 S
C1042 C1043 1.363 . S
C1042 H1045 0.929 . S
C1043 C1042 1.363 . S
C1043 C1049 1.428 . S
H1044 C1040 0.930 . S
H1045 C1042 0.929 . S
S1046 N1047 1.613 1_554 S
S1046 N1048 1.610 . S
N1047 S1046 1.613 1_556 S
N1047 C1050 1.350 . S
N1048 S1046 1.610 . S
N1048 C1049 1.351 . S
C1049 C1043 1.428 . S
C1049 N1048 1.351 . S
C1049 C1050 1.434 1_554 S
C1050 C1041 1.429 . S
C1050 N1047 1.350 . S
C1050 C1049 1.434 1_556 S
C1051 C1052 1.369 . S
C1051 C1053 1.419 1_556 S
C1051 H1055 0.930 . S
C1052 C1051 1.369 . S
C1052 C1061 1.429 . S
C1053 C1051 1.419 1_554 S
C1053 C1054 1.363 . S
C1053 H1056 0.929 . S
C1054 C1053 1.363 . S
C1054 C1060 1.438 . S
H1055 C1051 0.930 . S
H1056 C1053 0.929 . S
S1057 N1058 1.613 . S
S1057 N1059 1.610 . S
N1058 S1057 1.613 . S
N1058 C1061 1.350 . S
N1059 S1057 1.610 . S
N1059 C1060 1.350 1_556 S
C1060 C1054 1.438 . S
C1060 N1059 1.350 1_554 S
C1060 C1061 1.424 1_554 S
C1061 C1052 1.429 . S
C1061 N1058 1.350 . S
C1061 C1060 1.424 1_556 S
C1062 C1063 1.369 . S
C1062 C1064 1.419 . S
C1062 H1066 0.930 . S
C1063 C1062 1.369 . S
C1063 C1072 1.429 . S
C1064 C1062 1.419 . S
C1064 C1065 1.363 . S
C1064 H1067 0.929 1_556 S
C1065 C1064 1.363 . S
C1065 C1071 1.428 . S
H1066 C1062 0.930 . S
H1067 C1064 0.929 1_554 S
S1068 N1069 1.613 . S
S1068 N1070 1.610 . S
N1069 S1068 1.613 . S
N1069 C1072 1.350 . S
N1070 S1068 1.610 . S
N1070 C1071 1.351 . S
C1071 C1065 1.428 . S
C1071 N1070 1.351 . S
C1071 C1072 1.434 . S
C1072 C1063 1.429 . S
C1072 N1069 1.350 . S
C1072 C1071 1.434 . S
C1073 C1074 1.369 . S
C1073 C1075 1.419 . S
C1073 H1077 0.930 . S
C1074 C1073 1.369 . S
C1074 C1083 1.429 . S
C1075 C1073 1.419 . S
C1075 C1076 1.363 . S
C1075 H1078 0.929 . S
C1076 C1075 1.363 . S
C1076 C1082 1.428 . S
H1077 C1073 0.930 . S
H1078 C1075 0.929 . S
S1079 N1080 1.613 . S
S1079 N1081 1.610 1_554 S
N1080 S1079 1.613 . S
N1080 C1083 1.350 1_554 S
N1081 S1079 1.610 1_556 S
N1081 C1082 1.351 . S
C1082 C1076 1.428 . S
C1082 N1081 1.351 . S
C1082 C1083 1.434 . S
C1083 C1074 1.429 . S
C1083 N1080 1.350 1_556 S
C1083 C1082 1.434 . S
C1084 C1085 1.369 . S
C1084 C1086 1.419 . S
C1084 H1088 0.930 . S
C1085 C1084 1.369 . S
C1085 C1094 1.429 . S
C1086 C1084 1.419 . S
C1086 C1087 1.363 . S
C1086 H1089 0.929 . S
C1087 C1086 1.363 . S
C1087 C1093 1.428 . S
H1088 C1084 0.930 . S
H1089 C1086 0.929 . S
S1090 N1091 1.613 1_554 S
S1090 N1092 1.610 . S
N1091 S1090 1.613 1_556 S
N1091 C1094 1.350 . S
N1092 S1090 1.610 . S
N1092 C1093 1.351 1_554 S
C1093 C1087 1.428 . S
C1093 N1092 1.351 1_556 S
C1093 C1094 1.434 . S
C1094 C1085 1.429 . S
C1094 N1091 1.350 . S
C1094 C1093 1.434 . S
C1095 C1096 1.369 . S
C1095 C1097 1.419 . S
C1095 H1099 0.930 . S
C1096 C1095 1.369 . S
C1096 C1105 1.429 . S
C1097 C1095 1.419 . S
C1097 C1098 1.363 . S
C1097 H1100 0.929 . S
C1098 C1097 1.363 . S
C1098 C1104 1.428 . S
H1099 C1095 0.930 . S
H1100 C1097 0.929 . S
S1101 N1102 1.613 . S
S1101 N1103 1.610 . S
N1102 S1101 1.613 . S
N1102 C1105 1.350 . S
N1103 S1101 1.610 . S
N1103 C1104 1.351 . S
C1104 C1098 1.428 . S
C1104 N1103 1.351 . S
C1104 C1105 1.434 . S
C1105 C1096 1.429 . S
C1105 N1102 1.350 . S
C1105 C1104 1.434 . S
C1106 C1107 1.369 . S
C1106 C1108 1.419 . S
C1106 H1110 0.930 . S
C1107 C1106 1.369 . S
C1107 C1116 1.429 . S
C1108 C1106 1.419 . S
C1108 C1109 1.363 . S
C1108 H1111 0.929 . S
C1109 C1108 1.363 . S
C1109 C1115 1.428 . S
H1110 C1106 0.930 . S
H1111 C1108 0.929 . S
S1112 N1113 1.613 . S
S1112 N1114 1.610 . S
N1113 S1112 1.613 . S
N1113 C1116 1.350 . S
N1114 S1112 1.610 . S
N1114 C1115 1.351 . S
C1115 C1109 1.428 . S
C1115 N1114 1.351 . S
C1115 C1116 1.434 . S
C1116 C1107 1.429 . S
C1116 N1113 1.350 . S
C1116 C1115 1.434 . S
C1117 C1118 1.369 . S
C1117 C1119 1.419 . S
C1117 H1121 0.930 . S
C1118 C1117 1.369 . S
C1118 C1127 1.429 . S
C1119 C1117 1.419 . S
C1119 C1120 1.363 . S
C1119 H1122 0.929 . S
C1120 C1119 1.363 . S
C1120 C1126 1.428 . S
H1121 C1117 0.930 . S
H1122 C1119 0.929 . S
S1123 N1124 1.613 . S
S1123 N1125 1.610 . S
N1124 S1123 1.613 . S
N1124 C1127 1.350 . S
N1125 S1123 1.610 . S
N1125 C1126 1.351 . S
C1126 C1120 1.428 . S
C1126 N1125 1.351 . S
C1126 C1127 1.434 . S
C1127 C1118 1.429 . S
C1127 N1124 1.350 . S
C1127 C1126 1.434 . S
C1128 C1129 1.369 . S
C1128 C1130 1.419 . S
C1128 H1132 0.930 1_554 S
C1129 C1128 1.369 . S
C1129 C1138 1.429 . S
C1130 C1128 1.419 . S
C1130 C1131 1.363 . S
C1130 H1133 0.929 . S
C1131 C1130 1.363 . S
C1131 C1137 1.428 . S
H1132 C1128 0.930 1_556 S
H1133 C1130 0.929 . S
S1134 N1135 1.613 . S
S1134 N1136 1.610 . S
N1135 S1134 1.613 . S
N1135 C1138 1.350 . S
N1136 S1134 1.610 . S
N1136 C1137 1.351 . S
C1137 C1131 1.428 . S
C1137 N1136 1.351 . S
C1137 C1138 1.434 . S
C1138 C1129 1.429 . S
C1138 N1135 1.350 . S
C1138 C1137 1.434 . S
C1139 C1140 1.369 . S
C1139 C1141 1.419 . S
C1139 H1143 0.930 . S
C1140 C1139 1.369 . S
C1140 C1149 1.429 . S
C1141 C1139 1.419 . S
C1141 C1142 1.363 . S
C1141 H1144 0.929 . S
C1142 C1141 1.363 . S
C1142 C1148 1.428 . S
H1143 C1139 0.930 . S
H1144 C1141 0.929 . S
S1145 N1146 1.613 . S
S1145 N1147 1.610 1_554 S
N1146 S1145 1.613 . S
N1146 C1149 1.350 . S
N1147 S1145 1.610 1_556 S
N1147 C1148 1.351 1_556 S
C1148 C1142 1.428 . S
C1148 N1147 1.351 1_554 S
C1148 C1149 1.434 . S
C1149 C1140 1.429 . S
C1149 N1146 1.350 . S
C1149 C1148 1.434 . S
C1150 C1151 1.369 . S
C1150 C1152 1.419 . S
C1150 H1154 0.930 . S
C1151 C1150 1.369 . S
C1151 C1160 1.429 . S
C1152 C1150 1.419 . S
C1152 C1153 1.363 . S
C1152 H1155 0.929 . S
C1153 C1152 1.363 . S
C1153 C1159 1.428 . S
H1154 C1150 0.930 . S
H1155 C1152 0.929 . S
S1156 N1157 1.613 1_556 S
S1156 N1158 1.610 . S
N1157 S1156 1.613 1_554 S
N1157 C1160 1.350 . S
N1158 S1156 1.610 . S
N1158 C1159 1.351 1_556 S
C1159 C1153 1.428 . S
C1159 N1158 1.351 1_554 S
C1159 C1160 1.434 . S
C1160 C1151 1.429 . S
C1160 N1157 1.350 . S
C1160 C1159 1.434 . S
C1161 C1162 1.369 . S
C1161 C1163 1.419 . S
C1161 H1165 0.930 . S
C1162 C1161 1.369 . S
C1162 C1171 1.429 . S
C1163 C1161 1.419 . S
C1163 C1164 1.363 . S
C1163 H1166 0.929 . S
C1164 C1163 1.363 . S
C1164 C1170 1.428 . S
H1165 C1161 0.930 . S
H1166 C1163 0.929 . S
S1167 N1168 1.613 . S
S1167 N1169 1.610 . S
N1168 S1167 1.613 . S
N1168 C1171 1.350 . S
N1169 S1167 1.610 . S
N1169 C1170 1.351 . S
C1170 C1164 1.428 . S
C1170 N1169 1.351 . S
C1170 C1171 1.434 . S
C1171 C1162 1.429 . S
C1171 N1168 1.350 . S
C1171 C1170 1.434 . S
C1172 C1173 1.369 . S
C1172 C1174 1.419 . S
C1172 H1176 0.930 . S
C1173 C1172 1.369 . S
C1173 C1182 1.429 . S
C1174 C1172 1.419 . S
C1174 C1175 1.363 . S
C1174 H1177 0.929 . S
C1175 C1174 1.363 . S
C1175 C1181 1.428 . S
H1176 C1172 0.930 . S
H1177 C1174 0.929 . S
S1178 N1179 1.613 . S
S1178 N1180 1.610 . S
N1179 S1178 1.613 . S
N1179 C1182 1.350 . S
N1180 S1178 1.610 . S
N1180 C1181 1.351 . S
C1181 C1175 1.428 . S
C1181 N1180 1.351 . S
C1181 C1182 1.434 . S
C1182 C1173 1.429 . S
C1182 N1179 1.350 . S
C1182 C1181 1.434 . S
C1183 C1184 1.369 . S
C1183 C1185 1.419 . S
C1183 H1187 0.930 . S
C1184 C1183 1.369 . S
C1184 C1193 1.429 . S
C1185 C1183 1.419 . S
C1185 C1186 1.363 . S
C1185 H1188 0.929 . S
C1186 C1185 1.363 . S
C1186 C1192 1.428 . S
H1187 C1183 0.930 . S
H1188 C1185 0.929 . S
S1189 N1190 1.613 . S
S1189 N1191 1.610 . S
N1190 S1189 1.613 . S
N1190 C1193 1.350 . S
N1191 S1189 1.610 . S
N1191 C1192 1.351 . S
C1192 C1186 1.428 . S
C1192 N1191 1.351 . S
C1192 C1193 1.434 . S
C1193 C1184 1.429 . S
C1193 N1190 1.350 . S
C1193 C1192 1.434 . S
C1194 C1195 1.403 . S
C1194 C1196 1.381 1_655 S
C1194 H1198 0.933 . S
C1195 C1194 1.403 . S
C1195 C1204 1.429 . S
C1196 C1194 1.381 1_455 S
C1196 C1197 1.363 . S
C1196 H1199 0.929 . S
C1197 C1196 1.363 . S
C1197 C1203 1.431 . S
H1198 C1194 0.933 . S
H1199 C1196 0.929 . S
S1200 N1201 1.613 . S
S1200 N1202 1.610 . S
N1201 S1200 1.613 . S
N1201 C1204 1.350 . S
N1202 S1200 1.610 . S
N1202 C1203 1.351 1_655 S
C1203 C1197 1.431 . S
C1203 N1202 1.351 1_455 S
C1203 C1204 1.431 1_455 S
C1204 C1195 1.429 . S
C1204 N1201 1.350 . S
C1204 C1203 1.431 1_655 S
C1205 C1206 1.369 . S
C1205 C1207 1.419 . S
C1205 H1209 0.930 . S
C1206 C1205 1.369 . S
C1206 C1215 1.429 . S
C1207 C1205 1.419 . S
C1207 C1208 1.363 . S
C1207 H1210 0.929 . S
C1208 C1207 1.363 . S
C1208 C1214 1.428 . S
H1209 C1205 0.930 . S
H1210 C1207 0.929 . S
S1211 N1212 1.613 . S
S1211 N1213 1.610 . S
N1212 S1211 1.613 . S
N1212 C1215 1.350 . S
N1213 S1211 1.610 . S
N1213 C1214 1.351 . S
C1214 C1208 1.428 . S
C1214 N1213 1.351 . S
C1214 C1215 1.434 . S
C1215 C1206 1.429 . S
C1215 N1212 1.350 . S
C1215 C1214 1.434 . S
C1216 C1217 1.369 . S
C1216 C1218 1.419 1_565 S
C1216 H1220 0.937 . S
C1217 C1216 1.369 . S
C1217 C1226 1.429 . S
C1218 C1216 1.419 1_545 S
C1218 C1219 1.363 . S
C1218 H1221 0.929 . S
C1219 C1218 1.363 . S
C1219 C1225 1.435 . S
H1220 C1216 0.937 . S
H1221 C1218 0.929 . S
S1222 N1223 1.613 . S
S1222 N1224 1.610 . S
N1223 S1222 1.613 . S
N1223 C1226 1.350 . S
N1224 S1222 1.610 . S
N1224 C1225 1.349 1_565 S
C1225 C1219 1.435 . S
C1225 N1224 1.349 1_545 S
C1225 C1226 1.428 1_545 S
C1226 C1217 1.429 . S
C1226 N1223 1.350 . S
C1226 C1225 1.428 1_565 S
C1227 C1228 1.369 . S
C1227 C1229 1.419 1_545 S
C1227 H1231 0.930 . S
C1228 C1227 1.369 . S
C1228 C1237 1.429 . S
C1229 C1227 1.419 1_565 S
C1229 C1230 1.363 . S
C1229 H1232 0.929 . S
C1230 C1229 1.363 . S
C1230 C1236 1.428 . S
H1231 C1227 0.930 . S
H1232 C1229 0.929 . S
S1233 N1234 1.592 1_565 S
S1233 N1235 1.610 . S
N1234 S1233 1.592 1_545 S
N1234 C1237 1.357 . S
N1235 S1233 1.610 . S
N1235 C1236 1.351 . S
C1236 C1230 1.428 . S
C1236 N1235 1.351 . S
C1236 C1237 1.434 1_565 S
C1237 C1228 1.429 . S
C1237 N1234 1.357 . S
C1237 C1236 1.434 1_545 S
C1238 C1239 1.369 . S
C1238 C1240 1.419 1_455 S
C1238 H1242 0.930 . S
C1239 C1238 1.369 . S
C1239 C1248 1.429 . S
C1240 C1238 1.419 1_655 S
C1240 C1241 1.363 . S
C1240 H1243 0.929 . S
C1241 C1240 1.363 . S
C1241 C1247 1.428 . S
H1242 C1238 0.930 . S
H1243 C1240 0.929 . S
S1244 N1245 1.613 1_655 S
S1244 N1246 1.610 . S
N1245 S1244 1.613 1_455 S
N1245 C1248 1.350 . S
N1246 S1244 1.610 . S
N1246 C1247 1.351 . S
C1247 C1241 1.428 . S
C1247 N1246 1.351 . S
C1247 C1248 1.434 1_655 S
C1248 C1239 1.429 . S
C1248 N1245 1.350 . S
C1248 C1247 1.434 1_455 S
C1249 C1250 1.369 . S
C1249 C1251 1.419 . S
C1249 H1253 0.930 . S
C1250 C1249 1.369 . S
C1250 C1259 1.429 . S
C1251 C1249 1.419 . S
C1251 C1252 1.363 . S
C1251 H1254 0.929 . S
C1252 C1251 1.363 . S
C1252 C1258 1.428 . S
H1253 C1249 0.930 . S
H1254 C1251 0.929 . S
S1255 N1256 1.613 . S
S1255 N1257 1.610 . S
N1256 S1255 1.613 . S
N1256 C1259 1.350 . S
N1257 S1255 1.610 . S
N1257 C1258 1.351 . S
C1258 C1252 1.428 . S
C1258 N1257 1.351 . S
C1258 C1259 1.434 . S
C1259 C1250 1.429 . S
C1259 N1256 1.350 . S
C1259 C1258 1.434 . S
C469 C75 1.255 . S
C471 C4 1.262 . S
C480 C17 1.260 . S
C482 C49 1.258 . S
C491 C62 1.261 . S
C493 C36 1.257 . S
C502 C82 1.255 . S
C504 C147 1.262 . S
C513 C95 1.263 . S
C515 C121 1.256 . S
C524 C134 1.256 . S
C526 C114 1.262 . S
C535 C225 1.263 . S
C537 C160 1.256 . S
C546 C179 1.257 . S
C548 C205 1.262 . S
C557 C218 1.255 . S
C559 C192 1.263 . S
C568 C238 1.255 . S
C570 C309 1.262 1_554 S
C579 C257 1.255 . S
C581 C277 1.263 1_554 S
C590 C264 1.261 . S
C592 C290 1.259 1_554 S
C601 C316 1.255 . S
C603 C387 1.262 1_556 S
C612 C361 1.259 1_556 S
C614 C329 1.261 . S
C623 C342 1.261 . S
C625 C374 1.260 1_556 S
C634 C400 1.255 . S
C636 C465 1.262 . S
C645 C407 1.257 . S
C647 C439 1.262 . S
C656 C420 1.257 . S
C658 C452 1.262 . S
C667 C140 1.444 . S
C669 C5 1.428 . S
C678 C153 1.444 . S
C680 C18 1.429 . S
C689 C127 1.444 . S
C691 C29 1.430 . S
C700 C108 1.444 . S
C702 C42 1.428 . S
C711 C55 1.431 . S
C713 C88 1.446 . S
C722 C68 1.430 . S
C724 C101 1.446 . S
C733 C83 1.433 . S
C735 C56 1.446 . S
C744 C96 1.428 . S
C746 C69 1.444 . S
C755 C107 1.429 . S
C757 C43 1.444 . S
C766 C30 1.446 . S
C768 C122 1.432 . S
C777 C10 1.444 . S
C779 C135 1.428 . S
C788 C148 1.432 . S
C790 C23 1.446 . S
C799 C161 1.431 . S
C801 C296 1.445 . S
C810 C172 1.427 . S
C812 C303 1.444 . S
C821 C283 1.445 . S
C823 C185 1.432 . S
C832 C198 1.428 . S
C834 C270 1.444 . S
C843 C211 1.429 . S
C845 C244 1.444 . S
C854 C226 1.433 . S
C856 C251 1.446 . S
C865 C239 1.428 . S
C867 C212 1.444 . S
C876 C231 1.444 . S
C878 C250 1.427 . S
C887 C199 1.444 . S
C889 C265 1.427 . S
C898 C278 1.429 . S
C900 C186 1.446 . S
C909 C166 1.444 . S
C911 C291 1.428 . S
C920 C173 1.445 . S
C922 C302 1.432 . S
C931 C446 1.445 . S
C933 C317 1.428 . S
C942 C330 1.431 . S
C944 C459 1.444 . S
C953 C343 1.427 . S
C955 C433 1.444 . S
C964 C426 1.446 . S
C966 C354 1.430 . S
C975 C394 1.445 . S
C977 C367 1.432 . S
C986 C413 1.444 . S
C988 C380 1.430 . S
C997 C393 1.427 . S
C999 C368 1.444 . S
C1008 C381 1.444 . S
C1010 C408 1.430 . S
C1019 C421 1.429 . S
C1021 C355 1.445 . S
C1030 C348 1.446 . S
C1032 C432 1.429 . S
C1041 C322 1.446 . S
C1043 C445 1.432 . S
C1052 C335 1.445 . S
C1054 C458 1.431 . S
C1063 C213 1.461 . S
C1065 C3 1.462 . S
C1074 C16 1.459 . S
C1076 C224 1.458 . S
C1085 C200 1.460 . S
C1087 C31 1.462 . S
C1096 C341 1.458 . S
C1098 C44 1.458 . S
C1107 C57 1.461 . S
C1109 C315 1.461 . S
C1118 C70 1.462 . S
C1120 C328 1.461 . S
C1129 C81 1.462 . S
C1131 C447 1.460 . S
C1140 C460 1.461 . S
C1142 C94 1.463 . S
C1151 C434 1.460 . S
C1153 C109 1.462 . S
C1162 C263 1.457 . S
C1164 C120 1.458 . S
C1173 C133 1.457 . S
C1175 C237 1.458 . S
C1184 C146 1.457 . S
C1186 C252 1.458 . S
C1195 C159 1.461 . S
C1197 C369 1.461 . S
C1206 C382 1.458 . S
C1208 C174 1.458 . S
C1217 C356 1.460 . S
C1219 C187 1.460 . S
C1228 C276 1.462 . S
C1230 C419 1.461 . S
C1239 C395 1.462 . S
C1241 C289 1.462 . S
C1250 C406 1.462 . S
C1252 C304 1.461 . S
