# Generated by pormake.
# Topology umj, (4)-cn, num edge types: 1
# Building blocks:
#     Node 0, Type 0, BuildingBlock: QUQFOY_clean_sbu_1, # of connection points: 4
#     Node 1, Type 0, BuildingBlock: QUQFOY_clean_sbu_1, # of connection points: 4
#     Node 2, Type 0, BuildingBlock: QUQFOY_clean_sbu_1, # of connection points: 4
#     Node 3, Type 0, BuildingBlock: QUQFOY_clean_sbu_1, # of connection points: 4
#     Node 4, Type 0, BuildingBlock: QUQFOY_clean_sbu_1, # of connection points: 4
#     Node 5, Type 0, BuildingBlock: QUQFOY_clean_sbu_1, # of connection points: 4
#     Node 6, Type 0, BuildingBlock: QUQFOY_clean_sbu_1, # of connection points: 4
#     Node 7, Type 0, BuildingBlock: QUQFOY_clean_sbu_1, # of connection points: 4
#     Node 8, Type 0, BuildingBlock: QUQFOY_clean_sbu_1, # of connection points: 4
#     Node 9, Type 0, BuildingBlock: QUQFOY_clean_sbu_1, # of connection points: 4
#     Node 10, Type 0, BuildingBlock: QUQFOY_clean_sbu_1, # of connection points: 4
#     Node 11, Type 0, BuildingBlock: QUQFOY_clean_sbu_1, # of connection points: 4
#     Edge 12, Type (0, 0), BuildingBlock: CIFDUS_clean_linker_0, # of connection points: 2
#     Edge 13, Type (0, 0), BuildingBlock: CIFDUS_clean_linker_0, # of connection points: 2
#     Edge 14, Type (0, 0), BuildingBlock: CIFDUS_clean_linker_0, # of connection points: 2
#     Edge 15, Type (0, 0), BuildingBlock: CIFDUS_clean_linker_0, # of connection points: 2
#     Edge 16, Type (0, 0), BuildingBlock: CIFDUS_clean_linker_0, # of connection points: 2
#     Edge 17, Type (0, 0), BuildingBlock: CIFDUS_clean_linker_0, # of connection points: 2
#     Edge 18, Type (0, 0), BuildingBlock: CIFDUS_clean_linker_0, # of connection points: 2
#     Edge 19, Type (0, 0), BuildingBlock: CIFDUS_clean_linker_0, # of connection points: 2
#     Edge 20, Type (0, 0), BuildingBlock: CIFDUS_clean_linker_0, # of connection points: 2
#     Edge 21, Type (0, 0), BuildingBlock: CIFDUS_clean_linker_0, # of connection points: 2
#     Edge 22, Type (0, 0), BuildingBlock: CIFDUS_clean_linker_0, # of connection points: 2
#     Edge 23, Type (0, 0), BuildingBlock: CIFDUS_clean_linker_0, # of connection points: 2
#     Edge 24, Type (0, 0), BuildingBlock: CIFDUS_clean_linker_0, # of connection points: 2
#     Edge 25, Type (0, 0), BuildingBlock: CIFDUS_clean_linker_0, # of connection points: 2
#     Edge 26, Type (0, 0), BuildingBlock: CIFDUS_clean_linker_0, # of connection points: 2
#     Edge 27, Type (0, 0), BuildingBlock: CIFDUS_clean_linker_0, # of connection points: 2
#     Edge 28, Type (0, 0), BuildingBlock: CIFDUS_clean_linker_0, # of connection points: 2
#     Edge 29, Type (0, 0), BuildingBlock: CIFDUS_clean_linker_0, # of connection points: 2
#     Edge 30, Type (0, 0), BuildingBlock: CIFDUS_clean_linker_0, # of connection points: 2
#     Edge 31, Type (0, 0), BuildingBlock: CIFDUS_clean_linker_0, # of connection points: 2
#     Edge 32, Type (0, 0), BuildingBlock: CIFDUS_clean_linker_0, # of connection points: 2
#     Edge 33, Type (0, 0), BuildingBlock: CIFDUS_clean_linker_0, # of connection points: 2
#     Edge 34, Type (0, 0), BuildingBlock: CIFDUS_clean_linker_0, # of connection points: 2
#     Edge 35, Type (0, 0), BuildingBlock: CIFDUS_clean_linker_0, # of connection points: 2
# Relax obj value: 0.080
# Max RMSD: 0.259
# Mean RMSD: 0.258
data_MOF--net-umj--node1-QUQFOY_clean_sbu_1--edge1-CIFDUS_clean_linker_0
_symmetry_space_group_name_H-M    P1
_symmetry_Int_Tables_number       1
_symmetry_cell_setting            triclinic
loop_
_symmetry_equiv_pos_as_xyz
'x, y, z'
_cell_length_a     26.039863
_cell_length_b     26.007245
_cell_length_c     74.260285
_cell_angle_alpha  90.007471
_cell_angle_beta   90.004186
_cell_angle_gamma 120.03138
loop_
_atom_site_label
_atom_site_type_symbol
_atom_site_fract_x
_atom_site_fract_y
_atom_site_fract_z
_atom_type_partial_charge
O0 O 0.99436 0.25398 0.12574 0.0
Cd1 Cd 0.99311 0.26041 0.09882 0.0
Cd2 Cd 0.10251 0.28941 0.09832 0.0
O3 O 0.09107 0.31566 0.12462 0.0
O4 O 0.94198 0.29418 0.08993 0.0
O5 O 0.03856 0.34859 0.09432 0.0
C6 C 0.98959 0.34594 0.08989 0.0
C7 C 0.1356 0.33695 0.07018 0.0
C8 C 0.0427 0.28857 0.13371 0.0
C9 C 0.02827 0.16863 0.08866 0.0
O10 O 0.07695 0.20249 0.09659 0.0
O11 O 0.99149 0.18682 0.08553 0.0
O12 O 0.17357 0.34207 0.08234 0.0
O13 O 0.08031 0.30708 0.07425 0.0
O14 O 0.75241 0.99843 0.45836 0.0
Cd15 Cd 0.74736 1.00145 0.43132 0.0
Cd16 Cd 0.83401 0.10908 0.43274 0.0
O17 O 0.79468 0.09627 0.45874 0.0
O18 O 0.66293 0.95974 0.42139 0.0
O19 O 0.71476 0.05573 0.42721 0.0
C20 C 0.6659 0.01095 0.42188 0.0
C21 C 0.83344 0.1567 0.40582 0.0
C22 C 0.76939 0.04631 0.46707 0.0
C23 C 0.87178 0.02889 0.42159 0.0
O24 O 0.88919 0.07626 0.43058 0.0
O25 O 0.81659 0.99594 0.41781 0.0
O26 O 0.86564 0.18741 0.41935 0.0
O27 O 0.80017 0.1004 0.40797 0.0
O28 O 0.76416 0.74681 0.7909 0.0
Cd29 Cd 0.76005 0.73996 0.76371 0.0
Cd30 Cd 0.7333 0.82389 0.76462 0.0
O31 O 0.7059 0.78587 0.79058 0.0
O32 O 0.7282 0.65454 0.75542 0.0
O33 O 0.67367 0.69737 0.75729 0.0
C34 C 0.6767 0.65046 0.75403 0.0
C35 C 0.68355 0.82221 0.73803 0.0
C36 C 0.73145 0.76224 0.79924 0.0
C37 C 0.85438 0.86529 0.75409 0.0
O38 O 0.82163 0.88078 0.76237 0.0
O39 O 0.83494 0.81028 0.75061 0.0
O40 O 0.68706 0.85605 0.75133 0.0
O41 O 0.70502 0.7877 0.74036 0.0
O42 O 0.03622 0.7661 0.12555 0.0
Cd43 Cd 0.0381 0.75986 0.09863 0.0
Cd44 Cd 0.92859 0.73102 0.09802 0.0
O45 O 0.93947 0.70468 0.12436 0.0
O46 O 0.08968 0.72634 0.08996 0.0
O47 O 0.99293 0.67183 0.09397 0.0
C48 C 0.0421 0.67457 0.08975 0.0
C49 C 0.89492 0.68331 0.06994 0.0
C50 C 0.98776 0.73169 0.13348 0.0
C51 C 1.00354 0.85193 0.08841 0.0
O52 O 0.95471 0.81808 0.09627 0.0
O53 O 0.04027 0.83365 0.08533 0.0
O54 O 0.85721 0.67877 0.08211 0.0
O55 O 0.95026 0.71267 0.07399 0.0
O56 O 0.27284 0.0201 0.45841 0.0
Cd57 Cd 0.27763 0.01662 0.43139 0.0
Cd58 Cd 0.19124 0.90912 0.43282 0.0
O59 O 0.23083 0.92229 0.4588 0.0
O60 O 0.36191 0.05802 0.42135 0.0
O61 O 0.31025 0.96223 0.42745 0.0
C62 C 0.35899 1.00684 0.42198 0.0
C63 C 0.19267 0.86233 0.40581 0.0
C64 C 0.25607 0.97228 0.46713 0.0
C65 C 0.15292 0.9887 0.42168 0.0
O66 O 0.13562 0.94141 0.4307 0.0
O67 O 0.20809 0.0217 0.41789 0.0
O68 O 0.16059 0.83114 0.41929 0.0
O69 O 0.22527 0.91868 0.40804 0.0
O70 O 0.26349 0.2734 0.79094 0.0
Cd71 Cd 0.26714 0.28053 0.76375 0.0
Cd72 Cd 0.29385 0.19629 0.76454 0.0
O73 O 0.32132 0.23384 0.79054 0.0
O74 O 0.29872 0.36609 0.75565 0.0
O75 O 0.35328 0.32322 0.75709 0.0
C76 C 0.35017 0.37021 0.75405 0.0
C77 C 0.34374 0.1976 0.73803 0.0
C78 C 0.29599 0.25762 0.79925 0.0
C79 C 0.1726 0.15545 0.75404 0.0
O80 O 0.20542 0.13981 0.76221 0.0
O81 O 0.19202 0.21052 0.75066 0.0
O82 O 0.33958 0.16344 0.75131 0.0
O83 O 0.32291 0.23265 0.74036 0.0
O84 O 0.76388 0.01973 0.58104 0.0
Cd85 Cd 0.7558 0.01656 0.60808 0.0
Cd86 Cd 0.73469 0.90883 0.60663 0.0
O87 O 0.70827 0.9219 0.58065 0.0
O88 O 0.71312 0.05831 0.61803 0.0
O89 O 0.66891 0.96235 0.61217 0.0
C90 C 0.66486 1.00714 0.61752 0.0
C91 C 0.68601 0.86092 0.63347 0.0
C92 C 0.73292 0.97188 0.57233 0.0
C93 C 0.85269 0.98893 0.61783 0.0
O94 O 0.82269 0.94153 0.60886 0.0
O95 O 0.83048 0.02193 0.62159 0.0
O96 O 0.68762 0.83035 0.61993 0.0
O97 O 0.70931 0.91728 0.6314 0.0
O98 O 0.75012 0.7628 0.9132 0.0
Cd99 Cd 0.74527 0.75456 0.94006 0.0
Cd100 Cd 0.82915 0.73096 0.94017 0.0
O101 O 0.79092 0.70594 0.91375 0.0
O102 O 0.66189 0.71038 0.95072 0.0
O103 O 0.713 0.6669 0.94312 0.0
C104 C 0.66498 0.66232 0.94942 0.0
C105 C 0.81606 0.68403 0.96846 0.0
C106 C 0.76673 0.73088 0.90494 0.0
C107 C 0.87185 0.84949 0.95016 0.0
O108 O 0.88872 0.81773 0.94194 0.0
O109 O 0.8165 0.82906 0.9533 0.0
O110 O 0.84782 0.67821 0.95607 0.0
O111 O 0.79105 0.71449 0.96464 0.0
O112 O 1.00336 0.74961 0.24766 0.0
Cd113 Cd 1.00552 0.74479 0.27472 0.0
Cd114 Cd 0.11329 0.83059 0.27391 0.0
O115 O 0.10101 0.79098 0.24796 0.0
O116 O 0.96457 0.66061 0.28492 0.0
O117 O 0.06026 0.71283 0.27888 0.0
C118 C 0.0159 0.66401 0.28441 0.0
C119 C 0.15896 0.82864 0.30111 0.0
C120 C 0.05169 0.76609 0.2393 0.0
C121 C 0.0342 0.86989 0.28447 0.0
O122 O 0.08189 0.88699 0.27572 0.0
O123 O 1.0006 0.81463 0.28811 0.0
O124 O 0.19063 0.86045 0.28767 0.0
O125 O 0.10265 0.79662 0.29878 0.0
O126 O 0.26316 0.9992 0.58109 0.0
Cd127 Cd 0.27133 1.00236 0.60813 0.0
Cd128 Cd 0.29238 0.11009 0.60668 0.0
O129 O 0.31867 0.09704 0.58068 0.0
O130 O 0.31405 0.96062 0.61805 0.0
O131 O 0.35822 0.05659 0.61222 0.0
C132 C 0.3623 0.0118 0.61755 0.0
C133 C 0.34115 0.15813 0.6335 0.0
C134 C 0.29401 0.04704 0.57236 0.0
C135 C 0.17441 0.0299 0.6179 0.0
O136 O 0.20438 0.07732 0.60893 0.0
O137 O 0.19664 0.99692 0.62164 0.0
O138 O 0.33943 0.18863 0.61996 0.0
O139 O 0.31792 0.10177 0.63144 0.0
O140 O 0.27741 0.25601 0.91323 0.0
Cd141 Cd 0.2824 0.26422 0.94009 0.0
Cd142 Cd 0.19867 0.28807 0.9403 0.0
O143 O 0.23677 0.31302 0.91385 0.0
O144 O 0.36583 0.3083 0.95073 0.0
O145 O 0.31481 0.3519 0.94316 0.0
C146 C 0.36281 0.3564 0.94945 0.0
C147 C 0.21228 0.33515 0.96859 0.0
C148 C 0.26083 0.28803 0.90501 0.0
C149 C 0.15577 0.16948 0.95023 0.0
O150 O 0.13893 0.20134 0.94207 0.0
O151 O 0.21114 0.18978 0.95333 0.0
O152 O 0.18048 0.34109 0.95623 0.0
O153 O 0.23697 0.30442 0.96473 0.0
O154 O 0.02648 0.27255 0.24786 0.0
Cd155 Cd 0.02465 0.27761 0.27493 0.0
Cd156 Cd 0.91671 0.19168 0.27411 0.0
O157 O 0.9288 0.23101 0.24813 0.0
O158 O 0.06598 0.36194 0.28502 0.0
O159 O 0.97011 0.30966 0.27923 0.0
C160 C 0.01465 0.35857 0.28464 0.0
C161 C 0.8702 0.19293 0.30121 0.0
C162 C 0.97814 0.2559 0.23949 0.0
C163 C 0.99625 0.15273 0.2847 0.0
O164 O 0.9485 0.13557 0.27598 0.0
O165 O 0.02985 0.20799 0.28833 0.0
O166 O 0.83899 0.16102 0.28771 0.0
O167 O 0.92649 0.22547 0.29898 0.0
H168 H 0.07602 0.3125 0.21814 0.0
H169 H 0.88456 0.21636 0.21602 0.0
H170 H 0.88835 0.22171 0.18314 0.0
H171 H 0.94564 0.24801 0.15514 0.0
H172 H 0.13706 0.34283 0.15707 0.0
H173 H 0.13353 0.34405 0.19002 0.0
C174 C 0.03498 0.29298 0.21054 0.0
C175 C 0.97996 0.26355 0.21961 0.0
C176 C 0.03751 0.29582 0.19163 0.0
C177 C 0.92743 0.23906 0.20945 0.0
C178 C 0.9296 0.242 0.19064 0.0
C179 C 0.98678 0.26932 0.16271 0.0
C180 C 0.04165 0.29485 0.15358 0.0
C181 C 0.98435 0.26937 0.1816 0.0
C182 C 0.09429 0.32276 0.16369 0.0
C183 C 0.09224 0.32327 0.18254 0.0
H184 H 0.71228 0.94676 0.48766 0.0
H185 H 0.80907 0.13819 0.49132 0.0
H186 H 0.80296 0.13151 0.52419 0.0
H187 H 0.77541 0.07149 0.55175 0.0
H188 H 0.68017 0.88006 0.54809 0.0
H189 H 0.68019 0.88676 0.51523 0.0
C190 C 0.73182 0.9872 0.4956 0.0
C191 C 0.76155 0.04303 0.48695 0.0
C192 C 0.7286 0.983 0.51447 0.0
C193 C 0.78608 0.09472 0.49754 0.0
C194 C 0.78272 0.09089 0.51635 0.0
C195 C 0.75426 0.03106 0.54382 0.0
C196 C 0.72817 0.97522 0.55245 0.0
C197 C 0.75491 0.03527 0.52495 0.0
C198 C 0.70068 0.92354 0.54187 0.0
C199 C 0.70082 0.92738 0.52306 0.0
H200 H 0.77479 0.70742 0.82047 0.0
H201 H 0.6765 0.80055 0.82286 0.0
H202 H 0.67592 0.79555 0.85576 0.0
H203 H 0.70851 0.77029 0.8837 0.0
H204 H 0.8082 0.67861 0.88136 0.0
H205 H 0.80261 0.67722 0.84845 0.0
C206 C 0.75284 0.72638 0.82814 0.0
C207 C 0.7261 0.75482 0.81913 0.0
C208 C 0.75315 0.7238 0.84704 0.0
C209 C 0.69753 0.77858 0.82937 0.0
C210 C 0.69734 0.77586 0.8482 0.0
C211 C 0.72882 0.74963 0.87605 0.0
C212 C 0.75924 0.72498 0.88506 0.0
C213 C 0.72585 0.74945 0.85716 0.0
C214 C 0.78468 0.698 0.87484 0.0
C215 C 0.78162 0.69736 0.856 0.0
H216 H 0.08458 0.77189 0.155 0.0
H217 H 0.89316 0.67841 0.15679 0.0
H218 H 0.89646 0.6779 0.18976 0.0
H219 H 0.95383 0.70974 0.21791 0.0
H220 H 0.14531 0.80458 0.2159 0.0
H221 H 0.14167 0.79848 0.18304 0.0
C222 C 0.04339 0.75102 0.16254 0.0
C223 C 0.98859 0.72567 0.15337 0.0
C224 C 0.04568 0.7514 0.18144 0.0
C225 C 0.93588 0.69832 0.16345 0.0
C226 C 0.9378 0.69823 0.18231 0.0
C227 C 0.99491 0.72882 0.21033 0.0
C228 C 0.0499 0.7581 0.21944 0.0
C229 C 0.99247 0.72554 0.19143 0.0
C230 C 0.10246 0.78202 0.20932 0.0
C231 C 0.10038 0.77865 0.19051 0.0
H232 H 0.25152 0.9474 0.5518 0.0
H233 H 0.34621 0.13882 0.5481 0.0
H234 H 0.34567 0.13203 0.51524 0.0
H235 H 0.31323 0.07193 0.48769 0.0
H236 H 0.21698 0.88051 0.49138 0.0
H237 H 0.22364 0.88731 0.52424 0.0
C238 C 0.27244 0.98781 0.54386 0.0
C239 C 0.29853 0.04367 0.55249 0.0
C240 C 0.27147 0.98355 0.52498 0.0
C241 C 0.32572 0.09533 0.54189 0.0
C242 C 0.32527 0.09143 0.52308 0.0
C243 C 0.29393 0.03152 0.49563 0.0
C244 C 0.26418 0.97566 0.487 0.0
C245 C 0.29747 0.03579 0.5145 0.0
C246 C 0.23996 0.92401 0.49759 0.0
C247 C 0.24364 0.9279 0.5164 0.0
H248 H 0.25304 0.31257 0.82058 0.0
H249 H 0.35049 0.21856 0.82278 0.0
H250 H 0.351 0.22313 0.85569 0.0
H251 H 0.3186 0.24832 0.88368 0.0
H252 H 0.21975 0.34088 0.88152 0.0
H253 H 0.22538 0.34263 0.84861 0.0
C254 C 0.27479 0.29332 0.8282 0.0
C255 C 0.30133 0.26477 0.81914 0.0
C256 C 0.27444 0.29565 0.84711 0.0
C257 C 0.32963 0.24063 0.82933 0.0
C258 C 0.32978 0.2431 0.84817 0.0
C259 C 0.29848 0.26925 0.87607 0.0
C260 C 0.26829 0.29405 0.88513 0.0
C261 C 0.30149 0.26964 0.85718 0.0
C262 C 0.24309 0.32136 0.87496 0.0
C263 C 0.24618 0.32221 0.85612 0.0
H264 H 0.23675 0.36112 0.05222 0.0
H265 H 0.07083 0.35848 0.04589 0.0
H266 H 0.08474 0.36815 1.01335 0.0
H267 H 0.13531 0.35963 0.98644 0.0
H268 H 0.29903 0.35787 0.99279 0.0
H269 H 0.29536 0.36876 0.0253 0.0
C270 C 0.20461 0.36448 0.04376 0.0
C271 C 0.15248 0.35817 0.05144 0.0
C272 C 0.21205 0.36839 0.02492 0.0
C273 C 0.11105 0.36242 0.04028 0.0
C274 C 0.11883 0.36776 0.02163 0.0
C275 C 0.17101 0.36345 0.9949 0.0
C276 C 0.21679 0.35702 0.98725 0.0
C277 C 0.16783 0.36809 1.01372 0.0
C278 C 0.26275 0.36186 0.9984 0.0
C279 C 0.26065 0.36792 1.01702 0.0
H280 H 0.75899 0.10631 0.37755 0.0
H281 H 0.92106 0.2639 0.39308 0.0
H282 H 0.9419 0.29398 0.36149 0.0
H283 H 0.92206 0.267 0.3295 0.0
H284 H 0.7623 0.10697 0.31397 0.0
H285 H 0.732 0.08681 0.34557 0.0
C286 C 0.79834 0.14789 0.37407 0.0
C287 C 0.83899 0.18237 0.38763 0.0
C288 C 0.81068 0.16407 0.35587 0.0
C289 C 0.8892 0.23649 0.38293 0.0
C290 C 0.90134 0.25344 0.36484 0.0
C291 C 0.88 0.22827 0.33298 0.0
C292 C 0.84491 0.18794 0.31942 0.0
C293 C 0.86364 0.21629 0.35118 0.0
C294 C 0.7902 0.13854 0.32413 0.0
C295 C 0.7731 0.1268 0.34221 0.0
H296 H 0.66064 0.74823 0.70962 0.0
H297 H 0.66302 0.9092 0.72532 0.0
H298 H 0.65404 0.93033 0.69375 0.0
H299 H 0.66212 0.91135 0.66177 0.0
H300 H 0.66483 0.75297 0.64605 0.0
H301 H 0.65417 0.72196 0.67759 0.0
C302 C 0.65797 0.78736 0.70619 0.0
C303 C 0.6635 0.82765 0.71981 0.0
C304 C 0.65437 0.79995 0.68799 0.0
C305 C 0.65911 0.87763 0.71513 0.0
C306 C 0.65442 0.88993 0.69706 0.0
C307 C 0.6592 0.86941 0.66519 0.0
C308 C 0.66528 0.83495 0.6516 0.0
C309 C 0.65458 0.8527 0.68336 0.0
C310 C 0.6605 0.78039 0.65623 0.0
C311 C 0.65485 0.76289 0.67429 0.0
H312 H 0.79345 0.65906 0.05214 0.0
H313 H 0.95928 0.6617 0.0455 0.0
H314 H 0.9447 0.65174 1.01299 0.0
H315 H 0.89351 0.65989 0.98617 0.0
H316 H 0.72982 0.66151 0.99284 0.0
H317 H 0.73425 0.65106 0.02533 0.0
C318 C 0.82544 0.65566 0.04362 0.0
C319 C 0.87773 0.66205 0.05121 0.0
C320 C 0.8176 0.65154 0.0248 0.0
C321 C 0.91894 0.65772 0.03996 0.0
C322 C 0.91077 0.6522 0.02133 0.0
C323 C 0.85798 0.65614 0.9947 0.0
C324 C 0.81199 0.6624 0.98714 0.0
C325 C 0.86159 0.65175 1.01352 0.0
C326 C 0.76626 0.65765 0.99837 0.0
C327 C 0.76878 0.65184 1.01699 0.0
H328 H 0.10641 0.7538 0.32918 0.0
H329 H 0.2665 0.91429 0.3142 0.0
H330 H 0.29589 0.93371 0.34587 0.0
H331 H 0.26795 0.91345 0.37778 0.0
H332 H 0.10561 0.75533 0.39277 0.0
H333 H 0.08572 0.72598 0.36109 0.0
C334 C 0.14835 0.79247 0.3328 0.0
C335 C 0.18379 0.83315 0.31937 0.0
C336 C 0.16419 0.804 0.35105 0.0
C337 C 0.23835 0.88245 0.32425 0.0
C338 C 0.25493 0.89377 0.34239 0.0
C339 C 0.22876 0.87191 0.37416 0.0
C340 C 0.18774 0.83707 0.38759 0.0
C341 C 0.21697 0.85615 0.35591 0.0
C342 C 0.13774 0.78301 0.38271 0.0
C343 C 0.12614 0.76648 0.36458 0.0
H344 H 0.36475 0.10767 0.66185 0.0
H345 H 0.36276 0.26631 0.64602 0.0
H346 H 0.37357 0.29756 0.67754 0.0
H347 H 0.36703 0.27149 0.70958 0.0
H348 H 0.36379 0.1102 0.72539 0.0
H349 H 0.37268 0.08879 0.69384 0.0
C350 C 0.36786 0.14971 0.66524 0.0
C351 C 0.36194 0.18418 0.65162 0.0
C352 C 0.37254 0.16655 0.6834 0.0
C353 C 0.36696 0.23888 0.65622 0.0
C354 C 0.3727 0.25651 0.67427 0.0
C355 C 0.36949 0.23222 0.70618 0.0
C356 C 0.36375 0.19193 0.71982 0.0
C357 C 0.37301 0.21946 0.68799 0.0
C358 C 0.36786 0.14177 0.71519 0.0
C359 C 0.37249 0.12931 0.69712 0.0
H360 H 0.9473 0.56391 0.08541 0.0
H361 H 0.13875 0.65966 0.08632 0.0
H362 H 0.13891 0.56572 0.0847 0.0
H363 H 0.08463 0.45667 0.08593 0.0
H364 H 0.89315 0.36092 0.08587 0.0
H365 H 0.89309 0.45487 0.08406 0.0
C366 C 0.98919 0.5644 0.08506 0.0
C367 C 0.04304 0.61887 0.08619 0.0
C368 C 0.98887 0.51023 0.08439 0.0
C369 C 0.09675 0.61853 0.08552 0.0
C370 C 0.09682 0.56476 0.08467 0.0
C371 C 0.04277 0.45618 0.08534 0.0
C372 C 0.98886 0.4017 0.08624 0.0
C373 C 0.04313 0.51037 0.08455 0.0
C374 C 0.93519 0.40206 0.08525 0.0
C375 C 0.93518 0.45583 0.08429 0.0
H376 H 0.54944 0.92561 0.41745 0.0
H377 H 0.66738 0.11539 0.41742 0.0
H378 H 0.58312 0.1315 0.41556 0.0
H379 H 0.47536 0.09207 0.41728 0.0
H380 H 0.35743 0.90228 0.41777 0.0
H381 H 0.44165 0.88613 0.41589 0.0
C382 C 0.55669 0.97041 0.41671 0.0
C383 C 0.61462 0.01907 0.41782 0.0
C384 C 0.5078 0.97958 0.41588 0.0
C385 C 0.6232 0.07695 0.41681 0.0
C386 C 0.57498 0.08635 0.41577 0.0
C387 C 0.4681 0.04725 0.41665 0.0
C388 C 0.41019 0.99862 0.41791 0.0
C389 C 0.51697 0.03805 0.41581 0.0
C390 C 0.40159 0.94071 0.41705 0.0
C391 C 0.44979 0.93128 0.41599 0.0
H392 H 0.46161 0.38809 0.7497 0.0
H393 H 0.36334 0.48128 0.75067 0.0
H394 H 0.45624 0.57628 0.74896 0.0
H395 H 0.56518 0.63267 0.75005 0.0
H396 H 0.66346 0.53947 0.75022 0.0
H397 H 0.57052 0.44452 0.74844 0.0
C398 C 0.4603 0.42911 0.74932 0.0
C399 C 0.40537 0.42745 0.75046 0.0
C400 C 0.51394 0.48355 0.74866 0.0
C401 C 0.40479 0.48113 0.74984 0.0
C402 C 0.45799 0.53551 0.74894 0.0
C403 C 0.56647 0.59167 0.74949 0.0
C404 C 0.62143 0.5933 0.75042 0.0
C405 C 0.51282 0.53724 0.74878 0.0
C406 C 0.62199 0.53964 0.74956 0.0
C407 C 0.56878 0.48529 0.74862 0.0
H408 H 0.3933 0.92639 0.62208 0.0
H409 H 0.46537 0.11622 0.62185 0.0
H410 H 0.56568 0.13218 0.6237 0.0
H411 H 0.63388 0.09256 0.62206 0.0
H412 H 0.56181 0.90273 0.62186 0.0
H413 H 0.46151 0.88678 0.62372 0.0
C414 C 0.43089 0.97118 0.62276 0.0
C415 C 0.42169 0.01988 0.62158 0.0
C416 C 0.48891 0.98026 0.62358 0.0
C417 C 0.47105 0.07774 0.62251 0.0
C418 C 0.52863 0.08706 0.62355 0.0
C419 C 0.59629 0.04778 0.62275 0.0
C420 C 0.60548 0.99907 0.62157 0.0
C421 C 0.53827 0.0387 0.62358 0.0
C422 C 0.55613 0.94122 0.62251 0.0
C423 C 0.49855 0.9319 0.62356 0.0
H424 H 0.47938 0.38961 0.95441 0.0
H425 H 0.35838 0.45752 0.95428 0.0
H426 H 0.44115 0.55885 0.95639 0.0
H427 H 0.54847 0.62906 0.95454 0.0
H428 H 0.66947 0.56115 0.95407 0.0
H429 H 0.58673 0.45981 0.95617 0.0
C430 C 0.47117 0.42653 0.9552 0.0
C431 C 0.41293 0.41602 0.95389 0.0
C432 C 0.51918 0.48509 0.95613 0.0
C433 C 0.40295 0.46439 0.95498 0.0
C434 C 0.45028 0.5225 0.95618 0.0
C435 C 0.55669 0.59214 0.95525 0.0
C436 C 0.61492 0.60266 0.95385 0.0
C437 C 0.5087 0.53357 0.95617 0.0
C438 C 0.62491 0.55428 0.95484 0.0
C439 C 0.5776 0.49616 0.95604 0.0
H440 H 0.9315 0.54745 0.28939 0.0
H441 H 0.12082 0.66675 0.28879 0.0
H442 H 0.13786 0.58304 0.29078 0.0
H443 H 0.09925 0.47528 0.28918 0.0
H444 H 0.90993 0.35596 0.28939 0.0
H445 H 0.89297 0.43975 0.2913 0.0
C446 C 0.97641 0.55511 0.29003 0.0
C447 C 0.02465 0.61322 0.28867 0.0
C448 C 0.98611 0.50654 0.29094 0.0
C449 C 0.08269 0.62239 0.28957 0.0
C450 C 0.09262 0.57449 0.29069 0.0
C451 C 0.05437 0.46764 0.28998 0.0
C452 C 1.00608 0.40948 0.28887 0.0
C453 C 0.04471 0.51624 0.29084 0.0
C454 C 0.94809 0.40035 0.28997 0.0
C455 C 0.9382 0.44829 0.29105 0.0
H456 H 0.1053 0.12794 0.08424 0.0
H457 H 0.91853 0.0706 0.08374 0.0
H458 H 0.89463 0.96696 0.08184 0.0
H459 H 0.92676 0.89275 0.08372 0.0
H460 H 0.11352 0.95006 0.08398 0.0
H461 H 0.13752 0.05379 0.08234 0.0
C462 C 0.05932 0.09281 0.08347 0.0
C463 C 1.01368 0.10699 0.08437 0.0
C464 C 0.04598 0.03339 0.08245 0.0
C465 C 0.95445 0.061 0.08309 0.0
C466 C 0.94079 1.00169 0.08211 0.0
C467 C 0.97277 0.9279 0.08317 0.0
C468 C 0.01835 0.91368 0.08421 0.0
C469 C 0.98616 0.98736 0.08231 0.0
C470 C 0.07764 0.9597 0.08321 0.0
C471 C 0.09135 0.01905 0.08239 0.0
H472 H 0.98955 0.10169 0.41632 0.0
H473 H 0.85375 0.91678 0.41643 0.0
H474 H 0.92994 0.88806 0.41443 0.0
H475 H 0.03505 0.91574 0.41658 0.0
H476 H 0.17084 0.10065 0.41627 0.0
H477 H 0.09462 0.12931 0.41416 0.0
C478 C 0.97658 0.05507 0.41562 0.0
C479 C 0.91611 0.01133 0.4168 0.0
C480 C 0.0206 0.03902 0.41457 0.0
C481 C 0.8999 0.95122 0.41557 0.0
C482 C 0.94351 0.93483 0.41456 0.0
C483 C 0.04801 0.96234 0.41576 0.0
C484 C 0.1085 1.00612 0.41686 0.0
C485 C 1.00397 0.97835 0.41465 0.0
C486 C 0.12468 0.06619 0.41549 0.0
C487 C 0.08106 0.08254 0.4144 0.0
H488 H 0.13053 0.03749 0.74935 0.0
H489 H 0.07532 0.16867 0.74952 0.0
H490 H 0.97135 0.08964 0.74782 0.0
H491 H 0.89638 0.98335 0.74968 0.0
H492 H 0.95158 0.85218 0.7492 0.0
H493 H 0.05551 0.93125 0.7474 0.0
C494 C 0.09578 0.04888 0.74877 0.0
C495 C 0.11068 0.10899 0.7498 0.0
C496 C 0.03618 1.0032 0.74786 0.0
C497 C 0.06518 0.12293 0.74876 0.0
C498 C 1.00569 0.07768 0.7479 0.0
C499 C 0.93111 0.97197 0.74893 0.0
C500 C 0.91623 0.91185 0.74982 0.0
C501 C 0.99068 0.01768 0.74796 0.0
C502 C 0.96171 0.89793 0.74856 0.0
C503 C 0.02118 0.9432 0.74765 0.0
H504 H 0.89792 0.91622 0.62295 0.0
H505 H 0.94656 0.10102 0.62315 0.0
H506 H 0.05151 0.12994 0.62522 0.0
H507 H 0.12915 0.10255 0.62308 0.0
H508 H 0.08051 0.91775 0.62309 0.0
H509 H 0.97555 0.88881 0.62509 0.0
C510 C 0.93147 0.96286 0.62373 0.0
C511 C 0.91459 1.00652 0.62262 0.0
C512 C 0.99157 0.97902 0.62482 0.0
C513 C 0.95838 0.06664 0.62395 0.0
C514 C 0.01839 0.08314 0.62501 0.0
C515 C 0.09559 0.0559 0.62381 0.0
C516 C 0.11248 0.01225 0.62267 0.0
C517 C 0.03549 0.03972 0.62486 0.0
C518 C 0.06868 0.95212 0.62392 0.0
C519 C 1.00866 0.93561 0.62494 0.0
H520 H 0.9895 0.89321 0.95527 0.0
H521 H 0.85554 0.94458 0.95525 0.0
H522 H 0.93272 0.0492 0.95733 0.0
H523 H 0.03809 0.12575 0.95531 0.0
H524 H 0.17204 0.07436 0.9553 0.0
H525 H 0.09485 0.96974 0.95733 0.0
C526 C 0.97713 0.92727 0.95598 0.0
C527 C 0.91691 0.91128 0.95482 0.0
C528 C 0.0217 0.98718 0.95704 0.0
C529 C 0.90151 0.95573 0.95607 0.0
C530 C 0.94566 0.01555 0.95715 0.0
C531 C 0.05046 0.09168 0.95601 0.0
C532 C 0.11068 0.10767 0.95486 0.0
C533 C 1.00588 0.03177 0.95705 0.0
C534 C 0.12607 0.06321 0.95611 0.0
C535 C 0.08191 1.00339 0.95716 0.0
H536 H 0.10763 0.9878 0.28956 0.0
H537 H 0.92262 0.8527 0.28977 0.0
H538 H 0.89467 0.92949 0.29191 0.0
H539 H 0.92294 0.03486 0.28985 0.0
H540 H 0.10796 0.16997 0.28975 0.0
H541 H 0.13596 0.09317 0.2917 0.0
C542 C 0.06116 0.9751 0.29034 0.0
C543 C 0.01715 0.91466 0.28922 0.0
C544 C 0.04555 0.01946 0.29146 0.0
C545 C 0.95725 0.89883 0.29057 0.0
C546 C 0.9413 0.94277 0.29167 0.0
C547 C 0.96943 0.04755 0.29053 0.0
C548 C 1.01341 0.108 0.28938 0.0
C549 C 0.98507 1.0032 0.29153 0.0
C550 C 0.07335 0.12383 0.29059 0.0
C551 C 0.08932 0.07989 0.29157 0.0
loop_
_geom_bond_atom_site_label_1
_geom_bond_atom_site_label_2
_geom_bond_distance
_geom_bond_site_symmetry_2
_ccdc_geom_bond_type
O0 Cd1 2.223 1_455 S
O0 C8 1.315 . S
Cd1 O0 2.223 1_655 S
Cd1 O4 2.297 . S
Cd1 O5 2.439 1_655 S
Cd1 O11 2.240 1_655 S
Cd2 O3 2.240 . S
Cd2 O10 2.223 . S
Cd2 O12 2.297 . S
Cd2 O13 2.439 . S
O3 Cd2 2.240 . S
O3 C8 1.279 . S
O4 Cd1 2.297 . S
O4 C6 1.247 1_655 S
O5 Cd1 2.439 1_455 S
O5 C6 1.208 . S
C6 O4 1.247 1_455 S
C6 O5 1.208 . S
C7 O12 1.247 . S
C7 O13 1.208 . S
C8 O0 1.315 . S
C8 O3 1.279 . S
C9 O10 1.315 . S
C9 O11 1.279 . S
O10 Cd2 2.223 . S
O10 C9 1.315 . S
O11 Cd1 2.240 1_455 S
O11 C9 1.279 . S
O12 Cd2 2.297 . S
O12 C7 1.247 . S
O13 Cd2 2.439 . S
O13 C7 1.208 . S
O14 Cd15 2.223 1_545 S
O14 C22 1.315 . S
Cd15 O14 2.223 1_565 S
Cd15 O18 2.297 . S
Cd15 O19 2.439 1_565 S
Cd15 O25 2.240 1_565 S
Cd16 O17 2.240 . S
Cd16 O24 2.223 . S
Cd16 O26 2.297 . S
Cd16 O27 2.439 . S
O17 Cd16 2.240 . S
O17 C22 1.279 . S
O18 Cd15 2.297 . S
O18 C20 1.247 1_565 S
O19 Cd15 2.439 1_545 S
O19 C20 1.208 . S
C20 O18 1.247 1_545 S
C20 O19 1.208 . S
C21 O26 1.247 . S
C21 O27 1.208 . S
C22 O14 1.315 . S
C22 O17 1.279 . S
C23 O24 1.315 . S
C23 O25 1.279 . S
O24 Cd16 2.223 . S
O24 C23 1.315 . S
O25 Cd15 2.240 1_545 S
O25 C23 1.279 . S
O26 Cd16 2.297 . S
O26 C21 1.247 . S
O27 Cd16 2.439 . S
O27 C21 1.208 . S
O28 Cd29 2.223 . S
O28 C36 1.315 . S
Cd29 O28 2.223 . S
Cd29 O32 2.297 . S
Cd29 O33 2.439 . S
Cd29 O39 2.240 . S
Cd30 O31 2.240 . S
Cd30 O38 2.223 . S
Cd30 O40 2.297 . S
Cd30 O41 2.439 . S
O31 Cd30 2.240 . S
O31 C36 1.279 . S
O32 Cd29 2.297 . S
O32 C34 1.247 . S
O33 Cd29 2.439 . S
O33 C34 1.208 . S
C34 O32 1.247 . S
C34 O33 1.208 . S
C35 O40 1.247 . S
C35 O41 1.208 . S
C36 O28 1.315 . S
C36 O31 1.279 . S
C37 O38 1.315 . S
C37 O39 1.279 . S
O38 Cd30 2.223 . S
O38 C37 1.315 . S
O39 Cd29 2.240 . S
O39 C37 1.279 . S
O40 Cd30 2.297 . S
O40 C35 1.247 . S
O41 Cd30 2.439 . S
O41 C35 1.208 . S
O42 Cd43 2.223 1_655 S
O42 C50 1.315 . S
Cd43 O42 2.223 1_455 S
Cd43 O46 2.297 . S
Cd43 O47 2.439 1_455 S
Cd43 O53 2.240 1_455 S
Cd44 O45 2.240 . S
Cd44 O52 2.223 . S
Cd44 O54 2.297 . S
Cd44 O55 2.439 . S
O45 Cd44 2.240 . S
O45 C50 1.279 . S
O46 Cd43 2.297 . S
O46 C48 1.247 1_455 S
O47 Cd43 2.439 1_655 S
O47 C48 1.208 . S
C48 O46 1.247 1_655 S
C48 O47 1.208 . S
C49 O54 1.247 . S
C49 O55 1.208 . S
C50 O42 1.315 . S
C50 O45 1.279 . S
C51 O52 1.315 . S
C51 O53 1.279 . S
O52 Cd44 2.223 . S
O52 C51 1.315 . S
O53 Cd43 2.240 1_655 S
O53 C51 1.279 . S
O54 Cd44 2.297 . S
O54 C49 1.247 . S
O55 Cd44 2.439 . S
O55 C49 1.208 . S
O56 Cd57 2.223 1_565 S
O56 C64 1.315 . S
Cd57 O56 2.223 1_545 S
Cd57 O60 2.297 . S
Cd57 O61 2.439 1_545 S
Cd57 O67 2.240 1_545 S
Cd58 O59 2.240 . S
Cd58 O66 2.223 . S
Cd58 O68 2.297 . S
Cd58 O69 2.439 . S
O59 Cd58 2.240 . S
O59 C64 1.279 . S
O60 Cd57 2.297 . S
O60 C62 1.247 1_545 S
O61 Cd57 2.439 1_565 S
O61 C62 1.208 . S
C62 O60 1.247 1_565 S
C62 O61 1.208 . S
C63 O68 1.247 . S
C63 O69 1.208 . S
C64 O56 1.315 . S
C64 O59 1.279 . S
C65 O66 1.315 . S
C65 O67 1.279 . S
O66 Cd58 2.223 . S
O66 C65 1.315 . S
O67 Cd57 2.240 1_565 S
O67 C65 1.279 . S
O68 Cd58 2.297 . S
O68 C63 1.247 . S
O69 Cd58 2.439 . S
O69 C63 1.208 . S
O70 Cd71 2.223 . S
O70 C78 1.315 . S
Cd71 O70 2.223 . S
Cd71 O74 2.297 . S
Cd71 O75 2.439 . S
Cd71 O81 2.240 . S
Cd72 O73 2.240 . S
Cd72 O80 2.223 . S
Cd72 O82 2.297 . S
Cd72 O83 2.439 . S
O73 Cd72 2.240 . S
O73 C78 1.279 . S
O74 Cd71 2.297 . S
O74 C76 1.247 . S
O75 Cd71 2.439 . S
O75 C76 1.208 . S
C76 O74 1.247 . S
C76 O75 1.208 . S
C77 O82 1.247 . S
C77 O83 1.208 . S
C78 O70 1.315 . S
C78 O73 1.279 . S
C79 O80 1.315 . S
C79 O81 1.279 . S
O80 Cd72 2.223 . S
O80 C79 1.315 . S
O81 Cd71 2.240 . S
O81 C79 1.279 . S
O82 Cd72 2.297 . S
O82 C77 1.247 . S
O83 Cd72 2.439 . S
O83 C77 1.208 . S
O84 Cd85 2.223 1_565 S
O84 C92 1.315 . S
Cd85 O84 2.223 1_545 S
Cd85 O88 2.297 . S
Cd85 O89 2.439 1_545 S
Cd85 O95 2.240 1_545 S
Cd86 O87 2.240 . S
Cd86 O94 2.223 . S
Cd86 O96 2.297 . S
Cd86 O97 2.439 . S
O87 Cd86 2.240 . S
O87 C92 1.279 . S
O88 Cd85 2.297 . S
O88 C90 1.247 1_545 S
O89 Cd85 2.439 1_565 S
O89 C90 1.208 . S
C90 O88 1.247 1_565 S
C90 O89 1.208 . S
C91 O96 1.247 . S
C91 O97 1.208 . S
C92 O84 1.315 . S
C92 O87 1.279 . S
C93 O94 1.315 . S
C93 O95 1.279 . S
O94 Cd86 2.223 . S
O94 C93 1.315 . S
O95 Cd85 2.240 1_565 S
O95 C93 1.279 . S
O96 Cd86 2.297 . S
O96 C91 1.247 . S
O97 Cd86 2.439 . S
O97 C91 1.208 . S
O98 Cd99 2.223 . S
O98 C106 1.315 . S
Cd99 O98 2.223 . S
Cd99 O102 2.297 . S
Cd99 O103 2.439 . S
Cd99 O109 2.240 . S
Cd100 O101 2.240 . S
Cd100 O108 2.223 . S
Cd100 O110 2.297 . S
Cd100 O111 2.439 . S
O101 Cd100 2.240 . S
O101 C106 1.279 . S
O102 Cd99 2.297 . S
O102 C104 1.247 . S
O103 Cd99 2.439 . S
O103 C104 1.208 . S
C104 O102 1.247 . S
C104 O103 1.208 . S
C105 O110 1.247 . S
C105 O111 1.208 . S
C106 O98 1.315 . S
C106 O101 1.279 . S
C107 O108 1.315 . S
C107 O109 1.279 . S
O108 Cd100 2.223 . S
O108 C107 1.315 . S
O109 Cd99 2.240 . S
O109 C107 1.279 . S
O110 Cd100 2.297 . S
O110 C105 1.247 . S
O111 Cd100 2.439 . S
O111 C105 1.208 . S
O112 Cd113 2.223 1_455 S
O112 C120 1.315 . S
Cd113 O112 2.223 1_655 S
Cd113 O116 2.297 . S
Cd113 O117 2.439 1_655 S
Cd113 O123 2.240 1_655 S
Cd114 O115 2.240 . S
Cd114 O122 2.223 . S
Cd114 O124 2.297 . S
Cd114 O125 2.439 . S
O115 Cd114 2.240 . S
O115 C120 1.279 . S
O116 Cd113 2.297 . S
O116 C118 1.247 1_655 S
O117 Cd113 2.439 1_455 S
O117 C118 1.208 . S
C118 O116 1.247 1_455 S
C118 O117 1.208 . S
C119 O124 1.247 . S
C119 O125 1.208 . S
C120 O112 1.315 . S
C120 O115 1.279 . S
C121 O122 1.315 . S
C121 O123 1.279 . S
O122 Cd114 2.223 . S
O122 C121 1.315 . S
O123 Cd113 2.240 1_455 S
O123 C121 1.279 . S
O124 Cd114 2.297 . S
O124 C119 1.247 . S
O125 Cd114 2.439 . S
O125 C119 1.208 . S
O126 Cd127 2.223 1_545 S
O126 C134 1.315 . S
Cd127 O126 2.223 1_565 S
Cd127 O130 2.297 . S
Cd127 O131 2.439 1_565 S
Cd127 O137 2.240 1_565 S
Cd128 O129 2.240 . S
Cd128 O136 2.223 . S
Cd128 O138 2.297 . S
Cd128 O139 2.439 . S
O129 Cd128 2.240 . S
O129 C134 1.279 . S
O130 Cd127 2.297 . S
O130 C132 1.247 1_565 S
O131 Cd127 2.439 1_545 S
O131 C132 1.208 . S
C132 O130 1.247 1_545 S
C132 O131 1.208 . S
C133 O138 1.247 . S
C133 O139 1.208 . S
C134 O126 1.315 . S
C134 O129 1.279 . S
C135 O136 1.315 . S
C135 O137 1.279 . S
O136 Cd128 2.223 . S
O136 C135 1.315 . S
O137 Cd127 2.240 1_545 S
O137 C135 1.279 . S
O138 Cd128 2.297 . S
O138 C133 1.247 . S
O139 Cd128 2.439 . S
O139 C133 1.208 . S
O140 Cd141 2.223 . S
O140 C148 1.315 . S
Cd141 O140 2.223 . S
Cd141 O144 2.297 . S
Cd141 O145 2.439 . S
Cd141 O151 2.240 . S
Cd142 O143 2.240 . S
Cd142 O150 2.223 . S
Cd142 O152 2.297 . S
Cd142 O153 2.439 . S
O143 Cd142 2.240 . S
O143 C148 1.279 . S
O144 Cd141 2.297 . S
O144 C146 1.247 . S
O145 Cd141 2.439 . S
O145 C146 1.208 . S
C146 O144 1.247 . S
C146 O145 1.208 . S
C147 O152 1.247 . S
C147 O153 1.208 . S
C148 O140 1.315 . S
C148 O143 1.279 . S
C149 O150 1.315 . S
C149 O151 1.279 . S
O150 Cd142 2.223 . S
O150 C149 1.315 . S
O151 Cd141 2.240 . S
O151 C149 1.279 . S
O152 Cd142 2.297 . S
O152 C147 1.247 . S
O153 Cd142 2.439 . S
O153 C147 1.208 . S
O154 Cd155 2.223 1_655 S
O154 C162 1.315 . S
Cd155 O154 2.223 1_455 S
Cd155 O158 2.297 . S
Cd155 O159 2.439 1_455 S
Cd155 O165 2.240 1_455 S
Cd156 O157 2.240 . S
Cd156 O164 2.223 . S
Cd156 O166 2.297 . S
Cd156 O167 2.439 . S
O157 Cd156 2.240 . S
O157 C162 1.279 . S
O158 Cd155 2.297 . S
O158 C160 1.247 1_455 S
O159 Cd155 2.439 1_655 S
O159 C160 1.208 . S
C160 O158 1.247 1_655 S
C160 O159 1.208 . S
C161 O166 1.247 . S
C161 O167 1.208 . S
C162 O154 1.315 . S
C162 O157 1.279 . S
C163 O164 1.315 . S
C163 O165 1.279 . S
O164 Cd156 2.223 . S
O164 C163 1.315 . S
O165 Cd155 2.240 1_655 S
O165 C163 1.279 . S
O166 Cd156 2.297 . S
O166 C161 1.247 . S
O167 Cd156 2.439 . S
O167 C161 1.208 . S
H168 C174 0.930 . S
H169 C177 0.930 . S
H170 C178 0.930 . S
H171 C179 0.930 . S
H172 C182 0.930 . S
H173 C183 0.930 . S
C174 H168 0.930 . S
C174 C175 1.355 . S
C174 C176 1.415 . S
C175 C174 1.355 . S
C175 C177 1.419 . S
C176 C174 1.415 . S
C176 C181 1.425 1_655 S
C176 C183 1.409 1_655 S
C177 H169 0.930 . S
C177 C175 1.419 . S
C177 C178 1.362 . S
C178 H170 0.930 . S
C178 C177 1.362 . S
C178 C181 1.409 1_655 S
C179 H171 0.930 . S
C179 C180 1.355 . S
C179 C181 1.415 . S
C180 C179 1.355 . S
C180 C182 1.419 . S
C181 C176 1.425 1_455 S
C181 C178 1.409 1_455 S
C181 C179 1.415 . S
C182 H172 0.930 . S
C182 C180 1.419 . S
C182 C183 1.362 . S
C183 H173 0.930 . S
C183 C176 1.409 1_455 S
C183 C182 1.362 . S
H184 C190 0.930 . S
H185 C193 0.930 . S
H186 C194 0.930 . S
H187 C195 0.930 . S
H188 C198 0.930 . S
H189 C199 0.930 . S
C190 H184 0.930 . S
C190 C191 1.355 . S
C190 C192 1.415 1_545 S
C191 C190 1.355 . S
C191 C193 1.419 . S
C192 C190 1.415 1_565 S
C192 C197 1.425 1_565 S
C192 C199 1.409 . S
C193 H185 0.930 . S
C193 C191 1.419 . S
C193 C194 1.362 . S
C194 H186 0.930 . S
C194 C193 1.362 . S
C194 C197 1.409 . S
C195 H187 0.930 . S
C195 C196 1.355 . S
C195 C197 1.415 1_565 S
C196 C195 1.355 . S
C196 C198 1.419 . S
C197 C192 1.425 1_545 S
C197 C194 1.409 . S
C197 C195 1.415 1_545 S
C198 H188 0.930 . S
C198 C196 1.419 . S
C198 C199 1.362 . S
C199 H189 0.930 . S
C199 C192 1.409 . S
C199 C198 1.362 . S
H200 C206 0.930 . S
H201 C209 0.930 . S
H202 C210 0.930 . S
H203 C211 0.930 . S
H204 C214 0.930 . S
H205 C215 0.930 . S
C206 H200 0.930 . S
C206 C207 1.355 . S
C206 C208 1.415 . S
C207 C206 1.355 . S
C207 C209 1.419 . S
C208 C206 1.415 . S
C208 C213 1.425 . S
C208 C215 1.409 . S
C209 H201 0.930 . S
C209 C207 1.419 . S
C209 C210 1.362 . S
C210 H202 0.930 . S
C210 C209 1.362 . S
C210 C213 1.409 . S
C211 H203 0.930 . S
C211 C212 1.355 . S
C211 C213 1.415 . S
C212 C211 1.355 . S
C212 C214 1.419 . S
C213 C208 1.425 . S
C213 C210 1.409 . S
C213 C211 1.415 . S
C214 H204 0.930 . S
C214 C212 1.419 . S
C214 C215 1.362 . S
C215 H205 0.930 . S
C215 C208 1.409 . S
C215 C214 1.362 . S
H216 C222 0.930 . S
H217 C225 0.926 1_455 S
H218 C226 0.930 . S
H219 C227 0.930 . S
H220 C230 0.926 1_655 S
H221 C231 0.930 . S
C222 H216 0.930 . S
C222 C223 1.355 . S
C222 C224 1.415 . S
C223 C222 1.355 . S
C223 C225 1.436 . S
C224 C222 1.415 . S
C224 C229 1.425 1_655 S
C224 C231 1.409 . S
C225 H217 0.926 1_655 S
C225 C223 1.436 . S
C225 C226 1.349 1_655 S
C226 H218 0.930 . S
C226 C225 1.349 1_455 S
C226 C229 1.409 . S
C227 H219 0.930 . S
C227 C228 1.355 . S
C227 C229 1.415 . S
C228 C227 1.355 . S
C228 C230 1.436 . S
C229 C224 1.425 1_455 S
C229 C226 1.409 . S
C229 C227 1.415 . S
C230 H220 0.926 1_455 S
C230 C228 1.436 . S
C230 C231 1.349 1_455 S
C231 H221 0.930 . S
C231 C224 1.409 . S
C231 C230 1.349 1_655 S
H232 C238 0.930 . S
H233 C241 0.930 . S
H234 C242 0.930 1_565 S
H235 C243 0.930 . S
H236 C246 0.930 . S
H237 C247 0.930 1_545 S
C238 H232 0.930 . S
C238 C239 1.355 . S
C238 C240 1.415 . S
C239 C238 1.355 . S
C239 C241 1.419 . S
C240 C238 1.415 . S
C240 C245 1.425 1_545 S
C240 C247 1.409 1_545 S
C241 H233 0.930 . S
C241 C239 1.419 . S
C241 C242 1.362 . S
C242 H234 0.930 1_545 S
C242 C241 1.362 . S
C242 C245 1.409 1_545 S
C243 H235 0.930 . S
C243 C244 1.355 . S
C243 C245 1.415 . S
C244 C243 1.355 . S
C244 C246 1.419 . S
C245 C240 1.425 1_565 S
C245 C242 1.409 1_565 S
C245 C243 1.415 . S
C246 H236 0.930 . S
C246 C244 1.419 . S
C246 C247 1.362 . S
C247 H237 0.930 1_565 S
C247 C240 1.409 1_565 S
C247 C246 1.362 . S
H248 C254 0.930 . S
H249 C257 0.930 . S
H250 C258 0.930 . S
H251 C259 0.930 . S
H252 C262 0.930 . S
H253 C263 0.930 . S
C254 H248 0.930 . S
C254 C255 1.355 . S
C254 C256 1.415 . S
C255 C254 1.355 . S
C255 C257 1.419 . S
C256 C254 1.415 . S
C256 C261 1.425 . S
C256 C263 1.409 . S
C257 H249 0.930 . S
C257 C255 1.419 . S
C257 C258 1.362 . S
C258 H250 0.930 . S
C258 C257 1.362 . S
C258 C261 1.409 . S
C259 H251 0.930 . S
C259 C260 1.355 . S
C259 C261 1.415 . S
C260 C259 1.355 . S
C260 C262 1.419 . S
C261 C256 1.425 . S
C261 C258 1.409 . S
C261 C259 1.415 . S
C262 H252 0.930 . S
C262 C260 1.419 . S
C262 C263 1.362 . S
C263 H253 0.930 . S
C263 C256 1.409 . S
C263 C262 1.362 . S
H264 C270 0.930 . S
H265 C273 0.930 . S
H266 C274 0.930 . S
H267 C275 0.930 . S
H268 C278 0.930 . S
H269 C279 0.930 . S
C270 H264 0.930 . S
C270 C271 1.355 . S
C270 C272 1.415 . S
C271 C270 1.355 . S
C271 C273 1.419 . S
C272 C270 1.415 . S
C272 C277 1.425 1_554 S
C272 C279 1.409 1_554 S
C273 H265 0.930 . S
C273 C271 1.419 . S
C273 C274 1.362 . S
C274 H266 0.930 . S
C274 C273 1.362 . S
C274 C277 1.409 1_554 S
C275 H267 0.930 . S
C275 C276 1.355 . S
C275 C277 1.415 . S
C276 C275 1.355 . S
C276 C278 1.419 . S
C277 C272 1.425 1_556 S
C277 C274 1.409 1_556 S
C277 C275 1.415 . S
C278 H268 0.930 . S
C278 C276 1.419 . S
C278 C279 1.362 . S
C279 H269 0.930 . S
C279 C272 1.409 1_556 S
C279 C278 1.362 . S
H280 C286 0.930 . S
H281 C289 0.930 . S
H282 C290 0.930 . S
H283 C291 0.930 . S
H284 C294 0.930 . S
H285 C295 0.930 . S
C286 H280 0.930 . S
C286 C287 1.355 . S
C286 C288 1.415 . S
C287 C286 1.355 . S
C287 C289 1.419 . S
C288 C286 1.415 . S
C288 C293 1.425 . S
C288 C295 1.409 . S
C289 H281 0.930 . S
C289 C287 1.419 . S
C289 C290 1.362 . S
C290 H282 0.930 . S
C290 C289 1.362 . S
C290 C293 1.409 . S
C291 H283 0.930 . S
C291 C292 1.355 . S
C291 C293 1.415 . S
C292 C291 1.355 . S
C292 C294 1.419 . S
C293 C288 1.425 . S
C293 C290 1.409 . S
C293 C291 1.415 . S
C294 H284 0.930 . S
C294 C292 1.419 . S
C294 C295 1.362 . S
C295 H285 0.930 . S
C295 C288 1.409 . S
C295 C294 1.362 . S
H296 C302 0.930 . S
H297 C305 0.930 . S
H298 C306 0.930 . S
H299 C307 0.930 . S
H300 C310 0.930 . S
H301 C311 0.930 . S
C302 H296 0.930 . S
C302 C303 1.355 . S
C302 C304 1.415 . S
C303 C302 1.355 . S
C303 C305 1.419 . S
C304 C302 1.415 . S
C304 C309 1.425 . S
C304 C311 1.409 . S
C305 H297 0.930 . S
C305 C303 1.419 . S
C305 C306 1.362 . S
C306 H298 0.930 . S
C306 C305 1.362 . S
C306 C309 1.409 . S
C307 H299 0.930 . S
C307 C308 1.355 . S
C307 C309 1.415 . S
C308 C307 1.355 . S
C308 C310 1.419 . S
C309 C304 1.425 . S
C309 C306 1.409 . S
C309 C307 1.415 . S
C310 H300 0.930 . S
C310 C308 1.419 . S
C310 C311 1.362 . S
C311 H301 0.930 . S
C311 C304 1.409 . S
C311 C310 1.362 . S
H312 C318 0.930 . S
H313 C321 0.930 . S
H314 C322 0.930 . S
H315 C323 0.930 . S
H316 C326 0.930 . S
H317 C327 0.930 . S
C318 H312 0.930 . S
C318 C319 1.355 . S
C318 C320 1.415 . S
C319 C318 1.355 . S
C319 C321 1.419 . S
C320 C318 1.415 . S
C320 C325 1.425 1_554 S
C320 C327 1.409 1_554 S
C321 H313 0.930 . S
C321 C319 1.419 . S
C321 C322 1.362 . S
C322 H314 0.930 . S
C322 C321 1.362 . S
C322 C325 1.409 1_554 S
C323 H315 0.930 . S
C323 C324 1.355 . S
C323 C325 1.415 . S
C324 C323 1.355 . S
C324 C326 1.419 . S
C325 C320 1.425 1_556 S
C325 C322 1.409 1_556 S
C325 C323 1.415 . S
C326 H316 0.930 . S
C326 C324 1.419 . S
C326 C327 1.362 . S
C327 H317 0.930 . S
C327 C320 1.409 1_556 S
C327 C326 1.362 . S
H328 C334 0.930 . S
H329 C337 0.930 . S
H330 C338 0.930 . S
H331 C339 0.930 . S
H332 C342 0.930 . S
H333 C343 0.930 . S
C334 H328 0.930 . S
C334 C335 1.355 . S
C334 C336 1.415 . S
C335 C334 1.355 . S
C335 C337 1.419 . S
C336 C334 1.415 . S
C336 C341 1.425 . S
C336 C343 1.409 . S
C337 H329 0.930 . S
C337 C335 1.419 . S
C337 C338 1.362 . S
C338 H330 0.930 . S
C338 C337 1.362 . S
C338 C341 1.409 . S
C339 H331 0.930 . S
C339 C340 1.355 . S
C339 C341 1.415 . S
C340 C339 1.355 . S
C340 C342 1.419 . S
C341 C336 1.425 . S
C341 C338 1.409 . S
C341 C339 1.415 . S
C342 H332 0.930 . S
C342 C340 1.419 . S
C342 C343 1.362 . S
C343 H333 0.930 . S
C343 C336 1.409 . S
C343 C342 1.362 . S
H344 C350 0.930 . S
H345 C353 0.930 . S
H346 C354 0.930 . S
H347 C355 0.930 . S
H348 C358 0.930 . S
H349 C359 0.930 . S
C350 H344 0.930 . S
C350 C351 1.355 . S
C350 C352 1.415 . S
C351 C350 1.355 . S
C351 C353 1.419 . S
C352 C350 1.415 . S
C352 C357 1.425 . S
C352 C359 1.409 . S
C353 H345 0.930 . S
C353 C351 1.419 . S
C353 C354 1.362 . S
C354 H346 0.930 . S
C354 C353 1.362 . S
C354 C357 1.409 . S
C355 H347 0.930 . S
C355 C356 1.355 . S
C355 C357 1.415 . S
C356 C355 1.355 . S
C356 C358 1.419 . S
C357 C352 1.425 . S
C357 C354 1.409 . S
C357 C355 1.415 . S
C358 H348 0.930 . S
C358 C356 1.419 . S
C358 C359 1.362 . S
C359 H349 0.930 . S
C359 C352 1.409 . S
C359 C358 1.362 . S
H360 C366 0.930 . S
H361 C369 0.930 . S
H362 C370 0.930 . S
H363 C371 0.930 . S
H364 C374 0.930 . S
H365 C375 0.930 . S
C366 H360 0.930 . S
C366 C367 1.355 1_655 S
C366 C368 1.415 . S
C367 C366 1.355 1_455 S
C367 C369 1.419 . S
C368 C366 1.415 . S
C368 C373 1.425 1_655 S
C368 C375 1.409 . S
C369 H361 0.930 . S
C369 C367 1.419 . S
C369 C370 1.362 . S
C370 H362 0.930 . S
C370 C369 1.362 . S
C370 C373 1.409 . S
C371 H363 0.930 . S
C371 C372 1.355 1_455 S
C371 C373 1.415 . S
C372 C371 1.355 1_655 S
C372 C374 1.419 . S
C373 C368 1.425 1_455 S
C373 C370 1.409 . S
C373 C371 1.415 . S
C374 H364 0.930 . S
C374 C372 1.419 . S
C374 C375 1.362 . S
C375 H365 0.930 . S
C375 C368 1.409 . S
C375 C374 1.362 . S
H376 C382 0.930 . S
H377 C385 0.930 . S
H378 C386 0.930 . S
H379 C387 0.930 . S
H380 C390 0.930 . S
H381 C391 0.930 . S
C382 H376 0.930 . S
C382 C383 1.355 1_565 S
C382 C384 1.415 . S
C383 C382 1.355 1_545 S
C383 C385 1.419 . S
C384 C382 1.415 . S
C384 C389 1.425 1_565 S
C384 C391 1.409 . S
C385 H377 0.930 . S
C385 C383 1.419 . S
C385 C386 1.362 . S
C386 H378 0.930 . S
C386 C385 1.362 . S
C386 C389 1.409 . S
C387 H379 0.930 . S
C387 C388 1.355 1_545 S
C387 C389 1.415 . S
C388 C387 1.355 1_565 S
C388 C390 1.419 . S
C389 C384 1.425 1_545 S
C389 C386 1.409 . S
C389 C387 1.415 . S
C390 H380 0.930 . S
C390 C388 1.419 . S
C390 C391 1.362 . S
C391 H381 0.930 . S
C391 C384 1.409 . S
C391 C390 1.362 . S
H392 C398 0.930 . S
H393 C401 0.930 . S
H394 C402 0.930 . S
H395 C403 0.930 . S
H396 C406 0.930 . S
H397 C407 0.930 . S
C398 H392 0.930 . S
C398 C399 1.355 . S
C398 C400 1.415 . S
C399 C398 1.355 . S
C399 C401 1.419 . S
C400 C398 1.415 . S
C400 C405 1.425 . S
C400 C407 1.409 . S
C401 H393 0.930 . S
C401 C399 1.419 . S
C401 C402 1.362 . S
C402 H394 0.930 . S
C402 C401 1.362 . S
C402 C405 1.409 . S
C403 H395 0.930 . S
C403 C404 1.355 . S
C403 C405 1.415 . S
C404 C403 1.355 . S
C404 C406 1.419 . S
C405 C400 1.425 . S
C405 C402 1.409 . S
C405 C403 1.415 . S
C406 H396 0.930 . S
C406 C404 1.419 . S
C406 C407 1.362 . S
C407 H397 0.930 . S
C407 C400 1.409 . S
C407 C406 1.362 . S
H408 C414 0.930 . S
H409 C417 0.930 . S
H410 C418 0.930 . S
H411 C419 0.930 . S
H412 C422 0.930 . S
H413 C423 0.930 . S
C414 H408 0.930 . S
C414 C415 1.355 1_565 S
C414 C416 1.415 . S
C415 C414 1.355 1_545 S
C415 C417 1.419 . S
C416 C414 1.415 . S
C416 C421 1.425 1_565 S
C416 C423 1.409 . S
C417 H409 0.930 . S
C417 C415 1.419 . S
C417 C418 1.362 . S
C418 H410 0.930 . S
C418 C417 1.362 . S
C418 C421 1.409 . S
C419 H411 0.930 . S
C419 C420 1.355 1_545 S
C419 C421 1.415 . S
C420 C419 1.355 1_565 S
C420 C422 1.419 . S
C421 C416 1.425 1_545 S
C421 C418 1.409 . S
C421 C419 1.415 . S
C422 H412 0.930 . S
C422 C420 1.419 . S
C422 C423 1.362 . S
C423 H413 0.930 . S
C423 C416 1.409 . S
C423 C422 1.362 . S
H424 C430 0.930 . S
H425 C433 0.930 . S
H426 C434 0.930 . S
H427 C435 0.930 . S
H428 C438 0.930 . S
H429 C439 0.930 . S
C430 H424 0.930 . S
C430 C431 1.355 . S
C430 C432 1.415 . S
C431 C430 1.355 . S
C431 C433 1.419 . S
C432 C430 1.415 . S
C432 C437 1.425 . S
C432 C439 1.409 . S
C433 H425 0.930 . S
C433 C431 1.419 . S
C433 C434 1.362 . S
C434 H426 0.930 . S
C434 C433 1.362 . S
C434 C437 1.409 . S
C435 H427 0.930 . S
C435 C436 1.355 . S
C435 C437 1.415 . S
C436 C435 1.355 . S
C436 C438 1.419 . S
C437 C432 1.425 . S
C437 C434 1.409 . S
C437 C435 1.415 . S
C438 H428 0.930 . S
C438 C436 1.419 . S
C438 C439 1.362 . S
C439 H429 0.930 . S
C439 C432 1.409 . S
C439 C438 1.362 . S
H440 C446 0.931 . S
H441 C449 0.930 . S
H442 C450 0.930 . S
H443 C451 0.928 1_455 S
H444 C454 0.930 . S
H445 C455 0.930 . S
C446 H440 0.931 . S
C446 C447 1.357 1_655 S
C446 C448 1.411 . S
C447 C446 1.357 1_455 S
C447 C449 1.419 . S
C448 C446 1.411 . S
C448 C453 1.425 1_655 S
C448 C455 1.409 . S
C449 H441 0.930 . S
C449 C447 1.419 . S
C449 C450 1.362 . S
C450 H442 0.930 . S
C450 C449 1.362 . S
C450 C453 1.409 . S
C451 H443 0.928 1_655 S
C451 C452 1.353 . S
C451 C453 1.418 1_655 S
C452 C451 1.353 . S
C452 C454 1.419 . S
C453 C448 1.425 1_455 S
C453 C450 1.409 . S
C453 C451 1.418 1_455 S
C454 H444 0.930 . S
C454 C452 1.419 . S
C454 C455 1.362 . S
C455 H445 0.930 . S
C455 C448 1.409 . S
C455 C454 1.362 . S
H456 C462 0.930 . S
H457 C465 0.930 . S
H458 C466 0.930 . S
H459 C467 0.930 . S
H460 C470 0.930 . S
H461 C471 0.930 . S
C462 H456 0.930 . S
C462 C463 1.355 . S
C462 C464 1.415 . S
C463 C462 1.355 . S
C463 C465 1.419 1_455 S
C464 C462 1.415 . S
C464 C469 1.425 1_445 S
C464 C471 1.409 1_545 S
C465 H457 0.930 . S
C465 C463 1.419 1_655 S
C465 C466 1.362 . S
C466 H458 0.930 . S
C466 C465 1.362 . S
C466 C469 1.409 1_545 S
C467 H459 0.930 . S
C467 C468 1.355 . S
C467 C469 1.415 . S
C468 C467 1.355 . S
C468 C470 1.419 1_655 S
C469 C464 1.425 1_665 S
C469 C466 1.409 1_565 S
C469 C467 1.415 . S
C470 H460 0.930 . S
C470 C468 1.419 1_455 S
C470 C471 1.362 . S
C471 H461 0.930 . S
C471 C464 1.409 1_565 S
C471 C470 1.362 . S
H472 C478 0.930 . S
H473 C481 0.930 . S
H474 C482 0.930 . S
H475 C483 0.930 . S
H476 C486 0.930 . S
H477 C487 0.930 . S
C478 H472 0.930 . S
C478 C479 1.355 . S
C478 C480 1.415 . S
C479 C478 1.355 . S
C479 C481 1.419 . S
C480 C478 1.415 . S
C480 C485 1.425 1_645 S
C480 C487 1.409 1_655 S
C481 H473 0.930 . S
C481 C479 1.419 . S
C481 C482 1.362 1_545 S
C482 H474 0.930 . S
C482 C481 1.362 1_565 S
C482 C485 1.409 1_655 S
C483 H475 0.930 . S
C483 C484 1.355 . S
C483 C485 1.415 . S
C484 C483 1.355 . S
C484 C486 1.419 . S
C485 C480 1.425 1_465 S
C485 C482 1.409 1_455 S
C485 C483 1.415 . S
C486 H476 0.930 . S
C486 C484 1.419 . S
C486 C487 1.362 1_565 S
C487 H477 0.930 . S
C487 C480 1.409 1_455 S
C487 C486 1.362 1_545 S
H488 C494 0.930 . S
H489 C497 0.930 . S
H490 C498 0.930 1_565 S
H491 C499 0.930 . S
H492 C502 0.930 . S
H493 C503 0.930 1_545 S
C494 H488 0.930 . S
C494 C495 1.355 . S
C494 C496 1.415 . S
C495 C494 1.355 . S
C495 C497 1.419 . S
C496 C494 1.415 . S
C496 C501 1.425 1_445 S
C496 C503 1.409 1_445 S
C497 H489 0.930 . S
C497 C495 1.419 . S
C497 C498 1.362 . S
C498 H490 0.930 1_545 S
C498 C497 1.362 . S
C498 C501 1.409 1_445 S
C499 H491 0.930 . S
C499 C500 1.355 . S
C499 C501 1.415 . S
C500 C499 1.355 . S
C500 C502 1.419 . S
C501 C496 1.425 1_665 S
C501 C498 1.409 1_665 S
C501 C499 1.415 . S
C502 H492 0.930 . S
C502 C500 1.419 . S
C502 C503 1.362 . S
C503 H493 0.930 1_565 S
C503 C496 1.409 1_665 S
C503 C502 1.362 . S
H504 C510 0.930 . S
H505 C513 0.930 . S
H506 C514 0.930 . S
H507 C515 0.930 . S
H508 C518 0.930 . S
H509 C519 0.930 . S
C510 H504 0.930 . S
C510 C511 1.355 . S
C510 C512 1.415 . S
C511 C510 1.355 . S
C511 C513 1.419 1_565 S
C512 C510 1.415 . S
C512 C517 1.425 1_665 S
C512 C519 1.409 1_655 S
C513 H505 0.930 . S
C513 C511 1.419 1_545 S
C513 C514 1.362 . S
C514 H506 0.930 . S
C514 C513 1.362 . S
C514 C517 1.409 1_655 S
C515 H507 0.930 . S
C515 C516 1.355 . S
C515 C517 1.415 . S
C516 C515 1.355 . S
C516 C518 1.419 1_545 S
C517 C512 1.425 1_445 S
C517 C514 1.409 1_455 S
C517 C515 1.415 . S
C518 H508 0.930 . S
C518 C516 1.419 1_565 S
C518 C519 1.362 . S
C519 H509 0.930 . S
C519 C512 1.409 1_455 S
C519 C518 1.362 . S
H520 C526 0.930 . S
H521 C529 0.930 . S
H522 C530 0.930 . S
H523 C531 0.930 . S
H524 C534 0.930 . S
H525 C535 0.930 . S
C526 H520 0.930 . S
C526 C527 1.355 . S
C526 C528 1.415 . S
C527 C526 1.355 . S
C527 C529 1.419 . S
C528 C526 1.415 . S
C528 C533 1.425 1_665 S
C528 C535 1.409 1_665 S
C529 H521 0.930 . S
C529 C527 1.419 . S
C529 C530 1.362 . S
C530 H522 0.930 . S
C530 C529 1.362 . S
C530 C533 1.409 1_665 S
C531 H523 0.930 . S
C531 C532 1.355 . S
C531 C533 1.415 . S
C532 C531 1.355 . S
C532 C534 1.419 . S
C533 C528 1.425 1_445 S
C533 C530 1.409 1_445 S
C533 C531 1.415 . S
C534 H524 0.930 . S
C534 C532 1.419 . S
C534 C535 1.362 . S
C535 H525 0.930 . S
C535 C528 1.409 1_445 S
C535 C534 1.362 . S
H536 C542 0.930 . S
H537 C545 0.930 . S
H538 C546 0.930 . S
H539 C547 0.930 . S
H540 C550 0.930 . S
H541 C551 0.930 . S
C542 H536 0.930 . S
C542 C543 1.355 . S
C542 C544 1.415 1_565 S
C543 C542 1.355 . S
C543 C545 1.419 1_455 S
C544 C542 1.415 1_545 S
C544 C549 1.425 1_445 S
C544 C551 1.409 . S
C545 H537 0.930 . S
C545 C543 1.419 1_655 S
C545 C546 1.362 . S
C546 H538 0.930 . S
C546 C545 1.362 . S
C546 C549 1.409 . S
C547 H539 0.930 . S
C547 C548 1.355 . S
C547 C549 1.415 1_545 S
C548 C547 1.355 . S
C548 C550 1.419 1_655 S
C549 C544 1.425 1_665 S
C549 C546 1.409 . S
C549 C547 1.415 1_565 S
C550 H540 0.930 . S
C550 C548 1.419 1_455 S
C550 C551 1.362 . S
C551 H541 0.930 . S
C551 C544 1.409 . S
C551 C550 1.362 . S
C175 C162 1.321 . S
C180 C8 1.353 . S
C191 C22 1.354 . S
C196 C92 1.385 . S
C207 C36 1.375 . S
C212 C106 1.401 . S
C223 C50 1.290 . S
C228 C120 1.277 . S
C239 C134 1.300 . S
C244 C64 1.331 . S
C255 C78 1.289 . S
C260 C148 1.313 . S
C271 C7 1.765 . S
C276 C147 1.760 . S
C287 C21 1.768 . S
C292 C161 1.787 . S
C303 C35 1.765 . S
C308 C91 1.783 . S
C319 C49 1.758 . S
C324 C105 1.760 . S
C335 C119 1.777 . S
C340 C63 1.794 . S
C351 C133 1.798 . S
C356 C77 1.800 . S
C367 C48 1.459 1_455 S
C372 C6 1.467 1_655 S
C383 C20 1.466 . S
C388 C62 1.466 . S
C399 C76 1.462 . S
C404 C34 1.465 . S
C415 C132 1.464 . S
C420 C90 1.468 . S
C431 C146 1.468 . S
C436 C104 1.465 . S
C447 C118 1.458 . S
C452 C160 1.473 . S
C463 C9 1.323 . S
C468 C51 1.340 . S
C479 C23 1.358 . S
C484 C65 1.343 . S
C495 C79 1.330 . S
C500 C37 1.313 . S
C511 C93 1.321 . S
C516 C135 1.338 . S
C527 C107 1.362 . S
C532 C149 1.347 . S
C543 C121 1.378 . S
C548 C163 1.378 . S
