# Generated by pormake.
# Topology nbo, (4)-cn, num edge types: 1
# Building blocks:
#     Node 0, Type 0, BuildingBlock: NAWXER_clean_sbu_0, # of connection points: 4
#     Node 1, Type 0, BuildingBlock: NAWXER_clean_sbu_0, # of connection points: 4
#     Node 2, Type 0, BuildingBlock: NAWXER_clean_sbu_0, # of connection points: 4
#     Node 3, Type 0, BuildingBlock: NAWXER_clean_sbu_0, # of connection points: 4
#     Node 4, Type 0, BuildingBlock: NAWXER_clean_sbu_0, # of connection points: 4
#     Node 5, Type 0, BuildingBlock: NAWXER_clean_sbu_0, # of connection points: 4
#     Edge 6, Type (0, 0), BuildingBlock: KIFKEQ_clean_linker_1, # of connection points: 2
#     Edge 7, Type (0, 0), BuildingBlock: KIFKEQ_clean_linker_1, # of connection points: 2
#     Edge 8, Type (0, 0), BuildingBlock: KIFKEQ_clean_linker_1, # of connection points: 2
#     Edge 9, Type (0, 0), BuildingBlock: KIFKEQ_clean_linker_1, # of connection points: 2
#     Edge 10, Type (0, 0), BuildingBlock: KIFKEQ_clean_linker_1, # of connection points: 2
#     Edge 11, Type (0, 0), BuildingBlock: KIFKEQ_clean_linker_1, # of connection points: 2
#     Edge 12, Type (0, 0), BuildingBlock: KIFKEQ_clean_linker_1, # of connection points: 2
#     Edge 13, Type (0, 0), BuildingBlock: KIFKEQ_clean_linker_1, # of connection points: 2
#     Edge 14, Type (0, 0), BuildingBlock: KIFKEQ_clean_linker_1, # of connection points: 2
#     Edge 15, Type (0, 0), BuildingBlock: KIFKEQ_clean_linker_1, # of connection points: 2
#     Edge 16, Type (0, 0), BuildingBlock: KIFKEQ_clean_linker_1, # of connection points: 2
#     Edge 17, Type (0, 0), BuildingBlock: KIFKEQ_clean_linker_1, # of connection points: 2
# Relax obj value: 0.000
# Max RMSD: 0.000
# Mean RMSD: 0.000
data_MOF--net-nbo--node1-NAWXER_clean_sbu_0--edge1-KIFKEQ_clean_linker_1
_symmetry_space_group_name_H-M    P1
_symmetry_Int_Tables_number       1
_symmetry_cell_setting            triclinic
loop_
_symmetry_equiv_pos_as_xyz
'x, y, z'
_cell_length_a     29.820895
_cell_length_b     29.825236
_cell_length_c     29.828784
_cell_angle_alpha  97.0162
_cell_angle_beta   97.012102
_cell_angle_gamma 97.332479
loop_
_atom_site_label
_atom_site_type_symbol
_atom_site_fract_x
_atom_site_fract_y
_atom_site_fract_z
_atom_type_partial_charge
C0 C 0.9709 0.1541 0.54188 0.0
C1 C 0.96322 0.99006 0.54714 0.0
O2 O 0.96217 0.13063 0.502 0.0
Zn3 Zn 0.95321 0.05968 0.47289 0.0
O4 O 0.97676 0.13368 0.57665 0.0
Zn5 Zn 0.96726 0.07206 0.54478 0.0
O6 O 0.02657 0.07061 0.5103 0.0
O7 O 1.00265 0.05657 0.43641 0.0
O8 O 0.97173 0.02241 0.58027 0.0
O9 O 0.9555 0.99939 0.50625 0.0
O10 O 0.89121 0.05107 0.44209 0.0
O11 O 0.89556 0.06173 0.51711 0.0
C12 C 0.03538 0.06413 0.46916 0.0
C13 C 0.87145 0.05441 0.47752 0.0
C14 C 0.52883 0.02558 0.94641 0.0
C15 C 0.53339 0.86107 0.93619 0.0
O16 O 0.56361 1.00496 0.94732 0.0
Zn17 Zn 0.53137 0.94335 0.94039 0.0
O18 O 0.48883 1.00223 0.9411 0.0
Zn19 Zn 0.45937 0.93098 0.93136 0.0
O20 O 0.42613 0.92749 0.98292 0.0
O21 O 0.5008 0.94284 1.00253 0.0
O22 O 0.4924 0.8705 0.93119 0.0
O23 O 0.56666 0.89337 0.94252 0.0
O24 O 0.49944 0.93388 0.87036 0.0
O25 O 0.42499 0.92354 0.87089 0.0
C26 C 0.46055 0.93613 0.01387 0.0
C27 C 0.45872 0.92707 0.84871 0.0
C28 C 0.16543 0.49444 0.08055 0.0
C29 C 1.00126 0.49807 0.07436 0.0
O30 O 0.13325 0.46105 0.07397 0.0
Zn31 Zn 0.08329 0.49607 0.07768 0.0
O32 O 0.15592 0.53534 0.08667 0.0
Zn33 Zn 0.09544 0.56808 0.08837 0.0
O34 O 0.10442 0.60152 0.14916 0.0
O35 O 0.09347 0.52686 0.14845 0.0
O36 O 0.02446 0.53822 0.08123 0.0
O37 O 0.02196 0.46342 0.07003 0.0
O38 O 0.08263 0.52774 0.01647 0.0
O39 O 0.09722 0.60222 0.03707 0.0
C40 C 0.10087 0.56734 0.17076 0.0
C41 C 0.08855 0.5682 1.00568 0.0
C42 C 0.56724 0.53393 0.96962 0.0
C43 C 0.55757 0.36983 0.97678 0.0
O44 O 0.5601 0.50131 0.93679 0.0
Zn45 Zn 0.56296 0.45174 0.97304 0.0
O46 O 0.57342 0.52496 0.01072 0.0
Zn47 Zn 0.57471 0.46524 0.04478 0.0
O48 O 0.636 0.47477 0.07729 0.0
O49 O 0.6339 0.46061 1.00273 0.0
O50 O 0.56462 0.39354 0.01659 0.0
O51 O 0.55449 0.39005 0.94166 0.0
O52 O 0.50219 0.45376 1.00591 0.0
O53 O 0.52489 0.46939 0.08001 0.0
C54 C 0.65691 0.46918 0.04285 0.0
C55 C 0.49267 0.4612 0.04676 0.0
C56 C 0.99548 0.66245 0.579 0.0
C57 C 0.99953 0.49814 0.56863 0.0
O58 O 0.03637 0.65301 0.58584 0.0
Zn59 Zn 0.06928 0.59257 0.58773 0.0
O60 O 0.96212 0.63018 0.57097 0.0
Zn61 Zn 0.99725 0.58027 0.57351 0.0
O62 O 0.02488 0.58699 0.64483 0.0
O63 O 0.09989 0.60116 0.64991 0.0
O64 O 0.96497 0.51863 0.56208 0.0
O65 O 0.03951 0.52156 0.57835 0.0
O66 O 0.10588 0.59484 0.53819 0.0
O67 O 0.03182 0.58415 0.51459 0.0
C68 C 0.06434 0.59488 0.66925 0.0
C69 C 0.07302 0.58962 0.50572 0.0
C70 C 0.52777 0.02738 0.45208 0.0
C71 C 0.36311 0.03176 0.4378 0.0
O72 O 0.50432 0.98736 0.44387 0.0
Zn73 Zn 0.43311 0.95785 0.43191 0.0
O74 O 0.50727 0.06223 0.45526 0.0
Zn75 Zn 0.44554 0.02992 0.44453 0.0
O76 O 0.44106 0.99634 0.50439 0.0
O77 O 0.42931 0.92205 0.48164 0.0
O78 O 0.39543 0.06507 0.44554 0.0
O79 O 0.37259 0.99082 0.43205 0.0
O80 O 0.42612 0.92628 0.37008 0.0
O81 O 0.43997 1.00113 0.37394 0.0
C82 C 0.43489 0.9553 0.51375 0.0
C83 C 0.43268 0.96139 0.35017 0.0
H84 H 1.00496 0.21622 0.61773 0.0
H85 H 0.94345 0.20616 0.47733 0.0
H86 H 1.01069 0.29943 0.6251 0.0
H87 H 0.94905 0.28916 0.48488 0.0
H88 H 0.92376 0.43611 0.53301 0.0
H89 H 0.91575 0.35287 0.52762 0.0
H90 H 0.05495 0.36293 0.59235 0.0
H91 H 0.06314 0.44592 0.59762 0.0
C92 C 0.99255 0.23171 0.58852 0.0
C93 C 0.97387 0.20454 0.54692 0.0
C94 C 0.99601 0.27934 0.59269 0.0
C95 C 0.98029 0.30079 0.55556 0.0
C96 C 0.96107 0.2736 0.51419 0.0
C97 C 0.95815 0.22606 0.50983 0.0
C98 C 0.95262 0.42056 0.54615 0.0
C99 C 0.99412 0.44767 0.56563 0.0
C100 C 0.94808 0.37291 0.54289 0.0
C101 C 0.98472 0.3514 0.55961 0.0
C102 C 0.026 0.37853 0.57956 0.0
C103 C 0.03074 0.42608 0.58228 0.0
H104 H 0.81747 0.0318 0.54123 0.0
H105 H 0.81145 0.06817 0.40505 0.0
H106 H 0.73432 0.02577 0.53535 0.0
H107 H 0.7282 0.0631 0.39973 0.0
H108 H 0.5874 0.10107 0.43934 0.0
H109 H 0.67079 0.10765 0.44481 0.0
H110 H 0.66554 0.97194 0.48196 0.0
H111 H 0.5823 0.96482 0.47553 0.0
C112 C 0.79841 0.03864 0.51011 0.0
C113 C 0.82101 0.05036 0.47355 0.0
C114 C 0.75085 0.03506 0.50674 0.0
C115 C 0.72494 0.04409 0.46715 0.0
C116 C 0.74746 0.05624 0.43073 0.0
C117 C 0.795 0.05886 0.4337 0.0
C118 C 0.60408 0.07272 0.44879 0.0
C119 C 0.5783 0.03242 0.457 0.0
C120 C 0.6517 0.0764 0.45164 0.0
C121 C 0.67449 0.04028 0.46377 0.0
C122 C 0.6488 1.00034 0.47272 0.0
C123 C 0.60119 0.99626 0.4689 0.0
H124 H 0.05673 0.73961 0.6093 0.0
H125 H 0.91686 0.6943 0.54786 0.0
H126 H 0.0457 0.81867 0.60464 0.0
H127 H 0.90597 0.77357 0.54315 0.0
H128 H 0.93152 0.91284 0.48675 0.0
H129 H 0.9365 0.83386 0.49788 0.0
H130 H 1.00148 0.87913 0.63627 0.0
H131 H 0.99644 0.95839 0.62527 0.0
C132 C 0.02352 0.74652 0.59509 0.0
C133 C 0.98772 0.71059 0.5788 0.0
C134 C 0.01715 0.79186 0.59268 0.0
C135 C 0.975 0.80233 0.57346 0.0
C136 C 0.93895 0.7665 0.55782 0.0
C137 C 0.94514 0.72114 0.56073 0.0
C138 C 0.94658 0.90601 0.51969 0.0
C139 C 0.96373 0.94198 0.55508 0.0
C140 C 0.94917 0.86069 0.52612 0.0
C141 C 0.96944 0.85028 0.56792 0.0
C142 C 0.98599 0.88615 0.60357 0.0
C143 C 0.98288 0.9315 0.59732 0.0
H144 H 0.33106 0.11077 0.46727 0.0
H145 H 0.28593 0.97042 0.40748 0.0
H146 H 0.25172 0.12186 0.47126 0.0
H147 H 0.20676 0.98167 0.41136 0.0
H148 H 0.06656 0.03066 0.39068 0.0
H149 H 0.14581 0.0256 0.37925 0.0
H150 H 0.19176 0.09171 0.51713 0.0
H151 H 0.1129 0.09661 0.52868 0.0
C152 C 0.30425 0.08243 0.45456 0.0
C153 C 0.31489 0.03965 0.43725 0.0
C154 C 0.25882 0.08874 0.45705 0.0
C155 C 0.223 0.05261 0.44171 0.0
C156 C 0.23355 1.01027 0.42308 0.0
C157 C 0.27897 1.00378 0.42113 0.0
C158 C 0.09361 0.04449 0.41838 0.0
C159 C 0.08337 0.06389 0.46064 0.0
C160 C 0.13895 0.04137 0.41191 0.0
C161 C 0.17502 0.05822 0.44731 0.0
C162 C 0.16481 0.0788 0.48906 0.0
C163 C 0.11955 0.08135 0.49574 0.0
H164 H 0.46359 0.02754 0.30136 0.0
H165 H 0.40466 0.88549 0.2859 0.0
H166 H 0.46863 0.02057 0.21997 0.0
H167 H 0.4095 0.87876 0.20393 0.0
H168 H 0.38436 0.90606 0.0512 0.0
H169 H 0.37579 0.91109 0.1323 0.0
H170 H 0.51507 0.97768 0.16794 0.0
H171 H 0.52387 0.97243 0.08737 0.0
C172 C 0.45143 0.99485 0.28058 0.0
C173 C 0.43382 0.95701 0.30023 0.0
C174 C 0.45456 0.99085 0.23395 0.0
C175 C 0.43964 0.94909 0.20564 0.0
C176 C 0.42105 0.91143 0.22494 0.0
C177 C 0.41849 0.91525 0.27186 0.0
C178 C 0.41312 0.92176 0.07638 0.0
C179 C 0.45477 0.93891 0.0628 0.0
C180 C 0.40827 0.92439 0.12276 0.0
C181 C 0.44472 0.9449 0.1564 0.0
C182 C 0.48626 0.96207 0.14277 0.0
C183 C 0.49132 0.95885 0.09658 0.0
H184 H 0.08704 0.64302 0.22608 0.0
H185 H 0.11894 0.50607 0.2292 0.0
H186 H 0.08413 0.65115 0.30831 0.0
H187 H 0.11687 0.5147 0.31156 0.0
H188 H 0.1488 0.56959 0.4679 0.0
H189 H 0.16002 0.56651 0.38742 0.0
H190 H 0.02769 0.60785 0.35536 0.0
H191 H 0.01599 0.60998 0.43514 0.0
C192 C 0.09408 0.61493 0.24439 0.0
C193 C 0.10301 0.57383 0.2211 0.0
C194 C 0.09224 0.61954 0.29138 0.0
C195 C 0.10024 0.58353 0.31621 0.0
C196 C 0.11087 0.54308 0.29328 0.0
C197 C 0.1118 0.53811 0.24613 0.0
C198 C 0.12228 0.57824 0.44366 0.0
C199 C 0.08146 0.58986 0.4578 0.0
C200 C 0.12863 0.57632 0.39768 0.0
C201 C 0.09475 0.58707 0.36527 0.0
C202 C 0.0545 0.59976 0.37967 0.0
C203 C 0.04773 0.60071 0.4253 0.0
H204 H 0.41665 0.01377 0.58455 0.0
H205 H 0.45263 0.87904 0.5516 0.0
H206 H 0.41876 1.00238 0.66448 0.0
H207 H 0.45566 0.86813 0.63207 0.0
H208 H 0.51838 0.90734 0.78918 0.0
H209 H 0.50911 0.91005 0.70697 0.0
H210 H 0.37456 0.9473 0.71251 0.0
H211 H 0.38332 0.94371 0.7947 0.0
C212 C 0.42493 0.98168 0.59437 0.0
C213 C 0.43458 0.94733 0.56179 0.0
C214 C 0.42586 0.9751 0.64007 0.0
C215 C 0.43733 0.93438 0.65439 0.0
C216 C 0.44681 0.89988 0.62188 0.0
C217 C 0.44493 0.90608 0.57589 0.0
C218 C 0.48661 0.91563 0.77279 0.0
C219 C 0.45161 0.92542 0.79844 0.0
C220 C 0.48126 0.91694 0.72573 0.0
C221 C 0.44117 0.92897 0.70348 0.0
C222 C 0.40587 0.93809 0.72892 0.0
C223 C 0.41083 0.93584 0.77586 0.0
H224 H 0.99726 0.56534 0.71771 0.0
H225 H 0.13955 0.6237 0.73416 0.0
H226 H 1.0033 0.56131 0.79929 0.0
H227 H 0.14535 0.61987 0.81625 0.0
H228 H 0.1181 0.64488 0.96873 0.0
H229 H 0.11277 0.65385 0.88766 0.0
H230 H 0.04564 0.51481 0.85161 0.0
H231 H 0.0512 0.50562 0.93205 0.0
C232 C 0.02978 0.57763 0.73875 0.0
C233 C 0.06799 0.5947 0.71931 0.0
C234 C 0.03325 0.57511 0.78548 0.0
C235 C 0.07483 0.5901 0.81411 0.0
C236 C 0.1128 0.6083 0.79502 0.0
C237 C 0.10952 0.61027 0.74802 0.0
C238 C 0.10215 0.61629 0.94346 0.0
C239 C 0.08505 0.57455 0.95687 0.0
C240 C 0.09935 0.62137 0.89711 0.0
C241 C 0.07867 0.58507 0.86335 0.0
C242 C 0.06136 0.54352 0.87685 0.0
C243 C 0.06477 0.53823 0.92297 0.0
H244 H 0.19692 0.4157 0.04914 0.0
H245 H 0.24276 0.55579 0.10945 0.0
H246 H 0.27605 0.40469 0.04351 0.0
H247 H 0.32168 0.54461 0.10398 0.0
H248 H 0.46109 0.4945 0.12485 0.0
H249 H 0.38194 0.49992 0.13592 0.0
H250 H 0.33634 0.4352 0.99751 0.0
H251 H 0.41532 0.42991 0.98627 0.0
C252 C 0.22386 0.444 0.06156 0.0
C253 C 0.21349 0.48667 0.07961 0.0
C254 C 0.26913 0.43774 0.05811 0.0
C255 C 0.30506 0.4738 0.07326 0.0
C256 C 0.29478 0.51607 0.09239 0.0
C257 C 0.24952 0.52252 0.09527 0.0
C258 C 0.43417 0.48109 0.0969 0.0
C259 C 0.44456 0.46191 0.05462 0.0
C260 C 0.38887 0.48442 0.10318 0.0
C261 C 0.35294 0.46806 0.06756 0.0
C262 C 0.36324 0.44775 0.02572 0.0
C263 C 0.40854 0.44497 0.01923 0.0
H264 H 0.56999 0.31069 0.90307 0.0
H265 H 0.53613 0.31478 0.0401 0.0
H266 H 0.56435 0.22737 0.89623 0.0
H267 H 0.52963 0.23152 0.03276 0.0
H268 H 0.46759 0.08042 0.97301 0.0
H269 H 0.47518 0.16369 0.98059 0.0
H270 H 0.6085 0.16854 0.93761 0.0
H271 H 0.60143 0.08508 0.93086 0.0
C272 C 0.56115 0.29381 0.93161 0.0
C273 C 0.55348 0.31932 0.97212 0.0
C274 C 0.5582 0.2462 0.92777 0.0
C275 C 0.54657 0.22307 0.96397 0.0
C276 C 0.53845 0.2485 1.00427 0.0
C277 C 0.54233 0.29613 1.00848 0.0
C278 C 0.49858 0.0992 0.96525 0.0
C279 C 0.53394 0.07615 0.95136 0.0
C280 C 0.50296 0.14686 0.96978 0.0
C281 C 0.54238 0.1725 0.95963 0.0
C282 C 0.57764 0.14954 0.9454 0.0
C283 C 0.57368 0.10185 0.94179 0.0
H284 H 0.94865 0.56237 0.10072 0.0
H285 H 0.93959 0.42147 0.04103 0.0
H286 H 0.86552 0.5542 0.09439 0.0
H287 H 0.85625 0.41352 0.03443 0.0
H288 H 0.71009 0.44062 0.97974 0.0
H289 H 0.79321 0.44625 0.98875 0.0
H290 H 0.80129 0.51059 0.12777 0.0
H291 H 0.71801 0.50471 0.11899 0.0
C292 C 0.92895 0.52963 0.08628 0.0
C293 C 0.95078 0.49257 0.07131 0.0
C294 C 0.88133 0.52492 0.08292 0.0
C295 C 0.85439 0.48324 0.0639 0.0
C296 C 0.87615 0.44614 0.04894 0.0
C297 C 0.92386 0.45065 0.05293 0.0
C298 C 0.72954 0.45592 0.01228 0.0
C299 C 0.70739 0.4723 0.04864 0.0
C300 C 0.77713 0.45887 0.01748 0.0
C301 C 0.80374 0.47884 0.05895 0.0
C302 C 0.78167 0.49529 0.09531 0.0
C303 C 0.73399 0.49174 0.09033 0.0
H304 H 0.5338 0.56489 0.89108 0.0
H305 H 0.59906 0.61162 0.02924 0.0
H306 H 0.52827 0.64399 0.8795 0.0
H307 H 0.59377 0.69042 0.0175 0.0
H308 H 0.6126 0.82953 0.96605 0.0
H309 H 0.62395 0.75037 0.97096 0.0
H310 H 0.48367 0.70465 0.91174 0.0
H311 H 0.47215 0.78363 0.90704 0.0
C312 C 0.54739 0.59201 0.91879 0.0
C313 C 0.56673 0.5819 0.96113 0.0
C314 C 0.544 0.63726 0.91223 0.0
C315 C 0.56054 0.67342 0.94761 0.0
C316 C 0.58107 0.66337 0.98946 0.0
C317 C 0.58386 0.61816 0.99624 0.0
C318 C 0.58429 0.80257 0.95371 0.0
C319 C 0.54141 0.81295 0.93632 0.0
C320 C 0.59075 0.75727 0.95673 0.0
C321 C 0.55468 0.72129 0.9418 0.0
C322 C 0.51222 0.73157 0.92316 0.0
C323 C 0.50558 0.77687 0.92073 0.0
loop_
_geom_bond_atom_site_label_1
_geom_bond_atom_site_label_2
_geom_bond_distance
_geom_bond_site_symmetry_2
_ccdc_geom_bond_type
C0 O2 1.247 1_455 S
C0 O4 1.258 . S
C1 O8 1.247 1_655 S
C1 O9 1.258 . S
O2 C0 1.247 1_655 S
O2 Zn3 2.028 1_545 S
Zn3 O2 2.028 1_565 S
Zn3 O7 2.035 1_655 S
Zn3 O9 2.035 . S
Zn3 O10 2.028 . S
O4 C0 1.258 . S
O4 Zn5 2.035 . S
Zn5 O4 2.035 . S
Zn5 O6 2.028 . S
Zn5 O8 2.028 1_545 S
Zn5 O11 2.035 1_455 S
O6 Zn5 2.028 . S
O6 C12 1.247 . S
O7 Zn3 2.035 1_455 S
O7 C12 1.258 1_565 S
O8 C1 1.247 1_455 S
O8 Zn5 2.028 1_565 S
O9 C1 1.258 . S
O9 Zn3 2.035 . S
O10 Zn3 2.028 . S
O10 C13 1.247 . S
O11 Zn5 2.035 1_655 S
O11 C13 1.258 1_545 S
C12 O6 1.247 . S
C12 O7 1.258 1_545 S
C13 O10 1.247 . S
C13 O11 1.258 1_565 S
C14 O16 1.247 . S
C14 O18 1.258 1_554 S
C15 O22 1.247 . S
C15 O23 1.258 1_556 S
O16 C14 1.247 . S
O16 Zn17 2.028 . S
Zn17 O16 2.028 . S
Zn17 O21 2.035 . S
Zn17 O23 2.035 1_545 S
Zn17 O24 2.028 1_554 S
O18 C14 1.258 1_556 S
O18 Zn19 2.035 1_545 S
Zn19 O18 2.035 1_565 S
Zn19 O20 2.028 1_556 S
Zn19 O22 2.028 . S
Zn19 O25 2.035 . S
O20 Zn19 2.028 1_554 S
O20 C26 1.247 1_565 S
O21 Zn17 2.035 . S
O21 C26 1.258 . S
O22 C15 1.247 . S
O22 Zn19 2.028 . S
O23 C15 1.258 1_554 S
O23 Zn17 2.035 1_565 S
O24 Zn17 2.028 1_556 S
O24 C27 1.247 1_545 S
O25 Zn19 2.035 . S
O25 C27 1.258 . S
C26 O20 1.247 1_545 S
C26 O21 1.258 . S
C27 O24 1.247 1_565 S
C27 O25 1.258 . S
C28 O30 1.247 1_554 S
C28 O32 1.258 . S
C29 O36 1.247 1_556 S
C29 O37 1.258 . S
O30 C28 1.247 1_556 S
O30 Zn31 2.028 1_455 S
Zn31 O30 2.028 1_655 S
Zn31 O35 2.035 1_556 S
Zn31 O37 2.035 . S
Zn31 O38 2.028 . S
O32 C28 1.258 . S
O32 Zn33 2.035 . S
Zn33 O32 2.035 . S
Zn33 O34 2.028 . S
Zn33 O36 2.028 1_455 S
Zn33 O39 2.035 1_554 S
O34 Zn33 2.028 . S
O34 C40 1.247 . S
O35 Zn31 2.035 1_554 S
O35 C40 1.258 1_655 S
O36 C29 1.247 1_554 S
O36 Zn33 2.028 1_655 S
O37 C29 1.258 . S
O37 Zn31 2.035 . S
O38 Zn31 2.028 . S
O38 C41 1.247 . S
O39 Zn33 2.035 1_556 S
O39 C41 1.258 1_455 S
C40 O34 1.247 . S
C40 O35 1.258 1_455 S
C41 O38 1.247 . S
C41 O39 1.258 1_655 S
C42 O44 1.246 . S
C42 O46 1.259 1_556 S
C43 O50 1.251 . S
C43 O51 1.254 1_554 S
O44 C42 1.246 . S
O44 Zn45 2.028 . S
Zn45 O44 2.028 . S
Zn45 O49 2.035 . S
Zn45 O51 2.035 . S
Zn45 O52 2.028 . S
O46 C42 1.259 1_554 S
O46 Zn47 2.035 . S
Zn47 O46 2.035 . S
Zn47 O48 2.028 . S
Zn47 O50 2.028 . S
Zn47 O53 2.035 . S
O48 Zn47 2.028 . S
O48 C54 1.251 . S
O49 Zn45 2.035 . S
O49 C54 1.254 1_556 S
O50 C43 1.251 . S
O50 Zn47 2.028 . S
O51 C43 1.254 1_556 S
O51 Zn45 2.035 . S
O52 Zn45 2.028 . S
O52 C55 1.246 . S
O53 Zn47 2.035 . S
O53 C55 1.259 1_554 S
C54 O48 1.251 . S
C54 O49 1.254 1_554 S
C55 O52 1.246 . S
C55 O53 1.259 1_556 S
C56 O58 1.251 . S
C56 O60 1.254 1_455 S
C57 O64 1.246 . S
C57 O65 1.259 1_655 S
O58 C56 1.251 . S
O58 Zn59 2.028 . S
Zn59 O58 2.028 . S
Zn59 O63 2.035 . S
Zn59 O65 2.035 . S
Zn59 O66 2.028 . S
O60 C56 1.254 1_655 S
O60 Zn61 2.035 . S
Zn61 O60 2.035 . S
Zn61 O62 2.028 . S
Zn61 O64 2.028 . S
Zn61 O67 2.035 . S
O62 Zn61 2.028 . S
O62 C68 1.246 . S
O63 Zn59 2.035 . S
O63 C68 1.259 1_455 S
O64 C57 1.246 . S
O64 Zn61 2.028 . S
O65 C57 1.259 1_455 S
O65 Zn59 2.035 . S
O66 Zn59 2.028 . S
O66 C69 1.251 . S
O67 Zn61 2.035 . S
O67 C69 1.254 1_655 S
C68 O62 1.246 . S
C68 O63 1.259 1_655 S
C69 O66 1.251 . S
C69 O67 1.254 1_455 S
C70 O72 1.246 . S
C70 O74 1.259 1_565 S
C71 O78 1.251 . S
C71 O79 1.254 1_545 S
O72 C70 1.246 . S
O72 Zn73 2.028 . S
Zn73 O72 2.028 . S
Zn73 O77 2.035 . S
Zn73 O79 2.035 . S
Zn73 O80 2.028 . S
O74 C70 1.259 1_545 S
O74 Zn75 2.035 . S
Zn75 O74 2.035 . S
Zn75 O76 2.028 . S
Zn75 O78 2.028 . S
Zn75 O81 2.035 . S
O76 Zn75 2.028 . S
O76 C82 1.251 . S
O77 Zn73 2.035 . S
O77 C82 1.254 1_565 S
O78 C71 1.251 . S
O78 Zn75 2.028 . S
O79 C71 1.254 1_565 S
O79 Zn73 2.035 . S
O80 Zn73 2.028 . S
O80 C83 1.246 . S
O81 Zn75 2.035 . S
O81 C83 1.259 1_545 S
C82 O76 1.251 . S
C82 O77 1.254 1_545 S
C83 O80 1.246 . S
C83 O81 1.259 1_565 S
H84 C92 0.950 . S
H85 C97 0.950 . S
H86 C94 0.950 . S
H87 C96 0.950 . S
H88 C98 0.950 . S
H89 C100 0.950 . S
H90 C102 0.950 . S
H91 C103 0.950 . S
C92 H84 0.950 . S
C92 C93 1.398 . S
C92 C94 1.391 . S
C93 C92 1.398 . S
C93 C97 1.378 1_455 S
C94 H86 0.950 . S
C94 C92 1.391 . S
C94 C95 1.408 . S
C95 C94 1.408 . S
C95 C96 1.392 1_455 S
C95 C101 1.488 1_455 S
C96 H87 0.950 . S
C96 C95 1.392 1_655 S
C96 C97 1.391 . S
C97 H85 0.950 . S
C97 C93 1.378 1_655 S
C97 C96 1.391 . S
C98 H88 0.950 . S
C98 C99 1.394 . S
C98 C100 1.391 . S
C99 C98 1.394 . S
C99 C103 1.383 1_655 S
C100 H89 0.950 . S
C100 C98 1.391 . S
C100 C101 1.404 . S
C101 C95 1.488 1_655 S
C101 C100 1.404 . S
C101 C102 1.395 1_655 S
C102 H90 0.950 . S
C102 C101 1.395 1_455 S
C102 C103 1.391 . S
C103 H91 0.950 . S
C103 C99 1.383 1_455 S
C103 C102 1.391 . S
H104 C112 0.950 . S
H105 C117 0.950 . S
H106 C114 0.950 . S
H107 C116 0.950 . S
H108 C118 0.950 . S
H109 C120 0.950 . S
H110 C122 0.950 . S
H111 C123 0.950 . S
C112 H104 0.950 . S
C112 C113 1.386 1_565 S
C112 C114 1.391 . S
C113 C112 1.386 1_545 S
C113 C117 1.393 . S
C114 H106 0.950 . S
C114 C112 1.391 . S
C114 C115 1.387 1_565 S
C115 C114 1.387 1_545 S
C115 C116 1.409 . S
C115 C121 1.496 1_545 S
C116 H107 0.950 . S
C116 C115 1.409 . S
C116 C117 1.391 . S
C117 H105 0.950 . S
C117 C113 1.393 . S
C117 C116 1.391 . S
C118 H108 0.950 . S
C118 C119 1.386 1_545 S
C118 C120 1.391 . S
C119 C118 1.386 1_565 S
C119 C123 1.393 . S
C120 H109 0.950 . S
C120 C118 1.391 . S
C120 C121 1.390 1_545 S
C121 C115 1.496 1_565 S
C121 C120 1.390 1_565 S
C121 C122 1.407 . S
C122 H110 0.950 . S
C122 C121 1.407 . S
C122 C123 1.391 . S
C123 H111 0.950 . S
C123 C119 1.393 . S
C123 C122 1.391 . S
H124 C132 0.950 . S
H125 C137 0.950 . S
H126 C134 0.950 . S
H127 C136 0.950 . S
H128 C138 0.950 . S
H129 C140 0.950 . S
H130 C142 0.950 . S
H131 C143 0.950 . S
C132 H124 0.950 . S
C132 C133 1.392 . S
C132 C134 1.391 . S
C133 C132 1.392 . S
C133 C137 1.385 1_455 S
C134 H126 0.950 . S
C134 C132 1.391 . S
C134 C135 1.405 . S
C135 C134 1.405 . S
C135 C136 1.395 1_455 S
C135 C141 1.490 1_455 S
C136 H127 0.950 . S
C136 C135 1.395 1_655 S
C136 C137 1.391 . S
C137 H125 0.950 . S
C137 C133 1.385 1_655 S
C137 C136 1.391 . S
C138 H128 0.950 . S
C138 C139 1.388 . S
C138 C140 1.391 . S
C139 C138 1.388 . S
C139 C143 1.390 1_655 S
C140 H129 0.950 . S
C140 C138 1.391 . S
C140 C141 1.400 . S
C141 C135 1.490 1_655 S
C141 C140 1.400 . S
C141 C142 1.399 1_655 S
C142 H130 0.950 . S
C142 C141 1.399 1_455 S
C142 C143 1.391 . S
C143 H131 0.950 . S
C143 C139 1.390 1_455 S
C143 C142 1.391 . S
H144 C152 0.950 . S
H145 C157 0.950 . S
H146 C154 0.950 . S
H147 C156 0.950 . S
H148 C158 0.950 . S
H149 C160 0.950 . S
H150 C162 0.950 . S
H151 C163 0.950 . S
C152 H144 0.950 . S
C152 C153 1.400 . S
C152 C154 1.391 . S
C153 C152 1.400 . S
C153 C157 1.381 1_545 S
C154 H146 0.950 . S
C154 C152 1.391 . S
C154 C155 1.407 . S
C155 C154 1.407 . S
C155 C156 1.391 1_545 S
C155 C161 1.492 1_545 S
C156 H147 0.950 . S
C156 C155 1.391 1_565 S
C156 C157 1.391 . S
C157 H145 0.950 . S
C157 C153 1.381 1_565 S
C157 C156 1.391 . S
C158 H148 0.950 . S
C158 C159 1.395 . S
C158 C160 1.391 . S
C159 C158 1.395 . S
C159 C163 1.385 1_565 S
C160 H149 0.950 . S
C160 C158 1.391 . S
C160 C161 1.403 . S
C161 C155 1.492 1_565 S
C161 C160 1.403 . S
C161 C162 1.395 1_565 S
C162 H150 0.950 . S
C162 C161 1.395 1_545 S
C162 C163 1.391 . S
C163 H151 0.950 . S
C163 C159 1.385 1_545 S
C163 C162 1.391 . S
H164 C172 0.950 . S
H165 C177 0.950 . S
H166 C174 0.950 . S
H167 C176 0.950 . S
H168 C178 0.950 . S
H169 C180 0.950 . S
H170 C182 0.950 . S
H171 C183 0.950 . S
C172 H164 0.950 . S
C172 C173 1.388 1_545 S
C172 C174 1.391 . S
C173 C172 1.388 1_565 S
C173 C177 1.391 . S
C174 H166 0.950 . S
C174 C172 1.391 . S
C174 C175 1.399 . S
C175 C174 1.399 . S
C175 C176 1.399 1_545 S
C175 C181 1.490 . S
C176 H167 0.950 . S
C176 C175 1.399 1_565 S
C176 C177 1.391 . S
C177 H165 0.950 . S
C177 C173 1.391 . S
C177 C176 1.391 . S
C178 H168 0.950 . S
C178 C179 1.382 1_565 S
C178 C180 1.391 . S
C179 C178 1.382 1_545 S
C179 C183 1.396 . S
C180 H169 0.950 . S
C180 C178 1.391 . S
C180 C181 1.399 1_565 S
C181 C175 1.490 . S
C181 C180 1.399 1_545 S
C181 C182 1.399 . S
C182 H170 0.950 . S
C182 C181 1.399 . S
C182 C183 1.391 . S
C183 H171 0.950 . S
C183 C179 1.396 . S
C183 C182 1.391 . S
H184 C192 0.950 . S
H185 C197 0.950 . S
H186 C194 0.950 . S
H187 C196 0.950 . S
H188 C198 0.950 . S
H189 C200 0.950 . S
H190 C202 0.950 . S
H191 C203 0.950 . S
C192 H184 0.950 . S
C192 C193 1.386 . S
C192 C194 1.391 . S
C193 C192 1.386 . S
C193 C197 1.393 1_655 S
C194 H186 0.950 . S
C194 C192 1.391 . S
C194 C195 1.404 . S
C195 C194 1.404 . S
C195 C196 1.393 1_655 S
C195 C201 1.496 1_655 S
C196 H187 0.950 . S
C196 C195 1.393 1_455 S
C196 C197 1.391 . S
C197 H185 0.950 . S
C197 C193 1.393 1_455 S
C197 C196 1.391 . S
C198 H188 0.950 . S
C198 C199 1.386 . S
C198 C200 1.391 . S
C199 C198 1.386 . S
C199 C203 1.393 1_455 S
C200 H189 0.950 . S
C200 C198 1.391 . S
C200 C201 1.405 . S
C201 C195 1.496 1_455 S
C201 C200 1.405 . S
C201 C202 1.391 1_455 S
C202 H190 0.950 . S
C202 C201 1.391 1_655 S
C202 C203 1.391 . S
C203 H191 0.950 . S
C203 C199 1.393 1_655 S
C203 C202 1.391 . S
H204 C212 0.948 1_545 S
H205 C217 0.950 . S
H206 C214 0.950 . S
H207 C216 0.950 . S
H208 C218 0.947 . S
H209 C220 0.950 . S
H210 C222 0.950 . S
H211 C223 0.950 . S
C212 H204 0.948 1_565 S
C212 C213 1.386 . S
C212 C214 1.393 1_565 S
C213 C212 1.386 . S
C213 C217 1.393 . S
C214 H206 0.950 . S
C214 C212 1.393 1_545 S
C214 C215 1.395 1_545 S
C215 C214 1.395 1_565 S
C215 C216 1.401 . S
C215 C221 1.496 1_565 S
C216 H207 0.950 . S
C216 C215 1.401 . S
C216 C217 1.391 . S
C217 H205 0.950 . S
C217 C213 1.393 . S
C217 C216 1.391 . S
C218 H208 0.947 . S
C218 C219 1.387 . S
C218 C220 1.393 1_545 S
C219 C218 1.387 . S
C219 C223 1.393 . S
C220 H209 0.950 . S
C220 C218 1.393 1_565 S
C220 C221 1.395 1_565 S
C221 C215 1.496 1_545 S
C221 C220 1.395 1_545 S
C221 C222 1.402 . S
C222 H210 0.950 . S
C222 C221 1.402 . S
C222 C223 1.391 . S
C223 H211 0.950 . S
C223 C219 1.393 . S
C223 C222 1.391 . S
H224 C232 0.950 . S
H225 C237 0.950 . S
H226 C234 0.950 . S
H227 C236 0.950 . S
H228 C238 0.950 . S
H229 C240 0.950 . S
H230 C242 0.950 . S
H231 C243 0.950 . S
C232 H224 0.950 . S
C232 C233 1.383 1_655 S
C232 C234 1.391 . S
C233 C232 1.383 1_455 S
C233 C237 1.395 . S
C234 H226 0.950 . S
C234 C232 1.391 . S
C234 C235 1.399 1_655 S
C235 C234 1.399 1_455 S
C235 C236 1.399 . S
C235 C241 1.490 . S
C236 H227 0.950 . S
C236 C235 1.399 . S
C236 C237 1.391 . S
C237 H225 0.950 . S
C237 C233 1.395 . S
C237 C236 1.391 . S
C238 H228 0.950 . S
C238 C239 1.388 1_455 S
C238 C240 1.391 . S
C239 C238 1.388 1_655 S
C239 C243 1.391 . S
C240 H229 0.950 . S
C240 C238 1.391 . S
C240 C241 1.399 . S
C241 C235 1.490 . S
C241 C240 1.399 . S
C241 C242 1.399 1_455 S
C242 H230 0.950 . S
C242 C241 1.399 1_655 S
C242 C243 1.391 . S
C243 H231 0.950 . S
C243 C239 1.391 . S
C243 C242 1.391 . S
H244 C252 0.950 . S
H245 C257 0.950 . S
H246 C254 0.950 . S
H247 C256 0.950 . S
H248 C258 0.950 . S
H249 C260 0.950 . S
H250 C262 0.950 . S
H251 C263 0.950 . S
C252 H244 0.950 . S
C252 C253 1.399 . S
C252 C254 1.391 . S
C253 C252 1.399 . S
C253 C257 1.383 1_556 S
C254 H246 0.950 . S
C254 C252 1.391 . S
C254 C255 1.405 . S
C255 C254 1.405 . S
C255 C256 1.393 1_556 S
C255 C261 1.493 1_556 S
C256 H247 0.950 . S
C256 C255 1.393 1_554 S
C256 C257 1.391 . S
C257 H245 0.950 . S
C257 C253 1.383 1_554 S
C257 C256 1.391 . S
C258 H248 0.950 . S
C258 C259 1.386 . S
C258 C260 1.391 . S
C259 C258 1.386 . S
C259 C263 1.393 1_554 S
C260 H249 0.950 . S
C260 C258 1.391 . S
C260 C261 1.408 . S
C261 C255 1.493 1_554 S
C261 C260 1.408 . S
C261 C262 1.389 1_554 S
C262 H250 0.950 . S
C262 C261 1.389 1_556 S
C262 C263 1.391 . S
C263 H251 0.950 . S
C263 C259 1.393 1_556 S
C263 C262 1.391 . S
H264 C272 0.950 . S
H265 C277 0.950 . S
H266 C274 0.950 . S
H267 C276 0.950 . S
H268 C278 0.950 . S
H269 C280 0.950 . S
H270 C282 0.950 . S
H271 C283 0.950 . S
C272 H264 0.950 . S
C272 C273 1.368 1_556 S
C272 C274 1.391 . S
C273 C272 1.368 1_554 S
C273 C277 1.414 . S
C274 H266 0.950 . S
C274 C272 1.391 . S
C274 C275 1.390 1_556 S
C275 C274 1.390 1_554 S
C275 C276 1.407 . S
C275 C281 1.493 1_554 S
C276 H267 0.950 . S
C276 C275 1.407 . S
C276 C277 1.391 . S
C277 H265 0.950 . S
C277 C273 1.414 . S
C277 C276 1.391 . S
C278 H268 0.950 . S
C278 C279 1.373 1_554 S
C278 C280 1.391 . S
C279 C278 1.373 1_556 S
C279 C283 1.408 . S
C280 H269 0.950 . S
C280 C278 1.391 . S
C280 C281 1.395 1_554 S
C281 C275 1.493 1_556 S
C281 C280 1.395 1_556 S
C281 C282 1.402 . S
C282 H270 0.950 . S
C282 C281 1.402 . S
C282 C283 1.391 . S
C283 H271 0.950 . S
C283 C279 1.408 . S
C283 C282 1.391 . S
H284 C292 0.950 . S
H285 C297 0.950 . S
H286 C294 0.950 . S
H287 C296 0.950 . S
H288 C298 0.950 . S
H289 C300 0.950 . S
H290 C302 0.950 . S
H291 C303 0.950 . S
C292 H284 0.950 . S
C292 C293 1.386 1_554 S
C292 C294 1.391 . S
C293 C292 1.386 1_556 S
C293 C297 1.393 . S
C294 H286 0.950 . S
C294 C292 1.391 . S
C294 C295 1.401 1_554 S
C295 C294 1.401 1_556 S
C295 C296 1.402 . S
C295 C301 1.484 1_556 S
C296 H287 0.950 . S
C296 C295 1.402 . S
C296 C297 1.391 . S
C297 H285 0.950 . S
C297 C293 1.393 . S
C297 C296 1.391 . S
C298 H288 0.950 . S
C298 C299 1.386 1_556 S
C298 C300 1.391 . S
C299 C298 1.386 1_554 S
C299 C303 1.393 . S
C300 H289 0.950 . S
C300 C298 1.391 . S
C300 C301 1.401 1_556 S
C301 C295 1.484 1_554 S
C301 C300 1.401 1_554 S
C301 C302 1.403 . S
C302 H290 0.950 . S
C302 C301 1.403 . S
C302 C303 1.391 . S
C303 H291 0.950 . S
C303 C299 1.393 . S
C303 C302 1.391 . S
H304 C312 0.950 . S
H305 C317 0.950 . S
H306 C314 0.950 . S
H307 C316 0.950 . S
H308 C318 0.950 . S
H309 C320 0.950 . S
H310 C322 0.950 . S
H311 C323 0.950 . S
C312 H304 0.950 . S
C312 C313 1.386 1_556 S
C312 C314 1.391 . S
C313 C312 1.386 1_554 S
C313 C317 1.393 . S
C314 H306 0.950 . S
C314 C312 1.391 . S
C314 C315 1.404 1_556 S
C315 C314 1.404 1_554 S
C315 C316 1.400 . S
C315 C321 1.484 1_554 S
C316 H307 0.950 . S
C316 C315 1.400 . S
C316 C317 1.391 . S
C317 H305 0.950 . S
C317 C313 1.393 . S
C317 C316 1.391 . S
C318 H308 0.950 . S
C318 C319 1.386 1_554 S
C318 C320 1.391 . S
C319 C318 1.386 1_556 S
C319 C323 1.393 . S
C320 H309 0.950 . S
C320 C318 1.391 . S
C320 C321 1.403 1_554 S
C321 C315 1.484 1_556 S
C321 C320 1.403 1_556 S
C321 C322 1.399 . S
C322 H310 0.950 . S
C322 C321 1.399 . S
C322 C323 1.391 . S
C323 H311 0.950 . S
C323 C319 1.393 . S
C323 C322 1.391 . S
C93 C0 1.500 . S
C99 C57 1.498 . S
C113 C13 1.500 1_545 S
C119 C70 1.501 . S
C133 C56 1.500 . S
C139 C1 1.500 . S
C153 C71 1.494 . S
C159 C12 1.493 1_565 S
C173 C83 1.500 . S
C179 C26 1.495 . S
C193 C40 1.500 1_655 S
C199 C69 1.496 . S
C213 C82 1.497 1_565 S
C219 C27 1.503 1_545 S
C233 C68 1.500 1_455 S
C239 C41 1.500 . S
C253 C28 1.495 1_556 S
C259 C55 1.493 1_554 S
C273 C43 1.497 . S
C279 C14 1.492 1_556 S
C293 C29 1.495 . S
C299 C54 1.500 . S
C313 C42 1.498 1_554 S
C319 C15 1.498 . S
