# Generated by pormake.
# Topology wmi, (6)-cn, num edge types: 1
# Building blocks:
#     Node 0, Type 0, BuildingBlock: BETDIP_clean_sbu_0, # of connection points: 6
#     Node 1, Type 0, BuildingBlock: BETDIP_clean_sbu_0, # of connection points: 6
#     Node 2, Type 0, BuildingBlock: BETDIP_clean_sbu_0, # of connection points: 6
#     Node 3, Type 0, BuildingBlock: BETDIP_clean_sbu_0, # of connection points: 6
#     Node 4, Type 0, BuildingBlock: BETDIP_clean_sbu_0, # of connection points: 6
#     Node 5, Type 0, BuildingBlock: BETDIP_clean_sbu_0, # of connection points: 6
#     Node 6, Type 0, BuildingBlock: BETDIP_clean_sbu_0, # of connection points: 6
#     Node 7, Type 0, BuildingBlock: BETDIP_clean_sbu_0, # of connection points: 6
#     Node 8, Type 0, BuildingBlock: BETDIP_clean_sbu_0, # of connection points: 6
#     Node 9, Type 0, BuildingBlock: BETDIP_clean_sbu_0, # of connection points: 6
#     Node 10, Type 0, BuildingBlock: BETDIP_clean_sbu_0, # of connection points: 6
#     Node 11, Type 0, BuildingBlock: BETDIP_clean_sbu_0, # of connection points: 6
#     Node 12, Type 0, BuildingBlock: BETDIP_clean_sbu_0, # of connection points: 6
#     Node 13, Type 0, BuildingBlock: BETDIP_clean_sbu_0, # of connection points: 6
#     Node 14, Type 0, BuildingBlock: BETDIP_clean_sbu_0, # of connection points: 6
#     Node 15, Type 0, BuildingBlock: BETDIP_clean_sbu_0, # of connection points: 6
#     Node 16, Type 0, BuildingBlock: BETDIP_clean_sbu_0, # of connection points: 6
#     Node 17, Type 0, BuildingBlock: BETDIP_clean_sbu_0, # of connection points: 6
#     Edge 18, Type (0, 0), BuildingBlock: UVAHIK_clean_linker_0, # of connection points: 2
#     Edge 19, Type (0, 0), BuildingBlock: UVAHIK_clean_linker_0, # of connection points: 2
#     Edge 20, Type (0, 0), BuildingBlock: UVAHIK_clean_linker_0, # of connection points: 2
#     Edge 21, Type (0, 0), BuildingBlock: UVAHIK_clean_linker_0, # of connection points: 2
#     Edge 22, Type (0, 0), BuildingBlock: UVAHIK_clean_linker_0, # of connection points: 2
#     Edge 23, Type (0, 0), BuildingBlock: UVAHIK_clean_linker_0, # of connection points: 2
#     Edge 24, Type (0, 0), BuildingBlock: UVAHIK_clean_linker_0, # of connection points: 2
#     Edge 25, Type (0, 0), BuildingBlock: UVAHIK_clean_linker_0, # of connection points: 2
#     Edge 26, Type (0, 0), BuildingBlock: UVAHIK_clean_linker_0, # of connection points: 2
#     Edge 27, Type (0, 0), BuildingBlock: UVAHIK_clean_linker_0, # of connection points: 2
#     Edge 28, Type (0, 0), BuildingBlock: UVAHIK_clean_linker_0, # of connection points: 2
#     Edge 29, Type (0, 0), BuildingBlock: UVAHIK_clean_linker_0, # of connection points: 2
#     Edge 30, Type (0, 0), BuildingBlock: UVAHIK_clean_linker_0, # of connection points: 2
#     Edge 31, Type (0, 0), BuildingBlock: UVAHIK_clean_linker_0, # of connection points: 2
#     Edge 32, Type (0, 0), BuildingBlock: UVAHIK_clean_linker_0, # of connection points: 2
#     Edge 33, Type (0, 0), BuildingBlock: UVAHIK_clean_linker_0, # of connection points: 2
#     Edge 34, Type (0, 0), BuildingBlock: UVAHIK_clean_linker_0, # of connection points: 2
#     Edge 35, Type (0, 0), BuildingBlock: UVAHIK_clean_linker_0, # of connection points: 2
#     Edge 36, Type (0, 0), BuildingBlock: UVAHIK_clean_linker_0, # of connection points: 2
#     Edge 37, Type (0, 0), BuildingBlock: UVAHIK_clean_linker_0, # of connection points: 2
#     Edge 38, Type (0, 0), BuildingBlock: UVAHIK_clean_linker_0, # of connection points: 2
#     Edge 39, Type (0, 0), BuildingBlock: UVAHIK_clean_linker_0, # of connection points: 2
#     Edge 40, Type (0, 0), BuildingBlock: UVAHIK_clean_linker_0, # of connection points: 2
#     Edge 41, Type (0, 0), BuildingBlock: UVAHIK_clean_linker_0, # of connection points: 2
#     Edge 42, Type (0, 0), BuildingBlock: UVAHIK_clean_linker_0, # of connection points: 2
#     Edge 43, Type (0, 0), BuildingBlock: UVAHIK_clean_linker_0, # of connection points: 2
#     Edge 44, Type (0, 0), BuildingBlock: UVAHIK_clean_linker_0, # of connection points: 2
#     Edge 45, Type (0, 0), BuildingBlock: UVAHIK_clean_linker_0, # of connection points: 2
#     Edge 46, Type (0, 0), BuildingBlock: UVAHIK_clean_linker_0, # of connection points: 2
#     Edge 47, Type (0, 0), BuildingBlock: UVAHIK_clean_linker_0, # of connection points: 2
#     Edge 48, Type (0, 0), BuildingBlock: UVAHIK_clean_linker_0, # of connection points: 2
#     Edge 49, Type (0, 0), BuildingBlock: UVAHIK_clean_linker_0, # of connection points: 2
#     Edge 50, Type (0, 0), BuildingBlock: UVAHIK_clean_linker_0, # of connection points: 2
#     Edge 51, Type (0, 0), BuildingBlock: UVAHIK_clean_linker_0, # of connection points: 2
#     Edge 52, Type (0, 0), BuildingBlock: UVAHIK_clean_linker_0, # of connection points: 2
#     Edge 53, Type (0, 0), BuildingBlock: UVAHIK_clean_linker_0, # of connection points: 2
#     Edge 54, Type (0, 0), BuildingBlock: UVAHIK_clean_linker_0, # of connection points: 2
#     Edge 55, Type (0, 0), BuildingBlock: UVAHIK_clean_linker_0, # of connection points: 2
#     Edge 56, Type (0, 0), BuildingBlock: UVAHIK_clean_linker_0, # of connection points: 2
#     Edge 57, Type (0, 0), BuildingBlock: UVAHIK_clean_linker_0, # of connection points: 2
#     Edge 58, Type (0, 0), BuildingBlock: UVAHIK_clean_linker_0, # of connection points: 2
#     Edge 59, Type (0, 0), BuildingBlock: UVAHIK_clean_linker_0, # of connection points: 2
#     Edge 60, Type (0, 0), BuildingBlock: UVAHIK_clean_linker_0, # of connection points: 2
#     Edge 61, Type (0, 0), BuildingBlock: UVAHIK_clean_linker_0, # of connection points: 2
#     Edge 62, Type (0, 0), BuildingBlock: UVAHIK_clean_linker_0, # of connection points: 2
#     Edge 63, Type (0, 0), BuildingBlock: UVAHIK_clean_linker_0, # of connection points: 2
#     Edge 64, Type (0, 0), BuildingBlock: UVAHIK_clean_linker_0, # of connection points: 2
#     Edge 65, Type (0, 0), BuildingBlock: UVAHIK_clean_linker_0, # of connection points: 2
#     Edge 66, Type (0, 0), BuildingBlock: UVAHIK_clean_linker_0, # of connection points: 2
#     Edge 67, Type (0, 0), BuildingBlock: UVAHIK_clean_linker_0, # of connection points: 2
#     Edge 68, Type (0, 0), BuildingBlock: UVAHIK_clean_linker_0, # of connection points: 2
#     Edge 69, Type (0, 0), BuildingBlock: UVAHIK_clean_linker_0, # of connection points: 2
#     Edge 70, Type (0, 0), BuildingBlock: UVAHIK_clean_linker_0, # of connection points: 2
#     Edge 71, Type (0, 0), BuildingBlock: UVAHIK_clean_linker_0, # of connection points: 2
# Relax obj value: 0.097
# Max RMSD: 0.201
# Mean RMSD: 0.201
data_MOF--net-wmi--node1-BETDIP_clean_sbu_0--edge1-UVAHIK_clean_linker_0
_symmetry_space_group_name_H-M    P1
_symmetry_Int_Tables_number       1
_symmetry_cell_setting            triclinic
loop_
_symmetry_equiv_pos_as_xyz
'x, y, z'
_cell_length_a     49.097991
_cell_length_b     49.16489
_cell_length_c     102.19336
_cell_angle_alpha  89.931938
_cell_angle_beta   90.047838
_cell_angle_gamma 120.04825
loop_
_atom_site_label
_atom_site_type_symbol
_atom_site_fract_x
_atom_site_fract_y
_atom_site_fract_z
_atom_type_partial_charge
Tb0 Tb 0.51975 0.04069 0.11637 0.0
Tb1 Tb 0.44789 1.00085 0.10971 0.0
C2 C 0.57808 0.07676 0.11874 0.0
C3 C 0.60729 0.10657 0.11589 0.0
C4 C 0.61607 0.11881 0.10316 0.0
C5 C 0.64617 0.14471 0.10081 0.0
C6 C 0.66799 0.15837 0.11111 0.0
C7 C 0.65854 0.14667 0.12385 0.0
C8 C 0.62857 0.12116 0.1262 0.0
C9 C 0.4791 0.01857 0.13615 0.0
C10 C 0.48254 0.07469 0.1069 0.0
C11 C 0.39021 0.96565 0.11386 0.0
C12 C 0.36727 0.93245 0.11132 0.0
C13 C 0.3374 0.91902 0.11703 0.0
C14 C 0.31657 0.8867 0.11609 0.0
C15 C 0.32523 0.8671 0.10943 0.0
C16 C 0.3551 0.88086 0.10349 0.0
C17 C 0.37597 0.91326 0.10445 0.0
C18 C 0.48181 1.00894 0.08841 0.0
C19 C 0.48948 0.96788 0.11434 0.0
O20 O 0.56529 0.05561 0.10945 0.0
O21 O 0.5573 0.07747 0.12656 0.0
O22 O 0.47597 0.02922 0.12543 0.0
O23 O 0.50653 0.02085 0.13631 0.0
O24 O 0.50989 0.07543 0.10772 0.0
O25 O 0.45505 0.0486 0.10886 0.0
O26 O 0.41224 0.97004 0.12225 0.0
O27 O 0.40129 0.9844 0.10365 0.0
O28 O 0.49135 0.01903 0.09979 0.0
O29 O 0.45132 0.993 0.08876 0.0
O30 O 0.46106 0.96495 0.114 0.0
O31 O 0.51577 0.99534 0.11398 0.0
H32 H 0.60012 0.10785 0.09502 0.0
H33 H 0.65281 0.15322 0.09089 0.0
H34 H 0.67459 0.15697 0.13202 0.0
H35 H 0.62239 0.11206 0.13608 0.0
H36 H 0.33053 0.93341 0.12256 0.0
H37 H 0.29405 0.87694 0.12099 0.0
H38 H 0.36245 0.86658 0.09818 0.0
H39 H 0.39914 0.92323 0.1001 0.0
Tb40 Tb 1.01468 0.49631 0.11463 0.0
Tb41 Tb 0.05563 0.4656 0.10907 0.0
C42 C 0.978 0.51787 0.1167 0.0
C43 C 0.94802 0.51699 0.11396 0.0
C44 C 0.93593 0.51416 0.10124 0.0
C45 C 0.91004 0.51843 0.09901 0.0
C46 C 0.8963 0.52606 0.10942 0.0
C47 C 0.9078 0.52763 0.12215 0.0
C48 C 0.93328 0.52308 0.12438 0.0
C49 C 0.03676 0.47924 0.13494 0.0
C50 C 0.98177 0.42492 0.10593 0.0
C51 C 0.09133 0.44395 0.11363 0.0
C52 C 0.12465 0.4546 0.11099 0.0
C53 C 0.1462 0.48653 0.10882 0.0
C54 C 0.17839 0.49716 0.10792 0.0
C55 C 0.18969 0.47598 0.10901 0.0
C56 C 0.16774 0.44375 0.11057 0.0
C57 C 0.13554 0.43321 0.11163 0.0
C58 C 0.04818 0.48969 0.08708 0.0
C59 C 0.08721 0.54028 0.11257 0.0
O60 O 0.99888 0.52589 0.10731 0.0
O61 O 0.97777 0.49699 0.12475 0.0
O62 O 0.02628 0.46493 0.12435 0.0
O63 O 0.03493 0.5046 0.1346 0.0
O64 O 0.98047 0.45122 0.10622 0.0
O65 O 1.00816 0.42437 0.1083 0.0
O66 O 0.08656 0.46163 0.12184 0.0
O67 O 0.07237 0.4354 0.10349 0.0
O68 O 0.03725 0.48977 0.09825 0.0
O69 O 0.06423 0.47541 0.08815 0.0
O70 O 0.09073 0.51519 0.11334 0.0
O71 O 0.05936 0.53798 0.11149 0.0
H72 H 0.94703 0.50968 0.09302 0.0
H73 H 0.90165 0.51709 0.08909 0.0
H74 H 0.89744 0.53301 0.13039 0.0
H75 H 0.9423 0.52555 0.13425 0.0
H76 H 0.13825 0.50344 0.10825 0.0
H77 H 0.19444 0.52215 0.10687 0.0
H78 H 0.17543 0.42663 0.11117 0.0
H79 H 0.11924 0.40845 0.11325 0.0
Tb80 Tb 0.55998 0.53646 0.11587 0.0
Tb81 Tb 0.59067 0.60818 0.10901 0.0
C82 C 0.53865 0.47834 0.11825 0.0
C83 C 0.53964 0.44938 0.11535 0.0
C84 C 0.54213 0.44033 0.10256 0.0
C85 C 0.53829 0.41042 0.10021 0.0
C86 C 0.53144 0.38901 0.11058 0.0
C87 C 0.53009 0.39872 0.12337 0.0
C88 C 0.5342 0.42852 0.12571 0.0
C89 C 0.57818 0.57727 0.13554 0.0
C90 C 0.63109 0.57486 0.10621 0.0
C91 C 0.61217 0.66583 0.11266 0.0
C92 C 0.60066 0.68788 0.11013 0.0
C93 C 0.56828 0.67696 0.10912 0.0
C94 C 0.55721 0.69815 0.1083 0.0
C95 C 0.57832 0.73078 0.10836 0.0
C96 C 0.61086 0.74153 0.1088 0.0
C97 C 0.62188 0.72026 0.10974 0.0
C98 C 0.56481 0.57354 0.08786 0.0
C99 C 0.51633 0.56553 0.11401 0.0
O100 O 0.52971 0.49081 0.10903 0.0
O101 O 0.56021 0.49932 0.12601 0.0
O102 O 0.59184 0.58061 0.12478 0.0
O103 O 0.55347 0.54951 0.13583 0.0
O104 O 0.60485 0.54723 0.10717 0.0
O105 O 0.63186 0.60203 0.10807 0.0
O106 O 0.59605 0.64414 0.12142 0.0
O107 O 0.61948 0.65464 0.10241 0.0
O108 O 0.56586 0.56449 0.09929 0.0
O109 O 0.5788 0.60396 0.08808 0.0
O110 O 0.54152 0.59411 0.11357 0.0
O111 O 0.51797 0.53953 0.11367 0.0
H112 H 0.54612 0.45591 0.09438 0.0
H113 H 0.53943 0.40359 0.09024 0.0
H114 H 0.52539 0.38304 0.13158 0.0
H115 H 0.532 0.43489 0.13564 0.0
H116 H 0.55144 0.65205 0.10941 0.0
H117 H 0.53203 0.68889 0.10813 0.0
H118 H 0.62787 0.76642 0.1086 0.0
H119 H 0.64696 0.72915 0.11047 0.0
Tb120 Tb 0.04518 0.51334 0.92747 0.0
Tb121 Tb 1.00789 0.44061 0.93105 0.0
C122 C 0.08058 0.57219 0.92719 0.0
C123 C 0.1096 0.60052 0.93181 0.0
C124 C 0.10675 0.62293 0.93929 0.0
C125 C 0.13285 0.65268 0.94158 0.0
C126 C 0.16254 0.6609 0.93639 0.0
C127 C 0.16574 0.6379 0.92946 0.0
C128 C 0.13955 0.60809 0.92715 0.0
C129 C 0.02577 0.47747 0.90613 0.0
C130 C 0.08131 0.47681 0.9348 0.0
C131 C 0.97331 0.3844 0.92438 0.0
C132 C 0.93961 0.36073 0.92612 0.0
C133 C 0.91981 0.35085 0.91511 0.0
C134 C 0.88743 0.33065 0.91646 0.0
C135 C 0.87411 0.31947 0.92885 0.0
C136 C 0.89401 0.32854 0.93985 0.0
C137 C 0.92645 0.34914 0.93852 0.0
C138 C 1.01325 0.46781 0.95401 0.0
C139 C 0.97248 0.48056 0.93008 0.0
O140 O 0.05716 0.5574 0.93542 0.0
O141 O 0.08323 0.55308 0.91903 0.0
O142 O 0.03653 0.4729 0.91648 0.0
O143 O 0.02567 0.50365 0.90731 0.0
O144 O 0.08032 0.50326 0.93554 0.0
O145 O 0.05625 0.44941 0.93166 0.0
O146 O 0.97848 0.40843 0.91707 0.0
O147 O 0.99186 0.39279 0.93469 0.0
O148 O 0.02375 0.48101 0.94309 0.0
O149 O 0.99915 0.43769 0.9521 0.0
O150 O 0.97088 0.45308 0.92811 0.0
O151 O 0.9994 0.50705 0.93147 0.0
H152 H 0.08396 0.61796 0.9429 0.0
H153 H 0.12958 0.66954 0.94716 0.0
H154 H 0.18816 0.64342 0.92525 0.0
H155 H 0.14257 0.59155 0.92122 0.0
H156 H 0.92934 0.35929 0.90543 0.0
H157 H 0.87279 0.32371 0.90778 0.0
H158 H 0.88436 0.32035 0.94953 0.0
H159 H 0.94104 0.35637 0.94721 0.0
Tb160 Tb 0.54379 0.55391 0.92699 0.0
Tb161 Tb 0.61611 0.58391 0.93154 0.0
C162 C 0.48543 0.53336 0.92642 0.0
C163 C 0.45749 0.53405 0.9315 0.0
C164 C 0.43524 0.50858 0.93898 0.0
C165 C 0.40559 0.50491 0.94153 0.0
C166 C 0.39736 0.52654 0.93661 0.0
C167 C 0.42023 0.55297 0.92972 0.0
C168 C 0.44992 0.55661 0.92713 0.0
C169 C 0.58112 0.57062 0.90608 0.0
C170 C 0.58407 0.62515 0.93569 0.0
C171 C 0.67254 0.60396 0.92565 0.0
C172 C 0.69519 0.59279 0.92745 0.0
C173 C 0.70799 0.58667 0.91631 0.0
C174 C 0.72733 0.57353 0.91752 0.0
C175 C 0.73462 0.56654 0.92992 0.0
C176 C 0.72253 0.57344 0.94111 0.0
C177 C 0.70279 0.58626 0.93989 0.0
C178 C 0.58584 0.56072 0.95387 0.0
C179 C 0.57175 0.50924 0.92836 0.0
O180 O 0.49873 0.52166 0.93394 0.0
O181 O 0.50578 0.55671 0.91913 0.0
O182 O 0.58619 0.58467 0.91679 0.0
O183 O 0.55334 0.54597 0.90654 0.0
O184 O 0.55639 0.59883 0.93607 0.0
O185 O 0.61057 0.62549 0.93256 0.0
O186 O 0.64885 0.58632 0.91792 0.0
O187 O 0.66391 0.61362 0.93603 0.0
O188 O 0.57437 0.56065 0.94281 0.0
O189 O 0.61615 0.57438 0.95251 0.0
O190 O 0.60055 0.53407 0.92747 0.0
O191 O 0.54645 0.5119 0.92967 0.0
H192 H 0.44016 0.49058 0.94235 0.0
H193 H 0.38876 0.48456 0.94705 0.0
H194 H 0.41464 0.56998 0.9257 0.0
H195 H 0.46632 0.57629 0.92118 0.0
H196 H 0.70248 0.59152 0.90662 0.0
H197 H 0.73666 0.56888 0.90874 0.0
H198 H 0.72768 0.56816 0.95079 0.0
H199 H 0.69309 0.5905 0.94866 0.0
Tb200 Tb 0.50591 1.00955 0.92686 0.0
Tb201 Tb 0.47282 0.04858 0.93257 0.0
C202 C 0.52871 0.97383 0.92497 0.0
C203 C 0.52717 0.94338 0.92739 0.0
C204 C 0.52507 0.93113 0.94004 0.0
C205 C 0.52899 0.90497 0.94197 0.0
C206 C 0.53553 0.89095 0.93133 0.0
C207 C 0.53634 0.90258 0.91868 0.0
C208 C 0.53218 0.9284 0.91675 0.0
C209 C 0.48938 0.0324 0.90665 0.0
C210 C 0.43336 0.97442 0.93471 0.0
C211 C 0.45086 0.08387 0.92761 0.0
C212 C 0.46065 0.11698 0.9301 0.0
C213 C 0.44408 0.13002 0.92418 0.0
C214 C 0.45517 0.16227 0.92506 0.0
C215 C 0.48316 0.18221 0.93187 0.0
C216 C 0.4994 0.16884 0.93802 0.0
C217 C 0.48826 0.13651 0.93712 0.0
C218 C 0.49611 0.03998 0.95455 0.0
C219 C 0.54802 0.08196 0.93038 0.0
O220 O 0.53462 0.99326 0.93477 0.0
O221 O 0.50951 0.97481 0.91631 0.0
O222 O 0.47441 0.02091 0.91704 0.0
O223 O 0.51513 0.03119 0.90713 0.0
O224 O 0.46009 0.97385 0.93419 0.0
O225 O 0.43214 1.00066 0.93296 0.0
O226 O 0.46959 0.07982 0.91974 0.0
O227 O 0.44199 0.06484 0.93774 0.0
O228 O 0.49698 0.03022 0.94324 0.0
O229 O 0.48154 0.05582 0.95368 0.0
O230 O 0.52253 0.08473 0.92923 0.0
O231 O 0.54662 0.05446 0.93103 0.0
H232 H 0.52147 0.94235 0.94845 0.0
H233 H 0.52828 0.89658 0.95184 0.0
H234 H 0.54083 0.89205 0.91025 0.0
H235 H 0.53414 0.93749 0.90692 0.0
H236 H 0.42304 0.11538 0.91853 0.0
H237 H 0.44232 0.17171 0.92001 0.0
H238 H 0.52082 0.18338 0.94345 0.0
H239 H 0.50157 0.12686 0.94163 0.0
Tb240 Tb 0.18962 0.37345 0.44839 0.0
Tb241 Tb 0.12171 0.33923 0.4411 0.0
C242 C 0.24861 0.4076 0.45038 0.0
C243 C 0.2774 0.43725 0.44662 0.0
C244 C 0.30018 0.43552 0.43892 0.0
C245 C 0.32982 0.462 0.43696 0.0
C246 C 0.33761 0.49099 0.44269 0.0
C247 C 0.31436 0.4931 0.44996 0.0
C248 C 0.28461 0.46648 0.45196 0.0
C249 C 0.14911 0.35087 0.46818 0.0
C250 C 0.15571 0.41208 0.44148 0.0
C251 C 0.06326 0.30166 0.44102 0.0
C252 C 0.04261 0.26723 0.44192 0.0
C253 C 1.01535 0.25496 0.44959 0.0
C254 C 0.9953 0.22249 0.45062 0.0
C255 C 1.00194 0.20145 0.44391 0.0
C256 C 0.02963 0.21387 0.43637 0.0
C257 C 0.04981 0.24643 0.43541 0.0
C258 C 0.16001 0.36178 0.42094 0.0
C259 C 0.15827 0.3012 0.44653 0.0
O260 O 0.23457 0.38627 0.4413 0.0
O261 O 0.22864 0.40871 0.45854 0.0
O262 O 0.1469 0.3637 0.45794 0.0
O263 O 0.17582 0.35159 0.468 0.0
O264 O 0.18212 0.41102 0.44106 0.0
O265 O 0.12812 0.38628 0.44332 0.0
O266 O 0.07931 0.31551 0.45157 0.0
O267 O 0.08012 0.31273 0.43039 0.0
O268 O 0.1642 0.34926 0.431 0.0
O269 O 0.13298 0.36036 0.42177 0.0
O270 O 0.13096 0.30028 0.44514 0.0
O271 O 0.18509 0.32791 0.44686 0.0
H272 H 0.29548 0.4133 0.43479 0.0
H273 H 0.3469 0.45959 0.43112 0.0
H274 H 0.31958 0.515 0.45458 0.0
H275 H 0.26774 0.46859 0.45806 0.0
H276 H 1.00956 0.27056 0.45482 0.0
H277 H 0.97464 0.21391 0.45676 0.0
H278 H 0.03546 0.1985 0.43101 0.0
H279 H 0.07091 0.25531 0.42952 0.0
Tb280 Tb 0.68504 0.8345 0.44892 0.0
Tb281 Tb 0.72483 0.80213 0.44339 0.0
C282 C 0.64874 0.85679 0.44988 0.0
C283 C 0.61912 0.85513 0.44546 0.0
C284 C 0.62051 0.8777 0.43659 0.0
C285 C 0.5941 0.88086 0.43432 0.0
C286 C 0.56563 0.86168 0.44093 0.0
C287 C 0.56382 0.83809 0.44932 0.0
C288 C 0.59025 0.8349 0.45159 0.0
C289 C 0.70586 0.81634 0.4693 0.0
C290 C 0.65078 0.76275 0.4404 0.0
C291 C 0.75946 0.77944 0.44831 0.0
C292 C 0.79261 0.78929 0.44587 0.0
C293 C 0.80602 0.77357 0.4522 0.0
C294 C 0.83833 0.7848 0.45127 0.0
C295 C 0.85791 0.81207 0.44398 0.0
C296 C 0.84416 0.82744 0.43743 0.0
C297 C 0.81179 0.81618 0.43839 0.0
C298 C 0.71763 0.82666 0.42146 0.0
C299 C 0.7581 0.87691 0.44729 0.0
O300 O 0.67197 0.86616 0.44149 0.0
O301 O 0.64698 0.83511 0.4579 0.0
O302 O 0.69574 0.80246 0.4586 0.0
O303 O 0.7038 0.8416 0.46914 0.0
O304 O 0.65036 0.78951 0.44058 0.0
O305 O 0.67687 0.76151 0.44264 0.0
O306 O 0.7553 0.79782 0.45633 0.0
O307 O 0.74075 0.77118 0.43807 0.0
O308 O 0.70714 0.82689 0.43269 0.0
O309 O 0.7335 0.81214 0.4224 0.0
O310 O 0.76083 0.85133 0.44767 0.0
O311 O 0.73063 0.87557 0.44634 0.0
H312 H 0.64251 0.89404 0.43189 0.0
H313 H 0.59654 0.89949 0.4279 0.0
H314 H 0.54216 0.82256 0.45442 0.0
H315 H 0.58834 0.81744 0.45857 0.0
H316 H 0.79164 0.7531 0.4582 0.0
H317 H 0.84809 0.77267 0.45665 0.0
H318 H 0.85842 0.84828 0.43163 0.0
H319 H 0.80183 0.82884 0.43356 0.0
Tb320 Tb 0.22922 0.87271 0.45016 0.0
Tb321 Tb 0.25948 0.9443 0.44373 0.0
C322 C 0.20913 0.81466 0.45211 0.0
C323 C 0.21142 0.78708 0.44774 0.0
C324 C 0.19011 0.76627 0.43841 0.0
C325 C 0.18749 0.73695 0.43618 0.0
C326 C 0.20594 0.72759 0.44332 0.0
C327 C 0.22833 0.74904 0.45218 0.0
C328 C 0.23097 0.77837 0.4544 0.0
C329 C 0.24635 0.91276 0.47009 0.0
C330 C 0.30017 0.91138 0.44062 0.0
C331 C 0.28093 1.00162 0.44807 0.0
C332 C 0.27036 0.02432 0.44561 0.0
C333 C 0.28176 0.05091 0.45359 0.0
C334 C 0.26934 0.07091 0.45261 0.0
C335 C 0.24526 0.06479 0.44356 0.0
C336 C 0.23427 0.03828 0.43539 0.0
C337 C 0.24661 0.01811 0.43645 0.0
C338 C 0.23494 0.91066 0.42226 0.0
C339 C 0.18486 0.90085 0.44761 0.0
O340 O 0.19744 0.82683 0.44396 0.0
O341 O 0.23182 0.83596 0.45939 0.0
O342 O 0.26041 0.91648 0.45942 0.0
O343 O 0.22168 0.88497 0.47014 0.0
O344 O 0.27378 0.88383 0.44113 0.0
O345 O 0.3009 0.93841 0.44288 0.0
O346 O 0.26325 0.97932 0.45634 0.0
O347 O 0.28915 0.99107 0.43787 0.0
O348 O 0.23561 0.90108 0.43362 0.0
O349 O 0.24847 0.94106 0.42273 0.0
O350 O 0.20984 0.92964 0.44789 0.0
O351 O 0.18726 0.87529 0.44703 0.0
H352 H 0.17427 0.77194 0.43328 0.0
H353 H 0.1698 0.72098 0.42938 0.0
H354 H 0.24327 0.74281 0.4577 0.0
H355 H 0.2474 0.79361 0.46176 0.0
H356 H 0.29962 0.05568 0.4609 0.0
H357 H 0.27796 0.09061 0.45928 0.0
H358 H 0.21599 0.03296 0.42824 0.0
H359 H 0.23716 0.99734 0.43035 0.0
Tb360 Tb 0.71455 0.84926 0.2595 0.0
Tb361 Tb 0.67428 0.77756 0.26593 0.0
C362 C 0.75091 0.90747 0.25711 0.0
C363 C 0.78096 0.93644 0.25992 0.0
C364 C 0.79223 0.94615 0.27271 0.0
C365 C 0.81814 0.97627 0.27494 0.0
C366 C 0.83278 0.99719 0.26444 0.0
C367 C 0.82215 0.98678 0.25166 0.0
C368 C 0.79661 0.95678 0.24944 0.0
C369 C 0.6921 0.80904 0.23962 0.0
C370 C 0.74834 0.8118 0.26874 0.0
C371 C 0.63916 0.72004 0.26153 0.0
C372 C 0.60595 0.69682 0.26395 0.0
C373 C 0.59316 0.66684 0.25844 0.0
C374 C 0.56087 0.6456 0.25928 0.0
C375 C 0.54068 0.65396 0.26565 0.0
C376 C 0.5538 0.68395 0.27139 0.0
C377 C 0.58616 0.70523 0.27053 0.0
C378 C 0.68278 0.81092 0.28741 0.0
C379 C 0.64184 0.81979 0.26195 0.0
O380 O 0.72983 0.89479 0.26644 0.0
O381 O 0.75131 0.88665 0.24923 0.0
O382 O 0.70284 0.80572 0.25027 0.0
O383 O 0.69419 0.83636 0.23962 0.0
O384 O 0.7492 0.83915 0.26797 0.0
O385 O 0.72206 0.78444 0.26682 0.0
O386 O 0.64354 0.74225 0.25325 0.0
O387 O 0.65773 0.73088 0.27179 0.0
O388 O 0.6929 0.82071 0.27605 0.0
O389 O 0.6664 0.78049 0.28692 0.0
O390 O 0.63856 0.79123 0.26172 0.0
O391 O 0.66958 0.84567 0.26258 0.0
H392 H 0.78046 0.93096 0.28098 0.0
H393 H 0.82583 0.98367 0.28489 0.0
H394 H 0.83322 1.00214 0.24335 0.0
H395 H 0.78825 0.9499 0.2395 0.0
H396 H 0.60802 0.66017 0.25314 0.0
H397 H 0.55162 0.62299 0.25454 0.0
H398 H 0.53904 0.69107 0.27648 0.0
H399 H 0.59564 0.72847 0.27472 0.0
Tb400 Tb 0.20929 0.88482 0.26106 0.0
Tb401 Tb 0.28188 0.91912 0.26599 0.0
C402 C 0.15048 0.86146 0.26015 0.0
C403 C 0.12206 0.86183 0.26481 0.0
C404 C 0.09903 0.83571 0.27174 0.0
C405 C 0.06936 0.83217 0.2741 0.0
C406 C 0.06186 0.85463 0.26953 0.0
C407 C 0.08545 0.88159 0.26315 0.0
C408 C 0.11518 0.8851 0.26077 0.0
C409 C 0.24728 0.902 0.24035 0.0
C410 C 0.24597 0.95692 0.26915 0.0
C411 C 0.33906 0.94208 0.2606 0.0
C412 C 0.3625 0.93238 0.26299 0.0
C413 C 0.39078 0.94682 0.25598 0.0
C414 C 0.41166 0.93537 0.25685 0.0
C415 C 0.40464 0.90916 0.26476 0.0
C416 C 0.37641 0.89511 0.27198 0.0
C417 C 0.35548 0.90658 0.27107 0.0
C418 C 0.25143 0.89566 0.28827 0.0
C419 C 0.24131 0.84409 0.26387 0.0
O420 O 0.16466 0.85186 0.26826 0.0
O421 O 0.17019 0.88409 0.25241 0.0
O422 O 0.25128 0.91675 0.25083 0.0
O423 O 0.22034 0.87627 0.24097 0.0
O424 O 0.21911 0.9297 0.26931 0.0
O425 O 0.27351 0.95894 0.26658 0.0
O426 O 0.31614 0.92327 0.25279 0.0
O427 O 0.32903 0.95076 0.27082 0.0
O428 O 0.24005 0.89446 0.27708 0.0
O429 O 0.28181 0.91063 0.28709 0.0
O430 O 0.26922 0.86987 0.26244 0.0
O431 O 0.21489 0.84483 0.26493 0.0
H432 H 0.10348 0.81721 0.27485 0.0
H433 H 0.05201 0.8114 0.27924 0.0
H434 H 0.08047 0.89927 0.25942 0.0
H435 H 0.13225 0.90537 0.25528 0.0
H436 H 0.39629 0.96639 0.2495 0.0
H437 H 0.43283 0.94646 0.25096 0.0
H438 H 0.37036 0.87513 0.27826 0.0
H439 H 0.33349 0.89486 0.27642 0.0
Tb440 Tb 0.16906 0.3417 0.25967 0.0
Tb441 Tb 0.1392 0.38405 0.26396 0.0
C442 C 0.18907 0.30349 0.25912 0.0
C443 C 0.18852 0.27499 0.26431 0.0
C444 C 0.21322 0.27837 0.2724 0.0
C445 C 0.21726 0.25269 0.2751 0.0
C446 C 0.19678 0.22295 0.26973 0.0
C447 C 0.17107 0.21918 0.26221 0.0
C448 C 0.16708 0.24493 0.25948 0.0
C449 C 0.15231 0.36204 0.23865 0.0
C450 C 0.0979 0.31109 0.26853 0.0
C451 C 0.11949 0.42055 0.25786 0.0
C452 C 0.1306 0.45437 0.25965 0.0
C453 C 0.13816 0.47364 0.24854 0.0
C454 C 0.15089 0.50606 0.24981 0.0
C455 C 0.15601 0.51993 0.26225 0.0
C456 C 0.14774 0.50057 0.2734 0.0
C457 C 0.13532 0.46809 0.27212 0.0
C458 C 0.16214 0.37733 0.28641 0.0
C459 C 0.21394 0.41422 0.26098 0.0
O460 O 0.20144 0.32887 0.26639 0.0
O461 O 0.16531 0.3003 0.25205 0.0
O462 O 0.13828 0.35312 0.24937 0.0
O463 O 0.17708 0.35915 0.23917 0.0
O464 O 0.12424 0.30981 0.26901 0.0
O465 O 0.09754 0.33706 0.26513 0.0
O466 O 0.13736 0.41457 0.25027 0.0
O467 O 0.10942 0.40212 0.26821 0.0
O468 O 0.16237 0.36568 0.27545 0.0
O469 O 0.14841 0.39383 0.28487 0.0
O470 O 0.18916 0.41819 0.25993 0.0
O471 O 0.21119 0.38627 0.2624 0.0
H472 H 0.23042 0.30124 0.27614 0.0
H473 H 0.23701 0.25637 0.2811 0.0
H474 H 0.15497 0.19668 0.25784 0.0
H475 H 0.14808 0.24152 0.25305 0.0
H476 H 0.13467 0.46363 0.23881 0.0
H477 H 0.15661 0.5203 0.24105 0.0
H478 H 0.15155 0.51065 0.28311 0.0
H479 H 0.12989 0.45388 0.28088 0.0
Tb480 Tb 0.85438 0.70679 0.78248 0.0
Tb481 Tb 0.78701 0.67276 0.77433 0.0
C482 C 0.91324 0.74121 0.78492 0.0
C483 C 0.94199 0.77103 0.78125 0.0
C484 C 0.96466 0.76974 0.7733 0.0
C485 C 0.99428 0.79634 0.77142 0.0
C486 C 1.00217 0.82502 0.7775 0.0
C487 C 0.97904 0.82669 0.78504 0.0
C488 C 0.94932 0.79997 0.78695 0.0
C489 C 0.81272 0.68384 0.80182 0.0
C490 C 0.82089 0.74551 0.77505 0.0
C491 C 0.72849 0.63526 0.77373 0.0
C492 C 0.70778 0.60086 0.77345 0.0
C493 C 0.67738 0.58758 0.77865 0.0
C494 C 0.65746 0.55498 0.77873 0.0
C495 C 0.66757 0.53493 0.77362 0.0
C496 C 0.69827 0.54837 0.76851 0.0
C497 C 0.71817 0.58105 0.76841 0.0
C498 C 0.82674 0.69554 0.75461 0.0
C499 C 0.82331 0.63457 0.78012 0.0
O500 O 0.89972 0.71974 0.77585 0.0
O501 O 0.8928 0.74217 0.79286 0.0
O502 O 0.81093 0.69673 0.7915 0.0
O503 O 0.83964 0.685 0.802 0.0
O504 O 0.84728 0.74441 0.77495 0.0
O505 O 0.79319 0.71969 0.77661 0.0
O506 O 0.74452 0.64667 0.78451 0.0
O507 O 0.74555 0.64835 0.76329 0.0
O508 O 0.83018 0.68292 0.76482 0.0
O509 O 0.79964 0.69409 0.75506 0.0
O510 O 0.79631 0.63366 0.77772 0.0
O511 O 0.84992 0.66121 0.7815 0.0
H512 H 0.95991 0.74776 0.76889 0.0
H513 H 1.01125 0.79426 0.76537 0.0
H514 H 0.98433 0.84831 0.78994 0.0
H515 H 0.93259 0.80175 0.79326 0.0
H516 H 0.66906 0.60245 0.78271 0.0
H517 H 0.6342 0.54546 0.78293 0.0
H518 H 0.70673 0.53368 0.7644 0.0
H519 H 0.7416 0.59083 0.76437 0.0
Tb520 Tb 0.35198 0.16976 0.78358 0.0
Tb521 Tb 0.38996 0.1359 0.77786 0.0
C522 C 0.31679 0.19321 0.7854 0.0
C523 C 0.28632 0.19147 0.78272 0.0
C524 C 0.27376 0.18764 0.77003 0.0
C525 C 0.24731 0.19092 0.76776 0.0
C526 C 0.23326 0.19847 0.77809 0.0
C527 C 0.24529 0.20111 0.7908 0.0
C528 C 0.27145 0.19763 0.79307 0.0
C529 C 0.37431 0.1527 0.80381 0.0
C530 C 0.31565 0.09719 0.77603 0.0
C531 C 0.42481 0.1134 0.78269 0.0
C532 C 0.45769 0.12282 0.77978 0.0
C533 C 0.47076 0.10577 0.78521 0.0
C534 C 0.50291 0.11651 0.78388 0.0
C535 C 0.52267 0.14462 0.77711 0.0
C536 C 0.50924 0.1613 0.77144 0.0
C537 C 0.47702 0.1505 0.77278 0.0
C538 C 0.38206 0.15923 0.75576 0.0
C539 C 0.4246 0.21117 0.78009 0.0
O540 O 0.33647 0.19909 0.7757 0.0
O541 O 0.31737 0.17384 0.79406 0.0
O542 O 0.36263 0.13785 0.79342 0.0
O543 O 0.37359 0.17866 0.80332 0.0
O544 O 0.31558 0.12413 0.77639 0.0
O545 O 0.34176 0.09566 0.77772 0.0
O546 O 0.42152 0.13265 0.79052 0.0
O547 O 0.40512 0.10419 0.77278 0.0
O548 O 0.37226 0.16066 0.76703 0.0
O549 O 0.39703 0.14383 0.75679 0.0
O550 O 0.42692 0.18541 0.78099 0.0
O551 O 0.39723 0.21013 0.77963 0.0
H552 H 0.2849 0.18308 0.76185 0.0
H553 H 0.23863 0.18879 0.75785 0.0
H554 H 0.23475 0.20637 0.79901 0.0
H555 H 0.28078 0.20088 0.80292 0.0
H556 H 0.45627 0.08462 0.79082 0.0
H557 H 0.51246 0.10331 0.78855 0.0
H558 H 0.52365 0.18283 0.76606 0.0
H559 H 0.46733 0.16413 0.76862 0.0
Tb560 Tb 0.89523 0.20559 0.78219 0.0
Tb561 Tb 0.92449 0.27644 0.77508 0.0
C562 C 0.87591 0.14784 0.78483 0.0
C563 C 0.8765 0.11983 0.7798 0.0
C564 C 0.85314 0.09924 0.77105 0.0
C565 C 0.84943 0.0697 0.76831 0.0
C566 C 0.86888 0.05991 0.77431 0.0
C567 C 0.89324 0.0811 0.78256 0.0
C568 C 0.89691 0.11065 0.78533 0.0
C569 C 0.91235 0.24659 0.80181 0.0
C570 C 0.96541 0.24391 0.77215 0.0
C571 C 0.94566 0.3341 0.77825 0.0
C572 C 0.93437 0.35594 0.77502 0.0
C573 C 0.90208 0.34495 0.77349 0.0
C574 C 0.89114 0.36611 0.772 0.0
C575 C 0.91233 0.39869 0.77187 0.0
C576 C 0.94482 0.40945 0.77275 0.0
C577 C 0.9557 0.38825 0.77438 0.0
C578 C 0.89996 0.24169 0.75384 0.0
C579 C 0.8501 0.2326 0.77909 0.0
O580 O 0.86146 0.15912 0.77779 0.0
O581 O 0.90101 0.16992 0.79074 0.0
O582 O 0.92623 0.24994 0.79114 0.0
O583 O 0.88807 0.2186 0.8021 0.0
O584 O 0.93898 0.21641 0.77246 0.0
O585 O 0.9661 0.27082 0.7746 0.0
O586 O 0.92874 0.31271 0.78701 0.0
O587 O 0.95391 0.32265 0.7684 0.0
O588 O 0.90084 0.23266 0.76529 0.0
O589 O 0.91315 0.27204 0.7541 0.0
O590 O 0.87487 0.2615 0.7795 0.0
O591 O 0.85296 0.20732 0.77854 0.0
H592 H 0.83674 0.10533 0.76673 0.0
H593 H 0.83073 0.05416 0.76175 0.0
H594 H 0.90846 0.07425 0.78745 0.0
H595 H 0.9148 0.12567 0.79228 0.0
H596 H 0.88521 0.32005 0.77389 0.0
H597 H 0.86599 0.35691 0.77147 0.0
H598 H 0.96189 0.43432 0.77239 0.0
H599 H 0.98071 0.39714 0.77547 0.0
Tb600 Tb 0.37991 0.18076 0.59526 0.0
Tb601 Tb 0.34207 0.10848 0.59942 0.0
C602 C 0.41494 0.23959 0.59436 0.0
C603 C 0.44591 0.26823 0.59646 0.0
C604 C 0.45864 0.27878 0.60901 0.0
C605 C 0.48512 0.3088 0.61069 0.0
C606 C 0.49897 0.3289 0.59988 0.0
C607 C 0.48692 0.31768 0.58733 0.0
C608 C 0.46077 0.28776 0.58565 0.0
C609 C 0.35881 0.14386 0.57428 0.0
C610 C 0.41631 0.14386 0.60162 0.0
C611 C 0.30742 0.05194 0.59317 0.0
C612 C 0.2744 0.02802 0.59554 0.0
C613 C 0.26175 0.99875 0.58939 0.0
C614 C 0.22955 0.97708 0.59027 0.0
C615 C 0.20933 0.98435 0.59729 0.0
C616 C 0.22232 0.0136 0.60367 0.0
C617 C 0.25458 0.03526 0.6028 0.0
C618 C 0.34876 0.1363 0.62228 0.0
C619 C 0.30743 0.1493 0.59852 0.0
O620 O 0.39732 0.2246 0.60447 0.0
O621 O 0.41238 0.22072 0.58481 0.0
O622 O 0.37025 0.1397 0.58452 0.0
O623 O 0.35858 0.16999 0.57543 0.0
O624 O 0.41647 0.17093 0.60168 0.0
O625 O 0.39023 0.1164 0.59959 0.0
O626 O 0.31112 0.07563 0.58598 0.0
O627 O 0.32654 0.0609 0.60327 0.0
O628 O 0.35897 0.14938 0.61129 0.0
O629 O 0.33436 0.10616 0.62047 0.0
O630 O 0.30516 0.12141 0.59682 0.0
O631 O 0.33476 0.17547 0.59956 0.0
H632 H 0.44753 0.26439 0.61755 0.0
H633 H 0.49384 0.31681 0.62049 0.0
H634 H 0.49731 0.33236 0.57879 0.0
H635 H 0.4513 0.28039 0.57588 0.0
H636 H 0.27662 0.99299 0.58359 0.0
H637 H 0.22035 0.95503 0.58506 0.0
H638 H 0.20754 0.01985 0.60926 0.0
H639 H 0.26394 0.05793 0.60751 0.0
Tb640 Tb 0.87768 0.2174 0.59265 0.0
Tb641 Tb 0.94998 0.25101 0.59849 0.0
C642 C 0.81893 0.19425 0.59165 0.0
C643 C 0.79054 0.19484 0.59624 0.0
C644 C 0.76818 0.16968 0.60382 0.0
C645 C 0.73847 0.16605 0.60616 0.0
C646 C 0.73023 0.18743 0.60092 0.0
C647 C 0.75315 0.2135 0.59387 0.0
C648 C 0.78293 0.2171 0.5915 0.0
C649 C 0.91696 0.23614 0.57241 0.0
C650 C 0.91436 0.2891 0.6016 0.0
C651 C 1.00751 0.27353 0.59401 0.0
C652 C 0.02952 0.26214 0.59675 0.0
C653 C 0.0607 0.27922 0.59237 0.0
C654 C 0.08083 0.26693 0.59379 0.0
C655 C 0.06998 0.23717 0.59952 0.0
C656 C 0.03879 0.22038 0.60409 0.0
C657 C 1.01879 0.23281 0.60275 0.0
C658 C 0.9178 0.22536 0.62023 0.0
C659 C 0.90952 0.17626 0.5941 0.0
O660 O 0.83299 0.18466 0.59984 0.0
O661 O 0.83874 0.21673 0.58386 0.0
O662 O 0.9205 0.25004 0.5831 0.0
O663 O 0.88964 0.2108 0.57248 0.0
O664 O 0.88737 0.26203 0.60117 0.0
O665 O 0.94203 0.29107 0.59943 0.0
O666 O 0.98529 0.25628 0.58562 0.0
O667 O 0.99676 0.28161 0.60418 0.0
O668 O 0.90725 0.22517 0.60896 0.0
O669 O 0.94825 0.24061 0.61945 0.0
O670 O 0.93761 0.20216 0.59431 0.0
O671 O 0.88285 0.17662 0.59465 0.0
H672 H 0.77316 0.15192 0.60748 0.0
H673 H 0.72164 0.146 0.61182 0.0
H674 H 0.74759 0.23032 0.58962 0.0
H675 H 0.79943 0.23657 0.58549 0.0
H676 H 0.06927 0.30173 0.58759 0.0
H677 H 0.10461 0.28032 0.59006 0.0
H678 H 0.02984 0.19761 0.60868 0.0
H679 H 0.99474 0.21924 0.60618 0.0
Tb680 Tb 0.83581 0.67309 0.59304 0.0
Tb681 Tb 0.80724 0.7161 0.59843 0.0
C682 C 0.85498 0.63425 0.59163 0.0
C683 C 0.85493 0.60596 0.5968 0.0
C684 C 0.87965 0.60954 0.60493 0.0
C685 C 0.88402 0.58405 0.60761 0.0
C686 C 0.86386 0.55428 0.60219 0.0
C687 C 0.83818 0.55031 0.5946 0.0
C688 C 0.83386 0.57587 0.59188 0.0
C689 C 0.81884 0.6949 0.57253 0.0
C690 C 0.76536 0.64304 0.60261 0.0
C691 C 0.78743 0.75333 0.59387 0.0
C692 C 0.79983 0.78702 0.59641 0.0
C693 C 0.83225 0.80732 0.59822 0.0
C694 C 0.84452 0.83975 0.59913 0.0
C695 C 0.82453 0.85247 0.59848 0.0
C696 C 0.7919 0.832 0.59726 0.0
C697 C 0.77968 0.79952 0.59614 0.0
C698 C 0.83106 0.70813 0.62042 0.0
C699 C 0.88161 0.74533 0.59463 0.0
O700 O 0.86889 0.66018 0.59854 0.0
O701 O 0.83014 0.63089 0.58535 0.0
O702 O 0.80512 0.68569 0.58331 0.0
O703 O 0.84316 0.69122 0.57267 0.0
O704 O 0.79156 0.64148 0.6028 0.0
O705 O 0.76522 0.66926 0.59948 0.0
O706 O 0.80397 0.74724 0.58553 0.0
O707 O 0.77856 0.73462 0.6041 0.0
O708 O 0.83045 0.69671 0.6093 0.0
O709 O 0.81784 0.72515 0.6193 0.0
O710 O 0.85704 0.7497 0.5938 0.0
O711 O 0.87843 0.71719 0.59593 0.0
H712 H 0.89661 0.63242 0.60875 0.0
H713 H 0.90375 0.58788 0.61366 0.0
H714 H 0.82232 0.52781 0.59017 0.0
H715 H 0.81489 0.57233 0.5854 0.0
H716 H 0.8482 0.79818 0.5986 0.0
H717 H 0.8697 0.85494 0.60022 0.0
H718 H 0.77599 0.84121 0.59667 0.0
H719 H 0.75461 0.78425 0.59473 0.0
C720 C 0.52026 0.94195 0.12025 0.0
C721 C 0.49267 0.93953 0.11499 0.0
C722 C 0.525 0.91627 0.12016 0.0
C723 C 0.50576 0.84541 0.10206 0.0
H724 H 0.54043 0.82617 0.13246 0.0
C725 C 0.539 0.74724 0.10181 0.0
C726 C 0.56636 0.75335 0.1087 0.0
C727 C 0.52697 0.76767 0.10276 0.0
C728 C 0.53109 0.83141 0.12382 0.0
H729 H 0.44814 0.90807 0.10566 0.0
H730 H 0.45678 0.86292 0.10527 0.0
H731 H 0.52378 0.86511 0.13414 0.0
H732 H 0.60244 0.7861 0.12196 0.0
H733 H 0.58237 0.82218 0.12314 0.0
H734 H 0.51417 0.81261 0.09158 0.0
C735 C 0.47459 0.88485 0.10953 0.0
C736 C 0.52134 0.85358 0.12483 0.0
C737 C 0.46957 0.91056 0.10982 0.0
C738 C 0.5816 0.78073 0.11636 0.0
C739 C 0.56971 0.80121 0.11724 0.0
C740 C 0.51582 0.82338 0.10101 0.0
C741 C 0.50247 0.88756 0.11465 0.0
C742 C 0.50909 0.86124 0.11391 0.0
C743 C 0.54204 0.79483 0.11057 0.0
C744 C 0.52919 0.81654 0.11182 0.0
H745 H 0.53846 0.96389 0.12436 0.0
H746 H 0.54683 0.91919 0.12406 0.0
H747 H 0.49668 0.85107 0.09345 0.0
H748 H 0.5268 0.72662 0.09568 0.0
H749 H 0.50553 0.76185 0.09754 0.0
C750 C 0.31489 0.8114 0.11066 0.0
C751 C 0.30347 0.83242 0.10913 0.0
C752 C 0.29408 0.77891 0.11132 0.0
C753 C 0.2121 0.72243 0.11999 0.0
H754 H 0.22368 0.66111 0.10066 0.0
C755 C 0.11028 0.59844 0.11183 0.0
C756 C 0.11501 0.57254 0.1128 0.0
C757 C 0.13557 0.62904 0.11206 0.0
C758 C 0.22042 0.67791 0.10629 0.0
H759 H 0.26122 0.8354 0.10641 0.0
H760 H 0.22511 0.77902 0.10772 0.0
H761 H 0.2637 0.71701 0.09938 0.0
H762 H 0.15053 0.55886 0.11464 0.0
H763 H 0.1952 0.61298 0.11507 0.0
H764 H 0.16893 0.68378 0.12685 0.0
C765 C 0.25012 0.78769 0.10864 0.0
C766 C 0.24326 0.7099 0.10552 0.0
C767 C 0.27084 0.82004 0.1079 0.0
C768 C 0.14601 0.57822 0.1139 0.0
C769 C 0.17158 0.60918 0.1141 0.0
C770 C 0.18948 0.69064 0.1208 0.0
C771 C 0.26143 0.76676 0.11056 0.0
C772 C 0.23889 0.73256 0.11211 0.0
C773 C 0.16652 0.63492 0.1133 0.0
C774 C 0.19289 0.66805 0.11369 0.0
H775 H 0.33984 0.82008 0.11179 0.0
H776 H 0.30349 0.76339 0.11286 0.0
H777 H 0.20843 0.7392 0.12546 0.0
H778 H 0.08689 0.59526 0.11086 0.0
H779 H 0.1308 0.64821 0.11111 0.0
C780 C 0.24522 0.51357 0.10156 0.0
C781 C 0.22421 0.4877 0.10924 0.0
C782 C 0.27772 0.5255 0.10238 0.0
C783 C 0.33833 0.52436 0.124 0.0
H784 H 0.39068 0.55377 0.09296 0.0
C785 C 0.45991 0.53483 0.12045 0.0
C786 C 0.48463 0.56194 0.11471 0.0
C787 C 0.42932 0.5298 0.12041 0.0
C788 C 0.37641 0.54606 0.10174 0.0
H789 H 0.22134 0.45415 0.1238 0.0
H790 H 0.27749 0.47383 0.12473 0.0
H791 H 0.33462 0.53614 0.0913 0.0
H792 H 0.49679 0.60524 0.10451 0.0
H793 H 0.44278 0.59607 0.10422 0.0
H794 H 0.37996 0.53308 0.1343 0.0
C795 C 0.269 0.4855 0.11831 0.0
C796 C 0.34426 0.53596 0.1008 0.0
C797 C 0.2366 0.47378 0.11758 0.0
C798 C 0.47822 0.58425 0.10909 0.0
C799 C 0.44735 0.57891 0.10884 0.0
C800 C 0.37031 0.53409 0.12489 0.0
C801 C 0.29007 0.51174 0.11083 0.0
C802 C 0.32468 0.52447 0.11189 0.0
C803 C 0.42262 0.55153 0.11446 0.0
C804 C 0.38957 0.54459 0.11374 0.0
H805 H 0.2366 0.52469 0.0949 0.0
H806 H 0.29316 0.54585 0.09654 0.0
H807 H 0.32425 0.51651 0.13282 0.0
H808 H 0.46414 0.51727 0.1249 0.0
H809 H 0.4107 0.50837 0.12471 0.0
C810 C 0.9441 0.50727 0.93819 0.0
C811 C 0.94334 0.48226 0.93122 0.0
C812 C 0.9175 0.51043 0.93897 0.0
C813 C 0.8473 0.49422 0.92113 0.0
H814 H 0.82399 0.51764 0.9537 0.0
C815 C 0.74914 0.52645 0.92305 0.0
C816 C 0.75465 0.55191 0.93108 0.0
C817 C 0.76864 0.51334 0.92377 0.0
C818 C 0.83032 0.5114 0.94449 0.0
H819 H 0.91384 0.44057 0.91978 0.0
H820 H 0.86706 0.44659 0.9209 0.0
H821 H 0.86408 0.50221 0.95374 0.0
H822 H 0.78479 0.58352 0.94619 0.0
H823 H 0.81938 0.56132 0.94724 0.0
H824 H 0.81476 0.50479 0.91175 0.0
C825 C 0.88843 0.46357 0.92581 0.0
C826 C 0.85314 0.50234 0.94455 0.0
C827 C 0.91509 0.46007 0.92522 0.0
C828 C 0.77981 0.56371 0.93997 0.0
C829 C 0.79953 0.55084 0.9406 0.0
C830 C 0.82469 0.5036 0.92105 0.0
C831 C 0.88949 0.4889 0.93268 0.0
C832 C 0.8623 0.49424 0.93284 0.0
C833 C 0.79434 0.52558 0.93245 0.0
C834 C 0.81634 0.51292 0.9327 0.0
H835 H 0.96541 0.52463 0.94303 0.0
H836 H 0.91915 0.53036 0.9442 0.0
H837 H 0.85416 0.48842 0.91194 0.0
H838 H 0.72961 0.51657 0.91624 0.0
H839 H 0.76351 0.49357 0.91752 0.0
C840 C 0.47505 0.22877 0.93314 0.0
C841 C 0.49569 0.21683 0.93213 0.0
C842 C 0.48637 0.26107 0.93241 0.0
C843 C 0.55701 0.33937 0.93585 0.0
H844 H 0.50875 0.36505 0.91432 0.0
C845 C 0.59205 0.47093 0.92728 0.0
C846 C 0.56685 0.47683 0.92809 0.0
C847 C 0.58637 0.4399 0.92717 0.0
C848 C 0.52244 0.35832 0.92044 0.0
H849 H 0.54472 0.22991 0.92986 0.0
H850 H 0.56448 0.28646 0.92878 0.0
H851 H 0.49296 0.30971 0.91578 0.0
H852 H 0.51591 0.45443 0.92956 0.0
H853 H 0.50634 0.4013 0.92947 0.0
H854 H 0.58614 0.38819 0.94069 0.0
C855 C 0.5395 0.27066 0.93015 0.0
C856 C 0.51333 0.32656 0.92129 0.0
C857 C 0.52814 0.23823 0.93081 0.0
C858 C 0.53603 0.45106 0.92883 0.0
C859 C 0.53042 0.42036 0.92869 0.0
C860 C 0.56608 0.37132 0.93505 0.0
C861 C 0.51865 0.28239 0.93071 0.0
C862 C 0.53007 0.31657 0.92921 0.0
C863 C 0.55539 0.41426 0.92777 0.0
C864 C 0.54844 0.38106 0.92755 0.0
H865 H 0.45003 0.21312 0.93445 0.0
H866 H 0.46974 0.26938 0.93317 0.0
H867 H 0.57039 0.3324 0.94204 0.0
H868 H 0.61608 0.4902 0.92674 0.0
H869 H 0.60614 0.43597 0.92643 0.0
C870 C 0.58571 0.13987 0.92682 0.0
C871 C 0.57962 0.11037 0.9314 0.0
C872 C 0.61633 0.16591 0.92736 0.0
C873 C 0.69268 0.19587 0.94422 0.0
H874 H 0.72994 0.24248 0.91233 0.0
C875 C 0.82711 0.2712 0.93785 0.0
C876 C 0.83951 0.2986 0.93021 0.0
C877 C 0.79457 0.25096 0.93868 0.0
C878 C 0.71986 0.23018 0.92141 0.0
H879 H 0.60065 0.08542 0.9406 0.0
H880 H 0.65338 0.13051 0.94166 0.0
H881 H 0.67404 0.20323 0.91279 0.0
H882 H 0.82749 0.32688 0.91784 0.0
H883 H 0.77073 0.29203 0.91951 0.0
H884 H 0.73825 0.22254 0.95288 0.0
C885 C 0.63475 0.13364 0.93759 0.0
C886 C 0.68776 0.20765 0.92165 0.0
C887 C 0.60449 0.1077 0.93687 0.0
C888 C 0.81863 0.30567 0.92365 0.0
C889 C 0.78607 0.28561 0.92458 0.0
C890 C 0.72464 0.21857 0.94403 0.0
C891 C 0.64115 0.16298 0.93275 0.0
C892 C 0.67401 0.18976 0.93297 0.0
C893 C 0.77356 0.2578 0.93201 0.0
C894 C 0.73888 0.23556 0.93254 0.0
H895 H 0.56704 0.14267 0.92257 0.0
H896 H 0.62061 0.18832 0.92359 0.0
H897 H 0.68262 0.18272 0.95315 0.0
H898 H 0.84263 0.26497 0.9429 0.0
H899 H 0.78596 0.22952 0.94429 0.0
C900 C 0.25015 0.11806 0.44516 0.0
C901 C 0.23119 0.08553 0.44308 0.0
C902 C 0.2368 0.13726 0.44595 0.0
C903 C 0.17066 0.14673 0.4366 0.0
H904 H 0.19639 0.20231 0.46664 0.0
C905 C 0.13429 0.24232 0.44415 0.0
C906 C 0.15984 0.27192 0.44749 0.0
C907 C 0.13753 0.21548 0.44444 0.0
C908 C 0.18896 0.18698 0.45818 0.0
H909 H 0.1832 0.04803 0.43971 0.0
H910 H 0.16009 0.08206 0.44067 0.0
H911 H 0.21332 0.16363 0.46478 0.0
H912 H 0.20847 0.29626 0.45408 0.0
H913 H 0.21403 0.25027 0.45446 0.0
H914 H 0.14752 0.17126 0.4297 0.0
C915 C 0.18529 0.09238 0.44182 0.0
C916 C 0.19866 0.16484 0.45714 0.0
C917 C 0.19861 0.07299 0.44121 0.0
C918 C 0.18826 0.27395 0.45139 0.0
C919 C 0.19141 0.24739 0.45174 0.0
C920 C 0.16117 0.16924 0.43758 0.0
C921 C 0.20422 0.12457 0.44448 0.0
C922 C 0.19041 0.14513 0.44617 0.0
C923 C 0.16623 0.21783 0.44824 0.0
C924 C 0.17111 0.19029 0.44819 0.0
H925 H 0.27538 0.12875 0.44631 0.0
H926 H 0.25202 0.16214 0.44776 0.0
H927 H 0.16393 0.1317 0.42806 0.0
H928 H 0.11209 0.23999 0.44109 0.0
H929 H 0.11768 0.19297 0.44172 0.0
C930 C 0.99071 0.14531 0.44516 0.0
C931 C 0.97971 0.16683 0.44468 0.0
C932 C 0.96956 0.11291 0.44615 0.0
C933 C 0.88888 0.05694 0.45703 0.0
H934 H 0.89445 0.99627 0.43463 0.0
C935 C 0.78282 0.93527 0.44859 0.0
C936 C 0.78654 0.90873 0.44792 0.0
C937 C 0.80883 0.96547 0.44908 0.0
C938 C 0.89288 0.01284 0.44112 0.0
H939 H 0.93755 0.17067 0.44432 0.0
H940 H 0.90102 0.11461 0.44628 0.0
H941 H 0.93558 0.05179 0.43367 0.0
H942 H 0.82098 0.89344 0.44715 0.0
H943 H 0.86688 0.94678 0.44804 0.0
H944 H 0.84624 0.01844 0.46441 0.0
C945 C 0.92601 0.12279 0.4461 0.0
C946 C 0.91639 0.04464 0.44055 0.0
C947 C 0.94703 0.15502 0.44501 0.0
C948 C 0.81724 0.91333 0.44771 0.0
C949 C 0.84351 0.94386 0.44815 0.0
C950 C 0.8656 0.02532 0.45765 0.0
C951 C 0.93698 0.10134 0.44679 0.0
C952 C 0.91415 0.06714 0.44826 0.0
C953 C 0.83952 0.97027 0.44894 0.0
C954 C 0.86677 1.00298 0.44944 0.0
H955 H 1.0157 0.1535 0.44505 0.0
H956 H 0.97874 0.09697 0.44672 0.0
H957 H 0.88686 0.07355 0.46333 0.0
H958 H 0.75967 0.9329 0.44872 0.0
H959 H 0.80479 0.9852 0.44938 0.0
C960 C 0.12661 0.86549 0.44774 0.0
C961 C 0.15255 0.89624 0.44777 0.0
C962 C 0.09598 0.86015 0.44782 0.0
C963 C 0.04704 0.89508 0.44005 0.0
H964 H 0.98604 0.82521 0.46103 0.0
C965 C 0.91381 0.85736 0.44438 0.0
C966 C 0.89258 0.82479 0.44364 0.0
C967 C 0.94632 0.86901 0.44499 0.0
C968 C 1.00273 0.84468 0.45506 0.0
H969 H 0.16634 0.94561 0.44776 0.0
H970 H 0.1122 0.93612 0.448 0.0
H971 H 0.04151 0.84121 0.46254 0.0
H972 H 0.88919 0.77916 0.44227 0.0
H973 H 0.94562 0.7994 0.44352 0.0
H974 H 1.00781 0.89825 0.43256 0.0
C975 C 0.11595 0.91621 0.44786 0.0
C976 C 0.03455 0.85389 0.45593 0.0
C977 C 0.14692 0.92164 0.4478 0.0
C978 C 0.90473 0.80429 0.44314 0.0
C979 C 0.93711 0.8159 0.44384 0.0
C980 C 1.01504 0.88591 0.43924 0.0
C981 C 0.09014 0.88532 0.44799 0.0
C982 C 0.05702 0.87863 0.44819 0.0
C983 C 0.95826 0.84833 0.44497 0.0
C984 C 0.99249 0.86009 0.4465 0.0
H985 H 0.12978 0.84522 0.44762 0.0
H986 H 0.07674 0.83608 0.4476 0.0
H987 H 0.06373 0.91414 0.43392 0.0
H988 H 0.90531 0.87384 0.44492 0.0
H989 H 0.96205 0.8941 0.4459 0.0
C990 C 0.41448 0.86341 0.26519 0.0
C991 C 0.42629 0.8961 0.26507 0.0
C992 C 0.43494 0.85132 0.26458 0.0
C993 C 0.51411 0.87301 0.25308 0.0
H994 H 0.50812 0.80742 0.27608 0.0
C995 C 0.61827 0.85438 0.26074 0.0
C996 C 0.61382 0.82384 0.26156 0.0
C997 C 0.59276 0.85932 0.26048 0.0
C998 C 0.50974 0.82534 0.26943 0.0
H999 H 0.46907 0.94157 0.26489 0.0
H1000 H 0.50453 0.92053 0.26364 0.0
H1001 H 0.46839 0.82369 0.27734 0.0
H1002 H 0.57859 0.77442 0.26286 0.0
H1003 H 0.53347 0.7832 0.26237 0.0
H1004 H 0.55538 0.87505 0.24521 0.0
C1005 C 0.47942 0.90425 0.26399 0.0
C1006 C 0.48709 0.83473 0.27019 0.0
C1007 C 0.45906 0.91631 0.26469 0.0
C1008 C 0.58287 0.79823 0.26217 0.0
C1009 C 0.55707 0.80326 0.26196 0.0
C1010 C 0.53652 0.86357 0.25227 0.0
C1011 C 0.46761 0.87164 0.26374 0.0
C1012 C 0.48958 0.85929 0.26225 0.0
C1013 C 0.56183 0.83394 0.26101 0.0
C1014 C 0.53519 0.84029 0.26069 0.0
H1015 H 0.38937 0.84712 0.26533 0.0
H1016 H 0.42516 0.82609 0.26435 0.0
H1017 H 0.51623 0.89144 0.2466 0.0
H1018 H 0.64164 0.87482 0.2603 0.0
H1019 H 0.59737 0.88328 0.26004 0.0
C1020 C 0.26191 0.80718 0.25933 0.0
C1021 C 0.23898 0.81292 0.26478 0.0
C1022 C 0.25803 0.77689 0.25976 0.0
C1023 C 0.21635 0.70153 0.27751 0.0
H1024 H 0.21875 0.66288 0.24484 0.0
C1025 C 0.15677 0.56715 0.27201 0.0
C1026 C 0.17001 0.5545 0.26351 0.0
C1027 C 0.16915 0.59966 0.27275 0.0
C1028 C 0.21855 0.67338 0.25412 0.0
H1029 H 0.19476 0.79176 0.27541 0.0
H1030 H 0.18839 0.73954 0.2763 0.0
H1031 H 0.2349 0.71857 0.24529 0.0
H1032 H 0.2073 0.56602 0.24947 0.0
H1033 H 0.22941 0.62275 0.25098 0.0
H1034 H 0.19997 0.65659 0.28639 0.0
C1035 C 0.20919 0.75819 0.27163 0.0
C1036 C 0.22781 0.70534 0.25435 0.0
C1037 C 0.21275 0.78812 0.27101 0.0
C1038 C 0.19632 0.57509 0.25598 0.0
C1039 C 0.20893 0.60762 0.25682 0.0
C1040 C 0.20743 0.66971 0.27732 0.0
C1041 C 0.23156 0.75211 0.26591 0.0
C1042 C 0.22609 0.71954 0.26599 0.0
C1043 C 0.19533 0.62038 0.26513 0.0
C1044 C 0.20767 0.65497 0.26556 0.0
H1045 H 0.28237 0.82585 0.25449 0.0
H1046 H 0.27568 0.77281 0.2553 0.0
H1047 H 0.21515 0.71199 0.28666 0.0
H1048 H 0.13627 0.55185 0.27782 0.0
H1049 H 0.15761 0.60845 0.27908 0.0
C1050 C 0.49417 0.59929 0.26732 0.0
C1051 C 0.50605 0.63175 0.26583 0.0
C1052 C 0.4619 0.57812 0.26648 0.0
C1053 C 0.38332 0.57001 0.26877 0.0
H1054 H 0.35888 0.49542 0.24793 0.0
C1055 C 0.25224 0.47276 0.25966 0.0
C1056 C 0.24637 0.44175 0.2608 0.0
C1057 C 0.28328 0.49819 0.25964 0.0
C1058 C 0.36526 0.51601 0.25386 0.0
H1059 H 0.49292 0.66733 0.26261 0.0
H1060 H 0.43638 0.63022 0.26135 0.0
H1061 H 0.41416 0.53529 0.24966 0.0
H1062 H 0.26877 0.41342 0.26297 0.0
H1063 H 0.32194 0.45714 0.26306 0.0
H1064 H 0.33422 0.55018 0.27318 0.0
C1065 C 0.45222 0.62129 0.26317 0.0
C1066 C 0.39698 0.53885 0.25485 0.0
C1067 C 0.48462 0.64254 0.26394 0.0
C1068 C 0.27215 0.43684 0.26197 0.0
C1069 C 0.30286 0.46202 0.26193 0.0
C1070 C 0.35142 0.54696 0.26783 0.0
C1071 C 0.44057 0.5888 0.26419 0.0
C1072 C 0.40649 0.56581 0.26253 0.0
C1073 C 0.30894 0.49301 0.26068 0.0
C1074 C 0.34213 0.51935 0.26059 0.0
H1075 H 0.50985 0.59016 0.26908 0.0
H1076 H 0.4536 0.55326 0.26759 0.0
H1077 H 0.38995 0.59056 0.27476 0.0
H1078 H 0.23295 0.47741 0.25878 0.0
H1079 H 0.28719 0.52182 0.25863 0.0
C1080 C 0.80459 0.57889 0.773 0.0
C1081 C 0.82512 0.60547 0.78039 0.0
C1082 C 0.81049 0.55387 0.77162 0.0
C1083 C 0.87806 0.541 0.77267 0.0
H1084 H 0.81692 0.45205 0.77458 0.0
C1085 C 0.91551 0.44892 0.77917 0.0
C1086 C 0.90057 0.42137 0.77161 0.0
C1087 C 0.90428 0.46995 0.77929 0.0
C1088 C 0.83415 0.47683 0.77385 0.0
H1089 H 0.86613 0.62557 0.79303 0.0
H1090 H 0.87597 0.58212 0.79082 0.0
H1091 H 0.79956 0.49073 0.77705 0.0
H1092 H 0.86191 0.3945 0.75819 0.0
H1093 H 0.84201 0.43124 0.75859 0.0
H1094 H 0.9127 0.52745 0.76968 0.0
C1095 C 0.85597 0.58082 0.78575 0.0
C1096 C 0.82422 0.49892 0.77527 0.0
C1097 C 0.85021 0.60566 0.78707 0.0
C1098 C 0.87385 0.41532 0.76423 0.0
C1099 C 0.86244 0.43634 0.76444 0.0
C1100 C 0.88793 0.51908 0.77129 0.0
C1101 C 0.83694 0.5552 0.77763 0.0
C1102 C 0.84625 0.53125 0.77501 0.0
C1103 C 0.87767 0.46396 0.77193 0.0
C1104 C 0.86625 0.48678 0.77215 0.0
H1105 H 0.7851 0.57816 0.76773 0.0
H1106 H 0.79533 0.53432 0.76535 0.0
H1107 H 0.89551 0.56575 0.77205 0.0
H1108 H 0.93559 0.45402 0.78525 0.0
H1109 H 0.91618 0.49075 0.78536 0.0
C1110 C 0.65666 0.47931 0.77654 0.0
C1111 C 0.64589 0.50023 0.77345 0.0
C1112 C 0.63592 0.44674 0.77653 0.0
C1113 C 0.55817 0.3863 0.76365 0.0
H1114 H 0.55862 0.33452 0.79223 0.0
C1115 C 0.45006 0.26893 0.77618 0.0
C1116 C 0.45331 0.24269 0.77903 0.0
C1117 C 0.47634 0.29874 0.77482 0.0
C1118 C 0.55855 0.34857 0.78407 0.0
H1119 H 0.6049 0.50313 0.76767 0.0
H1120 H 0.56883 0.44674 0.76787 0.0
H1121 H 0.59948 0.39006 0.79107 0.0
H1122 H 0.48716 0.22754 0.78283 0.0
H1123 H 0.53357 0.28034 0.78059 0.0
H1124 H 0.51685 0.34524 0.75684 0.0
C1125 C 0.59334 0.45535 0.7702 0.0
C1126 C 0.58192 0.38039 0.7834 0.0
C1127 C 0.61397 0.48778 0.77025 0.0
C1128 C 0.4838 0.24722 0.78063 0.0
C1129 C 0.51034 0.27741 0.77938 0.0
C1130 C 0.53489 0.35468 0.76433 0.0
C1131 C 0.60399 0.43437 0.77333 0.0
C1132 C 0.58149 0.39982 0.77336 0.0
C1133 C 0.5068 0.30342 0.77632 0.0
C1134 C 0.53428 0.33564 0.77473 0.0
H1135 H 0.68104 0.48811 0.77916 0.0
H1136 H 0.64493 0.43125 0.77893 0.0
H1137 H 0.55757 0.40032 0.75559 0.0
H1138 H 0.42709 0.26659 0.77487 0.0
H1139 H 0.47275 0.31832 0.7727 0.0
C1140 C 0.56886 0.13614 0.77478 0.0
C1141 C 0.55723 0.15687 0.77644 0.0
C1142 C 0.60118 0.14716 0.77513 0.0
C1143 C 0.67977 0.21784 0.77201 0.0
H1144 H 0.70562 0.16751 0.79198 0.0
C1145 C 0.81147 0.25246 0.78035 0.0
C1146 C 0.81761 0.22755 0.77902 0.0
C1147 C 0.78033 0.24659 0.7804 0.0
C1148 C 0.69884 0.18176 0.78629 0.0
H1149 H 0.57079 0.20572 0.77949 0.0
H1150 H 0.62735 0.22499 0.77997 0.0
H1151 H 0.65022 0.15189 0.79091 0.0
H1152 H 0.7956 0.17699 0.77634 0.0
H1153 H 0.74226 0.16709 0.77633 0.0
H1154 H 0.72863 0.24747 0.76725 0.0
C1155 C 0.61132 0.20019 0.77835 0.0
C1156 C 0.66703 0.17276 0.78566 0.0
C1157 C 0.57889 0.18912 0.77804 0.0
C1158 C 0.79201 0.19685 0.77756 0.0
C1159 C 0.7612 0.19106 0.77761 0.0
C1160 C 0.71176 0.22684 0.7726 0.0
C1161 C 0.62279 0.17923 0.77713 0.0
C1162 C 0.657 0.1903 0.77831 0.0
C1163 C 0.75485 0.2157 0.77918 0.0
C1164 C 0.72155 0.20849 0.77954 0.0
H1165 H 0.55295 0.11128 0.77325 0.0
H1166 H 0.60927 0.13049 0.77387 0.0
H1167 H 0.67276 0.23184 0.76626 0.0
H1168 H 0.83059 0.27638 0.78147 0.0
H1169 H 0.77619 0.2661 0.78164 0.0
C1170 C 0.12248 0.24221 0.60442 0.0
C1171 C 0.09098 0.22351 0.6005 0.0
C1172 C 0.14236 0.22955 0.60516 0.0
C1173 C 0.15383 0.16608 0.59236 0.0
H1174 H 0.21278 0.19007 0.62119 0.0
C1175 C 0.24855 0.12727 0.59664 0.0
C1176 C 0.2788 0.15217 0.59967 0.0
C1177 C 0.22224 0.13139 0.59756 0.0
C1178 C 0.1965 0.18315 0.61306 0.0
H1179 H 0.05576 0.17683 0.59415 0.0
H1180 H 0.09058 0.15469 0.59548 0.0
H1181 H 0.17349 0.20647 0.62116 0.0
H1182 H 0.30483 0.2007 0.60629 0.0
H1183 H 0.25969 0.20765 0.60781 0.0
H1184 H 0.17762 0.1435 0.58409 0.0
C1185 C 0.09983 0.17917 0.59798 0.0
C1186 C 0.17402 0.19262 0.61303 0.0
C1187 C 0.07983 0.19179 0.59734 0.0
C1188 C 0.28202 0.18092 0.60381 0.0
C1189 C 0.25598 0.1849 0.60482 0.0
C1190 C 0.17648 0.15665 0.59237 0.0
C1191 C 0.13132 0.19791 0.60193 0.0
C1192 C 0.15294 0.18491 0.60253 0.0
C1193 C 0.22575 0.16031 0.60172 0.0
C1194 C 0.19863 0.16584 0.60255 0.0
H1195 H 0.13174 0.26665 0.607 0.0
H1196 H 0.1666 0.24475 0.60809 0.0
H1197 H 0.13797 0.15982 0.5841 0.0
H1198 H 0.24524 0.10482 0.59343 0.0
H1199 H 0.19919 0.11196 0.59513 0.0
C1200 C 0.86281 0.90609 0.58996 0.0
C1201 C 0.83788 0.88705 0.59843 0.0
C1202 C 0.87469 0.93853 0.58945 0.0
C1203 C 0.8819 1.00569 0.60788 0.0
H1204 H 0.88558 0.04245 0.57385 0.0
C1205 C 0.92961 0.13948 0.59944 0.0
C1206 C 0.90725 0.14517 0.59337 0.0
C1207 C 0.92511 0.10896 0.5998 0.0
C1208 C 0.88495 0.03254 0.58339 0.0
H1209 H 0.80636 0.88708 0.61324 0.0
H1210 H 0.82758 0.94406 0.61253 0.0
H1211 H 0.86985 0.98681 0.57547 0.0
H1212 H 0.86356 0.1239 0.5824 0.0
H1213 H 0.85632 0.07109 0.58269 0.0
H1214 H 0.89675 0.05147 0.61578 0.0
C1215 C 0.83777 0.93376 0.60624 0.0
C1216 C 0.87605 1.00078 0.58432 0.0
C1217 C 0.82549 0.9012 0.60658 0.0
C1218 C 0.88111 0.12018 0.58721 0.0
C1219 C 0.87701 0.08998 0.58731 0.0
C1220 C 0.89137 0.03764 0.60692 0.0
C1221 C 0.86226 0.95269 0.59757 0.0
C1222 C 0.8739 0.9869 0.59659 0.0
C1223 C 0.89864 0.08393 0.59379 0.0
C1224 C 0.89242 0.0512 0.59469 0.0
H1225 H 0.87264 0.89577 0.5835 0.0
H1226 H 0.89362 0.95258 0.5827 0.0
H1227 H 0.8806 0.99559 0.61744 0.0
H1228 H 0.94987 0.15831 0.60432 0.0
H1229 H 0.94215 0.10485 0.60484 0.0
C1230 C 0.16323 0.92934 0.59853 0.0
C1231 C 0.17478 0.96183 0.59754 0.0
C1232 C 0.13093 0.90801 0.59792 0.0
C1233 C 0.0523 0.8999 0.60154 0.0
H1234 H 0.02631 0.82488 0.58079 0.0
C1235 C 0.92056 0.80372 0.59309 0.0
C1236 C 0.91423 0.77257 0.59431 0.0
C1237 C 0.95174 0.82884 0.59293 0.0
C1238 C 0.03314 0.8456 0.58669 0.0
H1239 H 0.16114 0.99731 0.59533 0.0
H1240 H 0.10465 0.95996 0.59439 0.0
H1241 H 0.08175 0.86458 0.58199 0.0
H1242 H 0.93604 0.74369 0.59646 0.0
H1243 H 0.98953 0.78693 0.59626 0.0
H1244 H 1.00345 0.88046 0.60637 0.0
C1245 C 0.12068 0.95107 0.59571 0.0
C1246 C 0.06497 0.86835 0.5874 0.0
C1247 C 0.15308 0.97247 0.59628 0.0
C1248 C 0.93975 0.76723 0.5954 0.0
C1249 C 0.97064 0.79212 0.59521 0.0
C1250 C 0.0203 0.877 0.60086 0.0
C1251 C 0.10927 0.91856 0.59633 0.0
C1252 C 0.07505 0.89549 0.59503 0.0
C1253 C 0.97713 0.82323 0.5939 0.0
C1254 C 1.01046 0.84927 0.59363 0.0
H1255 H 0.17917 0.92032 0.59977 0.0
H1256 H 0.12291 0.88315 0.59873 0.0
H1257 H 0.05931 0.92053 0.60753 0.0
H1258 H 0.90153 0.80872 0.59222 0.0
H1259 H 0.95599 0.85257 0.59186 0.0
C1260 C 0.4935 0.98539 0.06944 0.0
C1261 C 0.50016 0.01252 0.07647 0.0
C1262 C 0.50268 0.98735 0.05637 0.0
C1263 C 0.54727 0.04352 0.02902 0.0
H1264 H 0.4808 0.97876 1.0079 0.0
C1265 C 0.52159 0.06166 0.97584 0.0
C1266 C 0.50984 0.03664 0.9669 0.0
C1267 C 0.52836 0.05769 0.98873 0.0
C1268 C 0.49998 0.99669 1.01361 0.0
H1269 H 0.52255 0.06312 0.07558 0.0
H1270 H 0.53805 0.0668 0.05259 0.0
H1271 H 0.47807 0.97425 0.03156 0.0
H1272 H 0.4972 0.98809 0.96422 0.0
H1273 H 0.50865 0.98074 0.98703 0.0
H1274 H 0.56813 0.06673 1.0109 0.0
C1275 C 0.52654 0.04391 0.05722 0.0
C1276 C 0.49847 0.99415 0.02727 0.0
C1277 C 0.51781 0.04193 0.07044 0.0
C1278 C 0.50658 1.00784 0.9709 0.0
C1279 C 0.51284 1.00362 0.98397 0.0
C1280 C 0.54863 0.04618 1.01533 0.0
C1281 C 0.51795 0.01648 0.04983 0.0
C1282 C 0.52177 0.01781 0.03523 0.0
C1283 C 0.52302 0.02834 0.99312 0.0
C1284 C 0.52463 0.02311 1.00745 0.0
H1285 H 0.47963 0.9624 0.07388 0.0
H1286 H 0.49642 0.96576 0.05122 0.0
H1287 H 0.56597 0.06196 0.03473 0.0
H1288 H 0.52416 0.08409 0.97301 0.0
H1289 H 0.53581 0.07713 0.99547 0.0
C1290 C 0.99661 0.46158 0.97714 0.0
C1291 C 1.01474 0.48189 0.967 0.0
C1292 C 0.99843 0.47257 0.98983 0.0
C1293 C 0.0521 0.53509 1.01214 0.0
H1294 H 0.98102 0.49012 0.03552 0.0
C1295 C 0.06803 0.50955 0.06491 0.0
C1296 C 0.04539 0.50341 0.07459 0.0
C1297 C 0.06421 0.51725 0.05219 0.0
C1298 C 1.00107 0.50359 0.02921 0.0
H1299 H 0.0485 0.53014 0.96216 0.0
H1300 H 0.05184 0.54983 0.98465 0.0
H1301 H 0.97292 0.48487 1.012 0.0
H1302 H 1.00165 0.50227 0.07875 0.0
H1303 H 0.99474 0.51607 0.05627 0.0
H1304 H 0.08025 0.55387 0.02936 0.0
C1305 C 0.03621 0.52512 0.98267 0.0
C1306 C 0.9965 0.50019 1.01564 0.0
C1307 C 0.03426 0.51397 0.96979 0.0
C1308 C 0.0195 0.50697 0.07147 0.0
C1309 C 1.0155 0.5146 0.05857 0.0
C1310 C 0.05661 0.53885 0.02572 0.0
C1311 C 1.01844 0.5044 0.9929 0.0
C1312 C 0.0222 0.51448 1.00694 0.0
C1313 C 0.03749 0.51906 0.04866 0.0
C1314 C 0.03145 0.52177 0.03446 0.0
H1315 H 0.98128 0.43671 0.97535 0.0
H1316 H 0.98494 0.45561 0.99736 0.0
H1317 H 0.07247 0.5467 1.00582 0.0
H1318 H 0.08834 0.5071 0.06703 0.0
H1319 H 0.08145 0.51986 0.04496 0.0
C1320 C 0.54302 0.54953 0.97027 0.0
C1321 C 0.56962 0.54788 0.96646 0.0
C1322 C 0.53242 0.54311 0.98332 0.0
C1323 C 0.54035 0.50848 1.01475 0.0
H1324 H 0.53401 0.57619 0.03099 0.0
C1325 C 0.56386 0.53847 0.06999 0.0
C1326 C 0.55063 0.55483 0.07596 0.0
C1327 C 0.55776 0.52986 0.05674 0.0
C1328 C 0.53489 0.55654 0.02669 0.0
H1329 H 0.60466 0.53637 0.97293 0.0
H1330 H 0.58592 0.52453 0.99535 0.0
H1331 H 0.53708 0.57434 1.00734 0.0
H1332 H 0.51913 0.57311 0.07321 0.0
H1333 H 0.50682 0.55643 0.05049 0.0
H1334 H 0.53885 0.49101 0.03413 0.0
C1335 C 0.57319 0.53083 0.98847 0.0
C1336 C 0.53668 0.55555 1.01303 0.0
C1337 C 0.58405 0.53777 0.97561 0.0
C1338 C 0.52936 0.56021 0.06883 0.0
C1339 C 0.52278 0.55113 0.05572 0.0
C1340 C 0.53828 0.50929 0.02843 0.0
C1341 C 0.54787 0.53433 0.99264 0.0
C1342 C 0.54028 0.532 1.0069 0.0
C1343 C 0.53812 0.53726 0.04926 0.0
C1344 C 0.53629 0.53379 0.03464 0.0
H1345 H 0.53168 0.55754 0.96343 0.0
H1346 H 0.51274 0.54589 0.98622 0.0
H1347 H 0.54279 0.4898 1.01033 0.0
H1348 H 0.58096 0.53477 0.07521 0.0
H1349 H 0.57026 0.51945 0.05218 0.0
C1350 C 0.17824 0.389 0.39962 0.0
C1351 C 0.17507 0.36511 0.40808 0.0
C1352 C 0.18676 0.38947 0.38654 0.0
C1353 C 0.17626 0.33715 0.35992 0.0
H1354 H 0.23453 0.41401 0.3419 0.0
C1355 C 0.17653 0.34818 0.30299 0.0
C1356 C 0.17551 0.37505 0.29907 0.0
C1357 C 0.1843 0.34531 0.31602 0.0
C1358 C 0.21818 0.39226 0.34675 0.0
H1359 H 0.17864 0.32309 0.40963 0.0
H1360 H 0.19276 0.32335 0.38647 0.0
H1361 H 0.2338 0.41259 0.36576 0.0
H1362 H 0.18332 0.42046 0.30536 0.0
H1363 H 0.19691 0.41576 0.32763 0.0
H1364 H 0.15907 0.31746 0.34091 0.0
C1365 C 0.18925 0.34206 0.39009 0.0
C1366 C 0.21789 0.39146 0.36043 0.0
C1367 C 0.18148 0.34208 0.40333 0.0
C1368 C 0.18395 0.39948 0.30809 0.0
C1369 C 0.192 0.39684 0.3209 0.0
C1370 C 0.17629 0.33804 0.34618 0.0
C1371 C 0.19151 0.36556 0.38152 0.0
C1372 C 0.19618 0.36427 0.36718 0.0
C1373 C 0.19167 0.36952 0.32519 0.0
C1374 C 0.19639 0.36604 0.33943 0.0
H1375 H 0.17303 0.40677 0.40303 0.0
H1376 H 0.18797 0.40768 0.38017 0.0
H1377 H 0.15915 0.31588 0.36486 0.0
H1378 H 0.16985 0.32889 0.29623 0.0
H1379 H 0.1839 0.32396 0.31898 0.0
C1380 C 0.7388 0.85128 0.39998 0.0
C1381 C 0.71403 0.83999 0.40905 0.0
C1382 C 0.73452 0.85773 0.38708 0.0
C1383 C 0.67286 0.82915 0.36249 0.0
H1384 H 0.73754 0.8948 0.34102 0.0
C1385 C 0.65969 0.82209 0.30671 0.0
C1386 C 0.68665 0.82899 0.29946 0.0
C1387 C 0.66207 0.83125 0.3198 0.0
C1388 C 0.71927 0.87618 0.34682 0.0
H1389 H 0.66558 0.82777 0.41193 0.0
H1390 H 0.65767 0.83862 0.38911 0.0
H1391 H 0.74307 0.89723 0.36482 0.0
H1392 H 0.73737 0.85177 0.29999 0.0
H1393 H 0.7418 0.86716 0.32302 0.0
H1394 H 0.64984 0.80702 0.34466 0.0
C1395 C 0.68061 0.84273 0.39208 0.0
C1396 C 0.72236 0.8777 0.3605 0.0
C1397 C 0.68515 0.83681 0.40516 0.0
C1398 C 0.71629 0.84681 0.30531 0.0
C1399 C 0.71871 0.85549 0.31855 0.0
C1400 C 0.6699 0.82746 0.34884 0.0
C1401 C 0.70508 0.8525 0.3828 0.0
C1402 C 0.69948 0.85385 0.3685 0.0
C1403 C 0.69148 0.84671 0.32614 0.0
C1404 C 0.69332 0.85064 0.34075 0.0
H1405 H 0.76127 0.85377 0.40272 0.0
H1406 H 0.75377 0.86486 0.38024 0.0
H1407 H 0.65506 0.81008 0.36829 0.0
H1408 H 0.63653 0.80812 0.30241 0.0
H1409 H 0.6406 0.82487 0.3251 0.0
C1410 C 0.20866 0.88397 0.30471 0.0
C1411 C 0.23508 0.88216 0.30077 0.0
C1412 C 0.19838 0.87767 0.31779 0.0
C1413 C 0.20713 0.84372 0.34926 0.0
H1414 H 0.20294 0.91286 0.36528 0.0
C1415 C 0.23308 0.87526 0.40431 0.0
C1416 C 0.22064 0.89234 0.41028 0.0
C1417 C 0.22647 0.86637 0.3911 0.0
C1418 C 0.20321 0.89282 0.36105 0.0
H1419 H 0.27006 0.87036 0.307 0.0
H1420 H 0.2518 0.85861 0.32951 0.0
H1421 H 0.20476 0.90996 0.34163 0.0
H1422 H 0.18996 0.91162 0.4076 0.0
H1423 H 0.17671 0.89445 0.38497 0.0
H1424 H 0.20623 0.82688 0.36871 0.0
C1425 C 0.23899 0.86498 0.3227 0.0
C1426 C 0.20428 0.89123 0.3474 0.0
C1427 C 0.24955 0.87184 0.30979 0.0
C1428 C 0.19965 0.89824 0.40321 0.0
C1429 C 0.19252 0.88884 0.39015 0.0
C1430 C 0.20575 0.84512 0.36295 0.0
C1431 C 0.21399 0.86885 0.32702 0.0
C1432 C 0.20709 0.86714 0.34133 0.0
C1433 C 0.20704 0.87416 0.38368 0.0
C1434 C 0.20454 0.87014 0.36908 0.0
H1435 H 0.19734 0.8922 0.29795 0.0
H1436 H 0.17894 0.88072 0.32081 0.0
H1437 H 0.20901 0.82467 0.34489 0.0
H1438 H 0.24991 0.87109 0.4095 0.0
H1439 H 0.23835 0.85534 0.38653 0.0
C1440 C 0.84668 0.67365 0.73731 0.0
C1441 C 0.84201 0.69797 0.74188 0.0
C1442 C 0.85444 0.67287 0.72413 0.0
C1443 C 0.88632 0.72106 0.69436 0.0
H1444 H 0.82416 0.6487 0.67495 0.0
C1445 C 0.85647 0.7309 0.64151 0.0
C1446 C 0.84509 0.70547 0.63282 0.0
C1447 C 0.86411 0.72802 0.65437 0.0
C1448 C 0.8423 0.66875 0.68018 0.0
H1449 H 0.84302 0.74104 0.73657 0.0
H1450 H 0.85806 0.7406 0.71381 0.0
H1451 H 0.82352 0.64769 0.69889 0.0
H1452 H 0.83394 0.65723 0.63056 0.0
H1453 H 0.84747 0.65193 0.65334 0.0
H1454 H 0.90482 0.7425 0.6758 0.0
C1455 C 0.85547 0.72198 0.72028 0.0
C1456 C 0.84184 0.66819 0.69393 0.0
C1457 C 0.84693 0.7223 0.73331 0.0
C1458 C 0.84301 0.6773 0.63705 0.0
C1459 C 0.85042 0.67424 0.65012 0.0
C1460 C 0.88709 0.72147 0.68067 0.0
C1461 C 0.85845 0.69684 0.71544 0.0
C1462 C 0.86306 0.69483 0.70114 0.0
C1463 C 0.86043 0.69945 0.65902 0.0
C1464 C 0.86418 0.6959 0.67337 0.0
H1465 H 0.84242 0.6543 0.74369 0.0
H1466 H 0.85655 0.65321 0.72065 0.0
H1467 H 0.90322 0.74178 0.69966 0.0
H1468 H 0.85819 0.75287 0.63852 0.0
H1469 H 0.87114 0.74783 0.66086 0.0
C1470 C 0.33312 0.13001 0.64554 0.0
C1471 C 0.35071 0.15044 0.63533 0.0
C1472 C 0.33501 0.14096 0.65825 0.0
C1473 C 0.38771 0.20393 0.68059 0.0
H1474 H 0.31632 0.15845 0.70378 0.0
C1475 C 0.40279 0.17952 0.73373 0.0
C1476 C 0.37976 0.17319 0.74325 0.0
C1477 C 0.39926 0.18703 0.72093 0.0
C1478 C 0.33645 0.17206 0.69752 0.0
H1479 H 0.38377 0.19886 0.63044 0.0
H1480 H 0.38724 0.21847 0.65297 0.0
H1481 H 0.30872 0.15283 0.68025 0.0
H1482 H 0.33562 0.17152 0.74704 0.0
H1483 H 0.32922 0.18493 0.72442 0.0
H1484 H 0.41544 0.22317 0.69789 0.0
C1485 C 0.37194 0.1937 0.65102 0.0
C1486 C 0.33217 0.16845 0.68394 0.0
C1487 C 0.36992 0.18258 0.63811 0.0
C1488 C 0.35379 0.17642 0.73989 0.0
C1489 C 0.35007 0.1838 0.7269 0.0
C1490 C 0.39193 0.20786 0.69418 0.0
C1491 C 0.35454 0.17287 0.66128 0.0
C1492 C 0.35799 0.18299 0.67531 0.0
C1493 C 0.37243 0.18837 0.71715 0.0
C1494 C 0.36665 0.19067 0.70287 0.0
H1495 H 0.31806 0.10507 0.6438 0.0
H1496 H 0.32187 0.12392 0.66581 0.0
H1497 H 0.40815 0.21573 0.67432 0.0
H1498 H 0.42315 0.17731 0.73604 0.0
H1499 H 0.41681 0.18979 0.71382 0.0
C1500 C 0.87472 0.2141 0.63645 0.0
C1501 C 0.9007 0.21145 0.63255 0.0
C1502 C 0.8642 0.20784 0.64951 0.0
C1503 C 0.87211 0.17339 0.68108 0.0
H1504 H 0.86827 0.24288 0.69692 0.0
C1505 C 0.8983 0.20597 0.73607 0.0
C1506 C 0.88558 0.22288 0.74197 0.0
C1507 C 0.8917 0.19683 0.72289 0.0
C1508 C 0.86847 0.22277 0.69274 0.0
H1509 H 0.9346 0.19823 0.63883 0.0
H1510 H 0.91599 0.18665 0.66128 0.0
H1511 H 0.87022 0.2398 0.67328 0.0
H1512 H 0.85445 0.2416 0.73919 0.0
H1513 H 0.84135 0.22411 0.71659 0.0
H1514 H 0.87114 0.15675 0.70058 0.0
C1515 C 0.90364 0.19357 0.65447 0.0
C1516 C 0.8696 0.22105 0.67909 0.0
C1517 C 0.9144 0.20031 0.64158 0.0
C1518 C 0.86434 0.22834 0.73486 0.0
C1519 C 0.85729 0.21875 0.72182 0.0
C1520 C 0.87075 0.17497 0.69476 0.0
C1521 C 0.87917 0.19831 0.65876 0.0
C1522 C 0.87225 0.1968 0.67308 0.0
C1523 C 0.87207 0.20426 0.71541 0.0
C1524 C 0.86965 0.2001 0.70082 0.0
H1525 H 0.86403 0.22303 0.6297 0.0
H1526 H 0.84515 0.21155 0.65248 0.0
H1527 H 0.87383 0.15419 0.67678 0.0
H1528 H 0.91533 0.20216 0.74128 0.0
H1529 H 0.90377 0.18594 0.71835 0.0
C1530 C 0.29613 0.94347 0.22928 0.0
C1531 C 0.26994 0.91288 0.22924 0.0
C1532 C 0.31841 0.95375 0.21919 0.0
C1533 C 0.33003 0.93984 0.18469 0.0
H1534 H 0.4187 0.98608 0.19366 0.0
C1535 C 0.45947 0.99109 0.15781 0.0
C1536 C 0.45534 1.00597 0.14685 0.0
C1537 C 0.43683 0.97898 0.16782 0.0
C1538 C 0.39407 0.97307 0.19097 0.0
H1539 H 0.24599 0.86951 0.21825 0.0
H1540 H 0.28468 0.88769 0.20039 0.0
H1541 H 0.37915 0.96608 0.21102 0.0
H1542 H 0.42461 0.02062 0.13803 0.0
H1543 H 0.3849 0.99903 0.15532 0.0
H1544 H 0.345 0.9471 0.16462 0.0
C1545 C 0.28814 0.90359 0.20837 0.0
C1546 C 0.37135 0.96181 0.20093 0.0
C1547 C 0.266 0.89314 0.2186 0.0
C1548 C 0.42827 1.00883 0.14623 0.0
C1549 C 0.40545 0.99637 0.15613 0.0
C1550 C 0.35277 0.95147 0.17471 0.0
C1551 C 0.31486 0.93395 0.20861 0.0
C1552 C 0.339 0.94512 0.19794 0.0
C1553 C 0.40938 0.98126 0.16708 0.0
C1554 C 0.38512 0.96831 0.17771 0.0
H1555 H 0.29961 0.95947 0.23723 0.0
H1556 H 0.33834 0.97742 0.21961 0.0
H1557 H 0.30538 0.92726 0.18201 0.0
H1558 H 0.48013 0.98862 0.15861 0.0
H1559 H 0.44059 0.96738 0.17606 0.0
C1560 C 0.04622 0.43854 0.14541 0.0
C1561 C 0.04957 0.46866 0.14577 0.0
C1562 C 0.059 0.42852 0.15529 0.0
C1563 C 0.08479 0.44207 0.1898 0.0
H1564 H 0.1275 0.39642 0.18052 0.0
C1565 C 0.11206 0.37163 0.22785 0.0
C1566 C 0.14199 0.3744 0.22756 0.0
C1567 C 0.10238 0.38444 0.21787 0.0
C1568 C 0.11584 0.40931 0.18329 0.0
H1569 H 0.06811 0.51152 0.15707 0.0
H1570 H 0.09004 0.49384 0.17452 0.0
H1571 H 0.10789 0.41675 0.16328 0.0
H1572 H 0.18475 0.39172 0.21624 0.0
H1573 H 0.16757 0.41364 0.19855 0.0
H1574 H 0.09248 0.43438 0.2098 0.0
C1575 C 0.07777 0.47806 0.16648 0.0
C1576 C 0.10433 0.42073 0.1734 0.0
C1577 C 0.06526 0.48824 0.15648 0.0
C1578 C 0.16162 0.38934 0.21677 0.0
C1579 C 0.15174 0.40186 0.20665 0.0
C1580 C 0.09598 0.43033 0.19968 0.0
C1581 C 0.07504 0.44814 0.16596 0.0
C1582 C 0.08845 0.4371 0.17651 0.0
C1583 C 0.1221 0.39989 0.20715 0.0
C1584 C 0.11147 0.41359 0.19657 0.0
H1585 H 0.03386 0.42269 0.13739 0.0
H1586 H 0.05593 0.40516 0.15466 0.0
H1587 H 0.07256 0.45439 0.19258 0.0
H1588 H 0.09616 0.35985 0.23593 0.0
H1589 H 0.07921 0.38194 0.21849 0.0
C1590 C 0.66521 0.78988 0.2178 0.0
C1591 C 0.68002 0.78571 0.22878 0.0
C1592 C 0.65367 0.76757 0.20767 0.0
C1593 C 0.64828 0.7255 0.18435 0.0
H1594 H 0.60505 0.63686 0.19319 0.0
C1595 C 0.61904 0.62816 0.14563 0.0
C1596 C 0.58922 0.60092 0.14626 0.0
C1597 C 0.62936 0.65076 0.1556 0.0
C1598 C 0.61689 0.6615 0.19053 0.0
H1599 H 0.69512 0.75529 0.23752 0.0
H1600 H 0.67471 0.71628 0.22001 0.0
H1601 H 0.62408 0.67614 0.21061 0.0
H1602 H 0.54718 0.57568 0.15804 0.0
H1603 H 0.5653 0.61492 0.17556 0.0
H1604 H 0.64113 0.71084 0.16427 0.0
C1605 C 0.6716 0.73654 0.21927 0.0
C1606 C 0.62809 0.68407 0.20053 0.0
C1607 C 0.6834 0.75897 0.2293 0.0
C1608 C 0.57023 0.59647 0.15725 0.0
C1609 C 0.58068 0.61893 0.16731 0.0
C1610 C 0.63736 0.70293 0.17434 0.0
C1611 C 0.65651 0.74046 0.2083 0.0
C1612 C 0.64402 0.71641 0.1976 0.0
C1613 C 0.61034 0.6465 0.16659 0.0
C1614 C 0.62155 0.67059 0.17728 0.0
H1615 H 0.66235 0.8103 0.21709 0.0
H1616 H 0.64205 0.77132 0.19943 0.0
H1617 H 0.66061 0.75015 0.1817 0.0
H1618 H 0.63445 0.63206 0.13739 0.0
H1619 H 0.65251 0.67138 0.15479 0.0
C1620 C 0.0202 0.4303 0.89434 0.0
C1621 C 1.01428 0.45547 0.8948 0.0
C1622 C 1.0081 0.40818 0.88422 0.0
C1623 C 0.97942 0.39566 0.85019 0.0
H1624 H 0.94074 0.30729 0.85916 0.0
C1625 C 0.95213 0.29842 0.81159 0.0
C1626 C 0.92294 0.27046 0.81245 0.0
C1627 C 0.96204 0.32125 0.82146 0.0
C1628 C 0.95128 0.33183 0.85647 0.0
H1629 H 0.99219 0.47795 0.88459 0.0
H1630 H 0.97156 0.43959 0.86661 0.0
H1631 H 0.96018 0.34682 0.8765 0.0
H1632 H 0.88165 0.24421 0.82455 0.0
H1633 H 0.89918 0.2838 0.84194 0.0
H1634 H 0.97083 0.38065 0.83014 0.0
C1635 C 0.98522 0.43676 0.87426 0.0
C1636 C 0.96268 0.35454 0.86642 0.0
C1637 C 0.997 0.45873 0.88455 0.0
C1638 C 0.9042 0.26555 0.82357 0.0
C1639 C 0.9143 0.28823 0.83354 0.0
C1640 C 0.96839 0.37295 0.84022 0.0
C1641 C 0.99026 0.41093 0.87407 0.0
C1642 C 0.97706 0.38679 0.86342 0.0
C1643 C 0.94329 0.3165 0.83259 0.0
C1644 C 0.95427 0.34071 0.84322 0.0
H1645 H 0.03382 0.42735 0.90198 0.0
H1646 H 1.01295 0.38898 0.88429 0.0
H1647 H 0.99047 0.42025 0.84752 0.0
H1648 H 0.96738 0.30271 0.80326 0.0
H1649 H 0.9847 0.34245 0.82047 0.0
C1650 C 0.63092 0.6109 0.8952 0.0
C1651 C 0.6036 0.58111 0.89491 0.0
C1652 C 0.65306 0.62073 0.88507 0.0
C1653 C 0.66322 0.60796 0.85024 0.0
H1654 H 0.7519 0.6496 0.85914 0.0
C1655 C 0.76242 0.67548 0.81197 0.0
C1656 C 0.78874 0.67135 0.81244 0.0
C1657 C 0.73949 0.66324 0.82184 0.0
C1658 C 0.72725 0.63786 0.85646 0.0
H1659 H 0.5775 0.53877 0.88343 0.0
H1660 H 0.61597 0.55619 0.86551 0.0
H1661 H 0.71244 0.63021 0.87653 0.0
H1662 H 0.81194 0.65165 0.82382 0.0
H1663 H 0.77221 0.6307 0.84118 0.0
H1664 H 0.67808 0.61582 0.83016 0.0
C1665 C 0.62042 0.5718 0.87371 0.0
C1666 C 0.7046 0.62697 0.86645 0.0
C1667 C 0.59839 0.56178 0.88397 0.0
C1668 C 0.79191 0.65519 0.82316 0.0
C1669 C 0.76916 0.64325 0.83312 0.0
C1670 C 0.6859 0.61919 0.84025 0.0
C1671 C 0.64825 0.6013 0.8742 0.0
C1672 C 0.67226 0.61198 0.86349 0.0
C1673 C 0.74253 0.64697 0.83258 0.0
C1674 C 0.71826 0.63438 0.84322 0.0
H1675 H 0.63542 0.62659 0.90339 0.0
H1676 H 0.67388 0.64378 0.8857 0.0
H1677 H 0.63857 0.5967 0.84759 0.0
H1678 H 0.75956 0.68832 0.80398 0.0
H1679 H 0.71962 0.66703 0.82118 0.0
C1680 C 0.40295 0.16127 0.82532 0.0
C1681 C 0.3868 0.14175 0.81466 0.0
C1682 C 0.41513 0.15069 0.83532 0.0
C1683 C 0.44108 0.09305 0.84206 0.0
H1684 H 0.42808 0.10472 0.87856 0.0
C1685 C 0.44848 0.04137 0.89595 0.0
C1686 C 0.4789 0.04531 0.89579 0.0
C1687 C 0.43863 0.05443 0.88612 0.0
C1688 C 0.43192 0.10126 0.86841 0.0
H1689 H 0.36986 0.09544 0.80639 0.0
H1690 H 0.39162 0.07737 0.82357 0.0
H1691 H 0.40841 0.1254 0.86147 0.0
H1692 H 0.52237 0.06497 0.88481 0.0
H1693 H 0.50486 0.08715 0.86736 0.0
H1694 H 0.46457 0.06888 0.84901 0.0
C1695 C 0.3952 0.10093 0.82419 0.0
C1696 C 0.42086 0.11335 0.85861 0.0
C1697 C 0.38263 0.11129 0.81435 0.0
C1698 C 0.49887 0.06169 0.88526 0.0
C1699 C 0.48881 0.07436 0.87527 0.0
C1700 C 0.45258 0.0814 0.85187 0.0
C1701 C 0.4117 0.12047 0.83481 0.0
C1702 C 0.42494 0.10908 0.84529 0.0
C1703 C 0.45865 0.0712 0.87565 0.0
C1704 C 0.44783 0.085 0.86518 0.0
H1705 H 0.4064 0.18478 0.82589 0.0
H1706 H 0.42773 0.16638 0.84335 0.0
H1707 H 0.44489 0.08955 0.83191 0.0
H1708 H 0.43229 0.02843 0.90381 0.0
H1709 H 0.41509 0.05105 0.88663 0.0
C1710 C 0.93762 0.22735 0.55121 0.0
C1711 C 0.94037 0.2473 0.56159 0.0
C1712 C 0.96017 0.23801 0.54116 0.0
C1713 C 0.02232 0.31134 0.52541 0.0
H1714 H 0.05124 0.25713 0.51121 0.0
C1715 C 0.10097 0.3455 0.47916 0.0
C1716 C 0.12555 0.33868 0.47894 0.0
C1717 C 0.07849 0.334 0.48919 0.0
C1718 C 0.0436 0.27268 0.51511 0.0
H1719 H 0.96865 0.29422 0.56945 0.0
H1720 H 1.00792 0.31278 0.55203 0.0
H1721 H 1.0121 0.23786 0.52873 0.0
H1722 H 0.14592 0.31453 0.48916 0.0
H1723 H 0.10675 0.2945 0.50678 0.0
H1724 H 0.05401 0.34629 0.51195 0.0
C1725 C 0.98835 0.28893 0.55156 0.0
C1726 C 0.02084 0.26148 0.52508 0.0
C1727 C 0.96592 0.27823 0.56161 0.0
C1728 C 0.12722 0.32015 0.48905 0.0
C1729 C 0.10461 0.30849 0.49909 0.0
C1730 C 0.04491 0.32246 0.51542 0.0
C1731 C 0.98587 0.26901 0.54117 0.0
C1732 C 1.0099 0.28068 0.53041 0.0
C1733 C 0.07993 0.31532 0.49933 0.0
C1734 C 0.05593 0.30334 0.5101 0.0
H1735 H 0.91815 0.20341 0.55091 0.0
H1736 H 0.95721 0.22208 0.53327 0.0
H1737 H 1.01432 0.32676 0.52914 0.0
H1738 H 0.09911 0.35987 0.47156 0.0
H1739 H 0.05971 0.33948 0.48891 0.0
C1740 C 0.71429 0.77486 0.47968 0.0
C1741 C 0.71803 0.80514 0.48016 0.0
C1742 C 0.72655 0.76429 0.48956 0.0
C1743 C 0.77088 0.75512 0.50773 0.0
H1744 H 0.75948 0.76884 0.54417 0.0
C1745 C 0.82771 0.72221 0.5507 0.0
C1746 C 0.8085 0.70783 0.56166 0.0
C1747 C 0.81783 0.73497 0.54068 0.0
C1748 C 0.76282 0.76472 0.53404 0.0
H1749 H 0.73669 0.84767 0.49168 0.0
H1750 H 0.75774 0.82903 0.50913 0.0
H1751 H 0.73999 0.78942 0.52701 0.0
H1752 H 0.76342 0.69465 0.57046 0.0
H1753 H 0.74641 0.71711 0.55317 0.0
H1754 H 0.79345 0.73016 0.51475 0.0
C1755 C 0.74554 0.81355 0.501 0.0
C1756 C 0.75189 0.77681 0.52419 0.0
C1757 C 0.73354 0.82428 0.491 0.0
C1758 C 0.779 0.706 0.56225 0.0
C1759 C 0.7693 0.71901 0.55234 0.0
C1760 C 0.78211 0.74332 0.51758 0.0
C1761 C 0.74246 0.78348 0.50036 0.0
C1762 C 0.75544 0.77189 0.51089 0.0
C1763 C 0.78858 0.7338 0.54143 0.0
C1764 C 0.77794 0.74764 0.53088 0.0
H1765 H 0.70204 0.75933 0.47156 0.0
H1766 H 0.72319 0.74083 0.48882 0.0
H1767 H 0.77436 0.75114 0.4976 0.0
H1768 H 0.8505 0.72389 0.54993 0.0
H1769 H 0.83337 0.74627 0.53245 0.0
C1770 C 0.28635 0.96392 0.48026 0.0
C1771 C 0.25673 0.93639 0.48081 0.0
C1772 C 0.29599 0.98674 0.49012 0.0
C1773 C 0.30192 0.03883 0.50854 0.0
H1774 H 0.29157 0.01269 0.54487 0.0
C1775 C 0.33011 0.12506 0.55268 0.0
C1776 C 0.34693 0.12155 0.56306 0.0
C1777 C 0.31827 0.10301 0.54242 0.0
C1778 C 0.29465 0.02042 0.53477 0.0
H1779 H 0.21446 0.91077 0.49243 0.0
H1780 H 0.23157 0.95029 0.50984 0.0
H1781 H 0.2724 0.97312 0.52754 0.0
H1782 H 0.36548 0.09279 0.57052 0.0
H1783 H 0.34447 0.05428 0.55289 0.0
H1784 H 0.3243 0.08617 0.51581 0.0
C1785 C 0.24718 0.95442 0.50166 0.0
C1786 C 0.28342 0.99769 0.52483 0.0
C1787 C 0.23734 0.93179 0.49168 0.0
C1788 C 0.35222 0.09596 0.56278 0.0
C1789 C 0.34006 0.07377 0.55269 0.0
C1790 C 0.31276 0.06157 0.5185 0.0
C1791 C 0.27656 0.98234 0.50096 0.0
C1792 C 0.28722 1.00657 0.51157 0.0
C1793 C 0.32276 0.07683 0.5424 0.0
C1794 C 0.30963 0.05268 0.53175 0.0
H1795 H 0.30208 0.96796 0.47213 0.0
H1796 H 0.31894 1.00765 0.48934 0.0
H1797 H 0.30499 0.04652 0.49844 0.0
H1798 H 0.32579 0.14461 0.55257 0.0
H1799 H 0.30504 0.10608 0.53465 0.0
C1800 C 0.49872 0.33084 0.1144 0.0
C1801 C 0.52449 0.35622 0.10819 0.0
C1802 C 0.49264 0.30006 0.1127 0.0
C1803 C 0.53202 0.25545 0.10484 0.0
H1804 H 0.4473 0.18552 0.10004 0.0
C1805 C 0.51016 0.12979 0.09838 0.0
C1806 C 0.4837 0.10506 0.1045 0.0
C1807 C 0.51358 0.15971 0.09742 0.0
C1808 C 0.47108 0.20467 0.10153 0.0
H1809 H 0.56382 0.36902 0.09513 0.0
H1810 H 0.55337 0.31512 0.09223 0.0
H1811 H 0.45638 0.23907 0.101 0.0
H1812 H 0.43957 0.0922 0.11411 0.0
H1813 H 0.44584 0.14468 0.1128 0.0
H1814 H 0.54679 0.22136 0.10583 0.0
C1815 C 0.53789 0.31916 0.09844 0.0
C1816 C 0.47629 0.23543 0.10202 0.0
C1817 C 0.54376 0.34999 0.10003 0.0
C1818 C 0.46013 0.1107 0.10925 0.0
C1819 C 0.46376 0.14086 0.10846 0.0
C1820 C 0.52681 0.22474 0.10448 0.0
C1821 C 0.51234 0.29384 0.10483 0.0
C1822 C 0.50683 0.26119 0.10371 0.0
C1823 C 0.49087 0.16599 0.10276 0.0
C1824 C 0.49626 0.19882 0.10283 0.0
H1825 H 0.4832 0.33479 0.12063 0.0
H1826 H 0.47293 0.28119 0.11784 0.0
H1827 H 0.55576 0.27468 0.10637 0.0
H1828 H 0.5286 0.12617 0.09446 0.0
H1829 H 0.53432 0.17804 0.09261 0.0
C1830 C 0.70776 0.21022 0.10107 0.0
C1831 C 0.701 0.18378 0.1087 0.0
C1832 C 0.7389 0.23479 0.09957 0.0
C1833 C 0.81805 0.26792 0.11517 0.0
H1834 H 0.84677 0.31717 0.08331 0.0
C1835 C 0.94771 0.3662 0.10825 0.0
C1836 C 0.95172 0.39507 0.10383 0.0
C1837 C 0.91804 0.33888 0.10771 0.0
C1838 C 0.83907 0.30366 0.09229 0.0
H1839 H 0.72174 0.16161 0.12013 0.0
H1840 H 0.77578 0.20373 0.11725 0.0
H1841 H 0.79319 0.2726 0.08452 0.0
H1842 H 0.92799 0.41749 0.09477 0.0
H1843 H 0.87663 0.36998 0.0937 0.0
H1844 H 0.86399 0.29894 0.12289 0.0
C1845 C 0.75716 0.20626 0.11279 0.0
C1846 C 0.80826 0.27817 0.09302 0.0
C1847 C 0.72611 0.18197 0.1144 0.0
C1848 C 0.92575 0.39569 0.09832 0.0
C1849 C 0.89628 0.36838 0.09763 0.0
C1850 C 0.8489 0.29318 0.11439 0.0
C1851 C 0.76405 0.23331 0.10553 0.0
C1852 C 0.7972 0.26003 0.10451 0.0
C1853 C 0.89187 0.33976 0.10256 0.0
C1854 C 0.85973 0.31154 0.10298 0.0
H1855 H 0.68889 0.21235 0.09661 0.0
H1856 H 0.74311 0.25532 0.09402 0.0
H1857 H 0.81038 0.25506 0.1243 0.0
H1858 H 0.96717 0.36491 0.11259 0.0
H1859 H 0.91547 0.31712 0.11148 0.0
C1860 C 0.65969 0.54774 0.0984 0.0
C1861 C 0.66076 0.57455 0.10382 0.0
C1862 C 0.68693 0.54554 0.09745 0.0
C1863 C 0.76279 0.57349 0.11354 0.0
H1864 H 0.78208 0.53805 0.08348 0.0
C1865 C 0.87333 0.56092 0.11292 0.0
C1866 C 0.87109 0.53395 0.10714 0.0
C1867 C 0.84922 0.56795 0.11144 0.0
C1868 C 0.77687 0.54763 0.09203 0.0
H1869 H 0.69157 0.6205 0.11215 0.0
H1870 H 0.73926 0.6165 0.11061 0.0
H1871 H 0.73762 0.54724 0.08259 0.0
H1872 H 0.842 0.49346 0.09507 0.0
H1873 H 0.79928 0.50512 0.09274 0.0
H1874 H 0.80108 0.57289 0.1232 0.0
C1875 C 0.71721 0.59719 0.1071 0.0
C1876 C 0.75147 0.55307 0.09147 0.0
C1877 C 0.68996 0.59959 0.10788 0.0
C1878 C 0.84442 0.51448 0.09958 0.0
C1879 C 0.82001 0.5213 0.09823 0.0
C1880 C 0.78795 0.56775 0.11415 0.0
C1881 C 0.7159 0.56993 0.10204 0.0
C1882 C 0.74406 0.56596 0.10225 0.0
C1883 C 0.82192 0.54799 0.10426 0.0
C1884 C 0.79536 0.55465 0.10342 0.0
H1885 H 0.63761 0.52806 0.09512 0.0
H1886 H 0.68504 0.52414 0.09359 0.0
H1887 H 0.75738 0.58291 0.12209 0.0
H1888 H 0.89388 0.57672 0.11861 0.0
H1889 H 0.85208 0.58915 0.11595 0.0
C1890 C 0.3388 0.48992 0.93582 0.0
C1891 C 0.36446 0.52036 0.93784 0.0
C1892 C 0.30787 0.48417 0.93628 0.0
C1893 C 0.26194 0.52508 0.93335 0.0
H1894 H 0.19419 0.44778 0.94789 0.0
C1895 C 0.13842 0.50796 0.94072 0.0
C1896 C 0.11243 0.47914 0.93684 0.0
C1897 C 0.16849 0.51169 0.94149 0.0
C1898 C 0.21281 0.46935 0.94369 0.0
H1899 H 0.3775 0.56847 0.94227 0.0
H1900 H 0.32357 0.55844 0.94324 0.0
H1901 H 0.24804 0.45723 0.94824 0.0
H1902 H 0.0978 0.43126 0.93117 0.0
H1903 H 0.15062 0.43783 0.93255 0.0
H1904 H 0.22685 0.53728 0.92884 0.0
C1905 C 0.32737 0.53906 0.94104 0.0
C1906 C 0.24371 0.47479 0.94388 0.0
C1907 C 0.35834 0.54483 0.94052 0.0
C1908 C 0.11723 0.45376 0.9342 0.0
C1909 C 0.14749 0.45751 0.93501 0.0
C1910 C 0.23116 0.5197 0.93321 0.0
C1911 C 0.3017 0.50869 0.9388 0.0
C1912 C 0.26873 0.5028 0.93874 0.0
C1913 C 0.17357 0.48675 0.93842 0.0
C1914 C 0.20619 0.49185 0.93842 0.0
H1915 H 0.34263 0.4706 0.9335 0.0
H1916 H 0.28884 0.46062 0.93429 0.0
H1917 H 0.28037 0.54657 0.92903 0.0
H1918 H 0.13576 0.52804 0.94295 0.0
H1919 H 0.18788 0.53432 0.94442 0.0
C1920 C 0.56887 0.86655 0.92677 0.0
C1921 C 0.54309 0.86536 0.93329 0.0
C1922 C 0.57577 0.84233 0.92817 0.0
C1923 C 0.55842 0.77239 0.94871 0.0
H1924 H 0.58897 0.74913 0.91816 0.0
C1925 C 0.5585 0.6549 0.94402 0.0
C1926 C 0.58422 0.65514 0.93782 0.0
C1927 C 0.55625 0.68213 0.94464 0.0
C1928 C 0.58089 0.75559 0.92684 0.0
H1929 H 0.50453 0.83783 0.94655 0.0
H1930 H 0.51598 0.79502 0.94877 0.0
H1931 H 0.57871 0.79259 0.91679 0.0
H1932 H 0.62824 0.68464 0.92775 0.0
H1933 H 0.62421 0.7323 0.92876 0.0
H1934 H 0.5597 0.7345 0.95859 0.0
C1935 C 0.53135 0.81503 0.94275 0.0
C1936 C 0.575 0.78063 0.92608 0.0
C1937 C 0.52465 0.83952 0.94145 0.0
C1938 C 0.60821 0.68364 0.93264 0.0
C1939 C 0.60575 0.71088 0.93312 0.0
C1940 C 0.56403 0.74712 0.94943 0.0
C1941 C 0.5569 0.81595 0.93604 0.0
C1942 C 0.56359 0.78941 0.93699 0.0
C1943 C 0.57948 0.71031 0.93895 0.0
C1944 C 0.57525 0.73834 0.93849 0.0
H1945 H 0.58395 0.88643 0.92062 0.0
H1946 H 0.59611 0.84445 0.9231 0.0
H1947 H 0.5502 0.77867 0.9574 0.0
H1948 H 0.5396 0.63339 0.94814 0.0
H1949 H 0.53561 0.68076 0.94912 0.0
C1950 C 0.37395 0.94053 0.93501 0.0
C1951 C 0.40387 0.94377 0.9367 0.0
C1952 C 0.34662 0.91088 0.93601 0.0
C1953 C 0.31759 0.82934 0.94846 0.0
H1954 H 0.25136 0.80611 0.92282 0.0
C1955 C 0.22027 0.69998 0.93985 0.0
C1956 C 0.18944 0.69383 0.93752 0.0
C1957 C 0.24547 0.73095 0.94049 0.0
C1958 C 0.26943 0.81229 0.93017 0.0
H1959 H 0.42821 0.91813 0.9411 0.0
H1960 H 0.38114 0.86708 0.94269 0.0
H1961 H 0.29636 0.85943 0.92293 0.0
H1962 H 0.16124 0.71575 0.9339 0.0
H1963 H 0.20498 0.76953 0.93521 0.0
H1964 H 0.29091 0.78209 0.95557 0.0
C1965 C 0.37852 0.8873 0.94073 0.0
C1966 C 0.29526 0.84296 0.93024 0.0
C1967 C 0.40567 0.91675 0.93971 0.0
C1968 C 0.18454 0.71951 0.93589 0.0
C1969 C 0.20973 0.75043 0.93648 0.0
C1970 C 0.29184 0.79868 0.94836 0.0
C1971 C 0.34859 0.88381 0.9388 0.0
C1972 C 0.31989 0.85184 0.9393 0.0
C1973 C 0.24057 0.75661 0.93875 0.0
C1974 C 0.26753 0.78963 0.93913 0.0
H1975 H 0.37162 0.96076 0.93267 0.0
H1976 H 0.32396 0.90916 0.9346 0.0
H1977 H 0.33576 0.8354 0.95575 0.0
H1978 H 0.22493 0.68084 0.94122 0.0
H1979 H 0.26893 0.73477 0.94213 0.0
C1980 C 0.19984 0.6782 0.45347 0.0
C1981 C 0.20027 0.69488 0.4422 0.0
C1982 C 0.19306 0.64703 0.45261 0.0
C1983 C 0.19209 0.58871 0.42954 0.0
H1984 H 0.14031 0.52898 0.45624 0.0
C1985 C 0.18677 0.46982 0.43682 0.0
C1986 C 0.15785 0.44321 0.44012 0.0
C1987 C 0.18975 0.49957 0.43616 0.0
C1988 C 0.15451 0.54523 0.44862 0.0
H1989 H 0.19426 0.69174 0.42113 0.0
H1990 H 0.18221 0.63721 0.41964 0.0
H1991 H 0.14962 0.5826 0.45687 0.0
H1992 H 0.10921 0.42712 0.44512 0.0
H1993 H 0.11443 0.47929 0.44394 0.0
H1994 H 0.19695 0.55135 0.42128 0.0
C1995 C 0.1873 0.64838 0.42915 0.0
C1996 C 0.16019 0.57612 0.44907 0.0
C1997 C 0.19397 0.67957 0.43002 0.0
C1998 C 0.13181 0.44709 0.44255 0.0
C1999 C 0.13486 0.47702 0.44195 0.0
C2000 C 0.18651 0.55787 0.42912 0.0
C2001 C 0.18657 0.63164 0.44046 0.0
C2002 C 0.17934 0.59836 0.43962 0.0
C2003 C 0.16395 0.50366 0.43882 0.0
C2004 C 0.16794 0.53582 0.43873 0.0
H2005 H 0.20412 0.68902 0.46304 0.0
H2006 H 0.19313 0.63504 0.4615 0.0
H2007 H 0.20709 0.60521 0.42214 0.0
H2008 H 0.20739 0.46783 0.43488 0.0
H2009 H 0.21261 0.51955 0.4339 0.0
C2010 C 0.61686 0.70346 0.44049 0.0
C2011 C 0.62006 0.73326 0.43856 0.0
C2012 C 0.58709 0.67617 0.43994 0.0
C2013 C 0.50425 0.64654 0.42879 0.0
H2014 H 0.48376 0.58194 0.45493 0.0
C2015 C 0.37584 0.54895 0.43948 0.0
C2016 C 0.37031 0.51832 0.4416 0.0
C2017 C 0.40664 0.57442 0.43852 0.0
C2018 C 0.48916 0.59958 0.44746 0.0
H2019 H 0.59422 0.75738 0.43415 0.0
H2020 H 0.54295 0.71039 0.43336 0.0
H2021 H 0.53701 0.62695 0.45386 0.0
H2022 H 0.3931 0.49072 0.44464 0.0
H2023 H 0.44658 0.53494 0.44285 0.0
H2024 H 0.45624 0.6194 0.42255 0.0
C2025 C 0.56328 0.70782 0.43515 0.0
C2026 C 0.51979 0.6254 0.44682 0.0
C2027 C 0.59288 0.73494 0.4357 0.0
C2028 C 0.3964 0.51389 0.44282 0.0
C2029 C 0.42714 0.53934 0.44195 0.0
C2030 C 0.47361 0.62081 0.42948 0.0
C2031 C 0.55982 0.67803 0.4374 0.0
C2032 C 0.52773 0.64941 0.43754 0.0
C2033 C 0.43272 0.56995 0.43977 0.0
C2034 C 0.46557 0.59708 0.43888 0.0
H2035 H 0.63721 0.70122 0.44273 0.0
H2036 H 0.58543 0.65362 0.44156 0.0
H2037 H 0.50952 0.66419 0.42135 0.0
H2038 H 0.35634 0.55322 0.43843 0.0
H2039 H 0.41003 0.59771 0.43698 0.0
C2040 C 0.52131 0.86648 0.45089 0.0
C2041 C 0.53877 0.86772 0.43976 0.0
C2042 C 0.49719 0.87374 0.45001 0.0
C2043 C 0.44304 0.87979 0.42648 0.0
H2044 H 0.43189 0.92626 0.45459 0.0
C2045 C 0.32837 0.8833 0.43355 0.0
C2046 C 0.32981 0.91092 0.43821 0.0
C2047 C 0.35552 0.88101 0.43255 0.0
C2048 C 0.43488 0.91362 0.44657 0.0
H2049 H 0.54398 0.87715 0.4189 0.0
H2050 H 0.50211 0.89009 0.41739 0.0
H2051 H 0.47587 0.91638 0.45531 0.0
H2052 H 0.36136 0.95822 0.44509 0.0
H2053 H 0.40904 0.95427 0.44328 0.0
H2054 H 0.4021 0.87707 0.41773 0.0
C2055 C 0.50699 0.88332 0.42681 0.0
C2056 C 0.45988 0.90756 0.44707 0.0
C2057 C 0.5312 0.87614 0.42769 0.0
C2058 C 0.35939 0.93664 0.44144 0.0
C2059 C 0.38667 0.93426 0.44051 0.0
C2060 C 0.41801 0.88578 0.426 0.0
C2061 C 0.48979 0.88241 0.43798 0.0
C2062 C 0.46407 0.89022 0.43711 0.0
C2063 C 0.38499 0.90623 0.43621 0.0
C2064 C 0.41333 0.90241 0.43612 0.0
H2065 H 0.52669 0.86055 0.46038 0.0
H2066 H 0.48419 0.87234 0.45878 0.0
H2067 H 0.44538 0.86623 0.41867 0.0
H2068 H 0.30606 0.863 0.43092 0.0
H2069 H 0.35317 0.85894 0.42934 0.0
C2070 C 0.8053 0.84131 0.27491 0.0
C2071 C 0.77885 0.81292 0.27098 0.0
C2072 C 0.83503 0.84422 0.27562 0.0
C2073 C 0.8779 0.80016 0.27708 0.0
H2074 H 0.94615 0.87738 0.26273 0.0
C2075 C 1.0031 0.81889 0.26844 0.0
C2076 C 0.0291 0.84899 0.27073 0.0
C2077 C 0.97234 0.81364 0.26901 0.0
C2078 C 0.92753 0.85586 0.26696 0.0
H2079 H 0.76296 0.76484 0.26522 0.0
H2080 H 0.81522 0.76995 0.26645 0.0
H2081 H 0.89301 0.86911 0.26289 0.0
H2082 H 0.04286 0.89701 0.27572 0.0
H2083 H 0.98927 0.88787 0.27683 0.0
H2084 H 0.91259 0.78697 0.28115 0.0
C2085 C 0.81273 0.78996 0.26902 0.0
C2086 C 0.89695 0.85107 0.26703 0.0
C2087 C 0.78277 0.78702 0.26831 0.0
C2088 C 0.02346 0.87363 0.27374 0.0
C2089 C 0.99267 0.86836 0.27435 0.0
C2090 C 0.9086 0.805 0.27704 0.0
C2091 C 0.83935 0.81886 0.2724 0.0
C2092 C 0.87173 0.82326 0.27215 0.0
C2093 C 0.96667 0.83834 0.27189 0.0
C2094 C 0.93388 0.833 0.27202 0.0
H2095 H 0.80324 0.86171 0.27722 0.0
H2096 H 0.85479 0.86658 0.27858 0.0
H2097 H 0.85911 0.77859 0.2812 0.0
H2098 H 1.00651 0.79944 0.26585 0.0
H2099 H 0.95303 0.79034 0.26684 0.0
C2100 C 0.27045 0.01607 0.26952 0.0
C2101 C 0.24411 0.98593 0.27123 0.0
C2102 C 0.26751 0.04298 0.27054 0.0
C2103 C 0.21363 0.07048 0.28282 0.0
H2104 H 0.25615 0.13683 0.2572 0.0
C2105 C 0.17911 0.16563 0.27339 0.0
C2106 C 0.2035 0.19664 0.27123 0.0
C2107 C 0.18553 0.14093 0.27427 0.0
C2108 C 0.24438 0.11871 0.26454 0.0
H2109 H 0.19409 0.96077 0.27565 0.0
H2110 H 0.18902 1.00714 0.27724 0.0
H2111 H 0.26546 0.09254 0.25744 0.0
H2112 H 0.25381 0.22577 0.26816 0.0
H2113 H 0.26497 0.18284 0.26982 0.0
H2114 H 0.1921 0.09638 0.28974 0.0
C2115 C 0.21208 1.01025 0.27529 0.0
C2116 C 0.2498 0.0933 0.2647 0.0
C2117 C 0.215 0.98349 0.27428 0.0
C2118 C 0.23447 0.20228 0.27001 0.0
C2119 C 0.24085 0.17758 0.27081 0.0
C2120 C 0.20811 0.0958 0.28262 0.0
C2121 C 0.23818 0.04038 0.27332 0.0
C2122 C 0.23424 0.06864 0.27375 0.0
C2123 C 0.21647 0.14655 0.27289 0.0
C2124 C 0.22319 0.12011 0.2734 0.0
H2125 H 0.29323 0.01888 0.26716 0.0
H2126 H 0.28822 0.06582 0.26911 0.0
H2127 H 0.20165 0.05228 0.2901 0.0
H2128 H 0.15503 0.16044 0.27444 0.0
H2129 H 0.16612 0.11729 0.27576 0.0
C2130 C 0.85651 0.0549 0.26026 0.0
C2131 C 0.85795 0.03033 0.26666 0.0
C2132 C 0.88054 0.08605 0.26177 0.0
C2133 C 0.95037 0.13871 0.28228 0.0
H2134 H 0.97385 0.19225 0.25159 0.0
C2135 C 0.06813 0.25607 0.27718 0.0
C2136 C 0.06788 0.28139 0.27086 0.0
C2137 C 0.0408 0.22666 0.27797 0.0
C2138 C 0.96731 0.17779 0.26031 0.0
H2139 H 0.88553 0.01927 0.27987 0.0
H2140 H 0.92809 0.07369 0.28229 0.0
H2141 H 0.93035 0.13849 0.2503 0.0
H2142 H 0.03831 0.29584 0.2608 0.0
H2143 H 0.99047 0.24427 0.26212 0.0
H2144 H 0.98827 0.178 0.29211 0.0
C2145 C 0.90805 0.06898 0.27626 0.0
C2146 C 0.94227 0.14686 0.25959 0.0
C2147 C 0.88372 0.03773 0.27486 0.0
C2148 C 0.0393 0.27688 0.26577 0.0
C2149 C 1.01197 0.24728 0.26643 0.0
C2150 C 0.97566 0.16961 0.28295 0.0
C2151 C 0.90694 0.09357 0.26962 0.0
C2152 C 0.93343 0.12679 0.27055 0.0
C2153 C 1.01255 0.22169 0.27235 0.0
C2154 C 0.98448 0.18949 0.27196 0.0
H2155 H 0.83664 0.05001 0.25407 0.0
H2156 H 0.87831 0.10426 0.25676 0.0
H2157 H 0.94403 0.12425 0.29099 0.0
H2158 H 0.08971 0.25871 0.28124 0.0
H2159 H 0.04214 0.20745 0.28251 0.0
C2160 C 0.79647 0.7801 0.77422 0.0
C2161 C 0.8232 0.77666 0.77355 0.0
C2162 C 0.79944 0.80995 0.77322 0.0
C2163 C 0.85488 0.89177 0.7622 0.0
H2164 H 0.80769 0.91418 0.78591 0.0
C2165 C 0.88712 0.02062 0.77136 0.0
C2166 C 0.8624 0.02705 0.7727 0.0
C2167 C 0.88091 0.98959 0.77053 0.0
C2168 C 0.82076 0.90821 0.77909 0.0
H2169 H 0.87402 0.80209 0.77121 0.0
H2170 H 0.87909 0.85359 0.76964 0.0
H2171 H 0.79883 0.86072 0.78602 0.0
H2172 H 0.81169 1.00572 0.77425 0.0
H2173 H 0.80089 0.95175 0.77261 0.0
H2174 H 0.87717 0.93938 0.75543 0.0
C2175 C 0.85577 0.83335 0.77073 0.0
C2176 C 0.81563 0.8775 0.77915 0.0
C2177 C 0.85283 0.80368 0.77173 0.0
C2178 C 0.8313 1.00168 0.77305 0.0
C2179 C 0.8251 0.97069 0.77228 0.0
C2180 C 0.86006 0.92246 0.76218 0.0
C2181 C 0.82918 0.83697 0.77149 0.0
C2182 C 0.8329 0.86898 0.77081 0.0
C2183 C 0.84982 0.96422 0.77109 0.0
C2184 C 0.84331 0.93117 0.77071 0.0
H2185 H 0.7733 0.75981 0.77561 0.0
H2186 H 0.77842 0.81183 0.77374 0.0
H2187 H 0.86819 0.88592 0.75547 0.0
H2188 H 0.91132 0.03958 0.77098 0.0
H2189 H 0.90054 0.98547 0.76974 0.0
C2190 C 0.28144 0.0379 0.77579 0.0
C2191 C 0.28465 0.06785 0.77445 0.0
C2192 C 0.2516 1.01069 0.77521 0.0
C2193 C 0.1685 0.98208 0.76477 0.0
H2194 H 0.14862 0.91498 0.78957 0.0
C2195 C 0.04032 0.88322 0.77492 0.0
C2196 C 0.03486 0.85245 0.77648 0.0
C2197 C 0.0711 0.9088 0.7741 0.0
C2198 C 0.15384 0.93333 0.78248 0.0
H2199 H 0.25869 0.09236 0.77118 0.0
H2200 H 0.20732 0.04549 0.77035 0.0
H2201 H 0.20181 0.96015 0.78879 0.0
H2202 H 0.05779 0.82473 0.77866 0.0
H2203 H 0.1112 0.86914 0.77709 0.0
H2204 H 0.1204 0.95546 0.75859 0.0
C2205 C 0.2277 0.04275 0.77167 0.0
C2206 C 0.18444 0.95925 0.782 0.0
C2207 C 0.25736 0.0698 0.77224 0.0
C2208 C 0.06101 0.84801 0.77727 0.0
C2209 C 0.09173 0.87356 0.77652 0.0
C2210 C 0.1379 0.95624 0.76528 0.0
C2211 C 0.22427 0.01278 0.77325 0.0
C2212 C 0.19217 0.98415 0.77322 0.0
C2213 C 0.09723 0.90432 0.77492 0.0
C2214 C 0.13007 0.93159 0.7742 0.0
H2215 H 0.30188 0.03544 0.7775 0.0
H2216 H 0.24997 0.98801 0.77631 0.0
H2217 H 0.17361 1.00044 0.7577 0.0
H2218 H 0.0208 0.88753 0.77421 0.0
H2219 H 0.07441 0.93218 0.773 0.0
C2220 C 0.20715 0.23066 0.78173 0.0
C2221 C 0.20698 0.20485 0.7757 0.0
C2222 C 0.18222 0.2364 0.77991 0.0
C2223 C 0.09806 0.19641 0.77164 0.0
H2224 H 0.11257 0.28085 0.76659 0.0
C2225 C 0.99406 0.21746 0.76369 0.0
C2226 C 0.99507 0.24346 0.7699 0.0
C2227 C 0.02084 0.2144 0.76304 0.0
C2228 C 0.10803 0.25715 0.76814 0.0
H2229 H 0.18051 0.16505 0.76288 0.0
H2230 H 0.13677 0.17499 0.75972 0.0
H2231 H 0.15727 0.27211 0.76805 0.0
H2232 H 0.02541 0.28721 0.77992 0.0
H2233 H 0.07214 0.2816 0.77908 0.0
H2234 H 0.04903 0.18139 0.77212 0.0
C2235 C 0.15625 0.19073 0.76591 0.0
C2236 C 0.13371 0.25214 0.76893 0.0
C2237 C 0.18141 0.18516 0.76763 0.0
C2238 C 0.02391 0.26701 0.77499 0.0
C2239 C 0.05073 0.26376 0.77448 0.0
C2240 C 0.07244 0.20143 0.77095 0.0
C2241 C 0.15629 0.21636 0.77208 0.0
C2242 C 0.12904 0.22169 0.77072 0.0
C2243 C 0.04938 0.23702 0.76875 0.0
C2244 C 0.07698 0.23187 0.76919 0.0
H2245 H 0.22666 0.24654 0.78788 0.0
H2246 H 0.18293 0.25618 0.78489 0.0
H2247 H 0.0936 0.17274 0.77325 0.0
H2248 H 0.97231 0.19904 0.75952 0.0
H2249 H 1.01896 0.19394 0.7582 0.0
C2250 C 0.45046 0.11875 0.60129 0.0
C2251 C 0.44718 0.14531 0.6032 0.0
C2252 C 0.48023 0.12127 0.60198 0.0
C2253 C 0.56221 0.17393 0.61395 0.0
H2254 H 0.58466 0.13128 0.58793 0.0
C2255 C 0.69136 0.20615 0.60452 0.0
C2256 C 0.69735 0.18145 0.60216 0.0
C2257 C 0.6604 0.20039 0.60532 0.0
C2258 C 0.57869 0.14308 0.59537 0.0
H2259 H 0.47289 0.19526 0.60759 0.0
H2260 H 0.52416 0.19957 0.60864 0.0
H2261 H 0.53128 0.12285 0.58841 0.0
H2262 H 0.67522 0.13131 0.5986 0.0
H2263 H 0.62144 0.12128 0.60015 0.0
H2264 H 0.60973 0.19452 0.62079 0.0
C2265 C 0.50387 0.17668 0.60677 0.0
C2266 C 0.548 0.13817 0.59567 0.0
C2267 C 0.4743 0.1742 0.60607 0.0
C2268 C 0.67156 0.15086 0.60062 0.0
C2269 C 0.64065 0.14514 0.60135 0.0
C2270 C 0.59288 0.17891 0.61363 0.0
C2271 C 0.50737 0.15036 0.60465 0.0
C2272 C 0.53941 0.15379 0.60488 0.0
C2273 C 0.63463 0.16982 0.60368 0.0
C2274 C 0.60164 0.16377 0.60427 0.0
H2275 H 0.43015 0.09614 0.59905 0.0
H2276 H 0.48196 0.1004 0.60043 0.0
H2277 H 0.55637 0.18593 0.62135 0.0
H2278 H 0.7106 0.22995 0.60583 0.0
H2279 H 0.65668 0.22004 0.607 0.0
C2280 C 0.88334 0.31559 0.60678 0.0
C2281 C 0.91253 0.31809 0.60384 0.0
C2282 C 0.8804 0.34233 0.60785 0.0
C2283 C 0.91834 0.42558 0.59752 0.0
H2284 H 0.85971 0.42799 0.62226 0.0
C2285 C 0.90192 0.53404 0.60265 0.0
C2286 C 0.87084 0.52814 0.60373 0.0
C2287 C 0.90854 0.50949 0.60349 0.0
C2288 C 0.87599 0.4276 0.61522 0.0
H2289 H 0.96176 0.35112 0.60004 0.0
H2290 H 0.9567 0.39803 0.60209 0.0
H2291 H 0.86949 0.38404 0.62266 0.0
H2292 H 0.82241 0.49164 0.60676 0.0
H2293 H 0.8339 0.44877 0.60816 0.0
H2294 H 0.9247 0.46915 0.59006 0.0
C2295 C 0.93596 0.37516 0.60339 0.0
C2296 C 0.88163 0.40237 0.61545 0.0
C2297 C 0.93893 0.34826 0.60232 0.0
C2298 C 0.84658 0.49703 0.60581 0.0
C2299 C 0.85322 0.47249 0.60674 0.0
C2300 C 0.91278 0.45091 0.59733 0.0
C2301 C 0.90655 0.37251 0.60605 0.0
C2302 C 0.90256 0.40075 0.60649 0.0
C2303 C 0.88428 0.47836 0.6055 0.0
C2304 C 0.89124 0.45207 0.60608 0.0
H2305 H 0.86239 0.29284 0.60802 0.0
H2306 H 0.85728 0.33918 0.6097 0.0
H2307 H 0.93425 0.42501 0.59035 0.0
H2308 H 0.92118 0.55761 0.60086 0.0
H2309 H 0.93274 0.51495 0.60261 0.0
C2310 C 0.52344 0.38646 0.59496 0.0
C2311 C 0.52473 0.36206 0.6016 0.0
C2312 C 0.54771 0.41762 0.59621 0.0
C2313 C 0.61781 0.47072 0.61654 0.0
H2314 H 0.64098 0.52389 0.58574 0.0
C2315 C 0.73552 0.58805 0.61129 0.0
C2316 C 0.73529 0.61338 0.60497 0.0
C2317 C 0.70818 0.55863 0.61208 0.0
C2318 C 0.63453 0.50952 0.59449 0.0
H2319 H 0.55249 0.35139 0.61488 0.0
H2320 H 0.59541 0.40574 0.61682 0.0
H2321 H 0.59746 0.47007 0.58458 0.0
H2322 H 0.70575 0.6278 0.59487 0.0
H2323 H 0.65789 0.57618 0.59617 0.0
H2324 H 0.65577 0.51015 0.62627 0.0
C2325 C 0.57528 0.40091 0.61083 0.0
C2326 C 0.60948 0.47856 0.59385 0.0
C2327 C 0.55074 0.36968 0.60969 0.0
C2328 C 0.70672 0.60884 0.59985 0.0
C2329 C 0.67938 0.57921 0.6005 0.0
C2330 C 0.64309 0.50164 0.61714 0.0
C2331 C 0.57422 0.42535 0.60403 0.0
C2332 C 0.60075 0.45861 0.60485 0.0
C2333 C 0.67993 0.55362 0.60643 0.0
C2334 C 0.65183 0.52139 0.6061 0.0
H2335 H 0.50342 0.38148 0.58886 0.0
H2336 H 0.54551 0.4357 0.59107 0.0
H2337 H 0.61155 0.4564 0.62529 0.0
H2338 H 0.75709 0.5907 0.61537 0.0
H2339 H 0.70953 0.53943 0.61663 0.0
loop_
_geom_bond_atom_site_label_1
_geom_bond_atom_site_label_2
_geom_bond_distance
_geom_bond_site_symmetry_2
_ccdc_geom_bond_type
Tb0 C2 2.809 . S
Tb0 O20 2.484 . S
Tb0 O21 2.440 . S
Tb0 O22 2.658 1_545 S
Tb0 O23 2.409 . S
Tb0 O24 2.378 . S
Tb0 O28 2.325 . S
Tb0 O31 2.341 1_545 S
Tb1 C11 2.809 . S
Tb1 O22 2.325 . S
Tb1 O25 2.341 1_565 S
Tb1 O26 2.484 . S
Tb1 O27 2.440 . S
Tb1 O28 2.658 1_565 S
Tb1 O29 2.409 . S
Tb1 O30 2.378 . S
C2 Tb0 2.809 . S
C2 C3 1.514 . S
C2 O20 1.248 . S
C2 O21 1.266 . S
C3 C2 1.514 . S
C3 C4 1.359 . S
C3 C8 1.348 . S
C4 C3 1.359 . S
C4 C5 1.380 . S
C4 H32 0.929 . S
C5 C4 1.380 . S
C5 C6 1.347 . S
C5 H33 0.931 . S
C6 C5 1.347 . S
C6 C7 1.369 . S
C7 C6 1.369 . S
C7 C8 1.408 . S
C7 H34 0.930 . S
C8 C3 1.348 . S
C8 C7 1.408 . S
C8 H35 0.930 . S
C9 O22 1.281 1_545 S
C9 O23 1.254 . S
C10 O24 1.236 . S
C10 O25 1.266 . S
C11 Tb1 2.809 . S
C11 C12 1.514 . S
C11 O26 1.248 . S
C11 O27 1.266 . S
C12 C11 1.514 . S
C12 C13 1.359 . S
C12 C17 1.348 . S
C13 C12 1.359 . S
C13 C14 1.380 . S
C13 H36 0.929 . S
C14 C13 1.380 . S
C14 C15 1.347 . S
C14 H37 0.931 . S
C15 C14 1.347 . S
C15 C16 1.369 . S
C16 C15 1.369 . S
C16 C17 1.408 . S
C16 H38 0.930 . S
C17 C12 1.348 . S
C17 C16 1.408 . S
C17 H39 0.930 . S
C18 O28 1.281 . S
C18 O29 1.254 1_545 S
C19 O30 1.236 . S
C19 O31 1.266 . S
O20 Tb0 2.484 . S
O20 C2 1.248 . S
O21 Tb0 2.440 . S
O21 C2 1.266 . S
O22 Tb0 2.658 1_565 S
O22 Tb1 2.325 . S
O22 C9 1.281 1_565 S
O23 Tb0 2.409 . S
O23 C9 1.254 . S
O24 Tb0 2.378 . S
O24 C10 1.236 . S
O25 Tb1 2.341 1_545 S
O25 C10 1.266 . S
O26 Tb1 2.484 . S
O26 C11 1.248 . S
O27 Tb1 2.440 . S
O27 C11 1.266 . S
O28 Tb0 2.325 . S
O28 Tb1 2.658 1_545 S
O28 C18 1.281 . S
O29 Tb1 2.409 . S
O29 C18 1.254 1_565 S
O30 Tb1 2.378 . S
O30 C19 1.236 . S
O31 Tb0 2.341 1_565 S
O31 C19 1.266 . S
H32 C4 0.929 . S
H33 C5 0.931 . S
H34 C7 0.930 . S
H35 C8 0.930 . S
H36 C13 0.929 . S
H37 C14 0.931 . S
H38 C16 0.930 . S
H39 C17 0.930 . S
Tb40 C42 2.784 1_455 S
Tb40 O60 2.463 1_455 S
Tb40 O61 2.418 1_455 S
Tb40 O62 2.680 . S
Tb40 O63 2.417 . S
Tb40 O64 2.376 1_455 S
Tb40 O68 2.335 . S
Tb40 O71 2.361 . S
Tb41 C51 2.809 . S
Tb41 O62 2.325 . S
Tb41 O65 2.341 1_455 S
Tb41 O66 2.484 . S
Tb41 O67 2.440 . S
Tb41 O68 2.658 . S
Tb41 O69 2.409 . S
Tb41 O70 2.378 . S
C42 Tb40 2.784 1_655 S
C42 C43 1.514 . S
C42 O60 1.248 . S
C42 O61 1.266 . S
C43 C42 1.514 . S
C43 C44 1.359 . S
C43 C48 1.348 . S
C44 C43 1.359 . S
C44 C45 1.380 . S
C44 H72 0.929 . S
C45 C44 1.380 . S
C45 C46 1.347 . S
C45 H73 0.931 . S
C46 C45 1.347 . S
C46 C47 1.369 . S
C47 C46 1.369 . S
C47 C48 1.408 . S
C47 H74 0.930 . S
C48 C43 1.348 . S
C48 C47 1.408 . S
C48 H75 0.930 . S
C49 O62 1.281 . S
C49 O63 1.254 . S
C50 O64 1.236 . S
C50 O65 1.266 . S
C51 Tb41 2.809 . S
C51 C52 1.514 . S
C51 O66 1.248 . S
C51 O67 1.266 . S
C52 C51 1.514 . S
C52 C53 1.359 . S
C52 C57 1.348 . S
C53 C52 1.359 . S
C53 C54 1.380 . S
C53 H76 0.929 . S
C54 C53 1.380 . S
C54 C55 1.347 . S
C54 H77 0.931 . S
C55 C54 1.347 . S
C55 C56 1.369 . S
C56 C55 1.369 . S
C56 C57 1.408 . S
C56 H78 0.930 . S
C57 C52 1.348 . S
C57 C56 1.408 . S
C57 H79 0.930 . S
C58 O68 1.281 . S
C58 O69 1.254 . S
C59 O70 1.236 . S
C59 O71 1.266 . S
O60 Tb40 2.463 1_655 S
O60 C42 1.248 . S
O61 Tb40 2.418 1_655 S
O61 C42 1.266 . S
O62 Tb40 2.680 . S
O62 Tb41 2.325 . S
O62 C49 1.281 . S
O63 Tb40 2.417 . S
O63 C49 1.254 . S
O64 Tb40 2.376 1_655 S
O64 C50 1.236 . S
O65 Tb41 2.341 1_655 S
O65 C50 1.266 . S
O66 Tb41 2.484 . S
O66 C51 1.248 . S
O67 Tb41 2.440 . S
O67 C51 1.266 . S
O68 Tb40 2.335 . S
O68 Tb41 2.658 . S
O68 C58 1.281 . S
O69 Tb41 2.409 . S
O69 C58 1.254 . S
O70 Tb41 2.378 . S
O70 C59 1.236 . S
O71 Tb40 2.361 . S
O71 C59 1.266 . S
H72 C44 0.929 . S
H73 C45 0.931 . S
H74 C47 0.930 . S
H75 C48 0.930 . S
H76 C53 0.929 . S
H77 C54 0.931 . S
H78 C56 0.930 . S
H79 C57 0.930 . S
Tb80 C82 2.809 . S
Tb80 O100 2.484 . S
Tb80 O101 2.440 . S
Tb80 O102 2.658 . S
Tb80 O103 2.409 . S
Tb80 O104 2.378 . S
Tb80 O108 2.325 . S
Tb80 O111 2.341 . S
Tb81 C91 2.809 . S
Tb81 O102 2.325 . S
Tb81 O105 2.341 . S
Tb81 O106 2.484 . S
Tb81 O107 2.440 . S
Tb81 O108 2.658 . S
Tb81 O109 2.409 . S
Tb81 O110 2.378 . S
C82 Tb80 2.809 . S
C82 C83 1.514 . S
C82 O100 1.248 . S
C82 O101 1.266 . S
C83 C82 1.514 . S
C83 C84 1.359 . S
C83 C88 1.348 . S
C84 C83 1.359 . S
C84 C85 1.380 . S
C84 H112 0.929 . S
C85 C84 1.380 . S
C85 C86 1.347 . S
C85 H113 0.931 . S
C86 C85 1.347 . S
C86 C87 1.369 . S
C87 C86 1.369 . S
C87 C88 1.408 . S
C87 H114 0.930 . S
C88 C83 1.348 . S
C88 C87 1.408 . S
C88 H115 0.930 . S
C89 O102 1.281 . S
C89 O103 1.254 . S
C90 O104 1.236 . S
C90 O105 1.266 . S
C91 Tb81 2.809 . S
C91 C92 1.514 . S
C91 O106 1.248 . S
C91 O107 1.266 . S
C92 C91 1.514 . S
C92 C93 1.359 . S
C92 C97 1.348 . S
C93 C92 1.359 . S
C93 C94 1.380 . S
C93 H116 0.929 . S
C94 C93 1.380 . S
C94 C95 1.347 . S
C94 H117 0.931 . S
C95 C94 1.347 . S
C95 C96 1.369 . S
C96 C95 1.369 . S
C96 C97 1.408 . S
C96 H118 0.930 . S
C97 C92 1.348 . S
C97 C96 1.408 . S
C97 H119 0.930 . S
C98 O108 1.281 . S
C98 O109 1.254 . S
C99 O110 1.236 . S
C99 O111 1.266 . S
O100 Tb80 2.484 . S
O100 C82 1.248 . S
O101 Tb80 2.440 . S
O101 C82 1.266 . S
O102 Tb80 2.658 . S
O102 Tb81 2.325 . S
O102 C89 1.281 . S
O103 Tb80 2.409 . S
O103 C89 1.254 . S
O104 Tb80 2.378 . S
O104 C90 1.236 . S
O105 Tb81 2.341 . S
O105 C90 1.266 . S
O106 Tb81 2.484 . S
O106 C91 1.248 . S
O107 Tb81 2.440 . S
O107 C91 1.266 . S
O108 Tb80 2.325 . S
O108 Tb81 2.658 . S
O108 C98 1.281 . S
O109 Tb81 2.409 . S
O109 C98 1.254 . S
O110 Tb81 2.378 . S
O110 C99 1.236 . S
O111 Tb80 2.341 . S
O111 C99 1.266 . S
H112 C84 0.929 . S
H113 C85 0.931 . S
H114 C87 0.930 . S
H115 C88 0.930 . S
H116 C93 0.929 . S
H117 C94 0.931 . S
H118 C96 0.930 . S
H119 C97 0.930 . S
Tb120 C122 2.809 . S
Tb120 O140 2.484 . S
Tb120 O141 2.440 . S
Tb120 O142 2.658 1_455 S
Tb120 O143 2.409 . S
Tb120 O144 2.378 . S
Tb120 O148 2.325 . S
Tb120 O151 2.341 1_455 S
Tb121 C131 2.809 . S
Tb121 O142 2.325 . S
Tb121 O145 2.341 1_655 S
Tb121 O146 2.484 . S
Tb121 O147 2.440 . S
Tb121 O148 2.658 1_655 S
Tb121 O149 2.409 . S
Tb121 O150 2.378 . S
C122 Tb120 2.809 . S
C122 C123 1.514 . S
C122 O140 1.248 . S
C122 O141 1.266 . S
C123 C122 1.514 . S
C123 C124 1.359 . S
C123 C128 1.348 . S
C124 C123 1.359 . S
C124 C125 1.380 . S
C124 H152 0.929 . S
C125 C124 1.380 . S
C125 C126 1.347 . S
C125 H153 0.931 . S
C126 C125 1.347 . S
C126 C127 1.369 . S
C127 C126 1.369 . S
C127 C128 1.408 . S
C127 H154 0.930 . S
C128 C123 1.348 . S
C128 C127 1.408 . S
C128 H155 0.930 . S
C129 O142 1.281 1_455 S
C129 O143 1.254 . S
C130 O144 1.236 . S
C130 O145 1.266 . S
C131 Tb121 2.809 . S
C131 C132 1.514 . S
C131 O146 1.248 . S
C131 O147 1.266 . S
C132 C131 1.514 . S
C132 C133 1.359 . S
C132 C137 1.348 . S
C133 C132 1.359 . S
C133 C134 1.380 . S
C133 H156 0.929 . S
C134 C133 1.380 . S
C134 C135 1.347 . S
C134 H157 0.931 . S
C135 C134 1.347 . S
C135 C136 1.369 . S
C136 C135 1.369 . S
C136 C137 1.408 . S
C136 H158 0.930 . S
C137 C132 1.348 . S
C137 C136 1.408 . S
C137 H159 0.930 . S
C138 O148 1.281 . S
C138 O149 1.254 1_455 S
C139 O150 1.236 . S
C139 O151 1.266 . S
O140 Tb120 2.484 . S
O140 C122 1.248 . S
O141 Tb120 2.440 . S
O141 C122 1.266 . S
O142 Tb120 2.658 1_655 S
O142 Tb121 2.325 . S
O142 C129 1.281 1_655 S
O143 Tb120 2.409 . S
O143 C129 1.254 . S
O144 Tb120 2.378 . S
O144 C130 1.236 . S
O145 Tb121 2.341 1_455 S
O145 C130 1.266 . S
O146 Tb121 2.484 . S
O146 C131 1.248 . S
O147 Tb121 2.440 . S
O147 C131 1.266 . S
O148 Tb120 2.325 . S
O148 Tb121 2.658 1_455 S
O148 C138 1.281 . S
O149 Tb121 2.409 . S
O149 C138 1.254 1_655 S
O150 Tb121 2.378 . S
O150 C139 1.236 . S
O151 Tb120 2.341 1_655 S
O151 C139 1.266 . S
H152 C124 0.929 . S
H153 C125 0.931 . S
H154 C127 0.930 . S
H155 C128 0.930 . S
H156 C133 0.929 . S
H157 C134 0.931 . S
H158 C136 0.930 . S
H159 C137 0.930 . S
Tb160 C162 2.809 . S
Tb160 O180 2.484 . S
Tb160 O181 2.440 . S
Tb160 O182 2.658 . S
Tb160 O183 2.409 . S
Tb160 O184 2.378 . S
Tb160 O188 2.325 . S
Tb160 O191 2.341 . S
Tb161 C171 2.809 . S
Tb161 O182 2.325 . S
Tb161 O185 2.341 . S
Tb161 O186 2.484 . S
Tb161 O187 2.440 . S
Tb161 O188 2.658 . S
Tb161 O189 2.409 . S
Tb161 O190 2.378 . S
C162 Tb160 2.809 . S
C162 C163 1.514 . S
C162 O180 1.248 . S
C162 O181 1.266 . S
C163 C162 1.514 . S
C163 C164 1.359 . S
C163 C168 1.348 . S
C164 C163 1.359 . S
C164 C165 1.380 . S
C164 H192 0.929 . S
C165 C164 1.380 . S
C165 C166 1.347 . S
C165 H193 0.931 . S
C166 C165 1.347 . S
C166 C167 1.369 . S
C167 C166 1.369 . S
C167 C168 1.408 . S
C167 H194 0.930 . S
C168 C163 1.348 . S
C168 C167 1.408 . S
C168 H195 0.930 . S
C169 O182 1.281 . S
C169 O183 1.254 . S
C170 O184 1.236 . S
C170 O185 1.266 . S
C171 Tb161 2.809 . S
C171 C172 1.514 . S
C171 O186 1.248 . S
C171 O187 1.266 . S
C172 C171 1.514 . S
C172 C173 1.359 . S
C172 C177 1.348 . S
C173 C172 1.359 . S
C173 C174 1.380 . S
C173 H196 0.929 . S
C174 C173 1.380 . S
C174 C175 1.347 . S
C174 H197 0.931 . S
C175 C174 1.347 . S
C175 C176 1.369 . S
C176 C175 1.369 . S
C176 C177 1.408 . S
C176 H198 0.930 . S
C177 C172 1.348 . S
C177 C176 1.408 . S
C177 H199 0.930 . S
C178 O188 1.281 . S
C178 O189 1.254 . S
C179 O190 1.236 . S
C179 O191 1.266 . S
O180 Tb160 2.484 . S
O180 C162 1.248 . S
O181 Tb160 2.440 . S
O181 C162 1.266 . S
O182 Tb160 2.658 . S
O182 Tb161 2.325 . S
O182 C169 1.281 . S
O183 Tb160 2.409 . S
O183 C169 1.254 . S
O184 Tb160 2.378 . S
O184 C170 1.236 . S
O185 Tb161 2.341 . S
O185 C170 1.266 . S
O186 Tb161 2.484 . S
O186 C171 1.248 . S
O187 Tb161 2.440 . S
O187 C171 1.266 . S
O188 Tb160 2.325 . S
O188 Tb161 2.658 . S
O188 C178 1.281 . S
O189 Tb161 2.409 . S
O189 C178 1.254 . S
O190 Tb161 2.378 . S
O190 C179 1.236 . S
O191 Tb160 2.341 . S
O191 C179 1.266 . S
H192 C164 0.929 . S
H193 C165 0.931 . S
H194 C167 0.930 . S
H195 C168 0.930 . S
H196 C173 0.929 . S
H197 C174 0.931 . S
H198 C176 0.930 . S
H199 C177 0.930 . S
Tb200 C202 2.784 1_545 S
Tb200 O220 2.463 1_545 S
Tb200 O221 2.418 1_545 S
Tb200 O222 2.680 . S
Tb200 O223 2.417 . S
Tb200 O224 2.376 1_545 S
Tb200 O228 2.335 . S
Tb200 O231 2.361 . S
Tb201 C211 2.809 . S
Tb201 O222 2.325 . S
Tb201 O225 2.341 1_545 S
Tb201 O226 2.484 . S
Tb201 O227 2.440 . S
Tb201 O228 2.658 . S
Tb201 O229 2.409 . S
Tb201 O230 2.378 . S
C202 Tb200 2.784 1_565 S
C202 C203 1.514 . S
C202 O220 1.248 . S
C202 O221 1.266 . S
C203 C202 1.514 . S
C203 C204 1.359 . S
C203 C208 1.348 . S
C204 C203 1.359 . S
C204 C205 1.380 . S
C204 H232 0.929 . S
C205 C204 1.380 . S
C205 C206 1.347 . S
C205 H233 0.931 . S
C206 C205 1.347 . S
C206 C207 1.369 . S
C207 C206 1.369 . S
C207 C208 1.408 . S
C207 H234 0.930 . S
C208 C203 1.348 . S
C208 C207 1.408 . S
C208 H235 0.930 . S
C209 O222 1.281 . S
C209 O223 1.254 . S
C210 O224 1.236 . S
C210 O225 1.266 . S
C211 Tb201 2.809 . S
C211 C212 1.514 . S
C211 O226 1.248 . S
C211 O227 1.266 . S
C212 C211 1.514 . S
C212 C213 1.359 . S
C212 C217 1.348 . S
C213 C212 1.359 . S
C213 C214 1.380 . S
C213 H236 0.929 . S
C214 C213 1.380 . S
C214 C215 1.347 . S
C214 H237 0.931 . S
C215 C214 1.347 . S
C215 C216 1.369 . S
C216 C215 1.369 . S
C216 C217 1.408 . S
C216 H238 0.930 . S
C217 C212 1.348 . S
C217 C216 1.408 . S
C217 H239 0.930 . S
C218 O228 1.281 . S
C218 O229 1.254 . S
C219 O230 1.236 . S
C219 O231 1.266 . S
O220 Tb200 2.463 1_565 S
O220 C202 1.248 . S
O221 Tb200 2.418 1_565 S
O221 C202 1.266 . S
O222 Tb200 2.680 . S
O222 Tb201 2.325 . S
O222 C209 1.281 . S
O223 Tb200 2.417 . S
O223 C209 1.254 . S
O224 Tb200 2.376 1_565 S
O224 C210 1.236 . S
O225 Tb201 2.341 1_565 S
O225 C210 1.266 . S
O226 Tb201 2.484 . S
O226 C211 1.248 . S
O227 Tb201 2.440 . S
O227 C211 1.266 . S
O228 Tb200 2.335 . S
O228 Tb201 2.658 . S
O228 C218 1.281 . S
O229 Tb201 2.409 . S
O229 C218 1.254 . S
O230 Tb201 2.378 . S
O230 C219 1.236 . S
O231 Tb200 2.361 . S
O231 C219 1.266 . S
H232 C204 0.929 . S
H233 C205 0.931 . S
H234 C207 0.930 . S
H235 C208 0.930 . S
H236 C213 0.929 . S
H237 C214 0.931 . S
H238 C216 0.930 . S
H239 C217 0.930 . S
Tb240 C242 2.809 . S
Tb240 O260 2.484 . S
Tb240 O261 2.440 . S
Tb240 O262 2.658 . S
Tb240 O263 2.409 . S
Tb240 O264 2.378 . S
Tb240 O268 2.325 . S
Tb240 O271 2.341 . S
Tb241 C251 2.809 . S
Tb241 O262 2.325 . S
Tb241 O265 2.341 . S
Tb241 O266 2.484 . S
Tb241 O267 2.440 . S
Tb241 O268 2.658 . S
Tb241 O269 2.409 . S
Tb241 O270 2.378 . S
C242 Tb240 2.809 . S
C242 C243 1.514 . S
C242 O260 1.248 . S
C242 O261 1.266 . S
C243 C242 1.514 . S
C243 C244 1.359 . S
C243 C248 1.348 . S
C244 C243 1.359 . S
C244 C245 1.380 . S
C244 H272 0.929 . S
C245 C244 1.380 . S
C245 C246 1.347 . S
C245 H273 0.931 . S
C246 C245 1.347 . S
C246 C247 1.369 . S
C247 C246 1.369 . S
C247 C248 1.408 . S
C247 H274 0.930 . S
C248 C243 1.348 . S
C248 C247 1.408 . S
C248 H275 0.930 . S
C249 O262 1.281 . S
C249 O263 1.254 . S
C250 O264 1.236 . S
C250 O265 1.266 . S
C251 Tb241 2.809 . S
C251 C252 1.514 . S
C251 O266 1.248 . S
C251 O267 1.266 . S
C252 C251 1.514 . S
C252 C253 1.359 . S
C252 C257 1.348 . S
C253 C252 1.359 . S
C253 C254 1.379 . S
C253 H276 0.929 . S
C254 C253 1.379 . S
C254 C255 1.348 1_455 S
C254 H277 0.931 1_455 S
C255 C254 1.348 1_655 S
C255 C256 1.369 . S
C256 C255 1.369 . S
C256 C257 1.408 1_655 S
C256 H278 0.930 . S
C257 C252 1.348 . S
C257 C256 1.408 1_455 S
C257 H279 0.930 . S
C258 O268 1.281 . S
C258 O269 1.254 . S
C259 O270 1.236 . S
C259 O271 1.266 . S
O260 Tb240 2.484 . S
O260 C242 1.248 . S
O261 Tb240 2.440 . S
O261 C242 1.266 . S
O262 Tb240 2.658 . S
O262 Tb241 2.325 . S
O262 C249 1.281 . S
O263 Tb240 2.409 . S
O263 C249 1.254 . S
O264 Tb240 2.378 . S
O264 C250 1.236 . S
O265 Tb241 2.341 . S
O265 C250 1.266 . S
O266 Tb241 2.484 . S
O266 C251 1.248 . S
O267 Tb241 2.440 . S
O267 C251 1.266 . S
O268 Tb240 2.325 . S
O268 Tb241 2.658 . S
O268 C258 1.281 . S
O269 Tb241 2.409 . S
O269 C258 1.254 . S
O270 Tb241 2.378 . S
O270 C259 1.236 . S
O271 Tb240 2.341 . S
O271 C259 1.266 . S
H272 C244 0.929 . S
H273 C245 0.931 . S
H274 C247 0.930 . S
H275 C248 0.930 . S
H276 C253 0.929 . S
H277 C254 0.931 1_655 S
H278 C256 0.930 . S
H279 C257 0.930 . S
Tb280 C282 2.809 . S
Tb280 O300 2.484 . S
Tb280 O301 2.440 . S
Tb280 O302 2.658 . S
Tb280 O303 2.409 . S
Tb280 O304 2.378 . S
Tb280 O308 2.325 . S
Tb280 O311 2.341 . S
Tb281 C291 2.809 . S
Tb281 O302 2.325 . S
Tb281 O305 2.341 . S
Tb281 O306 2.484 . S
Tb281 O307 2.440 . S
Tb281 O308 2.658 . S
Tb281 O309 2.409 . S
Tb281 O310 2.378 . S
C282 Tb280 2.809 . S
C282 C283 1.514 . S
C282 O300 1.248 . S
C282 O301 1.266 . S
C283 C282 1.514 . S
C283 C284 1.359 . S
C283 C288 1.348 . S
C284 C283 1.359 . S
C284 C285 1.380 . S
C284 H312 0.929 . S
C285 C284 1.380 . S
C285 C286 1.347 . S
C285 H313 0.931 . S
C286 C285 1.347 . S
C286 C287 1.369 . S
C287 C286 1.369 . S
C287 C288 1.408 . S
C287 H314 0.930 . S
C288 C283 1.348 . S
C288 C287 1.408 . S
C288 H315 0.930 . S
C289 O302 1.281 . S
C289 O303 1.254 . S
C290 O304 1.236 . S
C290 O305 1.266 . S
C291 Tb281 2.809 . S
C291 C292 1.514 . S
C291 O306 1.248 . S
C291 O307 1.266 . S
C292 C291 1.514 . S
C292 C293 1.359 . S
C292 C297 1.348 . S
C293 C292 1.359 . S
C293 C294 1.380 . S
C293 H316 0.929 . S
C294 C293 1.380 . S
C294 C295 1.347 . S
C294 H317 0.931 . S
C295 C294 1.347 . S
C295 C296 1.369 . S
C296 C295 1.369 . S
C296 C297 1.408 . S
C296 H318 0.930 . S
C297 C292 1.348 . S
C297 C296 1.408 . S
C297 H319 0.930 . S
C298 O308 1.281 . S
C298 O309 1.254 . S
C299 O310 1.236 . S
C299 O311 1.266 . S
O300 Tb280 2.484 . S
O300 C282 1.248 . S
O301 Tb280 2.440 . S
O301 C282 1.266 . S
O302 Tb280 2.658 . S
O302 Tb281 2.325 . S
O302 C289 1.281 . S
O303 Tb280 2.409 . S
O303 C289 1.254 . S
O304 Tb280 2.378 . S
O304 C290 1.236 . S
O305 Tb281 2.341 . S
O305 C290 1.266 . S
O306 Tb281 2.484 . S
O306 C291 1.248 . S
O307 Tb281 2.440 . S
O307 C291 1.266 . S
O308 Tb280 2.325 . S
O308 Tb281 2.658 . S
O308 C298 1.281 . S
O309 Tb281 2.409 . S
O309 C298 1.254 . S
O310 Tb281 2.378 . S
O310 C299 1.236 . S
O311 Tb280 2.341 . S
O311 C299 1.266 . S
H312 C284 0.929 . S
H313 C285 0.931 . S
H314 C287 0.930 . S
H315 C288 0.930 . S
H316 C293 0.929 . S
H317 C294 0.931 . S
H318 C296 0.930 . S
H319 C297 0.930 . S
Tb320 C322 2.809 . S
Tb320 O340 2.484 . S
Tb320 O341 2.440 . S
Tb320 O342 2.658 . S
Tb320 O343 2.409 . S
Tb320 O344 2.378 . S
Tb320 O348 2.325 . S
Tb320 O351 2.341 . S
Tb321 C331 2.809 . S
Tb321 O342 2.325 . S
Tb321 O345 2.341 . S
Tb321 O346 2.484 . S
Tb321 O347 2.440 . S
Tb321 O348 2.658 . S
Tb321 O349 2.409 . S
Tb321 O350 2.378 . S
C322 Tb320 2.809 . S
C322 C323 1.514 . S
C322 O340 1.248 . S
C322 O341 1.266 . S
C323 C322 1.514 . S
C323 C324 1.359 . S
C323 C328 1.348 . S
C324 C323 1.359 . S
C324 C325 1.380 . S
C324 H352 0.929 . S
C325 C324 1.380 . S
C325 C326 1.347 . S
C325 H353 0.931 . S
C326 C325 1.347 . S
C326 C327 1.369 . S
C327 C326 1.369 . S
C327 C328 1.408 . S
C327 H354 0.930 . S
C328 C323 1.348 . S
C328 C327 1.408 . S
C328 H355 0.930 . S
C329 O342 1.281 . S
C329 O343 1.254 . S
C330 O344 1.236 . S
C330 O345 1.266 . S
C331 Tb321 2.809 . S
C331 C332 1.514 . S
C331 O346 1.248 . S
C331 O347 1.266 . S
C332 C331 1.514 . S
C332 C333 1.359 1_565 S
C332 C337 1.348 1_565 S
C333 C332 1.359 1_545 S
C333 C334 1.380 . S
C333 H356 0.929 1_545 S
C334 C333 1.380 . S
C334 C335 1.347 . S
C334 H357 0.931 . S
C335 C334 1.347 . S
C335 C336 1.369 . S
C336 C335 1.369 . S
C336 C337 1.408 . S
C336 H358 0.930 . S
C337 C332 1.348 1_545 S
C337 C336 1.408 . S
C337 H359 0.930 1_545 S
C338 O348 1.281 . S
C338 O349 1.254 . S
C339 O350 1.236 . S
C339 O351 1.266 . S
O340 Tb320 2.484 . S
O340 C322 1.248 . S
O341 Tb320 2.440 . S
O341 C322 1.266 . S
O342 Tb320 2.658 . S
O342 Tb321 2.325 . S
O342 C329 1.281 . S
O343 Tb320 2.409 . S
O343 C329 1.254 . S
O344 Tb320 2.378 . S
O344 C330 1.236 . S
O345 Tb321 2.341 . S
O345 C330 1.266 . S
O346 Tb321 2.484 . S
O346 C331 1.248 . S
O347 Tb321 2.440 . S
O347 C331 1.266 . S
O348 Tb320 2.325 . S
O348 Tb321 2.658 . S
O348 C338 1.281 . S
O349 Tb321 2.409 . S
O349 C338 1.254 . S
O350 Tb321 2.378 . S
O350 C339 1.236 . S
O351 Tb320 2.341 . S
O351 C339 1.266 . S
H352 C324 0.929 . S
H353 C325 0.931 . S
H354 C327 0.930 . S
H355 C328 0.930 . S
H356 C333 0.929 1_565 S
H357 C334 0.931 . S
H358 C336 0.930 . S
H359 C337 0.930 1_565 S
Tb360 C362 2.809 . S
Tb360 O380 2.484 . S
Tb360 O381 2.440 . S
Tb360 O382 2.658 . S
Tb360 O383 2.409 . S
Tb360 O384 2.378 . S
Tb360 O388 2.325 . S
Tb360 O391 2.341 . S
Tb361 C371 2.809 . S
Tb361 O382 2.325 . S
Tb361 O385 2.341 . S
Tb361 O386 2.484 . S
Tb361 O387 2.440 . S
Tb361 O388 2.658 . S
Tb361 O389 2.409 . S
Tb361 O390 2.378 . S
C362 Tb360 2.809 . S
C362 C363 1.514 . S
C362 O380 1.248 . S
C362 O381 1.266 . S
C363 C362 1.514 . S
C363 C364 1.359 . S
C363 C368 1.348 . S
C364 C363 1.359 . S
C364 C365 1.380 . S
C364 H392 0.929 . S
C365 C364 1.380 . S
C365 C366 1.347 . S
C365 H393 0.931 . S
C366 C365 1.347 . S
C366 C367 1.369 . S
C367 C366 1.369 . S
C367 C368 1.408 . S
C367 H394 0.930 . S
C368 C363 1.348 . S
C368 C367 1.408 . S
C368 H395 0.930 . S
C369 O382 1.281 . S
C369 O383 1.254 . S
C370 O384 1.236 . S
C370 O385 1.266 . S
C371 Tb361 2.809 . S
C371 C372 1.514 . S
C371 O386 1.248 . S
C371 O387 1.266 . S
C372 C371 1.514 . S
C372 C373 1.359 . S
C372 C377 1.348 . S
C373 C372 1.359 . S
C373 C374 1.380 . S
C373 H396 0.929 . S
C374 C373 1.380 . S
C374 C375 1.347 . S
C374 H397 0.931 . S
C375 C374 1.347 . S
C375 C376 1.369 . S
C376 C375 1.369 . S
C376 C377 1.408 . S
C376 H398 0.930 . S
C377 C372 1.348 . S
C377 C376 1.408 . S
C377 H399 0.930 . S
C378 O388 1.281 . S
C378 O389 1.254 . S
C379 O390 1.236 . S
C379 O391 1.266 . S
O380 Tb360 2.484 . S
O380 C362 1.248 . S
O381 Tb360 2.440 . S
O381 C362 1.266 . S
O382 Tb360 2.658 . S
O382 Tb361 2.325 . S
O382 C369 1.281 . S
O383 Tb360 2.409 . S
O383 C369 1.254 . S
O384 Tb360 2.378 . S
O384 C370 1.236 . S
O385 Tb361 2.341 . S
O385 C370 1.266 . S
O386 Tb361 2.484 . S
O386 C371 1.248 . S
O387 Tb361 2.440 . S
O387 C371 1.266 . S
O388 Tb360 2.325 . S
O388 Tb361 2.658 . S
O388 C378 1.281 . S
O389 Tb361 2.409 . S
O389 C378 1.254 . S
O390 Tb361 2.378 . S
O390 C379 1.236 . S
O391 Tb360 2.341 . S
O391 C379 1.266 . S
H392 C364 0.929 . S
H393 C365 0.931 . S
H394 C367 0.930 . S
H395 C368 0.930 . S
H396 C373 0.929 . S
H397 C374 0.931 . S
H398 C376 0.930 . S
H399 C377 0.930 . S
Tb400 C402 2.809 . S
Tb400 O420 2.484 . S
Tb400 O421 2.440 . S
Tb400 O422 2.658 . S
Tb400 O423 2.409 . S
Tb400 O424 2.378 . S
Tb400 O428 2.325 . S
Tb400 O431 2.341 . S
Tb401 C411 2.809 . S
Tb401 O422 2.325 . S
Tb401 O425 2.341 . S
Tb401 O426 2.484 . S
Tb401 O427 2.440 . S
Tb401 O428 2.658 . S
Tb401 O429 2.409 . S
Tb401 O430 2.378 . S
C402 Tb400 2.809 . S
C402 C403 1.514 . S
C402 O420 1.248 . S
C402 O421 1.266 . S
C403 C402 1.514 . S
C403 C404 1.359 . S
C403 C408 1.348 . S
C404 C403 1.359 . S
C404 C405 1.380 . S
C404 H432 0.929 . S
C405 C404 1.380 . S
C405 C406 1.347 . S
C405 H433 0.931 . S
C406 C405 1.347 . S
C406 C407 1.369 . S
C407 C406 1.369 . S
C407 C408 1.408 . S
C407 H434 0.930 . S
C408 C403 1.348 . S
C408 C407 1.408 . S
C408 H435 0.930 . S
C409 O422 1.281 . S
C409 O423 1.254 . S
C410 O424 1.236 . S
C410 O425 1.266 . S
C411 Tb401 2.809 . S
C411 C412 1.514 . S
C411 O426 1.248 . S
C411 O427 1.266 . S
C412 C411 1.514 . S
C412 C413 1.359 . S
C412 C417 1.348 . S
C413 C412 1.359 . S
C413 C414 1.380 . S
C413 H436 0.929 . S
C414 C413 1.380 . S
C414 C415 1.347 . S
C414 H437 0.931 . S
C415 C414 1.347 . S
C415 C416 1.369 . S
C416 C415 1.369 . S
C416 C417 1.408 . S
C416 H438 0.930 . S
C417 C412 1.348 . S
C417 C416 1.408 . S
C417 H439 0.930 . S
C418 O428 1.281 . S
C418 O429 1.254 . S
C419 O430 1.236 . S
C419 O431 1.266 . S
O420 Tb400 2.484 . S
O420 C402 1.248 . S
O421 Tb400 2.440 . S
O421 C402 1.266 . S
O422 Tb400 2.658 . S
O422 Tb401 2.325 . S
O422 C409 1.281 . S
O423 Tb400 2.409 . S
O423 C409 1.254 . S
O424 Tb400 2.378 . S
O424 C410 1.236 . S
O425 Tb401 2.341 . S
O425 C410 1.266 . S
O426 Tb401 2.484 . S
O426 C411 1.248 . S
O427 Tb401 2.440 . S
O427 C411 1.266 . S
O428 Tb400 2.325 . S
O428 Tb401 2.658 . S
O428 C418 1.281 . S
O429 Tb401 2.409 . S
O429 C418 1.254 . S
O430 Tb401 2.378 . S
O430 C419 1.236 . S
O431 Tb400 2.341 . S
O431 C419 1.266 . S
H432 C404 0.929 . S
H433 C405 0.931 . S
H434 C407 0.930 . S
H435 C408 0.930 . S
H436 C413 0.929 . S
H437 C414 0.931 . S
H438 C416 0.930 . S
H439 C417 0.930 . S
Tb440 C442 2.809 . S
Tb440 O460 2.484 . S
Tb440 O461 2.440 . S
Tb440 O462 2.658 . S
Tb440 O463 2.409 . S
Tb440 O464 2.378 . S
Tb440 O468 2.325 . S
Tb440 O471 2.341 . S
Tb441 C451 2.809 . S
Tb441 O462 2.325 . S
Tb441 O465 2.341 . S
Tb441 O466 2.484 . S
Tb441 O467 2.440 . S
Tb441 O468 2.658 . S
Tb441 O469 2.409 . S
Tb441 O470 2.378 . S
C442 Tb440 2.809 . S
C442 C443 1.514 . S
C442 O460 1.248 . S
C442 O461 1.266 . S
C443 C442 1.514 . S
C443 C444 1.359 . S
C443 C448 1.348 . S
C444 C443 1.359 . S
C444 C445 1.380 . S
C444 H472 0.929 . S
C445 C444 1.380 . S
C445 C446 1.347 . S
C445 H473 0.931 . S
C446 C445 1.347 . S
C446 C447 1.369 . S
C447 C446 1.369 . S
C447 C448 1.408 . S
C447 H474 0.930 . S
C448 C443 1.348 . S
C448 C447 1.408 . S
C448 H475 0.930 . S
C449 O462 1.281 . S
C449 O463 1.254 . S
C450 O464 1.236 . S
C450 O465 1.266 . S
C451 Tb441 2.809 . S
C451 C452 1.514 . S
C451 O466 1.248 . S
C451 O467 1.266 . S
C452 C451 1.514 . S
C452 C453 1.359 . S
C452 C457 1.348 . S
C453 C452 1.359 . S
C453 C454 1.380 . S
C453 H476 0.929 . S
C454 C453 1.380 . S
C454 C455 1.347 . S
C454 H477 0.931 . S
C455 C454 1.347 . S
C455 C456 1.369 . S
C456 C455 1.369 . S
C456 C457 1.408 . S
C456 H478 0.930 . S
C457 C452 1.348 . S
C457 C456 1.408 . S
C457 H479 0.930 . S
C458 O468 1.281 . S
C458 O469 1.254 . S
C459 O470 1.236 . S
C459 O471 1.266 . S
O460 Tb440 2.484 . S
O460 C442 1.248 . S
O461 Tb440 2.440 . S
O461 C442 1.266 . S
O462 Tb440 2.658 . S
O462 Tb441 2.325 . S
O462 C449 1.281 . S
O463 Tb440 2.409 . S
O463 C449 1.254 . S
O464 Tb440 2.378 . S
O464 C450 1.236 . S
O465 Tb441 2.341 . S
O465 C450 1.266 . S
O466 Tb441 2.484 . S
O466 C451 1.248 . S
O467 Tb441 2.440 . S
O467 C451 1.266 . S
O468 Tb440 2.325 . S
O468 Tb441 2.658 . S
O468 C458 1.281 . S
O469 Tb441 2.409 . S
O469 C458 1.254 . S
O470 Tb441 2.378 . S
O470 C459 1.236 . S
O471 Tb440 2.341 . S
O471 C459 1.266 . S
H472 C444 0.929 . S
H473 C445 0.931 . S
H474 C447 0.930 . S
H475 C448 0.930 . S
H476 C453 0.929 . S
H477 C454 0.931 . S
H478 C456 0.930 . S
H479 C457 0.930 . S
Tb480 C482 2.809 . S
Tb480 O500 2.484 . S
Tb480 O501 2.440 . S
Tb480 O502 2.658 . S
Tb480 O503 2.409 . S
Tb480 O504 2.378 . S
Tb480 O508 2.325 . S
Tb480 O511 2.341 . S
Tb481 C491 2.809 . S
Tb481 O502 2.325 . S
Tb481 O505 2.341 . S
Tb481 O506 2.484 . S
Tb481 O507 2.440 . S
Tb481 O508 2.658 . S
Tb481 O509 2.409 . S
Tb481 O510 2.378 . S
C482 Tb480 2.809 . S
C482 C483 1.514 . S
C482 O500 1.248 . S
C482 O501 1.266 . S
C483 C482 1.514 . S
C483 C484 1.359 . S
C483 C488 1.348 . S
C484 C483 1.359 . S
C484 C485 1.380 . S
C484 H512 0.929 . S
C485 C484 1.380 . S
C485 C486 1.347 . S
C485 H513 0.931 . S
C486 C485 1.347 . S
C486 C487 1.369 . S
C487 C486 1.369 . S
C487 C488 1.408 . S
C487 H514 0.930 . S
C488 C483 1.348 . S
C488 C487 1.408 . S
C488 H515 0.930 . S
C489 O502 1.281 . S
C489 O503 1.254 . S
C490 O504 1.236 . S
C490 O505 1.266 . S
C491 Tb481 2.809 . S
C491 C492 1.514 . S
C491 O506 1.248 . S
C491 O507 1.266 . S
C492 C491 1.514 . S
C492 C493 1.359 . S
C492 C497 1.348 . S
C493 C492 1.359 . S
C493 C494 1.380 . S
C493 H516 0.929 . S
C494 C493 1.380 . S
C494 C495 1.347 . S
C494 H517 0.931 . S
C495 C494 1.347 . S
C495 C496 1.369 . S
C496 C495 1.369 . S
C496 C497 1.408 . S
C496 H518 0.930 . S
C497 C492 1.348 . S
C497 C496 1.408 . S
C497 H519 0.930 . S
C498 O508 1.281 . S
C498 O509 1.254 . S
C499 O510 1.236 . S
C499 O511 1.266 . S
O500 Tb480 2.484 . S
O500 C482 1.248 . S
O501 Tb480 2.440 . S
O501 C482 1.266 . S
O502 Tb480 2.658 . S
O502 Tb481 2.325 . S
O502 C489 1.281 . S
O503 Tb480 2.409 . S
O503 C489 1.254 . S
O504 Tb480 2.378 . S
O504 C490 1.236 . S
O505 Tb481 2.341 . S
O505 C490 1.266 . S
O506 Tb481 2.484 . S
O506 C491 1.248 . S
O507 Tb481 2.440 . S
O507 C491 1.266 . S
O508 Tb480 2.325 . S
O508 Tb481 2.658 . S
O508 C498 1.281 . S
O509 Tb481 2.409 . S
O509 C498 1.254 . S
O510 Tb481 2.378 . S
O510 C499 1.236 . S
O511 Tb480 2.341 . S
O511 C499 1.266 . S
H512 C484 0.929 . S
H513 C485 0.931 . S
H514 C487 0.930 . S
H515 C488 0.930 . S
H516 C493 0.929 . S
H517 C494 0.931 . S
H518 C496 0.930 . S
H519 C497 0.930 . S
Tb520 C522 2.809 . S
Tb520 O540 2.484 . S
Tb520 O541 2.440 . S
Tb520 O542 2.658 . S
Tb520 O543 2.409 . S
Tb520 O544 2.378 . S
Tb520 O548 2.325 . S
Tb520 O551 2.341 . S
Tb521 C531 2.809 . S
Tb521 O542 2.325 . S
Tb521 O545 2.341 . S
Tb521 O546 2.484 . S
Tb521 O547 2.440 . S
Tb521 O548 2.658 . S
Tb521 O549 2.409 . S
Tb521 O550 2.378 . S
C522 Tb520 2.809 . S
C522 C523 1.514 . S
C522 O540 1.248 . S
C522 O541 1.266 . S
C523 C522 1.514 . S
C523 C524 1.359 . S
C523 C528 1.348 . S
C524 C523 1.359 . S
C524 C525 1.380 . S
C524 H552 0.929 . S
C525 C524 1.380 . S
C525 C526 1.347 . S
C525 H553 0.931 . S
C526 C525 1.347 . S
C526 C527 1.369 . S
C527 C526 1.369 . S
C527 C528 1.408 . S
C527 H554 0.930 . S
C528 C523 1.348 . S
C528 C527 1.408 . S
C528 H555 0.930 . S
C529 O542 1.281 . S
C529 O543 1.254 . S
C530 O544 1.236 . S
C530 O545 1.266 . S
C531 Tb521 2.809 . S
C531 C532 1.514 . S
C531 O546 1.248 . S
C531 O547 1.266 . S
C532 C531 1.514 . S
C532 C533 1.359 . S
C532 C537 1.348 . S
C533 C532 1.359 . S
C533 C534 1.380 . S
C533 H556 0.929 . S
C534 C533 1.380 . S
C534 C535 1.347 . S
C534 H557 0.931 . S
C535 C534 1.347 . S
C535 C536 1.369 . S
C536 C535 1.369 . S
C536 C537 1.408 . S
C536 H558 0.930 . S
C537 C532 1.348 . S
C537 C536 1.408 . S
C537 H559 0.930 . S
C538 O548 1.281 . S
C538 O549 1.254 . S
C539 O550 1.236 . S
C539 O551 1.266 . S
O540 Tb520 2.484 . S
O540 C522 1.248 . S
O541 Tb520 2.440 . S
O541 C522 1.266 . S
O542 Tb520 2.658 . S
O542 Tb521 2.325 . S
O542 C529 1.281 . S
O543 Tb520 2.409 . S
O543 C529 1.254 . S
O544 Tb520 2.378 . S
O544 C530 1.236 . S
O545 Tb521 2.341 . S
O545 C530 1.266 . S
O546 Tb521 2.484 . S
O546 C531 1.248 . S
O547 Tb521 2.440 . S
O547 C531 1.266 . S
O548 Tb520 2.325 . S
O548 Tb521 2.658 . S
O548 C538 1.281 . S
O549 Tb521 2.409 . S
O549 C538 1.254 . S
O550 Tb521 2.378 . S
O550 C539 1.236 . S
O551 Tb520 2.341 . S
O551 C539 1.266 . S
H552 C524 0.929 . S
H553 C525 0.931 . S
H554 C527 0.930 . S
H555 C528 0.930 . S
H556 C533 0.929 . S
H557 C534 0.931 . S
H558 C536 0.930 . S
H559 C537 0.930 . S
Tb560 C562 2.809 . S
Tb560 O580 2.484 . S
Tb560 O581 2.440 . S
Tb560 O582 2.658 . S
Tb560 O583 2.409 . S
Tb560 O584 2.378 . S
Tb560 O588 2.325 . S
Tb560 O591 2.341 . S
Tb561 C571 2.809 . S
Tb561 O582 2.325 . S
Tb561 O585 2.341 . S
Tb561 O586 2.484 . S
Tb561 O587 2.440 . S
Tb561 O588 2.658 . S
Tb561 O589 2.409 . S
Tb561 O590 2.378 . S
C562 Tb560 2.809 . S
C562 C563 1.514 . S
C562 O580 1.248 . S
C562 O581 1.266 . S
C563 C562 1.514 . S
C563 C564 1.359 . S
C563 C568 1.348 . S
C564 C563 1.359 . S
C564 C565 1.380 . S
C564 H592 0.929 . S
C565 C564 1.380 . S
C565 C566 1.347 . S
C565 H593 0.931 . S
C566 C565 1.347 . S
C566 C567 1.369 . S
C567 C566 1.369 . S
C567 C568 1.408 . S
C567 H594 0.930 . S
C568 C563 1.348 . S
C568 C567 1.408 . S
C568 H595 0.930 . S
C569 O582 1.281 . S
C569 O583 1.254 . S
C570 O584 1.236 . S
C570 O585 1.266 . S
C571 Tb561 2.809 . S
C571 C572 1.514 . S
C571 O586 1.248 . S
C571 O587 1.266 . S
C572 C571 1.514 . S
C572 C573 1.359 . S
C572 C577 1.348 . S
C573 C572 1.359 . S
C573 C574 1.380 . S
C573 H596 0.929 . S
C574 C573 1.380 . S
C574 C575 1.347 . S
C574 H597 0.931 . S
C575 C574 1.347 . S
C575 C576 1.369 . S
C576 C575 1.369 . S
C576 C577 1.408 . S
C576 H598 0.930 . S
C577 C572 1.348 . S
C577 C576 1.408 . S
C577 H599 0.930 . S
C578 O588 1.281 . S
C578 O589 1.254 . S
C579 O590 1.236 . S
C579 O591 1.266 . S
O580 Tb560 2.484 . S
O580 C562 1.248 . S
O581 Tb560 2.440 . S
O581 C562 1.266 . S
O582 Tb560 2.658 . S
O582 Tb561 2.325 . S
O582 C569 1.281 . S
O583 Tb560 2.409 . S
O583 C569 1.254 . S
O584 Tb560 2.378 . S
O584 C570 1.236 . S
O585 Tb561 2.341 . S
O585 C570 1.266 . S
O586 Tb561 2.484 . S
O586 C571 1.248 . S
O587 Tb561 2.440 . S
O587 C571 1.266 . S
O588 Tb560 2.325 . S
O588 Tb561 2.658 . S
O588 C578 1.281 . S
O589 Tb561 2.409 . S
O589 C578 1.254 . S
O590 Tb561 2.378 . S
O590 C579 1.236 . S
O591 Tb560 2.341 . S
O591 C579 1.266 . S
H592 C564 0.929 . S
H593 C565 0.931 . S
H594 C567 0.930 . S
H595 C568 0.930 . S
H596 C573 0.929 . S
H597 C574 0.931 . S
H598 C576 0.930 . S
H599 C577 0.930 . S
Tb600 C602 2.809 . S
Tb600 O620 2.484 . S
Tb600 O621 2.440 . S
Tb600 O622 2.658 . S
Tb600 O623 2.409 . S
Tb600 O624 2.378 . S
Tb600 O628 2.325 . S
Tb600 O631 2.341 . S
Tb601 C611 2.809 . S
Tb601 O622 2.325 . S
Tb601 O625 2.341 . S
Tb601 O626 2.484 . S
Tb601 O627 2.440 . S
Tb601 O628 2.658 . S
Tb601 O629 2.409 . S
Tb601 O630 2.378 . S
C602 Tb600 2.809 . S
C602 C603 1.514 . S
C602 O620 1.248 . S
C602 O621 1.266 . S
C603 C602 1.514 . S
C603 C604 1.359 . S
C603 C608 1.348 . S
C604 C603 1.359 . S
C604 C605 1.380 . S
C604 H632 0.929 . S
C605 C604 1.380 . S
C605 C606 1.347 . S
C605 H633 0.931 . S
C606 C605 1.347 . S
C606 C607 1.369 . S
C607 C606 1.369 . S
C607 C608 1.408 . S
C607 H634 0.930 . S
C608 C603 1.348 . S
C608 C607 1.408 . S
C608 H635 0.930 . S
C609 O622 1.281 . S
C609 O623 1.254 . S
C610 O624 1.236 . S
C610 O625 1.266 . S
C611 Tb601 2.809 . S
C611 C612 1.514 . S
C611 O626 1.248 . S
C611 O627 1.266 . S
C612 C611 1.514 . S
C612 C613 1.359 . S
C612 C617 1.348 . S
C613 C612 1.359 . S
C613 C614 1.379 . S
C613 H636 0.929 . S
C614 C613 1.379 . S
C614 C615 1.348 1_545 S
C614 H637 0.931 1_545 S
C615 C614 1.348 1_565 S
C615 C616 1.369 . S
C616 C615 1.369 . S
C616 C617 1.408 1_565 S
C616 H638 0.930 . S
C617 C612 1.348 . S
C617 C616 1.408 1_545 S
C617 H639 0.930 . S
C618 O628 1.281 . S
C618 O629 1.254 . S
C619 O630 1.236 . S
C619 O631 1.266 . S
O620 Tb600 2.484 . S
O620 C602 1.248 . S
O621 Tb600 2.440 . S
O621 C602 1.266 . S
O622 Tb600 2.658 . S
O622 Tb601 2.325 . S
O622 C609 1.281 . S
O623 Tb600 2.409 . S
O623 C609 1.254 . S
O624 Tb600 2.378 . S
O624 C610 1.236 . S
O625 Tb601 2.341 . S
O625 C610 1.266 . S
O626 Tb601 2.484 . S
O626 C611 1.248 . S
O627 Tb601 2.440 . S
O627 C611 1.266 . S
O628 Tb600 2.325 . S
O628 Tb601 2.658 . S
O628 C618 1.281 . S
O629 Tb601 2.409 . S
O629 C618 1.254 . S
O630 Tb601 2.378 . S
O630 C619 1.236 . S
O631 Tb600 2.341 . S
O631 C619 1.266 . S
H632 C604 0.929 . S
H633 C605 0.931 . S
H634 C607 0.930 . S
H635 C608 0.930 . S
H636 C613 0.929 . S
H637 C614 0.931 1_565 S
H638 C616 0.930 . S
H639 C617 0.930 . S
Tb640 C642 2.809 . S
Tb640 O660 2.484 . S
Tb640 O661 2.440 . S
Tb640 O662 2.658 . S
Tb640 O663 2.409 . S
Tb640 O664 2.378 . S
Tb640 O668 2.325 . S
Tb640 O671 2.341 . S
Tb641 C651 2.809 . S
Tb641 O662 2.325 . S
Tb641 O665 2.341 . S
Tb641 O666 2.484 . S
Tb641 O667 2.440 . S
Tb641 O668 2.658 . S
Tb641 O669 2.409 . S
Tb641 O670 2.378 . S
C642 Tb640 2.809 . S
C642 C643 1.514 . S
C642 O660 1.248 . S
C642 O661 1.266 . S
C643 C642 1.514 . S
C643 C644 1.359 . S
C643 C648 1.348 . S
C644 C643 1.359 . S
C644 C645 1.380 . S
C644 H672 0.929 . S
C645 C644 1.380 . S
C645 C646 1.347 . S
C645 H673 0.931 . S
C646 C645 1.347 . S
C646 C647 1.369 . S
C647 C646 1.369 . S
C647 C648 1.408 . S
C647 H674 0.930 . S
C648 C643 1.348 . S
C648 C647 1.408 . S
C648 H675 0.930 . S
C649 O662 1.281 . S
C649 O663 1.254 . S
C650 O664 1.236 . S
C650 O665 1.266 . S
C651 Tb641 2.809 . S
C651 C652 1.514 . S
C651 O666 1.248 . S
C651 O667 1.266 . S
C652 C651 1.514 . S
C652 C653 1.359 1_655 S
C652 C657 1.348 1_655 S
C653 C652 1.359 1_455 S
C653 C654 1.380 . S
C653 H676 0.929 1_455 S
C654 C653 1.380 . S
C654 C655 1.347 . S
C654 H677 0.931 . S
C655 C654 1.347 . S
C655 C656 1.369 . S
C656 C655 1.369 . S
C656 C657 1.408 . S
C656 H678 0.930 . S
C657 C652 1.348 1_455 S
C657 C656 1.408 . S
C657 H679 0.930 1_455 S
C658 O668 1.281 . S
C658 O669 1.254 . S
C659 O670 1.236 . S
C659 O671 1.266 . S
O660 Tb640 2.484 . S
O660 C642 1.248 . S
O661 Tb640 2.440 . S
O661 C642 1.266 . S
O662 Tb640 2.658 . S
O662 Tb641 2.325 . S
O662 C649 1.281 . S
O663 Tb640 2.409 . S
O663 C649 1.254 . S
O664 Tb640 2.378 . S
O664 C650 1.236 . S
O665 Tb641 2.341 . S
O665 C650 1.266 . S
O666 Tb641 2.484 . S
O666 C651 1.248 . S
O667 Tb641 2.440 . S
O667 C651 1.266 . S
O668 Tb640 2.325 . S
O668 Tb641 2.658 . S
O668 C658 1.281 . S
O669 Tb641 2.409 . S
O669 C658 1.254 . S
O670 Tb641 2.378 . S
O670 C659 1.236 . S
O671 Tb640 2.341 . S
O671 C659 1.266 . S
H672 C644 0.929 . S
H673 C645 0.931 . S
H674 C647 0.930 . S
H675 C648 0.930 . S
H676 C653 0.929 1_655 S
H677 C654 0.931 . S
H678 C656 0.930 . S
H679 C657 0.930 1_655 S
Tb680 C682 2.809 . S
Tb680 O700 2.484 . S
Tb680 O701 2.440 . S
Tb680 O702 2.658 . S
Tb680 O703 2.409 . S
Tb680 O704 2.378 . S
Tb680 O708 2.325 . S
Tb680 O711 2.341 . S
Tb681 C691 2.809 . S
Tb681 O702 2.325 . S
Tb681 O705 2.341 . S
Tb681 O706 2.484 . S
Tb681 O707 2.440 . S
Tb681 O708 2.658 . S
Tb681 O709 2.409 . S
Tb681 O710 2.378 . S
C682 Tb680 2.809 . S
C682 C683 1.514 . S
C682 O700 1.248 . S
C682 O701 1.266 . S
C683 C682 1.514 . S
C683 C684 1.359 . S
C683 C688 1.348 . S
C684 C683 1.359 . S
C684 C685 1.380 . S
C684 H712 0.929 . S
C685 C684 1.380 . S
C685 C686 1.347 . S
C685 H713 0.931 . S
C686 C685 1.347 . S
C686 C687 1.369 . S
C687 C686 1.369 . S
C687 C688 1.408 . S
C687 H714 0.930 . S
C688 C683 1.348 . S
C688 C687 1.408 . S
C688 H715 0.930 . S
C689 O702 1.281 . S
C689 O703 1.254 . S
C690 O704 1.236 . S
C690 O705 1.266 . S
C691 Tb681 2.809 . S
C691 C692 1.514 . S
C691 O706 1.248 . S
C691 O707 1.266 . S
C692 C691 1.514 . S
C692 C693 1.359 . S
C692 C697 1.348 . S
C693 C692 1.359 . S
C693 C694 1.380 . S
C693 H716 0.929 . S
C694 C693 1.380 . S
C694 C695 1.347 . S
C694 H717 0.931 . S
C695 C694 1.347 . S
C695 C696 1.369 . S
C696 C695 1.369 . S
C696 C697 1.408 . S
C696 H718 0.930 . S
C697 C692 1.348 . S
C697 C696 1.408 . S
C697 H719 0.930 . S
C698 O708 1.281 . S
C698 O709 1.254 . S
C699 O710 1.236 . S
C699 O711 1.266 . S
O700 Tb680 2.484 . S
O700 C682 1.248 . S
O701 Tb680 2.440 . S
O701 C682 1.266 . S
O702 Tb680 2.658 . S
O702 Tb681 2.325 . S
O702 C689 1.281 . S
O703 Tb680 2.409 . S
O703 C689 1.254 . S
O704 Tb680 2.378 . S
O704 C690 1.236 . S
O705 Tb681 2.341 . S
O705 C690 1.266 . S
O706 Tb681 2.484 . S
O706 C691 1.248 . S
O707 Tb681 2.440 . S
O707 C691 1.266 . S
O708 Tb680 2.325 . S
O708 Tb681 2.658 . S
O708 C698 1.281 . S
O709 Tb681 2.409 . S
O709 C698 1.254 . S
O710 Tb681 2.378 . S
O710 C699 1.236 . S
O711 Tb680 2.341 . S
O711 C699 1.266 . S
H712 C684 0.929 . S
H713 C685 0.931 . S
H714 C687 0.930 . S
H715 C688 0.930 . S
H716 C693 0.929 . S
H717 C694 0.931 . S
H718 C696 0.930 . S
H719 C697 0.930 . S
C720 C721 1.349 . S
C720 C722 1.327 . S
C720 H745 0.950 . S
C721 C720 1.349 . S
C721 C737 1.349 . S
C722 C720 1.327 . S
C722 C741 1.429 . S
C722 H746 0.950 . S
C723 C740 1.574 . S
C723 C742 1.368 . S
C723 H747 0.949 . S
H724 C728 0.949 . S
C725 C726 1.349 . S
C725 C727 1.327 . S
C725 H748 0.950 . S
C726 C725 1.349 . S
C726 C738 1.349 . S
C727 C725 1.327 . S
C727 C743 1.429 . S
C727 H749 0.950 . S
C728 H724 0.949 . S
C728 C736 1.574 . S
C728 C744 1.368 . S
H729 C737 0.950 . S
H730 C735 0.950 . S
H731 C736 0.949 . S
H732 C738 0.950 . S
H733 C739 0.950 . S
H734 C740 0.949 . S
C735 H730 0.950 . S
C735 C737 1.327 . S
C735 C741 1.429 . S
C736 C728 1.574 . S
C736 H731 0.949 . S
C736 C742 1.368 . S
C737 C721 1.349 . S
C737 H729 0.950 . S
C737 C735 1.327 . S
C738 C726 1.349 . S
C738 H732 0.950 . S
C738 C739 1.327 . S
C739 H733 0.950 . S
C739 C738 1.327 . S
C739 C743 1.429 . S
C740 C723 1.574 . S
C740 H734 0.949 . S
C740 C744 1.368 . S
C741 C722 1.429 . S
C741 C735 1.429 . S
C741 C742 1.523 . S
C742 C723 1.368 . S
C742 C736 1.368 . S
C742 C741 1.523 . S
C743 C727 1.429 . S
C743 C739 1.429 . S
C743 C744 1.523 . S
C744 C728 1.368 . S
C744 C740 1.368 . S
C744 C743 1.523 . S
H745 C720 0.950 . S
H746 C722 0.950 . S
H747 C723 0.949 . S
H748 C725 0.950 . S
H749 C727 0.950 . S
C750 C751 1.349 . S
C750 C752 1.327 . S
C750 H775 0.950 . S
C751 C750 1.349 . S
C751 C767 1.349 . S
C752 C750 1.327 . S
C752 C771 1.429 . S
C752 H776 0.950 . S
C753 C770 1.574 . S
C753 C772 1.368 . S
C753 H777 0.949 . S
H754 C758 0.949 . S
C755 C756 1.349 . S
C755 C757 1.327 . S
C755 H778 0.950 . S
C756 C755 1.349 . S
C756 C768 1.349 . S
C757 C755 1.327 . S
C757 C773 1.429 . S
C757 H779 0.950 . S
C758 H754 0.949 . S
C758 C766 1.574 . S
C758 C774 1.368 . S
H759 C767 0.950 . S
H760 C765 0.950 . S
H761 C766 0.949 . S
H762 C768 0.950 . S
H763 C769 0.950 . S
H764 C770 0.949 . S
C765 H760 0.950 . S
C765 C767 1.327 . S
C765 C771 1.429 . S
C766 C758 1.574 . S
C766 H761 0.949 . S
C766 C772 1.368 . S
C767 C751 1.349 . S
C767 H759 0.950 . S
C767 C765 1.327 . S
C768 C756 1.349 . S
C768 H762 0.950 . S
C768 C769 1.327 . S
C769 H763 0.950 . S
C769 C768 1.327 . S
C769 C773 1.429 . S
C770 C753 1.574 . S
C770 H764 0.949 . S
C770 C774 1.368 . S
C771 C752 1.429 . S
C771 C765 1.429 . S
C771 C772 1.523 . S
C772 C753 1.368 . S
C772 C766 1.368 . S
C772 C771 1.523 . S
C773 C757 1.429 . S
C773 C769 1.429 . S
C773 C774 1.523 . S
C774 C758 1.368 . S
C774 C770 1.368 . S
C774 C773 1.523 . S
H775 C750 0.950 . S
H776 C752 0.950 . S
H777 C753 0.949 . S
H778 C755 0.950 . S
H779 C757 0.950 . S
C780 C781 1.349 . S
C780 C782 1.327 . S
C780 H805 0.950 . S
C781 C780 1.349 . S
C781 C797 1.349 . S
C782 C780 1.327 . S
C782 C801 1.429 . S
C782 H806 0.950 . S
C783 C800 1.574 . S
C783 C802 1.368 . S
C783 H807 0.949 . S
H784 C788 0.949 . S
C785 C786 1.349 . S
C785 C787 1.327 . S
C785 H808 0.950 . S
C786 C785 1.349 . S
C786 C798 1.349 . S
C787 C785 1.327 . S
C787 C803 1.429 . S
C787 H809 0.950 . S
C788 H784 0.949 . S
C788 C796 1.574 . S
C788 C804 1.368 . S
H789 C797 0.950 . S
H790 C795 0.950 . S
H791 C796 0.949 . S
H792 C798 0.950 . S
H793 C799 0.950 . S
H794 C800 0.949 . S
C795 H790 0.950 . S
C795 C797 1.327 . S
C795 C801 1.429 . S
C796 C788 1.574 . S
C796 H791 0.949 . S
C796 C802 1.368 . S
C797 C781 1.349 . S
C797 H789 0.950 . S
C797 C795 1.327 . S
C798 C786 1.349 . S
C798 H792 0.950 . S
C798 C799 1.327 . S
C799 H793 0.950 . S
C799 C798 1.327 . S
C799 C803 1.429 . S
C800 C783 1.574 . S
C800 H794 0.949 . S
C800 C804 1.368 . S
C801 C782 1.429 . S
C801 C795 1.429 . S
C801 C802 1.523 . S
C802 C783 1.368 . S
C802 C796 1.368 . S
C802 C801 1.523 . S
C803 C787 1.429 . S
C803 C799 1.429 . S
C803 C804 1.523 . S
C804 C788 1.368 . S
C804 C800 1.368 . S
C804 C803 1.523 . S
H805 C780 0.950 . S
H806 C782 0.950 . S
H807 C783 0.949 . S
H808 C785 0.950 . S
H809 C787 0.950 . S
C810 C811 1.349 . S
C810 C812 1.327 . S
C810 H835 0.950 . S
C811 C810 1.349 . S
C811 C827 1.349 . S
C812 C810 1.327 . S
C812 C831 1.429 . S
C812 H836 0.950 . S
C813 C830 1.574 . S
C813 C832 1.368 . S
C813 H837 0.949 . S
H814 C818 0.949 . S
C815 C816 1.349 . S
C815 C817 1.327 . S
C815 H838 0.950 . S
C816 C815 1.349 . S
C816 C828 1.349 . S
C817 C815 1.327 . S
C817 C833 1.429 . S
C817 H839 0.950 . S
C818 H814 0.949 . S
C818 C826 1.574 . S
C818 C834 1.368 . S
H819 C827 0.950 . S
H820 C825 0.950 . S
H821 C826 0.949 . S
H822 C828 0.950 . S
H823 C829 0.950 . S
H824 C830 0.949 . S
C825 H820 0.950 . S
C825 C827 1.327 . S
C825 C831 1.429 . S
C826 C818 1.574 . S
C826 H821 0.949 . S
C826 C832 1.368 . S
C827 C811 1.349 . S
C827 H819 0.950 . S
C827 C825 1.327 . S
C828 C816 1.349 . S
C828 H822 0.950 . S
C828 C829 1.327 . S
C829 H823 0.950 . S
C829 C828 1.327 . S
C829 C833 1.429 . S
C830 C813 1.574 . S
C830 H824 0.949 . S
C830 C834 1.368 . S
C831 C812 1.429 . S
C831 C825 1.429 . S
C831 C832 1.523 . S
C832 C813 1.368 . S
C832 C826 1.368 . S
C832 C831 1.523 . S
C833 C817 1.429 . S
C833 C829 1.429 . S
C833 C834 1.523 . S
C834 C818 1.368 . S
C834 C830 1.368 . S
C834 C833 1.523 . S
H835 C810 0.950 . S
H836 C812 0.950 . S
H837 C813 0.949 . S
H838 C815 0.950 . S
H839 C817 0.950 . S
C840 C841 1.349 . S
C840 C842 1.327 . S
C840 H865 0.950 . S
C841 C840 1.349 . S
C841 C857 1.349 . S
C842 C840 1.327 . S
C842 C861 1.429 . S
C842 H866 0.950 . S
C843 C860 1.574 . S
C843 C862 1.368 . S
C843 H867 0.949 . S
H844 C848 0.949 . S
C845 C846 1.349 . S
C845 C847 1.327 . S
C845 H868 0.950 . S
C846 C845 1.349 . S
C846 C858 1.349 . S
C847 C845 1.327 . S
C847 C863 1.429 . S
C847 H869 0.950 . S
C848 H844 0.949 . S
C848 C856 1.574 . S
C848 C864 1.368 . S
H849 C857 0.950 . S
H850 C855 0.950 . S
H851 C856 0.949 . S
H852 C858 0.950 . S
H853 C859 0.950 . S
H854 C860 0.949 . S
C855 H850 0.950 . S
C855 C857 1.327 . S
C855 C861 1.429 . S
C856 C848 1.574 . S
C856 H851 0.949 . S
C856 C862 1.368 . S
C857 C841 1.349 . S
C857 H849 0.950 . S
C857 C855 1.327 . S
C858 C846 1.349 . S
C858 H852 0.950 . S
C858 C859 1.327 . S
C859 H853 0.950 . S
C859 C858 1.327 . S
C859 C863 1.429 . S
C860 C843 1.574 . S
C860 H854 0.949 . S
C860 C864 1.368 . S
C861 C842 1.429 . S
C861 C855 1.429 . S
C861 C862 1.523 . S
C862 C843 1.368 . S
C862 C856 1.368 . S
C862 C861 1.523 . S
C863 C847 1.429 . S
C863 C859 1.429 . S
C863 C864 1.523 . S
C864 C848 1.368 . S
C864 C860 1.368 . S
C864 C863 1.523 . S
H865 C840 0.950 . S
H866 C842 0.950 . S
H867 C843 0.949 . S
H868 C845 0.950 . S
H869 C847 0.950 . S
C870 C871 1.349 . S
C870 C872 1.327 . S
C870 H895 0.950 . S
C871 C870 1.349 . S
C871 C887 1.349 . S
C872 C870 1.327 . S
C872 C891 1.429 . S
C872 H896 0.950 . S
C873 C890 1.574 . S
C873 C892 1.368 . S
C873 H897 0.949 . S
H874 C878 0.949 . S
C875 C876 1.349 . S
C875 C877 1.327 . S
C875 H898 0.950 . S
C876 C875 1.349 . S
C876 C888 1.349 . S
C877 C875 1.327 . S
C877 C893 1.429 . S
C877 H899 0.950 . S
C878 H874 0.949 . S
C878 C886 1.574 . S
C878 C894 1.368 . S
H879 C887 0.950 . S
H880 C885 0.950 . S
H881 C886 0.949 . S
H882 C888 0.950 . S
H883 C889 0.950 . S
H884 C890 0.949 . S
C885 H880 0.950 . S
C885 C887 1.327 . S
C885 C891 1.429 . S
C886 C878 1.574 . S
C886 H881 0.949 . S
C886 C892 1.368 . S
C887 C871 1.349 . S
C887 H879 0.950 . S
C887 C885 1.327 . S
C888 C876 1.349 . S
C888 H882 0.950 . S
C888 C889 1.327 . S
C889 H883 0.950 . S
C889 C888 1.327 . S
C889 C893 1.429 . S
C890 C873 1.574 . S
C890 H884 0.949 . S
C890 C894 1.368 . S
C891 C872 1.429 . S
C891 C885 1.429 . S
C891 C892 1.523 . S
C892 C873 1.368 . S
C892 C886 1.368 . S
C892 C891 1.523 . S
C893 C877 1.429 . S
C893 C889 1.429 . S
C893 C894 1.523 . S
C894 C878 1.368 . S
C894 C890 1.368 . S
C894 C893 1.523 . S
H895 C870 0.950 . S
H896 C872 0.950 . S
H897 C873 0.949 . S
H898 C875 0.950 . S
H899 C877 0.950 . S
C900 C901 1.349 . S
C900 C902 1.327 . S
C900 H925 0.950 . S
C901 C900 1.349 . S
C901 C917 1.349 . S
C902 C900 1.327 . S
C902 C921 1.429 . S
C902 H926 0.950 . S
C903 C920 1.574 . S
C903 C922 1.368 . S
C903 H927 0.949 . S
H904 C908 0.949 . S
C905 C906 1.349 . S
C905 C907 1.327 . S
C905 H928 0.950 . S
C906 C905 1.349 . S
C906 C918 1.349 . S
C907 C905 1.327 . S
C907 C923 1.429 . S
C907 H929 0.950 . S
C908 H904 0.949 . S
C908 C916 1.574 . S
C908 C924 1.368 . S
H909 C917 0.950 . S
H910 C915 0.950 . S
H911 C916 0.949 . S
H912 C918 0.950 . S
H913 C919 0.950 . S
H914 C920 0.949 . S
C915 H910 0.950 . S
C915 C917 1.327 . S
C915 C921 1.429 . S
C916 C908 1.574 . S
C916 H911 0.949 . S
C916 C922 1.368 . S
C917 C901 1.349 . S
C917 H909 0.950 . S
C917 C915 1.327 . S
C918 C906 1.349 . S
C918 H912 0.950 . S
C918 C919 1.327 . S
C919 H913 0.950 . S
C919 C918 1.327 . S
C919 C923 1.429 . S
C920 C903 1.574 . S
C920 H914 0.949 . S
C920 C924 1.368 . S
C921 C902 1.429 . S
C921 C915 1.429 . S
C921 C922 1.523 . S
C922 C903 1.368 . S
C922 C916 1.368 . S
C922 C921 1.523 . S
C923 C907 1.429 . S
C923 C919 1.429 . S
C923 C924 1.523 . S
C924 C908 1.368 . S
C924 C920 1.368 . S
C924 C923 1.523 . S
H925 C900 0.950 . S
H926 C902 0.950 . S
H927 C903 0.949 . S
H928 C905 0.950 . S
H929 C907 0.950 . S
C930 C931 1.349 . S
C930 C932 1.327 . S
C930 H955 0.950 . S
C931 C930 1.349 . S
C931 C947 1.349 . S
C932 C930 1.327 . S
C932 C951 1.429 . S
C932 H956 0.950 . S
C933 C950 1.574 . S
C933 C952 1.368 . S
C933 H957 0.949 . S
H934 C938 0.949 . S
C935 C936 1.349 . S
C935 C937 1.327 . S
C935 H958 0.950 . S
C936 C935 1.349 . S
C936 C948 1.349 . S
C937 C935 1.327 . S
C937 C953 1.429 . S
C937 H959 0.950 . S
C938 H934 0.949 . S
C938 C946 1.574 1_565 S
C938 C954 1.368 . S
H939 C947 0.950 . S
H940 C945 0.950 . S
H941 C946 0.949 . S
H942 C948 0.950 . S
H943 C949 0.950 . S
H944 C950 0.949 . S
C945 H940 0.950 . S
C945 C947 1.327 . S
C945 C951 1.429 . S
C946 C938 1.574 1_545 S
C946 H941 0.949 . S
C946 C952 1.368 . S
C947 C931 1.349 . S
C947 H939 0.950 . S
C947 C945 1.327 . S
C948 C936 1.349 . S
C948 H942 0.950 . S
C948 C949 1.327 . S
C949 H943 0.950 . S
C949 C948 1.327 . S
C949 C953 1.429 . S
C950 C933 1.574 . S
C950 H944 0.949 . S
C950 C954 1.368 1_545 S
C951 C932 1.429 . S
C951 C945 1.429 . S
C951 C952 1.523 . S
C952 C933 1.368 . S
C952 C946 1.368 . S
C952 C951 1.523 . S
C953 C937 1.429 . S
C953 C949 1.429 . S
C953 C954 1.523 . S
C954 C938 1.368 . S
C954 C950 1.368 1_565 S
C954 C953 1.523 . S
H955 C930 0.950 . S
H956 C932 0.950 . S
H957 C933 0.949 . S
H958 C935 0.950 . S
H959 C937 0.950 . S
C960 C961 1.349 . S
C960 C962 1.327 . S
C960 H985 0.950 . S
C961 C960 1.349 . S
C961 C977 1.349 . S
C962 C960 1.327 . S
C962 C981 1.429 . S
C962 H986 0.950 . S
C963 C980 1.532 1_455 S
C963 C982 1.368 . S
C963 H987 0.949 . S
H964 C968 0.949 . S
C965 C966 1.349 . S
C965 C967 1.327 . S
C965 H988 0.950 . S
C966 C965 1.349 . S
C966 C978 1.349 . S
C967 C965 1.327 . S
C967 C983 1.429 . S
C967 H989 0.950 . S
C968 H964 0.949 . S
C968 C976 1.574 1_655 S
C968 C984 1.368 . S
H969 C977 0.950 . S
H970 C975 0.950 . S
H971 C976 0.949 . S
H972 C978 0.950 . S
H973 C979 0.950 . S
H974 C980 0.974 . S
C975 H970 0.950 . S
C975 C977 1.327 . S
C975 C981 1.429 . S
C976 C968 1.574 1_455 S
C976 H971 0.949 . S
C976 C982 1.368 . S
C977 C961 1.349 . S
C977 H969 0.950 . S
C977 C975 1.327 . S
C978 C966 1.349 . S
C978 H972 0.950 . S
C978 C979 1.327 . S
C979 H973 0.950 . S
C979 C978 1.327 . S
C979 C983 1.429 . S
C980 C963 1.532 1_655 S
C980 H974 0.974 . S
C980 C984 1.383 . S
C981 C962 1.429 . S
C981 C975 1.429 . S
C981 C982 1.523 . S
C982 C963 1.368 . S
C982 C976 1.368 . S
C982 C981 1.523 . S
C983 C967 1.429 . S
C983 C979 1.429 . S
C983 C984 1.523 . S
C984 C968 1.368 . S
C984 C980 1.383 . S
C984 C983 1.523 . S
H985 C960 0.950 . S
H986 C962 0.950 . S
H987 C963 0.949 . S
H988 C965 0.950 . S
H989 C967 0.950 . S
C990 C991 1.349 . S
C990 C992 1.327 . S
C990 H1015 0.950 . S
C991 C990 1.349 . S
C991 C1007 1.349 . S
C992 C990 1.327 . S
C992 C1011 1.429 . S
C992 H1016 0.950 . S
C993 C1010 1.574 . S
C993 C1012 1.368 . S
C993 H1017 0.949 . S
H994 C998 0.949 . S
C995 C996 1.349 . S
C995 C997 1.327 . S
C995 H1018 0.950 . S
C996 C995 1.349 . S
C996 C1008 1.349 . S
C997 C995 1.327 . S
C997 C1013 1.429 . S
C997 H1019 0.950 . S
C998 H994 0.949 . S
C998 C1006 1.574 . S
C998 C1014 1.368 . S
H999 C1007 0.950 . S
H1000 C1005 0.950 . S
H1001 C1006 0.949 . S
H1002 C1008 0.950 . S
H1003 C1009 0.950 . S
H1004 C1010 0.949 . S
C1005 H1000 0.950 . S
C1005 C1007 1.327 . S
C1005 C1011 1.429 . S
C1006 C998 1.574 . S
C1006 H1001 0.949 . S
C1006 C1012 1.368 . S
C1007 C991 1.349 . S
C1007 H999 0.950 . S
C1007 C1005 1.327 . S
C1008 C996 1.349 . S
C1008 H1002 0.950 . S
C1008 C1009 1.327 . S
C1009 H1003 0.950 . S
C1009 C1008 1.327 . S
C1009 C1013 1.429 . S
C1010 C993 1.574 . S
C1010 H1004 0.949 . S
C1010 C1014 1.368 . S
C1011 C992 1.429 . S
C1011 C1005 1.429 . S
C1011 C1012 1.523 . S
C1012 C993 1.368 . S
C1012 C1006 1.368 . S
C1012 C1011 1.523 . S
C1013 C997 1.429 . S
C1013 C1009 1.429 . S
C1013 C1014 1.523 . S
C1014 C998 1.368 . S
C1014 C1010 1.368 . S
C1014 C1013 1.523 . S
H1015 C990 0.950 . S
H1016 C992 0.950 . S
H1017 C993 0.949 . S
H1018 C995 0.950 . S
H1019 C997 0.950 . S
C1020 C1021 1.349 . S
C1020 C1022 1.327 . S
C1020 H1045 0.950 . S
C1021 C1020 1.349 . S
C1021 C1037 1.349 . S
C1022 C1020 1.327 . S
C1022 C1041 1.429 . S
C1022 H1046 0.950 . S
C1023 C1040 1.574 . S
C1023 C1042 1.368 . S
C1023 H1047 0.949 . S
H1024 C1028 0.949 . S
C1025 C1026 1.349 . S
C1025 C1027 1.327 . S
C1025 H1048 0.950 . S
C1026 C1025 1.349 . S
C1026 C1038 1.349 . S
C1027 C1025 1.327 . S
C1027 C1043 1.429 . S
C1027 H1049 0.950 . S
C1028 H1024 0.949 . S
C1028 C1036 1.574 . S
C1028 C1044 1.368 . S
H1029 C1037 0.950 . S
H1030 C1035 0.950 . S
H1031 C1036 0.949 . S
H1032 C1038 0.950 . S
H1033 C1039 0.950 . S
H1034 C1040 0.949 . S
C1035 H1030 0.950 . S
C1035 C1037 1.327 . S
C1035 C1041 1.429 . S
C1036 C1028 1.574 . S
C1036 H1031 0.949 . S
C1036 C1042 1.368 . S
C1037 C1021 1.349 . S
C1037 H1029 0.950 . S
C1037 C1035 1.327 . S
C1038 C1026 1.349 . S
C1038 H1032 0.950 . S
C1038 C1039 1.327 . S
C1039 H1033 0.950 . S
C1039 C1038 1.327 . S
C1039 C1043 1.429 . S
C1040 C1023 1.574 . S
C1040 H1034 0.949 . S
C1040 C1044 1.368 . S
C1041 C1022 1.429 . S
C1041 C1035 1.429 . S
C1041 C1042 1.523 . S
C1042 C1023 1.368 . S
C1042 C1036 1.368 . S
C1042 C1041 1.523 . S
C1043 C1027 1.429 . S
C1043 C1039 1.429 . S
C1043 C1044 1.523 . S
C1044 C1028 1.368 . S
C1044 C1040 1.368 . S
C1044 C1043 1.523 . S
H1045 C1020 0.950 . S
H1046 C1022 0.950 . S
H1047 C1023 0.949 . S
H1048 C1025 0.950 . S
H1049 C1027 0.950 . S
C1050 C1051 1.349 . S
C1050 C1052 1.327 . S
C1050 H1075 0.950 . S
C1051 C1050 1.349 . S
C1051 C1067 1.349 . S
C1052 C1050 1.327 . S
C1052 C1071 1.429 . S
C1052 H1076 0.950 . S
C1053 C1070 1.574 . S
C1053 C1072 1.368 . S
C1053 H1077 0.949 . S
H1054 C1058 0.949 . S
C1055 C1056 1.349 . S
C1055 C1057 1.327 . S
C1055 H1078 0.950 . S
C1056 C1055 1.349 . S
C1056 C1068 1.349 . S
C1057 C1055 1.327 . S
C1057 C1073 1.429 . S
C1057 H1079 0.950 . S
C1058 H1054 0.949 . S
C1058 C1066 1.574 . S
C1058 C1074 1.368 . S
H1059 C1067 0.950 . S
H1060 C1065 0.950 . S
H1061 C1066 0.949 . S
H1062 C1068 0.950 . S
H1063 C1069 0.950 . S
H1064 C1070 0.949 . S
C1065 H1060 0.950 . S
C1065 C1067 1.327 . S
C1065 C1071 1.429 . S
C1066 C1058 1.574 . S
C1066 H1061 0.949 . S
C1066 C1072 1.368 . S
C1067 C1051 1.349 . S
C1067 H1059 0.950 . S
C1067 C1065 1.327 . S
C1068 C1056 1.349 . S
C1068 H1062 0.950 . S
C1068 C1069 1.327 . S
C1069 H1063 0.950 . S
C1069 C1068 1.327 . S
C1069 C1073 1.429 . S
C1070 C1053 1.574 . S
C1070 H1064 0.949 . S
C1070 C1074 1.368 . S
C1071 C1052 1.429 . S
C1071 C1065 1.429 . S
C1071 C1072 1.523 . S
C1072 C1053 1.368 . S
C1072 C1066 1.368 . S
C1072 C1071 1.523 . S
C1073 C1057 1.429 . S
C1073 C1069 1.429 . S
C1073 C1074 1.523 . S
C1074 C1058 1.368 . S
C1074 C1070 1.368 . S
C1074 C1073 1.523 . S
H1075 C1050 0.950 . S
H1076 C1052 0.950 . S
H1077 C1053 0.949 . S
H1078 C1055 0.950 . S
H1079 C1057 0.950 . S
C1080 C1081 1.349 . S
C1080 C1082 1.327 . S
C1080 H1105 0.950 . S
C1081 C1080 1.349 . S
C1081 C1097 1.349 . S
C1082 C1080 1.327 . S
C1082 C1101 1.429 . S
C1082 H1106 0.950 . S
C1083 C1100 1.574 . S
C1083 C1102 1.368 . S
C1083 H1107 0.949 . S
H1084 C1088 0.949 . S
C1085 C1086 1.349 . S
C1085 C1087 1.327 . S
C1085 H1108 0.950 . S
C1086 C1085 1.349 . S
C1086 C1098 1.349 . S
C1087 C1085 1.327 . S
C1087 C1103 1.429 . S
C1087 H1109 0.950 . S
C1088 H1084 0.949 . S
C1088 C1096 1.574 . S
C1088 C1104 1.368 . S
H1089 C1097 0.950 . S
H1090 C1095 0.950 . S
H1091 C1096 0.949 . S
H1092 C1098 0.950 . S
H1093 C1099 0.950 . S
H1094 C1100 0.949 . S
C1095 H1090 0.950 . S
C1095 C1097 1.327 . S
C1095 C1101 1.429 . S
C1096 C1088 1.574 . S
C1096 H1091 0.949 . S
C1096 C1102 1.368 . S
C1097 C1081 1.349 . S
C1097 H1089 0.950 . S
C1097 C1095 1.327 . S
C1098 C1086 1.349 . S
C1098 H1092 0.950 . S
C1098 C1099 1.327 . S
C1099 H1093 0.950 . S
C1099 C1098 1.327 . S
C1099 C1103 1.429 . S
C1100 C1083 1.574 . S
C1100 H1094 0.949 . S
C1100 C1104 1.368 . S
C1101 C1082 1.429 . S
C1101 C1095 1.429 . S
C1101 C1102 1.523 . S
C1102 C1083 1.368 . S
C1102 C1096 1.368 . S
C1102 C1101 1.523 . S
C1103 C1087 1.429 . S
C1103 C1099 1.429 . S
C1103 C1104 1.523 . S
C1104 C1088 1.368 . S
C1104 C1100 1.368 . S
C1104 C1103 1.523 . S
H1105 C1080 0.950 . S
H1106 C1082 0.950 . S
H1107 C1083 0.949 . S
H1108 C1085 0.950 . S
H1109 C1087 0.950 . S
C1110 C1111 1.349 . S
C1110 C1112 1.327 . S
C1110 H1135 0.950 . S
C1111 C1110 1.349 . S
C1111 C1127 1.349 . S
C1112 C1110 1.327 . S
C1112 C1131 1.429 . S
C1112 H1136 0.950 . S
C1113 C1130 1.574 . S
C1113 C1132 1.368 . S
C1113 H1137 0.949 . S
H1114 C1118 0.949 . S
C1115 C1116 1.349 . S
C1115 C1117 1.327 . S
C1115 H1138 0.950 . S
C1116 C1115 1.349 . S
C1116 C1128 1.349 . S
C1117 C1115 1.327 . S
C1117 C1133 1.429 . S
C1117 H1139 0.950 . S
C1118 H1114 0.949 . S
C1118 C1126 1.574 . S
C1118 C1134 1.368 . S
H1119 C1127 0.950 . S
H1120 C1125 0.950 . S
H1121 C1126 0.949 . S
H1122 C1128 0.950 . S
H1123 C1129 0.950 . S
H1124 C1130 0.949 . S
C1125 H1120 0.950 . S
C1125 C1127 1.327 . S
C1125 C1131 1.429 . S
C1126 C1118 1.574 . S
C1126 H1121 0.949 . S
C1126 C1132 1.368 . S
C1127 C1111 1.349 . S
C1127 H1119 0.950 . S
C1127 C1125 1.327 . S
C1128 C1116 1.349 . S
C1128 H1122 0.950 . S
C1128 C1129 1.327 . S
C1129 H1123 0.950 . S
C1129 C1128 1.327 . S
C1129 C1133 1.429 . S
C1130 C1113 1.574 . S
C1130 H1124 0.949 . S
C1130 C1134 1.368 . S
C1131 C1112 1.429 . S
C1131 C1125 1.429 . S
C1131 C1132 1.523 . S
C1132 C1113 1.368 . S
C1132 C1126 1.368 . S
C1132 C1131 1.523 . S
C1133 C1117 1.429 . S
C1133 C1129 1.429 . S
C1133 C1134 1.523 . S
C1134 C1118 1.368 . S
C1134 C1130 1.368 . S
C1134 C1133 1.523 . S
H1135 C1110 0.950 . S
H1136 C1112 0.950 . S
H1137 C1113 0.949 . S
H1138 C1115 0.950 . S
H1139 C1117 0.950 . S
C1140 C1141 1.349 . S
C1140 C1142 1.327 . S
C1140 H1165 0.950 . S
C1141 C1140 1.349 . S
C1141 C1157 1.349 . S
C1142 C1140 1.327 . S
C1142 C1161 1.429 . S
C1142 H1166 0.950 . S
C1143 C1160 1.574 . S
C1143 C1162 1.368 . S
C1143 H1167 0.949 . S
H1144 C1148 0.949 . S
C1145 C1146 1.349 . S
C1145 C1147 1.327 . S
C1145 H1168 0.950 . S
C1146 C1145 1.349 . S
C1146 C1158 1.349 . S
C1147 C1145 1.327 . S
C1147 C1163 1.429 . S
C1147 H1169 0.950 . S
C1148 H1144 0.949 . S
C1148 C1156 1.574 . S
C1148 C1164 1.368 . S
H1149 C1157 0.950 . S
H1150 C1155 0.950 . S
H1151 C1156 0.949 . S
H1152 C1158 0.950 . S
H1153 C1159 0.950 . S
H1154 C1160 0.949 . S
C1155 H1150 0.950 . S
C1155 C1157 1.327 . S
C1155 C1161 1.429 . S
C1156 C1148 1.574 . S
C1156 H1151 0.949 . S
C1156 C1162 1.368 . S
C1157 C1141 1.349 . S
C1157 H1149 0.950 . S
C1157 C1155 1.327 . S
C1158 C1146 1.349 . S
C1158 H1152 0.950 . S
C1158 C1159 1.327 . S
C1159 H1153 0.950 . S
C1159 C1158 1.327 . S
C1159 C1163 1.429 . S
C1160 C1143 1.574 . S
C1160 H1154 0.949 . S
C1160 C1164 1.368 . S
C1161 C1142 1.429 . S
C1161 C1155 1.429 . S
C1161 C1162 1.523 . S
C1162 C1143 1.368 . S
C1162 C1156 1.368 . S
C1162 C1161 1.523 . S
C1163 C1147 1.429 . S
C1163 C1159 1.429 . S
C1163 C1164 1.523 . S
C1164 C1148 1.368 . S
C1164 C1160 1.368 . S
C1164 C1163 1.523 . S
H1165 C1140 0.950 . S
H1166 C1142 0.950 . S
H1167 C1143 0.949 . S
H1168 C1145 0.950 . S
H1169 C1147 0.950 . S
C1170 C1171 1.349 . S
C1170 C1172 1.327 . S
C1170 H1195 0.950 . S
C1171 C1170 1.349 . S
C1171 C1187 1.349 . S
C1172 C1170 1.327 . S
C1172 C1191 1.429 . S
C1172 H1196 0.950 . S
C1173 C1190 1.574 . S
C1173 C1192 1.368 . S
C1173 H1197 0.949 . S
H1174 C1178 0.949 . S
C1175 C1176 1.349 . S
C1175 C1177 1.327 . S
C1175 H1198 0.950 . S
C1176 C1175 1.349 . S
C1176 C1188 1.349 . S
C1177 C1175 1.327 . S
C1177 C1193 1.429 . S
C1177 H1199 0.950 . S
C1178 H1174 0.949 . S
C1178 C1186 1.574 . S
C1178 C1194 1.368 . S
H1179 C1187 0.950 . S
H1180 C1185 0.950 . S
H1181 C1186 0.949 . S
H1182 C1188 0.950 . S
H1183 C1189 0.950 . S
H1184 C1190 0.949 . S
C1185 H1180 0.950 . S
C1185 C1187 1.327 . S
C1185 C1191 1.429 . S
C1186 C1178 1.574 . S
C1186 H1181 0.949 . S
C1186 C1192 1.368 . S
C1187 C1171 1.349 . S
C1187 H1179 0.950 . S
C1187 C1185 1.327 . S
C1188 C1176 1.349 . S
C1188 H1182 0.950 . S
C1188 C1189 1.327 . S
C1189 H1183 0.950 . S
C1189 C1188 1.327 . S
C1189 C1193 1.429 . S
C1190 C1173 1.574 . S
C1190 H1184 0.949 . S
C1190 C1194 1.368 . S
C1191 C1172 1.429 . S
C1191 C1185 1.429 . S
C1191 C1192 1.523 . S
C1192 C1173 1.368 . S
C1192 C1186 1.368 . S
C1192 C1191 1.523 . S
C1193 C1177 1.429 . S
C1193 C1189 1.429 . S
C1193 C1194 1.523 . S
C1194 C1178 1.368 . S
C1194 C1190 1.368 . S
C1194 C1193 1.523 . S
H1195 C1170 0.950 . S
H1196 C1172 0.950 . S
H1197 C1173 0.949 . S
H1198 C1175 0.950 . S
H1199 C1177 0.950 . S
C1200 C1201 1.349 . S
C1200 C1202 1.327 . S
C1200 H1225 0.950 . S
C1201 C1200 1.349 . S
C1201 C1217 1.349 . S
C1202 C1200 1.327 . S
C1202 C1221 1.429 . S
C1202 H1226 0.950 . S
C1203 C1220 1.548 1_565 S
C1203 C1222 1.377 . S
C1203 H1227 0.964 . S
H1204 C1208 0.949 . S
C1205 C1206 1.349 . S
C1205 C1207 1.327 . S
C1205 H1228 0.950 . S
C1206 C1205 1.349 . S
C1206 C1218 1.349 . S
C1207 C1205 1.327 . S
C1207 C1223 1.429 . S
C1207 H1229 0.950 . S
C1208 H1204 0.949 . S
C1208 C1216 1.574 1_545 S
C1208 C1224 1.368 . S
H1209 C1217 0.950 . S
H1210 C1215 0.950 . S
H1211 C1216 0.949 . S
H1212 C1218 0.950 . S
H1213 C1219 0.950 . S
H1214 C1220 0.949 . S
C1215 H1210 0.950 . S
C1215 C1217 1.327 . S
C1215 C1221 1.429 . S
C1216 C1208 1.574 1_565 S
C1216 H1211 0.949 . S
C1216 C1222 1.368 . S
C1217 C1201 1.349 . S
C1217 H1209 0.950 . S
C1217 C1215 1.327 . S
C1218 C1206 1.349 . S
C1218 H1212 0.950 . S
C1218 C1219 1.327 . S
C1219 H1213 0.950 . S
C1219 C1218 1.327 . S
C1219 C1223 1.429 . S
C1220 C1203 1.548 1_545 S
C1220 H1214 0.949 . S
C1220 C1224 1.368 . S
C1221 C1202 1.429 . S
C1221 C1215 1.429 . S
C1221 C1222 1.523 . S
C1222 C1203 1.377 . S
C1222 C1216 1.368 . S
C1222 C1221 1.523 . S
C1223 C1207 1.429 . S
C1223 C1219 1.429 . S
C1223 C1224 1.523 . S
C1224 C1208 1.368 . S
C1224 C1220 1.368 . S
C1224 C1223 1.523 . S
H1225 C1200 0.950 . S
H1226 C1202 0.950 . S
H1227 C1203 0.964 . S
H1228 C1205 0.950 . S
H1229 C1207 0.950 . S
C1230 C1231 1.349 . S
C1230 C1232 1.327 . S
C1230 H1255 0.950 . S
C1231 C1230 1.349 . S
C1231 C1247 1.349 . S
C1232 C1230 1.327 . S
C1232 C1251 1.429 . S
C1232 H1256 0.950 . S
C1233 C1250 1.574 1_455 S
C1233 C1252 1.368 . S
C1233 H1257 0.949 . S
H1234 C1238 0.949 . S
C1235 C1236 1.349 . S
C1235 C1237 1.327 . S
C1235 H1258 0.950 . S
C1236 C1235 1.349 . S
C1236 C1248 1.349 . S
C1237 C1235 1.327 . S
C1237 C1253 1.429 . S
C1237 H1259 0.950 . S
C1238 H1234 0.949 . S
C1238 C1246 1.574 . S
C1238 C1254 1.368 1_455 S
H1239 C1247 0.950 . S
H1240 C1245 0.950 . S
H1241 C1246 0.949 . S
H1242 C1248 0.950 . S
H1243 C1249 0.950 . S
H1244 C1250 0.949 . S
C1245 H1240 0.950 . S
C1245 C1247 1.327 . S
C1245 C1251 1.429 . S
C1246 C1238 1.574 . S
C1246 H1241 0.949 . S
C1246 C1252 1.368 . S
C1247 C1231 1.349 . S
C1247 H1239 0.950 . S
C1247 C1245 1.327 . S
C1248 C1236 1.349 . S
C1248 H1242 0.950 . S
C1248 C1249 1.327 . S
C1249 H1243 0.950 . S
C1249 C1248 1.327 . S
C1249 C1253 1.429 . S
C1250 C1233 1.574 1_655 S
C1250 H1244 0.949 . S
C1250 C1254 1.368 . S
C1251 C1232 1.429 . S
C1251 C1245 1.429 . S
C1251 C1252 1.523 . S
C1252 C1233 1.368 . S
C1252 C1246 1.368 . S
C1252 C1251 1.523 . S
C1253 C1237 1.429 . S
C1253 C1249 1.429 . S
C1253 C1254 1.523 . S
C1254 C1238 1.368 1_655 S
C1254 C1250 1.368 . S
C1254 C1253 1.523 . S
H1255 C1230 0.950 . S
H1256 C1232 0.950 . S
H1257 C1233 0.949 . S
H1258 C1235 0.950 . S
H1259 C1237 0.950 . S
C1260 C1261 1.349 1_565 S
C1260 C1262 1.327 . S
C1260 H1285 0.950 . S
C1261 C1260 1.349 1_545 S
C1261 C1277 1.349 . S
C1262 C1260 1.327 . S
C1262 C1281 1.429 1_565 S
C1262 H1286 0.950 . S
C1263 C1280 1.574 1_554 S
C1263 C1282 1.368 . S
C1263 H1287 0.949 . S
H1264 C1268 0.949 . S
C1265 C1266 1.349 . S
C1265 C1267 1.327 . S
C1265 H1288 0.950 . S
C1266 C1265 1.349 . S
C1266 C1278 1.349 1_545 S
C1267 C1265 1.327 . S
C1267 C1283 1.429 . S
C1267 H1289 0.950 . S
C1268 H1264 0.949 . S
C1268 C1276 1.574 1_556 S
C1268 C1284 1.368 1_565 S
H1269 C1277 0.950 . S
H1270 C1275 0.950 . S
H1271 C1276 0.949 . S
H1272 C1278 0.950 . S
H1273 C1279 0.950 . S
H1274 C1280 0.949 . S
C1275 H1270 0.950 . S
C1275 C1277 1.327 . S
C1275 C1281 1.429 . S
C1276 C1268 1.574 1_554 S
C1276 H1271 0.949 . S
C1276 C1282 1.368 1_565 S
C1277 C1261 1.349 . S
C1277 H1269 0.950 . S
C1277 C1275 1.327 . S
C1278 C1266 1.349 1_565 S
C1278 H1272 0.950 . S
C1278 C1279 1.327 . S
C1279 H1273 0.950 . S
C1279 C1278 1.327 . S
C1279 C1283 1.429 1_565 S
C1280 C1263 1.574 1_556 S
C1280 H1274 0.949 . S
C1280 C1284 1.368 . S
C1281 C1262 1.429 1_545 S
C1281 C1275 1.429 . S
C1281 C1282 1.523 . S
C1282 C1263 1.368 . S
C1282 C1276 1.368 1_545 S
C1282 C1281 1.523 . S
C1283 C1267 1.429 . S
C1283 C1279 1.429 1_545 S
C1283 C1284 1.523 . S
C1284 C1268 1.368 1_545 S
C1284 C1280 1.368 . S
C1284 C1283 1.523 . S
H1285 C1260 0.950 . S
H1286 C1262 0.950 . S
H1287 C1263 0.949 . S
H1288 C1265 0.950 . S
H1289 C1267 0.950 . S
C1290 C1291 1.349 . S
C1290 C1292 1.327 . S
C1290 H1315 0.950 . S
C1291 C1290 1.349 . S
C1291 C1307 1.349 . S
C1292 C1290 1.327 . S
C1292 C1311 1.429 . S
C1292 H1316 0.950 . S
C1293 C1310 1.574 1_556 S
C1293 C1312 1.368 . S
C1293 H1317 0.949 . S
H1294 C1298 0.949 . S
C1295 C1296 1.349 . S
C1295 C1297 1.327 . S
C1295 H1318 0.950 . S
C1296 C1295 1.349 . S
C1296 C1308 1.349 . S
C1297 C1295 1.327 . S
C1297 C1313 1.429 . S
C1297 H1319 0.950 . S
C1298 H1294 0.949 . S
C1298 C1306 1.574 1_554 S
C1298 C1314 1.368 . S
H1299 C1307 0.950 . S
H1300 C1305 0.950 . S
H1301 C1306 0.949 . S
H1302 C1308 0.950 . S
H1303 C1309 0.950 . S
H1304 C1310 0.949 . S
C1305 H1300 0.950 . S
C1305 C1307 1.327 . S
C1305 C1311 1.429 . S
C1306 C1298 1.574 1_556 S
C1306 H1301 0.949 . S
C1306 C1312 1.368 . S
C1307 C1291 1.349 . S
C1307 H1299 0.950 . S
C1307 C1305 1.327 . S
C1308 C1296 1.349 . S
C1308 H1302 0.950 . S
C1308 C1309 1.327 . S
C1309 H1303 0.950 . S
C1309 C1308 1.327 . S
C1309 C1313 1.429 . S
C1310 C1293 1.574 1_554 S
C1310 H1304 0.949 . S
C1310 C1314 1.368 . S
C1311 C1292 1.429 . S
C1311 C1305 1.429 . S
C1311 C1312 1.523 . S
C1312 C1293 1.368 . S
C1312 C1306 1.368 . S
C1312 C1311 1.523 . S
C1313 C1297 1.429 . S
C1313 C1309 1.429 . S
C1313 C1314 1.523 . S
C1314 C1298 1.368 . S
C1314 C1310 1.368 . S
C1314 C1313 1.523 . S
H1315 C1290 0.950 . S
H1316 C1292 0.950 . S
H1317 C1293 0.949 . S
H1318 C1295 0.950 . S
H1319 C1297 0.950 . S
C1320 C1321 1.349 . S
C1320 C1322 1.327 . S
C1320 H1345 0.950 . S
C1321 C1320 1.349 . S
C1321 C1337 1.349 . S
C1322 C1320 1.327 . S
C1322 C1341 1.429 . S
C1322 H1346 0.950 . S
C1323 C1340 1.574 1_556 S
C1323 C1342 1.368 . S
C1323 H1347 0.949 . S
H1324 C1328 0.949 . S
C1325 C1326 1.349 . S
C1325 C1327 1.327 . S
C1325 H1348 0.950 . S
C1326 C1325 1.349 . S
C1326 C1338 1.349 . S
C1327 C1325 1.327 . S
C1327 C1343 1.429 . S
C1327 H1349 0.950 . S
C1328 H1324 0.949 . S
C1328 C1336 1.574 1_554 S
C1328 C1344 1.368 . S
H1329 C1337 0.950 . S
H1330 C1335 0.950 . S
H1331 C1336 0.949 . S
H1332 C1338 0.950 . S
H1333 C1339 0.950 . S
H1334 C1340 0.949 . S
C1335 H1330 0.950 . S
C1335 C1337 1.327 . S
C1335 C1341 1.429 . S
C1336 C1328 1.574 1_556 S
C1336 H1331 0.949 . S
C1336 C1342 1.368 . S
C1337 C1321 1.349 . S
C1337 H1329 0.950 . S
C1337 C1335 1.327 . S
C1338 C1326 1.349 . S
C1338 H1332 0.950 . S
C1338 C1339 1.327 . S
C1339 H1333 0.950 . S
C1339 C1338 1.327 . S
C1339 C1343 1.429 . S
C1340 C1323 1.574 1_554 S
C1340 H1334 0.949 . S
C1340 C1344 1.368 . S
C1341 C1322 1.429 . S
C1341 C1335 1.429 . S
C1341 C1342 1.523 . S
C1342 C1323 1.368 . S
C1342 C1336 1.368 . S
C1342 C1341 1.523 . S
C1343 C1327 1.429 . S
C1343 C1339 1.429 . S
C1343 C1344 1.523 . S
C1344 C1328 1.368 . S
C1344 C1340 1.368 . S
C1344 C1343 1.523 . S
H1345 C1320 0.950 . S
H1346 C1322 0.950 . S
H1347 C1323 0.949 . S
H1348 C1325 0.950 . S
H1349 C1327 0.950 . S
C1350 C1351 1.349 . S
C1350 C1352 1.327 . S
C1350 H1375 0.950 . S
C1351 C1350 1.349 . S
C1351 C1367 1.349 . S
C1352 C1350 1.327 . S
C1352 C1371 1.429 . S
C1352 H1376 0.950 . S
C1353 C1370 1.574 . S
C1353 C1372 1.368 . S
C1353 H1377 0.949 . S
H1354 C1358 0.949 . S
C1355 C1356 1.349 . S
C1355 C1357 1.327 . S
C1355 H1378 0.950 . S
C1356 C1355 1.349 . S
C1356 C1368 1.349 . S
C1357 C1355 1.327 . S
C1357 C1373 1.429 . S
C1357 H1379 0.950 . S
C1358 H1354 0.949 . S
C1358 C1366 1.574 . S
C1358 C1374 1.368 . S
H1359 C1367 0.950 . S
H1360 C1365 0.950 . S
H1361 C1366 0.949 . S
H1362 C1368 0.950 . S
H1363 C1369 0.950 . S
H1364 C1370 0.949 . S
C1365 H1360 0.950 . S
C1365 C1367 1.327 . S
C1365 C1371 1.429 . S
C1366 C1358 1.574 . S
C1366 H1361 0.949 . S
C1366 C1372 1.368 . S
C1367 C1351 1.349 . S
C1367 H1359 0.950 . S
C1367 C1365 1.327 . S
C1368 C1356 1.349 . S
C1368 H1362 0.950 . S
C1368 C1369 1.327 . S
C1369 H1363 0.950 . S
C1369 C1368 1.327 . S
C1369 C1373 1.429 . S
C1370 C1353 1.574 . S
C1370 H1364 0.949 . S
C1370 C1374 1.368 . S
C1371 C1352 1.429 . S
C1371 C1365 1.429 . S
C1371 C1372 1.523 . S
C1372 C1353 1.368 . S
C1372 C1366 1.368 . S
C1372 C1371 1.523 . S
C1373 C1357 1.429 . S
C1373 C1369 1.429 . S
C1373 C1374 1.523 . S
C1374 C1358 1.368 . S
C1374 C1370 1.368 . S
C1374 C1373 1.523 . S
H1375 C1350 0.950 . S
H1376 C1352 0.950 . S
H1377 C1353 0.949 . S
H1378 C1355 0.950 . S
H1379 C1357 0.950 . S
C1380 C1381 1.349 . S
C1380 C1382 1.327 . S
C1380 H1405 0.950 . S
C1381 C1380 1.349 . S
C1381 C1397 1.349 . S
C1382 C1380 1.327 . S
C1382 C1401 1.429 . S
C1382 H1406 0.950 . S
C1383 C1400 1.574 . S
C1383 C1402 1.368 . S
C1383 H1407 0.949 . S
H1384 C1388 0.949 . S
C1385 C1386 1.349 . S
C1385 C1387 1.327 . S
C1385 H1408 0.950 . S
C1386 C1385 1.349 . S
C1386 C1398 1.349 . S
C1387 C1385 1.327 . S
C1387 C1403 1.429 . S
C1387 H1409 0.950 . S
C1388 H1384 0.949 . S
C1388 C1396 1.574 . S
C1388 C1404 1.368 . S
H1389 C1397 0.950 . S
H1390 C1395 0.950 . S
H1391 C1396 0.949 . S
H1392 C1398 0.950 . S
H1393 C1399 0.950 . S
H1394 C1400 0.949 . S
C1395 H1390 0.950 . S
C1395 C1397 1.327 . S
C1395 C1401 1.429 . S
C1396 C1388 1.574 . S
C1396 H1391 0.949 . S
C1396 C1402 1.368 . S
C1397 C1381 1.349 . S
C1397 H1389 0.950 . S
C1397 C1395 1.327 . S
C1398 C1386 1.349 . S
C1398 H1392 0.950 . S
C1398 C1399 1.327 . S
C1399 H1393 0.950 . S
C1399 C1398 1.327 . S
C1399 C1403 1.429 . S
C1400 C1383 1.574 . S
C1400 H1394 0.949 . S
C1400 C1404 1.368 . S
C1401 C1382 1.429 . S
C1401 C1395 1.429 . S
C1401 C1402 1.523 . S
C1402 C1383 1.368 . S
C1402 C1396 1.368 . S
C1402 C1401 1.523 . S
C1403 C1387 1.429 . S
C1403 C1399 1.429 . S
C1403 C1404 1.523 . S
C1404 C1388 1.368 . S
C1404 C1400 1.368 . S
C1404 C1403 1.523 . S
H1405 C1380 0.950 . S
H1406 C1382 0.950 . S
H1407 C1383 0.949 . S
H1408 C1385 0.950 . S
H1409 C1387 0.950 . S
C1410 C1411 1.349 . S
C1410 C1412 1.327 . S
C1410 H1435 0.950 . S
C1411 C1410 1.349 . S
C1411 C1427 1.349 . S
C1412 C1410 1.327 . S
C1412 C1431 1.429 . S
C1412 H1436 0.950 . S
C1413 C1430 1.574 . S
C1413 C1432 1.368 . S
C1413 H1437 0.949 . S
H1414 C1418 0.949 . S
C1415 C1416 1.349 . S
C1415 C1417 1.327 . S
C1415 H1438 0.950 . S
C1416 C1415 1.349 . S
C1416 C1428 1.349 . S
C1417 C1415 1.327 . S
C1417 C1433 1.429 . S
C1417 H1439 0.950 . S
C1418 H1414 0.949 . S
C1418 C1426 1.574 . S
C1418 C1434 1.368 . S
H1419 C1427 0.950 . S
H1420 C1425 0.950 . S
H1421 C1426 0.949 . S
H1422 C1428 0.950 . S
H1423 C1429 0.950 . S
H1424 C1430 0.949 . S
C1425 H1420 0.950 . S
C1425 C1427 1.327 . S
C1425 C1431 1.429 . S
C1426 C1418 1.574 . S
C1426 H1421 0.949 . S
C1426 C1432 1.368 . S
C1427 C1411 1.349 . S
C1427 H1419 0.950 . S
C1427 C1425 1.327 . S
C1428 C1416 1.349 . S
C1428 H1422 0.950 . S
C1428 C1429 1.327 . S
C1429 H1423 0.950 . S
C1429 C1428 1.327 . S
C1429 C1433 1.429 . S
C1430 C1413 1.574 . S
C1430 H1424 0.949 . S
C1430 C1434 1.368 . S
C1431 C1412 1.429 . S
C1431 C1425 1.429 . S
C1431 C1432 1.523 . S
C1432 C1413 1.368 . S
C1432 C1426 1.368 . S
C1432 C1431 1.523 . S
C1433 C1417 1.429 . S
C1433 C1429 1.429 . S
C1433 C1434 1.523 . S
C1434 C1418 1.368 . S
C1434 C1430 1.368 . S
C1434 C1433 1.523 . S
H1435 C1410 0.950 . S
H1436 C1412 0.950 . S
H1437 C1413 0.949 . S
H1438 C1415 0.950 . S
H1439 C1417 0.950 . S
C1440 C1441 1.349 . S
C1440 C1442 1.327 . S
C1440 H1465 0.950 . S
C1441 C1440 1.349 . S
C1441 C1457 1.349 . S
C1442 C1440 1.327 . S
C1442 C1461 1.429 . S
C1442 H1466 0.950 . S
C1443 C1460 1.574 . S
C1443 C1462 1.368 . S
C1443 H1467 0.949 . S
H1444 C1448 0.949 . S
C1445 C1446 1.349 . S
C1445 C1447 1.327 . S
C1445 H1468 0.950 . S
C1446 C1445 1.349 . S
C1446 C1458 1.349 . S
C1447 C1445 1.327 . S
C1447 C1463 1.429 . S
C1447 H1469 0.950 . S
C1448 H1444 0.949 . S
C1448 C1456 1.574 . S
C1448 C1464 1.368 . S
H1449 C1457 0.950 . S
H1450 C1455 0.950 . S
H1451 C1456 0.949 . S
H1452 C1458 0.950 . S
H1453 C1459 0.950 . S
H1454 C1460 0.949 . S
C1455 H1450 0.950 . S
C1455 C1457 1.327 . S
C1455 C1461 1.429 . S
C1456 C1448 1.574 . S
C1456 H1451 0.949 . S
C1456 C1462 1.368 . S
C1457 C1441 1.349 . S
C1457 H1449 0.950 . S
C1457 C1455 1.327 . S
C1458 C1446 1.349 . S
C1458 H1452 0.950 . S
C1458 C1459 1.327 . S
C1459 H1453 0.950 . S
C1459 C1458 1.327 . S
C1459 C1463 1.429 . S
C1460 C1443 1.574 . S
C1460 H1454 0.949 . S
C1460 C1464 1.368 . S
C1461 C1442 1.429 . S
C1461 C1455 1.429 . S
C1461 C1462 1.523 . S
C1462 C1443 1.368 . S
C1462 C1456 1.368 . S
C1462 C1461 1.523 . S
C1463 C1447 1.429 . S
C1463 C1459 1.429 . S
C1463 C1464 1.523 . S
C1464 C1448 1.368 . S
C1464 C1460 1.368 . S
C1464 C1463 1.523 . S
H1465 C1440 0.950 . S
H1466 C1442 0.950 . S
H1467 C1443 0.949 . S
H1468 C1445 0.950 . S
H1469 C1447 0.950 . S
C1470 C1471 1.349 . S
C1470 C1472 1.327 . S
C1470 H1495 0.950 . S
C1471 C1470 1.349 . S
C1471 C1487 1.349 . S
C1472 C1470 1.327 . S
C1472 C1491 1.429 . S
C1472 H1496 0.950 . S
C1473 C1490 1.574 . S
C1473 C1492 1.368 . S
C1473 H1497 0.949 . S
H1474 C1478 0.949 . S
C1475 C1476 1.349 . S
C1475 C1477 1.327 . S
C1475 H1498 0.950 . S
C1476 C1475 1.349 . S
C1476 C1488 1.349 . S
C1477 C1475 1.327 . S
C1477 C1493 1.429 . S
C1477 H1499 0.950 . S
C1478 H1474 0.949 . S
C1478 C1486 1.574 . S
C1478 C1494 1.368 . S
H1479 C1487 0.950 . S
H1480 C1485 0.950 . S
H1481 C1486 0.949 . S
H1482 C1488 0.950 . S
H1483 C1489 0.950 . S
H1484 C1490 0.949 . S
C1485 H1480 0.950 . S
C1485 C1487 1.327 . S
C1485 C1491 1.429 . S
C1486 C1478 1.574 . S
C1486 H1481 0.949 . S
C1486 C1492 1.368 . S
C1487 C1471 1.349 . S
C1487 H1479 0.950 . S
C1487 C1485 1.327 . S
C1488 C1476 1.349 . S
C1488 H1482 0.950 . S
C1488 C1489 1.327 . S
C1489 H1483 0.950 . S
C1489 C1488 1.327 . S
C1489 C1493 1.429 . S
C1490 C1473 1.574 . S
C1490 H1484 0.949 . S
C1490 C1494 1.368 . S
C1491 C1472 1.429 . S
C1491 C1485 1.429 . S
C1491 C1492 1.523 . S
C1492 C1473 1.368 . S
C1492 C1486 1.368 . S
C1492 C1491 1.523 . S
C1493 C1477 1.429 . S
C1493 C1489 1.429 . S
C1493 C1494 1.523 . S
C1494 C1478 1.368 . S
C1494 C1490 1.368 . S
C1494 C1493 1.523 . S
H1495 C1470 0.950 . S
H1496 C1472 0.950 . S
H1497 C1473 0.949 . S
H1498 C1475 0.950 . S
H1499 C1477 0.950 . S
C1500 C1501 1.349 . S
C1500 C1502 1.327 . S
C1500 H1525 0.950 . S
C1501 C1500 1.349 . S
C1501 C1517 1.349 . S
C1502 C1500 1.327 . S
C1502 C1521 1.429 . S
C1502 H1526 0.950 . S
C1503 C1520 1.574 . S
C1503 C1522 1.368 . S
C1503 H1527 0.949 . S
H1504 C1508 0.949 . S
C1505 C1506 1.349 . S
C1505 C1507 1.327 . S
C1505 H1528 0.950 . S
C1506 C1505 1.349 . S
C1506 C1518 1.349 . S
C1507 C1505 1.327 . S
C1507 C1523 1.429 . S
C1507 H1529 0.950 . S
C1508 H1504 0.949 . S
C1508 C1516 1.574 . S
C1508 C1524 1.368 . S
H1509 C1517 0.950 . S
H1510 C1515 0.950 . S
H1511 C1516 0.949 . S
H1512 C1518 0.950 . S
H1513 C1519 0.950 . S
H1514 C1520 0.949 . S
C1515 H1510 0.950 . S
C1515 C1517 1.327 . S
C1515 C1521 1.429 . S
C1516 C1508 1.574 . S
C1516 H1511 0.949 . S
C1516 C1522 1.368 . S
C1517 C1501 1.349 . S
C1517 H1509 0.950 . S
C1517 C1515 1.327 . S
C1518 C1506 1.349 . S
C1518 H1512 0.950 . S
C1518 C1519 1.327 . S
C1519 H1513 0.950 . S
C1519 C1518 1.327 . S
C1519 C1523 1.429 . S
C1520 C1503 1.574 . S
C1520 H1514 0.949 . S
C1520 C1524 1.368 . S
C1521 C1502 1.429 . S
C1521 C1515 1.429 . S
C1521 C1522 1.523 . S
C1522 C1503 1.368 . S
C1522 C1516 1.368 . S
C1522 C1521 1.523 . S
C1523 C1507 1.429 . S
C1523 C1519 1.429 . S
C1523 C1524 1.523 . S
C1524 C1508 1.368 . S
C1524 C1520 1.368 . S
C1524 C1523 1.523 . S
H1525 C1500 0.950 . S
H1526 C1502 0.950 . S
H1527 C1503 0.949 . S
H1528 C1505 0.950 . S
H1529 C1507 0.950 . S
C1530 C1531 1.349 . S
C1530 C1532 1.327 . S
C1530 H1555 0.950 . S
C1531 C1530 1.349 . S
C1531 C1547 1.349 . S
C1532 C1530 1.327 . S
C1532 C1551 1.429 . S
C1532 H1556 0.950 . S
C1533 C1550 1.574 . S
C1533 C1552 1.368 . S
C1533 H1557 0.949 . S
H1534 C1538 0.949 . S
C1535 C1536 1.349 . S
C1535 C1537 1.327 . S
C1535 H1558 0.950 . S
C1536 C1535 1.349 . S
C1536 C1548 1.349 . S
C1537 C1535 1.327 . S
C1537 C1553 1.429 . S
C1537 H1559 0.950 . S
C1538 H1534 0.949 . S
C1538 C1546 1.574 . S
C1538 C1554 1.368 . S
H1539 C1547 0.950 . S
H1540 C1545 0.950 . S
H1541 C1546 0.949 . S
H1542 C1548 0.950 1_545 S
H1543 C1549 0.950 . S
H1544 C1550 0.949 . S
C1545 H1540 0.950 . S
C1545 C1547 1.327 . S
C1545 C1551 1.429 . S
C1546 C1538 1.574 . S
C1546 H1541 0.949 . S
C1546 C1552 1.368 . S
C1547 C1531 1.349 . S
C1547 H1539 0.950 . S
C1547 C1545 1.327 . S
C1548 C1536 1.349 . S
C1548 H1542 0.950 1_565 S
C1548 C1549 1.327 . S
C1549 H1543 0.950 . S
C1549 C1548 1.327 . S
C1549 C1553 1.429 . S
C1550 C1533 1.574 . S
C1550 H1544 0.949 . S
C1550 C1554 1.368 . S
C1551 C1532 1.429 . S
C1551 C1545 1.429 . S
C1551 C1552 1.523 . S
C1552 C1533 1.368 . S
C1552 C1546 1.368 . S
C1552 C1551 1.523 . S
C1553 C1537 1.429 . S
C1553 C1549 1.429 . S
C1553 C1554 1.523 . S
C1554 C1538 1.368 . S
C1554 C1550 1.368 . S
C1554 C1553 1.523 . S
H1555 C1530 0.950 . S
H1556 C1532 0.950 . S
H1557 C1533 0.949 . S
H1558 C1535 0.950 . S
H1559 C1537 0.950 . S
C1560 C1561 1.349 . S
C1560 C1562 1.327 . S
C1560 H1585 0.950 . S
C1561 C1560 1.349 . S
C1561 C1577 1.349 . S
C1562 C1560 1.327 . S
C1562 C1581 1.429 . S
C1562 H1586 0.950 . S
C1563 C1580 1.574 . S
C1563 C1582 1.368 . S
C1563 H1587 0.949 . S
H1564 C1568 0.949 . S
C1565 C1566 1.349 . S
C1565 C1567 1.327 . S
C1565 H1588 0.950 . S
C1566 C1565 1.349 . S
C1566 C1578 1.349 . S
C1567 C1565 1.327 . S
C1567 C1583 1.429 . S
C1567 H1589 0.950 . S
C1568 H1564 0.949 . S
C1568 C1576 1.574 . S
C1568 C1584 1.368 . S
H1569 C1577 0.950 . S
H1570 C1575 0.950 . S
H1571 C1576 0.949 . S
H1572 C1578 0.950 . S
H1573 C1579 0.950 . S
H1574 C1580 0.949 . S
C1575 H1570 0.950 . S
C1575 C1577 1.327 . S
C1575 C1581 1.429 . S
C1576 C1568 1.574 . S
C1576 H1571 0.949 . S
C1576 C1582 1.368 . S
C1577 C1561 1.349 . S
C1577 H1569 0.950 . S
C1577 C1575 1.327 . S
C1578 C1566 1.349 . S
C1578 H1572 0.950 . S
C1578 C1579 1.327 . S
C1579 H1573 0.950 . S
C1579 C1578 1.327 . S
C1579 C1583 1.429 . S
C1580 C1563 1.574 . S
C1580 H1574 0.949 . S
C1580 C1584 1.368 . S
C1581 C1562 1.429 . S
C1581 C1575 1.429 . S
C1581 C1582 1.523 . S
C1582 C1563 1.368 . S
C1582 C1576 1.368 . S
C1582 C1581 1.523 . S
C1583 C1567 1.429 . S
C1583 C1579 1.429 . S
C1583 C1584 1.523 . S
C1584 C1568 1.368 . S
C1584 C1580 1.368 . S
C1584 C1583 1.523 . S
H1585 C1560 0.950 . S
H1586 C1562 0.950 . S
H1587 C1563 0.949 . S
H1588 C1565 0.950 . S
H1589 C1567 0.950 . S
C1590 C1591 1.349 . S
C1590 C1592 1.327 . S
C1590 H1615 0.950 . S
C1591 C1590 1.349 . S
C1591 C1607 1.349 . S
C1592 C1590 1.327 . S
C1592 C1611 1.429 . S
C1592 H1616 0.950 . S
C1593 C1610 1.574 . S
C1593 C1612 1.368 . S
C1593 H1617 0.949 . S
H1594 C1598 0.949 . S
C1595 C1596 1.349 . S
C1595 C1597 1.327 . S
C1595 H1618 0.950 . S
C1596 C1595 1.349 . S
C1596 C1608 1.349 . S
C1597 C1595 1.327 . S
C1597 C1613 1.429 . S
C1597 H1619 0.950 . S
C1598 H1594 0.949 . S
C1598 C1606 1.574 . S
C1598 C1614 1.368 . S
H1599 C1607 0.950 . S
H1600 C1605 0.950 . S
H1601 C1606 0.949 . S
H1602 C1608 0.950 . S
H1603 C1609 0.950 . S
H1604 C1610 0.949 . S
C1605 H1600 0.950 . S
C1605 C1607 1.327 . S
C1605 C1611 1.429 . S
C1606 C1598 1.574 . S
C1606 H1601 0.949 . S
C1606 C1612 1.368 . S
C1607 C1591 1.349 . S
C1607 H1599 0.950 . S
C1607 C1605 1.327 . S
C1608 C1596 1.349 . S
C1608 H1602 0.950 . S
C1608 C1609 1.327 . S
C1609 H1603 0.950 . S
C1609 C1608 1.327 . S
C1609 C1613 1.429 . S
C1610 C1593 1.574 . S
C1610 H1604 0.949 . S
C1610 C1614 1.368 . S
C1611 C1592 1.429 . S
C1611 C1605 1.429 . S
C1611 C1612 1.523 . S
C1612 C1593 1.368 . S
C1612 C1606 1.368 . S
C1612 C1611 1.523 . S
C1613 C1597 1.429 . S
C1613 C1609 1.429 . S
C1613 C1614 1.523 . S
C1614 C1598 1.368 . S
C1614 C1610 1.368 . S
C1614 C1613 1.523 . S
H1615 C1590 0.950 . S
H1616 C1592 0.950 . S
H1617 C1593 0.949 . S
H1618 C1595 0.950 . S
H1619 C1597 0.950 . S
C1620 C1621 1.349 . S
C1620 C1622 1.327 . S
C1620 H1645 0.950 . S
C1621 C1620 1.349 . S
C1621 C1637 1.349 . S
C1622 C1620 1.327 . S
C1622 C1641 1.429 . S
C1622 H1646 0.950 . S
C1623 C1640 1.574 . S
C1623 C1642 1.368 . S
C1623 H1647 0.949 . S
H1624 C1628 0.949 . S
C1625 C1626 1.349 . S
C1625 C1627 1.327 . S
C1625 H1648 0.950 . S
C1626 C1625 1.349 . S
C1626 C1638 1.349 . S
C1627 C1625 1.327 . S
C1627 C1643 1.429 . S
C1627 H1649 0.950 . S
C1628 H1624 0.949 . S
C1628 C1636 1.574 . S
C1628 C1644 1.368 . S
H1629 C1637 0.950 1_455 S
H1630 C1635 0.950 . S
H1631 C1636 0.949 . S
H1632 C1638 0.950 . S
H1633 C1639 0.950 . S
H1634 C1640 0.949 . S
C1635 H1630 0.950 . S
C1635 C1637 1.327 . S
C1635 C1641 1.429 . S
C1636 C1628 1.574 . S
C1636 H1631 0.949 . S
C1636 C1642 1.368 . S
C1637 C1621 1.349 . S
C1637 H1629 0.950 1_655 S
C1637 C1635 1.327 . S
C1638 C1626 1.349 . S
C1638 H1632 0.950 . S
C1638 C1639 1.327 . S
C1639 H1633 0.950 . S
C1639 C1638 1.327 . S
C1639 C1643 1.429 . S
C1640 C1623 1.574 . S
C1640 H1634 0.949 . S
C1640 C1644 1.368 . S
C1641 C1622 1.429 . S
C1641 C1635 1.429 . S
C1641 C1642 1.523 . S
C1642 C1623 1.368 . S
C1642 C1636 1.368 . S
C1642 C1641 1.523 . S
C1643 C1627 1.429 . S
C1643 C1639 1.429 . S
C1643 C1644 1.523 . S
C1644 C1628 1.368 . S
C1644 C1640 1.368 . S
C1644 C1643 1.523 . S
H1645 C1620 0.950 . S
H1646 C1622 0.950 . S
H1647 C1623 0.949 . S
H1648 C1625 0.950 . S
H1649 C1627 0.950 . S
C1650 C1651 1.349 . S
C1650 C1652 1.327 . S
C1650 H1675 0.950 . S
C1651 C1650 1.349 . S
C1651 C1667 1.349 . S
C1652 C1650 1.327 . S
C1652 C1671 1.429 . S
C1652 H1676 0.950 . S
C1653 C1670 1.574 . S
C1653 C1672 1.368 . S
C1653 H1677 0.949 . S
H1654 C1658 0.949 . S
C1655 C1656 1.349 . S
C1655 C1657 1.327 . S
C1655 H1678 0.950 . S
C1656 C1655 1.349 . S
C1656 C1668 1.349 . S
C1657 C1655 1.327 . S
C1657 C1673 1.429 . S
C1657 H1679 0.950 . S
C1658 H1654 0.949 . S
C1658 C1666 1.574 . S
C1658 C1674 1.368 . S
H1659 C1667 0.950 . S
H1660 C1665 0.950 . S
H1661 C1666 0.949 . S
H1662 C1668 0.950 . S
H1663 C1669 0.950 . S
H1664 C1670 0.949 . S
C1665 H1660 0.950 . S
C1665 C1667 1.327 . S
C1665 C1671 1.429 . S
C1666 C1658 1.574 . S
C1666 H1661 0.949 . S
C1666 C1672 1.368 . S
C1667 C1651 1.349 . S
C1667 H1659 0.950 . S
C1667 C1665 1.327 . S
C1668 C1656 1.349 . S
C1668 H1662 0.950 . S
C1668 C1669 1.327 . S
C1669 H1663 0.950 . S
C1669 C1668 1.327 . S
C1669 C1673 1.429 . S
C1670 C1653 1.574 . S
C1670 H1664 0.949 . S
C1670 C1674 1.368 . S
C1671 C1652 1.429 . S
C1671 C1665 1.429 . S
C1671 C1672 1.523 . S
C1672 C1653 1.368 . S
C1672 C1666 1.368 . S
C1672 C1671 1.523 . S
C1673 C1657 1.429 . S
C1673 C1669 1.429 . S
C1673 C1674 1.523 . S
C1674 C1658 1.368 . S
C1674 C1670 1.368 . S
C1674 C1673 1.523 . S
H1675 C1650 0.950 . S
H1676 C1652 0.950 . S
H1677 C1653 0.949 . S
H1678 C1655 0.950 . S
H1679 C1657 0.950 . S
C1680 C1681 1.349 . S
C1680 C1682 1.327 . S
C1680 H1705 0.950 . S
C1681 C1680 1.349 . S
C1681 C1697 1.349 . S
C1682 C1680 1.327 . S
C1682 C1701 1.429 . S
C1682 H1706 0.950 . S
C1683 C1700 1.574 . S
C1683 C1702 1.368 . S
C1683 H1707 0.949 . S
H1684 C1688 0.949 . S
C1685 C1686 1.349 . S
C1685 C1687 1.327 . S
C1685 H1708 0.950 . S
C1686 C1685 1.349 . S
C1686 C1698 1.349 . S
C1687 C1685 1.327 . S
C1687 C1703 1.429 . S
C1687 H1709 0.950 . S
C1688 H1684 0.949 . S
C1688 C1696 1.574 . S
C1688 C1704 1.368 . S
H1689 C1697 0.950 . S
H1690 C1695 0.950 . S
H1691 C1696 0.949 . S
H1692 C1698 0.950 . S
H1693 C1699 0.950 . S
H1694 C1700 0.949 . S
C1695 H1690 0.950 . S
C1695 C1697 1.327 . S
C1695 C1701 1.429 . S
C1696 C1688 1.574 . S
C1696 H1691 0.949 . S
C1696 C1702 1.368 . S
C1697 C1681 1.349 . S
C1697 H1689 0.950 . S
C1697 C1695 1.327 . S
C1698 C1686 1.349 . S
C1698 H1692 0.950 . S
C1698 C1699 1.327 . S
C1699 H1693 0.950 . S
C1699 C1698 1.327 . S
C1699 C1703 1.429 . S
C1700 C1683 1.574 . S
C1700 H1694 0.949 . S
C1700 C1704 1.368 . S
C1701 C1682 1.429 . S
C1701 C1695 1.429 . S
C1701 C1702 1.523 . S
C1702 C1683 1.368 . S
C1702 C1696 1.368 . S
C1702 C1701 1.523 . S
C1703 C1687 1.429 . S
C1703 C1699 1.429 . S
C1703 C1704 1.523 . S
C1704 C1688 1.368 . S
C1704 C1700 1.368 . S
C1704 C1703 1.523 . S
H1705 C1680 0.950 . S
H1706 C1682 0.950 . S
H1707 C1683 0.949 . S
H1708 C1685 0.950 . S
H1709 C1687 0.950 . S
C1710 C1711 1.349 . S
C1710 C1712 1.327 . S
C1710 H1735 0.950 . S
C1711 C1710 1.349 . S
C1711 C1727 1.349 . S
C1712 C1710 1.327 . S
C1712 C1731 1.429 . S
C1712 H1736 0.950 . S
C1713 C1730 1.574 . S
C1713 C1732 1.368 1_455 S
C1713 H1737 0.949 . S
H1714 C1718 0.949 . S
C1715 C1716 1.349 . S
C1715 C1717 1.327 . S
C1715 H1738 0.950 . S
C1716 C1715 1.349 . S
C1716 C1728 1.349 . S
C1717 C1715 1.327 . S
C1717 C1733 1.429 . S
C1717 H1739 0.950 . S
C1718 H1714 0.949 . S
C1718 C1726 1.574 1_455 S
C1718 C1734 1.368 . S
H1719 C1727 0.950 . S
H1720 C1725 0.950 . S
H1721 C1726 0.949 . S
H1722 C1728 0.950 . S
H1723 C1729 0.950 . S
H1724 C1730 0.949 . S
C1725 H1720 0.950 . S
C1725 C1727 1.327 . S
C1725 C1731 1.429 . S
C1726 C1718 1.574 1_655 S
C1726 H1721 0.949 . S
C1726 C1732 1.368 . S
C1727 C1711 1.349 . S
C1727 H1719 0.950 . S
C1727 C1725 1.327 . S
C1728 C1716 1.349 . S
C1728 H1722 0.950 . S
C1728 C1729 1.327 . S
C1729 H1723 0.950 . S
C1729 C1728 1.327 . S
C1729 C1733 1.429 . S
C1730 C1713 1.574 . S
C1730 H1724 0.949 . S
C1730 C1734 1.368 . S
C1731 C1712 1.429 . S
C1731 C1725 1.429 . S
C1731 C1732 1.523 . S
C1732 C1713 1.368 1_655 S
C1732 C1726 1.368 . S
C1732 C1731 1.523 . S
C1733 C1717 1.429 . S
C1733 C1729 1.429 . S
C1733 C1734 1.523 . S
C1734 C1718 1.368 . S
C1734 C1730 1.368 . S
C1734 C1733 1.523 . S
H1735 C1710 0.950 . S
H1736 C1712 0.950 . S
H1737 C1713 0.949 . S
H1738 C1715 0.950 . S
H1739 C1717 0.950 . S
C1740 C1741 1.349 . S
C1740 C1742 1.327 . S
C1740 H1765 0.950 . S
C1741 C1740 1.349 . S
C1741 C1757 1.349 . S
C1742 C1740 1.327 . S
C1742 C1761 1.429 . S
C1742 H1766 0.950 . S
C1743 C1760 1.574 . S
C1743 C1762 1.368 . S
C1743 H1767 0.949 . S
H1744 C1748 0.949 . S
C1745 C1746 1.349 . S
C1745 C1747 1.327 . S
C1745 H1768 0.950 . S
C1746 C1745 1.349 . S
C1746 C1758 1.349 . S
C1747 C1745 1.327 . S
C1747 C1763 1.429 . S
C1747 H1769 0.950 . S
C1748 H1744 0.949 . S
C1748 C1756 1.574 . S
C1748 C1764 1.368 . S
H1749 C1757 0.950 . S
H1750 C1755 0.950 . S
H1751 C1756 0.949 . S
H1752 C1758 0.950 . S
H1753 C1759 0.950 . S
H1754 C1760 0.949 . S
C1755 H1750 0.950 . S
C1755 C1757 1.327 . S
C1755 C1761 1.429 . S
C1756 C1748 1.574 . S
C1756 H1751 0.949 . S
C1756 C1762 1.368 . S
C1757 C1741 1.349 . S
C1757 H1749 0.950 . S
C1757 C1755 1.327 . S
C1758 C1746 1.349 . S
C1758 H1752 0.950 . S
C1758 C1759 1.327 . S
C1759 H1753 0.950 . S
C1759 C1758 1.327 . S
C1759 C1763 1.429 . S
C1760 C1743 1.574 . S
C1760 H1754 0.949 . S
C1760 C1764 1.368 . S
C1761 C1742 1.429 . S
C1761 C1755 1.429 . S
C1761 C1762 1.523 . S
C1762 C1743 1.368 . S
C1762 C1756 1.368 . S
C1762 C1761 1.523 . S
C1763 C1747 1.429 . S
C1763 C1759 1.429 . S
C1763 C1764 1.523 . S
C1764 C1748 1.368 . S
C1764 C1760 1.368 . S
C1764 C1763 1.523 . S
H1765 C1740 0.950 . S
H1766 C1742 0.950 . S
H1767 C1743 0.949 . S
H1768 C1745 0.950 . S
H1769 C1747 0.950 . S
C1770 C1771 1.349 . S
C1770 C1772 1.327 . S
C1770 H1795 0.950 . S
C1771 C1770 1.349 . S
C1771 C1787 1.349 . S
C1772 C1770 1.327 . S
C1772 C1791 1.429 . S
C1772 H1796 0.950 . S
C1773 C1790 1.574 . S
C1773 C1792 1.368 1_545 S
C1773 H1797 0.949 . S
H1774 C1778 0.949 . S
C1775 C1776 1.349 . S
C1775 C1777 1.327 . S
C1775 H1798 0.950 . S
C1776 C1775 1.349 . S
C1776 C1788 1.349 . S
C1777 C1775 1.327 . S
C1777 C1793 1.429 . S
C1777 H1799 0.950 . S
C1778 H1774 0.949 . S
C1778 C1786 1.574 1_545 S
C1778 C1794 1.368 . S
H1779 C1787 0.950 . S
H1780 C1785 0.950 . S
H1781 C1786 0.949 . S
H1782 C1788 0.950 . S
H1783 C1789 0.950 . S
H1784 C1790 0.949 . S
C1785 H1780 0.950 . S
C1785 C1787 1.327 . S
C1785 C1791 1.429 . S
C1786 C1778 1.574 1_565 S
C1786 H1781 0.949 . S
C1786 C1792 1.368 . S
C1787 C1771 1.349 . S
C1787 H1779 0.950 . S
C1787 C1785 1.327 . S
C1788 C1776 1.349 . S
C1788 H1782 0.950 . S
C1788 C1789 1.327 . S
C1789 H1783 0.950 . S
C1789 C1788 1.327 . S
C1789 C1793 1.429 . S
C1790 C1773 1.574 . S
C1790 H1784 0.949 . S
C1790 C1794 1.368 . S
C1791 C1772 1.429 . S
C1791 C1785 1.429 . S
C1791 C1792 1.523 . S
C1792 C1773 1.368 1_565 S
C1792 C1786 1.368 . S
C1792 C1791 1.523 . S
C1793 C1777 1.429 . S
C1793 C1789 1.429 . S
C1793 C1794 1.523 . S
C1794 C1778 1.368 . S
C1794 C1790 1.368 . S
C1794 C1793 1.523 . S
H1795 C1770 0.950 . S
H1796 C1772 0.950 . S
H1797 C1773 0.949 . S
H1798 C1775 0.950 . S
H1799 C1777 0.950 . S
C1800 C1801 1.349 . S
C1800 C1802 1.327 . S
C1800 H1825 0.950 . S
C1801 C1800 1.349 . S
C1801 C1817 1.349 . S
C1802 C1800 1.327 . S
C1802 C1821 1.429 . S
C1802 H1826 0.950 . S
C1803 C1820 1.574 . S
C1803 C1822 1.368 . S
C1803 H1827 0.949 . S
H1804 C1808 0.949 . S
C1805 C1806 1.349 . S
C1805 C1807 1.327 . S
C1805 H1828 0.950 . S
C1806 C1805 1.349 . S
C1806 C1818 1.349 . S
C1807 C1805 1.327 . S
C1807 C1823 1.429 . S
C1807 H1829 0.950 . S
C1808 H1804 0.949 . S
C1808 C1816 1.574 . S
C1808 C1824 1.368 . S
H1809 C1817 0.950 . S
H1810 C1815 0.950 . S
H1811 C1816 0.949 . S
H1812 C1818 0.950 . S
H1813 C1819 0.950 . S
H1814 C1820 0.949 . S
C1815 H1810 0.950 . S
C1815 C1817 1.327 . S
C1815 C1821 1.429 . S
C1816 C1808 1.574 . S
C1816 H1811 0.949 . S
C1816 C1822 1.368 . S
C1817 C1801 1.349 . S
C1817 H1809 0.950 . S
C1817 C1815 1.327 . S
C1818 C1806 1.349 . S
C1818 H1812 0.950 . S
C1818 C1819 1.327 . S
C1819 H1813 0.950 . S
C1819 C1818 1.327 . S
C1819 C1823 1.429 . S
C1820 C1803 1.574 . S
C1820 H1814 0.949 . S
C1820 C1824 1.368 . S
C1821 C1802 1.429 . S
C1821 C1815 1.429 . S
C1821 C1822 1.523 . S
C1822 C1803 1.368 . S
C1822 C1816 1.368 . S
C1822 C1821 1.523 . S
C1823 C1807 1.429 . S
C1823 C1819 1.429 . S
C1823 C1824 1.523 . S
C1824 C1808 1.368 . S
C1824 C1820 1.368 . S
C1824 C1823 1.523 . S
H1825 C1800 0.950 . S
H1826 C1802 0.950 . S
H1827 C1803 0.949 . S
H1828 C1805 0.950 . S
H1829 C1807 0.950 . S
C1830 C1831 1.349 . S
C1830 C1832 1.327 . S
C1830 H1855 0.950 . S
C1831 C1830 1.349 . S
C1831 C1847 1.349 . S
C1832 C1830 1.327 . S
C1832 C1851 1.429 . S
C1832 H1856 0.950 . S
C1833 C1850 1.574 . S
C1833 C1852 1.368 . S
C1833 H1857 0.949 . S
H1834 C1838 0.949 . S
C1835 C1836 1.349 . S
C1835 C1837 1.327 . S
C1835 H1858 0.950 . S
C1836 C1835 1.349 . S
C1836 C1848 1.349 . S
C1837 C1835 1.327 . S
C1837 C1853 1.429 . S
C1837 H1859 0.950 . S
C1838 H1834 0.949 . S
C1838 C1846 1.574 . S
C1838 C1854 1.368 . S
H1839 C1847 0.950 . S
H1840 C1845 0.950 . S
H1841 C1846 0.949 . S
H1842 C1848 0.950 . S
H1843 C1849 0.950 . S
H1844 C1850 0.949 . S
C1845 H1840 0.950 . S
C1845 C1847 1.327 . S
C1845 C1851 1.429 . S
C1846 C1838 1.574 . S
C1846 H1841 0.949 . S
C1846 C1852 1.368 . S
C1847 C1831 1.349 . S
C1847 H1839 0.950 . S
C1847 C1845 1.327 . S
C1848 C1836 1.349 . S
C1848 H1842 0.950 . S
C1848 C1849 1.327 . S
C1849 H1843 0.950 . S
C1849 C1848 1.327 . S
C1849 C1853 1.429 . S
C1850 C1833 1.574 . S
C1850 H1844 0.949 . S
C1850 C1854 1.368 . S
C1851 C1832 1.429 . S
C1851 C1845 1.429 . S
C1851 C1852 1.523 . S
C1852 C1833 1.368 . S
C1852 C1846 1.368 . S
C1852 C1851 1.523 . S
C1853 C1837 1.429 . S
C1853 C1849 1.429 . S
C1853 C1854 1.523 . S
C1854 C1838 1.368 . S
C1854 C1850 1.368 . S
C1854 C1853 1.523 . S
H1855 C1830 0.950 . S
H1856 C1832 0.950 . S
H1857 C1833 0.949 . S
H1858 C1835 0.950 . S
H1859 C1837 0.950 . S
C1860 C1861 1.349 . S
C1860 C1862 1.327 . S
C1860 H1885 0.950 . S
C1861 C1860 1.349 . S
C1861 C1877 1.349 . S
C1862 C1860 1.327 . S
C1862 C1881 1.429 . S
C1862 H1886 0.950 . S
C1863 C1880 1.574 . S
C1863 C1882 1.368 . S
C1863 H1887 0.949 . S
H1864 C1868 0.949 . S
C1865 C1866 1.349 . S
C1865 C1867 1.327 . S
C1865 H1888 0.950 . S
C1866 C1865 1.349 . S
C1866 C1878 1.349 . S
C1867 C1865 1.327 . S
C1867 C1883 1.429 . S
C1867 H1889 0.950 . S
C1868 H1864 0.949 . S
C1868 C1876 1.574 . S
C1868 C1884 1.368 . S
H1869 C1877 0.950 . S
H1870 C1875 0.950 . S
H1871 C1876 0.949 . S
H1872 C1878 0.950 . S
H1873 C1879 0.950 . S
H1874 C1880 0.949 . S
C1875 H1870 0.950 . S
C1875 C1877 1.327 . S
C1875 C1881 1.429 . S
C1876 C1868 1.574 . S
C1876 H1871 0.949 . S
C1876 C1882 1.368 . S
C1877 C1861 1.349 . S
C1877 H1869 0.950 . S
C1877 C1875 1.327 . S
C1878 C1866 1.349 . S
C1878 H1872 0.950 . S
C1878 C1879 1.327 . S
C1879 H1873 0.950 . S
C1879 C1878 1.327 . S
C1879 C1883 1.429 . S
C1880 C1863 1.574 . S
C1880 H1874 0.949 . S
C1880 C1884 1.368 . S
C1881 C1862 1.429 . S
C1881 C1875 1.429 . S
C1881 C1882 1.523 . S
C1882 C1863 1.368 . S
C1882 C1876 1.368 . S
C1882 C1881 1.523 . S
C1883 C1867 1.429 . S
C1883 C1879 1.429 . S
C1883 C1884 1.523 . S
C1884 C1868 1.368 . S
C1884 C1880 1.368 . S
C1884 C1883 1.523 . S
H1885 C1860 0.950 . S
H1886 C1862 0.950 . S
H1887 C1863 0.949 . S
H1888 C1865 0.950 . S
H1889 C1867 0.950 . S
C1890 C1891 1.349 . S
C1890 C1892 1.327 . S
C1890 H1915 0.950 . S
C1891 C1890 1.349 . S
C1891 C1907 1.349 . S
C1892 C1890 1.327 . S
C1892 C1911 1.429 . S
C1892 H1916 0.950 . S
C1893 C1910 1.574 . S
C1893 C1912 1.368 . S
C1893 H1917 0.949 . S
H1894 C1898 0.949 . S
C1895 C1896 1.349 . S
C1895 C1897 1.327 . S
C1895 H1918 0.950 . S
C1896 C1895 1.349 . S
C1896 C1908 1.349 . S
C1897 C1895 1.327 . S
C1897 C1913 1.429 . S
C1897 H1919 0.950 . S
C1898 H1894 0.949 . S
C1898 C1906 1.574 . S
C1898 C1914 1.368 . S
H1899 C1907 0.950 . S
H1900 C1905 0.950 . S
H1901 C1906 0.949 . S
H1902 C1908 0.950 . S
H1903 C1909 0.950 . S
H1904 C1910 0.949 . S
C1905 H1900 0.950 . S
C1905 C1907 1.327 . S
C1905 C1911 1.429 . S
C1906 C1898 1.574 . S
C1906 H1901 0.949 . S
C1906 C1912 1.368 . S
C1907 C1891 1.349 . S
C1907 H1899 0.950 . S
C1907 C1905 1.327 . S
C1908 C1896 1.349 . S
C1908 H1902 0.950 . S
C1908 C1909 1.327 . S
C1909 H1903 0.950 . S
C1909 C1908 1.327 . S
C1909 C1913 1.429 . S
C1910 C1893 1.574 . S
C1910 H1904 0.949 . S
C1910 C1914 1.368 . S
C1911 C1892 1.429 . S
C1911 C1905 1.429 . S
C1911 C1912 1.523 . S
C1912 C1893 1.368 . S
C1912 C1906 1.368 . S
C1912 C1911 1.523 . S
C1913 C1897 1.429 . S
C1913 C1909 1.429 . S
C1913 C1914 1.523 . S
C1914 C1898 1.368 . S
C1914 C1910 1.368 . S
C1914 C1913 1.523 . S
H1915 C1890 0.950 . S
H1916 C1892 0.950 . S
H1917 C1893 0.949 . S
H1918 C1895 0.950 . S
H1919 C1897 0.950 . S
C1920 C1921 1.349 . S
C1920 C1922 1.327 . S
C1920 H1945 0.950 . S
C1921 C1920 1.349 . S
C1921 C1937 1.349 . S
C1922 C1920 1.327 . S
C1922 C1941 1.429 . S
C1922 H1946 0.950 . S
C1923 C1940 1.574 . S
C1923 C1942 1.368 . S
C1923 H1947 0.949 . S
H1924 C1928 0.949 . S
C1925 C1926 1.349 . S
C1925 C1927 1.327 . S
C1925 H1948 0.950 . S
C1926 C1925 1.349 . S
C1926 C1938 1.349 . S
C1927 C1925 1.327 . S
C1927 C1943 1.429 . S
C1927 H1949 0.950 . S
C1928 H1924 0.949 . S
C1928 C1936 1.574 . S
C1928 C1944 1.368 . S
H1929 C1937 0.950 . S
H1930 C1935 0.950 . S
H1931 C1936 0.949 . S
H1932 C1938 0.950 . S
H1933 C1939 0.950 . S
H1934 C1940 0.949 . S
C1935 H1930 0.950 . S
C1935 C1937 1.327 . S
C1935 C1941 1.429 . S
C1936 C1928 1.574 . S
C1936 H1931 0.949 . S
C1936 C1942 1.368 . S
C1937 C1921 1.349 . S
C1937 H1929 0.950 . S
C1937 C1935 1.327 . S
C1938 C1926 1.349 . S
C1938 H1932 0.950 . S
C1938 C1939 1.327 . S
C1939 H1933 0.950 . S
C1939 C1938 1.327 . S
C1939 C1943 1.429 . S
C1940 C1923 1.574 . S
C1940 H1934 0.949 . S
C1940 C1944 1.368 . S
C1941 C1922 1.429 . S
C1941 C1935 1.429 . S
C1941 C1942 1.523 . S
C1942 C1923 1.368 . S
C1942 C1936 1.368 . S
C1942 C1941 1.523 . S
C1943 C1927 1.429 . S
C1943 C1939 1.429 . S
C1943 C1944 1.523 . S
C1944 C1928 1.368 . S
C1944 C1940 1.368 . S
C1944 C1943 1.523 . S
H1945 C1920 0.950 . S
H1946 C1922 0.950 . S
H1947 C1923 0.949 . S
H1948 C1925 0.950 . S
H1949 C1927 0.950 . S
C1950 C1951 1.349 . S
C1950 C1952 1.327 . S
C1950 H1975 0.950 . S
C1951 C1950 1.349 . S
C1951 C1967 1.349 . S
C1952 C1950 1.327 . S
C1952 C1971 1.429 . S
C1952 H1976 0.950 . S
C1953 C1970 1.574 . S
C1953 C1972 1.368 . S
C1953 H1977 0.949 . S
H1954 C1958 0.949 . S
C1955 C1956 1.349 . S
C1955 C1957 1.327 . S
C1955 H1978 0.950 . S
C1956 C1955 1.349 . S
C1956 C1968 1.349 . S
C1957 C1955 1.327 . S
C1957 C1973 1.429 . S
C1957 H1979 0.950 . S
C1958 H1954 0.949 . S
C1958 C1966 1.574 . S
C1958 C1974 1.368 . S
H1959 C1967 0.950 . S
H1960 C1965 0.950 . S
H1961 C1966 0.949 . S
H1962 C1968 0.950 . S
H1963 C1969 0.950 . S
H1964 C1970 0.949 . S
C1965 H1960 0.950 . S
C1965 C1967 1.327 . S
C1965 C1971 1.429 . S
C1966 C1958 1.574 . S
C1966 H1961 0.949 . S
C1966 C1972 1.368 . S
C1967 C1951 1.349 . S
C1967 H1959 0.950 . S
C1967 C1965 1.327 . S
C1968 C1956 1.349 . S
C1968 H1962 0.950 . S
C1968 C1969 1.327 . S
C1969 H1963 0.950 . S
C1969 C1968 1.327 . S
C1969 C1973 1.429 . S
C1970 C1953 1.574 . S
C1970 H1964 0.949 . S
C1970 C1974 1.368 . S
C1971 C1952 1.429 . S
C1971 C1965 1.429 . S
C1971 C1972 1.523 . S
C1972 C1953 1.368 . S
C1972 C1966 1.368 . S
C1972 C1971 1.523 . S
C1973 C1957 1.429 . S
C1973 C1969 1.429 . S
C1973 C1974 1.523 . S
C1974 C1958 1.368 . S
C1974 C1970 1.368 . S
C1974 C1973 1.523 . S
H1975 C1950 0.950 . S
H1976 C1952 0.950 . S
H1977 C1953 0.949 . S
H1978 C1955 0.950 . S
H1979 C1957 0.950 . S
C1980 C1981 1.349 . S
C1980 C1982 1.327 . S
C1980 H2005 0.950 . S
C1981 C1980 1.349 . S
C1981 C1997 1.349 . S
C1982 C1980 1.327 . S
C1982 C2001 1.429 . S
C1982 H2006 0.950 . S
C1983 C2000 1.574 . S
C1983 C2002 1.368 . S
C1983 H2007 0.949 . S
H1984 C1988 0.949 . S
C1985 C1986 1.349 . S
C1985 C1987 1.327 . S
C1985 H2008 0.950 . S
C1986 C1985 1.349 . S
C1986 C1998 1.349 . S
C1987 C1985 1.327 . S
C1987 C2003 1.429 . S
C1987 H2009 0.950 . S
C1988 H1984 0.949 . S
C1988 C1996 1.574 . S
C1988 C2004 1.368 . S
H1989 C1997 0.950 . S
H1990 C1995 0.950 . S
H1991 C1996 0.949 . S
H1992 C1998 0.950 . S
H1993 C1999 0.950 . S
H1994 C2000 0.949 . S
C1995 H1990 0.950 . S
C1995 C1997 1.327 . S
C1995 C2001 1.429 . S
C1996 C1988 1.574 . S
C1996 H1991 0.949 . S
C1996 C2002 1.368 . S
C1997 C1981 1.349 . S
C1997 H1989 0.950 . S
C1997 C1995 1.327 . S
C1998 C1986 1.349 . S
C1998 H1992 0.950 . S
C1998 C1999 1.327 . S
C1999 H1993 0.950 . S
C1999 C1998 1.327 . S
C1999 C2003 1.429 . S
C2000 C1983 1.574 . S
C2000 H1994 0.949 . S
C2000 C2004 1.368 . S
C2001 C1982 1.429 . S
C2001 C1995 1.429 . S
C2001 C2002 1.523 . S
C2002 C1983 1.368 . S
C2002 C1996 1.368 . S
C2002 C2001 1.523 . S
C2003 C1987 1.429 . S
C2003 C1999 1.429 . S
C2003 C2004 1.523 . S
C2004 C1988 1.368 . S
C2004 C2000 1.368 . S
C2004 C2003 1.523 . S
H2005 C1980 0.950 . S
H2006 C1982 0.950 . S
H2007 C1983 0.949 . S
H2008 C1985 0.950 . S
H2009 C1987 0.950 . S
C2010 C2011 1.349 . S
C2010 C2012 1.327 . S
C2010 H2035 0.950 . S
C2011 C2010 1.349 . S
C2011 C2027 1.349 . S
C2012 C2010 1.327 . S
C2012 C2031 1.429 . S
C2012 H2036 0.950 . S
C2013 C2030 1.574 . S
C2013 C2032 1.368 . S
C2013 H2037 0.949 . S
H2014 C2018 0.949 . S
C2015 C2016 1.349 . S
C2015 C2017 1.327 . S
C2015 H2038 0.950 . S
C2016 C2015 1.349 . S
C2016 C2028 1.349 . S
C2017 C2015 1.327 . S
C2017 C2033 1.429 . S
C2017 H2039 0.950 . S
C2018 H2014 0.949 . S
C2018 C2026 1.574 . S
C2018 C2034 1.368 . S
H2019 C2027 0.950 . S
H2020 C2025 0.950 . S
H2021 C2026 0.949 . S
H2022 C2028 0.950 . S
H2023 C2029 0.950 . S
H2024 C2030 0.949 . S
C2025 H2020 0.950 . S
C2025 C2027 1.327 . S
C2025 C2031 1.429 . S
C2026 C2018 1.574 . S
C2026 H2021 0.949 . S
C2026 C2032 1.368 . S
C2027 C2011 1.349 . S
C2027 H2019 0.950 . S
C2027 C2025 1.327 . S
C2028 C2016 1.349 . S
C2028 H2022 0.950 . S
C2028 C2029 1.327 . S
C2029 H2023 0.950 . S
C2029 C2028 1.327 . S
C2029 C2033 1.429 . S
C2030 C2013 1.574 . S
C2030 H2024 0.949 . S
C2030 C2034 1.368 . S
C2031 C2012 1.429 . S
C2031 C2025 1.429 . S
C2031 C2032 1.523 . S
C2032 C2013 1.368 . S
C2032 C2026 1.368 . S
C2032 C2031 1.523 . S
C2033 C2017 1.429 . S
C2033 C2029 1.429 . S
C2033 C2034 1.523 . S
C2034 C2018 1.368 . S
C2034 C2030 1.368 . S
C2034 C2033 1.523 . S
H2035 C2010 0.950 . S
H2036 C2012 0.950 . S
H2037 C2013 0.949 . S
H2038 C2015 0.950 . S
H2039 C2017 0.950 . S
C2040 C2041 1.349 . S
C2040 C2042 1.327 . S
C2040 H2065 0.950 . S
C2041 C2040 1.349 . S
C2041 C2057 1.349 . S
C2042 C2040 1.327 . S
C2042 C2061 1.429 . S
C2042 H2066 0.950 . S
C2043 C2060 1.574 . S
C2043 C2062 1.368 . S
C2043 H2067 0.949 . S
H2044 C2048 0.949 . S
C2045 C2046 1.349 . S
C2045 C2047 1.327 . S
C2045 H2068 0.950 . S
C2046 C2045 1.349 . S
C2046 C2058 1.349 . S
C2047 C2045 1.327 . S
C2047 C2063 1.429 . S
C2047 H2069 0.950 . S
C2048 H2044 0.949 . S
C2048 C2056 1.574 . S
C2048 C2064 1.368 . S
H2049 C2057 0.950 . S
H2050 C2055 0.950 . S
H2051 C2056 0.949 . S
H2052 C2058 0.950 . S
H2053 C2059 0.950 . S
H2054 C2060 0.949 . S
C2055 H2050 0.950 . S
C2055 C2057 1.327 . S
C2055 C2061 1.429 . S
C2056 C2048 1.574 . S
C2056 H2051 0.949 . S
C2056 C2062 1.368 . S
C2057 C2041 1.349 . S
C2057 H2049 0.950 . S
C2057 C2055 1.327 . S
C2058 C2046 1.349 . S
C2058 H2052 0.950 . S
C2058 C2059 1.327 . S
C2059 H2053 0.950 . S
C2059 C2058 1.327 . S
C2059 C2063 1.429 . S
C2060 C2043 1.574 . S
C2060 H2054 0.949 . S
C2060 C2064 1.368 . S
C2061 C2042 1.429 . S
C2061 C2055 1.429 . S
C2061 C2062 1.523 . S
C2062 C2043 1.368 . S
C2062 C2056 1.368 . S
C2062 C2061 1.523 . S
C2063 C2047 1.429 . S
C2063 C2059 1.429 . S
C2063 C2064 1.523 . S
C2064 C2048 1.368 . S
C2064 C2060 1.368 . S
C2064 C2063 1.523 . S
H2065 C2040 0.950 . S
H2066 C2042 0.950 . S
H2067 C2043 0.949 . S
H2068 C2045 0.950 . S
H2069 C2047 0.950 . S
C2070 C2071 1.349 . S
C2070 C2072 1.327 . S
C2070 H2095 0.950 . S
C2071 C2070 1.349 . S
C2071 C2087 1.349 . S
C2072 C2070 1.327 . S
C2072 C2091 1.429 . S
C2072 H2096 0.950 . S
C2073 C2090 1.574 . S
C2073 C2092 1.368 . S
C2073 H2097 0.949 . S
H2074 C2078 0.949 . S
C2075 C2076 1.349 1_655 S
C2075 C2077 1.327 . S
C2075 H2098 0.950 1_655 S
C2076 C2075 1.349 1_455 S
C2076 C2088 1.349 1_455 S
C2077 C2075 1.327 . S
C2077 C2093 1.429 . S
C2077 H2099 0.950 . S
C2078 H2074 0.949 . S
C2078 C2086 1.574 . S
C2078 C2094 1.368 . S
H2079 C2087 0.950 . S
H2080 C2085 0.950 . S
H2081 C2086 0.949 . S
H2082 C2088 0.950 1_455 S
H2083 C2089 0.950 . S
H2084 C2090 0.949 . S
C2085 H2080 0.950 . S
C2085 C2087 1.327 . S
C2085 C2091 1.429 . S
C2086 C2078 1.574 . S
C2086 H2081 0.949 . S
C2086 C2092 1.368 . S
C2087 C2071 1.349 . S
C2087 H2079 0.950 . S
C2087 C2085 1.327 . S
C2088 C2076 1.349 1_655 S
C2088 H2082 0.950 1_655 S
C2088 C2089 1.327 . S
C2089 H2083 0.950 . S
C2089 C2088 1.327 . S
C2089 C2093 1.429 . S
C2090 C2073 1.574 . S
C2090 H2084 0.949 . S
C2090 C2094 1.368 . S
C2091 C2072 1.429 . S
C2091 C2085 1.429 . S
C2091 C2092 1.523 . S
C2092 C2073 1.368 . S
C2092 C2086 1.368 . S
C2092 C2091 1.523 . S
C2093 C2077 1.429 . S
C2093 C2089 1.429 . S
C2093 C2094 1.523 . S
C2094 C2078 1.368 . S
C2094 C2090 1.368 . S
C2094 C2093 1.523 . S
H2095 C2070 0.950 . S
H2096 C2072 0.950 . S
H2097 C2073 0.949 . S
H2098 C2075 0.950 1_455 S
H2099 C2077 0.950 . S
C2100 C2101 1.349 . S
C2100 C2102 1.327 1_565 S
C2100 H2125 0.950 . S
C2101 C2100 1.349 . S
C2101 C2117 1.349 . S
C2102 C2100 1.327 1_545 S
C2102 C2121 1.429 . S
C2102 H2126 0.950 . S
C2103 C2120 1.574 . S
C2103 C2122 1.368 . S
C2103 H2127 0.949 . S
H2104 C2108 0.949 . S
C2105 C2106 1.349 . S
C2105 C2107 1.327 . S
C2105 H2128 0.950 . S
C2106 C2105 1.349 . S
C2106 C2118 1.349 . S
C2107 C2105 1.327 . S
C2107 C2123 1.429 . S
C2107 H2129 0.950 . S
C2108 H2104 0.949 . S
C2108 C2116 1.574 . S
C2108 C2124 1.368 . S
H2109 C2117 0.950 . S
H2110 C2115 0.950 . S
H2111 C2116 0.949 . S
H2112 C2118 0.950 . S
H2113 C2119 0.950 . S
H2114 C2120 0.949 . S
C2115 H2110 0.950 . S
C2115 C2117 1.327 . S
C2115 C2121 1.429 1_565 S
C2116 C2108 1.574 . S
C2116 H2111 0.949 . S
C2116 C2122 1.368 . S
C2117 C2101 1.349 . S
C2117 H2109 0.950 . S
C2117 C2115 1.327 . S
C2118 C2106 1.349 . S
C2118 H2112 0.950 . S
C2118 C2119 1.327 . S
C2119 H2113 0.950 . S
C2119 C2118 1.327 . S
C2119 C2123 1.429 . S
C2120 C2103 1.574 . S
C2120 H2114 0.949 . S
C2120 C2124 1.368 . S
C2121 C2102 1.429 . S
C2121 C2115 1.429 1_545 S
C2121 C2122 1.523 . S
C2122 C2103 1.368 . S
C2122 C2116 1.368 . S
C2122 C2121 1.523 . S
C2123 C2107 1.429 . S
C2123 C2119 1.429 . S
C2123 C2124 1.523 . S
C2124 C2108 1.368 . S
C2124 C2120 1.368 . S
C2124 C2123 1.523 . S
H2125 C2100 0.950 . S
H2126 C2102 0.950 . S
H2127 C2103 0.949 . S
H2128 C2105 0.950 . S
H2129 C2107 0.950 . S
C2130 C2131 1.349 . S
C2130 C2132 1.327 . S
C2130 H2155 0.950 . S
C2131 C2130 1.349 . S
C2131 C2147 1.349 . S
C2132 C2130 1.327 . S
C2132 C2151 1.429 . S
C2132 H2156 0.950 . S
C2133 C2150 1.566 1_655 S
C2133 C2152 1.368 . S
C2133 H2157 0.949 . S
H2134 C2138 0.949 . S
C2135 C2136 1.349 . S
C2135 C2137 1.327 . S
C2135 H2158 0.950 . S
C2136 C2135 1.349 . S
C2136 C2148 1.349 . S
C2137 C2135 1.327 . S
C2137 C2153 1.429 . S
C2137 H2159 0.950 . S
C2138 H2134 0.949 . S
C2138 C2146 1.574 . S
C2138 C2154 1.377 . S
H2139 C2147 0.950 . S
H2140 C2145 0.950 . S
H2141 C2146 0.949 . S
H2142 C2148 0.950 . S
H2143 C2149 0.950 . S
H2144 C2150 0.964 . S
C2145 H2140 0.950 . S
C2145 C2147 1.327 . S
C2145 C2151 1.429 . S
C2146 C2138 1.574 . S
C2146 H2141 0.949 . S
C2146 C2152 1.368 . S
C2147 C2131 1.349 . S
C2147 H2139 0.950 . S
C2147 C2145 1.327 . S
C2148 C2136 1.349 . S
C2148 H2142 0.950 . S
C2148 C2149 1.327 . S
C2149 H2143 0.950 . S
C2149 C2148 1.327 . S
C2149 C2153 1.429 . S
C2150 C2133 1.566 1_455 S
C2150 H2144 0.964 . S
C2150 C2154 1.354 1_455 S
C2151 C2132 1.429 . S
C2151 C2145 1.429 . S
C2151 C2152 1.523 . S
C2152 C2133 1.368 . S
C2152 C2146 1.368 . S
C2152 C2151 1.523 . S
C2153 C2137 1.429 . S
C2153 C2149 1.429 . S
C2153 C2154 1.519 1_455 S
C2154 C2138 1.377 . S
C2154 C2150 1.354 1_655 S
C2154 C2153 1.519 1_655 S
H2155 C2130 0.950 . S
H2156 C2132 0.950 . S
H2157 C2133 0.949 . S
H2158 C2135 0.950 . S
H2159 C2137 0.950 . S
C2160 C2161 1.349 . S
C2160 C2162 1.327 . S
C2160 H2185 0.950 . S
C2161 C2160 1.349 . S
C2161 C2177 1.349 . S
C2162 C2160 1.327 . S
C2162 C2181 1.429 . S
C2162 H2186 0.950 . S
C2163 C2180 1.574 . S
C2163 C2182 1.368 . S
C2163 H2187 0.949 . S
H2164 C2168 0.949 . S
C2165 C2166 1.324 1_565 S
C2165 C2167 1.366 . S
C2165 H2188 0.936 1_565 S
C2166 C2165 1.324 1_545 S
C2166 C2178 1.349 1_545 S
C2167 C2165 1.366 . S
C2167 C2183 1.429 . S
C2167 H2189 0.950 . S
C2168 H2164 0.949 . S
C2168 C2176 1.574 . S
C2168 C2184 1.368 . S
H2169 C2177 0.950 . S
H2170 C2175 0.950 . S
H2171 C2176 0.949 . S
H2172 C2178 0.924 1_545 S
H2173 C2179 0.950 . S
H2174 C2180 0.949 . S
C2175 H2170 0.950 . S
C2175 C2177 1.327 . S
C2175 C2181 1.429 . S
C2176 C2168 1.574 . S
C2176 H2171 0.949 . S
C2176 C2182 1.368 . S
C2177 C2161 1.349 . S
C2177 H2169 0.950 . S
C2177 C2175 1.327 . S
C2178 C2166 1.349 1_565 S
C2178 H2172 0.924 1_565 S
C2178 C2179 1.327 . S
C2179 H2173 0.950 . S
C2179 C2178 1.327 . S
C2179 C2183 1.429 . S
C2180 C2163 1.574 . S
C2180 H2174 0.949 . S
C2180 C2184 1.368 . S
C2181 C2162 1.429 . S
C2181 C2175 1.429 . S
C2181 C2182 1.523 . S
C2182 C2163 1.368 . S
C2182 C2176 1.368 . S
C2182 C2181 1.523 . S
C2183 C2167 1.429 . S
C2183 C2179 1.429 . S
C2183 C2184 1.523 . S
C2184 C2168 1.368 . S
C2184 C2180 1.368 . S
C2184 C2183 1.523 . S
H2185 C2160 0.950 . S
H2186 C2162 0.950 . S
H2187 C2163 0.949 . S
H2188 C2165 0.936 1_545 S
H2189 C2167 0.950 . S
C2190 C2191 1.349 . S
C2190 C2192 1.327 . S
C2190 H2215 0.950 . S
C2191 C2190 1.349 . S
C2191 C2207 1.349 . S
C2192 C2190 1.327 . S
C2192 C2211 1.429 . S
C2192 H2216 0.950 . S
C2193 C2210 1.574 1_545 S
C2193 C2212 1.362 1_545 S
C2193 H2217 0.949 . S
H2194 C2198 0.949 . S
C2195 C2196 1.349 . S
C2195 C2197 1.327 . S
C2195 H2218 0.950 . S
C2196 C2195 1.349 . S
C2196 C2208 1.349 . S
C2197 C2195 1.327 . S
C2197 C2213 1.429 . S
C2197 H2219 0.950 . S
C2198 H2194 0.949 . S
C2198 C2206 1.574 . S
C2198 C2214 1.368 . S
H2199 C2207 0.950 . S
H2200 C2205 0.950 . S
H2201 C2206 0.949 . S
H2202 C2208 0.950 . S
H2203 C2209 0.950 . S
H2204 C2210 0.949 . S
C2205 H2200 0.950 . S
C2205 C2207 1.327 . S
C2205 C2211 1.429 . S
C2206 C2198 1.574 . S
C2206 H2201 0.949 . S
C2206 C2212 1.378 . S
C2207 C2191 1.349 . S
C2207 H2199 0.950 . S
C2207 C2205 1.327 . S
C2208 C2196 1.349 . S
C2208 H2202 0.950 . S
C2208 C2209 1.327 . S
C2209 H2203 0.950 . S
C2209 C2208 1.327 . S
C2209 C2213 1.429 . S
C2210 C2193 1.574 1_565 S
C2210 H2204 0.949 . S
C2210 C2214 1.368 . S
C2211 C2192 1.429 . S
C2211 C2205 1.429 . S
C2211 C2212 1.519 1_545 S
C2212 C2193 1.362 1_565 S
C2212 C2206 1.378 . S
C2212 C2211 1.519 1_565 S
C2213 C2197 1.429 . S
C2213 C2209 1.429 . S
C2213 C2214 1.523 . S
C2214 C2198 1.368 . S
C2214 C2210 1.368 . S
C2214 C2213 1.523 . S
H2215 C2190 0.950 . S
H2216 C2192 0.950 . S
H2217 C2193 0.949 . S
H2218 C2195 0.950 . S
H2219 C2197 0.950 . S
C2220 C2221 1.349 . S
C2220 C2222 1.327 . S
C2220 H2245 0.950 . S
C2221 C2220 1.349 . S
C2221 C2237 1.349 . S
C2222 C2220 1.327 . S
C2222 C2241 1.429 . S
C2222 H2246 0.950 . S
C2223 C2240 1.574 . S
C2223 C2242 1.368 . S
C2223 H2247 0.949 . S
H2224 C2228 0.949 . S
C2225 C2226 1.349 . S
C2225 C2227 1.327 . S
C2225 H2248 0.950 . S
C2226 C2225 1.349 . S
C2226 C2238 1.349 . S
C2227 C2225 1.327 . S
C2227 C2243 1.429 1_655 S
C2227 H2249 0.950 . S
C2228 H2224 0.949 . S
C2228 C2236 1.574 . S
C2228 C2244 1.368 . S
H2229 C2237 0.950 . S
H2230 C2235 0.950 . S
H2231 C2236 0.949 . S
H2232 C2238 0.950 . S
H2233 C2239 0.970 . S
H2234 C2240 0.949 . S
C2235 H2230 0.950 . S
C2235 C2237 1.327 . S
C2235 C2241 1.429 . S
C2236 C2228 1.574 . S
C2236 H2231 0.949 . S
C2236 C2242 1.368 . S
C2237 C2221 1.349 . S
C2237 H2229 0.950 . S
C2237 C2235 1.327 . S
C2238 C2226 1.349 . S
C2238 H2232 0.950 . S
C2238 C2239 1.292 1_655 S
C2239 H2233 0.970 . S
C2239 C2238 1.292 1_455 S
C2239 C2243 1.445 . S
C2240 C2223 1.574 . S
C2240 H2234 0.949 . S
C2240 C2244 1.368 . S
C2241 C2222 1.429 . S
C2241 C2235 1.429 . S
C2241 C2242 1.523 . S
C2242 C2223 1.368 . S
C2242 C2236 1.368 . S
C2242 C2241 1.523 . S
C2243 C2227 1.429 1_455 S
C2243 C2239 1.445 . S
C2243 C2244 1.523 . S
C2244 C2228 1.368 . S
C2244 C2240 1.368 . S
C2244 C2243 1.523 . S
H2245 C2220 0.950 . S
H2246 C2222 0.950 . S
H2247 C2223 0.949 . S
H2248 C2225 0.950 . S
H2249 C2227 0.950 . S
C2250 C2251 1.349 . S
C2250 C2252 1.327 . S
C2250 H2275 0.950 . S
C2251 C2250 1.349 . S
C2251 C2267 1.349 . S
C2252 C2250 1.327 . S
C2252 C2271 1.429 . S
C2252 H2276 0.950 . S
C2253 C2270 1.574 . S
C2253 C2272 1.368 . S
C2253 H2277 0.949 . S
H2254 C2258 0.949 . S
C2255 C2256 1.349 . S
C2255 C2257 1.327 . S
C2255 H2278 0.950 . S
C2256 C2255 1.349 . S
C2256 C2268 1.349 . S
C2257 C2255 1.327 . S
C2257 C2273 1.429 . S
C2257 H2279 0.950 . S
C2258 H2254 0.949 . S
C2258 C2266 1.574 . S
C2258 C2274 1.368 . S
H2259 C2267 0.950 . S
H2260 C2265 0.950 . S
H2261 C2266 0.949 . S
H2262 C2268 0.950 . S
H2263 C2269 0.950 . S
H2264 C2270 0.949 . S
C2265 H2260 0.950 . S
C2265 C2267 1.327 . S
C2265 C2271 1.429 . S
C2266 C2258 1.574 . S
C2266 H2261 0.949 . S
C2266 C2272 1.368 . S
C2267 C2251 1.349 . S
C2267 H2259 0.950 . S
C2267 C2265 1.327 . S
C2268 C2256 1.349 . S
C2268 H2262 0.950 . S
C2268 C2269 1.327 . S
C2269 H2263 0.950 . S
C2269 C2268 1.327 . S
C2269 C2273 1.429 . S
C2270 C2253 1.574 . S
C2270 H2264 0.949 . S
C2270 C2274 1.368 . S
C2271 C2252 1.429 . S
C2271 C2265 1.429 . S
C2271 C2272 1.523 . S
C2272 C2253 1.368 . S
C2272 C2266 1.368 . S
C2272 C2271 1.523 . S
C2273 C2257 1.429 . S
C2273 C2269 1.429 . S
C2273 C2274 1.523 . S
C2274 C2258 1.368 . S
C2274 C2270 1.368 . S
C2274 C2273 1.523 . S
H2275 C2250 0.950 . S
H2276 C2252 0.950 . S
H2277 C2253 0.949 . S
H2278 C2255 0.950 . S
H2279 C2257 0.950 . S
C2280 C2281 1.349 . S
C2280 C2282 1.327 . S
C2280 H2305 0.950 . S
C2281 C2280 1.349 . S
C2281 C2297 1.349 . S
C2282 C2280 1.327 . S
C2282 C2301 1.429 . S
C2282 H2306 0.950 . S
C2283 C2300 1.574 . S
C2283 C2302 1.368 . S
C2283 H2307 0.949 . S
H2284 C2288 0.949 . S
C2285 C2286 1.349 . S
C2285 C2287 1.327 . S
C2285 H2308 0.950 . S
C2286 C2285 1.349 . S
C2286 C2298 1.349 . S
C2287 C2285 1.327 . S
C2287 C2303 1.429 . S
C2287 H2309 0.950 . S
C2288 H2284 0.949 . S
C2288 C2296 1.574 . S
C2288 C2304 1.368 . S
H2289 C2297 0.950 . S
H2290 C2295 0.950 . S
H2291 C2296 0.949 . S
H2292 C2298 0.950 . S
H2293 C2299 0.950 . S
H2294 C2300 0.949 . S
C2295 H2290 0.950 . S
C2295 C2297 1.327 . S
C2295 C2301 1.429 . S
C2296 C2288 1.574 . S
C2296 H2291 0.949 . S
C2296 C2302 1.368 . S
C2297 C2281 1.349 . S
C2297 H2289 0.950 . S
C2297 C2295 1.327 . S
C2298 C2286 1.349 . S
C2298 H2292 0.950 . S
C2298 C2299 1.327 . S
C2299 H2293 0.950 . S
C2299 C2298 1.327 . S
C2299 C2303 1.429 . S
C2300 C2283 1.574 . S
C2300 H2294 0.949 . S
C2300 C2304 1.368 . S
C2301 C2282 1.429 . S
C2301 C2295 1.429 . S
C2301 C2302 1.523 . S
C2302 C2283 1.368 . S
C2302 C2296 1.368 . S
C2302 C2301 1.523 . S
C2303 C2287 1.429 . S
C2303 C2299 1.429 . S
C2303 C2304 1.523 . S
C2304 C2288 1.368 . S
C2304 C2300 1.368 . S
C2304 C2303 1.523 . S
H2305 C2280 0.950 . S
H2306 C2282 0.950 . S
H2307 C2283 0.949 . S
H2308 C2285 0.950 . S
H2309 C2287 0.950 . S
C2310 C2311 1.349 . S
C2310 C2312 1.327 . S
C2310 H2335 0.950 . S
C2311 C2310 1.349 . S
C2311 C2327 1.349 . S
C2312 C2310 1.327 . S
C2312 C2331 1.429 . S
C2312 H2336 0.950 . S
C2313 C2330 1.574 . S
C2313 C2332 1.368 . S
C2313 H2337 0.949 . S
H2314 C2318 0.949 . S
C2315 C2316 1.349 . S
C2315 C2317 1.327 . S
C2315 H2338 0.950 . S
C2316 C2315 1.349 . S
C2316 C2328 1.349 . S
C2317 C2315 1.327 . S
C2317 C2333 1.429 . S
C2317 H2339 0.950 . S
C2318 H2314 0.949 . S
C2318 C2326 1.574 . S
C2318 C2334 1.368 . S
H2319 C2327 0.950 . S
H2320 C2325 0.950 . S
H2321 C2326 0.949 . S
H2322 C2328 0.950 . S
H2323 C2329 0.950 . S
H2324 C2330 0.949 . S
C2325 H2320 0.950 . S
C2325 C2327 1.327 . S
C2325 C2331 1.429 . S
C2326 C2318 1.574 . S
C2326 H2321 0.949 . S
C2326 C2332 1.368 . S
C2327 C2311 1.349 . S
C2327 H2319 0.950 . S
C2327 C2325 1.327 . S
C2328 C2316 1.349 . S
C2328 H2322 0.950 . S
C2328 C2329 1.327 . S
C2329 H2323 0.950 . S
C2329 C2328 1.327 . S
C2329 C2333 1.429 . S
C2330 C2313 1.574 . S
C2330 H2324 0.949 . S
C2330 C2334 1.368 . S
C2331 C2312 1.429 . S
C2331 C2325 1.429 . S
C2331 C2332 1.523 . S
C2332 C2313 1.368 . S
C2332 C2326 1.368 . S
C2332 C2331 1.523 . S
C2333 C2317 1.429 . S
C2333 C2329 1.429 . S
C2333 C2334 1.523 . S
C2334 C2318 1.368 . S
C2334 C2330 1.368 . S
C2334 C2333 1.523 . S
H2335 C2310 0.950 . S
H2336 C2312 0.950 . S
H2337 C2313 0.949 . S
H2338 C2315 0.950 . S
H2339 C2317 0.950 . S
C721 C19 1.152 . S
C726 C95 1.174 . S
C751 C15 1.174 . S
C756 C59 1.152 . S
C781 C55 1.174 . S
C786 C99 1.152 . S
C811 C139 1.152 . S
C816 C175 1.174 . S
C841 C215 1.174 . S
C846 C179 1.152 . S
C871 C219 1.152 . S
C876 C135 1.174 . S
C901 C335 1.174 . S
C906 C259 1.152 . S
C931 C255 1.174 . S
C936 C299 1.152 . S
C961 C339 1.152 . S
C966 C295 1.174 . S
C991 C415 1.174 . S
C996 C379 1.152 . S
C1021 C419 1.152 . S
C1026 C455 1.174 . S
C1051 C375 1.174 . S
C1056 C459 1.152 . S
C1081 C499 1.152 . S
C1086 C575 1.174 . S
C1111 C495 1.174 . S
C1116 C539 1.152 . S
C1141 C535 1.174 . S
C1146 C579 1.152 . S
C1171 C655 1.174 . S
C1176 C619 1.152 . S
C1201 C695 1.174 . S
C1206 C659 1.152 . S
C1231 C615 1.174 . S
C1236 C699 1.152 . S
C1261 C18 1.721 . S
C1266 C218 1.721 . S
C1291 C138 1.721 . S
C1296 C58 1.721 . S
C1321 C178 1.721 . S
C1326 C98 1.721 . S
C1351 C258 1.721 . S
C1356 C458 1.721 . S
C1381 C298 1.721 . S
C1386 C378 1.721 . S
C1411 C418 1.721 . S
C1416 C338 1.721 . S
C1441 C498 1.721 . S
C1446 C698 1.721 . S
C1471 C618 1.721 . S
C1476 C538 1.721 . S
C1501 C658 1.721 . S
C1506 C578 1.721 . S
C1531 C409 2.229 . S
C1536 C9 2.229 1_565 S
C1561 C49 2.229 . S
C1566 C449 2.229 . S
C1591 C369 2.229 . S
C1596 C89 2.229 . S
C1621 C129 2.229 1_655 S
C1626 C569 2.229 . S
C1651 C169 2.229 . S
C1656 C489 2.229 . S
C1681 C529 2.229 . S
C1686 C209 2.229 . S
C1711 C649 2.229 . S
C1716 C249 2.229 . S
C1741 C289 2.229 . S
C1746 C689 2.229 . S
C1771 C329 2.229 . S
C1776 C609 2.229 . S
C1801 C86 1.810 . S
C1806 C10 1.822 . S
C1831 C6 1.810 . S
C1836 C50 1.822 . S
C1861 C90 1.822 . S
C1866 C46 1.810 . S
C1891 C166 1.810 . S
C1896 C130 1.822 . S
C1921 C206 1.810 . S
C1926 C170 1.822 . S
C1951 C210 1.822 . S
C1956 C126 1.810 . S
C1981 C326 1.810 . S
C1986 C250 1.822 . S
C2011 C290 1.822 . S
C2016 C246 1.810 . S
C2041 C286 1.810 . S
C2046 C330 1.822 . S
C2071 C370 1.822 . S
C2076 C406 1.810 . S
C2101 C410 1.822 . S
C2106 C446 1.810 . S
C2131 C366 1.810 1_545 S
C2136 C450 1.822 . S
C2161 C490 1.822 . S
C2166 C566 1.810 . S
C2191 C530 1.822 . S
C2196 C486 1.810 1_455 S
C2221 C526 1.810 . S
C2226 C570 1.822 . S
C2251 C610 1.822 . S
C2256 C646 1.810 . S
C2281 C650 1.822 . S
C2286 C686 1.810 . S
C2311 C606 1.810 . S
C2316 C690 1.822 . S
