# Generated by pormake.
# Topology wlu, (5)-cn, num edge types: 1
# Building blocks:
#     Node 0, Type 0, BuildingBlock: XOMCOT_clean_sbu_1, # of connection points: 5
#     Node 1, Type 0, BuildingBlock: XOMCOT_clean_sbu_1, # of connection points: 5
#     Node 2, Type 0, BuildingBlock: XOMCOT_clean_sbu_1, # of connection points: 5
#     Node 3, Type 0, BuildingBlock: XOMCOT_clean_sbu_1, # of connection points: 5
#     Node 4, Type 0, BuildingBlock: XOMCOT_clean_sbu_1, # of connection points: 5
#     Node 5, Type 0, BuildingBlock: XOMCOT_clean_sbu_1, # of connection points: 5
#     Node 6, Type 0, BuildingBlock: XOMCOT_clean_sbu_1, # of connection points: 5
#     Node 7, Type 0, BuildingBlock: XOMCOT_clean_sbu_1, # of connection points: 5
#     Node 8, Type 0, BuildingBlock: XOMCOT_clean_sbu_1, # of connection points: 5
#     Node 9, Type 0, BuildingBlock: XOMCOT_clean_sbu_1, # of connection points: 5
#     Node 10, Type 0, BuildingBlock: XOMCOT_clean_sbu_1, # of connection points: 5
#     Node 11, Type 0, BuildingBlock: XOMCOT_clean_sbu_1, # of connection points: 5
#     Node 12, Type 0, BuildingBlock: XOMCOT_clean_sbu_1, # of connection points: 5
#     Node 13, Type 0, BuildingBlock: XOMCOT_clean_sbu_1, # of connection points: 5
#     Node 14, Type 0, BuildingBlock: XOMCOT_clean_sbu_1, # of connection points: 5
#     Node 15, Type 0, BuildingBlock: XOMCOT_clean_sbu_1, # of connection points: 5
#     Node 16, Type 0, BuildingBlock: XOMCOT_clean_sbu_1, # of connection points: 5
#     Node 17, Type 0, BuildingBlock: XOMCOT_clean_sbu_1, # of connection points: 5
#     Node 18, Type 0, BuildingBlock: XOMCOT_clean_sbu_1, # of connection points: 5
#     Node 19, Type 0, BuildingBlock: XOMCOT_clean_sbu_1, # of connection points: 5
#     Node 20, Type 0, BuildingBlock: XOMCOT_clean_sbu_1, # of connection points: 5
#     Node 21, Type 0, BuildingBlock: XOMCOT_clean_sbu_1, # of connection points: 5
#     Node 22, Type 0, BuildingBlock: XOMCOT_clean_sbu_1, # of connection points: 5
#     Node 23, Type 0, BuildingBlock: XOMCOT_clean_sbu_1, # of connection points: 5
#     Node 24, Type 0, BuildingBlock: XOMCOT_clean_sbu_1, # of connection points: 5
#     Node 25, Type 0, BuildingBlock: XOMCOT_clean_sbu_1, # of connection points: 5
#     Node 26, Type 0, BuildingBlock: XOMCOT_clean_sbu_1, # of connection points: 5
#     Node 27, Type 0, BuildingBlock: XOMCOT_clean_sbu_1, # of connection points: 5
#     Node 28, Type 0, BuildingBlock: XOMCOT_clean_sbu_1, # of connection points: 5
#     Node 29, Type 0, BuildingBlock: XOMCOT_clean_sbu_1, # of connection points: 5
#     Node 30, Type 0, BuildingBlock: XOMCOT_clean_sbu_1, # of connection points: 5
#     Node 31, Type 0, BuildingBlock: XOMCOT_clean_sbu_1, # of connection points: 5
#     Node 32, Type 0, BuildingBlock: XOMCOT_clean_sbu_1, # of connection points: 5
#     Node 33, Type 0, BuildingBlock: XOMCOT_clean_sbu_1, # of connection points: 5
#     Node 34, Type 0, BuildingBlock: XOMCOT_clean_sbu_1, # of connection points: 5
#     Node 35, Type 0, BuildingBlock: XOMCOT_clean_sbu_1, # of connection points: 5
#     Edge 36, Type (0, 0), BuildingBlock: CIFDUS_clean_linker_0, # of connection points: 2
#     Edge 37, Type (0, 0), BuildingBlock: CIFDUS_clean_linker_0, # of connection points: 2
#     Edge 38, Type (0, 0), BuildingBlock: CIFDUS_clean_linker_0, # of connection points: 2
#     Edge 39, Type (0, 0), BuildingBlock: CIFDUS_clean_linker_0, # of connection points: 2
#     Edge 40, Type (0, 0), BuildingBlock: CIFDUS_clean_linker_0, # of connection points: 2
#     Edge 41, Type (0, 0), BuildingBlock: CIFDUS_clean_linker_0, # of connection points: 2
#     Edge 42, Type (0, 0), BuildingBlock: CIFDUS_clean_linker_0, # of connection points: 2
#     Edge 43, Type (0, 0), BuildingBlock: CIFDUS_clean_linker_0, # of connection points: 2
#     Edge 44, Type (0, 0), BuildingBlock: CIFDUS_clean_linker_0, # of connection points: 2
#     Edge 45, Type (0, 0), BuildingBlock: CIFDUS_clean_linker_0, # of connection points: 2
#     Edge 46, Type (0, 0), BuildingBlock: CIFDUS_clean_linker_0, # of connection points: 2
#     Edge 47, Type (0, 0), BuildingBlock: CIFDUS_clean_linker_0, # of connection points: 2
#     Edge 48, Type (0, 0), BuildingBlock: CIFDUS_clean_linker_0, # of connection points: 2
#     Edge 49, Type (0, 0), BuildingBlock: CIFDUS_clean_linker_0, # of connection points: 2
#     Edge 50, Type (0, 0), BuildingBlock: CIFDUS_clean_linker_0, # of connection points: 2
#     Edge 51, Type (0, 0), BuildingBlock: CIFDUS_clean_linker_0, # of connection points: 2
#     Edge 52, Type (0, 0), BuildingBlock: CIFDUS_clean_linker_0, # of connection points: 2
#     Edge 53, Type (0, 0), BuildingBlock: CIFDUS_clean_linker_0, # of connection points: 2
#     Edge 54, Type (0, 0), BuildingBlock: CIFDUS_clean_linker_0, # of connection points: 2
#     Edge 55, Type (0, 0), BuildingBlock: CIFDUS_clean_linker_0, # of connection points: 2
#     Edge 56, Type (0, 0), BuildingBlock: CIFDUS_clean_linker_0, # of connection points: 2
#     Edge 57, Type (0, 0), BuildingBlock: CIFDUS_clean_linker_0, # of connection points: 2
#     Edge 58, Type (0, 0), BuildingBlock: CIFDUS_clean_linker_0, # of connection points: 2
#     Edge 59, Type (0, 0), BuildingBlock: CIFDUS_clean_linker_0, # of connection points: 2
#     Edge 60, Type (0, 0), BuildingBlock: CIFDUS_clean_linker_0, # of connection points: 2
#     Edge 61, Type (0, 0), BuildingBlock: CIFDUS_clean_linker_0, # of connection points: 2
#     Edge 62, Type (0, 0), BuildingBlock: CIFDUS_clean_linker_0, # of connection points: 2
#     Edge 63, Type (0, 0), BuildingBlock: CIFDUS_clean_linker_0, # of connection points: 2
#     Edge 64, Type (0, 0), BuildingBlock: CIFDUS_clean_linker_0, # of connection points: 2
#     Edge 65, Type (0, 0), BuildingBlock: CIFDUS_clean_linker_0, # of connection points: 2
#     Edge 66, Type (0, 0), BuildingBlock: CIFDUS_clean_linker_0, # of connection points: 2
#     Edge 67, Type (0, 0), BuildingBlock: CIFDUS_clean_linker_0, # of connection points: 2
#     Edge 68, Type (0, 0), BuildingBlock: CIFDUS_clean_linker_0, # of connection points: 2
#     Edge 69, Type (0, 0), BuildingBlock: CIFDUS_clean_linker_0, # of connection points: 2
#     Edge 70, Type (0, 0), BuildingBlock: CIFDUS_clean_linker_0, # of connection points: 2
#     Edge 71, Type (0, 0), BuildingBlock: CIFDUS_clean_linker_0, # of connection points: 2
#     Edge 72, Type (0, 0), BuildingBlock: CIFDUS_clean_linker_0, # of connection points: 2
#     Edge 73, Type (0, 0), BuildingBlock: CIFDUS_clean_linker_0, # of connection points: 2
#     Edge 74, Type (0, 0), BuildingBlock: CIFDUS_clean_linker_0, # of connection points: 2
#     Edge 75, Type (0, 0), BuildingBlock: CIFDUS_clean_linker_0, # of connection points: 2
#     Edge 76, Type (0, 0), BuildingBlock: CIFDUS_clean_linker_0, # of connection points: 2
#     Edge 77, Type (0, 0), BuildingBlock: CIFDUS_clean_linker_0, # of connection points: 2
#     Edge 78, Type (0, 0), BuildingBlock: CIFDUS_clean_linker_0, # of connection points: 2
#     Edge 79, Type (0, 0), BuildingBlock: CIFDUS_clean_linker_0, # of connection points: 2
#     Edge 80, Type (0, 0), BuildingBlock: CIFDUS_clean_linker_0, # of connection points: 2
#     Edge 81, Type (0, 0), BuildingBlock: CIFDUS_clean_linker_0, # of connection points: 2
#     Edge 82, Type (0, 0), BuildingBlock: CIFDUS_clean_linker_0, # of connection points: 2
#     Edge 83, Type (0, 0), BuildingBlock: CIFDUS_clean_linker_0, # of connection points: 2
#     Edge 84, Type (0, 0), BuildingBlock: CIFDUS_clean_linker_0, # of connection points: 2
#     Edge 85, Type (0, 0), BuildingBlock: CIFDUS_clean_linker_0, # of connection points: 2
#     Edge 86, Type (0, 0), BuildingBlock: CIFDUS_clean_linker_0, # of connection points: 2
#     Edge 87, Type (0, 0), BuildingBlock: CIFDUS_clean_linker_0, # of connection points: 2
#     Edge 88, Type (0, 0), BuildingBlock: CIFDUS_clean_linker_0, # of connection points: 2
#     Edge 89, Type (0, 0), BuildingBlock: CIFDUS_clean_linker_0, # of connection points: 2
#     Edge 90, Type (0, 0), BuildingBlock: CIFDUS_clean_linker_0, # of connection points: 2
#     Edge 91, Type (0, 0), BuildingBlock: CIFDUS_clean_linker_0, # of connection points: 2
#     Edge 92, Type (0, 0), BuildingBlock: CIFDUS_clean_linker_0, # of connection points: 2
#     Edge 93, Type (0, 0), BuildingBlock: CIFDUS_clean_linker_0, # of connection points: 2
#     Edge 94, Type (0, 0), BuildingBlock: CIFDUS_clean_linker_0, # of connection points: 2
#     Edge 95, Type (0, 0), BuildingBlock: CIFDUS_clean_linker_0, # of connection points: 2
#     Edge 96, Type (0, 0), BuildingBlock: CIFDUS_clean_linker_0, # of connection points: 2
#     Edge 97, Type (0, 0), BuildingBlock: CIFDUS_clean_linker_0, # of connection points: 2
#     Edge 98, Type (0, 0), BuildingBlock: CIFDUS_clean_linker_0, # of connection points: 2
#     Edge 99, Type (0, 0), BuildingBlock: CIFDUS_clean_linker_0, # of connection points: 2
#     Edge 100, Type (0, 0), BuildingBlock: CIFDUS_clean_linker_0, # of connection points: 2
#     Edge 101, Type (0, 0), BuildingBlock: CIFDUS_clean_linker_0, # of connection points: 2
#     Edge 102, Type (0, 0), BuildingBlock: CIFDUS_clean_linker_0, # of connection points: 2
#     Edge 103, Type (0, 0), BuildingBlock: CIFDUS_clean_linker_0, # of connection points: 2
#     Edge 104, Type (0, 0), BuildingBlock: CIFDUS_clean_linker_0, # of connection points: 2
#     Edge 105, Type (0, 0), BuildingBlock: CIFDUS_clean_linker_0, # of connection points: 2
#     Edge 106, Type (0, 0), BuildingBlock: CIFDUS_clean_linker_0, # of connection points: 2
#     Edge 107, Type (0, 0), BuildingBlock: CIFDUS_clean_linker_0, # of connection points: 2
#     Edge 108, Type (0, 0), BuildingBlock: CIFDUS_clean_linker_0, # of connection points: 2
#     Edge 109, Type (0, 0), BuildingBlock: CIFDUS_clean_linker_0, # of connection points: 2
#     Edge 110, Type (0, 0), BuildingBlock: CIFDUS_clean_linker_0, # of connection points: 2
#     Edge 111, Type (0, 0), BuildingBlock: CIFDUS_clean_linker_0, # of connection points: 2
#     Edge 112, Type (0, 0), BuildingBlock: CIFDUS_clean_linker_0, # of connection points: 2
#     Edge 113, Type (0, 0), BuildingBlock: CIFDUS_clean_linker_0, # of connection points: 2
#     Edge 114, Type (0, 0), BuildingBlock: CIFDUS_clean_linker_0, # of connection points: 2
#     Edge 115, Type (0, 0), BuildingBlock: CIFDUS_clean_linker_0, # of connection points: 2
#     Edge 116, Type (0, 0), BuildingBlock: CIFDUS_clean_linker_0, # of connection points: 2
#     Edge 117, Type (0, 0), BuildingBlock: CIFDUS_clean_linker_0, # of connection points: 2
#     Edge 118, Type (0, 0), BuildingBlock: CIFDUS_clean_linker_0, # of connection points: 2
#     Edge 119, Type (0, 0), BuildingBlock: CIFDUS_clean_linker_0, # of connection points: 2
#     Edge 120, Type (0, 0), BuildingBlock: CIFDUS_clean_linker_0, # of connection points: 2
#     Edge 121, Type (0, 0), BuildingBlock: CIFDUS_clean_linker_0, # of connection points: 2
#     Edge 122, Type (0, 0), BuildingBlock: CIFDUS_clean_linker_0, # of connection points: 2
#     Edge 123, Type (0, 0), BuildingBlock: CIFDUS_clean_linker_0, # of connection points: 2
#     Edge 124, Type (0, 0), BuildingBlock: CIFDUS_clean_linker_0, # of connection points: 2
#     Edge 125, Type (0, 0), BuildingBlock: CIFDUS_clean_linker_0, # of connection points: 2
# Relax obj value: 0.199
# Max RMSD: 0.162
# Mean RMSD: 0.162
data_MOF--net-wlu--node1-XOMCOT_clean_sbu_1--edge1-CIFDUS_clean_linker_0
_symmetry_space_group_name_H-M    P1
_symmetry_Int_Tables_number       1
_symmetry_cell_setting            triclinic
loop_
_symmetry_equiv_pos_as_xyz
'x, y, z'
_cell_length_a     60.859645
_cell_length_b     60.722653
_cell_length_c     47.318953
_cell_angle_alpha  89.948693
_cell_angle_beta   90.005651
_cell_angle_gamma 120.05184
loop_
_atom_site_label
_atom_site_type_symbol
_atom_site_fract_x
_atom_site_fract_y
_atom_site_fract_z
_atom_type_partial_charge
C0 C 0.24606 0.14804 0.08411 0.0
C1 C 0.23237 0.12228 0.07894 0.0
N2 N 0.24328 0.11716 0.0571 0.0
N3 N 0.26556 0.15901 0.06574 0.0
C4 C 0.26335 0.13973 0.04948 0.0
H5 H 0.24237 0.15812 0.10056 0.0
Co6 Co 0.2904 0.19307 0.0667 0.0
C7 C 0.31455 0.20444 1.01038 0.0
O8 O 0.31278 0.22515 1.01083 0.0
N9 N 0.31626 0.22776 0.06879 0.0
C10 C 0.35537 0.26145 0.07041 0.0
C11 C 0.34114 0.23598 0.06424 0.0
C12 C 0.3161 0.24858 0.07871 0.0
N13 N 0.33955 0.2693 0.07964 0.0
O14 O 0.31025 0.1847 0.09153 0.0
H15 H 0.34864 0.22394 0.05779 0.0
H16 H 0.29948 0.24866 0.08631 0.0
O17 O 0.30671 0.18923 0.0317 0.0
C18 C 0.30606 0.18971 0.11656 0.0
O19 O 0.29095 0.19919 0.11959 0.0
N20 N 0.2687 0.20067 0.04573 0.0
C21 C 0.23536 0.21414 0.02153 0.0
C22 C 0.24337 0.19963 1.00623 0.0
C23 C 0.25964 0.19252 0.01903 0.0
C24 C 0.25837 0.21176 0.06181 0.0
C25 C 0.24239 0.21947 0.04994 0.0
H26 H 0.26484 0.1805 1.00746 0.0
H27 H 0.26232 0.21435 0.08418 0.0
H28 H 0.2766 0.14196 0.03297 0.0
H29 H 0.21572 0.1084 0.09034 0.0
H30 H 0.37587 0.27292 0.06971 0.0
H31 H 0.23734 0.19408 0.9846 0.0
H32 H 0.23525 0.22914 0.06302 0.0
C33 C 0.85536 0.11028 0.10238 0.0
C34 C 0.88078 0.12352 0.09598 0.0
N35 N 0.88353 0.13249 0.06933 0.0
N36 N 0.84211 0.11091 0.07996 0.0
C37 C 0.85966 0.12456 0.06019 0.0
H38 H 0.84695 0.10001 0.12174 0.0
Co39 Co 0.80733 0.09262 0.07773 0.0
C40 C 0.79279 0.10537 0.0223 0.0
O41 O 0.77421 0.0817 0.02064 0.0
N42 N 0.77137 0.07328 0.07631 0.0
C43 C 0.73146 0.04186 0.07133 0.0
C44 C 0.75638 0.04821 0.07048 0.0
C45 C 0.75472 0.08156 0.08094 0.0
N46 N 0.73037 0.0628 0.07788 0.0
O47 O 0.80588 0.11662 0.10326 0.0
H48 H 0.76256 0.03488 0.06561 0.0
H49 H 0.76028 0.10096 0.08638 0.0
O50 O 0.80766 0.11264 0.04384 0.0
C51 C 0.8006 0.10795 0.12849 0.0
O52 O 0.79412 0.08408 0.13289 0.0
N53 N 0.81024 0.06837 0.05608 0.0
C54 C 0.80626 0.02477 0.0322 0.0
C55 C 0.81179 0.04594 1.01526 0.0
C56 C 0.81442 0.06796 0.02779 0.0
C57 C 0.80889 0.04964 0.07314 0.0
C58 C 0.80641 0.02741 0.06163 0.0
H59 H 0.81919 0.08416 1.01453 0.0
H60 H 0.80749 0.05111 0.09578 0.0
H61 H 0.85487 0.12803 0.0393 0.0
H62 H 0.89586 0.12543 0.10968 0.0
H63 H 0.71529 0.02298 0.06837 0.0
H64 H 0.81285 0.04515 0.99247 0.0
H65 H 0.80341 0.012 0.07559 0.0
C66 C 0.91122 0.76905 0.07219 0.0
C67 C 0.90343 0.78517 0.06164 0.0
N68 N 0.88375 0.77179 0.044 0.0
N69 N 0.89658 0.74568 0.06117 0.0
C70 C 0.87991 0.74786 0.04431 0.0
H71 H 0.92678 0.77407 0.08666 0.0
Co72 Co 0.90008 0.7176 0.06797 0.0
C73 C 0.88558 0.6876 1.0148 0.0
O74 O 0.90422 0.6831 0.01969 0.0
N75 N 0.90307 0.68873 0.07591 0.0
C76 C 0.89115 0.64786 0.08256 0.0
C77 C 0.88325 0.66461 0.07489 0.0
C78 C 0.92261 0.68606 0.08532 0.0
N79 N 0.9159 0.66147 0.08916 0.0
O80 O 0.86934 0.7025 0.09031 0.0
H81 H 0.86413 0.65949 0.06887 0.0
H82 H 0.94142 0.70156 0.08964 0.0
O83 O 0.88129 0.70122 0.03225 0.0
C84 C 0.87423 0.70801 0.11651 0.0
O85 O 0.89795 0.72338 0.12384 0.0
N86 N 0.93152 0.73432 0.04862 0.0
C87 C 0.98028 0.76486 0.02652 0.0
C88 C 0.95885 0.75606 1.00915 0.0
C89 C 0.93458 0.74115 0.0207 0.0
C90 C 0.95209 0.74442 0.06607 0.0
C91 C 0.97665 0.75904 0.0554 0.0
H92 H 0.91841 0.73613 1.00732 0.0
H93 H 0.94937 0.74169 0.08866 0.0
H94 H 0.86505 0.73213 0.03267 0.0
H95 H 0.91196 0.80526 0.0662 0.0
H96 H 0.87948 0.62737 0.08401 0.0
H97 H 0.9608 0.76091 0.9869 0.0
H98 H 0.99262 0.76652 0.0698 0.0
C99 C 0.13103 0.23545 0.4646 0.0
C100 C 0.10522 0.22561 0.46574 0.0
N101 N 0.10057 0.24502 0.46847 0.0
N102 N 0.14278 0.26096 0.46716 0.0
C103 C 0.12374 0.26627 0.46845 0.0
H104 H 0.14057 0.22454 0.4629 0.0
Co105 Co 0.17779 0.28328 0.46873 0.0
C106 C 0.16089 0.30037 0.52273 0.0
O107 O 0.13721 0.28188 0.52451 0.0
N108 N 0.21294 0.30547 0.47032 0.0
C109 C 0.25165 0.3261 0.48885 0.0
C110 C 0.22629 0.312 0.4947 0.0
C111 C 0.23076 0.31592 0.44979 0.0
N112 N 0.25453 0.32848 0.46064 0.0
O113 O 0.1739 0.30625 0.444 0.0
H114 H 0.21817 0.30599 0.51554 0.0
H115 H 0.22653 0.31347 0.42742 0.0
O116 O 0.17504 0.30068 0.50252 0.0
C117 C 0.17236 0.29972 0.41808 0.0
O118 O 0.17447 0.27976 0.41193 0.0
N119 N 0.18201 0.25986 0.49063 0.0
C120 C 0.19343 0.22572 0.51702 0.0
C121 C 0.17956 0.23506 0.5313 0.0
C122 C 0.17394 0.2521 0.51765 0.0
C123 C 0.19464 0.25022 0.47615 0.0
C124 C 0.20066 0.23327 0.48894 0.0
H125 H 0.16312 0.25884 0.5289 0.0
H126 H 0.20031 0.25602 0.4545 0.0
H127 H 0.12698 0.28542 0.47031 0.0
H128 H 0.09113 0.20558 0.46598 0.0
H129 H 0.26689 0.33376 0.5042 0.0
H130 H 0.17344 0.22956 0.55293 0.0
H131 H 0.21076 0.226 0.47682 0.0
C132 C 0.7701 0.91262 0.42373 0.0
C133 C 0.78503 0.90194 0.42902 0.0
N134 N 0.77314 0.88347 0.44843 0.0
N135 N 0.74883 0.90068 0.43951 0.0
C136 C 0.7513 0.88308 0.45446 0.0
H137 H 0.77402 0.92751 0.40861 0.0
Co138 Co 0.72135 0.90579 0.43621 0.0
C139 C 0.69134 0.88545 0.48864 0.0
O140 O 0.68903 0.90582 0.4886 0.0
N141 N 0.69288 0.9103 0.43184 0.0
C142 C 0.65202 0.89835 0.42681 0.0
C143 C 0.66914 0.89012 0.42949 0.0
C144 C 0.68956 0.93075 0.4299 0.0
N145 N 0.66486 0.92393 0.42719 0.0
O146 O 0.70688 0.87906 0.40808 0.0
H147 H 0.66448 0.87044 0.43012 0.0
H148 H 0.70458 0.95029 0.43089 0.0
O149 O 0.70364 0.88205 0.46862 0.0
C150 C 0.7133 0.89004 0.38394 0.0
O151 O 0.72708 0.91501 0.3835 0.0
N152 N 0.73791 0.93392 0.46058 0.0
C153 C 0.76429 0.97946 0.49054 0.0
C154 C 0.75676 0.95604 0.50384 0.0
C155 C 0.74428 0.9335 0.4882 0.0
C156 C 0.74758 0.95655 0.44675 0.0
C157 C 0.76026 0.97949 0.46136 0.0
H158 H 0.73995 0.91584 0.4983 0.0
H159 H 0.74512 0.95674 0.42413 0.0
H160 H 0.73689 0.86935 0.46847 0.0
H161 H 0.80298 0.90703 0.41908 0.0
H162 H 0.63167 0.8864 0.42453 0.0
H163 H 0.76037 0.95507 0.52609 0.0
H164 H 0.76712 0.99712 0.44976 0.0
C165 C 0.09766 0.85025 0.45788 0.0
C166 C 0.1081 0.87625 0.45856 0.0
N167 N 0.13002 0.88635 0.47327 0.0
N168 N 0.11281 0.84393 0.47222 0.0
C169 C 0.1324 0.86623 0.48121 0.0
H170 H 0.08034 0.83678 0.44727 0.0
Co171 Co 0.10789 0.81132 0.47534 0.0
C172 C 0.12215 0.80834 0.53422 0.0
O173 O 0.10034 0.78694 0.53565 0.0
N174 N 0.10377 0.77825 0.47669 0.0
C175 C 0.11506 0.74856 0.47984 0.0
C176 C 0.1214 0.77293 0.48688 0.0
C177 C 0.08763 0.75698 0.4621 0.0
N178 N 0.09375 0.73854 0.46434 0.0
O179 O 0.1367 0.82127 0.45093 0.0
H180 H 0.13886 0.7864 0.4972 0.0
H181 H 0.07318 0.75564 0.4478 0.0
O182 O 0.12907 0.82079 0.51076 0.0
C183 C 0.12984 0.81857 0.42501 0.0
O184 O 0.10563 0.80934 0.41944 0.0
N185 N 0.07801 0.80194 0.4972 0.0
C186 C 0.03272 0.79151 0.52442 0.0
C187 C 0.0561 0.81233 0.53256 0.0
C188 C 0.07838 0.81724 0.51869 0.0
C189 C 0.05534 0.78224 0.4884 0.0
C190 C 0.03277 0.77613 0.50228 0.0
H191 H 0.09595 0.83392 0.52479 0.0
H192 H 0.05416 0.77177 0.46974 0.0
H193 H 0.14807 0.86757 0.49335 0.0
H194 H 0.10034 0.88684 0.44841 0.0
H195 H 0.12578 0.73923 0.48482 0.0
H196 H 0.05723 0.82541 0.54878 0.0
H197 H 0.01544 0.75975 0.495 0.0
C198 C 0.75949 0.87349 0.90553 0.0
C199 C 0.77131 0.89914 0.91072 0.0
N200 N 0.76887 0.90255 0.93843 0.0
N201 N 0.74938 0.8607 0.92974 0.0
C202 C 0.75536 0.87888 0.94946 0.0
H203 H 0.75909 0.86476 0.88551 0.0
Co204 Co 0.73487 0.82583 0.93303 0.0
C205 C 0.70873 0.81106 0.98917 0.0
O206 O 0.71439 0.79291 0.99099 0.0
N207 N 0.72046 0.7897 0.93508 0.0
C208 C 0.71632 0.75125 0.93993 0.0
C209 C 0.73231 0.77679 0.94299 0.0
C210 C 0.69685 0.77098 0.92751 0.0
N211 N 0.69407 0.7475 0.92999 0.0
O212 O 0.70749 0.82197 0.9091 0.0
H213 H 0.75125 0.78483 0.95124 0.0
H214 H 0.68211 0.77442 0.91979 0.0
O215 O 0.7157 0.82565 0.96739 0.0
C216 C 0.71029 0.81932 0.88279 0.0
O217 O 0.7289 0.81557 0.87504 0.0
N218 N 0.76351 0.8313 0.95392 0.0
C219 C 0.80524 0.83173 0.97854 0.0
C220 C 0.78873 0.83631 0.99492 0.0
C221 C 0.76823 0.8366 0.98205 0.0
C222 C 0.78136 0.83057 0.93716 0.0
C223 C 0.80219 0.83028 0.94908 0.0
H224 H 0.75614 0.84058 0.99503 0.0
H225 H 0.77823 0.82807 0.9146 0.0
H226 H 0.75095 0.87485 0.97166 0.0
H227 H 0.78121 0.91408 0.89528 0.0
H228 H 0.72068 0.73647 0.94504 0.0
H229 H 0.79081 0.83839 0.01765 0.0
H230 H 0.81509 0.82778 0.9355 0.0
C231 C 0.14899 0.9019 0.94619 0.0
C232 C 0.12285 0.88923 0.94597 0.0
N233 N 0.11415 0.86962 0.96439 0.0
N234 N 0.15685 0.89041 0.96464 0.0
C235 C 0.13529 0.87081 0.97525 0.0
H236 H 0.16152 0.9185 0.93381 0.0
Co237 Co 0.19039 0.90007 0.97303 0.0
C238 C 0.18308 0.8632 0.0195 0.0
O239 O 0.19484 0.85372 1.00504 0.0
N240 N 0.22431 0.90988 0.98186 0.0
C241 C 0.26004 0.92558 1.00679 0.0
C242 C 0.23426 0.91549 1.00819 0.0
C243 C 0.2446 0.91681 0.96477 0.0
N244 N 0.26657 0.92655 0.97948 0.0
O245 O 0.18683 0.87204 0.94997 0.0
H246 H 0.22368 0.91379 0.02721 0.0
H247 H 0.2436 0.91637 0.94195 0.0
O248 O 0.17957 0.88034 1.00826 0.0
C249 C 0.19206 0.88087 0.92473 0.0
O250 O 0.19954 0.90507 0.92097 0.0
N251 N 0.19419 0.9288 0.99203 0.0
C252 C 0.20252 0.97475 1.01502 0.0
C253 C 0.1832 0.95131 0.02561 0.0
C254 C 0.1793 0.92849 1.01374 0.0
C255 C 0.21245 0.95128 0.98092 0.0
C256 C 0.21726 0.97438 0.99239 0.0
H257 H 0.16395 0.91066 0.02149 0.0
H258 H 0.22352 0.95128 0.96304 0.0
H259 H 0.13518 0.85792 0.99105 0.0
H260 H 0.11129 0.89419 0.93307 0.0
H261 H 0.27309 0.93252 0.02444 0.0
H262 H 0.17086 0.95054 0.04253 0.0
H263 H 0.2326 0.99178 0.98361 0.0
C264 C 0.09743 0.24209 0.9393 0.0
C265 C 0.11054 0.22909 0.93906 0.0
N266 N 0.12975 0.24016 0.95781 0.0
N267 N 0.10821 0.2612 0.95818 0.0
C268 C 0.12798 0.25972 0.96892 0.0
H269 H 0.08091 0.23779 0.92673 0.0
Co270 Co 0.09703 0.28396 0.966 0.0
C271 C 0.11461 0.29044 0.02815 0.0
O272 O 0.09294 0.27187 0.0374 0.0
N273 N 0.08616 0.30754 0.97322 0.0
C274 C 0.07038 0.32926 0.99451 0.0
C275 C 0.08015 0.31346 0.99851 0.0
C276 C 0.08004 0.32024 0.95418 0.0
N277 N 0.0702 0.33342 0.96661 0.0
O278 O 0.12522 0.30921 0.94455 0.0
H279 H 0.08135 0.30577 0.0186 0.0
H280 H 0.08139 0.31872 0.93156 0.0
O281 O 0.11772 0.29597 1.00165 0.0
C282 C 0.12003 0.30599 0.91819 0.0
O283 O 0.09708 0.28836 0.91063 0.0
N284 N 0.06749 0.25742 0.98387 0.0
C285 C 0.02203 0.2194 1.00706 0.0
C286 C 0.0446 0.21901 1.01117 0.0
C287 C 0.06699 0.23772 0.99856 0.0
C288 C 0.04505 0.2562 0.97717 0.0
C289 C 0.02225 0.23778 0.98904 0.0
H290 H 0.08418 0.23705 1.00204 0.0
H291 H 0.04455 0.26957 0.96254 0.0
H292 H 0.14038 0.27235 0.98514 0.0
H293 H 0.10622 0.21279 0.92602 0.0
H294 H 0.06337 0.33664 1.01084 0.0
H295 H 0.04499 0.2045 0.02413 0.0
H296 H 0.00506 0.23831 0.9846 0.0
C297 C 0.86335 0.76848 0.57992 0.0
C298 C 0.88926 0.77829 0.57809 0.0
N299 N 0.89336 0.76026 0.56698 0.0
N300 N 0.85135 0.74453 0.56967 0.0
C301 C 0.87015 0.73991 0.56271 0.0
H302 H 0.85386 0.77839 0.58743 0.0
Co303 Co 0.81656 0.72224 0.56619 0.0
C304 C 0.83381 0.71142 0.50775 0.0
O305 O 0.85546 0.73253 0.50395 0.0
N306 N 0.78168 0.69942 0.56246 0.0
C307 C 0.74364 0.67731 0.54257 0.0
C308 C 0.76889 0.69379 0.53773 0.0
C309 C 0.76371 0.68608 0.5821 0.0
N310 N 0.74034 0.67251 0.57048 0.0
O311 O 0.82029 0.69751 0.58821 0.0
H312 H 0.77731 0.70163 0.5174 0.0
H313 H 0.76755 0.68691 0.60451 0.0
O314 O 0.82067 0.70815 0.53015 0.0
C315 C 0.82042 0.70237 0.61455 0.0
O316 O 0.81752 0.72168 0.62172 0.0
N317 N 0.81238 0.74762 0.54784 0.0
C318 C 0.80314 0.78575 0.5278 0.0
C319 C 0.82164 0.78154 0.51515 0.0
C320 C 0.82599 0.76243 0.52553 0.0
C321 C 0.7952 0.75224 0.56113 0.0
C322 C 0.78982 0.77059 0.55109 0.0
H323 H 0.841 0.76048 0.51636 0.0
H324 H 0.78542 0.74149 0.57978 0.0
H325 H 0.86695 0.72206 0.554 0.0
H326 H 0.90388 0.79754 0.58306 0.0
H327 H 0.72885 0.66949 0.52671 0.0
H328 H 0.83318 0.79329 0.49783 0.0
H329 H 0.77521 0.77271 0.56163 0.0
C330 C 0.23958 0.09553 0.56683 0.0
C331 C 0.22751 0.10953 0.56556 0.0
N332 N 0.24523 0.13427 0.56246 0.0
N333 N 0.26481 0.11127 0.56403 0.0
C334 C 0.26769 0.13476 0.56238 0.0
H335 H 0.23042 0.07507 0.56887 0.0
Co336 Co 0.29014 0.10253 0.56286 0.0
C337 C 0.30103 0.13342 0.50688 0.0
O338 O 0.27982 0.13407 0.50542 0.0
N339 N 0.31534 0.09361 0.56192 0.0
C340 C 0.34038 0.0798 0.54531 0.0
C341 C 0.32503 0.08942 0.5382 0.0
C342 C 0.32498 0.08621 0.58324 0.0
N343 N 0.34019 0.07755 0.57362 0.0
O344 O 0.3114 0.13154 0.5862 0.0
H345 H 0.32006 0.09169 0.5169 0.0
H346 H 0.3197 0.08571 0.60517 0.0
O347 O 0.30494 0.12229 0.52771 0.0
C348 C 0.30534 0.12688 0.6123 0.0
O349 O 0.28655 0.10424 0.61915 0.0
N350 N 0.26868 0.07265 0.54285 0.0
C351 C 0.23752 0.02414 0.52092 0.0
C352 C 0.24323 0.04578 0.50485 0.0
C353 C 0.25906 0.07003 0.51619 0.0
C354 C 0.26239 0.05173 0.55902 0.0
C355 C 0.24719 0.02732 0.54836 0.0
H356 H 0.26319 0.08639 0.50361 0.0
H357 H 0.26947 0.05408 0.58042 0.0
H358 H 0.286 0.15183 0.56013 0.0
H359 H 0.20718 0.10184 0.56553 0.0
H360 H 0.35032 0.07418 0.53063 0.0
H361 H 0.2358 0.04395 0.48364 0.0
H362 H 0.24275 0.01105 0.5616 0.0
C363 C 0.8955 0.14304 0.5736 0.0
C364 C 0.88343 0.11696 0.57318 0.0
N365 N 0.8585 0.10792 0.56863 0.0
N366 N 0.87845 0.1506 0.56876 0.0
C367 C 0.85593 0.12876 0.56689 0.0
H368 H 0.91564 0.15572 0.57651 0.0
Co369 Co 0.88659 0.18452 0.56659 0.0
C370 C 0.8511 0.16357 0.51336 0.0
O371 O 0.84828 0.14071 0.51171 0.0
N372 N 0.89537 0.21862 0.56491 0.0
C373 C 0.90909 0.25741 0.54786 0.0
C374 C 0.89896 0.23223 0.54108 0.0
C375 C 0.90362 0.23597 0.58592 0.0
N376 N 0.91218 0.25988 0.57611 0.0
O377 O 0.85926 0.17738 0.59275 0.0
H378 H 0.89621 0.22468 0.51989 0.0
H379 H 0.90436 0.2312 0.60778 0.0
O380 O 0.86451 0.17868 0.53327 0.0
C381 C 0.86516 0.17666 0.61858 0.0
O382 O 0.88813 0.18089 0.62408 0.0
N383 N 0.91466 0.19203 0.54333 0.0
C384 C 0.95982 0.20397 0.51541 0.0
C385 C 0.93617 0.1885 0.50254 0.0
C386 C 0.91382 0.18254 0.51695 0.0
C387 C 0.93743 0.20719 0.55612 0.0
C388 C 0.9602 0.21344 0.54257 0.0
H389 H 0.89607 0.16977 0.50703 0.0
H390 H 0.93788 0.214 0.57734 0.0
H391 H 0.83806 0.12822 0.56371 0.0
H392 H 0.89259 0.10566 0.5746 0.0
H393 H 0.91533 0.27284 0.53284 0.0
H394 H 0.93486 0.18076 0.48159 0.0
H395 H 0.97789 0.22492 0.55373 0.0
C396 C 0.90147 0.47838 0.41789 0.0
C397 C 0.88635 0.453 0.41108 0.0
N398 N 0.89874 0.44709 0.3917 0.0
N399 N 0.92329 0.48816 0.40304 0.0
C400 C 0.92102 0.4686 0.3873 0.0
H401 H 0.89713 0.48888 0.43317 0.0
Co402 Co 0.95121 0.52064 0.40697 0.0
C403 C 0.98142 0.53079 0.35436 0.0
O404 O 0.98688 0.55458 0.35634 0.0
N405 N 0.98016 0.55342 0.41209 0.0
C406 C 0.021 0.58134 0.41977 0.0
C407 C 0.00359 0.55635 0.41474 0.0
C408 C 0.98401 0.57726 0.41595 0.0
N409 N 0.00874 0.59463 0.42048 0.0
O410 O 0.96553 0.50735 0.43393 0.0
H411 H 0.00783 0.54109 0.4132 0.0
H412 H 0.96921 0.58205 0.41558 0.0
O413 O 0.96791 0.5148 0.37366 0.0
C414 C 0.95865 0.51036 0.45851 0.0
O415 O 0.94413 0.52063 0.46012 0.0
N416 N 0.93493 0.53309 0.38343 0.0
C417 C 0.90374 0.54777 0.35538 0.0
C418 C 0.9123 0.53293 0.34169 0.0
C419 C 0.92755 0.52549 0.35619 0.0
C420 C 0.92552 0.5461 0.39752 0.0
C421 C 0.91076 0.55444 0.38374 0.0
H422 H 0.93216 0.5125 0.34586 0.0
H423 H 0.92904 0.54957 0.41993 0.0
H424 H 0.93574 0.46961 0.37366 0.0
H425 H 0.86783 0.43992 0.41973 0.0
H426 H 0.04105 0.5889 0.42345 0.0
H427 H 0.90641 0.52612 0.32035 0.0
H428 H 0.90463 0.56567 0.39552 0.0
C429 C 0.51993 0.42869 0.41768 0.0
C430 C 0.5457 0.44209 0.41267 0.0
N431 N 0.55118 0.46348 0.39843 0.0
N432 N 0.50924 0.44146 0.40635 0.0
C433 C 0.52874 0.46263 0.395 0.0
H434 H 0.50963 0.4108 0.42885 0.0
Co435 Co 0.47514 0.43205 0.40689 0.0
C436 C 0.46488 0.4429 0.34905 0.0
O437 O 0.44451 0.42017 0.34891 0.0
N438 N 0.44049 0.42326 0.40798 0.0
C439 C 0.40689 0.42875 0.40578 0.0
C440 C 0.43265 0.44 0.40183 0.0
C441 C 0.419 0.40214 0.41652 0.0
N442 N 0.39834 0.40491 0.41509 0.0
O443 O 0.48346 0.46176 0.42872 0.0
H444 H 0.44505 0.4595 0.39535 0.0
H445 H 0.41821 0.38509 0.42427 0.0
O446 O 0.47925 0.45051 0.3709 0.0
C447 C 0.48304 0.45665 0.45496 0.0
O448 O 0.47687 0.43332 0.46212 0.0
N449 N 0.46769 0.40165 0.38831 0.0
C450 C 0.45915 0.35436 0.36928 0.0
C451 C 0.47247 0.37629 0.3525 0.0
C452 C 0.477 0.39985 0.36265 0.0
C453 C 0.45681 0.38105 0.40572 0.0
C454 C 0.45146 0.35714 0.39636 0.0
H455 H 0.48875 0.41669 0.35027 0.0
H456 H 0.453 0.38334 0.42749 0.0
H457 H 0.52646 0.47707 0.38418 0.0
H458 H 0.55936 0.43669 0.41938 0.0
H459 H 0.39554 0.43778 0.40321 0.0
H460 H 0.48011 0.37549 0.33211 0.0
H461 H 0.44159 0.34111 0.41051 0.0
C462 C 0.56835 0.09341 0.41595 0.0
C463 C 0.55501 0.10608 0.4123 0.0
N464 N 0.53322 0.09051 0.39852 0.0
N465 N 0.55511 0.07012 0.40426 0.0
C466 C 0.53391 0.06893 0.39396 0.0
H467 H 0.58626 0.10048 0.42686 0.0
Co468 Co 0.56175 0.04347 0.40451 0.0
C469 C 0.5504 0.02346 0.34656 0.0
O470 O 0.57242 0.02436 0.34653 0.0
N471 N 0.56706 0.01521 0.40524 0.0
C472 C 0.55428 0.97379 0.40468 0.0
C473 C 0.54726 0.99163 0.40015 0.0
C474 C 0.58608 0.01094 0.41311 0.0
N475 N 0.57865 0.9859 0.41292 0.0
O476 O 0.53166 0.024 0.42622 0.0
H477 H 0.52842 0.9875 0.39416 0.0
H478 H 0.6046 0.02536 0.42017 0.0
O479 O 0.5432 0.03061 0.36841 0.0
C480 C 0.53778 0.02806 0.45226 0.0
O481 O 0.56171 0.04364 0.45863 0.0
N482 N 0.59273 0.06456 0.38614 0.0
C483 C 0.64095 0.10219 0.3682 0.0
C484 C 0.61927 0.09602 0.35196 0.0
C485 C 0.59529 0.07742 0.36151 0.0
C486 C 0.61331 0.07144 0.40291 0.0
C487 C 0.6376 0.08936 0.39395 0.0
H488 H 0.57874 0.07426 0.34975 0.0
H489 H 0.61077 0.0639 0.42407 0.0
H490 H 0.51911 0.05229 0.38348 0.0
H491 H 0.56065 0.12499 0.41987 0.0
H492 H 0.54228 0.9534 0.40246 0.0
H493 H 0.62058 0.10618 0.33265 0.0
H494 H 0.65347 0.09345 0.40757 0.0
C495 C 0.80682 0.57588 0.78651 0.0
C496 C 0.78111 0.56411 0.79171 0.0
N497 N 0.77668 0.57915 0.80899 0.0
N498 N 0.81852 0.59811 0.80059 0.0
C499 C 0.79977 0.59962 0.81396 0.0
H500 H 0.81634 0.56897 0.7729 0.0
Co501 Co 0.85251 0.62279 0.7994 0.0
C502 C 0.8662 0.64131 0.85818 0.0
O503 O 0.88716 0.6406 0.85383 0.0
N504 N 0.88693 0.64886 0.79749 0.0
C505 C 0.92003 0.68832 0.80005 0.0
C506 C 0.8945 0.67316 0.80493 0.0
C507 C 0.90825 0.65009 0.78712 0.0
N508 N 0.92859 0.67375 0.78878 0.0
O509 O 0.84351 0.64516 0.78 0.0
H510 H 0.88207 0.67957 0.81312 0.0
H511 H 0.90918 0.63438 0.77792 0.0
O512 O 0.84986 0.63496 0.83813 0.0
C513 C 0.84378 0.64091 0.75353 0.0
O514 O 0.84967 0.6237 0.74587 0.0
N515 N 0.86055 0.59891 0.81489 0.0
C516 C 0.86967 0.55962 0.83083 0.0
C517 C 0.85589 0.56704 0.84847 0.0
C518 C 0.85118 0.58638 0.8399 0.0
C519 C 0.87174 0.59031 0.79648 0.0
C520 C 0.87745 0.5716 0.80436 0.0
H521 H 0.83906 0.59046 0.85285 0.0
H522 H 0.87546 0.59736 0.77505 0.0
H523 H 0.8031 0.61565 0.82689 0.0
H524 H 0.76682 0.54623 0.78275 0.0
H525 H 0.93121 0.70866 0.80344 0.0
H526 H 0.84796 0.55745 0.8683 0.0
H527 H 0.88764 0.56649 0.78947 0.0
C528 C 0.42869 0.23332 0.7883 0.0
C529 C 0.43722 0.21619 0.79007 0.0
N530 N 0.41799 0.19393 0.79951 0.0
N531 N 0.4043 0.22193 0.79696 0.0
C532 C 0.39815 0.19776 0.80282 0.0
H533 H 0.43974 0.25299 0.78175 0.0
Co534 Co 0.38359 0.23638 0.79881 0.0
C535 C 0.37127 0.20899 0.8575 0.0
O536 O 0.39102 0.20584 0.85964 0.0
N537 N 0.36283 0.25089 0.80061 0.0
C538 C 0.34462 0.27167 0.81836 0.0
C539 C 0.35891 0.26064 0.82446 0.0
C540 C 0.3507 0.25629 0.78016 0.0
N541 N 0.33955 0.26906 0.7905 0.0
O542 O 0.35805 0.20796 0.7776 0.0
H543 H 0.36665 0.26049 0.84497 0.0
H544 H 0.3508 0.2518 0.75806 0.0
O545 O 0.36849 0.21974 0.83552 0.0
C546 C 0.36374 0.21214 0.75135 0.0
O547 O 0.3839 0.23378 0.7443 0.0
N548 N 0.40967 0.26564 0.81619 0.0
C549 C 0.44716 0.31383 0.83433 0.0
C550 C 0.43928 0.29229 0.85162 0.0
C551 C 0.42046 0.26832 0.84216 0.0
C552 C 0.41791 0.2861 0.79867 0.0
C553 C 0.43625 0.31032 0.80741 0.0
H554 H 0.41482 0.25224 0.85577 0.0
H555 H 0.4096 0.28362 0.77788 0.0
H556 H 0.37961 0.18335 0.81023 0.0
H557 H 0.4564 0.22015 0.78621 0.0
H558 H 0.33854 0.28104 0.8333 0.0
H559 H 0.44759 0.29384 0.87228 0.0
H560 H 0.44128 0.32619 0.7933 0.0
C561 C 0.7508 0.1783 0.80618 0.0
C562 C 0.76279 0.2044 0.80636 0.0
N563 N 0.78777 0.21362 0.8108 0.0
N564 N 0.76797 0.17087 0.81097 0.0
C565 C 0.79043 0.19284 0.81293 0.0
H566 H 0.73072 0.16556 0.80299 0.0
Co567 Co 0.76093 0.1371 0.81225 0.0
C568 C 0.79144 0.15766 0.86845 0.0
O569 O 0.79218 0.17962 0.86963 0.0
N570 N 0.75363 0.10323 0.81334 0.0
C571 C 0.74226 0.06489 0.83044 0.0
C572 C 0.74823 0.0892 0.83716 0.0
C573 C 0.75048 0.08684 0.79227 0.0
N574 N 0.74365 0.0633 0.80217 0.0
O575 O 0.79026 0.14627 0.78847 0.0
H576 H 0.74765 0.09593 0.85814 0.0
H577 H 0.75277 0.09198 0.77014 0.0
O578 O 0.78062 0.14265 0.84752 0.0
C579 C 0.78472 0.147 0.76249 0.0
O580 O 0.76148 0.14171 0.7565 0.0
N581 N 0.73077 0.12742 0.83251 0.0
C582 C 0.68213 0.10975 0.8546 0.0
C583 C 0.70382 0.12535 0.87077 0.0
C584 C 0.72803 0.13411 0.85928 0.0
C585 C 0.70993 0.11265 0.8164 0.0
C586 C 0.68552 0.10359 0.82699 0.0
H587 H 0.74429 0.1464 0.8719 0.0
H588 H 0.71236 0.10804 0.79497 0.0
H589 H 0.80836 0.1935 0.81617 0.0
H590 H 0.75361 0.21565 0.80427 0.0
H591 H 0.73622 0.04931 0.84522 0.0
H592 H 0.70215 0.13065 0.89217 0.0
H593 H 0.66945 0.09221 0.81337 0.0
C594 C 0.41747 0.19003 0.27021 0.0
C595 C 0.43035 0.2162 0.27152 0.0
N596 N 0.42212 0.22303 0.29445 0.0
N597 N 0.40108 0.18057 0.29204 0.0
C598 C 0.4044 0.20116 0.30652 0.0
H599 H 0.41938 0.1786 0.25394 0.0
Co600 Co 0.37744 0.1464 0.29633 0.0
C601 C 0.35895 0.14104 0.35493 0.0
O602 O 0.36315 0.12185 0.35683 0.0
N603 N 0.3525 0.11139 0.2993 0.0
C604 C 0.31382 0.07729 0.30328 0.0
C605 C 0.32842 0.1029 0.30818 0.0
C606 C 0.35154 0.0905 0.28781 0.0
N607 N 0.32837 0.06951 0.29029 0.0
O608 O 0.35488 0.15099 0.27169 0.0
H609 H 0.32129 0.11485 0.31602 0.0
H610 H 0.36678 0.09074 0.276 0.0
O611 O 0.3633 0.15329 0.33146 0.0
C612 C 0.35734 0.14407 0.24691 0.0
O613 O 0.37232 0.13446 0.24374 0.0
N614 N 0.40177 0.14252 0.31735 0.0
C615 C 0.4404 0.13725 0.34244 0.0
C616 C 0.43296 0.15369 0.35412 0.0
C617 C 0.41389 0.15644 0.34091 0.0
C618 C 0.41077 0.12863 0.30434 0.0
C619 C 0.42943 0.12502 0.31694 0.0
H620 H 0.40906 0.16992 0.34958 0.0
H621 H 0.40438 0.12126 0.28344 0.0
H622 H 0.39348 0.20031 0.32494 0.0
H623 H 0.44448 0.2292 0.25672 0.0
H624 H 0.2936 0.06573 0.30696 0.0
H625 H 0.4417 0.16423 0.37326 0.0
H626 H 0.4358 0.1134 0.30636 0.0
C627 C 0.80654 0.23286 0.27775 0.0
C628 C 0.78038 0.21985 0.27842 0.0
N629 N 0.77286 0.20193 0.29865 0.0
N630 N 0.81525 0.22295 0.29732 0.0
C631 C 0.79425 0.2041 0.3097 0.0
H632 H 0.81847 0.24814 0.26346 0.0
Co633 Co 0.84892 0.23174 0.30177 0.0
C634 C 0.85107 0.21923 0.36196 0.0
O635 O 0.87022 0.24256 0.36466 0.0
N636 N 0.88334 0.23995 0.30471 0.0
C637 C 0.91775 0.23651 0.312 0.0
C638 C 0.89266 0.22697 0.3188 0.0
C639 C 0.90295 0.25616 0.28809 0.0
N640 N 0.9242 0.2549 0.2926 0.0
O641 O 0.84247 0.20316 0.27826 0.0
H642 H 0.8817 0.21029 0.33168 0.0
H643 H 0.90135 0.26766 0.2717 0.0
O644 O 0.8407 0.21131 0.33759 0.0
C645 C 0.8472 0.21121 0.25275 0.0
O646 O 0.85599 0.23557 0.24821 0.0
N647 N 0.85475 0.2614 0.32202 0.0
C648 C 0.86135 0.30652 0.34633 0.0
C649 C 0.84193 0.28267 0.35562 0.0
C650 C 0.83875 0.26043 0.34298 0.0
C651 C 0.87277 0.28447 0.31184 0.0
C652 C 0.8769 0.30708 0.32414 0.0
H653 H 0.82319 0.24237 0.34995 0.0
H654 H 0.8835 0.28577 0.29335 0.0
H655 H 0.79447 0.19159 0.32584 0.0
H656 H 0.76788 0.22319 0.2651 0.0
H657 H 0.92978 0.22926 0.31933 0.0
H658 H 0.8288 0.28113 0.37199 0.0
H659 H 0.89209 0.32487 0.31592 0.0
C660 C 0.77445 0.58774 0.27588 0.0
C661 C 0.78932 0.57668 0.27923 0.0
N662 N 0.80379 0.58684 0.30234 0.0
N663 N 0.77972 0.60483 0.29673 0.0
C664 C 0.79784 0.60396 0.31235 0.0
H665 H 0.76034 0.58327 0.25962 0.0
Co666 Co 0.7648 0.62489 0.30208 0.0
C667 C 0.77715 0.63259 0.3654 0.0
O668 O 0.75449 0.61418 0.37236 0.0
N669 N 0.75038 0.64593 0.30734 0.0
C670 C 0.73091 0.66499 0.32671 0.0
C671 C 0.74083 0.64951 0.3316 0.0
C672 C 0.74591 0.65961 0.28791 0.0
N673 N 0.73399 0.67127 0.2992 0.0
O674 O 0.79292 0.65198 0.28154 0.0
H675 H 0.73979 0.64063 0.35154 0.0
H676 H 0.7503 0.66021 0.2657 0.0
O677 O 0.78303 0.63807 0.33919 0.0
C678 C 0.78828 0.64852 0.255 0.0
O679 O 0.76612 0.62957 0.24713 0.0
N680 N 0.73547 0.59639 0.31821 0.0
C681 C 0.68976 0.55522 0.33749 0.0
C682 C 0.71309 0.55729 0.34462 0.0
C683 C 0.7357 0.57763 0.33412 0.0
C684 C 0.71276 0.59291 0.30862 0.0
C685 C 0.68982 0.57293 0.31846 0.0
H686 H 0.7534 0.57894 0.34021 0.0
H687 H 0.71218 0.60562 0.29307 0.0
H688 H 0.80632 0.61524 0.33109 0.0
H689 H 0.78884 0.56169 0.26641 0.0
H690 H 0.72174 0.67082 0.34219 0.0
H691 H 0.71399 0.54372 0.35874 0.0
H692 H 0.67224 0.57126 0.31095 0.0
C693 C 0.51228 0.08716 0.90849 0.0
C694 C 0.53835 0.10107 0.91023 0.0
N695 N 0.54754 0.08504 0.90762 0.0
N696 N 0.50499 0.06249 0.90416 0.0
C697 C 0.52677 0.0617 0.90492 0.0
H698 H 0.49952 0.09469 0.90925 0.0
Co699 Co 0.47201 0.03538 0.89826 0.0
C700 C 0.49971 0.02725 0.84771 0.0
O701 O 0.52107 0.04911 0.84754 0.0
N702 N 0.43903 0.00803 0.89278 0.0
C703 C 0.40332 0.97945 0.87192 0.0
C704 C 0.42847 0.99701 0.86785 0.0
C705 C 0.41988 0.99684 0.9117 0.0
N706 N 0.39781 0.97938 0.89951 0.0
O707 O 0.47879 0.01518 0.92396 0.0
H708 H 0.43803 0.0023 0.84763 0.0
H709 H 0.42198 0.0021 0.93377 0.0
O710 O 0.48255 0.02262 0.86611 0.0
C711 C 0.47715 0.02 0.94985 0.0
O712 O 0.47075 0.0372 0.95577 0.0
N713 N 0.46451 0.05585 0.87452 0.0
C714 C 0.45175 0.08813 0.84528 0.0
C715 C 0.47336 0.08664 0.83787 0.0
C716 C 0.47921 0.07021 0.85251 0.0
C717 C 0.44371 0.0573 0.88229 0.0
C718 C 0.43653 0.07251 0.86746 0.0
H719 H 0.49638 0.0703 0.84711 0.0
H720 H 0.43261 0.04677 0.90041 0.0
H721 H 0.52729 0.04426 0.90256 0.0
H722 H 0.54961 0.12157 0.91182 0.0
H723 H 0.38986 0.96865 0.85546 0.0
H724 H 0.48633 0.0987 0.82163 0.0
H725 H 0.41928 0.07211 0.87385 0.0
C726 C 0.90185 0.4272 0.92269 0.0
C727 C 0.88858 0.43995 0.91965 0.0
N728 N 0.90007 0.45778 0.8995 0.0
N729 N 0.92172 0.43719 0.90473 0.0
C730 C 0.92009 0.45576 0.89078 0.0
H731 H 0.89802 0.41244 0.93795 0.0
Co732 Co 0.9478 0.42976 0.90539 0.0
C733 C 0.96971 0.44201 0.84762 0.0
O734 O 0.96956 0.42029 0.84785 0.0
N735 N 0.97493 0.42294 0.90708 0.0
C736 C 0.01476 0.43045 0.90636 0.0
C737 C 0.99924 0.44028 0.90065 0.0
C738 C 0.97646 0.40303 0.91774 0.0
N739 N 0.00038 0.40702 0.9172 0.0
O740 O 0.9677 0.45979 0.92775 0.0
H741 H 0.0055 0.45932 0.89304 0.0
H742 H 0.9607 0.38618 0.92663 0.0
O743 O 0.96171 0.44868 0.86926 0.0
C744 C 0.9639 0.45396 0.95398 0.0
O745 O 0.94864 0.43 0.96073 0.0
N746 N 0.92636 0.39876 0.88661 0.0
C747 C 0.89363 0.34964 0.86641 0.0
C748 C 0.90073 0.37101 0.84912 0.0
C749 C 0.91653 0.39551 0.85993 0.0
C750 C 0.91732 0.37847 0.90443 0.0
C751 C 0.90151 0.35378 0.89471 0.0
H752 H 0.92068 0.41171 0.84684 0.0
H753 H 0.92221 0.38152 0.92659 0.0
H754 H 0.93411 0.46865 0.87584 0.0
H755 H 0.87221 0.43689 0.93182 0.0
H756 H 0.0352 0.44026 0.90403 0.0
H757 H 0.89432 0.3689 0.82743 0.0
H758 H 0.89516 0.3381 0.90946 0.0
C759 C 0.56093 0.48078 0.93342 0.0
C760 C 0.54852 0.45469 0.93169 0.0
N761 N 0.53359 0.44765 0.90865 0.0
N762 N 0.55359 0.49006 0.91178 0.0
C763 C 0.53699 0.46939 0.89687 0.0
H764 H 0.57414 0.4923 0.94974 0.0
Co765 Co 0.56391 0.52425 0.9081 0.0
C766 C 0.55118 0.53151 0.85037 0.0
O767 O 0.57433 0.5511 0.84878 0.0
N768 N 0.57398 0.55931 0.90553 0.0
C769 C 0.57 0.59378 0.90117 0.0
C770 C 0.55732 0.56763 0.90152 0.0
C771 C 0.59666 0.581 0.90812 0.0
N772 N 0.59482 0.60218 0.90524 0.0
O773 O 0.53572 0.51882 0.93088 0.0
H774 H 0.53709 0.55537 0.89874 0.0
H775 H 0.61428 0.58163 0.91268 0.0
O776 O 0.54371 0.51805 0.873 0.0
C777 C 0.54165 0.52245 0.95699 0.0
O778 O 0.56542 0.53083 0.96406 0.0
N779 N 0.59263 0.52856 0.88818 0.0
C780 C 0.63722 0.5337 0.86538 0.0
C781 C 0.61405 0.51951 0.85122 0.0
C782 C 0.59183 0.51667 0.86332 0.0
C783 C 0.61451 0.53997 0.90349 0.0
C784 C 0.63721 0.54356 0.89213 0.0
H785 H 0.574 0.50455 0.85285 0.0
H786 H 0.61427 0.54611 0.92487 0.0
H787 H 0.52697 0.47009 0.87832 0.0
H788 H 0.55023 0.44184 0.94622 0.0
H789 H 0.5616 0.60561 0.89779 0.0
H790 H 0.61312 0.51074 0.831 0.0
H791 H 0.65449 0.55343 0.90443 0.0
C792 C 0.58922 0.82608 0.71506 0.0
C793 C 0.57583 0.80024 0.71932 0.0
N794 N 0.59127 0.79085 0.71367 0.0
N795 N 0.61288 0.83302 0.7062 0.0
C796 C 0.61373 0.81122 0.70622 0.0
H797 H 0.58215 0.83905 0.71841 0.0
Co798 Co 0.63875 0.86652 0.70037 0.0
C799 C 0.64574 0.84172 0.6456 0.0
O800 O 0.62564 0.81891 0.64727 0.0
N801 N 0.6645 0.90034 0.69533 0.0
C802 C 0.68784 0.93815 0.67506 0.0
C803 C 0.67256 0.91256 0.67034 0.0
C804 C 0.67518 0.91894 0.71497 0.0
N805 N 0.6893 0.94222 0.70314 0.0
O806 O 0.66121 0.85961 0.72261 0.0
H807 H 0.6661 0.90382 0.64986 0.0
H808 H 0.67086 0.91574 0.73729 0.0
O809 O 0.65012 0.85825 0.66486 0.0
C810 C 0.65679 0.85908 0.74909 0.0
O811 O 0.63955 0.86468 0.75739 0.0
N812 N 0.61603 0.87362 0.68081 0.0
C813 C 0.57813 0.88291 0.66077 0.0
C814 C 0.58227 0.86435 0.64811 0.0
C815 C 0.6014 0.86008 0.65837 0.0
C816 C 0.61244 0.89183 0.69317 0.0
C817 C 0.59415 0.89722 0.68308 0.0
H818 H 0.60328 0.84485 0.64935 0.0
H819 H 0.62337 0.90184 0.71158 0.0
H820 H 0.63067 0.8104 0.70129 0.0
H821 H 0.55612 0.7892 0.72559 0.0
H822 H 0.69614 0.95277 0.65899 0.0
H823 H 0.57017 0.85238 0.63126 0.0
H824 H 0.59232 0.91218 0.69326 0.0
C825 C 0.19163 0.76288 0.74914 0.0
C826 C 0.21765 0.7771 0.75116 0.0
N827 N 0.22462 0.80177 0.74779 0.0
N828 N 0.18231 0.77852 0.7441 0.0
C829 C 0.2028 0.80212 0.74425 0.0
H830 H 0.18028 0.7424 0.75076 0.0
Co831 Co 0.14836 0.76904 0.74007 0.0
C832 C 0.17095 0.80574 0.68814 0.0
O833 O 0.19341 0.80768 0.68719 0.0
N834 N 0.11412 0.75922 0.73619 0.0
C835 C 0.07667 0.7454 0.7156 0.0
C836 C 0.10213 0.75539 0.71111 0.0
C837 C 0.09546 0.75136 0.75571 0.0
N838 N 0.07248 0.74278 0.74362 0.0
O839 O 0.15324 0.7949 0.76746 0.0
H840 H 0.11113 0.75849 0.69066 0.0
H841 H 0.09836 0.75068 0.77816 0.0
O842 O 0.15511 0.79229 0.70751 0.0
C843 C 0.15043 0.78561 0.79239 0.0
O844 O 0.14429 0.76164 0.79491 0.0
N845 N 0.14292 0.74195 0.71622 0.0
C846 C 0.12971 0.69674 0.68756 0.0
C847 C 0.14495 0.72045 0.67456 0.0
C848 C 0.15148 0.74288 0.68932 0.0
C849 C 0.12858 0.71911 0.72934 0.0
C850 C 0.1217 0.69634 0.71544 0.0
H851 H 0.16337 0.76068 0.67893 0.0
H852 H 0.12238 0.71865 0.75087 0.0
H853 H 0.20178 0.81926 0.7412 0.0
H854 H 0.2305 0.76976 0.75355 0.0
H855 H 0.06224 0.73997 0.69947 0.0
H856 H 0.15163 0.72171 0.65308 0.0
H857 H 0.11052 0.67858 0.72669 0.0
C858 C 0.23219 0.42553 0.74506 0.0
C859 C 0.21741 0.43677 0.7433 0.0
N860 N 0.19613 0.42112 0.72876 0.0
N861 N 0.22038 0.40303 0.73154 0.0
C862 C 0.19854 0.40082 0.72188 0.0
H863 H 0.24999 0.43287 0.75626 0.0
Co864 Co 0.23044 0.37896 0.73101 0.0
C865 C 0.21783 0.35655 0.67383 0.0
O866 O 0.24048 0.35884 0.67319 0.0
N867 N 0.24004 0.35379 0.73158 0.0
C868 C 0.23569 0.31508 0.73101 0.0
C869 C 0.22376 0.32887 0.72642 0.0
C870 C 0.26156 0.35441 0.74015 0.0
N871 N 0.25949 0.3312 0.73974 0.0
O872 O 0.20178 0.35735 0.75414 0.0
H873 H 0.20407 0.32104 0.7205 0.0
H874 H 0.27826 0.37122 0.7475 0.0
O875 O 0.21073 0.36375 0.69578 0.0
C876 C 0.20707 0.36195 0.78035 0.0
O877 O 0.23034 0.37919 0.78737 0.0
N878 N 0.25974 0.40215 0.7107 0.0
C879 C 0.30549 0.43938 0.68702 0.0
C880 C 0.28265 0.42991 0.67198 0.0
C881 C 0.25985 0.41185 0.68456 0.0
C882 C 0.28132 0.41309 0.72653 0.0
C883 C 0.30448 0.43119 0.71495 0.0
H884 H 0.24235 0.40609 0.67336 0.0
H885 H 0.28042 0.40829 0.74865 0.0
H886 H 0.18448 0.38433 0.71049 0.0
H887 H 0.2217 0.45464 0.75292 0.0
H888 H 0.2271 0.29462 0.72947 0.0
H889 H 0.28232 0.4364 0.65075 0.0
H890 H 0.32132 0.43922 0.72806 0.0
C891 C 0.47966 0.90384 0.13969 0.0
C892 C 0.4536 0.88977 0.13996 0.0
N893 N 0.44461 0.90599 0.14016 0.0
N894 N 0.48707 0.92884 0.14048 0.0
C895 C 0.46522 0.92949 0.13996 0.0
H896 H 0.49231 0.89618 0.13923 0.0
Co897 Co 0.5202 0.9564 0.14052 0.0
C898 C 0.49905 0.96709 0.19505 0.0
O899 O 0.47735 0.94563 0.19653 0.0
N900 N 0.55317 0.98371 0.14021 0.0
C901 C 0.59179 0.01263 0.15416 0.0
C902 C 0.56791 0.9949 0.16297 0.0
C903 C 0.56851 0.99478 0.1178 0.0
N904 N 0.59226 0.01253 0.12567 0.0
O905 O 0.50965 0.97507 0.11689 0.0
H906 H 0.56218 0.98937 0.18465 0.0
H907 H 0.56261 0.98906 0.09622 0.0
O908 O 0.51443 0.97094 0.17473 0.0
C909 C 0.5083 0.96838 0.09109 0.0
O910 O 0.51373 0.95053 0.08489 0.0
N911 N 0.53139 0.93757 0.16125 0.0
C912 C 0.54895 0.90648 0.1831 0.0
C913 C 0.53468 0.9138 0.19996 0.0
C914 C 0.52599 0.92937 0.1886 0.0
C915 C 0.54536 0.93082 0.14472 0.0
C916 C 0.55434 0.91536 0.15517 0.0
H917 H 0.51452 0.93416 0.20164 0.0
H918 H 0.54902 0.93704 0.12293 0.0
H919 H 0.46444 0.9469 0.14078 0.0
H920 H 0.44214 0.86922 0.14027 0.0
H921 H 0.60801 0.02327 0.1678 0.0
H922 H 0.53009 0.90741 0.22165 0.0
H923 H 0.5647 0.90976 0.1411 0.0
C924 C 0.08234 0.56678 0.11866 0.0
C925 C 0.09691 0.55546 0.12283 0.0
N926 N 0.08516 0.53692 0.14224 0.0
N927 N 0.0616 0.55526 0.13531 0.0
C928 C 0.06372 0.53699 0.14907 0.0
H929 H 0.08691 0.58282 0.10503 0.0
Co930 Co 0.03662 0.56394 0.14024 0.0
C931 C 0.01039 0.52992 0.19112 0.0
O932 O 0.98973 0.51393 0.17738 0.0
N933 N 0.01152 0.57271 0.14564 0.0
C934 C 0.98969 0.58855 0.16637 0.0
C935 C 0.00587 0.57936 0.1707 0.0
C936 C 0.99844 0.578 0.12633 0.0
N937 N 0.98515 0.58782 0.13849 0.0
O938 O 0.01289 0.5333 0.12076 0.0
H939 H 0.0143 0.57923 0.19076 0.0
H940 H 1.00005 0.57647 0.10374 0.0
O941 O 0.0287 0.54827 0.17786 0.0
C942 C 0.01639 0.53854 0.09434 0.0
O943 O 0.03317 0.56195 0.08703 0.0
N944 N 0.06059 0.59487 0.15618 0.0
C945 C 0.09438 0.64296 0.17728 0.0
C946 C 0.09228 0.62108 0.19 0.0
C947 C 0.07539 0.59713 0.17889 0.0
C948 C 0.0635 0.61594 0.14257 0.0
C949 C 0.08006 0.64017 0.15296 0.0
H950 H 0.07432 0.58044 0.18836 0.0
H951 H 0.05264 0.61391 0.12368 0.0
H952 H 0.04994 0.52403 0.16412 0.0
H953 H 0.11511 0.56106 0.11324 0.0
H954 H 0.98266 0.59622 0.18234 0.0
H955 H 0.1033 0.62242 0.20855 0.0
H956 H 0.08174 0.65657 0.14191 0.0
C957 C 0.43327 0.53329 0.13101 0.0
C958 C 0.44966 0.55917 0.12984 0.0
N959 N 0.47262 0.5637 0.13834 0.0
N960 N 0.44587 0.52175 0.14062 0.0
C961 C 0.46996 0.54079 0.14431 0.0
H962 H 0.41339 0.52349 0.12532 0.0
Co963 Co 0.43248 0.48682 0.14364 0.0
C964 C 0.46439 0.50276 0.19963 0.0
O965 O 0.47064 0.52675 0.20189 0.0
N966 N 0.41879 0.45162 0.14621 0.0
C967 C 0.39941 0.41254 0.1641 0.0
C968 C 0.40989 0.43788 0.1702 0.0
C969 C 0.41346 0.43415 0.12573 0.0
N970 N 0.40159 0.41018 0.13612 0.0
O971 O 0.45983 0.4898 0.12101 0.0
H972 H 0.41032 0.44577 0.19082 0.0
H973 H 0.41735 0.43877 0.10354 0.0
O974 O 0.451 0.48946 0.1787 0.0
C975 C 0.45517 0.49087 0.0949 0.0
O976 O 0.43317 0.48854 0.08805 0.0
N977 N 0.4046 0.4838 0.16357 0.0
C978 C 0.35928 0.4742 0.18843 0.0
C979 C 0.38249 0.48994 0.20193 0.0
C980 C 0.40509 0.49458 0.18904 0.0
C981 C 0.38231 0.46971 0.14951 0.0
C982 C 0.35938 0.46439 0.1617 0.0
H983 H 0.42277 0.50685 0.19949 0.0
H984 H 0.38235 0.46215 0.12883 0.0
H985 H 0.48536 0.53799 0.15109 0.0
H986 H 0.44494 0.57359 0.12419 0.0
H987 H 0.39074 0.39701 0.1791 0.0
H988 H 0.38311 0.49816 0.22243 0.0
H989 H 0.34187 0.45271 0.15029 0.0
C990 C 0.08573 0.52229 0.63322 0.0
C991 C 0.09687 0.54832 0.63386 0.0
N992 N 0.0786 0.5544 0.63788 0.0
N993 N 0.06055 0.5118 0.63742 0.0
C994 C 0.05667 0.53179 0.63908 0.0
H995 H 0.09555 0.51169 0.63085 0.0
Co996 Co 0.03727 0.47699 0.64049 0.0
C997 C 0.02148 0.49604 0.69416 0.0
O998 O 0.04022 0.51967 0.69539 0.0
N999 N 0.01403 0.44204 0.64363 0.0
C1000 C 0.9913 0.40387 0.66333 0.0
C1001 C 0.00755 0.42917 0.66835 0.0
C1002 C 0.00155 0.42399 0.62376 0.0
N1003 N 0.98758 0.40055 0.63527 0.0
O1004 O 0.01506 0.48092 0.61439 0.0
H1005 H 0.01471 0.43758 0.68885 0.0
H1006 H 0.00331 0.42778 0.6013 0.0
O1007 O 0.02065 0.48144 0.67413 0.0
C1008 C 0.02297 0.47979 0.58966 0.0
O1009 O 0.04248 0.47614 0.58782 0.0
N1010 N 0.06021 0.47263 0.66286 0.0
C1011 C 0.09684 0.46427 0.68783 0.0
C1012 C 0.08891 0.47976 0.70113 0.0
C1013 C 0.07045 0.48371 0.68824 0.0
C1014 C 0.06814 0.45799 0.64949 0.0
C1015 C 0.08618 0.45331 0.66171 0.0
H1016 H 0.06511 0.49621 0.69829 0.0
H1017 H 0.06056 0.4501 0.62891 0.0
H1018 H 0.03808 0.52968 0.64202 0.0
H1019 H 0.11707 0.56159 0.63295 0.0
H1020 H 0.98297 0.38906 0.67919 0.0
H1021 H 0.09695 0.48877 0.7212 0.0
H1022 H 0.09225 0.44177 0.6504 0.0
C1023 C 0.48076 0.57503 0.6377 0.0
C1024 C 0.45477 0.56049 0.63988 0.0
N1025 N 0.44852 0.53605 0.64385 0.0
N1026 N 0.491 0.55991 0.64062 0.0
C1027 C 0.47082 0.53624 0.64355 0.0
H1028 H 0.49135 0.59541 0.63494 0.0
Co1029 Co 0.52522 0.56859 0.64144 0.0
C1030 C 0.50543 0.54255 0.6984 0.0
O1031 O 0.4878 0.54892 0.7005 0.0
N1032 N 0.55923 0.57727 0.64218 0.0
C1033 C 0.59802 0.58961 0.658 0.0
C1034 C 0.573 0.57916 0.66535 0.0
C1035 C 0.57637 0.58688 0.62101 0.0
N1036 N 0.60028 0.5946 0.63007 0.0
O1037 O 0.51699 0.53908 0.61915 0.0
H1038 H 0.56578 0.57497 0.68669 0.0
H1039 H 0.57145 0.58907 0.59965 0.0
O1040 O 0.51987 0.54931 0.67664 0.0
C1041 C 0.51598 0.54376 0.593 0.0
O1042 O 0.52052 0.5666 0.58593 0.0
N1043 N 0.53444 0.59913 0.6601 0.0
C1044 C 0.55605 0.64999 0.67598 0.0
C1045 C 0.54815 0.63081 0.69655 0.0
C1046 C 0.53766 0.60535 0.68814 0.0
C1047 C 0.54184 0.61758 0.64003 0.0
C1048 C 0.55252 0.64303 0.64744 0.0
H1049 H 0.53326 0.59118 0.70418 0.0
H1050 H 0.53975 0.61237 0.61793 0.0
H1051 H 0.47265 0.51956 0.64647 0.0
H1052 H 0.44168 0.56765 0.63989 0.0
H1053 H 0.6135 0.59468 0.67261 0.0
H1054 H 0.55092 0.63553 0.71881 0.0
H1055 H 0.55809 0.65717 0.63089 0.0
C1056 C 0.42784 0.90673 0.62819 0.0
C1057 C 0.44213 0.89486 0.62877 0.0
N1058 N 0.46466 0.91102 0.64045 0.0
N1059 N 0.44125 0.93015 0.63989 0.0
C1060 C 0.46387 0.93227 0.64636 0.0
H1061 H 0.40912 0.89872 0.61916 0.0
Co1062 Co 0.43404 0.95689 0.64266 0.0
C1063 C 0.45676 0.9584 0.69907 0.0
O1064 O 0.44311 0.93349 0.70116 0.0
N1065 N 0.42748 0.98355 0.64447 0.0
C1066 C 0.42859 0.01999 0.65326 0.0
C1067 C 0.43938 0.00535 0.65946 0.0
C1068 C 0.40973 0.98538 0.62929 0.0
N1069 N 0.40996 0.00742 0.63421 0.0
O1070 O 0.46269 0.97698 0.61935 0.0
H1071 H 0.45526 0.01068 0.67351 0.0
H1072 H 0.39701 0.97079 0.61477 0.0
O1073 O 0.45493 0.96956 0.67698 0.0
C1074 C 0.45623 0.97306 0.5934 0.0
O1075 O 0.43237 0.95693 0.58727 0.0
N1076 N 0.40414 0.93683 0.66331 0.0
C1077 C 0.3555 0.90788 0.68564 0.0
C1078 C 0.3753 0.92584 0.70243 0.0
C1079 C 0.39937 0.94083 0.69052 0.0
C1080 C 0.38467 0.92037 0.64645 0.0
C1081 C 0.36027 0.90546 0.65723 0.0
H1082 H 0.41363 0.95623 0.70294 0.0
H1083 H 0.38789 0.91959 0.62412 0.0
H1084 H 0.4798 0.94927 0.655 0.0
H1085 H 0.43634 0.87579 0.62162 0.0
H1086 H 0.43467 0.03885 0.66138 0.0
H1087 H 0.37193 0.92897 0.72414 0.0
H1088 H 0.34519 0.89233 0.6434 0.0
C1089 C 0.1832 0.41898 0.25341 0.0
C1090 C 0.20929 0.43099 0.25383 0.0
N1091 N 0.2166 0.41774 0.23728 0.0
N1092 N 0.17419 0.39845 0.23645 0.0
C1093 C 0.19491 0.39804 0.22717 0.0
H1094 H 0.17148 0.42482 0.26464 0.0
Co1095 Co 0.1403 0.37534 0.22941 0.0
C1096 C 0.14915 0.36755 0.16743 0.0
O1097 O 0.1417 0.38321 0.15857 0.0
N1098 N 0.10585 0.35125 0.22335 0.0
C1099 C 0.06778 0.32574 0.20476 0.0
C1100 C 0.09302 0.34165 0.19896 0.0
C1101 C 0.08788 0.34066 0.24368 0.0
N1102 N 0.06452 0.32523 0.23292 0.0
O1103 O 0.14386 0.35079 0.25191 0.0
H1104 H 0.10093 0.34624 0.17804 0.0
H1105 H 0.09168 0.34515 0.26588 0.0
O1106 O 0.14908 0.36303 0.19402 0.0
C1107 C 0.14311 0.35523 0.27821 0.0
O1108 O 0.13866 0.37357 0.28527 0.0
N1109 N 0.13683 0.40125 0.2104 0.0
C1110 C 0.13068 0.44061 0.18821 0.0
C1111 C 0.15316 0.44013 0.18356 0.0
C1112 C 0.1561 0.42064 0.19539 0.0
C1113 C 0.11556 0.40255 0.2165 0.0
C1114 C 0.11186 0.42158 0.20513 0.0
H1115 H 0.17364 0.42074 0.19155 0.0
H1116 H 0.10135 0.38913 0.23077 0.0
H1117 H 0.19408 0.38375 0.2129 0.0
H1118 H 0.22183 0.448 0.2656 0.0
H1119 H 0.05295 0.31555 0.18934 0.0
H1120 H 0.16849 0.45485 0.17125 0.0
H1121 H 0.0943 0.42135 0.20966 0.0
C1122 C 0.59708 0.77361 0.20608 0.0
C1123 C 0.58506 0.78764 0.20772 0.0
N1124 N 0.60258 0.81243 0.20447 0.0
N1125 N 0.62202 0.78938 0.20123 0.0
C1126 C 0.62487 0.8129 0.20118 0.0
H1127 H 0.58815 0.75316 0.20806 0.0
Co1128 Co 0.6473 0.78062 0.19809 0.0
C1129 C 0.65837 0.8135 0.14359 0.0
O1130 O 0.63799 0.81571 0.14326 0.0
N1131 N 0.6728 0.77201 0.19519 0.0
C1132 C 0.69834 0.75922 0.17733 0.0
C1133 C 0.68237 0.76838 0.17102 0.0
C1134 C 0.68311 0.76476 0.21587 0.0
N1135 N 0.69862 0.75676 0.20556 0.0
O1136 O 0.6682 0.8079 0.22392 0.0
H1137 H 0.67672 0.77047 0.15 0.0
H1138 H 0.67835 0.76414 0.23797 0.0
O1139 O 0.66194 0.80159 0.16383 0.0
C1140 C 0.66045 0.79822 0.24852 0.0
O1141 O 0.64198 0.77441 0.24996 0.0
N1142 N 0.62564 0.75189 0.17635 0.0
C1143 C 0.58848 0.70471 0.15528 0.0
C1144 C 0.59316 0.72752 0.14224 0.0
C1145 C 0.61202 0.75097 0.15299 0.0
C1146 C 0.62153 0.72995 0.18891 0.0
C1147 C 0.60387 0.70635 0.17818 0.0
H1148 H 0.61433 0.76817 0.1437 0.0
H1149 H 0.63152 0.73067 0.20807 0.0
H1150 H 0.64307 0.83004 0.19857 0.0
H1151 H 0.56485 0.78 0.21027 0.0
H1152 H 0.70752 0.75307 0.16221 0.0
H1153 H 0.58161 0.72743 0.1248 0.0
H1154 H 0.60186 0.68956 0.18857 0.0
C1155 C 0.23473 0.81061 0.25396 0.0
C1156 C 0.22297 0.78452 0.25256 0.0
N1157 N 0.20287 0.77622 0.23512 0.0
N1158 N 0.2222 0.81871 0.23734 0.0
C1159 C 0.20279 0.79734 0.22629 0.0
H1160 H 0.25143 0.82293 0.26623 0.0
Co1161 Co 0.23117 0.85238 0.23157 0.0
C1162 C 0.1949 0.8477 0.18571 0.0
O1163 O 0.18633 0.86 0.20074 0.0
N1164 N 0.24085 0.8864 0.22595 0.0
C1165 C 0.25655 0.92452 0.2061 0.0
C1166 C 0.24648 0.89899 0.20107 0.0
C1167 C 0.24782 0.90467 0.24578 0.0
N1168 N 0.25748 0.92806 0.23425 0.0
O1169 O 0.20265 0.84709 0.25449 0.0
H1170 H 0.24455 0.89039 0.18055 0.0
H1171 H 0.24723 0.90114 0.26824 0.0
O1172 O 0.21153 0.84318 0.19637 0.0
C1173 C 0.20891 0.8488 0.28057 0.0
O1174 O 0.23231 0.85464 0.28658 0.0
N1175 N 0.26009 0.85771 0.2123 0.0
C1176 C 0.30608 0.86494 0.19228 0.0
C1177 C 0.28509 0.85576 0.17426 0.0
C1178 C 0.26198 0.85195 0.18481 0.0
C1179 C 0.28061 0.8674 0.22974 0.0
C1180 C 0.3038 0.87094 0.22024 0.0
H1181 H 0.2458 0.84411 0.17094 0.0
H1182 H 0.27868 0.87178 0.25143 0.0
H1183 H 0.18913 0.79725 0.21161 0.0
H1184 H 0.22868 0.77261 0.26367 0.0
H1185 H 0.26325 0.93939 0.19028 0.0
H1186 H 0.28636 0.85089 0.15253 0.0
H1187 H 0.31977 0.87815 0.23462 0.0
H1188 H 0.37381 0.18992 0.90929 0.0
H1189 H 0.3317 0.218 0.8629 0.0
H1190 H 0.30953 0.21748 0.90593 0.0
H1191 H 0.30475 0.21282 0.95735 0.0
H1192 H 0.34496 0.18318 1.00427 0.0
H1193 H 0.36492 0.18013 0.96036 0.0
C1194 C 0.35956 0.19564 0.90847 0.0
C1195 C 0.35501 0.20466 0.88283 0.0
C1196 C 0.3466 0.19509 0.93344 0.0
C1197 C 0.33612 0.21154 0.88227 0.0
C1198 C 0.32334 0.2112 0.90693 0.0
C1199 C 0.3177 0.20542 0.95792 0.0
C1200 C 0.32368 0.19855 0.984 0.0
C1201 C 0.32891 0.20367 0.93272 0.0
C1202 C 0.34009 0.18858 0.98443 0.0
C1203 C 0.35159 0.187 0.95935 0.0
H1204 H 0.79333 0.09059 0.96895 0.0
H1205 H 0.80533 0.15553 0.01776 0.0
H1206 H 0.80831 0.17874 0.97392 0.0
H1207 H 0.80301 0.1785 0.9218 0.0
H1208 H 0.79282 0.11356 0.87381 0.0
H1209 H 0.79385 0.09254 0.9172 0.0
C1210 C 0.79692 0.10998 0.96998 0.0
C1211 C 0.79879 0.12127 0.99651 0.0
C1212 C 0.79872 0.12309 0.94481 0.0
C1213 C 0.80383 0.14648 0.99758 0.0
C1214 C 0.80538 0.15964 0.97251 0.0
C1215 C 0.80145 0.15993 0.92074 0.0
C1216 C 0.79711 0.14739 0.89441 0.0
C1217 C 0.80222 0.14788 0.94598 0.0
C1218 C 0.79548 0.12346 0.89364 0.0
C1219 C 0.79613 0.11139 0.91852 0.0
H1220 H 0.8632 0.68012 0.88458 0.0
H1221 H 0.85716 0.60716 0.89884 0.0
H1222 H 0.85842 0.61348 0.94965 0.0
H1223 H 0.86864 0.64251 0.98949 0.0
H1224 H 0.87572 0.71601 0.97705 0.0
H1225 H 0.86632 0.70678 0.92649 0.0
C1226 C 0.86119 0.6653 0.89893 0.0
C1227 C 0.85974 0.64303 0.88795 0.0
C1228 C 0.86259 0.66938 0.92852 0.0
C1229 C 0.85783 0.62423 0.90673 0.0
C1230 C 0.85882 0.62794 0.93586 0.0
C1231 C 0.86734 0.65619 0.97584 0.0
C1232 C 0.87295 0.6799 0.98688 0.0
C1233 C 0.86226 0.65083 0.94692 0.0
C1234 C 0.87127 0.69752 0.96905 0.0
C1235 C 0.86616 0.69232 0.94007 0.0
H1236 H 0.1407 0.2974 0.57544 0.0
H1237 H 0.20877 0.34137 0.5261 0.0
H1238 H 0.23189 0.36349 0.56851 0.0
H1239 H 0.23406 0.36732 0.62011 0.0
H1240 H 0.16623 0.32537 0.66997 0.0
H1241 H 0.1416 0.30573 0.62685 0.0
C1242 C 0.16047 0.31213 0.57385 0.0
C1243 C 0.17313 0.31712 0.54759 0.0
C1244 C 0.17374 0.325 0.59847 0.0
C1245 C 0.19867 0.33656 0.54602 0.0
C1246 C 0.21195 0.34931 0.57031 0.0
C1247 C 0.2138 0.35406 0.62148 0.0
C1248 C 0.20198 0.34744 0.6481 0.0
C1249 C 0.19989 0.34311 0.59672 0.0
C1250 C 0.17569 0.33067 0.64965 0.0
C1251 C 0.16169 0.31938 0.62502 0.0
H1252 H 0.63374 0.8179 0.59385 0.0
H1253 H 0.69157 0.88451 0.63684 0.0
H1254 H 0.71226 0.90267 0.59188 0.0
H1255 H 0.71107 0.90205 0.54007 0.0
H1256 H 0.65453 0.83563 0.49624 0.0
H1257 H 0.63642 0.8147 0.54174 0.0
C1258 C 0.65113 0.83618 0.59347 0.0
C1259 C 0.6606 0.85016 0.61878 0.0
C1260 C 0.66313 0.84654 0.56733 0.0
C1261 C 0.68335 0.87367 0.61775 0.0
C1262 C 0.69531 0.88404 0.59199 0.0
C1263 C 0.69525 0.88268 0.54051 0.0
C1264 C 0.68424 0.87025 0.51494 0.0
C1265 C 0.68493 0.87103 0.56662 0.0
C1266 C 0.66353 0.84535 0.5157 0.0
C1267 C 0.65305 0.83355 0.54171 0.0
H1268 H 0.10571 0.80851 0.58674 0.0
H1269 H 0.17324 0.82591 0.54003 0.0
H1270 H 0.19575 0.82963 0.58453 0.0
H1271 H 0.19395 0.82198 0.63627 0.0
H1272 H 0.12603 0.80526 0.68228 0.0
H1273 H 0.10605 0.80748 0.63857 0.0
C1274 C 0.12557 0.8137 0.58636 0.0
C1275 C 0.13781 0.81681 0.56021 0.0
C1276 C 0.13816 0.81556 0.61191 0.0
C1277 C 0.16351 0.82364 0.55992 0.0
C1278 C 0.17626 0.8255 0.58537 0.0
C1279 C 0.17497 0.81933 0.63688 0.0
C1280 C 0.16129 0.81272 0.66262 0.0
C1281 C 0.16348 0.82064 0.61147 0.0
C1282 C 0.13683 0.80971 0.66285 0.0
C1283 C 0.12536 0.81102 0.6378 0.0
H1284 H 0.72522 0.81318 0.04234 0.0
H1285 H 0.6707 0.82277 0.99385 0.0
H1286 H 0.65143 0.8269 0.03778 0.0
H1287 H 0.6477 0.82332 0.0901 0.0
H1288 H 0.70415 0.81589 0.13779 0.0
H1289 H 0.72519 0.81565 0.09409 0.0
C1290 C 0.70926 0.81644 0.0414 0.0
C1291 C 0.69909 0.81728 1.01497 0.0
C1292 C 0.69856 0.81903 0.06663 0.0
C1293 C 0.67877 0.822 1.01397 0.0
C1294 C 0.66772 0.82424 0.0391 0.0
C1295 C 0.66488 0.82215 0.09101 0.0
C1296 C 0.67385 0.81887 0.11735 0.0
C1297 C 0.67711 0.82219 0.0656 0.0
C1298 C 0.69634 0.81769 0.11793 0.0
C1299 C 0.70846 0.81761 0.09289 0.0
H1300 H 0.19548 0.8342 0.05323 0.0
H1301 H 0.16094 0.88126 0.05611 0.0
H1302 H 0.15968 0.87902 0.1075 0.0
H1303 H 0.172 0.86709 0.15204 0.0
H1304 H 0.20551 0.81912 0.14941 0.0
H1305 H 0.20336 0.81822 0.09789 0.0
C1306 C 0.18732 0.84367 0.06502 0.0
C1307 C 0.17871 0.85825 0.05053 0.0
C1308 C 0.18669 0.84236 0.09485 0.0
C1309 C 0.16807 0.8702 0.06643 0.0
C1310 C 0.16733 0.86894 0.09598 0.0
C1311 C 0.17847 0.85609 0.14028 0.0
C1312 C 0.18948 0.84369 0.15477 0.0
C1313 C 0.17715 0.8556 0.11048 0.0
C1314 C 0.19756 0.8294 0.13896 0.0
C1315 C 0.19625 0.8288 0.10939 0.0
H1316 H 0.1207 0.27945 0.08203 0.0
H1317 H 0.1466 0.34191 0.02322 0.0
H1318 H 0.16434 0.37219 0.06233 0.0
H1319 H 0.16473 0.38025 0.11338 0.0
H1320 H 0.13703 0.31771 0.17225 0.0
H1321 H 0.12821 0.28812 0.13304 0.0
C1322 C 0.13088 0.29973 0.0777 0.0
C1323 C 0.132 0.30842 0.04977 0.0
C1324 C 0.14038 0.31696 0.10038 0.0
C1325 C 0.14548 0.3347 0.04444 0.0
C1326 C 0.15538 0.35201 0.06688 0.0
C1327 C 0.15743 0.36021 0.11768 0.0
C1328 C 0.1512 0.35111 0.14566 0.0
C1329 C 0.1518 0.3433 0.09497 0.0
C1330 C 0.14203 0.3252 0.15098 0.0
C1331 C 0.13673 0.30825 0.12849 0.0
H1332 H 0.84891 0.71766 0.45235 0.0
H1333 H 0.79401 0.66285 0.51049 0.0
H1334 H 0.77352 0.63301 0.47175 0.0
H1335 H 0.76928 0.62354 0.42147 0.0
H1336 H 0.82215 0.67853 0.36206 0.0
H1337 H 0.84567 0.70708 0.40134 0.0
C1338 C 0.83265 0.69907 0.45661 0.0
C1339 C 0.82297 0.69259 0.4844 0.0
C1340 C 0.82058 0.68208 0.43402 0.0
C1341 C 0.8018 0.66845 0.48941 0.0
C1342 C 0.79006 0.65134 0.46723 0.0
C1343 C 0.78606 0.64169 0.41692 0.0
C1344 C 0.79377 0.64892 0.38869 0.0
C1345 C 0.799 0.65814 0.43944 0.0
C1346 C 0.81574 0.67244 0.38349 0.0
C1347 C 0.8291 0.68882 0.40598 0.0
H1348 H 0.29319 0.147 0.454 0.0
H1349 H 0.34722 0.13642 0.50272 0.0
H1350 H 0.37122 0.14042 0.45996 0.0
H1351 H 0.37423 0.14197 0.40828 0.0
H1352 H 0.32147 0.15359 0.35885 0.0
H1353 H 0.29991 0.15474 0.40234 0.0
C1354 C 0.31044 0.14599 0.45538 0.0
C1355 C 0.31789 0.14062 0.48161 0.0
C1356 C 0.32435 0.14845 0.43053 0.0
C1357 C 0.34055 0.13977 0.48287 0.0
C1358 C 0.35439 0.14217 0.45838 0.0
C1359 C 0.35829 0.14526 0.40708 0.0
C1360 C 0.34929 0.14751 0.38047 0.0
C1361 C 0.34603 0.14569 0.43204 0.0
C1362 C 0.32881 0.15197 0.37913 0.0
C1363 C 0.31637 0.15237 0.40399 0.0
H1364 H 0.83762 0.1433 0.46004 0.0
H1365 H 0.85057 0.20822 0.50996 0.0
H1366 H 0.84944 0.23021 0.46734 0.0
H1367 H 0.84985 0.23307 0.41561 0.0
H1368 H 0.83587 0.16834 0.36509 0.0
H1369 H 0.83179 0.14397 0.40822 0.0
C1370 C 0.8397 0.16205 0.46172 0.0
C1371 C 0.84495 0.17436 0.48826 0.0
C1372 C 0.83897 0.17467 0.43696 0.0
C1373 C 0.84726 0.19854 0.48987 0.0
C1374 C 0.84654 0.21114 0.46546 0.0
C1375 C 0.84547 0.21346 0.41406 0.0
C1376 C 0.84342 0.20257 0.38724 0.0
C1377 C 0.84328 0.19974 0.43885 0.0
C1378 C 0.83744 0.17708 0.38549 0.0
C1379 C 0.83532 0.16325 0.41016 0.0
H1380 H 0.02183 0.55731 0.32063 0.0
H1381 H 0.95137 0.48618 0.32549 0.0
H1382 H 0.95488 0.47827 0.27532 0.0
H1383 H 0.97559 0.4946 0.22849 0.0
H1384 H 0.04625 0.56605 0.22546 0.0
H1385 H 0.04512 0.57058 0.27608 0.0
C1386 C 0.00754 0.53976 0.31087 0.0
C1387 C 0.98635 0.52245 0.32676 0.0
C1388 C 0.00955 0.53554 0.28204 0.0
C1389 C 0.96801 0.49975 0.31386 0.0
C1390 C 0.96988 0.49538 0.28502 0.0
C1391 C 0.99094 0.51095 0.23896 0.0
C1392 C 0.01089 0.53006 0.22272 0.0
C1393 C 0.99017 0.51359 0.26861 0.0
C1394 C 0.03065 0.55098 0.23694 0.0
C1395 C 0.02999 0.55371 0.26612 0.0
H1396 H 0.48269 0.52185 0.25243 0.0
H1397 H 0.45483 0.4538 0.20197 0.0
H1398 H 0.45346 0.42965 0.24365 0.0
H1399 H 0.45656 0.42686 0.29503 0.0
H1400 H 0.48665 0.49474 0.34577 0.0
H1401 H 0.49116 0.52005 0.30336 0.0
C1402 C 0.47667 0.50183 0.25044 0.0
C1403 C 0.46807 0.48953 0.22411 0.0
C1404 C 0.47622 0.48799 0.2746 0.0
C1405 C 0.46076 0.46365 0.22199 0.0
C1406 C 0.46007 0.44979 0.24585 0.0
C1407 C 0.46433 0.44726 0.29675 0.0
C1408 C 0.47092 0.45892 0.32346 0.0
C1409 C 0.46707 0.46159 0.27236 0.0
C1410 C 0.48141 0.48538 0.32539 0.0
C1411 C 0.48387 0.49979 0.30118 0.0
H1412 H 0.4777 0.9593 0.24782 0.0
H1413 H 0.54197 0.01364 0.19872 0.0
H1414 H 0.56285 0.03701 0.24148 0.0
H1415 H 0.56521 0.039 0.29331 0.0
H1416 H 0.50047 0.98679 0.3428 0.0
H1417 H 0.47717 0.96582 0.29943 0.0
C1418 C 0.49605 0.97652 0.24637 0.0
C1419 C 0.50866 0.98409 0.22011 0.0
C1420 C 0.50791 0.99017 0.27116 0.0
C1421 C 0.5322 0.00678 0.21869 0.0
C1422 C 0.54416 0.02027 0.24316 0.0
C1423 C 0.54579 0.02334 0.29448 0.0
C1424 C 0.53455 0.0142 0.32099 0.0
C1425 C 0.5326 0.01161 0.26957 0.0
C1426 C 0.50938 0.99412 0.32248 0.0
C1427 C 0.49617 0.98206 0.29772 0.0
H1428 H 0.44919 0.94329 0.75385 0.0
H1429 H 0.49495 0.00795 0.70035 0.0
H1430 H 0.51469 0.03437 0.74206 0.0
H1431 H 0.51614 0.03992 0.79366 0.0
H1432 H 0.46744 0.97609 0.84678 0.0
H1433 H 0.45183 0.9484 0.80534 0.0
C1434 C 0.46378 0.96306 0.75129 0.0
C1435 C 0.47063 0.97366 0.72405 0.0
C1436 C 0.47442 0.97829 0.77534 0.0
C1437 C 0.48931 0.99939 0.72111 0.0
C1438 C 0.50058 0.01449 0.74495 0.0
C1439 C 0.50249 0.01983 0.79619 0.0
C1440 C 0.49303 0.00999 0.82322 0.0
C1441 C 0.49291 0.00427 0.77216 0.0
C1442 C 0.47501 0.98405 0.82616 0.0
C1443 C 0.46603 0.96826 0.80248 0.0
H1444 H 0.02559 0.51733 0.74653 0.0
H1445 H 0.98037 0.44822 0.69921 0.0
H1446 H 0.95956 0.42582 0.74255 0.0
H1447 H 0.95735 0.42459 0.7944 0.0
H1448 H 1.00017 0.49365 0.84211 0.0
H1449 H 0.0185 0.51747 0.79813 0.0
C1450 C 0.01086 0.49749 0.74557 0.0
C1451 C 0.00524 0.48431 0.71958 0.0
C1452 C 0.99865 0.48467 0.77072 0.0
C1453 C 0.98575 0.4587 0.71888 0.0
C1454 C 0.97374 0.44584 0.74371 0.0
C1455 C 0.97045 0.44494 0.7951 0.0
C1456 C 0.97771 0.45735 0.82138 0.0
C1457 C 0.98062 0.45842 0.76981 0.0
C1458 C 0.99434 0.48374 0.82208 0.0
C1459 C 0.0049 0.49729 0.79695 0.0
H1460 H 0.56306 0.52489 0.79777 0.0
H1461 H 0.50373 0.52553 0.84664 0.0
H1462 H 0.48217 0.52615 0.80297 0.0
H1463 H 0.48391 0.53272 0.75117 0.0
H1464 H 0.54305 0.53064 0.70283 0.0
H1465 H 0.56078 0.52402 0.74595 0.0
C1466 C 0.54503 0.52447 0.79876 0.0
C1467 C 0.53493 0.52525 0.82517 0.0
C1468 C 0.53297 0.52497 0.77369 0.0
C1469 C 0.51164 0.52469 0.82643 0.0
C1470 C 0.49951 0.52531 0.80148 0.0
C1471 C 0.50039 0.53035 0.74997 0.0
C1472 C 0.5126 0.53307 0.72377 0.0
C1473 C 0.51052 0.52639 0.77499 0.0
C1474 C 0.53364 0.5294 0.72268 0.0
C1475 C 0.54382 0.52555 0.74737 0.0
H1476 H 0.35975 0.36586 0.14802 0.0
H1477 H 0.42241 0.40182 0.08974 0.0
H1478 H 0.40806 0.36098 0.06599 0.0
H1479 H 0.37867 0.31456 0.0635 0.0
H1480 H 0.31642 0.27915 0.12252 0.0
H1481 H 0.32957 0.32026 0.1443 0.0
C1482 C 0.37031 0.36472 0.13019 0.0
C1483 C 0.39227 0.3867 0.12084 0.0
C1484 C 0.36201 0.34129 0.11682 0.0
C1485 C 0.40541 0.38513 0.09724 0.0
C1486 C 0.3973 0.36179 0.0838 0.0
C1487 C 0.36804 0.31592 0.08113 0.0
C1488 C 0.34664 0.29383 0.09139 0.0
C1489 C 0.3758 0.33967 0.09367 0.0
C1490 C 0.33276 0.29586 0.11398 0.0
C1491 C 0.34038 0.31935 0.12659 0.0
H1492 H 0.68567 0.0358 0.05189 0.0
H1493 H 0.72369 0.09053 0.11819 0.0
H1494 H 0.68276 0.08289 0.13623 0.0
H1495 H 0.63642 0.0551 0.13789 0.0
H1496 H 0.59908 0.99727 0.074 0.0
H1497 H 0.6393 0.01203 0.04992 0.0
C1498 C 0.68494 0.04632 0.07003 0.0
C1499 C 0.7075 0.06323 0.08411 0.0
C1500 C 0.66142 0.04105 0.08086 0.0
C1501 C 0.70653 0.07735 0.10708 0.0
C1502 C 0.68312 0.07277 0.11755 0.0
C1503 C 0.63703 0.04583 0.11859 0.0
C1504 C 0.61476 0.0246 0.10833 0.0
C1505 C 0.66045 0.05375 0.10541 0.0
C1506 C 0.61578 0.01349 0.08265 0.0
C1507 C 0.63889 0.0218 0.06891 0.0
H1508 H 0.9155 0.61899 0.07249 0.0
H1509 H 0.95139 0.68247 0.12983 0.0
H1510 H 0.97685 0.6654 0.14972 0.0
H1511 H 0.98775 0.63173 0.15191 0.0
H1512 H 0.95325 0.56868 0.09403 0.0
H1513 H 0.92841 0.58626 0.07286 0.0
C1514 C 0.92891 0.62897 0.08935 0.0
C1515 C 0.93153 0.65182 0.09986 0.0
C1516 C 0.94363 0.61913 0.10047 0.0
C1517 C 0.94922 0.66494 0.12135 0.0
C1518 C 0.96366 0.65513 0.13279 0.0
C1519 C 0.97472 0.62186 0.13471 0.0
C1520 C 0.97191 0.59882 0.12473 0.0
C1521 C 0.96083 0.63216 0.12269 0.0
C1522 C 0.95555 0.58644 0.10197 0.0
C1523 C 0.94135 0.59643 0.09002 0.0
H1524 H 0.29684 0.32834 0.47547 0.0
H1525 H 0.26593 0.35689 0.41299 0.0
H1526 H 0.30828 0.38267 0.39197 0.0
H1527 H 0.35465 0.3993 0.39393 0.0
H1528 H 0.38481 0.37058 0.45734 0.0
H1529 H 0.34219 0.34256 0.47548 0.0
C1530 C 0.2994 0.34017 0.4572 0.0
C1531 C 0.27847 0.34107 0.446 0.0
C1532 C 0.32366 0.35495 0.44555 0.0
C1533 C 0.28182 0.35593 0.4219 0.0
C1534 C 0.30602 0.37077 0.41007 0.0
C1535 C 0.35182 0.38687 0.41168 0.0
C1536 C 0.37292 0.38715 0.42436 0.0
C1537 C 0.32717 0.37083 0.42212 0.0
C1538 C 0.36895 0.3706 0.44703 0.0
C1539 C 0.34458 0.35468 0.45754 0.0
H1540 H 0.61932 0.91351 0.44656 0.0
H1541 H 0.68619 0.97121 0.40419 0.0
H1542 H 0.66612 0.99726 0.39823 0.0
H1543 H 0.62781 0.00176 0.40173 0.0
H1544 H 0.56093 0.94276 0.44284 0.0
H1545 H 0.5826 0.91897 0.45254 0.0
C1546 C 0.62948 0.93173 0.43592 0.0
C1547 C 0.65403 0.94023 0.42546 0.0
C1548 C 0.61773 0.94631 0.43226 0.0
C1549 C 0.66726 0.96425 0.41245 0.0
C1550 C 0.65573 0.97908 0.40891 0.0
C1551 C 0.61826 0.98391 0.41318 0.0
C1552 C 0.59277 0.97383 0.4213 0.0
C1553 C 0.63077 0.97008 0.4183 0.0
C1554 C 0.58042 0.95062 0.43601 0.0
C1555 C 0.59279 0.93705 0.4416 0.0
H1556 H 0.05779 0.63088 0.41378 0.0
H1557 H 0.98499 0.6194 0.44064 0.0
H1558 H 0.00474 0.66414 0.45399 0.0
H1559 H 0.04353 0.70592 0.46176 0.0
H1560 H 0.11627 0.71572 0.43832 0.0
H1561 H 0.09584 0.67219 0.42028 0.0
C1562 C 0.04616 0.63797 0.42274 0.0
C1563 C 0.01991 0.62149 0.42646 0.0
C1564 C 0.05774 0.6635 0.43117 0.0
C1565 C 0.00518 0.63148 0.43734 0.0
C1566 C 0.01651 0.65711 0.4452 0.0
C1567 C 0.05473 0.6985 0.45232 0.0
C1568 C 0.0813 0.71382 0.45141 0.0
C1569 C 0.04285 0.67319 0.44268 0.0
C1570 C 0.0958 0.70409 0.43944 0.0
C1571 C 0.08413 0.67927 0.42912 0.0
H1572 H 0.59181 0.64382 0.9197 0.0
H1573 H 0.64412 0.6196 0.89243 0.0
H1574 H 0.67925 0.66304 0.89615 0.0
H1575 H 0.69547 0.70746 0.90875 0.0
H1576 H 0.64418 0.73265 0.93614 0.0
H1577 H 0.60806 0.68941 0.92975 0.0
C1578 C 0.61083 0.64807 0.91425 0.0
C1579 C 0.61527 0.62826 0.90621 0.0
C1580 C 0.63107 0.67328 0.91628 0.0
C1581 C 0.64014 0.63422 0.89936 0.0
C1582 C 0.66026 0.65914 0.90125 0.0
C1583 C 0.67638 0.70348 0.91336 0.0
C1584 C 0.67249 0.72309 0.92328 0.0
C1585 C 0.65599 0.6787 0.91004 0.0
C1586 C 0.64761 0.71786 0.92843 0.0
C1587 C 0.62703 0.69312 0.92498 0.0
H1588 H 0.28291 0.91224 0.93395 0.0
H1589 H 0.30754 0.96817 1.00036 0.0
H1590 H 0.35085 0.98901 0.98214 0.0
H1591 H 0.38146 0.99219 0.94652 0.0
H1592 H 0.35745 0.93553 0.8808 0.0
H1593 H 0.31429 0.91433 0.89936 0.0
C1594 C 0.2978 0.92902 0.9443 0.0
C1595 C 0.29205 0.93861 0.96845 0.0
C1596 C 0.32279 0.94084 0.93381 0.0
C1597 C 0.31155 0.96023 0.98192 0.0
C1598 C 0.33631 0.97223 0.97145 0.0
C1599 C 0.36697 0.975 0.93647 0.0
C1600 C 0.37283 0.96569 0.9121 0.0
C1601 C 0.34216 0.96274 0.94738 0.0
C1602 C 0.35351 0.94347 0.89927 0.0
C1603 C 0.32877 0.93123 0.90993 0.0
H1604 H 0.02944 0.3359 0.98366 0.0
H1605 H 0.08688 0.36165 0.91894 0.0
H1606 H 0.0698 0.3866 0.89713 0.0
H1607 H 0.0392 0.40206 0.89759 0.0
H1608 H 0.98164 0.37566 0.96232 0.0
H1609 H 0.99799 0.34987 0.98303 0.0
C1610 C 0.0383 0.3471 0.96488 0.0
C1611 C 0.05958 0.34723 0.95309 0.0
C1612 C 0.0283 0.36119 0.95248 0.0
C1613 C 0.07047 0.36127 0.92833 0.0
C1614 C 0.06077 0.37558 0.91596 0.0
C1615 C 0.03031 0.39067 0.91624 0.0
C1616 C 0.00929 0.39084 0.92845 0.0
C1617 C 0.03982 0.37586 0.92802 0.0
C1618 C 0.99765 0.37567 0.95235 0.0
C1619 C 0.0071 0.36105 0.96431 0.0
H1620 H 0.64581 0.60011 0.64421 0.0
H1621 H 0.60818 0.62055 0.58065 0.0
H1622 H 0.64841 0.64609 0.55632 0.0
H1623 H 0.6945 0.66433 0.55427 0.0
H1624 H 0.73255 0.64545 0.61862 0.0
H1625 H 0.69191 0.61832 0.64217 0.0
C1626 C 0.64631 0.61027 0.6252 0.0
C1627 C 0.62379 0.60838 0.61453 0.0
C1628 C 0.66966 0.62551 0.61166 0.0
C1629 C 0.62496 0.6213 0.58936 0.0
C1630 C 0.64807 0.63615 0.57551 0.0
C1631 C 0.6939 0.65407 0.57328 0.0
C1632 C 0.71652 0.65683 0.58464 0.0
C1633 C 0.67054 0.63859 0.58663 0.0
C1634 C 0.71545 0.64383 0.60963 0.0
C1635 C 0.69221 0.62821 0.62296 0.0
H1636 H 0.39737 0.04115 0.65475 0.0
H1637 H 0.38878 0.99444 0.58219 0.0
H1638 H 0.3652 0.01128 0.55765 0.0
H1639 H 0.34848 0.04032 0.55594 0.0
H1640 H 0.35786 0.0883 0.62735 0.0
H1641 H 0.37962 0.06982 0.65335 0.0
C1642 C 0.39044 0.03474 0.63353 0.0
C1643 C 0.39496 0.01658 0.62035 0.0
C1644 C 0.3771 0.04476 0.61934 0.0
C1645 C 0.38538 0.00813 0.59303 0.0
C1646 C 0.37203 0.01791 0.57886 0.0
C1647 C 0.35547 0.04694 0.57709 0.0
C1648 C 0.3519 0.06593 0.58955 0.0
C1649 C 0.36804 0.0364 0.59168 0.0
C1650 C 0.36037 0.07369 0.61733 0.0
C1651 C 0.3729 0.06322 0.63211 0.0
H1652 H 0.97817 0.35451 0.65299 0.0
H1653 H 0.96327 0.39269 0.58512 0.0
H1654 H 0.93736 0.35192 0.56122 0.0
H1655 H 0.919 0.30561 0.55988 0.0
H1656 H 0.93527 0.26792 0.62736 0.0
H1657 H 0.9597 0.30832 0.65177 0.0
C1658 C 0.96904 0.35394 0.63313 0.0
C1659 C 0.97259 0.37664 0.62091 0.0
C1660 C 0.95418 0.3305 0.61962 0.0
C1661 C 0.96105 0.37555 0.59483 0.0
C1662 C 0.9461 0.35223 0.58128 0.0
C1663 C 0.928 0.30614 0.5798 0.0
C1664 C 0.92525 0.28354 0.59155 0.0
C1665 C 0.94259 0.3296 0.59348 0.0
C1666 C 0.93667 0.28476 0.6178 0.0
C1667 C 0.95091 0.30797 0.63172 0.0
H1668 H 0.97231 0.71002 0.81149 0.0
H1669 H 0.94136 0.65656 0.74266 0.0
H1670 H 0.98386 0.67263 0.72322 0.0
H1671 H 0.02945 0.70319 0.72459 0.0
H1672 H 0.06102 0.75664 0.79324 0.0
H1673 H 0.01865 0.73919 0.81428 0.0
C1674 C 0.97497 0.70195 0.79225 0.0
C1675 C 0.95379 0.68226 0.77842 0.0
C1676 C 0.99948 0.71129 0.78124 0.0
C1677 C 0.9574 0.67158 0.75378 0.0
C1678 C 0.98166 0.68086 0.74259 0.0
C1679 C 0.02699 0.71102 0.74413 0.0
C1680 C 0.04812 0.73136 0.7572 0.0
C1681 C 0.00275 0.7009 0.75595 0.0
C1682 C 0.04493 0.74096 0.78288 0.0
C1683 C 0.02075 0.73108 0.79478 0.0
H1684 H 0.33904 0.31197 0.80198 0.0
H1685 H 0.30888 0.24802 0.74512 0.0
H1686 H 0.28193 0.26254 0.72288 0.0
H1687 H 0.26508 0.29208 0.722 0.0
H1688 H 0.29496 0.35515 0.7803 0.0
H1689 H 0.32398 0.34238 0.79957 0.0
C1690 C 0.32653 0.30118 0.78475 0.0
C1691 C 0.32562 0.27876 0.77546 0.0
C1692 C 0.31104 0.30948 0.77241 0.0
C1693 C 0.30989 0.26535 0.75259 0.0
C1694 C 0.29439 0.27356 0.74004 0.0
C1695 C 0.27795 0.30299 0.73892 0.0
C1696 C 0.27774 0.32449 0.74974 0.0
C1697 C 0.29448 0.29536 0.75016 0.0
C1698 C 0.29486 0.33872 0.77133 0.0
C1699 C 0.31136 0.33132 0.78253 0.0
H1700 H 0.7262 0.05244 0.74845 0.0
H1701 H 0.74605 0.02228 0.82043 0.0
H1702 H 0.7309 0.98189 0.79609 0.0
H1703 H 0.71056 0.95438 0.75482 0.0
H1704 H 0.69165 0.9849 0.68255 0.0
H1705 H 0.70822 0.02583 0.70623 0.0
C1706 C 0.72761 0.03722 0.75866 0.0
C1707 C 0.73698 0.04042 0.78643 0.0
C1708 C 0.71895 0.01396 0.74446 0.0
C1709 C 0.73843 0.02027 0.79933 0.0
C1710 C 0.72986 0.99713 0.78537 0.0
C1711 C 0.71011 0.97003 0.74433 0.0
C1712 C 0.69992 0.96657 0.71699 0.0
C1713 C 0.71973 0.99361 0.75809 0.0
C1714 C 0.69968 0.98711 0.70346 0.0
C1715 C 0.70903 0.01052 0.71706 0.0
H1716 H 0.29151 0.02456 0.30999 0.0
H1717 H 0.34526 0.05919 0.24191 0.0
H1718 H 0.3283 0.01794 0.21881 0.0
H1719 H 0.29711 0.97236 0.217 0.0
H1720 H 0.24295 0.9375 0.2846 0.0
H1721 H 0.26108 0.97851 0.30893 0.0
C1722 C 0.29947 0.02302 0.2901 0.0
C1723 C 0.31958 0.04491 0.2777 0.0
C1724 C 0.28946 0.99926 0.27681 0.0
C1725 C 0.33002 0.04263 0.25213 0.0
C1726 C 0.32017 0.01907 0.23876 0.0
C1727 C 0.28916 0.97379 0.23695 0.0
C1728 C 0.26854 0.95203 0.24886 0.0
C1729 C 0.29971 0.99734 0.25075 0.0
C1730 C 0.25886 0.954 0.27509 0.0
C1731 C 0.26916 0.97743 0.28892 0.0
H1732 H 0.01856 0.31396 0.21326 0.0
H1733 H 0.05699 0.30757 0.28669 0.0
H1734 H 0.01659 0.28535 0.31208 0.0
H1735 H 0.97026 0.26741 0.31308 0.0
H1736 H 0.93208 0.2732 0.23903 0.0
H1737 H 0.97251 0.29601 0.21417 0.0
C1738 C 0.0181 0.30747 0.2347 0.0
C1739 C 0.04076 0.31227 0.24798 0.0
C1740 C 0.99486 0.29469 0.24907 0.0
C1741 C 0.03986 0.30427 0.27605 0.0
C1742 C 0.01676 0.29147 0.29052 0.0
C1743 C 0.97079 0.27351 0.29144 0.0
C1744 C 0.94814 0.2686 0.278 0.0
C1745 C 0.99413 0.28651 0.27719 0.0
C1746 C 0.94919 0.27701 0.25007 0.0
C1747 C 0.97231 0.28991 0.23575 0.0
H1748 H 0.75452 0.70149 0.25364 0.0
H1749 H 0.69224 0.67376 0.31268 0.0
H1750 H 0.67659 0.69909 0.2897 0.0
H1751 H 0.67977 0.72807 0.25221 0.0
H1752 H 0.74147 0.75594 0.19247 0.0
H1753 H 0.75807 0.73141 0.21611 0.0
C1754 C 0.73746 0.70092 0.26129 0.0
C1755 C 0.72467 0.68589 0.28491 0.0
C1756 C 0.72847 0.71554 0.24789 0.0
C1757 C 0.70269 0.68549 0.29483 0.0
C1758 C 0.69363 0.69988 0.28162 0.0
C1759 C 0.6971 0.72918 0.24465 0.0
C1760 C 0.70944 0.7439 0.22072 0.0
C1761 C 0.70637 0.71497 0.25818 0.0
C1762 C 0.73156 0.74461 0.21079 0.0
C1763 C 0.74105 0.73062 0.22429 0.0
H1764 H 0.32087 0.1543 0.12486 0.0
H1765 H 0.31466 0.21404 0.16664 0.0
H1766 H 0.32827 0.20445 0.21111 0.0
H1767 H 0.34193 0.17896 0.23868 0.0
H1768 H 0.348 0.11907 0.19706 0.0
H1769 H 0.3342 0.12851 0.15259 0.0
C1770 C 0.32282 0.16537 0.14363 0.0
C1771 C 0.31686 0.1849 0.14234 0.0
C1772 C 0.33028 0.15948 0.16947 0.0
C1773 C 0.3191 0.19885 0.16701 0.0
C1774 C 0.3268 0.19334 0.19256 0.0
C1775 C 0.33986 0.16777 0.21997 0.0
C1776 C 0.3459 0.14831 0.22128 0.0
C1777 C 0.33224 0.17354 0.19417 0.0
C1778 C 0.34348 0.13421 0.19668 0.0
C1779 C 0.33568 0.13965 0.17113 0.0
H1780 H 0.83302 0.15908 0.13332 0.0
H1781 H 0.77796 0.09347 0.17993 0.0
H1782 H 0.78806 0.11887 0.22302 0.0
H1783 H 0.81334 0.15988 0.24804 0.0
H1784 H 0.86881 0.22511 0.20109 0.0
H1785 H 0.8581 0.19982 0.15811 0.0
C1786 C 0.82295 0.15048 0.1528 0.0
C1787 C 0.80462 0.12449 0.15331 0.0
C1788 C 0.82927 0.16508 0.17775 0.0
C1789 C 0.7921 0.1135 0.17891 0.0
C1790 C 0.79797 0.12798 0.20365 0.0
C1791 C 0.82326 0.16841 0.22847 0.0
C1792 C 0.84191 0.19434 0.22791 0.0
C1793 C 0.81678 0.15375 0.20348 0.0
C1794 C 0.85434 0.20519 0.20221 0.0
C1795 C 0.84817 0.19077 0.17749 0.0
H1796 H 0.78102 0.6447 0.19821 0.0
H1797 H 0.83803 0.6868 0.26138 0.0
H1798 H 0.86919 0.70957 0.22392 0.0
H1799 H 0.88055 0.71608 0.17335 0.0
H1800 H 0.8235 0.67316 0.1105 0.0
H1801 H 0.79195 0.65214 0.1479 0.0
C1802 C 0.80023 0.65895 0.20395 0.0
C1803 C 0.80714 0.66393 0.23275 0.0
C1804 C 0.81803 0.67173 0.18232 0.0
C1805 C 0.83213 0.68255 0.23952 0.0
C1806 C 0.84996 0.69552 0.21806 0.0
C1807 C 0.86118 0.70223 0.16772 0.0
C1808 C 0.85448 0.6962 0.13898 0.0
C1809 C 0.84318 0.69006 0.1894 0.0
C1810 C 0.82925 0.67821 0.13229 0.0
C1811 C 0.8112 0.66615 0.15372 0.0
H1812 H 0.16925 0.28992 0.36163 0.0
H1813 H 0.16353 0.33966 0.42263 0.0
H1814 H 0.15365 0.3607 0.38466 0.0
H1815 H 0.14643 0.36478 0.33449 0.0
H1816 H 0.15243 0.31545 0.27316 0.0
H1817 H 0.16232 0.29427 0.31112 0.0
C1818 C 0.1659 0.3054 0.3667 0.0
C1819 C 0.16716 0.31319 0.39507 0.0
C1820 C 0.16018 0.31737 0.34474 0.0
C1821 C 0.16276 0.3333 0.40109 0.0
C1822 C 0.15705 0.34529 0.37936 0.0
C1823 C 0.14981 0.34934 0.32929 0.0
C1824 C 0.14858 0.34167 0.30089 0.0
C1825 C 0.15564 0.33743 0.35116 0.0
C1826 C 0.15318 0.32171 0.29475 0.0
C1827 C 0.15887 0.30963 0.31647 0.0
H1828 H 0.68821 0.83837 0.37434 0.0
H1829 H 0.72138 0.91074 0.33136 0.0
H1830 H 0.70948 0.88943 0.28585 0.0
H1831 H 0.68857 0.84998 0.25752 0.0
H1832 H 0.65538 0.77767 0.30057 0.0
H1833 H 0.66845 0.79903 0.346 0.0
C1834 C 0.69283 0.84944 0.35503 0.0
C1835 C 0.70563 0.87614 0.35652 0.0
C1836 C 0.68596 0.83704 0.32857 0.0
C1837 C 0.71152 0.89015 0.3311 0.0
C1838 C 0.70474 0.87798 0.30487 0.0
C1839 C 0.68447 0.83896 0.27682 0.0
C1840 C 0.67091 0.81226 0.27546 0.0
C1841 C 0.69187 0.8514 0.30325 0.0
C1842 C 0.66563 0.79828 0.30083 0.0
C1843 C 0.67308 0.81046 0.32698 0.0
H1844 H 0.11963 0.81677 0.36877 0.0
H1845 H 0.18125 0.83699 0.42735 0.0
H1846 H 0.21092 0.84872 0.38772 0.0
H1847 H 0.2192 0.8526 0.33672 0.0
H1848 H 0.15773 0.83229 0.27792 0.0
H1849 H 0.12809 0.82135 0.31758 0.0
C1850 C 0.13956 0.82374 0.37298 0.0
C1851 C 0.14815 0.82589 0.40115 0.0
C1852 C 0.1565 0.83047 0.35007 0.0
C1853 C 0.17407 0.83507 0.40601 0.0
C1854 C 0.19104 0.84179 0.38332 0.0
C1855 C 0.19932 0.84586 0.33243 0.0
C1856 C 0.19073 0.84325 0.30422 0.0
C1857 C 0.18244 0.83949 0.3553 0.0
C1858 C 0.1649 0.83453 0.2993 0.0
C1859 C 0.14795 0.82821 0.322 0.0
H1860 H 0.64745 0.85296 0.80555 0.0
H1861 H 0.69337 0.84579 0.74072 0.0
H1862 H 0.71276 0.83142 0.7762 0.0
H1863 H 0.71731 0.82185 0.82573 0.0
H1864 H 0.67159 0.82952 0.89046 0.0
H1865 H 0.65121 0.84242 0.85473 0.0
C1866 C 0.66173 0.84831 0.79907 0.0
C1867 C 0.66904 0.85065 0.7704 0.0
C1868 C 0.6727 0.83998 0.81956 0.0
C1869 C 0.68746 0.84433 0.76256 0.0
C1870 C 0.69851 0.83604 0.78286 0.0
C1871 C 0.70271 0.8261 0.83208 0.0
C1872 C 0.696 0.82465 0.86088 0.0
C1873 C 0.69132 0.83386 0.81144 0.0
C1874 C 0.67711 0.83037 0.86855 0.0
C1875 C 0.66553 0.83787 0.84811 0.0
H1876 H 0.15862 0.82978 0.91589 0.0
H1877 H 0.2175 0.89731 0.87542 0.0
H1878 H 0.20904 0.87486 0.83057 0.0
H1879 H 0.18427 0.83612 0.80192 0.0
H1880 H 0.12598 0.76824 0.84228 0.0
H1881 H 0.13447 0.79058 0.88738 0.0
C1882 C 0.16985 0.83939 0.89737 0.0
C1883 C 0.18872 0.8652 0.89916 0.0
C1884 C 0.16465 0.82639 0.87123 0.0
C1885 C 0.20283 0.87745 0.87473 0.0
C1886 C 0.19793 0.86467 0.84892 0.0
C1887 C 0.17323 0.82639 0.82052 0.0
C1888 C 0.15434 0.80064 0.81861 0.0
C1889 C 0.17864 0.83923 0.84673 0.0
C1890 C 0.14058 0.78812 0.8431 0.0
C1891 C 0.1455 0.80085 0.86901 0.0
H1892 H 0.21365 0.36935 0.8371 0.0
H1893 H 0.15681 0.32609 0.77416 0.0
H1894 H 0.12495 0.30576 0.81137 0.0
H1895 H 0.1134 0.30006 0.8615 0.0
H1896 H 0.17013 0.34285 0.92469 0.0
H1897 H 0.20195 0.36382 0.88744 0.0
C1898 C 0.1943 0.35545 0.83144 0.0
C1899 C 0.18766 0.34921 0.80278 0.0
C1900 C 0.17609 0.34387 0.85295 0.0
C1901 C 0.16247 0.3312 0.79596 0.0
C1902 C 0.14424 0.31961 0.81725 0.0
C1903 C 0.13269 0.31405 0.86725 0.0
C1904 C 0.13934 0.31988 0.89595 0.0
C1905 C 0.15086 0.3258 0.84578 0.0
C1906 C 0.16446 0.33804 0.90284 0.0
C1907 C 0.18267 0.34997 0.88153 0.0
H1908 H 0.84182 0.63302 0.69689 0.0
H1909 H 0.83282 0.67954 0.75955 0.0
H1910 H 0.82435 0.70213 0.72195 0.0
H1911 H 0.82024 0.70902 0.6714 0.0
H1912 H 0.82946 0.66253 0.60888 0.0
H1913 H 0.83708 0.63944 0.64653 0.0
C1914 C 0.83799 0.64809 0.70247 0.0
C1915 C 0.83804 0.65459 0.73117 0.0
C1916 C 0.83319 0.66096 0.68076 0.0
C1917 C 0.83293 0.67413 0.73777 0.0
C1918 C 0.8281 0.68705 0.71624 0.0
C1919 C 0.82386 0.6938 0.66589 0.0
C1920 C 0.8243 0.68758 0.63718 0.0
C1921 C 0.82829 0.68068 0.68767 0.0
C1922 C 0.82898 0.66774 0.63066 0.0
C1923 C 0.83337 0.65456 0.65222 0.0
H1924 H 0.37244 0.21813 0.69487 0.0
H1925 H 0.32248 0.16388 0.7568 0.0
H1926 H 0.30002 0.13298 0.71907 0.0
H1927 H 0.29517 0.12127 0.66871 0.0
H1928 H 0.34539 0.17564 0.60701 0.0
H1929 H 0.36726 0.20669 0.64465 0.0
C1930 C 0.35659 0.19958 0.70025 0.0
C1931 C 0.34919 0.19336 0.72878 0.0
C1932 C 0.3439 0.18194 0.67849 0.0
C1933 C 0.32858 0.16921 0.73513 0.0
C1934 C 0.31577 0.15153 0.71354 0.0
C1935 C 0.31089 0.13992 0.66339 0.0
C1936 C 0.31865 0.14605 0.63493 0.0
C1937 C 0.32337 0.15766 0.68517 0.0
C1938 C 0.33903 0.17035 0.62861 0.0
C1939 C 0.35153 0.18812 0.65016 0.0
H1940 H 0.87386 0.1748 0.67485 0.0
H1941 H 0.81551 0.16558 0.61619 0.0
H1942 H 0.78589 0.15578 0.65555 0.0
H1943 H 0.77649 0.1496 0.70638 0.0
H1944 H 0.83468 0.15874 0.76522 0.0
H1945 H 0.86448 0.16883 0.72589 0.0
C1946 C 0.85466 0.17067 0.67056 0.0
C1947 C 0.84698 0.17095 0.6424 0.0
C1948 C 0.83772 0.16503 0.69335 0.0
C1949 C 0.822 0.16555 0.63749 0.0
C1950 C 0.80505 0.15992 0.66004 0.0
C1951 C 0.7957 0.1538 0.71075 0.0
C1952 C 0.80327 0.15336 0.73892 0.0
C1953 C 0.81268 0.15957 0.68803 0.0
C1954 C 0.82828 0.1589 0.7439 0.0
C1955 C 0.84532 0.16467 0.72137 0.0
H1956 H 0.9869 0.49412 0.58286 0.0
H1957 H 0.03352 0.47179 0.53618 0.0
H1958 H 0.0176 0.47838 0.49177 0.0
H1959 H 0.9915 0.49202 0.46546 0.0
H1960 H 0.9449 0.51442 0.51206 0.0
H1961 H 0.95959 0.50628 0.5565 0.0
C1962 C 0.99342 0.49053 0.56299 0.0
C1963 C 0.01151 0.4826 0.56308 0.0
C1964 C 0.98424 0.49449 0.53717 0.0
C1965 C 0.01973 0.47808 0.53697 0.0
C1966 C 0.01063 0.48183 0.51139 0.0
C1967 C 0.98446 0.49496 0.48532 0.0
C1968 C 0.96718 0.50392 0.48519 0.0
C1969 C 0.99306 0.49029 0.51114 0.0
C1970 C 0.95829 0.50762 0.51129 0.0
C1971 C 0.96668 0.50297 0.5369 0.0
H1972 H 0.51407 0.55011 0.53646 0.0
H1973 H 0.50314 0.49373 0.59907 0.0
H1974 H 0.49191 0.46196 0.56172 0.0
H1975 H 0.48511 0.45031 0.51151 0.0
H1976 H 0.49616 0.50674 0.4489 0.0
H1977 H 0.50743 0.5385 0.48625 0.0
C1978 C 0.50925 0.53088 0.54204 0.0
C1979 C 0.50945 0.52432 0.57063 0.0
C1980 C 0.50281 0.51277 0.52048 0.0
C1981 C 0.50317 0.49931 0.57732 0.0
C1982 C 0.49673 0.48114 0.55595 0.0
C1983 C 0.48995 0.46954 0.50593 0.0
C1984 C 0.48975 0.4761 0.47735 0.0
C1985 C 0.49645 0.48767 0.52749 0.0
C1986 C 0.49614 0.50115 0.47065 0.0
C1987 C 0.50259 0.51931 0.49202 0.0
H1988 H 0.54685 0.03386 0.50853 0.0
H1989 H 0.48663 0.9946 0.44775 0.0
H1990 H 0.45614 0.97433 0.48631 0.0
H1991 H 0.44683 0.96771 0.53707 0.0
H1992 H 0.5072 0.00692 0.59771 0.0
H1993 H 0.53755 0.02739 0.55916 0.0
C1994 C 0.52705 0.02088 0.50362 0.0
C1995 C 0.51902 0.01573 0.47525 0.0
C1996 C 0.50973 0.00933 0.52582 0.0
C1997 C 0.4933 0.99888 0.46936 0.0
C1998 C 0.47589 0.9873 0.4914 0.0
C1999 C 0.46663 0.98075 0.54193 0.0
C2000 C 0.47474 0.98577 0.57028 0.0
C2001 C 0.48392 0.99238 0.51969 0.0
C2002 C 0.50045 0.00272 0.57612 0.0
C2003 C 0.5178 0.01441 0.55408 0.0
H2004 H 0.50692 0.95906 0.03491 0.0
H2005 H 0.49398 0.00453 0.09544 0.0
H2006 H 0.48284 0.02415 0.05697 0.0
H2007 H 0.4772 0.02857 1.00624 0.0
H2008 H 0.49064 0.98333 0.94585 0.0
H2009 H 0.50114 0.96334 0.98437 0.0
C2010 C 0.50162 0.97324 0.0398 0.0
C2011 C 0.5013 0.98032 0.06809 0.0
C2012 C 0.49535 0.98445 0.01761 0.0
C2013 C 0.49442 0.99875 0.0739 0.0
C2014 C 0.48805 0.00996 0.0519 0.0
C2015 C 0.48237 0.01429 1.00143 0.0
C2016 C 0.4831 0.00745 0.97312 0.0
C2017 C 0.4885 0.00298 0.02368 0.0
C2018 C 0.4899 0.98895 0.96739 0.0
C2019 C 0.49592 0.97752 0.98942 0.0
H2020 H 0.9572 0.44574 1.01066 0.0
H2021 H 0.99694 0.50534 0.94911 0.0
H2022 H 0.01597 0.53651 0.98728 0.0
H2023 H 0.02158 0.54666 0.03779 0.0
H2024 H 0.98218 0.48724 0.0996 0.0
H2025 H 0.96253 0.45604 0.06142 0.0
C2026 C 0.97003 0.46555 1.00549 0.0
C2027 C 0.97566 0.47315 0.97691 0.0
C2028 C 0.98087 0.48333 0.02756 0.0
C2029 C 0.99229 0.49893 0.97079 0.0
C2030 C 0.00316 0.51675 0.99264 0.0
C2031 C 0.00865 0.52689 0.04307 0.0
C2032 C 0.00339 0.51933 0.07168 0.0
C2033 C 0.9976 0.50914 0.02106 0.0
C2034 C 0.98654 0.49362 0.07788 0.0
C2035 C 0.97537 0.47579 0.05603 0.0
H2036 H 0.44836 0.49106 0.03834 0.0
H2037 H 0.50475 0.50279 0.10103 0.0
H2038 H 0.53644 0.51385 0.0637 0.0
H2039 H 0.54817 0.52089 1.01351 0.0
H2040 H 0.49163 0.50877 0.95084 0.0
H2041 H 0.45985 0.49726 0.98813 0.0
C2042 C 0.46756 0.49596 0.04391 0.0
C2043 C 0.47419 0.49614 0.0725 0.0
C2044 C 0.48563 0.50236 0.02239 0.0
C2045 C 0.49913 0.50243 0.07924 0.0
C2046 C 0.51726 0.50885 0.0579 0.0
C2047 C 0.52892 0.51582 1.00794 0.0
C2048 C 0.52232 0.51585 0.97938 0.0
C2049 C 0.51075 0.50904 0.02945 0.0
C2050 C 0.49723 0.50898 0.97261 0.0
C2051 C 0.47906 0.50237 0.99393 0.0
H2052 H 0.22406 0.0726 0.08491 0.0
H2053 H 0.24573 0.10665 1.00225 0.0
H2054 H 0.23368 0.06518 0.98163 0.0
H2055 H 0.2174 0.01955 0.98722 0.0
H2056 H 0.19871 0.98586 0.0705 0.0
H2057 H 0.20831 0.02671 0.09061 0.0
C2058 C 0.22591 0.07083 0.06237 0.0
C2059 C 0.23573 0.0926 0.04508 0.0
C2060 C 0.21932 0.047 0.05077 0.0
C2061 C 0.23843 0.09018 1.01596 0.0
C2062 C 0.23144 0.06648 1.00419 0.0
C2063 C 0.21571 0.02108 1.00984 0.0
C2064 C 0.20742 0.99947 0.02724 0.0
C2065 C 0.22204 0.04481 0.02143 0.0
C2066 C 0.2047 0.00193 0.05642 0.0
C2067 C 0.21042 0.02539 0.06803 0.0
H2068 H 0.93136 0.15652 0.09029 0.0
H2069 H 0.88895 0.14025 1.01232 0.0
H2070 H 0.92815 0.16493 0.98617 0.0
H2071 H 0.97453 0.19199 0.98532 0.0
H2072 H 0.01694 0.2071 0.06288 0.0
H2073 H 0.97762 0.1811 0.08912 0.0
C2074 C 0.9305 0.15795 0.06757 0.0
C2075 C 0.9069 0.14655 0.05359 0.0
C2076 C 0.95321 0.17181 0.05245 0.0
C2077 C 0.90656 0.1491 0.02401 0.0
C2078 C 0.92908 0.1631 1.00887 0.0
C2079 C 0.97511 0.18948 1.00796 0.0
C2080 C 0.9985 0.20148 0.0222 0.0
C2081 C 0.95248 0.17469 0.0229 0.0
C2082 C 0.99913 0.19784 0.05144 0.0
C2083 C 0.97666 0.18317 0.06647 0.0
H2084 H 0.81543 0.79464 0.9642 0.0
H2085 H 0.83597 0.85531 0.02427 0.0
H2086 H 0.86263 0.84229 0.0497 0.0
H2087 H 0.87824 0.81226 0.0561 0.0
H2088 H 0.85808 0.75225 0.99515 0.0
H2089 H 0.8331 0.76649 0.96883 0.0
C2090 C 0.82618 0.80541 0.98248 0.0
C2091 C 0.82375 0.82596 0.99226 0.0
C2092 C 0.84128 0.79775 0.99704 0.0
C2093 C 0.83735 0.83929 0.01641 0.0
C2094 C 0.85261 0.83188 0.03094 0.0
C2095 C 0.86868 0.80249 0.03687 0.0
C2096 C 0.86988 0.78101 0.02787 0.0
C2097 C 0.85442 0.81089 0.02166 0.0
C2098 C 0.85709 0.76846 1.003 0.0
C2099 C 0.84294 0.77672 0.98776 0.0
H2100 H 0.00577 0.24796 0.51589 0.0
H2101 H 0.96806 0.17116 0.48354 0.0
H2102 H 0.00791 0.17819 0.46343 0.0
H2103 H 0.05389 0.20493 0.45792 0.0
H2104 H 0.09221 0.28052 0.49368 0.0
H2105 H 0.05174 0.27519 0.50913 0.0
C2106 C 0.00624 0.2327 0.50453 0.0
C2107 C 0.98384 0.20902 0.50142 0.0
C2108 C 0.0294 0.23663 0.49357 0.0
C2109 C 0.98483 0.1897 0.48604 0.0
C2110 C 0.0077 0.19362 0.47469 0.0
C2111 C 0.05352 0.22027 0.46915 0.0
C2112 C 0.07635 0.24298 0.47479 0.0
C2113 C 0.03018 0.21685 0.47877 0.0
C2114 C 0.07516 0.26284 0.48875 0.0
C2115 C 0.05194 0.25975 0.49788 0.0
H2116 H 0.80578 0.80254 0.47331 0.0
H2117 H 0.78904 0.81507 0.55862 0.0
H2118 H 0.77746 0.84557 0.5414 0.0
H2119 H 0.7715 0.86863 0.50203 0.0
H2120 H 0.79213 0.85952 0.41767 0.0
H2121 H 0.80343 0.82831 0.43465 0.0
C2122 C 0.80005 0.81219 0.48831 0.0
C2123 C 0.79789 0.80589 0.51726 0.0
C2124 C 0.79416 0.83048 0.47841 0.0
C2125 C 0.79014 0.81867 0.53612 0.0
C2126 C 0.78372 0.83641 0.52634 0.0
C2127 C 0.77852 0.85977 0.4875 0.0
C2128 C 0.78089 0.86612 0.45871 0.0
C2129 C 0.78543 0.8423 0.49753 0.0
C2130 C 0.79031 0.85491 0.43997 0.0
C2131 C 0.79665 0.83704 0.44966 0.0
H2132 H 0.18994 0.00378 0.49935 0.0
H2133 H 0.24884 0.98632 0.51816 0.0
H2134 H 0.22104 0.94212 0.50381 0.0
H2135 H 0.17961 0.90828 0.48778 0.0
H2136 H 0.11954 0.92494 0.47198 0.0
H2137 H 0.14825 0.9696 0.48277 0.0
C2138 C 0.1967 0.9903 0.49989 0.0
C2139 C 0.22133 0.99816 0.50968 0.0
C2140 C 0.18039 0.96479 0.49226 0.0
C2141 C 0.22988 0.98056 0.51073 0.0
C2142 C 0.214 0.95534 0.50257 0.0
C2143 C 0.17261 0.92151 0.4869 0.0
C2144 C 0.14726 0.91296 0.47913 0.0
C2145 C 0.18909 0.94715 0.49373 0.0
C2146 C 0.13893 0.93079 0.47757 0.0
C2147 C 0.15533 0.95642 0.48391 0.0
H2148 H 0.82589 0.01407 0.98575 0.0
H2149 H 0.76771 0.97879 0.04956 0.0
H2150 H 0.75157 0.93759 0.02677 0.0
H2151 H 0.75228 0.91201 0.98721 0.0
H2152 H 0.8102 0.94717 0.92315 0.0
H2153 H 0.82763 0.988 0.94712 0.0
C2154 C 0.8097 0.99736 0.99466 0.0
C2155 C 0.79812 0.99955 0.01936 0.0
C2156 C 0.80019 0.97372 0.98119 0.0
C2157 C 0.77731 0.97762 0.03083 0.0
C2158 C 0.76787 0.95406 0.01767 0.0
C2159 C 0.76889 0.9285 0.97866 0.0
C2160 C 0.77969 0.92647 0.95325 0.0
C2161 C 0.77897 0.95194 0.99266 0.0
C2162 C 0.8011 0.94819 0.94234 0.0
C2163 C 0.81125 0.97157 0.95616 0.0
H2164 H 0.99736 0.80663 0.99278 0.0
H2165 H 0.02157 0.7595 0.03512 0.0
H2166 H 0.06501 0.78714 0.01851 0.0
H2167 H 0.09607 0.82499 0.993 0.0
H2168 H 0.07241 0.87376 0.95299 0.0
H2169 H 0.0288 0.84482 0.96705 0.0
C2170 C 0.01212 0.8023 0.99807 0.0
C2171 C 0.00629 0.78105 1.01511 0.0
C2172 C 0.03716 0.81852 0.98884 0.0
C2173 C 0.02565 0.77584 0.02217 0.0
C2174 C 0.05047 0.7916 1.01264 0.0
C2175 C 0.0816 0.82962 0.98746 0.0
C2176 C 0.08799 0.85189 0.97194 0.0
C2177 C 0.05649 0.81315 0.99621 0.0
C2178 C 0.06842 0.85684 0.96463 0.0
C2179 C 0.04332 0.84031 0.97284 0.0
H2180 H 0.19211 0.18697 0.99083 0.0
H2181 H 0.24268 0.26198 0.02358 0.0
H2182 H 0.215 0.2771 1.00543 0.0
H2183 H 0.1758 0.26862 0.9819 0.0
H2184 H 0.12388 0.19302 0.95129 0.0
H2185 H 0.15297 0.17872 0.9663 0.0
C2186 C 0.19716 0.20668 0.99363 0.0
C2187 C 0.21931 0.22334 1.00855 0.0
C2188 C 0.18093 0.21514 0.98354 0.0
C2189 C 0.22557 0.24878 1.01236 0.0
C2190 C 0.20979 0.25743 1.00196 0.0
C2191 C 0.17068 0.24897 0.97865 0.0
C2192 C 0.14751 0.23198 0.96557 0.0
C2193 C 0.18725 0.24069 0.98789 0.0
C2194 C 0.14162 0.20669 0.96101 0.0
C2195 C 0.1582 0.19839 0.96979 0.0
H2196 H 0.93849 0.78142 0.59384 0.0
H2197 H 0.90102 0.74677 0.5156 0.0
H2198 H 0.94082 0.75395 0.49542 0.0
H2199 H 0.98618 0.77128 0.49928 0.0
H2200 H 0.02396 0.80152 0.57904 0.0
H2201 H 0.9844 0.79559 0.59905 0.0
C2202 C 0.93921 0.77543 0.57245 0.0
C2203 C 0.91691 0.76365 0.55615 0.0
C2204 C 0.96223 0.77906 0.56117 0.0
C2205 C 0.91787 0.75571 0.52855 0.0
C2206 C 0.94066 0.75992 0.51697 0.0
C2207 C 0.98591 0.776 0.52129 0.0
C2208 C 0.00835 0.78684 0.53744 0.0
C2209 C 0.96295 0.77162 0.53305 0.0
C2210 C 0.00728 0.79357 0.56572 0.0
C2211 C 0.98454 0.78998 0.57734 0.0
H2212 H 0.20337 0.13729 0.57463 0.0
H2213 H 0.27712 0.17822 0.53498 0.0
H2214 H 0.26819 0.21108 0.51965 0.0
H2215 H 0.23845 0.22677 0.51423 0.0
H2216 H 0.16372 0.18497 0.55117 0.0
H2217 H 0.17407 0.154 0.57083 0.0
C2218 C 0.2175 0.15336 0.56263 0.0
C2219 C 0.24083 0.15499 0.55591 0.0
C2220 C 0.21203 0.17204 0.55321 0.0
C2221 C 0.2591 0.17636 0.54083 0.0
C2222 C 0.25393 0.19516 0.53176 0.0
C2223 C 0.22438 0.21084 0.52652 0.0
C2224 C 0.20025 0.20803 0.53093 0.0
C2225 C 0.2303 0.19293 0.53732 0.0
C2226 C 0.18248 0.18764 0.54753 0.0
C2227 C 0.18833 0.16984 0.55863 0.0
H2228 H 0.79963 0.99353 0.53265 0.0
H2229 H 0.75762 0.02042 0.48414 0.0
H2230 H 0.78162 0.06218 0.50611 0.0
H2231 H 0.81693 0.09199 0.5358 0.0
H2232 H 0.85841 0.06513 0.58521 0.0
H2233 H 0.83178 0.02227 0.56661 0.0
C2234 C 0.79533 0.00833 0.52728 0.0
C2235 C 0.77711 0.00389 0.50638 0.0
C2236 C 0.80916 0.03236 0.54008 0.0
C2237 C 0.77198 0.02345 0.49962 0.0
C2238 C 0.78558 0.04733 0.51231 0.0
C2239 C 0.81985 0.07673 0.54305 0.0
C2240 C 0.84 0.08199 0.56155 0.0
C2241 C 0.8046 0.05216 0.53209 0.0
C2242 C 0.84343 0.0618 0.57053 0.0
C2243 C 0.82817 0.03725 0.55993 0.0
H2244 H 0.87632 0.35184 0.31971 0.0
H2245 H 0.85463 0.3158 0.40167 0.0
H2246 H 0.86209 0.35571 0.42251 0.0
H2247 H 0.87732 0.40176 0.41801 0.0
H2248 H 0.903 0.43819 0.33704 0.0
H2249 H 0.89203 0.39737 0.31533 0.0
C2250 C 0.87355 0.35265 0.34223 0.0
C2251 C 0.86508 0.33067 0.35902 0.0
C2252 C 0.87873 0.37586 0.35429 0.0
C2253 C 0.86085 0.33219 0.38804 0.0
C2254 C 0.86531 0.35511 0.40007 0.0
C2255 C 0.88017 0.40055 0.39558 0.0
C2256 C 0.89079 0.42276 0.37902 0.0
C2257 C 0.87451 0.37714 0.38347 0.0
C2258 C 0.89489 0.42124 0.35008 0.0
C2259 C 0.88862 0.39796 0.33772 0.0
H2260 H 0.59112 0.4581 0.38366 0.0
H2261 H 0.56663 0.51334 0.39145 0.0
H2262 H 0.60753 0.54657 0.37366 0.0
H2263 H 0.65005 0.55996 0.35566 0.0
H2264 H 0.67478 0.50497 0.34697 0.0
H2265 H 0.63424 0.47177 0.36609 0.0
C2266 C 0.59483 0.47745 0.38174 0.0
C2267 C 0.57573 0.48315 0.38875 0.0
C2268 C 0.61847 0.49654 0.37145 0.0
C2269 C 0.58078 0.5083 0.38579 0.0
C2270 C 0.60424 0.52737 0.37577 0.0
C2271 C 0.64653 0.54067 0.35768 0.0
C2272 C 0.66541 0.53497 0.34969 0.0
C2273 C 0.62313 0.52167 0.36835 0.0
C2274 C 0.66069 0.50996 0.35314 0.0
C2275 C 0.63745 0.49093 0.36392 0.0
H2276 H 0.43689 0.09227 0.3546 0.0
H2277 H 0.48765 0.17317 0.36064 0.0
H2278 H 0.52103 0.16595 0.37963 0.0
H2279 H 0.53631 0.13637 0.39179 0.0
H2280 H 0.48411 0.05538 0.38751 0.0
H2281 H 0.45097 0.06294 0.37025 0.0
C2282 C 0.45526 0.10829 0.36018 0.0
C2283 C 0.45996 0.13317 0.35606 0.0
C2284 C 0.47418 0.10398 0.37112 0.0
C2285 C 0.48365 0.15383 0.36374 0.0
C2286 C 0.50273 0.1497 0.37445 0.0
C2287 C 0.51764 0.12036 0.38746 0.0
C2288 C 0.5131 0.09532 0.39045 0.0
C2289 C 0.49831 0.12481 0.37789 0.0
C2290 C 0.48862 0.07487 0.38465 0.0
C2291 C 0.46946 0.07914 0.37496 0.0
H2292 H 0.68135 0.57824 0.86126 0.0
H2293 H 0.64684 0.49851 0.84115 0.0
H2294 H 0.68712 0.50553 0.82159 0.0
H2295 H 0.73238 0.53423 0.81159 0.0
H2296 H 0.76592 0.61443 0.82993 0.0
H2297 H 0.72594 0.60716 0.84925 0.0
C2298 C 0.68272 0.56241 0.85266 0.0
C2299 C 0.66129 0.5379 0.85276 0.0
C2300 C 0.7058 0.56662 0.84134 0.0
C2301 C 0.66311 0.51758 0.84115 0.0
C2302 C 0.68613 0.52158 0.8301 0.0
C2303 C 0.73099 0.55022 0.81948 0.0
C2304 C 0.75251 0.57481 0.81948 0.0
C2305 C 0.70765 0.54602 0.83019 0.0
C2306 C 0.7501 0.59517 0.83013 0.0
C2307 C 0.72707 0.59109 0.84105 0.0
H2308 H 0.44106 0.17123 0.77413 0.0
H2309 H 0.39944 0.16927 0.84861 0.0
H2310 H 0.40649 0.13665 0.8694 0.0
H2311 H 0.42679 0.11113 0.86781 0.0
H2312 H 0.46363 0.10792 0.79098 0.0
H2313 H 0.45685 0.14072 0.77013 0.0
C2314 C 0.4334 0.16338 0.79477 0.0
C2315 C 0.41994 0.17275 0.80995 0.0
C2316 C 0.43701 0.14407 0.80636 0.0
C2317 C 0.4098 0.16235 0.83653 0.0
C2318 C 0.41394 0.14377 0.84849 0.0
C2319 C 0.43275 0.11675 0.84617 0.0
C2320 C 0.44595 0.10681 0.83133 0.0
C2321 C 0.42777 0.13473 0.83373 0.0
C2322 C 0.45405 0.11547 0.80351 0.0
C2323 C 0.44994 0.13412 0.79133 0.0
H2324 H 0.83114 0.2317 0.84102 0.0
H2325 H 0.78728 0.25528 0.79091 0.0
H2326 H 0.81665 0.29963 0.8028 0.0
H2327 H 0.85328 0.33156 0.82991 0.0
H2328 H 0.89785 0.30795 0.87874 0.0
H2329 H 0.86977 0.2639 0.86475 0.0
C2330 C 0.82821 0.24651 0.83223 0.0
C2331 C 0.80678 0.23997 0.81531 0.0
C2332 C 0.84521 0.27206 0.83915 0.0
C2333 C 0.80328 0.25959 0.80442 0.0
C2334 C 0.82015 0.28504 0.81112 0.0
C2335 C 0.85714 0.31689 0.83713 0.0
C2336 C 0.87753 0.32316 0.8557 0.0
C2337 C 0.84095 0.29148 0.82888 0.0
C2338 C 0.88199 0.3037 0.86497 0.0
C2339 C 0.86602 0.27846 0.85684 0.0
H2340 H 0.43307 0.24092 0.3472 0.0
H2341 H 0.42804 0.26184 0.26155 0.0
H2342 H 0.43926 0.30476 0.277 0.0
H2343 H 0.44897 0.33562 0.31528 0.0
H2344 H 0.458 0.31556 0.40046 0.0
H2345 H 0.44635 0.27298 0.3849 0.0
C2346 C 0.43447 0.25499 0.33206 0.0
C2347 C 0.42962 0.2484 0.30342 0.0
C2348 C 0.44143 0.27965 0.34103 0.0
C2349 C 0.43182 0.26669 0.28371 0.0
C2350 C 0.43813 0.29112 0.29256 0.0
C2351 C 0.44884 0.32216 0.33044 0.0
C2352 C 0.45391 0.3289 0.35917 0.0
C2353 C 0.44287 0.29778 0.32122 0.0
C2354 C 0.45338 0.31088 0.37839 0.0
C2355 C 0.44695 0.28649 0.36948 0.0
H2356 H 0.75487 0.18981 0.35116 0.0
H2357 H 0.73389 0.17335 0.26364 0.0
H2358 H 0.69081 0.14051 0.27728 0.0
H2359 H 0.65986 0.11567 0.31438 0.0
H2360 H 0.68023 0.13575 0.40199 0.0
H2361 H 0.7229 0.16756 0.38807 0.0
C2362 C 0.74075 0.17897 0.3352 0.0
C2363 C 0.74734 0.18366 0.30655 0.0
C2364 C 0.71607 0.16063 0.34322 0.0
C2365 C 0.72901 0.16995 0.28584 0.0
C2366 C 0.70451 0.15119 0.29365 0.0
C2367 C 0.67343 0.1272 0.33049 0.0
C2368 C 0.6667 0.12269 0.35929 0.0
C2369 C 0.69786 0.14627 0.32233 0.0
C2370 C 0.68485 0.13792 0.37971 0.0
C2371 C 0.70931 0.15643 0.37179 0.0
H2372 H 0.83913 0.5794 0.27723 0.0
H2373 H 0.80463 0.57703 0.35744 0.0
H2374 H 0.83199 0.56382 0.3809 0.0
H2375 H 0.86523 0.55271 0.37846 0.0
H2376 H 0.90316 0.55914 0.29911 0.0
H2377 H 0.87452 0.57031 0.2753 0.0
C2378 C 0.83769 0.57588 0.2998 0.0
C2379 C 0.82 0.57909 0.31569 0.0
C2380 C 0.85394 0.5689 0.31322 0.0
C2381 C 0.81831 0.57481 0.34496 0.0
C2382 C 0.83386 0.5672 0.3583 0.0
C2383 C 0.86775 0.55704 0.35607 0.0
C2384 C 0.88656 0.55508 0.34078 0.0
C2385 C 0.85181 0.5643 0.34266 0.0
C2386 C 0.8887 0.56005 0.31151 0.0
C2387 C 0.87242 0.56666 0.29785 0.0
H2388 H 0.56529 0.05706 0.88219 0.0
H2389 H 0.58959 0.12884 0.92393 0.0
H2390 H 0.63365 0.14252 0.91231 0.0
H2391 H 0.66502 0.13523 0.8874 0.0
H2392 H 0.64036 0.06273 0.84723 0.0
H2393 H 0.59673 0.04825 0.86138 0.0
C2394 C 0.5801 0.0755 0.88933 0.0
C2395 C 0.57382 0.09192 0.90372 0.0
C2396 C 0.60544 0.08328 0.88261 0.0
C2397 C 0.59362 0.1159 0.91238 0.0
C2398 C 0.61891 0.12374 0.90583 0.0
C2399 C 0.6502 0.1161 0.88217 0.0
C2400 C 0.65603 0.10027 0.86588 0.0
C2401 C 0.62502 0.10777 0.89048 0.0
C2402 C 0.63643 0.07558 0.85916 0.0
C2403 C 0.61144 0.0672 0.86738 0.0
H2404 H 0.87683 0.54659 0.88431 0.0
H2405 H 0.87408 0.52518 0.79666 0.0
H2406 H 0.88477 0.49312 0.81012 0.0
H2407 H 0.89461 0.47044 0.84684 0.0
H2408 H 0.89222 0.48807 0.93441 0.0
H2409 H 0.88317 0.52177 0.92103 0.0
C2410 C 0.8781 0.53472 0.86805 0.0
C2411 C 0.875 0.53895 0.83936 0.0
C2412 C 0.88324 0.51542 0.87597 0.0
C2413 C 0.87715 0.52329 0.81883 0.0
C2414 C 0.883 0.5046 0.82651 0.0
C2415 C 0.89206 0.48174 0.86284 0.0
C2416 C 0.89414 0.47703 0.89147 0.0
C2417 C 0.88618 0.50054 0.85498 0.0
C2418 C 0.89056 0.49143 0.91224 0.0
C2419 C 0.88548 0.51069 0.90458 0.0
H2420 H 0.45368 0.333 0.88793 0.0
H2421 H 0.48358 0.35363 0.80318 0.0
H2422 H 0.51195 0.39716 0.81844 0.0
H2423 H 0.52826 0.4298 0.85588 0.0
H2424 H 0.50134 0.40833 0.94115 0.0
H2425 H 0.47215 0.36462 0.92585 0.0
C2426 C 0.46668 0.3468 0.87282 0.0
C2427 C 0.46608 0.33989 0.84431 0.0
C2428 C 0.4835 0.37176 0.88186 0.0
C2429 C 0.483 0.35837 0.82511 0.0
C2430 C 0.49943 0.38333 0.83383 0.0
C2431 C 0.51588 0.41545 0.87094 0.0
C2432 C 0.51664 0.42209 0.89946 0.0
C2433 C 0.49968 0.3903 0.86208 0.0
C2434 C 0.50096 0.40345 0.91908 0.0
C2435 C 0.48431 0.37855 0.91033 0.0
H2436 H 0.5407 0.67195 0.71564 0.0
H2437 H 0.59881 0.68924 0.65325 0.0
H2438 H 0.61612 0.73469 0.66098 0.0
H2439 H 0.61239 0.76937 0.68221 0.0
H2440 H 0.55437 0.75252 0.74458 0.0
H2441 H 0.53943 0.70713 0.74018 0.0
C2442 C 0.55742 0.6857 0.70416 0.0
C2443 C 0.56826 0.67728 0.68367 0.0
C2444 C 0.56712 0.71188 0.70846 0.0
C2445 C 0.58986 0.69529 0.6688 0.0
C2446 C 0.59981 0.72127 0.67323 0.0
C2447 C 0.59682 0.75587 0.69528 0.0
C2448 C 0.58438 0.7644 0.71345 0.0
C2449 C 0.58823 0.72979 0.69252 0.0
C2450 C 0.564 0.74649 0.72999 0.0
C2451 C 0.5555 0.7205 0.72758 0.0
H2452 H 0.34113 0.87609 0.73067 0.0
H2453 H 0.3122 0.90466 0.66582 0.0
H2454 H 0.26872 0.87596 0.68172 0.0
H2455 H 0.23904 0.84037 0.71125 0.0
H2456 H 0.26733 0.80923 0.77383 0.0
H2457 H 0.31106 0.84142 0.76193 0.0
C2458 C 0.32524 0.8762 0.7204 0.0
C2459 C 0.32964 0.89229 0.69715 0.0
C2460 C 0.3003 0.85914 0.72915 0.0
C2461 C 0.30907 0.89223 0.68367 0.0
C2462 C 0.28429 0.87588 0.69275 0.0
C2463 C 0.25474 0.84094 0.72266 0.0
C2464 C 0.25003 0.82249 0.74337 0.0
C2465 C 0.27967 0.85891 0.71508 0.0
C2466 C 0.27059 0.82319 0.75768 0.0
C2467 C 0.29553 0.84154 0.75086 0.0
H2468 H 0.09594 0.41951 0.69347 0.0
H2469 H 0.1427 0.49991 0.70935 0.0
H2470 H 0.17765 0.49356 0.72437 0.0
H2471 H 0.19567 0.46552 0.72955 0.0
H2472 H 0.14808 0.38484 0.7146 0.0
H2473 H 0.11295 0.39112 0.702 0.0
C2474 C 0.11377 0.43561 0.70037 0.0
C2475 C 0.11686 0.46014 0.70014 0.0
C2476 C 0.13375 0.43185 0.70869 0.0
C2477 C 0.13986 0.48081 0.70953 0.0
C2478 C 0.15988 0.47721 0.71788 0.0
C2479 C 0.17758 0.44921 0.72394 0.0
C2480 C 0.1749 0.42478 0.72268 0.0
C2481 C 0.15717 0.45285 0.71707 0.0
C2482 C 0.15116 0.40398 0.71512 0.0
C2483 C 0.13086 0.40749 0.70812 0.0
H2484 H 0.3382 0.89781 0.15316 0.0
H2485 H 0.32779 0.83814 0.21042 0.0
H2486 H 0.36939 0.8442 0.19737 0.0
H2487 H 0.4097 0.8684 0.17213 0.0
H2488 H 0.42179 0.93016 0.11732 0.0
H2489 H 0.37859 0.92156 0.12685 0.0
C2490 C 0.34506 0.88602 0.1624 0.0
C2491 C 0.33021 0.86753 0.18253 0.0
C2492 C 0.36926 0.89015 0.15539 0.0
C2493 C 0.33913 0.85246 0.19483 0.0
C2494 C 0.36283 0.85595 0.18742 0.0
C2495 C 0.40267 0.87964 0.16191 0.0
C2496 C 0.41872 0.89976 0.14397 0.0
C2497 C 0.37819 0.87497 0.16805 0.0
C2498 C 0.40969 0.91463 0.13131 0.0
C2499 C 0.38505 0.9097 0.13672 0.0
H2500 H 0.11208 0.51809 0.11721 0.0
H2501 H 0.0787 0.5213 0.19637 0.0
H2502 H 0.09137 0.49296 0.21803 0.0
H2503 H 0.11025 0.46595 0.21411 0.0
H2504 H 0.14243 0.46088 0.13484 0.0
H2505 H 0.13266 0.49184 0.1138 0.0
C2506 C 0.10787 0.51274 0.13925 0.0
C2507 C 0.09419 0.52146 0.15506 0.0
C2508 C 0.11506 0.4962 0.15156 0.0
C2509 C 0.08873 0.51438 0.1836 0.0
C2510 C 0.0961 0.4983 0.19606 0.0
C2511 C 0.11502 0.4715 0.19217 0.0
C2512 C 0.12676 0.46089 0.17598 0.0
C2513 C 0.10889 0.48879 0.18012 0.0
C2514 C 0.13346 0.46884 0.14781 0.0
C2515 C 0.12772 0.4864 0.13571 0.0
H2516 H 0.55998 0.66379 0.18916 0.0
H2517 H 0.56717 0.68848 0.10225 0.0
H2518 H 0.53109 0.64713 0.08939 0.0
H2519 H 0.49767 0.60332 0.10302 0.0
H2520 H 0.49497 0.57826 0.1887 0.0
H2521 H 0.52998 0.62021 0.20174 0.0
C2522 C 0.55438 0.66017 0.16716 0.0
C2523 C 0.56675 0.67945 0.14674 0.0
C2524 C 0.53446 0.63612 0.15969 0.0
C2525 C 0.55802 0.67429 0.11862 0.0
C2526 C 0.53747 0.65052 0.11116 0.0
C2527 C 0.50501 0.60723 0.12442 0.0
C2528 C 0.49403 0.588 0.14498 0.0
C2529 C 0.52558 0.63125 0.13153 0.0
C2530 C 0.50347 0.59288 0.17265 0.0
C2531 C 0.52331 0.61682 0.18007 0.0
H2532 H 0.08434 0.65241 0.68891 0.0
H2533 H 0.15943 0.68651 0.65263 0.0
H2534 H 0.14907 0.64586 0.63127 0.0
H2535 H 0.11993 0.60005 0.62596 0.0
H2536 H 0.04599 0.56549 0.66538 0.0
H2537 H 0.05461 0.6069 0.68198 0.0
C2538 C 0.0985 0.65096 0.67641 0.0
C2539 C 0.12273 0.6725 0.67267 0.0
C2540 C 0.09263 0.6274 0.66469 0.0
C2541 C 0.14058 0.67036 0.65576 0.0
C2542 C 0.13473 0.64705 0.64368 0.0
C2543 C 0.10566 0.60144 0.63822 0.0
C2544 C 0.08245 0.57934 0.64461 0.0
C2545 C 0.11099 0.62533 0.64848 0.0
C2546 C 0.064 0.58191 0.65989 0.0
C2547 C 0.06898 0.60568 0.66967 0.0
H2548 H 0.3509 0.44141 0.69215 0.0
H2549 H 0.31555 0.48023 0.65336 0.0
H2550 H 0.3566 0.51265 0.6347 0.0
H2551 H 0.40287 0.53112 0.63152 0.0
H2552 H 0.43816 0.49331 0.67295 0.0
H2553 H 0.39683 0.45935 0.68818 0.0
C2554 C 0.35217 0.45703 0.67973 0.0
C2555 C 0.33016 0.45843 0.67435 0.0
C2556 C 0.37586 0.47581 0.66947 0.0
C2557 C 0.3321 0.47851 0.65766 0.0
C2558 C 0.35562 0.49717 0.64713 0.0
C2559 C 0.40158 0.51552 0.64393 0.0
C2560 C 0.42379 0.51499 0.65103 0.0
C2561 C 0.37768 0.49619 0.65322 0.0
C2562 C 0.42155 0.49425 0.66673 0.0
C2563 C 0.39786 0.47483 0.67572 0.0
H2564 H 0.54981 0.89594 0.69409 0.0
H2565 H 0.55717 0.8776 0.60766 0.0
H2566 H 0.5214 0.8829 0.59405 0.0
H2567 H 0.48857 0.89416 0.60656 0.0
H2568 H 0.48517 0.91706 0.69175 0.0
H2569 H 0.51936 0.90925 0.70591 0.0
C2570 C 0.54414 0.89361 0.67209 0.0
C2571 C 0.55653 0.8865 0.652 0.0
C2572 C 0.52421 0.8976 0.66419 0.0
C2573 C 0.54795 0.88274 0.6238 0.0
C2574 C 0.52756 0.88596 0.6159 0.0
C2575 C 0.49539 0.89728 0.62817 0.0
C2576 C 0.48451 0.90601 0.64822 0.0
C2577 C 0.51559 0.89348 0.6359 0.0
C2578 C 0.49348 0.91039 0.67611 0.0
C2579 C 0.51293 0.9059 0.68415 0.0
H2580 H 0.25889 0.46413 0.23877 0.0
H2581 H 0.23203 0.38499 0.22057 0.0
H2582 H 0.27428 0.39558 0.20487 0.0
H2583 H 0.3183 0.42744 0.19412 0.0
H2584 H 0.34577 0.50646 0.21291 0.0
H2585 H 0.30393 0.49571 0.23138 0.0
C2586 C 0.26232 0.44913 0.23183 0.0
C2587 C 0.24212 0.42384 0.23048 0.0
C2588 C 0.28677 0.45532 0.22297 0.0
C2589 C 0.24699 0.40469 0.2212 0.0
C2590 C 0.27122 0.41069 0.21238 0.0
C2591 C 0.31509 0.44227 0.20233 0.0
C2592 C 0.33486 0.46769 0.20192 0.0
C2593 C 0.2911 0.43597 0.21272 0.0
C2594 C 0.33074 0.48674 0.21308 0.0
C2595 C 0.30683 0.48061 0.22348 0.0
H2596 H 0.56221 0.81498 0.22445 0.0
H2597 H 0.63263 0.85783 0.17866 0.0
H2598 H 0.62337 0.89191 0.17083 0.0
H2599 H 0.59391 0.90821 0.17358 0.0
H2600 H 0.52206 0.8642 0.21626 0.0
H2601 H 0.53341 0.83216 0.22891 0.0
C2602 C 0.57554 0.83171 0.21271 0.0
C2603 C 0.59802 0.83355 0.20202 0.0
C2604 C 0.56984 0.85112 0.20766 0.0
C2605 C 0.61529 0.85578 0.18741 0.0
C2606 C 0.60993 0.8753 0.1827 0.0
C2607 C 0.5807 0.89161 0.18565 0.0
C2608 C 0.55706 0.88855 0.19368 0.0
C2609 C 0.58704 0.87293 0.19221 0.0
C2610 C 0.54046 0.8672 0.20994 0.0
C2611 C 0.54685 0.84873 0.21697 0.0
H2612 H 0.14256 0.66194 0.1971 0.0
H2613 H 0.0843 0.6816 0.18382 0.0
H2614 H 0.1127 0.72458 0.20107 0.0
H2615 H 0.15417 0.75671 0.21924 0.0
H2616 H 0.21268 0.73741 0.23223 0.0
H2617 H 0.18385 0.69395 0.21653 0.0
C2618 C 0.136 0.67555 0.19831 0.0
C2619 C 0.11142 0.66863 0.18903 0.0
C2620 C 0.15242 0.70025 0.20829 0.0
C2621 C 0.10328 0.68657 0.19042 0.0
C2622 C 0.11945 0.71111 0.20041 0.0
C2623 C 0.16069 0.74306 0.21845 0.0
C2624 C 0.18559 0.75037 0.22677 0.0
C2625 C 0.14411 0.71821 0.20915 0.0
C2626 C 0.19354 0.73225 0.22621 0.0
C2627 C 0.17712 0.70743 0.21705 0.0
loop_
_geom_bond_atom_site_label_1
_geom_bond_atom_site_label_2
_geom_bond_distance
_geom_bond_site_symmetry_2
_ccdc_geom_bond_type
C0 C1 1.351 . S
C0 N3 1.368 . S
C0 H5 0.931 . S
C1 C0 1.351 . S
C1 N2 1.373 . S
C1 H29 0.930 . S
N2 C1 1.373 . S
N2 C4 1.340 . S
N3 C0 1.368 . S
N3 C4 1.321 . S
N3 Co6 2.135 . S
C4 N2 1.340 . S
C4 N3 1.321 . S
C4 H28 0.934 . S
H5 C0 0.931 . S
Co6 N3 2.135 . S
Co6 N9 2.121 . S
Co6 O14 2.055 . S
Co6 O17 2.039 . S
Co6 N20 2.140 . S
C7 O8 1.227 . S
C7 O17 1.265 1_556 S
O8 C7 1.227 . S
N9 Co6 2.121 . S
N9 C11 1.375 . S
N9 C12 1.313 . S
C10 C11 1.338 . S
C10 N13 1.377 . S
C10 H30 0.930 . S
C11 N9 1.375 . S
C11 C10 1.338 . S
C11 H15 0.931 . S
C12 N9 1.313 . S
C12 N13 1.344 . S
C12 H16 0.930 . S
N13 C10 1.377 . S
N13 C12 1.344 . S
O14 Co6 2.055 . S
O14 C18 1.253 . S
H15 C11 0.931 . S
H16 C12 0.930 . S
O17 Co6 2.039 . S
O17 C7 1.265 1_554 S
C18 O14 1.253 . S
C18 O19 1.227 . S
O19 C18 1.227 . S
N20 Co6 2.140 . S
N20 C23 1.346 . S
N20 C24 1.345 . S
C21 C22 1.387 . S
C21 C25 1.391 . S
C22 C21 1.387 . S
C22 C23 1.369 . S
C22 H31 0.929 . S
C23 N20 1.346 . S
C23 C22 1.369 . S
C23 H26 0.928 . S
C24 N20 1.345 . S
C24 C25 1.371 . S
C24 H27 0.931 . S
C25 C21 1.391 . S
C25 C24 1.371 . S
C25 H32 0.930 . S
H26 C23 0.928 . S
H27 C24 0.931 . S
H28 C4 0.934 . S
H29 C1 0.930 . S
H30 C10 0.930 . S
H31 C22 0.929 . S
H32 C25 0.930 . S
C33 C34 1.351 . S
C33 N36 1.368 . S
C33 H38 0.931 . S
C34 C33 1.351 . S
C34 N35 1.373 . S
C34 H62 0.930 . S
N35 C34 1.373 . S
N35 C37 1.340 . S
N36 C33 1.368 . S
N36 C37 1.321 . S
N36 Co39 2.135 . S
C37 N35 1.340 . S
C37 N36 1.321 . S
C37 H61 0.933 . S
H38 C33 0.931 . S
Co39 N36 2.135 . S
Co39 N42 2.121 . S
Co39 O47 2.055 . S
Co39 O50 2.039 . S
Co39 N53 2.140 . S
C40 O41 1.227 . S
C40 O50 1.265 1_556 S
O41 C40 1.227 . S
N42 Co39 2.121 . S
N42 C44 1.375 . S
N42 C45 1.313 . S
C43 C44 1.338 . S
C43 N46 1.377 . S
C43 H63 0.930 . S
C44 N42 1.375 . S
C44 C43 1.338 . S
C44 H48 0.931 . S
C45 N42 1.313 . S
C45 N46 1.344 . S
C45 H49 0.930 . S
N46 C43 1.377 . S
N46 C45 1.344 . S
O47 Co39 2.055 . S
O47 C51 1.253 . S
H48 C44 0.931 . S
H49 C45 0.930 . S
O50 Co39 2.039 . S
O50 C40 1.265 1_554 S
C51 O47 1.253 . S
C51 O52 1.227 . S
O52 C51 1.227 . S
N53 Co39 2.140 . S
N53 C56 1.346 . S
N53 C57 1.345 . S
C54 C55 1.387 . S
C54 C58 1.391 . S
C55 C54 1.387 . S
C55 C56 1.369 . S
C55 H64 0.929 . S
C56 N53 1.346 . S
C56 C55 1.369 . S
C56 H59 0.928 . S
C57 N53 1.345 . S
C57 C58 1.371 . S
C57 H60 0.931 . S
C58 C54 1.391 . S
C58 C57 1.371 . S
C58 H65 0.930 . S
H59 C56 0.928 . S
H60 C57 0.931 . S
H61 C37 0.933 . S
H62 C34 0.930 . S
H63 C43 0.930 . S
H64 C55 0.929 . S
H65 C58 0.930 . S
C66 C67 1.351 . S
C66 N69 1.368 . S
C66 H71 0.931 . S
C67 C66 1.351 . S
C67 N68 1.373 . S
C67 H95 0.930 . S
N68 C67 1.373 . S
N68 C70 1.340 . S
N69 C66 1.368 . S
N69 C70 1.321 . S
N69 Co72 2.135 . S
C70 N68 1.340 . S
C70 N69 1.321 . S
C70 H94 0.934 . S
H71 C66 0.931 . S
Co72 N69 2.135 . S
Co72 N75 2.121 . S
Co72 O80 2.055 . S
Co72 O83 2.039 . S
Co72 N86 2.140 . S
C73 O74 1.227 . S
C73 O83 1.265 1_556 S
O74 C73 1.227 . S
N75 Co72 2.121 . S
N75 C77 1.375 . S
N75 C78 1.313 . S
C76 C77 1.338 . S
C76 N79 1.377 . S
C76 H96 0.930 . S
C77 N75 1.375 . S
C77 C76 1.338 . S
C77 H81 0.931 . S
C78 N75 1.313 . S
C78 N79 1.344 . S
C78 H82 0.930 . S
N79 C76 1.377 . S
N79 C78 1.344 . S
O80 Co72 2.055 . S
O80 C84 1.253 . S
H81 C77 0.931 . S
H82 C78 0.930 . S
O83 Co72 2.039 . S
O83 C73 1.265 1_554 S
C84 O80 1.253 . S
C84 O85 1.227 . S
O85 C84 1.227 . S
N86 Co72 2.140 . S
N86 C89 1.346 . S
N86 C90 1.345 . S
C87 C88 1.387 . S
C87 C91 1.391 . S
C88 C87 1.387 . S
C88 C89 1.369 . S
C88 H97 0.929 . S
C89 N86 1.346 . S
C89 C88 1.369 . S
C89 H92 0.928 . S
C90 N86 1.345 . S
C90 C91 1.371 . S
C90 H93 0.931 . S
C91 C87 1.391 . S
C91 C90 1.371 . S
C91 H98 0.930 . S
H92 C89 0.928 . S
H93 C90 0.931 . S
H94 C70 0.934 . S
H95 C67 0.930 . S
H96 C76 0.930 . S
H97 C88 0.929 . S
H98 C91 0.930 . S
C99 C100 1.351 . S
C99 N102 1.368 . S
C99 H104 0.931 . S
C100 C99 1.351 . S
C100 N101 1.373 . S
C100 H128 0.930 . S
N101 C100 1.373 . S
N101 C103 1.340 . S
N102 C99 1.368 . S
N102 C103 1.321 . S
N102 Co105 2.135 . S
C103 N101 1.340 . S
C103 N102 1.321 . S
C103 H127 0.930 . S
H104 C99 0.931 . S
Co105 N102 2.135 . S
Co105 N108 2.121 . S
Co105 O113 2.055 . S
Co105 O116 2.039 . S
Co105 N119 2.140 . S
C106 O107 1.227 . S
C106 O116 1.265 . S
O107 C106 1.227 . S
N108 Co105 2.121 . S
N108 C110 1.375 . S
N108 C111 1.313 . S
C109 C110 1.338 . S
C109 N112 1.377 . S
C109 H129 0.930 . S
C110 N108 1.375 . S
C110 C109 1.338 . S
C110 H114 0.931 . S
C111 N108 1.313 . S
C111 N112 1.344 . S
C111 H115 0.930 . S
N112 C109 1.377 . S
N112 C111 1.344 . S
O113 Co105 2.055 . S
O113 C117 1.253 . S
H114 C110 0.931 . S
H115 C111 0.930 . S
O116 Co105 2.039 . S
O116 C106 1.265 . S
C117 O113 1.253 . S
C117 O118 1.227 . S
O118 C117 1.227 . S
N119 Co105 2.140 . S
N119 C122 1.346 . S
N119 C123 1.345 . S
C120 C121 1.387 . S
C120 C124 1.391 . S
C121 C120 1.387 . S
C121 C122 1.369 . S
C121 H130 0.929 . S
C122 N119 1.346 . S
C122 C121 1.369 . S
C122 H125 0.928 . S
C123 N119 1.345 . S
C123 C124 1.371 . S
C123 H126 0.931 . S
C124 C120 1.391 . S
C124 C123 1.371 . S
C124 H131 0.930 . S
H125 C122 0.928 . S
H126 C123 0.931 . S
H127 C103 0.930 . S
H128 C100 0.930 . S
H129 C109 0.930 . S
H130 C121 0.929 . S
H131 C124 0.930 . S
C132 C133 1.351 . S
C132 N135 1.368 . S
C132 H137 0.931 . S
C133 C132 1.351 . S
C133 N134 1.373 . S
C133 H161 0.930 . S
N134 C133 1.373 . S
N134 C136 1.340 . S
N135 C132 1.368 . S
N135 C136 1.321 . S
N135 Co138 2.135 . S
C136 N134 1.340 . S
C136 N135 1.321 . S
C136 H160 0.930 . S
H137 C132 0.931 . S
Co138 N135 2.135 . S
Co138 N141 2.121 . S
Co138 O146 2.055 . S
Co138 O149 2.039 . S
Co138 N152 2.140 . S
C139 O140 1.227 . S
C139 O149 1.265 . S
O140 C139 1.227 . S
N141 Co138 2.121 . S
N141 C143 1.375 . S
N141 C144 1.313 . S
C142 C143 1.338 . S
C142 N145 1.377 . S
C142 H162 0.930 . S
C143 N141 1.375 . S
C143 C142 1.338 . S
C143 H147 0.931 . S
C144 N141 1.313 . S
C144 N145 1.344 . S
C144 H148 0.930 . S
N145 C142 1.377 . S
N145 C144 1.344 . S
O146 Co138 2.055 . S
O146 C150 1.253 . S
H147 C143 0.931 . S
H148 C144 0.930 . S
O149 Co138 2.039 . S
O149 C139 1.265 . S
C150 O146 1.253 . S
C150 O151 1.227 . S
O151 C150 1.227 . S
N152 Co138 2.140 . S
N152 C155 1.346 . S
N152 C156 1.345 . S
C153 C154 1.387 . S
C153 C157 1.391 . S
C154 C153 1.387 . S
C154 C155 1.369 . S
C154 H163 0.929 . S
C155 N152 1.346 . S
C155 C154 1.369 . S
C155 H158 0.928 . S
C156 N152 1.345 . S
C156 C157 1.371 . S
C156 H159 0.931 . S
C157 C153 1.391 . S
C157 C156 1.371 . S
C157 H164 0.930 . S
H158 C155 0.928 . S
H159 C156 0.931 . S
H160 C136 0.930 . S
H161 C133 0.930 . S
H162 C142 0.930 . S
H163 C154 0.929 . S
H164 C157 0.930 . S
C165 C166 1.351 . S
C165 N168 1.368 . S
C165 H170 0.931 . S
C166 C165 1.351 . S
C166 N167 1.373 . S
C166 H194 0.930 . S
N167 C166 1.373 . S
N167 C169 1.340 . S
N168 C165 1.368 . S
N168 C169 1.321 . S
N168 Co171 2.135 . S
C169 N167 1.340 . S
C169 N168 1.321 . S
C169 H193 0.930 . S
H170 C165 0.931 . S
Co171 N168 2.135 . S
Co171 N174 2.121 . S
Co171 O179 2.055 . S
Co171 O182 2.039 . S
Co171 N185 2.140 . S
C172 O173 1.227 . S
C172 O182 1.265 . S
O173 C172 1.227 . S
N174 Co171 2.121 . S
N174 C176 1.375 . S
N174 C177 1.313 . S
C175 C176 1.338 . S
C175 N178 1.377 . S
C175 H195 0.930 . S
C176 N174 1.375 . S
C176 C175 1.338 . S
C176 H180 0.931 . S
C177 N174 1.313 . S
C177 N178 1.344 . S
C177 H181 0.930 . S
N178 C175 1.377 . S
N178 C177 1.344 . S
O179 Co171 2.055 . S
O179 C183 1.253 . S
H180 C176 0.931 . S
H181 C177 0.930 . S
O182 Co171 2.039 . S
O182 C172 1.265 . S
C183 O179 1.253 . S
C183 O184 1.227 . S
O184 C183 1.227 . S
N185 Co171 2.140 . S
N185 C188 1.346 . S
N185 C189 1.345 . S
C186 C187 1.387 . S
C186 C190 1.391 . S
C187 C186 1.387 . S
C187 C188 1.369 . S
C187 H196 0.929 . S
C188 N185 1.346 . S
C188 C187 1.369 . S
C188 H191 0.928 . S
C189 N185 1.345 . S
C189 C190 1.371 . S
C189 H192 0.931 . S
C190 C186 1.391 . S
C190 C189 1.371 . S
C190 H197 0.930 . S
H191 C188 0.928 . S
H192 C189 0.931 . S
H193 C169 0.930 . S
H194 C166 0.930 . S
H195 C175 0.930 . S
H196 C187 0.929 . S
H197 C190 0.930 . S
C198 C199 1.351 . S
C198 N201 1.368 . S
C198 H203 0.931 . S
C199 C198 1.351 . S
C199 N200 1.373 . S
C199 H227 0.930 . S
N200 C199 1.373 . S
N200 C202 1.340 . S
N201 C198 1.368 . S
N201 C202 1.321 . S
N201 Co204 2.135 . S
C202 N200 1.340 . S
C202 N201 1.321 . S
C202 H226 0.934 . S
H203 C198 0.931 . S
Co204 N201 2.135 . S
Co204 N207 2.121 . S
Co204 O212 2.055 . S
Co204 O215 2.039 . S
Co204 N218 2.140 . S
C205 O206 1.227 . S
C205 O215 1.265 1_554 S
O206 C205 1.227 . S
N207 Co204 2.121 . S
N207 C209 1.375 . S
N207 C210 1.313 . S
C208 C209 1.338 . S
C208 N211 1.377 . S
C208 H228 0.930 . S
C209 N207 1.375 . S
C209 C208 1.338 . S
C209 H213 0.931 . S
C210 N207 1.313 . S
C210 N211 1.344 . S
C210 H214 0.930 . S
N211 C208 1.377 . S
N211 C210 1.344 . S
O212 Co204 2.055 . S
O212 C216 1.253 . S
H213 C209 0.931 . S
H214 C210 0.930 . S
O215 Co204 2.039 . S
O215 C205 1.265 1_556 S
C216 O212 1.253 . S
C216 O217 1.227 . S
O217 C216 1.227 . S
N218 Co204 2.140 . S
N218 C221 1.346 . S
N218 C222 1.345 . S
C219 C220 1.387 . S
C219 C223 1.391 . S
C220 C219 1.387 . S
C220 C221 1.369 . S
C220 H229 0.929 . S
C221 N218 1.346 . S
C221 C220 1.369 . S
C221 H224 0.928 . S
C222 N218 1.345 . S
C222 C223 1.371 . S
C222 H225 0.931 . S
C223 C219 1.391 . S
C223 C222 1.371 . S
C223 H230 0.930 . S
H224 C221 0.928 . S
H225 C222 0.931 . S
H226 C202 0.934 . S
H227 C199 0.930 . S
H228 C208 0.930 . S
H229 C220 0.929 . S
H230 C223 0.930 . S
C231 C232 1.351 . S
C231 N234 1.368 . S
C231 H236 0.931 . S
C232 C231 1.351 . S
C232 N233 1.373 . S
C232 H260 0.930 . S
N233 C232 1.373 . S
N233 C235 1.340 . S
N234 C231 1.368 . S
N234 C235 1.321 . S
N234 Co237 2.135 . S
C235 N233 1.340 . S
C235 N234 1.321 . S
C235 H259 0.933 . S
H236 C231 0.931 . S
Co237 N234 2.135 . S
Co237 N240 2.121 . S
Co237 O245 2.055 . S
Co237 O248 2.039 . S
Co237 N251 2.140 . S
C238 O239 1.227 . S
C238 O248 1.265 1_554 S
O239 C238 1.227 . S
N240 Co237 2.121 . S
N240 C242 1.375 . S
N240 C243 1.313 . S
C241 C242 1.338 . S
C241 N244 1.377 . S
C241 H261 0.930 . S
C242 N240 1.375 . S
C242 C241 1.338 . S
C242 H246 0.931 . S
C243 N240 1.313 . S
C243 N244 1.344 . S
C243 H247 0.930 . S
N244 C241 1.377 . S
N244 C243 1.344 . S
O245 Co237 2.055 . S
O245 C249 1.253 . S
H246 C242 0.931 . S
H247 C243 0.930 . S
O248 Co237 2.039 . S
O248 C238 1.265 1_556 S
C249 O245 1.253 . S
C249 O250 1.227 . S
O250 C249 1.227 . S
N251 Co237 2.140 . S
N251 C254 1.346 . S
N251 C255 1.345 . S
C252 C253 1.387 . S
C252 C256 1.391 . S
C253 C252 1.387 . S
C253 C254 1.369 . S
C253 H262 0.929 . S
C254 N251 1.346 . S
C254 C253 1.369 . S
C254 H257 0.928 . S
C255 N251 1.345 . S
C255 C256 1.371 . S
C255 H258 0.931 . S
C256 C252 1.391 . S
C256 C255 1.371 . S
C256 H263 0.930 . S
H257 C254 0.928 . S
H258 C255 0.931 . S
H259 C235 0.933 . S
H260 C232 0.930 . S
H261 C241 0.930 . S
H262 C253 0.929 . S
H263 C256 0.930 . S
C264 C265 1.351 . S
C264 N267 1.368 . S
C264 H269 0.931 . S
C265 C264 1.351 . S
C265 N266 1.373 . S
C265 H293 0.930 . S
N266 C265 1.373 . S
N266 C268 1.340 . S
N267 C264 1.368 . S
N267 C268 1.321 . S
N267 Co270 2.135 . S
C268 N266 1.340 . S
C268 N267 1.321 . S
C268 H292 0.934 . S
H269 C264 0.931 . S
Co270 N267 2.135 . S
Co270 N273 2.121 . S
Co270 O278 2.055 . S
Co270 O281 2.039 . S
Co270 N284 2.140 . S
C271 O272 1.227 . S
C271 O281 1.265 1_554 S
O272 C271 1.227 . S
N273 Co270 2.121 . S
N273 C275 1.375 . S
N273 C276 1.313 . S
C274 C275 1.338 . S
C274 N277 1.377 . S
C274 H294 0.930 . S
C275 N273 1.375 . S
C275 C274 1.338 . S
C275 H279 0.931 . S
C276 N273 1.313 . S
C276 N277 1.344 . S
C276 H280 0.930 . S
N277 C274 1.377 . S
N277 C276 1.344 . S
O278 Co270 2.055 . S
O278 C282 1.253 . S
H279 C275 0.931 . S
H280 C276 0.930 . S
O281 Co270 2.039 . S
O281 C271 1.265 1_556 S
C282 O278 1.253 . S
C282 O283 1.227 . S
O283 C282 1.227 . S
N284 Co270 2.140 . S
N284 C287 1.346 . S
N284 C288 1.345 . S
C285 C286 1.387 . S
C285 C289 1.391 . S
C286 C285 1.387 . S
C286 C287 1.369 . S
C286 H295 0.929 . S
C287 N284 1.346 . S
C287 C286 1.369 . S
C287 H290 0.928 . S
C288 N284 1.345 . S
C288 C289 1.371 . S
C288 H291 0.931 . S
C289 C285 1.391 . S
C289 C288 1.371 . S
C289 H296 0.930 . S
H290 C287 0.928 . S
H291 C288 0.931 . S
H292 C268 0.934 . S
H293 C265 0.930 . S
H294 C274 0.930 . S
H295 C286 0.929 . S
H296 C289 0.930 . S
C297 C298 1.351 . S
C297 N300 1.368 . S
C297 H302 0.931 . S
C298 C297 1.351 . S
C298 N299 1.373 . S
C298 H326 0.930 . S
N299 C298 1.373 . S
N299 C301 1.340 . S
N300 C297 1.368 . S
N300 C301 1.321 . S
N300 Co303 2.135 . S
C301 N299 1.340 . S
C301 N300 1.321 . S
C301 H325 0.930 . S
H302 C297 0.931 . S
Co303 N300 2.135 . S
Co303 N306 2.121 . S
Co303 O311 2.055 . S
Co303 O314 2.039 . S
Co303 N317 2.140 . S
C304 O305 1.227 . S
C304 O314 1.265 . S
O305 C304 1.227 . S
N306 Co303 2.121 . S
N306 C308 1.375 . S
N306 C309 1.313 . S
C307 C308 1.338 . S
C307 N310 1.377 . S
C307 H327 0.930 . S
C308 N306 1.375 . S
C308 C307 1.338 . S
C308 H312 0.931 . S
C309 N306 1.313 . S
C309 N310 1.344 . S
C309 H313 0.930 . S
N310 C307 1.377 . S
N310 C309 1.344 . S
O311 Co303 2.055 . S
O311 C315 1.253 . S
H312 C308 0.931 . S
H313 C309 0.930 . S
O314 Co303 2.039 . S
O314 C304 1.265 . S
C315 O311 1.253 . S
C315 O316 1.227 . S
O316 C315 1.227 . S
N317 Co303 2.140 . S
N317 C320 1.346 . S
N317 C321 1.345 . S
C318 C319 1.387 . S
C318 C322 1.391 . S
C319 C318 1.387 . S
C319 C320 1.369 . S
C319 H328 0.929 . S
C320 N317 1.346 . S
C320 C319 1.369 . S
C320 H323 0.928 . S
C321 N317 1.345 . S
C321 C322 1.371 . S
C321 H324 0.931 . S
C322 C318 1.391 . S
C322 C321 1.371 . S
C322 H329 0.930 . S
H323 C320 0.928 . S
H324 C321 0.931 . S
H325 C301 0.930 . S
H326 C298 0.930 . S
H327 C307 0.930 . S
H328 C319 0.929 . S
H329 C322 0.930 . S
C330 C331 1.351 . S
C330 N333 1.368 . S
C330 H335 0.931 . S
C331 C330 1.351 . S
C331 N332 1.373 . S
C331 H359 0.930 . S
N332 C331 1.373 . S
N332 C334 1.340 . S
N333 C330 1.368 . S
N333 C334 1.321 . S
N333 Co336 2.135 . S
C334 N332 1.340 . S
C334 N333 1.321 . S
C334 H358 0.930 . S
H335 C330 0.931 . S
Co336 N333 2.135 . S
Co336 N339 2.121 . S
Co336 O344 2.055 . S
Co336 O347 2.039 . S
Co336 N350 2.140 . S
C337 O338 1.227 . S
C337 O347 1.265 . S
O338 C337 1.227 . S
N339 Co336 2.121 . S
N339 C341 1.375 . S
N339 C342 1.313 . S
C340 C341 1.338 . S
C340 N343 1.377 . S
C340 H360 0.930 . S
C341 N339 1.375 . S
C341 C340 1.338 . S
C341 H345 0.931 . S
C342 N339 1.313 . S
C342 N343 1.344 . S
C342 H346 0.930 . S
N343 C340 1.377 . S
N343 C342 1.344 . S
O344 Co336 2.055 . S
O344 C348 1.253 . S
H345 C341 0.931 . S
H346 C342 0.930 . S
O347 Co336 2.039 . S
O347 C337 1.265 . S
C348 O344 1.253 . S
C348 O349 1.227 . S
O349 C348 1.227 . S
N350 Co336 2.140 . S
N350 C353 1.346 . S
N350 C354 1.345 . S
C351 C352 1.387 . S
C351 C355 1.391 . S
C352 C351 1.387 . S
C352 C353 1.369 . S
C352 H361 0.929 . S
C353 N350 1.346 . S
C353 C352 1.369 . S
C353 H356 0.928 . S
C354 N350 1.345 . S
C354 C355 1.371 . S
C354 H357 0.931 . S
C355 C351 1.391 . S
C355 C354 1.371 . S
C355 H362 0.930 . S
H356 C353 0.928 . S
H357 C354 0.931 . S
H358 C334 0.930 . S
H359 C331 0.930 . S
H360 C340 0.930 . S
H361 C352 0.929 . S
H362 C355 0.930 . S
C363 C364 1.351 . S
C363 N366 1.368 . S
C363 H368 0.931 . S
C364 C363 1.351 . S
C364 N365 1.373 . S
C364 H392 0.930 . S
N365 C364 1.373 . S
N365 C367 1.340 . S
N366 C363 1.368 . S
N366 C367 1.321 . S
N366 Co369 2.135 . S
C367 N365 1.340 . S
C367 N366 1.321 . S
C367 H391 0.930 . S
H368 C363 0.931 . S
Co369 N366 2.135 . S
Co369 N372 2.121 . S
Co369 O377 2.055 . S
Co369 O380 2.039 . S
Co369 N383 2.140 . S
C370 O371 1.227 . S
C370 O380 1.265 . S
O371 C370 1.227 . S
N372 Co369 2.121 . S
N372 C374 1.375 . S
N372 C375 1.313 . S
C373 C374 1.338 . S
C373 N376 1.377 . S
C373 H393 0.930 . S
C374 N372 1.375 . S
C374 C373 1.338 . S
C374 H378 0.931 . S
C375 N372 1.313 . S
C375 N376 1.344 . S
C375 H379 0.930 . S
N376 C373 1.377 . S
N376 C375 1.344 . S
O377 Co369 2.055 . S
O377 C381 1.253 . S
H378 C374 0.931 . S
H379 C375 0.930 . S
O380 Co369 2.039 . S
O380 C370 1.265 . S
C381 O377 1.253 . S
C381 O382 1.227 . S
O382 C381 1.227 . S
N383 Co369 2.140 . S
N383 C386 1.346 . S
N383 C387 1.345 . S
C384 C385 1.387 . S
C384 C388 1.391 . S
C385 C384 1.387 . S
C385 C386 1.369 . S
C385 H394 0.929 . S
C386 N383 1.346 . S
C386 C385 1.369 . S
C386 H389 0.928 . S
C387 N383 1.345 . S
C387 C388 1.371 . S
C387 H390 0.931 . S
C388 C384 1.391 . S
C388 C387 1.371 . S
C388 H395 0.930 . S
H389 C386 0.928 . S
H390 C387 0.931 . S
H391 C367 0.930 . S
H392 C364 0.930 . S
H393 C373 0.930 . S
H394 C385 0.929 . S
H395 C388 0.930 . S
C396 C397 1.351 . S
C396 N399 1.368 . S
C396 H401 0.931 . S
C397 C396 1.351 . S
C397 N398 1.373 . S
C397 H425 0.930 . S
N398 C397 1.373 . S
N398 C400 1.340 . S
N399 C396 1.368 . S
N399 C400 1.321 . S
N399 Co402 2.135 . S
C400 N398 1.340 . S
C400 N399 1.321 . S
C400 H424 0.930 . S
H401 C396 0.931 . S
Co402 N399 2.135 . S
Co402 N405 2.121 . S
Co402 O410 2.055 . S
Co402 O413 2.039 . S
Co402 N416 2.140 . S
C403 O404 1.227 . S
C403 O413 1.265 . S
O404 C403 1.227 . S
N405 Co402 2.121 . S
N405 C407 1.375 . S
N405 C408 1.313 . S
C406 C407 1.338 . S
C406 N409 1.377 . S
C406 H426 0.930 . S
C407 N405 1.375 . S
C407 C406 1.338 . S
C407 H411 0.931 . S
C408 N405 1.313 . S
C408 N409 1.344 . S
C408 H412 0.930 . S
N409 C406 1.377 . S
N409 C408 1.344 . S
O410 Co402 2.055 . S
O410 C414 1.253 . S
H411 C407 0.931 . S
H412 C408 0.930 . S
O413 Co402 2.039 . S
O413 C403 1.265 . S
C414 O410 1.253 . S
C414 O415 1.227 . S
O415 C414 1.227 . S
N416 Co402 2.140 . S
N416 C419 1.346 . S
N416 C420 1.345 . S
C417 C418 1.387 . S
C417 C421 1.391 . S
C418 C417 1.387 . S
C418 C419 1.369 . S
C418 H427 0.929 . S
C419 N416 1.346 . S
C419 C418 1.369 . S
C419 H422 0.928 . S
C420 N416 1.345 . S
C420 C421 1.371 . S
C420 H423 0.931 . S
C421 C417 1.391 . S
C421 C420 1.371 . S
C421 H428 0.930 . S
H422 C419 0.928 . S
H423 C420 0.931 . S
H424 C400 0.930 . S
H425 C397 0.930 . S
H426 C406 0.930 . S
H427 C418 0.929 . S
H428 C421 0.930 . S
C429 C430 1.351 . S
C429 N432 1.368 . S
C429 H434 0.931 . S
C430 C429 1.351 . S
C430 N431 1.373 . S
C430 H458 0.930 . S
N431 C430 1.373 . S
N431 C433 1.340 . S
N432 C429 1.368 . S
N432 C433 1.321 . S
N432 Co435 2.135 . S
C433 N431 1.340 . S
C433 N432 1.321 . S
C433 H457 0.930 . S
H434 C429 0.931 . S
Co435 N432 2.135 . S
Co435 N438 2.121 . S
Co435 O443 2.055 . S
Co435 O446 2.039 . S
Co435 N449 2.140 . S
C436 O437 1.227 . S
C436 O446 1.265 . S
O437 C436 1.227 . S
N438 Co435 2.121 . S
N438 C440 1.375 . S
N438 C441 1.313 . S
C439 C440 1.338 . S
C439 N442 1.377 . S
C439 H459 0.930 . S
C440 N438 1.375 . S
C440 C439 1.338 . S
C440 H444 0.931 . S
C441 N438 1.313 . S
C441 N442 1.344 . S
C441 H445 0.930 . S
N442 C439 1.377 . S
N442 C441 1.344 . S
O443 Co435 2.055 . S
O443 C447 1.253 . S
H444 C440 0.931 . S
H445 C441 0.930 . S
O446 Co435 2.039 . S
O446 C436 1.265 . S
C447 O443 1.253 . S
C447 O448 1.227 . S
O448 C447 1.227 . S
N449 Co435 2.140 . S
N449 C452 1.346 . S
N449 C453 1.345 . S
C450 C451 1.387 . S
C450 C454 1.391 . S
C451 C450 1.387 . S
C451 C452 1.369 . S
C451 H460 0.929 . S
C452 N449 1.346 . S
C452 C451 1.369 . S
C452 H455 0.928 . S
C453 N449 1.345 . S
C453 C454 1.371 . S
C453 H456 0.931 . S
C454 C450 1.391 . S
C454 C453 1.371 . S
C454 H461 0.930 . S
H455 C452 0.928 . S
H456 C453 0.931 . S
H457 C433 0.930 . S
H458 C430 0.930 . S
H459 C439 0.930 . S
H460 C451 0.929 . S
H461 C454 0.930 . S
C462 C463 1.351 . S
C462 N465 1.368 . S
C462 H467 0.931 . S
C463 C462 1.351 . S
C463 N464 1.373 . S
C463 H491 0.930 . S
N464 C463 1.373 . S
N464 C466 1.340 . S
N465 C462 1.368 . S
N465 C466 1.321 . S
N465 Co468 2.135 . S
C466 N464 1.340 . S
C466 N465 1.321 . S
C466 H490 0.930 . S
H467 C462 0.931 . S
Co468 N465 2.135 . S
Co468 N471 2.121 . S
Co468 O476 2.055 . S
Co468 O479 2.039 . S
Co468 N482 2.140 . S
C469 O470 1.227 . S
C469 O479 1.265 . S
O470 C469 1.227 . S
N471 Co468 2.121 . S
N471 C473 1.375 . S
N471 C474 1.313 . S
C472 C473 1.338 . S
C472 N475 1.377 . S
C472 H492 0.930 . S
C473 N471 1.375 . S
C473 C472 1.338 . S
C473 H477 0.931 . S
C474 N471 1.313 . S
C474 N475 1.344 . S
C474 H478 0.930 . S
N475 C472 1.377 . S
N475 C474 1.344 . S
O476 Co468 2.055 . S
O476 C480 1.253 . S
H477 C473 0.931 . S
H478 C474 0.930 . S
O479 Co468 2.039 . S
O479 C469 1.265 . S
C480 O476 1.253 . S
C480 O481 1.227 . S
O481 C480 1.227 . S
N482 Co468 2.140 . S
N482 C485 1.346 . S
N482 C486 1.345 . S
C483 C484 1.387 . S
C483 C487 1.391 . S
C484 C483 1.387 . S
C484 C485 1.369 . S
C484 H493 0.929 . S
C485 N482 1.346 . S
C485 C484 1.369 . S
C485 H488 0.928 . S
C486 N482 1.345 . S
C486 C487 1.371 . S
C486 H489 0.931 . S
C487 C483 1.391 . S
C487 C486 1.371 . S
C487 H494 0.930 . S
H488 C485 0.928 . S
H489 C486 0.931 . S
H490 C466 0.930 . S
H491 C463 0.930 . S
H492 C472 0.930 . S
H493 C484 0.929 . S
H494 C487 0.930 . S
C495 C496 1.351 . S
C495 N498 1.368 . S
C495 H500 0.931 . S
C496 C495 1.351 . S
C496 N497 1.373 . S
C496 H524 0.930 . S
N497 C496 1.373 . S
N497 C499 1.340 . S
N498 C495 1.368 . S
N498 C499 1.321 . S
N498 Co501 2.135 . S
C499 N497 1.340 . S
C499 N498 1.321 . S
C499 H523 0.930 . S
H500 C495 0.931 . S
Co501 N498 2.135 . S
Co501 N504 2.121 . S
Co501 O509 2.055 . S
Co501 O512 2.039 . S
Co501 N515 2.140 . S
C502 O503 1.227 . S
C502 O512 1.265 . S
O503 C502 1.227 . S
N504 Co501 2.121 . S
N504 C506 1.375 . S
N504 C507 1.313 . S
C505 C506 1.338 . S
C505 N508 1.377 . S
C505 H525 0.930 . S
C506 N504 1.375 . S
C506 C505 1.338 . S
C506 H510 0.931 . S
C507 N504 1.313 . S
C507 N508 1.344 . S
C507 H511 0.930 . S
N508 C505 1.377 . S
N508 C507 1.344 . S
O509 Co501 2.055 . S
O509 C513 1.253 . S
H510 C506 0.931 . S
H511 C507 0.930 . S
O512 Co501 2.039 . S
O512 C502 1.265 . S
C513 O509 1.253 . S
C513 O514 1.227 . S
O514 C513 1.227 . S
N515 Co501 2.140 . S
N515 C518 1.346 . S
N515 C519 1.345 . S
C516 C517 1.387 . S
C516 C520 1.391 . S
C517 C516 1.387 . S
C517 C518 1.369 . S
C517 H526 0.929 . S
C518 N515 1.346 . S
C518 C517 1.369 . S
C518 H521 0.928 . S
C519 N515 1.345 . S
C519 C520 1.371 . S
C519 H522 0.931 . S
C520 C516 1.391 . S
C520 C519 1.371 . S
C520 H527 0.930 . S
H521 C518 0.928 . S
H522 C519 0.931 . S
H523 C499 0.930 . S
H524 C496 0.930 . S
H525 C505 0.930 . S
H526 C517 0.929 . S
H527 C520 0.930 . S
C528 C529 1.351 . S
C528 N531 1.368 . S
C528 H533 0.931 . S
C529 C528 1.351 . S
C529 N530 1.373 . S
C529 H557 0.930 . S
N530 C529 1.373 . S
N530 C532 1.340 . S
N531 C528 1.368 . S
N531 C532 1.321 . S
N531 Co534 2.135 . S
C532 N530 1.340 . S
C532 N531 1.321 . S
C532 H556 0.930 . S
H533 C528 0.931 . S
Co534 N531 2.135 . S
Co534 N537 2.121 . S
Co534 O542 2.055 . S
Co534 O545 2.039 . S
Co534 N548 2.140 . S
C535 O536 1.227 . S
C535 O545 1.265 . S
O536 C535 1.227 . S
N537 Co534 2.121 . S
N537 C539 1.375 . S
N537 C540 1.313 . S
C538 C539 1.338 . S
C538 N541 1.377 . S
C538 H558 0.930 . S
C539 N537 1.375 . S
C539 C538 1.338 . S
C539 H543 0.931 . S
C540 N537 1.313 . S
C540 N541 1.344 . S
C540 H544 0.930 . S
N541 C538 1.377 . S
N541 C540 1.344 . S
O542 Co534 2.055 . S
O542 C546 1.253 . S
H543 C539 0.931 . S
H544 C540 0.930 . S
O545 Co534 2.039 . S
O545 C535 1.265 . S
C546 O542 1.253 . S
C546 O547 1.227 . S
O547 C546 1.227 . S
N548 Co534 2.140 . S
N548 C551 1.346 . S
N548 C552 1.345 . S
C549 C550 1.387 . S
C549 C553 1.391 . S
C550 C549 1.387 . S
C550 C551 1.369 . S
C550 H559 0.929 . S
C551 N548 1.346 . S
C551 C550 1.369 . S
C551 H554 0.928 . S
C552 N548 1.345 . S
C552 C553 1.371 . S
C552 H555 0.931 . S
C553 C549 1.391 . S
C553 C552 1.371 . S
C553 H560 0.930 . S
H554 C551 0.928 . S
H555 C552 0.931 . S
H556 C532 0.930 . S
H557 C529 0.930 . S
H558 C538 0.930 . S
H559 C550 0.929 . S
H560 C553 0.930 . S
C561 C562 1.351 . S
C561 N564 1.368 . S
C561 H566 0.931 . S
C562 C561 1.351 . S
C562 N563 1.373 . S
C562 H590 0.930 . S
N563 C562 1.373 . S
N563 C565 1.340 . S
N564 C561 1.368 . S
N564 C565 1.321 . S
N564 Co567 2.135 . S
C565 N563 1.340 . S
C565 N564 1.321 . S
C565 H589 0.930 . S
H566 C561 0.931 . S
Co567 N564 2.135 . S
Co567 N570 2.121 . S
Co567 O575 2.055 . S
Co567 O578 2.039 . S
Co567 N581 2.140 . S
C568 O569 1.227 . S
C568 O578 1.265 . S
O569 C568 1.227 . S
N570 Co567 2.121 . S
N570 C572 1.375 . S
N570 C573 1.313 . S
C571 C572 1.338 . S
C571 N574 1.377 . S
C571 H591 0.930 . S
C572 N570 1.375 . S
C572 C571 1.338 . S
C572 H576 0.931 . S
C573 N570 1.313 . S
C573 N574 1.344 . S
C573 H577 0.930 . S
N574 C571 1.377 . S
N574 C573 1.344 . S
O575 Co567 2.055 . S
O575 C579 1.253 . S
H576 C572 0.931 . S
H577 C573 0.930 . S
O578 Co567 2.039 . S
O578 C568 1.265 . S
C579 O575 1.253 . S
C579 O580 1.227 . S
O580 C579 1.227 . S
N581 Co567 2.140 . S
N581 C584 1.346 . S
N581 C585 1.345 . S
C582 C583 1.387 . S
C582 C586 1.391 . S
C583 C582 1.387 . S
C583 C584 1.369 . S
C583 H592 0.929 . S
C584 N581 1.346 . S
C584 C583 1.369 . S
C584 H587 0.928 . S
C585 N581 1.345 . S
C585 C586 1.371 . S
C585 H588 0.931 . S
C586 C582 1.391 . S
C586 C585 1.371 . S
C586 H593 0.930 . S
H587 C584 0.928 . S
H588 C585 0.931 . S
H589 C565 0.930 . S
H590 C562 0.930 . S
H591 C571 0.930 . S
H592 C583 0.929 . S
H593 C586 0.930 . S
C594 C595 1.351 . S
C594 N597 1.368 . S
C594 H599 0.931 . S
C595 C594 1.351 . S
C595 N596 1.373 . S
C595 H623 0.930 . S
N596 C595 1.373 . S
N596 C598 1.340 . S
N597 C594 1.368 . S
N597 C598 1.321 . S
N597 Co600 2.135 . S
C598 N596 1.340 . S
C598 N597 1.321 . S
C598 H622 0.930 . S
H599 C594 0.931 . S
Co600 N597 2.135 . S
Co600 N603 2.121 . S
Co600 O608 2.055 . S
Co600 O611 2.039 . S
Co600 N614 2.140 . S
C601 O602 1.227 . S
C601 O611 1.265 . S
O602 C601 1.227 . S
N603 Co600 2.121 . S
N603 C605 1.375 . S
N603 C606 1.313 . S
C604 C605 1.338 . S
C604 N607 1.377 . S
C604 H624 0.930 . S
C605 N603 1.375 . S
C605 C604 1.338 . S
C605 H609 0.931 . S
C606 N603 1.313 . S
C606 N607 1.344 . S
C606 H610 0.930 . S
N607 C604 1.377 . S
N607 C606 1.344 . S
O608 Co600 2.055 . S
O608 C612 1.253 . S
H609 C605 0.931 . S
H610 C606 0.930 . S
O611 Co600 2.039 . S
O611 C601 1.265 . S
C612 O608 1.253 . S
C612 O613 1.227 . S
O613 C612 1.227 . S
N614 Co600 2.140 . S
N614 C617 1.346 . S
N614 C618 1.345 . S
C615 C616 1.387 . S
C615 C619 1.391 . S
C616 C615 1.387 . S
C616 C617 1.369 . S
C616 H625 0.929 . S
C617 N614 1.346 . S
C617 C616 1.369 . S
C617 H620 0.928 . S
C618 N614 1.345 . S
C618 C619 1.371 . S
C618 H621 0.931 . S
C619 C615 1.391 . S
C619 C618 1.371 . S
C619 H626 0.930 . S
H620 C617 0.928 . S
H621 C618 0.931 . S
H622 C598 0.930 . S
H623 C595 0.930 . S
H624 C604 0.930 . S
H625 C616 0.929 . S
H626 C619 0.930 . S
C627 C628 1.351 . S
C627 N630 1.368 . S
C627 H632 0.931 . S
C628 C627 1.351 . S
C628 N629 1.373 . S
C628 H656 0.930 . S
N629 C628 1.373 . S
N629 C631 1.340 . S
N630 C627 1.368 . S
N630 C631 1.321 . S
N630 Co633 2.135 . S
C631 N629 1.340 . S
C631 N630 1.321 . S
C631 H655 0.930 . S
H632 C627 0.931 . S
Co633 N630 2.135 . S
Co633 N636 2.121 . S
Co633 O641 2.055 . S
Co633 O644 2.039 . S
Co633 N647 2.140 . S
C634 O635 1.227 . S
C634 O644 1.265 . S
O635 C634 1.227 . S
N636 Co633 2.121 . S
N636 C638 1.375 . S
N636 C639 1.313 . S
C637 C638 1.338 . S
C637 N640 1.377 . S
C637 H657 0.930 . S
C638 N636 1.375 . S
C638 C637 1.338 . S
C638 H642 0.931 . S
C639 N636 1.313 . S
C639 N640 1.344 . S
C639 H643 0.930 . S
N640 C637 1.377 . S
N640 C639 1.344 . S
O641 Co633 2.055 . S
O641 C645 1.253 . S
H642 C638 0.931 . S
H643 C639 0.930 . S
O644 Co633 2.039 . S
O644 C634 1.265 . S
C645 O641 1.253 . S
C645 O646 1.227 . S
O646 C645 1.227 . S
N647 Co633 2.140 . S
N647 C650 1.346 . S
N647 C651 1.345 . S
C648 C649 1.387 . S
C648 C652 1.391 . S
C649 C648 1.387 . S
C649 C650 1.369 . S
C649 H658 0.929 . S
C650 N647 1.346 . S
C650 C649 1.369 . S
C650 H653 0.928 . S
C651 N647 1.345 . S
C651 C652 1.371 . S
C651 H654 0.931 . S
C652 C648 1.391 . S
C652 C651 1.371 . S
C652 H659 0.930 . S
H653 C650 0.928 . S
H654 C651 0.931 . S
H655 C631 0.930 . S
H656 C628 0.930 . S
H657 C637 0.930 . S
H658 C649 0.929 . S
H659 C652 0.930 . S
C660 C661 1.351 . S
C660 N663 1.368 . S
C660 H665 0.931 . S
C661 C660 1.351 . S
C661 N662 1.373 . S
C661 H689 0.930 . S
N662 C661 1.373 . S
N662 C664 1.340 . S
N663 C660 1.368 . S
N663 C664 1.321 . S
N663 Co666 2.135 . S
C664 N662 1.340 . S
C664 N663 1.321 . S
C664 H688 0.930 . S
H665 C660 0.931 . S
Co666 N663 2.135 . S
Co666 N669 2.121 . S
Co666 O674 2.055 . S
Co666 O677 2.039 . S
Co666 N680 2.140 . S
C667 O668 1.227 . S
C667 O677 1.265 . S
O668 C667 1.227 . S
N669 Co666 2.121 . S
N669 C671 1.375 . S
N669 C672 1.313 . S
C670 C671 1.338 . S
C670 N673 1.377 . S
C670 H690 0.930 . S
C671 N669 1.375 . S
C671 C670 1.338 . S
C671 H675 0.931 . S
C672 N669 1.313 . S
C672 N673 1.344 . S
C672 H676 0.930 . S
N673 C670 1.377 . S
N673 C672 1.344 . S
O674 Co666 2.055 . S
O674 C678 1.253 . S
H675 C671 0.931 . S
H676 C672 0.930 . S
O677 Co666 2.039 . S
O677 C667 1.265 . S
C678 O674 1.253 . S
C678 O679 1.227 . S
O679 C678 1.227 . S
N680 Co666 2.140 . S
N680 C683 1.346 . S
N680 C684 1.345 . S
C681 C682 1.387 . S
C681 C685 1.391 . S
C682 C681 1.387 . S
C682 C683 1.369 . S
C682 H691 0.929 . S
C683 N680 1.346 . S
C683 C682 1.369 . S
C683 H686 0.928 . S
C684 N680 1.345 . S
C684 C685 1.371 . S
C684 H687 0.931 . S
C685 C681 1.391 . S
C685 C684 1.371 . S
C685 H692 0.930 . S
H686 C683 0.928 . S
H687 C684 0.931 . S
H688 C664 0.930 . S
H689 C661 0.930 . S
H690 C670 0.930 . S
H691 C682 0.929 . S
H692 C685 0.930 . S
C693 C694 1.351 . S
C693 N696 1.368 . S
C693 H698 0.931 . S
C694 C693 1.351 . S
C694 N695 1.373 . S
C694 H722 0.930 . S
N695 C694 1.373 . S
N695 C697 1.340 . S
N696 C693 1.368 . S
N696 C697 1.321 . S
N696 Co699 2.135 . S
C697 N695 1.340 . S
C697 N696 1.321 . S
C697 H721 0.930 . S
H698 C693 0.931 . S
Co699 N696 2.135 . S
Co699 N702 2.121 . S
Co699 O707 2.055 . S
Co699 O710 2.039 . S
Co699 N713 2.140 . S
C700 O701 1.227 . S
C700 O710 1.265 . S
O701 C700 1.227 . S
N702 Co699 2.121 . S
N702 C704 1.375 . S
N702 C705 1.313 . S
C703 C704 1.338 . S
C703 N706 1.377 . S
C703 H723 0.930 . S
C704 N702 1.375 . S
C704 C703 1.338 . S
C704 H708 0.931 . S
C705 N702 1.313 . S
C705 N706 1.344 . S
C705 H709 0.930 . S
N706 C703 1.377 . S
N706 C705 1.344 . S
O707 Co699 2.055 . S
O707 C711 1.253 . S
H708 C704 0.931 . S
H709 C705 0.930 . S
O710 Co699 2.039 . S
O710 C700 1.265 . S
C711 O707 1.253 . S
C711 O712 1.227 . S
O712 C711 1.227 . S
N713 Co699 2.140 . S
N713 C716 1.346 . S
N713 C717 1.345 . S
C714 C715 1.387 . S
C714 C718 1.391 . S
C715 C714 1.387 . S
C715 C716 1.369 . S
C715 H724 0.929 . S
C716 N713 1.346 . S
C716 C715 1.369 . S
C716 H719 0.928 . S
C717 N713 1.345 . S
C717 C718 1.371 . S
C717 H720 0.931 . S
C718 C714 1.391 . S
C718 C717 1.371 . S
C718 H725 0.930 . S
H719 C716 0.928 . S
H720 C717 0.931 . S
H721 C697 0.930 . S
H722 C694 0.930 . S
H723 C703 0.930 . S
H724 C715 0.929 . S
H725 C718 0.930 . S
C726 C727 1.351 . S
C726 N729 1.368 . S
C726 H731 0.931 . S
C727 C726 1.351 . S
C727 N728 1.373 . S
C727 H755 0.930 . S
N728 C727 1.373 . S
N728 C730 1.340 . S
N729 C726 1.368 . S
N729 C730 1.321 . S
N729 Co732 2.135 . S
C730 N728 1.340 . S
C730 N729 1.321 . S
C730 H754 0.930 . S
H731 C726 0.931 . S
Co732 N729 2.135 . S
Co732 N735 2.121 . S
Co732 O740 2.055 . S
Co732 O743 2.039 . S
Co732 N746 2.140 . S
C733 O734 1.227 . S
C733 O743 1.265 . S
O734 C733 1.227 . S
N735 Co732 2.121 . S
N735 C737 1.375 . S
N735 C738 1.313 . S
C736 C737 1.338 . S
C736 N739 1.377 . S
C736 H756 0.930 . S
C737 N735 1.375 . S
C737 C736 1.338 . S
C737 H741 0.931 . S
C738 N735 1.313 . S
C738 N739 1.344 . S
C738 H742 0.930 . S
N739 C736 1.377 . S
N739 C738 1.344 . S
O740 Co732 2.055 . S
O740 C744 1.253 . S
H741 C737 0.931 . S
H742 C738 0.930 . S
O743 Co732 2.039 . S
O743 C733 1.265 . S
C744 O740 1.253 . S
C744 O745 1.227 . S
O745 C744 1.227 . S
N746 Co732 2.140 . S
N746 C749 1.346 . S
N746 C750 1.345 . S
C747 C748 1.387 . S
C747 C751 1.391 . S
C748 C747 1.387 . S
C748 C749 1.369 . S
C748 H757 0.929 . S
C749 N746 1.346 . S
C749 C748 1.369 . S
C749 H752 0.928 . S
C750 N746 1.345 . S
C750 C751 1.371 . S
C750 H753 0.931 . S
C751 C747 1.391 . S
C751 C750 1.371 . S
C751 H758 0.930 . S
H752 C749 0.928 . S
H753 C750 0.931 . S
H754 C730 0.930 . S
H755 C727 0.930 . S
H756 C736 0.930 . S
H757 C748 0.929 . S
H758 C751 0.930 . S
C759 C760 1.351 . S
C759 N762 1.368 . S
C759 H764 0.931 . S
C760 C759 1.351 . S
C760 N761 1.373 . S
C760 H788 0.930 . S
N761 C760 1.373 . S
N761 C763 1.340 . S
N762 C759 1.368 . S
N762 C763 1.321 . S
N762 Co765 2.135 . S
C763 N761 1.340 . S
C763 N762 1.321 . S
C763 H787 0.930 . S
H764 C759 0.931 . S
Co765 N762 2.135 . S
Co765 N768 2.121 . S
Co765 O773 2.055 . S
Co765 O776 2.039 . S
Co765 N779 2.140 . S
C766 O767 1.227 . S
C766 O776 1.265 . S
O767 C766 1.227 . S
N768 Co765 2.121 . S
N768 C770 1.375 . S
N768 C771 1.313 . S
C769 C770 1.338 . S
C769 N772 1.377 . S
C769 H789 0.930 . S
C770 N768 1.375 . S
C770 C769 1.338 . S
C770 H774 0.931 . S
C771 N768 1.313 . S
C771 N772 1.344 . S
C771 H775 0.930 . S
N772 C769 1.377 . S
N772 C771 1.344 . S
O773 Co765 2.055 . S
O773 C777 1.253 . S
H774 C770 0.931 . S
H775 C771 0.930 . S
O776 Co765 2.039 . S
O776 C766 1.265 . S
C777 O773 1.253 . S
C777 O778 1.227 . S
O778 C777 1.227 . S
N779 Co765 2.140 . S
N779 C782 1.346 . S
N779 C783 1.345 . S
C780 C781 1.387 . S
C780 C784 1.391 . S
C781 C780 1.387 . S
C781 C782 1.369 . S
C781 H790 0.929 . S
C782 N779 1.346 . S
C782 C781 1.369 . S
C782 H785 0.928 . S
C783 N779 1.345 . S
C783 C784 1.371 . S
C783 H786 0.931 . S
C784 C780 1.391 . S
C784 C783 1.371 . S
C784 H791 0.930 . S
H785 C782 0.928 . S
H786 C783 0.931 . S
H787 C763 0.930 . S
H788 C760 0.930 . S
H789 C769 0.930 . S
H790 C781 0.929 . S
H791 C784 0.930 . S
C792 C793 1.351 . S
C792 N795 1.368 . S
C792 H797 0.931 . S
C793 C792 1.351 . S
C793 N794 1.373 . S
C793 H821 0.930 . S
N794 C793 1.373 . S
N794 C796 1.340 . S
N795 C792 1.368 . S
N795 C796 1.321 . S
N795 Co798 2.135 . S
C796 N794 1.340 . S
C796 N795 1.321 . S
C796 H820 0.930 . S
H797 C792 0.931 . S
Co798 N795 2.135 . S
Co798 N801 2.121 . S
Co798 O806 2.055 . S
Co798 O809 2.039 . S
Co798 N812 2.140 . S
C799 O800 1.227 . S
C799 O809 1.265 . S
O800 C799 1.227 . S
N801 Co798 2.121 . S
N801 C803 1.375 . S
N801 C804 1.313 . S
C802 C803 1.338 . S
C802 N805 1.377 . S
C802 H822 0.930 . S
C803 N801 1.375 . S
C803 C802 1.338 . S
C803 H807 0.931 . S
C804 N801 1.313 . S
C804 N805 1.344 . S
C804 H808 0.930 . S
N805 C802 1.377 . S
N805 C804 1.344 . S
O806 Co798 2.055 . S
O806 C810 1.253 . S
H807 C803 0.931 . S
H808 C804 0.930 . S
O809 Co798 2.039 . S
O809 C799 1.265 . S
C810 O806 1.253 . S
C810 O811 1.227 . S
O811 C810 1.227 . S
N812 Co798 2.140 . S
N812 C815 1.346 . S
N812 C816 1.345 . S
C813 C814 1.387 . S
C813 C817 1.391 . S
C814 C813 1.387 . S
C814 C815 1.369 . S
C814 H823 0.929 . S
C815 N812 1.346 . S
C815 C814 1.369 . S
C815 H818 0.928 . S
C816 N812 1.345 . S
C816 C817 1.371 . S
C816 H819 0.931 . S
C817 C813 1.391 . S
C817 C816 1.371 . S
C817 H824 0.930 . S
H818 C815 0.928 . S
H819 C816 0.931 . S
H820 C796 0.930 . S
H821 C793 0.930 . S
H822 C802 0.930 . S
H823 C814 0.929 . S
H824 C817 0.930 . S
C825 C826 1.351 . S
C825 N828 1.368 . S
C825 H830 0.931 . S
C826 C825 1.351 . S
C826 N827 1.373 . S
C826 H854 0.930 . S
N827 C826 1.373 . S
N827 C829 1.340 . S
N828 C825 1.368 . S
N828 C829 1.321 . S
N828 Co831 2.135 . S
C829 N827 1.340 . S
C829 N828 1.321 . S
C829 H853 0.930 . S
H830 C825 0.931 . S
Co831 N828 2.135 . S
Co831 N834 2.121 . S
Co831 O839 2.055 . S
Co831 O842 2.039 . S
Co831 N845 2.140 . S
C832 O833 1.227 . S
C832 O842 1.265 . S
O833 C832 1.227 . S
N834 Co831 2.121 . S
N834 C836 1.375 . S
N834 C837 1.313 . S
C835 C836 1.338 . S
C835 N838 1.377 . S
C835 H855 0.930 . S
C836 N834 1.375 . S
C836 C835 1.338 . S
C836 H840 0.931 . S
C837 N834 1.313 . S
C837 N838 1.344 . S
C837 H841 0.930 . S
N838 C835 1.377 . S
N838 C837 1.344 . S
O839 Co831 2.055 . S
O839 C843 1.253 . S
H840 C836 0.931 . S
H841 C837 0.930 . S
O842 Co831 2.039 . S
O842 C832 1.265 . S
C843 O839 1.253 . S
C843 O844 1.227 . S
O844 C843 1.227 . S
N845 Co831 2.140 . S
N845 C848 1.346 . S
N845 C849 1.345 . S
C846 C847 1.387 . S
C846 C850 1.391 . S
C847 C846 1.387 . S
C847 C848 1.369 . S
C847 H856 0.929 . S
C848 N845 1.346 . S
C848 C847 1.369 . S
C848 H851 0.928 . S
C849 N845 1.345 . S
C849 C850 1.371 . S
C849 H852 0.931 . S
C850 C846 1.391 . S
C850 C849 1.371 . S
C850 H857 0.930 . S
H851 C848 0.928 . S
H852 C849 0.931 . S
H853 C829 0.930 . S
H854 C826 0.930 . S
H855 C835 0.930 . S
H856 C847 0.929 . S
H857 C850 0.930 . S
C858 C859 1.351 . S
C858 N861 1.368 . S
C858 H863 0.931 . S
C859 C858 1.351 . S
C859 N860 1.373 . S
C859 H887 0.930 . S
N860 C859 1.373 . S
N860 C862 1.340 . S
N861 C858 1.368 . S
N861 C862 1.321 . S
N861 Co864 2.135 . S
C862 N860 1.340 . S
C862 N861 1.321 . S
C862 H886 0.930 . S
H863 C858 0.931 . S
Co864 N861 2.135 . S
Co864 N867 2.121 . S
Co864 O872 2.055 . S
Co864 O875 2.039 . S
Co864 N878 2.140 . S
C865 O866 1.227 . S
C865 O875 1.265 . S
O866 C865 1.227 . S
N867 Co864 2.121 . S
N867 C869 1.375 . S
N867 C870 1.313 . S
C868 C869 1.338 . S
C868 N871 1.377 . S
C868 H888 0.930 . S
C869 N867 1.375 . S
C869 C868 1.338 . S
C869 H873 0.931 . S
C870 N867 1.313 . S
C870 N871 1.344 . S
C870 H874 0.930 . S
N871 C868 1.377 . S
N871 C870 1.344 . S
O872 Co864 2.055 . S
O872 C876 1.253 . S
H873 C869 0.931 . S
H874 C870 0.930 . S
O875 Co864 2.039 . S
O875 C865 1.265 . S
C876 O872 1.253 . S
C876 O877 1.227 . S
O877 C876 1.227 . S
N878 Co864 2.140 . S
N878 C881 1.346 . S
N878 C882 1.345 . S
C879 C880 1.387 . S
C879 C883 1.391 . S
C880 C879 1.387 . S
C880 C881 1.369 . S
C880 H889 0.929 . S
C881 N878 1.346 . S
C881 C880 1.369 . S
C881 H884 0.928 . S
C882 N878 1.345 . S
C882 C883 1.371 . S
C882 H885 0.931 . S
C883 C879 1.391 . S
C883 C882 1.371 . S
C883 H890 0.930 . S
H884 C881 0.928 . S
H885 C882 0.931 . S
H886 C862 0.930 . S
H887 C859 0.930 . S
H888 C868 0.930 . S
H889 C880 0.929 . S
H890 C883 0.930 . S
C891 C892 1.351 . S
C891 N894 1.368 . S
C891 H896 0.931 . S
C892 C891 1.351 . S
C892 N893 1.373 . S
C892 H920 0.930 . S
N893 C892 1.373 . S
N893 C895 1.340 . S
N894 C891 1.368 . S
N894 C895 1.321 . S
N894 Co897 2.135 . S
C895 N893 1.340 . S
C895 N894 1.321 . S
C895 H919 0.930 . S
H896 C891 0.931 . S
Co897 N894 2.135 . S
Co897 N900 2.121 . S
Co897 O905 2.055 . S
Co897 O908 2.039 . S
Co897 N911 2.140 . S
C898 O899 1.227 . S
C898 O908 1.265 . S
O899 C898 1.227 . S
N900 Co897 2.121 . S
N900 C902 1.375 . S
N900 C903 1.313 . S
C901 C902 1.338 . S
C901 N904 1.377 . S
C901 H921 0.930 . S
C902 N900 1.375 . S
C902 C901 1.338 . S
C902 H906 0.931 . S
C903 N900 1.313 . S
C903 N904 1.344 . S
C903 H907 0.930 . S
N904 C901 1.377 . S
N904 C903 1.344 . S
O905 Co897 2.055 . S
O905 C909 1.253 . S
H906 C902 0.931 . S
H907 C903 0.930 . S
O908 Co897 2.039 . S
O908 C898 1.265 . S
C909 O905 1.253 . S
C909 O910 1.227 . S
O910 C909 1.227 . S
N911 Co897 2.140 . S
N911 C914 1.346 . S
N911 C915 1.345 . S
C912 C913 1.387 . S
C912 C916 1.391 . S
C913 C912 1.387 . S
C913 C914 1.369 . S
C913 H922 0.929 . S
C914 N911 1.346 . S
C914 C913 1.369 . S
C914 H917 0.928 . S
C915 N911 1.345 . S
C915 C916 1.371 . S
C915 H918 0.931 . S
C916 C912 1.391 . S
C916 C915 1.371 . S
C916 H923 0.930 . S
H917 C914 0.928 . S
H918 C915 0.931 . S
H919 C895 0.930 . S
H920 C892 0.930 . S
H921 C901 0.930 . S
H922 C913 0.929 . S
H923 C916 0.930 . S
C924 C925 1.351 . S
C924 N927 1.368 . S
C924 H929 0.931 . S
C925 C924 1.351 . S
C925 N926 1.373 . S
C925 H953 0.930 . S
N926 C925 1.373 . S
N926 C928 1.340 . S
N927 C924 1.368 . S
N927 C928 1.321 . S
N927 Co930 2.135 . S
C928 N926 1.340 . S
C928 N927 1.321 . S
C928 H952 0.930 . S
H929 C924 0.931 . S
Co930 N927 2.135 . S
Co930 N933 2.121 . S
Co930 O938 2.055 . S
Co930 O941 2.039 . S
Co930 N944 2.140 . S
C931 O932 1.227 . S
C931 O941 1.265 . S
O932 C931 1.227 . S
N933 Co930 2.121 . S
N933 C935 1.375 . S
N933 C936 1.313 . S
C934 C935 1.338 . S
C934 N937 1.377 . S
C934 H954 0.930 . S
C935 N933 1.375 . S
C935 C934 1.338 . S
C935 H939 0.931 . S
C936 N933 1.313 . S
C936 N937 1.344 . S
C936 H940 0.930 . S
N937 C934 1.377 . S
N937 C936 1.344 . S
O938 Co930 2.055 . S
O938 C942 1.253 . S
H939 C935 0.931 . S
H940 C936 0.930 . S
O941 Co930 2.039 . S
O941 C931 1.265 . S
C942 O938 1.253 . S
C942 O943 1.227 . S
O943 C942 1.227 . S
N944 Co930 2.140 . S
N944 C947 1.346 . S
N944 C948 1.345 . S
C945 C946 1.387 . S
C945 C949 1.391 . S
C946 C945 1.387 . S
C946 C947 1.369 . S
C946 H955 0.929 . S
C947 N944 1.346 . S
C947 C946 1.369 . S
C947 H950 0.928 . S
C948 N944 1.345 . S
C948 C949 1.371 . S
C948 H951 0.931 . S
C949 C945 1.391 . S
C949 C948 1.371 . S
C949 H956 0.930 . S
H950 C947 0.928 . S
H951 C948 0.931 . S
H952 C928 0.930 . S
H953 C925 0.930 . S
H954 C934 0.930 . S
H955 C946 0.929 . S
H956 C949 0.930 . S
C957 C958 1.351 . S
C957 N960 1.368 . S
C957 H962 0.931 . S
C958 C957 1.351 . S
C958 N959 1.373 . S
C958 H986 0.930 . S
N959 C958 1.373 . S
N959 C961 1.340 . S
N960 C957 1.368 . S
N960 C961 1.321 . S
N960 Co963 2.135 . S
C961 N959 1.340 . S
C961 N960 1.321 . S
C961 H985 0.930 . S
H962 C957 0.931 . S
Co963 N960 2.135 . S
Co963 N966 2.121 . S
Co963 O971 2.055 . S
Co963 O974 2.039 . S
Co963 N977 2.140 . S
C964 O965 1.227 . S
C964 O974 1.265 . S
O965 C964 1.227 . S
N966 Co963 2.121 . S
N966 C968 1.375 . S
N966 C969 1.313 . S
C967 C968 1.338 . S
C967 N970 1.377 . S
C967 H987 0.930 . S
C968 N966 1.375 . S
C968 C967 1.338 . S
C968 H972 0.931 . S
C969 N966 1.313 . S
C969 N970 1.344 . S
C969 H973 0.930 . S
N970 C967 1.377 . S
N970 C969 1.344 . S
O971 Co963 2.055 . S
O971 C975 1.253 . S
H972 C968 0.931 . S
H973 C969 0.930 . S
O974 Co963 2.039 . S
O974 C964 1.265 . S
C975 O971 1.253 . S
C975 O976 1.227 . S
O976 C975 1.227 . S
N977 Co963 2.140 . S
N977 C980 1.346 . S
N977 C981 1.345 . S
C978 C979 1.387 . S
C978 C982 1.391 . S
C979 C978 1.387 . S
C979 C980 1.369 . S
C979 H988 0.929 . S
C980 N977 1.346 . S
C980 C979 1.369 . S
C980 H983 0.928 . S
C981 N977 1.345 . S
C981 C982 1.371 . S
C981 H984 0.931 . S
C982 C978 1.391 . S
C982 C981 1.371 . S
C982 H989 0.930 . S
H983 C980 0.928 . S
H984 C981 0.931 . S
H985 C961 0.930 . S
H986 C958 0.930 . S
H987 C967 0.930 . S
H988 C979 0.929 . S
H989 C982 0.930 . S
C990 C991 1.351 . S
C990 N993 1.368 . S
C990 H995 0.931 . S
C991 C990 1.351 . S
C991 N992 1.373 . S
C991 H1019 0.930 . S
N992 C991 1.373 . S
N992 C994 1.340 . S
N993 C990 1.368 . S
N993 C994 1.321 . S
N993 Co996 2.135 . S
C994 N992 1.340 . S
C994 N993 1.321 . S
C994 H1018 0.930 . S
H995 C990 0.931 . S
Co996 N993 2.135 . S
Co996 N999 2.121 . S
Co996 O1004 2.055 . S
Co996 O1007 2.039 . S
Co996 N1010 2.140 . S
C997 O998 1.227 . S
C997 O1007 1.265 . S
O998 C997 1.227 . S
N999 Co996 2.121 . S
N999 C1001 1.375 . S
N999 C1002 1.313 . S
C1000 C1001 1.338 . S
C1000 N1003 1.377 . S
C1000 H1020 0.930 . S
C1001 N999 1.375 . S
C1001 C1000 1.338 . S
C1001 H1005 0.931 . S
C1002 N999 1.313 . S
C1002 N1003 1.344 . S
C1002 H1006 0.930 . S
N1003 C1000 1.377 . S
N1003 C1002 1.344 . S
O1004 Co996 2.055 . S
O1004 C1008 1.253 . S
H1005 C1001 0.931 . S
H1006 C1002 0.930 . S
O1007 Co996 2.039 . S
O1007 C997 1.265 . S
C1008 O1004 1.253 . S
C1008 O1009 1.227 . S
O1009 C1008 1.227 . S
N1010 Co996 2.140 . S
N1010 C1013 1.346 . S
N1010 C1014 1.345 . S
C1011 C1012 1.387 . S
C1011 C1015 1.391 . S
C1012 C1011 1.387 . S
C1012 C1013 1.369 . S
C1012 H1021 0.929 . S
C1013 N1010 1.346 . S
C1013 C1012 1.369 . S
C1013 H1016 0.928 . S
C1014 N1010 1.345 . S
C1014 C1015 1.371 . S
C1014 H1017 0.931 . S
C1015 C1011 1.391 . S
C1015 C1014 1.371 . S
C1015 H1022 0.930 . S
H1016 C1013 0.928 . S
H1017 C1014 0.931 . S
H1018 C994 0.930 . S
H1019 C991 0.930 . S
H1020 C1000 0.930 . S
H1021 C1012 0.929 . S
H1022 C1015 0.930 . S
C1023 C1024 1.351 . S
C1023 N1026 1.368 . S
C1023 H1028 0.931 . S
C1024 C1023 1.351 . S
C1024 N1025 1.373 . S
C1024 H1052 0.930 . S
N1025 C1024 1.373 . S
N1025 C1027 1.340 . S
N1026 C1023 1.368 . S
N1026 C1027 1.321 . S
N1026 Co1029 2.135 . S
C1027 N1025 1.340 . S
C1027 N1026 1.321 . S
C1027 H1051 0.930 . S
H1028 C1023 0.931 . S
Co1029 N1026 2.135 . S
Co1029 N1032 2.121 . S
Co1029 O1037 2.055 . S
Co1029 O1040 2.039 . S
Co1029 N1043 2.140 . S
C1030 O1031 1.227 . S
C1030 O1040 1.265 . S
O1031 C1030 1.227 . S
N1032 Co1029 2.121 . S
N1032 C1034 1.375 . S
N1032 C1035 1.313 . S
C1033 C1034 1.338 . S
C1033 N1036 1.377 . S
C1033 H1053 0.930 . S
C1034 N1032 1.375 . S
C1034 C1033 1.338 . S
C1034 H1038 0.931 . S
C1035 N1032 1.313 . S
C1035 N1036 1.344 . S
C1035 H1039 0.930 . S
N1036 C1033 1.377 . S
N1036 C1035 1.344 . S
O1037 Co1029 2.055 . S
O1037 C1041 1.253 . S
H1038 C1034 0.931 . S
H1039 C1035 0.930 . S
O1040 Co1029 2.039 . S
O1040 C1030 1.265 . S
C1041 O1037 1.253 . S
C1041 O1042 1.227 . S
O1042 C1041 1.227 . S
N1043 Co1029 2.140 . S
N1043 C1046 1.346 . S
N1043 C1047 1.345 . S
C1044 C1045 1.387 . S
C1044 C1048 1.391 . S
C1045 C1044 1.387 . S
C1045 C1046 1.369 . S
C1045 H1054 0.929 . S
C1046 N1043 1.346 . S
C1046 C1045 1.369 . S
C1046 H1049 0.928 . S
C1047 N1043 1.345 . S
C1047 C1048 1.371 . S
C1047 H1050 0.931 . S
C1048 C1044 1.391 . S
C1048 C1047 1.371 . S
C1048 H1055 0.930 . S
H1049 C1046 0.928 . S
H1050 C1047 0.931 . S
H1051 C1027 0.930 . S
H1052 C1024 0.930 . S
H1053 C1033 0.930 . S
H1054 C1045 0.929 . S
H1055 C1048 0.930 . S
C1056 C1057 1.351 . S
C1056 N1059 1.368 . S
C1056 H1061 0.931 . S
C1057 C1056 1.351 . S
C1057 N1058 1.373 . S
C1057 H1085 0.930 . S
N1058 C1057 1.373 . S
N1058 C1060 1.340 . S
N1059 C1056 1.368 . S
N1059 C1060 1.321 . S
N1059 Co1062 2.135 . S
C1060 N1058 1.340 . S
C1060 N1059 1.321 . S
C1060 H1084 0.930 . S
H1061 C1056 0.931 . S
Co1062 N1059 2.135 . S
Co1062 N1065 2.121 . S
Co1062 O1070 2.055 . S
Co1062 O1073 2.039 . S
Co1062 N1076 2.140 . S
C1063 O1064 1.227 . S
C1063 O1073 1.265 . S
O1064 C1063 1.227 . S
N1065 Co1062 2.121 . S
N1065 C1067 1.375 . S
N1065 C1068 1.313 . S
C1066 C1067 1.338 . S
C1066 N1069 1.377 . S
C1066 H1086 0.930 . S
C1067 N1065 1.375 . S
C1067 C1066 1.338 . S
C1067 H1071 0.931 . S
C1068 N1065 1.313 . S
C1068 N1069 1.344 . S
C1068 H1072 0.930 . S
N1069 C1066 1.377 . S
N1069 C1068 1.344 . S
O1070 Co1062 2.055 . S
O1070 C1074 1.253 . S
H1071 C1067 0.931 . S
H1072 C1068 0.930 . S
O1073 Co1062 2.039 . S
O1073 C1063 1.265 . S
C1074 O1070 1.253 . S
C1074 O1075 1.227 . S
O1075 C1074 1.227 . S
N1076 Co1062 2.140 . S
N1076 C1079 1.346 . S
N1076 C1080 1.345 . S
C1077 C1078 1.387 . S
C1077 C1081 1.391 . S
C1078 C1077 1.387 . S
C1078 C1079 1.369 . S
C1078 H1087 0.929 . S
C1079 N1076 1.346 . S
C1079 C1078 1.369 . S
C1079 H1082 0.928 . S
C1080 N1076 1.345 . S
C1080 C1081 1.371 . S
C1080 H1083 0.931 . S
C1081 C1077 1.391 . S
C1081 C1080 1.371 . S
C1081 H1088 0.930 . S
H1082 C1079 0.928 . S
H1083 C1080 0.931 . S
H1084 C1060 0.930 . S
H1085 C1057 0.930 . S
H1086 C1066 0.930 . S
H1087 C1078 0.929 . S
H1088 C1081 0.930 . S
C1089 C1090 1.351 . S
C1089 N1092 1.368 . S
C1089 H1094 0.931 . S
C1090 C1089 1.351 . S
C1090 N1091 1.373 . S
C1090 H1118 0.930 . S
N1091 C1090 1.373 . S
N1091 C1093 1.340 . S
N1092 C1089 1.368 . S
N1092 C1093 1.321 . S
N1092 Co1095 2.135 . S
C1093 N1091 1.340 . S
C1093 N1092 1.321 . S
C1093 H1117 0.930 . S
H1094 C1089 0.931 . S
Co1095 N1092 2.135 . S
Co1095 N1098 2.121 . S
Co1095 O1103 2.055 . S
Co1095 O1106 2.039 . S
Co1095 N1109 2.140 . S
C1096 O1097 1.227 . S
C1096 O1106 1.265 . S
O1097 C1096 1.227 . S
N1098 Co1095 2.121 . S
N1098 C1100 1.375 . S
N1098 C1101 1.313 . S
C1099 C1100 1.338 . S
C1099 N1102 1.377 . S
C1099 H1119 0.930 . S
C1100 N1098 1.375 . S
C1100 C1099 1.338 . S
C1100 H1104 0.931 . S
C1101 N1098 1.313 . S
C1101 N1102 1.344 . S
C1101 H1105 0.930 . S
N1102 C1099 1.377 . S
N1102 C1101 1.344 . S
O1103 Co1095 2.055 . S
O1103 C1107 1.253 . S
H1104 C1100 0.931 . S
H1105 C1101 0.930 . S
O1106 Co1095 2.039 . S
O1106 C1096 1.265 . S
C1107 O1103 1.253 . S
C1107 O1108 1.227 . S
O1108 C1107 1.227 . S
N1109 Co1095 2.140 . S
N1109 C1112 1.346 . S
N1109 C1113 1.345 . S
C1110 C1111 1.387 . S
C1110 C1114 1.391 . S
C1111 C1110 1.387 . S
C1111 C1112 1.369 . S
C1111 H1120 0.929 . S
C1112 N1109 1.346 . S
C1112 C1111 1.369 . S
C1112 H1115 0.928 . S
C1113 N1109 1.345 . S
C1113 C1114 1.371 . S
C1113 H1116 0.931 . S
C1114 C1110 1.391 . S
C1114 C1113 1.371 . S
C1114 H1121 0.930 . S
H1115 C1112 0.928 . S
H1116 C1113 0.931 . S
H1117 C1093 0.930 . S
H1118 C1090 0.930 . S
H1119 C1099 0.930 . S
H1120 C1111 0.929 . S
H1121 C1114 0.930 . S
C1122 C1123 1.351 . S
C1122 N1125 1.368 . S
C1122 H1127 0.931 . S
C1123 C1122 1.351 . S
C1123 N1124 1.373 . S
C1123 H1151 0.930 . S
N1124 C1123 1.373 . S
N1124 C1126 1.340 . S
N1125 C1122 1.368 . S
N1125 C1126 1.321 . S
N1125 Co1128 2.135 . S
C1126 N1124 1.340 . S
C1126 N1125 1.321 . S
C1126 H1150 0.930 . S
H1127 C1122 0.931 . S
Co1128 N1125 2.135 . S
Co1128 N1131 2.121 . S
Co1128 O1136 2.055 . S
Co1128 O1139 2.039 . S
Co1128 N1142 2.140 . S
C1129 O1130 1.227 . S
C1129 O1139 1.265 . S
O1130 C1129 1.227 . S
N1131 Co1128 2.121 . S
N1131 C1133 1.375 . S
N1131 C1134 1.313 . S
C1132 C1133 1.338 . S
C1132 N1135 1.377 . S
C1132 H1152 0.930 . S
C1133 N1131 1.375 . S
C1133 C1132 1.338 . S
C1133 H1137 0.931 . S
C1134 N1131 1.313 . S
C1134 N1135 1.344 . S
C1134 H1138 0.930 . S
N1135 C1132 1.377 . S
N1135 C1134 1.344 . S
O1136 Co1128 2.055 . S
O1136 C1140 1.253 . S
H1137 C1133 0.931 . S
H1138 C1134 0.930 . S
O1139 Co1128 2.039 . S
O1139 C1129 1.265 . S
C1140 O1136 1.253 . S
C1140 O1141 1.227 . S
O1141 C1140 1.227 . S
N1142 Co1128 2.140 . S
N1142 C1145 1.346 . S
N1142 C1146 1.345 . S
C1143 C1144 1.387 . S
C1143 C1147 1.391 . S
C1144 C1143 1.387 . S
C1144 C1145 1.369 . S
C1144 H1153 0.929 . S
C1145 N1142 1.346 . S
C1145 C1144 1.369 . S
C1145 H1148 0.928 . S
C1146 N1142 1.345 . S
C1146 C1147 1.371 . S
C1146 H1149 0.931 . S
C1147 C1143 1.391 . S
C1147 C1146 1.371 . S
C1147 H1154 0.930 . S
H1148 C1145 0.928 . S
H1149 C1146 0.931 . S
H1150 C1126 0.930 . S
H1151 C1123 0.930 . S
H1152 C1132 0.930 . S
H1153 C1144 0.929 . S
H1154 C1147 0.930 . S
C1155 C1156 1.351 . S
C1155 N1158 1.368 . S
C1155 H1160 0.931 . S
C1156 C1155 1.351 . S
C1156 N1157 1.373 . S
C1156 H1184 0.930 . S
N1157 C1156 1.373 . S
N1157 C1159 1.340 . S
N1158 C1155 1.368 . S
N1158 C1159 1.321 . S
N1158 Co1161 2.135 . S
C1159 N1157 1.340 . S
C1159 N1158 1.321 . S
C1159 H1183 0.930 . S
H1160 C1155 0.931 . S
Co1161 N1158 2.135 . S
Co1161 N1164 2.121 . S
Co1161 O1169 2.055 . S
Co1161 O1172 2.039 . S
Co1161 N1175 2.140 . S
C1162 O1163 1.227 . S
C1162 O1172 1.265 . S
O1163 C1162 1.227 . S
N1164 Co1161 2.121 . S
N1164 C1166 1.375 . S
N1164 C1167 1.313 . S
C1165 C1166 1.338 . S
C1165 N1168 1.377 . S
C1165 H1185 0.930 . S
C1166 N1164 1.375 . S
C1166 C1165 1.338 . S
C1166 H1170 0.931 . S
C1167 N1164 1.313 . S
C1167 N1168 1.344 . S
C1167 H1171 0.930 . S
N1168 C1165 1.377 . S
N1168 C1167 1.344 . S
O1169 Co1161 2.055 . S
O1169 C1173 1.253 . S
H1170 C1166 0.931 . S
H1171 C1167 0.930 . S
O1172 Co1161 2.039 . S
O1172 C1162 1.265 . S
C1173 O1169 1.253 . S
C1173 O1174 1.227 . S
O1174 C1173 1.227 . S
N1175 Co1161 2.140 . S
N1175 C1178 1.346 . S
N1175 C1179 1.345 . S
C1176 C1177 1.387 . S
C1176 C1180 1.391 . S
C1177 C1176 1.387 . S
C1177 C1178 1.369 . S
C1177 H1186 0.929 . S
C1178 N1175 1.346 . S
C1178 C1177 1.369 . S
C1178 H1181 0.928 . S
C1179 N1175 1.345 . S
C1179 C1180 1.371 . S
C1179 H1182 0.931 . S
C1180 C1176 1.391 . S
C1180 C1179 1.371 . S
C1180 H1187 0.930 . S
H1181 C1178 0.928 . S
H1182 C1179 0.931 . S
H1183 C1159 0.930 . S
H1184 C1156 0.930 . S
H1185 C1165 0.930 . S
H1186 C1177 0.929 . S
H1187 C1180 0.930 . S
H1188 C1194 0.930 . S
H1189 C1197 0.930 . S
H1190 C1198 0.930 . S
H1191 C1199 0.930 . S
H1192 C1202 0.930 . S
H1193 C1203 0.930 . S
C1194 H1188 0.930 . S
C1194 C1195 1.355 . S
C1194 C1196 1.415 . S
C1195 C1194 1.355 . S
C1195 C1197 1.419 . S
C1196 C1194 1.415 . S
C1196 C1201 1.425 . S
C1196 C1203 1.409 . S
C1197 H1189 0.930 . S
C1197 C1195 1.419 . S
C1197 C1198 1.362 . S
C1198 H1190 0.930 . S
C1198 C1197 1.362 . S
C1198 C1201 1.409 . S
C1199 H1191 0.930 . S
C1199 C1200 1.355 . S
C1199 C1201 1.415 . S
C1200 C1199 1.355 . S
C1200 C1202 1.419 . S
C1201 C1196 1.425 . S
C1201 C1198 1.409 . S
C1201 C1199 1.415 . S
C1202 H1192 0.930 . S
C1202 C1200 1.419 . S
C1202 C1203 1.362 . S
C1203 H1193 0.930 . S
C1203 C1196 1.409 . S
C1203 C1202 1.362 . S
H1204 C1210 0.930 . S
H1205 C1213 0.930 . S
H1206 C1214 0.930 . S
H1207 C1215 0.930 . S
H1208 C1218 0.930 . S
H1209 C1219 0.930 . S
C1210 H1204 0.930 . S
C1210 C1211 1.355 . S
C1210 C1212 1.415 . S
C1211 C1210 1.355 . S
C1211 C1213 1.419 . S
C1212 C1210 1.415 . S
C1212 C1217 1.425 . S
C1212 C1219 1.409 . S
C1213 H1205 0.930 . S
C1213 C1211 1.419 . S
C1213 C1214 1.362 . S
C1214 H1206 0.930 . S
C1214 C1213 1.362 . S
C1214 C1217 1.409 . S
C1215 H1207 0.930 . S
C1215 C1216 1.355 . S
C1215 C1217 1.415 . S
C1216 C1215 1.355 . S
C1216 C1218 1.419 . S
C1217 C1212 1.425 . S
C1217 C1214 1.409 . S
C1217 C1215 1.415 . S
C1218 H1208 0.930 . S
C1218 C1216 1.419 . S
C1218 C1219 1.362 . S
C1219 H1209 0.930 . S
C1219 C1212 1.409 . S
C1219 C1218 1.362 . S
H1220 C1226 0.930 . S
H1221 C1229 0.930 . S
H1222 C1230 0.930 . S
H1223 C1231 0.930 . S
H1224 C1234 0.930 . S
H1225 C1235 0.930 . S
C1226 H1220 0.930 . S
C1226 C1227 1.355 . S
C1226 C1228 1.415 . S
C1227 C1226 1.355 . S
C1227 C1229 1.419 . S
C1228 C1226 1.415 . S
C1228 C1233 1.425 . S
C1228 C1235 1.409 . S
C1229 H1221 0.930 . S
C1229 C1227 1.419 . S
C1229 C1230 1.362 . S
C1230 H1222 0.930 . S
C1230 C1229 1.362 . S
C1230 C1233 1.409 . S
C1231 H1223 0.930 . S
C1231 C1232 1.355 . S
C1231 C1233 1.415 . S
C1232 C1231 1.355 . S
C1232 C1234 1.419 . S
C1233 C1228 1.425 . S
C1233 C1230 1.409 . S
C1233 C1231 1.415 . S
C1234 H1224 0.930 . S
C1234 C1232 1.419 . S
C1234 C1235 1.362 . S
C1235 H1225 0.930 . S
C1235 C1228 1.409 . S
C1235 C1234 1.362 . S
H1236 C1242 0.930 . S
H1237 C1245 0.930 . S
H1238 C1246 0.930 . S
H1239 C1247 0.930 . S
H1240 C1250 0.930 . S
H1241 C1251 0.930 . S
C1242 H1236 0.930 . S
C1242 C1243 1.355 . S
C1242 C1244 1.415 . S
C1243 C1242 1.355 . S
C1243 C1245 1.419 . S
C1244 C1242 1.415 . S
C1244 C1249 1.425 . S
C1244 C1251 1.409 . S
C1245 H1237 0.930 . S
C1245 C1243 1.419 . S
C1245 C1246 1.362 . S
C1246 H1238 0.930 . S
C1246 C1245 1.362 . S
C1246 C1249 1.409 . S
C1247 H1239 0.930 . S
C1247 C1248 1.355 . S
C1247 C1249 1.415 . S
C1248 C1247 1.355 . S
C1248 C1250 1.419 . S
C1249 C1244 1.425 . S
C1249 C1246 1.409 . S
C1249 C1247 1.415 . S
C1250 H1240 0.930 . S
C1250 C1248 1.419 . S
C1250 C1251 1.362 . S
C1251 H1241 0.930 . S
C1251 C1244 1.409 . S
C1251 C1250 1.362 . S
H1252 C1258 0.930 . S
H1253 C1261 0.930 . S
H1254 C1262 0.930 . S
H1255 C1263 0.930 . S
H1256 C1266 0.930 . S
H1257 C1267 0.930 . S
C1258 H1252 0.930 . S
C1258 C1259 1.355 . S
C1258 C1260 1.415 . S
C1259 C1258 1.355 . S
C1259 C1261 1.419 . S
C1260 C1258 1.415 . S
C1260 C1265 1.425 . S
C1260 C1267 1.409 . S
C1261 H1253 0.930 . S
C1261 C1259 1.419 . S
C1261 C1262 1.362 . S
C1262 H1254 0.930 . S
C1262 C1261 1.362 . S
C1262 C1265 1.409 . S
C1263 H1255 0.930 . S
C1263 C1264 1.355 . S
C1263 C1265 1.415 . S
C1264 C1263 1.355 . S
C1264 C1266 1.419 . S
C1265 C1260 1.425 . S
C1265 C1262 1.409 . S
C1265 C1263 1.415 . S
C1266 H1256 0.930 . S
C1266 C1264 1.419 . S
C1266 C1267 1.362 . S
C1267 H1257 0.930 . S
C1267 C1260 1.409 . S
C1267 C1266 1.362 . S
H1268 C1274 0.930 . S
H1269 C1277 0.930 . S
H1270 C1278 0.930 . S
H1271 C1279 0.930 . S
H1272 C1282 0.930 . S
H1273 C1283 0.930 . S
C1274 H1268 0.930 . S
C1274 C1275 1.355 . S
C1274 C1276 1.415 . S
C1275 C1274 1.355 . S
C1275 C1277 1.419 . S
C1276 C1274 1.415 . S
C1276 C1281 1.425 . S
C1276 C1283 1.409 . S
C1277 H1269 0.930 . S
C1277 C1275 1.419 . S
C1277 C1278 1.362 . S
C1278 H1270 0.930 . S
C1278 C1277 1.362 . S
C1278 C1281 1.409 . S
C1279 H1271 0.930 . S
C1279 C1280 1.355 . S
C1279 C1281 1.415 . S
C1280 C1279 1.355 . S
C1280 C1282 1.419 . S
C1281 C1276 1.425 . S
C1281 C1278 1.409 . S
C1281 C1279 1.415 . S
C1282 H1272 0.930 . S
C1282 C1280 1.419 . S
C1282 C1283 1.362 . S
C1283 H1273 0.930 . S
C1283 C1276 1.409 . S
C1283 C1282 1.362 . S
H1284 C1290 0.930 . S
H1285 C1293 0.930 . S
H1286 C1294 0.930 . S
H1287 C1295 0.930 . S
H1288 C1298 0.930 . S
H1289 C1299 0.930 . S
C1290 H1284 0.930 . S
C1290 C1291 1.355 . S
C1290 C1292 1.415 . S
C1291 C1290 1.355 . S
C1291 C1293 1.419 . S
C1292 C1290 1.415 . S
C1292 C1297 1.425 . S
C1292 C1299 1.409 . S
C1293 H1285 0.930 . S
C1293 C1291 1.419 . S
C1293 C1294 1.362 . S
C1294 H1286 0.930 . S
C1294 C1293 1.362 . S
C1294 C1297 1.409 . S
C1295 H1287 0.930 . S
C1295 C1296 1.355 . S
C1295 C1297 1.415 . S
C1296 C1295 1.355 . S
C1296 C1298 1.419 . S
C1297 C1292 1.425 . S
C1297 C1294 1.409 . S
C1297 C1295 1.415 . S
C1298 H1288 0.930 . S
C1298 C1296 1.419 . S
C1298 C1299 1.362 . S
C1299 H1289 0.930 . S
C1299 C1292 1.409 . S
C1299 C1298 1.362 . S
H1300 C1306 0.930 . S
H1301 C1309 0.930 . S
H1302 C1310 0.930 . S
H1303 C1311 0.930 . S
H1304 C1314 0.930 . S
H1305 C1315 0.930 . S
C1306 H1300 0.930 . S
C1306 C1307 1.355 . S
C1306 C1308 1.415 . S
C1307 C1306 1.355 . S
C1307 C1309 1.419 . S
C1308 C1306 1.415 . S
C1308 C1313 1.425 . S
C1308 C1315 1.409 . S
C1309 H1301 0.930 . S
C1309 C1307 1.419 . S
C1309 C1310 1.362 . S
C1310 H1302 0.930 . S
C1310 C1309 1.362 . S
C1310 C1313 1.409 . S
C1311 H1303 0.930 . S
C1311 C1312 1.355 . S
C1311 C1313 1.415 . S
C1312 C1311 1.355 . S
C1312 C1314 1.419 . S
C1313 C1308 1.425 . S
C1313 C1310 1.409 . S
C1313 C1311 1.415 . S
C1314 H1304 0.930 . S
C1314 C1312 1.419 . S
C1314 C1315 1.362 . S
C1315 H1305 0.930 . S
C1315 C1308 1.409 . S
C1315 C1314 1.362 . S
H1316 C1322 0.930 . S
H1317 C1325 0.930 . S
H1318 C1326 0.930 . S
H1319 C1327 0.930 . S
H1320 C1330 0.930 . S
H1321 C1331 0.930 . S
C1322 H1316 0.930 . S
C1322 C1323 1.355 . S
C1322 C1324 1.415 . S
C1323 C1322 1.355 . S
C1323 C1325 1.419 . S
C1324 C1322 1.415 . S
C1324 C1329 1.425 . S
C1324 C1331 1.409 . S
C1325 H1317 0.930 . S
C1325 C1323 1.419 . S
C1325 C1326 1.362 . S
C1326 H1318 0.930 . S
C1326 C1325 1.362 . S
C1326 C1329 1.409 . S
C1327 H1319 0.930 . S
C1327 C1328 1.355 . S
C1327 C1329 1.415 . S
C1328 C1327 1.355 . S
C1328 C1330 1.419 . S
C1329 C1324 1.425 . S
C1329 C1326 1.409 . S
C1329 C1327 1.415 . S
C1330 H1320 0.930 . S
C1330 C1328 1.419 . S
C1330 C1331 1.362 . S
C1331 H1321 0.930 . S
C1331 C1324 1.409 . S
C1331 C1330 1.362 . S
H1332 C1338 0.930 . S
H1333 C1341 0.930 . S
H1334 C1342 0.930 . S
H1335 C1343 0.930 . S
H1336 C1346 0.930 . S
H1337 C1347 0.930 . S
C1338 H1332 0.930 . S
C1338 C1339 1.355 . S
C1338 C1340 1.415 . S
C1339 C1338 1.355 . S
C1339 C1341 1.419 . S
C1340 C1338 1.415 . S
C1340 C1345 1.425 . S
C1340 C1347 1.409 . S
C1341 H1333 0.930 . S
C1341 C1339 1.419 . S
C1341 C1342 1.362 . S
C1342 H1334 0.930 . S
C1342 C1341 1.362 . S
C1342 C1345 1.409 . S
C1343 H1335 0.930 . S
C1343 C1344 1.355 . S
C1343 C1345 1.415 . S
C1344 C1343 1.355 . S
C1344 C1346 1.419 . S
C1345 C1340 1.425 . S
C1345 C1342 1.409 . S
C1345 C1343 1.415 . S
C1346 H1336 0.930 . S
C1346 C1344 1.419 . S
C1346 C1347 1.362 . S
C1347 H1337 0.930 . S
C1347 C1340 1.409 . S
C1347 C1346 1.362 . S
H1348 C1354 0.930 . S
H1349 C1357 0.930 . S
H1350 C1358 0.930 . S
H1351 C1359 0.930 . S
H1352 C1362 0.930 . S
H1353 C1363 0.930 . S
C1354 H1348 0.930 . S
C1354 C1355 1.355 . S
C1354 C1356 1.415 . S
C1355 C1354 1.355 . S
C1355 C1357 1.419 . S
C1356 C1354 1.415 . S
C1356 C1361 1.425 . S
C1356 C1363 1.409 . S
C1357 H1349 0.930 . S
C1357 C1355 1.419 . S
C1357 C1358 1.362 . S
C1358 H1350 0.930 . S
C1358 C1357 1.362 . S
C1358 C1361 1.409 . S
C1359 H1351 0.930 . S
C1359 C1360 1.355 . S
C1359 C1361 1.415 . S
C1360 C1359 1.355 . S
C1360 C1362 1.419 . S
C1361 C1356 1.425 . S
C1361 C1358 1.409 . S
C1361 C1359 1.415 . S
C1362 H1352 0.930 . S
C1362 C1360 1.419 . S
C1362 C1363 1.362 . S
C1363 H1353 0.930 . S
C1363 C1356 1.409 . S
C1363 C1362 1.362 . S
H1364 C1370 0.930 . S
H1365 C1373 0.930 . S
H1366 C1374 0.930 . S
H1367 C1375 0.930 . S
H1368 C1378 0.930 . S
H1369 C1379 0.930 . S
C1370 H1364 0.930 . S
C1370 C1371 1.355 . S
C1370 C1372 1.415 . S
C1371 C1370 1.355 . S
C1371 C1373 1.419 . S
C1372 C1370 1.415 . S
C1372 C1377 1.425 . S
C1372 C1379 1.409 . S
C1373 H1365 0.930 . S
C1373 C1371 1.419 . S
C1373 C1374 1.362 . S
C1374 H1366 0.930 . S
C1374 C1373 1.362 . S
C1374 C1377 1.409 . S
C1375 H1367 0.930 . S
C1375 C1376 1.355 . S
C1375 C1377 1.415 . S
C1376 C1375 1.355 . S
C1376 C1378 1.419 . S
C1377 C1372 1.425 . S
C1377 C1374 1.409 . S
C1377 C1375 1.415 . S
C1378 H1368 0.930 . S
C1378 C1376 1.419 . S
C1378 C1379 1.362 . S
C1379 H1369 0.930 . S
C1379 C1372 1.409 . S
C1379 C1378 1.362 . S
H1380 C1386 0.930 . S
H1381 C1389 0.930 . S
H1382 C1390 0.930 . S
H1383 C1391 0.930 . S
H1384 C1394 0.930 . S
H1385 C1395 0.930 . S
C1386 H1380 0.930 . S
C1386 C1387 1.355 1_455 S
C1386 C1388 1.415 . S
C1387 C1386 1.355 1_655 S
C1387 C1389 1.419 . S
C1388 C1386 1.415 . S
C1388 C1393 1.425 1_455 S
C1388 C1395 1.409 . S
C1389 H1381 0.930 . S
C1389 C1387 1.419 . S
C1389 C1390 1.362 . S
C1390 H1382 0.930 . S
C1390 C1389 1.362 . S
C1390 C1393 1.409 . S
C1391 H1383 0.930 . S
C1391 C1392 1.355 1_655 S
C1391 C1393 1.415 . S
C1392 C1391 1.355 1_455 S
C1392 C1394 1.419 . S
C1393 C1388 1.425 1_655 S
C1393 C1390 1.409 . S
C1393 C1391 1.415 . S
C1394 H1384 0.930 . S
C1394 C1392 1.419 . S
C1394 C1395 1.362 . S
C1395 H1385 0.930 . S
C1395 C1388 1.409 . S
C1395 C1394 1.362 . S
H1396 C1402 0.930 . S
H1397 C1405 0.930 . S
H1398 C1406 0.930 . S
H1399 C1407 0.930 . S
H1400 C1410 0.930 . S
H1401 C1411 0.930 . S
C1402 H1396 0.930 . S
C1402 C1403 1.355 . S
C1402 C1404 1.415 . S
C1403 C1402 1.355 . S
C1403 C1405 1.419 . S
C1404 C1402 1.415 . S
C1404 C1409 1.425 . S
C1404 C1411 1.409 . S
C1405 H1397 0.930 . S
C1405 C1403 1.419 . S
C1405 C1406 1.362 . S
C1406 H1398 0.930 . S
C1406 C1405 1.362 . S
C1406 C1409 1.409 . S
C1407 H1399 0.930 . S
C1407 C1408 1.355 . S
C1407 C1409 1.415 . S
C1408 C1407 1.355 . S
C1408 C1410 1.419 . S
C1409 C1404 1.425 . S
C1409 C1406 1.409 . S
C1409 C1407 1.415 . S
C1410 H1400 0.930 . S
C1410 C1408 1.419 . S
C1410 C1411 1.362 . S
C1411 H1401 0.930 . S
C1411 C1404 1.409 . S
C1411 C1410 1.362 . S
H1412 C1418 0.930 . S
H1413 C1421 0.930 . S
H1414 C1422 0.930 . S
H1415 C1423 0.930 . S
H1416 C1426 0.930 . S
H1417 C1427 0.930 . S
C1418 H1412 0.930 . S
C1418 C1419 1.355 . S
C1418 C1420 1.415 . S
C1419 C1418 1.355 . S
C1419 C1421 1.419 1_565 S
C1420 C1418 1.415 . S
C1420 C1425 1.425 1_565 S
C1420 C1427 1.409 . S
C1421 H1413 0.930 . S
C1421 C1419 1.419 1_545 S
C1421 C1422 1.362 . S
C1422 H1414 0.930 . S
C1422 C1421 1.362 . S
C1422 C1425 1.409 . S
C1423 H1415 0.930 . S
C1423 C1424 1.355 . S
C1423 C1425 1.415 . S
C1424 C1423 1.355 . S
C1424 C1426 1.419 1_545 S
C1425 C1420 1.425 1_545 S
C1425 C1422 1.409 . S
C1425 C1423 1.415 . S
C1426 H1416 0.930 . S
C1426 C1424 1.419 1_565 S
C1426 C1427 1.362 . S
C1427 H1417 0.930 . S
C1427 C1420 1.409 . S
C1427 C1426 1.362 . S
H1428 C1434 0.930 . S
H1429 C1437 0.930 . S
H1430 C1438 0.930 . S
H1431 C1439 0.930 . S
H1432 C1442 0.930 . S
H1433 C1443 0.930 . S
C1434 H1428 0.930 . S
C1434 C1435 1.355 . S
C1434 C1436 1.415 . S
C1435 C1434 1.355 . S
C1435 C1437 1.419 1_565 S
C1436 C1434 1.415 . S
C1436 C1441 1.425 1_565 S
C1436 C1443 1.409 . S
C1437 H1429 0.930 . S
C1437 C1435 1.419 1_545 S
C1437 C1438 1.362 . S
C1438 H1430 0.930 . S
C1438 C1437 1.362 . S
C1438 C1441 1.409 . S
C1439 H1431 0.930 . S
C1439 C1440 1.355 . S
C1439 C1441 1.415 . S
C1440 C1439 1.355 . S
C1440 C1442 1.419 1_545 S
C1441 C1436 1.425 1_545 S
C1441 C1438 1.409 . S
C1441 C1439 1.415 . S
C1442 H1432 0.930 . S
C1442 C1440 1.419 1_565 S
C1442 C1443 1.362 . S
C1443 H1433 0.930 . S
C1443 C1436 1.409 . S
C1443 C1442 1.362 . S
H1444 C1450 0.930 . S
H1445 C1453 0.930 . S
H1446 C1454 0.930 . S
H1447 C1455 0.930 . S
H1448 C1458 0.930 . S
H1449 C1459 0.930 . S
C1450 H1444 0.930 . S
C1450 C1451 1.355 . S
C1450 C1452 1.415 . S
C1451 C1450 1.355 . S
C1451 C1453 1.419 1_455 S
C1452 C1450 1.415 . S
C1452 C1457 1.425 1_455 S
C1452 C1459 1.409 . S
C1453 H1445 0.930 . S
C1453 C1451 1.419 1_655 S
C1453 C1454 1.362 . S
C1454 H1446 0.930 . S
C1454 C1453 1.362 . S
C1454 C1457 1.409 . S
C1455 H1447 0.930 . S
C1455 C1456 1.355 . S
C1455 C1457 1.415 . S
C1456 C1455 1.355 . S
C1456 C1458 1.419 1_655 S
C1457 C1452 1.425 1_655 S
C1457 C1454 1.409 . S
C1457 C1455 1.415 . S
C1458 H1448 0.930 . S
C1458 C1456 1.419 1_455 S
C1458 C1459 1.362 . S
C1459 H1449 0.930 . S
C1459 C1452 1.409 . S
C1459 C1458 1.362 . S
H1460 C1466 0.930 . S
H1461 C1469 0.930 . S
H1462 C1470 0.930 . S
H1463 C1471 0.930 . S
H1464 C1474 0.930 . S
H1465 C1475 0.930 . S
C1466 H1460 0.930 . S
C1466 C1467 1.355 . S
C1466 C1468 1.415 . S
C1467 C1466 1.355 . S
C1467 C1469 1.419 . S
C1468 C1466 1.415 . S
C1468 C1473 1.425 . S
C1468 C1475 1.409 . S
C1469 H1461 0.930 . S
C1469 C1467 1.419 . S
C1469 C1470 1.362 . S
C1470 H1462 0.930 . S
C1470 C1469 1.362 . S
C1470 C1473 1.409 . S
C1471 H1463 0.930 . S
C1471 C1472 1.355 . S
C1471 C1473 1.415 . S
C1472 C1471 1.355 . S
C1472 C1474 1.419 . S
C1473 C1468 1.425 . S
C1473 C1470 1.409 . S
C1473 C1471 1.415 . S
C1474 H1464 0.930 . S
C1474 C1472 1.419 . S
C1474 C1475 1.362 . S
C1475 H1465 0.930 . S
C1475 C1468 1.409 . S
C1475 C1474 1.362 . S
H1476 C1482 0.930 . S
H1477 C1485 0.930 . S
H1478 C1486 0.930 . S
H1479 C1487 0.930 . S
H1480 C1490 0.930 . S
H1481 C1491 0.930 . S
C1482 H1476 0.930 . S
C1482 C1483 1.355 . S
C1482 C1484 1.415 . S
C1483 C1482 1.355 . S
C1483 C1485 1.419 . S
C1484 C1482 1.415 . S
C1484 C1489 1.425 . S
C1484 C1491 1.409 . S
C1485 H1477 0.930 . S
C1485 C1483 1.419 . S
C1485 C1486 1.362 . S
C1486 H1478 0.930 . S
C1486 C1485 1.362 . S
C1486 C1489 1.409 . S
C1487 H1479 0.930 . S
C1487 C1488 1.355 . S
C1487 C1489 1.415 . S
C1488 C1487 1.355 . S
C1488 C1490 1.419 . S
C1489 C1484 1.425 . S
C1489 C1486 1.409 . S
C1489 C1487 1.415 . S
C1490 H1480 0.930 . S
C1490 C1488 1.419 . S
C1490 C1491 1.362 . S
C1491 H1481 0.930 . S
C1491 C1484 1.409 . S
C1491 C1490 1.362 . S
H1492 C1498 0.930 . S
H1493 C1501 0.930 . S
H1494 C1502 0.930 . S
H1495 C1503 0.930 . S
H1496 C1506 0.930 . S
H1497 C1507 0.907 1_565 S
C1498 H1492 0.930 . S
C1498 C1499 1.355 . S
C1498 C1500 1.415 . S
C1499 C1498 1.355 . S
C1499 C1501 1.419 . S
C1500 C1498 1.415 . S
C1500 C1505 1.425 . S
C1500 C1507 1.409 . S
C1501 H1493 0.930 . S
C1501 C1499 1.419 . S
C1501 C1502 1.362 . S
C1502 H1494 0.930 . S
C1502 C1501 1.362 . S
C1502 C1505 1.409 . S
C1503 H1495 0.930 . S
C1503 C1504 1.355 . S
C1503 C1505 1.415 . S
C1504 C1503 1.355 . S
C1504 C1506 1.419 1_545 S
C1505 C1500 1.425 . S
C1505 C1502 1.409 . S
C1505 C1503 1.415 . S
C1506 H1496 0.930 . S
C1506 C1504 1.419 1_565 S
C1506 C1507 1.362 1_565 S
C1507 H1497 0.907 1_545 S
C1507 C1500 1.409 . S
C1507 C1506 1.362 1_545 S
H1508 C1514 0.930 . S
H1509 C1517 0.930 . S
H1510 C1518 0.930 1_455 S
H1511 C1519 0.898 1_455 S
H1512 C1522 0.930 . S
H1513 C1523 0.930 . S
C1514 H1508 0.930 . S
C1514 C1515 1.355 . S
C1514 C1516 1.415 . S
C1515 C1514 1.355 . S
C1515 C1517 1.419 . S
C1516 C1514 1.415 . S
C1516 C1521 1.425 . S
C1516 C1523 1.409 . S
C1517 H1509 0.930 . S
C1517 C1515 1.419 . S
C1517 C1518 1.362 . S
C1518 H1510 0.930 1_655 S
C1518 C1517 1.362 . S
C1518 C1521 1.409 . S
C1519 H1511 0.898 1_655 S
C1519 C1520 1.348 . S
C1519 C1521 1.452 . S
C1520 C1519 1.348 . S
C1520 C1522 1.419 . S
C1521 C1516 1.425 . S
C1521 C1518 1.409 . S
C1521 C1519 1.452 . S
C1522 H1512 0.930 . S
C1522 C1520 1.419 . S
C1522 C1523 1.362 . S
C1523 H1513 0.930 . S
C1523 C1516 1.409 . S
C1523 C1522 1.362 . S
H1524 C1530 0.930 . S
H1525 C1533 0.930 . S
H1526 C1534 0.930 . S
H1527 C1535 0.930 . S
H1528 C1538 0.930 . S
H1529 C1539 0.930 . S
C1530 H1524 0.930 . S
C1530 C1531 1.355 . S
C1530 C1532 1.415 . S
C1531 C1530 1.355 . S
C1531 C1533 1.419 . S
C1532 C1530 1.415 . S
C1532 C1537 1.425 . S
C1532 C1539 1.409 . S
C1533 H1525 0.930 . S
C1533 C1531 1.419 . S
C1533 C1534 1.362 . S
C1534 H1526 0.930 . S
C1534 C1533 1.362 . S
C1534 C1537 1.409 . S
C1535 H1527 0.930 . S
C1535 C1536 1.355 . S
C1535 C1537 1.415 . S
C1536 C1535 1.355 . S
C1536 C1538 1.419 . S
C1537 C1532 1.425 . S
C1537 C1534 1.409 . S
C1537 C1535 1.415 . S
C1538 H1528 0.930 . S
C1538 C1536 1.419 . S
C1538 C1539 1.362 . S
C1539 H1529 0.930 . S
C1539 C1532 1.409 . S
C1539 C1538 1.362 . S
H1540 C1546 0.930 . S
H1541 C1549 0.930 . S
H1542 C1550 0.930 . S
H1543 C1551 0.930 . S
H1544 C1554 0.930 . S
H1545 C1555 0.930 1_545 S
C1546 H1540 0.930 . S
C1546 C1547 1.355 . S
C1546 C1548 1.415 . S
C1547 C1546 1.355 . S
C1547 C1549 1.419 . S
C1548 C1546 1.415 . S
C1548 C1553 1.425 . S
C1548 C1555 1.409 . S
C1549 H1541 0.930 . S
C1549 C1547 1.419 . S
C1549 C1550 1.362 . S
C1550 H1542 0.930 . S
C1550 C1549 1.362 . S
C1550 C1553 1.409 . S
C1551 H1543 0.930 . S
C1551 C1552 1.355 . S
C1551 C1553 1.415 . S
C1552 C1551 1.355 . S
C1552 C1554 1.419 1_565 S
C1553 C1548 1.425 . S
C1553 C1550 1.409 . S
C1553 C1551 1.415 . S
C1554 H1544 0.930 . S
C1554 C1552 1.419 1_545 S
C1554 C1555 1.362 1_545 S
C1555 H1545 0.930 1_565 S
C1555 C1548 1.409 . S
C1555 C1554 1.362 1_565 S
H1556 C1562 0.930 1_655 S
H1557 C1565 0.930 . S
H1558 C1566 0.930 . S
H1559 C1567 0.930 . S
H1560 C1570 0.930 . S
H1561 C1571 0.930 . S
C1562 H1556 0.930 1_455 S
C1562 C1563 1.355 . S
C1562 C1564 1.415 . S
C1563 C1562 1.355 . S
C1563 C1565 1.419 . S
C1564 C1562 1.415 . S
C1564 C1569 1.425 . S
C1564 C1571 1.409 . S
C1565 H1557 0.930 . S
C1565 C1563 1.419 . S
C1565 C1566 1.362 . S
C1566 H1558 0.930 . S
C1566 C1565 1.362 . S
C1566 C1569 1.409 . S
C1567 H1559 0.930 . S
C1567 C1568 1.355 . S
C1567 C1569 1.415 . S
C1568 C1567 1.355 . S
C1568 C1570 1.419 . S
C1569 C1564 1.425 . S
C1569 C1566 1.409 . S
C1569 C1567 1.415 . S
C1570 H1560 0.930 . S
C1570 C1568 1.419 . S
C1570 C1571 1.362 . S
C1571 H1561 0.930 . S
C1571 C1564 1.409 . S
C1571 C1570 1.362 . S
H1572 C1578 0.930 . S
H1573 C1581 0.930 . S
H1574 C1582 0.930 . S
H1575 C1583 0.930 . S
H1576 C1586 0.930 . S
H1577 C1587 0.930 . S
C1578 H1572 0.930 . S
C1578 C1579 1.355 . S
C1578 C1580 1.415 . S
C1579 C1578 1.355 . S
C1579 C1581 1.419 . S
C1580 C1578 1.415 . S
C1580 C1585 1.425 . S
C1580 C1587 1.409 . S
C1581 H1573 0.930 . S
C1581 C1579 1.419 . S
C1581 C1582 1.362 . S
C1582 H1574 0.930 . S
C1582 C1581 1.362 . S
C1582 C1585 1.409 . S
C1583 H1575 0.930 . S
C1583 C1584 1.355 . S
C1583 C1585 1.415 . S
C1584 C1583 1.355 . S
C1584 C1586 1.419 . S
C1585 C1580 1.425 . S
C1585 C1582 1.409 . S
C1585 C1583 1.415 . S
C1586 H1576 0.930 . S
C1586 C1584 1.419 . S
C1586 C1587 1.362 . S
C1587 H1577 0.930 . S
C1587 C1580 1.409 . S
C1587 C1586 1.362 . S
H1588 C1594 0.930 . S
H1589 C1597 0.930 . S
H1590 C1598 0.930 . S
H1591 C1599 0.930 . S
H1592 C1602 0.930 . S
H1593 C1603 0.930 . S
C1594 H1588 0.930 . S
C1594 C1595 1.355 . S
C1594 C1596 1.415 . S
C1595 C1594 1.355 . S
C1595 C1597 1.419 . S
C1596 C1594 1.415 . S
C1596 C1601 1.425 . S
C1596 C1603 1.409 . S
C1597 H1589 0.930 . S
C1597 C1595 1.419 . S
C1597 C1598 1.362 . S
C1598 H1590 0.930 . S
C1598 C1597 1.362 . S
C1598 C1601 1.409 . S
C1599 H1591 0.930 . S
C1599 C1600 1.355 . S
C1599 C1601 1.415 . S
C1600 C1599 1.355 . S
C1600 C1602 1.419 . S
C1601 C1596 1.425 . S
C1601 C1598 1.409 . S
C1601 C1599 1.415 . S
C1602 H1592 0.930 . S
C1602 C1600 1.419 . S
C1602 C1603 1.362 . S
C1603 H1593 0.930 . S
C1603 C1596 1.409 . S
C1603 C1602 1.362 . S
H1604 C1610 0.930 . S
H1605 C1613 0.930 . S
H1606 C1614 0.930 . S
H1607 C1615 0.930 . S
H1608 C1618 0.930 . S
H1609 C1619 0.930 . S
C1610 H1604 0.930 . S
C1610 C1611 1.355 . S
C1610 C1612 1.415 . S
C1611 C1610 1.355 . S
C1611 C1613 1.419 . S
C1612 C1610 1.415 . S
C1612 C1617 1.425 . S
C1612 C1619 1.409 1_455 S
C1613 H1605 0.930 . S
C1613 C1611 1.419 . S
C1613 C1614 1.362 . S
C1614 H1606 0.930 . S
C1614 C1613 1.362 . S
C1614 C1617 1.409 . S
C1615 H1607 0.930 . S
C1615 C1616 1.355 . S
C1615 C1617 1.415 . S
C1616 C1615 1.355 . S
C1616 C1618 1.419 1_455 S
C1617 C1612 1.425 . S
C1617 C1614 1.409 . S
C1617 C1615 1.415 . S
C1618 H1608 0.930 . S
C1618 C1616 1.419 1_655 S
C1618 C1619 1.362 . S
C1619 H1609 0.930 . S
C1619 C1612 1.409 1_655 S
C1619 C1618 1.362 . S
H1620 C1626 0.930 . S
H1621 C1629 0.930 . S
H1622 C1630 0.930 . S
H1623 C1631 0.930 . S
H1624 C1634 0.930 . S
H1625 C1635 0.930 . S
C1626 H1620 0.930 . S
C1626 C1627 1.355 . S
C1626 C1628 1.415 . S
C1627 C1626 1.355 . S
C1627 C1629 1.419 . S
C1628 C1626 1.415 . S
C1628 C1633 1.425 . S
C1628 C1635 1.409 . S
C1629 H1621 0.930 . S
C1629 C1627 1.419 . S
C1629 C1630 1.362 . S
C1630 H1622 0.930 . S
C1630 C1629 1.362 . S
C1630 C1633 1.409 . S
C1631 H1623 0.930 . S
C1631 C1632 1.355 . S
C1631 C1633 1.415 . S
C1632 C1631 1.355 . S
C1632 C1634 1.419 . S
C1633 C1628 1.425 . S
C1633 C1630 1.409 . S
C1633 C1631 1.415 . S
C1634 H1624 0.930 . S
C1634 C1632 1.419 . S
C1634 C1635 1.362 . S
C1635 H1625 0.930 . S
C1635 C1628 1.409 . S
C1635 C1634 1.362 . S
H1636 C1642 0.930 . S
H1637 C1645 0.930 . S
H1638 C1646 0.930 . S
H1639 C1647 0.930 . S
H1640 C1650 0.930 . S
H1641 C1651 0.930 . S
C1642 H1636 0.930 . S
C1642 C1643 1.355 . S
C1642 C1644 1.415 . S
C1643 C1642 1.355 . S
C1643 C1645 1.419 1_545 S
C1644 C1642 1.415 . S
C1644 C1649 1.425 . S
C1644 C1651 1.409 . S
C1645 H1637 0.930 . S
C1645 C1643 1.419 1_565 S
C1645 C1646 1.362 . S
C1646 H1638 0.930 . S
C1646 C1645 1.362 . S
C1646 C1649 1.409 1_565 S
C1647 H1639 0.930 . S
C1647 C1648 1.355 . S
C1647 C1649 1.415 . S
C1648 C1647 1.355 . S
C1648 C1650 1.419 . S
C1649 C1644 1.425 . S
C1649 C1646 1.409 1_545 S
C1649 C1647 1.415 . S
C1650 H1640 0.930 . S
C1650 C1648 1.419 . S
C1650 C1651 1.362 . S
C1651 H1641 0.930 . S
C1651 C1644 1.409 . S
C1651 C1650 1.362 . S
H1652 C1658 0.930 1_455 S
H1653 C1661 0.930 . S
H1654 C1662 0.930 . S
H1655 C1663 0.930 . S
H1656 C1666 0.930 . S
H1657 C1667 0.930 1_455 S
C1658 H1652 0.930 1_655 S
C1658 C1659 1.355 . S
C1658 C1660 1.415 . S
C1659 C1658 1.355 . S
C1659 C1661 1.419 . S
C1660 C1658 1.415 . S
C1660 C1665 1.425 . S
C1660 C1667 1.409 . S
C1661 H1653 0.930 . S
C1661 C1659 1.419 . S
C1661 C1662 1.362 . S
C1662 H1654 0.930 . S
C1662 C1661 1.362 . S
C1662 C1665 1.409 . S
C1663 H1655 0.930 . S
C1663 C1664 1.355 . S
C1663 C1665 1.415 . S
C1664 C1663 1.355 . S
C1664 C1666 1.419 . S
C1665 C1660 1.425 . S
C1665 C1662 1.409 . S
C1665 C1663 1.415 . S
C1666 H1656 0.930 . S
C1666 C1664 1.419 . S
C1666 C1667 1.362 . S
C1667 H1657 0.930 1_655 S
C1667 C1660 1.409 . S
C1667 C1666 1.362 . S
H1668 C1674 0.930 . S
H1669 C1677 0.930 . S
H1670 C1678 0.930 . S
H1671 C1679 0.930 . S
H1672 C1682 0.930 . S
H1673 C1683 0.930 . S
C1674 H1668 0.930 . S
C1674 C1675 1.355 . S
C1674 C1676 1.415 . S
C1675 C1674 1.355 . S
C1675 C1677 1.419 . S
C1676 C1674 1.415 . S
C1676 C1681 1.425 1_655 S
C1676 C1683 1.409 1_655 S
C1677 H1669 0.930 . S
C1677 C1675 1.419 . S
C1677 C1678 1.362 . S
C1678 H1670 0.930 . S
C1678 C1677 1.362 . S
C1678 C1681 1.409 1_655 S
C1679 H1671 0.930 . S
C1679 C1680 1.355 . S
C1679 C1681 1.415 . S
C1680 C1679 1.355 . S
C1680 C1682 1.419 . S
C1681 C1676 1.425 1_455 S
C1681 C1678 1.409 1_455 S
C1681 C1679 1.415 . S
C1682 H1672 0.930 . S
C1682 C1680 1.419 . S
C1682 C1683 1.362 . S
C1683 H1673 0.930 . S
C1683 C1676 1.409 1_455 S
C1683 C1682 1.362 . S
H1684 C1690 0.930 . S
H1685 C1693 0.930 . S
H1686 C1694 0.930 . S
H1687 C1695 0.930 . S
H1688 C1698 0.930 . S
H1689 C1699 0.930 . S
C1690 H1684 0.930 . S
C1690 C1691 1.355 . S
C1690 C1692 1.415 . S
C1691 C1690 1.355 . S
C1691 C1693 1.419 . S
C1692 C1690 1.415 . S
C1692 C1697 1.425 . S
C1692 C1699 1.409 . S
C1693 H1685 0.930 . S
C1693 C1691 1.419 . S
C1693 C1694 1.362 . S
C1694 H1686 0.930 . S
C1694 C1693 1.362 . S
C1694 C1697 1.409 . S
C1695 H1687 0.930 . S
C1695 C1696 1.355 . S
C1695 C1697 1.415 . S
C1696 C1695 1.355 . S
C1696 C1698 1.419 . S
C1697 C1692 1.425 . S
C1697 C1694 1.409 . S
C1697 C1695 1.415 . S
C1698 H1688 0.930 . S
C1698 C1696 1.419 . S
C1698 C1699 1.362 . S
C1699 H1689 0.930 . S
C1699 C1692 1.409 . S
C1699 C1698 1.362 . S
H1700 C1706 0.930 . S
H1701 C1709 0.930 . S
H1702 C1710 0.954 . S
H1703 C1711 0.930 . S
H1704 C1714 0.930 . S
H1705 C1715 0.954 . S
C1706 H1700 0.930 . S
C1706 C1707 1.355 . S
C1706 C1708 1.415 . S
C1707 C1706 1.355 . S
C1707 C1709 1.419 . S
C1708 C1706 1.415 . S
C1708 C1713 1.425 1_545 S
C1708 C1715 1.409 1_545 S
C1709 H1701 0.930 . S
C1709 C1707 1.419 . S
C1709 C1710 1.362 . S
C1710 H1702 0.954 . S
C1710 C1709 1.362 . S
C1710 C1713 1.409 1_545 S
C1711 H1703 0.930 . S
C1711 C1712 1.355 . S
C1711 C1713 1.415 . S
C1712 C1711 1.355 . S
C1712 C1714 1.419 . S
C1713 C1708 1.425 1_565 S
C1713 C1710 1.409 1_565 S
C1713 C1711 1.415 . S
C1714 H1704 0.930 . S
C1714 C1712 1.419 . S
C1714 C1715 1.362 . S
C1715 H1705 0.954 . S
C1715 C1708 1.409 1_565 S
C1715 C1714 1.362 . S
H1716 C1722 0.930 . S
H1717 C1725 0.930 . S
H1718 C1726 0.930 . S
H1719 C1727 0.930 . S
H1720 C1730 0.930 . S
H1721 C1731 0.930 . S
C1722 H1716 0.930 . S
C1722 C1723 1.355 . S
C1722 C1724 1.415 . S
C1723 C1722 1.355 . S
C1723 C1725 1.419 . S
C1724 C1722 1.415 . S
C1724 C1729 1.425 1_545 S
C1724 C1731 1.409 1_545 S
C1725 H1717 0.930 . S
C1725 C1723 1.419 . S
C1725 C1726 1.362 . S
C1726 H1718 0.930 . S
C1726 C1725 1.362 . S
C1726 C1729 1.409 1_545 S
C1727 H1719 0.930 . S
C1727 C1728 1.355 . S
C1727 C1729 1.415 . S
C1728 C1727 1.355 . S
C1728 C1730 1.419 . S
C1729 C1724 1.425 1_565 S
C1729 C1726 1.409 1_565 S
C1729 C1727 1.415 . S
C1730 H1720 0.930 . S
C1730 C1728 1.419 . S
C1730 C1731 1.362 . S
C1731 H1721 0.930 . S
C1731 C1724 1.409 1_565 S
C1731 C1730 1.362 . S
H1732 C1738 0.930 . S
H1733 C1741 0.930 . S
H1734 C1742 0.930 . S
H1735 C1743 0.930 . S
H1736 C1746 0.930 . S
H1737 C1747 0.930 . S
C1738 H1732 0.930 . S
C1738 C1739 1.355 . S
C1738 C1740 1.415 . S
C1739 C1738 1.355 . S
C1739 C1741 1.419 . S
C1740 C1738 1.415 . S
C1740 C1745 1.425 1_455 S
C1740 C1747 1.409 1_455 S
C1741 H1733 0.930 . S
C1741 C1739 1.419 . S
C1741 C1742 1.362 . S
C1742 H1734 0.930 . S
C1742 C1741 1.362 . S
C1742 C1745 1.409 1_455 S
C1743 H1735 0.930 . S
C1743 C1744 1.355 . S
C1743 C1745 1.415 . S
C1744 C1743 1.355 . S
C1744 C1746 1.419 . S
C1745 C1740 1.425 1_655 S
C1745 C1742 1.409 1_655 S
C1745 C1743 1.415 . S
C1746 H1736 0.930 . S
C1746 C1744 1.419 . S
C1746 C1747 1.362 . S
C1747 H1737 0.930 . S
C1747 C1740 1.409 1_655 S
C1747 C1746 1.362 . S
H1748 C1754 0.930 . S
H1749 C1757 0.930 . S
H1750 C1758 0.930 . S
H1751 C1759 0.930 . S
H1752 C1762 0.930 . S
H1753 C1763 0.930 . S
C1754 H1748 0.930 . S
C1754 C1755 1.355 . S
C1754 C1756 1.415 . S
C1755 C1754 1.355 . S
C1755 C1757 1.419 . S
C1756 C1754 1.415 . S
C1756 C1761 1.425 . S
C1756 C1763 1.409 . S
C1757 H1749 0.930 . S
C1757 C1755 1.419 . S
C1757 C1758 1.362 . S
C1758 H1750 0.930 . S
C1758 C1757 1.362 . S
C1758 C1761 1.409 . S
C1759 H1751 0.930 . S
C1759 C1760 1.355 . S
C1759 C1761 1.415 . S
C1760 C1759 1.355 . S
C1760 C1762 1.419 . S
C1761 C1756 1.425 . S
C1761 C1758 1.409 . S
C1761 C1759 1.415 . S
C1762 H1752 0.930 . S
C1762 C1760 1.419 . S
C1762 C1763 1.362 . S
C1763 H1753 0.930 . S
C1763 C1756 1.409 . S
C1763 C1762 1.362 . S
H1764 C1770 0.930 . S
H1765 C1773 0.930 . S
H1766 C1774 0.930 . S
H1767 C1775 0.930 . S
H1768 C1778 0.930 . S
H1769 C1779 0.930 . S
C1770 H1764 0.930 . S
C1770 C1771 1.355 . S
C1770 C1772 1.415 . S
C1771 C1770 1.355 . S
C1771 C1773 1.419 . S
C1772 C1770 1.415 . S
C1772 C1777 1.425 . S
C1772 C1779 1.409 . S
C1773 H1765 0.930 . S
C1773 C1771 1.419 . S
C1773 C1774 1.362 . S
C1774 H1766 0.930 . S
C1774 C1773 1.362 . S
C1774 C1777 1.409 . S
C1775 H1767 0.930 . S
C1775 C1776 1.355 . S
C1775 C1777 1.415 . S
C1776 C1775 1.355 . S
C1776 C1778 1.419 . S
C1777 C1772 1.425 . S
C1777 C1774 1.409 . S
C1777 C1775 1.415 . S
C1778 H1768 0.930 . S
C1778 C1776 1.419 . S
C1778 C1779 1.362 . S
C1779 H1769 0.930 . S
C1779 C1772 1.409 . S
C1779 C1778 1.362 . S
H1780 C1786 0.930 . S
H1781 C1789 0.930 . S
H1782 C1790 0.930 . S
H1783 C1791 0.930 . S
H1784 C1794 0.930 . S
H1785 C1795 0.930 . S
C1786 H1780 0.930 . S
C1786 C1787 1.355 . S
C1786 C1788 1.415 . S
C1787 C1786 1.355 . S
C1787 C1789 1.419 . S
C1788 C1786 1.415 . S
C1788 C1793 1.425 . S
C1788 C1795 1.409 . S
C1789 H1781 0.930 . S
C1789 C1787 1.419 . S
C1789 C1790 1.362 . S
C1790 H1782 0.930 . S
C1790 C1789 1.362 . S
C1790 C1793 1.409 . S
C1791 H1783 0.930 . S
C1791 C1792 1.355 . S
C1791 C1793 1.415 . S
C1792 C1791 1.355 . S
C1792 C1794 1.419 . S
C1793 C1788 1.425 . S
C1793 C1790 1.409 . S
C1793 C1791 1.415 . S
C1794 H1784 0.930 . S
C1794 C1792 1.419 . S
C1794 C1795 1.362 . S
C1795 H1785 0.930 . S
C1795 C1788 1.409 . S
C1795 C1794 1.362 . S
H1796 C1802 0.930 . S
H1797 C1805 0.930 . S
H1798 C1806 0.930 . S
H1799 C1807 0.930 . S
H1800 C1810 0.930 . S
H1801 C1811 0.930 . S
C1802 H1796 0.930 . S
C1802 C1803 1.355 . S
C1802 C1804 1.415 . S
C1803 C1802 1.355 . S
C1803 C1805 1.419 . S
C1804 C1802 1.415 . S
C1804 C1809 1.425 . S
C1804 C1811 1.409 . S
C1805 H1797 0.930 . S
C1805 C1803 1.419 . S
C1805 C1806 1.362 . S
C1806 H1798 0.930 . S
C1806 C1805 1.362 . S
C1806 C1809 1.409 . S
C1807 H1799 0.930 . S
C1807 C1808 1.355 . S
C1807 C1809 1.415 . S
C1808 C1807 1.355 . S
C1808 C1810 1.419 . S
C1809 C1804 1.425 . S
C1809 C1806 1.409 . S
C1809 C1807 1.415 . S
C1810 H1800 0.930 . S
C1810 C1808 1.419 . S
C1810 C1811 1.362 . S
C1811 H1801 0.930 . S
C1811 C1804 1.409 . S
C1811 C1810 1.362 . S
H1812 C1818 0.930 . S
H1813 C1821 0.930 . S
H1814 C1822 0.930 . S
H1815 C1823 0.930 . S
H1816 C1826 0.930 . S
H1817 C1827 0.930 . S
C1818 H1812 0.930 . S
C1818 C1819 1.355 . S
C1818 C1820 1.415 . S
C1819 C1818 1.355 . S
C1819 C1821 1.419 . S
C1820 C1818 1.415 . S
C1820 C1825 1.425 . S
C1820 C1827 1.409 . S
C1821 H1813 0.930 . S
C1821 C1819 1.419 . S
C1821 C1822 1.362 . S
C1822 H1814 0.930 . S
C1822 C1821 1.362 . S
C1822 C1825 1.409 . S
C1823 H1815 0.930 . S
C1823 C1824 1.355 . S
C1823 C1825 1.415 . S
C1824 C1823 1.355 . S
C1824 C1826 1.419 . S
C1825 C1820 1.425 . S
C1825 C1822 1.409 . S
C1825 C1823 1.415 . S
C1826 H1816 0.930 . S
C1826 C1824 1.419 . S
C1826 C1827 1.362 . S
C1827 H1817 0.930 . S
C1827 C1820 1.409 . S
C1827 C1826 1.362 . S
H1828 C1834 0.930 . S
H1829 C1837 0.930 . S
H1830 C1838 0.930 . S
H1831 C1839 0.930 . S
H1832 C1842 0.930 . S
H1833 C1843 0.930 . S
C1834 H1828 0.930 . S
C1834 C1835 1.355 . S
C1834 C1836 1.415 . S
C1835 C1834 1.355 . S
C1835 C1837 1.419 . S
C1836 C1834 1.415 . S
C1836 C1841 1.425 . S
C1836 C1843 1.409 . S
C1837 H1829 0.930 . S
C1837 C1835 1.419 . S
C1837 C1838 1.362 . S
C1838 H1830 0.930 . S
C1838 C1837 1.362 . S
C1838 C1841 1.409 . S
C1839 H1831 0.930 . S
C1839 C1840 1.355 . S
C1839 C1841 1.415 . S
C1840 C1839 1.355 . S
C1840 C1842 1.419 . S
C1841 C1836 1.425 . S
C1841 C1838 1.409 . S
C1841 C1839 1.415 . S
C1842 H1832 0.930 . S
C1842 C1840 1.419 . S
C1842 C1843 1.362 . S
C1843 H1833 0.930 . S
C1843 C1836 1.409 . S
C1843 C1842 1.362 . S
H1844 C1850 0.930 . S
H1845 C1853 0.930 . S
H1846 C1854 0.930 . S
H1847 C1855 0.930 . S
H1848 C1858 0.930 . S
H1849 C1859 0.930 . S
C1850 H1844 0.930 . S
C1850 C1851 1.355 . S
C1850 C1852 1.415 . S
C1851 C1850 1.355 . S
C1851 C1853 1.419 . S
C1852 C1850 1.415 . S
C1852 C1857 1.425 . S
C1852 C1859 1.409 . S
C1853 H1845 0.930 . S
C1853 C1851 1.419 . S
C1853 C1854 1.362 . S
C1854 H1846 0.930 . S
C1854 C1853 1.362 . S
C1854 C1857 1.409 . S
C1855 H1847 0.930 . S
C1855 C1856 1.355 . S
C1855 C1857 1.415 . S
C1856 C1855 1.355 . S
C1856 C1858 1.419 . S
C1857 C1852 1.425 . S
C1857 C1854 1.409 . S
C1857 C1855 1.415 . S
C1858 H1848 0.930 . S
C1858 C1856 1.419 . S
C1858 C1859 1.362 . S
C1859 H1849 0.930 . S
C1859 C1852 1.409 . S
C1859 C1858 1.362 . S
H1860 C1866 0.930 . S
H1861 C1869 0.930 . S
H1862 C1870 0.930 . S
H1863 C1871 0.930 . S
H1864 C1874 0.930 . S
H1865 C1875 0.930 . S
C1866 H1860 0.930 . S
C1866 C1867 1.355 . S
C1866 C1868 1.415 . S
C1867 C1866 1.355 . S
C1867 C1869 1.419 . S
C1868 C1866 1.415 . S
C1868 C1873 1.425 . S
C1868 C1875 1.409 . S
C1869 H1861 0.930 . S
C1869 C1867 1.419 . S
C1869 C1870 1.362 . S
C1870 H1862 0.930 . S
C1870 C1869 1.362 . S
C1870 C1873 1.409 . S
C1871 H1863 0.930 . S
C1871 C1872 1.355 . S
C1871 C1873 1.415 . S
C1872 C1871 1.355 . S
C1872 C1874 1.419 . S
C1873 C1868 1.425 . S
C1873 C1870 1.409 . S
C1873 C1871 1.415 . S
C1874 H1864 0.930 . S
C1874 C1872 1.419 . S
C1874 C1875 1.362 . S
C1875 H1865 0.930 . S
C1875 C1868 1.409 . S
C1875 C1874 1.362 . S
H1876 C1882 0.930 . S
H1877 C1885 0.930 . S
H1878 C1886 0.930 . S
H1879 C1887 0.930 . S
H1880 C1890 0.930 . S
H1881 C1891 0.930 . S
C1882 H1876 0.930 . S
C1882 C1883 1.355 . S
C1882 C1884 1.415 . S
C1883 C1882 1.355 . S
C1883 C1885 1.419 . S
C1884 C1882 1.415 . S
C1884 C1889 1.425 . S
C1884 C1891 1.409 . S
C1885 H1877 0.930 . S
C1885 C1883 1.419 . S
C1885 C1886 1.362 . S
C1886 H1878 0.930 . S
C1886 C1885 1.362 . S
C1886 C1889 1.409 . S
C1887 H1879 0.930 . S
C1887 C1888 1.355 . S
C1887 C1889 1.415 . S
C1888 C1887 1.355 . S
C1888 C1890 1.419 . S
C1889 C1884 1.425 . S
C1889 C1886 1.409 . S
C1889 C1887 1.415 . S
C1890 H1880 0.930 . S
C1890 C1888 1.419 . S
C1890 C1891 1.362 . S
C1891 H1881 0.930 . S
C1891 C1884 1.409 . S
C1891 C1890 1.362 . S
H1892 C1898 0.930 . S
H1893 C1901 0.930 . S
H1894 C1902 0.930 . S
H1895 C1903 0.930 . S
H1896 C1906 0.930 . S
H1897 C1907 0.930 . S
C1898 H1892 0.930 . S
C1898 C1899 1.355 . S
C1898 C1900 1.415 . S
C1899 C1898 1.355 . S
C1899 C1901 1.419 . S
C1900 C1898 1.415 . S
C1900 C1905 1.425 . S
C1900 C1907 1.409 . S
C1901 H1893 0.930 . S
C1901 C1899 1.419 . S
C1901 C1902 1.362 . S
C1902 H1894 0.930 . S
C1902 C1901 1.362 . S
C1902 C1905 1.409 . S
C1903 H1895 0.930 . S
C1903 C1904 1.355 . S
C1903 C1905 1.415 . S
C1904 C1903 1.355 . S
C1904 C1906 1.419 . S
C1905 C1900 1.425 . S
C1905 C1902 1.409 . S
C1905 C1903 1.415 . S
C1906 H1896 0.930 . S
C1906 C1904 1.419 . S
C1906 C1907 1.362 . S
C1907 H1897 0.930 . S
C1907 C1900 1.409 . S
C1907 C1906 1.362 . S
H1908 C1914 0.930 . S
H1909 C1917 0.930 . S
H1910 C1918 0.930 . S
H1911 C1919 0.930 . S
H1912 C1922 0.930 . S
H1913 C1923 0.930 . S
C1914 H1908 0.930 . S
C1914 C1915 1.355 . S
C1914 C1916 1.415 . S
C1915 C1914 1.355 . S
C1915 C1917 1.419 . S
C1916 C1914 1.415 . S
C1916 C1921 1.425 . S
C1916 C1923 1.409 . S
C1917 H1909 0.930 . S
C1917 C1915 1.419 . S
C1917 C1918 1.362 . S
C1918 H1910 0.930 . S
C1918 C1917 1.362 . S
C1918 C1921 1.409 . S
C1919 H1911 0.930 . S
C1919 C1920 1.355 . S
C1919 C1921 1.415 . S
C1920 C1919 1.355 . S
C1920 C1922 1.419 . S
C1921 C1916 1.425 . S
C1921 C1918 1.409 . S
C1921 C1919 1.415 . S
C1922 H1912 0.930 . S
C1922 C1920 1.419 . S
C1922 C1923 1.362 . S
C1923 H1913 0.930 . S
C1923 C1916 1.409 . S
C1923 C1922 1.362 . S
H1924 C1930 0.930 . S
H1925 C1933 0.930 . S
H1926 C1934 0.930 . S
H1927 C1935 0.930 . S
H1928 C1938 0.930 . S
H1929 C1939 0.930 . S
C1930 H1924 0.930 . S
C1930 C1931 1.355 . S
C1930 C1932 1.415 . S
C1931 C1930 1.355 . S
C1931 C1933 1.419 . S
C1932 C1930 1.415 . S
C1932 C1937 1.425 . S
C1932 C1939 1.409 . S
C1933 H1925 0.930 . S
C1933 C1931 1.419 . S
C1933 C1934 1.362 . S
C1934 H1926 0.930 . S
C1934 C1933 1.362 . S
C1934 C1937 1.409 . S
C1935 H1927 0.930 . S
C1935 C1936 1.355 . S
C1935 C1937 1.415 . S
C1936 C1935 1.355 . S
C1936 C1938 1.419 . S
C1937 C1932 1.425 . S
C1937 C1934 1.409 . S
C1937 C1935 1.415 . S
C1938 H1928 0.930 . S
C1938 C1936 1.419 . S
C1938 C1939 1.362 . S
C1939 H1929 0.930 . S
C1939 C1932 1.409 . S
C1939 C1938 1.362 . S
H1940 C1946 0.930 . S
H1941 C1949 0.930 . S
H1942 C1950 0.930 . S
H1943 C1951 0.930 . S
H1944 C1954 0.930 . S
H1945 C1955 0.930 . S
C1946 H1940 0.930 . S
C1946 C1947 1.355 . S
C1946 C1948 1.415 . S
C1947 C1946 1.355 . S
C1947 C1949 1.419 . S
C1948 C1946 1.415 . S
C1948 C1953 1.425 . S
C1948 C1955 1.409 . S
C1949 H1941 0.930 . S
C1949 C1947 1.419 . S
C1949 C1950 1.362 . S
C1950 H1942 0.930 . S
C1950 C1949 1.362 . S
C1950 C1953 1.409 . S
C1951 H1943 0.930 . S
C1951 C1952 1.355 . S
C1951 C1953 1.415 . S
C1952 C1951 1.355 . S
C1952 C1954 1.419 . S
C1953 C1948 1.425 . S
C1953 C1950 1.409 . S
C1953 C1951 1.415 . S
C1954 H1944 0.930 . S
C1954 C1952 1.419 . S
C1954 C1955 1.362 . S
C1955 H1945 0.930 . S
C1955 C1948 1.409 . S
C1955 C1954 1.362 . S
H1956 C1962 0.930 1_655 S
H1957 C1965 0.930 . S
H1958 C1966 0.930 . S
H1959 C1967 0.930 1_455 S
H1960 C1970 0.930 . S
H1961 C1971 0.930 . S
C1962 H1956 0.930 1_455 S
C1962 C1963 1.355 . S
C1962 C1964 1.415 1_455 S
C1963 C1962 1.355 . S
C1963 C1965 1.419 . S
C1964 C1962 1.415 1_655 S
C1964 C1969 1.425 1_655 S
C1964 C1971 1.409 . S
C1965 H1957 0.930 . S
C1965 C1963 1.419 . S
C1965 C1966 1.362 . S
C1966 H1958 0.930 . S
C1966 C1965 1.362 . S
C1966 C1969 1.409 . S
C1967 H1959 0.930 1_655 S
C1967 C1968 1.355 . S
C1967 C1969 1.415 1_655 S
C1968 C1967 1.355 . S
C1968 C1970 1.419 . S
C1969 C1964 1.425 1_455 S
C1969 C1966 1.409 . S
C1969 C1967 1.415 1_455 S
C1970 H1960 0.930 . S
C1970 C1968 1.419 . S
C1970 C1971 1.362 . S
C1971 H1961 0.930 . S
C1971 C1964 1.409 . S
C1971 C1970 1.362 . S
H1972 C1978 0.930 . S
H1973 C1981 0.930 . S
H1974 C1982 0.930 . S
H1975 C1983 0.930 . S
H1976 C1986 0.930 . S
H1977 C1987 0.930 . S
C1978 H1972 0.930 . S
C1978 C1979 1.355 . S
C1978 C1980 1.415 . S
C1979 C1978 1.355 . S
C1979 C1981 1.419 . S
C1980 C1978 1.415 . S
C1980 C1985 1.425 . S
C1980 C1987 1.409 . S
C1981 H1973 0.930 . S
C1981 C1979 1.419 . S
C1981 C1982 1.362 . S
C1982 H1974 0.930 . S
C1982 C1981 1.362 . S
C1982 C1985 1.409 . S
C1983 H1975 0.930 . S
C1983 C1984 1.355 . S
C1983 C1985 1.415 . S
C1984 C1983 1.355 . S
C1984 C1986 1.419 . S
C1985 C1980 1.425 . S
C1985 C1982 1.409 . S
C1985 C1983 1.415 . S
C1986 H1976 0.930 . S
C1986 C1984 1.419 . S
C1986 C1987 1.362 . S
C1987 H1977 0.930 . S
C1987 C1980 1.409 . S
C1987 C1986 1.362 . S
H1988 C1994 0.930 . S
H1989 C1997 0.930 . S
H1990 C1998 0.930 . S
H1991 C1999 0.930 . S
H1992 C2002 0.930 . S
H1993 C2003 0.930 . S
C1994 H1988 0.930 . S
C1994 C1995 1.355 . S
C1994 C1996 1.415 . S
C1995 C1994 1.355 . S
C1995 C1997 1.419 1_545 S
C1996 C1994 1.415 . S
C1996 C2001 1.425 1_545 S
C1996 C2003 1.409 . S
C1997 H1989 0.930 . S
C1997 C1995 1.419 1_565 S
C1997 C1998 1.362 . S
C1998 H1990 0.930 . S
C1998 C1997 1.362 . S
C1998 C2001 1.409 . S
C1999 H1991 0.930 . S
C1999 C2000 1.355 . S
C1999 C2001 1.415 . S
C2000 C1999 1.355 . S
C2000 C2002 1.419 1_565 S
C2001 C1996 1.425 1_565 S
C2001 C1998 1.409 . S
C2001 C1999 1.415 . S
C2002 H1992 0.930 . S
C2002 C2000 1.419 1_545 S
C2002 C2003 1.362 . S
C2003 H1993 0.930 . S
C2003 C1996 1.409 . S
C2003 C2002 1.362 . S
H2004 C2010 0.930 . S
H2005 C2013 0.930 . S
H2006 C2014 0.930 . S
H2007 C2015 0.930 . S
H2008 C2018 0.930 . S
H2009 C2019 0.930 . S
C2010 H2004 0.930 . S
C2010 C2011 1.355 . S
C2010 C2012 1.442 1_554 S
C2011 C2010 1.355 . S
C2011 C2013 1.419 . S
C2012 C2010 1.442 1_556 S
C2012 C2017 1.382 1_566 S
C2012 C2019 1.404 1_565 S
C2013 H2005 0.930 . S
C2013 C2011 1.419 . S
C2013 C2014 1.362 . S
C2014 H2006 0.930 . S
C2014 C2013 1.362 . S
C2014 C2017 1.404 1_565 S
C2015 H2007 0.930 . S
C2015 C2016 1.355 . S
C2015 C2017 1.442 1_556 S
C2016 C2015 1.355 . S
C2016 C2018 1.419 . S
C2017 C2012 1.382 1_544 S
C2017 C2014 1.404 1_545 S
C2017 C2015 1.442 1_554 S
C2018 H2008 0.930 . S
C2018 C2016 1.419 . S
C2018 C2019 1.362 . S
C2019 H2009 0.930 . S
C2019 C2012 1.404 1_545 S
C2019 C2018 1.362 . S
H2020 C2026 0.930 . S
H2021 C2029 0.930 . S
H2022 C2030 0.930 . S
H2023 C2031 0.930 . S
H2024 C2034 0.930 . S
H2025 C2035 0.930 . S
C2026 H2020 0.930 . S
C2026 C2027 1.355 . S
C2026 C2028 1.415 1_556 S
C2027 C2026 1.355 . S
C2027 C2029 1.419 . S
C2028 C2026 1.415 1_554 S
C2028 C2033 1.425 1_654 S
C2028 C2035 1.409 1_655 S
C2029 H2021 0.930 . S
C2029 C2027 1.419 . S
C2029 C2030 1.362 . S
C2030 H2022 0.930 . S
C2030 C2029 1.362 . S
C2030 C2033 1.409 1_655 S
C2031 H2023 0.930 . S
C2031 C2032 1.355 . S
C2031 C2033 1.415 1_554 S
C2032 C2031 1.355 . S
C2032 C2034 1.419 . S
C2033 C2028 1.425 1_456 S
C2033 C2030 1.409 1_455 S
C2033 C2031 1.415 1_556 S
C2034 H2024 0.930 . S
C2034 C2032 1.419 . S
C2034 C2035 1.362 . S
C2035 H2025 0.930 . S
C2035 C2028 1.409 1_455 S
C2035 C2034 1.362 . S
H2036 C2042 0.930 . S
H2037 C2045 0.930 . S
H2038 C2046 0.930 . S
H2039 C2047 0.930 . S
H2040 C2050 0.930 . S
H2041 C2051 0.930 . S
C2042 H2036 0.930 . S
C2042 C2043 1.355 . S
C2042 C2044 1.415 1_554 S
C2043 C2042 1.355 . S
C2043 C2045 1.419 . S
C2044 C2042 1.415 1_556 S
C2044 C2049 1.425 1_556 S
C2044 C2051 1.409 . S
C2045 H2037 0.930 . S
C2045 C2043 1.419 . S
C2045 C2046 1.362 . S
C2046 H2038 0.930 . S
C2046 C2045 1.362 . S
C2046 C2049 1.409 . S
C2047 H2039 0.930 . S
C2047 C2048 1.355 . S
C2047 C2049 1.415 1_556 S
C2048 C2047 1.355 . S
C2048 C2050 1.419 . S
C2049 C2044 1.425 1_554 S
C2049 C2046 1.409 . S
C2049 C2047 1.415 1_554 S
C2050 H2040 0.930 . S
C2050 C2048 1.419 . S
C2050 C2051 1.362 . S
C2051 H2041 0.930 . S
C2051 C2044 1.409 . S
C2051 C2050 1.362 . S
H2052 C2058 0.930 . S
H2053 C2061 0.930 . S
H2054 C2062 0.930 . S
H2055 C2063 0.930 . S
H2056 C2066 0.930 . S
H2057 C2067 0.930 1_554 S
C2058 H2052 0.930 . S
C2058 C2059 1.355 . S
C2058 C2060 1.415 1_554 S
C2059 C2058 1.355 . S
C2059 C2061 1.419 1_554 S
C2060 C2058 1.415 1_556 S
C2060 C2065 1.425 . S
C2060 C2067 1.409 . S
C2061 H2053 0.930 . S
C2061 C2059 1.419 1_556 S
C2061 C2062 1.362 . S
C2062 H2054 0.930 . S
C2062 C2061 1.362 . S
C2062 C2065 1.409 . S
C2063 H2055 0.930 . S
C2063 C2064 1.355 1_545 S
C2063 C2065 1.415 . S
C2064 C2063 1.355 1_565 S
C2064 C2066 1.419 . S
C2065 C2060 1.425 . S
C2065 C2062 1.409 . S
C2065 C2063 1.415 . S
C2066 H2056 0.930 . S
C2066 C2064 1.419 . S
C2066 C2067 1.362 1_565 S
C2067 H2057 0.930 1_556 S
C2067 C2060 1.409 . S
C2067 C2066 1.362 1_545 S
H2068 C2074 0.930 . S
H2069 C2077 0.930 . S
H2070 C2078 0.930 . S
H2071 C2079 0.930 . S
H2072 C2082 0.930 . S
H2073 C2083 0.930 . S
C2074 H2068 0.930 . S
C2074 C2075 1.355 . S
C2074 C2076 1.415 1_554 S
C2075 C2074 1.355 . S
C2075 C2077 1.419 1_554 S
C2076 C2074 1.415 1_556 S
C2076 C2081 1.425 . S
C2076 C2083 1.409 1_556 S
C2077 H2069 0.930 . S
C2077 C2075 1.419 1_556 S
C2077 C2078 1.362 . S
C2078 H2070 0.930 . S
C2078 C2077 1.362 . S
C2078 C2081 1.409 . S
C2079 H2071 0.930 . S
C2079 C2080 1.355 1_655 S
C2079 C2081 1.415 . S
C2080 C2079 1.355 1_455 S
C2080 C2082 1.419 . S
C2081 C2076 1.425 . S
C2081 C2078 1.409 . S
C2081 C2079 1.415 . S
C2082 H2072 0.930 . S
C2082 C2080 1.419 . S
C2082 C2083 1.362 1_456 S
C2083 H2073 0.930 . S
C2083 C2076 1.409 1_554 S
C2083 C2082 1.362 1_654 S
H2084 C2090 0.930 . S
H2085 C2093 0.930 . S
H2086 C2094 0.930 . S
H2087 C2095 0.930 . S
H2088 C2098 0.930 . S
H2089 C2099 0.930 . S
C2090 H2084 0.930 . S
C2090 C2091 1.355 . S
C2090 C2092 1.415 . S
C2091 C2090 1.355 . S
C2091 C2093 1.419 . S
C2092 C2090 1.415 . S
C2092 C2097 1.440 . S
C2092 C2099 1.409 . S
C2093 H2085 0.930 . S
C2093 C2091 1.419 . S
C2093 C2094 1.362 1_556 S
C2094 H2086 0.930 . S
C2094 C2093 1.362 1_554 S
C2094 C2097 1.405 1_554 S
C2095 H2087 0.930 . S
C2095 C2096 1.355 . S
C2095 C2097 1.405 1_554 S
C2096 C2095 1.355 . S
C2096 C2098 1.419 1_554 S
C2097 C2092 1.440 . S
C2097 C2094 1.405 1_556 S
C2097 C2095 1.405 1_556 S
C2098 H2088 0.930 . S
C2098 C2096 1.419 1_556 S
C2098 C2099 1.362 . S
C2099 H2089 0.930 . S
C2099 C2092 1.409 . S
C2099 C2098 1.362 . S
H2100 C2106 0.930 . S
H2101 C2109 0.928 1_655 S
H2102 C2110 0.930 . S
H2103 C2111 0.930 . S
H2104 C2114 0.930 . S
H2105 C2115 0.930 . S
C2106 H2100 0.930 . S
C2106 C2107 1.355 1_455 S
C2106 C2108 1.415 . S
C2107 C2106 1.355 1_655 S
C2107 C2109 1.414 1_655 S
C2108 C2106 1.415 . S
C2108 C2113 1.425 . S
C2108 C2115 1.409 . S
C2109 H2101 0.928 1_455 S
C2109 C2107 1.414 1_455 S
C2109 C2110 1.369 . S
C2110 H2102 0.930 . S
C2110 C2109 1.369 . S
C2110 C2113 1.409 . S
C2111 H2103 0.930 . S
C2111 C2112 1.355 . S
C2111 C2113 1.415 . S
C2112 C2111 1.355 . S
C2112 C2114 1.419 . S
C2113 C2108 1.425 . S
C2113 C2110 1.409 . S
C2113 C2111 1.415 . S
C2114 H2104 0.930 . S
C2114 C2112 1.419 . S
C2114 C2115 1.362 . S
C2115 H2105 0.930 . S
C2115 C2108 1.409 . S
C2115 C2114 1.362 . S
H2116 C2122 0.930 . S
H2117 C2125 0.930 . S
H2118 C2126 0.930 . S
H2119 C2127 0.930 . S
H2120 C2130 0.930 . S
H2121 C2131 0.930 . S
C2122 H2116 0.930 . S
C2122 C2123 1.355 . S
C2122 C2124 1.415 . S
C2123 C2122 1.355 . S
C2123 C2125 1.419 . S
C2124 C2122 1.415 . S
C2124 C2129 1.425 . S
C2124 C2131 1.409 . S
C2125 H2117 0.930 . S
C2125 C2123 1.419 . S
C2125 C2126 1.362 . S
C2126 H2118 0.930 . S
C2126 C2125 1.362 . S
C2126 C2129 1.409 . S
C2127 H2119 0.930 . S
C2127 C2128 1.355 . S
C2127 C2129 1.415 . S
C2128 C2127 1.355 . S
C2128 C2130 1.419 . S
C2129 C2124 1.425 . S
C2129 C2126 1.409 . S
C2129 C2127 1.415 . S
C2130 H2120 0.930 . S
C2130 C2128 1.419 . S
C2130 C2131 1.362 . S
C2131 H2121 0.930 . S
C2131 C2124 1.409 . S
C2131 C2130 1.362 . S
H2132 C2138 0.960 . S
H2133 C2141 0.927 1_545 S
H2134 C2142 0.930 . S
H2135 C2143 0.930 . S
H2136 C2146 0.930 . S
H2137 C2147 0.930 . S
C2138 H2132 0.960 . S
C2138 C2139 1.355 1_565 S
C2138 C2140 1.415 . S
C2139 C2138 1.355 1_545 S
C2139 C2141 1.419 1_545 S
C2140 C2138 1.415 . S
C2140 C2145 1.425 . S
C2140 C2147 1.409 . S
C2141 H2133 0.927 1_565 S
C2141 C2139 1.419 1_565 S
C2141 C2142 1.362 . S
C2142 H2134 0.930 . S
C2142 C2141 1.362 . S
C2142 C2145 1.409 . S
C2143 H2135 0.930 . S
C2143 C2144 1.355 . S
C2143 C2145 1.415 . S
C2144 C2143 1.355 . S
C2144 C2146 1.419 . S
C2145 C2140 1.425 . S
C2145 C2142 1.409 . S
C2145 C2143 1.415 . S
C2146 H2136 0.930 . S
C2146 C2144 1.419 . S
C2146 C2147 1.362 . S
C2147 H2137 0.930 . S
C2147 C2140 1.409 . S
C2147 C2146 1.362 . S
H2148 C2154 0.929 . S
H2149 C2157 0.930 1_545 S
H2150 C2158 0.930 . S
H2151 C2159 0.930 . S
H2152 C2162 0.930 . S
H2153 C2163 0.930 . S
C2154 H2148 0.929 . S
C2154 C2155 1.355 1_565 S
C2154 C2156 1.415 . S
C2155 C2154 1.355 1_545 S
C2155 C2157 1.419 1_545 S
C2156 C2154 1.415 . S
C2156 C2161 1.425 . S
C2156 C2163 1.409 1_554 S
C2157 H2149 0.930 1_565 S
C2157 C2155 1.419 1_565 S
C2157 C2158 1.362 . S
C2158 H2150 0.930 . S
C2158 C2157 1.362 . S
C2158 C2161 1.409 . S
C2159 H2151 0.930 . S
C2159 C2160 1.355 1_554 S
C2159 C2161 1.415 . S
C2160 C2159 1.355 1_556 S
C2160 C2162 1.419 . S
C2161 C2156 1.425 . S
C2161 C2158 1.409 . S
C2161 C2159 1.415 . S
C2162 H2152 0.930 . S
C2162 C2160 1.419 . S
C2162 C2163 1.362 . S
C2163 H2153 0.930 . S
C2163 C2156 1.409 1_556 S
C2163 C2162 1.362 . S
H2164 C2170 0.930 . S
H2165 C2173 0.930 1_655 S
H2166 C2174 0.930 . S
H2167 C2175 0.930 . S
H2168 C2178 0.930 . S
H2169 C2179 0.930 . S
C2170 H2164 0.930 . S
C2170 C2171 1.355 1_455 S
C2170 C2172 1.415 . S
C2171 C2170 1.355 1_655 S
C2171 C2173 1.419 1_655 S
C2172 C2170 1.415 . S
C2172 C2177 1.425 . S
C2172 C2179 1.409 . S
C2173 H2165 0.930 1_455 S
C2173 C2171 1.419 1_455 S
C2173 C2174 1.362 . S
C2174 H2166 0.930 . S
C2174 C2173 1.362 . S
C2174 C2177 1.409 . S
C2175 H2167 0.930 . S
C2175 C2176 1.355 1_554 S
C2175 C2177 1.415 . S
C2176 C2175 1.355 1_556 S
C2176 C2178 1.419 . S
C2177 C2172 1.425 . S
C2177 C2174 1.409 . S
C2177 C2175 1.415 . S
C2178 H2168 0.930 . S
C2178 C2176 1.419 . S
C2178 C2179 1.363 1_556 S
C2179 H2169 0.930 . S
C2179 C2172 1.409 . S
C2179 C2178 1.363 1_554 S
H2180 C2186 0.930 . S
H2181 C2189 0.930 . S
H2182 C2190 0.930 . S
H2183 C2191 0.930 . S
H2184 C2194 0.930 . S
H2185 C2195 0.930 . S
C2186 H2180 0.930 . S
C2186 C2187 1.355 . S
C2186 C2188 1.415 . S
C2187 C2186 1.355 . S
C2187 C2189 1.419 . S
C2188 C2186 1.415 . S
C2188 C2193 1.425 . S
C2188 C2195 1.409 1_554 S
C2189 H2181 0.930 . S
C2189 C2187 1.419 . S
C2189 C2190 1.362 . S
C2190 H2182 0.930 . S
C2190 C2189 1.362 . S
C2190 C2193 1.409 . S
C2191 H2183 0.930 . S
C2191 C2192 1.355 1_554 S
C2191 C2193 1.415 . S
C2192 C2191 1.355 1_556 S
C2192 C2194 1.419 . S
C2193 C2188 1.425 . S
C2193 C2190 1.409 . S
C2193 C2191 1.415 . S
C2194 H2184 0.930 . S
C2194 C2192 1.419 . S
C2194 C2195 1.362 . S
C2195 H2185 0.930 . S
C2195 C2188 1.409 1_556 S
C2195 C2194 1.362 . S
H2196 C2202 0.930 . S
H2197 C2205 0.930 . S
H2198 C2206 0.930 . S
H2199 C2207 0.930 . S
H2200 C2210 0.930 . S
H2201 C2211 0.930 . S
C2202 H2196 0.930 . S
C2202 C2203 1.355 . S
C2202 C2204 1.415 . S
C2203 C2202 1.355 . S
C2203 C2205 1.419 . S
C2204 C2202 1.415 . S
C2204 C2209 1.425 . S
C2204 C2211 1.409 . S
C2205 H2197 0.930 . S
C2205 C2203 1.419 . S
C2205 C2206 1.362 . S
C2206 H2198 0.930 . S
C2206 C2205 1.362 . S
C2206 C2209 1.409 . S
C2207 H2199 0.930 . S
C2207 C2208 1.355 1_655 S
C2207 C2209 1.415 . S
C2208 C2207 1.355 1_455 S
C2208 C2210 1.419 . S
C2209 C2204 1.425 . S
C2209 C2206 1.409 . S
C2209 C2207 1.415 . S
C2210 H2200 0.930 . S
C2210 C2208 1.419 . S
C2210 C2211 1.362 1_455 S
C2211 H2201 0.930 . S
C2211 C2204 1.409 . S
C2211 C2210 1.362 1_655 S
H2212 C2218 0.930 . S
H2213 C2221 0.930 . S
H2214 C2222 0.930 . S
H2215 C2223 0.930 . S
H2216 C2226 0.930 . S
H2217 C2227 0.930 . S
C2218 H2212 0.930 . S
C2218 C2219 1.355 . S
C2218 C2220 1.415 . S
C2219 C2218 1.355 . S
C2219 C2221 1.419 . S
C2220 C2218 1.415 . S
C2220 C2225 1.425 . S
C2220 C2227 1.409 . S
C2221 H2213 0.930 . S
C2221 C2219 1.419 . S
C2221 C2222 1.362 . S
C2222 H2214 0.930 . S
C2222 C2221 1.362 . S
C2222 C2225 1.409 . S
C2223 H2215 0.930 . S
C2223 C2224 1.355 . S
C2223 C2225 1.415 . S
C2224 C2223 1.355 . S
C2224 C2226 1.419 . S
C2225 C2220 1.425 . S
C2225 C2222 1.409 . S
C2225 C2223 1.415 . S
C2226 H2216 0.930 . S
C2226 C2224 1.419 . S
C2226 C2227 1.362 . S
C2227 H2217 0.930 . S
C2227 C2220 1.409 . S
C2227 C2226 1.362 . S
H2228 C2234 0.903 1_565 S
H2229 C2237 0.927 1_565 S
H2230 C2238 0.930 . S
H2231 C2239 0.930 . S
H2232 C2242 0.930 . S
H2233 C2243 0.930 . S
C2234 H2228 0.903 1_545 S
C2234 C2235 1.355 1_545 S
C2234 C2236 1.415 . S
C2235 C2234 1.355 1_565 S
C2235 C2237 1.419 1_565 S
C2236 C2234 1.415 . S
C2236 C2241 1.425 . S
C2236 C2243 1.409 . S
C2237 H2229 0.927 1_545 S
C2237 C2235 1.419 1_545 S
C2237 C2238 1.362 . S
C2238 H2230 0.930 . S
C2238 C2237 1.362 . S
C2238 C2241 1.409 . S
C2239 H2231 0.930 . S
C2239 C2240 1.355 . S
C2239 C2241 1.415 . S
C2240 C2239 1.355 . S
C2240 C2242 1.419 . S
C2241 C2236 1.425 . S
C2241 C2238 1.409 . S
C2241 C2239 1.415 . S
C2242 H2232 0.930 . S
C2242 C2240 1.419 . S
C2242 C2243 1.362 . S
C2243 H2233 0.930 . S
C2243 C2236 1.409 . S
C2243 C2242 1.362 . S
H2244 C2250 0.930 . S
H2245 C2253 0.930 . S
H2246 C2254 0.930 . S
H2247 C2255 0.930 . S
H2248 C2258 0.930 . S
H2249 C2259 0.930 . S
C2250 H2244 0.930 . S
C2250 C2251 1.355 . S
C2250 C2252 1.415 . S
C2251 C2250 1.355 . S
C2251 C2253 1.419 . S
C2252 C2250 1.415 . S
C2252 C2257 1.425 . S
C2252 C2259 1.409 . S
C2253 H2245 0.930 . S
C2253 C2251 1.419 . S
C2253 C2254 1.362 . S
C2254 H2246 0.930 . S
C2254 C2253 1.362 . S
C2254 C2257 1.409 . S
C2255 H2247 0.930 . S
C2255 C2256 1.355 . S
C2255 C2257 1.415 . S
C2256 C2255 1.355 . S
C2256 C2258 1.419 . S
C2257 C2252 1.425 . S
C2257 C2254 1.409 . S
C2257 C2255 1.415 . S
C2258 H2248 0.930 . S
C2258 C2256 1.419 . S
C2258 C2259 1.362 . S
C2259 H2249 0.930 . S
C2259 C2252 1.409 . S
C2259 C2258 1.362 . S
H2260 C2266 0.930 . S
H2261 C2269 0.930 . S
H2262 C2270 0.930 . S
H2263 C2271 0.930 . S
H2264 C2274 0.930 . S
H2265 C2275 0.930 . S
C2266 H2260 0.930 . S
C2266 C2267 1.355 . S
C2266 C2268 1.415 . S
C2267 C2266 1.355 . S
C2267 C2269 1.419 . S
C2268 C2266 1.415 . S
C2268 C2273 1.425 . S
C2268 C2275 1.409 . S
C2269 H2261 0.930 . S
C2269 C2267 1.419 . S
C2269 C2270 1.362 . S
C2270 H2262 0.930 . S
C2270 C2269 1.362 . S
C2270 C2273 1.409 . S
C2271 H2263 0.930 . S
C2271 C2272 1.355 . S
C2271 C2273 1.415 . S
C2272 C2271 1.355 . S
C2272 C2274 1.419 . S
C2273 C2268 1.425 . S
C2273 C2270 1.409 . S
C2273 C2271 1.415 . S
C2274 H2264 0.930 . S
C2274 C2272 1.419 . S
C2274 C2275 1.362 . S
C2275 H2265 0.930 . S
C2275 C2268 1.409 . S
C2275 C2274 1.362 . S
H2276 C2282 0.930 . S
H2277 C2285 0.930 . S
H2278 C2286 0.930 . S
H2279 C2287 0.930 . S
H2280 C2290 0.930 . S
H2281 C2291 0.930 . S
C2282 H2276 0.930 . S
C2282 C2283 1.355 . S
C2282 C2284 1.415 . S
C2283 C2282 1.355 . S
C2283 C2285 1.419 . S
C2284 C2282 1.415 . S
C2284 C2289 1.425 . S
C2284 C2291 1.409 . S
C2285 H2277 0.930 . S
C2285 C2283 1.419 . S
C2285 C2286 1.362 . S
C2286 H2278 0.930 . S
C2286 C2285 1.362 . S
C2286 C2289 1.409 . S
C2287 H2279 0.930 . S
C2287 C2288 1.355 . S
C2287 C2289 1.415 . S
C2288 C2287 1.355 . S
C2288 C2290 1.419 . S
C2289 C2284 1.425 . S
C2289 C2286 1.409 . S
C2289 C2287 1.415 . S
C2290 H2280 0.930 . S
C2290 C2288 1.419 . S
C2290 C2291 1.362 . S
C2291 H2281 0.930 . S
C2291 C2284 1.409 . S
C2291 C2290 1.362 . S
H2292 C2298 0.930 . S
H2293 C2301 0.930 . S
H2294 C2302 0.930 . S
H2295 C2303 0.930 . S
H2296 C2306 0.930 . S
H2297 C2307 0.930 . S
C2298 H2292 0.930 . S
C2298 C2299 1.355 . S
C2298 C2300 1.415 . S
C2299 C2298 1.355 . S
C2299 C2301 1.419 . S
C2300 C2298 1.415 . S
C2300 C2305 1.425 . S
C2300 C2307 1.409 . S
C2301 H2293 0.930 . S
C2301 C2299 1.419 . S
C2301 C2302 1.362 . S
C2302 H2294 0.930 . S
C2302 C2301 1.362 . S
C2302 C2305 1.409 . S
C2303 H2295 0.930 . S
C2303 C2304 1.355 . S
C2303 C2305 1.415 . S
C2304 C2303 1.355 . S
C2304 C2306 1.419 . S
C2305 C2300 1.425 . S
C2305 C2302 1.409 . S
C2305 C2303 1.415 . S
C2306 H2296 0.930 . S
C2306 C2304 1.419 . S
C2306 C2307 1.362 . S
C2307 H2297 0.930 . S
C2307 C2300 1.409 . S
C2307 C2306 1.362 . S
H2308 C2314 0.930 . S
H2309 C2317 0.930 . S
H2310 C2318 0.930 . S
H2311 C2319 0.930 . S
H2312 C2322 0.930 . S
H2313 C2323 0.930 . S
C2314 H2308 0.930 . S
C2314 C2315 1.355 . S
C2314 C2316 1.415 . S
C2315 C2314 1.355 . S
C2315 C2317 1.419 . S
C2316 C2314 1.415 . S
C2316 C2321 1.425 . S
C2316 C2323 1.409 . S
C2317 H2309 0.930 . S
C2317 C2315 1.419 . S
C2317 C2318 1.362 . S
C2318 H2310 0.930 . S
C2318 C2317 1.362 . S
C2318 C2321 1.409 . S
C2319 H2311 0.930 . S
C2319 C2320 1.355 . S
C2319 C2321 1.415 . S
C2320 C2319 1.355 . S
C2320 C2322 1.419 . S
C2321 C2316 1.425 . S
C2321 C2318 1.409 . S
C2321 C2319 1.415 . S
C2322 H2312 0.930 . S
C2322 C2320 1.419 . S
C2322 C2323 1.362 . S
C2323 H2313 0.930 . S
C2323 C2316 1.409 . S
C2323 C2322 1.362 . S
H2324 C2330 0.930 . S
H2325 C2333 0.930 . S
H2326 C2334 0.930 . S
H2327 C2335 0.930 . S
H2328 C2338 0.930 . S
H2329 C2339 0.930 . S
C2330 H2324 0.930 . S
C2330 C2331 1.355 . S
C2330 C2332 1.415 . S
C2331 C2330 1.355 . S
C2331 C2333 1.419 . S
C2332 C2330 1.415 . S
C2332 C2337 1.425 . S
C2332 C2339 1.409 . S
C2333 H2325 0.930 . S
C2333 C2331 1.419 . S
C2333 C2334 1.362 . S
C2334 H2326 0.930 . S
C2334 C2333 1.362 . S
C2334 C2337 1.409 . S
C2335 H2327 0.930 . S
C2335 C2336 1.355 . S
C2335 C2337 1.415 . S
C2336 C2335 1.355 . S
C2336 C2338 1.419 . S
C2337 C2332 1.425 . S
C2337 C2334 1.409 . S
C2337 C2335 1.415 . S
C2338 H2328 0.930 . S
C2338 C2336 1.419 . S
C2338 C2339 1.362 . S
C2339 H2329 0.930 . S
C2339 C2332 1.409 . S
C2339 C2338 1.362 . S
H2340 C2346 0.930 . S
H2341 C2349 0.930 . S
H2342 C2350 0.930 . S
H2343 C2351 0.930 . S
H2344 C2354 0.930 . S
H2345 C2355 0.930 . S
C2346 H2340 0.930 . S
C2346 C2347 1.355 . S
C2346 C2348 1.415 . S
C2347 C2346 1.355 . S
C2347 C2349 1.419 . S
C2348 C2346 1.415 . S
C2348 C2353 1.425 . S
C2348 C2355 1.409 . S
C2349 H2341 0.930 . S
C2349 C2347 1.419 . S
C2349 C2350 1.362 . S
C2350 H2342 0.930 . S
C2350 C2349 1.362 . S
C2350 C2353 1.409 . S
C2351 H2343 0.930 . S
C2351 C2352 1.355 . S
C2351 C2353 1.415 . S
C2352 C2351 1.355 . S
C2352 C2354 1.419 . S
C2353 C2348 1.425 . S
C2353 C2350 1.409 . S
C2353 C2351 1.415 . S
C2354 H2344 0.930 . S
C2354 C2352 1.419 . S
C2354 C2355 1.362 . S
C2355 H2345 0.930 . S
C2355 C2348 1.409 . S
C2355 C2354 1.362 . S
H2356 C2362 0.930 . S
H2357 C2365 0.930 . S
H2358 C2366 0.930 . S
H2359 C2367 0.930 . S
H2360 C2370 0.930 . S
H2361 C2371 0.930 . S
C2362 H2356 0.930 . S
C2362 C2363 1.355 . S
C2362 C2364 1.415 . S
C2363 C2362 1.355 . S
C2363 C2365 1.419 . S
C2364 C2362 1.415 . S
C2364 C2369 1.425 . S
C2364 C2371 1.409 . S
C2365 H2357 0.930 . S
C2365 C2363 1.419 . S
C2365 C2366 1.362 . S
C2366 H2358 0.930 . S
C2366 C2365 1.362 . S
C2366 C2369 1.409 . S
C2367 H2359 0.930 . S
C2367 C2368 1.355 . S
C2367 C2369 1.415 . S
C2368 C2367 1.355 . S
C2368 C2370 1.419 . S
C2369 C2364 1.425 . S
C2369 C2366 1.409 . S
C2369 C2367 1.415 . S
C2370 H2360 0.930 . S
C2370 C2368 1.419 . S
C2370 C2371 1.362 . S
C2371 H2361 0.930 . S
C2371 C2364 1.409 . S
C2371 C2370 1.362 . S
H2372 C2378 0.930 . S
H2373 C2381 0.930 . S
H2374 C2382 0.930 . S
H2375 C2383 0.930 . S
H2376 C2386 0.930 . S
H2377 C2387 0.930 . S
C2378 H2372 0.930 . S
C2378 C2379 1.355 . S
C2378 C2380 1.415 . S
C2379 C2378 1.355 . S
C2379 C2381 1.419 . S
C2380 C2378 1.415 . S
C2380 C2385 1.425 . S
C2380 C2387 1.409 . S
C2381 H2373 0.930 . S
C2381 C2379 1.419 . S
C2381 C2382 1.362 . S
C2382 H2374 0.930 . S
C2382 C2381 1.362 . S
C2382 C2385 1.409 . S
C2383 H2375 0.930 . S
C2383 C2384 1.355 . S
C2383 C2385 1.415 . S
C2384 C2383 1.355 . S
C2384 C2386 1.419 . S
C2385 C2380 1.425 . S
C2385 C2382 1.409 . S
C2385 C2383 1.415 . S
C2386 H2376 0.930 . S
C2386 C2384 1.419 . S
C2386 C2387 1.362 . S
C2387 H2377 0.930 . S
C2387 C2380 1.409 . S
C2387 C2386 1.362 . S
H2388 C2394 0.930 . S
H2389 C2397 0.930 . S
H2390 C2398 0.930 . S
H2391 C2399 0.930 . S
H2392 C2402 0.930 . S
H2393 C2403 0.930 . S
C2394 H2388 0.930 . S
C2394 C2395 1.355 . S
C2394 C2396 1.415 . S
C2395 C2394 1.355 . S
C2395 C2397 1.419 . S
C2396 C2394 1.415 . S
C2396 C2401 1.425 . S
C2396 C2403 1.409 . S
C2397 H2389 0.930 . S
C2397 C2395 1.419 . S
C2397 C2398 1.362 . S
C2398 H2390 0.930 . S
C2398 C2397 1.362 . S
C2398 C2401 1.409 . S
C2399 H2391 0.930 . S
C2399 C2400 1.355 . S
C2399 C2401 1.415 . S
C2400 C2399 1.355 . S
C2400 C2402 1.419 . S
C2401 C2396 1.425 . S
C2401 C2398 1.409 . S
C2401 C2399 1.415 . S
C2402 H2392 0.930 . S
C2402 C2400 1.419 . S
C2402 C2403 1.362 . S
C2403 H2393 0.930 . S
C2403 C2396 1.409 . S
C2403 C2402 1.362 . S
H2404 C2410 0.930 . S
H2405 C2413 0.930 . S
H2406 C2414 0.930 . S
H2407 C2415 0.930 . S
H2408 C2418 0.930 . S
H2409 C2419 0.930 . S
C2410 H2404 0.930 . S
C2410 C2411 1.355 . S
C2410 C2412 1.415 . S
C2411 C2410 1.355 . S
C2411 C2413 1.419 . S
C2412 C2410 1.415 . S
C2412 C2417 1.425 . S
C2412 C2419 1.409 . S
C2413 H2405 0.930 . S
C2413 C2411 1.419 . S
C2413 C2414 1.362 . S
C2414 H2406 0.930 . S
C2414 C2413 1.362 . S
C2414 C2417 1.409 . S
C2415 H2407 0.930 . S
C2415 C2416 1.355 . S
C2415 C2417 1.415 . S
C2416 C2415 1.355 . S
C2416 C2418 1.419 . S
C2417 C2412 1.425 . S
C2417 C2414 1.409 . S
C2417 C2415 1.415 . S
C2418 H2408 0.930 . S
C2418 C2416 1.419 . S
C2418 C2419 1.362 . S
C2419 H2409 0.930 . S
C2419 C2412 1.409 . S
C2419 C2418 1.362 . S
H2420 C2426 0.930 . S
H2421 C2429 0.930 . S
H2422 C2430 0.930 . S
H2423 C2431 0.930 . S
H2424 C2434 0.930 . S
H2425 C2435 0.930 . S
C2426 H2420 0.930 . S
C2426 C2427 1.355 . S
C2426 C2428 1.415 . S
C2427 C2426 1.355 . S
C2427 C2429 1.419 . S
C2428 C2426 1.415 . S
C2428 C2433 1.425 . S
C2428 C2435 1.409 . S
C2429 H2421 0.930 . S
C2429 C2427 1.419 . S
C2429 C2430 1.362 . S
C2430 H2422 0.930 . S
C2430 C2429 1.362 . S
C2430 C2433 1.409 . S
C2431 H2423 0.930 . S
C2431 C2432 1.355 . S
C2431 C2433 1.415 . S
C2432 C2431 1.355 . S
C2432 C2434 1.419 . S
C2433 C2428 1.425 . S
C2433 C2430 1.409 . S
C2433 C2431 1.415 . S
C2434 H2424 0.930 . S
C2434 C2432 1.419 . S
C2434 C2435 1.362 . S
C2435 H2425 0.930 . S
C2435 C2428 1.409 . S
C2435 C2434 1.362 . S
H2436 C2442 0.930 . S
H2437 C2445 0.930 . S
H2438 C2446 0.930 . S
H2439 C2447 0.930 . S
H2440 C2450 0.930 . S
H2441 C2451 0.930 . S
C2442 H2436 0.930 . S
C2442 C2443 1.355 . S
C2442 C2444 1.415 . S
C2443 C2442 1.355 . S
C2443 C2445 1.419 . S
C2444 C2442 1.415 . S
C2444 C2449 1.425 . S
C2444 C2451 1.409 . S
C2445 H2437 0.930 . S
C2445 C2443 1.419 . S
C2445 C2446 1.362 . S
C2446 H2438 0.930 . S
C2446 C2445 1.362 . S
C2446 C2449 1.409 . S
C2447 H2439 0.930 . S
C2447 C2448 1.355 . S
C2447 C2449 1.415 . S
C2448 C2447 1.355 . S
C2448 C2450 1.419 . S
C2449 C2444 1.425 . S
C2449 C2446 1.409 . S
C2449 C2447 1.415 . S
C2450 H2440 0.930 . S
C2450 C2448 1.419 . S
C2450 C2451 1.362 . S
C2451 H2441 0.930 . S
C2451 C2444 1.409 . S
C2451 C2450 1.362 . S
H2452 C2458 0.930 . S
H2453 C2461 0.930 . S
H2454 C2462 0.930 . S
H2455 C2463 0.930 . S
H2456 C2466 0.930 . S
H2457 C2467 0.930 . S
C2458 H2452 0.930 . S
C2458 C2459 1.355 . S
C2458 C2460 1.415 . S
C2459 C2458 1.355 . S
C2459 C2461 1.419 . S
C2460 C2458 1.415 . S
C2460 C2465 1.425 . S
C2460 C2467 1.409 . S
C2461 H2453 0.930 . S
C2461 C2459 1.419 . S
C2461 C2462 1.362 . S
C2462 H2454 0.930 . S
C2462 C2461 1.362 . S
C2462 C2465 1.409 . S
C2463 H2455 0.930 . S
C2463 C2464 1.355 . S
C2463 C2465 1.415 . S
C2464 C2463 1.355 . S
C2464 C2466 1.419 . S
C2465 C2460 1.425 . S
C2465 C2462 1.409 . S
C2465 C2463 1.415 . S
C2466 H2456 0.930 . S
C2466 C2464 1.419 . S
C2466 C2467 1.362 . S
C2467 H2457 0.930 . S
C2467 C2460 1.409 . S
C2467 C2466 1.362 . S
H2468 C2474 0.930 . S
H2469 C2477 0.930 . S
H2470 C2478 0.930 . S
H2471 C2479 0.930 . S
H2472 C2482 0.930 . S
H2473 C2483 0.930 . S
C2474 H2468 0.930 . S
C2474 C2475 1.355 . S
C2474 C2476 1.415 . S
C2475 C2474 1.355 . S
C2475 C2477 1.419 . S
C2476 C2474 1.415 . S
C2476 C2481 1.425 . S
C2476 C2483 1.409 . S
C2477 H2469 0.930 . S
C2477 C2475 1.419 . S
C2477 C2478 1.362 . S
C2478 H2470 0.930 . S
C2478 C2477 1.362 . S
C2478 C2481 1.409 . S
C2479 H2471 0.930 . S
C2479 C2480 1.355 . S
C2479 C2481 1.415 . S
C2480 C2479 1.355 . S
C2480 C2482 1.419 . S
C2481 C2476 1.425 . S
C2481 C2478 1.409 . S
C2481 C2479 1.415 . S
C2482 H2472 0.930 . S
C2482 C2480 1.419 . S
C2482 C2483 1.362 . S
C2483 H2473 0.930 . S
C2483 C2476 1.409 . S
C2483 C2482 1.362 . S
H2484 C2490 0.930 . S
H2485 C2493 0.930 . S
H2486 C2494 0.930 . S
H2487 C2495 0.930 . S
H2488 C2498 0.930 . S
H2489 C2499 0.930 . S
C2490 H2484 0.930 . S
C2490 C2491 1.355 . S
C2490 C2492 1.415 . S
C2491 C2490 1.355 . S
C2491 C2493 1.419 . S
C2492 C2490 1.415 . S
C2492 C2497 1.425 . S
C2492 C2499 1.409 . S
C2493 H2485 0.930 . S
C2493 C2491 1.419 . S
C2493 C2494 1.362 . S
C2494 H2486 0.930 . S
C2494 C2493 1.362 . S
C2494 C2497 1.409 . S
C2495 H2487 0.930 . S
C2495 C2496 1.355 . S
C2495 C2497 1.415 . S
C2496 C2495 1.355 . S
C2496 C2498 1.419 . S
C2497 C2492 1.425 . S
C2497 C2494 1.409 . S
C2497 C2495 1.415 . S
C2498 H2488 0.930 . S
C2498 C2496 1.419 . S
C2498 C2499 1.362 . S
C2499 H2489 0.930 . S
C2499 C2492 1.409 . S
C2499 C2498 1.362 . S
H2500 C2506 0.930 . S
H2501 C2509 0.930 . S
H2502 C2510 0.930 . S
H2503 C2511 0.930 . S
H2504 C2514 0.930 . S
H2505 C2515 0.930 . S
C2506 H2500 0.930 . S
C2506 C2507 1.355 . S
C2506 C2508 1.415 . S
C2507 C2506 1.355 . S
C2507 C2509 1.419 . S
C2508 C2506 1.415 . S
C2508 C2513 1.425 . S
C2508 C2515 1.409 . S
C2509 H2501 0.930 . S
C2509 C2507 1.419 . S
C2509 C2510 1.362 . S
C2510 H2502 0.930 . S
C2510 C2509 1.362 . S
C2510 C2513 1.409 . S
C2511 H2503 0.930 . S
C2511 C2512 1.355 . S
C2511 C2513 1.415 . S
C2512 C2511 1.355 . S
C2512 C2514 1.419 . S
C2513 C2508 1.425 . S
C2513 C2510 1.409 . S
C2513 C2511 1.415 . S
C2514 H2504 0.930 . S
C2514 C2512 1.419 . S
C2514 C2515 1.362 . S
C2515 H2505 0.930 . S
C2515 C2508 1.409 . S
C2515 C2514 1.362 . S
H2516 C2522 0.930 . S
H2517 C2525 0.930 . S
H2518 C2526 0.930 . S
H2519 C2527 0.930 . S
H2520 C2530 0.930 . S
H2521 C2531 0.930 . S
C2522 H2516 0.930 . S
C2522 C2523 1.355 . S
C2522 C2524 1.415 . S
C2523 C2522 1.355 . S
C2523 C2525 1.419 . S
C2524 C2522 1.415 . S
C2524 C2529 1.425 . S
C2524 C2531 1.409 . S
C2525 H2517 0.930 . S
C2525 C2523 1.419 . S
C2525 C2526 1.362 . S
C2526 H2518 0.930 . S
C2526 C2525 1.362 . S
C2526 C2529 1.409 . S
C2527 H2519 0.930 . S
C2527 C2528 1.355 . S
C2527 C2529 1.415 . S
C2528 C2527 1.355 . S
C2528 C2530 1.419 . S
C2529 C2524 1.425 . S
C2529 C2526 1.409 . S
C2529 C2527 1.415 . S
C2530 H2520 0.930 . S
C2530 C2528 1.419 . S
C2530 C2531 1.362 . S
C2531 H2521 0.930 . S
C2531 C2524 1.409 . S
C2531 C2530 1.362 . S
H2532 C2538 0.930 . S
H2533 C2541 0.930 . S
H2534 C2542 0.930 . S
H2535 C2543 0.930 . S
H2536 C2546 0.930 . S
H2537 C2547 0.930 . S
C2538 H2532 0.930 . S
C2538 C2539 1.355 . S
C2538 C2540 1.415 . S
C2539 C2538 1.355 . S
C2539 C2541 1.419 . S
C2540 C2538 1.415 . S
C2540 C2545 1.425 . S
C2540 C2547 1.409 . S
C2541 H2533 0.930 . S
C2541 C2539 1.419 . S
C2541 C2542 1.362 . S
C2542 H2534 0.930 . S
C2542 C2541 1.362 . S
C2542 C2545 1.409 . S
C2543 H2535 0.930 . S
C2543 C2544 1.355 . S
C2543 C2545 1.415 . S
C2544 C2543 1.355 . S
C2544 C2546 1.419 . S
C2545 C2540 1.425 . S
C2545 C2542 1.409 . S
C2545 C2543 1.415 . S
C2546 H2536 0.930 . S
C2546 C2544 1.419 . S
C2546 C2547 1.362 . S
C2547 H2537 0.930 . S
C2547 C2540 1.409 . S
C2547 C2546 1.362 . S
H2548 C2554 0.930 . S
H2549 C2557 0.930 . S
H2550 C2558 0.930 . S
H2551 C2559 0.930 . S
H2552 C2562 0.930 . S
H2553 C2563 0.930 . S
C2554 H2548 0.930 . S
C2554 C2555 1.355 . S
C2554 C2556 1.415 . S
C2555 C2554 1.355 . S
C2555 C2557 1.419 . S
C2556 C2554 1.415 . S
C2556 C2561 1.425 . S
C2556 C2563 1.409 . S
C2557 H2549 0.930 . S
C2557 C2555 1.419 . S
C2557 C2558 1.362 . S
C2558 H2550 0.930 . S
C2558 C2557 1.362 . S
C2558 C2561 1.409 . S
C2559 H2551 0.930 . S
C2559 C2560 1.355 . S
C2559 C2561 1.415 . S
C2560 C2559 1.355 . S
C2560 C2562 1.419 . S
C2561 C2556 1.425 . S
C2561 C2558 1.409 . S
C2561 C2559 1.415 . S
C2562 H2552 0.930 . S
C2562 C2560 1.419 . S
C2562 C2563 1.362 . S
C2563 H2553 0.930 . S
C2563 C2556 1.409 . S
C2563 C2562 1.362 . S
H2564 C2570 0.930 . S
H2565 C2573 0.930 . S
H2566 C2574 0.930 . S
H2567 C2575 0.930 . S
H2568 C2578 0.930 . S
H2569 C2579 0.930 . S
C2570 H2564 0.930 . S
C2570 C2571 1.355 . S
C2570 C2572 1.415 . S
C2571 C2570 1.355 . S
C2571 C2573 1.419 . S
C2572 C2570 1.415 . S
C2572 C2577 1.425 . S
C2572 C2579 1.409 . S
C2573 H2565 0.930 . S
C2573 C2571 1.419 . S
C2573 C2574 1.362 . S
C2574 H2566 0.930 . S
C2574 C2573 1.362 . S
C2574 C2577 1.409 . S
C2575 H2567 0.930 . S
C2575 C2576 1.355 . S
C2575 C2577 1.415 . S
C2576 C2575 1.355 . S
C2576 C2578 1.419 . S
C2577 C2572 1.425 . S
C2577 C2574 1.409 . S
C2577 C2575 1.415 . S
C2578 H2568 0.930 . S
C2578 C2576 1.419 . S
C2578 C2579 1.362 . S
C2579 H2569 0.930 . S
C2579 C2572 1.409 . S
C2579 C2578 1.362 . S
H2580 C2586 0.930 . S
H2581 C2589 0.930 . S
H2582 C2590 0.930 . S
H2583 C2591 0.930 . S
H2584 C2594 0.930 . S
H2585 C2595 0.930 . S
C2586 H2580 0.930 . S
C2586 C2587 1.355 . S
C2586 C2588 1.415 . S
C2587 C2586 1.355 . S
C2587 C2589 1.419 . S
C2588 C2586 1.415 . S
C2588 C2593 1.425 . S
C2588 C2595 1.409 . S
C2589 H2581 0.930 . S
C2589 C2587 1.419 . S
C2589 C2590 1.362 . S
C2590 H2582 0.930 . S
C2590 C2589 1.362 . S
C2590 C2593 1.409 . S
C2591 H2583 0.930 . S
C2591 C2592 1.355 . S
C2591 C2593 1.415 . S
C2592 C2591 1.355 . S
C2592 C2594 1.419 . S
C2593 C2588 1.425 . S
C2593 C2590 1.409 . S
C2593 C2591 1.415 . S
C2594 H2584 0.930 . S
C2594 C2592 1.419 . S
C2594 C2595 1.362 . S
C2595 H2585 0.930 . S
C2595 C2588 1.409 . S
C2595 C2594 1.362 . S
H2596 C2602 0.930 . S
H2597 C2605 0.930 . S
H2598 C2606 0.930 . S
H2599 C2607 0.930 . S
H2600 C2610 0.930 . S
H2601 C2611 0.930 . S
C2602 H2596 0.930 . S
C2602 C2603 1.355 . S
C2602 C2604 1.415 . S
C2603 C2602 1.355 . S
C2603 C2605 1.419 . S
C2604 C2602 1.415 . S
C2604 C2609 1.425 . S
C2604 C2611 1.409 . S
C2605 H2597 0.930 . S
C2605 C2603 1.419 . S
C2605 C2606 1.362 . S
C2606 H2598 0.930 . S
C2606 C2605 1.362 . S
C2606 C2609 1.409 . S
C2607 H2599 0.930 . S
C2607 C2608 1.355 . S
C2607 C2609 1.415 . S
C2608 C2607 1.355 . S
C2608 C2610 1.419 . S
C2609 C2604 1.425 . S
C2609 C2606 1.409 . S
C2609 C2607 1.415 . S
C2610 H2600 0.930 . S
C2610 C2608 1.419 . S
C2610 C2611 1.362 . S
C2611 H2601 0.930 . S
C2611 C2604 1.409 . S
C2611 C2610 1.362 . S
H2612 C2618 0.930 . S
H2613 C2621 0.930 . S
H2614 C2622 0.930 . S
H2615 C2623 0.930 . S
H2616 C2626 0.930 . S
H2617 C2627 0.930 . S
C2618 H2612 0.930 . S
C2618 C2619 1.355 . S
C2618 C2620 1.415 . S
C2619 C2618 1.355 . S
C2619 C2621 1.419 . S
C2620 C2618 1.415 . S
C2620 C2625 1.425 . S
C2620 C2627 1.409 . S
C2621 H2613 0.930 . S
C2621 C2619 1.419 . S
C2621 C2622 1.362 . S
C2622 H2614 0.930 . S
C2622 C2621 1.362 . S
C2622 C2625 1.409 . S
C2623 H2615 0.930 . S
C2623 C2624 1.355 . S
C2623 C2625 1.415 . S
C2624 C2623 1.355 . S
C2624 C2626 1.419 . S
C2625 C2620 1.425 . S
C2625 C2622 1.409 . S
C2625 C2623 1.415 . S
C2626 H2616 0.930 . S
C2626 C2624 1.419 . S
C2626 C2627 1.362 . S
C2627 H2617 0.930 . S
C2627 C2620 1.409 . S
C2627 C2626 1.362 . S
C1195 C535 1.363 . S
C1200 C7 1.371 . S
C1211 C40 1.365 . S
C1216 C568 1.354 . S
C1227 C502 1.330 . S
C1232 C73 1.335 . S
C1243 C106 1.364 . S
C1248 C865 1.372 . S
C1259 C799 1.375 . S
C1264 C139 1.370 . S
C1275 C172 1.371 . S
C1280 C832 1.363 . S
C1291 C205 1.375 . S
C1296 C1129 1.373 . S
C1307 C238 1.337 . S
C1312 C1162 1.331 . S
C1323 C271 1.366 . S
C1328 C1096 1.373 . S
C1339 C304 1.369 . S
C1344 C667 1.374 . S
C1355 C337 1.370 . S
C1360 C601 1.375 . S
C1371 C370 1.342 . S
C1376 C634 1.353 . S
C1387 C403 1.330 . S
C1392 C931 1.334 . S
C1403 C964 1.364 . S
C1408 C436 1.372 . S
C1419 C898 1.370 . S
C1424 C469 1.375 . S
C1435 C1063 1.363 . S
C1440 C700 1.371 . S
C1451 C997 1.372 . S
C1456 C733 1.375 . S
C1467 C766 1.364 . S
C1472 C1030 1.353 . S
C1483 N970 1.505 . S
C1488 N13 1.499 . S
C1499 N46 1.492 . S
C1504 N904 1.488 1_545 S
C1515 N79 1.523 . S
C1520 N937 1.531 1_655 S
C1531 N112 1.527 . S
C1536 N442 1.518 . S
C1547 N145 1.543 . S
C1552 N475 1.536 1_565 S
C1563 N409 1.544 1_455 S
C1568 N178 1.537 . S
C1579 N772 1.487 . S
C1584 N211 1.490 . S
C1595 N244 1.491 . S
C1600 N706 1.488 1_565 S
C1611 N277 1.534 . S
C1616 N739 1.526 1_455 S
C1627 N1036 1.537 . S
C1632 N310 1.544 . S
C1643 N1069 1.499 1_545 S
C1648 N343 1.506 . S
C1659 N1003 1.519 1_655 S
C1664 N376 1.511 . S
C1675 N508 1.560 . S
C1680 N838 1.560 . S
C1691 N541 1.520 . S
C1696 N871 1.512 . S
C1707 N574 1.486 . S
C1712 N805 1.487 . S
C1723 N607 1.556 . S
C1728 N1168 1.559 . S
C1739 N1102 1.552 . S
C1744 N640 1.546 . S
C1755 N673 1.487 . S
C1760 N1135 1.490 . S
C1771 C18 1.893 . S
C1776 C612 1.893 . S
C1787 C51 1.893 . S
C1792 C645 1.893 . S
C1803 C678 1.894 . S
C1808 C84 1.894 . S
C1819 C117 1.885 . S
C1824 C1107 1.885 . S
C1835 C150 1.894 . S
C1840 C1140 1.894 . S
C1851 C183 1.870 . S
C1856 C1173 1.870 . S
C1867 C810 1.882 . S
C1872 C216 1.882 . S
C1883 C249 1.891 . S
C1888 C843 1.891 . S
C1899 C876 1.880 . S
C1904 C282 1.880 . S
C1915 C513 1.884 . S
C1920 C315 1.884 . S
C1931 C546 1.885 . S
C1936 C348 1.885 . S
C1947 C381 1.887 . S
C1952 C579 1.887 . S
C1963 C1008 1.891 . S
C1968 C414 1.891 . S
C1979 C1041 1.878 . S
C1984 C447 1.878 . S
C1995 C480 1.877 . S
C2000 C1074 1.877 . S
C2011 C909 1.875 . S
C2016 C711 1.875 . S
C2027 C744 1.881 . S
C2032 C942 1.881 . S
C2043 C975 1.871 . S
C2048 C777 1.871 . S
C2059 N2 1.138 . S
C2064 C252 1.040 . S
C2075 N35 1.140 . S
C2080 C285 1.042 . S
C2091 C219 1.101 . S
C2096 N68 1.138 . S
C2107 C384 1.110 . S
C2112 N101 1.133 . S
C2123 C318 1.116 . S
C2128 N134 1.079 . S
C2139 C351 1.075 . S
C2144 N167 1.090 . S
C2155 C54 1.044 . S
C2160 N200 1.114 . S
C2171 C87 1.039 . S
C2176 N233 1.123 . S
C2187 C21 1.044 . S
C2192 N266 1.115 . S
C2203 N299 1.130 . S
C2208 C186 1.038 . S
C2219 N332 1.108 . S
C2224 C120 1.137 . S
C2235 C153 1.048 . S
C2240 N365 1.109 . S
C2251 C648 1.067 . S
C2256 N398 1.147 . S
C2267 N431 1.089 . S
C2272 C681 1.138 . S
C2283 C615 1.109 . S
C2288 N464 1.134 . S
C2299 C780 1.122 . S
C2304 N497 1.124 . S
C2315 N530 1.143 . S
C2320 C714 1.045 . S
C2331 N563 1.130 . S
C2336 C747 1.038 . S
C2347 N596 1.079 . S
C2352 C450 1.124 . S
C2363 N629 1.080 . S
C2368 C483 1.106 . S
C2379 N662 1.143 . S
C2384 C417 1.046 . S
C2395 N695 1.083 . S
C2400 C582 1.090 . S
C2411 C516 1.106 . S
C2416 N728 1.080 . S
C2427 C549 1.120 . S
C2432 N761 1.079 . S
C2443 C1044 1.060 . S
C2448 N794 1.099 . S
C2459 C1077 1.056 . S
C2464 N827 1.103 . S
C2475 C1011 1.139 . S
C2480 N860 1.102 . S
C2491 C1176 1.139 . S
C2496 N893 1.089 . S
C2507 N926 1.137 . S
C2512 C1110 1.102 . S
C2523 C1143 1.038 . S
C2528 N959 1.134 . S
C2539 C846 1.130 . S
C2544 N992 1.117 . S
C2555 C879 1.135 . S
C2560 N1025 1.111 . S
C2571 C813 1.080 . S
C2576 N1058 1.145 . S
C2587 N1091 1.119 . S
C2592 C978 1.129 . S
C2603 N1124 1.143 . S
C2608 C912 1.087 . S
C2619 C945 1.038 . S
C2624 N1157 1.132 . S
