# Generated by pormake.
# Topology zfg, (5)-cn, num edge types: 1
# Building blocks:
#     Node 0, Type 0, BuildingBlock: XOMCOT_clean_sbu_0, # of connection points: 5
#     Node 1, Type 0, BuildingBlock: XOMCOT_clean_sbu_0, # of connection points: 5
#     Node 2, Type 0, BuildingBlock: XOMCOT_clean_sbu_0, # of connection points: 5
#     Node 3, Type 0, BuildingBlock: XOMCOT_clean_sbu_0, # of connection points: 5
#     Node 4, Type 0, BuildingBlock: XOMCOT_clean_sbu_0, # of connection points: 5
#     Node 5, Type 0, BuildingBlock: XOMCOT_clean_sbu_0, # of connection points: 5
#     Node 6, Type 0, BuildingBlock: XOMCOT_clean_sbu_0, # of connection points: 5
#     Node 7, Type 0, BuildingBlock: XOMCOT_clean_sbu_0, # of connection points: 5
#     Node 8, Type 0, BuildingBlock: XOMCOT_clean_sbu_0, # of connection points: 5
#     Node 9, Type 0, BuildingBlock: XOMCOT_clean_sbu_0, # of connection points: 5
#     Node 10, Type 0, BuildingBlock: XOMCOT_clean_sbu_0, # of connection points: 5
#     Node 11, Type 0, BuildingBlock: XOMCOT_clean_sbu_0, # of connection points: 5
#     Node 12, Type 0, BuildingBlock: XOMCOT_clean_sbu_0, # of connection points: 5
#     Node 13, Type 0, BuildingBlock: XOMCOT_clean_sbu_0, # of connection points: 5
#     Node 14, Type 0, BuildingBlock: XOMCOT_clean_sbu_0, # of connection points: 5
#     Node 15, Type 0, BuildingBlock: XOMCOT_clean_sbu_0, # of connection points: 5
#     Edge 16, Type (0, 0), BuildingBlock: TEMPAE_clean_linker_10, # of connection points: 2
#     Edge 17, Type (0, 0), BuildingBlock: TEMPAE_clean_linker_10, # of connection points: 2
#     Edge 18, Type (0, 0), BuildingBlock: TEMPAE_clean_linker_10, # of connection points: 2
#     Edge 19, Type (0, 0), BuildingBlock: TEMPAE_clean_linker_10, # of connection points: 2
#     Edge 20, Type (0, 0), BuildingBlock: TEMPAE_clean_linker_10, # of connection points: 2
#     Edge 21, Type (0, 0), BuildingBlock: TEMPAE_clean_linker_10, # of connection points: 2
#     Edge 22, Type (0, 0), BuildingBlock: TEMPAE_clean_linker_10, # of connection points: 2
#     Edge 23, Type (0, 0), BuildingBlock: TEMPAE_clean_linker_10, # of connection points: 2
#     Edge 24, Type (0, 0), BuildingBlock: TEMPAE_clean_linker_10, # of connection points: 2
#     Edge 25, Type (0, 0), BuildingBlock: TEMPAE_clean_linker_10, # of connection points: 2
#     Edge 26, Type (0, 0), BuildingBlock: TEMPAE_clean_linker_10, # of connection points: 2
#     Edge 27, Type (0, 0), BuildingBlock: TEMPAE_clean_linker_10, # of connection points: 2
#     Edge 28, Type (0, 0), BuildingBlock: TEMPAE_clean_linker_10, # of connection points: 2
#     Edge 29, Type (0, 0), BuildingBlock: TEMPAE_clean_linker_10, # of connection points: 2
#     Edge 30, Type (0, 0), BuildingBlock: TEMPAE_clean_linker_10, # of connection points: 2
#     Edge 31, Type (0, 0), BuildingBlock: TEMPAE_clean_linker_10, # of connection points: 2
#     Edge 32, Type (0, 0), BuildingBlock: TEMPAE_clean_linker_10, # of connection points: 2
#     Edge 33, Type (0, 0), BuildingBlock: TEMPAE_clean_linker_10, # of connection points: 2
#     Edge 34, Type (0, 0), BuildingBlock: TEMPAE_clean_linker_10, # of connection points: 2
#     Edge 35, Type (0, 0), BuildingBlock: TEMPAE_clean_linker_10, # of connection points: 2
#     Edge 36, Type (0, 0), BuildingBlock: TEMPAE_clean_linker_10, # of connection points: 2
#     Edge 37, Type (0, 0), BuildingBlock: TEMPAE_clean_linker_10, # of connection points: 2
#     Edge 38, Type (0, 0), BuildingBlock: TEMPAE_clean_linker_10, # of connection points: 2
#     Edge 39, Type (0, 0), BuildingBlock: TEMPAE_clean_linker_10, # of connection points: 2
#     Edge 40, Type (0, 0), BuildingBlock: TEMPAE_clean_linker_10, # of connection points: 2
#     Edge 41, Type (0, 0), BuildingBlock: TEMPAE_clean_linker_10, # of connection points: 2
#     Edge 42, Type (0, 0), BuildingBlock: TEMPAE_clean_linker_10, # of connection points: 2
#     Edge 43, Type (0, 0), BuildingBlock: TEMPAE_clean_linker_10, # of connection points: 2
#     Edge 44, Type (0, 0), BuildingBlock: TEMPAE_clean_linker_10, # of connection points: 2
#     Edge 45, Type (0, 0), BuildingBlock: TEMPAE_clean_linker_10, # of connection points: 2
#     Edge 46, Type (0, 0), BuildingBlock: TEMPAE_clean_linker_10, # of connection points: 2
#     Edge 47, Type (0, 0), BuildingBlock: TEMPAE_clean_linker_10, # of connection points: 2
#     Edge 48, Type (0, 0), BuildingBlock: TEMPAE_clean_linker_10, # of connection points: 2
#     Edge 49, Type (0, 0), BuildingBlock: TEMPAE_clean_linker_10, # of connection points: 2
#     Edge 50, Type (0, 0), BuildingBlock: TEMPAE_clean_linker_10, # of connection points: 2
#     Edge 51, Type (0, 0), BuildingBlock: TEMPAE_clean_linker_10, # of connection points: 2
#     Edge 52, Type (0, 0), BuildingBlock: TEMPAE_clean_linker_10, # of connection points: 2
#     Edge 53, Type (0, 0), BuildingBlock: TEMPAE_clean_linker_10, # of connection points: 2
#     Edge 54, Type (0, 0), BuildingBlock: TEMPAE_clean_linker_10, # of connection points: 2
#     Edge 55, Type (0, 0), BuildingBlock: TEMPAE_clean_linker_10, # of connection points: 2
# Relax obj value: 0.150
# Max RMSD: 0.179
# Mean RMSD: 0.179
data_MOF--net-zfg--node1-XOMCOT_clean_sbu_0--edge1-TEMPAE_clean_linker_10
_symmetry_space_group_name_H-M    P1
_symmetry_Int_Tables_number       1
_symmetry_cell_setting            triclinic
loop_
_symmetry_equiv_pos_as_xyz
'x, y, z'
_cell_length_a     42.295912
_cell_length_b     42.284235
_cell_length_c     53.965093
_cell_angle_alpha  89.906352
_cell_angle_beta   89.832108
_cell_angle_gamma 89.948528
loop_
_atom_site_label
_atom_site_type_symbol
_atom_site_fract_x
_atom_site_fract_y
_atom_site_fract_z
_atom_type_partial_charge
Co0 Co 0.08033 0.30988 0.14283 0.0
C1 C 0.11794 0.24949 0.14749 0.0
C2 C 0.13743 0.28851 0.16767 0.0
C3 C 0.15705 0.26296 0.17059 0.0
N4 N 0.11271 0.28019 0.15339 0.0
N5 N 0.14492 0.23842 0.15788 0.0
H6 H 0.10327 0.23583 0.13518 0.0
H7 H 0.14144 0.31191 0.17506 0.0
C8 C 0.07117 0.35358 0.18761 0.0
O9 O 0.04473 0.36583 0.1793 0.0
N10 N 0.04921 0.34087 0.13218 0.0
C11 C 0.01848 0.33701 0.12638 0.0
C12 C 1.00571 0.36627 0.12078 0.0
C13 C 0.05488 0.37208 0.12918 0.0
N14 N 0.02861 0.38835 0.12287 0.0
C15 C 0.04014 0.25585 0.13953 0.0
C16 C 1.00203 0.26779 0.18005 0.0
C17 C 0.99453 0.24232 0.16451 0.0
C18 C 0.01444 0.23617 0.14435 0.0
C19 C 0.0285 0.28672 0.1748 0.0
N20 N 0.04692 0.28113 0.15436 0.0
H21 H 0.05385 0.25114 0.12312 0.0
H22 H 0.0331 0.30628 0.18686 0.0
H23 H 1.00593 0.31475 0.12667 0.0
H24 H 0.07763 0.38285 0.13266 0.0
O25 O 0.08354 0.29503 0.10924 0.0
O26 O 0.11249 0.33373 0.12487 0.0
O27 O 0.08505 0.33097 0.17623 0.0
C28 C 0.10516 0.31632 0.10587 0.0
H29 H 0.17873 0.26255 0.1812 0.0
H30 H 0.98119 0.37102 0.11648 0.0
H31 H 0.98727 0.27336 0.19588 0.0
H32 H 1.00932 0.21715 0.13155 0.0
Co33 Co 0.71318 0.07411 0.12998 0.0
C34 C 0.77277 0.11039 0.13865 0.0
C35 C 0.74737 0.12833 0.1073 0.0
C36 C 0.77436 0.14582 0.1101 0.0
N37 N 0.74628 0.10574 0.12501 0.0
N38 N 0.79053 0.13453 0.12968 0.0
H39 H 0.77913 0.09617 0.15456 0.0
H40 H 0.72987 0.1325 0.09319 0.0
C41 C 0.68925 0.08229 0.18254 0.0
O42 O 0.67852 0.05319 0.18297 0.0
N43 N 0.67976 0.04306 0.13448 0.0
C44 C 0.68189 0.01121 0.13524 0.0
C45 C 0.65173 0.9987 0.13597 0.0
C46 C 0.64842 0.04934 0.13416 0.0
N47 N 0.63089 0.02278 0.1351 0.0
C48 C 0.76598 0.03413 0.1229 0.0
C49 C 0.76895 1.00609 0.169 0.0
C50 C 0.78843 0.99431 0.14995 0.0
C51 C 0.78714 1.0094 0.12684 0.0
C52 C 0.74787 0.03109 0.1642 0.0
N53 N 0.74555 0.0439 0.14098 0.0
H54 H 0.7656 0.045 0.10481 0.0
H55 H 0.73333 0.03929 0.17914 0.0
H56 H 0.70363 0.9978 0.13436 0.0
H57 H 0.63852 0.07289 0.13293 0.0
O58 O 0.71373 0.06299 0.09536 0.0
O59 O 0.68361 0.10055 0.11144 0.0
O60 O 0.70516 0.09283 0.16405 0.0
C61 C 0.69219 0.08439 0.092 0.0
H62 H 0.78129 0.16576 0.09871 0.0
H63 H 0.64557 0.97385 0.13588 0.0
H64 H 0.76964 0.99583 0.18738 0.0
H65 H 0.80142 1.00141 0.11139 0.0
Co66 Co 0.95109 0.70572 0.12399 0.0
C67 C 0.91746 0.76852 0.13363 0.0
C68 C 0.88639 0.72905 0.12868 0.0
C69 C 0.86831 0.75565 0.13206 0.0
N70 N 0.91734 0.73689 0.12912 0.0
N71 N 0.88779 0.7804 0.13518 0.0
H72 H 0.9383 0.78287 0.13581 0.0
H73 H 0.87729 0.70541 0.12614 0.0
C74 C 0.93528 0.70003 0.17775 0.0
O75 O 0.93672 0.73094 0.17982 0.0
N76 N 0.98294 0.6735 0.11909 0.0
C77 C 0.01153 0.67625 0.10828 0.0
C78 C 0.02486 0.6465 0.10656 0.0
C79 C 0.97915 0.64235 0.12362 0.0
N80 N 1.00441 0.62515 0.11616 0.0
C81 C 0.99118 0.75937 0.12188 0.0
C82 C 0.0305 0.74355 0.16077 0.0
C83 C 0.03876 0.76892 0.14525 0.0
C84 C 0.01832 0.77712 0.126 0.0
C85 C 1.00296 0.72608 0.15587 0.0
N86 N 0.98358 0.73417 0.1366 0.0
H87 H 0.97665 0.7654 0.10615 0.0
H88 H 0.99843 0.70495 0.16656 0.0
H89 H 0.02165 0.69817 0.10164 0.0
H90 H 0.95767 0.63243 0.1313 0.0
O91 O 0.95446 0.71722 0.08963 0.0
O92 O 0.92214 0.68039 0.10428 0.0
O93 O 0.94153 0.68671 0.15716 0.0
C94 C 0.93329 0.69579 0.08527 0.0
H95 H 0.84273 0.75672 0.13243 0.0
H96 H 0.04778 0.6411 0.09868 0.0
H97 H 0.04615 0.7361 0.17552 0.0
H98 H 0.02391 0.79649 0.11357 0.0
Co99 Co 0.31945 0.94252 0.12082 0.0
C100 C 0.25998 0.90443 0.13286 0.0
C101 C 0.30098 0.87645 0.12496 0.0
C102 C 0.27652 0.85647 0.13058 0.0
N103 N 0.29085 0.90669 0.12601 0.0
N104 N 0.25068 0.87394 0.13568 0.0
H105 H 0.24479 0.92425 0.13682 0.0
H106 H 0.3249 0.86914 0.12082 0.0
C107 C 0.32836 0.92615 0.17421 0.0
O108 O 0.29752 0.92626 0.17711 0.0
N109 N 0.34964 0.97626 0.11607 0.0
C110 C 0.34515 1.00685 0.10988 0.0
C111 C 0.37418 0.02193 0.10995 0.0
C112 C 0.38105 0.97296 0.11921 0.0
N113 N 0.39656 1.00039 0.11567 0.0
C114 C 0.263 0.97866 0.12183 0.0
C115 C 0.27936 0.01923 0.15973 0.0
C116 C 0.25256 0.02613 0.14535 0.0
C117 C 0.24398 1.00478 0.12679 0.0
C118 C 0.29781 0.99247 0.15423 0.0
N119 N 0.28966 0.97267 0.13526 0.0
H120 H 0.25676 0.96371 0.1064 0.0
H121 H 0.31986 0.98917 0.16394 0.0
H122 H 0.32247 0.01753 0.1059 0.0
H123 H 0.39231 0.95094 0.12446 0.0
O124 O 0.30607 0.9469 0.08698 0.0
O125 O 0.34541 0.91608 0.09921 0.0
O126 O 0.34054 0.93274 0.15321 0.0
C127 C 0.32841 0.92726 0.08112 0.0
H128 H 0.27778 0.83091 0.13068 0.0
H129 H 0.37858 0.04662 0.1059 0.0
H130 H 0.28717 0.03541 0.17399 0.0
H131 H 0.22331 1.00888 0.11542 0.0
Co132 Co 0.57314 0.21429 0.37362 0.0
C133 C 0.61151 0.27472 0.3659 0.0
C134 C 0.63934 0.23326 0.37254 0.0
C135 C 0.65942 0.25811 0.36833 0.0
N136 N 0.60911 0.24337 0.37122 0.0
N137 N 0.64202 0.2842 0.36397 0.0
H138 H 0.59184 0.29008 0.36194 0.0
H139 H 0.64657 0.20906 0.37562 0.0
C140 C 0.59525 0.21083 0.3213 0.0
O141 O 0.59609 0.24184 0.32105 0.0
N142 N 0.539 0.18405 0.37612 0.0
C143 C 0.50957 0.18876 0.38493 0.0
C144 C 0.49425 0.16001 0.38595 0.0
C145 C 0.54134 0.15265 0.37217 0.0
N146 N 0.51431 0.13721 0.37804 0.0
C147 C 0.53661 0.2708 0.37362 0.0
C148 C 0.49712 0.25464 0.335 0.0
C149 C 0.48957 0.28094 0.3497 0.0
C150 C 0.51023 0.28953 0.36865 0.0
C151 C 0.52453 0.23704 0.34007 0.0
N152 N 0.54364 0.24489 0.35953 0.0
H153 H 0.55069 0.27635 0.38971 0.0
H154 H 0.52881 0.21558 0.32975 0.0
H155 H 0.50016 0.21135 0.39079 0.0
H156 H 0.56301 0.14129 0.36625 0.0
O157 O 0.56694 0.22514 0.4079 0.0
O158 O 0.59845 0.18678 0.39477 0.0
O159 O 0.58499 0.19597 0.34032 0.0
C160 C 0.58636 0.20241 0.4133 0.0
H161 H 0.68498 0.25689 0.36837 0.0
H162 H 0.47029 0.15628 0.39237 0.0
H163 H 0.48126 0.24697 0.32048 0.0
H164 H 0.50481 0.30927 0.38072 0.0
Co165 Co 0.81201 0.58535 0.36886 0.0
C166 C 0.74994 0.61826 0.35875 0.0
C167 C 0.79091 0.64397 0.34667 0.0
C168 C 0.76455 0.66102 0.34036 0.0
N169 N 0.78194 0.61711 0.3581 0.0
N170 N 0.73871 0.64488 0.34779 0.0
H171 H 0.73512 0.6001 0.36669 0.0
H172 H 0.81518 0.65066 0.34307 0.0
C173 C 0.85385 0.57497 0.32329 0.0
O174 O 0.86656 0.54889 0.33193 0.0
N175 N 0.84345 0.55462 0.37956 0.0
C176 C 0.8396 0.52413 0.38625 0.0
C177 C 0.8688 0.51152 0.39201 0.0
C178 C 0.87475 0.56029 0.38207 0.0
N179 N 0.89096 0.53424 0.38914 0.0
C180 C 0.76029 0.54316 0.37615 0.0
C181 C 0.76828 0.50621 0.33449 0.0
C182 C 0.74651 0.49665 0.35267 0.0
C183 C 0.74198 0.51612 0.37326 0.0
C184 C 0.78638 0.53368 0.33812 0.0
N185 N 0.78302 0.55132 0.35923 0.0
H186 H 0.7565 0.55701 0.39261 0.0
H187 H 0.80362 0.53971 0.32427 0.0
H188 H 0.81737 0.51159 0.38662 0.0
H189 H 0.88553 0.58289 0.37799 0.0
O190 O 0.79848 0.5901 0.40268 0.0
O191 O 0.83657 0.61828 0.38519 0.0
O192 O 0.83159 0.58909 0.33487 0.0
C193 C 0.81984 0.61184 0.40482 0.0
H194 H 0.76453 0.68389 0.33132 0.0
H195 H 0.8734 0.48719 0.39709 0.0
H196 H 0.77233 0.49185 0.31818 0.0
H197 H 0.72489 0.51002 0.38749 0.0
Co198 Co 0.43993 0.81846 0.36829 0.0
C199 C 0.40766 0.75577 0.36308 0.0
C200 C 0.38584 0.79307 0.34208 0.0
C201 C 0.36976 0.76556 0.33756 0.0
N202 N 0.40978 0.78698 0.3578 0.0
N203 N 0.38342 0.74217 0.35069 0.0
H204 H 0.42362 0.74329 0.37532 0.0
H205 H 0.38037 0.81606 0.33439 0.0
C206 C 0.45496 0.85451 0.32085 0.0
O207 O 0.48337 0.86254 0.32827 0.0
N208 N 0.46906 0.85165 0.37843 0.0
C209 C 0.4979 0.84996 0.38897 0.0
C210 C 0.50914 0.88021 0.39249 0.0
C211 C 0.463 0.88294 0.37632 0.0
N212 N 0.48725 0.90098 0.38436 0.0
C213 C 0.49003 0.77521 0.37831 0.0
C214 C 0.50989 0.76448 0.33029 0.0
C215 C 0.52736 0.75166 0.34997 0.0
C216 C 0.51654 0.75651 0.37411 0.0
C217 C 0.48337 0.78354 0.33536 0.0
N218 N 0.47475 0.79008 0.35929 0.0
H219 H 0.48293 0.77885 0.39727 0.0
H220 H 0.47008 0.79289 0.32 0.0
H221 H 0.51041 0.82868 0.39383 0.0
H222 H 0.44128 0.89222 0.36863 0.0
O223 O 0.43488 0.80538 0.40214 0.0
O224 O 0.40594 0.84241 0.38398 0.0
O225 O 0.43695 0.83724 0.33415 0.0
C226 C 0.41257 0.82624 0.40385 0.0
H227 H 0.34921 0.76299 0.32582 0.0
H228 H 0.53208 0.88632 0.39991 0.0
H229 H 0.51716 0.76055 0.31128 0.0
H230 H 0.52889 0.74633 0.38979 0.0
Co231 Co 0.20572 0.44847 0.38551 0.0
C232 C 0.26756 0.41263 0.37626 0.0
C233 C 0.22533 0.38618 0.36927 0.0
C234 C 0.2508 0.36776 0.36286 0.0
N235 N 0.23552 0.41461 0.37733 0.0
N236 N 0.27725 0.38436 0.3673 0.0
H237 H 0.28379 0.43117 0.38112 0.0
H238 H 0.20073 0.37961 0.36747 0.0
C239 C 0.19608 0.43702 0.33163 0.0
O240 O 0.22682 0.43931 0.32853 0.0
N241 N 0.17442 0.48038 0.3932 0.0
C242 C 0.17827 0.50822 0.40484 0.0
C243 C 0.14902 0.52245 0.4073 0.0
C244 C 0.14312 0.47788 0.38894 0.0
N245 N 0.12687 0.50331 0.39729 0.0
C246 C 0.26033 0.48782 0.38485 0.0
C247 C 0.24109 0.52882 0.34802 0.0
C248 C 0.26952 0.53486 0.3605 0.0
C249 C 0.27914 0.51376 0.37895 0.0
C250 C 0.22316 0.50202 0.3542 0.0
N251 N 0.23324 0.48141 0.37211 0.0
H252 H 0.26705 0.47361 0.40058 0.0
H253 H 0.20044 0.49882 0.34549 0.0
H254 H 0.20067 0.51741 0.41122 0.0
H255 H 0.13245 0.45732 0.38049 0.0
O256 O 0.22039 0.45002 0.41903 0.0
O257 O 0.18204 0.41855 0.40584 0.0
O258 O 0.18386 0.44107 0.35303 0.0
C259 C 0.19897 0.4291 0.4242 0.0
H260 H 0.25003 0.34399 0.35545 0.0
H261 H 0.14454 0.54522 0.41573 0.0
H262 H 0.23243 0.54505 0.33404 0.0
H263 H 0.30022 0.51821 0.38975 0.0
Co264 Co 0.93294 0.70671 0.86933 0.0
C265 C 0.8992 0.7689 0.85741 0.0
C266 C 0.87151 0.72715 0.85175 0.0
C267 C 0.85354 0.75291 0.84536 0.0
N268 N 0.90029 0.73687 0.85924 0.0
N269 N 0.87089 0.77922 0.84884 0.0
H270 H 0.91839 0.7846 0.86171 0.0
H271 H 0.86412 0.70271 0.85083 0.0
C272 C 0.92515 0.69766 0.81532 0.0
O273 O 0.92783 0.72848 0.81296 0.0
N274 N 0.96364 0.67513 0.8791 0.0
C275 C 0.99075 0.67901 0.8917 0.0
C276 C 1.00404 0.64961 0.89573 0.0
C277 C 0.96061 0.64363 0.87587 0.0
N278 N 0.98502 0.62726 0.88582 0.0
C279 C 0.97352 0.76061 0.87071 0.0
C280 C 0.01731 0.73941 0.8365 0.0
C281 C 0.02335 0.76752 0.84941 0.0
C282 C 1.00081 0.77827 0.86642 0.0
C283 C 0.98924 0.72273 0.84099 0.0
N284 N 0.96741 0.73363 0.85769 0.0
H285 H 0.95794 0.76806 0.88545 0.0
H286 H 0.98605 0.70009 0.83211 0.0
H287 H 1.00004 0.70153 0.89773 0.0
H288 H 0.94031 0.63302 0.86703 0.0
O289 O 0.93081 0.72205 0.90274 0.0
O290 O 0.9012 0.68322 0.88783 0.0
O291 O 0.92832 0.68476 0.83656 0.0
C292 C 0.90919 0.70084 0.90656 0.0
H293 H 0.82927 0.75227 0.83908 0.0
H294 H 0.02609 0.64524 0.90524 0.0
H295 H 0.03452 0.72995 0.82358 0.0
H296 H 1.00507 0.79926 0.87741 0.0
Co297 Co 0.30694 0.93804 0.86601 0.0
C298 C 0.24644 0.90041 0.8603 0.0
C299 C 0.28585 0.88186 0.83989 0.0
C300 C 0.25993 0.86346 0.83499 0.0
N301 N 0.27747 0.90549 0.85536 0.0
N302 N 0.23519 0.87514 0.84775 0.0
H303 H 0.23212 0.91461 0.87252 0.0
H304 H 0.3094 0.8781 0.83263 0.0
C305 C 0.34834 0.94831 0.81955 0.0
O306 O 0.3632 0.97306 0.82833 0.0
N307 N 0.33772 0.96937 0.87658 0.0
C308 C 0.33286 0.99911 0.88473 0.0
C309 C 0.36169 0.01237 0.89058 0.0
C310 C 0.36921 0.96463 0.87859 0.0
N311 N 0.38461 0.99072 0.88649 0.0
C312 C 0.25203 0.97618 0.87274 0.0
C313 C 0.26466 0.02118 0.83701 0.0
C314 C 0.23978 0.02668 0.85385 0.0
C315 C 0.23285 1.00286 0.87107 0.0
C316 C 0.28289 0.99341 0.83884 0.0
N317 N 0.27704 0.97164 0.85707 0.0
H318 H 0.24753 0.96009 0.8878 0.0
H319 H 0.30285 0.99077 0.82663 0.0
H320 H 0.3101 0.01057 0.88629 0.0
H321 H 0.38065 0.94259 0.87373 0.0
O322 O 0.29421 0.93274 0.89996 0.0
O323 O 0.33259 0.9055 0.88182 0.0
O324 O 0.32558 0.93546 0.83148 0.0
C325 C 0.3162 0.91151 0.90174 0.0
H326 H 0.25938 0.8428 0.82318 0.0
H327 H 0.36545 0.03641 0.89675 0.0
H328 H 0.27121 0.03887 0.82342 0.0
H329 H 0.21345 1.00528 0.88407 0.0
Co330 Co 0.07116 0.31214 0.88747 0.0
C331 C 0.10946 0.25113 0.87977 0.0
C332 C 0.13565 0.29428 0.87694 0.0
C333 C 0.15569 0.26968 0.87193 0.0
N334 N 0.10651 0.28304 0.88191 0.0
N335 N 0.13945 0.24234 0.87376 0.0
H336 H 0.09042 0.23455 0.88208 0.0
H337 H 0.14173 0.31909 0.8761 0.0
C338 C 0.08608 0.31717 0.83377 0.0
O339 O 0.08508 0.28615 0.8327 0.0
N340 N 0.03801 0.34306 0.89248 0.0
C341 C 1.00926 0.33942 0.90282 0.0
C342 C 0.99461 0.36864 0.90365 0.0
C343 C 0.04062 0.37421 0.88743 0.0
N344 N 0.01442 0.39061 0.894 0.0
C345 C 0.03402 0.25625 0.88938 0.0
C346 C 0.99221 0.27146 0.85203 0.0
C347 C 0.98577 0.24506 0.86712 0.0
C348 C 1.00776 0.23712 0.88543 0.0
C349 C 0.01927 0.28991 0.85642 0.0
N350 N 0.03983 0.28222 0.87501 0.0
H351 H 0.049 0.25083 0.90497 0.0
H352 H 0.0224 0.31154 0.84602 0.0
H353 H 0.99975 0.31724 0.90948 0.0
H354 H 0.06186 0.38465 0.87981 0.0
O355 O 0.06845 0.30034 0.92176 0.0
O356 O 0.09925 0.33853 0.90728 0.0
O357 O 0.07955 0.33132 0.85401 0.0
C358 C 0.08867 0.32259 0.92625 0.0
H359 H 0.1802 0.27211 0.86651 0.0
H360 H 0.97116 0.37318 0.91086 0.0
H361 H 0.97558 0.27892 0.83796 0.0
H362 H 1.0041 0.21688 0.89743 0.0
Co363 Co 0.6993 0.07719 0.87555 0.0
C364 C 0.76022 0.113 0.87014 0.0
C365 C 0.72043 0.13584 0.8531 0.0
C366 C 0.74644 0.15476 0.85 0.0
N367 N 0.72893 0.10967 0.86563 0.0
N368 N 0.77149 0.14061 0.86078 0.0
H369 H 0.77414 0.09614 0.88057 0.0
H370 H 0.69668 0.1411 0.84697 0.0
C371 C 0.66254 0.06358 0.82849 0.0
O372 O 0.66129 0.03319 0.8335 0.0
N373 N 0.66802 0.04575 0.88527 0.0
C374 C 0.67159 0.01735 0.89633 0.0
C375 C 0.64212 1.00433 0.90032 0.0
C376 C 0.63643 0.04982 0.88332 0.0
N377 N 0.61997 0.02475 0.89205 0.0
C378 C 0.74521 0.02858 0.88205 0.0
C379 C 0.75213 1.00999 0.83336 0.0
C380 C 0.76615 0.99173 0.85213 0.0
C381 C 0.76354 1.00222 0.87655 0.0
C382 C 0.73371 0.03659 0.83975 0.0
N383 N 0.7287 0.04429 0.86409 0.0
H384 H 0.74313 0.03503 0.90126 0.0
H385 H 0.72336 0.05046 0.8251 0.0
H386 H 0.69369 1.0066 0.90155 0.0
H387 H 0.62579 0.071 0.87575 0.0
O388 O 0.71376 0.08014 0.90921 0.0
O389 O 0.6746 0.10859 0.89369 0.0
O390 O 0.67795 0.08238 0.84246 0.0
C391 C 0.69192 0.10113 0.91273 0.0
H392 H 0.74682 0.17731 0.84048 0.0
H393 H 0.6375 0.9814 0.90847 0.0
H394 H 0.75445 1.0032 0.8141 0.0
H395 H 0.77491 0.98953 0.89155 0.0
Co396 Co 0.44337 0.80923 0.62221 0.0
C397 C 0.40527 0.75118 0.63701 0.0
C398 C 0.37912 0.78355 0.6144 0.0
C399 C 0.36041 0.7578 0.61914 0.0
N400 N 0.40774 0.77948 0.62512 0.0
N401 N 0.3768 0.73744 0.63327 0.0
H402 H 0.42389 0.74032 0.64774 0.0
H403 H 0.37186 0.8037 0.60351 0.0
C404 C 0.42776 0.81612 0.67658 0.0
O405 O 0.43199 0.78571 0.68021 0.0
N406 N 0.47727 0.83975 0.61928 0.0
C407 C 0.50724 0.83537 0.61138 0.0
C408 C 0.52224 0.86438 0.61061 0.0
C409 C 0.4742 0.8712 0.62259 0.0
N410 N 0.50127 0.88676 0.61749 0.0
C411 C 0.47654 0.75107 0.62229 0.0
C412 C 0.52163 0.76678 0.65707 0.0
C413 C 0.52629 0.73955 0.64249 0.0
C414 C 0.50236 0.73115 0.62584 0.0
C415 C 0.49475 0.78581 0.65338 0.0
N416 N 0.47305 0.77827 0.63562 0.0
H417 H 0.45988 0.74534 0.60784 0.0
H418 H 0.49282 0.80795 0.66328 0.0
H419 H 0.51727 0.81285 0.60601 0.0
H420 H 0.45236 0.88256 0.62817 0.0
O421 O 0.44892 0.79851 0.58785 0.0
O422 O 0.41778 0.83692 0.6016 0.0
O423 O 0.43217 0.82821 0.6552 0.0
C424 C 0.42958 0.82149 0.58283 0.0
H425 H 0.3365 0.7542 0.6126 0.0
H426 H 0.54623 0.86887 0.60452 0.0
H427 H 0.53951 0.77454 0.67001 0.0
H428 H 0.50422 0.71001 0.61462 0.0
Co429 Co 0.21073 0.44086 0.64275 0.0
C430 C 0.2729 0.4064 0.65247 0.0
C431 C 0.23155 0.37731 0.6552 0.0
C432 C 0.25759 0.35862 0.65915 0.0
N433 N 0.24088 0.40731 0.65075 0.0
N434 N 0.28353 0.37688 0.65748 0.0
H435 H 0.28846 0.42626 0.64981 0.0
H436 H 0.20723 0.36946 0.65545 0.0
C437 C 0.20256 0.42821 0.69653 0.0
O438 O 0.23348 0.42939 0.69864 0.0
N439 N 0.17924 0.47252 0.63492 0.0
C440 C 0.18307 0.50077 0.62383 0.0
C441 C 0.15361 0.51405 0.62014 0.0
C442 C 0.14772 0.46886 0.63763 0.0
N443 N 0.13129 0.49389 0.62875 0.0
C444 C 0.26465 0.48111 0.64096 0.0
C445 C 0.24776 0.52146 0.67892 0.0
C446 C 0.27471 0.52864 0.66464 0.0
C447 C 0.28305 0.50772 0.6456 0.0
C448 C 0.22987 0.4943 0.67363 0.0
N449 N 0.23869 0.47415 0.65503 0.0
H450 H 0.27088 0.4666 0.62526 0.0
H451 H 0.20808 0.49051 0.68366 0.0
H452 H 0.20558 0.51076 0.61839 0.0
H453 H 0.13714 0.4476 0.64513 0.0
O454 O 0.22493 0.44071 0.60887 0.0
O455 O 0.1863 0.41059 0.62355 0.0
O456 O 0.18956 0.43417 0.67573 0.0
C457 C 0.20361 0.41934 0.60478 0.0
H458 H 0.25752 0.33348 0.663 0.0
H459 H 0.14914 0.53678 0.61161 0.0
H460 H 0.24002 0.53711 0.69359 0.0
H461 H 0.30278 0.51264 0.63336 0.0
Co462 Co 0.57631 0.2031 0.63176 0.0
C463 C 0.61055 0.26468 0.63671 0.0
C464 C 0.63352 0.22615 0.65547 0.0
C465 C 0.65033 0.25329 0.65995 0.0
N466 N 0.60842 0.23326 0.6412 0.0
N467 N 0.63594 0.27743 0.6482 0.0
H468 H 0.59365 0.27798 0.62585 0.0
H469 H 0.63916 0.20279 0.66234 0.0
C470 C 0.5628 0.16751 0.67929 0.0
O471 O 0.53228 0.16804 0.67494 0.0
N472 N 0.54492 0.1712 0.62282 0.0
C473 C 0.51295 0.17281 0.62237 0.0
C474 C 0.50085 0.14278 0.61963 0.0
C475 C 0.55153 0.14005 0.62011 0.0
N476 N 0.52517 0.12238 0.61813 0.0
C477 C 0.52602 0.24676 0.62557 0.0
C478 C 0.51577 0.26249 0.67455 0.0
C479 C 0.49656 0.2763 0.65621 0.0
C480 C 0.5023 0.26818 0.63149 0.0
C481 C 0.53967 0.24091 0.66773 0.0
N482 N 0.54367 0.23234 0.64349 0.0
H483 H 0.52892 0.24057 0.60633 0.0
H484 H 0.55496 0.23144 0.6819 0.0
H485 H 0.49875 0.19352 0.62562 0.0
H486 H 0.57507 0.13014 0.62139 0.0
O487 O 0.57842 0.21788 0.59807 0.0
O488 O 0.60792 0.17917 0.61319 0.0
O489 O 0.58203 0.18166 0.66478 0.0
C490 C 0.5999 0.19658 0.59431 0.0
H491 H 0.67171 0.25517 0.67083 0.0
H492 H 0.47611 0.13624 0.61979 0.0
H493 H 0.51259 0.26852 0.69389 0.0
H494 H 0.48788 0.27755 0.61663 0.0
Co495 Co 0.81445 0.57189 0.62137 0.0
C496 C 0.75224 0.60897 0.62699 0.0
C497 C 0.79466 0.63547 0.63292 0.0
C498 C 0.76939 0.65517 0.63664 0.0
N499 N 0.78429 0.60636 0.62689 0.0
N500 N 0.74259 0.6387 0.63284 0.0
H501 H 0.73609 0.59005 0.62297 0.0
H502 H 0.81926 0.64183 0.63508 0.0
C503 C 0.81818 0.58596 0.67514 0.0
O504 O 0.78715 0.5846 0.67589 0.0
N505 N 0.84639 0.53974 0.61639 0.0
C506 C 0.84387 0.51108 0.6058 0.0
C507 C 0.87349 0.49722 0.60538 0.0
C508 C 0.87726 0.54307 0.62203 0.0
N509 N 0.89455 0.51742 0.61559 0.0
C510 C 0.75937 0.53314 0.61974 0.0
C511 C 0.77548 0.4925 0.65776 0.0
C512 C 0.74828 0.4862 0.64377 0.0
C513 C 0.74011 0.5072 0.62483 0.0
C514 C 0.79379 0.51936 0.65243 0.0
N515 N 0.78542 0.53959 0.63375 0.0
H516 H 0.75397 0.54731 0.60366 0.0
H517 H 0.81563 0.5228 0.6624 0.0
H518 H 0.82217 0.50108 0.59873 0.0
H519 H 0.88688 0.56441 0.63004 0.0
O520 O 0.80313 0.56933 0.58705 0.0
O521 O 0.84022 0.60103 0.60193 0.0
O522 O 0.83286 0.58029 0.65495 0.0
C523 C 0.82484 0.59032 0.58283 0.0
H524 H 0.77083 0.67965 0.64233 0.0
H525 H 0.87894 0.47401 0.59812 0.0
H526 H 0.78297 0.4764 0.67223 0.0
H527 H 0.71994 0.50261 0.61303 0.0
C528 C 0.12836 0.33708 0.95883 0.0
C529 C 0.09726 0.32988 0.95203 0.0
C530 C 0.13673 0.33939 0.98403 0.0
C531 C 0.11325 0.33498 0.00253 0.0
C532 C 0.08143 0.32992 0.99545 0.0
C533 C 0.07396 0.32704 0.97034 0.0
C534 C 0.17089 0.34459 0.99081 0.0
C535 C 0.0554 0.32579 0.01444 0.0
C536 C 0.12274 0.29676 0.06495 0.0
C537 C 0.11723 0.32239 0.08073 0.0
C538 C 0.12552 0.30117 0.0393 0.0
C539 C 0.12162 0.33187 0.02921 0.0
C540 C 0.11902 0.3582 0.04532 0.0
C541 C 0.11712 0.35313 0.07106 0.0
C542 C 0.12913 0.27249 0.02291 0.0
C543 C 0.11468 0.39127 0.03538 0.0
H544 H 0.14636 0.33919 0.94458 0.0
H545 H 0.0498 0.3219 0.96499 0.0
H546 H 0.17298 0.3617 0.00628 0.0
H547 H 0.1813 0.3219 0.99716 0.0
H548 H 0.18497 0.35334 0.9748 0.0
H549 H 0.03157 0.32533 0.00584 0.0
H550 H 0.05893 0.30325 0.02463 0.0
H551 H 0.05604 0.34524 0.0282 0.0
H552 H 0.12296 0.27298 0.07254 0.0
H553 H 0.11255 0.37293 0.08332 0.0
H554 H 0.14598 0.27729 0.00757 0.0
H555 H 0.10593 0.26662 0.01453 0.0
H556 H 0.13752 0.25152 0.03346 0.0
H557 H 0.13 0.39546 0.01899 0.0
H558 H 0.11996 0.40939 0.04967 0.0
H559 H 0.08978 0.39438 0.02943 0.0
C560 C 0.65457 0.11144 0.94757 0.0
C561 C 0.68538 0.11232 0.93801 0.0
C562 C 0.6493 0.11242 0.97333 0.0
C563 C 0.67547 0.11471 0.98958 0.0
C564 C 0.70621 0.11912 0.97967 0.0
C565 C 0.71082 0.11744 0.954 0.0
C566 C 0.61618 0.10776 0.98308 0.0
C567 C 0.73476 0.12232 0.99622 0.0
C568 C 0.67274 0.12239 0.05973 0.0
C569 C 0.68091 0.09152 0.06675 0.0
C570 C 0.66856 0.13021 0.03458 0.0
C571 C 0.67221 0.10644 0.0163 0.0
C572 C 0.67756 0.07471 0.02368 0.0
C573 C 0.68213 0.06774 0.04877 0.0
C574 C 0.66273 0.16423 0.02751 0.0
C575 C 0.68094 0.04842 0.00492 0.0
H576 H 0.63493 0.10712 0.93516 0.0
H577 H 0.73463 0.11818 0.94651 0.0
H578 H 0.61303 0.08264 0.98853 0.0
H579 H 0.61186 0.12246 0.99975 0.0
H580 H 0.59817 0.11359 0.96884 0.0
H581 H 0.75599 0.13033 0.98579 0.0
H582 H 0.73001 0.13933 0.01141 0.0
H583 H 0.74016 0.09907 0.00481 0.0
H584 H 0.67175 0.14082 0.07366 0.0
H585 H 0.68799 0.04375 0.05425 0.0
H586 H 0.64542 0.16595 0.01217 0.0
H587 H 0.68519 0.17491 0.02093 0.0
H588 H 0.65395 0.1783 0.04349 0.0
H589 H 0.6613 0.04924 0.99136 0.0
H590 H 0.6812 0.02469 0.01379 0.0
H591 H 0.70338 0.05147 0.99447 0.0
C592 C 0.89869 0.6644 0.94173 0.0
C593 C 0.89779 0.69502 0.93185 0.0
C594 C 0.89784 0.65968 0.96751 0.0
C595 C 0.89547 0.68621 0.98343 0.0
C596 C 0.89061 0.71669 0.97321 0.0
C597 C 0.89238 0.72079 0.9475 0.0
C598 C 0.90319 0.62683 0.97761 0.0
C599 C 0.88714 0.74553 0.98945 0.0
C600 C 0.89231 0.68133 0.05385 0.0
C601 C 0.9236 0.68906 0.05968 0.0
C602 C 0.88272 0.67886 0.02896 0.0
C603 C 0.9052 0.68363 0.00979 0.0
C604 C 0.93725 0.68936 0.01585 0.0
C605 C 0.94592 0.69241 0.0407 0.0
C606 C 0.84833 0.67302 0.02324 0.0
C607 C 0.96224 0.69385 0.99607 0.0
H608 H 0.90316 0.64452 0.92954 0.0
H609 H 0.89156 0.74445 0.93971 0.0
H610 H 0.92842 0.62421 0.98282 0.0
H611 H 0.88876 0.62262 0.99449 0.0
H612 H 0.89751 0.60841 0.96365 0.0
H613 H 0.87777 0.76613 0.97898 0.0
H614 H 0.87117 0.74059 0.00533 0.0
H615 H 0.9106 0.75204 0.99706 0.0
H616 H 0.87508 0.6788 0.06863 0.0
H617 H 0.97025 0.69793 0.04531 0.0
H618 H 0.84578 0.65573 0.00794 0.0
H619 H 0.83725 0.69548 0.01707 0.0
H620 H 0.83518 0.66421 0.0397 0.0
H621 H 0.96134 0.67425 0.98245 0.0
H622 H 0.98646 0.69491 0.00393 0.0
H623 H 0.95773 0.71621 0.98587 0.0
C624 C 0.35511 0.90251 0.93536 0.0
C625 C 0.32437 0.89888 0.92627 0.0
C626 C 0.36101 0.901 0.96098 0.0
C627 C 0.33559 0.89517 0.97755 0.0
C628 C 0.30536 0.88767 0.96799 0.0
C629 C 0.3 0.89017 0.94245 0.0
C630 C 0.39353 0.9093 0.97033 0.0
C631 C 0.27776 0.88054 0.98488 0.0
C632 C 0.34459 0.8892 0.04772 0.0
C633 C 0.33422 0.9193 0.05492 0.0
C634 C 0.34645 0.88103 0.02245 0.0
C635 C 0.33835 0.90379 0.00421 0.0
C636 C 0.32975 0.93478 0.01156 0.0
C637 C 0.32743 0.94198 0.03679 0.0
C638 C 0.35539 0.84771 0.01536 0.0
C639 C 0.32161 0.96009 0.99281 0.0
H640 H 0.37387 0.90966 0.9228 0.0
H641 H 0.27621 0.88741 0.9353 0.0
H642 H 0.39367 0.93439 0.97635 0.0
H643 H 0.4 0.89456 0.98656 0.0
H644 H 0.4118 0.90634 0.95568 0.0
H645 H 0.25782 0.86955 0.97468 0.0
H646 H 0.285 0.86448 1.00012 0.0
H647 H 0.26916 0.90285 0.99336 0.0
H648 H 0.34978 0.87164 0.06181 0.0
H649 H 0.31985 0.96543 0.04237 0.0
H650 H 0.37242 0.84772 0.99969 0.0
H651 H 0.33396 0.8349 0.00915 0.0
H652 H 0.36589 0.83453 0.03115 0.0
H653 H 0.34049 0.96195 0.97857 0.0
H654 H 0.31837 0.98367 1.00152 0.0
H655 H 0.29938 0.95372 0.98317 0.0
C656 C 0.62276 0.18276 0.44665 0.0
C657 C 0.59327 0.1947 0.4394 0.0
C658 C 0.62996 0.17856 0.47193 0.0
C659 C 0.60684 0.18585 0.49012 0.0
C660 C 0.57648 0.19627 0.48263 0.0
C661 C 0.57026 0.20092 0.45743 0.0
C662 C 0.66269 0.16787 0.47917 0.0
C663 C 0.55082 0.20368 0.5013 0.0
C664 C 0.60646 0.1616 0.55774 0.0
C665 C 0.61141 0.19097 0.569 0.0
C666 C 0.60765 0.15863 0.53179 0.0
C667 C 0.61454 0.18558 0.51706 0.0
C668 C 0.62296 0.21435 0.52871 0.0
C669 C 0.6207 0.21684 0.55455 0.0
C670 C 0.59818 0.12763 0.52019 0.0
C671 C 0.63121 0.24346 0.51381 0.0
H672 H 0.64059 0.17802 0.43267 0.0
H673 H 0.54728 0.20975 0.45181 0.0
H674 H 0.67563 0.18799 0.48755 0.0
H675 H 0.66145 0.14886 0.49333 0.0
H676 H 0.67646 0.15916 0.463 0.0
H677 H 0.52772 0.20861 0.49233 0.0
H678 H 0.54776 0.18364 0.51438 0.0
H679 H 0.55765 0.22471 0.51232 0.0
H680 H 0.59877 0.14174 0.56899 0.0
H681 H 0.62439 0.23958 0.56337 0.0
H682 H 0.61333 0.12209 0.50396 0.0
H683 H 0.57344 0.12943 0.51352 0.0
H684 H 0.59954 0.10777 0.53365 0.0
H685 H 0.64737 0.2374 0.4983 0.0
H686 H 0.64256 0.2619 0.52542 0.0
H687 H 0.60935 0.2536 0.5057 0.0
C688 C 0.80166 0.63246 0.44514 0.0
C689 C 0.82683 0.62481 0.4294 0.0
C690 C 0.80616 0.63484 0.47077 0.0
C691 C 0.83636 0.62832 0.48083 0.0
C692 C 0.86253 0.624 0.4647 0.0
C693 C 0.85746 0.62253 0.43899 0.0
C694 C 0.77774 0.64039 0.48718 0.0
C695 C 0.89511 0.61704 0.47461 0.0
C696 C 0.84144 0.63085 0.55131 0.0
C697 C 0.83201 0.59997 0.55719 0.0
C698 C 0.84447 0.64044 0.5264 0.0
C699 C 0.83844 0.61838 0.50723 0.0
C700 C 0.83093 0.58665 0.51333 0.0
C701 C 0.82749 0.578 0.53819 0.0
C702 C 0.85233 0.67445 0.52066 0.0
C703 C 0.82497 0.56206 0.49358 0.0
H704 H 0.77799 0.6343 0.43758 0.0
H705 H 0.87687 0.61632 0.42674 0.0
H706 H 0.76974 0.61749 0.49508 0.0
H707 H 0.78381 0.65619 0.50285 0.0
H708 H 0.75774 0.65097 0.47674 0.0
H709 H 0.91368 0.62159 0.46044 0.0
H710 H 0.90019 0.63142 0.4913 0.0
H711 H 0.89645 0.59175 0.48006 0.0
H712 H 0.84493 0.64783 0.56608 0.0
H713 H 0.82071 0.55395 0.54279 0.0
H714 H 0.83045 0.68704 0.51505 0.0
H715 H 0.86929 0.67612 0.50499 0.0
H716 H 0.86244 0.68677 0.53698 0.0
H717 H 0.80301 0.56801 0.48337 0.0
H718 H 0.82233 0.53792 0.50147 0.0
H719 H 0.84467 0.56175 0.47997 0.0
C720 C 0.44303 0.82126 0.53814 0.0
C721 C 0.42159 0.82915 0.55693 0.0
C722 C 0.43559 0.82609 0.51318 0.0
C723 C 0.40557 0.8385 0.50675 0.0
C724 C 0.38408 0.8474 0.52569 0.0
C725 C 0.3925 0.84288 0.55068 0.0
C726 C 0.45957 0.81686 0.49365 0.0
C727 C 0.35176 0.8603 0.51957 0.0
C728 C 0.40607 0.86252 0.43935 0.0
C729 C 0.39929 0.8334 0.42832 0.0
C730 C 0.40501 0.86585 0.46526 0.0
C731 C 0.39651 0.83951 0.48013 0.0
C732 C 0.38578 0.8114 0.46867 0.0
C733 C 0.38786 0.80849 0.44285 0.0
C734 C 0.41678 0.89617 0.47665 0.0
C735 C 0.37572 0.78302 0.48374 0.0
H736 H 0.46572 0.81102 0.54297 0.0
H737 H 0.37586 0.84893 0.56524 0.0
H738 H 0.45054 0.79654 0.4828 0.0
H739 H 0.46348 0.83673 0.48055 0.0
H740 H 0.48269 0.81007 0.50181 0.0
H741 H 0.3397 0.87023 0.53614 0.0
H742 H 0.35341 0.87895 0.50515 0.0
H743 H 0.3369 0.84102 0.51198 0.0
H744 H 0.41544 0.88158 0.42803 0.0
H745 H 0.38287 0.78591 0.4342 0.0
H746 H 0.44172 0.89295 0.4825 0.0
H747 H 0.40281 0.90248 0.49335 0.0
H748 H 0.41585 0.91615 0.46327 0.0
H749 H 0.397 0.77103 0.49125 0.0
H750 H 0.3624 0.76569 0.47238 0.0
H751 H 0.36079 0.7903 0.49968 0.0
C752 C 0.22469 0.40307 0.56399 0.0
C753 C 0.19852 0.40763 0.57949 0.0
C754 C 0.22088 0.39907 0.53843 0.0
C755 C 0.19018 0.40072 0.52809 0.0
C756 C 0.16348 0.40259 0.54397 0.0
C757 C 0.16799 0.40574 0.56966 0.0
C758 C 0.24998 0.39635 0.5223 0.0
C759 C 0.1304 0.4046 0.53372 0.0
C760 C 0.19352 0.44551 0.46771 0.0
C761 C 0.19233 0.42117 0.45022 0.0
C762 C 0.19053 0.43919 0.49302 0.0
C763 C 0.18707 0.40753 0.50115 0.0
C764 C 0.18437 0.38288 0.48348 0.0
C765 C 0.1867 0.39009 0.45802 0.0
C766 C 0.19279 0.46638 0.51109 0.0
C767 C 0.18092 0.34886 0.49143 0.0
H768 H 0.2483 0.40424 0.57174 0.0
H769 H 0.14777 0.40943 0.58173 0.0
H770 H 0.24644 0.37847 0.50755 0.0
H771 H 0.25458 0.41942 0.51313 0.0
H772 H 0.27124 0.38977 0.53321 0.0
H773 H 0.11235 0.3991 0.54809 0.0
H774 H 0.12606 0.42897 0.52685 0.0
H775 H 0.12732 0.38823 0.51787 0.0
H776 H 0.19733 0.46965 0.46155 0.0
H777 H 0.18576 0.37132 0.44438 0.0
H778 H 0.2153 0.46469 0.52153 0.0
H779 H 0.17316 0.46531 0.52475 0.0
H780 H 0.19204 0.48974 0.50166 0.0
H781 H 0.20397 0.34012 0.49844 0.0
H782 H 0.17346 0.33347 0.47585 0.0
H783 H 0.16352 0.34661 0.50675 0.0
C784 C 0.227 0.06885 0.17117 0.0
C785 C 0.23515 0.05663 0.14786 0.0
C786 C 0.21063 0.09775 0.17331 0.0
C787 C 0.20255 0.11498 0.15166 0.0
C788 C 0.21068 0.10268 0.12812 0.0
C789 C 0.22682 0.07376 0.12653 0.0
C790 C 0.20226 0.11004 0.19874 0.0
C791 C 0.20297 0.12042 0.10458 0.0
C792 C 0.14017 0.18028 0.15367 0.0
C793 C 0.15901 0.20743 0.1556 0.0
C794 C 0.15392 0.14994 0.15275 0.0
C795 C 0.18729 0.14675 0.15351 0.0
C796 C 0.20636 0.17415 0.15514 0.0
C797 C 0.19202 0.20404 0.1562 0.0
C798 C 0.13279 0.1213 0.15109 0.0
C799 C 0.24201 0.17194 0.15559 0.0
H800 H 0.2332 0.05568 0.1877 0.0
H801 H 0.23355 0.06482 0.10845 0.0
H802 H 0.21464 0.13274 0.2021 0.0
H803 H 0.1765 0.11484 0.19991 0.0
H804 H 0.20879 0.09313 0.21366 0.0
H805 H 0.20982 0.10704 0.08769 0.0
H806 H 0.17727 0.12556 0.10374 0.0
H807 H 0.21551 0.14346 0.10439 0.0
H808 H 0.11468 0.18275 0.15343 0.0
H809 H 0.20675 0.22492 0.15726 0.0
H810 H 0.13745 0.10517 0.1669 0.0
H811 H 0.13809 0.10797 0.13388 0.0
H812 H 0.10731 0.12771 0.15115 0.0
H813 H 0.24972 0.15705 0.17141 0.0
H814 H 0.25343 0.19549 0.1572 0.0
H815 H 0.25066 0.1604 0.1384 0.0
C816 C 0.8417 0.16036 0.12149 0.0
C817 C 0.82064 0.14625 0.13833 0.0
C818 C 0.86997 0.17426 0.1294 0.0
C819 C 0.87781 0.17391 0.15488 0.0
C820 C 0.85724 0.15879 0.17199 0.0
C821 C 0.82884 0.14512 0.1635 0.0
C822 C 0.89122 0.18984 0.11042 0.0
C823 C 0.86489 0.15769 0.19926 0.0
C824 C 0.96498 0.19086 0.16427 0.0
C825 C 0.96482 0.22379 0.16752 0.0
C826 C 0.93663 0.17377 0.1622 0.0
C827 C 0.90736 0.19002 0.16317 0.0
C828 C 0.90704 0.22289 0.1683 0.0
C829 C 0.93577 0.23937 0.1705 0.0
C830 C 0.93814 0.13871 0.15711 0.0
C831 C 0.87642 0.24119 0.16946 0.0
H832 H 0.83599 0.16066 0.10195 0.0
H833 H 0.81268 0.13436 0.17663 0.0
H834 H 0.89408 0.21528 0.11489 0.0
H835 H 0.91507 0.17891 0.11087 0.0
H836 H 0.8818 0.18785 0.09129 0.0
H837 H 0.8477 0.14312 0.20988 0.0
H838 H 0.88897 0.14794 0.20211 0.0
H839 H 0.86475 0.18202 0.20692 0.0
H840 H 0.98738 0.17861 0.1623 0.0
H841 H 0.93544 0.26482 0.17286 0.0
H842 H 0.93239 0.1343 0.13737 0.0
H843 H 0.92048 0.12581 0.16851 0.0
H844 H 0.96198 0.12879 0.16091 0.0
H845 H 0.86638 0.2432 0.15054 0.0
H846 H 0.87981 0.2654 0.17696 0.0
H847 H 0.85882 0.22861 0.18113 0.0
C848 C 0.83732 0.96232 0.14041 0.0
C849 C 0.80841 0.96532 0.15315 0.0
C850 C 0.85349 0.93329 0.13937 0.0
C851 C 0.84097 0.90662 0.15186 0.0
C852 C 0.81325 0.91011 0.16644 0.0
C853 C 0.79718 0.93928 0.16675 0.0
C854 C 0.88281 0.9307 0.12347 0.0
C855 C 0.79944 0.88248 0.1805 0.0
C856 C 0.85365 0.82513 0.1239 0.0
C857 C 0.87801 0.81276 0.13855 0.0
C858 C 0.84199 0.8558 0.12776 0.0
C859 C 0.85447 0.87447 0.14719 0.0
C860 C 0.87934 0.8622 0.16196 0.0
C861 C 0.8911 0.83155 0.15725 0.0
C862 C 0.81606 0.86809 0.11113 0.0
C863 C 0.89283 0.88103 0.18315 0.0
H864 H 0.84681 0.98243 0.1304 0.0
H865 H 0.7749 0.94109 0.1766 0.0
H866 H 0.90208 0.91872 0.13374 0.0
H867 H 0.87754 0.91609 0.10692 0.0
H868 H 0.89141 0.95418 0.11711 0.0
H869 H 0.78076 0.89002 0.19376 0.0
H870 H 0.7889 0.86548 0.16725 0.0
H871 H 0.81819 0.86977 0.19086 0.0
H872 H 0.84374 0.81062 0.10933 0.0
H873 H 0.9097 0.82179 0.16873 0.0
H874 H 0.82338 0.89079 0.10251 0.0
H875 H 0.79445 0.87281 0.12222 0.0
H876 H 0.80999 0.85115 0.09616 0.0
H877 H 0.90108 0.90445 0.17652 0.0
H878 H 0.91287 0.86868 0.19227 0.0
H879 H 0.8741 0.88539 0.19718 0.0
C880 C 0.19222 0.87913 0.13688 0.0
C881 C 0.21972 0.86178 0.14211 0.0
C882 C 0.16203 0.86578 0.14038 0.0
C883 C 0.15926 0.83424 0.14907 0.0
C884 C 0.18684 0.81727 0.15562 0.0
C885 C 0.2166 0.83131 0.15228 0.0
C886 C 0.13317 0.88488 0.13356 0.0
C887 C 0.18509 0.78355 0.16481 0.0
C888 C 0.07955 0.79984 0.16892 0.0
C889 C 0.06988 0.78492 0.14706 0.0
C890 C 0.10836 0.81654 0.16985 0.0
C891 C 0.1281 0.81768 0.14856 0.0
C892 C 0.11854 0.80208 0.12663 0.0
C893 C 0.08952 0.78614 0.12611 0.0
C894 C 0.11752 0.83325 0.19344 0.0
C895 C 0.13907 0.80206 0.10366 0.0
H896 H 0.19423 0.90263 0.12904 0.0
H897 H 0.23754 0.81797 0.15711 0.0
H898 H 0.1226 0.87519 0.11639 0.0
H899 H 0.11501 0.88323 0.14839 0.0
H900 H 0.13892 0.9102 0.13037 0.0
H901 H 0.2084 0.77459 0.17115 0.0
H902 H 0.16796 0.78156 0.18033 0.0
H903 H 0.17654 0.76804 0.14968 0.0
H904 H 0.06424 0.79907 0.18506 0.0
H905 H 0.08215 0.77435 0.10926 0.0
H906 H 0.12086 0.85885 0.18972 0.0
H907 H 0.14039 0.82393 0.20033 0.0
H908 H 0.09944 0.83043 0.20825 0.0
H909 H 0.14322 0.82668 0.09733 0.0
H910 H 0.1283 0.78854 0.0882 0.0
H911 H 0.16247 0.79154 0.10795 0.0
C912 C 0.7302 0.44581 0.37237 0.0
C913 C 0.73003 0.46565 0.35151 0.0
C914 C 0.71426 0.41677 0.37237 0.0
C915 C 0.69739 0.40727 0.35103 0.0
C916 C 0.69711 0.42715 0.32983 0.0
C917 C 0.71369 0.45605 0.33025 0.0
C918 C 0.7157 0.39613 0.39522 0.0
C919 C 0.67915 0.41796 0.30683 0.0
C920 C 0.6842 0.31867 0.34724 0.0
C921 C 0.65412 0.31531 0.35804 0.0
C922 C 0.69792 0.34855 0.34375 0.0
C923 C 0.68108 0.37597 0.35095 0.0
C924 C 0.64998 0.37294 0.36053 0.0
C925 C 0.6369 0.34264 0.36403 0.0
C926 C 0.73113 0.35062 0.33351 0.0
C927 C 0.63109 0.40161 0.3682 0.0
H928 H 0.74318 0.45294 0.38873 0.0
H929 H 0.71337 0.47142 0.31416 0.0
H930 H 0.69148 0.39152 0.40228 0.0
H931 H 0.72639 0.37292 0.39051 0.0
H932 H 0.72977 0.40703 0.41031 0.0
H933 H 0.68082 0.43623 0.29207 0.0
H934 H 0.68841 0.3953 0.29943 0.0
H935 H 0.65386 0.41418 0.31146 0.0
H936 H 0.69739 0.29782 0.34187 0.0
H937 H 0.6137 0.34036 0.37238 0.0
H938 H 0.74732 0.35928 0.34814 0.0
H939 H 0.73218 0.36779 0.31797 0.0
H940 H 0.73998 0.32739 0.32683 0.0
H941 H 0.64178 0.41223 0.38499 0.0
H942 H 0.60606 0.39565 0.37238 0.0
H943 H 0.63167 0.41983 0.35339 0.0
C944 C 0.5593 0.70731 0.33142 0.0
C945 C 0.55761 0.73454 0.34613 0.0
C946 C 0.58746 0.68953 0.32999 0.0
C947 C 0.61453 0.69961 0.34328 0.0
C948 C 0.613 0.72761 0.35759 0.0
C949 C 0.58457 0.74456 0.35894 0.0
C950 C 0.58809 0.65967 0.31474 0.0
C951 C 0.64137 0.7396 0.37168 0.0
C952 C 0.68284 0.64602 0.36192 0.0
C953 C 0.70627 0.65509 0.34489 0.0
C954 C 0.65216 0.65889 0.36074 0.0
C955 C 0.6448 0.68148 0.34217 0.0
C956 C 0.66784 0.68937 0.32415 0.0
C957 C 0.69813 0.67598 0.32565 0.0
C958 C 0.62815 0.64956 0.38014 0.0
C959 C 0.6611 0.71335 0.30407 0.0
H960 H 0.53835 0.69941 0.32171 0.0
H961 H 0.58329 0.76574 0.37022 0.0
H962 H 0.60726 0.66092 0.3007 0.0
H963 H 0.59325 0.63911 0.32687 0.0
H964 H 0.56531 0.65541 0.3051 0.0
H965 H 0.63639 0.76209 0.38158 0.0
H966 H 0.64902 0.72167 0.38545 0.0
H967 H 0.66145 0.74352 0.35876 0.0
H968 H 0.68882 0.62994 0.37682 0.0
H969 H 0.71574 0.68248 0.31197 0.0
H970 H 0.60521 0.64373 0.37134 0.0
H971 H 0.62397 0.66974 0.39285 0.0
H972 H 0.63609 0.62893 0.39129 0.0
H973 H 0.63872 0.70756 0.29444 0.0
H974 H 0.68042 0.71462 0.29011 0.0
H975 H 0.65814 0.73709 0.3125 0.0
C976 C 0.32099 0.56296 0.35385 0.0
C977 C 0.28796 0.56425 0.35623 0.0
C978 C 0.33912 0.59073 0.35238 0.0
C979 C 0.3239 0.62051 0.3537 0.0
C980 C 0.2905 0.62193 0.35572 0.0
C981 C 0.27292 0.59378 0.35679 0.0
C982 C 0.37457 0.5882 0.34971 0.0
C983 C 0.27337 0.65321 0.35736 0.0
C984 C 0.36924 0.69388 0.37388 0.0
C985 C 0.37275 0.70989 0.35132 0.0
C986 C 0.35407 0.66429 0.37491 0.0
C987 C 0.34273 0.65028 0.35278 0.0
C988 C 0.34787 0.66567 0.32981 0.0
C989 C 0.36256 0.69538 0.32941 0.0
C990 C 0.34881 0.64876 0.39978 0.0
C991 C 0.33681 0.65132 0.30574 0.0
H992 H 0.33266 0.54013 0.35334 0.0
H993 H 0.24746 0.59486 0.35901 0.0
H994 H 0.38257 0.60141 0.33306 0.0
H995 H 0.38625 0.59908 0.36597 0.0
H996 H 0.38266 0.56328 0.3481 0.0
H997 H 0.24735 0.65025 0.359 0.0
H998 H 0.28192 0.66665 0.37366 0.0
H999 H 0.27851 0.6677 0.34067 0.0
H1000 H 0.37686 0.70529 0.3908 0.0
H1001 H 0.36557 0.70773 0.31195 0.0
H1002 H 0.35773 0.62409 0.39952 0.0
H1003 H 0.32309 0.64769 0.40381 0.0
H1004 H 0.36065 0.66174 0.41504 0.0
H1005 H 0.34539 0.62661 0.30409 0.0
H1006 H 0.34511 0.66495 0.28935 0.0
H1007 H 0.3106 0.65058 0.30545 0.0
C1008 C 0.33173 0.37445 0.38146 0.0
C1009 C 0.30904 0.37367 0.36266 0.0
C1010 C 0.36165 0.36047 0.37803 0.0
C1011 C 0.3693 0.34627 0.35496 0.0
C1012 C 0.34687 0.34691 0.33553 0.0
C1013 C 0.31684 0.36012 0.33977 0.0
C1014 C 0.38452 0.35966 0.39944 0.0
C1015 C 0.35431 0.33301 0.31043 0.0
C1016 C 0.45666 0.32947 0.34284 0.0
C1017 C 0.45849 0.297 0.34787 0.0
C1018 C 0.4276 0.34565 0.3442 0.0
C1019 C 0.39998 0.32916 0.35164 0.0
C1020 C 0.40179 0.29623 0.3565 0.0
C1021 C 0.43094 0.2805 0.35425 0.0
C1022 C 0.42657 0.38049 0.33812 0.0
C1023 C 0.37316 0.27783 0.36501 0.0
H1024 H 0.32544 0.38468 0.39921 0.0
H1025 H 0.29923 0.35975 0.32522 0.0
H1026 H 0.38928 0.33474 0.40476 0.0
H1027 H 0.40742 0.37032 0.3939 0.0
H1028 H 0.37534 0.37247 0.41592 0.0
H1029 H 0.33554 0.33817 0.29664 0.0
H1030 H 0.3771 0.34246 0.30338 0.0
H1031 H 0.35692 0.30698 0.31203 0.0
H1032 H 0.47807 0.34223 0.33811 0.0
H1033 H 0.43254 0.2555 0.3586 0.0
H1034 H 0.42063 0.39419 0.35501 0.0
H1035 H 0.40779 0.38528 0.32429 0.0
H1036 H 0.44947 0.38923 0.33068 0.0
H1037 H 0.364 0.28797 0.38258 0.0
H1038 H 0.37852 0.25239 0.36806 0.0
H1039 H 0.354 0.27973 0.3511 0.0
C1040 C 0.8365 0.81801 0.82763 0.0
C1041 C 0.86026 0.81141 0.84503 0.0
C1042 C 0.82304 0.8483 0.82566 0.0
C1043 C 0.83361 0.8728 0.84142 0.0
C1044 C 0.85888 0.86682 0.858 0.0
C1045 C 0.8719 0.83622 0.85962 0.0
C1046 C 0.79627 0.85354 0.80766 0.0
C1047 C 0.87099 0.8923 0.87507 0.0
C1048 C 0.80674 0.95809 0.83002 0.0
C1049 C 0.78207 0.96094 0.84728 0.0
C1050 C 0.82375 0.9295 0.82769 0.0
C1051 C 0.81562 0.90322 0.8428 0.0
C1052 C 0.79001 0.90583 0.85963 0.0
C1053 C 0.77367 0.93456 0.86165 0.0
C1054 C 0.8509 0.92765 0.80956 0.0
C1055 C 0.78014 0.8784 0.87587 0.0
H1056 H 0.82786 0.79924 0.81583 0.0
H1057 H 0.89015 0.83142 0.87314 0.0
H1058 H 0.77387 0.8569 0.81809 0.0
H1059 H 0.80035 0.87529 0.7966 0.0
H1060 H 0.79325 0.83329 0.7948 0.0
H1061 H 0.89309 0.88512 0.88463 0.0
H1062 H 0.87551 0.91443 0.86457 0.0
H1063 H 0.85279 0.89766 0.88931 0.0
H1064 H 0.81341 0.97848 0.81899 0.0
H1065 H 0.75434 0.93656 0.87481 0.0
H1066 H 0.84768 0.90727 0.79689 0.0
H1067 H 0.8733 0.92368 0.81975 0.0
H1068 H 0.85327 0.94955 0.7983 0.0
H1069 H 0.77428 0.8576 0.86426 0.0
H1070 H 0.75931 0.88413 0.88763 0.0
H1071 H 0.79999 0.87145 0.88813 0.0
C1072 C 0.1907 0.85127 0.82528 0.0
C1073 C 0.20347 0.8628 0.84744 0.0
C1074 C 0.16071 0.83715 0.82471 0.0
C1075 C 0.14323 0.83393 0.84698 0.0
C1076 C 0.15576 0.84607 0.86938 0.0
C1077 C 0.18565 0.86067 0.86929 0.0
C1078 C 0.14798 0.8252 0.80035 0.0
C1079 C 0.13806 0.84271 0.89356 0.0
C1080 C 0.05489 0.81721 0.84395 0.0
C1081 C 0.05405 0.78428 0.84704 0.0
C1082 C 0.08374 0.83367 0.84359 0.0
C1083 C 0.1124 0.81685 0.84689 0.0
C1084 C 0.11166 0.78355 0.8499 0.0
C1085 C 0.08251 0.76765 0.84972 0.0
C1086 C 0.08355 0.86905 0.83981 0.0
C1087 C 0.14163 0.76478 0.85377 0.0
H1088 H 0.20433 0.8533 0.80832 0.0
H1089 H 0.19564 0.86937 0.88644 0.0
H1090 H 0.14534 0.79911 0.80111 0.0
H1091 H 0.12419 0.83532 0.79687 0.0
H1092 H 0.16366 0.83127 0.7845 0.0
H1093 H 0.15062 0.85416 0.90921 0.0
H1094 H 0.11416 0.85333 0.89196 0.0
H1095 H 0.13482 0.81727 0.89798 0.0
H1096 H 0.03288 0.8301 0.84182 0.0
H1097 H 0.08189 0.74226 0.85251 0.0
H1098 H 0.09845 0.87537 0.82358 0.0
H1099 H 0.09388 0.88094 0.8562 0.0
H1100 H 0.05934 0.87848 0.8368 0.0
H1101 H 0.15778 0.76805 0.83774 0.0
H1102 H 0.13698 0.7391 0.85614 0.0
H1103 H 0.15415 0.77355 0.87045 0.0
C1104 C 0.21605 0.07547 0.8337 0.0
C1105 C 0.22266 0.05773 0.85511 0.0
C1106 C 0.20075 0.10507 0.83522 0.0
C1107 C 0.19152 0.11714 0.85866 0.0
C1108 C 0.1976 0.09913 0.88023 0.0
C1109 C 0.21337 0.07003 0.87823 0.0
C1110 C 0.19511 0.12377 0.8118 0.0
C1111 C 0.18818 0.11095 0.90561 0.0
C1112 C 0.18495 0.20559 0.86997 0.0
C1113 C 0.15209 0.21082 0.86955 0.0
C1114 C 0.19796 0.17558 0.86553 0.0
C1115 C 0.17775 0.14959 0.86107 0.0
C1116 C 0.14458 0.15444 0.86065 0.0
C1117 C 0.13216 0.18497 0.86473 0.0
C1118 C 0.23346 0.17162 0.86608 0.0
C1119 C 0.1222 0.12724 0.85633 0.0
H1120 H 0.22281 0.06627 0.81573 0.0
H1121 H 0.21905 0.05726 0.89505 0.0
H1122 H 0.16974 0.1301 0.81024 0.0
H1123 H 0.20865 0.14622 0.8125 0.0
H1124 H 0.20232 0.11055 0.79493 0.0
H1125 H 0.19218 0.09297 0.9203 0.0
H1126 H 0.20205 0.13238 0.91024 0.0
H1127 H 0.16284 0.11775 0.90579 0.0
H1128 H 0.20082 0.22486 0.87415 0.0
H1129 H 0.10684 0.18847 0.86407 0.0
H1130 H 0.24178 0.15982 0.84891 0.0
H1131 H 0.24024 0.15629 0.8819 0.0
H1132 H 0.24601 0.19457 0.86793 0.0
H1133 H 0.12815 0.11516 0.83869 0.0
H1134 H 0.09712 0.13502 0.85563 0.0
H1135 H 0.12479 0.10956 0.8714 0.0
C1136 C 0.82979 0.13405 0.86248 0.0
C1137 C 0.80302 0.15366 0.8623 0.0
C1138 C 0.86052 0.147 0.86256 0.0
C1139 C 0.86451 0.18032 0.86262 0.0
C1140 C 0.83753 0.20012 0.86277 0.0
C1141 C 0.80728 0.18659 0.86266 0.0
C1142 C 0.88869 0.1251 0.86247 0.0
C1143 C 0.84058 0.23572 0.86317 0.0
C1144 C 0.93948 0.21822 0.88736 0.0
C1145 C 0.95525 0.2274 0.86553 0.0
C1146 C 0.91058 0.20197 0.88662 0.0
C1147 C 0.89672 0.19479 0.86347 0.0
C1148 C 0.91257 0.20367 0.84133 0.0
C1149 C 0.94159 0.21993 0.84261 0.0
C1150 C 0.89444 0.19329 0.91069 0.0
C1151 C 0.89855 0.1965 0.81628 0.0
H1152 H 0.82671 0.10863 0.86203 0.0
H1153 H 0.78679 0.20195 0.86304 0.0
H1154 H 0.90376 0.13002 0.84605 0.0
H1155 H 0.90336 0.12935 0.87914 0.0
H1156 H 0.88166 0.09979 0.86216 0.0
H1157 H 0.81725 0.2478 0.8628 0.0
H1158 H 0.85337 0.24324 0.88008 0.0
H1159 H 0.85464 0.24385 0.84698 0.0
H1160 H 0.94938 0.22443 0.90519 0.0
H1161 H 0.95366 0.22669 0.82567 0.0
H1162 H 0.88859 0.16772 0.91093 0.0
H1163 H 0.87186 0.2065 0.91241 0.0
H1164 H 0.90928 0.19869 0.92709 0.0
H1165 H 0.89312 0.1709 0.81481 0.0
H1166 H 0.91461 0.20323 0.80083 0.0
H1167 H 0.87593 0.20951 0.81408 0.0
C1168 C 0.36997 0.69587 0.66522 0.0
C1169 C 0.36612 0.70653 0.64081 0.0
C1170 C 0.35674 0.66689 0.67302 0.0
C1171 C 0.33992 0.64797 0.65583 0.0
C1172 C 0.33706 0.65829 0.63095 0.0
C1173 C 0.3499 0.68749 0.62386 0.0
C1174 C 0.35988 0.65699 0.69977 0.0
C1175 C 0.32003 0.63867 0.6118 0.0
C1176 C 0.32535 0.55987 0.66327 0.0
C1177 C 0.29254 0.55896 0.66752 0.0
C1178 C 0.34157 0.58872 0.66097 0.0
C1179 C 0.32479 0.61752 0.66346 0.0
C1180 C 0.29228 0.61677 0.66989 0.0
C1181 C 0.2765 0.58756 0.67167 0.0
C1182 C 0.37617 0.58829 0.65402 0.0
C1183 C 0.27359 0.64691 0.67318 0.0
H1184 H 0.38229 0.71077 0.67834 0.0
H1185 H 0.34725 0.69562 0.60493 0.0
H1186 H 0.33614 0.65622 0.70855 0.0
H1187 H 0.36998 0.63282 0.70103 0.0
H1188 H 0.37506 0.67343 0.71049 0.0
H1189 H 0.32111 0.64944 0.59302 0.0
H1190 H 0.33052 0.61463 0.61089 0.0
H1191 H 0.29483 0.63593 0.61714 0.0
H1192 H 0.3382 0.53794 0.66066 0.0
H1193 H 0.2512 0.58733 0.67487 0.0
H1194 H 0.38973 0.60501 0.66569 0.0
H1195 H 0.37889 0.59608 0.63448 0.0
H1196 H 0.38671 0.56434 0.65591 0.0
H1197 H 0.28682 0.66396 0.6848 0.0
H1198 H 0.25014 0.6425 0.68185 0.0
H1199 H 0.26977 0.65815 0.65484 0.0
C1200 C 0.3247 0.33755 0.64823 0.0
C1201 C 0.31577 0.3661 0.65937 0.0
C1202 C 0.35566 0.32594 0.65025 0.0
C1203 C 0.37823 0.34291 0.6643 0.0
C1204 C 0.36928 0.3717 0.67581 0.0
C1205 C 0.3382 0.38319 0.67292 0.0
C1206 C 0.36426 0.2956 0.63709 0.0
C1207 C 0.39239 0.3901 0.69139 0.0
C1208 C 0.44836 0.29087 0.68135 0.0
C1209 C 0.46957 0.29788 0.66208 0.0
C1210 C 0.41942 0.30718 0.68358 0.0
C1211 C 0.41134 0.33071 0.66591 0.0
C1212 C 0.43374 0.3395 0.64764 0.0
C1213 C 0.46266 0.32332 0.64618 0.0
C1214 C 0.3966 0.2977 0.70379 0.0
C1215 C 0.42618 0.36418 0.62827 0.0
H1216 H 0.3074 0.32451 0.63757 0.0
H1217 H 0.33115 0.40509 0.68176 0.0
H1218 H 0.38409 0.29991 0.62401 0.0
H1219 H 0.37237 0.2777 0.65071 0.0
H1220 H 0.34408 0.28558 0.62658 0.0
H1221 H 0.3816 0.41172 0.69949 0.0
H1222 H 0.4013 0.37495 0.70667 0.0
H1223 H 0.41314 0.39713 0.68005 0.0
H1224 H 0.45342 0.27136 0.69377 0.0
H1225 H 0.47928 0.32954 0.63164 0.0
H1226 H 0.37713 0.28355 0.6957 0.0
H1227 H 0.38586 0.31892 0.71251 0.0
H1228 H 0.40826 0.2833 0.71838 0.0
H1229 H 0.40782 0.35486 0.61558 0.0
H1230 H 0.44726 0.37076 0.61708 0.0
H1231 H 0.41647 0.38583 0.63702 0.0
C1232 C 0.65002 0.3266 0.62614 0.0
C1233 C 0.64653 0.30976 0.64832 0.0
C1234 C 0.66495 0.35636 0.62579 0.0
C1235 C 0.67594 0.36976 0.64827 0.0
C1236 C 0.67081 0.35348 0.67086 0.0
C1237 C 0.65654 0.32354 0.67056 0.0
C1238 C 0.67037 0.37269 0.60126 0.0
C1239 C 0.68134 0.3672 0.6953 0.0
C1240 C 0.74525 0.42718 0.64623 0.0
C1241 C 0.72991 0.45654 0.64705 0.0
C1242 C 0.72794 0.39882 0.64647 0.0
C1243 C 0.69448 0.39982 0.64806 0.0
C1244 C 0.67894 0.42944 0.64962 0.0
C1245 C 0.69682 0.45745 0.64881 0.0
C1246 C 0.74543 0.36778 0.64443 0.0
C1247 C 0.64343 0.43154 0.65197 0.0
H1248 H 0.64255 0.31572 0.60896 0.0
H1249 H 0.65362 0.31049 0.68771 0.0
H1250 H 0.66107 0.39721 0.60188 0.0
H1251 H 0.69614 0.37427 0.59752 0.0
H1252 H 0.65898 0.35999 0.58566 0.0
H1253 H 0.67291 0.353 0.71135 0.0
H1254 H 0.70754 0.36817 0.69589 0.0
H1255 H 0.6725 0.39177 0.69732 0.0
H1256 H 0.77078 0.42643 0.64447 0.0
H1257 H 0.68493 0.48016 0.64946 0.0
H1258 H 0.73715 0.35465 0.62789 0.0
H1259 H 0.74036 0.35283 0.66088 0.0
H1260 H 0.77142 0.37107 0.64295 0.0
H1261 H 0.63212 0.42105 0.63539 0.0
H1262 H 0.63507 0.45633 0.65396 0.0
H1263 H 0.6353 0.41773 0.66828 0.0
C1264 C 0.57426 0.71719 0.66452 0.0
C1265 C 0.5569 0.72164 0.64264 0.0
C1266 C 0.60377 0.70163 0.66422 0.0
C1267 C 0.61622 0.69007 0.64154 0.0
C1268 C 0.5985 0.69384 0.61954 0.0
C1269 C 0.56938 0.70975 0.62032 0.0
C1270 C 0.62204 0.69831 0.68806 0.0
C1271 C 0.61078 0.68199 0.59493 0.0
C1272 C 0.70512 0.68368 0.63227 0.0
C1273 C 0.7107 0.65107 0.63493 0.0
C1274 C 0.67475 0.6966 0.63503 0.0
C1275 C 0.64885 0.67648 0.64023 0.0
C1276 C 0.65409 0.6435 0.64279 0.0
C1277 C 0.68493 0.63119 0.64017 0.0
C1278 C 0.67036 0.73187 0.63206 0.0
C1279 C 0.62705 0.62121 0.64809 0.0
H1280 H 0.56487 0.72597 0.6819 0.0
H1281 H 0.55682 0.71366 0.60312 0.0
H1282 H 0.62875 0.67324 0.69111 0.0
H1283 H 0.64427 0.71215 0.6868 0.0
H1284 H 0.60835 0.70673 0.70437 0.0
H1285 H 0.593 0.68434 0.57993 0.0
H1286 H 0.63216 0.69555 0.58953 0.0
H1287 H 0.6178 0.65677 0.59643 0.0
H1288 H 0.72452 0.69931 0.6277 0.0
H1289 H 0.68886 0.60607 0.64252 0.0
H1290 H 0.65845 0.7418 0.64866 0.0
H1291 H 0.65494 0.73679 0.61591 0.0
H1292 H 0.69314 0.74447 0.62929 0.0
H1293 H 0.61465 0.62844 0.66532 0.0
H1294 H 0.63506 0.59632 0.65015 0.0
H1295 H 0.60957 0.62241 0.63283 0.0
C1296 C 0.14463 0.41731 0.31508 0.0
C1297 C 0.17557 0.42792 0.31065 0.0
C1298 C 0.12561 0.40635 0.29566 0.0
C1299 C 0.13765 0.40645 0.27117 0.0
C1300 C 0.16843 0.41825 0.26645 0.0
C1301 C 0.18713 0.4286 0.28629 0.0
C1302 C 0.09308 0.39359 0.30148 0.0
C1303 C 0.18187 0.41926 0.24051 0.0
C1304 C 0.10667 0.34771 0.22412 0.0
C1305 C 0.08589 0.36645 0.21022 0.0
C1306 C 0.12297 0.36026 0.24442 0.0
C1307 C 0.11885 0.39251 0.25067 0.0
C1308 C 0.09752 0.41145 0.23693 0.0
C1309 C 0.08102 0.39808 0.21698 0.0
C1310 C 0.14504 0.33912 0.25891 0.0
C1311 C 0.09292 0.44606 0.24279 0.0
H1312 H 0.13552 0.41665 0.33387 0.0
H1313 H 0.21092 0.43701 0.28272 0.0
H1314 H 0.07506 0.40546 0.28982 0.0
H1315 H 0.09223 0.36797 0.29708 0.0
H1316 H 0.08654 0.39681 0.32127 0.0
H1317 H 0.20517 0.43133 0.23973 0.0
H1318 H 0.18479 0.39484 0.23338 0.0
H1319 H 0.16531 0.43171 0.2279 0.0
H1320 H 0.11035 0.32318 0.21902 0.0
H1321 H 0.06523 0.41273 0.20608 0.0
H1322 H 0.13882 0.33973 0.27889 0.0
H1323 H 0.16966 0.34784 0.25708 0.0
H1324 H 0.14426 0.31419 0.25248 0.0
H1325 H 0.08569 0.44901 0.26243 0.0
H1326 H 0.07481 0.45729 0.23077 0.0
H1327 H 0.11561 0.45884 0.24031 0.0
C1328 C 0.68492 0.09541 0.22739 0.0
C1329 C 0.67964 0.10376 0.20264 0.0
C1330 C 0.67259 0.11384 0.2468 0.0
C1331 C 0.65328 0.14033 0.24124 0.0
C1332 C 0.64801 0.14883 0.21617 0.0
C1333 C 0.66179 0.13075 0.19715 0.0
C1334 C 0.67984 0.10468 0.27323 0.0
C1335 C 0.62669 0.17615 0.20941 0.0
C1336 C 0.59517 0.16548 0.29161 0.0
C1337 C 0.60935 0.19312 0.30048 0.0
C1338 C 0.60881 0.14849 0.2719 0.0
C1339 C 0.63801 0.15866 0.26163 0.0
C1340 C 0.65266 0.18628 0.27094 0.0
C1341 C 0.63782 0.20352 0.28992 0.0
C1342 C 0.59186 0.11981 0.26195 0.0
C1343 C 0.68435 0.19723 0.26125 0.0
H1344 H 0.69859 0.07435 0.23152 0.0
H1345 H 0.65723 0.13672 0.17794 0.0
H1346 H 0.68883 0.12546 0.28358 0.0
H1347 H 0.65792 0.09669 0.28266 0.0
H1348 H 0.69762 0.08539 0.27435 0.0
H1349 H 0.62505 0.17969 0.18905 0.0
H1350 H 0.60258 0.17185 0.21685 0.0
H1351 H 0.63542 0.19832 0.21792 0.0
H1352 H 0.57312 0.15753 0.29979 0.0
H1353 H 0.64901 0.22467 0.29708 0.0
H1354 H 0.60644 0.09834 0.26492 0.0
H1355 H 0.58829 0.12233 0.24167 0.0
H1356 H 0.56849 0.11616 0.27095 0.0
H1357 H 0.70206 0.17805 0.26339 0.0
H1358 H 0.69305 0.21859 0.27106 0.0
H1359 H 0.68272 0.2027 0.24119 0.0
C1360 C 0.84667 0.60919 0.28614 0.0
C1361 C 0.86621 0.58954 0.30038 0.0
C1362 C 0.85869 0.62586 0.26572 0.0
C1363 C 0.89122 0.62341 0.25977 0.0
C1364 C 0.91099 0.60322 0.27387 0.0
C1365 C 0.89814 0.58621 0.29388 0.0
C1366 C 0.83667 0.64654 0.25079 0.0
C1367 C 0.9459 0.60045 0.26835 0.0
C1368 C 0.91639 0.64867 0.19518 0.0
C1369 C 0.92559 0.68017 0.19906 0.0
C1370 C 0.90562 0.62976 0.21483 0.0
C1371 C 0.90449 0.64248 0.23904 0.0
C1372 C 0.91462 0.67396 0.24323 0.0
C1373 C 0.92479 0.69255 0.22313 0.0
C1374 C 0.89455 0.59651 0.20953 0.0
C1375 C 0.91429 0.68813 0.26889 0.0
H1376 H 0.82193 0.61174 0.29111 0.0
H1377 H 0.91337 0.57136 0.30508 0.0
H1378 H 0.84399 0.67164 0.25237 0.0
H1379 H 0.83802 0.64008 0.23089 0.0
H1380 H 0.8117 0.64448 0.25704 0.0
H1381 H 0.9579 0.58325 0.28076 0.0
H1382 H 0.94964 0.593 0.24887 0.0
H1383 H 0.95734 0.62389 0.27056 0.0
H1384 H 0.91685 0.63892 0.17662 0.0
H1385 H 0.93209 0.71677 0.22628 0.0
H1386 H 0.86902 0.59441 0.21401 0.0
H1387 H 0.90732 0.57935 0.22143 0.0
H1388 H 0.89817 0.58974 0.18984 0.0
H1389 H 0.88961 0.68976 0.27578 0.0
H1390 H 0.92492 0.71214 0.26928 0.0
H1391 H 0.92746 0.67267 0.28191 0.0
C1392 C 0.42519 0.84529 0.2821 0.0
C1393 C 0.44244 0.86599 0.29709 0.0
C1394 C 0.40907 0.85632 0.26115 0.0
C1395 C 0.40935 0.88905 0.25556 0.0
C1396 C 0.42741 0.90999 0.27035 0.0
C1397 C 0.44416 0.89808 0.29083 0.0
C1398 C 0.39083 0.83306 0.24553 0.0
C1399 C 0.4277 0.94511 0.26533 0.0
C1400 C 0.38167 0.9125 0.1912 0.0
C1401 C 0.3494 0.91845 0.1953 0.0
C1402 C 0.40171 0.90375 0.21074 0.0
C1403 C 0.38929 0.90126 0.23503 0.0
C1404 C 0.35699 0.90827 0.23944 0.0
C1405 C 0.33738 0.91655 0.21949 0.0
C1406 C 0.43588 0.89603 0.20522 0.0
C1407 C 0.34297 0.90635 0.26517 0.0
H1408 H 0.42389 0.82045 0.28706 0.0
H1409 H 0.4571 0.9141 0.30275 0.0
H1410 H 0.36512 0.8378 0.24728 0.0
H1411 H 0.39722 0.83587 0.22569 0.0
H1412 H 0.39533 0.80816 0.25111 0.0
H1413 H 0.44427 0.95793 0.27769 0.0
H1414 H 0.43445 0.94983 0.2458 0.0
H1415 H 0.40358 0.95486 0.26811 0.0
H1416 H 0.3912 0.91393 0.17256 0.0
H1417 H 0.31257 0.92138 0.22286 0.0
H1418 H 0.44031 0.87061 0.20901 0.0
H1419 H 0.45171 0.90979 0.21748 0.0
H1420 H 0.44234 0.90108 0.18564 0.0
H1421 H 0.3433 0.88147 0.27171 0.0
H1422 H 0.3182 0.91508 0.26581 0.0
H1423 H 0.35736 0.9204 0.27832 0.0
C1424 C 0.90615 0.69292 0.7717 0.0
C1425 C 0.91483 0.6783 0.794 0.0
C1426 C 0.89263 0.67546 0.75239 0.0
C1427 C 0.88784 0.64254 0.7554 0.0
C1428 C 0.89794 0.62735 0.77738 0.0
C1429 C 0.91127 0.64543 0.79646 0.0
C1430 C 0.88224 0.6925 0.72917 0.0
C1431 C 0.89353 0.59224 0.78114 0.0
C1432 C 0.82021 0.60914 0.71768 0.0
C1433 C 0.83614 0.59703 0.69695 0.0
C1434 C 0.8369 0.623 0.73728 0.0
C1435 C 0.87032 0.62463 0.73616 0.0
C1436 C 0.88663 0.61111 0.71584 0.0
C1437 C 0.86933 0.59753 0.69644 0.0
C1438 C 0.81867 0.63712 0.75868 0.0
C1439 C 0.92225 0.61209 0.71411 0.0
H1440 H 0.90888 0.71827 0.7696 0.0
H1441 H 0.9181 0.63389 0.81359 0.0
H1442 H 0.89247 0.68092 0.71255 0.0
H1443 H 0.85613 0.69122 0.7275 0.0
H1444 H 0.88935 0.71779 0.72913 0.0
H1445 H 0.90554 0.58355 0.79813 0.0
H1446 H 0.86794 0.58681 0.78271 0.0
H1447 H 0.9028 0.57897 0.76496 0.0
H1448 H 0.7946 0.60879 0.71826 0.0
H1449 H 0.88187 0.58799 0.68056 0.0
H1450 H 0.82211 0.66313 0.75895 0.0
H1451 H 0.82766 0.62769 0.77652 0.0
H1452 H 0.79293 0.63215 0.75752 0.0
H1453 H 0.93015 0.63689 0.7115 0.0
H1454 H 0.93144 0.5977 0.69845 0.0
H1455 H 0.93299 0.60335 0.73157 0.0
C1456 C 0.41775 0.82619 0.72181 0.0
C1457 C 0.41729 0.83689 0.69721 0.0
C1458 C 0.40737 0.84568 0.74131 0.0
C1459 C 0.39581 0.87644 0.73606 0.0
C1460 C 0.39543 0.88741 0.71127 0.0
C1461 C 0.40636 0.86763 0.69221 0.0
C1462 C 0.40856 0.83328 0.76754 0.0
C1463 C 0.38289 0.91984 0.70482 0.0
C1464 C 0.33974 0.91207 0.78364 0.0
C1465 C 0.35965 0.93277 0.79657 0.0
C1466 C 0.35103 0.89421 0.76357 0.0
C1467 C 0.38316 0.89674 0.7564 0.0
C1468 C 0.40322 0.91816 0.76899 0.0
C1469 C 0.39116 0.93612 0.78881 0.0
C1470 C 0.32868 0.8721 0.75038 0.0
C1471 C 0.43769 0.92132 0.76208 0.0
H1472 H 0.42631 0.80258 0.72587 0.0
H1473 H 0.40579 0.87613 0.67325 0.0
H1474 H 0.42223 0.84972 0.7794 0.0
H1475 H 0.38429 0.83195 0.77533 0.0
H1476 H 0.4195 0.80942 0.76866 0.0
H1477 H 0.38476 0.92507 0.68469 0.0
H1478 H 0.35771 0.92169 0.71045 0.0
H1479 H 0.39606 0.93823 0.71516 0.0
H1480 H 0.31532 0.90949 0.78945 0.0
H1481 H 0.40677 0.9518 0.79887 0.0
H1482 H 0.33675 0.84731 0.75274 0.0
H1483 H 0.32868 0.87726 0.73021 0.0
H1484 H 0.30407 0.87402 0.75746 0.0
H1485 H 0.44987 0.89836 0.76497 0.0
H1486 H 0.44991 0.93969 0.77319 0.0
H1487 H 0.44009 0.92739 0.74216 0.0
C1488 C 0.11018 0.32026 0.79143 0.0
C1489 C 0.09815 0.33569 0.81242 0.0
C1490 C 0.12498 0.3373 0.77231 0.0
C1491 C 0.12772 0.37059 0.77417 0.0
C1492 C 0.1144 0.38647 0.79478 0.0
C1493 C 0.0998 0.36883 0.81367 0.0
C1494 C 0.13877 0.31952 0.75056 0.0
C1495 C 0.1166 0.42195 0.79735 0.0
C1496 C 0.19722 0.40633 0.73944 0.0
C1497 C 0.18292 0.4168 0.7175 0.0
C1498 C 0.17932 0.39214 0.75835 0.0
C1499 C 0.14629 0.3884 0.7553 0.0
C1500 C 0.13149 0.4001 0.73365 0.0
C1501 C 0.14998 0.41414 0.71499 0.0
C1502 C 0.19597 0.38009 0.78123 0.0
C1503 C 0.09631 0.39677 0.72979 0.0
H1504 H 0.10897 0.29471 0.79025 0.0
H1505 H 0.09041 0.38101 0.82975 0.0
H1506 H 0.12984 0.32955 0.7329 0.0
H1507 H 0.16487 0.32214 0.75044 0.0
H1508 H 0.13298 0.2939 0.75114 0.0
H1509 H 0.10253 0.43093 0.81327 0.0
H1510 H 0.14165 0.42887 0.80004 0.0
H1511 H 0.10826 0.43374 0.78019 0.0
H1512 H 0.22261 0.40833 0.74158 0.0
H1513 H 0.13866 0.42228 0.69815 0.0
H1514 H 0.19385 0.35396 0.78223 0.0
H1515 H 0.18466 0.38989 0.79813 0.0
H1516 H 0.22146 0.38639 0.78138 0.0
H1517 H 0.09018 0.37139 0.72785 0.0
H1518 H 0.08807 0.40953 0.71299 0.0
H1519 H 0.0832 0.40592 0.74611 0.0
C1520 C 0.60815 0.14404 0.70255 0.0
C1521 C 0.57558 0.15018 0.70102 0.0
C1522 C 0.62104 0.12794 0.72289 0.0
C1523 C 0.60099 0.11792 0.74242 0.0
C1524 C 0.56803 0.1236 0.74088 0.0
C1525 C 0.55567 0.13951 0.72011 0.0
C1526 C 0.65628 0.12215 0.72368 0.0
C1527 C 0.54593 0.11357 0.76145 0.0
C1528 C 0.63444 0.05729 0.78774 0.0
C1529 C 0.64584 0.07685 0.80667 0.0
C1530 C 0.61923 0.0702 0.76686 0.0
C1531 C 0.615 0.10339 0.76507 0.0
C1532 C 0.62577 0.12311 0.78444 0.0
C1533 C 0.64114 0.10965 0.80488 0.0
C1534 C 0.60834 0.04844 0.74645 0.0
C1535 C 0.62151 0.15858 0.78341 0.0
H1536 H 0.62373 0.1518 0.68777 0.0
H1537 H 0.53049 0.14407 0.71905 0.0
H1538 H 0.66679 0.13526 0.73942 0.0
H1539 H 0.66116 0.09666 0.72674 0.0
H1540 H 0.66833 0.12973 0.70634 0.0
H1541 H 0.52077 0.11834 0.75692 0.0
H1542 H 0.54877 0.08795 0.76532 0.0
H1543 H 0.55197 0.12642 0.77871 0.0
H1544 H 0.6379 0.03194 0.789 0.0
H1545 H 0.64944 0.12498 0.81955 0.0
H1546 H 0.62139 0.05392 0.72911 0.0
H1547 H 0.58286 0.05227 0.74267 0.0
H1548 H 0.61211 0.02312 0.75111 0.0
H1549 H 0.63497 0.16841 0.76749 0.0
H1550 H 0.6297 0.17041 0.80059 0.0
H1551 H 0.59624 0.16453 0.78048 0.0
C1552 C 0.02801 0.57532 0.1004 0.0
C1553 C 1.00793 0.59107 0.1171 0.0
C1554 C 0.03136 0.54222 0.10093 0.0
C1555 C 0.01418 0.52422 0.11855 0.0
C1556 C 0.99385 0.5399 0.13546 0.0
C1557 C 0.99103 0.57304 0.13456 0.0
C1558 C 0.05331 0.52648 0.08259 0.0
C1559 C 0.97517 0.52167 0.1546 0.0
C1560 C 1.00178 0.43615 0.10651 0.0
C1561 C 0.02516 0.42237 0.12144 0.0
C1562 C 0.99792 0.46921 0.10537 0.0
C1563 C 0.01788 0.48906 0.11955 0.0
C1564 C 0.04147 0.47529 0.1347 0.0
C1565 C 0.04479 0.44223 0.13547 0.0
C1566 C 0.97248 0.4829 0.08898 0.0
C1567 C 0.06316 0.49549 0.15022 0.0
H1568 H 0.04085 0.58881 0.0866 0.0
H1569 H 0.9758 0.58486 0.14778 0.0
H1570 H 0.0719 0.5131 0.0926 0.0
H1571 H 0.03999 0.50924 0.07121 0.0
H1572 H 0.06494 0.54378 0.07001 0.0
H1573 H 0.96001 0.5373 0.16615 0.0
H1574 H 0.95992 0.50394 0.14536 0.0
H1575 H 0.9915 0.50854 0.16696 0.0
H1576 H 0.98665 0.42107 0.09551 0.0
H1577 H 0.06247 0.43192 0.14751 0.0
H1578 H 0.98321 0.49889 0.07498 0.0
H1579 H 0.95586 0.49729 0.10024 0.0
H1580 H 0.95883 0.46431 0.0792 0.0
H1581 H 0.07657 0.51198 0.13814 0.0
H1582 H 0.08026 0.48113 0.16107 0.0
H1583 H 0.04905 0.51007 0.16328 0.0
C1584 C 0.45113 0.98389 0.10671 0.0
C1585 C 0.43009 1.00517 0.11785 0.0
C1586 C 0.48396 0.98746 0.10926 0.0
C1587 C 0.496 0.01234 0.12403 0.0
C1588 C 0.47475 0.03381 0.13548 0.0
C1589 C 0.44201 0.03024 0.13191 0.0
C1590 C 0.50573 0.96463 0.09612 0.0
C1591 C 0.48656 0.06008 0.15193 0.0
C1592 C 0.57967 1.00073 0.14841 0.0
C1593 C 0.5971 0.02061 0.13276 0.0
C1594 C 0.54661 0.9985 0.14626 0.0
C1595 C 0.53083 0.01578 0.12745 0.0
C1596 C 0.5485 0.03567 0.11144 0.0
C1597 C 0.58136 0.0382 0.11455 0.0
C1598 C 0.52858 0.97771 0.16414 0.0
C1599 C 0.53282 0.05373 0.09067 0.0
H1600 H 0.44175 0.96463 0.09574 0.0
H1601 H 0.42559 0.04641 0.14074 0.0
H1602 H 0.52264 0.97783 0.08423 0.0
H1603 H 0.51982 0.95118 0.10986 0.0
H1604 H 0.49262 0.94754 0.08439 0.0
H1605 H 0.46695 0.0744 0.15982 0.0
H1606 H 0.50059 0.04998 0.16739 0.0
H1607 H 0.50246 0.07596 0.1413 0.0
H1608 H 0.59195 0.98735 0.16257 0.0
H1609 H 0.59501 0.05329 0.10229 0.0
H1610 H 0.51696 0.95818 0.15396 0.0
H1611 H 0.50964 0.9916 0.17337 0.0
H1612 H 0.54411 0.96733 0.1786 0.0
H1613 H 0.52072 0.03699 0.07804 0.0
H1614 H 0.54997 0.06794 0.07971 0.0
H1615 H 0.5145 0.06984 0.09825 0.0
C1616 C 0.4855 0.08965 0.39284 0.0
C1617 C 0.50899 0.10335 0.3778 0.0
C1618 C 0.48083 0.05674 0.39345 0.0
C1619 C 0.50025 0.03681 0.37883 0.0
C1620 C 0.52372 0.0504 0.36337 0.0
C1621 C 0.52769 0.08342 0.36296 0.0
C1622 C 0.45541 0.04324 0.41008 0.0
C1623 C 0.54497 0.03001 0.34752 0.0
C1624 C 0.51024 0.9512 0.39946 0.0
C1625 C 0.48999 0.93507 0.38325 0.0
C1626 C 0.51384 0.98421 0.39815 0.0
C1627 C 0.49664 1.00171 0.3803 0.0
C1628 C 0.47601 0.98566 0.36396 0.0
C1629 C 0.473 0.9526 0.36559 0.0
C1630 C 0.53616 1.00035 0.41588 0.0
C1631 C 0.45718 1.0034 0.34469 0.0
H1632 H 0.47111 0.10453 0.40463 0.0
H1633 H 0.54552 0.09359 0.35093 0.0
H1634 H 0.43915 0.02817 0.39916 0.0
H1635 H 0.4663 0.02799 0.42446 0.0
H1636 H 0.44135 0.06197 0.41943 0.0
H1637 H 0.56161 0.04424 0.33609 0.0
H1638 H 0.5589 0.01384 0.35948 0.0
H1639 H 0.53056 0.01506 0.33502 0.0
H1640 H 0.52317 0.93805 0.41335 0.0
H1641 H 0.4577 0.94044 0.35269 0.0
H1642 H 0.52305 0.01786 0.42725 0.0
H1643 H 0.55451 0.0135 0.40536 0.0
H1644 H 0.54807 0.98335 0.4285 0.0
H1645 H 0.44173 0.02113 0.35383 0.0
H1646 H 0.44221 0.98744 0.33336 0.0
H1647 H 0.47337 0.01649 0.33214 0.0
C1648 C 0.94533 0.55025 0.3773 0.0
C1649 C 0.92493 0.5307 0.39107 0.0
C1650 C 0.97834 0.54647 0.37837 0.0
C1651 C 0.99148 0.52245 0.39351 0.0
C1652 C 0.9711 0.50274 0.40755 0.0
C1653 C 0.93816 0.50712 0.40619 0.0
C1654 C 0.99915 0.568 0.36307 0.0
C1655 C 0.98409 0.47683 0.4239 0.0
C1656 C 0.0745 0.49275 0.37845 0.0
C1657 C 0.093 0.50842 0.3962 0.0
C1658 C 0.04155 0.49704 0.37741 0.0
C1659 C 0.02652 0.5177 0.3944 0.0
C1660 C 0.04499 0.5338 0.41223 0.0
C1661 C 0.0779 0.52892 0.41295 0.0
C1662 C 0.02279 0.47942 0.35808 0.0
C1663 C 0.02995 0.5561 0.43064 0.0
H1664 H 0.93552 0.56815 0.36519 0.0
H1665 H 0.92273 0.49212 0.4171 0.0
H1666 H 0.01616 0.58047 0.37523 0.0
H1667 H 0.01318 0.55382 0.34969 0.0
H1668 H 0.98531 0.5859 0.3526 0.0
H1669 H 0.96514 0.46365 0.43378 0.0
H1670 H 0.99796 0.45987 0.41258 0.0
H1671 H 1.0004 0.48702 0.43783 0.0
H1672 H 0.08578 0.47728 0.36513 0.0
H1673 H 0.09171 0.54088 0.42693 0.0
H1674 H 0.01021 0.49644 0.34594 0.0
H1675 H 1.00458 0.4645 0.3672 0.0
H1676 H 0.03796 0.46404 0.34633 0.0
H1677 H 0.01707 0.57513 0.4207 0.0
H1678 H 0.04761 0.56715 0.44312 0.0
H1679 H 0.01238 0.5432 0.44212 0.0
C1680 C 1.00988 0.57897 0.90352 0.0
C1681 C 0.98925 0.59316 0.88639 0.0
C1682 C 0.01406 0.54596 0.90439 0.0
C1683 C 0.99696 0.52634 0.88794 0.0
C1684 C 0.9761 0.54037 0.87063 0.0
C1685 C 0.97265 0.57348 0.86996 0.0
C1686 C 0.03674 0.53205 0.92303 0.0
C1687 C 0.95727 0.52037 0.85283 0.0
C1688 C 0.0279 0.44294 0.87578 0.0
C1689 C 1.00939 0.42451 0.89197 0.0
C1690 C 0.02406 0.47595 0.87422 0.0
C1691 C 1.00085 0.49114 0.88897 0.0
C1692 C 0.98168 0.47273 0.90501 0.0
C1693 C 0.98627 0.43979 0.90641 0.0
C1694 C 0.04512 0.49462 0.85694 0.0
C1695 C 0.95647 0.4879 0.92091 0.0
H1696 H 0.0226 0.59356 0.91656 0.0
H1697 H 0.95704 0.58388 0.85635 0.0
H1698 H 0.02387 0.51604 0.93585 0.0
H1699 H 0.05493 0.51765 0.91337 0.0
H1700 H 0.04884 0.55051 0.93413 0.0
H1701 H 0.94185 0.53484 0.84061 0.0
H1702 H 0.97347 0.50622 0.84105 0.0
H1703 H 0.94225 0.50347 0.8633 0.0
H1704 H 0.04543 0.43164 0.86414 0.0
H1705 H 0.97198 0.42616 0.91918 0.0
H1706 H 0.05885 0.51226 0.86765 0.0
H1707 H 0.03055 0.5079 0.8434 0.0
H1708 H 0.06193 0.4793 0.8466 0.0
H1709 H 0.96747 0.50481 0.934 0.0
H1710 H 0.94275 0.47023 0.93174 0.0
H1711 H 0.93987 0.50156 0.90914 0.0
C1712 C 0.56693 0.03669 0.87494 0.0
C1713 C 0.58599 0.02042 0.89201 0.0
C1714 C 0.53398 0.03229 0.87439 0.0
C1715 C 0.5196 0.01092 0.89122 0.0
C1716 C 0.53861 0.99449 0.90855 0.0
C1717 C 0.57148 0.9995 0.90878 0.0
C1718 C 0.5146 0.05033 0.85563 0.0
C1719 C 0.52425 0.97141 0.92675 0.0
C1720 C 0.43114 0.01861 0.90378 0.0
C1721 C 0.41847 0.99523 0.88825 0.0
C1722 C 0.46393 0.02394 0.90497 0.0
C1723 C 0.48472 1.00535 0.8904 0.0
C1724 C 0.47217 0.98153 0.87487 0.0
C1725 C 0.4393 0.97685 0.87392 0.0
C1726 C 0.47633 0.04963 0.92172 0.0
C1727 C 0.49346 0.96113 0.85904 0.0
H1728 H 0.57778 0.05251 0.86162 0.0
H1729 H 0.58578 0.98711 0.92228 0.0
H1730 H 0.50245 0.03354 0.84308 0.0
H1731 H 0.49601 0.0643 0.86519 0.0
H1732 H 0.52924 0.06664 0.84424 0.0
H1733 H 0.54223 0.96063 0.93913 0.0
H1734 H 0.50627 0.98354 0.93834 0.0
H1735 H 0.51199 0.95223 0.9166 0.0
H1736 H 0.41541 0.03273 0.91513 0.0
H1737 H 0.42993 0.95913 0.8615 0.0
H1738 H 0.48969 0.0673 0.91065 0.0
H1739 H 0.49299 0.03942 0.93541 0.0
H1740 H 0.4571 0.06202 0.93188 0.0
H1741 H 0.50697 0.97615 0.84588 0.0
H1742 H 0.48005 0.94325 0.84829 0.0
H1743 H 0.51091 0.94868 0.87088 0.0
C1744 C 0.53276 0.93377 0.62827 0.0
C1745 C 0.50589 0.92047 0.61736 0.0
C1746 C 0.53707 0.96675 0.62879 0.0
C1747 C 0.51446 0.98677 0.61738 0.0
C1748 C 0.48765 0.97325 0.60581 0.0
C1749 C 0.48346 0.94031 0.6063 0.0
C1750 C 0.56543 0.98021 0.642 0.0
C1751 C 0.46342 0.99359 0.59283 0.0
C1752 C 0.50566 0.0729 0.63655 0.0
C1753 C 0.52326 0.08846 0.61823 0.0
C1754 C 0.50343 0.03976 0.63693 0.0
C1755 C 0.51832 0.02185 0.61802 0.0
C1756 C 0.53609 0.03761 0.5994 0.0
C1757 C 0.53879 0.07077 0.6 0.0
C1758 C 0.48511 0.02393 0.65755 0.0
C1759 C 0.55157 0.01955 0.57854 0.0
H1760 H 0.54994 0.91831 0.63694 0.0
H1761 H 0.46288 0.92988 0.59762 0.0
H1762 H 0.57987 0.99452 0.62898 0.0
H1763 H 0.5575 0.99623 0.65706 0.0
H1764 H 0.58065 0.96147 0.65013 0.0
H1765 H 0.44493 0.97929 0.58352 0.0
H1766 H 0.45176 1.00951 0.60638 0.0
H1767 H 0.47518 1.00877 0.57877 0.0
H1768 H 0.49403 0.08678 0.65077 0.0
H1769 H 0.55229 0.08305 0.58586 0.0
H1770 H 0.50011 1.00593 0.66682 0.0
H1771 H 0.46431 0.01144 0.64983 0.0
H1772 H 0.47671 0.0411 0.67168 0.0
H1773 H 0.56849 1.00198 0.58609 0.0
H1774 H 0.5644 0.03533 0.56547 0.0
H1775 H 0.53338 1.00624 0.56808 0.0
C1776 C 0.94502 0.49128 0.60368 0.0
C1777 C 0.92844 0.51322 0.61834 0.0
C1778 C 0.97799 0.48757 0.60577 0.0
C1779 C 0.99508 0.50641 0.62279 0.0
C1780 C 0.97855 0.5284 0.63778 0.0
C1781 C 0.94555 0.53141 0.63548 0.0
C1782 C 0.99461 0.46367 0.58955 0.0
C1783 C 0.99578 0.54904 0.65612 0.0
C1784 C 0.07725 0.47942 0.64301 0.0
C1785 C 0.09716 0.49746 0.62759 0.0
C1786 C 0.04412 0.48203 0.64163 0.0
C1787 C 0.03029 0.50346 0.62461 0.0
C1788 C 0.05015 0.52202 0.60921 0.0
C1789 C 0.0832 0.5187 0.6108 0.0
C1790 C 0.02388 0.46169 0.65835 0.0
C1791 C 0.03645 0.54532 0.59091 0.0
H1792 H 0.93236 0.47729 0.5902 0.0
H1793 H 0.93319 0.54801 0.64728 0.0
H1794 H 0.0118 0.47585 0.57725 0.0
H1795 H 1.00817 0.44681 0.60118 0.0
H1796 H 0.97787 0.45008 0.57786 0.0
H1797 H 0.9795 0.56482 0.66656 0.0
H1798 H 1.00887 0.53412 0.66956 0.0
H1799 H 0.01345 0.56386 0.64628 0.0
H1800 H 0.08749 0.46329 0.65635 0.0
H1801 H 0.09802 0.53252 0.59853 0.0
H1802 H 1.00798 0.44672 0.64701 0.0
H1803 H 1.00866 0.47685 0.67017 0.0
H1804 H 0.03821 0.44609 0.67051 0.0
H1805 H 0.02145 0.53271 0.57731 0.0
H1806 H 0.05505 0.55854 0.58067 0.0
H1807 H 0.02109 0.56255 0.60071 0.0
loop_
_geom_bond_atom_site_label_1
_geom_bond_atom_site_label_2
_geom_bond_distance
_geom_bond_site_symmetry_2
_ccdc_geom_bond_type
Co0 N4 2.148 . S
Co0 N10 2.128 . S
Co0 N20 2.194 . S
Co0 O25 2.351 . S
Co0 O26 2.155 . S
Co0 O27 2.096 . S
C1 N4 1.301 . S
C1 N5 1.328 . S
C1 H6 0.930 . S
C2 C3 1.333 . S
C2 N4 1.317 . S
C2 H7 0.930 . S
C3 C2 1.333 . S
C3 N5 1.350 . S
C3 H29 0.931 . S
N4 Co0 2.148 . S
N4 C1 1.301 . S
N4 C2 1.317 . S
N5 C1 1.328 . S
N5 C3 1.350 . S
H6 C1 0.930 . S
H7 C2 0.930 . S
C8 O9 1.224 . S
C8 O27 1.247 . S
O9 C8 1.224 . S
N10 Co0 2.128 . S
N10 C11 1.355 . S
N10 C13 1.311 . S
C11 N10 1.355 . S
C11 C12 1.363 . S
C11 H23 0.929 . S
C12 C11 1.363 . S
C12 N14 1.375 . S
C12 H30 0.931 1_455 S
C13 N10 1.311 . S
C13 N14 1.347 . S
C13 H24 0.929 . S
N14 C12 1.375 . S
N14 C13 1.347 . S
C15 C18 1.365 1_455 S
C15 N20 1.328 . S
C15 H21 0.929 . S
C16 C17 1.362 1_455 S
C16 C19 1.378 . S
C16 H31 0.929 1_455 S
C17 C16 1.362 1_655 S
C17 C18 1.366 . S
C18 C15 1.365 1_655 S
C18 C17 1.366 . S
C18 H32 0.930 . S
C19 C16 1.378 . S
C19 N20 1.315 . S
C19 H22 0.930 . S
N20 Co0 2.194 . S
N20 C15 1.328 . S
N20 C19 1.315 . S
H21 C15 0.929 . S
H22 C19 0.930 . S
H23 C11 0.929 . S
H24 C13 0.929 . S
O25 Co0 2.351 . S
O25 C28 1.244 . S
O26 Co0 2.155 . S
O26 C28 1.240 . S
O27 Co0 2.096 . S
O27 C8 1.247 . S
C28 O25 1.244 . S
C28 O26 1.240 . S
H29 C3 0.931 . S
H30 C12 0.931 1_655 S
H31 C16 0.929 1_655 S
H32 C18 0.930 . S
Co33 N37 2.148 . S
Co33 N43 2.128 . S
Co33 N53 2.194 . S
Co33 O58 2.351 . S
Co33 O59 2.155 . S
Co33 O60 2.096 . S
C34 N37 1.301 . S
C34 N38 1.328 . S
C34 H39 0.930 . S
C35 C36 1.333 . S
C35 N37 1.317 . S
C35 H40 0.930 . S
C36 C35 1.333 . S
C36 N38 1.350 . S
C36 H62 0.931 . S
N37 Co33 2.148 . S
N37 C34 1.301 . S
N37 C35 1.317 . S
N38 C34 1.328 . S
N38 C36 1.350 . S
H39 C34 0.930 . S
H40 C35 0.930 . S
C41 O42 1.224 . S
C41 O60 1.247 . S
O42 C41 1.224 . S
N43 Co33 2.128 . S
N43 C44 1.355 . S
N43 C46 1.311 . S
C44 N43 1.355 . S
C44 C45 1.363 . S
C44 H56 0.929 . S
C45 C44 1.363 . S
C45 N47 1.375 . S
C45 H63 0.931 1_545 S
C46 N43 1.311 . S
C46 N47 1.347 . S
C46 H57 0.929 . S
N47 C45 1.375 . S
N47 C46 1.347 . S
C48 C51 1.365 1_545 S
C48 N53 1.328 . S
C48 H54 0.929 . S
C49 C50 1.362 1_545 S
C49 C52 1.378 . S
C49 H64 0.929 1_545 S
C50 C49 1.362 1_565 S
C50 C51 1.366 . S
C51 C48 1.365 1_565 S
C51 C50 1.366 . S
C51 H65 0.930 . S
C52 C49 1.378 . S
C52 N53 1.315 . S
C52 H55 0.930 . S
N53 Co33 2.194 . S
N53 C48 1.328 . S
N53 C52 1.315 . S
H54 C48 0.929 . S
H55 C52 0.930 . S
H56 C44 0.929 . S
H57 C46 0.929 . S
O58 Co33 2.351 . S
O58 C61 1.244 . S
O59 Co33 2.155 . S
O59 C61 1.240 . S
O60 Co33 2.096 . S
O60 C41 1.247 . S
C61 O58 1.244 . S
C61 O59 1.240 . S
H62 C36 0.931 . S
H63 C45 0.931 1_565 S
H64 C49 0.929 1_565 S
H65 C51 0.930 . S
Co66 N70 2.148 . S
Co66 N76 2.128 . S
Co66 N86 2.194 . S
Co66 O91 2.351 . S
Co66 O92 2.155 . S
Co66 O93 2.096 . S
C67 N70 1.301 . S
C67 N71 1.328 . S
C67 H72 0.930 . S
C68 C69 1.333 . S
C68 N70 1.317 . S
C68 H73 0.930 . S
C69 C68 1.333 . S
C69 N71 1.350 . S
C69 H95 0.931 . S
N70 Co66 2.148 . S
N70 C67 1.301 . S
N70 C68 1.317 . S
N71 C67 1.328 . S
N71 C69 1.350 . S
H72 C67 0.930 . S
H73 C68 0.930 . S
C74 O75 1.224 . S
C74 O93 1.247 . S
O75 C74 1.224 . S
N76 Co66 2.128 . S
N76 C77 1.355 . S
N76 C79 1.311 . S
C77 N76 1.355 . S
C77 C78 1.363 . S
C77 H89 0.929 . S
C78 C77 1.363 . S
C78 N80 1.375 . S
C78 H96 0.931 1_655 S
C79 N76 1.311 . S
C79 N80 1.347 . S
C79 H90 0.929 . S
N80 C78 1.375 . S
N80 C79 1.347 . S
C81 C84 1.365 1_655 S
C81 N86 1.328 . S
C81 H87 0.929 . S
C82 C83 1.362 1_655 S
C82 C85 1.378 . S
C82 H97 0.929 1_655 S
C83 C82 1.362 1_455 S
C83 C84 1.366 . S
C84 C81 1.365 1_455 S
C84 C83 1.366 . S
C84 H98 0.930 . S
C85 C82 1.378 . S
C85 N86 1.315 . S
C85 H88 0.930 . S
N86 Co66 2.194 . S
N86 C81 1.328 . S
N86 C85 1.315 . S
H87 C81 0.929 . S
H88 C85 0.930 . S
H89 C77 0.929 . S
H90 C79 0.929 . S
O91 Co66 2.351 . S
O91 C94 1.244 . S
O92 Co66 2.155 . S
O92 C94 1.240 . S
O93 Co66 2.096 . S
O93 C74 1.247 . S
C94 O91 1.244 . S
C94 O92 1.240 . S
H95 C69 0.931 . S
H96 C78 0.931 1_455 S
H97 C82 0.929 1_455 S
H98 C84 0.930 . S
Co99 N103 2.148 . S
Co99 N109 2.128 . S
Co99 N119 2.194 . S
Co99 O124 2.351 . S
Co99 O125 2.155 . S
Co99 O126 2.096 . S
C100 N103 1.301 . S
C100 N104 1.328 . S
C100 H105 0.930 . S
C101 C102 1.333 . S
C101 N103 1.317 . S
C101 H106 0.930 . S
C102 C101 1.333 . S
C102 N104 1.350 . S
C102 H128 0.931 . S
N103 Co99 2.148 . S
N103 C100 1.301 . S
N103 C101 1.317 . S
N104 C100 1.328 . S
N104 C102 1.350 . S
H105 C100 0.930 . S
H106 C101 0.930 . S
C107 O108 1.224 . S
C107 O126 1.247 . S
O108 C107 1.224 . S
N109 Co99 2.128 . S
N109 C110 1.355 . S
N109 C112 1.311 . S
C110 N109 1.355 . S
C110 C111 1.363 . S
C110 H122 0.929 . S
C111 C110 1.363 . S
C111 N113 1.375 . S
C111 H129 0.931 1_565 S
C112 N109 1.311 . S
C112 N113 1.347 . S
C112 H123 0.929 . S
N113 C111 1.375 . S
N113 C112 1.347 . S
C114 C117 1.365 1_565 S
C114 N119 1.328 . S
C114 H120 0.929 . S
C115 C116 1.362 1_565 S
C115 C118 1.378 . S
C115 H130 0.929 1_565 S
C116 C115 1.362 1_545 S
C116 C117 1.366 . S
C117 C114 1.365 1_545 S
C117 C116 1.366 . S
C117 H131 0.930 . S
C118 C115 1.378 . S
C118 N119 1.315 . S
C118 H121 0.930 . S
N119 Co99 2.194 . S
N119 C114 1.328 . S
N119 C118 1.315 . S
H120 C114 0.929 . S
H121 C118 0.930 . S
H122 C110 0.929 . S
H123 C112 0.929 . S
O124 Co99 2.351 . S
O124 C127 1.244 . S
O125 Co99 2.155 . S
O125 C127 1.240 . S
O126 Co99 2.096 . S
O126 C107 1.247 . S
C127 O124 1.244 . S
C127 O125 1.240 . S
H128 C102 0.931 . S
H129 C111 0.931 1_545 S
H130 C115 0.929 1_545 S
H131 C117 0.930 . S
Co132 N136 2.148 . S
Co132 N142 2.128 . S
Co132 N152 2.194 . S
Co132 O157 2.351 . S
Co132 O158 2.155 . S
Co132 O159 2.096 . S
C133 N136 1.301 . S
C133 N137 1.328 . S
C133 H138 0.930 . S
C134 C135 1.333 . S
C134 N136 1.317 . S
C134 H139 0.930 . S
C135 C134 1.333 . S
C135 N137 1.350 . S
C135 H161 0.931 . S
N136 Co132 2.148 . S
N136 C133 1.301 . S
N136 C134 1.317 . S
N137 C133 1.328 . S
N137 C135 1.350 . S
H138 C133 0.930 . S
H139 C134 0.930 . S
C140 O141 1.224 . S
C140 O159 1.247 . S
O141 C140 1.224 . S
N142 Co132 2.128 . S
N142 C143 1.355 . S
N142 C145 1.311 . S
C143 N142 1.355 . S
C143 C144 1.363 . S
C143 H155 0.929 . S
C144 C143 1.363 . S
C144 N146 1.375 . S
C144 H162 0.931 . S
C145 N142 1.311 . S
C145 N146 1.347 . S
C145 H156 0.929 . S
N146 C144 1.375 . S
N146 C145 1.347 . S
C147 C150 1.365 . S
C147 N152 1.328 . S
C147 H153 0.929 . S
C148 C149 1.362 . S
C148 C151 1.378 . S
C148 H163 0.929 . S
C149 C148 1.362 . S
C149 C150 1.366 . S
C150 C147 1.365 . S
C150 C149 1.366 . S
C150 H164 0.930 . S
C151 C148 1.378 . S
C151 N152 1.315 . S
C151 H154 0.930 . S
N152 Co132 2.194 . S
N152 C147 1.328 . S
N152 C151 1.315 . S
H153 C147 0.929 . S
H154 C151 0.930 . S
H155 C143 0.929 . S
H156 C145 0.929 . S
O157 Co132 2.351 . S
O157 C160 1.244 . S
O158 Co132 2.155 . S
O158 C160 1.240 . S
O159 Co132 2.096 . S
O159 C140 1.247 . S
C160 O157 1.244 . S
C160 O158 1.240 . S
H161 C135 0.931 . S
H162 C144 0.931 . S
H163 C148 0.929 . S
H164 C150 0.930 . S
Co165 N169 2.148 . S
Co165 N175 2.128 . S
Co165 N185 2.194 . S
Co165 O190 2.351 . S
Co165 O191 2.155 . S
Co165 O192 2.096 . S
C166 N169 1.301 . S
C166 N170 1.328 . S
C166 H171 0.930 . S
C167 C168 1.333 . S
C167 N169 1.317 . S
C167 H172 0.930 . S
C168 C167 1.333 . S
C168 N170 1.350 . S
C168 H194 0.931 . S
N169 Co165 2.148 . S
N169 C166 1.301 . S
N169 C167 1.317 . S
N170 C166 1.328 . S
N170 C168 1.350 . S
H171 C166 0.930 . S
H172 C167 0.930 . S
C173 O174 1.224 . S
C173 O192 1.247 . S
O174 C173 1.224 . S
N175 Co165 2.128 . S
N175 C176 1.355 . S
N175 C178 1.311 . S
C176 N175 1.355 . S
C176 C177 1.363 . S
C176 H188 0.929 . S
C177 C176 1.363 . S
C177 N179 1.375 . S
C177 H195 0.931 . S
C178 N175 1.311 . S
C178 N179 1.347 . S
C178 H189 0.929 . S
N179 C177 1.375 . S
N179 C178 1.347 . S
C180 C183 1.365 . S
C180 N185 1.328 . S
C180 H186 0.929 . S
C181 C182 1.362 . S
C181 C184 1.378 . S
C181 H196 0.929 . S
C182 C181 1.362 . S
C182 C183 1.366 . S
C183 C180 1.365 . S
C183 C182 1.366 . S
C183 H197 0.930 . S
C184 C181 1.378 . S
C184 N185 1.315 . S
C184 H187 0.930 . S
N185 Co165 2.194 . S
N185 C180 1.328 . S
N185 C184 1.315 . S
H186 C180 0.929 . S
H187 C184 0.930 . S
H188 C176 0.929 . S
H189 C178 0.929 . S
O190 Co165 2.351 . S
O190 C193 1.244 . S
O191 Co165 2.155 . S
O191 C193 1.240 . S
O192 Co165 2.096 . S
O192 C173 1.247 . S
C193 O190 1.244 . S
C193 O191 1.240 . S
H194 C168 0.931 . S
H195 C177 0.931 . S
H196 C181 0.929 . S
H197 C183 0.930 . S
Co198 N202 2.148 . S
Co198 N208 2.128 . S
Co198 N218 2.194 . S
Co198 O223 2.351 . S
Co198 O224 2.155 . S
Co198 O225 2.096 . S
C199 N202 1.301 . S
C199 N203 1.328 . S
C199 H204 0.930 . S
C200 C201 1.333 . S
C200 N202 1.317 . S
C200 H205 0.930 . S
C201 C200 1.333 . S
C201 N203 1.350 . S
C201 H227 0.931 . S
N202 Co198 2.148 . S
N202 C199 1.301 . S
N202 C200 1.317 . S
N203 C199 1.328 . S
N203 C201 1.350 . S
H204 C199 0.930 . S
H205 C200 0.930 . S
C206 O207 1.224 . S
C206 O225 1.247 . S
O207 C206 1.224 . S
N208 Co198 2.128 . S
N208 C209 1.355 . S
N208 C211 1.311 . S
C209 N208 1.355 . S
C209 C210 1.363 . S
C209 H221 0.929 . S
C210 C209 1.363 . S
C210 N212 1.375 . S
C210 H228 0.931 . S
C211 N208 1.311 . S
C211 N212 1.347 . S
C211 H222 0.929 . S
N212 C210 1.375 . S
N212 C211 1.347 . S
C213 C216 1.365 . S
C213 N218 1.328 . S
C213 H219 0.929 . S
C214 C215 1.362 . S
C214 C217 1.378 . S
C214 H229 0.929 . S
C215 C214 1.362 . S
C215 C216 1.366 . S
C216 C213 1.365 . S
C216 C215 1.366 . S
C216 H230 0.930 . S
C217 C214 1.378 . S
C217 N218 1.315 . S
C217 H220 0.930 . S
N218 Co198 2.194 . S
N218 C213 1.328 . S
N218 C217 1.315 . S
H219 C213 0.929 . S
H220 C217 0.930 . S
H221 C209 0.929 . S
H222 C211 0.929 . S
O223 Co198 2.351 . S
O223 C226 1.244 . S
O224 Co198 2.155 . S
O224 C226 1.240 . S
O225 Co198 2.096 . S
O225 C206 1.247 . S
C226 O223 1.244 . S
C226 O224 1.240 . S
H227 C201 0.931 . S
H228 C210 0.931 . S
H229 C214 0.929 . S
H230 C216 0.930 . S
Co231 N235 2.148 . S
Co231 N241 2.128 . S
Co231 N251 2.194 . S
Co231 O256 2.351 . S
Co231 O257 2.155 . S
Co231 O258 2.096 . S
C232 N235 1.301 . S
C232 N236 1.328 . S
C232 H237 0.930 . S
C233 C234 1.333 . S
C233 N235 1.317 . S
C233 H238 0.930 . S
C234 C233 1.333 . S
C234 N236 1.350 . S
C234 H260 0.931 . S
N235 Co231 2.148 . S
N235 C232 1.301 . S
N235 C233 1.317 . S
N236 C232 1.328 . S
N236 C234 1.350 . S
H237 C232 0.930 . S
H238 C233 0.930 . S
C239 O240 1.224 . S
C239 O258 1.247 . S
O240 C239 1.224 . S
N241 Co231 2.128 . S
N241 C242 1.355 . S
N241 C244 1.311 . S
C242 N241 1.355 . S
C242 C243 1.363 . S
C242 H254 0.929 . S
C243 C242 1.363 . S
C243 N245 1.375 . S
C243 H261 0.931 . S
C244 N241 1.311 . S
C244 N245 1.347 . S
C244 H255 0.929 . S
N245 C243 1.375 . S
N245 C244 1.347 . S
C246 C249 1.365 . S
C246 N251 1.328 . S
C246 H252 0.929 . S
C247 C248 1.362 . S
C247 C250 1.378 . S
C247 H262 0.929 . S
C248 C247 1.362 . S
C248 C249 1.366 . S
C249 C246 1.365 . S
C249 C248 1.366 . S
C249 H263 0.930 . S
C250 C247 1.378 . S
C250 N251 1.315 . S
C250 H253 0.930 . S
N251 Co231 2.194 . S
N251 C246 1.328 . S
N251 C250 1.315 . S
H252 C246 0.929 . S
H253 C250 0.930 . S
H254 C242 0.929 . S
H255 C244 0.929 . S
O256 Co231 2.351 . S
O256 C259 1.244 . S
O257 Co231 2.155 . S
O257 C259 1.240 . S
O258 Co231 2.096 . S
O258 C239 1.247 . S
C259 O256 1.244 . S
C259 O257 1.240 . S
H260 C234 0.931 . S
H261 C243 0.931 . S
H262 C247 0.929 . S
H263 C249 0.930 . S
Co264 N268 2.148 . S
Co264 N274 2.128 . S
Co264 N284 2.194 . S
Co264 O289 2.351 . S
Co264 O290 2.155 . S
Co264 O291 2.096 . S
C265 N268 1.301 . S
C265 N269 1.328 . S
C265 H270 0.930 . S
C266 C267 1.333 . S
C266 N268 1.317 . S
C266 H271 0.930 . S
C267 C266 1.333 . S
C267 N269 1.350 . S
C267 H293 0.931 . S
N268 Co264 2.148 . S
N268 C265 1.301 . S
N268 C266 1.317 . S
N269 C265 1.328 . S
N269 C267 1.350 . S
H270 C265 0.930 . S
H271 C266 0.930 . S
C272 O273 1.224 . S
C272 O291 1.247 . S
O273 C272 1.224 . S
N274 Co264 2.128 . S
N274 C275 1.355 . S
N274 C277 1.311 . S
C275 N274 1.355 . S
C275 C276 1.363 . S
C275 H287 0.929 . S
C276 C275 1.363 . S
C276 N278 1.375 . S
C276 H294 0.931 1_655 S
C277 N274 1.311 . S
C277 N278 1.347 . S
C277 H288 0.929 . S
N278 C276 1.375 . S
N278 C277 1.347 . S
C279 C282 1.365 1_655 S
C279 N284 1.328 . S
C279 H285 0.929 . S
C280 C281 1.362 1_655 S
C280 C283 1.378 . S
C280 H295 0.929 1_655 S
C281 C280 1.362 1_455 S
C281 C282 1.366 . S
C282 C279 1.365 1_455 S
C282 C281 1.366 . S
C282 H296 0.930 . S
C283 C280 1.378 . S
C283 N284 1.315 . S
C283 H286 0.930 . S
N284 Co264 2.194 . S
N284 C279 1.328 . S
N284 C283 1.315 . S
H285 C279 0.929 . S
H286 C283 0.930 . S
H287 C275 0.929 . S
H288 C277 0.929 . S
O289 Co264 2.351 . S
O289 C292 1.244 . S
O290 Co264 2.155 . S
O290 C292 1.240 . S
O291 Co264 2.096 . S
O291 C272 1.247 . S
C292 O289 1.244 . S
C292 O290 1.240 . S
H293 C267 0.931 . S
H294 C276 0.931 1_455 S
H295 C280 0.929 1_455 S
H296 C282 0.930 . S
Co297 N301 2.148 . S
Co297 N307 2.128 . S
Co297 N317 2.194 . S
Co297 O322 2.351 . S
Co297 O323 2.155 . S
Co297 O324 2.096 . S
C298 N301 1.301 . S
C298 N302 1.328 . S
C298 H303 0.930 . S
C299 C300 1.333 . S
C299 N301 1.317 . S
C299 H304 0.930 . S
C300 C299 1.333 . S
C300 N302 1.350 . S
C300 H326 0.931 . S
N301 Co297 2.148 . S
N301 C298 1.301 . S
N301 C299 1.317 . S
N302 C298 1.328 . S
N302 C300 1.350 . S
H303 C298 0.930 . S
H304 C299 0.930 . S
C305 O306 1.224 . S
C305 O324 1.247 . S
O306 C305 1.224 . S
N307 Co297 2.128 . S
N307 C308 1.355 . S
N307 C310 1.311 . S
C308 N307 1.355 . S
C308 C309 1.363 . S
C308 H320 0.929 . S
C309 C308 1.363 . S
C309 N311 1.375 . S
C309 H327 0.931 1_565 S
C310 N307 1.311 . S
C310 N311 1.347 . S
C310 H321 0.929 . S
N311 C309 1.375 . S
N311 C310 1.347 . S
C312 C315 1.365 1_565 S
C312 N317 1.328 . S
C312 H318 0.929 . S
C313 C314 1.362 1_565 S
C313 C316 1.378 . S
C313 H328 0.929 1_565 S
C314 C313 1.362 1_545 S
C314 C315 1.366 . S
C315 C312 1.365 1_545 S
C315 C314 1.366 . S
C315 H329 0.930 . S
C316 C313 1.378 . S
C316 N317 1.315 . S
C316 H319 0.930 . S
N317 Co297 2.194 . S
N317 C312 1.328 . S
N317 C316 1.315 . S
H318 C312 0.929 . S
H319 C316 0.930 . S
H320 C308 0.929 . S
H321 C310 0.929 . S
O322 Co297 2.351 . S
O322 C325 1.244 . S
O323 Co297 2.155 . S
O323 C325 1.240 . S
O324 Co297 2.096 . S
O324 C305 1.247 . S
C325 O322 1.244 . S
C325 O323 1.240 . S
H326 C300 0.931 . S
H327 C309 0.931 1_545 S
H328 C313 0.929 1_545 S
H329 C315 0.930 . S
Co330 N334 2.148 . S
Co330 N340 2.128 . S
Co330 N350 2.194 . S
Co330 O355 2.351 . S
Co330 O356 2.155 . S
Co330 O357 2.096 . S
C331 N334 1.301 . S
C331 N335 1.328 . S
C331 H336 0.930 . S
C332 C333 1.333 . S
C332 N334 1.317 . S
C332 H337 0.930 . S
C333 C332 1.333 . S
C333 N335 1.350 . S
C333 H359 0.931 . S
N334 Co330 2.148 . S
N334 C331 1.301 . S
N334 C332 1.317 . S
N335 C331 1.328 . S
N335 C333 1.350 . S
H336 C331 0.930 . S
H337 C332 0.930 . S
C338 O339 1.224 . S
C338 O357 1.247 . S
O339 C338 1.224 . S
N340 Co330 2.128 . S
N340 C341 1.355 . S
N340 C343 1.311 . S
C341 N340 1.355 . S
C341 C342 1.363 . S
C341 H353 0.929 . S
C342 C341 1.363 . S
C342 N344 1.375 . S
C342 H360 0.931 1_455 S
C343 N340 1.311 . S
C343 N344 1.347 . S
C343 H354 0.929 . S
N344 C342 1.375 . S
N344 C343 1.347 . S
C345 C348 1.365 1_455 S
C345 N350 1.328 . S
C345 H351 0.929 . S
C346 C347 1.362 1_455 S
C346 C349 1.378 . S
C346 H361 0.929 1_455 S
C347 C346 1.362 1_655 S
C347 C348 1.366 . S
C348 C345 1.365 1_655 S
C348 C347 1.366 . S
C348 H362 0.930 . S
C349 C346 1.378 . S
C349 N350 1.315 . S
C349 H352 0.930 . S
N350 Co330 2.194 . S
N350 C345 1.328 . S
N350 C349 1.315 . S
H351 C345 0.929 . S
H352 C349 0.930 . S
H353 C341 0.929 . S
H354 C343 0.929 . S
O355 Co330 2.351 . S
O355 C358 1.244 . S
O356 Co330 2.155 . S
O356 C358 1.240 . S
O357 Co330 2.096 . S
O357 C338 1.247 . S
C358 O355 1.244 . S
C358 O356 1.240 . S
H359 C333 0.931 . S
H360 C342 0.931 1_655 S
H361 C346 0.929 1_655 S
H362 C348 0.930 . S
Co363 N367 2.148 . S
Co363 N373 2.128 . S
Co363 N383 2.194 . S
Co363 O388 2.351 . S
Co363 O389 2.155 . S
Co363 O390 2.096 . S
C364 N367 1.301 . S
C364 N368 1.328 . S
C364 H369 0.930 . S
C365 C366 1.333 . S
C365 N367 1.317 . S
C365 H370 0.930 . S
C366 C365 1.333 . S
C366 N368 1.350 . S
C366 H392 0.931 . S
N367 Co363 2.148 . S
N367 C364 1.301 . S
N367 C365 1.317 . S
N368 C364 1.328 . S
N368 C366 1.350 . S
H369 C364 0.930 . S
H370 C365 0.930 . S
C371 O372 1.224 . S
C371 O390 1.247 . S
O372 C371 1.224 . S
N373 Co363 2.128 . S
N373 C374 1.355 . S
N373 C376 1.311 . S
C374 N373 1.355 . S
C374 C375 1.363 . S
C374 H386 0.929 . S
C375 C374 1.363 . S
C375 N377 1.375 . S
C375 H393 0.931 1_545 S
C376 N373 1.311 . S
C376 N377 1.347 . S
C376 H387 0.929 . S
N377 C375 1.375 . S
N377 C376 1.347 . S
C378 C381 1.365 1_545 S
C378 N383 1.328 . S
C378 H384 0.929 . S
C379 C380 1.362 1_545 S
C379 C382 1.378 . S
C379 H394 0.929 1_545 S
C380 C379 1.362 1_565 S
C380 C381 1.366 . S
C381 C378 1.365 1_565 S
C381 C380 1.366 . S
C381 H395 0.930 . S
C382 C379 1.378 . S
C382 N383 1.315 . S
C382 H385 0.930 . S
N383 Co363 2.194 . S
N383 C378 1.328 . S
N383 C382 1.315 . S
H384 C378 0.929 . S
H385 C382 0.930 . S
H386 C374 0.929 . S
H387 C376 0.929 . S
O388 Co363 2.351 . S
O388 C391 1.244 . S
O389 Co363 2.155 . S
O389 C391 1.240 . S
O390 Co363 2.096 . S
O390 C371 1.247 . S
C391 O388 1.244 . S
C391 O389 1.240 . S
H392 C366 0.931 . S
H393 C375 0.931 1_565 S
H394 C379 0.929 1_565 S
H395 C381 0.930 . S
Co396 N400 2.148 . S
Co396 N406 2.128 . S
Co396 N416 2.194 . S
Co396 O421 2.351 . S
Co396 O422 2.155 . S
Co396 O423 2.096 . S
C397 N400 1.301 . S
C397 N401 1.328 . S
C397 H402 0.930 . S
C398 C399 1.333 . S
C398 N400 1.317 . S
C398 H403 0.930 . S
C399 C398 1.333 . S
C399 N401 1.350 . S
C399 H425 0.931 . S
N400 Co396 2.148 . S
N400 C397 1.301 . S
N400 C398 1.317 . S
N401 C397 1.328 . S
N401 C399 1.350 . S
H402 C397 0.930 . S
H403 C398 0.930 . S
C404 O405 1.224 . S
C404 O423 1.247 . S
O405 C404 1.224 . S
N406 Co396 2.128 . S
N406 C407 1.355 . S
N406 C409 1.311 . S
C407 N406 1.355 . S
C407 C408 1.363 . S
C407 H419 0.929 . S
C408 C407 1.363 . S
C408 N410 1.375 . S
C408 H426 0.931 . S
C409 N406 1.311 . S
C409 N410 1.347 . S
C409 H420 0.929 . S
N410 C408 1.375 . S
N410 C409 1.347 . S
C411 C414 1.365 . S
C411 N416 1.328 . S
C411 H417 0.929 . S
C412 C413 1.362 . S
C412 C415 1.378 . S
C412 H427 0.929 . S
C413 C412 1.362 . S
C413 C414 1.366 . S
C414 C411 1.365 . S
C414 C413 1.366 . S
C414 H428 0.930 . S
C415 C412 1.378 . S
C415 N416 1.315 . S
C415 H418 0.930 . S
N416 Co396 2.194 . S
N416 C411 1.328 . S
N416 C415 1.315 . S
H417 C411 0.929 . S
H418 C415 0.930 . S
H419 C407 0.929 . S
H420 C409 0.929 . S
O421 Co396 2.351 . S
O421 C424 1.244 . S
O422 Co396 2.155 . S
O422 C424 1.240 . S
O423 Co396 2.096 . S
O423 C404 1.247 . S
C424 O421 1.244 . S
C424 O422 1.240 . S
H425 C399 0.931 . S
H426 C408 0.931 . S
H427 C412 0.929 . S
H428 C414 0.930 . S
Co429 N433 2.148 . S
Co429 N439 2.128 . S
Co429 N449 2.194 . S
Co429 O454 2.351 . S
Co429 O455 2.155 . S
Co429 O456 2.096 . S
C430 N433 1.301 . S
C430 N434 1.328 . S
C430 H435 0.930 . S
C431 C432 1.333 . S
C431 N433 1.317 . S
C431 H436 0.930 . S
C432 C431 1.333 . S
C432 N434 1.350 . S
C432 H458 0.931 . S
N433 Co429 2.148 . S
N433 C430 1.301 . S
N433 C431 1.317 . S
N434 C430 1.328 . S
N434 C432 1.350 . S
H435 C430 0.930 . S
H436 C431 0.930 . S
C437 O438 1.224 . S
C437 O456 1.247 . S
O438 C437 1.224 . S
N439 Co429 2.128 . S
N439 C440 1.355 . S
N439 C442 1.311 . S
C440 N439 1.355 . S
C440 C441 1.363 . S
C440 H452 0.929 . S
C441 C440 1.363 . S
C441 N443 1.375 . S
C441 H459 0.931 . S
C442 N439 1.311 . S
C442 N443 1.347 . S
C442 H453 0.929 . S
N443 C441 1.375 . S
N443 C442 1.347 . S
C444 C447 1.365 . S
C444 N449 1.328 . S
C444 H450 0.929 . S
C445 C446 1.362 . S
C445 C448 1.378 . S
C445 H460 0.929 . S
C446 C445 1.362 . S
C446 C447 1.366 . S
C447 C444 1.365 . S
C447 C446 1.366 . S
C447 H461 0.930 . S
C448 C445 1.378 . S
C448 N449 1.315 . S
C448 H451 0.930 . S
N449 Co429 2.194 . S
N449 C444 1.328 . S
N449 C448 1.315 . S
H450 C444 0.929 . S
H451 C448 0.930 . S
H452 C440 0.929 . S
H453 C442 0.929 . S
O454 Co429 2.351 . S
O454 C457 1.244 . S
O455 Co429 2.155 . S
O455 C457 1.240 . S
O456 Co429 2.096 . S
O456 C437 1.247 . S
C457 O454 1.244 . S
C457 O455 1.240 . S
H458 C432 0.931 . S
H459 C441 0.931 . S
H460 C445 0.929 . S
H461 C447 0.930 . S
Co462 N466 2.148 . S
Co462 N472 2.128 . S
Co462 N482 2.194 . S
Co462 O487 2.351 . S
Co462 O488 2.155 . S
Co462 O489 2.096 . S
C463 N466 1.301 . S
C463 N467 1.328 . S
C463 H468 0.930 . S
C464 C465 1.333 . S
C464 N466 1.317 . S
C464 H469 0.930 . S
C465 C464 1.333 . S
C465 N467 1.350 . S
C465 H491 0.931 . S
N466 Co462 2.148 . S
N466 C463 1.301 . S
N466 C464 1.317 . S
N467 C463 1.328 . S
N467 C465 1.350 . S
H468 C463 0.930 . S
H469 C464 0.930 . S
C470 O471 1.224 . S
C470 O489 1.247 . S
O471 C470 1.224 . S
N472 Co462 2.128 . S
N472 C473 1.355 . S
N472 C475 1.311 . S
C473 N472 1.355 . S
C473 C474 1.363 . S
C473 H485 0.929 . S
C474 C473 1.363 . S
C474 N476 1.375 . S
C474 H492 0.931 . S
C475 N472 1.311 . S
C475 N476 1.347 . S
C475 H486 0.929 . S
N476 C474 1.375 . S
N476 C475 1.347 . S
C477 C480 1.365 . S
C477 N482 1.328 . S
C477 H483 0.929 . S
C478 C479 1.362 . S
C478 C481 1.378 . S
C478 H493 0.929 . S
C479 C478 1.362 . S
C479 C480 1.366 . S
C480 C477 1.365 . S
C480 C479 1.366 . S
C480 H494 0.930 . S
C481 C478 1.378 . S
C481 N482 1.315 . S
C481 H484 0.930 . S
N482 Co462 2.194 . S
N482 C477 1.328 . S
N482 C481 1.315 . S
H483 C477 0.929 . S
H484 C481 0.930 . S
H485 C473 0.929 . S
H486 C475 0.929 . S
O487 Co462 2.351 . S
O487 C490 1.244 . S
O488 Co462 2.155 . S
O488 C490 1.240 . S
O489 Co462 2.096 . S
O489 C470 1.247 . S
C490 O487 1.244 . S
C490 O488 1.240 . S
H491 C465 0.931 . S
H492 C474 0.931 . S
H493 C478 0.929 . S
H494 C480 0.930 . S
Co495 N499 2.148 . S
Co495 N505 2.128 . S
Co495 N515 2.194 . S
Co495 O520 2.351 . S
Co495 O521 2.155 . S
Co495 O522 2.096 . S
C496 N499 1.301 . S
C496 N500 1.328 . S
C496 H501 0.930 . S
C497 C498 1.333 . S
C497 N499 1.317 . S
C497 H502 0.930 . S
C498 C497 1.333 . S
C498 N500 1.350 . S
C498 H524 0.931 . S
N499 Co495 2.148 . S
N499 C496 1.301 . S
N499 C497 1.317 . S
N500 C496 1.328 . S
N500 C498 1.350 . S
H501 C496 0.930 . S
H502 C497 0.930 . S
C503 O504 1.224 . S
C503 O522 1.247 . S
O504 C503 1.224 . S
N505 Co495 2.128 . S
N505 C506 1.355 . S
N505 C508 1.311 . S
C506 N505 1.355 . S
C506 C507 1.363 . S
C506 H518 0.929 . S
C507 C506 1.363 . S
C507 N509 1.375 . S
C507 H525 0.931 . S
C508 N505 1.311 . S
C508 N509 1.347 . S
C508 H519 0.929 . S
N509 C507 1.375 . S
N509 C508 1.347 . S
C510 C513 1.365 . S
C510 N515 1.328 . S
C510 H516 0.929 . S
C511 C512 1.362 . S
C511 C514 1.378 . S
C511 H526 0.929 . S
C512 C511 1.362 . S
C512 C513 1.366 . S
C513 C510 1.365 . S
C513 C512 1.366 . S
C513 H527 0.930 . S
C514 C511 1.378 . S
C514 N515 1.315 . S
C514 H517 0.930 . S
N515 Co495 2.194 . S
N515 C510 1.328 . S
N515 C514 1.315 . S
H516 C510 0.929 . S
H517 C514 0.930 . S
H518 C506 0.929 . S
H519 C508 0.929 . S
O520 Co495 2.351 . S
O520 C523 1.244 . S
O521 Co495 2.155 . S
O521 C523 1.240 . S
O522 Co495 2.096 . S
O522 C503 1.247 . S
C523 O520 1.244 . S
C523 O521 1.240 . S
H524 C498 0.931 . S
H525 C507 0.931 . S
H526 C511 0.929 . S
H527 C513 0.930 . S
C528 C529 1.391 . S
C528 C530 1.394 . S
C528 H544 0.931 . S
C529 C528 1.391 . S
C529 C533 1.376 . S
C530 C528 1.394 . S
C530 C531 1.369 . S
C530 C534 1.531 . S
C531 C530 1.369 . S
C531 C532 1.410 . S
C531 C539 1.503 1_556 S
C532 C531 1.410 . S
C532 C533 1.392 . S
C532 C535 1.511 . S
C533 C529 1.376 . S
C533 C532 1.392 . S
C533 H545 0.929 . S
C534 C530 1.531 . S
C534 H546 0.960 1_556 S
C534 H547 0.962 . S
C534 H548 0.960 . S
C535 C532 1.511 . S
C535 H549 0.961 . S
C535 H550 0.961 1_556 S
C535 H551 0.961 . S
C536 C537 1.370 . S
C536 C538 1.363 . S
C536 H552 0.931 . S
C537 C536 1.370 . S
C537 C541 1.408 . S
C538 C536 1.363 . S
C538 C539 1.370 . S
C538 C542 1.524 . S
C539 C531 1.503 1_554 S
C539 C538 1.370 . S
C539 C540 1.403 . S
C540 C539 1.403 . S
C540 C541 1.404 . S
C540 C543 1.539 . S
C541 C537 1.408 . S
C541 C540 1.404 . S
C541 H553 0.930 . S
C542 C538 1.524 . S
C542 H554 0.956 . S
C542 H555 0.961 1_554 S
C542 H556 0.961 . S
C543 C540 1.539 . S
C543 H557 0.958 . S
C543 H558 0.961 . S
C543 H559 0.971 . S
H544 C528 0.931 . S
H545 C533 0.929 . S
H546 C534 0.960 1_554 S
H547 C534 0.962 . S
H548 C534 0.960 . S
H549 C535 0.961 . S
H550 C535 0.961 1_554 S
H551 C535 0.961 . S
H552 C536 0.931 . S
H553 C541 0.930 . S
H554 C542 0.956 . S
H555 C542 0.961 1_556 S
H556 C542 0.961 . S
H557 C543 0.958 . S
H558 C543 0.961 . S
H559 C543 0.971 . S
C560 C561 1.391 . S
C560 C562 1.394 . S
C560 H576 0.931 . S
C561 C560 1.391 . S
C561 C565 1.376 . S
C562 C560 1.394 . S
C562 C563 1.369 . S
C562 C566 1.531 . S
C563 C562 1.369 . S
C563 C564 1.410 . S
C563 C571 1.503 1_556 S
C564 C563 1.410 . S
C564 C565 1.392 . S
C564 C567 1.511 . S
C565 C561 1.376 . S
C565 C564 1.392 . S
C565 H577 0.929 . S
C566 C562 1.531 . S
C566 H578 0.960 1_556 S
C566 H579 0.962 . S
C566 H580 0.960 . S
C567 C564 1.511 . S
C567 H581 0.961 . S
C567 H582 0.961 1_556 S
C567 H583 0.961 . S
C568 C569 1.370 . S
C568 C570 1.363 . S
C568 H584 0.931 . S
C569 C568 1.370 . S
C569 C573 1.408 . S
C570 C568 1.363 . S
C570 C571 1.370 . S
C570 C574 1.524 . S
C571 C563 1.503 1_554 S
C571 C570 1.370 . S
C571 C572 1.403 . S
C572 C571 1.403 . S
C572 C573 1.404 . S
C572 C575 1.539 . S
C573 C569 1.408 . S
C573 C572 1.404 . S
C573 H585 0.930 . S
C574 C570 1.524 . S
C574 H586 0.956 . S
C574 H587 0.961 1_554 S
C574 H588 0.961 . S
C575 C572 1.539 . S
C575 H589 0.958 . S
C575 H590 0.961 . S
C575 H591 0.971 . S
H576 C560 0.931 . S
H577 C565 0.929 . S
H578 C566 0.960 1_554 S
H579 C566 0.962 . S
H580 C566 0.960 . S
H581 C567 0.961 . S
H582 C567 0.961 1_554 S
H583 C567 0.961 . S
H584 C568 0.931 . S
H585 C573 0.930 . S
H586 C574 0.956 . S
H587 C574 0.961 1_556 S
H588 C574 0.961 . S
H589 C575 0.958 . S
H590 C575 0.961 . S
H591 C575 0.971 . S
C592 C593 1.391 . S
C592 C594 1.394 . S
C592 H608 0.931 . S
C593 C592 1.391 . S
C593 C597 1.376 . S
C594 C592 1.394 . S
C594 C595 1.369 . S
C594 C598 1.531 . S
C595 C594 1.369 . S
C595 C596 1.410 . S
C595 C603 1.503 1_556 S
C596 C595 1.410 . S
C596 C597 1.392 . S
C596 C599 1.511 . S
C597 C593 1.376 . S
C597 C596 1.392 . S
C597 H609 0.929 . S
C598 C594 1.531 . S
C598 H610 0.960 1_556 S
C598 H611 0.962 . S
C598 H612 0.960 . S
C599 C596 1.511 . S
C599 H613 0.961 . S
C599 H614 0.961 1_556 S
C599 H615 0.961 . S
C600 C601 1.370 . S
C600 C602 1.363 . S
C600 H616 0.931 . S
C601 C600 1.370 . S
C601 C605 1.408 . S
C602 C600 1.363 . S
C602 C603 1.370 . S
C602 C606 1.524 . S
C603 C595 1.503 1_554 S
C603 C602 1.370 . S
C603 C604 1.403 . S
C604 C603 1.403 . S
C604 C605 1.404 . S
C604 C607 1.539 . S
C605 C601 1.408 . S
C605 C604 1.404 . S
C605 H617 0.930 . S
C606 C602 1.524 . S
C606 H618 0.956 . S
C606 H619 0.961 1_554 S
C606 H620 0.961 . S
C607 C604 1.539 . S
C607 H621 0.958 . S
C607 H622 0.961 . S
C607 H623 0.971 . S
H608 C592 0.931 . S
H609 C597 0.929 . S
H610 C598 0.960 1_554 S
H611 C598 0.962 . S
H612 C598 0.960 . S
H613 C599 0.961 . S
H614 C599 0.961 1_554 S
H615 C599 0.961 . S
H616 C600 0.931 . S
H617 C605 0.930 . S
H618 C606 0.956 . S
H619 C606 0.961 1_556 S
H620 C606 0.961 . S
H621 C607 0.958 . S
H622 C607 0.961 . S
H623 C607 0.971 . S
C624 C625 1.391 . S
C624 C626 1.394 . S
C624 H640 0.931 . S
C625 C624 1.391 . S
C625 C629 1.376 . S
C626 C624 1.394 . S
C626 C627 1.369 . S
C626 C630 1.531 . S
C627 C626 1.369 . S
C627 C628 1.410 . S
C627 C635 1.503 1_556 S
C628 C627 1.410 . S
C628 C629 1.392 . S
C628 C631 1.511 . S
C629 C625 1.376 . S
C629 C628 1.392 . S
C629 H641 0.929 . S
C630 C626 1.531 . S
C630 H642 0.960 1_556 S
C630 H643 0.962 . S
C630 H644 0.960 . S
C631 C628 1.511 . S
C631 H645 0.961 . S
C631 H646 0.961 1_556 S
C631 H647 0.961 . S
C632 C633 1.370 . S
C632 C634 1.363 . S
C632 H648 0.931 . S
C633 C632 1.370 . S
C633 C637 1.408 . S
C634 C632 1.363 . S
C634 C635 1.370 . S
C634 C638 1.524 . S
C635 C627 1.503 1_554 S
C635 C634 1.370 . S
C635 C636 1.403 . S
C636 C635 1.403 . S
C636 C637 1.404 . S
C636 C639 1.539 . S
C637 C633 1.408 . S
C637 C636 1.404 . S
C637 H649 0.930 . S
C638 C634 1.524 . S
C638 H650 0.956 . S
C638 H651 0.961 1_554 S
C638 H652 0.961 . S
C639 C636 1.539 . S
C639 H653 0.958 . S
C639 H654 0.961 . S
C639 H655 0.971 . S
H640 C624 0.931 . S
H641 C629 0.929 . S
H642 C630 0.960 1_554 S
H643 C630 0.962 . S
H644 C630 0.960 . S
H645 C631 0.961 . S
H646 C631 0.961 1_554 S
H647 C631 0.961 . S
H648 C632 0.931 . S
H649 C637 0.930 . S
H650 C638 0.956 . S
H651 C638 0.961 1_556 S
H652 C638 0.961 . S
H653 C639 0.958 . S
H654 C639 0.961 . S
H655 C639 0.971 . S
C656 C657 1.391 . S
C656 C658 1.394 . S
C656 H672 0.931 . S
C657 C656 1.391 . S
C657 C661 1.376 . S
C658 C656 1.394 . S
C658 C659 1.369 . S
C658 C662 1.531 . S
C659 C658 1.369 . S
C659 C660 1.410 . S
C659 C667 1.503 . S
C660 C659 1.410 . S
C660 C661 1.392 . S
C660 C663 1.511 . S
C661 C657 1.376 . S
C661 C660 1.392 . S
C661 H673 0.929 . S
C662 C658 1.531 . S
C662 H674 0.960 . S
C662 H675 0.962 . S
C662 H676 0.960 . S
C663 C660 1.511 . S
C663 H677 0.961 . S
C663 H678 0.961 . S
C663 H679 0.961 . S
C664 C665 1.370 . S
C664 C666 1.363 . S
C664 H680 0.931 . S
C665 C664 1.370 . S
C665 C669 1.408 . S
C666 C664 1.363 . S
C666 C667 1.370 . S
C666 C670 1.524 . S
C667 C659 1.503 . S
C667 C666 1.370 . S
C667 C668 1.403 . S
C668 C667 1.403 . S
C668 C669 1.404 . S
C668 C671 1.539 . S
C669 C665 1.408 . S
C669 C668 1.404 . S
C669 H681 0.930 . S
C670 C666 1.524 . S
C670 H682 0.956 . S
C670 H683 0.961 . S
C670 H684 0.961 . S
C671 C668 1.539 . S
C671 H685 0.958 . S
C671 H686 0.961 . S
C671 H687 0.960 . S
H672 C656 0.931 . S
H673 C661 0.929 . S
H674 C662 0.960 . S
H675 C662 0.962 . S
H676 C662 0.960 . S
H677 C663 0.961 . S
H678 C663 0.961 . S
H679 C663 0.961 . S
H680 C664 0.931 . S
H681 C669 0.930 . S
H682 C670 0.956 . S
H683 C670 0.961 . S
H684 C670 0.961 . S
H685 C671 0.958 . S
H686 C671 0.961 . S
H687 C671 0.960 . S
C688 C689 1.391 . S
C688 C690 1.394 . S
C688 H704 0.931 . S
C689 C688 1.391 . S
C689 C693 1.376 . S
C690 C688 1.394 . S
C690 C691 1.369 . S
C690 C694 1.531 . S
C691 C690 1.369 . S
C691 C692 1.410 . S
C691 C699 1.503 . S
C692 C691 1.410 . S
C692 C693 1.392 . S
C692 C695 1.511 . S
C693 C689 1.376 . S
C693 C692 1.392 . S
C693 H705 0.929 . S
C694 C690 1.531 . S
C694 H706 0.960 . S
C694 H707 0.962 . S
C694 H708 0.960 . S
C695 C692 1.511 . S
C695 H709 0.961 . S
C695 H710 0.961 . S
C695 H711 0.961 . S
C696 C697 1.370 . S
C696 C698 1.363 . S
C696 H712 0.931 . S
C697 C696 1.370 . S
C697 C701 1.408 . S
C698 C696 1.363 . S
C698 C699 1.370 . S
C698 C702 1.524 . S
C699 C691 1.503 . S
C699 C698 1.370 . S
C699 C700 1.403 . S
C700 C699 1.403 . S
C700 C701 1.404 . S
C700 C703 1.539 . S
C701 C697 1.408 . S
C701 C700 1.404 . S
C701 H713 0.930 . S
C702 C698 1.524 . S
C702 H714 0.956 . S
C702 H715 0.961 . S
C702 H716 0.961 . S
C703 C700 1.539 . S
C703 H717 0.958 . S
C703 H718 0.961 . S
C703 H719 0.960 . S
H704 C688 0.931 . S
H705 C693 0.929 . S
H706 C694 0.960 . S
H707 C694 0.962 . S
H708 C694 0.960 . S
H709 C695 0.961 . S
H710 C695 0.961 . S
H711 C695 0.961 . S
H712 C696 0.931 . S
H713 C701 0.930 . S
H714 C702 0.956 . S
H715 C702 0.961 . S
H716 C702 0.961 . S
H717 C703 0.958 . S
H718 C703 0.961 . S
H719 C703 0.960 . S
C720 C721 1.391 . S
C720 C722 1.394 . S
C720 H736 0.931 . S
C721 C720 1.391 . S
C721 C725 1.376 . S
C722 C720 1.394 . S
C722 C723 1.369 . S
C722 C726 1.531 . S
C723 C722 1.369 . S
C723 C724 1.410 . S
C723 C731 1.503 . S
C724 C723 1.410 . S
C724 C725 1.392 . S
C724 C727 1.511 . S
C725 C721 1.376 . S
C725 C724 1.392 . S
C725 H737 0.929 . S
C726 C722 1.531 . S
C726 H738 0.960 . S
C726 H739 0.962 . S
C726 H740 0.960 . S
C727 C724 1.511 . S
C727 H741 0.961 . S
C727 H742 0.961 . S
C727 H743 0.961 . S
C728 C729 1.370 . S
C728 C730 1.363 . S
C728 H744 0.931 . S
C729 C728 1.370 . S
C729 C733 1.408 . S
C730 C728 1.363 . S
C730 C731 1.370 . S
C730 C734 1.524 . S
C731 C723 1.503 . S
C731 C730 1.370 . S
C731 C732 1.403 . S
C732 C731 1.403 . S
C732 C733 1.404 . S
C732 C735 1.539 . S
C733 C729 1.408 . S
C733 C732 1.404 . S
C733 H745 0.930 . S
C734 C730 1.524 . S
C734 H746 0.956 . S
C734 H747 0.961 . S
C734 H748 0.961 . S
C735 C732 1.539 . S
C735 H749 0.958 . S
C735 H750 0.961 . S
C735 H751 0.960 . S
H736 C720 0.931 . S
H737 C725 0.929 . S
H738 C726 0.960 . S
H739 C726 0.962 . S
H740 C726 0.960 . S
H741 C727 0.961 . S
H742 C727 0.961 . S
H743 C727 0.961 . S
H744 C728 0.931 . S
H745 C733 0.930 . S
H746 C734 0.956 . S
H747 C734 0.961 . S
H748 C734 0.961 . S
H749 C735 0.958 . S
H750 C735 0.961 . S
H751 C735 0.960 . S
C752 C753 1.391 . S
C752 C754 1.394 . S
C752 H768 0.931 . S
C753 C752 1.391 . S
C753 C757 1.376 . S
C754 C752 1.394 . S
C754 C755 1.369 . S
C754 C758 1.531 . S
C755 C754 1.369 . S
C755 C756 1.410 . S
C755 C763 1.503 . S
C756 C755 1.410 . S
C756 C757 1.392 . S
C756 C759 1.511 . S
C757 C753 1.376 . S
C757 C756 1.392 . S
C757 H769 0.929 . S
C758 C754 1.531 . S
C758 H770 0.960 . S
C758 H771 0.962 . S
C758 H772 0.960 . S
C759 C756 1.511 . S
C759 H773 0.961 . S
C759 H774 0.961 . S
C759 H775 0.961 . S
C760 C761 1.370 . S
C760 C762 1.363 . S
C760 H776 0.931 . S
C761 C760 1.370 . S
C761 C765 1.408 . S
C762 C760 1.363 . S
C762 C763 1.370 . S
C762 C766 1.524 . S
C763 C755 1.503 . S
C763 C762 1.370 . S
C763 C764 1.403 . S
C764 C763 1.403 . S
C764 C765 1.404 . S
C764 C767 1.539 . S
C765 C761 1.408 . S
C765 C764 1.404 . S
C765 H777 0.930 . S
C766 C762 1.524 . S
C766 H778 0.956 . S
C766 H779 0.961 . S
C766 H780 0.961 . S
C767 C764 1.539 . S
C767 H781 0.958 . S
C767 H782 0.961 . S
C767 H783 0.960 . S
H768 C752 0.931 . S
H769 C757 0.929 . S
H770 C758 0.960 . S
H771 C758 0.962 . S
H772 C758 0.960 . S
H773 C759 0.961 . S
H774 C759 0.961 . S
H775 C759 0.961 . S
H776 C760 0.931 . S
H777 C765 0.930 . S
H778 C766 0.956 . S
H779 C766 0.961 . S
H780 C766 0.961 . S
H781 C767 0.958 . S
H782 C767 0.961 . S
H783 C767 0.960 . S
C784 C785 1.391 . S
C784 C786 1.394 . S
C784 H800 0.931 . S
C785 C784 1.391 . S
C785 C789 1.376 . S
C786 C784 1.394 . S
C786 C787 1.369 . S
C786 C790 1.531 . S
C787 C786 1.369 . S
C787 C788 1.410 . S
C787 C795 1.503 . S
C788 C787 1.410 . S
C788 C789 1.392 . S
C788 C791 1.511 . S
C789 C785 1.376 . S
C789 C788 1.392 . S
C789 H801 0.929 . S
C790 C786 1.531 . S
C790 H802 0.960 . S
C790 H803 0.962 . S
C790 H804 0.960 . S
C791 C788 1.511 . S
C791 H805 0.961 . S
C791 H806 0.961 . S
C791 H807 0.961 . S
C792 C793 1.370 . S
C792 C794 1.363 . S
C792 H808 0.931 . S
C793 C792 1.370 . S
C793 C797 1.408 . S
C794 C792 1.363 . S
C794 C795 1.370 . S
C794 C798 1.524 . S
C795 C787 1.503 . S
C795 C794 1.370 . S
C795 C796 1.403 . S
C796 C795 1.403 . S
C796 C797 1.404 . S
C796 C799 1.539 . S
C797 C793 1.408 . S
C797 C796 1.404 . S
C797 H809 0.930 . S
C798 C794 1.524 . S
C798 H810 0.956 . S
C798 H811 0.961 . S
C798 H812 0.961 . S
C799 C796 1.539 . S
C799 H813 0.958 . S
C799 H814 0.961 . S
C799 H815 0.960 . S
H800 C784 0.931 . S
H801 C789 0.929 . S
H802 C790 0.960 . S
H803 C790 0.962 . S
H804 C790 0.960 . S
H805 C791 0.961 . S
H806 C791 0.961 . S
H807 C791 0.961 . S
H808 C792 0.931 . S
H809 C797 0.930 . S
H810 C798 0.956 . S
H811 C798 0.961 . S
H812 C798 0.961 . S
H813 C799 0.958 . S
H814 C799 0.961 . S
H815 C799 0.960 . S
C816 C817 1.391 . S
C816 C818 1.394 . S
C816 H832 0.931 . S
C817 C816 1.391 . S
C817 C821 1.376 . S
C818 C816 1.394 . S
C818 C819 1.369 . S
C818 C822 1.531 . S
C819 C818 1.369 . S
C819 C820 1.410 . S
C819 C827 1.503 . S
C820 C819 1.410 . S
C820 C821 1.392 . S
C820 C823 1.511 . S
C821 C817 1.376 . S
C821 C820 1.392 . S
C821 H833 0.929 . S
C822 C818 1.531 . S
C822 H834 0.960 . S
C822 H835 0.962 . S
C822 H836 0.960 . S
C823 C820 1.511 . S
C823 H837 0.961 . S
C823 H838 0.961 . S
C823 H839 0.961 . S
C824 C825 1.370 . S
C824 C826 1.363 . S
C824 H840 0.931 . S
C825 C824 1.370 . S
C825 C829 1.408 . S
C826 C824 1.363 . S
C826 C827 1.370 . S
C826 C830 1.524 . S
C827 C819 1.503 . S
C827 C826 1.370 . S
C827 C828 1.403 . S
C828 C827 1.403 . S
C828 C829 1.404 . S
C828 C831 1.539 . S
C829 C825 1.408 . S
C829 C828 1.404 . S
C829 H841 0.930 . S
C830 C826 1.524 . S
C830 H842 0.956 . S
C830 H843 0.961 . S
C830 H844 0.961 . S
C831 C828 1.539 . S
C831 H845 0.958 . S
C831 H846 0.961 . S
C831 H847 0.960 . S
H832 C816 0.931 . S
H833 C821 0.929 . S
H834 C822 0.960 . S
H835 C822 0.962 . S
H836 C822 0.960 . S
H837 C823 0.961 . S
H838 C823 0.961 . S
H839 C823 0.961 . S
H840 C824 0.931 . S
H841 C829 0.930 . S
H842 C830 0.956 . S
H843 C830 0.961 . S
H844 C830 0.961 . S
H845 C831 0.958 . S
H846 C831 0.961 . S
H847 C831 0.960 . S
C848 C849 1.391 . S
C848 C850 1.394 . S
C848 H864 0.931 . S
C849 C848 1.391 . S
C849 C853 1.376 . S
C850 C848 1.394 . S
C850 C851 1.369 . S
C850 C854 1.531 . S
C851 C850 1.369 . S
C851 C852 1.410 . S
C851 C859 1.503 . S
C852 C851 1.410 . S
C852 C853 1.392 . S
C852 C855 1.511 . S
C853 C849 1.376 . S
C853 C852 1.392 . S
C853 H865 0.929 . S
C854 C850 1.531 . S
C854 H866 0.960 . S
C854 H867 0.962 . S
C854 H868 0.960 . S
C855 C852 1.511 . S
C855 H869 0.961 . S
C855 H870 0.961 . S
C855 H871 0.961 . S
C856 C857 1.370 . S
C856 C858 1.363 . S
C856 H872 0.931 . S
C857 C856 1.370 . S
C857 C861 1.408 . S
C858 C856 1.363 . S
C858 C859 1.370 . S
C858 C862 1.524 . S
C859 C851 1.503 . S
C859 C858 1.370 . S
C859 C860 1.403 . S
C860 C859 1.403 . S
C860 C861 1.404 . S
C860 C863 1.539 . S
C861 C857 1.408 . S
C861 C860 1.404 . S
C861 H873 0.930 . S
C862 C858 1.524 . S
C862 H874 0.956 . S
C862 H875 0.961 . S
C862 H876 0.961 . S
C863 C860 1.539 . S
C863 H877 0.958 . S
C863 H878 0.961 . S
C863 H879 0.960 . S
H864 C848 0.931 . S
H865 C853 0.929 . S
H866 C854 0.960 . S
H867 C854 0.962 . S
H868 C854 0.960 . S
H869 C855 0.961 . S
H870 C855 0.961 . S
H871 C855 0.961 . S
H872 C856 0.931 . S
H873 C861 0.930 . S
H874 C862 0.956 . S
H875 C862 0.961 . S
H876 C862 0.961 . S
H877 C863 0.958 . S
H878 C863 0.961 . S
H879 C863 0.960 . S
C880 C881 1.391 . S
C880 C882 1.394 . S
C880 H896 0.931 . S
C881 C880 1.391 . S
C881 C885 1.376 . S
C882 C880 1.394 . S
C882 C883 1.369 . S
C882 C886 1.531 . S
C883 C882 1.369 . S
C883 C884 1.410 . S
C883 C891 1.503 . S
C884 C883 1.410 . S
C884 C885 1.392 . S
C884 C887 1.511 . S
C885 C881 1.376 . S
C885 C884 1.392 . S
C885 H897 0.929 . S
C886 C882 1.531 . S
C886 H898 0.960 . S
C886 H899 0.962 . S
C886 H900 0.960 . S
C887 C884 1.511 . S
C887 H901 0.961 . S
C887 H902 0.961 . S
C887 H903 0.961 . S
C888 C889 1.370 . S
C888 C890 1.363 . S
C888 H904 0.931 . S
C889 C888 1.370 . S
C889 C893 1.408 . S
C890 C888 1.363 . S
C890 C891 1.370 . S
C890 C894 1.524 . S
C891 C883 1.503 . S
C891 C890 1.370 . S
C891 C892 1.403 . S
C892 C891 1.403 . S
C892 C893 1.404 . S
C892 C895 1.539 . S
C893 C889 1.408 . S
C893 C892 1.404 . S
C893 H905 0.930 . S
C894 C890 1.524 . S
C894 H906 0.956 . S
C894 H907 0.961 . S
C894 H908 0.961 . S
C895 C892 1.539 . S
C895 H909 0.958 . S
C895 H910 0.961 . S
C895 H911 0.960 . S
H896 C880 0.931 . S
H897 C885 0.929 . S
H898 C886 0.960 . S
H899 C886 0.962 . S
H900 C886 0.960 . S
H901 C887 0.961 . S
H902 C887 0.961 . S
H903 C887 0.961 . S
H904 C888 0.931 . S
H905 C893 0.930 . S
H906 C894 0.956 . S
H907 C894 0.961 . S
H908 C894 0.961 . S
H909 C895 0.958 . S
H910 C895 0.961 . S
H911 C895 0.960 . S
C912 C913 1.391 . S
C912 C914 1.394 . S
C912 H928 0.931 . S
C913 C912 1.391 . S
C913 C917 1.376 . S
C914 C912 1.394 . S
C914 C915 1.369 . S
C914 C918 1.531 . S
C915 C914 1.369 . S
C915 C916 1.410 . S
C915 C923 1.503 . S
C916 C915 1.410 . S
C916 C917 1.392 . S
C916 C919 1.511 . S
C917 C913 1.376 . S
C917 C916 1.392 . S
C917 H929 0.929 . S
C918 C914 1.531 . S
C918 H930 0.960 . S
C918 H931 0.962 . S
C918 H932 0.960 . S
C919 C916 1.511 . S
C919 H933 0.961 . S
C919 H934 0.961 . S
C919 H935 0.961 . S
C920 C921 1.370 . S
C920 C922 1.363 . S
C920 H936 0.931 . S
C921 C920 1.370 . S
C921 C925 1.408 . S
C922 C920 1.363 . S
C922 C923 1.370 . S
C922 C926 1.524 . S
C923 C915 1.503 . S
C923 C922 1.370 . S
C923 C924 1.403 . S
C924 C923 1.403 . S
C924 C925 1.404 . S
C924 C927 1.539 . S
C925 C921 1.408 . S
C925 C924 1.404 . S
C925 H937 0.930 . S
C926 C922 1.524 . S
C926 H938 0.956 . S
C926 H939 0.961 . S
C926 H940 0.961 . S
C927 C924 1.539 . S
C927 H941 0.958 . S
C927 H942 0.961 . S
C927 H943 0.960 . S
H928 C912 0.931 . S
H929 C917 0.929 . S
H930 C918 0.960 . S
H931 C918 0.962 . S
H932 C918 0.960 . S
H933 C919 0.961 . S
H934 C919 0.961 . S
H935 C919 0.961 . S
H936 C920 0.931 . S
H937 C925 0.930 . S
H938 C926 0.956 . S
H939 C926 0.961 . S
H940 C926 0.961 . S
H941 C927 0.958 . S
H942 C927 0.961 . S
H943 C927 0.960 . S
C944 C945 1.391 . S
C944 C946 1.394 . S
C944 H960 0.931 . S
C945 C944 1.391 . S
C945 C949 1.376 . S
C946 C944 1.394 . S
C946 C947 1.369 . S
C946 C950 1.531 . S
C947 C946 1.369 . S
C947 C948 1.410 . S
C947 C955 1.503 . S
C948 C947 1.410 . S
C948 C949 1.392 . S
C948 C951 1.511 . S
C949 C945 1.376 . S
C949 C948 1.392 . S
C949 H961 0.929 . S
C950 C946 1.531 . S
C950 H962 0.960 . S
C950 H963 0.962 . S
C950 H964 0.960 . S
C951 C948 1.511 . S
C951 H965 0.961 . S
C951 H966 0.961 . S
C951 H967 0.961 . S
C952 C953 1.370 . S
C952 C954 1.363 . S
C952 H968 0.931 . S
C953 C952 1.370 . S
C953 C957 1.408 . S
C954 C952 1.363 . S
C954 C955 1.370 . S
C954 C958 1.524 . S
C955 C947 1.503 . S
C955 C954 1.370 . S
C955 C956 1.403 . S
C956 C955 1.403 . S
C956 C957 1.404 . S
C956 C959 1.539 . S
C957 C953 1.408 . S
C957 C956 1.404 . S
C957 H969 0.930 . S
C958 C954 1.524 . S
C958 H970 0.956 . S
C958 H971 0.961 . S
C958 H972 0.961 . S
C959 C956 1.539 . S
C959 H973 0.958 . S
C959 H974 0.961 . S
C959 H975 0.960 . S
H960 C944 0.931 . S
H961 C949 0.929 . S
H962 C950 0.960 . S
H963 C950 0.962 . S
H964 C950 0.960 . S
H965 C951 0.961 . S
H966 C951 0.961 . S
H967 C951 0.961 . S
H968 C952 0.931 . S
H969 C957 0.930 . S
H970 C958 0.956 . S
H971 C958 0.961 . S
H972 C958 0.961 . S
H973 C959 0.958 . S
H974 C959 0.961 . S
H975 C959 0.960 . S
C976 C977 1.391 . S
C976 C978 1.394 . S
C976 H992 0.931 . S
C977 C976 1.391 . S
C977 C981 1.376 . S
C978 C976 1.394 . S
C978 C979 1.369 . S
C978 C982 1.531 . S
C979 C978 1.369 . S
C979 C980 1.410 . S
C979 C987 1.503 . S
C980 C979 1.410 . S
C980 C981 1.392 . S
C980 C983 1.511 . S
C981 C977 1.376 . S
C981 C980 1.392 . S
C981 H993 0.929 . S
C982 C978 1.531 . S
C982 H994 0.960 . S
C982 H995 0.962 . S
C982 H996 0.960 . S
C983 C980 1.511 . S
C983 H997 0.961 . S
C983 H998 0.961 . S
C983 H999 0.961 . S
C984 C985 1.370 . S
C984 C986 1.363 . S
C984 H1000 0.931 . S
C985 C984 1.370 . S
C985 C989 1.408 . S
C986 C984 1.363 . S
C986 C987 1.370 . S
C986 C990 1.524 . S
C987 C979 1.503 . S
C987 C986 1.370 . S
C987 C988 1.403 . S
C988 C987 1.403 . S
C988 C989 1.404 . S
C988 C991 1.539 . S
C989 C985 1.408 . S
C989 C988 1.404 . S
C989 H1001 0.930 . S
C990 C986 1.524 . S
C990 H1002 0.956 . S
C990 H1003 0.961 . S
C990 H1004 0.961 . S
C991 C988 1.539 . S
C991 H1005 0.958 . S
C991 H1006 0.961 . S
C991 H1007 0.960 . S
H992 C976 0.931 . S
H993 C981 0.929 . S
H994 C982 0.960 . S
H995 C982 0.962 . S
H996 C982 0.960 . S
H997 C983 0.961 . S
H998 C983 0.961 . S
H999 C983 0.961 . S
H1000 C984 0.931 . S
H1001 C989 0.930 . S
H1002 C990 0.956 . S
H1003 C990 0.961 . S
H1004 C990 0.961 . S
H1005 C991 0.958 . S
H1006 C991 0.961 . S
H1007 C991 0.960 . S
C1008 C1009 1.391 . S
C1008 C1010 1.394 . S
C1008 H1024 0.931 . S
C1009 C1008 1.391 . S
C1009 C1013 1.376 . S
C1010 C1008 1.394 . S
C1010 C1011 1.369 . S
C1010 C1014 1.531 . S
C1011 C1010 1.369 . S
C1011 C1012 1.410 . S
C1011 C1019 1.503 . S
C1012 C1011 1.410 . S
C1012 C1013 1.392 . S
C1012 C1015 1.511 . S
C1013 C1009 1.376 . S
C1013 C1012 1.392 . S
C1013 H1025 0.929 . S
C1014 C1010 1.531 . S
C1014 H1026 0.960 . S
C1014 H1027 0.962 . S
C1014 H1028 0.960 . S
C1015 C1012 1.511 . S
C1015 H1029 0.961 . S
C1015 H1030 0.961 . S
C1015 H1031 0.961 . S
C1016 C1017 1.370 . S
C1016 C1018 1.363 . S
C1016 H1032 0.931 . S
C1017 C1016 1.370 . S
C1017 C1021 1.408 . S
C1018 C1016 1.363 . S
C1018 C1019 1.370 . S
C1018 C1022 1.524 . S
C1019 C1011 1.503 . S
C1019 C1018 1.370 . S
C1019 C1020 1.403 . S
C1020 C1019 1.403 . S
C1020 C1021 1.404 . S
C1020 C1023 1.539 . S
C1021 C1017 1.408 . S
C1021 C1020 1.404 . S
C1021 H1033 0.930 . S
C1022 C1018 1.524 . S
C1022 H1034 0.956 . S
C1022 H1035 0.961 . S
C1022 H1036 0.961 . S
C1023 C1020 1.539 . S
C1023 H1037 0.958 . S
C1023 H1038 0.961 . S
C1023 H1039 0.960 . S
H1024 C1008 0.931 . S
H1025 C1013 0.929 . S
H1026 C1014 0.960 . S
H1027 C1014 0.962 . S
H1028 C1014 0.960 . S
H1029 C1015 0.961 . S
H1030 C1015 0.961 . S
H1031 C1015 0.961 . S
H1032 C1016 0.931 . S
H1033 C1021 0.930 . S
H1034 C1022 0.956 . S
H1035 C1022 0.961 . S
H1036 C1022 0.961 . S
H1037 C1023 0.958 . S
H1038 C1023 0.961 . S
H1039 C1023 0.960 . S
C1040 C1041 1.391 . S
C1040 C1042 1.394 . S
C1040 H1056 0.931 . S
C1041 C1040 1.391 . S
C1041 C1045 1.376 . S
C1042 C1040 1.394 . S
C1042 C1043 1.369 . S
C1042 C1046 1.531 . S
C1043 C1042 1.369 . S
C1043 C1044 1.410 . S
C1043 C1051 1.503 . S
C1044 C1043 1.410 . S
C1044 C1045 1.392 . S
C1044 C1047 1.511 . S
C1045 C1041 1.376 . S
C1045 C1044 1.392 . S
C1045 H1057 0.929 . S
C1046 C1042 1.531 . S
C1046 H1058 0.960 . S
C1046 H1059 0.962 . S
C1046 H1060 0.960 . S
C1047 C1044 1.511 . S
C1047 H1061 0.961 . S
C1047 H1062 0.961 . S
C1047 H1063 0.961 . S
C1048 C1049 1.370 . S
C1048 C1050 1.363 . S
C1048 H1064 0.931 . S
C1049 C1048 1.370 . S
C1049 C1053 1.408 . S
C1050 C1048 1.363 . S
C1050 C1051 1.370 . S
C1050 C1054 1.524 . S
C1051 C1043 1.503 . S
C1051 C1050 1.370 . S
C1051 C1052 1.403 . S
C1052 C1051 1.403 . S
C1052 C1053 1.404 . S
C1052 C1055 1.539 . S
C1053 C1049 1.408 . S
C1053 C1052 1.404 . S
C1053 H1065 0.930 . S
C1054 C1050 1.524 . S
C1054 H1066 0.956 . S
C1054 H1067 0.961 . S
C1054 H1068 0.961 . S
C1055 C1052 1.539 . S
C1055 H1069 0.958 . S
C1055 H1070 0.961 . S
C1055 H1071 0.960 . S
H1056 C1040 0.931 . S
H1057 C1045 0.929 . S
H1058 C1046 0.960 . S
H1059 C1046 0.962 . S
H1060 C1046 0.960 . S
H1061 C1047 0.961 . S
H1062 C1047 0.961 . S
H1063 C1047 0.961 . S
H1064 C1048 0.931 . S
H1065 C1053 0.930 . S
H1066 C1054 0.956 . S
H1067 C1054 0.961 . S
H1068 C1054 0.961 . S
H1069 C1055 0.958 . S
H1070 C1055 0.961 . S
H1071 C1055 0.960 . S
C1072 C1073 1.391 . S
C1072 C1074 1.394 . S
C1072 H1088 0.931 . S
C1073 C1072 1.391 . S
C1073 C1077 1.376 . S
C1074 C1072 1.394 . S
C1074 C1075 1.369 . S
C1074 C1078 1.531 . S
C1075 C1074 1.369 . S
C1075 C1076 1.410 . S
C1075 C1083 1.503 . S
C1076 C1075 1.410 . S
C1076 C1077 1.392 . S
C1076 C1079 1.511 . S
C1077 C1073 1.376 . S
C1077 C1076 1.392 . S
C1077 H1089 0.929 . S
C1078 C1074 1.531 . S
C1078 H1090 0.960 . S
C1078 H1091 0.962 . S
C1078 H1092 0.960 . S
C1079 C1076 1.511 . S
C1079 H1093 0.961 . S
C1079 H1094 0.961 . S
C1079 H1095 0.961 . S
C1080 C1081 1.370 . S
C1080 C1082 1.363 . S
C1080 H1096 0.931 . S
C1081 C1080 1.370 . S
C1081 C1085 1.408 . S
C1082 C1080 1.363 . S
C1082 C1083 1.370 . S
C1082 C1086 1.524 . S
C1083 C1075 1.503 . S
C1083 C1082 1.370 . S
C1083 C1084 1.403 . S
C1084 C1083 1.403 . S
C1084 C1085 1.404 . S
C1084 C1087 1.539 . S
C1085 C1081 1.408 . S
C1085 C1084 1.404 . S
C1085 H1097 0.930 . S
C1086 C1082 1.524 . S
C1086 H1098 0.956 . S
C1086 H1099 0.961 . S
C1086 H1100 0.961 . S
C1087 C1084 1.539 . S
C1087 H1101 0.958 . S
C1087 H1102 0.961 . S
C1087 H1103 0.960 . S
H1088 C1072 0.931 . S
H1089 C1077 0.929 . S
H1090 C1078 0.960 . S
H1091 C1078 0.962 . S
H1092 C1078 0.960 . S
H1093 C1079 0.961 . S
H1094 C1079 0.961 . S
H1095 C1079 0.961 . S
H1096 C1080 0.931 . S
H1097 C1085 0.930 . S
H1098 C1086 0.956 . S
H1099 C1086 0.961 . S
H1100 C1086 0.961 . S
H1101 C1087 0.958 . S
H1102 C1087 0.961 . S
H1103 C1087 0.960 . S
C1104 C1105 1.391 . S
C1104 C1106 1.394 . S
C1104 H1120 0.931 . S
C1105 C1104 1.391 . S
C1105 C1109 1.376 . S
C1106 C1104 1.394 . S
C1106 C1107 1.369 . S
C1106 C1110 1.531 . S
C1107 C1106 1.369 . S
C1107 C1108 1.410 . S
C1107 C1115 1.503 . S
C1108 C1107 1.410 . S
C1108 C1109 1.392 . S
C1108 C1111 1.511 . S
C1109 C1105 1.376 . S
C1109 C1108 1.392 . S
C1109 H1121 0.929 . S
C1110 C1106 1.531 . S
C1110 H1122 0.960 . S
C1110 H1123 0.962 . S
C1110 H1124 0.960 . S
C1111 C1108 1.511 . S
C1111 H1125 0.961 . S
C1111 H1126 0.961 . S
C1111 H1127 0.961 . S
C1112 C1113 1.370 . S
C1112 C1114 1.363 . S
C1112 H1128 0.931 . S
C1113 C1112 1.370 . S
C1113 C1117 1.408 . S
C1114 C1112 1.363 . S
C1114 C1115 1.370 . S
C1114 C1118 1.524 . S
C1115 C1107 1.503 . S
C1115 C1114 1.370 . S
C1115 C1116 1.403 . S
C1116 C1115 1.403 . S
C1116 C1117 1.404 . S
C1116 C1119 1.539 . S
C1117 C1113 1.408 . S
C1117 C1116 1.404 . S
C1117 H1129 0.930 . S
C1118 C1114 1.524 . S
C1118 H1130 0.956 . S
C1118 H1131 0.961 . S
C1118 H1132 0.961 . S
C1119 C1116 1.539 . S
C1119 H1133 0.958 . S
C1119 H1134 0.961 . S
C1119 H1135 0.960 . S
H1120 C1104 0.931 . S
H1121 C1109 0.929 . S
H1122 C1110 0.960 . S
H1123 C1110 0.962 . S
H1124 C1110 0.960 . S
H1125 C1111 0.961 . S
H1126 C1111 0.961 . S
H1127 C1111 0.961 . S
H1128 C1112 0.931 . S
H1129 C1117 0.930 . S
H1130 C1118 0.956 . S
H1131 C1118 0.961 . S
H1132 C1118 0.961 . S
H1133 C1119 0.958 . S
H1134 C1119 0.961 . S
H1135 C1119 0.960 . S
C1136 C1137 1.391 . S
C1136 C1138 1.394 . S
C1136 H1152 0.931 . S
C1137 C1136 1.391 . S
C1137 C1141 1.376 . S
C1138 C1136 1.394 . S
C1138 C1139 1.369 . S
C1138 C1142 1.531 . S
C1139 C1138 1.369 . S
C1139 C1140 1.410 . S
C1139 C1147 1.503 . S
C1140 C1139 1.410 . S
C1140 C1141 1.392 . S
C1140 C1143 1.511 . S
C1141 C1137 1.376 . S
C1141 C1140 1.392 . S
C1141 H1153 0.929 . S
C1142 C1138 1.531 . S
C1142 H1154 0.960 . S
C1142 H1155 0.962 . S
C1142 H1156 0.960 . S
C1143 C1140 1.511 . S
C1143 H1157 0.961 . S
C1143 H1158 0.961 . S
C1143 H1159 0.961 . S
C1144 C1145 1.370 . S
C1144 C1146 1.363 . S
C1144 H1160 0.931 . S
C1145 C1144 1.370 . S
C1145 C1149 1.408 . S
C1146 C1144 1.363 . S
C1146 C1147 1.370 . S
C1146 C1150 1.524 . S
C1147 C1139 1.503 . S
C1147 C1146 1.370 . S
C1147 C1148 1.403 . S
C1148 C1147 1.403 . S
C1148 C1149 1.404 . S
C1148 C1151 1.539 . S
C1149 C1145 1.408 . S
C1149 C1148 1.404 . S
C1149 H1161 0.930 . S
C1150 C1146 1.524 . S
C1150 H1162 0.956 . S
C1150 H1163 0.961 . S
C1150 H1164 0.961 . S
C1151 C1148 1.539 . S
C1151 H1165 0.958 . S
C1151 H1166 0.961 . S
C1151 H1167 0.960 . S
H1152 C1136 0.931 . S
H1153 C1141 0.929 . S
H1154 C1142 0.960 . S
H1155 C1142 0.962 . S
H1156 C1142 0.960 . S
H1157 C1143 0.961 . S
H1158 C1143 0.961 . S
H1159 C1143 0.961 . S
H1160 C1144 0.931 . S
H1161 C1149 0.930 . S
H1162 C1150 0.956 . S
H1163 C1150 0.961 . S
H1164 C1150 0.961 . S
H1165 C1151 0.958 . S
H1166 C1151 0.961 . S
H1167 C1151 0.960 . S
C1168 C1169 1.391 . S
C1168 C1170 1.394 . S
C1168 H1184 0.931 . S
C1169 C1168 1.391 . S
C1169 C1173 1.376 . S
C1170 C1168 1.394 . S
C1170 C1171 1.369 . S
C1170 C1174 1.531 . S
C1171 C1170 1.369 . S
C1171 C1172 1.410 . S
C1171 C1179 1.503 . S
C1172 C1171 1.410 . S
C1172 C1173 1.392 . S
C1172 C1175 1.511 . S
C1173 C1169 1.376 . S
C1173 C1172 1.392 . S
C1173 H1185 0.929 . S
C1174 C1170 1.531 . S
C1174 H1186 0.960 . S
C1174 H1187 0.962 . S
C1174 H1188 0.960 . S
C1175 C1172 1.511 . S
C1175 H1189 0.961 . S
C1175 H1190 0.961 . S
C1175 H1191 0.961 . S
C1176 C1177 1.370 . S
C1176 C1178 1.363 . S
C1176 H1192 0.931 . S
C1177 C1176 1.370 . S
C1177 C1181 1.408 . S
C1178 C1176 1.363 . S
C1178 C1179 1.370 . S
C1178 C1182 1.524 . S
C1179 C1171 1.503 . S
C1179 C1178 1.370 . S
C1179 C1180 1.403 . S
C1180 C1179 1.403 . S
C1180 C1181 1.404 . S
C1180 C1183 1.539 . S
C1181 C1177 1.408 . S
C1181 C1180 1.404 . S
C1181 H1193 0.930 . S
C1182 C1178 1.524 . S
C1182 H1194 0.956 . S
C1182 H1195 0.961 . S
C1182 H1196 0.961 . S
C1183 C1180 1.539 . S
C1183 H1197 0.958 . S
C1183 H1198 0.961 . S
C1183 H1199 0.960 . S
H1184 C1168 0.931 . S
H1185 C1173 0.929 . S
H1186 C1174 0.960 . S
H1187 C1174 0.962 . S
H1188 C1174 0.960 . S
H1189 C1175 0.961 . S
H1190 C1175 0.961 . S
H1191 C1175 0.961 . S
H1192 C1176 0.931 . S
H1193 C1181 0.930 . S
H1194 C1182 0.956 . S
H1195 C1182 0.961 . S
H1196 C1182 0.961 . S
H1197 C1183 0.958 . S
H1198 C1183 0.961 . S
H1199 C1183 0.960 . S
C1200 C1201 1.391 . S
C1200 C1202 1.394 . S
C1200 H1216 0.931 . S
C1201 C1200 1.391 . S
C1201 C1205 1.376 . S
C1202 C1200 1.394 . S
C1202 C1203 1.369 . S
C1202 C1206 1.531 . S
C1203 C1202 1.369 . S
C1203 C1204 1.410 . S
C1203 C1211 1.503 . S
C1204 C1203 1.410 . S
C1204 C1205 1.392 . S
C1204 C1207 1.511 . S
C1205 C1201 1.376 . S
C1205 C1204 1.392 . S
C1205 H1217 0.929 . S
C1206 C1202 1.531 . S
C1206 H1218 0.960 . S
C1206 H1219 0.962 . S
C1206 H1220 0.960 . S
C1207 C1204 1.511 . S
C1207 H1221 0.961 . S
C1207 H1222 0.961 . S
C1207 H1223 0.961 . S
C1208 C1209 1.370 . S
C1208 C1210 1.363 . S
C1208 H1224 0.931 . S
C1209 C1208 1.370 . S
C1209 C1213 1.408 . S
C1210 C1208 1.363 . S
C1210 C1211 1.370 . S
C1210 C1214 1.524 . S
C1211 C1203 1.503 . S
C1211 C1210 1.370 . S
C1211 C1212 1.403 . S
C1212 C1211 1.403 . S
C1212 C1213 1.404 . S
C1212 C1215 1.539 . S
C1213 C1209 1.408 . S
C1213 C1212 1.404 . S
C1213 H1225 0.930 . S
C1214 C1210 1.524 . S
C1214 H1226 0.956 . S
C1214 H1227 0.961 . S
C1214 H1228 0.961 . S
C1215 C1212 1.539 . S
C1215 H1229 0.958 . S
C1215 H1230 0.961 . S
C1215 H1231 0.960 . S
H1216 C1200 0.931 . S
H1217 C1205 0.929 . S
H1218 C1206 0.960 . S
H1219 C1206 0.962 . S
H1220 C1206 0.960 . S
H1221 C1207 0.961 . S
H1222 C1207 0.961 . S
H1223 C1207 0.961 . S
H1224 C1208 0.931 . S
H1225 C1213 0.930 . S
H1226 C1214 0.956 . S
H1227 C1214 0.961 . S
H1228 C1214 0.961 . S
H1229 C1215 0.958 . S
H1230 C1215 0.961 . S
H1231 C1215 0.960 . S
C1232 C1233 1.391 . S
C1232 C1234 1.394 . S
C1232 H1248 0.931 . S
C1233 C1232 1.391 . S
C1233 C1237 1.376 . S
C1234 C1232 1.394 . S
C1234 C1235 1.369 . S
C1234 C1238 1.531 . S
C1235 C1234 1.369 . S
C1235 C1236 1.410 . S
C1235 C1243 1.503 . S
C1236 C1235 1.410 . S
C1236 C1237 1.392 . S
C1236 C1239 1.511 . S
C1237 C1233 1.376 . S
C1237 C1236 1.392 . S
C1237 H1249 0.929 . S
C1238 C1234 1.531 . S
C1238 H1250 0.960 . S
C1238 H1251 0.962 . S
C1238 H1252 0.960 . S
C1239 C1236 1.511 . S
C1239 H1253 0.961 . S
C1239 H1254 0.961 . S
C1239 H1255 0.961 . S
C1240 C1241 1.370 . S
C1240 C1242 1.363 . S
C1240 H1256 0.931 . S
C1241 C1240 1.370 . S
C1241 C1245 1.408 . S
C1242 C1240 1.363 . S
C1242 C1243 1.370 . S
C1242 C1246 1.524 . S
C1243 C1235 1.503 . S
C1243 C1242 1.370 . S
C1243 C1244 1.403 . S
C1244 C1243 1.403 . S
C1244 C1245 1.404 . S
C1244 C1247 1.539 . S
C1245 C1241 1.408 . S
C1245 C1244 1.404 . S
C1245 H1257 0.930 . S
C1246 C1242 1.524 . S
C1246 H1258 0.956 . S
C1246 H1259 0.961 . S
C1246 H1260 0.961 . S
C1247 C1244 1.539 . S
C1247 H1261 0.958 . S
C1247 H1262 0.961 . S
C1247 H1263 0.960 . S
H1248 C1232 0.931 . S
H1249 C1237 0.929 . S
H1250 C1238 0.960 . S
H1251 C1238 0.962 . S
H1252 C1238 0.960 . S
H1253 C1239 0.961 . S
H1254 C1239 0.961 . S
H1255 C1239 0.961 . S
H1256 C1240 0.931 . S
H1257 C1245 0.930 . S
H1258 C1246 0.956 . S
H1259 C1246 0.961 . S
H1260 C1246 0.961 . S
H1261 C1247 0.958 . S
H1262 C1247 0.961 . S
H1263 C1247 0.960 . S
C1264 C1265 1.391 . S
C1264 C1266 1.394 . S
C1264 H1280 0.931 . S
C1265 C1264 1.391 . S
C1265 C1269 1.376 . S
C1266 C1264 1.394 . S
C1266 C1267 1.369 . S
C1266 C1270 1.531 . S
C1267 C1266 1.369 . S
C1267 C1268 1.410 . S
C1267 C1275 1.503 . S
C1268 C1267 1.410 . S
C1268 C1269 1.392 . S
C1268 C1271 1.511 . S
C1269 C1265 1.376 . S
C1269 C1268 1.392 . S
C1269 H1281 0.929 . S
C1270 C1266 1.531 . S
C1270 H1282 0.960 . S
C1270 H1283 0.962 . S
C1270 H1284 0.960 . S
C1271 C1268 1.511 . S
C1271 H1285 0.961 . S
C1271 H1286 0.961 . S
C1271 H1287 0.961 . S
C1272 C1273 1.370 . S
C1272 C1274 1.363 . S
C1272 H1288 0.931 . S
C1273 C1272 1.370 . S
C1273 C1277 1.408 . S
C1274 C1272 1.363 . S
C1274 C1275 1.370 . S
C1274 C1278 1.524 . S
C1275 C1267 1.503 . S
C1275 C1274 1.370 . S
C1275 C1276 1.403 . S
C1276 C1275 1.403 . S
C1276 C1277 1.404 . S
C1276 C1279 1.539 . S
C1277 C1273 1.408 . S
C1277 C1276 1.404 . S
C1277 H1289 0.930 . S
C1278 C1274 1.524 . S
C1278 H1290 0.956 . S
C1278 H1291 0.961 . S
C1278 H1292 0.961 . S
C1279 C1276 1.539 . S
C1279 H1293 0.958 . S
C1279 H1294 0.961 . S
C1279 H1295 0.960 . S
H1280 C1264 0.931 . S
H1281 C1269 0.929 . S
H1282 C1270 0.960 . S
H1283 C1270 0.962 . S
H1284 C1270 0.960 . S
H1285 C1271 0.961 . S
H1286 C1271 0.961 . S
H1287 C1271 0.961 . S
H1288 C1272 0.931 . S
H1289 C1277 0.930 . S
H1290 C1278 0.956 . S
H1291 C1278 0.961 . S
H1292 C1278 0.961 . S
H1293 C1279 0.958 . S
H1294 C1279 0.961 . S
H1295 C1279 0.960 . S
C1296 C1297 1.391 . S
C1296 C1298 1.394 . S
C1296 H1312 0.931 . S
C1297 C1296 1.391 . S
C1297 C1301 1.376 . S
C1298 C1296 1.394 . S
C1298 C1299 1.369 . S
C1298 C1302 1.531 . S
C1299 C1298 1.369 . S
C1299 C1300 1.410 . S
C1299 C1307 1.503 . S
C1300 C1299 1.410 . S
C1300 C1301 1.392 . S
C1300 C1303 1.511 . S
C1301 C1297 1.376 . S
C1301 C1300 1.392 . S
C1301 H1313 0.929 . S
C1302 C1298 1.531 . S
C1302 H1314 0.960 . S
C1302 H1315 0.962 . S
C1302 H1316 0.960 . S
C1303 C1300 1.511 . S
C1303 H1317 0.961 . S
C1303 H1318 0.961 . S
C1303 H1319 0.961 . S
C1304 C1305 1.370 . S
C1304 C1306 1.363 . S
C1304 H1320 0.931 . S
C1305 C1304 1.370 . S
C1305 C1309 1.408 . S
C1306 C1304 1.363 . S
C1306 C1307 1.370 . S
C1306 C1310 1.524 . S
C1307 C1299 1.503 . S
C1307 C1306 1.370 . S
C1307 C1308 1.403 . S
C1308 C1307 1.403 . S
C1308 C1309 1.404 . S
C1308 C1311 1.539 . S
C1309 C1305 1.408 . S
C1309 C1308 1.404 . S
C1309 H1321 0.930 . S
C1310 C1306 1.524 . S
C1310 H1322 0.956 . S
C1310 H1323 0.961 . S
C1310 H1324 0.961 . S
C1311 C1308 1.539 . S
C1311 H1325 0.958 . S
C1311 H1326 0.961 . S
C1311 H1327 0.960 . S
H1312 C1296 0.931 . S
H1313 C1301 0.929 . S
H1314 C1302 0.960 . S
H1315 C1302 0.962 . S
H1316 C1302 0.960 . S
H1317 C1303 0.961 . S
H1318 C1303 0.961 . S
H1319 C1303 0.961 . S
H1320 C1304 0.931 . S
H1321 C1309 0.930 . S
H1322 C1310 0.956 . S
H1323 C1310 0.961 . S
H1324 C1310 0.961 . S
H1325 C1311 0.958 . S
H1326 C1311 0.961 . S
H1327 C1311 0.960 . S
C1328 C1329 1.391 . S
C1328 C1330 1.394 . S
C1328 H1344 0.931 . S
C1329 C1328 1.391 . S
C1329 C1333 1.376 . S
C1330 C1328 1.394 . S
C1330 C1331 1.369 . S
C1330 C1334 1.531 . S
C1331 C1330 1.369 . S
C1331 C1332 1.410 . S
C1331 C1339 1.503 . S
C1332 C1331 1.410 . S
C1332 C1333 1.392 . S
C1332 C1335 1.511 . S
C1333 C1329 1.376 . S
C1333 C1332 1.392 . S
C1333 H1345 0.929 . S
C1334 C1330 1.531 . S
C1334 H1346 0.960 . S
C1334 H1347 0.962 . S
C1334 H1348 0.960 . S
C1335 C1332 1.511 . S
C1335 H1349 0.961 . S
C1335 H1350 0.961 . S
C1335 H1351 0.961 . S
C1336 C1337 1.370 . S
C1336 C1338 1.363 . S
C1336 H1352 0.931 . S
C1337 C1336 1.370 . S
C1337 C1341 1.408 . S
C1338 C1336 1.363 . S
C1338 C1339 1.370 . S
C1338 C1342 1.524 . S
C1339 C1331 1.503 . S
C1339 C1338 1.370 . S
C1339 C1340 1.403 . S
C1340 C1339 1.403 . S
C1340 C1341 1.404 . S
C1340 C1343 1.539 . S
C1341 C1337 1.408 . S
C1341 C1340 1.404 . S
C1341 H1353 0.930 . S
C1342 C1338 1.524 . S
C1342 H1354 0.956 . S
C1342 H1355 0.961 . S
C1342 H1356 0.961 . S
C1343 C1340 1.539 . S
C1343 H1357 0.958 . S
C1343 H1358 0.961 . S
C1343 H1359 0.960 . S
H1344 C1328 0.931 . S
H1345 C1333 0.929 . S
H1346 C1334 0.960 . S
H1347 C1334 0.962 . S
H1348 C1334 0.960 . S
H1349 C1335 0.961 . S
H1350 C1335 0.961 . S
H1351 C1335 0.961 . S
H1352 C1336 0.931 . S
H1353 C1341 0.930 . S
H1354 C1342 0.956 . S
H1355 C1342 0.961 . S
H1356 C1342 0.961 . S
H1357 C1343 0.958 . S
H1358 C1343 0.961 . S
H1359 C1343 0.960 . S
C1360 C1361 1.391 . S
C1360 C1362 1.394 . S
C1360 H1376 0.931 . S
C1361 C1360 1.391 . S
C1361 C1365 1.376 . S
C1362 C1360 1.394 . S
C1362 C1363 1.369 . S
C1362 C1366 1.531 . S
C1363 C1362 1.369 . S
C1363 C1364 1.410 . S
C1363 C1371 1.503 . S
C1364 C1363 1.410 . S
C1364 C1365 1.392 . S
C1364 C1367 1.511 . S
C1365 C1361 1.376 . S
C1365 C1364 1.392 . S
C1365 H1377 0.929 . S
C1366 C1362 1.531 . S
C1366 H1378 0.960 . S
C1366 H1379 0.962 . S
C1366 H1380 0.960 . S
C1367 C1364 1.511 . S
C1367 H1381 0.961 . S
C1367 H1382 0.961 . S
C1367 H1383 0.961 . S
C1368 C1369 1.370 . S
C1368 C1370 1.363 . S
C1368 H1384 0.931 . S
C1369 C1368 1.370 . S
C1369 C1373 1.408 . S
C1370 C1368 1.363 . S
C1370 C1371 1.370 . S
C1370 C1374 1.524 . S
C1371 C1363 1.503 . S
C1371 C1370 1.370 . S
C1371 C1372 1.403 . S
C1372 C1371 1.403 . S
C1372 C1373 1.404 . S
C1372 C1375 1.539 . S
C1373 C1369 1.408 . S
C1373 C1372 1.404 . S
C1373 H1385 0.930 . S
C1374 C1370 1.524 . S
C1374 H1386 0.956 . S
C1374 H1387 0.961 . S
C1374 H1388 0.961 . S
C1375 C1372 1.539 . S
C1375 H1389 0.958 . S
C1375 H1390 0.961 . S
C1375 H1391 0.960 . S
H1376 C1360 0.931 . S
H1377 C1365 0.929 . S
H1378 C1366 0.960 . S
H1379 C1366 0.962 . S
H1380 C1366 0.960 . S
H1381 C1367 0.961 . S
H1382 C1367 0.961 . S
H1383 C1367 0.961 . S
H1384 C1368 0.931 . S
H1385 C1373 0.930 . S
H1386 C1374 0.956 . S
H1387 C1374 0.961 . S
H1388 C1374 0.961 . S
H1389 C1375 0.958 . S
H1390 C1375 0.961 . S
H1391 C1375 0.960 . S
C1392 C1393 1.391 . S
C1392 C1394 1.394 . S
C1392 H1408 0.931 . S
C1393 C1392 1.391 . S
C1393 C1397 1.376 . S
C1394 C1392 1.394 . S
C1394 C1395 1.369 . S
C1394 C1398 1.531 . S
C1395 C1394 1.369 . S
C1395 C1396 1.410 . S
C1395 C1403 1.503 . S
C1396 C1395 1.410 . S
C1396 C1397 1.392 . S
C1396 C1399 1.511 . S
C1397 C1393 1.376 . S
C1397 C1396 1.392 . S
C1397 H1409 0.929 . S
C1398 C1394 1.531 . S
C1398 H1410 0.960 . S
C1398 H1411 0.962 . S
C1398 H1412 0.960 . S
C1399 C1396 1.511 . S
C1399 H1413 0.961 . S
C1399 H1414 0.961 . S
C1399 H1415 0.961 . S
C1400 C1401 1.370 . S
C1400 C1402 1.363 . S
C1400 H1416 0.931 . S
C1401 C1400 1.370 . S
C1401 C1405 1.408 . S
C1402 C1400 1.363 . S
C1402 C1403 1.370 . S
C1402 C1406 1.524 . S
C1403 C1395 1.503 . S
C1403 C1402 1.370 . S
C1403 C1404 1.403 . S
C1404 C1403 1.403 . S
C1404 C1405 1.404 . S
C1404 C1407 1.539 . S
C1405 C1401 1.408 . S
C1405 C1404 1.404 . S
C1405 H1417 0.930 . S
C1406 C1402 1.524 . S
C1406 H1418 0.956 . S
C1406 H1419 0.961 . S
C1406 H1420 0.961 . S
C1407 C1404 1.539 . S
C1407 H1421 0.958 . S
C1407 H1422 0.961 . S
C1407 H1423 0.960 . S
H1408 C1392 0.931 . S
H1409 C1397 0.929 . S
H1410 C1398 0.960 . S
H1411 C1398 0.962 . S
H1412 C1398 0.960 . S
H1413 C1399 0.961 . S
H1414 C1399 0.961 . S
H1415 C1399 0.961 . S
H1416 C1400 0.931 . S
H1417 C1405 0.930 . S
H1418 C1406 0.956 . S
H1419 C1406 0.961 . S
H1420 C1406 0.961 . S
H1421 C1407 0.958 . S
H1422 C1407 0.961 . S
H1423 C1407 0.960 . S
C1424 C1425 1.391 . S
C1424 C1426 1.394 . S
C1424 H1440 0.931 . S
C1425 C1424 1.391 . S
C1425 C1429 1.376 . S
C1426 C1424 1.394 . S
C1426 C1427 1.369 . S
C1426 C1430 1.531 . S
C1427 C1426 1.369 . S
C1427 C1428 1.410 . S
C1427 C1435 1.503 . S
C1428 C1427 1.410 . S
C1428 C1429 1.392 . S
C1428 C1431 1.511 . S
C1429 C1425 1.376 . S
C1429 C1428 1.392 . S
C1429 H1441 0.929 . S
C1430 C1426 1.531 . S
C1430 H1442 0.960 . S
C1430 H1443 0.962 . S
C1430 H1444 0.960 . S
C1431 C1428 1.511 . S
C1431 H1445 0.961 . S
C1431 H1446 0.961 . S
C1431 H1447 0.961 . S
C1432 C1433 1.370 . S
C1432 C1434 1.363 . S
C1432 H1448 0.931 . S
C1433 C1432 1.370 . S
C1433 C1437 1.408 . S
C1434 C1432 1.363 . S
C1434 C1435 1.370 . S
C1434 C1438 1.524 . S
C1435 C1427 1.503 . S
C1435 C1434 1.370 . S
C1435 C1436 1.403 . S
C1436 C1435 1.403 . S
C1436 C1437 1.404 . S
C1436 C1439 1.539 . S
C1437 C1433 1.408 . S
C1437 C1436 1.404 . S
C1437 H1449 0.930 . S
C1438 C1434 1.524 . S
C1438 H1450 0.956 . S
C1438 H1451 0.961 . S
C1438 H1452 0.961 . S
C1439 C1436 1.539 . S
C1439 H1453 0.958 . S
C1439 H1454 0.961 . S
C1439 H1455 0.960 . S
H1440 C1424 0.931 . S
H1441 C1429 0.929 . S
H1442 C1430 0.960 . S
H1443 C1430 0.962 . S
H1444 C1430 0.960 . S
H1445 C1431 0.961 . S
H1446 C1431 0.961 . S
H1447 C1431 0.961 . S
H1448 C1432 0.931 . S
H1449 C1437 0.930 . S
H1450 C1438 0.956 . S
H1451 C1438 0.961 . S
H1452 C1438 0.961 . S
H1453 C1439 0.958 . S
H1454 C1439 0.961 . S
H1455 C1439 0.960 . S
C1456 C1457 1.391 . S
C1456 C1458 1.394 . S
C1456 H1472 0.931 . S
C1457 C1456 1.391 . S
C1457 C1461 1.376 . S
C1458 C1456 1.394 . S
C1458 C1459 1.369 . S
C1458 C1462 1.531 . S
C1459 C1458 1.369 . S
C1459 C1460 1.410 . S
C1459 C1467 1.503 . S
C1460 C1459 1.410 . S
C1460 C1461 1.392 . S
C1460 C1463 1.511 . S
C1461 C1457 1.376 . S
C1461 C1460 1.392 . S
C1461 H1473 0.929 . S
C1462 C1458 1.531 . S
C1462 H1474 0.960 . S
C1462 H1475 0.962 . S
C1462 H1476 0.960 . S
C1463 C1460 1.511 . S
C1463 H1477 0.961 . S
C1463 H1478 0.961 . S
C1463 H1479 0.961 . S
C1464 C1465 1.370 . S
C1464 C1466 1.363 . S
C1464 H1480 0.931 . S
C1465 C1464 1.370 . S
C1465 C1469 1.408 . S
C1466 C1464 1.363 . S
C1466 C1467 1.370 . S
C1466 C1470 1.524 . S
C1467 C1459 1.503 . S
C1467 C1466 1.370 . S
C1467 C1468 1.403 . S
C1468 C1467 1.403 . S
C1468 C1469 1.404 . S
C1468 C1471 1.539 . S
C1469 C1465 1.408 . S
C1469 C1468 1.404 . S
C1469 H1481 0.930 . S
C1470 C1466 1.524 . S
C1470 H1482 0.956 . S
C1470 H1483 0.961 . S
C1470 H1484 0.961 . S
C1471 C1468 1.539 . S
C1471 H1485 0.958 . S
C1471 H1486 0.961 . S
C1471 H1487 0.960 . S
H1472 C1456 0.931 . S
H1473 C1461 0.929 . S
H1474 C1462 0.960 . S
H1475 C1462 0.962 . S
H1476 C1462 0.960 . S
H1477 C1463 0.961 . S
H1478 C1463 0.961 . S
H1479 C1463 0.961 . S
H1480 C1464 0.931 . S
H1481 C1469 0.930 . S
H1482 C1470 0.956 . S
H1483 C1470 0.961 . S
H1484 C1470 0.961 . S
H1485 C1471 0.958 . S
H1486 C1471 0.961 . S
H1487 C1471 0.960 . S
C1488 C1489 1.391 . S
C1488 C1490 1.394 . S
C1488 H1504 0.931 . S
C1489 C1488 1.391 . S
C1489 C1493 1.376 . S
C1490 C1488 1.394 . S
C1490 C1491 1.369 . S
C1490 C1494 1.531 . S
C1491 C1490 1.369 . S
C1491 C1492 1.410 . S
C1491 C1499 1.503 . S
C1492 C1491 1.410 . S
C1492 C1493 1.392 . S
C1492 C1495 1.511 . S
C1493 C1489 1.376 . S
C1493 C1492 1.392 . S
C1493 H1505 0.929 . S
C1494 C1490 1.531 . S
C1494 H1506 0.960 . S
C1494 H1507 0.962 . S
C1494 H1508 0.960 . S
C1495 C1492 1.511 . S
C1495 H1509 0.961 . S
C1495 H1510 0.961 . S
C1495 H1511 0.961 . S
C1496 C1497 1.370 . S
C1496 C1498 1.363 . S
C1496 H1512 0.931 . S
C1497 C1496 1.370 . S
C1497 C1501 1.408 . S
C1498 C1496 1.363 . S
C1498 C1499 1.370 . S
C1498 C1502 1.524 . S
C1499 C1491 1.503 . S
C1499 C1498 1.370 . S
C1499 C1500 1.403 . S
C1500 C1499 1.403 . S
C1500 C1501 1.404 . S
C1500 C1503 1.539 . S
C1501 C1497 1.408 . S
C1501 C1500 1.404 . S
C1501 H1513 0.930 . S
C1502 C1498 1.524 . S
C1502 H1514 0.956 . S
C1502 H1515 0.961 . S
C1502 H1516 0.961 . S
C1503 C1500 1.539 . S
C1503 H1517 0.958 . S
C1503 H1518 0.961 . S
C1503 H1519 0.960 . S
H1504 C1488 0.931 . S
H1505 C1493 0.929 . S
H1506 C1494 0.960 . S
H1507 C1494 0.962 . S
H1508 C1494 0.960 . S
H1509 C1495 0.961 . S
H1510 C1495 0.961 . S
H1511 C1495 0.961 . S
H1512 C1496 0.931 . S
H1513 C1501 0.930 . S
H1514 C1502 0.956 . S
H1515 C1502 0.961 . S
H1516 C1502 0.961 . S
H1517 C1503 0.958 . S
H1518 C1503 0.961 . S
H1519 C1503 0.960 . S
C1520 C1521 1.391 . S
C1520 C1522 1.394 . S
C1520 H1536 0.931 . S
C1521 C1520 1.391 . S
C1521 C1525 1.376 . S
C1522 C1520 1.394 . S
C1522 C1523 1.369 . S
C1522 C1526 1.531 . S
C1523 C1522 1.369 . S
C1523 C1524 1.410 . S
C1523 C1531 1.503 . S
C1524 C1523 1.410 . S
C1524 C1525 1.392 . S
C1524 C1527 1.511 . S
C1525 C1521 1.376 . S
C1525 C1524 1.392 . S
C1525 H1537 0.929 . S
C1526 C1522 1.531 . S
C1526 H1538 0.960 . S
C1526 H1539 0.962 . S
C1526 H1540 0.960 . S
C1527 C1524 1.511 . S
C1527 H1541 0.961 . S
C1527 H1542 0.961 . S
C1527 H1543 0.961 . S
C1528 C1529 1.370 . S
C1528 C1530 1.363 . S
C1528 H1544 0.931 . S
C1529 C1528 1.370 . S
C1529 C1533 1.408 . S
C1530 C1528 1.363 . S
C1530 C1531 1.370 . S
C1530 C1534 1.524 . S
C1531 C1523 1.503 . S
C1531 C1530 1.370 . S
C1531 C1532 1.403 . S
C1532 C1531 1.403 . S
C1532 C1533 1.404 . S
C1532 C1535 1.539 . S
C1533 C1529 1.408 . S
C1533 C1532 1.404 . S
C1533 H1545 0.930 . S
C1534 C1530 1.524 . S
C1534 H1546 0.956 . S
C1534 H1547 0.961 . S
C1534 H1548 0.961 . S
C1535 C1532 1.539 . S
C1535 H1549 0.958 . S
C1535 H1550 0.961 . S
C1535 H1551 0.960 . S
H1536 C1520 0.931 . S
H1537 C1525 0.929 . S
H1538 C1526 0.960 . S
H1539 C1526 0.962 . S
H1540 C1526 0.960 . S
H1541 C1527 0.961 . S
H1542 C1527 0.961 . S
H1543 C1527 0.961 . S
H1544 C1528 0.931 . S
H1545 C1533 0.930 . S
H1546 C1534 0.956 . S
H1547 C1534 0.961 . S
H1548 C1534 0.961 . S
H1549 C1535 0.958 . S
H1550 C1535 0.961 . S
H1551 C1535 0.960 . S
C1552 C1553 1.391 1_455 S
C1552 C1554 1.394 . S
C1552 H1568 0.931 . S
C1553 C1552 1.391 1_655 S
C1553 C1557 1.376 . S
C1554 C1552 1.394 . S
C1554 C1555 1.369 1_455 S
C1554 C1558 1.531 . S
C1555 C1554 1.369 1_655 S
C1555 C1556 1.410 . S
C1555 C1563 1.503 1_655 S
C1556 C1555 1.410 . S
C1556 C1557 1.392 . S
C1556 C1559 1.511 . S
C1557 C1553 1.376 . S
C1557 C1556 1.392 . S
C1557 H1569 0.929 . S
C1558 C1554 1.531 . S
C1558 H1570 0.960 . S
C1558 H1571 0.962 . S
C1558 H1572 0.960 . S
C1559 C1556 1.511 . S
C1559 H1573 0.961 . S
C1559 H1574 0.961 . S
C1559 H1575 0.961 . S
C1560 C1561 1.370 . S
C1560 C1562 1.363 . S
C1560 H1576 0.931 . S
C1561 C1560 1.370 . S
C1561 C1565 1.408 . S
C1562 C1560 1.363 . S
C1562 C1563 1.370 . S
C1562 C1566 1.524 1_455 S
C1563 C1555 1.503 1_455 S
C1563 C1562 1.370 . S
C1563 C1564 1.403 . S
C1564 C1563 1.403 . S
C1564 C1565 1.404 . S
C1564 C1567 1.539 . S
C1565 C1561 1.408 . S
C1565 C1564 1.404 . S
C1565 H1577 0.930 . S
C1566 C1562 1.524 1_655 S
C1566 H1578 0.956 1_655 S
C1566 H1579 0.961 . S
C1566 H1580 0.961 . S
C1567 C1564 1.539 . S
C1567 H1581 0.958 . S
C1567 H1582 0.961 . S
C1567 H1583 0.960 1_455 S
H1568 C1552 0.931 . S
H1569 C1557 0.929 . S
H1570 C1558 0.960 . S
H1571 C1558 0.962 . S
H1572 C1558 0.960 . S
H1573 C1559 0.961 . S
H1574 C1559 0.961 . S
H1575 C1559 0.961 . S
H1576 C1560 0.931 . S
H1577 C1565 0.930 . S
H1578 C1566 0.956 1_455 S
H1579 C1566 0.961 . S
H1580 C1566 0.961 . S
H1581 C1567 0.958 . S
H1582 C1567 0.961 . S
H1583 C1567 0.960 1_655 S
C1584 C1585 1.391 . S
C1584 C1586 1.394 . S
C1584 H1600 0.931 . S
C1585 C1584 1.391 . S
C1585 C1589 1.376 1_565 S
C1586 C1584 1.394 . S
C1586 C1587 1.369 . S
C1586 C1590 1.531 . S
C1587 C1586 1.369 . S
C1587 C1588 1.410 1_565 S
C1587 C1595 1.503 1_565 S
C1588 C1587 1.410 1_545 S
C1588 C1589 1.392 . S
C1588 C1591 1.511 . S
C1589 C1585 1.376 1_545 S
C1589 C1588 1.392 . S
C1589 H1601 0.929 . S
C1590 C1586 1.531 . S
C1590 H1602 0.960 . S
C1590 H1603 0.962 . S
C1590 H1604 0.960 . S
C1591 C1588 1.511 . S
C1591 H1605 0.961 . S
C1591 H1606 0.961 . S
C1591 H1607 0.961 . S
C1592 C1593 1.370 . S
C1592 C1594 1.363 1_545 S
C1592 H1608 0.931 1_545 S
C1593 C1592 1.370 . S
C1593 C1597 1.408 . S
C1594 C1592 1.363 1_565 S
C1594 C1595 1.370 1_565 S
C1594 C1598 1.524 . S
C1595 C1587 1.503 1_545 S
C1595 C1594 1.370 1_545 S
C1595 C1596 1.403 . S
C1596 C1595 1.403 . S
C1596 C1597 1.404 . S
C1596 C1599 1.539 . S
C1597 C1593 1.408 . S
C1597 C1596 1.404 . S
C1597 H1609 0.930 . S
C1598 C1594 1.524 . S
C1598 H1610 0.956 . S
C1598 H1611 0.961 . S
C1598 H1612 0.961 . S
C1599 C1596 1.539 . S
C1599 H1613 0.958 . S
C1599 H1614 0.961 . S
C1599 H1615 0.960 . S
H1600 C1584 0.931 . S
H1601 C1589 0.929 . S
H1602 C1590 0.960 . S
H1603 C1590 0.962 . S
H1604 C1590 0.960 . S
H1605 C1591 0.961 . S
H1606 C1591 0.961 . S
H1607 C1591 0.961 . S
H1608 C1592 0.931 1_565 S
H1609 C1597 0.930 . S
H1610 C1598 0.956 . S
H1611 C1598 0.961 . S
H1612 C1598 0.961 . S
H1613 C1599 0.958 . S
H1614 C1599 0.961 . S
H1615 C1599 0.960 . S
C1616 C1617 1.391 . S
C1616 C1618 1.394 . S
C1616 H1632 0.931 . S
C1617 C1616 1.391 . S
C1617 C1621 1.376 . S
C1618 C1616 1.394 . S
C1618 C1619 1.369 . S
C1618 C1622 1.531 . S
C1619 C1618 1.369 . S
C1619 C1620 1.410 . S
C1619 C1627 1.503 1_545 S
C1620 C1619 1.410 . S
C1620 C1621 1.392 . S
C1620 C1623 1.488 1_545 S
C1621 C1617 1.376 . S
C1621 C1620 1.392 . S
C1621 H1633 0.929 . S
C1622 C1618 1.531 . S
C1622 H1634 0.960 . S
C1622 H1635 0.962 . S
C1622 H1636 0.960 . S
C1623 C1620 1.488 1_565 S
C1623 H1637 0.951 1_565 S
C1623 H1638 0.989 . S
C1623 H1639 0.967 . S
C1624 C1625 1.370 . S
C1624 C1626 1.363 . S
C1624 H1640 0.931 . S
C1625 C1624 1.370 . S
C1625 C1629 1.408 . S
C1626 C1624 1.363 . S
C1626 C1627 1.370 . S
C1626 C1630 1.524 . S
C1627 C1619 1.503 1_565 S
C1627 C1626 1.370 . S
C1627 C1628 1.403 . S
C1628 C1627 1.403 . S
C1628 C1629 1.404 . S
C1628 C1631 1.539 . S
C1629 C1625 1.408 . S
C1629 C1628 1.404 . S
C1629 H1641 0.930 . S
C1630 C1626 1.524 . S
C1630 H1642 0.956 1_565 S
C1630 H1643 0.961 . S
C1630 H1644 0.961 . S
C1631 C1628 1.539 . S
C1631 H1645 0.958 . S
C1631 H1646 0.961 . S
C1631 H1647 0.960 . S
H1632 C1616 0.931 . S
H1633 C1621 0.929 . S
H1634 C1622 0.960 . S
H1635 C1622 0.962 . S
H1636 C1622 0.960 . S
H1637 C1623 0.951 1_545 S
H1638 C1623 0.989 . S
H1639 C1623 0.967 . S
H1640 C1624 0.931 . S
H1641 C1629 0.930 . S
H1642 C1630 0.956 1_545 S
H1643 C1630 0.961 . S
H1644 C1630 0.961 . S
H1645 C1631 0.958 . S
H1646 C1631 0.961 . S
H1647 C1631 0.960 . S
C1648 C1649 1.391 . S
C1648 C1650 1.394 . S
C1648 H1664 0.931 . S
C1649 C1648 1.391 . S
C1649 C1653 1.376 . S
C1650 C1648 1.394 . S
C1650 C1651 1.369 . S
C1650 C1654 1.531 1_655 S
C1651 C1650 1.369 . S
C1651 C1652 1.410 . S
C1651 C1659 1.503 1_655 S
C1652 C1651 1.410 . S
C1652 C1653 1.392 . S
C1652 C1655 1.511 . S
C1653 C1649 1.376 . S
C1653 C1652 1.392 . S
C1653 H1665 0.929 . S
C1654 C1650 1.531 1_455 S
C1654 H1666 0.960 . S
C1654 H1667 0.962 . S
C1654 H1668 0.960 1_455 S
C1655 C1652 1.511 . S
C1655 H1669 0.961 . S
C1655 H1670 0.961 . S
C1655 H1671 0.961 . S
C1656 C1657 1.370 . S
C1656 C1658 1.363 . S
C1656 H1672 0.931 . S
C1657 C1656 1.370 . S
C1657 C1661 1.408 . S
C1658 C1656 1.363 . S
C1658 C1659 1.370 . S
C1658 C1662 1.524 . S
C1659 C1651 1.503 1_455 S
C1659 C1658 1.370 . S
C1659 C1660 1.403 . S
C1660 C1659 1.403 . S
C1660 C1661 1.404 . S
C1660 C1663 1.539 . S
C1661 C1657 1.408 . S
C1661 C1660 1.404 . S
C1661 H1673 0.930 . S
C1662 C1658 1.524 . S
C1662 H1674 0.956 . S
C1662 H1675 0.961 1_455 S
C1662 H1676 0.961 . S
C1663 C1660 1.539 . S
C1663 H1677 0.958 . S
C1663 H1678 0.961 . S
C1663 H1679 0.965 . S
H1664 C1648 0.931 . S
H1665 C1653 0.929 . S
H1666 C1654 0.960 . S
H1667 C1654 0.962 . S
H1668 C1654 0.960 1_655 S
H1669 C1655 0.961 . S
H1670 C1655 0.961 . S
H1671 C1655 0.961 . S
H1672 C1656 0.931 . S
H1673 C1661 0.930 . S
H1674 C1662 0.956 . S
H1675 C1662 0.961 1_655 S
H1676 C1662 0.961 . S
H1677 C1663 0.958 . S
H1678 C1663 0.961 . S
H1679 C1663 0.965 . S
C1680 C1681 1.391 1_455 S
C1680 C1682 1.394 . S
C1680 H1696 0.931 . S
C1681 C1680 1.391 1_655 S
C1681 C1685 1.376 . S
C1682 C1680 1.394 . S
C1682 C1683 1.369 1_455 S
C1682 C1686 1.531 . S
C1683 C1682 1.369 1_655 S
C1683 C1684 1.410 . S
C1683 C1691 1.503 1_655 S
C1684 C1683 1.410 . S
C1684 C1685 1.392 . S
C1684 C1687 1.511 . S
C1685 C1681 1.376 . S
C1685 C1684 1.392 . S
C1685 H1697 0.929 . S
C1686 C1682 1.531 . S
C1686 H1698 0.960 . S
C1686 H1699 0.962 . S
C1686 H1700 0.960 . S
C1687 C1684 1.511 . S
C1687 H1701 0.961 . S
C1687 H1702 0.961 . S
C1687 H1703 0.961 . S
C1688 C1689 1.370 . S
C1688 C1690 1.363 . S
C1688 H1704 0.931 . S
C1689 C1688 1.370 . S
C1689 C1693 1.408 . S
C1690 C1688 1.363 . S
C1690 C1691 1.370 . S
C1690 C1694 1.524 . S
C1691 C1683 1.503 1_455 S
C1691 C1690 1.370 . S
C1691 C1692 1.403 1_455 S
C1692 C1691 1.403 1_655 S
C1692 C1693 1.404 1_655 S
C1692 C1695 1.539 . S
C1693 C1689 1.408 . S
C1693 C1692 1.404 1_455 S
C1693 H1705 0.930 . S
C1694 C1690 1.524 . S
C1694 H1706 0.956 . S
C1694 H1707 0.961 . S
C1694 H1708 0.961 . S
C1695 C1692 1.539 . S
C1695 H1709 0.958 . S
C1695 H1710 0.961 . S
C1695 H1711 0.960 . S
H1696 C1680 0.931 . S
H1697 C1685 0.929 . S
H1698 C1686 0.960 . S
H1699 C1686 0.962 . S
H1700 C1686 0.960 . S
H1701 C1687 0.961 . S
H1702 C1687 0.961 . S
H1703 C1687 0.961 . S
H1704 C1688 0.931 . S
H1705 C1693 0.930 . S
H1706 C1694 0.956 . S
H1707 C1694 0.961 . S
H1708 C1694 0.961 . S
H1709 C1695 0.958 . S
H1710 C1695 0.961 . S
H1711 C1695 0.960 . S
C1712 C1713 1.391 . S
C1712 C1714 1.394 1_545 S
C1712 H1728 0.931 . S
C1713 C1712 1.391 . S
C1713 C1717 1.376 . S
C1714 C1712 1.394 1_565 S
C1714 C1715 1.369 . S
C1714 C1718 1.531 . S
C1715 C1714 1.369 . S
C1715 C1716 1.410 1_565 S
C1715 C1723 1.503 . S
C1716 C1715 1.410 1_545 S
C1716 C1717 1.392 . S
C1716 C1719 1.511 . S
C1717 C1713 1.376 . S
C1717 C1716 1.392 . S
C1717 H1729 0.929 . S
C1718 C1714 1.531 . S
C1718 H1730 0.960 . S
C1718 H1731 0.962 1_565 S
C1718 H1732 0.960 . S
C1719 C1716 1.511 . S
C1719 H1733 0.961 . S
C1719 H1734 0.961 . S
C1719 H1735 0.961 1_545 S
C1720 C1721 1.370 1_545 S
C1720 C1722 1.363 . S
C1720 H1736 0.931 . S
C1721 C1720 1.370 1_565 S
C1721 C1725 1.408 . S
C1722 C1720 1.363 . S
C1722 C1723 1.370 1_545 S
C1722 C1726 1.524 . S
C1723 C1715 1.503 . S
C1723 C1722 1.370 1_565 S
C1723 C1724 1.403 . S
C1724 C1723 1.403 . S
C1724 C1725 1.404 . S
C1724 C1727 1.539 . S
C1725 C1721 1.408 . S
C1725 C1724 1.404 . S
C1725 H1737 0.930 . S
C1726 C1722 1.524 . S
C1726 H1738 0.956 . S
C1726 H1739 0.961 . S
C1726 H1740 0.961 . S
C1727 C1724 1.539 . S
C1727 H1741 0.958 . S
C1727 H1742 0.961 . S
C1727 H1743 0.960 . S
H1728 C1712 0.931 . S
H1729 C1717 0.929 . S
H1730 C1718 0.960 . S
H1731 C1718 0.962 1_545 S
H1732 C1718 0.960 . S
H1733 C1719 0.961 . S
H1734 C1719 0.961 . S
H1735 C1719 0.961 1_565 S
H1736 C1720 0.931 . S
H1737 C1725 0.930 . S
H1738 C1726 0.956 . S
H1739 C1726 0.961 . S
H1740 C1726 0.961 . S
H1741 C1727 0.958 . S
H1742 C1727 0.961 . S
H1743 C1727 0.960 . S
C1744 C1745 1.391 . S
C1744 C1746 1.394 . S
C1744 H1760 0.931 . S
C1745 C1744 1.391 . S
C1745 C1749 1.376 . S
C1746 C1744 1.394 . S
C1746 C1747 1.369 . S
C1746 C1750 1.531 . S
C1747 C1746 1.369 . S
C1747 C1748 1.410 . S
C1747 C1755 1.503 1_565 S
C1748 C1747 1.410 . S
C1748 C1749 1.392 . S
C1748 C1751 1.511 . S
C1749 C1745 1.376 . S
C1749 C1748 1.392 . S
C1749 H1761 0.929 . S
C1750 C1746 1.531 . S
C1750 H1762 0.960 . S
C1750 H1763 0.962 . S
C1750 H1764 0.960 . S
C1751 C1748 1.511 . S
C1751 H1765 0.961 . S
C1751 H1766 0.961 1_565 S
C1751 H1767 0.961 . S
C1752 C1753 1.370 . S
C1752 C1754 1.363 . S
C1752 H1768 0.931 . S
C1753 C1752 1.370 . S
C1753 C1757 1.408 . S
C1754 C1752 1.363 . S
C1754 C1755 1.370 . S
C1754 C1758 1.524 . S
C1755 C1747 1.503 1_545 S
C1755 C1754 1.370 . S
C1755 C1756 1.403 . S
C1756 C1755 1.403 . S
C1756 C1757 1.404 . S
C1756 C1759 1.539 . S
C1757 C1753 1.408 . S
C1757 C1756 1.404 . S
C1757 H1769 0.930 . S
C1758 C1754 1.524 . S
C1758 H1770 0.956 . S
C1758 H1771 0.961 . S
C1758 H1772 0.961 . S
C1759 C1756 1.539 . S
C1759 H1773 0.958 . S
C1759 H1774 0.961 . S
C1759 H1775 0.960 1_545 S
H1760 C1744 0.931 . S
H1761 C1749 0.929 . S
H1762 C1750 0.960 . S
H1763 C1750 0.962 . S
H1764 C1750 0.960 . S
H1765 C1751 0.961 . S
H1766 C1751 0.961 1_545 S
H1767 C1751 0.961 . S
H1768 C1752 0.931 . S
H1769 C1757 0.930 . S
H1770 C1758 0.956 . S
H1771 C1758 0.961 . S
H1772 C1758 0.961 . S
H1773 C1759 0.958 . S
H1774 C1759 0.961 . S
H1775 C1759 0.960 1_565 S
C1776 C1777 1.391 . S
C1776 C1778 1.394 . S
C1776 H1792 0.931 . S
C1777 C1776 1.391 . S
C1777 C1781 1.376 . S
C1778 C1776 1.394 . S
C1778 C1779 1.369 . S
C1778 C1782 1.531 . S
C1779 C1778 1.369 . S
C1779 C1780 1.410 . S
C1779 C1787 1.503 1_655 S
C1780 C1779 1.410 . S
C1780 C1781 1.392 . S
C1780 C1783 1.511 1_655 S
C1781 C1777 1.376 . S
C1781 C1780 1.392 . S
C1781 H1793 0.929 . S
C1782 C1778 1.531 . S
C1782 H1794 0.960 . S
C1782 H1795 0.962 . S
C1782 H1796 0.960 . S
C1783 C1780 1.511 1_455 S
C1783 H1797 0.961 1_455 S
C1783 H1798 0.961 . S
C1783 H1799 0.961 . S
C1784 C1785 1.370 . S
C1784 C1786 1.363 . S
C1784 H1800 0.931 . S
C1785 C1784 1.370 . S
C1785 C1789 1.408 . S
C1786 C1784 1.363 . S
C1786 C1787 1.370 . S
C1786 C1790 1.524 . S
C1787 C1779 1.503 1_455 S
C1787 C1786 1.370 . S
C1787 C1788 1.403 . S
C1788 C1787 1.403 . S
C1788 C1789 1.404 . S
C1788 C1791 1.539 . S
C1789 C1785 1.408 . S
C1789 C1788 1.404 . S
C1789 H1801 0.930 . S
C1790 C1786 1.524 . S
C1790 H1802 0.956 1_455 S
C1790 H1803 0.961 . S
C1790 H1804 0.961 . S
C1791 C1788 1.539 . S
C1791 H1805 0.958 . S
C1791 H1806 0.961 . S
C1791 H1807 0.960 . S
H1792 C1776 0.931 . S
H1793 C1781 0.929 . S
H1794 C1782 0.960 . S
H1795 C1782 0.962 . S
H1796 C1782 0.960 . S
H1797 C1783 0.961 1_655 S
H1798 C1783 0.961 . S
H1799 C1783 0.961 . S
H1800 C1784 0.931 . S
H1801 C1789 0.930 . S
H1802 C1790 0.956 1_655 S
H1803 C1790 0.961 . S
H1804 C1790 0.961 . S
H1805 C1791 0.958 . S
H1806 C1791 0.961 . S
H1807 C1791 0.960 . S
C529 C358 1.325 . S
C537 C28 1.335 . S
C561 C391 1.321 . S
C569 C61 1.336 . S
C593 C292 1.319 . S
C601 C94 1.333 . S
C625 C325 1.321 . S
C633 C127 1.336 . S
C657 C160 1.341 . S
C665 C490 1.341 . S
C689 C193 1.318 . S
C697 C523 1.333 . S
C721 C424 1.360 . S
C729 C226 1.351 . S
C753 C457 1.354 . S
C761 C259 1.347 . S
C785 C116 1.557 . S
C793 N5 1.483 . S
C817 N38 1.457 . S
C825 C17 1.550 . S
C849 C50 1.549 . S
C857 N71 1.488 . S
C881 N104 1.505 . S
C889 C83 1.537 . S
C913 C182 1.516 . S
C921 N137 1.508 . S
C945 C215 1.559 . S
C953 N170 1.482 . S
C977 C248 1.559 . S
C985 N203 1.482 . S
C1009 N236 1.477 . S
C1017 C149 1.544 . S
C1041 N269 1.503 . S
C1049 C380 1.534 . S
C1073 N302 1.467 . S
C1081 C281 1.545 . S
C1105 C314 1.528 . S
C1113 N335 1.505 . S
C1137 N368 1.462 . S
C1145 C347 1.549 . S
C1169 N401 1.465 . S
C1177 C446 1.545 . S
C1201 N434 1.527 . S
C1209 C479 1.530 . S
C1233 N467 1.501 . S
C1241 C512 1.541 . S
C1265 C413 1.526 . S
C1273 N500 1.506 . S
C1297 C239 0.844 . S
C1305 C8 0.888 . S
C1329 C41 0.870 . S
C1337 C140 0.882 . S
C1361 C173 0.877 . S
C1369 C74 0.879 . S
C1393 C206 0.870 . S
C1401 C107 0.881 . S
C1425 C272 0.881 . S
C1433 C503 0.864 . S
C1457 C404 0.842 . S
C1465 C305 0.886 . S
C1489 C338 0.857 . S
C1497 C437 0.888 . S
C1521 C470 0.842 . S
C1529 C371 0.886 . S
C1553 N80 1.641 . S
C1561 N14 1.634 . S
C1585 N113 1.602 . S
C1593 N47 1.622 . S
C1617 N146 1.641 . S
C1625 N212 1.634 . S
C1649 N179 1.603 . S
C1657 N245 1.618 . S
C1681 N278 1.606 . S
C1689 N344 1.618 . S
C1713 N377 1.611 . S
C1721 N311 1.625 . S
C1745 N410 1.601 . S
C1753 N476 1.619 . S
C1777 N509 1.602 . S
C1785 N443 1.617 . S
