# Generated by pormake.
# Topology smb, (6)-cn, num edge types: 1
# Building blocks:
#     Node 0, Type 0, BuildingBlock: OJICUG_clean_sbu_0, # of connection points: 6
#     Node 1, Type 0, BuildingBlock: OJICUG_clean_sbu_0, # of connection points: 6
#     Node 2, Type 0, BuildingBlock: OJICUG_clean_sbu_0, # of connection points: 6
#     Node 3, Type 0, BuildingBlock: OJICUG_clean_sbu_0, # of connection points: 6
#     Node 4, Type 0, BuildingBlock: OJICUG_clean_sbu_0, # of connection points: 6
#     Node 5, Type 0, BuildingBlock: OJICUG_clean_sbu_0, # of connection points: 6
#     Node 6, Type 0, BuildingBlock: OJICUG_clean_sbu_0, # of connection points: 6
#     Node 7, Type 0, BuildingBlock: OJICUG_clean_sbu_0, # of connection points: 6
#     Node 8, Type 0, BuildingBlock: OJICUG_clean_sbu_0, # of connection points: 6
#     Edge 9, Type (0, 0), BuildingBlock: AJUNOK_clean_linker_0, # of connection points: 2
#     Edge 10, Type (0, 0), BuildingBlock: AJUNOK_clean_linker_0, # of connection points: 2
#     Edge 11, Type (0, 0), BuildingBlock: AJUNOK_clean_linker_0, # of connection points: 2
#     Edge 12, Type (0, 0), BuildingBlock: AJUNOK_clean_linker_0, # of connection points: 2
#     Edge 13, Type (0, 0), BuildingBlock: AJUNOK_clean_linker_0, # of connection points: 2
#     Edge 14, Type (0, 0), BuildingBlock: AJUNOK_clean_linker_0, # of connection points: 2
#     Edge 15, Type (0, 0), BuildingBlock: AJUNOK_clean_linker_0, # of connection points: 2
#     Edge 16, Type (0, 0), BuildingBlock: AJUNOK_clean_linker_0, # of connection points: 2
#     Edge 17, Type (0, 0), BuildingBlock: AJUNOK_clean_linker_0, # of connection points: 2
#     Edge 18, Type (0, 0), BuildingBlock: AJUNOK_clean_linker_0, # of connection points: 2
#     Edge 19, Type (0, 0), BuildingBlock: AJUNOK_clean_linker_0, # of connection points: 2
#     Edge 20, Type (0, 0), BuildingBlock: AJUNOK_clean_linker_0, # of connection points: 2
#     Edge 21, Type (0, 0), BuildingBlock: AJUNOK_clean_linker_0, # of connection points: 2
#     Edge 22, Type (0, 0), BuildingBlock: AJUNOK_clean_linker_0, # of connection points: 2
#     Edge 23, Type (0, 0), BuildingBlock: AJUNOK_clean_linker_0, # of connection points: 2
#     Edge 24, Type (0, 0), BuildingBlock: AJUNOK_clean_linker_0, # of connection points: 2
#     Edge 25, Type (0, 0), BuildingBlock: AJUNOK_clean_linker_0, # of connection points: 2
#     Edge 26, Type (0, 0), BuildingBlock: AJUNOK_clean_linker_0, # of connection points: 2
#     Edge 27, Type (0, 0), BuildingBlock: AJUNOK_clean_linker_0, # of connection points: 2
#     Edge 28, Type (0, 0), BuildingBlock: AJUNOK_clean_linker_0, # of connection points: 2
#     Edge 29, Type (0, 0), BuildingBlock: AJUNOK_clean_linker_0, # of connection points: 2
#     Edge 30, Type (0, 0), BuildingBlock: AJUNOK_clean_linker_0, # of connection points: 2
#     Edge 31, Type (0, 0), BuildingBlock: AJUNOK_clean_linker_0, # of connection points: 2
#     Edge 32, Type (0, 0), BuildingBlock: AJUNOK_clean_linker_0, # of connection points: 2
#     Edge 33, Type (0, 0), BuildingBlock: AJUNOK_clean_linker_0, # of connection points: 2
#     Edge 34, Type (0, 0), BuildingBlock: AJUNOK_clean_linker_0, # of connection points: 2
#     Edge 35, Type (0, 0), BuildingBlock: AJUNOK_clean_linker_0, # of connection points: 2
# Relax obj value: 0.341
# Max RMSD: 0.254
# Mean RMSD: 0.254
data_MOF--net-smb--node1-OJICUG_clean_sbu_0--edge1-AJUNOK_clean_linker_0
_symmetry_space_group_name_H-M    P1
_symmetry_Int_Tables_number       1
_symmetry_cell_setting            triclinic
loop_
_symmetry_equiv_pos_as_xyz
'x, y, z'
_cell_length_a     31.07538
_cell_length_b     31.082356
_cell_length_c     21.879504
_cell_angle_alpha  90.122862
_cell_angle_beta   89.886737
_cell_angle_gamma 120.10136
loop_
_atom_site_label
_atom_site_type_symbol
_atom_site_fract_x
_atom_site_fract_y
_atom_site_fract_z
_atom_type_partial_charge
Sc0 Sc 0.31958 0.14643 0.03844 0.0
Sc1 Sc 0.40306 0.18942 0.91259 0.0
Sc2 Sc 0.44785 0.21534 0.06324 0.0
O3 O 0.39013 0.18366 0.00466 0.0
C4 C 0.37048 0.23904 0.12662 0.0
C5 C 0.31073 0.20636 0.92618 0.0
C6 C 0.48325 0.29699 0.95848 0.0
C7 C 0.31467 0.07765 0.92837 0.0
C8 C 0.37606 0.11438 0.13113 0.0
C9 C 0.48667 0.16888 0.96181 0.0
O10 O 0.332 0.20438 0.10144 0.0
O11 O 0.34875 0.21169 0.89763 0.0
O12 O 0.48303 0.28313 0.01295 0.0
O13 O 0.29965 0.08499 0.97909 0.0
O14 O 0.41839 0.15175 0.12041 0.0
O15 O 0.45917 0.16839 0.91868 0.0
O16 O 0.33639 0.10658 0.10513 0.0
O17 O 0.35012 0.11208 0.89818 0.0
O18 O 0.48677 0.18538 0.01498 0.0
O19 O 0.29533 0.18208 0.97557 0.0
O20 O 0.41417 0.24725 0.11728 0.0
O21 O 0.45811 0.26739 0.91575 0.0
Sc22 Sc 0.81565 0.15207 0.03051 0.0
Sc23 Sc 0.76816 0.1866 0.90667 0.0
Sc24 Sc 0.7436 0.2061 0.05528 0.0
O25 O 0.77652 0.18209 -0.00277 0.0
C26 C 0.73007 0.11116 0.12481 0.0
C27 C 0.75571 0.08065 0.91975 0.0
C28 C 0.66015 0.15419 0.9598 0.0
C29 C 0.88148 0.21375 0.91985 0.0
C30 C 0.84639 0.24616 0.1159 0.0
C31 C 0.77563 0.28443 0.94587 0.0
O32 O 0.75505 0.10143 0.08727 0.0
O33 O 0.74173 0.10898 0.89643 0.0
O34 O 0.67316 0.15694 0.01535 0.0
O35 O 0.8778 0.19971 0.97497 0.0
O36 O 0.8129 0.25486 0.09696 0.0
O37 O 0.79313 0.26448 0.91084 0.0
O38 O 0.8487 0.20763 0.10168 0.0
O39 O 0.84413 0.2061 0.88779 0.0
O40 O 0.75274 0.26461 -0.00477 0.0
O41 O 0.78711 0.09423 0.96299 0.0
O42 O 0.72917 0.15143 0.12386 0.0
O43 O 0.69138 0.169 0.91594 0.0
Sc44 Sc 0.81514 0.6363 0.02891 0.0
Sc45 Sc 0.76763 0.55517 0.90386 0.0
Sc46 Sc 0.74062 0.51017 0.05171 0.0
O47 O 0.77521 0.56742 -0.00541 0.0
C48 C 0.84263 0.57089 0.11472 0.0
C49 C 0.88141 0.64025 0.91904 0.0
C50 C 0.77293 0.46368 0.94264 0.0
C51 C 0.75726 0.64979 0.91771 0.0
C52 C 0.7288 0.59254 0.12177 0.0
C53 C 0.65851 0.48152 0.95501 0.0
O54 O 0.84604 0.61222 0.10064 0.0
O55 O 0.84411 0.61121 0.88629 0.0
O56 O 0.74924 0.46047 -0.00862 0.0
O57 O 0.78858 0.66705 0.96111 0.0
O58 O 0.72679 0.55085 0.12042 0.0
O59 O 0.69021 0.49673 0.91161 0.0
O60 O 0.75448 0.62724 0.0846 0.0
O61 O 0.74255 0.60734 0.89401 0.0
O62 O 0.67104 0.49068 0.01081 0.0
O63 O 0.87753 0.64997 0.97444 0.0
O64 O 0.80901 0.52908 0.09453 0.0
O65 O 0.79143 0.50144 0.90815 0.0
Sc66 Sc -0.00973 0.48225 0.36809 0.0
Sc67 Sc 0.0735 0.52676 0.24181 0.0
Sc68 Sc 0.11854 0.54858 0.39243 0.0
O69 O 0.06067 0.51913 0.33391 0.0
C70 C 0.04268 0.5726 0.45935 0.0
C71 C -0.01966 0.54198 0.25631 0.0
C72 C 0.15468 0.63298 0.29119 0.0
C73 C -0.01678 0.4154 0.25479 0.0
C74 C 0.04626 0.44708 0.45785 0.0
C75 C 0.15712 0.50499 0.28743 0.0
O76 O 0.00393 0.54006 0.4322 0.0
O77 O 0.01913 0.54905 0.22817 0.0
O78 O 0.15389 0.61755 0.34496 0.0
O79 O 0.96931 0.42169 0.30692 0.0
O80 O 0.089 0.48347 0.44645 0.0
O81 O 0.1294 0.50521 0.24507 0.0
O82 O 0.00657 0.4411 0.43377 0.0
O83 O 0.01923 0.44996 0.22531 0.0
O84 O 0.15718 0.52018 0.34126 0.0
O85 O 0.96538 0.51782 0.30589 0.0
O86 O 0.08573 0.57905 0.45013 0.0
O87 O 0.12942 0.60462 0.24746 0.0
Sc88 Sc 0.48311 0.48381 0.36233 0.0
Sc89 Sc 0.44265 0.52796 0.23803 0.0
Sc90 Sc 0.42221 0.5507 0.38962 0.0
O91 O 0.44929 0.52075 0.32993 0.0
C92 C 0.3945 0.44997 0.45649 0.0
C93 C 0.41869 0.41612 0.25183 0.0
C94 C 0.33807 0.50672 0.28696 0.0
C95 C 0.55205 0.54519 0.2503 0.0
C96 C 0.52323 0.57449 0.45327 0.0
C97 C 0.46922 0.63422 0.28677 0.0
O98 O 0.42671 0.44296 0.42975 0.0
O99 O 0.41777 0.45085 0.22246 0.0
O100 O 0.3537 0.52133 0.34085 0.0
O101 O 0.54327 0.52049 0.29933 0.0
O102 O 0.48719 0.58192 0.44468 0.0
O103 O 0.46581 0.60571 0.2432 0.0
O104 O 0.52828 0.54127 0.42614 0.0
O105 O 0.51915 0.55034 0.22237 0.0
O106 O 0.45476 0.61914 0.34078 0.0
O107 O 0.44153 0.42303 0.30203 0.0
O108 O 0.38819 0.48641 0.44566 0.0
O109 O 0.36564 0.50744 0.24369 0.0
Sc110 Sc 0.4853 0.97717 0.36778 0.0
Sc111 Sc 0.44185 0.89314 0.24239 0.0
Sc112 Sc 0.42165 0.849 0.39348 0.0
O113 O 0.44953 0.90648 0.33446 0.0
C114 C 0.52389 0.924 0.45637 0.0
C115 C 0.55277 0.98369 0.25452 0.0
C116 C 0.46655 0.81175 0.28859 0.0
C117 C 0.42176 0.98338 0.25837 0.0
C118 C 0.39707 0.92365 0.46241 0.0
C119 C 0.33642 0.81138 0.29246 0.0
O120 O 0.52937 0.96293 0.43077 0.0
O121 O 0.5188 0.94652 0.22601 0.0
O122 O 0.45199 0.81189 0.3427 0.0
O123 O 0.44531 -0.00133 0.30831 0.0
O124 O 0.38997 0.88058 0.45146 0.0
O125 O 0.36419 0.83742 0.2488 0.0
O126 O 0.42929 0.96261 0.43526 0.0
O127 O 0.41862 0.9468 0.22862 0.0
O128 O 0.35235 0.81179 0.34595 0.0
O129 O 0.5451 -0.00061 0.30455 0.0
O130 O 0.48732 0.88084 0.4472 0.0
O131 O 0.46382 0.83766 0.24573 0.0
Sc132 Sc 0.66392 0.81857 0.69407 0.0
Sc133 Sc 0.74531 0.85905 0.56602 0.0
Sc134 Sc 0.79258 0.88401 0.71561 0.0
O135 O 0.73389 0.85385 0.65849 0.0
C136 C 0.71864 0.90974 0.78408 0.0
C137 C 0.65506 0.87895 0.58261 0.0
C138 C 0.82803 0.96554 0.61055 0.0
C139 C 0.65529 0.74859 0.5832 0.0
C140 C 0.71973 0.78425 0.78471 0.0
C141 C 0.82857 0.83707 0.61179 0.0
O142 O 0.67927 0.87638 0.75886 0.0
O143 O 0.69152 0.882 0.55261 0.0
O144 O 0.82833 0.9515 0.66482 0.0
O145 O 0.64092 0.75707 0.63369 0.0
O146 O 0.7625 0.82055 0.77293 0.0
O147 O 0.80109 0.83757 0.56937 0.0
O148 O 0.68012 0.77722 0.75926 0.0
O149 O 0.69154 0.78202 0.55298 0.0
O150 O 0.82919 0.85278 0.66549 0.0
O151 O 0.64051 0.85611 0.63304 0.0
O152 O 0.76168 0.91702 0.77236 0.0
O153 O 0.80115 0.93652 0.56835 0.0
Sc154 Sc 0.15079 0.81433 0.70329 0.0
Sc155 Sc 0.11442 0.86107 0.57784 0.0
Sc156 Sc 0.08546 0.87729 0.72822 0.0
O157 O 0.11697 0.85095 0.66971 0.0
C158 C 0.05664 0.77419 0.78963 0.0
C159 C 0.09224 0.74969 0.58772 0.0
C160 C 0.00688 0.83579 0.61945 0.0
C161 C 0.22388 0.8796 0.59639 0.0
C162 C 0.18456 0.90209 0.79814 0.0
C163 C 0.13491 0.96457 0.62994 0.0
O164 O 0.09125 0.7697 0.76542 0.0
O165 O 0.09145 0.78485 0.55935 0.0
O166 O 0.01928 0.84796 0.67476 0.0
O167 O 0.21384 0.85416 0.64496 0.0
O168 O 0.14795 0.90828 0.78761 0.0
O169 O 0.1358 0.93812 0.58629 0.0
O170 O 0.19171 0.87012 0.77102 0.0
O171 O 0.19158 0.88472 0.56697 0.0
O172 O 0.11805 0.94747 0.6827 0.0
O173 O 0.11327 0.75542 0.63911 0.0
O174 O 0.0501 0.81066 0.78024 0.0
O175 O 0.03711 0.83939 0.57808 0.0
Sc176 Sc 0.1509 0.31072 0.70281 0.0
Sc177 Sc 0.11397 0.2281 0.57627 0.0
Sc178 Sc 0.08408 0.18225 0.72622 0.0
O179 O 0.1164 0.2404 0.66832 0.0
C180 C 0.18334 0.2557 0.79687 0.0
C181 C 0.22347 0.3194 0.59456 0.0
C182 C 0.13418 0.14494 0.62817 0.0
C183 C 0.09247 0.31776 0.58804 0.0
C184 C 0.05635 0.25668 0.78895 0.0
C185 C 0.00613 0.14554 0.61681 0.0
O186 O 0.19192 0.29499 0.76914 0.0
O187 O 0.19121 0.28174 0.56524 0.0
O188 O 0.11699 0.14507 0.68077 0.0
O189 O 0.11331 0.33253 0.63969 0.0
O190 O 0.04857 0.2134 0.77793 0.0
O191 O 0.03656 0.17242 0.57578 0.0
O192 O 0.09194 0.29588 0.76612 0.0
O193 O 0.09146 0.2819 0.55881 0.0
O194 O 0.01829 0.14553 0.6721 0.0
O195 O 0.21357 0.33444 0.64362 0.0
O196 O 0.1459 0.21326 0.78667 0.0
O197 O 0.13514 0.17217 0.58442 0.0
C198 C 0.23873 -0.0057 0.92425 0.0
C199 C 0.28655 0.0275 0.90146 0.0
C200 C 0.20708 0.9505 0.89324 0.0
C201 C 0.22249 0.93794 0.83925 0.0
H202 H 0.22412 0.00361 0.96395 0.0
H203 H 0.16916 0.92792 0.90938 0.0
S204 S 0.3468 0.00655 0.76689 0.0
N205 N 0.35022 0.04097 0.82636 0.0
N206 N 0.29007 0.95773 0.76825 0.0
C207 C 0.27167 0.96779 0.81931 0.0
C208 C 0.30392 0.01295 0.85041 0.0
C209 C 0.96737 0.22731 0.91734 0.0
C210 C 0.9308 0.23533 0.89053 0.0
C211 C 0.01088 0.23881 0.88591 0.0
C212 C 0.01983 0.25985 0.82748 0.0
H213 H 0.96106 0.20891 0.96115 0.0
H214 H 0.03628 0.22841 0.90581 0.0
S215 S 0.94067 0.29589 0.74096 0.0
N216 N 0.90959 0.27125 0.80484 0.0
N217 N -0.0076 0.29339 0.74619 0.0
C218 C -0.01383 0.27232 0.80228 0.0
C219 C 0.94129 0.25992 0.83379 0.0
C220 C 0.69882 0.69819 0.80642 0.0
C221 C 0.71777 0.74715 0.82668 0.0
C222 C 0.70962 0.66583 0.83815 0.0
C223 C 0.73954 0.68164 0.89106 0.0
H224 H 0.67889 0.68608 0.76348 0.0
H225 H 0.69663 0.62916 0.81908 0.0
S226 S 0.78857 0.80405 0.96839 0.0
N227 N 0.76104 0.80831 0.90614 0.0
N228 N 0.7807 0.74743 0.96732 0.0
C229 C 0.75436 0.72928 0.91474 0.0
C230 C 0.74365 0.76215 0.88203 0.0
C231 C 0.01018 0.74615 0.88597 0.0
C232 C 0.01968 0.73431 0.8276 0.0
C233 C 0.96677 0.71352 0.91717 0.0
C234 C 0.93082 0.66853 0.89017 0.0
H235 H 0.03512 0.78213 0.9061 0.0
H236 H 0.96 0.72541 0.96094 0.0
S237 S 0.94221 0.61838 0.74064 0.0
N238 N -0.00659 0.67318 0.74617 0.0
N239 N 0.91071 0.61143 0.80434 0.0
C240 C 0.94183 0.65476 0.83345 0.0
C241 C -0.01335 0.68784 0.8022 0.0
C242 C 0.26724 0.26869 0.81365 0.0
C243 C 0.22076 0.25683 0.83765 0.0
C244 C 0.29745 0.25432 0.84421 0.0
C245 C 0.28199 0.22787 0.89971 0.0
H246 H 0.27845 0.28543 0.76878 0.0
H247 H 0.33186 0.26178 0.82247 0.0
S248 S 0.16676 0.19715 0.98595 0.0
N249 N 0.16305 0.2237 0.92249 0.0
N250 N 0.22001 0.19759 0.98159 0.0
C251 C 0.23745 0.22031 0.92675 0.0
C252 C 0.2067 0.23456 0.89518 0.0
C253 C 0.69811 0.97512 0.80594 0.0
C254 C 0.71594 0.94434 0.82642 0.0
C255 C 0.70872 0.01801 0.83852 0.0
C256 C 0.73735 0.03104 0.89246 0.0
H257 H 0.67933 0.96816 0.76226 0.0
H258 H 0.6968 0.0424 0.81926 0.0
S259 S 0.78279 0.95522 0.97046 0.0
N260 N 0.75656 0.9245 0.90697 0.0
N261 N 0.77576 0.00446 0.96976 0.0
C262 C 0.75084 -0.00265 0.91627 0.0
C263 C 0.74034 0.95408 0.88271 0.0
C264 C 0.86823 0.2972 0.20875 0.0
C265 C 0.88388 0.28286 0.15647 0.0
C266 C 0.90176 0.33837 0.2427 0.0
C267 C 0.95182 0.36727 0.22447 0.0
H268 H 0.82938 0.27756 0.22209 0.0
H269 H 0.88743 0.34919 0.28135 0.0
S270 S 0.01151 0.34127 0.09352 0.0
N271 N 0.95253 0.29693 0.09033 0.0
N272 N 0.01621 0.37569 0.15359 0.0
C273 C 0.96845 0.35144 0.17396 0.0
C274 C 0.93422 0.30877 0.14002 0.0
C275 C 0.61144 0.58913 0.16482 0.0
C276 C 0.60231 0.56729 0.22329 0.0
C277 C 0.65609 0.60326 0.13423 0.0
C278 C 0.69267 0.59572 0.16113 0.0
H279 H 0.58295 0.59275 0.14087 0.0
H280 H 0.66009 0.61595 0.08736 0.0
S281 S 0.6922 0.55024 0.31733 0.0
N282 N 0.63776 0.54702 0.31062 0.0
N283 N 0.72097 0.57236 0.25157 0.0
C284 C 0.68626 0.57854 0.22134 0.0
C285 C 0.64117 0.56459 0.25289 0.0
C286 C 0.40445 0.09221 0.22415 0.0
C287 C 0.37512 0.07663 0.17131 0.0
C288 C 0.41659 0.06041 0.25437 0.0
C289 C 0.40049 0.01218 0.23199 0.0
H290 H 0.4206 0.13026 0.24008 0.0
H291 H 0.44143 0.07507 0.29321 0.0
S292 S 0.31608 0.95172 0.10016 0.0
N293 N 0.32504 0.00876 0.10164 0.0
N294 N 0.34797 0.94824 0.15838 0.0
C295 C 0.36751 -0.00519 0.18202 0.0
C296 C 0.35469 0.02727 0.15168 0.0
C297 C 0.65639 0.02803 0.13772 0.0
C298 C 0.69355 0.07216 0.16436 0.0
C299 C 0.61168 -0.00199 0.16859 0.0
C300 C 0.60304 0.01121 0.22712 0.0
H301 H 0.66004 0.01894 0.09084 0.0
H302 H 0.5828 0.96588 0.14486 0.0
S303 S 0.69447 0.11829 0.32059 0.0
N304 N 0.72282 0.12424 0.25467 0.0
N305 N 0.63958 0.06739 0.3142 0.0
C306 C 0.64245 0.05273 0.25646 0.0
C307 C 0.68759 0.08336 0.22463 0.0
C308 C 0.89594 0.52834 0.23779 0.0
C309 C 0.94737 0.55662 0.22642 0.0
C310 C 0.86231 0.53494 0.20289 0.0
C311 C 0.87903 0.57073 0.15647 0.0
H312 H 0.88115 0.49884 0.27147 0.0
H313 H 0.82284 0.51077 0.21094 0.0
S314 S 0.00971 0.65862 0.11349 0.0
N315 N 0.01365 0.62479 0.169 0.0
N316 N 0.94972 0.63778 0.10386 0.0
C317 C 0.93026 0.60174 0.1473 0.0
C318 C 0.96469 0.59447 0.1822 0.0
C319 C 0.36523 0.31475 0.13282 0.0
C320 C 0.36632 0.27568 0.16311 0.0
C321 C 0.3792 0.35937 0.16317 0.0
C322 C 0.39479 0.366 0.22458 0.0
H323 H 0.35769 0.31234 0.08419 0.0
H324 H 0.38094 0.38976 0.13704 0.0
S325 S 0.39408 0.26978 0.32596 0.0
N326 N 0.37728 0.24279 0.2583 0.0
N327 N 0.40218 0.32611 0.31698 0.0
C328 C 0.39095 0.32491 0.25674 0.0
C329 C 0.37712 0.27978 0.22544 0.0
C330 C 0.63941 0.68881 0.49821 0.0
C331 C 0.6265 0.69837 0.55643 0.0
C332 C 0.60779 0.64494 0.46689 0.0
C333 C 0.56254 0.60964 0.49297 0.0
H334 H 0.6726 0.71653 0.47495 0.0
H335 H 0.61677 0.64058 0.42022 0.0
S336 S 0.51563 0.61123 0.64782 0.0
N337 N 0.56867 0.66434 0.64246 0.0
N338 N 0.5089 0.58259 0.58193 0.0
C339 C 0.55126 0.6162 0.55285 0.0
C340 C 0.58346 0.66048 0.58517 0.0
C341 C 0.32942 0.941 0.4831 0.0
C342 C 0.36254 0.92649 0.50489 0.0
C343 C 0.28585 0.92848 0.51532 0.0
C344 C 0.27438 0.90121 0.57026 0.0
H345 H 0.33504 0.95824 0.43857 0.0
H346 H 0.25972 0.93767 0.49497 0.0
S347 S 0.35608 0.86469 0.65165 0.0
N348 N 0.38598 0.89072 0.58765 0.0
N349 N 0.30471 0.86801 0.64977 0.0
C350 C 0.31035 0.89148 0.59548 0.0
C351 C 0.35434 0.90386 0.56222 0.0
C352 C 0.08359 0.39272 0.58368 0.0
C353 C 0.0711 0.34581 0.55965 0.0
C354 C 0.07096 0.42393 0.55285 0.0
C355 C 0.04463 0.40895 0.49774 0.0
H356 H 0.10595 0.40694 0.62462 0.0
H357 H 0.08454 0.46124 0.57024 0.0
S358 S -0.00431 0.28729 0.42047 0.0
N359 N 0.02523 0.28356 0.48112 0.0
N360 N 0.0014 0.34303 0.42335 0.0
C361 C 0.02781 0.36074 0.47591 0.0
C362 C 0.04116 0.32892 0.50687 0.0
C363 C 0.2857 0.33276 0.51352 0.0
C364 C 0.27355 0.34931 0.56747 0.0
C365 C 0.32851 0.36428 0.48016 0.0
C366 C 0.36012 0.41318 0.49975 0.0
H367 H 0.26064 0.29624 0.4949 0.0
H368 H 0.33469 0.3517 0.43651 0.0
S369 S 0.35151 0.4717 0.64317 0.0
N370 N 0.30173 0.41564 0.64357 0.0
N371 N 0.38156 0.47484 0.57955 0.0
C372 C 0.3513 0.4287 0.55613 0.0
C373 C 0.30812 0.39667 0.59049 0.0
C374 C 0.60692 0.93397 0.46626 0.0
C375 C 0.56343 0.92705 0.4944 0.0
C376 C 0.63817 0.92092 0.49664 0.0
C377 C 0.6266 0.9006 0.55597 0.0
H378 H 0.6147 0.94569 0.41894 0.0
H379 H 0.6699 0.92413 0.47196 0.0
S380 S 0.52074 0.88468 0.65213 0.0
N381 N 0.51291 0.90521 0.58594 0.0
N382 N 0.57215 0.88184 0.64476 0.0
C383 C 0.58539 0.89823 0.58641 0.0
C384 C 0.55352 0.9111 0.55503 0.0
C385 C 0.0628 0.6186 0.55582 0.0
C386 C 0.0402 0.60915 0.49831 0.0
C387 C 0.07677 0.66312 0.58608 0.0
C388 C 0.0695 0.70009 0.55906 0.0
H389 H 0.07275 0.59282 0.5756 0.0
H390 H 0.09612 0.66959 0.62922 0.0
S391 S 0.00536 0.68921 0.41179 0.0
N392 N 0.00599 0.63659 0.41784 0.0
N393 N 0.0324 0.72117 0.47435 0.0
C394 C 0.04309 0.68908 0.50351 0.0
C395 C 0.02834 0.64325 0.47316 0.0
C396 C 0.53166 0.12711 -0.00231 0.0
C397 C 0.52219 0.15172 0.9505 0.0
C398 C 0.57389 0.12229 -0.00354 0.0
C399 C 0.60862 0.14283 0.94851 0.0
H400 H 0.50806 0.11448 0.03788 0.0
H401 H 0.58144 0.1062 0.03601 0.0
S402 S 0.59435 0.20077 0.80745 0.0
N403 N 0.54539 0.18877 0.84952 0.0
N404 N 0.62568 0.18037 0.84714 0.0
C405 C 0.59618 0.16186 0.89733 0.0
C406 C 0.55269 0.16635 0.89846 0.0
C407 C 0.81986 0.41982 0.9217 0.0
C408 C 0.77445 0.41933 0.92445 0.0
C409 C 0.82056 0.375 0.92272 0.0
C410 C 0.77584 0.32938 0.92653 0.0
H411 H 0.85473 0.45471 0.92399 0.0
H412 H 0.85593 0.37619 0.92566 0.0
S413 S 0.64777 0.30906 0.92429 0.0
N414 N 0.68424 0.37008 0.92283 0.0
N415 N 0.68551 0.28607 0.92496 0.0
C416 C 0.73046 0.32867 0.9234 0.0
C417 C 0.72977 0.37381 0.92228 0.0
C418 C 0.59645 0.40803 0.89588 0.0
C419 C 0.60659 0.4431 0.94259 0.0
C420 C 0.55273 0.36158 0.89697 0.0
C421 C 0.51825 0.34934 0.94468 0.0
H422 H 0.62453 0.41423 0.8621 0.0
H423 H 0.54848 0.33357 0.86413 0.0
S424 S 0.52094 0.4331 0.06721 0.0
N425 N 0.57368 0.46637 0.02966 0.0
N426 N 0.49178 0.37881 0.03192 0.0
C427 C 0.52482 0.38639 0.98654 0.0
C428 C 0.56901 0.43355 0.98533 0.0
C429 C 0.25068 0.46701 0.32044 0.0
C430 C 0.28618 0.49217 0.27456 0.0
C431 C 0.20545 0.46618 0.32022 0.0
C432 C 0.19446 0.49064 0.27423 0.0
H433 H 0.25954 0.45131 0.35932 0.0
H434 H 0.18077 0.44999 0.35906 0.0
S435 S 0.27137 0.55416 0.13836 0.0
N436 N 0.30475 0.53582 0.17742 0.0
N437 N 0.21917 0.53446 0.17722 0.0
C438 C 0.227 0.51081 0.22434 0.0
C439 C 0.27325 0.51156 0.22448 0.0
C440 C 0.46161 0.74246 0.22666 0.0
C441 C 0.48307 0.77613 0.27538 0.0
C442 C 0.4625 0.69783 0.22608 0.0
C443 C 0.48487 0.68628 0.27421 0.0
H444 H 0.43964 0.74807 0.19258 0.0
H445 H 0.44109 0.67021 0.19162 0.0
S446 S 0.55753 0.76854 0.40254 0.0
N447 N 0.53584 0.79991 0.36544 0.0
N448 N 0.53748 0.71599 0.36437 0.0
C449 C 0.51214 0.72272 0.31828 0.0
C450 C 0.51123 0.76786 0.31887 0.0
C451 C 0.27094 0.74206 0.23112 0.0
C452 C 0.28392 0.77514 0.28069 0.0
C453 C 0.22514 0.69746 0.23047 0.0
C454 C 0.19155 0.68526 0.27933 0.0
H455 H 0.29808 0.74817 0.19603 0.0
H456 H 0.2184 0.67036 0.19506 0.0
S457 S 0.20318 0.76576 0.41085 0.0
N458 N 0.25607 0.79749 0.37307 0.0
N459 N 0.16994 0.71389 0.37166 0.0
C460 C 0.20157 0.72113 0.32464 0.0
C461 C 0.24797 0.76615 0.32542 0.0
C462 C 0.91765 0.79362 0.64454 0.0
C463 C 0.95594 0.82192 0.60286 0.0
C464 C 0.8729 0.79371 0.64239 0.0
C465 C 0.86525 0.82205 0.59849 0.0
H466 H 0.92398 0.77488 0.68222 0.0
H467 H 0.84596 0.77519 0.67859 0.0
S468 S 0.9509 0.89597 0.47353 0.0
N469 N -0.01885 0.87355 0.51169 0.0
N470 N 0.8964 0.8737 0.50775 0.0
C471 C 0.90078 0.8457 0.55225 0.0
C472 C 0.94653 0.84562 0.55442 0.0
C473 C 0.17132 0.05116 0.66607 0.0
C474 C 0.14895 0.01648 0.61859 0.0
C475 C 0.17129 0.09599 0.66549 0.0
C476 C 0.14881 0.10744 0.61746 0.0
H477 H 0.18553 0.04193 0.70613 0.0
H478 H 0.18543 0.12006 0.70517 0.0
S479 S 0.09138 0.03205 0.47845 0.0
N480 N 0.10904 -0.00119 0.51895 0.0
N481 N 0.10888 0.08356 0.51797 0.0
C482 C 0.13105 0.07556 0.56665 0.0
C483 C 0.13113 0.02975 0.56721 0.0
C484 C 0.87202 0.05392 0.6392 0.0
C485 C 0.86463 0.01718 0.59633 0.0
C486 C 0.91674 0.09896 0.64094 0.0
C487 C 0.95524 0.10842 0.59985 0.0
H488 H 0.84492 0.04598 0.67506 0.0
H489 H 0.92291 0.12462 0.67802 0.0
S490 S 0.95097 0.02725 0.47304 0.0
N491 N 0.8963 -0.00463 0.50699 0.0
N492 N -0.01903 0.08065 0.51019 0.0
C493 C 0.9461 0.07452 0.55227 0.0
C494 C 0.90039 0.02848 0.55051 0.0
loop_
_geom_bond_atom_site_label_1
_geom_bond_atom_site_label_2
_geom_bond_distance
_geom_bond_site_symmetry_2
_ccdc_geom_bond_type
Sc0 O3 2.025 . S
Sc0 O10 2.105 . S
Sc0 O13 2.105 1_554 S
Sc0 O16 2.105 . S
Sc0 O19 2.105 1_554 S
Sc1 O3 2.025 1_556 S
Sc1 O11 2.105 . S
Sc1 O15 2.105 . S
Sc1 O17 2.105 . S
Sc1 O21 2.105 . S
Sc2 O3 2.025 . S
Sc2 O12 2.105 . S
Sc2 O14 2.105 . S
Sc2 O18 2.105 . S
Sc2 O20 2.105 . S
O3 Sc0 2.025 . S
O3 Sc1 2.025 1_554 S
O3 Sc2 2.025 . S
C4 O10 1.268 . S
C4 O20 1.268 . S
C5 O11 1.268 . S
C5 O19 1.268 . S
C6 O12 1.268 1_556 S
C6 O21 1.268 . S
C7 O13 1.268 . S
C7 O17 1.268 . S
C8 O14 1.268 . S
C8 O16 1.268 . S
C9 O15 1.268 . S
C9 O18 1.268 1_556 S
O10 Sc0 2.105 . S
O10 C4 1.268 . S
O11 Sc1 2.105 . S
O11 C5 1.268 . S
O12 Sc2 2.105 . S
O12 C6 1.268 1_554 S
O13 Sc0 2.105 1_556 S
O13 C7 1.268 . S
O14 Sc2 2.105 . S
O14 C8 1.268 . S
O15 Sc1 2.105 . S
O15 C9 1.268 . S
O16 Sc0 2.105 . S
O16 C8 1.268 . S
O17 Sc1 2.105 . S
O17 C7 1.268 . S
O18 Sc2 2.105 . S
O18 C9 1.268 1_554 S
O19 Sc0 2.105 1_556 S
O19 C5 1.268 . S
O20 Sc2 2.105 . S
O20 C4 1.268 . S
O21 Sc1 2.105 . S
O21 C6 1.268 . S
Sc22 O25 2.025 . S
Sc22 O32 2.105 . S
Sc22 O35 2.105 1_554 S
Sc22 O38 2.105 . S
Sc22 O41 2.105 1_554 S
Sc23 O25 2.025 1_556 S
Sc23 O33 2.105 . S
Sc23 O37 2.105 . S
Sc23 O39 2.105 . S
Sc23 O43 2.105 . S
Sc24 O25 2.025 . S
Sc24 O34 2.105 . S
Sc24 O36 2.105 . S
Sc24 O40 2.105 . S
Sc24 O42 2.105 . S
O25 Sc22 2.025 . S
O25 Sc23 2.025 1_554 S
O25 Sc24 2.025 . S
C26 O32 1.268 . S
C26 O42 1.268 . S
C27 O33 1.268 . S
C27 O41 1.268 . S
C28 O34 1.268 1_556 S
C28 O43 1.268 . S
C29 O35 1.268 . S
C29 O39 1.268 . S
C30 O36 1.268 . S
C30 O38 1.268 . S
C31 O37 1.268 . S
C31 O40 1.268 1_556 S
O32 Sc22 2.105 . S
O32 C26 1.268 . S
O33 Sc23 2.105 . S
O33 C27 1.268 . S
O34 Sc24 2.105 . S
O34 C28 1.268 1_554 S
O35 Sc22 2.105 1_556 S
O35 C29 1.268 . S
O36 Sc24 2.105 . S
O36 C30 1.268 . S
O37 Sc23 2.105 . S
O37 C31 1.268 . S
O38 Sc22 2.105 . S
O38 C30 1.268 . S
O39 Sc23 2.105 . S
O39 C29 1.268 . S
O40 Sc24 2.105 . S
O40 C31 1.268 1_554 S
O41 Sc22 2.105 1_556 S
O41 C27 1.268 . S
O42 Sc24 2.105 . S
O42 C26 1.268 . S
O43 Sc23 2.105 . S
O43 C28 1.268 . S
Sc44 O47 2.025 . S
Sc44 O54 2.105 . S
Sc44 O57 2.105 1_554 S
Sc44 O60 2.105 . S
Sc44 O63 2.105 1_554 S
Sc45 O47 2.025 1_556 S
Sc45 O55 2.105 . S
Sc45 O59 2.105 . S
Sc45 O61 2.105 . S
Sc45 O65 2.105 . S
Sc46 O47 2.025 . S
Sc46 O56 2.105 . S
Sc46 O58 2.105 . S
Sc46 O62 2.105 . S
Sc46 O64 2.105 . S
O47 Sc44 2.025 . S
O47 Sc45 2.025 1_554 S
O47 Sc46 2.025 . S
C48 O54 1.268 . S
C48 O64 1.268 . S
C49 O55 1.268 . S
C49 O63 1.268 . S
C50 O56 1.268 1_556 S
C50 O65 1.268 . S
C51 O57 1.268 . S
C51 O61 1.268 . S
C52 O58 1.268 . S
C52 O60 1.268 . S
C53 O59 1.268 . S
C53 O62 1.268 1_556 S
O54 Sc44 2.105 . S
O54 C48 1.268 . S
O55 Sc45 2.105 . S
O55 C49 1.268 . S
O56 Sc46 2.105 . S
O56 C50 1.268 1_554 S
O57 Sc44 2.105 1_556 S
O57 C51 1.268 . S
O58 Sc46 2.105 . S
O58 C52 1.268 . S
O59 Sc45 2.105 . S
O59 C53 1.268 . S
O60 Sc44 2.105 . S
O60 C52 1.268 . S
O61 Sc45 2.105 . S
O61 C51 1.268 . S
O62 Sc46 2.105 . S
O62 C53 1.268 1_554 S
O63 Sc44 2.105 1_556 S
O63 C49 1.268 . S
O64 Sc46 2.105 . S
O64 C48 1.268 . S
O65 Sc45 2.105 . S
O65 C50 1.268 . S
Sc66 O69 2.025 . S
Sc66 O76 2.105 . S
Sc66 O79 2.105 1_455 S
Sc66 O82 2.105 . S
Sc66 O85 2.105 1_455 S
Sc67 O69 2.025 . S
Sc67 O77 2.105 . S
Sc67 O81 2.105 . S
Sc67 O83 2.105 . S
Sc67 O87 2.105 . S
Sc68 O69 2.025 . S
Sc68 O78 2.105 . S
Sc68 O80 2.105 . S
Sc68 O84 2.105 . S
Sc68 O86 2.105 . S
O69 Sc66 2.025 . S
O69 Sc67 2.025 . S
O69 Sc68 2.025 . S
C70 O76 1.268 . S
C70 O86 1.268 . S
C71 O77 1.268 . S
C71 O85 1.268 1_455 S
C72 O78 1.268 . S
C72 O87 1.268 . S
C73 O79 1.268 1_455 S
C73 O83 1.268 . S
C74 O80 1.268 . S
C74 O82 1.268 . S
C75 O81 1.268 . S
C75 O84 1.268 . S
O76 Sc66 2.105 . S
O76 C70 1.268 . S
O77 Sc67 2.105 . S
O77 C71 1.268 . S
O78 Sc68 2.105 . S
O78 C72 1.268 . S
O79 Sc66 2.105 1_655 S
O79 C73 1.268 1_655 S
O80 Sc68 2.105 . S
O80 C74 1.268 . S
O81 Sc67 2.105 . S
O81 C75 1.268 . S
O82 Sc66 2.105 . S
O82 C74 1.268 . S
O83 Sc67 2.105 . S
O83 C73 1.268 . S
O84 Sc68 2.105 . S
O84 C75 1.268 . S
O85 Sc66 2.105 1_655 S
O85 C71 1.268 1_655 S
O86 Sc68 2.105 . S
O86 C70 1.268 . S
O87 Sc67 2.105 . S
O87 C72 1.268 . S
Sc88 O91 2.025 . S
Sc88 O98 2.105 . S
Sc88 O101 2.105 . S
Sc88 O104 2.105 . S
Sc88 O107 2.105 . S
Sc89 O91 2.025 . S
Sc89 O99 2.105 . S
Sc89 O103 2.105 . S
Sc89 O105 2.105 . S
Sc89 O109 2.105 . S
Sc90 O91 2.025 . S
Sc90 O100 2.105 . S
Sc90 O102 2.105 . S
Sc90 O106 2.105 . S
Sc90 O108 2.105 . S
O91 Sc88 2.025 . S
O91 Sc89 2.025 . S
O91 Sc90 2.025 . S
C92 O98 1.268 . S
C92 O108 1.268 . S
C93 O99 1.268 . S
C93 O107 1.268 . S
C94 O100 1.268 . S
C94 O109 1.268 . S
C95 O101 1.268 . S
C95 O105 1.268 . S
C96 O102 1.268 . S
C96 O104 1.268 . S
C97 O103 1.268 . S
C97 O106 1.268 . S
O98 Sc88 2.105 . S
O98 C92 1.268 . S
O99 Sc89 2.105 . S
O99 C93 1.268 . S
O100 Sc90 2.105 . S
O100 C94 1.268 . S
O101 Sc88 2.105 . S
O101 C95 1.268 . S
O102 Sc90 2.105 . S
O102 C96 1.268 . S
O103 Sc89 2.105 . S
O103 C97 1.268 . S
O104 Sc88 2.105 . S
O104 C96 1.268 . S
O105 Sc89 2.105 . S
O105 C95 1.268 . S
O106 Sc90 2.105 . S
O106 C97 1.268 . S
O107 Sc88 2.105 . S
O107 C93 1.268 . S
O108 Sc90 2.105 . S
O108 C92 1.268 . S
O109 Sc89 2.105 . S
O109 C94 1.268 . S
Sc110 O113 2.025 . S
Sc110 O120 2.105 . S
Sc110 O123 2.105 1_565 S
Sc110 O126 2.105 . S
Sc110 O129 2.105 1_565 S
Sc111 O113 2.025 . S
Sc111 O121 2.105 . S
Sc111 O125 2.105 . S
Sc111 O127 2.105 . S
Sc111 O131 2.105 . S
Sc112 O113 2.025 . S
Sc112 O122 2.105 . S
Sc112 O124 2.105 . S
Sc112 O128 2.105 . S
Sc112 O130 2.105 . S
O113 Sc110 2.025 . S
O113 Sc111 2.025 . S
O113 Sc112 2.025 . S
C114 O120 1.268 . S
C114 O130 1.268 . S
C115 O121 1.268 . S
C115 O129 1.268 1_565 S
C116 O122 1.268 . S
C116 O131 1.268 . S
C117 O123 1.268 1_565 S
C117 O127 1.268 . S
C118 O124 1.268 . S
C118 O126 1.268 . S
C119 O125 1.268 . S
C119 O128 1.268 . S
O120 Sc110 2.105 . S
O120 C114 1.268 . S
O121 Sc111 2.105 . S
O121 C115 1.268 . S
O122 Sc112 2.105 . S
O122 C116 1.268 . S
O123 Sc110 2.105 1_545 S
O123 C117 1.268 1_545 S
O124 Sc112 2.105 . S
O124 C118 1.268 . S
O125 Sc111 2.105 . S
O125 C119 1.268 . S
O126 Sc110 2.105 . S
O126 C118 1.268 . S
O127 Sc111 2.105 . S
O127 C117 1.268 . S
O128 Sc112 2.105 . S
O128 C119 1.268 . S
O129 Sc110 2.105 1_545 S
O129 C115 1.268 1_545 S
O130 Sc112 2.105 . S
O130 C114 1.268 . S
O131 Sc111 2.105 . S
O131 C116 1.268 . S
Sc132 O135 2.025 . S
Sc132 O142 2.105 . S
Sc132 O145 2.105 . S
Sc132 O148 2.105 . S
Sc132 O151 2.105 . S
Sc133 O135 2.025 . S
Sc133 O143 2.105 . S
Sc133 O147 2.105 . S
Sc133 O149 2.105 . S
Sc133 O153 2.105 . S
Sc134 O135 2.025 . S
Sc134 O144 2.105 . S
Sc134 O146 2.105 . S
Sc134 O150 2.105 . S
Sc134 O152 2.105 . S
O135 Sc132 2.025 . S
O135 Sc133 2.025 . S
O135 Sc134 2.025 . S
C136 O142 1.268 . S
C136 O152 1.268 . S
C137 O143 1.268 . S
C137 O151 1.268 . S
C138 O144 1.268 . S
C138 O153 1.268 . S
C139 O145 1.268 . S
C139 O149 1.268 . S
C140 O146 1.268 . S
C140 O148 1.268 . S
C141 O147 1.268 . S
C141 O150 1.268 . S
O142 Sc132 2.105 . S
O142 C136 1.268 . S
O143 Sc133 2.105 . S
O143 C137 1.268 . S
O144 Sc134 2.105 . S
O144 C138 1.268 . S
O145 Sc132 2.105 . S
O145 C139 1.268 . S
O146 Sc134 2.105 . S
O146 C140 1.268 . S
O147 Sc133 2.105 . S
O147 C141 1.268 . S
O148 Sc132 2.105 . S
O148 C140 1.268 . S
O149 Sc133 2.105 . S
O149 C139 1.268 . S
O150 Sc134 2.105 . S
O150 C141 1.268 . S
O151 Sc132 2.105 . S
O151 C137 1.268 . S
O152 Sc134 2.105 . S
O152 C136 1.268 . S
O153 Sc133 2.105 . S
O153 C138 1.268 . S
Sc154 O157 2.025 . S
Sc154 O164 2.105 . S
Sc154 O167 2.105 . S
Sc154 O170 2.105 . S
Sc154 O173 2.105 . S
Sc155 O157 2.025 . S
Sc155 O165 2.105 . S
Sc155 O169 2.105 . S
Sc155 O171 2.105 . S
Sc155 O175 2.105 . S
Sc156 O157 2.025 . S
Sc156 O166 2.105 . S
Sc156 O168 2.105 . S
Sc156 O172 2.105 . S
Sc156 O174 2.105 . S
O157 Sc154 2.025 . S
O157 Sc155 2.025 . S
O157 Sc156 2.025 . S
C158 O164 1.268 . S
C158 O174 1.268 . S
C159 O165 1.268 . S
C159 O173 1.268 . S
C160 O166 1.268 . S
C160 O175 1.268 . S
C161 O167 1.268 . S
C161 O171 1.268 . S
C162 O168 1.268 . S
C162 O170 1.268 . S
C163 O169 1.268 . S
C163 O172 1.268 . S
O164 Sc154 2.105 . S
O164 C158 1.268 . S
O165 Sc155 2.105 . S
O165 C159 1.268 . S
O166 Sc156 2.105 . S
O166 C160 1.268 . S
O167 Sc154 2.105 . S
O167 C161 1.268 . S
O168 Sc156 2.105 . S
O168 C162 1.268 . S
O169 Sc155 2.105 . S
O169 C163 1.268 . S
O170 Sc154 2.105 . S
O170 C162 1.268 . S
O171 Sc155 2.105 . S
O171 C161 1.268 . S
O172 Sc156 2.105 . S
O172 C163 1.268 . S
O173 Sc154 2.105 . S
O173 C159 1.268 . S
O174 Sc156 2.105 . S
O174 C158 1.268 . S
O175 Sc155 2.105 . S
O175 C160 1.268 . S
Sc176 O179 2.025 . S
Sc176 O186 2.105 . S
Sc176 O189 2.105 . S
Sc176 O192 2.105 . S
Sc176 O195 2.105 . S
Sc177 O179 2.025 . S
Sc177 O187 2.105 . S
Sc177 O191 2.105 . S
Sc177 O193 2.105 . S
Sc177 O197 2.105 . S
Sc178 O179 2.025 . S
Sc178 O188 2.105 . S
Sc178 O190 2.105 . S
Sc178 O194 2.105 . S
Sc178 O196 2.105 . S
O179 Sc176 2.025 . S
O179 Sc177 2.025 . S
O179 Sc178 2.025 . S
C180 O186 1.268 . S
C180 O196 1.268 . S
C181 O187 1.268 . S
C181 O195 1.268 . S
C182 O188 1.268 . S
C182 O197 1.268 . S
C183 O189 1.268 . S
C183 O193 1.268 . S
C184 O190 1.268 . S
C184 O192 1.268 . S
C185 O191 1.268 . S
C185 O194 1.268 . S
O186 Sc176 2.105 . S
O186 C180 1.268 . S
O187 Sc177 2.105 . S
O187 C181 1.268 . S
O188 Sc178 2.105 . S
O188 C182 1.268 . S
O189 Sc176 2.105 . S
O189 C183 1.268 . S
O190 Sc178 2.105 . S
O190 C184 1.268 . S
O191 Sc177 2.105 . S
O191 C185 1.268 . S
O192 Sc176 2.105 . S
O192 C184 1.268 . S
O193 Sc177 2.105 . S
O193 C183 1.268 . S
O194 Sc178 2.105 . S
O194 C185 1.268 . S
O195 Sc176 2.105 . S
O195 C181 1.268 . S
O196 Sc178 2.105 . S
O196 C180 1.268 . S
O197 Sc177 2.105 . S
O197 C182 1.268 . S
C198 C199 1.369 . S
C198 C200 1.419 1_545 S
C198 H202 0.930 . S
C199 C198 1.369 . S
C199 C208 1.429 . S
C200 C198 1.419 1_565 S
C200 C201 1.363 . S
C200 H203 0.929 . S
C201 C200 1.363 . S
C201 C207 1.428 1_565 S
H202 C198 0.930 . S
H203 C200 0.929 . S
S204 N205 1.613 . S
S204 N206 1.610 . S
N205 S204 1.613 . S
N205 C208 1.350 . S
N206 S204 1.610 . S
N206 C207 1.351 . S
C207 C201 1.428 1_545 S
C207 N206 1.351 . S
C207 C208 1.434 . S
C208 C199 1.429 . S
C208 N205 1.350 . S
C208 C207 1.434 . S
C209 C210 1.369 . S
C209 C211 1.419 1_655 S
C209 H213 0.930 1_655 S
C210 C209 1.369 . S
C210 C219 1.429 . S
C211 C209 1.419 1_455 S
C211 C212 1.363 . S
C211 H214 0.929 . S
C212 C211 1.363 . S
C212 C218 1.428 1_455 S
H213 C209 0.930 1_455 S
H214 C211 0.929 . S
S215 N216 1.613 . S
S215 N217 1.610 . S
N216 S215 1.613 . S
N216 C219 1.350 . S
N217 S215 1.610 . S
N217 C218 1.351 . S
C218 C212 1.428 1_655 S
C218 N217 1.351 . S
C218 C219 1.434 . S
C219 C210 1.429 . S
C219 N216 1.350 . S
C219 C218 1.434 . S
C220 C221 1.369 . S
C220 C222 1.419 . S
C220 H224 0.930 . S
C221 C220 1.369 . S
C221 C230 1.429 . S
C222 C220 1.419 . S
C222 C223 1.363 . S
C222 H225 0.929 . S
C223 C222 1.363 . S
C223 C229 1.428 . S
H224 C220 0.930 . S
H225 C222 0.929 . S
S226 N227 1.613 1_554 S
S226 N228 1.610 1_554 S
N227 S226 1.613 1_556 S
N227 C230 1.350 . S
N228 S226 1.610 1_556 S
N228 C229 1.351 . S
C229 C223 1.428 . S
C229 N228 1.351 . S
C229 C230 1.434 . S
C230 C221 1.429 . S
C230 N227 1.350 . S
C230 C229 1.434 . S
C231 C232 1.369 . S
C231 C233 1.419 1_455 S
C231 H235 0.930 . S
C232 C231 1.369 . S
C232 C241 1.429 . S
C233 C231 1.419 1_655 S
C233 C234 1.363 . S
C233 H236 0.929 . S
C234 C233 1.363 . S
C234 C240 1.428 . S
H235 C231 0.930 . S
H236 C233 0.929 . S
S237 N238 1.613 . S
S237 N239 1.610 1_455 S
N238 S237 1.613 . S
N238 C241 1.350 . S
N239 S237 1.610 1_655 S
N239 C240 1.351 . S
C240 C234 1.428 . S
C240 N239 1.351 . S
C240 C241 1.434 1_655 S
C241 C232 1.429 . S
C241 N238 1.350 . S
C241 C240 1.434 1_455 S
C242 C243 1.369 . S
C242 C244 1.419 . S
C242 H246 0.930 . S
C243 C242 1.369 . S
C243 C252 1.429 . S
C244 C242 1.419 . S
C244 C245 1.363 . S
C244 H247 0.929 . S
C245 C244 1.363 . S
C245 C251 1.428 . S
H246 C242 0.930 . S
H247 C244 0.929 . S
S248 N249 1.613 1_554 S
S248 N250 1.610 1_554 S
N249 S248 1.613 1_556 S
N249 C252 1.350 . S
N250 S248 1.610 1_556 S
N250 C251 1.351 . S
C251 C245 1.428 . S
C251 N250 1.351 . S
C251 C252 1.434 . S
C252 C243 1.429 . S
C252 N249 1.350 . S
C252 C251 1.434 . S
C253 C254 1.369 1_545 S
C253 C255 1.419 . S
C253 H257 0.930 . S
C254 C253 1.369 1_565 S
C254 C263 1.429 . S
C255 C253 1.419 . S
C255 C256 1.363 . S
C255 H258 0.929 . S
C256 C255 1.363 . S
C256 C262 1.428 . S
H257 C253 0.930 . S
H258 C255 0.929 . S
S259 N260 1.613 . S
S259 N261 1.610 . S
N260 S259 1.613 . S
N260 C263 1.350 . S
N261 S259 1.610 . S
N261 C262 1.351 1_565 S
C262 C256 1.428 . S
C262 N261 1.351 1_545 S
C262 C263 1.434 1_545 S
C263 C254 1.429 . S
C263 N260 1.350 . S
C263 C262 1.434 1_565 S
C264 C265 1.369 . S
C264 C266 1.419 . S
C264 H268 0.930 . S
C265 C264 1.369 . S
C265 C274 1.429 . S
C266 C264 1.419 . S
C266 C267 1.363 . S
C266 H269 0.929 1_655 S
C267 C266 1.363 . S
C267 C273 1.428 . S
H268 C264 0.930 . S
H269 C266 0.929 1_455 S
S270 N271 1.613 . S
S270 N272 1.610 . S
N271 S270 1.613 . S
N271 C274 1.350 . S
N272 S270 1.610 . S
N272 C273 1.351 . S
C273 C267 1.428 . S
C273 N272 1.351 . S
C273 C274 1.434 . S
C274 C265 1.429 . S
C274 N271 1.350 . S
C274 C273 1.434 . S
C275 C276 1.369 . S
C275 C277 1.419 . S
C275 H279 0.930 . S
C276 C275 1.369 . S
C276 C285 1.429 . S
C277 C275 1.419 . S
C277 C278 1.363 . S
C277 H280 0.929 . S
C278 C277 1.363 . S
C278 C284 1.428 . S
H279 C275 0.930 . S
H280 C277 0.929 . S
S281 N282 1.613 . S
S281 N283 1.610 . S
N282 S281 1.613 . S
N282 C285 1.350 . S
N283 S281 1.610 . S
N283 C284 1.351 . S
C284 C278 1.428 . S
C284 N283 1.351 . S
C284 C285 1.434 . S
C285 C276 1.429 . S
C285 N282 1.350 . S
C285 C284 1.434 . S
C286 C287 1.369 . S
C286 C288 1.419 . S
C286 H290 0.930 . S
C287 C286 1.369 . S
C287 C296 1.429 . S
C288 C286 1.419 . S
C288 C289 1.363 . S
C288 H291 0.929 . S
C289 C288 1.363 . S
C289 C295 1.428 1_545 S
H290 C286 0.930 . S
H291 C288 0.929 . S
S292 N293 1.613 1_565 S
S292 N294 1.610 . S
N293 S292 1.613 1_545 S
N293 C296 1.350 . S
N294 S292 1.610 . S
N294 C295 1.351 . S
C295 C289 1.428 1_565 S
C295 N294 1.351 . S
C295 C296 1.434 1_565 S
C296 C287 1.429 . S
C296 N293 1.350 . S
C296 C295 1.434 1_545 S
C297 C298 1.369 . S
C297 C299 1.419 . S
C297 H301 0.930 . S
C298 C297 1.369 . S
C298 C307 1.429 . S
C299 C297 1.419 . S
C299 C300 1.363 . S
C299 H302 0.929 . S
C300 C299 1.363 . S
C300 C306 1.428 . S
H301 C297 0.930 . S
H302 C299 0.929 . S
S303 N304 1.613 1_565 S
S303 N305 1.610 . S
N304 S303 1.613 1_545 S
N304 C307 1.350 . S
N305 S303 1.610 . S
N305 C306 1.351 1_565 S
C306 C300 1.428 . S
C306 N305 1.351 1_545 S
C306 C307 1.434 . S
C307 C298 1.429 . S
C307 N304 1.350 . S
C307 C306 1.434 . S
C308 C309 1.369 . S
C308 C310 1.419 . S
C308 H312 0.930 . S
C309 C308 1.369 . S
C309 C318 1.428 1_655 S
C310 C308 1.419 . S
C310 C311 1.363 . S
C310 H313 0.929 . S
C311 C310 1.363 . S
C311 C317 1.428 . S
H312 C308 0.930 . S
H313 C310 0.929 . S
S314 N315 1.613 . S
S314 N316 1.610 1_455 S
N315 S314 1.613 . S
N315 C318 1.366 . S
N316 S314 1.610 1_655 S
N316 C317 1.351 . S
C317 C311 1.428 . S
C317 N316 1.351 . S
C317 C318 1.418 1_655 S
C318 C309 1.428 1_455 S
C318 N315 1.366 . S
C318 C317 1.418 1_455 S
C319 C320 1.369 . S
C319 C321 1.419 . S
C319 H323 0.930 . S
C320 C319 1.369 . S
C320 C329 1.429 . S
C321 C319 1.419 . S
C321 C322 1.363 . S
C321 H324 0.929 . S
C322 C321 1.363 . S
C322 C328 1.428 . S
H323 C319 0.930 . S
H324 C321 0.929 . S
S325 N326 1.613 . S
S325 N327 1.610 . S
N326 S325 1.613 . S
N326 C329 1.350 . S
N327 S325 1.610 . S
N327 C328 1.351 . S
C328 C322 1.428 . S
C328 N327 1.351 . S
C328 C329 1.434 . S
C329 C320 1.429 . S
C329 N326 1.350 . S
C329 C328 1.434 . S
C330 C331 1.369 . S
C330 C332 1.419 . S
C330 H334 0.930 . S
C331 C330 1.369 . S
C331 C340 1.429 . S
C332 C330 1.419 . S
C332 C333 1.363 . S
C332 H335 0.929 . S
C333 C332 1.363 . S
C333 C339 1.428 . S
H334 C330 0.930 . S
H335 C332 0.929 . S
S336 N337 1.613 . S
S336 N338 1.610 . S
N337 S336 1.613 . S
N337 C340 1.350 . S
N338 S336 1.610 . S
N338 C339 1.351 . S
C339 C333 1.428 . S
C339 N338 1.351 . S
C339 C340 1.434 . S
C340 C331 1.429 . S
C340 N337 1.350 . S
C340 C339 1.434 . S
C341 C342 1.369 . S
C341 C343 1.419 . S
C341 H345 0.930 . S
C342 C341 1.369 . S
C342 C351 1.429 . S
C343 C341 1.419 . S
C343 C344 1.363 . S
C343 H346 0.929 . S
C344 C343 1.363 . S
C344 C350 1.428 . S
H345 C341 0.930 . S
H346 C343 0.929 . S
S347 N348 1.613 . S
S347 N349 1.610 . S
N348 S347 1.613 . S
N348 C351 1.350 . S
N349 S347 1.610 . S
N349 C350 1.351 . S
C350 C344 1.428 . S
C350 N349 1.351 . S
C350 C351 1.434 . S
C351 C342 1.429 . S
C351 N348 1.350 . S
C351 C350 1.434 . S
C352 C353 1.369 . S
C352 C354 1.419 . S
C352 H356 0.930 . S
C353 C352 1.369 . S
C353 C362 1.429 . S
C354 C352 1.419 . S
C354 C355 1.363 . S
C354 H357 0.929 . S
C355 C354 1.363 . S
C355 C361 1.428 . S
H356 C352 0.930 . S
H357 C354 0.929 . S
S358 N359 1.613 . S
S358 N360 1.610 . S
N359 S358 1.613 . S
N359 C362 1.350 . S
N360 S358 1.610 . S
N360 C361 1.351 . S
C361 C355 1.428 . S
C361 N360 1.351 . S
C361 C362 1.434 . S
C362 C353 1.429 . S
C362 N359 1.350 . S
C362 C361 1.434 . S
C363 C364 1.369 . S
C363 C365 1.419 . S
C363 H367 0.930 . S
C364 C363 1.369 . S
C364 C373 1.429 . S
C365 C363 1.419 . S
C365 C366 1.363 . S
C365 H368 0.929 . S
C366 C365 1.363 . S
C366 C372 1.428 . S
H367 C363 0.930 . S
H368 C365 0.929 . S
S369 N370 1.613 . S
S369 N371 1.610 . S
N370 S369 1.613 . S
N370 C373 1.350 . S
N371 S369 1.610 . S
N371 C372 1.351 . S
C372 C366 1.428 . S
C372 N371 1.351 . S
C372 C373 1.434 . S
C373 C364 1.429 . S
C373 N370 1.350 . S
C373 C372 1.434 . S
C374 C375 1.369 . S
C374 C376 1.419 . S
C374 H378 0.930 . S
C375 C374 1.369 . S
C375 C384 1.429 . S
C376 C374 1.419 . S
C376 C377 1.363 . S
C376 H379 0.929 . S
C377 C376 1.363 . S
C377 C383 1.428 . S
H378 C374 0.930 . S
H379 C376 0.929 . S
S380 N381 1.613 . S
S380 N382 1.610 1_545 S
N381 S380 1.613 . S
N381 C384 1.350 1_545 S
N382 S380 1.610 1_565 S
N382 C383 1.351 . S
C383 C377 1.428 . S
C383 N382 1.351 . S
C383 C384 1.434 . S
C384 C375 1.429 . S
C384 N381 1.350 1_565 S
C384 C383 1.434 . S
C385 C386 1.369 . S
C385 C387 1.419 . S
C385 H389 0.930 . S
C386 C385 1.369 . S
C386 C395 1.429 . S
C387 C385 1.419 . S
C387 C388 1.363 . S
C387 H390 0.929 . S
C388 C387 1.363 . S
C388 C394 1.428 . S
H389 C385 0.930 . S
H390 C387 0.929 . S
S391 N392 1.613 . S
S391 N393 1.610 . S
N392 S391 1.613 . S
N392 C395 1.350 . S
N393 S391 1.610 . S
N393 C394 1.351 . S
C394 C388 1.428 . S
C394 N393 1.351 . S
C394 C395 1.434 . S
C395 C386 1.429 . S
C395 N392 1.350 . S
C395 C394 1.434 . S
C396 C397 1.369 1_554 S
C396 C398 1.419 . S
C396 H400 0.930 . S
C397 C396 1.369 1_556 S
C397 C406 1.429 . S
C398 C396 1.419 . S
C398 C399 1.363 1_554 S
C398 H401 0.929 . S
C399 C398 1.363 1_556 S
C399 C405 1.428 . S
H400 C396 0.930 . S
H401 C398 0.929 . S
S402 N403 1.613 . S
S402 N404 1.610 . S
N403 S402 1.613 . S
N403 C406 1.350 . S
N404 S402 1.610 . S
N404 C405 1.351 . S
C405 C399 1.428 . S
C405 N404 1.351 . S
C405 C406 1.434 . S
C406 C397 1.429 . S
C406 N403 1.350 . S
C406 C405 1.434 . S
C407 C408 1.369 . S
C407 C409 1.419 . S
C407 H411 0.930 . S
C408 C407 1.369 . S
C408 C417 1.429 . S
C409 C407 1.419 . S
C409 C410 1.363 . S
C409 H412 0.929 . S
C410 C409 1.363 . S
C410 C416 1.428 . S
H411 C407 0.930 . S
H412 C409 0.929 . S
S413 N414 1.613 . S
S413 N415 1.610 . S
N414 S413 1.613 . S
N414 C417 1.350 . S
N415 S413 1.610 . S
N415 C416 1.351 . S
C416 C410 1.428 . S
C416 N415 1.351 . S
C416 C417 1.434 . S
C417 C408 1.429 . S
C417 N414 1.350 . S
C417 C416 1.434 . S
C418 C419 1.369 . S
C418 C420 1.419 . S
C418 H422 0.930 . S
C419 C418 1.369 . S
C419 C428 1.429 1_556 S
C420 C418 1.419 . S
C420 C421 1.363 . S
C420 H423 0.929 . S
C421 C420 1.363 . S
C421 C427 1.428 1_556 S
H422 C418 0.930 . S
H423 C420 0.929 . S
S424 N425 1.613 . S
S424 N426 1.610 . S
N425 S424 1.613 . S
N425 C428 1.350 . S
N426 S424 1.610 . S
N426 C427 1.351 . S
C427 C421 1.428 1_554 S
C427 N426 1.351 . S
C427 C428 1.434 . S
C428 C419 1.429 1_554 S
C428 N425 1.350 . S
C428 C427 1.434 . S
C429 C430 1.369 . S
C429 C431 1.419 . S
C429 H433 0.930 . S
C430 C429 1.369 . S
C430 C439 1.429 . S
C431 C429 1.419 . S
C431 C432 1.363 . S
C431 H434 0.929 . S
C432 C431 1.363 . S
C432 C438 1.428 . S
H433 C429 0.930 . S
H434 C431 0.929 . S
S435 N436 1.613 . S
S435 N437 1.610 . S
N436 S435 1.613 . S
N436 C439 1.350 . S
N437 S435 1.610 . S
N437 C438 1.351 . S
C438 C432 1.428 . S
C438 N437 1.351 . S
C438 C439 1.434 . S
C439 C430 1.429 . S
C439 N436 1.350 . S
C439 C438 1.434 . S
C440 C441 1.369 . S
C440 C442 1.419 . S
C440 H444 0.930 . S
C441 C440 1.369 . S
C441 C450 1.429 . S
C442 C440 1.419 . S
C442 C443 1.363 . S
C442 H445 0.929 . S
C443 C442 1.363 . S
C443 C449 1.428 . S
H444 C440 0.930 . S
H445 C442 0.929 . S
S446 N447 1.613 . S
S446 N448 1.610 . S
N447 S446 1.613 . S
N447 C450 1.350 . S
N448 S446 1.610 . S
N448 C449 1.351 . S
C449 C443 1.428 . S
C449 N448 1.351 . S
C449 C450 1.434 . S
C450 C441 1.429 . S
C450 N447 1.350 . S
C450 C449 1.434 . S
C451 C452 1.369 . S
C451 C453 1.419 . S
C451 H455 0.930 . S
C452 C451 1.369 . S
C452 C461 1.429 . S
C453 C451 1.419 . S
C453 C454 1.363 . S
C453 H456 0.929 . S
C454 C453 1.363 . S
C454 C460 1.428 . S
H455 C451 0.930 . S
H456 C453 0.929 . S
S457 N458 1.613 . S
S457 N459 1.610 . S
N458 S457 1.613 . S
N458 C461 1.350 . S
N459 S457 1.610 . S
N459 C460 1.351 . S
C460 C454 1.428 . S
C460 N459 1.351 . S
C460 C461 1.434 . S
C461 C452 1.429 . S
C461 N458 1.350 . S
C461 C460 1.434 . S
C462 C463 1.369 . S
C462 C464 1.419 . S
C462 H466 0.930 . S
C463 C462 1.369 . S
C463 C472 1.429 . S
C464 C462 1.419 . S
C464 C465 1.363 . S
C464 H467 0.929 . S
C465 C464 1.363 . S
C465 C471 1.428 . S
H466 C462 0.930 . S
H467 C464 0.929 . S
S468 N469 1.613 1_655 S
S468 N470 1.610 . S
N469 S468 1.613 1_455 S
N469 C472 1.350 1_455 S
N470 S468 1.610 . S
N470 C471 1.351 . S
C471 C465 1.428 . S
C471 N470 1.351 . S
C471 C472 1.434 . S
C472 C463 1.429 . S
C472 N469 1.350 1_655 S
C472 C471 1.434 . S
C473 C474 1.369 . S
C473 C475 1.419 . S
C473 H477 0.930 . S
C474 C473 1.369 . S
C474 C483 1.429 . S
C475 C473 1.419 . S
C475 C476 1.363 . S
C475 H478 0.929 . S
C476 C475 1.363 . S
C476 C482 1.428 . S
H477 C473 0.930 . S
H478 C475 0.929 . S
S479 N480 1.613 . S
S479 N481 1.610 . S
N480 S479 1.613 . S
N480 C483 1.350 . S
N481 S479 1.610 . S
N481 C482 1.351 . S
C482 C476 1.428 . S
C482 N481 1.351 . S
C482 C483 1.434 . S
C483 C474 1.429 . S
C483 N480 1.350 . S
C483 C482 1.434 . S
C484 C485 1.369 . S
C484 C486 1.419 . S
C484 H488 0.930 . S
C485 C484 1.369 . S
C485 C494 1.429 . S
C486 C484 1.419 . S
C486 C487 1.363 . S
C486 H489 0.929 . S
C487 C486 1.363 . S
C487 C493 1.428 . S
H488 C484 0.930 . S
H489 C486 0.929 . S
S490 N491 1.613 1_545 S
S490 N492 1.610 1_655 S
N491 S490 1.613 1_565 S
N491 C494 1.350 1_565 S
N492 S490 1.610 1_455 S
N492 C493 1.351 1_455 S
C493 C487 1.428 . S
C493 N492 1.351 1_655 S
C493 C494 1.434 . S
C494 C485 1.429 . S
C494 N491 1.350 1_545 S
C494 C493 1.434 . S
C199 C7 1.306 . S
C201 C162 1.313 . S
C210 C29 1.306 . S
C212 C184 1.314 . S
C221 C140 1.314 . S
C223 C51 1.310 . S
C232 C158 1.318 . S
C234 C49 1.311 . S
C243 C180 1.317 . S
C245 C5 1.311 . S
C254 C136 1.319 . S
C256 C27 1.313 . S
C265 C30 1.314 . S
C267 C73 1.307 1_655 S
C276 C95 1.313 . S
C278 C52 1.317 . S
C287 C8 1.318 . S
C289 C117 1.311 1_545 S
C298 C26 1.319 . S
C300 C115 1.313 1_545 S
C309 C71 1.312 1_655 S
C311 C48 1.318 . S
C320 C4 1.314 . S
C322 C93 1.309 . S
C331 C139 1.311 . S
C333 C96 1.315 . S
C342 C118 1.312 . S
C344 C161 1.308 . S
C353 C183 1.306 . S
C355 C74 1.313 . S
C364 C181 1.306 . S
C366 C92 1.313 . S
C375 C114 1.319 . S
C377 C137 1.313 . S
C386 C70 1.315 . S
C388 C159 1.309 . S
C397 C9 1.246 . S
C399 C28 1.245 . S
C408 C50 1.240 . S
C410 C31 1.241 . S
C419 C53 1.247 . S
C421 C6 1.247 . S
C430 C94 1.241 . S
C432 C75 1.242 . S
C441 C116 1.249 . S
C443 C97 1.249 . S
C452 C119 1.250 . S
C454 C72 1.249 . S
C463 C160 1.240 1_655 S
C465 C141 1.241 . S
C474 C163 1.247 1_545 S
C476 C182 1.246 . S
C485 C138 1.240 1_545 S
C487 C185 1.242 1_655 S
