# Generated by pormake.
# Topology uno, (4)-cn, num edge types: 1
# Building blocks:
#     Node 0, Type 0, BuildingBlock: NAWXER_clean_sbu_0, # of connection points: 4
#     Node 1, Type 0, BuildingBlock: NAWXER_clean_sbu_0, # of connection points: 4
#     Node 2, Type 0, BuildingBlock: NAWXER_clean_sbu_0, # of connection points: 4
#     Node 3, Type 0, BuildingBlock: NAWXER_clean_sbu_0, # of connection points: 4
#     Node 4, Type 0, BuildingBlock: NAWXER_clean_sbu_0, # of connection points: 4
#     Node 5, Type 0, BuildingBlock: NAWXER_clean_sbu_0, # of connection points: 4
#     Node 6, Type 0, BuildingBlock: NAWXER_clean_sbu_0, # of connection points: 4
#     Node 7, Type 0, BuildingBlock: NAWXER_clean_sbu_0, # of connection points: 4
#     Node 8, Type 0, BuildingBlock: NAWXER_clean_sbu_0, # of connection points: 4
#     Node 9, Type 0, BuildingBlock: NAWXER_clean_sbu_0, # of connection points: 4
#     Node 10, Type 0, BuildingBlock: NAWXER_clean_sbu_0, # of connection points: 4
#     Node 11, Type 0, BuildingBlock: NAWXER_clean_sbu_0, # of connection points: 4
#     Node 12, Type 0, BuildingBlock: NAWXER_clean_sbu_0, # of connection points: 4
#     Node 13, Type 0, BuildingBlock: NAWXER_clean_sbu_0, # of connection points: 4
#     Node 14, Type 0, BuildingBlock: NAWXER_clean_sbu_0, # of connection points: 4
#     Node 15, Type 0, BuildingBlock: NAWXER_clean_sbu_0, # of connection points: 4
#     Node 16, Type 0, BuildingBlock: NAWXER_clean_sbu_0, # of connection points: 4
#     Node 17, Type 0, BuildingBlock: NAWXER_clean_sbu_0, # of connection points: 4
#     Node 18, Type 0, BuildingBlock: NAWXER_clean_sbu_0, # of connection points: 4
#     Node 19, Type 0, BuildingBlock: NAWXER_clean_sbu_0, # of connection points: 4
#     Node 20, Type 0, BuildingBlock: NAWXER_clean_sbu_0, # of connection points: 4
#     Node 21, Type 0, BuildingBlock: NAWXER_clean_sbu_0, # of connection points: 4
#     Node 22, Type 0, BuildingBlock: NAWXER_clean_sbu_0, # of connection points: 4
#     Node 23, Type 0, BuildingBlock: NAWXER_clean_sbu_0, # of connection points: 4
#     Edge 24, Type (0, 0), BuildingBlock: TEMPAE_clean_linker_10, # of connection points: 2
#     Edge 25, Type (0, 0), BuildingBlock: TEMPAE_clean_linker_10, # of connection points: 2
#     Edge 26, Type (0, 0), BuildingBlock: TEMPAE_clean_linker_10, # of connection points: 2
#     Edge 27, Type (0, 0), BuildingBlock: TEMPAE_clean_linker_10, # of connection points: 2
#     Edge 28, Type (0, 0), BuildingBlock: TEMPAE_clean_linker_10, # of connection points: 2
#     Edge 29, Type (0, 0), BuildingBlock: TEMPAE_clean_linker_10, # of connection points: 2
#     Edge 30, Type (0, 0), BuildingBlock: TEMPAE_clean_linker_10, # of connection points: 2
#     Edge 31, Type (0, 0), BuildingBlock: TEMPAE_clean_linker_10, # of connection points: 2
#     Edge 32, Type (0, 0), BuildingBlock: TEMPAE_clean_linker_10, # of connection points: 2
#     Edge 33, Type (0, 0), BuildingBlock: TEMPAE_clean_linker_10, # of connection points: 2
#     Edge 34, Type (0, 0), BuildingBlock: TEMPAE_clean_linker_10, # of connection points: 2
#     Edge 35, Type (0, 0), BuildingBlock: TEMPAE_clean_linker_10, # of connection points: 2
#     Edge 36, Type (0, 0), BuildingBlock: TEMPAE_clean_linker_10, # of connection points: 2
#     Edge 37, Type (0, 0), BuildingBlock: TEMPAE_clean_linker_10, # of connection points: 2
#     Edge 38, Type (0, 0), BuildingBlock: TEMPAE_clean_linker_10, # of connection points: 2
#     Edge 39, Type (0, 0), BuildingBlock: TEMPAE_clean_linker_10, # of connection points: 2
#     Edge 40, Type (0, 0), BuildingBlock: TEMPAE_clean_linker_10, # of connection points: 2
#     Edge 41, Type (0, 0), BuildingBlock: TEMPAE_clean_linker_10, # of connection points: 2
#     Edge 42, Type (0, 0), BuildingBlock: TEMPAE_clean_linker_10, # of connection points: 2
#     Edge 43, Type (0, 0), BuildingBlock: TEMPAE_clean_linker_10, # of connection points: 2
#     Edge 44, Type (0, 0), BuildingBlock: TEMPAE_clean_linker_10, # of connection points: 2
#     Edge 45, Type (0, 0), BuildingBlock: TEMPAE_clean_linker_10, # of connection points: 2
#     Edge 46, Type (0, 0), BuildingBlock: TEMPAE_clean_linker_10, # of connection points: 2
#     Edge 47, Type (0, 0), BuildingBlock: TEMPAE_clean_linker_10, # of connection points: 2
#     Edge 48, Type (0, 0), BuildingBlock: TEMPAE_clean_linker_10, # of connection points: 2
#     Edge 49, Type (0, 0), BuildingBlock: TEMPAE_clean_linker_10, # of connection points: 2
#     Edge 50, Type (0, 0), BuildingBlock: TEMPAE_clean_linker_10, # of connection points: 2
#     Edge 51, Type (0, 0), BuildingBlock: TEMPAE_clean_linker_10, # of connection points: 2
#     Edge 52, Type (0, 0), BuildingBlock: TEMPAE_clean_linker_10, # of connection points: 2
#     Edge 53, Type (0, 0), BuildingBlock: TEMPAE_clean_linker_10, # of connection points: 2
#     Edge 54, Type (0, 0), BuildingBlock: TEMPAE_clean_linker_10, # of connection points: 2
#     Edge 55, Type (0, 0), BuildingBlock: TEMPAE_clean_linker_10, # of connection points: 2
#     Edge 56, Type (0, 0), BuildingBlock: TEMPAE_clean_linker_10, # of connection points: 2
#     Edge 57, Type (0, 0), BuildingBlock: TEMPAE_clean_linker_10, # of connection points: 2
#     Edge 58, Type (0, 0), BuildingBlock: TEMPAE_clean_linker_10, # of connection points: 2
#     Edge 59, Type (0, 0), BuildingBlock: TEMPAE_clean_linker_10, # of connection points: 2
#     Edge 60, Type (0, 0), BuildingBlock: TEMPAE_clean_linker_10, # of connection points: 2
#     Edge 61, Type (0, 0), BuildingBlock: TEMPAE_clean_linker_10, # of connection points: 2
#     Edge 62, Type (0, 0), BuildingBlock: TEMPAE_clean_linker_10, # of connection points: 2
#     Edge 63, Type (0, 0), BuildingBlock: TEMPAE_clean_linker_10, # of connection points: 2
#     Edge 64, Type (0, 0), BuildingBlock: TEMPAE_clean_linker_10, # of connection points: 2
#     Edge 65, Type (0, 0), BuildingBlock: TEMPAE_clean_linker_10, # of connection points: 2
#     Edge 66, Type (0, 0), BuildingBlock: TEMPAE_clean_linker_10, # of connection points: 2
#     Edge 67, Type (0, 0), BuildingBlock: TEMPAE_clean_linker_10, # of connection points: 2
#     Edge 68, Type (0, 0), BuildingBlock: TEMPAE_clean_linker_10, # of connection points: 2
#     Edge 69, Type (0, 0), BuildingBlock: TEMPAE_clean_linker_10, # of connection points: 2
#     Edge 70, Type (0, 0), BuildingBlock: TEMPAE_clean_linker_10, # of connection points: 2
#     Edge 71, Type (0, 0), BuildingBlock: TEMPAE_clean_linker_10, # of connection points: 2
# Relax obj value: 0.465
# Max RMSD: 0.255
# Mean RMSD: 0.237
data_MOF--net-uno--node1-NAWXER_clean_sbu_0--edge1-TEMPAE_clean_linker_10
_symmetry_space_group_name_H-M    P1
_symmetry_Int_Tables_number       1
_symmetry_cell_setting            triclinic
loop_
_symmetry_equiv_pos_as_xyz
'x, y, z'
_cell_length_a     50.914277
_cell_length_b     50.97126
_cell_length_c     50.973841
_cell_angle_alpha  89.785042
_cell_angle_beta   89.766036
_cell_angle_gamma 89.74165
loop_
_atom_site_label
_atom_site_type_symbol
_atom_site_fract_x
_atom_site_fract_y
_atom_site_fract_z
_atom_type_partial_charge
C0 C 0.0603 0.29406 0.27933 0.0
C1 C 0.13411 0.33577 0.2376 0.0
O2 O 0.06481 0.29703 0.25502 0.0
Zn3 Zn 0.0942 0.32001 0.25796 0.0
O4 O 0.07252 0.30853 0.29586 0.0
Zn5 Zn 0.104 0.33758 0.29341 0.0
O6 O 0.08991 0.37237 0.30051 0.0
O7 O 0.07883 0.35874 0.26133 0.0
O8 O 0.13237 0.34279 0.26173 0.0
O9 O 0.11562 0.32276 0.22738 0.0
O10 O 0.11994 0.29777 0.28442 0.0
O11 O 0.12739 0.32273 0.31919 0.0
C12 C 0.07887 0.37681 0.2787 0.0
C13 C 0.13069 0.30127 0.30689 0.0
C14 C 0.97721 0.824 0.55182 0.0
C15 C 0.96107 0.87201 0.47152 0.0
O16 O 0.97491 0.80836 0.53229 0.0
Zn17 Zn 0.96439 0.8119 0.49123 0.0
O18 O 0.96946 0.84764 0.54956 0.0
Zn19 Zn 0.96121 0.84709 0.51271 0.0
O20 O 0.92402 0.82818 0.50862 0.0
O21 O 0.93208 0.79288 0.48526 0.0
O22 O 0.95785 0.8804 0.49478 0.0
O23 O 0.96239 0.8472 0.46752 0.0
O24 O 0.99735 0.7984 0.47669 0.0
O25 O 0.99963 0.83616 0.49819 0.0
C26 C 0.91574 0.80746 0.49719 0.0
C27 C 0.01063 0.81781 0.485 0.0
C28 C 0.48527 0.72214 0.77816 0.0
C29 C 0.40758 0.68781 0.73934 0.0
O30 O 0.48049 0.71854 0.75409 0.0
Zn31 Zn 0.44967 0.69744 0.75798 0.0
O32 O 0.47246 0.70883 0.79533 0.0
Zn33 Zn 0.44025 0.68108 0.79364 0.0
O34 O 0.45227 0.64598 0.80088 0.0
O35 O 0.46144 0.65708 0.76032 0.0
O36 O 0.40953 0.67935 0.76311 0.0
O37 O 0.42748 0.69785 0.72814 0.0
O38 O 0.42432 0.72057 0.78507 0.0
O39 O 0.4192 0.69593 0.82071 0.0
C40 C 0.46116 0.63974 0.77857 0.0
C41 C 0.41425 0.7169 0.80801 0.0
C42 C 0.60547 0.17229 0.9854 0.0
C43 C 0.53312 0.11892 0.01533 0.0
O44 O 0.60301 0.15445 0.00241 0.0
Zn45 Zn 0.5663 0.14758 0.99961 0.0
O46 O 0.58492 0.18007 0.97306 0.0
Zn47 Zn 0.54352 0.16935 0.97605 0.0
O48 O 0.52667 0.20036 0.98633 0.0
O49 O 0.54477 0.17991 0.01969 0.0
O50 O 0.52408 0.13623 0.99899 0.0
O51 O 0.55731 0.11911 0.02096 0.0
O52 O 0.55815 0.13103 0.95963 0.0
O53 O 0.53427 0.16226 0.94154 0.0
C54 C 0.53063 0.19889 0.01067 0.0
C55 C 0.54487 0.1399 0.93992 0.0
C56 C 0.01345 0.01397 0.35044 0.0
C57 C 0.01667 0.10745 0.32531 0.0
O58 O 0.99392 0.02813 0.35739 0.0
Zn59 Zn 0.97955 0.06697 0.35602 0.0
O60 O 0.03256 0.02415 0.33777 0.0
Zn61 Zn 0.01689 0.05983 0.33613 0.0
O62 O 0.01961 0.0687 0.37637 0.0
O63 O 0.98007 0.07361 0.3938 0.0
O64 O 0.03345 0.08989 0.31921 0.0
O65 O 0.99628 0.10101 0.33865 0.0
O66 O 0.94731 0.06042 0.33669 0.0
O67 O 0.983 0.05198 0.31339 0.0
C68 C 0.00495 0.07276 0.39636 0.0
C69 C 0.95793 0.05211 0.3156 0.0
C70 C 0.20493 0.70882 0.59576 0.0
C71 C 0.16288 0.71294 0.68221 0.0
O72 O 0.20485 0.73169 0.60609 0.0
Zn73 Zn 0.19111 0.75067 0.64055 0.0
O74 O 0.1921 0.69037 0.60675 0.0
Zn75 Zn 0.18025 0.70951 0.6377 0.0
O76 O 0.15051 0.73628 0.62471 0.0
O77 O 0.1653 0.77665 0.6299 0.0
O78 O 0.1636 0.69229 0.66821 0.0
O79 O 0.17227 0.73445 0.67346 0.0
O80 O 0.22481 0.76 0.65673 0.0
O81 O 0.21745 0.71743 0.65456 0.0
C82 C 0.14696 0.76116 0.62335 0.0
C83 C 0.2324 0.73646 0.66089 0.0
C84 C 0.51377 0.91285 0.8053 0.0
C85 C 0.5058 0.00865 0.81063 0.0
O86 O 0.53179 0.92349 0.81912 0.0
Zn87 Zn 0.54309 0.96185 0.83079 0.0
O88 O 0.49648 0.9273 0.79446 0.0
Zn89 Zn 0.50845 0.9613 0.80615 0.0
O90 O 0.5445 0.96808 0.78574 0.0
O91 O 0.57707 0.96792 0.81419 0.0
O92 O 0.48956 0.99429 0.79828 0.0
O93 O 0.52544 0.99839 0.82233 0.0
O94 O 0.53782 0.96344 0.86895 0.0
O95 O 0.50064 0.96133 0.84698 0.0
C96 C 0.56899 0.97081 0.79072 0.0
C97 C 0.51278 0.96342 0.86877 0.0
C98 C 0.36836 0.28223 0.07497 0.0
C99 C 0.29517 0.3047 0.13237 0.0
O100 O 0.3636 0.30378 0.08643 0.0
Zn101 Zn 0.32961 0.29507 0.10147 0.0
O102 O 0.35072 0.26443 0.07475 0.0
Zn103 Zn 0.31271 0.25925 0.09134 0.0
O104 O 0.28763 0.25742 0.06344 0.0
O105 O 0.29874 0.29806 0.07232 0.0
O106 O 0.29215 0.28252 0.12088 0.0
O107 O 0.31492 0.31896 0.12685 0.0
O108 O 0.3384 0.26205 0.12732 0.0
O109 O 0.31822 0.22769 0.11059 0.0
C110 C 0.28386 0.28183 0.06027 0.0
C111 C 0.33259 0.23756 0.1283 0.0
C112 C 0.30263 0.13579 0.28806 0.0
C113 C 0.2736 0.07988 0.35969 0.0
O114 O 0.31597 0.12856 0.3079 0.0
Zn115 Zn 0.28897 0.10595 0.32153 0.0
O116 O 0.2794 0.12679 0.28446 0.0
Zn117 Zn 0.25271 0.09965 0.30433 0.0
O118 O 0.22352 0.12236 0.30831 0.0
O119 O 0.25871 0.1357 0.32976 0.0
O120 O 0.25559 0.08188 0.34231 0.0
O121 O 0.29606 0.08936 0.3549 0.0
O122 O 0.28954 0.07736 0.28973 0.0
O123 O 0.24818 0.07273 0.27859 0.0
C124 C 0.23474 0.13916 0.3227 0.0
C125 C 0.27219 0.06743 0.27451 0.0
C126 C 0.15118 0.92794 0.53771 0.0
C127 C 0.21002 0.99898 0.52617 0.0
O128 O 0.17418 0.92902 0.52829 0.0
Zn129 Zn 0.18142 0.96309 0.53929 0.0
O130 O 0.14224 0.94745 0.55122 0.0
Zn131 Zn 0.15881 0.98692 0.56107 0.0
O132 O 0.1303 0.00794 0.55134 0.0
O133 O 0.14885 0.98597 0.51877 0.0
O134 O 0.19033 0.00747 0.53957 0.0
O135 O 0.21342 0.97453 0.52426 0.0
O136 O 0.18817 0.95735 0.58102 0.0
O137 O 0.16449 0.98882 0.59811 0.0
C138 C 0.13108 0.00216 0.52718 0.0
C139 C 0.17993 0.96969 0.60135 0.0
C140 C 0.20633 0.83432 0.80872 0.0
C141 C 0.23387 0.90276 0.86851 0.0
O142 O 0.19451 0.84318 0.82886 0.0
Zn143 Zn 0.21836 0.87127 0.83511 0.0
O144 O 0.22733 0.84572 0.80037 0.0
Zn145 Zn 0.25165 0.87899 0.81359 0.0
O146 O 0.28443 0.8627 0.818 0.0
O147 O 0.25348 0.84758 0.84462 0.0
O148 O 0.2502 0.90031 0.84954 0.0
O149 O 0.21193 0.89122 0.86707 0.0
O150 O 0.21169 0.89604 0.80018 0.0
O151 O 0.25168 0.90369 0.78578 0.0
C152 C 0.27734 0.84726 0.83622 0.0
C153 C 0.22719 0.90682 0.78332 0.0
C154 C 0.40283 0.9952 0.07809 0.0
C155 C 0.32428 0.96622 0.03033 0.0
O156 O 0.38798 0.01323 0.06891 0.0
Zn157 Zn 0.35339 0.01912 0.04723 0.0
O158 O 0.39591 0.9712 0.07646 0.0
Zn159 Zn 0.36243 0.9782 0.05828 0.0
O160 O 0.38053 0.992 0.02414 0.0
O161 O 0.37129 0.03334 0.01512 0.0
O162 O 0.33931 0.95136 0.04376 0.0
O163 O 0.32772 0.99109 0.03084 0.0
O164 O 0.33232 0.03911 0.07276 0.0
O165 O 0.34026 0.99884 0.08669 0.0
C166 C 0.38401 0.01229 0.0099 0.0
C167 C 0.33021 0.02158 0.09056 0.0
C168 C 0.78685 0.23709 0.9386 0.0
C169 C 0.83158 0.28584 0.8709 0.0
O170 O 0.78979 0.2617 0.93668 0.0
Zn171 Zn 0.81451 0.26201 0.90797 0.0
O172 O 0.80219 0.22192 0.92549 0.0
Zn173 Zn 0.83277 0.22748 0.89625 0.0
O174 O 0.86707 0.21927 0.91018 0.0
O175 O 0.85359 0.2582 0.92287 0.0
O176 O 0.83902 0.2617 0.87095 0.0
O177 O 0.81741 0.29446 0.88958 0.0
O178 O 0.79466 0.23869 0.87783 0.0
O179 O 0.81975 0.20382 0.87041 0.0
C180 C 0.87172 0.24074 0.92164 0.0
C181 C 0.7991 0.2171 0.86555 0.0
C182 C 0.02931 0.55361 0.12901 0.0
C183 C 0.0078 0.62884 0.1835 0.0
O184 O 0.04198 0.57481 0.13203 0.0
Zn185 Zn 0.0197 0.58883 0.15874 0.0
O186 O 0.00891 0.54912 0.14337 0.0
Zn187 Zn 0.98688 0.57078 0.1741 0.0
O188 O 0.95289 0.57206 0.1591 0.0
O189 O 0.98334 0.59237 0.13569 0.0
O190 O 0.99088 0.61059 0.18685 0.0
O191 O 0.02809 0.62409 0.16987 0.0
O192 O 0.02809 0.56157 0.1908 0.0
O193 O 0.98913 0.54917 0.20461 0.0
C194 C 0.95948 0.58462 0.1386 0.0
C195 C 0.01386 0.54777 0.20646 0.0
C196 C 0.72507 0.76903 0.46735 0.0
C197 C 0.67489 0.73017 0.39732 0.0
O198 O 0.72077 0.74489 0.46333 0.0
Zn199 Zn 0.69474 0.74883 0.43599 0.0
O200 O 0.71023 0.78618 0.45629 0.0
Zn201 Zn 0.67838 0.78551 0.42821 0.0
O202 O 0.64556 0.7946 0.44543 0.0
O203 O 0.65708 0.75401 0.45422 0.0
O204 O 0.66913 0.7546 0.40003 0.0
O205 O 0.6887 0.71868 0.41466 0.0
O206 O 0.71518 0.77388 0.40731 0.0
O207 O 0.69243 0.81095 0.40418 0.0
C208 C 0.64029 0.77273 0.45604 0.0
C209 C 0.71201 0.79689 0.39732 0.0
C210 C 0.86501 0.83911 0.28334 0.0
C211 C 0.94062 0.8049 0.23737 0.0
O212 O 0.88555 0.82835 0.29254 0.0
Zn213 Zn 0.90459 0.82678 0.26042 0.0
O214 O 0.86418 0.84549 0.25892 0.0
Zn215 Zn 0.89084 0.84215 0.22525 0.0
O216 O 0.86824 0.82426 0.20148 0.0
O217 O 0.87864 0.80169 0.2372 0.0
O218 O 0.92551 0.81729 0.22139 0.0
O219 O 0.93677 0.80729 0.26182 0.0
O220 O 0.91455 0.86706 0.25486 0.0
O221 O 0.89936 0.87796 0.21602 0.0
C222 C 0.86636 0.80349 0.21525 0.0
C223 C 0.9109 0.88439 0.23697 0.0
C224 C 0.64883 0.17509 0.74962 0.0
C225 C 0.56799 0.20352 0.70977 0.0
O226 O 0.62749 0.18225 0.76042 0.0
Zn227 Zn 0.60752 0.18528 0.72924 0.0
O228 O 0.64976 0.17175 0.72465 0.0
Zn229 Zn 0.62212 0.17533 0.69217 0.0
O230 O 0.6413 0.19923 0.67001 0.0
O231 O 0.62901 0.2158 0.70826 0.0
O232 O 0.584 0.19509 0.6921 0.0
O233 O 0.57333 0.19969 0.73373 0.0
O234 O 0.60195 0.14542 0.71956 0.0
O235 O 0.61819 0.13927 0.68 0.0
C236 C 0.64074 0.21833 0.68602 0.0
C237 C 0.60725 0.13011 0.70043 0.0
C238 C 0.47186 0.46435 0.64648 0.0
C239 C 0.49408 0.38036 0.68637 0.0
O240 O 0.45724 0.44431 0.64907 0.0
Zn241 Zn 0.4824 0.42391 0.66829 0.0
O242 O 0.49514 0.4642 0.65619 0.0
Zn243 Zn 0.51968 0.43666 0.6786 0.0
O244 O 0.54949 0.43402 0.65635 0.0
O245 O 0.51288 0.41997 0.63809 0.0
O246 O 0.51312 0.39656 0.68818 0.0
O247 O 0.47231 0.38834 0.67735 0.0
O248 O 0.48358 0.44771 0.70351 0.0
O249 O 0.52548 0.45484 0.71075 0.0
C250 C 0.53759 0.42489 0.63657 0.0
C251 C 0.50167 0.45873 0.71699 0.0
C252 C 0.03976 0.32548 0.96633 0.0
C253 C 0.06757 0.40781 0.00704 0.0
O254 O 0.04058 0.32501 0.99143 0.0
Zn255 Zn 0.05044 0.34962 0.02337 0.0
O256 O 0.04863 0.34537 0.95396 0.0
Zn257 Zn 0.05736 0.3665 0.98458 0.0
O258 O 0.09084 0.34792 0.00143 0.0
O259 O 0.07995 0.33196 0.04024 0.0
O260 O 0.06688 0.40371 0.98241 0.0
O261 O 0.06231 0.3892 0.02307 0.0
O262 O 0.01516 0.35363 0.03947 0.0
O263 O 0.01891 0.37046 0.99959 0.0
C264 C 0.09723 0.33569 0.0225 0.0
C265 C 0.00488 0.36511 0.0197 0.0
C266 C 0.38268 0.68493 0.51815 0.0
C267 C 0.46261 0.64136 0.48845 0.0
O268 O 0.38876 0.67648 0.49558 0.0
Zn269 Zn 0.42468 0.66575 0.50236 0.0
O270 O 0.4005 0.68593 0.53579 0.0
Zn271 Zn 0.4412 0.67537 0.5382 0.0
O272 O 0.46154 0.70686 0.54172 0.0
O273 O 0.45047 0.69952 0.5008 0.0
O274 O 0.46518 0.65131 0.51146 0.0
O275 O 0.44148 0.6451 0.47569 0.0
O276 O 0.42208 0.63578 0.53325 0.0
O277 O 0.44078 0.65303 0.5682 0.0
C278 C 0.46374 0.71262 0.51761 0.0
C279 C 0.42945 0.63381 0.55729 0.0
C280 C 0.62307 0.54207 0.43621 0.0
C281 C 0.70413 0.50423 0.46747 0.0
O282 O 0.64298 0.55329 0.4459 0.0
Zn283 Zn 0.66502 0.5232 0.44771 0.0
O284 O 0.62436 0.51759 0.4303 0.0
Zn285 Zn 0.65434 0.48677 0.43305 0.0
O286 O 0.63523 0.46084 0.45219 0.0
O287 O 0.64261 0.49749 0.47409 0.0
O288 O 0.69028 0.48682 0.45582 0.0
O289 O 0.6973 0.52812 0.46596 0.0
O290 O 0.67572 0.51765 0.40766 0.0
O291 O 0.66354 0.47769 0.3975 0.0
C292 C 0.63273 0.47433 0.47299 0.0
C293 C 0.6739 0.49923 0.39076 0.0
C294 C 0.79774 0.39182 0.71172 0.0
C295 C 0.77514 0.44876 0.63852 0.0
O296 O 0.81235 0.39836 0.69248 0.0
Zn297 Zn 0.78692 0.42126 0.67664 0.0
O298 O 0.77437 0.40129 0.71375 0.0
Zn299 Zn 0.74952 0.42874 0.69196 0.0
O300 O 0.7199 0.40727 0.68473 0.0
O301 O 0.75669 0.39267 0.66674 0.0
O302 O 0.75613 0.44701 0.65495 0.0
O303 O 0.79687 0.43784 0.64389 0.0
O304 O 0.78572 0.45075 0.70704 0.0
O305 O 0.74398 0.45629 0.71701 0.0
C306 C 0.73201 0.38998 0.67144 0.0
C307 C 0.7679 0.46166 0.7212 0.0
C308 C 0.84369 0.46385 0.96911 0.0
C309 C 0.76736 0.51949 0.97766 0.0
O310 O 0.8203 0.45771 0.97511 0.0
Zn311 Zn 0.80457 0.49094 0.96773 0.0
O312 O 0.84828 0.48666 0.95921 0.0
Zn313 Zn 0.82466 0.52199 0.95117 0.0
O314 O 0.84467 0.54734 0.96953 0.0
O315 O 0.82719 0.5163 0.99454 0.0
O316 O 0.78625 0.53205 0.96667 0.0
O317 O 0.76931 0.49483 0.98039 0.0
O318 O 0.80148 0.49217 0.92554 0.0
O319 O 0.82355 0.52728 0.91399 0.0
C320 C 0.84133 0.53704 0.99203 0.0
C321 C 0.8098 0.50776 0.90755 0.0
C322 C 0.69364 0.64076 0.22459 0.0
C323 C 0.70766 0.59738 0.14036 0.0
O324 O 0.67754 0.63942 0.20561 0.0
Zn325 Zn 0.70013 0.61894 0.18296 0.0
O326 O 0.71618 0.62947 0.22281 0.0
Zn327 Zn 0.73759 0.60584 0.19438 0.0
O328 O 0.76835 0.62599 0.1886 0.0
O329 O 0.73206 0.64656 0.17653 0.0
O330 O 0.72711 0.5946 0.15595 0.0
O331 O 0.68753 0.61 0.14804 0.0
O332 O 0.70084 0.58272 0.20533 0.0
O333 O 0.74252 0.57348 0.21257 0.0
C334 C 0.7571 0.64639 0.17968 0.0
C335 C 0.71846 0.56784 0.21562 0.0
C336 C 0.25979 0.29491 0.16445 0.0
C337 C 0.27488 0.31359 0.15105 0.0
C338 C 0.23835 0.30246 0.17996 0.0
C339 C 0.23153 0.32936 0.18172 0.0
C340 C 0.24731 0.34845 0.16907 0.0
C341 C 0.26902 0.34032 0.15398 0.0
C342 C 0.22235 0.28149 0.19357 0.0
C343 C 0.24051 0.37726 0.17038 0.0
C344 C 0.15898 0.33694 0.19538 0.0
C345 C 0.15873 0.33977 0.22272 0.0
C346 C 0.18273 0.33568 0.18143 0.0
C347 C 0.20676 0.33689 0.19526 0.0
C348 C 0.20661 0.3416 0.22261 0.0
C349 C 0.18252 0.34317 0.23602 0.0
C350 C 0.18207 0.33111 0.15217 0.0
C351 C 0.2318 0.34283 0.23806 0.0
H352 H 0.2645 0.27424 0.16242 0.0
H353 H 0.28062 0.35476 0.14349 0.0
H354 H 0.21982 0.28627 0.21465 0.0
H355 H 0.20249 0.28064 0.18474 0.0
H356 H 0.23159 0.26177 0.192 0.0
H357 H 0.25632 0.38975 0.16204 0.0
H358 H 0.2222 0.381 0.15922 0.0
H359 H 0.23677 0.38326 0.19096 0.0
H360 H 0.14062 0.33461 0.18498 0.0
H361 H 0.18245 0.34531 0.25718 0.0
H362 H 0.18821 0.31064 0.14792 0.0
H363 H 0.19604 0.34432 0.14192 0.0
H364 H 0.16214 0.33428 0.1439 0.0
H365 H 0.24028 0.32281 0.23981 0.0
H366 H 0.22856 0.35067 0.25813 0.0
H367 H 0.24651 0.35523 0.22784 0.0
C368 C 0.96637 0.91754 0.45342 0.0
C369 C 0.96857 0.89033 0.45008 0.0
C370 C 0.97664 0.93503 0.43467 0.0
C371 C 0.98966 0.9251 0.41211 0.0
C372 C 0.99192 0.89769 0.4086 0.0
C373 C 0.9812 0.88066 0.4275 0.0
C374 C 0.97341 0.96419 0.43891 0.0
C375 C 0.00612 0.88636 0.38515 0.0
C376 C 0.98895 0.973 0.35539 0.0
C377 C 0.01264 0.98638 0.35896 0.0
C378 C 0.98196 0.95183 0.3715 0.0
C379 C 0.99932 0.9436 0.39153 0.0
C380 C 0.02445 0.95537 0.39355 0.0
C381 C 0.03079 0.97686 0.37726 0.0
C382 C 0.955 0.93989 0.36867 0.0
C383 C 0.04363 0.94697 0.41448 0.0
H384 H 0.95689 0.9252 0.47089 0.0
H385 H 0.98353 0.85967 0.42494 0.0
H386 H 0.9928 0.97398 0.43803 0.0
H387 H 0.96119 0.97271 0.42302 0.0
H388 H 0.96401 0.96878 0.45807 0.0
H389 H 0.00662 0.86457 0.38553 0.0
H390 H 0.99645 0.8929 0.36678 0.0
H391 H 0.0266 0.8937 0.38454 0.0
H392 H 0.97474 0.98079 0.34157 0.0
H393 H 0.04881 0.98761 0.38054 0.0
H394 H 0.94373 0.94217 0.38721 0.0
H395 H 0.95682 0.91857 0.36477 0.0
H396 H 0.94349 0.94907 0.35261 0.0
H397 H 0.03745 0.95538 0.43359 0.0
H398 H 0.06384 0.95387 0.41005 0.0
H399 H 0.04398 0.9253 0.41666 0.0
C400 C 0.27455 0.74906 0.68349 0.0
C401 C 0.25831 0.72994 0.67246 0.0
C402 C 0.29889 0.74205 0.69465 0.0
C403 C 0.30706 0.71539 0.69464 0.0
C404 C 0.29074 0.69613 0.68349 0.0
C405 C 0.26669 0.70361 0.67259 0.0
C406 C 0.31587 0.7631 0.70645 0.0
C407 C 0.29867 0.66751 0.68306 0.0
C408 C 0.37948 0.69826 0.70057 0.0
C409 C 0.38144 0.69115 0.72711 0.0
C410 C 0.35542 0.70629 0.68978 0.0
C411 C 0.33278 0.70738 0.70596 0.0
C412 C 0.33447 0.69962 0.73261 0.0
C413 C 0.35875 0.69147 0.74283 0.0
C414 C 0.35431 0.71404 0.66117 0.0
C415 C 0.31073 0.70045 0.75046 0.0
H416 H 0.26819 0.76938 0.68355 0.0
H417 H 0.25443 0.6886 0.66402 0.0
H418 H 0.31965 0.75861 0.72741 0.0
H419 H 0.33519 0.76356 0.69631 0.0
H420 H 0.30668 0.78287 0.70503 0.0
H421 H 0.28357 0.65492 0.67383 0.0
H422 H 0.31738 0.66508 0.67207 0.0
H423 H 0.3021 0.66036 0.70335 0.0
H424 H 0.39696 0.69822 0.68834 0.0
H425 H 0.36016 0.68647 0.76347 0.0
H426 H 0.34742 0.73464 0.65929 0.0
H427 H 0.33998 0.70157 0.6507 0.0
H428 H 0.3737 0.71218 0.65126 0.0
H429 H 0.29489 0.68801 0.7424 0.0
H430 H 0.30296 0.72079 0.75155 0.0
H431 H 0.3153 0.69361 0.77066 0.0
C432 C 0.52522 0.1356 0.89542 0.0
C433 C 0.53929 0.12403 0.91624 0.0
C434 C 0.51647 0.12076 0.87413 0.0
C435 C 0.52217 0.09368 0.87331 0.0
C436 C 0.53711 0.08196 0.89374 0.0
C437 C 0.54545 0.09727 0.91505 0.0
C438 C 0.50055 0.13393 0.85284 0.0
C439 C 0.54392 0.05312 0.89324 0.0
C440 C 0.48347 0.04286 0.83592 0.0
C441 C 0.50149 0.03649 0.81614 0.0
C442 C 0.4888 0.06326 0.85358 0.0
C443 C 0.51258 0.07743 0.85114 0.0
C444 C 0.52883 0.07342 0.82895 0.0
C445 C 0.52293 0.05301 0.81167 0.0
C446 C 0.47066 0.06723 0.87666 0.0
C447 C 0.55427 0.08812 0.82529 0.0
H448 H 0.52036 0.15632 0.89601 0.0
H449 H 0.55617 0.08817 0.93102 0.0
H450 H 0.50996 0.13079 0.83344 0.0
H451 H 0.48072 0.12503 0.85202 0.0
H452 H 0.49831 0.15537 0.85607 0.0
H453 H 0.52569 0.04137 0.89204 0.0
H454 H 0.5558 0.04866 0.8755 0.0
H455 H 0.5551 0.04681 0.91085 0.0
H456 H 0.46717 0.02976 0.83983 0.0
H457 H 0.5372 0.04744 0.79698 0.0
H458 H 0.45068 0.05965 0.87256 0.0
H459 H 0.46911 0.08826 0.882 0.0
H460 H 0.47869 0.05644 0.89382 0.0
H461 H 0.55211 0.10903 0.83085 0.0
H462 H 0.56137 0.08711 0.80469 0.0
H463 H 0.56949 0.07925 0.83812 0.0
C464 C 0.21476 0.17425 0.35073 0.0
C465 C 0.2222 0.16483 0.32605 0.0
C466 C 0.20086 0.19808 0.35296 0.0
C467 C 0.19497 0.21272 0.33 0.0
C468 C 0.20384 0.20373 0.30523 0.0
C469 C 0.21707 0.17973 0.30358 0.0
C470 C 0.19134 0.20688 0.37958 0.0
C471 C 0.19845 0.21891 0.28028 0.0
C472 C 0.13504 0.25453 0.31881 0.0
C473 C 0.14592 0.27966 0.31839 0.0
C474 C 0.15031 0.23265 0.32551 0.0
C475 C 0.17734 0.23599 0.33092 0.0
C476 C 0.18796 0.26161 0.33229 0.0
C477 C 0.17194 0.28332 0.32624 0.0
C478 C 0.1379 0.20583 0.32447 0.0
C479 C 0.21671 0.26598 0.33777 0.0
H480 H 0.21891 0.16255 0.36804 0.0
H481 H 0.22326 0.17239 0.28456 0.0
H482 H 0.19597 0.22787 0.38273 0.0
H483 H 0.16966 0.20489 0.38064 0.0
H484 H 0.20016 0.19509 0.3957 0.0
H485 H 0.209 0.21053 0.26309 0.0
H486 H 0.17708 0.21872 0.27612 0.0
H487 H 0.20441 0.23968 0.28251 0.0
H488 H 0.11476 0.25187 0.31298 0.0
H489 H 0.18023 0.30287 0.32582 0.0
H490 H 0.14619 0.19252 0.3396 0.0
H491 H 0.14177 0.19701 0.30495 0.0
H492 H 0.11631 0.20703 0.32737 0.0
H493 H 0.2236 0.25304 0.3539 0.0
H494 H 0.22077 0.2867 0.343 0.0
H495 H 0.22834 0.26102 0.31999 0.0
C496 C 0.04727 0.84132 0.46527 0.0
C497 C 0.03887 0.82033 0.48092 0.0
C498 C 0.06997 0.85528 0.47171 0.0
C499 C 0.08413 0.84813 0.4945 0.0
C500 C 0.07796 0.82446 0.50777 0.0
C501 C 0.0553 0.8107 0.50065 0.0
C502 C 0.07692 0.87938 0.45589 0.0
C503 C 0.09326 0.81476 0.53117 0.0
C504 C 0.14503 0.88533 0.51469 0.0
C505 C 0.13425 0.90583 0.52977 0.0
C506 C 0.12902 0.86639 0.50308 0.0
C507 C 0.10161 0.86762 0.50702 0.0
C508 C 0.09063 0.88757 0.52312 0.0
C509 C 0.10711 0.90653 0.53421 0.0
C510 C 0.14134 0.84541 0.48614 0.0
C511 C 0.06136 0.88974 0.52774 0.0
H512 H 0.03439 0.84884 0.45005 0.0
H513 H 0.04869 0.79448 0.51279 0.0
H514 H 0.06889 0.89705 0.46576 0.0
H515 H 0.09854 0.88165 0.45432 0.0
H516 H 0.06848 0.87856 0.43584 0.0
H517 H 0.10186 0.79527 0.52655 0.0
H518 H 0.10933 0.8279 0.53735 0.0
H519 H 0.0797 0.81206 0.54796 0.0
H520 H 0.16602 0.88453 0.51117 0.0
H521 H 0.09859 0.92239 0.54557 0.0
H522 H 0.13222 0.84562 0.46639 0.0
H523 H 0.13762 0.82581 0.49492 0.0
H524 H 0.16289 0.84798 0.48389 0.0
H525 H 0.05211 0.89939 0.51054 0.0
H526 H 0.05674 0.90171 0.54535 0.0
H527 H 0.05222 0.87015 0.53013 0.0
C528 C 0.28908 0.801 0.84557 0.0
C529 C 0.29615 0.82748 0.84533 0.0
C530 C 0.30852 0.78141 0.84556 0.0
C531 C 0.33532 0.78879 0.8458 0.0
C532 C 0.3422 0.81542 0.84909 0.0
C533 C 0.32246 0.83455 0.84843 0.0
C534 C 0.30039 0.75322 0.84193 0.0
C535 C 0.37052 0.82403 0.85006 0.0
C536 C 0.38905 0.7369 0.84516 0.0
C537 C 0.39498 0.73585 0.8183 0.0
C538 C 0.36963 0.7541 0.85465 0.0
C539 C 0.35564 0.77005 0.83669 0.0
C540 C 0.36146 0.76881 0.80952 0.0
C541 C 0.38124 0.75192 0.80072 0.0
C542 C 0.36409 0.75524 0.88373 0.0
C543 C 0.34668 0.78522 0.78963 0.0
H544 H 0.26865 0.79566 0.84305 0.0
H545 H 0.32774 0.85515 0.84847 0.0
H546 H 0.30288 0.7478 0.82099 0.0
H547 H 0.31289 0.73979 0.8537 0.0
H548 H 0.2795 0.75013 0.84747 0.0
H549 H 0.37241 0.8442 0.85802 0.0
H550 H 0.3824 0.81041 0.86225 0.0
H551 H 0.37889 0.82387 0.82992 0.0
H552 H 0.39966 0.72438 0.85875 0.0
H553 H 0.38548 0.7508 0.77988 0.0
H554 H 0.34332 0.75 0.88766 0.0
H555 H 0.36695 0.77552 0.89097 0.0
H556 H 0.37698 0.74176 0.8951 0.0
H557 H 0.3253 0.7814 0.79122 0.0
H558 H 0.35301 0.78111 0.76916 0.0
H559 H 0.34976 0.80636 0.79359 0.0
C560 C 0.44891 0.99483 0.06381 0.0
C561 C 0.43019 0.00336 0.08216 0.0
C562 C 0.46874 0.01187 0.05487 0.0
C563 C 0.46993 0.03774 0.06488 0.0
C564 C 0.4535 0.0449 0.08617 0.0
C565 C 0.434 0.02746 0.09476 0.0
C566 C 0.48637 0.00315 0.03269 0.0
C567 C 0.45433 0.07207 0.09781 0.0
C568 C 0.52677 0.08298 0.0482 0.0
C569 C 0.51635 0.09846 0.02776 0.0
C570 C 0.51211 0.06296 0.06013 0.0
C571 C 0.48627 0.05811 0.05153 0.0
C572 C 0.47562 0.07342 0.03075 0.0
C573 C 0.49075 0.09351 0.01917 0.0
C574 C 0.52429 0.04702 0.08201 0.0
C575 C 0.44821 0.06852 0.02073 0.0
H576 H 0.446 0.9763 0.05389 0.0
H577 H 0.41943 0.03416 0.10883 0.0
H578 H 0.47916 0.01183 0.01407 0.0
H579 H 0.50678 0.01004 0.0356 0.0
H580 H 0.48661 0.98146 0.03066 0.0
H581 H 0.44296 0.07334 0.11642 0.0
H582 H 0.47486 0.07809 0.10164 0.0
H583 H 0.44586 0.08631 0.08362 0.0
H584 H 0.54655 0.08653 0.05507 0.0
H585 H 0.48264 0.10512 0.00327 0.0
H586 H 0.52376 0.02584 0.07712 0.0
H587 H 0.5128 0.04967 0.10035 0.0
H588 H 0.54498 0.05265 0.08581 0.0
H589 H 0.44664 0.04803 0.01367 0.0
H590 H 0.4428 0.082 0.00443 0.0
H591 H 0.43376 0.07096 0.03691 0.0
C592 C 0.04255 0.0812 0.42538 0.0
C593 C 0.01768 0.07009 0.42207 0.0
C594 C 0.05997 0.07147 0.44432 0.0
C595 C 0.05236 0.0499 0.46013 0.0
C596 C 0.02648 0.03995 0.45827 0.0
C597 C 0.00933 0.05029 0.43927 0.0
C598 C 0.0872 0.08296 0.44595 0.0
C599 C 0.01763 0.01696 0.47478 0.0
C600 C 0.10793 0.0055 0.48369 0.0
C601 C 0.11119 0.01411 0.50954 0.0
C602 C 0.08843 0.01661 0.46753 0.0
C603 C 0.07205 0.03693 0.47743 0.0
C604 C 0.07524 0.0456 0.50348 0.0
C605 C 0.09468 0.0341 0.51919 0.0
C606 C 0.08549 0.00679 0.43979 0.0
C607 C 0.05826 0.06722 0.51473 0.0
H608 H 0.04912 0.09623 0.41176 0.0
H609 H 0.99038 0.04118 0.43624 0.0
H610 H 0.09231 0.08727 0.46662 0.0
H611 H 0.10176 0.06848 0.43854 0.0
H612 H 0.0891 0.10128 0.43424 0.0
H613 H 0.02778 0.99889 0.46797 0.0
H614 H 0.02295 0.01987 0.49564 0.0
H615 H 0.9961 0.01382 0.47349 0.0
H616 H 0.12046 0.99 0.47615 0.0
H617 H 0.09699 0.04097 0.53914 0.0
H618 H 0.09065 0.02266 0.42576 0.0
H619 H 0.06478 0.00133 0.43601 0.0
H620 H 0.09825 0.98952 0.43574 0.0
H621 H 0.06114 0.08556 0.50331 0.0
H622 H 0.06275 0.07121 0.53564 0.0
H623 H 0.03721 0.06192 0.51314 0.0
C624 C 0.17485 0.70556 0.72782 0.0
C625 C 0.15538 0.7131 0.70997 0.0
C626 C 0.17984 0.72092 0.75009 0.0
C627 C 0.1648 0.744 0.7543 0.0
C628 C 0.14197 0.74845 0.73912 0.0
C629 C 0.13725 0.73251 0.7173 0.0
C630 C 0.20369 0.71471 0.76646 0.0
C631 C 0.12513 0.77261 0.74288 0.0
C632 C 0.1792 0.79336 0.80826 0.0
C633 C 0.19616 0.81079 0.79522 0.0
C634 C 0.16943 0.77097 0.7956 0.0
C635 C 0.17635 0.76625 0.76913 0.0
C636 C 0.19367 0.7837 0.75597 0.0
C637 C 0.20354 0.80557 0.76926 0.0
C638 C 0.15183 0.75236 0.81053 0.0
C639 C 0.20147 0.77958 0.72761 0.0
H640 H 0.18885 0.69045 0.72226 0.0
H641 H 0.12209 0.73825 0.70349 0.0
H642 H 0.22079 0.72573 0.75864 0.0
H643 H 0.20068 0.7206 0.78719 0.0
H644 H 0.20856 0.69346 0.76577 0.0
H645 H 0.10553 0.77032 0.73368 0.0
H646 H 0.12239 0.77714 0.76396 0.0
H647 H 0.13501 0.78965 0.73355 0.0
H648 H 0.17375 0.79708 0.82849 0.0
H649 H 0.21664 0.81893 0.75911 0.0
H650 H 0.16072 0.73245 0.81074 0.0
H651 H 0.13255 0.75075 0.80063 0.0
H652 H 0.14848 0.75872 0.8311 0.0
H653 H 0.2116 0.7604 0.72536 0.0
H654 H 0.21474 0.79519 0.72017 0.0
H655 H 0.18369 0.7792 0.71508 0.0
C656 C 0.42414 0.9903 0.99323 0.0
C657 C 0.40539 0.01044 0.99005 0.0
C658 C 0.44353 0.98541 0.97445 0.0
C659 C 0.44461 0.00109 0.95163 0.0
C660 C 0.42672 0.02243 0.94876 0.0
C661 C 0.40737 0.02704 0.96821 0.0
C662 C 0.46199 0.96241 0.97849 0.0
C663 C 0.42775 0.04023 0.92515 0.0
C664 C 0.50614 0.98892 0.91033 0.0
C665 C 0.49688 0.9707 0.89204 0.0
C666 C 0.48907 0.00019 0.92905 0.0
C667 C 0.46232 0.99257 0.92982 0.0
C668 C 0.45307 0.97391 0.9116 0.0
C669 C 0.47038 0.96332 0.89296 0.0
C670 C 0.49946 0.02053 0.94771 0.0
C671 C 0.42479 0.96504 0.91179 0.0
H672 H 0.42339 0.97768 0.01036 0.0
H673 H 0.39336 0.04294 0.96588 0.0
H674 H 0.45852 0.94743 0.96317 0.0
H675 H 0.48268 0.96887 0.9766 0.0
H676 H 0.45939 0.95298 0.99801 0.0
H677 H 0.4442 0.05417 0.92764 0.0
H678 H 0.43134 0.02893 0.90691 0.0
H679 H 0.40934 0.05178 0.92284 0.0
H680 H 0.52642 0.9952 0.90927 0.0
H681 H 0.46301 0.94953 0.87864 0.0
H682 H 0.49699 0.01372 0.96825 0.0
H683 H 0.48802 0.03899 0.94556 0.0
H684 H 0.52056 0.02482 0.94422 0.0
H685 H 0.42024 0.95515 0.9307 0.0
H686 H 0.42044 0.95125 0.89557 0.0
H687 H 0.41151 0.98228 0.91007 0.0
C688 C 0.29658 0.17021 0.25442 0.0
C689 C 0.31363 0.15369 0.26829 0.0
C690 C 0.30544 0.18467 0.23286 0.0
C691 C 0.33196 0.1822 0.22473 0.0
C692 C 0.34966 0.1666 0.23949 0.0
C693 C 0.34026 0.15256 0.26134 0.0
C694 C 0.286 0.20153 0.21797 0.0
C695 C 0.37802 0.16347 0.23136 0.0
C696 C 0.3344 0.19486 0.15219 0.0
C697 C 0.3394 0.22187 0.1517 0.0
C698 C 0.33476 0.18085 0.17586 0.0
C699 C 0.34 0.1943 0.1995 0.0
C700 C 0.34783 0.22087 0.19873 0.0
C701 C 0.34752 0.23438 0.17474 0.0
C702 C 0.32687 0.15232 0.1758 0.0
C703 C 0.35388 0.23577 0.2235 0.0
H704 H 0.27603 0.17127 0.26006 0.0
H705 H 0.35338 0.13962 0.27205 0.0
H706 H 0.2938 0.22166 0.21533 0.0
H707 H 0.28284 0.19319 0.19816 0.0
H708 H 0.26669 0.20288 0.22812 0.0
H709 H 0.39014 0.15492 0.24735 0.0
H710 H 0.37923 0.15024 0.21416 0.0
H711 H 0.38654 0.18259 0.22539 0.0
H712 H 0.32863 0.18497 0.13434 0.0
H713 H 0.35174 0.25521 0.17446 0.0
H714 H 0.30632 0.15054 0.18295 0.0
H715 H 0.33952 0.14064 0.18916 0.0
H716 H 0.32803 0.1437 0.15584 0.0
H717 H 0.33521 0.24102 0.23352 0.0
H718 H 0.36477 0.25416 0.21927 0.0
H719 H 0.36558 0.22357 0.23726 0.0
C720 C 0.83425 0.37421 0.73935 0.0
C721 C 0.8076 0.37439 0.73257 0.0
C722 C 0.84307 0.35997 0.76128 0.0
C723 C 0.82481 0.34531 0.77628 0.0
C724 C 0.7981 0.34452 0.7687 0.0
C725 C 0.78979 0.35929 0.74708 0.0
C726 C 0.8716 0.36149 0.76901 0.0
C727 C 0.77809 0.32867 0.78387 0.0
C728 C 0.84203 0.29056 0.82332 0.0
C729 C 0.83603 0.30234 0.84745 0.0
C730 C 0.84039 0.30489 0.79985 0.0
C731 C 0.83294 0.33164 0.80068 0.0
C732 C 0.82934 0.34422 0.82516 0.0
C733 C 0.83075 0.32934 0.8483 0.0
C734 C 0.84427 0.29077 0.77413 0.0
C735 C 0.82188 0.37288 0.82685 0.0
H736 H 0.84798 0.3861 0.72822 0.0
H737 H 0.76921 0.35926 0.74167 0.0
H738 H 0.87332 0.37229 0.78778 0.0
H739 H 0.8798 0.34155 0.77228 0.0
H740 H 0.88369 0.37166 0.75394 0.0
H741 H 0.75851 0.3288 0.77433 0.0
H742 H 0.78482 0.30803 0.78585 0.0
H743 H 0.77589 0.33674 0.80395 0.0
H744 H 0.84618 0.2697 0.82252 0.0
H745 H 0.82643 0.33861 0.86694 0.0
H746 H 0.85611 0.30275 0.7603 0.0
H747 H 0.82486 0.28747 0.76491 0.0
H748 H 0.85407 0.27143 0.77683 0.0
H749 H 0.83429 0.38483 0.8135 0.0
H750 H 0.82381 0.38058 0.84712 0.0
H751 H 0.80117 0.37549 0.8206 0.0
C752 C 0.94992 0.58245 0.09099 0.0
C753 C 0.94084 0.58622 0.11666 0.0
C754 C 0.93231 0.57745 0.07056 0.0
C755 C 0.90498 0.57702 0.07591 0.0
C756 C 0.89566 0.5831 0.10137 0.0
C757 C 0.91376 0.58719 0.1216 0.0
C758 C 0.94307 0.57051 0.0438 0.0
C759 C 0.86665 0.5837 0.10763 0.0
C760 C 0.86088 0.57466 0.01613 0.0
C761 C 0.85528 0.5478 0.01479 0.0
C762 C 0.87607 0.58474 0.03664 0.0
C763 C 0.88655 0.56736 0.05565 0.0
C764 C 0.88053 0.54027 0.05459 0.0
C765 C 0.86459 0.53088 0.03436 0.0
C766 C 0.88137 0.61383 0.03766 0.0
C767 C 0.89179 0.52099 0.07417 0.0
H768 H 0.97088 0.58136 0.08723 0.0
H769 H 0.90676 0.59019 0.14149 0.0
H770 H 0.93903 0.54955 0.03965 0.0
H771 H 0.93323 0.58231 0.02836 0.0
H772 H 0.9646 0.57372 0.04235 0.0
H773 H 0.86257 0.5929 0.12695 0.0
H774 H 0.85572 0.59463 0.09225 0.0
H775 H 0.85894 0.56338 0.10805 0.0
H776 H 0.85347 0.58776 0.00104 0.0
H777 H 0.86044 0.51007 0.03317 0.0
H778 H 0.90248 0.61753 0.03381 0.0
H779 H 0.87683 0.62155 0.0575 0.0
H780 H 0.86962 0.62496 0.023 0.0
H781 H 0.91357 0.52134 0.07316 0.0
H782 H 0.88512 0.5006 0.07061 0.0
H783 H 0.88604 0.52666 0.09438 0.0
C784 C 0.67146 0.68926 0.3706 0.0
C785 C 0.66917 0.71662 0.37235 0.0
C786 C 0.67122 0.67666 0.34615 0.0
C787 C 0.66916 0.69186 0.32292 0.0
C788 C 0.66513 0.71929 0.32469 0.0
C789 C 0.66494 0.73132 0.34942 0.0
C790 C 0.67499 0.64727 0.34513 0.0
C791 C 0.66317 0.73626 0.30042 0.0
C792 C 0.70689 0.66516 0.26452 0.0
C793 C 0.6868 0.65499 0.24891 0.0
C794 C 0.70126 0.67769 0.28831 0.0
C795 C 0.67488 0.67963 0.29703 0.0
C796 C 0.65443 0.66957 0.28127 0.0
C797 C 0.66062 0.65759 0.25719 0.0
C798 C 0.72364 0.68864 0.30422 0.0
C799 C 0.62615 0.67091 0.29016 0.0
H800 H 0.67451 0.67776 0.38827 0.0
H801 H 0.66327 0.7525 0.35059 0.0
H802 H 0.66099 0.63835 0.33117 0.0
H803 H 0.69512 0.6427 0.33805 0.0
H804 H 0.67228 0.63795 0.36469 0.0
H805 H 0.65661 0.75654 0.30506 0.0
H806 H 0.68272 0.73732 0.29077 0.0
H807 H 0.64935 0.72765 0.28611 0.0
H808 H 0.72714 0.66339 0.25807 0.0
H809 H 0.64507 0.64956 0.24523 0.0
H810 H 0.72483 0.67828 0.32336 0.0
H811 H 0.72011 0.70972 0.30839 0.0
H812 H 0.74288 0.68664 0.29404 0.0
H813 H 0.62371 0.65956 0.30862 0.0
H814 H 0.61248 0.66297 0.27525 0.0
H815 H 0.62049 0.6915 0.29445 0.0
C816 C 0.7998 0.6695 0.17423 0.0
C817 C 0.77238 0.67072 0.17655 0.0
C818 C 0.81508 0.69217 0.17653 0.0
C819 C 0.80261 0.71648 0.18171 0.0
C820 C 0.77485 0.71811 0.18226 0.0
C821 C 0.76002 0.69517 0.17944 0.0
C822 C 0.84463 0.68973 0.17528 0.0
C823 C 0.76084 0.74364 0.18799 0.0
C824 C 0.84099 0.76291 0.22464 0.0
C825 C 0.84983 0.78155 0.20642 0.0
C826 C 0.82525 0.74192 0.21682 0.0
C827 C 0.81858 0.73925 0.19003 0.0
C828 C 0.82746 0.75796 0.17149 0.0
C829 C 0.84284 0.77909 0.17996 0.0
C830 C 0.81582 0.72256 0.23728 0.0
C831 C 0.82101 0.75547 0.14273 0.0
H832 H 0.8094 0.65064 0.17173 0.0
H833 H 0.73882 0.69619 0.18134 0.0
H834 H 0.8531 0.70557 0.16294 0.0
H835 H 0.85286 0.69182 0.19528 0.0
H836 H 0.85104 0.67048 0.16728 0.0
H837 H 0.7394 0.74235 0.18429 0.0
H838 H 0.7638 0.74889 0.20888 0.0
H839 H 0.76905 0.75979 0.17589 0.0
H840 H 0.84614 0.76488 0.24516 0.0
H841 H 0.84975 0.79342 0.1658 0.0
H842 H 0.82367 0.70272 0.23286 0.0
H843 H 0.79407 0.72131 0.2369 0.0
H844 H 0.82198 0.72802 0.25741 0.0
H845 H 0.82901 0.73672 0.13504 0.0
H846 H 0.82915 0.77188 0.13087 0.0
H847 H 0.79941 0.75499 0.14001 0.0
C848 C 0.66202 0.25969 0.70017 0.0
C849 C 0.6541 0.24325 0.67974 0.0
C850 C 0.67485 0.2834 0.69499 0.0
C851 C 0.67939 0.29117 0.66866 0.0
C852 C 0.67126 0.27477 0.64788 0.0
C853 C 0.65893 0.25079 0.65368 0.0
C854 C 0.68363 0.30007 0.71776 0.0
C855 C 0.67535 0.2827 0.6196 0.0
C856 C 0.69108 0.36424 0.66428 0.0
C857 C 0.71858 0.36525 0.66485 0.0
C858 C 0.67795 0.34013 0.66322 0.0
C859 C 0.69272 0.31653 0.66333 0.0
C860 C 0.72049 0.31752 0.6621 0.0
C861 C 0.7331 0.34193 0.66261 0.0
C862 C 0.6483 0.33992 0.6639 0.0
C863 C 0.73697 0.29282 0.66255 0.0
H864 H 0.65855 0.25383 0.72035 0.0
H865 H 0.65267 0.23817 0.63784 0.0
H866 H 0.70507 0.30369 0.71639 0.0
H867 H 0.67362 0.31944 0.71705 0.0
H868 H 0.67934 0.29077 0.73704 0.0
H869 H 0.66777 0.26781 0.60573 0.0
H870 H 0.66528 0.30166 0.61571 0.0
H871 H 0.69656 0.28568 0.61561 0.0
H872 H 0.67978 0.38227 0.66574 0.0
H873 H 0.75437 0.34259 0.66315 0.0
H874 H 0.64149 0.33394 0.68374 0.0
H875 H 0.6405 0.32549 0.64971 0.0
H876 H 0.63983 0.35954 0.65936 0.0
H877 H 0.73577 0.28371 0.68233 0.0
H878 H 0.75794 0.2968 0.65802 0.0
H879 H 0.72947 0.27832 0.64829 0.0
C880 C 0.43161 0.60696 0.59831 0.0
C881 C 0.42813 0.60829 0.57106 0.0
C882 C 0.43515 0.58275 0.61102 0.0
C883 C 0.43566 0.55944 0.59602 0.0
C884 C 0.43061 0.56054 0.56875 0.0
C885 C 0.42668 0.58498 0.55662 0.0
C886 C 0.43997 0.58231 0.64024 0.0
C887 C 0.43132 0.53615 0.55204 0.0
C888 C 0.48029 0.5057 0.62186 0.0
C889 C 0.46225 0.488 0.63271 0.0
C890 C 0.47178 0.52874 0.60942 0.0
C891 C 0.44456 0.53447 0.60826 0.0
C892 C 0.42621 0.51663 0.61909 0.0
C893 C 0.43529 0.49341 0.63099 0.0
C894 C 0.49196 0.54703 0.59768 0.0
C895 C 0.3971 0.52235 0.61858 0.0
H896 H 0.43252 0.62491 0.60959 0.0
H897 H 0.42411 0.58589 0.53553 0.0
H898 H 0.42793 0.56691 0.64985 0.0
H899 H 0.46089 0.57751 0.64405 0.0
H900 H 0.4354 0.6015 0.64952 0.0
H901 H 0.42402 0.53991 0.53185 0.0
H902 H 0.45182 0.52879 0.55068 0.0
H903 H 0.41935 0.52037 0.56108 0.0
H904 H 0.50114 0.50147 0.62298 0.0
H905 H 0.42132 0.47983 0.63954 0.0
H906 H 0.49118 0.56624 0.60782 0.0
H907 H 0.48755 0.55068 0.57667 0.0
H908 H 0.51226 0.53909 0.59921 0.0
H909 H 0.39291 0.54065 0.62958 0.0
H910 H 0.38538 0.50619 0.62735 0.0
H911 H 0.3905 0.52559 0.59811 0.0
C912 C 0.77848 0.18116 0.83961 0.0
C913 C 0.77983 0.20778 0.84626 0.0
C914 C 0.75881 0.17201 0.82277 0.0
C915 C 0.74045 0.19004 0.81217 0.0
C916 C 0.74243 0.21708 0.81804 0.0
C917 C 0.76198 0.22558 0.83518 0.0
C918 C 0.75711 0.14304 0.81706 0.0
C919 C 0.72344 0.23699 0.80679 0.0
C920 C 0.69763 0.17653 0.75335 0.0
C921 C 0.67301 0.17365 0.7654 0.0
C922 C 0.72028 0.18027 0.76843 0.0
C923 C 0.71815 0.18081 0.79611 0.0
C924 C 0.69368 0.1758 0.80836 0.0
C925 C 0.67134 0.17243 0.79283 0.0
C926 C 0.74603 0.18568 0.75469 0.0
C927 C 0.69071 0.17584 0.83787 0.0
H928 H 0.79224 0.16735 0.84823 0.0
H929 H 0.76319 0.24623 0.84004 0.0
H930 H 0.73877 0.13503 0.82571 0.0
H931 H 0.75623 0.13967 0.79559 0.0
H932 H 0.77405 0.13191 0.82518 0.0
H933 H 0.72877 0.25744 0.81195 0.0
H934 H 0.72284 0.23535 0.7851 0.0
H935 H 0.70335 0.23305 0.81428 0.0
H936 H 0.69901 0.17751 0.73214 0.0
H937 H 0.65236 0.16988 0.80221 0.0
H938 H 0.76222 0.17433 0.76386 0.0
H939 H 0.75086 0.20679 0.75661 0.0
H940 H 0.74525 0.18081 0.73348 0.0
H941 H 0.70635 0.16377 0.84712 0.0
H942 H 0.67129 0.16824 0.84428 0.0
H943 H 0.6928 0.19616 0.84527 0.0
C944 C 0.02336 0.51146 0.10466 0.0
C945 C 0.03745 0.53471 0.1084 0.0
C946 C 0.03073 0.49349 0.08514 0.0
C947 C 0.05274 0.49886 0.0689 0.0
C948 C 0.06677 0.5225 0.07223 0.0
C949 C 0.059 0.54011 0.09196 0.0
C950 C 0.01522 0.46846 0.08225 0.0
C951 C 0.09023 0.52896 0.05523 0.0
C952 C 0.08312 0.43654 0.04256 0.0
C953 C 0.07059 0.43422 0.01826 0.0
C954 C 0.0791 0.45858 0.05841 0.0
C955 C 0.06194 0.47873 0.0498 0.0
C956 C 0.05115 0.47761 0.02421 0.0
C957 C 0.05569 0.45528 0.00863 0.0
C958 C 0.09123 0.45904 0.0854 0.0
C959 C 0.03291 0.49877 0.01424 0.0
H960 H 0.0066 0.50718 0.1171 0.0
H961 H 0.06992 0.55812 0.09454 0.0
H962 H 0.00815 0.4665 0.06179 0.0
H963 H 0.02805 0.4513 0.08641 0.0
H964 H 0.99801 0.46772 0.09569 0.0
H965 H 0.09799 0.54889 0.05915 0.0
H966 H 0.10614 0.51444 0.05876 0.0
H967 H 0.0849 0.52766 0.03419 0.0
H968 H 0.0946 0.42018 0.05001 0.0
H969 H 0.04568 0.45334 0.99001 0.0
H970 H 0.07575 0.45556 0.10039 0.0
H971 H 0.09998 0.47849 0.08943 0.0
H972 H 0.10668 0.44375 0.08774 0.0
H973 H 0.0135 0.49677 0.02399 0.0
H974 H 0.03 0.49745 0.9927 0.0
H975 H 0.04057 0.51852 0.01901 0.0
C976 C 0.73569 0.83395 0.37537 0.0
C977 C 0.73171 0.80692 0.37856 0.0
C978 C 0.75612 0.84338 0.35936 0.0
C979 C 0.77257 0.8253 0.34603 0.0
C980 C 0.76787 0.79804 0.34837 0.0
C981 C 0.74763 0.78919 0.36477 0.0
C982 C 0.76074 0.87256 0.35749 0.0
C983 C 0.78469 0.77811 0.33413 0.0
C984 C 0.81631 0.84246 0.28831 0.0
C985 C 0.84121 0.84107 0.2999 0.0
C986 C 0.79346 0.83903 0.3034 0.0
C987 C 0.79566 0.83443 0.33071 0.0
C988 C 0.82063 0.83517 0.3428 0.0
C989 C 0.84314 0.83831 0.32721 0.0
C990 C 0.7672 0.83824 0.28979 0.0
C991 C 0.82375 0.83076 0.37195 0.0
H992 H 0.72346 0.84769 0.38613 0.0
H993 H 0.74441 0.76828 0.36698 0.0
H994 H 0.77973 0.87741 0.36685 0.0
H995 H 0.76209 0.87879 0.33665 0.0
H996 H 0.74492 0.88405 0.36725 0.0
H997 H 0.77731 0.75778 0.33669 0.0
H998 H 0.78539 0.78272 0.31285 0.0
H999 H 0.80511 0.77892 0.34158 0.0
H1000 H 0.81469 0.84455 0.2672 0.0
H1001 H 0.86234 0.83752 0.3363 0.0
H1002 H 0.75232 0.84979 0.3008 0.0
H1003 H 0.7602 0.81767 0.28906 0.0
H1004 H 0.76836 0.84593 0.26939 0.0
H1005 H 0.80945 0.8429 0.38309 0.0
H1006 H 0.84388 0.83546 0.37876 0.0
H1007 H 0.81968 0.80991 0.37672 0.0
C1008 C 0.53726 0.42644 0.58773 0.0
C1009 C 0.55141 0.42371 0.61111 0.0
C1010 C 0.55024 0.4313 0.56389 0.0
C1011 C 0.57799 0.43302 0.56351 0.0
C1012 C 0.59242 0.42799 0.58667 0.0
C1013 C 0.57893 0.42361 0.61028 0.0
C1014 C 0.53416 0.43673 0.53963 0.0
C1015 C 0.62206 0.42913 0.58693 0.0
C1016 C 0.61388 0.43653 0.49812 0.0
C1017 C 0.61846 0.46357 0.49585 0.0
C1018 C 0.60073 0.42617 0.52007 0.0
C1019 C 0.59166 0.44335 0.5399 0.0
C1020 C 0.59592 0.47069 0.5375 0.0
C1021 C 0.60944 0.48044 0.5156 0.0
C1022 C 0.59682 0.3969 0.5222 0.0
C1023 C 0.58622 0.48969 0.5581 0.0
H1024 H 0.51596 0.42664 0.5883 0.0
H1025 H 0.58993 0.42123 0.62831 0.0
H1026 H 0.53509 0.45797 0.53484 0.0
H1027 H 0.54221 0.42589 0.52256 0.0
H1028 H 0.51322 0.43126 0.54235 0.0
H1029 H 0.63036 0.421 0.60539 0.0
H1030 H 0.63044 0.41811 0.57011 0.0
H1031 H 0.62846 0.44982 0.58494 0.0
H1032 H 0.62094 0.4234 0.48294 0.0
H1033 H 0.61275 0.50137 0.51383 0.0
H1034 H 0.57561 0.39239 0.52415 0.0
H1035 H 0.60662 0.38933 0.54012 0.0
H1036 H 0.60481 0.38625 0.50493 0.0
H1037 H 0.56472 0.48752 0.56092 0.0
H1038 H 0.59041 0.51043 0.55283 0.0
H1039 H 0.5957 0.48525 0.57718 0.0
C1040 C 0.9649 0.38859 0.03635 0.0
C1041 C 0.97684 0.37203 0.01798 0.0
C1042 C 0.94117 0.4016 0.03031 0.0
C1043 C 0.92952 0.39799 0.00531 0.0
C1044 C 0.94071 0.37981 0.98754 0.0
C1045 C 0.96406 0.3669 0.99423 0.0
C1046 C 0.92967 0.42066 0.04984 0.0
C1047 C 0.92902 0.37526 0.96073 0.0
C1048 C 0.86057 0.42223 0.98951 0.0
C1049 C 0.86568 0.4462 0.97679 0.0
C1050 C 0.88107 0.40657 0.99941 0.0
C1051 C 0.90734 0.41498 0.99646 0.0
C1052 C 0.91267 0.43901 0.98342 0.0
C1053 C 0.8918 0.45431 0.97377 0.0
C1054 C 0.87461 0.38109 0.01314 0.0
C1055 C 0.94049 0.44845 0.97944 0.0
H1056 H 0.97501 0.39287 0.05451 0.0
H1057 H 0.9734 0.35403 0.98003 0.0
H1058 H 0.93294 0.44102 0.04282 0.0
H1059 H 0.90815 0.41783 0.05171 0.0
H1060 H 0.93875 0.41851 0.06952 0.0
H1061 H 0.94184 0.36286 0.94813 0.0
H1062 H 0.90971 0.36549 0.96286 0.0
H1063 H 0.92567 0.39419 0.95043 0.0
H1064 H 0.84045 0.41583 0.99215 0.0
H1065 H 0.89598 0.47285 0.96417 0.0
H1066 H 0.88334 0.38086 0.03306 0.0
H1067 H 0.88332 0.36441 0.00218 0.0
H1068 H 0.85311 0.37792 0.01495 0.0
H1069 H 0.95056 0.45002 0.99862 0.0
H1070 H 0.94129 0.46784 0.96944 0.0
H1071 H 0.95164 0.43403 0.96747 0.0
C1072 C 0.57406 0.5426 0.43735 0.0
C1073 C 0.59778 0.55635 0.43536 0.0
C1074 C 0.55037 0.55587 0.44245 0.0
C1075 C 0.55046 0.5835 0.44519 0.0
C1076 C 0.57398 0.59761 0.44095 0.0
C1077 C 0.59742 0.58384 0.43628 0.0
C1078 C 0.52573 0.54011 0.44703 0.0
C1079 C 0.57481 0.62714 0.44324 0.0
C1080 C 0.48624 0.62169 0.44998 0.0
C1081 C 0.48431 0.62569 0.47713 0.0
C1082 C 0.50755 0.60775 0.43917 0.0
C1083 C 0.52704 0.59729 0.45599 0.0
C1084 C 0.52477 0.60072 0.48347 0.0
C1085 C 0.50356 0.61504 0.49366 0.0
C1086 C 0.50954 0.60475 0.40978 0.0
C1087 C 0.54494 0.58954 0.50214 0.0
H1088 H 0.57425 0.52134 0.43676 0.0
H1089 H 0.61569 0.59456 0.43449 0.0
H1090 H 0.52089 0.54011 0.46828 0.0
H1091 H 0.50884 0.54903 0.43655 0.0
H1092 H 0.52804 0.51943 0.44055 0.0
H1093 H 0.59357 0.63535 0.4357 0.0
H1094 H 0.5583 0.63626 0.43232 0.0
H1095 H 0.57264 0.63279 0.46414 0.0
H1096 H 0.47144 0.62998 0.43712 0.0
H1097 H 0.50202 0.61784 0.51469 0.0
H1098 H 0.51155 0.58373 0.40455 0.0
H1099 H 0.52739 0.61486 0.40246 0.0
H1100 H 0.49216 0.61303 0.39949 0.0
H1101 H 0.54724 0.56813 0.49892 0.0
H1102 H 0.53956 0.59283 0.52302 0.0
H1103 H 0.56431 0.59871 0.49835 0.0
C1104 C 0.04357 0.14375 0.30527 0.0
C1105 C 0.0206 0.13546 0.31805 0.0
C1106 C 0.04771 0.17043 0.29947 0.0
C1107 C 0.02834 0.18927 0.30645 0.0
C1108 C 0.00497 0.18098 0.31898 0.0
C1109 C 0.00141 0.15425 0.32466 0.0
C1110 C 0.07281 0.17842 0.28579 0.0
C1111 C 0.98378 0.20037 0.32658 0.0
C1112 C 0.0522 0.25952 0.31328 0.0
C1113 C 0.04671 0.26994 0.28836 0.0
C1114 C 0.04561 0.23353 0.31972 0.0
C1115 C 0.03278 0.2177 0.30098 0.0
C1116 C 0.02549 0.2287 0.27651 0.0
C1117 C 0.03264 0.25463 0.27045 0.0
C1118 C 0.05385 0.22252 0.34599 0.0
C1119 C 0.01143 0.21264 0.25613 0.0
H1120 H 0.05847 0.12943 0.30002 0.0
H1121 H 0.98353 0.14812 0.33448 0.0
H1122 H 0.06828 0.18491 0.26551 0.0
H1123 H 0.08198 0.19522 0.29596 0.0
H1124 H 0.08729 0.16208 0.28479 0.0
H1125 H 0.96641 0.19067 0.33553 0.0
H1126 H 0.99168 0.21473 0.34078 0.0
H1127 H 0.97728 0.2116 0.30906 0.0
H1128 H 0.06331 0.27103 0.32718 0.0
H1129 H 0.02834 0.26248 0.25113 0.0
H1130 H 0.068 0.20616 0.34303 0.0
H1131 H 0.03658 0.21437 0.3565 0.0
H1132 H 0.06319 0.23752 0.35861 0.0
H1133 H 0.02486 0.19721 0.24854 0.0
H1134 H 0.00463 0.22481 0.23934 0.0
H1135 H 0.99423 0.2026 0.26496 0.0
C1136 C 0.10746 0.78835 0.63362 0.0
C1137 C 0.12065 0.77129 0.61658 0.0
C1138 C 0.08132 0.79603 0.62889 0.0
C1139 C 0.06858 0.78771 0.60561 0.0
C1140 C 0.08194 0.76997 0.58857 0.0
C1141 C 0.10755 0.76164 0.59463 0.0
C1142 C 0.06774 0.81266 0.64933 0.0
C1143 C 0.06957 0.75906 0.56404 0.0
C1144 C 0.9975 0.79156 0.58283 0.0
C1145 C 0.99644 0.81696 0.57236 0.0
C1146 C 0.01983 0.78267 0.59649 0.0
C1147 C 0.04242 0.79889 0.5979 0.0
C1148 C 0.04056 0.8253 0.589 0.0
C1149 C 0.01739 0.83408 0.5769 0.0
C1150 C 0.01918 0.75546 0.6082 0.0
C1151 C 0.06313 0.84437 0.59112 0.0
H1152 H 0.11722 0.79493 0.65128 0.0
H1153 H 0.11753 0.74774 0.58193 0.0
H1154 H 0.04628 0.8146 0.64618 0.0
H1155 H 0.07098 0.80403 0.66911 0.0
H1156 H 0.07671 0.83246 0.64949 0.0
H1157 H 0.08464 0.75533 0.54866 0.0
H1158 H 0.06048 0.73989 0.56879 0.0
H1159 H 0.05428 0.77213 0.5557 0.0
H1160 H 0.98124 0.7783 0.57958 0.0
H1161 H 0.01665 0.8538 0.56886 0.0
H1162 H 0.03579 0.75153 0.62171 0.0
H1163 H 0.01944 0.74074 0.59222 0.0
H1164 H 1.00051 0.75264 0.61918 0.0
H1165 H 0.06165 0.85472 0.61016 0.0
H1166 H 0.06226 0.85955 0.57553 0.0
H1167 H 0.0826 0.83463 0.58999 0.0
C1168 C 0.53458 0.86852 0.81093 0.0
C1169 C 0.51329 0.88389 0.80233 0.0
C1170 C 0.53439 0.84106 0.80854 0.0
C1171 C 0.51227 0.82862 0.79751 0.0
C1172 C 0.49072 0.84401 0.7888 0.0
C1173 C 0.49154 0.87145 0.79118 0.0
C1174 C 0.55781 0.82537 0.81783 0.0
C1175 C 0.46665 0.83148 0.77708 0.0
C1176 C 0.51308 0.76091 0.767 0.0
C1177 C 0.49942 0.74625 0.78596 0.0
C1178 C 0.51921 0.78739 0.77128 0.0
C1179 C 0.51136 0.7995 0.79502 0.0
C1180 C 0.49986 0.78414 0.81518 0.0
C1181 C 0.49419 0.75763 0.81048 0.0
C1182 C 0.53204 0.8029 0.74948 0.0
C1183 C 0.49127 0.79623 0.84083 0.0
H1184 H 0.55154 0.87794 0.81948 0.0
H1185 H 0.47499 0.88312 0.78457 0.0
H1186 H 0.55171 0.81144 0.83345 0.0
H1187 H 0.56591 0.81354 0.80143 0.0
H1188 H 0.57365 0.83804 0.82561 0.0
H1189 H 0.4515 0.84617 0.77144 0.0
H1190 H 0.47223 0.82006 0.75942 0.0
H1191 H 0.45783 0.81756 0.79138 0.0
H1192 H 0.51736 0.75225 0.74806 0.0
H1193 H 0.4836 0.74653 0.82527 0.0
H1194 H 0.54785 0.81553 0.7573 0.0
H1195 H 0.51721 0.81596 0.74022 0.0
H1196 H 0.54048 0.78997 0.73408 0.0
H1197 H 0.50693 0.80891 0.84887 0.0
H1198 H 0.48613 0.78112 0.85573 0.0
H1199 H 0.47375 0.8088 0.83745 0.0
C1200 C 0.41722 0.28648 0.07797 0.0
C1201 C 0.39517 0.27564 0.0657 0.0
C1202 C 0.44265 0.27684 0.07273 0.0
C1203 C 0.44607 0.25626 0.05444 0.0
C1204 C 0.42393 0.24606 0.04121 0.0
C1205 C 0.39877 0.25568 0.04721 0.0
C1206 C 0.46567 0.28795 0.0875 0.0
C1207 C 0.42672 0.22458 0.02104 0.0
C1208 C 0.50859 0.2417 0.01722 0.0
C1209 C 0.51554 0.21707 0.02755 0.0
C1210 C 0.48727 0.25593 0.02733 0.0
C1211 C 0.47266 0.24538 0.04848 0.0
C1212 C 0.4815 0.22203 0.06096 0.0
C1213 C 0.50291 0.20803 0.05027 0.0
C1214 C 0.4787 0.28072 0.01341 0.0
C1215 C 0.46684 0.2105 0.08402 0.0
H1216 H 0.4145 0.30158 0.09266 0.0
H1217 H 0.38178 0.24721 0.03775 0.0
H1218 H 0.47403 0.2726 0.10055 0.0
H1219 H 0.48145 0.29394 0.0737 0.0
H1220 H 0.46001 0.30513 0.09965 0.0
H1221 H 0.40766 0.21947 0.01188 0.0
H1222 H 0.44056 0.23074 0.00534 0.0
H1223 H 0.435 0.20667 0.03035 0.0
H1224 H 0.51849 0.24885 0.99974 0.0
H1225 H 0.50812 0.18896 0.05824 0.0
H1226 H 0.47322 0.29619 0.02767 0.0
H1227 H 0.46107 0.27653 0.00142 0.0
H1228 H 0.49429 0.28845 0.0002 0.0
H1229 H 0.46127 0.22605 0.09819 0.0
H1230 H 0.47867 0.19531 0.09435 0.0
H1231 H 0.44847 0.20128 0.07702 0.0
C1232 C 0.26099 0.04833 0.23072 0.0
C1233 C 0.28017 0.0553 0.24915 0.0
C1234 C 0.26779 0.04226 0.20467 0.0
C1235 C 0.29447 0.04293 0.19679 0.0
C1236 C 0.31405 0.0487 0.21556 0.0
C1237 C 0.30668 0.05483 0.24147 0.0
C1238 C 0.2463 0.03613 0.18534 0.0
C1239 C 0.34276 0.04932 0.20806 0.0
C1240 C 0.3156 0.00676 0.13507 0.0
C1241 C 0.31849 0.02727 0.11676 0.0
C1242 C 0.3075 0.01156 0.16096 0.0
C1243 C 0.30192 0.03754 0.16892 0.0
C1244 C 0.30397 0.0583 0.1504 0.0
C1245 C 0.31224 0.05293 0.12452 0.0
C1246 C 0.30563 0.98885 0.17999 0.0
C1247 C 0.29801 0.08627 0.15811 0.0
H1248 H 0.24043 0.04873 0.23631 0.0
H1249 H 0.32168 0.06036 0.25541 0.0
H1250 H 0.24595 0.0513 0.16967 0.0
H1251 H 0.2502 0.01701 0.17573 0.0
H1252 H 0.22661 0.03542 0.19477 0.0
H1253 H 0.35566 0.05283 0.2252 0.0
H1254 H 0.34861 0.0305 0.19879 0.0
H1255 H 0.34617 0.06509 0.19339 0.0
H1256 H 0.32027 0.98681 0.12936 0.0
H1257 H 0.31449 0.06891 0.11062 0.0
H1258 H 0.28571 0.9881 0.18886 0.0
H1259 H 0.31978 0.99164 0.19623 0.0
H1260 H 0.30983 0.9697 0.1705 0.0
H1261 H 0.27784 0.08771 0.16632 0.0
H1262 H 0.29973 0.10008 0.14128 0.0
H1263 H 0.31174 0.09256 0.1737 0.0
C1264 C 0.24714 0.00567 0.49499 0.0
C1265 C 0.22539 0.01624 0.50839 0.0
C1266 C 0.25736 0.01781 0.47248 0.0
C1267 C 0.24598 0.0415 0.46339 0.0
C1268 C 0.22583 0.05371 0.47835 0.0
C1269 C 0.21563 0.04084 0.50065 0.0
C1270 C 0.27873 0.00398 0.45714 0.0
C1271 C 0.21371 0.07937 0.46974 0.0
C1272 C 0.28188 0.07685 0.408 0.0
C1273 C 0.26739 0.06904 0.38601 0.0
C1274 C 0.27479 0.06862 0.43341 0.0
C1275 C 0.25311 0.05166 0.43684 0.0
C1276 C 0.23869 0.04338 0.41463 0.0
C1277 C 0.24581 0.05243 0.38955 0.0
C1278 C 0.29028 0.07834 0.4566 0.0
C1279 C 0.2158 0.02481 0.41735 0.0
H1280 H 0.25502 0.98678 0.50097 0.0
H1281 H 0.19885 0.04918 0.51084 0.0
H1282 H 0.27044 0.99636 0.43857 0.0
H1283 H 0.29467 0.01778 0.45183 0.0
H1284 H 0.28737 0.98726 0.46823 0.0
H1285 H 0.20167 0.08841 0.48556 0.0
H1286 H 0.22913 0.09345 0.46359 0.0
H1287 H 0.20087 0.07596 0.45257 0.0
H1288 H 0.29833 0.09005 0.40544 0.0
H1289 H 0.23453 0.04639 0.37264 0.0
H1290 H 0.29912 0.06153 0.46731 0.0
H1291 H 0.27698 0.0886 0.47053 0.0
H1292 H 0.30621 0.09198 0.45067 0.0
H1293 H 0.22235 0.00631 0.42689 0.0
H1294 H 0.20688 0.01997 0.39812 0.0
H1295 H 0.20043 0.03362 0.43008 0.0
C1296 C 0.23436 0.93588 0.74454 0.0
C1297 C 0.21737 0.91977 0.75912 0.0
C1298 C 0.22779 0.9446 0.71927 0.0
C1299 C 0.20362 0.93699 0.7081 0.0
C1300 C 0.18586 0.9216 0.72309 0.0
C1301 C 0.1929 0.91324 0.7485 0.0
C1302 C 0.24717 0.96126 0.70418 0.0
C1303 C 0.15986 0.91313 0.71188 0.0
C1304 C 0.17907 0.97687 0.64989 0.0
C1305 C 0.18687 0.96135 0.62846 0.0
C1306 C 0.1841 0.96903 0.67581 0.0
C1307 C 0.19723 0.94499 0.68062 0.0
C1308 C 0.20522 0.92919 0.65914 0.0
C1309 C 0.20001 0.93759 0.6333 0.0
C1310 C 0.17547 0.98658 0.69808 0.0
C1311 C 0.21928 0.90341 0.66346 0.0
H1312 H 0.2533 0.94106 0.75262 0.0
H1313 H 0.17981 0.90054 0.75949 0.0
H1314 H 0.25397 0.95057 0.68647 0.0
H1315 H 0.23759 0.97964 0.69739 0.0
H1316 H 0.26461 0.96645 0.71609 0.0
H1317 H 0.14771 0.90232 0.72644 0.0
H1318 H 0.14861 0.93045 0.70487 0.0
H1319 H 0.16332 0.90025 0.69469 0.0
H1320 H 0.1689 0.99528 0.64643 0.0
H1321 H 0.20595 0.92539 0.61693 0.0
H1322 H 0.19281 0.99274 0.70961 0.0
H1323 H 0.16229 0.97568 0.7116 0.0
H1324 H 0.16502 0.00443 0.69107 0.0
H1325 H 0.23806 0.90681 0.67383 0.0
H1326 H 0.22356 0.89308 0.64476 0.0
H1327 H 0.20719 0.89041 0.67612 0.0
C1328 C 0.2669 0.92784 0.89441 0.0
C1329 C 0.24246 0.91527 0.89332 0.0
C1330 C 0.27755 0.93596 0.91839 0.0
C1331 C 0.26349 0.93143 0.94199 0.0
C1332 C 0.23833 0.91973 0.94098 0.0
C1333 C 0.22809 0.91182 0.91665 0.0
C1334 C 0.30431 0.94866 0.91851 0.0
C1335 C 0.22266 0.91469 0.96567 0.0
C1336 C 0.30703 0.92949 0.00254 0.0
C1337 C 0.30512 0.95548 0.0113 0.0
C1338 C 0.29244 0.92091 0.98081 0.0
C1339 C 0.27551 0.93872 0.96761 0.0
C1340 C 0.27219 0.96441 0.97751 0.0
C1341 C 0.287 0.97246 0.99917 0.0
C1342 C 0.2964 0.89328 0.97098 0.0
C1343 C 0.25425 0.98399 0.96422 0.0
H1344 H 0.27818 0.93063 0.87654 0.0
H1345 H 0.20928 0.90198 0.91608 0.0
H1346 H 0.30323 0.968 0.92838 0.0
H1347 H 0.31828 0.93627 0.92977 0.0
H1348 H 0.31232 0.95156 0.89841 0.0
H1349 H 0.20271 0.90711 0.96144 0.0
H1350 H 0.23313 0.90015 0.9781 0.0
H1351 H 0.22073 0.93298 0.97727 0.0
H1352 H 0.32098 0.91625 0.01172 0.0
H1353 H 0.28518 0.99253 0.00591 0.0
H1354 H 0.307 0.8938 0.95192 0.0
H1355 H 0.27718 0.88374 0.96756 0.0
H1356 H 0.30791 0.88105 0.98493 0.0
H1357 H 0.26275 0.98967 0.94495 0.0
H1358 H 0.25143 0.00203 0.97608 0.0
H1359 H 0.23476 0.97517 0.96043 0.0
C1360 C 0.13375 0.31696 0.05012 0.0
C1361 C 0.12495 0.32706 0.02606 0.0
C1362 C 0.16029 0.31002 0.05375 0.0
C1363 C 0.17844 0.31312 0.03278 0.0
C1364 C 0.16961 0.32306 0.00841 0.0
C1365 C 0.14305 0.32991 0.00536 0.0
C1366 C 0.16897 0.2996 0.08011 0.0
C1367 C 0.18828 0.32671 0.9856 0.0
C1368 C 0.25058 0.31715 0.05162 0.0
C1369 C 0.259 0.29112 0.04809 0.0
C1370 C 0.22464 0.3248 0.04596 0.0
C1371 C 0.20667 0.30601 0.0364 0.0
C1372 C 0.21547 0.28014 0.03124 0.0
C1373 C 0.2415 0.27302 0.03712 0.0
C1374 C 0.21612 0.35264 0.05155 0.0
C1375 C 0.19702 0.25958 0.02082 0.0
H1376 H 0.11999 0.31479 0.06625 0.0
H1377 H 0.13652 0.33768 0.98666 0.0
H1378 H 0.17791 0.27985 0.07778 0.0
H1379 H 0.18425 0.31256 0.08844 0.0
H1380 H 0.15246 0.29822 0.09436 0.0
H1381 H 0.17825 0.33439 0.96783 0.0
H1382 H 0.20408 0.34055 0.99107 0.0
H1383 H 0.19784 0.30775 0.98065 0.0
H1384 H 0.26382 0.3313 0.06021 0.0
H1385 H 0.24774 0.25287 0.0343 0.0
H1386 H 0.20189 0.35274 0.06809 0.0
H1387 H 0.20601 0.3612 0.03427 0.0
H1388 H 0.23293 0.3654 0.05675 0.0
H1389 H 0.1816 0.25539 0.03568 0.0
H1390 H 0.20735 0.24095 0.01603 0.0
H1391 H 0.18699 0.26688 0.00294 0.0
C1392 C 0.74544 0.24304 0.96485 0.0
C1393 C 0.76248 0.22649 0.95076 0.0
C1394 C 0.71994 0.23495 0.97176 0.0
C1395 C 0.71112 0.20977 0.96422 0.0
C1396 C 0.72857 0.19259 0.95095 0.0
C1397 C 0.75404 0.20107 0.94455 0.0
C1398 C 0.70213 0.2537 0.98632 0.0
C1399 C 0.71997 0.1656 0.9425 0.0
C1400 C 0.65229 0.1788 0.99826 0.0
C1401 C 0.63196 0.18337 0.98021 0.0
C1402 C 0.67791 0.18774 0.99355 0.0
C1403 C 0.6836 0.2014 0.97002 0.0
C1404 C 0.66314 0.20643 0.95182 0.0
C1405 C 0.6375 0.19751 0.95722 0.0
C1406 C 0.69899 0.18221 0.01361 0.0
C1407 C 0.66847 0.22074 0.92639 0.0
H1408 H 0.75169 0.26273 0.96968 0.0
H1409 H 0.76687 0.18819 0.93342 0.0
H1410 H 0.68521 0.25913 0.97374 0.0
H1411 H 0.69409 0.24414 0.0042 0.0
H1412 H 0.71243 0.27193 0.99215 0.0
H1413 H 0.73616 0.15426 0.93318 0.0
H1414 H 0.71251 0.15434 0.95962 0.0
H1415 H 0.7036 0.16738 0.92829 0.0
H1416 H 0.6482 0.16807 0.01621 0.0
H1417 H 0.62196 0.20104 0.94315 0.0
H1418 H 0.70853 0.20077 0.01958 0.0
H1419 H 0.71445 0.16951 0.00489 0.0
H1420 H 0.69112 0.17232 0.03143 0.0
H1421 H 0.6773 0.24017 0.93041 0.0
H1422 H 0.65037 0.2237 0.91462 0.0
H1423 H 0.68287 0.20946 0.91447 0.0
C1424 C 0.07268 0.42472 0.28879 0.0
C1425 C 0.06822 0.40323 0.27225 0.0
C1426 C 0.06489 0.45023 0.28145 0.0
C1427 C 0.05227 0.45432 0.25706 0.0
C1428 C 0.04715 0.43261 0.24062 0.0
C1429 C 0.0552 0.4074 0.24838 0.0
C1430 C 0.07065 0.47287 0.29951 0.0
C1431 C 0.03352 0.43604 0.21454 0.0
C1432 C 0.00962 0.51342 0.24133 0.0
C1433 C 0.02565 0.52736 0.2237 0.0
C1434 C 0.01863 0.49046 0.25372 0.0
C1435 C 0.04432 0.48117 0.24838 0.0
C1436 C 0.06127 0.49622 0.23218 0.0
C1437 C 0.05174 0.51917 0.22004 0.0
C1438 C 0.99997 0.47517 0.27099 0.0
C1439 C 0.08889 0.48711 0.22617 0.0
H1440 H 0.08284 0.42173 0.30721 0.0
H1441 H 0.05162 0.39096 0.23547 0.0
H1442 H 0.08426 0.48675 0.28966 0.0
H1443 H 0.05233 0.48386 0.30397 0.0
H1444 H 0.07964 0.46631 0.31825 0.0
H1445 H 0.03062 0.41709 0.20427 0.0
H1446 H 0.01406 0.44549 0.21747 0.0
H1447 H 0.04525 0.44914 0.20165 0.0
H1448 H 0.98949 0.5197 0.2445 0.0
H1449 H 0.06428 0.52979 0.20648 0.0
H1450 H 0.00974 0.46914 0.28948 0.0
H1451 H 0.99393 0.45703 0.26072 0.0
H1452 H 0.98203 0.48665 0.27593 0.0
H1453 H 0.09913 0.48121 0.24445 0.0
H1454 H 0.1006 0.50253 0.21612 0.0
H1455 H 0.08818 0.46963 0.21329 0.0
C1456 C 0.87007 0.81182 0.51566 0.0
C1457 C 0.88722 0.80136 0.49673 0.0
C1458 C 0.84287 0.80699 0.51468 0.0
C1459 C 0.83247 0.79194 0.49388 0.0
C1460 C 0.84975 0.78127 0.47479 0.0
C1461 C 0.87689 0.78582 0.47664 0.0
C1462 C 0.82523 0.81823 0.53573 0.0
C1463 C 0.8395 0.76563 0.45192 0.0
C1464 C 0.76508 0.75972 0.49461 0.0
C1465 C 0.75036 0.77721 0.47919 0.0
C1466 C 0.79138 0.76509 0.50107 0.0
C1467 C 0.80348 0.78813 0.49125 0.0
C1468 C 0.78831 0.80645 0.47675 0.0
C1469 C 0.76189 0.80094 0.47123 0.0
C1470 C 0.80661 0.74538 0.51719 0.0
C1471 C 0.80046 0.83097 0.46536 0.0
H1472 H 0.87792 0.82373 0.53133 0.0
H1473 H 0.88996 0.77785 0.46182 0.0
H1474 H 0.81159 0.83282 0.52698 0.0
H1475 H 0.81306 0.80247 0.54456 0.0
H1476 H 0.83652 0.82793 0.55154 0.0
H1477 H 0.85551 0.75854 0.43884 0.0
H1478 H 0.82828 0.74844 0.45914 0.0
H1479 H 0.82582 0.77791 0.44017 0.0
H1480 H 0.75635 0.74134 0.50082 0.0
H1481 H 0.75085 0.81445 0.45899 0.0
H1482 H 0.8178 0.75542 0.53284 0.0
H1483 H 0.82103 0.73509 0.50447 0.0
H1484 H 0.79359 0.7305 0.52639 0.0
H1485 H 0.81127 0.84186 0.48067 0.0
H1486 H 0.78557 0.84429 0.45652 0.0
H1487 H 0.81488 0.82547 0.44991 0.0
C1488 C 0.23673 0.67859 0.57345 0.0
C1489 C 0.22484 0.7034 0.57513 0.0
C1490 C 0.26094 0.67528 0.56042 0.0
C1491 C 0.27338 0.69725 0.54869 0.0
C1492 C 0.26015 0.72171 0.54812 0.0
C1493 C 0.23606 0.72449 0.56133 0.0
C1494 C 0.27424 0.64877 0.56125 0.0
C1495 C 0.27248 0.74558 0.5356 0.0
C1496 C 0.34803 0.69801 0.55067 0.0
C1497 C 0.35481 0.69061 0.52502 0.0
C1498 C 0.32165 0.70049 0.55844 0.0
C1499 C 0.30141 0.6955 0.54013 0.0
C1500 C 0.30807 0.68875 0.51401 0.0
C1501 C 0.33467 0.68639 0.50677 0.0
C1502 C 0.31545 0.70788 0.58649 0.0
C1503 C 0.28709 0.6834 0.49392 0.0
H1504 H 0.22831 0.66223 0.58415 0.0
H1505 H 0.22691 0.74371 0.56239 0.0
H1506 H 0.28243 0.64366 0.54172 0.0
H1507 H 0.29086 0.64939 0.57526 0.0
H1508 H 0.26058 0.63302 0.56759 0.0
H1509 H 0.25816 0.76194 0.53332 0.0
H1510 H 0.28889 0.75247 0.54803 0.0
H1511 H 0.28078 0.74073 0.51605 0.0
H1512 H 0.36337 0.70127 0.56496 0.0
H1513 H 0.33966 0.68057 0.48693 0.0
H1514 H 0.30443 0.69179 0.59621 0.0
H1515 H 0.30275 0.72562 0.58695 0.0
H1516 H 0.33342 0.71183 0.59809 0.0
H1517 H 0.27552 0.66599 0.49998 0.0
H1518 H 0.29546 0.67974 0.4741 0.0
H1519 H 0.27324 0.70022 0.4927 0.0
C1520 C 0.92087 0.02229 0.3045 0.0
C1521 C 0.943 0.03647 0.29637 0.0
C1522 C 0.91267 8e-05 0.29053 0.0
C1523 C 0.92694 0.99203 0.26798 0.0
C1524 C 0.94711 0.00822 0.25794 0.0
C1525 C 0.95483 0.03034 0.27221 0.0
C1526 C 0.89074 0.98357 0.30168 0.0
C1527 C 0.96264 0.00065 0.23381 0.0
C1528 C 0.93537 0.91832 0.26191 0.0
C1529 C 0.91728 0.91215 0.2423 0.0
C1530 C 0.93915 0.94434 0.26979 0.0
C1531 C 0.92417 0.96472 0.25807 0.0
C1532 C 0.90646 0.95874 0.23764 0.0
C1533 C 0.90334 0.93249 0.22986 0.0
C1534 C 0.95878 0.94994 0.29114 0.0
C1535 C 0.89005 0.97986 0.22479 0.0
H1536 H 0.9116 0.02688 0.32312 0.0
H1537 H 0.97176 0.04143 0.26563 0.0
H1538 H 0.87787 0.97623 0.28583 0.0
H1539 H 0.89926 0.96627 0.3119 0.0
H1540 H 0.87857 0.99471 0.31599 0.0
H1541 H 0.97386 0.01751 0.22572 0.0
H1542 H 0.9768 0.98487 0.23901 0.0
H1543 H 0.94959 0.99294 0.2183 0.0
H1544 H 0.94628 0.9027 0.27147 0.0
H1545 H 0.88912 0.9278 0.21484 0.0
H1546 H 0.94895 0.96045 0.30744 0.0
H1547 H 0.97446 0.96294 0.28343 0.0
H1548 H 0.96804 0.93181 0.29908 0.0
H1549 H 0.8755 0.98752 0.23913 0.0
H1550 H 0.87932 0.97246 0.2074 0.0
H1551 H 0.90254 0.99658 0.21862 0.0
C1552 C 0.57709 0.9835 0.74416 0.0
C1553 C 0.58554 0.9835 0.77036 0.0
C1554 C 0.58525 0.00308 0.72653 0.0
C1555 C 0.60205 0.02316 0.73543 0.0
C1556 C 0.61377 0.02081 0.76053 0.0
C1557 C 0.60539 0.0009 0.77776 0.0
C1558 C 0.57307 0.00421 0.69962 0.0
C1559 C 0.63232 0.04142 0.7706 0.0
C1560 C 0.62149 0.08325 0.69489 0.0
C1561 C 0.60314 0.1017 0.70414 0.0
C1562 C 0.62087 0.05703 0.70379 0.0
C1563 C 0.60145 0.04933 0.72222 0.0
C1564 C 0.58183 0.06759 0.72992 0.0
C1565 C 0.58297 0.09347 0.72087 0.0
C1566 C 0.64197 0.03824 0.69477 0.0
C1567 C 0.56067 0.06034 0.74935 0.0
H1568 H 0.56214 0.96972 0.73811 0.0
H1569 H 0.61225 0.0009 0.79787 0.0
H1570 H 0.55608 0.01792 0.69998 0.0
H1571 H 0.58731 0.01158 0.68483 0.0
H1572 H 0.56591 0.98464 0.69341 0.0
H1573 H 0.64354 0.03431 0.7879 0.0
H1574 H 0.64636 0.04749 0.75506 0.0
H1575 H 0.62087 0.05902 0.77653 0.0
H1576 H 0.63729 0.08964 0.68209 0.0
H1577 H 0.56871 0.10768 0.72792 0.0
H1578 H 0.63427 0.01802 0.69278 0.0
H1579 H 0.65793 0.03772 0.70951 0.0
H1580 H 0.6506 0.0445 0.67571 0.0
H1581 H 0.54951 0.04312 0.74231 0.0
H1582 H 0.54663 0.07667 0.75306 0.0
H1583 H 0.57009 0.05481 0.76815 0.0
C1584 C 0.52974 0.2315 0.72264 0.0
C1585 C 0.54704 0.22263 0.70302 0.0
C1586 C 0.5157 0.25506 0.71962 0.0
C1587 C 0.51906 0.27005 0.69645 0.0
C1588 C 0.53407 0.25966 0.67542 0.0
C1589 C 0.54784 0.23598 0.67892 0.0
C1590 C 0.4995 0.26515 0.74234 0.0
C1591 C 0.53787 0.27485 0.65022 0.0
C1592 C 0.48044 0.3331 0.68419 0.0
C1593 C 0.49867 0.35214 0.69194 0.0
C1594 C 0.48639 0.30618 0.68613 0.0
C1595 C 0.51111 0.2982 0.69604 0.0
C1596 C 0.5291 0.31733 0.70488 0.0
C1597 C 0.52265 0.344 0.70273 0.0
C1598 C 0.46669 0.28638 0.67661 0.0
C1599 C 0.55563 0.3097 0.7158 0.0
H1600 H 0.5287 0.2211 0.7412 0.0
H1601 H 0.56102 0.22923 0.66358 0.0
H1602 H 0.51069 0.28056 0.75273 0.0
H1603 H 0.48092 0.27417 0.73536 0.0
H1604 H 0.49476 0.24932 0.75661 0.0
H1605 H 0.54624 0.26239 0.6344 0.0
H1606 H 0.51899 0.28333 0.64339 0.0
H1607 H 0.55153 0.29137 0.65373 0.0
H1608 H 0.46189 0.3392 0.67573 0.0
H1609 H 0.53681 0.35853 0.70888 0.0
H1610 H 0.46417 0.27039 0.69121 0.0
H1611 H 0.47401 0.27729 0.65822 0.0
H1612 H 0.44722 0.29546 0.67266 0.0
H1613 H 0.55319 0.29583 0.73245 0.0
H1614 H 0.56692 0.32692 0.72271 0.0
H1615 H 0.56736 0.29952 0.70048 0.0
C1616 C 0.90342 0.26848 0.94645 0.0
C1617 C 0.89887 0.24746 0.92944 0.0
C1618 C 0.92895 0.27779 0.95072 0.0
C1619 C 0.95045 0.26613 0.93729 0.0
C1620 C 0.94609 0.24436 0.92075 0.0
C1621 C 0.92037 0.23513 0.91721 0.0
C1622 C 0.93287 0.30049 0.96925 0.0
C1623 C 0.9684 0.23158 0.9059 0.0
C1624 C 0.00791 0.31302 0.93139 0.0
C1625 C 0.02264 0.30596 0.9535 0.0
C1626 C 0.98526 0.2989 0.92459 0.0
C1627 C 0.97728 0.27731 0.9403 0.0
C1628 C 0.99359 0.26857 0.96097 0.0
C1629 C 0.01614 0.28292 0.96722 0.0
C1630 C 0.96857 0.30864 0.90215 0.0
C1631 C 0.98598 0.24561 0.97815 0.0
H1632 H 0.88691 0.27803 0.956 0.0
H1633 H 0.91699 0.21907 0.90377 0.0
H1634 H 0.94539 0.29416 0.9859 0.0
H1635 H 0.94328 0.31663 0.95905 0.0
H1636 H 0.91402 0.30823 0.97718 0.0
H1637 H 0.96207 0.21367 0.89535 0.0
H1638 H 0.97651 0.24568 0.89137 0.0
H1639 H 0.98457 0.22623 0.91945 0.0
H1640 H 0.01266 0.33085 0.92077 0.0
H1641 H 0.02755 0.27724 0.98426 0.0
H1642 H 0.95084 0.31861 0.91009 0.0
H1643 H 0.96185 0.29202 0.88993 0.0
H1644 H 0.97933 0.32278 0.88946 0.0
H1645 H 0.96953 0.25153 0.99122 0.0
H1646 H 0.00257 0.2388 0.99057 0.0
H1647 H 0.97909 0.22893 0.96613 0.0
C1648 C 0.9744 0.77 0.24551 0.0
C1649 C 0.95844 0.78385 0.22776 0.0
C1650 C 0.9862 0.74604 0.23853 0.0
C1651 C 0.98189 0.73562 0.21322 0.0
C1652 C 0.96757 0.75051 0.19456 0.0
C1653 C 0.95611 0.7745 0.20202 0.0
C1654 C 0.00163 0.73099 0.2589 0.0
C1655 C 0.9626 0.74019 0.16731 0.0
C1656 C 0.02034 0.67618 0.18868 0.0
C1657 C 0.00244 0.65576 0.19332 0.0
C1658 C 0.01424 0.70222 0.19556 0.0
C1659 C 0.98963 0.70801 0.20724 0.0
C1660 C 0.9718 0.68738 0.21261 0.0
C1661 C 0.97845 0.66156 0.20567 0.0
C1662 C 0.03383 0.72361 0.18969 0.0
C1663 C 0.94534 0.69268 0.22508 0.0
H1664 H 0.97649 0.77711 0.2654 0.0
H1665 H 0.94382 0.78499 0.18815 0.0
H1666 H 0.98995 0.71393 0.26574 0.0
H1667 H 0.02018 0.72325 0.25039 0.0
H1668 H 0.0064 0.74329 0.27617 0.0
H1669 H 0.95393 0.75537 0.15423 0.0
H1670 H 0.98111 0.7329 0.15833 0.0
H1671 H 0.94885 0.72339 0.16848 0.0
H1672 H 0.03894 0.67193 0.17916 0.0
H1673 H 0.96446 0.64599 0.20932 0.0
H1674 H 0.03767 0.73526 0.20761 0.0
H1675 H 0.02562 0.73725 0.1748 0.0
H1676 H 0.05278 0.71569 0.18221 0.0
H1677 H 0.94787 0.70293 0.24405 0.0
H1678 H 0.93404 0.6744 0.22863 0.0
H1679 H 0.93358 0.70576 0.21218 0.0
C1680 C 0.49273 0.73069 0.4821 0.0
C1681 C 0.48561 0.72981 0.50873 0.0
C1682 C 0.51703 0.74104 0.47407 0.0
C1683 C 0.53462 0.75089 0.49307 0.0
C1684 C 0.52664 0.75204 0.51968 0.0
C1685 C 0.50225 0.7415 0.52719 0.0
C1686 C 0.52463 0.73963 0.44544 0.0
C1687 C 0.54463 0.76262 0.54055 0.0
C1688 C 0.60727 0.7429 0.4771 0.0
C1689 C 0.61402 0.76802 0.46802 0.0
C1690 C 0.58167 0.73729 0.48577 0.0
C1691 C 0.56224 0.75729 0.48549 0.0
C1692 C 0.5691 0.7829 0.47718 0.0
C1693 C 0.59487 0.78796 0.46852 0.0
C1694 C 0.57523 0.70969 0.49449 0.0
C1695 C 0.54901 0.80477 0.47669 0.0
H1696 H 0.48008 0.72176 0.46763 0.0
H1697 H 0.49695 0.74107 0.5478 0.0
H1698 H 0.53273 0.75866 0.43865 0.0
H1699 H 0.54024 0.72458 0.4428 0.0
H1700 H 0.50774 0.7344 0.4328 0.0
H1701 H 0.53429 0.76547 0.55957 0.0
H1702 H 0.56114 0.74868 0.54365 0.0
H1703 H 0.55321 0.78161 0.53426 0.0
H1704 H 0.62184 0.72733 0.47679 0.0
H1705 H 0.59983 0.80743 0.46153 0.0
H1706 H 0.56027 0.70119 0.48126 0.0
H1707 H 0.56671 0.70991 0.51456 0.0
H1708 H 0.59276 0.69663 0.49447 0.0
H1709 H 0.53354 0.80022 0.46216 0.0
H1710 H 0.55787 0.82399 0.47147 0.0
H1711 H 0.53925 0.80653 0.4961 0.0
C1712 C 0.67945 0.48428 0.34421 0.0
C1713 C 0.68218 0.50387 0.36329 0.0
C1714 C 0.68532 0.48937 0.31773 0.0
C1715 C 0.69395 0.51467 0.31024 0.0
C1716 C 0.69732 0.5343 0.32951 0.0
C1717 C 0.69149 0.52863 0.35577 0.0
C1718 C 0.68164 0.46797 0.29771 0.0
C1719 C 0.70647 0.5616 0.32233 0.0
C1720 C 0.73027 0.53329 0.24841 0.0
C1721 C 0.71085 0.54771 0.23517 0.0
C1722 C 0.72449 0.52007 0.27189 0.0
C1723 C 0.6987 0.52138 0.28226 0.0
C1724 C 0.67845 0.53336 0.26746 0.0
C1725 C 0.68475 0.54633 0.24398 0.0
C1726 C 0.74654 0.50706 0.28685 0.0
C1727 C 0.65062 0.53494 0.27771 0.0
H1728 H 0.67227 0.46508 0.34987 0.0
H1729 H 0.69368 0.54389 0.37035 0.0
H1730 H 0.66519 0.47325 0.28448 0.0
H1731 H 0.6995 0.46588 0.28535 0.0
H1732 H 0.67725 0.44872 0.30701 0.0
H1733 H 0.70863 0.57441 0.33977 0.0
H1734 H 0.72565 0.56057 0.31197 0.0
H1735 H 0.6922 0.57094 0.30875 0.0
H1736 H 0.75044 0.53389 0.24152 0.0
H1737 H 0.66953 0.55716 0.23373 0.0
H1738 H 0.74003 0.48821 0.2956 0.0
H1739 H 0.75264 0.52002 0.30316 0.0
H1740 H 0.76393 0.50333 0.27414 0.0
H1741 H 0.63654 0.54083 0.26215 0.0
H1742 H 0.64958 0.54969 0.29366 0.0
H1743 H 0.64437 0.51585 0.28609 0.0
C1744 C 0.73842 0.51535 0.50054 0.0
C1745 C 0.72434 0.49623 0.48677 0.0
C1746 C 0.75198 0.50893 0.52362 0.0
C1747 C 0.75131 0.48284 0.53315 0.0
C1748 C 0.73943 0.46302 0.5179 0.0
C1749 C 0.72618 0.46994 0.49479 0.0
C1750 C 0.7649 0.53054 0.53901 0.0
C1751 C 0.73844 0.43489 0.52725 0.0
C1752 C 0.78996 0.45978 0.59273 0.0
C1753 C 0.7706 0.46081 0.61241 0.0
C1754 C 0.78441 0.46788 0.56693 0.0
C1755 C 0.75889 0.47703 0.56072 0.0
C1756 C 0.73968 0.47923 0.58078 0.0
C1757 C 0.7458 0.4712 0.60635 0.0
C1758 C 0.80547 0.46555 0.54614 0.0
C1759 C 0.71221 0.48899 0.57504 0.0
H1760 H 0.73742 0.53568 0.4943 0.0
H1761 H 0.71555 0.45498 0.4842 0.0
H1762 H 0.75213 0.53597 0.55586 0.0
H1763 H 0.78403 0.52389 0.54705 0.0
H1764 H 0.76812 0.54836 0.52682 0.0
H1765 H 0.73193 0.42136 0.51156 0.0
H1766 H 0.75797 0.42837 0.53436 0.0
H1767 H 0.72447 0.43334 0.54395 0.0
H1768 H 0.8092 0.45182 0.59724 0.0
H1769 H 0.73074 0.47221 0.62141 0.0
H1770 H 0.80644 0.48373 0.53413 0.0
H1771 H 0.80063 0.4492 0.53272 0.0
H1772 H 0.82513 0.46168 0.55474 0.0
H1773 H 0.71297 0.50851 0.56539 0.0
H1774 H 0.69995 0.4906 0.59305 0.0
H1775 H 0.7024 0.47536 0.56129 0.0
C1776 C 0.80752 0.52338 0.86103 0.0
C1777 C 0.80354 0.5033 0.87954 0.0
C1778 C 0.80197 0.51958 0.83436 0.0
C1779 C 0.79254 0.49497 0.82591 0.0
C1780 C 0.78853 0.47458 0.84447 0.0
C1781 C 0.79389 0.47906 0.8711 0.0
C1782 C 0.80629 0.54185 0.81523 0.0
C1783 C 0.77886 0.44791 0.83615 0.0
C1784 C 0.75595 0.48686 0.76165 0.0
C1785 C 0.77532 0.47542 0.74565 0.0
C1786 C 0.76159 0.49448 0.78747 0.0
C1787 C 0.78714 0.49035 0.7976 0.0
C1788 C 0.80715 0.4803 0.78105 0.0
C1789 C 0.80105 0.47313 0.75523 0.0
C1790 C 0.73982 0.50556 0.80437 0.0
C1791 C 0.83463 0.47553 0.7911 0.0
H1792 H 0.81484 0.54224 0.8674 0.0
H1793 H 0.79089 0.46342 0.88526 0.0
H1794 H 0.82106 0.53603 0.80026 0.0
H1795 H 0.78778 0.54636 0.8047 0.0
H1796 H 0.81317 0.55997 0.82505 0.0
H1797 H 0.7767 0.43418 0.85299 0.0
H1798 H 0.75958 0.44988 0.82624 0.0
H1799 H 0.79276 0.43915 0.82179 0.0
H1800 H 0.73603 0.48876 0.75442 0.0
H1801 H 0.81615 0.4642 0.74312 0.0
H1802 H 0.74639 0.52376 0.8142 0.0
H1803 H 0.73468 0.49122 0.81997 0.0
H1804 H 0.72185 0.51003 0.79286 0.0
H1805 H 0.84225 0.49334 0.80086 0.0
H1806 H 0.84847 0.46984 0.77517 0.0
H1807 H 0.8343 0.45958 0.80597 0.0
C1808 C 0.69009 0.59125 0.09461 0.0
C1809 C 0.7096 0.58656 0.11347 0.0
C1810 C 0.69297 0.5819 0.06878 0.0
C1811 C 0.71594 0.56776 0.06176 0.0
C1812 C 0.73542 0.56265 0.08089 0.0
C1813 C 0.73197 0.57203 0.1064 0.0
C1814 C 0.6718 0.58774 0.04895 0.0
C1815 C 0.76025 0.54757 0.07438 0.0
C1816 C 0.72808 0.52006 0.00717 0.0
C1817 C 0.74681 0.53395 0.99244 0.0
C1818 C 0.71484 0.53201 0.02818 0.0
C1819 C 0.72056 0.55838 0.03452 0.0
C1820 C 0.7364 0.57346 0.01733 0.0
C1821 C 0.74934 0.56105 0.99639 0.0
C1822 C 0.69744 0.51544 0.04555 0.0
C1823 C 0.74254 0.6018 0.02301 0.0
H1824 H 0.67278 0.60252 0.0999 0.0
H1825 H 0.74713 0.56818 0.1208 0.0
H1826 H 0.67863 0.60342 0.03545 0.0
H1827 H 0.66756 0.5702 0.03688 0.0
H1828 H 0.6533 0.59446 0.05847 0.0
H1829 H 0.77329 0.54506 0.09164 0.0
H1830 H 0.75526 0.52784 0.0668 0.0
H1831 H 0.77141 0.55796 0.05878 0.0
H1832 H 0.7255 0.49922 0.00389 0.0
H1833 H 0.76337 0.57211 0.98479 0.0
H1834 H 0.68024 0.52686 0.05263 0.0
H1835 H 0.70876 0.50892 0.06298 0.0
H1836 H 0.69035 0.49772 0.03515 0.0
H1837 H 0.72481 0.61238 0.03008 0.0
H1838 H 0.75036 0.61208 0.00539 0.0
H1839 H 0.75756 0.60274 0.03869 0.0
C1840 C 0.46772 0.59319 0.79327 0.0
C1841 C 0.46909 0.6122 0.77328 0.0
C1842 C 0.47296 0.56663 0.7881 0.0
C1843 C 0.47976 0.55886 0.76234 0.0
C1844 C 0.48171 0.57801 0.74219 0.0
C1845 C 0.47638 0.60443 0.74791 0.0
C1846 C 0.47062 0.5468 0.81006 0.0
C1847 C 0.48893 0.57051 0.71442 0.0
C1848 C 0.51513 0.49522 0.74658 0.0
C1849 C 0.49498 0.48062 0.73496 0.0
C1850 C 0.51017 0.52019 0.75708 0.0
C1851 C 0.48442 0.5307 0.75611 0.0
C1852 C 0.46359 0.51507 0.74666 0.0
C1853 C 0.46911 0.49018 0.73623 0.0
C1854 C 0.53289 0.53611 0.76721 0.0
C1855 C 0.43578 0.52542 0.74564 0.0
H1856 H 0.46206 0.59897 0.81294 0.0
H1857 H 0.47742 0.61893 0.73233 0.0
H1858 H 0.45472 0.53272 0.80559 0.0
H1859 H 0.48909 0.53532 0.81184 0.0
H1860 H 0.46627 0.55616 0.82925 0.0
H1861 H 0.49033 0.58782 0.70119 0.0
H1862 H 0.50805 0.55998 0.71419 0.0
H1863 H 0.47399 0.55695 0.70644 0.0
H1864 H 0.53516 0.48797 0.74588 0.0
H1865 H 0.45337 0.47906 0.7274 0.0
H1866 H 0.52777 0.5454 0.7862 0.0
H1867 H 0.53736 0.5521 0.75307 0.0
H1868 H 0.55088 0.524 0.76986 0.0
H1869 H 0.43022 0.53462 0.76456 0.0
H1870 H 0.42143 0.50974 0.74112 0.0
H1871 H 0.43433 0.54078 0.73021 0.0
loop_
_geom_bond_atom_site_label_1
_geom_bond_atom_site_label_2
_geom_bond_distance
_geom_bond_site_symmetry_2
_ccdc_geom_bond_type
C0 O2 1.247 . S
C0 O4 1.258 . S
C1 O8 1.247 . S
C1 O9 1.258 . S
O2 C0 1.247 . S
O2 Zn3 2.028 . S
Zn3 O2 2.028 . S
Zn3 O7 2.035 . S
Zn3 O9 2.035 . S
Zn3 O10 2.028 . S
O4 C0 1.258 . S
O4 Zn5 2.035 . S
Zn5 O4 2.035 . S
Zn5 O6 2.028 . S
Zn5 O8 2.028 . S
Zn5 O11 2.035 . S
O6 Zn5 2.028 . S
O6 C12 1.247 . S
O7 Zn3 2.035 . S
O7 C12 1.258 . S
O8 C1 1.247 . S
O8 Zn5 2.028 . S
O9 C1 1.258 . S
O9 Zn3 2.035 . S
O10 Zn3 2.028 . S
O10 C13 1.247 . S
O11 Zn5 2.035 . S
O11 C13 1.258 . S
C12 O6 1.247 . S
C12 O7 1.258 . S
C13 O10 1.247 . S
C13 O11 1.258 . S
C14 O16 1.247 . S
C14 O18 1.258 . S
C15 O22 1.247 . S
C15 O23 1.258 . S
O16 C14 1.247 . S
O16 Zn17 2.028 . S
Zn17 O16 2.028 . S
Zn17 O21 2.035 1_455 S
Zn17 O23 2.035 1_455 S
Zn17 O24 2.028 . S
O18 C14 1.258 . S
O18 Zn19 2.035 1_455 S
Zn19 O18 2.035 1_655 S
Zn19 O20 2.028 . S
Zn19 O22 2.028 . S
Zn19 O25 2.035 1_655 S
O20 Zn19 2.028 . S
O20 C26 1.247 . S
O21 Zn17 2.035 1_655 S
O21 C26 1.258 . S
O22 C15 1.247 . S
O22 Zn19 2.028 . S
O23 C15 1.258 . S
O23 Zn17 2.035 1_655 S
O24 Zn17 2.028 . S
O24 C27 1.247 . S
O25 Zn19 2.035 1_455 S
O25 C27 1.258 . S
C26 O20 1.247 . S
C26 O21 1.258 . S
C27 O24 1.247 . S
C27 O25 1.258 . S
C28 O30 1.247 . S
C28 O32 1.258 . S
C29 O36 1.247 . S
C29 O37 1.258 . S
O30 C28 1.247 . S
O30 Zn31 2.028 . S
Zn31 O30 2.028 . S
Zn31 O35 2.035 . S
Zn31 O37 2.035 . S
Zn31 O38 2.028 . S
O32 C28 1.258 . S
O32 Zn33 2.035 . S
Zn33 O32 2.035 . S
Zn33 O34 2.028 . S
Zn33 O36 2.028 . S
Zn33 O39 2.035 . S
O34 Zn33 2.028 . S
O34 C40 1.247 . S
O35 Zn31 2.035 . S
O35 C40 1.258 . S
O36 C29 1.247 . S
O36 Zn33 2.028 . S
O37 C29 1.258 . S
O37 Zn31 2.035 . S
O38 Zn31 2.028 . S
O38 C41 1.247 . S
O39 Zn33 2.035 . S
O39 C41 1.258 . S
C40 O34 1.247 . S
C40 O35 1.258 . S
C41 O38 1.247 . S
C41 O39 1.258 . S
C42 O44 1.247 1_556 S
C42 O46 1.258 . S
C43 O50 1.247 1_554 S
C43 O51 1.258 . S
O44 C42 1.247 1_554 S
O44 Zn45 2.028 . S
Zn45 O44 2.028 . S
Zn45 O49 2.035 . S
Zn45 O51 2.035 . S
Zn45 O52 2.028 1_554 S
O46 C42 1.258 . S
O46 Zn47 2.035 . S
Zn47 O46 2.035 . S
Zn47 O48 2.028 1_556 S
Zn47 O50 2.028 . S
Zn47 O53 2.035 . S
O48 Zn47 2.028 1_554 S
O48 C54 1.247 . S
O49 Zn45 2.035 . S
O49 C54 1.258 . S
O50 C43 1.247 1_556 S
O50 Zn47 2.028 . S
O51 C43 1.258 . S
O51 Zn45 2.035 . S
O52 Zn45 2.028 1_556 S
O52 C55 1.247 . S
O53 Zn47 2.035 . S
O53 C55 1.258 . S
C54 O48 1.247 . S
C54 O49 1.258 . S
C55 O52 1.247 . S
C55 O53 1.258 . S
C56 O58 1.247 . S
C56 O60 1.258 1_655 S
C57 O64 1.247 . S
C57 O65 1.258 1_455 S
O58 C56 1.247 . S
O58 Zn59 2.028 1_565 S
Zn59 O58 2.028 1_545 S
Zn59 O63 2.035 1_655 S
Zn59 O65 2.035 . S
Zn59 O66 2.028 1_545 S
O60 C56 1.258 1_455 S
O60 Zn61 2.035 . S
Zn61 O60 2.035 . S
Zn61 O62 2.028 1_565 S
Zn61 O64 2.028 1_565 S
Zn61 O67 2.035 1_455 S
O62 Zn61 2.028 1_545 S
O62 C68 1.247 . S
O63 Zn59 2.035 1_455 S
O63 C68 1.258 . S
O64 C57 1.247 . S
O64 Zn61 2.028 1_545 S
O65 C57 1.258 1_655 S
O65 Zn59 2.035 . S
O66 Zn59 2.028 1_565 S
O66 C69 1.247 . S
O67 Zn61 2.035 1_655 S
O67 C69 1.258 . S
C68 O62 1.247 . S
C68 O63 1.258 . S
C69 O66 1.247 . S
C69 O67 1.258 . S
C70 O72 1.247 . S
C70 O74 1.258 . S
C71 O78 1.247 . S
C71 O79 1.258 . S
O72 C70 1.247 . S
O72 Zn73 2.028 . S
Zn73 O72 2.028 . S
Zn73 O77 2.035 . S
Zn73 O79 2.035 . S
Zn73 O80 2.028 . S
O74 C70 1.258 . S
O74 Zn75 2.035 . S
Zn75 O74 2.035 . S
Zn75 O76 2.028 . S
Zn75 O78 2.028 . S
Zn75 O81 2.035 . S
O76 Zn75 2.028 . S
O76 C82 1.247 . S
O77 Zn73 2.035 . S
O77 C82 1.258 . S
O78 C71 1.247 . S
O78 Zn75 2.028 . S
O79 C71 1.258 . S
O79 Zn73 2.035 . S
O80 Zn73 2.028 . S
O80 C83 1.247 . S
O81 Zn75 2.035 . S
O81 C83 1.258 . S
C82 O76 1.247 . S
C82 O77 1.258 . S
C83 O80 1.247 . S
C83 O81 1.258 . S
C84 O86 1.247 . S
C84 O88 1.258 . S
C85 O92 1.247 . S
C85 O93 1.258 . S
O86 C84 1.247 . S
O86 Zn87 2.028 . S
Zn87 O86 2.028 . S
Zn87 O91 2.035 1_565 S
Zn87 O93 2.035 1_565 S
Zn87 O94 2.028 . S
O88 C84 1.258 . S
O88 Zn89 2.035 1_565 S
Zn89 O88 2.035 1_545 S
Zn89 O90 2.028 . S
Zn89 O92 2.028 . S
Zn89 O95 2.035 1_545 S
O90 Zn89 2.028 . S
O90 C96 1.247 . S
O91 Zn87 2.035 1_545 S
O91 C96 1.258 . S
O92 C85 1.247 . S
O92 Zn89 2.028 . S
O93 C85 1.258 . S
O93 Zn87 2.035 1_545 S
O94 Zn87 2.028 . S
O94 C97 1.247 . S
O95 Zn89 2.035 1_565 S
O95 C97 1.258 . S
C96 O90 1.247 . S
C96 O91 1.258 . S
C97 O94 1.247 . S
C97 O95 1.258 . S
C98 O100 1.247 . S
C98 O102 1.258 . S
C99 O106 1.247 . S
C99 O107 1.258 . S
O100 C98 1.247 . S
O100 Zn101 2.028 . S
Zn101 O100 2.028 . S
Zn101 O105 2.035 . S
Zn101 O107 2.035 . S
Zn101 O108 2.028 . S
O102 C98 1.258 . S
O102 Zn103 2.035 . S
Zn103 O102 2.035 . S
Zn103 O104 2.028 . S
Zn103 O106 2.028 . S
Zn103 O109 2.035 . S
O104 Zn103 2.028 . S
O104 C110 1.247 . S
O105 Zn101 2.035 . S
O105 C110 1.258 . S
O106 C99 1.247 . S
O106 Zn103 2.028 . S
O107 C99 1.258 . S
O107 Zn101 2.035 . S
O108 Zn101 2.028 . S
O108 C111 1.247 . S
O109 Zn103 2.035 . S
O109 C111 1.258 . S
C110 O104 1.247 . S
C110 O105 1.258 . S
C111 O108 1.247 . S
C111 O109 1.258 . S
C112 O114 1.247 . S
C112 O116 1.258 . S
C113 O120 1.247 . S
C113 O121 1.258 . S
O114 C112 1.247 . S
O114 Zn115 2.028 . S
Zn115 O114 2.028 . S
Zn115 O119 2.035 . S
Zn115 O121 2.035 . S
Zn115 O122 2.028 . S
O116 C112 1.258 . S
O116 Zn117 2.035 . S
Zn117 O116 2.035 . S
Zn117 O118 2.028 . S
Zn117 O120 2.028 . S
Zn117 O123 2.035 . S
O118 Zn117 2.028 . S
O118 C124 1.247 . S
O119 Zn115 2.035 . S
O119 C124 1.258 . S
O120 C113 1.247 . S
O120 Zn117 2.028 . S
O121 C113 1.258 . S
O121 Zn115 2.035 . S
O122 Zn115 2.028 . S
O122 C125 1.247 . S
O123 Zn117 2.035 . S
O123 C125 1.258 . S
C124 O118 1.247 . S
C124 O119 1.258 . S
C125 O122 1.247 . S
C125 O123 1.258 . S
C126 O128 1.247 . S
C126 O130 1.258 . S
C127 O134 1.247 . S
C127 O135 1.258 . S
O128 C126 1.247 . S
O128 Zn129 2.028 . S
Zn129 O128 2.028 . S
Zn129 O133 2.035 . S
Zn129 O135 2.035 1_565 S
Zn129 O136 2.028 . S
O130 C126 1.258 . S
O130 Zn131 2.035 1_565 S
Zn131 O130 2.035 1_545 S
Zn131 O132 2.028 . S
Zn131 O134 2.028 . S
Zn131 O137 2.035 . S
O132 Zn131 2.028 . S
O132 C138 1.247 . S
O133 Zn129 2.035 . S
O133 C138 1.258 1_565 S
O134 C127 1.247 . S
O134 Zn131 2.028 . S
O135 C127 1.258 . S
O135 Zn129 2.035 1_545 S
O136 Zn129 2.028 . S
O136 C139 1.247 . S
O137 Zn131 2.035 . S
O137 C139 1.258 1_545 S
C138 O132 1.247 . S
C138 O133 1.258 1_545 S
C139 O136 1.247 . S
C139 O137 1.258 1_565 S
C140 O142 1.247 . S
C140 O144 1.258 . S
C141 O148 1.247 . S
C141 O149 1.258 . S
O142 C140 1.247 . S
O142 Zn143 2.028 . S
Zn143 O142 2.028 . S
Zn143 O147 2.035 . S
Zn143 O149 2.035 . S
Zn143 O150 2.028 . S
O144 C140 1.258 . S
O144 Zn145 2.035 . S
Zn145 O144 2.035 . S
Zn145 O146 2.028 . S
Zn145 O148 2.028 . S
Zn145 O151 2.035 . S
O146 Zn145 2.028 . S
O146 C152 1.247 . S
O147 Zn143 2.035 . S
O147 C152 1.258 . S
O148 C141 1.247 . S
O148 Zn145 2.028 . S
O149 C141 1.258 . S
O149 Zn143 2.035 . S
O150 Zn143 2.028 . S
O150 C153 1.247 . S
O151 Zn145 2.035 . S
O151 C153 1.258 . S
C152 O146 1.247 . S
C152 O147 1.258 . S
C153 O150 1.247 . S
C153 O151 1.258 . S
C154 O156 1.247 . S
C154 O158 1.258 . S
C155 O162 1.247 . S
C155 O163 1.258 . S
O156 C154 1.247 . S
O156 Zn157 2.028 1_554 S
Zn157 O156 2.028 1_556 S
Zn157 O161 2.035 . S
Zn157 O163 2.035 1_545 S
Zn157 O164 2.028 1_556 S
O158 C154 1.258 . S
O158 Zn159 2.035 1_545 S
Zn159 O158 2.035 1_565 S
Zn159 O160 2.028 1_554 S
Zn159 O162 2.028 1_554 S
Zn159 O165 2.035 . S
O160 Zn159 2.028 1_556 S
O160 C166 1.247 . S
O161 Zn157 2.035 . S
O161 C166 1.258 1_545 S
O162 C155 1.247 . S
O162 Zn159 2.028 1_556 S
O163 C155 1.258 . S
O163 Zn157 2.035 1_565 S
O164 Zn157 2.028 1_554 S
O164 C167 1.247 . S
O165 Zn159 2.035 . S
O165 C167 1.258 1_565 S
C166 O160 1.247 . S
C166 O161 1.258 1_565 S
C167 O164 1.247 . S
C167 O165 1.258 1_545 S
C168 O170 1.247 . S
C168 O172 1.258 . S
C169 O176 1.247 . S
C169 O177 1.258 . S
O170 C168 1.247 . S
O170 Zn171 2.028 . S
Zn171 O170 2.028 . S
Zn171 O175 2.035 . S
Zn171 O177 2.035 . S
Zn171 O178 2.028 . S
O172 C168 1.258 . S
O172 Zn173 2.035 . S
Zn173 O172 2.035 . S
Zn173 O174 2.028 . S
Zn173 O176 2.028 . S
Zn173 O179 2.035 . S
O174 Zn173 2.028 . S
O174 C180 1.247 . S
O175 Zn171 2.035 . S
O175 C180 1.258 . S
O176 C169 1.247 . S
O176 Zn173 2.028 . S
O177 C169 1.258 . S
O177 Zn171 2.035 . S
O178 Zn171 2.028 . S
O178 C181 1.247 . S
O179 Zn173 2.035 . S
O179 C181 1.258 . S
C180 O174 1.247 . S
C180 O175 1.258 . S
C181 O178 1.247 . S
C181 O179 1.258 . S
C182 O184 1.247 . S
C182 O186 1.258 1_455 S
C183 O190 1.247 . S
C183 O191 1.258 1_655 S
O184 C182 1.247 . S
O184 Zn185 2.028 . S
Zn185 O184 2.028 . S
Zn185 O189 2.035 1_455 S
Zn185 O191 2.035 . S
Zn185 O192 2.028 . S
O186 C182 1.258 1_655 S
O186 Zn187 2.035 . S
Zn187 O186 2.035 . S
Zn187 O188 2.028 . S
Zn187 O190 2.028 . S
Zn187 O193 2.035 1_655 S
O188 Zn187 2.028 . S
O188 C194 1.247 . S
O189 Zn185 2.035 1_655 S
O189 C194 1.258 . S
O190 C183 1.247 . S
O190 Zn187 2.028 . S
O191 C183 1.258 1_455 S
O191 Zn185 2.035 . S
O192 Zn185 2.028 . S
O192 C195 1.247 . S
O193 Zn187 2.035 1_455 S
O193 C195 1.258 . S
C194 O188 1.247 . S
C194 O189 1.258 . S
C195 O192 1.247 . S
C195 O193 1.258 . S
C196 O198 1.247 . S
C196 O200 1.258 . S
C197 O204 1.247 . S
C197 O205 1.258 . S
O198 C196 1.247 . S
O198 Zn199 2.028 . S
Zn199 O198 2.028 . S
Zn199 O203 2.035 . S
Zn199 O205 2.035 . S
Zn199 O206 2.028 . S
O200 C196 1.258 . S
O200 Zn201 2.035 . S
Zn201 O200 2.035 . S
Zn201 O202 2.028 . S
Zn201 O204 2.028 . S
Zn201 O207 2.035 . S
O202 Zn201 2.028 . S
O202 C208 1.247 . S
O203 Zn199 2.035 . S
O203 C208 1.258 . S
O204 C197 1.247 . S
O204 Zn201 2.028 . S
O205 C197 1.258 . S
O205 Zn199 2.035 . S
O206 Zn199 2.028 . S
O206 C209 1.247 . S
O207 Zn201 2.035 . S
O207 C209 1.258 . S
C208 O202 1.247 . S
C208 O203 1.258 . S
C209 O206 1.247 . S
C209 O207 1.258 . S
C210 O212 1.247 . S
C210 O214 1.258 . S
C211 O218 1.247 . S
C211 O219 1.258 . S
O212 C210 1.247 . S
O212 Zn213 2.028 . S
Zn213 O212 2.028 . S
Zn213 O217 2.035 . S
Zn213 O219 2.035 . S
Zn213 O220 2.028 . S
O214 C210 1.258 . S
O214 Zn215 2.035 . S
Zn215 O214 2.035 . S
Zn215 O216 2.028 . S
Zn215 O218 2.028 . S
Zn215 O221 2.035 . S
O216 Zn215 2.028 . S
O216 C222 1.247 . S
O217 Zn213 2.035 . S
O217 C222 1.258 . S
O218 C211 1.247 . S
O218 Zn215 2.028 . S
O219 C211 1.258 . S
O219 Zn213 2.035 . S
O220 Zn213 2.028 . S
O220 C223 1.247 . S
O221 Zn215 2.035 . S
O221 C223 1.258 . S
C222 O216 1.247 . S
C222 O217 1.258 . S
C223 O220 1.247 . S
C223 O221 1.258 . S
C224 O226 1.247 . S
C224 O228 1.258 . S
C225 O232 1.247 . S
C225 O233 1.258 . S
O226 C224 1.247 . S
O226 Zn227 2.028 . S
Zn227 O226 2.028 . S
Zn227 O231 2.035 . S
Zn227 O233 2.035 . S
Zn227 O234 2.028 . S
O228 C224 1.258 . S
O228 Zn229 2.035 . S
Zn229 O228 2.035 . S
Zn229 O230 2.028 . S
Zn229 O232 2.028 . S
Zn229 O235 2.035 . S
O230 Zn229 2.028 . S
O230 C236 1.247 . S
O231 Zn227 2.035 . S
O231 C236 1.258 . S
O232 C225 1.247 . S
O232 Zn229 2.028 . S
O233 C225 1.258 . S
O233 Zn227 2.035 . S
O234 Zn227 2.028 . S
O234 C237 1.247 . S
O235 Zn229 2.035 . S
O235 C237 1.258 . S
C236 O230 1.247 . S
C236 O231 1.258 . S
C237 O234 1.247 . S
C237 O235 1.258 . S
C238 O240 1.247 . S
C238 O242 1.258 . S
C239 O246 1.247 . S
C239 O247 1.258 . S
O240 C238 1.247 . S
O240 Zn241 2.028 . S
Zn241 O240 2.028 . S
Zn241 O245 2.035 . S
Zn241 O247 2.035 . S
Zn241 O248 2.028 . S
O242 C238 1.258 . S
O242 Zn243 2.035 . S
Zn243 O242 2.035 . S
Zn243 O244 2.028 . S
Zn243 O246 2.028 . S
Zn243 O249 2.035 . S
O244 Zn243 2.028 . S
O244 C250 1.247 . S
O245 Zn241 2.035 . S
O245 C250 1.258 . S
O246 C239 1.247 . S
O246 Zn243 2.028 . S
O247 C239 1.258 . S
O247 Zn241 2.035 . S
O248 Zn241 2.028 . S
O248 C251 1.247 . S
O249 Zn243 2.035 . S
O249 C251 1.258 . S
C250 O244 1.247 . S
C250 O245 1.258 . S
C251 O248 1.247 . S
C251 O249 1.258 . S
C252 O254 1.247 . S
C252 O256 1.258 . S
C253 O260 1.247 . S
C253 O261 1.258 . S
O254 C252 1.247 . S
O254 Zn255 2.028 1_556 S
Zn255 O254 2.028 1_554 S
Zn255 O259 2.035 1_655 S
Zn255 O261 2.035 1_655 S
Zn255 O262 2.028 . S
O256 C252 1.258 . S
O256 Zn257 2.035 1_655 S
Zn257 O256 2.035 1_455 S
Zn257 O258 2.028 . S
Zn257 O260 2.028 1_556 S
Zn257 O263 2.035 1_455 S
O258 Zn257 2.028 . S
O258 C264 1.247 1_556 S
O259 Zn255 2.035 1_455 S
O259 C264 1.258 . S
O260 C253 1.247 . S
O260 Zn257 2.028 1_554 S
O261 C253 1.258 . S
O261 Zn255 2.035 1_455 S
O262 Zn255 2.028 . S
O262 C265 1.247 1_554 S
O263 Zn257 2.035 1_655 S
O263 C265 1.258 . S
C264 O258 1.247 1_554 S
C264 O259 1.258 . S
C265 O262 1.247 1_556 S
C265 O263 1.258 . S
C266 O268 1.247 . S
C266 O270 1.258 . S
C267 O274 1.247 . S
C267 O275 1.258 . S
O268 C266 1.247 . S
O268 Zn269 2.028 . S
Zn269 O268 2.028 . S
Zn269 O273 2.035 . S
Zn269 O275 2.035 . S
Zn269 O276 2.028 . S
O270 C266 1.258 . S
O270 Zn271 2.035 . S
Zn271 O270 2.035 . S
Zn271 O272 2.028 . S
Zn271 O274 2.028 . S
Zn271 O277 2.035 . S
O272 Zn271 2.028 . S
O272 C278 1.247 . S
O273 Zn269 2.035 . S
O273 C278 1.258 . S
O274 C267 1.247 . S
O274 Zn271 2.028 . S
O275 C267 1.258 . S
O275 Zn269 2.035 . S
O276 Zn269 2.028 . S
O276 C279 1.247 . S
O277 Zn271 2.035 . S
O277 C279 1.258 . S
C278 O272 1.247 . S
C278 O273 1.258 . S
C279 O276 1.247 . S
C279 O277 1.258 . S
C280 O282 1.247 . S
C280 O284 1.258 . S
C281 O288 1.247 . S
C281 O289 1.258 . S
O282 C280 1.247 . S
O282 Zn283 2.028 . S
Zn283 O282 2.028 . S
Zn283 O287 2.035 . S
Zn283 O289 2.035 . S
Zn283 O290 2.028 . S
O284 C280 1.258 . S
O284 Zn285 2.035 . S
Zn285 O284 2.035 . S
Zn285 O286 2.028 . S
Zn285 O288 2.028 . S
Zn285 O291 2.035 . S
O286 Zn285 2.028 . S
O286 C292 1.247 . S
O287 Zn283 2.035 . S
O287 C292 1.258 . S
O288 C281 1.247 . S
O288 Zn285 2.028 . S
O289 C281 1.258 . S
O289 Zn283 2.035 . S
O290 Zn283 2.028 . S
O290 C293 1.247 . S
O291 Zn285 2.035 . S
O291 C293 1.258 . S
C292 O286 1.247 . S
C292 O287 1.258 . S
C293 O290 1.247 . S
C293 O291 1.258 . S
C294 O296 1.247 . S
C294 O298 1.258 . S
C295 O302 1.247 . S
C295 O303 1.258 . S
O296 C294 1.247 . S
O296 Zn297 2.028 . S
Zn297 O296 2.028 . S
Zn297 O301 2.035 . S
Zn297 O303 2.035 . S
Zn297 O304 2.028 . S
O298 C294 1.258 . S
O298 Zn299 2.035 . S
Zn299 O298 2.035 . S
Zn299 O300 2.028 . S
Zn299 O302 2.028 . S
Zn299 O305 2.035 . S
O300 Zn299 2.028 . S
O300 C306 1.247 . S
O301 Zn297 2.035 . S
O301 C306 1.258 . S
O302 C295 1.247 . S
O302 Zn299 2.028 . S
O303 C295 1.258 . S
O303 Zn297 2.035 . S
O304 Zn297 2.028 . S
O304 C307 1.247 . S
O305 Zn299 2.035 . S
O305 C307 1.258 . S
C306 O300 1.247 . S
C306 O301 1.258 . S
C307 O304 1.247 . S
C307 O305 1.258 . S
C308 O310 1.247 . S
C308 O312 1.258 . S
C309 O316 1.247 . S
C309 O317 1.258 . S
O310 C308 1.247 . S
O310 Zn311 2.028 1_556 S
Zn311 O310 2.028 1_554 S
Zn311 O315 2.035 . S
Zn311 O317 2.035 . S
Zn311 O318 2.028 1_554 S
O312 C308 1.258 . S
O312 Zn313 2.035 . S
Zn313 O312 2.035 . S
Zn313 O314 2.028 1_556 S
Zn313 O316 2.028 1_556 S
Zn313 O319 2.035 . S
O314 Zn313 2.028 1_554 S
O314 C320 1.247 . S
O315 Zn311 2.035 . S
O315 C320 1.258 . S
O316 C309 1.247 . S
O316 Zn313 2.028 1_554 S
O317 C309 1.258 . S
O317 Zn311 2.035 . S
O318 Zn311 2.028 1_556 S
O318 C321 1.247 . S
O319 Zn313 2.035 . S
O319 C321 1.258 . S
C320 O314 1.247 . S
C320 O315 1.258 . S
C321 O318 1.247 . S
C321 O319 1.258 . S
C322 O324 1.247 . S
C322 O326 1.258 . S
C323 O330 1.247 . S
C323 O331 1.258 . S
O324 C322 1.247 . S
O324 Zn325 2.028 . S
Zn325 O324 2.028 . S
Zn325 O329 2.035 . S
Zn325 O331 2.035 . S
Zn325 O332 2.028 . S
O326 C322 1.258 . S
O326 Zn327 2.035 . S
Zn327 O326 2.035 . S
Zn327 O328 2.028 . S
Zn327 O330 2.028 . S
Zn327 O333 2.035 . S
O328 Zn327 2.028 . S
O328 C334 1.247 . S
O329 Zn325 2.035 . S
O329 C334 1.258 . S
O330 C323 1.247 . S
O330 Zn327 2.028 . S
O331 C323 1.258 . S
O331 Zn325 2.035 . S
O332 Zn325 2.028 . S
O332 C335 1.247 . S
O333 Zn327 2.035 . S
O333 C335 1.258 . S
C334 O328 1.247 . S
C334 O329 1.258 . S
C335 O332 1.247 . S
C335 O333 1.258 . S
C336 C337 1.391 . S
C336 C338 1.394 . S
C336 H352 0.931 . S
C337 C336 1.391 . S
C337 C341 1.376 . S
C338 C336 1.394 . S
C338 C339 1.369 . S
C338 C342 1.531 . S
C339 C338 1.369 . S
C339 C340 1.410 . S
C339 C347 1.503 . S
C340 C339 1.410 . S
C340 C341 1.392 . S
C340 C343 1.511 . S
C341 C337 1.376 . S
C341 C340 1.392 . S
C341 H353 0.929 . S
C342 C338 1.531 . S
C342 H354 0.960 . S
C342 H355 0.962 . S
C342 H356 0.960 . S
C343 C340 1.511 . S
C343 H357 0.961 . S
C343 H358 0.961 . S
C343 H359 0.961 . S
C344 C345 1.370 . S
C344 C346 1.363 . S
C344 H360 0.931 . S
C345 C344 1.370 . S
C345 C349 1.408 . S
C346 C344 1.363 . S
C346 C347 1.370 . S
C346 C350 1.524 . S
C347 C339 1.503 . S
C347 C346 1.370 . S
C347 C348 1.403 . S
C348 C347 1.403 . S
C348 C349 1.404 . S
C348 C351 1.539 . S
C349 C345 1.408 . S
C349 C348 1.404 . S
C349 H361 0.930 . S
C350 C346 1.524 . S
C350 H362 0.956 . S
C350 H363 0.961 . S
C350 H364 0.961 . S
C351 C348 1.539 . S
C351 H365 0.958 . S
C351 H366 0.961 . S
C351 H367 0.960 . S
H352 C336 0.931 . S
H353 C341 0.929 . S
H354 C342 0.960 . S
H355 C342 0.962 . S
H356 C342 0.960 . S
H357 C343 0.961 . S
H358 C343 0.961 . S
H359 C343 0.961 . S
H360 C344 0.931 . S
H361 C349 0.930 . S
H362 C350 0.956 . S
H363 C350 0.961 . S
H364 C350 0.961 . S
H365 C351 0.958 . S
H366 C351 0.961 . S
H367 C351 0.960 . S
C368 C369 1.391 . S
C368 C370 1.394 . S
C368 H384 0.931 . S
C369 C368 1.391 . S
C369 C373 1.376 . S
C370 C368 1.394 . S
C370 C371 1.369 . S
C370 C374 1.531 . S
C371 C370 1.369 . S
C371 C372 1.409 . S
C371 C379 1.503 . S
C372 C371 1.409 . S
C372 C373 1.392 . S
C372 C375 1.511 1_655 S
C373 C369 1.376 . S
C373 C372 1.392 . S
C373 H385 0.929 1_655 S
C374 C370 1.531 . S
C374 H386 0.960 . S
C374 H387 0.962 . S
C374 H388 0.960 . S
C375 C372 1.511 1_455 S
C375 H389 0.961 . S
C375 H390 0.961 . S
C375 H391 0.961 . S
C376 C377 1.370 . S
C376 C378 1.363 . S
C376 H392 0.931 . S
C377 C376 1.370 . S
C377 C381 1.408 1_655 S
C378 C376 1.363 . S
C378 C379 1.370 . S
C378 C382 1.524 . S
C379 C371 1.503 . S
C379 C378 1.370 . S
C379 C380 1.403 1_655 S
C380 C379 1.403 1_455 S
C380 C381 1.404 . S
C380 C383 1.539 . S
C381 C377 1.408 1_455 S
C381 C380 1.404 . S
C381 H393 0.930 . S
C382 C378 1.524 . S
C382 H394 0.956 . S
C382 H395 0.961 . S
C382 H396 0.961 . S
C383 C380 1.539 . S
C383 H397 0.958 . S
C383 H398 0.961 . S
C383 H399 0.960 . S
H384 C368 0.931 . S
H385 C373 0.929 1_455 S
H386 C374 0.960 . S
H387 C374 0.962 . S
H388 C374 0.960 . S
H389 C375 0.961 . S
H390 C375 0.961 . S
H391 C375 0.961 . S
H392 C376 0.931 . S
H393 C381 0.930 . S
H394 C382 0.956 . S
H395 C382 0.961 . S
H396 C382 0.961 . S
H397 C383 0.958 . S
H398 C383 0.961 . S
H399 C383 0.960 . S
C400 C401 1.391 . S
C400 C402 1.394 . S
C400 H416 0.931 . S
C401 C400 1.391 . S
C401 C405 1.376 . S
C402 C400 1.394 . S
C402 C403 1.369 . S
C402 C406 1.531 . S
C403 C402 1.369 . S
C403 C404 1.410 . S
C403 C411 1.503 . S
C404 C403 1.410 . S
C404 C405 1.392 . S
C404 C407 1.511 . S
C405 C401 1.376 . S
C405 C404 1.392 . S
C405 H417 0.929 . S
C406 C402 1.531 . S
C406 H418 0.960 . S
C406 H419 0.962 . S
C406 H420 0.960 . S
C407 C404 1.511 . S
C407 H421 0.961 . S
C407 H422 0.961 . S
C407 H423 0.961 . S
C408 C409 1.370 . S
C408 C410 1.363 . S
C408 H424 0.931 . S
C409 C408 1.370 . S
C409 C413 1.408 . S
C410 C408 1.363 . S
C410 C411 1.370 . S
C410 C414 1.524 . S
C411 C403 1.503 . S
C411 C410 1.370 . S
C411 C412 1.403 . S
C412 C411 1.403 . S
C412 C413 1.404 . S
C412 C415 1.539 . S
C413 C409 1.408 . S
C413 C412 1.404 . S
C413 H425 0.930 . S
C414 C410 1.524 . S
C414 H426 0.956 . S
C414 H427 0.961 . S
C414 H428 0.961 . S
C415 C412 1.539 . S
C415 H429 0.958 . S
C415 H430 0.961 . S
C415 H431 0.960 . S
H416 C400 0.931 . S
H417 C405 0.929 . S
H418 C406 0.960 . S
H419 C406 0.962 . S
H420 C406 0.960 . S
H421 C407 0.961 . S
H422 C407 0.961 . S
H423 C407 0.961 . S
H424 C408 0.931 . S
H425 C413 0.930 . S
H426 C414 0.956 . S
H427 C414 0.961 . S
H428 C414 0.961 . S
H429 C415 0.958 . S
H430 C415 0.961 . S
H431 C415 0.960 . S
C432 C433 1.391 . S
C432 C434 1.394 . S
C432 H448 0.931 . S
C433 C432 1.391 . S
C433 C437 1.376 . S
C434 C432 1.394 . S
C434 C435 1.369 . S
C434 C438 1.531 . S
C435 C434 1.369 . S
C435 C436 1.410 . S
C435 C443 1.503 . S
C436 C435 1.410 . S
C436 C437 1.392 . S
C436 C439 1.511 . S
C437 C433 1.376 . S
C437 C436 1.392 . S
C437 H449 0.929 . S
C438 C434 1.531 . S
C438 H450 0.960 . S
C438 H451 0.962 . S
C438 H452 0.960 . S
C439 C436 1.511 . S
C439 H453 0.961 . S
C439 H454 0.961 . S
C439 H455 0.961 . S
C440 C441 1.370 . S
C440 C442 1.363 . S
C440 H456 0.931 . S
C441 C440 1.370 . S
C441 C445 1.408 . S
C442 C440 1.363 . S
C442 C443 1.370 . S
C442 C446 1.524 . S
C443 C435 1.503 . S
C443 C442 1.370 . S
C443 C444 1.403 . S
C444 C443 1.403 . S
C444 C445 1.404 . S
C444 C447 1.539 . S
C445 C441 1.408 . S
C445 C444 1.404 . S
C445 H457 0.930 . S
C446 C442 1.524 . S
C446 H458 0.956 . S
C446 H459 0.961 . S
C446 H460 0.961 . S
C447 C444 1.539 . S
C447 H461 0.958 . S
C447 H462 0.961 . S
C447 H463 0.960 . S
H448 C432 0.931 . S
H449 C437 0.929 . S
H450 C438 0.960 . S
H451 C438 0.962 . S
H452 C438 0.960 . S
H453 C439 0.961 . S
H454 C439 0.961 . S
H455 C439 0.961 . S
H456 C440 0.931 . S
H457 C445 0.930 . S
H458 C446 0.956 . S
H459 C446 0.961 . S
H460 C446 0.961 . S
H461 C447 0.958 . S
H462 C447 0.961 . S
H463 C447 0.960 . S
C464 C465 1.391 . S
C464 C466 1.394 . S
C464 H480 0.931 . S
C465 C464 1.391 . S
C465 C469 1.376 . S
C466 C464 1.394 . S
C466 C467 1.369 . S
C466 C470 1.531 . S
C467 C466 1.369 . S
C467 C468 1.410 . S
C467 C475 1.503 . S
C468 C467 1.410 . S
C468 C469 1.392 . S
C468 C471 1.511 . S
C469 C465 1.376 . S
C469 C468 1.392 . S
C469 H481 0.929 . S
C470 C466 1.531 . S
C470 H482 0.960 . S
C470 H483 0.962 . S
C470 H484 0.960 . S
C471 C468 1.511 . S
C471 H485 0.961 . S
C471 H486 0.961 . S
C471 H487 0.961 . S
C472 C473 1.370 . S
C472 C474 1.363 . S
C472 H488 0.931 . S
C473 C472 1.370 . S
C473 C477 1.408 . S
C474 C472 1.363 . S
C474 C475 1.370 . S
C474 C478 1.524 . S
C475 C467 1.503 . S
C475 C474 1.370 . S
C475 C476 1.403 . S
C476 C475 1.403 . S
C476 C477 1.404 . S
C476 C479 1.539 . S
C477 C473 1.408 . S
C477 C476 1.404 . S
C477 H489 0.930 . S
C478 C474 1.524 . S
C478 H490 0.956 . S
C478 H491 0.961 . S
C478 H492 0.961 . S
C479 C476 1.539 . S
C479 H493 0.958 . S
C479 H494 0.961 . S
C479 H495 0.960 . S
H480 C464 0.931 . S
H481 C469 0.929 . S
H482 C470 0.960 . S
H483 C470 0.962 . S
H484 C470 0.960 . S
H485 C471 0.961 . S
H486 C471 0.961 . S
H487 C471 0.961 . S
H488 C472 0.931 . S
H489 C477 0.930 . S
H490 C478 0.956 . S
H491 C478 0.961 . S
H492 C478 0.961 . S
H493 C479 0.958 . S
H494 C479 0.961 . S
H495 C479 0.960 . S
C496 C497 1.391 . S
C496 C498 1.394 . S
C496 H512 0.931 . S
C497 C496 1.391 . S
C497 C501 1.376 . S
C498 C496 1.394 . S
C498 C499 1.369 . S
C498 C502 1.531 . S
C499 C498 1.369 . S
C499 C500 1.410 . S
C499 C507 1.503 . S
C500 C499 1.410 . S
C500 C501 1.392 . S
C500 C503 1.511 . S
C501 C497 1.376 . S
C501 C500 1.392 . S
C501 H513 0.929 . S
C502 C498 1.531 . S
C502 H514 0.960 . S
C502 H515 0.962 . S
C502 H516 0.960 . S
C503 C500 1.511 . S
C503 H517 0.961 . S
C503 H518 0.961 . S
C503 H519 0.961 . S
C504 C505 1.370 . S
C504 C506 1.363 . S
C504 H520 0.931 . S
C505 C504 1.370 . S
C505 C509 1.408 . S
C506 C504 1.363 . S
C506 C507 1.370 . S
C506 C510 1.524 . S
C507 C499 1.503 . S
C507 C506 1.370 . S
C507 C508 1.403 . S
C508 C507 1.403 . S
C508 C509 1.404 . S
C508 C511 1.539 . S
C509 C505 1.408 . S
C509 C508 1.404 . S
C509 H521 0.930 . S
C510 C506 1.524 . S
C510 H522 0.956 . S
C510 H523 0.961 . S
C510 H524 0.961 . S
C511 C508 1.539 . S
C511 H525 0.958 . S
C511 H526 0.961 . S
C511 H527 0.960 . S
H512 C496 0.931 . S
H513 C501 0.929 . S
H514 C502 0.960 . S
H515 C502 0.962 . S
H516 C502 0.960 . S
H517 C503 0.961 . S
H518 C503 0.961 . S
H519 C503 0.961 . S
H520 C504 0.931 . S
H521 C509 0.930 . S
H522 C510 0.956 . S
H523 C510 0.961 . S
H524 C510 0.961 . S
H525 C511 0.958 . S
H526 C511 0.961 . S
H527 C511 0.960 . S
C528 C529 1.391 . S
C528 C530 1.394 . S
C528 H544 0.931 . S
C529 C528 1.391 . S
C529 C533 1.376 . S
C530 C528 1.394 . S
C530 C531 1.369 . S
C530 C534 1.531 . S
C531 C530 1.369 . S
C531 C532 1.410 . S
C531 C539 1.503 . S
C532 C531 1.410 . S
C532 C533 1.392 . S
C532 C535 1.511 . S
C533 C529 1.376 . S
C533 C532 1.392 . S
C533 H545 0.929 . S
C534 C530 1.531 . S
C534 H546 0.960 . S
C534 H547 0.962 . S
C534 H548 0.960 . S
C535 C532 1.511 . S
C535 H549 0.961 . S
C535 H550 0.961 . S
C535 H551 0.961 . S
C536 C537 1.370 . S
C536 C538 1.363 . S
C536 H552 0.931 . S
C537 C536 1.370 . S
C537 C541 1.408 . S
C538 C536 1.363 . S
C538 C539 1.370 . S
C538 C542 1.524 . S
C539 C531 1.503 . S
C539 C538 1.370 . S
C539 C540 1.403 . S
C540 C539 1.403 . S
C540 C541 1.404 . S
C540 C543 1.539 . S
C541 C537 1.408 . S
C541 C540 1.404 . S
C541 H553 0.930 . S
C542 C538 1.524 . S
C542 H554 0.956 . S
C542 H555 0.961 . S
C542 H556 0.961 . S
C543 C540 1.539 . S
C543 H557 0.958 . S
C543 H558 0.961 . S
C543 H559 0.960 . S
H544 C528 0.931 . S
H545 C533 0.929 . S
H546 C534 0.960 . S
H547 C534 0.962 . S
H548 C534 0.960 . S
H549 C535 0.961 . S
H550 C535 0.961 . S
H551 C535 0.961 . S
H552 C536 0.931 . S
H553 C541 0.930 . S
H554 C542 0.956 . S
H555 C542 0.961 . S
H556 C542 0.961 . S
H557 C543 0.958 . S
H558 C543 0.961 . S
H559 C543 0.960 . S
C560 C561 1.391 . S
C560 C562 1.394 . S
C560 H576 0.931 . S
C561 C560 1.391 . S
C561 C565 1.376 . S
C562 C560 1.394 . S
C562 C563 1.369 . S
C562 C566 1.531 . S
C563 C562 1.369 . S
C563 C564 1.410 . S
C563 C571 1.503 . S
C564 C563 1.410 . S
C564 C565 1.392 . S
C564 C567 1.511 . S
C565 C561 1.376 . S
C565 C564 1.392 . S
C565 H577 0.929 . S
C566 C562 1.531 . S
C566 H578 0.960 1_554 S
C566 H579 0.962 . S
C566 H580 0.960 1_554 S
C567 C564 1.511 . S
C567 H581 0.961 . S
C567 H582 0.961 . S
C567 H583 0.961 . S
C568 C569 1.370 . S
C568 C570 1.363 . S
C568 H584 0.931 . S
C569 C568 1.370 . S
C569 C573 1.408 1_554 S
C570 C568 1.363 . S
C570 C571 1.370 . S
C570 C574 1.524 . S
C571 C563 1.503 . S
C571 C570 1.370 . S
C571 C572 1.403 1_554 S
C572 C571 1.403 1_556 S
C572 C573 1.404 . S
C572 C575 1.539 . S
C573 C569 1.408 1_556 S
C573 C572 1.404 . S
C573 H585 0.930 . S
C574 C570 1.524 . S
C574 H586 0.956 . S
C574 H587 0.961 . S
C574 H588 0.961 . S
C575 C572 1.539 . S
C575 H589 0.958 . S
C575 H590 0.961 . S
C575 H591 0.960 . S
H576 C560 0.931 . S
H577 C565 0.929 . S
H578 C566 0.960 1_556 S
H579 C566 0.962 . S
H580 C566 0.960 1_556 S
H581 C567 0.961 . S
H582 C567 0.961 . S
H583 C567 0.961 . S
H584 C568 0.931 . S
H585 C573 0.930 . S
H586 C574 0.956 . S
H587 C574 0.961 . S
H588 C574 0.961 . S
H589 C575 0.958 . S
H590 C575 0.961 . S
H591 C575 0.960 . S
C592 C593 1.391 . S
C592 C594 1.394 . S
C592 H608 0.931 . S
C593 C592 1.391 . S
C593 C597 1.376 1_545 S
C594 C592 1.394 . S
C594 C595 1.369 . S
C594 C598 1.531 . S
C595 C594 1.369 . S
C595 C596 1.410 1_545 S
C595 C603 1.503 . S
C596 C595 1.410 1_565 S
C596 C597 1.392 . S
C596 C599 1.511 . S
C597 C593 1.376 1_565 S
C597 C596 1.392 . S
C597 H609 0.929 . S
C598 C594 1.531 . S
C598 H610 0.960 . S
C598 H611 0.962 . S
C598 H612 0.960 . S
C599 C596 1.511 . S
C599 H613 0.961 . S
C599 H614 0.961 . S
C599 H615 0.961 . S
C600 C601 1.370 . S
C600 C602 1.363 . S
C600 H616 0.931 . S
C601 C600 1.370 . S
C601 C605 1.408 . S
C602 C600 1.363 . S
C602 C603 1.370 . S
C602 C606 1.524 . S
C603 C595 1.503 . S
C603 C602 1.370 . S
C603 C604 1.403 . S
C604 C603 1.403 . S
C604 C605 1.404 . S
C604 C607 1.539 . S
C605 C601 1.408 . S
C605 C604 1.404 . S
C605 H617 0.930 . S
C606 C602 1.524 . S
C606 H618 0.956 . S
C606 H619 0.961 1_545 S
C606 H620 0.961 . S
C607 C604 1.539 . S
C607 H621 0.958 . S
C607 H622 0.961 . S
C607 H623 0.960 . S
H608 C592 0.931 . S
H609 C597 0.929 . S
H610 C598 0.960 . S
H611 C598 0.962 . S
H612 C598 0.960 . S
H613 C599 0.961 . S
H614 C599 0.961 . S
H615 C599 0.961 . S
H616 C600 0.931 . S
H617 C605 0.930 . S
H618 C606 0.956 . S
H619 C606 0.961 1_565 S
H620 C606 0.961 . S
H621 C607 0.958 . S
H622 C607 0.961 . S
H623 C607 0.960 . S
C624 C625 1.391 . S
C624 C626 1.394 . S
C624 H640 0.931 . S
C625 C624 1.391 . S
C625 C629 1.376 . S
C626 C624 1.394 . S
C626 C627 1.369 . S
C626 C630 1.531 . S
C627 C626 1.369 . S
C627 C628 1.410 . S
C627 C635 1.503 . S
C628 C627 1.410 . S
C628 C629 1.392 . S
C628 C631 1.511 . S
C629 C625 1.376 . S
C629 C628 1.392 . S
C629 H641 0.929 . S
C630 C626 1.531 . S
C630 H642 0.960 . S
C630 H643 0.962 . S
C630 H644 0.960 . S
C631 C628 1.511 . S
C631 H645 0.961 . S
C631 H646 0.961 . S
C631 H647 0.961 . S
C632 C633 1.370 . S
C632 C634 1.363 . S
C632 H648 0.931 . S
C633 C632 1.370 . S
C633 C637 1.408 . S
C634 C632 1.363 . S
C634 C635 1.370 . S
C634 C638 1.524 . S
C635 C627 1.503 . S
C635 C634 1.370 . S
C635 C636 1.403 . S
C636 C635 1.403 . S
C636 C637 1.404 . S
C636 C639 1.539 . S
C637 C633 1.408 . S
C637 C636 1.404 . S
C637 H649 0.930 . S
C638 C634 1.524 . S
C638 H650 0.956 . S
C638 H651 0.961 . S
C638 H652 0.961 . S
C639 C636 1.539 . S
C639 H653 0.958 . S
C639 H654 0.961 . S
C639 H655 0.960 . S
H640 C624 0.931 . S
H641 C629 0.929 . S
H642 C630 0.960 . S
H643 C630 0.962 . S
H644 C630 0.960 . S
H645 C631 0.961 . S
H646 C631 0.961 . S
H647 C631 0.961 . S
H648 C632 0.931 . S
H649 C637 0.930 . S
H650 C638 0.956 . S
H651 C638 0.961 . S
H652 C638 0.961 . S
H653 C639 0.958 . S
H654 C639 0.961 . S
H655 C639 0.960 . S
C656 C657 1.391 . S
C656 C658 1.394 . S
C656 H672 0.931 . S
C657 C656 1.391 . S
C657 C661 1.376 . S
C658 C656 1.394 . S
C658 C659 1.369 . S
C658 C662 1.531 . S
C659 C658 1.369 . S
C659 C660 1.410 . S
C659 C667 1.503 . S
C660 C659 1.410 . S
C660 C661 1.392 . S
C660 C663 1.511 . S
C661 C657 1.376 . S
C661 C660 1.392 . S
C661 H673 0.929 . S
C662 C658 1.531 . S
C662 H674 0.960 . S
C662 H675 0.962 . S
C662 H676 0.960 . S
C663 C660 1.511 . S
C663 H677 0.961 1_565 S
C663 H678 0.961 . S
C663 H679 0.961 . S
C664 C665 1.370 . S
C664 C666 1.363 . S
C664 H680 0.931 1_565 S
C665 C664 1.370 . S
C665 C669 1.408 . S
C666 C664 1.363 . S
C666 C667 1.370 . S
C666 C670 1.524 1_565 S
C667 C659 1.503 . S
C667 C666 1.370 . S
C667 C668 1.403 . S
C668 C667 1.403 . S
C668 C669 1.404 . S
C668 C671 1.539 . S
C669 C665 1.408 . S
C669 C668 1.404 . S
C669 H681 0.930 . S
C670 C666 1.524 1_545 S
C670 H682 0.956 . S
C670 H683 0.961 . S
C670 H684 0.961 . S
C671 C668 1.539 . S
C671 H685 0.958 . S
C671 H686 0.961 . S
C671 H687 0.960 . S
H672 C656 0.931 . S
H673 C661 0.929 . S
H674 C662 0.960 . S
H675 C662 0.962 . S
H676 C662 0.960 . S
H677 C663 0.961 1_545 S
H678 C663 0.961 . S
H679 C663 0.961 . S
H680 C664 0.931 1_545 S
H681 C669 0.930 . S
H682 C670 0.956 . S
H683 C670 0.961 . S
H684 C670 0.961 . S
H685 C671 0.958 . S
H686 C671 0.961 . S
H687 C671 0.960 . S
C688 C689 1.391 . S
C688 C690 1.394 . S
C688 H704 0.931 . S
C689 C688 1.391 . S
C689 C693 1.376 . S
C690 C688 1.394 . S
C690 C691 1.369 . S
C690 C694 1.531 . S
C691 C690 1.369 . S
C691 C692 1.410 . S
C691 C699 1.503 . S
C692 C691 1.410 . S
C692 C693 1.392 . S
C692 C695 1.511 . S
C693 C689 1.376 . S
C693 C692 1.392 . S
C693 H705 0.929 . S
C694 C690 1.531 . S
C694 H706 0.960 . S
C694 H707 0.962 . S
C694 H708 0.960 . S
C695 C692 1.511 . S
C695 H709 0.961 . S
C695 H710 0.961 . S
C695 H711 0.961 . S
C696 C697 1.370 . S
C696 C698 1.363 . S
C696 H712 0.931 . S
C697 C696 1.370 . S
C697 C701 1.408 . S
C698 C696 1.363 . S
C698 C699 1.370 . S
C698 C702 1.524 . S
C699 C691 1.503 . S
C699 C698 1.370 . S
C699 C700 1.403 . S
C700 C699 1.403 . S
C700 C701 1.404 . S
C700 C703 1.539 . S
C701 C697 1.408 . S
C701 C700 1.404 . S
C701 H713 0.930 . S
C702 C698 1.524 . S
C702 H714 0.956 . S
C702 H715 0.961 . S
C702 H716 0.961 . S
C703 C700 1.539 . S
C703 H717 0.958 . S
C703 H718 0.961 . S
C703 H719 0.960 . S
H704 C688 0.931 . S
H705 C693 0.929 . S
H706 C694 0.960 . S
H707 C694 0.962 . S
H708 C694 0.960 . S
H709 C695 0.961 . S
H710 C695 0.961 . S
H711 C695 0.961 . S
H712 C696 0.931 . S
H713 C701 0.930 . S
H714 C702 0.956 . S
H715 C702 0.961 . S
H716 C702 0.961 . S
H717 C703 0.958 . S
H718 C703 0.961 . S
H719 C703 0.960 . S
C720 C721 1.391 . S
C720 C722 1.394 . S
C720 H736 0.931 . S
C721 C720 1.391 . S
C721 C725 1.376 . S
C722 C720 1.394 . S
C722 C723 1.369 . S
C722 C726 1.531 . S
C723 C722 1.369 . S
C723 C724 1.410 . S
C723 C731 1.503 . S
C724 C723 1.410 . S
C724 C725 1.392 . S
C724 C727 1.511 . S
C725 C721 1.376 . S
C725 C724 1.392 . S
C725 H737 0.929 . S
C726 C722 1.531 . S
C726 H738 0.960 . S
C726 H739 0.962 . S
C726 H740 0.960 . S
C727 C724 1.511 . S
C727 H741 0.961 . S
C727 H742 0.961 . S
C727 H743 0.961 . S
C728 C729 1.370 . S
C728 C730 1.363 . S
C728 H744 0.931 . S
C729 C728 1.370 . S
C729 C733 1.408 . S
C730 C728 1.363 . S
C730 C731 1.370 . S
C730 C734 1.524 . S
C731 C723 1.503 . S
C731 C730 1.370 . S
C731 C732 1.403 . S
C732 C731 1.403 . S
C732 C733 1.404 . S
C732 C735 1.539 . S
C733 C729 1.408 . S
C733 C732 1.404 . S
C733 H745 0.930 . S
C734 C730 1.524 . S
C734 H746 0.956 . S
C734 H747 0.961 . S
C734 H748 0.961 . S
C735 C732 1.539 . S
C735 H749 0.958 . S
C735 H750 0.961 . S
C735 H751 0.960 . S
H736 C720 0.931 . S
H737 C725 0.929 . S
H738 C726 0.960 . S
H739 C726 0.962 . S
H740 C726 0.960 . S
H741 C727 0.961 . S
H742 C727 0.961 . S
H743 C727 0.961 . S
H744 C728 0.931 . S
H745 C733 0.930 . S
H746 C734 0.956 . S
H747 C734 0.961 . S
H748 C734 0.961 . S
H749 C735 0.958 . S
H750 C735 0.961 . S
H751 C735 0.960 . S
C752 C753 1.391 . S
C752 C754 1.394 . S
C752 H768 0.931 . S
C753 C752 1.391 . S
C753 C757 1.376 . S
C754 C752 1.394 . S
C754 C755 1.369 . S
C754 C758 1.531 . S
C755 C754 1.369 . S
C755 C756 1.410 . S
C755 C763 1.503 . S
C756 C755 1.410 . S
C756 C757 1.392 . S
C756 C759 1.511 . S
C757 C753 1.376 . S
C757 C756 1.392 . S
C757 H769 0.929 . S
C758 C754 1.531 . S
C758 H770 0.960 . S
C758 H771 0.962 . S
C758 H772 0.960 . S
C759 C756 1.511 . S
C759 H773 0.961 . S
C759 H774 0.961 . S
C759 H775 0.961 . S
C760 C761 1.370 . S
C760 C762 1.363 . S
C760 H776 0.931 . S
C761 C760 1.370 . S
C761 C765 1.408 . S
C762 C760 1.363 . S
C762 C763 1.370 . S
C762 C766 1.524 . S
C763 C755 1.503 . S
C763 C762 1.370 . S
C763 C764 1.403 . S
C764 C763 1.403 . S
C764 C765 1.404 . S
C764 C767 1.539 . S
C765 C761 1.408 . S
C765 C764 1.404 . S
C765 H777 0.930 . S
C766 C762 1.524 . S
C766 H778 0.956 . S
C766 H779 0.961 . S
C766 H780 0.961 . S
C767 C764 1.539 . S
C767 H781 0.958 . S
C767 H782 0.961 . S
C767 H783 0.960 . S
H768 C752 0.931 . S
H769 C757 0.929 . S
H770 C758 0.960 . S
H771 C758 0.962 . S
H772 C758 0.960 . S
H773 C759 0.961 . S
H774 C759 0.961 . S
H775 C759 0.961 . S
H776 C760 0.931 . S
H777 C765 0.930 . S
H778 C766 0.956 . S
H779 C766 0.961 . S
H780 C766 0.961 . S
H781 C767 0.958 . S
H782 C767 0.961 . S
H783 C767 0.960 . S
C784 C785 1.391 . S
C784 C786 1.394 . S
C784 H800 0.931 . S
C785 C784 1.391 . S
C785 C789 1.376 . S
C786 C784 1.394 . S
C786 C787 1.369 . S
C786 C790 1.531 . S
C787 C786 1.369 . S
C787 C788 1.410 . S
C787 C795 1.503 . S
C788 C787 1.410 . S
C788 C789 1.392 . S
C788 C791 1.511 . S
C789 C785 1.376 . S
C789 C788 1.392 . S
C789 H801 0.929 . S
C790 C786 1.531 . S
C790 H802 0.960 . S
C790 H803 0.962 . S
C790 H804 0.960 . S
C791 C788 1.511 . S
C791 H805 0.961 . S
C791 H806 0.961 . S
C791 H807 0.961 . S
C792 C793 1.370 . S
C792 C794 1.363 . S
C792 H808 0.931 . S
C793 C792 1.370 . S
C793 C797 1.408 . S
C794 C792 1.363 . S
C794 C795 1.370 . S
C794 C798 1.524 . S
C795 C787 1.503 . S
C795 C794 1.370 . S
C795 C796 1.403 . S
C796 C795 1.403 . S
C796 C797 1.404 . S
C796 C799 1.539 . S
C797 C793 1.408 . S
C797 C796 1.404 . S
C797 H809 0.930 . S
C798 C794 1.524 . S
C798 H810 0.956 . S
C798 H811 0.961 . S
C798 H812 0.961 . S
C799 C796 1.539 . S
C799 H813 0.958 . S
C799 H814 0.961 . S
C799 H815 0.960 . S
H800 C784 0.931 . S
H801 C789 0.929 . S
H802 C790 0.960 . S
H803 C790 0.962 . S
H804 C790 0.960 . S
H805 C791 0.961 . S
H806 C791 0.961 . S
H807 C791 0.961 . S
H808 C792 0.931 . S
H809 C797 0.930 . S
H810 C798 0.956 . S
H811 C798 0.961 . S
H812 C798 0.961 . S
H813 C799 0.958 . S
H814 C799 0.961 . S
H815 C799 0.960 . S
C816 C817 1.391 . S
C816 C818 1.394 . S
C816 H832 0.931 . S
C817 C816 1.391 . S
C817 C821 1.376 . S
C818 C816 1.394 . S
C818 C819 1.369 . S
C818 C822 1.531 . S
C819 C818 1.369 . S
C819 C820 1.410 . S
C819 C827 1.503 . S
C820 C819 1.410 . S
C820 C821 1.392 . S
C820 C823 1.511 . S
C821 C817 1.376 . S
C821 C820 1.392 . S
C821 H833 0.929 . S
C822 C818 1.531 . S
C822 H834 0.960 . S
C822 H835 0.962 . S
C822 H836 0.960 . S
C823 C820 1.511 . S
C823 H837 0.961 . S
C823 H838 0.961 . S
C823 H839 0.961 . S
C824 C825 1.370 . S
C824 C826 1.363 . S
C824 H840 0.931 . S
C825 C824 1.370 . S
C825 C829 1.408 . S
C826 C824 1.363 . S
C826 C827 1.370 . S
C826 C830 1.524 . S
C827 C819 1.503 . S
C827 C826 1.370 . S
C827 C828 1.403 . S
C828 C827 1.403 . S
C828 C829 1.404 . S
C828 C831 1.539 . S
C829 C825 1.408 . S
C829 C828 1.404 . S
C829 H841 0.930 . S
C830 C826 1.524 . S
C830 H842 0.956 . S
C830 H843 0.961 . S
C830 H844 0.961 . S
C831 C828 1.539 . S
C831 H845 0.958 . S
C831 H846 0.961 . S
C831 H847 0.960 . S
H832 C816 0.931 . S
H833 C821 0.929 . S
H834 C822 0.960 . S
H835 C822 0.962 . S
H836 C822 0.960 . S
H837 C823 0.961 . S
H838 C823 0.961 . S
H839 C823 0.961 . S
H840 C824 0.931 . S
H841 C829 0.930 . S
H842 C830 0.956 . S
H843 C830 0.961 . S
H844 C830 0.961 . S
H845 C831 0.958 . S
H846 C831 0.961 . S
H847 C831 0.960 . S
C848 C849 1.391 . S
C848 C850 1.394 . S
C848 H864 0.931 . S
C849 C848 1.391 . S
C849 C853 1.376 . S
C850 C848 1.394 . S
C850 C851 1.369 . S
C850 C854 1.531 . S
C851 C850 1.369 . S
C851 C852 1.410 . S
C851 C859 1.503 . S
C852 C851 1.410 . S
C852 C853 1.392 . S
C852 C855 1.511 . S
C853 C849 1.376 . S
C853 C852 1.392 . S
C853 H865 0.929 . S
C854 C850 1.531 . S
C854 H866 0.960 . S
C854 H867 0.962 . S
C854 H868 0.960 . S
C855 C852 1.511 . S
C855 H869 0.961 . S
C855 H870 0.961 . S
C855 H871 0.961 . S
C856 C857 1.370 . S
C856 C858 1.363 . S
C856 H872 0.931 . S
C857 C856 1.370 . S
C857 C861 1.408 . S
C858 C856 1.363 . S
C858 C859 1.370 . S
C858 C862 1.524 . S
C859 C851 1.503 . S
C859 C858 1.370 . S
C859 C860 1.403 . S
C860 C859 1.403 . S
C860 C861 1.404 . S
C860 C863 1.539 . S
C861 C857 1.408 . S
C861 C860 1.404 . S
C861 H873 0.930 . S
C862 C858 1.524 . S
C862 H874 0.956 . S
C862 H875 0.961 . S
C862 H876 0.961 . S
C863 C860 1.539 . S
C863 H877 0.958 . S
C863 H878 0.961 . S
C863 H879 0.960 . S
H864 C848 0.931 . S
H865 C853 0.929 . S
H866 C854 0.960 . S
H867 C854 0.962 . S
H868 C854 0.960 . S
H869 C855 0.961 . S
H870 C855 0.961 . S
H871 C855 0.961 . S
H872 C856 0.931 . S
H873 C861 0.930 . S
H874 C862 0.956 . S
H875 C862 0.961 . S
H876 C862 0.961 . S
H877 C863 0.958 . S
H878 C863 0.961 . S
H879 C863 0.960 . S
C880 C881 1.391 . S
C880 C882 1.394 . S
C880 H896 0.931 . S
C881 C880 1.391 . S
C881 C885 1.376 . S
C882 C880 1.394 . S
C882 C883 1.369 . S
C882 C886 1.531 . S
C883 C882 1.369 . S
C883 C884 1.410 . S
C883 C891 1.503 . S
C884 C883 1.410 . S
C884 C885 1.392 . S
C884 C887 1.511 . S
C885 C881 1.376 . S
C885 C884 1.392 . S
C885 H897 0.929 . S
C886 C882 1.531 . S
C886 H898 0.960 . S
C886 H899 0.962 . S
C886 H900 0.960 . S
C887 C884 1.511 . S
C887 H901 0.961 . S
C887 H902 0.961 . S
C887 H903 0.961 . S
C888 C889 1.370 . S
C888 C890 1.363 . S
C888 H904 0.931 . S
C889 C888 1.370 . S
C889 C893 1.408 . S
C890 C888 1.363 . S
C890 C891 1.370 . S
C890 C894 1.524 . S
C891 C883 1.503 . S
C891 C890 1.370 . S
C891 C892 1.403 . S
C892 C891 1.403 . S
C892 C893 1.404 . S
C892 C895 1.539 . S
C893 C889 1.408 . S
C893 C892 1.404 . S
C893 H905 0.930 . S
C894 C890 1.524 . S
C894 H906 0.956 . S
C894 H907 0.961 . S
C894 H908 0.961 . S
C895 C892 1.539 . S
C895 H909 0.958 . S
C895 H910 0.961 . S
C895 H911 0.960 . S
H896 C880 0.931 . S
H897 C885 0.929 . S
H898 C886 0.960 . S
H899 C886 0.962 . S
H900 C886 0.960 . S
H901 C887 0.961 . S
H902 C887 0.961 . S
H903 C887 0.961 . S
H904 C888 0.931 . S
H905 C893 0.930 . S
H906 C894 0.956 . S
H907 C894 0.961 . S
H908 C894 0.961 . S
H909 C895 0.958 . S
H910 C895 0.961 . S
H911 C895 0.960 . S
C912 C913 1.391 . S
C912 C914 1.394 . S
C912 H928 0.931 . S
C913 C912 1.391 . S
C913 C917 1.376 . S
C914 C912 1.394 . S
C914 C915 1.369 . S
C914 C918 1.531 . S
C915 C914 1.369 . S
C915 C916 1.410 . S
C915 C923 1.503 . S
C916 C915 1.410 . S
C916 C917 1.392 . S
C916 C919 1.511 . S
C917 C913 1.376 . S
C917 C916 1.392 . S
C917 H929 0.929 . S
C918 C914 1.531 . S
C918 H930 0.960 . S
C918 H931 0.962 . S
C918 H932 0.960 . S
C919 C916 1.511 . S
C919 H933 0.961 . S
C919 H934 0.961 . S
C919 H935 0.961 . S
C920 C921 1.370 . S
C920 C922 1.363 . S
C920 H936 0.931 . S
C921 C920 1.370 . S
C921 C925 1.408 . S
C922 C920 1.363 . S
C922 C923 1.370 . S
C922 C926 1.524 . S
C923 C915 1.503 . S
C923 C922 1.370 . S
C923 C924 1.403 . S
C924 C923 1.403 . S
C924 C925 1.404 . S
C924 C927 1.539 . S
C925 C921 1.408 . S
C925 C924 1.404 . S
C925 H937 0.930 . S
C926 C922 1.524 . S
C926 H938 0.956 . S
C926 H939 0.961 . S
C926 H940 0.961 . S
C927 C924 1.539 . S
C927 H941 0.958 . S
C927 H942 0.961 . S
C927 H943 0.960 . S
H928 C912 0.931 . S
H929 C917 0.929 . S
H930 C918 0.960 . S
H931 C918 0.962 . S
H932 C918 0.960 . S
H933 C919 0.961 . S
H934 C919 0.961 . S
H935 C919 0.961 . S
H936 C920 0.931 . S
H937 C925 0.930 . S
H938 C926 0.956 . S
H939 C926 0.961 . S
H940 C926 0.961 . S
H941 C927 0.958 . S
H942 C927 0.961 . S
H943 C927 0.960 . S
C944 C945 1.391 . S
C944 C946 1.394 . S
C944 H960 0.931 . S
C945 C944 1.391 . S
C945 C949 1.376 . S
C946 C944 1.394 . S
C946 C947 1.369 . S
C946 C950 1.531 . S
C947 C946 1.369 . S
C947 C948 1.410 . S
C947 C955 1.503 . S
C948 C947 1.410 . S
C948 C949 1.392 . S
C948 C951 1.511 1_455 S
C949 C945 1.376 . S
C949 C948 1.392 . S
C949 H961 0.929 1_455 S
C950 C946 1.531 . S
C950 H962 0.960 . S
C950 H963 0.962 . S
C950 H964 0.960 . S
C951 C948 1.511 1_655 S
C951 H965 0.961 . S
C951 H966 0.961 1_655 S
C951 H967 0.961 . S
C952 C953 1.370 . S
C952 C954 1.363 . S
C952 H968 0.931 . S
C953 C952 1.370 . S
C953 C957 1.408 1_455 S
C954 C952 1.363 . S
C954 C955 1.370 . S
C954 C958 1.524 . S
C955 C947 1.503 . S
C955 C954 1.370 . S
C955 C956 1.403 1_455 S
C956 C955 1.403 1_655 S
C956 C957 1.404 . S
C956 C959 1.539 . S
C957 C953 1.408 1_655 S
C957 C956 1.404 . S
C957 H969 0.930 . S
C958 C954 1.524 . S
C958 H970 0.956 . S
C958 H971 0.961 . S
C958 H972 0.961 . S
C959 C956 1.539 . S
C959 H973 0.958 . S
C959 H974 0.961 . S
C959 H975 0.960 . S
H960 C944 0.931 . S
H961 C949 0.929 1_655 S
H962 C950 0.960 . S
H963 C950 0.962 . S
H964 C950 0.960 . S
H965 C951 0.961 . S
H966 C951 0.961 1_455 S
H967 C951 0.961 . S
H968 C952 0.931 . S
H969 C957 0.930 . S
H970 C958 0.956 . S
H971 C958 0.961 . S
H972 C958 0.961 . S
H973 C959 0.958 . S
H974 C959 0.961 . S
H975 C959 0.960 . S
C976 C977 1.391 . S
C976 C978 1.394 . S
C976 H992 0.931 . S
C977 C976 1.391 . S
C977 C981 1.376 . S
C978 C976 1.394 . S
C978 C979 1.369 . S
C978 C982 1.531 . S
C979 C978 1.369 . S
C979 C980 1.410 . S
C979 C987 1.503 . S
C980 C979 1.410 . S
C980 C981 1.392 . S
C980 C983 1.511 . S
C981 C977 1.376 . S
C981 C980 1.392 . S
C981 H993 0.929 . S
C982 C978 1.531 . S
C982 H994 0.960 . S
C982 H995 0.962 . S
C982 H996 0.960 . S
C983 C980 1.511 . S
C983 H997 0.961 . S
C983 H998 0.961 . S
C983 H999 0.961 . S
C984 C985 1.370 . S
C984 C986 1.363 . S
C984 H1000 0.931 . S
C985 C984 1.370 . S
C985 C989 1.408 . S
C986 C984 1.363 . S
C986 C987 1.370 . S
C986 C990 1.524 . S
C987 C979 1.503 . S
C987 C986 1.370 . S
C987 C988 1.403 . S
C988 C987 1.403 . S
C988 C989 1.404 . S
C988 C991 1.539 . S
C989 C985 1.408 . S
C989 C988 1.404 . S
C989 H1001 0.930 . S
C990 C986 1.524 . S
C990 H1002 0.956 . S
C990 H1003 0.961 . S
C990 H1004 0.961 . S
C991 C988 1.539 . S
C991 H1005 0.958 . S
C991 H1006 0.961 . S
C991 H1007 0.960 . S
H992 C976 0.931 . S
H993 C981 0.929 . S
H994 C982 0.960 . S
H995 C982 0.962 . S
H996 C982 0.960 . S
H997 C983 0.961 . S
H998 C983 0.961 . S
H999 C983 0.961 . S
H1000 C984 0.931 . S
H1001 C989 0.930 . S
H1002 C990 0.956 . S
H1003 C990 0.961 . S
H1004 C990 0.961 . S
H1005 C991 0.958 . S
H1006 C991 0.961 . S
H1007 C991 0.960 . S
C1008 C1009 1.391 . S
C1008 C1010 1.394 . S
C1008 H1024 0.931 . S
C1009 C1008 1.391 . S
C1009 C1013 1.376 . S
C1010 C1008 1.394 . S
C1010 C1011 1.369 . S
C1010 C1014 1.531 . S
C1011 C1010 1.369 . S
C1011 C1012 1.410 . S
C1011 C1019 1.503 . S
C1012 C1011 1.410 . S
C1012 C1013 1.392 . S
C1012 C1015 1.511 . S
C1013 C1009 1.376 . S
C1013 C1012 1.392 . S
C1013 H1025 0.929 . S
C1014 C1010 1.531 . S
C1014 H1026 0.960 . S
C1014 H1027 0.962 . S
C1014 H1028 0.960 . S
C1015 C1012 1.511 . S
C1015 H1029 0.961 . S
C1015 H1030 0.961 . S
C1015 H1031 0.961 . S
C1016 C1017 1.370 . S
C1016 C1018 1.363 . S
C1016 H1032 0.931 . S
C1017 C1016 1.370 . S
C1017 C1021 1.408 . S
C1018 C1016 1.363 . S
C1018 C1019 1.370 . S
C1018 C1022 1.524 . S
C1019 C1011 1.503 . S
C1019 C1018 1.370 . S
C1019 C1020 1.403 . S
C1020 C1019 1.403 . S
C1020 C1021 1.404 . S
C1020 C1023 1.539 . S
C1021 C1017 1.408 . S
C1021 C1020 1.404 . S
C1021 H1033 0.930 . S
C1022 C1018 1.524 . S
C1022 H1034 0.956 . S
C1022 H1035 0.961 . S
C1022 H1036 0.961 . S
C1023 C1020 1.539 . S
C1023 H1037 0.958 . S
C1023 H1038 0.961 . S
C1023 H1039 0.960 . S
H1024 C1008 0.931 . S
H1025 C1013 0.929 . S
H1026 C1014 0.960 . S
H1027 C1014 0.962 . S
H1028 C1014 0.960 . S
H1029 C1015 0.961 . S
H1030 C1015 0.961 . S
H1031 C1015 0.961 . S
H1032 C1016 0.931 . S
H1033 C1021 0.930 . S
H1034 C1022 0.956 . S
H1035 C1022 0.961 . S
H1036 C1022 0.961 . S
H1037 C1023 0.958 . S
H1038 C1023 0.961 . S
H1039 C1023 0.960 . S
C1040 C1041 1.391 1_554 S
C1040 C1042 1.394 . S
C1040 H1056 0.931 . S
C1041 C1040 1.391 1_556 S
C1041 C1045 1.376 . S
C1042 C1040 1.394 . S
C1042 C1043 1.369 1_554 S
C1042 C1046 1.531 . S
C1043 C1042 1.369 1_556 S
C1043 C1044 1.410 . S
C1043 C1051 1.503 . S
C1044 C1043 1.410 . S
C1044 C1045 1.392 . S
C1044 C1047 1.511 . S
C1045 C1041 1.376 . S
C1045 C1044 1.392 . S
C1045 H1057 0.929 . S
C1046 C1042 1.531 . S
C1046 H1058 0.960 . S
C1046 H1059 0.962 . S
C1046 H1060 0.960 . S
C1047 C1044 1.511 . S
C1047 H1061 0.961 . S
C1047 H1062 0.961 . S
C1047 H1063 0.961 . S
C1048 C1049 1.370 . S
C1048 C1050 1.363 . S
C1048 H1064 0.931 . S
C1049 C1048 1.370 . S
C1049 C1053 1.408 . S
C1050 C1048 1.363 . S
C1050 C1051 1.370 . S
C1050 C1054 1.524 . S
C1051 C1043 1.503 . S
C1051 C1050 1.370 . S
C1051 C1052 1.403 1_556 S
C1052 C1051 1.403 1_554 S
C1052 C1053 1.404 1_554 S
C1052 C1055 1.539 . S
C1053 C1049 1.408 . S
C1053 C1052 1.404 1_556 S
C1053 H1065 0.930 1_556 S
C1054 C1050 1.524 . S
C1054 H1066 0.956 . S
C1054 H1067 0.961 . S
C1054 H1068 0.961 . S
C1055 C1052 1.539 . S
C1055 H1069 0.958 . S
C1055 H1070 0.961 . S
C1055 H1071 0.960 . S
H1056 C1040 0.931 . S
H1057 C1045 0.929 . S
H1058 C1046 0.960 . S
H1059 C1046 0.962 . S
H1060 C1046 0.960 . S
H1061 C1047 0.961 . S
H1062 C1047 0.961 . S
H1063 C1047 0.961 . S
H1064 C1048 0.931 . S
H1065 C1053 0.930 1_554 S
H1066 C1054 0.956 . S
H1067 C1054 0.961 . S
H1068 C1054 0.961 . S
H1069 C1055 0.958 . S
H1070 C1055 0.961 . S
H1071 C1055 0.960 . S
C1072 C1073 1.391 . S
C1072 C1074 1.394 . S
C1072 H1088 0.931 . S
C1073 C1072 1.391 . S
C1073 C1077 1.376 . S
C1074 C1072 1.394 . S
C1074 C1075 1.369 . S
C1074 C1078 1.531 . S
C1075 C1074 1.369 . S
C1075 C1076 1.410 . S
C1075 C1083 1.503 . S
C1076 C1075 1.410 . S
C1076 C1077 1.392 . S
C1076 C1079 1.511 . S
C1077 C1073 1.376 . S
C1077 C1076 1.392 . S
C1077 H1089 0.929 . S
C1078 C1074 1.531 . S
C1078 H1090 0.960 . S
C1078 H1091 0.962 . S
C1078 H1092 0.960 . S
C1079 C1076 1.511 . S
C1079 H1093 0.961 . S
C1079 H1094 0.961 . S
C1079 H1095 0.961 . S
C1080 C1081 1.370 . S
C1080 C1082 1.363 . S
C1080 H1096 0.931 . S
C1081 C1080 1.370 . S
C1081 C1085 1.408 . S
C1082 C1080 1.363 . S
C1082 C1083 1.370 . S
C1082 C1086 1.524 . S
C1083 C1075 1.503 . S
C1083 C1082 1.370 . S
C1083 C1084 1.403 . S
C1084 C1083 1.403 . S
C1084 C1085 1.404 . S
C1084 C1087 1.539 . S
C1085 C1081 1.408 . S
C1085 C1084 1.404 . S
C1085 H1097 0.930 . S
C1086 C1082 1.524 . S
C1086 H1098 0.956 . S
C1086 H1099 0.961 . S
C1086 H1100 0.961 . S
C1087 C1084 1.539 . S
C1087 H1101 0.958 . S
C1087 H1102 0.961 . S
C1087 H1103 0.960 . S
H1088 C1072 0.931 . S
H1089 C1077 0.929 . S
H1090 C1078 0.960 . S
H1091 C1078 0.962 . S
H1092 C1078 0.960 . S
H1093 C1079 0.961 . S
H1094 C1079 0.961 . S
H1095 C1079 0.961 . S
H1096 C1080 0.931 . S
H1097 C1085 0.930 . S
H1098 C1086 0.956 . S
H1099 C1086 0.961 . S
H1100 C1086 0.961 . S
H1101 C1087 0.958 . S
H1102 C1087 0.961 . S
H1103 C1087 0.960 . S
C1104 C1105 1.391 . S
C1104 C1106 1.394 . S
C1104 H1120 0.931 . S
C1105 C1104 1.391 . S
C1105 C1109 1.376 . S
C1106 C1104 1.394 . S
C1106 C1107 1.369 . S
C1106 C1110 1.531 . S
C1107 C1106 1.369 . S
C1107 C1108 1.410 . S
C1107 C1115 1.503 . S
C1108 C1107 1.410 . S
C1108 C1109 1.392 . S
C1108 C1111 1.511 . S
C1109 C1105 1.376 . S
C1109 C1108 1.392 . S
C1109 H1121 0.929 . S
C1110 C1106 1.531 . S
C1110 H1122 0.960 . S
C1110 H1123 0.962 . S
C1110 H1124 0.960 . S
C1111 C1108 1.511 . S
C1111 H1125 0.961 . S
C1111 H1126 0.961 . S
C1111 H1127 0.961 1_455 S
C1112 C1113 1.370 . S
C1112 C1114 1.363 . S
C1112 H1128 0.931 . S
C1113 C1112 1.370 . S
C1113 C1117 1.408 . S
C1114 C1112 1.363 . S
C1114 C1115 1.370 . S
C1114 C1118 1.524 . S
C1115 C1107 1.503 . S
C1115 C1114 1.370 . S
C1115 C1116 1.403 . S
C1116 C1115 1.403 . S
C1116 C1117 1.404 . S
C1116 C1119 1.539 . S
C1117 C1113 1.408 . S
C1117 C1116 1.404 . S
C1117 H1129 0.930 . S
C1118 C1114 1.524 . S
C1118 H1130 0.956 . S
C1118 H1131 0.961 . S
C1118 H1132 0.961 . S
C1119 C1116 1.539 . S
C1119 H1133 0.958 . S
C1119 H1134 0.961 1_455 S
C1119 H1135 0.960 1_455 S
H1120 C1104 0.931 . S
H1121 C1109 0.929 . S
H1122 C1110 0.960 . S
H1123 C1110 0.962 . S
H1124 C1110 0.960 . S
H1125 C1111 0.961 . S
H1126 C1111 0.961 . S
H1127 C1111 0.961 1_655 S
H1128 C1112 0.931 . S
H1129 C1117 0.930 . S
H1130 C1118 0.956 . S
H1131 C1118 0.961 . S
H1132 C1118 0.961 . S
H1133 C1119 0.958 . S
H1134 C1119 0.961 1_655 S
H1135 C1119 0.960 1_655 S
C1136 C1137 1.391 . S
C1136 C1138 1.394 . S
C1136 H1152 0.931 . S
C1137 C1136 1.391 . S
C1137 C1141 1.376 . S
C1138 C1136 1.394 . S
C1138 C1139 1.369 . S
C1138 C1142 1.531 . S
C1139 C1138 1.369 . S
C1139 C1140 1.410 . S
C1139 C1147 1.503 . S
C1140 C1139 1.410 . S
C1140 C1141 1.392 . S
C1140 C1143 1.511 . S
C1141 C1137 1.376 . S
C1141 C1140 1.392 . S
C1141 H1153 0.929 . S
C1142 C1138 1.531 . S
C1142 H1154 0.960 . S
C1142 H1155 0.962 . S
C1142 H1156 0.960 . S
C1143 C1140 1.511 . S
C1143 H1157 0.961 . S
C1143 H1158 0.961 . S
C1143 H1159 0.961 . S
C1144 C1145 1.370 . S
C1144 C1146 1.363 . S
C1144 H1160 0.931 . S
C1145 C1144 1.370 . S
C1145 C1149 1.408 . S
C1146 C1144 1.363 . S
C1146 C1147 1.370 . S
C1146 C1150 1.524 . S
C1147 C1139 1.503 . S
C1147 C1146 1.370 . S
C1147 C1148 1.403 . S
C1148 C1147 1.403 . S
C1148 C1149 1.404 . S
C1148 C1151 1.539 . S
C1149 C1145 1.408 . S
C1149 C1148 1.404 . S
C1149 H1161 0.930 . S
C1150 C1146 1.524 . S
C1150 H1162 0.956 . S
C1150 H1163 0.961 . S
C1150 H1164 0.961 . S
C1151 C1148 1.539 . S
C1151 H1165 0.958 . S
C1151 H1166 0.961 . S
C1151 H1167 0.960 . S
H1152 C1136 0.931 . S
H1153 C1141 0.929 . S
H1154 C1142 0.960 . S
H1155 C1142 0.962 . S
H1156 C1142 0.960 . S
H1157 C1143 0.961 . S
H1158 C1143 0.961 . S
H1159 C1143 0.961 . S
H1160 C1144 0.931 . S
H1161 C1149 0.930 . S
H1162 C1150 0.956 . S
H1163 C1150 0.961 . S
H1164 C1150 0.961 . S
H1165 C1151 0.958 . S
H1166 C1151 0.961 . S
H1167 C1151 0.960 . S
C1168 C1169 1.391 . S
C1168 C1170 1.394 . S
C1168 H1184 0.931 . S
C1169 C1168 1.391 . S
C1169 C1173 1.376 . S
C1170 C1168 1.394 . S
C1170 C1171 1.369 . S
C1170 C1174 1.531 . S
C1171 C1170 1.369 . S
C1171 C1172 1.410 . S
C1171 C1179 1.503 . S
C1172 C1171 1.410 . S
C1172 C1173 1.392 . S
C1172 C1175 1.511 . S
C1173 C1169 1.376 . S
C1173 C1172 1.392 . S
C1173 H1185 0.929 . S
C1174 C1170 1.531 . S
C1174 H1186 0.960 . S
C1174 H1187 0.962 . S
C1174 H1188 0.960 . S
C1175 C1172 1.511 . S
C1175 H1189 0.961 . S
C1175 H1190 0.961 . S
C1175 H1191 0.961 . S
C1176 C1177 1.370 . S
C1176 C1178 1.363 . S
C1176 H1192 0.931 . S
C1177 C1176 1.370 . S
C1177 C1181 1.408 . S
C1178 C1176 1.363 . S
C1178 C1179 1.370 . S
C1178 C1182 1.524 . S
C1179 C1171 1.503 . S
C1179 C1178 1.370 . S
C1179 C1180 1.403 . S
C1180 C1179 1.403 . S
C1180 C1181 1.404 . S
C1180 C1183 1.539 . S
C1181 C1177 1.408 . S
C1181 C1180 1.404 . S
C1181 H1193 0.930 . S
C1182 C1178 1.524 . S
C1182 H1194 0.956 . S
C1182 H1195 0.961 . S
C1182 H1196 0.961 . S
C1183 C1180 1.539 . S
C1183 H1197 0.958 . S
C1183 H1198 0.961 . S
C1183 H1199 0.960 . S
H1184 C1168 0.931 . S
H1185 C1173 0.929 . S
H1186 C1174 0.960 . S
H1187 C1174 0.962 . S
H1188 C1174 0.960 . S
H1189 C1175 0.961 . S
H1190 C1175 0.961 . S
H1191 C1175 0.961 . S
H1192 C1176 0.931 . S
H1193 C1181 0.930 . S
H1194 C1182 0.956 . S
H1195 C1182 0.961 . S
H1196 C1182 0.961 . S
H1197 C1183 0.958 . S
H1198 C1183 0.961 . S
H1199 C1183 0.960 . S
C1200 C1201 1.391 . S
C1200 C1202 1.394 . S
C1200 H1216 0.931 . S
C1201 C1200 1.391 . S
C1201 C1205 1.376 . S
C1202 C1200 1.394 . S
C1202 C1203 1.369 . S
C1202 C1206 1.531 . S
C1203 C1202 1.369 . S
C1203 C1204 1.410 . S
C1203 C1211 1.503 . S
C1204 C1203 1.410 . S
C1204 C1205 1.392 . S
C1204 C1207 1.511 . S
C1205 C1201 1.376 . S
C1205 C1204 1.392 . S
C1205 H1217 0.929 . S
C1206 C1202 1.531 . S
C1206 H1218 0.960 . S
C1206 H1219 0.962 . S
C1206 H1220 0.960 . S
C1207 C1204 1.511 . S
C1207 H1221 0.961 . S
C1207 H1222 0.961 . S
C1207 H1223 0.961 . S
C1208 C1209 1.370 . S
C1208 C1210 1.363 . S
C1208 H1224 0.931 . S
C1209 C1208 1.370 . S
C1209 C1213 1.408 . S
C1210 C1208 1.363 . S
C1210 C1211 1.370 . S
C1210 C1214 1.524 . S
C1211 C1203 1.503 . S
C1211 C1210 1.370 . S
C1211 C1212 1.403 . S
C1212 C1211 1.403 . S
C1212 C1213 1.404 . S
C1212 C1215 1.539 . S
C1213 C1209 1.408 . S
C1213 C1212 1.404 . S
C1213 H1225 0.930 . S
C1214 C1210 1.524 . S
C1214 H1226 0.956 . S
C1214 H1227 0.961 . S
C1214 H1228 0.961 . S
C1215 C1212 1.539 . S
C1215 H1229 0.958 . S
C1215 H1230 0.961 . S
C1215 H1231 0.960 . S
H1216 C1200 0.931 . S
H1217 C1205 0.929 . S
H1218 C1206 0.960 . S
H1219 C1206 0.962 . S
H1220 C1206 0.960 . S
H1221 C1207 0.961 . S
H1222 C1207 0.961 . S
H1223 C1207 0.961 . S
H1224 C1208 0.931 . S
H1225 C1213 0.930 . S
H1226 C1214 0.956 . S
H1227 C1214 0.961 . S
H1228 C1214 0.961 . S
H1229 C1215 0.958 . S
H1230 C1215 0.961 . S
H1231 C1215 0.960 . S
C1232 C1233 1.391 . S
C1232 C1234 1.394 . S
C1232 H1248 0.931 . S
C1233 C1232 1.391 . S
C1233 C1237 1.376 . S
C1234 C1232 1.394 . S
C1234 C1235 1.369 . S
C1234 C1238 1.531 . S
C1235 C1234 1.369 . S
C1235 C1236 1.410 . S
C1235 C1243 1.503 . S
C1236 C1235 1.410 . S
C1236 C1237 1.392 . S
C1236 C1239 1.511 . S
C1237 C1233 1.376 . S
C1237 C1236 1.392 . S
C1237 H1249 0.929 . S
C1238 C1234 1.531 . S
C1238 H1250 0.960 . S
C1238 H1251 0.962 . S
C1238 H1252 0.960 . S
C1239 C1236 1.511 . S
C1239 H1253 0.961 . S
C1239 H1254 0.961 . S
C1239 H1255 0.961 . S
C1240 C1241 1.370 . S
C1240 C1242 1.363 . S
C1240 H1256 0.903 1_545 S
C1241 C1240 1.370 . S
C1241 C1245 1.408 . S
C1242 C1240 1.363 . S
C1242 C1243 1.370 . S
C1242 C1246 1.524 . S
C1243 C1235 1.503 . S
C1243 C1242 1.370 . S
C1243 C1244 1.403 . S
C1244 C1243 1.403 . S
C1244 C1245 1.404 . S
C1244 C1247 1.539 . S
C1245 C1241 1.408 . S
C1245 C1244 1.404 . S
C1245 H1257 0.930 . S
C1246 C1242 1.524 . S
C1246 H1258 0.956 . S
C1246 H1259 0.961 . S
C1246 H1260 0.961 1_545 S
C1247 C1244 1.539 . S
C1247 H1261 0.958 . S
C1247 H1262 0.961 . S
C1247 H1263 0.960 . S
H1248 C1232 0.931 . S
H1249 C1237 0.929 . S
H1250 C1238 0.960 . S
H1251 C1238 0.962 . S
H1252 C1238 0.960 . S
H1253 C1239 0.961 . S
H1254 C1239 0.961 . S
H1255 C1239 0.961 . S
H1256 C1240 0.903 1_565 S
H1257 C1245 0.930 . S
H1258 C1246 0.956 . S
H1259 C1246 0.961 . S
H1260 C1246 0.961 1_565 S
H1261 C1247 0.958 . S
H1262 C1247 0.961 . S
H1263 C1247 0.960 . S
C1264 C1265 1.391 . S
C1264 C1266 1.394 . S
C1264 H1280 0.931 . S
C1265 C1264 1.391 . S
C1265 C1269 1.376 . S
C1266 C1264 1.394 . S
C1266 C1267 1.369 . S
C1266 C1270 1.531 . S
C1267 C1266 1.369 . S
C1267 C1268 1.410 . S
C1267 C1275 1.503 . S
C1268 C1267 1.410 . S
C1268 C1269 1.392 . S
C1268 C1271 1.511 . S
C1269 C1265 1.376 . S
C1269 C1268 1.392 . S
C1269 H1281 0.929 . S
C1270 C1266 1.531 . S
C1270 H1282 0.960 . S
C1270 H1283 0.962 . S
C1270 H1284 0.960 . S
C1271 C1268 1.511 . S
C1271 H1285 0.961 . S
C1271 H1286 0.961 . S
C1271 H1287 0.961 . S
C1272 C1273 1.370 . S
C1272 C1274 1.363 . S
C1272 H1288 0.931 . S
C1273 C1272 1.370 . S
C1273 C1277 1.408 . S
C1274 C1272 1.363 . S
C1274 C1275 1.370 . S
C1274 C1278 1.524 . S
C1275 C1267 1.503 . S
C1275 C1274 1.370 . S
C1275 C1276 1.403 . S
C1276 C1275 1.403 . S
C1276 C1277 1.404 . S
C1276 C1279 1.539 . S
C1277 C1273 1.408 . S
C1277 C1276 1.404 . S
C1277 H1289 0.930 . S
C1278 C1274 1.524 . S
C1278 H1290 0.956 . S
C1278 H1291 0.961 . S
C1278 H1292 0.961 . S
C1279 C1276 1.539 . S
C1279 H1293 0.958 1_545 S
C1279 H1294 0.961 . S
C1279 H1295 0.960 . S
H1280 C1264 0.931 . S
H1281 C1269 0.929 . S
H1282 C1270 0.960 . S
H1283 C1270 0.962 . S
H1284 C1270 0.960 . S
H1285 C1271 0.961 . S
H1286 C1271 0.961 . S
H1287 C1271 0.961 . S
H1288 C1272 0.931 . S
H1289 C1277 0.930 . S
H1290 C1278 0.956 . S
H1291 C1278 0.961 . S
H1292 C1278 0.961 . S
H1293 C1279 0.958 1_565 S
H1294 C1279 0.961 . S
H1295 C1279 0.960 . S
C1296 C1297 1.391 . S
C1296 C1298 1.394 . S
C1296 H1312 0.931 . S
C1297 C1296 1.391 . S
C1297 C1301 1.376 . S
C1298 C1296 1.394 . S
C1298 C1299 1.369 . S
C1298 C1302 1.531 . S
C1299 C1298 1.369 . S
C1299 C1300 1.410 . S
C1299 C1307 1.503 . S
C1300 C1299 1.410 . S
C1300 C1301 1.392 . S
C1300 C1303 1.511 . S
C1301 C1297 1.376 . S
C1301 C1300 1.392 . S
C1301 H1313 0.929 . S
C1302 C1298 1.531 . S
C1302 H1314 0.960 . S
C1302 H1315 0.962 . S
C1302 H1316 0.960 . S
C1303 C1300 1.511 . S
C1303 H1317 0.961 . S
C1303 H1318 0.961 . S
C1303 H1319 0.961 . S
C1304 C1305 1.370 . S
C1304 C1306 1.363 . S
C1304 H1320 0.931 1_565 S
C1305 C1304 1.370 . S
C1305 C1309 1.408 . S
C1306 C1304 1.363 . S
C1306 C1307 1.370 . S
C1306 C1310 1.524 . S
C1307 C1299 1.503 . S
C1307 C1306 1.370 . S
C1307 C1308 1.403 . S
C1308 C1307 1.403 . S
C1308 C1309 1.404 . S
C1308 C1311 1.539 . S
C1309 C1305 1.408 . S
C1309 C1308 1.404 . S
C1309 H1321 0.930 . S
C1310 C1306 1.524 . S
C1310 H1322 0.956 . S
C1310 H1323 0.961 . S
C1310 H1324 0.961 1_565 S
C1311 C1308 1.539 . S
C1311 H1325 0.958 . S
C1311 H1326 0.961 . S
C1311 H1327 0.960 . S
H1312 C1296 0.931 . S
H1313 C1301 0.929 . S
H1314 C1302 0.960 . S
H1315 C1302 0.962 . S
H1316 C1302 0.960 . S
H1317 C1303 0.961 . S
H1318 C1303 0.961 . S
H1319 C1303 0.961 . S
H1320 C1304 0.931 1_545 S
H1321 C1309 0.930 . S
H1322 C1310 0.956 . S
H1323 C1310 0.961 . S
H1324 C1310 0.961 1_545 S
H1325 C1311 0.958 . S
H1326 C1311 0.961 . S
H1327 C1311 0.960 . S
C1328 C1329 1.391 . S
C1328 C1330 1.394 . S
C1328 H1344 0.931 . S
C1329 C1328 1.391 . S
C1329 C1333 1.376 . S
C1330 C1328 1.394 . S
C1330 C1331 1.369 . S
C1330 C1334 1.531 . S
C1331 C1330 1.369 . S
C1331 C1332 1.410 . S
C1331 C1339 1.503 . S
C1332 C1331 1.410 . S
C1332 C1333 1.392 . S
C1332 C1335 1.511 . S
C1333 C1329 1.376 . S
C1333 C1332 1.392 . S
C1333 H1345 0.929 . S
C1334 C1330 1.531 . S
C1334 H1346 0.960 . S
C1334 H1347 0.962 . S
C1334 H1348 0.960 . S
C1335 C1332 1.511 . S
C1335 H1349 0.961 . S
C1335 H1350 0.961 . S
C1335 H1351 0.961 . S
C1336 C1337 1.370 . S
C1336 C1338 1.363 . S
C1336 H1352 0.931 . S
C1337 C1336 1.370 . S
C1337 C1341 1.408 . S
C1338 C1336 1.363 . S
C1338 C1339 1.370 . S
C1338 C1342 1.524 . S
C1339 C1331 1.503 . S
C1339 C1338 1.370 . S
C1339 C1340 1.403 . S
C1340 C1339 1.403 . S
C1340 C1341 1.404 . S
C1340 C1343 1.539 . S
C1341 C1337 1.408 . S
C1341 C1340 1.404 . S
C1341 H1353 0.930 . S
C1342 C1338 1.524 . S
C1342 H1354 0.956 . S
C1342 H1355 0.961 . S
C1342 H1356 0.961 . S
C1343 C1340 1.539 . S
C1343 H1357 0.958 . S
C1343 H1358 0.961 . S
C1343 H1359 0.960 . S
H1344 C1328 0.931 . S
H1345 C1333 0.929 . S
H1346 C1334 0.960 . S
H1347 C1334 0.962 . S
H1348 C1334 0.960 . S
H1349 C1335 0.961 . S
H1350 C1335 0.961 . S
H1351 C1335 0.961 . S
H1352 C1336 0.931 . S
H1353 C1341 0.930 . S
H1354 C1342 0.956 . S
H1355 C1342 0.961 . S
H1356 C1342 0.961 . S
H1357 C1343 0.958 . S
H1358 C1343 0.961 . S
H1359 C1343 0.960 . S
C1360 C1361 1.391 . S
C1360 C1362 1.394 . S
C1360 H1376 0.931 . S
C1361 C1360 1.391 . S
C1361 C1365 1.376 . S
C1362 C1360 1.394 . S
C1362 C1363 1.369 . S
C1362 C1366 1.531 . S
C1363 C1362 1.369 . S
C1363 C1364 1.410 . S
C1363 C1371 1.503 . S
C1364 C1363 1.410 . S
C1364 C1365 1.392 . S
C1364 C1367 1.511 . S
C1365 C1361 1.376 . S
C1365 C1364 1.392 . S
C1365 H1377 0.929 . S
C1366 C1362 1.531 . S
C1366 H1378 0.960 . S
C1366 H1379 0.962 . S
C1366 H1380 0.960 . S
C1367 C1364 1.511 . S
C1367 H1381 0.961 1_554 S
C1367 H1382 0.961 . S
C1367 H1383 0.961 . S
C1368 C1369 1.370 . S
C1368 C1370 1.363 . S
C1368 H1384 0.931 . S
C1369 C1368 1.370 . S
C1369 C1373 1.408 . S
C1370 C1368 1.363 . S
C1370 C1371 1.370 . S
C1370 C1374 1.524 . S
C1371 C1363 1.503 . S
C1371 C1370 1.370 . S
C1371 C1372 1.403 . S
C1372 C1371 1.403 . S
C1372 C1373 1.404 . S
C1372 C1375 1.539 . S
C1373 C1369 1.408 . S
C1373 C1372 1.404 . S
C1373 H1385 0.930 . S
C1374 C1370 1.524 . S
C1374 H1386 0.956 . S
C1374 H1387 0.961 . S
C1374 H1388 0.961 . S
C1375 C1372 1.539 . S
C1375 H1389 0.958 . S
C1375 H1390 0.961 . S
C1375 H1391 0.960 . S
H1376 C1360 0.931 . S
H1377 C1365 0.929 . S
H1378 C1366 0.960 . S
H1379 C1366 0.962 . S
H1380 C1366 0.960 . S
H1381 C1367 0.961 1_556 S
H1382 C1367 0.961 . S
H1383 C1367 0.961 . S
H1384 C1368 0.931 . S
H1385 C1373 0.930 . S
H1386 C1374 0.956 . S
H1387 C1374 0.961 . S
H1388 C1374 0.961 . S
H1389 C1375 0.958 . S
H1390 C1375 0.961 . S
H1391 C1375 0.960 . S
C1392 C1393 1.391 . S
C1392 C1394 1.394 . S
C1392 H1408 0.931 . S
C1393 C1392 1.391 . S
C1393 C1397 1.376 . S
C1394 C1392 1.394 . S
C1394 C1395 1.369 . S
C1394 C1398 1.531 . S
C1395 C1394 1.369 . S
C1395 C1396 1.410 . S
C1395 C1403 1.503 . S
C1396 C1395 1.410 . S
C1396 C1397 1.392 . S
C1396 C1399 1.511 . S
C1397 C1393 1.376 . S
C1397 C1396 1.392 . S
C1397 H1409 0.929 . S
C1398 C1394 1.531 . S
C1398 H1410 0.960 . S
C1398 H1411 0.964 . S
C1398 H1412 0.958 1_556 S
C1399 C1396 1.511 . S
C1399 H1413 0.961 . S
C1399 H1414 0.961 . S
C1399 H1415 0.961 . S
C1400 C1401 1.370 . S
C1400 C1402 1.363 . S
C1400 H1416 0.931 . S
C1401 C1400 1.370 . S
C1401 C1405 1.408 . S
C1402 C1400 1.363 . S
C1402 C1403 1.370 . S
C1402 C1406 1.524 . S
C1403 C1395 1.503 . S
C1403 C1402 1.370 . S
C1403 C1404 1.403 . S
C1404 C1403 1.403 . S
C1404 C1405 1.404 . S
C1404 C1407 1.539 . S
C1405 C1401 1.408 . S
C1405 C1404 1.404 . S
C1405 H1417 0.930 . S
C1406 C1402 1.524 . S
C1406 H1418 0.956 . S
C1406 H1419 0.961 . S
C1406 H1420 0.961 . S
C1407 C1404 1.539 . S
C1407 H1421 0.958 . S
C1407 H1422 0.961 . S
C1407 H1423 0.960 . S
H1408 C1392 0.931 . S
H1409 C1397 0.929 . S
H1410 C1398 0.960 . S
H1411 C1398 0.964 . S
H1412 C1398 0.958 1_554 S
H1413 C1399 0.961 . S
H1414 C1399 0.961 . S
H1415 C1399 0.961 . S
H1416 C1400 0.931 . S
H1417 C1405 0.930 . S
H1418 C1406 0.956 . S
H1419 C1406 0.961 . S
H1420 C1406 0.961 . S
H1421 C1407 0.958 . S
H1422 C1407 0.961 . S
H1423 C1407 0.960 . S
C1424 C1425 1.391 . S
C1424 C1426 1.394 . S
C1424 H1440 0.931 . S
C1425 C1424 1.391 . S
C1425 C1429 1.376 . S
C1426 C1424 1.394 . S
C1426 C1427 1.369 . S
C1426 C1430 1.531 . S
C1427 C1426 1.369 . S
C1427 C1428 1.410 . S
C1427 C1435 1.503 . S
C1428 C1427 1.410 . S
C1428 C1429 1.392 . S
C1428 C1431 1.511 . S
C1429 C1425 1.376 . S
C1429 C1428 1.392 . S
C1429 H1441 0.929 . S
C1430 C1426 1.531 . S
C1430 H1442 0.960 . S
C1430 H1443 0.962 . S
C1430 H1444 0.960 . S
C1431 C1428 1.511 . S
C1431 H1445 0.961 . S
C1431 H1446 0.961 . S
C1431 H1447 0.961 . S
C1432 C1433 1.370 . S
C1432 C1434 1.363 . S
C1432 H1448 0.931 . S
C1433 C1432 1.370 . S
C1433 C1437 1.408 . S
C1434 C1432 1.363 . S
C1434 C1435 1.370 . S
C1434 C1438 1.524 . S
C1435 C1427 1.503 . S
C1435 C1434 1.370 . S
C1435 C1436 1.403 . S
C1436 C1435 1.403 . S
C1436 C1437 1.404 . S
C1436 C1439 1.539 . S
C1437 C1433 1.408 . S
C1437 C1436 1.404 . S
C1437 H1449 0.930 . S
C1438 C1434 1.524 . S
C1438 H1450 0.956 . S
C1438 H1451 0.961 . S
C1438 H1452 0.961 . S
C1439 C1436 1.539 . S
C1439 H1453 0.958 . S
C1439 H1454 0.961 . S
C1439 H1455 0.960 . S
H1440 C1424 0.931 . S
H1441 C1429 0.929 . S
H1442 C1430 0.960 . S
H1443 C1430 0.962 . S
H1444 C1430 0.960 . S
H1445 C1431 0.961 . S
H1446 C1431 0.961 . S
H1447 C1431 0.961 . S
H1448 C1432 0.931 . S
H1449 C1437 0.930 . S
H1450 C1438 0.956 . S
H1451 C1438 0.961 . S
H1452 C1438 0.961 . S
H1453 C1439 0.958 . S
H1454 C1439 0.961 . S
H1455 C1439 0.960 . S
C1456 C1457 1.391 . S
C1456 C1458 1.394 . S
C1456 H1472 0.931 . S
C1457 C1456 1.391 . S
C1457 C1461 1.376 . S
C1458 C1456 1.394 . S
C1458 C1459 1.369 . S
C1458 C1462 1.531 . S
C1459 C1458 1.369 . S
C1459 C1460 1.410 . S
C1459 C1467 1.503 . S
C1460 C1459 1.410 . S
C1460 C1461 1.392 . S
C1460 C1463 1.511 . S
C1461 C1457 1.376 . S
C1461 C1460 1.392 . S
C1461 H1473 0.929 . S
C1462 C1458 1.531 . S
C1462 H1474 0.960 . S
C1462 H1475 0.962 . S
C1462 H1476 0.960 . S
C1463 C1460 1.511 . S
C1463 H1477 0.961 . S
C1463 H1478 0.961 . S
C1463 H1479 0.961 . S
C1464 C1465 1.370 . S
C1464 C1466 1.363 . S
C1464 H1480 0.931 . S
C1465 C1464 1.370 . S
C1465 C1469 1.408 . S
C1466 C1464 1.363 . S
C1466 C1467 1.370 . S
C1466 C1470 1.524 . S
C1467 C1459 1.503 . S
C1467 C1466 1.370 . S
C1467 C1468 1.403 . S
C1468 C1467 1.403 . S
C1468 C1469 1.404 . S
C1468 C1471 1.539 . S
C1469 C1465 1.408 . S
C1469 C1468 1.404 . S
C1469 H1481 0.930 . S
C1470 C1466 1.524 . S
C1470 H1482 0.956 . S
C1470 H1483 0.961 . S
C1470 H1484 0.961 . S
C1471 C1468 1.539 . S
C1471 H1485 0.958 . S
C1471 H1486 0.961 . S
C1471 H1487 0.960 . S
H1472 C1456 0.931 . S
H1473 C1461 0.929 . S
H1474 C1462 0.960 . S
H1475 C1462 0.962 . S
H1476 C1462 0.960 . S
H1477 C1463 0.961 . S
H1478 C1463 0.961 . S
H1479 C1463 0.961 . S
H1480 C1464 0.931 . S
H1481 C1469 0.930 . S
H1482 C1470 0.956 . S
H1483 C1470 0.961 . S
H1484 C1470 0.961 . S
H1485 C1471 0.958 . S
H1486 C1471 0.961 . S
H1487 C1471 0.960 . S
C1488 C1489 1.391 . S
C1488 C1490 1.394 . S
C1488 H1504 0.931 . S
C1489 C1488 1.391 . S
C1489 C1493 1.376 . S
C1490 C1488 1.394 . S
C1490 C1491 1.369 . S
C1490 C1494 1.531 . S
C1491 C1490 1.369 . S
C1491 C1492 1.410 . S
C1491 C1499 1.503 . S
C1492 C1491 1.410 . S
C1492 C1493 1.392 . S
C1492 C1495 1.511 . S
C1493 C1489 1.376 . S
C1493 C1492 1.392 . S
C1493 H1505 0.929 . S
C1494 C1490 1.531 . S
C1494 H1506 0.960 . S
C1494 H1507 0.962 . S
C1494 H1508 0.960 . S
C1495 C1492 1.511 . S
C1495 H1509 0.961 . S
C1495 H1510 0.961 . S
C1495 H1511 0.961 . S
C1496 C1497 1.370 . S
C1496 C1498 1.363 . S
C1496 H1512 0.931 . S
C1497 C1496 1.370 . S
C1497 C1501 1.408 . S
C1498 C1496 1.363 . S
C1498 C1499 1.370 . S
C1498 C1502 1.524 . S
C1499 C1491 1.503 . S
C1499 C1498 1.370 . S
C1499 C1500 1.403 . S
C1500 C1499 1.403 . S
C1500 C1501 1.404 . S
C1500 C1503 1.539 . S
C1501 C1497 1.408 . S
C1501 C1500 1.404 . S
C1501 H1513 0.930 . S
C1502 C1498 1.524 . S
C1502 H1514 0.956 . S
C1502 H1515 0.961 . S
C1502 H1516 0.961 . S
C1503 C1500 1.539 . S
C1503 H1517 0.958 . S
C1503 H1518 0.961 . S
C1503 H1519 0.960 . S
H1504 C1488 0.931 . S
H1505 C1493 0.929 . S
H1506 C1494 0.960 . S
H1507 C1494 0.962 . S
H1508 C1494 0.960 . S
H1509 C1495 0.961 . S
H1510 C1495 0.961 . S
H1511 C1495 0.961 . S
H1512 C1496 0.931 . S
H1513 C1501 0.930 . S
H1514 C1502 0.956 . S
H1515 C1502 0.961 . S
H1516 C1502 0.961 . S
H1517 C1503 0.958 . S
H1518 C1503 0.961 . S
H1519 C1503 0.960 . S
C1520 C1521 1.391 . S
C1520 C1522 1.394 . S
C1520 H1536 0.931 . S
C1521 C1520 1.391 . S
C1521 C1525 1.376 . S
C1522 C1520 1.394 . S
C1522 C1523 1.369 . S
C1522 C1526 1.531 . S
C1523 C1522 1.369 . S
C1523 C1524 1.410 . S
C1523 C1531 1.503 . S
C1524 C1523 1.410 . S
C1524 C1525 1.392 . S
C1524 C1527 1.511 . S
C1525 C1521 1.376 . S
C1525 C1524 1.392 . S
C1525 H1537 0.929 . S
C1526 C1522 1.531 . S
C1526 H1538 0.960 . S
C1526 H1539 0.962 . S
C1526 H1540 0.960 . S
C1527 C1524 1.511 . S
C1527 H1541 0.961 1_655 S
C1527 H1542 0.961 . S
C1527 H1543 0.961 . S
C1528 C1529 1.370 . S
C1528 C1530 1.363 . S
C1528 H1544 0.931 . S
C1529 C1528 1.370 . S
C1529 C1533 1.408 . S
C1530 C1528 1.363 . S
C1530 C1531 1.370 . S
C1530 C1534 1.524 . S
C1531 C1523 1.503 . S
C1531 C1530 1.370 . S
C1531 C1532 1.403 . S
C1532 C1531 1.403 . S
C1532 C1533 1.404 . S
C1532 C1535 1.539 . S
C1533 C1529 1.408 . S
C1533 C1532 1.404 . S
C1533 H1545 0.930 . S
C1534 C1530 1.524 . S
C1534 H1546 0.956 . S
C1534 H1547 0.961 . S
C1534 H1548 0.961 . S
C1535 C1532 1.539 . S
C1535 H1549 0.958 . S
C1535 H1550 0.961 . S
C1535 H1551 0.960 . S
H1536 C1520 0.931 . S
H1537 C1525 0.929 . S
H1538 C1526 0.960 . S
H1539 C1526 0.962 . S
H1540 C1526 0.960 . S
H1541 C1527 0.961 1_455 S
H1542 C1527 0.961 . S
H1543 C1527 0.961 . S
H1544 C1528 0.931 . S
H1545 C1533 0.930 . S
H1546 C1534 0.956 . S
H1547 C1534 0.961 . S
H1548 C1534 0.961 . S
H1549 C1535 0.958 . S
H1550 C1535 0.961 . S
H1551 C1535 0.960 . S
C1552 C1553 1.391 . S
C1552 C1554 1.394 . S
C1552 H1568 0.931 . S
C1553 C1552 1.391 . S
C1553 C1557 1.376 . S
C1554 C1552 1.394 . S
C1554 C1555 1.369 . S
C1554 C1558 1.531 . S
C1555 C1554 1.369 . S
C1555 C1556 1.410 . S
C1555 C1563 1.503 . S
C1556 C1555 1.410 . S
C1556 C1557 1.392 . S
C1556 C1559 1.511 . S
C1557 C1553 1.376 . S
C1557 C1556 1.392 . S
C1557 H1569 0.929 . S
C1558 C1554 1.531 . S
C1558 H1570 0.960 . S
C1558 H1571 0.962 . S
C1558 H1572 0.960 . S
C1559 C1556 1.511 . S
C1559 H1573 0.961 . S
C1559 H1574 0.961 . S
C1559 H1575 0.961 . S
C1560 C1561 1.370 . S
C1560 C1562 1.363 . S
C1560 H1576 0.931 . S
C1561 C1560 1.370 . S
C1561 C1565 1.408 . S
C1562 C1560 1.363 . S
C1562 C1563 1.370 . S
C1562 C1566 1.524 . S
C1563 C1555 1.503 . S
C1563 C1562 1.370 . S
C1563 C1564 1.403 . S
C1564 C1563 1.403 . S
C1564 C1565 1.404 . S
C1564 C1567 1.539 . S
C1565 C1561 1.408 . S
C1565 C1564 1.404 . S
C1565 H1577 0.930 . S
C1566 C1562 1.524 . S
C1566 H1578 0.956 . S
C1566 H1579 0.961 . S
C1566 H1580 0.961 . S
C1567 C1564 1.539 . S
C1567 H1581 0.958 . S
C1567 H1582 0.961 . S
C1567 H1583 0.960 . S
H1568 C1552 0.931 . S
H1569 C1557 0.929 . S
H1570 C1558 0.960 . S
H1571 C1558 0.962 . S
H1572 C1558 0.960 . S
H1573 C1559 0.961 . S
H1574 C1559 0.961 . S
H1575 C1559 0.961 . S
H1576 C1560 0.931 . S
H1577 C1565 0.930 . S
H1578 C1566 0.956 . S
H1579 C1566 0.961 . S
H1580 C1566 0.961 . S
H1581 C1567 0.958 . S
H1582 C1567 0.961 . S
H1583 C1567 0.960 . S
C1584 C1585 1.391 . S
C1584 C1586 1.394 . S
C1584 H1600 0.931 . S
C1585 C1584 1.391 . S
C1585 C1589 1.376 . S
C1586 C1584 1.394 . S
C1586 C1587 1.369 . S
C1586 C1590 1.531 . S
C1587 C1586 1.369 . S
C1587 C1588 1.410 . S
C1587 C1595 1.503 . S
C1588 C1587 1.410 . S
C1588 C1589 1.392 . S
C1588 C1591 1.511 . S
C1589 C1585 1.376 . S
C1589 C1588 1.392 . S
C1589 H1601 0.929 . S
C1590 C1586 1.531 . S
C1590 H1602 0.960 . S
C1590 H1603 0.962 . S
C1590 H1604 0.960 . S
C1591 C1588 1.511 . S
C1591 H1605 0.961 . S
C1591 H1606 0.961 . S
C1591 H1607 0.961 . S
C1592 C1593 1.370 . S
C1592 C1594 1.363 . S
C1592 H1608 0.931 . S
C1593 C1592 1.370 . S
C1593 C1597 1.408 . S
C1594 C1592 1.363 . S
C1594 C1595 1.370 . S
C1594 C1598 1.524 . S
C1595 C1587 1.503 . S
C1595 C1594 1.370 . S
C1595 C1596 1.403 . S
C1596 C1595 1.403 . S
C1596 C1597 1.404 . S
C1596 C1599 1.539 . S
C1597 C1593 1.408 . S
C1597 C1596 1.404 . S
C1597 H1609 0.930 . S
C1598 C1594 1.524 . S
C1598 H1610 0.956 . S
C1598 H1611 0.961 . S
C1598 H1612 0.961 . S
C1599 C1596 1.539 . S
C1599 H1613 0.958 . S
C1599 H1614 0.961 . S
C1599 H1615 0.960 . S
H1600 C1584 0.931 . S
H1601 C1589 0.929 . S
H1602 C1590 0.960 . S
H1603 C1590 0.962 . S
H1604 C1590 0.960 . S
H1605 C1591 0.961 . S
H1606 C1591 0.961 . S
H1607 C1591 0.961 . S
H1608 C1592 0.931 . S
H1609 C1597 0.930 . S
H1610 C1598 0.956 . S
H1611 C1598 0.961 . S
H1612 C1598 0.961 . S
H1613 C1599 0.958 . S
H1614 C1599 0.961 . S
H1615 C1599 0.960 . S
C1616 C1617 1.391 . S
C1616 C1618 1.394 . S
C1616 H1632 0.931 . S
C1617 C1616 1.391 . S
C1617 C1621 1.376 . S
C1618 C1616 1.394 . S
C1618 C1619 1.369 . S
C1618 C1622 1.531 . S
C1619 C1618 1.369 . S
C1619 C1620 1.410 . S
C1619 C1627 1.503 . S
C1620 C1619 1.410 . S
C1620 C1621 1.392 . S
C1620 C1623 1.511 . S
C1621 C1617 1.376 . S
C1621 C1620 1.392 . S
C1621 H1633 0.929 . S
C1622 C1618 1.531 . S
C1622 H1634 0.960 . S
C1622 H1635 0.962 . S
C1622 H1636 0.960 . S
C1623 C1620 1.511 . S
C1623 H1637 0.961 . S
C1623 H1638 0.961 . S
C1623 H1639 0.961 . S
C1624 C1625 1.370 . S
C1624 C1626 1.363 . S
C1624 H1640 0.931 . S
C1625 C1624 1.370 . S
C1625 C1629 1.408 . S
C1626 C1624 1.363 . S
C1626 C1627 1.370 . S
C1626 C1630 1.524 . S
C1627 C1619 1.503 . S
C1627 C1626 1.370 . S
C1627 C1628 1.403 . S
C1628 C1627 1.403 . S
C1628 C1629 1.404 . S
C1628 C1631 1.539 . S
C1629 C1625 1.408 . S
C1629 C1628 1.404 . S
C1629 H1641 0.930 . S
C1630 C1626 1.524 . S
C1630 H1642 0.956 . S
C1630 H1643 0.961 . S
C1630 H1644 0.961 . S
C1631 C1628 1.539 . S
C1631 H1645 0.958 . S
C1631 H1646 0.961 . S
C1631 H1647 0.960 . S
H1632 C1616 0.931 . S
H1633 C1621 0.929 . S
H1634 C1622 0.960 . S
H1635 C1622 0.962 . S
H1636 C1622 0.960 . S
H1637 C1623 0.961 . S
H1638 C1623 0.961 . S
H1639 C1623 0.961 . S
H1640 C1624 0.931 . S
H1641 C1629 0.930 . S
H1642 C1630 0.956 . S
H1643 C1630 0.961 . S
H1644 C1630 0.961 . S
H1645 C1631 0.958 . S
H1646 C1631 0.961 . S
H1647 C1631 0.960 . S
C1648 C1649 1.391 . S
C1648 C1650 1.394 . S
C1648 H1664 0.931 . S
C1649 C1648 1.391 . S
C1649 C1653 1.376 . S
C1650 C1648 1.394 . S
C1650 C1651 1.369 . S
C1650 C1654 1.531 . S
C1651 C1650 1.369 . S
C1651 C1652 1.410 . S
C1651 C1659 1.503 . S
C1652 C1651 1.410 . S
C1652 C1653 1.392 . S
C1652 C1655 1.511 . S
C1653 C1649 1.376 . S
C1653 C1652 1.392 . S
C1653 H1665 0.929 . S
C1654 C1650 1.531 . S
C1654 H1666 0.960 . S
C1654 H1667 0.962 . S
C1654 H1668 0.960 . S
C1655 C1652 1.511 . S
C1655 H1669 0.961 . S
C1655 H1670 0.961 . S
C1655 H1671 0.961 . S
C1656 C1657 1.370 . S
C1656 C1658 1.363 . S
C1656 H1672 0.931 1_655 S
C1657 C1656 1.370 . S
C1657 C1661 1.408 . S
C1658 C1656 1.363 . S
C1658 C1659 1.370 . S
C1658 C1662 1.524 . S
C1659 C1651 1.503 . S
C1659 C1658 1.370 . S
C1659 C1660 1.403 . S
C1660 C1659 1.403 . S
C1660 C1661 1.404 . S
C1660 C1663 1.539 . S
C1661 C1657 1.408 . S
C1661 C1660 1.404 . S
C1661 H1673 0.930 . S
C1662 C1658 1.524 . S
C1662 H1674 0.956 . S
C1662 H1675 0.961 . S
C1662 H1676 0.961 1_655 S
C1663 C1660 1.539 . S
C1663 H1677 0.958 . S
C1663 H1678 0.961 . S
C1663 H1679 0.960 . S
H1664 C1648 0.931 . S
H1665 C1653 0.929 . S
H1666 C1654 0.960 . S
H1667 C1654 0.962 . S
H1668 C1654 0.960 . S
H1669 C1655 0.961 . S
H1670 C1655 0.961 . S
H1671 C1655 0.961 . S
H1672 C1656 0.931 1_455 S
H1673 C1661 0.930 . S
H1674 C1662 0.956 . S
H1675 C1662 0.961 . S
H1676 C1662 0.961 1_455 S
H1677 C1663 0.958 . S
H1678 C1663 0.961 . S
H1679 C1663 0.960 . S
C1680 C1681 1.391 . S
C1680 C1682 1.394 . S
C1680 H1696 0.931 . S
C1681 C1680 1.391 . S
C1681 C1685 1.376 . S
C1682 C1680 1.394 . S
C1682 C1683 1.369 . S
C1682 C1686 1.531 . S
C1683 C1682 1.369 . S
C1683 C1684 1.410 . S
C1683 C1691 1.503 . S
C1684 C1683 1.410 . S
C1684 C1685 1.392 . S
C1684 C1687 1.511 . S
C1685 C1681 1.376 . S
C1685 C1684 1.392 . S
C1685 H1697 0.929 . S
C1686 C1682 1.531 . S
C1686 H1698 0.960 . S
C1686 H1699 0.962 . S
C1686 H1700 0.960 . S
C1687 C1684 1.511 . S
C1687 H1701 0.961 . S
C1687 H1702 0.961 . S
C1687 H1703 0.961 . S
C1688 C1689 1.370 . S
C1688 C1690 1.363 . S
C1688 H1704 0.931 . S
C1689 C1688 1.370 . S
C1689 C1693 1.408 . S
C1690 C1688 1.363 . S
C1690 C1691 1.370 . S
C1690 C1694 1.524 . S
C1691 C1683 1.503 . S
C1691 C1690 1.370 . S
C1691 C1692 1.403 . S
C1692 C1691 1.403 . S
C1692 C1693 1.404 . S
C1692 C1695 1.539 . S
C1693 C1689 1.408 . S
C1693 C1692 1.404 . S
C1693 H1705 0.930 . S
C1694 C1690 1.524 . S
C1694 H1706 0.956 . S
C1694 H1707 0.961 . S
C1694 H1708 0.961 . S
C1695 C1692 1.539 . S
C1695 H1709 0.958 . S
C1695 H1710 0.961 . S
C1695 H1711 0.960 . S
H1696 C1680 0.931 . S
H1697 C1685 0.929 . S
H1698 C1686 0.960 . S
H1699 C1686 0.962 . S
H1700 C1686 0.960 . S
H1701 C1687 0.961 . S
H1702 C1687 0.961 . S
H1703 C1687 0.961 . S
H1704 C1688 0.931 . S
H1705 C1693 0.930 . S
H1706 C1694 0.956 . S
H1707 C1694 0.961 . S
H1708 C1694 0.961 . S
H1709 C1695 0.958 . S
H1710 C1695 0.961 . S
H1711 C1695 0.960 . S
C1712 C1713 1.391 . S
C1712 C1714 1.394 . S
C1712 H1728 0.931 . S
C1713 C1712 1.391 . S
C1713 C1717 1.376 . S
C1714 C1712 1.394 . S
C1714 C1715 1.369 . S
C1714 C1718 1.531 . S
C1715 C1714 1.369 . S
C1715 C1716 1.410 . S
C1715 C1723 1.503 . S
C1716 C1715 1.410 . S
C1716 C1717 1.392 . S
C1716 C1719 1.511 . S
C1717 C1713 1.376 . S
C1717 C1716 1.392 . S
C1717 H1729 0.929 . S
C1718 C1714 1.531 . S
C1718 H1730 0.960 . S
C1718 H1731 0.962 . S
C1718 H1732 0.960 . S
C1719 C1716 1.511 . S
C1719 H1733 0.961 . S
C1719 H1734 0.961 . S
C1719 H1735 0.961 . S
C1720 C1721 1.370 . S
C1720 C1722 1.363 . S
C1720 H1736 0.931 . S
C1721 C1720 1.370 . S
C1721 C1725 1.408 . S
C1722 C1720 1.363 . S
C1722 C1723 1.370 . S
C1722 C1726 1.524 . S
C1723 C1715 1.503 . S
C1723 C1722 1.370 . S
C1723 C1724 1.403 . S
C1724 C1723 1.403 . S
C1724 C1725 1.404 . S
C1724 C1727 1.539 . S
C1725 C1721 1.408 . S
C1725 C1724 1.404 . S
C1725 H1737 0.930 . S
C1726 C1722 1.524 . S
C1726 H1738 0.956 . S
C1726 H1739 0.961 . S
C1726 H1740 0.961 . S
C1727 C1724 1.539 . S
C1727 H1741 0.958 . S
C1727 H1742 0.961 . S
C1727 H1743 0.960 . S
H1728 C1712 0.931 . S
H1729 C1717 0.929 . S
H1730 C1718 0.960 . S
H1731 C1718 0.962 . S
H1732 C1718 0.960 . S
H1733 C1719 0.961 . S
H1734 C1719 0.961 . S
H1735 C1719 0.961 . S
H1736 C1720 0.931 . S
H1737 C1725 0.930 . S
H1738 C1726 0.956 . S
H1739 C1726 0.961 . S
H1740 C1726 0.961 . S
H1741 C1727 0.958 . S
H1742 C1727 0.961 . S
H1743 C1727 0.960 . S
C1744 C1745 1.391 . S
C1744 C1746 1.394 . S
C1744 H1760 0.931 . S
C1745 C1744 1.391 . S
C1745 C1749 1.376 . S
C1746 C1744 1.394 . S
C1746 C1747 1.369 . S
C1746 C1750 1.531 . S
C1747 C1746 1.369 . S
C1747 C1748 1.410 . S
C1747 C1755 1.503 . S
C1748 C1747 1.410 . S
C1748 C1749 1.392 . S
C1748 C1751 1.511 . S
C1749 C1745 1.376 . S
C1749 C1748 1.392 . S
C1749 H1761 0.929 . S
C1750 C1746 1.531 . S
C1750 H1762 0.960 . S
C1750 H1763 0.962 . S
C1750 H1764 0.960 . S
C1751 C1748 1.511 . S
C1751 H1765 0.961 . S
C1751 H1766 0.961 . S
C1751 H1767 0.961 . S
C1752 C1753 1.370 . S
C1752 C1754 1.363 . S
C1752 H1768 0.931 . S
C1753 C1752 1.370 . S
C1753 C1757 1.408 . S
C1754 C1752 1.363 . S
C1754 C1755 1.370 . S
C1754 C1758 1.524 . S
C1755 C1747 1.503 . S
C1755 C1754 1.370 . S
C1755 C1756 1.403 . S
C1756 C1755 1.403 . S
C1756 C1757 1.404 . S
C1756 C1759 1.539 . S
C1757 C1753 1.408 . S
C1757 C1756 1.404 . S
C1757 H1769 0.930 . S
C1758 C1754 1.524 . S
C1758 H1770 0.956 . S
C1758 H1771 0.961 . S
C1758 H1772 0.961 . S
C1759 C1756 1.539 . S
C1759 H1773 0.958 . S
C1759 H1774 0.961 . S
C1759 H1775 0.960 . S
H1760 C1744 0.931 . S
H1761 C1749 0.929 . S
H1762 C1750 0.960 . S
H1763 C1750 0.962 . S
H1764 C1750 0.960 . S
H1765 C1751 0.961 . S
H1766 C1751 0.961 . S
H1767 C1751 0.961 . S
H1768 C1752 0.931 . S
H1769 C1757 0.930 . S
H1770 C1758 0.956 . S
H1771 C1758 0.961 . S
H1772 C1758 0.961 . S
H1773 C1759 0.958 . S
H1774 C1759 0.961 . S
H1775 C1759 0.960 . S
C1776 C1777 1.391 . S
C1776 C1778 1.394 . S
C1776 H1792 0.931 . S
C1777 C1776 1.391 . S
C1777 C1781 1.376 . S
C1778 C1776 1.394 . S
C1778 C1779 1.369 . S
C1778 C1782 1.531 . S
C1779 C1778 1.369 . S
C1779 C1780 1.410 . S
C1779 C1787 1.503 . S
C1780 C1779 1.410 . S
C1780 C1781 1.392 . S
C1780 C1783 1.511 . S
C1781 C1777 1.376 . S
C1781 C1780 1.392 . S
C1781 H1793 0.929 . S
C1782 C1778 1.531 . S
C1782 H1794 0.960 . S
C1782 H1795 0.962 . S
C1782 H1796 0.960 . S
C1783 C1780 1.511 . S
C1783 H1797 0.961 . S
C1783 H1798 0.961 . S
C1783 H1799 0.961 . S
C1784 C1785 1.370 . S
C1784 C1786 1.363 . S
C1784 H1800 0.931 . S
C1785 C1784 1.370 . S
C1785 C1789 1.408 . S
C1786 C1784 1.363 . S
C1786 C1787 1.370 . S
C1786 C1790 1.524 . S
C1787 C1779 1.503 . S
C1787 C1786 1.370 . S
C1787 C1788 1.403 . S
C1788 C1787 1.403 . S
C1788 C1789 1.404 . S
C1788 C1791 1.539 . S
C1789 C1785 1.408 . S
C1789 C1788 1.404 . S
C1789 H1801 0.930 . S
C1790 C1786 1.524 . S
C1790 H1802 0.956 . S
C1790 H1803 0.961 . S
C1790 H1804 0.961 . S
C1791 C1788 1.539 . S
C1791 H1805 0.958 . S
C1791 H1806 0.961 . S
C1791 H1807 0.960 . S
H1792 C1776 0.931 . S
H1793 C1781 0.929 . S
H1794 C1782 0.960 . S
H1795 C1782 0.962 . S
H1796 C1782 0.960 . S
H1797 C1783 0.961 . S
H1798 C1783 0.961 . S
H1799 C1783 0.961 . S
H1800 C1784 0.931 . S
H1801 C1789 0.930 . S
H1802 C1790 0.956 . S
H1803 C1790 0.961 . S
H1804 C1790 0.961 . S
H1805 C1791 0.958 . S
H1806 C1791 0.961 . S
H1807 C1791 0.960 . S
C1808 C1809 1.391 . S
C1808 C1810 1.394 . S
C1808 H1824 0.931 . S
C1809 C1808 1.391 . S
C1809 C1813 1.376 . S
C1810 C1808 1.394 . S
C1810 C1811 1.369 . S
C1810 C1814 1.531 . S
C1811 C1810 1.369 . S
C1811 C1812 1.410 . S
C1811 C1819 1.503 . S
C1812 C1811 1.410 . S
C1812 C1813 1.392 . S
C1812 C1815 1.511 . S
C1813 C1809 1.376 . S
C1813 C1812 1.392 . S
C1813 H1825 0.929 . S
C1814 C1810 1.531 . S
C1814 H1826 0.960 . S
C1814 H1827 0.962 . S
C1814 H1828 0.960 . S
C1815 C1812 1.511 . S
C1815 H1829 0.961 . S
C1815 H1830 0.961 . S
C1815 H1831 0.961 . S
C1816 C1817 1.370 . S
C1816 C1818 1.363 . S
C1816 H1832 0.931 . S
C1817 C1816 1.370 . S
C1817 C1821 1.408 . S
C1818 C1816 1.363 . S
C1818 C1819 1.370 . S
C1818 C1822 1.524 . S
C1819 C1811 1.503 . S
C1819 C1818 1.370 . S
C1819 C1820 1.403 . S
C1820 C1819 1.403 . S
C1820 C1821 1.404 . S
C1820 C1823 1.539 . S
C1821 C1817 1.408 . S
C1821 C1820 1.404 . S
C1821 H1833 0.930 . S
C1822 C1818 1.524 . S
C1822 H1834 0.956 . S
C1822 H1835 0.961 . S
C1822 H1836 0.961 . S
C1823 C1820 1.539 . S
C1823 H1837 0.958 . S
C1823 H1838 0.961 . S
C1823 H1839 0.960 . S
H1824 C1808 0.931 . S
H1825 C1813 0.929 . S
H1826 C1814 0.960 . S
H1827 C1814 0.962 . S
H1828 C1814 0.960 . S
H1829 C1815 0.961 . S
H1830 C1815 0.961 . S
H1831 C1815 0.961 . S
H1832 C1816 0.931 . S
H1833 C1821 0.930 . S
H1834 C1822 0.956 . S
H1835 C1822 0.961 . S
H1836 C1822 0.961 . S
H1837 C1823 0.958 . S
H1838 C1823 0.961 . S
H1839 C1823 0.960 . S
C1840 C1841 1.391 . S
C1840 C1842 1.394 . S
C1840 H1856 0.931 . S
C1841 C1840 1.391 . S
C1841 C1845 1.376 . S
C1842 C1840 1.394 . S
C1842 C1843 1.369 . S
C1842 C1846 1.531 . S
C1843 C1842 1.369 . S
C1843 C1844 1.410 . S
C1843 C1851 1.503 . S
C1844 C1843 1.410 . S
C1844 C1845 1.392 . S
C1844 C1847 1.511 . S
C1845 C1841 1.376 . S
C1845 C1844 1.392 . S
C1845 H1857 0.929 . S
C1846 C1842 1.531 . S
C1846 H1858 0.960 . S
C1846 H1859 0.962 . S
C1846 H1860 0.960 . S
C1847 C1844 1.511 . S
C1847 H1861 0.961 . S
C1847 H1862 0.961 . S
C1847 H1863 0.961 . S
C1848 C1849 1.370 . S
C1848 C1850 1.363 . S
C1848 H1864 0.931 . S
C1849 C1848 1.370 . S
C1849 C1853 1.408 . S
C1850 C1848 1.363 . S
C1850 C1851 1.370 . S
C1850 C1854 1.524 . S
C1851 C1843 1.503 . S
C1851 C1850 1.370 . S
C1851 C1852 1.403 . S
C1852 C1851 1.403 . S
C1852 C1853 1.404 . S
C1852 C1855 1.539 . S
C1853 C1849 1.408 . S
C1853 C1852 1.404 . S
C1853 H1865 0.930 . S
C1854 C1850 1.524 . S
C1854 H1866 0.956 . S
C1854 H1867 0.961 . S
C1854 H1868 0.961 . S
C1855 C1852 1.539 . S
C1855 H1869 0.958 . S
C1855 H1870 0.961 . S
C1855 H1871 0.960 . S
H1856 C1840 0.931 . S
H1857 C1845 0.929 . S
H1858 C1846 0.960 . S
H1859 C1846 0.962 . S
H1860 C1846 0.960 . S
H1861 C1847 0.961 . S
H1862 C1847 0.961 . S
H1863 C1847 0.961 . S
H1864 C1848 0.931 . S
H1865 C1853 0.930 . S
H1866 C1854 0.956 . S
H1867 C1854 0.961 . S
H1868 C1854 0.961 . S
H1869 C1855 0.958 . S
H1870 C1855 0.961 . S
H1871 C1855 0.960 . S
C337 C99 1.309 . S
C345 C1 1.286 . S
C369 C15 0.797 . S
C377 C56 0.802 . S
C401 C83 1.194 . S
C409 C29 1.184 . S
C433 C55 1.061 . S
C441 C85 1.083 . S
C465 C124 1.325 . S
C473 C13 1.335 . S
C497 C27 1.104 . S
C505 C126 1.079 . S
C529 C152 1.278 . S
C537 C41 1.381 . S
C561 C154 0.758 . S
C569 C43 0.804 . S
C593 C68 0.832 . S
C601 C138 0.783 . S
C625 C71 1.124 . S
C633 C140 1.191 . S
C657 C166 0.865 . S
C665 C97 0.839 . S
C689 C112 1.361 . S
C697 C111 1.311 . S
C721 C294 1.362 . S
C729 C169 1.304 . S
C753 C194 1.027 . S
C761 C320 1.061 . S
C785 C197 1.206 . S
C793 C322 1.241 . S
C817 C334 1.180 . S
C825 C222 1.177 . S
C849 C236 1.195 . S
C857 C306 1.197 . S
C881 C279 0.995 . S
C889 C238 0.956 . S
C913 C181 1.207 . S
C921 C224 1.122 . S
C945 C182 0.804 . S
C953 C253 0.786 . S
C977 C209 1.400 . S
C985 C210 1.332 . S
C1009 C250 0.901 . S
C1017 C292 0.981 . S
C1041 C265 0.774 . S
C1049 C308 0.814 . S
C1073 C280 0.899 . S
C1081 C267 0.979 . S
C1105 C57 2.521 . S
C1113 C0 2.433 . S
C1137 C82 1.405 . S
C1145 C14 1.362 . S
C1169 C84 2.650 . S
C1177 C28 2.614 . S
C1201 C98 2.116 . S
C1209 C54 2.077 . S
C1233 C125 2.432 . S
C1241 C167 2.514 . S
C1265 C127 2.053 . S
C1273 C113 2.138 . S
C1297 C153 2.074 . S
C1305 C139 2.152 . S
C1329 C141 1.287 . S
C1337 C155 1.236 . S
C1361 C264 2.522 . S
C1369 C110 2.421 . S
C1393 C168 2.040 . S
C1401 C42 2.167 . S
C1425 C12 2.108 . S
C1433 C195 2.087 . S
C1457 C26 2.647 . S
C1465 C196 2.612 . S
C1489 C70 2.095 . S
C1497 C266 2.125 . S
C1521 C69 1.244 . S
C1529 C223 1.271 . S
C1553 C96 1.351 . S
C1561 C237 1.407 . S
C1585 C225 2.042 . S
C1593 C239 2.140 . S
C1617 C180 1.279 . S
C1625 C252 1.241 . S
C1649 C211 2.047 . S
C1657 C183 2.163 . S
C1681 C278 2.358 . S
C1689 C208 2.393 . S
C1713 C293 2.101 . S
C1721 C335 2.086 . S
C1745 C281 2.317 . S
C1753 C295 2.400 . S
C1777 C321 2.658 . S
C1785 C307 2.619 . S
C1809 C323 1.391 . S
C1817 C309 1.376 . S
C1841 C40 2.381 . S
C1849 C251 2.358 . S
