# Generated by pormake.
# Topology dft, (4)-cn, num edge types: 1
# Building blocks:
#     Node 0, Type 0, BuildingBlock: QUQFOY_clean_sbu_1, # of connection points: 4
#     Node 1, Type 0, BuildingBlock: QUQFOY_clean_sbu_1, # of connection points: 4
#     Node 2, Type 0, BuildingBlock: QUQFOY_clean_sbu_1, # of connection points: 4
#     Node 3, Type 0, BuildingBlock: QUQFOY_clean_sbu_1, # of connection points: 4
#     Node 4, Type 0, BuildingBlock: QUQFOY_clean_sbu_1, # of connection points: 4
#     Node 5, Type 0, BuildingBlock: QUQFOY_clean_sbu_1, # of connection points: 4
#     Node 6, Type 0, BuildingBlock: QUQFOY_clean_sbu_1, # of connection points: 4
#     Node 7, Type 0, BuildingBlock: QUQFOY_clean_sbu_1, # of connection points: 4
#     Edge 8, Type (0, 0), BuildingBlock: XUDNAN_clean_linker_2, # of connection points: 2
#     Edge 9, Type (0, 0), BuildingBlock: XUDNAN_clean_linker_2, # of connection points: 2
#     Edge 10, Type (0, 0), BuildingBlock: XUDNAN_clean_linker_2, # of connection points: 2
#     Edge 11, Type (0, 0), BuildingBlock: XUDNAN_clean_linker_2, # of connection points: 2
#     Edge 12, Type (0, 0), BuildingBlock: XUDNAN_clean_linker_2, # of connection points: 2
#     Edge 13, Type (0, 0), BuildingBlock: XUDNAN_clean_linker_2, # of connection points: 2
#     Edge 14, Type (0, 0), BuildingBlock: XUDNAN_clean_linker_2, # of connection points: 2
#     Edge 15, Type (0, 0), BuildingBlock: XUDNAN_clean_linker_2, # of connection points: 2
#     Edge 16, Type (0, 0), BuildingBlock: XUDNAN_clean_linker_2, # of connection points: 2
#     Edge 17, Type (0, 0), BuildingBlock: XUDNAN_clean_linker_2, # of connection points: 2
#     Edge 18, Type (0, 0), BuildingBlock: XUDNAN_clean_linker_2, # of connection points: 2
#     Edge 19, Type (0, 0), BuildingBlock: XUDNAN_clean_linker_2, # of connection points: 2
#     Edge 20, Type (0, 0), BuildingBlock: XUDNAN_clean_linker_2, # of connection points: 2
#     Edge 21, Type (0, 0), BuildingBlock: XUDNAN_clean_linker_2, # of connection points: 2
#     Edge 22, Type (0, 0), BuildingBlock: XUDNAN_clean_linker_2, # of connection points: 2
#     Edge 23, Type (0, 0), BuildingBlock: XUDNAN_clean_linker_2, # of connection points: 2
# Relax obj value: 0.211
# Max RMSD: 0.224
# Mean RMSD: 0.224
data_MOF--net-dft--node1-QUQFOY_clean_sbu_1--edge1-XUDNAN_clean_linker_2
_symmetry_space_group_name_H-M    P1
_symmetry_Int_Tables_number       1
_symmetry_cell_setting            triclinic
loop_
_symmetry_equiv_pos_as_xyz
'x, y, z'
_cell_length_a     36.981089
_cell_length_b     36.928603
_cell_length_c     40.013551
_cell_angle_alpha  89.977173
_cell_angle_beta   89.962126
_cell_angle_gamma 90.013996
loop_
_atom_site_label
_atom_site_type_symbol
_atom_site_fract_x
_atom_site_fract_y
_atom_site_fract_z
_atom_type_partial_charge
O0 O 0.34274 0.07548 0.12432 0.0
Cd1 Cd 0.34208 0.08733 0.17434 0.0
Cd2 Cd 0.28137 0.03812 0.1752 0.0
O3 O 0.30532 0.02911 0.12911 0.0
O4 O 0.38912 0.11111 0.18393 0.0
O5 O 0.37367 0.0576 0.20457 0.0
C6 C 0.3974 0.08311 0.20157 0.0
C7 C 0.25372 0.98618 0.19676 0.0
C8 C 0.32729 0.04794 0.11198 0.0
C9 C 0.26993 0.11774 0.1932 0.0
O10 O 0.25604 0.08697 0.18674 0.0
O11 O 0.30383 0.12259 0.19124 0.0
O12 O 0.28257 0.99886 0.2106 0.0
O13 O 0.24049 0.00321 0.17157 0.0
O14 O 0.0146 0.34641 0.63675 0.0
Cd15 Cd 0.00878 0.34213 0.68786 0.0
Cd16 Cd 0.04437 0.27379 0.67395 0.0
O17 O 0.04096 0.29398 0.62601 0.0
O18 O 0.98404 0.3883 0.69951 0.0
O19 O 0.03927 0.37522 0.71669 0.0
C20 C 0.01256 0.3977 0.71569 0.0
C21 C 0.09961 0.2493 0.69041 0.0
C22 C 0.02811 0.32403 0.61613 0.0
C23 C 0.97216 0.27093 0.70786 0.0
O24 O 0.99827 0.25292 0.69559 0.0
O25 O 0.97244 0.30534 0.70735 0.0
O26 O 0.07904 0.23281 0.6694 0.0
O27 O 0.08894 0.27994 0.70245 0.0
O28 O 0.7067 0.98685 0.14093 0.0
Cd29 Cd 0.70061 0.98944 0.19192 0.0
Cd30 Cd 0.76037 0.03232 0.18823 0.0
O31 O 0.74857 0.02938 0.13774 0.0
O32 O 0.64885 0.98103 0.2023 0.0
O33 O 0.677 0.03304 0.21198 0.0
C34 C 0.64755 0.01413 0.21261 0.0
C35 C 0.78669 0.08614 0.2072 0.0
C36 C 0.72703 0.00732 0.12367 0.0
C37 C 0.76507 0.95861 0.22327 0.0
O38 O 0.7807 0.98674 0.21198 0.0
O39 O 0.73126 0.95448 0.21958 0.0
O40 O 0.80437 0.06317 0.18944 0.0
O41 O 0.75318 0.07931 0.21368 0.0
O42 O 0.0629 0.70557 0.64093 0.0
Cd43 Cd 0.06911 0.70705 0.69202 0.0
Cd44 Cd 0.0318 0.77292 0.6839 0.0
O45 O 0.03539 0.75816 0.63443 0.0
O46 O 0.08525 0.65724 0.70344 0.0
O47 O 0.03315 0.68016 0.72046 0.0
C48 C 0.05509 0.65297 0.7191 0.0
C49 C 0.97776 0.80064 0.7002 0.0
C50 C 0.04874 0.7294 0.62218 0.0
C51 C 0.10604 0.77481 0.7156 0.0
O52 O 0.0778 0.79193 0.70688 0.0
O53 O 0.10809 0.74072 0.71175 0.0
O54 O 0.00151 0.81728 0.6824 0.0
O55 O 0.98442 0.7676 0.7088 0.0
O56 O 0.35768 0.99024 0.85267 0.0
Cd57 Cd 0.35823 0.98772 0.80139 0.0
Cd58 Cd 0.2971 0.0301 0.80893 0.0
O59 O 0.31645 0.03316 0.85733 0.0
O60 O 0.40589 0.96584 0.79046 0.0
O61 O 0.39111 0.0219 0.77647 0.0
C62 C 0.41481 0.99623 0.777 0.0
C63 C 0.27465 0.08276 0.78402 0.0
C64 C 0.33985 0.01238 0.87048 0.0
C65 C 0.28812 0.95449 0.78134 0.0
O66 O 0.27277 0.98232 0.79355 0.0
O67 O 0.32235 0.95267 0.77975 0.0
O68 O 0.25744 0.06661 0.80772 0.0
O69 O 0.30534 0.06939 0.77473 0.0
O70 O 0.04659 0.35792 0.35199 0.0
Cd71 Cd 0.05263 0.35837 0.30065 0.0
Cd72 Cd 0.01487 0.29 0.30976 0.0
O73 O 0.01941 0.30509 0.35917 0.0
O74 O 0.07689 0.40553 0.29182 0.0
O75 O 0.02174 0.39306 0.27393 0.0
C76 C 0.04832 0.41561 0.27605 0.0
C77 C 0.96114 0.26241 0.29276 0.0
C78 C 0.03288 0.33402 0.37105 0.0
C79 C 0.08726 0.28918 0.27483 0.0
O80 O 0.06024 0.27144 0.2855 0.0
O81 O 0.08878 0.32332 0.27838 0.0
O82 O 0.98472 0.24551 0.31054 0.0
O83 O 0.96743 0.29581 0.28515 0.0
O84 O 0.72445 0.05862 0.86928 0.0
Cd85 Cd 0.71991 0.07107 0.81942 0.0
Cd86 Cd 0.77776 0.02423 0.81172 0.0
O87 O 0.76491 0.01542 0.86143 0.0
O88 O 0.66889 0.08402 0.80983 0.0
O89 O 0.69584 0.03506 0.7895 0.0
C90 C 0.66706 0.05476 0.79224 0.0
C91 C 0.8016 0.97375 0.78441 0.0
C92 C 0.74378 0.03298 0.88052 0.0
C93 C 0.78614 0.10439 0.79262 0.0
O94 O 0.79989 0.07303 0.7959 0.0
O95 O 0.75329 0.10993 0.80016 0.0
O96 O 0.82048 0.99253 0.80505 0.0
O97 O 0.76852 0.98324 0.7791 0.0
O98 O 0.01047 0.71877 0.35958 0.0
Cd99 Cd 0.99821 0.7239 0.30967 0.0
Cd100 Cd 0.03294 0.79045 0.31934 0.0
O101 O 0.03776 0.77127 0.36743 0.0
O102 O 0.98076 0.67464 0.29778 0.0
O103 O 0.03058 0.69854 0.27662 0.0
C104 C 0.00897 0.67117 0.27917 0.0
C105 C 0.08405 0.81474 0.29356 0.0
C106 C 0.02665 0.74103 0.37855 0.0
C107 C 0.95568 0.79204 0.29592 0.0
O108 O 0.98346 0.81011 0.30437 0.0
O109 O 0.95631 0.75762 0.29591 0.0
O110 O 0.0671 0.83206 0.31673 0.0
O111 O 0.07209 0.78315 0.2851 0.0
H112 H 0.324 0.08994 0.05603 0.0
H113 H 0.34674 0.98113 0.09067 0.0
H114 H 0.35782 0.96154 0.03239 0.0
H115 H 0.27319 0.06186 0.98579 0.0
H116 H 0.28809 0.09809 0.95891 0.0
H117 H 0.28662 0.10471 0.00345 0.0
H118 H 0.35436 0.12274 0.0032 0.0
H119 H 0.35604 0.11618 0.9586 0.0
H120 H 0.3872 0.09231 0.98532 0.0
H121 H 0.3654 0.95373 0.97077 0.0
H122 H 0.36196 0.95593 0.90919 0.0
H123 H 0.32833 0.06839 0.91417 0.0
C124 C 0.33198 0.06221 0.05121 0.0
C125 C 0.33519 0.03704 0.07752 0.0
C126 C 0.3445 0.00069 0.0706 0.0
C127 C 0.35098 0.98944 0.03771 0.0
C128 C 0.34731 0.0148 0.01214 0.0
C129 C 0.33751 0.0503 0.01842 0.0
C130 C 0.3318 0.07109 0.98621 0.0
C131 C 0.2926 0.08472 0.98344 0.0
C132 C 0.35898 0.10243 0.98316 0.0
C133 C 0.3396 0.04165 0.9609 0.0
C134 C 0.34928 0.00965 0.9764 0.0
C135 C 0.35783 0.97861 0.95831 0.0
C136 C 0.3559 0.98015 0.92338 0.0
C137 C 0.34475 0.01228 0.90703 0.0
C138 C 0.33677 0.04345 0.92608 0.0
H139 H 0.03017 0.277 0.56333 0.0
H140 H 0.02726 0.39143 0.58786 0.0
H141 H 0.029 0.40657 0.52768 0.0
H142 H 0.08953 0.28299 0.49246 0.0
H143 H 0.06569 0.24911 0.46869 0.0
H144 H 0.06529 0.24738 0.51367 0.0
H145 H 0.9952 0.24767 0.51334 0.0
H146 H 0.99538 0.24938 0.46836 0.0
H147 H 0.97153 0.28346 0.4919 0.0
H148 H 0.0332 0.40911 0.46492 0.0
H149 H 0.0346 0.39888 0.40387 0.0
H150 H 0.03064 0.2828 0.42049 0.0
C151 C 0.03009 0.30524 0.55603 0.0
C152 C 0.02886 0.33308 0.58019 0.0
C153 C 0.02819 0.3697 0.5697 0.0
C154 C 0.02928 0.37856 0.53562 0.0
C155 C 0.0305 0.35045 0.51243 0.0
C156 C 0.03048 0.31454 0.52216 0.0
C157 C 0.03056 0.28947 0.49223 0.0
C158 C 0.06481 0.26585 0.49174 0.0
C159 C 0.99611 0.26613 0.49142 0.0
C160 C 0.03085 0.3169 0.46412 0.0
C161 C 0.03121 0.35192 0.47629 0.0
C162 C 0.03265 0.38182 0.45509 0.0
C163 C 0.03354 0.37575 0.4205 0.0
C164 C 0.03246 0.34008 0.40752 0.0
C165 C 0.03105 0.31037 0.42971 0.0
H166 H 0.74143 0.07718 0.93525 0.0
H167 H 0.73929 0.96455 0.90479 0.0
H168 H 0.73213 0.94581 0.96382 0.0
H169 H 0.79564 0.06153 0.00876 0.0
H170 H 0.7733 0.09584 0.03325 0.0
H171 H 0.77592 0.10042 0.98851 0.0
H172 H 0.70616 0.10635 0.98552 0.0
H173 H 0.70331 0.10164 0.03026 0.0
H174 H 0.6782 0.07143 0.00357 0.0
H175 H 0.72238 0.93972 0.02558 0.0
H176 H 0.71924 0.94583 0.08707 0.0
H177 H 0.73448 0.06187 0.07793 0.0
C178 C 0.73925 0.04863 0.94115 0.0
C179 C 0.74049 0.0222 0.91574 0.0
C180 C 0.73833 0.98506 0.92412 0.0
C181 C 0.73409 0.97423 0.95746 0.0
C182 C 0.73289 0.00092 0.98203 0.0
C183 C 0.73611 0.0373 0.97439 0.0
C184 C 0.73642 0.06028 0.00574 0.0
C185 C 0.77247 0.08071 0.00926 0.0
C186 C 0.70409 0.08647 0.00629 0.0
C187 C 0.73258 0.03115 0.03214 0.0
C188 C 0.72991 0.99717 0.01787 0.0
C189 C 0.72481 0.96612 0.03709 0.0
C190 C 0.7229 0.96985 0.07189 0.0
C191 C 0.7269 0.00424 0.08702 0.0
C192 C 0.73175 0.03523 0.06688 0.0
H193 H 0.03298 0.78775 0.43111 0.0
H194 H 0.03167 0.67348 0.4059 0.0
H195 H 0.0395 0.65793 0.46558 0.0
H196 H 0.09842 0.78323 0.49824 0.0
H197 H 0.07508 0.8161 0.52361 0.0
H198 H 0.07168 0.81815 0.47874 0.0
H199 H 0.00178 0.81556 0.48312 0.0
H200 H 0.00496 0.81346 0.52797 0.0
H201 H 0.98074 0.77879 0.50552 0.0
H202 H 0.04792 0.65503 0.52788 0.0
H203 H 0.05164 0.66481 0.58891 0.0
H204 H 0.04334 0.78085 0.57334 0.0
C205 C 0.03476 0.75947 0.43814 0.0
C206 C 0.03208 0.73178 0.414 0.0
C207 C 0.03373 0.69507 0.42412 0.0
C208 C 0.03829 0.686 0.45787 0.0
C209 C 0.04066 0.71397 0.48111 0.0
C210 C 0.0386 0.74995 0.47174 0.0
C211 C 0.03981 0.77477 0.50178 0.0
C212 C 0.07324 0.79951 0.50051 0.0
C213 C 0.00473 0.79694 0.50476 0.0
C214 C 0.04286 0.74713 0.52952 0.0
C215 C 0.04378 0.71224 0.51708 0.0
C216 C 0.04708 0.68222 0.53794 0.0
C217 C 0.04926 0.68803 0.57251 0.0
C218 C 0.04755 0.72354 0.58576 0.0
C219 C 0.04436 0.75338 0.5639 0.0
H220 H 0.43438 0.02053 0.2135 0.0
H221 H 0.44399 0.1374 0.21809 0.0
H222 H 0.5089 0.13152 0.23141 0.0
H223 H 0.5057 0.99815 0.27826 0.0
H224 H 0.52128 0.96003 0.2541 0.0
H225 H 0.4743 0.97301 0.25281 0.0
H226 H 0.47791 0.97796 0.18828 0.0
H227 H 0.52478 0.96531 0.18937 0.0
H228 H 0.51145 0.00711 0.16962 0.0
H229 H 0.5738 0.11361 0.23533 0.0
H230 H 0.63368 0.08524 0.22756 0.0
H231 H 0.58222 0.98008 0.21836 0.0
C232 C 0.44988 0.04477 0.21869 0.0
C233 C 0.4342 0.07938 0.21529 0.0
C234 C 0.45553 0.11062 0.22091 0.0
C235 C 0.49237 0.10753 0.22863 0.0
C236 C 0.50744 0.07301 0.23055 0.0
C237 C 0.48683 0.04213 0.22587 0.0
C238 C 0.51037 0.00863 0.22446 0.0
C239 C 0.50244 0.98347 0.25419 0.0
C240 C 0.50586 0.98861 0.19094 0.0
C241 C 0.54747 0.02564 0.22749 0.0
C242 C 0.5452 0.06269 0.23183 0.0
C243 C 0.57595 0.08454 0.23258 0.0
C244 C 0.60985 0.0682 0.22808 0.0
C245 C 0.61262 0.03046 0.22241 0.0
C246 C 0.58103 0.00895 0.22296 0.0
H247 H 0.07239 0.44063 0.72019 0.0
H248 H 0.95746 0.43793 0.74102 0.0
H249 H 0.95878 0.503 0.75508 0.0
H250 H 0.09771 0.51434 0.78254 0.0
H251 H 0.12942 0.53387 0.75342 0.0
H252 H 0.12152 0.48568 0.75345 0.0
H253 H 0.10558 0.48842 0.69044 0.0
H254 H 0.11316 0.53643 0.69026 0.0
H255 H 0.07031 0.51857 0.67653 0.0
H256 H 0.97003 0.5694 0.75731 0.0
H257 H 0.98978 0.63193 0.74522 0.0
H258 H 0.09699 0.59211 0.72086 0.0
C259 C 0.04793 0.45347 0.72918 0.0
C260 C 0.01497 0.43431 0.73013 0.0
C261 C 0.98306 0.4522 0.74054 0.0
C262 C 0.98359 0.48908 0.74871 0.0
C263 C 0.01624 0.50772 0.74622 0.0
C264 C 0.04791 0.4905 0.73681 0.0
C265 C 0.07801 0.51759 0.73093 0.0
C266 C 0.10847 0.51257 0.75662 0.0
C267 C 0.09258 0.5151 0.69491 0.0
C268 C 0.05785 0.55271 0.73678 0.0
C269 C 0.02254 0.54645 0.74647 0.0
C270 C 0.99783 0.57468 0.75041 0.0
C271 C 0.00927 0.61013 0.74345 0.0
C272 C 0.04492 0.61691 0.73218 0.0
C273 C 0.06967 0.58786 0.72979 0.0
H274 H 0.60334 0.09227 0.79147 0.0
H275 H 0.65175 0.99033 0.76137 0.0
H276 H 0.5916 0.96763 0.74475 0.0
H277 H 0.52926 0.05691 0.82929 0.0
H278 H 0.49768 0.09134 0.81635 0.0
H279 H 0.5449 0.10202 0.81982 0.0
H280 H 0.54567 0.12379 0.75824 0.0
H281 H 0.49823 0.11323 0.75459 0.0
H282 H 0.53021 0.09385 0.72566 0.0
H283 H 0.52613 0.95216 0.74175 0.0
H284 H 0.46034 0.94585 0.75074 0.0
H285 H 0.4541 0.05858 0.78019 0.0
C286 C 0.60146 0.06555 0.78047 0.0
C287 C 0.63223 0.04307 0.77766 0.0
C288 C 0.62859 0.00811 0.76358 0.0
C289 C 0.59453 0.99502 0.75397 0.0
C290 C 0.56454 0.01747 0.75808 0.0
C291 C 0.56774 0.05221 0.77057 0.0
C292 C 0.53103 0.06954 0.77568 0.0
C293 C 0.52541 0.08057 0.81246 0.0
C294 C 0.52599 0.10203 0.75213 0.0
C295 C 0.50658 0.03844 0.76588 0.0
C296 C 0.52645 0.0088 0.75535 0.0
C297 C 0.5102 0.97547 0.74897 0.0
C298 C 0.47288 0.9721 0.75423 0.0
C299 C 0.45223 0.00193 0.76553 0.0
C300 C 0.46914 0.03574 0.77045 0.0
H301 H 0.98891 0.45934 0.27438 0.0
H302 H 0.10311 0.45606 0.25048 0.0
H303 H 0.10198 0.52139 0.23738 0.0
H304 H 0.96223 0.53436 0.21401 0.0
H305 H 0.93174 0.5537 0.24429 0.0
H306 H 0.93915 0.50544 0.24341 0.0
H307 H 0.95734 0.50694 0.30594 0.0
H308 H 0.95014 0.55499 0.30697 0.0
H309 H 0.9933 0.53661 0.3192 0.0
H310 H 0.09117 0.58788 0.23589 0.0
H311 H 0.0726 0.65033 0.24971 0.0
H312 H 0.96602 0.61108 0.27707 0.0
C313 C 0.01321 0.47218 0.26498 0.0
C314 C 0.04593 0.45275 0.2628 0.0
C315 C 0.0777 0.47056 0.2519 0.0
C316 C 0.07725 0.50758 0.24424 0.0
C317 C 0.04484 0.52644 0.24781 0.0
C318 C 0.01335 0.50934 0.25792 0.0
C319 C 0.98373 0.53659 0.26504 0.0
C320 C 0.95236 0.53226 0.2402 0.0
C321 C 0.97038 0.5336 0.30144 0.0
C322 C 0.00401 0.57163 0.25905 0.0
C323 C 0.03889 0.56522 0.24816 0.0
C324 C 0.0637 0.5933 0.24377 0.0
C325 C 0.05292 0.62871 0.25169 0.0
C326 C 0.01787 0.63557 0.2644 0.0
C327 C 0.99289 0.60674 0.26707 0.0
H328 H 0.0922 0.21654 0.26062 0.0
H329 H 0.15187 0.31768 0.25407 0.0
H330 H 0.20421 0.28482 0.23091 0.0
H331 H 0.16574 0.1616 0.28605 0.0
H332 H 0.15222 0.12267 0.26193 0.0
H333 H 0.11866 0.15424 0.27654 0.0
H334 H 0.09599 0.16347 0.21587 0.0
H335 H 0.12941 0.13181 0.20106 0.0
H336 H 0.12759 0.17688 0.18385 0.0
H337 H 0.25101 0.24099 0.21161 0.0
H338 H 0.28886 0.18913 0.19516 0.0
H339 H 0.19858 0.11633 0.21303 0.0
C340 C 0.11614 0.23188 0.25407 0.0
C341 C 0.1179 0.26974 0.2592 0.0
C342 C 0.14981 0.28871 0.25033 0.0
C343 C 0.17971 0.27029 0.23716 0.0
C344 C 0.17719 0.23297 0.23282 0.0
C345 C 0.14619 0.21396 0.24076 0.0
C346 C 0.15084 0.17382 0.23419 0.0
C347 C 0.14662 0.1518 0.26661 0.0
C348 C 0.12438 0.16074 0.20713 0.0
C349 C 0.1895 0.17319 0.22172 0.0
C350 C 0.20414 0.20763 0.22116 0.0
C351 C 0.23979 0.21392 0.21168 0.0
C352 C 0.26109 0.18423 0.20249 0.0
C353 C 0.24667 0.14864 0.20271 0.0
C354 C 0.2103 0.1432 0.21232 0.0
H355 H 0.96397 0.19784 0.71911 0.0
H356 H 0.90848 0.301 0.72885 0.0
H357 H 0.85488 0.26957 0.75117 0.0
H358 H 0.88706 0.14583 0.69349 0.0
H359 H 0.8998 0.10611 0.71687 0.0
H360 H 0.93409 0.13666 0.70178 0.0
H361 H 0.95877 0.14414 0.762 0.0
H362 H 0.92462 0.1135 0.77725 0.0
H363 H 0.92856 0.15823 0.7949 0.0
H364 H 0.8068 0.22707 0.77121 0.0
H365 H 0.76834 0.17635 0.78994 0.0
H366 H 0.85545 0.10103 0.76816 0.0
C367 C 0.94059 0.21386 0.72597 0.0
C368 C 0.94048 0.25191 0.72215 0.0
C369 C 0.90931 0.27183 0.73157 0.0
C370 C 0.87866 0.25424 0.74422 0.0
C371 C 0.87962 0.21673 0.74748 0.0
C372 C 0.90981 0.19676 0.73883 0.0
C373 C 0.90384 0.15676 0.74509 0.0
C374 C 0.90634 0.13507 0.71236 0.0
C375 C 0.93053 0.14232 0.77138 0.0
C376 C 0.86553 0.1574 0.75845 0.0
C377 C 0.85202 0.19224 0.75951 0.0
C378 C 0.8171 0.19965 0.77061 0.0
C379 C 0.79543 0.17064 0.78112 0.0
C380 C 0.80886 0.1347 0.7806 0.0
C381 C 0.84439 0.12817 0.769 0.0
H382 H 0.94784 0.86406 0.28124 0.0
H383 H 0.88757 0.76354 0.28979 0.0
H384 H 0.8313 0.79607 0.27552 0.0
H385 H 0.87924 0.92327 0.31526 0.0
H386 H 0.88903 0.9595 0.28643 0.0
H387 H 0.92429 0.9286 0.29872 0.0
H388 H 0.93674 0.91332 0.23653 0.0
H389 H 0.9017 0.94432 0.22407 0.0
H390 H 0.90009 0.89781 0.21051 0.0
H391 H 0.7817 0.8396 0.25987 0.0
H392 H 0.74333 0.88986 0.23985 0.0
H393 H 0.83668 0.96126 0.24042 0.0
C394 C 0.9228 0.84888 0.28031 0.0
C395 C 0.92207 0.81128 0.28677 0.0
C396 C 0.88879 0.79236 0.28489 0.0
C397 C 0.85666 0.81062 0.27698 0.0
C398 C 0.85834 0.84772 0.27088 0.0
C399 C 0.8906 0.86657 0.27219 0.0
C400 C 0.88538 0.906 0.26311 0.0
C401 C 0.89505 0.9308 0.29265 0.0
C402 C 0.90727 0.91593 0.23168 0.0
C403 C 0.84517 0.90633 0.25625 0.0
C404 C 0.82997 0.87258 0.26122 0.0
C405 C 0.79328 0.86619 0.25595 0.0
C406 C 0.7717 0.89493 0.24468 0.0
C407 C 0.78699 0.9295 0.23853 0.0
C408 C 0.82413 0.9352 0.24489 0.0
H409 H 0.10849 0.84619 0.73432 0.0
H410 H 0.17518 0.74996 0.72447 0.0
H411 H 0.22897 0.78564 0.74026 0.0
H412 H 0.17126 0.90851 0.70052 0.0
H413 H 0.16024 0.94461 0.72906 0.0
H414 H 0.12659 0.91133 0.71841 0.0
H415 H 0.11743 0.89629 0.78111 0.0
H416 H 0.15079 0.9298 0.79201 0.0
H417 H 0.15591 0.88377 0.80623 0.0
H418 H 0.27587 0.83243 0.75342 0.0
H419 H 0.31224 0.88604 0.76808 0.0
H420 H 0.21468 0.95146 0.77098 0.0
C421 C 0.13433 0.83248 0.73579 0.0
C422 C 0.13763 0.79526 0.7281 0.0
C423 C 0.17195 0.77839 0.73038 0.0
C424 C 0.20268 0.79845 0.73919 0.0
C425 C 0.19855 0.83522 0.74595 0.0
C426 C 0.1652 0.85199 0.7448 0.0
C427 C 0.16816 0.8919 0.7531 0.0
C428 C 0.15584 0.91546 0.7235 0.0
C429 C 0.14681 0.90096 0.78501 0.0
C430 C 0.20849 0.89503 0.75873 0.0
C431 C 0.22552 0.86207 0.7543 0.0
C432 C 0.26282 0.85833 0.75724 0.0
C433 C 0.28325 0.88901 0.76541 0.0
C434 C 0.2663 0.92296 0.77078 0.0
C435 C 0.22841 0.92588 0.76723 0.0
H436 H 0.86513 0.97418 0.75159 0.0
H437 H 0.77645 0.9041 0.78007 0.0
H438 H 0.81059 0.85082 0.75886 0.0
H439 H 0.88874 0.92402 0.674 0.0
H440 H 0.93626 0.93314 0.6794 0.0
H441 H 0.90318 0.96513 0.69428 0.0
H442 H 0.93156 0.9619 0.75343 0.0
H443 H 0.96436 0.9296 0.73892 0.0
H444 H 0.93569 0.91861 0.77394 0.0
H445 H 0.85908 0.80482 0.74139 0.0
H446 H 0.91375 0.7713 0.72291 0.0
H447 H 0.96755 0.87331 0.7025 0.0
C448 C 0.85264 0.94766 0.75263 0.0
C449 C 0.81837 0.9429 0.76726 0.0
C450 C 0.80264 0.90804 0.7685 0.0
C451 C 0.82189 0.87775 0.75669 0.0
C452 C 0.85626 0.88323 0.74307 0.0
C453 C 0.871 0.91753 0.74025 0.0
C454 C 0.90846 0.91649 0.72525 0.0
C455 C 0.90918 0.93583 0.69121 0.0
C456 C 0.93666 0.93259 0.74934 0.0
C457 C 0.91328 0.87613 0.72129 0.0
C458 C 0.88303 0.85722 0.73169 0.0
C459 C 0.88258 0.81941 0.73252 0.0
C460 C 0.91375 0.80061 0.72219 0.0
C461 C 0.94465 0.81973 0.71095 0.0
C462 C 0.94411 0.85791 0.7104 0.0
H463 H 0.22588 0.97254 0.25872 0.0
H464 H 0.24002 0.92631 0.16015 0.0
H465 H 0.20393 0.87285 0.17689 0.0
H466 H 0.2231 0.88608 0.30728 0.0
H467 H 0.18776 0.90252 0.33435 0.0
H468 H 0.2201 0.93371 0.31676 0.0
H469 H 0.16769 0.97166 0.29186 0.0
H470 H 0.13528 0.94058 0.30919 0.0
H471 H 0.13508 0.95002 0.26499 0.0
H472 H 0.16229 0.82716 0.20262 0.0
H473 H 0.11439 0.79491 0.23385 0.0
H474 H 0.12362 0.87316 0.31428 0.0
C475 C 0.22229 0.95049 0.24119 0.0
C476 C 0.23626 0.95279 0.20849 0.0
C477 C 0.22988 0.92445 0.18551 0.0
C478 C 0.20955 0.89404 0.19482 0.0
C479 C 0.19537 0.89275 0.22707 0.0
C480 C 0.20126 0.92032 0.24988 0.0
C481 C 0.17924 0.91451 0.28137 0.0
C482 C 0.20403 0.90886 0.31174 0.0
C483 C 0.15276 0.94606 0.28716 0.0
C484 C 0.15944 0.87994 0.27236 0.0
C485 C 0.16973 0.86738 0.24127 0.0
C486 C 0.15422 0.83655 0.22713 0.0
C487 C 0.12705 0.8184 0.24504 0.0
C488 C 0.11526 0.83156 0.27642 0.0
C489 C 0.1321 0.86243 0.29034 0.0
H490 H 0.11839 0.22619 0.75255 0.0
H491 H 0.15629 0.23263 0.65036 0.0
H492 H 0.21085 0.19737 0.66556 0.0
H493 H 0.20852 0.22572 0.79519 0.0
H494 H 0.19384 0.19252 0.82532 0.0
H495 H 0.16181 0.22418 0.80804 0.0
H496 H 0.12131 0.1708 0.78891 0.0
H497 H 0.1532 0.13906 0.80598 0.0
H498 H 0.1403 0.13599 0.76263 0.0
H499 H 0.25816 0.15682 0.69068 0.0
H500 H 0.29145 0.10978 0.72215 0.0
H501 H 0.21996 0.12593 0.80684 0.0
C502 C 0.13893 0.22119 0.7338 0.0
C503 C 0.13399 0.23277 0.70057 0.0
C504 C 0.16027 0.22445 0.6761 0.0
C505 C 0.19127 0.20457 0.68454 0.0
C506 C 0.19518 0.19278 0.71746 0.0
C507 C 0.16958 0.20058 0.74167 0.0
C508 C 0.17756 0.18062 0.77391 0.0
C509 C 0.18594 0.20736 0.80229 0.0
C510 C 0.14624 0.15511 0.78339 0.0
C511 C 0.211 0.15964 0.76378 0.0
C512 C 0.22129 0.1677 0.73142 0.0
C513 C 0.25057 0.15054 0.71616 0.0
C514 C 0.26935 0.1239 0.73421 0.0
C515 C 0.25826 0.11421 0.76688 0.0
C516 C 0.22912 0.13284 0.78193 0.0
H517 H 0.95705 0.19121 0.27773 0.0
H518 H 0.89348 0.28978 0.27889 0.0
H519 H 0.84007 0.25526 0.25867 0.0
H520 H 0.92009 0.15703 0.20152 0.0
H521 H 0.92222 0.11045 0.21487 0.0
H522 H 0.95407 0.14286 0.23104 0.0
H523 H 0.93505 0.12625 0.29153 0.0
H524 H 0.90305 0.09386 0.27554 0.0
H525 H 0.88809 0.12919 0.30337 0.0
H526 H 0.79284 0.20775 0.24034 0.0
H527 H 0.75898 0.15413 0.21945 0.0
H528 H 0.85663 0.08969 0.22615 0.0
C529 C 0.93181 0.20552 0.27398 0.0
C530 C 0.92907 0.24296 0.28025 0.0
C531 C 0.89592 0.26098 0.27431 0.0
C532 C 0.86552 0.24158 0.26298 0.0
C533 C 0.86914 0.20446 0.25715 0.0
C534 C 0.90172 0.18687 0.26199 0.0
C535 C 0.89958 0.14744 0.25224 0.0
C536 C 0.92552 0.13897 0.22319 0.0
C537 C 0.90686 0.12274 0.28248 0.0
C538 C 0.86059 0.14531 0.24132 0.0
C539 C 0.84312 0.17819 0.24476 0.0
C540 C 0.80642 0.18201 0.23723 0.0
C541 C 0.78739 0.15151 0.22553 0.0
C542 C 0.80541 0.11809 0.22086 0.0
C543 C 0.84235 0.11512 0.229 0.0
loop_
_geom_bond_atom_site_label_1
_geom_bond_atom_site_label_2
_geom_bond_distance
_geom_bond_site_symmetry_2
_ccdc_geom_bond_type
O0 Cd1 2.223 . S
O0 C8 1.315 . S
Cd1 O0 2.223 . S
Cd1 O4 2.297 . S
Cd1 O5 2.439 . S
Cd1 O11 2.240 . S
Cd2 O3 2.240 1_565 S
Cd2 O10 2.223 1_565 S
Cd2 O12 2.297 . S
Cd2 O13 2.439 . S
O3 Cd2 2.240 1_545 S
O3 C8 1.279 . S
O4 Cd1 2.297 . S
O4 C6 1.247 . S
O5 Cd1 2.439 . S
O5 C6 1.208 . S
C6 O4 1.247 . S
C6 O5 1.208 . S
C7 O12 1.247 . S
C7 O13 1.208 . S
C8 O0 1.315 . S
C8 O3 1.279 . S
C9 O10 1.315 . S
C9 O11 1.279 . S
O10 Cd2 2.223 1_545 S
O10 C9 1.315 . S
O11 Cd1 2.240 . S
O11 C9 1.279 . S
O12 Cd2 2.297 . S
O12 C7 1.247 . S
O13 Cd2 2.439 . S
O13 C7 1.208 . S
O14 Cd15 2.228 . S
O14 C22 1.315 1_655 S
Cd15 O14 2.228 . S
Cd15 O18 2.294 1_655 S
Cd15 O19 2.421 1_655 S
Cd15 O25 2.237 1_655 S
Cd16 O17 2.240 . S
Cd16 O24 2.223 . S
Cd16 O26 2.297 . S
Cd16 O27 2.439 . S
O17 Cd16 2.240 . S
O17 C22 1.279 . S
O18 Cd15 2.294 1_455 S
O18 C20 1.247 . S
O19 Cd15 2.421 1_455 S
O19 C20 1.208 . S
C20 O18 1.247 . S
C20 O19 1.208 . S
C21 O26 1.247 . S
C21 O27 1.208 . S
C22 O14 1.315 1_455 S
C22 O17 1.279 . S
C23 O24 1.315 1_655 S
C23 O25 1.279 1_655 S
O24 Cd16 2.223 . S
O24 C23 1.315 1_455 S
O25 Cd15 2.237 1_455 S
O25 C23 1.279 1_455 S
O26 Cd16 2.297 . S
O26 C21 1.247 . S
O27 Cd16 2.439 . S
O27 C21 1.208 . S
O28 Cd29 2.228 . S
O28 C36 1.315 1_565 S
Cd29 O28 2.228 . S
Cd29 O32 2.294 1_565 S
Cd29 O33 2.421 1_565 S
Cd29 O39 2.238 1_565 S
Cd30 O31 2.240 . S
Cd30 O38 2.223 . S
Cd30 O40 2.297 . S
Cd30 O41 2.439 . S
O31 Cd30 2.240 . S
O31 C36 1.279 . S
O32 Cd29 2.294 1_545 S
O32 C34 1.247 . S
O33 Cd29 2.421 1_545 S
O33 C34 1.208 . S
C34 O32 1.247 . S
C34 O33 1.208 . S
C35 O40 1.247 . S
C35 O41 1.208 . S
C36 O28 1.315 1_545 S
C36 O31 1.279 . S
C37 O38 1.315 1_565 S
C37 O39 1.279 1_565 S
O38 Cd30 2.223 . S
O38 C37 1.315 1_545 S
O39 Cd29 2.238 1_545 S
O39 C37 1.279 1_545 S
O40 Cd30 2.297 . S
O40 C35 1.247 . S
O41 Cd30 2.439 . S
O41 C35 1.208 . S
O42 Cd43 2.223 . S
O42 C50 1.315 . S
Cd43 O42 2.223 . S
Cd43 O46 2.297 . S
Cd43 O47 2.439 . S
Cd43 O53 2.240 . S
Cd44 O45 2.240 1_655 S
Cd44 O52 2.223 1_655 S
Cd44 O54 2.297 . S
Cd44 O55 2.439 . S
O45 Cd44 2.240 1_455 S
O45 C50 1.279 . S
O46 Cd43 2.297 . S
O46 C48 1.247 . S
O47 Cd43 2.439 . S
O47 C48 1.208 . S
C48 O46 1.247 . S
C48 O47 1.208 . S
C49 O54 1.247 . S
C49 O55 1.208 . S
C50 O42 1.315 . S
C50 O45 1.279 . S
C51 O52 1.315 . S
C51 O53 1.279 . S
O52 Cd44 2.223 1_455 S
O52 C51 1.315 . S
O53 Cd43 2.240 . S
O53 C51 1.279 . S
O54 Cd44 2.297 . S
O54 C49 1.247 . S
O55 Cd44 2.439 . S
O55 C49 1.208 . S
O56 Cd57 2.228 . S
O56 C64 1.315 1_565 S
Cd57 O56 2.228 . S
Cd57 O60 2.294 1_565 S
Cd57 O61 2.421 1_565 S
Cd57 O67 2.237 1_565 S
Cd58 O59 2.240 . S
Cd58 O66 2.223 . S
Cd58 O68 2.297 . S
Cd58 O69 2.439 . S
O59 Cd58 2.240 . S
O59 C64 1.279 . S
O60 Cd57 2.294 1_545 S
O60 C62 1.247 . S
O61 Cd57 2.421 1_545 S
O61 C62 1.208 . S
C62 O60 1.247 . S
C62 O61 1.208 . S
C63 O68 1.247 . S
C63 O69 1.208 . S
C64 O56 1.315 1_545 S
C64 O59 1.279 . S
C65 O66 1.315 1_565 S
C65 O67 1.279 1_565 S
O66 Cd58 2.223 . S
O66 C65 1.315 1_545 S
O67 Cd57 2.237 1_545 S
O67 C65 1.279 1_545 S
O68 Cd58 2.297 . S
O68 C63 1.247 . S
O69 Cd58 2.439 . S
O69 C63 1.208 . S
O70 Cd71 2.223 . S
O70 C78 1.315 . S
Cd71 O70 2.223 . S
Cd71 O74 2.297 . S
Cd71 O75 2.439 . S
Cd71 O81 2.240 . S
Cd72 O73 2.240 1_655 S
Cd72 O80 2.223 1_655 S
Cd72 O82 2.297 . S
Cd72 O83 2.439 . S
O73 Cd72 2.240 1_455 S
O73 C78 1.279 . S
O74 Cd71 2.297 . S
O74 C76 1.247 . S
O75 Cd71 2.439 . S
O75 C76 1.208 . S
C76 O74 1.247 . S
C76 O75 1.208 . S
C77 O82 1.247 . S
C77 O83 1.208 . S
C78 O70 1.315 . S
C78 O73 1.279 . S
C79 O80 1.315 . S
C79 O81 1.279 . S
O80 Cd72 2.223 1_455 S
O80 C79 1.315 . S
O81 Cd71 2.240 . S
O81 C79 1.279 . S
O82 Cd72 2.297 . S
O82 C77 1.247 . S
O83 Cd72 2.439 . S
O83 C77 1.208 . S
O84 Cd85 2.223 . S
O84 C92 1.315 . S
Cd85 O84 2.223 . S
Cd85 O88 2.297 . S
Cd85 O89 2.439 . S
Cd85 O95 2.240 . S
Cd86 O87 2.240 1_565 S
Cd86 O94 2.223 1_565 S
Cd86 O96 2.297 . S
Cd86 O97 2.439 . S
O87 Cd86 2.240 1_545 S
O87 C92 1.279 . S
O88 Cd85 2.297 . S
O88 C90 1.247 . S
O89 Cd85 2.439 . S
O89 C90 1.208 . S
C90 O88 1.247 . S
C90 O89 1.208 . S
C91 O96 1.247 . S
C91 O97 1.208 . S
C92 O84 1.315 . S
C92 O87 1.279 . S
C93 O94 1.315 . S
C93 O95 1.279 . S
O94 Cd86 2.223 1_545 S
O94 C93 1.315 . S
O95 Cd85 2.240 . S
O95 C93 1.279 . S
O96 Cd86 2.297 . S
O96 C91 1.247 . S
O97 Cd86 2.439 . S
O97 C91 1.208 . S
O98 Cd99 2.228 . S
O98 C106 1.315 1_655 S
Cd99 O98 2.228 . S
Cd99 O102 2.294 1_655 S
Cd99 O103 2.421 1_655 S
Cd99 O109 2.238 1_655 S
Cd100 O101 2.240 . S
Cd100 O108 2.223 . S
Cd100 O110 2.297 . S
Cd100 O111 2.439 . S
O101 Cd100 2.240 . S
O101 C106 1.279 . S
O102 Cd99 2.294 1_455 S
O102 C104 1.247 . S
O103 Cd99 2.421 1_455 S
O103 C104 1.208 . S
C104 O102 1.247 . S
C104 O103 1.208 . S
C105 O110 1.247 . S
C105 O111 1.208 . S
C106 O98 1.315 1_455 S
C106 O101 1.279 . S
C107 O108 1.315 1_655 S
C107 O109 1.279 1_655 S
O108 Cd100 2.223 . S
O108 C107 1.315 1_455 S
O109 Cd99 2.238 1_455 S
O109 C107 1.279 1_455 S
O110 Cd100 2.297 . S
O110 C105 1.247 . S
O111 Cd100 2.439 . S
O111 C105 1.208 . S
H112 C124 0.930 . S
H113 C126 0.930 1_565 S
H114 C127 0.930 . S
H115 C131 0.959 . S
H116 C131 0.959 . S
H117 C131 0.961 1_554 S
H118 C132 0.960 1_554 S
H119 C132 0.961 . S
H120 C132 0.959 . S
H121 C135 0.929 . S
H122 C136 0.931 . S
H123 C138 0.930 . S
C124 H112 0.930 . S
C124 C125 1.399 . S
C124 C129 1.399 . S
C125 C124 1.399 . S
C125 C126 1.376 . S
C126 H113 0.930 1_545 S
C126 C125 1.376 . S
C126 C127 1.388 1_545 S
C127 H114 0.930 . S
C127 C126 1.388 1_565 S
C127 C128 1.390 1_565 S
C128 C127 1.390 1_545 S
C128 C129 1.394 . S
C128 C134 1.465 1_554 S
C129 C124 1.399 . S
C129 C128 1.394 . S
C129 C130 1.516 1_554 S
C130 C129 1.516 1_556 S
C130 C131 1.502 . S
C130 C132 1.561 . S
C130 C133 1.526 . S
C131 H115 0.959 . S
C131 H116 0.959 . S
C131 H117 0.961 1_556 S
C131 C130 1.502 . S
C132 H118 0.960 1_556 S
C132 H119 0.961 . S
C132 H120 0.959 . S
C132 C130 1.561 . S
C133 C130 1.526 . S
C133 C134 1.396 . S
C133 C138 1.390 . S
C134 C128 1.465 1_556 S
C134 C133 1.396 . S
C134 C135 1.399 1_545 S
C135 H121 0.929 . S
C135 C134 1.399 1_565 S
C135 C136 1.385 . S
C136 H122 0.931 . S
C136 C135 1.385 . S
C136 C137 1.389 1_565 S
C137 C136 1.389 1_545 S
C137 C138 1.387 . S
C138 H123 0.930 . S
C138 C133 1.390 . S
C138 C137 1.387 . S
H139 C151 0.930 . S
H140 C153 0.930 . S
H141 C154 0.930 . S
H142 C158 0.959 . S
H143 C158 0.959 . S
H144 C158 0.961 . S
H145 C159 0.960 . S
H146 C159 0.961 . S
H147 C159 0.959 . S
H148 C162 0.929 1_655 S
H149 C163 0.931 . S
H150 C165 0.930 . S
C151 H139 0.930 . S
C151 C152 1.399 . S
C151 C156 1.399 . S
C152 C151 1.399 . S
C152 C153 1.376 1_455 S
C153 H140 0.930 . S
C153 C152 1.376 1_655 S
C153 C154 1.388 . S
C154 H141 0.930 . S
C154 C153 1.388 . S
C154 C155 1.390 1_655 S
C155 C154 1.390 1_455 S
C155 C156 1.394 . S
C155 C161 1.465 . S
C156 C151 1.399 . S
C156 C155 1.394 . S
C156 C157 1.516 . S
C157 C156 1.516 . S
C157 C158 1.502 . S
C157 C159 1.561 . S
C157 C160 1.526 . S
C158 H142 0.959 . S
C158 H143 0.959 . S
C158 H144 0.961 . S
C158 C157 1.502 . S
C159 H145 0.960 . S
C159 H146 0.961 . S
C159 H147 0.959 . S
C159 C157 1.561 . S
C160 C157 1.526 . S
C160 C161 1.396 . S
C160 C165 1.390 . S
C161 C155 1.465 . S
C161 C160 1.396 . S
C161 C162 1.399 . S
C162 H148 0.929 1_455 S
C162 C161 1.399 . S
C162 C163 1.385 . S
C163 H149 0.931 . S
C163 C162 1.385 . S
C163 C164 1.389 . S
C164 C163 1.389 . S
C164 C165 1.387 . S
C165 H150 0.930 . S
C165 C160 1.390 . S
C165 C164 1.387 . S
H166 C178 0.930 . S
H167 C180 0.930 1_565 S
H168 C181 0.930 . S
H169 C185 0.959 . S
H170 C185 0.959 . S
H171 C185 0.961 1_556 S
H172 C186 0.960 1_556 S
H173 C186 0.961 . S
H174 C186 0.959 . S
H175 C189 0.929 . S
H176 C190 0.931 . S
H177 C192 0.930 . S
C178 H166 0.930 . S
C178 C179 1.399 . S
C178 C183 1.399 . S
C179 C178 1.399 . S
C179 C180 1.376 . S
C180 H167 0.930 1_545 S
C180 C179 1.376 . S
C180 C181 1.388 1_545 S
C181 H168 0.930 . S
C181 C180 1.388 1_565 S
C181 C182 1.390 1_565 S
C182 C181 1.390 1_545 S
C182 C183 1.394 . S
C182 C188 1.465 1_556 S
C183 C178 1.399 . S
C183 C182 1.394 . S
C183 C184 1.516 1_556 S
C184 C183 1.516 1_554 S
C184 C185 1.502 . S
C184 C186 1.561 . S
C184 C187 1.526 . S
C185 H169 0.959 . S
C185 H170 0.959 . S
C185 H171 0.961 1_554 S
C185 C184 1.502 . S
C186 H172 0.960 1_554 S
C186 H173 0.961 . S
C186 H174 0.959 . S
C186 C184 1.561 . S
C187 C184 1.526 . S
C187 C188 1.396 . S
C187 C192 1.390 . S
C188 C182 1.465 1_554 S
C188 C187 1.396 . S
C188 C189 1.399 1_545 S
C189 H175 0.929 . S
C189 C188 1.399 1_565 S
C189 C190 1.385 . S
C190 H176 0.931 . S
C190 C189 1.385 . S
C190 C191 1.389 1_565 S
C191 C190 1.389 1_545 S
C191 C192 1.387 . S
C192 H177 0.930 . S
C192 C187 1.390 . S
C192 C191 1.387 . S
H193 C205 0.930 . S
H194 C207 0.930 1_655 S
H195 C208 0.930 1_655 S
H196 C212 0.959 . S
H197 C212 0.959 . S
H198 C212 0.961 . S
H199 C213 0.960 . S
H200 C213 0.961 . S
H201 C213 0.959 1_655 S
H202 C216 0.929 . S
H203 C217 0.931 . S
H204 C219 0.930 . S
C205 H193 0.930 . S
C205 C206 1.399 . S
C205 C210 1.399 . S
C206 C205 1.399 . S
C206 C207 1.376 . S
C207 H194 0.930 1_455 S
C207 C206 1.376 . S
C207 C208 1.388 . S
C208 H195 0.930 1_455 S
C208 C207 1.388 . S
C208 C209 1.390 . S
C209 C208 1.390 . S
C209 C210 1.394 . S
C209 C215 1.465 . S
C210 C205 1.399 . S
C210 C209 1.394 . S
C210 C211 1.516 . S
C211 C210 1.516 . S
C211 C212 1.502 . S
C211 C213 1.561 . S
C211 C214 1.526 . S
C212 H196 0.959 . S
C212 H197 0.959 . S
C212 H198 0.961 . S
C212 C211 1.502 . S
C213 H199 0.960 . S
C213 H200 0.961 . S
C213 H201 0.959 1_455 S
C213 C211 1.561 . S
C214 C211 1.526 . S
C214 C215 1.396 . S
C214 C219 1.390 . S
C215 C209 1.465 . S
C215 C214 1.396 . S
C215 C216 1.399 . S
C216 H202 0.929 . S
C216 C215 1.399 . S
C216 C217 1.385 . S
C217 H203 0.931 . S
C217 C216 1.385 . S
C217 C218 1.389 . S
C218 C217 1.389 . S
C218 C219 1.387 . S
C219 H204 0.930 . S
C219 C214 1.390 . S
C219 C218 1.387 . S
H220 C232 0.930 . S
H221 C234 0.930 . S
H222 C235 0.930 . S
H223 C239 0.959 . S
H224 C239 0.959 . S
H225 C239 0.961 . S
H226 C240 0.960 . S
H227 C240 0.961 . S
H228 C240 0.959 . S
H229 C243 0.929 . S
H230 C244 0.931 . S
H231 C246 0.930 . S
C232 H220 0.930 . S
C232 C233 1.399 . S
C232 C237 1.399 . S
C233 C232 1.399 . S
C233 C234 1.376 . S
C234 H221 0.930 . S
C234 C233 1.376 . S
C234 C235 1.388 . S
C235 H222 0.930 . S
C235 C234 1.388 . S
C235 C236 1.390 . S
C236 C235 1.390 . S
C236 C237 1.394 . S
C236 C242 1.465 . S
C237 C232 1.399 . S
C237 C236 1.394 . S
C237 C238 1.516 . S
C238 C237 1.516 . S
C238 C239 1.502 . S
C238 C240 1.561 1_545 S
C238 C241 1.526 . S
C239 H223 0.959 . S
C239 H224 0.959 . S
C239 H225 0.961 . S
C239 C238 1.502 . S
C240 H226 0.960 . S
C240 H227 0.961 . S
C240 H228 0.959 . S
C240 C238 1.561 1_565 S
C241 C238 1.526 . S
C241 C242 1.396 . S
C241 C246 1.390 . S
C242 C236 1.465 . S
C242 C241 1.396 . S
C242 C243 1.399 . S
C243 H229 0.929 . S
C243 C242 1.399 . S
C243 C244 1.385 . S
C244 H230 0.931 . S
C244 C243 1.385 . S
C244 C245 1.389 . S
C245 C244 1.389 . S
C245 C246 1.387 . S
C246 H231 0.930 . S
C246 C241 1.390 . S
C246 C245 1.387 . S
H247 C259 0.930 . S
H248 C261 0.930 . S
H249 C262 0.938 . S
H250 C266 0.959 . S
H251 C266 0.959 . S
H252 C266 0.961 . S
H253 C267 0.960 . S
H254 C267 0.961 . S
H255 C267 0.959 . S
H256 C270 0.926 1_655 S
H257 C271 0.933 . S
H258 C273 0.930 . S
C259 H247 0.930 . S
C259 C260 1.399 . S
C259 C264 1.399 . S
C260 C259 1.399 . S
C260 C261 1.376 . S
C261 H248 0.930 . S
C261 C260 1.376 . S
C261 C262 1.388 . S
C262 H249 0.938 . S
C262 C261 1.388 . S
C262 C263 1.390 . S
C263 C262 1.390 . S
C263 C264 1.394 . S
C263 C269 1.465 . S
C264 C259 1.399 . S
C264 C263 1.394 . S
C264 C265 1.516 . S
C265 C264 1.516 . S
C265 C266 1.502 . S
C265 C267 1.561 . S
C265 C268 1.526 . S
C266 H250 0.959 . S
C266 H251 0.959 . S
C266 H252 0.961 . S
C266 C265 1.502 . S
C267 H253 0.960 . S
C267 H254 0.961 . S
C267 H255 0.959 . S
C267 C265 1.561 . S
C268 C265 1.526 . S
C268 C269 1.396 . S
C268 C273 1.390 . S
C269 C263 1.465 . S
C269 C268 1.396 . S
C269 C270 1.403 . S
C270 H256 0.926 1_455 S
C270 C269 1.403 . S
C270 C271 1.385 1_455 S
C271 H257 0.933 . S
C271 C270 1.385 1_655 S
C271 C272 1.388 1_655 S
C272 C271 1.388 1_455 S
C272 C273 1.387 . S
C273 H258 0.930 . S
C273 C268 1.390 . S
C273 C272 1.387 . S
H274 C286 0.930 . S
H275 C288 0.928 1_565 S
H276 C289 0.930 1_565 S
H277 C293 0.959 . S
H278 C293 0.959 . S
H279 C293 0.961 . S
H280 C294 0.960 . S
H281 C294 0.961 . S
H282 C294 0.959 1_565 S
H283 C297 0.929 . S
H284 C298 0.931 . S
H285 C300 0.930 . S
C286 H274 0.930 . S
C286 C287 1.399 . S
C286 C291 1.399 . S
C287 C286 1.399 . S
C287 C288 1.379 . S
C288 H275 0.928 1_545 S
C288 C287 1.379 . S
C288 C289 1.389 . S
C289 H276 0.930 1_545 S
C289 C288 1.389 . S
C289 C290 1.390 . S
C290 C289 1.390 . S
C290 C291 1.394 . S
C290 C296 1.465 . S
C291 C286 1.399 . S
C291 C290 1.394 . S
C291 C292 1.516 . S
C292 C291 1.516 . S
C292 C293 1.502 . S
C292 C294 1.561 . S
C292 C295 1.526 . S
C293 H277 0.959 . S
C293 H278 0.959 . S
C293 H279 0.961 . S
C293 C292 1.502 . S
C294 H280 0.960 . S
C294 H281 0.961 . S
C294 H282 0.959 1_545 S
C294 C292 1.561 . S
C295 C292 1.526 . S
C295 C296 1.396 . S
C295 C300 1.390 . S
C296 C290 1.465 . S
C296 C295 1.396 . S
C296 C297 1.399 . S
C297 H283 0.929 . S
C297 C296 1.399 . S
C297 C298 1.385 . S
C298 H284 0.931 . S
C298 C297 1.385 . S
C298 C299 1.389 . S
C299 C298 1.389 . S
C299 C300 1.387 . S
C300 H285 0.930 . S
C300 C295 1.390 . S
C300 C299 1.387 . S
H301 C313 0.930 1_655 S
H302 C315 0.930 . S
H303 C316 0.930 . S
H304 C320 0.959 1_455 S
H305 C320 0.959 . S
H306 C320 0.961 . S
H307 C321 0.960 . S
H308 C321 0.961 . S
H309 C321 0.959 . S
H310 C324 0.929 . S
H311 C325 0.931 . S
H312 C327 0.930 . S
C313 H301 0.930 1_455 S
C313 C314 1.399 . S
C313 C318 1.399 . S
C314 C313 1.399 . S
C314 C315 1.376 . S
C315 H302 0.930 . S
C315 C314 1.376 . S
C315 C316 1.388 . S
C316 H303 0.930 . S
C316 C315 1.388 . S
C316 C317 1.390 . S
C317 C316 1.390 . S
C317 C318 1.394 . S
C317 C323 1.465 . S
C318 C313 1.399 . S
C318 C317 1.394 . S
C318 C319 1.516 1_455 S
C319 C318 1.516 1_655 S
C319 C320 1.502 . S
C319 C321 1.561 . S
C319 C322 1.526 1_655 S
C320 H304 0.959 1_655 S
C320 H305 0.959 . S
C320 H306 0.961 . S
C320 C319 1.502 . S
C321 H307 0.960 . S
C321 H308 0.961 . S
C321 H309 0.959 . S
C321 C319 1.561 . S
C322 C319 1.526 1_455 S
C322 C323 1.396 . S
C322 C327 1.390 . S
C323 C317 1.465 . S
C323 C322 1.396 . S
C323 C324 1.399 . S
C324 H310 0.929 . S
C324 C323 1.399 . S
C324 C325 1.385 . S
C325 H311 0.931 . S
C325 C324 1.385 . S
C325 C326 1.389 . S
C326 C325 1.389 . S
C326 C327 1.387 . S
C327 H312 0.930 . S
C327 C322 1.390 . S
C327 C326 1.387 . S
H328 C340 0.930 . S
H329 C342 0.930 . S
H330 C343 0.930 . S
H331 C347 0.959 . S
H332 C347 0.959 . S
H333 C347 0.961 . S
H334 C348 0.960 . S
H335 C348 0.961 . S
H336 C348 0.959 . S
H337 C351 0.929 . S
H338 C352 0.931 . S
H339 C354 0.930 . S
C340 H328 0.930 . S
C340 C341 1.399 . S
C340 C345 1.399 . S
C341 C340 1.399 . S
C341 C342 1.376 . S
C342 H329 0.930 . S
C342 C341 1.376 . S
C342 C343 1.388 . S
C343 H330 0.930 . S
C343 C342 1.388 . S
C343 C344 1.390 . S
C344 C343 1.390 . S
C344 C345 1.394 . S
C344 C350 1.465 . S
C345 C340 1.399 . S
C345 C344 1.394 . S
C345 C346 1.516 . S
C346 C345 1.516 . S
C346 C347 1.502 . S
C346 C348 1.561 . S
C346 C349 1.526 . S
C347 H331 0.959 . S
C347 H332 0.959 . S
C347 H333 0.961 . S
C347 C346 1.502 . S
C348 H334 0.960 . S
C348 H335 0.961 . S
C348 H336 0.959 . S
C348 C346 1.561 . S
C349 C346 1.526 . S
C349 C350 1.396 . S
C349 C354 1.390 . S
C350 C344 1.465 . S
C350 C349 1.396 . S
C350 C351 1.399 . S
C351 H337 0.929 . S
C351 C350 1.399 . S
C351 C352 1.385 . S
C352 H338 0.931 . S
C352 C351 1.385 . S
C352 C353 1.389 . S
C353 C352 1.389 . S
C353 C354 1.387 . S
C354 H339 0.930 . S
C354 C349 1.390 . S
C354 C353 1.387 . S
H355 C367 0.930 . S
H356 C369 0.930 . S
H357 C370 0.930 . S
H358 C374 0.959 . S
H359 C374 0.959 . S
H360 C374 0.961 . S
H361 C375 0.960 . S
H362 C375 0.961 . S
H363 C375 0.959 . S
H364 C378 0.929 . S
H365 C379 0.931 . S
H366 C381 0.930 . S
C367 H355 0.930 . S
C367 C368 1.399 . S
C367 C372 1.399 . S
C368 C367 1.399 . S
C368 C369 1.376 . S
C369 H356 0.930 . S
C369 C368 1.376 . S
C369 C370 1.388 . S
C370 H357 0.930 . S
C370 C369 1.388 . S
C370 C371 1.390 . S
C371 C370 1.390 . S
C371 C372 1.394 . S
C371 C377 1.465 . S
C372 C367 1.399 . S
C372 C371 1.394 . S
C372 C373 1.516 . S
C373 C372 1.516 . S
C373 C374 1.502 . S
C373 C375 1.561 . S
C373 C376 1.526 . S
C374 H358 0.959 . S
C374 H359 0.959 . S
C374 H360 0.961 . S
C374 C373 1.502 . S
C375 H361 0.960 . S
C375 H362 0.961 . S
C375 H363 0.959 . S
C375 C373 1.561 . S
C376 C373 1.526 . S
C376 C377 1.396 . S
C376 C381 1.390 . S
C377 C371 1.465 . S
C377 C376 1.396 . S
C377 C378 1.399 . S
C378 H364 0.929 . S
C378 C377 1.399 . S
C378 C379 1.385 . S
C379 H365 0.931 . S
C379 C378 1.385 . S
C379 C380 1.389 . S
C380 C379 1.389 . S
C380 C381 1.387 . S
C381 H366 0.930 . S
C381 C376 1.390 . S
C381 C380 1.387 . S
H382 C394 0.930 . S
H383 C396 0.930 . S
H384 C397 0.930 . S
H385 C401 0.959 . S
H386 C401 0.959 . S
H387 C401 0.961 . S
H388 C402 0.960 . S
H389 C402 0.961 . S
H390 C402 0.959 . S
H391 C405 0.929 . S
H392 C406 0.931 . S
H393 C408 0.930 . S
C394 H382 0.930 . S
C394 C395 1.399 . S
C394 C399 1.399 . S
C395 C394 1.399 . S
C395 C396 1.376 . S
C396 H383 0.930 . S
C396 C395 1.376 . S
C396 C397 1.388 . S
C397 H384 0.930 . S
C397 C396 1.388 . S
C397 C398 1.390 . S
C398 C397 1.390 . S
C398 C399 1.394 . S
C398 C404 1.465 . S
C399 C394 1.399 . S
C399 C398 1.394 . S
C399 C400 1.516 . S
C400 C399 1.516 . S
C400 C401 1.502 . S
C400 C402 1.561 . S
C400 C403 1.526 . S
C401 H385 0.959 . S
C401 H386 0.959 . S
C401 H387 0.961 . S
C401 C400 1.502 . S
C402 H388 0.960 . S
C402 H389 0.961 . S
C402 H390 0.959 . S
C402 C400 1.561 . S
C403 C400 1.526 . S
C403 C404 1.396 . S
C403 C408 1.390 . S
C404 C398 1.465 . S
C404 C403 1.396 . S
C404 C405 1.399 . S
C405 H391 0.929 . S
C405 C404 1.399 . S
C405 C406 1.385 . S
C406 H392 0.931 . S
C406 C405 1.385 . S
C406 C407 1.389 . S
C407 C406 1.389 . S
C407 C408 1.387 . S
C408 H393 0.930 . S
C408 C403 1.390 . S
C408 C407 1.387 . S
H409 C421 0.930 . S
H410 C423 0.930 . S
H411 C424 0.930 . S
H412 C428 0.959 . S
H413 C428 0.959 . S
H414 C428 0.961 . S
H415 C429 0.960 . S
H416 C429 0.961 . S
H417 C429 0.959 . S
H418 C432 0.929 . S
H419 C433 0.931 . S
H420 C435 0.930 . S
C421 H409 0.930 . S
C421 C422 1.399 . S
C421 C426 1.399 . S
C422 C421 1.399 . S
C422 C423 1.376 . S
C423 H410 0.930 . S
C423 C422 1.376 . S
C423 C424 1.388 . S
C424 H411 0.930 . S
C424 C423 1.388 . S
C424 C425 1.390 . S
C425 C424 1.390 . S
C425 C426 1.394 . S
C425 C431 1.465 . S
C426 C421 1.399 . S
C426 C425 1.394 . S
C426 C427 1.516 . S
C427 C426 1.516 . S
C427 C428 1.502 . S
C427 C429 1.561 . S
C427 C430 1.526 . S
C428 H412 0.959 . S
C428 H413 0.959 . S
C428 H414 0.961 . S
C428 C427 1.502 . S
C429 H415 0.960 . S
C429 H416 0.961 . S
C429 H417 0.959 . S
C429 C427 1.561 . S
C430 C427 1.526 . S
C430 C431 1.396 . S
C430 C435 1.390 . S
C431 C425 1.465 . S
C431 C430 1.396 . S
C431 C432 1.399 . S
C432 H418 0.929 . S
C432 C431 1.399 . S
C432 C433 1.385 . S
C433 H419 0.931 . S
C433 C432 1.385 . S
C433 C434 1.389 . S
C434 C433 1.389 . S
C434 C435 1.387 . S
C435 H420 0.930 . S
C435 C430 1.390 . S
C435 C434 1.387 . S
H436 C448 0.930 . S
H437 C450 0.930 . S
H438 C451 0.930 . S
H439 C455 0.959 . S
H440 C455 0.959 . S
H441 C455 0.961 . S
H442 C456 0.960 . S
H443 C456 0.961 . S
H444 C456 0.959 . S
H445 C459 0.929 . S
H446 C460 0.931 . S
H447 C462 0.930 . S
C448 H436 0.930 . S
C448 C449 1.399 . S
C448 C453 1.399 . S
C449 C448 1.399 . S
C449 C450 1.376 . S
C450 H437 0.930 . S
C450 C449 1.376 . S
C450 C451 1.388 . S
C451 H438 0.930 . S
C451 C450 1.388 . S
C451 C452 1.390 . S
C452 C451 1.390 . S
C452 C453 1.394 . S
C452 C458 1.465 . S
C453 C448 1.399 . S
C453 C452 1.394 . S
C453 C454 1.516 . S
C454 C453 1.516 . S
C454 C455 1.502 . S
C454 C456 1.561 . S
C454 C457 1.526 . S
C455 H439 0.959 . S
C455 H440 0.959 . S
C455 H441 0.961 . S
C455 C454 1.502 . S
C456 H442 0.960 . S
C456 H443 0.961 . S
C456 H444 0.959 . S
C456 C454 1.561 . S
C457 C454 1.526 . S
C457 C458 1.396 . S
C457 C462 1.390 . S
C458 C452 1.465 . S
C458 C457 1.396 . S
C458 C459 1.399 . S
C459 H445 0.929 . S
C459 C458 1.399 . S
C459 C460 1.385 . S
C460 H446 0.931 . S
C460 C459 1.385 . S
C460 C461 1.389 . S
C461 C460 1.389 . S
C461 C462 1.387 . S
C462 H447 0.930 . S
C462 C457 1.390 . S
C462 C461 1.387 . S
H463 C475 0.930 . S
H464 C477 0.930 . S
H465 C478 0.930 . S
H466 C482 0.959 . S
H467 C482 0.959 . S
H468 C482 0.961 . S
H469 C483 0.960 . S
H470 C483 0.961 . S
H471 C483 0.959 . S
H472 C486 0.929 . S
H473 C487 0.931 . S
H474 C489 0.930 . S
C475 H463 0.930 . S
C475 C476 1.399 . S
C475 C480 1.399 . S
C476 C475 1.399 . S
C476 C477 1.376 . S
C477 H464 0.930 . S
C477 C476 1.376 . S
C477 C478 1.388 . S
C478 H465 0.930 . S
C478 C477 1.388 . S
C478 C479 1.390 . S
C479 C478 1.390 . S
C479 C480 1.394 . S
C479 C485 1.465 . S
C480 C475 1.399 . S
C480 C479 1.394 . S
C480 C481 1.516 . S
C481 C480 1.516 . S
C481 C482 1.502 . S
C481 C483 1.561 . S
C481 C484 1.526 . S
C482 H466 0.959 . S
C482 H467 0.959 . S
C482 H468 0.961 . S
C482 C481 1.502 . S
C483 H469 0.960 . S
C483 H470 0.961 . S
C483 H471 0.959 . S
C483 C481 1.561 . S
C484 C481 1.526 . S
C484 C485 1.396 . S
C484 C489 1.390 . S
C485 C479 1.465 . S
C485 C484 1.396 . S
C485 C486 1.399 . S
C486 H472 0.929 . S
C486 C485 1.399 . S
C486 C487 1.385 . S
C487 H473 0.931 . S
C487 C486 1.385 . S
C487 C488 1.389 . S
C488 C487 1.389 . S
C488 C489 1.387 . S
C489 H474 0.930 . S
C489 C484 1.390 . S
C489 C488 1.387 . S
H490 C502 0.930 . S
H491 C504 0.930 . S
H492 C505 0.930 . S
H493 C509 0.959 . S
H494 C509 0.959 . S
H495 C509 0.961 . S
H496 C510 0.960 . S
H497 C510 0.961 . S
H498 C510 0.959 . S
H499 C513 0.929 . S
H500 C514 0.931 . S
H501 C516 0.930 . S
C502 H490 0.930 . S
C502 C503 1.399 . S
C502 C507 1.399 . S
C503 C502 1.399 . S
C503 C504 1.376 . S
C504 H491 0.930 . S
C504 C503 1.376 . S
C504 C505 1.388 . S
C505 H492 0.930 . S
C505 C504 1.388 . S
C505 C506 1.390 . S
C506 C505 1.390 . S
C506 C507 1.394 . S
C506 C512 1.465 . S
C507 C502 1.399 . S
C507 C506 1.394 . S
C507 C508 1.516 . S
C508 C507 1.516 . S
C508 C509 1.502 . S
C508 C510 1.561 . S
C508 C511 1.526 . S
C509 H493 0.959 . S
C509 H494 0.959 . S
C509 H495 0.961 . S
C509 C508 1.502 . S
C510 H496 0.960 . S
C510 H497 0.961 . S
C510 H498 0.959 . S
C510 C508 1.561 . S
C511 C508 1.526 . S
C511 C512 1.396 . S
C511 C516 1.390 . S
C512 C506 1.465 . S
C512 C511 1.396 . S
C512 C513 1.399 . S
C513 H499 0.929 . S
C513 C512 1.399 . S
C513 C514 1.385 . S
C514 H500 0.931 . S
C514 C513 1.385 . S
C514 C515 1.389 . S
C515 C514 1.389 . S
C515 C516 1.387 . S
C516 H501 0.930 . S
C516 C511 1.390 . S
C516 C515 1.387 . S
H517 C529 0.930 . S
H518 C531 0.930 . S
H519 C532 0.930 . S
H520 C536 0.959 . S
H521 C536 0.959 . S
H522 C536 0.961 . S
H523 C537 0.960 . S
H524 C537 0.961 . S
H525 C537 0.959 . S
H526 C540 0.929 . S
H527 C541 0.931 . S
H528 C543 0.930 . S
C529 H517 0.930 . S
C529 C530 1.399 . S
C529 C534 1.399 . S
C530 C529 1.399 . S
C530 C531 1.376 . S
C531 H518 0.930 . S
C531 C530 1.376 . S
C531 C532 1.388 . S
C532 H519 0.930 . S
C532 C531 1.388 . S
C532 C533 1.390 . S
C533 C532 1.390 . S
C533 C534 1.394 . S
C533 C539 1.465 . S
C534 C529 1.399 . S
C534 C533 1.394 . S
C534 C535 1.516 . S
C535 C534 1.516 . S
C535 C536 1.502 . S
C535 C537 1.561 . S
C535 C538 1.526 . S
C536 H520 0.959 . S
C536 H521 0.959 . S
C536 H522 0.961 . S
C536 C535 1.502 . S
C537 H523 0.960 . S
C537 H524 0.961 . S
C537 H525 0.959 . S
C537 C535 1.561 . S
C538 C535 1.526 . S
C538 C539 1.396 . S
C538 C543 1.390 . S
C539 C533 1.465 . S
C539 C538 1.396 . S
C539 C540 1.399 . S
C540 H526 0.929 . S
C540 C539 1.399 . S
C540 C541 1.385 . S
C541 H527 0.931 . S
C541 C540 1.385 . S
C541 C542 1.389 . S
C542 C541 1.389 . S
C542 C543 1.387 . S
C543 H528 0.930 . S
C543 C538 1.390 . S
C543 C542 1.387 . S
C125 C8 1.688 . S
C137 C64 1.712 . S
C152 C22 1.717 . S
C164 C78 1.690 . S
C179 C92 1.691 . S
C191 C36 1.721 . S
C206 C106 1.706 . S
C218 C50 1.689 . S
C233 C6 1.298 . S
C245 C34 1.264 . S
C260 C20 1.241 . S
C272 C48 1.313 . S
C287 C90 1.314 . S
C299 C62 1.247 . S
C314 C76 1.255 . S
C326 C104 1.306 . S
C341 C79 2.078 . S
C353 C9 2.061 . S
C368 C23 2.051 . S
C380 C93 2.075 . S
C395 C107 2.075 . S
C407 C37 2.049 . S
C422 C51 2.067 . S
C434 C65 2.077 . S
C449 C91 0.817 . S
C461 C49 0.978 . S
C476 C7 0.829 . S
C488 C105 0.960 . S
C503 C21 0.812 . S
C515 C63 0.997 . S
C530 C77 0.960 . S
C542 C35 0.905 . S
