# Generated by pormake.
# Topology wjd, (6)-cn, num edge types: 1
# Building blocks:
#     Node 0, Type 0, BuildingBlock: PAMTUU_clean_sbu_0, # of connection points: 6
#     Node 1, Type 0, BuildingBlock: PAMTUU_clean_sbu_0, # of connection points: 6
#     Node 2, Type 0, BuildingBlock: PAMTUU_clean_sbu_0, # of connection points: 6
#     Node 3, Type 0, BuildingBlock: PAMTUU_clean_sbu_0, # of connection points: 6
#     Node 4, Type 0, BuildingBlock: PAMTUU_clean_sbu_0, # of connection points: 6
#     Node 5, Type 0, BuildingBlock: PAMTUU_clean_sbu_0, # of connection points: 6
#     Node 6, Type 0, BuildingBlock: PAMTUU_clean_sbu_0, # of connection points: 6
#     Node 7, Type 0, BuildingBlock: PAMTUU_clean_sbu_0, # of connection points: 6
#     Node 8, Type 0, BuildingBlock: PAMTUU_clean_sbu_0, # of connection points: 6
#     Node 9, Type 0, BuildingBlock: PAMTUU_clean_sbu_0, # of connection points: 6
#     Node 10, Type 0, BuildingBlock: PAMTUU_clean_sbu_0, # of connection points: 6
#     Node 11, Type 0, BuildingBlock: PAMTUU_clean_sbu_0, # of connection points: 6
#     Edge 12, Type (0, 0), BuildingBlock: KIFKEQ_clean_linker_1, # of connection points: 2
#     Edge 13, Type (0, 0), BuildingBlock: KIFKEQ_clean_linker_1, # of connection points: 2
#     Edge 14, Type (0, 0), BuildingBlock: KIFKEQ_clean_linker_1, # of connection points: 2
#     Edge 15, Type (0, 0), BuildingBlock: KIFKEQ_clean_linker_1, # of connection points: 2
#     Edge 16, Type (0, 0), BuildingBlock: KIFKEQ_clean_linker_1, # of connection points: 2
#     Edge 17, Type (0, 0), BuildingBlock: KIFKEQ_clean_linker_1, # of connection points: 2
#     Edge 18, Type (0, 0), BuildingBlock: KIFKEQ_clean_linker_1, # of connection points: 2
#     Edge 19, Type (0, 0), BuildingBlock: KIFKEQ_clean_linker_1, # of connection points: 2
#     Edge 20, Type (0, 0), BuildingBlock: KIFKEQ_clean_linker_1, # of connection points: 2
#     Edge 21, Type (0, 0), BuildingBlock: KIFKEQ_clean_linker_1, # of connection points: 2
#     Edge 22, Type (0, 0), BuildingBlock: KIFKEQ_clean_linker_1, # of connection points: 2
#     Edge 23, Type (0, 0), BuildingBlock: KIFKEQ_clean_linker_1, # of connection points: 2
#     Edge 24, Type (0, 0), BuildingBlock: KIFKEQ_clean_linker_1, # of connection points: 2
#     Edge 25, Type (0, 0), BuildingBlock: KIFKEQ_clean_linker_1, # of connection points: 2
#     Edge 26, Type (0, 0), BuildingBlock: KIFKEQ_clean_linker_1, # of connection points: 2
#     Edge 27, Type (0, 0), BuildingBlock: KIFKEQ_clean_linker_1, # of connection points: 2
#     Edge 28, Type (0, 0), BuildingBlock: KIFKEQ_clean_linker_1, # of connection points: 2
#     Edge 29, Type (0, 0), BuildingBlock: KIFKEQ_clean_linker_1, # of connection points: 2
#     Edge 30, Type (0, 0), BuildingBlock: KIFKEQ_clean_linker_1, # of connection points: 2
#     Edge 31, Type (0, 0), BuildingBlock: KIFKEQ_clean_linker_1, # of connection points: 2
#     Edge 32, Type (0, 0), BuildingBlock: KIFKEQ_clean_linker_1, # of connection points: 2
#     Edge 33, Type (0, 0), BuildingBlock: KIFKEQ_clean_linker_1, # of connection points: 2
#     Edge 34, Type (0, 0), BuildingBlock: KIFKEQ_clean_linker_1, # of connection points: 2
#     Edge 35, Type (0, 0), BuildingBlock: KIFKEQ_clean_linker_1, # of connection points: 2
#     Edge 36, Type (0, 0), BuildingBlock: KIFKEQ_clean_linker_1, # of connection points: 2
#     Edge 37, Type (0, 0), BuildingBlock: KIFKEQ_clean_linker_1, # of connection points: 2
#     Edge 38, Type (0, 0), BuildingBlock: KIFKEQ_clean_linker_1, # of connection points: 2
#     Edge 39, Type (0, 0), BuildingBlock: KIFKEQ_clean_linker_1, # of connection points: 2
#     Edge 40, Type (0, 0), BuildingBlock: KIFKEQ_clean_linker_1, # of connection points: 2
#     Edge 41, Type (0, 0), BuildingBlock: KIFKEQ_clean_linker_1, # of connection points: 2
#     Edge 42, Type (0, 0), BuildingBlock: KIFKEQ_clean_linker_1, # of connection points: 2
#     Edge 43, Type (0, 0), BuildingBlock: KIFKEQ_clean_linker_1, # of connection points: 2
#     Edge 44, Type (0, 0), BuildingBlock: KIFKEQ_clean_linker_1, # of connection points: 2
#     Edge 45, Type (0, 0), BuildingBlock: KIFKEQ_clean_linker_1, # of connection points: 2
#     Edge 46, Type (0, 0), BuildingBlock: KIFKEQ_clean_linker_1, # of connection points: 2
#     Edge 47, Type (0, 0), BuildingBlock: KIFKEQ_clean_linker_1, # of connection points: 2
# Relax obj value: 0.087
# Max RMSD: 0.210
# Mean RMSD: 0.210
data_MOF--net-wjd--node1-PAMTUU_clean_sbu_0--edge1-KIFKEQ_clean_linker_1
_symmetry_space_group_name_H-M    P1
_symmetry_Int_Tables_number       1
_symmetry_cell_setting            triclinic
loop_
_symmetry_equiv_pos_as_xyz
'x, y, z'
_cell_length_a     40.119919
_cell_length_b     40.048771
_cell_length_c     54.193748
_cell_angle_alpha  90.210122
_cell_angle_beta   89.834087
_cell_angle_gamma 120.13253
loop_
_atom_site_label
_atom_site_type_symbol
_atom_site_fract_x
_atom_site_fract_y
_atom_site_fract_z
_atom_type_partial_charge
Tb0 Tb 0.33809 0.11207 0.14794 0.0
Tb1 Tb 0.38703 0.19488 0.11811 0.0
C2 C 0.38529 0.19096 0.17564 0.0
C3 C 0.25695 1.01615 0.16454 0.0
C4 C 0.17968 0.95737 0.15685 0.0
C5 C 0.19843 0.96012 0.17935 0.0
C6 C 0.23667 0.98923 0.18313 0.0
C7 C 0.23859 1.01351 0.14201 0.0
C8 C 0.20038 0.98436 0.13817 0.0
C9 C 0.29636 0.04807 0.16923 0.0
O10 O 0.29532 0.12474 0.1326 0.0
O11 O 0.33404 0.19043 0.13125 0.0
O12 O 0.34979 0.15246 0.09025 0.0
O13 O 0.342 0.09829 0.10989 0.0
O14 O 0.39556 0.25012 0.11111 0.0
O15 O 0.43114 0.2311 0.09337 0.0
O16 O 0.4211 0.16686 0.1178 0.0
O17 O 0.39921 0.12982 0.1528 0.0
O18 O 0.35276 0.15812 0.17429 0.0
O19 O 0.40762 0.20638 0.15628 0.0
C20 C 0.29975 0.15954 0.13161 0.0
O21 O 0.32214 0.05377 0.15256 0.0
O22 O 0.29887 0.08039 0.17614 0.0
C23 C 0.3399 0.11563 0.09 0.0
C24 C 0.46003 0.29773 0.10294 0.0
C25 C 0.52382 0.37185 0.11279 0.0
C26 C 0.512 0.35943 0.08838 0.0
C27 C 0.48045 0.32282 0.08355 0.0
C28 C 0.47186 0.30967 0.12736 0.0
C29 C 0.50339 0.34647 0.13224 0.0
C30 C 0.42567 0.26007 0.0973 0.0
C31 C 0.42631 0.14868 0.13613 0.0
H32 H 0.18329 0.94028 0.19429 0.0
H33 H 0.25024 0.99109 0.20074 0.0
H34 H 0.25372 0.03422 0.12746 0.0
H35 H 0.18714 0.98289 0.12051 0.0
H36 H 0.52668 0.37834 0.07296 0.0
H37 H 0.47167 0.31426 0.0646 0.0
H38 H 0.45652 0.29071 0.14264 0.0
H39 H 0.51194 0.35492 0.15122 0.0
Tb40 Tb 0.84428 0.66377 0.4094 0.0
Tb41 Tb 0.81591 0.71636 0.37871 0.0
C42 C 0.81242 0.71205 0.4367 0.0
C43 C 0.87435 0.59141 0.42262 0.0
C44 C 0.88772 0.53122 0.40801 0.0
C45 C 0.90315 0.55155 0.43021 0.0
C46 C 0.8965 0.58132 0.43741 0.0
C47 C 0.85924 0.57163 0.40032 0.0
C48 C 0.86579 0.54178 0.3931 0.0
C49 C 0.86762 0.62281 0.43053 0.0
O50 O 0.78203 0.63117 0.40783 0.0
O51 O 0.77026 0.65627 0.37296 0.0
O52 O 0.84646 0.69993 0.35295 0.0
O53 O 0.83746 0.64422 0.37099 0.0
O54 O 0.7771 0.73649 0.37314 0.0
O55 O 0.82759 0.75647 0.35042 0.0
O56 O 0.87074 0.75633 0.39605 0.0
O57 O 0.89482 0.71546 0.39621 0.0
O58 O 0.83728 0.69957 0.43758 0.0
O59 O 0.79573 0.71247 0.41606 0.0
C60 C 0.75999 0.62821 0.38913 0.0
O61 O 0.89029 0.65649 0.4209 0.0
O62 O 0.832 0.61504 0.43065 0.0
C63 C 0.84557 0.66683 0.35168 0.0
C64 C 0.81052 0.80219 0.36204 0.0
C65 C 0.83507 0.88069 0.37094 0.0
C66 C 0.81385 0.86195 0.34959 0.0
C67 C 0.80175 0.82304 0.34517 0.0
C68 C 0.83161 0.82065 0.38338 0.0
C69 C 0.8438 0.85954 0.38779 0.0
C70 C 0.79936 0.76183 0.35687 0.0
C71 C 0.90011 0.7505 0.39664 0.0
H72 H 0.91966 0.54388 0.44232 0.0
H73 H 0.90847 0.59631 0.45467 0.0
H74 H 0.84228 0.57919 0.38852 0.0
H75 H 0.85381 0.52707 0.37579 0.0
H76 H 0.80702 0.87749 0.3361 0.0
H77 H 0.78583 0.80934 0.32849 0.0
H78 H 0.83875 0.80498 0.3966 0.0
H79 H 0.85961 0.87288 0.40455 0.0
Tb80 Tb 0.95014 0.25198 0.14756 0.0
Tb81 Tb 0.8657 0.21485 0.12025 0.0
C82 C 0.87643 0.22859 0.17812 0.0
C83 C 0.04281 0.26033 0.16317 0.0
C84 C 0.09458 0.2323 0.15752 0.0
C85 C 0.10033 0.2595 0.17605 0.0
C86 C 0.07471 0.27341 0.1788 0.0
C87 C 0.03649 0.23274 0.14495 0.0
C88 C 0.06215 0.21896 0.1421 0.0
C89 C 1.01589 0.27502 0.16597 0.0
O90 O 0.92029 0.18936 0.15226 0.0
O91 O 0.88327 0.17185 0.11747 0.0
O92 O 0.91013 0.24261 0.09137 0.0
O93 O 0.95649 0.23541 0.11074 0.0
O94 O 0.81084 0.16633 0.11497 0.0
O95 O 0.82709 0.21985 0.09638 0.0
O96 O 0.87833 0.27096 0.13371 0.0
O97 O 0.94446 0.30107 0.13506 0.0
O98 O 0.91255 0.25533 0.17484 0.0
O99 O 0.85569 0.20503 0.16015 0.0
C100 C 0.89906 0.16328 0.13569 0.0
O101 O 1.00999 0.28969 0.14614 0.0
O102 O 0.98369 0.25204 0.17731 0.0
C103 C 0.94363 0.24386 0.091 0.0
C104 C 0.76118 0.18006 0.1069 0.0
C105 C 0.68709 0.16907 0.11729 0.0
C106 C 0.69512 0.15774 0.09443 0.0
C107 C 0.73172 0.16322 0.08932 0.0
C108 C 0.75346 0.19109 0.12988 0.0
C109 C 0.7167 0.18559 0.13505 0.0
C110 C 0.79928 0.18489 0.10097 0.0
C111 C 0.91231 0.30249 0.13398 0.0
H112 H 0.12458 0.26997 0.18854 0.0
H113 H 0.07984 0.29439 0.19312 0.0
H114 H 1.01183 0.22207 0.13279 0.0
H115 H 0.05697 0.19846 0.12745 0.0
H116 H 0.67298 0.14436 0.08046 0.0
H117 H 0.737 0.15418 0.07157 0.0
H118 H 0.77585 0.20405 0.14374 0.0
H119 H 0.7117 0.19498 0.15274 0.0
Tb120 Tb 0.38678 0.19131 0.4119 0.0
Tb121 Tb 0.34169 0.10629 0.38458 0.0
C122 C 0.33785 0.11329 0.44114 0.0
C123 C 0.45616 0.29661 0.42215 0.0
C124 C 0.51895 0.36952 0.40801 0.0
C125 C 0.52447 0.33807 0.41291 0.0
C126 C 0.4935 0.30208 0.41982 0.0
C127 C 0.45056 0.3279 0.41733 0.0
C128 C 0.48146 0.36381 0.41027 0.0
C129 C 0.42283 0.2589 0.4297 0.0
O130 O 0.43124 0.17988 0.39951 0.0
O131 O 0.3967 0.1136 0.39801 0.0
O132 O 0.38313 0.1442 0.3577 0.0
O133 O 0.38749 0.20037 0.37186 0.0
O134 O 0.32096 0.04665 0.38607 0.0
O135 O 0.30883 0.0719 0.35474 0.0
O136 O 0.30826 0.13517 0.37904 0.0
O137 O 0.32592 0.17188 0.41409 0.0
O138 O 0.36965 0.14742 0.44115 0.0
O139 O 0.3175 0.0996 0.42101 0.0
C140 C 0.42976 0.14642 0.39978 0.0
O141 O 0.39192 0.24591 0.41619 0.0
O142 O 0.42954 0.23132 0.43583 0.0
C143 C 0.39179 0.18006 0.35421 0.0
C144 C 0.25886 1.01199 0.36879 0.0
C145 C 0.17923 0.95833 0.374 0.0
C146 C 0.20094 0.95439 0.35488 0.0
C147 C 0.24038 0.98093 0.35235 0.0
C148 C 0.23731 1.0165 0.38762 0.0
C149 C 0.19799 0.98989 0.39028 0.0
C150 C 0.30034 0.03998 0.36614 0.0
C151 C 0.30231 0.15585 0.39549 0.0
H152 H 0.55291 0.34134 0.41184 0.0
H153 H 0.49893 0.27865 0.42344 0.0
H154 H 0.42212 0.32455 0.41898 0.0
H155 H 0.47581 0.387 0.40636 0.0
H156 H 0.18745 0.93091 0.34172 0.0
H157 H 0.25643 0.9772 0.33754 0.0
H158 H 0.25097 0.0405 0.4004 0.0
H159 H 0.18251 0.99371 0.4054 0.0
Tb160 Tb 0.81455 0.72146 0.15029 0.0
Tb161 Tb 0.8394 0.6678 0.11667 0.0
C162 C 0.83532 0.66321 0.17515 0.0
C163 C 0.80839 0.8067 0.16885 0.0
C164 C 0.82867 0.88437 0.16062 0.0
C165 C 0.80453 0.86333 0.18047 0.0
C166 C 0.79455 0.82489 0.18455 0.0
C167 C 0.83206 0.82728 0.14885 0.0
C168 C 0.84215 0.86571 0.14479 0.0
C169 C 0.79918 0.76679 0.17372 0.0
O170 O 0.87245 0.75845 0.13584 0.0
O171 O 0.89118 0.71328 0.13393 0.0
O172 O 0.83693 0.7078 0.09 0.0
O173 O 0.80158 0.72823 0.11267 0.0
O174 O 0.87916 0.66074 0.09492 0.0
O175 O 0.82244 0.61279 0.10251 0.0
O176 O 0.77835 0.64695 0.11288 0.0
O177 O 0.76666 0.66165 0.1514 0.0
O178 O 0.83507 0.69575 0.17677 0.0
O179 O 0.83159 0.64499 0.15418 0.0
C180 C 0.89969 0.74938 0.13566 0.0
O181 O 0.77548 0.7406 0.15828 0.0
O182 O 0.82876 0.76265 0.17837 0.0
C183 C 0.81682 0.72565 0.09181 0.0
C184 C 0.87231 0.59852 0.09897 0.0
C185 C 0.89464 0.54353 0.1103 0.0
C186 C 0.88836 0.55017 0.0857 0.0
C187 C 0.87725 0.57732 0.08013 0.0
C188 C 0.87974 0.59304 0.12347 0.0
C189 C 0.89081 0.56582 0.12909 0.0
C190 C 0.85619 0.62351 0.09301 0.0
C191 C 0.75515 0.63932 0.13172 0.0
H192 H 0.79309 0.87647 0.19281 0.0
H193 H 0.7762 0.80943 0.20006 0.0
H194 H 0.84314 0.81372 0.13655 0.0
H195 H 0.86116 0.88102 0.12953 0.0
H196 H 0.89049 0.53328 0.07077 0.0
H197 H 0.87135 0.5809 0.06112 0.0
H198 H 0.87603 0.60909 0.13831 0.0
H199 H 0.89586 0.56188 0.14819 0.0
Tb200 Tb 0.86601 0.20785 0.4143 0.0
Tb201 Tb 0.94803 0.24137 0.3836 0.0
C202 C 0.94606 0.24379 0.44111 0.0
C203 C 0.76405 0.17746 0.43221 0.0
C204 C 0.68953 0.16684 0.42493 0.0
C205 C 0.70355 0.16791 0.44888 0.0
C206 C 0.74038 0.17308 0.45245 0.0
C207 C 0.75047 0.17692 0.40825 0.0
C208 C 0.7135 0.17152 0.40465 0.0
C209 C 0.80181 0.1805 0.43644 0.0
O210 O 0.89078 0.26975 0.41179 0.0
O211 O 0.93075 0.28477 0.37793 0.0
O212 O 0.90127 0.20847 0.35805 0.0
O213 O 0.85331 0.21538 0.37615 0.0
O214 O 1.00744 0.28093 0.38028 0.0
O215 O 0.97816 0.23561 0.35365 0.0
O216 O 0.93587 0.18666 0.39998 0.0
O217 O 0.87038 0.15914 0.40127 0.0
O218 O 0.90998 0.21526 0.44139 0.0
O219 O 0.96177 0.26318 0.4209 0.0
C220 C 0.9106 0.29296 0.39362 0.0
O221 O 0.81095 0.16095 0.42143 0.0
O222 O 0.83104 0.21481 0.44065 0.0
C223 C 0.86853 0.20821 0.35676 0.0
C224 C 0.04054 0.25063 0.36498 0.0
C225 C 0.09571 0.22716 0.37092 0.0
C226 C 0.10204 0.2565 0.35406 0.0
C227 C 0.07463 0.26809 0.35112 0.0
C228 C 1.03411 0.22146 0.38181 0.0
C229 C 0.06129 0.20973 0.38469 0.0
C230 C 1.01145 0.26239 0.36181 0.0
C231 C 0.90131 0.15601 0.40101 0.0
H232 H 0.68576 0.16406 0.46489 0.0
H233 H 0.75022 0.17316 0.47106 0.0
H234 H 0.7683 0.18031 0.39234 0.0
H235 H 0.70381 0.17138 0.38599 0.0
H236 H 0.12841 0.27091 0.3434 0.0
H237 H 0.08011 0.29072 0.33807 0.0
H238 H 1.008 0.20763 0.39271 0.0
H239 H 0.0551 0.18668 0.39754 0.0
Tb240 Tb 0.19989 0.38362 0.61925 0.0
Tb241 Tb 0.11953 0.32722 0.6498 0.0
C242 C 0.12064 0.32998 0.59138 0.0
C243 C 0.30367 0.45417 0.60688 0.0
C244 C 0.37989 0.50809 0.62149 0.0
C245 C 0.37123 0.49669 0.59663 0.0
C246 C 0.33347 0.47008 0.58941 0.0
C247 C 0.31236 0.46426 0.63184 0.0
C248 C 0.35007 0.49101 0.63907 0.0
C249 C 0.26343 0.42957 0.59863 0.0
O250 O 0.16177 0.40698 0.61704 0.0
O251 O 0.13159 0.38692 0.65428 0.0
O252 O 0.16573 0.34571 0.67619 0.0
O253 O 0.2114 0.40202 0.65798 0.0
O254 O 0.06037 0.30551 0.65615 0.0
O255 O 0.09206 0.2853 0.67728 0.0
O256 O 0.13938 0.29084 0.6328 0.0
O257 O 0.20364 0.33516 0.63368 0.0
O258 O 0.15873 0.34734 0.59042 0.0
O259 O 0.10197 0.32562 0.6121 0.0
C260 C 0.14553 0.41262 0.63638 0.0
O261 O 0.24911 0.3923 0.59956 0.0
O262 O 0.23908 0.4394 0.60692 0.0
C263 C 0.19742 0.37929 0.6773 0.0
C264 C 1.0293 0.23919 0.6658 0.0
C265 C 0.97618 0.16068 0.65589 0.0
C266 C 0.97282 0.17864 0.67741 0.0
C267 C 0.99919 0.21753 0.68232 0.0
C268 C 1.03282 0.22154 0.6443 0.0
C269 C 1.00653 0.18264 0.63939 0.0
C270 C 0.05808 0.27952 0.67157 0.0
C271 C 0.17549 0.29916 0.63311 0.0
H272 H 0.39331 0.50954 0.58255 0.0
H273 H 0.32734 0.46281 0.57004 0.0
H274 H 0.28981 0.45225 0.64567 0.0
H275 H 0.35578 0.49875 0.65839 0.0
H276 H 0.9501 0.16248 0.69066 0.0
H277 H 0.99628 0.23058 0.69913 0.0
H278 H 0.05603 0.23782 0.63136 0.0
H279 H 1.00971 0.16993 0.62251 0.0
Tb280 Tb 0.25932 0.94487 0.87991 0.0
Tb281 Tb 0.23003 0.86408 0.91235 0.0
C282 C 0.23936 0.86595 0.85371 0.0
C283 C 0.26608 0.03694 0.86294 0.0
C284 C 0.24366 0.09269 0.87131 0.0
C285 C 0.26892 0.09707 0.85184 0.0
C286 C 0.27995 0.0694 0.84769 0.0
C287 C 0.24125 0.03256 0.88253 0.0
C288 C 0.23012 0.06009 0.88666 0.0
C289 C 0.27629 1.00698 0.85793 0.0
O290 O 0.2001 0.92297 0.89202 0.0
O291 O 0.18014 0.85859 0.89337 0.0
O292 O 0.231 0.90666 0.93863 0.0
O293 O 0.27272 0.96246 0.91793 0.0
O294 O 0.18882 0.81762 0.9338 0.0
O295 O 0.24515 0.82511 0.92685 0.0
O296 O 0.2915 0.9025 0.91639 0.0
O297 O 0.30614 0.93187 0.8788 0.0
O298 O 0.24424 0.90083 0.85213 0.0
O299 O 0.23672 0.84828 0.87471 0.0
C300 C 0.17257 0.88666 0.89107 0.0
O301 O 0.29861 1.00388 0.8741 0.0
O302 O 0.24748 0.9733 0.8518 0.0
C303 C 0.25402 0.94454 0.93797 0.0
C304 C 0.19443 0.76113 0.93186 0.0
C305 C 0.17237 0.6826 0.92465 0.0
C306 C 0.17446 0.6975 0.94853 0.0
C307 C 0.1854 0.7363 0.95206 0.0
C308 C 0.19081 0.74618 0.90789 0.0
C309 C 0.17975 0.70721 0.90431 0.0
C310 C 0.2112 0.80294 0.9364 0.0
C311 C 0.3154 0.91788 0.89783 0.0
H312 H 0.28041 0.12202 0.83988 0.0
H313 H 0.29914 0.07326 0.83249 0.0
H314 H 0.23009 1.00754 0.89446 0.0
H315 H 0.21026 0.0554 0.90161 0.0
H316 H 0.16842 0.6793 0.96459 0.0
H317 H 0.18804 0.74725 0.9707 0.0
H318 H 0.19786 0.76493 0.89202 0.0
H319 H 0.17871 0.69683 0.88569 0.0
Tb320 Tb 0.68008 0.83246 0.61661 0.0
Tb321 Tb 0.73108 0.79669 0.64132 0.0
C322 C 0.7162 0.79293 0.58597 0.0
C323 C 0.60606 0.86199 0.60447 0.0
C324 C 0.5421 0.87159 0.61458 0.0
C325 C 0.5535 0.87058 0.59011 0.0
C326 C 0.58516 0.86591 0.58515 0.0
C327 C 0.59434 0.86208 0.62894 0.0
C328 C 0.56274 0.86699 0.63395 0.0
C329 C 0.6415 0.86086 0.59872 0.0
O330 O 0.63954 0.77162 0.62188 0.0
O331 O 0.67122 0.75254 0.64914 0.0
O332 O 0.72571 0.83323 0.66878 0.0
O333 O 0.66803 0.82651 0.65622 0.0
O334 O 0.76419 0.77094 0.6335 0.0
O335 O 0.75521 0.78227 0.67112 0.0
O336 O 0.77363 0.85354 0.627 0.0
O337 O 0.7356 0.88136 0.62561 0.0
O338 O 0.71301 0.82402 0.58716 0.0
O339 O 0.70905 0.7716 0.60557 0.0
C340 C 0.63987 0.74655 0.63735 0.0
O341 O 0.66991 0.87873 0.61417 0.0
O342 O 0.63765 0.82794 0.59162 0.0
C343 C 0.69429 0.83464 0.67327 0.0
C344 C 0.81505 0.78705 0.66067 0.0
C345 C 0.89535 0.81566 0.66105 0.0
C346 C 0.86907 0.77597 0.66408 0.0
C347 C 0.82935 0.76185 0.66384 0.0
C348 C 0.84098 0.8268 0.65851 0.0
C349 C 0.8808 0.84102 0.6587 0.0
C350 C 0.77354 0.77099 0.65647 0.0
C351 C 0.76956 0.88414 0.62564 0.0
H352 H 0.53861 0.87449 0.57475 0.0
H353 H 0.59387 0.86624 0.56616 0.0
H354 H 0.61002 0.85905 0.64419 0.0
H355 H 0.55447 0.86717 0.65296 0.0
H356 H 0.87911 0.7555 0.66558 0.0
H357 H 0.80975 0.73101 0.66519 0.0
H358 H 0.83037 0.8466 0.65593 0.0
H359 H 0.90016 0.87177 0.65663 0.0
Tb360 Tb 0.11685 0.3341 0.88664 0.0
Tb361 Tb 0.20152 0.38214 0.91357 0.0
C362 C 0.18994 0.3858 0.85586 0.0
C363 C 1.02536 0.24774 0.87157 0.0
C364 C 0.97581 0.16734 0.87779 0.0
C365 C 0.96633 0.18849 0.86131 0.0
C366 C 0.99087 0.2283 0.85827 0.0
C367 C 0.03535 0.22678 0.88768 0.0
C368 C 1.01084 0.18702 0.89079 0.0
C369 C 0.05102 0.28973 0.86871 0.0
O370 O 0.14737 0.30219 0.88124 0.0
O371 O 0.18394 0.32151 0.91617 0.0
O372 O 0.1576 0.36581 0.94274 0.0
O373 O 0.11125 0.31172 0.92349 0.0
O374 O 0.25626 0.38844 0.91861 0.0
O375 O 0.24077 0.4265 0.93702 0.0
O376 O 0.18855 0.4254 0.90082 0.0
O377 O 0.12239 0.38924 0.8989 0.0
O378 O 0.15366 0.37545 0.85937 0.0
O379 O 0.21104 0.38307 0.87351 0.0
C380 C 0.16848 0.2973 0.89773 0.0
O381 O 0.05681 0.31025 0.88867 0.0
O382 O 0.08315 0.30015 0.85694 0.0
C383 C 0.12411 0.33339 0.94319 0.0
C384 C 0.30587 0.4526 0.92482 0.0
C385 C 0.3788 0.51488 0.91097 0.0
C386 C 0.37363 0.49623 0.93382 0.0
C387 C 0.33757 0.46543 0.94063 0.0
C388 C 0.31066 0.47099 0.90201 0.0
C389 C 0.34677 0.50186 0.89516 0.0
C390 C 0.26844 0.41938 0.9321 0.0
C391 C 0.15465 0.42292 0.90061 0.0
H392 H 0.93994 0.17426 0.8507 0.0
H393 H 0.98282 0.24392 0.8456 0.0
H394 H 0.062 0.24127 0.89805 0.0
H395 H 1.01893 0.17192 0.90383 0.0
H396 H 0.39735 0.5058 0.94666 0.0
H397 H 0.33444 0.45158 0.95831 0.0
H398 H 0.28653 0.46132 0.88947 0.0
H399 H 0.34968 0.51522 0.87734 0.0
Tb400 Tb 0.22942 0.8574 0.61917 0.0
Tb401 Tb 0.25805 0.94016 0.64813 0.0
C402 C 0.25722 0.93544 0.58984 0.0
C403 C 0.19347 0.75212 0.60887 0.0
C404 C 0.17197 0.67598 0.62355 0.0
C405 C 0.16107 0.68304 0.60034 0.0
C406 C 0.17186 0.72073 0.59306 0.0
C407 C 0.20293 0.74503 0.63249 0.0
C408 C 0.19243 0.70742 0.63971 0.0
C409 C 0.20851 0.79205 0.59984 0.0
O410 O 0.29094 0.8946 0.61457 0.0
O411 O 0.30403 0.92591 0.65161 0.0
O412 O 0.23225 0.89575 0.67598 0.0
O413 O 0.23907 0.84769 0.6576 0.0
O414 O 0.2983 0.99908 0.65345 0.0
O415 O 0.24625 0.97069 0.67503 0.0
O416 O 0.20111 0.9207 0.63267 0.0
O417 O 0.17951 0.85628 0.63568 0.0
O418 O 0.23337 0.89764 0.59003 0.0
O419 O 0.27368 0.95515 0.60994 0.0
C420 C 0.31466 0.91233 0.63287 0.0
O421 O 0.18609 0.80678 0.6018 0.0
O422 O 0.24378 0.8169 0.60615 0.0
C423 C 0.23275 0.86333 0.67712 0.0
C424 C 0.26777 0.03473 0.66363 0.0
C425 C 0.24781 0.09207 0.65476 0.0
C426 C 0.26467 0.09096 0.6773 0.0
C427 C 0.27454 0.06257 0.68166 0.0
C428 C 0.25111 0.03565 0.64109 0.0
C429 C 0.24131 0.0641 0.63667 0.0
C430 C 0.27608 1.00362 0.66905 0.0
C431 C 0.17265 0.88501 0.63495 0.0
H432 H 0.14566 0.65964 0.58733 0.0
H433 H 0.16434 0.72549 0.57474 0.0
H434 H 0.21944 0.76872 0.64512 0.0
H435 H 0.2009 0.70301 0.65781 0.0
H436 H 0.26954 0.11155 0.69182 0.0
H437 H 0.28694 0.06202 0.69928 0.0
H438 H 0.2454 1.01417 0.62699 0.0
H439 H 0.22884 0.06428 0.61901 0.0
Tb440 Tb 0.73045 0.80057 0.89047 0.0
Tb441 Tb 0.68347 0.84288 0.91164 0.0
C442 C 0.69955 0.84019 0.85544 0.0
C443 C 0.81312 0.78795 0.87484 0.0
C444 C 0.89305 0.81454 0.87243 0.0
C445 C 0.86719 0.78628 0.85579 0.0
C446 C 0.82759 0.773 0.85709 0.0
C447 C 0.83892 0.81721 0.89081 0.0
C448 C 0.87833 0.83013 0.88974 0.0
C449 C 0.77117 0.77175 0.87754 0.0
O450 O 0.77531 0.85726 0.9039 0.0
O451 O 0.74089 0.88906 0.90364 0.0
O452 O 0.7147 0.83486 0.94228 0.0
O453 O 0.70653 0.77905 0.92646 0.0
O454 O 0.67553 0.89079 0.91107 0.0
O455 O 0.64321 0.84372 0.9363 0.0
O456 O 0.64053 0.78228 0.90827 0.0
O457 O 0.66994 0.7589 0.88215 0.0
O458 O 0.72947 0.83717 0.86167 0.0
O459 O 0.67313 0.83534 0.87178 0.0
C460 C 0.77358 0.88924 0.90456 0.0
O461 O 0.75926 0.77113 0.90001 0.0
O462 O 0.75452 0.78335 0.86186 0.0
C463 C 0.71505 0.80245 0.94516 0.0
C464 C 0.6137 0.87873 0.92172 0.0
C465 C 0.5495 0.88675 0.90996 0.0
C466 C 0.58228 0.91716 0.92124 0.0
C467 C 0.61397 0.91313 0.92706 0.0
C468 C 0.58125 0.84828 0.91029 0.0
C469 C 0.5493 0.8522 0.90457 0.0
C470 C 0.64823 0.87625 0.92754 0.0
C471 C 0.63917 0.75534 0.89361 0.0
H472 H 0.87743 0.77413 0.84186 0.0
H473 H 0.8082 0.75061 0.84449 0.0
H474 H 0.82852 0.82938 0.90464 0.0
H475 H 0.89699 0.85144 0.90312 0.0
H476 H 0.58319 0.9439 0.92599 0.0
H477 H 0.63884 0.93701 0.93579 0.0
H478 H 0.58066 0.82163 0.90573 0.0
H479 H 0.52461 0.82834 0.89573 0.0
H480 H 0.08047 0.15945 0.14523 0.0
H481 H 0.17317 0.27487 0.16115 0.0
H482 H 0.12753 0.13901 0.13708 0.0
H483 H 0.21975 0.25405 0.15429 0.0
H484 H 0.29685 0.22167 0.11494 0.0
H485 H 0.24572 0.2366 0.12036 0.0
H486 H 0.17548 0.12667 0.1562 0.0
H487 H 0.22687 0.11116 0.15006 0.0
C488 C 0.11082 0.18047 0.14705 0.0
C489 C 0.12293 0.21893 0.15376 0.0
C490 C 0.13779 0.16859 0.14264 0.0
C491 C 0.17751 0.19491 0.14478 0.0
C492 C 0.18946 0.23311 0.15197 0.0
C493 C 0.16263 0.24496 0.15629 0.0
C494 C 0.27039 0.20044 0.1238 0.0
C495 C 0.2661 0.1654 0.13233 0.0
C496 C 0.24111 0.20916 0.12708 0.0
C497 C 0.20676 0.18328 0.13925 0.0
C498 C 0.20158 0.14729 0.14675 0.0
C499 C 0.23097 0.13837 0.14324 0.0
H500 H 0.12004 0.97029 0.38836 0.0
H501 H 0.14364 0.87997 0.3674 0.0
H502 H 0.0527 0.92197 0.39573 0.0
H503 H 0.07623 0.83218 0.3733 0.0
H504 H 0.9651 0.75013 0.40999 0.0
H505 H 1.03156 0.80142 0.40551 0.0
H506 H 0.99297 0.87655 0.37628 0.0
H507 H 0.92592 0.82517 0.38168 0.0
C508 C 0.11094 0.94018 0.38527 0.0
C509 C 0.13754 0.92915 0.37738 0.0
C510 C 0.07214 0.91248 0.38921 0.0
C511 C 0.05889 0.87302 0.38532 0.0
C512 C 0.08538 0.86216 0.37699 0.0
C513 C 0.1241 0.88975 0.3732 0.0
C514 C 0.97072 0.77768 0.40277 0.0
C515 C 0.94021 0.78344 0.39599 0.0
C516 C 1.00894 0.80708 0.4 0.0
C517 C 1.01786 0.84302 0.39005 0.0
C518 C 0.98727 0.84933 0.38409 0.0
C519 C 0.94882 0.81988 0.38713 0.0
H520 H 0.93069 0.13532 0.16872 0.0
H521 H 0.84916 0.0998 0.10868 0.0
H522 H 0.91528 0.06864 0.17416 0.0
H523 H 0.83302 0.03313 0.11453 0.0
H524 H 0.83674 0.92161 0.11661 0.0
H525 H 0.85639 0.98914 0.11001 0.0
H526 H 0.86434 1.00797 0.18884 0.0
H527 H 0.84663 0.94095 0.1954 0.0
C528 C 0.90947 0.11332 0.15667 0.0
C529 C 0.89116 0.12301 0.13828 0.0
C530 C 0.90043 0.07498 0.1599 0.0
C531 C 0.87272 0.0453 0.14488 0.0
C532 C 0.85486 0.05517 0.12625 0.0
C533 C 0.86401 0.09349 0.12296 0.0
C534 C 0.84314 0.94022 0.13256 0.0
C535 C 0.84005 0.92564 0.15656 0.0
C536 C 0.85398 0.97894 0.12877 0.0
C537 C 0.86194 1.00418 0.14888 0.0
C538 C 0.85892 0.98961 0.17288 0.0
C539 C 0.84818 0.95092 0.17666 0.0
H540 H 0.28371 0.19955 0.42495 0.0
H541 H 0.24776 0.12956 0.35882 0.0
H542 H 0.23338 0.21547 0.41873 0.0
H543 H 0.19657 0.1449 0.35288 0.0
H544 H 0.1399 0.21802 0.33568 0.0
H545 H 0.18849 0.1992 0.34176 0.0
H546 H 0.16481 0.18813 0.42005 0.0
H547 H 0.11773 0.20866 0.41416 0.0
C548 C 0.2648 0.18718 0.4092 0.0
C549 C 0.26988 0.16328 0.39237 0.0
C550 C 0.23574 0.19619 0.4057 0.0
C551 C 0.21085 0.18149 0.3853 0.0
C552 C 0.21555 0.15713 0.36862 0.0
C553 C 0.24472 0.14811 0.37212 0.0
C554 C 0.14534 0.21194 0.35422 0.0
C555 C 0.12491 0.21499 0.37443 0.0
C556 C 0.17284 0.20062 0.35767 0.0
C557 C 0.1806 0.19212 0.3814 0.0
C558 C 0.15993 0.19487 0.40155 0.0
C559 C 0.13254 0.20623 0.39812 0.0
H560 H 0.14348 0.88182 0.17196 0.0
H561 H 0.12261 0.96362 0.13316 0.0
H562 H 0.07612 0.83252 0.1668 0.0
H563 H 0.05564 0.91372 0.12692 0.0
H564 H 0.92873 0.82673 0.14405 0.0
H565 H 0.99606 0.87678 0.14889 0.0
H566 H 1.03092 0.79208 0.13624 0.0
H567 H 0.9637 0.74197 0.13208 0.0
C568 C 0.12457 0.88934 0.16231 0.0
C569 C 0.13862 0.92683 0.15303 0.0
C570 C 0.08596 0.86085 0.15906 0.0
C571 C 0.0603 0.86899 0.14637 0.0
C572 C 0.07438 0.90645 0.13701 0.0
C573 C 0.113 0.93498 0.14031 0.0
C574 C 0.95076 0.81879 0.14224 0.0
C575 C 0.94071 0.78025 0.13775 0.0
C576 C 0.98945 0.84757 0.14489 0.0
C577 C 1.01907 0.83856 0.14304 0.0
C578 C 1.00894 0.80005 0.13823 0.0
C579 C 0.9703 0.77129 0.13568 0.0
H580 H 0.79347 0.9168 0.36385 0.0
H581 H 0.90439 0.93787 0.38922 0.0
H582 H 0.81264 0.98373 0.37229 0.0
H583 H 0.92318 1.00492 0.39851 0.0
H584 H 0.95228 0.13328 0.38509 0.0
H585 H 0.93833 0.06683 0.37844 0.0
H586 H 0.82412 1.02378 0.40845 0.0
H587 H 0.83765 0.08943 0.41462 0.0
C588 C 0.82204 0.93576 0.37114 0.0
C589 C 0.84733 0.92189 0.37587 0.0
C590 C 0.83289 0.97408 0.37627 0.0
C591 C 0.86933 0.99962 0.38634 0.0
C592 C 0.89497 0.98603 0.39072 0.0
C593 C 0.88403 0.94752 0.38562 0.0
C594 C 0.92444 0.10955 0.39056 0.0
C595 C 0.8959 0.11661 0.40006 0.0
C596 C 0.91643 0.07152 0.38676 0.0
C597 C 0.87981 0.04001 0.39246 0.0
C598 C 0.85222 0.04732 0.40321 0.0
C599 C 0.8601 0.08505 0.40689 0.0
H600 H 0.18356 0.084 0.63114 0.0
H601 H 0.28717 0.16836 0.66838 0.0
H602 H 0.16584 0.13323 0.62408 0.0
H603 H 0.26854 0.2169 0.66247 0.0
H604 H 0.24618 0.30574 0.62773 0.0
H605 H 0.26299 0.25553 0.63142 0.0
H606 H 0.14351 0.17132 0.64519 0.0
H607 H 0.12648 0.22162 0.64077 0.0
C608 C 0.20265 0.11304 0.63777 0.0
C609 C 0.23687 0.12211 0.65032 0.0
C610 C 0.19221 0.14119 0.634 0.0
C611 C 0.21571 0.17916 0.64267 0.0
C612 C 0.24993 0.18817 0.65519 0.0
C613 C 0.2604 0.16011 0.6589 0.0
C614 C 0.22339 0.2765 0.63143 0.0
C615 C 0.18498 0.2678 0.63407 0.0
C616 C 0.2331 0.24767 0.63371 0.0
C617 C 0.20473 0.20932 0.63889 0.0
C618 C 0.16612 0.20043 0.64099 0.0
C619 C 0.15634 0.22932 0.63855 0.0
H620 H 0.14619 0.9334 0.87391 0.0
H621 H 0.10738 0.81803 0.90045 0.0
H622 H 0.0795 0.91663 0.86716 0.0
H623 H 0.04083 0.80175 0.89492 0.0
H624 H 0.92583 0.76979 0.86314 0.0
H625 H 0.99326 0.78814 0.86563 0.0
H626 H 1.02237 0.90381 0.88691 0.0
H627 H 0.95535 0.88631 0.88239 0.0
C628 C 0.12338 0.90456 0.87854 0.0
C629 C 0.13208 0.87702 0.88765 0.0
C630 C 0.08506 0.89495 0.87478 0.0
C631 C 0.05449 0.85771 0.88039 0.0
C632 C 0.06341 0.83041 0.8898 0.0
C633 C 0.10168 0.83984 0.89319 0.0
C634 C 0.94663 0.79941 0.86777 0.0
C635 C 0.93481 0.82644 0.87264 0.0
C636 C 0.98541 0.80981 0.86965 0.0
C637 C 1.01349 0.84739 0.87682 0.0
C638 C 1.00181 0.87467 0.88117 0.0
C639 C 0.96309 0.86442 0.87893 0.0
H640 H 0.77201 0.95016 0.6113 0.0
H641 H 0.84398 0.90814 0.64083 0.0
H642 H 0.82358 1.01614 0.61725 0.0
H643 H 0.89589 0.97489 0.64726 0.0
H644 H 0.98971 0.10463 0.6371 0.0
H645 H 0.94233 0.0374 0.62738 0.0
H646 H 0.85125 0.0562 0.65355 0.0
H647 H 0.89814 0.12326 0.66245 0.0
C648 C 0.79899 0.95496 0.61896 0.0
C649 C 0.80359 0.92372 0.62595 0.0
C650 C 0.82853 0.99291 0.62251 0.0
C651 C 0.86357 1.00087 0.63327 0.0
C652 C 0.86918 0.96974 0.63897 0.0
C653 C 0.83945 0.93147 0.63531 0.0
C654 C 0.95951 0.09442 0.64058 0.0
C655 C 0.94773 0.11943 0.65049 0.0
C656 C 0.93244 0.05581 0.63524 0.0
C657 C 0.89297 0.04146 0.6395 0.0
C658 C 0.88135 0.06641 0.64965 0.0
C659 C 0.90832 0.10482 0.65505 0.0
H660 H 0.13849 0.23845 0.86371 0.0
H661 H 0.2179 0.28389 0.92493 0.0
H662 H 0.15486 0.18793 0.8578 0.0
H663 H 0.23495 0.23416 0.91865 0.0
H664 H 0.23298 0.11997 0.91546 0.0
H665 H 0.21197 0.16669 0.9223 0.0
H666 H 0.20689 0.17954 0.84351 0.0
H667 H 0.22603 0.13135 0.83668 0.0
C668 C 0.15942 0.23769 0.87592 0.0
C669 C 0.17688 0.26532 0.89478 0.0
C670 C 0.16902 0.20884 0.87243 0.0
C671 C 0.19639 0.20693 0.88767 0.0
C672 C 0.21338 0.23429 0.90675 0.0
C673 C 0.2037 0.26301 0.91029 0.0
C674 C 0.22692 0.13235 0.89957 0.0
C675 C 0.23127 0.12177 0.8755 0.0
C676 C 0.21528 0.15957 0.9035 0.0
C677 C 0.20777 0.17709 0.88347 0.0
C678 C 0.21196 0.16639 0.8594 0.0
C679 C 0.22351 0.1391 0.85547 0.0
H680 H 0.10818 0.81506 0.64267 0.0
H681 H 0.14604 0.93638 0.63515 0.0
H682 H 0.04267 0.80118 0.64988 0.0
H683 H 0.08004 0.92234 0.64267 0.0
H684 H 0.9477 0.8703 0.62937 0.0
H685 H 1.01526 0.88918 0.62346 0.0
H686 H 1.00584 0.81178 0.68182 0.0
H687 H 0.93848 0.79309 0.68786 0.0
C688 C 0.10259 0.83885 0.64254 0.0
C689 C 0.1325 0.87688 0.63834 0.0
C690 C 0.06497 0.83088 0.64688 0.0
C691 C 0.05612 0.86067 0.6471 0.0
C692 C 0.08586 0.8987 0.64251 0.0
C693 C 0.12369 0.90674 0.63826 0.0
C694 C 0.96021 0.85783 0.64127 0.0
C695 C 0.93748 0.82992 0.65899 0.0
C696 C 0.99896 0.86862 0.63783 0.0
C697 C 1.01587 0.85168 0.65197 0.0
C698 C 0.99351 0.82479 0.67025 0.0
C699 C 0.95486 0.81408 0.67372 0.0
H700 H 0.99255 0.10906 0.8847 0.0
H701 H 0.89721 0.13028 0.88092 0.0
H702 H 0.94754 0.04099 0.89376 0.0
H703 H 0.85252 0.06252 0.88885 0.0
H704 H 0.78286 0.95264 0.92828 0.0
H705 H 0.83438 1.01893 0.92306 0.0
H706 H 0.89513 0.98019 0.8757 0.0
H707 H 0.84337 0.91298 0.88162 0.0
C708 C 0.96205 0.09928 0.88576 0.0
C709 C 0.9486 0.12535 0.88213 0.0
C710 C 0.93624 0.06016 0.89072 0.0
C711 C 0.89641 0.04626 0.89232 0.0
C712 C 0.88305 0.07225 0.88825 0.0
C713 C 0.90871 0.11116 0.88331 0.0
C714 C 0.80756 0.95815 0.91712 0.0
C715 C 0.80894 0.92769 0.90517 0.0
C716 C 0.83696 0.99623 0.91392 0.0
C717 C 0.86842 1.00509 0.89839 0.0
C718 C 0.87123 0.9744 0.88773 0.0
C719 C 0.84171 0.93592 0.89116 0.0
H720 H 0.38323 0.23707 0.33253 0.0
H721 H 0.42595 0.15888 0.31893 0.0
H722 H 0.39172 0.25458 0.28873 0.0
H723 H 0.43459 0.17646 0.27547 0.0
H724 H 0.34095 0.20048 0.20914 0.0
H725 H 0.35296 0.21136 0.25327 0.0
H726 H 0.46717 0.22826 0.24274 0.0
H727 H 0.45507 0.2178 0.19817 0.0
C728 C 0.39538 0.22442 0.32035 0.0
C729 C 0.40342 0.19621 0.32907 0.0
C730 C 0.40016 0.23438 0.29529 0.0
C731 C 0.41371 0.21681 0.27864 0.0
C732 C 0.42448 0.19083 0.28782 0.0
C733 C 0.41916 0.18046 0.31271 0.0
C734 C 0.36915 0.208 0.21616 0.0
C735 C 0.3971 0.2083 0.20037 0.0
C736 C 0.3761 0.21436 0.24143 0.0
C737 C 0.41091 0.22039 0.25153 0.0
C738 C 0.44002 0.22353 0.23545 0.0
C739 C 0.43327 0.21787 0.20998 0.0
H740 H 0.80588 0.59571 0.32947 0.0
H741 H 0.89853 0.71241 0.31819 0.0
H742 H 0.80647 0.58252 0.28516 0.0
H743 H 0.89933 0.69962 0.27446 0.0
H744 H 0.90122 0.67547 0.19684 0.0
H745 H 0.90901 0.66533 0.24051 0.0
H746 H 0.78547 0.60756 0.25013 0.0
H747 H 0.77805 0.61733 0.20645 0.0
C748 C 0.82726 0.61801 0.31768 0.0
C749 C 0.85204 0.6551 0.32712 0.0
C750 C 0.82741 0.61063 0.29233 0.0
C751 C 0.85279 0.64007 0.2762 0.0
C752 C 0.87969 0.67609 0.28625 0.0
C753 C 0.87913 0.68355 0.31134 0.0
C754 C 0.87579 0.65911 0.20815 0.0
C755 C 0.83907 0.64681 0.19845 0.0
C756 C 0.88018 0.65358 0.23316 0.0
C757 C 0.84789 0.63602 0.24891 0.0
C758 C 0.81091 0.62078 0.23855 0.0
C759 C 0.80659 0.62638 0.21354 0.0
H760 H 0.89687 0.28336 0.21373 0.0
H761 H 0.82076 0.16189 0.19971 0.0
H762 H 0.88022 0.27333 0.25739 0.0
H763 H 0.80431 0.15172 0.24371 0.0
H764 H 0.86111 0.15589 0.32245 0.0
H765 H 0.84948 0.15742 0.27848 0.0
H766 H 0.8283 0.25179 0.29069 0.0
H767 H 0.83946 0.24973 0.33508 0.0
C768 C 0.8759 0.25462 0.21993 0.0
C769 C 0.86044 0.22333 0.20337 0.0
C770 C 0.86609 0.24894 0.24492 0.0
C771 C 0.84105 0.21171 0.25402 0.0
C772 C 0.82376 0.18072 0.23721 0.0
C773 C 0.83308 0.18655 0.21204 0.0
C774 C 0.85255 0.176 0.31585 0.0
C775 C 0.8512 0.20272 0.33206 0.0
C776 C 0.84575 0.1768 0.29067 0.0
C777 C 0.83822 0.20489 0.28109 0.0
C778 C 0.83416 0.2299 0.29758 0.0
C779 C 0.84024 0.22856 0.32296 0.0
H780 H 0.22308 0.44911 0.70003 0.0
H781 H 0.20965 0.33625 0.71021 0.0
H782 H 0.23473 0.46171 0.74448 0.0
H783 H 0.22163 0.34874 0.75423 0.0
H784 H 0.24769 0.37905 0.83343 0.0
H785 H 0.26455 0.388 0.78946 0.0
H786 H 0.18439 0.42854 0.77773 0.0
H787 H 0.1675 0.41943 0.82132 0.0
C788 C 0.22421 0.42771 0.71161 0.0
C789 C 0.21532 0.39168 0.70184 0.0
C790 C 0.23057 0.43475 0.73703 0.0
C791 C 0.2288 0.40608 0.75289 0.0
C792 C 0.22354 0.37155 0.74257 0.0
C793 C 0.21652 0.36431 0.71736 0.0
C794 C 0.23448 0.39082 0.82154 0.0
C795 C 0.20588 0.39801 0.83071 0.0
C796 C 0.24406 0.39586 0.79639 0.0
C797 C 0.2257 0.40884 0.7801 0.0
C798 C 0.19936 0.41888 0.78977 0.0
C799 C 0.18939 0.41327 0.81473 0.0
H800 H 0.29808 0.88382 0.82229 0.0
H801 H 0.17587 0.80798 0.83159 0.0
H802 H 0.29239 0.86766 0.77843 0.0
H803 H 0.16982 0.79176 0.7875 0.0
H804 H 0.17944 0.85428 0.71086 0.0
H805 H 0.17827 0.83925 0.75442 0.0
H806 H 0.27361 0.8195 0.74304 0.0
H807 H 0.27425 0.83413 0.69892 0.0
C808 C 0.27027 0.86233 0.81505 0.0
C809 C 0.23745 0.84683 0.83016 0.0
C810 C 0.26697 0.85301 0.78996 0.0
C811 C 0.2306 0.82863 0.77945 0.0
C812 C 0.19819 0.81072 0.79508 0.0
C813 C 0.20162 0.81972 0.82029 0.0
C814 C 0.19934 0.8455 0.71753 0.0
C815 C 0.22703 0.84549 0.70166 0.0
C816 C 0.19853 0.83663 0.74246 0.0
C817 C 0.22593 0.82827 0.75222 0.0
C818 C 0.25217 0.82587 0.73601 0.0
C819 C 0.25244 0.83403 0.71081 0.0
H820 H 0.74534 0.8954 0.70039 0.0
H821 H 0.63145 0.79532 0.70314 0.0
H822 H 0.74286 0.9051 0.74459 0.0
H823 H 0.62962 0.80329 0.74792 0.0
H824 H 0.63548 0.83076 0.83022 0.0
H825 H 0.62997 0.8368 0.7855 0.0
H826 H 0.75012 0.87094 0.77696 0.0
H827 H 0.75576 0.86627 0.82083 0.0
C828 C 0.7195 0.87583 0.71053 0.0
C829 C 0.68873 0.8445 0.69856 0.0
C830 C 0.71813 0.8811 0.73588 0.0
C831 C 0.6865 0.85432 0.75004 0.0
C832 C 0.6544 0.82454 0.73767 0.0
C833 C 0.65542 0.81986 0.71205 0.0
C834 C 0.66078 0.84032 0.81872 0.0
C835 C 0.69597 0.8478 0.8291 0.0
C836 C 0.65758 0.8435 0.7931 0.0
C837 C 0.68962 0.85451 0.7775 0.0
C838 C 0.72495 0.86321 0.78822 0.0
C839 C 0.7281 0.86006 0.81355 0.0
H840 H 0.2932 1.02314 0.94054 0.0
H841 H 0.23153 0.92181 0.98623 0.0
H842 H 0.31105 0.06407 0.9767 0.0
H843 H 0.24846 0.96337 0.02275 0.0
H844 H 0.32874 0.04342 0.08287 0.0
H845 H 0.30407 1.00234 0.04692 0.0
H846 H 0.29189 0.09059 1.00934 0.0
H847 H 0.3179 0.13269 0.04558 0.0
C848 C 0.28303 1.00945 0.95833 0.0
C849 C 0.26129 0.96889 0.96041 0.0
C850 C 0.29303 0.0332 0.97915 0.0
C851 C 0.28151 1.01727 1.0028 0.0
C852 C 0.2585 0.97673 1.00487 0.0
C853 C 0.24851 0.95282 0.98392 0.0
C854 C 0.32085 0.05434 0.06701 0.0
C855 C 0.32551 0.09165 0.0672 0.0
C856 C 0.30622 0.03038 0.04636 0.0
C857 C 0.29551 0.04273 0.02516 0.0
C858 C 0.30012 0.08011 0.02525 0.0
C859 C 0.31503 0.10433 0.04602 0.0
H860 H 0.83007 0.70876 0.48576 0.0
H861 H 0.77057 0.74844 0.43841 0.0
H862 H 0.80931 0.73089 0.52186 0.0
H863 H 0.74944 0.76938 0.47401 0.0
H864 H 0.7423 0.83269 0.54207 0.0
H865 H 0.76954 0.8161 0.50677 0.0
H866 H 0.75039 0.713 0.54435 0.0
H867 H 0.72396 0.72968 0.57943 0.0
C868 C 0.81273 0.72218 0.48301 0.0
C869 C 0.80182 0.72639 0.45912 0.0
C870 C 0.80062 0.73472 0.50368 0.0
C871 C 0.77756 0.75193 0.5009 0.0
C872 C 0.76751 0.75681 0.47696 0.0
C873 C 0.77943 0.74429 0.45646 0.0
C874 C 0.74374 0.80642 0.5427 0.0
C875 C 0.7307 0.78253 0.56359 0.0
C876 C 0.7594 0.79687 0.52248 0.0
C877 C 0.76244 0.76324 0.52271 0.0
C878 C 0.74927 0.73944 0.54362 0.0
C879 C 0.73363 0.7489 0.5637 0.0
H880 H 0.14039 0.3636 0.99053 0.0
H881 H 0.04925 0.27555 0.94597 0.0
H882 H 0.0963 0.34328 0.02599 0.0
H883 H 1.00575 0.25572 0.98105 0.0
H884 H 0.92726 0.25643 0.04349 0.0
H885 H 0.97137 0.27984 1.00802 0.0
H886 H 0.06225 0.28531 0.05337 0.0
H887 H 1.01874 0.26203 0.08845 0.0
C888 C 0.11114 0.33995 0.98828 0.0
C889 C 0.09865 0.32115 0.96538 0.0
C890 C 0.08585 0.32828 1.00858 0.0
C891 C 0.04736 0.29796 1.00632 0.0
C892 C 1.03495 0.27945 0.98339 0.0
C893 C 0.0602 0.29069 0.9633 0.0
C894 C 0.95659 0.26251 0.04583 0.0
C895 C 0.96917 0.25699 0.06883 0.0
C896 C 0.98189 0.27591 0.02553 0.0
C897 C 1.02047 0.28466 0.02789 0.0
C898 C 1.03298 0.27938 0.05094 0.0
C899 C 1.00771 0.26559 0.07103 0.0
H900 H 0.36252 0.13136 0.48952 0.0
H901 H 0.28363 0.03695 0.44292 0.0
H902 H 0.34143 0.08769 0.52489 0.0
H903 H 0.26413 0.99327 0.47756 0.0
H904 H 0.21208 0.92759 0.5494 0.0
H905 H 0.23 0.97157 0.51418 0.0
H906 H 0.34601 0.0377 0.54276 0.0
H907 H 0.3274 0.99512 0.57813 0.0
C908 C 0.34079 0.10136 0.48679 0.0
C909 C 0.32479 0.08793 0.46334 0.0
C910 C 0.32884 0.07606 0.50704 0.0
C911 C 0.30102 0.0365 0.50429 0.0
C912 C 0.28496 1.0234 0.48078 0.0
C913 C 0.29646 0.04867 0.46073 0.0
C914 C 0.24144 0.95131 0.54788 0.0
C915 C 0.26824 0.95792 0.56654 0.0
C916 C 0.25187 0.97668 0.52771 0.0
C917 C 0.28954 1.00887 0.52556 0.0
C918 C 0.3165 1.01425 0.54391 0.0
C919 C 0.30592 0.98941 0.56414 0.0
H920 H 0.82113 0.71014 0.04258 0.0
H921 H 0.79266 0.77815 0.09101 0.0
H922 H 0.79893 0.7317 1.00724 0.0
H923 H 0.76973 0.79867 0.0561 0.0
H924 H 0.75557 0.85059 0.984 0.0
H925 H 0.78534 0.83585 0.01859 0.0
H926 H 0.73725 0.7189 0.9918 0.0
H927 H 0.7083 0.73364 0.95743 0.0
C928 C 0.8106 0.72997 0.04567 0.0
C929 C 0.80832 0.74198 0.06968 0.0
C930 C 0.7975 0.74208 0.02547 0.0
C931 C 0.782 0.7666 0.02881 0.0
C932 C 0.78158 0.78002 0.05271 0.0
C933 C 0.79451 0.7679 0.07281 0.0
C934 C 0.75105 0.82167 0.98572 0.0
C935 C 0.72953 0.79337 0.96792 0.0
C936 C 0.76823 0.8132 1.00547 0.0
C937 C 0.76424 0.77627 1.00782 0.0
C938 C 0.74189 0.74789 0.9903 0.0
C939 C 0.72485 0.7563 0.97069 0.0
H940 H 0.14331 0.33637 0.54233 0.0
H941 H 0.04228 0.28882 0.58905 0.0
H942 H 0.10137 0.3128 0.50596 0.0
H943 H 1.00116 0.26687 0.55326 0.0
H944 H 0.93288 0.20432 0.48506 0.0
H945 H 0.97644 0.2221 0.52041 0.0
H946 H 0.05902 0.32631 0.48288 0.0
H947 H 1.01637 0.30813 0.44763 0.0
C948 C 0.11232 0.32095 0.5449 0.0
C949 C 0.09644 0.31489 0.56872 0.0
C950 C 0.08821 0.30761 0.52405 0.0
C951 C 0.04765 0.28789 0.52656 0.0
C952 C 1.03204 0.2813 0.55043 0.0
C953 C 0.05593 0.29442 0.57111 0.0
C954 C 0.96029 0.23107 0.48444 0.0
C955 C 0.97092 0.25474 0.46347 0.0
C956 C 0.98534 0.24134 0.50471 0.0
C957 C 1.02156 0.2757 0.50457 0.0
C958 C 1.03192 0.29931 0.48359 0.0
C959 C 1.00709 0.28898 0.46337 0.0
H960 H 0.64344 0.14584 0.15999 0.0
H961 H 0.64286 0.18261 0.08525 0.0
H962 H 0.58034 0.14013 0.16721 0.0
H963 H 0.57993 0.17566 0.09214 0.0
H964 H 0.4932 0.20598 0.11774 0.0
H965 H 0.55535 0.2101 0.11545 0.0
H966 H 0.50994 0.10246 0.15496 0.0
H967 H 0.44673 0.09861 0.1577 0.0
C968 C 0.62992 0.15268 0.14511 0.0
C969 C 0.64838 0.16475 0.12202 0.0
C970 C 0.59358 0.14899 0.14918 0.0
C971 C 0.57511 0.15768 0.13033 0.0
C972 C 0.59347 0.16926 0.10723 0.0
C973 C 0.6295 0.17284 0.10317 0.0
C974 C 0.49621 0.18305 0.12603 0.0
C975 C 0.46467 0.15152 0.1375 0.0
C976 C 0.532 0.18541 0.12463 0.0
C977 C 0.53753 0.15618 0.13448 0.0
C978 C 0.5066 0.12543 0.1471 0.0
C979 C 0.47042 0.12316 0.14866 0.0
H980 H 0.68783 0.61446 0.37561 0.0
H981 H 0.75037 0.5576 0.39714 0.0
H982 H 0.62719 0.55188 0.37675 0.0
H983 H 0.69068 0.49576 0.39796 0.0
H984 H 0.58157 0.38533 0.379 0.0
H985 H 0.63808 0.44795 0.37033 0.0
H986 H 0.58828 0.5044 0.41172 0.0
H987 H 0.53212 0.44177 0.42109 0.0
C988 C 0.68866 0.58856 0.3801 0.0
C989 C 0.72369 0.59085 0.38638 0.0
C990 C 0.65405 0.55286 0.38093 0.0
C991 C 0.65414 0.51885 0.38746 0.0
C992 C 0.68954 0.52123 0.39264 0.0
C993 C 0.72374 0.55673 0.3923 0.0
C994 C 0.58259 0.41097 0.3864 0.0
C995 C 0.55224 0.40815 0.40105 0.0
C996 C 0.61493 0.44694 0.38125 0.0
C997 C 0.61771 0.48117 0.39037 0.0
C998 C 0.5868 0.47863 0.40415 0.0
C999 C 0.55457 0.44259 0.40953 0.0
H1000 H 0.97457 0.37504 0.12513 0.0
H1001 H 0.85238 0.31542 0.14055 0.0
H1002 H 0.97425 0.43594 0.12146 0.0
H1003 H 0.85206 0.37554 0.13665 0.0
H1004 H 0.86583 0.49239 0.14873 0.0
H1005 H 0.87431 0.43735 0.15682 0.0
H1006 H 0.94858 0.46625 0.09312 0.0
H1007 H 0.94115 0.52227 0.08546 0.0
C1008 C 0.94776 0.37492 0.12792 0.0
C1009 C 0.91352 0.34024 0.13309 0.0
C1010 C 0.94752 0.40976 0.12566 0.0
C1011 C 0.91314 0.41072 0.12882 0.0
C1012 C 0.87919 0.37611 0.13446 0.0
C1013 C 0.87936 0.34145 0.13651 0.0
C1014 C 0.88464 0.48759 0.13671 0.0
C1015 C 0.90264 0.51181 0.11635 0.0
C1016 C 0.88916 0.45569 0.1412 0.0
C1017 C 0.91183 0.44707 0.12549 0.0
C1018 C 0.93107 0.4721 0.10568 0.0
C1019 C 0.92645 0.504 0.10113 0.0
H1020 H 0.5009 0.20929 0.40653 0.0
H1021 H 0.44333 0.08509 0.39898 0.0
H1022 H 0.56185 0.21177 0.4123 0.0
H1023 H 0.50537 0.08782 0.40498 0.0
H1024 H 0.63483 0.12098 0.39079 0.0
H1025 H 0.571 0.11356 0.38437 0.0
H1026 H 0.59151 0.19224 0.44471 0.0
H1027 H 0.65525 0.20025 0.45079 0.0
C1028 C 0.50111 0.18236 0.40604 0.0
C1029 C 0.46691 0.14688 0.40235 0.0
C1030 C 0.53625 0.18386 0.40954 0.0
C1031 C 0.53847 0.15 0.40938 0.0
C1032 C 0.50456 0.11445 0.40515 0.0
C1033 C 0.46905 0.11287 0.40179 0.0
C1034 C 0.62571 0.13679 0.4026 0.0
C1035 C 0.65026 0.16136 0.42124 0.0
C1036 C 0.589 0.1322 0.39909 0.0
C1037 C 0.57623 0.15241 0.41396 0.0
C1038 C 0.60061 0.17655 0.43277 0.0
C1039 C 0.63707 0.18091 0.43639 0.0
H1040 H 0.5925 0.40876 0.08817 0.0
H1041 H 0.531 0.42409 0.14857 0.0
H1042 H 0.6457 0.47413 0.09421 0.0
H1043 H 0.5845 0.49008 0.15458 0.0
H1044 H 0.70967 0.59456 0.17017 0.0
H1045 H 0.65264 0.52977 0.16712 0.0
H1046 H 0.65822 0.53863 0.08763 0.0
H1047 H 0.71506 0.60227 0.09068 0.0
C1048 C 0.59021 0.42619 0.10266 0.0
C1049 C 0.55722 0.41123 0.11768 0.0
C1050 C 0.62074 0.46381 0.10612 0.0
C1051 C 0.61921 0.48775 0.12464 0.0
C1052 C 0.58674 0.47246 0.1402 0.0
C1053 C 0.55608 0.43462 0.13676 0.0
C1054 C 0.69818 0.58283 0.15211 0.0
C1055 C 0.71707 0.60338 0.13067 0.0
C1056 C 0.66558 0.54569 0.15034 0.0
C1057 C 0.65128 0.52857 0.12709 0.0
C1058 C 0.66902 0.55031 0.10581 0.0
C1059 C 0.70149 0.58703 0.10757 0.0
H1060 H 0.83461 0.46167 0.3881 0.0
H1061 H 0.95309 0.5257 0.41226 0.0
H1062 H 0.84162 0.40566 0.37988 0.0
H1063 H 0.95972 0.46906 0.40467 0.0
H1064 H 0.9634 0.36317 0.37307 0.0
H1065 H 0.95942 0.42258 0.37259 0.0
H1066 H 0.84812 0.36155 0.40813 0.0
H1067 H 0.85197 0.30312 0.40854 0.0
C1068 C 0.86234 0.46404 0.39133 0.0
C1069 C 0.89318 0.49817 0.40105 0.0
C1070 C 0.86627 0.43178 0.38679 0.0
C1071 C 0.90115 0.43277 0.39181 0.0
C1072 C 0.93255 0.4674 0.40047 0.0
C1073 C 0.92857 0.49969 0.40512 0.0
C1074 C 0.93799 0.36254 0.38048 0.0
C1075 C 0.90819 0.32856 0.39101 0.0
C1076 C 0.93578 0.39651 0.38034 0.0
C1077 C 0.90339 0.39677 0.39028 0.0
C1078 C 0.87324 0.36236 0.40004 0.0
C1079 C 0.87566 0.32886 0.40048 0.0
H1080 H 0.106 0.6056 0.61641 0.0
H1081 H 0.22181 0.65708 0.64502 0.0
H1082 H 0.09724 0.54111 0.62329 0.0
H1083 H 0.21295 0.59295 0.65187 0.0
H1084 H 0.20098 0.48053 0.618 0.0
H1085 H 0.20479 0.54293 0.61864 0.0
H1086 H 0.09759 0.4939 0.65892 0.0
H1087 H 0.09408 0.4305 0.65876 0.0
C1088 C 0.1294 0.60319 0.62441 0.0
C1089 C 0.16469 0.63661 0.63005 0.0
C1090 C 0.12422 0.56626 0.62856 0.0
C1091 C 0.15442 0.56197 0.63808 0.0
C1092 C 0.18917 0.59533 0.64447 0.0
C1093 C 0.19416 0.63211 0.64065 0.0
C1094 C 0.17817 0.48284 0.62712 0.0
C1095 C 0.1471 0.45042 0.63824 0.0
C1096 C 0.18054 0.51878 0.62761 0.0
C1097 C 0.15159 0.52342 0.63887 0.0
C1098 C 0.12032 0.49111 0.65007 0.0
C1099 C 0.11838 0.45496 0.65008 0.0
H1100 H 0.3411 0.89088 0.93482 0.0
H1101 H 0.37216 0.94181 0.86216 0.0
H1102 H 0.39729 0.88329 0.9352 0.0
H1103 H 0.42914 0.93407 0.86268 0.0
H1104 H 0.54803 0.94914 0.89042 0.0
H1105 H 0.4923 0.95804 0.88585 0.0
H1106 H 0.41799 0.84246 0.91294 0.0
H1107 H 0.47359 0.83382 0.91797 0.0
C1108 C 0.36001 0.90071 0.9189 0.0
C1109 C 0.35193 0.91693 0.89839 0.0
C1110 C 0.39215 0.89601 0.91909 0.0
C1111 C 0.41736 0.90752 0.89884 0.0
C1112 C 0.41017 0.9249 0.87857 0.0
C1113 C 0.37761 0.92938 0.87828 0.0
C1114 C 0.51975 0.9256 0.89532 0.0
C1115 C 0.5153 0.89087 0.90478 0.0
C1116 C 0.48782 0.9306 0.89249 0.0
C1117 C 0.45082 0.90111 0.89926 0.0
C1118 C 0.44623 0.86593 0.90787 0.0
C1119 C 0.47804 0.86083 0.91053 0.0
H1120 H 0.62744 0.67352 0.64683 0.0
H1121 H 0.56838 0.73727 0.635 0.0
H1122 H 0.56504 0.61288 0.64682 0.0
H1123 H 0.5068 0.67747 0.63505 0.0
H1124 H 0.39852 0.56825 0.65318 0.0
H1125 H 0.46206 0.62337 0.66182 0.0
H1126 H 0.51396 0.5755 0.61413 0.0
H1127 H 0.45026 0.51974 0.60582 0.0
C1128 C 0.60117 0.67463 0.6447 0.0
C1129 C 0.6028 0.7101 0.64082 0.0
C1130 C 0.56553 0.63998 0.64449 0.0
C1131 C 0.53094 0.64035 0.64091 0.0
C1132 C 0.53274 0.67608 0.63812 0.0
C1133 C 0.56814 0.71039 0.63793 0.0
C1134 C 0.42349 0.56896 0.64494 0.0
C1135 C 0.41917 0.53959 0.62867 0.0
C1136 C 0.45993 0.60075 0.64975 0.0
C1137 C 0.49308 0.60398 0.63854 0.0
C1138 C 0.48905 0.57378 0.62319 0.0
C1139 C 0.4525 0.54204 0.61822 0.0
H1140 H 0.12695 0.62778 0.89 0.0
H1141 H 0.2029 0.64685 0.95142 0.0
H1142 H 0.11944 0.56358 0.88358 0.0
H1143 H 0.19493 0.58308 0.94526 0.0
H1144 H 0.2162 0.4952 0.90666 0.0
H1145 H 0.21702 0.55557 0.91201 0.0
H1146 H 0.09327 0.49641 0.90463 0.0
H1147 H 0.09217 0.4348 0.89918 0.0
C1148 C 0.14185 0.61825 0.90219 0.0
C1149 C 0.16554 0.64257 0.92123 0.0
C1150 C 0.13726 0.58137 0.89864 0.0
C1151 C 0.15674 0.5683 0.91382 0.0
C1152 C 0.17979 0.59237 0.93309 0.0
C1153 C 0.18407 0.62887 0.93676 0.0
C1154 C 0.18894 0.49464 0.90607 0.0
C1155 C 0.15401 0.45976 0.90261 0.0
C1156 C 0.1895 0.52948 0.90929 0.0
C1157 C 0.15521 0.53082 0.90906 0.0
C1158 C 0.1202 0.49629 0.90489 0.0
C1159 C 0.11957 0.46102 0.90185 0.0
H1160 H 0.35968 0.91349 0.67162 0.0
H1161 H 0.35465 0.91461 0.59211 0.0
H1162 H 0.41592 0.90456 0.6689 0.0
H1163 H 0.41062 0.90663 0.58935 0.0
H1164 H 0.47293 0.83965 0.59067 0.0
H1165 H 0.42079 0.85316 0.59672 0.0
H1166 H 0.48418 0.93192 0.656 0.0
H1167 H 0.53662 0.91811 0.64997 0.0
C1168 C 0.37115 0.91279 0.65363 0.0
C1169 C 0.35255 0.91436 0.63209 0.0
C1170 C 0.40324 0.90756 0.65204 0.0
C1171 C 0.41726 0.90394 0.62887 0.0
C1172 C 0.39996 0.90806 0.60748 0.0
C1173 C 0.36801 0.91299 0.60906 0.0
C1174 C 0.4759 0.85996 0.60494 0.0
C1175 C 0.5092 0.87809 0.61963 0.0
C1176 C 0.44599 0.86782 0.6084 0.0
C1177 C 0.44851 0.89419 0.62658 0.0
C1178 C 0.48123 0.91141 0.64188 0.0
C1179 C 0.51126 0.90345 0.63843 0.0
H1180 H 0.62325 0.6826 0.87897 0.0
H1181 H 0.56873 0.74665 0.90307 0.0
H1182 H 0.56027 0.62293 0.87942 0.0
H1183 H 0.50674 0.68772 0.90387 0.0
H1184 H 0.39429 0.58183 0.88755 0.0
H1185 H 0.45693 0.63806 0.87873 0.0
H1186 H 0.51329 0.58077 0.91073 0.0
H1187 H 0.45058 0.52384 0.9187 0.0
C1188 C 0.59788 0.68406 0.88405 0.0
C1189 C 0.60115 0.7194 0.89112 0.0
C1190 C 0.56185 0.64986 0.8845 0.0
C1191 C 0.52834 0.65044 0.89173 0.0
C1192 C 0.53167 0.68608 0.89791 0.0
C1193 C 0.56746 0.71997 0.89764 0.0
C1194 C 0.41998 0.58084 0.89229 0.0
C1195 C 0.41722 0.54829 0.90405 0.0
C1196 C 0.45599 0.6133 0.88744 0.0
C1197 C 0.49027 0.61418 0.89421 0.0
C1198 C 0.48758 0.58109 0.90511 0.0
C1199 C 0.45153 0.54861 0.90999 0.0
loop_
_geom_bond_atom_site_label_1
_geom_bond_atom_site_label_2
_geom_bond_distance
_geom_bond_site_symmetry_2
_ccdc_geom_bond_type
Tb0 C9 2.764 . S
Tb0 O10 2.325 . S
Tb0 O13 2.303 . S
Tb0 O17 2.322 . S
Tb0 O18 2.349 . S
Tb0 O21 2.415 . S
Tb0 O22 2.399 . S
Tb1 O11 2.322 . S
Tb1 O12 2.349 . S
Tb1 O14 2.415 . S
Tb1 O15 2.399 . S
Tb1 O16 2.325 . S
Tb1 O19 2.303 . S
Tb1 C30 2.764 . S
C2 O18 1.261 . S
C2 O19 1.257 . S
C3 C6 1.358 . S
C3 C7 1.332 . S
C3 C9 1.504 1_565 S
C4 C5 1.373 . S
C4 C8 1.308 . S
C5 C4 1.373 . S
C5 C6 1.429 . S
C5 H32 0.932 . S
C6 C3 1.358 . S
C6 C5 1.429 . S
C6 H33 0.930 . S
C7 C3 1.332 . S
C7 C8 1.394 . S
C7 H34 0.932 . S
C8 C4 1.308 . S
C8 C7 1.394 . S
C8 H35 0.929 . S
C9 Tb0 2.764 . S
C9 C3 1.504 1_545 S
C9 O21 1.239 . S
C9 O22 1.263 . S
O10 Tb0 2.325 . S
O10 C20 1.236 . S
O11 Tb1 2.322 . S
O11 C20 1.257 . S
O12 Tb1 2.349 . S
O12 C23 1.261 . S
O13 Tb0 2.303 . S
O13 C23 1.257 . S
O14 Tb1 2.415 . S
O14 C30 1.239 . S
O15 Tb1 2.399 . S
O15 C30 1.263 . S
O16 Tb1 2.325 . S
O16 C31 1.236 . S
O17 Tb0 2.322 . S
O17 C31 1.257 . S
O18 Tb0 2.349 . S
O18 C2 1.261 . S
O19 Tb1 2.303 . S
O19 C2 1.257 . S
C20 O10 1.236 . S
C20 O11 1.257 . S
O21 Tb0 2.415 . S
O21 C9 1.239 . S
O22 Tb0 2.399 . S
O22 C9 1.263 . S
C23 O12 1.261 . S
C23 O13 1.257 . S
C24 C27 1.358 . S
C24 C28 1.332 . S
C24 C30 1.504 . S
C25 C26 1.373 . S
C25 C29 1.308 . S
C26 C25 1.373 . S
C26 C27 1.429 . S
C26 H36 0.932 . S
C27 C24 1.358 . S
C27 C26 1.429 . S
C27 H37 0.930 . S
C28 C24 1.332 . S
C28 C29 1.394 . S
C28 H38 0.932 . S
C29 C25 1.308 . S
C29 C28 1.394 . S
C29 H39 0.929 . S
C30 Tb1 2.764 . S
C30 O14 1.239 . S
C30 O15 1.263 . S
C30 C24 1.504 . S
C31 O16 1.236 . S
C31 O17 1.257 . S
H32 C5 0.932 . S
H33 C6 0.930 . S
H34 C7 0.932 . S
H35 C8 0.929 . S
H36 C26 0.932 . S
H37 C27 0.930 . S
H38 C28 0.932 . S
H39 C29 0.929 . S
Tb40 C49 2.764 . S
Tb40 O50 2.325 . S
Tb40 O53 2.303 . S
Tb40 O57 2.322 . S
Tb40 O58 2.349 . S
Tb40 O61 2.415 . S
Tb40 O62 2.399 . S
Tb41 O51 2.322 . S
Tb41 O52 2.349 . S
Tb41 O54 2.415 . S
Tb41 O55 2.399 . S
Tb41 O56 2.325 . S
Tb41 O59 2.303 . S
Tb41 C70 2.764 . S
C42 O58 1.261 . S
C42 O59 1.257 . S
C43 C46 1.358 . S
C43 C47 1.332 . S
C43 C49 1.504 . S
C44 C45 1.373 . S
C44 C48 1.308 . S
C45 C44 1.373 . S
C45 C46 1.429 . S
C45 H72 0.932 . S
C46 C43 1.358 . S
C46 C45 1.429 . S
C46 H73 0.930 . S
C47 C43 1.332 . S
C47 C48 1.394 . S
C47 H74 0.932 . S
C48 C44 1.308 . S
C48 C47 1.394 . S
C48 H75 0.929 . S
C49 Tb40 2.764 . S
C49 C43 1.504 . S
C49 O61 1.239 . S
C49 O62 1.263 . S
O50 Tb40 2.325 . S
O50 C60 1.236 . S
O51 Tb41 2.322 . S
O51 C60 1.257 . S
O52 Tb41 2.349 . S
O52 C63 1.261 . S
O53 Tb40 2.303 . S
O53 C63 1.257 . S
O54 Tb41 2.415 . S
O54 C70 1.239 . S
O55 Tb41 2.399 . S
O55 C70 1.263 . S
O56 Tb41 2.325 . S
O56 C71 1.236 . S
O57 Tb40 2.322 . S
O57 C71 1.257 . S
O58 Tb40 2.349 . S
O58 C42 1.261 . S
O59 Tb41 2.303 . S
O59 C42 1.257 . S
C60 O50 1.236 . S
C60 O51 1.257 . S
O61 Tb40 2.415 . S
O61 C49 1.239 . S
O62 Tb40 2.399 . S
O62 C49 1.263 . S
C63 O52 1.261 . S
C63 O53 1.257 . S
C64 C67 1.358 . S
C64 C68 1.332 . S
C64 C70 1.504 . S
C65 C66 1.373 . S
C65 C69 1.308 . S
C66 C65 1.373 . S
C66 C67 1.429 . S
C66 H76 0.932 . S
C67 C64 1.358 . S
C67 C66 1.429 . S
C67 H77 0.930 . S
C68 C64 1.332 . S
C68 C69 1.394 . S
C68 H78 0.932 . S
C69 C65 1.308 . S
C69 C68 1.394 . S
C69 H79 0.929 . S
C70 Tb41 2.764 . S
C70 O54 1.239 . S
C70 O55 1.263 . S
C70 C64 1.504 . S
C71 O56 1.236 . S
C71 O57 1.257 . S
H72 C45 0.932 . S
H73 C46 0.930 . S
H74 C47 0.932 . S
H75 C48 0.929 . S
H76 C66 0.932 . S
H77 C67 0.930 . S
H78 C68 0.932 . S
H79 C69 0.929 . S
Tb80 C89 2.764 . S
Tb80 O90 2.325 . S
Tb80 O93 2.303 . S
Tb80 O97 2.322 . S
Tb80 O98 2.349 . S
Tb80 O101 2.415 . S
Tb80 O102 2.399 . S
Tb81 O91 2.322 . S
Tb81 O92 2.349 . S
Tb81 O94 2.415 . S
Tb81 O95 2.399 . S
Tb81 O96 2.325 . S
Tb81 O99 2.303 . S
Tb81 C110 2.764 . S
C82 O98 1.261 . S
C82 O99 1.257 . S
C83 C86 1.358 . S
C83 C87 1.332 . S
C83 C89 1.504 1_455 S
C84 C85 1.373 . S
C84 C88 1.308 . S
C85 C84 1.373 . S
C85 C86 1.429 . S
C85 H112 0.932 . S
C86 C83 1.358 . S
C86 C85 1.429 . S
C86 H113 0.930 . S
C87 C83 1.332 . S
C87 C88 1.394 . S
C87 H114 0.932 . S
C88 C84 1.308 . S
C88 C87 1.394 . S
C88 H115 0.929 . S
C89 Tb80 2.764 . S
C89 C83 1.504 1_655 S
C89 O101 1.239 . S
C89 O102 1.263 . S
O90 Tb80 2.325 . S
O90 C100 1.236 . S
O91 Tb81 2.322 . S
O91 C100 1.257 . S
O92 Tb81 2.349 . S
O92 C103 1.261 . S
O93 Tb80 2.303 . S
O93 C103 1.257 . S
O94 Tb81 2.415 . S
O94 C110 1.239 . S
O95 Tb81 2.399 . S
O95 C110 1.263 . S
O96 Tb81 2.325 . S
O96 C111 1.236 . S
O97 Tb80 2.322 . S
O97 C111 1.257 . S
O98 Tb80 2.349 . S
O98 C82 1.261 . S
O99 Tb81 2.303 . S
O99 C82 1.257 . S
C100 O90 1.236 . S
C100 O91 1.257 . S
O101 Tb80 2.415 . S
O101 C89 1.239 . S
O102 Tb80 2.399 . S
O102 C89 1.263 . S
C103 O92 1.261 . S
C103 O93 1.257 . S
C104 C107 1.358 . S
C104 C108 1.332 . S
C104 C110 1.504 . S
C105 C106 1.373 . S
C105 C109 1.308 . S
C106 C105 1.373 . S
C106 C107 1.429 . S
C106 H116 0.932 . S
C107 C104 1.358 . S
C107 C106 1.429 . S
C107 H117 0.930 . S
C108 C104 1.332 . S
C108 C109 1.394 . S
C108 H118 0.932 . S
C109 C105 1.308 . S
C109 C108 1.394 . S
C109 H119 0.929 . S
C110 Tb81 2.764 . S
C110 O94 1.239 . S
C110 O95 1.263 . S
C110 C104 1.504 . S
C111 O96 1.236 . S
C111 O97 1.257 . S
H112 C85 0.932 . S
H113 C86 0.930 . S
H114 C87 0.932 . S
H115 C88 0.929 . S
H116 C106 0.932 . S
H117 C107 0.930 . S
H118 C108 0.932 . S
H119 C109 0.929 . S
Tb120 C129 2.764 . S
Tb120 O130 2.325 . S
Tb120 O133 2.303 . S
Tb120 O137 2.322 . S
Tb120 O138 2.349 . S
Tb120 O141 2.415 . S
Tb120 O142 2.399 . S
Tb121 O131 2.322 . S
Tb121 O132 2.349 . S
Tb121 O134 2.415 . S
Tb121 O135 2.399 . S
Tb121 O136 2.325 . S
Tb121 O139 2.303 . S
Tb121 C150 2.764 . S
C122 O138 1.261 . S
C122 O139 1.257 . S
C123 C126 1.358 . S
C123 C127 1.332 . S
C123 C129 1.504 . S
C124 C125 1.373 . S
C124 C128 1.308 . S
C125 C124 1.373 . S
C125 C126 1.429 . S
C125 H152 0.932 . S
C126 C123 1.358 . S
C126 C125 1.429 . S
C126 H153 0.930 . S
C127 C123 1.332 . S
C127 C128 1.394 . S
C127 H154 0.932 . S
C128 C124 1.308 . S
C128 C127 1.394 . S
C128 H155 0.929 . S
C129 Tb120 2.764 . S
C129 C123 1.504 . S
C129 O141 1.239 . S
C129 O142 1.263 . S
O130 Tb120 2.325 . S
O130 C140 1.236 . S
O131 Tb121 2.322 . S
O131 C140 1.257 . S
O132 Tb121 2.349 . S
O132 C143 1.261 . S
O133 Tb120 2.303 . S
O133 C143 1.257 . S
O134 Tb121 2.415 . S
O134 C150 1.239 . S
O135 Tb121 2.399 . S
O135 C150 1.263 . S
O136 Tb121 2.325 . S
O136 C151 1.236 . S
O137 Tb120 2.322 . S
O137 C151 1.257 . S
O138 Tb120 2.349 . S
O138 C122 1.261 . S
O139 Tb121 2.303 . S
O139 C122 1.257 . S
C140 O130 1.236 . S
C140 O131 1.257 . S
O141 Tb120 2.415 . S
O141 C129 1.239 . S
O142 Tb120 2.399 . S
O142 C129 1.263 . S
C143 O132 1.261 . S
C143 O133 1.257 . S
C144 C147 1.358 . S
C144 C148 1.332 . S
C144 C150 1.504 1_565 S
C145 C146 1.373 . S
C145 C149 1.308 . S
C146 C145 1.373 . S
C146 C147 1.429 . S
C146 H156 0.932 . S
C147 C144 1.358 . S
C147 C146 1.429 . S
C147 H157 0.930 . S
C148 C144 1.332 . S
C148 C149 1.394 . S
C148 H158 0.932 . S
C149 C145 1.308 . S
C149 C148 1.394 . S
C149 H159 0.929 . S
C150 Tb121 2.764 . S
C150 O134 1.239 . S
C150 O135 1.263 . S
C150 C144 1.504 1_545 S
C151 O136 1.236 . S
C151 O137 1.257 . S
H152 C125 0.932 . S
H153 C126 0.930 . S
H154 C127 0.932 . S
H155 C128 0.929 . S
H156 C146 0.932 . S
H157 C147 0.930 . S
H158 C148 0.932 . S
H159 C149 0.929 . S
Tb160 C169 2.764 . S
Tb160 O170 2.325 . S
Tb160 O173 2.303 . S
Tb160 O177 2.322 . S
Tb160 O178 2.349 . S
Tb160 O181 2.415 . S
Tb160 O182 2.399 . S
Tb161 O171 2.322 . S
Tb161 O172 2.349 . S
Tb161 O174 2.415 . S
Tb161 O175 2.399 . S
Tb161 O176 2.325 . S
Tb161 O179 2.303 . S
Tb161 C190 2.764 . S
C162 O178 1.261 . S
C162 O179 1.257 . S
C163 C166 1.358 . S
C163 C167 1.332 . S
C163 C169 1.504 . S
C164 C165 1.373 . S
C164 C168 1.308 . S
C165 C164 1.373 . S
C165 C166 1.429 . S
C165 H192 0.932 . S
C166 C163 1.358 . S
C166 C165 1.429 . S
C166 H193 0.930 . S
C167 C163 1.332 . S
C167 C168 1.394 . S
C167 H194 0.932 . S
C168 C164 1.308 . S
C168 C167 1.394 . S
C168 H195 0.929 . S
C169 Tb160 2.764 . S
C169 C163 1.504 . S
C169 O181 1.239 . S
C169 O182 1.263 . S
O170 Tb160 2.325 . S
O170 C180 1.236 . S
O171 Tb161 2.322 . S
O171 C180 1.257 . S
O172 Tb161 2.349 . S
O172 C183 1.261 . S
O173 Tb160 2.303 . S
O173 C183 1.257 . S
O174 Tb161 2.415 . S
O174 C190 1.239 . S
O175 Tb161 2.399 . S
O175 C190 1.263 . S
O176 Tb161 2.325 . S
O176 C191 1.236 . S
O177 Tb160 2.322 . S
O177 C191 1.257 . S
O178 Tb160 2.349 . S
O178 C162 1.261 . S
O179 Tb161 2.303 . S
O179 C162 1.257 . S
C180 O170 1.236 . S
C180 O171 1.257 . S
O181 Tb160 2.415 . S
O181 C169 1.239 . S
O182 Tb160 2.399 . S
O182 C169 1.263 . S
C183 O172 1.261 . S
C183 O173 1.257 . S
C184 C187 1.358 . S
C184 C188 1.332 . S
C184 C190 1.504 . S
C185 C186 1.373 . S
C185 C189 1.308 . S
C186 C185 1.373 . S
C186 C187 1.429 . S
C186 H196 0.932 . S
C187 C184 1.358 . S
C187 C186 1.429 . S
C187 H197 0.930 . S
C188 C184 1.332 . S
C188 C189 1.394 . S
C188 H198 0.932 . S
C189 C185 1.308 . S
C189 C188 1.394 . S
C189 H199 0.929 . S
C190 Tb161 2.764 . S
C190 O174 1.239 . S
C190 O175 1.263 . S
C190 C184 1.504 . S
C191 O176 1.236 . S
C191 O177 1.257 . S
H192 C165 0.932 . S
H193 C166 0.930 . S
H194 C167 0.932 . S
H195 C168 0.929 . S
H196 C186 0.932 . S
H197 C187 0.930 . S
H198 C188 0.932 . S
H199 C189 0.929 . S
Tb200 C209 2.764 . S
Tb200 O210 2.325 . S
Tb200 O213 2.303 . S
Tb200 O217 2.322 . S
Tb200 O218 2.349 . S
Tb200 O221 2.415 . S
Tb200 O222 2.399 . S
Tb201 O211 2.322 . S
Tb201 O212 2.349 . S
Tb201 O214 2.415 . S
Tb201 O215 2.399 . S
Tb201 O216 2.325 . S
Tb201 O219 2.303 . S
Tb201 C230 2.764 . S
C202 O218 1.261 . S
C202 O219 1.257 . S
C203 C206 1.358 . S
C203 C207 1.332 . S
C203 C209 1.504 . S
C204 C205 1.373 . S
C204 C208 1.308 . S
C205 C204 1.373 . S
C205 C206 1.429 . S
C205 H232 0.932 . S
C206 C203 1.358 . S
C206 C205 1.429 . S
C206 H233 0.930 . S
C207 C203 1.332 . S
C207 C208 1.394 . S
C207 H234 0.932 . S
C208 C204 1.308 . S
C208 C207 1.394 . S
C208 H235 0.929 . S
C209 Tb200 2.764 . S
C209 C203 1.504 . S
C209 O221 1.239 . S
C209 O222 1.263 . S
O210 Tb200 2.325 . S
O210 C220 1.236 . S
O211 Tb201 2.322 . S
O211 C220 1.257 . S
O212 Tb201 2.349 . S
O212 C223 1.261 . S
O213 Tb200 2.303 . S
O213 C223 1.257 . S
O214 Tb201 2.415 . S
O214 C230 1.239 . S
O215 Tb201 2.399 . S
O215 C230 1.263 . S
O216 Tb201 2.325 . S
O216 C231 1.236 . S
O217 Tb200 2.322 . S
O217 C231 1.257 . S
O218 Tb200 2.349 . S
O218 C202 1.261 . S
O219 Tb201 2.303 . S
O219 C202 1.257 . S
C220 O210 1.236 . S
C220 O211 1.257 . S
O221 Tb200 2.415 . S
O221 C209 1.239 . S
O222 Tb200 2.399 . S
O222 C209 1.263 . S
C223 O212 1.261 . S
C223 O213 1.257 . S
C224 C227 1.358 . S
C224 C228 1.332 . S
C224 C230 1.504 1_455 S
C225 C226 1.373 . S
C225 C229 1.308 . S
C226 C225 1.373 . S
C226 C227 1.429 . S
C226 H236 0.932 . S
C227 C224 1.358 . S
C227 C226 1.429 . S
C227 H237 0.930 . S
C228 C224 1.332 . S
C228 C229 1.394 . S
C228 H238 0.932 . S
C229 C225 1.308 . S
C229 C228 1.394 . S
C229 H239 0.929 . S
C230 Tb201 2.764 . S
C230 O214 1.239 . S
C230 O215 1.263 . S
C230 C224 1.504 1_655 S
C231 O216 1.236 . S
C231 O217 1.257 . S
H232 C205 0.932 . S
H233 C206 0.930 . S
H234 C207 0.932 . S
H235 C208 0.929 . S
H236 C226 0.932 . S
H237 C227 0.930 . S
H238 C228 0.932 . S
H239 C229 0.929 . S
Tb240 C249 2.764 . S
Tb240 O250 2.325 . S
Tb240 O253 2.303 . S
Tb240 O257 2.322 . S
Tb240 O258 2.349 . S
Tb240 O261 2.415 . S
Tb240 O262 2.399 . S
Tb241 O251 2.322 . S
Tb241 O252 2.349 . S
Tb241 O254 2.415 . S
Tb241 O255 2.399 . S
Tb241 O256 2.325 . S
Tb241 O259 2.303 . S
Tb241 C270 2.764 . S
C242 O258 1.261 . S
C242 O259 1.257 . S
C243 C246 1.358 . S
C243 C247 1.332 . S
C243 C249 1.504 . S
C244 C245 1.373 . S
C244 C248 1.308 . S
C245 C244 1.373 . S
C245 C246 1.429 . S
C245 H272 0.932 . S
C246 C243 1.358 . S
C246 C245 1.429 . S
C246 H273 0.930 . S
C247 C243 1.332 . S
C247 C248 1.394 . S
C247 H274 0.932 . S
C248 C244 1.308 . S
C248 C247 1.394 . S
C248 H275 0.929 . S
C249 Tb240 2.764 . S
C249 C243 1.504 . S
C249 O261 1.239 . S
C249 O262 1.263 . S
O250 Tb240 2.325 . S
O250 C260 1.236 . S
O251 Tb241 2.322 . S
O251 C260 1.257 . S
O252 Tb241 2.349 . S
O252 C263 1.261 . S
O253 Tb240 2.303 . S
O253 C263 1.257 . S
O254 Tb241 2.415 . S
O254 C270 1.239 . S
O255 Tb241 2.399 . S
O255 C270 1.263 . S
O256 Tb241 2.325 . S
O256 C271 1.236 . S
O257 Tb240 2.322 . S
O257 C271 1.257 . S
O258 Tb240 2.349 . S
O258 C242 1.261 . S
O259 Tb241 2.303 . S
O259 C242 1.257 . S
C260 O250 1.236 . S
C260 O251 1.257 . S
O261 Tb240 2.415 . S
O261 C249 1.239 . S
O262 Tb240 2.399 . S
O262 C249 1.263 . S
C263 O252 1.261 . S
C263 O253 1.257 . S
C264 C267 1.358 . S
C264 C268 1.332 . S
C264 C270 1.504 1_655 S
C265 C266 1.373 . S
C265 C269 1.308 . S
C266 C265 1.373 . S
C266 C267 1.429 . S
C266 H276 0.932 . S
C267 C264 1.358 . S
C267 C266 1.429 . S
C267 H277 0.930 . S
C268 C264 1.332 . S
C268 C269 1.394 . S
C268 H278 0.932 . S
C269 C265 1.308 . S
C269 C268 1.394 . S
C269 H279 0.929 . S
C270 Tb241 2.764 . S
C270 O254 1.239 . S
C270 O255 1.263 . S
C270 C264 1.504 1_455 S
C271 O256 1.236 . S
C271 O257 1.257 . S
H272 C245 0.932 . S
H273 C246 0.930 . S
H274 C247 0.932 . S
H275 C248 0.929 . S
H276 C266 0.932 . S
H277 C267 0.930 . S
H278 C268 0.932 . S
H279 C269 0.929 . S
Tb280 C289 2.764 . S
Tb280 O290 2.325 . S
Tb280 O293 2.303 . S
Tb280 O297 2.322 . S
Tb280 O298 2.349 . S
Tb280 O301 2.415 . S
Tb280 O302 2.399 . S
Tb281 O291 2.322 . S
Tb281 O292 2.349 . S
Tb281 O294 2.415 . S
Tb281 O295 2.399 . S
Tb281 O296 2.325 . S
Tb281 O299 2.303 . S
Tb281 C310 2.764 . S
C282 O298 1.261 . S
C282 O299 1.257 . S
C283 C286 1.358 . S
C283 C287 1.332 . S
C283 C289 1.504 1_545 S
C284 C285 1.373 . S
C284 C288 1.308 . S
C285 C284 1.373 . S
C285 C286 1.429 . S
C285 H312 0.932 . S
C286 C283 1.358 . S
C286 C285 1.429 . S
C286 H313 0.930 . S
C287 C283 1.332 . S
C287 C288 1.394 . S
C287 H314 0.932 . S
C288 C284 1.308 . S
C288 C287 1.394 . S
C288 H315 0.929 . S
C289 Tb280 2.764 . S
C289 C283 1.504 1_565 S
C289 O301 1.239 . S
C289 O302 1.263 . S
O290 Tb280 2.325 . S
O290 C300 1.236 . S
O291 Tb281 2.322 . S
O291 C300 1.257 . S
O292 Tb281 2.349 . S
O292 C303 1.261 . S
O293 Tb280 2.303 . S
O293 C303 1.257 . S
O294 Tb281 2.415 . S
O294 C310 1.239 . S
O295 Tb281 2.399 . S
O295 C310 1.263 . S
O296 Tb281 2.325 . S
O296 C311 1.236 . S
O297 Tb280 2.322 . S
O297 C311 1.257 . S
O298 Tb280 2.349 . S
O298 C282 1.261 . S
O299 Tb281 2.303 . S
O299 C282 1.257 . S
C300 O290 1.236 . S
C300 O291 1.257 . S
O301 Tb280 2.415 . S
O301 C289 1.239 . S
O302 Tb280 2.399 . S
O302 C289 1.263 . S
C303 O292 1.261 . S
C303 O293 1.257 . S
C304 C307 1.358 . S
C304 C308 1.332 . S
C304 C310 1.504 . S
C305 C306 1.373 . S
C305 C309 1.308 . S
C306 C305 1.373 . S
C306 C307 1.429 . S
C306 H316 0.932 . S
C307 C304 1.358 . S
C307 C306 1.429 . S
C307 H317 0.930 . S
C308 C304 1.332 . S
C308 C309 1.394 . S
C308 H318 0.932 . S
C309 C305 1.308 . S
C309 C308 1.394 . S
C309 H319 0.929 . S
C310 Tb281 2.764 . S
C310 O294 1.239 . S
C310 O295 1.263 . S
C310 C304 1.504 . S
C311 O296 1.236 . S
C311 O297 1.257 . S
H312 C285 0.932 . S
H313 C286 0.930 . S
H314 C287 0.932 . S
H315 C288 0.929 . S
H316 C306 0.932 . S
H317 C307 0.930 . S
H318 C308 0.932 . S
H319 C309 0.929 . S
Tb320 C329 2.764 . S
Tb320 O330 2.325 . S
Tb320 O333 2.303 . S
Tb320 O337 2.322 . S
Tb320 O338 2.349 . S
Tb320 O341 2.415 . S
Tb320 O342 2.399 . S
Tb321 O331 2.322 . S
Tb321 O332 2.349 . S
Tb321 O334 2.415 . S
Tb321 O335 2.399 . S
Tb321 O336 2.325 . S
Tb321 O339 2.303 . S
Tb321 C350 2.764 . S
C322 O338 1.261 . S
C322 O339 1.257 . S
C323 C326 1.358 . S
C323 C327 1.332 . S
C323 C329 1.504 . S
C324 C325 1.373 . S
C324 C328 1.308 . S
C325 C324 1.373 . S
C325 C326 1.429 . S
C325 H352 0.932 . S
C326 C323 1.358 . S
C326 C325 1.429 . S
C326 H353 0.930 . S
C327 C323 1.332 . S
C327 C328 1.394 . S
C327 H354 0.932 . S
C328 C324 1.308 . S
C328 C327 1.394 . S
C328 H355 0.929 . S
C329 Tb320 2.764 . S
C329 C323 1.504 . S
C329 O341 1.239 . S
C329 O342 1.263 . S
O330 Tb320 2.325 . S
O330 C340 1.236 . S
O331 Tb321 2.322 . S
O331 C340 1.257 . S
O332 Tb321 2.349 . S
O332 C343 1.261 . S
O333 Tb320 2.303 . S
O333 C343 1.257 . S
O334 Tb321 2.415 . S
O334 C350 1.239 . S
O335 Tb321 2.399 . S
O335 C350 1.263 . S
O336 Tb321 2.325 . S
O336 C351 1.236 . S
O337 Tb320 2.322 . S
O337 C351 1.257 . S
O338 Tb320 2.349 . S
O338 C322 1.261 . S
O339 Tb321 2.303 . S
O339 C322 1.257 . S
C340 O330 1.236 . S
C340 O331 1.257 . S
O341 Tb320 2.415 . S
O341 C329 1.239 . S
O342 Tb320 2.399 . S
O342 C329 1.263 . S
C343 O332 1.261 . S
C343 O333 1.257 . S
C344 C347 1.358 . S
C344 C348 1.332 . S
C344 C350 1.504 . S
C345 C346 1.373 . S
C345 C349 1.308 . S
C346 C345 1.373 . S
C346 C347 1.429 . S
C346 H356 0.932 . S
C347 C344 1.358 . S
C347 C346 1.429 . S
C347 H357 0.930 . S
C348 C344 1.332 . S
C348 C349 1.394 . S
C348 H358 0.932 . S
C349 C345 1.308 . S
C349 C348 1.394 . S
C349 H359 0.929 . S
C350 Tb321 2.764 . S
C350 O334 1.239 . S
C350 O335 1.263 . S
C350 C344 1.504 . S
C351 O336 1.236 . S
C351 O337 1.257 . S
H352 C325 0.932 . S
H353 C326 0.930 . S
H354 C327 0.932 . S
H355 C328 0.929 . S
H356 C346 0.932 . S
H357 C347 0.930 . S
H358 C348 0.932 . S
H359 C349 0.929 . S
Tb360 C369 2.764 . S
Tb360 O370 2.325 . S
Tb360 O373 2.303 . S
Tb360 O377 2.322 . S
Tb360 O378 2.349 . S
Tb360 O381 2.415 . S
Tb360 O382 2.399 . S
Tb361 O371 2.322 . S
Tb361 O372 2.349 . S
Tb361 O374 2.415 . S
Tb361 O375 2.399 . S
Tb361 O376 2.325 . S
Tb361 O379 2.303 . S
Tb361 C390 2.764 . S
C362 O378 1.261 . S
C362 O379 1.257 . S
C363 C366 1.358 . S
C363 C367 1.332 . S
C363 C369 1.504 1_655 S
C364 C365 1.373 . S
C364 C368 1.308 . S
C365 C364 1.373 . S
C365 C366 1.429 . S
C365 H392 0.932 . S
C366 C363 1.358 . S
C366 C365 1.429 . S
C366 H393 0.930 . S
C367 C363 1.332 . S
C367 C368 1.394 . S
C367 H394 0.932 . S
C368 C364 1.308 . S
C368 C367 1.394 . S
C368 H395 0.929 . S
C369 Tb360 2.764 . S
C369 C363 1.504 1_455 S
C369 O381 1.239 . S
C369 O382 1.263 . S
O370 Tb360 2.325 . S
O370 C380 1.236 . S
O371 Tb361 2.322 . S
O371 C380 1.257 . S
O372 Tb361 2.349 . S
O372 C383 1.261 . S
O373 Tb360 2.303 . S
O373 C383 1.257 . S
O374 Tb361 2.415 . S
O374 C390 1.239 . S
O375 Tb361 2.399 . S
O375 C390 1.263 . S
O376 Tb361 2.325 . S
O376 C391 1.236 . S
O377 Tb360 2.322 . S
O377 C391 1.257 . S
O378 Tb360 2.349 . S
O378 C362 1.261 . S
O379 Tb361 2.303 . S
O379 C362 1.257 . S
C380 O370 1.236 . S
C380 O371 1.257 . S
O381 Tb360 2.415 . S
O381 C369 1.239 . S
O382 Tb360 2.399 . S
O382 C369 1.263 . S
C383 O372 1.261 . S
C383 O373 1.257 . S
C384 C387 1.358 . S
C384 C388 1.332 . S
C384 C390 1.504 . S
C385 C386 1.373 . S
C385 C389 1.308 . S
C386 C385 1.373 . S
C386 C387 1.429 . S
C386 H396 0.932 . S
C387 C384 1.358 . S
C387 C386 1.429 . S
C387 H397 0.930 . S
C388 C384 1.332 . S
C388 C389 1.394 . S
C388 H398 0.932 . S
C389 C385 1.308 . S
C389 C388 1.394 . S
C389 H399 0.929 . S
C390 Tb361 2.764 . S
C390 O374 1.239 . S
C390 O375 1.263 . S
C390 C384 1.504 . S
C391 O376 1.236 . S
C391 O377 1.257 . S
H392 C365 0.932 . S
H393 C366 0.930 . S
H394 C367 0.932 . S
H395 C368 0.929 . S
H396 C386 0.932 . S
H397 C387 0.930 . S
H398 C388 0.932 . S
H399 C389 0.929 . S
Tb400 C409 2.764 . S
Tb400 O410 2.325 . S
Tb400 O413 2.303 . S
Tb400 O417 2.322 . S
Tb400 O418 2.349 . S
Tb400 O421 2.415 . S
Tb400 O422 2.399 . S
Tb401 O411 2.322 . S
Tb401 O412 2.349 . S
Tb401 O414 2.415 . S
Tb401 O415 2.399 . S
Tb401 O416 2.325 . S
Tb401 O419 2.303 . S
Tb401 C430 2.764 . S
C402 O418 1.261 . S
C402 O419 1.257 . S
C403 C406 1.358 . S
C403 C407 1.332 . S
C403 C409 1.504 . S
C404 C405 1.373 . S
C404 C408 1.308 . S
C405 C404 1.373 . S
C405 C406 1.429 . S
C405 H432 0.932 . S
C406 C403 1.358 . S
C406 C405 1.429 . S
C406 H433 0.930 . S
C407 C403 1.332 . S
C407 C408 1.394 . S
C407 H434 0.932 . S
C408 C404 1.308 . S
C408 C407 1.394 . S
C408 H435 0.929 . S
C409 Tb400 2.764 . S
C409 C403 1.504 . S
C409 O421 1.239 . S
C409 O422 1.263 . S
O410 Tb400 2.325 . S
O410 C420 1.236 . S
O411 Tb401 2.322 . S
O411 C420 1.257 . S
O412 Tb401 2.349 . S
O412 C423 1.261 . S
O413 Tb400 2.303 . S
O413 C423 1.257 . S
O414 Tb401 2.415 . S
O414 C430 1.239 . S
O415 Tb401 2.399 . S
O415 C430 1.263 . S
O416 Tb401 2.325 . S
O416 C431 1.236 . S
O417 Tb400 2.322 . S
O417 C431 1.257 . S
O418 Tb400 2.349 . S
O418 C402 1.261 . S
O419 Tb401 2.303 . S
O419 C402 1.257 . S
C420 O410 1.236 . S
C420 O411 1.257 . S
O421 Tb400 2.415 . S
O421 C409 1.239 . S
O422 Tb400 2.399 . S
O422 C409 1.263 . S
C423 O412 1.261 . S
C423 O413 1.257 . S
C424 C427 1.358 . S
C424 C428 1.332 . S
C424 C430 1.504 1_545 S
C425 C426 1.373 . S
C425 C429 1.308 . S
C426 C425 1.373 . S
C426 C427 1.429 . S
C426 H436 0.932 . S
C427 C424 1.358 . S
C427 C426 1.429 . S
C427 H437 0.930 . S
C428 C424 1.332 . S
C428 C429 1.394 . S
C428 H438 0.932 . S
C429 C425 1.308 . S
C429 C428 1.394 . S
C429 H439 0.929 . S
C430 Tb401 2.764 . S
C430 O414 1.239 . S
C430 O415 1.263 . S
C430 C424 1.504 1_565 S
C431 O416 1.236 . S
C431 O417 1.257 . S
H432 C405 0.932 . S
H433 C406 0.930 . S
H434 C407 0.932 . S
H435 C408 0.929 . S
H436 C426 0.932 . S
H437 C427 0.930 . S
H438 C428 0.932 . S
H439 C429 0.929 . S
Tb440 C449 2.764 . S
Tb440 O450 2.325 . S
Tb440 O453 2.303 . S
Tb440 O457 2.322 . S
Tb440 O458 2.349 . S
Tb440 O461 2.415 . S
Tb440 O462 2.399 . S
Tb441 O451 2.322 . S
Tb441 O452 2.349 . S
Tb441 O454 2.415 . S
Tb441 O455 2.399 . S
Tb441 O456 2.325 . S
Tb441 O459 2.303 . S
Tb441 C470 2.764 . S
C442 O458 1.261 . S
C442 O459 1.257 . S
C443 C446 1.358 . S
C443 C447 1.332 . S
C443 C449 1.504 . S
C444 C445 1.373 . S
C444 C448 1.308 . S
C445 C444 1.373 . S
C445 C446 1.429 . S
C445 H472 0.932 . S
C446 C443 1.358 . S
C446 C445 1.429 . S
C446 H473 0.930 . S
C447 C443 1.332 . S
C447 C448 1.394 . S
C447 H474 0.932 . S
C448 C444 1.308 . S
C448 C447 1.394 . S
C448 H475 0.929 . S
C449 Tb440 2.764 . S
C449 C443 1.504 . S
C449 O461 1.239 . S
C449 O462 1.263 . S
O450 Tb440 2.325 . S
O450 C460 1.236 . S
O451 Tb441 2.322 . S
O451 C460 1.257 . S
O452 Tb441 2.349 . S
O452 C463 1.261 . S
O453 Tb440 2.303 . S
O453 C463 1.257 . S
O454 Tb441 2.415 . S
O454 C470 1.239 . S
O455 Tb441 2.399 . S
O455 C470 1.263 . S
O456 Tb441 2.325 . S
O456 C471 1.236 . S
O457 Tb440 2.322 . S
O457 C471 1.257 . S
O458 Tb440 2.349 . S
O458 C442 1.261 . S
O459 Tb441 2.303 . S
O459 C442 1.257 . S
C460 O450 1.236 . S
C460 O451 1.257 . S
O461 Tb440 2.415 . S
O461 C449 1.239 . S
O462 Tb440 2.399 . S
O462 C449 1.263 . S
C463 O452 1.261 . S
C463 O453 1.257 . S
C464 C467 1.358 . S
C464 C468 1.332 . S
C464 C470 1.504 . S
C465 C466 1.373 . S
C465 C469 1.308 . S
C466 C465 1.373 . S
C466 C467 1.429 . S
C466 H476 0.932 . S
C467 C464 1.358 . S
C467 C466 1.429 . S
C467 H477 0.930 . S
C468 C464 1.332 . S
C468 C469 1.394 . S
C468 H478 0.932 . S
C469 C465 1.308 . S
C469 C468 1.394 . S
C469 H479 0.929 . S
C470 Tb441 2.764 . S
C470 O454 1.239 . S
C470 O455 1.263 . S
C470 C464 1.504 . S
C471 O456 1.236 . S
C471 O457 1.257 . S
H472 C445 0.932 . S
H473 C446 0.930 . S
H474 C447 0.932 . S
H475 C448 0.929 . S
H476 C466 0.932 . S
H477 C467 0.930 . S
H478 C468 0.932 . S
H479 C469 0.929 . S
H480 C488 0.950 . S
H481 C493 0.950 . S
H482 C490 0.950 . S
H483 C492 0.950 . S
H484 C494 0.950 . S
H485 C496 0.950 . S
H486 C498 0.950 . S
H487 C499 0.950 . S
C488 H480 0.950 . S
C488 C489 1.386 . S
C488 C490 1.391 . S
C489 C488 1.386 . S
C489 C493 1.393 . S
C490 H482 0.950 . S
C490 C488 1.391 . S
C490 C491 1.400 . S
C491 C490 1.400 . S
C491 C492 1.398 . S
C491 C497 1.491 . S
C492 H483 0.950 . S
C492 C491 1.398 . S
C492 C493 1.391 . S
C493 H481 0.950 . S
C493 C489 1.393 . S
C493 C492 1.391 . S
C494 H484 0.950 . S
C494 C495 1.386 . S
C494 C496 1.391 . S
C495 C494 1.386 . S
C495 C499 1.393 . S
C496 H485 0.950 . S
C496 C494 1.391 . S
C496 C497 1.400 . S
C497 C491 1.491 . S
C497 C496 1.400 . S
C497 C498 1.398 . S
C498 H486 0.950 . S
C498 C497 1.398 . S
C498 C499 1.391 . S
C499 H487 0.950 . S
C499 C495 1.393 . S
C499 C498 1.391 . S
H500 C508 0.950 . S
H501 C513 0.950 . S
H502 C510 0.950 . S
H503 C512 0.950 . S
H504 C514 0.950 . S
H505 C516 0.950 . S
H506 C518 0.950 . S
H507 C519 0.950 . S
C508 H500 0.950 . S
C508 C509 1.386 . S
C508 C510 1.391 . S
C509 C508 1.386 . S
C509 C513 1.393 . S
C510 H502 0.950 . S
C510 C508 1.391 . S
C510 C511 1.400 . S
C511 C510 1.400 . S
C511 C512 1.398 . S
C511 C517 1.491 1_455 S
C512 H503 0.950 . S
C512 C511 1.398 . S
C512 C513 1.391 . S
C513 H501 0.950 . S
C513 C509 1.393 . S
C513 C512 1.391 . S
C514 H504 0.950 . S
C514 C515 1.386 . S
C514 C516 1.391 . S
C515 C514 1.386 . S
C515 C519 1.393 . S
C516 H505 0.950 . S
C516 C514 1.391 . S
C516 C517 1.400 . S
C517 C511 1.491 1_655 S
C517 C516 1.400 . S
C517 C518 1.398 . S
C518 H506 0.950 . S
C518 C517 1.398 . S
C518 C519 1.391 . S
C519 H507 0.950 . S
C519 C515 1.393 . S
C519 C518 1.391 . S
H520 C528 0.950 . S
H521 C533 0.950 . S
H522 C530 0.950 . S
H523 C532 0.950 . S
H524 C534 0.950 . S
H525 C536 0.950 . S
H526 C538 0.950 . S
H527 C539 0.950 . S
C528 H520 0.950 . S
C528 C529 1.386 . S
C528 C530 1.391 . S
C529 C528 1.386 . S
C529 C533 1.393 . S
C530 H522 0.950 . S
C530 C528 1.391 . S
C530 C531 1.400 . S
C531 C530 1.400 . S
C531 C532 1.398 . S
C531 C537 1.491 1_545 S
C532 H523 0.950 . S
C532 C531 1.398 . S
C532 C533 1.391 . S
C533 H521 0.950 . S
C533 C529 1.393 . S
C533 C532 1.391 . S
C534 H524 0.950 . S
C534 C535 1.386 . S
C534 C536 1.391 . S
C535 C534 1.386 . S
C535 C539 1.393 . S
C536 H525 0.950 . S
C536 C534 1.391 . S
C536 C537 1.400 . S
C537 C531 1.491 1_565 S
C537 C536 1.400 . S
C537 C538 1.398 . S
C538 H526 0.950 . S
C538 C537 1.398 . S
C538 C539 1.391 . S
C539 H527 0.950 . S
C539 C535 1.393 . S
C539 C538 1.391 . S
H540 C548 0.950 . S
H541 C553 0.950 . S
H542 C550 0.950 . S
H543 C552 0.950 . S
H544 C554 0.950 . S
H545 C556 0.950 . S
H546 C558 0.950 . S
H547 C559 0.950 . S
C548 H540 0.950 . S
C548 C549 1.386 . S
C548 C550 1.391 . S
C549 C548 1.386 . S
C549 C553 1.393 . S
C550 H542 0.950 . S
C550 C548 1.391 . S
C550 C551 1.400 . S
C551 C550 1.400 . S
C551 C552 1.398 . S
C551 C557 1.491 . S
C552 H543 0.950 . S
C552 C551 1.398 . S
C552 C553 1.391 . S
C553 H541 0.950 . S
C553 C549 1.393 . S
C553 C552 1.391 . S
C554 H544 0.950 . S
C554 C555 1.386 . S
C554 C556 1.391 . S
C555 C554 1.386 . S
C555 C559 1.393 . S
C556 H545 0.950 . S
C556 C554 1.391 . S
C556 C557 1.400 . S
C557 C551 1.491 . S
C557 C556 1.400 . S
C557 C558 1.398 . S
C558 H546 0.950 . S
C558 C557 1.398 . S
C558 C559 1.391 . S
C559 H547 0.950 . S
C559 C555 1.393 . S
C559 C558 1.391 . S
H560 C568 0.950 . S
H561 C573 0.950 . S
H562 C570 0.950 . S
H563 C572 0.950 . S
H564 C574 0.950 . S
H565 C576 0.950 . S
H566 C578 0.950 . S
H567 C579 0.950 . S
C568 H560 0.950 . S
C568 C569 1.386 . S
C568 C570 1.391 . S
C569 C568 1.386 . S
C569 C573 1.393 . S
C570 H562 0.950 . S
C570 C568 1.391 . S
C570 C571 1.400 . S
C571 C570 1.400 . S
C571 C572 1.398 . S
C571 C577 1.491 1_455 S
C572 H563 0.950 . S
C572 C571 1.398 . S
C572 C573 1.391 . S
C573 H561 0.950 . S
C573 C569 1.393 . S
C573 C572 1.391 . S
C574 H564 0.950 . S
C574 C575 1.386 . S
C574 C576 1.391 . S
C575 C574 1.386 . S
C575 C579 1.393 . S
C576 H565 0.950 . S
C576 C574 1.391 . S
C576 C577 1.400 . S
C577 C571 1.491 1_655 S
C577 C576 1.400 . S
C577 C578 1.398 . S
C578 H566 0.950 . S
C578 C577 1.398 . S
C578 C579 1.391 . S
C579 H567 0.950 . S
C579 C575 1.393 . S
C579 C578 1.391 . S
H580 C588 0.950 . S
H581 C593 0.950 . S
H582 C590 0.950 . S
H583 C592 0.950 . S
H584 C594 0.950 . S
H585 C596 0.950 . S
H586 C598 0.950 . S
H587 C599 0.950 . S
C588 H580 0.950 . S
C588 C589 1.386 . S
C588 C590 1.391 . S
C589 C588 1.386 . S
C589 C593 1.393 . S
C590 H582 0.950 . S
C590 C588 1.391 . S
C590 C591 1.400 . S
C591 C590 1.400 . S
C591 C592 1.398 . S
C591 C597 1.491 1_565 S
C592 H583 0.950 . S
C592 C591 1.398 . S
C592 C593 1.391 . S
C593 H581 0.950 . S
C593 C589 1.393 . S
C593 C592 1.391 . S
C594 H584 0.950 . S
C594 C595 1.386 . S
C594 C596 1.391 . S
C595 C594 1.386 . S
C595 C599 1.393 . S
C596 H585 0.950 . S
C596 C594 1.391 . S
C596 C597 1.400 . S
C597 C591 1.491 1_545 S
C597 C596 1.400 . S
C597 C598 1.398 . S
C598 H586 0.950 . S
C598 C597 1.398 . S
C598 C599 1.391 . S
C599 H587 0.950 . S
C599 C595 1.393 . S
C599 C598 1.391 . S
H600 C608 0.950 . S
H601 C613 0.950 . S
H602 C610 0.950 . S
H603 C612 0.950 . S
H604 C614 0.950 . S
H605 C616 0.950 . S
H606 C618 0.950 . S
H607 C619 0.950 . S
C608 H600 0.950 . S
C608 C609 1.386 . S
C608 C610 1.391 . S
C609 C608 1.386 . S
C609 C613 1.393 . S
C610 H602 0.950 . S
C610 C608 1.391 . S
C610 C611 1.400 . S
C611 C610 1.400 . S
C611 C612 1.398 . S
C611 C617 1.491 . S
C612 H603 0.950 . S
C612 C611 1.398 . S
C612 C613 1.391 . S
C613 H601 0.950 . S
C613 C609 1.393 . S
C613 C612 1.391 . S
C614 H604 0.950 . S
C614 C615 1.386 . S
C614 C616 1.391 . S
C615 C614 1.386 . S
C615 C619 1.393 . S
C616 H605 0.950 . S
C616 C614 1.391 . S
C616 C617 1.400 . S
C617 C611 1.491 . S
C617 C616 1.400 . S
C617 C618 1.398 . S
C618 H606 0.950 . S
C618 C617 1.398 . S
C618 C619 1.391 . S
C619 H607 0.950 . S
C619 C615 1.393 . S
C619 C618 1.391 . S
H620 C628 0.950 . S
H621 C633 0.950 . S
H622 C630 0.950 . S
H623 C632 0.950 . S
H624 C634 0.950 . S
H625 C636 0.950 . S
H626 C638 0.950 . S
H627 C639 0.950 . S
C628 H620 0.950 . S
C628 C629 1.386 . S
C628 C630 1.391 . S
C629 C628 1.386 . S
C629 C633 1.393 . S
C630 H622 0.950 . S
C630 C628 1.391 . S
C630 C631 1.400 . S
C631 C630 1.400 . S
C631 C632 1.398 . S
C631 C637 1.491 1_455 S
C632 H623 0.950 . S
C632 C631 1.398 . S
C632 C633 1.391 . S
C633 H621 0.950 . S
C633 C629 1.393 . S
C633 C632 1.391 . S
C634 H624 0.950 . S
C634 C635 1.386 . S
C634 C636 1.391 . S
C635 C634 1.386 . S
C635 C639 1.393 . S
C636 H625 0.950 . S
C636 C634 1.391 . S
C636 C637 1.400 . S
C637 C631 1.491 1_655 S
C637 C636 1.400 . S
C637 C638 1.398 . S
C638 H626 0.950 . S
C638 C637 1.398 . S
C638 C639 1.391 . S
C639 H627 0.950 . S
C639 C635 1.393 . S
C639 C638 1.391 . S
H640 C648 0.950 . S
H641 C653 0.950 . S
H642 C650 0.950 . S
H643 C652 0.950 . S
H644 C654 0.950 . S
H645 C656 0.950 . S
H646 C658 0.950 . S
H647 C659 0.950 . S
C648 H640 0.950 . S
C648 C649 1.386 . S
C648 C650 1.391 . S
C649 C648 1.386 . S
C649 C653 1.393 . S
C650 H642 0.950 . S
C650 C648 1.391 . S
C650 C651 1.400 . S
C651 C650 1.400 . S
C651 C652 1.398 . S
C651 C657 1.491 1_565 S
C652 H643 0.950 . S
C652 C651 1.398 . S
C652 C653 1.391 . S
C653 H641 0.950 . S
C653 C649 1.393 . S
C653 C652 1.391 . S
C654 H644 0.950 . S
C654 C655 1.386 . S
C654 C656 1.391 . S
C655 C654 1.386 . S
C655 C659 1.393 . S
C656 H645 0.950 . S
C656 C654 1.391 . S
C656 C657 1.400 . S
C657 C651 1.491 1_545 S
C657 C656 1.400 . S
C657 C658 1.398 . S
C658 H646 0.950 . S
C658 C657 1.398 . S
C658 C659 1.391 . S
C659 H647 0.950 . S
C659 C655 1.393 . S
C659 C658 1.391 . S
H660 C668 0.950 . S
H661 C673 0.950 . S
H662 C670 0.950 . S
H663 C672 0.950 . S
H664 C674 0.950 . S
H665 C676 0.950 . S
H666 C678 0.950 . S
H667 C679 0.950 . S
C668 H660 0.950 . S
C668 C669 1.386 . S
C668 C670 1.391 . S
C669 C668 1.386 . S
C669 C673 1.393 . S
C670 H662 0.950 . S
C670 C668 1.391 . S
C670 C671 1.400 . S
C671 C670 1.400 . S
C671 C672 1.398 . S
C671 C677 1.491 . S
C672 H663 0.950 . S
C672 C671 1.398 . S
C672 C673 1.391 . S
C673 H661 0.950 . S
C673 C669 1.393 . S
C673 C672 1.391 . S
C674 H664 0.950 . S
C674 C675 1.386 . S
C674 C676 1.391 . S
C675 C674 1.386 . S
C675 C679 1.393 . S
C676 H665 0.950 . S
C676 C674 1.391 . S
C676 C677 1.400 . S
C677 C671 1.491 . S
C677 C676 1.400 . S
C677 C678 1.398 . S
C678 H666 0.950 . S
C678 C677 1.398 . S
C678 C679 1.391 . S
C679 H667 0.950 . S
C679 C675 1.393 . S
C679 C678 1.391 . S
H680 C688 0.950 . S
H681 C693 0.950 . S
H682 C690 0.950 . S
H683 C692 0.950 . S
H684 C694 0.950 . S
H685 C696 0.950 . S
H686 C698 0.950 . S
H687 C699 0.950 . S
C688 H680 0.950 . S
C688 C689 1.386 . S
C688 C690 1.391 . S
C689 C688 1.386 . S
C689 C693 1.393 . S
C690 H682 0.950 . S
C690 C688 1.391 . S
C690 C691 1.400 . S
C691 C690 1.400 . S
C691 C692 1.398 . S
C691 C697 1.491 1_455 S
C692 H683 0.950 . S
C692 C691 1.398 . S
C692 C693 1.391 . S
C693 H681 0.950 . S
C693 C689 1.393 . S
C693 C692 1.391 . S
C694 H684 0.950 . S
C694 C695 1.386 . S
C694 C696 1.391 . S
C695 C694 1.386 . S
C695 C699 1.393 . S
C696 H685 0.950 . S
C696 C694 1.391 . S
C696 C697 1.400 . S
C697 C691 1.491 1_655 S
C697 C696 1.400 . S
C697 C698 1.398 . S
C698 H686 0.950 . S
C698 C697 1.398 . S
C698 C699 1.391 . S
C699 H687 0.950 . S
C699 C695 1.393 . S
C699 C698 1.391 . S
H700 C708 0.950 . S
H701 C713 0.950 . S
H702 C710 0.950 . S
H703 C712 0.950 . S
H704 C714 0.950 . S
H705 C716 0.950 . S
H706 C718 0.950 . S
H707 C719 0.950 . S
C708 H700 0.950 . S
C708 C709 1.386 . S
C708 C710 1.391 . S
C709 C708 1.386 . S
C709 C713 1.393 . S
C710 H702 0.950 . S
C710 C708 1.391 . S
C710 C711 1.400 . S
C711 C710 1.400 . S
C711 C712 1.398 . S
C711 C717 1.491 1_545 S
C712 H703 0.950 . S
C712 C711 1.398 . S
C712 C713 1.391 . S
C713 H701 0.950 . S
C713 C709 1.393 . S
C713 C712 1.391 . S
C714 H704 0.950 . S
C714 C715 1.386 . S
C714 C716 1.391 . S
C715 C714 1.386 . S
C715 C719 1.393 . S
C716 H705 0.950 . S
C716 C714 1.391 . S
C716 C717 1.400 . S
C717 C711 1.491 1_565 S
C717 C716 1.400 . S
C717 C718 1.398 . S
C718 H706 0.950 . S
C718 C717 1.398 . S
C718 C719 1.391 . S
C719 H707 0.950 . S
C719 C715 1.393 . S
C719 C718 1.391 . S
H720 C728 0.950 . S
H721 C733 0.950 . S
H722 C730 0.950 . S
H723 C732 0.950 . S
H724 C734 0.950 . S
H725 C736 0.950 . S
H726 C738 0.950 . S
H727 C739 0.950 . S
C728 H720 0.950 . S
C728 C729 1.386 . S
C728 C730 1.391 . S
C729 C728 1.386 . S
C729 C733 1.393 . S
C730 H722 0.950 . S
C730 C728 1.391 . S
C730 C731 1.400 . S
C731 C730 1.400 . S
C731 C732 1.398 . S
C731 C737 1.491 . S
C732 H723 0.950 . S
C732 C731 1.398 . S
C732 C733 1.391 . S
C733 H721 0.950 . S
C733 C729 1.393 . S
C733 C732 1.391 . S
C734 H724 0.950 . S
C734 C735 1.386 . S
C734 C736 1.391 . S
C735 C734 1.386 . S
C735 C739 1.393 . S
C736 H725 0.950 . S
C736 C734 1.391 . S
C736 C737 1.400 . S
C737 C731 1.491 . S
C737 C736 1.400 . S
C737 C738 1.398 . S
C738 H726 0.950 . S
C738 C737 1.398 . S
C738 C739 1.391 . S
C739 H727 0.950 . S
C739 C735 1.393 . S
C739 C738 1.391 . S
H740 C748 0.950 . S
H741 C753 0.950 . S
H742 C750 0.950 . S
H743 C752 0.950 . S
H744 C754 0.950 . S
H745 C756 0.950 . S
H746 C758 0.950 . S
H747 C759 0.950 . S
C748 H740 0.950 . S
C748 C749 1.386 . S
C748 C750 1.391 . S
C749 C748 1.386 . S
C749 C753 1.393 . S
C750 H742 0.950 . S
C750 C748 1.391 . S
C750 C751 1.400 . S
C751 C750 1.400 . S
C751 C752 1.398 . S
C751 C757 1.491 . S
C752 H743 0.950 . S
C752 C751 1.398 . S
C752 C753 1.391 . S
C753 H741 0.950 . S
C753 C749 1.393 . S
C753 C752 1.391 . S
C754 H744 0.950 . S
C754 C755 1.386 . S
C754 C756 1.391 . S
C755 C754 1.386 . S
C755 C759 1.393 . S
C756 H745 0.950 . S
C756 C754 1.391 . S
C756 C757 1.400 . S
C757 C751 1.491 . S
C757 C756 1.400 . S
C757 C758 1.398 . S
C758 H746 0.950 . S
C758 C757 1.398 . S
C758 C759 1.391 . S
C759 H747 0.950 . S
C759 C755 1.393 . S
C759 C758 1.391 . S
H760 C768 0.950 . S
H761 C773 0.950 . S
H762 C770 0.950 . S
H763 C772 0.950 . S
H764 C774 0.950 . S
H765 C776 0.950 . S
H766 C778 0.950 . S
H767 C779 0.950 . S
C768 H760 0.950 . S
C768 C769 1.386 . S
C768 C770 1.391 . S
C769 C768 1.386 . S
C769 C773 1.393 . S
C770 H762 0.950 . S
C770 C768 1.391 . S
C770 C771 1.400 . S
C771 C770 1.400 . S
C771 C772 1.398 . S
C771 C777 1.491 . S
C772 H763 0.950 . S
C772 C771 1.398 . S
C772 C773 1.391 . S
C773 H761 0.950 . S
C773 C769 1.393 . S
C773 C772 1.391 . S
C774 H764 0.950 . S
C774 C775 1.386 . S
C774 C776 1.391 . S
C775 C774 1.386 . S
C775 C779 1.393 . S
C776 H765 0.950 . S
C776 C774 1.391 . S
C776 C777 1.400 . S
C777 C771 1.491 . S
C777 C776 1.400 . S
C777 C778 1.398 . S
C778 H766 0.950 . S
C778 C777 1.398 . S
C778 C779 1.391 . S
C779 H767 0.950 . S
C779 C775 1.393 . S
C779 C778 1.391 . S
H780 C788 0.950 . S
H781 C793 0.950 . S
H782 C790 0.950 . S
H783 C792 0.950 . S
H784 C794 0.950 . S
H785 C796 0.950 . S
H786 C798 0.950 . S
H787 C799 0.950 . S
C788 H780 0.950 . S
C788 C789 1.386 . S
C788 C790 1.391 . S
C789 C788 1.386 . S
C789 C793 1.393 . S
C790 H782 0.950 . S
C790 C788 1.391 . S
C790 C791 1.400 . S
C791 C790 1.400 . S
C791 C792 1.398 . S
C791 C797 1.491 . S
C792 H783 0.950 . S
C792 C791 1.398 . S
C792 C793 1.391 . S
C793 H781 0.950 . S
C793 C789 1.393 . S
C793 C792 1.391 . S
C794 H784 0.950 . S
C794 C795 1.386 . S
C794 C796 1.391 . S
C795 C794 1.386 . S
C795 C799 1.393 . S
C796 H785 0.950 . S
C796 C794 1.391 . S
C796 C797 1.400 . S
C797 C791 1.491 . S
C797 C796 1.400 . S
C797 C798 1.398 . S
C798 H786 0.950 . S
C798 C797 1.398 . S
C798 C799 1.391 . S
C799 H787 0.950 . S
C799 C795 1.393 . S
C799 C798 1.391 . S
H800 C808 0.950 . S
H801 C813 0.950 . S
H802 C810 0.950 . S
H803 C812 0.950 . S
H804 C814 0.950 . S
H805 C816 0.950 . S
H806 C818 0.950 . S
H807 C819 0.950 . S
C808 H800 0.950 . S
C808 C809 1.386 . S
C808 C810 1.391 . S
C809 C808 1.386 . S
C809 C813 1.393 . S
C810 H802 0.950 . S
C810 C808 1.391 . S
C810 C811 1.400 . S
C811 C810 1.400 . S
C811 C812 1.398 . S
C811 C817 1.491 . S
C812 H803 0.950 . S
C812 C811 1.398 . S
C812 C813 1.391 . S
C813 H801 0.950 . S
C813 C809 1.393 . S
C813 C812 1.391 . S
C814 H804 0.950 . S
C814 C815 1.386 . S
C814 C816 1.391 . S
C815 C814 1.386 . S
C815 C819 1.393 . S
C816 H805 0.950 . S
C816 C814 1.391 . S
C816 C817 1.400 . S
C817 C811 1.491 . S
C817 C816 1.400 . S
C817 C818 1.398 . S
C818 H806 0.950 . S
C818 C817 1.398 . S
C818 C819 1.391 . S
C819 H807 0.950 . S
C819 C815 1.393 . S
C819 C818 1.391 . S
H820 C828 0.950 . S
H821 C833 0.950 . S
H822 C830 0.950 . S
H823 C832 0.950 . S
H824 C834 0.950 . S
H825 C836 0.950 . S
H826 C838 0.950 . S
H827 C839 0.950 . S
C828 H820 0.950 . S
C828 C829 1.386 . S
C828 C830 1.391 . S
C829 C828 1.386 . S
C829 C833 1.393 . S
C830 H822 0.950 . S
C830 C828 1.391 . S
C830 C831 1.400 . S
C831 C830 1.400 . S
C831 C832 1.398 . S
C831 C837 1.491 . S
C832 H823 0.950 . S
C832 C831 1.398 . S
C832 C833 1.391 . S
C833 H821 0.950 . S
C833 C829 1.393 . S
C833 C832 1.391 . S
C834 H824 0.950 . S
C834 C835 1.386 . S
C834 C836 1.391 . S
C835 C834 1.386 . S
C835 C839 1.393 . S
C836 H825 0.950 . S
C836 C834 1.391 . S
C836 C837 1.400 . S
C837 C831 1.491 . S
C837 C836 1.400 . S
C837 C838 1.398 . S
C838 H826 0.950 . S
C838 C837 1.398 . S
C838 C839 1.391 . S
C839 H827 0.950 . S
C839 C835 1.393 . S
C839 C838 1.391 . S
H840 C848 0.950 . S
H841 C853 0.950 . S
H842 C850 0.950 . S
H843 C852 0.933 1_554 S
H844 C854 0.950 . S
H845 C856 0.950 . S
H846 C858 0.933 1_556 S
H847 C859 0.950 . S
C848 H840 0.950 . S
C848 C849 1.386 . S
C848 C850 1.391 . S
C849 C848 1.386 . S
C849 C853 1.393 . S
C850 H842 0.950 . S
C850 C848 1.391 . S
C850 C851 1.400 . S
C851 C850 1.400 . S
C851 C852 1.398 . S
C851 C857 1.491 1_566 S
C852 H843 0.933 1_556 S
C852 C851 1.398 . S
C852 C853 1.391 . S
C853 H841 0.950 . S
C853 C849 1.393 . S
C853 C852 1.391 . S
C854 H844 0.950 . S
C854 C855 1.386 . S
C854 C856 1.391 . S
C855 C854 1.386 . S
C855 C859 1.393 . S
C856 H845 0.950 . S
C856 C854 1.391 . S
C856 C857 1.400 . S
C857 C851 1.491 1_544 S
C857 C856 1.400 . S
C857 C858 1.398 . S
C858 H846 0.933 1_554 S
C858 C857 1.398 . S
C858 C859 1.391 . S
C859 H847 0.950 . S
C859 C855 1.393 . S
C859 C858 1.391 . S
H860 C868 0.950 . S
H861 C873 0.950 . S
H862 C870 0.950 . S
H863 C872 0.950 . S
H864 C874 0.950 . S
H865 C876 0.950 . S
H866 C878 0.950 . S
H867 C879 0.950 . S
C868 H860 0.950 . S
C868 C869 1.386 . S
C868 C870 1.391 . S
C869 C868 1.386 . S
C869 C873 1.393 . S
C870 H862 0.950 . S
C870 C868 1.391 . S
C870 C871 1.400 . S
C871 C870 1.400 . S
C871 C872 1.398 . S
C871 C877 1.491 . S
C872 H863 0.950 . S
C872 C871 1.398 . S
C872 C873 1.391 . S
C873 H861 0.950 . S
C873 C869 1.393 . S
C873 C872 1.391 . S
C874 H864 0.950 . S
C874 C875 1.386 . S
C874 C876 1.391 . S
C875 C874 1.386 . S
C875 C879 1.393 . S
C876 H865 0.950 . S
C876 C874 1.391 . S
C876 C877 1.400 . S
C877 C871 1.491 . S
C877 C876 1.400 . S
C877 C878 1.398 . S
C878 H866 0.950 . S
C878 C877 1.398 . S
C878 C879 1.391 . S
C879 H867 0.950 . S
C879 C875 1.393 . S
C879 C878 1.391 . S
H880 C888 0.950 . S
H881 C893 0.950 . S
H882 C890 0.950 1_554 S
H883 C892 0.950 1_655 S
H884 C894 0.950 . S
H885 C896 0.950 1_556 S
H886 C898 0.950 1_455 S
H887 C899 0.950 . S
C888 H880 0.950 . S
C888 C889 1.386 . S
C888 C890 1.391 . S
C889 C888 1.386 . S
C889 C893 1.393 . S
C890 H882 0.950 1_556 S
C890 C888 1.391 . S
C890 C891 1.400 . S
C891 C890 1.400 . S
C891 C892 1.398 . S
C891 C897 1.491 1_456 S
C892 H883 0.950 1_455 S
C892 C891 1.398 . S
C892 C893 1.391 . S
C893 H881 0.950 . S
C893 C889 1.393 . S
C893 C892 1.391 . S
C894 H884 0.950 . S
C894 C895 1.386 . S
C894 C896 1.391 . S
C895 C894 1.386 . S
C895 C899 1.393 . S
C896 H885 0.950 1_554 S
C896 C894 1.391 . S
C896 C897 1.400 . S
C897 C891 1.491 1_654 S
C897 C896 1.400 . S
C897 C898 1.398 . S
C898 H886 0.950 1_655 S
C898 C897 1.398 . S
C898 C899 1.391 . S
C899 H887 0.950 . S
C899 C895 1.393 . S
C899 C898 1.391 . S
H900 C908 0.950 . S
H901 C913 0.950 . S
H902 C910 0.950 . S
H903 C912 0.950 . S
H904 C914 0.950 . S
H905 C916 0.950 . S
H906 C918 0.950 . S
H907 C919 0.950 . S
C908 H900 0.950 . S
C908 C909 1.386 . S
C908 C910 1.391 . S
C909 C908 1.386 . S
C909 C913 1.393 . S
C910 H902 0.950 . S
C910 C908 1.391 . S
C910 C911 1.400 . S
C911 C910 1.400 . S
C911 C912 1.398 . S
C911 C917 1.491 1_545 S
C912 H903 0.950 . S
C912 C911 1.398 . S
C912 C913 1.391 . S
C913 H901 0.950 . S
C913 C909 1.393 . S
C913 C912 1.391 . S
C914 H904 0.950 . S
C914 C915 1.386 . S
C914 C916 1.391 . S
C915 C914 1.386 . S
C915 C919 1.393 . S
C916 H905 0.950 . S
C916 C914 1.391 . S
C916 C917 1.400 . S
C917 C911 1.491 1_565 S
C917 C916 1.400 . S
C917 C918 1.398 . S
C918 H906 0.950 . S
C918 C917 1.398 . S
C918 C919 1.391 . S
C919 H907 0.950 . S
C919 C915 1.393 . S
C919 C918 1.391 . S
H920 C928 0.950 . S
H921 C933 0.950 . S
H922 C930 0.950 . S
H923 C932 0.950 . S
H924 C934 0.950 . S
H925 C936 0.950 . S
H926 C938 0.950 . S
H927 C939 0.950 . S
C928 H920 0.950 . S
C928 C929 1.386 . S
C928 C930 1.391 . S
C929 C928 1.386 . S
C929 C933 1.393 . S
C930 H922 0.950 . S
C930 C928 1.391 . S
C930 C931 1.400 . S
C931 C930 1.400 . S
C931 C932 1.398 . S
C931 C937 1.491 1_554 S
C932 H923 0.950 . S
C932 C931 1.398 . S
C932 C933 1.391 . S
C933 H921 0.950 . S
C933 C929 1.393 . S
C933 C932 1.391 . S
C934 H924 0.950 . S
C934 C935 1.386 . S
C934 C936 1.391 . S
C935 C934 1.386 . S
C935 C939 1.393 . S
C936 H925 0.950 . S
C936 C934 1.391 . S
C936 C937 1.400 . S
C937 C931 1.491 1_556 S
C937 C936 1.400 . S
C937 C938 1.398 . S
C938 H926 0.950 . S
C938 C937 1.398 . S
C938 C939 1.391 . S
C939 H927 0.950 . S
C939 C935 1.393 . S
C939 C938 1.391 . S
H940 C948 0.950 . S
H941 C953 0.950 . S
H942 C950 0.950 . S
H943 C952 0.950 . S
H944 C954 0.950 . S
H945 C956 0.950 . S
H946 C958 0.950 . S
H947 C959 0.950 . S
C948 H940 0.950 . S
C948 C949 1.386 . S
C948 C950 1.391 . S
C949 C948 1.386 . S
C949 C953 1.393 . S
C950 H942 0.950 . S
C950 C948 1.391 . S
C950 C951 1.400 . S
C951 C950 1.400 . S
C951 C952 1.398 . S
C951 C957 1.491 1_455 S
C952 H943 0.950 . S
C952 C951 1.398 . S
C952 C953 1.391 . S
C953 H941 0.950 . S
C953 C949 1.393 . S
C953 C952 1.391 . S
C954 H944 0.950 . S
C954 C955 1.386 . S
C954 C956 1.391 . S
C955 C954 1.386 . S
C955 C959 1.393 . S
C956 H945 0.950 . S
C956 C954 1.391 . S
C956 C957 1.400 . S
C957 C951 1.491 1_655 S
C957 C956 1.400 . S
C957 C958 1.398 . S
C958 H946 0.950 . S
C958 C957 1.398 . S
C958 C959 1.391 . S
C959 H947 0.950 . S
C959 C955 1.393 . S
C959 C958 1.391 . S
H960 C968 0.950 . S
H961 C973 0.950 . S
H962 C970 0.950 . S
H963 C972 0.950 . S
H964 C974 0.950 . S
H965 C976 0.950 . S
H966 C978 0.950 . S
H967 C979 0.950 . S
C968 H960 0.950 . S
C968 C969 1.386 . S
C968 C970 1.391 . S
C969 C968 1.386 . S
C969 C973 1.393 . S
C970 H962 0.950 . S
C970 C968 1.391 . S
C970 C971 1.400 . S
C971 C970 1.400 . S
C971 C972 1.398 . S
C971 C977 1.491 . S
C972 H963 0.950 . S
C972 C971 1.398 . S
C972 C973 1.391 . S
C973 H961 0.950 . S
C973 C969 1.393 . S
C973 C972 1.391 . S
C974 H964 0.950 . S
C974 C975 1.386 . S
C974 C976 1.391 . S
C975 C974 1.386 . S
C975 C979 1.393 . S
C976 H965 0.950 . S
C976 C974 1.391 . S
C976 C977 1.400 . S
C977 C971 1.491 . S
C977 C976 1.400 . S
C977 C978 1.398 . S
C978 H966 0.950 . S
C978 C977 1.398 . S
C978 C979 1.391 . S
C979 H967 0.950 . S
C979 C975 1.393 . S
C979 C978 1.391 . S
H980 C988 0.950 . S
H981 C993 0.950 . S
H982 C990 0.950 . S
H983 C992 0.950 . S
H984 C994 0.950 . S
H985 C996 0.950 . S
H986 C998 0.950 . S
H987 C999 0.950 . S
C988 H980 0.950 . S
C988 C989 1.386 . S
C988 C990 1.391 . S
C989 C988 1.386 . S
C989 C993 1.393 . S
C990 H982 0.950 . S
C990 C988 1.391 . S
C990 C991 1.400 . S
C991 C990 1.400 . S
C991 C992 1.398 . S
C991 C997 1.491 . S
C992 H983 0.950 . S
C992 C991 1.398 . S
C992 C993 1.391 . S
C993 H981 0.950 . S
C993 C989 1.393 . S
C993 C992 1.391 . S
C994 H984 0.950 . S
C994 C995 1.386 . S
C994 C996 1.391 . S
C995 C994 1.386 . S
C995 C999 1.393 . S
C996 H985 0.950 . S
C996 C994 1.391 . S
C996 C997 1.400 . S
C997 C991 1.491 . S
C997 C996 1.400 . S
C997 C998 1.398 . S
C998 H986 0.950 . S
C998 C997 1.398 . S
C998 C999 1.391 . S
C999 H987 0.950 . S
C999 C995 1.393 . S
C999 C998 1.391 . S
H1000 C1008 0.950 . S
H1001 C1013 0.950 . S
H1002 C1010 0.950 . S
H1003 C1012 0.950 . S
H1004 C1014 0.950 . S
H1005 C1016 0.950 . S
H1006 C1018 0.950 . S
H1007 C1019 0.950 . S
C1008 H1000 0.950 . S
C1008 C1009 1.386 . S
C1008 C1010 1.391 . S
C1009 C1008 1.386 . S
C1009 C1013 1.393 . S
C1010 H1002 0.950 . S
C1010 C1008 1.391 . S
C1010 C1011 1.400 . S
C1011 C1010 1.400 . S
C1011 C1012 1.398 . S
C1011 C1017 1.491 . S
C1012 H1003 0.950 . S
C1012 C1011 1.398 . S
C1012 C1013 1.391 . S
C1013 H1001 0.950 . S
C1013 C1009 1.393 . S
C1013 C1012 1.391 . S
C1014 H1004 0.950 . S
C1014 C1015 1.386 . S
C1014 C1016 1.391 . S
C1015 C1014 1.386 . S
C1015 C1019 1.393 . S
C1016 H1005 0.950 . S
C1016 C1014 1.391 . S
C1016 C1017 1.400 . S
C1017 C1011 1.491 . S
C1017 C1016 1.400 . S
C1017 C1018 1.398 . S
C1018 H1006 0.950 . S
C1018 C1017 1.398 . S
C1018 C1019 1.391 . S
C1019 H1007 0.950 . S
C1019 C1015 1.393 . S
C1019 C1018 1.391 . S
H1020 C1028 0.950 . S
H1021 C1033 0.950 . S
H1022 C1030 0.950 . S
H1023 C1032 0.950 . S
H1024 C1034 0.950 . S
H1025 C1036 0.950 . S
H1026 C1038 0.950 . S
H1027 C1039 0.950 . S
C1028 H1020 0.950 . S
C1028 C1029 1.386 . S
C1028 C1030 1.391 . S
C1029 C1028 1.386 . S
C1029 C1033 1.393 . S
C1030 H1022 0.950 . S
C1030 C1028 1.391 . S
C1030 C1031 1.400 . S
C1031 C1030 1.400 . S
C1031 C1032 1.398 . S
C1031 C1037 1.491 . S
C1032 H1023 0.950 . S
C1032 C1031 1.398 . S
C1032 C1033 1.391 . S
C1033 H1021 0.950 . S
C1033 C1029 1.393 . S
C1033 C1032 1.391 . S
C1034 H1024 0.950 . S
C1034 C1035 1.386 . S
C1034 C1036 1.391 . S
C1035 C1034 1.386 . S
C1035 C1039 1.393 . S
C1036 H1025 0.950 . S
C1036 C1034 1.391 . S
C1036 C1037 1.400 . S
C1037 C1031 1.491 . S
C1037 C1036 1.400 . S
C1037 C1038 1.398 . S
C1038 H1026 0.950 . S
C1038 C1037 1.398 . S
C1038 C1039 1.391 . S
C1039 H1027 0.950 . S
C1039 C1035 1.393 . S
C1039 C1038 1.391 . S
H1040 C1048 0.950 . S
H1041 C1053 0.950 . S
H1042 C1050 0.950 . S
H1043 C1052 0.950 . S
H1044 C1054 0.950 . S
H1045 C1056 0.950 . S
H1046 C1058 0.950 . S
H1047 C1059 0.950 . S
C1048 H1040 0.950 . S
C1048 C1049 1.386 . S
C1048 C1050 1.391 . S
C1049 C1048 1.386 . S
C1049 C1053 1.393 . S
C1050 H1042 0.950 . S
C1050 C1048 1.391 . S
C1050 C1051 1.400 . S
C1051 C1050 1.400 . S
C1051 C1052 1.398 . S
C1051 C1057 1.491 . S
C1052 H1043 0.950 . S
C1052 C1051 1.398 . S
C1052 C1053 1.391 . S
C1053 H1041 0.950 . S
C1053 C1049 1.393 . S
C1053 C1052 1.391 . S
C1054 H1044 0.950 . S
C1054 C1055 1.386 . S
C1054 C1056 1.391 . S
C1055 C1054 1.386 . S
C1055 C1059 1.393 . S
C1056 H1045 0.950 . S
C1056 C1054 1.391 . S
C1056 C1057 1.400 . S
C1057 C1051 1.491 . S
C1057 C1056 1.400 . S
C1057 C1058 1.398 . S
C1058 H1046 0.950 . S
C1058 C1057 1.398 . S
C1058 C1059 1.391 . S
C1059 H1047 0.950 . S
C1059 C1055 1.393 . S
C1059 C1058 1.391 . S
H1060 C1068 0.950 . S
H1061 C1073 0.950 . S
H1062 C1070 0.950 . S
H1063 C1072 0.950 . S
H1064 C1074 0.950 . S
H1065 C1076 0.950 . S
H1066 C1078 0.950 . S
H1067 C1079 0.950 . S
C1068 H1060 0.950 . S
C1068 C1069 1.386 . S
C1068 C1070 1.391 . S
C1069 C1068 1.386 . S
C1069 C1073 1.393 . S
C1070 H1062 0.950 . S
C1070 C1068 1.391 . S
C1070 C1071 1.400 . S
C1071 C1070 1.400 . S
C1071 C1072 1.398 . S
C1071 C1077 1.491 . S
C1072 H1063 0.950 . S
C1072 C1071 1.398 . S
C1072 C1073 1.391 . S
C1073 H1061 0.950 . S
C1073 C1069 1.393 . S
C1073 C1072 1.391 . S
C1074 H1064 0.950 . S
C1074 C1075 1.386 . S
C1074 C1076 1.391 . S
C1075 C1074 1.386 . S
C1075 C1079 1.393 . S
C1076 H1065 0.950 . S
C1076 C1074 1.391 . S
C1076 C1077 1.400 . S
C1077 C1071 1.491 . S
C1077 C1076 1.400 . S
C1077 C1078 1.398 . S
C1078 H1066 0.950 . S
C1078 C1077 1.398 . S
C1078 C1079 1.391 . S
C1079 H1067 0.950 . S
C1079 C1075 1.393 . S
C1079 C1078 1.391 . S
H1080 C1088 0.950 . S
H1081 C1093 0.950 . S
H1082 C1090 0.950 . S
H1083 C1092 0.950 . S
H1084 C1094 0.950 . S
H1085 C1096 0.950 . S
H1086 C1098 0.950 . S
H1087 C1099 0.950 . S
C1088 H1080 0.950 . S
C1088 C1089 1.386 . S
C1088 C1090 1.391 . S
C1089 C1088 1.386 . S
C1089 C1093 1.393 . S
C1090 H1082 0.950 . S
C1090 C1088 1.391 . S
C1090 C1091 1.400 . S
C1091 C1090 1.400 . S
C1091 C1092 1.398 . S
C1091 C1097 1.491 . S
C1092 H1083 0.950 . S
C1092 C1091 1.398 . S
C1092 C1093 1.391 . S
C1093 H1081 0.950 . S
C1093 C1089 1.393 . S
C1093 C1092 1.391 . S
C1094 H1084 0.950 . S
C1094 C1095 1.386 . S
C1094 C1096 1.391 . S
C1095 C1094 1.386 . S
C1095 C1099 1.393 . S
C1096 H1085 0.950 . S
C1096 C1094 1.391 . S
C1096 C1097 1.400 . S
C1097 C1091 1.491 . S
C1097 C1096 1.400 . S
C1097 C1098 1.398 . S
C1098 H1086 0.950 . S
C1098 C1097 1.398 . S
C1098 C1099 1.391 . S
C1099 H1087 0.950 . S
C1099 C1095 1.393 . S
C1099 C1098 1.391 . S
H1100 C1108 0.950 . S
H1101 C1113 0.950 . S
H1102 C1110 0.950 . S
H1103 C1112 0.950 . S
H1104 C1114 0.950 . S
H1105 C1116 0.950 . S
H1106 C1118 0.950 . S
H1107 C1119 0.950 . S
C1108 H1100 0.950 . S
C1108 C1109 1.386 . S
C1108 C1110 1.391 . S
C1109 C1108 1.386 . S
C1109 C1113 1.393 . S
C1110 H1102 0.950 . S
C1110 C1108 1.391 . S
C1110 C1111 1.400 . S
C1111 C1110 1.400 . S
C1111 C1112 1.398 . S
C1111 C1117 1.491 . S
C1112 H1103 0.950 . S
C1112 C1111 1.398 . S
C1112 C1113 1.391 . S
C1113 H1101 0.950 . S
C1113 C1109 1.393 . S
C1113 C1112 1.391 . S
C1114 H1104 0.950 . S
C1114 C1115 1.386 . S
C1114 C1116 1.391 . S
C1115 C1114 1.386 . S
C1115 C1119 1.393 . S
C1116 H1105 0.950 . S
C1116 C1114 1.391 . S
C1116 C1117 1.400 . S
C1117 C1111 1.491 . S
C1117 C1116 1.400 . S
C1117 C1118 1.398 . S
C1118 H1106 0.950 . S
C1118 C1117 1.398 . S
C1118 C1119 1.391 . S
C1119 H1107 0.950 . S
C1119 C1115 1.393 . S
C1119 C1118 1.391 . S
H1120 C1128 0.950 . S
H1121 C1133 0.950 . S
H1122 C1130 0.950 . S
H1123 C1132 0.950 . S
H1124 C1134 0.950 . S
H1125 C1136 0.950 . S
H1126 C1138 0.950 . S
H1127 C1139 0.950 . S
C1128 H1120 0.950 . S
C1128 C1129 1.386 . S
C1128 C1130 1.391 . S
C1129 C1128 1.386 . S
C1129 C1133 1.393 . S
C1130 H1122 0.950 . S
C1130 C1128 1.391 . S
C1130 C1131 1.400 . S
C1131 C1130 1.400 . S
C1131 C1132 1.398 . S
C1131 C1137 1.491 . S
C1132 H1123 0.950 . S
C1132 C1131 1.398 . S
C1132 C1133 1.391 . S
C1133 H1121 0.950 . S
C1133 C1129 1.393 . S
C1133 C1132 1.391 . S
C1134 H1124 0.950 . S
C1134 C1135 1.386 . S
C1134 C1136 1.391 . S
C1135 C1134 1.386 . S
C1135 C1139 1.393 . S
C1136 H1125 0.950 . S
C1136 C1134 1.391 . S
C1136 C1137 1.400 . S
C1137 C1131 1.491 . S
C1137 C1136 1.400 . S
C1137 C1138 1.398 . S
C1138 H1126 0.950 . S
C1138 C1137 1.398 . S
C1138 C1139 1.391 . S
C1139 H1127 0.950 . S
C1139 C1135 1.393 . S
C1139 C1138 1.391 . S
H1140 C1148 0.950 . S
H1141 C1153 0.950 . S
H1142 C1150 0.950 . S
H1143 C1152 0.950 . S
H1144 C1154 0.950 . S
H1145 C1156 0.950 . S
H1146 C1158 0.950 . S
H1147 C1159 0.950 . S
C1148 H1140 0.950 . S
C1148 C1149 1.386 . S
C1148 C1150 1.391 . S
C1149 C1148 1.386 . S
C1149 C1153 1.393 . S
C1150 H1142 0.950 . S
C1150 C1148 1.391 . S
C1150 C1151 1.400 . S
C1151 C1150 1.400 . S
C1151 C1152 1.398 . S
C1151 C1157 1.491 . S
C1152 H1143 0.950 . S
C1152 C1151 1.398 . S
C1152 C1153 1.391 . S
C1153 H1141 0.950 . S
C1153 C1149 1.393 . S
C1153 C1152 1.391 . S
C1154 H1144 0.950 . S
C1154 C1155 1.386 . S
C1154 C1156 1.391 . S
C1155 C1154 1.386 . S
C1155 C1159 1.393 . S
C1156 H1145 0.950 . S
C1156 C1154 1.391 . S
C1156 C1157 1.400 . S
C1157 C1151 1.491 . S
C1157 C1156 1.400 . S
C1157 C1158 1.398 . S
C1158 H1146 0.950 . S
C1158 C1157 1.398 . S
C1158 C1159 1.391 . S
C1159 H1147 0.950 . S
C1159 C1155 1.393 . S
C1159 C1158 1.391 . S
H1160 C1168 0.950 . S
H1161 C1173 0.950 . S
H1162 C1170 0.950 . S
H1163 C1172 0.950 . S
H1164 C1174 0.950 . S
H1165 C1176 0.950 . S
H1166 C1178 0.950 . S
H1167 C1179 0.950 . S
C1168 H1160 0.950 . S
C1168 C1169 1.386 . S
C1168 C1170 1.391 . S
C1169 C1168 1.386 . S
C1169 C1173 1.393 . S
C1170 H1162 0.950 . S
C1170 C1168 1.391 . S
C1170 C1171 1.400 . S
C1171 C1170 1.400 . S
C1171 C1172 1.398 . S
C1171 C1177 1.491 . S
C1172 H1163 0.950 . S
C1172 C1171 1.398 . S
C1172 C1173 1.391 . S
C1173 H1161 0.950 . S
C1173 C1169 1.393 . S
C1173 C1172 1.391 . S
C1174 H1164 0.950 . S
C1174 C1175 1.386 . S
C1174 C1176 1.391 . S
C1175 C1174 1.386 . S
C1175 C1179 1.393 . S
C1176 H1165 0.950 . S
C1176 C1174 1.391 . S
C1176 C1177 1.400 . S
C1177 C1171 1.491 . S
C1177 C1176 1.400 . S
C1177 C1178 1.398 . S
C1178 H1166 0.950 . S
C1178 C1177 1.398 . S
C1178 C1179 1.391 . S
C1179 H1167 0.950 . S
C1179 C1175 1.393 . S
C1179 C1178 1.391 . S
H1180 C1188 0.950 . S
H1181 C1193 0.950 . S
H1182 C1190 0.950 . S
H1183 C1192 0.950 . S
H1184 C1194 0.950 . S
H1185 C1196 0.950 . S
H1186 C1198 0.950 . S
H1187 C1199 0.950 . S
C1188 H1180 0.950 . S
C1188 C1189 1.386 . S
C1188 C1190 1.391 . S
C1189 C1188 1.386 . S
C1189 C1193 1.393 . S
C1190 H1182 0.950 . S
C1190 C1188 1.391 . S
C1190 C1191 1.400 . S
C1191 C1190 1.400 . S
C1191 C1192 1.398 . S
C1191 C1197 1.491 . S
C1192 H1183 0.950 . S
C1192 C1191 1.398 . S
C1192 C1193 1.391 . S
C1193 H1181 0.950 . S
C1193 C1189 1.393 . S
C1193 C1192 1.391 . S
C1194 H1184 0.950 . S
C1194 C1195 1.386 . S
C1194 C1196 1.391 . S
C1195 C1194 1.386 . S
C1195 C1199 1.393 . S
C1196 H1185 0.950 . S
C1196 C1194 1.391 . S
C1196 C1197 1.400 . S
C1197 C1191 1.491 . S
C1197 C1196 1.400 . S
C1197 C1198 1.398 . S
C1198 H1186 0.950 . S
C1198 C1197 1.398 . S
C1198 C1199 1.391 . S
C1199 H1187 0.950 . S
C1199 C1195 1.393 . S
C1199 C1198 1.391 . S
C489 C84 1.205 . S
C495 C20 1.196 . S
C509 C145 1.222 . S
C515 C71 1.217 . S
C529 C100 1.193 . S
C535 C164 1.201 . S
C549 C151 1.193 . S
C555 C225 1.201 . S
C569 C4 1.219 . S
C575 C180 1.214 . S
C589 C65 1.202 . S
C595 C231 1.193 . S
C609 C425 1.222 . S
C615 C271 1.217 . S
C629 C300 1.201 . S
C635 C444 1.210 . S
C649 C351 1.207 . S
C655 C265 1.215 . S
C669 C380 1.194 . S
C675 C284 1.202 . S
C689 C431 1.214 . S
C695 C345 1.221 . S
C709 C364 1.216 . S
C715 C460 1.208 . S
C729 C143 1.738 . S
C735 C2 1.748 . S
C749 C63 1.731 . S
C755 C162 1.755 . S
C769 C82 1.755 . S
C775 C223 1.731 . S
C789 C263 1.730 . S
C795 C362 1.756 . S
C809 C282 1.753 . S
C815 C423 1.732 . S
C829 C343 1.736 . S
C835 C442 1.749 . S
C849 C303 2.330 . S
C855 C23 2.329 . S
C869 C42 2.321 . S
C875 C322 2.321 . S
C889 C383 2.321 . S
C895 C103 2.324 . S
C909 C122 2.329 . S
C915 C402 2.330 . S
C929 C183 2.322 . S
C935 C463 2.320 . S
C949 C242 2.322 . S
C955 C202 2.321 . S
C969 C105 1.560 . S
C975 C31 1.552 . S
C989 C60 1.549 . S
C995 C124 1.555 . S
C1009 C111 1.545 . S
C1015 C185 1.553 . S
C1029 C140 1.550 . S
C1035 C204 1.558 . S
C1049 C25 1.557 . S
C1055 C191 1.551 . S
C1069 C44 1.552 . S
C1075 C220 1.545 . S
C1089 C404 1.565 . S
C1095 C260 1.560 . S
C1109 C311 1.558 . S
C1115 C465 1.564 . S
C1129 C340 1.561 . S
C1135 C244 1.566 . S
C1149 C305 1.558 . S
C1155 C391 1.550 . S
C1169 C420 1.550 . S
C1175 C324 1.556 . S
C1189 C471 1.545 . S
C1195 C385 1.552 . S
